# Generated by pormake.
# Topology sxg, (6)-cn, num edge types: 1
# Building blocks:
#     Node 0, Type 0, BuildingBlock: MIFKUJ_clean_sbu_0, # of connection points: 6
#     Node 1, Type 0, BuildingBlock: MIFKUJ_clean_sbu_0, # of connection points: 6
#     Node 2, Type 0, BuildingBlock: MIFKUJ_clean_sbu_0, # of connection points: 6
#     Node 3, Type 0, BuildingBlock: MIFKUJ_clean_sbu_0, # of connection points: 6
#     Node 4, Type 0, BuildingBlock: MIFKUJ_clean_sbu_0, # of connection points: 6
#     Node 5, Type 0, BuildingBlock: MIFKUJ_clean_sbu_0, # of connection points: 6
#     Node 6, Type 0, BuildingBlock: MIFKUJ_clean_sbu_0, # of connection points: 6
#     Node 7, Type 0, BuildingBlock: MIFKUJ_clean_sbu_0, # of connection points: 6
#     Node 8, Type 0, BuildingBlock: MIFKUJ_clean_sbu_0, # of connection points: 6
#     Node 9, Type 0, BuildingBlock: MIFKUJ_clean_sbu_0, # of connection points: 6
#     Node 10, Type 0, BuildingBlock: MIFKUJ_clean_sbu_0, # of connection points: 6
#     Node 11, Type 0, BuildingBlock: MIFKUJ_clean_sbu_0, # of connection points: 6
#     Node 12, Type 0, BuildingBlock: MIFKUJ_clean_sbu_0, # of connection points: 6
#     Node 13, Type 0, BuildingBlock: MIFKUJ_clean_sbu_0, # of connection points: 6
#     Node 14, Type 0, BuildingBlock: MIFKUJ_clean_sbu_0, # of connection points: 6
#     Node 15, Type 0, BuildingBlock: MIFKUJ_clean_sbu_0, # of connection points: 6
#     Node 16, Type 0, BuildingBlock: MIFKUJ_clean_sbu_0, # of connection points: 6
#     Node 17, Type 0, BuildingBlock: MIFKUJ_clean_sbu_0, # of connection points: 6
#     Node 18, Type 0, BuildingBlock: MIFKUJ_clean_sbu_0, # of connection points: 6
#     Node 19, Type 0, BuildingBlock: MIFKUJ_clean_sbu_0, # of connection points: 6
#     Node 20, Type 0, BuildingBlock: MIFKUJ_clean_sbu_0, # of connection points: 6
#     Node 21, Type 0, BuildingBlock: MIFKUJ_clean_sbu_0, # of connection points: 6
#     Node 22, Type 0, BuildingBlock: MIFKUJ_clean_sbu_0, # of connection points: 6
#     Node 23, Type 0, BuildingBlock: MIFKUJ_clean_sbu_0, # of connection points: 6
#     Edge 24, Type (0, 0), BuildingBlock: ZUJKAS_clean_linker_0, # of connection points: 2
#     Edge 25, Type (0, 0), BuildingBlock: ZUJKAS_clean_linker_0, # of connection points: 2
#     Edge 26, Type (0, 0), BuildingBlock: ZUJKAS_clean_linker_0, # of connection points: 2
#     Edge 27, Type (0, 0), BuildingBlock: ZUJKAS_clean_linker_0, # of connection points: 2
#     Edge 28, Type (0, 0), BuildingBlock: ZUJKAS_clean_linker_0, # of connection points: 2
#     Edge 29, Type (0, 0), BuildingBlock: ZUJKAS_clean_linker_0, # of connection points: 2
#     Edge 30, Type (0, 0), BuildingBlock: ZUJKAS_clean_linker_0, # of connection points: 2
#     Edge 31, Type (0, 0), BuildingBlock: ZUJKAS_clean_linker_0, # of connection points: 2
#     Edge 32, Type (0, 0), BuildingBlock: ZUJKAS_clean_linker_0, # of connection points: 2
#     Edge 33, Type (0, 0), BuildingBlock: ZUJKAS_clean_linker_0, # of connection points: 2
#     Edge 34, Type (0, 0), BuildingBlock: ZUJKAS_clean_linker_0, # of connection points: 2
#     Edge 35, Type (0, 0), BuildingBlock: ZUJKAS_clean_linker_0, # of connection points: 2
#     Edge 36, Type (0, 0), BuildingBlock: ZUJKAS_clean_linker_0, # of connection points: 2
#     Edge 37, Type (0, 0), BuildingBlock: ZUJKAS_clean_linker_0, # of connection points: 2
#     Edge 38, Type (0, 0), BuildingBlock: ZUJKAS_clean_linker_0, # of connection points: 2
#     Edge 39, Type (0, 0), BuildingBlock: ZUJKAS_clean_linker_0, # of connection points: 2
#     Edge 40, Type (0, 0), BuildingBlock: ZUJKAS_clean_linker_0, # of connection points: 2
#     Edge 41, Type (0, 0), BuildingBlock: ZUJKAS_clean_linker_0, # of connection points: 2
#     Edge 42, Type (0, 0), BuildingBlock: ZUJKAS_clean_linker_0, # of connection points: 2
#     Edge 43, Type (0, 0), BuildingBlock: ZUJKAS_clean_linker_0, # of connection points: 2
#     Edge 44, Type (0, 0), BuildingBlock: ZUJKAS_clean_linker_0, # of connection points: 2
#     Edge 45, Type (0, 0), BuildingBlock: ZUJKAS_clean_linker_0, # of connection points: 2
#     Edge 46, Type (0, 0), BuildingBlock: ZUJKAS_clean_linker_0, # of connection points: 2
#     Edge 47, Type (0, 0), BuildingBlock: ZUJKAS_clean_linker_0, # of connection points: 2
#     Edge 48, Type (0, 0), BuildingBlock: ZUJKAS_clean_linker_0, # of connection points: 2
#     Edge 49, Type (0, 0), BuildingBlock: ZUJKAS_clean_linker_0, # of connection points: 2
#     Edge 50, Type (0, 0), BuildingBlock: ZUJKAS_clean_linker_0, # of connection points: 2
#     Edge 51, Type (0, 0), BuildingBlock: ZUJKAS_clean_linker_0, # of connection points: 2
#     Edge 52, Type (0, 0), BuildingBlock: ZUJKAS_clean_linker_0, # of connection points: 2
#     Edge 53, Type (0, 0), BuildingBlock: ZUJKAS_clean_linker_0, # of connection points: 2
#     Edge 54, Type (0, 0), BuildingBlock: ZUJKAS_clean_linker_0, # of connection points: 2
#     Edge 55, Type (0, 0), BuildingBlock: ZUJKAS_clean_linker_0, # of connection points: 2
#     Edge 56, Type (0, 0), BuildingBlock: ZUJKAS_clean_linker_0, # of connection points: 2
#     Edge 57, Type (0, 0), BuildingBlock: ZUJKAS_clean_linker_0, # of connection points: 2
#     Edge 58, Type (0, 0), BuildingBlock: ZUJKAS_clean_linker_0, # of connection points: 2
#     Edge 59, Type (0, 0), BuildingBlock: ZUJKAS_clean_linker_0, # of connection points: 2
#     Edge 60, Type (0, 0), BuildingBlock: ZUJKAS_clean_linker_0, # of connection points: 2
#     Edge 61, Type (0, 0), BuildingBlock: ZUJKAS_clean_linker_0, # of connection points: 2
#     Edge 62, Type (0, 0), BuildingBlock: ZUJKAS_clean_linker_0, # of connection points: 2
#     Edge 63, Type (0, 0), BuildingBlock: ZUJKAS_clean_linker_0, # of connection points: 2
#     Edge 64, Type (0, 0), BuildingBlock: ZUJKAS_clean_linker_0, # of connection points: 2
#     Edge 65, Type (0, 0), BuildingBlock: ZUJKAS_clean_linker_0, # of connection points: 2
#     Edge 66, Type (0, 0), BuildingBlock: ZUJKAS_clean_linker_0, # of connection points: 2
#     Edge 67, Type (0, 0), BuildingBlock: ZUJKAS_clean_linker_0, # of connection points: 2
#     Edge 68, Type (0, 0), BuildingBlock: ZUJKAS_clean_linker_0, # of connection points: 2
#     Edge 69, Type (0, 0), BuildingBlock: ZUJKAS_clean_linker_0, # of connection points: 2
#     Edge 70, Type (0, 0), BuildingBlock: ZUJKAS_clean_linker_0, # of connection points: 2
#     Edge 71, Type (0, 0), BuildingBlock: ZUJKAS_clean_linker_0, # of connection points: 2
#     Edge 72, Type (0, 0), BuildingBlock: ZUJKAS_clean_linker_0, # of connection points: 2
#     Edge 73, Type (0, 0), BuildingBlock: ZUJKAS_clean_linker_0, # of connection points: 2
#     Edge 74, Type (0, 0), BuildingBlock: ZUJKAS_clean_linker_0, # of connection points: 2
#     Edge 75, Type (0, 0), BuildingBlock: ZUJKAS_clean_linker_0, # of connection points: 2
#     Edge 76, Type (0, 0), BuildingBlock: ZUJKAS_clean_linker_0, # of connection points: 2
#     Edge 77, Type (0, 0), BuildingBlock: ZUJKAS_clean_linker_0, # of connection points: 2
#     Edge 78, Type (0, 0), BuildingBlock: ZUJKAS_clean_linker_0, # of connection points: 2
#     Edge 79, Type (0, 0), BuildingBlock: ZUJKAS_clean_linker_0, # of connection points: 2
#     Edge 80, Type (0, 0), BuildingBlock: ZUJKAS_clean_linker_0, # of connection points: 2
#     Edge 81, Type (0, 0), BuildingBlock: ZUJKAS_clean_linker_0, # of connection points: 2
#     Edge 82, Type (0, 0), BuildingBlock: ZUJKAS_clean_linker_0, # of connection points: 2
#     Edge 83, Type (0, 0), BuildingBlock: ZUJKAS_clean_linker_0, # of connection points: 2
#     Edge 84, Type (0, 0), BuildingBlock: ZUJKAS_clean_linker_0, # of connection points: 2
#     Edge 85, Type (0, 0), BuildingBlock: ZUJKAS_clean_linker_0, # of connection points: 2
#     Edge 86, Type (0, 0), BuildingBlock: ZUJKAS_clean_linker_0, # of connection points: 2
#     Edge 87, Type (0, 0), BuildingBlock: ZUJKAS_clean_linker_0, # of connection points: 2
#     Edge 88, Type (0, 0), BuildingBlock: ZUJKAS_clean_linker_0, # of connection points: 2
#     Edge 89, Type (0, 0), BuildingBlock: ZUJKAS_clean_linker_0, # of connection points: 2
#     Edge 90, Type (0, 0), BuildingBlock: ZUJKAS_clean_linker_0, # of connection points: 2
#     Edge 91, Type (0, 0), BuildingBlock: ZUJKAS_clean_linker_0, # of connection points: 2
#     Edge 92, Type (0, 0), BuildingBlock: ZUJKAS_clean_linker_0, # of connection points: 2
#     Edge 93, Type (0, 0), BuildingBlock: ZUJKAS_clean_linker_0, # of connection points: 2
#     Edge 94, Type (0, 0), BuildingBlock: ZUJKAS_clean_linker_0, # of connection points: 2
#     Edge 95, Type (0, 0), BuildingBlock: ZUJKAS_clean_linker_0, # of connection points: 2
# Relax obj value: 0.180
# Max RMSD: 0.251
# Mean RMSD: 0.251
data_MOF--net-sxg--node1-MIFKUJ_clean_sbu_0--edge1-ZUJKAS_clean_linker_0
_symmetry_space_group_name_H-M    P1
_symmetry_Int_Tables_number       1
_symmetry_cell_setting            triclinic
loop_
_symmetry_equiv_pos_as_xyz
'x, y, z'
_cell_length_a     59.598343
_cell_length_b     59.631244
_cell_length_c     59.677723
_cell_angle_alpha  89.956043
_cell_angle_beta   89.99928
_cell_angle_gamma 90.018349
loop_
_atom_site_label
_atom_site_type_symbol
_atom_site_fract_x
_atom_site_fract_y
_atom_site_fract_z
_atom_type_partial_charge
Zn0 Zn 0.03195 0.27603 0.25066 0.0
Zn1 Zn 0.99632 0.31791 0.25265 0.0
C2 C 0.05554 0.27351 0.20935 0.0
O3 O 0.04515 0.25407 0.20877 0.0
C4 C 0.98063 0.30518 0.29543 0.0
O5 O 0.98967 0.32464 0.30041 0.0
O6 O 0.04515 0.2462 0.26019 0.0
O7 O 0.0374 0.29844 0.27602 0.0
O8 O 0.02657 0.32917 0.25879 0.0
C9 C 0.06338 0.24585 0.27128 0.0
O10 O 0.07258 0.26494 0.27731 0.0
O11 O 0.05207 0.28654 0.2258 0.0
C12 C 0.95389 0.33729 0.25031 0.0
O13 O 0.94939 0.31581 0.24838 0.0
O14 O 0.97427 0.34344 0.2519 0.0
O15 O 0.9954 0.30395 0.22291 0.0
O16 O 0.00133 0.26987 0.23587 0.0
O17 O 0.98372 0.2971 0.27599 0.0
C18 C 0.04071 0.31884 0.27076 0.0
C19 C 0.99324 0.28294 0.22101 0.0
Zn20 Zn 0.46657 0.72046 0.74678 0.0
Zn21 Zn 0.49542 0.67868 0.74 0.0
C22 C 0.44129 0.72719 0.70638 0.0
O23 O 0.45139 0.74677 0.70701 0.0
C24 C 0.51155 0.68234 0.78389 0.0
O25 O 0.50197 0.66249 0.78422 0.0
O26 O 0.45426 0.7497 0.75869 0.0
O27 O 0.4602 0.69592 0.77013 0.0
O28 O 0.46501 0.66806 0.74649 0.0
C29 C 0.43785 0.75002 0.77231 0.0
O30 O 0.42982 0.73096 0.77991 0.0
O31 O 0.44572 0.71277 0.72141 0.0
C32 C 0.53675 0.65866 0.73407 0.0
O33 O 0.54136 0.68018 0.73282 0.0
O34 O 0.51636 0.65262 0.7359 0.0
O35 O 0.49639 0.69663 0.71234 0.0
O36 O 0.49731 0.72738 0.73241 0.0
O37 O 0.50937 0.6945 0.76651 0.0
C38 C 0.45445 0.67673 0.76271 0.0
C39 C 0.50227 0.71687 0.71452 0.0
Zn40 Zn 0.53434 0.21863 0.74807 0.0
Zn41 Zn 0.50296 0.17609 0.74985 0.0
C42 C 0.55621 0.22488 0.79001 0.0
O43 O 0.54568 0.2442 0.7887 0.0
C44 C 0.49021 0.1824 0.70528 0.0
O45 O 0.50031 0.16286 0.70407 0.0
O46 O 0.5476 0.24799 0.73721 0.0
O47 O 0.54224 0.19442 0.72478 0.0
O48 O 0.53371 0.16534 0.74582 0.0
C49 C 0.5661 0.24806 0.72658 0.0
O50 O 0.57561 0.22883 0.72157 0.0
O51 O 0.55337 0.21053 0.77456 0.0
C52 C 0.46151 0.15589 0.75639 0.0
O53 O 0.45718 0.17701 0.76086 0.0
O54 O 0.48145 0.15017 0.75145 0.0
O55 O 0.49968 0.19285 0.77788 0.0
O56 O 0.50292 0.22545 0.76104 0.0
O57 O 0.49118 0.19334 0.72352 0.0
C58 C 0.54659 0.17471 0.73181 0.0
C59 C 0.49478 0.21344 0.77675 0.0
Zn60 Zn 0.95866 0.77339 0.24905 0.0
Zn61 Zn 0.00369 0.81948 0.23673 0.0
C62 C 0.93697 0.77795 0.29097 0.0
O63 O 0.95363 0.76471 0.29665 0.0
C64 C 0.03114 0.8132 0.20055 0.0
O65 O 0.02507 0.83435 0.19919 0.0
O66 O 0.9471 0.74562 0.23408 0.0
O67 O 0.96824 0.79707 0.22846 0.0
O68 O 0.97591 0.83148 0.22156 0.0
C69 C 0.92941 0.74636 0.22222 0.0
O70 O 0.91991 0.76587 0.21839 0.0
O71 O 0.93542 0.78455 0.27078 0.0
C72 C 0.04214 0.84057 0.25357 0.0
O73 O 0.04659 0.81963 0.25882 0.0
O74 O 0.02335 0.84529 0.24475 0.0
O75 O 0.99518 0.80318 0.26588 0.0
O76 O 0.98737 0.76706 0.26584 0.0
O77 O 0.02239 0.801 0.21568 0.0
C78 C 0.96115 0.81636 0.2233 0.0
C79 C 0.00034 0.78316 0.27134 0.0
Zn80 Zn 0.24911 0.03238 0.27989 0.0
Zn81 Zn 0.24914 0.00026 0.32204 0.0
C82 C 0.20578 0.05309 0.27485 0.0
O83 O 0.2054 0.04068 0.25666 0.0
C84 C 0.29176 0.9831 0.31467 0.0
O85 O 0.29379 0.99267 0.3344 0.0
O86 O 0.25983 0.04471 0.25053 0.0
O87 O 0.27358 0.0411 0.30224 0.0
O88 O 0.25946 0.02878 0.33423 0.0
C89 C 0.26251 0.06585 0.25026 0.0
O90 O 0.25845 0.07732 0.2686 0.0
O91 O 0.22249 0.05162 0.288 0.0
C92 C 0.24192 0.95856 0.34086 0.0
O93 O 0.24036 0.9544 0.3193 0.0
O94 O 0.24495 0.97865 0.34726 0.0
O95 O 0.22008 0.00178 0.30639 0.0
O96 O 0.23722 0.00079 0.27405 0.0
O97 O 0.27355 0.98564 0.30388 0.0
C98 C 0.27233 0.04182 0.32351 0.0
C99 C 0.22099 0.9947 0.28646 0.0
Zn100 Zn 0.25318 0.96492 0.77323 0.0
Zn101 Zn 0.24946 0.01144 0.81718 0.0
C102 C 0.29276 0.93935 0.77038 0.0
O103 O 0.29344 0.95037 0.75132 0.0
C104 C 0.20751 0.03079 0.81316 0.0
O105 O 0.2085 0.02583 0.8346 0.0
O106 O 0.23472 0.95017 0.74919 0.0
O107 O 0.23518 0.97616 0.79835 0.0
O108 O 0.23997 0.9838 0.83341 0.0
C109 C 0.23194 0.92911 0.75098 0.0
O110 O 0.23953 0.91879 0.76889 0.0
O111 O 0.27664 0.94305 0.78381 0.0
C112 C 0.2573 0.05526 0.83288 0.0
O113 O 0.25117 0.05965 0.8122 0.0
O114 O 0.25911 0.03498 0.83918 0.0
O115 O 0.27556 0.00315 0.79688 0.0
O116 O 0.26924 0.9926 0.76203 0.0
O117 O 0.22338 0.02444 0.80045 0.0
C118 C 0.23631 0.96932 0.81838 0.0
C119 C 0.27729 0.00675 0.77591 0.0
Zn120 Zn 0.74579 0.46712 0.72589 0.0
Zn121 Zn 0.74137 0.50386 0.6854 0.0
C122 C 0.70293 0.4444 0.72893 0.0
O123 O 0.7016 0.45539 0.74796 0.0
C124 C 0.78671 0.51596 0.68542 0.0
O125 O 0.78458 0.50705 0.66539 0.0
O126 O 0.75978 0.45081 0.75212 0.0
O127 O 0.76812 0.46519 0.70039 0.0
O128 O 0.74375 0.47285 0.6739 0.0
C129 C 0.76047 0.42951 0.75119 0.0
O130 O 0.75304 0.41931 0.73315 0.0
O131 O 0.7198 0.44759 0.71631 0.0
C132 C 0.73807 0.54605 0.66529 0.0
O133 O 0.74003 0.55114 0.68663 0.0
O134 O 0.73702 0.52547 0.65973 0.0
O135 O 0.71606 0.50827 0.70624 0.0
O136 O 0.73265 0.49666 0.73741 0.0
O137 O 0.77031 0.51468 0.69898 0.0
C138 C 0.75924 0.46052 0.6816 0.0
C139 C 0.71748 0.50786 0.72741 0.0
Zn140 Zn 0.74696 0.53184 0.22192 0.0
Zn141 Zn 0.75109 0.50136 0.17944 0.0
C142 C 0.78999 0.55388 0.22496 0.0
O143 O 0.79205 0.54174 0.24323 0.0
C144 C 0.70671 0.4863 0.18485 0.0
O145 O 0.70533 0.49673 0.16549 0.0
O146 O 0.73615 0.54502 0.25115 0.0
O147 O 0.72318 0.53897 0.19807 0.0
O148 O 0.74564 0.53223 0.16968 0.0
C149 C 0.72824 0.56483 0.25092 0.0
O150 O 0.72626 0.57529 0.23163 0.0
O151 O 0.77247 0.55184 0.21304 0.0
C152 C 0.76363 0.46288 0.15467 0.0
O153 O 0.77315 0.45807 0.17393 0.0
O154 O 0.75395 0.48171 0.15229 0.0
O155 O 0.77914 0.4993 0.19669 0.0
O156 O 0.76101 0.5009 0.2287 0.0
O157 O 0.72495 0.48746 0.19583 0.0
C158 C 0.73076 0.54424 0.17882 0.0
C159 C 0.77804 0.49472 0.21736 0.0
Zn160 Zn 0.27524 0.24649 0.04212 0.0
Zn161 Zn 0.32046 0.25936 0.99488 0.0
C162 C 0.29351 0.20476 0.06069 0.0
O163 O 0.2963 0.19854 0.03978 0.0
C164 C 0.30504 0.30162 0.97951 0.0
O165 O 0.31854 0.30874 0.99537 0.0
O166 O 0.24934 0.26406 0.05515 0.0
O167 O 0.30013 0.26511 0.03175 0.0
O168 O 0.33376 0.27384 0.02269 0.0
C169 C 0.24986 0.26683 0.07628 0.0
O170 O 0.26756 0.26003 0.0875 0.0
O171 O 0.28562 0.22407 0.06496 0.0
C172 C 0.34025 0.24683 0.95371 0.0
O173 O 0.31897 0.24478 0.94834 0.0
O174 O 0.34545 0.25187 0.97373 0.0
O175 O 0.30289 0.23114 0.00407 0.0
O176 O 0.26716 0.23024 0.01352 0.0
O177 O 0.30132 0.28075 0.97769 0.0
C178 C 0.31924 0.27174 0.03797 0.0
C179 C 0.28261 0.22634 -0.00083 0.0
Zn180 Zn 0.77165 0.25176 0.96923 0.0
Zn181 Zn 0.81492 0.24998 0.00418 0.0
C182 C 0.76785 0.29304 0.94562 0.0
O183 O 0.74797 0.29244 0.95514 0.0
C184 C 0.81235 0.20385 0.01448 0.0
O185 O 0.83237 0.20447 0.00527 0.0
O186 O 0.74415 0.2394 0.95385 0.0
O187 O 0.79561 0.22807 0.96573 0.0
O188 O 0.82431 0.24994 0.97248 0.0
C189 C 0.74523 0.23792 0.93261 0.0
O190 O 0.76387 0.24373 0.92238 0.0
O191 O 0.7818 0.27756 0.94997 0.0
C192 C 0.83682 0.24903 0.04487 0.0
O193 O 0.81571 0.24584 0.05038 0.0
O194 O 0.84178 0.25211 0.02437 0.0
O195 O 0.79588 0.2754 0.01264 0.0
O196 O 0.76261 0.26541 -0.00067 0.0
O197 O 0.8001 0.22127 0.01366 0.0
C198 C 0.81434 0.23623 0.95973 0.0
C199 C 0.77469 0.27701 0.01259 0.0
Zn200 Zn 0.71916 0.74904 0.46616 0.0
Zn201 Zn 0.67902 0.74211 0.49724 0.0
C202 C 0.72483 0.70646 0.44381 0.0
O203 O 0.74261 0.70521 0.45677 0.0
C204 C 0.68221 0.78541 0.51388 0.0
O205 O 0.66169 0.78457 0.50586 0.0
O206 O 0.74756 0.76193 0.4533 0.0
O207 O 0.69442 0.77212 0.45987 0.0
O208 O 0.66539 0.75094 0.46875 0.0
C209 C 0.74659 0.76893 0.4332 0.0
O210 O 0.72728 0.76821 0.42262 0.0
O211 O 0.71194 0.72334 0.44543 0.0
C212 C 0.66154 0.73515 0.53987 0.0
O213 O 0.68325 0.73527 0.54375 0.0
O214 O 0.65468 0.7365 0.51974 0.0
O215 O 0.69726 0.71443 0.49555 0.0
O216 O 0.72718 0.73558 0.49698 0.0
O217 O 0.6951 0.76868 0.51083 0.0
C218 C 0.67379 0.76698 0.45764 0.0
C219 C 0.71735 0.71724 0.50169 0.0
Zn220 Zn 0.22158 0.75142 0.53436 0.0
Zn221 Zn 0.17952 0.74943 0.49196 0.0
C222 C 0.22703 0.79062 0.55983 0.0
O223 O 0.247 0.78917 0.55061 0.0
C224 C 0.17504 0.70417 0.4808 0.0
O225 O 0.15417 0.70896 0.48603 0.0
O226 O 0.24934 0.73842 0.54868 0.0
O227 O 0.1957 0.72922 0.53515 0.0
O228 O 0.16855 0.75117 0.52332 0.0
C229 C 0.25022 0.72228 0.56257 0.0
O230 O 0.23182 0.71119 0.5675 0.0
O231 O 0.21234 0.77596 0.55509 0.0
C232 C 0.15926 0.75233 0.44994 0.0
O233 O 0.17998 0.74668 0.44494 0.0
O234 O 0.15407 0.75519 0.47042 0.0
O235 O 0.20301 0.77075 0.48304 0.0
O236 O 0.23188 0.76769 0.50634 0.0
O237 O 0.19017 0.7187 0.48448 0.0
C238 C 0.17639 0.73788 0.53797 0.0
C239 C 0.22299 0.77531 0.48857 0.0
Zn240 Zn 0.99544 0.68065 0.7504 0.0
Zn241 Zn 0.96393 0.72395 0.74567 0.0
C242 C 0.01859 0.68293 0.71068 0.0
O243 O 0.01067 0.66237 0.7113 0.0
C244 C 0.94324 0.72751 0.78943 0.0
O245 O 0.95774 0.74391 0.79198 0.0
O246 O 0.01598 0.65505 0.75806 0.0
O247 O 0.99167 0.69845 0.77813 0.0
O248 O 0.9953 0.72932 0.7588 0.0
C249 C 0.03594 0.66093 0.76276 0.0
O250 O 0.0405 0.68241 0.76467 0.0
O251 O 0.01279 0.69655 0.72603 0.0
C252 C 0.93306 0.75383 0.72519 0.0
O253 O 0.92264 0.73468 0.72203 0.0
O254 O 0.9522 0.75371 0.7346 0.0
O255 O 0.95659 0.70063 0.72159 0.0
O256 O 0.96737 0.66894 0.73781 0.0
O257 O 0.94323 0.71633 0.77131 0.0
C258 C -0.00031 0.71798 0.77631 0.0
C259 C 0.95548 0.67939 0.72364 0.0
Zn260 Zn 0.49769 0.31576 0.24578 0.0
Zn261 Zn 0.53436 0.27427 0.25018 0.0
C262 C 0.48353 0.29677 0.20326 0.0
O263 O 0.49808 0.31098 0.19478 0.0
C264 C 0.55199 0.27536 0.29604 0.0
O265 O 0.53586 0.26113 0.30083 0.0
O266 O 0.47617 0.34132 0.24873 0.0
O267 O 0.50013 0.30273 0.27612 0.0
O268 O 0.50257 0.26882 0.26233 0.0
C269 C 0.4555 0.33619 0.24913 0.0
O270 O 0.44951 0.31501 0.24878 0.0
O271 O 0.48231 0.2945 0.22438 0.0
C272 C 0.56828 0.24421 0.23786 0.0
O273 O 0.57971 0.26276 0.24124 0.0
O274 O 0.54709 0.24458 0.24034 0.0
O275 O 0.54411 0.29677 0.22623 0.0
O276 O 0.52567 0.32813 0.23356 0.0
O277 O 0.55358 0.28317 0.27631 0.0
C278 C 0.49453 0.28228 0.27677 0.0
C279 C 0.54178 0.31789 0.22428 0.0
Zn280 Zn 0.49617 0.81748 0.24591 0.0
Zn281 Zn 0.46606 0.77368 0.24683 0.0
C282 C 0.51238 0.8115 0.28846 0.0
O283 O 0.50233 0.83108 0.28938 0.0
C284 C 0.4455 0.77345 0.20326 0.0
O285 O 0.45874 0.75612 0.20013 0.0
O286 O 0.51673 0.84408 0.24324 0.0
O287 O 0.4968 0.80181 0.21693 0.0
O288 O 0.49736 0.76869 0.23289 0.0
C289 C 0.5369 0.83906 0.23849 0.0
O290 O 0.54188 0.81806 0.23405 0.0
O291 O 0.51072 0.79997 0.27063 0.0
C292 C 0.43477 0.74302 0.26642 0.0
O293 O 0.42542 0.76212 0.27214 0.0
O294 O 0.45322 0.74338 0.25567 0.0
O295 O 0.4585 0.79558 0.27228 0.0
O296 O 0.46628 0.82752 0.25508 0.0
O297 O 0.44622 0.78386 0.22179 0.0
C298 C 0.50361 0.78173 0.21716 0.0
C299 C 0.45503 0.81645 0.26928 0.0
Zn300 Zn 0.99441 0.17986 0.75261 0.0
Zn301 Zn 0.0404 0.22725 0.74766 0.0
C302 C 0.97007 0.18207 0.79058 0.0
O303 O 0.97726 0.16127 0.78943 0.0
C304 C 0.06657 0.22929 0.70909 0.0
O305 O 0.05449 0.24765 0.7074 0.0
O306 O 0.97308 0.1563 0.74105 0.0
O307 O 0.00651 0.19989 0.72795 0.0
O308 O 0.01295 0.23591 0.7296 0.0
C309 C 0.95295 0.16297 0.73848 0.0
O310 O 0.94852 0.18444 0.74068 0.0
O311 O 0.97707 0.19613 0.77617 0.0
C312 C 0.06981 0.25416 0.77572 0.0
O313 O 0.07988 0.23495 0.77966 0.0
O314 O 0.05212 0.25438 0.76386 0.0
O315 O 0.02908 0.20215 0.76668 0.0
O316 O 0.02175 0.16657 0.76693 0.0
O317 O 0.06376 0.21667 0.72601 0.0
C318 C 0.00012 0.2198 0.72397 0.0
C319 C 0.03605 0.18219 0.76906 0.0
Zn320 Zn 0.75681 0.99292 0.67727 0.0
Zn321 Zn 0.74774 0.96668 0.71902 0.0
C322 C 0.71468 0.01364 0.67734 0.0
O323 O 0.71539 0.005 0.6571 0.0
C324 C 0.7899 0.94479 0.72573 0.0
O325 O 0.78852 0.95562 0.74485 0.0
O326 O 0.76322 0.01239 0.65056 0.0
O327 O 0.78333 0.99374 0.69714 0.0
O328 O 0.76067 0.99795 0.72574 0.0
C329 C 0.76903 0.03237 0.65521 0.0
O330 O 0.77324 0.03762 0.67617 0.0
O331 O 0.73047 0.00916 0.69095 0.0
C332 C 0.73548 0.93202 0.74855 0.0
O333 O 0.74101 0.92072 0.73048 0.0
O334 O 0.73605 0.95334 0.74798 0.0
O335 O 0.72423 0.95957 0.69498 0.0
O336 O 0.7485 0.96253 0.66731 0.0
O337 O 0.77448 0.94742 0.71126 0.0
C338 C 0.77952 0.00171 0.71642 0.0
C339 C 0.7312 0.95357 0.67574 0.0
Zn340 Zn 0.75079 0.99056 0.18027 0.0
Zn341 Zn 0.74766 0.02782 0.22229 0.0
C342 C 0.79396 0.97512 0.18815 0.0
O343 O 0.79517 0.9822 0.16732 0.0
C344 C 0.70195 0.04699 0.21325 0.0
O345 O 0.69396 0.0265 0.21285 0.0
O346 O 0.74926 0.96882 0.15477 0.0
O347 O 0.72183 0.98758 0.19542 0.0
O348 O 0.73329 0.99711 0.22921 0.0
C349 C 0.74906 0.94821 0.16018 0.0
O350 O 0.74912 0.94276 0.18152 0.0
O351 O 0.77617 0.97905 0.19921 0.0
C352 C 0.76785 0.05942 0.25045 0.0
O353 O 0.767 0.07022 0.23128 0.0
O354 O 0.76079 0.0393 0.25122 0.0
O355 O 0.77138 0.03488 0.19828 0.0
O356 O 0.7571 0.02012 0.16748 0.0
O357 O 0.72281 0.05018 0.21641 0.0
C358 C 0.72061 0.98557 0.21648 0.0
C359 C 0.76932 0.03459 0.17704 0.0
Zn360 Zn 0.25233 0.49823 0.31997 0.0
Zn361 Zn 0.25019 0.52832 0.27753 0.0
C362 C 0.20926 0.4811 0.31421 0.0
O363 O 0.20807 0.4898 0.3344 0.0
C364 C 0.29333 0.54944 0.27379 0.0
O365 O 0.29438 0.53652 0.256 0.0
O366 O 0.25399 0.47805 0.34688 0.0
O367 O 0.28079 0.49588 0.3035 0.0
O368 O 0.26346 0.49733 0.27106 0.0
C369 C 0.26344 0.45915 0.34423 0.0
O370 O 0.27357 0.45471 0.3252 0.0
O371 O 0.22685 0.48448 0.30265 0.0
C372 C 0.23651 0.56274 0.24926 0.0
O373 O 0.24051 0.57339 0.26811 0.0
O374 O 0.23919 0.5416 0.24859 0.0
O375 O 0.22523 0.53471 0.3 0.0
O376 O 0.2465 0.52915 0.32952 0.0
O377 O 0.2762 0.54822 0.28643 0.0
C378 C 0.27998 0.49083 0.28293 0.0
C379 C 0.2316 0.54043 0.31948 0.0
Zn380 Zn 0.23835 0.50279 0.80974 0.0
Zn381 Zn 0.24787 0.47278 0.76975 0.0
C382 C 0.28061 0.52154 0.81227 0.0
O383 O 0.27749 0.51295 0.83232 0.0
C384 C 0.20597 0.44862 0.76645 0.0
O385 O 0.20582 0.45732 0.74621 0.0
O386 O 0.23011 0.52299 0.83542 0.0
O387 O 0.21257 0.50265 0.78875 0.0
O388 O 0.23563 0.50341 0.76011 0.0
C389 C 0.22862 0.54362 0.83018 0.0
O390 O 0.23013 0.54931 0.80896 0.0
O391 O 0.26581 0.51813 0.79728 0.0
C392 C 0.26283 0.43614 0.74371 0.0
O393 O 0.25918 0.42619 0.76302 0.0
O394 O 0.25963 0.45718 0.74219 0.0
O395 O 0.27138 0.46834 0.79401 0.0
O396 O 0.24719 0.47329 0.82151 0.0
O397 O 0.2218 0.45369 0.77977 0.0
C398 C 0.21682 0.50839 0.7688 0.0
C399 C 0.2648 0.46412 0.81387 0.0
Zn400 Zn 0.67649 0.75108 0.99423 0.0
Zn401 Zn 0.71895 0.74762 0.96144 0.0
C402 C 0.68021 0.71055 0.01566 0.0
O403 O 0.66 0.71023 0.00685 0.0
C404 C 0.72633 0.7897 0.93991 0.0
O405 O 0.74543 0.78787 0.95076 0.0
O406 O 0.65066 0.7568 0.01503 0.0
O407 O 0.69359 0.77938 0.99134 0.0
O408 O 0.72476 0.76011 0.99292 0.0
C409 C 0.6556 0.76278 0.03487 0.0
O410 O 0.67659 0.76745 0.03974 0.0
O411 O 0.69316 0.72681 0.01083 0.0
C412 C 0.74947 0.73131 0.92875 0.0
O413 O 0.73088 0.73181 0.91693 0.0
O414 O 0.74869 0.73677 0.94933 0.0
O415 O 0.69535 0.72401 0.95293 0.0
O416 O 0.6643 0.73956 0.966 0.0
O417 O 0.7116 0.77446 0.94228 0.0
C418 C 0.71384 0.77786 0.99745 0.0
C419 C 0.67406 0.72609 0.9528 0.0
Zn420 Zn 0.18484 0.75373 0.98598 0.0
Zn421 Zn 0.22806 0.74016 0.03873 0.0
C422 C 0.18355 0.79468 0.96377 0.0
O423 O 0.16216 0.79184 0.9683 0.0
C424 C 0.20442 0.70639 0.06311 0.0
O425 O 0.19761 0.70076 0.04295 0.0
O426 O 0.1623 0.74176 0.964 0.0
O427 O 0.20983 0.73123 0.99193 0.0
O428 O 0.23584 0.71752 0.01449 0.0
C429 C 0.16844 0.74123 0.94361 0.0
O430 O 0.18941 0.74591 0.93869 0.0
O431 O 0.19768 0.78077 0.97148 0.0
C432 C 0.25459 0.7707 0.06435 0.0
O433 O 0.23524 0.77377 0.07441 0.0
O434 O 0.25549 0.75764 0.04757 0.0
O435 O 0.20406 0.7586 0.02525 0.0
O436 O 0.16956 0.7621 0.0148 0.0
O437 O 0.21699 0.72341 0.06546 0.0
C438 C 0.22547 0.71723 0.99578 0.0
C439 C 0.18367 0.76118 0.03061 0.0
Zn440 Zn 0.32349 0.25277 0.50046 0.0
Zn441 Zn 0.2812 0.24958 0.53232 0.0
C442 C 0.31585 0.20987 0.48486 0.0
O443 O 0.33582 0.20816 0.49406 0.0
C444 C 0.27693 0.29259 0.55325 0.0
O445 O 0.26016 0.29429 0.53905 0.0
O446 O 0.34877 0.25568 0.47839 0.0
O447 O 0.30721 0.28155 0.50117 0.0
O448 O 0.2752 0.26347 0.50138 0.0
C449 C 0.34333 0.26188 0.45875 0.0
O450 O 0.32248 0.26782 0.45477 0.0
O451 O 0.30518 0.22819 0.48678 0.0
C452 C 0.25024 0.22258 0.55837 0.0
O453 O 0.26869 0.21219 0.56441 0.0
O454 O 0.25141 0.23846 0.54417 0.0
O455 O 0.30461 0.22536 0.53914 0.0
O456 O 0.33568 0.24309 0.52939 0.0
O457 O 0.28895 0.275 0.55305 0.0
C458 C 0.28689 0.28023 0.49517 0.0
C459 C 0.32567 0.22842 0.54104 0.0
Zn460 Zn 0.81675 0.24998 0.50935 0.0
Zn461 Zn 0.77429 0.24074 0.46356 0.0
C462 C 0.82031 0.29523 0.52121 0.0
O463 O 0.84148 0.29048 0.5173 0.0
C464 C 0.78606 0.19744 0.4441 0.0
O465 O 0.78321 0.18971 0.46451 0.0
O466 O 0.84078 0.24382 0.53202 0.0
O467 O 0.79304 0.22796 0.51629 0.0
O468 O 0.7656 0.22316 0.49165 0.0
C469 C 0.835 0.24723 0.55223 0.0
O470 O 0.81441 0.25387 0.55649 0.0
O471 O 0.80548 0.28072 0.51641 0.0
C472 C 0.74732 0.26283 0.43113 0.0
O473 O 0.76614 0.26109 0.41981 0.0
O474 O 0.74669 0.2557 0.4512 0.0
O475 O 0.79937 0.26348 0.46525 0.0
O476 O 0.82958 0.24776 0.47885 0.0
O477 O 0.78351 0.21825 0.44027 0.0
C478 C 0.77471 0.2189 0.51048 0.0
C479 C 0.81916 0.2561 0.46234 0.0
H480 H 0.06443 0.34136 0.23989 0.0
H481 H 0.09738 0.3648 0.24585 0.0
H482 H 0.09942 0.34449 0.31521 0.0
H483 H 0.06632 0.32038 0.30912 0.0
H484 H 0.09259 0.39987 0.27778 0.0
H485 H 0.16711 0.34604 0.29418 0.0
H486 H 0.14291 0.33616 0.27881 0.0
H487 H 0.14156 0.33897 0.30868 0.0
C488 C 0.07217 0.34153 0.25632 0.0
C489 C 0.0627 0.32947 0.27419 0.0
C490 C 0.09104 0.35482 0.25965 0.0
C491 C 0.10075 0.35643 0.28095 0.0
C492 C 0.09227 0.34324 0.29858 0.0
H493 H 0.17019 0.47036 0.33531 0.0
H494 H 0.14443 0.43987 0.32628 0.0
C495 C 0.07337 0.32961 0.29515 0.0
C496 C 0.11723 0.37448 0.28512 0.0
H497 H 0.17174 0.3853 0.29893 0.0
C498 C 0.10991 0.39668 0.28238 0.0
C499 C 0.13981 0.37019 0.29084 0.0
C500 C 0.1485 0.34657 0.29319 0.0
C501 C 0.12452 0.41479 0.28545 0.0
C502 C 0.14696 0.4106 0.29175 0.0
C503 C 0.15446 0.38839 0.29417 0.0
C504 C 0.16253 0.42924 0.29673 0.0
C505 C 0.11587 0.4383 0.28182 0.0
C506 C 0.18117 0.43338 0.28299 0.0
C507 C 0.19592 0.45094 0.28803 0.0
C508 C 0.19233 0.46444 0.30703 0.0
C509 C 0.1734 0.46038 0.3205 0.0
C510 C 0.15868 0.44293 0.31541 0.0
H511 H 0.09998 0.43843 0.27207 0.0
H512 H 0.11256 0.44622 0.29831 0.0
H513 H 0.12849 0.44869 0.27287 0.0
H514 H 0.18433 0.42298 0.26845 0.0
H515 H 0.21043 0.45352 0.27741 0.0
H516 H 0.31116 0.53601 0.84294 0.0
H517 H 0.33923 0.56538 0.83836 0.0
H518 H 0.32068 0.57247 0.76884 0.0
H519 H 0.29197 0.54343 0.77344 0.0
H520 H 0.37548 0.56861 0.81192 0.0
H521 H 0.31552 0.6364 0.79092 0.0
H522 H 0.30656 0.60958 0.80175 0.0
H523 H 0.31313 0.61277 0.77248 0.0
C524 C 0.31306 0.54372 0.82662 0.0
C525 C 0.29919 0.53752 0.80858 0.0
C526 C 0.32911 0.56055 0.82407 0.0
C527 C 0.33164 0.5715 0.80344 0.0
C528 C 0.31851 0.5647 0.78511 0.0
H529 H 0.42547 0.65214 0.73853 0.0
H530 H 0.39436 0.62935 0.7521 0.0
C531 C 0.30229 0.54794 0.78768 0.0
C532 C 0.34828 0.5898 0.80109 0.0
H533 H 0.35443 0.64403 0.78373 0.0
C534 C 0.37083 0.58521 0.80612 0.0
C535 C 0.34211 0.61155 0.79382 0.0
C536 C 0.31798 0.61797 0.78966 0.0
C537 C 0.38754 0.60145 0.8029 0.0
C538 C 0.38149 0.62274 0.79451 0.0
C539 C 0.35889 0.62766 0.79029 0.0
C540 C 0.39873 0.63868 0.78682 0.0
C541 C 0.41173 0.5955 0.80739 0.0
C542 C 0.41108 0.65188 0.80192 0.0
C543 C 0.42885 0.6652 0.79414 0.0
C544 C 0.43456 0.66498 0.77131 0.0
C545 C 0.42161 0.65231 0.75628 0.0
C546 C 0.40377 0.6394 0.76395 0.0
H547 H 0.41371 0.57799 0.81344 0.0
H548 H 0.42177 0.59764 0.79186 0.0
H549 H 0.41873 0.60706 0.82019 0.0
H550 H 0.4073 0.65143 0.81967 0.0
H551 H 0.43864 0.67487 0.80599 0.0
H552 H 0.56881 0.17633 0.69132 0.0
H553 H 0.59998 0.15174 0.67954 0.0
H554 H 0.60146 0.12204 0.74542 0.0
H555 H 0.57049 0.14599 0.75706 0.0
H556 H 0.64624 0.14119 0.70196 0.0
H557 H 0.58503 0.07088 0.69854 0.0
H558 H 0.57656 0.09995 0.69732 0.0
H559 H 0.58426 0.08751 0.72364 0.0
C560 C 0.57609 0.16476 0.70328 0.0
C561 C 0.56701 0.16265 0.7249 0.0
C562 C 0.59383 0.15082 0.69659 0.0
C563 C 0.60269 0.13493 0.71158 0.0
C564 C 0.59461 0.134 0.73357 0.0
H565 H 0.71262 0.04076 0.7144 0.0
H566 H 0.68599 0.07129 0.72141 0.0
C567 C 0.57686 0.14761 0.74013 0.0
C568 C 0.61886 0.11775 0.70413 0.0
H569 H 0.62359 0.06122 0.6968 0.0
C570 C 0.64133 0.12373 0.70055 0.0
C571 C 0.61228 0.09505 0.70229 0.0
C572 C 0.58819 0.08788 0.70546 0.0
C573 C 0.65759 0.10733 0.69578 0.0
C574 C 0.65111 0.08451 0.69484 0.0
C575 C 0.62851 0.07871 0.69774 0.0
C576 C 0.6674 0.06628 0.69066 0.0
C577 C 0.68154 0.11447 0.69175 0.0
C578 C 0.66527 0.05295 0.67145 0.0
C579 C 0.68029 0.03545 0.66749 0.0
C580 C 0.69763 0.03081 0.68278 0.0
C581 C 0.69941 0.04387 0.70233 0.0
C582 C 0.68439 0.06147 0.70623 0.0
H583 H 0.68282 0.13272 0.68819 0.0
H584 H 0.69167 0.1108 0.70692 0.0
H585 H 0.68893 0.10503 0.67752 0.0
H586 H 0.65211 0.05627 0.65937 0.0
H587 H 0.67845 0.02574 0.65227 0.0
H588 H 0.94521 0.83793 0.25955 0.0
H589 H 0.91132 0.86113 0.26053 0.0
H590 H 0.89197 0.83564 0.19574 0.0
H591 H 0.92595 0.81237 0.1948 0.0
H592 H 0.91035 0.89267 0.22328 0.0
H593 H 0.83105 0.84419 0.23169 0.0
H594 H 0.85741 0.83462 0.24328 0.0
H595 H 0.85235 0.83249 0.21374 0.0
C596 C 0.93313 0.83652 0.24605 0.0
C597 C 0.93794 0.82341 0.22715 0.0
C598 C 0.91385 0.84977 0.2466 0.0
C599 C 0.89918 0.85007 0.22823 0.0
C600 C 0.90292 0.83537 0.21023 0.0
H601 H 0.83041 0.95888 0.16598 0.0
H602 H 0.85544 0.92883 0.17776 0.0
C603 C 0.92227 0.82209 0.20968 0.0
C604 C 0.88325 0.86889 0.22568 0.0
H605 H 0.82789 0.8821 0.21953 0.0
C606 C 0.89229 0.89042 0.22275 0.0
C607 C 0.85978 0.86584 0.22502 0.0
C608 C 0.84942 0.84308 0.22874 0.0
C609 C 0.87852 0.90896 0.21852 0.0
C610 C 0.85507 0.90583 0.21695 0.0
C611 C 0.84591 0.88441 0.22065 0.0
C612 C 0.84001 0.92441 0.21028 0.0
C613 C 0.88927 0.9317 0.21557 0.0
C614 C 0.82287 0.93178 0.22461 0.0
C615 C 0.80838 0.94899 0.21788 0.0
C616 C 0.81078 0.959 0.19665 0.0
C617 C 0.82822 0.95175 0.18253 0.0
C618 C 0.84257 0.93454 0.18923 0.0
H619 H 0.90606 0.93244 0.22363 0.0
H620 H 0.89155 0.93507 0.19742 0.0
H621 H 0.87859 0.94517 0.2227 0.0
H622 H 0.82062 0.92412 0.24092 0.0
H623 H 0.79502 0.95407 0.22907 0.0
H624 H 0.33067 0.1669 0.48224 0.0
H625 H 0.32289 0.13984 0.45246 0.0
H626 H 0.27695 0.18644 0.42172 0.0
H627 H 0.2845 0.21371 0.45158 0.0
H628 H 0.27153 0.12687 0.43376 0.0
H629 H 0.33519 0.16555 0.37711 0.0
H630 H 0.33852 0.16679 0.40718 0.0
H631 H 0.31684 0.18279 0.39392 0.0
C632 C 0.31864 0.17127 0.46935 0.0
C633 C 0.30825 0.19241 0.46916 0.0
C634 C 0.31428 0.15584 0.45238 0.0
C635 C 0.29962 0.1614 0.43492 0.0
C636 C 0.28842 0.18205 0.43511 0.0
H637 H 0.27505 0.08599 0.3125 0.0
H638 H 0.28344 0.11665 0.33859 0.0
C639 C 0.29264 0.19748 0.45222 0.0
C640 C 0.29675 0.1457 0.41617 0.0
H641 H 0.3186 0.13168 0.36523 0.0
C642 C 0.28165 0.12794 0.41868 0.0
C643 C 0.3099 0.14747 0.39657 0.0
C644 C 0.32609 0.16664 0.39332 0.0
C645 C 0.2796 0.11147 0.4021 0.0
C646 C 0.2936 0.11253 0.38293 0.0
C647 C 0.30819 0.13077 0.38011 0.0
C648 C 0.29316 0.09467 0.36581 0.0
C649 C 0.26232 0.09321 0.40525 0.0
C650 C 0.29733 0.07238 0.37206 0.0
C651 C 0.29224 0.05497 0.35738 0.0
C652 C 0.28358 0.05968 0.33605 0.0
C653 C 0.28184 0.08203 0.32886 0.0
C654 C 0.2865 0.0995 0.34377 0.0
H655 H 0.24886 0.09844 0.41702 0.0
H656 H 0.25448 0.08847 0.38905 0.0
H657 H 0.27056 0.07814 0.41242 0.0
H658 H 0.30314 0.0684 0.38879 0.0
H659 H 0.29385 0.0378 0.36314 0.0
H660 H 0.20686 0.93713 0.80571 0.0
H661 H 0.2012 0.90122 0.82509 0.0
H662 H 0.2617 0.91228 0.86316 0.0
H663 H 0.26696 0.9484 0.84443 0.0
H664 H 0.22842 0.85979 0.84019 0.0
H665 H 0.20528 0.92207 0.90572 0.0
H666 H 0.20839 0.92959 0.87659 0.0
H667 H 0.23277 0.92537 0.89378 0.0
C668 C 0.21937 0.93139 0.81757 0.0
C669 C 0.23705 0.94548 0.82405 0.0
C670 C 0.21618 0.91092 0.82854 0.0
C671 C 0.23086 0.90446 0.84575 0.0
C672 C 0.25015 0.91719 0.85002 0.0
H673 H 0.22532 0.80022 0.94583 0.0
H674 H 0.23618 0.82565 0.91557 0.0
C675 C 0.25308 0.93778 0.83942 0.0
C676 C 0.22355 0.88779 0.8624 0.0
H677 H 0.20462 0.88401 0.91619 0.0
C678 C 0.22322 0.86497 0.85682 0.0
C679 C 0.21637 0.89484 0.88388 0.0
C680 C 0.21549 0.9193 0.89039 0.0
C681 C 0.21635 0.84885 0.87256 0.0
C682 C 0.20984 0.85593 0.89421 0.0
C683 C 0.20977 0.87875 0.89956 0.0
C684 C 0.20308 0.84001 0.91178 0.0
C685 C 0.21579 0.82445 0.86597 0.0
C686 C 0.18105 0.84029 0.91999 0.0
C687 C 0.1748 0.82594 0.93736 0.0
C688 C 0.19059 0.81125 0.94688 0.0
C689 C 0.21279 0.81138 0.93887 0.0
C690 C 0.21897 0.82567 0.92143 0.0
H691 H 0.21724 0.82219 0.84755 0.0
H692 H 0.22999 0.81557 0.87409 0.0
H693 H 0.2 0.81647 0.87181 0.0
H694 H 0.16869 0.85154 0.91286 0.0
H695 H 0.15757 0.82618 0.94313 0.0
H696 H 0.77842 0.30957 0.53322 0.0
H697 H 0.7691 0.33681 0.5624 0.0
H698 H 0.83954 0.34942 0.57321 0.0
H699 H 0.849 0.32273 0.54377 0.0
H700 H 0.78096 0.33445 0.60693 0.0
H701 H 0.81444 0.41221 0.56823 0.0
H702 H 0.81012 0.38677 0.55247 0.0
H703 H 0.83468 0.38999 0.56972 0.0
C704 C 0.7919 0.31851 0.54147 0.0
C705 C 0.81445 0.31409 0.53609 0.0
C706 C 0.78656 0.33393 0.55823 0.0
C707 C 0.80363 0.3452 0.56984 0.0
C708 C 0.82611 0.34121 0.56415 0.0
H709 H 0.79997 0.43934 0.68191 0.0
H710 H 0.81169 0.40818 0.65757 0.0
C711 C 0.83147 0.32594 0.5473 0.0
C712 C 0.79801 0.36049 0.58849 0.0
H713 H 0.80382 0.41446 0.60645 0.0
C714 C 0.78592 0.35196 0.60683 0.0
C715 C 0.80456 0.38329 0.58829 0.0
C716 C 0.81647 0.39369 0.56853 0.0
C717 C 0.78018 0.36572 0.625 0.0
C718 C 0.78681 0.38842 0.62474 0.0
C719 C 0.79913 0.39688 0.60662 0.0
C720 C 0.77919 0.40443 0.64187 0.0
C721 C 0.76697 0.35609 0.6443 0.0
C722 C 0.75708 0.41227 0.64108 0.0
C723 C 0.75053 0.43019 0.6545 0.0
C724 C 0.76598 0.44041 0.66906 0.0
C725 C 0.78782 0.43176 0.67074 0.0
C726 C 0.79449 0.414 0.65696 0.0
H727 H 0.76638 0.33747 0.64378 0.0
H728 H 0.77436 0.36147 0.66051 0.0
H729 H 0.74951 0.36254 0.64362 0.0
H730 H 0.74515 0.40516 0.62935 0.0
H731 H 0.73348 0.43634 0.65316 0.0
H732 H 0.68968 0.56545 0.1782 0.0
H733 H 0.6792 0.59757 0.15424 0.0
H734 H 0.74744 0.60238 0.13078 0.0
H735 H 0.75787 0.57051 0.15415 0.0
H736 H 0.71169 0.64699 0.14465 0.0
H737 H 0.69373 0.5833 0.07861 0.0
H738 H 0.68809 0.57772 0.10783 0.0
H739 H 0.71647 0.57866 0.098 0.0
C740 C 0.70244 0.57372 0.16826 0.0
C741 C 0.72443 0.56532 0.16763 0.0
C742 C 0.69649 0.59202 0.15469 0.0
C743 C 0.71261 0.60217 0.1408 0.0
C744 C 0.73484 0.59473 0.14142 0.0
H745 H 0.71928 0.70747 0.04006 0.0
H746 H 0.72696 0.68194 0.07142 0.0
C747 C 0.74068 0.57642 0.15463 0.0
C748 C 0.70613 0.61843 0.12336 0.0
H749 H 0.69359 0.62111 0.06771 0.0
C750 C 0.70743 0.64146 0.12787 0.0
C751 C 0.70088 0.61099 0.10154 0.0
C752 C 0.69962 0.58633 0.09601 0.0
C753 C 0.70356 0.65737 0.1109 0.0
C754 C 0.6988 0.64989 0.08887 0.0
C755 C 0.69731 0.62681 0.08457 0.0
C756 C 0.69455 0.66555 0.07005 0.0
C757 C 0.70438 0.68197 0.11672 0.0
C758 C 0.67419 0.66422 0.05838 0.0
C759 C 0.66996 0.67839 0.0403 0.0
C760 C 0.68599 0.69429 0.03347 0.0
C761 C 0.7066 0.69539 0.04492 0.0
C762 C 0.71088 0.68103 0.06301 0.0
H763 H 0.70242 0.68475 0.13503 0.0
H764 H 0.72087 0.68893 0.1116 0.0
H765 H 0.69105 0.6914 0.10777 0.0
H766 H 0.66142 0.6523 0.06342 0.0
H767 H 0.65388 0.6771 0.03194 0.0
H768 H 0.33993 0.23669 0.05753 0.0
H769 H 0.36252 0.23811 0.0917 0.0
H770 H 0.3392 0.3055 0.10417 0.0
H771 H 0.31695 0.30413 0.06958 0.0
H772 H 0.38338 0.30393 0.101 0.0
H773 H 0.35657 0.2368 0.15885 0.0
H774 H 0.36071 0.22618 0.13105 0.0
H775 H 0.33908 0.24662 0.13616 0.0
C776 C 0.33898 0.25141 0.06813 0.0
C777 C 0.32674 0.27026 0.06124 0.0
C778 C 0.35179 0.2522 0.08769 0.0
C779 C 0.35248 0.27187 0.1006 0.0
C780 C 0.33883 0.29012 0.09452 0.0
H781 H 0.44092 0.28593 0.21602 0.0
H782 H 0.40879 0.27942 0.19161 0.0
C783 C 0.32605 0.28932 0.07489 0.0
C784 C 0.37026 0.27472 0.11776 0.0
H785 H 0.39485 0.24969 0.16296 0.0
C786 C 0.38567 0.29226 0.11477 0.0
C787 C 0.37319 0.25961 0.13578 0.0
C788 C 0.35635 0.2414 0.1408 0.0
C789 C 0.40427 0.29479 0.12888 0.0
C790 C 0.40811 0.27878 0.14601 0.0
C791 C 0.39225 0.26166 0.14951 0.0
C792 C 0.42807 0.28007 0.16088 0.0
C793 C 0.41937 0.31484 0.12536 0.0
C794 C 0.44982 0.2816 0.15186 0.0
C795 C 0.46819 0.28599 0.16577 0.0
C796 C 0.46523 0.28807 0.18901 0.0
C797 C 0.44377 0.28452 0.19817 0.0
C798 C 0.42533 0.28077 0.18421 0.0
H799 H 0.4104 0.32871 0.11674 0.0
H800 H 0.42601 0.32128 0.14151 0.0
H801 H 0.43372 0.30992 0.11459 0.0
H802 H 0.45251 0.2802 0.13398 0.0
H803 H 0.48458 0.28838 0.1583 0.0
H804 H 0.80831 0.19836 0.93456 0.0
H805 H 0.82904 0.18813 0.90041 0.0
H806 H 0.86223 0.25237 0.90113 0.0
H807 H 0.84201 0.26256 0.9352 0.0
H808 H 0.84504 0.22772 0.8543 0.0
H809 H 0.90289 0.18465 0.91402 0.0
H810 H 0.87295 0.18162 0.91715 0.0
H811 H 0.88594 0.20811 0.92283 0.0
C812 C 0.81971 0.21041 0.92713 0.0
C813 C 0.82402 0.231 0.9377 0.0
C814 C 0.83137 0.20462 0.90764 0.0
C815 C 0.84706 0.21956 0.89845 0.0
C816 C 0.85009 0.24074 0.90804 0.0
H817 H 0.9524 0.22356 0.79957 0.0
H818 H 0.92064 0.23207 0.82426 0.0
C819 C 0.83874 0.24639 0.9276 0.0
C820 C 0.86307 0.21202 0.88132 0.0
H821 H 0.91412 0.18693 0.87657 0.0
C822 C 0.86004 0.21853 0.85897 0.0
C823 C 0.88255 0.20021 0.88772 0.0
C824 C 0.88649 0.19319 0.91172 0.0
C825 C 0.8763 0.21355 0.84269 0.0
C826 C 0.89619 0.20236 0.84927 0.0
C827 C 0.89888 0.19555 0.8716 0.0
C828 C 0.9146 0.19745 0.83348 0.0
C829 C 0.87202 0.22016 0.81866 0.0
C830 C 0.9221 0.17532 0.8311 0.0
C831 C 0.94046 0.17051 0.81753 0.0
C832 C 0.95161 0.18775 0.80595 0.0
C833 C 0.9441 0.20995 0.80831 0.0
C834 C 0.92581 0.21479 0.82214 0.0
H835 H 0.85382 0.22252 0.81536 0.0
H836 H 0.88061 0.23629 0.81512 0.0
H837 H 0.87863 0.20734 0.8069 0.0
H838 H 0.91377 0.16172 0.83983 0.0
H839 H 0.94569 0.15319 0.81592 0.0
H840 H 0.54521 0.77937 0.28696 0.0
H841 H 0.57506 0.7733 0.31457 0.0
H842 H 0.54603 0.82396 0.35717 0.0
H843 H 0.51634 0.83028 0.32971 0.0
H844 H 0.59322 0.82907 0.34866 0.0
H845 H 0.56998 0.74311 0.37694 0.0
H846 H 0.57261 0.74726 0.3472 0.0
H847 H 0.55056 0.76112 0.36228 0.0
C848 C 0.54497 0.7889 0.3024 0.0
C849 C 0.52844 0.80528 0.3062 0.0
C850 C 0.56206 0.78548 0.31808 0.0
C851 C 0.56269 0.79823 0.33782 0.0
C852 C 0.54585 0.81408 0.34193 0.0
H853 H 0.62926 0.77458 0.46101 0.0
H854 H 0.60383 0.78557 0.43093 0.0
C855 C 0.52885 0.81756 0.32629 0.0
C856 C 0.58106 0.79549 0.35418 0.0
H857 H 0.60229 0.75917 0.39278 0.0
C858 C 0.59534 0.81378 0.3583 0.0
C859 C 0.58363 0.77552 0.36662 0.0
C860 C 0.56833 0.75563 0.36324 0.0
C861 C 0.61192 0.81276 0.37497 0.0
C862 C 0.61426 0.79288 0.38762 0.0
C863 C 0.60034 0.77443 0.38307 0.0
C864 C 0.63015 0.7909 0.40652 0.0
C865 C 0.62628 0.83311 0.37942 0.0
C866 C 0.65344 0.79132 0.403 0.0
C867 C 0.66808 0.78535 0.42036 0.0
C868 C 0.65948 0.77849 0.44118 0.0
C869 C 0.63627 0.77959 0.44502 0.0
C870 C 0.62175 0.78583 0.42787 0.0
H871 H 0.61936 0.84842 0.37135 0.0
H872 H 0.62788 0.83615 0.3977 0.0
H873 H 0.64335 0.83019 0.3726 0.0
H874 H 0.66022 0.79494 0.38656 0.0
H875 H 0.68589 0.78455 0.41698 0.0
H876 H 0.18461 0.70619 0.57049 0.0
H877 H 0.16016 0.69605 0.60207 0.0
H878 H 0.11273 0.74667 0.5817 0.0
H879 H 0.13678 0.75687 0.55031 0.0
H880 H 0.14039 0.72526 0.63825 0.0
H881 H 0.07791 0.68524 0.58196 0.0
H882 H 0.10659 0.69038 0.57362 0.0
H883 H 0.08658 0.7129 0.57367 0.0
C884 C 0.16905 0.71525 0.57285 0.0
C885 C 0.16254 0.73217 0.55775 0.0
C886 C 0.15516 0.70947 0.59089 0.0
C887 C 0.1346 0.72049 0.59399 0.0
C888 C 0.12843 0.73782 0.57939 0.0
H889 H 0.03799 0.72406 0.7028 0.0
H890 H 0.06755 0.73279 0.67552 0.0
C891 C 0.14222 0.74358 0.56144 0.0
C892 C 0.11889 0.71345 0.6118 0.0
H893 H 0.06652 0.69177 0.61946 0.0
C894 C 0.12429 0.71776 0.63426 0.0
C895 C 0.09808 0.70345 0.60645 0.0
C896 C 0.09193 0.6975 0.58264 0.0
C897 C 0.10902 0.71289 0.65155 0.0
C898 C 0.08775 0.70384 0.64606 0.0
C899 C 0.08271 0.69897 0.62362 0.0
C900 C 0.07052 0.69875 0.66323 0.0
C901 C 0.11585 0.71725 0.67549 0.0
C902 C 0.06199 0.67691 0.66495 0.0
C903 C 0.04491 0.672 0.68013 0.0
C904 C 0.03598 0.68883 0.694 0.0
C905 C 0.04452 0.71075 0.69232 0.0
C906 C 0.06157 0.7157 0.67693 0.0
H907 H 0.13438 0.71839 0.67726 0.0
H908 H 0.10856 0.73343 0.68106 0.0
H909 H 0.10956 0.70384 0.68678 0.0
H910 H 0.06858 0.6636 0.65449 0.0
H911 H 0.03888 0.65489 0.68108 0.0
H912 H 0.9107 0.68568 0.72678 0.0
H913 H 0.88178 0.65813 0.71707 0.0
H914 H 0.93189 0.61715 0.68468 0.0
H915 H 0.961 0.64402 0.69574 0.0
H916 H 0.86418 0.63754 0.68177 0.0
H917 H 0.91118 0.57533 0.73256 0.0
H918 H 0.919 0.60449 0.73147 0.0
H919 H 0.92713 0.58568 0.7093 0.0
C920 C 0.91534 0.67108 0.71702 0.0
C921 C 0.93792 0.66676 0.71202 0.0
C922 C 0.89888 0.6553 0.71158 0.0
C923 C 0.90482 0.6352 0.70084 0.0
C924 C 0.92708 0.63213 0.69371 0.0
H925 H 0.8256 0.51995 0.66168 0.0
H926 H 0.85446 0.54889 0.66585 0.0
C927 C 0.94362 0.64758 0.69972 0.0
C928 C 0.88823 0.61673 0.69894 0.0
H929 H 0.87922 0.56189 0.71315 0.0
C930 C 0.86748 0.62102 0.68864 0.0
C931 C 0.89238 0.59524 0.70831 0.0
C932 C 0.91352 0.58994 0.72124 0.0
C933 C 0.85097 0.60428 0.68711 0.0
C934 C 0.85544 0.58278 0.69595 0.0
C935 C 0.87605 0.57843 0.70627 0.0
C936 C 0.83882 0.56451 0.69453 0.0
C937 C 0.82883 0.60954 0.67605 0.0
C938 C 0.82097 0.56344 0.70978 0.0
C939 C 0.80458 0.54681 0.70763 0.0
C940 C 0.80577 0.53112 0.69007 0.0
C941 C 0.8242 0.5318 0.67536 0.0
C942 C 0.84065 0.54833 0.67764 0.0
H943 H 0.82855 0.62661 0.66859 0.0
H944 H 0.82524 0.59705 0.66273 0.0
H945 H 0.81517 0.60833 0.68865 0.0
H946 H 0.81948 0.57578 0.72302 0.0
H947 H 0.79053 0.54682 0.71915 0.0
H948 H 0.53694 0.356 0.19988 0.0
H949 H 0.56634 0.38306 0.19059 0.0
H950 H 0.6161 0.33859 0.21868 0.0
H951 H 0.58684 0.31104 0.22689 0.0
H952 H 0.58942 0.4038 0.22128 0.0
H953 H 0.64994 0.36056 0.16566 0.0
H954 H 0.62237 0.34939 0.17131 0.0
H955 H 0.64486 0.34533 0.19106 0.0
C956 C 0.55428 0.35171 0.2033 0.0
C957 C 0.55969 0.33145 0.21399 0.0
C958 C 0.57105 0.3672 0.19811 0.0
C959 C 0.5935 0.36292 0.20389 0.0
C960 C 0.59905 0.34213 0.21354 0.0
H961 H 0.70937 0.45196 0.21528 0.0
H962 H 0.68166 0.42217 0.22153 0.0
C963 C 0.5823 0.32638 0.21827 0.0
C964 C 0.61036 0.38122 0.20232 0.0
H965 H 0.6624 0.39478 0.18242 0.0
C966 C 0.60529 0.40182 0.2126 0.0
C967 C 0.6312 0.37862 0.19123 0.0
C968 C 0.63734 0.35735 0.17901 0.0
C969 C 0.62038 0.41985 0.21204 0.0
C970 C 0.64114 0.41722 0.20102 0.0
C971 C 0.64645 0.39661 0.19099 0.0
C972 C 0.65711 0.43607 0.19875 0.0
C973 C 0.61412 0.4416 0.22332 0.0
C974 C 0.65223 0.45385 0.18417 0.0
C975 C 0.668 0.47079 0.18049 0.0
C976 C 0.6889 0.4703 0.19142 0.0
C977 C 0.69337 0.45291 0.20673 0.0
C978 C 0.67764 0.43581 0.21022 0.0
H979 H 0.59937 0.43966 0.23454 0.0
H980 H 0.62846 0.44816 0.23324 0.0
H981 H 0.60995 0.45426 0.21033 0.0
H982 H 0.63648 0.45424 0.17511 0.0
H983 H 0.66405 0.48394 0.16859 0.0
H984 H 0.41051 0.8086 0.26482 0.0
H985 H 0.38052 0.83538 0.27378 0.0
H986 H 0.42857 0.87759 0.30763 0.0
H987 H 0.4586 0.85137 0.29781 0.0
H988 H 0.36217 0.85688 0.31064 0.0
H989 H 0.40779 0.91706 0.25638 0.0
H990 H 0.41542 0.88786 0.25822 0.0
H991 H 0.42445 0.90733 0.27944 0.0
C992 C 0.41441 0.82321 0.27489 0.0
C993 C 0.43669 0.82804 0.28074 0.0
C994 C 0.39736 0.83855 0.27984 0.0
C995 C 0.40249 0.85876 0.29078 0.0
C996 C 0.4244 0.86238 0.29864 0.0
H997 H 0.33431 0.97825 0.33035 0.0
H998 H 0.36027 0.94743 0.32284 0.0
C999 C 0.44146 0.84731 0.2933 0.0
C1000 C 0.38566 0.877 0.29199 0.0
H1001 H 0.37703 0.93168 0.27718 0.0
C1002 C 0.36531 0.87318 0.3032 0.0
C1003 C 0.38966 0.89815 0.28188 0.0
C1004 C 0.4104 0.90281 0.2681 0.0
C1005 C 0.34926 0.8903 0.30537 0.0
C1006 C 0.35374 0.91162 0.29603 0.0
C1007 C 0.37379 0.91529 0.28439 0.0
C1008 C 0.33838 0.93076 0.29926 0.0
C1009 C 0.32788 0.88576 0.31811 0.0
C1010 C 0.31782 0.93185 0.28787 0.0
C1011 C 0.30302 0.94961 0.29192 0.0
C1012 C 0.30857 0.96638 0.30754 0.0
C1013 C 0.32955 0.96557 0.31826 0.0
C1014 C 0.34437 0.94797 0.31406 0.0
H1015 H 0.32802 0.86907 0.3264 0.0
H1016 H 0.32521 0.89889 0.33103 0.0
H1017 H 0.31343 0.8864 0.30639 0.0
H1018 H 0.31309 0.91879 0.27619 0.0
H1019 H 0.28692 0.9497 0.28351 0.0
H1020 H 0.17597 0.05279 0.83782 0.0
H1021 H 0.15086 0.08265 0.82526 0.0
H1022 H 0.17609 0.07597 0.75792 0.0
H1023 H 0.20148 0.04605 0.77028 0.0
H1024 H 0.17105 0.12541 0.7907 0.0
H1025 H 0.09909 0.07004 0.76795 0.0
H1026 H 0.11687 0.06306 0.79144 0.0
H1027 H 0.12771 0.06111 0.76352 0.0
C1028 C 0.17607 0.05748 0.82029 0.0
C1029 C 0.1907 0.04704 0.80502 0.0
C1030 C 0.16184 0.07463 0.81321 0.0
C1031 C 0.16193 0.08152 0.79079 0.0
C1032 C 0.17605 0.07089 0.77535 0.0
H1033 H 0.05709 0.16302 0.73397 0.0
H1034 H 0.09263 0.14252 0.73566 0.0
C1035 C 0.19039 0.05374 0.78242 0.0
C1036 C 0.1468 0.09961 0.78355 0.0
H1037 H 0.09328 0.1089 0.76614 0.0
C1038 C 0.1541 0.12193 0.78505 0.0
C1039 C 0.12486 0.0948 0.77624 0.0
C1040 C 0.11648 0.07099 0.7746 0.0
C1041 C 0.13965 0.13976 0.77974 0.0
C1042 C 0.11741 0.13497 0.77305 0.0
C1043 C 0.11042 0.11255 0.77106 0.0
C1044 C 0.10031 0.15261 0.76964 0.0
C1045 C 0.14823 0.16349 0.78144 0.0
C1046 C 0.09354 0.16609 0.78773 0.0
C1047 C 0.07341 0.17806 0.78662 0.0
C1048 C 0.05983 0.17641 0.76754 0.0
C1049 C 0.06751 0.16455 0.74878 0.0
C1050 C 0.08772 0.15284 0.74977 0.0
H1051 H 0.16679 0.16415 0.77985 0.0
H1052 H 0.14066 0.17435 0.76834 0.0
H1053 H 0.14368 0.17042 0.79808 0.0
H1054 H 0.10274 0.16581 0.80338 0.0
H1055 H 0.06751 0.18688 0.80136 0.0
H1056 H 0.74969 0.91282 0.67145 0.0
H1057 H 0.73839 0.88331 0.64523 0.0
H1058 H 0.68019 0.92213 0.62662 0.0
H1059 H 0.6916 0.95179 0.653 0.0
H1060 H 0.69831 0.85737 0.63831 0.0
H1061 H 0.71769 0.9158 0.56817 0.0
H1062 H 0.7261 0.92132 0.59669 0.0
H1063 H 0.6975 0.92566 0.58827 0.0
C1064 C 0.73415 0.91468 0.66219 0.0
C1065 C 0.72137 0.93431 0.66417 0.0
C1066 C 0.72775 0.89791 0.64723 0.0
C1067 C 0.70867 0.90073 0.63378 0.0
C1068 C 0.69511 0.9198 0.63672 0.0
H1069 H 0.66001 0.82473 0.52032 0.0
H1070 H 0.66685 0.85273 0.54935 0.0
C1071 C 0.70146 0.93657 0.65187 0.0
C1072 C 0.70431 0.88463 0.61544 0.0
H1073 H 0.70508 0.87963 0.55844 0.0
C1074 C 0.69969 0.86221 0.62084 0.0
C1075 C 0.7064 0.89102 0.59269 0.0
C1076 C 0.71237 0.9147 0.58599 0.0
C1077 C 0.69681 0.846 0.60403 0.0
C1078 C 0.69904 0.85237 0.5813 0.0
C1079 C 0.70349 0.87483 0.57591 0.0
C1080 C 0.69612 0.83609 0.56283 0.0
C1081 C 0.69108 0.82225 0.61069 0.0
C1082 C 0.71083 0.81787 0.56032 0.0
C1083 C 0.70704 0.80184 0.54362 0.0
C1084 C 0.68846 0.80382 0.52924 0.0
C1085 C 0.6744 0.82265 0.53121 0.0
C1086 C 0.67825 0.83867 0.5478 0.0
H1087 H 0.68513 0.82121 0.6283 0.0
H1088 H 0.67793 0.81524 0.59952 0.0
H1089 H 0.70627 0.81162 0.60908 0.0
H1090 H 0.72499 0.81585 0.57152 0.0
H1091 H 0.71816 0.78751 0.54254 0.0
H1092 H 0.83164 0.16244 0.01732 0.0
H1093 H 0.82579 0.13428 0.04663 0.0
H1094 H 0.7758 0.17658 0.07735 0.0
H1095 H 0.78098 0.20438 0.04779 0.0
H1096 H 0.8327 0.13908 0.09156 0.0
H1097 H 0.74355 0.1174 0.0753 0.0
H1098 H 0.76018 0.13325 0.05562 0.0
H1099 H 0.74821 0.14677 0.07977 0.0
C1100 C 0.81906 0.1655 0.03006 0.0
C1101 C 0.80662 0.18552 0.03012 0.0
C1102 C 0.81586 0.1495 0.04687 0.0
C1103 C 0.80025 0.15326 0.06407 0.0
C1104 C 0.78758 0.17309 0.06398 0.0
H1105 H 0.7802 0.0778 0.18855 0.0
H1106 H 0.79092 0.10806 0.16267 0.0
C1107 C 0.79056 0.18896 0.04703 0.0
C1108 C 0.79776 0.13675 0.08247 0.0
H1109 H 0.75985 0.10248 0.10828 0.0
C1110 C 0.81677 0.13109 0.09524 0.0
C1111 C 0.77694 0.12638 0.08724 0.0
C1112 C 0.7561 0.13108 0.07365 0.0
C1113 C 0.8155 0.11518 0.11256 0.0
C1114 C 0.79475 0.10484 0.11716 0.0
C1115 C 0.77571 0.11068 0.10468 0.0
C1116 C 0.79255 0.08651 0.13358 0.0
C1117 C 0.83633 0.10899 0.12548 0.0
C1118 C 0.79056 0.06448 0.12577 0.0
C1119 C 0.78435 0.04733 0.14035 0.0
C1120 C 0.78003 0.05193 0.16303 0.0
C1121 C 0.78352 0.07378 0.17118 0.0
C1122 C 0.7896 0.09104 0.15646 0.0
H1123 H 0.8513 0.11851 0.11976 0.0
H1124 H 0.83365 0.1123 0.14359 0.0
H1125 H 0.83969 0.09077 0.12359 0.0
H1126 H 0.79279 0.06074 0.10814 0.0
H1127 H 0.78201 0.0306 0.13367 0.0
H1128 H 0.145 0.67655 0.46011 0.0
H1129 H 0.15282 0.64966 0.43019 0.0
H1130 H 0.22366 0.6629 0.43652 0.0
H1131 H 0.2161 0.68982 0.46646 0.0
H1132 H 0.17803 0.66141 0.38832 0.0
H1133 H 0.21594 0.59285 0.43903 0.0
H1134 H 0.19796 0.61401 0.45112 0.0
H1135 H 0.22655 0.62059 0.44426 0.0
C1136 C 0.16229 0.67343 0.45547 0.0
C1137 C 0.17995 0.68527 0.46567 0.0
C1138 C 0.16667 0.65823 0.43825 0.0
C1139 C 0.18875 0.65446 0.43122 0.0
C1140 C 0.2065 0.6656 0.44187 0.0
H1141 H 0.25768 0.57135 0.33905 0.0
H1142 H 0.24561 0.60241 0.36272 0.0
C1143 C 0.20214 0.68089 0.459 0.0
C1144 C 0.19331 0.63921 0.41239 0.0
H1145 H 0.21849 0.58963 0.39967 0.0
C1146 C 0.18671 0.64561 0.39071 0.0
C1147 C 0.20466 0.61874 0.41574 0.0
C1148 C 0.21158 0.61096 0.4388 0.0
C1149 C 0.1918 0.63217 0.37207 0.0
C1150 C 0.20342 0.61183 0.37546 0.0
C1151 C 0.20961 0.60533 0.3972 0.0
C1152 C 0.21019 0.59706 0.35688 0.0
C1153 C 0.18543 0.64002 0.34891 0.0
C1154 C 0.19421 0.58448 0.34497 0.0
C1155 C 0.20112 0.56677 0.3312 0.0
C1156 C 0.22398 0.5614 0.3297 0.0
C1157 C 0.23992 0.57505 0.34032 0.0
C1158 C 0.23308 0.59282 0.35371 0.0
H1159 H 0.17978 0.65778 0.34884 0.0
H1160 H 0.19987 0.63824 0.33728 0.0
H1161 H 0.17157 0.62943 0.34243 0.0
H1162 H 0.17645 0.5874 0.34747 0.0
H1163 H 0.18863 0.55636 0.32309 0.0
H1164 H 0.29004 0.29008 0.93779 0.0
H1165 H 0.28726 0.31463 0.90508 0.0
H1166 H 0.30378 0.37168 0.9463 0.0
H1167 H 0.30712 0.34723 0.979 0.0
H1168 H 0.26169 0.35122 0.89534 0.0
H1169 H 0.35142 0.37485 0.89759 0.0
H1170 H 0.34021 0.35182 0.91376 0.0
H1171 H 0.33777 0.38017 0.92384 0.0
C1172 C 0.29275 0.30791 0.93997 0.0
C1173 C 0.29906 0.31674 0.96092 0.0
C1174 C 0.29131 0.32186 0.92123 0.0
C1175 C 0.29607 0.34479 0.92319 0.0
C1176 C 0.30083 0.35386 0.94434 0.0
H1177 H 0.26625 0.46281 0.85905 0.0
H1178 H 0.27805 0.43137 0.88242 0.0
C1179 C 0.30247 0.33994 0.96304 0.0
C1180 C 0.296 0.3594 0.90321 0.0
H1181 H 0.32704 0.39923 0.87618 0.0
C1182 C 0.27611 0.36136 0.89082 0.0
C1183 C 0.31502 0.37226 0.89709 0.0
C1184 C 0.33738 0.3695 0.90862 0.0
C1185 C 0.27424 0.37714 0.87354 0.0
C1186 C 0.29264 0.39127 0.86876 0.0
C1187 C 0.31298 0.38835 0.88009 0.0
C1188 C 0.28965 0.41122 0.85465 0.0
C1189 C 0.25222 0.37961 0.8613 0.0
C1190 C 0.29322 0.41044 0.83144 0.0
C1191 C 0.28666 0.42853 0.818 0.0
C1192 C 0.2762 0.44727 0.82774 0.0
C1193 C 0.27406 0.44845 0.85114 0.0
C1194 C 0.28082 0.43058 0.86449 0.0
H1195 H 0.24044 0.36568 0.86514 0.0
H1196 H 0.24419 0.39567 0.8662 0.0
H1197 H 0.25514 0.38016 0.84293 0.0
H1198 H 0.30003 0.39549 0.8237 0.0
H1199 H 0.28846 0.42726 0.79999 0.0
H1200 H 0.51508 0.66392 0.82547 0.0
H1201 H 0.54482 0.67001 0.85299 0.0
H1202 H 0.57531 0.71909 0.80945 0.0
H1203 H 0.54527 0.71348 0.78203 0.0
H1204 H 0.58995 0.66267 0.84719 0.0
H1205 H 0.57388 0.75188 0.86886 0.0
H1206 H 0.55383 0.73507 0.85365 0.0
H1207 H 0.5778 0.74669 0.83949 0.0
C1208 C 0.5279 0.6763 0.82192 0.0
C1209 C 0.52776 0.68832 0.80165 0.0
C1210 C 0.54495 0.67966 0.8376 0.0
C1211 C 0.56223 0.69505 0.83332 0.0
C1212 C 0.56193 0.70741 0.81328 0.0
H1213 H 0.68646 0.71234 0.91068 0.0
H1214 H 0.66088 0.70163 0.88016 0.0
C1215 C 0.54473 0.70421 0.79764 0.0
C1216 C 0.58083 0.69757 0.84963 0.0
H1217 H 0.60607 0.73509 0.88466 0.0
C1218 C 0.59356 0.67852 0.85531 0.0
C1219 C 0.58546 0.71827 0.86023 0.0
C1220 C 0.57193 0.73911 0.85544 0.0
C1221 C 0.61061 0.67961 0.87154 0.0
C1222 C 0.61501 0.70023 0.8822 0.0
C1223 C 0.60263 0.71933 0.87626 0.0
C1224 C 0.63111 0.70223 0.90089 0.0
C1225 C 0.62335 0.65869 0.8778 0.0
C1226 C 0.62283 0.7053 0.92262 0.0
C1227 C 0.63726 0.71142 0.93992 0.0
C1228 C 0.66025 0.71462 0.93578 0.0
C1229 C 0.66883 0.70988 0.91435 0.0
C1230 C 0.65427 0.70384 0.89692 0.0
H1231 H 0.61734 0.64372 0.86848 0.0
H1232 H 0.64147 0.66112 0.87422 0.0
H1233 H 0.62163 0.6555 0.89605 0.0
H1234 H 0.605 0.70406 0.92595 0.0
H1235 H 0.63022 0.71475 0.95633 0.0
H1236 H 0.04553 0.76975 0.195 0.0
H1237 H 0.07612 0.75666 0.17073 0.0
H1238 H 0.08917 0.82487 0.15038 0.0
H1239 H 0.05854 0.83792 0.17391 0.0
H1240 H 0.08461 0.797 0.11528 0.0
H1241 H 0.14436 0.7608 0.17693 0.0
H1242 H 0.11625 0.75002 0.17869 0.0
H1243 H 0.12152 0.77899 0.18501 0.0
C1244 C 0.05499 0.78191 0.18537 0.0
C1245 C 0.04948 0.80482 0.18618 0.0
C1246 C 0.07261 0.77445 0.17174 0.0
C1247 C 0.08511 0.78985 0.15901 0.0
C1248 C 0.07979 0.81272 0.16012 0.0
H1249 H 0.19449 0.7882 0.06539 0.0
H1250 H 0.17352 0.7918 0.10061 0.0
C1251 C 0.06216 0.82012 0.1735 0.0
C1252 C 0.10248 0.78227 0.14298 0.0
H1253 H 0.15291 0.75528 0.13828 0.0
C1254 C 0.09954 0.78791 0.12036 0.0
C1255 C 0.12201 0.77052 0.14969 0.0
C1256 C 0.12641 0.76487 0.17393 0.0
C1257 C 0.11552 0.78214 0.10423 0.0
C1258 C 0.13482 0.77008 0.11081 0.0
C1259 C 0.13795 0.76439 0.13339 0.0
C1260 C 0.15167 0.76363 0.09392 0.0
C1261 C 0.11179 0.78913 0.08018 0.0
C1262 C 0.14686 0.74602 0.07913 0.0
C1263 C 0.15869 0.74406 0.05906 0.0
C1264 C 0.17571 0.75943 0.05378 0.0
C1265 C 0.18187 0.77579 0.06949 0.0
C1266 C 0.16987 0.77789 0.08952 0.0
H1267 H 0.09711 0.80047 0.0783 0.0
H1268 H 0.1269 0.7978 0.07358 0.0
H1269 H 0.10891 0.77402 0.06973 0.0
H1270 H 0.13272 0.73502 0.08222 0.0
H1271 H 0.15363 0.73142 0.04705 0.0
H1272 H 0.48824 0.16728 0.66226 0.0
H1273 H 0.45792 0.17319 0.63527 0.0
H1274 H 0.42398 0.21606 0.68259 0.0
H1275 H 0.45458 0.21088 0.7093 0.0
H1276 H 0.41449 0.16143 0.64005 0.0
H1277 H 0.42053 0.25341 0.62684 0.0
H1278 H 0.44225 0.23764 0.64078 0.0
H1279 H 0.41728 0.2457 0.6557 0.0
C1280 C 0.47456 0.17838 0.6667 0.0
C1281 C 0.47387 0.18875 0.68781 0.0
C1282 C 0.45718 0.18161 0.65134 0.0
C1283 C 0.43875 0.19516 0.65686 0.0
C1284 C 0.43825 0.20593 0.67776 0.0
H1285 H 0.31336 0.21728 0.58366 0.0
H1286 H 0.3388 0.20497 0.61372 0.0
C1287 C 0.45578 0.20296 0.69302 0.0
C1288 C 0.41967 0.19723 0.64108 0.0
H1289 H 0.38898 0.23512 0.61113 0.0
C1290 C 0.40889 0.17755 0.63375 0.0
C1291 C 0.41236 0.21828 0.63292 0.0
C1292 C 0.42383 0.23994 0.63928 0.0
C1293 C 0.39119 0.17841 0.61826 0.0
C1294 C 0.38409 0.19941 0.61013 0.0
C1295 C 0.39445 0.21907 0.61773 0.0
C1296 C 0.36758 0.2015 0.59192 0.0
C1297 C 0.38045 0.15701 0.6102 0.0
C1298 C 0.37534 0.20289 0.56983 0.0
C1299 C 0.36106 0.21015 0.55284 0.0
C1300 C 0.33875 0.21589 0.55772 0.0
C1301 C 0.33046 0.21272 0.57952 0.0
C1302 C 0.34492 0.20577 0.59665 0.0
H1303 H 0.38687 0.14205 0.61927 0.0
H1304 H 0.36197 0.15797 0.61239 0.0
H1305 H 0.38381 0.15489 0.59202 0.0
H1306 H 0.39283 0.19974 0.56599 0.0
H1307 H 0.36775 0.2124 0.53611 0.0
H1308 H 0.85905 0.23771 0.45034 0.0
H1309 H 0.88064 0.24453 0.41648 0.0
H1310 H 0.82762 0.28657 0.3908 0.0
H1311 H 0.80616 0.28057 0.42539 0.0
H1312 H 0.87367 0.23707 0.37248 0.0
H1313 H 0.88054 0.32875 0.38891 0.0
H1314 H 0.86917 0.3096 0.40934 0.0
H1315 H 0.85265 0.31788 0.38554 0.0
C1316 C 0.85188 0.2484 0.43752 0.0
C1317 C 0.83095 0.25878 0.44068 0.0
C1318 C 0.86421 0.25216 0.41806 0.0
C1319 C 0.85593 0.26633 0.40122 0.0
C1320 C 0.83454 0.27592 0.40376 0.0
H1321 H 0.94469 0.27957 0.28309 0.0
H1322 H 0.91212 0.26988 0.30603 0.0
C1323 C 0.8222 0.27229 0.42343 0.0
C1324 C 0.87065 0.27177 0.3819 0.0
H1325 H 0.9017 0.31423 0.35931 0.0
C1326 C 0.87965 0.25397 0.36938 0.0
C1327 C 0.87841 0.29385 0.37793 0.0
C1328 C 0.86987 0.31364 0.39119 0.0
C1329 C 0.89715 0.25741 0.35399 0.0
C1330 C 0.90546 0.2794 0.35061 0.0
C1331 C 0.89548 0.29736 0.36211 0.0
C1332 C 0.92553 0.28412 0.33661 0.0
C1333 C 0.90736 0.2373 0.34254 0.0
C1334 C 0.94387 0.29555 0.34602 0.0
C1335 C 0.96229 0.30151 0.33285 0.0
C1336 C 0.9629 0.29588 0.31003 0.0
C1337 C 0.9449 0.28376 0.30075 0.0
C1338 C 0.92625 0.27819 0.31385 0.0
H1339 H 0.90287 0.22138 0.35113 0.0
H1340 H 0.90098 0.23632 0.3251 0.0
H1341 H 0.92593 0.23866 0.3419 0.0
H1342 H 0.94374 0.30026 0.36356 0.0
H1343 H 0.97585 0.31096 0.3404 0.0
H1344 H 0.16758 0.06029 0.25049 0.0
H1345 H 0.14132 0.09167 0.25392 0.0
H1346 H 0.17852 0.11679 0.31053 0.0
H1347 H 0.2049 0.08552 0.30728 0.0
H1348 H 0.11466 0.108 0.2933 0.0
H1349 H 0.17894 0.168 0.26178 0.0
H1350 H 0.18131 0.13808 0.25775 0.0
H1351 H 0.18715 0.15015 0.28466 0.0
C1352 C 0.17005 0.07234 0.26384 0.0
C1353 C 0.18845 0.0705 0.27849 0.0
C1354 C 0.155 0.09022 0.26579 0.0
C1355 C 0.15817 0.10663 0.2823 0.0
C1356 C 0.17595 0.10437 0.29754 0.0
H1357 H 0.09932 0.23889 0.29877 0.0
H1358 H 0.12089 0.20438 0.30363 0.0
C1359 C 0.19095 0.08645 0.29568 0.0
C1360 C 0.14364 0.12676 0.28276 0.0
H1361 H 0.14389 0.18294 0.27194 0.0
C1362 C 0.12099 0.12443 0.2887 0.0
C1363 C 0.15204 0.1481 0.27677 0.0
C1364 C 0.17614 0.15137 0.26971 0.0
C1365 C 0.10649 0.14302 0.28901 0.0
C1366 C 0.11478 0.16436 0.28264 0.0
C1367 C 0.13752 0.16662 0.27687 0.0
C1368 C 0.10024 0.18457 0.28132 0.0
C1369 C 0.08256 0.13968 0.29655 0.0
C1370 C 0.08131 0.18492 0.2673 0.0
C1371 C 0.06879 0.20461 0.26464 0.0
C1372 C 0.0752 0.22443 0.27568 0.0
C1373 C 0.09395 0.22393 0.28999 0.0
C1374 C 0.10631 0.20421 0.29279 0.0
H1375 H 0.08085 0.12457 0.30733 0.0
H1376 H 0.07631 0.15446 0.30596 0.0
H1377 H 0.07173 0.13723 0.28163 0.0
H1378 H 0.0766 0.17017 0.25781 0.0
H1379 H 0.05457 0.20447 0.25334 0.0
H1380 H 0.32987 0.92892 0.74583 0.0
H1381 H 0.35608 0.89805 0.75195 0.0
H1382 H 0.32018 0.87907 0.81176 0.0
H1383 H 0.29366 0.90992 0.80572 0.0
H1384 H 0.38394 0.8872 0.79045 0.0
H1385 H 0.31967 0.82217 0.7713 0.0
H1386 H 0.31586 0.85131 0.76405 0.0
H1387 H 0.31257 0.8423 0.79257 0.0
C1388 C 0.32759 0.91829 0.76038 0.0
C1389 C 0.30958 0.92176 0.7752 0.0
C1390 C 0.34264 0.9007 0.76387 0.0
C1391 C 0.3399 0.88618 0.78214 0.0
C1392 C 0.32239 0.88998 0.7974 0.0
H1393 H 0.4057 0.75738 0.80409 0.0
H1394 H 0.38351 0.79139 0.80975 0.0
C1395 C 0.30732 0.90764 0.79396 0.0
C1396 C 0.35491 0.86656 0.78452 0.0
H1397 H 0.35603 0.80959 0.77965 0.0
C1398 C 0.37787 0.87019 0.78827 0.0
C1399 C 0.34688 0.84444 0.7817 0.0
C1400 C 0.32244 0.83968 0.77702 0.0
C1401 C 0.39309 0.85223 0.78913 0.0
C1402 C 0.38517 0.83013 0.7856 0.0
C1403 C 0.3621 0.82651 0.78239 0.0
C1404 C 0.40048 0.81055 0.78402 0.0
C1405 C 0.41746 0.85714 0.79392 0.0
C1406 C 0.4176 0.81007 0.76785 0.0
C1407 C 0.43046 0.79072 0.76472 0.0
C1408 C 0.42618 0.77133 0.77745 0.0
C1409 C 0.40939 0.77201 0.79399 0.0
C1410 C 0.39668 0.79144 0.79724 0.0
H1411 H 0.41942 0.87302 0.80346 0.0
H1412 H 0.4254 0.84334 0.80358 0.0
H1413 H 0.42659 0.85908 0.77784 0.0
H1414 H 0.42047 0.82437 0.75702 0.0
H1415 H 0.44312 0.79068 0.7517 0.0
H1416 H 0.70647 0.41171 0.69696 0.0
H1417 H 0.68155 0.37954 0.69135 0.0
H1418 H 0.63792 0.40393 0.74354 0.0
H1419 H 0.66278 0.43607 0.7494 0.0
H1420 H 0.67083 0.34834 0.72803 0.0
H1421 H 0.59525 0.38728 0.68987 0.0
H1422 H 0.62271 0.40012 0.68864 0.0
H1423 H 0.60655 0.40141 0.71399 0.0
C1424 C 0.69137 0.41045 0.707 0.0
C1425 C 0.68661 0.42643 0.72368 0.0
C1426 C 0.67719 0.39204 0.70378 0.0
C1427 C 0.65783 0.38948 0.7169 0.0
C1428 C 0.65263 0.40578 0.73303 0.0
H1429 H 0.55671 0.28986 0.74311 0.0
H1430 H 0.57906 0.32402 0.73867 0.0
C1431 C 0.66691 0.42407 0.73643 0.0
C1432 C 0.64409 0.36885 0.71518 0.0
H1433 H 0.59153 0.34974 0.70278 0.0
C1434 C 0.65356 0.34854 0.72228 0.0
C1435 C 0.62157 0.36929 0.70782 0.0
C1436 C 0.61087 0.39063 0.69946 0.0
C1437 C 0.64087 0.32872 0.72298 0.0
C1438 C 0.61821 0.32913 0.71578 0.0
C1439 C 0.60887 0.34943 0.70827 0.0
C1440 C 0.60374 0.30886 0.71682 0.0
C1441 C 0.6516 0.30778 0.73234 0.0
C1442 C 0.60977 0.28916 0.70545 0.0
C1443 C 0.59716 0.26956 0.70813 0.0
C1444 C 0.57804 0.26937 0.72195 0.0
C1445 C 0.57136 0.28943 0.73238 0.0
C1446 C 0.58412 0.30897 0.72986 0.0
H1447 H 0.66675 0.31169 0.74247 0.0
H1448 H 0.63963 0.29829 0.743 0.0
H1449 H 0.65687 0.29679 0.7183 0.0
H1450 H 0.62448 0.28882 0.69481 0.0
H1451 H 0.60262 0.25446 0.69965 0.0
H1452 H 0.82991 0.56229 0.24596 0.0
H1453 H 0.85533 0.5939 0.23934 0.0
H1454 H 0.81304 0.61693 0.18545 0.0
H1455 H 0.78754 0.58541 0.1918 0.0
H1456 H 0.87739 0.60987 0.19517 0.0
H1457 H 0.81665 0.6686 0.23511 0.0
H1458 H 0.81592 0.63874 0.24017 0.0
H1459 H 0.80613 0.64979 0.21399 0.0
C1460 C 0.82615 0.57392 0.23252 0.0
C1461 C 0.80662 0.57146 0.21954 0.0
C1462 C 0.84071 0.5919 0.22874 0.0
C1463 C 0.83589 0.60773 0.21205 0.0
C1464 C 0.81691 0.60488 0.19849 0.0
H1465 H 0.89204 0.74162 0.19602 0.0
H1466 H 0.87037 0.70737 0.18962 0.0
C1467 C 0.80241 0.58686 0.20215 0.0
C1468 C 0.84989 0.62803 0.20984 0.0
H1469 H 0.85047 0.68387 0.22198 0.0
C1470 C 0.87154 0.62612 0.20089 0.0
C1471 C 0.84204 0.64912 0.21722 0.0
C1472 C 0.81897 0.65185 0.22729 0.0
C1473 C 0.88571 0.64487 0.19921 0.0
C1474 C 0.87812 0.66589 0.20723 0.0
C1475 C 0.85625 0.66779 0.21576 0.0
C1476 C 0.89289 0.68588 0.20831 0.0
C1477 C 0.90855 0.642 0.1887 0.0
C1478 C 0.91293 0.68513 0.22064 0.0
C1479 C 0.92543 0.70462 0.22416 0.0
C1480 C 0.91793 0.72534 0.21574 0.0
C1481 C 0.89825 0.72594 0.20276 0.0
C1482 C 0.88585 0.70638 0.1991 0.0
H1483 H 0.90876 0.62765 0.17684 0.0
H1484 H 0.91385 0.65737 0.17961 0.0
H1485 H 0.92102 0.63846 0.20205 0.0
H1486 H 0.91842 0.66966 0.22842 0.0
H1487 H 0.94044 0.70358 0.23434 0.0
H1488 H 0.2759 0.0474 0.21034 0.0
H1489 H 0.28746 0.06745 0.17634 0.0
H1490 H 0.27602 0.13062 0.20959 0.0
H1491 H 0.26491 0.11089 0.24357 0.0
H1492 H 0.2625 0.09745 0.15117 0.0
H1493 H 0.3387 0.13897 0.18411 0.0
H1494 H 0.32536 0.11576 0.19831 0.0
H1495 H 0.31461 0.1438 0.20146 0.0
C1496 C 0.27603 0.06556 0.21043 0.0
C1497 C 0.26966 0.07758 0.22968 0.0
C1498 C 0.28265 0.07696 0.19103 0.0
C1499 C 0.28307 0.10048 0.19066 0.0
C1500 C 0.27645 0.11246 0.20976 0.0
H1501 H 0.28833 0.2123 0.10542 0.0
H1502 H 0.28894 0.18461 0.13548 0.0
C1503 C 0.26995 0.10113 0.22912 0.0
C1504 C 0.2892 0.11276 0.17003 0.0
H1505 H 0.32255 0.15511 0.15082 0.0
C1506 C 0.27591 0.10975 0.15087 0.0
C1507 C 0.30675 0.12872 0.16977 0.0
C1508 C 0.32231 0.13186 0.18946 0.0
C1509 C 0.27878 0.12332 0.13188 0.0
C1510 C 0.29565 0.14003 0.13205 0.0
C1511 C 0.30962 0.1423 0.15081 0.0
C1512 C 0.29753 0.15676 0.1139 0.0
C1513 C 0.26294 0.12055 0.11234 0.0
C1514 C 0.30286 0.15033 0.09193 0.0
C1515 C 0.30243 0.16614 0.07463 0.0
C1516 C 0.29676 0.18858 0.07912 0.0
C1517 C 0.29259 0.19512 0.10136 0.0
C1518 C 0.29297 0.17933 0.11858 0.0
H1519 H 0.24842 0.10964 0.11654 0.0
H1520 H 0.25651 0.1371 0.1067 0.0
H1521 H 0.27207 0.1128 0.09811 0.0
H1522 H 0.30684 0.13304 0.08811 0.0
H1523 H 0.30589 0.16063 0.05769 0.0
H1524 H 0.24098 0.88548 0.74208 0.0
H1525 H 0.23257 0.86484 0.70795 0.0
H1526 H 0.19558 0.92163 0.68246 0.0
H1527 H 0.20518 0.94296 0.71628 0.0
H1528 H 0.19673 0.85086 0.68753 0.0
H1529 H 0.23917 0.91335 0.6328 0.0
H1530 H 0.24032 0.91496 0.6629 0.0
H1531 H 0.21566 0.92416 0.6481 0.0
C1532 C 0.23088 0.89354 0.72931 0.0
C1533 C 0.22395 0.91591 0.73168 0.0
C1534 C 0.22605 0.8817 0.70978 0.0
C1535 C 0.21388 0.89184 0.69237 0.0
C1536 C 0.20564 0.91371 0.69533 0.0
H1537 H 0.18656 0.80142 0.57859 0.0
H1538 H 0.17965 0.82806 0.60901 0.0
C1539 C 0.21095 0.92581 0.71471 0.0
C1540 C 0.211 0.87959 0.67093 0.0
H1541 H 0.22467 0.88126 0.61538 0.0
C1542 C 0.20264 0.85757 0.6717 0.0
C1543 C 0.21889 0.88834 0.6503 0.0
C1544 C 0.2292 0.91141 0.64841 0.0
C1545 C 0.20301 0.84368 0.65276 0.0
C1546 C 0.21108 0.85238 0.63222 0.0
C1547 C 0.21838 0.87472 0.63115 0.0
C1548 C 0.21444 0.83795 0.61233 0.0
C1549 C 0.19608 0.81944 0.65532 0.0
C1550 C 0.23609 0.83552 0.60339 0.0
C1551 C 0.24002 0.82067 0.5858 0.0
C1552 C 0.22238 0.80784 0.57692 0.0
C1553 C 0.20053 0.8109 0.5853 0.0
C1554 C 0.19657 0.826 0.60275 0.0
H1555 H 0.19531 0.81425 0.67319 0.0
H1556 H 0.17916 0.81707 0.64796 0.0
H1557 H 0.20794 0.80817 0.64644 0.0
H1558 H 0.25012 0.84464 0.61049 0.0
H1559 H 0.25701 0.81875 0.57966 0.0
H1560 H 0.74504 0.38843 0.76297 0.0
H1561 H 0.75346 0.36728 0.7969 0.0
H1562 H 0.80053 0.41843 0.8172 0.0
H1563 H 0.79093 0.44044 0.78378 0.0
H1564 H 0.7886 0.34825 0.8134 0.0
H1565 H 0.76343 0.41616 0.87198 0.0
H1566 H 0.75894 0.41822 0.84221 0.0
H1567 H 0.78631 0.42345 0.85389 0.0
C1568 C 0.75721 0.39517 0.77466 0.0
C1569 C 0.76715 0.41618 0.77092 0.0
C1570 C 0.76206 0.38303 0.79405 0.0
C1571 C 0.77729 0.39143 0.80994 0.0
C1572 C 0.78815 0.41193 0.80564 0.0
H1573 H 0.80674 0.29821 0.92155 0.0
H1574 H 0.81307 0.32332 0.88966 0.0
C1575 C 0.7828 0.42442 0.78648 0.0
C1576 C 0.78102 0.37878 0.83112 0.0
H1577 H 0.77567 0.38239 0.88801 0.0
C1578 C 0.78592 0.35576 0.82973 0.0
C1579 C 0.77746 0.38855 0.85247 0.0
C1580 C 0.77105 0.41289 0.8553 0.0
C1581 C 0.78627 0.34207 0.84888 0.0
C1582 C 0.78248 0.35183 0.87015 0.0
C1583 C 0.77867 0.375 0.87168 0.0
C1584 C 0.77988 0.33803 0.89069 0.0
C1585 C 0.78938 0.3171 0.84596 0.0
C1586 C 0.75953 0.33871 0.90251 0.0
C1587 C 0.75599 0.3247 0.9209 0.0
C1588 C 0.77271 0.30962 0.92783 0.0
C1589 C 0.79345 0.30956 0.91653 0.0
C1590 C 0.79705 0.32376 0.8982 0.0
H1591 H 0.78704 0.31182 0.82826 0.0
H1592 H 0.80664 0.31241 0.8511 0.0
H1593 H 0.77737 0.30761 0.85657 0.0
H1594 H 0.74607 0.34965 0.89708 0.0
H1595 H 0.73986 0.32523 0.92924 0.0
H1596 H 0.70903 0.60613 0.25592 0.0
H1597 H 0.70483 0.6277 0.29054 0.0
H1598 H 0.73268 0.57278 0.32836 0.0
H1599 H 0.73693 0.55096 0.29385 0.0
H1600 H 0.6823 0.61468 0.335 0.0
H1601 H 0.77439 0.63027 0.3383 0.0
H1602 H 0.7602 0.62234 0.31276 0.0
H1603 H 0.76533 0.60178 0.3341 0.0
C1604 C 0.71403 0.5985 0.27162 0.0
C1605 C 0.72349 0.57688 0.2721 0.0
C1606 C 0.71155 0.61084 0.29137 0.0
C1607 C 0.71862 0.60186 0.3119 0.0
C1608 C 0.72726 0.58 0.31261 0.0
H1609 H 0.74369 0.66491 0.44048 0.0
H1610 H 0.73995 0.6382 0.40963 0.0
C1611 C 0.72964 0.56757 0.29288 0.0
C1612 C 0.71828 0.61591 0.33232 0.0
H1613 H 0.75264 0.64481 0.3677 0.0
C1614 C 0.69764 0.62125 0.34226 0.0
C1615 C 0.73833 0.62442 0.34163 0.0
C1616 C 0.76087 0.61961 0.33116 0.0
C1617 C 0.69655 0.6347 0.36157 0.0
C1618 C 0.71664 0.64346 0.37077 0.0
C1619 C 0.73726 0.63802 0.36075 0.0
C1620 C 0.71688 0.65868 0.39048 0.0
C1621 C 0.67396 0.63902 0.37212 0.0
C1622 C 0.70498 0.67901 0.39013 0.0
C1623 C 0.70687 0.69417 0.40789 0.0
C1624 C 0.72106 0.6895 0.42614 0.0
C1625 C 0.73268 0.66901 0.42663 0.0
C1626 C 0.73055 0.65374 0.40901 0.0
H1627 H 0.66168 0.62573 0.36765 0.0
H1628 H 0.67522 0.63994 0.39066 0.0
H1629 H 0.66729 0.65522 0.36586 0.0
H1630 H 0.69482 0.68353 0.37578 0.0
H1631 H 0.69787 0.70993 0.40691 0.0
H1632 H 0.21611 0.29452 0.06157 0.0
H1633 H 0.18203 0.30523 0.08213 0.0
H1634 H 0.20353 0.26485 0.13822 0.0
H1635 H 0.2379 0.25542 0.11848 0.0
H1636 H 0.14877 0.28208 0.09546 0.0
H1637 H 0.18536 0.31826 0.17184 0.0
H1638 H 0.20227 0.31229 0.1475 0.0
H1639 H 0.19673 0.29077 0.1681 0.0
C1640 C 0.21366 0.28835 0.07848 0.0
C1641 C 0.22975 0.27441 0.08857 0.0
C1642 C 0.19421 0.29444 0.0902 0.0
C1643 C 0.19041 0.28637 0.11204 0.0
C1644 C 0.20642 0.27217 0.12187 0.0
H1645 H 0.07115 0.24675 0.17579 0.0
H1646 H 0.10203 0.25436 0.15021 0.0
C1647 C 0.22603 0.26659 0.11045 0.0
C1648 C 0.16904 0.29111 0.12402 0.0
H1649 H 0.14817 0.30153 0.17623 0.0
C1650 C 0.14865 0.28683 0.113 0.0
C1651 C 0.1686 0.29797 0.14675 0.0
C1652 C 0.18945 0.30534 0.15908 0.0
C1653 C 0.12811 0.28754 0.1245 0.0
C1654 C 0.12804 0.29179 0.14783 0.0
C1655 C 0.14819 0.29776 0.15845 0.0
C1656 C 0.10779 0.28826 0.16192 0.0
C1657 C 0.10677 0.28348 0.11153 0.0
C1658 C 0.10092 0.30459 0.17742 0.0
C1659 C 0.08347 0.30009 0.19245 0.0
C1660 C 0.07258 0.27916 0.19224 0.0
C1661 C 0.07907 0.26309 0.17631 0.0
C1662 C 0.09663 0.26752 0.16147 0.0
H1663 H 0.10846 0.28944 0.09396 0.0
H1664 H 0.10333 0.26521 0.11094 0.0
H1665 H 0.09221 0.29206 0.11934 0.0
H1666 H 0.10937 0.32066 0.17821 0.0
H1667 H 0.07887 0.31283 0.20454 0.0
H1668 H 0.71044 0.21063 0.94509 0.0
H1669 H 0.67756 0.20033 0.92258 0.0
H1670 H 0.70197 0.24173 0.86843 0.0
H1671 H 0.73526 0.25088 0.89026 0.0
H1672 H 0.64505 0.22385 0.90768 0.0
H1673 H 0.68643 0.18804 0.83341 0.0
H1674 H 0.70174 0.19408 0.85877 0.0
H1675 H 0.69704 0.21571 0.83811 0.0
C1676 C 0.70884 0.21724 0.92826 0.0
C1677 C 0.72545 0.23136 0.9193 0.0
C1678 C 0.6901 0.21135 0.9154 0.0
C1679 C 0.6875 0.21976 0.89353 0.0
C1680 C 0.70395 0.23422 0.88484 0.0
H1681 H 0.56992 0.25407 0.82239 0.0
H1682 H 0.60024 0.24895 0.84928 0.0
C1683 C 0.7229 0.23965 0.89743 0.0
C1684 C 0.66693 0.21488 0.88032 0.0
H1685 H 0.64893 0.20296 0.82736 0.0
C1686 C 0.64592 0.21885 0.89023 0.0
C1687 C 0.66784 0.20777 0.85769 0.0
C1688 C 0.6895 0.20091 0.84652 0.0
C1689 C 0.62601 0.21734 0.87777 0.0
C1690 C 0.6272 0.21254 0.85459 0.0
C1691 C 0.64802 0.20711 0.84503 0.0
C1692 C 0.60745 0.2147 0.83961 0.0
C1693 C 0.60395 0.2211 0.88958 0.0
C1694 C 0.60158 0.19728 0.82491 0.0
C1695 C 0.58443 0.2003 0.80921 0.0
C1696 C 0.57286 0.22083 0.80792 0.0
C1697 C 0.57839 0.23801 0.82303 0.0
C1698 C 0.59562 0.23503 0.83858 0.0
H1699 H 0.60502 0.21609 0.90748 0.0
H1700 H 0.59972 0.23921 0.88904 0.0
H1701 H 0.59014 0.21152 0.88155 0.0
H1702 H 0.61057 0.1815 0.82529 0.0
H1703 H 0.58058 0.18673 0.79777 0.0
H1704 H 0.7495 0.78741 0.39147 0.0
H1705 H 0.78349 0.79421 0.36953 0.0
H1706 H 0.82408 0.77211 0.4251 0.0
H1707 H 0.79017 0.76525 0.44727 0.0
H1708 H 0.82598 0.82087 0.38052 0.0
H1709 H 0.83636 0.72868 0.36962 0.0
H1710 H 0.80994 0.7412 0.37752 0.0
H1711 H 0.83206 0.73866 0.39775 0.0
C1712 C 0.76565 0.78427 0.39916 0.0
C1713 C 0.76715 0.77557 0.42103 0.0
C1714 C 0.78503 0.78826 0.38662 0.0
C1715 C 0.80617 0.7835 0.3957 0.0
C1716 C 0.80783 0.77578 0.41784 0.0
H1717 H 0.93642 0.76715 0.33527 0.0
H1718 H 0.90547 0.7716 0.36161 0.0
C1719 C 0.78846 0.77189 0.43046 0.0
C1720 C 0.8263 0.78478 0.38136 0.0
H1721 H 0.86404 0.75188 0.35384 0.0
C1722 C 0.8344 0.80585 0.37469 0.0
C1723 C 0.83703 0.76509 0.37375 0.0
C1724 C 0.82841 0.74207 0.37983 0.0
C1725 C 0.85333 0.80771 0.36076 0.0
C1726 C 0.86403 0.78799 0.35314 0.0
C1727 C 0.85584 0.76696 0.35984 0.0
C1728 C 0.88367 0.78846 0.33802 0.0
C1729 C 0.86195 0.83069 0.35461 0.0
C1730 C 0.88178 0.79685 0.31611 0.0
C1731 C 0.8995 0.79434 0.30095 0.0
C1732 C 0.91925 0.7832 0.30746 0.0
C1733 C 0.92138 0.77567 0.32968 0.0
C1734 C 0.90373 0.77823 0.34478 0.0
H1735 H 0.8554 0.84381 0.36608 0.0
H1736 H 0.88058 0.83111 0.35498 0.0
H1737 H 0.85644 0.83486 0.33734 0.0
H1738 H 0.86629 0.80446 0.31046 0.0
H1739 H 0.89738 0.80035 0.28394 0.0
H1740 H 0.41465 0.68994 0.7027 0.0
H1741 H 0.38376 0.68381 0.67634 0.0
H1742 H 0.39677 0.74817 0.64601 0.0
H1743 H 0.4277 0.75441 0.67213 0.0
H1744 H 0.34556 0.71178 0.67192 0.0
H1745 H 0.39246 0.70549 0.59194 0.0
H1746 H 0.40576 0.70213 0.61894 0.0
H1747 H 0.39956 0.72969 0.60838 0.0
C1748 C 0.41113 0.70267 0.69023 0.0
C1749 C 0.42367 0.72266 0.68948 0.0
C1750 C 0.39346 0.69914 0.67522 0.0
C1751 C 0.38818 0.7154 0.65906 0.0
C1752 C 0.40085 0.73521 0.65807 0.0
H1753 H 0.288 0.74808 0.56298 0.0
H1754 H 0.32128 0.74343 0.58622 0.0
C1755 C 0.41846 0.7388 0.6731 0.0
C1756 C 0.36854 0.71241 0.64413 0.0
H1757 H 0.35293 0.71138 0.58913 0.0
C1758 C 0.34712 0.71137 0.65381 0.0
C1759 C 0.37071 0.71192 0.62056 0.0
C1760 C 0.39337 0.71216 0.6093 0.0
C1761 C 0.32767 0.71098 0.64052 0.0
C1762 C 0.32979 0.71106 0.61687 0.0
C1763 C 0.3513 0.71133 0.60723 0.0
C1764 C 0.30998 0.71267 0.60185 0.0
C1765 C 0.30509 0.71166 0.65196 0.0
C1766 C 0.29273 0.69661 0.60246 0.0
C1767 C 0.27345 0.69937 0.58931 0.0
C1768 C 0.2713 0.71803 0.57505 0.0
C1769 C 0.28908 0.7335 0.57376 0.0
C1770 C 0.30816 0.73087 0.58705 0.0
H1771 H 0.30648 0.71699 0.66974 0.0
H1772 H 0.2935 0.7233 0.64318 0.0
H1773 H 0.29756 0.69465 0.65169 0.0
H1774 H 0.29402 0.68211 0.61331 0.0
H1775 H 0.26015 0.68705 0.59053 0.0
H1776 H 0.79607 0.9176 0.68928 0.0
H1777 H 0.82325 0.88702 0.68539 0.0
H1778 H 0.85089 0.90296 0.75017 0.0
H1779 H 0.82392 0.93361 0.75427 0.0
H1780 H 0.87867 0.88961 0.6967 0.0
H1781 H 0.8217 0.83331 0.74509 0.0
H1782 H 0.81098 0.856 0.72811 0.0
H1783 H 0.8251 0.86204 0.75391 0.0
C1784 C 0.80815 0.91484 0.70256 0.0
C1785 C 0.80776 0.92795 0.72216 0.0
C1786 C 0.82367 0.89741 0.70026 0.0
C1787 C 0.83897 0.89285 0.7175 0.0
C1788 C 0.83919 0.90636 0.73669 0.0
H1789 H 0.946 0.7965 0.73651 0.0
H1790 H 0.92415 0.831 0.73222 0.0
C1791 C 0.82374 0.92381 0.739 0.0
C1792 C 0.85346 0.87284 0.71635 0.0
H1793 H 0.85662 0.81864 0.73421 0.0
C1794 C 0.87392 0.87403 0.70481 0.0
C1795 C 0.84701 0.85264 0.72685 0.0
C1796 C 0.82498 0.85068 0.73918 0.0
C1797 C 0.88831 0.85538 0.7037 0.0
C1798 C 0.88204 0.83524 0.7146 0.0
C1799 C 0.86139 0.83409 0.72588 0.0
C1800 C 0.89656 0.81507 0.71481 0.0
C1801 C 0.90991 0.85727 0.69068 0.0
C1802 C 0.88833 0.7947 0.70643 0.0
C1803 C 0.90066 0.77497 0.70902 0.0
C1804 C 0.92146 0.77519 0.72013 0.0
C1805 C 0.93008 0.79578 0.72779 0.0
C1806 C 0.91767 0.81553 0.72524 0.0
H1807 H 0.90949 0.87151 0.67867 0.0
H1808 H 0.92397 0.86015 0.70252 0.0
H1809 H 0.9134 0.84158 0.68128 0.0
H1810 H 0.87205 0.79397 0.69837 0.0
H1811 H 0.89357 0.75943 0.70284 0.0
H1812 H 0.71256 0.09126 0.21823 0.0
H1813 H 0.68698 0.1232 0.2185 0.0
H1814 H 0.6313 0.07911 0.20474 0.0
H1815 H 0.65674 0.04686 0.20488 0.0
H1816 H 0.65794 0.1398 0.18594 0.0
H1817 H 0.61129 0.11152 0.26162 0.0
H1818 H 0.63756 0.09907 0.25317 0.0
H1819 H 0.61206 0.09188 0.23882 0.0
C1820 C 0.69489 0.08831 0.21517 0.0
C1821 C 0.68665 0.06647 0.21175 0.0
C1822 C 0.6803 0.10661 0.2153 0.0
C1823 C 0.65721 0.10347 0.21202 0.0
C1824 C 0.649 0.08182 0.2078 0.0
H1825 H 0.55016 0.20338 0.22672 0.0
H1826 H 0.57045 0.1687 0.21792 0.0
C1827 C 0.66358 0.06344 0.20777 0.0
C1828 C 0.64185 0.12293 0.21351 0.0
H1829 H 0.59959 0.14533 0.24496 0.0
C1830 C 0.64508 0.14097 0.19874 0.0
C1831 C 0.62505 0.12436 0.2302 0.0
C1832 C 0.62131 0.10579 0.247 0.0
C1833 C 0.63214 0.16055 0.20039 0.0
C1834 C 0.61581 0.16225 0.21752 0.0
C1835 C 0.6121 0.14395 0.23184 0.0
C1836 C 0.60344 0.18336 0.22182 0.0
C1837 C 0.63612 0.17922 0.18378 0.0
C1838 C 0.61526 0.20298 0.22717 0.0
C1839 C 0.60378 0.22275 0.23208 0.0
C1840 C 0.58019 0.22325 0.23204 0.0
C1841 C 0.56833 0.20354 0.22683 0.0
C1842 C 0.57989 0.18374 0.2218 0.0
H1843 H 0.64355 0.17279 0.16797 0.0
H1844 H 0.6203 0.1882 0.17976 0.0
H1845 H 0.64811 0.19145 0.19108 0.0
H1846 H 0.63342 0.20292 0.22791 0.0
H1847 H 0.61344 0.23756 0.23623 0.0
H1848 H 0.44345 0.70135 0.24888 0.0
H1849 H 0.421 0.6672 0.25361 0.0
H1850 H 0.37714 0.70216 0.2992 0.0
H1851 H 0.39905 0.73639 0.29416 0.0
H1852 H 0.40916 0.64126 0.29024 0.0
H1853 H 0.33359 0.67996 0.25208 0.0
H1854 H 0.36089 0.69295 0.25078 0.0
H1855 H 0.34415 0.69516 0.27577 0.0
C1856 C 0.42911 0.70171 0.26003 0.0
C1857 C 0.42286 0.72167 0.27092 0.0
C1858 C 0.41631 0.68218 0.26272 0.0
C1859 C 0.39709 0.68227 0.27635 0.0
C1860 C 0.39153 0.70186 0.28812 0.0
H1861 H 0.29189 0.58452 0.30336 0.0
H1862 H 0.31831 0.61586 0.30612 0.0
C1863 C 0.40417 0.7214 0.2853 0.0
C1864 C 0.38246 0.66215 0.27776 0.0
H1865 H 0.3289 0.64401 0.26829 0.0
C1866 C 0.39163 0.64183 0.2854 0.0
C1867 C 0.35957 0.66291 0.27138 0.0
C1868 C 0.34899 0.68384 0.26184 0.0
C1869 C 0.37844 0.62234 0.28709 0.0
C1870 C 0.35559 0.62319 0.2808 0.0
C1871 C 0.3464 0.64349 0.27328 0.0
C1872 C 0.34101 0.60305 0.28092 0.0
C1873 C 0.38894 0.60104 0.29578 0.0
C1874 C 0.34514 0.5854 0.26595 0.0
C1875 C 0.33003 0.56754 0.26423 0.0
C1876 C 0.31051 0.56701 0.27746 0.0
C1877 C 0.3068 0.58436 0.29299 0.0
C1878 C 0.32185 0.6023 0.29457 0.0
H1879 H 0.40492 0.60436 0.30477 0.0
H1880 H 0.37728 0.59214 0.30727 0.0
H1881 H 0.3926 0.58975 0.28147 0.0
H1882 H 0.35964 0.58583 0.25501 0.0
H1883 H 0.33337 0.55446 0.2521 0.0
H1884 H 0.10511 0.26077 0.80442 0.0
H1885 H 0.1261 0.29558 0.8104 0.0
H1886 H 0.08144 0.33022 0.76521 0.0
H1887 H 0.05997 0.29594 0.75993 0.0
H1888 H 0.14912 0.31729 0.78019 0.0
H1889 H 0.08573 0.37613 0.81307 0.0
H1890 H 0.08078 0.3463 0.81174 0.0
H1891 H 0.07621 0.36373 0.78745 0.0
C1892 C 0.09947 0.27595 0.7962 0.0
C1893 C 0.08084 0.27558 0.78175 0.0
C1894 C 0.11149 0.29583 0.7996 0.0
C1895 C 0.10519 0.31568 0.78853 0.0
C1896 C 0.08627 0.3154 0.77452 0.0
H1897 H 0.16877 0.43537 0.74316 0.0
H1898 H 0.14405 0.40365 0.75156 0.0
C1899 C 0.07408 0.29566 0.77137 0.0
C1900 C 0.11965 0.33598 0.78962 0.0
H1901 H 0.11821 0.39301 0.79533 0.0
C1902 C 0.14243 0.33377 0.78395 0.0
C1903 C 0.11098 0.35755 0.79452 0.0
C1904 C 0.08713 0.36102 0.80226 0.0
C1905 C 0.15645 0.35257 0.78204 0.0
C1906 C 0.14747 0.37415 0.78589 0.0
C1907 C 0.12494 0.3764 0.79223 0.0
C1908 C 0.16108 0.39456 0.78224 0.0
C1909 C 0.18059 0.34939 0.77508 0.0
C1910 C 0.17846 0.40017 0.79703 0.0
C1911 C 0.19256 0.41833 0.79235 0.0
C1912 C 0.18955 0.43108 0.77271 0.0
C1913 C 0.17159 0.42585 0.75836 0.0
C1914 C 0.15743 0.40778 0.76314 0.0
H1915 H 0.18424 0.33181 0.77015 0.0
H1916 H 0.18472 0.36063 0.76081 0.0
H1917 H 0.19177 0.35394 0.78924 0.0
H1918 H 0.18143 0.39019 0.81191 0.0
H1919 H 0.20623 0.42191 0.80376 0.0
H1920 H 0.68813 0.80011 0.91657 0.0
H1921 H 0.68405 0.82796 0.88669 0.0
H1922 H 0.75306 0.84784 0.89567 0.0
H1923 H 0.75707 0.82063 0.92595 0.0
H1924 H 0.72641 0.88371 0.8875 0.0
H1925 H 0.70986 0.81646 0.82527 0.0
H1926 H 0.6901 0.81749 0.84794 0.0
H1927 H 0.71894 0.81052 0.85345 0.0
C1928 C 0.70236 0.81059 0.91234 0.0
C1929 C 0.72302 0.80795 0.92343 0.0
C1930 C 0.70003 0.82641 0.89518 0.0
C1931 C 0.7184 0.83961 0.88858 0.0
C1932 C 0.73869 0.83775 0.90038 0.0
H1933 H 0.75199 0.89155 0.7606 0.0
H1934 H 0.74574 0.87112 0.79537 0.0
C1935 C 0.74097 0.82212 0.91767 0.0
C1936 C 0.71712 0.85442 0.86862 0.0
H1937 H 0.70983 0.85349 0.81192 0.0
C1938 C 0.72268 0.87719 0.87095 0.0
C1939 C 0.71244 0.84578 0.84704 0.0
C1940 C 0.7077 0.8212 0.84314 0.0
C1941 C 0.72438 0.89141 0.85223 0.0
C1942 C 0.71973 0.88275 0.83062 0.0
C1943 C 0.71336 0.86016 0.82846 0.0
C1944 C 0.72345 0.89593 0.80977 0.0
C1945 C 0.73222 0.91522 0.85576 0.0
C1946 C 0.71306 0.9168 0.80615 0.0
C1947 C 0.7171 0.92885 0.78636 0.0
C1948 C 0.73102 0.91984 0.76963 0.0
C1949 C 0.74102 0.89882 0.77312 0.0
C1950 C 0.73744 0.88711 0.79302 0.0
H1951 H 0.74046 0.91741 0.87232 0.0
H1952 H 0.74421 0.92039 0.84249 0.0
H1953 H 0.71754 0.92664 0.85516 0.0
H1954 H 0.70171 0.92371 0.8185 0.0
H1955 H 0.70905 0.94495 0.78396 0.0
H1956 H 0.76519 0.04499 0.29409 0.0
H1957 H 0.77262 0.06713 0.32794 0.0
H1958 H 0.79352 0.12297 0.28702 0.0
H1959 H 0.78601 0.10121 0.25324 0.0
H1960 H 0.81247 0.09126 0.34353 0.0
H1961 H 0.7402 0.14705 0.32468 0.0
H1962 H 0.74404 0.12026 0.31114 0.0
H1963 H 0.76012 0.14418 0.30228 0.0
C1964 C 0.77162 0.06189 0.29232 0.0
C1965 C 0.77474 0.07145 0.27099 0.0
C1966 C 0.77587 0.07448 0.31165 0.0
C1967 C 0.78325 0.09676 0.30989 0.0
C1968 C 0.78747 0.10591 0.28867 0.0
H1969 H 0.79737 0.20809 0.4011 0.0
H1970 H 0.7995 0.18277 0.36901 0.0
C1971 C 0.7832 0.09341 0.2694 0.0
C1972 C 0.78536 0.11095 0.33007 0.0
H1973 H 0.76352 0.15759 0.35488 0.0
C1974 C 0.80176 0.10573 0.34611 0.0
C1975 C 0.7713 0.12976 0.33332 0.0
C1976 C 0.75278 0.1356 0.31707 0.0
C1977 C 0.80481 0.11923 0.36517 0.0
C1978 C 0.79082 0.13812 0.36831 0.0
C1979 C 0.77434 0.14319 0.35231 0.0
C1980 C 0.7925 0.15278 0.38823 0.0
C1981 C 0.82324 0.11345 0.38151 0.0
C1982 C 0.78819 0.14424 0.40972 0.0
C1983 C 0.78705 0.15866 0.42812 0.0
C1984 C 0.78991 0.18189 0.42526 0.0
C1985 C 0.79496 0.19029 0.40382 0.0
C1986 C 0.79621 0.17585 0.38548 0.0
H1987 H 0.83608 0.10237 0.3738 0.0
H1988 H 0.83162 0.12883 0.38783 0.0
H1989 H 0.81589 0.10445 0.39605 0.0
H1990 H 0.7848 0.12656 0.41212 0.0
H1991 H 0.78303 0.1517 0.44441 0.0
H1992 H 0.18539 0.66465 0.06283 0.0
H1993 H 0.18397 0.6379 0.09396 0.0
H1994 H 0.21355 0.68726 0.13772 0.0
H1995 H 0.21484 0.71411 0.10691 0.0
H1996 H 0.22288 0.62344 0.11644 0.0
H1997 H 0.16234 0.66155 0.17564 0.0
H1998 H 0.16366 0.66936 0.14641 0.0
H1999 H 0.1834 0.68084 0.1661 0.0
C2000 C 0.19113 0.66997 0.07921 0.0
C2001 C 0.20035 0.69143 0.0824 0.0
C2002 C 0.19034 0.65466 0.09693 0.0
C2003 C 0.19848 0.6607 0.11813 0.0
C2004 C 0.2068 0.68242 0.12158 0.0
H2005 H 0.23947 0.60772 0.2429 0.0
H2006 H 0.22851 0.62919 0.20993 0.0
C2007 C 0.20766 0.69769 0.1039 0.0
C2008 C 0.20049 0.64378 0.13612 0.0
H2009 H 0.18756 0.63416 0.19091 0.0
C2010 C 0.21487 0.62548 0.13264 0.0
C2011 C 0.19005 0.64663 0.15716 0.0
C2012 C 0.17383 0.66555 0.16153 0.0
C2013 C 0.22015 0.61063 0.1501 0.0
C2014 C 0.21031 0.61394 0.17142 0.0
C2015 C 0.19514 0.63169 0.17457 0.0
C2016 C 0.21683 0.60041 0.19118 0.0
C2017 C 0.23714 0.59234 0.14588 0.0
C2018 C 0.21387 0.57704 0.19161 0.0
C2019 C 0.22043 0.56462 0.21041 0.0
C2020 C 0.22965 0.57547 0.22918 0.0
C2021 C 0.23231 0.59888 0.22876 0.0
C2022 C 0.22603 0.61119 0.20993 0.0
H2023 H 0.24684 0.59532 0.13025 0.0
H2024 H 0.2491 0.59094 0.16008 0.0
H2025 H 0.22829 0.57607 0.14412 0.0
H2026 H 0.20636 0.56844 0.17751 0.0
H2027 H 0.21803 0.54662 0.21036 0.0
H2028 H 0.27345 0.45115 0.70156 0.0
H2029 H 0.28002 0.42836 0.66797 0.0
H2030 H 0.27171 0.3681 0.707 0.0
H2031 H 0.26528 0.39057 0.74062 0.0
H2032 H 0.3136 0.38724 0.66198 0.0
H2033 H 0.22196 0.37082 0.65363 0.0
H2034 H 0.23282 0.39491 0.66843 0.0
H2035 H 0.23426 0.36763 0.68102 0.0
C2036 C 0.27327 0.43305 0.70304 0.0
C2037 C 0.2687 0.42268 0.72373 0.0
C2038 C 0.27709 0.42009 0.68388 0.0
C2039 C 0.27625 0.39663 0.68511 0.0
C2040 C 0.2724 0.38622 0.7058 0.0
H2041 H 0.30339 0.29004 0.59065 0.0
H2042 H 0.30517 0.31676 0.62164 0.0
C2043 C 0.26871 0.39911 0.72497 0.0
C2044 C 0.27785 0.38296 0.66455 0.0
H2045 H 0.246 0.35183 0.62874 0.0
C2046 C 0.29887 0.37955 0.65458 0.0
C2047 C 0.25853 0.37316 0.65498 0.0
C2048 C 0.23553 0.37683 0.66489 0.0
C2049 C 0.30111 0.36619 0.6353 0.0
C2050 C 0.28182 0.35593 0.626 0.0
C2051 C 0.26077 0.35971 0.63587 0.0
C2052 C 0.28285 0.34091 0.60624 0.0
C2053 C 0.32403 0.36337 0.62496 0.0
C2054 C 0.26965 0.34554 0.58732 0.0
C2055 C 0.26835 0.33017 0.56972 0.0
C2056 C 0.28025 0.30986 0.57071 0.0
C2057 C 0.29412 0.3056 0.58931 0.0
C2058 C 0.29527 0.32093 0.607 0.0
H2059 H 0.33561 0.37706 0.63005 0.0
H2060 H 0.33138 0.34726 0.6307 0.0
H2061 H 0.323 0.363 0.60638 0.0
H2062 H 0.25989 0.36084 0.58642 0.0
H2063 H 0.25761 0.33399 0.55559 0.0
H2064 H 0.9438 0.74051 0.83327 0.0
H2065 H 0.91378 0.73628 0.86094 0.0
H2066 H 0.87309 0.70226 0.81173 0.0
H2067 H 0.90335 0.70561 0.78437 0.0
H2068 H 0.87389 0.75418 0.8593 0.0
H2069 H 0.86253 0.66233 0.86407 0.0
H2070 H 0.88656 0.67493 0.85064 0.0
H2071 H 0.86039 0.67211 0.83576 0.0
C2072 C 0.92859 0.73179 0.8285 0.0
C2073 C 0.92593 0.72336 0.80668 0.0
C2074 C 0.91145 0.72937 0.84431 0.0
C2075 C 0.89126 0.71864 0.83858 0.0
C2076 C 0.88872 0.70997 0.81684 0.0
H2077 H 0.75618 0.71702 0.88586 0.0
H2078 H 0.79189 0.71253 0.86624 0.0
C2079 C 0.90599 0.71206 0.80113 0.0
C2080 C 0.87214 0.7184 0.85458 0.0
H2081 H 0.83168 0.68481 0.87748 0.0
C2082 C 0.86492 0.73894 0.86358 0.0
C2083 C 0.86038 0.69852 0.86018 0.0
C2084 C 0.86802 0.67572 0.85233 0.0
C2085 C 0.84581 0.74028 0.87724 0.0
C2086 C 0.83362 0.72054 0.88212 0.0
C2087 C 0.84107 0.69992 0.87362 0.0
C2088 C 0.81232 0.72132 0.89486 0.0
C2089 C 0.83827 0.76292 0.88564 0.0
C2090 C 0.81205 0.72727 0.91761 0.0
C2091 C 0.79163 0.72982 0.92892 0.0
C2092 C 0.77117 0.72652 0.91762 0.0
C2093 C 0.77161 0.7198 0.89504 0.0
C2094 C 0.792 0.71716 0.8838 0.0
H2095 H 0.84747 0.7769 0.87744 0.0
H2096 H 0.82002 0.76523 0.88271 0.0
H2097 H 0.84127 0.76396 0.90397 0.0
H2098 H 0.82761 0.73034 0.92647 0.0
H2099 H 0.79188 0.73496 0.94632 0.0
H2100 H 0.29781 0.76015 0.05313 0.0
H2101 H 0.33155 0.76797 0.075 0.0
H2102 H 0.29265 0.80805 0.12089 0.0
H2103 H 0.25866 0.79985 0.09945 0.0
H2104 H 0.35473 0.80558 0.09012 0.0
H2105 H 0.31662 0.75785 0.16059 0.0
H2106 H 0.30454 0.75822 0.1329 0.0
H2107 H 0.30052 0.7816 0.1515 0.0
C2108 C 0.29646 0.77094 0.06766 0.0
C2109 C 0.27548 0.77899 0.07484 0.0
C2110 C 0.31579 0.77542 0.08012 0.0
C2111 C 0.31447 0.7881 0.09985 0.0
C2112 C 0.2939 0.79775 0.10599 0.0
H2113 H 0.41154 0.80387 0.20753 0.0
H2114 H 0.38075 0.81066 0.18135 0.0
C2115 C 0.27452 0.79312 0.09367 0.0
C2116 C 0.33411 0.78939 0.11498 0.0
H2117 H 0.3524 0.7733 0.16675 0.0
C2118 C 0.35422 0.79866 0.10692 0.0
C2119 C 0.33341 0.7801 0.13682 0.0
C2120 C 0.31271 0.76869 0.14595 0.0
C2121 C 0.37369 0.79887 0.12019 0.0
C2122 C 0.37293 0.78951 0.14192 0.0
C2123 C 0.35278 0.78061 0.1501 0.0
C2124 C 0.39306 0.78766 0.15621 0.0
C2125 C 0.39494 0.80903 0.11097 0.0
C2126 C 0.41021 0.77258 0.15057 0.0
C2127 C 0.42775 0.76849 0.16556 0.0
C2128 C 0.42837 0.77944 0.18641 0.0
C2129 C 0.41157 0.79517 0.1916 0.0
C2130 C 0.39397 0.79911 0.17668 0.0
H2131 H 0.39165 0.81958 0.09598 0.0
H2132 H 0.40342 0.81939 0.12391 0.0
H2133 H 0.40662 0.79539 0.10608 0.0
H2134 H 0.40955 0.76333 0.13497 0.0
H2135 H 0.44044 0.75631 0.16107 0.0
H2136 H 0.24192 0.18913 0.58851 0.0
H2137 H 0.20832 0.184 0.6114 0.0
H2138 H 0.17709 0.2403 0.57844 0.0
H2139 H 0.21045 0.24534 0.5552 0.0
H2140 H 0.19323 0.21534 0.64072 0.0
H2141 H 0.12614 0.19515 0.57978 0.0
H2142 H 0.15558 0.19333 0.57282 0.0
H2143 H 0.14146 0.22 0.57247 0.0
C2144 C 0.22774 0.20017 0.58581 0.0
C2145 C 0.2289 0.21771 0.57009 0.0
C2146 C 0.20855 0.19718 0.59891 0.0
C2147 C 0.19012 0.21161 0.59648 0.0
C2148 C 0.19091 0.22865 0.58026 0.0
H2149 H 0.07603 0.25303 0.67126 0.0
H2150 H 0.10545 0.24566 0.64382 0.0
C2151 C 0.21007 0.2316 0.56707 0.0
C2152 C 0.1712 0.21042 0.61253 0.0
H2153 H 0.1141 0.20751 0.61615 0.0
C2154 C 0.17595 0.21325 0.6354 0.0
C2155 C 0.14869 0.20778 0.60552 0.0
C2156 C 0.14265 0.20367 0.58132 0.0
C2157 C 0.15874 0.21445 0.65136 0.0
C2158 C 0.1362 0.21242 0.64427 0.0
C2159 C 0.13144 0.20902 0.62149 0.0
C2160 C 0.11736 0.2155 0.66007 0.0
C2161 C 0.16474 0.21892 0.67553 0.0
C2162 C 0.11407 0.20069 0.67807 0.0
C2163 C 0.0973 0.20491 0.69391 0.0
C2164 C 0.08354 0.22396 0.69188 0.0
C2165 C 0.08644 0.2383 0.6734 0.0
C2166 C 0.10317 0.23407 0.65763 0.0
H2167 H 0.18248 0.22433 0.67747 0.0
H2168 H 0.15368 0.23206 0.68272 0.0
H2169 H 0.16234 0.20334 0.68543 0.0
H2170 H 0.12468 0.18608 0.68004 0.0
H2171 H 0.09535 0.19345 0.70787 0.0
H2172 H 0.59322 0.2934 0.28776 0.0
H2173 H 0.6248 0.29618 0.31363 0.0
H2174 H 0.58312 0.27125 0.36725 0.0
H2175 H 0.55158 0.26758 0.34121 0.0
H2176 H 0.63361 0.31775 0.35234 0.0
H2177 H 0.63296 0.22575 0.36656 0.0
H2178 H 0.61611 0.23898 0.34525 0.0
H2179 H 0.60706 0.2391 0.37402 0.0
C2180 C 0.59068 0.2887 0.30511 0.0
C2181 C 0.57001 0.27991 0.3124 0.0
C2182 C 0.60876 0.29033 0.31988 0.0
C2183 C 0.60647 0.2834 0.34223 0.0
C2184 C 0.58542 0.27607 0.34991 0.0
H2185 H 0.70466 0.264 0.44806 0.0
H2186 H 0.67002 0.2722 0.42764 0.0
C2187 C 0.5674 0.27409 0.33506 0.0
C2188 C 0.62643 0.28263 0.35701 0.0
H2189 H 0.65868 0.24687 0.38798 0.0
C2190 C 0.63906 0.30228 0.3602 0.0
C2191 C 0.63371 0.26234 0.36699 0.0
C2192 C 0.62191 0.2403 0.36288 0.0
C2193 C 0.65865 0.30219 0.3733 0.0
C2194 C 0.66568 0.28197 0.38343 0.0
C2195 C 0.65301 0.26241 0.38038 0.0
C2196 C 0.6867 0.28025 0.39647 0.0
C2197 C 0.67169 0.32367 0.37624 0.0
C2198 C 0.70751 0.28234 0.38572 0.0
C2199 C 0.72733 0.27756 0.39729 0.0
C2200 C 0.72663 0.27053 0.41979 0.0
C2201 C 0.70578 0.26934 0.43075 0.0
C2202 C 0.68597 0.27404 0.41913 0.0
H2203 H 0.66157 0.33861 0.3716 0.0
H2204 H 0.67747 0.3255 0.39384 0.0
H2205 H 0.68675 0.32324 0.36531 0.0
H2206 H 0.70838 0.28674 0.36813 0.0
H2207 H 0.74311 0.27865 0.38835 0.0
H2208 H 0.9813 0.3058 0.18366 0.0
H2209 H 0.95588 0.29394 0.15408 0.0
H2210 H 0.94885 0.2292 0.18547 0.0
H2211 H 0.97456 0.24098 0.21559 0.0
H2212 H 0.95668 0.23649 0.13069 0.0
H2213 H 0.8855 0.27929 0.17339 0.0
H2214 H 0.91216 0.29352 0.17307 0.0
H2215 H 0.90915 0.26794 0.1886 0.0
C2216 C 0.97455 0.28894 0.18429 0.0
C2217 C 0.97972 0.27439 0.20213 0.0
C2218 C 0.9601 0.28221 0.16731 0.0
C2219 C 0.95051 0.26083 0.16778 0.0
C2220 C 0.95622 0.2458 0.18496 0.0
H2221 H 0.83268 0.23273 0.08715 0.0
H2222 H 0.86085 0.23252 0.11678 0.0
C2223 C 0.97085 0.25253 0.20208 0.0
C2224 C 0.9334 0.25517 0.15093 0.0
H2225 H 0.87987 0.26821 0.1358 0.0
C2226 C 0.93974 0.24304 0.13186 0.0
C2227 C 0.91146 0.26386 0.15266 0.0
C2228 C 0.90397 0.2768 0.17306 0.0
C2229 C 0.92469 0.23986 0.11404 0.0
C2230 C 0.903 0.24945 0.11532 0.0
C2231 C 0.89653 0.26095 0.13479 0.0
C2232 C 0.88672 0.24812 0.09665 0.0
C2233 C 0.93218 0.22635 0.09404 0.0
C2234 C 0.89191 0.257 0.07546 0.0
C2235 C 0.87586 0.25697 0.05837 0.0
C2236 C 0.85426 0.24845 0.06238 0.0
C2237 C 0.84915 0.23954 0.08359 0.0
C2238 C 0.86524 0.23935 0.10053 0.0
H2239 H 0.94611 0.21478 0.09845 0.0
H2240 H 0.91811 0.21639 0.08698 0.0
H2241 H 0.93838 0.23792 0.08084 0.0
H2242 H 0.90819 0.26442 0.07229 0.0
H2243 H 0.88019 0.26409 0.04223 0.0
H2244 H 0.61564 0.7365 0.53809 0.0
H2245 H 0.58958 0.73956 0.56962 0.0
H2246 H 0.64526 0.73948 0.61578 0.0
H2247 H 0.6714 0.73602 0.58447 0.0
H2248 H 0.61202 0.71036 0.62785 0.0
H2249 H 0.57596 0.79394 0.60893 0.0
H2250 H 0.57455 0.77485 0.58572 0.0
H2251 H 0.60145 0.78384 0.59602 0.0
C2252 C 0.62233 0.73711 0.55495 0.0
C2253 C 0.64558 0.736 0.55879 0.0
C2254 C 0.60744 0.73912 0.57293 0.0
C2255 C 0.61554 0.74026 0.59498 0.0
C2256 C 0.6387 0.73887 0.59886 0.0
H2257 H 0.53496 0.74919 0.71895 0.0
H2258 H 0.56352 0.75899 0.69068 0.0
C2259 C 0.65359 0.73679 0.58094 0.0
C2260 C 0.59979 0.74146 0.61411 0.0
H2261 H 0.55583 0.77131 0.63558 0.0
C2262 C 0.60001 0.72389 0.62975 0.0
C2263 C 0.58425 0.75923 0.61665 0.0
C2264 C 0.58413 0.77916 0.60106 0.0
C2265 C 0.58438 0.72307 0.64725 0.0
C2266 C 0.56811 0.74018 0.64906 0.0
C2267 C 0.5684 0.75825 0.63405 0.0
C2268 C 0.54928 0.73787 0.66488 0.0
C2269 C 0.58471 0.70343 0.66322 0.0
C2270 C 0.53165 0.72344 0.6593 0.0
C2271 C 0.5156 0.7178 0.67524 0.0
C2272 C 0.51683 0.72657 0.69706 0.0
C2273 C 0.53362 0.74229 0.70223 0.0
C2274 C 0.5499 0.74784 0.68617 0.0
H2275 H 0.60044 0.69352 0.6618 0.0
H2276 H 0.58286 0.7093 0.68077 0.0
H2277 H 0.57033 0.69221 0.65946 0.0
H2278 H 0.53096 0.71565 0.64291 0.0
H2279 H 0.5027 0.7058 0.67074 0.0
H2280 H 0.38266 0.26406 0.95542 0.0
H2281 H 0.41 0.26606 0.92494 0.0
H2282 H 0.36461 0.22965 0.88194 0.0
H2283 H 0.33687 0.22835 0.91208 0.0
H2284 H 0.4316 0.23486 0.90335 0.0
H2285 H 0.38015 0.281 0.84171 0.0
H2286 H 0.37191 0.27813 0.87068 0.0
H2287 H 0.36605 0.25609 0.85087 0.0
C2288 C 0.37852 0.25646 0.93947 0.0
C2289 C 0.35757 0.24619 0.93606 0.0
C2290 C 0.39411 0.25773 0.92203 0.0
C2291 C 0.3891 0.24862 0.90093 0.0
C2292 C 0.36851 0.23758 0.89779 0.0
H2293 H 0.46788 0.18941 0.80424 0.0
H2294 H 0.44352 0.20288 0.83377 0.0
C2295 C 0.35278 0.2366 0.91511 0.0
C2296 C 0.40587 0.2495 0.88259 0.0
H2297 H 0.41175 0.26015 0.82661 0.0
C2298 C 0.42737 0.24086 0.88671 0.0
C2299 C 0.40059 0.25776 0.86094 0.0
C2300 C 0.37849 0.269 0.85586 0.0
C2301 C 0.44313 0.23877 0.86944 0.0
C2302 C 0.43708 0.24507 0.84742 0.0
C2303 C 0.41622 0.25516 0.84351 0.0
C2304 C 0.4508 0.23794 0.82811 0.0
C2305 C 0.46585 0.22891 0.87467 0.0
C2306 C 0.46234 0.25336 0.81452 0.0
C2307 C 0.47637 0.24566 0.79724 0.0
C2308 C 0.47892 0.22251 0.7935 0.0
C2309 C 0.46658 0.20735 0.80674 0.0
C2310 C 0.45263 0.21499 0.82371 0.0
H2311 H 0.47025 0.23105 0.89263 0.0
H2312 H 0.4656 0.21067 0.87097 0.0
H2313 H 0.47913 0.23678 0.86423 0.0
H2314 H 0.46094 0.27119 0.81765 0.0
H2315 H 0.48563 0.25771 0.78728 0.0
H2316 H 0.11522 0.7653 0.45364 0.0
H2317 H 0.08787 0.76962 0.42325 0.0
H2318 H 0.13785 0.74891 0.37528 0.0
H2319 H 0.16527 0.74485 0.40534 0.0
H2320 H 0.11522 0.78747 0.36272 0.0
H2321 H 0.0559 0.72005 0.38759 0.0
H2322 H 0.06218 0.73994 0.40931 0.0
H2323 H 0.08399 0.72205 0.39874 0.0
C2324 C 0.12034 0.7616 0.43663 0.0
C2325 C 0.14242 0.75477 0.4319 0.0
C2326 C 0.10467 0.76393 0.41932 0.0
C2327 C 0.11079 0.75932 0.39707 0.0
C2328 C 0.13278 0.7525 0.39235 0.0
H2329 H 0.0208 0.74387 0.2832 0.0
H2330 H 0.04825 0.73805 0.31326 0.0
C2331 C 0.14844 0.7502 0.40958 0.0
C2332 C 0.09459 0.76235 0.37849 0.0
H2333 H 0.04442 0.74396 0.35794 0.0
C2334 C 0.09975 0.77793 0.36163 0.0
C2335 C 0.07463 0.74963 0.37696 0.0
C2336 C 0.06886 0.73182 0.39398 0.0
C2337 C 0.08534 0.78136 0.34336 0.0
C2338 C 0.06497 0.76921 0.34221 0.0
C2339 C 0.05996 0.75338 0.35893 0.0
C2340 C 0.04856 0.77276 0.32388 0.0
C2341 C 0.09233 0.79768 0.3253 0.0
C2342 C 0.0395 0.79413 0.32002 0.0
C2343 C 0.02412 0.79753 0.30273 0.0
C2344 C 0.01713 0.77953 0.28921 0.0
C2345 C 0.02591 0.75805 0.29332 0.0
C2346 C 0.04154 0.75471 0.31049 0.0
H2347 H 0.11081 0.80018 0.3251 0.0
H2348 H 0.08694 0.79186 0.30847 0.0
H2349 H 0.08444 0.81421 0.32858 0.0
H2350 H 0.04417 0.80817 0.33052 0.0
H2351 H 0.01744 0.81424 0.30022 0.0
H2352 H 0.19072 0.97296 0.31232 0.0
H2353 H 0.16122 0.94754 0.30057 0.0
H2354 H 0.18231 0.9543 0.23175 0.0
H2355 H 0.21249 0.97997 0.24351 0.0
H2356 H 0.12661 0.95916 0.2697 0.0
H2357 H 0.17702 0.88499 0.24333 0.0
H2358 H 0.18846 0.90661 0.26117 0.0
H2359 H 0.18426 0.91203 0.23192 0.0
C2360 C 0.18923 0.96909 0.29465 0.0
C2361 C 0.20385 0.97861 0.27879 0.0
C2362 C 0.17235 0.95451 0.28799 0.0
C2363 C 0.16963 0.94911 0.26535 0.0
C2364 C 0.18433 0.9582 0.24936 0.0
H2365 H 0.04412 0.8803 0.23111 0.0
H2366 H 0.075 0.90724 0.23089 0.0
C2367 C 0.20146 0.97285 0.25607 0.0
C2368 C 0.1507 0.93452 0.25901 0.0
H2369 H 0.13782 0.88086 0.24412 0.0
C2370 C 0.12895 0.94213 0.26377 0.0
C2371 C 0.15401 0.91232 0.25152 0.0
C2372 C 0.17717 0.90331 0.24675 0.0
C2373 C 0.11041 0.92778 0.26226 0.0
C2374 C 0.11373 0.90539 0.25521 0.0
C2375 C 0.13539 0.89805 0.24954 0.0
C2376 C 0.09516 0.88898 0.25492 0.0
C2377 C 0.0877 0.93642 0.26943 0.0
C2378 C 0.09649 0.86957 0.26818 0.0
C2379 C 0.07901 0.854 0.26812 0.0
C2380 C 0.05987 0.8577 0.25491 0.0
C2381 C 0.05852 0.87721 0.24176 0.0
C2382 C 0.07614 0.89261 0.24159 0.0
H2383 H 0.08908 0.952 0.27954 0.0
H2384 H 0.07757 0.94033 0.25433 0.0
H2385 H 0.07855 0.92365 0.27944 0.0
H2386 H 0.11104 0.8665 0.27862 0.0
H2387 H 0.0805 0.83906 0.27836 0.0
H2388 H 0.45639 0.12041 0.72798 0.0
H2389 H 0.42342 0.09596 0.72458 0.0
H2390 H 0.39251 0.13003 0.78042 0.0
H2391 H 0.42473 0.1552 0.78294 0.0
H2392 H 0.40513 0.06681 0.75117 0.0
H2393 H 0.3423 0.13337 0.73726 0.0
H2394 H 0.37203 0.139 0.73661 0.0
H2395 H 0.3571 0.13821 0.76291 0.0
C2396 C 0.44252 0.12256 0.73951 0.0
C2397 C 0.44293 0.13968 0.75564 0.0
C2398 C 0.42367 0.10871 0.7375 0.0
C2399 C 0.40515 0.1116 0.75179 0.0
C2400 C 0.40612 0.12807 0.76858 0.0
H2401 H 0.29455 0.04085 0.80047 0.0
H2402 H 0.32453 0.06659 0.7901 0.0
C2403 C 0.42466 0.14225 0.77021 0.0
C2404 C 0.38515 0.0969 0.74985 0.0
H2405 H 0.32784 0.09768 0.75021 0.0
C2406 C 0.38825 0.07356 0.75046 0.0
C2407 C 0.36308 0.10568 0.74867 0.0
C2408 C 0.35847 0.13043 0.74607 0.0
C2409 C 0.36989 0.05886 0.75136 0.0
C2410 C 0.34795 0.06777 0.75169 0.0
C2411 C 0.34476 0.09098 0.75003 0.0
C2412 C 0.32835 0.05347 0.75656 0.0
C2413 C 0.37402 0.03396 0.75316 0.0
C2414 C 0.32024 0.03797 0.74084 0.0
C2415 C 0.30294 0.02319 0.74668 0.0
C2416 C 0.29373 0.02369 0.76839 0.0
C2417 C 0.30138 0.03991 0.78369 0.0
C2418 C 0.31848 0.05468 0.7778 0.0
H2419 H 0.39216 0.02987 0.75448 0.0
H2420 H 0.36522 0.02705 0.76804 0.0
H2421 H 0.36715 0.02545 0.73812 0.0
H2422 H 0.32763 0.03699 0.72428 0.0
H2423 H 0.29734 0.01095 0.73451 0.0
H2424 H 0.67546 0.49568 0.73867 0.0
H2425 H 0.64459 0.52159 0.74684 0.0
H2426 H 0.69159 0.57651 0.74986 0.0
H2427 H 0.72248 0.55057 0.74161 0.0
H2428 H 0.63465 0.5587 0.78013 0.0
H2429 H 0.65116 0.58523 0.69218 0.0
H2430 H 0.66247 0.55969 0.70384 0.0
H2431 H 0.67473 0.58625 0.71096 0.0
C2432 C 0.67924 0.5131 0.7422 0.0
C2433 C 0.7012 0.52123 0.73989 0.0
C2434 C 0.66165 0.52787 0.74674 0.0
C2435 C 0.66586 0.55092 0.74871 0.0
C2436 C 0.68808 0.55874 0.74837 0.0
H2437 H 0.58158 0.66715 0.73221 0.0
H2438 H 0.61235 0.64072 0.7373 0.0
C2439 C 0.70569 0.54396 0.74386 0.0
C2440 C 0.647 0.5669 0.74725 0.0
H2441 H 0.62218 0.60385 0.71133 0.0
C2442 C 0.63189 0.56866 0.76517 0.0
C2443 C 0.64341 0.57958 0.72754 0.0
C2444 C 0.65865 0.57756 0.70742 0.0
C2445 C 0.61342 0.58328 0.76405 0.0
C2446 C 0.60987 0.596 0.74432 0.0
C2447 C 0.62498 0.59409 0.72642 0.0
C2448 C 0.5909 0.61181 0.7419 0.0
C2449 C 0.59813 0.58533 0.78408 0.0
C2450 C 0.5686 0.60422 0.74242 0.0
C2451 C 0.55088 0.61933 0.73947 0.0
C2452 C 0.55523 0.64223 0.73582 0.0
C2453 C 0.57762 0.64964 0.73497 0.0
C2454 C 0.59525 0.63458 0.73795 0.0
H2455 H 0.6061 0.57869 0.79955 0.0
H2456 H 0.5933 0.60308 0.78695 0.0
H2457 H 0.58258 0.57557 0.78096 0.0
H2458 H 0.56492 0.58662 0.74493 0.0
H2459 H 0.53382 0.61311 0.74022 0.0
H2460 H 0.90908 0.32855 0.25229 0.0
H2461 H 0.87823 0.35544 0.25228 0.0
H2462 H 0.92558 0.41007 0.24976 0.0
H2463 H 0.95673 0.38321 0.25014 0.0
H2464 H 0.88891 0.41704 0.27995 0.0
H2465 H 0.86076 0.38993 0.19535 0.0
H2466 H 0.8628 0.3678 0.21568 0.0
H2467 H 0.88772 0.38223 0.20674 0.0
C2468 C 0.91299 0.34628 0.25176 0.0
C2469 C 0.93536 0.35376 0.25094 0.0
C2470 C 0.89532 0.36161 0.25177 0.0
C2471 C 0.89964 0.38469 0.25072 0.0
C2472 C 0.92193 0.39229 0.25054 0.0
H2473 H 0.82043 0.49129 0.20189 0.0
H2474 H 0.84935 0.46504 0.21363 0.0
C2475 C 0.93969 0.37694 0.25065 0.0
C2476 C 0.88089 0.40083 0.24872 0.0
H2477 H 0.8385 0.41683 0.2138 0.0
C2478 C 0.87778 0.41697 0.26557 0.0
C2479 C 0.86654 0.40071 0.22984 0.0
C2480 C 0.86966 0.38439 0.21076 0.0
C2481 C 0.8607 0.43315 0.26392 0.0
C2482 C 0.84645 0.433 0.24502 0.0
C2483 C 0.84938 0.41667 0.22838 0.0
C2484 C 0.82989 0.45092 0.24075 0.0
C2485 C 0.85839 0.45076 0.28186 0.0
C2486 C 0.80953 0.45205 0.25258 0.0
C2487 C 0.79279 0.4672 0.24588 0.0
C2488 C 0.79626 0.4811 0.22716 0.0
C2489 C 0.81713 0.48059 0.2162 0.0
C2490 C 0.83373 0.46566 0.22291 0.0
H2491 H 0.87193 0.44963 0.29461 0.0
H2492 H 0.85872 0.46774 0.27421 0.0
H2493 H 0.84196 0.44877 0.2904 0.0
H2494 H 0.80625 0.44062 0.26631 0.0
H2495 H 0.77685 0.46724 0.25459 0.0
H2496 H 0.24199 0.211 0.98388 0.0
H2497 H 0.23548 0.18281 0.95465 0.0
H2498 H 0.30677 0.17771 0.94356 0.0
H2499 H 0.31351 0.20547 0.97271 0.0
H2500 H 0.27785 0.1821 0.9034 0.0
H2501 H 0.25324 0.11422 0.96272 0.0
H2502 H 0.24001 0.14118 0.966 0.0
H2503 H 0.26946 0.13829 0.97139 0.0
C2504 C 0.25626 0.20393 0.97516 0.0
C2505 C 0.27826 0.2105 0.98063 0.0
C2506 C 0.25251 0.18784 0.95853 0.0
C2507 C 0.27068 0.17816 0.94718 0.0
C2508 C 0.29256 0.18505 0.9522 0.0
H2509 H 0.28201 0.05574 0.87138 0.0
H2510 H 0.28479 0.08633 0.89867 0.0
C2511 C 0.29634 0.20099 0.96882 0.0
C2512 C 0.26715 0.16052 0.93024 0.0
H2513 H 0.2533 0.10537 0.92431 0.0
C2514 C 0.27234 0.16533 0.90785 0.0
C2515 C 0.26033 0.13868 0.93635 0.0
C2516 C 0.25554 0.13257 0.96042 0.0
C2517 C 0.27104 0.14874 0.89128 0.0
C2518 C 0.26393 0.12688 0.8973 0.0
C2519 C 0.25864 0.12215 0.91974 0.0
C2520 C 0.26236 0.10855 0.88068 0.0
C2521 C 0.27798 0.15465 0.86767 0.0
C2522 C 0.24872 0.11084 0.86166 0.0
C2523 C 0.24755 0.09365 0.84587 0.0
C2524 C 0.25951 0.07363 0.84915 0.0
C2525 C 0.27273 0.07108 0.86845 0.0
C2526 C 0.27425 0.08848 0.88403 0.0
H2527 H 0.28894 0.16973 0.86727 0.0
H2528 H 0.28704 0.14055 0.85958 0.0
H2529 H 0.26279 0.15844 0.85761 0.0
H2530 H 0.23883 0.12586 0.8591 0.0
H2531 H 0.23683 0.09584 0.83137 0.0
H2532 H 0.7906 0.28854 0.05322 0.0
H2533 H 0.77889 0.31986 0.07645 0.0
H2534 H 0.72492 0.3343 0.03047 0.0
H2535 H 0.73673 0.30255 0.00682 0.0
H2536 H 0.75488 0.37075 0.03942 0.0
H2537 H 0.72584 0.33177 0.11834 0.0
H2538 H 0.75176 0.31992 0.10871 0.0
H2539 H 0.72676 0.31667 0.0921 0.0
C2540 C 0.7759 0.29803 0.04828 0.0
C2541 C 0.76459 0.29322 0.0282 0.0
C2542 C 0.76913 0.31583 0.06167 0.0
C2543 C 0.75091 0.32922 0.05531 0.0
C2544 C 0.73891 0.32396 0.03573 0.0
H2545 H 0.73427 0.46157 0.11944 0.0
H2546 H 0.72787 0.43024 0.09369 0.0
C2547 C 0.74558 0.30584 0.02233 0.0
C2548 C 0.74666 0.35012 0.06788 0.0
H2549 H 0.74109 0.3693 0.12137 0.0
C2550 C 0.75123 0.37061 0.05723 0.0
C2551 C 0.74203 0.34976 0.09109 0.0
C2552 C 0.73611 0.32834 0.10318 0.0
C2553 C 0.75305 0.39057 0.06956 0.0
C2554 C 0.74983 0.38993 0.09302 0.0
C2555 C 0.74379 0.36968 0.1034 0.0
C2556 C 0.75433 0.40957 0.10746 0.0
C2557 C 0.75986 0.41185 0.05767 0.0
C2558 C 0.77132 0.40829 0.12368 0.0
C2559 C 0.77489 0.42602 0.13849 0.0
C2560 C 0.76156 0.44539 0.1373 0.0
C2561 C 0.74498 0.44695 0.12059 0.0
C2562 C 0.74129 0.42908 0.10587 0.0
H2563 H 0.76548 0.40865 0.04021 0.0
H2564 H 0.74533 0.42346 0.05703 0.0
H2565 H 0.77362 0.42038 0.06688 0.0
H2566 H 0.78162 0.39338 0.1251 0.0
H2567 H 0.78782 0.42436 0.15114 0.0
H2568 H 0.71132 0.67252 0.49902 0.0
H2569 H 0.72145 0.64437 0.52704 0.0
H2570 H 0.75545 0.695 0.56581 0.0
H2571 H 0.74555 0.72341 0.53748 0.0
H2572 H 0.7716 0.63715 0.55413 0.0
H2573 H 0.69326 0.66323 0.59822 0.0
H2574 H 0.69505 0.66477 0.56807 0.0
H2575 H 0.71114 0.68373 0.58489 0.0
C2576 C 0.72145 0.67755 0.51323 0.0
C2577 C 0.72757 0.7001 0.51623 0.0
C2578 C 0.72726 0.66146 0.52915 0.0
C2579 C 0.73909 0.6677 0.54841 0.0
C2580 C 0.74641 0.68995 0.5509 0.0
H2581 H 0.74039 0.59113 0.67246 0.0
H2582 H 0.74287 0.62096 0.64455 0.0
C2583 C 0.74082 0.70609 0.53474 0.0
C2584 C 0.74107 0.65145 0.56697 0.0
H2585 H 0.71198 0.63143 0.61195 0.0
C2586 C 0.75877 0.63598 0.56697 0.0
C2587 C 0.7242 0.65005 0.58352 0.0
C2588 C 0.70476 0.66627 0.58388 0.0
C2589 C 0.75988 0.61885 0.58314 0.0
C2590 C 0.74257 0.61698 0.59929 0.0
C2591 C 0.72517 0.63284 0.59951 0.0
C2592 C 0.74193 0.59862 0.61603 0.0
C2593 C 0.77958 0.60299 0.58287 0.0
C2594 C 0.74027 0.57613 0.60924 0.0
C2595 C 0.73878 0.55897 0.62519 0.0
C2596 C 0.7388 0.56404 0.6482 0.0
C2597 C 0.7403 0.58661 0.65489 0.0
C2598 C 0.74178 0.60371 0.63896 0.0
H2599 H 0.79409 0.61021 0.57365 0.0
H2600 H 0.78499 0.59875 0.60017 0.0
H2601 H 0.77461 0.58723 0.57433 0.0
H2602 H 0.73985 0.57188 0.59161 0.0
H2603 H 0.73765 0.54177 0.61949 0.0
H2604 H 0.22782 0.77345 0.44374 0.0
H2605 H 0.23818 0.80457 0.41918 0.0
H2606 H 0.25327 0.84525 0.47705 0.0
H2607 H 0.2439 0.81363 0.50164 0.0
H2608 H 0.21225 0.8411 0.42166 0.0
H2609 H 0.30119 0.86608 0.4337 0.0
H2610 H 0.29056 0.83908 0.44243 0.0
H2611 H 0.28549 0.86356 0.45925 0.0
C2612 C 0.23432 0.78873 0.45111 0.0
C2613 C 0.23516 0.7913 0.47444 0.0
C2614 C 0.24015 0.8065 0.43713 0.0
C2615 C 0.24644 0.82724 0.44628 0.0
C2616 C 0.24889 0.82929 0.46961 0.0
H2617 H 0.24564 0.96087 0.38656 0.0
H2618 H 0.24692 0.9294 0.41301 0.0
C2619 C 0.24351 0.81127 0.48364 0.0
C2620 C 0.24644 0.84732 0.43173 0.0
H2621 H 0.27785 0.89166 0.41364 0.0
C2622 C 0.22668 0.85204 0.4198 0.0
C2623 C 0.26512 0.8618 0.42968 0.0
C2624 C 0.28686 0.85732 0.44179 0.0
C2625 C 0.22512 0.8707 0.4057 0.0
C2626 C 0.24389 0.88493 0.4033 0.0
C2627 C 0.26353 0.88059 0.41555 0.0
C2628 C 0.24357 0.90391 0.38747 0.0
C2629 C 0.20331 0.87512 0.39359 0.0
C2630 C 0.24138 0.89984 0.36445 0.0
C2631 C 0.24049 0.91767 0.34938 0.0
C2632 C 0.24197 0.93989 0.35707 0.0
C2633 C 0.24435 0.94392 0.38016 0.0
C2634 C 0.2452 0.92602 0.39526 0.0
H2635 H 0.18901 0.86624 0.40161 0.0
H2636 H 0.19951 0.89334 0.3931 0.0
H2637 H 0.20471 0.86903 0.37608 0.0
H2638 H 0.24041 0.88284 0.35814 0.0
H2639 H 0.23885 0.91398 0.33168 0.0
H2640 H 0.03004 0.75275 0.77354 0.0
H2641 H 0.05994 0.76151 0.80067 0.0
H2642 H 0.03575 0.70914 0.84424 0.0
H2643 H 0.00608 0.70036 0.81763 0.0
H2644 H 0.0544 0.76717 0.85595 0.0
H2645 H 0.10579 0.69735 0.82131 0.0
H2646 H 0.08554 0.71253 0.80461 0.0
H2647 H 0.07619 0.69234 0.82484 0.0
C2648 C 0.0309 0.74341 0.78909 0.0
C2649 C 0.01591 0.7257 0.79334 0.0
C2650 C 0.04794 0.74841 0.8045 0.0
C2651 C 0.05 0.7358 0.82425 0.0
C2652 C 0.0344 0.71894 0.829 0.0
H2653 H 0.12318 0.73437 0.94768 0.0
H2654 H 0.09521 0.73464 0.91769 0.0
C2655 C 0.01751 0.71393 0.81372 0.0
C2656 C 0.06925 0.73876 0.83944 0.0
H2657 H 0.11722 0.71251 0.85616 0.0
C2658 C 0.06836 0.7555 0.85587 0.0
C2659 C 0.08733 0.72348 0.83912 0.0
C2660 C 0.089 0.70544 0.82148 0.0
C2661 C 0.08488 0.75687 0.87259 0.0
C2662 C 0.10238 0.74081 0.87297 0.0
C2663 C 0.10368 0.72466 0.85594 0.0
C2664 C 0.11931 0.74016 0.8911 0.0
C2665 C 0.0834 0.77541 0.88972 0.0
C2666 C 0.14217 0.74216 0.88597 0.0
C2667 C 0.15821 0.74169 0.90301 0.0
C2668 C 0.15165 0.73916 0.92551 0.0
C2669 C 0.12877 0.73643 0.93054 0.0
C2670 C 0.11274 0.73684 0.91345 0.0
H2671 H 0.07323 0.78972 0.88346 0.0
H2672 H 0.07518 0.76887 0.90508 0.0
H2673 H 0.10033 0.78165 0.89435 0.0
H2674 H 0.14759 0.74447 0.86879 0.0
H2675 H 0.1757 0.74383 0.89856 0.0
H2676 H 0.46804 0.30871 0.30261 0.0
H2677 H 0.44266 0.29735 0.3325 0.0
H2678 H 0.45819 0.2279 0.31997 0.0
H2679 H 0.48397 0.23915 0.28967 0.0
H2680 H 0.40604 0.24799 0.32684 0.0
H2681 H 0.47072 0.26202 0.39258 0.0
H2682 H 0.47006 0.28157 0.36955 0.0
H2683 H 0.47767 0.25291 0.36454 0.0
C2684 C 0.46612 0.29098 0.30609 0.0
C2685 C 0.47822 0.27482 0.29392 0.0
C2686 C 0.45152 0.28455 0.32313 0.0
C2687 C 0.44873 0.26187 0.32842 0.0
C2688 C 0.46021 0.24552 0.31601 0.0
H2689 H 0.38126 0.23625 0.45646 0.0
H2690 H 0.40645 0.23184 0.42434 0.0
C2691 C 0.47489 0.25196 0.29878 0.0
C2692 C 0.43441 0.25586 0.34768 0.0
H2693 H 0.43283 0.26065 0.40455 0.0
C2694 C 0.4119 0.25026 0.34389 0.0
C2695 C 0.44226 0.25864 0.36981 0.0
C2696 C 0.46654 0.26398 0.37455 0.0
C2697 C 0.39668 0.2485 0.36178 0.0
C2698 C 0.40414 0.25313 0.38386 0.0
C2699 C 0.42701 0.25736 0.38765 0.0
C2700 C 0.38841 0.2551 0.40305 0.0
C2701 C 0.37273 0.242 0.35675 0.0
C2702 C 0.37018 0.26997 0.40197 0.0
C2703 C 0.35567 0.27233 0.42018 0.0
C2704 C 0.35945 0.2603 0.44006 0.0
C2705 C 0.37805 0.24587 0.4414 0.0
C2706 C 0.39236 0.24324 0.42302 0.0
H2707 H 0.37173 0.23141 0.34146 0.0
H2708 H 0.36503 0.23271 0.37093 0.0
H2709 H 0.36274 0.25737 0.35358 0.0
H2710 H 0.36725 0.27996 0.38709 0.0
H2711 H 0.34157 0.28371 0.41875 0.0
H2712 H 0.61609 0.73959 0.03475 0.0
H2713 H 0.58948 0.73543 0.06568 0.0
H2714 H 0.63034 0.77889 0.10661 0.0
H2715 H 0.65743 0.78243 0.07603 0.0
H2716 H 0.61588 0.74257 0.12997 0.0
H2717 H 0.54442 0.78176 0.0846 0.0
H2718 H 0.55617 0.75762 0.07104 0.0
H2719 H 0.57273 0.78266 0.07401 0.0
C2720 C 0.61927 0.74845 0.05027 0.0
C2721 C 0.63868 0.76159 0.05289 0.0
C2722 C 0.60406 0.74603 0.06794 0.0
C2723 C 0.60774 0.7571 0.08836 0.0
C2724 C 0.62716 0.77018 0.091 0.0
H2725 H 0.52495 0.80853 0.18741 0.0
H2726 H 0.54961 0.79789 0.15699 0.0
C2727 C 0.64254 0.77232 0.07348 0.0
C2728 C 0.59127 0.75555 0.10692 0.0
H2729 H 0.5376 0.7693 0.12127 0.0
C2730 C 0.59868 0.74819 0.12805 0.0
C2731 C 0.56884 0.76288 0.10434 0.0
C2732 C 0.56005 0.77186 0.08235 0.0
C2733 C 0.58453 0.7489 0.14688 0.0
C2734 C 0.56234 0.75681 0.14435 0.0
C2735 C 0.55461 0.76308 0.12304 0.0
C2736 C 0.54804 0.76232 0.16386 0.0
C2737 C 0.59373 0.74243 0.16953 0.0
C2738 C 0.53912 0.74577 0.1781 0.0
C2739 C 0.52487 0.75185 0.19585 0.0
C2740 C 0.51932 0.77451 0.19936 0.0
C2741 C 0.52864 0.79088 0.18515 0.0
C2742 C 0.5428 0.78486 0.16769 0.0
H2743 H 0.61201 0.73883 0.16896 0.0
H2744 H 0.5907 0.75609 0.1818 0.0
H2745 H 0.58491 0.72724 0.17567 0.0
H2746 H 0.54284 0.72823 0.17526 0.0
H2747 H 0.51791 0.73887 0.20649 0.0
H2748 H 0.83091 0.26263 0.59494 0.0
H2749 H 0.85809 0.25934 0.62539 0.0
H2750 H 0.9026 0.2224 0.58198 0.0
H2751 H 0.87571 0.22615 0.55118 0.0
H2752 H 0.87513 0.22216 0.64571 0.0
H2753 H 0.94338 0.27128 0.60571 0.0
H2754 H 0.91509 0.27098 0.59491 0.0
H2755 H 0.93387 0.2481 0.58907 0.0
C2756 C 0.8465 0.25382 0.59185 0.0
C2757 C 0.85127 0.24474 0.57066 0.0
C2758 C 0.862 0.25197 0.60927 0.0
C2759 C 0.88248 0.24096 0.60582 0.0
C2760 C 0.88711 0.23146 0.58481 0.0
H2761 H 0.97591 0.18837 0.70135 0.0
H2762 H 0.94576 0.1946 0.67451 0.0
C2763 C 0.8717 0.2335 0.56728 0.0
C2764 C 0.89883 0.23918 0.62437 0.0
H2765 H 0.95276 0.25149 0.63908 0.0
C2766 C 0.89206 0.22869 0.64433 0.0
C2767 C 0.9208 0.24799 0.6226 0.0
C2768 C 0.92869 0.26041 0.602 0.0
C2769 C 0.9069 0.22626 0.66239 0.0
C2770 C 0.92908 0.23434 0.66027 0.0
C2771 C 0.93571 0.24529 0.64055 0.0
C2772 C 0.94603 0.23071 0.67791 0.0
C2773 C 0.89876 0.21515 0.68363 0.0
C2774 C 0.95622 0.24901 0.6886 0.0
C2775 C 0.97344 0.24552 0.70412 0.0
C2776 C 0.98082 0.22366 0.70896 0.0
C2777 C 0.97039 0.2054 0.69829 0.0
C2778 C 0.95313 0.2089 0.68294 0.0
H2779 H 0.88015 0.21507 0.68468 0.0
H2780 H 0.90463 0.1975 0.68397 0.0
H2781 H 0.9056 0.22377 0.69864 0.0
H2782 H 0.95101 0.26599 0.68474 0.0
H2783 H 0.98122 0.25991 0.71199 0.0
H2784 H 0.77281 0.03744 0.74475 0.0
H2785 H 0.80062 0.06656 0.75417 0.0
H2786 H 0.85158 0.0295 0.71877 0.0
H2787 H 0.82418 0.00065 0.70928 0.0
H2788 H 0.85744 0.05685 0.77018 0.0
H2789 H 0.83238 0.09965 0.69091 0.0
H2790 H 0.81227 0.08481 0.70806 0.0
H2791 H 0.83241 0.06942 0.69195 0.0
C2792 C 0.79008 0.03528 0.73955 0.0
C2793 C 0.79635 0.01697 0.72612 0.0
C2794 C 0.80588 0.05188 0.74487 0.0
C2795 C 0.82801 0.05008 0.73701 0.0
C2796 C 0.83455 0.03109 0.72494 0.0
H2797 H 0.95528 0.11705 0.73791 0.0
H2798 H 0.92387 0.0906 0.73887 0.0
C2799 C 0.81886 0.0147 0.7195 0.0
C2800 C 0.84394 0.06886 0.73898 0.0
H2801 H 0.8654 0.11228 0.70858 0.0
C2802 C 0.85903 0.06924 0.75696 0.0
C2803 C 0.84586 0.08484 0.72163 0.0
C2804 C 0.82989 0.08488 0.702 0.0
C2805 C 0.8765 0.08504 0.75775 0.0
C2806 C 0.87912 0.10036 0.73978 0.0
C2807 C 0.86346 0.10041 0.72223 0.0
C2808 C 0.89817 0.11626 0.73864 0.0
C2809 C 0.89197 0.08515 0.77775 0.0
C2810 C 0.89412 0.13937 0.73712 0.0
C2811 C 0.91198 0.15448 0.73621 0.0
C2812 C 0.93428 0.14675 0.73677 0.0
C2813 C 0.93831 0.12354 0.73753 0.0
C2814 C 0.92039 0.10842 0.73836 0.0
H2815 H 0.88397 0.07724 0.7926 0.0
H2816 H 0.90732 0.07543 0.77369 0.0
H2817 H 0.89707 0.1025 0.78221 0.0
H2818 H 0.8771 0.14575 0.73705 0.0
H2819 H 0.90827 0.17225 0.73558 0.0
H2820 H 0.70072 0.95091 0.19512 0.0
H2821 H 0.66944 0.92803 0.20799 0.0
H2822 H 0.6695 0.9628 0.27128 0.0
H2823 H 0.70126 0.98607 0.25848 0.0
H2824 H 0.66591 0.90411 0.26106 0.0
H2825 H 0.60419 0.96603 0.22808 0.0
H2826 H 0.63038 0.96256 0.21332 0.0
H2827 H 0.63035 0.97452 0.24087 0.0
C2828 C 0.69428 0.95365 0.21188 0.0
C2829 C 0.70331 0.97044 0.22574 0.0
C2830 C 0.67646 0.94049 0.2192 0.0
C2831 C 0.66721 0.94388 0.24046 0.0
C2832 C 0.67656 0.96003 0.25479 0.0
H2833 H 0.53571 0.87993 0.25938 0.0
H2834 H 0.56699 0.90616 0.2645 0.0
C2835 C 0.69465 0.97322 0.24749 0.0
C2836 C 0.64692 0.93115 0.24658 0.0
H2837 H 0.59102 0.9292 0.23469 0.0
C2838 C 0.64939 0.90972 0.25586 0.0
C2839 C 0.6255 0.93865 0.23983 0.0
C2840 C 0.62222 0.96174 0.23003 0.0
C2841 C 0.63104 0.89505 0.25746 0.0
C2842 C 0.60992 0.90187 0.24893 0.0
C2843 C 0.60723 0.92389 0.24104 0.0
C2844 C 0.591 0.88594 0.24627 0.0
C2845 C 0.63462 0.87224 0.26781 0.0
C2846 C 0.59395 0.86621 0.2338 0.0
C2847 C 0.57621 0.85122 0.23096 0.0
C2848 C 0.55503 0.85586 0.24016 0.0
C2849 C 0.55184 0.87597 0.25202 0.0
C2850 C 0.56971 0.89089 0.25507 0.0
H2851 H 0.64839 0.87265 0.28035 0.0
H2852 H 0.61914 0.86599 0.2761 0.0
H2853 H 0.63951 0.86018 0.25453 0.0
H2854 H 0.60998 0.86243 0.22614 0.0
H2855 H 0.57912 0.83596 0.22155 0.0
H2856 H 0.41895 0.33648 0.22247 0.0
H2857 H 0.38991 0.36538 0.22018 0.0
H2858 H 0.42355 0.40299 0.27212 0.0
H2859 H 0.45347 0.37484 0.27314 0.0
H2860 H 0.36123 0.37704 0.2492 0.0
H2861 H 0.41127 0.45276 0.23067 0.0
H2862 H 0.4232 0.425 0.22925 0.0
H2863 H 0.42127 0.43955 0.25568 0.0
C2864 C 0.4202 0.35112 0.23315 0.0
C2865 C 0.43832 0.35367 0.24791 0.0
C2866 C 0.40368 0.36761 0.23182 0.0
C2867 C 0.40475 0.38665 0.24561 0.0
C2868 C 0.42278 0.38895 0.26065 0.0
H2869 H 0.3183 0.47831 0.30391 0.0
H2870 H 0.34776 0.45393 0.28997 0.0
C2871 C 0.43971 0.37279 0.26145 0.0
C2872 C 0.38611 0.40309 0.24553 0.0
H2873 H 0.3745 0.45911 0.24689 0.0
C2874 C 0.36411 0.39497 0.24812 0.0
C2875 C 0.38979 0.42651 0.24399 0.0
C2876 C 0.41266 0.4364 0.23949 0.0
C2877 C 0.34592 0.40963 0.25055 0.0
C2878 C 0.34989 0.43295 0.25048 0.0
C2879 C 0.37163 0.44114 0.24688 0.0
C2880 C 0.33238 0.44881 0.25758 0.0
C2881 C 0.32276 0.40018 0.25448 0.0
C2882 C 0.31407 0.4541 0.24376 0.0
C2883 C 0.29701 0.46816 0.2517 0.0
C2884 C 0.29813 0.4769 0.27355 0.0
C2885 C 0.31681 0.4718 0.28703 0.0
C2886 C 0.33375 0.45794 0.27909 0.0
H2887 H 0.32271 0.38156 0.25506 0.0
H2888 H 0.31587 0.40668 0.27049 0.0
H2889 H 0.31138 0.4057 0.24082 0.0
H2890 H 0.31289 0.44716 0.22704 0.0
H2891 H 0.28285 0.47186 0.24094 0.0
H2892 H 0.22095 0.55271 0.75953 0.0
H2893 H 0.18949 0.57858 0.75331 0.0
H2894 H 0.14434 0.52229 0.74768 0.0
H2895 H 0.17557 0.49658 0.7548 0.0
H2896 H 0.15438 0.58575 0.72232 0.0
H2897 H 0.12287 0.55435 0.80414 0.0
H2898 H 0.15046 0.54766 0.79371 0.0
H2899 H 0.12627 0.53286 0.78338 0.0
C2900 C 0.20444 0.54594 0.75605 0.0
C2901 C 0.20052 0.5228 0.75748 0.0
C2902 C 0.18648 0.56068 0.75266 0.0
C2903 C 0.16454 0.55232 0.7506 0.0
C2904 C 0.16108 0.52906 0.74971 0.0
H2905 H 0.0332 0.6156 0.75577 0.0
H2906 H 0.0644 0.58914 0.7519 0.0
C2907 C 0.17892 0.5144 0.75348 0.0
C2908 C 0.14512 0.56772 0.75218 0.0
H2909 H 0.0998 0.58019 0.78494 0.0
C2910 C 0.14243 0.58455 0.73597 0.0
C2911 C 0.12971 0.56625 0.77022 0.0
C2912 C 0.13253 0.54946 0.78898 0.0
C2913 C 0.12445 0.59974 0.73713 0.0
C2914 C 0.10899 0.59807 0.75503 0.0
C2915 C 0.11165 0.58124 0.77117 0.0
C2916 C 0.0902 0.61399 0.75767 0.0
C2917 C 0.12196 0.61736 0.71914 0.0
C2918 C 0.09446 0.63651 0.76284 0.0
C2919 C 0.07673 0.65159 0.76528 0.0
C2920 C 0.05441 0.6444 0.76256 0.0
C2921 C 0.05019 0.62166 0.75798 0.0
C2922 C 0.06797 0.60656 0.75565 0.0
H2923 H 0.13236 0.61352 0.70417 0.0
H2924 H 0.10415 0.61892 0.71389 0.0
H2925 H 0.12739 0.63383 0.72589 0.0
H2926 H 0.11153 0.64242 0.76491 0.0
H2927 H 0.08057 0.66898 0.7689 0.0
H2928 H 0.69915 0.82064 2e-05 0.0
H2929 H 0.71051 0.84939 0.02664 0.0
H2930 H 0.76061 0.80484 0.05382 0.0
H2931 H 0.74938 0.77575 0.02683 0.0
H2932 H 0.7072 0.84115 0.07337 0.0
H2933 H 0.79316 0.86685 0.04726 0.0
H2934 H 0.77387 0.85305 0.0284 0.0
H2935 H 0.78784 0.83724 0.04984 0.0
C2936 C 0.71283 0.81701 0.01143 0.0
C2937 C 0.72324 0.79587 0.01154 0.0
C2938 C 0.71932 0.83349 0.02657 0.0
C2939 C 0.73636 0.82922 0.04214 0.0
C2940 C 0.74758 0.80851 0.04171 0.0
H2941 H 0.75144 0.90301 0.16658 0.0
H2942 H 0.75025 0.87364 0.13806 0.0
C2943 C 0.74114 0.79192 0.02636 0.0
C2944 C 0.74049 0.84573 0.0601 0.0
H2945 H 0.77846 0.88367 0.08005 0.0
C2946 C 0.72282 0.85036 0.07492 0.0
C2947 C 0.76084 0.85776 0.06188 0.0
C2948 C 0.78004 0.85368 0.04595 0.0
C2949 C 0.72487 0.86689 0.09142 0.0
C2950 C 0.74519 0.87891 0.09325 0.0
C2951 C 0.76296 0.87426 0.07855 0.0
C2952 C 0.74787 0.89668 0.11017 0.0
C2953 C 0.70513 0.87181 0.10649 0.0
C2954 C 0.74723 0.91928 0.10376 0.0
C2955 C 0.74781 0.93614 0.12 0.0
C2956 C 0.74907 0.93056 0.14287 0.0
C2957 C 0.75027 0.90785 0.14912 0.0
C2958 C 0.74968 0.89105 0.13289 0.0
H2959 H 0.6896 0.8632 0.10083 0.0
H2960 H 0.70901 0.86612 0.12377 0.0
H2961 H 0.70191 0.89015 0.10714 0.0
H2962 H 0.74572 0.92384 0.08625 0.0
H2963 H 0.74693 0.95348 0.11465 0.0
H2964 H 0.22779 0.5889 0.82399 0.0
H2965 H 0.22975 0.6181 0.85256 0.0
H2966 H 0.23052 0.56764 0.90434 0.0
H2967 H 0.22882 0.53816 0.87581 0.0
H2968 H 0.1995 0.62591 0.88799 0.0
H2969 H 0.28537 0.60732 0.91921 0.0
H2970 H 0.27493 0.59665 0.89287 0.0
H2971 H 0.26642 0.58387 0.91878 0.0
C2972 C 0.22829 0.58395 0.84145 0.0
C2973 C 0.22815 0.56119 0.84764 0.0
C2974 C 0.22948 0.60068 0.85774 0.0
C2975 C 0.23066 0.59499 0.8805 0.0
C2976 C 0.23009 0.57233 0.88681 0.0
H2977 H 0.23589 0.67329 0.00292 0.0
H2978 H 0.23825 0.64363 0.97451 0.0
C2979 C 0.2289 0.55554 0.87051 0.0
C2980 C 0.23176 0.61291 0.89759 0.0
H2981 H 0.26466 0.63484 0.93896 0.0
C2982 C 0.21375 0.62793 0.89912 0.0
C2983 C 0.25039 0.6154 0.91206 0.0
C2984 C 0.27049 0.60009 0.91062 0.0
C2985 C 0.21362 0.64521 0.91503 0.0
C2986 C 0.23235 0.64788 0.92942 0.0
C2987 C 0.25038 0.63281 0.92789 0.0
C2988 C 0.23328 0.66603 0.94635 0.0
C2989 C 0.19311 0.66 0.91661 0.0
C2990 C 0.23067 0.68851 0.93988 0.0
C2991 C 0.22892 0.7053 0.95604 0.0
C2992 C 0.23041 0.69998 0.9789 0.0
C2993 C 0.2347 0.67776 0.98535 0.0
C2994 C 0.23599 0.66085 0.96917 0.0
H2995 H 0.17808 0.65174 0.90931 0.0
H2996 H 0.18935 0.6645 0.93426 0.0
H2997 H 0.19611 0.67569 0.90705 0.0
H2998 H 0.22938 0.693 0.92234 0.0
H2999 H 0.22611 0.72242 0.9507 0.0
H3000 H 0.24395 0.28422 0.47834 0.0
H3001 H 0.23012 0.31319 0.45227 0.0
H3002 H 0.29564 0.3438 0.45156 0.0
H3003 H 0.30952 0.31541 0.47725 0.0
H3004 H 0.24739 0.37117 0.46094 0.0
H3005 H 0.26218 0.3225 0.3827 0.0
H3006 H 0.25203 0.30936 0.40808 0.0
H3007 H 0.2807 0.31826 0.40623 0.0
C3008 C 0.25534 0.29717 0.47264 0.0
C3009 C 0.27782 0.29751 0.47989 0.0
C3010 C 0.24742 0.31364 0.45781 0.0
C3011 C 0.26194 0.33049 0.45014 0.0
C3012 C 0.28424 0.33089 0.45741 0.0
H3013 H 0.29307 0.42613 0.35395 0.0
H3014 H 0.28794 0.39486 0.37993 0.0
C3015 C 0.29211 0.31461 0.47212 0.0
C3016 C 0.25454 0.34798 0.43435 0.0
H3017 H 0.25843 0.36178 0.37912 0.0
C3018 C 0.24916 0.36915 0.44296 0.0
C3019 C 0.25715 0.34508 0.41106 0.0
C3020 C 0.26326 0.32258 0.40129 0.0
C3021 C 0.24792 0.38802 0.42893 0.0
C3022 C 0.25179 0.38539 0.40565 0.0
C3023 C 0.25559 0.36382 0.39695 0.0
C3024 C 0.25459 0.40485 0.3904 0.0
C3025 C 0.24413 0.41073 0.43944 0.0
C3026 C 0.23766 0.42102 0.38779 0.0
C3027 C 0.2409 0.43931 0.37345 0.0
C3028 C 0.26084 0.4413 0.36104 0.0
C3029 C 0.27761 0.425 0.36345 0.0
C3030 C 0.2746 0.40708 0.37816 0.0
H3031 H 0.24646 0.41034 0.45791 0.0
H3032 H 0.25576 0.42341 0.4323 0.0
H3033 H 0.22668 0.41622 0.43603 0.0
H3034 H 0.22184 0.41936 0.39654 0.0
H3035 H 0.2275 0.45143 0.37143 0.0
H3036 H 0.78604 0.21129 0.55391 0.0
H3037 H 0.77646 0.17901 0.57676 0.0
H3038 H 0.73211 0.15499 0.52493 0.0
H3039 H 0.7422 0.18727 0.50138 0.0
H3040 H 0.73765 0.16049 0.59384 0.0
H3041 H 0.77749 0.10414 0.53085 0.0
H3042 H 0.78014 0.13423 0.52935 0.0
H3043 H 0.75429 0.12091 0.52142 0.0
C3044 C 0.77402 0.19934 0.54736 0.0
C3045 C 0.76523 0.20163 0.52559 0.0
C3046 C 0.76848 0.18091 0.56054 0.0
C3047 C 0.75398 0.16435 0.55235 0.0
C3048 C 0.74375 0.16737 0.53134 0.0
H3049 H 0.7464 0.03124 0.61535 0.0
H3050 H 0.73946 0.06272 0.58989 0.0
C3051 C 0.74938 0.18589 0.51799 0.0
C3052 C 0.75148 0.14329 0.5653 0.0
H3053 H 0.76777 0.08839 0.56538 0.0
C3054 C 0.74388 0.14462 0.58752 0.0
C3055 C 0.75963 0.1226 0.55699 0.0
C3056 C 0.7685 0.12025 0.53341 0.0
C3057 C 0.74502 0.12606 0.60193 0.0
C3058 C 0.75439 0.10576 0.59399 0.0
C3059 C 0.76078 0.10405 0.57144 0.0
C3060 C 0.75893 0.08656 0.6091 0.0
C3061 C 0.73649 0.12852 0.62562 0.0
C3062 C 0.77281 0.08935 0.6279 0.0
C3063 C 0.77674 0.07147 0.64248 0.0
C3064 C 0.76719 0.05034 0.6383 0.0
C3065 C 0.75412 0.0473 0.61892 0.0
C3066 C 0.75 0.06529 0.60445 0.0
H3067 H 0.72354 0.14188 0.6268 0.0
H3068 H 0.72922 0.11258 0.63193 0.0
H3069 H 0.75062 0.13336 0.63671 0.0
H3070 H 0.7805 0.10544 0.6314 0.0
H3071 H 0.78702 0.07427 0.65719 0.0
loop_
_geom_bond_atom_site_label_1
_geom_bond_atom_site_label_2
_geom_bond_distance
_geom_bond_site_symmetry_2
_ccdc_geom_bond_type
Zn0 O6 1.969 . S
Zn0 O7 1.965 . S
Zn0 O11 2.024 . S
Zn0 O16 1.969 . S
Zn1 O8 1.969 1_655 S
Zn1 O14 1.969 . S
Zn1 O15 1.965 . S
Zn1 O17 2.024 . S
C2 O3 1.229 . S
C2 O11 1.058 . S
O3 C2 1.229 . S
C4 O5 1.229 . S
C4 O17 1.058 . S
O5 C4 1.229 . S
O6 Zn0 1.969 . S
O6 C9 1.267 . S
O7 Zn0 1.965 . S
O7 C18 1.260 . S
O8 Zn1 1.969 1_455 S
O8 C18 1.258 . S
C9 O6 1.267 . S
C9 O10 1.228 . S
O10 C9 1.228 . S
O11 Zn0 2.024 . S
O11 C2 1.058 . S
C12 O13 1.228 . S
C12 O14 1.267 . S
O13 C12 1.228 . S
O14 Zn1 1.969 . S
O14 C12 1.267 . S
O15 Zn1 1.965 . S
O15 C19 1.260 . S
O16 Zn0 1.969 . S
O16 C19 1.258 1_455 S
O17 Zn1 2.024 . S
O17 C4 1.058 . S
C18 O7 1.260 . S
C18 O8 1.258 . S
C19 O15 1.260 . S
C19 O16 1.258 1_655 S
Zn20 O26 1.969 . S
Zn20 O27 1.965 . S
Zn20 O31 2.024 . S
Zn20 O36 1.969 . S
Zn21 O28 1.969 . S
Zn21 O34 1.969 . S
Zn21 O35 1.965 . S
Zn21 O37 2.024 . S
C22 O23 1.229 . S
C22 O31 1.058 . S
O23 C22 1.229 . S
C24 O25 1.229 . S
C24 O37 1.058 . S
O25 C24 1.229 . S
O26 Zn20 1.969 . S
O26 C29 1.267 . S
O27 Zn20 1.965 . S
O27 C38 1.260 . S
O28 Zn21 1.969 . S
O28 C38 1.258 . S
C29 O26 1.267 . S
C29 O30 1.228 . S
O30 C29 1.228 . S
O31 Zn20 2.024 . S
O31 C22 1.058 . S
C32 O33 1.228 . S
C32 O34 1.267 . S
O33 C32 1.228 . S
O34 Zn21 1.969 . S
O34 C32 1.267 . S
O35 Zn21 1.965 . S
O35 C39 1.260 . S
O36 Zn20 1.969 . S
O36 C39 1.258 . S
O37 Zn21 2.024 . S
O37 C24 1.058 . S
C38 O27 1.260 . S
C38 O28 1.258 . S
C39 O35 1.260 . S
C39 O36 1.258 . S
Zn40 O46 1.969 . S
Zn40 O47 1.965 . S
Zn40 O51 2.024 . S
Zn40 O56 1.969 . S
Zn41 O48 1.969 . S
Zn41 O54 1.969 . S
Zn41 O55 1.965 . S
Zn41 O57 2.024 . S
C42 O43 1.229 . S
C42 O51 1.058 . S
O43 C42 1.229 . S
C44 O45 1.229 . S
C44 O57 1.058 . S
O45 C44 1.229 . S
O46 Zn40 1.969 . S
O46 C49 1.267 . S
O47 Zn40 1.965 . S
O47 C58 1.260 . S
O48 Zn41 1.969 . S
O48 C58 1.258 . S
C49 O46 1.267 . S
C49 O50 1.228 . S
O50 C49 1.228 . S
O51 Zn40 2.024 . S
O51 C42 1.058 . S
C52 O53 1.228 . S
C52 O54 1.267 . S
O53 C52 1.228 . S
O54 Zn41 1.969 . S
O54 C52 1.267 . S
O55 Zn41 1.965 . S
O55 C59 1.260 . S
O56 Zn40 1.969 . S
O56 C59 1.258 . S
O57 Zn41 2.024 . S
O57 C44 1.058 . S
C58 O47 1.260 . S
C58 O48 1.258 . S
C59 O55 1.260 . S
C59 O56 1.258 . S
Zn60 O66 1.969 . S
Zn60 O67 1.965 . S
Zn60 O71 2.024 . S
Zn60 O76 1.969 . S
Zn61 O68 1.969 1_455 S
Zn61 O74 1.969 . S
Zn61 O75 1.965 . S
Zn61 O77 2.024 . S
C62 O63 1.229 . S
C62 O71 1.058 . S
O63 C62 1.229 . S
C64 O65 1.229 . S
C64 O77 1.058 . S
O65 C64 1.229 . S
O66 Zn60 1.969 . S
O66 C69 1.267 . S
O67 Zn60 1.965 . S
O67 C78 1.260 . S
O68 Zn61 1.969 1_655 S
O68 C78 1.258 . S
C69 O66 1.267 . S
C69 O70 1.228 . S
O70 C69 1.228 . S
O71 Zn60 2.024 . S
O71 C62 1.058 . S
C72 O73 1.228 . S
C72 O74 1.267 . S
O73 C72 1.228 . S
O74 Zn61 1.969 . S
O74 C72 1.267 . S
O75 Zn61 1.965 . S
O75 C79 1.260 . S
O76 Zn60 1.969 . S
O76 C79 1.258 1_655 S
O77 Zn61 2.024 . S
O77 C64 1.058 . S
C78 O67 1.260 . S
C78 O68 1.258 . S
C79 O75 1.260 . S
C79 O76 1.258 1_455 S
Zn80 O86 1.969 . S
Zn80 O87 1.965 . S
Zn80 O91 2.024 . S
Zn80 O96 1.969 . S
Zn81 O88 1.969 1_565 S
Zn81 O94 1.969 . S
Zn81 O95 1.965 . S
Zn81 O97 2.024 . S
C82 O83 1.229 . S
C82 O91 1.058 . S
O83 C82 1.229 . S
C84 O85 1.229 . S
C84 O97 1.058 . S
O85 C84 1.229 . S
O86 Zn80 1.969 . S
O86 C89 1.267 . S
O87 Zn80 1.965 . S
O87 C98 1.260 . S
O88 Zn81 1.969 1_545 S
O88 C98 1.258 . S
C89 O86 1.267 . S
C89 O90 1.228 . S
O90 C89 1.228 . S
O91 Zn80 2.024 . S
O91 C82 1.058 . S
C92 O93 1.228 . S
C92 O94 1.267 . S
O93 C92 1.228 . S
O94 Zn81 1.969 . S
O94 C92 1.267 . S
O95 Zn81 1.965 . S
O95 C99 1.260 . S
O96 Zn80 1.969 . S
O96 C99 1.258 1_545 S
O97 Zn81 2.024 . S
O97 C84 1.058 . S
C98 O87 1.260 . S
C98 O88 1.258 . S
C99 O95 1.260 . S
C99 O96 1.258 1_565 S
Zn100 O106 1.969 . S
Zn100 O107 1.965 . S
Zn100 O111 2.024 . S
Zn100 O116 1.969 . S
Zn101 O108 1.969 1_545 S
Zn101 O114 1.969 . S
Zn101 O115 1.965 . S
Zn101 O117 2.024 . S
C102 O103 1.229 . S
C102 O111 1.058 . S
O103 C102 1.229 . S
C104 O105 1.229 . S
C104 O117 1.058 . S
O105 C104 1.229 . S
O106 Zn100 1.969 . S
O106 C109 1.267 . S
O107 Zn100 1.965 . S
O107 C118 1.260 . S
O108 Zn101 1.969 1_565 S
O108 C118 1.258 . S
C109 O106 1.267 . S
C109 O110 1.228 . S
O110 C109 1.228 . S
O111 Zn100 2.024 . S
O111 C102 1.058 . S
C112 O113 1.228 . S
C112 O114 1.267 . S
O113 C112 1.228 . S
O114 Zn101 1.969 . S
O114 C112 1.267 . S
O115 Zn101 1.965 . S
O115 C119 1.260 . S
O116 Zn100 1.969 . S
O116 C119 1.258 1_565 S
O117 Zn101 2.024 . S
O117 C104 1.058 . S
C118 O107 1.260 . S
C118 O108 1.258 . S
C119 O115 1.260 . S
C119 O116 1.258 1_545 S
Zn120 O126 1.969 . S
Zn120 O127 1.965 . S
Zn120 O131 2.024 . S
Zn120 O136 1.969 . S
Zn121 O128 1.969 . S
Zn121 O134 1.969 . S
Zn121 O135 1.965 . S
Zn121 O137 2.024 . S
C122 O123 1.229 . S
C122 O131 1.058 . S
O123 C122 1.229 . S
C124 O125 1.229 . S
C124 O137 1.058 . S
O125 C124 1.229 . S
O126 Zn120 1.969 . S
O126 C129 1.267 . S
O127 Zn120 1.965 . S
O127 C138 1.260 . S
O128 Zn121 1.969 . S
O128 C138 1.258 . S
C129 O126 1.267 . S
C129 O130 1.228 . S
O130 C129 1.228 . S
O131 Zn120 2.024 . S
O131 C122 1.058 . S
C132 O133 1.228 . S
C132 O134 1.267 . S
O133 C132 1.228 . S
O134 Zn121 1.969 . S
O134 C132 1.267 . S
O135 Zn121 1.965 . S
O135 C139 1.260 . S
O136 Zn120 1.969 . S
O136 C139 1.258 . S
O137 Zn121 2.024 . S
O137 C124 1.058 . S
C138 O127 1.260 . S
C138 O128 1.258 . S
C139 O135 1.260 . S
C139 O136 1.258 . S
Zn140 O146 1.969 . S
Zn140 O147 1.965 . S
Zn140 O151 2.024 . S
Zn140 O156 1.969 . S
Zn141 O148 1.969 . S
Zn141 O154 1.969 . S
Zn141 O155 1.965 . S
Zn141 O157 2.024 . S
C142 O143 1.229 . S
C142 O151 1.058 . S
O143 C142 1.229 . S
C144 O145 1.229 . S
C144 O157 1.058 . S
O145 C144 1.229 . S
O146 Zn140 1.969 . S
O146 C149 1.267 . S
O147 Zn140 1.965 . S
O147 C158 1.260 . S
O148 Zn141 1.969 . S
O148 C158 1.258 . S
C149 O146 1.267 . S
C149 O150 1.228 . S
O150 C149 1.228 . S
O151 Zn140 2.024 . S
O151 C142 1.058 . S
C152 O153 1.228 . S
C152 O154 1.267 . S
O153 C152 1.228 . S
O154 Zn141 1.969 . S
O154 C152 1.267 . S
O155 Zn141 1.965 . S
O155 C159 1.260 . S
O156 Zn140 1.969 . S
O156 C159 1.258 . S
O157 Zn141 2.024 . S
O157 C144 1.058 . S
C158 O147 1.260 . S
C158 O148 1.258 . S
C159 O155 1.260 . S
C159 O156 1.258 . S
Zn160 O166 1.969 . S
Zn160 O167 1.965 . S
Zn160 O171 2.024 . S
Zn160 O176 1.969 . S
Zn161 O168 1.969 1_556 S
Zn161 O174 1.969 . S
Zn161 O175 1.965 . S
Zn161 O177 2.024 . S
C162 O163 1.229 . S
C162 O171 1.058 . S
O163 C162 1.229 . S
C164 O165 1.229 . S
C164 O177 1.058 . S
O165 C164 1.229 . S
O166 Zn160 1.969 . S
O166 C169 1.267 . S
O167 Zn160 1.965 . S
O167 C178 1.260 . S
O168 Zn161 1.969 1_554 S
O168 C178 1.258 . S
C169 O166 1.267 . S
C169 O170 1.228 . S
O170 C169 1.228 . S
O171 Zn160 2.024 . S
O171 C162 1.058 . S
C172 O173 1.228 . S
C172 O174 1.267 . S
O173 C172 1.228 . S
O174 Zn161 1.969 . S
O174 C172 1.267 . S
O175 Zn161 1.965 . S
O175 C179 1.260 . S
O176 Zn160 1.969 . S
O176 C179 1.258 1_554 S
O177 Zn161 2.024 . S
O177 C164 1.058 . S
C178 O167 1.260 . S
C178 O168 1.258 . S
C179 O175 1.260 . S
C179 O176 1.258 1_556 S
Zn180 O186 1.969 . S
Zn180 O187 1.965 . S
Zn180 O191 2.024 . S
Zn180 O196 1.969 . S
Zn181 O188 1.969 1_554 S
Zn181 O194 1.969 . S
Zn181 O195 1.965 . S
Zn181 O197 2.024 . S
C182 O183 1.229 . S
C182 O191 1.058 . S
O183 C182 1.229 . S
C184 O185 1.229 . S
C184 O197 1.058 . S
O185 C184 1.229 . S
O186 Zn180 1.969 . S
O186 C189 1.267 . S
O187 Zn180 1.965 . S
O187 C198 1.260 . S
O188 Zn181 1.969 1_556 S
O188 C198 1.258 . S
C189 O186 1.267 . S
C189 O190 1.228 . S
O190 C189 1.228 . S
O191 Zn180 2.024 . S
O191 C182 1.058 . S
C192 O193 1.228 . S
C192 O194 1.267 . S
O193 C192 1.228 . S
O194 Zn181 1.969 . S
O194 C192 1.267 . S
O195 Zn181 1.965 . S
O195 C199 1.260 . S
O196 Zn180 1.969 . S
O196 C199 1.258 1_556 S
O197 Zn181 2.024 . S
O197 C184 1.058 . S
C198 O187 1.260 . S
C198 O188 1.258 . S
C199 O195 1.260 . S
C199 O196 1.258 1_554 S
Zn200 O206 1.969 . S
Zn200 O207 1.965 . S
Zn200 O211 2.024 . S
Zn200 O216 1.969 . S
Zn201 O208 1.969 . S
Zn201 O214 1.969 . S
Zn201 O215 1.965 . S
Zn201 O217 2.024 . S
C202 O203 1.229 . S
C202 O211 1.058 . S
O203 C202 1.229 . S
C204 O205 1.229 . S
C204 O217 1.058 . S
O205 C204 1.229 . S
O206 Zn200 1.969 . S
O206 C209 1.267 . S
O207 Zn200 1.965 . S
O207 C218 1.260 . S
O208 Zn201 1.969 . S
O208 C218 1.258 . S
C209 O206 1.267 . S
C209 O210 1.228 . S
O210 C209 1.228 . S
O211 Zn200 2.024 . S
O211 C202 1.058 . S
C212 O213 1.228 . S
C212 O214 1.267 . S
O213 C212 1.228 . S
O214 Zn201 1.969 . S
O214 C212 1.267 . S
O215 Zn201 1.965 . S
O215 C219 1.260 . S
O216 Zn200 1.969 . S
O216 C219 1.258 . S
O217 Zn201 2.024 . S
O217 C204 1.058 . S
C218 O207 1.260 . S
C218 O208 1.258 . S
C219 O215 1.260 . S
C219 O216 1.258 . S
Zn220 O226 1.969 . S
Zn220 O227 1.965 . S
Zn220 O231 2.024 . S
Zn220 O236 1.969 . S
Zn221 O228 1.969 . S
Zn221 O234 1.969 . S
Zn221 O235 1.965 . S
Zn221 O237 2.024 . S
C222 O223 1.229 . S
C222 O231 1.058 . S
O223 C222 1.229 . S
C224 O225 1.229 . S
C224 O237 1.058 . S
O225 C224 1.229 . S
O226 Zn220 1.969 . S
O226 C229 1.267 . S
O227 Zn220 1.965 . S
O227 C238 1.260 . S
O228 Zn221 1.969 . S
O228 C238 1.258 . S
C229 O226 1.267 . S
C229 O230 1.228 . S
O230 C229 1.228 . S
O231 Zn220 2.024 . S
O231 C222 1.058 . S
C232 O233 1.228 . S
C232 O234 1.267 . S
O233 C232 1.228 . S
O234 Zn221 1.969 . S
O234 C232 1.267 . S
O235 Zn221 1.965 . S
O235 C239 1.260 . S
O236 Zn220 1.969 . S
O236 C239 1.258 . S
O237 Zn221 2.024 . S
O237 C224 1.058 . S
C238 O227 1.260 . S
C238 O228 1.258 . S
C239 O235 1.260 . S
C239 O236 1.258 . S
Zn240 O246 1.969 . S
Zn240 O247 1.965 . S
Zn240 O251 2.024 . S
Zn240 O256 1.969 1_455 S
Zn241 O248 1.969 . S
Zn241 O254 1.969 . S
Zn241 O255 1.965 . S
Zn241 O257 2.024 . S
C242 O243 1.229 . S
C242 O251 1.058 . S
O243 C242 1.229 . S
C244 O245 1.229 . S
C244 O257 1.058 . S
O245 C244 1.229 . S
O246 Zn240 1.969 . S
O246 C249 1.267 . S
O247 Zn240 1.965 . S
O247 C258 1.260 . S
O248 Zn241 1.969 . S
O248 C258 1.258 1_655 S
C249 O246 1.267 . S
C249 O250 1.228 . S
O250 C249 1.228 . S
O251 Zn240 2.024 . S
O251 C242 1.058 . S
C252 O253 1.228 . S
C252 O254 1.267 . S
O253 C252 1.228 . S
O254 Zn241 1.969 . S
O254 C252 1.267 . S
O255 Zn241 1.965 . S
O255 C259 1.260 . S
O256 Zn240 1.969 1_655 S
O256 C259 1.258 . S
O257 Zn241 2.024 . S
O257 C244 1.058 . S
C258 O247 1.260 . S
C258 O248 1.258 1_455 S
C259 O255 1.260 . S
C259 O256 1.258 . S
Zn260 O266 1.969 . S
Zn260 O267 1.965 . S
Zn260 O271 2.024 . S
Zn260 O276 1.969 . S
Zn261 O268 1.969 . S
Zn261 O274 1.969 . S
Zn261 O275 1.965 . S
Zn261 O277 2.024 . S
C262 O263 1.229 . S
C262 O271 1.058 . S
O263 C262 1.229 . S
C264 O265 1.229 . S
C264 O277 1.058 . S
O265 C264 1.229 . S
O266 Zn260 1.969 . S
O266 C269 1.267 . S
O267 Zn260 1.965 . S
O267 C278 1.260 . S
O268 Zn261 1.969 . S
O268 C278 1.258 . S
C269 O266 1.267 . S
C269 O270 1.228 . S
O270 C269 1.228 . S
O271 Zn260 2.024 . S
O271 C262 1.058 . S
C272 O273 1.228 . S
C272 O274 1.267 . S
O273 C272 1.228 . S
O274 Zn261 1.969 . S
O274 C272 1.267 . S
O275 Zn261 1.965 . S
O275 C279 1.260 . S
O276 Zn260 1.969 . S
O276 C279 1.258 . S
O277 Zn261 2.024 . S
O277 C264 1.058 . S
C278 O267 1.260 . S
C278 O268 1.258 . S
C279 O275 1.260 . S
C279 O276 1.258 . S
Zn280 O286 1.969 . S
Zn280 O287 1.965 . S
Zn280 O291 2.024 . S
Zn280 O296 1.969 . S
Zn281 O288 1.969 . S
Zn281 O294 1.969 . S
Zn281 O295 1.965 . S
Zn281 O297 2.024 . S
C282 O283 1.229 . S
C282 O291 1.058 . S
O283 C282 1.229 . S
C284 O285 1.229 . S
C284 O297 1.058 . S
O285 C284 1.229 . S
O286 Zn280 1.969 . S
O286 C289 1.267 . S
O287 Zn280 1.965 . S
O287 C298 1.260 . S
O288 Zn281 1.969 . S
O288 C298 1.258 . S
C289 O286 1.267 . S
C289 O290 1.228 . S
O290 C289 1.228 . S
O291 Zn280 2.024 . S
O291 C282 1.058 . S
C292 O293 1.228 . S
C292 O294 1.267 . S
O293 C292 1.228 . S
O294 Zn281 1.969 . S
O294 C292 1.267 . S
O295 Zn281 1.965 . S
O295 C299 1.260 . S
O296 Zn280 1.969 . S
O296 C299 1.258 . S
O297 Zn281 2.024 . S
O297 C284 1.058 . S
C298 O287 1.260 . S
C298 O288 1.258 . S
C299 O295 1.260 . S
C299 O296 1.258 . S
Zn300 O306 1.969 . S
Zn300 O307 1.965 . S
Zn300 O311 2.024 . S
Zn300 O316 1.969 1_655 S
Zn301 O308 1.969 . S
Zn301 O314 1.969 . S
Zn301 O315 1.965 . S
Zn301 O317 2.024 . S
C302 O303 1.229 . S
C302 O311 1.058 . S
O303 C302 1.229 . S
C304 O305 1.229 . S
C304 O317 1.058 . S
O305 C304 1.229 . S
O306 Zn300 1.969 . S
O306 C309 1.267 . S
O307 Zn300 1.965 . S
O307 C318 1.260 . S
O308 Zn301 1.969 . S
O308 C318 1.258 1_455 S
C309 O306 1.267 . S
C309 O310 1.228 . S
O310 C309 1.228 . S
O311 Zn300 2.024 . S
O311 C302 1.058 . S
C312 O313 1.228 . S
C312 O314 1.267 . S
O313 C312 1.228 . S
O314 Zn301 1.969 . S
O314 C312 1.267 . S
O315 Zn301 1.965 . S
O315 C319 1.260 . S
O316 Zn300 1.969 1_455 S
O316 C319 1.258 . S
O317 Zn301 2.024 . S
O317 C304 1.058 . S
C318 O307 1.260 . S
C318 O308 1.258 1_655 S
C319 O315 1.260 . S
C319 O316 1.258 . S
Zn320 O326 1.969 . S
Zn320 O327 1.965 . S
Zn320 O331 2.024 . S
Zn320 O336 1.969 1_545 S
Zn321 O328 1.969 . S
Zn321 O334 1.969 . S
Zn321 O335 1.965 . S
Zn321 O337 2.024 . S
C322 O323 1.229 . S
C322 O331 1.058 . S
O323 C322 1.229 . S
C324 O325 1.229 . S
C324 O337 1.058 . S
O325 C324 1.229 . S
O326 Zn320 1.969 . S
O326 C329 1.267 . S
O327 Zn320 1.965 . S
O327 C338 1.260 . S
O328 Zn321 1.969 . S
O328 C338 1.258 1_565 S
C329 O326 1.267 . S
C329 O330 1.228 . S
O330 C329 1.228 . S
O331 Zn320 2.024 . S
O331 C322 1.058 . S
C332 O333 1.228 . S
C332 O334 1.267 . S
O333 C332 1.228 . S
O334 Zn321 1.969 . S
O334 C332 1.267 . S
O335 Zn321 1.965 . S
O335 C339 1.260 . S
O336 Zn320 1.969 1_565 S
O336 C339 1.258 . S
O337 Zn321 2.024 . S
O337 C324 1.058 . S
C338 O327 1.260 . S
C338 O328 1.258 1_545 S
C339 O335 1.260 . S
C339 O336 1.258 . S
Zn340 O346 1.969 . S
Zn340 O347 1.965 . S
Zn340 O351 2.024 . S
Zn340 O356 1.969 1_565 S
Zn341 O348 1.969 . S
Zn341 O354 1.969 . S
Zn341 O355 1.965 . S
Zn341 O357 2.024 . S
C342 O343 1.229 . S
C342 O351 1.058 . S
O343 C342 1.229 . S
C344 O345 1.229 . S
C344 O357 1.058 . S
O345 C344 1.229 . S
O346 Zn340 1.969 . S
O346 C349 1.267 . S
O347 Zn340 1.965 . S
O347 C358 1.260 . S
O348 Zn341 1.969 . S
O348 C358 1.258 1_545 S
C349 O346 1.267 . S
C349 O350 1.228 . S
O350 C349 1.228 . S
O351 Zn340 2.024 . S
O351 C342 1.058 . S
C352 O353 1.228 . S
C352 O354 1.267 . S
O353 C352 1.228 . S
O354 Zn341 1.969 . S
O354 C352 1.267 . S
O355 Zn341 1.965 . S
O355 C359 1.260 . S
O356 Zn340 1.969 1_545 S
O356 C359 1.258 . S
O357 Zn341 2.024 . S
O357 C344 1.058 . S
C358 O347 1.260 . S
C358 O348 1.258 1_565 S
C359 O355 1.260 . S
C359 O356 1.258 . S
Zn360 O366 1.969 . S
Zn360 O367 1.965 . S
Zn360 O371 2.024 . S
Zn360 O376 1.969 . S
Zn361 O368 1.969 . S
Zn361 O374 1.969 . S
Zn361 O375 1.965 . S
Zn361 O377 2.024 . S
C362 O363 1.229 . S
C362 O371 1.058 . S
O363 C362 1.229 . S
C364 O365 1.229 . S
C364 O377 1.058 . S
O365 C364 1.229 . S
O366 Zn360 1.969 . S
O366 C369 1.267 . S
O367 Zn360 1.965 . S
O367 C378 1.260 . S
O368 Zn361 1.969 . S
O368 C378 1.258 . S
C369 O366 1.267 . S
C369 O370 1.228 . S
O370 C369 1.228 . S
O371 Zn360 2.024 . S
O371 C362 1.058 . S
C372 O373 1.228 . S
C372 O374 1.267 . S
O373 C372 1.228 . S
O374 Zn361 1.969 . S
O374 C372 1.267 . S
O375 Zn361 1.965 . S
O375 C379 1.260 . S
O376 Zn360 1.969 . S
O376 C379 1.258 . S
O377 Zn361 2.024 . S
O377 C364 1.058 . S
C378 O367 1.260 . S
C378 O368 1.258 . S
C379 O375 1.260 . S
C379 O376 1.258 . S
Zn380 O386 1.969 . S
Zn380 O387 1.965 . S
Zn380 O391 2.024 . S
Zn380 O396 1.969 . S
Zn381 O388 1.969 . S
Zn381 O394 1.969 . S
Zn381 O395 1.965 . S
Zn381 O397 2.024 . S
C382 O383 1.229 . S
C382 O391 1.058 . S
O383 C382 1.229 . S
C384 O385 1.229 . S
C384 O397 1.058 . S
O385 C384 1.229 . S
O386 Zn380 1.969 . S
O386 C389 1.267 . S
O387 Zn380 1.965 . S
O387 C398 1.260 . S
O388 Zn381 1.969 . S
O388 C398 1.258 . S
C389 O386 1.267 . S
C389 O390 1.228 . S
O390 C389 1.228 . S
O391 Zn380 2.024 . S
O391 C382 1.058 . S
C392 O393 1.228 . S
C392 O394 1.267 . S
O393 C392 1.228 . S
O394 Zn381 1.969 . S
O394 C392 1.267 . S
O395 Zn381 1.965 . S
O395 C399 1.260 . S
O396 Zn380 1.969 . S
O396 C399 1.258 . S
O397 Zn381 2.024 . S
O397 C384 1.058 . S
C398 O387 1.260 . S
C398 O388 1.258 . S
C399 O395 1.260 . S
C399 O396 1.258 . S
Zn400 O406 1.969 . S
Zn400 O407 1.965 . S
Zn400 O411 2.024 . S
Zn400 O416 1.969 1_554 S
Zn401 O408 1.969 . S
Zn401 O414 1.969 . S
Zn401 O415 1.965 . S
Zn401 O417 2.024 . S
C402 O403 1.229 . S
C402 O411 1.058 . S
O403 C402 1.229 . S
C404 O405 1.229 . S
C404 O417 1.058 . S
O405 C404 1.229 . S
O406 Zn400 1.969 . S
O406 C409 1.267 . S
O407 Zn400 1.965 . S
O407 C418 1.260 . S
O408 Zn401 1.969 . S
O408 C418 1.258 1_556 S
C409 O406 1.267 . S
C409 O410 1.228 . S
O410 C409 1.228 . S
O411 Zn400 2.024 . S
O411 C402 1.058 . S
C412 O413 1.228 . S
C412 O414 1.267 . S
O413 C412 1.228 . S
O414 Zn401 1.969 . S
O414 C412 1.267 . S
O415 Zn401 1.965 . S
O415 C419 1.260 . S
O416 Zn400 1.969 1_556 S
O416 C419 1.258 . S
O417 Zn401 2.024 . S
O417 C404 1.058 . S
C418 O407 1.260 . S
C418 O408 1.258 1_554 S
C419 O415 1.260 . S
C419 O416 1.258 . S
Zn420 O426 1.969 . S
Zn420 O427 1.965 . S
Zn420 O431 2.024 . S
Zn420 O436 1.969 1_556 S
Zn421 O428 1.969 . S
Zn421 O434 1.969 . S
Zn421 O435 1.965 . S
Zn421 O437 2.024 . S
C422 O423 1.229 . S
C422 O431 1.058 . S
O423 C422 1.229 . S
C424 O425 1.229 . S
C424 O437 1.058 . S
O425 C424 1.229 . S
O426 Zn420 1.969 . S
O426 C429 1.267 . S
O427 Zn420 1.965 . S
O427 C438 1.260 . S
O428 Zn421 1.969 . S
O428 C438 1.258 1_554 S
C429 O426 1.267 . S
C429 O430 1.228 . S
O430 C429 1.228 . S
O431 Zn420 2.024 . S
O431 C422 1.058 . S
C432 O433 1.228 . S
C432 O434 1.267 . S
O433 C432 1.228 . S
O434 Zn421 1.969 . S
O434 C432 1.267 . S
O435 Zn421 1.965 . S
O435 C439 1.260 . S
O436 Zn420 1.969 1_554 S
O436 C439 1.258 . S
O437 Zn421 2.024 . S
O437 C424 1.058 . S
C438 O427 1.260 . S
C438 O428 1.258 1_556 S
C439 O435 1.260 . S
C439 O436 1.258 . S
Zn440 O446 1.969 . S
Zn440 O447 1.965 . S
Zn440 O451 2.024 . S
Zn440 O456 1.969 . S
Zn441 O448 1.969 . S
Zn441 O454 1.969 . S
Zn441 O455 1.965 . S
Zn441 O457 2.024 . S
C442 O443 1.229 . S
C442 O451 1.058 . S
O443 C442 1.229 . S
C444 O445 1.229 . S
C444 O457 1.058 . S
O445 C444 1.229 . S
O446 Zn440 1.969 . S
O446 C449 1.267 . S
O447 Zn440 1.965 . S
O447 C458 1.260 . S
O448 Zn441 1.969 . S
O448 C458 1.258 . S
C449 O446 1.267 . S
C449 O450 1.228 . S
O450 C449 1.228 . S
O451 Zn440 2.024 . S
O451 C442 1.058 . S
C452 O453 1.228 . S
C452 O454 1.267 . S
O453 C452 1.228 . S
O454 Zn441 1.969 . S
O454 C452 1.267 . S
O455 Zn441 1.965 . S
O455 C459 1.260 . S
O456 Zn440 1.969 . S
O456 C459 1.258 . S
O457 Zn441 2.024 . S
O457 C444 1.058 . S
C458 O447 1.260 . S
C458 O448 1.258 . S
C459 O455 1.260 . S
C459 O456 1.258 . S
Zn460 O466 1.969 . S
Zn460 O467 1.965 . S
Zn460 O471 2.024 . S
Zn460 O476 1.969 . S
Zn461 O468 1.969 . S
Zn461 O474 1.969 . S
Zn461 O475 1.965 . S
Zn461 O477 2.024 . S
C462 O463 1.229 . S
C462 O471 1.058 . S
O463 C462 1.229 . S
C464 O465 1.229 . S
C464 O477 1.058 . S
O465 C464 1.229 . S
O466 Zn460 1.969 . S
O466 C469 1.267 . S
O467 Zn460 1.965 . S
O467 C478 1.260 . S
O468 Zn461 1.969 . S
O468 C478 1.258 . S
C469 O466 1.267 . S
C469 O470 1.228 . S
O470 C469 1.228 . S
O471 Zn460 2.024 . S
O471 C462 1.058 . S
C472 O473 1.228 . S
C472 O474 1.267 . S
O473 C472 1.228 . S
O474 Zn461 1.969 . S
O474 C472 1.267 . S
O475 Zn461 1.965 . S
O475 C479 1.260 . S
O476 Zn460 1.969 . S
O476 C479 1.258 . S
O477 Zn461 2.024 . S
O477 C464 1.058 . S
C478 O467 1.260 . S
C478 O468 1.258 . S
C479 O475 1.260 . S
C479 O476 1.258 . S
H480 C488 0.929 . S
H481 C490 0.930 . S
H482 C492 0.930 . S
H483 C495 0.929 . S
H484 C498 0.930 . S
H485 C500 0.960 . S
H486 C500 0.960 . S
H487 C500 0.960 . S
C488 H480 0.929 . S
C488 C489 1.377 . S
C488 C490 1.384 . S
C489 C488 1.377 . S
C489 C495 1.390 . S
C490 H481 0.930 . S
C490 C488 1.384 . S
C490 C491 1.372 . S
C491 C490 1.372 . S
C491 C492 1.400 . S
C491 C496 1.490 . S
C492 H482 0.930 . S
C492 C491 1.400 . S
C492 C495 1.386 . S
H493 C509 0.930 . S
H494 C510 0.931 . S
C495 H483 0.929 . S
C495 C489 1.390 . S
C495 C492 1.386 . S
C496 C491 1.490 . S
C496 C498 1.395 . S
C496 C499 1.403 . S
H497 C503 0.930 . S
C498 H484 0.930 . S
C498 C496 1.395 . S
C498 C501 1.403 . S
C499 C496 1.403 . S
C499 C500 1.524 . S
C499 C503 1.400 . S
C500 H485 0.960 . S
C500 H486 0.960 . S
C500 H487 0.960 . S
C500 C499 1.524 . S
C501 C498 1.403 . S
C501 C502 1.392 . S
C501 C505 1.495 . S
C502 C501 1.392 . S
C502 C503 1.385 . S
C502 C504 1.478 . S
C503 H497 0.930 . S
C503 C499 1.400 . S
C503 C502 1.385 . S
C504 C502 1.478 . S
C504 C506 1.381 . S
C504 C510 1.383 . S
C505 C501 1.495 . S
C505 H511 0.959 . S
C505 H512 0.961 . S
C505 H513 0.960 . S
C506 C504 1.381 . S
C506 C507 1.394 . S
C506 H514 0.930 . S
C507 C506 1.394 . S
C507 C508 1.383 . S
C507 H515 0.929 . S
C508 C507 1.383 . S
C508 C509 1.377 . S
C509 H493 0.930 . S
C509 C508 1.377 . S
C509 C510 1.379 . S
C510 H494 0.931 . S
C510 C504 1.383 . S
C510 C509 1.379 . S
H511 C505 0.959 . S
H512 C505 0.961 . S
H513 C505 0.960 . S
H514 C506 0.930 . S
H515 C507 0.929 . S
H516 C524 0.929 . S
H517 C526 0.930 . S
H518 C528 0.930 . S
H519 C531 0.929 . S
H520 C534 0.930 . S
H521 C536 0.960 . S
H522 C536 0.960 . S
H523 C536 0.960 . S
C524 H516 0.929 . S
C524 C525 1.377 . S
C524 C526 1.384 . S
C525 C524 1.377 . S
C525 C531 1.390 . S
C526 H517 0.930 . S
C526 C524 1.384 . S
C526 C527 1.372 . S
C527 C526 1.372 . S
C527 C528 1.400 . S
C527 C532 1.490 . S
C528 H518 0.930 . S
C528 C527 1.400 . S
C528 C531 1.386 . S
H529 C545 0.930 . S
H530 C546 0.931 . S
C531 H519 0.929 . S
C531 C525 1.390 . S
C531 C528 1.386 . S
C532 C527 1.490 . S
C532 C534 1.395 . S
C532 C535 1.403 . S
H533 C539 0.930 . S
C534 H520 0.930 . S
C534 C532 1.395 . S
C534 C537 1.403 . S
C535 C532 1.403 . S
C535 C536 1.524 . S
C535 C539 1.400 . S
C536 H521 0.960 . S
C536 H522 0.960 . S
C536 H523 0.960 . S
C536 C535 1.524 . S
C537 C534 1.403 . S
C537 C538 1.392 . S
C537 C541 1.495 . S
C538 C537 1.392 . S
C538 C539 1.385 . S
C538 C540 1.478 . S
C539 H533 0.930 . S
C539 C535 1.400 . S
C539 C538 1.385 . S
C540 C538 1.478 . S
C540 C542 1.381 . S
C540 C546 1.383 . S
C541 C537 1.495 . S
C541 H547 0.959 . S
C541 H548 0.961 . S
C541 H549 0.960 . S
C542 C540 1.381 . S
C542 C543 1.394 . S
C542 H550 0.930 . S
C543 C542 1.394 . S
C543 C544 1.383 . S
C543 H551 0.929 . S
C544 C543 1.383 . S
C544 C545 1.377 . S
C545 H529 0.930 . S
C545 C544 1.377 . S
C545 C546 1.379 . S
C546 H530 0.931 . S
C546 C540 1.383 . S
C546 C545 1.379 . S
H547 C541 0.959 . S
H548 C541 0.961 . S
H549 C541 0.960 . S
H550 C542 0.930 . S
H551 C543 0.929 . S
H552 C560 0.929 . S
H553 C562 0.930 . S
H554 C564 0.930 . S
H555 C567 0.929 . S
H556 C570 0.930 . S
H557 C572 0.960 . S
H558 C572 0.960 . S
H559 C572 0.960 . S
C560 H552 0.929 . S
C560 C561 1.377 . S
C560 C562 1.384 . S
C561 C560 1.377 . S
C561 C567 1.390 . S
C562 H553 0.930 . S
C562 C560 1.384 . S
C562 C563 1.372 . S
C563 C562 1.372 . S
C563 C564 1.400 . S
C563 C568 1.490 . S
C564 H554 0.930 . S
C564 C563 1.400 . S
C564 C567 1.386 . S
H565 C581 0.930 . S
H566 C582 0.931 . S
C567 H555 0.929 . S
C567 C561 1.390 . S
C567 C564 1.386 . S
C568 C563 1.490 . S
C568 C570 1.395 . S
C568 C571 1.403 . S
H569 C575 0.930 . S
C570 H556 0.930 . S
C570 C568 1.395 . S
C570 C573 1.403 . S
C571 C568 1.403 . S
C571 C572 1.524 . S
C571 C575 1.400 . S
C572 H557 0.960 . S
C572 H558 0.960 . S
C572 H559 0.960 . S
C572 C571 1.524 . S
C573 C570 1.403 . S
C573 C574 1.392 . S
C573 C577 1.495 . S
C574 C573 1.392 . S
C574 C575 1.385 . S
C574 C576 1.478 . S
C575 H569 0.930 . S
C575 C571 1.400 . S
C575 C574 1.385 . S
C576 C574 1.478 . S
C576 C578 1.381 . S
C576 C582 1.383 . S
C577 C573 1.495 . S
C577 H583 0.959 . S
C577 H584 0.961 . S
C577 H585 0.960 . S
C578 C576 1.381 . S
C578 C579 1.394 . S
C578 H586 0.930 . S
C579 C578 1.394 . S
C579 C580 1.383 . S
C579 H587 0.929 . S
C580 C579 1.383 . S
C580 C581 1.377 . S
C581 H565 0.930 . S
C581 C580 1.377 . S
C581 C582 1.379 . S
C582 H566 0.931 . S
C582 C576 1.383 . S
C582 C581 1.379 . S
H583 C577 0.959 . S
H584 C577 0.961 . S
H585 C577 0.960 . S
H586 C578 0.930 . S
H587 C579 0.929 . S
H588 C596 0.929 . S
H589 C598 0.930 . S
H590 C600 0.930 . S
H591 C603 0.929 . S
H592 C606 0.930 . S
H593 C608 0.960 . S
H594 C608 0.960 . S
H595 C608 0.960 . S
C596 H588 0.929 . S
C596 C597 1.377 . S
C596 C598 1.384 . S
C597 C596 1.377 . S
C597 C603 1.390 . S
C598 H589 0.930 . S
C598 C596 1.384 . S
C598 C599 1.372 . S
C599 C598 1.372 . S
C599 C600 1.400 . S
C599 C604 1.490 . S
C600 H590 0.930 . S
C600 C599 1.400 . S
C600 C603 1.386 . S
H601 C617 0.930 . S
H602 C618 0.931 . S
C603 H591 0.929 . S
C603 C597 1.390 . S
C603 C600 1.386 . S
C604 C599 1.490 . S
C604 C606 1.395 . S
C604 C607 1.403 . S
H605 C611 0.930 . S
C606 H592 0.930 . S
C606 C604 1.395 . S
C606 C609 1.403 . S
C607 C604 1.403 . S
C607 C608 1.524 . S
C607 C611 1.400 . S
C608 H593 0.960 . S
C608 H594 0.960 . S
C608 H595 0.960 . S
C608 C607 1.524 . S
C609 C606 1.403 . S
C609 C610 1.392 . S
C609 C613 1.495 . S
C610 C609 1.392 . S
C610 C611 1.385 . S
C610 C612 1.478 . S
C611 H605 0.930 . S
C611 C607 1.400 . S
C611 C610 1.385 . S
C612 C610 1.478 . S
C612 C614 1.381 . S
C612 C618 1.383 . S
C613 C609 1.495 . S
C613 H619 0.959 . S
C613 H620 0.961 . S
C613 H621 0.960 . S
C614 C612 1.381 . S
C614 C615 1.394 . S
C614 H622 0.930 . S
C615 C614 1.394 . S
C615 C616 1.383 . S
C615 H623 0.929 . S
C616 C615 1.383 . S
C616 C617 1.377 . S
C617 H601 0.930 . S
C617 C616 1.377 . S
C617 C618 1.379 . S
C618 H602 0.931 . S
C618 C612 1.383 . S
C618 C617 1.379 . S
H619 C613 0.959 . S
H620 C613 0.961 . S
H621 C613 0.960 . S
H622 C614 0.930 . S
H623 C615 0.929 . S
H624 C632 0.929 . S
H625 C634 0.930 . S
H626 C636 0.930 . S
H627 C639 0.929 . S
H628 C642 0.930 . S
H629 C644 0.960 . S
H630 C644 0.960 . S
H631 C644 0.960 . S
C632 H624 0.929 . S
C632 C633 1.377 . S
C632 C634 1.384 . S
C633 C632 1.377 . S
C633 C639 1.390 . S
C634 H625 0.930 . S
C634 C632 1.384 . S
C634 C635 1.372 . S
C635 C634 1.372 . S
C635 C636 1.400 . S
C635 C640 1.490 . S
C636 H626 0.930 . S
C636 C635 1.400 . S
C636 C639 1.386 . S
H637 C653 0.930 . S
H638 C654 0.931 . S
C639 H627 0.929 . S
C639 C633 1.390 . S
C639 C636 1.386 . S
C640 C635 1.490 . S
C640 C642 1.395 . S
C640 C643 1.403 . S
H641 C647 0.930 . S
C642 H628 0.930 . S
C642 C640 1.395 . S
C642 C645 1.403 . S
C643 C640 1.403 . S
C643 C644 1.524 . S
C643 C647 1.400 . S
C644 H629 0.960 . S
C644 H630 0.960 . S
C644 H631 0.960 . S
C644 C643 1.524 . S
C645 C642 1.403 . S
C645 C646 1.392 . S
C645 C649 1.495 . S
C646 C645 1.392 . S
C646 C647 1.385 . S
C646 C648 1.478 . S
C647 H641 0.930 . S
C647 C643 1.400 . S
C647 C646 1.385 . S
C648 C646 1.478 . S
C648 C650 1.381 . S
C648 C654 1.383 . S
C649 C645 1.495 . S
C649 H655 0.959 . S
C649 H656 0.961 . S
C649 H657 0.960 . S
C650 C648 1.381 . S
C650 C651 1.394 . S
C650 H658 0.930 . S
C651 C650 1.394 . S
C651 C652 1.383 . S
C651 H659 0.929 . S
C652 C651 1.383 . S
C652 C653 1.377 . S
C653 H637 0.930 . S
C653 C652 1.377 . S
C653 C654 1.379 . S
C654 H638 0.931 . S
C654 C648 1.383 . S
C654 C653 1.379 . S
H655 C649 0.959 . S
H656 C649 0.961 . S
H657 C649 0.960 . S
H658 C650 0.930 . S
H659 C651 0.929 . S
H660 C668 0.929 . S
H661 C670 0.930 . S
H662 C672 0.930 . S
H663 C675 0.929 . S
H664 C678 0.930 . S
H665 C680 0.960 . S
H666 C680 0.960 . S
H667 C680 0.960 . S
C668 H660 0.929 . S
C668 C669 1.377 . S
C668 C670 1.384 . S
C669 C668 1.377 . S
C669 C675 1.390 . S
C670 H661 0.930 . S
C670 C668 1.384 . S
C670 C671 1.372 . S
C671 C670 1.372 . S
C671 C672 1.400 . S
C671 C676 1.490 . S
C672 H662 0.930 . S
C672 C671 1.400 . S
C672 C675 1.386 . S
H673 C689 0.930 . S
H674 C690 0.931 . S
C675 H663 0.929 . S
C675 C669 1.390 . S
C675 C672 1.386 . S
C676 C671 1.490 . S
C676 C678 1.395 . S
C676 C679 1.403 . S
H677 C683 0.930 . S
C678 H664 0.930 . S
C678 C676 1.395 . S
C678 C681 1.403 . S
C679 C676 1.403 . S
C679 C680 1.524 . S
C679 C683 1.400 . S
C680 H665 0.960 . S
C680 H666 0.960 . S
C680 H667 0.960 . S
C680 C679 1.524 . S
C681 C678 1.403 . S
C681 C682 1.392 . S
C681 C685 1.495 . S
C682 C681 1.392 . S
C682 C683 1.385 . S
C682 C684 1.478 . S
C683 H677 0.930 . S
C683 C679 1.400 . S
C683 C682 1.385 . S
C684 C682 1.478 . S
C684 C686 1.381 . S
C684 C690 1.383 . S
C685 C681 1.495 . S
C685 H691 0.959 . S
C685 H692 0.961 . S
C685 H693 0.960 . S
C686 C684 1.381 . S
C686 C687 1.394 . S
C686 H694 0.930 . S
C687 C686 1.394 . S
C687 C688 1.383 . S
C687 H695 0.929 . S
C688 C687 1.383 . S
C688 C689 1.377 . S
C689 H673 0.930 . S
C689 C688 1.377 . S
C689 C690 1.379 . S
C690 H674 0.931 . S
C690 C684 1.383 . S
C690 C689 1.379 . S
H691 C685 0.959 . S
H692 C685 0.961 . S
H693 C685 0.960 . S
H694 C686 0.930 . S
H695 C687 0.929 . S
H696 C704 0.929 . S
H697 C706 0.930 . S
H698 C708 0.930 . S
H699 C711 0.929 . S
H700 C714 0.930 . S
H701 C716 0.960 . S
H702 C716 0.960 . S
H703 C716 0.960 . S
C704 H696 0.929 . S
C704 C705 1.377 . S
C704 C706 1.384 . S
C705 C704 1.377 . S
C705 C711 1.390 . S
C706 H697 0.930 . S
C706 C704 1.384 . S
C706 C707 1.372 . S
C707 C706 1.372 . S
C707 C708 1.400 . S
C707 C712 1.490 . S
C708 H698 0.930 . S
C708 C707 1.400 . S
C708 C711 1.386 . S
H709 C725 0.930 . S
H710 C726 0.931 . S
C711 H699 0.929 . S
C711 C705 1.390 . S
C711 C708 1.386 . S
C712 C707 1.490 . S
C712 C714 1.395 . S
C712 C715 1.403 . S
H713 C719 0.930 . S
C714 H700 0.930 . S
C714 C712 1.395 . S
C714 C717 1.403 . S
C715 C712 1.403 . S
C715 C716 1.524 . S
C715 C719 1.400 . S
C716 H701 0.960 . S
C716 H702 0.960 . S
C716 H703 0.960 . S
C716 C715 1.524 . S
C717 C714 1.403 . S
C717 C718 1.392 . S
C717 C721 1.495 . S
C718 C717 1.392 . S
C718 C719 1.385 . S
C718 C720 1.478 . S
C719 H713 0.930 . S
C719 C715 1.400 . S
C719 C718 1.385 . S
C720 C718 1.478 . S
C720 C722 1.381 . S
C720 C726 1.383 . S
C721 C717 1.495 . S
C721 H727 0.959 . S
C721 H728 0.961 . S
C721 H729 0.960 . S
C722 C720 1.381 . S
C722 C723 1.394 . S
C722 H730 0.930 . S
C723 C722 1.394 . S
C723 C724 1.383 . S
C723 H731 0.929 . S
C724 C723 1.383 . S
C724 C725 1.377 . S
C725 H709 0.930 . S
C725 C724 1.377 . S
C725 C726 1.379 . S
C726 H710 0.931 . S
C726 C720 1.383 . S
C726 C725 1.379 . S
H727 C721 0.959 . S
H728 C721 0.961 . S
H729 C721 0.960 . S
H730 C722 0.930 . S
H731 C723 0.929 . S
H732 C740 0.929 . S
H733 C742 0.930 . S
H734 C744 0.930 . S
H735 C747 0.929 . S
H736 C750 0.930 . S
H737 C752 0.960 . S
H738 C752 0.960 . S
H739 C752 0.960 . S
C740 H732 0.929 . S
C740 C741 1.377 . S
C740 C742 1.384 . S
C741 C740 1.377 . S
C741 C747 1.390 . S
C742 H733 0.930 . S
C742 C740 1.384 . S
C742 C743 1.372 . S
C743 C742 1.372 . S
C743 C744 1.400 . S
C743 C748 1.490 . S
C744 H734 0.930 . S
C744 C743 1.400 . S
C744 C747 1.386 . S
H745 C761 0.930 . S
H746 C762 0.931 . S
C747 H735 0.929 . S
C747 C741 1.390 . S
C747 C744 1.386 . S
C748 C743 1.490 . S
C748 C750 1.395 . S
C748 C751 1.403 . S
H749 C755 0.930 . S
C750 H736 0.930 . S
C750 C748 1.395 . S
C750 C753 1.403 . S
C751 C748 1.403 . S
C751 C752 1.524 . S
C751 C755 1.400 . S
C752 H737 0.960 . S
C752 H738 0.960 . S
C752 H739 0.960 . S
C752 C751 1.524 . S
C753 C750 1.403 . S
C753 C754 1.392 . S
C753 C757 1.495 . S
C754 C753 1.392 . S
C754 C755 1.385 . S
C754 C756 1.478 . S
C755 H749 0.930 . S
C755 C751 1.400 . S
C755 C754 1.385 . S
C756 C754 1.478 . S
C756 C758 1.381 . S
C756 C762 1.383 . S
C757 C753 1.495 . S
C757 H763 0.959 . S
C757 H764 0.961 . S
C757 H765 0.960 . S
C758 C756 1.381 . S
C758 C759 1.394 . S
C758 H766 0.930 . S
C759 C758 1.394 . S
C759 C760 1.383 . S
C759 H767 0.929 . S
C760 C759 1.383 . S
C760 C761 1.377 . S
C761 H745 0.930 . S
C761 C760 1.377 . S
C761 C762 1.379 . S
C762 H746 0.931 . S
C762 C756 1.383 . S
C762 C761 1.379 . S
H763 C757 0.959 . S
H764 C757 0.961 . S
H765 C757 0.960 . S
H766 C758 0.930 . S
H767 C759 0.929 . S
H768 C776 0.929 . S
H769 C778 0.930 . S
H770 C780 0.930 . S
H771 C783 0.929 . S
H772 C786 0.930 . S
H773 C788 0.960 . S
H774 C788 0.960 . S
H775 C788 0.960 . S
C776 H768 0.929 . S
C776 C777 1.377 . S
C776 C778 1.384 . S
C777 C776 1.377 . S
C777 C783 1.390 . S
C778 H769 0.930 . S
C778 C776 1.384 . S
C778 C779 1.372 . S
C779 C778 1.372 . S
C779 C780 1.400 . S
C779 C784 1.490 . S
C780 H770 0.930 . S
C780 C779 1.400 . S
C780 C783 1.386 . S
H781 C797 0.930 . S
H782 C798 0.931 . S
C783 H771 0.929 . S
C783 C777 1.390 . S
C783 C780 1.386 . S
C784 C779 1.490 . S
C784 C786 1.395 . S
C784 C787 1.403 . S
H785 C791 0.930 . S
C786 H772 0.930 . S
C786 C784 1.395 . S
C786 C789 1.403 . S
C787 C784 1.403 . S
C787 C788 1.524 . S
C787 C791 1.400 . S
C788 H773 0.960 . S
C788 H774 0.960 . S
C788 H775 0.960 . S
C788 C787 1.524 . S
C789 C786 1.403 . S
C789 C790 1.392 . S
C789 C793 1.495 . S
C790 C789 1.392 . S
C790 C791 1.385 . S
C790 C792 1.478 . S
C791 H785 0.930 . S
C791 C787 1.400 . S
C791 C790 1.385 . S
C792 C790 1.478 . S
C792 C794 1.381 . S
C792 C798 1.383 . S
C793 C789 1.495 . S
C793 H799 0.959 . S
C793 H800 0.961 . S
C793 H801 0.960 . S
C794 C792 1.381 . S
C794 C795 1.394 . S
C794 H802 0.930 . S
C795 C794 1.394 . S
C795 C796 1.383 . S
C795 H803 0.929 . S
C796 C795 1.383 . S
C796 C797 1.377 . S
C797 H781 0.930 . S
C797 C796 1.377 . S
C797 C798 1.379 . S
C798 H782 0.931 . S
C798 C792 1.383 . S
C798 C797 1.379 . S
H799 C793 0.959 . S
H800 C793 0.961 . S
H801 C793 0.960 . S
H802 C794 0.930 . S
H803 C795 0.929 . S
H804 C812 0.929 . S
H805 C814 0.930 . S
H806 C816 0.930 . S
H807 C819 0.929 . S
H808 C822 0.930 . S
H809 C824 0.960 . S
H810 C824 0.960 . S
H811 C824 0.960 . S
C812 H804 0.929 . S
C812 C813 1.377 . S
C812 C814 1.384 . S
C813 C812 1.377 . S
C813 C819 1.390 . S
C814 H805 0.930 . S
C814 C812 1.384 . S
C814 C815 1.372 . S
C815 C814 1.372 . S
C815 C816 1.400 . S
C815 C820 1.490 . S
C816 H806 0.930 . S
C816 C815 1.400 . S
C816 C819 1.386 . S
H817 C833 0.930 . S
H818 C834 0.931 . S
C819 H807 0.929 . S
C819 C813 1.390 . S
C819 C816 1.386 . S
C820 C815 1.490 . S
C820 C822 1.395 . S
C820 C823 1.403 . S
H821 C827 0.930 . S
C822 H808 0.930 . S
C822 C820 1.395 . S
C822 C825 1.403 . S
C823 C820 1.403 . S
C823 C824 1.524 . S
C823 C827 1.400 . S
C824 H809 0.960 . S
C824 H810 0.960 . S
C824 H811 0.960 . S
C824 C823 1.524 . S
C825 C822 1.403 . S
C825 C826 1.392 . S
C825 C829 1.495 . S
C826 C825 1.392 . S
C826 C827 1.385 . S
C826 C828 1.478 . S
C827 H821 0.930 . S
C827 C823 1.400 . S
C827 C826 1.385 . S
C828 C826 1.478 . S
C828 C830 1.381 . S
C828 C834 1.383 . S
C829 C825 1.495 . S
C829 H835 0.959 . S
C829 H836 0.961 . S
C829 H837 0.960 . S
C830 C828 1.381 . S
C830 C831 1.394 . S
C830 H838 0.930 . S
C831 C830 1.394 . S
C831 C832 1.383 . S
C831 H839 0.929 . S
C832 C831 1.383 . S
C832 C833 1.377 . S
C833 H817 0.930 . S
C833 C832 1.377 . S
C833 C834 1.379 . S
C834 H818 0.931 . S
C834 C828 1.383 . S
C834 C833 1.379 . S
H835 C829 0.959 . S
H836 C829 0.961 . S
H837 C829 0.960 . S
H838 C830 0.930 . S
H839 C831 0.929 . S
H840 C848 0.929 . S
H841 C850 0.930 . S
H842 C852 0.930 . S
H843 C855 0.929 . S
H844 C858 0.930 . S
H845 C860 0.960 . S
H846 C860 0.960 . S
H847 C860 0.960 . S
C848 H840 0.929 . S
C848 C849 1.377 . S
C848 C850 1.384 . S
C849 C848 1.377 . S
C849 C855 1.390 . S
C850 H841 0.930 . S
C850 C848 1.384 . S
C850 C851 1.372 . S
C851 C850 1.372 . S
C851 C852 1.400 . S
C851 C856 1.490 . S
C852 H842 0.930 . S
C852 C851 1.400 . S
C852 C855 1.386 . S
H853 C869 0.930 . S
H854 C870 0.931 . S
C855 H843 0.929 . S
C855 C849 1.390 . S
C855 C852 1.386 . S
C856 C851 1.490 . S
C856 C858 1.395 . S
C856 C859 1.403 . S
H857 C863 0.930 . S
C858 H844 0.930 . S
C858 C856 1.395 . S
C858 C861 1.403 . S
C859 C856 1.403 . S
C859 C860 1.524 . S
C859 C863 1.400 . S
C860 H845 0.960 . S
C860 H846 0.960 . S
C860 H847 0.960 . S
C860 C859 1.524 . S
C861 C858 1.403 . S
C861 C862 1.392 . S
C861 C865 1.495 . S
C862 C861 1.392 . S
C862 C863 1.385 . S
C862 C864 1.478 . S
C863 H857 0.930 . S
C863 C859 1.400 . S
C863 C862 1.385 . S
C864 C862 1.478 . S
C864 C866 1.381 . S
C864 C870 1.383 . S
C865 C861 1.495 . S
C865 H871 0.959 . S
C865 H872 0.961 . S
C865 H873 0.960 . S
C866 C864 1.381 . S
C866 C867 1.394 . S
C866 H874 0.930 . S
C867 C866 1.394 . S
C867 C868 1.383 . S
C867 H875 0.929 . S
C868 C867 1.383 . S
C868 C869 1.377 . S
C869 H853 0.930 . S
C869 C868 1.377 . S
C869 C870 1.379 . S
C870 H854 0.931 . S
C870 C864 1.383 . S
C870 C869 1.379 . S
H871 C865 0.959 . S
H872 C865 0.961 . S
H873 C865 0.960 . S
H874 C866 0.930 . S
H875 C867 0.929 . S
H876 C884 0.929 . S
H877 C886 0.930 . S
H878 C888 0.930 . S
H879 C891 0.929 . S
H880 C894 0.930 . S
H881 C896 0.960 . S
H882 C896 0.960 . S
H883 C896 0.960 . S
C884 H876 0.929 . S
C884 C885 1.377 . S
C884 C886 1.384 . S
C885 C884 1.377 . S
C885 C891 1.390 . S
C886 H877 0.930 . S
C886 C884 1.384 . S
C886 C887 1.372 . S
C887 C886 1.372 . S
C887 C888 1.400 . S
C887 C892 1.490 . S
C888 H878 0.930 . S
C888 C887 1.400 . S
C888 C891 1.386 . S
H889 C905 0.930 . S
H890 C906 0.931 . S
C891 H879 0.929 . S
C891 C885 1.390 . S
C891 C888 1.386 . S
C892 C887 1.490 . S
C892 C894 1.395 . S
C892 C895 1.403 . S
H893 C899 0.930 . S
C894 H880 0.930 . S
C894 C892 1.395 . S
C894 C897 1.403 . S
C895 C892 1.403 . S
C895 C896 1.524 . S
C895 C899 1.400 . S
C896 H881 0.960 . S
C896 H882 0.960 . S
C896 H883 0.960 . S
C896 C895 1.524 . S
C897 C894 1.403 . S
C897 C898 1.392 . S
C897 C901 1.495 . S
C898 C897 1.392 . S
C898 C899 1.385 . S
C898 C900 1.478 . S
C899 H893 0.930 . S
C899 C895 1.400 . S
C899 C898 1.385 . S
C900 C898 1.478 . S
C900 C902 1.381 . S
C900 C906 1.383 . S
C901 C897 1.495 . S
C901 H907 0.959 . S
C901 H908 0.961 . S
C901 H909 0.960 . S
C902 C900 1.381 . S
C902 C903 1.394 . S
C902 H910 0.930 . S
C903 C902 1.394 . S
C903 C904 1.383 . S
C903 H911 0.929 . S
C904 C903 1.383 . S
C904 C905 1.377 . S
C905 H889 0.930 . S
C905 C904 1.377 . S
C905 C906 1.379 . S
C906 H890 0.931 . S
C906 C900 1.383 . S
C906 C905 1.379 . S
H907 C901 0.959 . S
H908 C901 0.961 . S
H909 C901 0.960 . S
H910 C902 0.930 . S
H911 C903 0.929 . S
H912 C920 0.929 . S
H913 C922 0.930 . S
H914 C924 0.930 . S
H915 C927 0.929 . S
H916 C930 0.930 . S
H917 C932 0.960 . S
H918 C932 0.960 . S
H919 C932 0.960 . S
C920 H912 0.929 . S
C920 C921 1.377 . S
C920 C922 1.384 . S
C921 C920 1.377 . S
C921 C927 1.390 . S
C922 H913 0.930 . S
C922 C920 1.384 . S
C922 C923 1.372 . S
C923 C922 1.372 . S
C923 C924 1.400 . S
C923 C928 1.490 . S
C924 H914 0.930 . S
C924 C923 1.400 . S
C924 C927 1.386 . S
H925 C941 0.930 . S
H926 C942 0.931 . S
C927 H915 0.929 . S
C927 C921 1.390 . S
C927 C924 1.386 . S
C928 C923 1.490 . S
C928 C930 1.395 . S
C928 C931 1.403 . S
H929 C935 0.930 . S
C930 H916 0.930 . S
C930 C928 1.395 . S
C930 C933 1.403 . S
C931 C928 1.403 . S
C931 C932 1.524 . S
C931 C935 1.400 . S
C932 H917 0.960 . S
C932 H918 0.960 . S
C932 H919 0.960 . S
C932 C931 1.524 . S
C933 C930 1.403 . S
C933 C934 1.392 . S
C933 C937 1.495 . S
C934 C933 1.392 . S
C934 C935 1.385 . S
C934 C936 1.478 . S
C935 H929 0.930 . S
C935 C931 1.400 . S
C935 C934 1.385 . S
C936 C934 1.478 . S
C936 C938 1.381 . S
C936 C942 1.383 . S
C937 C933 1.495 . S
C937 H943 0.959 . S
C937 H944 0.961 . S
C937 H945 0.960 . S
C938 C936 1.381 . S
C938 C939 1.394 . S
C938 H946 0.930 . S
C939 C938 1.394 . S
C939 C940 1.383 . S
C939 H947 0.929 . S
C940 C939 1.383 . S
C940 C941 1.377 . S
C941 H925 0.930 . S
C941 C940 1.377 . S
C941 C942 1.379 . S
C942 H926 0.931 . S
C942 C936 1.383 . S
C942 C941 1.379 . S
H943 C937 0.959 . S
H944 C937 0.961 . S
H945 C937 0.960 . S
H946 C938 0.930 . S
H947 C939 0.929 . S
H948 C956 0.929 . S
H949 C958 0.930 . S
H950 C960 0.930 . S
H951 C963 0.929 . S
H952 C966 0.930 . S
H953 C968 0.960 . S
H954 C968 0.960 . S
H955 C968 0.960 . S
C956 H948 0.929 . S
C956 C957 1.377 . S
C956 C958 1.384 . S
C957 C956 1.377 . S
C957 C963 1.390 . S
C958 H949 0.930 . S
C958 C956 1.384 . S
C958 C959 1.372 . S
C959 C958 1.372 . S
C959 C960 1.400 . S
C959 C964 1.490 . S
C960 H950 0.930 . S
C960 C959 1.400 . S
C960 C963 1.386 . S
H961 C977 0.930 . S
H962 C978 0.931 . S
C963 H951 0.929 . S
C963 C957 1.390 . S
C963 C960 1.386 . S
C964 C959 1.490 . S
C964 C966 1.395 . S
C964 C967 1.403 . S
H965 C971 0.930 . S
C966 H952 0.930 . S
C966 C964 1.395 . S
C966 C969 1.403 . S
C967 C964 1.403 . S
C967 C968 1.524 . S
C967 C971 1.400 . S
C968 H953 0.960 . S
C968 H954 0.960 . S
C968 H955 0.960 . S
C968 C967 1.524 . S
C969 C966 1.403 . S
C969 C970 1.392 . S
C969 C973 1.495 . S
C970 C969 1.392 . S
C970 C971 1.385 . S
C970 C972 1.478 . S
C971 H965 0.930 . S
C971 C967 1.400 . S
C971 C970 1.385 . S
C972 C970 1.478 . S
C972 C974 1.381 . S
C972 C978 1.383 . S
C973 C969 1.495 . S
C973 H979 0.959 . S
C973 H980 0.961 . S
C973 H981 0.960 . S
C974 C972 1.381 . S
C974 C975 1.394 . S
C974 H982 0.930 . S
C975 C974 1.394 . S
C975 C976 1.383 . S
C975 H983 0.929 . S
C976 C975 1.383 . S
C976 C977 1.377 . S
C977 H961 0.930 . S
C977 C976 1.377 . S
C977 C978 1.379 . S
C978 H962 0.931 . S
C978 C972 1.383 . S
C978 C977 1.379 . S
H979 C973 0.959 . S
H980 C973 0.961 . S
H981 C973 0.960 . S
H982 C974 0.930 . S
H983 C975 0.929 . S
H984 C992 0.929 . S
H985 C994 0.930 . S
H986 C996 0.930 . S
H987 C999 0.929 . S
H988 C1002 0.930 . S
H989 C1004 0.960 . S
H990 C1004 0.960 . S
H991 C1004 0.960 . S
C992 H984 0.929 . S
C992 C993 1.377 . S
C992 C994 1.384 . S
C993 C992 1.377 . S
C993 C999 1.390 . S
C994 H985 0.930 . S
C994 C992 1.384 . S
C994 C995 1.372 . S
C995 C994 1.372 . S
C995 C996 1.400 . S
C995 C1000 1.490 . S
C996 H986 0.930 . S
C996 C995 1.400 . S
C996 C999 1.386 . S
H997 C1013 0.930 . S
H998 C1014 0.931 . S
C999 H987 0.929 . S
C999 C993 1.390 . S
C999 C996 1.386 . S
C1000 C995 1.490 . S
C1000 C1002 1.395 . S
C1000 C1003 1.403 . S
H1001 C1007 0.930 . S
C1002 H988 0.930 . S
C1002 C1000 1.395 . S
C1002 C1005 1.403 . S
C1003 C1000 1.403 . S
C1003 C1004 1.524 . S
C1003 C1007 1.400 . S
C1004 H989 0.960 . S
C1004 H990 0.960 . S
C1004 H991 0.960 . S
C1004 C1003 1.524 . S
C1005 C1002 1.403 . S
C1005 C1006 1.392 . S
C1005 C1009 1.495 . S
C1006 C1005 1.392 . S
C1006 C1007 1.385 . S
C1006 C1008 1.478 . S
C1007 H1001 0.930 . S
C1007 C1003 1.400 . S
C1007 C1006 1.385 . S
C1008 C1006 1.478 . S
C1008 C1010 1.381 . S
C1008 C1014 1.383 . S
C1009 C1005 1.495 . S
C1009 H1015 0.959 . S
C1009 H1016 0.961 . S
C1009 H1017 0.960 . S
C1010 C1008 1.381 . S
C1010 C1011 1.394 . S
C1010 H1018 0.930 . S
C1011 C1010 1.394 . S
C1011 C1012 1.383 . S
C1011 H1019 0.929 . S
C1012 C1011 1.383 . S
C1012 C1013 1.377 . S
C1013 H997 0.930 . S
C1013 C1012 1.377 . S
C1013 C1014 1.379 . S
C1014 H998 0.931 . S
C1014 C1008 1.383 . S
C1014 C1013 1.379 . S
H1015 C1009 0.959 . S
H1016 C1009 0.961 . S
H1017 C1009 0.960 . S
H1018 C1010 0.930 . S
H1019 C1011 0.929 . S
H1020 C1028 0.929 . S
H1021 C1030 0.930 . S
H1022 C1032 0.930 . S
H1023 C1035 0.929 . S
H1024 C1038 0.930 . S
H1025 C1040 0.960 . S
H1026 C1040 0.960 . S
H1027 C1040 0.960 . S
C1028 H1020 0.929 . S
C1028 C1029 1.377 . S
C1028 C1030 1.384 . S
C1029 C1028 1.377 . S
C1029 C1035 1.390 . S
C1030 H1021 0.930 . S
C1030 C1028 1.384 . S
C1030 C1031 1.372 . S
C1031 C1030 1.372 . S
C1031 C1032 1.400 . S
C1031 C1036 1.490 . S
C1032 H1022 0.930 . S
C1032 C1031 1.400 . S
C1032 C1035 1.386 . S
H1033 C1049 0.930 . S
H1034 C1050 0.931 . S
C1035 H1023 0.929 . S
C1035 C1029 1.390 . S
C1035 C1032 1.386 . S
C1036 C1031 1.490 . S
C1036 C1038 1.395 . S
C1036 C1039 1.403 . S
H1037 C1043 0.930 . S
C1038 H1024 0.930 . S
C1038 C1036 1.395 . S
C1038 C1041 1.403 . S
C1039 C1036 1.403 . S
C1039 C1040 1.524 . S
C1039 C1043 1.400 . S
C1040 H1025 0.960 . S
C1040 H1026 0.960 . S
C1040 H1027 0.960 . S
C1040 C1039 1.524 . S
C1041 C1038 1.403 . S
C1041 C1042 1.392 . S
C1041 C1045 1.495 . S
C1042 C1041 1.392 . S
C1042 C1043 1.385 . S
C1042 C1044 1.478 . S
C1043 H1037 0.930 . S
C1043 C1039 1.400 . S
C1043 C1042 1.385 . S
C1044 C1042 1.478 . S
C1044 C1046 1.381 . S
C1044 C1050 1.383 . S
C1045 C1041 1.495 . S
C1045 H1051 0.959 . S
C1045 H1052 0.961 . S
C1045 H1053 0.960 . S
C1046 C1044 1.381 . S
C1046 C1047 1.394 . S
C1046 H1054 0.930 . S
C1047 C1046 1.394 . S
C1047 C1048 1.383 . S
C1047 H1055 0.929 . S
C1048 C1047 1.383 . S
C1048 C1049 1.377 . S
C1049 H1033 0.930 . S
C1049 C1048 1.377 . S
C1049 C1050 1.379 . S
C1050 H1034 0.931 . S
C1050 C1044 1.383 . S
C1050 C1049 1.379 . S
H1051 C1045 0.959 . S
H1052 C1045 0.961 . S
H1053 C1045 0.960 . S
H1054 C1046 0.930 . S
H1055 C1047 0.929 . S
H1056 C1064 0.929 . S
H1057 C1066 0.930 . S
H1058 C1068 0.930 . S
H1059 C1071 0.929 . S
H1060 C1074 0.930 . S
H1061 C1076 0.960 . S
H1062 C1076 0.960 . S
H1063 C1076 0.960 . S
C1064 H1056 0.929 . S
C1064 C1065 1.377 . S
C1064 C1066 1.384 . S
C1065 C1064 1.377 . S
C1065 C1071 1.390 . S
C1066 H1057 0.930 . S
C1066 C1064 1.384 . S
C1066 C1067 1.372 . S
C1067 C1066 1.372 . S
C1067 C1068 1.400 . S
C1067 C1072 1.490 . S
C1068 H1058 0.930 . S
C1068 C1067 1.400 . S
C1068 C1071 1.386 . S
H1069 C1085 0.930 . S
H1070 C1086 0.931 . S
C1071 H1059 0.929 . S
C1071 C1065 1.390 . S
C1071 C1068 1.386 . S
C1072 C1067 1.490 . S
C1072 C1074 1.395 . S
C1072 C1075 1.403 . S
H1073 C1079 0.930 . S
C1074 H1060 0.930 . S
C1074 C1072 1.395 . S
C1074 C1077 1.403 . S
C1075 C1072 1.403 . S
C1075 C1076 1.524 . S
C1075 C1079 1.400 . S
C1076 H1061 0.960 . S
C1076 H1062 0.960 . S
C1076 H1063 0.960 . S
C1076 C1075 1.524 . S
C1077 C1074 1.403 . S
C1077 C1078 1.392 . S
C1077 C1081 1.495 . S
C1078 C1077 1.392 . S
C1078 C1079 1.385 . S
C1078 C1080 1.478 . S
C1079 H1073 0.930 . S
C1079 C1075 1.400 . S
C1079 C1078 1.385 . S
C1080 C1078 1.478 . S
C1080 C1082 1.381 . S
C1080 C1086 1.383 . S
C1081 C1077 1.495 . S
C1081 H1087 0.959 . S
C1081 H1088 0.961 . S
C1081 H1089 0.960 . S
C1082 C1080 1.381 . S
C1082 C1083 1.394 . S
C1082 H1090 0.930 . S
C1083 C1082 1.394 . S
C1083 C1084 1.383 . S
C1083 H1091 0.929 . S
C1084 C1083 1.383 . S
C1084 C1085 1.377 . S
C1085 H1069 0.930 . S
C1085 C1084 1.377 . S
C1085 C1086 1.379 . S
C1086 H1070 0.931 . S
C1086 C1080 1.383 . S
C1086 C1085 1.379 . S
H1087 C1081 0.959 . S
H1088 C1081 0.961 . S
H1089 C1081 0.960 . S
H1090 C1082 0.930 . S
H1091 C1083 0.929 . S
H1092 C1100 0.929 . S
H1093 C1102 0.930 . S
H1094 C1104 0.930 . S
H1095 C1107 0.929 . S
H1096 C1110 0.930 . S
H1097 C1112 0.960 . S
H1098 C1112 0.960 . S
H1099 C1112 0.960 . S
C1100 H1092 0.929 . S
C1100 C1101 1.377 . S
C1100 C1102 1.384 . S
C1101 C1100 1.377 . S
C1101 C1107 1.390 . S
C1102 H1093 0.930 . S
C1102 C1100 1.384 . S
C1102 C1103 1.372 . S
C1103 C1102 1.372 . S
C1103 C1104 1.400 . S
C1103 C1108 1.490 . S
C1104 H1094 0.930 . S
C1104 C1103 1.400 . S
C1104 C1107 1.386 . S
H1105 C1121 0.930 . S
H1106 C1122 0.931 . S
C1107 H1095 0.929 . S
C1107 C1101 1.390 . S
C1107 C1104 1.386 . S
C1108 C1103 1.490 . S
C1108 C1110 1.395 . S
C1108 C1111 1.403 . S
H1109 C1115 0.930 . S
C1110 H1096 0.930 . S
C1110 C1108 1.395 . S
C1110 C1113 1.403 . S
C1111 C1108 1.403 . S
C1111 C1112 1.524 . S
C1111 C1115 1.400 . S
C1112 H1097 0.960 . S
C1112 H1098 0.960 . S
C1112 H1099 0.960 . S
C1112 C1111 1.524 . S
C1113 C1110 1.403 . S
C1113 C1114 1.392 . S
C1113 C1117 1.495 . S
C1114 C1113 1.392 . S
C1114 C1115 1.385 . S
C1114 C1116 1.478 . S
C1115 H1109 0.930 . S
C1115 C1111 1.400 . S
C1115 C1114 1.385 . S
C1116 C1114 1.478 . S
C1116 C1118 1.381 . S
C1116 C1122 1.383 . S
C1117 C1113 1.495 . S
C1117 H1123 0.959 . S
C1117 H1124 0.961 . S
C1117 H1125 0.960 . S
C1118 C1116 1.381 . S
C1118 C1119 1.394 . S
C1118 H1126 0.930 . S
C1119 C1118 1.394 . S
C1119 C1120 1.383 . S
C1119 H1127 0.929 . S
C1120 C1119 1.383 . S
C1120 C1121 1.377 . S
C1121 H1105 0.930 . S
C1121 C1120 1.377 . S
C1121 C1122 1.379 . S
C1122 H1106 0.931 . S
C1122 C1116 1.383 . S
C1122 C1121 1.379 . S
H1123 C1117 0.959 . S
H1124 C1117 0.961 . S
H1125 C1117 0.960 . S
H1126 C1118 0.930 . S
H1127 C1119 0.929 . S
H1128 C1136 0.929 . S
H1129 C1138 0.930 . S
H1130 C1140 0.930 . S
H1131 C1143 0.929 . S
H1132 C1146 0.930 . S
H1133 C1148 0.960 . S
H1134 C1148 0.960 . S
H1135 C1148 0.960 . S
C1136 H1128 0.929 . S
C1136 C1137 1.377 . S
C1136 C1138 1.384 . S
C1137 C1136 1.377 . S
C1137 C1143 1.390 . S
C1138 H1129 0.930 . S
C1138 C1136 1.384 . S
C1138 C1139 1.372 . S
C1139 C1138 1.372 . S
C1139 C1140 1.400 . S
C1139 C1144 1.490 . S
C1140 H1130 0.930 . S
C1140 C1139 1.400 . S
C1140 C1143 1.386 . S
H1141 C1157 0.930 . S
H1142 C1158 0.931 . S
C1143 H1131 0.929 . S
C1143 C1137 1.390 . S
C1143 C1140 1.386 . S
C1144 C1139 1.490 . S
C1144 C1146 1.395 . S
C1144 C1147 1.403 . S
H1145 C1151 0.930 . S
C1146 H1132 0.930 . S
C1146 C1144 1.395 . S
C1146 C1149 1.403 . S
C1147 C1144 1.403 . S
C1147 C1148 1.524 . S
C1147 C1151 1.400 . S
C1148 H1133 0.960 . S
C1148 H1134 0.960 . S
C1148 H1135 0.960 . S
C1148 C1147 1.524 . S
C1149 C1146 1.403 . S
C1149 C1150 1.392 . S
C1149 C1153 1.495 . S
C1150 C1149 1.392 . S
C1150 C1151 1.385 . S
C1150 C1152 1.478 . S
C1151 H1145 0.930 . S
C1151 C1147 1.400 . S
C1151 C1150 1.385 . S
C1152 C1150 1.478 . S
C1152 C1154 1.381 . S
C1152 C1158 1.383 . S
C1153 C1149 1.495 . S
C1153 H1159 0.959 . S
C1153 H1160 0.961 . S
C1153 H1161 0.960 . S
C1154 C1152 1.381 . S
C1154 C1155 1.394 . S
C1154 H1162 0.930 . S
C1155 C1154 1.394 . S
C1155 C1156 1.383 . S
C1155 H1163 0.929 . S
C1156 C1155 1.383 . S
C1156 C1157 1.377 . S
C1157 H1141 0.930 . S
C1157 C1156 1.377 . S
C1157 C1158 1.379 . S
C1158 H1142 0.931 . S
C1158 C1152 1.383 . S
C1158 C1157 1.379 . S
H1159 C1153 0.959 . S
H1160 C1153 0.961 . S
H1161 C1153 0.960 . S
H1162 C1154 0.930 . S
H1163 C1155 0.929 . S
H1164 C1172 0.929 . S
H1165 C1174 0.930 . S
H1166 C1176 0.930 . S
H1167 C1179 0.929 . S
H1168 C1182 0.930 . S
H1169 C1184 0.960 . S
H1170 C1184 0.960 . S
H1171 C1184 0.960 . S
C1172 H1164 0.929 . S
C1172 C1173 1.377 . S
C1172 C1174 1.384 . S
C1173 C1172 1.377 . S
C1173 C1179 1.390 . S
C1174 H1165 0.930 . S
C1174 C1172 1.384 . S
C1174 C1175 1.372 . S
C1175 C1174 1.372 . S
C1175 C1176 1.400 . S
C1175 C1180 1.490 . S
C1176 H1166 0.930 . S
C1176 C1175 1.400 . S
C1176 C1179 1.386 . S
H1177 C1193 0.930 . S
H1178 C1194 0.931 . S
C1179 H1167 0.929 . S
C1179 C1173 1.390 . S
C1179 C1176 1.386 . S
C1180 C1175 1.490 . S
C1180 C1182 1.395 . S
C1180 C1183 1.403 . S
H1181 C1187 0.930 . S
C1182 H1168 0.930 . S
C1182 C1180 1.395 . S
C1182 C1185 1.403 . S
C1183 C1180 1.403 . S
C1183 C1184 1.524 . S
C1183 C1187 1.400 . S
C1184 H1169 0.960 . S
C1184 H1170 0.960 . S
C1184 H1171 0.960 . S
C1184 C1183 1.524 . S
C1185 C1182 1.403 . S
C1185 C1186 1.392 . S
C1185 C1189 1.495 . S
C1186 C1185 1.392 . S
C1186 C1187 1.385 . S
C1186 C1188 1.478 . S
C1187 H1181 0.930 . S
C1187 C1183 1.400 . S
C1187 C1186 1.385 . S
C1188 C1186 1.478 . S
C1188 C1190 1.381 . S
C1188 C1194 1.383 . S
C1189 C1185 1.495 . S
C1189 H1195 0.959 . S
C1189 H1196 0.961 . S
C1189 H1197 0.960 . S
C1190 C1188 1.381 . S
C1190 C1191 1.394 . S
C1190 H1198 0.930 . S
C1191 C1190 1.394 . S
C1191 C1192 1.383 . S
C1191 H1199 0.929 . S
C1192 C1191 1.383 . S
C1192 C1193 1.377 . S
C1193 H1177 0.930 . S
C1193 C1192 1.377 . S
C1193 C1194 1.379 . S
C1194 H1178 0.931 . S
C1194 C1188 1.383 . S
C1194 C1193 1.379 . S
H1195 C1189 0.959 . S
H1196 C1189 0.961 . S
H1197 C1189 0.960 . S
H1198 C1190 0.930 . S
H1199 C1191 0.929 . S
H1200 C1208 0.929 . S
H1201 C1210 0.930 . S
H1202 C1212 0.930 . S
H1203 C1215 0.929 . S
H1204 C1218 0.930 . S
H1205 C1220 0.960 . S
H1206 C1220 0.960 . S
H1207 C1220 0.960 . S
C1208 H1200 0.929 . S
C1208 C1209 1.377 . S
C1208 C1210 1.384 . S
C1209 C1208 1.377 . S
C1209 C1215 1.390 . S
C1210 H1201 0.930 . S
C1210 C1208 1.384 . S
C1210 C1211 1.372 . S
C1211 C1210 1.372 . S
C1211 C1212 1.400 . S
C1211 C1216 1.490 . S
C1212 H1202 0.930 . S
C1212 C1211 1.400 . S
C1212 C1215 1.386 . S
H1213 C1229 0.930 . S
H1214 C1230 0.931 . S
C1215 H1203 0.929 . S
C1215 C1209 1.390 . S
C1215 C1212 1.386 . S
C1216 C1211 1.490 . S
C1216 C1218 1.395 . S
C1216 C1219 1.403 . S
H1217 C1223 0.930 . S
C1218 H1204 0.930 . S
C1218 C1216 1.395 . S
C1218 C1221 1.403 . S
C1219 C1216 1.403 . S
C1219 C1220 1.524 . S
C1219 C1223 1.400 . S
C1220 H1205 0.960 . S
C1220 H1206 0.960 . S
C1220 H1207 0.960 . S
C1220 C1219 1.524 . S
C1221 C1218 1.403 . S
C1221 C1222 1.392 . S
C1221 C1225 1.495 . S
C1222 C1221 1.392 . S
C1222 C1223 1.385 . S
C1222 C1224 1.478 . S
C1223 H1217 0.930 . S
C1223 C1219 1.400 . S
C1223 C1222 1.385 . S
C1224 C1222 1.478 . S
C1224 C1226 1.381 . S
C1224 C1230 1.383 . S
C1225 C1221 1.495 . S
C1225 H1231 0.959 . S
C1225 H1232 0.961 . S
C1225 H1233 0.960 . S
C1226 C1224 1.381 . S
C1226 C1227 1.394 . S
C1226 H1234 0.930 . S
C1227 C1226 1.394 . S
C1227 C1228 1.383 . S
C1227 H1235 0.929 . S
C1228 C1227 1.383 . S
C1228 C1229 1.377 . S
C1229 H1213 0.930 . S
C1229 C1228 1.377 . S
C1229 C1230 1.379 . S
C1230 H1214 0.931 . S
C1230 C1224 1.383 . S
C1230 C1229 1.379 . S
H1231 C1225 0.959 . S
H1232 C1225 0.961 . S
H1233 C1225 0.960 . S
H1234 C1226 0.930 . S
H1235 C1227 0.929 . S
H1236 C1244 0.929 . S
H1237 C1246 0.930 . S
H1238 C1248 0.930 . S
H1239 C1251 0.929 . S
H1240 C1254 0.930 . S
H1241 C1256 0.960 . S
H1242 C1256 0.960 . S
H1243 C1256 0.960 . S
C1244 H1236 0.929 . S
C1244 C1245 1.377 . S
C1244 C1246 1.384 . S
C1245 C1244 1.377 . S
C1245 C1251 1.390 . S
C1246 H1237 0.930 . S
C1246 C1244 1.384 . S
C1246 C1247 1.372 . S
C1247 C1246 1.372 . S
C1247 C1248 1.400 . S
C1247 C1252 1.490 . S
C1248 H1238 0.930 . S
C1248 C1247 1.400 . S
C1248 C1251 1.386 . S
H1249 C1265 0.930 . S
H1250 C1266 0.931 . S
C1251 H1239 0.929 . S
C1251 C1245 1.390 . S
C1251 C1248 1.386 . S
C1252 C1247 1.490 . S
C1252 C1254 1.395 . S
C1252 C1255 1.403 . S
H1253 C1259 0.930 . S
C1254 H1240 0.930 . S
C1254 C1252 1.395 . S
C1254 C1257 1.403 . S
C1255 C1252 1.403 . S
C1255 C1256 1.524 . S
C1255 C1259 1.400 . S
C1256 H1241 0.960 . S
C1256 H1242 0.960 . S
C1256 H1243 0.960 . S
C1256 C1255 1.524 . S
C1257 C1254 1.403 . S
C1257 C1258 1.392 . S
C1257 C1261 1.495 . S
C1258 C1257 1.392 . S
C1258 C1259 1.385 . S
C1258 C1260 1.478 . S
C1259 H1253 0.930 . S
C1259 C1255 1.400 . S
C1259 C1258 1.385 . S
C1260 C1258 1.478 . S
C1260 C1262 1.381 . S
C1260 C1266 1.383 . S
C1261 C1257 1.495 . S
C1261 H1267 0.959 . S
C1261 H1268 0.961 . S
C1261 H1269 0.960 . S
C1262 C1260 1.381 . S
C1262 C1263 1.394 . S
C1262 H1270 0.930 . S
C1263 C1262 1.394 . S
C1263 C1264 1.383 . S
C1263 H1271 0.929 . S
C1264 C1263 1.383 . S
C1264 C1265 1.377 . S
C1265 H1249 0.930 . S
C1265 C1264 1.377 . S
C1265 C1266 1.379 . S
C1266 H1250 0.931 . S
C1266 C1260 1.383 . S
C1266 C1265 1.379 . S
H1267 C1261 0.959 . S
H1268 C1261 0.961 . S
H1269 C1261 0.960 . S
H1270 C1262 0.930 . S
H1271 C1263 0.929 . S
H1272 C1280 0.929 . S
H1273 C1282 0.930 . S
H1274 C1284 0.930 . S
H1275 C1287 0.929 . S
H1276 C1290 0.930 . S
H1277 C1292 0.960 . S
H1278 C1292 0.960 . S
H1279 C1292 0.960 . S
C1280 H1272 0.929 . S
C1280 C1281 1.377 . S
C1280 C1282 1.384 . S
C1281 C1280 1.377 . S
C1281 C1287 1.390 . S
C1282 H1273 0.930 . S
C1282 C1280 1.384 . S
C1282 C1283 1.372 . S
C1283 C1282 1.372 . S
C1283 C1284 1.400 . S
C1283 C1288 1.490 . S
C1284 H1274 0.930 . S
C1284 C1283 1.400 . S
C1284 C1287 1.386 . S
H1285 C1301 0.930 . S
H1286 C1302 0.931 . S
C1287 H1275 0.929 . S
C1287 C1281 1.390 . S
C1287 C1284 1.386 . S
C1288 C1283 1.490 . S
C1288 C1290 1.395 . S
C1288 C1291 1.403 . S
H1289 C1295 0.930 . S
C1290 H1276 0.930 . S
C1290 C1288 1.395 . S
C1290 C1293 1.403 . S
C1291 C1288 1.403 . S
C1291 C1292 1.524 . S
C1291 C1295 1.400 . S
C1292 H1277 0.960 . S
C1292 H1278 0.960 . S
C1292 H1279 0.960 . S
C1292 C1291 1.524 . S
C1293 C1290 1.403 . S
C1293 C1294 1.392 . S
C1293 C1297 1.495 . S
C1294 C1293 1.392 . S
C1294 C1295 1.385 . S
C1294 C1296 1.478 . S
C1295 H1289 0.930 . S
C1295 C1291 1.400 . S
C1295 C1294 1.385 . S
C1296 C1294 1.478 . S
C1296 C1298 1.381 . S
C1296 C1302 1.383 . S
C1297 C1293 1.495 . S
C1297 H1303 0.959 . S
C1297 H1304 0.961 . S
C1297 H1305 0.960 . S
C1298 C1296 1.381 . S
C1298 C1299 1.394 . S
C1298 H1306 0.930 . S
C1299 C1298 1.394 . S
C1299 C1300 1.383 . S
C1299 H1307 0.929 . S
C1300 C1299 1.383 . S
C1300 C1301 1.377 . S
C1301 H1285 0.930 . S
C1301 C1300 1.377 . S
C1301 C1302 1.379 . S
C1302 H1286 0.931 . S
C1302 C1296 1.383 . S
C1302 C1301 1.379 . S
H1303 C1297 0.959 . S
H1304 C1297 0.961 . S
H1305 C1297 0.960 . S
H1306 C1298 0.930 . S
H1307 C1299 0.929 . S
H1308 C1316 0.929 . S
H1309 C1318 0.930 . S
H1310 C1320 0.930 . S
H1311 C1323 0.929 . S
H1312 C1326 0.930 . S
H1313 C1328 0.960 . S
H1314 C1328 0.960 . S
H1315 C1328 0.960 . S
C1316 H1308 0.929 . S
C1316 C1317 1.377 . S
C1316 C1318 1.384 . S
C1317 C1316 1.377 . S
C1317 C1323 1.390 . S
C1318 H1309 0.930 . S
C1318 C1316 1.384 . S
C1318 C1319 1.372 . S
C1319 C1318 1.372 . S
C1319 C1320 1.400 . S
C1319 C1324 1.490 . S
C1320 H1310 0.930 . S
C1320 C1319 1.400 . S
C1320 C1323 1.386 . S
H1321 C1337 0.930 . S
H1322 C1338 0.931 . S
C1323 H1311 0.929 . S
C1323 C1317 1.390 . S
C1323 C1320 1.386 . S
C1324 C1319 1.490 . S
C1324 C1326 1.395 . S
C1324 C1327 1.403 . S
H1325 C1331 0.930 . S
C1326 H1312 0.930 . S
C1326 C1324 1.395 . S
C1326 C1329 1.403 . S
C1327 C1324 1.403 . S
C1327 C1328 1.524 . S
C1327 C1331 1.400 . S
C1328 H1313 0.960 . S
C1328 H1314 0.960 . S
C1328 H1315 0.960 . S
C1328 C1327 1.524 . S
C1329 C1326 1.403 . S
C1329 C1330 1.392 . S
C1329 C1333 1.495 . S
C1330 C1329 1.392 . S
C1330 C1331 1.385 . S
C1330 C1332 1.478 . S
C1331 H1325 0.930 . S
C1331 C1327 1.400 . S
C1331 C1330 1.385 . S
C1332 C1330 1.478 . S
C1332 C1334 1.381 . S
C1332 C1338 1.383 . S
C1333 C1329 1.495 . S
C1333 H1339 0.959 . S
C1333 H1340 0.961 . S
C1333 H1341 0.960 . S
C1334 C1332 1.381 . S
C1334 C1335 1.394 . S
C1334 H1342 0.930 . S
C1335 C1334 1.394 . S
C1335 C1336 1.383 . S
C1335 H1343 0.929 . S
C1336 C1335 1.383 . S
C1336 C1337 1.377 . S
C1337 H1321 0.930 . S
C1337 C1336 1.377 . S
C1337 C1338 1.379 . S
C1338 H1322 0.931 . S
C1338 C1332 1.383 . S
C1338 C1337 1.379 . S
H1339 C1333 0.959 . S
H1340 C1333 0.961 . S
H1341 C1333 0.960 . S
H1342 C1334 0.930 . S
H1343 C1335 0.929 . S
H1344 C1352 0.929 . S
H1345 C1354 0.930 . S
H1346 C1356 0.930 . S
H1347 C1359 0.929 . S
H1348 C1362 0.930 . S
H1349 C1364 0.960 . S
H1350 C1364 0.960 . S
H1351 C1364 0.960 . S
C1352 H1344 0.929 . S
C1352 C1353 1.377 . S
C1352 C1354 1.384 . S
C1353 C1352 1.377 . S
C1353 C1359 1.390 . S
C1354 H1345 0.930 . S
C1354 C1352 1.384 . S
C1354 C1355 1.372 . S
C1355 C1354 1.372 . S
C1355 C1356 1.400 . S
C1355 C1360 1.490 . S
C1356 H1346 0.930 . S
C1356 C1355 1.400 . S
C1356 C1359 1.386 . S
H1357 C1373 0.930 . S
H1358 C1374 0.931 . S
C1359 H1347 0.929 . S
C1359 C1353 1.390 . S
C1359 C1356 1.386 . S
C1360 C1355 1.490 . S
C1360 C1362 1.395 . S
C1360 C1363 1.403 . S
H1361 C1367 0.930 . S
C1362 H1348 0.930 . S
C1362 C1360 1.395 . S
C1362 C1365 1.403 . S
C1363 C1360 1.403 . S
C1363 C1364 1.524 . S
C1363 C1367 1.400 . S
C1364 H1349 0.960 . S
C1364 H1350 0.960 . S
C1364 H1351 0.960 . S
C1364 C1363 1.524 . S
C1365 C1362 1.403 . S
C1365 C1366 1.392 . S
C1365 C1369 1.495 . S
C1366 C1365 1.392 . S
C1366 C1367 1.385 . S
C1366 C1368 1.478 . S
C1367 H1361 0.930 . S
C1367 C1363 1.400 . S
C1367 C1366 1.385 . S
C1368 C1366 1.478 . S
C1368 C1370 1.381 . S
C1368 C1374 1.383 . S
C1369 C1365 1.495 . S
C1369 H1375 0.959 . S
C1369 H1376 0.961 . S
C1369 H1377 0.960 . S
C1370 C1368 1.381 . S
C1370 C1371 1.394 . S
C1370 H1378 0.930 . S
C1371 C1370 1.394 . S
C1371 C1372 1.383 . S
C1371 H1379 0.929 . S
C1372 C1371 1.383 . S
C1372 C1373 1.377 . S
C1373 H1357 0.930 . S
C1373 C1372 1.377 . S
C1373 C1374 1.379 . S
C1374 H1358 0.931 . S
C1374 C1368 1.383 . S
C1374 C1373 1.379 . S
H1375 C1369 0.959 . S
H1376 C1369 0.961 . S
H1377 C1369 0.960 . S
H1378 C1370 0.930 . S
H1379 C1371 0.929 . S
H1380 C1388 0.929 . S
H1381 C1390 0.930 . S
H1382 C1392 0.930 . S
H1383 C1395 0.929 . S
H1384 C1398 0.930 . S
H1385 C1400 0.960 . S
H1386 C1400 0.960 . S
H1387 C1400 0.960 . S
C1388 H1380 0.929 . S
C1388 C1389 1.377 . S
C1388 C1390 1.384 . S
C1389 C1388 1.377 . S
C1389 C1395 1.390 . S
C1390 H1381 0.930 . S
C1390 C1388 1.384 . S
C1390 C1391 1.372 . S
C1391 C1390 1.372 . S
C1391 C1392 1.400 . S
C1391 C1396 1.490 . S
C1392 H1382 0.930 . S
C1392 C1391 1.400 . S
C1392 C1395 1.386 . S
H1393 C1409 0.930 . S
H1394 C1410 0.931 . S
C1395 H1383 0.929 . S
C1395 C1389 1.390 . S
C1395 C1392 1.386 . S
C1396 C1391 1.490 . S
C1396 C1398 1.395 . S
C1396 C1399 1.403 . S
H1397 C1403 0.930 . S
C1398 H1384 0.930 . S
C1398 C1396 1.395 . S
C1398 C1401 1.403 . S
C1399 C1396 1.403 . S
C1399 C1400 1.524 . S
C1399 C1403 1.400 . S
C1400 H1385 0.960 . S
C1400 H1386 0.960 . S
C1400 H1387 0.960 . S
C1400 C1399 1.524 . S
C1401 C1398 1.403 . S
C1401 C1402 1.392 . S
C1401 C1405 1.495 . S
C1402 C1401 1.392 . S
C1402 C1403 1.385 . S
C1402 C1404 1.478 . S
C1403 H1397 0.930 . S
C1403 C1399 1.400 . S
C1403 C1402 1.385 . S
C1404 C1402 1.478 . S
C1404 C1406 1.381 . S
C1404 C1410 1.383 . S
C1405 C1401 1.495 . S
C1405 H1411 0.959 . S
C1405 H1412 0.961 . S
C1405 H1413 0.960 . S
C1406 C1404 1.381 . S
C1406 C1407 1.394 . S
C1406 H1414 0.930 . S
C1407 C1406 1.394 . S
C1407 C1408 1.383 . S
C1407 H1415 0.929 . S
C1408 C1407 1.383 . S
C1408 C1409 1.377 . S
C1409 H1393 0.930 . S
C1409 C1408 1.377 . S
C1409 C1410 1.379 . S
C1410 H1394 0.931 . S
C1410 C1404 1.383 . S
C1410 C1409 1.379 . S
H1411 C1405 0.959 . S
H1412 C1405 0.961 . S
H1413 C1405 0.960 . S
H1414 C1406 0.930 . S
H1415 C1407 0.929 . S
H1416 C1424 0.929 . S
H1417 C1426 0.930 . S
H1418 C1428 0.930 . S
H1419 C1431 0.929 . S
H1420 C1434 0.930 . S
H1421 C1436 0.960 . S
H1422 C1436 0.960 . S
H1423 C1436 0.960 . S
C1424 H1416 0.929 . S
C1424 C1425 1.377 . S
C1424 C1426 1.384 . S
C1425 C1424 1.377 . S
C1425 C1431 1.390 . S
C1426 H1417 0.930 . S
C1426 C1424 1.384 . S
C1426 C1427 1.372 . S
C1427 C1426 1.372 . S
C1427 C1428 1.400 . S
C1427 C1432 1.490 . S
C1428 H1418 0.930 . S
C1428 C1427 1.400 . S
C1428 C1431 1.386 . S
H1429 C1445 0.930 . S
H1430 C1446 0.931 . S
C1431 H1419 0.929 . S
C1431 C1425 1.390 . S
C1431 C1428 1.386 . S
C1432 C1427 1.490 . S
C1432 C1434 1.395 . S
C1432 C1435 1.403 . S
H1433 C1439 0.930 . S
C1434 H1420 0.930 . S
C1434 C1432 1.395 . S
C1434 C1437 1.403 . S
C1435 C1432 1.403 . S
C1435 C1436 1.524 . S
C1435 C1439 1.400 . S
C1436 H1421 0.960 . S
C1436 H1422 0.960 . S
C1436 H1423 0.960 . S
C1436 C1435 1.524 . S
C1437 C1434 1.403 . S
C1437 C1438 1.392 . S
C1437 C1441 1.495 . S
C1438 C1437 1.392 . S
C1438 C1439 1.385 . S
C1438 C1440 1.478 . S
C1439 H1433 0.930 . S
C1439 C1435 1.400 . S
C1439 C1438 1.385 . S
C1440 C1438 1.478 . S
C1440 C1442 1.381 . S
C1440 C1446 1.383 . S
C1441 C1437 1.495 . S
C1441 H1447 0.959 . S
C1441 H1448 0.961 . S
C1441 H1449 0.960 . S
C1442 C1440 1.381 . S
C1442 C1443 1.394 . S
C1442 H1450 0.930 . S
C1443 C1442 1.394 . S
C1443 C1444 1.383 . S
C1443 H1451 0.929 . S
C1444 C1443 1.383 . S
C1444 C1445 1.377 . S
C1445 H1429 0.930 . S
C1445 C1444 1.377 . S
C1445 C1446 1.379 . S
C1446 H1430 0.931 . S
C1446 C1440 1.383 . S
C1446 C1445 1.379 . S
H1447 C1441 0.959 . S
H1448 C1441 0.961 . S
H1449 C1441 0.960 . S
H1450 C1442 0.930 . S
H1451 C1443 0.929 . S
H1452 C1460 0.929 . S
H1453 C1462 0.930 . S
H1454 C1464 0.930 . S
H1455 C1467 0.929 . S
H1456 C1470 0.930 . S
H1457 C1472 0.960 . S
H1458 C1472 0.960 . S
H1459 C1472 0.960 . S
C1460 H1452 0.929 . S
C1460 C1461 1.377 . S
C1460 C1462 1.384 . S
C1461 C1460 1.377 . S
C1461 C1467 1.390 . S
C1462 H1453 0.930 . S
C1462 C1460 1.384 . S
C1462 C1463 1.372 . S
C1463 C1462 1.372 . S
C1463 C1464 1.400 . S
C1463 C1468 1.490 . S
C1464 H1454 0.930 . S
C1464 C1463 1.400 . S
C1464 C1467 1.386 . S
H1465 C1481 0.930 . S
H1466 C1482 0.931 . S
C1467 H1455 0.929 . S
C1467 C1461 1.390 . S
C1467 C1464 1.386 . S
C1468 C1463 1.490 . S
C1468 C1470 1.395 . S
C1468 C1471 1.403 . S
H1469 C1475 0.930 . S
C1470 H1456 0.930 . S
C1470 C1468 1.395 . S
C1470 C1473 1.403 . S
C1471 C1468 1.403 . S
C1471 C1472 1.524 . S
C1471 C1475 1.400 . S
C1472 H1457 0.960 . S
C1472 H1458 0.960 . S
C1472 H1459 0.960 . S
C1472 C1471 1.524 . S
C1473 C1470 1.403 . S
C1473 C1474 1.392 . S
C1473 C1477 1.495 . S
C1474 C1473 1.392 . S
C1474 C1475 1.385 . S
C1474 C1476 1.478 . S
C1475 H1469 0.930 . S
C1475 C1471 1.400 . S
C1475 C1474 1.385 . S
C1476 C1474 1.478 . S
C1476 C1478 1.381 . S
C1476 C1482 1.383 . S
C1477 C1473 1.495 . S
C1477 H1483 0.959 . S
C1477 H1484 0.961 . S
C1477 H1485 0.960 . S
C1478 C1476 1.381 . S
C1478 C1479 1.394 . S
C1478 H1486 0.930 . S
C1479 C1478 1.394 . S
C1479 C1480 1.383 . S
C1479 H1487 0.929 . S
C1480 C1479 1.383 . S
C1480 C1481 1.377 . S
C1481 H1465 0.930 . S
C1481 C1480 1.377 . S
C1481 C1482 1.379 . S
C1482 H1466 0.931 . S
C1482 C1476 1.383 . S
C1482 C1481 1.379 . S
H1483 C1477 0.959 . S
H1484 C1477 0.961 . S
H1485 C1477 0.960 . S
H1486 C1478 0.930 . S
H1487 C1479 0.929 . S
H1488 C1496 0.929 . S
H1489 C1498 0.930 . S
H1490 C1500 0.930 . S
H1491 C1503 0.929 . S
H1492 C1506 0.930 . S
H1493 C1508 0.960 . S
H1494 C1508 0.960 . S
H1495 C1508 0.960 . S
C1496 H1488 0.929 . S
C1496 C1497 1.377 . S
C1496 C1498 1.384 . S
C1497 C1496 1.377 . S
C1497 C1503 1.390 . S
C1498 H1489 0.930 . S
C1498 C1496 1.384 . S
C1498 C1499 1.372 . S
C1499 C1498 1.372 . S
C1499 C1500 1.400 . S
C1499 C1504 1.490 . S
C1500 H1490 0.930 . S
C1500 C1499 1.400 . S
C1500 C1503 1.386 . S
H1501 C1517 0.930 . S
H1502 C1518 0.931 . S
C1503 H1491 0.929 . S
C1503 C1497 1.390 . S
C1503 C1500 1.386 . S
C1504 C1499 1.490 . S
C1504 C1506 1.395 . S
C1504 C1507 1.403 . S
H1505 C1511 0.930 . S
C1506 H1492 0.930 . S
C1506 C1504 1.395 . S
C1506 C1509 1.403 . S
C1507 C1504 1.403 . S
C1507 C1508 1.524 . S
C1507 C1511 1.400 . S
C1508 H1493 0.960 . S
C1508 H1494 0.960 . S
C1508 H1495 0.960 . S
C1508 C1507 1.524 . S
C1509 C1506 1.403 . S
C1509 C1510 1.392 . S
C1509 C1513 1.495 . S
C1510 C1509 1.392 . S
C1510 C1511 1.385 . S
C1510 C1512 1.478 . S
C1511 H1505 0.930 . S
C1511 C1507 1.400 . S
C1511 C1510 1.385 . S
C1512 C1510 1.478 . S
C1512 C1514 1.381 . S
C1512 C1518 1.383 . S
C1513 C1509 1.495 . S
C1513 H1519 0.959 . S
C1513 H1520 0.961 . S
C1513 H1521 0.960 . S
C1514 C1512 1.381 . S
C1514 C1515 1.394 . S
C1514 H1522 0.930 . S
C1515 C1514 1.394 . S
C1515 C1516 1.383 . S
C1515 H1523 0.929 . S
C1516 C1515 1.383 . S
C1516 C1517 1.377 . S
C1517 H1501 0.930 . S
C1517 C1516 1.377 . S
C1517 C1518 1.379 . S
C1518 H1502 0.931 . S
C1518 C1512 1.383 . S
C1518 C1517 1.379 . S
H1519 C1513 0.959 . S
H1520 C1513 0.961 . S
H1521 C1513 0.960 . S
H1522 C1514 0.930 . S
H1523 C1515 0.929 . S
H1524 C1532 0.929 . S
H1525 C1534 0.930 . S
H1526 C1536 0.930 . S
H1527 C1539 0.929 . S
H1528 C1542 0.930 . S
H1529 C1544 0.960 . S
H1530 C1544 0.960 . S
H1531 C1544 0.960 . S
C1532 H1524 0.929 . S
C1532 C1533 1.377 . S
C1532 C1534 1.384 . S
C1533 C1532 1.377 . S
C1533 C1539 1.390 . S
C1534 H1525 0.930 . S
C1534 C1532 1.384 . S
C1534 C1535 1.372 . S
C1535 C1534 1.372 . S
C1535 C1536 1.400 . S
C1535 C1540 1.490 . S
C1536 H1526 0.930 . S
C1536 C1535 1.400 . S
C1536 C1539 1.386 . S
H1537 C1553 0.930 . S
H1538 C1554 0.931 . S
C1539 H1527 0.929 . S
C1539 C1533 1.390 . S
C1539 C1536 1.386 . S
C1540 C1535 1.490 . S
C1540 C1542 1.395 . S
C1540 C1543 1.403 . S
H1541 C1547 0.930 . S
C1542 H1528 0.930 . S
C1542 C1540 1.395 . S
C1542 C1545 1.403 . S
C1543 C1540 1.403 . S
C1543 C1544 1.524 . S
C1543 C1547 1.400 . S
C1544 H1529 0.960 . S
C1544 H1530 0.960 . S
C1544 H1531 0.960 . S
C1544 C1543 1.524 . S
C1545 C1542 1.403 . S
C1545 C1546 1.392 . S
C1545 C1549 1.495 . S
C1546 C1545 1.392 . S
C1546 C1547 1.385 . S
C1546 C1548 1.478 . S
C1547 H1541 0.930 . S
C1547 C1543 1.400 . S
C1547 C1546 1.385 . S
C1548 C1546 1.478 . S
C1548 C1550 1.381 . S
C1548 C1554 1.383 . S
C1549 C1545 1.495 . S
C1549 H1555 0.959 . S
C1549 H1556 0.961 . S
C1549 H1557 0.960 . S
C1550 C1548 1.381 . S
C1550 C1551 1.394 . S
C1550 H1558 0.930 . S
C1551 C1550 1.394 . S
C1551 C1552 1.383 . S
C1551 H1559 0.929 . S
C1552 C1551 1.383 . S
C1552 C1553 1.377 . S
C1553 H1537 0.930 . S
C1553 C1552 1.377 . S
C1553 C1554 1.379 . S
C1554 H1538 0.931 . S
C1554 C1548 1.383 . S
C1554 C1553 1.379 . S
H1555 C1549 0.959 . S
H1556 C1549 0.961 . S
H1557 C1549 0.960 . S
H1558 C1550 0.930 . S
H1559 C1551 0.929 . S
H1560 C1568 0.929 . S
H1561 C1570 0.930 . S
H1562 C1572 0.930 . S
H1563 C1575 0.929 . S
H1564 C1578 0.930 . S
H1565 C1580 0.960 . S
H1566 C1580 0.960 . S
H1567 C1580 0.960 . S
C1568 H1560 0.929 . S
C1568 C1569 1.377 . S
C1568 C1570 1.384 . S
C1569 C1568 1.377 . S
C1569 C1575 1.390 . S
C1570 H1561 0.930 . S
C1570 C1568 1.384 . S
C1570 C1571 1.372 . S
C1571 C1570 1.372 . S
C1571 C1572 1.400 . S
C1571 C1576 1.490 . S
C1572 H1562 0.930 . S
C1572 C1571 1.400 . S
C1572 C1575 1.386 . S
H1573 C1589 0.930 . S
H1574 C1590 0.931 . S
C1575 H1563 0.929 . S
C1575 C1569 1.390 . S
C1575 C1572 1.386 . S
C1576 C1571 1.490 . S
C1576 C1578 1.395 . S
C1576 C1579 1.403 . S
H1577 C1583 0.930 . S
C1578 H1564 0.930 . S
C1578 C1576 1.395 . S
C1578 C1581 1.403 . S
C1579 C1576 1.403 . S
C1579 C1580 1.524 . S
C1579 C1583 1.400 . S
C1580 H1565 0.960 . S
C1580 H1566 0.960 . S
C1580 H1567 0.960 . S
C1580 C1579 1.524 . S
C1581 C1578 1.403 . S
C1581 C1582 1.392 . S
C1581 C1585 1.495 . S
C1582 C1581 1.392 . S
C1582 C1583 1.385 . S
C1582 C1584 1.478 . S
C1583 H1577 0.930 . S
C1583 C1579 1.400 . S
C1583 C1582 1.385 . S
C1584 C1582 1.478 . S
C1584 C1586 1.381 . S
C1584 C1590 1.383 . S
C1585 C1581 1.495 . S
C1585 H1591 0.959 . S
C1585 H1592 0.961 . S
C1585 H1593 0.960 . S
C1586 C1584 1.381 . S
C1586 C1587 1.394 . S
C1586 H1594 0.930 . S
C1587 C1586 1.394 . S
C1587 C1588 1.383 . S
C1587 H1595 0.929 . S
C1588 C1587 1.383 . S
C1588 C1589 1.377 . S
C1589 H1573 0.930 . S
C1589 C1588 1.377 . S
C1589 C1590 1.379 . S
C1590 H1574 0.931 . S
C1590 C1584 1.383 . S
C1590 C1589 1.379 . S
H1591 C1585 0.959 . S
H1592 C1585 0.961 . S
H1593 C1585 0.960 . S
H1594 C1586 0.930 . S
H1595 C1587 0.929 . S
H1596 C1604 0.929 . S
H1597 C1606 0.930 . S
H1598 C1608 0.930 . S
H1599 C1611 0.929 . S
H1600 C1614 0.930 . S
H1601 C1616 0.960 . S
H1602 C1616 0.960 . S
H1603 C1616 0.960 . S
C1604 H1596 0.929 . S
C1604 C1605 1.377 . S
C1604 C1606 1.384 . S
C1605 C1604 1.377 . S
C1605 C1611 1.390 . S
C1606 H1597 0.930 . S
C1606 C1604 1.384 . S
C1606 C1607 1.372 . S
C1607 C1606 1.372 . S
C1607 C1608 1.400 . S
C1607 C1612 1.490 . S
C1608 H1598 0.930 . S
C1608 C1607 1.400 . S
C1608 C1611 1.386 . S
H1609 C1625 0.930 . S
H1610 C1626 0.931 . S
C1611 H1599 0.929 . S
C1611 C1605 1.390 . S
C1611 C1608 1.386 . S
C1612 C1607 1.490 . S
C1612 C1614 1.395 . S
C1612 C1615 1.403 . S
H1613 C1619 0.930 . S
C1614 H1600 0.930 . S
C1614 C1612 1.395 . S
C1614 C1617 1.403 . S
C1615 C1612 1.403 . S
C1615 C1616 1.524 . S
C1615 C1619 1.400 . S
C1616 H1601 0.960 . S
C1616 H1602 0.960 . S
C1616 H1603 0.960 . S
C1616 C1615 1.524 . S
C1617 C1614 1.403 . S
C1617 C1618 1.392 . S
C1617 C1621 1.495 . S
C1618 C1617 1.392 . S
C1618 C1619 1.385 . S
C1618 C1620 1.478 . S
C1619 H1613 0.930 . S
C1619 C1615 1.400 . S
C1619 C1618 1.385 . S
C1620 C1618 1.478 . S
C1620 C1622 1.381 . S
C1620 C1626 1.383 . S
C1621 C1617 1.495 . S
C1621 H1627 0.959 . S
C1621 H1628 0.961 . S
C1621 H1629 0.960 . S
C1622 C1620 1.381 . S
C1622 C1623 1.394 . S
C1622 H1630 0.930 . S
C1623 C1622 1.394 . S
C1623 C1624 1.383 . S
C1623 H1631 0.929 . S
C1624 C1623 1.383 . S
C1624 C1625 1.377 . S
C1625 H1609 0.930 . S
C1625 C1624 1.377 . S
C1625 C1626 1.379 . S
C1626 H1610 0.931 . S
C1626 C1620 1.383 . S
C1626 C1625 1.379 . S
H1627 C1621 0.959 . S
H1628 C1621 0.961 . S
H1629 C1621 0.960 . S
H1630 C1622 0.930 . S
H1631 C1623 0.929 . S
H1632 C1640 0.929 . S
H1633 C1642 0.930 . S
H1634 C1644 0.930 . S
H1635 C1647 0.929 . S
H1636 C1650 0.930 . S
H1637 C1652 0.960 . S
H1638 C1652 0.960 . S
H1639 C1652 0.960 . S
C1640 H1632 0.929 . S
C1640 C1641 1.377 . S
C1640 C1642 1.384 . S
C1641 C1640 1.377 . S
C1641 C1647 1.390 . S
C1642 H1633 0.930 . S
C1642 C1640 1.384 . S
C1642 C1643 1.372 . S
C1643 C1642 1.372 . S
C1643 C1644 1.400 . S
C1643 C1648 1.490 . S
C1644 H1634 0.930 . S
C1644 C1643 1.400 . S
C1644 C1647 1.386 . S
H1645 C1661 0.930 . S
H1646 C1662 0.931 . S
C1647 H1635 0.929 . S
C1647 C1641 1.390 . S
C1647 C1644 1.386 . S
C1648 C1643 1.490 . S
C1648 C1650 1.395 . S
C1648 C1651 1.403 . S
H1649 C1655 0.930 . S
C1650 H1636 0.930 . S
C1650 C1648 1.395 . S
C1650 C1653 1.403 . S
C1651 C1648 1.403 . S
C1651 C1652 1.524 . S
C1651 C1655 1.400 . S
C1652 H1637 0.960 . S
C1652 H1638 0.960 . S
C1652 H1639 0.960 . S
C1652 C1651 1.524 . S
C1653 C1650 1.403 . S
C1653 C1654 1.392 . S
C1653 C1657 1.495 . S
C1654 C1653 1.392 . S
C1654 C1655 1.385 . S
C1654 C1656 1.478 . S
C1655 H1649 0.930 . S
C1655 C1651 1.400 . S
C1655 C1654 1.385 . S
C1656 C1654 1.478 . S
C1656 C1658 1.381 . S
C1656 C1662 1.383 . S
C1657 C1653 1.495 . S
C1657 H1663 0.959 . S
C1657 H1664 0.961 . S
C1657 H1665 0.960 . S
C1658 C1656 1.381 . S
C1658 C1659 1.394 . S
C1658 H1666 0.930 . S
C1659 C1658 1.394 . S
C1659 C1660 1.383 . S
C1659 H1667 0.929 . S
C1660 C1659 1.383 . S
C1660 C1661 1.377 . S
C1661 H1645 0.930 . S
C1661 C1660 1.377 . S
C1661 C1662 1.379 . S
C1662 H1646 0.931 . S
C1662 C1656 1.383 . S
C1662 C1661 1.379 . S
H1663 C1657 0.959 . S
H1664 C1657 0.961 . S
H1665 C1657 0.960 . S
H1666 C1658 0.930 . S
H1667 C1659 0.929 . S
H1668 C1676 0.929 . S
H1669 C1678 0.930 . S
H1670 C1680 0.930 . S
H1671 C1683 0.929 . S
H1672 C1686 0.930 . S
H1673 C1688 0.960 . S
H1674 C1688 0.960 . S
H1675 C1688 0.960 . S
C1676 H1668 0.929 . S
C1676 C1677 1.377 . S
C1676 C1678 1.384 . S
C1677 C1676 1.377 . S
C1677 C1683 1.390 . S
C1678 H1669 0.930 . S
C1678 C1676 1.384 . S
C1678 C1679 1.372 . S
C1679 C1678 1.372 . S
C1679 C1680 1.400 . S
C1679 C1684 1.490 . S
C1680 H1670 0.930 . S
C1680 C1679 1.400 . S
C1680 C1683 1.386 . S
H1681 C1697 0.930 . S
H1682 C1698 0.931 . S
C1683 H1671 0.929 . S
C1683 C1677 1.390 . S
C1683 C1680 1.386 . S
C1684 C1679 1.490 . S
C1684 C1686 1.395 . S
C1684 C1687 1.403 . S
H1685 C1691 0.930 . S
C1686 H1672 0.930 . S
C1686 C1684 1.395 . S
C1686 C1689 1.403 . S
C1687 C1684 1.403 . S
C1687 C1688 1.524 . S
C1687 C1691 1.400 . S
C1688 H1673 0.960 . S
C1688 H1674 0.960 . S
C1688 H1675 0.960 . S
C1688 C1687 1.524 . S
C1689 C1686 1.403 . S
C1689 C1690 1.392 . S
C1689 C1693 1.495 . S
C1690 C1689 1.392 . S
C1690 C1691 1.385 . S
C1690 C1692 1.478 . S
C1691 H1685 0.930 . S
C1691 C1687 1.400 . S
C1691 C1690 1.385 . S
C1692 C1690 1.478 . S
C1692 C1694 1.381 . S
C1692 C1698 1.383 . S
C1693 C1689 1.495 . S
C1693 H1699 0.959 . S
C1693 H1700 0.961 . S
C1693 H1701 0.960 . S
C1694 C1692 1.381 . S
C1694 C1695 1.394 . S
C1694 H1702 0.930 . S
C1695 C1694 1.394 . S
C1695 C1696 1.383 . S
C1695 H1703 0.929 . S
C1696 C1695 1.383 . S
C1696 C1697 1.377 . S
C1697 H1681 0.930 . S
C1697 C1696 1.377 . S
C1697 C1698 1.379 . S
C1698 H1682 0.931 . S
C1698 C1692 1.383 . S
C1698 C1697 1.379 . S
H1699 C1693 0.959 . S
H1700 C1693 0.961 . S
H1701 C1693 0.960 . S
H1702 C1694 0.930 . S
H1703 C1695 0.929 . S
H1704 C1712 0.929 . S
H1705 C1714 0.930 . S
H1706 C1716 0.930 . S
H1707 C1719 0.929 . S
H1708 C1722 0.930 . S
H1709 C1724 0.960 . S
H1710 C1724 0.960 . S
H1711 C1724 0.960 . S
C1712 H1704 0.929 . S
C1712 C1713 1.377 . S
C1712 C1714 1.384 . S
C1713 C1712 1.377 . S
C1713 C1719 1.390 . S
C1714 H1705 0.930 . S
C1714 C1712 1.384 . S
C1714 C1715 1.372 . S
C1715 C1714 1.372 . S
C1715 C1716 1.400 . S
C1715 C1720 1.490 . S
C1716 H1706 0.930 . S
C1716 C1715 1.400 . S
C1716 C1719 1.386 . S
H1717 C1733 0.930 . S
H1718 C1734 0.931 . S
C1719 H1707 0.929 . S
C1719 C1713 1.390 . S
C1719 C1716 1.386 . S
C1720 C1715 1.490 . S
C1720 C1722 1.395 . S
C1720 C1723 1.403 . S
H1721 C1727 0.930 . S
C1722 H1708 0.930 . S
C1722 C1720 1.395 . S
C1722 C1725 1.403 . S
C1723 C1720 1.403 . S
C1723 C1724 1.524 . S
C1723 C1727 1.400 . S
C1724 H1709 0.960 . S
C1724 H1710 0.960 . S
C1724 H1711 0.960 . S
C1724 C1723 1.524 . S
C1725 C1722 1.403 . S
C1725 C1726 1.392 . S
C1725 C1729 1.495 . S
C1726 C1725 1.392 . S
C1726 C1727 1.385 . S
C1726 C1728 1.478 . S
C1727 H1721 0.930 . S
C1727 C1723 1.400 . S
C1727 C1726 1.385 . S
C1728 C1726 1.478 . S
C1728 C1730 1.381 . S
C1728 C1734 1.383 . S
C1729 C1725 1.495 . S
C1729 H1735 0.959 . S
C1729 H1736 0.961 . S
C1729 H1737 0.960 . S
C1730 C1728 1.381 . S
C1730 C1731 1.394 . S
C1730 H1738 0.930 . S
C1731 C1730 1.394 . S
C1731 C1732 1.383 . S
C1731 H1739 0.929 . S
C1732 C1731 1.383 . S
C1732 C1733 1.377 . S
C1733 H1717 0.930 . S
C1733 C1732 1.377 . S
C1733 C1734 1.379 . S
C1734 H1718 0.931 . S
C1734 C1728 1.383 . S
C1734 C1733 1.379 . S
H1735 C1729 0.959 . S
H1736 C1729 0.961 . S
H1737 C1729 0.960 . S
H1738 C1730 0.930 . S
H1739 C1731 0.929 . S
H1740 C1748 0.929 . S
H1741 C1750 0.930 . S
H1742 C1752 0.930 . S
H1743 C1755 0.929 . S
H1744 C1758 0.930 . S
H1745 C1760 0.960 . S
H1746 C1760 0.960 . S
H1747 C1760 0.960 . S
C1748 H1740 0.929 . S
C1748 C1749 1.377 . S
C1748 C1750 1.384 . S
C1749 C1748 1.377 . S
C1749 C1755 1.390 . S
C1750 H1741 0.930 . S
C1750 C1748 1.384 . S
C1750 C1751 1.372 . S
C1751 C1750 1.372 . S
C1751 C1752 1.400 . S
C1751 C1756 1.490 . S
C1752 H1742 0.930 . S
C1752 C1751 1.400 . S
C1752 C1755 1.386 . S
H1753 C1769 0.930 . S
H1754 C1770 0.931 . S
C1755 H1743 0.929 . S
C1755 C1749 1.390 . S
C1755 C1752 1.386 . S
C1756 C1751 1.490 . S
C1756 C1758 1.395 . S
C1756 C1759 1.403 . S
H1757 C1763 0.930 . S
C1758 H1744 0.930 . S
C1758 C1756 1.395 . S
C1758 C1761 1.403 . S
C1759 C1756 1.403 . S
C1759 C1760 1.524 . S
C1759 C1763 1.400 . S
C1760 H1745 0.960 . S
C1760 H1746 0.960 . S
C1760 H1747 0.960 . S
C1760 C1759 1.524 . S
C1761 C1758 1.403 . S
C1761 C1762 1.392 . S
C1761 C1765 1.495 . S
C1762 C1761 1.392 . S
C1762 C1763 1.385 . S
C1762 C1764 1.478 . S
C1763 H1757 0.930 . S
C1763 C1759 1.400 . S
C1763 C1762 1.385 . S
C1764 C1762 1.478 . S
C1764 C1766 1.381 . S
C1764 C1770 1.383 . S
C1765 C1761 1.495 . S
C1765 H1771 0.959 . S
C1765 H1772 0.961 . S
C1765 H1773 0.960 . S
C1766 C1764 1.381 . S
C1766 C1767 1.394 . S
C1766 H1774 0.930 . S
C1767 C1766 1.394 . S
C1767 C1768 1.383 . S
C1767 H1775 0.929 . S
C1768 C1767 1.383 . S
C1768 C1769 1.377 . S
C1769 H1753 0.930 . S
C1769 C1768 1.377 . S
C1769 C1770 1.379 . S
C1770 H1754 0.931 . S
C1770 C1764 1.383 . S
C1770 C1769 1.379 . S
H1771 C1765 0.959 . S
H1772 C1765 0.961 . S
H1773 C1765 0.960 . S
H1774 C1766 0.930 . S
H1775 C1767 0.929 . S
H1776 C1784 0.929 . S
H1777 C1786 0.930 . S
H1778 C1788 0.930 . S
H1779 C1791 0.929 . S
H1780 C1794 0.930 . S
H1781 C1796 0.960 . S
H1782 C1796 0.960 . S
H1783 C1796 0.960 . S
C1784 H1776 0.929 . S
C1784 C1785 1.377 . S
C1784 C1786 1.384 . S
C1785 C1784 1.377 . S
C1785 C1791 1.390 . S
C1786 H1777 0.930 . S
C1786 C1784 1.384 . S
C1786 C1787 1.372 . S
C1787 C1786 1.372 . S
C1787 C1788 1.400 . S
C1787 C1792 1.490 . S
C1788 H1778 0.930 . S
C1788 C1787 1.400 . S
C1788 C1791 1.386 . S
H1789 C1805 0.930 . S
H1790 C1806 0.931 . S
C1791 H1779 0.929 . S
C1791 C1785 1.390 . S
C1791 C1788 1.386 . S
C1792 C1787 1.490 . S
C1792 C1794 1.395 . S
C1792 C1795 1.403 . S
H1793 C1799 0.930 . S
C1794 H1780 0.930 . S
C1794 C1792 1.395 . S
C1794 C1797 1.403 . S
C1795 C1792 1.403 . S
C1795 C1796 1.524 . S
C1795 C1799 1.400 . S
C1796 H1781 0.960 . S
C1796 H1782 0.960 . S
C1796 H1783 0.960 . S
C1796 C1795 1.524 . S
C1797 C1794 1.403 . S
C1797 C1798 1.392 . S
C1797 C1801 1.495 . S
C1798 C1797 1.392 . S
C1798 C1799 1.385 . S
C1798 C1800 1.478 . S
C1799 H1793 0.930 . S
C1799 C1795 1.400 . S
C1799 C1798 1.385 . S
C1800 C1798 1.478 . S
C1800 C1802 1.381 . S
C1800 C1806 1.383 . S
C1801 C1797 1.495 . S
C1801 H1807 0.959 . S
C1801 H1808 0.961 . S
C1801 H1809 0.960 . S
C1802 C1800 1.381 . S
C1802 C1803 1.394 . S
C1802 H1810 0.930 . S
C1803 C1802 1.394 . S
C1803 C1804 1.383 . S
C1803 H1811 0.929 . S
C1804 C1803 1.383 . S
C1804 C1805 1.377 . S
C1805 H1789 0.930 . S
C1805 C1804 1.377 . S
C1805 C1806 1.379 . S
C1806 H1790 0.931 . S
C1806 C1800 1.383 . S
C1806 C1805 1.379 . S
H1807 C1801 0.959 . S
H1808 C1801 0.961 . S
H1809 C1801 0.960 . S
H1810 C1802 0.930 . S
H1811 C1803 0.929 . S
H1812 C1820 0.929 . S
H1813 C1822 0.930 . S
H1814 C1824 0.930 . S
H1815 C1827 0.929 . S
H1816 C1830 0.930 . S
H1817 C1832 0.960 . S
H1818 C1832 0.960 . S
H1819 C1832 0.960 . S
C1820 H1812 0.929 . S
C1820 C1821 1.377 . S
C1820 C1822 1.384 . S
C1821 C1820 1.377 . S
C1821 C1827 1.390 . S
C1822 H1813 0.930 . S
C1822 C1820 1.384 . S
C1822 C1823 1.372 . S
C1823 C1822 1.372 . S
C1823 C1824 1.400 . S
C1823 C1828 1.490 . S
C1824 H1814 0.930 . S
C1824 C1823 1.400 . S
C1824 C1827 1.386 . S
H1825 C1841 0.930 . S
H1826 C1842 0.931 . S
C1827 H1815 0.929 . S
C1827 C1821 1.390 . S
C1827 C1824 1.386 . S
C1828 C1823 1.490 . S
C1828 C1830 1.395 . S
C1828 C1831 1.403 . S
H1829 C1835 0.930 . S
C1830 H1816 0.930 . S
C1830 C1828 1.395 . S
C1830 C1833 1.403 . S
C1831 C1828 1.403 . S
C1831 C1832 1.524 . S
C1831 C1835 1.400 . S
C1832 H1817 0.960 . S
C1832 H1818 0.960 . S
C1832 H1819 0.960 . S
C1832 C1831 1.524 . S
C1833 C1830 1.403 . S
C1833 C1834 1.392 . S
C1833 C1837 1.495 . S
C1834 C1833 1.392 . S
C1834 C1835 1.385 . S
C1834 C1836 1.478 . S
C1835 H1829 0.930 . S
C1835 C1831 1.400 . S
C1835 C1834 1.385 . S
C1836 C1834 1.478 . S
C1836 C1838 1.381 . S
C1836 C1842 1.383 . S
C1837 C1833 1.495 . S
C1837 H1843 0.959 . S
C1837 H1844 0.961 . S
C1837 H1845 0.960 . S
C1838 C1836 1.381 . S
C1838 C1839 1.394 . S
C1838 H1846 0.930 . S
C1839 C1838 1.394 . S
C1839 C1840 1.383 . S
C1839 H1847 0.929 . S
C1840 C1839 1.383 . S
C1840 C1841 1.377 . S
C1841 H1825 0.930 . S
C1841 C1840 1.377 . S
C1841 C1842 1.379 . S
C1842 H1826 0.931 . S
C1842 C1836 1.383 . S
C1842 C1841 1.379 . S
H1843 C1837 0.959 . S
H1844 C1837 0.961 . S
H1845 C1837 0.960 . S
H1846 C1838 0.930 . S
H1847 C1839 0.929 . S
H1848 C1856 0.929 . S
H1849 C1858 0.930 . S
H1850 C1860 0.930 . S
H1851 C1863 0.929 . S
H1852 C1866 0.930 . S
H1853 C1868 0.960 . S
H1854 C1868 0.960 . S
H1855 C1868 0.960 . S
C1856 H1848 0.929 . S
C1856 C1857 1.377 . S
C1856 C1858 1.384 . S
C1857 C1856 1.377 . S
C1857 C1863 1.390 . S
C1858 H1849 0.930 . S
C1858 C1856 1.384 . S
C1858 C1859 1.372 . S
C1859 C1858 1.372 . S
C1859 C1860 1.400 . S
C1859 C1864 1.490 . S
C1860 H1850 0.930 . S
C1860 C1859 1.400 . S
C1860 C1863 1.386 . S
H1861 C1877 0.930 . S
H1862 C1878 0.931 . S
C1863 H1851 0.929 . S
C1863 C1857 1.390 . S
C1863 C1860 1.386 . S
C1864 C1859 1.490 . S
C1864 C1866 1.395 . S
C1864 C1867 1.403 . S
H1865 C1871 0.930 . S
C1866 H1852 0.930 . S
C1866 C1864 1.395 . S
C1866 C1869 1.403 . S
C1867 C1864 1.403 . S
C1867 C1868 1.524 . S
C1867 C1871 1.400 . S
C1868 H1853 0.960 . S
C1868 H1854 0.960 . S
C1868 H1855 0.960 . S
C1868 C1867 1.524 . S
C1869 C1866 1.403 . S
C1869 C1870 1.392 . S
C1869 C1873 1.495 . S
C1870 C1869 1.392 . S
C1870 C1871 1.385 . S
C1870 C1872 1.478 . S
C1871 H1865 0.930 . S
C1871 C1867 1.400 . S
C1871 C1870 1.385 . S
C1872 C1870 1.478 . S
C1872 C1874 1.381 . S
C1872 C1878 1.383 . S
C1873 C1869 1.495 . S
C1873 H1879 0.959 . S
C1873 H1880 0.961 . S
C1873 H1881 0.960 . S
C1874 C1872 1.381 . S
C1874 C1875 1.394 . S
C1874 H1882 0.930 . S
C1875 C1874 1.394 . S
C1875 C1876 1.383 . S
C1875 H1883 0.929 . S
C1876 C1875 1.383 . S
C1876 C1877 1.377 . S
C1877 H1861 0.930 . S
C1877 C1876 1.377 . S
C1877 C1878 1.379 . S
C1878 H1862 0.931 . S
C1878 C1872 1.383 . S
C1878 C1877 1.379 . S
H1879 C1873 0.959 . S
H1880 C1873 0.961 . S
H1881 C1873 0.960 . S
H1882 C1874 0.930 . S
H1883 C1875 0.929 . S
H1884 C1892 0.929 . S
H1885 C1894 0.930 . S
H1886 C1896 0.930 . S
H1887 C1899 0.929 . S
H1888 C1902 0.930 . S
H1889 C1904 0.960 . S
H1890 C1904 0.960 . S
H1891 C1904 0.960 . S
C1892 H1884 0.929 . S
C1892 C1893 1.377 . S
C1892 C1894 1.384 . S
C1893 C1892 1.377 . S
C1893 C1899 1.390 . S
C1894 H1885 0.930 . S
C1894 C1892 1.384 . S
C1894 C1895 1.372 . S
C1895 C1894 1.372 . S
C1895 C1896 1.400 . S
C1895 C1900 1.490 . S
C1896 H1886 0.930 . S
C1896 C1895 1.400 . S
C1896 C1899 1.386 . S
H1897 C1913 0.930 . S
H1898 C1914 0.931 . S
C1899 H1887 0.929 . S
C1899 C1893 1.390 . S
C1899 C1896 1.386 . S
C1900 C1895 1.490 . S
C1900 C1902 1.395 . S
C1900 C1903 1.403 . S
H1901 C1907 0.930 . S
C1902 H1888 0.930 . S
C1902 C1900 1.395 . S
C1902 C1905 1.403 . S
C1903 C1900 1.403 . S
C1903 C1904 1.524 . S
C1903 C1907 1.400 . S
C1904 H1889 0.960 . S
C1904 H1890 0.960 . S
C1904 H1891 0.960 . S
C1904 C1903 1.524 . S
C1905 C1902 1.403 . S
C1905 C1906 1.392 . S
C1905 C1909 1.495 . S
C1906 C1905 1.392 . S
C1906 C1907 1.385 . S
C1906 C1908 1.478 . S
C1907 H1901 0.930 . S
C1907 C1903 1.400 . S
C1907 C1906 1.385 . S
C1908 C1906 1.478 . S
C1908 C1910 1.381 . S
C1908 C1914 1.383 . S
C1909 C1905 1.495 . S
C1909 H1915 0.959 . S
C1909 H1916 0.961 . S
C1909 H1917 0.960 . S
C1910 C1908 1.381 . S
C1910 C1911 1.394 . S
C1910 H1918 0.930 . S
C1911 C1910 1.394 . S
C1911 C1912 1.383 . S
C1911 H1919 0.929 . S
C1912 C1911 1.383 . S
C1912 C1913 1.377 . S
C1913 H1897 0.930 . S
C1913 C1912 1.377 . S
C1913 C1914 1.379 . S
C1914 H1898 0.931 . S
C1914 C1908 1.383 . S
C1914 C1913 1.379 . S
H1915 C1909 0.959 . S
H1916 C1909 0.961 . S
H1917 C1909 0.960 . S
H1918 C1910 0.930 . S
H1919 C1911 0.929 . S
H1920 C1928 0.929 . S
H1921 C1930 0.930 . S
H1922 C1932 0.930 . S
H1923 C1935 0.929 . S
H1924 C1938 0.930 . S
H1925 C1940 0.960 . S
H1926 C1940 0.960 . S
H1927 C1940 0.960 . S
C1928 H1920 0.929 . S
C1928 C1929 1.377 . S
C1928 C1930 1.384 . S
C1929 C1928 1.377 . S
C1929 C1935 1.390 . S
C1930 H1921 0.930 . S
C1930 C1928 1.384 . S
C1930 C1931 1.372 . S
C1931 C1930 1.372 . S
C1931 C1932 1.400 . S
C1931 C1936 1.490 . S
C1932 H1922 0.930 . S
C1932 C1931 1.400 . S
C1932 C1935 1.386 . S
H1933 C1949 0.930 . S
H1934 C1950 0.931 . S
C1935 H1923 0.929 . S
C1935 C1929 1.390 . S
C1935 C1932 1.386 . S
C1936 C1931 1.490 . S
C1936 C1938 1.395 . S
C1936 C1939 1.403 . S
H1937 C1943 0.930 . S
C1938 H1924 0.930 . S
C1938 C1936 1.395 . S
C1938 C1941 1.403 . S
C1939 C1936 1.403 . S
C1939 C1940 1.524 . S
C1939 C1943 1.400 . S
C1940 H1925 0.960 . S
C1940 H1926 0.960 . S
C1940 H1927 0.960 . S
C1940 C1939 1.524 . S
C1941 C1938 1.403 . S
C1941 C1942 1.392 . S
C1941 C1945 1.495 . S
C1942 C1941 1.392 . S
C1942 C1943 1.385 . S
C1942 C1944 1.478 . S
C1943 H1937 0.930 . S
C1943 C1939 1.400 . S
C1943 C1942 1.385 . S
C1944 C1942 1.478 . S
C1944 C1946 1.381 . S
C1944 C1950 1.383 . S
C1945 C1941 1.495 . S
C1945 H1951 0.959 . S
C1945 H1952 0.961 . S
C1945 H1953 0.960 . S
C1946 C1944 1.381 . S
C1946 C1947 1.394 . S
C1946 H1954 0.930 . S
C1947 C1946 1.394 . S
C1947 C1948 1.383 . S
C1947 H1955 0.929 . S
C1948 C1947 1.383 . S
C1948 C1949 1.377 . S
C1949 H1933 0.930 . S
C1949 C1948 1.377 . S
C1949 C1950 1.379 . S
C1950 H1934 0.931 . S
C1950 C1944 1.383 . S
C1950 C1949 1.379 . S
H1951 C1945 0.959 . S
H1952 C1945 0.961 . S
H1953 C1945 0.960 . S
H1954 C1946 0.930 . S
H1955 C1947 0.929 . S
H1956 C1964 0.929 . S
H1957 C1966 0.930 . S
H1958 C1968 0.930 . S
H1959 C1971 0.929 . S
H1960 C1974 0.930 . S
H1961 C1976 0.960 . S
H1962 C1976 0.960 . S
H1963 C1976 0.960 . S
C1964 H1956 0.929 . S
C1964 C1965 1.377 . S
C1964 C1966 1.384 . S
C1965 C1964 1.377 . S
C1965 C1971 1.390 . S
C1966 H1957 0.930 . S
C1966 C1964 1.384 . S
C1966 C1967 1.372 . S
C1967 C1966 1.372 . S
C1967 C1968 1.400 . S
C1967 C1972 1.490 . S
C1968 H1958 0.930 . S
C1968 C1967 1.400 . S
C1968 C1971 1.386 . S
H1969 C1985 0.930 . S
H1970 C1986 0.931 . S
C1971 H1959 0.929 . S
C1971 C1965 1.390 . S
C1971 C1968 1.386 . S
C1972 C1967 1.490 . S
C1972 C1974 1.395 . S
C1972 C1975 1.403 . S
H1973 C1979 0.930 . S
C1974 H1960 0.930 . S
C1974 C1972 1.395 . S
C1974 C1977 1.403 . S
C1975 C1972 1.403 . S
C1975 C1976 1.524 . S
C1975 C1979 1.400 . S
C1976 H1961 0.960 . S
C1976 H1962 0.960 . S
C1976 H1963 0.960 . S
C1976 C1975 1.524 . S
C1977 C1974 1.403 . S
C1977 C1978 1.392 . S
C1977 C1981 1.495 . S
C1978 C1977 1.392 . S
C1978 C1979 1.385 . S
C1978 C1980 1.478 . S
C1979 H1973 0.930 . S
C1979 C1975 1.400 . S
C1979 C1978 1.385 . S
C1980 C1978 1.478 . S
C1980 C1982 1.381 . S
C1980 C1986 1.383 . S
C1981 C1977 1.495 . S
C1981 H1987 0.959 . S
C1981 H1988 0.961 . S
C1981 H1989 0.960 . S
C1982 C1980 1.381 . S
C1982 C1983 1.394 . S
C1982 H1990 0.930 . S
C1983 C1982 1.394 . S
C1983 C1984 1.383 . S
C1983 H1991 0.929 . S
C1984 C1983 1.383 . S
C1984 C1985 1.377 . S
C1985 H1969 0.930 . S
C1985 C1984 1.377 . S
C1985 C1986 1.379 . S
C1986 H1970 0.931 . S
C1986 C1980 1.383 . S
C1986 C1985 1.379 . S
H1987 C1981 0.959 . S
H1988 C1981 0.961 . S
H1989 C1981 0.960 . S
H1990 C1982 0.930 . S
H1991 C1983 0.929 . S
H1992 C2000 0.929 . S
H1993 C2002 0.930 . S
H1994 C2004 0.930 . S
H1995 C2007 0.929 . S
H1996 C2010 0.930 . S
H1997 C2012 0.960 . S
H1998 C2012 0.960 . S
H1999 C2012 0.960 . S
C2000 H1992 0.929 . S
C2000 C2001 1.377 . S
C2000 C2002 1.384 . S
C2001 C2000 1.377 . S
C2001 C2007 1.390 . S
C2002 H1993 0.930 . S
C2002 C2000 1.384 . S
C2002 C2003 1.372 . S
C2003 C2002 1.372 . S
C2003 C2004 1.400 . S
C2003 C2008 1.490 . S
C2004 H1994 0.930 . S
C2004 C2003 1.400 . S
C2004 C2007 1.386 . S
H2005 C2021 0.930 . S
H2006 C2022 0.931 . S
C2007 H1995 0.929 . S
C2007 C2001 1.390 . S
C2007 C2004 1.386 . S
C2008 C2003 1.490 . S
C2008 C2010 1.395 . S
C2008 C2011 1.403 . S
H2009 C2015 0.930 . S
C2010 H1996 0.930 . S
C2010 C2008 1.395 . S
C2010 C2013 1.403 . S
C2011 C2008 1.403 . S
C2011 C2012 1.524 . S
C2011 C2015 1.400 . S
C2012 H1997 0.960 . S
C2012 H1998 0.960 . S
C2012 H1999 0.960 . S
C2012 C2011 1.524 . S
C2013 C2010 1.403 . S
C2013 C2014 1.392 . S
C2013 C2017 1.495 . S
C2014 C2013 1.392 . S
C2014 C2015 1.385 . S
C2014 C2016 1.478 . S
C2015 H2009 0.930 . S
C2015 C2011 1.400 . S
C2015 C2014 1.385 . S
C2016 C2014 1.478 . S
C2016 C2018 1.381 . S
C2016 C2022 1.383 . S
C2017 C2013 1.495 . S
C2017 H2023 0.959 . S
C2017 H2024 0.961 . S
C2017 H2025 0.960 . S
C2018 C2016 1.381 . S
C2018 C2019 1.394 . S
C2018 H2026 0.930 . S
C2019 C2018 1.394 . S
C2019 C2020 1.383 . S
C2019 H2027 0.929 . S
C2020 C2019 1.383 . S
C2020 C2021 1.377 . S
C2021 H2005 0.930 . S
C2021 C2020 1.377 . S
C2021 C2022 1.379 . S
C2022 H2006 0.931 . S
C2022 C2016 1.383 . S
C2022 C2021 1.379 . S
H2023 C2017 0.959 . S
H2024 C2017 0.961 . S
H2025 C2017 0.960 . S
H2026 C2018 0.930 . S
H2027 C2019 0.929 . S
H2028 C2036 0.929 . S
H2029 C2038 0.930 . S
H2030 C2040 0.930 . S
H2031 C2043 0.929 . S
H2032 C2046 0.930 . S
H2033 C2048 0.960 . S
H2034 C2048 0.960 . S
H2035 C2048 0.960 . S
C2036 H2028 0.929 . S
C2036 C2037 1.377 . S
C2036 C2038 1.384 . S
C2037 C2036 1.377 . S
C2037 C2043 1.390 . S
C2038 H2029 0.930 . S
C2038 C2036 1.384 . S
C2038 C2039 1.372 . S
C2039 C2038 1.372 . S
C2039 C2040 1.400 . S
C2039 C2044 1.490 . S
C2040 H2030 0.930 . S
C2040 C2039 1.400 . S
C2040 C2043 1.386 . S
H2041 C2057 0.930 . S
H2042 C2058 0.931 . S
C2043 H2031 0.929 . S
C2043 C2037 1.390 . S
C2043 C2040 1.386 . S
C2044 C2039 1.490 . S
C2044 C2046 1.395 . S
C2044 C2047 1.403 . S
H2045 C2051 0.930 . S
C2046 H2032 0.930 . S
C2046 C2044 1.395 . S
C2046 C2049 1.403 . S
C2047 C2044 1.403 . S
C2047 C2048 1.524 . S
C2047 C2051 1.400 . S
C2048 H2033 0.960 . S
C2048 H2034 0.960 . S
C2048 H2035 0.960 . S
C2048 C2047 1.524 . S
C2049 C2046 1.403 . S
C2049 C2050 1.392 . S
C2049 C2053 1.495 . S
C2050 C2049 1.392 . S
C2050 C2051 1.385 . S
C2050 C2052 1.478 . S
C2051 H2045 0.930 . S
C2051 C2047 1.400 . S
C2051 C2050 1.385 . S
C2052 C2050 1.478 . S
C2052 C2054 1.381 . S
C2052 C2058 1.383 . S
C2053 C2049 1.495 . S
C2053 H2059 0.959 . S
C2053 H2060 0.961 . S
C2053 H2061 0.960 . S
C2054 C2052 1.381 . S
C2054 C2055 1.394 . S
C2054 H2062 0.930 . S
C2055 C2054 1.394 . S
C2055 C2056 1.383 . S
C2055 H2063 0.929 . S
C2056 C2055 1.383 . S
C2056 C2057 1.377 . S
C2057 H2041 0.930 . S
C2057 C2056 1.377 . S
C2057 C2058 1.379 . S
C2058 H2042 0.931 . S
C2058 C2052 1.383 . S
C2058 C2057 1.379 . S
H2059 C2053 0.959 . S
H2060 C2053 0.961 . S
H2061 C2053 0.960 . S
H2062 C2054 0.930 . S
H2063 C2055 0.929 . S
H2064 C2072 0.929 . S
H2065 C2074 0.930 . S
H2066 C2076 0.930 . S
H2067 C2079 0.929 . S
H2068 C2082 0.930 . S
H2069 C2084 0.960 . S
H2070 C2084 0.960 . S
H2071 C2084 0.960 . S
C2072 H2064 0.929 . S
C2072 C2073 1.377 . S
C2072 C2074 1.384 . S
C2073 C2072 1.377 . S
C2073 C2079 1.390 . S
C2074 H2065 0.930 . S
C2074 C2072 1.384 . S
C2074 C2075 1.372 . S
C2075 C2074 1.372 . S
C2075 C2076 1.400 . S
C2075 C2080 1.490 . S
C2076 H2066 0.930 . S
C2076 C2075 1.400 . S
C2076 C2079 1.386 . S
H2077 C2093 0.930 . S
H2078 C2094 0.931 . S
C2079 H2067 0.929 . S
C2079 C2073 1.390 . S
C2079 C2076 1.386 . S
C2080 C2075 1.490 . S
C2080 C2082 1.395 . S
C2080 C2083 1.403 . S
H2081 C2087 0.930 . S
C2082 H2068 0.930 . S
C2082 C2080 1.395 . S
C2082 C2085 1.403 . S
C2083 C2080 1.403 . S
C2083 C2084 1.524 . S
C2083 C2087 1.400 . S
C2084 H2069 0.960 . S
C2084 H2070 0.960 . S
C2084 H2071 0.960 . S
C2084 C2083 1.524 . S
C2085 C2082 1.403 . S
C2085 C2086 1.392 . S
C2085 C2089 1.495 . S
C2086 C2085 1.392 . S
C2086 C2087 1.385 . S
C2086 C2088 1.478 . S
C2087 H2081 0.930 . S
C2087 C2083 1.400 . S
C2087 C2086 1.385 . S
C2088 C2086 1.478 . S
C2088 C2090 1.381 . S
C2088 C2094 1.383 . S
C2089 C2085 1.495 . S
C2089 H2095 0.959 . S
C2089 H2096 0.961 . S
C2089 H2097 0.960 . S
C2090 C2088 1.381 . S
C2090 C2091 1.394 . S
C2090 H2098 0.930 . S
C2091 C2090 1.394 . S
C2091 C2092 1.383 . S
C2091 H2099 0.929 . S
C2092 C2091 1.383 . S
C2092 C2093 1.377 . S
C2093 H2077 0.930 . S
C2093 C2092 1.377 . S
C2093 C2094 1.379 . S
C2094 H2078 0.931 . S
C2094 C2088 1.383 . S
C2094 C2093 1.379 . S
H2095 C2089 0.959 . S
H2096 C2089 0.961 . S
H2097 C2089 0.960 . S
H2098 C2090 0.930 . S
H2099 C2091 0.929 . S
H2100 C2108 0.929 . S
H2101 C2110 0.930 . S
H2102 C2112 0.930 . S
H2103 C2115 0.929 . S
H2104 C2118 0.930 . S
H2105 C2120 0.960 . S
H2106 C2120 0.960 . S
H2107 C2120 0.960 . S
C2108 H2100 0.929 . S
C2108 C2109 1.377 . S
C2108 C2110 1.384 . S
C2109 C2108 1.377 . S
C2109 C2115 1.390 . S
C2110 H2101 0.930 . S
C2110 C2108 1.384 . S
C2110 C2111 1.372 . S
C2111 C2110 1.372 . S
C2111 C2112 1.400 . S
C2111 C2116 1.490 . S
C2112 H2102 0.930 . S
C2112 C2111 1.400 . S
C2112 C2115 1.386 . S
H2113 C2129 0.930 . S
H2114 C2130 0.931 . S
C2115 H2103 0.929 . S
C2115 C2109 1.390 . S
C2115 C2112 1.386 . S
C2116 C2111 1.490 . S
C2116 C2118 1.395 . S
C2116 C2119 1.403 . S
H2117 C2123 0.930 . S
C2118 H2104 0.930 . S
C2118 C2116 1.395 . S
C2118 C2121 1.403 . S
C2119 C2116 1.403 . S
C2119 C2120 1.524 . S
C2119 C2123 1.400 . S
C2120 H2105 0.960 . S
C2120 H2106 0.960 . S
C2120 H2107 0.960 . S
C2120 C2119 1.524 . S
C2121 C2118 1.403 . S
C2121 C2122 1.392 . S
C2121 C2125 1.495 . S
C2122 C2121 1.392 . S
C2122 C2123 1.385 . S
C2122 C2124 1.478 . S
C2123 H2117 0.930 . S
C2123 C2119 1.400 . S
C2123 C2122 1.385 . S
C2124 C2122 1.478 . S
C2124 C2126 1.381 . S
C2124 C2130 1.383 . S
C2125 C2121 1.495 . S
C2125 H2131 0.959 . S
C2125 H2132 0.961 . S
C2125 H2133 0.960 . S
C2126 C2124 1.381 . S
C2126 C2127 1.394 . S
C2126 H2134 0.930 . S
C2127 C2126 1.394 . S
C2127 C2128 1.383 . S
C2127 H2135 0.929 . S
C2128 C2127 1.383 . S
C2128 C2129 1.377 . S
C2129 H2113 0.930 . S
C2129 C2128 1.377 . S
C2129 C2130 1.379 . S
C2130 H2114 0.931 . S
C2130 C2124 1.383 . S
C2130 C2129 1.379 . S
H2131 C2125 0.959 . S
H2132 C2125 0.961 . S
H2133 C2125 0.960 . S
H2134 C2126 0.930 . S
H2135 C2127 0.929 . S
H2136 C2144 0.929 . S
H2137 C2146 0.930 . S
H2138 C2148 0.930 . S
H2139 C2151 0.929 . S
H2140 C2154 0.930 . S
H2141 C2156 0.960 . S
H2142 C2156 0.960 . S
H2143 C2156 0.960 . S
C2144 H2136 0.929 . S
C2144 C2145 1.377 . S
C2144 C2146 1.384 . S
C2145 C2144 1.377 . S
C2145 C2151 1.390 . S
C2146 H2137 0.930 . S
C2146 C2144 1.384 . S
C2146 C2147 1.372 . S
C2147 C2146 1.372 . S
C2147 C2148 1.400 . S
C2147 C2152 1.490 . S
C2148 H2138 0.930 . S
C2148 C2147 1.400 . S
C2148 C2151 1.386 . S
H2149 C2165 0.930 . S
H2150 C2166 0.931 . S
C2151 H2139 0.929 . S
C2151 C2145 1.390 . S
C2151 C2148 1.386 . S
C2152 C2147 1.490 . S
C2152 C2154 1.395 . S
C2152 C2155 1.403 . S
H2153 C2159 0.930 . S
C2154 H2140 0.930 . S
C2154 C2152 1.395 . S
C2154 C2157 1.403 . S
C2155 C2152 1.403 . S
C2155 C2156 1.524 . S
C2155 C2159 1.400 . S
C2156 H2141 0.960 . S
C2156 H2142 0.960 . S
C2156 H2143 0.960 . S
C2156 C2155 1.524 . S
C2157 C2154 1.403 . S
C2157 C2158 1.392 . S
C2157 C2161 1.495 . S
C2158 C2157 1.392 . S
C2158 C2159 1.385 . S
C2158 C2160 1.478 . S
C2159 H2153 0.930 . S
C2159 C2155 1.400 . S
C2159 C2158 1.385 . S
C2160 C2158 1.478 . S
C2160 C2162 1.381 . S
C2160 C2166 1.383 . S
C2161 C2157 1.495 . S
C2161 H2167 0.959 . S
C2161 H2168 0.961 . S
C2161 H2169 0.960 . S
C2162 C2160 1.381 . S
C2162 C2163 1.394 . S
C2162 H2170 0.930 . S
C2163 C2162 1.394 . S
C2163 C2164 1.383 . S
C2163 H2171 0.929 . S
C2164 C2163 1.383 . S
C2164 C2165 1.377 . S
C2165 H2149 0.930 . S
C2165 C2164 1.377 . S
C2165 C2166 1.379 . S
C2166 H2150 0.931 . S
C2166 C2160 1.383 . S
C2166 C2165 1.379 . S
H2167 C2161 0.959 . S
H2168 C2161 0.961 . S
H2169 C2161 0.960 . S
H2170 C2162 0.930 . S
H2171 C2163 0.929 . S
H2172 C2180 0.929 . S
H2173 C2182 0.930 . S
H2174 C2184 0.930 . S
H2175 C2187 0.929 . S
H2176 C2190 0.930 . S
H2177 C2192 0.960 . S
H2178 C2192 0.960 . S
H2179 C2192 0.960 . S
C2180 H2172 0.929 . S
C2180 C2181 1.377 . S
C2180 C2182 1.384 . S
C2181 C2180 1.377 . S
C2181 C2187 1.390 . S
C2182 H2173 0.930 . S
C2182 C2180 1.384 . S
C2182 C2183 1.372 . S
C2183 C2182 1.372 . S
C2183 C2184 1.400 . S
C2183 C2188 1.490 . S
C2184 H2174 0.930 . S
C2184 C2183 1.400 . S
C2184 C2187 1.386 . S
H2185 C2201 0.930 . S
H2186 C2202 0.931 . S
C2187 H2175 0.929 . S
C2187 C2181 1.390 . S
C2187 C2184 1.386 . S
C2188 C2183 1.490 . S
C2188 C2190 1.395 . S
C2188 C2191 1.403 . S
H2189 C2195 0.930 . S
C2190 H2176 0.930 . S
C2190 C2188 1.395 . S
C2190 C2193 1.403 . S
C2191 C2188 1.403 . S
C2191 C2192 1.524 . S
C2191 C2195 1.400 . S
C2192 H2177 0.960 . S
C2192 H2178 0.960 . S
C2192 H2179 0.960 . S
C2192 C2191 1.524 . S
C2193 C2190 1.403 . S
C2193 C2194 1.392 . S
C2193 C2197 1.495 . S
C2194 C2193 1.392 . S
C2194 C2195 1.385 . S
C2194 C2196 1.478 . S
C2195 H2189 0.930 . S
C2195 C2191 1.400 . S
C2195 C2194 1.385 . S
C2196 C2194 1.478 . S
C2196 C2198 1.381 . S
C2196 C2202 1.383 . S
C2197 C2193 1.495 . S
C2197 H2203 0.959 . S
C2197 H2204 0.961 . S
C2197 H2205 0.960 . S
C2198 C2196 1.381 . S
C2198 C2199 1.394 . S
C2198 H2206 0.930 . S
C2199 C2198 1.394 . S
C2199 C2200 1.383 . S
C2199 H2207 0.929 . S
C2200 C2199 1.383 . S
C2200 C2201 1.377 . S
C2201 H2185 0.930 . S
C2201 C2200 1.377 . S
C2201 C2202 1.379 . S
C2202 H2186 0.931 . S
C2202 C2196 1.383 . S
C2202 C2201 1.379 . S
H2203 C2197 0.959 . S
H2204 C2197 0.961 . S
H2205 C2197 0.960 . S
H2206 C2198 0.930 . S
H2207 C2199 0.929 . S
H2208 C2216 0.929 . S
H2209 C2218 0.930 . S
H2210 C2220 0.930 . S
H2211 C2223 0.929 . S
H2212 C2226 0.930 . S
H2213 C2228 0.960 . S
H2214 C2228 0.960 . S
H2215 C2228 0.960 . S
C2216 H2208 0.929 . S
C2216 C2217 1.377 . S
C2216 C2218 1.384 . S
C2217 C2216 1.377 . S
C2217 C2223 1.390 . S
C2218 H2209 0.930 . S
C2218 C2216 1.384 . S
C2218 C2219 1.372 . S
C2219 C2218 1.372 . S
C2219 C2220 1.400 . S
C2219 C2224 1.490 . S
C2220 H2210 0.930 . S
C2220 C2219 1.400 . S
C2220 C2223 1.386 . S
H2221 C2237 0.930 . S
H2222 C2238 0.931 . S
C2223 H2211 0.929 . S
C2223 C2217 1.390 . S
C2223 C2220 1.386 . S
C2224 C2219 1.490 . S
C2224 C2226 1.395 . S
C2224 C2227 1.403 . S
H2225 C2231 0.930 . S
C2226 H2212 0.930 . S
C2226 C2224 1.395 . S
C2226 C2229 1.403 . S
C2227 C2224 1.403 . S
C2227 C2228 1.524 . S
C2227 C2231 1.400 . S
C2228 H2213 0.960 . S
C2228 H2214 0.960 . S
C2228 H2215 0.960 . S
C2228 C2227 1.524 . S
C2229 C2226 1.403 . S
C2229 C2230 1.392 . S
C2229 C2233 1.495 . S
C2230 C2229 1.392 . S
C2230 C2231 1.385 . S
C2230 C2232 1.478 . S
C2231 H2225 0.930 . S
C2231 C2227 1.400 . S
C2231 C2230 1.385 . S
C2232 C2230 1.478 . S
C2232 C2234 1.381 . S
C2232 C2238 1.383 . S
C2233 C2229 1.495 . S
C2233 H2239 0.959 . S
C2233 H2240 0.961 . S
C2233 H2241 0.960 . S
C2234 C2232 1.381 . S
C2234 C2235 1.394 . S
C2234 H2242 0.930 . S
C2235 C2234 1.394 . S
C2235 C2236 1.383 . S
C2235 H2243 0.929 . S
C2236 C2235 1.383 . S
C2236 C2237 1.377 . S
C2237 H2221 0.930 . S
C2237 C2236 1.377 . S
C2237 C2238 1.379 . S
C2238 H2222 0.931 . S
C2238 C2232 1.383 . S
C2238 C2237 1.379 . S
H2239 C2233 0.959 . S
H2240 C2233 0.961 . S
H2241 C2233 0.960 . S
H2242 C2234 0.930 . S
H2243 C2235 0.929 . S
H2244 C2252 0.929 . S
H2245 C2254 0.930 . S
H2246 C2256 0.930 . S
H2247 C2259 0.929 . S
H2248 C2262 0.930 . S
H2249 C2264 0.960 . S
H2250 C2264 0.960 . S
H2251 C2264 0.960 . S
C2252 H2244 0.929 . S
C2252 C2253 1.377 . S
C2252 C2254 1.384 . S
C2253 C2252 1.377 . S
C2253 C2259 1.390 . S
C2254 H2245 0.930 . S
C2254 C2252 1.384 . S
C2254 C2255 1.372 . S
C2255 C2254 1.372 . S
C2255 C2256 1.400 . S
C2255 C2260 1.490 . S
C2256 H2246 0.930 . S
C2256 C2255 1.400 . S
C2256 C2259 1.386 . S
H2257 C2273 0.930 . S
H2258 C2274 0.931 . S
C2259 H2247 0.929 . S
C2259 C2253 1.390 . S
C2259 C2256 1.386 . S
C2260 C2255 1.490 . S
C2260 C2262 1.395 . S
C2260 C2263 1.403 . S
H2261 C2267 0.930 . S
C2262 H2248 0.930 . S
C2262 C2260 1.395 . S
C2262 C2265 1.403 . S
C2263 C2260 1.403 . S
C2263 C2264 1.524 . S
C2263 C2267 1.400 . S
C2264 H2249 0.960 . S
C2264 H2250 0.960 . S
C2264 H2251 0.960 . S
C2264 C2263 1.524 . S
C2265 C2262 1.403 . S
C2265 C2266 1.392 . S
C2265 C2269 1.495 . S
C2266 C2265 1.392 . S
C2266 C2267 1.385 . S
C2266 C2268 1.478 . S
C2267 H2261 0.930 . S
C2267 C2263 1.400 . S
C2267 C2266 1.385 . S
C2268 C2266 1.478 . S
C2268 C2270 1.381 . S
C2268 C2274 1.383 . S
C2269 C2265 1.495 . S
C2269 H2275 0.959 . S
C2269 H2276 0.961 . S
C2269 H2277 0.960 . S
C2270 C2268 1.381 . S
C2270 C2271 1.394 . S
C2270 H2278 0.930 . S
C2271 C2270 1.394 . S
C2271 C2272 1.383 . S
C2271 H2279 0.929 . S
C2272 C2271 1.383 . S
C2272 C2273 1.377 . S
C2273 H2257 0.930 . S
C2273 C2272 1.377 . S
C2273 C2274 1.379 . S
C2274 H2258 0.931 . S
C2274 C2268 1.383 . S
C2274 C2273 1.379 . S
H2275 C2269 0.959 . S
H2276 C2269 0.961 . S
H2277 C2269 0.960 . S
H2278 C2270 0.930 . S
H2279 C2271 0.929 . S
H2280 C2288 0.929 . S
H2281 C2290 0.930 . S
H2282 C2292 0.930 . S
H2283 C2295 0.929 . S
H2284 C2298 0.930 . S
H2285 C2300 0.960 . S
H2286 C2300 0.960 . S
H2287 C2300 0.960 . S
C2288 H2280 0.929 . S
C2288 C2289 1.377 . S
C2288 C2290 1.384 . S
C2289 C2288 1.377 . S
C2289 C2295 1.390 . S
C2290 H2281 0.930 . S
C2290 C2288 1.384 . S
C2290 C2291 1.372 . S
C2291 C2290 1.372 . S
C2291 C2292 1.400 . S
C2291 C2296 1.490 . S
C2292 H2282 0.930 . S
C2292 C2291 1.400 . S
C2292 C2295 1.386 . S
H2293 C2309 0.930 . S
H2294 C2310 0.931 . S
C2295 H2283 0.929 . S
C2295 C2289 1.390 . S
C2295 C2292 1.386 . S
C2296 C2291 1.490 . S
C2296 C2298 1.395 . S
C2296 C2299 1.403 . S
H2297 C2303 0.930 . S
C2298 H2284 0.930 . S
C2298 C2296 1.395 . S
C2298 C2301 1.403 . S
C2299 C2296 1.403 . S
C2299 C2300 1.524 . S
C2299 C2303 1.400 . S
C2300 H2285 0.960 . S
C2300 H2286 0.960 . S
C2300 H2287 0.960 . S
C2300 C2299 1.524 . S
C2301 C2298 1.403 . S
C2301 C2302 1.392 . S
C2301 C2305 1.495 . S
C2302 C2301 1.392 . S
C2302 C2303 1.385 . S
C2302 C2304 1.478 . S
C2303 H2297 0.930 . S
C2303 C2299 1.400 . S
C2303 C2302 1.385 . S
C2304 C2302 1.478 . S
C2304 C2306 1.381 . S
C2304 C2310 1.383 . S
C2305 C2301 1.495 . S
C2305 H2311 0.959 . S
C2305 H2312 0.961 . S
C2305 H2313 0.960 . S
C2306 C2304 1.381 . S
C2306 C2307 1.394 . S
C2306 H2314 0.930 . S
C2307 C2306 1.394 . S
C2307 C2308 1.383 . S
C2307 H2315 0.929 . S
C2308 C2307 1.383 . S
C2308 C2309 1.377 . S
C2309 H2293 0.930 . S
C2309 C2308 1.377 . S
C2309 C2310 1.379 . S
C2310 H2294 0.931 . S
C2310 C2304 1.383 . S
C2310 C2309 1.379 . S
H2311 C2305 0.959 . S
H2312 C2305 0.961 . S
H2313 C2305 0.960 . S
H2314 C2306 0.930 . S
H2315 C2307 0.929 . S
H2316 C2324 0.929 . S
H2317 C2326 0.930 . S
H2318 C2328 0.930 . S
H2319 C2331 0.929 . S
H2320 C2334 0.930 . S
H2321 C2336 0.960 . S
H2322 C2336 0.960 . S
H2323 C2336 0.960 . S
C2324 H2316 0.929 . S
C2324 C2325 1.377 . S
C2324 C2326 1.384 . S
C2325 C2324 1.377 . S
C2325 C2331 1.390 . S
C2326 H2317 0.930 . S
C2326 C2324 1.384 . S
C2326 C2327 1.372 . S
C2327 C2326 1.372 . S
C2327 C2328 1.400 . S
C2327 C2332 1.490 . S
C2328 H2318 0.930 . S
C2328 C2327 1.400 . S
C2328 C2331 1.386 . S
H2329 C2345 0.930 . S
H2330 C2346 0.931 . S
C2331 H2319 0.929 . S
C2331 C2325 1.390 . S
C2331 C2328 1.386 . S
C2332 C2327 1.490 . S
C2332 C2334 1.395 . S
C2332 C2335 1.403 . S
H2333 C2339 0.930 . S
C2334 H2320 0.930 . S
C2334 C2332 1.395 . S
C2334 C2337 1.403 . S
C2335 C2332 1.403 . S
C2335 C2336 1.524 . S
C2335 C2339 1.400 . S
C2336 H2321 0.960 . S
C2336 H2322 0.960 . S
C2336 H2323 0.960 . S
C2336 C2335 1.524 . S
C2337 C2334 1.403 . S
C2337 C2338 1.392 . S
C2337 C2341 1.495 . S
C2338 C2337 1.392 . S
C2338 C2339 1.385 . S
C2338 C2340 1.478 . S
C2339 H2333 0.930 . S
C2339 C2335 1.400 . S
C2339 C2338 1.385 . S
C2340 C2338 1.478 . S
C2340 C2342 1.381 . S
C2340 C2346 1.383 . S
C2341 C2337 1.495 . S
C2341 H2347 0.959 . S
C2341 H2348 0.961 . S
C2341 H2349 0.960 . S
C2342 C2340 1.381 . S
C2342 C2343 1.394 . S
C2342 H2350 0.930 . S
C2343 C2342 1.394 . S
C2343 C2344 1.383 . S
C2343 H2351 0.929 . S
C2344 C2343 1.383 . S
C2344 C2345 1.377 . S
C2345 H2329 0.930 . S
C2345 C2344 1.377 . S
C2345 C2346 1.379 . S
C2346 H2330 0.931 . S
C2346 C2340 1.383 . S
C2346 C2345 1.379 . S
H2347 C2341 0.959 . S
H2348 C2341 0.961 . S
H2349 C2341 0.960 . S
H2350 C2342 0.930 . S
H2351 C2343 0.929 . S
H2352 C2360 0.929 . S
H2353 C2362 0.930 . S
H2354 C2364 0.930 . S
H2355 C2367 0.929 . S
H2356 C2370 0.930 . S
H2357 C2372 0.960 . S
H2358 C2372 0.960 . S
H2359 C2372 0.960 . S
C2360 H2352 0.929 . S
C2360 C2361 1.377 . S
C2360 C2362 1.384 . S
C2361 C2360 1.377 . S
C2361 C2367 1.390 . S
C2362 H2353 0.930 . S
C2362 C2360 1.384 . S
C2362 C2363 1.372 . S
C2363 C2362 1.372 . S
C2363 C2364 1.400 . S
C2363 C2368 1.490 . S
C2364 H2354 0.930 . S
C2364 C2363 1.400 . S
C2364 C2367 1.386 . S
H2365 C2381 0.930 . S
H2366 C2382 0.931 . S
C2367 H2355 0.929 . S
C2367 C2361 1.390 . S
C2367 C2364 1.386 . S
C2368 C2363 1.490 . S
C2368 C2370 1.395 . S
C2368 C2371 1.403 . S
H2369 C2375 0.930 . S
C2370 H2356 0.930 . S
C2370 C2368 1.395 . S
C2370 C2373 1.403 . S
C2371 C2368 1.403 . S
C2371 C2372 1.524 . S
C2371 C2375 1.400 . S
C2372 H2357 0.960 . S
C2372 H2358 0.960 . S
C2372 H2359 0.960 . S
C2372 C2371 1.524 . S
C2373 C2370 1.403 . S
C2373 C2374 1.392 . S
C2373 C2377 1.495 . S
C2374 C2373 1.392 . S
C2374 C2375 1.385 . S
C2374 C2376 1.478 . S
C2375 H2369 0.930 . S
C2375 C2371 1.400 . S
C2375 C2374 1.385 . S
C2376 C2374 1.478 . S
C2376 C2378 1.381 . S
C2376 C2382 1.383 . S
C2377 C2373 1.495 . S
C2377 H2383 0.959 . S
C2377 H2384 0.961 . S
C2377 H2385 0.960 . S
C2378 C2376 1.381 . S
C2378 C2379 1.394 . S
C2378 H2386 0.930 . S
C2379 C2378 1.394 . S
C2379 C2380 1.383 . S
C2379 H2387 0.929 . S
C2380 C2379 1.383 . S
C2380 C2381 1.377 . S
C2381 H2365 0.930 . S
C2381 C2380 1.377 . S
C2381 C2382 1.379 . S
C2382 H2366 0.931 . S
C2382 C2376 1.383 . S
C2382 C2381 1.379 . S
H2383 C2377 0.959 . S
H2384 C2377 0.961 . S
H2385 C2377 0.960 . S
H2386 C2378 0.930 . S
H2387 C2379 0.929 . S
H2388 C2396 0.929 . S
H2389 C2398 0.930 . S
H2390 C2400 0.930 . S
H2391 C2403 0.929 . S
H2392 C2406 0.930 . S
H2393 C2408 0.960 . S
H2394 C2408 0.960 . S
H2395 C2408 0.960 . S
C2396 H2388 0.929 . S
C2396 C2397 1.377 . S
C2396 C2398 1.384 . S
C2397 C2396 1.377 . S
C2397 C2403 1.390 . S
C2398 H2389 0.930 . S
C2398 C2396 1.384 . S
C2398 C2399 1.372 . S
C2399 C2398 1.372 . S
C2399 C2400 1.400 . S
C2399 C2404 1.490 . S
C2400 H2390 0.930 . S
C2400 C2399 1.400 . S
C2400 C2403 1.386 . S
H2401 C2417 0.930 . S
H2402 C2418 0.931 . S
C2403 H2391 0.929 . S
C2403 C2397 1.390 . S
C2403 C2400 1.386 . S
C2404 C2399 1.490 . S
C2404 C2406 1.395 . S
C2404 C2407 1.403 . S
H2405 C2411 0.930 . S
C2406 H2392 0.930 . S
C2406 C2404 1.395 . S
C2406 C2409 1.403 . S
C2407 C2404 1.403 . S
C2407 C2408 1.524 . S
C2407 C2411 1.400 . S
C2408 H2393 0.960 . S
C2408 H2394 0.960 . S
C2408 H2395 0.960 . S
C2408 C2407 1.524 . S
C2409 C2406 1.403 . S
C2409 C2410 1.392 . S
C2409 C2413 1.495 . S
C2410 C2409 1.392 . S
C2410 C2411 1.385 . S
C2410 C2412 1.478 . S
C2411 H2405 0.930 . S
C2411 C2407 1.400 . S
C2411 C2410 1.385 . S
C2412 C2410 1.478 . S
C2412 C2414 1.381 . S
C2412 C2418 1.383 . S
C2413 C2409 1.495 . S
C2413 H2419 0.959 . S
C2413 H2420 0.961 . S
C2413 H2421 0.960 . S
C2414 C2412 1.381 . S
C2414 C2415 1.394 . S
C2414 H2422 0.930 . S
C2415 C2414 1.394 . S
C2415 C2416 1.383 . S
C2415 H2423 0.929 . S
C2416 C2415 1.383 . S
C2416 C2417 1.377 . S
C2417 H2401 0.930 . S
C2417 C2416 1.377 . S
C2417 C2418 1.379 . S
C2418 H2402 0.931 . S
C2418 C2412 1.383 . S
C2418 C2417 1.379 . S
H2419 C2413 0.959 . S
H2420 C2413 0.961 . S
H2421 C2413 0.960 . S
H2422 C2414 0.930 . S
H2423 C2415 0.929 . S
H2424 C2432 0.929 . S
H2425 C2434 0.930 . S
H2426 C2436 0.930 . S
H2427 C2439 0.929 . S
H2428 C2442 0.930 . S
H2429 C2444 0.960 . S
H2430 C2444 0.960 . S
H2431 C2444 0.960 . S
C2432 H2424 0.929 . S
C2432 C2433 1.377 . S
C2432 C2434 1.384 . S
C2433 C2432 1.377 . S
C2433 C2439 1.390 . S
C2434 H2425 0.930 . S
C2434 C2432 1.384 . S
C2434 C2435 1.372 . S
C2435 C2434 1.372 . S
C2435 C2436 1.400 . S
C2435 C2440 1.490 . S
C2436 H2426 0.930 . S
C2436 C2435 1.400 . S
C2436 C2439 1.386 . S
H2437 C2453 0.930 . S
H2438 C2454 0.931 . S
C2439 H2427 0.929 . S
C2439 C2433 1.390 . S
C2439 C2436 1.386 . S
C2440 C2435 1.490 . S
C2440 C2442 1.395 . S
C2440 C2443 1.403 . S
H2441 C2447 0.930 . S
C2442 H2428 0.930 . S
C2442 C2440 1.395 . S
C2442 C2445 1.403 . S
C2443 C2440 1.403 . S
C2443 C2444 1.524 . S
C2443 C2447 1.400 . S
C2444 H2429 0.960 . S
C2444 H2430 0.960 . S
C2444 H2431 0.960 . S
C2444 C2443 1.524 . S
C2445 C2442 1.403 . S
C2445 C2446 1.392 . S
C2445 C2449 1.495 . S
C2446 C2445 1.392 . S
C2446 C2447 1.385 . S
C2446 C2448 1.478 . S
C2447 H2441 0.930 . S
C2447 C2443 1.400 . S
C2447 C2446 1.385 . S
C2448 C2446 1.478 . S
C2448 C2450 1.381 . S
C2448 C2454 1.383 . S
C2449 C2445 1.495 . S
C2449 H2455 0.959 . S
C2449 H2456 0.961 . S
C2449 H2457 0.960 . S
C2450 C2448 1.381 . S
C2450 C2451 1.394 . S
C2450 H2458 0.930 . S
C2451 C2450 1.394 . S
C2451 C2452 1.383 . S
C2451 H2459 0.929 . S
C2452 C2451 1.383 . S
C2452 C2453 1.377 . S
C2453 H2437 0.930 . S
C2453 C2452 1.377 . S
C2453 C2454 1.379 . S
C2454 H2438 0.931 . S
C2454 C2448 1.383 . S
C2454 C2453 1.379 . S
H2455 C2449 0.959 . S
H2456 C2449 0.961 . S
H2457 C2449 0.960 . S
H2458 C2450 0.930 . S
H2459 C2451 0.929 . S
H2460 C2468 0.929 . S
H2461 C2470 0.930 . S
H2462 C2472 0.930 . S
H2463 C2475 0.929 . S
H2464 C2478 0.930 . S
H2465 C2480 0.960 . S
H2466 C2480 0.960 . S
H2467 C2480 0.960 . S
C2468 H2460 0.929 . S
C2468 C2469 1.377 . S
C2468 C2470 1.384 . S
C2469 C2468 1.377 . S
C2469 C2475 1.390 . S
C2470 H2461 0.930 . S
C2470 C2468 1.384 . S
C2470 C2471 1.372 . S
C2471 C2470 1.372 . S
C2471 C2472 1.400 . S
C2471 C2476 1.490 . S
C2472 H2462 0.930 . S
C2472 C2471 1.400 . S
C2472 C2475 1.386 . S
H2473 C2489 0.930 . S
H2474 C2490 0.931 . S
C2475 H2463 0.929 . S
C2475 C2469 1.390 . S
C2475 C2472 1.386 . S
C2476 C2471 1.490 . S
C2476 C2478 1.395 . S
C2476 C2479 1.403 . S
H2477 C2483 0.930 . S
C2478 H2464 0.930 . S
C2478 C2476 1.395 . S
C2478 C2481 1.403 . S
C2479 C2476 1.403 . S
C2479 C2480 1.524 . S
C2479 C2483 1.400 . S
C2480 H2465 0.960 . S
C2480 H2466 0.960 . S
C2480 H2467 0.960 . S
C2480 C2479 1.524 . S
C2481 C2478 1.403 . S
C2481 C2482 1.392 . S
C2481 C2485 1.495 . S
C2482 C2481 1.392 . S
C2482 C2483 1.385 . S
C2482 C2484 1.478 . S
C2483 H2477 0.930 . S
C2483 C2479 1.400 . S
C2483 C2482 1.385 . S
C2484 C2482 1.478 . S
C2484 C2486 1.381 . S
C2484 C2490 1.383 . S
C2485 C2481 1.495 . S
C2485 H2491 0.959 . S
C2485 H2492 0.961 . S
C2485 H2493 0.960 . S
C2486 C2484 1.381 . S
C2486 C2487 1.394 . S
C2486 H2494 0.930 . S
C2487 C2486 1.394 . S
C2487 C2488 1.383 . S
C2487 H2495 0.929 . S
C2488 C2487 1.383 . S
C2488 C2489 1.377 . S
C2489 H2473 0.930 . S
C2489 C2488 1.377 . S
C2489 C2490 1.379 . S
C2490 H2474 0.931 . S
C2490 C2484 1.383 . S
C2490 C2489 1.379 . S
H2491 C2485 0.959 . S
H2492 C2485 0.961 . S
H2493 C2485 0.960 . S
H2494 C2486 0.930 . S
H2495 C2487 0.929 . S
H2496 C2504 0.929 . S
H2497 C2506 0.930 . S
H2498 C2508 0.930 . S
H2499 C2511 0.929 . S
H2500 C2514 0.930 . S
H2501 C2516 0.960 . S
H2502 C2516 0.960 . S
H2503 C2516 0.960 . S
C2504 H2496 0.929 . S
C2504 C2505 1.377 . S
C2504 C2506 1.384 . S
C2505 C2504 1.377 . S
C2505 C2511 1.390 . S
C2506 H2497 0.930 . S
C2506 C2504 1.384 . S
C2506 C2507 1.372 . S
C2507 C2506 1.372 . S
C2507 C2508 1.400 . S
C2507 C2512 1.490 . S
C2508 H2498 0.930 . S
C2508 C2507 1.400 . S
C2508 C2511 1.386 . S
H2509 C2525 0.930 . S
H2510 C2526 0.931 . S
C2511 H2499 0.929 . S
C2511 C2505 1.390 . S
C2511 C2508 1.386 . S
C2512 C2507 1.490 . S
C2512 C2514 1.395 . S
C2512 C2515 1.403 . S
H2513 C2519 0.930 . S
C2514 H2500 0.930 . S
C2514 C2512 1.395 . S
C2514 C2517 1.403 . S
C2515 C2512 1.403 . S
C2515 C2516 1.524 . S
C2515 C2519 1.400 . S
C2516 H2501 0.960 . S
C2516 H2502 0.960 . S
C2516 H2503 0.960 . S
C2516 C2515 1.524 . S
C2517 C2514 1.403 . S
C2517 C2518 1.392 . S
C2517 C2521 1.495 . S
C2518 C2517 1.392 . S
C2518 C2519 1.385 . S
C2518 C2520 1.478 . S
C2519 H2513 0.930 . S
C2519 C2515 1.400 . S
C2519 C2518 1.385 . S
C2520 C2518 1.478 . S
C2520 C2522 1.381 . S
C2520 C2526 1.383 . S
C2521 C2517 1.495 . S
C2521 H2527 0.959 . S
C2521 H2528 0.961 . S
C2521 H2529 0.960 . S
C2522 C2520 1.381 . S
C2522 C2523 1.394 . S
C2522 H2530 0.930 . S
C2523 C2522 1.394 . S
C2523 C2524 1.383 . S
C2523 H2531 0.929 . S
C2524 C2523 1.383 . S
C2524 C2525 1.377 . S
C2525 H2509 0.930 . S
C2525 C2524 1.377 . S
C2525 C2526 1.379 . S
C2526 H2510 0.931 . S
C2526 C2520 1.383 . S
C2526 C2525 1.379 . S
H2527 C2521 0.959 . S
H2528 C2521 0.961 . S
H2529 C2521 0.960 . S
H2530 C2522 0.930 . S
H2531 C2523 0.929 . S
H2532 C2540 0.929 . S
H2533 C2542 0.930 . S
H2534 C2544 0.930 . S
H2535 C2547 0.929 . S
H2536 C2550 0.930 . S
H2537 C2552 0.960 . S
H2538 C2552 0.960 . S
H2539 C2552 0.960 . S
C2540 H2532 0.929 . S
C2540 C2541 1.377 . S
C2540 C2542 1.384 . S
C2541 C2540 1.377 . S
C2541 C2547 1.390 . S
C2542 H2533 0.930 . S
C2542 C2540 1.384 . S
C2542 C2543 1.372 . S
C2543 C2542 1.372 . S
C2543 C2544 1.400 . S
C2543 C2548 1.490 . S
C2544 H2534 0.930 . S
C2544 C2543 1.400 . S
C2544 C2547 1.386 . S
H2545 C2561 0.930 . S
H2546 C2562 0.931 . S
C2547 H2535 0.929 . S
C2547 C2541 1.390 . S
C2547 C2544 1.386 . S
C2548 C2543 1.490 . S
C2548 C2550 1.395 . S
C2548 C2551 1.403 . S
H2549 C2555 0.930 . S
C2550 H2536 0.930 . S
C2550 C2548 1.395 . S
C2550 C2553 1.403 . S
C2551 C2548 1.403 . S
C2551 C2552 1.524 . S
C2551 C2555 1.400 . S
C2552 H2537 0.960 . S
C2552 H2538 0.960 . S
C2552 H2539 0.960 . S
C2552 C2551 1.524 . S
C2553 C2550 1.403 . S
C2553 C2554 1.392 . S
C2553 C2557 1.495 . S
C2554 C2553 1.392 . S
C2554 C2555 1.385 . S
C2554 C2556 1.478 . S
C2555 H2549 0.930 . S
C2555 C2551 1.400 . S
C2555 C2554 1.385 . S
C2556 C2554 1.478 . S
C2556 C2558 1.381 . S
C2556 C2562 1.383 . S
C2557 C2553 1.495 . S
C2557 H2563 0.959 . S
C2557 H2564 0.961 . S
C2557 H2565 0.960 . S
C2558 C2556 1.381 . S
C2558 C2559 1.394 . S
C2558 H2566 0.930 . S
C2559 C2558 1.394 . S
C2559 C2560 1.383 . S
C2559 H2567 0.929 . S
C2560 C2559 1.383 . S
C2560 C2561 1.377 . S
C2561 H2545 0.930 . S
C2561 C2560 1.377 . S
C2561 C2562 1.379 . S
C2562 H2546 0.931 . S
C2562 C2556 1.383 . S
C2562 C2561 1.379 . S
H2563 C2557 0.959 . S
H2564 C2557 0.961 . S
H2565 C2557 0.960 . S
H2566 C2558 0.930 . S
H2567 C2559 0.929 . S
H2568 C2576 0.929 . S
H2569 C2578 0.930 . S
H2570 C2580 0.930 . S
H2571 C2583 0.929 . S
H2572 C2586 0.930 . S
H2573 C2588 0.960 . S
H2574 C2588 0.960 . S
H2575 C2588 0.960 . S
C2576 H2568 0.929 . S
C2576 C2577 1.377 . S
C2576 C2578 1.384 . S
C2577 C2576 1.377 . S
C2577 C2583 1.390 . S
C2578 H2569 0.930 . S
C2578 C2576 1.384 . S
C2578 C2579 1.372 . S
C2579 C2578 1.372 . S
C2579 C2580 1.400 . S
C2579 C2584 1.490 . S
C2580 H2570 0.930 . S
C2580 C2579 1.400 . S
C2580 C2583 1.386 . S
H2581 C2597 0.930 . S
H2582 C2598 0.931 . S
C2583 H2571 0.929 . S
C2583 C2577 1.390 . S
C2583 C2580 1.386 . S
C2584 C2579 1.490 . S
C2584 C2586 1.395 . S
C2584 C2587 1.403 . S
H2585 C2591 0.930 . S
C2586 H2572 0.930 . S
C2586 C2584 1.395 . S
C2586 C2589 1.403 . S
C2587 C2584 1.403 . S
C2587 C2588 1.524 . S
C2587 C2591 1.400 . S
C2588 H2573 0.960 . S
C2588 H2574 0.960 . S
C2588 H2575 0.960 . S
C2588 C2587 1.524 . S
C2589 C2586 1.403 . S
C2589 C2590 1.392 . S
C2589 C2593 1.495 . S
C2590 C2589 1.392 . S
C2590 C2591 1.385 . S
C2590 C2592 1.478 . S
C2591 H2585 0.930 . S
C2591 C2587 1.400 . S
C2591 C2590 1.385 . S
C2592 C2590 1.478 . S
C2592 C2594 1.381 . S
C2592 C2598 1.383 . S
C2593 C2589 1.495 . S
C2593 H2599 0.959 . S
C2593 H2600 0.961 . S
C2593 H2601 0.960 . S
C2594 C2592 1.381 . S
C2594 C2595 1.394 . S
C2594 H2602 0.930 . S
C2595 C2594 1.394 . S
C2595 C2596 1.383 . S
C2595 H2603 0.929 . S
C2596 C2595 1.383 . S
C2596 C2597 1.377 . S
C2597 H2581 0.930 . S
C2597 C2596 1.377 . S
C2597 C2598 1.379 . S
C2598 H2582 0.931 . S
C2598 C2592 1.383 . S
C2598 C2597 1.379 . S
H2599 C2593 0.959 . S
H2600 C2593 0.961 . S
H2601 C2593 0.960 . S
H2602 C2594 0.930 . S
H2603 C2595 0.929 . S
H2604 C2612 0.929 . S
H2605 C2614 0.930 . S
H2606 C2616 0.930 . S
H2607 C2619 0.929 . S
H2608 C2622 0.930 . S
H2609 C2624 0.960 . S
H2610 C2624 0.960 . S
H2611 C2624 0.960 . S
C2612 H2604 0.929 . S
C2612 C2613 1.377 . S
C2612 C2614 1.384 . S
C2613 C2612 1.377 . S
C2613 C2619 1.390 . S
C2614 H2605 0.930 . S
C2614 C2612 1.384 . S
C2614 C2615 1.372 . S
C2615 C2614 1.372 . S
C2615 C2616 1.400 . S
C2615 C2620 1.490 . S
C2616 H2606 0.930 . S
C2616 C2615 1.400 . S
C2616 C2619 1.386 . S
H2617 C2633 0.930 . S
H2618 C2634 0.931 . S
C2619 H2607 0.929 . S
C2619 C2613 1.390 . S
C2619 C2616 1.386 . S
C2620 C2615 1.490 . S
C2620 C2622 1.395 . S
C2620 C2623 1.403 . S
H2621 C2627 0.930 . S
C2622 H2608 0.930 . S
C2622 C2620 1.395 . S
C2622 C2625 1.403 . S
C2623 C2620 1.403 . S
C2623 C2624 1.524 . S
C2623 C2627 1.400 . S
C2624 H2609 0.960 . S
C2624 H2610 0.960 . S
C2624 H2611 0.960 . S
C2624 C2623 1.524 . S
C2625 C2622 1.403 . S
C2625 C2626 1.392 . S
C2625 C2629 1.495 . S
C2626 C2625 1.392 . S
C2626 C2627 1.385 . S
C2626 C2628 1.478 . S
C2627 H2621 0.930 . S
C2627 C2623 1.400 . S
C2627 C2626 1.385 . S
C2628 C2626 1.478 . S
C2628 C2630 1.381 . S
C2628 C2634 1.383 . S
C2629 C2625 1.495 . S
C2629 H2635 0.959 . S
C2629 H2636 0.961 . S
C2629 H2637 0.960 . S
C2630 C2628 1.381 . S
C2630 C2631 1.394 . S
C2630 H2638 0.930 . S
C2631 C2630 1.394 . S
C2631 C2632 1.383 . S
C2631 H2639 0.929 . S
C2632 C2631 1.383 . S
C2632 C2633 1.377 . S
C2633 H2617 0.930 . S
C2633 C2632 1.377 . S
C2633 C2634 1.379 . S
C2634 H2618 0.931 . S
C2634 C2628 1.383 . S
C2634 C2633 1.379 . S
H2635 C2629 0.959 . S
H2636 C2629 0.961 . S
H2637 C2629 0.960 . S
H2638 C2630 0.930 . S
H2639 C2631 0.929 . S
H2640 C2648 0.929 . S
H2641 C2650 0.930 . S
H2642 C2652 0.930 . S
H2643 C2655 0.929 . S
H2644 C2658 0.930 . S
H2645 C2660 0.960 . S
H2646 C2660 0.960 . S
H2647 C2660 0.960 . S
C2648 H2640 0.929 . S
C2648 C2649 1.377 . S
C2648 C2650 1.384 . S
C2649 C2648 1.377 . S
C2649 C2655 1.390 . S
C2650 H2641 0.930 . S
C2650 C2648 1.384 . S
C2650 C2651 1.372 . S
C2651 C2650 1.372 . S
C2651 C2652 1.400 . S
C2651 C2656 1.490 . S
C2652 H2642 0.930 . S
C2652 C2651 1.400 . S
C2652 C2655 1.386 . S
H2653 C2669 0.930 . S
H2654 C2670 0.931 . S
C2655 H2643 0.929 . S
C2655 C2649 1.390 . S
C2655 C2652 1.386 . S
C2656 C2651 1.490 . S
C2656 C2658 1.395 . S
C2656 C2659 1.403 . S
H2657 C2663 0.930 . S
C2658 H2644 0.930 . S
C2658 C2656 1.395 . S
C2658 C2661 1.403 . S
C2659 C2656 1.403 . S
C2659 C2660 1.524 . S
C2659 C2663 1.400 . S
C2660 H2645 0.960 . S
C2660 H2646 0.960 . S
C2660 H2647 0.960 . S
C2660 C2659 1.524 . S
C2661 C2658 1.403 . S
C2661 C2662 1.392 . S
C2661 C2665 1.495 . S
C2662 C2661 1.392 . S
C2662 C2663 1.385 . S
C2662 C2664 1.478 . S
C2663 H2657 0.930 . S
C2663 C2659 1.400 . S
C2663 C2662 1.385 . S
C2664 C2662 1.478 . S
C2664 C2666 1.381 . S
C2664 C2670 1.383 . S
C2665 C2661 1.495 . S
C2665 H2671 0.959 . S
C2665 H2672 0.961 . S
C2665 H2673 0.960 . S
C2666 C2664 1.381 . S
C2666 C2667 1.394 . S
C2666 H2674 0.930 . S
C2667 C2666 1.394 . S
C2667 C2668 1.383 . S
C2667 H2675 0.929 . S
C2668 C2667 1.383 . S
C2668 C2669 1.377 . S
C2669 H2653 0.930 . S
C2669 C2668 1.377 . S
C2669 C2670 1.379 . S
C2670 H2654 0.931 . S
C2670 C2664 1.383 . S
C2670 C2669 1.379 . S
H2671 C2665 0.959 . S
H2672 C2665 0.961 . S
H2673 C2665 0.960 . S
H2674 C2666 0.930 . S
H2675 C2667 0.929 . S
H2676 C2684 0.929 . S
H2677 C2686 0.930 . S
H2678 C2688 0.930 . S
H2679 C2691 0.929 . S
H2680 C2694 0.930 . S
H2681 C2696 0.960 . S
H2682 C2696 0.960 . S
H2683 C2696 0.960 . S
C2684 H2676 0.929 . S
C2684 C2685 1.377 . S
C2684 C2686 1.384 . S
C2685 C2684 1.377 . S
C2685 C2691 1.390 . S
C2686 H2677 0.930 . S
C2686 C2684 1.384 . S
C2686 C2687 1.372 . S
C2687 C2686 1.372 . S
C2687 C2688 1.400 . S
C2687 C2692 1.490 . S
C2688 H2678 0.930 . S
C2688 C2687 1.400 . S
C2688 C2691 1.386 . S
H2689 C2705 0.930 . S
H2690 C2706 0.931 . S
C2691 H2679 0.929 . S
C2691 C2685 1.390 . S
C2691 C2688 1.386 . S
C2692 C2687 1.490 . S
C2692 C2694 1.395 . S
C2692 C2695 1.403 . S
H2693 C2699 0.930 . S
C2694 H2680 0.930 . S
C2694 C2692 1.395 . S
C2694 C2697 1.403 . S
C2695 C2692 1.403 . S
C2695 C2696 1.524 . S
C2695 C2699 1.400 . S
C2696 H2681 0.960 . S
C2696 H2682 0.960 . S
C2696 H2683 0.960 . S
C2696 C2695 1.524 . S
C2697 C2694 1.403 . S
C2697 C2698 1.392 . S
C2697 C2701 1.495 . S
C2698 C2697 1.392 . S
C2698 C2699 1.385 . S
C2698 C2700 1.478 . S
C2699 H2693 0.930 . S
C2699 C2695 1.400 . S
C2699 C2698 1.385 . S
C2700 C2698 1.478 . S
C2700 C2702 1.381 . S
C2700 C2706 1.383 . S
C2701 C2697 1.495 . S
C2701 H2707 0.959 . S
C2701 H2708 0.961 . S
C2701 H2709 0.960 . S
C2702 C2700 1.381 . S
C2702 C2703 1.394 . S
C2702 H2710 0.930 . S
C2703 C2702 1.394 . S
C2703 C2704 1.383 . S
C2703 H2711 0.929 . S
C2704 C2703 1.383 . S
C2704 C2705 1.377 . S
C2705 H2689 0.930 . S
C2705 C2704 1.377 . S
C2705 C2706 1.379 . S
C2706 H2690 0.931 . S
C2706 C2700 1.383 . S
C2706 C2705 1.379 . S
H2707 C2701 0.959 . S
H2708 C2701 0.961 . S
H2709 C2701 0.960 . S
H2710 C2702 0.930 . S
H2711 C2703 0.929 . S
H2712 C2720 0.929 . S
H2713 C2722 0.930 . S
H2714 C2724 0.930 . S
H2715 C2727 0.929 . S
H2716 C2730 0.930 . S
H2717 C2732 0.960 . S
H2718 C2732 0.960 . S
H2719 C2732 0.960 . S
C2720 H2712 0.929 . S
C2720 C2721 1.377 . S
C2720 C2722 1.384 . S
C2721 C2720 1.377 . S
C2721 C2727 1.390 . S
C2722 H2713 0.930 . S
C2722 C2720 1.384 . S
C2722 C2723 1.372 . S
C2723 C2722 1.372 . S
C2723 C2724 1.400 . S
C2723 C2728 1.490 . S
C2724 H2714 0.930 . S
C2724 C2723 1.400 . S
C2724 C2727 1.386 . S
H2725 C2741 0.930 . S
H2726 C2742 0.931 . S
C2727 H2715 0.929 . S
C2727 C2721 1.390 . S
C2727 C2724 1.386 . S
C2728 C2723 1.490 . S
C2728 C2730 1.395 . S
C2728 C2731 1.403 . S
H2729 C2735 0.930 . S
C2730 H2716 0.930 . S
C2730 C2728 1.395 . S
C2730 C2733 1.403 . S
C2731 C2728 1.403 . S
C2731 C2732 1.524 . S
C2731 C2735 1.400 . S
C2732 H2717 0.960 . S
C2732 H2718 0.960 . S
C2732 H2719 0.960 . S
C2732 C2731 1.524 . S
C2733 C2730 1.403 . S
C2733 C2734 1.392 . S
C2733 C2737 1.495 . S
C2734 C2733 1.392 . S
C2734 C2735 1.385 . S
C2734 C2736 1.478 . S
C2735 H2729 0.930 . S
C2735 C2731 1.400 . S
C2735 C2734 1.385 . S
C2736 C2734 1.478 . S
C2736 C2738 1.381 . S
C2736 C2742 1.383 . S
C2737 C2733 1.495 . S
C2737 H2743 0.959 . S
C2737 H2744 0.961 . S
C2737 H2745 0.960 . S
C2738 C2736 1.381 . S
C2738 C2739 1.394 . S
C2738 H2746 0.930 . S
C2739 C2738 1.394 . S
C2739 C2740 1.383 . S
C2739 H2747 0.929 . S
C2740 C2739 1.383 . S
C2740 C2741 1.377 . S
C2741 H2725 0.930 . S
C2741 C2740 1.377 . S
C2741 C2742 1.379 . S
C2742 H2726 0.931 . S
C2742 C2736 1.383 . S
C2742 C2741 1.379 . S
H2743 C2737 0.959 . S
H2744 C2737 0.961 . S
H2745 C2737 0.960 . S
H2746 C2738 0.930 . S
H2747 C2739 0.929 . S
H2748 C2756 0.929 . S
H2749 C2758 0.930 . S
H2750 C2760 0.930 . S
H2751 C2763 0.929 . S
H2752 C2766 0.930 . S
H2753 C2768 0.960 . S
H2754 C2768 0.960 . S
H2755 C2768 0.960 . S
C2756 H2748 0.929 . S
C2756 C2757 1.377 . S
C2756 C2758 1.384 . S
C2757 C2756 1.377 . S
C2757 C2763 1.390 . S
C2758 H2749 0.930 . S
C2758 C2756 1.384 . S
C2758 C2759 1.372 . S
C2759 C2758 1.372 . S
C2759 C2760 1.400 . S
C2759 C2764 1.490 . S
C2760 H2750 0.930 . S
C2760 C2759 1.400 . S
C2760 C2763 1.386 . S
H2761 C2777 0.930 . S
H2762 C2778 0.931 . S
C2763 H2751 0.929 . S
C2763 C2757 1.390 . S
C2763 C2760 1.386 . S
C2764 C2759 1.490 . S
C2764 C2766 1.395 . S
C2764 C2767 1.403 . S
H2765 C2771 0.930 . S
C2766 H2752 0.930 . S
C2766 C2764 1.395 . S
C2766 C2769 1.403 . S
C2767 C2764 1.403 . S
C2767 C2768 1.524 . S
C2767 C2771 1.400 . S
C2768 H2753 0.960 . S
C2768 H2754 0.960 . S
C2768 H2755 0.960 . S
C2768 C2767 1.524 . S
C2769 C2766 1.403 . S
C2769 C2770 1.392 . S
C2769 C2773 1.495 . S
C2770 C2769 1.392 . S
C2770 C2771 1.385 . S
C2770 C2772 1.478 . S
C2771 H2765 0.930 . S
C2771 C2767 1.400 . S
C2771 C2770 1.385 . S
C2772 C2770 1.478 . S
C2772 C2774 1.381 . S
C2772 C2778 1.383 . S
C2773 C2769 1.495 . S
C2773 H2779 0.959 . S
C2773 H2780 0.961 . S
C2773 H2781 0.960 . S
C2774 C2772 1.381 . S
C2774 C2775 1.394 . S
C2774 H2782 0.930 . S
C2775 C2774 1.394 . S
C2775 C2776 1.383 . S
C2775 H2783 0.929 . S
C2776 C2775 1.383 . S
C2776 C2777 1.377 . S
C2777 H2761 0.930 . S
C2777 C2776 1.377 . S
C2777 C2778 1.379 . S
C2778 H2762 0.931 . S
C2778 C2772 1.383 . S
C2778 C2777 1.379 . S
H2779 C2773 0.959 . S
H2780 C2773 0.961 . S
H2781 C2773 0.960 . S
H2782 C2774 0.930 . S
H2783 C2775 0.929 . S
H2784 C2792 0.929 . S
H2785 C2794 0.930 . S
H2786 C2796 0.930 . S
H2787 C2799 0.929 . S
H2788 C2802 0.930 . S
H2789 C2804 0.960 . S
H2790 C2804 0.960 . S
H2791 C2804 0.960 . S
C2792 H2784 0.929 . S
C2792 C2793 1.377 . S
C2792 C2794 1.384 . S
C2793 C2792 1.377 . S
C2793 C2799 1.390 . S
C2794 H2785 0.930 . S
C2794 C2792 1.384 . S
C2794 C2795 1.372 . S
C2795 C2794 1.372 . S
C2795 C2796 1.400 . S
C2795 C2800 1.490 . S
C2796 H2786 0.930 . S
C2796 C2795 1.400 . S
C2796 C2799 1.386 . S
H2797 C2813 0.930 . S
H2798 C2814 0.931 . S
C2799 H2787 0.929 . S
C2799 C2793 1.390 . S
C2799 C2796 1.386 . S
C2800 C2795 1.490 . S
C2800 C2802 1.395 . S
C2800 C2803 1.403 . S
H2801 C2807 0.930 . S
C2802 H2788 0.930 . S
C2802 C2800 1.395 . S
C2802 C2805 1.403 . S
C2803 C2800 1.403 . S
C2803 C2804 1.524 . S
C2803 C2807 1.400 . S
C2804 H2789 0.960 . S
C2804 H2790 0.960 . S
C2804 H2791 0.960 . S
C2804 C2803 1.524 . S
C2805 C2802 1.403 . S
C2805 C2806 1.392 . S
C2805 C2809 1.495 . S
C2806 C2805 1.392 . S
C2806 C2807 1.385 . S
C2806 C2808 1.478 . S
C2807 H2801 0.930 . S
C2807 C2803 1.400 . S
C2807 C2806 1.385 . S
C2808 C2806 1.478 . S
C2808 C2810 1.381 . S
C2808 C2814 1.383 . S
C2809 C2805 1.495 . S
C2809 H2815 0.959 . S
C2809 H2816 0.961 . S
C2809 H2817 0.960 . S
C2810 C2808 1.381 . S
C2810 C2811 1.394 . S
C2810 H2818 0.930 . S
C2811 C2810 1.394 . S
C2811 C2812 1.383 . S
C2811 H2819 0.929 . S
C2812 C2811 1.383 . S
C2812 C2813 1.377 . S
C2813 H2797 0.930 . S
C2813 C2812 1.377 . S
C2813 C2814 1.379 . S
C2814 H2798 0.931 . S
C2814 C2808 1.383 . S
C2814 C2813 1.379 . S
H2815 C2809 0.959 . S
H2816 C2809 0.961 . S
H2817 C2809 0.960 . S
H2818 C2810 0.930 . S
H2819 C2811 0.929 . S
H2820 C2828 0.929 . S
H2821 C2830 0.930 . S
H2822 C2832 0.930 . S
H2823 C2835 0.929 . S
H2824 C2838 0.930 . S
H2825 C2840 0.960 . S
H2826 C2840 0.960 . S
H2827 C2840 0.960 . S
C2828 H2820 0.929 . S
C2828 C2829 1.377 . S
C2828 C2830 1.384 . S
C2829 C2828 1.377 . S
C2829 C2835 1.390 . S
C2830 H2821 0.930 . S
C2830 C2828 1.384 . S
C2830 C2831 1.372 . S
C2831 C2830 1.372 . S
C2831 C2832 1.400 . S
C2831 C2836 1.490 . S
C2832 H2822 0.930 . S
C2832 C2831 1.400 . S
C2832 C2835 1.386 . S
H2833 C2849 0.930 . S
H2834 C2850 0.931 . S
C2835 H2823 0.929 . S
C2835 C2829 1.390 . S
C2835 C2832 1.386 . S
C2836 C2831 1.490 . S
C2836 C2838 1.395 . S
C2836 C2839 1.403 . S
H2837 C2843 0.930 . S
C2838 H2824 0.930 . S
C2838 C2836 1.395 . S
C2838 C2841 1.403 . S
C2839 C2836 1.403 . S
C2839 C2840 1.524 . S
C2839 C2843 1.400 . S
C2840 H2825 0.960 . S
C2840 H2826 0.960 . S
C2840 H2827 0.960 . S
C2840 C2839 1.524 . S
C2841 C2838 1.403 . S
C2841 C2842 1.392 . S
C2841 C2845 1.495 . S
C2842 C2841 1.392 . S
C2842 C2843 1.385 . S
C2842 C2844 1.478 . S
C2843 H2837 0.930 . S
C2843 C2839 1.400 . S
C2843 C2842 1.385 . S
C2844 C2842 1.478 . S
C2844 C2846 1.381 . S
C2844 C2850 1.383 . S
C2845 C2841 1.495 . S
C2845 H2851 0.959 . S
C2845 H2852 0.961 . S
C2845 H2853 0.960 . S
C2846 C2844 1.381 . S
C2846 C2847 1.394 . S
C2846 H2854 0.930 . S
C2847 C2846 1.394 . S
C2847 C2848 1.383 . S
C2847 H2855 0.929 . S
C2848 C2847 1.383 . S
C2848 C2849 1.377 . S
C2849 H2833 0.930 . S
C2849 C2848 1.377 . S
C2849 C2850 1.379 . S
C2850 H2834 0.931 . S
C2850 C2844 1.383 . S
C2850 C2849 1.379 . S
H2851 C2845 0.959 . S
H2852 C2845 0.961 . S
H2853 C2845 0.960 . S
H2854 C2846 0.930 . S
H2855 C2847 0.929 . S
H2856 C2864 0.929 . S
H2857 C2866 0.930 . S
H2858 C2868 0.930 . S
H2859 C2871 0.929 . S
H2860 C2874 0.930 . S
H2861 C2876 0.960 . S
H2862 C2876 0.960 . S
H2863 C2876 0.960 . S
C2864 H2856 0.929 . S
C2864 C2865 1.377 . S
C2864 C2866 1.384 . S
C2865 C2864 1.377 . S
C2865 C2871 1.390 . S
C2866 H2857 0.930 . S
C2866 C2864 1.384 . S
C2866 C2867 1.372 . S
C2867 C2866 1.372 . S
C2867 C2868 1.400 . S
C2867 C2872 1.490 . S
C2868 H2858 0.930 . S
C2868 C2867 1.400 . S
C2868 C2871 1.386 . S
H2869 C2885 0.930 . S
H2870 C2886 0.931 . S
C2871 H2859 0.929 . S
C2871 C2865 1.390 . S
C2871 C2868 1.386 . S
C2872 C2867 1.490 . S
C2872 C2874 1.395 . S
C2872 C2875 1.403 . S
H2873 C2879 0.930 . S
C2874 H2860 0.930 . S
C2874 C2872 1.395 . S
C2874 C2877 1.403 . S
C2875 C2872 1.403 . S
C2875 C2876 1.524 . S
C2875 C2879 1.400 . S
C2876 H2861 0.960 . S
C2876 H2862 0.960 . S
C2876 H2863 0.960 . S
C2876 C2875 1.524 . S
C2877 C2874 1.403 . S
C2877 C2878 1.392 . S
C2877 C2881 1.495 . S
C2878 C2877 1.392 . S
C2878 C2879 1.385 . S
C2878 C2880 1.478 . S
C2879 H2873 0.930 . S
C2879 C2875 1.400 . S
C2879 C2878 1.385 . S
C2880 C2878 1.478 . S
C2880 C2882 1.381 . S
C2880 C2886 1.383 . S
C2881 C2877 1.495 . S
C2881 H2887 0.959 . S
C2881 H2888 0.961 . S
C2881 H2889 0.960 . S
C2882 C2880 1.381 . S
C2882 C2883 1.394 . S
C2882 H2890 0.930 . S
C2883 C2882 1.394 . S
C2883 C2884 1.383 . S
C2883 H2891 0.929 . S
C2884 C2883 1.383 . S
C2884 C2885 1.377 . S
C2885 H2869 0.930 . S
C2885 C2884 1.377 . S
C2885 C2886 1.379 . S
C2886 H2870 0.931 . S
C2886 C2880 1.383 . S
C2886 C2885 1.379 . S
H2887 C2881 0.959 . S
H2888 C2881 0.961 . S
H2889 C2881 0.960 . S
H2890 C2882 0.930 . S
H2891 C2883 0.929 . S
H2892 C2900 0.929 . S
H2893 C2902 0.930 . S
H2894 C2904 0.930 . S
H2895 C2907 0.929 . S
H2896 C2910 0.930 . S
H2897 C2912 0.960 . S
H2898 C2912 0.960 . S
H2899 C2912 0.960 . S
C2900 H2892 0.929 . S
C2900 C2901 1.377 . S
C2900 C2902 1.384 . S
C2901 C2900 1.377 . S
C2901 C2907 1.390 . S
C2902 H2893 0.930 . S
C2902 C2900 1.384 . S
C2902 C2903 1.372 . S
C2903 C2902 1.372 . S
C2903 C2904 1.400 . S
C2903 C2908 1.490 . S
C2904 H2894 0.930 . S
C2904 C2903 1.400 . S
C2904 C2907 1.386 . S
H2905 C2921 0.930 . S
H2906 C2922 0.931 . S
C2907 H2895 0.929 . S
C2907 C2901 1.390 . S
C2907 C2904 1.386 . S
C2908 C2903 1.490 . S
C2908 C2910 1.395 . S
C2908 C2911 1.403 . S
H2909 C2915 0.930 . S
C2910 H2896 0.930 . S
C2910 C2908 1.395 . S
C2910 C2913 1.403 . S
C2911 C2908 1.403 . S
C2911 C2912 1.524 . S
C2911 C2915 1.400 . S
C2912 H2897 0.960 . S
C2912 H2898 0.960 . S
C2912 H2899 0.960 . S
C2912 C2911 1.524 . S
C2913 C2910 1.403 . S
C2913 C2914 1.392 . S
C2913 C2917 1.495 . S
C2914 C2913 1.392 . S
C2914 C2915 1.385 . S
C2914 C2916 1.478 . S
C2915 H2909 0.930 . S
C2915 C2911 1.400 . S
C2915 C2914 1.385 . S
C2916 C2914 1.478 . S
C2916 C2918 1.381 . S
C2916 C2922 1.383 . S
C2917 C2913 1.495 . S
C2917 H2923 0.959 . S
C2917 H2924 0.961 . S
C2917 H2925 0.960 . S
C2918 C2916 1.381 . S
C2918 C2919 1.394 . S
C2918 H2926 0.930 . S
C2919 C2918 1.394 . S
C2919 C2920 1.383 . S
C2919 H2927 0.929 . S
C2920 C2919 1.383 . S
C2920 C2921 1.377 . S
C2921 H2905 0.930 . S
C2921 C2920 1.377 . S
C2921 C2922 1.379 . S
C2922 H2906 0.931 . S
C2922 C2916 1.383 . S
C2922 C2921 1.379 . S
H2923 C2917 0.959 . S
H2924 C2917 0.961 . S
H2925 C2917 0.960 . S
H2926 C2918 0.930 . S
H2927 C2919 0.929 . S
H2928 C2936 0.929 . S
H2929 C2938 0.930 . S
H2930 C2940 0.930 . S
H2931 C2943 0.929 . S
H2932 C2946 0.930 . S
H2933 C2948 0.960 . S
H2934 C2948 0.960 . S
H2935 C2948 0.960 . S
C2936 H2928 0.929 . S
C2936 C2937 1.377 . S
C2936 C2938 1.384 . S
C2937 C2936 1.377 . S
C2937 C2943 1.390 . S
C2938 H2929 0.930 . S
C2938 C2936 1.384 . S
C2938 C2939 1.372 . S
C2939 C2938 1.372 . S
C2939 C2940 1.400 . S
C2939 C2944 1.490 . S
C2940 H2930 0.930 . S
C2940 C2939 1.400 . S
C2940 C2943 1.386 . S
H2941 C2957 0.930 . S
H2942 C2958 0.931 . S
C2943 H2931 0.929 . S
C2943 C2937 1.390 . S
C2943 C2940 1.386 . S
C2944 C2939 1.490 . S
C2944 C2946 1.395 . S
C2944 C2947 1.403 . S
H2945 C2951 0.930 . S
C2946 H2932 0.930 . S
C2946 C2944 1.395 . S
C2946 C2949 1.403 . S
C2947 C2944 1.403 . S
C2947 C2948 1.524 . S
C2947 C2951 1.400 . S
C2948 H2933 0.960 . S
C2948 H2934 0.960 . S
C2948 H2935 0.960 . S
C2948 C2947 1.524 . S
C2949 C2946 1.403 . S
C2949 C2950 1.392 . S
C2949 C2953 1.495 . S
C2950 C2949 1.392 . S
C2950 C2951 1.385 . S
C2950 C2952 1.478 . S
C2951 H2945 0.930 . S
C2951 C2947 1.400 . S
C2951 C2950 1.385 . S
C2952 C2950 1.478 . S
C2952 C2954 1.381 . S
C2952 C2958 1.383 . S
C2953 C2949 1.495 . S
C2953 H2959 0.959 . S
C2953 H2960 0.961 . S
C2953 H2961 0.960 . S
C2954 C2952 1.381 . S
C2954 C2955 1.394 . S
C2954 H2962 0.930 . S
C2955 C2954 1.394 . S
C2955 C2956 1.383 . S
C2955 H2963 0.929 . S
C2956 C2955 1.383 . S
C2956 C2957 1.377 . S
C2957 H2941 0.930 . S
C2957 C2956 1.377 . S
C2957 C2958 1.379 . S
C2958 H2942 0.931 . S
C2958 C2952 1.383 . S
C2958 C2957 1.379 . S
H2959 C2953 0.959 . S
H2960 C2953 0.961 . S
H2961 C2953 0.960 . S
H2962 C2954 0.930 . S
H2963 C2955 0.929 . S
H2964 C2972 0.929 . S
H2965 C2974 0.930 . S
H2966 C2976 0.930 . S
H2967 C2979 0.929 . S
H2968 C2982 0.930 . S
H2969 C2984 0.960 . S
H2970 C2984 0.960 . S
H2971 C2984 0.960 . S
C2972 H2964 0.929 . S
C2972 C2973 1.377 . S
C2972 C2974 1.384 . S
C2973 C2972 1.377 . S
C2973 C2979 1.390 . S
C2974 H2965 0.930 . S
C2974 C2972 1.384 . S
C2974 C2975 1.372 . S
C2975 C2974 1.372 . S
C2975 C2976 1.400 . S
C2975 C2980 1.490 . S
C2976 H2966 0.930 . S
C2976 C2975 1.400 . S
C2976 C2979 1.386 . S
H2977 C2993 0.930 . S
H2978 C2994 0.931 . S
C2979 H2967 0.929 . S
C2979 C2973 1.390 . S
C2979 C2976 1.386 . S
C2980 C2975 1.490 . S
C2980 C2982 1.395 . S
C2980 C2983 1.403 . S
H2981 C2987 0.930 . S
C2982 H2968 0.930 . S
C2982 C2980 1.395 . S
C2982 C2985 1.403 . S
C2983 C2980 1.403 . S
C2983 C2984 1.524 . S
C2983 C2987 1.400 . S
C2984 H2969 0.960 . S
C2984 H2970 0.960 . S
C2984 H2971 0.960 . S
C2984 C2983 1.524 . S
C2985 C2982 1.403 . S
C2985 C2986 1.392 . S
C2985 C2989 1.495 . S
C2986 C2985 1.392 . S
C2986 C2987 1.385 . S
C2986 C2988 1.478 . S
C2987 H2981 0.930 . S
C2987 C2983 1.400 . S
C2987 C2986 1.385 . S
C2988 C2986 1.478 . S
C2988 C2990 1.381 . S
C2988 C2994 1.383 . S
C2989 C2985 1.495 . S
C2989 H2995 0.959 . S
C2989 H2996 0.961 . S
C2989 H2997 0.960 . S
C2990 C2988 1.381 . S
C2990 C2991 1.394 . S
C2990 H2998 0.930 . S
C2991 C2990 1.394 . S
C2991 C2992 1.383 . S
C2991 H2999 0.929 . S
C2992 C2991 1.383 . S
C2992 C2993 1.377 . S
C2993 H2977 0.930 . S
C2993 C2992 1.377 . S
C2993 C2994 1.379 . S
C2994 H2978 0.931 . S
C2994 C2988 1.383 . S
C2994 C2993 1.379 . S
H2995 C2989 0.959 . S
H2996 C2989 0.961 . S
H2997 C2989 0.960 . S
H2998 C2990 0.930 . S
H2999 C2991 0.929 . S
H3000 C3008 0.929 . S
H3001 C3010 0.930 . S
H3002 C3012 0.930 . S
H3003 C3015 0.929 . S
H3004 C3018 0.930 . S
H3005 C3020 0.960 . S
H3006 C3020 0.960 . S
H3007 C3020 0.960 . S
C3008 H3000 0.929 . S
C3008 C3009 1.377 . S
C3008 C3010 1.384 . S
C3009 C3008 1.377 . S
C3009 C3015 1.390 . S
C3010 H3001 0.930 . S
C3010 C3008 1.384 . S
C3010 C3011 1.372 . S
C3011 C3010 1.372 . S
C3011 C3012 1.400 . S
C3011 C3016 1.490 . S
C3012 H3002 0.930 . S
C3012 C3011 1.400 . S
C3012 C3015 1.386 . S
H3013 C3029 0.930 . S
H3014 C3030 0.931 . S
C3015 H3003 0.929 . S
C3015 C3009 1.390 . S
C3015 C3012 1.386 . S
C3016 C3011 1.490 . S
C3016 C3018 1.395 . S
C3016 C3019 1.403 . S
H3017 C3023 0.930 . S
C3018 H3004 0.930 . S
C3018 C3016 1.395 . S
C3018 C3021 1.403 . S
C3019 C3016 1.403 . S
C3019 C3020 1.524 . S
C3019 C3023 1.400 . S
C3020 H3005 0.960 . S
C3020 H3006 0.960 . S
C3020 H3007 0.960 . S
C3020 C3019 1.524 . S
C3021 C3018 1.403 . S
C3021 C3022 1.392 . S
C3021 C3025 1.495 . S
C3022 C3021 1.392 . S
C3022 C3023 1.385 . S
C3022 C3024 1.478 . S
C3023 H3017 0.930 . S
C3023 C3019 1.400 . S
C3023 C3022 1.385 . S
C3024 C3022 1.478 . S
C3024 C3026 1.381 . S
C3024 C3030 1.383 . S
C3025 C3021 1.495 . S
C3025 H3031 0.959 . S
C3025 H3032 0.961 . S
C3025 H3033 0.960 . S
C3026 C3024 1.381 . S
C3026 C3027 1.394 . S
C3026 H3034 0.930 . S
C3027 C3026 1.394 . S
C3027 C3028 1.383 . S
C3027 H3035 0.929 . S
C3028 C3027 1.383 . S
C3028 C3029 1.377 . S
C3029 H3013 0.930 . S
C3029 C3028 1.377 . S
C3029 C3030 1.379 . S
C3030 H3014 0.931 . S
C3030 C3024 1.383 . S
C3030 C3029 1.379 . S
H3031 C3025 0.959 . S
H3032 C3025 0.961 . S
H3033 C3025 0.960 . S
H3034 C3026 0.930 . S
H3035 C3027 0.929 . S
H3036 C3044 0.929 . S
H3037 C3046 0.930 . S
H3038 C3048 0.930 . S
H3039 C3051 0.929 . S
H3040 C3054 0.930 . S
H3041 C3056 0.960 . S
H3042 C3056 0.960 . S
H3043 C3056 0.960 . S
C3044 H3036 0.929 . S
C3044 C3045 1.377 . S
C3044 C3046 1.384 . S
C3045 C3044 1.377 . S
C3045 C3051 1.390 . S
C3046 H3037 0.930 . S
C3046 C3044 1.384 . S
C3046 C3047 1.372 . S
C3047 C3046 1.372 . S
C3047 C3048 1.400 . S
C3047 C3052 1.490 . S
C3048 H3038 0.930 . S
C3048 C3047 1.400 . S
C3048 C3051 1.386 . S
H3049 C3065 0.930 . S
H3050 C3066 0.931 . S
C3051 H3039 0.929 . S
C3051 C3045 1.390 . S
C3051 C3048 1.386 . S
C3052 C3047 1.490 . S
C3052 C3054 1.395 . S
C3052 C3055 1.403 . S
H3053 C3059 0.930 . S
C3054 H3040 0.930 . S
C3054 C3052 1.395 . S
C3054 C3057 1.403 . S
C3055 C3052 1.403 . S
C3055 C3056 1.524 . S
C3055 C3059 1.400 . S
C3056 H3041 0.960 . S
C3056 H3042 0.960 . S
C3056 H3043 0.960 . S
C3056 C3055 1.524 . S
C3057 C3054 1.403 . S
C3057 C3058 1.392 . S
C3057 C3061 1.495 . S
C3058 C3057 1.392 . S
C3058 C3059 1.385 . S
C3058 C3060 1.478 . S
C3059 H3053 0.930 . S
C3059 C3055 1.400 . S
C3059 C3058 1.385 . S
C3060 C3058 1.478 . S
C3060 C3062 1.381 . S
C3060 C3066 1.383 . S
C3061 C3057 1.495 . S
C3061 H3067 0.959 . S
C3061 H3068 0.961 . S
C3061 H3069 0.960 . S
C3062 C3060 1.381 . S
C3062 C3063 1.394 . S
C3062 H3070 0.930 . S
C3063 C3062 1.394 . S
C3063 C3064 1.383 . S
C3063 H3071 0.929 . S
C3064 C3063 1.383 . S
C3064 C3065 1.377 . S
C3065 H3049 0.930 . S
C3065 C3064 1.377 . S
C3065 C3066 1.379 . S
C3066 H3050 0.931 . S
C3066 C3060 1.383 . S
C3066 C3065 1.379 . S
H3067 C3061 0.959 . S
H3068 C3061 0.961 . S
H3069 C3061 0.960 . S
H3070 C3062 0.930 . S
H3071 C3063 0.929 . S
C489 C18 1.109 . S
C508 C362 1.103 . S
C525 C382 1.078 . S
C544 C38 1.096 . S
C561 C58 1.110 . S
C580 C322 1.062 . S
C597 C78 1.107 . S
C616 C342 1.088 . S
C633 C442 1.079 . S
C652 C98 1.085 . S
C669 C118 1.111 . S
C688 C422 1.068 . S
C705 C462 1.092 . S
C724 C138 1.115 . S
C741 C158 1.111 . S
C760 C402 1.071 . S
C777 C178 1.106 . S
C796 C262 1.081 . S
C813 C198 1.112 . S
C832 C302 1.079 . S
C849 C282 1.088 . S
C868 C218 1.127 . S
C885 C238 1.112 . S
C904 C242 1.078 . S
C921 C259 1.106 . S
C940 C124 1.057 . S
C957 C279 1.113 . S
C976 C144 1.114 . S
C993 C299 1.107 . S
C1012 C84 1.052 . S
C1029 C104 1.081 . S
C1048 C319 1.124 . S
C1065 C339 1.105 . S
C1084 C204 1.063 . S
C1101 C184 1.091 . S
C1120 C359 1.126 . S
C1137 C224 1.082 . S
C1156 C379 1.127 . S
C1173 C164 1.078 . S
C1192 C399 1.099 . S
C1209 C24 1.090 . S
C1228 C419 1.126 . S
C1245 C64 1.092 . S
C1264 C439 1.098 . S
C1281 C44 1.091 . S
C1300 C459 1.124 . S
C1317 C479 1.108 . S
C1336 C4 1.115 . S
C1353 C82 1.319 . S
C1372 C9 1.452 . S
C1389 C102 1.319 . S
C1408 C29 1.450 . S
C1425 C122 1.336 . S
C1444 C49 1.421 . S
C1461 C142 1.320 . S
C1480 C69 1.453 . S
C1497 C89 1.443 . S
C1516 C162 1.321 . S
C1533 C109 1.439 . S
C1552 C222 1.305 . S
C1569 C129 1.440 . S
C1588 C182 1.296 . S
C1605 C149 1.436 . S
C1624 C202 1.364 . S
C1641 C169 1.440 . S
C1660 C2 1.352 . S
C1677 C189 1.440 . S
C1696 C42 1.350 . S
C1713 C209 1.437 . S
C1732 C62 1.366 . S
C1749 C22 1.336 . S
C1768 C229 1.428 . S
C1785 C324 1.327 . S
C1804 C252 1.454 . S
C1821 C344 1.319 . S
C1840 C272 1.434 . S
C1857 C292 1.437 . S
C1876 C364 1.358 . S
C1893 C312 1.443 . S
C1912 C384 1.298 . S
C1929 C404 1.332 . S
C1948 C332 1.450 . S
C1965 C352 1.439 . S
C1984 C464 1.368 . S
C2001 C424 1.335 . S
C2020 C372 1.444 . S
C2037 C392 1.441 . S
C2056 C444 1.362 . S
C2073 C244 1.336 . S
C2092 C412 1.427 . S
C2109 C432 1.437 . S
C2128 C284 1.362 . S
C2145 C452 1.443 . S
C2164 C304 1.299 . S
C2181 C264 1.319 . S
C2200 C472 1.445 . S
C2217 C19 1.481 . S
C2236 C192 1.513 . S
C2253 C212 1.503 . S
C2272 C39 1.475 . S
C2289 C172 1.494 . S
C2308 C59 1.449 . S
C2325 C232 1.504 . S
C2344 C79 1.482 . S
C2361 C99 1.485 . S
C2380 C72 1.525 . S
C2397 C52 1.492 . S
C2416 C119 1.459 . S
C2433 C139 1.477 . S
C2452 C32 1.490 . S
C2469 C12 1.492 . S
C2488 C159 1.482 . S
C2505 C179 1.485 . S
C2524 C112 1.468 . S
C2541 C199 1.485 . S
C2560 C152 1.524 . S
C2577 C219 1.477 . S
C2596 C132 1.491 . S
C2613 C239 1.491 . S
C2632 C92 1.495 . S
C2649 C258 1.490 . S
C2668 C429 1.499 . S
C2685 C278 1.478 . S
C2704 C449 1.467 . S
C2721 C409 1.501 . S
C2740 C298 1.513 . S
C2757 C469 1.496 . S
C2776 C318 1.502 . S
C2793 C338 1.490 . S
C2812 C309 1.494 . S
C2829 C358 1.479 . S
C2848 C289 1.464 . S
C2865 C269 1.498 . S
C2884 C378 1.509 . S
C2901 C398 1.484 . S
C2920 C249 1.468 . S
C2937 C418 1.479 . S
C2956 C349 1.497 . S
C2973 C389 1.492 . S
C2992 C438 1.474 . S
C3009 C458 1.491 . S
C3028 C369 1.514 . S
C3045 C478 1.479 . S
C3064 C329 1.465 . S
