# Generated by pormake.
# Topology umw, (4)-cn, num edge types: 1
# Building blocks:
#     Node 0, Type 0, BuildingBlock: GALJAG_clean_sbu_0, # of connection points: 4
#     Node 1, Type 0, BuildingBlock: GALJAG_clean_sbu_0, # of connection points: 4
#     Node 2, Type 0, BuildingBlock: GALJAG_clean_sbu_0, # of connection points: 4
#     Node 3, Type 0, BuildingBlock: GALJAG_clean_sbu_0, # of connection points: 4
#     Node 4, Type 0, BuildingBlock: GALJAG_clean_sbu_0, # of connection points: 4
#     Node 5, Type 0, BuildingBlock: GALJAG_clean_sbu_0, # of connection points: 4
#     Node 6, Type 0, BuildingBlock: GALJAG_clean_sbu_0, # of connection points: 4
#     Node 7, Type 0, BuildingBlock: GALJAG_clean_sbu_0, # of connection points: 4
#     Edge 8, Type (0, 0), BuildingBlock: CIFDUS_clean_linker_0, # of connection points: 2
#     Edge 9, Type (0, 0), BuildingBlock: CIFDUS_clean_linker_0, # of connection points: 2
#     Edge 10, Type (0, 0), BuildingBlock: CIFDUS_clean_linker_0, # of connection points: 2
#     Edge 11, Type (0, 0), BuildingBlock: CIFDUS_clean_linker_0, # of connection points: 2
#     Edge 12, Type (0, 0), BuildingBlock: CIFDUS_clean_linker_0, # of connection points: 2
#     Edge 13, Type (0, 0), BuildingBlock: CIFDUS_clean_linker_0, # of connection points: 2
#     Edge 14, Type (0, 0), BuildingBlock: CIFDUS_clean_linker_0, # of connection points: 2
#     Edge 15, Type (0, 0), BuildingBlock: CIFDUS_clean_linker_0, # of connection points: 2
#     Edge 16, Type (0, 0), BuildingBlock: CIFDUS_clean_linker_0, # of connection points: 2
#     Edge 17, Type (0, 0), BuildingBlock: CIFDUS_clean_linker_0, # of connection points: 2
#     Edge 18, Type (0, 0), BuildingBlock: CIFDUS_clean_linker_0, # of connection points: 2
#     Edge 19, Type (0, 0), BuildingBlock: CIFDUS_clean_linker_0, # of connection points: 2
#     Edge 20, Type (0, 0), BuildingBlock: CIFDUS_clean_linker_0, # of connection points: 2
#     Edge 21, Type (0, 0), BuildingBlock: CIFDUS_clean_linker_0, # of connection points: 2
#     Edge 22, Type (0, 0), BuildingBlock: CIFDUS_clean_linker_0, # of connection points: 2
#     Edge 23, Type (0, 0), BuildingBlock: CIFDUS_clean_linker_0, # of connection points: 2
# Relax obj value: 0.088
# Max RMSD: 0.077
# Mean RMSD: 0.077
data_MOF--net-umw--node1-GALJAG_clean_sbu_0--edge1-CIFDUS_clean_linker_0
_symmetry_space_group_name_H-M    P1
_symmetry_Int_Tables_number       1
_symmetry_cell_setting            triclinic
loop_
_symmetry_equiv_pos_as_xyz
'x, y, z'
_cell_length_a     35.173816
_cell_length_b     35.056329
_cell_length_c     24.042176
_cell_angle_alpha  90.060923
_cell_angle_beta   90.022963
_cell_angle_gamma 90.301675
loop_
_atom_site_label
_atom_site_type_symbol
_atom_site_fract_x
_atom_site_fract_y
_atom_site_fract_z
_atom_type_partial_charge
In0 In 0.41214 0.18967 0.33183 0.0
O1 O 0.3527 0.20622 0.36151 0.0
O2 O 0.393 0.25043 0.34627 0.0
C3 C 0.40306 0.11379 0.32182 0.0
C4 C 0.44869 0.19375 0.42992 0.0
C5 C 0.43797 0.20627 0.22873 0.0
O6 O 0.37536 0.13638 0.31624 0.0
O7 O 0.43477 0.12972 0.33052 0.0
O8 O 0.45985 0.20338 0.27021 0.0
O9 O 0.40314 0.20149 0.23959 0.0
C10 C 0.36042 0.24142 0.36393 0.0
O11 O 0.46052 0.21183 0.38773 0.0
O12 O 0.41967 0.17334 0.42162 0.0
In13 In 0.80397 0.41467 0.59219 0.0
O14 O 0.78713 0.46898 0.639 0.0
O15 O 0.79741 0.41838 0.68549 0.0
C16 C 0.79354 0.43962 0.48668 0.0
C17 C 0.75309 0.35874 0.6123 0.0
C18 C 0.88024 0.41023 0.60167 0.0
O19 O 0.78759 0.46045 0.52863 0.0
O20 O 0.80412 0.40618 0.49802 0.0
O21 O 0.86073 0.38278 0.58276 0.0
O22 O 0.86147 0.43948 0.61393 0.0
C23 C 0.78871 0.45321 0.68629 0.0
O24 O 0.78844 0.35386 0.6178 0.0
O25 O 0.74379 0.39098 0.59345 0.0
In26 In 0.58257 0.80252 0.81112 0.0
O27 O 0.64458 0.79178 0.83532 0.0
O28 O 0.60504 0.74597 0.84212 0.0
C29 C 0.59046 0.87858 0.80268 0.0
C30 C 0.54366 0.79764 0.90725 0.0
C31 C 0.55664 0.7839 0.70819 0.0
O32 O 0.61847 0.85647 0.79652 0.0
O33 O 0.55897 0.86212 0.81092 0.0
O34 O 0.53484 0.78918 0.74908 0.0
O35 O 0.59154 0.78668 0.71963 0.0
C36 C 0.63834 0.75795 0.85101 0.0
O37 O 0.53886 0.77357 0.86858 0.0
O38 O 0.56668 0.82422 0.89627 0.0
In39 In 0.18217 0.57492 0.08013 0.0
O40 O 0.20591 0.53024 0.13915 0.0
O41 O 0.16429 0.56851 0.17033 0.0
C42 C 0.20483 0.54362 0.98305 0.0
C43 C 0.22828 0.63389 0.10637 0.0
C44 C 0.10621 0.57358 0.06669 0.0
O45 O 0.20509 0.52594 0.02865 0.0
O46 O 0.19418 0.57794 0.9864 0.0
O47 O 0.1244 0.60458 0.0721 0.0
O48 O 0.12645 0.54401 0.06689 0.0
C49 C 0.18633 0.54109 0.18015 0.0
O50 O 0.19448 0.63915 0.09037 0.0
O51 O 0.23897 0.59967 0.10501 0.0
In52 In 0.42747 0.81268 0.31288 0.0
O53 O 0.36704 0.79765 0.2828 0.0
O54 O 0.40691 0.75301 0.29474 0.0
C55 C 0.42237 0.88763 0.33371 0.0
C56 C 0.46663 0.81517 0.21665 0.0
C57 C 0.45084 0.79196 0.41548 0.0
O58 O 0.39314 0.86784 0.322 0.0
O59 O 0.45312 0.86925 0.33596 0.0
O60 O 0.47317 0.79356 0.37431 0.0
O61 O 0.41662 0.79976 0.4044 0.0
C62 C 0.37413 0.76241 0.27891 0.0
O63 O 0.47215 0.78914 0.25198 0.0
O64 O 0.44245 0.83969 0.23039 0.0
In65 In 0.17786 0.42226 0.58397 0.0
O66 O 0.20386 0.44452 0.50403 0.0
O67 O 0.14984 0.46611 0.52648 0.0
C68 C 0.20037 0.46079 0.67586 0.0
C69 C 0.2254 0.36503 0.55808 0.0
C70 C 0.10528 0.39801 0.59396 0.0
O71 O 0.19228 0.47694 0.63063 0.0
O72 O 0.19822 0.42482 0.67451 0.0
O73 O 0.12597 0.38876 0.55336 0.0
O74 O 0.12164 0.41821 0.63031 0.0
C75 C 0.17644 0.46567 0.4914 0.0
O76 O 0.19176 0.35876 0.57416 0.0
O77 O 0.23557 0.39955 0.55986 0.0
In78 In 0.56444 0.17911 0.83371 0.0
O79 O 0.53298 0.21133 0.7648 0.0
O80 O 0.52466 0.15161 0.76994 0.0
C81 C 0.54321 0.20419 0.93592 0.0
C82 C 0.6232 0.21909 0.79137 0.0
C83 C 0.57244 0.10316 0.84419 0.0
O84 O 0.52059 0.20202 0.89537 0.0
O85 O 0.57701 0.19539 0.92435 0.0
O86 O 0.5976 0.1235 0.82079 0.0
O87 O 0.54441 0.12141 0.86304 0.0
C88 C 0.51794 0.18195 0.74403 0.0
O89 O 0.62796 0.18649 0.81276 0.0
O90 O 0.58981 0.23172 0.79459 0.0
In91 In 0.80463 0.57292 0.08985 0.0
O92 O 0.78689 0.51884 0.04242 0.0
O93 O 0.8073 0.56655 0.99641 0.0
C94 C 0.79076 0.5475 0.19434 0.0
C95 C 0.75309 0.62534 0.05961 0.0
C96 C 0.88064 0.58384 0.09119 0.0
O97 O 0.79321 0.52555 0.1529 0.0
O98 O 0.79435 0.58249 0.18297 0.0
O99 O 0.85775 0.61036 0.10243 0.0
O100 O 0.86514 0.55216 0.08071 0.0
C101 C 0.79423 0.53304 0.99527 0.0
O102 O 0.7883 0.63246 0.06122 0.0
O103 O 0.74374 0.59281 0.07769 0.0
H104 H 0.43367 0.14947 0.51871 0.0
H105 H 0.50142 0.24588 0.46639 0.0
H106 H 0.52643 0.2529 0.56109 0.0
H107 H 0.52953 0.23069 0.65842 0.0
H108 H 0.46439 0.13185 0.708 0.0
H109 H 0.43714 0.12707 0.61466 0.0
C110 C 0.45396 0.17202 0.52796 0.0
C111 C 0.46575 0.19713 0.48576 0.0
C112 C 0.46825 0.17565 0.58206 0.0
C113 C 0.49215 0.22608 0.49822 0.0
C114 C 0.50624 0.23021 0.55235 0.0
C115 C 0.50888 0.20853 0.64886 0.0
C116 C 0.49848 0.18192 0.68991 0.0
C117 C 0.49441 0.20518 0.59461 0.0
C118 C 0.47249 0.15276 0.67697 0.0
C119 C 0.45711 0.14991 0.62365 0.0
H120 H 0.78114 0.42295 0.78911 0.0
H121 H 0.78679 0.53032 0.7018 0.0
H122 H 0.78746 0.5646 0.79048 0.0
H123 H 0.79097 0.56365 0.89243 0.0
H124 H 0.78433 0.45643 0.97991 0.0
H125 H 0.7794 0.4223 0.89125 0.0
C126 C 0.78215 0.45388 0.78951 0.0
C127 C 0.78427 0.47413 0.73911 0.0
C128 C 0.78265 0.4733 0.84052 0.0
C129 C 0.78517 0.51415 0.74011 0.0
C130 C 0.78575 0.53372 0.79075 0.0
C131 C 0.7883 0.5328 0.89206 0.0
C132 C 0.78851 0.51245 0.94243 0.0
C133 C 0.78527 0.51353 0.84113 0.0
C134 C 0.7844 0.47262 0.94156 0.0
C135 C 0.78165 0.45315 0.89094 0.0
H136 H 0.47656 0.75695 0.1438 0.0
H137 H 0.49602 0.87741 0.16702 0.0
H138 H 0.52128 0.88262 0.07262 0.0
H139 H 0.53637 0.85337 0.98324 0.0
H140 H 0.51292 0.73397 0.9559 0.0
H141 H 0.48989 0.72782 0.05181 0.0
C142 C 0.48695 0.78409 0.12817 0.0
C143 C 0.48526 0.81666 0.16213 0.0
C144 C 0.49996 0.78713 0.07304 0.0
C145 C 0.4976 0.85199 0.14144 0.0
C146 C 0.51178 0.855 0.08753 0.0
C147 C 0.52606 0.82602 0.99821 0.0
C148 C 0.5263 0.79416 0.9628 0.0
C149 C 0.51273 0.82286 0.05286 0.0
C150 C 0.51266 0.75895 0.98244 0.0
C151 C 0.49981 0.75539 0.03732 0.0
H152 H 0.22239 0.45504 0.40319 0.0
H153 H 0.12564 0.51991 0.45882 0.0
H154 H 0.12049 0.54953 0.36695 0.0
H155 H 0.14263 0.5555 0.27039 0.0
H156 H 0.23783 0.48843 0.21439 0.0
H157 H 0.24434 0.46083 0.30712 0.0
C158 C 0.20037 0.47592 0.39536 0.0
C159 C 0.17453 0.4855 0.43759 0.0
C160 C 0.19714 0.4921 0.3424 0.0
C161 C 0.14589 0.51222 0.42682 0.0
C162 C 0.14289 0.52904 0.37437 0.0
C163 C 0.16479 0.53484 0.27854 0.0
C164 C 0.18969 0.52393 0.23575 0.0
C165 C 0.16817 0.51892 0.33175 0.0
C166 C 0.21823 0.49711 0.2467 0.0
C167 C 0.22204 0.48143 0.29968 0.0
H168 H 0.29874 0.22679 0.42912 0.0
H169 H 0.36891 0.31837 0.36594 0.0
H170 H 0.33499 0.36404 0.42387 0.0
H171 H 0.28652 0.37791 0.49331 0.0
H172 H 0.21465 0.28754 0.55571 0.0
H173 H 0.24875 0.24117 0.49814 0.0
C174 C 0.30618 0.25683 0.42747 0.0
C175 C 0.33615 0.26923 0.39308 0.0
C176 C 0.28686 0.28295 0.46157 0.0
C177 C 0.34582 0.30815 0.39185 0.0
C178 C 0.32665 0.33424 0.42526 0.0
C179 C 0.2786 0.34797 0.49496 0.0
C180 C 0.24845 0.33604 0.52922 0.0
C181 C 0.2975 0.32188 0.46074 0.0
C182 C 0.23806 0.2973 0.53007 0.0
C183 C 0.25733 0.27089 0.49684 0.0
H184 H 0.76571 0.29557 0.67555 0.0
H185 H 0.67641 0.36223 0.60076 0.0
H186 H 0.62861 0.32454 0.64977 0.0
H187 H 0.6123 0.27578 0.71804 0.0
H188 H 0.70044 0.20803 0.79319 0.0
H189 H 0.74878 0.24328 0.74012 0.0
C190 C 0.73576 0.30137 0.66927 0.0
C191 C 0.7246 0.33173 0.63468 0.0
C192 C 0.70835 0.27991 0.69835 0.0
C193 C 0.68572 0.33906 0.62716 0.0
C194 C 0.65838 0.31768 0.65543 0.0
C195 C 0.64212 0.26877 0.72304 0.0
C196 C 0.65293 0.23983 0.76014 0.0
C197 C 0.66942 0.28868 0.69202 0.0
C198 C 0.69154 0.2305 0.76525 0.0
C199 C 0.71909 0.25055 0.73481 0.0
H200 H 0.76945 0.68797 0.99743 0.0
H201 H 0.67636 0.61642 0.05163 0.0
H202 H 0.63315 0.65013 0.98947 0.0
H203 H 0.62233 0.69806 0.91737 0.0
H204 H 0.71466 0.77061 0.86369 0.0
H205 H 0.75799 0.73779 0.92732 0.0
C206 C 0.73958 0.68018 0.9963 0.0
C207 C 0.72609 0.64981 0.02922 0.0
C208 C 0.71502 0.69925 0.95972 0.0
C209 C 0.6874 0.63981 0.02692 0.0
C210 C 0.66274 0.65885 0.99105 0.0
C211 C 0.65205 0.70641 0.91909 0.0
C212 C 0.66549 0.73627 0.88529 0.0
C213 C 0.6764 0.68811 0.95659 0.0
C214 C 0.70382 0.74738 0.88888 0.0
C215 C 0.72848 0.72882 0.9255 0.0
H216 H 0.29262 0.62338 0.16437 0.0
H217 H 0.2162 0.71136 0.1091 0.0
H218 H 0.25363 0.75935 0.15999 0.0
H219 H 0.30846 0.77582 0.22086 0.0
H220 H 0.38258 0.68586 0.2769 0.0
H221 H 0.34517 0.63902 0.22581 0.0
C222 C 0.28426 0.65312 0.1629 0.0
C223 C 0.25197 0.6639 0.1325 0.0
C224 C 0.30522 0.6801 0.19313 0.0
C225 C 0.24121 0.70244 0.13182 0.0
C226 C 0.26246 0.7298 0.16118 0.0
C227 C 0.31605 0.7459 0.22234 0.0
C228 C 0.34824 0.73435 0.2527 0.0
C229 C 0.29444 0.71889 0.19233 0.0
C230 C 0.35795 0.69553 0.25392 0.0
C231 C 0.33669 0.66869 0.22448 0.0
H232 H 0.36489 0.93726 0.3089 0.0
H233 H 0.4799 0.93205 0.37127 0.0
H234 H 0.48371 0.0013 0.37274 0.0
H235 H 0.45591 0.06309 0.3531 0.0
H236 H 0.34101 0.07049 0.29157 0.0
H237 H 0.33564 0.00063 0.2927 0.0
C238 C 0.39055 0.95139 0.32342 0.0
C239 C 0.4221 0.92954 0.33979 0.0
C240 C 0.39275 0.99152 0.3237 0.0
C241 C 0.45525 0.94817 0.35826 0.0
C242 C 0.45755 0.9878 0.35899 0.0
C243 C 0.42966 0.04949 0.33976 0.0
C244 C 0.39904 0.07183 0.32174 0.0
C245 C 0.42674 0.00968 0.34105 0.0
C246 C 0.36507 0.0538 0.30532 0.0
C247 C 0.36199 0.01391 0.30608 0.0
H248 H 0.93156 0.36326 0.55152 0.0
H249 H 0.92152 0.45413 0.67174 0.0
H250 H 0.99021 0.45508 0.68463 0.0
H251 H 0.05322 0.43348 0.65735 0.0
H252 H 0.06493 0.34652 0.53163 0.0
H253 H -0.00439 0.3402 0.52572 0.0
C254 C 0.94452 0.38297 0.5808 0.0
C255 C 0.92166 0.4087 0.61043 0.0
C256 C 0.98429 0.38406 0.58701 0.0
C257 C 0.93864 0.43429 0.64808 0.0
C258 C 0.97789 0.4348 0.65561 0.0
C259 C 0.04062 0.4127 0.62928 0.0
C260 C 0.06402 0.39043 0.5951 0.0
C261 C 0.001 0.41027 0.6247 0.0
C262 C 0.04736 0.36396 0.55841 0.0
C263 C 0.00779 0.36046 0.55488 0.0
H264 H 0.54087 0.92683 0.84925 0.0
H265 H 0.64875 0.92389 0.76437 0.0
H266 H 0.65382 0.99365 0.77142 0.0
H267 H 0.62629 0.05563 0.80041 0.0
H268 H 0.51924 0.05619 0.88839 0.0
H269 H 0.51541 0.98709 0.88201 0.0
C270 C 0.56544 0.94144 0.83199 0.0
C271 C 0.59414 0.92045 0.80564 0.0
C272 C 0.56842 0.98108 0.83718 0.0
C273 C 0.62617 0.93961 0.7845 0.0
C274 C 0.62908 0.97941 0.78864 0.0
C275 C 0.60237 0.04051 0.8186 0.0
C276 C 0.57302 0.06105 0.84461 0.0
C277 C 0.60027 0.00048 0.81482 0.0
C278 C 0.54219 0.04113 0.86806 0.0
C279 C 0.53986 0.00158 0.86428 0.0
H280 H 0.93251 0.53118 0.06211 0.0
H281 H 0.92201 0.64862 0.11327 0.0
H282 H 0.99115 0.65673 0.10727 0.0
H283 H 0.05482 0.62957 0.08938 0.0
H284 H 0.06385 0.51165 0.03943 0.0
H285 H -0.00504 0.50474 0.04248 0.0
C286 C 0.9453 0.55858 0.07203 0.0
C287 C 0.92226 0.58919 0.0884 0.0
C288 C 0.9848 0.56299 0.06839 0.0
C289 C 0.93923 0.62457 0.1008 0.0
C290 C 0.97871 0.62923 0.09725 0.0
C291 C 0.04159 0.60254 0.07863 0.0
C292 C 0.06436 0.57118 0.0642 0.0
C293 C 0.00181 0.59856 0.08121 0.0
C294 C 0.04694 0.5362 0.05076 0.0
C295 C 0.00756 0.53217 0.0526 0.0
H296 H 0.47074 0.21472 0.97132 0.0
H297 H 0.58648 0.20907 0.03006 0.0
H298 H 0.56425 0.21214 0.12631 0.0
H299 H 0.51156 0.21087 0.19382 0.0
H300 H 0.39583 0.21445 0.13447 0.0
H301 H 0.41842 0.21792 0.03861 0.0
C302 C 0.49115 0.21474 0.00515 0.0
C303 C 0.5302 0.2115 0.99352 0.0
C304 C 0.47813 0.21578 0.06038 0.0
C305 C 0.55626 0.21148 0.03786 0.0
C306 C 0.54355 0.21308 0.09294 0.0
C307 C 0.49131 0.21284 0.15993 0.0
C308 C 0.45206 0.21213 0.17129 0.0
C309 C 0.5045 0.21435 0.10473 0.0
C310 C 0.42619 0.21475 0.1269 0.0
C311 C 0.43908 0.2167 0.07202 0.0
H312 H 0.79289 0.47387 0.22898 0.0
H313 H 0.77987 0.58902 0.28921 0.0
H314 H 0.77746 0.56564 0.38499 0.0
H315 H 0.78219 0.51266 0.45197 0.0
H316 H 0.79765 0.3979 0.3913 0.0
H317 H 0.79583 0.4209 0.29551 0.0
C318 C 0.78919 0.49383 0.26302 0.0
C319 C 0.78658 0.53313 0.25197 0.0
C320 C 0.78844 0.48025 0.318 0.0
C321 C 0.78198 0.55862 0.29659 0.0
C322 C 0.78066 0.54528 0.35138 0.0
C323 C 0.78485 0.49267 0.41775 0.0
C324 C 0.7901 0.45362 0.42878 0.0
C325 C 0.78433 0.50618 0.36265 0.0
C326 C 0.79368 0.42811 0.38399 0.0
C327 C 0.79266 0.44123 0.32916 0.0
H328 H 0.48309 0.78248 0.67316 0.0
H329 H 0.59849 0.7743 0.61372 0.0
H330 H 0.57573 0.77317 0.51769 0.0
H331 H 0.52339 0.77954 0.4504 0.0
H332 H 0.40814 0.78909 0.51 0.0
H333 H 0.43044 0.78437 0.60594 0.0
C334 C 0.50323 0.77997 0.63922 0.0
C335 C 0.54245 0.77869 0.65062 0.0
C336 C 0.48997 0.77983 0.58402 0.0
C337 C 0.56815 0.77542 0.60614 0.0
C338 C 0.55517 0.77489 0.55116 0.0
C339 C 0.50312 0.78014 0.48436 0.0
C340 C 0.46418 0.78489 0.47302 0.0
C341 C 0.5162 0.77784 0.53956 0.0
C342 C 0.43828 0.78557 0.51753 0.0
C343 C 0.45102 0.78296 0.57246 0.0
H344 H 0.20352 0.57419 0.87896 0.0
H345 H 0.22244 0.46892 0.96738 0.0
H346 H 0.22607 0.43425 0.87957 0.0
H347 H 0.21778 0.43277 0.77813 0.0
H348 H 0.19852 0.53788 0.68954 0.0
H349 H 0.20154 0.5736 0.77665 0.0
C350 C 0.20898 0.54377 0.87892 0.0
C351 C 0.21231 0.52414 0.92961 0.0
C352 C 0.21073 0.52387 0.8282 0.0
C353 C 0.21957 0.48472 0.92893 0.0
C354 C 0.22155 0.4648 0.87871 0.0
C355 C 0.21477 0.46354 0.77783 0.0
C356 C 0.20755 0.48257 0.72755 0.0
C357 C 0.21622 0.48391 0.82816 0.0
C358 C 0.20393 0.5225 0.72776 0.0
C359 C 0.20553 0.54297 0.77759 0.0
loop_
_geom_bond_atom_site_label_1
_geom_bond_atom_site_label_2
_geom_bond_distance
_geom_bond_site_symmetry_2
_ccdc_geom_bond_type
In0 O1 2.294 . S
In0 O2 2.326 . S
In0 O6 2.266 . S
In0 O7 2.326 . S
In0 O8 2.266 . S
In0 O9 2.326 . S
In0 O11 2.294 . S
In0 O12 2.326 . S
O1 In0 2.294 . S
O1 C10 1.240 . S
O2 In0 2.326 . S
O2 C10 1.252 . S
C3 O6 1.252 . S
C3 O7 1.260 . S
C4 O11 1.240 . S
C4 O12 1.252 . S
C5 O8 1.252 . S
C5 O9 1.260 . S
O6 In0 2.266 . S
O6 C3 1.252 . S
O7 In0 2.326 . S
O7 C3 1.260 . S
O8 In0 2.266 . S
O8 C5 1.252 . S
O9 In0 2.326 . S
O9 C5 1.260 . S
C10 O1 1.240 . S
C10 O2 1.252 . S
O11 In0 2.294 . S
O11 C4 1.240 . S
O12 In0 2.326 . S
O12 C4 1.252 . S
In13 O14 2.294 . S
In13 O15 2.326 . S
In13 O19 2.266 . S
In13 O20 2.326 . S
In13 O21 2.266 . S
In13 O22 2.326 . S
In13 O24 2.294 . S
In13 O25 2.326 . S
O14 In13 2.294 . S
O14 C23 1.240 . S
O15 In13 2.326 . S
O15 C23 1.252 . S
C16 O19 1.252 . S
C16 O20 1.260 . S
C17 O24 1.240 . S
C17 O25 1.252 . S
C18 O21 1.252 . S
C18 O22 1.260 . S
O19 In13 2.266 . S
O19 C16 1.252 . S
O20 In13 2.326 . S
O20 C16 1.260 . S
O21 In13 2.266 . S
O21 C18 1.252 . S
O22 In13 2.326 . S
O22 C18 1.260 . S
C23 O14 1.240 . S
C23 O15 1.252 . S
O24 In13 2.294 . S
O24 C17 1.240 . S
O25 In13 2.326 . S
O25 C17 1.252 . S
In26 O27 2.294 . S
In26 O28 2.326 . S
In26 O32 2.266 . S
In26 O33 2.326 . S
In26 O34 2.266 . S
In26 O35 2.326 . S
In26 O37 2.294 . S
In26 O38 2.326 . S
O27 In26 2.294 . S
O27 C36 1.240 . S
O28 In26 2.326 . S
O28 C36 1.252 . S
C29 O32 1.252 . S
C29 O33 1.260 . S
C30 O37 1.240 . S
C30 O38 1.252 . S
C31 O34 1.252 . S
C31 O35 1.260 . S
O32 In26 2.266 . S
O32 C29 1.252 . S
O33 In26 2.326 . S
O33 C29 1.260 . S
O34 In26 2.266 . S
O34 C31 1.252 . S
O35 In26 2.326 . S
O35 C31 1.260 . S
C36 O27 1.240 . S
C36 O28 1.252 . S
O37 In26 2.294 . S
O37 C30 1.240 . S
O38 In26 2.326 . S
O38 C30 1.252 . S
In39 O40 2.294 . S
In39 O41 2.326 . S
In39 O45 2.266 . S
In39 O46 2.326 . S
In39 O47 2.266 . S
In39 O48 2.326 . S
In39 O50 2.294 . S
In39 O51 2.326 . S
O40 In39 2.294 . S
O40 C49 1.240 . S
O41 In39 2.326 . S
O41 C49 1.252 . S
C42 O45 1.252 1_556 S
C42 O46 1.260 1_556 S
C43 O50 1.240 . S
C43 O51 1.252 . S
C44 O47 1.252 . S
C44 O48 1.260 . S
O45 In39 2.266 . S
O45 C42 1.252 1_554 S
O46 In39 2.326 . S
O46 C42 1.260 1_554 S
O47 In39 2.266 . S
O47 C44 1.252 . S
O48 In39 2.326 . S
O48 C44 1.260 . S
C49 O40 1.240 . S
C49 O41 1.252 . S
O50 In39 2.294 . S
O50 C43 1.240 . S
O51 In39 2.326 . S
O51 C43 1.252 . S
In52 O53 2.294 . S
In52 O54 2.326 . S
In52 O58 2.266 . S
In52 O59 2.326 . S
In52 O60 2.266 . S
In52 O61 2.326 . S
In52 O63 2.294 . S
In52 O64 2.326 . S
O53 In52 2.294 . S
O53 C62 1.240 . S
O54 In52 2.326 . S
O54 C62 1.252 . S
C55 O58 1.252 . S
C55 O59 1.260 . S
C56 O63 1.240 . S
C56 O64 1.252 . S
C57 O60 1.252 . S
C57 O61 1.260 . S
O58 In52 2.266 . S
O58 C55 1.252 . S
O59 In52 2.326 . S
O59 C55 1.260 . S
O60 In52 2.266 . S
O60 C57 1.252 . S
O61 In52 2.326 . S
O61 C57 1.260 . S
C62 O53 1.240 . S
C62 O54 1.252 . S
O63 In52 2.294 . S
O63 C56 1.240 . S
O64 In52 2.326 . S
O64 C56 1.252 . S
In65 O66 2.294 . S
In65 O67 2.326 . S
In65 O71 2.266 . S
In65 O72 2.326 . S
In65 O73 2.266 . S
In65 O74 2.326 . S
In65 O76 2.294 . S
In65 O77 2.326 . S
O66 In65 2.294 . S
O66 C75 1.240 . S
O67 In65 2.326 . S
O67 C75 1.252 . S
C68 O71 1.252 . S
C68 O72 1.260 . S
C69 O76 1.240 . S
C69 O77 1.252 . S
C70 O73 1.252 . S
C70 O74 1.260 . S
O71 In65 2.266 . S
O71 C68 1.252 . S
O72 In65 2.326 . S
O72 C68 1.260 . S
O73 In65 2.266 . S
O73 C70 1.252 . S
O74 In65 2.326 . S
O74 C70 1.260 . S
C75 O66 1.240 . S
C75 O67 1.252 . S
O76 In65 2.294 . S
O76 C69 1.240 . S
O77 In65 2.326 . S
O77 C69 1.252 . S
In78 O79 2.294 . S
In78 O80 2.326 . S
In78 O84 2.266 . S
In78 O85 2.326 . S
In78 O86 2.266 . S
In78 O87 2.326 . S
In78 O89 2.294 . S
In78 O90 2.326 . S
O79 In78 2.294 . S
O79 C88 1.240 . S
O80 In78 2.326 . S
O80 C88 1.252 . S
C81 O84 1.252 . S
C81 O85 1.260 . S
C82 O89 1.240 . S
C82 O90 1.252 . S
C83 O86 1.252 . S
C83 O87 1.260 . S
O84 In78 2.266 . S
O84 C81 1.252 . S
O85 In78 2.326 . S
O85 C81 1.260 . S
O86 In78 2.266 . S
O86 C83 1.252 . S
O87 In78 2.326 . S
O87 C83 1.260 . S
C88 O79 1.240 . S
C88 O80 1.252 . S
O89 In78 2.294 . S
O89 C82 1.240 . S
O90 In78 2.326 . S
O90 C82 1.252 . S
In91 O92 2.294 . S
In91 O93 2.326 1_554 S
In91 O97 2.266 . S
In91 O98 2.326 . S
In91 O99 2.266 . S
In91 O100 2.326 . S
In91 O102 2.294 . S
In91 O103 2.326 . S
O92 In91 2.294 . S
O92 C101 1.240 1_554 S
O93 In91 2.326 1_556 S
O93 C101 1.252 . S
C94 O97 1.252 . S
C94 O98 1.260 . S
C95 O102 1.240 . S
C95 O103 1.252 . S
C96 O99 1.252 . S
C96 O100 1.260 . S
O97 In91 2.266 . S
O97 C94 1.252 . S
O98 In91 2.326 . S
O98 C94 1.260 . S
O99 In91 2.266 . S
O99 C96 1.252 . S
O100 In91 2.326 . S
O100 C96 1.260 . S
C101 O92 1.240 1_556 S
C101 O93 1.252 . S
O102 In91 2.294 . S
O102 C95 1.240 . S
O103 In91 2.326 . S
O103 C95 1.252 . S
H104 C110 0.930 . S
H105 C113 0.930 . S
H106 C114 0.930 . S
H107 C115 0.930 . S
H108 C118 0.930 . S
H109 C119 0.930 . S
C110 H104 0.930 . S
C110 C111 1.355 . S
C110 C112 1.415 . S
C111 C110 1.355 . S
C111 C113 1.419 . S
C112 C110 1.415 . S
C112 C117 1.425 . S
C112 C119 1.409 . S
C113 H105 0.930 . S
C113 C111 1.419 . S
C113 C114 1.362 . S
C114 H106 0.930 . S
C114 C113 1.362 . S
C114 C117 1.409 . S
C115 H107 0.930 . S
C115 C116 1.355 . S
C115 C117 1.415 . S
C116 C115 1.355 . S
C116 C118 1.419 . S
C117 C112 1.425 . S
C117 C114 1.409 . S
C117 C115 1.415 . S
C118 H108 0.930 . S
C118 C116 1.419 . S
C118 C119 1.362 . S
C119 H109 0.930 . S
C119 C112 1.409 . S
C119 C118 1.362 . S
H120 C126 0.930 . S
H121 C129 0.930 . S
H122 C130 0.930 . S
H123 C131 0.930 . S
H124 C134 0.930 . S
H125 C135 0.930 . S
C126 H120 0.930 . S
C126 C127 1.355 . S
C126 C128 1.415 . S
C127 C126 1.355 . S
C127 C129 1.419 . S
C128 C126 1.415 . S
C128 C133 1.425 . S
C128 C135 1.409 . S
C129 H121 0.930 . S
C129 C127 1.419 . S
C129 C130 1.362 . S
C130 H122 0.930 . S
C130 C129 1.362 . S
C130 C133 1.409 . S
C131 H123 0.930 . S
C131 C132 1.355 . S
C131 C133 1.415 . S
C132 C131 1.355 . S
C132 C134 1.419 . S
C133 C128 1.425 . S
C133 C130 1.409 . S
C133 C131 1.415 . S
C134 H124 0.930 . S
C134 C132 1.419 . S
C134 C135 1.362 . S
C135 H125 0.930 . S
C135 C128 1.409 . S
C135 C134 1.362 . S
H136 C142 0.930 . S
H137 C145 0.930 . S
H138 C146 0.930 . S
H139 C147 0.930 1_556 S
H140 C150 0.930 1_556 S
H141 C151 0.930 . S
C142 H136 0.930 . S
C142 C143 1.355 . S
C142 C144 1.415 . S
C143 C142 1.355 . S
C143 C145 1.419 . S
C144 C142 1.415 . S
C144 C149 1.425 . S
C144 C151 1.409 . S
C145 H137 0.930 . S
C145 C143 1.419 . S
C145 C146 1.362 . S
C146 H138 0.930 . S
C146 C145 1.362 . S
C146 C149 1.409 . S
C147 H139 0.930 1_554 S
C147 C148 1.355 1_554 S
C147 C149 1.415 . S
C148 C147 1.355 1_556 S
C148 C150 1.419 1_556 S
C149 C144 1.425 . S
C149 C146 1.409 . S
C149 C147 1.415 . S
C150 H140 0.930 1_554 S
C150 C148 1.419 1_554 S
C150 C151 1.362 . S
C151 H141 0.930 . S
C151 C144 1.409 . S
C151 C150 1.362 . S
H152 C158 0.930 . S
H153 C161 0.930 . S
H154 C162 0.930 . S
H155 C163 0.930 . S
H156 C166 0.930 . S
H157 C167 0.930 . S
C158 H152 0.930 . S
C158 C159 1.355 . S
C158 C160 1.415 . S
C159 C158 1.355 . S
C159 C161 1.419 . S
C160 C158 1.415 . S
C160 C165 1.425 . S
C160 C167 1.409 . S
C161 H153 0.930 . S
C161 C159 1.419 . S
C161 C162 1.362 . S
C162 H154 0.930 . S
C162 C161 1.362 . S
C162 C165 1.409 . S
C163 H155 0.930 . S
C163 C164 1.355 . S
C163 C165 1.415 . S
C164 C163 1.355 . S
C164 C166 1.419 . S
C165 C160 1.425 . S
C165 C162 1.409 . S
C165 C163 1.415 . S
C166 H156 0.930 . S
C166 C164 1.419 . S
C166 C167 1.362 . S
C167 H157 0.930 . S
C167 C160 1.409 . S
C167 C166 1.362 . S
H168 C174 0.930 . S
H169 C177 0.930 . S
H170 C178 0.930 . S
H171 C179 0.930 . S
H172 C182 0.930 . S
H173 C183 0.930 . S
C174 H168 0.930 . S
C174 C175 1.355 . S
C174 C176 1.415 . S
C175 C174 1.355 . S
C175 C177 1.419 . S
C176 C174 1.415 . S
C176 C181 1.425 . S
C176 C183 1.409 . S
C177 H169 0.930 . S
C177 C175 1.419 . S
C177 C178 1.362 . S
C178 H170 0.930 . S
C178 C177 1.362 . S
C178 C181 1.409 . S
C179 H171 0.930 . S
C179 C180 1.355 . S
C179 C181 1.415 . S
C180 C179 1.355 . S
C180 C182 1.419 . S
C181 C176 1.425 . S
C181 C178 1.409 . S
C181 C179 1.415 . S
C182 H172 0.930 . S
C182 C180 1.419 . S
C182 C183 1.362 . S
C183 H173 0.930 . S
C183 C176 1.409 . S
C183 C182 1.362 . S
H184 C190 0.930 . S
H185 C193 0.930 . S
H186 C194 0.930 . S
H187 C195 0.930 . S
H188 C198 0.930 . S
H189 C199 0.930 . S
C190 H184 0.930 . S
C190 C191 1.355 . S
C190 C192 1.415 . S
C191 C190 1.355 . S
C191 C193 1.419 . S
C192 C190 1.415 . S
C192 C197 1.425 . S
C192 C199 1.409 . S
C193 H185 0.930 . S
C193 C191 1.419 . S
C193 C194 1.362 . S
C194 H186 0.930 . S
C194 C193 1.362 . S
C194 C197 1.409 . S
C195 H187 0.930 . S
C195 C196 1.355 . S
C195 C197 1.415 . S
C196 C195 1.355 . S
C196 C198 1.419 . S
C197 C192 1.425 . S
C197 C194 1.409 . S
C197 C195 1.415 . S
C198 H188 0.930 . S
C198 C196 1.419 . S
C198 C199 1.362 . S
C199 H189 0.930 . S
C199 C192 1.409 . S
C199 C198 1.362 . S
H200 C206 0.930 . S
H201 C209 0.930 . S
H202 C210 0.930 . S
H203 C211 0.930 . S
H204 C214 0.930 . S
H205 C215 0.930 . S
C206 H200 0.930 . S
C206 C207 1.355 1_556 S
C206 C208 1.415 . S
C207 C206 1.355 1_554 S
C207 C209 1.419 . S
C208 C206 1.415 . S
C208 C213 1.425 . S
C208 C215 1.409 . S
C209 H201 0.930 . S
C209 C207 1.419 . S
C209 C210 1.362 . S
C210 H202 0.930 . S
C210 C209 1.362 . S
C210 C213 1.409 1_554 S
C211 H203 0.930 . S
C211 C212 1.355 . S
C211 C213 1.415 . S
C212 C211 1.355 . S
C212 C214 1.419 . S
C213 C208 1.425 . S
C213 C210 1.409 1_556 S
C213 C211 1.415 . S
C214 H204 0.930 . S
C214 C212 1.419 . S
C214 C215 1.362 . S
C215 H205 0.930 . S
C215 C208 1.409 . S
C215 C214 1.362 . S
H216 C222 0.930 . S
H217 C225 0.930 . S
H218 C226 0.930 . S
H219 C227 0.930 . S
H220 C230 0.930 . S
H221 C231 0.930 . S
C222 H216 0.930 . S
C222 C223 1.355 . S
C222 C224 1.415 . S
C223 C222 1.355 . S
C223 C225 1.419 . S
C224 C222 1.415 . S
C224 C229 1.425 . S
C224 C231 1.409 . S
C225 H217 0.930 . S
C225 C223 1.419 . S
C225 C226 1.362 . S
C226 H218 0.930 . S
C226 C225 1.362 . S
C226 C229 1.409 . S
C227 H219 0.930 . S
C227 C228 1.355 . S
C227 C229 1.415 . S
C228 C227 1.355 . S
C228 C230 1.419 . S
C229 C224 1.425 . S
C229 C226 1.409 . S
C229 C227 1.415 . S
C230 H220 0.930 . S
C230 C228 1.419 . S
C230 C231 1.362 . S
C231 H221 0.930 . S
C231 C224 1.409 . S
C231 C230 1.362 . S
H232 C238 0.930 . S
H233 C241 0.930 . S
H234 C242 0.930 . S
H235 C243 0.930 . S
H236 C246 0.930 . S
H237 C247 0.930 . S
C238 H232 0.930 . S
C238 C239 1.355 . S
C238 C240 1.415 . S
C239 C238 1.355 . S
C239 C241 1.419 . S
C240 C238 1.415 . S
C240 C245 1.425 1_565 S
C240 C247 1.409 1_565 S
C241 H233 0.930 . S
C241 C239 1.419 . S
C241 C242 1.362 . S
C242 H234 0.930 . S
C242 C241 1.362 . S
C242 C245 1.409 1_565 S
C243 H235 0.930 . S
C243 C244 1.355 . S
C243 C245 1.415 . S
C244 C243 1.355 . S
C244 C246 1.419 . S
C245 C240 1.425 1_545 S
C245 C242 1.409 1_545 S
C245 C243 1.415 . S
C246 H236 0.930 . S
C246 C244 1.419 . S
C246 C247 1.362 . S
C247 H237 0.930 . S
C247 C240 1.409 1_545 S
C247 C246 1.362 . S
H248 C254 0.930 . S
H249 C257 0.930 . S
H250 C258 0.930 . S
H251 C259 0.930 . S
H252 C262 0.930 . S
H253 C263 0.930 . S
C254 H248 0.930 . S
C254 C255 1.355 . S
C254 C256 1.415 . S
C255 C254 1.355 . S
C255 C257 1.419 . S
C256 C254 1.415 . S
C256 C261 1.425 1_655 S
C256 C263 1.409 1_655 S
C257 H249 0.930 . S
C257 C255 1.419 . S
C257 C258 1.362 . S
C258 H250 0.930 . S
C258 C257 1.362 . S
C258 C261 1.409 1_655 S
C259 H251 0.930 . S
C259 C260 1.355 . S
C259 C261 1.415 . S
C260 C259 1.355 . S
C260 C262 1.419 . S
C261 C256 1.425 1_455 S
C261 C258 1.409 1_455 S
C261 C259 1.415 . S
C262 H252 0.930 . S
C262 C260 1.419 . S
C262 C263 1.362 . S
C263 H253 0.930 . S
C263 C256 1.409 1_455 S
C263 C262 1.362 . S
H264 C270 0.930 . S
H265 C273 0.930 . S
H266 C274 0.930 . S
H267 C275 0.930 . S
H268 C278 0.930 . S
H269 C279 0.930 . S
C270 H264 0.930 . S
C270 C271 1.355 . S
C270 C272 1.415 . S
C271 C270 1.355 . S
C271 C273 1.419 . S
C272 C270 1.415 . S
C272 C277 1.425 1_565 S
C272 C279 1.409 1_565 S
C273 H265 0.930 . S
C273 C271 1.419 . S
C273 C274 1.362 . S
C274 H266 0.930 . S
C274 C273 1.362 . S
C274 C277 1.409 1_565 S
C275 H267 0.930 . S
C275 C276 1.355 . S
C275 C277 1.415 . S
C276 C275 1.355 . S
C276 C278 1.419 . S
C277 C272 1.425 1_545 S
C277 C274 1.409 1_545 S
C277 C275 1.415 . S
C278 H268 0.930 . S
C278 C276 1.419 . S
C278 C279 1.362 . S
C279 H269 0.930 . S
C279 C272 1.409 1_545 S
C279 C278 1.362 . S
H280 C286 0.930 . S
H281 C289 0.930 . S
H282 C290 0.930 . S
H283 C291 0.930 . S
H284 C294 0.930 . S
H285 C295 0.930 . S
C286 H280 0.930 . S
C286 C287 1.355 . S
C286 C288 1.415 . S
C287 C286 1.355 . S
C287 C289 1.419 . S
C288 C286 1.415 . S
C288 C293 1.425 1_655 S
C288 C295 1.409 1_655 S
C289 H281 0.930 . S
C289 C287 1.419 . S
C289 C290 1.362 . S
C290 H282 0.930 . S
C290 C289 1.362 . S
C290 C293 1.409 1_655 S
C291 H283 0.930 . S
C291 C292 1.355 . S
C291 C293 1.415 . S
C292 C291 1.355 . S
C292 C294 1.419 . S
C293 C288 1.425 1_455 S
C293 C290 1.409 1_455 S
C293 C291 1.415 . S
C294 H284 0.930 . S
C294 C292 1.419 . S
C294 C295 1.362 . S
C295 H285 0.930 . S
C295 C288 1.409 1_455 S
C295 C294 1.362 . S
H296 C302 0.930 1_556 S
H297 C305 0.930 1_556 S
H298 C306 0.930 . S
H299 C307 0.930 . S
H300 C310 0.930 . S
H301 C311 0.930 . S
C302 H296 0.930 1_554 S
C302 C303 1.355 1_554 S
C302 C304 1.415 . S
C303 C302 1.355 1_556 S
C303 C305 1.419 1_556 S
C304 C302 1.415 . S
C304 C309 1.425 . S
C304 C311 1.409 . S
C305 H297 0.930 1_554 S
C305 C303 1.419 1_554 S
C305 C306 1.362 . S
C306 H298 0.930 . S
C306 C305 1.362 . S
C306 C309 1.409 . S
C307 H299 0.930 . S
C307 C308 1.355 . S
C307 C309 1.415 . S
C308 C307 1.355 . S
C308 C310 1.419 . S
C309 C304 1.425 . S
C309 C306 1.409 . S
C309 C307 1.415 . S
C310 H300 0.930 . S
C310 C308 1.419 . S
C310 C311 1.362 . S
C311 H301 0.930 . S
C311 C304 1.409 . S
C311 C310 1.362 . S
H312 C318 0.930 . S
H313 C321 0.930 . S
H314 C322 0.930 . S
H315 C323 0.930 . S
H316 C326 0.930 . S
H317 C327 0.930 . S
C318 H312 0.930 . S
C318 C319 1.355 . S
C318 C320 1.415 . S
C319 C318 1.355 . S
C319 C321 1.419 . S
C320 C318 1.415 . S
C320 C325 1.425 . S
C320 C327 1.409 . S
C321 H313 0.930 . S
C321 C319 1.419 . S
C321 C322 1.362 . S
C322 H314 0.930 . S
C322 C321 1.362 . S
C322 C325 1.409 . S
C323 H315 0.930 . S
C323 C324 1.355 . S
C323 C325 1.415 . S
C324 C323 1.355 . S
C324 C326 1.419 . S
C325 C320 1.425 . S
C325 C322 1.409 . S
C325 C323 1.415 . S
C326 H316 0.930 . S
C326 C324 1.419 . S
C326 C327 1.362 . S
C327 H317 0.930 . S
C327 C320 1.409 . S
C327 C326 1.362 . S
H328 C334 0.930 . S
H329 C337 0.930 . S
H330 C338 0.930 . S
H331 C339 0.930 . S
H332 C342 0.930 . S
H333 C343 0.930 . S
C334 H328 0.930 . S
C334 C335 1.355 . S
C334 C336 1.415 . S
C335 C334 1.355 . S
C335 C337 1.419 . S
C336 C334 1.415 . S
C336 C341 1.425 . S
C336 C343 1.409 . S
C337 H329 0.930 . S
C337 C335 1.419 . S
C337 C338 1.362 . S
C338 H330 0.930 . S
C338 C337 1.362 . S
C338 C341 1.409 . S
C339 H331 0.930 . S
C339 C340 1.355 . S
C339 C341 1.415 . S
C340 C339 1.355 . S
C340 C342 1.419 . S
C341 C336 1.425 . S
C341 C338 1.409 . S
C341 C339 1.415 . S
C342 H332 0.930 . S
C342 C340 1.419 . S
C342 C343 1.362 . S
C343 H333 0.930 . S
C343 C336 1.409 . S
C343 C342 1.362 . S
H344 C350 0.930 . S
H345 C353 0.930 . S
H346 C354 0.930 . S
H347 C355 0.930 . S
H348 C358 0.930 . S
H349 C359 0.930 . S
C350 H344 0.930 . S
C350 C351 1.355 . S
C350 C352 1.415 . S
C351 C350 1.355 . S
C351 C353 1.419 . S
C352 C350 1.415 . S
C352 C357 1.425 . S
C352 C359 1.409 . S
C353 H345 0.930 . S
C353 C351 1.419 . S
C353 C354 1.362 . S
C354 H346 0.930 . S
C354 C353 1.362 . S
C354 C357 1.409 . S
C355 H347 0.930 . S
C355 C356 1.355 . S
C355 C357 1.415 . S
C356 C355 1.355 . S
C356 C358 1.419 . S
C357 C352 1.425 . S
C357 C354 1.409 . S
C357 C355 1.415 . S
C358 H348 0.930 . S
C358 C356 1.419 . S
C358 C359 1.362 . S
C359 H349 0.930 . S
C359 C352 1.409 . S
C359 C358 1.362 . S
C111 C4 0.786 . S
C116 C88 0.770 . S
C127 C23 0.831 . S
C132 C101 0.829 . S
C143 C56 0.781 . S
C148 C30 0.804 . S
C159 C75 0.808 . S
C164 C49 0.827 . S
C175 C10 1.536 . S
C180 C69 1.534 . S
C191 C17 1.543 . S
C196 C82 1.540 . S
C207 C95 1.569 . S
C212 C36 1.568 . S
C223 C43 1.523 . S
C228 C62 1.522 . S
C239 C55 1.561 . S
C244 C3 1.561 . S
C255 C18 1.562 . S
C260 C70 1.561 . S
C271 C29 1.586 . S
C276 C83 1.589 . S
C287 C96 1.579 . S
C292 C44 1.569 . S
C303 C81 1.663 . S
C308 C5 1.644 . S
C319 C94 1.657 . S
C324 C16 1.649 . S
C335 C31 1.661 . S
C340 C57 1.645 . S
C351 C42 1.648 . S
C356 C68 1.660 . S
