# Generated by pormake.
# Topology ukf, (4)-cn, num edge types: 1
# Building blocks:
#     Node 0, Type 0, BuildingBlock: ICAMEG_clean_sbu_1, # of connection points: 4
#     Node 1, Type 0, BuildingBlock: ICAMEG_clean_sbu_1, # of connection points: 4
#     Node 2, Type 0, BuildingBlock: ICAMEG_clean_sbu_1, # of connection points: 4
#     Node 3, Type 0, BuildingBlock: ICAMEG_clean_sbu_1, # of connection points: 4
#     Node 4, Type 0, BuildingBlock: ICAMEG_clean_sbu_1, # of connection points: 4
#     Node 5, Type 0, BuildingBlock: ICAMEG_clean_sbu_1, # of connection points: 4
#     Node 6, Type 0, BuildingBlock: ICAMEG_clean_sbu_1, # of connection points: 4
#     Node 7, Type 0, BuildingBlock: ICAMEG_clean_sbu_1, # of connection points: 4
#     Node 8, Type 0, BuildingBlock: ICAMEG_clean_sbu_1, # of connection points: 4
#     Node 9, Type 0, BuildingBlock: ICAMEG_clean_sbu_1, # of connection points: 4
#     Node 10, Type 0, BuildingBlock: ICAMEG_clean_sbu_1, # of connection points: 4
#     Node 11, Type 0, BuildingBlock: ICAMEG_clean_sbu_1, # of connection points: 4
#     Edge 12, Type (0, 0), BuildingBlock: UVAHIK_clean_linker_0, # of connection points: 2
#     Edge 13, Type (0, 0), BuildingBlock: UVAHIK_clean_linker_0, # of connection points: 2
#     Edge 14, Type (0, 0), BuildingBlock: UVAHIK_clean_linker_0, # of connection points: 2
#     Edge 15, Type (0, 0), BuildingBlock: UVAHIK_clean_linker_0, # of connection points: 2
#     Edge 16, Type (0, 0), BuildingBlock: UVAHIK_clean_linker_0, # of connection points: 2
#     Edge 17, Type (0, 0), BuildingBlock: UVAHIK_clean_linker_0, # of connection points: 2
#     Edge 18, Type (0, 0), BuildingBlock: UVAHIK_clean_linker_0, # of connection points: 2
#     Edge 19, Type (0, 0), BuildingBlock: UVAHIK_clean_linker_0, # of connection points: 2
#     Edge 20, Type (0, 0), BuildingBlock: UVAHIK_clean_linker_0, # of connection points: 2
#     Edge 21, Type (0, 0), BuildingBlock: UVAHIK_clean_linker_0, # of connection points: 2
#     Edge 22, Type (0, 0), BuildingBlock: UVAHIK_clean_linker_0, # of connection points: 2
#     Edge 23, Type (0, 0), BuildingBlock: UVAHIK_clean_linker_0, # of connection points: 2
#     Edge 24, Type (0, 0), BuildingBlock: UVAHIK_clean_linker_0, # of connection points: 2
#     Edge 25, Type (0, 0), BuildingBlock: UVAHIK_clean_linker_0, # of connection points: 2
#     Edge 26, Type (0, 0), BuildingBlock: UVAHIK_clean_linker_0, # of connection points: 2
#     Edge 27, Type (0, 0), BuildingBlock: UVAHIK_clean_linker_0, # of connection points: 2
#     Edge 28, Type (0, 0), BuildingBlock: UVAHIK_clean_linker_0, # of connection points: 2
#     Edge 29, Type (0, 0), BuildingBlock: UVAHIK_clean_linker_0, # of connection points: 2
#     Edge 30, Type (0, 0), BuildingBlock: UVAHIK_clean_linker_0, # of connection points: 2
#     Edge 31, Type (0, 0), BuildingBlock: UVAHIK_clean_linker_0, # of connection points: 2
#     Edge 32, Type (0, 0), BuildingBlock: UVAHIK_clean_linker_0, # of connection points: 2
#     Edge 33, Type (0, 0), BuildingBlock: UVAHIK_clean_linker_0, # of connection points: 2
#     Edge 34, Type (0, 0), BuildingBlock: UVAHIK_clean_linker_0, # of connection points: 2
#     Edge 35, Type (0, 0), BuildingBlock: UVAHIK_clean_linker_0, # of connection points: 2
# Relax obj value: 0.105
# Max RMSD: 0.104
# Mean RMSD: 0.104
data_MOF--net-ukf--node1-ICAMEG_clean_sbu_1--edge1-UVAHIK_clean_linker_0
_symmetry_space_group_name_H-M    P1
_symmetry_Int_Tables_number       1
_symmetry_cell_setting            triclinic
loop_
_symmetry_equiv_pos_as_xyz
'x, y, z'
_cell_length_a     43.223531
_cell_length_b     43.207535
_cell_length_c     90.675059
_cell_angle_alpha  89.99501
_cell_angle_beta   89.987397
_cell_angle_gamma 120.01087
loop_
_atom_site_label
_atom_site_type_symbol
_atom_site_fract_x
_atom_site_fract_y
_atom_site_fract_z
_atom_type_partial_charge
Co0 Co 0.4145 0.24515 0.04313 0.0
Co1 Co 0.43352 0.2005 0.06977 0.0
O2 O 0.4186 0.23483 0.0639 0.0
C3 C 0.45837 0.31752 0.05615 0.0
O4 O 0.47847 0.30619 0.06224 0.0
C5 C 0.37497 0.18931 0.09111 0.0
O6 O 0.36455 0.20663 0.08245 0.0
O7 O 0.39487 0.16275 0.05747 0.0
O8 O 0.39698 0.19412 0.0374 0.0
H9 H 0.4646 0.10466 0.06036 0.0
H10 H 0.37949 0.26791 0.06538 0.0
O11 O 0.43175 0.29644 0.04822 0.0
H12 H 0.2822 0.18272 0.03312 0.0
H13 H 0.38409 0.30303 1.00174 0.0
H14 H 0.43357 0.22552 0.0146 0.0
H15 H 0.3444 0.19775 0.02855 0.0
H16 H 0.38824 0.28864 0.02773 0.0
O17 O 0.40062 0.18443 0.08735 0.0
H18 H 0.44671 0.1487 0.05349 0.0
H19 H 0.4508 0.17839 0.09842 0.0
H20 H 0.42967 0.23901 0.98846 0.0
H21 H 0.31773 0.25412 0.07018 0.0
H22 H 0.40477 0.27803 0.98189 0.0
H23 H 0.26854 0.21109 0.05403 0.0
O24 O 0.46451 0.25693 0.03931 0.0
H25 H 0.48476 0.30207 0.10611 0.0
H26 H 0.51145 0.22706 0.07353 0.0
H27 H 0.55993 0.27489 0.08808 0.0
H28 H 0.54671 0.31273 0.10456 0.0
H29 H 0.43721 0.2543 0.09123 0.0
H30 H 0.46845 0.13445 0.10578 0.0
H31 H 0.47561 0.09731 0.08667 0.0
O32 O 0.46758 0.21503 0.05273 0.0
C33 C 0.3873 0.16454 0.04401 0.0
C34 C 0.46167 0.12075 0.06878 0.0
C35 C 0.46378 0.13744 0.09427 0.0
N36 N 0.44794 0.16628 0.07552 0.0
C37 C 0.45162 0.1458 0.06496 0.0
C38 C 0.45369 0.16222 0.09004 0.0
C39 C 0.46781 0.11662 0.08355 0.0
C40 C 0.3583 0.2494 0.05822 0.0
N41 N 0.36558 0.23353 0.04675 0.0
C42 C 0.32334 0.24158 0.06103 0.0
C43 C 0.29575 0.2174 0.05198 0.0
C44 C 0.30339 0.20142 0.04026 0.0
C45 C 0.33866 0.20987 0.03779 0.0
C46 C 0.39491 0.28593 0.00446 0.0
C47 C 0.42251 0.24234 0.01182 0.0
C48 C 0.39739 0.27774 0.01916 0.0
N49 N 0.41086 0.25601 0.02267 0.0
C50 C 0.42046 0.24997 0.99701 0.0
C51 C 0.40651 0.27189 0.99333 0.0
C52 C 0.47977 0.23928 0.04283 0.0
C53 C 0.49082 0.28563 0.09903 0.0
C54 C 0.50545 0.24343 0.08064 0.0
C55 C 0.53303 0.27044 0.08888 0.0
C56 C 0.52559 0.29165 0.09813 0.0
N57 N 0.47135 0.23754 0.08163 0.0
C58 C 0.46392 0.25834 0.09064 0.0
Co59 Co 0.16979 0.41195 0.37549 0.0
Co60 Co 0.22938 0.43072 0.40364 0.0
O61 O 0.18126 0.41514 0.39642 0.0
C62 C 0.13987 0.45502 0.3877 0.0
O63 O 0.17083 0.47491 0.39417 0.0
C64 C 0.21549 0.37429 0.4258 0.0
O65 O 0.23937 0.36903 0.41904 0.0
O66 O 0.23126 0.39299 0.39156 0.0
O67 O 0.20416 0.39496 0.37074 0.0
H68 H 0.3578 0.46255 0.39895 0.0
H69 H 0.11153 0.37535 0.39734 0.0
O70 O 0.1349 0.42862 0.37974 0.0
H71 H 0.10127 0.28023 0.36416 0.0
H72 H 0.08705 0.38337 0.33214 0.0
H73 H 0.21218 0.43233 0.34786 0.0
H74 H 0.14817 0.34292 0.36019 0.0
H75 H 0.10218 0.38633 0.35853 0.0
O76 O 0.20727 0.39666 0.42059 0.0
H77 H 0.29713 0.4439 0.38993 0.0
H78 H 0.26373 0.44945 0.43343 0.0
H79 H 0.19824 0.42961 0.32136 0.0
H80 H 0.06401 0.31303 0.40164 0.0
H81 H 0.13527 0.40498 0.31335 0.0
H82 H 0.05869 0.26497 0.38498 0.0
O83 O 0.20835 0.46224 0.37242 0.0
H84 H 0.17164 0.47812 0.43806 0.0
H85 H 0.27825 0.50917 0.40792 0.0
H86 H 0.27501 0.55638 0.4219 0.0
H87 H 0.22146 0.54097 0.43715 0.0
H88 H 0.17573 0.4318 0.42374 0.0
H89 H 0.32403 0.46811 0.44292 0.0
H90 H 0.37157 0.47479 0.42563 0.0
O91 O 0.25187 0.46557 0.38698 0.0
C92 C 0.22358 0.38559 0.37793 0.0
C93 C 0.33732 0.45975 0.4066 0.0
C94 C 0.31837 0.46288 0.43127 0.0
N95 N 0.27692 0.44562 0.41113 0.0
C96 C 0.30292 0.4492 0.40155 0.0
C97 C 0.28428 0.4523 0.42583 0.0
C98 C 0.34502 0.46661 0.42156 0.0
C99 C 0.10923 0.3546 0.39 0.0
N100 N 0.13245 0.36278 0.37849 0.0
C101 C 0.08234 0.31935 0.39251 0.0
C102 C 0.0794 0.2924 0.38316 0.0
C103 C 0.10329 0.30094 0.37148 0.0
C104 C 0.12985 0.33647 0.36931 0.0
C105 C 0.11458 0.39408 0.33549 0.0
C106 C 0.1847 0.42137 0.34446 0.0
C107 C 0.12331 0.39589 0.35042 0.0
N108 N 0.158 0.4092 0.35472 0.0
C109 C 0.17698 0.41999 0.32944 0.0
C110 C 0.14165 0.4062 0.32495 0.0
C111 C 0.24078 0.47786 0.37673 0.0
C112 C 0.19518 0.48515 0.4315 0.0
C113 C 0.25476 0.50223 0.41446 0.0
C114 C 0.25314 0.52908 0.4224 0.0
C115 C 0.22311 0.52041 0.43096 0.0
N116 N 0.22729 0.46766 0.41507 0.0
C117 C 0.19774 0.45899 0.42343 0.0
Co118 Co 0.75845 0.16868 0.71079 0.0
Co119 Co 0.79838 0.23518 0.73721 0.0
O120 O 0.76701 0.18524 0.73134 0.0
C121 C 0.68529 0.14195 0.72262 0.0
O122 O 0.69667 0.17376 0.72835 0.0
C123 C 0.81954 0.19246 0.75661 0.0
O124 O 0.81048 0.16821 0.74628 0.0
O125 O 0.83792 0.23881 0.72452 0.0
O126 O 0.80978 0.20127 0.7057 0.0
H127 H 0.88491 0.36515 0.72784 0.0
H128 H 0.73358 0.11419 0.73455 0.0
O129 O 0.70662 0.13553 0.71531 0.0
H130 H 0.82079 0.09711 0.70583 0.0
H131 H 0.70375 0.07549 0.67092 0.0
H132 H 0.78182 0.2037 0.68157 0.0
H133 H 0.80654 0.14371 0.69881 0.0
H134 H 0.71565 0.09723 0.69659 0.0
O135 O 0.81715 0.22027 0.75441 0.0
H136 H 0.84472 0.30218 0.72093 0.0
H137 H 0.81934 0.27411 0.76601 0.0
H138 H 0.77086 0.18311 0.65574 0.0
H139 H 0.74661 0.06688 0.74181 0.0
H140 H 0.73156 0.11856 0.65028 0.0
H141 H 0.79063 0.05821 0.72744 0.0
O142 O 0.74756 0.20669 0.70495 0.0
H143 H 0.6983 0.17532 0.77388 0.0
H144 H 0.76661 0.28163 0.74259 0.0
H145 H 0.71674 0.27652 0.75765 0.0
H146 H 0.68223 0.22305 0.77347 0.0
H147 H 0.74803 0.18134 0.75848 0.0
H148 H 0.85951 0.33669 0.7734 0.0
H149 H 0.89252 0.38274 0.75425 0.0
O150 O 0.7801 0.252 0.72057 0.0
C151 C 0.83795 0.22578 0.71187 0.0
C152 C 0.87059 0.34535 0.73629 0.0
C153 C 0.85638 0.32936 0.76186 0.0
N154 N 0.8295 0.28454 0.74303 0.0
C155 C 0.84771 0.30968 0.73244 0.0
C156 C 0.83375 0.29395 0.7576 0.0
C157 C 0.87487 0.35519 0.75111 0.0
C158 C 0.75244 0.1103 0.72813 0.0
N159 N 0.76924 0.13168 0.71627 0.0
C160 C 0.75986 0.0836 0.73235 0.0
C161 C 0.78461 0.0788 0.7243 0.0
C162 C 0.80159 0.10065 0.71219 0.0
C163 C 0.79353 0.12712 0.70831 0.0
C164 C 0.72094 0.10368 0.67315 0.0
C165 C 0.7648 0.17557 0.67928 0.0
C166 C 0.72771 0.11617 0.68767 0.0
N167 N 0.74953 0.15171 0.69057 0.0
C168 C 0.75864 0.16407 0.66463 0.0
C169 C 0.73657 0.12786 0.66158 0.0
C170 C 0.7598 0.23876 0.70937 0.0
C171 C 0.71311 0.19874 0.76703 0.0
C172 C 0.75147 0.25814 0.74931 0.0
C173 C 0.7234 0.25548 0.75789 0.0
C174 C 0.70408 0.2255 0.76678 0.0
N175 N 0.76009 0.23174 0.74956 0.0
C176 C 0.74138 0.20235 0.75831 0.0
Co177 Co 0.58763 0.75801 0.04471 0.0
Co178 Co 0.56834 0.80282 0.07108 0.0
O179 O 0.58318 0.76832 0.06542 0.0
C180 C 0.54334 0.68542 0.05756 0.0
O181 O 0.52297 0.69654 0.06355 0.0
C182 C 0.6296 0.81806 0.09115 0.0
O183 O 0.64419 0.80836 0.0808 0.0
O184 O 0.60747 0.84053 0.05894 0.0
O185 O 0.6054 0.80908 0.03891 0.0
H186 H 0.53861 0.89953 0.06148 0.0
H187 H 0.62212 0.73583 0.06737 0.0
O188 O 0.57026 0.70672 0.04982 0.0
H189 H 0.72005 0.81978 0.03502 0.0
H190 H 0.61846 0.69994 0.00352 0.0
H191 H 0.56901 0.77766 0.01608 0.0
H192 H 0.65798 0.80484 0.03017 0.0
H193 H 0.61404 0.71444 0.02946 0.0
O194 O 0.60054 0.81797 0.08877 0.0
H195 H 0.5561 0.85512 0.05471 0.0
H196 H 0.55059 0.82485 0.09964 0.0
H197 H 0.5732 0.76407 0.98998 0.0
H198 H 0.68375 0.74956 0.07247 0.0
H199 H 0.59808 0.72495 0.98356 0.0
H200 H 0.73326 0.79195 0.05627 0.0
O201 O 0.53767 0.74627 0.04077 0.0
H202 H 0.51634 0.70177 0.10759 0.0
H203 H 0.4902 0.77618 0.07438 0.0
H204 H 0.44137 0.72831 0.08881 0.0
H205 H 0.45432 0.69076 0.1056 0.0
H206 H 0.5643 0.74967 0.09283 0.0
H207 H 0.53332 0.86913 0.10689 0.0
H208 H 0.52709 0.90676 0.08774 0.0
O209 O 0.53477 0.78867 0.0539 0.0
C210 C 0.61522 0.8387 0.0455 0.0
C211 C 0.54113 0.88322 0.06992 0.0
C212 C 0.5382 0.86619 0.09541 0.0
N213 N 0.55413 0.83723 0.07674 0.0
C214 C 0.55094 0.85797 0.06615 0.0
C215 C 0.54807 0.84121 0.09124 0.0
C216 C 0.5347 0.88729 0.08466 0.0
C217 C 0.64346 0.754 0.06018 0.0
N218 N 0.63643 0.76953 0.0485 0.0
C219 C 0.67833 0.76181 0.06316 0.0
C220 C 0.7061 0.78565 0.05408 0.0
C221 C 0.69872 0.80132 0.04218 0.0
C222 C 0.66353 0.7929 0.03954 0.0
C223 C 0.60765 0.71709 0.00617 0.0
C224 C 0.58007 0.76079 0.01337 0.0
C225 C 0.60502 0.72534 0.02085 0.0
N226 N 0.59156 0.74712 0.02427 0.0
C227 C 0.58229 0.75311 0.99857 0.0
C228 C 0.59621 0.73113 0.99498 0.0
C229 C 0.52242 0.76403 0.04417 0.0
C230 C 0.51038 0.71803 0.10035 0.0
C231 C 0.49605 0.75988 0.08161 0.0
C232 C 0.46829 0.73286 0.08979 0.0
C233 C 0.47558 0.71182 0.09921 0.0
N234 N 0.53014 0.76585 0.08281 0.0
C235 C 0.53747 0.7453 0.09201 0.0
Co236 Co 0.83371 0.59162 0.37871 0.0
Co237 Co 0.76709 0.56525 0.40476 0.0
O238 O 0.81692 0.58259 0.39918 0.0
C239 C 0.8597 0.54388 0.38967 0.0
O240 O 0.8276 0.52283 0.39502 0.0
C241 C 0.8099 0.62667 0.42508 0.0
O242 O 0.83207 0.64405 0.41428 0.0
O243 O 0.76632 0.60431 0.39333 0.0
O244 O 0.80155 0.61121 0.37392 0.0
H245 H 0.63898 0.52977 0.39538 0.0
H246 H 0.88692 0.61965 0.4029 0.0
O247 O 0.86654 0.57248 0.38293 0.0
H248 H 0.90693 0.72574 0.37474 0.0
H249 H 0.92689 0.63137 0.33878 0.0
H250 H 0.79873 0.58106 0.34957 0.0
H251 H 0.86038 0.6654 0.3671 0.0
H252 H 0.90515 0.62061 0.36446 0.0
O253 O 0.78285 0.59589 0.42288 0.0
H254 H 0.70167 0.55094 0.38856 0.0
H255 H 0.72692 0.54342 0.43321 0.0
H256 H 0.81936 0.59167 0.32373 0.0
H257 H 0.93413 0.67947 0.41081 0.0
H258 H 0.88387 0.617 0.3182 0.0
H259 H 0.94427 0.73306 0.39672 0.0
O260 O 0.79556 0.54294 0.37264 0.0
H261 H 0.81946 0.51406 0.44003 0.0
H262 H 0.71866 0.48621 0.40673 0.0
H263 H 0.72014 0.43736 0.42016 0.0
H264 H 0.77078 0.45116 0.43698 0.0
H265 H 0.81709 0.56206 0.42627 0.0
H266 H 0.66456 0.52242 0.44053 0.0
H267 H 0.62007 0.51535 0.42154 0.0
O268 O 0.74952 0.53348 0.3871 0.0
C269 C 0.77867 0.61675 0.38053 0.0
C270 C 0.65809 0.53266 0.40376 0.0
C271 C 0.67247 0.52858 0.4291 0.0
N272 N 0.71789 0.54824 0.41045 0.0
C273 C 0.69361 0.54457 0.39995 0.0
C274 C 0.70776 0.54058 0.42489 0.0
C275 C 0.64751 0.52461 0.41843 0.0
C276 C 0.89142 0.64281 0.39663 0.0
N277 N 0.87088 0.63902 0.38456 0.0
C278 C 0.91808 0.67663 0.4012 0.0
C279 C 0.92371 0.70669 0.3933 0.0
C280 C 0.90273 0.7026 0.38098 0.0
C281 C 0.87628 0.66837 0.37675 0.0
C282 C 0.89873 0.62037 0.34104 0.0
C283 C 0.82687 0.59228 0.34726 0.0
C284 C 0.88625 0.61414 0.35556 0.0
N285 N 0.85074 0.60044 0.35851 0.0
C286 C 0.83838 0.59814 0.3326 0.0
C287 C 0.87457 0.61232 0.32951 0.0
C288 C 0.76266 0.52507 0.37627 0.0
C289 C 0.79719 0.50772 0.43277 0.0
C290 C 0.74085 0.49244 0.41398 0.0
C291 C 0.74149 0.46466 0.42159 0.0
C292 C 0.7699 0.47243 0.43104 0.0
N293 N 0.76769 0.527 0.41576 0.0
C294 C 0.79563 0.53481 0.425 0.0
Co295 Co 0.24317 0.83321 0.71147 0.0
Co296 Co 0.20078 0.7663 0.737 0.0
O297 O 0.23373 0.81638 0.73195 0.0
C298 C 0.3161 0.8616 0.72377 0.0
O299 O 0.3055 0.82961 0.72915 0.0
C300 C 0.1807 0.80736 0.7578 0.0
O301 O 0.18538 0.83021 0.7473 0.0
O302 O 0.16191 0.76703 0.72545 0.0
O303 O 0.19225 0.79945 0.70574 0.0
H304 H 0.10713 0.63931 0.72613 0.0
H305 H 0.26387 0.88645 0.7355 0.0
O306 O 0.29435 0.8676 0.71656 0.0
H307 H 0.17796 0.90164 0.70499 0.0
H308 H 0.29809 0.92684 0.67176 0.0
H309 H 0.22358 0.798 0.68219 0.0
H310 H 0.19492 0.85676 0.69837 0.0
H311 H 0.28477 0.90499 0.6974 0.0
O312 O 0.18533 0.781 0.75524 0.0
H313 H 0.14949 0.70232 0.72005 0.0
H314 H 0.18107 0.72407 0.76496 0.0
H315 H 0.23599 0.81871 0.65638 0.0
H316 H 0.24799 0.93198 0.74242 0.0
H317 H 0.27349 0.88356 0.65103 0.0
H318 H 0.20464 0.93971 0.72713 0.0
O319 O 0.25604 0.7963 0.70623 0.0
H320 H 0.30264 0.81558 0.77306 0.0
H321 H 0.23043 0.71698 0.7387 0.0
H322 H 0.27984 0.71708 0.75231 0.0
H323 H 0.31631 0.76662 0.76967 0.0
H324 H 0.25322 0.81462 0.75909 0.0
H325 H 0.13883 0.66136 0.77153 0.0
H326 H 0.10159 0.61846 0.75204 0.0
O327 O 0.21541 0.74937 0.71921 0.0
C328 C 0.16306 0.77789 0.71225 0.0
C329 C 0.12327 0.65773 0.73472 0.0
C330 C 0.14103 0.67011 0.7602 0.0
N331 N 0.16788 0.71682 0.74212 0.0
C332 C 0.14736 0.69343 0.73134 0.0
C333 C 0.16483 0.70562 0.75642 0.0
C334 C 0.12015 0.64605 0.74926 0.0
C335 C 0.24527 0.88991 0.72872 0.0
N336 N 0.23042 0.86904 0.71654 0.0
C337 C 0.23625 0.91563 0.73272 0.0
C338 C 0.21188 0.9199 0.72416 0.0
C339 C 0.19687 0.89852 0.71174 0.0
C340 C 0.20648 0.87306 0.70808 0.0
C341 C 0.28164 0.89852 0.67395 0.0
C342 C 0.23974 0.82628 0.67995 0.0
C343 C 0.27407 0.88599 0.68844 0.0
N344 N 0.25316 0.85028 0.69128 0.0
C345 C 0.24676 0.83784 0.66532 0.0
C346 C 0.26783 0.87423 0.66232 0.0
C347 C 0.2393 0.763 0.70922 0.0
C348 C 0.28689 0.7938 0.76556 0.0
C349 C 0.24627 0.73872 0.74617 0.0
C350 C 0.27415 0.73857 0.75389 0.0
C351 C 0.29458 0.76635 0.76363 0.0
N352 N 0.23887 0.76573 0.74812 0.0
C353 C 0.25877 0.79304 0.75766 0.0
Co354 Co 0.75701 0.59103 0.62931 0.0
Co355 Co 0.79645 0.57012 0.60111 0.0
O356 O 0.7648 0.58669 0.60843 0.0
C357 C 0.68395 0.54668 0.61744 0.0
O358 O 0.69528 0.52673 0.61123 0.0
C359 C 0.84024 0.62661 0.57915 0.0
O360 O 0.86905 0.63098 0.5859 0.0
O361 O 0.83669 0.60688 0.6133 0.0
O362 O 0.80846 0.60862 0.63384 0.0
H363 H 0.89021 0.53433 0.60552 0.0
H364 H 0.73403 0.62568 0.60705 0.0
O365 O 0.70524 0.57358 0.62521 0.0
H366 H 0.81965 0.72346 0.63904 0.0
H367 H 0.70349 0.62187 0.67223 0.0
H368 H 0.78034 0.57313 0.65722 0.0
H369 H 0.80456 0.66122 0.64374 0.0
H370 H 0.71494 0.61714 0.6459 0.0
O371 O 0.80943 0.60473 0.5843 0.0
H372 H 0.84942 0.55444 0.61468 0.0
H373 H 0.81155 0.55147 0.57119 0.0
H374 H 0.76984 0.57764 0.68366 0.0
H375 H 0.74812 0.68752 0.60203 0.0
H376 H 0.73116 0.60217 0.69131 0.0
H377 H 0.79124 0.73691 0.61809 0.0
O378 O 0.74595 0.54116 0.63307 0.0
H379 H 0.69132 0.52646 0.56687 0.0
H380 H 0.76519 0.49166 0.59612 0.0
H381 H 0.71398 0.44575 0.58204 0.0
H382 H 0.67667 0.46307 0.56724 0.0
H383 H 0.74246 0.5714 0.58129 0.0
H384 H 0.85198 0.53141 0.56155 0.0
H385 H 0.89167 0.52269 0.57877 0.0
O386 O 0.78297 0.53474 0.6176 0.0
C387 C 0.83686 0.61599 0.62673 0.0
C388 C 0.87303 0.53802 0.5979 0.0
C389 C 0.85158 0.53638 0.57323 0.0
N390 N 0.82811 0.55409 0.59349 0.0
C391 C 0.84987 0.54939 0.60303 0.0
C392 C 0.82876 0.54775 0.57875 0.0
C393 C 0.87384 0.5315 0.5829 0.0
C394 C 0.75265 0.64702 0.61414 0.0
N395 N 0.76828 0.63983 0.62572 0.0
C396 C 0.7606 0.68198 0.61122 0.0
C397 C 0.78482 0.70969 0.62022 0.0
C398 C 0.80078 0.70216 0.63198 0.0
C399 C 0.7922 0.66688 0.63456 0.0
C400 C 0.72045 0.61121 0.66903 0.0
C401 C 0.76367 0.58405 0.66046 0.0
C402 C 0.72697 0.6084 0.65414 0.0
N403 N 0.74853 0.59515 0.65004 0.0
C404 C 0.75773 0.58644 0.67545 0.0
C405 C 0.736 0.60016 0.67974 0.0
C406 C 0.76125 0.52425 0.62847 0.0
C407 C 0.70743 0.51859 0.57324 0.0
C408 C 0.74897 0.49938 0.58981 0.0
C409 C 0.72008 0.47328 0.58179 0.0
C410 C 0.69919 0.48302 0.57348 0.0
N411 N 0.75693 0.53423 0.58952 0.0
C412 C 0.73656 0.54397 0.58137 0.0
Co413 Co 0.17026 0.75947 0.95889 0.0
Co414 Co 0.23755 0.80134 0.93349 0.0
O415 O 0.18751 0.7682 0.93848 0.0
C416 C 0.14278 0.68607 0.94718 0.0
O417 O 0.17494 0.69672 0.94199 0.0
C418 C 0.19681 0.82096 0.91238 0.0
O419 O 0.17453 0.81747 0.92295 0.0
O420 O 0.2362 0.84046 0.9446 0.0
O421 O 0.20343 0.81075 0.96434 0.0
H422 H 0.36393 0.89641 0.94437 0.0
H423 H 0.11772 0.73739 0.93454 0.0
O424 O 0.1364 0.70795 0.95408 0.0
H425 H 0.10047 0.82368 0.96388 0.0
H426 H 0.07584 0.70542 0.99833 0.0
H427 H 0.20474 0.78066 0.98828 0.0
H428 H 0.14556 0.80755 0.97119 0.0
H429 H 0.09826 0.7178 0.97275 0.0
O430 O 0.2228 0.81578 0.91498 0.0
H431 H 0.30098 0.85375 0.95039 0.0
H432 H 0.28022 0.82035 0.90567 0.0
H433 H 0.18346 0.76921 0.01402 0.0
H434 H 0.07203 0.75245 0.92692 0.0
H435 H 0.11857 0.73134 0.01918 0.0
H436 H 0.06326 0.79598 0.94162 0.0
O437 O 0.20747 0.7474 0.96466 0.0
H438 H 0.18977 0.69805 0.89814 0.0
H439 H 0.28749 0.77237 0.93252 0.0
H440 H 0.28815 0.72267 0.91946 0.0
H441 H 0.23907 0.68514 0.9021 0.0
H442 H 0.18996 0.7478 0.91156 0.0
H443 H 0.34288 0.86286 0.89914 0.0
H444 H 0.38525 0.90117 0.91858 0.0
O445 O 0.25441 0.78768 0.95157 0.0
C446 C 0.22493 0.83975 0.95769 0.0
C447 C 0.34575 0.8798 0.93581 0.0
C448 C 0.33392 0.861 0.91042 0.0
N449 N 0.28699 0.83443 0.92842 0.0
C450 C 0.31009 0.85554 0.93916 0.0
C451 C 0.29844 0.83705 0.91418 0.0
C452 C 0.35768 0.88248 0.92133 0.0
C453 C 0.1138 0.75608 0.94107 0.0
N454 N 0.1342 0.77148 0.95331 0.0
C455 C 0.088 0.76462 0.93667 0.0
C456 C 0.08314 0.78909 0.9449 0.0
C457 C 0.10404 0.80468 0.95739 0.0
C458 C 0.12962 0.79553 0.96144 0.0
C459 C 0.10417 0.72202 0.99622 0.0
C460 C 0.17645 0.76433 0.99043 0.0
C461 C 0.11703 0.72907 0.98177 0.0
N462 N 0.15275 0.75018 0.97903 0.0
C463 C 0.16456 0.75786 0.00503 0.0
C464 C 0.12816 0.73658 0.00792 0.0
C465 C 0.24081 0.76426 0.96175 0.0
C466 C 0.21136 0.71427 0.90565 0.0
C467 C 0.26594 0.75607 0.92505 0.0
C468 C 0.26652 0.72802 0.91765 0.0
C469 C 0.23899 0.707 0.9079 0.0
N470 N 0.23874 0.76304 0.92279 0.0
C471 C 0.21168 0.74256 0.91324 0.0
Co472 Co 0.41603 0.17105 0.2934 0.0
Co473 Co 0.43646 0.23542 0.267 0.0
O474 O 0.42086 0.1859 0.27268 0.0
C475 C 0.45966 0.14197 0.28061 0.0
O476 O 0.48019 0.17336 0.27455 0.0
C477 C 0.37525 0.19009 0.24673 0.0
O478 O 0.36043 0.16541 0.25692 0.0
O479 O 0.39758 0.23466 0.27908 0.0
O480 O 0.3988 0.20481 0.29912 0.0
H481 H 0.46832 0.36252 0.27657 0.0
H482 H 0.38128 0.1145 0.27069 0.0
O483 O 0.43287 0.13666 0.28837 0.0
H484 H 0.28339 0.10179 0.30274 0.0
H485 H 0.38344 0.08176 0.33457 0.0
H486 H 0.43465 0.20921 0.32205 0.0
H487 H 0.34564 0.14831 0.30775 0.0
H488 H 0.38857 0.10087 0.30862 0.0
O489 O 0.40438 0.21889 0.24927 0.0
H490 H 0.4496 0.30031 0.28334 0.0
H491 H 0.45511 0.27532 0.23845 0.0
H492 H 0.42977 0.19125 0.34815 0.0
H493 H 0.31946 0.06719 0.26544 0.0
H494 H 0.404 0.1271 0.35455 0.0
H495 H 0.26998 0.06073 0.28148 0.0
O496 O 0.46614 0.20887 0.29746 0.0
H497 H 0.48734 0.18508 0.23058 0.0
H498 H 0.51487 0.28594 0.26383 0.0
H499 H 0.56338 0.28603 0.2495 0.0
H500 H 0.54973 0.23537 0.23269 0.0
H501 H 0.43971 0.18587 0.24526 0.0
H502 H 0.47361 0.33719 0.23119 0.0
H503 H 0.48047 0.38132 0.25033 0.0
O504 O 0.46987 0.25438 0.28421 0.0
C505 C 0.38956 0.22506 0.29251 0.0
C506 C 0.46552 0.34357 0.26814 0.0
C507 C 0.46845 0.32934 0.24267 0.0
N508 N 0.4515 0.28425 0.26133 0.0
C509 C 0.45501 0.30832 0.27191 0.0
C510 C 0.45788 0.29431 0.24685 0.0
C511 C 0.4723 0.35409 0.25341 0.0
C512 C 0.35995 0.11161 0.27782 0.0
N513 N 0.36709 0.13418 0.2895 0.0
C514 C 0.32497 0.08488 0.27475 0.0
C515 C 0.29721 0.08131 0.28374 0.0
C516 C 0.30471 0.10438 0.29565 0.0
C517 C 0.34001 0.13081 0.29838 0.0
C518 C 0.39465 0.10978 0.33192 0.0
C519 C 0.42321 0.18123 0.32475 0.0
C520 C 0.39768 0.12077 0.31725 0.0
N521 N 0.41163 0.1561 0.31383 0.0
C522 C 0.42061 0.17123 0.33955 0.0
C523 C 0.40618 0.13523 0.34313 0.0
C524 C 0.48177 0.2419 0.29404 0.0
C525 C 0.4936 0.20736 0.23783 0.0
C526 C 0.50871 0.26372 0.2566 0.0
C527 C 0.53629 0.26397 0.24847 0.0
C528 C 0.52861 0.23556 0.23904 0.0
N529 N 0.47442 0.236 0.25534 0.0
C530 C 0.46671 0.20804 0.24612 0.0
Co531 Co 0.24267 0.4149 0.62616 0.0
Co532 Co 0.1996 0.4363 0.5998 0.0
O533 O 0.23313 0.42033 0.60548 0.0
C534 C 0.31555 0.45904 0.61376 0.0
O535 O 0.30481 0.47991 0.60796 0.0
C536 C 0.18225 0.3744 0.57983 0.0
O537 O 0.18844 0.35798 0.59061 0.0
O538 O 0.16104 0.3972 0.61169 0.0
O539 O 0.1917 0.39782 0.63177 0.0
H540 H 0.10451 0.46844 0.60912 0.0
H541 H 0.26418 0.38054 0.60319 0.0
O542 O 0.29388 0.4317 0.62121 0.0
H543 H 0.1785 0.28195 0.63485 0.0
H544 H 0.29837 0.38084 0.6672 0.0
H545 H 0.22304 0.43313 0.65488 0.0
H546 H 0.19471 0.34421 0.64023 0.0
H547 H 0.28479 0.38666 0.64127 0.0
O548 O 0.18473 0.40468 0.58196 0.0
H549 H 0.14764 0.44937 0.616 0.0
H550 H 0.17926 0.45569 0.57123 0.0
H551 H 0.23571 0.42756 0.68096 0.0
H552 H 0.24912 0.31871 0.59754 0.0
H553 H 0.27363 0.40123 0.68726 0.0
H554 H 0.20588 0.26888 0.6134 0.0
O555 O 0.25513 0.46495 0.63041 0.0
H556 H 0.30172 0.48771 0.56381 0.0
H557 H 0.22792 0.51487 0.59693 0.0
H558 H 0.27684 0.56363 0.58287 0.0
H559 H 0.3141 0.55017 0.56614 0.0
H560 H 0.25277 0.43982 0.5782 0.0
H561 H 0.13626 0.47455 0.56385 0.0
H562 H 0.09861 0.48117 0.58288 0.0
O563 O 0.21376 0.46935 0.61715 0.0
C564 C 0.16238 0.38895 0.62511 0.0
C565 C 0.12083 0.46574 0.60073 0.0
C566 C 0.13862 0.46912 0.57533 0.0
N567 N 0.16611 0.45163 0.59405 0.0
C568 C 0.14536 0.45502 0.60457 0.0
C569 C 0.16286 0.45835 0.57957 0.0
C570 C 0.11751 0.47285 0.58601 0.0
C571 C 0.24564 0.35904 0.61023 0.0
N572 N 0.23038 0.366 0.62203 0.0
C573 C 0.23708 0.32407 0.60694 0.0
C574 C 0.21276 0.29612 0.61583 0.0
C575 C 0.19736 0.30343 0.62785 0.0
C576 C 0.20652 0.33873 0.6308 0.0
C577 C 0.28174 0.39226 0.6646 0.0
C578 C 0.23936 0.42143 0.65754 0.0
C579 C 0.274 0.39568 0.64993 0.0
N580 N 0.25285 0.40991 0.64657 0.0
C581 C 0.24653 0.41844 0.67232 0.0
C582 C 0.26784 0.40371 0.67585 0.0
C583 C 0.23806 0.48091 0.62702 0.0
C584 C 0.28561 0.4939 0.57103 0.0
C585 C 0.24409 0.5088 0.58973 0.0
C586 C 0.2717 0.53652 0.58176 0.0
C587 C 0.29258 0.52895 0.57236 0.0
N588 N 0.23738 0.47447 0.58835 0.0
C589 C 0.25774 0.46686 0.57916 0.0
Co590 Co 0.83394 0.24377 0.96017 0.0
Co591 Co 0.76981 0.20047 0.93352 0.0
O592 O 0.81918 0.23437 0.93941 0.0
C593 C 0.86203 0.3167 0.94777 0.0
O594 O 0.8306 0.30543 0.9417 0.0
C595 C 0.81663 0.18872 0.91214 0.0
O596 O 0.84396 0.20435 0.92111 0.0
O597 O 0.77039 0.16208 0.94548 0.0
O598 O 0.80062 0.19246 0.96557 0.0
H599 H 0.64266 0.10497 0.94276 0.0
H600 H 0.89131 0.26777 0.93768 0.0
O601 O 0.86777 0.29536 0.95543 0.0
H602 H 0.90428 0.1812 0.9687 0.0
H603 H 0.92293 0.29982 1.00145 0.0
H604 H 0.79574 0.22268 0.98881 0.0
H605 H 0.85706 0.1958 0.97391 0.0
H606 H 0.90393 0.28667 0.97546 0.0
O607 O 0.7864 0.18487 0.91572 0.0
H608 H 0.70474 0.1484 0.94968 0.0
H609 H 0.73028 0.17969 0.90488 0.0
H610 H 0.81359 0.23491 0.01494 0.0
H611 H 0.93935 0.25445 0.93226 0.0
H612 H 0.8776 0.27373 0.0214 0.0
H613 H 0.94594 0.21072 0.94778 0.0
O614 O 0.79572 0.25527 0.96451 0.0
H615 H 0.82062 0.30306 0.89768 0.0
H616 H 0.71903 0.22795 0.9303 0.0
H617 H 0.71885 0.27656 0.91616 0.0
H618 H 0.76987 0.31446 0.89965 0.0
H619 H 0.81993 0.25449 0.91216 0.0
H620 H 0.66854 0.13638 0.89747 0.0
H621 H 0.6242 0.09875 0.91649 0.0
O622 O 0.75058 0.2146 0.95077 0.0
C623 C 0.7802 0.16322 0.95884 0.0
C624 C 0.6617 0.12129 0.93438 0.0
C625 C 0.67625 0.13889 0.90896 0.0
N626 N 0.72107 0.16674 0.92772 0.0
C627 C 0.69688 0.14599 0.93823 0.0
C628 C 0.7112 0.1633 0.91322 0.0
C629 C 0.65138 0.11779 0.91963 0.0
C630 C 0.89422 0.24899 0.94458 0.0
N631 N 0.87127 0.23249 0.95605 0.0
C632 C 0.92137 0.24142 0.94141 0.0
C633 C 0.92502 0.21684 0.9501 0.0
C634 C 0.90161 0.20022 0.96183 0.0
C635 C 0.87476 0.20843 0.96466 0.0
C636 C 0.89496 0.2828 0.99878 0.0
C637 C 0.82367 0.23942 0.99153 0.0
C638 C 0.88404 0.27531 0.98408 0.0
N639 N 0.84879 0.25368 0.98063 0.0
C640 C 0.83361 0.24633 0.00635 0.0
C641 C 0.86952 0.26814 0.00996 0.0
C642 C 0.76281 0.23817 0.96094 0.0
C643 C 0.79815 0.28662 0.90477 0.0
C644 C 0.74138 0.24435 0.92319 0.0
C645 C 0.74109 0.27181 0.91517 0.0
C646 C 0.7697 0.29304 0.90591 0.0
N647 N 0.76932 0.23809 0.92197 0.0
C648 C 0.79751 0.25889 0.91294 0.0
Co649 Co 0.59202 0.83287 0.29359 0.0
Co650 Co 0.56706 0.76601 0.26765 0.0
O651 O 0.58419 0.816 0.27309 0.0
C652 C 0.54524 0.85928 0.28173 0.0
O653 O 0.52456 0.82734 0.27617 0.0
C654 C 0.62745 0.80963 0.24666 0.0
O655 O 0.64205 0.83585 0.25622 0.0
O656 O 0.60541 0.76534 0.27961 0.0
O657 O 0.61129 0.80064 0.29885 0.0
H658 H 0.53071 0.63795 0.2779 0.0
H659 H 0.62147 0.88714 0.26976 0.0
O660 O 0.57315 0.86579 0.28894 0.0
H661 H 0.72582 0.90593 0.29887 0.0
H662 H 0.62957 0.92607 0.33343 0.0
H663 H 0.57979 0.79786 0.32282 0.0
H664 H 0.66512 0.85891 0.3058 0.0
H665 H 0.62024 0.90435 0.30776 0.0
O666 O 0.59873 0.78088 0.24975 0.0
H667 H 0.55181 0.70085 0.28433 0.0
H668 H 0.54645 0.72515 0.23933 0.0
H669 H 0.58896 0.81847 0.34865 0.0
H670 H 0.68165 0.93496 0.2626 0.0
H671 H 0.61402 0.88301 0.35409 0.0
H672 H 0.73438 0.94447 0.27715 0.0
O673 O 0.54303 0.79474 0.29933 0.0
H674 H 0.518 0.81823 0.23126 0.0
H675 H 0.4882 0.71759 0.26498 0.0
H676 H 0.44018 0.71896 0.25085 0.0
H677 H 0.45497 0.76952 0.23382 0.0
H678 H 0.56512 0.81598 0.24572 0.0
H679 H 0.52555 0.66256 0.23241 0.0
H680 H 0.51743 0.61844 0.25177 0.0
O681 O 0.53436 0.74878 0.28502 0.0
C682 C 0.61715 0.77771 0.29246 0.0
C683 C 0.53406 0.6569 0.26937 0.0
C684 C 0.53121 0.67073 0.24384 0.0
N685 N 0.55017 0.71663 0.26224 0.0
C686 C 0.54593 0.69255 0.27295 0.0
C687 C 0.54314 0.70616 0.24782 0.0
C688 C 0.52664 0.64598 0.25471 0.0
C689 C 0.64423 0.89136 0.27625 0.0
N690 N 0.63975 0.87013 0.28816 0.0
C691 C 0.67827 0.91837 0.27209 0.0
C692 C 0.70785 0.92364 0.28025 0.0
C693 C 0.70307 0.90198 0.29241 0.0
C694 C 0.66863 0.87522 0.29623 0.0
C695 C 0.61868 0.89789 0.3312 0.0
C696 C 0.59089 0.82601 0.3251 0.0
C697 C 0.61326 0.88542 0.31669 0.0
N698 N 0.59969 0.84989 0.31379 0.0
C699 C 0.59593 0.83751 0.33975 0.0
C700 C 0.60996 0.87372 0.34279 0.0
C701 C 0.52546 0.76183 0.29572 0.0
C702 C 0.51124 0.79598 0.2386 0.0
C703 C 0.49486 0.73973 0.25763 0.0
C704 C 0.46755 0.74032 0.24963 0.0
C705 C 0.47587 0.76868 0.24006 0.0
N706 N 0.52951 0.76656 0.25611 0.0
C707 C 0.53785 0.79447 0.24677 0.0
C708 C 0.23255 0.87312 0.98129 0.0
C709 C 0.23886 0.87379 0.96603 0.0
C710 C 0.24719 0.90474 0.98947 0.0
C711 C 0.31877 1.00049 0.988 0.0
H712 H 0.26852 0.00802 0.02203 0.0
C713 C 0.36608 0.1327 0.01978 0.0
C714 C 0.36799 0.13106 0.03525 0.0
C715 C 0.34948 0.10149 0.01133 0.0
C716 C 0.28295 0.00619 0.01261 0.0
H717 H 0.26495 0.90867 0.94738 0.0
H718 H 0.28943 0.96398 0.96154 0.0
H719 H 0.2404 0.95415 0.0069 0.0
H720 H 0.35317 0.09498 0.05392 0.0
H721 H 0.32346 0.04034 0.03909 0.0
H722 H 0.36092 0.05306 0.9936 0.0
C723 C 0.27395 0.93885 0.96729 0.0
C724 C 0.26692 0.97524 0.00394 0.0
C725 C 0.25964 0.90709 0.95912 0.0
C726 C 0.35221 0.09728 0.04205 0.0
C727 C 0.33509 0.06598 0.03358 0.0
C728 C 0.33454 0.03162 0.99656 0.0
C729 C 0.26823 0.93812 0.98263 0.0
C730 C 0.2847 0.97178 0.99155 0.0
C731 C 0.33389 0.06779 0.01811 0.0
C732 C 0.3169 0.03473 0.009 0.0
H733 H 0.2169 0.84804 0.98706 0.0
H734 H 0.24264 0.9028 1.00126 0.0
H735 H 0.33372 0.99875 0.97877 0.0
H736 H 0.3779 0.15816 0.01411 0.0
H737 H 0.34866 0.10373 0.99946 0.0
C738 C 0.23562 0.36361 0.35422 0.0
C739 C 0.23892 0.36662 0.36967 0.0
C740 C 0.25086 0.34701 0.34619 0.0
C741 C 0.31909 0.31861 0.34883 0.0
H742 H 0.27249 0.2661 0.31325 0.0
C743 C 0.36685 0.23446 0.31662 0.0
C744 C 0.37024 0.23931 0.30122 0.0
C745 C 0.3502 0.24908 0.32504 0.0
C746 C 0.28594 0.28089 0.3231 0.0
H747 H 0.26065 0.35389 0.38877 0.0
H748 H 0.28632 0.32384 0.3748 0.0
H749 H 0.24404 0.29183 0.32814 0.0
H750 H 0.35806 0.26302 0.28263 0.0
H751 H 0.32835 0.28803 0.29737 0.0
H752 H 0.36061 0.30681 0.34386 0.0
C753 C 0.27259 0.33513 0.36884 0.0
C754 C 0.26971 0.2958 0.33165 0.0
C755 C 0.25761 0.35215 0.37689 0.0
C756 C 0.35592 0.2587 0.29444 0.0
C757 C 0.33881 0.27294 0.30288 0.0
C758 C 0.33508 0.30329 0.34037 0.0
C759 C 0.26956 0.33246 0.35335 0.0
C760 C 0.28618 0.31517 0.34459 0.0
C761 C 0.33606 0.26856 0.31829 0.0
C762 C 0.31881 0.28447 0.32735 0.0
H763 H 0.22169 0.37461 0.34821 0.0
H764 H 0.24851 0.34629 0.3343 0.0
H765 H 0.333 0.33379 0.35854 0.0
H766 H 0.3775 0.21973 0.32227 0.0
H767 H 0.34816 0.24491 0.33686 0.0
C768 C 0.9051 0.26404 0.71005 0.0
C769 C 0.87198 0.24077 0.70343 0.0
C770 C 0.93672 0.27899 0.70174 0.0
C771 C 0.97 0.30455 0.66402 0.0
H772 H 0.05299 0.30037 0.67733 0.0
C773 C 0.09512 0.35365 0.62692 0.0
C774 C 0.12876 0.36998 0.6338 0.0
C775 C 0.06371 0.33675 0.63534 0.0
C776 C 0.03035 0.30238 0.67351 0.0
H777 H 0.84649 0.21496 0.68281 0.0
H778 H 0.9013 0.24156 0.66841 0.0
H779 H 0.99924 0.27453 0.69253 0.0
H780 H 0.15554 0.38154 0.65502 0.0
H781 H 0.10135 0.35362 0.66958 0.0
H782 H 1.00106 0.33332 0.64527 0.0
C783 C 0.90279 0.24812 0.68002 0.0
C784 C 0.99947 0.28739 0.68224 0.0
C785 C 0.87137 0.23274 0.68834 0.0
C786 C 0.13017 0.36898 0.64929 0.0
C787 C 0.09888 0.35263 0.65769 0.0
C788 C 1.00104 0.32008 0.65541 0.0
C789 C 0.93578 0.27149 0.6866 0.0
C790 C 0.96893 0.28818 0.67755 0.0
C791 C 0.06511 0.33621 0.65088 0.0
C792 C 0.03171 0.31918 0.65999 0.0
H793 H 0.90661 0.27084 0.72163 0.0
H794 H 0.96182 0.29704 0.70708 0.0
H795 H 0.94692 0.30585 0.66021 0.0
H796 H 0.09302 0.35378 0.61502 0.0
H797 H 0.03833 0.3239 0.62962 0.0
C798 C 0.63768 0.87057 0.02133 0.0
C799 C 0.6349 0.87219 0.03676 0.0
C800 C 0.65458 0.90178 0.01288 0.0
C801 C 0.72022 0.99753 0.01444 0.0
H802 H 0.67145 0.00385 0.97967 0.0
C803 C 0.77087 0.13023 0.98271 0.0
C804 C 0.7659 0.12933 0.96734 0.0
C805 C 0.75601 0.09868 0.99096 0.0
C806 C 0.68585 0.00243 0.98917 0.0
H807 H 0.6485 0.90829 0.05536 0.0
H808 H 0.67866 0.96292 0.04055 0.0
H809 H 0.64392 0.94956 0.99451 0.0
H810 H 0.74192 0.09412 0.9486 0.0
H811 H 0.71702 0.039 0.96289 0.0
H812 H 0.76253 0.04994 0.00901 0.0
C813 C 0.66751 0.93729 0.03506 0.0
C814 C 0.6699 0.9713 0.99773 0.0
C815 C 0.65014 0.90598 0.04353 0.0
C816 C 0.74619 0.09589 0.96041 0.0
C817 C 0.73164 0.06423 0.96866 0.0
C818 C 0.73643 0.02851 0.00577 0.0
C819 C 0.66958 0.93549 0.01963 0.0
C820 C 0.6868 0.96857 0.01051 0.0
C821 C 0.73605 0.06516 0.98409 0.0
C822 C 0.71938 0.03155 0.99305 0.0
H823 H 0.62634 0.84511 0.01569 0.0
H824 H 0.65608 0.89953 1.00104 0.0
H825 H 0.73411 0.99602 0.02411 0.0
H826 H 0.78568 0.15542 0.98849 0.0
H827 H 0.75953 0.10076 0.0028 0.0
C828 C 0.65401 0.77962 0.31423 0.0
C829 C 0.63691 0.76351 0.30089 0.0
C830 C 0.67053 0.76504 0.32276 0.0
C831 C 0.7041 0.70062 0.32145 0.0
H832 H 0.69864 0.70501 0.36402 0.0
C833 C 0.78093 0.65505 0.35928 0.0
C834 C 0.76446 0.6369 0.37241 0.0
C835 C 0.76624 0.67168 0.3509 0.0
C836 C 0.70016 0.70319 0.35216 0.0
H837 H 0.62407 0.71928 0.28607 0.0
H838 H 0.65206 0.69334 0.3011 0.0
H839 H 0.67083 0.73031 0.3486 0.0
H840 H 0.71959 0.62249 0.38706 0.0
H841 H 0.69344 0.6507 0.37226 0.0
H842 H 0.7321 0.67217 0.325 0.0
C843 C 0.65343 0.71779 0.30484 0.0
C844 C 0.68463 0.71824 0.34327 0.0
C845 C 0.63721 0.73262 0.29621 0.0
C846 C 0.73318 0.63641 0.37707 0.0
C847 C 0.71822 0.65275 0.36858 0.0
C848 C 0.71935 0.68529 0.33034 0.0
C849 C 0.67008 0.73363 0.31831 0.0
C850 C 0.68649 0.71732 0.32778 0.0
C851 C 0.73435 0.67029 0.35527 0.0
C852 C 0.71777 0.68649 0.34583 0.0
H853 H 0.65442 0.80344 0.31822 0.0
H854 H 0.68369 0.77852 0.33287 0.0
H855 H 0.70648 0.69964 0.3096 0.0
H856 H 0.80508 0.65614 0.35531 0.0
H857 H 0.77997 0.68558 0.34094 0.0
C858 C 0.87101 0.63816 0.65038 0.0
C859 C 0.87124 0.63463 0.63494 0.0
C860 C 0.90281 0.65417 0.65841 0.0
C861 C 0.99844 0.71742 0.65606 0.0
H862 H 0.00472 0.66813 0.69068 0.0
C863 C 0.13067 0.76879 0.68826 0.0
C864 C 0.12938 0.7634 0.70361 0.0
C865 C 0.09939 0.7537 0.67985 0.0
C866 C 0.00334 0.68266 0.68121 0.0
H867 H 0.90558 0.64595 0.61587 0.0
H868 H 0.96149 0.67479 0.62999 0.0
H869 H 0.95037 0.64096 0.67591 0.0
H870 H 0.09378 0.73844 0.72216 0.0
H871 H 0.03908 0.71323 0.7076 0.0
H872 H 0.05083 0.75966 0.66153 0.0
C873 C 0.93637 0.66478 0.63579 0.0
C874 C 0.97221 0.66689 0.67268 0.0
C875 C 0.90436 0.6482 0.62772 0.0
C876 C 0.09583 0.74304 0.71037 0.0
C877 C 0.06442 0.7283 0.70196 0.0
C878 C 0.02943 0.73349 0.66472 0.0
C879 C 0.93584 0.66756 0.65124 0.0
C880 C 0.96941 0.68407 0.66001 0.0
C881 C 0.06574 0.73311 0.68654 0.0
C882 C 0.03239 0.71632 0.67743 0.0
H883 H 0.84614 0.62812 0.65638 0.0
H884 H 0.90157 0.65628 0.67028 0.0
H885 H 0.99686 0.73147 0.64645 0.0
H886 H 0.15597 0.78409 0.68261 0.0
H887 H 0.10179 0.75757 0.66803 0.0
C888 C 0.74799 0.26874 0.98113 0.0
C889 C 0.73703 0.24497 0.96911 0.0
C890 C 0.72311 0.27396 0.98903 0.0
C891 C 0.66088 0.26 0.00928 0.0
H892 H 0.58203 0.26057 0.98911 0.0
C893 C 0.5303 0.22743 0.03882 0.0
C894 C 0.51259 0.24607 0.03485 0.0
C895 C 0.5604 0.23254 0.03107 0.0
C896 C 0.6041 0.26096 0.99492 0.0
H897 H 0.69112 0.2083 0.95597 0.0
H898 H 0.64813 0.21723 0.96973 0.0
H899 H 0.62996 0.26095 0.97479 0.0
H900 H 0.51319 0.28516 0.01964 0.0
H901 H 0.56598 0.29415 0.00612 0.0
H902 H 0.63496 0.25988 0.02941 0.0
C903 C 0.67597 0.23226 0.97295 0.0
C904 C 0.63139 0.26076 0.98671 0.0
C905 C 0.70071 0.22696 0.9651 0.0
C906 C 0.52611 0.27034 0.02301 0.0
C907 C 0.55627 0.27538 0.01521 0.0
C908 C 0.63358 0.26017 0.01749 0.0
C909 C 0.68676 0.25566 0.98505 0.0
C910 C 0.65975 0.25957 0.99378 0.0
C911 C 0.57365 0.25637 0.01911 0.0
C912 C 0.6045 0.25994 0.01042 0.0
H913 H 0.77572 0.28307 0.98454 0.0
H914 H 0.73234 0.29238 0.99824 0.0
H915 H 0.68219 0.25888 0.01508 0.0
H916 H 0.52068 0.20839 0.04781 0.0
H917 H 0.5727 0.217 0.03422 0.0
C918 C 0.30351 0.52843 0.37334 0.0
C919 C 0.26725 0.51138 0.36928 0.0
C920 C 0.32881 0.55924 0.36602 0.0
C921 C 0.3438 0.60636 0.3306 0.0
H922 H 0.42654 0.68106 0.35088 0.0
C923 C 0.48251 0.74814 0.31689 0.0
C924 C 0.49328 0.73683 0.30432 0.0
C925 C 0.4526 0.72373 0.32506 0.0
C926 C 0.40337 0.66073 0.34507 0.0
H927 H 0.22915 0.51412 0.35453 0.0
H928 H 0.2733 0.56813 0.34188 0.0
H929 H 0.37818 0.63346 0.36509 0.0
H930 H 0.48074 0.69079 0.29057 0.0
H931 H 0.42939 0.6488 0.30475 0.0
H932 H 0.36892 0.63355 0.31059 0.0
C933 C 0.2822 0.55731 0.3506 0.0
C934 C 0.37583 0.63318 0.3532 0.0
C935 C 0.25685 0.52639 0.3579 0.0
C936 C 0.47328 0.70071 0.3001 0.0
C937 C 0.44352 0.67652 0.30819 0.0
C938 C 0.37126 0.63389 0.32249 0.0
C939 C 0.31856 0.57392 0.35447 0.0
C940 C 0.34606 0.60523 0.34603 0.0
C941 C 0.43279 0.68761 0.32079 0.0
C942 C 0.40178 0.66095 0.32959 0.0
H943 H 0.31261 0.51769 0.38202 0.0
H944 H 0.35661 0.57092 0.36915 0.0
H945 H 0.32146 0.58522 0.32468 0.0
H946 H 0.4973 0.77572 0.32048 0.0
H947 H 0.44491 0.73316 0.33468 0.0
C948 C 0.74579 0.28814 0.70825 0.0
C949 C 0.75117 0.26266 0.70089 0.0
C950 C 0.74124 0.31329 0.70036 0.0
C951 C 0.7266 0.33785 0.66237 0.0
H952 H 0.77003 0.43255 0.67968 0.0
C953 C 0.76501 0.46824 0.63013 0.0
C954 C 0.75449 0.49138 0.63637 0.0
C955 C 0.76009 0.43806 0.63781 0.0
C956 C 0.75745 0.40614 0.67479 0.0
H957 H 0.75493 0.24278 0.67945 0.0
H958 H 0.74873 0.28773 0.66556 0.0
H959 H 0.7702 0.3842 0.6933 0.0
H960 H 0.73036 0.50066 0.65563 0.0
H961 H 0.72281 0.4484 0.66919 0.0
H962 H 0.71575 0.36091 0.6435 0.0
C963 C 0.74698 0.28781 0.67747 0.0
C964 C 0.75731 0.37824 0.68262 0.0
C965 C 0.75072 0.26207 0.68541 0.0
C966 C 0.73868 0.4834 0.65046 0.0
C967 C 0.73442 0.45357 0.65825 0.0
C968 C 0.72738 0.36602 0.65443 0.0
C969 C 0.74283 0.31424 0.68485 0.0
C970 C 0.74188 0.34363 0.67654 0.0
C971 C 0.74522 0.43072 0.65201 0.0
C972 C 0.74283 0.4004 0.66058 0.0
H973 H 0.74526 0.28879 0.72016 0.0
H974 H 0.73688 0.33229 0.70648 0.0
H975 H 0.71394 0.31157 0.65739 0.0
H976 H 0.77747 0.47358 0.61937 0.0
H977 H 0.76899 0.42106 0.63282 0.0
C978 C 0.30209 0.7745 0.96688 0.0
C979 C 0.26555 0.7571 0.97053 0.0
C980 C 0.32593 0.76849 0.975 0.0
C981 C 0.3679 0.73752 0.9889 0.0
H982 H 0.36631 0.74245 0.03154 0.0
C983 C 0.47475 0.73089 0.02506 0.0
C984 C 0.48922 0.7566 0.03636 0.0
C985 C 0.44395 0.7249 0.01752 0.0
C986 C 0.36708 0.74096 0.01964 0.0
H987 H 0.22561 0.71969 0.98576 0.0
H988 H 0.26764 0.70931 1.00009 0.0
H989 H 0.31892 0.74319 0.01716 0.0
H990 H 0.48216 0.79583 0.04864 0.0
H991 H 0.42906 0.78561 0.03547 0.0
H992 H 0.41681 0.73688 0.99129 0.0
C993 C 0.27759 0.72761 0.99084 0.0
C994 C 0.33971 0.74099 0.01141 0.0
C995 C 0.25352 0.73347 0.98261 0.0
C996 C 0.47183 0.77572 0.04006 0.0
C997 C 0.4411 0.76966 0.03256 0.0
C998 C 0.39521 0.73743 0.99711 0.0
C999 C 0.31407 0.74503 0.98708 0.0
C1000 C 0.34032 0.74019 0.99593 0.0
C1001 C 0.42689 0.74438 0.02114 0.0
C1002 C 0.3956 0.74003 0.01256 0.0
H1003 H 0.31258 0.79314 0.95776 0.0
H1004 H 0.35394 0.78293 0.97199 0.0
H1005 H 0.36886 0.73636 0.97698 0.0
H1006 H 0.48736 0.71562 0.02193 0.0
H1007 H 0.43352 0.70503 0.00884 0.0
C1008 C 0.52907 0.25629 0.31334 0.0
C1009 C 0.51487 0.26755 0.30195 0.0
C1010 C 0.55976 0.28109 0.32096 0.0
C1011 C 0.60869 0.34247 0.34136 0.0
H1012 H 0.68444 0.42485 0.32125 0.0
C1013 C 0.7017 0.47281 0.37169 0.0
C1014 C 0.73793 0.49286 0.36763 0.0
C1015 C 0.67791 0.4427 0.36366 0.0
C1016 C 0.66384 0.40178 0.32703 0.0
H1017 H 0.52229 0.3139 0.28959 0.0
H1018 H 0.57506 0.35671 0.30289 0.0
H1019 H 0.63739 0.37645 0.30691 0.0
H1020 H 0.77744 0.49659 0.35187 0.0
H1021 H 0.73561 0.44366 0.3378 0.0
H1022 H 0.63504 0.36784 0.36147 0.0
C1023 C 0.56297 0.32873 0.30581 0.0
C1024 C 0.63662 0.37421 0.31882 0.0
C1025 C 0.5324 0.30407 0.29824 0.0
C1026 C 0.74975 0.48182 0.35531 0.0
C1027 C 0.72577 0.45156 0.34722 0.0
C1028 C 0.63592 0.37 0.34956 0.0
C1029 C 0.57697 0.31765 0.31732 0.0
C1030 C 0.60823 0.34465 0.3259 0.0
C1031 C 0.68954 0.43167 0.35132 0.0
C1032 C 0.66332 0.40042 0.34252 0.0
H1033 H 0.51632 0.22839 0.31648 0.0
H1034 H 0.57001 0.27163 0.3297 0.0
H1035 H 0.5872 0.32022 0.34719 0.0
H1036 H 0.69141 0.48047 0.38104 0.0
H1037 H 0.65009 0.42852 0.36696 0.0
C1038 C 0.27151 0.52792 0.64634 0.0
C1039 C 0.24599 0.51412 0.63496 0.0
C1040 C 0.27806 0.55882 0.65395 0.0
C1041 C 0.26408 0.63703 0.65188 0.0
H1042 H 0.26752 0.63448 0.69455 0.0
C1043 C 0.22968 0.70182 0.70439 0.0
C1044 C 0.24705 0.73833 0.70069 0.0
C1045 C 0.23602 0.678 0.69641 0.0
C1046 C 0.2667 0.63566 0.68264 0.0
H1047 H 0.20765 0.52244 0.62262 0.0
H1048 H 0.21881 0.57569 0.63592 0.0
H1049 H 0.2665 0.58631 0.6802 0.0
H1050 H 0.2849 0.77832 0.68559 0.0
H1051 H 0.29588 0.73635 0.67152 0.0
H1052 H 0.26259 0.68556 0.65438 0.0
C1053 C 0.23421 0.56307 0.63883 0.0
C1054 C 0.26651 0.60823 0.6744 0.0
C1055 C 0.2276 0.53225 0.63127 0.0
C1056 C 0.27111 0.75041 0.68876 0.0
C1057 C 0.27732 0.72638 0.68068 0.0
C1058 C 0.26431 0.6645 0.66013 0.0
C1059 C 0.25933 0.57665 0.65032 0.0
C1060 C 0.26426 0.6081 0.65894 0.0
C1061 C 0.2598 0.68988 0.68443 0.0
C1062 C 0.26465 0.66361 0.67561 0.0
H1063 H 0.28623 0.51472 0.64946 0.0
H1064 H 0.29777 0.56875 0.66269 0.0
H1065 H 0.26291 0.63802 0.63997 0.0
H1066 H 0.21075 0.69131 0.71341 0.0
H1067 H 0.2215 0.64998 0.69941 0.0
C1068 C 0.35247 0.20301 0.11422 0.0
C1069 C 0.36156 0.18063 0.10643 0.0
C1070 C 0.34555 0.19825 0.12939 0.0
C1071 C 0.36236 0.15513 0.16184 0.0
H1072 H 0.30756 0.19061 0.1823 0.0
C1073 C 0.34591 0.14875 0.22538 0.0
C1074 C 0.36136 0.18321 0.23147 0.0
C1075 C 0.33853 0.14356 0.21024 0.0
C1076 C 0.32269 0.18034 0.17668 0.0
H1077 H 0.3682 0.13432 0.10808 0.0
H1078 H 0.35371 0.12434 0.13422 0.0
H1079 H 0.30704 0.18874 0.15537 0.0
H1080 H 0.37927 0.23884 0.22676 0.0
H1081 H 0.36501 0.22948 0.20046 0.0
H1082 H 0.37734 0.14623 0.18328 0.0
C1083 C 0.35362 0.14674 0.12893 0.0
C1084 C 0.32277 0.17958 0.16124 0.0
C1085 C 0.3615 0.15213 0.11387 0.0
C1086 C 0.36729 0.21198 0.22235 0.0
C1087 C 0.35907 0.20664 0.20732 0.0
C1088 C 0.36153 0.15509 0.17725 0.0
C1089 C 0.34672 0.17045 0.13707 0.0
C1090 C 0.3433 0.16773 0.15354 0.0
C1091 C 0.34556 0.17259 0.20106 0.0
C1092 C 0.34231 0.16837 0.18481 0.0
H1093 H 0.35274 0.22548 0.10879 0.0
H1094 H 0.34094 0.21752 0.13515 0.0
H1095 H 0.3792 0.14655 0.15652 0.0
H1096 H 0.3414 0.12618 0.23213 0.0
H1097 H 0.32817 0.11707 0.20562 0.0
C1098 C 0.17939 0.36767 0.44841 0.0
C1099 C 0.20299 0.35974 0.44084 0.0
C1100 C 0.17147 0.35874 0.46327 0.0
C1101 C 0.21028 0.34239 0.49654 0.0
H1102 H 0.12009 0.32246 0.51383 0.0
C1103 C 0.18908 0.33781 0.55987 0.0
C1104 C 0.17619 0.36028 0.56458 0.0
C1105 C 0.18773 0.32894 0.5449 0.0
C1106 C 0.14539 0.32787 0.50916 0.0
H1107 H 0.23522 0.33437 0.44284 0.0
H1108 H 0.22086 0.31819 0.46878 0.0
H1109 H 0.12577 0.3219 0.48708 0.0
H1110 H 0.15009 0.38947 0.55746 0.0
H1111 H 0.14723 0.37361 0.53156 0.0
H1112 H 0.23001 0.34905 0.51867 0.0
C1113 C 0.20902 0.33197 0.46325 0.0
C1114 C 0.14872 0.3277 0.49382 0.0
C1115 C 0.21703 0.34099 0.44833 0.0
C1116 C 0.16032 0.37216 0.55418 0.0
C1117 C 0.15849 0.36289 0.53933 0.0
C1118 C 0.20684 0.34229 0.5119 0.0
C1119 C 0.18676 0.34146 0.471 0.0
C1120 C 0.18154 0.33607 0.48728 0.0
C1121 C 0.17287 0.34186 0.53445 0.0
C1122 C 0.17468 0.33608 0.51836 0.0
H1123 H 0.16802 0.38206 0.44302 0.0
H1124 H 0.15461 0.36696 0.46886 0.0
H1125 H 0.23608 0.34933 0.49194 0.0
H1126 H 0.20164 0.32841 0.56762 0.0
H1127 H 0.19887 0.31254 0.54146 0.0
C1128 C 0.79323 0.15259 0.88913 0.0
C1129 C 0.82166 0.18055 0.89679 0.0
C1130 C 0.79614 0.14763 0.87406 0.0
C1131 C 0.86098 0.18089 0.8421 0.0
H1132 H 0.77381 0.14847 0.81962 0.0
C1133 C 0.84942 0.21444 0.78098 0.0
C1134 C 0.82721 0.1856 0.77177 0.0
C1135 C 0.85233 0.20899 0.79599 0.0
C1136 C 0.79827 0.15708 0.82578 0.0
H1137 H 0.8757 0.2249 0.89482 0.0
H1138 H 0.88028 0.21779 0.86844 0.0
H1139 H 0.77146 0.14832 0.84637 0.0
H1140 H 0.79131 0.12834 0.77093 0.0
H1141 H 0.79541 0.11901 0.79742 0.0
H1142 H 0.88783 0.19222 0.82117 0.0
C1143 C 0.85609 0.19857 0.87403 0.0
C1144 C 0.79702 0.15683 0.84118 0.0
C1145 C 0.8535 0.20284 0.88921 0.0
C1146 C 0.80894 0.15097 0.77775 0.0
C1147 C 0.81111 0.14565 0.79287 0.0
C1148 C 0.86229 0.18197 0.82666 0.0
C1149 C 0.82717 0.17129 0.86613 0.0
C1150 C 0.82839 0.16905 0.84964 0.0
C1151 C 0.83237 0.17473 0.80215 0.0
C1152 C 0.83096 0.17029 0.81838 0.0
H1153 H 0.76843 0.13485 0.89475 0.0
H1154 H 0.77364 0.12558 0.86862 0.0
H1155 H 0.88567 0.18976 0.84809 0.0
H1156 H 0.86367 0.24143 0.77665 0.0
H1157 H 0.86864 0.23185 0.80294 0.0
C1158 C 0.65794 0.80418 0.1123 0.0
C1159 C 0.64347 0.82427 0.1064 0.0
C1160 C 0.66499 0.80545 0.12744 0.0
C1161 C 0.68244 0.85617 0.16145 0.0
H1162 H 0.62017 0.76589 0.18071 0.0
C1163 C 0.65292 0.84725 0.22407 0.0
C1164 C 0.64099 0.81461 0.23139 0.0
C1165 C 0.6599 0.85002 0.20889 0.0
C1166 C 0.63861 0.79121 0.17566 0.0
H1167 H 0.62703 0.86295 0.11145 0.0
H1168 H 0.64082 0.86628 0.13779 0.0
H1169 H 0.62275 0.76895 0.15399 0.0
H1170 H 0.62935 0.76002 0.22894 0.0
H1171 H 0.64409 0.76536 0.20283 0.0
H1172 H 0.69905 0.87854 0.18299 0.0
C1173 C 0.64622 0.84925 0.13075 0.0
C1174 C 0.63982 0.79289 0.16026 0.0
C1175 C 0.63827 0.84727 0.11572 0.0
C1176 C 0.63829 0.78545 0.2235 0.0
C1177 C 0.6463 0.78847 0.20845 0.0
C1178 C 0.68197 0.85437 0.17689 0.0
C1179 C 0.65865 0.8276 0.13681 0.0
C1180 C 0.6612 0.82546 0.15303 0.0
C1181 C 0.65597 0.82041 0.20075 0.0
C1182 C 0.65945 0.82197 0.18427 0.0
H1183 H 0.66183 0.78595 0.10539 0.0
H1184 H 0.67446 0.78843 0.13191 0.0
H1185 H 0.69918 0.88162 0.15608 0.0
H1186 H 0.6548 0.87003 0.22989 0.0
H1187 H 0.66674 0.87497 0.2035 0.0
C1188 C 0.87569 0.65997 0.55674 0.0
C1189 C 0.84274 0.64141 0.56413 0.0
C1190 C 0.87707 0.66913 0.54182 0.0
C1191 C 0.82164 0.6736 0.511 0.0
H1192 H 0.88209 0.6523 0.48644 0.0
C1193 C 0.78974 0.62803 0.45073 0.0
C1194 C 0.81761 0.64057 0.44036 0.0
C1195 C 0.79692 0.63737 0.46558 0.0
C1196 C 0.86554 0.65904 0.49314 0.0
H1197 H 0.78556 0.6196 0.56176 0.0
H1198 H 0.78787 0.63483 0.53593 0.0
H1199 H 0.88746 0.65214 0.5132 0.0
H1200 H 0.87483 0.67356 0.43737 0.0
H1201 H 0.88752 0.68946 0.46354 0.0
H1202 H 0.79843 0.67853 0.49088 0.0
C1203 C 0.81281 0.64286 0.54159 0.0
C1204 C 0.86864 0.65902 0.50852 0.0
C1205 C 0.81145 0.63385 0.55646 0.0
C1206 C 0.8528 0.66367 0.4451 0.0
C1207 C 0.86008 0.67257 0.46007 0.0
C1208 C 0.81833 0.67327 0.49565 0.0
C1209 C 0.84553 0.65992 0.53395 0.0
C1210 C 0.84603 0.66533 0.51767 0.0
C1211 C 0.83221 0.6591 0.47049 0.0
C1212 C 0.8396 0.66508 0.48657 0.0
H1213 H 0.90034 0.66633 0.56231 0.0
H1214 H 0.90281 0.68276 0.53637 0.0
H1215 H 0.80435 0.67941 0.51765 0.0
H1216 H 0.76233 0.61022 0.44742 0.0
H1217 H 0.77491 0.62624 0.47334 0.0
C1218 C 0.15762 0.82262 0.89217 0.0
C1219 C 0.19107 0.82857 0.89699 0.0
C1220 C 0.15181 0.82626 0.87719 0.0
C1221 C 0.19903 0.86326 0.84152 0.0
H1222 H 0.11588 0.78276 0.82406 0.0
C1223 C 0.18069 0.84704 0.77817 0.0
C1224 C 0.17292 0.81312 0.77316 0.0
C1225 C 0.17742 0.85279 0.79319 0.0
C1226 C 0.13913 0.80557 0.82877 0.0
H1227 H 0.24509 0.84471 0.89 0.0
H1228 H 0.23503 0.85099 0.86413 0.0
H1229 H 0.12194 0.78747 0.85084 0.0
H1230 H 0.15377 0.75824 0.77983 0.0
H1231 H 0.14807 0.76819 0.80578 0.0
H1232 H 0.21714 0.88036 0.81945 0.0
C1233 C 0.21325 0.84366 0.87181 0.0
C1234 C 0.14243 0.80846 0.84413 0.0
C1235 C 0.21892 0.83972 0.88667 0.0
C1236 C 0.16017 0.78477 0.78332 0.0
C1237 C 0.15659 0.79041 0.79822 0.0
C1238 C 0.19568 0.86044 0.82616 0.0
C1239 C 0.17949 0.83637 0.86681 0.0
C1240 C 0.17299 0.83672 0.85069 0.0
C1241 C 0.16587 0.82461 0.80342 0.0
C1242 C 0.16625 0.83093 0.81959 0.0
H1243 H 0.13561 0.81395 0.89985 0.0
H1244 H 0.12555 0.82065 0.8737 0.0
H1245 H 0.22268 0.88563 0.84623 0.0
H1246 H 0.19064 0.86943 0.77062 0.0
H1247 H 0.18455 0.87941 0.79683 0.0
C1248 C 0.50622 0.62368 0.06826 0.0
C1249 C 0.53491 0.64783 0.0594 0.0
C1250 C 0.49808 0.58806 0.06961 0.0
C1251 C 0.53623 0.52844 0.06339 0.0
H1252 H 0.4369 0.45349 0.06261 0.0
C1253 C 0.44674 0.36766 0.05066 0.0
C1254 C 0.46666 0.355 0.0582 0.0
C1255 C 0.45473 0.40307 0.05225 0.0
C1256 C 0.46481 0.47406 0.06277 0.0
H1257 H 0.57769 0.65338 0.0451 0.0
H1258 H 0.56318 0.59156 0.04723 0.0
H1259 H 0.45183 0.51581 0.06251 0.0
H1260 H 0.51029 0.36968 0.07355 0.0
H1261 H 0.52397 0.43147 0.07648 0.0
H1262 H 0.54924 0.48673 0.06304 0.0
C1263 C 0.54728 0.6001 0.05337 0.0
C1264 C 0.47337 0.50988 0.06291 0.0
C1265 C 0.55544 0.63562 0.05206 0.0
C1266 C 0.49455 0.37859 0.06751 0.0
C1267 C 0.50248 0.41409 0.06914 0.0
C1268 C 0.52767 0.49263 0.0632 0.0
C1269 C 0.51843 0.57576 0.06212 0.0
C1270 C 0.50922 0.53758 0.06302 0.0
C1271 C 0.48276 0.42684 0.06147 0.0
C1272 C 0.49185 0.46494 0.06269 0.0
H1273 H 0.48996 0.63223 0.07413 0.0
H1274 H 0.47594 0.5702 0.07658 0.0
H1275 H 0.56413 0.549 0.06372 0.0
H1276 H 0.42512 0.35032 0.04335 0.0
H1277 H 0.43934 0.41199 0.04596 0.0
C1278 C 0.8825 0.50422 0.3992 0.0
C1279 C 0.88817 0.53442 0.39113 0.0
C1280 C 0.90947 0.49532 0.40027 0.0
C1281 C 0.00745 0.53333 0.39513 0.0
H1282 H 0.98226 0.43397 0.39201 0.0
C1283 C 0.07893 0.4445 0.38127 0.0
C1284 C 0.11062 0.46326 0.38948 0.0
C1285 C 0.05151 0.45254 0.38269 0.0
C1286 C 0.98981 0.46189 0.39281 0.0
H1287 H 0.92677 0.57896 0.3779 0.0
H1288 H 0.97321 0.56316 0.37954 0.0
H1289 H 0.9353 0.44952 0.39202 0.0
H1290 H 0.13798 0.50476 0.40588 0.0
H1291 H 0.08988 0.51842 0.40854 0.0
H1292 H 0.06199 0.54585 0.39533 0.0
C1293 C 0.94828 0.54665 0.38529 0.0
C1294 C 0.9628 0.47077 0.39302 0.0
C1295 C 0.92145 0.55558 0.38426 0.0
C1296 C 0.11404 0.48997 0.3993 0.0
C1297 C 0.08649 0.49791 0.40078 0.0
C1298 C 0.03445 0.52447 0.39487 0.0
C1299 C 0.9427 0.51639 0.39329 0.0
C1300 C 0.97127 0.50666 0.39401 0.0
C1301 C 0.05492 0.47942 0.39243 0.0
C1302 C 0.02603 0.48865 0.39354 0.0
H1303 H 0.85724 0.48745 0.40469 0.0
H1304 H 0.90436 0.47207 0.40667 0.0
H1305 H 0.015 0.56121 0.39613 0.0
H1306 H 0.07541 0.42382 0.37357 0.0
H1307 H 0.0279 0.43812 0.3759 0.0
C1308 C 0.62394 0.11807 0.73356 0.0
C1309 C 0.64751 0.11328 0.72443 0.0
C1310 C 0.58824 0.0909 0.73506 0.0
C1311 C 0.52751 0.99333 0.72865 0.0
H1312 H 0.45334 0.01875 0.72968 0.0
C1313 C 0.36585 0.92365 0.71838 0.0
C1314 C 0.35367 0.89074 0.72559 0.0
C1315 C 0.40145 0.95088 0.71961 0.0
C1316 C 0.47368 0.01112 0.72932 0.0
H1317 H 0.65191 0.07605 0.70971 0.0
H1318 H 0.58989 0.02929 0.71205 0.0
H1319 H 0.51577 0.0657 0.72894 0.0
H1320 H 0.36937 0.86102 0.74005 0.0
H1321 H 0.43144 0.90881 0.74242 0.0
H1322 H 0.48542 0.93878 0.72839 0.0
C1323 C 0.59897 0.05365 0.71833 0.0
C1324 C 0.50959 0.03812 0.7291 0.0
C1325 C 0.6346 0.08066 0.7169 0.0
C1326 C 0.3779 0.88595 0.73427 0.0
C1327 C 0.41356 0.91332 0.73556 0.0
C1328 C 0.49161 0.96634 0.7288 0.0
C1329 C 0.57525 0.05834 0.72741 0.0
C1330 C 0.53701 0.02961 0.72858 0.0
C1331 C 0.42587 0.94609 0.72817 0.0
C1332 C 0.46417 0.97484 0.72896 0.0
H1333 H 0.63306 0.14277 0.7396 0.0
H1334 H 0.57091 0.09533 0.7423 0.0
H1335 H 0.54785 0.98569 0.72849 0.0
H1336 H 0.34801 0.9283 0.71155 0.0
H1337 H 0.40997 0.97543 0.71354 0.0
C1338 C 0.63327 0.55717 0.62336 0.0
C1339 C 0.64641 0.53811 0.6155 0.0
C1340 C 0.59781 0.54897 0.62171 0.0
C1341 C 0.50908 0.47646 0.60962 0.0
H1342 H 0.48501 0.55166 0.61105 0.0
C1343 C 0.37782 0.49706 0.60378 0.0
C1344 C 0.3532 0.46764 0.61219 0.0
C1345 C 0.41357 0.50554 0.60279 0.0
C1346 C 0.49123 0.53033 0.61044 0.0
H1347 H 0.63265 0.49584 0.59952 0.0
H1348 H 0.57087 0.48184 0.59648 0.0
H1349 H 0.54747 0.56711 0.61151 0.0
H1350 H 0.34691 0.42388 0.62606 0.0
H1351 H 0.40898 0.43896 0.62454 0.0
H1352 H 0.45289 0.43971 0.60833 0.0
C1353 C 0.58783 0.50275 0.60413 0.0
C1354 C 0.52709 0.53917 0.61091 0.0
C1355 C 0.62332 0.51086 0.60583 0.0
C1356 C 0.36506 0.44668 0.61944 0.0
C1357 C 0.40071 0.4552 0.61848 0.0
C1358 C 0.47324 0.46763 0.60911 0.0
C1359 C 0.57457 0.52161 0.6121 0.0
C1360 C 0.53649 0.51233 0.6107 0.0
C1361 C 0.42552 0.48481 0.61021 0.0
C1362 C 0.4638 0.49441 0.60971 0.0
H1363 H 0.65026 0.57826 0.63094 0.0
H1364 H 0.58845 0.56367 0.62822 0.0
H1365 H 0.51521 0.45504 0.60956 0.0
H1366 H 0.36954 0.51366 0.598 0.0
H1367 H 0.43182 0.52827 0.59617 0.0
C1368 C 0.11905 0.62399 0.93703 0.0
C1369 C 0.11383 0.64837 0.94542 0.0
C1370 C 0.09178 0.58827 0.93575 0.0
C1371 C 0.99372 0.52825 0.94128 0.0
H1372 H 0.01893 0.45395 0.94293 0.0
C1373 C 0.92318 0.36722 0.95385 0.0
C1374 C 0.89098 0.3544 0.94601 0.0
C1375 C 0.95036 0.40282 0.95252 0.0
C1376 C 0.01135 0.47432 0.94254 0.0
H1377 H 0.07566 0.65421 0.95897 0.0
H1378 H 0.0287 0.59216 0.95699 0.0
H1379 H 0.06589 0.51639 0.94318 0.0
H1380 H 0.86244 0.36901 0.93041 0.0
H1381 H 0.91017 0.43109 0.92789 0.0
H1382 H 0.93914 0.4862 0.94125 0.0
C1383 C 0.05351 0.60061 0.95114 0.0
C1384 C 0.03838 0.51023 0.94248 0.0
C1385 C 0.08063 0.63626 0.95237 0.0
C1386 C 0.8868 0.37804 0.93668 0.0
C1387 C 0.91414 0.41371 0.93529 0.0
C1388 C 0.96669 0.49234 0.9414 0.0
C1389 C 0.05868 0.57604 0.94286 0.0
C1390 C 0.02995 0.53773 0.94202 0.0
C1391 C 0.94626 0.42662 0.94325 0.0
C1392 C 0.9751 0.46486 0.94221 0.0
H1393 H 0.1442 0.63245 0.93146 0.0
H1394 H 0.09661 0.57028 0.92911 0.0
H1395 H 0.98616 0.54862 0.94067 0.0
H1396 H 0.92732 0.34985 0.9612 0.0
H1397 H 0.97436 0.41183 0.95903 0.0
C1398 C 0.55688 0.92115 0.28698 0.0
C1399 C 0.53631 0.88808 0.27986 0.0
C1400 C 0.54851 0.94832 0.28551 0.0
C1401 C 0.47437 0.96412 0.27566 0.0
H1402 H 0.55027 0.06317 0.27486 0.0
C1403 C 0.49579 0.11655 0.26966 0.0
C1404 C 0.46779 0.1126 0.27882 0.0
C1405 C 0.50367 0.08888 0.26834 0.0
C1406 C 0.52868 0.03568 0.27488 0.0
H1407 H 0.49101 0.85794 0.26539 0.0
H1408 H 0.47666 0.90564 0.26264 0.0
H1409 H 0.56513 0.01577 0.27472 0.0
H1410 H 0.42598 0.07624 0.2937 0.0
H1411 H 0.4401 0.02864 0.29164 0.0
H1412 H 0.43791 0.98403 0.27557 0.0
C1413 C 0.49898 0.91032 0.26958 0.0
C1414 C 0.53723 0.00843 0.275 0.0
C1415 C 0.50729 0.883 0.2711 0.0
C1416 C 0.44768 0.08024 0.2865 0.0
C1417 C 0.45562 0.05273 0.28523 0.0
C1418 C 0.46582 0.99138 0.27547 0.0
C1419 C 0.51944 0.94334 0.2768 0.0
C1420 C 0.51022 0.97227 0.27562 0.0
C1421 C 0.48379 0.05665 0.27617 0.0
C1422 C 0.49286 0.02757 0.2753 0.0
H1423 H 0.57934 0.92603 0.29387 0.0
H1424 H 0.5645 0.97305 0.29147 0.0
H1425 H 0.45282 0.93666 0.27623 0.0
H1426 H 0.51169 0.14102 0.26352 0.0
H1427 H 0.52526 0.09272 0.26111 0.0
loop_
_geom_bond_atom_site_label_1
_geom_bond_atom_site_label_2
_geom_bond_distance
_geom_bond_site_symmetry_2
_ccdc_geom_bond_type
Co0 O2 2.143 . S
Co0 O8 2.074 . S
Co0 O11 2.093 . S
Co0 O24 2.097 . S
Co0 N41 2.151 . S
Co0 N49 2.214 . S
Co1 O2 2.160 . S
Co1 O7 2.058 . S
Co1 O17 2.057 . S
Co1 O32 2.037 . S
Co1 N36 2.145 . S
Co1 N57 2.257 . S
O2 Co0 2.143 . S
O2 Co1 2.160 . S
C3 O4 1.278 . S
C3 O11 1.224 . S
O4 C3 1.278 . S
C5 O6 1.245 . S
C5 O17 1.232 . S
O6 C5 1.245 . S
O7 Co1 2.058 . S
O7 C33 1.269 . S
O8 Co0 2.074 . S
O8 C33 1.257 . S
H9 C34 0.930 . S
H10 C40 0.930 . S
O11 Co0 2.093 . S
O11 C3 1.224 . S
H12 C44 0.929 . S
H13 C46 0.930 . S
H14 C47 0.913 1_554 S
H15 C45 0.929 . S
H16 C48 0.928 . S
O17 Co1 2.057 . S
O17 C5 1.232 . S
H18 C37 0.929 . S
H19 C38 0.929 . S
H20 C50 0.931 . S
H21 C42 0.929 . S
H22 C51 0.930 . S
H23 C43 0.931 . S
O24 Co0 2.097 . S
O24 C52 1.214 . S
H25 C53 0.929 . S
H26 C54 0.929 . S
H27 C55 0.930 . S
H28 C56 0.929 . S
H29 C58 0.930 . S
H30 C35 0.930 . S
H31 C39 0.930 . S
O32 Co1 2.037 . S
O32 C52 1.234 . S
C33 O7 1.269 . S
C33 O8 1.257 . S
C34 H9 0.930 . S
C34 C37 1.388 . S
C34 C39 1.418 . S
C35 H30 0.930 . S
C35 C38 1.404 . S
C35 C39 1.353 . S
N36 Co1 2.145 . S
N36 C37 1.397 . S
N36 C38 1.334 . S
C37 H18 0.929 . S
C37 C34 1.388 . S
C37 N36 1.397 . S
C38 H19 0.929 . S
C38 C35 1.404 . S
C38 N36 1.334 . S
C39 H31 0.930 . S
C39 C34 1.418 . S
C39 C35 1.353 . S
C40 H10 0.930 . S
C40 N41 1.330 . S
C40 C42 1.446 . S
N41 Co0 2.151 . S
N41 C40 1.330 . S
N41 C45 1.418 . S
C42 H21 0.929 . S
C42 C40 1.446 . S
C42 C43 1.332 . S
C43 H23 0.931 . S
C43 C42 1.332 . S
C43 C44 1.267 . S
C44 H12 0.929 . S
C44 C43 1.267 . S
C44 C45 1.251 . S
C45 H15 0.929 . S
C45 N41 1.418 . S
C45 C44 1.251 . S
C46 H13 0.930 . S
C46 C48 1.406 1_556 S
C46 C51 1.261 . S
C47 H14 0.913 1_556 S
C47 N49 1.301 1_556 S
C47 C50 1.397 . S
C48 H16 0.928 . S
C48 C46 1.406 1_554 S
C48 N49 1.261 . S
N49 Co0 2.214 . S
N49 C47 1.301 1_554 S
N49 C48 1.261 . S
C50 H20 0.931 . S
C50 C47 1.397 . S
C50 C51 1.312 . S
C51 H22 0.930 . S
C51 C46 1.261 . S
C51 C50 1.312 . S
C52 O24 1.214 . S
C52 O32 1.234 . S
C53 H25 0.929 . S
C53 C56 1.391 . S
C53 C58 1.391 . S
C54 H26 0.929 . S
C54 C55 1.390 . S
C54 N57 1.391 . S
C55 H27 0.930 . S
C55 C54 1.390 . S
C55 C56 1.392 . S
C56 H28 0.929 . S
C56 C53 1.391 . S
C56 C55 1.392 . S
N57 Co1 2.257 . S
N57 C54 1.391 . S
N57 C58 1.388 . S
C58 H29 0.930 . S
C58 C53 1.391 . S
C58 N57 1.388 . S
Co59 O61 2.143 . S
Co59 O67 2.074 . S
Co59 O70 2.093 . S
Co59 O83 2.097 . S
Co59 N100 2.151 . S
Co59 N108 2.214 . S
Co60 O61 2.160 . S
Co60 O66 2.058 . S
Co60 O76 2.057 . S
Co60 O91 2.037 . S
Co60 N95 2.145 . S
Co60 N116 2.257 . S
O61 Co59 2.143 . S
O61 Co60 2.160 . S
C62 O63 1.278 . S
C62 O70 1.224 . S
O63 C62 1.278 . S
C64 O65 1.245 . S
C64 O76 1.232 . S
O65 C64 1.245 . S
O66 Co60 2.058 . S
O66 C92 1.269 . S
O67 Co59 2.074 . S
O67 C92 1.257 . S
H68 C93 0.930 . S
H69 C99 0.930 . S
O70 Co59 2.093 . S
O70 C62 1.224 . S
H71 C103 0.929 . S
H72 C105 0.930 . S
H73 C106 0.930 . S
H74 C104 0.929 . S
H75 C107 0.928 . S
O76 Co60 2.057 . S
O76 C64 1.232 . S
H77 C96 0.929 . S
H78 C97 0.929 . S
H79 C109 0.931 . S
H80 C101 0.929 . S
H81 C110 0.930 . S
H82 C102 0.931 . S
O83 Co59 2.097 . S
O83 C111 1.214 . S
H84 C112 0.929 . S
H85 C113 0.929 . S
H86 C114 0.930 . S
H87 C115 0.929 . S
H88 C117 0.930 . S
H89 C94 0.930 . S
H90 C98 0.930 . S
O91 Co60 2.037 . S
O91 C111 1.234 . S
C92 O66 1.269 . S
C92 O67 1.257 . S
C93 H68 0.930 . S
C93 C96 1.388 . S
C93 C98 1.418 . S
C94 H89 0.930 . S
C94 C97 1.404 . S
C94 C98 1.353 . S
N95 Co60 2.145 . S
N95 C96 1.397 . S
N95 C97 1.334 . S
C96 H77 0.929 . S
C96 C93 1.388 . S
C96 N95 1.397 . S
C97 H78 0.929 . S
C97 C94 1.404 . S
C97 N95 1.334 . S
C98 H90 0.930 . S
C98 C93 1.418 . S
C98 C94 1.353 . S
C99 H69 0.930 . S
C99 N100 1.330 . S
C99 C101 1.446 . S
N100 Co59 2.151 . S
N100 C99 1.330 . S
N100 C104 1.418 . S
C101 H80 0.929 . S
C101 C99 1.446 . S
C101 C102 1.332 . S
C102 H82 0.931 . S
C102 C101 1.332 . S
C102 C103 1.267 . S
C103 H71 0.929 . S
C103 C102 1.267 . S
C103 C104 1.251 . S
C104 H74 0.929 . S
C104 N100 1.418 . S
C104 C103 1.251 . S
C105 H72 0.930 . S
C105 C107 1.406 . S
C105 C110 1.261 . S
C106 H73 0.930 . S
C106 N108 1.325 . S
C106 C109 1.357 . S
C107 H75 0.928 . S
C107 C105 1.406 . S
C107 N108 1.261 . S
N108 Co59 2.214 . S
N108 C106 1.325 . S
N108 C107 1.261 . S
C109 H79 0.931 . S
C109 C106 1.357 . S
C109 C110 1.312 . S
C110 H81 0.930 . S
C110 C105 1.261 . S
C110 C109 1.312 . S
C111 O83 1.214 . S
C111 O91 1.234 . S
C112 H84 0.929 . S
C112 C115 1.391 . S
C112 C117 1.391 . S
C113 H85 0.929 . S
C113 C114 1.390 . S
C113 N116 1.391 . S
C114 H86 0.930 . S
C114 C113 1.390 . S
C114 C115 1.392 . S
C115 H87 0.929 . S
C115 C112 1.391 . S
C115 C114 1.392 . S
N116 Co60 2.257 . S
N116 C113 1.391 . S
N116 C117 1.388 . S
C117 H88 0.930 . S
C117 C112 1.391 . S
C117 N116 1.388 . S
Co118 O120 2.143 . S
Co118 O126 2.074 . S
Co118 O129 2.093 . S
Co118 O142 2.097 . S
Co118 N159 2.151 . S
Co118 N167 2.214 . S
Co119 O120 2.160 . S
Co119 O125 2.058 . S
Co119 O135 2.057 . S
Co119 O150 2.037 . S
Co119 N154 2.145 . S
Co119 N175 2.257 . S
O120 Co118 2.143 . S
O120 Co119 2.160 . S
C121 O122 1.278 . S
C121 O129 1.224 . S
O122 C121 1.278 . S
C123 O124 1.245 . S
C123 O135 1.232 . S
O124 C123 1.245 . S
O125 Co119 2.058 . S
O125 C151 1.269 . S
O126 Co118 2.074 . S
O126 C151 1.257 . S
H127 C152 0.930 . S
H128 C158 0.930 . S
O129 Co118 2.093 . S
O129 C121 1.224 . S
H130 C162 0.929 . S
H131 C164 0.930 . S
H132 C165 0.930 . S
H133 C163 0.929 . S
H134 C166 0.928 . S
O135 Co119 2.057 . S
O135 C123 1.232 . S
H136 C155 0.929 . S
H137 C156 0.929 . S
H138 C168 0.931 . S
H139 C160 0.929 . S
H140 C169 0.930 . S
H141 C161 0.931 . S
O142 Co118 2.097 . S
O142 C170 1.214 . S
H143 C171 0.929 . S
H144 C172 0.929 . S
H145 C173 0.930 . S
H146 C174 0.929 . S
H147 C176 0.930 . S
H148 C153 0.930 . S
H149 C157 0.930 . S
O150 Co119 2.037 . S
O150 C170 1.234 . S
C151 O125 1.269 . S
C151 O126 1.257 . S
C152 H127 0.930 . S
C152 C155 1.388 . S
C152 C157 1.418 . S
C153 H148 0.930 . S
C153 C156 1.404 . S
C153 C157 1.353 . S
N154 Co119 2.145 . S
N154 C155 1.397 . S
N154 C156 1.334 . S
C155 H136 0.929 . S
C155 C152 1.388 . S
C155 N154 1.397 . S
C156 H137 0.929 . S
C156 C153 1.404 . S
C156 N154 1.334 . S
C157 H149 0.930 . S
C157 C152 1.418 . S
C157 C153 1.353 . S
C158 H128 0.930 . S
C158 N159 1.330 . S
C158 C160 1.446 . S
N159 Co118 2.151 . S
N159 C158 1.330 . S
N159 C163 1.418 . S
C160 H139 0.929 . S
C160 C158 1.446 . S
C160 C161 1.332 . S
C161 H141 0.931 . S
C161 C160 1.332 . S
C161 C162 1.267 . S
C162 H130 0.929 . S
C162 C161 1.267 . S
C162 C163 1.251 . S
C163 H133 0.929 . S
C163 N159 1.418 . S
C163 C162 1.251 . S
C164 H131 0.930 . S
C164 C166 1.406 . S
C164 C169 1.261 . S
C165 H132 0.930 . S
C165 N167 1.325 . S
C165 C168 1.357 . S
C166 H134 0.928 . S
C166 C164 1.406 . S
C166 N167 1.261 . S
N167 Co118 2.214 . S
N167 C165 1.325 . S
N167 C166 1.261 . S
C168 H138 0.931 . S
C168 C165 1.357 . S
C168 C169 1.312 . S
C169 H140 0.930 . S
C169 C164 1.261 . S
C169 C168 1.312 . S
C170 O142 1.214 . S
C170 O150 1.234 . S
C171 H143 0.929 . S
C171 C174 1.391 . S
C171 C176 1.391 . S
C172 H144 0.929 . S
C172 C173 1.390 . S
C172 N175 1.391 . S
C173 H145 0.930 . S
C173 C172 1.390 . S
C173 C174 1.392 . S
C174 H146 0.929 . S
C174 C171 1.391 . S
C174 C173 1.392 . S
N175 Co119 2.257 . S
N175 C172 1.391 . S
N175 C176 1.388 . S
C176 H147 0.930 . S
C176 C171 1.391 . S
C176 N175 1.388 . S
Co177 O179 2.143 . S
Co177 O185 2.074 . S
Co177 O188 2.093 . S
Co177 O201 2.097 . S
Co177 N218 2.151 . S
Co177 N226 2.214 . S
Co178 O179 2.160 . S
Co178 O184 2.058 . S
Co178 O194 2.057 . S
Co178 O209 2.037 . S
Co178 N213 2.145 . S
Co178 N234 2.257 . S
O179 Co177 2.143 . S
O179 Co178 2.160 . S
C180 O181 1.278 . S
C180 O188 1.224 . S
O181 C180 1.278 . S
C182 O183 1.245 . S
C182 O194 1.232 . S
O183 C182 1.245 . S
O184 Co178 2.058 . S
O184 C210 1.269 . S
O185 Co177 2.074 . S
O185 C210 1.257 . S
H186 C211 0.930 . S
H187 C217 0.930 . S
O188 Co177 2.093 . S
O188 C180 1.224 . S
H189 C221 0.929 . S
H190 C223 0.930 . S
H191 C224 0.913 1_554 S
H192 C222 0.929 . S
H193 C225 0.928 . S
O194 Co178 2.057 . S
O194 C182 1.232 . S
H195 C214 0.929 . S
H196 C215 0.929 . S
H197 C227 0.931 . S
H198 C219 0.929 . S
H199 C228 0.930 . S
H200 C220 0.931 . S
O201 Co177 2.097 . S
O201 C229 1.214 . S
H202 C230 0.929 . S
H203 C231 0.929 . S
H204 C232 0.930 . S
H205 C233 0.929 . S
H206 C235 0.930 . S
H207 C212 0.930 . S
H208 C216 0.930 . S
O209 Co178 2.037 . S
O209 C229 1.234 . S
C210 O184 1.269 . S
C210 O185 1.257 . S
C211 H186 0.930 . S
C211 C214 1.388 . S
C211 C216 1.418 . S
C212 H207 0.930 . S
C212 C215 1.404 . S
C212 C216 1.353 . S
N213 Co178 2.145 . S
N213 C214 1.397 . S
N213 C215 1.334 . S
C214 H195 0.929 . S
C214 C211 1.388 . S
C214 N213 1.397 . S
C215 H196 0.929 . S
C215 C212 1.404 . S
C215 N213 1.334 . S
C216 H208 0.930 . S
C216 C211 1.418 . S
C216 C212 1.353 . S
C217 H187 0.930 . S
C217 N218 1.330 . S
C217 C219 1.446 . S
N218 Co177 2.151 . S
N218 C217 1.330 . S
N218 C222 1.418 . S
C219 H198 0.929 . S
C219 C217 1.446 . S
C219 C220 1.332 . S
C220 H200 0.931 . S
C220 C219 1.332 . S
C220 C221 1.267 . S
C221 H189 0.929 . S
C221 C220 1.267 . S
C221 C222 1.251 . S
C222 H192 0.929 . S
C222 N218 1.418 . S
C222 C221 1.251 . S
C223 H190 0.930 . S
C223 C225 1.406 1_556 S
C223 C228 1.261 . S
C224 H191 0.913 1_556 S
C224 N226 1.301 1_556 S
C224 C227 1.397 . S
C225 H193 0.928 . S
C225 C223 1.406 1_554 S
C225 N226 1.261 . S
N226 Co177 2.214 . S
N226 C224 1.301 1_554 S
N226 C225 1.261 . S
C227 H197 0.931 . S
C227 C224 1.397 . S
C227 C228 1.312 . S
C228 H199 0.930 . S
C228 C223 1.261 . S
C228 C227 1.312 . S
C229 O201 1.214 . S
C229 O209 1.234 . S
C230 H202 0.929 . S
C230 C233 1.391 . S
C230 C235 1.391 . S
C231 H203 0.929 . S
C231 C232 1.390 . S
C231 N234 1.391 . S
C232 H204 0.930 . S
C232 C231 1.390 . S
C232 C233 1.392 . S
C233 H205 0.929 . S
C233 C230 1.391 . S
C233 C232 1.392 . S
N234 Co178 2.257 . S
N234 C231 1.391 . S
N234 C235 1.388 . S
C235 H206 0.930 . S
C235 C230 1.391 . S
C235 N234 1.388 . S
Co236 O238 2.143 . S
Co236 O244 2.074 . S
Co236 O247 2.093 . S
Co236 O260 2.097 . S
Co236 N277 2.151 . S
Co236 N285 2.214 . S
Co237 O238 2.160 . S
Co237 O243 2.058 . S
Co237 O253 2.057 . S
Co237 O268 2.037 . S
Co237 N272 2.145 . S
Co237 N293 2.257 . S
O238 Co236 2.143 . S
O238 Co237 2.160 . S
C239 O240 1.278 . S
C239 O247 1.224 . S
O240 C239 1.278 . S
C241 O242 1.245 . S
C241 O253 1.232 . S
O242 C241 1.245 . S
O243 Co237 2.058 . S
O243 C269 1.269 . S
O244 Co236 2.074 . S
O244 C269 1.257 . S
H245 C270 0.930 . S
H246 C276 0.930 . S
O247 Co236 2.093 . S
O247 C239 1.224 . S
H248 C280 0.929 . S
H249 C282 0.930 . S
H250 C283 0.930 . S
H251 C281 0.929 . S
H252 C284 0.928 . S
O253 Co237 2.057 . S
O253 C241 1.232 . S
H254 C273 0.929 . S
H255 C274 0.929 . S
H256 C286 0.931 . S
H257 C278 0.929 . S
H258 C287 0.930 . S
H259 C279 0.931 . S
O260 Co236 2.097 . S
O260 C288 1.214 . S
H261 C289 0.929 . S
H262 C290 0.929 . S
H263 C291 0.930 . S
H264 C292 0.929 . S
H265 C294 0.930 . S
H266 C271 0.930 . S
H267 C275 0.930 . S
O268 Co237 2.037 . S
O268 C288 1.234 . S
C269 O243 1.269 . S
C269 O244 1.257 . S
C270 H245 0.930 . S
C270 C273 1.388 . S
C270 C275 1.418 . S
C271 H266 0.930 . S
C271 C274 1.404 . S
C271 C275 1.353 . S
N272 Co237 2.145 . S
N272 C273 1.397 . S
N272 C274 1.334 . S
C273 H254 0.929 . S
C273 C270 1.388 . S
C273 N272 1.397 . S
C274 H255 0.929 . S
C274 C271 1.404 . S
C274 N272 1.334 . S
C275 H267 0.930 . S
C275 C270 1.418 . S
C275 C271 1.353 . S
C276 H246 0.930 . S
C276 N277 1.330 . S
C276 C278 1.446 . S
N277 Co236 2.151 . S
N277 C276 1.330 . S
N277 C281 1.418 . S
C278 H257 0.929 . S
C278 C276 1.446 . S
C278 C279 1.332 . S
C279 H259 0.931 . S
C279 C278 1.332 . S
C279 C280 1.267 . S
C280 H248 0.929 . S
C280 C279 1.267 . S
C280 C281 1.251 . S
C281 H251 0.929 . S
C281 N277 1.418 . S
C281 C280 1.251 . S
C282 H249 0.930 . S
C282 C284 1.406 . S
C282 C287 1.261 . S
C283 H250 0.930 . S
C283 N285 1.325 . S
C283 C286 1.357 . S
C284 H252 0.928 . S
C284 C282 1.406 . S
C284 N285 1.261 . S
N285 Co236 2.214 . S
N285 C283 1.325 . S
N285 C284 1.261 . S
C286 H256 0.931 . S
C286 C283 1.357 . S
C286 C287 1.312 . S
C287 H258 0.930 . S
C287 C282 1.261 . S
C287 C286 1.312 . S
C288 O260 1.214 . S
C288 O268 1.234 . S
C289 H261 0.929 . S
C289 C292 1.391 . S
C289 C294 1.391 . S
C290 H262 0.929 . S
C290 C291 1.390 . S
C290 N293 1.391 . S
C291 H263 0.930 . S
C291 C290 1.390 . S
C291 C292 1.392 . S
C292 H264 0.929 . S
C292 C289 1.391 . S
C292 C291 1.392 . S
N293 Co237 2.257 . S
N293 C290 1.391 . S
N293 C294 1.388 . S
C294 H265 0.930 . S
C294 C289 1.391 . S
C294 N293 1.388 . S
Co295 O297 2.143 . S
Co295 O303 2.074 . S
Co295 O306 2.093 . S
Co295 O319 2.097 . S
Co295 N336 2.151 . S
Co295 N344 2.214 . S
Co296 O297 2.160 . S
Co296 O302 2.058 . S
Co296 O312 2.057 . S
Co296 O327 2.037 . S
Co296 N331 2.145 . S
Co296 N352 2.257 . S
O297 Co295 2.143 . S
O297 Co296 2.160 . S
C298 O299 1.278 . S
C298 O306 1.224 . S
O299 C298 1.278 . S
C300 O301 1.245 . S
C300 O312 1.232 . S
O301 C300 1.245 . S
O302 Co296 2.058 . S
O302 C328 1.269 . S
O303 Co295 2.074 . S
O303 C328 1.257 . S
H304 C329 0.930 . S
H305 C335 0.930 . S
O306 Co295 2.093 . S
O306 C298 1.224 . S
H307 C339 0.929 . S
H308 C341 0.930 . S
H309 C342 0.930 . S
H310 C340 0.929 . S
H311 C343 0.928 . S
O312 Co296 2.057 . S
O312 C300 1.232 . S
H313 C332 0.929 . S
H314 C333 0.929 . S
H315 C345 0.931 . S
H316 C337 0.929 . S
H317 C346 0.930 . S
H318 C338 0.931 . S
O319 Co295 2.097 . S
O319 C347 1.214 . S
H320 C348 0.929 . S
H321 C349 0.929 . S
H322 C350 0.930 . S
H323 C351 0.929 . S
H324 C353 0.930 . S
H325 C330 0.930 . S
H326 C334 0.930 . S
O327 Co296 2.037 . S
O327 C347 1.234 . S
C328 O302 1.269 . S
C328 O303 1.257 . S
C329 H304 0.930 . S
C329 C332 1.388 . S
C329 C334 1.418 . S
C330 H325 0.930 . S
C330 C333 1.404 . S
C330 C334 1.353 . S
N331 Co296 2.145 . S
N331 C332 1.397 . S
N331 C333 1.334 . S
C332 H313 0.929 . S
C332 C329 1.388 . S
C332 N331 1.397 . S
C333 H314 0.929 . S
C333 C330 1.404 . S
C333 N331 1.334 . S
C334 H326 0.930 . S
C334 C329 1.418 . S
C334 C330 1.353 . S
C335 H305 0.930 . S
C335 N336 1.330 . S
C335 C337 1.446 . S
N336 Co295 2.151 . S
N336 C335 1.330 . S
N336 C340 1.418 . S
C337 H316 0.929 . S
C337 C335 1.446 . S
C337 C338 1.332 . S
C338 H318 0.931 . S
C338 C337 1.332 . S
C338 C339 1.267 . S
C339 H307 0.929 . S
C339 C338 1.267 . S
C339 C340 1.251 . S
C340 H310 0.929 . S
C340 N336 1.418 . S
C340 C339 1.251 . S
C341 H308 0.930 . S
C341 C343 1.406 . S
C341 C346 1.261 . S
C342 H309 0.930 . S
C342 N344 1.325 . S
C342 C345 1.357 . S
C343 H311 0.928 . S
C343 C341 1.406 . S
C343 N344 1.261 . S
N344 Co295 2.214 . S
N344 C342 1.325 . S
N344 C343 1.261 . S
C345 H315 0.931 . S
C345 C342 1.357 . S
C345 C346 1.312 . S
C346 H317 0.930 . S
C346 C341 1.261 . S
C346 C345 1.312 . S
C347 O319 1.214 . S
C347 O327 1.234 . S
C348 H320 0.929 . S
C348 C351 1.391 . S
C348 C353 1.391 . S
C349 H321 0.929 . S
C349 C350 1.390 . S
C349 N352 1.391 . S
C350 H322 0.930 . S
C350 C349 1.390 . S
C350 C351 1.392 . S
C351 H323 0.929 . S
C351 C348 1.391 . S
C351 C350 1.392 . S
N352 Co296 2.257 . S
N352 C349 1.391 . S
N352 C353 1.388 . S
C353 H324 0.930 . S
C353 C348 1.391 . S
C353 N352 1.388 . S
Co354 O356 2.143 . S
Co354 O362 2.074 . S
Co354 O365 2.093 . S
Co354 O378 2.097 . S
Co354 N395 2.151 . S
Co354 N403 2.214 . S
Co355 O356 2.160 . S
Co355 O361 2.058 . S
Co355 O371 2.057 . S
Co355 O386 2.037 . S
Co355 N390 2.145 . S
Co355 N411 2.257 . S
O356 Co354 2.143 . S
O356 Co355 2.160 . S
C357 O358 1.278 . S
C357 O365 1.224 . S
O358 C357 1.278 . S
C359 O360 1.245 . S
C359 O371 1.232 . S
O360 C359 1.245 . S
O361 Co355 2.058 . S
O361 C387 1.269 . S
O362 Co354 2.074 . S
O362 C387 1.257 . S
H363 C388 0.930 . S
H364 C394 0.930 . S
O365 Co354 2.093 . S
O365 C357 1.224 . S
H366 C398 0.929 . S
H367 C400 0.930 . S
H368 C401 0.930 . S
H369 C399 0.929 . S
H370 C402 0.928 . S
O371 Co355 2.057 . S
O371 C359 1.232 . S
H372 C391 0.929 . S
H373 C392 0.929 . S
H374 C404 0.931 . S
H375 C396 0.929 . S
H376 C405 0.930 . S
H377 C397 0.931 . S
O378 Co354 2.097 . S
O378 C406 1.214 . S
H379 C407 0.929 . S
H380 C408 0.929 . S
H381 C409 0.930 . S
H382 C410 0.929 . S
H383 C412 0.930 . S
H384 C389 0.930 . S
H385 C393 0.930 . S
O386 Co355 2.037 . S
O386 C406 1.234 . S
C387 O361 1.269 . S
C387 O362 1.257 . S
C388 H363 0.930 . S
C388 C391 1.388 . S
C388 C393 1.418 . S
C389 H384 0.930 . S
C389 C392 1.404 . S
C389 C393 1.353 . S
N390 Co355 2.145 . S
N390 C391 1.397 . S
N390 C392 1.334 . S
C391 H372 0.929 . S
C391 C388 1.388 . S
C391 N390 1.397 . S
C392 H373 0.929 . S
C392 C389 1.404 . S
C392 N390 1.334 . S
C393 H385 0.930 . S
C393 C388 1.418 . S
C393 C389 1.353 . S
C394 H364 0.930 . S
C394 N395 1.330 . S
C394 C396 1.446 . S
N395 Co354 2.151 . S
N395 C394 1.330 . S
N395 C399 1.418 . S
C396 H375 0.929 . S
C396 C394 1.446 . S
C396 C397 1.332 . S
C397 H377 0.931 . S
C397 C396 1.332 . S
C397 C398 1.267 . S
C398 H366 0.929 . S
C398 C397 1.267 . S
C398 C399 1.251 . S
C399 H369 0.929 . S
C399 N395 1.418 . S
C399 C398 1.251 . S
C400 H367 0.930 . S
C400 C402 1.406 . S
C400 C405 1.261 . S
C401 H368 0.930 . S
C401 N403 1.325 . S
C401 C404 1.357 . S
C402 H370 0.928 . S
C402 C400 1.406 . S
C402 N403 1.261 . S
N403 Co354 2.214 . S
N403 C401 1.325 . S
N403 C402 1.261 . S
C404 H374 0.931 . S
C404 C401 1.357 . S
C404 C405 1.312 . S
C405 H376 0.930 . S
C405 C400 1.261 . S
C405 C404 1.312 . S
C406 O378 1.214 . S
C406 O386 1.234 . S
C407 H379 0.929 . S
C407 C410 1.391 . S
C407 C412 1.391 . S
C408 H380 0.929 . S
C408 C409 1.390 . S
C408 N411 1.391 . S
C409 H381 0.930 . S
C409 C408 1.390 . S
C409 C410 1.392 . S
C410 H382 0.929 . S
C410 C407 1.391 . S
C410 C409 1.392 . S
N411 Co355 2.257 . S
N411 C408 1.391 . S
N411 C412 1.388 . S
C412 H383 0.930 . S
C412 C407 1.391 . S
C412 N411 1.388 . S
Co413 O415 2.143 . S
Co413 O421 2.074 . S
Co413 O424 2.093 . S
Co413 O437 2.097 . S
Co413 N454 2.151 . S
Co413 N462 2.214 . S
Co414 O415 2.160 . S
Co414 O420 2.058 . S
Co414 O430 2.057 . S
Co414 O445 2.037 . S
Co414 N449 2.145 . S
Co414 N470 2.257 . S
O415 Co413 2.143 . S
O415 Co414 2.160 . S
C416 O417 1.278 . S
C416 O424 1.224 . S
O417 C416 1.278 . S
C418 O419 1.245 . S
C418 O430 1.232 . S
O419 C418 1.245 . S
O420 Co414 2.058 . S
O420 C446 1.269 . S
O421 Co413 2.074 . S
O421 C446 1.257 . S
H422 C447 0.930 . S
H423 C453 0.930 . S
O424 Co413 2.093 . S
O424 C416 1.224 . S
H425 C457 0.929 . S
H426 C459 0.930 . S
H427 C460 0.913 1_556 S
H428 C458 0.929 . S
H429 C461 0.928 . S
O430 Co414 2.057 . S
O430 C418 1.232 . S
H431 C450 0.929 . S
H432 C451 0.929 . S
H433 C463 0.931 . S
H434 C455 0.929 . S
H435 C464 0.930 . S
H436 C456 0.931 . S
O437 Co413 2.097 . S
O437 C465 1.214 . S
H438 C466 0.929 . S
H439 C467 0.929 . S
H440 C468 0.930 . S
H441 C469 0.929 . S
H442 C471 0.930 . S
H443 C448 0.930 . S
H444 C452 0.930 . S
O445 Co414 2.037 . S
O445 C465 1.234 . S
C446 O420 1.269 . S
C446 O421 1.257 . S
C447 H422 0.930 . S
C447 C450 1.388 . S
C447 C452 1.418 . S
C448 H443 0.930 . S
C448 C451 1.404 . S
C448 C452 1.353 . S
N449 Co414 2.145 . S
N449 C450 1.397 . S
N449 C451 1.334 . S
C450 H431 0.929 . S
C450 C447 1.388 . S
C450 N449 1.397 . S
C451 H432 0.929 . S
C451 C448 1.404 . S
C451 N449 1.334 . S
C452 H444 0.930 . S
C452 C447 1.418 . S
C452 C448 1.353 . S
C453 H423 0.930 . S
C453 N454 1.330 . S
C453 C455 1.446 . S
N454 Co413 2.151 . S
N454 C453 1.330 . S
N454 C458 1.418 . S
C455 H434 0.929 . S
C455 C453 1.446 . S
C455 C456 1.332 . S
C456 H436 0.931 . S
C456 C455 1.332 . S
C456 C457 1.267 . S
C457 H425 0.929 . S
C457 C456 1.267 . S
C457 C458 1.251 . S
C458 H428 0.929 . S
C458 N454 1.418 . S
C458 C457 1.251 . S
C459 H426 0.930 . S
C459 C461 1.406 1_554 S
C459 C464 1.261 . S
C460 H427 0.913 1_554 S
C460 N462 1.301 1_554 S
C460 C463 1.397 . S
C461 H429 0.928 . S
C461 C459 1.406 1_556 S
C461 N462 1.261 . S
N462 Co413 2.214 . S
N462 C460 1.301 1_556 S
N462 C461 1.261 . S
C463 H433 0.931 . S
C463 C460 1.397 . S
C463 C464 1.312 . S
C464 H435 0.930 . S
C464 C459 1.261 . S
C464 C463 1.312 . S
C465 O437 1.214 . S
C465 O445 1.234 . S
C466 H438 0.929 . S
C466 C469 1.391 . S
C466 C471 1.391 . S
C467 H439 0.929 . S
C467 C468 1.390 . S
C467 N470 1.391 . S
C468 H440 0.930 . S
C468 C467 1.390 . S
C468 C469 1.392 . S
C469 H441 0.929 . S
C469 C466 1.391 . S
C469 C468 1.392 . S
N470 Co414 2.257 . S
N470 C467 1.391 . S
N470 C471 1.388 . S
C471 H442 0.930 . S
C471 C466 1.391 . S
C471 N470 1.388 . S
Co472 O474 2.143 . S
Co472 O480 2.074 . S
Co472 O483 2.093 . S
Co472 O496 2.097 . S
Co472 N513 2.151 . S
Co472 N521 2.214 . S
Co473 O474 2.160 . S
Co473 O479 2.058 . S
Co473 O489 2.057 . S
Co473 O504 2.037 . S
Co473 N508 2.145 . S
Co473 N529 2.257 . S
O474 Co472 2.143 . S
O474 Co473 2.160 . S
C475 O476 1.278 . S
C475 O483 1.224 . S
O476 C475 1.278 . S
C477 O478 1.245 . S
C477 O489 1.232 . S
O478 C477 1.245 . S
O479 Co473 2.058 . S
O479 C505 1.269 . S
O480 Co472 2.074 . S
O480 C505 1.257 . S
H481 C506 0.930 . S
H482 C512 0.930 . S
O483 Co472 2.093 . S
O483 C475 1.224 . S
H484 C516 0.929 . S
H485 C518 0.930 . S
H486 C519 0.930 . S
H487 C517 0.929 . S
H488 C520 0.928 . S
O489 Co473 2.057 . S
O489 C477 1.232 . S
H490 C509 0.929 . S
H491 C510 0.929 . S
H492 C522 0.931 . S
H493 C514 0.929 . S
H494 C523 0.930 . S
H495 C515 0.931 . S
O496 Co472 2.097 . S
O496 C524 1.214 . S
H497 C525 0.929 . S
H498 C526 0.929 . S
H499 C527 0.930 . S
H500 C528 0.929 . S
H501 C530 0.930 . S
H502 C507 0.930 . S
H503 C511 0.930 . S
O504 Co473 2.037 . S
O504 C524 1.234 . S
C505 O479 1.269 . S
C505 O480 1.257 . S
C506 H481 0.930 . S
C506 C509 1.388 . S
C506 C511 1.418 . S
C507 H502 0.930 . S
C507 C510 1.404 . S
C507 C511 1.353 . S
N508 Co473 2.145 . S
N508 C509 1.397 . S
N508 C510 1.334 . S
C509 H490 0.929 . S
C509 C506 1.388 . S
C509 N508 1.397 . S
C510 H491 0.929 . S
C510 C507 1.404 . S
C510 N508 1.334 . S
C511 H503 0.930 . S
C511 C506 1.418 . S
C511 C507 1.353 . S
C512 H482 0.930 . S
C512 N513 1.330 . S
C512 C514 1.446 . S
N513 Co472 2.151 . S
N513 C512 1.330 . S
N513 C517 1.418 . S
C514 H493 0.929 . S
C514 C512 1.446 . S
C514 C515 1.332 . S
C515 H495 0.931 . S
C515 C514 1.332 . S
C515 C516 1.267 . S
C516 H484 0.929 . S
C516 C515 1.267 . S
C516 C517 1.251 . S
C517 H487 0.929 . S
C517 N513 1.418 . S
C517 C516 1.251 . S
C518 H485 0.930 . S
C518 C520 1.406 . S
C518 C523 1.261 . S
C519 H486 0.930 . S
C519 N521 1.325 . S
C519 C522 1.357 . S
C520 H488 0.928 . S
C520 C518 1.406 . S
C520 N521 1.261 . S
N521 Co472 2.214 . S
N521 C519 1.325 . S
N521 C520 1.261 . S
C522 H492 0.931 . S
C522 C519 1.357 . S
C522 C523 1.312 . S
C523 H494 0.930 . S
C523 C518 1.261 . S
C523 C522 1.312 . S
C524 O496 1.214 . S
C524 O504 1.234 . S
C525 H497 0.929 . S
C525 C528 1.391 . S
C525 C530 1.391 . S
C526 H498 0.929 . S
C526 C527 1.390 . S
C526 N529 1.391 . S
C527 H499 0.930 . S
C527 C526 1.390 . S
C527 C528 1.392 . S
C528 H500 0.929 . S
C528 C525 1.391 . S
C528 C527 1.392 . S
N529 Co473 2.257 . S
N529 C526 1.391 . S
N529 C530 1.388 . S
C530 H501 0.930 . S
C530 C525 1.391 . S
C530 N529 1.388 . S
Co531 O533 2.143 . S
Co531 O539 2.074 . S
Co531 O542 2.093 . S
Co531 O555 2.097 . S
Co531 N572 2.151 . S
Co531 N580 2.214 . S
Co532 O533 2.160 . S
Co532 O538 2.058 . S
Co532 O548 2.057 . S
Co532 O563 2.037 . S
Co532 N567 2.145 . S
Co532 N588 2.257 . S
O533 Co531 2.143 . S
O533 Co532 2.160 . S
C534 O535 1.278 . S
C534 O542 1.224 . S
O535 C534 1.278 . S
C536 O537 1.245 . S
C536 O548 1.232 . S
O537 C536 1.245 . S
O538 Co532 2.058 . S
O538 C564 1.269 . S
O539 Co531 2.074 . S
O539 C564 1.257 . S
H540 C565 0.930 . S
H541 C571 0.930 . S
O542 Co531 2.093 . S
O542 C534 1.224 . S
H543 C575 0.929 . S
H544 C577 0.930 . S
H545 C578 0.930 . S
H546 C576 0.929 . S
H547 C579 0.928 . S
O548 Co532 2.057 . S
O548 C536 1.232 . S
H549 C568 0.929 . S
H550 C569 0.929 . S
H551 C581 0.931 . S
H552 C573 0.929 . S
H553 C582 0.930 . S
H554 C574 0.931 . S
O555 Co531 2.097 . S
O555 C583 1.214 . S
H556 C584 0.929 . S
H557 C585 0.929 . S
H558 C586 0.930 . S
H559 C587 0.929 . S
H560 C589 0.930 . S
H561 C566 0.930 . S
H562 C570 0.930 . S
O563 Co532 2.037 . S
O563 C583 1.234 . S
C564 O538 1.269 . S
C564 O539 1.257 . S
C565 H540 0.930 . S
C565 C568 1.388 . S
C565 C570 1.418 . S
C566 H561 0.930 . S
C566 C569 1.404 . S
C566 C570 1.353 . S
N567 Co532 2.145 . S
N567 C568 1.397 . S
N567 C569 1.334 . S
C568 H549 0.929 . S
C568 C565 1.388 . S
C568 N567 1.397 . S
C569 H550 0.929 . S
C569 C566 1.404 . S
C569 N567 1.334 . S
C570 H562 0.930 . S
C570 C565 1.418 . S
C570 C566 1.353 . S
C571 H541 0.930 . S
C571 N572 1.330 . S
C571 C573 1.446 . S
N572 Co531 2.151 . S
N572 C571 1.330 . S
N572 C576 1.418 . S
C573 H552 0.929 . S
C573 C571 1.446 . S
C573 C574 1.332 . S
C574 H554 0.931 . S
C574 C573 1.332 . S
C574 C575 1.267 . S
C575 H543 0.929 . S
C575 C574 1.267 . S
C575 C576 1.251 . S
C576 H546 0.929 . S
C576 N572 1.418 . S
C576 C575 1.251 . S
C577 H544 0.930 . S
C577 C579 1.406 . S
C577 C582 1.261 . S
C578 H545 0.930 . S
C578 N580 1.325 . S
C578 C581 1.357 . S
C579 H547 0.928 . S
C579 C577 1.406 . S
C579 N580 1.261 . S
N580 Co531 2.214 . S
N580 C578 1.325 . S
N580 C579 1.261 . S
C581 H551 0.931 . S
C581 C578 1.357 . S
C581 C582 1.312 . S
C582 H553 0.930 . S
C582 C577 1.261 . S
C582 C581 1.312 . S
C583 O555 1.214 . S
C583 O563 1.234 . S
C584 H556 0.929 . S
C584 C587 1.391 . S
C584 C589 1.391 . S
C585 H557 0.929 . S
C585 C586 1.390 . S
C585 N588 1.391 . S
C586 H558 0.930 . S
C586 C585 1.390 . S
C586 C587 1.392 . S
C587 H559 0.929 . S
C587 C584 1.391 . S
C587 C586 1.392 . S
N588 Co532 2.257 . S
N588 C585 1.391 . S
N588 C589 1.388 . S
C589 H560 0.930 . S
C589 C584 1.391 . S
C589 N588 1.388 . S
Co590 O592 2.143 . S
Co590 O598 2.074 . S
Co590 O601 2.093 . S
Co590 O614 2.097 . S
Co590 N631 2.151 . S
Co590 N639 2.214 . S
Co591 O592 2.160 . S
Co591 O597 2.058 . S
Co591 O607 2.057 . S
Co591 O622 2.037 . S
Co591 N626 2.145 . S
Co591 N647 2.257 . S
O592 Co590 2.143 . S
O592 Co591 2.160 . S
C593 O594 1.278 . S
C593 O601 1.224 . S
O594 C593 1.278 . S
C595 O596 1.245 . S
C595 O607 1.232 . S
O596 C595 1.245 . S
O597 Co591 2.058 . S
O597 C623 1.269 . S
O598 Co590 2.074 . S
O598 C623 1.257 . S
H599 C624 0.930 . S
H600 C630 0.930 . S
O601 Co590 2.093 . S
O601 C593 1.224 . S
H602 C634 0.929 . S
H603 C636 0.930 . S
H604 C637 0.913 1_556 S
H605 C635 0.929 . S
H606 C638 0.928 . S
O607 Co591 2.057 . S
O607 C595 1.232 . S
H608 C627 0.929 . S
H609 C628 0.929 . S
H610 C640 0.931 . S
H611 C632 0.929 . S
H612 C641 0.930 . S
H613 C633 0.931 . S
O614 Co590 2.097 . S
O614 C642 1.214 . S
H615 C643 0.929 . S
H616 C644 0.929 . S
H617 C645 0.930 . S
H618 C646 0.929 . S
H619 C648 0.930 . S
H620 C625 0.930 . S
H621 C629 0.930 . S
O622 Co591 2.037 . S
O622 C642 1.234 . S
C623 O597 1.269 . S
C623 O598 1.257 . S
C624 H599 0.930 . S
C624 C627 1.388 . S
C624 C629 1.418 . S
C625 H620 0.930 . S
C625 C628 1.404 . S
C625 C629 1.353 . S
N626 Co591 2.145 . S
N626 C627 1.397 . S
N626 C628 1.334 . S
C627 H608 0.929 . S
C627 C624 1.388 . S
C627 N626 1.397 . S
C628 H609 0.929 . S
C628 C625 1.404 . S
C628 N626 1.334 . S
C629 H621 0.930 . S
C629 C624 1.418 . S
C629 C625 1.353 . S
C630 H600 0.930 . S
C630 N631 1.330 . S
C630 C632 1.446 . S
N631 Co590 2.151 . S
N631 C630 1.330 . S
N631 C635 1.418 . S
C632 H611 0.929 . S
C632 C630 1.446 . S
C632 C633 1.332 . S
C633 H613 0.931 . S
C633 C632 1.332 . S
C633 C634 1.267 . S
C634 H602 0.929 . S
C634 C633 1.267 . S
C634 C635 1.251 . S
C635 H605 0.929 . S
C635 N631 1.418 . S
C635 C634 1.251 . S
C636 H603 0.930 . S
C636 C638 1.406 1_554 S
C636 C641 1.261 . S
C637 H604 0.913 1_554 S
C637 N639 1.301 1_554 S
C637 C640 1.397 . S
C638 H606 0.928 . S
C638 C636 1.406 1_556 S
C638 N639 1.261 . S
N639 Co590 2.214 . S
N639 C637 1.301 1_556 S
N639 C638 1.261 . S
C640 H610 0.931 . S
C640 C637 1.397 . S
C640 C641 1.312 . S
C641 H612 0.930 . S
C641 C636 1.261 . S
C641 C640 1.312 . S
C642 O614 1.214 . S
C642 O622 1.234 . S
C643 H615 0.929 . S
C643 C646 1.391 . S
C643 C648 1.391 . S
C644 H616 0.929 . S
C644 C645 1.390 . S
C644 N647 1.391 . S
C645 H617 0.930 . S
C645 C644 1.390 . S
C645 C646 1.392 . S
C646 H618 0.929 . S
C646 C643 1.391 . S
C646 C645 1.392 . S
N647 Co591 2.257 . S
N647 C644 1.391 . S
N647 C648 1.388 . S
C648 H619 0.930 . S
C648 C643 1.391 . S
C648 N647 1.388 . S
Co649 O651 2.143 . S
Co649 O657 2.074 . S
Co649 O660 2.093 . S
Co649 O673 2.097 . S
Co649 N690 2.151 . S
Co649 N698 2.214 . S
Co650 O651 2.160 . S
Co650 O656 2.058 . S
Co650 O666 2.057 . S
Co650 O681 2.037 . S
Co650 N685 2.145 . S
Co650 N706 2.257 . S
O651 Co649 2.143 . S
O651 Co650 2.160 . S
C652 O653 1.278 . S
C652 O660 1.224 . S
O653 C652 1.278 . S
C654 O655 1.245 . S
C654 O666 1.232 . S
O655 C654 1.245 . S
O656 Co650 2.058 . S
O656 C682 1.269 . S
O657 Co649 2.074 . S
O657 C682 1.257 . S
H658 C683 0.930 . S
H659 C689 0.930 . S
O660 Co649 2.093 . S
O660 C652 1.224 . S
H661 C693 0.929 . S
H662 C695 0.930 . S
H663 C696 0.930 . S
H664 C694 0.929 . S
H665 C697 0.928 . S
O666 Co650 2.057 . S
O666 C654 1.232 . S
H667 C686 0.929 . S
H668 C687 0.929 . S
H669 C699 0.931 . S
H670 C691 0.929 . S
H671 C700 0.930 . S
H672 C692 0.931 . S
O673 Co649 2.097 . S
O673 C701 1.214 . S
H674 C702 0.929 . S
H675 C703 0.929 . S
H676 C704 0.930 . S
H677 C705 0.929 . S
H678 C707 0.930 . S
H679 C684 0.930 . S
H680 C688 0.930 . S
O681 Co650 2.037 . S
O681 C701 1.234 . S
C682 O656 1.269 . S
C682 O657 1.257 . S
C683 H658 0.930 . S
C683 C686 1.388 . S
C683 C688 1.418 . S
C684 H679 0.930 . S
C684 C687 1.404 . S
C684 C688 1.353 . S
N685 Co650 2.145 . S
N685 C686 1.397 . S
N685 C687 1.334 . S
C686 H667 0.929 . S
C686 C683 1.388 . S
C686 N685 1.397 . S
C687 H668 0.929 . S
C687 C684 1.404 . S
C687 N685 1.334 . S
C688 H680 0.930 . S
C688 C683 1.418 . S
C688 C684 1.353 . S
C689 H659 0.930 . S
C689 N690 1.330 . S
C689 C691 1.446 . S
N690 Co649 2.151 . S
N690 C689 1.330 . S
N690 C694 1.418 . S
C691 H670 0.929 . S
C691 C689 1.446 . S
C691 C692 1.332 . S
C692 H672 0.931 . S
C692 C691 1.332 . S
C692 C693 1.267 . S
C693 H661 0.929 . S
C693 C692 1.267 . S
C693 C694 1.251 . S
C694 H664 0.929 . S
C694 N690 1.418 . S
C694 C693 1.251 . S
C695 H662 0.930 . S
C695 C697 1.406 . S
C695 C700 1.261 . S
C696 H663 0.930 . S
C696 N698 1.325 . S
C696 C699 1.357 . S
C697 H665 0.928 . S
C697 C695 1.406 . S
C697 N698 1.261 . S
N698 Co649 2.214 . S
N698 C696 1.325 . S
N698 C697 1.261 . S
C699 H669 0.931 . S
C699 C696 1.357 . S
C699 C700 1.312 . S
C700 H671 0.930 . S
C700 C695 1.261 . S
C700 C699 1.312 . S
C701 O673 1.214 . S
C701 O681 1.234 . S
C702 H674 0.929 . S
C702 C705 1.391 . S
C702 C707 1.391 . S
C703 H675 0.929 . S
C703 C704 1.390 . S
C703 N706 1.391 . S
C704 H676 0.930 . S
C704 C703 1.390 . S
C704 C705 1.392 . S
C705 H677 0.929 . S
C705 C702 1.391 . S
C705 C704 1.392 . S
N706 Co650 2.257 . S
N706 C703 1.391 . S
N706 C707 1.388 . S
C707 H678 0.930 . S
C707 C702 1.391 . S
C707 N706 1.388 . S
C708 C709 1.349 . S
C708 C710 1.327 . S
C708 H733 0.950 . S
C709 C708 1.349 . S
C709 C725 1.349 . S
C710 C708 1.327 . S
C710 C729 1.429 . S
C710 H734 1.003 . S
C711 C728 1.574 1_565 S
C711 C730 1.368 . S
C711 H735 0.949 . S
H712 C716 0.949 . S
C713 C714 1.349 . S
C713 C715 1.327 . S
C713 H736 0.950 . S
C714 C713 1.349 . S
C714 C726 1.349 . S
C715 C713 1.327 . S
C715 C731 1.429 . S
C715 H737 1.003 . S
C716 H712 0.949 . S
C716 C724 1.574 1_545 S
C716 C732 1.368 . S
H717 C725 0.950 . S
H718 C723 0.950 . S
H719 C724 0.949 . S
H720 C726 0.950 . S
H721 C727 0.950 . S
H722 C728 0.949 . S
C723 H718 0.950 . S
C723 C725 1.327 . S
C723 C729 1.429 . S
C724 C716 1.574 1_565 S
C724 H719 0.949 . S
C724 C730 1.368 1_554 S
C725 C709 1.349 . S
C725 H717 0.950 . S
C725 C723 1.327 . S
C726 C714 1.349 . S
C726 H720 0.950 . S
C726 C727 1.327 . S
C727 H721 0.950 . S
C727 C726 1.327 . S
C727 C731 1.429 . S
C728 C711 1.574 1_545 S
C728 H722 0.949 . S
C728 C732 1.368 1_556 S
C729 C710 1.429 . S
C729 C723 1.429 . S
C729 C730 1.523 . S
C730 C711 1.368 . S
C730 C724 1.368 1_556 S
C730 C729 1.523 . S
C731 C715 1.429 . S
C731 C727 1.429 . S
C731 C732 1.523 . S
C732 C716 1.368 . S
C732 C728 1.368 1_554 S
C732 C731 1.523 . S
H733 C708 0.950 . S
H734 C710 1.003 . S
H735 C711 0.949 . S
H736 C713 0.950 . S
H737 C715 1.003 . S
C738 C739 1.349 . S
C738 C740 1.327 . S
C738 H763 0.950 . S
C739 C738 1.349 . S
C739 C755 1.349 . S
C740 C738 1.327 . S
C740 C759 1.429 . S
C740 H764 0.950 . S
C741 C758 1.574 . S
C741 C760 1.368 . S
C741 H765 0.949 . S
H742 C746 0.949 . S
C743 C744 1.349 . S
C743 C745 1.327 . S
C743 H766 0.950 . S
C744 C743 1.349 . S
C744 C756 1.349 . S
C745 C743 1.327 . S
C745 C761 1.429 . S
C745 H767 0.950 . S
C746 H742 0.949 . S
C746 C754 1.574 . S
C746 C762 1.368 . S
H747 C755 0.950 . S
H748 C753 0.950 . S
H749 C754 0.949 . S
H750 C756 0.950 . S
H751 C757 0.950 . S
H752 C758 0.949 . S
C753 H748 0.950 . S
C753 C755 1.327 . S
C753 C759 1.429 . S
C754 C746 1.574 . S
C754 H749 0.949 . S
C754 C760 1.368 . S
C755 C739 1.349 . S
C755 H747 0.950 . S
C755 C753 1.327 . S
C756 C744 1.349 . S
C756 H750 0.950 . S
C756 C757 1.327 . S
C757 H751 0.950 . S
C757 C756 1.327 . S
C757 C761 1.429 . S
C758 C741 1.574 . S
C758 H752 0.949 . S
C758 C762 1.368 . S
C759 C740 1.429 . S
C759 C753 1.429 . S
C759 C760 1.523 . S
C760 C741 1.368 . S
C760 C754 1.368 . S
C760 C759 1.523 . S
C761 C745 1.429 . S
C761 C757 1.429 . S
C761 C762 1.523 . S
C762 C746 1.368 . S
C762 C758 1.368 . S
C762 C761 1.523 . S
H763 C738 0.950 . S
H764 C740 0.950 . S
H765 C741 0.949 . S
H766 C743 0.950 . S
H767 C745 0.950 . S
C768 C769 1.349 . S
C768 C770 1.327 . S
C768 H793 0.950 . S
C769 C768 1.349 . S
C769 C785 1.349 . S
C770 C768 1.327 . S
C770 C789 1.429 . S
C770 H794 0.950 . S
C771 C788 1.574 1_655 S
C771 C790 1.368 . S
C771 H795 0.949 . S
H772 C776 0.949 . S
C773 C774 1.349 . S
C773 C775 1.327 . S
C773 H796 0.950 . S
C774 C773 1.349 . S
C774 C786 1.349 . S
C775 C773 1.327 . S
C775 C791 1.429 . S
C775 H797 0.950 . S
C776 H772 0.949 . S
C776 C784 1.574 1_455 S
C776 C792 1.368 . S
H777 C785 0.950 . S
H778 C783 0.950 . S
H779 C784 0.949 . S
H780 C786 0.950 . S
H781 C787 0.950 . S
H782 C788 0.949 . S
C783 H778 0.950 . S
C783 C785 1.327 . S
C783 C789 1.429 . S
C784 C776 1.574 1_655 S
C784 H779 0.949 . S
C784 C790 1.368 . S
C785 C769 1.349 . S
C785 H777 0.950 . S
C785 C783 1.327 . S
C786 C774 1.349 . S
C786 H780 0.950 . S
C786 C787 1.327 . S
C787 H781 0.950 . S
C787 C786 1.327 . S
C787 C791 1.429 . S
C788 C771 1.574 1_455 S
C788 H782 0.949 . S
C788 C792 1.368 . S
C789 C770 1.429 . S
C789 C783 1.429 . S
C789 C790 1.523 . S
C790 C771 1.368 . S
C790 C784 1.368 . S
C790 C789 1.523 . S
C791 C775 1.429 . S
C791 C787 1.429 . S
C791 C792 1.523 . S
C792 C776 1.368 . S
C792 C788 1.368 . S
C792 C791 1.523 . S
H793 C768 0.950 . S
H794 C770 0.950 . S
H795 C771 0.949 . S
H796 C773 0.950 . S
H797 C775 0.950 . S
C798 C799 1.349 . S
C798 C800 1.327 . S
C798 H823 0.950 . S
C799 C798 1.349 . S
C799 C815 1.349 . S
C800 C798 1.327 . S
C800 C819 1.429 . S
C800 H824 0.950 . S
C801 C818 1.574 1_565 S
C801 C820 1.368 . S
C801 H825 0.949 . S
H802 C806 0.949 . S
C803 C804 1.349 . S
C803 C805 1.327 . S
C803 H826 0.950 . S
C804 C803 1.349 . S
C804 C816 1.349 . S
C805 C803 1.327 . S
C805 C821 1.429 . S
C805 H827 0.950 . S
C806 H802 0.949 . S
C806 C814 1.574 1_545 S
C806 C822 1.368 . S
H807 C815 0.950 . S
H808 C813 0.950 . S
H809 C814 0.949 . S
H810 C816 0.950 . S
H811 C817 0.950 . S
H812 C818 0.949 . S
C813 H808 0.950 . S
C813 C815 1.327 . S
C813 C819 1.429 . S
C814 C806 1.574 1_565 S
C814 H809 0.949 . S
C814 C820 1.368 1_556 S
C815 C799 1.349 . S
C815 H807 0.950 . S
C815 C813 1.327 . S
C816 C804 1.349 . S
C816 H810 0.950 . S
C816 C817 1.327 . S
C817 H811 0.950 . S
C817 C816 1.327 . S
C817 C821 1.429 . S
C818 C801 1.574 1_545 S
C818 H812 0.949 . S
C818 C822 1.368 1_554 S
C819 C800 1.429 . S
C819 C813 1.429 . S
C819 C820 1.523 . S
C820 C801 1.368 . S
C820 C814 1.368 1_554 S
C820 C819 1.523 . S
C821 C805 1.429 . S
C821 C817 1.429 . S
C821 C822 1.523 . S
C822 C806 1.368 . S
C822 C818 1.368 1_556 S
C822 C821 1.523 . S
H823 C798 0.950 . S
H824 C800 0.950 . S
H825 C801 0.949 . S
H826 C803 0.950 . S
H827 C805 0.950 . S
C828 C829 1.349 . S
C828 C830 1.327 . S
C828 H853 0.950 . S
C829 C828 1.349 . S
C829 C845 1.349 . S
C830 C828 1.327 . S
C830 C849 1.429 . S
C830 H854 0.950 . S
C831 C848 1.574 . S
C831 C850 1.368 . S
C831 H855 0.949 . S
H832 C836 0.949 . S
C833 C834 1.349 . S
C833 C835 1.327 . S
C833 H856 0.950 . S
C834 C833 1.349 . S
C834 C846 1.349 . S
C835 C833 1.327 . S
C835 C851 1.429 . S
C835 H857 0.950 . S
C836 H832 0.949 . S
C836 C844 1.574 . S
C836 C852 1.368 . S
H837 C845 0.950 . S
H838 C843 0.950 . S
H839 C844 0.949 . S
H840 C846 0.950 . S
H841 C847 0.950 . S
H842 C848 0.949 . S
C843 H838 0.950 . S
C843 C845 1.327 . S
C843 C849 1.429 . S
C844 C836 1.574 . S
C844 H839 0.949 . S
C844 C850 1.368 . S
C845 C829 1.349 . S
C845 H837 0.950 . S
C845 C843 1.327 . S
C846 C834 1.349 . S
C846 H840 0.950 . S
C846 C847 1.327 . S
C847 H841 0.950 . S
C847 C846 1.327 . S
C847 C851 1.429 . S
C848 C831 1.574 . S
C848 H842 0.949 . S
C848 C852 1.368 . S
C849 C830 1.429 . S
C849 C843 1.429 . S
C849 C850 1.523 . S
C850 C831 1.368 . S
C850 C844 1.368 . S
C850 C849 1.523 . S
C851 C835 1.429 . S
C851 C847 1.429 . S
C851 C852 1.523 . S
C852 C836 1.368 . S
C852 C848 1.368 . S
C852 C851 1.523 . S
H853 C828 0.950 . S
H854 C830 0.950 . S
H855 C831 0.949 . S
H856 C833 0.950 . S
H857 C835 0.950 . S
C858 C859 1.349 . S
C858 C860 1.327 . S
C858 H883 0.950 . S
C859 C858 1.349 . S
C859 C875 1.349 . S
C860 C858 1.327 . S
C860 C879 1.429 . S
C860 H884 0.950 . S
C861 C878 1.574 1_655 S
C861 C880 1.368 . S
C861 H885 0.949 . S
H862 C866 0.949 . S
C863 C864 1.349 . S
C863 C865 1.327 . S
C863 H886 0.950 . S
C864 C863 1.349 . S
C864 C876 1.349 . S
C865 C863 1.327 . S
C865 C881 1.429 . S
C865 H887 0.950 . S
C866 H862 0.949 . S
C866 C874 1.574 1_455 S
C866 C882 1.368 . S
H867 C875 0.950 . S
H868 C873 0.950 . S
H869 C874 0.949 . S
H870 C876 0.950 . S
H871 C877 0.950 . S
H872 C878 0.949 . S
C873 H868 0.950 . S
C873 C875 1.327 . S
C873 C879 1.429 . S
C874 C866 1.574 1_655 S
C874 H869 0.949 . S
C874 C880 1.368 . S
C875 C859 1.349 . S
C875 H867 0.950 . S
C875 C873 1.327 . S
C876 C864 1.349 . S
C876 H870 0.950 . S
C876 C877 1.327 . S
C877 H871 0.950 . S
C877 C876 1.327 . S
C877 C881 1.429 . S
C878 C861 1.574 1_455 S
C878 H872 0.949 . S
C878 C882 1.368 . S
C879 C860 1.429 . S
C879 C873 1.429 . S
C879 C880 1.523 . S
C880 C861 1.368 . S
C880 C874 1.368 . S
C880 C879 1.523 . S
C881 C865 1.429 . S
C881 C877 1.429 . S
C881 C882 1.523 . S
C882 C866 1.368 . S
C882 C878 1.368 . S
C882 C881 1.523 . S
H883 C858 0.950 . S
H884 C860 0.950 . S
H885 C861 0.949 . S
H886 C863 0.950 . S
H887 C865 0.950 . S
C888 C889 1.349 . S
C888 C890 1.327 . S
C888 H913 0.950 . S
C889 C888 1.349 . S
C889 C905 1.349 . S
C890 C888 1.327 . S
C890 C909 1.429 . S
C890 H914 0.950 . S
C891 C908 1.574 . S
C891 C910 1.368 1_554 S
C891 H915 0.949 . S
H892 C896 0.949 . S
C893 C894 1.349 . S
C893 C895 1.327 . S
C893 H916 0.950 . S
C894 C893 1.349 . S
C894 C906 1.349 . S
C895 C893 1.327 . S
C895 C911 1.429 . S
C895 H917 0.950 . S
C896 H892 0.949 . S
C896 C904 1.574 . S
C896 C912 1.368 1_556 S
H897 C905 0.950 . S
H898 C903 0.949 . S
H899 C904 0.949 . S
H900 C906 0.950 . S
H901 C907 0.949 . S
H902 C908 0.949 . S
C903 H898 0.949 . S
C903 C905 1.327 . S
C903 C909 1.429 . S
C904 C896 1.574 . S
C904 H899 0.949 . S
C904 C910 1.368 . S
C905 C889 1.349 . S
C905 H897 0.950 . S
C905 C903 1.327 . S
C906 C894 1.349 . S
C906 H900 0.950 . S
C906 C907 1.327 . S
C907 H901 0.949 . S
C907 C906 1.327 . S
C907 C911 1.429 . S
C908 C891 1.574 . S
C908 H902 0.949 . S
C908 C912 1.368 . S
C909 C890 1.429 . S
C909 C903 1.429 . S
C909 C910 1.523 . S
C910 C891 1.368 1_556 S
C910 C904 1.368 . S
C910 C909 1.523 . S
C911 C895 1.429 . S
C911 C907 1.429 . S
C911 C912 1.523 . S
C912 C896 1.368 1_554 S
C912 C908 1.368 . S
C912 C911 1.523 . S
H913 C888 0.950 . S
H914 C890 0.950 . S
H915 C891 0.949 . S
H916 C893 0.950 . S
H917 C895 0.950 . S
C918 C919 1.349 . S
C918 C920 1.327 . S
C918 H943 0.950 . S
C919 C918 1.349 . S
C919 C935 1.349 . S
C920 C918 1.327 . S
C920 C939 1.429 . S
C920 H944 0.950 . S
C921 C938 1.574 . S
C921 C940 1.368 . S
C921 H945 0.949 . S
H922 C926 0.949 . S
C923 C924 1.349 . S
C923 C925 1.327 . S
C923 H946 0.950 . S
C924 C923 1.349 . S
C924 C936 1.349 . S
C925 C923 1.327 . S
C925 C941 1.429 . S
C925 H947 0.950 . S
C926 H922 0.949 . S
C926 C934 1.574 . S
C926 C942 1.368 . S
H927 C935 0.950 . S
H928 C933 0.950 . S
H929 C934 0.949 . S
H930 C936 0.950 . S
H931 C937 0.950 . S
H932 C938 0.949 . S
C933 H928 0.950 . S
C933 C935 1.327 . S
C933 C939 1.429 . S
C934 C926 1.574 . S
C934 H929 0.949 . S
C934 C940 1.368 . S
C935 C919 1.349 . S
C935 H927 0.950 . S
C935 C933 1.327 . S
C936 C924 1.349 . S
C936 H930 0.950 . S
C936 C937 1.327 . S
C937 H931 0.950 . S
C937 C936 1.327 . S
C937 C941 1.429 . S
C938 C921 1.574 . S
C938 H932 0.949 . S
C938 C942 1.368 . S
C939 C920 1.429 . S
C939 C933 1.429 . S
C939 C940 1.523 . S
C940 C921 1.368 . S
C940 C934 1.368 . S
C940 C939 1.523 . S
C941 C925 1.429 . S
C941 C937 1.429 . S
C941 C942 1.523 . S
C942 C926 1.368 . S
C942 C938 1.368 . S
C942 C941 1.523 . S
H943 C918 0.950 . S
H944 C920 0.950 . S
H945 C921 0.949 . S
H946 C923 0.950 . S
H947 C925 0.950 . S
C948 C949 1.349 . S
C948 C950 1.327 . S
C948 H973 0.950 . S
C949 C948 1.349 . S
C949 C965 1.349 . S
C950 C948 1.327 . S
C950 C969 1.429 . S
C950 H974 0.950 . S
C951 C968 1.574 . S
C951 C970 1.368 . S
C951 H975 0.949 . S
H952 C956 0.949 . S
C953 C954 1.349 . S
C953 C955 1.327 . S
C953 H976 0.950 . S
C954 C953 1.349 . S
C954 C966 1.349 . S
C955 C953 1.327 . S
C955 C971 1.429 . S
C955 H977 0.950 . S
C956 H952 0.949 . S
C956 C964 1.574 . S
C956 C972 1.368 . S
H957 C965 0.950 . S
H958 C963 0.950 . S
H959 C964 0.949 . S
H960 C966 0.950 . S
H961 C967 0.950 . S
H962 C968 0.949 . S
C963 H958 0.950 . S
C963 C965 1.327 . S
C963 C969 1.429 . S
C964 C956 1.574 . S
C964 H959 0.949 . S
C964 C970 1.368 . S
C965 C949 1.349 . S
C965 H957 0.950 . S
C965 C963 1.327 . S
C966 C954 1.349 . S
C966 H960 0.950 . S
C966 C967 1.327 . S
C967 H961 0.950 . S
C967 C966 1.327 . S
C967 C971 1.429 . S
C968 C951 1.574 . S
C968 H962 0.949 . S
C968 C972 1.368 . S
C969 C950 1.429 . S
C969 C963 1.429 . S
C969 C970 1.523 . S
C970 C951 1.368 . S
C970 C964 1.368 . S
C970 C969 1.523 . S
C971 C955 1.429 . S
C971 C967 1.429 . S
C971 C972 1.523 . S
C972 C956 1.368 . S
C972 C968 1.368 . S
C972 C971 1.523 . S
H973 C948 0.950 . S
H974 C950 0.950 . S
H975 C951 0.949 . S
H976 C953 0.950 . S
H977 C955 0.950 . S
C978 C979 1.349 . S
C978 C980 1.327 . S
C978 H1003 0.950 . S
C979 C978 1.349 . S
C979 C995 1.349 . S
C980 C978 1.327 . S
C980 C999 1.429 . S
C980 H1004 0.949 . S
C981 C998 1.574 . S
C981 C1000 1.368 . S
C981 H1005 0.949 . S
H982 C986 0.949 . S
C983 C984 1.349 . S
C983 C985 1.327 . S
C983 H1006 0.950 . S
C984 C983 1.349 . S
C984 C996 1.349 . S
C985 C983 1.327 . S
C985 C1001 1.429 . S
C985 H1007 0.949 . S
C986 H982 0.949 . S
C986 C994 1.574 . S
C986 C1002 1.368 . S
H987 C995 0.950 . S
H988 C993 0.950 . S
H989 C994 0.949 . S
H990 C996 0.950 . S
H991 C997 0.950 . S
H992 C998 0.949 . S
C993 H988 0.950 . S
C993 C995 1.327 . S
C993 C999 1.429 . S
C994 C986 1.574 . S
C994 H989 0.949 . S
C994 C1000 1.368 1_554 S
C995 C979 1.349 . S
C995 H987 0.950 . S
C995 C993 1.327 . S
C996 C984 1.349 . S
C996 H990 0.950 . S
C996 C997 1.327 . S
C997 H991 0.950 . S
C997 C996 1.327 . S
C997 C1001 1.429 . S
C998 C981 1.574 . S
C998 H992 0.949 . S
C998 C1002 1.368 1_556 S
C999 C980 1.429 . S
C999 C993 1.429 . S
C999 C1000 1.523 . S
C1000 C981 1.368 . S
C1000 C994 1.368 1_556 S
C1000 C999 1.523 . S
C1001 C985 1.429 . S
C1001 C997 1.429 . S
C1001 C1002 1.523 . S
C1002 C986 1.368 . S
C1002 C998 1.368 1_554 S
C1002 C1001 1.523 . S
H1003 C978 0.950 . S
H1004 C980 0.949 . S
H1005 C981 0.949 . S
H1006 C983 0.950 . S
H1007 C985 0.949 . S
C1008 C1009 1.349 . S
C1008 C1010 1.327 . S
C1008 H1033 0.950 . S
C1009 C1008 1.349 . S
C1009 C1025 1.349 . S
C1010 C1008 1.327 . S
C1010 C1029 1.429 . S
C1010 H1034 0.950 . S
C1011 C1028 1.574 . S
C1011 C1030 1.368 . S
C1011 H1035 0.949 . S
H1012 C1016 0.949 . S
C1013 C1014 1.349 . S
C1013 C1015 1.327 . S
C1013 H1036 0.950 . S
C1014 C1013 1.349 . S
C1014 C1026 1.349 . S
C1015 C1013 1.327 . S
C1015 C1031 1.429 . S
C1015 H1037 0.950 . S
C1016 H1012 0.949 . S
C1016 C1024 1.574 . S
C1016 C1032 1.368 . S
H1017 C1025 0.950 . S
H1018 C1023 0.950 . S
H1019 C1024 0.949 . S
H1020 C1026 0.950 . S
H1021 C1027 0.950 . S
H1022 C1028 0.949 . S
C1023 H1018 0.950 . S
C1023 C1025 1.327 . S
C1023 C1029 1.429 . S
C1024 C1016 1.574 . S
C1024 H1019 0.949 . S
C1024 C1030 1.368 . S
C1025 C1009 1.349 . S
C1025 H1017 0.950 . S
C1025 C1023 1.327 . S
C1026 C1014 1.349 . S
C1026 H1020 0.950 . S
C1026 C1027 1.327 . S
C1027 H1021 0.950 . S
C1027 C1026 1.327 . S
C1027 C1031 1.429 . S
C1028 C1011 1.574 . S
C1028 H1022 0.949 . S
C1028 C1032 1.368 . S
C1029 C1010 1.429 . S
C1029 C1023 1.429 . S
C1029 C1030 1.523 . S
C1030 C1011 1.368 . S
C1030 C1024 1.368 . S
C1030 C1029 1.523 . S
C1031 C1015 1.429 . S
C1031 C1027 1.429 . S
C1031 C1032 1.523 . S
C1032 C1016 1.368 . S
C1032 C1028 1.368 . S
C1032 C1031 1.523 . S
H1033 C1008 0.950 . S
H1034 C1010 0.950 . S
H1035 C1011 0.949 . S
H1036 C1013 0.950 . S
H1037 C1015 0.950 . S
C1038 C1039 1.349 . S
C1038 C1040 1.327 . S
C1038 H1063 0.950 . S
C1039 C1038 1.349 . S
C1039 C1055 1.349 . S
C1040 C1038 1.327 . S
C1040 C1059 1.429 . S
C1040 H1064 0.950 . S
C1041 C1058 1.574 . S
C1041 C1060 1.368 . S
C1041 H1065 0.949 . S
H1042 C1046 0.949 . S
C1043 C1044 1.349 . S
C1043 C1045 1.327 . S
C1043 H1066 0.950 . S
C1044 C1043 1.349 . S
C1044 C1056 1.349 . S
C1045 C1043 1.327 . S
C1045 C1061 1.429 . S
C1045 H1067 0.950 . S
C1046 H1042 0.949 . S
C1046 C1054 1.574 . S
C1046 C1062 1.368 . S
H1047 C1055 0.950 . S
H1048 C1053 0.950 . S
H1049 C1054 0.949 . S
H1050 C1056 0.950 . S
H1051 C1057 0.950 . S
H1052 C1058 0.949 . S
C1053 H1048 0.950 . S
C1053 C1055 1.327 . S
C1053 C1059 1.429 . S
C1054 C1046 1.574 . S
C1054 H1049 0.949 . S
C1054 C1060 1.368 . S
C1055 C1039 1.349 . S
C1055 H1047 0.950 . S
C1055 C1053 1.327 . S
C1056 C1044 1.349 . S
C1056 H1050 0.950 . S
C1056 C1057 1.327 . S
C1057 H1051 0.950 . S
C1057 C1056 1.327 . S
C1057 C1061 1.429 . S
C1058 C1041 1.574 . S
C1058 H1052 0.949 . S
C1058 C1062 1.368 . S
C1059 C1040 1.429 . S
C1059 C1053 1.429 . S
C1059 C1060 1.523 . S
C1060 C1041 1.368 . S
C1060 C1054 1.368 . S
C1060 C1059 1.523 . S
C1061 C1045 1.429 . S
C1061 C1057 1.429 . S
C1061 C1062 1.523 . S
C1062 C1046 1.368 . S
C1062 C1058 1.368 . S
C1062 C1061 1.523 . S
H1063 C1038 0.950 . S
H1064 C1040 0.950 . S
H1065 C1041 0.949 . S
H1066 C1043 0.950 . S
H1067 C1045 0.950 . S
C1068 C1069 1.349 . S
C1068 C1070 1.327 . S
C1068 H1093 0.950 . S
C1069 C1068 1.349 . S
C1069 C1085 1.349 . S
C1070 C1068 1.327 . S
C1070 C1089 1.429 . S
C1070 H1094 0.950 . S
C1071 C1088 1.574 . S
C1071 C1090 1.368 . S
C1071 H1095 0.949 . S
H1072 C1076 0.949 . S
C1073 C1074 1.349 . S
C1073 C1075 1.327 . S
C1073 H1096 0.950 . S
C1074 C1073 1.349 . S
C1074 C1086 1.349 . S
C1075 C1073 1.327 . S
C1075 C1091 1.429 . S
C1075 H1097 0.950 . S
C1076 H1072 0.949 . S
C1076 C1084 1.574 . S
C1076 C1092 1.368 . S
H1077 C1085 0.950 . S
H1078 C1083 0.950 . S
H1079 C1084 0.949 . S
H1080 C1086 0.950 . S
H1081 C1087 0.950 . S
H1082 C1088 0.949 . S
C1083 H1078 0.950 . S
C1083 C1085 1.327 . S
C1083 C1089 1.429 . S
C1084 C1076 1.574 . S
C1084 H1079 0.949 . S
C1084 C1090 1.368 . S
C1085 C1069 1.349 . S
C1085 H1077 0.950 . S
C1085 C1083 1.327 . S
C1086 C1074 1.349 . S
C1086 H1080 0.950 . S
C1086 C1087 1.327 . S
C1087 H1081 0.950 . S
C1087 C1086 1.327 . S
C1087 C1091 1.429 . S
C1088 C1071 1.574 . S
C1088 H1082 0.949 . S
C1088 C1092 1.368 . S
C1089 C1070 1.429 . S
C1089 C1083 1.429 . S
C1089 C1090 1.523 . S
C1090 C1071 1.368 . S
C1090 C1084 1.368 . S
C1090 C1089 1.523 . S
C1091 C1075 1.429 . S
C1091 C1087 1.429 . S
C1091 C1092 1.523 . S
C1092 C1076 1.368 . S
C1092 C1088 1.368 . S
C1092 C1091 1.523 . S
H1093 C1068 0.950 . S
H1094 C1070 0.950 . S
H1095 C1071 0.949 . S
H1096 C1073 0.950 . S
H1097 C1075 0.950 . S
C1098 C1099 1.349 . S
C1098 C1100 1.327 . S
C1098 H1123 0.950 . S
C1099 C1098 1.349 . S
C1099 C1115 1.349 . S
C1100 C1098 1.327 . S
C1100 C1119 1.429 . S
C1100 H1124 0.950 . S
C1101 C1118 1.574 . S
C1101 C1120 1.368 . S
C1101 H1125 0.949 . S
H1102 C1106 0.949 . S
C1103 C1104 1.349 . S
C1103 C1105 1.327 . S
C1103 H1126 0.950 . S
C1104 C1103 1.349 . S
C1104 C1116 1.349 . S
C1105 C1103 1.327 . S
C1105 C1121 1.429 . S
C1105 H1127 0.950 . S
C1106 H1102 0.949 . S
C1106 C1114 1.574 . S
C1106 C1122 1.368 . S
H1107 C1115 0.950 . S
H1108 C1113 0.950 . S
H1109 C1114 0.949 . S
H1110 C1116 0.950 . S
H1111 C1117 0.950 . S
H1112 C1118 0.949 . S
C1113 H1108 0.950 . S
C1113 C1115 1.327 . S
C1113 C1119 1.429 . S
C1114 C1106 1.574 . S
C1114 H1109 0.949 . S
C1114 C1120 1.368 . S
C1115 C1099 1.349 . S
C1115 H1107 0.950 . S
C1115 C1113 1.327 . S
C1116 C1104 1.349 . S
C1116 H1110 0.950 . S
C1116 C1117 1.327 . S
C1117 H1111 0.950 . S
C1117 C1116 1.327 . S
C1117 C1121 1.429 . S
C1118 C1101 1.574 . S
C1118 H1112 0.949 . S
C1118 C1122 1.368 . S
C1119 C1100 1.429 . S
C1119 C1113 1.429 . S
C1119 C1120 1.523 . S
C1120 C1101 1.368 . S
C1120 C1114 1.368 . S
C1120 C1119 1.523 . S
C1121 C1105 1.429 . S
C1121 C1117 1.429 . S
C1121 C1122 1.523 . S
C1122 C1106 1.368 . S
C1122 C1118 1.368 . S
C1122 C1121 1.523 . S
H1123 C1098 0.950 . S
H1124 C1100 0.950 . S
H1125 C1101 0.949 . S
H1126 C1103 0.950 . S
H1127 C1105 0.950 . S
C1128 C1129 1.349 . S
C1128 C1130 1.327 . S
C1128 H1153 0.950 . S
C1129 C1128 1.349 . S
C1129 C1145 1.349 . S
C1130 C1128 1.327 . S
C1130 C1149 1.429 . S
C1130 H1154 0.950 . S
C1131 C1148 1.574 . S
C1131 C1150 1.368 . S
C1131 H1155 0.949 . S
H1132 C1136 0.949 . S
C1133 C1134 1.349 . S
C1133 C1135 1.327 . S
C1133 H1156 0.950 . S
C1134 C1133 1.349 . S
C1134 C1146 1.349 . S
C1135 C1133 1.327 . S
C1135 C1151 1.429 . S
C1135 H1157 0.950 . S
C1136 H1132 0.949 . S
C1136 C1144 1.574 . S
C1136 C1152 1.368 . S
H1137 C1145 0.950 . S
H1138 C1143 0.950 . S
H1139 C1144 0.949 . S
H1140 C1146 0.950 . S
H1141 C1147 0.950 . S
H1142 C1148 0.949 . S
C1143 H1138 0.950 . S
C1143 C1145 1.327 . S
C1143 C1149 1.429 . S
C1144 C1136 1.574 . S
C1144 H1139 0.949 . S
C1144 C1150 1.368 . S
C1145 C1129 1.349 . S
C1145 H1137 0.950 . S
C1145 C1143 1.327 . S
C1146 C1134 1.349 . S
C1146 H1140 0.950 . S
C1146 C1147 1.327 . S
C1147 H1141 0.950 . S
C1147 C1146 1.327 . S
C1147 C1151 1.429 . S
C1148 C1131 1.574 . S
C1148 H1142 0.949 . S
C1148 C1152 1.368 . S
C1149 C1130 1.429 . S
C1149 C1143 1.429 . S
C1149 C1150 1.523 . S
C1150 C1131 1.368 . S
C1150 C1144 1.368 . S
C1150 C1149 1.523 . S
C1151 C1135 1.429 . S
C1151 C1147 1.429 . S
C1151 C1152 1.523 . S
C1152 C1136 1.368 . S
C1152 C1148 1.368 . S
C1152 C1151 1.523 . S
H1153 C1128 0.950 . S
H1154 C1130 0.950 . S
H1155 C1131 0.949 . S
H1156 C1133 0.950 . S
H1157 C1135 0.950 . S
C1158 C1159 1.349 . S
C1158 C1160 1.327 . S
C1158 H1183 0.950 . S
C1159 C1158 1.349 . S
C1159 C1175 1.349 . S
C1160 C1158 1.327 . S
C1160 C1179 1.429 . S
C1160 H1184 0.950 . S
C1161 C1178 1.574 . S
C1161 C1180 1.368 . S
C1161 H1185 0.949 . S
H1162 C1166 0.949 . S
C1163 C1164 1.349 . S
C1163 C1165 1.327 . S
C1163 H1186 0.950 . S
C1164 C1163 1.349 . S
C1164 C1176 1.349 . S
C1165 C1163 1.327 . S
C1165 C1181 1.429 . S
C1165 H1187 0.950 . S
C1166 H1162 0.949 . S
C1166 C1174 1.574 . S
C1166 C1182 1.368 . S
H1167 C1175 0.950 . S
H1168 C1173 0.950 . S
H1169 C1174 0.949 . S
H1170 C1176 0.950 . S
H1171 C1177 0.950 . S
H1172 C1178 0.949 . S
C1173 H1168 0.950 . S
C1173 C1175 1.327 . S
C1173 C1179 1.429 . S
C1174 C1166 1.574 . S
C1174 H1169 0.949 . S
C1174 C1180 1.368 . S
C1175 C1159 1.349 . S
C1175 H1167 0.950 . S
C1175 C1173 1.327 . S
C1176 C1164 1.349 . S
C1176 H1170 0.950 . S
C1176 C1177 1.327 . S
C1177 H1171 0.950 . S
C1177 C1176 1.327 . S
C1177 C1181 1.429 . S
C1178 C1161 1.574 . S
C1178 H1172 0.949 . S
C1178 C1182 1.368 . S
C1179 C1160 1.429 . S
C1179 C1173 1.429 . S
C1179 C1180 1.523 . S
C1180 C1161 1.368 . S
C1180 C1174 1.368 . S
C1180 C1179 1.523 . S
C1181 C1165 1.429 . S
C1181 C1177 1.429 . S
C1181 C1182 1.523 . S
C1182 C1166 1.368 . S
C1182 C1178 1.368 . S
C1182 C1181 1.523 . S
H1183 C1158 0.950 . S
H1184 C1160 0.950 . S
H1185 C1161 0.949 . S
H1186 C1163 0.950 . S
H1187 C1165 0.950 . S
C1188 C1189 1.349 . S
C1188 C1190 1.327 . S
C1188 H1213 0.950 . S
C1189 C1188 1.349 . S
C1189 C1205 1.349 . S
C1190 C1188 1.327 . S
C1190 C1209 1.429 . S
C1190 H1214 0.950 . S
C1191 C1208 1.574 . S
C1191 C1210 1.368 . S
C1191 H1215 0.949 . S
H1192 C1196 0.949 . S
C1193 C1194 1.349 . S
C1193 C1195 1.327 . S
C1193 H1216 0.950 . S
C1194 C1193 1.349 . S
C1194 C1206 1.349 . S
C1195 C1193 1.327 . S
C1195 C1211 1.429 . S
C1195 H1217 0.950 . S
C1196 H1192 0.949 . S
C1196 C1204 1.574 . S
C1196 C1212 1.368 . S
H1197 C1205 0.950 . S
H1198 C1203 0.950 . S
H1199 C1204 0.949 . S
H1200 C1206 0.950 . S
H1201 C1207 0.950 . S
H1202 C1208 0.949 . S
C1203 H1198 0.950 . S
C1203 C1205 1.327 . S
C1203 C1209 1.429 . S
C1204 C1196 1.574 . S
C1204 H1199 0.949 . S
C1204 C1210 1.368 . S
C1205 C1189 1.349 . S
C1205 H1197 0.950 . S
C1205 C1203 1.327 . S
C1206 C1194 1.349 . S
C1206 H1200 0.950 . S
C1206 C1207 1.327 . S
C1207 H1201 0.950 . S
C1207 C1206 1.327 . S
C1207 C1211 1.429 . S
C1208 C1191 1.574 . S
C1208 H1202 0.949 . S
C1208 C1212 1.368 . S
C1209 C1190 1.429 . S
C1209 C1203 1.429 . S
C1209 C1210 1.523 . S
C1210 C1191 1.368 . S
C1210 C1204 1.368 . S
C1210 C1209 1.523 . S
C1211 C1195 1.429 . S
C1211 C1207 1.429 . S
C1211 C1212 1.523 . S
C1212 C1196 1.368 . S
C1212 C1208 1.368 . S
C1212 C1211 1.523 . S
H1213 C1188 0.950 . S
H1214 C1190 0.950 . S
H1215 C1191 0.949 . S
H1216 C1193 0.950 . S
H1217 C1195 0.950 . S
C1218 C1219 1.349 . S
C1218 C1220 1.327 . S
C1218 H1243 0.950 . S
C1219 C1218 1.349 . S
C1219 C1235 1.349 . S
C1220 C1218 1.327 . S
C1220 C1239 1.429 . S
C1220 H1244 0.950 . S
C1221 C1238 1.574 . S
C1221 C1240 1.368 . S
C1221 H1245 0.949 . S
H1222 C1226 0.949 . S
C1223 C1224 1.349 . S
C1223 C1225 1.327 . S
C1223 H1246 0.950 . S
C1224 C1223 1.349 . S
C1224 C1236 1.349 . S
C1225 C1223 1.327 . S
C1225 C1241 1.429 . S
C1225 H1247 0.950 . S
C1226 H1222 0.949 . S
C1226 C1234 1.574 . S
C1226 C1242 1.368 . S
H1227 C1235 0.950 . S
H1228 C1233 0.950 . S
H1229 C1234 0.949 . S
H1230 C1236 0.950 . S
H1231 C1237 0.950 . S
H1232 C1238 0.949 . S
C1233 H1228 0.950 . S
C1233 C1235 1.327 . S
C1233 C1239 1.429 . S
C1234 C1226 1.574 . S
C1234 H1229 0.949 . S
C1234 C1240 1.368 . S
C1235 C1219 1.349 . S
C1235 H1227 0.950 . S
C1235 C1233 1.327 . S
C1236 C1224 1.349 . S
C1236 H1230 0.950 . S
C1236 C1237 1.327 . S
C1237 H1231 0.950 . S
C1237 C1236 1.327 . S
C1237 C1241 1.429 . S
C1238 C1221 1.574 . S
C1238 H1232 0.949 . S
C1238 C1242 1.368 . S
C1239 C1220 1.429 . S
C1239 C1233 1.429 . S
C1239 C1240 1.523 . S
C1240 C1221 1.368 . S
C1240 C1234 1.368 . S
C1240 C1239 1.523 . S
C1241 C1225 1.429 . S
C1241 C1237 1.429 . S
C1241 C1242 1.523 . S
C1242 C1226 1.368 . S
C1242 C1238 1.368 . S
C1242 C1241 1.523 . S
H1243 C1218 0.950 . S
H1244 C1220 0.950 . S
H1245 C1221 0.949 . S
H1246 C1223 0.950 . S
H1247 C1225 0.950 . S
C1248 C1249 1.349 . S
C1248 C1250 1.327 . S
C1248 H1273 0.950 . S
C1249 C1248 1.349 . S
C1249 C1265 1.349 . S
C1250 C1248 1.327 . S
C1250 C1269 1.429 . S
C1250 H1274 0.950 . S
C1251 C1268 1.574 . S
C1251 C1270 1.368 . S
C1251 H1275 0.949 . S
H1252 C1256 0.949 . S
C1253 C1254 1.349 . S
C1253 C1255 1.327 . S
C1253 H1276 0.950 . S
C1254 C1253 1.349 . S
C1254 C1266 1.349 . S
C1255 C1253 1.327 . S
C1255 C1271 1.429 . S
C1255 H1277 0.950 . S
C1256 H1252 0.949 . S
C1256 C1264 1.574 . S
C1256 C1272 1.368 . S
H1257 C1265 0.950 . S
H1258 C1263 0.950 . S
H1259 C1264 0.949 . S
H1260 C1266 0.950 . S
H1261 C1267 0.950 . S
H1262 C1268 0.949 . S
C1263 H1258 0.950 . S
C1263 C1265 1.327 . S
C1263 C1269 1.429 . S
C1264 C1256 1.574 . S
C1264 H1259 0.949 . S
C1264 C1270 1.368 . S
C1265 C1249 1.349 . S
C1265 H1257 0.950 . S
C1265 C1263 1.327 . S
C1266 C1254 1.349 . S
C1266 H1260 0.950 . S
C1266 C1267 1.327 . S
C1267 H1261 0.950 . S
C1267 C1266 1.327 . S
C1267 C1271 1.429 . S
C1268 C1251 1.574 . S
C1268 H1262 0.949 . S
C1268 C1272 1.368 . S
C1269 C1250 1.429 . S
C1269 C1263 1.429 . S
C1269 C1270 1.523 . S
C1270 C1251 1.368 . S
C1270 C1264 1.368 . S
C1270 C1269 1.523 . S
C1271 C1255 1.429 . S
C1271 C1267 1.429 . S
C1271 C1272 1.523 . S
C1272 C1256 1.368 . S
C1272 C1268 1.368 . S
C1272 C1271 1.523 . S
H1273 C1248 0.950 . S
H1274 C1250 0.950 . S
H1275 C1251 0.949 . S
H1276 C1253 0.950 . S
H1277 C1255 0.950 . S
C1278 C1279 1.349 . S
C1278 C1280 1.327 . S
C1278 H1303 0.950 . S
C1279 C1278 1.349 . S
C1279 C1295 1.349 . S
C1280 C1278 1.327 . S
C1280 C1299 1.429 . S
C1280 H1304 0.950 . S
C1281 C1298 1.574 . S
C1281 C1300 1.368 1_455 S
C1281 H1305 0.949 . S
H1282 C1286 0.949 . S
C1283 C1284 1.349 . S
C1283 C1285 1.327 . S
C1283 H1306 0.950 . S
C1284 C1283 1.349 . S
C1284 C1296 1.349 . S
C1285 C1283 1.327 . S
C1285 C1301 1.429 . S
C1285 H1307 0.950 . S
C1286 H1282 0.949 . S
C1286 C1294 1.574 . S
C1286 C1302 1.368 1_655 S
H1287 C1295 0.950 . S
H1288 C1293 0.950 . S
H1289 C1294 0.949 . S
H1290 C1296 0.950 . S
H1291 C1297 0.950 . S
H1292 C1298 0.949 . S
C1293 H1288 0.950 . S
C1293 C1295 1.327 . S
C1293 C1299 1.429 . S
C1294 C1286 1.574 . S
C1294 H1289 0.949 . S
C1294 C1300 1.368 . S
C1295 C1279 1.349 . S
C1295 H1287 0.950 . S
C1295 C1293 1.327 . S
C1296 C1284 1.349 . S
C1296 H1290 0.950 . S
C1296 C1297 1.327 . S
C1297 H1291 0.950 . S
C1297 C1296 1.327 . S
C1297 C1301 1.429 . S
C1298 C1281 1.574 . S
C1298 H1292 0.949 . S
C1298 C1302 1.368 . S
C1299 C1280 1.429 . S
C1299 C1293 1.429 . S
C1299 C1300 1.523 . S
C1300 C1281 1.368 1_655 S
C1300 C1294 1.368 . S
C1300 C1299 1.523 . S
C1301 C1285 1.429 . S
C1301 C1297 1.429 . S
C1301 C1302 1.523 . S
C1302 C1286 1.368 1_455 S
C1302 C1298 1.368 . S
C1302 C1301 1.523 . S
H1303 C1278 0.950 . S
H1304 C1280 0.950 . S
H1305 C1281 0.949 . S
H1306 C1283 0.950 . S
H1307 C1285 0.950 . S
C1308 C1309 1.349 . S
C1308 C1310 1.327 . S
C1308 H1333 0.950 . S
C1309 C1308 1.349 . S
C1309 C1325 1.349 . S
C1310 C1308 1.327 . S
C1310 C1329 1.429 . S
C1310 H1334 0.950 . S
C1311 C1328 1.574 . S
C1311 C1330 1.368 1_565 S
C1311 H1335 0.949 . S
H1312 C1316 0.949 . S
C1313 C1314 1.349 . S
C1313 C1315 1.327 . S
C1313 H1336 0.950 . S
C1314 C1313 1.349 . S
C1314 C1326 1.349 . S
C1315 C1313 1.327 . S
C1315 C1331 1.429 . S
C1315 H1337 0.950 . S
C1316 H1312 0.949 . S
C1316 C1324 1.574 . S
C1316 C1332 1.368 1_545 S
H1317 C1325 0.950 . S
H1318 C1323 0.950 . S
H1319 C1324 0.949 . S
H1320 C1326 0.950 . S
H1321 C1327 0.950 . S
H1322 C1328 0.949 . S
C1323 H1318 0.950 . S
C1323 C1325 1.327 . S
C1323 C1329 1.429 . S
C1324 C1316 1.574 . S
C1324 H1319 0.949 . S
C1324 C1330 1.368 . S
C1325 C1309 1.349 . S
C1325 H1317 0.950 . S
C1325 C1323 1.327 . S
C1326 C1314 1.349 . S
C1326 H1320 0.950 . S
C1326 C1327 1.327 . S
C1327 H1321 0.950 . S
C1327 C1326 1.327 . S
C1327 C1331 1.429 . S
C1328 C1311 1.574 . S
C1328 H1322 0.949 . S
C1328 C1332 1.368 . S
C1329 C1310 1.429 . S
C1329 C1323 1.429 . S
C1329 C1330 1.523 . S
C1330 C1311 1.368 1_545 S
C1330 C1324 1.368 . S
C1330 C1329 1.523 . S
C1331 C1315 1.429 . S
C1331 C1327 1.429 . S
C1331 C1332 1.523 . S
C1332 C1316 1.368 1_565 S
C1332 C1328 1.368 . S
C1332 C1331 1.523 . S
H1333 C1308 0.950 . S
H1334 C1310 0.950 . S
H1335 C1311 0.949 . S
H1336 C1313 0.950 . S
H1337 C1315 0.950 . S
C1338 C1339 1.349 . S
C1338 C1340 1.327 . S
C1338 H1363 0.950 . S
C1339 C1338 1.349 . S
C1339 C1355 1.349 . S
C1340 C1338 1.327 . S
C1340 C1359 1.429 . S
C1340 H1364 0.950 . S
C1341 C1358 1.574 . S
C1341 C1360 1.368 . S
C1341 H1365 0.949 . S
H1342 C1346 0.949 . S
C1343 C1344 1.349 . S
C1343 C1345 1.327 . S
C1343 H1366 0.950 . S
C1344 C1343 1.349 . S
C1344 C1356 1.349 . S
C1345 C1343 1.327 . S
C1345 C1361 1.429 . S
C1345 H1367 0.950 . S
C1346 H1342 0.949 . S
C1346 C1354 1.574 . S
C1346 C1362 1.368 . S
H1347 C1355 0.950 . S
H1348 C1353 0.950 . S
H1349 C1354 0.949 . S
H1350 C1356 0.950 . S
H1351 C1357 0.950 . S
H1352 C1358 0.949 . S
C1353 H1348 0.950 . S
C1353 C1355 1.327 . S
C1353 C1359 1.429 . S
C1354 C1346 1.574 . S
C1354 H1349 0.949 . S
C1354 C1360 1.368 . S
C1355 C1339 1.349 . S
C1355 H1347 0.950 . S
C1355 C1353 1.327 . S
C1356 C1344 1.349 . S
C1356 H1350 0.950 . S
C1356 C1357 1.327 . S
C1357 H1351 0.950 . S
C1357 C1356 1.327 . S
C1357 C1361 1.429 . S
C1358 C1341 1.574 . S
C1358 H1352 0.949 . S
C1358 C1362 1.368 . S
C1359 C1340 1.429 . S
C1359 C1353 1.429 . S
C1359 C1360 1.523 . S
C1360 C1341 1.368 . S
C1360 C1354 1.368 . S
C1360 C1359 1.523 . S
C1361 C1345 1.429 . S
C1361 C1357 1.429 . S
C1361 C1362 1.523 . S
C1362 C1346 1.368 . S
C1362 C1358 1.368 . S
C1362 C1361 1.523 . S
H1363 C1338 0.950 . S
H1364 C1340 0.950 . S
H1365 C1341 0.949 . S
H1366 C1343 0.950 . S
H1367 C1345 0.950 . S
C1368 C1369 1.349 . S
C1368 C1370 1.327 . S
C1368 H1393 0.950 . S
C1369 C1368 1.349 . S
C1369 C1385 1.349 . S
C1370 C1368 1.327 . S
C1370 C1389 1.429 . S
C1370 H1394 0.950 . S
C1371 C1388 1.574 . S
C1371 C1390 1.368 1_655 S
C1371 H1395 0.949 . S
H1372 C1376 0.949 . S
C1373 C1374 1.349 . S
C1373 C1375 1.327 . S
C1373 H1396 0.950 . S
C1374 C1373 1.349 . S
C1374 C1386 1.349 . S
C1375 C1373 1.327 . S
C1375 C1391 1.429 . S
C1375 H1397 0.950 . S
C1376 H1372 0.949 . S
C1376 C1384 1.574 . S
C1376 C1392 1.368 1_455 S
H1377 C1385 0.950 . S
H1378 C1383 0.950 . S
H1379 C1384 0.949 . S
H1380 C1386 0.950 . S
H1381 C1387 0.950 . S
H1382 C1388 0.949 . S
C1383 H1378 0.950 . S
C1383 C1385 1.327 . S
C1383 C1389 1.429 . S
C1384 C1376 1.574 . S
C1384 H1379 0.949 . S
C1384 C1390 1.368 . S
C1385 C1369 1.349 . S
C1385 H1377 0.950 . S
C1385 C1383 1.327 . S
C1386 C1374 1.349 . S
C1386 H1380 0.950 . S
C1386 C1387 1.327 . S
C1387 H1381 0.950 . S
C1387 C1386 1.327 . S
C1387 C1391 1.429 . S
C1388 C1371 1.574 . S
C1388 H1382 0.949 . S
C1388 C1392 1.368 . S
C1389 C1370 1.429 . S
C1389 C1383 1.429 . S
C1389 C1390 1.523 . S
C1390 C1371 1.368 1_455 S
C1390 C1384 1.368 . S
C1390 C1389 1.523 . S
C1391 C1375 1.429 . S
C1391 C1387 1.429 . S
C1391 C1392 1.523 . S
C1392 C1376 1.368 1_655 S
C1392 C1388 1.368 . S
C1392 C1391 1.523 . S
H1393 C1368 0.950 . S
H1394 C1370 0.950 . S
H1395 C1371 0.949 . S
H1396 C1373 0.950 . S
H1397 C1375 0.950 . S
C1398 C1399 1.349 . S
C1398 C1400 1.327 . S
C1398 H1423 0.950 . S
C1399 C1398 1.349 . S
C1399 C1415 1.349 . S
C1400 C1398 1.327 . S
C1400 C1419 1.429 . S
C1400 H1424 0.950 . S
C1401 C1418 1.574 . S
C1401 C1420 1.368 . S
C1401 H1425 0.949 . S
H1402 C1406 0.949 . S
C1403 C1404 1.349 . S
C1403 C1405 1.327 . S
C1403 H1426 0.950 . S
C1404 C1403 1.349 . S
C1404 C1416 1.349 . S
C1405 C1403 1.327 . S
C1405 C1421 1.429 . S
C1405 H1427 0.950 . S
C1406 H1402 0.949 . S
C1406 C1414 1.574 . S
C1406 C1422 1.368 . S
H1407 C1415 0.950 . S
H1408 C1413 0.950 . S
H1409 C1414 0.949 . S
H1410 C1416 0.950 . S
H1411 C1417 0.950 . S
H1412 C1418 0.949 . S
C1413 H1408 0.950 . S
C1413 C1415 1.327 . S
C1413 C1419 1.429 . S
C1414 C1406 1.574 . S
C1414 H1409 0.949 . S
C1414 C1420 1.368 1_545 S
C1415 C1399 1.349 . S
C1415 H1407 0.950 . S
C1415 C1413 1.327 . S
C1416 C1404 1.349 . S
C1416 H1410 0.950 . S
C1416 C1417 1.327 . S
C1417 H1411 0.950 . S
C1417 C1416 1.327 . S
C1417 C1421 1.429 . S
C1418 C1401 1.574 . S
C1418 H1412 0.949 . S
C1418 C1422 1.368 1_565 S
C1419 C1400 1.429 . S
C1419 C1413 1.429 . S
C1419 C1420 1.523 . S
C1420 C1401 1.368 . S
C1420 C1414 1.368 1_565 S
C1420 C1419 1.523 . S
C1421 C1405 1.429 . S
C1421 C1417 1.429 . S
C1421 C1422 1.523 . S
C1422 C1406 1.368 . S
C1422 C1418 1.368 1_545 S
C1422 C1421 1.523 . S
H1423 C1398 0.950 . S
H1424 C1400 0.950 . S
H1425 C1401 0.949 . S
H1426 C1403 0.950 . S
H1427 C1405 0.950 . S
C709 C446 1.550 . S
C714 C33 1.550 . S
C739 C92 1.550 . S
C744 C505 1.550 . S
C769 C151 1.550 . S
C774 C564 1.550 . S
C799 C210 1.550 . S
C804 C623 1.550 . S
C829 C682 1.550 . S
C834 C269 1.550 . S
C859 C387 1.550 . S
C864 C328 1.550 . S
C889 C642 1.721 . S
C894 C52 1.721 . S
C919 C111 1.721 . S
C924 C701 1.721 . S
C949 C170 1.721 . S
C954 C406 1.721 . S
C979 C465 1.721 . S
C984 C229 1.721 . S
C1009 C524 1.721 . S
C1014 C288 1.721 . S
C1039 C583 1.721 . S
C1044 C347 1.721 . S
C1069 C5 1.782 . S
C1074 C477 1.782 . S
C1099 C64 1.782 . S
C1104 C536 1.782 . S
C1129 C595 1.782 . S
C1134 C123 1.782 . S
C1159 C182 1.782 . S
C1164 C654 1.782 . S
C1189 C359 1.782 . S
C1194 C241 1.782 . S
C1219 C418 1.782 . S
C1224 C300 1.782 . S
C1249 C180 1.216 . S
C1254 C3 1.216 . S
C1279 C239 1.216 . S
C1284 C62 1.216 . S
C1309 C121 1.215 . S
C1314 C298 1.215 . S
C1339 C357 1.216 . S
C1344 C534 1.216 . S
C1369 C416 1.215 . S
C1374 C593 1.215 . S
C1399 C652 1.216 . S
C1404 C475 1.216 . S
