# Generated by pormake.
# Topology ukc, (4)-cn, num edge types: 1
# Building blocks:
#     Node 0, Type 0, BuildingBlock: QUQFOY_clean_sbu_3, # of connection points: 4
#     Node 1, Type 0, BuildingBlock: QUQFOY_clean_sbu_3, # of connection points: 4
#     Node 2, Type 0, BuildingBlock: QUQFOY_clean_sbu_3, # of connection points: 4
#     Node 3, Type 0, BuildingBlock: QUQFOY_clean_sbu_3, # of connection points: 4
#     Node 4, Type 0, BuildingBlock: QUQFOY_clean_sbu_3, # of connection points: 4
#     Node 5, Type 0, BuildingBlock: QUQFOY_clean_sbu_3, # of connection points: 4
#     Node 6, Type 0, BuildingBlock: QUQFOY_clean_sbu_3, # of connection points: 4
#     Node 7, Type 0, BuildingBlock: QUQFOY_clean_sbu_3, # of connection points: 4
#     Node 8, Type 0, BuildingBlock: QUQFOY_clean_sbu_3, # of connection points: 4
#     Node 9, Type 0, BuildingBlock: QUQFOY_clean_sbu_3, # of connection points: 4
#     Node 10, Type 0, BuildingBlock: QUQFOY_clean_sbu_3, # of connection points: 4
#     Node 11, Type 0, BuildingBlock: QUQFOY_clean_sbu_3, # of connection points: 4
#     Node 12, Type 0, BuildingBlock: QUQFOY_clean_sbu_3, # of connection points: 4
#     Node 13, Type 0, BuildingBlock: QUQFOY_clean_sbu_3, # of connection points: 4
#     Node 14, Type 0, BuildingBlock: QUQFOY_clean_sbu_3, # of connection points: 4
#     Node 15, Type 0, BuildingBlock: QUQFOY_clean_sbu_3, # of connection points: 4
#     Node 16, Type 0, BuildingBlock: QUQFOY_clean_sbu_3, # of connection points: 4
#     Node 17, Type 0, BuildingBlock: QUQFOY_clean_sbu_3, # of connection points: 4
#     Node 18, Type 0, BuildingBlock: QUQFOY_clean_sbu_3, # of connection points: 4
#     Node 19, Type 0, BuildingBlock: QUQFOY_clean_sbu_3, # of connection points: 4
#     Node 20, Type 0, BuildingBlock: QUQFOY_clean_sbu_3, # of connection points: 4
#     Node 21, Type 0, BuildingBlock: QUQFOY_clean_sbu_3, # of connection points: 4
#     Node 22, Type 0, BuildingBlock: QUQFOY_clean_sbu_3, # of connection points: 4
#     Node 23, Type 0, BuildingBlock: QUQFOY_clean_sbu_3, # of connection points: 4
#     Node 24, Type 0, BuildingBlock: QUQFOY_clean_sbu_3, # of connection points: 4
#     Node 25, Type 0, BuildingBlock: QUQFOY_clean_sbu_3, # of connection points: 4
#     Node 26, Type 0, BuildingBlock: QUQFOY_clean_sbu_3, # of connection points: 4
#     Node 27, Type 0, BuildingBlock: QUQFOY_clean_sbu_3, # of connection points: 4
#     Node 28, Type 0, BuildingBlock: QUQFOY_clean_sbu_3, # of connection points: 4
#     Node 29, Type 0, BuildingBlock: QUQFOY_clean_sbu_3, # of connection points: 4
#     Node 30, Type 0, BuildingBlock: QUQFOY_clean_sbu_3, # of connection points: 4
#     Node 31, Type 0, BuildingBlock: QUQFOY_clean_sbu_3, # of connection points: 4
#     Edge 32, Type (0, 0), BuildingBlock: TEMPAE_clean_linker_10, # of connection points: 2
#     Edge 33, Type (0, 0), BuildingBlock: TEMPAE_clean_linker_10, # of connection points: 2
#     Edge 34, Type (0, 0), BuildingBlock: TEMPAE_clean_linker_10, # of connection points: 2
#     Edge 35, Type (0, 0), BuildingBlock: TEMPAE_clean_linker_10, # of connection points: 2
#     Edge 36, Type (0, 0), BuildingBlock: TEMPAE_clean_linker_10, # of connection points: 2
#     Edge 37, Type (0, 0), BuildingBlock: TEMPAE_clean_linker_10, # of connection points: 2
#     Edge 38, Type (0, 0), BuildingBlock: TEMPAE_clean_linker_10, # of connection points: 2
#     Edge 39, Type (0, 0), BuildingBlock: TEMPAE_clean_linker_10, # of connection points: 2
#     Edge 40, Type (0, 0), BuildingBlock: TEMPAE_clean_linker_10, # of connection points: 2
#     Edge 41, Type (0, 0), BuildingBlock: TEMPAE_clean_linker_10, # of connection points: 2
#     Edge 42, Type (0, 0), BuildingBlock: TEMPAE_clean_linker_10, # of connection points: 2
#     Edge 43, Type (0, 0), BuildingBlock: TEMPAE_clean_linker_10, # of connection points: 2
#     Edge 44, Type (0, 0), BuildingBlock: TEMPAE_clean_linker_10, # of connection points: 2
#     Edge 45, Type (0, 0), BuildingBlock: TEMPAE_clean_linker_10, # of connection points: 2
#     Edge 46, Type (0, 0), BuildingBlock: TEMPAE_clean_linker_10, # of connection points: 2
#     Edge 47, Type (0, 0), BuildingBlock: TEMPAE_clean_linker_10, # of connection points: 2
#     Edge 48, Type (0, 0), BuildingBlock: TEMPAE_clean_linker_10, # of connection points: 2
#     Edge 49, Type (0, 0), BuildingBlock: TEMPAE_clean_linker_10, # of connection points: 2
#     Edge 50, Type (0, 0), BuildingBlock: TEMPAE_clean_linker_10, # of connection points: 2
#     Edge 51, Type (0, 0), BuildingBlock: TEMPAE_clean_linker_10, # of connection points: 2
#     Edge 52, Type (0, 0), BuildingBlock: TEMPAE_clean_linker_10, # of connection points: 2
#     Edge 53, Type (0, 0), BuildingBlock: TEMPAE_clean_linker_10, # of connection points: 2
#     Edge 54, Type (0, 0), BuildingBlock: TEMPAE_clean_linker_10, # of connection points: 2
#     Edge 55, Type (0, 0), BuildingBlock: TEMPAE_clean_linker_10, # of connection points: 2
#     Edge 56, Type (0, 0), BuildingBlock: TEMPAE_clean_linker_10, # of connection points: 2
#     Edge 57, Type (0, 0), BuildingBlock: TEMPAE_clean_linker_10, # of connection points: 2
#     Edge 58, Type (0, 0), BuildingBlock: TEMPAE_clean_linker_10, # of connection points: 2
#     Edge 59, Type (0, 0), BuildingBlock: TEMPAE_clean_linker_10, # of connection points: 2
#     Edge 60, Type (0, 0), BuildingBlock: TEMPAE_clean_linker_10, # of connection points: 2
#     Edge 61, Type (0, 0), BuildingBlock: TEMPAE_clean_linker_10, # of connection points: 2
#     Edge 62, Type (0, 0), BuildingBlock: TEMPAE_clean_linker_10, # of connection points: 2
#     Edge 63, Type (0, 0), BuildingBlock: TEMPAE_clean_linker_10, # of connection points: 2
#     Edge 64, Type (0, 0), BuildingBlock: TEMPAE_clean_linker_10, # of connection points: 2
#     Edge 65, Type (0, 0), BuildingBlock: TEMPAE_clean_linker_10, # of connection points: 2
#     Edge 66, Type (0, 0), BuildingBlock: TEMPAE_clean_linker_10, # of connection points: 2
#     Edge 67, Type (0, 0), BuildingBlock: TEMPAE_clean_linker_10, # of connection points: 2
#     Edge 68, Type (0, 0), BuildingBlock: TEMPAE_clean_linker_10, # of connection points: 2
#     Edge 69, Type (0, 0), BuildingBlock: TEMPAE_clean_linker_10, # of connection points: 2
#     Edge 70, Type (0, 0), BuildingBlock: TEMPAE_clean_linker_10, # of connection points: 2
#     Edge 71, Type (0, 0), BuildingBlock: TEMPAE_clean_linker_10, # of connection points: 2
#     Edge 72, Type (0, 0), BuildingBlock: TEMPAE_clean_linker_10, # of connection points: 2
#     Edge 73, Type (0, 0), BuildingBlock: TEMPAE_clean_linker_10, # of connection points: 2
#     Edge 74, Type (0, 0), BuildingBlock: TEMPAE_clean_linker_10, # of connection points: 2
#     Edge 75, Type (0, 0), BuildingBlock: TEMPAE_clean_linker_10, # of connection points: 2
#     Edge 76, Type (0, 0), BuildingBlock: TEMPAE_clean_linker_10, # of connection points: 2
#     Edge 77, Type (0, 0), BuildingBlock: TEMPAE_clean_linker_10, # of connection points: 2
#     Edge 78, Type (0, 0), BuildingBlock: TEMPAE_clean_linker_10, # of connection points: 2
#     Edge 79, Type (0, 0), BuildingBlock: TEMPAE_clean_linker_10, # of connection points: 2
#     Edge 80, Type (0, 0), BuildingBlock: TEMPAE_clean_linker_10, # of connection points: 2
#     Edge 81, Type (0, 0), BuildingBlock: TEMPAE_clean_linker_10, # of connection points: 2
#     Edge 82, Type (0, 0), BuildingBlock: TEMPAE_clean_linker_10, # of connection points: 2
#     Edge 83, Type (0, 0), BuildingBlock: TEMPAE_clean_linker_10, # of connection points: 2
#     Edge 84, Type (0, 0), BuildingBlock: TEMPAE_clean_linker_10, # of connection points: 2
#     Edge 85, Type (0, 0), BuildingBlock: TEMPAE_clean_linker_10, # of connection points: 2
#     Edge 86, Type (0, 0), BuildingBlock: TEMPAE_clean_linker_10, # of connection points: 2
#     Edge 87, Type (0, 0), BuildingBlock: TEMPAE_clean_linker_10, # of connection points: 2
#     Edge 88, Type (0, 0), BuildingBlock: TEMPAE_clean_linker_10, # of connection points: 2
#     Edge 89, Type (0, 0), BuildingBlock: TEMPAE_clean_linker_10, # of connection points: 2
#     Edge 90, Type (0, 0), BuildingBlock: TEMPAE_clean_linker_10, # of connection points: 2
#     Edge 91, Type (0, 0), BuildingBlock: TEMPAE_clean_linker_10, # of connection points: 2
#     Edge 92, Type (0, 0), BuildingBlock: TEMPAE_clean_linker_10, # of connection points: 2
#     Edge 93, Type (0, 0), BuildingBlock: TEMPAE_clean_linker_10, # of connection points: 2
#     Edge 94, Type (0, 0), BuildingBlock: TEMPAE_clean_linker_10, # of connection points: 2
#     Edge 95, Type (0, 0), BuildingBlock: TEMPAE_clean_linker_10, # of connection points: 2
# Relax obj value: 0.042
# Max RMSD: 0.063
# Mean RMSD: 0.063
data_MOF--net-ukc--node1-QUQFOY_clean_sbu_3--edge1-TEMPAE_clean_linker_10
_symmetry_space_group_name_H-M    P1
_symmetry_Int_Tables_number       1
_symmetry_cell_setting            triclinic
loop_
_symmetry_equiv_pos_as_xyz
'x, y, z'
_cell_length_a     46.635
_cell_length_b     46.644166
_cell_length_c     90.76649
_cell_angle_alpha  90.010546
_cell_angle_beta   89.990089
_cell_angle_gamma 89.996611
loop_
_atom_site_label
_atom_site_type_symbol
_atom_site_fract_x
_atom_site_fract_y
_atom_site_fract_z
_atom_type_partial_charge
C0 C 0.10247 0.39808 0.05774 0.0
O1 O 0.08103 0.41482 0.05754 0.0
Cd2 Cd 0.04866 0.41545 0.03729 0.0
O3 O 0.10943 0.38352 0.04642 0.0
Cd4 Cd 0.09614 0.37961 0.02008 0.0
C5 C 0.03879 0.3426 0.03156 0.0
O6 O 0.07802 0.42742 0.01665 0.0
O7 O 0.06558 0.39683 0.0 0.0
O8 O 0.14596 0.38765 0.01451 0.0
C9 C 0.0658 0.42259 0.00446 0.0
O10 O 0.02877 0.3664 0.03619 0.0
C11 C 0.14868 0.36656 0.00579 0.0
O12 O 0.0634 0.34125 0.02556 0.0
O13 O 0.12667 0.35099 0.00372 0.0
C14 C 0.82178 0.85745 0.31587 0.0
O15 O 0.8109 0.83256 0.31502 0.0
Cd16 Cd 0.81566 0.80222 0.29408 0.0
O17 O 0.83517 0.8683 0.30498 0.0
Cd18 Cd 0.84763 0.85572 0.27937 0.0
C19 C 0.8895 0.8025 0.29201 0.0
O20 O 0.80415 0.83071 0.273 0.0
O21 O 0.84013 0.82378 0.25848 0.0
O22 O 0.83594 0.90434 0.27236 0.0
C23 C 0.8138 0.81981 0.26123 0.0
O24 O 0.86649 0.78866 0.29463 0.0
C25 C 0.85869 0.90845 0.26497 0.0
O26 O 0.88872 0.82803 0.2871 0.0
O27 O 0.87669 0.88805 0.26451 0.0
C28 C 0.3953 0.59211 0.55959 0.0
O29 O 0.41657 0.57508 0.5599 0.0
Cd30 Cd 0.44267 0.55898 0.53884 0.0
O31 O 0.38417 0.60044 0.54749 0.0
Cd32 Cd 0.38841 0.59188 0.52064 0.0
C33 C 0.45334 0.62531 0.52258 0.0
O34 O 0.40421 0.54385 0.52372 0.0
O35 O 0.40296 0.55766 0.5012 0.0
O36 O 0.33654 0.5919 0.51896 0.0
C37 C 0.409 0.53808 0.51036 0.0
O38 O 0.46353 0.604 0.52966 0.0
C39 C 0.33554 0.60945 0.50825 0.0
O40 O 0.42732 0.62574 0.51838 0.0
O41 O 0.35927 0.61911 0.50349 0.0
C42 C 0.65072 0.14657 0.81668 0.0
O43 O 0.65908 0.1725 0.81716 0.0
Cd44 Cd 0.66637 0.20392 0.7968 0.0
O45 O 0.64538 0.13422 0.80445 0.0
Cd46 Cd 0.64601 0.14482 0.77776 0.0
C47 C 0.59766 0.19914 0.78279 0.0
O48 O 0.68851 0.17266 0.77978 0.0
O49 O 0.67167 0.16988 0.75778 0.0
O50 O 0.66059 0.09541 0.77392 0.0
C51 C 0.69049 0.17987 0.76642 0.0
O52 O 0.61726 0.21366 0.78911 0.0
C53 C 0.6424 0.09051 0.7638 0.0
O54 O 0.60239 0.17381 0.77811 0.0
O55 O 0.62552 0.11084 0.76041 0.0
C56 C 0.07621 0.56403 0.41671 0.0
O57 O 0.05106 0.55665 0.42049 0.0
Cd58 Cd 0.03185 0.56713 0.44436 0.0
O59 O 0.092 0.57869 0.42532 0.0
Cd60 Cd 0.0898 0.60063 0.44989 0.0
C61 C 0.03201 0.64013 0.44132 0.0
O62 O 0.07014 0.55893 0.4614 0.0
O63 O 0.06738 0.59743 0.47443 0.0
O64 O 0.14058 0.59081 0.4516 0.0
C65 C 0.06441 0.57047 0.47365 0.0
O66 O 0.01716 0.61767 0.44366 0.0
C67 C 0.14729 0.61485 0.45717 0.0
O68 O 0.05927 0.63934 0.44138 0.0
O69 O 0.12716 0.63283 0.45901 0.0
C70 C 0.65352 0.82935 0.66324 0.0
O71 O 0.66087 0.8033 0.66494 0.0
Cd72 Cd 0.66732 0.77791 0.68744 0.0
O73 O 0.64878 0.84562 0.67429 0.0
Cd74 Cd 0.64924 0.84258 0.70158 0.0
C75 C 0.59889 0.78906 0.70056 0.0
O76 O 0.69098 0.81342 0.70149 0.0
O77 O 0.6748 0.82235 0.72314 0.0
O78 O 0.66313 0.89299 0.703 0.0
C79 C 0.69325 0.80976 0.7152 0.0
O80 O 0.6177 0.77184 0.6955 0.0
C81 C 0.6441 0.89933 0.7125 0.0
O82 O 0.60496 0.81515 0.70322 0.0
O83 O 0.6274 0.87935 0.71658 0.0
C84 C 0.40684 0.39306 0.90802 0.0
O85 O 0.43062 0.40582 0.90995 0.0
Cd86 Cd 0.4552 0.40985 0.93299 0.0
O87 O 0.3927 0.38242 0.91873 0.0
Cd88 Cd 0.39402 0.37959 0.94594 0.0
C89 C 0.45476 0.33878 0.9439 0.0
O90 O 0.41643 0.4251 0.94794 0.0
O91 O 0.40791 0.40519 0.96881 0.0
O92 O 0.34232 0.38588 0.94577 0.0
C93 C 0.41863 0.42606 0.96179 0.0
O94 O 0.46881 0.36025 0.93904 0.0
C95 C 0.33735 0.36501 0.95441 0.0
O96 O 0.42817 0.34067 0.94688 0.0
O97 O 0.35885 0.35076 0.95891 0.0
C98 C 0.8314 0.14669 0.15542 0.0
O99 O 0.82519 0.17321 0.15594 0.0
Cd100 Cd 0.82768 0.20307 0.17733 0.0
O101 O 0.84044 0.13342 0.16678 0.0
Cd102 Cd 0.85148 0.14345 0.19281 0.0
C103 C 0.89966 0.19591 0.18406 0.0
O104 O 0.80924 0.17216 0.19596 0.0
O105 O 0.83466 0.16663 0.21558 0.0
O106 O 0.83973 0.09344 0.19729 0.0
C107 C 0.81279 0.17748 0.20948 0.0
O108 O 0.87898 0.21196 0.18008 0.0
C109 C 0.86132 0.08888 0.2055 0.0
O110 O 0.8952 0.17047 0.18855 0.0
O111 O 0.87846 0.10964 0.20754 0.0
C112 C 0.89608 0.61798 0.92144 0.0
O113 O 0.92253 0.61156 0.92063 0.0
Cd114 Cd 0.95402 0.60453 0.94103 0.0
O115 O 0.88383 0.62186 0.93383 0.0
Cd116 Cd 0.89517 0.62124 0.96046 0.0
C117 C 0.94727 0.67207 0.95625 0.0
O118 O 0.92352 0.57917 0.95734 0.0
O119 O 0.92058 0.59369 0.97978 0.0
O120 O 0.84579 0.60563 0.96246 0.0
C121 C 0.93048 0.57568 0.97065 0.0
O122 O 0.96224 0.65326 0.94958 0.0
C123 C 0.83973 0.62139 0.97344 0.0
O124 O 0.92214 0.66631 0.9609 0.0
O125 O 0.85956 0.63744 0.97835 0.0
C126 C 0.14661 0.14685 0.66502 0.0
O127 O 0.15659 0.17216 0.66588 0.0
Cd128 Cd 0.16546 0.19959 0.68738 0.0
O129 O 0.14017 0.13253 0.67656 0.0
Cd130 Cd 0.1407 0.13866 0.70382 0.0
C131 C 0.09601 0.19661 0.70036 0.0
O132 O 0.18481 0.16337 0.70255 0.0
O133 O 0.16909 0.15907 0.72462 0.0
O134 O 0.14931 0.08732 0.70621 0.0
C135 C 0.18816 0.1688 0.71603 0.0
O136 O 0.11649 0.211 0.69474 0.0
C137 C 0.13058 0.08371 0.71622 0.0
O138 O 0.09934 0.17057 0.70421 0.0
O139 O 0.11641 0.10563 0.72022 0.0
C140 C 0.59201 0.40199 0.41646 0.0
O141 O 0.56697 0.41202 0.41831 0.0
Cd142 Cd 0.54071 0.40678 0.44062 0.0
O143 O 0.60523 0.38966 0.42698 0.0
Cd144 Cd 0.59815 0.37826 0.45337 0.0
C145 C 0.54531 0.33303 0.44366 0.0
O146 O 0.57178 0.4204 0.46036 0.0
O147 O 0.56837 0.38472 0.47532 0.0
O148 O 0.64647 0.39458 0.45846 0.0
C149 C 0.56266 0.41068 0.47249 0.0
O150 O 0.53018 0.35529 0.44121 0.0
C151 C 0.65408 0.37227 0.46544 0.0
O152 O 0.57143 0.33511 0.44761 0.0
O153 O 0.63566 0.35234 0.46664 0.0
C154 C 0.34066 0.82994 0.17497 0.0
O155 O 0.3324 0.804 0.17573 0.0
Cd156 Cd 0.32691 0.77686 0.19783 0.0
O157 O 0.34708 0.84413 0.18653 0.0
Cd158 Cd 0.34931 0.83889 0.21363 0.0
C159 C 0.397 0.78355 0.20995 0.0
O160 O 0.3064 0.81176 0.21351 0.0
O161 O 0.3238 0.81842 0.23518 0.0
O162 O 0.33526 0.88891 0.21371 0.0
C163 C 0.30453 0.80726 0.22718 0.0
O164 O 0.3767 0.76839 0.20469 0.0
C165 C 0.35312 0.89659 0.2235 0.0
O166 O 0.39294 0.80959 0.2137 0.0
O167 O 0.36963 0.87733 0.22862 0.0
C168 C 0.90859 0.382 0.56732 0.0
O169 O 0.93454 0.39032 0.56688 0.0
Cd170 Cd 0.96142 0.40304 0.54551 0.0
O171 O 0.89393 0.37864 0.55558 0.0
Cd172 Cd 0.90093 0.38294 0.52862 0.0
C173 C 0.95863 0.33715 0.52879 0.0
O174 O 0.92521 0.42747 0.53203 0.0
O175 O 0.91984 0.41542 0.50938 0.0
O176 O 0.84943 0.39139 0.52715 0.0
C177 C 0.92924 0.43342 0.51864 0.0
O178 O 0.97356 0.35627 0.53523 0.0
C179 C 0.84565 0.37498 0.51614 0.0
O180 O 0.93235 0.34148 0.52573 0.0
O181 O 0.86758 0.36212 0.51113 0.0
C182 C 0.32363 0.15625 0.31619 0.0
O183 O 0.31627 0.1825 0.3161 0.0
Cd184 Cd 0.313 0.21274 0.29491 0.0
O185 O 0.33037 0.1432 0.30433 0.0
Cd186 Cd 0.33481 0.15175 0.27756 0.0
C187 C 0.3835 0.20557 0.2839 0.0
O188 O 0.29295 0.18063 0.27753 0.0
O189 O 0.31169 0.17487 0.25609 0.0
O190 O 0.32126 0.10176 0.27466 0.0
C191 C 0.29251 0.18652 0.26396 0.0
O192 O 0.36353 0.22097 0.28932 0.0
C193 C 0.34125 0.09581 0.26565 0.0
O194 O 0.37864 0.18022 0.27929 0.0
O195 O 0.35823 0.11602 0.26218 0.0
C196 C 0.58404 0.56968 0.07014 0.0
O197 O 0.55916 0.55915 0.06845 0.0
Cd198 Cd 0.53332 0.56174 0.04587 0.0
O199 O 0.59727 0.58114 0.05936 0.0
Cd200 Cd 0.59041 0.59028 0.03279 0.0
C201 C 0.53627 0.63502 0.04147 0.0
O202 O 0.5654 0.54659 0.02675 0.0
O203 O 0.56209 0.58063 0.01074 0.0
O204 O 0.64013 0.57733 0.02804 0.0
C205 C 0.55693 0.55483 0.0142 0.0
O206 O 0.52125 0.61289 0.04435 0.0
C207 C 0.64606 0.60012 0.02102 0.0
O208 O 0.5624 0.63279 0.03761 0.0
O209 O 0.62604 0.61835 0.01954 0.0
C210 C 0.14532 0.82509 0.81595 0.0
O211 O 0.15157 0.79905 0.81348 0.0
Cd212 Cd 0.14821 0.77751 0.78969 0.0
O213 O 0.13624 0.84121 0.80562 0.0
Cd214 Cd 0.125 0.83675 0.77918 0.0
C215 C 0.0761 0.78572 0.78565 0.0
O216 O 0.16799 0.81134 0.7727 0.0
O217 O 0.13412 0.80891 0.75659 0.0
O218 O 0.14075 0.88604 0.77593 0.0
C219 C 0.16018 0.80451 0.75984 0.0
O220 O 0.09701 0.76817 0.78599 0.0
C221 C 0.11979 0.89341 0.76785 0.0
O222 O 0.0803 0.81258 0.78472 0.0
O223 O 0.10078 0.87453 0.76537 0.0
C224 C 0.58212 0.87975 0.56311 0.0
O225 O 0.55568 0.88605 0.56193 0.0
Cd226 Cd 0.52892 0.8907 0.5396 0.0
O227 O 0.59741 0.8743 0.55179 0.0
Cd228 Cd 0.59206 0.8713 0.52475 0.0
C229 C 0.53784 0.82189 0.52694 0.0
O230 O 0.56376 0.91371 0.52465 0.0
O231 O 0.57275 0.89706 0.50306 0.0
O232 O 0.6429 0.88287 0.52296 0.0
C233 C 0.56047 0.91585 0.51091 0.0
O234 O 0.5211 0.84106 0.53203 0.0
C235 C 0.64809 0.86375 0.51333 0.0
O236 O 0.56392 0.82752 0.52401 0.0
O237 O 0.62728 0.84805 0.50932 0.0
C238 C 0.35067 0.35118 0.80442 0.0
O239 O 0.33427 0.32957 0.80348 0.0
Cd240 Cd 0.33275 0.30096 0.78177 0.0
O241 O 0.36393 0.36077 0.79318 0.0
Cd242 Cd 0.36546 0.35302 0.76621 0.0
C243 C 0.4055 0.29554 0.77401 0.0
O244 O 0.31878 0.33236 0.76242 0.0
O245 O 0.34984 0.32359 0.74544 0.0
O246 O 0.35371 0.40283 0.76221 0.0
C247 C 0.32428 0.32124 0.75003 0.0
O248 O 0.38236 0.28384 0.77848 0.0
C249 C 0.37442 0.40795 0.75353 0.0
O250 O 0.40572 0.32129 0.76938 0.0
O251 O 0.39153 0.38738 0.75086 0.0
C252 C 0.89299 0.07813 0.05949 0.0
O253 O 0.91897 0.07028 0.05846 0.0
Cd254 Cd 0.94761 0.07966 0.03732 0.0
O255 O 0.88049 0.0905 0.04876 0.0
Cd256 Cd 0.89028 0.10491 0.02306 0.0
C257 C 0.93801 0.15314 0.03534 0.0
O258 O 0.92013 0.06494 0.01644 0.0
O259 O 0.9227 0.10157 0.00197 0.0
O260 O 0.84353 0.08601 0.01689 0.0
C261 C 0.92965 0.07584 0.00465 0.0
O262 O 0.95443 0.13183 0.03784 0.0
C263 C 0.83552 0.10769 0.00952 0.0
O264 O 0.91259 0.14945 0.03058 0.0
O265 O 0.85302 0.12848 0.00856 0.0
C266 C 0.13304 0.63059 0.32009 0.0
O267 O 0.14497 0.65501 0.3208 0.0
Cd268 Cd 0.14796 0.68784 0.30081 0.0
O269 O 0.12184 0.62173 0.30813 0.0
Cd270 Cd 0.11551 0.63886 0.28264 0.0
C271 C 0.07584 0.69494 0.29431 0.0
O272 O 0.16256 0.65966 0.28006 0.0
O273 O 0.13211 0.67072 0.26309 0.0
O274 O 0.12359 0.58999 0.27494 0.0
C275 C 0.1576 0.67186 0.26787 0.0
O276 O 0.09902 0.70654 0.29873 0.0
C277 C 0.10196 0.58858 0.26649 0.0
O278 O 0.07583 0.66991 0.28875 0.0
O279 O 0.08626 0.61077 0.26559 0.0
C280 C 0.57689 0.07479 0.91181 0.0
O281 O 0.55051 0.06829 0.91301 0.0
Cd282 Cd 0.52367 0.06728 0.9355 0.0
O283 O 0.59169 0.08211 0.92301 0.0
Cd284 Cd 0.58649 0.08899 0.94979 0.0
C285 C 0.5326 0.13805 0.94505 0.0
O286 O 0.55801 0.04677 0.95176 0.0
O287 O 0.56728 0.0672 0.97248 0.0
O288 O 0.6374 0.07767 0.95144 0.0
C289 C 0.5548 0.04719 0.96557 0.0
O290 O 0.51597 0.11818 0.94061 0.0
C291 C 0.64293 0.09791 0.96038 0.0
O292 O 0.55849 0.13282 0.94855 0.0
O293 O 0.62222 0.11397 0.96417 0.0
C294 C 0.14974 0.3498 0.16106 0.0
O295 O 0.16639 0.32898 0.16383 0.0
Cd296 Cd 0.16369 0.30383 0.18673 0.0
O297 O 0.1334 0.36022 0.17094 0.0
Cd298 Cd 0.12374 0.35608 0.19756 0.0
C299 C 0.09033 0.29416 0.18987 0.0
O300 O 0.17026 0.3395 0.20537 0.0
O301 O 0.13579 0.33338 0.2209 0.0
O302 O 0.12819 0.40753 0.20011 0.0
C303 C 0.16229 0.33127 0.21802 0.0
O304 O 0.11487 0.28313 0.18733 0.0
C305 C 0.10462 0.41082 0.20692 0.0
O306 O 0.08773 0.32045 0.19331 0.0
O307 O 0.0896 0.38852 0.20913 0.0
C308 C 0.89531 0.90972 0.41218 0.0
O309 O 0.92161 0.9161 0.41365 0.0
Cd310 Cd 0.94773 0.90928 0.43607 0.0
O311 O 0.88152 0.89767 0.42257 0.0
Cd312 Cd 0.89118 0.8801 0.44759 0.0
C313 C 0.94453 0.83625 0.43736 0.0
O314 O 0.91594 0.92254 0.45555 0.0
O315 O 0.92076 0.88579 0.46973 0.0
O316 O 0.84196 0.89259 0.45317 0.0
C317 C 0.92479 0.91234 0.46762 0.0
O318 O 0.96049 0.85841 0.4374 0.0
C319 C 0.83642 0.86971 0.46018 0.0
O320 O 0.91753 0.83827 0.43908 0.0
O321 O 0.85632 0.85122 0.46107 0.0
C322 C 0.35035 0.67307 0.65887 0.0
O323 O 0.33725 0.69677 0.66044 0.0
Cd324 Cd 0.32803 0.71963 0.68354 0.0
O325 O 0.35856 0.6582 0.66988 0.0
Cd326 Cd 0.35582 0.65809 0.69711 0.0
C327 C 0.39627 0.71918 0.69838 0.0
O328 O 0.3096 0.67936 0.69643 0.0
O329 O 0.32441 0.66996 0.71829 0.0
O330 O 0.35083 0.60617 0.69602 0.0
C331 C 0.305 0.68032 0.71011 0.0
O332 O 0.37588 0.73337 0.69251 0.0
C333 C 0.36967 0.60131 0.70582 0.0
O334 O 0.39392 0.69245 0.70086 0.0
O335 O 0.38227 0.62293 0.71134 0.0
C336 C 0.39342 0.07972 0.41096 0.0
O337 O 0.41844 0.06907 0.41148 0.0
Cd338 Cd 0.44692 0.06832 0.43323 0.0
O339 O 0.38174 0.09024 0.42244 0.0
Cd340 Cd 0.3926 0.09695 0.44886 0.0
C341 C 0.44769 0.14079 0.44037 0.0
O342 O 0.41611 0.05153 0.4525 0.0
O343 O 0.42218 0.08274 0.46978 0.0
O344 O 0.34343 0.08393 0.45431 0.0
C345 C 0.42568 0.05733 0.4652 0.0
O346 O 0.46137 0.11848 0.43634 0.0
C347 C 0.33848 0.10517 0.46267 0.0
O348 O 0.42183 0.13917 0.44476 0.0
O349 O 0.35872 0.12307 0.46443 0.0
C350 C 0.64344 0.64553 0.16752 0.0
O351 O 0.65218 0.67137 0.16758 0.0
Cd352 Cd 0.66229 0.69967 0.189 0.0
O353 O 0.63824 0.63218 0.17948 0.0
Cd354 Cd 0.63894 0.63977 0.20636 0.0
C355 C 0.59471 0.69863 0.2043 0.0
O356 O 0.68326 0.66457 0.20458 0.0
O357 O 0.66851 0.65842 0.22678 0.0
O358 O 0.64845 0.58871 0.20777 0.0
C359 C 0.68709 0.66896 0.21816 0.0
O360 O 0.61471 0.71262 0.19799 0.0
C361 C 0.63023 0.58391 0.21788 0.0
O362 O 0.59799 0.67241 0.20788 0.0
O363 O 0.61584 0.60521 0.22252 0.0
C364 C 0.09586 0.89787 0.91585 0.0
O365 O 0.072 0.91109 0.91625 0.0
Cd366 Cd 0.04754 0.9301 0.93726 0.0
O367 O 0.10989 0.8924 0.92759 0.0
Cd368 Cd 0.10441 0.89933 0.95446 0.0
C369 C 0.03838 0.86581 0.95493 0.0
O370 O 0.08736 0.94681 0.95103 0.0
O371 O 0.09238 0.93501 0.97369 0.0
O372 O 0.15636 0.89912 0.95676 0.0
C373 C 0.08453 0.95366 0.96439 0.0
O374 O 0.027 0.88697 0.94826 0.0
C375 C 0.15667 0.88132 0.96738 0.0
O376 O 0.06512 0.86538 0.9578 0.0
O377 O 0.13265 0.87156 0.97165 0.0
C378 C 0.84321 0.33847 0.66931 0.0
O379 O 0.83137 0.31481 0.6726 0.0
Cd380 Cd 0.83004 0.2946 0.69665 0.0
O381 O 0.85528 0.35378 0.67917 0.0
Cd382 Cd 0.86364 0.3516 0.70611 0.0
C383 C 0.90245 0.29082 0.70275 0.0
O384 O 0.81725 0.3331 0.71279 0.0
O385 O 0.84966 0.33035 0.72962 0.0
O386 O 0.85703 0.40301 0.70893 0.0
C387 C 0.82366 0.32706 0.72598 0.0
O388 O 0.87912 0.27725 0.70057 0.0
C389 C 0.87973 0.40665 0.71645 0.0
O390 O 0.90266 0.31792 0.70424 0.0
O391 O 0.89551 0.38485 0.71849 0.0
C392 C 0.39961 0.89628 0.07585 0.0
O393 O 0.42486 0.90578 0.07402 0.0
Cd394 Cd 0.44974 0.90375 0.05116 0.0
O395 O 0.38565 0.88551 0.06512 0.0
Cd396 Cd 0.39264 0.87671 0.03852 0.0
C397 C 0.44682 0.83106 0.0455 0.0
O398 O 0.41699 0.92097 0.03279 0.0
O399 O 0.42008 0.88767 0.01635 0.0
O400 O 0.34334 0.89051 0.03373 0.0
C401 C 0.4245 0.91353 0.01995 0.0
O402 O 0.46216 0.85291 0.04846 0.0
C403 C 0.33728 0.86841 0.02618 0.0
O404 O 0.42043 0.83368 0.04226 0.0
O405 O 0.35686 0.84972 0.02474 0.0
C406 C 0.81647 0.64778 0.8222 0.0
O407 O 0.80564 0.67148 0.81814 0.0
Cd408 Cd 0.80814 0.69135 0.79381 0.0
O409 O 0.83051 0.63227 0.81317 0.0
Cd410 Cd 0.84582 0.63554 0.78731 0.0
C411 C 0.88085 0.69755 0.79302 0.0
O412 O 0.80151 0.65297 0.77685 0.0
O413 O 0.83907 0.65782 0.76331 0.0
O414 O 0.84243 0.58404 0.78359 0.0
C415 C 0.81214 0.66022 0.76457 0.0
O416 O 0.85697 0.71043 0.79141 0.0
C417 C 0.86705 0.58177 0.7777 0.0
O418 O 0.88228 0.67034 0.79363 0.0
O419 O 0.88221 0.60433 0.777 0.0
C420 C 0.08147 0.08634 0.56498 0.0
O421 O 0.05581 0.07758 0.56347 0.0
Cd422 Cd 0.03123 0.06825 0.54094 0.0
O423 O 0.09719 0.0921 0.55384 0.0
Cd424 Cd 0.09398 0.09224 0.52659 0.0
C425 C 0.03496 0.13657 0.52683 0.0
O426 O 0.06979 0.04772 0.52758 0.0
O427 O 0.07837 0.06193 0.50555 0.0
O428 O 0.14575 0.08487 0.52589 0.0
C429 C 0.06741 0.04322 0.51395 0.0
O430 O 0.01973 0.11648 0.53223 0.0
C431 C 0.15007 0.10353 0.51592 0.0
O432 O 0.06157 0.13302 0.52429 0.0
O433 O 0.12833 0.11714 0.51123 0.0
C434 C 0.64695 0.33206 0.31788 0.0
O435 O 0.65487 0.30606 0.31718 0.0
Cd436 Cd 0.65605 0.27935 0.29478 0.0
O437 O 0.63895 0.34542 0.30636 0.0
Cd438 Cd 0.63343 0.33556 0.27979 0.0
C439 C 0.58501 0.28303 0.28562 0.0
O440 O 0.67808 0.30987 0.27664 0.0
O441 O 0.64796 0.30669 0.25864 0.0
O442 O 0.649 0.38441 0.27516 0.0
C443 C 0.67291 0.30193 0.26358 0.0
O444 O 0.60584 0.26735 0.28978 0.0
C445 C 0.6282 0.39077 0.26676 0.0
O446 O 0.58897 0.30916 0.28219 0.0
O447 O 0.60962 0.37138 0.26448 0.0
C448 C 0.97035 0.54236 0.96465 0.0
C449 C 0.95085 0.55321 0.975 0.0
C450 C 0.99013 0.52113 0.96858 0.0
C451 C 0.98977 0.51003 0.98308 0.0
C452 C 0.96984 0.52065 -0.00649 0.0
C453 C 0.95083 0.54249 0.98939 0.0
C454 C 0.01161 0.51083 0.9573 0.0
C455 C 0.96848 0.50882 0.00899 0.0
C456 C 0.02258 0.4371 -0.00975 0.0
C457 C 0.04785 0.4447 -0.00241 0.0
C458 C 0.00351 0.45822 0.9853 0.0
C459 C 0.01043 0.48748 0.98741 0.0
C460 C 0.03663 0.49522 -0.00581 0.0
C461 C 0.05487 0.47367 -0.0006 0.0
C462 C 0.97545 0.44923 0.97838 0.0
C463 C 0.04507 0.52623 -0.00377 0.0
H464 H 0.97048 0.55086 0.95354 0.0
H465 H 0.93559 0.55081 -0.00266 0.0
H466 H 0.03372 0.51423 0.96147 0.0
H467 H 0.00898 0.48749 0.95542 0.0
H468 H 0.00935 0.5221 0.94658 0.0
H469 H 0.95097 0.51866 0.01557 0.0
H470 H 0.9651 0.48528 0.00863 0.0
H471 H 0.98911 0.51268 0.01473 0.0
H472 H 0.01707 0.41465 0.98898 0.0
H473 H 0.07456 0.47945 0.00503 0.0
H474 H 0.97302 0.45921 0.96737 0.0
H475 H 0.95735 0.45687 0.98528 0.0
H476 H 0.97372 0.42559 0.97717 0.0
H477 H 0.04359 0.53786 0.98559 0.0
H478 H 0.06721 0.52853 0.00059 0.0
H479 H 0.03005 0.53678 0.00401 0.0
C480 C 0.7175 0.68891 0.23818 0.0
C481 C 0.70889 0.68923 0.22342 0.0
C482 C 0.73663 0.70954 0.24356 0.0
C483 C 0.74665 0.73132 0.234 0.0
C484 C 0.73851 0.73134 0.21899 0.0
C485 C 0.71997 0.71001 0.21383 0.0
C486 C 0.74549 0.7085 0.25956 0.0
C487 C 0.74832 0.75461 0.20857 0.0
C488 C 0.76697 0.8004 0.25304 0.0
C489 C 0.79691 0.7986 0.25305 0.0
C490 C 0.75036 0.77907 0.24637 0.0
C491 C 0.76413 0.75508 0.23995 0.0
C492 C 0.79441 0.75339 0.23972 0.0
C493 C 0.81052 0.77546 0.24612 0.0
C494 C 0.71809 0.78191 0.24646 0.0
C495 C 0.80972 0.72778 0.23325 0.0
H496 H 0.70909 0.67266 0.24555 0.0
H497 H 0.71322 0.71031 0.2024 0.0
H498 H 0.76919 0.70964 0.26051 0.0
H499 H 0.73656 0.7273 0.26548 0.0
H500 H 0.73792 0.6887 0.26514 0.0
H501 H 0.74124 0.75066 0.19707 0.0
H502 H 0.73959 0.77557 0.21223 0.0
H503 H 0.77203 0.7564 0.20872 0.0
H504 H 0.75655 0.81843 0.25835 0.0
H505 H 0.83372 0.77398 0.24627 0.0
H506 H 0.70857 0.76463 0.25329 0.0
H507 H 0.70952 0.77944 0.23513 0.0
H508 H 0.71092 0.8029 0.25092 0.0
H509 H 0.80402 0.70824 0.23958 0.0
H510 H 0.8334 0.73033 0.23343 0.0
H511 H 0.80277 0.7242 0.22171 0.0
C512 C 0.51654 0.4117 0.48617 0.0
C513 C 0.54051 0.42626 0.48067 0.0
C514 C 0.4932 0.42689 0.49197 0.0
C515 C 0.49446 0.45717 0.49262 0.0
C516 C 0.51939 0.47178 0.48782 0.0
C517 C 0.54197 0.45613 0.48165 0.0
C518 C 0.46667 0.41072 0.49665 0.0
C519 C 0.52183 0.50403 0.48875 0.0
C520 C 0.42953 0.50541 0.49142 0.0
C521 C 0.42743 0.51382 0.50618 0.0
C522 C 0.45006 0.48525 0.487 0.0
C523 C 0.46933 0.47396 0.49757 0.0
C524 C 0.4663 0.48125 0.51261 0.0
C525 C 0.44504 0.50083 0.51677 0.0
C526 C 0.45213 0.47723 0.47092 0.0
C527 C 0.48679 0.47005 0.52414 0.0
H528 H 0.51537 0.38854 0.48519 0.0
H529 H 0.56064 0.46722 0.4774 0.0
H530 H 0.45988 0.41735 0.50785 0.0
H531 H 0.44879 0.4159 0.48903 0.0
H532 H 0.47002 0.38713 0.49658 0.0
H533 H 0.54363 0.51175 0.48581 0.0
H534 H 0.50616 0.5141 0.48116 0.0
H535 H 0.51667 0.51145 0.50006 0.0
H536 H 0.41565 0.5152 0.48326 0.0
H537 H 0.44338 0.50718 0.52822 0.0
H538 H 0.45396 0.45363 0.46967 0.0
H539 H 0.4717 0.48692 0.46607 0.0
H540 H 0.43326 0.48477 0.46453 0.0
H541 H 0.48924 0.44648 0.52319 0.0
H542 H 0.47963 0.47529 0.5355 0.0
H543 H 0.50827 0.47969 0.52237 0.0
C544 C 0.81548 0.28615 0.74288 0.0
C545 C 0.80437 0.30913 0.73476 0.0
C546 C 0.79716 0.26573 0.74912 0.0
C547 C 0.76716 0.26903 0.74754 0.0
C548 C 0.75585 0.2933 0.74021 0.0
C549 C 0.7747 0.31286 0.73365 0.0
C550 C 0.80996 0.23972 0.75655 0.0
C551 C 0.72393 0.29797 0.73876 0.0
C552 C 0.72036 0.20287 0.74713 0.0
C553 C 0.71061 0.20218 0.76169 0.0
C554 C 0.73929 0.22431 0.74245 0.0
C555 C 0.74772 0.24597 0.75249 0.0
C556 C 0.73761 0.24555 0.76717 0.0
C557 C 0.7195 0.22329 0.77167 0.0
C558 C 0.75032 0.22371 0.72681 0.0
C559 C 0.74549 0.26884 0.778 0.0
H560 H 0.83845 0.28315 0.74356 0.0
H561 H 0.76623 0.33078 0.72738 0.0
H562 H 0.8005 0.23668 0.76764 0.0
H563 H 0.80487 0.22027 0.75 0.0
H564 H 0.83362 0.24134 0.75768 0.0
H565 H 0.71875 0.31963 0.73443 0.0
H566 H 0.71476 0.28176 0.73116 0.0
H567 H 0.71325 0.2952 0.7496 0.0
H568 H 0.71351 0.18639 0.73947 0.0
H569 H 0.71169 0.22285 0.78292 0.0
H570 H 0.77412 0.22377 0.72679 0.0
H571 H 0.74318 0.24321 0.72085 0.0
H572 H 0.74275 0.20458 0.72064 0.0
H573 H 0.76908 0.26962 0.77949 0.0
H574 H 0.73532 0.26559 0.78895 0.0
H575 H 0.73875 0.29002 0.77364 0.0
C576 C 0.96553 0.47082 0.5246 0.0
C577 C 0.94749 0.45766 0.51424 0.0
C578 C 0.98504 0.49207 0.52029 0.0
C579 C 0.9861 0.50051 0.50535 0.0
C580 C 0.96684 0.48838 0.49502 0.0
C581 C 0.94791 0.46685 0.49958 0.0
C582 C 0.00549 0.5043 0.53155 0.0
C583 C 0.96705 0.49727 0.47901 0.0
C584 C 0.0242 0.5668 0.49153 0.0
C585 C 0.04792 0.55432 0.48459 0.0
C586 C 0.00444 0.54972 0.49919 0.0
C587 C 0.00909 0.51978 0.50007 0.0
C588 C 0.03446 0.50763 0.49422 0.0
C589 C 0.05342 0.52506 0.48636 0.0
C590 C 0.97753 0.56334 0.50522 0.0
C591 C 0.04053 0.47588 0.49527 0.0
H592 H 0.96523 0.46373 0.53597 0.0
H593 H 0.93373 0.4569 0.49161 0.0
H594 H 0.0275 0.49646 0.52924 0.0
H595 H 0.00604 0.52804 0.53085 0.0
H596 H -0.00036 0.49804 0.54297 0.0
H597 H 0.94886 0.48786 0.47276 0.0
H598 H 0.96599 0.52096 0.47808 0.0
H599 H 0.98736 0.49022 0.47378 0.0
H600 H 0.01992 0.58946 0.49004 0.0
H601 H 0.07196 0.51558 0.48103 0.0
H602 H 0.97259 0.55504 0.51638 0.0
H603 H 0.95917 0.55779 0.49798 0.0
H604 H 0.97929 0.58707 0.50575 0.0
H605 H 0.03704 0.46814 0.50669 0.0
H606 H 0.06282 0.47058 0.49192 0.0
H607 H 0.02555 0.46401 0.48799 0.0
C608 C 0.71979 0.78808 0.7362 0.0
C609 C 0.71252 0.78781 0.72125 0.0
C610 C 0.73714 0.7665 0.74217 0.0
C611 C 0.74671 0.74386 0.733 0.0
C612 C 0.73952 0.74357 0.71788 0.0
C613 C 0.72279 0.76582 0.71213 0.0
C614 C 0.74503 0.7678 0.7583 0.0
C615 C 0.74884 0.7194 0.70789 0.0
C616 C 0.8098 0.70094 0.747 0.0
C617 C 0.79584 0.67881 0.75458 0.0
C618 C 0.79406 0.72196 0.73954 0.0
C619 C 0.76378 0.72023 0.73939 0.0
C620 C 0.74971 0.69684 0.7462 0.0
C621 C 0.76595 0.67656 0.75392 0.0
C622 C 0.80972 0.7469 0.73262 0.0
C623 C 0.71747 0.69391 0.74587 0.0
H624 H 0.71196 0.8052 0.74321 0.0
H625 H 0.71705 0.7655 0.70056 0.0
H626 H 0.73578 0.74909 0.76416 0.0
H627 H 0.76866 0.76667 0.75959 0.0
H628 H 0.73717 0.78769 0.76369 0.0
H629 H 0.74169 0.72261 0.69633 0.0
H630 H 0.77253 0.71733 0.708 0.0
H631 H 0.73991 0.69883 0.71197 0.0
H632 H 0.83294 0.70281 0.74762 0.0
H633 H 0.75524 0.65932 0.75975 0.0
H634 H 0.80437 0.76689 0.73865 0.0
H635 H 0.80281 0.74989 0.72103 0.0
H636 H 0.83337 0.74399 0.73282 0.0
H637 H 0.7076 0.7112 0.75256 0.0
H638 H 0.71018 0.67293 0.75029 0.0
H639 H 0.70939 0.69628 0.73444 0.0
C640 C 0.43368 0.45352 0.98402 0.0
C641 C 0.4371 0.44733 0.96904 0.0
C642 C 0.45227 0.47263 -0.00884 0.0
C643 C 0.47526 0.48496 0.98317 0.0
C644 C 0.47859 0.47898 0.96799 0.0
C645 C 0.45915 0.46056 0.96105 0.0
C646 C 0.44761 0.47926 0.00726 0.0
C647 C 0.50329 0.49115 0.95923 0.0
C648 C 0.51399 0.55006 -0.00181 0.0
C649 C 0.53698 0.53723 0.0056 0.0
C650 C 0.49341 0.53326 -0.00902 0.0
C651 C 0.4966 0.50309 -0.00918 0.0
C652 C 0.52029 0.49014 -0.00205 0.0
C653 C 0.53997 0.5074 0.0055 0.0
C654 C 0.46795 0.54769 0.98386 0.0
C655 C 0.52484 0.45808 -0.00239 0.0
H656 H 0.41646 0.44343 -0.00985 0.0
H657 H 0.46189 0.45568 0.94946 0.0
H658 H 0.46571 0.47069 0.01385 0.0
H659 H 0.44705 0.5028 0.00901 0.0
H660 H 0.42735 0.46986 0.01152 0.0
H661 H 0.50253 0.4847 0.94745 0.0
H662 H 0.50323 0.51489 0.95984 0.0
H663 H 0.52389 0.48368 0.964 0.0
H664 H 0.51155 0.57317 -0.00153 0.0
H665 H 0.55786 0.49761 0.01124 0.0
H666 H 0.44781 0.53944 0.9888 0.0
H667 H 0.46727 0.54258 0.97194 0.0
H668 H 0.46847 0.57136 0.98518 0.0
H669 H 0.50675 0.44711 0.00319 0.0
H670 H 0.54513 0.4516 0.00309 0.0
H671 H 0.52528 0.45039 0.98604 0.0
C672 C 0.78058 0.21969 0.21028 0.0
C673 C 0.79315 0.19636 0.2175 0.0
C674 C 0.76174 0.23798 0.21775 0.0
C675 C 0.75459 0.232 0.23259 0.0
C676 C 0.76709 0.20826 0.23988 0.0
C677 C 0.78673 0.19098 0.2323 0.0
C678 C 0.74957 0.26369 0.2098 0.0
C679 C 0.75923 0.20077 0.25556 0.0
C680 C 0.72304 0.29007 0.25679 0.0
C681 C 0.69367 0.28463 0.25535 0.0
C682 C 0.74318 0.27346 0.24916 0.0
C683 C 0.73358 0.25029 0.24038 0.0
C684 C 0.7039 0.24453 0.23905 0.0
C685 C 0.6842 0.26217 0.24636 0.0
C686 C 0.77463 0.28078 0.25042 0.0
C687 C 0.69299 0.21946 0.23013 0.0
H688 H 0.78589 0.22391 0.19885 0.0
H689 H 0.79643 0.17275 0.23779 0.0
H690 H 0.72595 0.26161 0.20885 0.0
H691 H 0.75395 0.2835 0.21619 0.0
H692 H 0.75869 0.26623 0.19857 0.0
H693 H 0.77048 0.18124 0.25951 0.0
H694 H 0.76461 0.21882 0.26301 0.0
H695 H 0.73576 0.19717 0.25639 0.0
H696 H 0.7302 0.30761 0.26372 0.0
H697 H 0.66143 0.25788 0.24541 0.0
H698 H 0.78385 0.28426 0.23929 0.0
H699 H 0.78646 0.26267 0.25549 0.0
H700 H 0.77836 0.30031 0.25716 0.0
H701 H 0.6994 0.22188 0.21844 0.0
H702 H 0.66927 0.21738 0.23065 0.0
H703 H 0.70274 0.19926 0.23422 0.0
C704 C 0.31568 0.27443 0.73784 0.0
C705 C 0.30473 0.29991 0.74374 0.0
C706 C 0.29725 0.25232 0.73348 0.0
C707 C 0.26726 0.25632 0.73464 0.0
C708 C 0.25611 0.28244 0.74014 0.0
C709 C 0.27507 0.3038 0.74489 0.0
C710 C 0.30986 0.22444 0.72802 0.0
C711 C 0.22421 0.28775 0.74106 0.0
C712 C 0.22047 0.20971 0.71059 0.0
C713 C 0.20924 0.19027 0.72087 0.0
C714 C 0.23913 0.23154 0.71498 0.0
C715 C 0.24753 0.23328 0.72991 0.0
C716 C 0.23695 0.21321 0.74028 0.0
C717 C 0.21749 0.19212 0.73566 0.0
C718 C 0.24938 0.25305 0.7037 0.0
C719 C 0.24618 0.21403 0.75622 0.0
H720 H 0.33868 0.27131 0.73722 0.0
H721 H 0.26676 0.32357 0.74951 0.0
H722 H 0.30229 0.20646 0.73502 0.0
H723 H 0.30248 0.22005 0.71663 0.0
H724 H 0.33368 0.22462 0.7281 0.0
H725 H 0.21913 0.30975 0.74496 0.0
H726 H 0.21422 0.28455 0.73008 0.0
H727 H 0.21421 0.27213 0.74871 0.0
H728 H 0.2141 0.20838 0.69914 0.0
H729 H 0.20891 0.17696 0.74357 0.0
H730 H 0.27309 0.25239 0.70286 0.0
H731 H 0.24339 0.27504 0.70722 0.0
H732 H 0.24018 0.24905 0.6926 0.0
H733 H 0.26992 0.21313 0.75695 0.0
H734 H 0.23708 0.19599 0.7627 0.0
H735 H 0.23929 0.23448 0.76134 0.0
C736 C 0.17052 0.71523 0.25343 0.0
C737 C 0.17911 0.6907 0.26114 0.0
C738 C 0.19087 0.73458 0.24798 0.0
C739 C 0.22039 0.72867 0.24994 0.0
C740 C 0.22915 0.70347 0.25735 0.0
C741 C 0.20832 0.68495 0.26308 0.0
C742 C 0.18082 0.76161 0.2404 0.0
C743 C 0.26047 0.69609 0.25924 0.0
C744 C 0.27174 0.76586 0.22402 0.0
C745 C 0.28315 0.78727 0.23312 0.0
C746 C 0.25162 0.74629 0.22944 0.0
C747 C 0.24214 0.74884 0.24418 0.0
C748 C 0.25334 0.77065 0.25338 0.0
C749 C 0.27413 0.78942 0.24778 0.0
C750 C 0.24071 0.72279 0.21945 0.0
C751 C 0.24312 0.77435 0.26905 0.0
H752 H 0.14787 0.71978 0.25208 0.0
H753 H 0.21485 0.66586 0.269 0.0
H754 H 0.18943 0.78067 0.24624 0.0
H755 H 0.18911 0.76233 0.22896 0.0
H756 H 0.15706 0.76325 0.24005 0.0
H757 H 0.26361 0.67504 0.26473 0.0
H758 H 0.27124 0.69554 0.24834 0.0
H759 H 0.27128 0.71284 0.2659 0.0
H760 H 0.27892 0.76407 0.2127 0.0
H761 H 0.2829 0.80612 0.25476 0.0
H762 H 0.21721 0.72492 0.21795 0.0
H763 H 0.24468 0.70154 0.22456 0.0
H764 H 0.25109 0.72321 0.20844 0.0
H765 H 0.21953 0.77751 0.26921 0.0
H766 H 0.25344 0.7929 0.27461 0.0
H767 H 0.24776 0.75471 0.27551 0.0
C768 C 0.26533 0.20824 0.24322 0.0
C769 C 0.27323 0.20861 0.25808 0.0
C770 C 0.24692 0.22923 0.23753 0.0
C771 C 0.23706 0.25149 0.24686 0.0
C772 C 0.24541 0.25219 0.26183 0.0
C773 C 0.26307 0.23041 0.26733 0.0
C774 C 0.23781 0.22744 0.22158 0.0
C775 C 0.23596 0.27608 0.27196 0.0
C776 C 0.21089 0.31726 0.22657 0.0
C777 C 0.18118 0.31323 0.22704 0.0
C778 C 0.22939 0.29805 0.23366 0.0
C779 C 0.21777 0.27385 0.24092 0.0
C780 C 0.1877 0.27015 0.24178 0.0
C781 C 0.1697 0.2902 0.23499 0.0
C782 C 0.26134 0.30313 0.23296 0.0
C783 C 0.1746 0.24424 0.24915 0.0
H784 H 0.27314 0.19125 0.23612 0.0
H785 H 0.26942 0.23081 0.27881 0.0
H786 H 0.21407 0.22681 0.22084 0.0
H787 H 0.24511 0.24678 0.21555 0.0
H788 H 0.24662 0.20819 0.21597 0.0
H789 H 0.24516 0.27393 0.2832 0.0
H790 H 0.24256 0.29709 0.26734 0.0
H791 H 0.21225 0.27632 0.27286 0.0
H792 H 0.21967 0.33521 0.22045 0.0
H793 H 0.14668 0.28696 0.23522 0.0
H794 H 0.27154 0.28645 0.226 0.0
H795 H 0.27089 0.30145 0.24413 0.0
H796 H 0.26667 0.32449 0.2283 0.0
H797 H 0.18113 0.22455 0.24315 0.0
H798 H 0.1508 0.24523 0.24939 0.0
H799 H 0.18256 0.2422 0.26061 0.0
C800 C 0.16821 0.76465 0.74206 0.0
C801 C 0.17914 0.7873 0.75048 0.0
C802 C 0.18678 0.74596 0.7346 0.0
C803 C 0.21672 0.75074 0.73532 0.0
C804 C 0.22766 0.77446 0.74325 0.0
C805 C 0.20871 0.79222 0.75094 0.0
C806 C 0.17449 0.72048 0.72652 0.0
C807 C 0.25943 0.7807 0.74391 0.0
C808 C 0.27141 0.69164 0.73062 0.0
C809 C 0.28061 0.69643 0.71615 0.0
C810 C 0.24936 0.70819 0.73674 0.0
C811 C 0.23693 0.73048 0.72829 0.0
C812 C 0.24568 0.73491 0.71355 0.0
C813 C 0.26722 0.71754 0.70759 0.0
C814 C 0.24001 0.70245 0.75239 0.0
C815 C 0.23337 0.75891 0.70434 0.0
H816 H 0.14529 0.76076 0.74188 0.0
H817 H 0.21701 0.80989 0.75742 0.0
H818 H 0.18234 0.72001 0.71499 0.0
H819 H 0.18184 0.7004 0.73189 0.0
H820 H 0.15067 0.72065 0.7264 0.0
H821 H 0.26415 0.80126 0.7496 0.0
H822 H 0.2706 0.76319 0.74986 0.0
H823 H 0.26852 0.78161 0.73262 0.0
H824 H 0.2816 0.67509 0.73717 0.0
H825 H 0.27439 0.72129 0.69639 0.0
H826 H 0.21631 0.70079 0.75301 0.0
H827 H 0.24657 0.72057 0.75955 0.0
H828 H 0.24954 0.68243 0.75687 0.0
H829 H 0.20961 0.75797 0.70434 0.0
H830 H 0.24104 0.75819 0.69276 0.0
H831 H 0.2396 0.77985 0.70919 0.0
C832 C 0.54465 0.94666 0.49008 0.0
C833 C 0.54092 0.93717 0.50457 0.0
C834 C 0.52603 0.96703 0.484 0.0
C835 C 0.50276 0.97732 0.49252 0.0
C836 C 0.49878 0.96756 0.50712 0.0
C837 C 0.51822 0.94787 0.51306 0.0
C838 C 0.53126 0.97758 0.4685 0.0
C839 C 0.47374 0.97751 0.51636 0.0
C840 C 0.46709 0.04699 0.48158 0.0
C841 C 0.4443 0.03701 0.47295 0.0
C842 C 0.48646 0.02774 0.48799 0.0
C843 C 0.48226 -0.00206 0.48604 0.0
C844 C 0.45867 0.98777 0.47775 0.0
C845 C 0.44017 0.00752 0.47109 0.0
C846 C 0.51181 0.03928 0.49648 0.0
C847 C 0.4531 0.95609 0.47583 0.0
H848 H 0.56236 0.93845 0.48359 0.0
H849 H 0.51526 0.94031 0.52425 0.0
H850 H 0.5129 0.97174 0.46134 0.0
H851 H 0.53295 0.00132 0.46844 0.0
H852 H 0.55114 0.96847 0.46364 0.0
H853 H 0.47357 0.96751 0.52747 0.0
H854 H 0.4744 0.00113 0.51769 0.0
H855 H 0.45331 0.97219 0.51072 0.0
H856 H 0.47037 0.06987 0.48287 0.0
H857 H 0.42239 -9e-05 0.46446 0.0
H858 H 0.53204 0.03191 0.49127 0.0
H859 H 0.51161 0.03088 0.50791 0.0
H860 H 0.51197 0.06308 0.49693 0.0
H861 H 0.47107 0.94607 0.46971 0.0
H862 H 0.43286 0.9518 0.46976 0.0
H863 H 0.45191 0.94546 0.48675 0.0
C864 C 0.06597 0.98719 0.98346 0.0
C865 C 0.06647 0.97805 0.96878 0.0
C866 C 0.04553 0.00711 0.98826 0.0
C867 C 0.02481 0.01742 0.97817 0.0
C868 C 0.0264 0.00968 0.96313 0.0
C869 C 0.04753 0.99031 0.95857 0.0
C870 C 0.04495 0.01562 0.00431 0.0
C871 C 0.00442 0.01991 0.95211 0.0
C872 C 0.95275 0.0315 -0.00437 0.0
C873 C 0.95251 0.06141 -0.00358 0.0
C874 C 0.97575 0.01702 0.98914 0.0
C875 C -0.00063 0.03293 0.98374 0.0
C876 C -0.00102 0.06324 0.98424 0.0
C877 C 0.97525 0.07721 -0.00957 0.0
C878 C 0.97508 0.98465 0.98843 0.0
C879 C 0.02412 0.08078 0.97889 0.0
H880 H 0.0809 0.97802 -0.00869 0.0
H881 H 0.04799 0.98342 0.94717 0.0
H882 H 0.042 0.03912 0.00544 0.0
H883 H 0.02656 0.00505 0.00984 0.0
H884 H 0.06493 0.0093 0.01013 0.0
H885 H 0.01082 0.01501 0.94059 0.0
H886 H 0.98361 0.00922 0.95436 0.0
H887 H 0.00091 0.04333 0.95314 0.0
H888 H 0.93502 0.01941 0.00024 0.0
H889 H 0.97511 0.1004 -0.00877 0.0
H890 H 0.99216 0.97566 -0.00443 0.0
H891 H 0.97936 0.97728 0.97701 0.0
H892 H 0.95415 0.97574 -0.00794 0.0
H893 H 0.04294 0.07669 0.98606 0.0
H894 H 0.01947 0.10414 0.97898 0.0
H895 H 0.03021 0.07436 0.96755 0.0
C896 C 0.51202 0.01559 0.96542 0.0
C897 C 0.53553 0.02703 0.97301 0.0
C898 C 0.49285 -0.00296 0.97248 0.0
C899 C 0.49799 0.98915 0.98729 0.0
C900 C 0.52208 0.00019 -0.0051 0.0
C901 C 0.54037 0.01945 0.9877 0.0
C902 C 0.46689 0.98631 0.9642 0.0
C903 C 0.52859 0.99159 0.01059 0.0
C904 C 0.43794 0.96232 0.01162 0.0
C905 C 0.44193 0.93264 0.01078 0.0
C906 C 0.45545 0.98099 0.00357 0.0
C907 C 0.47799 0.96958 -0.00507 0.0
C908 C 0.48196 0.93956 -0.00603 0.0
C909 C 0.46351 0.92136 0.00176 0.0
C910 C 0.45008 0.01288 0.00447 0.0
C911 C 0.50625 0.92675 0.98515 0.0
H912 H 0.50821 0.02173 0.95407 0.0
H913 H 0.55872 0.02824 -0.00651 0.0
H914 H 0.46718 0.96256 0.96364 0.0
H915 H 0.44706 -0.00742 0.97015 0.0
H916 H 0.46581 -0.00509 0.9528 0.0
H917 H 0.54897 0.00105 0.01465 0.0
H918 H 0.51094 -0.00142 0.01795 0.0
H919 H 0.53006 0.9679 0.01142 0.0
H920 H 0.42105 0.97091 0.01855 0.0
H921 H 0.46669 0.89835 0.00125 0.0
H922 H 0.44807 0.02204 -0.00676 0.0
H923 H 0.46853 0.0236 0.00986 0.0
H924 H 0.43034 0.01805 0.01079 0.0
H925 H 0.50496 0.93384 0.97351 0.0
H926 H 0.50613 0.90294 0.98542 0.0
H927 H 0.52707 0.93443 0.98958 0.0
C928 C 0.04973 0.01229 0.49352 0.0
C929 C 0.0486 0.02043 0.50834 0.0
C930 C 0.03038 0.99211 0.48789 0.0
C931 C 0.0091 0.98047 0.49728 0.0
C932 C 0.00842 0.98799 0.51236 0.0
C933 C 0.02844 0.00769 0.51775 0.0
C934 C 0.03206 0.98401 0.47181 0.0
C935 C 0.98568 0.97641 0.52261 0.0
C936 C 0.94131 0.95882 0.47754 0.0
C937 C 0.94444 0.92904 0.47682 0.0
C938 C 0.96169 0.97571 0.48476 0.0
C939 C 0.9861 0.96242 0.49101 0.0
C940 C 0.98897 0.93223 0.49068 0.0
C941 C 0.9678 0.91578 0.48371 0.0
C942 C 0.95755 0.00782 0.48527 0.0
C943 C 0.01502 0.91748 0.49702 0.0
H944 H 0.06553 0.02194 0.48629 0.0
H945 H 0.02753 0.01398 0.52924 0.0
H946 H 0.03192 0.96034 0.47056 0.0
H947 H 0.013 0.99244 0.46591 0.0
H948 H 0.05161 -0.00734 0.46641 0.0
H949 H 0.98948 0.98272 0.53425 0.0
H950 H 0.96436 0.98463 0.51919 0.0
H951 H 0.98479 0.95269 0.52196 0.0
H952 H 0.92309 0.96894 0.47224 0.0
H953 H 0.97029 0.89271 0.48299 0.0
H954 H 0.97441 0.01849 0.47862 0.0
H955 H 0.95969 0.0157 0.49676 0.0
H956 H 0.93626 0.01444 0.48096 0.0
H957 H 0.03432 0.92378 0.49064 0.0
H958 H 0.01305 0.89375 0.49672 0.0
H959 H 0.01856 0.92431 0.50858 0.0
C960 C 0.93664 0.20542 0.02948 0.0
C961 C 0.94929 0.18253 0.0371 0.0
C962 C 0.94915 0.23275 0.02959 0.0
C963 C 0.97462 0.23734 0.03773 0.0
C964 C 0.98648 0.21477 0.04619 0.0
C965 C 0.97382 0.18753 0.04565 0.0
C966 C 0.93609 0.2562 0.02029 0.0
C967 C 0.01329 0.21903 0.05525 0.0
C968 C 0.02737 0.29271 0.02381 0.0
C969 C 0.02175 0.31608 0.03307 0.0
C970 C 0.01185 0.26716 0.02511 0.0
C971 C 0.99053 0.26472 0.03614 0.0
C972 C 0.98475 0.28819 0.04557 0.0
C973 C 0.00027 0.31378 0.04382 0.0
C974 C 0.01831 0.24274 0.01468 0.0
C975 C 0.96253 0.28611 0.05762 0.0
H976 H 0.91768 0.20168 0.02283 0.0
H977 H 0.98348 0.16999 0.05171 0.0
H978 H 0.93345 0.27609 0.02685 0.0
H979 H 0.95068 0.26128 0.01099 0.0
H980 H 0.91489 0.24996 0.01572 0.0
H981 H 0.0177 0.20048 0.06258 0.0
H982 H 0.03195 0.222 0.04782 0.0
H983 H 0.01143 0.23865 0.0621 0.0
H984 H 0.0438 0.29447 0.01541 0.0
H985 H -0.004 0.33176 0.05107 0.0
H986 H -0.0015 0.23624 0.00879 0.0
H987 H 0.02595 0.22384 0.02096 0.0
H988 H 0.03487 0.2485 0.00639 0.0
H989 H 0.94132 0.28071 0.05285 0.0
H990 H 0.96051 0.30637 0.06397 0.0
H991 H 0.96829 0.26857 0.06533 0.0
C992 C 0.02576 0.70371 0.28596 0.0
C993 C 0.04861 0.71093 0.29527 0.0
C994 C 5e-05 0.71919 0.28631 0.0
C995 C -0.00307 0.74205 0.29643 0.0
C996 C 0.01966 0.74904 0.30612 0.0
C997 C 0.04542 0.73356 0.30531 0.0
C998 C 0.97644 0.71144 0.27562 0.0
C999 C 0.01681 0.77291 0.31726 0.0
C1000 C 0.94162 0.79809 0.28637 0.0
C1001 C 0.9175 0.78834 0.29411 0.0
C1002 C 0.96786 0.7836 0.28732 0.0
C1003 C 0.97013 0.75913 0.29646 0.0
C1004 C 0.9462 0.74991 0.3048 0.0
C1005 C 0.92003 0.76446 0.30339 0.0
C1006 C -0.0072 0.79377 0.27807 0.0
C1007 C 0.94806 0.72426 0.3149 0.0
H1008 H 0.0282 0.68633 0.27813 0.0
H1009 H 0.06298 0.73903 0.31261 0.0
H1010 H 0.9566 0.7059 0.28172 0.0
H1011 H 0.97143 0.73014 0.26852 0.0
H1012 H 0.98232 0.69305 0.26845 0.0
H1013 H 0.03592 0.77463 0.32451 0.0
H1014 H 0.01377 0.79367 0.31151 0.0
H1015 H -0.00242 0.76935 0.32423 0.0
H1016 H 0.93973 0.81649 0.27914 0.0
H1017 H 0.90149 0.75704 0.30952 0.0
H1018 H -0.00142 0.77698 0.26993 0.0
H1019 H 0.01189 0.79745 0.2851 0.0
H1020 H 0.98786 0.81389 0.27203 0.0
H1021 H 0.95132 0.70452 0.30829 0.0
H1022 H 0.92838 0.72155 0.32166 0.0
H1023 H 0.96675 0.72639 0.32239 0.0
C1024 C 0.49323 0.65753 0.5304 0.0
C1025 C 0.47081 0.65141 0.52061 0.0
C1026 C 0.50648 0.68453 0.53039 0.0
C1027 C 0.49736 0.70558 0.52018 0.0
C1028 C 0.47624 0.69875 0.50956 0.0
C1029 C 0.46302 0.6718 0.50999 0.0
C1030 C 0.52878 0.69112 0.54197 0.0
C1031 C 0.46642 0.72045 0.4983 0.0
C1032 C 0.50201 0.78336 0.53189 0.0
C1033 C 0.52713 0.79237 0.5248 0.0
C1034 C 0.49221 0.75511 0.5305 0.0
C1035 C 0.50767 0.73553 0.5216 0.0
C1036 C 0.53277 0.74458 0.5142 0.0
C1037 C 0.54235 0.77288 0.51599 0.0
C1038 C 0.46549 0.74612 0.53871 0.0
C1039 C 0.54946 0.72439 0.50442 0.0
H1040 H 0.49927 0.64187 0.53866 0.0
H1041 H 0.44589 0.66702 0.50229 0.0
H1042 H 0.54799 0.70102 0.53688 0.0
H1043 H 0.51992 0.70683 0.54995 0.0
H1044 H 0.53551 0.67166 0.54811 0.0
H1045 H 0.45266 0.71064 0.48967 0.0
H1046 H 0.45398 0.73761 0.50386 0.0
H1047 H 0.48512 0.73075 0.49291 0.0
H1048 H 0.49026 0.79826 0.5388 0.0
H1049 H 0.56171 0.77977 0.51041 0.0
H1050 H 0.47047 0.72796 0.54618 0.0
H1051 H 0.44899 0.73857 0.53081 0.0
H1052 H 0.45623 0.76386 0.54535 0.0
H1053 H 0.55727 0.70587 0.51095 0.0
H1054 H 0.56816 0.735 0.49915 0.0
H1055 H 0.5353 0.71574 0.49566 0.0
C1056 C 0.54913 0.2005 0.77103 0.0
C1057 C 0.56879 0.21181 0.78117 0.0
C1058 C 0.52181 0.21269 0.76934 0.0
C1059 C 0.51391 0.23641 0.77819 0.0
C1060 C 0.53349 0.24759 0.78861 0.0
C1061 C 0.56078 0.2353 0.78989 0.0
C1062 C 0.50158 0.2005 0.75797 0.0
C1063 C 0.52566 0.27261 0.79839 0.0
C1064 C 0.45614 0.28824 0.76597 0.0
C1065 C 0.43265 0.27925 0.77444 0.0
C1066 C 0.48245 0.27382 0.76671 0.0
C1067 C 0.48546 0.25015 0.77633 0.0
C1068 C 0.46171 0.24066 0.78473 0.0
C1069 C 0.43548 0.2552 0.78359 0.0
C1070 C 0.5072 0.28428 0.75742 0.0
C1071 C 0.46428 0.21573 0.79527 0.0
H1072 H 0.55525 0.1824 0.76422 0.0
H1073 H 0.57577 0.24397 0.79786 0.0
H1074 H 0.48124 0.19379 0.76328 0.0
H1075 H 0.49614 0.21724 0.74974 0.0
H1076 H 0.51088 0.18178 0.7521 0.0
H1077 H 0.54295 0.278 0.80634 0.0
H1078 H 0.52119 0.2918 0.79155 0.0
H1079 H 0.50583 0.26769 0.80466 0.0
H1080 H 0.45399 0.30665 0.75877 0.0
H1081 H 0.41741 0.24823 0.7902 0.0
H1082 H 0.51623 0.26633 0.75087 0.0
H1083 H 0.52457 0.29241 0.76465 0.0
H1084 H 0.50077 0.30172 0.74976 0.0
H1085 H 0.47249 0.19653 0.78942 0.0
H1086 H 0.44346 0.21024 0.80051 0.0
H1087 H 0.47995 0.22103 0.80406 0.0
C1088 C 0.94423 0.78592 0.42815 0.0
C1089 C 0.95766 0.80767 0.43624 0.0
C1090 C 0.956 0.75825 0.42757 0.0
C1091 C 0.98105 0.75207 0.43579 0.0
C1092 C -0.00534 0.77406 0.44397 0.0
C1093 C 0.98306 0.80178 0.44386 0.0
C1094 C 0.94155 0.73561 0.41828 0.0
C1095 C 0.0209 0.76812 0.45324 0.0
C1096 C -0.00571 0.67545 0.44798 0.0
C1097 C 0.01756 0.66779 0.43908 0.0
C1098 C 0.98198 0.70281 0.44693 0.0
C1099 C 0.99257 0.72242 0.43633 0.0
C1100 C 0.01519 0.71419 0.42682 0.0
C1101 C 0.02785 0.68712 0.42853 0.0
C1102 C 0.95852 0.71112 0.45758 0.0
C1103 C 0.0263 0.73412 0.41502 0.0
H1104 H 0.92465 0.79064 0.42218 0.0
H1105 H -0.00677 0.81862 0.45023 0.0
H1106 H 0.95738 0.72549 0.41078 0.0
H1107 H 0.93285 0.71845 0.42546 0.0
H1108 H 0.92371 0.74453 0.41159 0.0
H1109 H 0.02863 0.78754 0.45911 0.0
H1110 H 0.01594 0.75131 0.46152 0.0
H1111 H 0.03852 0.75985 0.44623 0.0
H1112 H 0.98657 0.66049 0.45622 0.0
H1113 H 0.04573 0.68097 0.42157 0.0
H1114 H 0.9391 0.71799 0.45148 0.0
H1115 H 0.96565 0.7296 0.46435 0.0
H1116 H 0.95257 0.69325 0.46507 0.0
H1117 H 0.00825 0.74251 0.40833 0.0
H1118 H 0.04186 0.72337 0.40758 0.0
H1119 H 0.03706 0.75279 0.42019 0.0
C1120 C 0.55916 0.75546 0.69434 0.0
C1121 C 0.56903 0.77913 0.70238 0.0
C1122 C 0.53031 0.7472 0.69489 0.0
C1123 C 0.51101 0.7626 0.70396 0.0
C1124 C 0.52101 0.78591 0.71251 0.0
C1125 C 0.5499 0.79412 0.71149 0.0
C1126 C 0.52034 0.72245 0.68544 0.0
C1127 C 0.50116 0.80234 0.72258 0.0
C1128 C 0.43302 0.75645 0.69273 0.0
C1129 C 0.42403 0.7332 0.70134 0.0
C1130 C 0.46107 0.76708 0.69389 0.0
C1131 C 0.48023 0.75452 0.70413 0.0
C1132 C 0.47062 0.73234 0.71354 0.0
C1133 C 0.4427 0.7217 0.7119 0.0
C1134 C 0.47069 0.79049 0.68352 0.0
C1135 C 0.49021 0.71892 0.72484 0.0
H1136 H 0.5738 0.74394 0.68719 0.0
H1137 H 0.5575 0.81233 0.7178 0.0
H1138 H 0.51067 0.70554 0.69245 0.0
H1139 H 0.5035 0.72988 0.6777 0.0
H1140 H 0.53809 0.71279 0.67896 0.0
H1141 H 0.5127 0.81876 0.72918 0.0
H1142 H 0.48434 0.81321 0.71599 0.0
H1143 H 0.49011 0.7874 0.73021 0.0
H1144 H 0.41867 0.7653 0.68451 0.0
H1145 H 0.43567 0.7039 0.71869 0.0
H1146 H 0.48692 0.78179 0.67577 0.0
H1147 H 0.48102 0.80817 0.68973 0.0
H1148 H 0.45263 0.79946 0.67701 0.0
H1149 H 0.50696 0.7061 0.71919 0.0
H1150 H 0.47842 0.70463 0.73254 0.0
H1151 H 0.5013 0.73576 0.73133 0.0
C1152 C 0.49857 0.17634 0.93714 0.0
C1153 C 0.52201 0.16785 0.94575 0.0
C1154 C 0.489 0.20482 0.93723 0.0
C1155 C 0.50283 0.22511 0.9464 0.0
C1156 C 0.52624 0.21659 0.95529 0.0
C1157 C 0.53576 0.18809 0.95474 0.0
C1158 C 0.46423 0.21325 0.92742 0.0
C1159 C 0.54109 0.23753 0.96543 0.0
C1160 C 0.49243 0.30348 0.9366 0.0
C1161 C 0.46901 0.31073 0.94553 0.0
C1162 C 0.50412 0.27577 0.93698 0.0
C1163 C 0.49245 0.25516 0.94675 0.0
C1164 C 0.46971 0.26283 0.95628 0.0
C1165 C 0.45804 0.29046 0.95543 0.0
C1166 C 0.5281 0.26819 0.9265 0.0
C1167 C 0.45716 0.24163 0.96708 0.0
H1168 H 0.48805 0.16083 0.93007 0.0
H1169 H 0.5538 0.18156 0.96148 0.0
H1170 H 0.44618 0.22133 0.9342 0.0
H1171 H 0.47084 0.2309 0.91996 0.0
H1172 H 0.45639 0.19506 0.92062 0.0
H1173 H 0.55873 0.22737 0.97178 0.0
H1174 H 0.55008 0.2556 0.95896 0.0
H1175 H 0.52538 0.24675 0.9733 0.0
H1176 H 0.50085 0.31908 0.92888 0.0
H1177 H 0.4401 0.29612 0.96245 0.0
H1178 H 0.5206 0.25156 0.91864 0.0
H1179 H 0.54651 0.25902 0.93262 0.0
H1180 H 0.53569 0.28704 0.92011 0.0
H1181 H 0.4464 0.22403 0.961 0.0
H1182 H 0.44128 0.25173 0.97458 0.0
H1183 H 0.47443 0.23184 0.97381 0.0
C1184 C 0.06222 0.2537 0.179 0.0
C1185 C 0.06427 0.27642 0.18904 0.0
C1186 C 0.03651 0.23828 0.17749 0.0
C1187 C 0.01276 0.24543 0.1865 0.0
C1188 C 0.0152 0.26762 0.19705 0.0
C1189 C 0.04082 0.28308 0.19806 0.0
C1190 C 0.03444 0.21507 0.16595 0.0
C1191 C 0.99056 0.27544 0.20709 0.0
C1192 C 0.93597 0.23127 0.17523 0.0
C1193 C 0.92925 0.20717 0.18378 0.0
C1194 C 0.96361 0.24304 0.17542 0.0
C1195 C 0.98483 0.23071 0.1846 0.0
C1196 C 0.97842 0.20591 0.19294 0.0
C1197 C 0.95072 0.19427 0.19233 0.0
C1198 C 0.96984 0.26923 0.16618 0.0
C1199 C 0.00038 0.19246 0.20302 0.0
H1200 H 0.08035 0.24867 0.17198 0.0
H1201 H 0.04252 0.30045 0.20595 0.0
H1202 H 0.02709 0.19471 0.171 0.0
H1203 H 0.01829 0.22122 0.15755 0.0
H1204 H 0.05525 0.21122 0.16032 0.0
H1205 H -0.00337 0.29195 0.21534 0.0
H1206 H 0.97239 0.28378 0.20047 0.0
H1207 H 0.98281 0.25613 0.21302 0.0
H1208 H 0.91955 0.24109 0.16845 0.0
H1209 H 0.94563 0.17564 0.19897 0.0
H1210 H 0.98967 0.26597 0.15963 0.0
H1211 H 0.9735 0.28798 0.17346 0.0
H1212 H 0.95196 0.27441 0.15854 0.0
H1213 H 0.02065 0.18839 0.19699 0.0
H1214 H -0.00727 0.17195 0.20785 0.0
H1215 H 0.00541 0.20749 0.21215 0.0
C1216 C 0.98215 0.71008 0.94915 0.0
C1217 C 0.95899 0.70136 0.95793 0.0
C1218 C -0.00694 0.73797 0.95007 0.0
C1219 C 0.98085 0.75755 0.9602 0.0
C1220 C 0.95777 0.74883 0.96928 0.0
C1221 C 0.94691 0.72084 0.96795 0.0
C1222 C 0.01746 0.74656 0.94004 0.0
C1223 C 0.94459 0.76904 0.98036 0.0
C1224 C 0.03089 0.81942 0.96815 0.0
C1225 C 0.02092 0.84013 0.95819 0.0
C1226 C 0.0167 0.7931 0.96975 0.0
C1227 C 0.99232 0.7872 0.96098 0.0
C1228 C 0.9812 0.80865 0.95154 0.0
C1229 C -0.00448 0.83498 0.95035 0.0
C1230 C 0.02884 0.77098 0.98017 0.0
C1231 C 0.95543 0.80306 0.94188 0.0
H1232 H 0.99147 0.69524 0.94131 0.0
H1233 H 0.92909 0.71417 0.9748 0.0
H1234 H 0.01097 0.76512 0.93316 0.0
H1235 H 0.03622 0.75336 0.94668 0.0
H1236 H 0.02425 0.72885 0.93263 0.0
H1237 H 0.92735 0.75867 0.98691 0.0
H1238 H 0.96133 0.77705 0.98801 0.0
H1239 H 0.93547 0.78796 0.97464 0.0
H1240 H 0.05031 0.82343 0.97438 0.0
H1241 H 0.98768 0.85089 0.94264 0.0
H1242 H 0.03914 0.75355 0.97374 0.0
H1243 H 0.01151 0.76115 0.98685 0.0
H1244 H 0.04512 0.78029 0.98772 0.0
H1245 H 0.96125 0.78732 0.93321 0.0
H1246 H 0.94756 0.82289 0.93644 0.0
H1247 H 0.93768 0.79363 0.94841 0.0
C1248 C 0.93362 0.24953 0.69571 0.0
C1249 C 0.9298 0.27511 0.70355 0.0
C1250 C 0.96028 0.2356 0.69562 0.0
C1251 C 0.98328 0.24722 0.70388 0.0
C1252 C 0.97913 0.27242 0.71229 0.0
C1253 C 0.95251 0.28628 0.71187 0.0
C1254 C 0.96414 0.20908 0.68628 0.0
C1255 C 0.00296 0.28506 0.7215 0.0
C1256 C 0.04749 0.19978 0.71194 0.0
C1257 C 0.06741 0.2099 0.70161 0.0
C1258 C 0.02 0.21187 0.71291 0.0
C1259 C 0.01217 0.23406 0.70306 0.0
C1260 C 0.03213 0.24414 0.69252 0.0
C1261 C 0.05965 0.23217 0.69205 0.0
C1262 C -0.00055 0.2011 0.72451 0.0
C1263 C 0.02434 0.2674 0.68165 0.0
H1264 H 0.91608 0.24098 0.68922 0.0
H1265 H 0.94945 0.3059 0.71808 0.0
H1266 H 0.98028 0.21331 0.67756 0.0
H1267 H 0.97238 0.19114 0.69309 0.0
H1268 H 0.94383 0.20221 0.68095 0.0
H1269 H -0.00448 0.30337 0.72833 0.0
H1270 H 0.01214 0.26846 0.72887 0.0
H1271 H 0.0205 0.29266 0.71422 0.0
H1272 H 0.0535 0.18262 0.71938 0.0
H1273 H 0.07489 0.2398 0.68393 0.0
H1274 H 0.97979 0.19255 0.71922 0.0
H1275 H -0.00723 0.21908 0.73175 0.0
H1276 H 0.00903 0.18398 0.73145 0.0
H1277 H 0.00507 0.26097 0.67528 0.0
H1278 H 0.04202 0.27205 0.67381 0.0
H1279 H 0.01891 0.28743 0.68762 0.0
C1280 C 0.54278 0.28122 0.45034 0.0
C1281 C 0.5321 0.30442 0.44222 0.0
C1282 C 0.52947 0.25429 0.44971 0.0
C1283 C 0.50535 0.25039 0.44045 0.0
C1284 C 0.49503 0.27352 0.43187 0.0
C1285 C 0.50833 0.30039 0.433 0.0
C1286 C 0.54071 0.23025 0.45924 0.0
C1287 C 0.46977 0.26995 0.42162 0.0
C1288 C 0.48538 0.17385 0.43067 0.0
C1289 C 0.46217 0.16892 0.44016 0.0
C1290 C 0.49934 0.20049 0.43044 0.0
C1291 C 0.49027 0.22238 0.44018 0.0
C1292 C 0.46695 0.21745 0.44984 0.0
C1293 C 0.45295 0.19087 0.44958 0.0
C1294 C 0.5237 0.20524 0.41975 0.0
C1295 C 0.45705 0.24011 0.46059 0.0
H1296 H 0.56106 0.28432 0.45755 0.0
H1297 H 0.50019 0.31825 0.42659 0.0
H1298 H 0.52376 0.22319 0.46701 0.0
H1299 H 0.54643 0.2115 0.45233 0.0
H1300 H 0.55989 0.23672 0.46569 0.0
H1301 H 0.46558 0.28956 0.41501 0.0
H1302 H 0.47359 0.25176 0.41399 0.0
H1303 H 0.45023 0.26484 0.42807 0.0
H1304 H 0.4924 0.15698 0.42328 0.0
H1305 H 0.43514 0.18705 0.45701 0.0
H1306 H 0.54375 0.20988 0.42587 0.0
H1307 H 0.51911 0.22415 0.41272 0.0
H1308 H 0.52742 0.18637 0.41253 0.0
H1309 H 0.47504 0.24633 0.46793 0.0
H1310 H 0.43886 0.23268 0.46751 0.0
H1311 H 0.45028 0.25964 0.45455 0.0
C1312 C 0.43307 0.74721 0.20209 0.0
C1313 C 0.42609 0.77105 0.21081 0.0
C1314 C 0.46092 0.73598 0.20198 0.0
C1315 C 0.4822 0.74853 0.21102 0.0
C1316 C 0.47515 0.77209 0.22017 0.0
C1317 C 0.4472 0.78329 0.21983 0.0
C1318 C 0.46772 0.71115 0.19187 0.0
C1319 C 0.4972 0.78562 0.23016 0.0
C1320 C 0.54749 0.70161 0.2173 0.0
C1321 C 0.56678 0.71274 0.20692 0.0
C1322 C 0.5203 0.71392 0.21926 0.0
C1323 C 0.51204 0.73748 0.2104 0.0
C1324 C 0.53166 0.74919 0.20013 0.0
C1325 C 0.55891 0.73684 0.19862 0.0
C1326 C 0.50014 0.70124 0.23053 0.0
C1327 C 0.52345 0.77398 0.19029 0.0
H1328 H 0.41693 0.73776 0.195 0.0
H1329 H 0.44187 0.80162 0.22665 0.0
H1330 H 0.4846 0.71755 0.18389 0.0
H1331 H 0.47625 0.69285 0.19832 0.0
H1332 H 0.44865 0.70373 0.1856 0.0
H1333 H 0.48783 0.80263 0.23725 0.0
H1334 H 0.50707 0.76904 0.23732 0.0
H1335 H 0.51466 0.79517 0.22347 0.0
H1336 H 0.55359 0.68316 0.22385 0.0
H1337 H 0.57368 0.74547 0.19054 0.0
H1338 H 0.48165 0.69111 0.22487 0.0
H1339 H 0.49147 0.71835 0.23777 0.0
H1340 H 0.51077 0.68481 0.2375 0.0
H1341 H 0.50559 0.76745 0.18294 0.0
H1342 H 0.54163 0.7814 0.18336 0.0
H1343 H 0.51571 0.79228 0.197 0.0
C1344 C 0.95887 0.28996 0.51567 0.0
C1345 C 0.97133 0.30865 0.52595 0.0
C1346 C 0.96921 0.2619 0.5139 0.0
C1347 C 0.99203 0.25219 0.52288 0.0
C1348 C 0.00518 0.27122 0.53298 0.0
C1349 C -0.00514 0.29932 0.53427 0.0
C1350 C 0.95518 0.24242 0.50274 0.0
C1351 C 0.02929 0.26153 0.54292 0.0
C1352 C -0.00212 0.17344 0.5326 0.0
C1353 C 0.0221 0.16516 0.5245 0.0
C1354 C 0.98738 0.20155 0.53184 0.0
C1355 C 0.00105 0.22167 0.52251 0.0
C1356 C 0.02455 0.21302 0.5137 0.0
C1357 C 0.03504 0.18493 0.51494 0.0
C1358 C 0.96253 0.21008 0.54159 0.0
C1359 C 0.03919 0.23369 0.50334 0.0
H1360 H 0.94082 0.29716 0.50912 0.0
H1361 H 0.00448 0.31362 0.54229 0.0
H1362 H 0.97167 0.23208 0.49571 0.0
H1363 H 0.94342 0.22507 0.50851 0.0
H1364 H 0.93984 0.25411 0.49556 0.0
H1365 H 0.0378 0.27925 0.54983 0.0
H1366 H 0.02155 0.2442 0.55029 0.0
H1367 H 0.04713 0.25259 0.53628 0.0
H1368 H 0.98788 0.15829 0.54006 0.0
H1369 H 0.05361 0.17853 0.50855 0.0
H1370 H 0.94519 0.21983 0.5349 0.0
H1371 H 0.96972 0.22649 0.54964 0.0
H1372 H 0.95354 0.19158 0.54776 0.0
H1373 H 0.0231 0.24477 0.49636 0.0
H1374 H 0.05497 0.2228 0.49607 0.0
H1375 H 0.05058 0.25038 0.50978 0.0
C1376 C 0.42109 0.23916 0.29308 0.0
C1377 C 0.41304 0.21696 0.28352 0.0
C1378 C 0.4493 0.24948 0.29332 0.0
C1379 C 0.46979 0.23772 0.28353 0.0
C1380 C 0.46172 0.21563 0.27368 0.0
C1381 C 0.43347 0.20529 0.27389 0.0
C1382 C 0.45726 0.27273 0.30416 0.0
C1383 C 0.48289 0.20299 0.26289 0.0
C1384 C 0.53505 0.28377 0.2758 0.0
C1385 C 0.55582 0.27087 0.28479 0.0
C1386 C 0.50713 0.27275 0.275 0.0
C1387 C 0.49969 0.24863 0.28365 0.0
C1388 C 0.52057 0.23546 0.29272 0.0
C1389 C 0.54851 0.24658 0.29307 0.0
C1390 C 0.48556 0.28701 0.26499 0.0
C1391 C 0.51323 0.21002 0.3023 0.0
H1392 H 0.40545 0.24808 0.30064 0.0
H1393 H 0.4273 0.18822 0.26643 0.0
H1394 H 0.47494 0.26521 0.31137 0.0
H1395 H 0.46516 0.29191 0.29819 0.0
H1396 H 0.43889 0.27921 0.31121 0.0
H1397 H 0.473 0.18643 0.25571 0.0
H1398 H 0.4919 0.22018 0.25582 0.0
H1399 H 0.50107 0.19313 0.26893 0.0
H1400 H 0.54069 0.3024 0.26927 0.0
H1401 H 0.56447 0.23664 0.30009 0.0
H1402 H 0.46764 0.29587 0.27161 0.0
H1403 H 0.47627 0.27102 0.2573 0.0
H1404 H 0.49519 0.30469 0.25844 0.0
H1405 H 0.49602 0.21597 0.31017 0.0
H1406 H 0.53201 0.20213 0.30864 0.0
H1407 H 0.50491 0.19221 0.29542 0.0
C1408 C 0.4838 0.79634 0.05431 0.0
C1409 C 0.45985 0.80226 0.04551 0.0
C1410 C 0.49625 0.76896 0.05437 0.0
C1411 C 0.4849 0.74736 0.04509 0.0
C1412 C 0.46083 0.75332 0.03611 0.0
C1413 C 0.44836 0.78062 0.03657 0.0
C1414 C 0.5215 0.76314 0.06434 0.0
C1415 C 0.44856 0.73101 0.02582 0.0
C1416 C 0.53378 0.68626 0.03388 0.0
C1417 C 0.52327 0.66374 0.04256 0.0
C1418 C 0.52144 0.71361 0.03459 0.0
C1419 C 0.49854 0.71867 0.04449 0.0
C1420 C 0.48822 0.69615 0.0535 0.0
C1421 C 0.50048 0.66879 0.05227 0.0
C1422 C 0.53255 0.73694 0.02456 0.0
C1423 C 0.46428 0.70098 0.06442 0.0
H1424 H 0.49255 0.81301 0.06132 0.0
H1425 H 0.42996 0.78523 0.02966 0.0
H1426 H 0.51682 0.74451 0.07155 0.0
H1427 H 0.5406 0.75753 0.05765 0.0
H1428 H 0.52688 0.78187 0.07138 0.0
H1429 H 0.42993 0.73921 0.01946 0.0
H1430 H 0.4653 0.72384 0.01794 0.0
H1431 H 0.44163 0.7119 0.03215 0.0
H1432 H 0.5513 0.68233 0.02629 0.0
H1433 H 0.49253 0.65145 0.0591 0.0
H1434 H 0.54026 0.75538 0.03117 0.0
H1435 H 0.51494 0.7449 0.01742 0.0
H1436 H 0.55038 0.7294 0.01742 0.0
H1437 H 0.46991 0.71885 0.07196 0.0
H1438 H 0.45971 0.68157 0.07112 0.0
H1439 H 0.44441 0.70725 0.05854 0.0
C1440 C 0.91213 0.73599 0.78299 0.0
C1441 C 0.90766 0.71403 0.79324 0.0
C1442 C 0.93899 0.74931 0.78179 0.0
C1443 C 0.9614 0.74106 0.79143 0.0
C1444 C 0.95639 0.71995 0.80234 0.0
C1445 C 0.92968 0.70625 0.80291 0.0
C1446 C 0.94381 0.77111 0.76974 0.0
C1447 C 0.97944 0.7113 0.81314 0.0
C1448 C 0.03904 0.74907 0.77985 0.0
C1449 C 0.0466 0.7748 0.78676 0.0
C1450 C 0.01106 0.73832 0.78092 0.0
C1451 C 0.99058 0.75316 0.78956 0.0
C1452 C -0.00178 0.77907 0.79667 0.0
C1453 C 0.02609 0.78987 0.79495 0.0
C1454 C 0.00344 0.71106 0.77283 0.0
C1455 C 0.97724 0.79494 0.80637 0.0
H1456 H 0.89508 0.74168 0.77542 0.0
H1457 H 0.92602 0.68931 0.81088 0.0
H1458 H 0.95235 0.79133 0.77442 0.0
H1459 H 0.96006 0.76285 0.76188 0.0
H1460 H 0.92384 0.77599 0.76356 0.0
H1461 H 0.97112 0.69689 0.8219 0.0
H1462 H -0.00304 0.70003 0.80724 0.0
H1463 H 0.98891 0.73057 0.81841 0.0
H1464 H 0.05493 0.73759 0.77342 0.0
H1465 H 0.03211 0.80966 0.8004 0.0
H1466 H 0.98431 0.71463 0.7658 0.0
H1467 H -0.0021 0.69399 0.78085 0.0
H1468 H 0.02129 0.70325 0.76579 0.0
H1469 H 0.95781 0.80076 0.8 0.0
H1470 H 0.98661 0.81479 0.81112 0.0
H1471 H 0.97023 0.78082 0.81553 0.0
C1472 C 0.28485 0.37519 0.95482 0.0
C1473 C 0.30815 0.35897 0.95987 0.0
C1474 C 0.25777 0.37251 0.96136 0.0
C1475 C 0.25401 0.35323 0.97324 0.0
C1476 C 0.27695 0.33541 0.97772 0.0
C1477 C 0.30381 0.33847 0.97095 0.0
C1478 C 0.2337 0.39171 0.95619 0.0
C1479 C 0.27371 0.31451 -0.00969 0.0
C1480 C 0.20019 0.37766 0.0017 0.0
C1481 C 0.17603 0.36128 -0.00193 0.0
C1482 C 0.2259 0.37459 -0.00607 0.0
C1483 C 0.22747 0.35467 0.9822 0.0
C1484 C 0.20344 0.33741 0.97873 0.0
C1485 C 0.17791 0.3409 0.98675 0.0
C1486 C 0.25116 0.39325 -0.00196 0.0
C1487 C 0.20445 0.31594 0.9663 0.0
H1488 H 0.288 0.39084 0.94614 0.0
H1489 H 0.32169 0.32569 0.97482 0.0
H1490 H 0.21378 0.37913 0.95454 0.0
H1491 H 0.22918 0.40811 0.96473 0.0
H1492 H 0.23905 0.40288 0.94573 0.0
H1493 H 0.29209 0.29943 -0.00898 0.0
H1494 H 0.2723 0.32653 0.00084 0.0
H1495 H 0.25364 0.30195 0.98915 0.0
H1496 H 0.19893 0.3933 0.01052 0.0
H1497 H 0.15927 0.32816 0.98392 0.0
H1498 H 0.25671 0.40751 0.98868 0.0
H1499 H 0.27022 0.37975 0.00036 0.0
H1500 H 0.24675 0.40678 0.00786 0.0
H1501 H 0.20691 0.32736 0.95565 0.0
H1502 H 0.18475 0.30258 0.96578 0.0
H1503 H 0.22329 0.30163 0.96754 0.0
C1504 C 0.88514 0.05894 0.22468 0.0
C1505 C 0.86539 0.06123 0.21309 0.0
C1506 C 0.88708 0.03376 0.23303 0.0
C1507 C 0.86907 0.01032 0.22956 0.0
C1508 C 0.85014 0.01201 0.21741 0.0
C1509 C 0.84839 0.03757 0.20936 0.0
C1510 C 0.90736 0.03276 0.24599 0.0
C1511 C 0.83091 0.98723 0.21326 0.0
C1512 C 0.88377 0.93663 0.24546 0.0
C1513 C 0.86318 0.93525 0.2567 0.0
C1514 C 0.88638 0.96119 0.23666 0.0
C1515 C 0.86821 0.98492 0.23934 0.0
C1516 C 0.84816 0.98401 0.25103 0.0
C1517 C 0.84576 0.95909 0.25952 0.0
C1518 C 0.90782 0.96139 0.22419 0.0
C1519 C 0.82872 0.00911 0.25435 0.0
H1520 H 0.89834 0.0772 0.2276 0.0
H1521 H 0.83328 0.03919 0.20032 0.0
H1522 H 0.89485 0.03177 0.25638 0.0
H1523 H 0.92083 0.01318 0.24551 0.0
H1524 H 0.92163 0.05181 0.24643 0.0
H1525 H 0.81936 0.99107 0.20274 0.0
H1526 H 0.84363 0.96724 0.21221 0.0
H1527 H 0.81482 0.9837 0.22209 0.0
H1528 H 0.89721 0.91817 0.24323 0.0
H1529 H 0.82997 0.95815 0.26827 0.0
H1530 H 0.92185 0.98053 0.22498 0.0
H1531 H 0.89633 0.96272 0.21351 0.0
H1532 H 0.9215 0.94189 0.22413 0.0
H1533 H 0.8416 0.02889 0.25591 0.0
H1534 H 0.81552 0.00556 0.26438 0.0
H1535 H 0.81412 0.0129 0.2449 0.0
C1536 C 0.19841 0.60039 0.45963 0.0
C1537 C 0.17668 0.62038 0.46247 0.0
C1538 C 0.22524 0.60276 0.46642 0.0
C1539 C 0.23038 0.62565 0.47631 0.0
C1540 C 0.2092 0.64696 0.47847 0.0
C1541 C 0.18251 0.64409 0.47149 0.0
C1542 C 0.24742 0.57975 0.46371 0.0
C1543 C 0.21407 0.67179 0.48884 0.0
C1544 C 0.28237 0.60565 0.50651 0.0
C1545 C 0.30814 0.61683 0.50105 0.0
C1546 C 0.25658 0.60969 0.49889 0.0
C1547 C 0.25663 0.62525 0.4855 0.0
C1548 C 0.28229 0.6379 0.48034 0.0
C1549 C 0.30782 0.63352 0.48819 0.0
C1550 C 0.22955 0.59603 0.5048 0.0
C1551 C 0.28308 0.65478 0.46616 0.0
H1552 H 0.19411 0.5822 0.45253 0.0
H1553 H 0.16581 0.65969 0.47367 0.0
H1554 H 0.26839 0.58953 0.46089 0.0
H1555 H 0.25048 0.56697 0.4739 0.0
H1556 H 0.24109 0.56497 0.45467 0.0
H1557 H 0.19733 0.68858 0.48766 0.0
H1558 H 0.21376 0.66391 0.50037 0.0
H1559 H 0.23539 0.68163 0.4869 0.0
H1560 H 0.28244 0.59295 0.5165 0.0
H1561 H 0.32768 0.64237 0.48397 0.0
H1562 H 0.22243 0.57878 0.49721 0.0
H1563 H 0.21203 0.61207 0.5054 0.0
H1564 H 0.23269 0.5866 0.51592 0.0
H1565 H 0.28015 0.64001 0.45669 0.0
H1566 H 0.30371 0.66635 0.4647 0.0
H1567 H 0.26529 0.67056 0.46581 0.0
C1568 C 0.62317 0.05873 0.74397 0.0
C1569 C 0.64145 0.06267 0.75607 0.0
C1570 C 0.62272 0.03268 0.73626 0.0
C1571 C 0.64087 0.01007 0.74083 0.0
C1572 C 0.65923 0.01385 0.75309 0.0
C1573 C 0.65934 0.04016 0.76055 0.0
C1574 C 0.60294 0.02938 0.7232 0.0
C1575 C 0.67875 0.99011 0.75834 0.0
C1576 C 0.6226 0.93357 0.73048 0.0
C1577 C 0.64212 0.92825 0.71905 0.0
C1578 C 0.62162 0.9603 0.7375 0.0
C1579 C 0.64053 0.98226 0.73291 0.0
C1580 C 0.65978 0.9773 0.72112 0.0
C1581 C 0.66041 0.95028 0.71434 0.0
C1582 C 0.60085 0.96481 0.75006 0.0
C1583 C 0.68012 0.00034 0.71588 0.0
H1584 H 0.60936 0.0761 0.74043 0.0
H1585 H 0.6735 0.04308 0.7699 0.0
H1586 H 0.61556 0.02408 0.7132 0.0
H1587 H 0.58786 0.01137 0.72511 0.0
H1588 H 0.5903 0.04912 0.72101 0.0
H1589 H 0.69165 -0.0035 0.76808 0.0
H1590 H 0.66589 0.97092 0.76126 0.0
H1591 H 0.69359 0.98373 0.74936 0.0
H1592 H 0.60839 0.91664 0.73417 0.0
H1593 H 0.67548 0.94631 0.70548 0.0
H1594 H 0.58707 0.98371 0.74784 0.0
H1595 H 0.61288 0.96928 0.76035 0.0
H1596 H 0.58686 0.94588 0.75192 0.0
H1597 H 0.66802 0.02004 0.71301 0.0
H1598 H 0.69277 -0.00651 0.70613 0.0
H1599 H 0.6952 0.00606 0.72487 0.0
C1600 C 0.69718 0.58576 0.01753 0.0
C1601 C 0.67477 0.60497 0.01462 0.0
C1602 C 0.7243 0.58959 0.01116 0.0
C1603 C 0.72899 0.61305 0.00158 0.0
C1604 C 0.70658 0.63274 -0.00125 0.0
C1605 C 0.67972 0.62851 0.00535 0.0
C1606 C 0.7478 0.56827 0.01451 0.0
C1607 C 0.71079 0.65791 0.98851 0.0
C1608 C 0.80597 0.63455 -0.00626 0.0
C1609 C 0.81109 0.62043 0.98036 0.0
C1610 C 0.7792 0.6326 0.00073 0.0
C1611 C 0.75708 0.61633 -0.00591 0.0
C1612 C 0.76195 0.60253 0.98044 0.0
C1613 C 0.78895 0.60466 0.97376 0.0
C1614 C 0.77476 0.64748 0.01533 0.0
C1615 C 0.73877 0.58518 0.97298 0.0
H1616 H 0.69351 0.56761 0.02474 0.0
H1617 H 0.66246 0.64342 0.00305 0.0
H1618 H 0.75434 0.55714 0.00425 0.0
H1619 H 0.76697 0.57957 0.01883 0.0
H1620 H 0.74101 0.55191 0.02269 0.0
H1621 H 0.69146 0.67176 0.98785 0.0
H1622 H 0.72917 0.67113 -0.00775 0.0
H1623 H 0.71598 0.65007 0.97727 0.0
H1624 H 0.82303 0.64673 -0.00111 0.0
H1625 H 0.79275 0.5938 0.96338 0.0
H1626 H 0.76979 0.6314 0.02396 0.0
H1627 H 0.75616 0.66226 0.01465 0.0
H1628 H 0.79391 0.65991 0.01882 0.0
H1629 H 0.7325 0.5669 0.9801 0.0
H1630 H 0.74573 0.57664 0.96213 0.0
H1631 H 0.71937 0.59857 0.97131 0.0
C1632 C 0.09793 0.92814 0.75016 0.0
C1633 C 0.11845 0.92211 0.76102 0.0
C1634 C 0.09796 0.95451 0.74273 0.0
C1635 C 0.11887 0.97533 0.74635 0.0
C1636 C 0.13908 0.96969 0.75762 0.0
C1637 C 0.13869 0.94309 0.76478 0.0
C1638 C 0.07615 0.95979 0.73074 0.0
C1639 C 0.16152 0.99152 0.76188 0.0
C1640 C 0.1409 0.0313 0.71827 0.0
C1641 C 0.12618 0.05556 0.72334 0.0
C1642 C 0.13812 0.00483 0.72545 0.0
C1643 C 0.12034 0.00269 0.73805 0.0
C1644 C 0.10495 0.02695 0.74304 0.0
C1645 C 0.10799 0.05311 0.73559 0.0
C1646 C 0.15468 0.97931 0.71974 0.0
C1647 C 0.08589 0.02547 0.75647 0.0
H1648 H 0.08227 0.91197 0.74718 0.0
H1649 H 0.15452 0.93858 0.77321 0.0
H1650 H 0.06417 0.97987 0.73297 0.0
H1651 H 0.08725 0.96257 0.72002 0.0
H1652 H 0.06056 0.94189 0.7297 0.0
H1653 H 0.17481 0.9843 0.77133 0.0
H1654 H 0.17587 -0.00428 0.75237 0.0
H1655 H 0.15115 0.01214 0.76483 0.0
H1656 H 0.15489 0.03304 0.70877 0.0
H1657 H 0.09654 0.0718 0.73956 0.0
H1658 H 0.13992 0.9611 0.71767 0.0
H1659 H 0.17039 0.97219 0.72816 0.0
H1660 H 0.16643 0.9842 0.7094 0.0
H1661 H 0.06984 0.0081 0.75518 0.0
H1662 H 0.0744 0.04595 0.75852 0.0
H1663 H 0.09897 0.02027 0.76632 0.0
C1664 C 0.81452 0.35641 0.4959 0.0
C1665 C 0.81727 0.37175 0.50911 0.0
C1666 C 0.78807 0.3546 0.48862 0.0
C1667 C 0.76381 0.3683 0.49478 0.0
C1668 C 0.76626 0.38314 0.50833 0.0
C1669 C 0.79302 0.38477 0.51532 0.0
C1670 C 0.78626 0.33871 0.47415 0.0
C1671 C 0.74076 0.39786 0.51527 0.0
C1672 C 0.70321 0.39159 0.46973 0.0
C1673 C 0.68269 0.37021 0.47232 0.0
C1674 C 0.72992 0.39089 0.47678 0.0
C1675 C 0.73615 0.36837 0.48671 0.0
C1676 C 0.71575 0.34644 0.48919 0.0
C1677 C 0.68923 0.34756 0.4819 0.0
C1678 C 0.75128 0.41452 0.47377 0.0
C1679 C 0.72168 0.32215 0.49975 0.0
H1680 H 0.8332 0.34629 0.49105 0.0
H1681 H 0.79499 0.39655 0.52556 0.0
H1682 H 0.76913 0.32223 0.47464 0.0
H1683 H 0.78051 0.35387 0.46521 0.0
H1684 H 0.80679 0.32805 0.47122 0.0
H1685 H 0.74592 0.40716 0.52622 0.0
H1686 H 0.73311 0.41532 0.50796 0.0
H1687 H 0.72282 0.38245 0.51658 0.0
H1688 H 0.69831 0.40908 0.46228 0.0
H1689 H 0.67342 0.33101 0.48396 0.0
H1690 H 0.77189 0.40525 0.46995 0.0
H1691 H 0.75573 0.42651 0.48407 0.0
H1692 H 0.7435 0.4299 0.46532 0.0
H1693 H 0.74172 0.31091 0.49658 0.0
H1694 H 0.70392 0.30629 0.50008 0.0
H1695 H 0.72492 0.3308 0.51102 0.0
C1696 C 0.36536 0.06117 0.24866 0.0
C1697 C 0.34451 0.06671 0.25943 0.0
C1698 C 0.36834 0.03374 0.24251 0.0
C1699 C 0.35011 0.01136 0.2473 0.0
C1700 C 0.32923 0.01675 0.25828 0.0
C1701 C 0.32664 0.04439 0.26419 0.0
C1702 C 0.39076 0.02877 0.23077 0.0
C1703 C 0.30948 -0.00664 0.26371 0.0
C1704 C 0.33627 0.94734 0.22261 0.0
C1705 C 0.35382 0.92637 0.22904 0.0
C1706 C 0.33539 0.9753 0.22825 0.0
C1707 C 0.35236 0.98239 0.24064 0.0
C1708 C 0.37059 0.96152 0.24699 0.0
C1709 C 0.37116 0.93372 0.24108 0.0
C1710 C 0.31581 -0.00293 0.22113 0.0
C1711 C 0.38895 0.96835 0.26023 0.0
H1712 H 0.37923 0.07835 0.24493 0.0
H1713 H 0.31055 0.04852 0.27254 0.0
H1714 H 0.40552 0.01137 0.23422 0.0
H1715 H 0.3803 0.02173 0.2204 0.0
H1716 H 0.40358 0.04833 0.22845 0.0
H1717 H 0.29485 0.00092 0.27255 0.0
H1718 H 0.29633 0.98513 0.25444 0.0
H1719 H 0.32223 0.97509 0.268 0.0
H1720 H 0.32291 0.94182 0.21326 0.0
H1721 H 0.38477 0.91761 0.24609 0.0
H1722 H 0.32815 0.01647 0.21801 0.0
H1723 H 0.29911 0.00389 0.2291 0.0
H1724 H 0.30505 0.98849 0.21114 0.0
H1725 H 0.40273 0.9872 0.25792 0.0
H1726 H 0.40286 0.95007 0.26347 0.0
H1727 H 0.37506 0.97402 0.26972 0.0
C1728 C 0.80498 0.84379 0.47803 0.0
C1729 C 0.80854 0.86556 0.46754 0.0
C1730 C 0.77925 0.84113 0.48591 0.0
C1731 C 0.75658 0.86052 0.48308 0.0
C1732 C 0.75978 0.88198 0.47218 0.0
C1733 C 0.78581 0.88433 0.46459 0.0
C1734 C 0.77658 0.81812 0.49753 0.0
C1735 C 0.73589 0.9028 0.46872 0.0
C1736 C 0.68025 0.84321 0.49409 0.0
C1737 C 0.67662 0.86087 0.50647 0.0
C1738 C 0.7065 0.84219 0.4866 0.0
C1739 C 0.72967 0.85902 0.49172 0.0
C1740 C 0.72651 0.87595 0.50456 0.0
C1741 C 0.69992 0.87678 0.51176 0.0
C1742 C 0.70906 0.82403 0.47288 0.0
C1743 C 0.75092 0.89391 0.51042 0.0
H1744 H 0.82257 0.82929 0.48037 0.0
H1745 H 0.78843 0.9011 0.45643 0.0
H1746 H 0.77349 0.82817 0.5085 0.0
H1747 H 0.75746 0.80462 0.49535 0.0
H1748 H 0.7958 0.80408 0.498 0.0
H1749 H 0.74142 0.91742 0.45949 0.0
H1750 H 0.71606 0.89093 0.4658 0.0
H1751 H 0.731 0.91594 0.47859 0.0
H1752 H 0.66229 0.83084 0.48996 0.0
H1753 H 0.69726 0.89031 0.52137 0.0
H1754 H 0.728 0.80973 0.47365 0.0
H1755 H 0.71232 0.83809 0.46317 0.0
H1756 H 0.68968 0.81069 0.47096 0.0
H1757 H 0.77041 0.88055 0.51182 0.0
H1758 H 0.74565 0.90409 0.52115 0.0
H1759 H 0.7562 0.91105 0.50239 0.0
C1760 C 0.36038 0.5486 0.70544 0.0
C1761 C 0.37539 0.57202 0.71127 0.0
C1762 C 0.36319 0.52121 0.71162 0.0
C1763 C 0.38139 0.51725 0.72393 0.0
C1764 C 0.39773 0.54049 0.72938 0.0
C1765 C 0.39454 0.56765 0.72297 0.0
C1766 C 0.34555 0.49684 0.70546 0.0
C1767 C 0.41741 0.53705 0.74247 0.0
C1768 C 0.3591 0.45871 0.7504 0.0
C1769 C 0.37765 0.43632 0.7465 0.0
C1770 C 0.36055 0.48531 0.74331 0.0
C1771 C 0.381 0.4896 0.73201 0.0
C1772 C 0.40023 0.46733 0.72821 0.0
C1773 C 0.39836 0.44088 0.73554 0.0
C1774 C 0.33977 0.50865 0.74773 0.0
C1775 C 0.42231 0.47123 0.71621 0.0
H1776 H 0.3457 0.5518 0.69633 0.0
H1777 H 0.40635 0.58564 0.72748 0.0
H1778 H 0.35928 0.47783 0.70342 0.0
H1779 H 0.32898 0.49047 0.7136 0.0
H1780 H 0.33466 0.50277 0.69501 0.0
H1781 H 0.43092 0.55633 0.74433 0.0
H1782 H 0.40445 0.53317 0.75253 0.0
H1783 H 0.43163 0.51821 0.74096 0.0
H1784 H 0.34313 0.45537 0.75891 0.0
H1785 H 0.41275 0.42362 0.73248 0.0
H1786 H 0.32593 0.51432 0.73822 0.0
H1787 H 0.35165 0.52828 0.75094 0.0
H1788 H 0.3258 0.50213 0.75706 0.0
H1789 H 0.4114 0.4749 0.70552 0.0
H1790 H 0.43663 0.45231 0.71511 0.0
H1791 H 0.43564 0.49042 0.71849 0.0
C1792 C 0.80135 0.12878 -0.00868 0.0
C1793 C 0.80735 0.10827 0.00217 0.0
C1794 C 0.77501 0.12866 0.98386 0.0
C1795 C 0.75418 0.10778 0.98752 0.0
C1796 C 0.75998 0.08733 -0.00136 0.0
C1797 C 0.78659 0.08771 0.00577 0.0
C1798 C 0.7696 0.15058 0.97194 0.0
C1799 C 0.73809 0.065 0.00299 0.0
C1800 C 0.67588 0.12031 0.97867 0.0
C1801 C 0.67186 0.10199 0.9666 0.0
C1802 C 0.70279 0.12294 0.98539 0.0
C1803 C 0.72624 0.10713 0.97977 0.0
C1804 C 0.72257 0.08939 0.96725 0.0
C1805 C 0.69531 0.08687 0.96087 0.0
C1806 C 0.70586 0.14183 -0.00118 0.0
C1807 C 0.74724 0.07252 0.96085 0.0
H1808 H 0.81743 0.14462 0.98847 0.0
H1809 H 0.79111 0.0719 0.01421 0.0
H1810 H 0.76532 0.13957 0.96132 0.0
H1811 H 0.75029 0.16342 0.97464 0.0
H1812 H 0.78803 0.16538 0.97043 0.0
H1813 H 0.74575 0.05107 0.01211 0.0
H1814 H 0.7179 0.07557 0.0065 0.0
H1815 H 0.7329 0.05125 -0.00662 0.0
H1816 H 0.65779 0.13202 0.98315 0.0
H1817 H 0.69233 0.07284 0.95147 0.0
H1818 H 0.7235 0.15746 -0.00281 0.0
H1819 H 0.71155 0.1285 0.00851 0.0
H1820 H 0.68586 0.15378 0.00135 0.0
H1821 H 0.76568 0.08692 0.95863 0.0
H1822 H 0.7413 0.06143 0.95046 0.0
H1823 H 0.75454 0.05622 0.96892 0.0
C1824 C 0.11206 0.53768 0.26031 0.0
C1825 C 0.09618 0.56264 0.2577 0.0
C1826 C 0.10876 0.5135 0.25137 0.0
C1827 C 0.0892 0.51439 0.23945 0.0
C1828 C 0.07225 0.53911 0.23707 0.0
C1829 C 0.07591 0.56302 0.24628 0.0
C1830 C 0.12703 0.48737 0.25435 0.0
C1831 C 0.05118 0.54073 0.22448 0.0
C1832 C 0.1125 0.46332 0.20962 0.0
C1833 C 0.09657 0.43884 0.2132 0.0
C1834 C 0.10858 0.48899 0.21735 0.0
C1835 C 0.0884 0.49003 0.22898 0.0
C1836 C 0.07065 0.46608 0.23185 0.0
C1837 C 0.0749 0.4407 0.22387 0.0
C1838 C 0.12763 0.51426 0.21382 0.0
C1839 C 0.04878 0.46647 0.24411 0.0
H1840 H 0.12754 0.53718 0.26922 0.0
H1841 H 0.06354 0.58229 0.24424 0.0
H1842 H 0.11334 0.46802 0.25532 0.0
H1843 H 0.14195 0.48382 0.24501 0.0
H1844 H 0.13986 0.48955 0.26461 0.0
H1845 H 0.03723 0.55999 0.22522 0.0
H1846 H 0.06304 0.54152 0.21389 0.0
H1847 H 0.03744 0.52133 0.22422 0.0
H1848 H 0.12899 0.4621 0.20122 0.0
H1849 H 0.06236 0.42186 0.22659 0.0
H1850 H 0.1436 0.51709 0.22276 0.0
H1851 H 0.11485 0.53427 0.21315 0.0
H1852 H 0.13935 0.51133 0.20326 0.0
H1853 H 0.05998 0.46506 0.25488 0.0
H1854 H 0.03354 0.44824 0.24329 0.0
H1855 H 0.03645 0.48681 0.24404 0.0
C1856 C 0.18205 0.12631 0.49724 0.0
C1857 C 0.17872 0.10799 0.50938 0.0
C1858 C 0.20842 0.12854 0.48993 0.0
C1859 C 0.23201 0.11216 0.49493 0.0
C1860 C 0.22916 0.09466 0.50759 0.0
C1861 C 0.20248 0.09272 0.51465 0.0
C1862 C 0.21067 0.14741 0.47645 0.0
C1863 C 0.25395 0.07705 0.51331 0.0
C1864 C 0.28831 0.08917 0.46731 0.0
C1865 C 0.31078 0.10818 0.47041 0.0
C1866 C 0.2624 0.0906 0.47506 0.0
C1867 C 0.25895 0.11146 0.48625 0.0
C1868 C 0.28135 0.13106 0.48928 0.0
C1869 C 0.30704 0.12924 0.48127 0.0
C1870 C 0.23887 0.06948 0.47144 0.0
C1871 C 0.27838 0.15353 0.50116 0.0
H1872 H 0.16378 0.13825 0.49314 0.0
H1873 H 0.20008 0.07867 0.52408 0.0
H1874 H 0.22945 0.16189 0.47737 0.0
H1875 H 0.214 0.13387 0.46654 0.0
H1876 H 0.19112 0.16061 0.47475 0.0
H1877 H 0.24891 0.06648 0.52396 0.0
H1878 H 0.25956 0.06024 0.50515 0.0
H1879 H 0.27317 0.09076 0.51479 0.0
H1880 H 0.29104 0.07293 0.45888 0.0
H1881 H 0.32437 0.14396 0.48373 0.0
H1882 H 0.21888 0.0811 0.46857 0.0
H1883 H 0.23414 0.05602 0.48122 0.0
H1884 H 0.24467 0.05518 0.46212 0.0
H1885 H 0.25909 0.16687 0.49912 0.0
H1886 H 0.29741 0.1678 0.50179 0.0
H1887 H 0.2754 0.14299 0.51201 0.0
C1888 C 0.60484 0.42482 0.24921 0.0
C1889 C 0.62612 0.41924 0.25975 0.0
C1890 C 0.60342 0.45146 0.24208 0.0
C1891 C 0.62367 0.47295 0.24565 0.0
C1892 C 0.64485 0.46761 0.25647 0.0
C1893 C 0.64586 0.44077 0.26336 0.0
C1894 C 0.58062 0.45643 0.23055 0.0
C1895 C 0.6667 0.49012 0.26062 0.0
C1896 C 0.64179 0.53171 0.21843 0.0
C1897 C 0.62677 0.55507 0.22433 0.0
C1898 C 0.64022 0.50458 0.22501 0.0
C1899 C 0.62335 0.50084 0.23782 0.0
C1900 C 0.60749 0.52414 0.24359 0.0
C1901 C 0.60934 0.55101 0.23674 0.0
C1902 C 0.65725 0.48013 0.21848 0.0
C1903 C 0.58933 0.52091 0.25727 0.0
H1904 H 0.58953 0.40823 0.24638 0.0
H1905 H 0.66228 0.43661 0.27154 0.0
H1906 H 0.56774 0.47564 0.2334 0.0
H1907 H 0.59084 0.46065 0.21973 0.0
H1908 H 0.56594 0.43781 0.22938 0.0
H1909 H 0.68117 0.48285 0.26959 0.0
H1910 H 0.67994 0.49568 0.25087 0.0
H1911 H 0.6557 0.51 0.26424 0.0
H1912 H 0.65516 0.53469 0.20878 0.0
H1913 H 0.59764 0.569 0.24134 0.0
H1914 H 0.64309 0.46145 0.21644 0.0
H1915 H 0.67398 0.47317 0.2264 0.0
H1916 H 0.66786 0.48616 0.20797 0.0
H1917 H 0.57408 0.50284 0.25595 0.0
H1918 H 0.57699 0.54066 0.25983 0.0
H1919 H 0.60326 0.51579 0.26683 0.0
C1920 C 0.18272 0.85654 0.98774 0.0
C1921 C 0.18349 0.87388 0.97512 0.0
C1922 C 0.20744 0.85205 -0.00378 0.0
C1923 C 0.23345 0.86521 -0.00808 0.0
C1924 C 0.23467 0.88152 0.97879 0.0
C1925 C 0.20963 0.88569 0.97054 0.0
C1926 C 0.20538 0.83443 0.01013 0.0
C1927 C 0.26214 0.8957 0.97381 0.0
C1928 C 0.28816 0.88643 0.02067 0.0
C1929 C 0.30945 0.86563 0.01858 0.0
C1930 C 0.26283 0.8859 0.01239 0.0
C1931 C 0.25879 0.86408 0.00176 0.0
C1932 C 0.27967 0.84234 0.0 0.0
C1933 C 0.3048 0.84336 0.00847 0.0
C1934 C 0.24088 0.90932 0.01465 0.0
C1935 C 0.27598 0.81871 0.98879 0.0
H1936 H 0.16258 0.84723 -0.0087 0.0
H1937 H 0.21039 0.89896 0.96074 0.0
H1938 H 0.22281 0.81826 0.01051 0.0
H1939 H 0.20805 0.8486 0.01985 0.0
H1940 H 0.18444 0.82322 0.01109 0.0
H1941 H 0.26004 0.90567 0.96275 0.0
H1942 H 0.26831 0.91259 0.98182 0.0
H1943 H 0.27985 0.87983 0.97348 0.0
H1944 H 0.29157 0.9036 0.02853 0.0
H1945 H 0.3212 0.82719 0.00683 0.0
H1946 H 0.21947 0.89985 0.0168 0.0
H1947 H 0.2391 0.92243 0.0045 0.0
H1948 H 0.24651 0.92371 0.02397 0.0
H1949 H 0.25476 0.80828 -0.00988 0.0
H1950 H 0.29296 0.8021 -0.0103 0.0
H1951 H 0.27668 0.82793 0.97753 0.0
C1952 C 0.90538 0.43509 0.73561 0.0
C1953 C 0.88563 0.43405 0.72396 0.0
C1954 C 0.90732 0.45935 0.74468 0.0
C1955 C 0.8893 0.48311 0.74188 0.0
C1956 C 0.87095 0.48299 0.72945 0.0
C1957 C 0.86921 0.45835 0.72068 0.0
C1958 C 0.92715 0.45872 0.75782 0.0
C1959 C 0.85181 0.50821 0.72594 0.0
C1960 C 0.86047 0.52978 0.77249 0.0
C1961 C 0.87619 0.55503 0.77043 0.0
C1962 C 0.8658 0.50553 0.76381 0.0
C1963 C 0.88711 0.50678 0.75271 0.0
C1964 C 0.90423 0.53162 0.75118 0.0
C1965 C 0.89866 0.55546 0.76014 0.0
C1966 C 0.84748 0.47915 0.76596 0.0
C1967 C 0.92711 0.53372 0.73946 0.0
H1968 H 0.91819 0.41635 0.73818 0.0
H1969 H 0.85414 0.45773 0.71159 0.0
H1970 H 0.93927 0.47911 0.75875 0.0
H1971 H 0.91428 0.45633 0.76803 0.0
H1972 H 0.94264 0.44066 0.75723 0.0
H1973 H 0.84118 0.50596 0.71505 0.0
H1974 H 0.83496 0.51016 0.73452 0.0
H1975 H 0.86436 0.52842 0.72601 0.0
H1976 H 0.84326 0.52928 0.78052 0.0
H1977 H 0.91089 0.57497 0.75851 0.0
H1978 H 0.86115 0.45976 0.76682 0.0
H1979 H 0.83327 0.47625 0.75626 0.0
H1980 H 0.83388 0.48063 0.77598 0.0
H1981 H 0.94063 0.51416 0.73934 0.0
H1982 H 0.94114 0.55271 0.74107 0.0
H1983 H 0.91678 0.53545 0.72848 0.0
C1984 C 0.12205 0.41618 0.08146 0.0
C1985 C 0.11758 0.39337 0.07171 0.0
C1986 C 0.13249 0.41118 0.09571 0.0
C1987 C 0.13726 0.38264 0.10039 0.0
C1988 C 0.13417 0.3597 0.09029 0.0
C1989 C 0.12482 0.36545 0.07593 0.0
C1990 C 0.13671 0.43626 0.10599 0.0
C1991 C 0.13821 0.3289 0.09498 0.0
C1992 C 0.17156 0.36333 0.13695 0.0
C1993 C 0.14727 0.36034 0.14589 0.0
C1994 C 0.16885 0.37198 0.12221 0.0
C1995 C 0.14115 0.37637 0.11625 0.0
C1996 C 0.11661 0.37345 0.12532 0.0
C1997 C 0.12005 0.36601 0.14013 0.0
C1998 C 0.19547 0.37608 0.11299 0.0
C1999 C 0.08663 0.37712 0.11928 0.0
H2000 H 0.11671 0.43782 0.07807 0.0
H2001 H 0.12116 0.34785 0.06836 0.0
H2002 H 0.11874 0.43714 0.11399 0.0
H2003 H 0.15685 0.43377 0.11238 0.0
H2004 H 0.13743 0.45696 0.09995 0.0
H2005 H 0.13755 0.31387 0.08549 0.0
H2006 H 0.15893 0.32613 0.10079 0.0
H2007 H 0.12095 0.32287 0.10281 0.0
H2008 H 0.19261 0.35907 0.14153 0.0
H2009 H 0.1013 0.36338 0.14707 0.0
H2010 H 0.19478 0.39716 0.10733 0.0
H2011 H 0.19651 0.35934 0.10433 0.0
H2012 H 0.21536 0.37488 0.1197 0.0
H2013 H 0.08388 0.39908 0.11483 0.0
H2014 H 0.06987 0.37338 0.12776 0.0
H2015 H 0.08308 0.3619 0.11005 0.0
C2016 C 0.89728 0.9084 0.38493 0.0
C2017 C 0.88136 0.91302 0.39777 0.0
C2018 C 0.88353 0.90511 0.37134 0.0
C2019 C 0.85327 0.90751 0.3706 0.0
C2020 C 0.83749 0.91539 0.38327 0.0
C2021 C 0.85169 0.91743 0.39684 0.0
C2022 C 0.90115 0.89632 0.35812 0.0
C2023 C 0.80544 0.91969 0.38272 0.0
C2024 C 0.82821 0.9015 0.33119 0.0
C2025 C 0.82301 0.87194 0.33026 0.0
C2026 C 0.83528 0.91424 0.34471 0.0
C2027 C 0.83829 0.89672 0.35733 0.0
C2028 C 0.83096 0.86729 0.35663 0.0
C2029 C 0.82291 0.85537 0.34312 0.0
C2030 C 0.8414 0.94599 0.34522 0.0
C2031 C 0.83423 0.84772 0.3698 0.0
H2032 H 0.92024 0.90504 0.38568 0.0
H2033 H 0.83946 0.92151 0.40679 0.0
H2034 H 0.89545 0.87409 0.35487 0.0
H2035 H 0.89643 0.91043 0.3486 0.0
H2036 H 0.92456 0.89715 0.36035 0.0
H2037 H 0.79777 0.93271 0.39219 0.0
H2038 H 0.79895 0.93038 0.37232 0.0
H2039 H 0.79456 0.89857 0.38317 0.0
H2040 H 0.82784 0.91444 0.32127 0.0
H2041 H 0.81884 0.83252 0.34245 0.0
H2042 H 0.86483 0.9496 0.34423 0.0
H2043 H 0.83422 0.95546 0.35582 0.0
H2044 H 0.83069 0.95747 0.33601 0.0
H2045 H 0.8572 0.84638 0.37294 0.0
H2046 H 0.82631 0.82568 0.36756 0.0
H2047 H 0.82236 0.8564 0.37939 0.0
C2048 C 0.38322 0.65503 0.63958 0.0
C2049 C 0.35542 0.66209 0.64401 0.0
C2050 C 0.38838 0.6444 0.62539 0.0
C2051 C 0.36495 0.63965 0.61577 0.0
C2052 C 0.33673 0.6464 0.62034 0.0
C2053 C 0.33236 0.65814 0.63438 0.0
C2054 C 0.41887 0.63836 0.6207 0.0
C2055 C 0.31117 0.6406 0.61057 0.0
C2056 C 0.38081 0.63348 0.57499 0.0
C2057 C 0.38467 0.60387 0.57351 0.0
C2058 C 0.37407 0.64549 0.5887 0.0
C2059 C 0.37008 0.62724 0.60099 0.0
C2060 C 0.3725 0.59716 0.59933 0.0
C2061 C 0.38042 0.58584 0.58562 0.0
C2062 C 0.37264 0.67771 0.59019 0.0
C2063 C 0.36734 0.577 0.61207 0.0
H2064 H 0.40094 0.65832 0.64713 0.0
H2065 H 0.31085 0.66346 0.638 0.0
H2066 H 0.42163 0.61512 0.61856 0.0
H2067 H 0.4237 0.6498 0.61027 0.0
H2068 H 0.43472 0.64503 0.62916 0.0
H2069 H 0.2906 0.64663 0.61592 0.0
H2070 H 0.3132 0.65268 0.60011 0.0
H2071 H 0.31039 0.61748 0.6077 0.0
H2072 H 0.38449 0.64732 0.56558 0.0
H2073 H 0.38334 0.56291 0.58436 0.0
H2074 H 0.38962 0.68513 0.59787 0.0
H2075 H 0.35175 0.68428 0.59495 0.0
H2076 H 0.37553 0.6888 0.57946 0.0
H2077 H 0.38444 0.57974 0.62044 0.0
H2078 H 0.36708 0.55419 0.60854 0.0
H2079 H 0.34661 0.58205 0.61749 0.0
C2080 C 0.64191 0.10142 0.83086 0.0
C2081 C 0.64494 0.13134 0.8306 0.0
C2082 C 0.63373 0.08723 0.84382 0.0
C2083 C 0.62781 0.10351 0.85661 0.0
C2084 C 0.63185 0.13358 0.85653 0.0
C2085 C 0.64067 0.14708 0.84356 0.0
C2086 C 0.63044 0.05504 0.84368 0.0
C2087 C 0.62544 0.15174 0.86993 0.0
C2088 C 0.57266 0.08151 0.88473 0.0
C2089 C 0.58998 0.07661 0.89707 0.0
C2090 C 0.58485 0.08846 0.8711 0.0
C2091 C 0.61506 0.08988 0.86979 0.0
C2092 C 0.63266 0.08237 0.88187 0.0
C2093 C 0.61988 0.07616 0.89547 0.0
C2094 C 0.56536 0.09669 0.8585 0.0
C2095 C 0.66495 0.08276 0.88072 0.0
H2096 H 0.64551 0.08914 0.82088 0.0
H2097 H 0.64295 0.17021 0.84342 0.0
H2098 H 0.64064 0.04545 0.85356 0.0
H2099 H 0.60735 0.04938 0.844 0.0
H2100 H 0.64004 0.04525 0.83366 0.0
H2101 H 0.6305 0.17475 0.86813 0.0
H2102 H 0.60239 0.14986 0.87282 0.0
H2103 H 0.63797 0.14404 0.87953 0.0
H2104 H 0.54952 0.0818 0.88592 0.0
H2105 H 0.63333 0.07189 0.90497 0.0
H2106 H 0.57174 0.08538 0.84827 0.0
H2107 H 0.5673 0.12004 0.85637 0.0
H2108 H 0.54252 0.09172 0.86086 0.0
H2109 H 0.67211 0.07288 0.87023 0.0
H2110 H 0.67524 0.07126 0.89004 0.0
H2111 H 0.67263 0.10527 0.88079 0.0
C2112 C 0.12572 0.5838 0.33301 0.0
C2113 C 0.12958 0.6136 0.33362 0.0
C2114 C 0.11969 0.56809 0.34583 0.0
C2115 C 0.11632 0.58283 0.35934 0.0
C2116 C 0.12103 0.61281 0.36003 0.0
C2117 C 0.12807 0.62772 0.34719 0.0
C2118 C 0.11597 0.53602 0.34473 0.0
C2119 C 0.11725 0.6295 0.37419 0.0
C2120 C 0.06626 0.56271 0.38992 0.0
C2121 C 0.08586 0.55961 0.40148 0.0
C2122 C 0.07591 0.56732 0.37551 0.0
C2123 C 0.10577 0.56798 0.37269 0.0
C2124 C 0.12535 0.56065 0.38397 0.0
C2125 C 0.11518 0.55714 0.39838 0.0
C2126 C 0.05432 0.57504 0.36377 0.0
C2127 C 0.1572 0.55945 0.38114 0.0
H2128 H 0.12716 0.57282 0.3225 0.0
H2129 H 0.13092 0.65078 0.34767 0.0
H2130 H 0.12354 0.52504 0.35485 0.0
H2131 H 0.09292 0.53094 0.34327 0.0
H2132 H 0.12775 0.52718 0.3351 0.0
H2133 H 0.12132 0.65279 0.37274 0.0
H2134 H 0.09509 0.62669 0.37841 0.0
H2135 H 0.13213 0.6213 0.38274 0.0
H2136 H 0.04355 0.56444 0.39234 0.0
H2137 H 0.1303 0.55413 0.40733 0.0
H2138 H 0.05895 0.5634 0.3534 0.0
H2139 H 0.05579 0.59834 0.36138 0.0
H2140 H 0.03201 0.57011 0.36723 0.0
H2141 H 0.16175 0.54955 0.37027 0.0
H2142 H 0.16855 0.54713 0.38985 0.0
H2143 H 0.16603 0.58154 0.381 0.0
C2144 C 0.64439 0.86945 0.64552 0.0
C2145 C 0.6482 0.84008 0.6482 0.0
C2146 C 0.63652 0.87932 0.63149 0.0
C2147 C 0.63187 0.85925 0.62005 0.0
C2148 C 0.63678 0.82973 0.62255 0.0
C2149 C 0.64514 0.82054 0.63656 0.0
C2150 C 0.6321 0.91104 0.62907 0.0
C2151 C 0.63171 0.80763 0.61065 0.0
C2152 C 0.57736 0.87366 0.59024 0.0
C2153 C 0.59499 0.87751 0.5779 0.0
C2154 C 0.58918 0.86887 0.60419 0.0
C2155 C 0.61934 0.86846 0.60584 0.0
C2156 C 0.63727 0.87393 0.59359 0.0
C2157 C 0.62486 0.87809 0.57969 0.0
C2158 C 0.56937 0.86271 0.61698 0.0
C2159 C 0.66951 0.87428 0.59506 0.0
H2160 H 0.64702 0.88468 0.65444 0.0
H2161 H 0.64805 0.79781 0.63853 0.0
H2162 H 0.64302 0.91808 0.61883 0.0
H2163 H 0.60889 0.91554 0.62771 0.0
H2164 H 0.64025 0.92402 0.63844 0.0
H2165 H 0.63791 0.78569 0.61419 0.0
H2166 H 0.60866 0.80743 0.6076 0.0
H2167 H 0.64402 0.81317 0.6006 0.0
H2168 H 0.55426 0.8732 0.58891 0.0
H2169 H 0.63856 0.88146 0.57019 0.0
H2170 H 0.5744 0.87701 0.62639 0.0
H2171 H 0.5726 0.84032 0.62077 0.0
H2172 H 0.54643 0.86553 0.61402 0.0
H2173 H 0.67606 0.88765 0.60459 0.0
H2174 H 0.68016 0.88262 0.58498 0.0
H2175 H 0.6774 0.85221 0.59712 0.0
C2176 C 0.38509 0.36958 0.82289 0.0
C2177 C 0.35676 0.36328 0.81901 0.0
C2178 C 0.39216 0.37673 0.83742 0.0
C2179 C 0.37012 0.37864 0.84811 0.0
C2180 C 0.34119 0.37421 0.84397 0.0
C2181 C 0.3349 0.36592 0.82948 0.0
C2182 C 0.42335 0.38038 0.84151 0.0
C2183 C 0.31705 0.37719 0.85495 0.0
C2184 C 0.39035 0.36226 0.88757 0.0
C2185 C 0.39588 0.3897 0.89303 0.0
C2186 C 0.38184 0.35838 0.87292 0.0
C2187 C 0.3777 0.38269 0.86381 0.0
C2188 C 0.38209 0.41058 0.86953 0.0
C2189 C 0.39181 0.41372 0.88406 0.0
C2190 C 0.37828 0.32827 0.86706 0.0
C2191 C 0.37675 0.43696 0.8603 0.0
H2192 H 0.40198 0.36719 0.81476 0.0
H2193 H 0.31296 0.36117 0.82638 0.0
H2194 H 0.42675 0.4012 0.84714 0.0
H2195 H 0.4297 0.36325 0.84935 0.0
H2196 H 0.43772 0.37933 0.83176 0.0
H2197 H 0.2957 0.37714 0.84952 0.0
H2198 H 0.31779 0.35916 0.8629 0.0
H2199 H 0.31941 0.39735 0.86133 0.0
H2200 H 0.39376 0.34379 0.89462 0.0
H2201 H 0.39597 0.43493 0.88847 0.0
H2202 H 0.39296 0.32484 0.85759 0.0
H2203 H 0.3561 0.32509 0.86299 0.0
H2204 H 0.38285 0.31174 0.87555 0.0
H2205 H 0.39239 0.43787 0.85111 0.0
H2206 H 0.37863 0.45702 0.86683 0.0
H2207 H 0.35502 0.43602 0.85534 0.0
C2208 C 0.83635 0.1475 0.12825 0.0
C2209 C 0.8313 0.13182 0.14113 0.0
C2210 C 0.84173 0.13355 0.1149 0.0
C2211 C 0.8411 0.10319 0.11438 0.0
C2212 C 0.83328 0.08736 0.12704 0.0
C2213 C 0.82901 0.10188 0.1404 0.0
C2214 C 0.85036 0.15127 0.10168 0.0
C2215 C 0.83105 0.05509 0.12675 0.0
C2216 C 0.84865 0.07967 0.07491 0.0
C2217 C 0.87854 0.07692 0.07391 0.0
C2218 C 0.83545 0.08498 0.08852 0.0
C2219 C 0.85273 0.08858 0.10119 0.0
C2220 C 0.88257 0.08317 0.10043 0.0
C2221 C 0.89506 0.07697 0.08679 0.0
C2222 C 0.80337 0.089 0.08911 0.0
C2223 C 0.90182 0.08694 0.11368 0.0
H2224 H 0.8381 0.17066 0.12879 0.0
H2225 H 0.82464 0.08974 0.15034 0.0
H2226 H 0.87287 0.1463 0.09863 0.0
H2227 H 0.8367 0.14594 0.09208 0.0
H2228 H 0.84867 0.17467 0.10381 0.0
H2229 H 0.81712 0.04705 0.13578 0.0
H2230 H 0.82243 0.0474 0.11606 0.0
H2231 H 0.85267 0.04562 0.12823 0.0
H2232 H 0.83574 0.07902 0.06499 0.0
H2233 H 0.91815 0.07463 0.08608 0.0
H2234 H 0.79827 0.11223 0.08892 0.0
H2235 H 0.79438 0.07994 0.09943 0.0
H2236 H 0.79261 0.07875 0.07954 0.0
H2237 H 0.90247 0.10994 0.11682 0.0
H2238 H 0.9241 0.07964 0.11151 0.0
H2239 H 0.89331 0.07485 0.12324 0.0
C2240 C 0.81414 0.66202 0.84858 0.0
C2241 C 0.8169 0.64032 0.83799 0.0
C2242 C 0.82194 0.6571 0.86327 0.0
C2243 C 0.83212 0.62969 0.86742 0.0
C2244 C 0.8317 0.60688 0.85714 0.0
C2245 C 0.82437 0.61255 0.84246 0.0
C2246 C 0.82226 0.68205 0.87387 0.0
C2247 C 0.84156 0.57714 0.86128 0.0
C2248 C 0.89341 0.62803 0.89461 0.0
C2249 C 0.87939 0.62101 0.90775 0.0
C2250 C 0.8781 0.63109 0.88146 0.0
C2251 C 0.8481 0.62637 0.88141 0.0
C2252 C 0.8338 0.61893 0.89461 0.0
C2253 C 0.84962 0.61666 0.90771 0.0
C2254 C 0.89408 0.63956 0.86764 0.0
C2255 C 0.80196 0.61311 0.89484 0.0
H2256 H 0.80823 0.68352 0.84521 0.0
H2257 H 0.82604 0.59559 0.83433 0.0
H2258 H 0.81392 0.67562 0.88482 0.0
H2259 H 0.8447 0.6894 0.87542 0.0
H2260 H 0.80939 0.70041 0.86974 0.0
H2261 H 0.83454 0.56088 0.8531 0.0
H2262 H 0.86532 0.57673 0.86184 0.0
H2263 H 0.83326 0.57099 0.8723 0.0
H2264 H 0.91639 0.63159 0.89464 0.0
H2265 H 0.83879 0.61097 0.91787 0.0
H2266 H 0.88471 0.65945 0.86296 0.0
H2267 H 0.89193 0.6225 0.8592 0.0
H2268 H 0.91727 0.64328 0.86969 0.0
H2269 H 0.79003 0.63218 0.89088 0.0
H2270 H 0.79411 0.60751 0.90603 0.0
H2271 H 0.79685 0.5952 0.88724 0.0
C2272 C 0.07399 0.09557 0.59168 0.0
C2273 C 0.09288 0.09074 0.57993 0.0
C2274 C 0.08435 0.10188 0.60577 0.0
C2275 C 0.1143 0.10276 0.6082 0.0
C2276 C 0.13348 0.09647 0.59656 0.0
C2277 C 0.12252 0.09087 0.58247 0.0
C2278 C 0.06325 0.10906 0.61786 0.0
C2279 C 0.16554 0.09661 0.59888 0.0
C2280 C 0.13802 0.15336 0.63823 0.0
C2281 C 0.14069 0.13483 0.65031 0.0
C2282 C 0.13013 0.143 0.62437 0.0
C2283 C 0.12535 0.11329 0.62248 0.0
C2284 C 0.12921 0.09425 0.63446 0.0
C2285 C 0.13653 0.10531 0.64833 0.0
C2286 C 0.12573 0.16404 0.61191 0.0
C2287 C 0.1249 0.06236 0.63269 0.0
H2288 H 0.05105 0.09553 0.58974 0.0
H2289 H 0.13715 0.08676 0.57343 0.0
H2290 H 0.06741 0.09569 0.62773 0.0
H2291 H 0.06595 0.1318 0.62118 0.0
H2292 H 0.04065 0.10577 0.61437 0.0
H2293 H 0.17728 0.08778 0.58924 0.0
H2294 H 0.17299 0.11889 0.60078 0.0
H2295 H 0.17125 0.08392 0.60879 0.0
H2296 H 0.14107 0.17622 0.6397 0.0
H2297 H 0.13884 0.09091 0.65763 0.0
H2298 H 0.10301 0.1635 0.60828 0.0
H2299 H 0.13911 0.15798 0.6023 0.0
H2300 H 0.13115 0.18637 0.61513 0.0
H2301 H 0.10193 0.05778 0.63056 0.0
H2302 H 0.13164 0.05024 0.64264 0.0
H2303 H 0.1372 0.05435 0.62307 0.0
C2304 C 0.58577 0.40084 0.38929 0.0
C2305 C 0.60421 0.40094 0.40148 0.0
C2306 C 0.59592 0.39365 0.37526 0.0
C2307 C 0.62535 0.38724 0.37335 0.0
C2308 C 0.64455 0.39016 0.38533 0.0
C2309 C 0.63366 0.39654 0.39936 0.0
C2310 C 0.57465 0.39035 0.36282 0.0
C2311 C 0.67624 0.38463 0.38355 0.0
C2312 C 0.63937 0.32985 0.34491 0.0
C2313 C 0.64491 0.34626 0.33232 0.0
C2314 C 0.63391 0.34302 0.35847 0.0
C2315 C 0.63487 0.3733 0.35952 0.0
C2316 C 0.64227 0.38991 0.34705 0.0
C2317 C 0.64672 0.37618 0.33348 0.0
C2318 C 0.62554 0.32455 0.37146 0.0
C2319 C 0.64451 0.42215 0.34791 0.0
H2320 H 0.56298 0.40425 0.39088 0.0
H2321 H 0.64803 0.39703 0.40874 0.0
H2322 H 0.58219 0.40179 0.35285 0.0
H2323 H 0.57263 0.36731 0.35991 0.0
H2324 H 0.55305 0.39859 0.36579 0.0
H2325 H 0.68878 0.39335 0.39294 0.0
H2326 H 0.68013 0.3612 0.38294 0.0
H2327 H 0.68433 0.39428 0.37317 0.0
H2328 H 0.63787 0.30672 0.34401 0.0
H2329 H 0.65133 0.38886 0.32375 0.0
H2330 H 0.60339 0.32993 0.375 0.0
H2331 H 0.63994 0.3288 0.38093 0.0
H2332 H 0.62642 0.30129 0.36886 0.0
H2333 H 0.62275 0.43159 0.34875 0.0
H2334 H 0.65522 0.43132 0.33804 0.0
H2335 H 0.65661 0.4287 0.35788 0.0
C2336 C 0.40614 0.89409 0.10299 0.0
C2337 C 0.38762 0.89465 0.09084 0.0
C2338 C 0.39592 0.88726 0.11705 0.0
C2339 C 0.36636 0.88156 0.11901 0.0
C2340 C 0.34717 0.88459 0.10704 0.0
C2341 C 0.35811 0.89073 0.093 0.0
C2342 C 0.41713 0.88381 0.1295 0.0
C2343 C 0.31539 0.87962 0.10886 0.0
C2344 C 0.35028 0.8261 0.14814 0.0
C2345 C 0.34446 0.84331 0.16041 0.0
C2346 C 0.35666 0.83838 0.13448 0.0
C2347 C 0.35646 0.8686 0.133 0.0
C2348 C 0.34909 0.88608 0.14516 0.0
C2349 C 0.34357 0.87321 0.15883 0.0
C2350 C 0.36493 0.81903 0.12181 0.0
C2351 C 0.34782 0.91831 0.14383 0.0
H2352 H 0.42897 0.89712 0.10137 0.0
H2353 H 0.34368 0.89156 0.08364 0.0
H2354 H 0.40985 0.89573 0.13939 0.0
H2355 H 0.41861 0.86083 0.13259 0.0
H2356 H 0.4389 0.89147 0.12647 0.0
H2357 H 0.30299 0.88785 0.0993 0.0
H2358 H 0.31119 0.8563 0.1099 0.0
H2359 H 0.3074 0.89009 0.11904 0.0
H2360 H 0.35107 0.80299 0.14936 0.0
H2361 H 0.33873 0.88653 0.1683 0.0
H2362 H 0.38729 0.82368 0.11836 0.0
H2363 H 0.3509 0.82312 0.11218 0.0
H2364 H 0.36341 0.79594 0.12473 0.0
H2365 H 0.3698 0.92699 0.14244 0.0
H2366 H 0.33803 0.92846 0.15369 0.0
H2367 H 0.3353 0.9246 0.13394 0.0
C2368 C 0.84313 0.32592 0.64266 0.0
C2369 C 0.8455 0.34684 0.65369 0.0
C2370 C 0.84977 0.33234 0.62799 0.0
C2371 C 0.85841 0.36049 0.62427 0.0
C2372 C 0.85864 0.38223 0.63515 0.0
C2373 C 0.8525 0.37506 0.64981 0.0
C2374 C 0.84969 0.30848 0.61673 0.0
C2375 C 0.86706 0.41266 0.63148 0.0
C2376 C 0.91272 0.36837 0.59367 0.0
C2377 C 0.89538 0.37619 0.58174 0.0
C2378 C 0.90081 0.363 0.60753 0.0
C2379 C 0.87089 0.36617 0.60956 0.0
C2380 C 0.85323 0.37429 0.5976 0.0
C2381 C 0.86568 0.37889 0.58373 0.0
C2382 C 0.92027 0.35376 0.61997 0.0
C2383 C 0.82133 0.37842 0.5995 0.0
H2384 H 0.83772 0.30405 0.6456 0.0
H2385 H 0.85397 0.39137 0.65829 0.0
H2386 H 0.83834 0.31525 0.60658 0.0
H2387 H 0.8721 0.30331 0.6136 0.0
H2388 H 0.83938 0.28869 0.62101 0.0
H2389 H 0.86191 0.42773 0.64059 0.0
H2390 H 0.89046 0.41366 0.62936 0.0
H2391 H 0.85599 0.41997 0.62134 0.0
H2392 H 0.93566 0.36606 0.59211 0.0
H2393 H 0.85229 0.38518 0.57451 0.0
H2394 H 0.91297 0.33288 0.62447 0.0
H2395 H 0.9193 0.36962 0.62906 0.0
H2396 H 0.94296 0.35155 0.61641 0.0
H2397 H 0.81131 0.35824 0.60339 0.0
H2398 H 0.81068 0.3851 0.58911 0.0
H2399 H 0.81722 0.39496 0.60804 0.0
C2400 C 0.33356 0.15724 0.34304 0.0
C2401 C 0.32702 0.14138 0.33039 0.0
C2402 C 0.34098 0.14349 0.35619 0.0
C2403 C 0.34105 0.11316 0.35676 0.0
C2404 C 0.33244 0.09704 0.34433 0.0
C2405 C 0.32596 0.11137 0.33116 0.0
C2406 C 0.35052 0.16145 0.36915 0.0
C2407 C 0.33128 0.06471 0.34473 0.0
C2408 C 0.39552 0.08495 0.38376 0.0
C2409 C 0.37902 0.08289 0.39662 0.0
C2410 C 0.38301 0.0932 0.37042 0.0
C2411 C 0.35319 0.09873 0.36988 0.0
C2412 C 0.33602 0.09416 0.38251 0.0
C2413 C 0.34925 0.08672 0.39585 0.0
C2414 C 0.40214 0.09829 0.35723 0.0
C2415 C 0.304 0.09878 0.38218 0.0
H2416 H 0.33447 0.18044 0.34246 0.0
H2417 H 0.32055 0.09909 0.3214 0.0
H2418 H 0.33791 0.15588 0.3791 0.0
H2419 H 0.37338 0.15691 0.37164 0.0
H2420 H 0.34817 0.1848 0.36706 0.0
H2421 H 0.31931 0.05581 0.33519 0.0
H2422 H 0.35337 0.05594 0.34449 0.0
H2423 H 0.32101 0.05718 0.35506 0.0
H2424 H 0.41855 0.082 0.38433 0.0
H2425 H 0.3364 0.08471 0.40575 0.0
H2426 H 0.40261 0.12154 0.35464 0.0
H2427 H 0.39362 0.08703 0.34741 0.0
H2428 H 0.42449 0.09095 0.35918 0.0
H2429 H 0.29934 0.1221 0.38214 0.0
H2430 H 0.29325 0.08908 0.3919 0.0
H2431 H 0.29457 0.08953 0.372 0.0
C2432 C 0.63109 0.64698 0.14091 0.0
C2433 C 0.63847 0.63096 0.15337 0.0
C2434 C 0.62441 0.63341 0.12759 0.0
C2435 C 0.62593 0.60314 0.12667 0.0
C2436 C 0.63456 0.5869 0.13905 0.0
C2437 C 0.64033 0.60102 0.15237 0.0
C2438 C 0.61475 0.65143 0.11468 0.0
C2439 C 0.63721 0.55467 0.1383 0.0
C2440 C 0.57755 0.57279 0.09727 0.0
C2441 C 0.59604 0.57234 0.0851 0.0
C2442 C 0.58742 0.58125 0.11116 0.0
C2443 C 0.61663 0.58871 0.11295 0.0
C2444 C 0.63592 0.58576 0.10101 0.0
C2445 C 0.6253 0.57795 0.08713 0.0
C2446 C 0.56609 0.58454 0.12358 0.0
C2447 C 0.66739 0.59262 0.10266 0.0
H2448 H 0.62954 0.67013 0.1417 0.0
H2449 H 0.64638 0.58864 0.16199 0.0
H2450 H 0.62885 0.64756 0.10504 0.0
H2451 H 0.59266 0.64523 0.11143 0.0
H2452 H 0.61495 0.67473 0.11721 0.0
H2453 H 0.64698 0.54556 0.14844 0.0
H2454 H 0.61571 0.54496 0.13679 0.0
H2455 H 0.65045 0.54835 0.12868 0.0
H2456 H 0.55489 0.56849 0.09575 0.0
H2457 H 0.63972 0.57727 0.07776 0.0
H2458 H 0.56323 0.60765 0.12611 0.0
H2459 H 0.5741 0.57402 0.13372 0.0
H2460 H 0.54481 0.57531 0.12078 0.0
H2461 H 0.67028 0.6162 0.10329 0.0
H2462 H 0.68018 0.58445 0.09322 0.0
H2463 H 0.67601 0.5833 0.113 0.0
C2464 C 0.14298 0.81709 0.84303 0.0
C2465 C 0.14584 0.83609 0.83116 0.0
C2466 C 0.13859 0.82735 0.85735 0.0
C2467 C 0.13766 0.85728 0.85984 0.0
C2468 C 0.14284 0.87652 0.84808 0.0
C2469 C 0.14653 0.86568 0.83381 0.0
C2470 C 0.13271 0.80618 0.86958 0.0
C2471 C 0.14273 0.90857 0.85041 0.0
C2472 C 0.08795 0.88342 0.88983 0.0
C2473 C 0.10698 0.88801 0.90153 0.0
C2474 C 0.09778 0.87336 0.87623 0.0
C2475 C 0.12745 0.86837 0.87419 0.0
C2476 C 0.14689 0.87344 0.88587 0.0
C2477 C 0.13635 0.88291 0.89951 0.0
C2478 C 0.0763 0.86769 0.8641 0.0
C2479 C 0.17872 0.86891 0.88393 0.0
H2480 H 0.14241 0.79419 0.84101 0.0
H2481 H 0.14913 0.88041 0.82467 0.0
H2482 H 0.14573 0.81131 0.87945 0.0
H2483 H 0.10982 0.80761 0.87284 0.0
H2484 H 0.13731 0.78375 0.86619 0.0
H2485 H 0.15148 0.92027 0.84074 0.0
H2486 H 0.12043 0.91598 0.85232 0.0
H2487 H 0.15548 0.91435 0.86029 0.0
H2488 H 0.0652 0.88713 0.8914 0.0
H2489 H 0.15111 0.88666 0.90853 0.0
H2490 H 0.07768 0.84497 0.86054 0.0
H2491 H 0.08128 0.88118 0.85437 0.0
H2492 H 0.05392 0.87219 0.8676 0.0
H2493 H 0.18313 0.84613 0.88127 0.0
H2494 H 0.19105 0.87481 0.89395 0.0
H2495 H 0.18665 0.88192 0.87454 0.0
loop_
_geom_bond_atom_site_label_1
_geom_bond_atom_site_label_2
_geom_bond_distance
_geom_bond_site_symmetry_2
_ccdc_geom_bond_type
C0 O1 1.306 . S
C0 O3 1.160 . S
O1 C0 1.306 . S
O1 Cd2 2.228 . S
Cd2 O1 2.228 . S
Cd2 O6 2.273 . S
Cd2 O10 2.277 . S
O3 C0 1.160 . S
O3 Cd4 2.203 . S
Cd4 O3 2.203 . S
Cd4 O6 2.411 . S
Cd4 O7 2.333 . S
Cd4 O8 2.352 . S
Cd4 O12 2.277 . S
Cd4 O13 2.356 . S
C5 O10 1.209 . S
C5 O12 1.226 . S
O6 Cd2 2.273 . S
O6 Cd4 2.411 . S
O6 C9 1.320 . S
O7 Cd4 2.333 . S
O7 C9 1.214 . S
O8 Cd4 2.352 . S
O8 C11 1.258 . S
C9 O6 1.320 . S
C9 O7 1.214 . S
O10 Cd2 2.277 . S
O10 C5 1.209 . S
C11 O8 1.258 . S
C11 O13 1.282 . S
O12 Cd4 2.277 . S
O12 C5 1.226 . S
O13 Cd4 2.356 . S
O13 C11 1.282 . S
C14 O15 1.306 . S
C14 O17 1.160 . S
O15 C14 1.306 . S
O15 Cd16 2.228 . S
Cd16 O15 2.228 . S
Cd16 O20 2.273 . S
Cd16 O24 2.277 . S
O17 C14 1.160 . S
O17 Cd18 2.203 . S
Cd18 O17 2.203 . S
Cd18 O20 2.411 . S
Cd18 O21 2.333 . S
Cd18 O22 2.352 . S
Cd18 O26 2.277 . S
Cd18 O27 2.356 . S
C19 O24 1.209 . S
C19 O26 1.226 . S
O20 Cd16 2.273 . S
O20 Cd18 2.411 . S
O20 C23 1.320 . S
O21 Cd18 2.333 . S
O21 C23 1.214 . S
O22 Cd18 2.352 . S
O22 C25 1.258 . S
C23 O20 1.320 . S
C23 O21 1.214 . S
O24 Cd16 2.277 . S
O24 C19 1.209 . S
C25 O22 1.258 . S
C25 O27 1.282 . S
O26 Cd18 2.277 . S
O26 C19 1.226 . S
O27 Cd18 2.356 . S
O27 C25 1.282 . S
C28 O29 1.306 . S
C28 O31 1.160 . S
O29 C28 1.306 . S
O29 Cd30 2.228 . S
Cd30 O29 2.228 . S
Cd30 O34 2.273 . S
Cd30 O38 2.277 . S
O31 C28 1.160 . S
O31 Cd32 2.203 . S
Cd32 O31 2.203 . S
Cd32 O34 2.411 . S
Cd32 O35 2.333 . S
Cd32 O36 2.352 . S
Cd32 O40 2.277 . S
Cd32 O41 2.356 . S
C33 O38 1.209 . S
C33 O40 1.226 . S
O34 Cd30 2.273 . S
O34 Cd32 2.411 . S
O34 C37 1.320 . S
O35 Cd32 2.333 . S
O35 C37 1.214 . S
O36 Cd32 2.352 . S
O36 C39 1.258 . S
C37 O34 1.320 . S
C37 O35 1.214 . S
O38 Cd30 2.277 . S
O38 C33 1.209 . S
C39 O36 1.258 . S
C39 O41 1.282 . S
O40 Cd32 2.277 . S
O40 C33 1.226 . S
O41 Cd32 2.356 . S
O41 C39 1.282 . S
C42 O43 1.306 . S
C42 O45 1.160 . S
O43 C42 1.306 . S
O43 Cd44 2.228 . S
Cd44 O43 2.228 . S
Cd44 O48 2.273 . S
Cd44 O52 2.277 . S
O45 C42 1.160 . S
O45 Cd46 2.203 . S
Cd46 O45 2.203 . S
Cd46 O48 2.411 . S
Cd46 O49 2.333 . S
Cd46 O50 2.352 . S
Cd46 O54 2.277 . S
Cd46 O55 2.356 . S
C47 O52 1.209 . S
C47 O54 1.226 . S
O48 Cd44 2.273 . S
O48 Cd46 2.411 . S
O48 C51 1.320 . S
O49 Cd46 2.333 . S
O49 C51 1.214 . S
O50 Cd46 2.352 . S
O50 C53 1.258 . S
C51 O48 1.320 . S
C51 O49 1.214 . S
O52 Cd44 2.277 . S
O52 C47 1.209 . S
C53 O50 1.258 . S
C53 O55 1.282 . S
O54 Cd46 2.277 . S
O54 C47 1.226 . S
O55 Cd46 2.356 . S
O55 C53 1.282 . S
C56 O57 1.306 . S
C56 O59 1.160 . S
O57 C56 1.306 . S
O57 Cd58 2.228 . S
Cd58 O57 2.228 . S
Cd58 O62 2.273 . S
Cd58 O66 2.277 . S
O59 C56 1.160 . S
O59 Cd60 2.203 . S
Cd60 O59 2.203 . S
Cd60 O62 2.411 . S
Cd60 O63 2.333 . S
Cd60 O64 2.352 . S
Cd60 O68 2.277 . S
Cd60 O69 2.356 . S
C61 O66 1.209 . S
C61 O68 1.226 . S
O62 Cd58 2.273 . S
O62 Cd60 2.411 . S
O62 C65 1.320 . S
O63 Cd60 2.333 . S
O63 C65 1.214 . S
O64 Cd60 2.352 . S
O64 C67 1.258 . S
C65 O62 1.320 . S
C65 O63 1.214 . S
O66 Cd58 2.277 . S
O66 C61 1.209 . S
C67 O64 1.258 . S
C67 O69 1.282 . S
O68 Cd60 2.277 . S
O68 C61 1.226 . S
O69 Cd60 2.356 . S
O69 C67 1.282 . S
C70 O71 1.306 . S
C70 O73 1.160 . S
O71 C70 1.306 . S
O71 Cd72 2.228 . S
Cd72 O71 2.228 . S
Cd72 O76 2.273 . S
Cd72 O80 2.277 . S
O73 C70 1.160 . S
O73 Cd74 2.203 . S
Cd74 O73 2.203 . S
Cd74 O76 2.411 . S
Cd74 O77 2.333 . S
Cd74 O78 2.352 . S
Cd74 O82 2.277 . S
Cd74 O83 2.356 . S
C75 O80 1.209 . S
C75 O82 1.226 . S
O76 Cd72 2.273 . S
O76 Cd74 2.411 . S
O76 C79 1.320 . S
O77 Cd74 2.333 . S
O77 C79 1.214 . S
O78 Cd74 2.352 . S
O78 C81 1.258 . S
C79 O76 1.320 . S
C79 O77 1.214 . S
O80 Cd72 2.277 . S
O80 C75 1.209 . S
C81 O78 1.258 . S
C81 O83 1.282 . S
O82 Cd74 2.277 . S
O82 C75 1.226 . S
O83 Cd74 2.356 . S
O83 C81 1.282 . S
C84 O85 1.306 . S
C84 O87 1.160 . S
O85 C84 1.306 . S
O85 Cd86 2.228 . S
Cd86 O85 2.228 . S
Cd86 O90 2.273 . S
Cd86 O94 2.277 . S
O87 C84 1.160 . S
O87 Cd88 2.203 . S
Cd88 O87 2.203 . S
Cd88 O90 2.411 . S
Cd88 O91 2.333 . S
Cd88 O92 2.352 . S
Cd88 O96 2.277 . S
Cd88 O97 2.356 . S
C89 O94 1.209 . S
C89 O96 1.226 . S
O90 Cd86 2.273 . S
O90 Cd88 2.411 . S
O90 C93 1.320 . S
O91 Cd88 2.333 . S
O91 C93 1.214 . S
O92 Cd88 2.352 . S
O92 C95 1.258 . S
C93 O90 1.320 . S
C93 O91 1.214 . S
O94 Cd86 2.277 . S
O94 C89 1.209 . S
C95 O92 1.258 . S
C95 O97 1.282 . S
O96 Cd88 2.277 . S
O96 C89 1.226 . S
O97 Cd88 2.356 . S
O97 C95 1.282 . S
C98 O99 1.306 . S
C98 O101 1.160 . S
O99 C98 1.306 . S
O99 Cd100 2.228 . S
Cd100 O99 2.228 . S
Cd100 O104 2.273 . S
Cd100 O108 2.277 . S
O101 C98 1.160 . S
O101 Cd102 2.203 . S
Cd102 O101 2.203 . S
Cd102 O104 2.411 . S
Cd102 O105 2.333 . S
Cd102 O106 2.352 . S
Cd102 O110 2.277 . S
Cd102 O111 2.356 . S
C103 O108 1.209 . S
C103 O110 1.226 . S
O104 Cd100 2.273 . S
O104 Cd102 2.411 . S
O104 C107 1.320 . S
O105 Cd102 2.333 . S
O105 C107 1.214 . S
O106 Cd102 2.352 . S
O106 C109 1.258 . S
C107 O104 1.320 . S
C107 O105 1.214 . S
O108 Cd100 2.277 . S
O108 C103 1.209 . S
C109 O106 1.258 . S
C109 O111 1.282 . S
O110 Cd102 2.277 . S
O110 C103 1.226 . S
O111 Cd102 2.356 . S
O111 C109 1.282 . S
C112 O113 1.306 . S
C112 O115 1.160 . S
O113 C112 1.306 . S
O113 Cd114 2.228 . S
Cd114 O113 2.228 . S
Cd114 O118 2.273 . S
Cd114 O122 2.277 . S
O115 C112 1.160 . S
O115 Cd116 2.203 . S
Cd116 O115 2.203 . S
Cd116 O118 2.411 . S
Cd116 O119 2.333 . S
Cd116 O120 2.352 . S
Cd116 O124 2.277 . S
Cd116 O125 2.356 . S
C117 O122 1.209 . S
C117 O124 1.226 . S
O118 Cd114 2.273 . S
O118 Cd116 2.411 . S
O118 C121 1.320 . S
O119 Cd116 2.333 . S
O119 C121 1.214 . S
O120 Cd116 2.352 . S
O120 C123 1.258 . S
C121 O118 1.320 . S
C121 O119 1.214 . S
O122 Cd114 2.277 . S
O122 C117 1.209 . S
C123 O120 1.258 . S
C123 O125 1.282 . S
O124 Cd116 2.277 . S
O124 C117 1.226 . S
O125 Cd116 2.356 . S
O125 C123 1.282 . S
C126 O127 1.306 . S
C126 O129 1.160 . S
O127 C126 1.306 . S
O127 Cd128 2.228 . S
Cd128 O127 2.228 . S
Cd128 O132 2.273 . S
Cd128 O136 2.277 . S
O129 C126 1.160 . S
O129 Cd130 2.203 . S
Cd130 O129 2.203 . S
Cd130 O132 2.411 . S
Cd130 O133 2.333 . S
Cd130 O134 2.352 . S
Cd130 O138 2.277 . S
Cd130 O139 2.356 . S
C131 O136 1.209 . S
C131 O138 1.226 . S
O132 Cd128 2.273 . S
O132 Cd130 2.411 . S
O132 C135 1.320 . S
O133 Cd130 2.333 . S
O133 C135 1.214 . S
O134 Cd130 2.352 . S
O134 C137 1.258 . S
C135 O132 1.320 . S
C135 O133 1.214 . S
O136 Cd128 2.277 . S
O136 C131 1.209 . S
C137 O134 1.258 . S
C137 O139 1.282 . S
O138 Cd130 2.277 . S
O138 C131 1.226 . S
O139 Cd130 2.356 . S
O139 C137 1.282 . S
C140 O141 1.306 . S
C140 O143 1.160 . S
O141 C140 1.306 . S
O141 Cd142 2.228 . S
Cd142 O141 2.228 . S
Cd142 O146 2.273 . S
Cd142 O150 2.277 . S
O143 C140 1.160 . S
O143 Cd144 2.203 . S
Cd144 O143 2.203 . S
Cd144 O146 2.411 . S
Cd144 O147 2.333 . S
Cd144 O148 2.352 . S
Cd144 O152 2.277 . S
Cd144 O153 2.356 . S
C145 O150 1.209 . S
C145 O152 1.226 . S
O146 Cd142 2.273 . S
O146 Cd144 2.411 . S
O146 C149 1.320 . S
O147 Cd144 2.333 . S
O147 C149 1.214 . S
O148 Cd144 2.352 . S
O148 C151 1.258 . S
C149 O146 1.320 . S
C149 O147 1.214 . S
O150 Cd142 2.277 . S
O150 C145 1.209 . S
C151 O148 1.258 . S
C151 O153 1.282 . S
O152 Cd144 2.277 . S
O152 C145 1.226 . S
O153 Cd144 2.356 . S
O153 C151 1.282 . S
C154 O155 1.306 . S
C154 O157 1.160 . S
O155 C154 1.306 . S
O155 Cd156 2.228 . S
Cd156 O155 2.228 . S
Cd156 O160 2.273 . S
Cd156 O164 2.277 . S
O157 C154 1.160 . S
O157 Cd158 2.203 . S
Cd158 O157 2.203 . S
Cd158 O160 2.411 . S
Cd158 O161 2.333 . S
Cd158 O162 2.352 . S
Cd158 O166 2.277 . S
Cd158 O167 2.356 . S
C159 O164 1.209 . S
C159 O166 1.226 . S
O160 Cd156 2.273 . S
O160 Cd158 2.411 . S
O160 C163 1.320 . S
O161 Cd158 2.333 . S
O161 C163 1.214 . S
O162 Cd158 2.352 . S
O162 C165 1.258 . S
C163 O160 1.320 . S
C163 O161 1.214 . S
O164 Cd156 2.277 . S
O164 C159 1.209 . S
C165 O162 1.258 . S
C165 O167 1.282 . S
O166 Cd158 2.277 . S
O166 C159 1.226 . S
O167 Cd158 2.356 . S
O167 C165 1.282 . S
C168 O169 1.306 . S
C168 O171 1.160 . S
O169 C168 1.306 . S
O169 Cd170 2.228 . S
Cd170 O169 2.228 . S
Cd170 O174 2.273 . S
Cd170 O178 2.277 . S
O171 C168 1.160 . S
O171 Cd172 2.203 . S
Cd172 O171 2.203 . S
Cd172 O174 2.411 . S
Cd172 O175 2.333 . S
Cd172 O176 2.352 . S
Cd172 O180 2.277 . S
Cd172 O181 2.356 . S
C173 O178 1.209 . S
C173 O180 1.226 . S
O174 Cd170 2.273 . S
O174 Cd172 2.411 . S
O174 C177 1.320 . S
O175 Cd172 2.333 . S
O175 C177 1.214 . S
O176 Cd172 2.352 . S
O176 C179 1.258 . S
C177 O174 1.320 . S
C177 O175 1.214 . S
O178 Cd170 2.277 . S
O178 C173 1.209 . S
C179 O176 1.258 . S
C179 O181 1.282 . S
O180 Cd172 2.277 . S
O180 C173 1.226 . S
O181 Cd172 2.356 . S
O181 C179 1.282 . S
C182 O183 1.306 . S
C182 O185 1.160 . S
O183 C182 1.306 . S
O183 Cd184 2.228 . S
Cd184 O183 2.228 . S
Cd184 O188 2.273 . S
Cd184 O192 2.277 . S
O185 C182 1.160 . S
O185 Cd186 2.203 . S
Cd186 O185 2.203 . S
Cd186 O188 2.411 . S
Cd186 O189 2.333 . S
Cd186 O190 2.352 . S
Cd186 O194 2.277 . S
Cd186 O195 2.356 . S
C187 O192 1.209 . S
C187 O194 1.226 . S
O188 Cd184 2.273 . S
O188 Cd186 2.411 . S
O188 C191 1.320 . S
O189 Cd186 2.333 . S
O189 C191 1.214 . S
O190 Cd186 2.352 . S
O190 C193 1.258 . S
C191 O188 1.320 . S
C191 O189 1.214 . S
O192 Cd184 2.277 . S
O192 C187 1.209 . S
C193 O190 1.258 . S
C193 O195 1.282 . S
O194 Cd186 2.277 . S
O194 C187 1.226 . S
O195 Cd186 2.356 . S
O195 C193 1.282 . S
C196 O197 1.306 . S
C196 O199 1.160 . S
O197 C196 1.306 . S
O197 Cd198 2.228 . S
Cd198 O197 2.228 . S
Cd198 O202 2.273 . S
Cd198 O206 2.277 . S
O199 C196 1.160 . S
O199 Cd200 2.203 . S
Cd200 O199 2.203 . S
Cd200 O202 2.411 . S
Cd200 O203 2.333 . S
Cd200 O204 2.352 . S
Cd200 O208 2.277 . S
Cd200 O209 2.356 . S
C201 O206 1.209 . S
C201 O208 1.226 . S
O202 Cd198 2.273 . S
O202 Cd200 2.411 . S
O202 C205 1.320 . S
O203 Cd200 2.333 . S
O203 C205 1.214 . S
O204 Cd200 2.352 . S
O204 C207 1.258 . S
C205 O202 1.320 . S
C205 O203 1.214 . S
O206 Cd198 2.277 . S
O206 C201 1.209 . S
C207 O204 1.258 . S
C207 O209 1.282 . S
O208 Cd200 2.277 . S
O208 C201 1.226 . S
O209 Cd200 2.356 . S
O209 C207 1.282 . S
C210 O211 1.306 . S
C210 O213 1.160 . S
O211 C210 1.306 . S
O211 Cd212 2.228 . S
Cd212 O211 2.228 . S
Cd212 O216 2.273 . S
Cd212 O220 2.277 . S
O213 C210 1.160 . S
O213 Cd214 2.203 . S
Cd214 O213 2.203 . S
Cd214 O216 2.411 . S
Cd214 O217 2.333 . S
Cd214 O218 2.352 . S
Cd214 O222 2.277 . S
Cd214 O223 2.356 . S
C215 O220 1.209 . S
C215 O222 1.226 . S
O216 Cd212 2.273 . S
O216 Cd214 2.411 . S
O216 C219 1.320 . S
O217 Cd214 2.333 . S
O217 C219 1.214 . S
O218 Cd214 2.352 . S
O218 C221 1.258 . S
C219 O216 1.320 . S
C219 O217 1.214 . S
O220 Cd212 2.277 . S
O220 C215 1.209 . S
C221 O218 1.258 . S
C221 O223 1.282 . S
O222 Cd214 2.277 . S
O222 C215 1.226 . S
O223 Cd214 2.356 . S
O223 C221 1.282 . S
C224 O225 1.306 . S
C224 O227 1.160 . S
O225 C224 1.306 . S
O225 Cd226 2.228 . S
Cd226 O225 2.228 . S
Cd226 O230 2.273 . S
Cd226 O234 2.277 . S
O227 C224 1.160 . S
O227 Cd228 2.203 . S
Cd228 O227 2.203 . S
Cd228 O230 2.411 . S
Cd228 O231 2.333 . S
Cd228 O232 2.352 . S
Cd228 O236 2.277 . S
Cd228 O237 2.356 . S
C229 O234 1.209 . S
C229 O236 1.226 . S
O230 Cd226 2.273 . S
O230 Cd228 2.411 . S
O230 C233 1.320 . S
O231 Cd228 2.333 . S
O231 C233 1.214 . S
O232 Cd228 2.352 . S
O232 C235 1.258 . S
C233 O230 1.320 . S
C233 O231 1.214 . S
O234 Cd226 2.277 . S
O234 C229 1.209 . S
C235 O232 1.258 . S
C235 O237 1.282 . S
O236 Cd228 2.277 . S
O236 C229 1.226 . S
O237 Cd228 2.356 . S
O237 C235 1.282 . S
C238 O239 1.306 . S
C238 O241 1.160 . S
O239 C238 1.306 . S
O239 Cd240 2.228 . S
Cd240 O239 2.228 . S
Cd240 O244 2.273 . S
Cd240 O248 2.277 . S
O241 C238 1.160 . S
O241 Cd242 2.203 . S
Cd242 O241 2.203 . S
Cd242 O244 2.411 . S
Cd242 O245 2.333 . S
Cd242 O246 2.352 . S
Cd242 O250 2.277 . S
Cd242 O251 2.356 . S
C243 O248 1.209 . S
C243 O250 1.226 . S
O244 Cd240 2.273 . S
O244 Cd242 2.411 . S
O244 C247 1.320 . S
O245 Cd242 2.333 . S
O245 C247 1.214 . S
O246 Cd242 2.352 . S
O246 C249 1.258 . S
C247 O244 1.320 . S
C247 O245 1.214 . S
O248 Cd240 2.277 . S
O248 C243 1.209 . S
C249 O246 1.258 . S
C249 O251 1.282 . S
O250 Cd242 2.277 . S
O250 C243 1.226 . S
O251 Cd242 2.356 . S
O251 C249 1.282 . S
C252 O253 1.306 . S
C252 O255 1.160 . S
O253 C252 1.306 . S
O253 Cd254 2.228 . S
Cd254 O253 2.228 . S
Cd254 O258 2.273 . S
Cd254 O262 2.277 . S
O255 C252 1.160 . S
O255 Cd256 2.203 . S
Cd256 O255 2.203 . S
Cd256 O258 2.411 . S
Cd256 O259 2.333 . S
Cd256 O260 2.352 . S
Cd256 O264 2.277 . S
Cd256 O265 2.356 . S
C257 O262 1.209 . S
C257 O264 1.226 . S
O258 Cd254 2.273 . S
O258 Cd256 2.411 . S
O258 C261 1.320 . S
O259 Cd256 2.333 . S
O259 C261 1.214 . S
O260 Cd256 2.352 . S
O260 C263 1.258 . S
C261 O258 1.320 . S
C261 O259 1.214 . S
O262 Cd254 2.277 . S
O262 C257 1.209 . S
C263 O260 1.258 . S
C263 O265 1.282 . S
O264 Cd256 2.277 . S
O264 C257 1.226 . S
O265 Cd256 2.356 . S
O265 C263 1.282 . S
C266 O267 1.306 . S
C266 O269 1.160 . S
O267 C266 1.306 . S
O267 Cd268 2.228 . S
Cd268 O267 2.228 . S
Cd268 O272 2.273 . S
Cd268 O276 2.277 . S
O269 C266 1.160 . S
O269 Cd270 2.203 . S
Cd270 O269 2.203 . S
Cd270 O272 2.411 . S
Cd270 O273 2.333 . S
Cd270 O274 2.352 . S
Cd270 O278 2.277 . S
Cd270 O279 2.356 . S
C271 O276 1.209 . S
C271 O278 1.226 . S
O272 Cd268 2.273 . S
O272 Cd270 2.411 . S
O272 C275 1.320 . S
O273 Cd270 2.333 . S
O273 C275 1.214 . S
O274 Cd270 2.352 . S
O274 C277 1.258 . S
C275 O272 1.320 . S
C275 O273 1.214 . S
O276 Cd268 2.277 . S
O276 C271 1.209 . S
C277 O274 1.258 . S
C277 O279 1.282 . S
O278 Cd270 2.277 . S
O278 C271 1.226 . S
O279 Cd270 2.356 . S
O279 C277 1.282 . S
C280 O281 1.306 . S
C280 O283 1.160 . S
O281 C280 1.306 . S
O281 Cd282 2.228 . S
Cd282 O281 2.228 . S
Cd282 O286 2.273 . S
Cd282 O290 2.277 . S
O283 C280 1.160 . S
O283 Cd284 2.203 . S
Cd284 O283 2.203 . S
Cd284 O286 2.411 . S
Cd284 O287 2.333 . S
Cd284 O288 2.352 . S
Cd284 O292 2.277 . S
Cd284 O293 2.356 . S
C285 O290 1.209 . S
C285 O292 1.226 . S
O286 Cd282 2.273 . S
O286 Cd284 2.411 . S
O286 C289 1.320 . S
O287 Cd284 2.333 . S
O287 C289 1.214 . S
O288 Cd284 2.352 . S
O288 C291 1.258 . S
C289 O286 1.320 . S
C289 O287 1.214 . S
O290 Cd282 2.277 . S
O290 C285 1.209 . S
C291 O288 1.258 . S
C291 O293 1.282 . S
O292 Cd284 2.277 . S
O292 C285 1.226 . S
O293 Cd284 2.356 . S
O293 C291 1.282 . S
C294 O295 1.306 . S
C294 O297 1.160 . S
O295 C294 1.306 . S
O295 Cd296 2.228 . S
Cd296 O295 2.228 . S
Cd296 O300 2.273 . S
Cd296 O304 2.277 . S
O297 C294 1.160 . S
O297 Cd298 2.203 . S
Cd298 O297 2.203 . S
Cd298 O300 2.411 . S
Cd298 O301 2.333 . S
Cd298 O302 2.352 . S
Cd298 O306 2.277 . S
Cd298 O307 2.356 . S
C299 O304 1.209 . S
C299 O306 1.226 . S
O300 Cd296 2.273 . S
O300 Cd298 2.411 . S
O300 C303 1.320 . S
O301 Cd298 2.333 . S
O301 C303 1.214 . S
O302 Cd298 2.352 . S
O302 C305 1.258 . S
C303 O300 1.320 . S
C303 O301 1.214 . S
O304 Cd296 2.277 . S
O304 C299 1.209 . S
C305 O302 1.258 . S
C305 O307 1.282 . S
O306 Cd298 2.277 . S
O306 C299 1.226 . S
O307 Cd298 2.356 . S
O307 C305 1.282 . S
C308 O309 1.306 . S
C308 O311 1.160 . S
O309 C308 1.306 . S
O309 Cd310 2.228 . S
Cd310 O309 2.228 . S
Cd310 O314 2.273 . S
Cd310 O318 2.277 . S
O311 C308 1.160 . S
O311 Cd312 2.203 . S
Cd312 O311 2.203 . S
Cd312 O314 2.411 . S
Cd312 O315 2.333 . S
Cd312 O316 2.352 . S
Cd312 O320 2.277 . S
Cd312 O321 2.356 . S
C313 O318 1.209 . S
C313 O320 1.226 . S
O314 Cd310 2.273 . S
O314 Cd312 2.411 . S
O314 C317 1.320 . S
O315 Cd312 2.333 . S
O315 C317 1.214 . S
O316 Cd312 2.352 . S
O316 C319 1.258 . S
C317 O314 1.320 . S
C317 O315 1.214 . S
O318 Cd310 2.277 . S
O318 C313 1.209 . S
C319 O316 1.258 . S
C319 O321 1.282 . S
O320 Cd312 2.277 . S
O320 C313 1.226 . S
O321 Cd312 2.356 . S
O321 C319 1.282 . S
C322 O323 1.306 . S
C322 O325 1.160 . S
O323 C322 1.306 . S
O323 Cd324 2.228 . S
Cd324 O323 2.228 . S
Cd324 O328 2.273 . S
Cd324 O332 2.277 . S
O325 C322 1.160 . S
O325 Cd326 2.203 . S
Cd326 O325 2.203 . S
Cd326 O328 2.411 . S
Cd326 O329 2.333 . S
Cd326 O330 2.352 . S
Cd326 O334 2.277 . S
Cd326 O335 2.356 . S
C327 O332 1.209 . S
C327 O334 1.226 . S
O328 Cd324 2.273 . S
O328 Cd326 2.411 . S
O328 C331 1.320 . S
O329 Cd326 2.333 . S
O329 C331 1.214 . S
O330 Cd326 2.352 . S
O330 C333 1.258 . S
C331 O328 1.320 . S
C331 O329 1.214 . S
O332 Cd324 2.277 . S
O332 C327 1.209 . S
C333 O330 1.258 . S
C333 O335 1.282 . S
O334 Cd326 2.277 . S
O334 C327 1.226 . S
O335 Cd326 2.356 . S
O335 C333 1.282 . S
C336 O337 1.306 . S
C336 O339 1.160 . S
O337 C336 1.306 . S
O337 Cd338 2.228 . S
Cd338 O337 2.228 . S
Cd338 O342 2.273 . S
Cd338 O346 2.277 . S
O339 C336 1.160 . S
O339 Cd340 2.203 . S
Cd340 O339 2.203 . S
Cd340 O342 2.411 . S
Cd340 O343 2.333 . S
Cd340 O344 2.352 . S
Cd340 O348 2.277 . S
Cd340 O349 2.356 . S
C341 O346 1.209 . S
C341 O348 1.226 . S
O342 Cd338 2.273 . S
O342 Cd340 2.411 . S
O342 C345 1.320 . S
O343 Cd340 2.333 . S
O343 C345 1.214 . S
O344 Cd340 2.352 . S
O344 C347 1.258 . S
C345 O342 1.320 . S
C345 O343 1.214 . S
O346 Cd338 2.277 . S
O346 C341 1.209 . S
C347 O344 1.258 . S
C347 O349 1.282 . S
O348 Cd340 2.277 . S
O348 C341 1.226 . S
O349 Cd340 2.356 . S
O349 C347 1.282 . S
C350 O351 1.306 . S
C350 O353 1.160 . S
O351 C350 1.306 . S
O351 Cd352 2.228 . S
Cd352 O351 2.228 . S
Cd352 O356 2.273 . S
Cd352 O360 2.277 . S
O353 C350 1.160 . S
O353 Cd354 2.203 . S
Cd354 O353 2.203 . S
Cd354 O356 2.411 . S
Cd354 O357 2.333 . S
Cd354 O358 2.352 . S
Cd354 O362 2.277 . S
Cd354 O363 2.356 . S
C355 O360 1.209 . S
C355 O362 1.226 . S
O356 Cd352 2.273 . S
O356 Cd354 2.411 . S
O356 C359 1.320 . S
O357 Cd354 2.333 . S
O357 C359 1.214 . S
O358 Cd354 2.352 . S
O358 C361 1.258 . S
C359 O356 1.320 . S
C359 O357 1.214 . S
O360 Cd352 2.277 . S
O360 C355 1.209 . S
C361 O358 1.258 . S
C361 O363 1.282 . S
O362 Cd354 2.277 . S
O362 C355 1.226 . S
O363 Cd354 2.356 . S
O363 C361 1.282 . S
C364 O365 1.306 . S
C364 O367 1.160 . S
O365 C364 1.306 . S
O365 Cd366 2.228 . S
Cd366 O365 2.228 . S
Cd366 O370 2.273 . S
Cd366 O374 2.277 . S
O367 C364 1.160 . S
O367 Cd368 2.203 . S
Cd368 O367 2.203 . S
Cd368 O370 2.411 . S
Cd368 O371 2.333 . S
Cd368 O372 2.352 . S
Cd368 O376 2.277 . S
Cd368 O377 2.356 . S
C369 O374 1.209 . S
C369 O376 1.226 . S
O370 Cd366 2.273 . S
O370 Cd368 2.411 . S
O370 C373 1.320 . S
O371 Cd368 2.333 . S
O371 C373 1.214 . S
O372 Cd368 2.352 . S
O372 C375 1.258 . S
C373 O370 1.320 . S
C373 O371 1.214 . S
O374 Cd366 2.277 . S
O374 C369 1.209 . S
C375 O372 1.258 . S
C375 O377 1.282 . S
O376 Cd368 2.277 . S
O376 C369 1.226 . S
O377 Cd368 2.356 . S
O377 C375 1.282 . S
C378 O379 1.306 . S
C378 O381 1.160 . S
O379 C378 1.306 . S
O379 Cd380 2.228 . S
Cd380 O379 2.228 . S
Cd380 O384 2.273 . S
Cd380 O388 2.277 . S
O381 C378 1.160 . S
O381 Cd382 2.203 . S
Cd382 O381 2.203 . S
Cd382 O384 2.411 . S
Cd382 O385 2.333 . S
Cd382 O386 2.352 . S
Cd382 O390 2.277 . S
Cd382 O391 2.356 . S
C383 O388 1.209 . S
C383 O390 1.226 . S
O384 Cd380 2.273 . S
O384 Cd382 2.411 . S
O384 C387 1.320 . S
O385 Cd382 2.333 . S
O385 C387 1.214 . S
O386 Cd382 2.352 . S
O386 C389 1.258 . S
C387 O384 1.320 . S
C387 O385 1.214 . S
O388 Cd380 2.277 . S
O388 C383 1.209 . S
C389 O386 1.258 . S
C389 O391 1.282 . S
O390 Cd382 2.277 . S
O390 C383 1.226 . S
O391 Cd382 2.356 . S
O391 C389 1.282 . S
C392 O393 1.306 . S
C392 O395 1.160 . S
O393 C392 1.306 . S
O393 Cd394 2.228 . S
Cd394 O393 2.228 . S
Cd394 O398 2.273 . S
Cd394 O402 2.277 . S
O395 C392 1.160 . S
O395 Cd396 2.203 . S
Cd396 O395 2.203 . S
Cd396 O398 2.411 . S
Cd396 O399 2.333 . S
Cd396 O400 2.352 . S
Cd396 O404 2.277 . S
Cd396 O405 2.356 . S
C397 O402 1.209 . S
C397 O404 1.226 . S
O398 Cd394 2.273 . S
O398 Cd396 2.411 . S
O398 C401 1.320 . S
O399 Cd396 2.333 . S
O399 C401 1.214 . S
O400 Cd396 2.352 . S
O400 C403 1.258 . S
C401 O398 1.320 . S
C401 O399 1.214 . S
O402 Cd394 2.277 . S
O402 C397 1.209 . S
C403 O400 1.258 . S
C403 O405 1.282 . S
O404 Cd396 2.277 . S
O404 C397 1.226 . S
O405 Cd396 2.356 . S
O405 C403 1.282 . S
C406 O407 1.306 . S
C406 O409 1.160 . S
O407 C406 1.306 . S
O407 Cd408 2.228 . S
Cd408 O407 2.228 . S
Cd408 O412 2.273 . S
Cd408 O416 2.277 . S
O409 C406 1.160 . S
O409 Cd410 2.203 . S
Cd410 O409 2.203 . S
Cd410 O412 2.411 . S
Cd410 O413 2.333 . S
Cd410 O414 2.352 . S
Cd410 O418 2.277 . S
Cd410 O419 2.356 . S
C411 O416 1.209 . S
C411 O418 1.226 . S
O412 Cd408 2.273 . S
O412 Cd410 2.411 . S
O412 C415 1.320 . S
O413 Cd410 2.333 . S
O413 C415 1.214 . S
O414 Cd410 2.352 . S
O414 C417 1.258 . S
C415 O412 1.320 . S
C415 O413 1.214 . S
O416 Cd408 2.277 . S
O416 C411 1.209 . S
C417 O414 1.258 . S
C417 O419 1.282 . S
O418 Cd410 2.277 . S
O418 C411 1.226 . S
O419 Cd410 2.356 . S
O419 C417 1.282 . S
C420 O421 1.306 . S
C420 O423 1.160 . S
O421 C420 1.306 . S
O421 Cd422 2.228 . S
Cd422 O421 2.228 . S
Cd422 O426 2.273 . S
Cd422 O430 2.277 . S
O423 C420 1.160 . S
O423 Cd424 2.203 . S
Cd424 O423 2.203 . S
Cd424 O426 2.411 . S
Cd424 O427 2.333 . S
Cd424 O428 2.352 . S
Cd424 O432 2.277 . S
Cd424 O433 2.356 . S
C425 O430 1.209 . S
C425 O432 1.226 . S
O426 Cd422 2.273 . S
O426 Cd424 2.411 . S
O426 C429 1.320 . S
O427 Cd424 2.333 . S
O427 C429 1.214 . S
O428 Cd424 2.352 . S
O428 C431 1.258 . S
C429 O426 1.320 . S
C429 O427 1.214 . S
O430 Cd422 2.277 . S
O430 C425 1.209 . S
C431 O428 1.258 . S
C431 O433 1.282 . S
O432 Cd424 2.277 . S
O432 C425 1.226 . S
O433 Cd424 2.356 . S
O433 C431 1.282 . S
C434 O435 1.306 . S
C434 O437 1.160 . S
O435 C434 1.306 . S
O435 Cd436 2.228 . S
Cd436 O435 2.228 . S
Cd436 O440 2.273 . S
Cd436 O444 2.277 . S
O437 C434 1.160 . S
O437 Cd438 2.203 . S
Cd438 O437 2.203 . S
Cd438 O440 2.411 . S
Cd438 O441 2.333 . S
Cd438 O442 2.352 . S
Cd438 O446 2.277 . S
Cd438 O447 2.356 . S
C439 O444 1.209 . S
C439 O446 1.226 . S
O440 Cd436 2.273 . S
O440 Cd438 2.411 . S
O440 C443 1.320 . S
O441 Cd438 2.333 . S
O441 C443 1.214 . S
O442 Cd438 2.352 . S
O442 C445 1.258 . S
C443 O440 1.320 . S
C443 O441 1.214 . S
O444 Cd436 2.277 . S
O444 C439 1.209 . S
C445 O442 1.258 . S
C445 O447 1.282 . S
O446 Cd438 2.277 . S
O446 C439 1.226 . S
O447 Cd438 2.356 . S
O447 C445 1.282 . S
C448 C449 1.391 . S
C448 C450 1.394 . S
C448 H464 0.931 . S
C449 C448 1.391 . S
C449 C453 1.376 . S
C450 C448 1.394 . S
C450 C451 1.369 . S
C450 C454 1.531 1_655 S
C451 C450 1.369 . S
C451 C452 1.410 1_556 S
C451 C459 1.503 1_656 S
C452 C451 1.410 1_554 S
C452 C453 1.392 1_554 S
C452 C455 1.511 . S
C453 C449 1.376 . S
C453 C452 1.392 1_556 S
C453 H465 0.929 1_556 S
C454 C450 1.531 1_455 S
C454 H466 0.960 . S
C454 H467 0.962 . S
C454 H468 0.960 . S
C455 C452 1.511 . S
C455 H469 0.961 . S
C455 H470 0.961 . S
C455 H471 0.961 . S
C456 C457 1.370 . S
C456 C458 1.363 . S
C456 H472 0.931 . S
C457 C456 1.370 . S
C457 C461 1.408 . S
C458 C456 1.363 . S
C458 C459 1.370 . S
C458 C462 1.522 1_454 S
C459 C451 1.503 1_454 S
C459 C458 1.370 . S
C459 C460 1.403 . S
C460 C459 1.403 . S
C460 C461 1.404 . S
C460 C463 1.539 . S
C461 C457 1.408 . S
C461 C460 1.404 . S
C461 H473 0.930 . S
C462 C458 1.522 1_656 S
C462 H474 0.961 . S
C462 H475 0.959 1_556 S
C462 H476 0.959 1_556 S
C463 C460 1.539 . S
C463 H477 0.953 . S
C463 H478 0.961 . S
C463 H479 0.960 . S
H464 C448 0.931 . S
H465 C453 0.929 1_554 S
H466 C454 0.960 . S
H467 C454 0.962 . S
H468 C454 0.960 . S
H469 C455 0.961 . S
H470 C455 0.961 . S
H471 C455 0.961 . S
H472 C456 0.931 . S
H473 C461 0.930 . S
H474 C462 0.961 . S
H475 C462 0.959 1_554 S
H476 C462 0.959 1_554 S
H477 C463 0.953 . S
H478 C463 0.961 . S
H479 C463 0.960 . S
C480 C481 1.391 . S
C480 C482 1.394 . S
C480 H496 0.931 . S
C481 C480 1.391 . S
C481 C485 1.376 . S
C482 C480 1.394 . S
C482 C483 1.369 . S
C482 C486 1.531 . S
C483 C482 1.369 . S
C483 C484 1.410 . S
C483 C491 1.503 . S
C484 C483 1.410 . S
C484 C485 1.392 . S
C484 C487 1.511 . S
C485 C481 1.376 . S
C485 C484 1.392 . S
C485 H497 0.929 . S
C486 C482 1.531 . S
C486 H498 0.960 . S
C486 H499 0.962 . S
C486 H500 0.960 . S
C487 C484 1.511 . S
C487 H501 0.961 . S
C487 H502 0.961 . S
C487 H503 0.961 . S
C488 C489 1.370 . S
C488 C490 1.363 . S
C488 H504 0.931 . S
C489 C488 1.370 . S
C489 C493 1.408 . S
C490 C488 1.363 . S
C490 C491 1.370 . S
C490 C494 1.524 . S
C491 C483 1.503 . S
C491 C490 1.370 . S
C491 C492 1.403 . S
C492 C491 1.403 . S
C492 C493 1.404 . S
C492 C495 1.539 . S
C493 C489 1.408 . S
C493 C492 1.404 . S
C493 H505 0.930 . S
C494 C490 1.524 . S
C494 H506 0.956 . S
C494 H507 0.961 . S
C494 H508 0.961 . S
C495 C492 1.539 . S
C495 H509 0.958 . S
C495 H510 0.961 . S
C495 H511 0.960 . S
H496 C480 0.931 . S
H497 C485 0.929 . S
H498 C486 0.960 . S
H499 C486 0.962 . S
H500 C486 0.960 . S
H501 C487 0.961 . S
H502 C487 0.961 . S
H503 C487 0.961 . S
H504 C488 0.931 . S
H505 C493 0.930 . S
H506 C494 0.956 . S
H507 C494 0.961 . S
H508 C494 0.961 . S
H509 C495 0.958 . S
H510 C495 0.961 . S
H511 C495 0.960 . S
C512 C513 1.391 . S
C512 C514 1.394 . S
C512 H528 0.931 . S
C513 C512 1.391 . S
C513 C517 1.376 . S
C514 C512 1.394 . S
C514 C515 1.369 . S
C514 C518 1.531 . S
C515 C514 1.369 . S
C515 C516 1.410 . S
C515 C523 1.503 . S
C516 C515 1.410 . S
C516 C517 1.392 . S
C516 C519 1.511 . S
C517 C513 1.376 . S
C517 C516 1.392 . S
C517 H529 0.929 . S
C518 C514 1.531 . S
C518 H530 0.960 . S
C518 H531 0.962 . S
C518 H532 0.960 . S
C519 C516 1.511 . S
C519 H533 0.961 . S
C519 H534 0.961 . S
C519 H535 0.961 . S
C520 C521 1.370 . S
C520 C522 1.363 . S
C520 H536 0.931 . S
C521 C520 1.370 . S
C521 C525 1.408 . S
C522 C520 1.363 . S
C522 C523 1.370 . S
C522 C526 1.524 . S
C523 C515 1.503 . S
C523 C522 1.370 . S
C523 C524 1.403 . S
C524 C523 1.403 . S
C524 C525 1.404 . S
C524 C527 1.539 . S
C525 C521 1.408 . S
C525 C524 1.404 . S
C525 H537 0.930 . S
C526 C522 1.524 . S
C526 H538 0.956 . S
C526 H539 0.961 . S
C526 H540 0.961 . S
C527 C524 1.539 . S
C527 H541 0.958 . S
C527 H542 0.961 . S
C527 H543 0.960 . S
H528 C512 0.931 . S
H529 C517 0.929 . S
H530 C518 0.960 . S
H531 C518 0.962 . S
H532 C518 0.960 . S
H533 C519 0.961 . S
H534 C519 0.961 . S
H535 C519 0.961 . S
H536 C520 0.931 . S
H537 C525 0.930 . S
H538 C526 0.956 . S
H539 C526 0.961 . S
H540 C526 0.961 . S
H541 C527 0.958 . S
H542 C527 0.961 . S
H543 C527 0.960 . S
C544 C545 1.391 . S
C544 C546 1.394 . S
C544 H560 0.931 . S
C545 C544 1.391 . S
C545 C549 1.376 . S
C546 C544 1.394 . S
C546 C547 1.369 . S
C546 C550 1.531 . S
C547 C546 1.369 . S
C547 C548 1.410 . S
C547 C555 1.503 . S
C548 C547 1.410 . S
C548 C549 1.392 . S
C548 C551 1.511 . S
C549 C545 1.376 . S
C549 C548 1.392 . S
C549 H561 0.929 . S
C550 C546 1.531 . S
C550 H562 0.960 . S
C550 H563 0.962 . S
C550 H564 0.960 . S
C551 C548 1.511 . S
C551 H565 0.961 . S
C551 H566 0.961 . S
C551 H567 0.961 . S
C552 C553 1.370 . S
C552 C554 1.363 . S
C552 H568 0.931 . S
C553 C552 1.370 . S
C553 C557 1.408 . S
C554 C552 1.363 . S
C554 C555 1.370 . S
C554 C558 1.524 . S
C555 C547 1.503 . S
C555 C554 1.370 . S
C555 C556 1.403 . S
C556 C555 1.403 . S
C556 C557 1.404 . S
C556 C559 1.539 . S
C557 C553 1.408 . S
C557 C556 1.404 . S
C557 H569 0.930 . S
C558 C554 1.524 . S
C558 H570 0.956 . S
C558 H571 0.961 . S
C558 H572 0.961 . S
C559 C556 1.539 . S
C559 H573 0.958 . S
C559 H574 0.961 . S
C559 H575 0.960 . S
H560 C544 0.931 . S
H561 C549 0.929 . S
H562 C550 0.960 . S
H563 C550 0.962 . S
H564 C550 0.960 . S
H565 C551 0.961 . S
H566 C551 0.961 . S
H567 C551 0.961 . S
H568 C552 0.931 . S
H569 C557 0.930 . S
H570 C558 0.956 . S
H571 C558 0.961 . S
H572 C558 0.961 . S
H573 C559 0.958 . S
H574 C559 0.961 . S
H575 C559 0.960 . S
C576 C577 1.391 . S
C576 C578 1.394 . S
C576 H592 0.931 . S
C577 C576 1.391 . S
C577 C581 1.376 . S
C578 C576 1.394 . S
C578 C579 1.369 . S
C578 C582 1.531 1_655 S
C579 C578 1.369 . S
C579 C580 1.410 . S
C579 C587 1.503 1_655 S
C580 C579 1.410 . S
C580 C581 1.392 . S
C580 C583 1.511 . S
C581 C577 1.376 . S
C581 C580 1.392 . S
C581 H593 0.929 . S
C582 C578 1.531 1_455 S
C582 H594 0.960 . S
C582 H595 0.949 1_455 S
C582 H596 0.960 . S
C583 C580 1.511 . S
C583 H597 0.961 . S
C583 H598 0.961 . S
C583 H599 0.961 . S
C584 C585 1.370 . S
C584 C586 1.363 . S
C584 H600 0.931 . S
C585 C584 1.370 . S
C585 C589 1.408 . S
C586 C584 1.363 . S
C586 C587 1.370 . S
C586 C590 1.524 1_455 S
C587 C579 1.503 1_455 S
C587 C586 1.370 . S
C587 C588 1.403 . S
C588 C587 1.403 . S
C588 C589 1.404 . S
C588 C591 1.539 . S
C589 C585 1.408 . S
C589 C588 1.404 . S
C589 H601 0.930 . S
C590 C586 1.524 1_655 S
C590 H602 0.956 . S
C590 H603 0.961 . S
C590 H604 0.961 . S
C591 C588 1.539 . S
C591 H605 0.958 . S
C591 H606 0.961 . S
C591 H607 0.960 . S
H592 C576 0.931 . S
H593 C581 0.929 . S
H594 C582 0.960 . S
H595 C582 0.949 1_655 S
H596 C582 0.960 . S
H597 C583 0.961 . S
H598 C583 0.961 . S
H599 C583 0.961 . S
H600 C584 0.931 . S
H601 C589 0.930 . S
H602 C590 0.956 . S
H603 C590 0.961 . S
H604 C590 0.961 . S
H605 C591 0.958 . S
H606 C591 0.961 . S
H607 C591 0.960 . S
C608 C609 1.391 . S
C608 C610 1.394 . S
C608 H624 0.931 . S
C609 C608 1.391 . S
C609 C613 1.376 . S
C610 C608 1.394 . S
C610 C611 1.369 . S
C610 C614 1.531 . S
C611 C610 1.369 . S
C611 C612 1.410 . S
C611 C619 1.503 . S
C612 C611 1.410 . S
C612 C613 1.392 . S
C612 C615 1.511 . S
C613 C609 1.376 . S
C613 C612 1.392 . S
C613 H625 0.929 . S
C614 C610 1.531 . S
C614 H626 0.960 . S
C614 H627 0.962 . S
C614 H628 0.960 . S
C615 C612 1.511 . S
C615 H629 0.961 . S
C615 H630 0.961 . S
C615 H631 0.961 . S
C616 C617 1.370 . S
C616 C618 1.363 . S
C616 H632 0.931 . S
C617 C616 1.370 . S
C617 C621 1.408 . S
C618 C616 1.363 . S
C618 C619 1.370 . S
C618 C622 1.524 . S
C619 C611 1.503 . S
C619 C618 1.370 . S
C619 C620 1.403 . S
C620 C619 1.403 . S
C620 C621 1.404 . S
C620 C623 1.539 . S
C621 C617 1.408 . S
C621 C620 1.404 . S
C621 H633 0.930 . S
C622 C618 1.524 . S
C622 H634 0.956 . S
C622 H635 0.961 . S
C622 H636 0.961 . S
C623 C620 1.539 . S
C623 H637 0.958 . S
C623 H638 0.961 . S
C623 H639 0.960 . S
H624 C608 0.931 . S
H625 C613 0.929 . S
H626 C614 0.960 . S
H627 C614 0.962 . S
H628 C614 0.960 . S
H629 C615 0.961 . S
H630 C615 0.961 . S
H631 C615 0.961 . S
H632 C616 0.931 . S
H633 C621 0.930 . S
H634 C622 0.956 . S
H635 C622 0.961 . S
H636 C622 0.961 . S
H637 C623 0.958 . S
H638 C623 0.961 . S
H639 C623 0.960 . S
C640 C641 1.391 . S
C640 C642 1.394 1_556 S
C640 H656 0.931 1_556 S
C641 C640 1.391 . S
C641 C645 1.376 . S
C642 C640 1.394 1_554 S
C642 C643 1.369 1_554 S
C642 C646 1.531 . S
C643 C642 1.369 1_556 S
C643 C644 1.410 . S
C643 C651 1.503 1_556 S
C644 C643 1.410 . S
C644 C645 1.392 . S
C644 C647 1.511 . S
C645 C641 1.376 . S
C645 C644 1.392 . S
C645 H657 0.929 . S
C646 C642 1.531 . S
C646 H658 0.960 . S
C646 H659 0.962 . S
C646 H660 0.960 . S
C647 C644 1.511 . S
C647 H661 0.961 . S
C647 H662 0.961 . S
C647 H663 0.961 . S
C648 C649 1.370 . S
C648 C650 1.363 . S
C648 H664 0.931 . S
C649 C648 1.370 . S
C649 C653 1.408 . S
C650 C648 1.363 . S
C650 C651 1.370 . S
C650 C654 1.522 . S
C651 C643 1.503 1_554 S
C651 C650 1.370 . S
C651 C652 1.403 . S
C652 C651 1.403 . S
C652 C653 1.404 . S
C652 C655 1.539 . S
C653 C649 1.408 . S
C653 C652 1.404 . S
C653 H665 0.930 . S
C654 C650 1.522 . S
C654 H666 0.953 . S
C654 H667 0.967 1_554 S
C654 H668 0.960 . S
C655 C652 1.539 . S
C655 H669 0.958 . S
C655 H670 0.961 . S
C655 H671 0.960 1_554 S
H656 C640 0.931 1_554 S
H657 C645 0.929 . S
H658 C646 0.960 . S
H659 C646 0.962 . S
H660 C646 0.960 . S
H661 C647 0.961 . S
H662 C647 0.961 . S
H663 C647 0.961 . S
H664 C648 0.931 . S
H665 C653 0.930 . S
H666 C654 0.953 . S
H667 C654 0.967 1_556 S
H668 C654 0.960 . S
H669 C655 0.958 . S
H670 C655 0.961 . S
H671 C655 0.960 1_556 S
C672 C673 1.391 . S
C672 C674 1.394 . S
C672 H688 0.931 . S
C673 C672 1.391 . S
C673 C677 1.376 . S
C674 C672 1.394 . S
C674 C675 1.369 . S
C674 C678 1.531 . S
C675 C674 1.369 . S
C675 C676 1.410 . S
C675 C683 1.503 . S
C676 C675 1.410 . S
C676 C677 1.392 . S
C676 C679 1.511 . S
C677 C673 1.376 . S
C677 C676 1.392 . S
C677 H689 0.929 . S
C678 C674 1.531 . S
C678 H690 0.960 . S
C678 H691 0.962 . S
C678 H692 0.960 . S
C679 C676 1.511 . S
C679 H693 0.961 . S
C679 H694 0.961 . S
C679 H695 0.961 . S
C680 C681 1.370 . S
C680 C682 1.363 . S
C680 H696 0.931 . S
C681 C680 1.370 . S
C681 C685 1.408 . S
C682 C680 1.363 . S
C682 C683 1.370 . S
C682 C686 1.524 . S
C683 C675 1.503 . S
C683 C682 1.370 . S
C683 C684 1.403 . S
C684 C683 1.403 . S
C684 C685 1.404 . S
C684 C687 1.539 . S
C685 C681 1.408 . S
C685 C684 1.404 . S
C685 H697 0.930 . S
C686 C682 1.524 . S
C686 H698 0.956 . S
C686 H699 0.961 . S
C686 H700 0.961 . S
C687 C684 1.539 . S
C687 H701 0.958 . S
C687 H702 0.961 . S
C687 H703 0.960 . S
H688 C672 0.931 . S
H689 C677 0.929 . S
H690 C678 0.960 . S
H691 C678 0.962 . S
H692 C678 0.960 . S
H693 C679 0.961 . S
H694 C679 0.961 . S
H695 C679 0.961 . S
H696 C680 0.931 . S
H697 C685 0.930 . S
H698 C686 0.956 . S
H699 C686 0.961 . S
H700 C686 0.961 . S
H701 C687 0.958 . S
H702 C687 0.961 . S
H703 C687 0.960 . S
C704 C705 1.391 . S
C704 C706 1.394 . S
C704 H720 0.931 . S
C705 C704 1.391 . S
C705 C709 1.376 . S
C706 C704 1.394 . S
C706 C707 1.369 . S
C706 C710 1.531 . S
C707 C706 1.369 . S
C707 C708 1.410 . S
C707 C715 1.503 . S
C708 C707 1.410 . S
C708 C709 1.392 . S
C708 C711 1.511 . S
C709 C705 1.376 . S
C709 C708 1.392 . S
C709 H721 0.929 . S
C710 C706 1.531 . S
C710 H722 0.960 . S
C710 H723 0.962 . S
C710 H724 0.960 . S
C711 C708 1.511 . S
C711 H725 0.961 . S
C711 H726 0.961 . S
C711 H727 0.961 . S
C712 C713 1.370 . S
C712 C714 1.363 . S
C712 H728 0.931 . S
C713 C712 1.370 . S
C713 C717 1.408 . S
C714 C712 1.363 . S
C714 C715 1.370 . S
C714 C718 1.524 . S
C715 C707 1.503 . S
C715 C714 1.370 . S
C715 C716 1.403 . S
C716 C715 1.403 . S
C716 C717 1.404 . S
C716 C719 1.539 . S
C717 C713 1.408 . S
C717 C716 1.404 . S
C717 H729 0.930 . S
C718 C714 1.524 . S
C718 H730 0.956 . S
C718 H731 0.961 . S
C718 H732 0.961 . S
C719 C716 1.539 . S
C719 H733 0.958 . S
C719 H734 0.961 . S
C719 H735 0.960 . S
H720 C704 0.931 . S
H721 C709 0.929 . S
H722 C710 0.960 . S
H723 C710 0.962 . S
H724 C710 0.960 . S
H725 C711 0.961 . S
H726 C711 0.961 . S
H727 C711 0.961 . S
H728 C712 0.931 . S
H729 C717 0.930 . S
H730 C718 0.956 . S
H731 C718 0.961 . S
H732 C718 0.961 . S
H733 C719 0.958 . S
H734 C719 0.961 . S
H735 C719 0.960 . S
C736 C737 1.391 . S
C736 C738 1.394 . S
C736 H752 0.931 . S
C737 C736 1.391 . S
C737 C741 1.376 . S
C738 C736 1.394 . S
C738 C739 1.369 . S
C738 C742 1.531 . S
C739 C738 1.369 . S
C739 C740 1.410 . S
C739 C747 1.503 . S
C740 C739 1.410 . S
C740 C741 1.392 . S
C740 C743 1.511 . S
C741 C737 1.376 . S
C741 C740 1.392 . S
C741 H753 0.929 . S
C742 C738 1.531 . S
C742 H754 0.960 . S
C742 H755 0.962 . S
C742 H756 0.960 . S
C743 C740 1.511 . S
C743 H757 0.961 . S
C743 H758 0.961 . S
C743 H759 0.961 . S
C744 C745 1.370 . S
C744 C746 1.363 . S
C744 H760 0.931 . S
C745 C744 1.370 . S
C745 C749 1.408 . S
C746 C744 1.363 . S
C746 C747 1.370 . S
C746 C750 1.524 . S
C747 C739 1.503 . S
C747 C746 1.370 . S
C747 C748 1.403 . S
C748 C747 1.403 . S
C748 C749 1.404 . S
C748 C751 1.539 . S
C749 C745 1.408 . S
C749 C748 1.404 . S
C749 H761 0.930 . S
C750 C746 1.524 . S
C750 H762 0.956 . S
C750 H763 0.961 . S
C750 H764 0.961 . S
C751 C748 1.539 . S
C751 H765 0.958 . S
C751 H766 0.961 . S
C751 H767 0.960 . S
H752 C736 0.931 . S
H753 C741 0.929 . S
H754 C742 0.960 . S
H755 C742 0.962 . S
H756 C742 0.960 . S
H757 C743 0.961 . S
H758 C743 0.961 . S
H759 C743 0.961 . S
H760 C744 0.931 . S
H761 C749 0.930 . S
H762 C750 0.956 . S
H763 C750 0.961 . S
H764 C750 0.961 . S
H765 C751 0.958 . S
H766 C751 0.961 . S
H767 C751 0.960 . S
C768 C769 1.391 . S
C768 C770 1.394 . S
C768 H784 0.931 . S
C769 C768 1.391 . S
C769 C773 1.376 . S
C770 C768 1.394 . S
C770 C771 1.369 . S
C770 C774 1.531 . S
C771 C770 1.369 . S
C771 C772 1.410 . S
C771 C779 1.503 . S
C772 C771 1.410 . S
C772 C773 1.392 . S
C772 C775 1.511 . S
C773 C769 1.376 . S
C773 C772 1.392 . S
C773 H785 0.929 . S
C774 C770 1.531 . S
C774 H786 0.960 . S
C774 H787 0.962 . S
C774 H788 0.960 . S
C775 C772 1.511 . S
C775 H789 0.961 . S
C775 H790 0.961 . S
C775 H791 0.961 . S
C776 C777 1.370 . S
C776 C778 1.363 . S
C776 H792 0.931 . S
C777 C776 1.370 . S
C777 C781 1.408 . S
C778 C776 1.363 . S
C778 C779 1.370 . S
C778 C782 1.524 . S
C779 C771 1.503 . S
C779 C778 1.370 . S
C779 C780 1.403 . S
C780 C779 1.403 . S
C780 C781 1.404 . S
C780 C783 1.539 . S
C781 C777 1.408 . S
C781 C780 1.404 . S
C781 H793 0.930 . S
C782 C778 1.524 . S
C782 H794 0.956 . S
C782 H795 0.961 . S
C782 H796 0.961 . S
C783 C780 1.539 . S
C783 H797 0.958 . S
C783 H798 0.961 . S
C783 H799 0.960 . S
H784 C768 0.931 . S
H785 C773 0.929 . S
H786 C774 0.960 . S
H787 C774 0.962 . S
H788 C774 0.960 . S
H789 C775 0.961 . S
H790 C775 0.961 . S
H791 C775 0.961 . S
H792 C776 0.931 . S
H793 C781 0.930 . S
H794 C782 0.956 . S
H795 C782 0.961 . S
H796 C782 0.961 . S
H797 C783 0.958 . S
H798 C783 0.961 . S
H799 C783 0.960 . S
C800 C801 1.391 . S
C800 C802 1.394 . S
C800 H816 0.931 . S
C801 C800 1.391 . S
C801 C805 1.376 . S
C802 C800 1.394 . S
C802 C803 1.369 . S
C802 C806 1.531 . S
C803 C802 1.369 . S
C803 C804 1.410 . S
C803 C811 1.503 . S
C804 C803 1.410 . S
C804 C805 1.392 . S
C804 C807 1.511 . S
C805 C801 1.376 . S
C805 C804 1.392 . S
C805 H817 0.929 . S
C806 C802 1.531 . S
C806 H818 0.960 . S
C806 H819 0.962 . S
C806 H820 0.960 . S
C807 C804 1.511 . S
C807 H821 0.961 . S
C807 H822 0.961 . S
C807 H823 0.961 . S
C808 C809 1.370 . S
C808 C810 1.363 . S
C808 H824 0.931 . S
C809 C808 1.370 . S
C809 C813 1.408 . S
C810 C808 1.363 . S
C810 C811 1.370 . S
C810 C814 1.524 . S
C811 C803 1.503 . S
C811 C810 1.370 . S
C811 C812 1.403 . S
C812 C811 1.403 . S
C812 C813 1.404 . S
C812 C815 1.539 . S
C813 C809 1.408 . S
C813 C812 1.404 . S
C813 H825 0.930 . S
C814 C810 1.524 . S
C814 H826 0.956 . S
C814 H827 0.961 . S
C814 H828 0.961 . S
C815 C812 1.539 . S
C815 H829 0.958 . S
C815 H830 0.961 . S
C815 H831 0.960 . S
H816 C800 0.931 . S
H817 C805 0.929 . S
H818 C806 0.960 . S
H819 C806 0.962 . S
H820 C806 0.960 . S
H821 C807 0.961 . S
H822 C807 0.961 . S
H823 C807 0.961 . S
H824 C808 0.931 . S
H825 C813 0.930 . S
H826 C814 0.956 . S
H827 C814 0.961 . S
H828 C814 0.961 . S
H829 C815 0.958 . S
H830 C815 0.961 . S
H831 C815 0.960 . S
C832 C833 1.391 . S
C832 C834 1.394 . S
C832 H848 0.931 . S
C833 C832 1.391 . S
C833 C837 1.376 . S
C834 C832 1.394 . S
C834 C835 1.369 . S
C834 C838 1.531 . S
C835 C834 1.369 . S
C835 C836 1.410 . S
C835 C843 1.503 1_565 S
C836 C835 1.410 . S
C836 C837 1.392 . S
C836 C839 1.511 . S
C837 C833 1.376 . S
C837 C836 1.392 . S
C837 H849 0.929 . S
C838 C834 1.531 . S
C838 H850 0.960 . S
C838 H851 0.962 . S
C838 H852 0.960 . S
C839 C836 1.511 . S
C839 H853 0.961 . S
C839 H854 0.961 1_565 S
C839 H855 0.961 . S
C840 C841 1.370 . S
C840 C842 1.363 . S
C840 H856 0.931 . S
C841 C840 1.370 . S
C841 C845 1.408 . S
C842 C840 1.363 . S
C842 C843 1.370 . S
C842 C846 1.524 . S
C843 C835 1.503 1_545 S
C843 C842 1.370 . S
C843 C844 1.403 1_545 S
C844 C843 1.403 1_565 S
C844 C845 1.404 1_565 S
C844 C847 1.539 . S
C845 C841 1.408 . S
C845 C844 1.404 1_545 S
C845 H857 0.930 . S
C846 C842 1.524 . S
C846 H858 0.956 . S
C846 H859 0.961 . S
C846 H860 0.961 . S
C847 C844 1.539 . S
C847 H861 0.958 . S
C847 H862 0.961 . S
C847 H863 0.960 . S
H848 C832 0.931 . S
H849 C837 0.929 . S
H850 C838 0.960 . S
H851 C838 0.962 . S
H852 C838 0.960 . S
H853 C839 0.961 . S
H854 C839 0.961 1_545 S
H855 C839 0.961 . S
H856 C840 0.931 . S
H857 C845 0.930 . S
H858 C846 0.956 . S
H859 C846 0.961 . S
H860 C846 0.961 . S
H861 C847 0.958 . S
H862 C847 0.961 . S
H863 C847 0.960 . S
C864 C865 1.391 . S
C864 C866 1.394 1_556 S
C864 H880 0.931 1_556 S
C865 C864 1.391 . S
C865 C869 1.376 . S
C866 C864 1.394 1_554 S
C866 C867 1.369 1_554 S
C866 C870 1.531 . S
C867 C866 1.369 1_556 S
C867 C868 1.417 . S
C867 C875 1.503 1_466 S
C868 C867 1.417 . S
C868 C869 1.413 . S
C868 C871 1.485 1_565 S
C869 C865 1.376 . S
C869 C868 1.413 . S
C869 H881 0.929 . S
C870 C866 1.531 . S
C870 H882 0.960 . S
C870 H883 0.962 1_455 S
C870 H884 0.960 . S
C871 C868 1.485 1_545 S
C871 H885 0.961 . S
C871 H886 0.947 1_455 S
C871 H887 0.961 . S
C872 C873 1.370 . S
C872 C874 1.363 . S
C872 H888 0.931 . S
C873 C872 1.370 . S
C873 C877 1.408 . S
C874 C872 1.363 . S
C874 C875 1.370 . S
C874 C878 1.524 1_544 S
C875 C867 1.503 1_644 S
C875 C874 1.370 . S
C875 C876 1.403 1_655 S
C876 C875 1.403 1_455 S
C876 C877 1.404 1_455 S
C876 C879 1.539 . S
C877 C873 1.408 . S
C877 C876 1.404 1_655 S
C877 H889 0.930 . S
C878 C874 1.524 1_566 S
C878 H890 0.956 . S
C878 H891 0.961 . S
C878 H892 0.961 . S
C879 C876 1.539 . S
C879 H893 0.958 . S
C879 H894 0.961 . S
C879 H895 0.960 . S
H880 C864 0.931 1_554 S
H881 C869 0.929 . S
H882 C870 0.960 . S
H883 C870 0.962 1_655 S
H884 C870 0.960 . S
H885 C871 0.961 . S
H886 C871 0.947 1_655 S
H887 C871 0.961 . S
H888 C872 0.931 . S
H889 C877 0.930 . S
H890 C878 0.956 . S
H891 C878 0.961 . S
H892 C878 0.961 . S
H893 C879 0.958 . S
H894 C879 0.961 . S
H895 C879 0.960 . S
C896 C897 1.391 . S
C896 C898 1.394 . S
C896 H912 0.931 . S
C897 C896 1.391 . S
C897 C901 1.376 . S
C898 C896 1.394 . S
C898 C899 1.369 . S
C898 C902 1.531 . S
C899 C898 1.369 . S
C899 C900 1.407 . S
C899 C907 1.503 1_546 S
C900 C899 1.407 . S
C900 C901 1.389 . S
C900 C903 1.517 1_546 S
C901 C897 1.376 . S
C901 C900 1.389 . S
C901 H913 0.929 . S
C902 C898 1.531 . S
C902 H914 0.960 1_545 S
C902 H915 0.962 . S
C902 H916 0.960 . S
C903 C900 1.517 1_564 S
C903 H917 0.961 1_565 S
C903 H918 0.961 . S
C903 H919 0.961 . S
C904 C905 1.370 . S
C904 C906 1.363 . S
C904 H920 0.931 . S
C905 C904 1.370 . S
C905 C909 1.408 . S
C906 C904 1.363 . S
C906 C907 1.370 . S
C906 C910 1.524 1_565 S
C907 C899 1.503 1_564 S
C907 C906 1.370 . S
C907 C908 1.389 1_554 S
C908 C907 1.389 1_556 S
C908 C909 1.369 1_556 S
C908 C911 1.588 . S
C909 C905 1.408 . S
C909 C908 1.369 1_554 S
C909 H921 0.930 . S
C910 C906 1.524 1_545 S
C910 H922 0.956 . S
C910 H923 0.961 . S
C910 H924 0.961 . S
C911 C908 1.588 . S
C911 H925 0.958 . S
C911 H926 0.961 . S
C911 H927 0.960 . S
H912 C896 0.931 . S
H913 C901 0.929 . S
H914 C902 0.960 1_565 S
H915 C902 0.962 . S
H916 C902 0.960 . S
H917 C903 0.961 1_545 S
H918 C903 0.961 . S
H919 C903 0.961 . S
H920 C904 0.931 . S
H921 C909 0.930 . S
H922 C910 0.956 . S
H923 C910 0.961 . S
H924 C910 0.961 . S
H925 C911 0.958 . S
H926 C911 0.961 . S
H927 C911 0.960 . S
C928 C929 1.391 . S
C928 C930 1.394 . S
C928 H944 0.931 . S
C929 C928 1.391 . S
C929 C933 1.376 . S
C930 C928 1.394 . S
C930 C931 1.369 . S
C930 C934 1.531 . S
C931 C930 1.369 . S
C931 C932 1.410 . S
C931 C939 1.503 1_445 S
C932 C931 1.410 . S
C932 C933 1.392 . S
C932 C935 1.511 1_445 S
C933 C929 1.376 . S
C933 C932 1.392 . S
C933 H945 0.929 . S
C934 C930 1.531 . S
C934 H946 0.960 1_545 S
C934 H947 0.962 . S
C934 H948 0.960 . S
C935 C932 1.511 1_665 S
C935 H949 0.961 1_565 S
C935 H950 0.961 . S
C935 H951 0.961 . S
C936 C937 1.370 . S
C936 C938 1.363 . S
C936 H952 0.931 . S
C937 C936 1.370 . S
C937 C941 1.408 . S
C938 C936 1.363 . S
C938 C939 1.370 . S
C938 C942 1.524 1_565 S
C939 C931 1.503 1_665 S
C939 C938 1.370 . S
C939 C940 1.403 . S
C940 C939 1.403 . S
C940 C941 1.404 . S
C940 C943 1.539 1_655 S
C941 C937 1.408 . S
C941 C940 1.404 . S
C941 H953 0.930 . S
C942 C938 1.524 1_545 S
C942 H954 0.956 . S
C942 H955 0.961 . S
C942 H956 0.961 . S
C943 C940 1.539 1_455 S
C943 H957 0.958 . S
C943 H958 0.961 . S
C943 H959 0.960 . S
H944 C928 0.931 . S
H945 C933 0.929 . S
H946 C934 0.960 1_565 S
H947 C934 0.962 . S
H948 C934 0.960 . S
H949 C935 0.961 1_545 S
H950 C935 0.961 . S
H951 C935 0.961 . S
H952 C936 0.931 . S
H953 C941 0.930 . S
H954 C942 0.956 . S
H955 C942 0.961 . S
H956 C942 0.961 . S
H957 C943 0.958 . S
H958 C943 0.961 . S
H959 C943 0.960 . S
C960 C961 1.391 . S
C960 C962 1.394 . S
C960 H976 0.931 . S
C961 C960 1.391 . S
C961 C965 1.376 . S
C962 C960 1.394 . S
C962 C963 1.369 . S
C962 C966 1.531 . S
C963 C962 1.369 . S
C963 C964 1.410 1_655 S
C963 C971 1.503 1_655 S
C964 C963 1.410 1_455 S
C964 C965 1.392 1_455 S
C964 C967 1.511 . S
C965 C961 1.376 . S
C965 C964 1.392 1_655 S
C965 H977 0.924 1_655 S
C966 C962 1.531 . S
C966 H978 0.960 . S
C966 H979 0.962 . S
C966 H980 0.960 . S
C967 C964 1.511 . S
C967 H981 0.961 . S
C967 H982 0.961 . S
C967 H983 0.961 . S
C968 C969 1.370 . S
C968 C970 1.363 . S
C968 H984 0.931 . S
C969 C968 1.370 . S
C969 C973 1.408 . S
C970 C968 1.363 . S
C970 C971 1.370 . S
C970 C974 1.524 . S
C971 C963 1.503 1_455 S
C971 C970 1.370 . S
C971 C972 1.403 . S
C972 C971 1.403 . S
C972 C973 1.404 . S
C972 C975 1.539 1_455 S
C973 C969 1.408 . S
C973 C972 1.404 . S
C973 H985 0.930 . S
C974 C970 1.524 . S
C974 H986 0.956 1_455 S
C974 H987 0.961 . S
C974 H988 0.961 . S
C975 C972 1.539 1_655 S
C975 H989 0.959 . S
C975 H990 0.961 1_655 S
C975 H991 0.960 . S
H976 C960 0.931 . S
H977 C965 0.924 1_455 S
H978 C966 0.960 . S
H979 C966 0.962 . S
H980 C966 0.960 . S
H981 C967 0.961 . S
H982 C967 0.961 . S
H983 C967 0.961 . S
H984 C968 0.931 . S
H985 C973 0.930 . S
H986 C974 0.956 1_655 S
H987 C974 0.961 . S
H988 C974 0.961 . S
H989 C975 0.959 . S
H990 C975 0.961 1_455 S
H991 C975 0.960 . S
C992 C993 1.391 . S
C992 C994 1.394 . S
C992 H1008 0.931 . S
C993 C992 1.391 . S
C993 C997 1.376 . S
C994 C992 1.394 . S
C994 C995 1.369 . S
C994 C998 1.531 1_455 S
C995 C994 1.369 . S
C995 C996 1.410 . S
C995 C1003 1.503 1_455 S
C996 C995 1.410 . S
C996 C997 1.392 . S
C996 C999 1.511 . S
C997 C993 1.376 . S
C997 C996 1.392 . S
C997 H1009 0.929 . S
C998 C994 1.531 1_655 S
C998 H1010 0.960 . S
C998 H1011 0.962 . S
C998 H1012 0.960 . S
C999 C996 1.511 . S
C999 H1013 0.961 . S
C999 H1014 0.961 . S
C999 H1015 0.961 . S
C1000 C1001 1.370 . S
C1000 C1002 1.363 . S
C1000 H1016 0.931 . S
C1001 C1000 1.370 . S
C1001 C1005 1.408 . S
C1002 C1000 1.363 . S
C1002 C1003 1.370 . S
C1002 C1006 1.524 . S
C1003 C995 1.503 1_655 S
C1003 C1002 1.370 . S
C1003 C1004 1.403 . S
C1004 C1003 1.403 . S
C1004 C1005 1.404 . S
C1004 C1007 1.539 . S
C1005 C1001 1.408 . S
C1005 C1004 1.404 . S
C1005 H1017 0.930 . S
C1006 C1002 1.524 . S
C1006 H1018 0.956 . S
C1006 H1019 0.961 1_655 S
C1006 H1020 0.961 . S
C1007 C1004 1.539 . S
C1007 H1021 0.958 . S
C1007 H1022 0.961 . S
C1007 H1023 0.960 1_655 S
H1008 C992 0.931 . S
H1009 C997 0.929 . S
H1010 C998 0.960 . S
H1011 C998 0.962 . S
H1012 C998 0.960 . S
H1013 C999 0.961 . S
H1014 C999 0.961 . S
H1015 C999 0.961 . S
H1016 C1000 0.931 . S
H1017 C1005 0.930 . S
H1018 C1006 0.956 . S
H1019 C1006 0.961 1_455 S
H1020 C1006 0.961 . S
H1021 C1007 0.958 . S
H1022 C1007 0.961 . S
H1023 C1007 0.960 1_455 S
C1024 C1025 1.391 . S
C1024 C1026 1.394 . S
C1024 H1040 0.931 . S
C1025 C1024 1.391 . S
C1025 C1029 1.376 . S
C1026 C1024 1.394 . S
C1026 C1027 1.369 . S
C1026 C1030 1.531 . S
C1027 C1026 1.369 . S
C1027 C1028 1.410 . S
C1027 C1035 1.503 . S
C1028 C1027 1.410 . S
C1028 C1029 1.392 . S
C1028 C1031 1.511 . S
C1029 C1025 1.376 . S
C1029 C1028 1.392 . S
C1029 H1041 0.929 . S
C1030 C1026 1.531 . S
C1030 H1042 0.960 . S
C1030 H1043 0.962 . S
C1030 H1044 0.960 . S
C1031 C1028 1.511 . S
C1031 H1045 0.961 . S
C1031 H1046 0.961 . S
C1031 H1047 0.961 . S
C1032 C1033 1.370 . S
C1032 C1034 1.363 . S
C1032 H1048 0.931 . S
C1033 C1032 1.370 . S
C1033 C1037 1.408 . S
C1034 C1032 1.363 . S
C1034 C1035 1.370 . S
C1034 C1038 1.524 . S
C1035 C1027 1.503 . S
C1035 C1034 1.370 . S
C1035 C1036 1.403 . S
C1036 C1035 1.403 . S
C1036 C1037 1.404 . S
C1036 C1039 1.539 . S
C1037 C1033 1.408 . S
C1037 C1036 1.404 . S
C1037 H1049 0.930 . S
C1038 C1034 1.524 . S
C1038 H1050 0.956 . S
C1038 H1051 0.961 . S
C1038 H1052 0.961 . S
C1039 C1036 1.539 . S
C1039 H1053 0.958 . S
C1039 H1054 0.961 . S
C1039 H1055 0.960 . S
H1040 C1024 0.931 . S
H1041 C1029 0.929 . S
H1042 C1030 0.960 . S
H1043 C1030 0.962 . S
H1044 C1030 0.960 . S
H1045 C1031 0.961 . S
H1046 C1031 0.961 . S
H1047 C1031 0.961 . S
H1048 C1032 0.931 . S
H1049 C1037 0.930 . S
H1050 C1038 0.956 . S
H1051 C1038 0.961 . S
H1052 C1038 0.961 . S
H1053 C1039 0.958 . S
H1054 C1039 0.961 . S
H1055 C1039 0.960 . S
C1056 C1057 1.391 . S
C1056 C1058 1.394 . S
C1056 H1072 0.931 . S
C1057 C1056 1.391 . S
C1057 C1061 1.376 . S
C1058 C1056 1.394 . S
C1058 C1059 1.369 . S
C1058 C1062 1.531 . S
C1059 C1058 1.369 . S
C1059 C1060 1.410 . S
C1059 C1067 1.503 . S
C1060 C1059 1.410 . S
C1060 C1061 1.392 . S
C1060 C1063 1.511 . S
C1061 C1057 1.376 . S
C1061 C1060 1.392 . S
C1061 H1073 0.929 . S
C1062 C1058 1.531 . S
C1062 H1074 0.960 . S
C1062 H1075 0.962 . S
C1062 H1076 0.960 . S
C1063 C1060 1.511 . S
C1063 H1077 0.961 . S
C1063 H1078 0.961 . S
C1063 H1079 0.961 . S
C1064 C1065 1.370 . S
C1064 C1066 1.363 . S
C1064 H1080 0.931 . S
C1065 C1064 1.370 . S
C1065 C1069 1.408 . S
C1066 C1064 1.363 . S
C1066 C1067 1.370 . S
C1066 C1070 1.524 . S
C1067 C1059 1.503 . S
C1067 C1066 1.370 . S
C1067 C1068 1.403 . S
C1068 C1067 1.403 . S
C1068 C1069 1.404 . S
C1068 C1071 1.539 . S
C1069 C1065 1.408 . S
C1069 C1068 1.404 . S
C1069 H1081 0.930 . S
C1070 C1066 1.524 . S
C1070 H1082 0.956 . S
C1070 H1083 0.961 . S
C1070 H1084 0.961 . S
C1071 C1068 1.539 . S
C1071 H1085 0.958 . S
C1071 H1086 0.961 . S
C1071 H1087 0.960 . S
H1072 C1056 0.931 . S
H1073 C1061 0.929 . S
H1074 C1062 0.960 . S
H1075 C1062 0.962 . S
H1076 C1062 0.960 . S
H1077 C1063 0.961 . S
H1078 C1063 0.961 . S
H1079 C1063 0.961 . S
H1080 C1064 0.931 . S
H1081 C1069 0.930 . S
H1082 C1070 0.956 . S
H1083 C1070 0.961 . S
H1084 C1070 0.961 . S
H1085 C1071 0.958 . S
H1086 C1071 0.961 . S
H1087 C1071 0.960 . S
C1088 C1089 1.391 . S
C1088 C1090 1.394 . S
C1088 H1104 0.931 . S
C1089 C1088 1.391 . S
C1089 C1093 1.376 . S
C1090 C1088 1.394 . S
C1090 C1091 1.369 . S
C1090 C1094 1.531 . S
C1091 C1090 1.369 . S
C1091 C1092 1.410 1_655 S
C1091 C1099 1.503 1_655 S
C1092 C1091 1.410 1_455 S
C1092 C1093 1.392 1_455 S
C1092 C1095 1.511 . S
C1093 C1089 1.376 . S
C1093 C1092 1.392 1_655 S
C1093 H1105 0.929 . S
C1094 C1090 1.531 . S
C1094 H1106 0.960 . S
C1094 H1107 0.962 . S
C1094 H1108 0.960 . S
C1095 C1092 1.511 . S
C1095 H1109 0.961 . S
C1095 H1110 0.961 . S
C1095 H1111 0.961 . S
C1096 C1097 1.370 . S
C1096 C1098 1.363 . S
C1096 H1112 0.931 . S
C1097 C1096 1.370 . S
C1097 C1101 1.408 . S
C1098 C1096 1.363 . S
C1098 C1099 1.370 . S
C1098 C1102 1.524 1_455 S
C1099 C1091 1.503 1_455 S
C1099 C1098 1.370 . S
C1099 C1100 1.403 . S
C1100 C1099 1.403 . S
C1100 C1101 1.404 . S
C1100 C1103 1.539 . S
C1101 C1097 1.408 . S
C1101 C1100 1.404 . S
C1101 H1113 0.930 . S
C1102 C1098 1.524 1_655 S
C1102 H1114 0.956 . S
C1102 H1115 0.961 . S
C1102 H1116 0.961 . S
C1103 C1100 1.539 . S
C1103 H1117 0.958 . S
C1103 H1118 0.961 . S
C1103 H1119 0.960 . S
H1104 C1088 0.931 . S
H1105 C1093 0.929 . S
H1106 C1094 0.960 . S
H1107 C1094 0.962 . S
H1108 C1094 0.960 . S
H1109 C1095 0.961 . S
H1110 C1095 0.961 . S
H1111 C1095 0.961 . S
H1112 C1096 0.931 . S
H1113 C1101 0.930 . S
H1114 C1102 0.956 . S
H1115 C1102 0.961 . S
H1116 C1102 0.961 . S
H1117 C1103 0.958 . S
H1118 C1103 0.961 . S
H1119 C1103 0.960 . S
C1120 C1121 1.391 . S
C1120 C1122 1.394 . S
C1120 H1136 0.931 . S
C1121 C1120 1.391 . S
C1121 C1125 1.376 . S
C1122 C1120 1.394 . S
C1122 C1123 1.369 . S
C1122 C1126 1.531 . S
C1123 C1122 1.369 . S
C1123 C1124 1.410 . S
C1123 C1131 1.503 . S
C1124 C1123 1.410 . S
C1124 C1125 1.392 . S
C1124 C1127 1.511 . S
C1125 C1121 1.376 . S
C1125 C1124 1.392 . S
C1125 H1137 0.929 . S
C1126 C1122 1.531 . S
C1126 H1138 0.960 . S
C1126 H1139 0.962 . S
C1126 H1140 0.960 . S
C1127 C1124 1.511 . S
C1127 H1141 0.961 . S
C1127 H1142 0.961 . S
C1127 H1143 0.961 . S
C1128 C1129 1.370 . S
C1128 C1130 1.363 . S
C1128 H1144 0.931 . S
C1129 C1128 1.370 . S
C1129 C1133 1.408 . S
C1130 C1128 1.363 . S
C1130 C1131 1.370 . S
C1130 C1134 1.524 . S
C1131 C1123 1.503 . S
C1131 C1130 1.370 . S
C1131 C1132 1.403 . S
C1132 C1131 1.403 . S
C1132 C1133 1.404 . S
C1132 C1135 1.539 . S
C1133 C1129 1.408 . S
C1133 C1132 1.404 . S
C1133 H1145 0.930 . S
C1134 C1130 1.524 . S
C1134 H1146 0.956 . S
C1134 H1147 0.961 . S
C1134 H1148 0.961 . S
C1135 C1132 1.539 . S
C1135 H1149 0.958 . S
C1135 H1150 0.961 . S
C1135 H1151 0.960 . S
H1136 C1120 0.931 . S
H1137 C1125 0.929 . S
H1138 C1126 0.960 . S
H1139 C1126 0.962 . S
H1140 C1126 0.960 . S
H1141 C1127 0.961 . S
H1142 C1127 0.961 . S
H1143 C1127 0.961 . S
H1144 C1128 0.931 . S
H1145 C1133 0.930 . S
H1146 C1134 0.956 . S
H1147 C1134 0.961 . S
H1148 C1134 0.961 . S
H1149 C1135 0.958 . S
H1150 C1135 0.961 . S
H1151 C1135 0.960 . S
C1152 C1153 1.391 . S
C1152 C1154 1.394 . S
C1152 H1168 0.931 . S
C1153 C1152 1.391 . S
C1153 C1157 1.376 . S
C1154 C1152 1.394 . S
C1154 C1155 1.369 . S
C1154 C1158 1.531 . S
C1155 C1154 1.369 . S
C1155 C1156 1.410 . S
C1155 C1163 1.503 . S
C1156 C1155 1.410 . S
C1156 C1157 1.392 . S
C1156 C1159 1.511 . S
C1157 C1153 1.376 . S
C1157 C1156 1.392 . S
C1157 H1169 0.929 . S
C1158 C1154 1.531 . S
C1158 H1170 0.960 . S
C1158 H1171 0.962 . S
C1158 H1172 0.960 . S
C1159 C1156 1.511 . S
C1159 H1173 0.961 . S
C1159 H1174 0.961 . S
C1159 H1175 0.961 . S
C1160 C1161 1.370 . S
C1160 C1162 1.363 . S
C1160 H1176 0.931 . S
C1161 C1160 1.370 . S
C1161 C1165 1.408 . S
C1162 C1160 1.363 . S
C1162 C1163 1.370 . S
C1162 C1166 1.524 . S
C1163 C1155 1.503 . S
C1163 C1162 1.370 . S
C1163 C1164 1.403 . S
C1164 C1163 1.403 . S
C1164 C1165 1.404 . S
C1164 C1167 1.539 . S
C1165 C1161 1.408 . S
C1165 C1164 1.404 . S
C1165 H1177 0.930 . S
C1166 C1162 1.524 . S
C1166 H1178 0.956 . S
C1166 H1179 0.961 . S
C1166 H1180 0.961 . S
C1167 C1164 1.539 . S
C1167 H1181 0.958 . S
C1167 H1182 0.961 . S
C1167 H1183 0.960 . S
H1168 C1152 0.931 . S
H1169 C1157 0.929 . S
H1170 C1158 0.960 . S
H1171 C1158 0.962 . S
H1172 C1158 0.960 . S
H1173 C1159 0.961 . S
H1174 C1159 0.961 . S
H1175 C1159 0.961 . S
H1176 C1160 0.931 . S
H1177 C1165 0.930 . S
H1178 C1166 0.956 . S
H1179 C1166 0.961 . S
H1180 C1166 0.961 . S
H1181 C1167 0.958 . S
H1182 C1167 0.961 . S
H1183 C1167 0.960 . S
C1184 C1185 1.391 . S
C1184 C1186 1.394 . S
C1184 H1200 0.931 . S
C1185 C1184 1.391 . S
C1185 C1189 1.376 . S
C1186 C1184 1.394 . S
C1186 C1187 1.369 . S
C1186 C1190 1.531 1_455 S
C1187 C1186 1.369 . S
C1187 C1188 1.410 . S
C1187 C1195 1.503 1_455 S
C1188 C1187 1.410 . S
C1188 C1189 1.392 . S
C1188 C1191 1.511 . S
C1189 C1185 1.376 . S
C1189 C1188 1.392 . S
C1189 H1201 0.929 . S
C1190 C1186 1.531 1_655 S
C1190 H1202 0.960 . S
C1190 H1203 0.962 . S
C1190 H1204 0.960 1_655 S
C1191 C1188 1.511 . S
C1191 H1205 0.961 . S
C1191 H1206 0.961 . S
C1191 H1207 0.961 . S
C1192 C1193 1.370 . S
C1192 C1194 1.363 . S
C1192 H1208 0.931 . S
C1193 C1192 1.370 . S
C1193 C1197 1.408 . S
C1194 C1192 1.363 . S
C1194 C1195 1.370 . S
C1194 C1198 1.524 . S
C1195 C1187 1.503 1_655 S
C1195 C1194 1.370 . S
C1195 C1196 1.403 . S
C1196 C1195 1.403 . S
C1196 C1197 1.404 . S
C1196 C1199 1.539 1_655 S
C1197 C1193 1.408 . S
C1197 C1196 1.404 . S
C1197 H1209 0.930 . S
C1198 C1194 1.524 . S
C1198 H1210 0.956 . S
C1198 H1211 0.961 . S
C1198 H1212 0.961 . S
C1199 C1196 1.539 1_455 S
C1199 H1213 0.958 . S
C1199 H1214 0.961 . S
C1199 H1215 0.960 . S
H1200 C1184 0.931 . S
H1201 C1189 0.929 . S
H1202 C1190 0.960 . S
H1203 C1190 0.962 . S
H1204 C1190 0.960 1_455 S
H1205 C1191 0.961 . S
H1206 C1191 0.961 . S
H1207 C1191 0.961 . S
H1208 C1192 0.931 . S
H1209 C1197 0.930 . S
H1210 C1198 0.956 . S
H1211 C1198 0.961 . S
H1212 C1198 0.961 . S
H1213 C1199 0.958 . S
H1214 C1199 0.961 . S
H1215 C1199 0.960 . S
C1216 C1217 1.391 . S
C1216 C1218 1.394 1_655 S
C1216 H1232 0.931 1_655 S
C1217 C1216 1.391 . S
C1217 C1221 1.376 . S
C1218 C1216 1.394 1_455 S
C1218 C1219 1.369 1_455 S
C1218 C1222 1.531 . S
C1219 C1218 1.369 1_655 S
C1219 C1220 1.410 . S
C1219 C1227 1.503 1_655 S
C1220 C1219 1.410 . S
C1220 C1221 1.392 . S
C1220 C1223 1.511 . S
C1221 C1217 1.376 . S
C1221 C1220 1.392 . S
C1221 H1233 0.929 . S
C1222 C1218 1.531 . S
C1222 H1234 0.960 . S
C1222 H1235 0.962 . S
C1222 H1236 0.960 . S
C1223 C1220 1.511 . S
C1223 H1237 0.961 . S
C1223 H1238 0.961 . S
C1223 H1239 0.961 . S
C1224 C1225 1.370 . S
C1224 C1226 1.363 . S
C1224 H1240 0.931 . S
C1225 C1224 1.370 . S
C1225 C1229 1.408 . S
C1226 C1224 1.363 . S
C1226 C1227 1.370 . S
C1226 C1230 1.524 1_455 S
C1227 C1219 1.503 1_455 S
C1227 C1226 1.370 . S
C1227 C1228 1.403 . S
C1228 C1227 1.403 . S
C1228 C1229 1.404 . S
C1228 C1231 1.539 . S
C1229 C1225 1.408 . S
C1229 C1228 1.404 . S
C1229 H1241 0.930 . S
C1230 C1226 1.524 1_655 S
C1230 H1242 0.956 1_655 S
C1230 H1243 0.961 . S
C1230 H1244 0.961 . S
C1231 C1228 1.539 . S
C1231 H1245 0.958 . S
C1231 H1246 0.961 . S
C1231 H1247 0.960 . S
H1232 C1216 0.931 1_455 S
H1233 C1221 0.929 . S
H1234 C1222 0.960 . S
H1235 C1222 0.962 . S
H1236 C1222 0.960 . S
H1237 C1223 0.961 . S
H1238 C1223 0.961 . S
H1239 C1223 0.961 . S
H1240 C1224 0.931 . S
H1241 C1229 0.930 . S
H1242 C1230 0.956 1_455 S
H1243 C1230 0.961 . S
H1244 C1230 0.961 . S
H1245 C1231 0.958 . S
H1246 C1231 0.961 . S
H1247 C1231 0.960 . S
C1248 C1249 1.391 . S
C1248 C1250 1.394 . S
C1248 H1264 0.931 . S
C1249 C1248 1.391 . S
C1249 C1253 1.376 . S
C1250 C1248 1.394 . S
C1250 C1251 1.369 . S
C1250 C1254 1.531 . S
C1251 C1250 1.369 . S
C1251 C1252 1.410 . S
C1251 C1259 1.503 1_655 S
C1252 C1251 1.410 . S
C1252 C1253 1.392 . S
C1252 C1255 1.511 1_655 S
C1253 C1249 1.376 . S
C1253 C1252 1.392 . S
C1253 H1265 0.929 . S
C1254 C1250 1.531 . S
C1254 H1266 0.960 . S
C1254 H1267 0.962 . S
C1254 H1268 0.960 . S
C1255 C1252 1.511 1_455 S
C1255 H1269 0.961 1_455 S
C1255 H1270 0.961 . S
C1255 H1271 0.961 . S
C1256 C1257 1.370 . S
C1256 C1258 1.363 . S
C1256 H1272 0.931 . S
C1257 C1256 1.370 . S
C1257 C1261 1.408 . S
C1258 C1256 1.363 . S
C1258 C1259 1.370 . S
C1258 C1262 1.524 1_455 S
C1259 C1251 1.503 1_455 S
C1259 C1258 1.370 . S
C1259 C1260 1.403 . S
C1260 C1259 1.403 . S
C1260 C1261 1.404 . S
C1260 C1263 1.539 . S
C1261 C1257 1.408 . S
C1261 C1260 1.404 . S
C1261 H1273 0.930 . S
C1262 C1258 1.524 1_655 S
C1262 H1274 0.956 . S
C1262 H1275 0.961 . S
C1262 H1276 0.961 . S
C1263 C1260 1.539 . S
C1263 H1277 0.958 . S
C1263 H1278 0.961 . S
C1263 H1279 0.960 . S
H1264 C1248 0.931 . S
H1265 C1253 0.929 . S
H1266 C1254 0.960 . S
H1267 C1254 0.962 . S
H1268 C1254 0.960 . S
H1269 C1255 0.961 1_655 S
H1270 C1255 0.961 . S
H1271 C1255 0.961 . S
H1272 C1256 0.931 . S
H1273 C1261 0.930 . S
H1274 C1262 0.956 . S
H1275 C1262 0.961 . S
H1276 C1262 0.961 . S
H1277 C1263 0.958 . S
H1278 C1263 0.961 . S
H1279 C1263 0.960 . S
C1280 C1281 1.391 . S
C1280 C1282 1.394 . S
C1280 H1296 0.931 . S
C1281 C1280 1.391 . S
C1281 C1285 1.376 . S
C1282 C1280 1.394 . S
C1282 C1283 1.369 . S
C1282 C1286 1.531 . S
C1283 C1282 1.369 . S
C1283 C1284 1.410 . S
C1283 C1291 1.503 . S
C1284 C1283 1.410 . S
C1284 C1285 1.392 . S
C1284 C1287 1.511 . S
C1285 C1281 1.376 . S
C1285 C1284 1.392 . S
C1285 H1297 0.929 . S
C1286 C1282 1.531 . S
C1286 H1298 0.960 . S
C1286 H1299 0.962 . S
C1286 H1300 0.960 . S
C1287 C1284 1.511 . S
C1287 H1301 0.961 . S
C1287 H1302 0.961 . S
C1287 H1303 0.961 . S
C1288 C1289 1.370 . S
C1288 C1290 1.363 . S
C1288 H1304 0.931 . S
C1289 C1288 1.370 . S
C1289 C1293 1.408 . S
C1290 C1288 1.363 . S
C1290 C1291 1.370 . S
C1290 C1294 1.524 . S
C1291 C1283 1.503 . S
C1291 C1290 1.370 . S
C1291 C1292 1.403 . S
C1292 C1291 1.403 . S
C1292 C1293 1.404 . S
C1292 C1295 1.539 . S
C1293 C1289 1.408 . S
C1293 C1292 1.404 . S
C1293 H1305 0.930 . S
C1294 C1290 1.524 . S
C1294 H1306 0.956 . S
C1294 H1307 0.961 . S
C1294 H1308 0.961 . S
C1295 C1292 1.539 . S
C1295 H1309 0.958 . S
C1295 H1310 0.961 . S
C1295 H1311 0.960 . S
H1296 C1280 0.931 . S
H1297 C1285 0.929 . S
H1298 C1286 0.960 . S
H1299 C1286 0.962 . S
H1300 C1286 0.960 . S
H1301 C1287 0.961 . S
H1302 C1287 0.961 . S
H1303 C1287 0.961 . S
H1304 C1288 0.931 . S
H1305 C1293 0.930 . S
H1306 C1294 0.956 . S
H1307 C1294 0.961 . S
H1308 C1294 0.961 . S
H1309 C1295 0.958 . S
H1310 C1295 0.961 . S
H1311 C1295 0.960 . S
C1312 C1313 1.391 . S
C1312 C1314 1.394 . S
C1312 H1328 0.931 . S
C1313 C1312 1.391 . S
C1313 C1317 1.376 . S
C1314 C1312 1.394 . S
C1314 C1315 1.369 . S
C1314 C1318 1.531 . S
C1315 C1314 1.369 . S
C1315 C1316 1.410 . S
C1315 C1323 1.503 . S
C1316 C1315 1.410 . S
C1316 C1317 1.392 . S
C1316 C1319 1.511 . S
C1317 C1313 1.376 . S
C1317 C1316 1.392 . S
C1317 H1329 0.929 . S
C1318 C1314 1.531 . S
C1318 H1330 0.960 . S
C1318 H1331 0.962 . S
C1318 H1332 0.960 . S
C1319 C1316 1.511 . S
C1319 H1333 0.961 . S
C1319 H1334 0.961 . S
C1319 H1335 0.961 . S
C1320 C1321 1.370 . S
C1320 C1322 1.363 . S
C1320 H1336 0.931 . S
C1321 C1320 1.370 . S
C1321 C1325 1.408 . S
C1322 C1320 1.363 . S
C1322 C1323 1.370 . S
C1322 C1326 1.524 . S
C1323 C1315 1.503 . S
C1323 C1322 1.370 . S
C1323 C1324 1.403 . S
C1324 C1323 1.403 . S
C1324 C1325 1.404 . S
C1324 C1327 1.539 . S
C1325 C1321 1.408 . S
C1325 C1324 1.404 . S
C1325 H1337 0.930 . S
C1326 C1322 1.524 . S
C1326 H1338 0.956 . S
C1326 H1339 0.961 . S
C1326 H1340 0.961 . S
C1327 C1324 1.539 . S
C1327 H1341 0.958 . S
C1327 H1342 0.961 . S
C1327 H1343 0.960 . S
H1328 C1312 0.931 . S
H1329 C1317 0.929 . S
H1330 C1318 0.960 . S
H1331 C1318 0.962 . S
H1332 C1318 0.960 . S
H1333 C1319 0.961 . S
H1334 C1319 0.961 . S
H1335 C1319 0.961 . S
H1336 C1320 0.931 . S
H1337 C1325 0.930 . S
H1338 C1326 0.956 . S
H1339 C1326 0.961 . S
H1340 C1326 0.961 . S
H1341 C1327 0.958 . S
H1342 C1327 0.961 . S
H1343 C1327 0.960 . S
C1344 C1345 1.391 . S
C1344 C1346 1.394 1_655 S
C1344 H1360 0.931 . S
C1345 C1344 1.391 . S
C1345 C1349 1.376 . S
C1346 C1344 1.394 1_455 S
C1346 C1347 1.369 1_455 S
C1346 C1350 1.531 . S
C1347 C1346 1.369 1_655 S
C1347 C1348 1.410 . S
C1347 C1355 1.503 1_655 S
C1348 C1347 1.410 . S
C1348 C1349 1.392 . S
C1348 C1351 1.511 . S
C1349 C1345 1.376 . S
C1349 C1348 1.392 . S
C1349 H1361 0.929 . S
C1350 C1346 1.531 . S
C1350 H1362 0.960 . S
C1350 H1363 0.962 . S
C1350 H1364 0.960 . S
C1351 C1348 1.511 . S
C1351 H1365 0.961 . S
C1351 H1366 0.961 . S
C1351 H1367 0.961 . S
C1352 C1353 1.370 . S
C1352 C1354 1.354 1_455 S
C1352 H1368 0.931 . S
C1353 C1352 1.370 . S
C1353 C1357 1.408 . S
C1354 C1352 1.354 1_655 S
C1354 C1355 1.362 1_655 S
C1354 C1358 1.542 . S
C1355 C1347 1.503 1_455 S
C1355 C1354 1.362 1_455 S
C1355 C1356 1.403 . S
C1356 C1355 1.403 . S
C1356 C1357 1.404 . S
C1356 C1359 1.539 . S
C1357 C1353 1.408 . S
C1357 C1356 1.404 . S
C1357 H1369 0.930 . S
C1358 C1354 1.542 . S
C1358 H1370 0.956 . S
C1358 H1371 0.961 . S
C1358 H1372 0.961 . S
C1359 C1356 1.539 . S
C1359 H1373 0.958 . S
C1359 H1374 0.961 . S
C1359 H1375 0.960 . S
H1360 C1344 0.931 . S
H1361 C1349 0.929 . S
H1362 C1350 0.960 . S
H1363 C1350 0.962 . S
H1364 C1350 0.960 . S
H1365 C1351 0.961 . S
H1366 C1351 0.961 . S
H1367 C1351 0.961 . S
H1368 C1352 0.931 . S
H1369 C1357 0.930 . S
H1370 C1358 0.956 . S
H1371 C1358 0.961 . S
H1372 C1358 0.961 . S
H1373 C1359 0.958 . S
H1374 C1359 0.961 . S
H1375 C1359 0.960 . S
C1376 C1377 1.391 . S
C1376 C1378 1.394 . S
C1376 H1392 0.931 . S
C1377 C1376 1.391 . S
C1377 C1381 1.376 . S
C1378 C1376 1.394 . S
C1378 C1379 1.369 . S
C1378 C1382 1.531 . S
C1379 C1378 1.369 . S
C1379 C1380 1.410 . S
C1379 C1387 1.503 . S
C1380 C1379 1.410 . S
C1380 C1381 1.392 . S
C1380 C1383 1.511 . S
C1381 C1377 1.376 . S
C1381 C1380 1.392 . S
C1381 H1393 0.929 . S
C1382 C1378 1.531 . S
C1382 H1394 0.960 . S
C1382 H1395 0.962 . S
C1382 H1396 0.960 . S
C1383 C1380 1.511 . S
C1383 H1397 0.961 . S
C1383 H1398 0.961 . S
C1383 H1399 0.961 . S
C1384 C1385 1.370 . S
C1384 C1386 1.363 . S
C1384 H1400 0.931 . S
C1385 C1384 1.370 . S
C1385 C1389 1.408 . S
C1386 C1384 1.363 . S
C1386 C1387 1.370 . S
C1386 C1390 1.524 . S
C1387 C1379 1.503 . S
C1387 C1386 1.370 . S
C1387 C1388 1.403 . S
C1388 C1387 1.403 . S
C1388 C1389 1.404 . S
C1388 C1391 1.539 . S
C1389 C1385 1.408 . S
C1389 C1388 1.404 . S
C1389 H1401 0.930 . S
C1390 C1386 1.524 . S
C1390 H1402 0.956 . S
C1390 H1403 0.961 . S
C1390 H1404 0.961 . S
C1391 C1388 1.539 . S
C1391 H1405 0.958 . S
C1391 H1406 0.961 . S
C1391 H1407 0.960 . S
H1392 C1376 0.931 . S
H1393 C1381 0.929 . S
H1394 C1382 0.960 . S
H1395 C1382 0.962 . S
H1396 C1382 0.960 . S
H1397 C1383 0.961 . S
H1398 C1383 0.961 . S
H1399 C1383 0.961 . S
H1400 C1384 0.931 . S
H1401 C1389 0.930 . S
H1402 C1390 0.956 . S
H1403 C1390 0.961 . S
H1404 C1390 0.961 . S
H1405 C1391 0.958 . S
H1406 C1391 0.961 . S
H1407 C1391 0.960 . S
C1408 C1409 1.391 . S
C1408 C1410 1.394 . S
C1408 H1424 0.931 . S
C1409 C1408 1.391 . S
C1409 C1413 1.376 . S
C1410 C1408 1.394 . S
C1410 C1411 1.369 . S
C1410 C1414 1.531 . S
C1411 C1410 1.369 . S
C1411 C1412 1.410 . S
C1411 C1419 1.503 . S
C1412 C1411 1.410 . S
C1412 C1413 1.392 . S
C1412 C1415 1.511 . S
C1413 C1409 1.376 . S
C1413 C1412 1.392 . S
C1413 H1425 0.929 . S
C1414 C1410 1.531 . S
C1414 H1426 0.960 . S
C1414 H1427 0.962 . S
C1414 H1428 0.960 . S
C1415 C1412 1.511 . S
C1415 H1429 0.961 . S
C1415 H1430 0.961 . S
C1415 H1431 0.961 . S
C1416 C1417 1.370 . S
C1416 C1418 1.363 . S
C1416 H1432 0.931 . S
C1417 C1416 1.370 . S
C1417 C1421 1.408 . S
C1418 C1416 1.363 . S
C1418 C1419 1.370 . S
C1418 C1422 1.524 . S
C1419 C1411 1.503 . S
C1419 C1418 1.370 . S
C1419 C1420 1.403 . S
C1420 C1419 1.403 . S
C1420 C1421 1.404 . S
C1420 C1423 1.539 . S
C1421 C1417 1.408 . S
C1421 C1420 1.404 . S
C1421 H1433 0.930 . S
C1422 C1418 1.524 . S
C1422 H1434 0.956 . S
C1422 H1435 0.961 . S
C1422 H1436 0.961 . S
C1423 C1420 1.539 . S
C1423 H1437 0.958 . S
C1423 H1438 0.961 . S
C1423 H1439 0.960 . S
H1424 C1408 0.931 . S
H1425 C1413 0.929 . S
H1426 C1414 0.960 . S
H1427 C1414 0.962 . S
H1428 C1414 0.960 . S
H1429 C1415 0.961 . S
H1430 C1415 0.961 . S
H1431 C1415 0.961 . S
H1432 C1416 0.931 . S
H1433 C1421 0.930 . S
H1434 C1422 0.956 . S
H1435 C1422 0.961 . S
H1436 C1422 0.961 . S
H1437 C1423 0.958 . S
H1438 C1423 0.961 . S
H1439 C1423 0.960 . S
C1440 C1441 1.391 . S
C1440 C1442 1.394 . S
C1440 H1456 0.931 . S
C1441 C1440 1.391 . S
C1441 C1445 1.376 . S
C1442 C1440 1.394 . S
C1442 C1443 1.369 . S
C1442 C1446 1.531 . S
C1443 C1442 1.369 . S
C1443 C1444 1.410 . S
C1443 C1451 1.503 1_655 S
C1444 C1443 1.410 . S
C1444 C1445 1.392 . S
C1444 C1447 1.511 . S
C1445 C1441 1.376 . S
C1445 C1444 1.392 . S
C1445 H1457 0.929 . S
C1446 C1442 1.531 . S
C1446 H1458 0.960 . S
C1446 H1459 0.962 . S
C1446 H1460 0.960 . S
C1447 C1444 1.511 . S
C1447 H1461 0.961 . S
C1447 H1462 0.961 1_655 S
C1447 H1463 0.961 . S
C1448 C1449 1.370 . S
C1448 C1450 1.363 . S
C1448 H1464 0.931 . S
C1449 C1448 1.370 . S
C1449 C1453 1.408 . S
C1450 C1448 1.363 . S
C1450 C1451 1.370 . S
C1450 C1454 1.524 . S
C1451 C1443 1.503 1_455 S
C1451 C1450 1.370 . S
C1451 C1452 1.403 . S
C1452 C1451 1.403 . S
C1452 C1453 1.404 . S
C1452 C1455 1.539 1_455 S
C1453 C1449 1.408 . S
C1453 C1452 1.404 . S
C1453 H1465 0.930 . S
C1454 C1450 1.524 . S
C1454 H1466 0.956 . S
C1454 H1467 0.961 . S
C1454 H1468 0.961 . S
C1455 C1452 1.539 1_655 S
C1455 H1469 0.958 . S
C1455 H1470 0.961 . S
C1455 H1471 0.960 . S
H1456 C1440 0.931 . S
H1457 C1445 0.929 . S
H1458 C1446 0.960 . S
H1459 C1446 0.962 . S
H1460 C1446 0.960 . S
H1461 C1447 0.961 . S
H1462 C1447 0.961 1_455 S
H1463 C1447 0.961 . S
H1464 C1448 0.931 . S
H1465 C1453 0.930 . S
H1466 C1454 0.956 . S
H1467 C1454 0.961 . S
H1468 C1454 0.961 . S
H1469 C1455 0.958 . S
H1470 C1455 0.961 . S
H1471 C1455 0.960 . S
C1472 C1473 1.391 . S
C1472 C1474 1.394 . S
C1472 H1488 0.931 . S
C1473 C1472 1.391 . S
C1473 C1477 1.376 . S
C1474 C1472 1.394 . S
C1474 C1475 1.369 . S
C1474 C1478 1.531 . S
C1475 C1474 1.369 . S
C1475 C1476 1.388 1_556 S
C1475 C1483 1.503 1_556 S
C1476 C1475 1.388 1_554 S
C1476 C1477 1.368 1_554 S
C1476 C1479 1.558 . S
C1477 C1473 1.376 . S
C1477 C1476 1.368 1_556 S
C1477 H1489 0.929 . S
C1478 C1474 1.531 . S
C1478 H1490 0.960 . S
C1478 H1491 0.962 . S
C1478 H1492 0.960 . S
C1479 C1476 1.558 . S
C1479 H1493 0.961 . S
C1479 H1494 0.961 . S
C1479 H1495 0.961 . S
C1480 C1481 1.370 . S
C1480 C1482 1.363 . S
C1480 H1496 0.931 . S
C1481 C1480 1.370 . S
C1481 C1485 1.408 . S
C1482 C1480 1.363 . S
C1482 C1483 1.370 . S
C1482 C1486 1.524 . S
C1483 C1475 1.503 1_554 S
C1483 C1482 1.370 . S
C1483 C1484 1.403 . S
C1484 C1483 1.403 . S
C1484 C1485 1.404 . S
C1484 C1487 1.539 1_554 S
C1485 C1481 1.408 . S
C1485 C1484 1.404 . S
C1485 H1497 0.930 . S
C1486 C1482 1.524 . S
C1486 H1498 0.956 . S
C1486 H1499 0.961 . S
C1486 H1500 0.961 . S
C1487 C1484 1.539 1_556 S
C1487 H1501 0.958 . S
C1487 H1502 0.961 . S
C1487 H1503 0.960 . S
H1488 C1472 0.931 . S
H1489 C1477 0.929 . S
H1490 C1478 0.960 . S
H1491 C1478 0.962 . S
H1492 C1478 0.960 . S
H1493 C1479 0.961 . S
H1494 C1479 0.961 . S
H1495 C1479 0.961 . S
H1496 C1480 0.931 . S
H1497 C1485 0.930 . S
H1498 C1486 0.956 . S
H1499 C1486 0.961 . S
H1500 C1486 0.961 . S
H1501 C1487 0.958 . S
H1502 C1487 0.961 . S
H1503 C1487 0.960 . S
C1504 C1505 1.391 . S
C1504 C1506 1.394 . S
C1504 H1520 0.931 . S
C1505 C1504 1.391 . S
C1505 C1509 1.376 . S
C1506 C1504 1.394 . S
C1506 C1507 1.369 . S
C1506 C1510 1.531 . S
C1507 C1506 1.369 . S
C1507 C1508 1.410 . S
C1507 C1515 1.503 1_545 S
C1508 C1507 1.410 . S
C1508 C1509 1.392 . S
C1508 C1511 1.511 . S
C1509 C1505 1.376 . S
C1509 C1508 1.392 . S
C1509 H1521 0.929 . S
C1510 C1506 1.531 . S
C1510 H1522 0.960 1_545 S
C1510 H1523 0.962 1_545 S
C1510 H1524 0.960 . S
C1511 C1508 1.511 . S
C1511 H1525 0.961 . S
C1511 H1526 0.961 . S
C1511 H1527 0.961 . S
C1512 C1513 1.370 . S
C1512 C1514 1.363 . S
C1512 H1528 0.931 . S
C1513 C1512 1.370 . S
C1513 C1517 1.408 . S
C1514 C1512 1.363 . S
C1514 C1515 1.370 . S
C1514 C1518 1.524 . S
C1515 C1507 1.503 1_565 S
C1515 C1514 1.370 . S
C1515 C1516 1.403 . S
C1516 C1515 1.403 . S
C1516 C1517 1.404 . S
C1516 C1519 1.539 1_565 S
C1517 C1513 1.408 . S
C1517 C1516 1.404 . S
C1517 H1529 0.930 . S
C1518 C1514 1.524 . S
C1518 H1530 0.956 . S
C1518 H1531 0.961 . S
C1518 H1532 0.961 . S
C1519 C1516 1.539 1_545 S
C1519 H1533 0.958 . S
C1519 H1534 0.961 . S
C1519 H1535 0.960 . S
H1520 C1504 0.931 . S
H1521 C1509 0.929 . S
H1522 C1510 0.960 1_565 S
H1523 C1510 0.962 1_565 S
H1524 C1510 0.960 . S
H1525 C1511 0.961 . S
H1526 C1511 0.961 . S
H1527 C1511 0.961 . S
H1528 C1512 0.931 . S
H1529 C1517 0.930 . S
H1530 C1518 0.956 . S
H1531 C1518 0.961 . S
H1532 C1518 0.961 . S
H1533 C1519 0.958 . S
H1534 C1519 0.961 . S
H1535 C1519 0.960 . S
C1536 C1537 1.391 . S
C1536 C1538 1.394 . S
C1536 H1552 0.931 . S
C1537 C1536 1.391 . S
C1537 C1541 1.376 . S
C1538 C1536 1.394 . S
C1538 C1539 1.369 . S
C1538 C1542 1.531 . S
C1539 C1538 1.369 . S
C1539 C1540 1.410 . S
C1539 C1547 1.503 . S
C1540 C1539 1.410 . S
C1540 C1541 1.392 . S
C1540 C1543 1.511 . S
C1541 C1537 1.376 . S
C1541 C1540 1.392 . S
C1541 H1553 0.929 . S
C1542 C1538 1.531 . S
C1542 H1554 0.960 . S
C1542 H1555 0.962 . S
C1542 H1556 0.960 . S
C1543 C1540 1.511 . S
C1543 H1557 0.961 . S
C1543 H1558 0.961 . S
C1543 H1559 0.961 . S
C1544 C1545 1.370 . S
C1544 C1546 1.363 . S
C1544 H1560 0.931 . S
C1545 C1544 1.370 . S
C1545 C1549 1.408 . S
C1546 C1544 1.363 . S
C1546 C1547 1.370 . S
C1546 C1550 1.524 . S
C1547 C1539 1.503 . S
C1547 C1546 1.370 . S
C1547 C1548 1.403 . S
C1548 C1547 1.403 . S
C1548 C1549 1.404 . S
C1548 C1551 1.539 . S
C1549 C1545 1.408 . S
C1549 C1548 1.404 . S
C1549 H1561 0.930 . S
C1550 C1546 1.524 . S
C1550 H1562 0.956 . S
C1550 H1563 0.961 . S
C1550 H1564 0.961 . S
C1551 C1548 1.539 . S
C1551 H1565 0.958 . S
C1551 H1566 0.961 . S
C1551 H1567 0.960 . S
H1552 C1536 0.931 . S
H1553 C1541 0.929 . S
H1554 C1542 0.960 . S
H1555 C1542 0.962 . S
H1556 C1542 0.960 . S
H1557 C1543 0.961 . S
H1558 C1543 0.961 . S
H1559 C1543 0.961 . S
H1560 C1544 0.931 . S
H1561 C1549 0.930 . S
H1562 C1550 0.956 . S
H1563 C1550 0.961 . S
H1564 C1550 0.961 . S
H1565 C1551 0.958 . S
H1566 C1551 0.961 . S
H1567 C1551 0.960 . S
C1568 C1569 1.391 . S
C1568 C1570 1.394 . S
C1568 H1584 0.931 . S
C1569 C1568 1.391 . S
C1569 C1573 1.376 . S
C1570 C1568 1.394 . S
C1570 C1571 1.369 . S
C1570 C1574 1.531 . S
C1571 C1570 1.369 . S
C1571 C1572 1.410 . S
C1571 C1579 1.503 1_545 S
C1572 C1571 1.410 . S
C1572 C1573 1.392 . S
C1572 C1575 1.511 . S
C1573 C1569 1.376 . S
C1573 C1572 1.392 . S
C1573 H1585 0.929 . S
C1574 C1570 1.531 . S
C1574 H1586 0.960 . S
C1574 H1587 0.962 . S
C1574 H1588 0.960 . S
C1575 C1572 1.511 . S
C1575 H1589 0.961 . S
C1575 H1590 0.961 1_545 S
C1575 H1591 0.961 . S
C1576 C1577 1.370 . S
C1576 C1578 1.363 . S
C1576 H1592 0.931 . S
C1577 C1576 1.370 . S
C1577 C1581 1.408 . S
C1578 C1576 1.363 . S
C1578 C1579 1.370 . S
C1578 C1582 1.524 . S
C1579 C1571 1.503 1_565 S
C1579 C1578 1.370 . S
C1579 C1580 1.403 . S
C1580 C1579 1.403 . S
C1580 C1581 1.404 . S
C1580 C1583 1.539 1_565 S
C1581 C1577 1.408 . S
C1581 C1580 1.404 . S
C1581 H1593 0.930 . S
C1582 C1578 1.524 . S
C1582 H1594 0.956 . S
C1582 H1595 0.961 . S
C1582 H1596 0.961 . S
C1583 C1580 1.539 1_545 S
C1583 H1597 0.958 . S
C1583 H1598 0.961 . S
C1583 H1599 0.960 . S
H1584 C1568 0.931 . S
H1585 C1573 0.929 . S
H1586 C1574 0.960 . S
H1587 C1574 0.962 . S
H1588 C1574 0.960 . S
H1589 C1575 0.961 . S
H1590 C1575 0.961 1_565 S
H1591 C1575 0.961 . S
H1592 C1576 0.931 . S
H1593 C1581 0.930 . S
H1594 C1582 0.956 . S
H1595 C1582 0.961 . S
H1596 C1582 0.961 . S
H1597 C1583 0.958 . S
H1598 C1583 0.961 . S
H1599 C1583 0.960 . S
C1600 C1601 1.391 . S
C1600 C1602 1.394 . S
C1600 H1616 0.931 . S
C1601 C1600 1.391 . S
C1601 C1605 1.376 . S
C1602 C1600 1.394 . S
C1602 C1603 1.369 . S
C1602 C1606 1.531 . S
C1603 C1602 1.369 . S
C1603 C1604 1.410 1_554 S
C1603 C1611 1.503 1_554 S
C1604 C1603 1.410 1_556 S
C1604 C1605 1.392 1_556 S
C1604 C1607 1.511 . S
C1605 C1601 1.376 . S
C1605 C1604 1.392 1_554 S
C1605 H1617 0.929 1_554 S
C1606 C1602 1.531 . S
C1606 H1618 0.960 . S
C1606 H1619 0.962 . S
C1606 H1620 0.960 . S
C1607 C1604 1.511 . S
C1607 H1621 0.961 . S
C1607 H1622 0.961 . S
C1607 H1623 0.961 . S
C1608 C1609 1.370 . S
C1608 C1610 1.363 . S
C1608 H1624 0.931 . S
C1609 C1608 1.370 . S
C1609 C1613 1.408 . S
C1610 C1608 1.363 . S
C1610 C1611 1.370 . S
C1610 C1614 1.524 . S
C1611 C1603 1.503 1_556 S
C1611 C1610 1.370 . S
C1611 C1612 1.403 . S
C1612 C1611 1.403 . S
C1612 C1613 1.404 . S
C1612 C1615 1.539 . S
C1613 C1609 1.408 . S
C1613 C1612 1.404 . S
C1613 H1625 0.930 . S
C1614 C1610 1.524 . S
C1614 H1626 0.956 1_556 S
C1614 H1627 0.961 . S
C1614 H1628 0.961 . S
C1615 C1612 1.539 . S
C1615 H1629 0.958 1_556 S
C1615 H1630 0.961 . S
C1615 H1631 0.960 . S
H1616 C1600 0.931 . S
H1617 C1605 0.929 1_556 S
H1618 C1606 0.960 . S
H1619 C1606 0.962 . S
H1620 C1606 0.960 . S
H1621 C1607 0.961 . S
H1622 C1607 0.961 . S
H1623 C1607 0.961 . S
H1624 C1608 0.931 . S
H1625 C1613 0.930 . S
H1626 C1614 0.956 1_554 S
H1627 C1614 0.961 . S
H1628 C1614 0.961 . S
H1629 C1615 0.958 1_554 S
H1630 C1615 0.961 . S
H1631 C1615 0.960 . S
C1632 C1633 1.391 . S
C1632 C1634 1.394 . S
C1632 H1648 0.931 . S
C1633 C1632 1.391 . S
C1633 C1637 1.376 . S
C1634 C1632 1.394 . S
C1634 C1635 1.369 . S
C1634 C1638 1.531 . S
C1635 C1634 1.369 . S
C1635 C1636 1.410 . S
C1635 C1643 1.503 1_565 S
C1636 C1635 1.410 . S
C1636 C1637 1.392 . S
C1636 C1639 1.511 1_565 S
C1637 C1633 1.376 . S
C1637 C1636 1.392 . S
C1637 H1649 0.929 . S
C1638 C1634 1.531 . S
C1638 H1650 0.960 . S
C1638 H1651 0.962 . S
C1638 H1652 0.960 . S
C1639 C1636 1.511 1_545 S
C1639 H1653 0.961 1_545 S
C1639 H1654 0.961 . S
C1639 H1655 0.961 . S
C1640 C1641 1.370 . S
C1640 C1642 1.363 . S
C1640 H1656 0.931 . S
C1641 C1640 1.370 . S
C1641 C1645 1.408 . S
C1642 C1640 1.363 . S
C1642 C1643 1.370 . S
C1642 C1646 1.524 1_545 S
C1643 C1635 1.503 1_545 S
C1643 C1642 1.370 . S
C1643 C1644 1.403 . S
C1644 C1643 1.403 . S
C1644 C1645 1.404 . S
C1644 C1647 1.539 . S
C1645 C1641 1.408 . S
C1645 C1644 1.404 . S
C1645 H1657 0.930 . S
C1646 C1642 1.524 1_565 S
C1646 H1658 0.956 . S
C1646 H1659 0.961 . S
C1646 H1660 0.961 . S
C1647 C1644 1.539 . S
C1647 H1661 0.958 . S
C1647 H1662 0.961 . S
C1647 H1663 0.960 . S
H1648 C1632 0.931 . S
H1649 C1637 0.929 . S
H1650 C1638 0.960 . S
H1651 C1638 0.962 . S
H1652 C1638 0.960 . S
H1653 C1639 0.961 1_565 S
H1654 C1639 0.961 . S
H1655 C1639 0.961 . S
H1656 C1640 0.931 . S
H1657 C1645 0.930 . S
H1658 C1646 0.956 . S
H1659 C1646 0.961 . S
H1660 C1646 0.961 . S
H1661 C1647 0.958 . S
H1662 C1647 0.961 . S
H1663 C1647 0.960 . S
C1664 C1665 1.391 . S
C1664 C1666 1.394 . S
C1664 H1680 0.931 . S
C1665 C1664 1.391 . S
C1665 C1669 1.376 . S
C1666 C1664 1.394 . S
C1666 C1667 1.369 . S
C1666 C1670 1.531 . S
C1667 C1666 1.369 . S
C1667 C1668 1.410 . S
C1667 C1675 1.503 . S
C1668 C1667 1.410 . S
C1668 C1669 1.392 . S
C1668 C1671 1.511 . S
C1669 C1665 1.376 . S
C1669 C1668 1.392 . S
C1669 H1681 0.929 . S
C1670 C1666 1.531 . S
C1670 H1682 0.960 . S
C1670 H1683 0.962 . S
C1670 H1684 0.960 . S
C1671 C1668 1.511 . S
C1671 H1685 0.961 . S
C1671 H1686 0.961 . S
C1671 H1687 0.961 . S
C1672 C1673 1.370 . S
C1672 C1674 1.363 . S
C1672 H1688 0.931 . S
C1673 C1672 1.370 . S
C1673 C1677 1.408 . S
C1674 C1672 1.363 . S
C1674 C1675 1.370 . S
C1674 C1678 1.524 . S
C1675 C1667 1.503 . S
C1675 C1674 1.370 . S
C1675 C1676 1.403 . S
C1676 C1675 1.403 . S
C1676 C1677 1.404 . S
C1676 C1679 1.539 . S
C1677 C1673 1.408 . S
C1677 C1676 1.404 . S
C1677 H1689 0.930 . S
C1678 C1674 1.524 . S
C1678 H1690 0.956 . S
C1678 H1691 0.961 . S
C1678 H1692 0.961 . S
C1679 C1676 1.539 . S
C1679 H1693 0.958 . S
C1679 H1694 0.961 . S
C1679 H1695 0.960 . S
H1680 C1664 0.931 . S
H1681 C1669 0.929 . S
H1682 C1670 0.960 . S
H1683 C1670 0.962 . S
H1684 C1670 0.960 . S
H1685 C1671 0.961 . S
H1686 C1671 0.961 . S
H1687 C1671 0.961 . S
H1688 C1672 0.931 . S
H1689 C1677 0.930 . S
H1690 C1678 0.956 . S
H1691 C1678 0.961 . S
H1692 C1678 0.961 . S
H1693 C1679 0.958 . S
H1694 C1679 0.961 . S
H1695 C1679 0.960 . S
C1696 C1697 1.391 . S
C1696 C1698 1.394 . S
C1696 H1712 0.931 . S
C1697 C1696 1.391 . S
C1697 C1701 1.376 . S
C1698 C1696 1.394 . S
C1698 C1699 1.369 . S
C1698 C1702 1.531 . S
C1699 C1698 1.369 . S
C1699 C1700 1.410 . S
C1699 C1707 1.503 1_545 S
C1700 C1699 1.410 . S
C1700 C1701 1.392 . S
C1700 C1703 1.511 . S
C1701 C1697 1.376 . S
C1701 C1700 1.392 . S
C1701 H1713 0.929 . S
C1702 C1698 1.531 . S
C1702 H1714 0.960 1_545 S
C1702 H1715 0.962 . S
C1702 H1716 0.960 . S
C1703 C1700 1.511 . S
C1703 H1717 0.961 . S
C1703 H1718 0.961 . S
C1703 H1719 0.961 . S
C1704 C1705 1.370 . S
C1704 C1706 1.363 . S
C1704 H1720 0.931 . S
C1705 C1704 1.370 . S
C1705 C1709 1.408 . S
C1706 C1704 1.363 . S
C1706 C1707 1.370 . S
C1706 C1710 1.524 1_565 S
C1707 C1699 1.503 1_565 S
C1707 C1706 1.370 . S
C1707 C1708 1.403 . S
C1708 C1707 1.403 . S
C1708 C1709 1.404 . S
C1708 C1711 1.539 . S
C1709 C1705 1.408 . S
C1709 C1708 1.404 . S
C1709 H1721 0.930 . S
C1710 C1706 1.524 1_545 S
C1710 H1722 0.956 . S
C1710 H1723 0.961 . S
C1710 H1724 0.961 . S
C1711 C1708 1.539 . S
C1711 H1725 0.958 . S
C1711 H1726 0.961 . S
C1711 H1727 0.960 . S
H1712 C1696 0.931 . S
H1713 C1701 0.929 . S
H1714 C1702 0.960 1_565 S
H1715 C1702 0.962 . S
H1716 C1702 0.960 . S
H1717 C1703 0.961 . S
H1718 C1703 0.961 . S
H1719 C1703 0.961 . S
H1720 C1704 0.931 . S
H1721 C1709 0.930 . S
H1722 C1710 0.956 . S
H1723 C1710 0.961 . S
H1724 C1710 0.961 . S
H1725 C1711 0.958 . S
H1726 C1711 0.961 . S
H1727 C1711 0.960 . S
C1728 C1729 1.391 . S
C1728 C1730 1.394 . S
C1728 H1744 0.931 . S
C1729 C1728 1.391 . S
C1729 C1733 1.376 . S
C1730 C1728 1.394 . S
C1730 C1731 1.369 . S
C1730 C1734 1.531 . S
C1731 C1730 1.369 . S
C1731 C1732 1.410 . S
C1731 C1739 1.503 . S
C1732 C1731 1.410 . S
C1732 C1733 1.392 . S
C1732 C1735 1.511 . S
C1733 C1729 1.376 . S
C1733 C1732 1.392 . S
C1733 H1745 0.929 . S
C1734 C1730 1.531 . S
C1734 H1746 0.960 . S
C1734 H1747 0.962 . S
C1734 H1748 0.960 . S
C1735 C1732 1.511 . S
C1735 H1749 0.961 . S
C1735 H1750 0.961 . S
C1735 H1751 0.961 . S
C1736 C1737 1.370 . S
C1736 C1738 1.363 . S
C1736 H1752 0.931 . S
C1737 C1736 1.370 . S
C1737 C1741 1.408 . S
C1738 C1736 1.363 . S
C1738 C1739 1.370 . S
C1738 C1742 1.524 . S
C1739 C1731 1.503 . S
C1739 C1738 1.370 . S
C1739 C1740 1.403 . S
C1740 C1739 1.403 . S
C1740 C1741 1.404 . S
C1740 C1743 1.539 . S
C1741 C1737 1.408 . S
C1741 C1740 1.404 . S
C1741 H1753 0.930 . S
C1742 C1738 1.524 . S
C1742 H1754 0.956 . S
C1742 H1755 0.961 . S
C1742 H1756 0.961 . S
C1743 C1740 1.539 . S
C1743 H1757 0.958 . S
C1743 H1758 0.961 . S
C1743 H1759 0.960 . S
H1744 C1728 0.931 . S
H1745 C1733 0.929 . S
H1746 C1734 0.960 . S
H1747 C1734 0.962 . S
H1748 C1734 0.960 . S
H1749 C1735 0.961 . S
H1750 C1735 0.961 . S
H1751 C1735 0.961 . S
H1752 C1736 0.931 . S
H1753 C1741 0.930 . S
H1754 C1742 0.956 . S
H1755 C1742 0.961 . S
H1756 C1742 0.961 . S
H1757 C1743 0.958 . S
H1758 C1743 0.961 . S
H1759 C1743 0.960 . S
C1760 C1761 1.391 . S
C1760 C1762 1.394 . S
C1760 H1776 0.931 . S
C1761 C1760 1.391 . S
C1761 C1765 1.376 . S
C1762 C1760 1.394 . S
C1762 C1763 1.369 . S
C1762 C1766 1.531 . S
C1763 C1762 1.369 . S
C1763 C1764 1.410 . S
C1763 C1771 1.503 . S
C1764 C1763 1.410 . S
C1764 C1765 1.392 . S
C1764 C1767 1.511 . S
C1765 C1761 1.376 . S
C1765 C1764 1.392 . S
C1765 H1777 0.929 . S
C1766 C1762 1.531 . S
C1766 H1778 0.960 . S
C1766 H1779 0.962 . S
C1766 H1780 0.960 . S
C1767 C1764 1.511 . S
C1767 H1781 0.961 . S
C1767 H1782 0.961 . S
C1767 H1783 0.961 . S
C1768 C1769 1.370 . S
C1768 C1770 1.363 . S
C1768 H1784 0.931 . S
C1769 C1768 1.370 . S
C1769 C1773 1.408 . S
C1770 C1768 1.363 . S
C1770 C1771 1.370 . S
C1770 C1774 1.524 . S
C1771 C1763 1.503 . S
C1771 C1770 1.370 . S
C1771 C1772 1.403 . S
C1772 C1771 1.403 . S
C1772 C1773 1.404 . S
C1772 C1775 1.539 . S
C1773 C1769 1.408 . S
C1773 C1772 1.404 . S
C1773 H1785 0.930 . S
C1774 C1770 1.524 . S
C1774 H1786 0.956 . S
C1774 H1787 0.961 . S
C1774 H1788 0.961 . S
C1775 C1772 1.539 . S
C1775 H1789 0.958 . S
C1775 H1790 0.961 . S
C1775 H1791 0.960 . S
H1776 C1760 0.931 . S
H1777 C1765 0.929 . S
H1778 C1766 0.960 . S
H1779 C1766 0.962 . S
H1780 C1766 0.960 . S
H1781 C1767 0.961 . S
H1782 C1767 0.961 . S
H1783 C1767 0.961 . S
H1784 C1768 0.931 . S
H1785 C1773 0.930 . S
H1786 C1774 0.956 . S
H1787 C1774 0.961 . S
H1788 C1774 0.961 . S
H1789 C1775 0.958 . S
H1790 C1775 0.961 . S
H1791 C1775 0.960 . S
C1792 C1793 1.391 . S
C1792 C1794 1.394 1_554 S
C1792 H1808 0.931 1_554 S
C1793 C1792 1.391 . S
C1793 C1797 1.376 . S
C1794 C1792 1.394 1_556 S
C1794 C1795 1.369 1_556 S
C1794 C1798 1.531 . S
C1795 C1794 1.369 1_554 S
C1795 C1796 1.410 . S
C1795 C1803 1.503 1_554 S
C1796 C1795 1.410 . S
C1796 C1797 1.392 . S
C1796 C1799 1.511 . S
C1797 C1793 1.376 . S
C1797 C1796 1.392 . S
C1797 H1809 0.929 . S
C1798 C1794 1.531 . S
C1798 H1810 0.960 . S
C1798 H1811 0.962 . S
C1798 H1812 0.960 . S
C1799 C1796 1.511 . S
C1799 H1813 0.961 . S
C1799 H1814 0.961 . S
C1799 H1815 0.961 . S
C1800 C1801 1.370 . S
C1800 C1802 1.363 . S
C1800 H1816 0.931 . S
C1801 C1800 1.370 . S
C1801 C1805 1.408 . S
C1802 C1800 1.363 . S
C1802 C1803 1.370 . S
C1802 C1806 1.524 . S
C1803 C1795 1.503 1_556 S
C1803 C1802 1.370 . S
C1803 C1804 1.403 . S
C1804 C1803 1.403 . S
C1804 C1805 1.404 . S
C1804 C1807 1.539 . S
C1805 C1801 1.408 . S
C1805 C1804 1.404 . S
C1805 H1817 0.930 . S
C1806 C1802 1.524 . S
C1806 H1818 0.956 . S
C1806 H1819 0.961 1_556 S
C1806 H1820 0.961 . S
C1807 C1804 1.539 . S
C1807 H1821 0.958 . S
C1807 H1822 0.976 . S
C1807 H1823 0.960 1_556 S
H1808 C1792 0.931 1_556 S
H1809 C1797 0.929 . S
H1810 C1798 0.960 . S
H1811 C1798 0.962 . S
H1812 C1798 0.960 . S
H1813 C1799 0.961 . S
H1814 C1799 0.961 . S
H1815 C1799 0.961 . S
H1816 C1800 0.931 . S
H1817 C1805 0.930 . S
H1818 C1806 0.956 . S
H1819 C1806 0.961 1_554 S
H1820 C1806 0.961 . S
H1821 C1807 0.958 . S
H1822 C1807 0.976 . S
H1823 C1807 0.960 1_554 S
C1824 C1825 1.391 . S
C1824 C1826 1.394 . S
C1824 H1840 0.931 . S
C1825 C1824 1.391 . S
C1825 C1829 1.376 . S
C1826 C1824 1.394 . S
C1826 C1827 1.369 . S
C1826 C1830 1.531 . S
C1827 C1826 1.369 . S
C1827 C1828 1.410 . S
C1827 C1835 1.503 . S
C1828 C1827 1.410 . S
C1828 C1829 1.392 . S
C1828 C1831 1.511 . S
C1829 C1825 1.376 . S
C1829 C1828 1.392 . S
C1829 H1841 0.929 . S
C1830 C1826 1.531 . S
C1830 H1842 0.960 . S
C1830 H1843 0.962 . S
C1830 H1844 0.960 . S
C1831 C1828 1.511 . S
C1831 H1845 0.961 . S
C1831 H1846 0.961 . S
C1831 H1847 0.961 . S
C1832 C1833 1.370 . S
C1832 C1834 1.363 . S
C1832 H1848 0.931 . S
C1833 C1832 1.370 . S
C1833 C1837 1.408 . S
C1834 C1832 1.363 . S
C1834 C1835 1.370 . S
C1834 C1838 1.524 . S
C1835 C1827 1.503 . S
C1835 C1834 1.370 . S
C1835 C1836 1.403 . S
C1836 C1835 1.403 . S
C1836 C1837 1.404 . S
C1836 C1839 1.539 . S
C1837 C1833 1.408 . S
C1837 C1836 1.404 . S
C1837 H1849 0.930 . S
C1838 C1834 1.524 . S
C1838 H1850 0.956 . S
C1838 H1851 0.961 . S
C1838 H1852 0.961 . S
C1839 C1836 1.539 . S
C1839 H1853 0.958 . S
C1839 H1854 0.961 . S
C1839 H1855 0.960 . S
H1840 C1824 0.931 . S
H1841 C1829 0.929 . S
H1842 C1830 0.960 . S
H1843 C1830 0.962 . S
H1844 C1830 0.960 . S
H1845 C1831 0.961 . S
H1846 C1831 0.961 . S
H1847 C1831 0.961 . S
H1848 C1832 0.931 . S
H1849 C1837 0.930 . S
H1850 C1838 0.956 . S
H1851 C1838 0.961 . S
H1852 C1838 0.961 . S
H1853 C1839 0.958 . S
H1854 C1839 0.961 . S
H1855 C1839 0.960 . S
C1856 C1857 1.391 . S
C1856 C1858 1.394 . S
C1856 H1872 0.931 . S
C1857 C1856 1.391 . S
C1857 C1861 1.376 . S
C1858 C1856 1.394 . S
C1858 C1859 1.369 . S
C1858 C1862 1.531 . S
C1859 C1858 1.369 . S
C1859 C1860 1.410 . S
C1859 C1867 1.503 . S
C1860 C1859 1.410 . S
C1860 C1861 1.392 . S
C1860 C1863 1.511 . S
C1861 C1857 1.376 . S
C1861 C1860 1.392 . S
C1861 H1873 0.929 . S
C1862 C1858 1.531 . S
C1862 H1874 0.960 . S
C1862 H1875 0.962 . S
C1862 H1876 0.960 . S
C1863 C1860 1.511 . S
C1863 H1877 0.961 . S
C1863 H1878 0.961 . S
C1863 H1879 0.961 . S
C1864 C1865 1.370 . S
C1864 C1866 1.363 . S
C1864 H1880 0.931 . S
C1865 C1864 1.370 . S
C1865 C1869 1.408 . S
C1866 C1864 1.363 . S
C1866 C1867 1.370 . S
C1866 C1870 1.524 . S
C1867 C1859 1.503 . S
C1867 C1866 1.370 . S
C1867 C1868 1.403 . S
C1868 C1867 1.403 . S
C1868 C1869 1.404 . S
C1868 C1871 1.539 . S
C1869 C1865 1.408 . S
C1869 C1868 1.404 . S
C1869 H1881 0.930 . S
C1870 C1866 1.524 . S
C1870 H1882 0.956 . S
C1870 H1883 0.961 . S
C1870 H1884 0.961 . S
C1871 C1868 1.539 . S
C1871 H1885 0.958 . S
C1871 H1886 0.961 . S
C1871 H1887 0.960 . S
H1872 C1856 0.931 . S
H1873 C1861 0.929 . S
H1874 C1862 0.960 . S
H1875 C1862 0.962 . S
H1876 C1862 0.960 . S
H1877 C1863 0.961 . S
H1878 C1863 0.961 . S
H1879 C1863 0.961 . S
H1880 C1864 0.931 . S
H1881 C1869 0.930 . S
H1882 C1870 0.956 . S
H1883 C1870 0.961 . S
H1884 C1870 0.961 . S
H1885 C1871 0.958 . S
H1886 C1871 0.961 . S
H1887 C1871 0.960 . S
C1888 C1889 1.391 . S
C1888 C1890 1.394 . S
C1888 H1904 0.931 . S
C1889 C1888 1.391 . S
C1889 C1893 1.376 . S
C1890 C1888 1.394 . S
C1890 C1891 1.369 . S
C1890 C1894 1.531 . S
C1891 C1890 1.369 . S
C1891 C1892 1.410 . S
C1891 C1899 1.503 . S
C1892 C1891 1.410 . S
C1892 C1893 1.392 . S
C1892 C1895 1.511 . S
C1893 C1889 1.376 . S
C1893 C1892 1.392 . S
C1893 H1905 0.929 . S
C1894 C1890 1.531 . S
C1894 H1906 0.960 . S
C1894 H1907 0.962 . S
C1894 H1908 0.960 . S
C1895 C1892 1.511 . S
C1895 H1909 0.961 . S
C1895 H1910 0.961 . S
C1895 H1911 0.961 . S
C1896 C1897 1.370 . S
C1896 C1898 1.363 . S
C1896 H1912 0.931 . S
C1897 C1896 1.370 . S
C1897 C1901 1.408 . S
C1898 C1896 1.363 . S
C1898 C1899 1.370 . S
C1898 C1902 1.524 . S
C1899 C1891 1.503 . S
C1899 C1898 1.370 . S
C1899 C1900 1.403 . S
C1900 C1899 1.403 . S
C1900 C1901 1.404 . S
C1900 C1903 1.539 . S
C1901 C1897 1.408 . S
C1901 C1900 1.404 . S
C1901 H1913 0.930 . S
C1902 C1898 1.524 . S
C1902 H1914 0.956 . S
C1902 H1915 0.961 . S
C1902 H1916 0.961 . S
C1903 C1900 1.539 . S
C1903 H1917 0.958 . S
C1903 H1918 0.961 . S
C1903 H1919 0.960 . S
H1904 C1888 0.931 . S
H1905 C1893 0.929 . S
H1906 C1894 0.960 . S
H1907 C1894 0.962 . S
H1908 C1894 0.960 . S
H1909 C1895 0.961 . S
H1910 C1895 0.961 . S
H1911 C1895 0.961 . S
H1912 C1896 0.931 . S
H1913 C1901 0.930 . S
H1914 C1902 0.956 . S
H1915 C1902 0.961 . S
H1916 C1902 0.961 . S
H1917 C1903 0.958 . S
H1918 C1903 0.961 . S
H1919 C1903 0.960 . S
C1920 C1921 1.391 . S
C1920 C1922 1.394 1_556 S
C1920 H1936 0.931 . S
C1921 C1920 1.391 . S
C1921 C1925 1.376 . S
C1922 C1920 1.394 1_554 S
C1922 C1923 1.369 1_554 S
C1922 C1926 1.531 . S
C1923 C1922 1.369 1_556 S
C1923 C1924 1.410 . S
C1923 C1931 1.503 1_556 S
C1924 C1923 1.410 . S
C1924 C1925 1.392 . S
C1924 C1927 1.511 . S
C1925 C1921 1.376 . S
C1925 C1924 1.392 . S
C1925 H1937 0.929 . S
C1926 C1922 1.531 . S
C1926 H1938 0.960 . S
C1926 H1939 0.962 . S
C1926 H1940 0.960 . S
C1927 C1924 1.511 . S
C1927 H1941 0.961 . S
C1927 H1942 0.961 . S
C1927 H1943 0.961 . S
C1928 C1929 1.370 . S
C1928 C1930 1.363 . S
C1928 H1944 0.931 . S
C1929 C1928 1.370 . S
C1929 C1933 1.408 . S
C1930 C1928 1.363 . S
C1930 C1931 1.370 . S
C1930 C1934 1.524 . S
C1931 C1923 1.503 1_554 S
C1931 C1930 1.370 . S
C1931 C1932 1.403 . S
C1932 C1931 1.403 . S
C1932 C1933 1.404 . S
C1932 C1935 1.539 1_554 S
C1933 C1929 1.408 . S
C1933 C1932 1.404 . S
C1933 H1945 0.930 . S
C1934 C1930 1.524 . S
C1934 H1946 0.956 . S
C1934 H1947 0.961 . S
C1934 H1948 0.961 . S
C1935 C1932 1.539 1_556 S
C1935 H1949 0.958 . S
C1935 H1950 0.961 . S
C1935 H1951 0.960 . S
H1936 C1920 0.931 . S
H1937 C1925 0.929 . S
H1938 C1926 0.960 . S
H1939 C1926 0.962 . S
H1940 C1926 0.960 . S
H1941 C1927 0.961 . S
H1942 C1927 0.961 . S
H1943 C1927 0.961 . S
H1944 C1928 0.931 . S
H1945 C1933 0.930 . S
H1946 C1934 0.956 . S
H1947 C1934 0.961 . S
H1948 C1934 0.961 . S
H1949 C1935 0.958 . S
H1950 C1935 0.961 . S
H1951 C1935 0.960 . S
C1952 C1953 1.391 . S
C1952 C1954 1.394 . S
C1952 H1968 0.931 . S
C1953 C1952 1.391 . S
C1953 C1957 1.376 . S
C1954 C1952 1.394 . S
C1954 C1955 1.369 . S
C1954 C1958 1.531 . S
C1955 C1954 1.369 . S
C1955 C1956 1.410 . S
C1955 C1963 1.503 . S
C1956 C1955 1.410 . S
C1956 C1957 1.392 . S
C1956 C1959 1.511 . S
C1957 C1953 1.376 . S
C1957 C1956 1.392 . S
C1957 H1969 0.929 . S
C1958 C1954 1.531 . S
C1958 H1970 0.960 . S
C1958 H1971 0.962 . S
C1958 H1972 0.960 . S
C1959 C1956 1.511 . S
C1959 H1973 0.961 . S
C1959 H1974 0.961 . S
C1959 H1975 0.961 . S
C1960 C1961 1.370 . S
C1960 C1962 1.363 . S
C1960 H1976 0.931 . S
C1961 C1960 1.370 . S
C1961 C1965 1.408 . S
C1962 C1960 1.363 . S
C1962 C1963 1.370 . S
C1962 C1966 1.524 . S
C1963 C1955 1.503 . S
C1963 C1962 1.370 . S
C1963 C1964 1.403 . S
C1964 C1963 1.403 . S
C1964 C1965 1.404 . S
C1964 C1967 1.539 . S
C1965 C1961 1.408 . S
C1965 C1964 1.404 . S
C1965 H1977 0.930 . S
C1966 C1962 1.524 . S
C1966 H1978 0.956 . S
C1966 H1979 0.961 . S
C1966 H1980 0.961 . S
C1967 C1964 1.539 . S
C1967 H1981 0.958 . S
C1967 H1982 0.961 . S
C1967 H1983 0.960 . S
H1968 C1952 0.931 . S
H1969 C1957 0.929 . S
H1970 C1958 0.960 . S
H1971 C1958 0.962 . S
H1972 C1958 0.960 . S
H1973 C1959 0.961 . S
H1974 C1959 0.961 . S
H1975 C1959 0.961 . S
H1976 C1960 0.931 . S
H1977 C1965 0.930 . S
H1978 C1966 0.956 . S
H1979 C1966 0.961 . S
H1980 C1966 0.961 . S
H1981 C1967 0.958 . S
H1982 C1967 0.961 . S
H1983 C1967 0.960 . S
C1984 C1985 1.391 . S
C1984 C1986 1.394 . S
C1984 H2000 0.931 . S
C1985 C1984 1.391 . S
C1985 C1989 1.376 . S
C1986 C1984 1.394 . S
C1986 C1987 1.369 . S
C1986 C1990 1.531 . S
C1987 C1986 1.369 . S
C1987 C1988 1.410 . S
C1987 C1995 1.503 . S
C1988 C1987 1.410 . S
C1988 C1989 1.392 . S
C1988 C1991 1.511 . S
C1989 C1985 1.376 . S
C1989 C1988 1.392 . S
C1989 H2001 0.929 . S
C1990 C1986 1.531 . S
C1990 H2002 0.960 . S
C1990 H2003 0.962 . S
C1990 H2004 0.960 . S
C1991 C1988 1.511 . S
C1991 H2005 0.961 . S
C1991 H2006 0.961 . S
C1991 H2007 0.961 . S
C1992 C1993 1.370 . S
C1992 C1994 1.363 . S
C1992 H2008 0.931 . S
C1993 C1992 1.370 . S
C1993 C1997 1.408 . S
C1994 C1992 1.363 . S
C1994 C1995 1.370 . S
C1994 C1998 1.524 . S
C1995 C1987 1.503 . S
C1995 C1994 1.370 . S
C1995 C1996 1.403 . S
C1996 C1995 1.403 . S
C1996 C1997 1.404 . S
C1996 C1999 1.539 . S
C1997 C1993 1.408 . S
C1997 C1996 1.404 . S
C1997 H2009 0.930 . S
C1998 C1994 1.524 . S
C1998 H2010 0.956 . S
C1998 H2011 0.961 . S
C1998 H2012 0.961 . S
C1999 C1996 1.539 . S
C1999 H2013 0.958 . S
C1999 H2014 0.961 . S
C1999 H2015 0.960 . S
H2000 C1984 0.931 . S
H2001 C1989 0.929 . S
H2002 C1990 0.960 . S
H2003 C1990 0.962 . S
H2004 C1990 0.960 . S
H2005 C1991 0.961 . S
H2006 C1991 0.961 . S
H2007 C1991 0.961 . S
H2008 C1992 0.931 . S
H2009 C1997 0.930 . S
H2010 C1998 0.956 . S
H2011 C1998 0.961 . S
H2012 C1998 0.961 . S
H2013 C1999 0.958 . S
H2014 C1999 0.961 . S
H2015 C1999 0.960 . S
C2016 C2017 1.391 . S
C2016 C2018 1.394 . S
C2016 H2032 0.931 . S
C2017 C2016 1.391 . S
C2017 C2021 1.376 . S
C2018 C2016 1.394 . S
C2018 C2019 1.369 . S
C2018 C2022 1.531 . S
C2019 C2018 1.369 . S
C2019 C2020 1.410 . S
C2019 C2027 1.503 . S
C2020 C2019 1.410 . S
C2020 C2021 1.392 . S
C2020 C2023 1.511 . S
C2021 C2017 1.376 . S
C2021 C2020 1.392 . S
C2021 H2033 0.929 . S
C2022 C2018 1.531 . S
C2022 H2034 0.960 . S
C2022 H2035 0.962 . S
C2022 H2036 0.960 . S
C2023 C2020 1.511 . S
C2023 H2037 0.961 . S
C2023 H2038 0.961 . S
C2023 H2039 0.961 . S
C2024 C2025 1.370 . S
C2024 C2026 1.363 . S
C2024 H2040 0.931 . S
C2025 C2024 1.370 . S
C2025 C2029 1.408 . S
C2026 C2024 1.363 . S
C2026 C2027 1.370 . S
C2026 C2030 1.524 . S
C2027 C2019 1.503 . S
C2027 C2026 1.370 . S
C2027 C2028 1.403 . S
C2028 C2027 1.403 . S
C2028 C2029 1.404 . S
C2028 C2031 1.539 . S
C2029 C2025 1.408 . S
C2029 C2028 1.404 . S
C2029 H2041 0.930 . S
C2030 C2026 1.524 . S
C2030 H2042 0.956 . S
C2030 H2043 0.961 . S
C2030 H2044 0.961 . S
C2031 C2028 1.539 . S
C2031 H2045 0.958 . S
C2031 H2046 0.961 . S
C2031 H2047 0.960 . S
H2032 C2016 0.931 . S
H2033 C2021 0.929 . S
H2034 C2022 0.960 . S
H2035 C2022 0.962 . S
H2036 C2022 0.960 . S
H2037 C2023 0.961 . S
H2038 C2023 0.961 . S
H2039 C2023 0.961 . S
H2040 C2024 0.931 . S
H2041 C2029 0.930 . S
H2042 C2030 0.956 . S
H2043 C2030 0.961 . S
H2044 C2030 0.961 . S
H2045 C2031 0.958 . S
H2046 C2031 0.961 . S
H2047 C2031 0.960 . S
C2048 C2049 1.391 . S
C2048 C2050 1.394 . S
C2048 H2064 0.931 . S
C2049 C2048 1.391 . S
C2049 C2053 1.376 . S
C2050 C2048 1.394 . S
C2050 C2051 1.369 . S
C2050 C2054 1.531 . S
C2051 C2050 1.369 . S
C2051 C2052 1.410 . S
C2051 C2059 1.503 . S
C2052 C2051 1.410 . S
C2052 C2053 1.392 . S
C2052 C2055 1.511 . S
C2053 C2049 1.376 . S
C2053 C2052 1.392 . S
C2053 H2065 0.929 . S
C2054 C2050 1.531 . S
C2054 H2066 0.960 . S
C2054 H2067 0.962 . S
C2054 H2068 0.960 . S
C2055 C2052 1.511 . S
C2055 H2069 0.961 . S
C2055 H2070 0.961 . S
C2055 H2071 0.961 . S
C2056 C2057 1.370 . S
C2056 C2058 1.363 . S
C2056 H2072 0.931 . S
C2057 C2056 1.370 . S
C2057 C2061 1.408 . S
C2058 C2056 1.363 . S
C2058 C2059 1.370 . S
C2058 C2062 1.524 . S
C2059 C2051 1.503 . S
C2059 C2058 1.370 . S
C2059 C2060 1.403 . S
C2060 C2059 1.403 . S
C2060 C2061 1.404 . S
C2060 C2063 1.539 . S
C2061 C2057 1.408 . S
C2061 C2060 1.404 . S
C2061 H2073 0.930 . S
C2062 C2058 1.524 . S
C2062 H2074 0.956 . S
C2062 H2075 0.961 . S
C2062 H2076 0.961 . S
C2063 C2060 1.539 . S
C2063 H2077 0.958 . S
C2063 H2078 0.961 . S
C2063 H2079 0.960 . S
H2064 C2048 0.931 . S
H2065 C2053 0.929 . S
H2066 C2054 0.960 . S
H2067 C2054 0.962 . S
H2068 C2054 0.960 . S
H2069 C2055 0.961 . S
H2070 C2055 0.961 . S
H2071 C2055 0.961 . S
H2072 C2056 0.931 . S
H2073 C2061 0.930 . S
H2074 C2062 0.956 . S
H2075 C2062 0.961 . S
H2076 C2062 0.961 . S
H2077 C2063 0.958 . S
H2078 C2063 0.961 . S
H2079 C2063 0.960 . S
C2080 C2081 1.391 . S
C2080 C2082 1.394 . S
C2080 H2096 0.931 . S
C2081 C2080 1.391 . S
C2081 C2085 1.376 . S
C2082 C2080 1.394 . S
C2082 C2083 1.369 . S
C2082 C2086 1.531 . S
C2083 C2082 1.369 . S
C2083 C2084 1.410 . S
C2083 C2091 1.503 . S
C2084 C2083 1.410 . S
C2084 C2085 1.392 . S
C2084 C2087 1.511 . S
C2085 C2081 1.376 . S
C2085 C2084 1.392 . S
C2085 H2097 0.929 . S
C2086 C2082 1.531 . S
C2086 H2098 0.960 . S
C2086 H2099 0.962 . S
C2086 H2100 0.960 . S
C2087 C2084 1.511 . S
C2087 H2101 0.961 . S
C2087 H2102 0.961 . S
C2087 H2103 0.961 . S
C2088 C2089 1.370 . S
C2088 C2090 1.363 . S
C2088 H2104 0.931 . S
C2089 C2088 1.370 . S
C2089 C2093 1.408 . S
C2090 C2088 1.363 . S
C2090 C2091 1.370 . S
C2090 C2094 1.524 . S
C2091 C2083 1.503 . S
C2091 C2090 1.370 . S
C2091 C2092 1.403 . S
C2092 C2091 1.403 . S
C2092 C2093 1.404 . S
C2092 C2095 1.539 . S
C2093 C2089 1.408 . S
C2093 C2092 1.404 . S
C2093 H2105 0.930 . S
C2094 C2090 1.524 . S
C2094 H2106 0.956 . S
C2094 H2107 0.961 . S
C2094 H2108 0.961 . S
C2095 C2092 1.539 . S
C2095 H2109 0.958 . S
C2095 H2110 0.961 . S
C2095 H2111 0.960 . S
H2096 C2080 0.931 . S
H2097 C2085 0.929 . S
H2098 C2086 0.960 . S
H2099 C2086 0.962 . S
H2100 C2086 0.960 . S
H2101 C2087 0.961 . S
H2102 C2087 0.961 . S
H2103 C2087 0.961 . S
H2104 C2088 0.931 . S
H2105 C2093 0.930 . S
H2106 C2094 0.956 . S
H2107 C2094 0.961 . S
H2108 C2094 0.961 . S
H2109 C2095 0.958 . S
H2110 C2095 0.961 . S
H2111 C2095 0.960 . S
C2112 C2113 1.391 . S
C2112 C2114 1.394 . S
C2112 H2128 0.931 . S
C2113 C2112 1.391 . S
C2113 C2117 1.376 . S
C2114 C2112 1.394 . S
C2114 C2115 1.369 . S
C2114 C2118 1.531 . S
C2115 C2114 1.369 . S
C2115 C2116 1.410 . S
C2115 C2123 1.503 . S
C2116 C2115 1.410 . S
C2116 C2117 1.392 . S
C2116 C2119 1.511 . S
C2117 C2113 1.376 . S
C2117 C2116 1.392 . S
C2117 H2129 0.929 . S
C2118 C2114 1.531 . S
C2118 H2130 0.960 . S
C2118 H2131 0.962 . S
C2118 H2132 0.960 . S
C2119 C2116 1.511 . S
C2119 H2133 0.961 . S
C2119 H2134 0.961 . S
C2119 H2135 0.961 . S
C2120 C2121 1.370 . S
C2120 C2122 1.363 . S
C2120 H2136 0.931 . S
C2121 C2120 1.370 . S
C2121 C2125 1.408 . S
C2122 C2120 1.363 . S
C2122 C2123 1.370 . S
C2122 C2126 1.524 . S
C2123 C2115 1.503 . S
C2123 C2122 1.370 . S
C2123 C2124 1.403 . S
C2124 C2123 1.403 . S
C2124 C2125 1.404 . S
C2124 C2127 1.539 . S
C2125 C2121 1.408 . S
C2125 C2124 1.404 . S
C2125 H2137 0.930 . S
C2126 C2122 1.524 . S
C2126 H2138 0.956 . S
C2126 H2139 0.961 . S
C2126 H2140 0.961 . S
C2127 C2124 1.539 . S
C2127 H2141 0.958 . S
C2127 H2142 0.961 . S
C2127 H2143 0.960 . S
H2128 C2112 0.931 . S
H2129 C2117 0.929 . S
H2130 C2118 0.960 . S
H2131 C2118 0.962 . S
H2132 C2118 0.960 . S
H2133 C2119 0.961 . S
H2134 C2119 0.961 . S
H2135 C2119 0.961 . S
H2136 C2120 0.931 . S
H2137 C2125 0.930 . S
H2138 C2126 0.956 . S
H2139 C2126 0.961 . S
H2140 C2126 0.961 . S
H2141 C2127 0.958 . S
H2142 C2127 0.961 . S
H2143 C2127 0.960 . S
C2144 C2145 1.391 . S
C2144 C2146 1.394 . S
C2144 H2160 0.931 . S
C2145 C2144 1.391 . S
C2145 C2149 1.376 . S
C2146 C2144 1.394 . S
C2146 C2147 1.369 . S
C2146 C2150 1.531 . S
C2147 C2146 1.369 . S
C2147 C2148 1.410 . S
C2147 C2155 1.503 . S
C2148 C2147 1.410 . S
C2148 C2149 1.392 . S
C2148 C2151 1.511 . S
C2149 C2145 1.376 . S
C2149 C2148 1.392 . S
C2149 H2161 0.929 . S
C2150 C2146 1.531 . S
C2150 H2162 0.960 . S
C2150 H2163 0.962 . S
C2150 H2164 0.960 . S
C2151 C2148 1.511 . S
C2151 H2165 0.961 . S
C2151 H2166 0.961 . S
C2151 H2167 0.961 . S
C2152 C2153 1.370 . S
C2152 C2154 1.363 . S
C2152 H2168 0.931 . S
C2153 C2152 1.370 . S
C2153 C2157 1.408 . S
C2154 C2152 1.363 . S
C2154 C2155 1.370 . S
C2154 C2158 1.524 . S
C2155 C2147 1.503 . S
C2155 C2154 1.370 . S
C2155 C2156 1.403 . S
C2156 C2155 1.403 . S
C2156 C2157 1.404 . S
C2156 C2159 1.539 . S
C2157 C2153 1.408 . S
C2157 C2156 1.404 . S
C2157 H2169 0.930 . S
C2158 C2154 1.524 . S
C2158 H2170 0.956 . S
C2158 H2171 0.961 . S
C2158 H2172 0.961 . S
C2159 C2156 1.539 . S
C2159 H2173 0.958 . S
C2159 H2174 0.961 . S
C2159 H2175 0.960 . S
H2160 C2144 0.931 . S
H2161 C2149 0.929 . S
H2162 C2150 0.960 . S
H2163 C2150 0.962 . S
H2164 C2150 0.960 . S
H2165 C2151 0.961 . S
H2166 C2151 0.961 . S
H2167 C2151 0.961 . S
H2168 C2152 0.931 . S
H2169 C2157 0.930 . S
H2170 C2158 0.956 . S
H2171 C2158 0.961 . S
H2172 C2158 0.961 . S
H2173 C2159 0.958 . S
H2174 C2159 0.961 . S
H2175 C2159 0.960 . S
C2176 C2177 1.391 . S
C2176 C2178 1.394 . S
C2176 H2192 0.931 . S
C2177 C2176 1.391 . S
C2177 C2181 1.376 . S
C2178 C2176 1.394 . S
C2178 C2179 1.369 . S
C2178 C2182 1.531 . S
C2179 C2178 1.369 . S
C2179 C2180 1.410 . S
C2179 C2187 1.503 . S
C2180 C2179 1.410 . S
C2180 C2181 1.392 . S
C2180 C2183 1.511 . S
C2181 C2177 1.376 . S
C2181 C2180 1.392 . S
C2181 H2193 0.929 . S
C2182 C2178 1.531 . S
C2182 H2194 0.960 . S
C2182 H2195 0.962 . S
C2182 H2196 0.960 . S
C2183 C2180 1.511 . S
C2183 H2197 0.961 . S
C2183 H2198 0.961 . S
C2183 H2199 0.961 . S
C2184 C2185 1.370 . S
C2184 C2186 1.363 . S
C2184 H2200 0.931 . S
C2185 C2184 1.370 . S
C2185 C2189 1.408 . S
C2186 C2184 1.363 . S
C2186 C2187 1.370 . S
C2186 C2190 1.524 . S
C2187 C2179 1.503 . S
C2187 C2186 1.370 . S
C2187 C2188 1.403 . S
C2188 C2187 1.403 . S
C2188 C2189 1.404 . S
C2188 C2191 1.539 . S
C2189 C2185 1.408 . S
C2189 C2188 1.404 . S
C2189 H2201 0.930 . S
C2190 C2186 1.524 . S
C2190 H2202 0.956 . S
C2190 H2203 0.961 . S
C2190 H2204 0.961 . S
C2191 C2188 1.539 . S
C2191 H2205 0.958 . S
C2191 H2206 0.961 . S
C2191 H2207 0.960 . S
H2192 C2176 0.931 . S
H2193 C2181 0.929 . S
H2194 C2182 0.960 . S
H2195 C2182 0.962 . S
H2196 C2182 0.960 . S
H2197 C2183 0.961 . S
H2198 C2183 0.961 . S
H2199 C2183 0.961 . S
H2200 C2184 0.931 . S
H2201 C2189 0.930 . S
H2202 C2190 0.956 . S
H2203 C2190 0.961 . S
H2204 C2190 0.961 . S
H2205 C2191 0.958 . S
H2206 C2191 0.961 . S
H2207 C2191 0.960 . S
C2208 C2209 1.391 . S
C2208 C2210 1.394 . S
C2208 H2224 0.931 . S
C2209 C2208 1.391 . S
C2209 C2213 1.376 . S
C2210 C2208 1.394 . S
C2210 C2211 1.369 . S
C2210 C2214 1.531 . S
C2211 C2210 1.369 . S
C2211 C2212 1.410 . S
C2211 C2219 1.503 . S
C2212 C2211 1.410 . S
C2212 C2213 1.392 . S
C2212 C2215 1.511 . S
C2213 C2209 1.376 . S
C2213 C2212 1.392 . S
C2213 H2225 0.929 . S
C2214 C2210 1.531 . S
C2214 H2226 0.960 . S
C2214 H2227 0.962 . S
C2214 H2228 0.960 . S
C2215 C2212 1.511 . S
C2215 H2229 0.961 . S
C2215 H2230 0.961 . S
C2215 H2231 0.961 . S
C2216 C2217 1.370 . S
C2216 C2218 1.363 . S
C2216 H2232 0.931 . S
C2217 C2216 1.370 . S
C2217 C2221 1.408 . S
C2218 C2216 1.363 . S
C2218 C2219 1.370 . S
C2218 C2222 1.524 . S
C2219 C2211 1.503 . S
C2219 C2218 1.370 . S
C2219 C2220 1.403 . S
C2220 C2219 1.403 . S
C2220 C2221 1.404 . S
C2220 C2223 1.539 . S
C2221 C2217 1.408 . S
C2221 C2220 1.404 . S
C2221 H2233 0.930 . S
C2222 C2218 1.524 . S
C2222 H2234 0.956 . S
C2222 H2235 0.961 . S
C2222 H2236 0.961 . S
C2223 C2220 1.539 . S
C2223 H2237 0.958 . S
C2223 H2238 0.961 . S
C2223 H2239 0.960 . S
H2224 C2208 0.931 . S
H2225 C2213 0.929 . S
H2226 C2214 0.960 . S
H2227 C2214 0.962 . S
H2228 C2214 0.960 . S
H2229 C2215 0.961 . S
H2230 C2215 0.961 . S
H2231 C2215 0.961 . S
H2232 C2216 0.931 . S
H2233 C2221 0.930 . S
H2234 C2222 0.956 . S
H2235 C2222 0.961 . S
H2236 C2222 0.961 . S
H2237 C2223 0.958 . S
H2238 C2223 0.961 . S
H2239 C2223 0.960 . S
C2240 C2241 1.391 . S
C2240 C2242 1.394 . S
C2240 H2256 0.931 . S
C2241 C2240 1.391 . S
C2241 C2245 1.376 . S
C2242 C2240 1.394 . S
C2242 C2243 1.369 . S
C2242 C2246 1.531 . S
C2243 C2242 1.369 . S
C2243 C2244 1.410 . S
C2243 C2251 1.503 . S
C2244 C2243 1.410 . S
C2244 C2245 1.392 . S
C2244 C2247 1.511 . S
C2245 C2241 1.376 . S
C2245 C2244 1.392 . S
C2245 H2257 0.929 . S
C2246 C2242 1.531 . S
C2246 H2258 0.960 . S
C2246 H2259 0.962 . S
C2246 H2260 0.960 . S
C2247 C2244 1.511 . S
C2247 H2261 0.961 . S
C2247 H2262 0.961 . S
C2247 H2263 0.961 . S
C2248 C2249 1.370 . S
C2248 C2250 1.363 . S
C2248 H2264 0.931 . S
C2249 C2248 1.370 . S
C2249 C2253 1.408 . S
C2250 C2248 1.363 . S
C2250 C2251 1.370 . S
C2250 C2254 1.524 . S
C2251 C2243 1.503 . S
C2251 C2250 1.370 . S
C2251 C2252 1.403 . S
C2252 C2251 1.403 . S
C2252 C2253 1.404 . S
C2252 C2255 1.539 . S
C2253 C2249 1.408 . S
C2253 C2252 1.404 . S
C2253 H2265 0.930 . S
C2254 C2250 1.524 . S
C2254 H2266 0.956 . S
C2254 H2267 0.961 . S
C2254 H2268 0.961 . S
C2255 C2252 1.539 . S
C2255 H2269 0.958 . S
C2255 H2270 0.961 . S
C2255 H2271 0.960 . S
H2256 C2240 0.931 . S
H2257 C2245 0.929 . S
H2258 C2246 0.960 . S
H2259 C2246 0.962 . S
H2260 C2246 0.960 . S
H2261 C2247 0.961 . S
H2262 C2247 0.961 . S
H2263 C2247 0.961 . S
H2264 C2248 0.931 . S
H2265 C2253 0.930 . S
H2266 C2254 0.956 . S
H2267 C2254 0.961 . S
H2268 C2254 0.961 . S
H2269 C2255 0.958 . S
H2270 C2255 0.961 . S
H2271 C2255 0.960 . S
C2272 C2273 1.391 . S
C2272 C2274 1.394 . S
C2272 H2288 0.931 . S
C2273 C2272 1.391 . S
C2273 C2277 1.376 . S
C2274 C2272 1.394 . S
C2274 C2275 1.369 . S
C2274 C2278 1.531 . S
C2275 C2274 1.369 . S
C2275 C2276 1.410 . S
C2275 C2283 1.503 . S
C2276 C2275 1.410 . S
C2276 C2277 1.392 . S
C2276 C2279 1.511 . S
C2277 C2273 1.376 . S
C2277 C2276 1.392 . S
C2277 H2289 0.929 . S
C2278 C2274 1.531 . S
C2278 H2290 0.960 . S
C2278 H2291 0.962 . S
C2278 H2292 0.960 . S
C2279 C2276 1.511 . S
C2279 H2293 0.961 . S
C2279 H2294 0.961 . S
C2279 H2295 0.961 . S
C2280 C2281 1.370 . S
C2280 C2282 1.363 . S
C2280 H2296 0.931 . S
C2281 C2280 1.370 . S
C2281 C2285 1.408 . S
C2282 C2280 1.363 . S
C2282 C2283 1.370 . S
C2282 C2286 1.524 . S
C2283 C2275 1.503 . S
C2283 C2282 1.370 . S
C2283 C2284 1.403 . S
C2284 C2283 1.403 . S
C2284 C2285 1.404 . S
C2284 C2287 1.539 . S
C2285 C2281 1.408 . S
C2285 C2284 1.404 . S
C2285 H2297 0.930 . S
C2286 C2282 1.524 . S
C2286 H2298 0.956 . S
C2286 H2299 0.961 . S
C2286 H2300 0.961 . S
C2287 C2284 1.539 . S
C2287 H2301 0.958 . S
C2287 H2302 0.961 . S
C2287 H2303 0.960 . S
H2288 C2272 0.931 . S
H2289 C2277 0.929 . S
H2290 C2278 0.960 . S
H2291 C2278 0.962 . S
H2292 C2278 0.960 . S
H2293 C2279 0.961 . S
H2294 C2279 0.961 . S
H2295 C2279 0.961 . S
H2296 C2280 0.931 . S
H2297 C2285 0.930 . S
H2298 C2286 0.956 . S
H2299 C2286 0.961 . S
H2300 C2286 0.961 . S
H2301 C2287 0.958 . S
H2302 C2287 0.961 . S
H2303 C2287 0.960 . S
C2304 C2305 1.391 . S
C2304 C2306 1.394 . S
C2304 H2320 0.931 . S
C2305 C2304 1.391 . S
C2305 C2309 1.376 . S
C2306 C2304 1.394 . S
C2306 C2307 1.369 . S
C2306 C2310 1.531 . S
C2307 C2306 1.369 . S
C2307 C2308 1.410 . S
C2307 C2315 1.503 . S
C2308 C2307 1.410 . S
C2308 C2309 1.392 . S
C2308 C2311 1.511 . S
C2309 C2305 1.376 . S
C2309 C2308 1.392 . S
C2309 H2321 0.929 . S
C2310 C2306 1.531 . S
C2310 H2322 0.960 . S
C2310 H2323 0.962 . S
C2310 H2324 0.960 . S
C2311 C2308 1.511 . S
C2311 H2325 0.961 . S
C2311 H2326 0.961 . S
C2311 H2327 0.961 . S
C2312 C2313 1.370 . S
C2312 C2314 1.363 . S
C2312 H2328 0.931 . S
C2313 C2312 1.370 . S
C2313 C2317 1.408 . S
C2314 C2312 1.363 . S
C2314 C2315 1.370 . S
C2314 C2318 1.524 . S
C2315 C2307 1.503 . S
C2315 C2314 1.370 . S
C2315 C2316 1.403 . S
C2316 C2315 1.403 . S
C2316 C2317 1.404 . S
C2316 C2319 1.539 . S
C2317 C2313 1.408 . S
C2317 C2316 1.404 . S
C2317 H2329 0.930 . S
C2318 C2314 1.524 . S
C2318 H2330 0.956 . S
C2318 H2331 0.961 . S
C2318 H2332 0.961 . S
C2319 C2316 1.539 . S
C2319 H2333 0.958 . S
C2319 H2334 0.961 . S
C2319 H2335 0.960 . S
H2320 C2304 0.931 . S
H2321 C2309 0.929 . S
H2322 C2310 0.960 . S
H2323 C2310 0.962 . S
H2324 C2310 0.960 . S
H2325 C2311 0.961 . S
H2326 C2311 0.961 . S
H2327 C2311 0.961 . S
H2328 C2312 0.931 . S
H2329 C2317 0.930 . S
H2330 C2318 0.956 . S
H2331 C2318 0.961 . S
H2332 C2318 0.961 . S
H2333 C2319 0.958 . S
H2334 C2319 0.961 . S
H2335 C2319 0.960 . S
C2336 C2337 1.391 . S
C2336 C2338 1.394 . S
C2336 H2352 0.931 . S
C2337 C2336 1.391 . S
C2337 C2341 1.376 . S
C2338 C2336 1.394 . S
C2338 C2339 1.369 . S
C2338 C2342 1.531 . S
C2339 C2338 1.369 . S
C2339 C2340 1.410 . S
C2339 C2347 1.503 . S
C2340 C2339 1.410 . S
C2340 C2341 1.392 . S
C2340 C2343 1.511 . S
C2341 C2337 1.376 . S
C2341 C2340 1.392 . S
C2341 H2353 0.929 . S
C2342 C2338 1.531 . S
C2342 H2354 0.960 . S
C2342 H2355 0.962 . S
C2342 H2356 0.960 . S
C2343 C2340 1.511 . S
C2343 H2357 0.961 . S
C2343 H2358 0.961 . S
C2343 H2359 0.961 . S
C2344 C2345 1.370 . S
C2344 C2346 1.363 . S
C2344 H2360 0.931 . S
C2345 C2344 1.370 . S
C2345 C2349 1.408 . S
C2346 C2344 1.363 . S
C2346 C2347 1.370 . S
C2346 C2350 1.524 . S
C2347 C2339 1.503 . S
C2347 C2346 1.370 . S
C2347 C2348 1.403 . S
C2348 C2347 1.403 . S
C2348 C2349 1.404 . S
C2348 C2351 1.539 . S
C2349 C2345 1.408 . S
C2349 C2348 1.404 . S
C2349 H2361 0.930 . S
C2350 C2346 1.524 . S
C2350 H2362 0.956 . S
C2350 H2363 0.961 . S
C2350 H2364 0.961 . S
C2351 C2348 1.539 . S
C2351 H2365 0.958 . S
C2351 H2366 0.961 . S
C2351 H2367 0.960 . S
H2352 C2336 0.931 . S
H2353 C2341 0.929 . S
H2354 C2342 0.960 . S
H2355 C2342 0.962 . S
H2356 C2342 0.960 . S
H2357 C2343 0.961 . S
H2358 C2343 0.961 . S
H2359 C2343 0.961 . S
H2360 C2344 0.931 . S
H2361 C2349 0.930 . S
H2362 C2350 0.956 . S
H2363 C2350 0.961 . S
H2364 C2350 0.961 . S
H2365 C2351 0.958 . S
H2366 C2351 0.961 . S
H2367 C2351 0.960 . S
C2368 C2369 1.391 . S
C2368 C2370 1.394 . S
C2368 H2384 0.931 . S
C2369 C2368 1.391 . S
C2369 C2373 1.376 . S
C2370 C2368 1.394 . S
C2370 C2371 1.369 . S
C2370 C2374 1.531 . S
C2371 C2370 1.369 . S
C2371 C2372 1.410 . S
C2371 C2379 1.503 . S
C2372 C2371 1.410 . S
C2372 C2373 1.392 . S
C2372 C2375 1.511 . S
C2373 C2369 1.376 . S
C2373 C2372 1.392 . S
C2373 H2385 0.929 . S
C2374 C2370 1.531 . S
C2374 H2386 0.960 . S
C2374 H2387 0.962 . S
C2374 H2388 0.960 . S
C2375 C2372 1.511 . S
C2375 H2389 0.961 . S
C2375 H2390 0.961 . S
C2375 H2391 0.961 . S
C2376 C2377 1.370 . S
C2376 C2378 1.363 . S
C2376 H2392 0.931 . S
C2377 C2376 1.370 . S
C2377 C2381 1.408 . S
C2378 C2376 1.363 . S
C2378 C2379 1.370 . S
C2378 C2382 1.524 . S
C2379 C2371 1.503 . S
C2379 C2378 1.370 . S
C2379 C2380 1.403 . S
C2380 C2379 1.403 . S
C2380 C2381 1.404 . S
C2380 C2383 1.539 . S
C2381 C2377 1.408 . S
C2381 C2380 1.404 . S
C2381 H2393 0.930 . S
C2382 C2378 1.524 . S
C2382 H2394 0.956 . S
C2382 H2395 0.961 . S
C2382 H2396 0.961 . S
C2383 C2380 1.539 . S
C2383 H2397 0.958 . S
C2383 H2398 0.961 . S
C2383 H2399 0.960 . S
H2384 C2368 0.931 . S
H2385 C2373 0.929 . S
H2386 C2374 0.960 . S
H2387 C2374 0.962 . S
H2388 C2374 0.960 . S
H2389 C2375 0.961 . S
H2390 C2375 0.961 . S
H2391 C2375 0.961 . S
H2392 C2376 0.931 . S
H2393 C2381 0.930 . S
H2394 C2382 0.956 . S
H2395 C2382 0.961 . S
H2396 C2382 0.961 . S
H2397 C2383 0.958 . S
H2398 C2383 0.961 . S
H2399 C2383 0.960 . S
C2400 C2401 1.391 . S
C2400 C2402 1.394 . S
C2400 H2416 0.931 . S
C2401 C2400 1.391 . S
C2401 C2405 1.376 . S
C2402 C2400 1.394 . S
C2402 C2403 1.369 . S
C2402 C2406 1.531 . S
C2403 C2402 1.369 . S
C2403 C2404 1.410 . S
C2403 C2411 1.503 . S
C2404 C2403 1.410 . S
C2404 C2405 1.392 . S
C2404 C2407 1.511 . S
C2405 C2401 1.376 . S
C2405 C2404 1.392 . S
C2405 H2417 0.929 . S
C2406 C2402 1.531 . S
C2406 H2418 0.960 . S
C2406 H2419 0.962 . S
C2406 H2420 0.960 . S
C2407 C2404 1.511 . S
C2407 H2421 0.961 . S
C2407 H2422 0.961 . S
C2407 H2423 0.961 . S
C2408 C2409 1.370 . S
C2408 C2410 1.363 . S
C2408 H2424 0.931 . S
C2409 C2408 1.370 . S
C2409 C2413 1.408 . S
C2410 C2408 1.363 . S
C2410 C2411 1.370 . S
C2410 C2414 1.524 . S
C2411 C2403 1.503 . S
C2411 C2410 1.370 . S
C2411 C2412 1.403 . S
C2412 C2411 1.403 . S
C2412 C2413 1.404 . S
C2412 C2415 1.539 . S
C2413 C2409 1.408 . S
C2413 C2412 1.404 . S
C2413 H2425 0.930 . S
C2414 C2410 1.524 . S
C2414 H2426 0.956 . S
C2414 H2427 0.961 . S
C2414 H2428 0.961 . S
C2415 C2412 1.539 . S
C2415 H2429 0.958 . S
C2415 H2430 0.961 . S
C2415 H2431 0.960 . S
H2416 C2400 0.931 . S
H2417 C2405 0.929 . S
H2418 C2406 0.960 . S
H2419 C2406 0.962 . S
H2420 C2406 0.960 . S
H2421 C2407 0.961 . S
H2422 C2407 0.961 . S
H2423 C2407 0.961 . S
H2424 C2408 0.931 . S
H2425 C2413 0.930 . S
H2426 C2414 0.956 . S
H2427 C2414 0.961 . S
H2428 C2414 0.961 . S
H2429 C2415 0.958 . S
H2430 C2415 0.961 . S
H2431 C2415 0.960 . S
C2432 C2433 1.391 . S
C2432 C2434 1.394 . S
C2432 H2448 0.931 . S
C2433 C2432 1.391 . S
C2433 C2437 1.376 . S
C2434 C2432 1.394 . S
C2434 C2435 1.369 . S
C2434 C2438 1.531 . S
C2435 C2434 1.369 . S
C2435 C2436 1.410 . S
C2435 C2443 1.503 . S
C2436 C2435 1.410 . S
C2436 C2437 1.392 . S
C2436 C2439 1.511 . S
C2437 C2433 1.376 . S
C2437 C2436 1.392 . S
C2437 H2449 0.929 . S
C2438 C2434 1.531 . S
C2438 H2450 0.960 . S
C2438 H2451 0.962 . S
C2438 H2452 0.960 . S
C2439 C2436 1.511 . S
C2439 H2453 0.961 . S
C2439 H2454 0.961 . S
C2439 H2455 0.961 . S
C2440 C2441 1.370 . S
C2440 C2442 1.363 . S
C2440 H2456 0.931 . S
C2441 C2440 1.370 . S
C2441 C2445 1.408 . S
C2442 C2440 1.363 . S
C2442 C2443 1.370 . S
C2442 C2446 1.524 . S
C2443 C2435 1.503 . S
C2443 C2442 1.370 . S
C2443 C2444 1.403 . S
C2444 C2443 1.403 . S
C2444 C2445 1.404 . S
C2444 C2447 1.539 . S
C2445 C2441 1.408 . S
C2445 C2444 1.404 . S
C2445 H2457 0.930 . S
C2446 C2442 1.524 . S
C2446 H2458 0.956 . S
C2446 H2459 0.961 . S
C2446 H2460 0.961 . S
C2447 C2444 1.539 . S
C2447 H2461 0.958 . S
C2447 H2462 0.961 . S
C2447 H2463 0.960 . S
H2448 C2432 0.931 . S
H2449 C2437 0.929 . S
H2450 C2438 0.960 . S
H2451 C2438 0.962 . S
H2452 C2438 0.960 . S
H2453 C2439 0.961 . S
H2454 C2439 0.961 . S
H2455 C2439 0.961 . S
H2456 C2440 0.931 . S
H2457 C2445 0.930 . S
H2458 C2446 0.956 . S
H2459 C2446 0.961 . S
H2460 C2446 0.961 . S
H2461 C2447 0.958 . S
H2462 C2447 0.961 . S
H2463 C2447 0.960 . S
C2464 C2465 1.391 . S
C2464 C2466 1.394 . S
C2464 H2480 0.931 . S
C2465 C2464 1.391 . S
C2465 C2469 1.376 . S
C2466 C2464 1.394 . S
C2466 C2467 1.369 . S
C2466 C2470 1.531 . S
C2467 C2466 1.369 . S
C2467 C2468 1.410 . S
C2467 C2475 1.503 . S
C2468 C2467 1.410 . S
C2468 C2469 1.392 . S
C2468 C2471 1.511 . S
C2469 C2465 1.376 . S
C2469 C2468 1.392 . S
C2469 H2481 0.929 . S
C2470 C2466 1.531 . S
C2470 H2482 0.960 . S
C2470 H2483 0.962 . S
C2470 H2484 0.960 . S
C2471 C2468 1.511 . S
C2471 H2485 0.961 . S
C2471 H2486 0.961 . S
C2471 H2487 0.961 . S
C2472 C2473 1.370 . S
C2472 C2474 1.363 . S
C2472 H2488 0.931 . S
C2473 C2472 1.370 . S
C2473 C2477 1.408 . S
C2474 C2472 1.363 . S
C2474 C2475 1.370 . S
C2474 C2478 1.524 . S
C2475 C2467 1.503 . S
C2475 C2474 1.370 . S
C2475 C2476 1.403 . S
C2476 C2475 1.403 . S
C2476 C2477 1.404 . S
C2476 C2479 1.539 . S
C2477 C2473 1.408 . S
C2477 C2476 1.404 . S
C2477 H2489 0.930 . S
C2478 C2474 1.524 . S
C2478 H2490 0.956 . S
C2478 H2491 0.961 . S
C2478 H2492 0.961 . S
C2479 C2476 1.539 . S
C2479 H2493 0.958 . S
C2479 H2494 0.961 . S
C2479 H2495 0.960 . S
H2480 C2464 0.931 . S
H2481 C2469 0.929 . S
H2482 C2470 0.960 . S
H2483 C2470 0.962 . S
H2484 C2470 0.960 . S
H2485 C2471 0.961 . S
H2486 C2471 0.961 . S
H2487 C2471 0.961 . S
H2488 C2472 0.931 . S
H2489 C2477 0.930 . S
H2490 C2478 0.956 . S
H2491 C2478 0.961 . S
H2492 C2478 0.961 . S
H2493 C2479 0.958 . S
H2494 C2479 0.961 . S
H2495 C2479 0.960 . S
C449 C121 1.561 . S
C457 C9 1.570 . S
C481 C359 1.563 . S
C489 C23 1.568 . S
C513 C149 1.559 . S
C521 C37 1.570 . S
C545 C387 1.560 . S
C553 C51 1.570 . S
C577 C177 1.563 . S
C585 C65 1.569 . S
C609 C79 1.565 . S
C617 C415 1.567 . S
C641 C93 1.562 . S
C649 C205 1.569 . S
C673 C107 1.570 . S
C681 C443 1.566 . S
C705 C247 1.570 . S
C713 C135 1.565 . S
C737 C275 1.567 . S
C745 C163 1.567 . S
C769 C191 1.569 . S
C777 C303 1.566 . S
C801 C219 1.563 . S
C809 C331 1.568 . S
C833 C233 1.561 . S
C841 C345 1.569 . S
C865 C373 1.563 . S
C873 C261 1.568 . S
C897 C289 1.570 . S
C905 C401 1.566 . S
C929 C429 1.568 . S
C937 C317 1.566 . S
C961 C257 1.604 . S
C969 C5 1.612 . S
C993 C271 1.607 . S
C1001 C19 1.611 . S
C1025 C33 1.617 . S
C1033 C229 1.611 . S
C1057 C47 1.600 . S
C1065 C243 1.615 . S
C1089 C313 1.611 . S
C1097 C61 1.610 . S
C1121 C75 1.608 . S
C1129 C327 1.616 . S
C1153 C285 1.607 . S
C1161 C89 1.616 . S
C1185 C299 1.612 . S
C1193 C103 1.609 . S
C1217 C117 1.608 . S
C1225 C369 1.611 . S
C1249 C383 1.600 . S
C1257 C131 1.615 . S
C1281 C145 1.617 . S
C1289 C341 1.610 . S
C1313 C159 1.603 . S
C1321 C355 1.613 . S
C1345 C173 1.613 . S
C1353 C425 1.610 . S
C1377 C187 1.602 . S
C1385 C439 1.614 . S
C1409 C397 1.600 . S
C1417 C201 1.616 . S
C1441 C411 1.614 . S
C1449 C215 1.609 . S
C1473 C95 1.458 . S
C1481 C11 1.461 . S
C1505 C109 1.451 . S
C1513 C25 1.471 . S
C1537 C67 1.458 . S
C1545 C39 1.461 . S
C1569 C53 1.458 . S
C1577 C81 1.473 . S
C1601 C207 1.474 . S
C1609 C123 1.473 . S
C1633 C221 1.464 . S
C1641 C137 1.462 . S
C1665 C179 1.464 . S
C1673 C151 1.461 . S
C1697 C193 1.475 . S
C1705 C165 1.465 . S
C1729 C319 1.478 . S
C1737 C235 1.468 . S
C1761 C333 1.462 . S
C1769 C249 1.461 . S
C1793 C263 1.476 . S
C1801 C291 1.471 . S
C1825 C277 1.466 . S
C1833 C305 1.461 . S
C1857 C431 1.449 . S
C1865 C347 1.463 . S
C1889 C445 1.473 . S
C1897 C361 1.464 . S
C1921 C375 1.458 . S
C1929 C403 1.461 . S
C1953 C389 1.455 . S
C1961 C417 1.462 . S
C1985 C0 1.385 . S
C1993 C294 1.402 . S
C2017 C308 1.411 . S
C2025 C14 1.404 . S
C2049 C322 1.416 . S
C2057 C28 1.408 . S
C2081 C42 1.418 . S
C2089 C280 1.409 . S
C2113 C266 1.418 . S
C2121 C56 1.412 . S
C2145 C70 1.419 . S
C2153 C224 1.412 . S
C2177 C238 1.419 . S
C2185 C84 1.410 . S
C2209 C98 1.386 . S
C2217 C252 1.399 . S
C2241 C406 1.419 . S
C2249 C112 1.409 . S
C2273 C420 1.419 . S
C2281 C126 1.410 . S
C2305 C140 1.417 . S
C2313 C434 1.411 . S
C2337 C392 1.418 . S
C2345 C154 1.411 . S
C2369 C378 1.392 . S
C2377 C168 1.408 . S
C2401 C182 1.390 . S
C2409 C336 1.408 . S
C2433 C350 1.392 . S
C2441 C196 1.409 . S
C2465 C210 1.392 . S
C2473 C364 1.409 . S
