# Generated by pormake.
# Topology whz, (6)-cn, num edge types: 1
# Building blocks:
#     Node 0, Type 0, BuildingBlock: CUKXOW_clean_sbu_0, # of connection points: 6
#     Node 1, Type 0, BuildingBlock: CUKXOW_clean_sbu_0, # of connection points: 6
#     Node 2, Type 0, BuildingBlock: CUKXOW_clean_sbu_0, # of connection points: 6
#     Node 3, Type 0, BuildingBlock: CUKXOW_clean_sbu_0, # of connection points: 6
#     Node 4, Type 0, BuildingBlock: CUKXOW_clean_sbu_0, # of connection points: 6
#     Node 5, Type 0, BuildingBlock: CUKXOW_clean_sbu_0, # of connection points: 6
#     Node 6, Type 0, BuildingBlock: CUKXOW_clean_sbu_0, # of connection points: 6
#     Node 7, Type 0, BuildingBlock: CUKXOW_clean_sbu_0, # of connection points: 6
#     Node 8, Type 0, BuildingBlock: CUKXOW_clean_sbu_0, # of connection points: 6
#     Node 9, Type 0, BuildingBlock: CUKXOW_clean_sbu_0, # of connection points: 6
#     Node 10, Type 0, BuildingBlock: CUKXOW_clean_sbu_0, # of connection points: 6
#     Node 11, Type 0, BuildingBlock: CUKXOW_clean_sbu_0, # of connection points: 6
#     Node 12, Type 0, BuildingBlock: CUKXOW_clean_sbu_0, # of connection points: 6
#     Node 13, Type 0, BuildingBlock: CUKXOW_clean_sbu_0, # of connection points: 6
#     Node 14, Type 0, BuildingBlock: CUKXOW_clean_sbu_0, # of connection points: 6
#     Node 15, Type 0, BuildingBlock: CUKXOW_clean_sbu_0, # of connection points: 6
#     Edge 16, Type (0, 0), BuildingBlock: XIVTED_clean_linker_0, # of connection points: 2
#     Edge 17, Type (0, 0), BuildingBlock: XIVTED_clean_linker_0, # of connection points: 2
#     Edge 18, Type (0, 0), BuildingBlock: XIVTED_clean_linker_0, # of connection points: 2
#     Edge 19, Type (0, 0), BuildingBlock: XIVTED_clean_linker_0, # of connection points: 2
#     Edge 20, Type (0, 0), BuildingBlock: XIVTED_clean_linker_0, # of connection points: 2
#     Edge 21, Type (0, 0), BuildingBlock: XIVTED_clean_linker_0, # of connection points: 2
#     Edge 22, Type (0, 0), BuildingBlock: XIVTED_clean_linker_0, # of connection points: 2
#     Edge 23, Type (0, 0), BuildingBlock: XIVTED_clean_linker_0, # of connection points: 2
#     Edge 24, Type (0, 0), BuildingBlock: XIVTED_clean_linker_0, # of connection points: 2
#     Edge 25, Type (0, 0), BuildingBlock: XIVTED_clean_linker_0, # of connection points: 2
#     Edge 26, Type (0, 0), BuildingBlock: XIVTED_clean_linker_0, # of connection points: 2
#     Edge 27, Type (0, 0), BuildingBlock: XIVTED_clean_linker_0, # of connection points: 2
#     Edge 28, Type (0, 0), BuildingBlock: XIVTED_clean_linker_0, # of connection points: 2
#     Edge 29, Type (0, 0), BuildingBlock: XIVTED_clean_linker_0, # of connection points: 2
#     Edge 30, Type (0, 0), BuildingBlock: XIVTED_clean_linker_0, # of connection points: 2
#     Edge 31, Type (0, 0), BuildingBlock: XIVTED_clean_linker_0, # of connection points: 2
#     Edge 32, Type (0, 0), BuildingBlock: XIVTED_clean_linker_0, # of connection points: 2
#     Edge 33, Type (0, 0), BuildingBlock: XIVTED_clean_linker_0, # of connection points: 2
#     Edge 34, Type (0, 0), BuildingBlock: XIVTED_clean_linker_0, # of connection points: 2
#     Edge 35, Type (0, 0), BuildingBlock: XIVTED_clean_linker_0, # of connection points: 2
#     Edge 36, Type (0, 0), BuildingBlock: XIVTED_clean_linker_0, # of connection points: 2
#     Edge 37, Type (0, 0), BuildingBlock: XIVTED_clean_linker_0, # of connection points: 2
#     Edge 38, Type (0, 0), BuildingBlock: XIVTED_clean_linker_0, # of connection points: 2
#     Edge 39, Type (0, 0), BuildingBlock: XIVTED_clean_linker_0, # of connection points: 2
#     Edge 40, Type (0, 0), BuildingBlock: XIVTED_clean_linker_0, # of connection points: 2
#     Edge 41, Type (0, 0), BuildingBlock: XIVTED_clean_linker_0, # of connection points: 2
#     Edge 42, Type (0, 0), BuildingBlock: XIVTED_clean_linker_0, # of connection points: 2
#     Edge 43, Type (0, 0), BuildingBlock: XIVTED_clean_linker_0, # of connection points: 2
#     Edge 44, Type (0, 0), BuildingBlock: XIVTED_clean_linker_0, # of connection points: 2
#     Edge 45, Type (0, 0), BuildingBlock: XIVTED_clean_linker_0, # of connection points: 2
#     Edge 46, Type (0, 0), BuildingBlock: XIVTED_clean_linker_0, # of connection points: 2
#     Edge 47, Type (0, 0), BuildingBlock: XIVTED_clean_linker_0, # of connection points: 2
#     Edge 48, Type (0, 0), BuildingBlock: XIVTED_clean_linker_0, # of connection points: 2
#     Edge 49, Type (0, 0), BuildingBlock: XIVTED_clean_linker_0, # of connection points: 2
#     Edge 50, Type (0, 0), BuildingBlock: XIVTED_clean_linker_0, # of connection points: 2
#     Edge 51, Type (0, 0), BuildingBlock: XIVTED_clean_linker_0, # of connection points: 2
#     Edge 52, Type (0, 0), BuildingBlock: XIVTED_clean_linker_0, # of connection points: 2
#     Edge 53, Type (0, 0), BuildingBlock: XIVTED_clean_linker_0, # of connection points: 2
#     Edge 54, Type (0, 0), BuildingBlock: XIVTED_clean_linker_0, # of connection points: 2
#     Edge 55, Type (0, 0), BuildingBlock: XIVTED_clean_linker_0, # of connection points: 2
#     Edge 56, Type (0, 0), BuildingBlock: XIVTED_clean_linker_0, # of connection points: 2
#     Edge 57, Type (0, 0), BuildingBlock: XIVTED_clean_linker_0, # of connection points: 2
#     Edge 58, Type (0, 0), BuildingBlock: XIVTED_clean_linker_0, # of connection points: 2
#     Edge 59, Type (0, 0), BuildingBlock: XIVTED_clean_linker_0, # of connection points: 2
#     Edge 60, Type (0, 0), BuildingBlock: XIVTED_clean_linker_0, # of connection points: 2
#     Edge 61, Type (0, 0), BuildingBlock: XIVTED_clean_linker_0, # of connection points: 2
#     Edge 62, Type (0, 0), BuildingBlock: XIVTED_clean_linker_0, # of connection points: 2
#     Edge 63, Type (0, 0), BuildingBlock: XIVTED_clean_linker_0, # of connection points: 2
# Relax obj value: 0.230
# Max RMSD: 0.249
# Mean RMSD: 0.249
data_MOF--net-whz--node1-CUKXOW_clean_sbu_0--edge1-XIVTED_clean_linker_0
_symmetry_space_group_name_H-M    P1
_symmetry_Int_Tables_number       1
_symmetry_cell_setting            triclinic
loop_
_symmetry_equiv_pos_as_xyz
'x, y, z'
_cell_length_a     37.56293
_cell_length_b     37.561708
_cell_length_c     50.378954
_cell_angle_alpha  90.315486
_cell_angle_beta   90.060741
_cell_angle_gamma 89.96539
loop_
_atom_site_label
_atom_site_type_symbol
_atom_site_fract_x
_atom_site_fract_y
_atom_site_fract_z
_atom_type_partial_charge
Tb0 Tb 0.33311 0.14653 0.16647 0.0
C1 C 0.27287 0.19437 0.14231 0.0
Tb2 Tb 0.25667 0.11897 0.16782 0.0
O3 O 0.33475 0.14156 0.12327 0.0
O4 O 0.3027 0.10742 0.1452 0.0
O5 O 0.30491 0.19346 0.15332 0.0
C6 C 0.19067 0.09498 0.15953 0.0
O7 O 0.25129 0.16623 0.14233 0.0
C8 C 0.27685 0.15381 0.21071 0.0
C9 C 0.31412 0.0788 0.20176 0.0
O10 O 0.19901 0.12525 0.17027 0.0
O11 O 0.21965 0.07823 0.15283 0.0
O12 O 0.25317 0.12869 0.21047 0.0
O13 O 0.28576 0.15966 0.18708 0.0
O14 O 0.28259 0.07631 0.18986 0.0
O15 O 0.3372 0.10467 0.19651 0.0
C16 C 0.39586 0.17846 0.17541 0.0
O17 O 0.39173 0.14758 0.16397 0.0
O18 O 0.36489 0.19061 0.18222 0.0
C19 C 0.31033 0.11725 0.12193 0.0
Tb20 Tb 0.61277 0.58301 0.41729 0.0
C21 C 0.56563 0.52123 0.39361 0.0
Tb22 Tb 0.64106 0.50617 0.41994 0.0
O23 O 0.62096 0.58567 0.3742 0.0
O24 O 0.65197 0.5518 0.39712 0.0
O25 O 0.56633 0.55397 0.40359 0.0
C26 C 0.66605 0.44018 0.4132 0.0
O27 O 0.59387 0.49979 0.39434 0.0
C28 C 0.6061 0.52756 0.46225 0.0
C29 C 0.67979 0.56497 0.45391 0.0
O30 O 0.63451 0.44848 0.42155 0.0
O31 O 0.68359 0.46916 0.40801 0.0
O32 O 0.63103 0.50366 0.46243 0.0
O33 O 0.60031 0.53592 0.43848 0.0
O34 O 0.68303 0.53338 0.44209 0.0
O35 O 0.65368 0.58766 0.44823 0.0
C36 C 0.58003 0.64559 0.4259 0.0
O37 O 0.61206 0.64178 0.41644 0.0
O38 O 0.56707 0.61437 0.43082 0.0
C39 C 0.6439 0.55987 0.37357 0.0
Tb40 Tb 0.18242 0.8602 0.66544 0.0
C41 C 0.24233 0.81633 0.6364 0.0
Tb42 Tb 0.25863 0.88827 0.66535 0.0
O43 O 0.17802 0.86765 0.62255 0.0
O44 O 0.21134 0.90046 0.64454 0.0
O45 O 0.21195 0.81516 0.64971 0.0
C46 C 0.32065 0.9226 0.66424 0.0
O47 O 0.26241 0.84549 0.63573 0.0
C48 C 0.24847 0.83346 0.69576 0.0
C49 C 0.20115 0.92527 0.70345 0.0
O50 O 0.30752 0.90598 0.68437 0.0
O51 O 0.29836 0.92083 0.64444 0.0
O52 O 0.27807 0.84008 0.6836 0.0
O53 O 0.22661 0.85851 0.69193 0.0
O54 O 0.23402 0.92578 0.69352 0.0
O55 O 0.17641 0.90236 0.69522 0.0
C56 C 0.12129 0.82618 0.67531 0.0
O57 O 0.12383 0.85888 0.66698 0.0
O58 O 0.15305 0.81324 0.67851 0.0
C59 C 0.20223 0.89208 0.62119 0.0
Tb60 Tb 0.89841 0.4301 0.91725 0.0
C61 C 0.94395 0.49302 0.8951 0.0
Tb62 Tb 0.86634 0.50473 0.91896 0.0
O63 O 0.89524 0.42873 0.87398 0.0
O64 O 0.85849 0.45852 0.89554 0.0
O65 O 0.94442 0.46042 0.90497 0.0
C66 C 0.84026 0.56992 0.91083 0.0
O67 O 0.91506 0.51355 0.89562 0.0
C68 C 0.89933 0.48583 0.9625 0.0
C69 C 0.82855 0.445 0.95178 0.0
O70 O 0.86975 0.56245 0.92287 0.0
O71 O 0.82535 0.5405 0.90278 0.0
O72 O 0.87263 0.50769 0.96179 0.0
O73 O 0.90777 0.4778 0.93903 0.0
O74 O 0.82432 0.47624 0.93986 0.0
O75 O 0.85605 0.42364 0.94681 0.0
C76 C 0.93176 0.36787 0.92548 0.0
O77 O 0.90035 0.37147 0.9149 0.0
O78 O 0.94375 0.39912 0.93187 0.0
C79 C 0.8697 0.4518 0.87241 0.0
Tb80 Tb 0.75121 0.89185 0.87922 0.0
C81 C 0.69273 0.93174 0.84619 0.0
Tb82 Tb 0.67516 0.86279 0.8808 0.0
O83 O 0.75438 0.88337 0.83645 0.0
O84 O 0.72242 0.8513 0.85957 0.0
O85 O 0.72431 0.93459 0.85799 0.0
C86 C 0.61252 0.83042 0.87194 0.0
O87 O 0.67015 0.90534 0.85129 0.0
C88 C 0.69837 0.89124 0.92554 0.0
C89 C 0.73688 0.8151 0.9032 0.0
O90 O 0.61654 0.86111 0.8837 0.0
O91 O 0.64353 0.81871 0.8648 0.0
O92 O 0.67438 0.8665 0.92411 0.0
O93 O 0.70525 0.90178 0.90234 0.0
O94 O 0.70452 0.81579 0.89268 0.0
O95 O 0.75781 0.84372 0.90361 0.0
C96 C 0.81725 0.91588 0.88742 0.0
O97 O 0.80884 0.88589 0.87631 0.0
O98 O 0.7883 0.93241 0.89453 0.0
C99 C 0.73106 0.8579 0.836 0.0
Tb100 Tb 0.37068 0.50643 0.62834 0.0
C101 C 0.33292 0.44692 0.59449 0.0
Tb102 Tb 0.39993 0.42991 0.63136 0.0
O103 O 0.38095 0.50879 0.58591 0.0
O104 O 0.41203 0.47704 0.61007 0.0
O105 O 0.32916 0.47843 0.60632 0.0
C106 C 0.43427 0.36814 0.62293 0.0
O107 O 0.35934 0.42461 0.60024 0.0
C108 C 0.36794 0.45292 0.67481 0.0
C109 C 0.44589 0.49256 0.65524 0.0
O110 O 0.402 0.37113 0.63212 0.0
O111 O 0.44653 0.39968 0.61819 0.0
O112 O 0.39109 0.42729 0.67442 0.0
O113 O 0.36021 0.46074 0.65116 0.0
O114 O 0.44569 0.45972 0.64542 0.0
O115 O 0.41744 0.5137 0.6542 0.0
C116 C 0.34458 0.57212 0.63414 0.0
O117 O 0.3763 0.56415 0.62598 0.0
O118 O 0.32756 0.54299 0.63979 0.0
C119 C 0.40623 0.48528 0.58627 0.0
Tb120 Tb 0.75489 0.12007 0.3782 0.0
C121 C 0.81338 0.08101 0.34443 0.0
Tb122 Tb 0.83077 0.14898 0.3806 0.0
O123 O 0.7518 0.12978 0.33563 0.0
O124 O 0.78358 0.16133 0.35961 0.0
O125 O 0.78171 0.0779 0.35595 0.0
C126 C 0.8932 0.18156 0.3722 0.0
O127 O 0.8359 0.10725 0.35022 0.0
C128 C 0.80802 0.11936 0.42471 0.0
C129 C 0.76924 0.19566 0.40461 0.0
O130 O 0.88938 0.15046 0.38311 0.0
O131 O 0.86211 0.19361 0.36568 0.0
O132 O 0.8322 0.14392 0.4237 0.0
O133 O 0.80077 0.10938 0.4013 0.0
O134 O 0.80158 0.19542 0.39411 0.0
O135 O 0.7482 0.16716 0.40397 0.0
C136 C 0.68878 0.09593 0.3853 0.0
O137 O 0.69732 0.12639 0.37527 0.0
O138 O 0.71763 0.079 0.392 0.0
C139 C 0.77504 0.1553 0.33587 0.0
Tb140 Tb 0.13601 0.50086 0.13065 0.0
C141 C 0.17428 0.5582 0.09307 0.0
Tb142 Tb 0.11148 0.57942 0.13229 0.0
O143 O 0.08644 0.48478 0.11251 0.0
O144 O 0.10752 0.53576 0.10525 0.0
O145 O 0.17272 0.52485 0.10193 0.0
C146 C 0.07672 0.64025 0.12287 0.0
O147 O 0.15323 0.58408 0.10219 0.0
C148 C 0.14439 0.55764 0.17571 0.0
C149 C 0.06602 0.51992 0.16097 0.0
O150 O 0.11003 0.63799 0.13006 0.0
O151 O 0.06364 0.60841 0.12057 0.0
O152 O 0.12359 0.58516 0.17485 0.0
O153 O 0.1497 0.54725 0.15215 0.0
O154 O 0.06611 0.55109 0.14871 0.0
O155 O 0.09412 0.49831 0.16078 0.0
C156 C 0.17014 0.43837 0.12956 0.0
O157 O 0.1468 0.44905 0.1125 0.0
O158 O 0.17477 0.46306 0.14739 0.0
C159 C 0.08123 0.51538 0.1014 0.0
Tb160 Tb 0.83225 0.65139 0.66817 0.0
C161 C 0.76964 0.69748 0.64526 0.0
Tb162 Tb 0.75658 0.621 0.67021 0.0
O163 O 0.83357 0.64693 0.62504 0.0
O164 O 0.80259 0.61171 0.64691 0.0
O165 O 0.80243 0.69755 0.65504 0.0
C166 C 0.69105 0.59539 0.66239 0.0
O167 O 0.74859 0.669 0.64608 0.0
C168 C 0.77667 0.65598 0.71303 0.0
C169 C 0.81581 0.58251 0.70323 0.0
O170 O 0.69888 0.62525 0.67392 0.0
O171 O 0.72028 0.57991 0.65464 0.0
O172 O 0.75385 0.63005 0.71297 0.0
O173 O 0.78486 0.6623 0.68933 0.0
O174 O 0.78427 0.57894 0.69152 0.0
O175 O 0.83788 0.60927 0.69797 0.0
C176 C 0.8947 0.68414 0.67685 0.0
O177 O 0.89084 0.65311 0.66559 0.0
O178 O 0.86359 0.69607 0.68359 0.0
C179 C 0.80963 0.62216 0.62368 0.0
Tb180 Tb 0.11039 0.08069 0.91658 0.0
C181 C 0.06234 0.01899 0.89421 0.0
Tb182 Tb 0.1388 1.00447 0.91898 0.0
O183 O 0.11459 0.08093 0.87335 0.0
O184 O 0.14942 0.04985 0.89554 0.0
O185 O 0.06327 0.05159 0.9044 0.0
C186 C 0.16246 0.93811 0.91152 0.0
O187 O 0.09071 0.9977 0.89433 0.0
C188 C 0.10485 0.0259 0.96178 0.0
C189 C 0.17873 0.06318 0.95214 0.0
O190 O 0.13245 0.94692 0.9223 0.0
O191 O 0.1792 0.96681 0.90433 0.0
O192 O 0.13012 1.00233 0.96172 0.0
O193 O 0.09841 0.03397 0.93807 0.0
O194 O 0.18149 0.03137 0.94058 0.0
O195 O 0.15257 0.08588 0.94658 0.0
C196 C 0.07827 0.14371 0.92475 0.0
O197 O 0.10944 0.13936 0.91391 0.0
O198 O 0.06593 0.11281 0.93136 0.0
C199 C 0.13907 0.05664 0.87223 0.0
Tb200 Tb 0.68052 0.36005 0.16716 0.0
C201 C 0.74406 0.31523 0.14441 0.0
Tb202 Tb 0.75521 0.39219 0.1698 0.0
O203 O 0.67914 0.3644 0.12405 0.0
O204 O 0.70924 0.40044 0.14616 0.0
O205 O 0.71168 0.3145 0.1548 0.0
C206 C 0.82072 0.41853 0.16335 0.0
O207 O 0.76401 0.34458 0.14471 0.0
C208 C 0.73585 0.35675 0.21233 0.0
C209 C 0.69491 0.42875 0.20312 0.0
O210 O 0.7915 0.43414 0.15578 0.0
O211 O 0.81288 0.38816 0.17382 0.0
O212 O 0.75805 0.38319 0.21257 0.0
O213 O 0.72795 0.35024 0.18855 0.0
O214 O 0.72566 0.43404 0.19067 0.0
O215 O 0.67438 0.40066 0.19816 0.0
C216 C 0.61868 0.32609 0.175 0.0
O217 O 0.62185 0.35823 0.16576 0.0
O218 O 0.6501 0.31369 0.18016 0.0
C219 C 0.70251 0.38968 0.12285 0.0
Tb220 Tb 0.40079 0.93146 0.41666 0.0
C221 C 0.44516 0.99182 0.38993 0.0
Tb222 Tb 0.3695 0.00617 0.41437 0.0
O223 O 0.39675 0.92677 0.37342 0.0
O224 O 0.36043 0.95796 0.39384 0.0
O225 O 0.44624 0.96181 0.40351 0.0
C226 C 0.33145 0.06563 0.40903 0.0
O227 O 0.41552 0.01102 0.38767 0.0
C228 C 0.42231 1.00031 0.44745 0.0
C229 C 0.33309 0.94863 0.45212 0.0
O230 O 0.34543 0.04768 0.38949 0.0
O231 O 0.33824 0.04961 0.43114 0.0
O232 O 0.41392 0.02953 0.43544 0.0
O233 O 0.39924 0.97664 0.44259 0.0
O234 O 0.33095 0.98055 0.44086 0.0
O235 O 0.35807 0.92499 0.44571 0.0
C236 C 0.43433 0.87016 0.4271 0.0
O237 O 0.40196 0.87291 0.418 0.0
O238 O 0.44721 0.90186 0.43086 0.0
C239 C 0.37084 0.94919 0.37094 0.0
Tb240 Tb 0.2551 0.39165 0.37814 0.0
C241 C 0.19416 0.42783 0.34567 0.0
Tb242 Tb 0.18066 0.35862 0.38089 0.0
O243 O 0.25763 0.38234 0.33539 0.0
O244 O 0.22814 0.34901 0.3594 0.0
O245 O 0.22516 0.43327 0.35781 0.0
C246 C 0.11903 0.32436 0.37269 0.0
O247 O 0.17395 0.39954 0.35051 0.0
C248 C 0.20265 0.38905 0.42511 0.0
C249 C 0.24469 0.31521 0.40397 0.0
O250 O 0.12209 0.35624 0.38269 0.0
O251 O 0.15046 0.31236 0.36696 0.0
O252 O 0.17934 0.36367 0.42399 0.0
O253 O 0.20911 0.39938 0.40176 0.0
O254 O 0.21196 0.31377 0.39421 0.0
O255 O 0.26481 0.34433 0.40274 0.0
C256 C 0.3203 0.41854 0.38527 0.0
O257 O 0.31276 0.38869 0.37365 0.0
O258 O 0.29095 0.4334 0.39346 0.0
C259 C 0.23594 0.35547 0.33563 0.0
Tb260 Tb 0.87006 1.00385 0.12855 0.0
C261 C 0.8308 0.94526 0.09487 0.0
Tb262 Tb 0.89956 0.92799 0.13002 0.0
O263 O 0.87872 0.00721 0.08589 0.0
O264 O 0.91096 0.97536 0.10911 0.0
O265 O 0.82769 0.97686 0.10669 0.0
C266 C 0.93226 0.86548 0.12122 0.0
O267 O 0.85725 0.92278 0.10016 0.0
C268 C 0.87052 0.95083 0.17458 0.0
C269 C 0.94668 0.98982 0.15322 0.0
O270 O 0.90157 0.86942 0.13287 0.0
O271 O 0.94379 0.8965 0.11414 0.0
O272 O 0.89547 0.92703 0.17327 0.0
O273 O 0.86014 0.95777 0.15132 0.0
O274 O 0.94625 0.95743 0.14263 0.0
O275 O 0.91802 0.01072 0.15331 0.0
C276 C 0.84559 0.06968 0.13701 0.0
O277 O 0.87557 0.06152 0.1259 0.0
O278 O 0.82931 0.0406 0.14394 0.0
C279 C 0.90435 0.98404 0.08554 0.0
Tb280 Tb 0.25314 0.61606 0.88215 0.0
C281 C 0.31356 0.58251 0.84531 0.0
Tb282 Tb 0.32671 0.6508 0.8815 0.0
O283 O 0.22878 0.65872 0.85988 0.0
O284 O 0.28277 0.64685 0.85469 0.0
O285 O 0.28221 0.57762 0.85711 0.0
C286 C 0.3873 0.68614 0.87237 0.0
O287 O 0.33486 0.6097 0.85127 0.0
C288 C 0.30809 0.61926 0.9264 0.0
C289 C 0.26343 0.69286 0.90656 0.0
O290 O 0.38525 0.65336 0.8806 0.0
O291 O 0.35535 0.69846 0.86885 0.0
O292 O 0.32939 0.64622 0.92496 0.0
O293 O 0.30108 0.60916 0.90314 0.0
O294 O 0.29389 0.69504 0.89357 0.0
O295 O 0.24542 0.66244 0.90856 0.0
C296 C 0.19482 0.57635 0.88744 0.0
O297 O 0.21155 0.59204 0.90686 0.0
O298 O 0.2115 0.58231 0.86542 0.0
C299 C 0.2583 0.66856 0.84893 0.0
Tb300 Tb 0.6432 0.00667 0.63272 0.0
C301 C 0.68094 0.06427 0.59548 0.0
Tb302 Tb 0.6132 0.08192 0.63051 0.0
O303 O 0.5995 0.98386 0.61071 0.0
O304 O 0.61464 0.03697 0.60421 0.0
O305 O 0.68216 0.03195 0.60623 0.0
C306 C 0.57963 0.14329 0.62028 0.0
O307 O 0.65661 0.08841 0.6022 0.0
C308 C 0.64158 0.06265 0.67651 0.0
C309 C 0.5665 0.022 0.65528 0.0
O310 O 0.61168 0.14057 0.63001 0.0
O311 O 0.56723 0.11159 0.61574 0.0
O312 O 0.61589 0.08532 0.67398 0.0
O313 O 0.65245 0.05445 0.65364 0.0
O314 O 0.56686 0.05223 0.64203 0.0
O315 O 0.59567 1.00217 0.65822 0.0
C316 C 0.68087 0.947 0.63887 0.0
O317 O 0.66607 0.96495 0.65808 0.0
O318 O 0.67502 0.96308 0.61664 0.0
C319 C 0.59168 0.01333 0.59881 0.0
H320 H 0.24893 0.14985 0.26033 0.0
H321 H 0.26536 0.35951 0.28634 0.0
H322 H 0.30187 0.22184 0.20686 0.0
H323 H 0.21214 0.28716 0.33939 0.0
H324 H 0.27823 0.30961 0.25648 0.0
H325 H 0.23718 0.19968 0.29044 0.0
C326 C 0.25858 0.17609 0.25518 0.0
C327 C 0.27615 0.18189 0.23108 0.0
C328 C 0.26352 0.30469 0.27456 0.0
C329 C 0.26222 0.23903 0.26501 0.0
C330 C 0.25591 0.33318 0.29146 0.0
C331 C 0.23783 0.32732 0.31535 0.0
C332 C 0.253 0.27017 0.2817 0.0
C333 C 0.22615 0.29279 0.32113 0.0
C334 C 0.25161 0.20456 0.27222 0.0
C335 C 0.28818 0.2163 0.22528 0.0
N336 N 0.23419 0.26542 0.3045 0.0
N337 N 0.28068 0.2437 0.24204 0.0
H338 H 0.40106 0.50976 0.53589 0.0
H339 H 0.61132 0.50302 0.5126 0.0
H340 H 0.47527 0.46359 0.59139 0.0
H341 H 0.53717 0.54968 0.45729 0.0
H342 H 0.56192 0.48998 0.54246 0.0
H343 H 0.45049 0.52292 0.50608 0.0
C344 C 0.42775 0.50184 0.54153 0.0
C345 C 0.43428 0.48585 0.56611 0.0
C346 C 0.55646 0.50334 0.5239 0.0
C347 C 0.49085 0.50146 0.53256 0.0
C348 C 0.58465 0.51108 0.50701 0.0
C349 C 0.57812 0.52716 0.48246 0.0
C350 C 0.52158 0.51168 0.51607 0.0
C351 C 0.54324 0.53719 0.47607 0.0
C352 C 0.45596 0.50965 0.52467 0.0
C353 C 0.46919 0.476 0.57257 0.0
N354 N 0.51613 0.52893 0.4927 0.0
N355 N 0.4963 0.48431 0.55597 0.0
H356 H 0.19838 0.82785 0.735 0.0
H357 H 0.31002 0.67809 0.8114 0.0
H358 H 0.29438 0.77965 0.70445 0.0
H359 H 0.2084 0.71796 0.83822 0.0
H360 H 0.30632 0.71769 0.77297 0.0
H361 H 0.20151 0.78817 0.77343 0.0
C362 C 0.21979 0.80859 0.73628 0.0
C363 C 0.24634 0.80705 0.71688 0.0
C364 C 0.28488 0.71783 0.78733 0.0
C365 C 0.2505 0.76232 0.76053 0.0
C366 C 0.28719 0.6955 0.80928 0.0
C367 C 0.25933 0.69476 0.82764 0.0
C368 C 0.2546 0.73946 0.78401 0.0
C369 C 0.23024 0.71764 0.8242 0.0
C370 C 0.22176 0.78617 0.75822 0.0
C371 C 0.2736 0.7818 0.71927 0.0
N372 N 0.22853 0.73901 0.80269 0.0
N373 N 0.27514 0.76055 0.74084 0.0
H374 H 0.88508 0.49172 1.01489 0.0
H375 H 0.08359 0.54646 0.05265 0.0
H376 H 0.9716 0.48788 0.95868 0.0
H377 H 0.01337 0.49539 0.10834 0.0
H378 H 0.03722 0.54076 1.0183 0.0
H379 H 0.92788 0.5059 0.05024 0.0
C380 C 0.91318 0.49336 1.01018 0.0
C381 C 0.92511 0.48824 0.98414 0.0
C382 C 0.03188 0.53147 0.03822 0.0
C383 C 0.97349 0.50579 1.02378 0.0
C384 C 0.05798 0.53517 0.05777 0.0
C385 C 0.05192 0.52125 0.08304 0.0
C386 C 0.99971 0.51438 0.04444 0.0
C387 C 0.01875 0.5063 0.08889 0.0
C388 C 0.9374 0.50174 0.03017 0.0
C389 C 0.96157 0.49111 0.9787 0.0
N390 N 0.99379 0.50308 0.06964 0.0
N391 N 0.98458 0.50006 0.9984 0.0
H392 H 0.76098 0.86207 0.78697 0.0
H393 H 0.74734 0.65209 0.76224 0.0
H394 H 0.7055 0.79015 0.83908 0.0
H395 H 0.80093 0.72413 0.70915 0.0
H396 H 0.73346 0.70225 0.79152 0.0
H397 H 0.77453 0.81208 0.75743 0.0
C398 C 0.75112 0.83583 0.79191 0.0
C399 C 0.7324 0.83006 0.81552 0.0
C400 C 0.74849 0.70706 0.77357 0.0
C401 C 0.74838 0.77282 0.78231 0.0
C402 C 0.75671 0.67842 0.75702 0.0
C403 C 0.77504 0.68415 0.73324 0.0
C404 C 0.75868 0.74158 0.76617 0.0
C405 C 0.78666 0.71865 0.72732 0.0
C406 C 0.75913 0.80728 0.77521 0.0
C407 C 0.72012 0.79567 0.82106 0.0
N408 N 0.77798 0.74619 0.74359 0.0
N409 N 0.72866 0.76821 0.80468 0.0
H410 H 0.76552 0.36078 0.26158 0.0
H411 H 0.74685 0.15145 0.28623 0.0
H412 H 0.71053 0.28898 0.20844 0.0
H413 H 0.80035 0.22314 0.3403 0.0
H414 H 0.73525 0.20136 0.25657 0.0
H415 H 0.77773 0.3109 0.29122 0.0
C416 C 0.75554 0.33459 0.2564 0.0
C417 C 0.73721 0.32882 0.23253 0.0
C418 C 0.74976 0.20615 0.27483 0.0
C419 C 0.75161 0.27172 0.26589 0.0
C420 C 0.75665 0.17764 0.29161 0.0
C421 C 0.77434 0.18335 0.31574 0.0
C422 C 0.76061 0.24055 0.28233 0.0
C423 C 0.78657 0.21768 0.32184 0.0
C424 C 0.76277 0.3061 0.27317 0.0
C425 C 0.7248 0.29449 0.22667 0.0
N426 N 0.77917 0.24512 0.30533 0.0
N427 N 0.73251 0.26712 0.24315 0.0
H428 H 0.89987 0.01368 0.03653 0.0
H429 H 0.10938 0.99814 1.01134 0.0
H430 H 0.97223 0.95876 0.08884 0.0
H431 H 0.03696 0.05118 0.958 0.0
H432 H 0.05965 0.98571 0.04106 0.0
H433 H 0.94961 0.02685 1.00696 0.0
C434 C 0.92616 1.00388 0.04151 0.0
C435 C 0.93213 0.98537 0.06516 0.0
C436 C 0.05466 1.00032 1.02296 0.0
C437 C 0.98907 1.00091 0.03191 0.0
C438 C 0.08307 0.00771 1.00616 0.0
C439 C 0.07708 0.0254 0.98217 0.0
C440 C 0.02013 0.01068 1.0156 0.0
C441 C 0.04262 0.03735 0.97632 0.0
C442 C 0.95456 0.01168 0.0248 0.0
C443 C 0.96657 0.97318 0.07078 0.0
N444 N 0.01529 0.02944 0.99283 0.0
N445 N 0.99388 0.98148 0.05436 0.0
H446 H 0.43074 0.95057 0.48657 0.0
H447 H 0.58405 0.06316 0.55955 0.0
H448 H 0.47389 0.04869 0.45624 0.0
H449 H 0.53896 0.96624 0.59042 0.0
H450 H 0.54308 0.05916 0.52164 0.0
H451 H 0.47147 0.95505 0.52452 0.0
C452 C 0.44908 0.97278 0.48783 0.0
C453 C 0.44895 0.99946 0.4686 0.0
C454 C 0.54209 0.03887 0.5368 0.0
C455 C 0.49497 1.0051 0.51168 0.0
C456 C 0.56524 0.04135 0.55843 0.0
C457 C 0.56492 0.0148 0.57776 0.0
C458 C 0.51869 0.0097 0.53478 0.0
C459 C 0.54021 0.987 0.57562 0.0
C460 C 0.47209 0.97553 0.50949 0.0
C461 C 0.47305 0.02778 0.47094 0.0
N462 N 0.51818 0.98504 0.5544 0.0
N463 N 0.49502 0.02997 0.49219 0.0
H464 H 0.19866 0.12872 0.97151 0.0
H465 H 0.26962 0.05782 0.11056 0.0
H466 H 0.21037 0.01635 0.98635 0.0
H467 H 0.30696 0.15613 0.07677 0.0
H468 H 0.23942 0.04395 0.06819 0.0
H469 H 0.231 0.14136 1.01289 0.0
C470 C 0.20841 0.10671 0.98328 0.0
C471 C 0.20219 0.07143 0.97521 0.0
C472 C 0.25431 0.06851 0.07014 0.0
C473 C 0.23809 0.08572 1.0231 0.0
C474 C 0.27133 0.07648 0.0943 0.0
C475 C 0.29094 0.10806 0.09711 0.0
C476 C 0.25626 0.09272 0.04894 0.0
C477 C 0.29235 0.13135 0.0754 0.0
C478 C 0.22675 0.11394 1.00693 0.0
C479 C 0.21508 0.04396 0.99152 0.0
N480 N 0.27507 0.12338 0.05237 0.0
N481 N 0.232 0.05166 1.01481 0.0
H482 H 0.65395 0.48834 0.36563 0.0
H483 H 0.71668 0.4974 0.21506 0.0
H484 H 0.65674 0.58878 0.325 0.0
H485 H 0.65425 0.41043 0.24568 0.0
H486 H 0.7058 0.53048 0.25671 0.0
H487 H 0.66655 0.45774 0.32357 0.0
C488 C 0.65813 0.50399 0.34802 0.0
C489 C 0.65489 0.54112 0.34891 0.0
C490 C 0.69435 0.50424 0.25409 0.0
C491 C 0.6689 0.5064 0.30056 0.0
C492 C 0.70045 0.48541 0.23036 0.0
C493 C 0.68603 0.45121 0.22666 0.0
C494 C 0.67467 0.48829 0.27456 0.0
C495 C 0.6655 0.43687 0.24736 0.0
C496 C 0.66479 0.48652 0.32392 0.0
C497 C 0.65923 0.56006 0.32515 0.0
N498 N 0.66083 0.45523 0.27044 0.0
N499 N 0.66629 0.54256 0.30195 0.0
H500 H 0.20546 0.85226 0.57622 0.0
H501 H 0.30153 0.9964 0.48608 0.0
H502 H 0.2421 0.95181 0.60926 0.0
H503 H 0.31341 0.8836 0.47215 0.0
H504 H 0.27005 0.98345 0.5276 0.0
H505 H 0.2358 0.86613 0.53461 0.0
C506 C 0.21982 0.87717 0.57468 0.0
C507 C 0.22125 0.90096 0.59625 0.0
C508 C 0.27937 0.9616 0.51534 0.0
C509 C 0.25561 0.91724 0.54835 0.0
C510 C 0.29698 0.9689 0.49146 0.0
C511 C 0.30999 0.94101 0.47542 0.0
C512 C 0.27399 0.92615 0.52302 0.0
C513 C 0.3038 0.90593 0.48377 0.0
C514 C 0.23723 0.88496 0.55093 0.0
C515 C 0.24045 0.93271 0.59314 0.0
N516 N 0.28608 0.89951 0.50686 0.0
N517 N 0.25663 0.94013 0.56952 0.0
H518 H 0.88149 0.56503 0.72334 0.0
H519 H 0.80876 0.48965 0.8604 0.0
H520 H 0.76922 0.54872 0.7364 0.0
H521 H 0.91011 0.45752 0.82809 0.0
H522 H 0.79507 0.51964 0.81812 0.0
H523 H 0.8941 0.53286 0.76459 0.0
C524 C 0.85953 0.55431 0.73469 0.0
C525 C 0.82428 0.55921 0.72617 0.0
C526 C 0.82025 0.50593 0.82037 0.0
C527 C 0.83847 0.52347 0.77389 0.0
C528 C 0.82811 0.48905 0.84448 0.0
C529 C 0.86052 0.47098 0.84767 0.0
C530 C 0.84535 0.50539 0.79963 0.0
C531 C 0.88469 0.47093 0.8264 0.0
C532 C 0.86673 0.53607 0.75826 0.0
C533 C 0.79684 0.54508 0.74193 0.0
N534 N 0.87676 0.48805 0.80343 0.0
N535 N 0.80447 0.52825 0.76515 0.0
H536 H 0.81152 0.8797 0.07523 0.0
H537 H 0.73821 0.95119 0.93705 0.0
H538 H 0.79827 0.99208 0.06112 0.0
H539 H 0.70283 0.85187 0.97039 0.0
H540 H 0.76862 0.96504 0.97933 0.0
H541 H 0.77897 0.86709 0.03396 0.0
C542 C 0.80139 0.90171 0.06364 0.0
C543 C 0.80724 0.93699 0.07188 0.0
C544 C 0.75411 0.94027 0.9773 0.0
C545 C 0.77108 0.92275 0.02411 0.0
C546 C 0.73698 0.9323 0.95319 0.0
C547 C 0.71787 0.90043 0.95028 0.0
C548 C 0.75277 0.91578 0.99834 0.0
C549 C 0.71705 0.87687 0.97184 0.0
C550 C 0.78293 0.8945 0.04005 0.0
C551 C 0.79386 0.96447 0.05581 0.0
N552 N 0.73443 0.88485 0.99481 0.0
N553 N 0.77681 0.9568 0.03256 0.0
H554 H 0.29138 0.51434 0.83247 0.0
H555 H 0.35702 0.5244 0.68268 0.0
H556 H 0.35517 0.60124 0.80336 0.0
H557 H 0.3543 0.42382 0.72314 0.0
H558 H 0.3435 0.55478 0.72472 0.0
H559 H 0.30292 0.48176 0.79072 0.0
C560 C 0.30803 0.52642 0.81748 0.0
C561 C 0.32267 0.56043 0.82163 0.0
C562 C 0.34547 0.52601 0.72431 0.0
C563 C 0.33478 0.52394 0.77359 0.0
C564 C 0.35268 0.50867 0.70024 0.0
C565 C 0.35624 0.47156 0.69933 0.0
C566 C 0.3411 0.50602 0.74759 0.0
C567 C 0.35159 0.45251 0.72301 0.0
C568 C 0.31451 0.50788 0.79368 0.0
C569 C 0.34375 0.57492 0.8013 0.0
N570 N 0.34399 0.46989 0.74616 0.0
N571 N 0.34879 0.55684 0.77813 0.0
H572 H 0.76697 0.05986 0.43535 0.0
H573 H 0.70334 0.12924 0.57743 0.0
H574 H 0.80633 0.15698 0.47064 0.0
H575 H 0.70922 0.01697 0.55955 0.0
H576 H 0.73443 0.14174 0.53575 0.0
H577 H 0.73802 0.04525 0.47795 0.0
C578 C 0.76938 0.0781 0.45197 0.0
C579 C 0.78917 0.10959 0.44951 0.0
C580 C 0.7292 0.11434 0.54107 0.0
C581 C 0.756 0.09338 0.49793 0.0
C582 C 0.71157 0.10719 0.56491 0.0
C583 C 0.70401 0.07199 0.57221 0.0
C584 C 0.73857 0.0862 0.52394 0.0
C585 C 0.71498 0.04449 0.55496 0.0
C586 C 0.75309 0.0697 0.47626 0.0
C587 C 0.79153 0.1323 0.47169 0.0
N588 N 0.73131 0.05217 0.5315 0.0
N589 N 0.775 0.12392 0.49482 0.0
H590 H 0.147 0.41236 0.30607 0.0
H591 H 0.16334 0.58948 0.22245 0.0
H592 H 0.22001 0.49431 0.33186 0.0
H593 H 0.14855 0.4862 0.18688 0.0
H594 H 0.17573 0.5604 0.26526 0.0
H595 H 0.13693 0.44503 0.26511 0.0
C596 C 0.1605 0.43756 0.30341 0.0
C597 C 0.18444 0.45053 0.32261 0.0
C598 C 0.17025 0.5442 0.24788 0.0
C599 C 0.17289 0.48814 0.27536 0.0
C600 C 0.16324 0.56068 0.22349 0.0
C601 C 0.15568 0.54016 0.20075 0.0
C602 C 0.16841 0.50697 0.24968 0.0
C603 C 0.15536 0.50306 0.20336 0.0
C604 C 0.15496 0.45601 0.27982 0.0
C605 C 0.20135 0.48326 0.31766 0.0
N606 N 0.16115 0.4877 0.22735 0.0
N607 N 0.19517 0.50106 0.29453 0.0
H608 H 0.80321 0.66342 0.5801 0.0
H609 H 0.7128 0.51761 0.48701 0.0
H610 H 0.77173 0.56127 0.61079 0.0
H611 H 0.69729 0.6302 0.47509 0.0
H612 H 0.74363 0.53079 0.5289 0.0
H613 H 0.77295 0.64947 0.53836 0.0
C614 C 0.78993 0.63795 0.57802 0.0
C615 C 0.79001 0.61341 0.59894 0.0
C616 C 0.73366 0.55256 0.51699 0.0
C617 C 0.75576 0.59706 0.55088 0.0
C618 C 0.71646 0.54514 0.49291 0.0
C619 C 0.70267 0.57289 0.47732 0.0
C620 C 0.73777 0.58801 0.52536 0.0
C621 C 0.7076 0.60799 0.48635 0.0
C622 C 0.77259 0.6301 0.5542 0.0
C623 C 0.77218 0.58095 0.59518 0.0
N624 N 0.72491 0.61454 0.50964 0.0
N625 N 0.75605 0.57351 0.57147 0.0
H626 H 0.10078 0.053 0.82668 0.0
H627 H 0.24797 0.95405 0.73953 0.0
H628 H 0.19914 0.01644 0.86128 0.0
H629 H 0.13578 0.94711 0.72187 0.0
H630 H 0.23365 0.98553 0.781 0.0
H631 H 0.11612 0.02242 0.78527 0.0
C632 C 0.12571 0.03856 0.82553 0.0
C633 C 0.14873 0.03727 0.84748 0.0
C634 C 0.21224 0.97726 0.76795 0.0
C635 C 0.16673 1.00256 0.79981 0.0
C636 C 0.22035 0.95963 0.74411 0.0
C637 C 0.19303 0.94803 0.72701 0.0
C638 C 0.17656 0.98404 0.77457 0.0
C639 C 0.15773 0.95557 0.73433 0.0
C640 C 0.13437 0.02102 0.80189 0.0
C641 C 0.18059 0.01799 0.84486 0.0
N642 N 0.15055 0.97323 0.75742 0.0
N643 N 0.18883 1.00163 0.82136 0.0
H644 H 0.74062 0.45071 0.11112 0.0
H645 H 0.81149 0.37932 0.97163 0.0
H646 H 0.70741 0.34996 0.07804 0.0
H647 H 0.79561 0.49153 0.98587 0.0
H648 H 0.78084 0.36653 1.0135 0.0
H649 H 0.76942 0.46497 0.06839 0.0
C650 C 0.73954 0.4316 0.09496 0.0
C651 C 0.72146 0.39922 0.09805 0.0
C652 C 0.78378 0.39394 1.00731 0.0
C653 C 0.75452 0.41501 0.04953 0.0
C654 C 0.80111 0.40124 0.98336 0.0
C655 C 0.80566 0.43651 0.97497 0.0
C656 C 0.77175 0.42212 1.02345 0.0
C657 C 0.79211 0.4639 0.99127 0.0
C658 C 0.75575 0.43979 0.0706 0.0
C659 C 0.72082 0.37537 0.07646 0.0
N660 N 0.77617 0.45618 1.01486 0.0
N661 N 0.73727 0.38359 0.05327 0.0
H662 H 0.26639 0.04601 0.23466 0.0
H663 H 0.41125 0.95229 0.32638 0.0
H664 H 0.37915 0.05922 0.22201 0.0
H665 H 0.31024 0.98692 0.35783 0.0
H666 H 0.39728 0.98174 0.28442 0.0
H667 H 0.27931 0.01408 0.27596 0.0
C668 C 0.29389 0.04159 0.24025 0.0
C669 C 0.32176 0.05513 0.22467 0.0
C670 C 0.37814 0.98287 0.30047 0.0
C671 C 0.33661 0.01869 0.27201 0.0
C672 C 0.386 0.96597 0.3244 0.0
C673 C 0.36183 0.96714 0.34563 0.0
C674 C 0.34547 1.00049 0.29739 0.0
C675 C 0.32962 0.98545 0.34197 0.0
C676 C 0.30117 0.02374 0.264 0.0
C677 C 0.35684 0.04917 0.23329 0.0
N678 N 0.32221 1.00119 0.31822 0.0
N679 N 0.36325 0.03125 0.25625 0.0
H680 H 0.29861 0.4939 0.56183 0.0
H681 H 0.21152 0.34709 0.468 0.0
H682 H 0.31716 0.38156 0.57275 0.0
H683 H 0.23916 0.45078 0.43812 0.0
H684 H 0.2421 0.36113 0.50955 0.0
H685 H 0.26797 0.48055 0.51991 0.0
C686 C 0.29568 0.46637 0.55571 0.0
C687 C 0.31025 0.43874 0.57103 0.0
C688 C 0.24159 0.38083 0.49393 0.0
C689 C 0.27537 0.42346 0.52294 0.0
C690 C 0.22405 0.37291 0.47021 0.0
C691 C 0.22275 0.39787 0.44959 0.0
C692 C 0.25738 0.41432 0.49745 0.0
C693 C 0.23966 0.43079 0.45351 0.0
C694 C 0.27858 0.45888 0.5316 0.0
C695 C 0.30623 0.40367 0.56171 0.0
N696 N 0.256 0.43826 0.47714 0.0
N697 N 0.289 0.39703 0.5384 0.0
H698 H 0.81011 0.99025 0.18561 0.0
H699 H 0.87911 0.06149 0.32566 0.0
H700 H 0.90897 0.95476 0.22006 0.0
H701 H 0.76697 0.04923 0.30964 0.0
H702 H 0.89236 0.02944 0.28426 0.0
H703 H 0.79533 0.02001 0.22802 0.0
C704 C 0.8287 0.98886 0.20202 0.0
C705 C 0.86073 0.96993 0.19938 0.0
C706 C 0.86485 0.03349 0.28995 0.0
C707 C 0.84431 1.00405 0.24759 0.0
C708 C 0.85728 0.05167 0.31361 0.0
C709 C 0.82188 0.05767 0.32135 0.0
C710 C 0.83687 0.02205 0.27344 0.0
C711 C 0.79465 0.04469 0.30471 0.0
C712 C 0.8202 0.00561 0.22621 0.0
C713 C 0.88388 0.96887 0.22129 0.0
N714 N 0.80268 0.02789 0.28141 0.0
N715 N 0.87538 0.98587 0.24433 0.0
H716 H 0.20746 0.51006 0.06022 0.0
H717 H 0.26937 0.55838 0.93473 0.0
H718 H 0.19382 0.62312 0.07227 0.0
H719 H 0.30437 0.65462 0.97373 0.0
H720 H 0.23809 0.54123 0.97548 0.0
H721 H 0.24075 0.52218 1.01968 0.0
C722 C 0.21162 0.53749 0.0545 0.0
C723 C 0.19756 0.56561 0.06979 0.0
C724 C 0.25306 0.56584 0.97529 0.0
C725 C 0.23529 0.57964 1.0228 0.0
C726 C 0.27064 0.57575 0.95194 0.0
C727 C 0.28965 0.60782 0.95093 0.0
C728 C 0.25428 0.58835 0.99772 0.0
C729 C 0.29027 0.62949 0.97375 0.0
C730 C 0.23028 0.54435 0.03106 0.0
C731 C 0.20393 0.60056 0.06114 0.0
N732 N 0.27261 0.61953 0.9961 0.0
N733 N 0.22243 0.60657 0.03832 0.0
H734 H 0.70166 0.02413 0.68917 0.0
H735 H 0.62737 0.9508 0.82619 0.0
H736 H 0.6011 0.05917 0.72115 0.0
H737 H 0.73993 0.96504 0.81322 0.0
H738 H 0.61539 0.98364 0.7851 0.0
H739 H 0.71467 0.99454 0.73168 0.0
C740 C 0.68236 0.02555 0.7051 0.0
C741 C 0.65036 0.04425 0.7017 0.0
C742 C 0.64269 0.97985 0.79143 0.0
C743 C 0.66474 0.01019 0.75006 0.0
C744 C 0.64954 0.96121 0.81491 0.0
C745 C 0.68469 0.9555 0.8234 0.0
C746 C 0.67119 0.99201 0.77586 0.0
C747 C 0.71239 0.96928 0.80772 0.0
C748 C 0.68983 0.00884 0.72934 0.0
C749 C 0.62622 0.04525 0.72299 0.0
N750 N 0.70509 0.98646 0.78458 0.0
N751 N 0.63373 0.02824 0.74612 0.0
H752 H 0.46431 0.15522 0.16703 0.0
H753 H 0.54969 0.34969 0.17091 0.0
H754 H 0.40344 0.24859 0.18794 0.0
H755 H 0.61217 0.25484 0.18313 0.0
H756 H 0.49532 0.31332 0.17252 0.0
H757 H 0.51887 0.19135 0.16833 0.0
C758 C 0.46249 0.18324 0.17202 0.0
C759 C 0.42941 0.19894 0.17747 0.0
C760 C 0.52096 0.30054 0.17498 0.0
C761 C 0.49137 0.24048 0.17851 0.0
C762 C 0.55192 0.32126 0.17402 0.0
C763 C 0.58538 0.30523 0.17696 0.0
C764 C 0.5236 0.26348 0.17839 0.0
C765 C 0.58684 0.26826 0.18088 0.0
C766 C 0.49356 0.20384 0.17278 0.0
C767 C 0.42847 0.23541 0.18373 0.0
N768 N 0.55644 0.2486 0.18126 0.0
N769 N 0.45891 0.25501 0.18385 0.0
H770 H 0.60435 0.71422 0.4206 0.0
H771 H 0.41015 0.80139 0.42381 0.0
H772 H 0.50939 0.65353 0.43638 0.0
H773 H 0.50572 0.863 0.43559 0.0
H774 H 0.44597 0.74672 0.42523 0.0
H775 H 0.56883 0.76919 0.42282 0.0
C776 C 0.57609 0.71251 0.42465 0.0
C777 C 0.55978 0.67933 0.42834 0.0
C778 C 0.45907 0.77219 0.42768 0.0
C779 C 0.51894 0.74187 0.43054 0.0
C780 C 0.43863 0.80337 0.42687 0.0
C781 C 0.45499 0.83672 0.42965 0.0
C782 C 0.49623 0.77443 0.43086 0.0
C783 C 0.49202 0.83779 0.43346 0.0
C784 C 0.55584 0.74383 0.42595 0.0
C785 C 0.52304 0.67858 0.43347 0.0
N786 N 0.51143 0.80716 0.43373 0.0
N787 N 0.50384 0.7093 0.43421 0.0
H788 H 0.90231 0.75413 0.69008 0.0
H789 H 0.11491 0.75466 0.68246 0.0
H790 H 0.9632 0.66114 0.66833 0.0
H791 H 0.05213 0.85006 0.67395 0.0
H792 H 0.06003 0.71955 0.68429 0.0
H793 H 0.95736 0.7891 0.6912 0.0
C794 C 0.92734 0.741 0.68575 0.0
C795 C 0.92824 0.70468 0.67907 0.0
C796 C 0.05824 0.74817 0.68211 0.0
C797 C 0.99134 0.74453 0.68046 0.0
C798 C 0.08952 0.76826 0.68119 0.0
C799 C 0.08803 0.80534 0.67802 0.0
C800 C 0.02511 0.76529 0.68023 0.0
C801 C 0.05444 0.82153 0.67638 0.0
C802 C 0.9587 0.76103 0.68627 0.0
C803 C 0.96136 0.68908 0.67353 0.0
N804 N 0.02429 0.80142 0.67758 0.0
N805 N 0.99163 0.70906 0.67443 0.0
H806 H 0.90819 0.29919 0.91921 0.0
H807 H 0.10213 0.21222 0.91771 0.0
H808 H 1.00276 0.3606 0.93537 0.0
H809 H 0.00782 0.15169 0.93576 0.0
H810 H 0.06634 0.26711 0.91928 0.0
H811 H 0.94424 0.24456 0.92035 0.0
C812 C 0.93649 0.30113 0.92311 0.0
C813 C 0.9525 0.33439 0.9273 0.0
C814 C 0.05357 0.24179 0.92303 0.0
C815 C 0.99397 0.27225 0.92815 0.0
C816 C 0.07396 0.21053 0.9221 0.0
C817 C 0.05792 0.17743 0.9267 0.0
C818 C 0.01678 0.2398 0.92805 0.0
C819 C 0.02128 0.17669 0.93222 0.0
C820 C 0.95704 0.27 0.92379 0.0
C821 C 0.98933 0.33544 0.93217 0.0
N822 N 1.00191 0.20732 0.93251 0.0
N823 N 0.00886 0.3049 0.93223 0.0
H824 H 0.60519 0.76082 0.85774 0.0
H825 H 0.39274 0.75792 0.86593 0.0
H826 H 0.54387 0.85279 0.88122 0.0
H827 H 0.45671 0.6632 0.87368 0.0
H828 H 0.44722 0.79376 0.86447 0.0
H829 H 0.55044 0.72549 0.85643 0.0
C830 C 0.58012 0.77366 0.86241 0.0
C831 C 0.57904 0.8098 0.86963 0.0
C832 C 0.44934 0.76514 0.86642 0.0
C833 C 0.51623 0.76949 0.86802 0.0
C834 C 0.4183 0.74464 0.86712 0.0
C835 C 0.42026 0.70753 0.86996 0.0
C836 C 0.48267 0.74839 0.86815 0.0
C837 C 0.45404 0.69173 0.87151 0.0
C838 C 0.54893 0.75341 0.86178 0.0
C839 C 0.54586 0.825 0.87559 0.0
N840 N 0.48393 0.71223 0.87049 0.0
N841 N 0.51572 0.80481 0.87458 0.0
H842 H 0.50526 0.36219 0.61327 0.0
H843 H 0.50859 0.14933 0.61031 0.0
H844 H 0.41159 0.29871 0.62717 0.0
H845 H 0.60224 0.21256 0.62556 0.0
H846 H 0.47269 0.20381 0.6097 0.0
H847 H 0.54102 0.30774 0.61111 0.0
C848 C 0.49217 0.33672 0.61571 0.0
C849 C 0.45539 0.33494 0.62044 0.0
C850 C 0.50109 0.20579 0.61309 0.0
C851 C 0.49622 0.27244 0.61783 0.0
C852 C 0.52166 0.17475 0.61329 0.0
C853 C 0.55847 0.17646 0.61799 0.0
C854 C 0.51749 0.23893 0.61726 0.0
C855 C 0.57395 0.21007 0.62186 0.0
C856 C 0.51265 0.30568 0.61458 0.0
C857 C 0.43987 0.30125 0.62352 0.0
N858 N 0.55341 0.23999 0.62134 0.0
N859 N 0.46034 0.2713 0.62207 0.0
H860 H 0.11272 0.25325 0.36307 0.0
H861 H 0.90032 0.25175 0.36046 0.0
H862 H 0.05002 0.3475 0.37775 0.0
H863 H 0.96194 0.15842 0.37952 0.0
H864 H 0.9552 0.28686 0.3594 0.0
H865 H 0.05797 0.21782 0.36178 0.0
C866 C 0.08737 0.26653 0.36583 0.0
C867 C 0.08583 0.30336 0.37055 0.0
C868 C 0.95673 0.25869 0.36374 0.0
C869 C 0.02315 0.26301 0.36891 0.0
C870 C 0.92548 0.23858 0.36422 0.0
C871 C 0.92665 0.20213 0.37011 0.0
C872 C 0.98953 0.24214 0.36877 0.0
C873 C 0.95992 0.18647 0.37494 0.0
C874 C 0.0562 0.24625 0.36522 0.0
C875 C 0.05234 0.31917 0.3741 0.0
N876 N 0.99011 0.20655 0.37405 0.0
N877 N 0.02227 0.29893 0.37309 0.0
H878 H 1.00487 0.64592 0.11758 0.0
H879 H 1.00173 0.85814 0.10682 0.0
H880 H 0.10007 0.70968 0.12269 0.0
H881 H 0.91037 0.79702 0.13105 0.0
H882 H 0.03729 0.80345 0.10583 0.0
H883 H 0.96916 0.70039 0.11578 0.0
C884 C 0.01829 0.67143 0.11813 0.0
C885 C 0.05551 0.67332 0.12032 0.0
C886 C 0.00945 0.80197 0.11128 0.0
C887 C 0.01473 0.73581 0.11814 0.0
C888 C 0.98908 0.83312 0.11172 0.0
C889 C 0.95304 0.83207 0.11904 0.0
C890 C 0.99359 0.76936 0.11784 0.0
C891 C 0.93806 0.79898 0.12531 0.0
C892 C 0.99786 0.7025 0.11723 0.0
C893 C 0.07145 0.70707 0.12104 0.0
N894 N 0.95837 0.76891 0.12449 0.0
N895 N 0.05098 0.73702 0.11987 0.0
H896 H 0.20724 0.21162 0.12116 0.0
H897 H 0.22749 0.41575 0.15827 0.0
H898 H 0.30709 0.25815 0.14613 0.0
H899 H 0.15061 0.38072 0.10011 0.0
H900 H 0.25404 0.35606 0.15766 0.0
H901 H 0.18298 0.27191 0.11562 0.0
C902 C 0.22422 0.23436 0.12507 0.0
C903 C 0.25917 0.2297 0.13432 0.0
C904 C 0.23148 0.36155 0.14491 0.0
C905 C 0.2314 0.29835 0.12865 0.0
C906 C 0.21631 0.39547 0.14536 0.0
C907 C 0.18698 0.40299 0.12919 0.0
C908 C 0.21672 0.3349 0.12857 0.0
C909 C 0.17335 0.37588 0.11281 0.0
C910 C 0.21034 0.26869 0.12198 0.0
C911 C 0.27993 0.26023 0.13912 0.0
N912 N 0.18814 0.34285 0.11307 0.0
N913 N 0.26557 0.29315 0.13662 0.0
H914 H 0.33984 0.48566 0.40114 0.0
H915 H 0.54825 0.45226 0.37983 0.0
H916 H 0.38248 0.38671 0.37115 0.0
H917 H 0.50192 0.55634 0.39206 0.0
H918 H 0.4882 0.4272 0.37675 0.0
H919 H 0.39983 0.51139 0.39976 0.0
C920 C 0.36189 0.46934 0.39444 0.0
C921 C 0.35633 0.43407 0.38631 0.0
C922 C 0.49126 0.45559 0.37981 0.0
C923 C 0.42481 0.46319 0.38447 0.0
C924 C 0.52557 0.46996 0.38138 0.0
C925 C 0.53029 0.50646 0.38639 0.0
C926 C 0.46151 0.47782 0.38351 0.0
C927 C 0.49975 0.52801 0.38835 0.0
C928 C 0.39605 0.48404 0.39345 0.0
C929 C 0.38571 0.41405 0.37763 0.0
N930 N 0.46677 0.51333 0.38722 0.0
N931 N 0.4187 0.42884 0.377 0.0
H932 H 0.31206 0.79977 0.62511 0.0
H933 H 0.27546 0.59179 0.64258 0.0
H934 H 0.20699 0.75364 0.62939 0.0
H935 H 0.37886 0.63418 0.62328 0.0
H936 H 0.2501 0.65152 0.63801 0.0
H937 H 0.33732 0.73974 0.62249 0.0
C938 C 0.29423 0.77712 0.62479 0.0
C939 C 0.25737 0.78177 0.62774 0.0
C940 C 0.27835 0.64779 0.63473 0.0
C941 C 0.28612 0.71309 0.62551 0.0
C942 C 0.29282 0.61377 0.63757 0.0
C943 C 0.32925 0.60821 0.63342 0.0
C944 C 0.30055 0.67645 0.62786 0.0
C945 C 0.3506 0.63746 0.62674 0.0
C946 C 0.30869 0.74282 0.62359 0.0
C947 C 0.23561 0.75136 0.62745 0.0
N948 N 0.33596 0.67038 0.62424 0.0
N949 N 0.25033 0.71837 0.62677 0.0
H950 H 0.96814 0.55952 0.907 0.0
H951 H 0.16424 0.53051 0.85233 0.0
H952 H 0.9991 0.46075 0.86958 0.0
H953 H 0.14336 0.58908 0.9245 0.0
H954 H 0.10169 0.51162 0.85123 0.0
H955 H 0.03033 0.57954 0.90502 0.0
C956 C 0.98784 0.54256 0.89761 0.0
C957 C 0.97863 0.50858 0.88825 0.0
C958 C 0.11093 0.5284 0.86737 0.0
C959 C 0.04937 0.53099 0.88626 0.0
C960 C 0.14652 0.539 0.8681 0.0
C961 C 0.15884 0.56103 0.88868 0.0
C962 C 0.08743 0.54082 0.88695 0.0
C963 C 0.13487 0.5717 0.9085 0.0
C964 C 0.02329 0.55373 0.89689 0.0
C965 C 0.00525 0.48721 0.87689 0.0
N966 N 0.10009 0.56183 0.90698 0.0
N967 N 0.0395 0.49878 0.87616 0.0
H968 H 0.80578 0.79792 0.91707 0.0
H969 H 0.7736 0.58936 0.89424 0.0
H970 H 0.70227 0.75119 0.90341 0.0
H971 H 0.87191 0.63223 0.92498 0.0
H972 H 0.74779 0.64935 0.89544 0.0
H973 H 0.83116 0.73794 0.91966 0.0
C974 C 0.78827 0.77515 0.91508 0.0
C975 C 0.75185 0.77973 0.90984 0.0
C976 C 0.77502 0.64563 0.90193 0.0
C977 C 0.78085 0.71109 0.91219 0.0
C978 C 0.78978 0.61147 0.90104 0.0
C979 C 0.82487 0.60598 0.90948 0.0
C980 C 0.79565 0.67445 0.91113 0.0
C981 C 0.84471 0.63543 0.91828 0.0
C982 C 0.80283 0.7409 0.91638 0.0
C983 C 0.73053 0.74912 0.9073 0.0
N984 N 0.82986 0.66842 0.91884 0.0
N985 N 0.74539 0.71621 0.90821 0.0
H986 H 0.67125 0.52807 0.64746 0.0
H987 H 0.46285 0.56219 0.66736 0.0
H988 H 0.62889 0.62806 0.67567 0.0
H989 H 0.50955 0.45767 0.65857 0.0
H990 H 0.52284 0.58754 0.6701 0.0
H991 H 0.61122 0.50258 0.64925 0.0
C992 C 0.64924 0.54468 0.65383 0.0
C993 C 0.6549 0.58016 0.66137 0.0
C994 C 0.51985 0.55901 0.66789 0.0
C995 C 0.58635 0.55129 0.6637 0.0
C996 C 0.48559 0.54448 0.66653 0.0
C997 C 0.48102 0.50774 0.66253 0.0
C998 C 0.54968 0.53668 0.66498 0.0
C999 C 0.51161 0.48618 0.66145 0.0
C1000 C 0.61506 0.5301 0.65506 0.0
C1001 C 0.62556 0.60055 0.66965 0.0
N1002 N 0.54454 0.50099 0.66233 0.0
N1003 N 0.59252 0.58586 0.67054 0.0
H1004 H 0.80545 0.2579 0.4119 0.0
H1005 H 0.63035 0.37837 0.42219 0.0
H1006 H 0.69937 0.21376 0.41432 0.0
H1007 H 0.73467 0.41932 0.40396 0.0
H1008 H 0.65532 0.3182 0.42426 0.0
H1009 H 0.78023 0.31742 0.41551 0.0
C1010 C 0.77683 0.26063 0.41362 0.0
C1011 C 0.75448 0.23069 0.41253 0.0
C1012 C 0.67274 0.34032 0.41977 0.0
C1013 C 0.72539 0.29912 0.41633 0.0
C1014 C 0.65851 0.37461 0.41849 0.0
C1015 C 0.68053 0.40372 0.41277 0.0
C1016 C 0.70931 0.33519 0.41551 0.0
C1017 C 0.71679 0.39752 0.40827 0.0
C1018 C 0.76245 0.29474 0.41549 0.0
C1019 C 0.71763 0.23603 0.41504 0.0
N1020 N 0.73009 0.36391 0.40981 0.0
N1021 N 0.7042 0.26965 0.41657 0.0
H1022 H 0.84074 0.48651 0.15061 0.0
H1023 H 0.04823 0.45131 0.17464 0.0
H1024 H 0.8825 0.38582 0.17714 0.0
H1025 H 1.00294 0.556 0.16408 0.0
H1026 H 0.98802 0.42667 0.1766 0.0
H1027 H 0.90061 0.51217 0.15441 0.0
C1028 C 0.86258 0.46979 0.15703 0.0
C1029 C 0.8568 0.43404 0.16348 0.0
C1030 C 0.99131 0.45511 0.17422 0.0
C1031 C 0.92512 0.46309 0.16817 0.0
C1032 C 0.02573 0.46927 0.17337 0.0
C1033 C 0.0308 0.50578 0.16897 0.0
C1034 C 0.9618 0.47759 0.17045 0.0
C1035 C 1.00046 0.52764 0.16728 0.0
C1036 C 0.89666 0.48445 0.15943 0.0
C1037 C 0.8859 0.41353 0.17191 0.0
N1038 N 0.96736 0.51316 0.16764 0.0
N1039 N 0.91881 0.4283 0.17396 0.0
H1040 H 0.80173 0.75236 0.61953 0.0
H1041 H 0.67002 0.89711 0.67735 0.0
H1042 H 0.70386 0.72243 0.65805 0.0
H1043 H 0.72555 0.9151 0.60376 0.0
H1044 H 0.68985 0.83466 0.67621 0.0
H1045 H 0.78046 0.81412 0.61758 0.0
C1046 C 0.77544 0.75872 0.62702 0.0
C1047 C 0.75425 0.73234 0.63862 0.0
C1048 C 0.69776 0.85243 0.66042 0.0
C1049 C 0.73066 0.80279 0.63763 0.0
C1050 C 0.68687 0.88802 0.66123 0.0
C1051 C 0.69633 0.91109 0.64066 0.0
C1052 C 0.71883 0.84027 0.6392 0.0
C1053 C 0.71779 0.89803 0.62001 0.0
C1054 C 0.76347 0.79388 0.62607 0.0
C1055 C 0.72067 0.74194 0.64849 0.0
N1056 N 0.72853 0.86349 0.61986 0.0
N1057 N 0.71011 0.77658 0.6482 0.0
H1058 H 0.87876 0.88108 0.87558 0.0
H1059 H 0.99952 0.05518 0.8904 0.0
H1060 H 0.83854 0.98335 0.90079 0.0
H1061 H 0.04375 0.94937 0.88353 0.0
H1062 H 0.93994 0.02997 0.88807 0.0
H1063 H 0.93887 0.90608 0.87384 0.0
C1064 C 0.88267 0.90878 0.88092 0.0
C1065 C 0.85375 0.93022 0.88844 0.0
C1066 C 0.96264 0.01226 0.88687 0.0
C1067 C 0.92227 0.95909 0.88605 0.0
C1068 C 0.99679 0.02663 0.88799 0.0
C1069 C 0.02685 1.00434 0.88739 0.0
C1070 C 0.9583 0.97526 0.885 0.0
C1071 C 0.02143 0.96759 0.88409 0.0
C1072 C 0.91695 0.92302 0.87984 0.0
C1073 C 0.86019 0.96591 0.89504 0.0
N1074 N 0.98778 0.95416 0.88322 0.0
N1075 N 0.89377 0.97929 0.89358 0.0
H1076 H 0.77815 0.09021 0.15053 0.0
H1077 H 0.81462 0.29862 0.13541 0.0
H1078 H 0.87978 0.13161 0.12568 0.0
H1079 H 0.70958 0.25204 0.1378 0.0
H1080 H 0.8401 0.23852 0.13272 0.0
H1081 H 0.75354 0.15058 0.14885 0.0
C1082 C 0.79531 0.11209 0.14494 0.0
C1083 C 0.83097 0.10606 0.13827 0.0
C1084 C 0.81145 0.2416 0.13351 0.0
C1085 C 0.80312 0.17501 0.13607 0.0
C1086 C 0.79689 0.2759 0.13482 0.0
C1087 C 0.75992 0.28044 0.13707 0.0
C1088 C 0.78886 0.2118 0.13471 0.0
C1089 C 0.73827 0.24993 0.1364 0.0
C1090 C 0.78124 0.14647 0.14376 0.0
C1091 C 0.85209 0.13525 0.13099 0.0
N1092 N 0.75306 0.217 0.13562 0.0
N1093 N 0.83789 0.16852 0.13014 0.0
H1094 H 0.50735 0.95603 0.38263 0.0
H1095 H 0.62734 0.1312 0.37411 0.0
H1096 H 0.46244 0.06177 0.38017 0.0
H1097 H 0.66755 0.02782 0.39586 0.0
H1098 H 0.56733 0.10609 0.37078 0.0
H1099 H 0.56677 0.98162 0.38011 0.0
C1100 C 0.50995 0.98467 0.38105 0.0
C1101 C 0.47984 0.00683 0.38185 0.0
C1102 C 0.58925 0.08893 0.37635 0.0
C1103 C 0.54806 0.03634 0.37938 0.0
C1104 C 0.62344 0.10323 0.37836 0.0
C1105 C 0.65231 0.0815 0.3854 0.0
C1106 C 0.584 0.05255 0.38114 0.0
C1107 C 0.64593 0.04548 0.39054 0.0
C1108 C 0.54396 0.99926 0.37984 0.0
C1109 C 0.48489 0.0437 0.37956 0.0
N1110 N 0.61245 0.03208 0.38821 0.0
N1111 N 0.51844 0.05737 0.37871 0.0
H1112 H 0.21509 0.26176 0.43258 0.0
H1113 H 0.34091 0.1153 0.37021 0.0
H1114 H 0.30964 0.29025 0.3892 0.0
H1115 H 0.28919 0.0981 0.44543 0.0
H1116 H 0.32234 0.17809 0.37204 0.0
H1117 H 0.23621 0.19999 0.43442 0.0
C1118 C 0.24075 0.25509 0.42408 0.0
C1119 C 0.26097 0.28102 0.41108 0.0
C1120 C 0.315 0.16043 0.38806 0.0
C1121 C 0.28427 0.21055 0.4119 0.0
C1122 C 0.32513 0.12464 0.38684 0.0
C1123 C 0.31637 0.1017 0.40766 0.0
C1124 C 0.29544 0.17291 0.40996 0.0
C1125 C 0.29635 0.11507 0.42898 0.0
C1126 C 0.2526 0.21993 0.42494 0.0
C1127 C 0.29367 0.27107 0.39986 0.0
N1128 N 0.28635 0.14982 0.42954 0.0
N1129 N 0.30406 0.23638 0.4001 0.0
H1130 H 0.00972 0.95421 0.15765 0.0
H1131 H 0.12891 0.1296 0.17116 0.0
H1132 H 0.96447 0.05966 0.16378 0.0
H1133 H 0.16986 0.02725 0.14679 0.0
H1134 H 0.06899 0.10411 0.17324 0.0
H1135 H 0.06905 0.97999 0.16004 0.0
C1136 C 0.01218 0.9828 0.15992 0.0
C1137 C 0.98192 1.00481 0.16027 0.0
C1138 C 0.09104 0.08726 0.16736 0.0
C1139 C 0.05015 0.03457 0.16269 0.0
C1140 C 0.12519 0.10178 0.16607 0.0
C1141 C 0.15425 0.08045 0.15868 0.0
C1142 C 0.08601 0.05104 0.16148 0.0
C1143 C 0.14809 0.04461 0.15243 0.0
C1144 C 0.04617 0.99751 0.16108 0.0
C1145 C 0.98696 0.04164 0.16341 0.0
N1146 N 0.11464 0.03097 0.15408 0.0
N1147 N 0.02047 0.05541 0.16429 0.0
H1148 H 0.2301 0.91677 0.89954 0.0
H1149 H 0.19244 0.7088 0.91404 0.0
H1150 H 0.12733 0.87664 0.92291 0.0
H1151 H 0.29743 0.75539 0.91592 0.0
H1152 H 0.16674 0.76895 0.91649 0.0
H1153 H 0.2542 0.85633 0.90243 0.0
C1154 C 0.21259 0.89514 0.90506 0.0
C1155 C 0.17676 0.90156 0.91096 0.0
C1156 C 0.1954 0.76585 0.91677 0.0
C1157 C 0.20402 0.83248 0.91453 0.0
C1158 C 0.21005 0.73154 0.91567 0.0
C1159 C 0.24711 0.72709 0.91458 0.0
C1160 C 0.21806 0.79567 0.91653 0.0
C1161 C 0.26869 0.75755 0.9164 0.0
C1162 C 0.22636 0.86072 0.90695 0.0
C1163 C 0.15517 0.87268 0.91818 0.0
N1164 N 0.25388 0.79046 0.91691 0.0
N1165 N 0.1691 0.83932 0.9197 0.0
H1166 H 0.34849 0.97061 0.62922 0.0
H1167 H 0.54846 0.95681 0.67706 0.0
H1168 H 0.3747 0.90838 0.69825 0.0
H1169 H 0.50277 0.05494 0.64819 0.0
H1170 H 0.48785 0.93209 0.68046 0.0
H1171 H 0.40917 0.99515 0.62975 0.0
C1172 C 0.36704 0.96216 0.64441 0.0
C1173 C 0.35671 0.9378 0.66382 0.0
C1174 C 0.49143 0.95914 0.67363 0.0
C1175 C 0.42578 0.96495 0.6643 0.0
C1176 C 0.52588 0.97329 0.67183 0.0
C1177 C 0.53088 0.0079 0.66215 0.0
C1178 C 0.46221 0.97955 0.66513 0.0
C1179 C 0.50052 0.02801 0.65553 0.0
C1180 C 0.40148 0.97614 0.64478 0.0
C1181 C 0.38169 0.92743 0.68308 0.0
N1182 N 0.46766 0.01337 0.65674 0.0
N1183 N 0.41526 0.94086 0.68274 0.0
loop_
_geom_bond_atom_site_label_1
_geom_bond_atom_site_label_2
_geom_bond_distance
_geom_bond_site_symmetry_2
_ccdc_geom_bond_type
Tb0 O3 2.453 . S
Tb0 O4 2.596 . S
Tb0 O5 2.374 . S
Tb0 O13 2.343 . S
Tb0 O15 2.353 . S
Tb0 O17 2.427 . S
Tb0 O18 2.513 . S
C1 O5 1.251 . S
C1 O7 1.263 . S
Tb2 O4 2.343 . S
Tb2 O7 2.353 . S
Tb2 O10 2.427 . S
Tb2 O11 2.513 . S
Tb2 O12 2.453 . S
Tb2 O13 2.596 . S
Tb2 O14 2.374 . S
O3 Tb0 2.453 . S
O3 C19 1.245 . S
O4 Tb0 2.596 . S
O4 Tb2 2.343 . S
O4 C19 1.259 . S
O5 Tb0 2.374 . S
O5 C1 1.251 . S
C6 O10 1.275 . S
C6 O11 1.246 . S
O7 C1 1.263 . S
O7 Tb2 2.353 . S
C8 O12 1.245 . S
C8 O13 1.259 . S
C9 O14 1.250 . S
C9 O15 1.263 . S
O10 Tb2 2.427 . S
O10 C6 1.275 . S
O11 Tb2 2.513 . S
O11 C6 1.246 . S
O12 Tb2 2.453 . S
O12 C8 1.245 . S
O13 Tb0 2.343 . S
O13 Tb2 2.596 . S
O13 C8 1.259 . S
O14 Tb2 2.374 . S
O14 C9 1.250 . S
O15 Tb0 2.353 . S
O15 C9 1.263 . S
C16 O17 1.275 . S
C16 O18 1.246 . S
O17 Tb0 2.427 . S
O17 C16 1.275 . S
O18 Tb0 2.513 . S
O18 C16 1.246 . S
C19 O3 1.245 . S
C19 O4 1.259 . S
Tb20 O23 2.453 . S
Tb20 O24 2.596 . S
Tb20 O25 2.374 . S
Tb20 O33 2.343 . S
Tb20 O35 2.353 . S
Tb20 O37 2.427 . S
Tb20 O38 2.513 . S
C21 O25 1.251 . S
C21 O27 1.263 . S
Tb22 O24 2.343 . S
Tb22 O27 2.353 . S
Tb22 O30 2.427 . S
Tb22 O31 2.513 . S
Tb22 O32 2.453 . S
Tb22 O33 2.596 . S
Tb22 O34 2.374 . S
O23 Tb20 2.453 . S
O23 C39 1.245 . S
O24 Tb20 2.596 . S
O24 Tb22 2.343 . S
O24 C39 1.259 . S
O25 Tb20 2.374 . S
O25 C21 1.251 . S
C26 O30 1.275 . S
C26 O31 1.246 . S
O27 C21 1.263 . S
O27 Tb22 2.353 . S
C28 O32 1.245 . S
C28 O33 1.259 . S
C29 O34 1.250 . S
C29 O35 1.263 . S
O30 Tb22 2.427 . S
O30 C26 1.275 . S
O31 Tb22 2.513 . S
O31 C26 1.246 . S
O32 Tb22 2.453 . S
O32 C28 1.245 . S
O33 Tb20 2.343 . S
O33 Tb22 2.596 . S
O33 C28 1.259 . S
O34 Tb22 2.374 . S
O34 C29 1.250 . S
O35 Tb20 2.353 . S
O35 C29 1.263 . S
C36 O37 1.275 . S
C36 O38 1.246 . S
O37 Tb20 2.427 . S
O37 C36 1.275 . S
O38 Tb20 2.513 . S
O38 C36 1.246 . S
C39 O23 1.245 . S
C39 O24 1.259 . S
Tb40 O43 2.453 . S
Tb40 O44 2.596 . S
Tb40 O45 2.374 . S
Tb40 O53 2.343 . S
Tb40 O55 2.353 . S
Tb40 O57 2.427 . S
Tb40 O58 2.513 . S
C41 O45 1.251 . S
C41 O47 1.263 . S
Tb42 O44 2.343 . S
Tb42 O47 2.353 . S
Tb42 O50 2.427 . S
Tb42 O51 2.513 . S
Tb42 O52 2.453 . S
Tb42 O53 2.596 . S
Tb42 O54 2.374 . S
O43 Tb40 2.453 . S
O43 C59 1.245 . S
O44 Tb40 2.596 . S
O44 Tb42 2.343 . S
O44 C59 1.259 . S
O45 Tb40 2.374 . S
O45 C41 1.251 . S
C46 O50 1.275 . S
C46 O51 1.246 . S
O47 C41 1.263 . S
O47 Tb42 2.353 . S
C48 O52 1.245 . S
C48 O53 1.259 . S
C49 O54 1.250 . S
C49 O55 1.263 . S
O50 Tb42 2.427 . S
O50 C46 1.275 . S
O51 Tb42 2.513 . S
O51 C46 1.246 . S
O52 Tb42 2.453 . S
O52 C48 1.245 . S
O53 Tb40 2.343 . S
O53 Tb42 2.596 . S
O53 C48 1.259 . S
O54 Tb42 2.374 . S
O54 C49 1.250 . S
O55 Tb40 2.353 . S
O55 C49 1.263 . S
C56 O57 1.275 . S
C56 O58 1.246 . S
O57 Tb40 2.427 . S
O57 C56 1.275 . S
O58 Tb40 2.513 . S
O58 C56 1.246 . S
C59 O43 1.245 . S
C59 O44 1.259 . S
Tb60 O63 2.453 . S
Tb60 O64 2.596 . S
Tb60 O65 2.374 . S
Tb60 O73 2.343 . S
Tb60 O75 2.353 . S
Tb60 O77 2.427 . S
Tb60 O78 2.513 . S
C61 O65 1.251 . S
C61 O67 1.263 . S
Tb62 O64 2.343 . S
Tb62 O67 2.353 . S
Tb62 O70 2.427 . S
Tb62 O71 2.513 . S
Tb62 O72 2.453 . S
Tb62 O73 2.596 . S
Tb62 O74 2.374 . S
O63 Tb60 2.453 . S
O63 C79 1.245 . S
O64 Tb60 2.596 . S
O64 Tb62 2.343 . S
O64 C79 1.259 . S
O65 Tb60 2.374 . S
O65 C61 1.251 . S
C66 O70 1.275 . S
C66 O71 1.246 . S
O67 C61 1.263 . S
O67 Tb62 2.353 . S
C68 O72 1.245 . S
C68 O73 1.259 . S
C69 O74 1.250 . S
C69 O75 1.263 . S
O70 Tb62 2.427 . S
O70 C66 1.275 . S
O71 Tb62 2.513 . S
O71 C66 1.246 . S
O72 Tb62 2.453 . S
O72 C68 1.245 . S
O73 Tb60 2.343 . S
O73 Tb62 2.596 . S
O73 C68 1.259 . S
O74 Tb62 2.374 . S
O74 C69 1.250 . S
O75 Tb60 2.353 . S
O75 C69 1.263 . S
C76 O77 1.275 . S
C76 O78 1.246 . S
O77 Tb60 2.427 . S
O77 C76 1.275 . S
O78 Tb60 2.513 . S
O78 C76 1.246 . S
C79 O63 1.245 . S
C79 O64 1.259 . S
Tb80 O83 2.453 . S
Tb80 O84 2.596 . S
Tb80 O85 2.374 . S
Tb80 O93 2.343 . S
Tb80 O95 2.353 . S
Tb80 O97 2.427 . S
Tb80 O98 2.513 . S
C81 O85 1.251 . S
C81 O87 1.263 . S
Tb82 O84 2.343 . S
Tb82 O87 2.353 . S
Tb82 O90 2.427 . S
Tb82 O91 2.513 . S
Tb82 O92 2.453 . S
Tb82 O93 2.596 . S
Tb82 O94 2.374 . S
O83 Tb80 2.453 . S
O83 C99 1.245 . S
O84 Tb80 2.596 . S
O84 Tb82 2.343 . S
O84 C99 1.259 . S
O85 Tb80 2.374 . S
O85 C81 1.251 . S
C86 O90 1.275 . S
C86 O91 1.246 . S
O87 C81 1.263 . S
O87 Tb82 2.353 . S
C88 O92 1.245 . S
C88 O93 1.259 . S
C89 O94 1.250 . S
C89 O95 1.263 . S
O90 Tb82 2.427 . S
O90 C86 1.275 . S
O91 Tb82 2.513 . S
O91 C86 1.246 . S
O92 Tb82 2.453 . S
O92 C88 1.245 . S
O93 Tb80 2.343 . S
O93 Tb82 2.596 . S
O93 C88 1.259 . S
O94 Tb82 2.374 . S
O94 C89 1.250 . S
O95 Tb80 2.353 . S
O95 C89 1.263 . S
C96 O97 1.275 . S
C96 O98 1.246 . S
O97 Tb80 2.427 . S
O97 C96 1.275 . S
O98 Tb80 2.513 . S
O98 C96 1.246 . S
C99 O83 1.245 . S
C99 O84 1.259 . S
Tb100 O103 2.453 . S
Tb100 O104 2.596 . S
Tb100 O105 2.374 . S
Tb100 O113 2.343 . S
Tb100 O115 2.353 . S
Tb100 O117 2.427 . S
Tb100 O118 2.513 . S
C101 O105 1.251 . S
C101 O107 1.263 . S
Tb102 O104 2.343 . S
Tb102 O107 2.353 . S
Tb102 O110 2.427 . S
Tb102 O111 2.513 . S
Tb102 O112 2.453 . S
Tb102 O113 2.596 . S
Tb102 O114 2.374 . S
O103 Tb100 2.453 . S
O103 C119 1.245 . S
O104 Tb100 2.596 . S
O104 Tb102 2.343 . S
O104 C119 1.259 . S
O105 Tb100 2.374 . S
O105 C101 1.251 . S
C106 O110 1.275 . S
C106 O111 1.246 . S
O107 C101 1.263 . S
O107 Tb102 2.353 . S
C108 O112 1.245 . S
C108 O113 1.259 . S
C109 O114 1.250 . S
C109 O115 1.263 . S
O110 Tb102 2.427 . S
O110 C106 1.275 . S
O111 Tb102 2.513 . S
O111 C106 1.246 . S
O112 Tb102 2.453 . S
O112 C108 1.245 . S
O113 Tb100 2.343 . S
O113 Tb102 2.596 . S
O113 C108 1.259 . S
O114 Tb102 2.374 . S
O114 C109 1.250 . S
O115 Tb100 2.353 . S
O115 C109 1.263 . S
C116 O117 1.275 . S
C116 O118 1.246 . S
O117 Tb100 2.427 . S
O117 C116 1.275 . S
O118 Tb100 2.513 . S
O118 C116 1.246 . S
C119 O103 1.245 . S
C119 O104 1.259 . S
Tb120 O123 2.453 . S
Tb120 O124 2.596 . S
Tb120 O125 2.374 . S
Tb120 O133 2.343 . S
Tb120 O135 2.353 . S
Tb120 O137 2.427 . S
Tb120 O138 2.513 . S
C121 O125 1.251 . S
C121 O127 1.263 . S
Tb122 O124 2.343 . S
Tb122 O127 2.353 . S
Tb122 O130 2.427 . S
Tb122 O131 2.513 . S
Tb122 O132 2.453 . S
Tb122 O133 2.596 . S
Tb122 O134 2.374 . S
O123 Tb120 2.453 . S
O123 C139 1.245 . S
O124 Tb120 2.596 . S
O124 Tb122 2.343 . S
O124 C139 1.259 . S
O125 Tb120 2.374 . S
O125 C121 1.251 . S
C126 O130 1.275 . S
C126 O131 1.246 . S
O127 C121 1.263 . S
O127 Tb122 2.353 . S
C128 O132 1.245 . S
C128 O133 1.259 . S
C129 O134 1.250 . S
C129 O135 1.263 . S
O130 Tb122 2.427 . S
O130 C126 1.275 . S
O131 Tb122 2.513 . S
O131 C126 1.246 . S
O132 Tb122 2.453 . S
O132 C128 1.245 . S
O133 Tb120 2.343 . S
O133 Tb122 2.596 . S
O133 C128 1.259 . S
O134 Tb122 2.374 . S
O134 C129 1.250 . S
O135 Tb120 2.353 . S
O135 C129 1.263 . S
C136 O137 1.275 . S
C136 O138 1.246 . S
O137 Tb120 2.427 . S
O137 C136 1.275 . S
O138 Tb120 2.513 . S
O138 C136 1.246 . S
C139 O123 1.245 . S
C139 O124 1.259 . S
Tb140 O143 2.453 . S
Tb140 O144 2.596 . S
Tb140 O145 2.374 . S
Tb140 O153 2.343 . S
Tb140 O155 2.353 . S
Tb140 O157 2.427 . S
Tb140 O158 2.513 . S
C141 O145 1.251 . S
C141 O147 1.263 . S
Tb142 O144 2.343 . S
Tb142 O147 2.353 . S
Tb142 O150 2.427 . S
Tb142 O151 2.513 . S
Tb142 O152 2.453 . S
Tb142 O153 2.596 . S
Tb142 O154 2.374 . S
O143 Tb140 2.453 . S
O143 C159 1.245 . S
O144 Tb140 2.596 . S
O144 Tb142 2.343 . S
O144 C159 1.259 . S
O145 Tb140 2.374 . S
O145 C141 1.251 . S
C146 O150 1.275 . S
C146 O151 1.246 . S
O147 C141 1.263 . S
O147 Tb142 2.353 . S
C148 O152 1.245 . S
C148 O153 1.259 . S
C149 O154 1.250 . S
C149 O155 1.263 . S
O150 Tb142 2.427 . S
O150 C146 1.275 . S
O151 Tb142 2.513 . S
O151 C146 1.246 . S
O152 Tb142 2.453 . S
O152 C148 1.245 . S
O153 Tb140 2.343 . S
O153 Tb142 2.596 . S
O153 C148 1.259 . S
O154 Tb142 2.374 . S
O154 C149 1.250 . S
O155 Tb140 2.353 . S
O155 C149 1.263 . S
C156 O157 1.275 . S
C156 O158 1.246 . S
O157 Tb140 2.427 . S
O157 C156 1.275 . S
O158 Tb140 2.513 . S
O158 C156 1.246 . S
C159 O143 1.245 . S
C159 O144 1.259 . S
Tb160 O163 2.453 . S
Tb160 O164 2.596 . S
Tb160 O165 2.374 . S
Tb160 O173 2.343 . S
Tb160 O175 2.353 . S
Tb160 O177 2.427 . S
Tb160 O178 2.513 . S
C161 O165 1.251 . S
C161 O167 1.263 . S
Tb162 O164 2.343 . S
Tb162 O167 2.353 . S
Tb162 O170 2.427 . S
Tb162 O171 2.513 . S
Tb162 O172 2.453 . S
Tb162 O173 2.596 . S
Tb162 O174 2.374 . S
O163 Tb160 2.453 . S
O163 C179 1.245 . S
O164 Tb160 2.596 . S
O164 Tb162 2.343 . S
O164 C179 1.259 . S
O165 Tb160 2.374 . S
O165 C161 1.251 . S
C166 O170 1.275 . S
C166 O171 1.246 . S
O167 C161 1.263 . S
O167 Tb162 2.353 . S
C168 O172 1.245 . S
C168 O173 1.259 . S
C169 O174 1.250 . S
C169 O175 1.263 . S
O170 Tb162 2.427 . S
O170 C166 1.275 . S
O171 Tb162 2.513 . S
O171 C166 1.246 . S
O172 Tb162 2.453 . S
O172 C168 1.245 . S
O173 Tb160 2.343 . S
O173 Tb162 2.596 . S
O173 C168 1.259 . S
O174 Tb162 2.374 . S
O174 C169 1.250 . S
O175 Tb160 2.353 . S
O175 C169 1.263 . S
C176 O177 1.275 . S
C176 O178 1.246 . S
O177 Tb160 2.427 . S
O177 C176 1.275 . S
O178 Tb160 2.513 . S
O178 C176 1.246 . S
C179 O163 1.245 . S
C179 O164 1.259 . S
Tb180 O183 2.453 . S
Tb180 O184 2.597 1_545 S
Tb180 O185 2.374 . S
Tb180 O193 2.343 . S
Tb180 O195 2.353 . S
Tb180 O197 2.427 . S
Tb180 O198 2.513 . S
C181 O185 1.251 1_565 S
C181 O187 1.263 . S
Tb182 O184 2.342 . S
Tb182 O187 2.353 . S
Tb182 O190 2.427 . S
Tb182 O191 2.513 . S
Tb182 O192 2.453 . S
Tb182 O193 2.596 1_565 S
Tb182 O194 2.374 1_565 S
O183 Tb180 2.453 . S
O183 C199 1.245 . S
O184 Tb180 2.597 1_565 S
O184 Tb182 2.342 . S
O184 C199 1.260 1_565 S
O185 Tb180 2.374 . S
O185 C181 1.251 1_545 S
C186 O190 1.275 . S
C186 O191 1.246 . S
O187 C181 1.263 . S
O187 Tb182 2.353 . S
C188 O192 1.245 1_545 S
C188 O193 1.259 . S
C189 O194 1.250 . S
C189 O195 1.263 . S
O190 Tb182 2.427 . S
O190 C186 1.275 . S
O191 Tb182 2.513 . S
O191 C186 1.246 . S
O192 Tb182 2.453 . S
O192 C188 1.245 1_565 S
O193 Tb180 2.343 . S
O193 Tb182 2.596 1_545 S
O193 C188 1.259 . S
O194 Tb182 2.374 1_545 S
O194 C189 1.250 . S
O195 Tb180 2.353 . S
O195 C189 1.263 . S
C196 O197 1.275 . S
C196 O198 1.246 . S
O197 Tb180 2.427 . S
O197 C196 1.275 . S
O198 Tb180 2.513 . S
O198 C196 1.246 . S
C199 O183 1.245 . S
C199 O184 1.260 1_545 S
Tb200 O203 2.453 . S
Tb200 O204 2.596 . S
Tb200 O205 2.374 . S
Tb200 O213 2.343 . S
Tb200 O215 2.353 . S
Tb200 O217 2.427 . S
Tb200 O218 2.513 . S
C201 O205 1.251 . S
C201 O207 1.263 . S
Tb202 O204 2.343 . S
Tb202 O207 2.353 . S
Tb202 O210 2.427 . S
Tb202 O211 2.513 . S
Tb202 O212 2.453 . S
Tb202 O213 2.596 . S
Tb202 O214 2.374 . S
O203 Tb200 2.453 . S
O203 C219 1.245 . S
O204 Tb200 2.596 . S
O204 Tb202 2.343 . S
O204 C219 1.259 . S
O205 Tb200 2.374 . S
O205 C201 1.251 . S
C206 O210 1.275 . S
C206 O211 1.246 . S
O207 C201 1.263 . S
O207 Tb202 2.353 . S
C208 O212 1.245 . S
C208 O213 1.259 . S
C209 O214 1.250 . S
C209 O215 1.263 . S
O210 Tb202 2.427 . S
O210 C206 1.275 . S
O211 Tb202 2.513 . S
O211 C206 1.246 . S
O212 Tb202 2.453 . S
O212 C208 1.245 . S
O213 Tb200 2.343 . S
O213 Tb202 2.596 . S
O213 C208 1.259 . S
O214 Tb202 2.374 . S
O214 C209 1.250 . S
O215 Tb200 2.353 . S
O215 C209 1.263 . S
C216 O217 1.275 . S
C216 O218 1.246 . S
O217 Tb200 2.427 . S
O217 C216 1.275 . S
O218 Tb200 2.513 . S
O218 C216 1.246 . S
C219 O203 1.245 . S
C219 O204 1.259 . S
Tb220 O223 2.453 . S
Tb220 O224 2.597 1_565 S
Tb220 O225 2.374 . S
Tb220 O233 2.343 . S
Tb220 O235 2.353 . S
Tb220 O237 2.427 . S
Tb220 O238 2.513 . S
C221 O225 1.251 1_545 S
C221 O227 1.263 . S
Tb222 O224 2.342 . S
Tb222 O227 2.353 . S
Tb222 O230 2.427 . S
Tb222 O231 2.513 . S
Tb222 O232 2.453 . S
Tb222 O233 2.596 1_545 S
Tb222 O234 2.374 1_545 S
O223 Tb220 2.453 . S
O223 C239 1.245 . S
O224 Tb220 2.597 1_545 S
O224 Tb222 2.342 . S
O224 C239 1.260 1_545 S
O225 Tb220 2.374 . S
O225 C221 1.251 1_565 S
C226 O230 1.275 . S
C226 O231 1.246 . S
O227 C221 1.263 . S
O227 Tb222 2.353 . S
C228 O232 1.245 1_565 S
C228 O233 1.259 . S
C229 O234 1.250 . S
C229 O235 1.263 . S
O230 Tb222 2.427 . S
O230 C226 1.275 . S
O231 Tb222 2.513 . S
O231 C226 1.246 . S
O232 Tb222 2.453 . S
O232 C228 1.245 1_545 S
O233 Tb220 2.343 . S
O233 Tb222 2.596 1_565 S
O233 C228 1.259 . S
O234 Tb222 2.374 1_565 S
O234 C229 1.250 . S
O235 Tb220 2.353 . S
O235 C229 1.263 . S
C236 O237 1.275 . S
C236 O238 1.246 . S
O237 Tb220 2.427 . S
O237 C236 1.275 . S
O238 Tb220 2.513 . S
O238 C236 1.246 . S
C239 O223 1.245 . S
C239 O224 1.260 1_565 S
Tb240 O243 2.453 . S
Tb240 O244 2.596 . S
Tb240 O245 2.374 . S
Tb240 O253 2.343 . S
Tb240 O255 2.353 . S
Tb240 O257 2.427 . S
Tb240 O258 2.513 . S
C241 O245 1.251 . S
C241 O247 1.263 . S
Tb242 O244 2.343 . S
Tb242 O247 2.353 . S
Tb242 O250 2.427 . S
Tb242 O251 2.513 . S
Tb242 O252 2.453 . S
Tb242 O253 2.596 . S
Tb242 O254 2.374 . S
O243 Tb240 2.453 . S
O243 C259 1.245 . S
O244 Tb240 2.596 . S
O244 Tb242 2.343 . S
O244 C259 1.259 . S
O245 Tb240 2.374 . S
O245 C241 1.251 . S
C246 O250 1.275 . S
C246 O251 1.246 . S
O247 C241 1.263 . S
O247 Tb242 2.353 . S
C248 O252 1.245 . S
C248 O253 1.259 . S
C249 O254 1.250 . S
C249 O255 1.263 . S
O250 Tb242 2.427 . S
O250 C246 1.275 . S
O251 Tb242 2.513 . S
O251 C246 1.246 . S
O252 Tb242 2.453 . S
O252 C248 1.245 . S
O253 Tb240 2.343 . S
O253 Tb242 2.596 . S
O253 C248 1.259 . S
O254 Tb242 2.374 . S
O254 C249 1.250 . S
O255 Tb240 2.353 . S
O255 C249 1.263 . S
C256 O257 1.275 . S
C256 O258 1.246 . S
O257 Tb240 2.427 . S
O257 C256 1.275 . S
O258 Tb240 2.513 . S
O258 C256 1.246 . S
C259 O243 1.245 . S
C259 O244 1.259 . S
Tb260 O263 2.453 . S
Tb260 O264 2.596 1_545 S
Tb260 O265 2.374 1_545 S
Tb260 O273 2.342 . S
Tb260 O275 2.353 . S
Tb260 O277 2.427 . S
Tb260 O278 2.513 . S
C261 O265 1.251 . S
C261 O267 1.263 . S
Tb262 O264 2.343 . S
Tb262 O267 2.353 . S
Tb262 O270 2.427 . S
Tb262 O271 2.513 . S
Tb262 O272 2.453 . S
Tb262 O273 2.597 1_565 S
Tb262 O274 2.374 . S
O263 Tb260 2.453 . S
O263 C279 1.245 1_545 S
O264 Tb260 2.596 1_565 S
O264 Tb262 2.343 . S
O264 C279 1.259 . S
O265 Tb260 2.374 1_565 S
O265 C261 1.251 . S
C266 O270 1.275 . S
C266 O271 1.246 . S
O267 C261 1.263 . S
O267 Tb262 2.353 . S
C268 O272 1.245 . S
C268 O273 1.260 1_565 S
C269 O274 1.250 1_545 S
C269 O275 1.263 . S
O270 Tb262 2.427 . S
O270 C266 1.275 . S
O271 Tb262 2.513 . S
O271 C266 1.246 . S
O272 Tb262 2.453 . S
O272 C268 1.245 . S
O273 Tb260 2.342 . S
O273 Tb262 2.597 1_545 S
O273 C268 1.260 1_545 S
O274 Tb262 2.374 . S
O274 C269 1.250 1_565 S
O275 Tb260 2.353 . S
O275 C269 1.263 . S
C276 O277 1.275 . S
C276 O278 1.246 . S
O277 Tb260 2.427 . S
O277 C276 1.275 . S
O278 Tb260 2.513 . S
O278 C276 1.246 . S
C279 O263 1.245 1_565 S
C279 O264 1.259 . S
Tb280 O283 2.453 . S
Tb280 O284 2.596 . S
Tb280 O285 2.374 . S
Tb280 O293 2.343 . S
Tb280 O295 2.353 . S
Tb280 O297 2.427 . S
Tb280 O298 2.513 . S
C281 O285 1.251 . S
C281 O287 1.263 . S
Tb282 O284 2.343 . S
Tb282 O287 2.353 . S
Tb282 O290 2.427 . S
Tb282 O291 2.513 . S
Tb282 O292 2.453 . S
Tb282 O293 2.596 . S
Tb282 O294 2.374 . S
O283 Tb280 2.453 . S
O283 C299 1.245 . S
O284 Tb280 2.596 . S
O284 Tb282 2.343 . S
O284 C299 1.259 . S
O285 Tb280 2.374 . S
O285 C281 1.251 . S
C286 O290 1.275 . S
C286 O291 1.246 . S
O287 C281 1.263 . S
O287 Tb282 2.353 . S
C288 O292 1.245 . S
C288 O293 1.259 . S
C289 O294 1.250 . S
C289 O295 1.263 . S
O290 Tb282 2.427 . S
O290 C286 1.275 . S
O291 Tb282 2.513 . S
O291 C286 1.246 . S
O292 Tb282 2.453 . S
O292 C288 1.245 . S
O293 Tb280 2.343 . S
O293 Tb282 2.596 . S
O293 C288 1.259 . S
O294 Tb282 2.374 . S
O294 C289 1.250 . S
O295 Tb280 2.353 . S
O295 C289 1.263 . S
C296 O297 1.275 . S
C296 O298 1.246 . S
O297 Tb280 2.427 . S
O297 C296 1.275 . S
O298 Tb280 2.513 . S
O298 C296 1.246 . S
C299 O283 1.245 . S
C299 O284 1.259 . S
Tb300 O303 2.453 . S
Tb300 O304 2.596 1_565 S
Tb300 O305 2.374 1_565 S
Tb300 O313 2.342 . S
Tb300 O315 2.353 . S
Tb300 O317 2.427 . S
Tb300 O318 2.513 . S
C301 O305 1.251 . S
C301 O307 1.263 . S
Tb302 O304 2.343 . S
Tb302 O307 2.353 . S
Tb302 O310 2.427 . S
Tb302 O311 2.513 . S
Tb302 O312 2.453 . S
Tb302 O313 2.597 1_545 S
Tb302 O314 2.374 . S
O303 Tb300 2.453 . S
O303 C319 1.245 1_565 S
O304 Tb300 2.596 1_545 S
O304 Tb302 2.343 . S
O304 C319 1.259 . S
O305 Tb300 2.374 1_545 S
O305 C301 1.251 . S
C306 O310 1.275 . S
C306 O311 1.246 . S
O307 C301 1.263 . S
O307 Tb302 2.353 . S
C308 O312 1.245 . S
C308 O313 1.260 1_545 S
C309 O314 1.250 1_565 S
C309 O315 1.263 . S
O310 Tb302 2.427 . S
O310 C306 1.275 . S
O311 Tb302 2.513 . S
O311 C306 1.246 . S
O312 Tb302 2.453 . S
O312 C308 1.245 . S
O313 Tb300 2.342 . S
O313 Tb302 2.597 1_565 S
O313 C308 1.260 1_565 S
O314 Tb302 2.374 . S
O314 C309 1.250 1_545 S
O315 Tb300 2.353 . S
O315 C309 1.263 . S
C316 O317 1.275 . S
C316 O318 1.246 . S
O317 Tb300 2.427 . S
O317 C316 1.275 . S
O318 Tb300 2.513 . S
O318 C316 1.246 . S
C319 O303 1.245 1_545 S
C319 O304 1.259 . S
H320 C326 0.930 . S
H321 C330 0.930 . S
H322 C335 0.929 . S
H323 C333 0.929 . S
H324 C328 0.929 . S
H325 C334 0.929 . S
C326 H320 0.930 . S
C326 C327 1.367 . S
C326 C334 1.378 . S
C327 C326 1.367 . S
C327 C335 1.433 . S
C328 H324 0.929 . S
C328 C330 1.378 . S
C328 C332 1.350 . S
C329 C332 1.463 . S
C329 C334 1.350 . S
C329 N337 1.427 . S
C330 H321 0.930 . S
C330 C328 1.378 . S
C330 C331 1.367 . S
C331 C330 1.367 . S
C331 C333 1.433 . S
C332 C328 1.350 . S
C332 C329 1.463 . S
C332 N336 1.427 . S
C333 H323 0.929 . S
C333 C331 1.433 . S
C333 N336 1.384 . S
C334 H325 0.929 . S
C334 C326 1.378 . S
C334 C329 1.350 . S
C335 H322 0.929 . S
C335 C327 1.433 . S
C335 N337 1.384 . S
N336 C332 1.427 . S
N336 C333 1.384 . S
N337 C329 1.427 . S
N337 C335 1.384 . S
H338 C344 0.930 . S
H339 C348 0.930 . S
H340 C353 0.929 . S
H341 C351 0.929 . S
H342 C346 0.929 . S
H343 C352 0.929 . S
C344 H338 0.930 . S
C344 C345 1.367 . S
C344 C352 1.378 . S
C345 C344 1.367 . S
C345 C353 1.433 . S
C346 H342 0.929 . S
C346 C348 1.378 . S
C346 C350 1.350 . S
C347 C350 1.463 . S
C347 C352 1.350 . S
C347 N355 1.427 . S
C348 H339 0.930 . S
C348 C346 1.378 . S
C348 C349 1.367 . S
C349 C348 1.367 . S
C349 C351 1.433 . S
C350 C346 1.350 . S
C350 C347 1.463 . S
C350 N354 1.427 . S
C351 H341 0.929 . S
C351 C349 1.433 . S
C351 N354 1.384 . S
C352 H343 0.929 . S
C352 C344 1.378 . S
C352 C347 1.350 . S
C353 H340 0.929 . S
C353 C345 1.433 . S
C353 N355 1.384 . S
N354 C350 1.427 . S
N354 C351 1.384 . S
N355 C347 1.427 . S
N355 C353 1.384 . S
H356 C362 0.930 . S
H357 C366 0.930 . S
H358 C371 0.929 . S
H359 C369 0.929 . S
H360 C364 0.929 . S
H361 C370 0.929 . S
C362 H356 0.930 . S
C362 C363 1.367 . S
C362 C370 1.378 . S
C363 C362 1.367 . S
C363 C371 1.433 . S
C364 H360 0.929 . S
C364 C366 1.378 . S
C364 C368 1.350 . S
C365 C368 1.463 . S
C365 C370 1.350 . S
C365 N373 1.427 . S
C366 H357 0.930 . S
C366 C364 1.378 . S
C366 C367 1.367 . S
C367 C366 1.367 . S
C367 C369 1.433 . S
C368 C364 1.350 . S
C368 C365 1.463 . S
C368 N372 1.427 . S
C369 H359 0.929 . S
C369 C367 1.433 . S
C369 N372 1.384 . S
C370 H361 0.929 . S
C370 C362 1.378 . S
C370 C365 1.350 . S
C371 H358 0.929 . S
C371 C363 1.433 . S
C371 N373 1.384 . S
N372 C368 1.427 . S
N372 C369 1.384 . S
N373 C365 1.427 . S
N373 C371 1.384 . S
H374 C380 0.930 . S
H375 C384 0.930 . S
H376 C389 0.929 . S
H377 C387 0.929 . S
H378 C382 0.929 1_556 S
H379 C388 0.929 1_554 S
C380 H374 0.930 . S
C380 C381 1.367 . S
C380 C388 1.378 . S
C381 C380 1.367 . S
C381 C389 1.433 . S
C382 H378 0.929 1_554 S
C382 C384 1.378 . S
C382 C386 1.350 . S
C383 C386 1.463 1_656 S
C383 C388 1.350 . S
C383 N391 1.427 . S
C384 H375 0.930 . S
C384 C382 1.378 . S
C384 C385 1.367 . S
C385 C384 1.367 . S
C385 C387 1.433 . S
C386 C382 1.350 . S
C386 C383 1.463 1_454 S
C386 N390 1.427 . S
C387 H377 0.929 . S
C387 C385 1.433 . S
C387 N390 1.384 . S
C388 H379 0.929 1_556 S
C388 C380 1.378 . S
C388 C383 1.350 . S
C389 H376 0.929 . S
C389 C381 1.433 . S
C389 N391 1.384 . S
N390 C386 1.427 . S
N390 C387 1.384 . S
N391 C383 1.427 . S
N391 C389 1.384 . S
H392 C398 0.930 . S
H393 C402 0.930 . S
H394 C407 0.929 . S
H395 C405 0.929 . S
H396 C400 0.929 . S
H397 C406 0.929 . S
C398 H392 0.930 . S
C398 C399 1.367 . S
C398 C406 1.378 . S
C399 C398 1.367 . S
C399 C407 1.433 . S
C400 H396 0.929 . S
C400 C402 1.378 . S
C400 C404 1.350 . S
C401 C404 1.463 . S
C401 C406 1.350 . S
C401 N409 1.427 . S
C402 H393 0.930 . S
C402 C400 1.378 . S
C402 C403 1.367 . S
C403 C402 1.367 . S
C403 C405 1.433 . S
C404 C400 1.350 . S
C404 C401 1.463 . S
C404 N408 1.427 . S
C405 H395 0.929 . S
C405 C403 1.433 . S
C405 N408 1.384 . S
C406 H397 0.929 . S
C406 C398 1.378 . S
C406 C401 1.350 . S
C407 H394 0.929 . S
C407 C399 1.433 . S
C407 N409 1.384 . S
N408 C404 1.427 . S
N408 C405 1.384 . S
N409 C401 1.427 . S
N409 C407 1.384 . S
H410 C416 0.930 . S
H411 C420 0.930 . S
H412 C425 0.929 . S
H413 C423 0.929 . S
H414 C418 0.929 . S
H415 C424 0.929 . S
C416 H410 0.930 . S
C416 C417 1.367 . S
C416 C424 1.378 . S
C417 C416 1.367 . S
C417 C425 1.433 . S
C418 H414 0.929 . S
C418 C420 1.378 . S
C418 C422 1.350 . S
C419 C422 1.463 . S
C419 C424 1.350 . S
C419 N427 1.427 . S
C420 H411 0.930 . S
C420 C418 1.378 . S
C420 C421 1.367 . S
C421 C420 1.367 . S
C421 C423 1.433 . S
C422 C418 1.350 . S
C422 C419 1.463 . S
C422 N426 1.427 . S
C423 H413 0.929 . S
C423 C421 1.433 . S
C423 N426 1.384 . S
C424 H415 0.929 . S
C424 C416 1.378 . S
C424 C419 1.350 . S
C425 H412 0.929 . S
C425 C417 1.433 . S
C425 N427 1.384 . S
N426 C422 1.427 . S
N426 C423 1.384 . S
N427 C419 1.427 . S
N427 C425 1.384 . S
H428 C434 0.930 . S
H429 C438 0.930 . S
H430 C443 0.927 1_545 S
H431 C441 0.927 1_565 S
H432 C436 0.929 . S
H433 C442 0.929 . S
C434 H428 0.930 . S
C434 C435 1.367 . S
C434 C442 1.378 1_554 S
C435 C434 1.367 . S
C435 C443 1.433 . S
C436 H432 0.929 . S
C436 C438 1.378 1_554 S
C436 C440 1.350 1_554 S
C437 C440 1.463 1_664 S
C437 C442 1.350 1_554 S
C437 N445 1.427 1_565 S
C438 H429 0.930 . S
C438 C436 1.378 1_556 S
C438 C439 1.367 . S
C439 C438 1.367 . S
C439 C441 1.433 . S
C440 C436 1.350 1_556 S
C440 C437 1.463 1_446 S
C440 N444 1.427 1_545 S
C441 H431 0.927 1_545 S
C441 C439 1.433 . S
C441 N444 1.384 1_545 S
C442 H433 0.929 . S
C442 C434 1.378 1_556 S
C442 C437 1.350 1_556 S
C443 H430 0.927 1_565 S
C443 C435 1.433 . S
C443 N445 1.384 1_565 S
N444 C440 1.427 1_565 S
N444 C441 1.384 1_565 S
N445 C437 1.427 1_545 S
N445 C443 1.384 1_545 S
H446 C452 0.930 . S
H447 C456 0.930 . S
H448 C461 0.912 1_545 S
H449 C459 0.912 1_565 S
H450 C454 0.929 . S
H451 C460 0.929 . S
C452 H446 0.930 . S
C452 C453 1.367 . S
C452 C460 1.378 . S
C453 C452 1.367 . S
C453 C461 1.465 . S
C454 H450 0.929 . S
C454 C456 1.378 . S
C454 C458 1.350 . S
C455 C458 1.463 1_565 S
C455 C460 1.350 . S
C455 N463 1.427 1_565 S
C456 H447 0.930 . S
C456 C454 1.378 . S
C456 C457 1.367 . S
C457 C456 1.367 . S
C457 C459 1.465 . S
C458 C454 1.350 . S
C458 C455 1.463 1_545 S
C458 N462 1.427 1_545 S
C459 H449 0.912 1_545 S
C459 C457 1.465 . S
C459 N462 1.371 1_545 S
C460 H451 0.929 . S
C460 C452 1.378 . S
C460 C455 1.350 . S
C461 H448 0.912 1_565 S
C461 C453 1.465 . S
C461 N463 1.371 1_565 S
N462 C458 1.427 1_565 S
N462 C459 1.371 1_565 S
N463 C455 1.427 1_545 S
N463 C461 1.371 1_545 S
H464 C470 0.930 . S
H465 C474 0.930 . S
H466 C479 0.929 . S
H467 C477 0.929 . S
H468 C472 0.929 . S
H469 C478 0.929 . S
C470 H464 0.930 . S
C470 C471 1.367 . S
C470 C478 1.378 1_556 S
C471 C470 1.367 . S
C471 C479 1.433 . S
C472 H468 0.929 . S
C472 C474 1.378 . S
C472 C476 1.350 . S
C473 C476 1.463 . S
C473 C478 1.350 . S
C473 N481 1.427 . S
C474 H465 0.930 . S
C474 C472 1.378 . S
C474 C475 1.367 . S
C475 C474 1.367 . S
C475 C477 1.433 . S
C476 C472 1.350 . S
C476 C473 1.463 . S
C476 N480 1.427 . S
C477 H467 0.929 . S
C477 C475 1.433 . S
C477 N480 1.384 . S
C478 H469 0.929 . S
C478 C470 1.378 1_554 S
C478 C473 1.350 . S
C479 H466 0.929 . S
C479 C471 1.433 . S
C479 N481 1.384 1_556 S
N480 C476 1.427 . S
N480 C477 1.384 . S
N481 C473 1.427 . S
N481 C479 1.384 1_554 S
H482 C488 0.930 . S
H483 C492 0.930 . S
H484 C497 0.929 . S
H485 C495 0.929 . S
H486 C490 0.929 . S
H487 C496 0.929 . S
C488 H482 0.930 . S
C488 C489 1.367 . S
C488 C496 1.378 . S
C489 C488 1.367 . S
C489 C497 1.433 . S
C490 H486 0.929 . S
C490 C492 1.378 . S
C490 C494 1.350 . S
C491 C494 1.463 . S
C491 C496 1.350 . S
C491 N499 1.427 . S
C492 H483 0.930 . S
C492 C490 1.378 . S
C492 C493 1.367 . S
C493 C492 1.367 . S
C493 C495 1.433 . S
C494 C490 1.350 . S
C494 C491 1.463 . S
C494 N498 1.427 . S
C495 H485 0.929 . S
C495 C493 1.433 . S
C495 N498 1.384 . S
C496 H487 0.929 . S
C496 C488 1.378 . S
C496 C491 1.350 . S
C497 H484 0.929 . S
C497 C489 1.433 . S
C497 N499 1.384 . S
N498 C494 1.427 . S
N498 C495 1.384 . S
N499 C491 1.427 . S
N499 C497 1.384 . S
H500 C506 0.930 . S
H501 C510 0.930 . S
H502 C515 0.929 . S
H503 C513 0.929 . S
H504 C508 0.929 . S
H505 C514 0.929 . S
C506 H500 0.930 . S
C506 C507 1.367 . S
C506 C514 1.378 . S
C507 C506 1.367 . S
C507 C515 1.433 . S
C508 H504 0.929 . S
C508 C510 1.378 . S
C508 C512 1.350 . S
C509 C512 1.463 . S
C509 C514 1.350 . S
C509 N517 1.427 . S
C510 H501 0.930 . S
C510 C508 1.378 . S
C510 C511 1.367 . S
C511 C510 1.367 . S
C511 C513 1.433 . S
C512 C508 1.350 . S
C512 C509 1.463 . S
C512 N516 1.427 . S
C513 H503 0.929 . S
C513 C511 1.433 . S
C513 N516 1.384 . S
C514 H505 0.929 . S
C514 C506 1.378 . S
C514 C509 1.350 . S
C515 H502 0.929 . S
C515 C507 1.433 . S
C515 N517 1.384 . S
N516 C512 1.427 . S
N516 C513 1.384 . S
N517 C509 1.427 . S
N517 C515 1.384 . S
H518 C524 0.930 . S
H519 C528 0.930 . S
H520 C533 0.929 . S
H521 C531 0.929 . S
H522 C526 0.929 . S
H523 C532 0.929 . S
C524 H518 0.930 . S
C524 C525 1.367 . S
C524 C532 1.378 . S
C525 C524 1.367 . S
C525 C533 1.433 . S
C526 H522 0.929 . S
C526 C528 1.378 . S
C526 C530 1.350 . S
C527 C530 1.463 . S
C527 C532 1.350 . S
C527 N535 1.427 . S
C528 H519 0.930 . S
C528 C526 1.378 . S
C528 C529 1.367 . S
C529 C528 1.367 . S
C529 C531 1.433 . S
C530 C526 1.350 . S
C530 C527 1.463 . S
C530 N534 1.427 . S
C531 H521 0.929 . S
C531 C529 1.433 . S
C531 N534 1.384 . S
C532 H523 0.929 . S
C532 C524 1.378 . S
C532 C527 1.350 . S
C533 H520 0.929 . S
C533 C525 1.433 . S
C533 N535 1.384 . S
N534 C530 1.427 . S
N534 C531 1.384 . S
N535 C527 1.427 . S
N535 C533 1.384 . S
H536 C542 0.930 . S
H537 C546 0.930 . S
H538 C551 0.929 . S
H539 C549 0.929 . S
H540 C544 0.929 . S
H541 C550 0.932 . S
C542 H536 0.930 . S
C542 C543 1.367 . S
C542 C550 1.360 1_554 S
C543 C542 1.367 . S
C543 C551 1.433 . S
C544 H540 0.929 . S
C544 C546 1.378 . S
C544 C548 1.350 . S
C545 C548 1.463 . S
C545 C550 1.364 . S
C545 N553 1.427 . S
C546 H537 0.930 . S
C546 C544 1.378 . S
C546 C547 1.367 . S
C547 C546 1.367 . S
C547 C549 1.433 . S
C548 C544 1.350 . S
C548 C545 1.463 . S
C548 N552 1.427 . S
C549 H539 0.929 . S
C549 C547 1.433 . S
C549 N552 1.384 . S
C550 H541 0.932 . S
C550 C542 1.360 1_556 S
C550 C545 1.364 . S
C551 H538 0.929 . S
C551 C543 1.433 . S
C551 N553 1.384 1_554 S
N552 C548 1.427 . S
N552 C549 1.384 . S
N553 C545 1.427 . S
N553 C551 1.384 1_556 S
H554 C560 0.930 . S
H555 C564 0.930 . S
H556 C569 0.929 . S
H557 C567 0.929 . S
H558 C562 0.929 . S
H559 C568 0.929 . S
C560 H554 0.930 . S
C560 C561 1.367 . S
C560 C568 1.378 . S
C561 C560 1.367 . S
C561 C569 1.433 . S
C562 H558 0.929 . S
C562 C564 1.378 . S
C562 C566 1.350 . S
C563 C566 1.463 . S
C563 C568 1.350 . S
C563 N571 1.427 . S
C564 H555 0.930 . S
C564 C562 1.378 . S
C564 C565 1.367 . S
C565 C564 1.367 . S
C565 C567 1.433 . S
C566 C562 1.350 . S
C566 C563 1.463 . S
C566 N570 1.427 . S
C567 H557 0.929 . S
C567 C565 1.433 . S
C567 N570 1.384 . S
C568 H559 0.929 . S
C568 C560 1.378 . S
C568 C563 1.350 . S
C569 H556 0.929 . S
C569 C561 1.433 . S
C569 N571 1.384 . S
N570 C566 1.427 . S
N570 C567 1.384 . S
N571 C563 1.427 . S
N571 C569 1.384 . S
H572 C578 0.930 . S
H573 C582 0.930 . S
H574 C587 0.929 . S
H575 C585 0.929 . S
H576 C580 0.929 . S
H577 C586 0.929 . S
C578 H572 0.930 . S
C578 C579 1.367 . S
C578 C586 1.378 . S
C579 C578 1.367 . S
C579 C587 1.433 . S
C580 H576 0.929 . S
C580 C582 1.378 . S
C580 C584 1.350 . S
C581 C584 1.463 . S
C581 C586 1.350 . S
C581 N589 1.427 . S
C582 H573 0.930 . S
C582 C580 1.378 . S
C582 C583 1.367 . S
C583 C582 1.367 . S
C583 C585 1.433 . S
C584 C580 1.350 . S
C584 C581 1.463 . S
C584 N588 1.427 . S
C585 H575 0.929 . S
C585 C583 1.433 . S
C585 N588 1.384 . S
C586 H577 0.929 . S
C586 C578 1.378 . S
C586 C581 1.350 . S
C587 H574 0.929 . S
C587 C579 1.433 . S
C587 N589 1.384 . S
N588 C584 1.427 . S
N588 C585 1.384 . S
N589 C581 1.427 . S
N589 C587 1.384 . S
H590 C596 0.930 . S
H591 C600 0.930 . S
H592 C605 0.929 . S
H593 C603 0.929 . S
H594 C598 0.929 . S
H595 C604 0.929 . S
C596 H590 0.930 . S
C596 C597 1.367 . S
C596 C604 1.378 . S
C597 C596 1.367 . S
C597 C605 1.433 . S
C598 H594 0.929 . S
C598 C600 1.378 . S
C598 C602 1.350 . S
C599 C602 1.463 . S
C599 C604 1.350 . S
C599 N607 1.427 . S
C600 H591 0.930 . S
C600 C598 1.378 . S
C600 C601 1.367 . S
C601 C600 1.367 . S
C601 C603 1.433 . S
C602 C598 1.350 . S
C602 C599 1.463 . S
C602 N606 1.427 . S
C603 H593 0.929 . S
C603 C601 1.433 . S
C603 N606 1.384 . S
C604 H595 0.929 . S
C604 C596 1.378 . S
C604 C599 1.350 . S
C605 H592 0.929 . S
C605 C597 1.433 . S
C605 N607 1.384 . S
N606 C602 1.427 . S
N606 C603 1.384 . S
N607 C599 1.427 . S
N607 C605 1.384 . S
H608 C614 0.930 . S
H609 C618 0.930 . S
H610 C623 0.929 . S
H611 C621 0.929 . S
H612 C616 0.929 . S
H613 C622 0.929 . S
C614 H608 0.930 . S
C614 C615 1.367 . S
C614 C622 1.378 . S
C615 C614 1.367 . S
C615 C623 1.433 . S
C616 H612 0.929 . S
C616 C618 1.378 . S
C616 C620 1.350 . S
C617 C620 1.463 . S
C617 C622 1.350 . S
C617 N625 1.427 . S
C618 H609 0.930 . S
C618 C616 1.378 . S
C618 C619 1.367 . S
C619 C618 1.367 . S
C619 C621 1.433 . S
C620 C616 1.350 . S
C620 C617 1.463 . S
C620 N624 1.427 . S
C621 H611 0.929 . S
C621 C619 1.433 . S
C621 N624 1.384 . S
C622 H613 0.929 . S
C622 C614 1.378 . S
C622 C617 1.350 . S
C623 H610 0.929 . S
C623 C615 1.433 . S
C623 N625 1.384 . S
N624 C620 1.427 . S
N624 C621 1.384 . S
N625 C617 1.427 . S
N625 C623 1.384 . S
H626 C632 0.930 . S
H627 C636 0.930 . S
H628 C641 0.929 . S
H629 C639 0.929 . S
H630 C634 0.929 . S
H631 C640 0.929 . S
C632 H626 0.930 . S
C632 C633 1.367 . S
C632 C640 1.378 . S
C633 C632 1.367 . S
C633 C641 1.433 . S
C634 H630 0.929 . S
C634 C636 1.378 . S
C634 C638 1.350 . S
C635 C638 1.463 . S
C635 C640 1.350 . S
C635 N643 1.427 . S
C636 H627 0.930 . S
C636 C634 1.378 . S
C636 C637 1.367 . S
C637 C636 1.367 . S
C637 C639 1.433 . S
C638 C634 1.350 . S
C638 C635 1.463 . S
C638 N642 1.427 . S
C639 H629 0.929 . S
C639 C637 1.433 . S
C639 N642 1.384 . S
C640 H631 0.929 . S
C640 C632 1.378 . S
C640 C635 1.350 . S
C641 H628 0.929 . S
C641 C633 1.433 . S
C641 N643 1.384 . S
N642 C638 1.427 . S
N642 C639 1.384 . S
N643 C635 1.427 . S
N643 C641 1.384 . S
H644 C650 0.930 . S
H645 C654 0.930 . S
H646 C659 0.929 . S
H647 C657 0.929 . S
H648 C652 0.927 1_554 S
H649 C658 0.929 . S
C650 H644 0.930 . S
C650 C651 1.367 . S
C650 C658 1.378 . S
C651 C650 1.367 . S
C651 C659 1.433 . S
C652 H648 0.927 1_556 S
C652 C654 1.378 . S
C652 C656 1.350 1_556 S
C653 C656 1.463 . S
C653 C658 1.350 . S
C653 N661 1.427 . S
C654 H645 0.930 . S
C654 C652 1.378 . S
C654 C655 1.367 . S
C655 C654 1.367 . S
C655 C657 1.433 . S
C656 C652 1.350 1_554 S
C656 C653 1.463 . S
C656 N660 1.427 . S
C657 H647 0.929 . S
C657 C655 1.433 . S
C657 N660 1.384 1_556 S
C658 H649 0.929 . S
C658 C650 1.378 . S
C658 C653 1.350 . S
C659 H646 0.929 . S
C659 C651 1.433 . S
C659 N661 1.384 . S
N660 C656 1.427 . S
N660 C657 1.384 1_554 S
N661 C653 1.427 . S
N661 C659 1.384 . S
H662 C668 0.930 . S
H663 C672 0.930 . S
H664 C677 0.929 . S
H665 C675 0.929 . S
H666 C670 0.929 . S
H667 C676 0.929 . S
C668 H662 0.930 . S
C668 C669 1.367 . S
C668 C676 1.378 . S
C669 C668 1.367 . S
C669 C677 1.433 . S
C670 H666 0.929 . S
C670 C672 1.378 . S
C670 C674 1.350 . S
C671 C674 1.463 . S
C671 C676 1.350 . S
C671 N679 1.427 . S
C672 H663 0.930 . S
C672 C670 1.378 . S
C672 C673 1.367 . S
C673 C672 1.367 . S
C673 C675 1.433 . S
C674 C670 1.350 . S
C674 C671 1.463 . S
C674 N678 1.427 . S
C675 H665 0.929 . S
C675 C673 1.433 . S
C675 N678 1.384 . S
C676 H667 0.929 . S
C676 C668 1.378 . S
C676 C671 1.350 . S
C677 H664 0.929 . S
C677 C669 1.433 . S
C677 N679 1.384 . S
N678 C674 1.427 . S
N678 C675 1.384 . S
N679 C671 1.427 . S
N679 C677 1.384 . S
H680 C686 0.930 . S
H681 C690 0.930 . S
H682 C695 0.929 . S
H683 C693 0.929 . S
H684 C688 0.929 . S
H685 C694 0.929 . S
C686 H680 0.930 . S
C686 C687 1.367 . S
C686 C694 1.378 . S
C687 C686 1.367 . S
C687 C695 1.433 . S
C688 H684 0.929 . S
C688 C690 1.378 . S
C688 C692 1.350 . S
C689 C692 1.463 . S
C689 C694 1.350 . S
C689 N697 1.427 . S
C690 H681 0.930 . S
C690 C688 1.378 . S
C690 C691 1.367 . S
C691 C690 1.367 . S
C691 C693 1.433 . S
C692 C688 1.350 . S
C692 C689 1.463 . S
C692 N696 1.427 . S
C693 H683 0.929 . S
C693 C691 1.433 . S
C693 N696 1.384 . S
C694 H685 0.929 . S
C694 C686 1.378 . S
C694 C689 1.350 . S
C695 H682 0.929 . S
C695 C687 1.433 . S
C695 N697 1.384 . S
N696 C692 1.427 . S
N696 C693 1.384 . S
N697 C689 1.427 . S
N697 C695 1.384 . S
H698 C704 0.930 1_565 S
H699 C708 0.930 . S
H700 C713 0.929 . S
H701 C711 0.929 . S
H702 C706 0.929 . S
H703 C712 0.929 . S
C704 H698 0.930 1_545 S
C704 C705 1.367 . S
C704 C712 1.378 . S
C705 C704 1.367 . S
C705 C713 1.433 . S
C706 H702 0.929 . S
C706 C708 1.378 . S
C706 C710 1.350 . S
C707 C710 1.463 . S
C707 C712 1.350 . S
C707 N715 1.427 . S
C708 H699 0.930 . S
C708 C706 1.378 . S
C708 C709 1.367 . S
C709 C708 1.367 . S
C709 C711 1.433 . S
C710 C706 1.350 . S
C710 C707 1.463 . S
C710 N714 1.427 . S
C711 H701 0.929 . S
C711 C709 1.433 . S
C711 N714 1.384 . S
C712 H703 0.929 . S
C712 C704 1.378 . S
C712 C707 1.350 . S
C713 H700 0.929 . S
C713 C705 1.433 . S
C713 N715 1.384 . S
N714 C710 1.427 . S
N714 C711 1.384 . S
N715 C707 1.427 . S
N715 C713 1.384 . S
H716 C722 0.930 . S
H717 C726 0.930 . S
H718 C731 0.929 . S
H719 C729 0.929 . S
H720 C724 0.929 . S
H721 C730 0.929 . S
C722 H716 0.930 . S
C722 C723 1.367 . S
C722 C730 1.377 1_554 S
C723 C722 1.367 . S
C723 C731 1.433 . S
C724 H720 0.929 . S
C724 C726 1.378 . S
C724 C728 1.350 . S
C725 C728 1.463 . S
C725 C730 1.351 . S
C725 N733 1.427 . S
C726 H717 0.930 . S
C726 C724 1.378 . S
C726 C727 1.367 . S
C727 C726 1.367 . S
C727 C729 1.433 . S
C728 C724 1.350 . S
C728 C725 1.463 . S
C728 N732 1.427 . S
C729 H719 0.929 . S
C729 C727 1.433 . S
C729 N732 1.384 . S
C730 H721 0.929 . S
C730 C722 1.377 1_556 S
C730 C725 1.351 . S
C731 H718 0.929 . S
C731 C723 1.433 . S
C731 N733 1.384 1_554 S
N732 C728 1.427 . S
N732 C729 1.384 . S
N733 C725 1.427 . S
N733 C731 1.384 1_556 S
H734 C740 0.930 . S
H735 C744 0.930 . S
H736 C749 0.929 . S
H737 C747 0.929 . S
H738 C742 0.929 . S
H739 C748 0.929 . S
C740 H734 0.930 . S
C740 C741 1.367 . S
C740 C748 1.378 . S
C741 C740 1.367 . S
C741 C749 1.433 1_565 S
C742 H738 0.929 . S
C742 C744 1.378 . S
C742 C746 1.350 . S
C743 C746 1.463 . S
C743 C748 1.350 . S
C743 N751 1.427 . S
C744 H735 0.930 . S
C744 C742 1.378 . S
C744 C745 1.367 . S
C745 C744 1.367 . S
C745 C747 1.433 . S
C746 C742 1.350 . S
C746 C743 1.463 . S
C746 N750 1.427 . S
C747 H737 0.929 . S
C747 C745 1.433 . S
C747 N750 1.384 . S
C748 H739 0.929 . S
C748 C740 1.378 . S
C748 C743 1.350 . S
C749 H736 0.929 . S
C749 C741 1.433 1_545 S
C749 N751 1.384 1_545 S
N750 C746 1.427 . S
N750 C747 1.384 . S
N751 C743 1.427 . S
N751 C749 1.384 1_565 S
H752 C758 0.930 . S
H753 C762 0.930 . S
H754 C767 0.929 . S
H755 C765 0.929 . S
H756 C760 0.929 . S
H757 C766 0.929 . S
C758 H752 0.930 . S
C758 C759 1.367 . S
C758 C766 1.378 . S
C759 C758 1.367 . S
C759 C767 1.433 . S
C760 H756 0.929 . S
C760 C762 1.378 . S
C760 C764 1.350 . S
C761 C764 1.463 . S
C761 C766 1.350 . S
C761 N769 1.427 . S
C762 H753 0.930 . S
C762 C760 1.378 . S
C762 C763 1.367 . S
C763 C762 1.367 . S
C763 C765 1.433 . S
C764 C760 1.350 . S
C764 C761 1.463 . S
C764 N768 1.427 . S
C765 H755 0.929 . S
C765 C763 1.433 . S
C765 N768 1.384 . S
C766 H757 0.929 . S
C766 C758 1.378 . S
C766 C761 1.350 . S
C767 H754 0.929 . S
C767 C759 1.433 . S
C767 N769 1.384 . S
N768 C764 1.427 . S
N768 C765 1.384 . S
N769 C761 1.427 . S
N769 C767 1.384 . S
H770 C776 0.930 . S
H771 C780 0.930 . S
H772 C785 0.929 . S
H773 C783 0.929 . S
H774 C778 0.929 . S
H775 C784 0.929 . S
C776 H770 0.930 . S
C776 C777 1.367 . S
C776 C784 1.378 . S
C777 C776 1.367 . S
C777 C785 1.433 . S
C778 H774 0.929 . S
C778 C780 1.378 . S
C778 C782 1.350 . S
C779 C782 1.463 . S
C779 C784 1.350 . S
C779 N787 1.427 . S
C780 H771 0.930 . S
C780 C778 1.378 . S
C780 C781 1.367 . S
C781 C780 1.367 . S
C781 C783 1.433 . S
C782 C778 1.350 . S
C782 C779 1.463 . S
C782 N786 1.427 . S
C783 H773 0.929 . S
C783 C781 1.433 . S
C783 N786 1.384 . S
C784 H775 0.929 . S
C784 C776 1.378 . S
C784 C779 1.350 . S
C785 H772 0.929 . S
C785 C777 1.433 . S
C785 N787 1.384 . S
N786 C782 1.427 . S
N786 C783 1.384 . S
N787 C779 1.427 . S
N787 C785 1.384 . S
H788 C794 0.930 . S
H789 C798 0.930 . S
H790 C803 0.929 . S
H791 C801 0.929 . S
H792 C796 0.929 . S
H793 C802 0.929 . S
C794 H788 0.930 . S
C794 C795 1.367 . S
C794 C802 1.378 . S
C795 C794 1.367 . S
C795 C803 1.433 . S
C796 H792 0.929 . S
C796 C798 1.378 . S
C796 C800 1.350 . S
C797 C800 1.463 1_655 S
C797 C802 1.350 . S
C797 N805 1.427 . S
C798 H789 0.930 . S
C798 C796 1.378 . S
C798 C799 1.367 . S
C799 C798 1.367 . S
C799 C801 1.433 . S
C800 C796 1.350 . S
C800 C797 1.463 1_455 S
C800 N804 1.427 . S
C801 H791 0.929 . S
C801 C799 1.433 . S
C801 N804 1.384 . S
C802 H793 0.929 . S
C802 C794 1.378 . S
C802 C797 1.350 . S
C803 H790 0.929 . S
C803 C795 1.433 . S
C803 N805 1.384 . S
N804 C800 1.427 . S
N804 C801 1.384 . S
N805 C797 1.427 . S
N805 C803 1.384 . S
H806 C812 0.930 . S
H807 C816 0.930 . S
H808 C821 0.929 . S
H809 C819 0.929 . S
H810 C814 0.929 . S
H811 C820 0.929 . S
C812 H806 0.930 . S
C812 C813 1.367 . S
C812 C820 1.378 . S
C813 C812 1.367 . S
C813 C821 1.433 1_655 S
C814 H810 0.929 . S
C814 C816 1.378 . S
C814 C818 1.350 . S
C815 C818 1.463 1_655 S
C815 C820 1.350 . S
C815 N823 1.427 1_655 S
C816 H807 0.930 . S
C816 C814 1.378 . S
C816 C817 1.367 . S
C817 C816 1.367 . S
C817 C819 1.433 1_455 S
C818 C814 1.350 . S
C818 C815 1.463 1_455 S
C818 N822 1.427 1_455 S
C819 H809 0.929 . S
C819 C817 1.433 1_655 S
C819 N822 1.384 . S
C820 H811 0.929 . S
C820 C812 1.378 . S
C820 C815 1.350 . S
C821 H808 0.929 . S
C821 C813 1.433 1_455 S
C821 N823 1.384 . S
N822 C818 1.427 1_655 S
N822 C819 1.384 . S
N823 C815 1.427 1_455 S
N823 C821 1.384 . S
H824 C830 0.930 . S
H825 C834 0.930 . S
H826 C839 0.929 . S
H827 C837 0.929 . S
H828 C832 0.929 . S
H829 C838 0.929 . S
C830 H824 0.930 . S
C830 C831 1.367 . S
C830 C838 1.378 . S
C831 C830 1.367 . S
C831 C839 1.433 . S
C832 H828 0.929 . S
C832 C834 1.378 . S
C832 C836 1.350 . S
C833 C836 1.463 . S
C833 C838 1.350 . S
C833 N841 1.427 . S
C834 H825 0.930 . S
C834 C832 1.378 . S
C834 C835 1.367 . S
C835 C834 1.367 . S
C835 C837 1.433 . S
C836 C832 1.350 . S
C836 C833 1.463 . S
C836 N840 1.427 . S
C837 H827 0.929 . S
C837 C835 1.433 . S
C837 N840 1.384 . S
C838 H829 0.929 . S
C838 C830 1.378 . S
C838 C833 1.350 . S
C839 H826 0.929 . S
C839 C831 1.433 . S
C839 N841 1.384 . S
N840 C836 1.427 . S
N840 C837 1.384 . S
N841 C833 1.427 . S
N841 C839 1.384 . S
H842 C848 0.930 . S
H843 C852 0.930 . S
H844 C857 0.929 . S
H845 C855 0.929 . S
H846 C850 0.929 . S
H847 C856 0.929 . S
C848 H842 0.930 . S
C848 C849 1.367 . S
C848 C856 1.378 . S
C849 C848 1.367 . S
C849 C857 1.433 . S
C850 H846 0.929 . S
C850 C852 1.378 . S
C850 C854 1.350 . S
C851 C854 1.463 . S
C851 C856 1.350 . S
C851 N859 1.427 . S
C852 H843 0.930 . S
C852 C850 1.378 . S
C852 C853 1.367 . S
C853 C852 1.367 . S
C853 C855 1.433 . S
C854 C850 1.350 . S
C854 C851 1.463 . S
C854 N858 1.427 . S
C855 H845 0.929 . S
C855 C853 1.433 . S
C855 N858 1.384 . S
C856 H847 0.929 . S
C856 C848 1.378 . S
C856 C851 1.350 . S
C857 H844 0.929 . S
C857 C849 1.433 . S
C857 N859 1.384 . S
N858 C854 1.427 . S
N858 C855 1.384 . S
N859 C851 1.427 . S
N859 C857 1.384 . S
H860 C866 0.930 . S
H861 C870 0.930 . S
H862 C875 0.929 . S
H863 C873 0.929 . S
H864 C868 0.929 . S
H865 C874 0.929 . S
C866 H860 0.930 . S
C866 C867 1.367 . S
C866 C874 1.378 . S
C867 C866 1.367 . S
C867 C875 1.433 . S
C868 H864 0.929 . S
C868 C870 1.378 . S
C868 C872 1.350 . S
C869 C872 1.463 1_455 S
C869 C874 1.350 . S
C869 N877 1.427 . S
C870 H861 0.930 . S
C870 C868 1.378 . S
C870 C871 1.367 . S
C871 C870 1.367 . S
C871 C873 1.433 . S
C872 C868 1.350 . S
C872 C869 1.463 1_655 S
C872 N876 1.427 . S
C873 H863 0.929 . S
C873 C871 1.433 . S
C873 N876 1.384 . S
C874 H865 0.929 . S
C874 C866 1.378 . S
C874 C869 1.350 . S
C875 H862 0.929 . S
C875 C867 1.433 . S
C875 N877 1.384 . S
N876 C872 1.427 . S
N876 C873 1.384 . S
N877 C869 1.427 . S
N877 C875 1.384 . S
H878 C884 0.930 . S
H879 C888 0.930 . S
H880 C893 0.929 . S
H881 C891 0.929 . S
H882 C886 0.929 . S
H883 C892 0.929 . S
C884 H878 0.930 . S
C884 C885 1.367 1_655 S
C884 C892 1.378 . S
C885 C884 1.367 1_455 S
C885 C893 1.433 . S
C886 H882 0.929 . S
C886 C888 1.378 . S
C886 C890 1.350 1_455 S
C887 C890 1.463 1_455 S
C887 C892 1.350 1_455 S
C887 N895 1.427 . S
C888 H879 0.930 . S
C888 C886 1.378 . S
C888 C889 1.367 1_455 S
C889 C888 1.367 1_655 S
C889 C891 1.433 . S
C890 C886 1.350 1_655 S
C890 C887 1.463 1_655 S
C890 N894 1.427 . S
C891 H881 0.929 . S
C891 C889 1.433 . S
C891 N894 1.384 . S
C892 H883 0.929 . S
C892 C884 1.378 . S
C892 C887 1.350 1_655 S
C893 H880 0.929 . S
C893 C885 1.433 . S
C893 N895 1.384 . S
N894 C890 1.427 . S
N894 C891 1.384 . S
N895 C887 1.427 . S
N895 C893 1.384 . S
H896 C902 0.930 . S
H897 C906 0.930 . S
H898 C911 0.929 . S
H899 C909 0.929 . S
H900 C904 0.929 . S
H901 C910 0.929 . S
C902 H896 0.930 . S
C902 C903 1.367 . S
C902 C910 1.378 . S
C903 C902 1.367 . S
C903 C911 1.433 . S
C904 H900 0.929 . S
C904 C906 1.378 . S
C904 C908 1.350 . S
C905 C908 1.463 . S
C905 C910 1.350 . S
C905 N913 1.427 . S
C906 H897 0.930 . S
C906 C904 1.378 . S
C906 C907 1.367 . S
C907 C906 1.367 . S
C907 C909 1.433 . S
C908 C904 1.350 . S
C908 C905 1.463 . S
C908 N912 1.427 . S
C909 H899 0.929 . S
C909 C907 1.433 . S
C909 N912 1.384 . S
C910 H901 0.929 . S
C910 C902 1.378 . S
C910 C905 1.350 . S
C911 H898 0.929 . S
C911 C903 1.433 . S
C911 N913 1.384 . S
N912 C908 1.427 . S
N912 C909 1.384 . S
N913 C905 1.427 . S
N913 C911 1.384 . S
H914 C920 0.930 . S
H915 C924 0.930 . S
H916 C929 0.929 . S
H917 C927 0.929 . S
H918 C922 0.929 . S
H919 C928 0.929 . S
C920 H914 0.930 . S
C920 C921 1.367 . S
C920 C928 1.378 . S
C921 C920 1.367 . S
C921 C929 1.433 . S
C922 H918 0.929 . S
C922 C924 1.378 . S
C922 C926 1.350 . S
C923 C926 1.463 . S
C923 C928 1.350 . S
C923 N931 1.427 . S
C924 H915 0.930 . S
C924 C922 1.378 . S
C924 C925 1.367 . S
C925 C924 1.367 . S
C925 C927 1.433 . S
C926 C922 1.350 . S
C926 C923 1.463 . S
C926 N930 1.427 . S
C927 H917 0.929 . S
C927 C925 1.433 . S
C927 N930 1.384 . S
C928 H919 0.929 . S
C928 C920 1.378 . S
C928 C923 1.350 . S
C929 H916 0.929 . S
C929 C921 1.433 . S
C929 N931 1.384 . S
N930 C926 1.427 . S
N930 C927 1.384 . S
N931 C923 1.427 . S
N931 C929 1.384 . S
H932 C938 0.930 . S
H933 C942 0.930 . S
H934 C947 0.929 . S
H935 C945 0.929 . S
H936 C940 0.929 . S
H937 C946 0.929 . S
C938 H932 0.930 . S
C938 C939 1.367 . S
C938 C946 1.378 . S
C939 C938 1.367 . S
C939 C947 1.433 . S
C940 H936 0.929 . S
C940 C942 1.378 . S
C940 C944 1.350 . S
C941 C944 1.463 . S
C941 C946 1.350 . S
C941 N949 1.427 . S
C942 H933 0.930 . S
C942 C940 1.378 . S
C942 C943 1.367 . S
C943 C942 1.367 . S
C943 C945 1.433 . S
C944 C940 1.350 . S
C944 C941 1.463 . S
C944 N948 1.427 . S
C945 H935 0.929 . S
C945 C943 1.433 . S
C945 N948 1.384 . S
C946 H937 0.929 . S
C946 C938 1.378 . S
C946 C941 1.350 . S
C947 H934 0.929 . S
C947 C939 1.433 . S
C947 N949 1.384 . S
N948 C944 1.427 . S
N948 C945 1.384 . S
N949 C941 1.427 . S
N949 C947 1.384 . S
H950 C956 0.930 . S
H951 C960 0.930 . S
H952 C965 0.929 . S
H953 C963 0.929 . S
H954 C958 0.929 . S
H955 C964 0.929 . S
C956 H950 0.930 . S
C956 C957 1.367 . S
C956 C964 1.378 1_655 S
C957 C956 1.367 . S
C957 C965 1.433 . S
C958 H954 0.929 . S
C958 C960 1.378 . S
C958 C962 1.350 . S
C959 C962 1.463 . S
C959 C964 1.350 . S
C959 N967 1.427 . S
C960 H951 0.930 . S
C960 C958 1.378 . S
C960 C961 1.367 . S
C961 C960 1.367 . S
C961 C963 1.433 . S
C962 C958 1.350 . S
C962 C959 1.463 . S
C962 N966 1.427 . S
C963 H953 0.929 . S
C963 C961 1.433 . S
C963 N966 1.384 . S
C964 H955 0.929 . S
C964 C956 1.378 1_455 S
C964 C959 1.350 . S
C965 H952 0.929 . S
C965 C957 1.433 . S
C965 N967 1.384 1_655 S
N966 C962 1.427 . S
N966 C963 1.384 . S
N967 C959 1.427 . S
N967 C965 1.384 1_455 S
H968 C974 0.930 . S
H969 C978 0.930 . S
H970 C983 0.929 . S
H971 C981 0.929 . S
H972 C976 0.929 . S
H973 C982 0.929 . S
C974 H968 0.930 . S
C974 C975 1.367 . S
C974 C982 1.378 . S
C975 C974 1.367 . S
C975 C983 1.433 . S
C976 H972 0.929 . S
C976 C978 1.378 . S
C976 C980 1.350 . S
C977 C980 1.463 . S
C977 C982 1.350 . S
C977 N985 1.427 . S
C978 H969 0.930 . S
C978 C976 1.378 . S
C978 C979 1.367 . S
C979 C978 1.367 . S
C979 C981 1.433 . S
C980 C976 1.350 . S
C980 C977 1.463 . S
C980 N984 1.427 . S
C981 H971 0.929 . S
C981 C979 1.433 . S
C981 N984 1.384 . S
C982 H973 0.929 . S
C982 C974 1.378 . S
C982 C977 1.350 . S
C983 H970 0.929 . S
C983 C975 1.433 . S
C983 N985 1.384 . S
N984 C980 1.427 . S
N984 C981 1.384 . S
N985 C977 1.427 . S
N985 C983 1.384 . S
H986 C992 0.930 . S
H987 C996 0.930 . S
H988 C1001 0.929 . S
H989 C999 0.929 . S
H990 C994 0.929 . S
H991 C1000 0.929 . S
C992 H986 0.930 . S
C992 C993 1.367 . S
C992 C1000 1.378 . S
C993 C992 1.367 . S
C993 C1001 1.433 . S
C994 H990 0.929 . S
C994 C996 1.378 . S
C994 C998 1.350 . S
C995 C998 1.463 . S
C995 C1000 1.350 . S
C995 N1003 1.427 . S
C996 H987 0.930 . S
C996 C994 1.378 . S
C996 C997 1.367 . S
C997 C996 1.367 . S
C997 C999 1.433 . S
C998 C994 1.350 . S
C998 C995 1.463 . S
C998 N1002 1.427 . S
C999 H989 0.929 . S
C999 C997 1.433 . S
C999 N1002 1.384 . S
C1000 H991 0.929 . S
C1000 C992 1.378 . S
C1000 C995 1.350 . S
C1001 H988 0.929 . S
C1001 C993 1.433 . S
C1001 N1003 1.384 . S
N1002 C998 1.427 . S
N1002 C999 1.384 . S
N1003 C995 1.427 . S
N1003 C1001 1.384 . S
H1004 C1010 0.930 . S
H1005 C1014 0.930 . S
H1006 C1019 0.929 . S
H1007 C1017 0.929 . S
H1008 C1012 0.929 . S
H1009 C1018 0.929 . S
C1010 H1004 0.930 . S
C1010 C1011 1.367 . S
C1010 C1018 1.378 . S
C1011 C1010 1.367 . S
C1011 C1019 1.433 . S
C1012 H1008 0.929 . S
C1012 C1014 1.378 . S
C1012 C1016 1.350 . S
C1013 C1016 1.463 . S
C1013 C1018 1.350 . S
C1013 N1021 1.427 . S
C1014 H1005 0.930 . S
C1014 C1012 1.378 . S
C1014 C1015 1.367 . S
C1015 C1014 1.367 . S
C1015 C1017 1.433 . S
C1016 C1012 1.350 . S
C1016 C1013 1.463 . S
C1016 N1020 1.427 . S
C1017 H1007 0.929 . S
C1017 C1015 1.433 . S
C1017 N1020 1.384 . S
C1018 H1009 0.929 . S
C1018 C1010 1.378 . S
C1018 C1013 1.350 . S
C1019 H1006 0.929 . S
C1019 C1011 1.433 . S
C1019 N1021 1.384 . S
N1020 C1016 1.427 . S
N1020 C1017 1.384 . S
N1021 C1013 1.427 . S
N1021 C1019 1.384 . S
H1022 C1028 0.930 . S
H1023 C1032 0.930 . S
H1024 C1037 0.929 . S
H1025 C1035 0.929 . S
H1026 C1030 0.929 . S
H1027 C1036 0.929 . S
C1028 H1022 0.930 . S
C1028 C1029 1.367 . S
C1028 C1036 1.378 . S
C1029 C1028 1.367 . S
C1029 C1037 1.433 . S
C1030 H1026 0.929 . S
C1030 C1032 1.378 1_655 S
C1030 C1034 1.350 . S
C1031 C1034 1.463 . S
C1031 C1036 1.350 . S
C1031 N1039 1.427 . S
C1032 H1023 0.930 . S
C1032 C1030 1.378 1_455 S
C1032 C1033 1.367 . S
C1033 C1032 1.367 . S
C1033 C1035 1.433 . S
C1034 C1030 1.350 . S
C1034 C1031 1.463 . S
C1034 N1038 1.427 . S
C1035 H1025 0.929 . S
C1035 C1033 1.433 . S
C1035 N1038 1.384 1_455 S
C1036 H1027 0.929 . S
C1036 C1028 1.378 . S
C1036 C1031 1.350 . S
C1037 H1024 0.929 . S
C1037 C1029 1.433 . S
C1037 N1039 1.384 . S
N1038 C1034 1.427 . S
N1038 C1035 1.384 1_655 S
N1039 C1031 1.427 . S
N1039 C1037 1.384 . S
H1040 C1046 0.930 . S
H1041 C1050 0.930 . S
H1042 C1055 0.929 . S
H1043 C1053 0.929 . S
H1044 C1048 0.929 . S
H1045 C1054 0.929 . S
C1046 H1040 0.930 . S
C1046 C1047 1.367 . S
C1046 C1054 1.378 . S
C1047 C1046 1.367 . S
C1047 C1055 1.433 . S
C1048 H1044 0.929 . S
C1048 C1050 1.378 . S
C1048 C1052 1.350 . S
C1049 C1052 1.463 . S
C1049 C1054 1.350 . S
C1049 N1057 1.427 . S
C1050 H1041 0.930 . S
C1050 C1048 1.378 . S
C1050 C1051 1.367 . S
C1051 C1050 1.367 . S
C1051 C1053 1.433 . S
C1052 C1048 1.350 . S
C1052 C1049 1.463 . S
C1052 N1056 1.427 . S
C1053 H1043 0.929 . S
C1053 C1051 1.433 . S
C1053 N1056 1.384 . S
C1054 H1045 0.929 . S
C1054 C1046 1.378 . S
C1054 C1049 1.350 . S
C1055 H1042 0.929 . S
C1055 C1047 1.433 . S
C1055 N1057 1.384 . S
N1056 C1052 1.427 . S
N1056 C1053 1.384 . S
N1057 C1049 1.427 . S
N1057 C1055 1.384 . S
H1058 C1064 0.930 . S
H1059 C1068 0.930 . S
H1060 C1073 0.929 . S
H1061 C1071 0.929 . S
H1062 C1066 0.929 . S
H1063 C1072 0.929 . S
C1064 H1058 0.930 . S
C1064 C1065 1.367 . S
C1064 C1072 1.378 . S
C1065 C1064 1.367 . S
C1065 C1073 1.433 . S
C1066 H1062 0.929 . S
C1066 C1068 1.378 1_655 S
C1066 C1070 1.350 . S
C1067 C1070 1.463 . S
C1067 C1072 1.350 . S
C1067 N1075 1.427 . S
C1068 H1059 0.930 . S
C1068 C1066 1.378 1_455 S
C1068 C1069 1.367 . S
C1069 C1068 1.367 . S
C1069 C1071 1.433 . S
C1070 C1066 1.350 . S
C1070 C1067 1.463 . S
C1070 N1074 1.427 . S
C1071 H1061 0.929 . S
C1071 C1069 1.433 . S
C1071 N1074 1.384 1_455 S
C1072 H1063 0.929 . S
C1072 C1064 1.378 . S
C1072 C1067 1.350 . S
C1073 H1060 0.929 . S
C1073 C1065 1.433 . S
C1073 N1075 1.384 . S
N1074 C1070 1.427 . S
N1074 C1071 1.384 1_655 S
N1075 C1067 1.427 . S
N1075 C1073 1.384 . S
H1076 C1082 0.930 . S
H1077 C1086 0.930 . S
H1078 C1091 0.929 . S
H1079 C1089 0.929 . S
H1080 C1084 0.929 . S
H1081 C1090 0.929 . S
C1082 H1076 0.930 . S
C1082 C1083 1.367 . S
C1082 C1090 1.378 . S
C1083 C1082 1.367 . S
C1083 C1091 1.433 . S
C1084 H1080 0.929 . S
C1084 C1086 1.378 . S
C1084 C1088 1.350 . S
C1085 C1088 1.463 . S
C1085 C1090 1.350 . S
C1085 N1093 1.427 . S
C1086 H1077 0.930 . S
C1086 C1084 1.378 . S
C1086 C1087 1.367 . S
C1087 C1086 1.367 . S
C1087 C1089 1.433 . S
C1088 C1084 1.350 . S
C1088 C1085 1.463 . S
C1088 N1092 1.427 . S
C1089 H1079 0.929 . S
C1089 C1087 1.433 . S
C1089 N1092 1.384 . S
C1090 H1081 0.929 . S
C1090 C1082 1.378 . S
C1090 C1085 1.350 . S
C1091 H1078 0.929 . S
C1091 C1083 1.433 . S
C1091 N1093 1.384 . S
N1092 C1088 1.427 . S
N1092 C1089 1.384 . S
N1093 C1085 1.427 . S
N1093 C1091 1.384 . S
H1094 C1100 0.930 . S
H1095 C1104 0.930 . S
H1096 C1109 0.929 . S
H1097 C1107 0.929 . S
H1098 C1102 0.929 . S
H1099 C1108 0.929 . S
C1100 H1094 0.930 . S
C1100 C1101 1.367 . S
C1100 C1108 1.378 . S
C1101 C1100 1.367 . S
C1101 C1109 1.433 . S
C1102 H1098 0.929 . S
C1102 C1104 1.378 . S
C1102 C1106 1.350 . S
C1103 C1106 1.463 . S
C1103 C1108 1.350 . S
C1103 N1111 1.427 . S
C1104 H1095 0.930 . S
C1104 C1102 1.378 . S
C1104 C1105 1.367 . S
C1105 C1104 1.367 . S
C1105 C1107 1.433 . S
C1106 C1102 1.350 . S
C1106 C1103 1.463 . S
C1106 N1110 1.427 . S
C1107 H1097 0.929 . S
C1107 C1105 1.433 . S
C1107 N1110 1.384 . S
C1108 H1099 0.929 . S
C1108 C1100 1.378 . S
C1108 C1103 1.350 . S
C1109 H1096 0.929 . S
C1109 C1101 1.433 . S
C1109 N1111 1.384 . S
N1110 C1106 1.427 . S
N1110 C1107 1.384 . S
N1111 C1103 1.427 . S
N1111 C1109 1.384 . S
H1112 C1118 0.930 . S
H1113 C1122 0.930 . S
H1114 C1127 0.929 . S
H1115 C1125 0.929 . S
H1116 C1120 0.929 . S
H1117 C1126 0.929 . S
C1118 H1112 0.930 . S
C1118 C1119 1.367 . S
C1118 C1126 1.378 . S
C1119 C1118 1.367 . S
C1119 C1127 1.433 . S
C1120 H1116 0.929 . S
C1120 C1122 1.378 . S
C1120 C1124 1.350 . S
C1121 C1124 1.463 . S
C1121 C1126 1.350 . S
C1121 N1129 1.427 . S
C1122 H1113 0.930 . S
C1122 C1120 1.378 . S
C1122 C1123 1.367 . S
C1123 C1122 1.367 . S
C1123 C1125 1.433 . S
C1124 C1120 1.350 . S
C1124 C1121 1.463 . S
C1124 N1128 1.427 . S
C1125 H1115 0.929 . S
C1125 C1123 1.433 . S
C1125 N1128 1.384 . S
C1126 H1117 0.929 . S
C1126 C1118 1.378 . S
C1126 C1121 1.350 . S
C1127 H1114 0.929 . S
C1127 C1119 1.433 . S
C1127 N1129 1.384 . S
N1128 C1124 1.427 . S
N1128 C1125 1.384 . S
N1129 C1121 1.427 . S
N1129 C1127 1.384 . S
H1130 C1136 0.930 . S
H1131 C1140 0.930 . S
H1132 C1145 0.929 . S
H1133 C1143 0.929 . S
H1134 C1138 0.929 . S
H1135 C1144 0.929 . S
C1136 H1130 0.930 . S
C1136 C1137 1.367 . S
C1136 C1144 1.378 1_655 S
C1137 C1136 1.367 . S
C1137 C1145 1.433 . S
C1138 H1134 0.929 . S
C1138 C1140 1.378 . S
C1138 C1142 1.350 . S
C1139 C1142 1.463 . S
C1139 C1144 1.350 . S
C1139 N1147 1.427 . S
C1140 H1131 0.930 . S
C1140 C1138 1.378 . S
C1140 C1141 1.367 . S
C1141 C1140 1.367 . S
C1141 C1143 1.433 . S
C1142 C1138 1.350 . S
C1142 C1139 1.463 . S
C1142 N1146 1.427 . S
C1143 H1133 0.929 . S
C1143 C1141 1.433 . S
C1143 N1146 1.384 . S
C1144 H1135 0.929 . S
C1144 C1136 1.378 1_455 S
C1144 C1139 1.350 . S
C1145 H1132 0.929 . S
C1145 C1137 1.433 . S
C1145 N1147 1.384 1_655 S
N1146 C1142 1.427 . S
N1146 C1143 1.384 . S
N1147 C1139 1.427 . S
N1147 C1145 1.384 1_455 S
H1148 C1154 0.930 . S
H1149 C1158 0.930 . S
H1150 C1163 0.929 . S
H1151 C1161 0.929 . S
H1152 C1156 0.929 . S
H1153 C1162 0.929 . S
C1154 H1148 0.930 . S
C1154 C1155 1.367 . S
C1154 C1162 1.378 . S
C1155 C1154 1.367 . S
C1155 C1163 1.433 . S
C1156 H1152 0.929 . S
C1156 C1158 1.378 . S
C1156 C1160 1.350 . S
C1157 C1160 1.463 . S
C1157 C1162 1.350 . S
C1157 N1165 1.427 . S
C1158 H1149 0.930 . S
C1158 C1156 1.378 . S
C1158 C1159 1.367 . S
C1159 C1158 1.367 . S
C1159 C1161 1.433 . S
C1160 C1156 1.350 . S
C1160 C1157 1.463 . S
C1160 N1164 1.427 . S
C1161 H1151 0.929 . S
C1161 C1159 1.433 . S
C1161 N1164 1.384 . S
C1162 H1153 0.929 . S
C1162 C1154 1.378 . S
C1162 C1157 1.350 . S
C1163 H1150 0.929 . S
C1163 C1155 1.433 . S
C1163 N1165 1.384 . S
N1164 C1160 1.427 . S
N1164 C1161 1.384 . S
N1165 C1157 1.427 . S
N1165 C1163 1.384 . S
H1166 C1172 0.930 . S
H1167 C1176 0.930 . S
H1168 C1181 0.929 . S
H1169 C1179 0.929 . S
H1170 C1174 0.929 . S
H1171 C1180 0.929 . S
C1172 H1166 0.930 . S
C1172 C1173 1.367 . S
C1172 C1180 1.378 . S
C1173 C1172 1.367 . S
C1173 C1181 1.433 . S
C1174 H1170 0.929 . S
C1174 C1176 1.378 . S
C1174 C1178 1.350 . S
C1175 C1178 1.463 . S
C1175 C1180 1.350 . S
C1175 N1183 1.427 . S
C1176 H1167 0.930 . S
C1176 C1174 1.378 . S
C1176 C1177 1.367 . S
C1177 C1176 1.367 . S
C1177 C1179 1.433 1_565 S
C1178 C1174 1.350 . S
C1178 C1175 1.463 . S
C1178 N1182 1.427 . S
C1179 H1169 0.929 . S
C1179 C1177 1.433 1_545 S
C1179 N1182 1.384 1_545 S
C1180 H1171 0.929 . S
C1180 C1172 1.378 . S
C1180 C1175 1.350 . S
C1181 H1168 0.929 . S
C1181 C1173 1.433 . S
C1181 N1183 1.384 . S
N1182 C1178 1.427 . S
N1182 C1179 1.384 1_565 S
N1183 C1175 1.427 . S
N1183 C1181 1.384 . S
C327 C8 0.736 . S
C331 C259 0.736 . S
C345 C119 0.739 . S
C349 C28 0.739 . S
C363 C48 0.733 . S
C367 C299 0.733 . S
C381 C68 0.744 . S
C385 C159 0.744 . S
C399 C99 0.739 . S
C403 C168 0.739 . S
C417 C208 0.729 . S
C421 C139 0.729 . S
C435 C279 0.741 . S
C439 C188 0.741 . S
C453 C228 0.742 . S
C457 C319 0.742 . S
C471 C189 1.923 . S
C475 C19 1.890 . S
C489 C39 1.894 . S
C493 C209 1.922 . S
C507 C59 1.885 . S
C511 C229 1.918 . S
C525 C169 1.924 . S
C529 C79 1.892 . S
C543 C261 1.924 . S
C547 C88 1.892 . S
C561 C281 1.924 . S
C565 C108 1.895 . S
C579 C128 1.890 . S
C583 C301 1.923 . S
C597 C241 1.920 . S
C601 C148 1.885 . S
C615 C179 1.887 . S
C619 C29 1.919 . S
C633 C199 1.888 1_565 S
C637 C49 1.919 . S
C651 C219 1.894 . S
C655 C69 1.924 . S
C669 C9 1.918 . S
C673 C239 1.887 1_545 S
C687 C101 1.918 . S
C691 C248 1.886 . S
C705 C268 1.889 1_545 S
C709 C121 1.923 . S
C723 C141 1.924 . S
C727 C288 1.895 . S
C741 C308 1.894 1_565 S
C745 C81 1.924 . S
C759 C16 2.119 . S
C763 C216 2.121 . S
C777 C36 2.124 . S
C781 C236 2.117 . S
C795 C176 2.127 . S
C799 C56 2.123 . S
C813 C76 2.123 . S
C817 C196 2.117 . S
C831 C86 2.119 . S
C835 C286 2.128 . S
C849 C106 2.128 . S
C853 C306 2.121 . S
C867 C246 2.118 . S
C871 C126 2.128 . S
C885 C146 2.125 . S
C889 C266 2.125 . S
C903 C1 1.112 . S
C907 C156 1.158 . S
C921 C256 1.148 . S
C925 C21 1.091 . S
C939 C41 1.112 . S
C943 C116 1.157 . S
C957 C61 1.092 . S
C961 C296 1.148 . S
C975 C89 1.089 . S
C979 C66 1.146 . S
C993 C166 1.155 . S
C997 C109 1.103 . S
C1011 C129 1.088 . S
C1015 C26 1.143 . S
C1029 C206 1.145 . S
C1033 C149 1.087 . S
C1047 C161 1.111 . S
C1051 C316 1.157 . S
C1065 C96 1.144 . S
C1069 C181 1.086 . S
C1083 C276 1.157 . S
C1087 C201 1.111 . S
C1101 C221 1.087 . S
C1105 C136 1.145 . S
C1119 C249 1.108 . S
C1123 C226 1.154 . S
C1137 C269 1.109 . S
C1141 C6 1.155 . S
C1155 C186 1.155 . S
C1159 C289 1.104 . S
C1173 C46 1.154 . S
C1177 C309 1.102 . S
