# Generated by pormake.
# Topology yfx, (5)-cn, num edge types: 1
# Building blocks:
#     Node 0, Type 0, BuildingBlock: XOMCOT_clean_sbu_1, # of connection points: 5
#     Node 1, Type 0, BuildingBlock: XOMCOT_clean_sbu_1, # of connection points: 5
#     Node 2, Type 0, BuildingBlock: XOMCOT_clean_sbu_1, # of connection points: 5
#     Node 3, Type 0, BuildingBlock: XOMCOT_clean_sbu_1, # of connection points: 5
#     Node 4, Type 0, BuildingBlock: XOMCOT_clean_sbu_1, # of connection points: 5
#     Node 5, Type 0, BuildingBlock: XOMCOT_clean_sbu_1, # of connection points: 5
#     Node 6, Type 0, BuildingBlock: XOMCOT_clean_sbu_1, # of connection points: 5
#     Node 7, Type 0, BuildingBlock: XOMCOT_clean_sbu_1, # of connection points: 5
#     Edge 8, Type (0, 0), BuildingBlock: AJUNOK_clean_linker_0, # of connection points: 2
#     Edge 9, Type (0, 0), BuildingBlock: AJUNOK_clean_linker_0, # of connection points: 2
#     Edge 10, Type (0, 0), BuildingBlock: AJUNOK_clean_linker_0, # of connection points: 2
#     Edge 11, Type (0, 0), BuildingBlock: AJUNOK_clean_linker_0, # of connection points: 2
#     Edge 12, Type (0, 0), BuildingBlock: AJUNOK_clean_linker_0, # of connection points: 2
#     Edge 13, Type (0, 0), BuildingBlock: AJUNOK_clean_linker_0, # of connection points: 2
#     Edge 14, Type (0, 0), BuildingBlock: AJUNOK_clean_linker_0, # of connection points: 2
#     Edge 15, Type (0, 0), BuildingBlock: AJUNOK_clean_linker_0, # of connection points: 2
#     Edge 16, Type (0, 0), BuildingBlock: AJUNOK_clean_linker_0, # of connection points: 2
#     Edge 17, Type (0, 0), BuildingBlock: AJUNOK_clean_linker_0, # of connection points: 2
#     Edge 18, Type (0, 0), BuildingBlock: AJUNOK_clean_linker_0, # of connection points: 2
#     Edge 19, Type (0, 0), BuildingBlock: AJUNOK_clean_linker_0, # of connection points: 2
#     Edge 20, Type (0, 0), BuildingBlock: AJUNOK_clean_linker_0, # of connection points: 2
#     Edge 21, Type (0, 0), BuildingBlock: AJUNOK_clean_linker_0, # of connection points: 2
#     Edge 22, Type (0, 0), BuildingBlock: AJUNOK_clean_linker_0, # of connection points: 2
#     Edge 23, Type (0, 0), BuildingBlock: AJUNOK_clean_linker_0, # of connection points: 2
#     Edge 24, Type (0, 0), BuildingBlock: AJUNOK_clean_linker_0, # of connection points: 2
#     Edge 25, Type (0, 0), BuildingBlock: AJUNOK_clean_linker_0, # of connection points: 2
#     Edge 26, Type (0, 0), BuildingBlock: AJUNOK_clean_linker_0, # of connection points: 2
#     Edge 27, Type (0, 0), BuildingBlock: AJUNOK_clean_linker_0, # of connection points: 2
# Relax obj value: 0.109
# Max RMSD: 0.116
# Mean RMSD: 0.116
data_MOF--net-yfx--node1-XOMCOT_clean_sbu_1--edge1-AJUNOK_clean_linker_0
_symmetry_space_group_name_H-M    P1
_symmetry_Int_Tables_number       1
_symmetry_cell_setting            triclinic
loop_
_symmetry_equiv_pos_as_xyz
'x, y, z'
_cell_length_a     27.651002
_cell_length_b     27.670232
_cell_length_c     20.92641
_cell_angle_alpha  90.385508
_cell_angle_beta   89.921959
_cell_angle_gamma 90.055103
loop_
_atom_site_label
_atom_site_type_symbol
_atom_site_fract_x
_atom_site_fract_y
_atom_site_fract_z
_atom_type_partial_charge
C0 C 0.32496 0.41855 0.99745 0.0
C1 C 0.37137 0.40196 1.00708 0.0
N2 N 0.369 0.36375 0.04633 0.0
N3 N 0.2938 0.39098 1.03096 0.0
C4 C 0.3219 0.35794 0.06021 0.0
H5 H 0.31457 0.44805 0.9668 0.0
Co6 Co 0.22679 0.39674 0.03398 0.0
C7 C 0.20323 0.32717 0.14171 0.0
O8 O 0.16563 0.30767 0.11328 0.0
N9 N 0.15765 0.40333 0.03699 0.0
C10 C 0.07884 0.39183 1.01859 0.0
C11 C 0.12406 0.37116 1.0165 0.0
C12 C 0.13109 0.4431 0.05232 0.0
N13 N 0.08344 0.43742 0.04033 0.0
O14 O 0.2354 0.45502 0.08126 0.0
H15 H 0.13162 0.33507 0.99917 0.0
H16 H 0.14606 0.47674 0.06953 0.0
O17 O 0.22701 0.3604 0.11372 0.0
C18 C 0.23587 0.49046 0.04267 0.0
O19 O 0.22212 0.48294 0.98333 0.0
N20 N 0.22241 0.34254 0.97977 0.0
C21 C 0.24521 0.28416 0.87465 0.0
C22 C 0.24929 0.26617 0.93709 0.0
C23 C 0.23799 0.29628 0.98952 0.0
C24 C 0.21516 0.35902 0.91934 0.0
C25 C 0.22627 0.33052 0.86623 0.0
H26 H 0.24564 0.2837 0.03713 0.0
H27 H 0.20439 0.39618 0.91236 0.0
H28 H 0.30833 0.32907 0.08984 0.0
H29 H 0.40396 0.41527 0.98448 0.0
H30 H 0.04532 0.37477 1.00417 0.0
H31 H 0.26437 0.23065 0.94532 0.0
H32 H 0.22269 0.34566 0.81885 0.0
C33 C 0.6019 0.32627 0.99878 0.0
C34 C 0.619 0.37294 1.00219 0.0
N35 N 0.66073 0.37235 0.03495 0.0
N36 N 0.63247 0.2967 1.03015 0.0
C37 C 0.66828 0.32603 0.05097 0.0
H38 H 0.56968 0.31476 0.97384 0.0
Co39 Co 0.62673 0.23009 0.04097 0.0
C40 C 0.65812 0.21943 0.17461 0.0
O41 O 0.61956 0.19275 0.18452 0.0
N42 N 0.62046 0.16202 0.05146 0.0
C43 C 0.63709 0.08349 0.06082 0.0
C44 C 0.65648 0.12937 0.05646 0.0
C45 C 0.5796 0.1348 0.05342 0.0
N46 N 0.58848 0.087 0.05911 0.0
O47 O 0.56951 0.24177 0.08978 0.0
H48 H 0.69458 0.13822 0.05604 0.0
H49 H 0.54352 0.14924 0.05124 0.0
O50 O 0.66679 0.23513 0.11837 0.0
C51 C 0.5329 0.24179 0.0529 0.0
O52 O 0.53863 0.22764 0.99326 0.0
N53 N 0.67977 0.22177 0.98607 0.0
C54 C 0.73976 0.2445 0.88322 0.0
C55 C 0.75795 0.24485 0.94594 0.0
C56 C 0.72708 0.23339 0.99726 0.0
C57 C 0.6631 0.21696 0.92517 0.0
C58 C 0.69236 0.22843 0.87308 0.0
H59 H 0.74005 0.23801 0.04561 0.0
H60 H 0.6253 0.20881 0.9173 0.0
H61 H 0.70003 0.31381 0.07612 0.0
H62 H 0.60323 0.40449 0.98014 0.0
H63 H 0.65749 0.05021 0.06298 0.0
H64 H 0.79438 0.25732 0.95552 0.0
H65 H 0.67712 0.22758 0.82542 0.0
C66 C 0.71481 0.64165 0.95654 0.0
C67 C 0.66771 0.65715 0.96133 0.0
N68 N 0.65756 0.66444 1.02354 0.0
N69 N 0.73442 0.64064 1.01545 0.0
C70 C 0.69822 0.65352 0.05533 0.0
H71 H 0.73457 0.63517 0.9127 0.0
Co72 Co 0.79953 0.6324 0.03351 0.0
C73 C 0.80013 0.65795 0.17172 0.0
O74 O 0.82195 0.61697 0.18441 0.0
N75 N 0.86553 0.62301 0.05063 0.0
C76 C 0.94265 0.63125 0.0792 0.0
C77 C 0.89824 0.65396 0.0757 0.0
C78 C 0.89094 0.58218 0.0388 0.0
N79 N 0.93794 0.5861 0.05544 0.0
O80 O 0.78345 0.57336 0.07423 0.0
H81 H 0.89032 0.69064 0.09049 0.0
H82 H 0.8752 0.54961 1.01939 0.0
O83 O 0.79126 0.66879 0.11365 0.0
C84 C 0.77932 0.54022 1.03207 0.0
O85 O 0.79041 0.55017 0.97249 0.0
N86 N 0.81299 0.6886 0.98714 0.0
C87 C 0.79414 0.75296 0.88821 0.0
C88 C 0.78243 0.76499 0.9517 0.0
C89 C 0.79205 0.73218 1.00068 0.0
C90 C 0.82971 0.67878 0.92715 0.0
C91 C 0.82067 0.71056 0.87681 0.0
H92 H 0.77783 0.73978 0.04766 0.0
H93 H 0.84492 0.64359 0.91673 0.0
H94 H 0.70211 0.65769 0.10634 0.0
H95 H 0.64409 0.66635 0.92202 0.0
H96 H 0.9759 0.64692 0.0971 0.0
H97 H 0.76307 0.79801 0.96283 0.0
H98 H 0.83058 0.69993 0.82864 0.0
C99 C 0.42228 0.69507 1.00175 0.0
C100 C 0.40266 0.64951 1.00703 0.0
N101 N 0.35997 0.65361 0.03736 0.0
N102 N 0.39242 0.72745 1.02986 0.0
C103 C 0.35439 0.70094 0.05012 0.0
H104 H 0.45602 0.70375 0.97842 0.0
Co105 Co 0.40102 0.79402 0.04006 0.0
C106 C 0.3664 0.80794 0.17216 0.0
O107 O 0.40312 0.83666 0.18449 0.0
N108 N 0.40976 0.862 0.05028 0.0
C109 C 0.39595 0.94109 0.06183 0.0
C110 C 0.37495 0.89589 0.05728 0.0
C111 C 0.45155 0.88784 0.05107 0.0
N112 N 0.44426 0.93578 0.05846 0.0
O113 O 0.45709 0.78111 0.09002 0.0
H114 H 0.33661 0.88834 0.05904 0.0
H115 H 0.48705 0.87253 0.04509 0.0
O116 O 0.36048 0.79096 0.11594 0.0
C117 C 0.49336 0.77962 0.05259 0.0
O118 O 0.48731 0.79189 0.99254 0.0
N119 N 0.34897 0.8036 0.98503 0.0
C120 C 0.28422 0.78981 0.88394 0.0
C121 C 0.26741 0.79495 0.94727 0.0
C122 C 0.30054 0.80148 0.99754 0.0
C123 C 0.36564 0.80124 0.92397 0.0
C124 C 0.33419 0.79353 0.87304 0.0
H125 H 0.28748 0.80215 0.04623 0.0
H126 H 0.40421 0.80129 0.91536 0.0
H127 H 0.32287 0.71588 0.07363 0.0
H128 H 0.41779 0.61617 0.98847 0.0
H129 H 0.37719 0.97516 0.06772 0.0
H130 H 0.22921 0.79223 0.95813 0.0
H131 H 0.34957 0.78768 0.82606 0.0
C132 C 0.82912 0.92485 0.50389 0.0
C133 C 0.87567 0.9078 0.50882 0.0
N134 N 0.87407 0.86517 0.53916 0.0
N135 N 0.79849 0.89341 0.53198 0.0
C136 C 0.82707 0.85682 0.55162 0.0
H137 H 0.81858 0.95788 0.48059 0.0
Co138 Co 0.7316 0.89913 0.542 0.0
C139 C 0.72065 0.86563 0.67427 0.0
O140 O 0.6927 0.90289 0.68671 0.0
N141 N 0.66353 0.90519 0.55148 0.0
C142 C 0.58516 0.89106 0.56941 0.0
C143 C 0.63104 0.87117 0.56873 0.0
C144 C 0.63624 0.94508 0.54129 0.0
N145 N 0.58861 0.93758 0.55151 0.0
O146 O 0.7422 0.95534 0.59324 0.0
H147 H 0.64008 0.83424 0.58037 0.0
H148 H 0.65062 0.97965 0.52777 0.0
O149 O 0.73634 0.85856 0.61761 0.0
C150 C 0.74347 0.99324 0.55924 0.0
O151 O 0.73346 0.98957 0.49802 0.0
N152 N 0.72383 0.84693 0.48642 0.0
C153 C 0.73833 0.78195 0.38534 0.0
C154 C 0.73243 0.7653 0.44842 0.0
C155 C 0.7255 0.79858 0.49872 0.0
C156 C 0.72711 0.86345 0.42557 0.0
C157 C 0.73521 0.83188 0.37468 0.0
H158 H 0.72395 0.78567 0.5473 0.0
H159 H 0.72725 0.902 0.41723 0.0
H160 H 0.81386 0.82431 0.57416 0.0
H161 H 0.90797 0.92453 0.48973 0.0
H162 H 0.55186 0.8726 0.58136 0.0
H163 H 0.73464 0.72712 0.45902 0.0
H164 H 0.74159 0.84706 0.32789 0.0
C165 C 0.13722 0.81091 0.45695 0.0
C166 C 0.15253 0.85819 0.46006 0.0
N167 N 0.16335 0.86867 0.52127 0.0
N168 N 0.13972 0.79152 0.51577 0.0
C169 C 0.15469 0.82799 0.55407 0.0
H170 H 0.12852 0.79087 0.41394 0.0
Co171 Co 0.13332 0.72628 0.53432 0.0
C172 C 0.16048 0.72648 0.67147 0.0
O173 O 0.12011 0.70358 0.68483 0.0
N174 N 0.12595 0.66011 0.55211 0.0
C175 C 0.13824 0.58395 0.58164 0.0
C176 C 0.15911 0.629 0.57506 0.0
C177 C 0.08551 0.63304 0.54464 0.0
N178 N 0.09183 0.58662 0.56232 0.0
O179 O 0.07469 0.74112 0.57747 0.0
H180 H 0.19597 0.63859 0.58693 0.0
H181 H 0.05186 0.64674 0.52602 0.0
O182 O 0.17064 0.73583 0.61325 0.0
C183 C 0.03995 0.74401 0.53784 0.0
O184 O 0.04754 0.73108 0.47812 0.0
N185 N 0.18918 0.71418 0.4858 0.0
C186 C 0.25266 0.73412 0.38561 0.0
C187 C 0.26498 0.74588 0.44889 0.0
C188 C 0.23264 0.73568 0.49852 0.0
C189 C 0.17903 0.69766 0.42577 0.0
C190 C 0.2104 0.7072 0.3748 0.0
H191 H 0.24053 0.74975 0.5455 0.0
H192 H 0.14392 0.682 0.41602 0.0
H193 H 0.1618 0.82442 0.60442 0.0
H194 H 0.15927 0.88171 0.41986 0.0
H195 H 0.15563 0.55211 0.6006 0.0
H196 H 0.29791 0.7656 0.4594 0.0
H197 H 0.19964 0.69725 0.32673 0.0
C198 C 0.19737 0.10506 0.49385 0.0
C199 C 0.15107 0.12211 0.50309 0.0
N200 N 0.15347 0.16044 0.5428 0.0
N201 N 0.22855 0.13242 0.528 0.0
C202 C 0.20055 0.16618 0.55682 0.0
H203 H 0.20771 0.07527 0.46307 0.0
Co204 Co 0.29546 0.12512 0.53164 0.0
C205 C 0.31975 0.19491 0.64061 0.0
O206 O 0.35815 0.21371 0.61347 0.0
N207 N 0.36455 0.11685 0.53483 0.0
C208 C 0.44364 0.12827 0.51854 0.0
C209 C 0.39862 0.14929 0.51717 0.0
C210 C 0.39066 0.07627 0.54721 0.0
N211 N 0.43858 0.08197 0.5365 0.0
O212 O 0.28524 0.0679 0.57978 0.0
H213 H 0.39152 0.18593 0.50232 0.0
H214 H 0.37517 0.04222 0.56148 0.0
O215 O 0.29559 0.16236 0.6113 0.0
C216 C 0.28364 0.03167 0.54205 0.0
O217 O 0.29717 0.03741 0.48235 0.0
N218 N 0.30137 0.17854 0.47724 0.0
C219 C 0.27899 0.23646 0.37254 0.0
C220 C 0.27529 0.25491 0.43514 0.0
C221 C 0.28643 0.22507 0.48731 0.0
C222 C 0.30849 0.1616 0.41669 0.0
C223 C 0.29756 0.18986 0.36378 0.0
H224 H 0.27903 0.23809 0.53504 0.0
H225 H 0.3188 0.12425 0.40947 0.0
H226 H 0.21419 0.19542 0.58623 0.0
H227 H 0.11854 0.10902 0.47999 0.0
H228 H 0.47743 0.14576 0.50648 0.0
H229 H 0.26054 0.29062 0.44374 0.0
H230 H 0.30096 0.17435 0.3163 0.0
C231 C 0.91498 0.20138 0.50065 0.0
C232 C 0.89842 0.1551 0.51079 0.0
N233 N 0.86196 0.15743 0.55336 0.0
N234 N 0.88927 0.23237 0.53725 0.0
C235 C 0.85718 0.20439 0.56864 0.0
H236 H 0.94352 0.21183 0.46818 0.0
Co237 Co 0.89694 0.29881 0.54202 0.0
C238 C 0.83349 0.32448 0.65654 0.0
O239 O 0.81859 0.36603 0.63398 0.0
N240 N 0.90583 0.36755 0.54653 0.0
C241 C 0.8994 0.44676 0.52807 0.0
C242 C 0.87636 0.40267 0.52433 0.0
C243 C 0.94621 0.39204 0.56473 0.0
N244 N 0.94376 0.43987 0.55257 0.0
O245 O 0.95585 0.28786 0.58663 0.0
H246 H 0.84073 0.3969 0.50456 0.0
H247 H 0.97747 0.37541 0.58604 0.0
O248 O 0.86236 0.29849 0.62348 0.0
C249 C 0.99176 0.28656 0.54846 0.0
O250 O 0.98577 0.30195 0.48971 0.0
N251 N 0.84129 0.30512 0.49106 0.0
C252 C 0.77606 0.28477 0.3919 0.0
C253 C 0.76164 0.28175 0.45639 0.0
C254 C 0.79497 0.29179 0.50548 0.0
C255 C 0.85492 0.31099 0.42899 0.0
C256 C 0.82297 0.30136 0.37887 0.0
H257 H 0.78439 0.28535 0.55434 0.0
H258 H 0.89217 0.31979 0.4182 0.0
H259 H 0.82999 0.21795 0.60129 0.0
H260 H 0.91074 0.12255 0.48686 0.0
H261 H 0.88542 0.4809 0.5112 0.0
H262 H 0.72553 0.26991 0.46888 0.0
H263 H 0.83604 0.30393 0.3302 0.0
C264 C 0.49159 0.31656 0.08946 0.0
C265 C 0.48846 0.26812 0.0691 0.0
C266 C 0.45166 0.34757 0.0842 0.0
C267 C 0.40735 0.33059 0.06015 0.0
H268 H 0.526 0.33159 0.10439 0.0
H269 H 0.45582 0.38541 0.09659 0.0
S270 S 0.37964 0.20575 1.00652 0.0
N271 N 0.43707 0.20393 1.02802 0.0
N272 N 0.36167 0.26177 1.02024 0.0
C273 C 0.40291 0.28144 0.04423 0.0
C274 C 0.44365 0.25025 0.0483 0.0
C275 C 0.67851 0.45467 0.07314 0.0
C276 C 0.69368 0.41182 0.04293 0.0
C277 C 0.70871 0.49543 0.07504 0.0
C278 C 0.75431 0.49459 0.04528 0.0
H279 H 0.6426 0.45692 0.09365 0.0
H280 H 0.69497 0.52866 0.0959 0.0
S281 S 0.8109 0.39032 0.9621 0.0
N282 N 0.75766 0.36997 0.98574 0.0
N283 N 0.81393 0.447 0.98721 0.0
C284 C 0.77041 0.45135 1.01699 0.0
C285 C 0.74016 0.40974 1.01632 0.0
C286 C 0.57657 0.67495 0.07016 0.0
C287 C 0.61975 0.69491 0.04704 0.0
C288 C 0.53613 0.70446 0.08152 0.0
C289 C 0.53807 0.75433 0.06894 0.0
H290 H 0.57327 0.63619 0.07546 0.0
H291 H 0.50211 0.68753 0.09406 0.0
S292 S 0.64567 0.82422 1.01907 0.0
N293 N 0.6644 0.76753 1.02076 0.0
N294 N 0.58823 0.82298 0.04082 0.0
C295 C 0.58242 0.77493 0.05155 0.0
C296 C 0.62339 0.7451 0.04058 0.0
C297 C 0.30943 0.53266 0.08159 0.0
C298 C 0.26216 0.53531 0.05721 0.0
C299 C 0.34101 0.57217 0.07682 0.0
C300 C 0.32578 0.61569 0.04912 0.0
H301 H 0.32329 0.49881 0.09975 0.0
H302 H 0.37802 0.5683 0.09283 0.0
S303 S 0.20412 0.64226 0.98456 0.0
N304 N 0.20065 0.58561 1.00858 0.0
N305 N 0.25959 0.66038 1.00158 0.0
C306 C 0.27762 0.61983 1.02894 0.0
C307 C 0.24586 0.57943 1.03257 0.0
C308 C 0.95129 0.75457 0.52856 0.0
C309 C 0.99573 0.77115 0.55281 0.0
C310 C 0.91063 0.78471 0.52777 0.0
C311 C 0.9137 0.83277 0.54935 0.0
H312 H 0.94856 0.71879 0.50746 0.0
H313 H 0.87743 0.77141 0.50657 0.0
S314 S 0.02082 0.89263 0.62066 0.0
N315 N 0.03958 0.8375 0.60275 0.0
N316 N 0.96335 0.89471 0.59927 0.0
C317 C 0.95725 0.84911 0.57619 0.0
C318 C 0.99829 0.81807 0.57854 0.0
C319 C 0.20668 0.9913 0.57087 0.0
C320 C 0.25653 0.98779 0.55783 0.0
C321 C 0.17607 0.95127 0.56202 0.0
C322 C 0.19488 0.9068 0.54134 0.0
H323 H 0.19067 0.02598 0.58249 0.0
H324 H 0.1374 0.95563 0.56793 0.0
S325 S 0.32353 0.87701 0.5127 0.0
N326 N 0.32378 0.93521 0.53089 0.0
N327 N 0.26639 0.85966 0.51655 0.0
C328 C 0.245 0.90185 0.53413 0.0
C329 C 0.2759 0.94252 0.54203 0.0
C330 C 0.11957 0.24197 0.53411 0.0
C331 C 0.11546 0.19424 0.55577 0.0
C332 C 0.07998 0.27344 0.53679 0.0
C333 C 0.03556 0.25854 0.56293 0.0
H334 H 0.15264 0.2539 0.51127 0.0
H335 H 0.08336 0.30881 0.51533 0.0
S336 S 1.00878 0.13869 0.63297 0.0
N337 N 0.06539 0.13441 0.60809 0.0
N338 N 0.99132 0.19426 0.61622 0.0
C339 C 0.03235 0.21207 0.5894 0.0
C340 C 0.07226 0.1796 0.58483 0.0
C341 C 0.84907 0.07368 0.58789 0.0
C342 C 0.83007 0.1188 0.57072 0.0
C343 C 0.81891 0.03321 0.59362 0.0
C344 C 0.76922 0.03667 0.58041 0.0
H345 H 0.88773 0.06931 0.59373 0.0
H346 H 0.83528 0.99834 0.60242 0.0
S347 S 0.70105 0.14773 0.54229 0.0
N348 N 0.75782 0.16578 0.54843 0.0
N349 N 0.70152 0.0891 0.55657 0.0
C350 C 0.74935 0.0822 0.56823 0.0
C351 C 0.77976 0.12355 0.56391 0.0
C352 C 0.22223 0.24014 0.27977 0.0
C353 C 0.25854 0.2625 0.31666 0.0
C354 C 0.20379 0.26193 0.22456 0.0
C355 C 0.2213 0.30683 0.20319 0.0
H356 H 0.20813 0.20517 0.29356 0.0
H357 H 0.17631 0.24271 0.19767 0.0
S358 S 0.31583 0.38084 0.28386 0.0
N359 N 0.31062 0.33246 0.32921 0.0
N360 N 0.2767 0.37349 0.225 0.0
C361 C 0.25724 0.32998 0.24037 0.0
C362 C 0.27558 0.30788 0.2972 0.0
C363 C 0.71455 0.27861 0.22828 0.0
C364 C 0.68873 0.23474 0.22994 0.0
C365 C 0.74153 0.29497 0.28113 0.0
C366 C 0.74425 0.26807 0.33803 0.0
H367 H 0.71328 0.3011 0.18626 0.0
H368 H 0.76034 0.32919 0.2774 0.0
S369 S 0.68657 0.14862 0.36523 0.0
N370 N 0.6692 0.16369 0.2926 0.0
N371 N 0.72086 0.1936 0.3909 0.0
C372 C 0.71915 0.22374 0.33997 0.0
C373 C 0.69129 0.2073 0.28631 0.0
C374 C 0.80122 0.68288 0.28773 0.0
C375 C 0.78361 0.69005 0.22528 0.0
C376 C 0.78559 0.71171 0.33944 0.0
C377 C 0.75101 0.74851 0.33125 0.0
H378 H 0.82794 0.65518 0.2968 0.0
H379 H 0.80169 0.7058 0.38589 0.0
S380 S 0.69011 0.77971 0.17904 0.0
N381 N 0.72857 0.73665 0.15913 0.0
N382 N 0.69669 0.78774 0.25663 0.0
C383 C 0.73187 0.75495 0.26956 0.0
C384 C 0.74879 0.72663 0.21661 0.0
C385 C 0.32235 0.74129 0.22833 0.0
C386 C 0.33554 0.79041 0.22518 0.0
C387 C 0.29574 0.7232 0.28028 0.0
C388 C 0.28117 0.75361 0.33092 0.0
H389 H 0.33382 0.7163 0.19129 0.0
H390 H 0.28711 0.68501 0.28127 0.0
S391 S 0.30048 0.88632 0.34046 0.0
N392 N 0.32884 0.86973 0.27438 0.0
N393 N 0.27741 0.83634 0.37066 0.0
C394 C 0.29261 0.80316 0.32694 0.0
C395 C 0.32019 0.82138 0.27451 0.0
C396 C 0.78684 0.82053 0.72992 0.0
C397 C 0.73809 0.83509 0.72741 0.0
C398 C 0.80489 0.79442 0.78215 0.0
C399 C 0.77481 0.78168 0.83374 0.0
H400 H 0.8116 0.8305 0.69211 0.0
H401 H 0.84282 0.78465 0.78251 0.0
S402 S 0.64289 0.80553 0.84557 0.0
N403 N 0.65938 0.83197 0.77847 0.0
N404 N 0.69257 0.78146 0.87528 0.0
C405 C 0.72558 0.79467 0.83052 0.0
C406 C 0.70744 0.82174 0.77779 0.0
C407 C 0.18553 0.72605 0.78709 0.0
C408 C 0.19265 0.7434 0.72456 0.0
C409 C 0.21425 0.74208 0.83847 0.0
C410 C 0.25097 0.77679 0.82996 0.0
H411 H 0.15789 0.69926 0.79652 0.0
H412 H 0.20827 0.72623 0.88496 0.0
S413 S 0.28216 0.83701 0.67725 0.0
N414 N 0.23925 0.79819 0.65784 0.0
N415 N 0.29012 0.83091 0.75482 0.0
C416 C 0.25743 0.79564 0.76814 0.0
C417 C 0.2292 0.77829 0.71547 0.0
C418 C 0.32106 0.25841 0.72687 0.0
C419 C 0.30189 0.21474 0.70289 0.0
C420 C 0.30311 0.27973 0.78312 0.0
C421 C 0.26568 0.25806 0.81843 0.0
H422 H 0.34946 0.27708 0.70126 0.0
H423 H 0.31833 0.31389 0.79884 0.0
S424 S 0.20394 0.1429 0.77884 0.0
N425 N 0.24376 0.14988 0.72069 0.0
N426 N 0.21075 0.19006 0.82684 0.0
C427 C 0.24699 0.21384 0.79643 0.0
C428 C 0.26484 0.19223 0.73857 0.0
C429 C 0.74851 0.30706 0.79831 0.0
C430 C 0.76711 0.26599 0.82902 0.0
C431 C 0.771 0.32646 0.74397 0.0
C432 C 0.81278 0.30521 0.71735 0.0
H433 H 0.71583 0.32405 0.81613 0.0
H434 H 0.75464 0.35766 0.72176 0.0
S435 S 0.87671 0.19776 0.78148 0.0
N436 N 0.83043 0.20549 0.83051 0.0
N437 N 0.87278 0.24129 0.72811 0.0
C438 C 0.83233 0.26455 0.74863 0.0
C439 C 0.80955 0.24517 0.8045 0.0
C440 C 1.01095 0.54499 0.0973 0.0
C441 C 0.9748 0.54914 0.05027 0.0
C442 C 0.04616 0.50837 0.09395 0.0
C443 C 0.0465 0.47435 0.04361 0.0
H444 H 1.01153 0.56974 0.13757 0.0
H445 H 0.07299 0.50624 0.13146 0.0
S446 S 0.96349 0.47286 0.90437 0.0
N447 N 0.94426 0.51838 0.94896 0.0
N448 N 1.00987 0.44965 0.94307 0.0
C449 C 1.01125 0.47877 0.99557 0.0
C450 C 0.9756 0.5161 0.9988 0.0
C451 C 0.50848 0.05371 1.02732 0.0
C452 C 0.5528 0.04841 0.05995 0.0
C453 C 0.47312 0.01715 1.02763 0.0
C454 C 0.48063 0.97345 0.06003 0.0
H455 H 0.5012 0.08615 1.00039 0.0
H456 H 0.43996 0.02273 1.00124 0.0
S457 S 0.5881 0.94239 0.15739 0.0
N458 N 0.60043 0.99662 0.12915 0.0
N459 N 0.53445 0.92784 0.12852 0.0
C460 C 0.52437 0.96771 0.09343 0.0
C461 C 0.56029 1.0051 0.09364 0.0
C462 C 0.47491 1.00914 0.58605 0.0
C463 C 0.47582 0.04516 0.53877 0.0
C464 C 0.51133 0.97363 0.58944 0.0
C465 C 0.55006 0.97272 0.54561 0.0
H466 H 0.44634 1.00899 0.62147 0.0
H467 H 0.50977 0.94738 0.6275 0.0
S468 S 0.56562 0.05458 0.40723 0.0
N469 N 0.51642 0.07457 0.44348 0.0
N470 N 0.58436 1.00826 0.44983 0.0
C471 C 0.55042 1.0075 0.49682 0.0
C472 C 0.51349 0.04357 0.49341 0.0
C473 C 1.00703 0.55954 0.57615 0.0
C474 C 0.05566 0.54874 0.56187 0.0
C475 C 0.97097 0.52372 0.57413 0.0
C476 C 0.98197 0.47553 0.5578 0.0
H477 H 0.99677 0.59603 0.58929 0.0
H478 H 0.93412 0.5338 0.58551 0.0
S479 S 0.10309 0.42899 0.5114 0.0
N480 N 0.11243 0.48667 0.528 0.0
N481 N 0.04489 0.41954 0.52387 0.0
C482 C 0.03045 0.46423 0.54316 0.0
C483 C 0.06719 0.50074 0.5453 0.0
loop_
_geom_bond_atom_site_label_1
_geom_bond_atom_site_label_2
_geom_bond_distance
_geom_bond_site_symmetry_2
_ccdc_geom_bond_type
C0 C1 1.351 . S
C0 N3 1.368 1_556 S
C0 H5 0.931 . S
C1 C0 1.351 . S
C1 N2 1.373 1_556 S
C1 H29 0.930 . S
N2 C1 1.373 1_554 S
N2 C4 1.340 . S
N3 C0 1.368 1_554 S
N3 C4 1.321 . S
N3 Co6 2.135 . S
C4 N2 1.340 . S
C4 N3 1.321 . S
C4 H28 0.930 . S
H5 C0 0.931 . S
Co6 N3 2.135 . S
Co6 N9 2.121 . S
Co6 O14 2.055 . S
Co6 O17 2.039 . S
Co6 N20 2.140 1_554 S
C7 O8 1.227 . S
C7 O17 1.265 . S
O8 C7 1.227 . S
N9 Co6 2.121 . S
N9 C11 1.375 . S
N9 C12 1.313 . S
C10 C11 1.338 . S
C10 N13 1.377 . S
C10 H30 0.930 . S
C11 N9 1.375 . S
C11 C10 1.338 . S
C11 H15 0.931 . S
C12 N9 1.313 . S
C12 N13 1.344 . S
C12 H16 0.930 . S
N13 C10 1.377 . S
N13 C12 1.344 . S
O14 Co6 2.055 . S
O14 C18 1.244 1_554 S
H15 C11 0.931 . S
H16 C12 0.930 . S
O17 Co6 2.039 . S
O17 C7 1.265 . S
C18 O14 1.244 1_556 S
C18 O19 1.236 . S
O19 C18 1.236 . S
N20 Co6 2.140 1_556 S
N20 C23 1.346 . S
N20 C24 1.345 . S
C21 C22 1.387 . S
C21 C25 1.391 . S
C22 C21 1.387 . S
C22 C23 1.369 . S
C22 H31 0.929 . S
C23 N20 1.346 . S
C23 C22 1.369 . S
C23 H26 0.928 . S
C24 N20 1.345 . S
C24 C25 1.371 . S
C24 H27 0.931 . S
C25 C21 1.391 . S
C25 C24 1.371 . S
C25 H32 0.930 . S
H26 C23 0.928 . S
H27 C24 0.931 . S
H28 C4 0.930 . S
H29 C1 0.930 . S
H30 C10 0.930 . S
H31 C22 0.929 . S
H32 C25 0.930 . S
C33 C34 1.351 . S
C33 N36 1.368 1_556 S
C33 H38 0.931 . S
C34 C33 1.351 . S
C34 N35 1.373 1_556 S
C34 H62 0.930 . S
N35 C34 1.373 1_554 S
N35 C37 1.340 . S
N36 C33 1.368 1_554 S
N36 C37 1.321 . S
N36 Co39 2.135 . S
C37 N35 1.340 . S
C37 N36 1.321 . S
C37 H61 0.930 . S
H38 C33 0.931 . S
Co39 N36 2.135 . S
Co39 N42 2.121 . S
Co39 O47 2.055 . S
Co39 O50 2.039 . S
Co39 N53 2.140 1_554 S
C40 O41 1.227 . S
C40 O50 1.265 . S
O41 C40 1.227 . S
N42 Co39 2.121 . S
N42 C44 1.375 . S
N42 C45 1.313 . S
C43 C44 1.338 . S
C43 N46 1.377 . S
C43 H63 0.930 . S
C44 N42 1.375 . S
C44 C43 1.338 . S
C44 H48 0.931 . S
C45 N42 1.313 . S
C45 N46 1.344 . S
C45 H49 0.930 . S
N46 C43 1.377 . S
N46 C45 1.344 . S
O47 Co39 2.055 . S
O47 C51 1.244 1_554 S
H48 C44 0.931 . S
H49 C45 0.930 . S
O50 Co39 2.039 . S
O50 C40 1.265 . S
C51 O47 1.244 1_556 S
C51 O52 1.236 . S
O52 C51 1.236 . S
N53 Co39 2.140 1_556 S
N53 C56 1.346 . S
N53 C57 1.345 . S
C54 C55 1.387 . S
C54 C58 1.391 . S
C55 C54 1.387 . S
C55 C56 1.369 . S
C55 H64 0.929 . S
C56 N53 1.346 . S
C56 C55 1.369 . S
C56 H59 0.928 . S
C57 N53 1.345 . S
C57 C58 1.371 . S
C57 H60 0.931 . S
C58 C54 1.391 . S
C58 C57 1.371 . S
C58 H65 0.930 . S
H59 C56 0.928 . S
H60 C57 0.931 . S
H61 C37 0.930 . S
H62 C34 0.930 . S
H63 C43 0.930 . S
H64 C55 0.929 . S
H65 C58 0.930 . S
C66 C67 1.351 . S
C66 N69 1.368 1_556 S
C66 H71 0.931 . S
C67 C66 1.351 . S
C67 N68 1.373 1_556 S
C67 H95 0.930 . S
N68 C67 1.373 1_554 S
N68 C70 1.340 . S
N69 C66 1.368 1_554 S
N69 C70 1.321 . S
N69 Co72 2.135 . S
C70 N68 1.340 . S
C70 N69 1.321 . S
C70 H94 0.930 . S
H71 C66 0.931 . S
Co72 N69 2.135 . S
Co72 N75 2.121 . S
Co72 O80 2.055 . S
Co72 O83 2.039 . S
Co72 N86 2.140 1_554 S
C73 O74 1.227 . S
C73 O83 1.265 . S
O74 C73 1.227 . S
N75 Co72 2.121 . S
N75 C77 1.375 . S
N75 C78 1.313 . S
C76 C77 1.338 . S
C76 N79 1.377 . S
C76 H96 0.930 . S
C77 N75 1.375 . S
C77 C76 1.338 . S
C77 H81 0.931 . S
C78 N75 1.313 . S
C78 N79 1.344 . S
C78 H82 0.930 . S
N79 C76 1.377 . S
N79 C78 1.344 . S
O80 Co72 2.055 . S
O80 C84 1.244 1_554 S
H81 C77 0.931 . S
H82 C78 0.930 . S
O83 Co72 2.039 . S
O83 C73 1.265 . S
C84 O80 1.244 1_556 S
C84 O85 1.236 . S
O85 C84 1.236 . S
N86 Co72 2.140 1_556 S
N86 C89 1.346 . S
N86 C90 1.345 . S
C87 C88 1.387 . S
C87 C91 1.391 . S
C88 C87 1.387 . S
C88 C89 1.369 . S
C88 H97 0.929 . S
C89 N86 1.346 . S
C89 C88 1.369 . S
C89 H92 0.928 . S
C90 N86 1.345 . S
C90 C91 1.371 . S
C90 H93 0.931 . S
C91 C87 1.391 . S
C91 C90 1.371 . S
C91 H98 0.930 . S
H92 C89 0.928 . S
H93 C90 0.931 . S
H94 C70 0.930 . S
H95 C67 0.930 . S
H96 C76 0.930 . S
H97 C88 0.929 . S
H98 C91 0.930 . S
C99 C100 1.351 . S
C99 N102 1.368 1_556 S
C99 H104 0.931 . S
C100 C99 1.351 . S
C100 N101 1.373 1_556 S
C100 H128 0.930 . S
N101 C100 1.373 1_554 S
N101 C103 1.340 . S
N102 C99 1.368 1_554 S
N102 C103 1.321 . S
N102 Co105 2.135 . S
C103 N101 1.340 . S
C103 N102 1.321 . S
C103 H127 0.930 . S
H104 C99 0.931 . S
Co105 N102 2.135 . S
Co105 N108 2.121 . S
Co105 O113 2.055 . S
Co105 O116 2.039 . S
Co105 N119 2.140 1_554 S
C106 O107 1.227 . S
C106 O116 1.265 . S
O107 C106 1.227 . S
N108 Co105 2.121 . S
N108 C110 1.375 . S
N108 C111 1.313 . S
C109 C110 1.338 . S
C109 N112 1.377 . S
C109 H129 0.930 . S
C110 N108 1.375 . S
C110 C109 1.338 . S
C110 H114 0.931 . S
C111 N108 1.313 . S
C111 N112 1.344 . S
C111 H115 0.930 . S
N112 C109 1.377 . S
N112 C111 1.344 . S
O113 Co105 2.055 . S
O113 C117 1.244 1_554 S
H114 C110 0.931 . S
H115 C111 0.930 . S
O116 Co105 2.039 . S
O116 C106 1.265 . S
C117 O113 1.244 1_556 S
C117 O118 1.236 . S
O118 C117 1.236 . S
N119 Co105 2.140 1_556 S
N119 C122 1.346 . S
N119 C123 1.345 . S
C120 C121 1.387 . S
C120 C124 1.391 . S
C121 C120 1.387 . S
C121 C122 1.369 . S
C121 H130 0.929 . S
C122 N119 1.346 . S
C122 C121 1.369 . S
C122 H125 0.928 . S
C123 N119 1.345 . S
C123 C124 1.371 . S
C123 H126 0.931 . S
C124 C120 1.391 . S
C124 C123 1.371 . S
C124 H131 0.930 . S
H125 C122 0.928 . S
H126 C123 0.931 . S
H127 C103 0.930 . S
H128 C100 0.930 . S
H129 C109 0.930 . S
H130 C121 0.929 . S
H131 C124 0.930 . S
C132 C133 1.351 . S
C132 N135 1.368 . S
C132 H137 0.931 . S
C133 C132 1.351 . S
C133 N134 1.373 . S
C133 H161 0.930 . S
N134 C133 1.373 . S
N134 C136 1.340 . S
N135 C132 1.368 . S
N135 C136 1.321 . S
N135 Co138 2.135 . S
C136 N134 1.340 . S
C136 N135 1.321 . S
C136 H160 0.930 . S
H137 C132 0.931 . S
Co138 N135 2.135 . S
Co138 N141 2.121 . S
Co138 O146 2.055 . S
Co138 O149 2.039 . S
Co138 N152 2.140 . S
C139 O140 1.227 . S
C139 O149 1.265 . S
O140 C139 1.227 . S
N141 Co138 2.121 . S
N141 C143 1.375 . S
N141 C144 1.313 . S
C142 C143 1.338 . S
C142 N145 1.377 . S
C142 H162 0.930 . S
C143 N141 1.375 . S
C143 C142 1.338 . S
C143 H147 0.931 . S
C144 N141 1.313 . S
C144 N145 1.344 . S
C144 H148 0.930 . S
N145 C142 1.377 . S
N145 C144 1.344 . S
O146 Co138 2.055 . S
O146 C150 1.253 . S
H147 C143 0.931 . S
H148 C144 0.930 . S
O149 Co138 2.039 . S
O149 C139 1.265 . S
C150 O146 1.253 . S
C150 O151 1.227 . S
O151 C150 1.227 . S
N152 Co138 2.140 . S
N152 C155 1.346 . S
N152 C156 1.345 . S
C153 C154 1.387 . S
C153 C157 1.391 . S
C154 C153 1.387 . S
C154 C155 1.369 . S
C154 H163 0.929 . S
C155 N152 1.346 . S
C155 C154 1.369 . S
C155 H158 0.928 . S
C156 N152 1.345 . S
C156 C157 1.371 . S
C156 H159 0.931 . S
C157 C153 1.391 . S
C157 C156 1.371 . S
C157 H164 0.930 . S
H158 C155 0.928 . S
H159 C156 0.931 . S
H160 C136 0.930 . S
H161 C133 0.930 . S
H162 C142 0.930 . S
H163 C154 0.929 . S
H164 C157 0.930 . S
C165 C166 1.351 . S
C165 N168 1.368 . S
C165 H170 0.931 . S
C166 C165 1.351 . S
C166 N167 1.373 . S
C166 H194 0.930 . S
N167 C166 1.373 . S
N167 C169 1.340 . S
N168 C165 1.368 . S
N168 C169 1.321 . S
N168 Co171 2.135 . S
C169 N167 1.340 . S
C169 N168 1.321 . S
C169 H193 0.930 . S
H170 C165 0.931 . S
Co171 N168 2.135 . S
Co171 N174 2.121 . S
Co171 O179 2.055 . S
Co171 O182 2.039 . S
Co171 N185 2.140 . S
C172 O173 1.227 . S
C172 O182 1.265 . S
O173 C172 1.227 . S
N174 Co171 2.121 . S
N174 C176 1.375 . S
N174 C177 1.313 . S
C175 C176 1.338 . S
C175 N178 1.377 . S
C175 H195 0.930 . S
C176 N174 1.375 . S
C176 C175 1.338 . S
C176 H180 0.931 . S
C177 N174 1.313 . S
C177 N178 1.344 . S
C177 H181 0.930 . S
N178 C175 1.377 . S
N178 C177 1.344 . S
O179 Co171 2.055 . S
O179 C183 1.253 . S
H180 C176 0.931 . S
H181 C177 0.930 . S
O182 Co171 2.039 . S
O182 C172 1.265 . S
C183 O179 1.253 . S
C183 O184 1.227 . S
O184 C183 1.227 . S
N185 Co171 2.140 . S
N185 C188 1.346 . S
N185 C189 1.345 . S
C186 C187 1.387 . S
C186 C190 1.391 . S
C187 C186 1.387 . S
C187 C188 1.369 . S
C187 H196 0.929 . S
C188 N185 1.346 . S
C188 C187 1.369 . S
C188 H191 0.928 . S
C189 N185 1.345 . S
C189 C190 1.371 . S
C189 H192 0.931 . S
C190 C186 1.391 . S
C190 C189 1.371 . S
C190 H197 0.930 . S
H191 C188 0.928 . S
H192 C189 0.931 . S
H193 C169 0.930 . S
H194 C166 0.930 . S
H195 C175 0.930 . S
H196 C187 0.929 . S
H197 C190 0.930 . S
C198 C199 1.351 . S
C198 N201 1.368 . S
C198 H203 0.931 . S
C199 C198 1.351 . S
C199 N200 1.373 . S
C199 H227 0.930 . S
N200 C199 1.373 . S
N200 C202 1.340 . S
N201 C198 1.368 . S
N201 C202 1.321 . S
N201 Co204 2.135 . S
C202 N200 1.340 . S
C202 N201 1.321 . S
C202 H226 0.930 . S
H203 C198 0.931 . S
Co204 N201 2.135 . S
Co204 N207 2.121 . S
Co204 O212 2.055 . S
Co204 O215 2.039 . S
Co204 N218 2.140 . S
C205 O206 1.227 . S
C205 O215 1.265 . S
O206 C205 1.227 . S
N207 Co204 2.121 . S
N207 C209 1.375 . S
N207 C210 1.313 . S
C208 C209 1.338 . S
C208 N211 1.377 . S
C208 H228 0.930 . S
C209 N207 1.375 . S
C209 C208 1.338 . S
C209 H213 0.931 . S
C210 N207 1.313 . S
C210 N211 1.344 . S
C210 H214 0.930 . S
N211 C208 1.377 . S
N211 C210 1.344 . S
O212 Co204 2.055 . S
O212 C216 1.253 . S
H213 C209 0.931 . S
H214 C210 0.930 . S
O215 Co204 2.039 . S
O215 C205 1.265 . S
C216 O212 1.253 . S
C216 O217 1.227 . S
O217 C216 1.227 . S
N218 Co204 2.140 . S
N218 C221 1.346 . S
N218 C222 1.345 . S
C219 C220 1.387 . S
C219 C223 1.391 . S
C220 C219 1.387 . S
C220 C221 1.369 . S
C220 H229 0.929 . S
C221 N218 1.346 . S
C221 C220 1.369 . S
C221 H224 0.928 . S
C222 N218 1.345 . S
C222 C223 1.371 . S
C222 H225 0.931 . S
C223 C219 1.391 . S
C223 C222 1.371 . S
C223 H230 0.930 . S
H224 C221 0.928 . S
H225 C222 0.931 . S
H226 C202 0.930 . S
H227 C199 0.930 . S
H228 C208 0.930 . S
H229 C220 0.929 . S
H230 C223 0.930 . S
C231 C232 1.351 . S
C231 N234 1.368 . S
C231 H236 0.931 . S
C232 C231 1.351 . S
C232 N233 1.373 . S
C232 H260 0.930 . S
N233 C232 1.373 . S
N233 C235 1.340 . S
N234 C231 1.368 . S
N234 C235 1.321 . S
N234 Co237 2.135 . S
C235 N233 1.340 . S
C235 N234 1.321 . S
C235 H259 0.930 . S
H236 C231 0.931 . S
Co237 N234 2.135 . S
Co237 N240 2.121 . S
Co237 O245 2.055 . S
Co237 O248 2.039 . S
Co237 N251 2.140 . S
C238 O239 1.227 . S
C238 O248 1.265 . S
O239 C238 1.227 . S
N240 Co237 2.121 . S
N240 C242 1.375 . S
N240 C243 1.313 . S
C241 C242 1.338 . S
C241 N244 1.377 . S
C241 H261 0.930 . S
C242 N240 1.375 . S
C242 C241 1.338 . S
C242 H246 0.931 . S
C243 N240 1.313 . S
C243 N244 1.344 . S
C243 H247 0.930 . S
N244 C241 1.377 . S
N244 C243 1.344 . S
O245 Co237 2.055 . S
O245 C249 1.253 . S
H246 C242 0.931 . S
H247 C243 0.930 . S
O248 Co237 2.039 . S
O248 C238 1.265 . S
C249 O245 1.253 . S
C249 O250 1.227 . S
O250 C249 1.227 . S
N251 Co237 2.140 . S
N251 C254 1.346 . S
N251 C255 1.345 . S
C252 C253 1.387 . S
C252 C256 1.391 . S
C253 C252 1.387 . S
C253 C254 1.369 . S
C253 H262 0.929 . S
C254 N251 1.346 . S
C254 C253 1.369 . S
C254 H257 0.928 . S
C255 N251 1.345 . S
C255 C256 1.371 . S
C255 H258 0.931 . S
C256 C252 1.391 . S
C256 C255 1.371 . S
C256 H263 0.930 . S
H257 C254 0.928 . S
H258 C255 0.931 . S
H259 C235 0.930 . S
H260 C232 0.930 . S
H261 C241 0.930 . S
H262 C253 0.929 . S
H263 C256 0.930 . S
C264 C265 1.377 . S
C264 C266 1.419 . S
C264 H268 0.930 . S
C265 C264 1.377 . S
C265 C274 1.424 1_554 S
C266 C264 1.419 . S
C266 C267 1.363 . S
C266 H269 0.929 . S
C267 C266 1.363 . S
C267 C273 1.428 1_554 S
H268 C264 0.930 . S
H269 C266 0.929 . S
S270 N271 1.613 . S
S270 N272 1.610 . S
N271 S270 1.613 . S
N271 C274 1.350 . S
N272 S270 1.610 . S
N272 C273 1.351 . S
C273 C267 1.428 1_556 S
C273 N272 1.351 . S
C273 C274 1.434 . S
C274 C265 1.424 1_556 S
C274 N271 1.350 . S
C274 C273 1.434 . S
C275 C276 1.369 . S
C275 C277 1.419 1_554 S
C275 H279 0.930 1_554 S
C276 C275 1.369 . S
C276 C285 1.429 . S
C277 C275 1.419 1_556 S
C277 C278 1.363 1_556 S
C277 H280 0.929 . S
C278 C277 1.363 1_554 S
C278 C284 1.428 . S
H279 C275 0.930 1_556 S
H280 C277 0.929 . S
S281 N282 1.613 . S
S281 N283 1.610 . S
N282 S281 1.613 . S
N282 C285 1.350 . S
N283 S281 1.610 . S
N283 C284 1.351 . S
C284 C278 1.428 . S
C284 N283 1.351 . S
C284 C285 1.434 . S
C285 C276 1.429 . S
C285 N282 1.350 . S
C285 C284 1.434 . S
C286 C287 1.369 . S
C286 C288 1.419 . S
C286 H290 0.930 . S
C287 C286 1.369 . S
C287 C296 1.429 . S
C288 C286 1.419 . S
C288 C289 1.363 . S
C288 H291 0.929 . S
C289 C288 1.363 . S
C289 C295 1.428 . S
H290 C286 0.930 . S
H291 C288 0.929 . S
S292 N293 1.613 1_556 S
S292 N294 1.610 . S
N293 S292 1.613 1_554 S
N293 C296 1.350 . S
N294 S292 1.610 . S
N294 C295 1.350 1_556 S
C295 C289 1.428 . S
C295 N294 1.350 1_554 S
C295 C296 1.435 . S
C296 C287 1.429 . S
C296 N293 1.350 . S
C296 C295 1.435 . S
C297 C298 1.369 . S
C297 C299 1.419 . S
C297 H301 0.930 1_554 S
C298 C297 1.369 . S
C298 C307 1.429 . S
C299 C297 1.419 . S
C299 C300 1.363 . S
C299 H302 0.929 . S
C300 C299 1.363 . S
C300 C306 1.428 . S
H301 C297 0.930 1_556 S
H302 C299 0.929 . S
S303 N304 1.613 . S
S303 N305 1.610 . S
N304 S303 1.613 . S
N304 C307 1.350 . S
N305 S303 1.610 . S
N305 C306 1.351 . S
C306 C300 1.428 . S
C306 N305 1.351 . S
C306 C307 1.434 . S
C307 C298 1.429 . S
C307 N304 1.350 . S
C307 C306 1.434 . S
C308 C309 1.367 1_655 S
C308 C310 1.419 . S
C308 H312 0.930 . S
C309 C308 1.367 1_455 S
C309 C318 1.428 1_455 S
C310 C308 1.419 . S
C310 C311 1.363 . S
C310 H313 0.929 . S
C311 C310 1.363 . S
C311 C317 1.428 . S
H312 C308 0.930 . S
H313 C310 0.929 . S
S314 N315 1.613 . S
S314 N316 1.610 1_455 S
N315 S314 1.613 . S
N315 C318 1.350 1_455 S
N316 S314 1.610 1_655 S
N316 C317 1.351 . S
C317 C311 1.428 . S
C317 N316 1.351 . S
C317 C318 1.434 . S
C318 C309 1.428 1_655 S
C318 N315 1.350 1_655 S
C318 C317 1.434 . S
C319 C320 1.370 . S
C319 C321 1.419 . S
C319 H323 0.930 1_565 S
C320 C319 1.370 . S
C320 C329 1.435 . S
C321 C319 1.419 . S
C321 C322 1.363 . S
C321 H324 0.929 . S
C322 C321 1.363 . S
C322 C328 1.428 . S
H323 C319 0.930 1_545 S
H324 C321 0.929 . S
S325 N326 1.613 . S
S325 N327 1.610 . S
N326 S325 1.613 . S
N326 C329 1.350 . S
N327 S325 1.610 . S
N327 C328 1.351 . S
C328 C322 1.428 . S
C328 N327 1.351 . S
C328 C329 1.434 . S
C329 C320 1.435 . S
C329 N326 1.350 . S
C329 C328 1.434 . S
C330 C331 1.369 . S
C330 C332 1.419 . S
C330 H334 0.930 . S
C331 C330 1.369 . S
C331 C340 1.429 . S
C332 C330 1.419 . S
C332 C333 1.365 1_455 S
C332 H335 0.929 . S
C333 C332 1.365 1_655 S
C333 C339 1.429 1_655 S
H334 C330 0.930 . S
H335 C332 0.929 . S
S336 N337 1.613 . S
S336 N338 1.610 1_455 S
N337 S336 1.613 . S
N337 C340 1.350 . S
N338 S336 1.610 1_655 S
N338 C339 1.351 1_655 S
C339 C333 1.429 1_455 S
C339 N338 1.351 1_455 S
C339 C340 1.434 . S
C340 C331 1.429 . S
C340 N337 1.350 . S
C340 C339 1.434 . S
C341 C342 1.369 . S
C341 C343 1.419 . S
C341 H345 0.930 . S
C342 C341 1.369 . S
C342 C351 1.429 . S
C343 C341 1.419 . S
C343 C344 1.364 . S
C343 H346 0.929 1_545 S
C344 C343 1.364 . S
C344 C350 1.433 . S
H345 C341 0.930 . S
H346 C343 0.929 1_565 S
S347 N348 1.613 . S
S347 N349 1.610 . S
N348 S347 1.613 . S
N348 C351 1.350 . S
N349 S347 1.610 . S
N349 C350 1.351 . S
C350 C344 1.433 . S
C350 N349 1.351 . S
C350 C351 1.434 . S
C351 C342 1.429 . S
C351 N348 1.350 . S
C351 C350 1.434 . S
C352 C353 1.369 . S
C352 C354 1.419 . S
C352 H356 0.930 . S
C353 C352 1.369 . S
C353 C362 1.429 . S
C354 C352 1.419 . S
C354 C355 1.363 . S
C354 H357 0.929 . S
C355 C354 1.363 . S
C355 C361 1.428 . S
H356 C352 0.930 . S
H357 C354 0.929 . S
S358 N359 1.613 . S
S358 N360 1.610 . S
N359 S358 1.613 . S
N359 C362 1.350 . S
N360 S358 1.610 . S
N360 C361 1.351 . S
C361 C355 1.428 . S
C361 N360 1.351 . S
C361 C362 1.434 . S
C362 C353 1.429 . S
C362 N359 1.350 . S
C362 C361 1.434 . S
C363 C364 1.369 . S
C363 C365 1.419 . S
C363 H367 0.930 . S
C364 C363 1.369 . S
C364 C373 1.429 . S
C365 C363 1.419 . S
C365 C366 1.363 . S
C365 H368 0.929 . S
C366 C365 1.363 . S
C366 C372 1.428 . S
H367 C363 0.930 . S
H368 C365 0.929 . S
S369 N370 1.613 . S
S369 N371 1.610 . S
N370 S369 1.613 . S
N370 C373 1.350 . S
N371 S369 1.610 . S
N371 C372 1.351 . S
C372 C366 1.428 . S
C372 N371 1.351 . S
C372 C373 1.434 . S
C373 C364 1.429 . S
C373 N370 1.350 . S
C373 C372 1.434 . S
C374 C375 1.369 . S
C374 C376 1.419 . S
C374 H378 0.930 . S
C375 C374 1.369 . S
C375 C384 1.429 . S
C376 C374 1.419 . S
C376 C377 1.363 . S
C376 H379 0.929 . S
C377 C376 1.363 . S
C377 C383 1.428 . S
H378 C374 0.930 . S
H379 C376 0.929 . S
S380 N381 1.613 . S
S380 N382 1.610 . S
N381 S380 1.613 . S
N381 C384 1.350 . S
N382 S380 1.610 . S
N382 C383 1.351 . S
C383 C377 1.428 . S
C383 N382 1.351 . S
C383 C384 1.434 . S
C384 C375 1.429 . S
C384 N381 1.350 . S
C384 C383 1.434 . S
C385 C386 1.369 . S
C385 C387 1.419 . S
C385 H389 0.930 . S
C386 C385 1.369 . S
C386 C395 1.429 . S
C387 C385 1.419 . S
C387 C388 1.363 . S
C387 H390 0.929 . S
C388 C387 1.363 . S
C388 C394 1.428 . S
H389 C385 0.930 . S
H390 C387 0.929 . S
S391 N392 1.613 . S
S391 N393 1.610 . S
N392 S391 1.613 . S
N392 C395 1.350 . S
N393 S391 1.610 . S
N393 C394 1.351 . S
C394 C388 1.428 . S
C394 N393 1.351 . S
C394 C395 1.434 . S
C395 C386 1.429 . S
C395 N392 1.350 . S
C395 C394 1.434 . S
C396 C397 1.369 . S
C396 C398 1.419 . S
C396 H400 0.930 . S
C397 C396 1.369 . S
C397 C406 1.429 . S
C398 C396 1.419 . S
C398 C399 1.363 . S
C398 H401 0.929 . S
C399 C398 1.363 . S
C399 C405 1.428 . S
H400 C396 0.930 . S
H401 C398 0.929 . S
S402 N403 1.613 . S
S402 N404 1.610 . S
N403 S402 1.613 . S
N403 C406 1.350 . S
N404 S402 1.610 . S
N404 C405 1.351 . S
C405 C399 1.428 . S
C405 N404 1.351 . S
C405 C406 1.434 . S
C406 C397 1.429 . S
C406 N403 1.350 . S
C406 C405 1.434 . S
C407 C408 1.369 . S
C407 C409 1.419 . S
C407 H411 0.930 . S
C408 C407 1.369 . S
C408 C417 1.429 . S
C409 C407 1.419 . S
C409 C410 1.363 . S
C409 H412 0.929 . S
C410 C409 1.363 . S
C410 C416 1.428 . S
H411 C407 0.930 . S
H412 C409 0.929 . S
S413 N414 1.613 . S
S413 N415 1.610 . S
N414 S413 1.613 . S
N414 C417 1.350 . S
N415 S413 1.610 . S
N415 C416 1.351 . S
C416 C410 1.428 . S
C416 N415 1.351 . S
C416 C417 1.434 . S
C417 C408 1.429 . S
C417 N414 1.350 . S
C417 C416 1.434 . S
C418 C419 1.369 . S
C418 C420 1.419 . S
C418 H422 0.930 . S
C419 C418 1.369 . S
C419 C428 1.429 . S
C420 C418 1.419 . S
C420 C421 1.363 . S
C420 H423 0.929 . S
C421 C420 1.363 . S
C421 C427 1.428 . S
H422 C418 0.930 . S
H423 C420 0.929 . S
S424 N425 1.613 . S
S424 N426 1.610 . S
N425 S424 1.613 . S
N425 C428 1.350 . S
N426 S424 1.610 . S
N426 C427 1.351 . S
C427 C421 1.428 . S
C427 N426 1.351 . S
C427 C428 1.434 . S
C428 C419 1.429 . S
C428 N425 1.350 . S
C428 C427 1.434 . S
C429 C430 1.369 . S
C429 C431 1.419 . S
C429 H433 0.930 . S
C430 C429 1.369 . S
C430 C439 1.429 . S
C431 C429 1.419 . S
C431 C432 1.363 . S
C431 H434 0.929 . S
C432 C431 1.363 . S
C432 C438 1.428 . S
H433 C429 0.930 . S
H434 C431 0.929 . S
S435 N436 1.613 . S
S435 N437 1.610 . S
N436 S435 1.613 . S
N436 C439 1.350 . S
N437 S435 1.610 . S
N437 C438 1.351 . S
C438 C432 1.428 . S
C438 N437 1.351 . S
C438 C439 1.434 . S
C439 C430 1.429 . S
C439 N436 1.350 . S
C439 C438 1.434 . S
C440 C441 1.369 1_455 S
C440 C442 1.419 . S
C440 H444 0.930 . S
C441 C440 1.369 1_655 S
C441 C450 1.429 . S
C442 C440 1.419 . S
C442 C443 1.363 . S
C442 H445 0.929 . S
C443 C442 1.363 . S
C443 C449 1.428 1_455 S
H444 C440 0.930 . S
H445 C442 0.929 . S
S446 N447 1.613 . S
S446 N448 1.610 . S
N447 S446 1.613 . S
N447 C450 1.350 1_556 S
N448 S446 1.610 . S
N448 C449 1.351 1_556 S
C449 C443 1.428 1_655 S
C449 N448 1.351 1_554 S
C449 C450 1.434 . S
C450 C441 1.429 . S
C450 N447 1.350 1_554 S
C450 C449 1.434 . S
C451 C452 1.369 1_556 S
C451 C453 1.419 1_545 S
C451 H455 0.930 . S
C452 C451 1.369 1_554 S
C452 C461 1.429 . S
C453 C451 1.419 1_565 S
C453 C454 1.363 1_556 S
C453 H456 0.929 . S
C454 C453 1.363 1_554 S
C454 C460 1.428 . S
H455 C451 0.930 . S
H456 C453 0.929 . S
S457 N458 1.613 1_565 S
S457 N459 1.610 . S
N458 S457 1.613 1_545 S
N458 C461 1.350 . S
N459 S457 1.610 . S
N459 C460 1.351 . S
C460 C454 1.428 . S
C460 N459 1.351 . S
C460 C461 1.434 1_565 S
C461 C452 1.429 . S
C461 N458 1.350 . S
C461 C460 1.434 1_545 S
C462 C463 1.369 . S
C462 C464 1.419 1_545 S
C462 H466 0.930 . S
C463 C462 1.369 . S
C463 C472 1.429 . S
C464 C462 1.419 1_565 S
C464 C465 1.363 . S
C464 H467 0.929 . S
C465 C464 1.363 . S
C465 C471 1.428 . S
H466 C462 0.930 . S
H467 C464 0.929 . S
S468 N469 1.613 . S
S468 N470 1.610 1_545 S
N469 S468 1.613 . S
N469 C472 1.350 . S
N470 S468 1.610 1_565 S
N470 C471 1.351 . S
C471 C465 1.428 . S
C471 N470 1.351 . S
C471 C472 1.434 1_565 S
C472 C463 1.429 . S
C472 N469 1.350 . S
C472 C471 1.434 1_545 S
C473 C474 1.369 . S
C473 C475 1.419 1_455 S
C473 H477 0.930 . S
C474 C473 1.369 . S
C474 C483 1.429 . S
C475 C473 1.419 1_655 S
C475 C476 1.363 . S
C475 H478 0.929 . S
C476 C475 1.363 . S
C476 C482 1.428 . S
H477 C473 0.930 . S
H478 C475 0.929 . S
S479 N480 1.613 . S
S479 N481 1.622 . S
N480 S479 1.613 . S
N480 C483 1.350 . S
N481 S479 1.622 . S
N481 C482 1.350 1_455 S
C482 C476 1.428 . S
C482 N481 1.350 1_655 S
C482 C483 1.434 1_655 S
C483 C474 1.429 . S
C483 N480 1.350 . S
C483 C482 1.434 1_455 S
C265 C51 0.971 1_554 S
C267 N2 0.951 . S
C276 N35 0.957 . S
C278 C84 0.968 1_554 S
C287 N68 0.957 . S
C289 C117 0.969 1_554 S
C298 C18 0.971 1_554 S
C300 N101 0.954 . S
C309 C183 0.967 . S
C311 N134 0.948 . S
C320 C216 0.965 1_565 S
C322 N167 0.951 . S
C331 N200 0.954 . S
C333 C249 0.964 . S
C342 N233 0.955 . S
C344 C150 0.964 1_545 S
C353 C219 1.574 . S
C355 C7 1.552 . S
C364 C40 1.561 . S
C366 C252 1.566 . S
C375 C73 1.552 . S
C377 C153 1.572 . S
C386 C106 1.559 . S
C388 C186 1.567 . S
C397 C139 1.560 . S
C399 C87 1.571 . S
C408 C172 1.553 . S
C410 C120 1.575 . S
C419 C205 1.556 . S
C421 C21 1.574 . S
C430 C54 1.572 . S
C432 C238 1.558 . S
C441 N79 2.042 . S
C443 N13 2.041 . S
C452 N46 2.040 . S
C454 N112 2.041 . S
C463 N211 2.043 . S
C465 N145 2.042 . S
C474 N178 2.043 . S
C476 N244 2.043 . S
