# Generated by pormake.
# Topology wmi, (6)-cn, num edge types: 1
# Building blocks:
#     Node 0, Type 0, BuildingBlock: UKALOJ_clean_sbu_0, # of connection points: 6
#     Node 1, Type 0, BuildingBlock: UKALOJ_clean_sbu_0, # of connection points: 6
#     Node 2, Type 0, BuildingBlock: UKALOJ_clean_sbu_0, # of connection points: 6
#     Node 3, Type 0, BuildingBlock: UKALOJ_clean_sbu_0, # of connection points: 6
#     Node 4, Type 0, BuildingBlock: UKALOJ_clean_sbu_0, # of connection points: 6
#     Node 5, Type 0, BuildingBlock: UKALOJ_clean_sbu_0, # of connection points: 6
#     Node 6, Type 0, BuildingBlock: UKALOJ_clean_sbu_0, # of connection points: 6
#     Node 7, Type 0, BuildingBlock: UKALOJ_clean_sbu_0, # of connection points: 6
#     Node 8, Type 0, BuildingBlock: UKALOJ_clean_sbu_0, # of connection points: 6
#     Node 9, Type 0, BuildingBlock: UKALOJ_clean_sbu_0, # of connection points: 6
#     Node 10, Type 0, BuildingBlock: UKALOJ_clean_sbu_0, # of connection points: 6
#     Node 11, Type 0, BuildingBlock: UKALOJ_clean_sbu_0, # of connection points: 6
#     Node 12, Type 0, BuildingBlock: UKALOJ_clean_sbu_0, # of connection points: 6
#     Node 13, Type 0, BuildingBlock: UKALOJ_clean_sbu_0, # of connection points: 6
#     Node 14, Type 0, BuildingBlock: UKALOJ_clean_sbu_0, # of connection points: 6
#     Node 15, Type 0, BuildingBlock: UKALOJ_clean_sbu_0, # of connection points: 6
#     Node 16, Type 0, BuildingBlock: UKALOJ_clean_sbu_0, # of connection points: 6
#     Node 17, Type 0, BuildingBlock: UKALOJ_clean_sbu_0, # of connection points: 6
#     Edge 18, Type (0, 0), BuildingBlock: CIFDUS_clean_linker_0, # of connection points: 2
#     Edge 19, Type (0, 0), BuildingBlock: CIFDUS_clean_linker_0, # of connection points: 2
#     Edge 20, Type (0, 0), BuildingBlock: CIFDUS_clean_linker_0, # of connection points: 2
#     Edge 21, Type (0, 0), BuildingBlock: CIFDUS_clean_linker_0, # of connection points: 2
#     Edge 22, Type (0, 0), BuildingBlock: CIFDUS_clean_linker_0, # of connection points: 2
#     Edge 23, Type (0, 0), BuildingBlock: CIFDUS_clean_linker_0, # of connection points: 2
#     Edge 24, Type (0, 0), BuildingBlock: CIFDUS_clean_linker_0, # of connection points: 2
#     Edge 25, Type (0, 0), BuildingBlock: CIFDUS_clean_linker_0, # of connection points: 2
#     Edge 26, Type (0, 0), BuildingBlock: CIFDUS_clean_linker_0, # of connection points: 2
#     Edge 27, Type (0, 0), BuildingBlock: CIFDUS_clean_linker_0, # of connection points: 2
#     Edge 28, Type (0, 0), BuildingBlock: CIFDUS_clean_linker_0, # of connection points: 2
#     Edge 29, Type (0, 0), BuildingBlock: CIFDUS_clean_linker_0, # of connection points: 2
#     Edge 30, Type (0, 0), BuildingBlock: CIFDUS_clean_linker_0, # of connection points: 2
#     Edge 31, Type (0, 0), BuildingBlock: CIFDUS_clean_linker_0, # of connection points: 2
#     Edge 32, Type (0, 0), BuildingBlock: CIFDUS_clean_linker_0, # of connection points: 2
#     Edge 33, Type (0, 0), BuildingBlock: CIFDUS_clean_linker_0, # of connection points: 2
#     Edge 34, Type (0, 0), BuildingBlock: CIFDUS_clean_linker_0, # of connection points: 2
#     Edge 35, Type (0, 0), BuildingBlock: CIFDUS_clean_linker_0, # of connection points: 2
#     Edge 36, Type (0, 0), BuildingBlock: CIFDUS_clean_linker_0, # of connection points: 2
#     Edge 37, Type (0, 0), BuildingBlock: CIFDUS_clean_linker_0, # of connection points: 2
#     Edge 38, Type (0, 0), BuildingBlock: CIFDUS_clean_linker_0, # of connection points: 2
#     Edge 39, Type (0, 0), BuildingBlock: CIFDUS_clean_linker_0, # of connection points: 2
#     Edge 40, Type (0, 0), BuildingBlock: CIFDUS_clean_linker_0, # of connection points: 2
#     Edge 41, Type (0, 0), BuildingBlock: CIFDUS_clean_linker_0, # of connection points: 2
#     Edge 42, Type (0, 0), BuildingBlock: CIFDUS_clean_linker_0, # of connection points: 2
#     Edge 43, Type (0, 0), BuildingBlock: CIFDUS_clean_linker_0, # of connection points: 2
#     Edge 44, Type (0, 0), BuildingBlock: CIFDUS_clean_linker_0, # of connection points: 2
#     Edge 45, Type (0, 0), BuildingBlock: CIFDUS_clean_linker_0, # of connection points: 2
#     Edge 46, Type (0, 0), BuildingBlock: CIFDUS_clean_linker_0, # of connection points: 2
#     Edge 47, Type (0, 0), BuildingBlock: CIFDUS_clean_linker_0, # of connection points: 2
#     Edge 48, Type (0, 0), BuildingBlock: CIFDUS_clean_linker_0, # of connection points: 2
#     Edge 49, Type (0, 0), BuildingBlock: CIFDUS_clean_linker_0, # of connection points: 2
#     Edge 50, Type (0, 0), BuildingBlock: CIFDUS_clean_linker_0, # of connection points: 2
#     Edge 51, Type (0, 0), BuildingBlock: CIFDUS_clean_linker_0, # of connection points: 2
#     Edge 52, Type (0, 0), BuildingBlock: CIFDUS_clean_linker_0, # of connection points: 2
#     Edge 53, Type (0, 0), BuildingBlock: CIFDUS_clean_linker_0, # of connection points: 2
#     Edge 54, Type (0, 0), BuildingBlock: CIFDUS_clean_linker_0, # of connection points: 2
#     Edge 55, Type (0, 0), BuildingBlock: CIFDUS_clean_linker_0, # of connection points: 2
#     Edge 56, Type (0, 0), BuildingBlock: CIFDUS_clean_linker_0, # of connection points: 2
#     Edge 57, Type (0, 0), BuildingBlock: CIFDUS_clean_linker_0, # of connection points: 2
#     Edge 58, Type (0, 0), BuildingBlock: CIFDUS_clean_linker_0, # of connection points: 2
#     Edge 59, Type (0, 0), BuildingBlock: CIFDUS_clean_linker_0, # of connection points: 2
#     Edge 60, Type (0, 0), BuildingBlock: CIFDUS_clean_linker_0, # of connection points: 2
#     Edge 61, Type (0, 0), BuildingBlock: CIFDUS_clean_linker_0, # of connection points: 2
#     Edge 62, Type (0, 0), BuildingBlock: CIFDUS_clean_linker_0, # of connection points: 2
#     Edge 63, Type (0, 0), BuildingBlock: CIFDUS_clean_linker_0, # of connection points: 2
#     Edge 64, Type (0, 0), BuildingBlock: CIFDUS_clean_linker_0, # of connection points: 2
#     Edge 65, Type (0, 0), BuildingBlock: CIFDUS_clean_linker_0, # of connection points: 2
#     Edge 66, Type (0, 0), BuildingBlock: CIFDUS_clean_linker_0, # of connection points: 2
#     Edge 67, Type (0, 0), BuildingBlock: CIFDUS_clean_linker_0, # of connection points: 2
#     Edge 68, Type (0, 0), BuildingBlock: CIFDUS_clean_linker_0, # of connection points: 2
#     Edge 69, Type (0, 0), BuildingBlock: CIFDUS_clean_linker_0, # of connection points: 2
#     Edge 70, Type (0, 0), BuildingBlock: CIFDUS_clean_linker_0, # of connection points: 2
#     Edge 71, Type (0, 0), BuildingBlock: CIFDUS_clean_linker_0, # of connection points: 2
# Relax obj value: 0.102
# Max RMSD: 0.176
# Mean RMSD: 0.176
data_MOF--net-wmi--node1-UKALOJ_clean_sbu_0--edge1-CIFDUS_clean_linker_0
_symmetry_space_group_name_H-M    P1
_symmetry_Int_Tables_number       1
_symmetry_cell_setting            triclinic
loop_
_symmetry_equiv_pos_as_xyz
'x, y, z'
_cell_length_a     25.052772
_cell_length_b     25.1336
_cell_length_c     108.33245
_cell_angle_alpha  89.958369
_cell_angle_beta   89.75687
_cell_angle_gamma 119.81313
loop_
_atom_site_label
_atom_site_type_symbol
_atom_site_fract_x
_atom_site_fract_y
_atom_site_fract_z
_atom_type_partial_charge
Zn0 Zn 0.4674 0.01982 0.09625 0.0
O1 O 0.55989 0.08435 0.09647 0.0
C2 C 0.4354 0.11361 0.10251 0.0
Zn3 Zn 0.45802 0.02419 0.11668 0.0
C4 C 0.58543 0.1067 0.10673 0.0
O5 O 0.55332 0.09125 0.11662 0.0
C6 C 0.34176 0.9323 0.10568 0.0
O7 O 0.48218 0.95789 0.12027 0.0
O8 O 0.4919 0.95174 0.10023 0.0
N9 N 0.45137 0.03717 0.1352 0.0
C10 C 0.41355 -0.00103 0.14402 0.0
C11 C 0.46359 0.08773 0.15205 0.0
N12 N 0.48269 0.09225 0.14025 0.0
N13 N 0.4198 0.02969 0.15462 0.0
C14 C 0.49418 0.03848 0.06762 0.0
C15 C 0.44318 0.94546 0.06171 0.0
N16 N 0.47002 0.00344 0.07781 0.0
N17 N 0.43879 0.94575 0.07408 0.0
N18 N 0.47774 0.00301 0.05738 0.0
H19 H 0.52567 0.12594 0.07656 0.0
H20 H 0.58069 0.12143 0.06669 0.0
H21 H 0.51793 0.12658 0.05993 0.0
C22 C 0.53128 0.1071 0.06774 0.0
C23 C 0.37264 0.93125 0.14247 0.0
H24 H 0.392 0.913 0.13556 0.0
H25 H 0.36659 0.90703 0.15138 0.0
H26 H 0.32678 0.92205 0.13932 0.0
O27 O 0.36465 0.95561 0.11606 0.0
O28 O 0.37431 0.95318 0.09602 0.0
C29 C 0.49592 0.9354 0.11115 0.0
O30 O 0.44583 0.09035 0.093 0.0
O31 O 0.43538 0.09218 0.11311 0.0
Zn32 Zn 0.03963 0.46106 0.09172 0.0
O33 O 0.97653 0.49086 0.08973 0.0
C34 C 0.93979 0.33936 0.09843 0.0
Zn35 Zn 0.02765 0.45159 0.11231 0.0
C36 C 0.95289 0.49879 0.09947 0.0
O37 O 0.9654 0.48499 0.10998 0.0
C38 C 0.11936 0.42007 0.10438 0.0
O39 O 0.09637 0.54054 0.1154 0.0
O40 O 0.10802 0.55362 0.09529 0.0
N41 N 0.00818 0.43765 0.13097 0.0
C42 C 0.04338 0.43927 0.14053 0.0
C43 C 0.95245 0.40478 0.14751 0.0
N44 N 0.95175 0.4166 0.13537 0.0
N45 N 0.00942 0.41829 0.15095 0.0
C46 C 0.03288 0.46412 0.06241 0.0
C47 C 0.12709 0.49656 0.05798 0.0
N48 N 0.06337 0.47421 0.0732 0.0
N49 N 0.12186 0.49465 0.07036 0.0
N50 N 0.07201 0.47777 0.05271 0.0
H51 H 0.94108 0.4137 0.07003 0.0
H52 H 0.95517 0.47628 0.05997 0.0
H53 H 0.94639 0.40662 0.05345 0.0
C54 C 0.9648 0.43817 0.06144 0.0
C55 C 0.11139 0.46348 0.13984 0.0
H56 H 0.13284 0.49762 0.13232 0.0
H57 H 0.13336 0.48486 0.14873 0.0
H58 H 0.11994 0.42498 0.13808 0.0
O59 O 0.09096 0.42053 0.11405 0.0
O60 O 0.10462 0.43288 0.09407 0.0
C61 C 0.12193 0.57518 0.10618 0.0
O62 O 0.96858 0.36927 0.08883 0.0
O63 O 0.95753 0.3634 0.109 0.0
Zn64 Zn 0.59215 0.58336 0.11632 0.0
O65 O 0.4984 0.55703 0.11593 0.0
C66 C 0.62874 0.71108 0.10911 0.0
Zn67 Zn 0.60551 0.59888 0.0959 0.0
C68 C 0.47718 0.55636 0.10526 0.0
O69 O 0.51283 0.57355 0.09594 0.0
C70 C 0.71916 0.61971 0.10645 0.0
O71 O 0.58003 0.50696 0.0933 0.0
O72 O 0.56593 0.4896 0.11331 0.0
N73 N 0.60701 0.61378 0.07731 0.0
C74 C 0.61838 0.58935 0.06725 0.0
C75 C 0.59161 0.65296 0.06093 0.0
N76 N 0.59053 0.65333 0.07333 0.0
N77 N 0.60865 0.61301 0.05683 0.0
C78 C 0.57646 0.59763 0.14485 0.0
C79 C 0.62283 0.55362 0.1524 0.0
N80 N 0.59106 0.57227 0.13533 0.0
N81 N 0.61914 0.54433 0.14012 0.0
N82 N 0.59674 0.5873 0.15571 0.0
H83 H 0.53476 0.6383 0.13361 0.0
H84 H 0.50006 0.61153 0.14826 0.0
H85 H 0.57342 0.68086 0.14743 0.0
C86 C 0.5449 0.63461 0.14337 0.0
C87 C 0.64174 0.54492 0.06774 0.0
H88 H 0.60202 0.49754 0.06776 0.0
H89 H 0.6711 0.55064 0.05959 0.0
H90 H 0.66843 0.55137 0.07629 0.0
O91 O 0.6971 0.62207 0.09607 0.0
O92 O 0.68608 0.60725 0.11614 0.0
C93 C 0.56427 0.4701 0.10237 0.0
O94 O 0.61648 0.6768 0.11854 0.0
O95 O 0.62966 0.68997 0.09855 0.0
Zn96 Zn 0.02912 0.46717 0.92233 0.0
O97 O 0.9633 0.49299 0.91867 0.0
C98 C 0.93509 0.35165 0.93206 0.0
Zn99 Zn 0.02214 0.47494 0.94276 0.0
C100 C 0.94129 0.50739 0.92779 0.0
O101 O 0.95704 0.50253 0.93869 0.0
C102 C 0.1144 0.44045 0.93679 0.0
O103 O 0.08931 0.56724 0.94307 0.0
O104 O 0.09571 0.56003 0.92294 0.0
N105 N 0.00188 0.47492 0.96129 0.0
C106 C 0.0335 0.48749 0.97198 0.0
C107 C 0.94106 0.46208 0.97659 0.0
N108 N 0.94453 0.4591 0.96425 0.0
N109 N -0.00384 0.47959 0.98175 0.0
C110 C 0.00773 0.43365 0.89456 0.0
C111 C 0.09797 0.48712 0.88702 0.0
N112 N 0.04527 0.46576 0.90391 0.0
N113 N 0.10126 0.49911 0.8992 0.0
N114 N 0.03981 0.44594 0.8839 0.0
H115 H 0.92035 0.40798 0.90328 0.0
H116 H 0.91619 0.39203 0.88697 0.0
H117 H 0.92916 0.34539 0.89779 0.0
C118 C 0.93939 0.39276 0.89572 0.0
C119 C 0.10117 0.51049 0.97267 0.0
H120 H 0.1246 0.53594 0.96414 0.0
H121 H 0.12148 0.54064 0.98081 0.0
H122 H 0.1088 0.47078 0.97356 0.0
O123 O 0.08991 0.45012 0.94621 0.0
O124 O 0.0957 0.4432 0.92606 0.0
C125 C 0.11198 0.59211 0.9327 0.0
O126 O 0.96219 0.37551 0.92198 0.0
O127 O 0.95297 0.38267 0.94195 0.0
Zn128 Zn 0.58712 0.60531 0.9251 0.0
O129 O 0.5607 0.51415 0.92221 0.0
C130 C 0.711 0.6319 0.93239 0.0
Zn131 Zn 0.59444 0.59874 0.9456 0.0
C132 C 0.55253 0.48082 0.9316 0.0
O133 O 0.56474 0.50477 0.94229 0.0
C134 C 0.62079 0.72173 0.93899 0.0
O135 O 0.50362 0.57489 0.94826 0.0
O136 O 0.49243 0.57756 0.92813 0.0
N137 N 0.60441 0.58519 0.96387 0.0
C138 C 0.59758 0.6097 0.97441 0.0
C139 C 0.62889 0.54771 0.97935 0.0
N140 N 0.62372 0.54663 0.96698 0.0
N141 N 0.61312 0.58721 0.98426 0.0
C142 C 0.60909 0.61004 0.8965 0.0
C143 C 0.55251 0.64448 0.88968 0.0
N144 N 0.58012 0.6175 0.90635 0.0
N145 N 0.54481 0.6387 0.90205 0.0
N146 N 0.593 0.62717 0.88595 0.0
H147 H 0.63795 0.55068 0.90495 0.0
H148 H 0.64832 0.55863 0.88844 0.0
H149 H 0.69862 0.62054 0.89839 0.0
C150 C 0.65057 0.58305 0.89712 0.0
C151 C 0.57272 0.6529 0.97504 0.0
H152 H 0.54231 0.64617 0.9671 0.0
H153 H 0.54673 0.6463 0.98376 0.0
H154 H 0.61164 0.70067 0.97473 0.0
O155 O 0.62056 0.69145 0.94842 0.0
O156 O 0.61103 0.69702 0.92838 0.0
C157 C 0.4698 0.56758 0.93902 0.0
O158 O 0.68075 0.63 0.92286 0.0
O159 O 0.68564 0.62191 0.94293 0.0
Zn160 Zn 0.46118 0.04108 0.94618 0.0
O161 O 0.49629 0.97924 0.94597 0.0
C162 C 0.34286 0.94589 0.93853 0.0
Zn163 Zn 0.45799 0.04146 0.92554 0.0
C164 C 0.50433 0.96122 0.93551 0.0
O165 O 0.48989 0.97908 0.92576 0.0
C166 C 0.42155 0.12609 0.93601 0.0
O167 O 0.55001 0.11277 0.92354 0.0
O168 O 0.54913 0.11232 0.94383 0.0
N169 N 0.44664 0.03007 0.90666 0.0
C170 C 0.45101 0.06688 0.89715 0.0
C171 C 0.42523 0.97913 0.88962 0.0
N172 N 0.43061 0.97565 0.90191 0.0
N173 N 0.43749 0.03584 0.88635 0.0
C174 C 0.45506 0.01661 0.97476 0.0
C175 C 0.50859 0.10819 0.98134 0.0
N176 N 0.4736 0.05406 0.96482 0.0
N177 N 0.50677 0.11083 0.96896 0.0
N178 N 0.47639 0.04963 0.98527 0.0
H179 H 0.42722 0.93192 0.96508 0.0
H180 H 0.43113 0.92694 0.98169 0.0
H181 H 0.36915 0.93283 0.97466 0.0
C182 C 0.41892 0.94806 0.97401 0.0
C183 C 0.47165 0.13363 0.89838 0.0
H184 H 0.49657 0.15907 0.88994 0.0
H185 H 0.43061 0.13899 0.8996 0.0
H186 H 0.50184 0.15335 0.90652 0.0
O187 O 0.4281 0.10569 0.92572 0.0
O188 O 0.42913 0.10406 0.94597 0.0
C189 C 0.57718 0.13411 0.93373 0.0
O190 O 0.37263 0.96913 0.94837 0.0
O191 O 0.3672 0.96877 0.92811 0.0
Zn192 Zn 0.10747 0.35729 0.44821 0.0
O193 O 0.131 0.29135 0.45221 0.0
C194 C -0.01392 0.26248 0.43887 0.0
Zn195 Zn 0.10687 0.34607 0.42747 0.0
C196 C 0.14189 0.26691 0.44303 0.0
O197 O 0.13395 0.28047 0.43212 0.0
C198 C 0.0811 0.44334 0.43298 0.0
O199 O 0.19789 0.41116 0.42614 0.0
O200 O 0.20441 0.42401 0.44633 0.0
N201 N 0.1046 0.32212 0.4092 0.0
C202 C 0.11917 0.35169 0.39821 0.0
C203 C 0.08893 0.25759 0.3946 0.0
N204 N 0.08572 0.26373 0.40686 0.0
N205 N 0.10963 0.31199 0.38889 0.0
C206 C 0.07134 0.34376 0.47688 0.0
C207 C 0.13511 0.43253 0.48357 0.0
N208 N 0.10744 0.37625 0.46718 0.0
N209 N 0.14716 0.4312 0.47147 0.0
N210 N 0.08786 0.37815 0.48732 0.0
H211 H 0.03011 0.25185 0.47009 0.0
H212 H -0.00032 0.25797 0.48481 0.0
H213 H 0.97923 0.28315 0.47114 0.0
C214 C 0.01719 0.28044 0.47577 0.0
C215 C 0.14553 0.41947 0.39679 0.0
H216 H 0.16893 0.44372 0.40537 0.0
H217 H 0.17841 0.43716 0.38893 0.0
H218 H 0.10761 0.42908 0.39494 0.0
O219 O 0.08391 0.41443 0.42357 0.0
O220 O 0.08606 0.4259 0.44375 0.0
C221 C 0.22952 0.43714 0.43563 0.0
O222 O 0.01294 0.28886 0.44882 0.0
O223 O 0.015 0.27976 0.42873 0.0
Zn224 Zn 0.68308 0.78789 0.42853 0.0
O225 O 0.61902 0.81503 0.4256 0.0
C226 C 0.58614 0.6659 0.43651 0.0
Zn227 Zn 0.67117 0.78312 0.44904 0.0
C228 C 0.59388 0.82353 0.43501 0.0
O229 O 0.60619 0.81238 0.44579 0.0
C230 C 0.76516 0.75334 0.44226 0.0
O231 O 0.73742 0.87373 0.45125 0.0
O232 O 0.75083 0.8824 0.43114 0.0
N233 N 0.65274 0.77429 0.46756 0.0
C234 C 0.68989 0.78048 0.47707 0.0
C235 C 0.59836 0.73755 0.48414 0.0
N236 N 0.59587 0.74822 0.472 0.0
N237 N 0.65693 0.75729 0.4875 0.0
C238 C 0.67626 0.78533 0.39929 0.0
C239 C 0.76994 0.81457 0.39494 0.0
N240 N 0.70665 0.79604 0.41009 0.0
N241 N 0.7648 0.81441 0.40731 0.0
N242 N 0.71512 0.79667 0.38964 0.0
H243 H 0.6 0.80012 0.39721 0.0
H244 H 0.58963 0.73095 0.39009 0.0
H245 H 0.58423 0.73528 0.40673 0.0
C246 C 0.60845 0.76102 0.39828 0.0
C247 C 0.75854 0.80884 0.47632 0.0
H248 H 0.77812 0.84143 0.46852 0.0
H249 H 0.7798 0.83311 0.48505 0.0
H250 H 0.77058 0.77232 0.47513 0.0
O251 O 0.73696 0.75605 0.45174 0.0
O252 O 0.74913 0.76207 0.43171 0.0
C253 C 0.76361 0.90642 0.44184 0.0
O254 O 0.61266 0.69447 0.42661 0.0
O255 O 0.60367 0.6926 0.44683 0.0
Zn256 Zn 0.24535 0.92269 0.43047 0.0
O257 O 0.21405 0.82729 0.42992 0.0
C258 C 0.36336 0.94873 0.43904 0.0
Zn259 Zn 0.24278 0.9216 0.451 0.0
C260 C 0.20432 0.79866 0.44011 0.0
O261 O 0.21554 0.82806 0.45021 0.0
C262 C 0.27646 0.04351 0.44115 0.0
O263 O 0.1489 0.89619 0.45248 0.0
O264 O 0.15533 0.90216 0.43224 0.0
N265 N 0.25317 0.92093 0.46979 0.0
C266 C 0.25359 0.95836 0.47874 0.0
C267 C 0.28788 0.90375 0.48665 0.0
N268 N 0.27402 0.88666 0.47477 0.0
N269 N 0.27604 0.94917 0.48934 0.0
C270 C 0.24543 0.90132 0.4019 0.0
C271 C 0.21215 0.95996 0.39565 0.0
N272 N 0.23605 0.9273 0.41194 0.0
N273 N 0.21527 0.96349 0.40801 0.0
N274 N 0.23064 0.92117 0.39153 0.0
H275 H 0.23291 0.81089 0.40241 0.0
H276 H 0.30073 0.8658 0.39413 0.0
H277 H 0.29846 0.86632 0.41085 0.0
C278 C 0.27134 0.85898 0.40234 0.0
C279 C 0.22968 0.00194 0.47729 0.0
H280 H 0.1936 0.9855 0.47009 0.0
H281 H 0.21046 0.00716 0.48616 0.0
H282 H 0.2682 0.04747 0.47456 0.0
O283 O 0.26748 0.01466 0.45125 0.0
O284 O 0.27392 0.01657 0.43111 0.0
C285 C 0.12386 0.89149 0.44204 0.0
O286 O 0.3356 0.94233 0.4289 0.0
O287 O 0.33581 0.94476 0.44917 0.0
Zn288 Zn 0.67508 0.77955 0.25946 0.0
O289 O 0.60862 0.80446 0.25522 0.0
C290 C 0.57997 0.66406 0.27023 0.0
Zn291 Zn 0.66795 0.78855 0.28002 0.0
C292 C 0.58772 0.8199 0.26442 0.0
O293 O 0.60364 0.81487 0.27527 0.0
C294 C 0.76225 0.75691 0.27511 0.0
O295 O 0.73546 0.88186 0.27962 0.0
O296 O 0.74124 0.87291 0.25952 0.0
N297 N 0.64775 0.79305 0.29832 0.0
C298 C 0.6792 0.80625 0.30903 0.0
C299 C 0.58752 0.78436 0.31346 0.0
N300 N 0.59089 0.77953 0.30116 0.0
N301 N 0.64222 0.80086 0.31869 0.0
C302 C 0.66093 0.73642 0.2314 0.0
C303 C 0.74884 0.80136 0.22421 0.0
N304 N 0.69272 0.77501 0.24073 0.0
N305 N 0.74714 0.81539 0.23615 0.0
N306 N 0.69519 0.75213 0.22091 0.0
H307 H 0.56795 0.69447 0.23773 0.0
H308 H 0.57769 0.6585 0.22415 0.0
H309 H 0.60297 0.64685 0.23874 0.0
C310 C 0.59869 0.68098 0.23298 0.0
C311 C 0.74649 0.82753 0.30985 0.0
H312 H 0.77055 0.85203 0.30128 0.0
H313 H 0.76726 0.85817 0.3179 0.0
H314 H 0.75269 0.78706 0.31096 0.0
O315 O 0.73516 0.76501 0.28426 0.0
O316 O 0.74391 0.75788 0.26419 0.0
C317 C 0.75747 0.90603 0.26916 0.0
O318 O 0.60667 0.68737 0.26005 0.0
O319 O 0.59846 0.69569 0.28003 0.0
Zn320 Zn 0.24302 0.91983 0.25965 0.0
O321 O 0.22219 0.82801 0.25719 0.0
C322 C 0.36586 0.95499 0.26944 0.0
Zn323 Zn 0.24279 0.91611 0.2802 0.0
C324 C 0.21869 0.80078 0.2673 0.0
O325 O 0.22659 0.82856 0.27744 0.0
C326 C 0.26348 0.03438 0.2731 0.0
O327 O 0.1456 0.88116 0.28047 0.0
O328 O 0.14911 0.8886 0.26023 0.0
N329 N 0.24498 0.90155 0.29863 0.0
C330 C 0.23088 0.92251 0.30886 0.0
C331 C 0.26693 0.8656 0.3147 0.0
N332 N 0.26721 0.86615 0.3023 0.0
N333 N 0.24459 0.90079 0.31908 0.0
C334 C 0.28001 0.933 0.23183 0.0
C335 C 0.22673 0.96918 0.22406 0.0
N336 N 0.24389 0.93436 0.24094 0.0
N337 N 0.21042 0.95641 0.23605 0.0
N338 N 0.27068 0.95521 0.22122 0.0
H339 H 0.32527 0.88636 0.22443 0.0
H340 H 0.36983 0.94724 0.235 0.0
H341 H 0.30873 0.87484 0.24081 0.0
C342 C 0.32317 0.90847 0.23315 0.0
C343 C 0.20099 0.96138 0.30872 0.0
H344 H 0.17228 0.95189 0.30037 0.0
H345 H 0.17206 0.95286 0.31708 0.0
H346 H 0.23718 0.01042 0.30853 0.0
O347 O 0.25879 0.00439 0.28285 0.0
O348 O 0.26099 0.01048 0.26261 0.0
C349 C 0.11813 0.87349 0.2702 0.0
O350 O 0.33732 0.94889 0.25943 0.0
O351 O 0.33793 0.94788 0.27964 0.0
Zn352 Zn 0.10994 0.35612 0.27832 0.0
O353 O 0.13636 0.28878 0.27847 0.0
C354 C 0.98558 0.26237 0.27245 0.0
Zn355 Zn 0.09736 0.35021 0.2578 0.0
C356 C 0.1405 0.26768 0.26804 0.0
O357 O 0.12568 0.28503 0.25825 0.0
C358 C 0.07306 0.44291 0.2677 0.0
O359 O 0.18972 0.41777 0.25439 0.0
O360 O 0.20136 0.42085 0.27449 0.0
N361 N 0.07999 0.33644 0.23914 0.0
C362 C 0.08278 0.37489 0.23012 0.0
C363 C 0.0465 0.2863 0.22209 0.0
N364 N 0.05767 0.28147 0.2341 0.0
N365 N 0.06146 0.34443 0.21938 0.0
C366 C 0.10856 0.34414 0.30752 0.0
C367 C 0.16621 0.4383 0.31216 0.0
N368 N 0.12857 0.37574 0.29681 0.0
N369 N 0.16464 0.43407 0.29978 0.0
N370 N 0.13149 0.38257 0.31727 0.0
H371 H 0.06535 0.25298 0.29999 0.0
H372 H 0.07042 0.2565 0.3167 0.0
H373 H 0.01584 0.27123 0.30896 0.0
C374 C 0.0627 0.27714 0.30833 0.0
C375 C 0.10922 0.4427 0.23163 0.0
H376 H 0.14461 0.46083 0.23894 0.0
H377 H 0.13001 0.46705 0.22284 0.0
H378 H 0.07191 0.45215 0.23424 0.0
O379 O 0.07039 0.41601 0.25767 0.0
O380 O 0.08602 0.42491 0.27761 0.0
C381 C 0.22426 0.43814 0.26379 0.0
O382 O 0.01857 0.28898 0.28181 0.0
O383 O 0.00703 0.2811 0.26166 0.0
Zn384 Zn 0.79676 0.68606 0.76259 0.0
O385 O 0.8935 0.75 0.76271 0.0
C386 C 0.77363 0.78295 0.76933 0.0
Zn387 Zn 0.79125 0.6883 0.78326 0.0
C388 C 0.91824 0.76839 0.77326 0.0
O389 O 0.88515 0.74965 0.78293 0.0
C390 C 0.67185 0.60174 0.77322 0.0
O391 O 0.81066 0.61545 0.78584 0.0
O392 O 0.81543 0.61636 0.76556 0.0
N393 N 0.7904 0.70221 0.80206 0.0
C394 C 0.7551 0.66744 0.81157 0.0
C395 C 0.8194 0.75468 0.81892 0.0
N396 N 0.83024 0.75631 0.8067 0.0
N397 N 0.77222 0.69954 0.82225 0.0
C398 C 0.81092 0.70631 0.73373 0.0
C399 C 0.77678 0.61454 0.72759 0.0
N400 N 0.79637 0.67047 0.74389 0.0
N401 N 0.77532 0.61357 0.74001 0.0
N402 N 0.79865 0.67213 0.72334 0.0
H403 H 0.86763 0.793 0.74265 0.0
H404 H 0.86991 0.79608 0.72595 0.0
H405 H 0.80339 0.78732 0.73426 0.0
C406 C 0.84002 0.77473 0.73415 0.0
C407 C 0.70656 0.60142 0.81049 0.0
H408 H 0.70141 0.57665 0.81929 0.0
H409 H 0.662 0.59861 0.80833 0.0
H410 H 0.71813 0.57899 0.80295 0.0
O411 O 0.69745 0.62586 0.78336 0.0
O412 O 0.70219 0.62105 0.76319 0.0
C413 C 0.81914 0.59425 0.77581 0.0
O414 O 0.77828 0.75665 0.75975 0.0
O415 O 0.77514 0.76211 0.77997 0.0
Zn416 Zn 0.37582 0.12091 0.76185 0.0
O417 O 0.3131 0.15284 0.75877 0.0
C418 C 0.27597 0.00494 0.77055 0.0
Zn419 Zn 0.36738 0.12553 0.78235 0.0
C420 C 0.29131 0.16582 0.7682 0.0
O421 O 0.30507 0.15639 0.77896 0.0
C422 C 0.45813 0.08857 0.77604 0.0
O423 O 0.43783 0.21879 0.78305 0.0
O424 O 0.44539 0.21102 0.763 0.0
N425 N 0.35094 0.12339 0.80113 0.0
C426 C 0.38703 0.1322 0.81103 0.0
C427 C 0.2971 0.10455 0.81785 0.0
N428 N 0.29516 0.10652 0.80543 0.0
N429 N 0.3542 0.12011 0.82163 0.0
C430 C 0.36469 0.11217 0.73285 0.0
C431 C 0.45625 0.13454 0.72811 0.0
N432 N 0.39629 0.12307 0.74348 0.0
N433 N 0.45311 0.13708 0.74047 0.0
N434 N 0.40146 0.11913 0.72307 0.0
H435 H 0.27347 0.06735 0.74075 0.0
H436 H 0.29208 0.13284 0.7312 0.0
H437 H 0.27616 0.0617 0.72409 0.0
C438 C 0.29755 0.09187 0.73219 0.0
C439 C 0.45486 0.15568 0.81034 0.0
H440 H 0.47514 0.18412 0.80196 0.0
H441 H 0.47815 0.18317 0.81864 0.0
H442 H 0.46296 0.11623 0.80996 0.0
O443 O 0.43254 0.09697 0.78538 0.0
O444 O 0.43981 0.09214 0.76534 0.0
C445 C 0.46223 0.24305 0.77273 0.0
O446 O 0.30482 0.03084 0.76069 0.0
O447 O 0.29417 0.033 0.78081 0.0
Zn448 Zn 0.93761 0.25689 0.7842 0.0
O449 O 0.84141 0.22578 0.78317 0.0
C450 C 0.96212 0.37688 0.77735 0.0
Zn451 Zn 0.94228 0.26317 0.76368 0.0
C452 C 0.81637 0.21976 0.77266 0.0
O453 O 0.84934 0.23489 0.76296 0.0
C454 C 0.06175 0.29259 0.77479 0.0
O455 O 0.92068 0.17057 0.76105 0.0
O456 O 0.9183 0.16849 0.78137 0.0
N457 N 0.95362 0.28371 0.74521 0.0
C458 C 0.92388 0.25687 0.73466 0.0
C459 C -0.00315 0.34616 0.72998 0.0
N460 N -0.00106 0.33896 0.74221 0.0
N461 N 0.95011 0.29551 0.72495 0.0
C462 C 0.92055 0.26897 0.81226 0.0
C463 C 0.9495 0.2095 0.81996 0.0
N464 N 0.93229 0.2416 0.80278 0.0
N465 N 0.94968 0.20419 0.80759 0.0
N466 N 0.93158 0.25006 0.82313 0.0
H467 H 0.86599 0.30027 0.80269 0.0
H468 H 0.86904 0.31033 0.81927 0.0
H469 H 0.93455 0.35962 0.80986 0.0
C470 C 0.8958 0.31208 0.81093 0.0
C471 C 0.86794 0.1945 0.73406 0.0
H472 H 0.84456 0.18054 0.74314 0.0
H473 H 0.83552 0.19357 0.727 0.0
H474 H 0.88212 0.16066 0.73143 0.0
O475 O 0.0356 0.28934 0.76459 0.0
O476 O 0.03203 0.28455 0.7848 0.0
C477 C 0.91287 0.14165 0.77117 0.0
O478 O 0.95697 0.34606 0.78694 0.0
O479 O 0.96048 0.354 0.76681 0.0
Zn480 Zn 0.35261 0.12563 0.61392 0.0
O481 O 0.42054 0.21536 0.61538 0.0
C482 C 0.44555 0.09327 0.60729 0.0
Zn483 Zn 0.36357 0.12851 0.59341 0.0
C484 C 0.44752 0.24693 0.60589 0.0
O485 O 0.43381 0.22269 0.59519 0.0
C486 C 0.26458 0.00798 0.60233 0.0
O487 O 0.30138 0.15759 0.58997 0.0
O488 O 0.28845 0.15668 0.61004 0.0
N489 N 0.38044 0.12838 0.57481 0.0
C490 C 0.34211 0.09517 0.56564 0.0
C491 C 0.43279 0.14009 0.55811 0.0
N492 N 0.43681 0.15672 0.57008 0.0
N493 N 0.37375 0.1012 0.55516 0.0
C494 C 0.36191 0.13344 0.64294 0.0
C495 C 0.26991 0.11036 0.64746 0.0
N496 N 0.33088 0.12262 0.63224 0.0
N497 N 0.27381 0.10824 0.63511 0.0
N498 N 0.32448 0.12592 0.65263 0.0
H499 H 0.45377 0.18072 0.63538 0.0
H500 H 0.44962 0.18335 0.65205 0.0
H501 H 0.4353 0.11379 0.64443 0.0
C502 C 0.42919 0.1545 0.64375 0.0
C503 C 0.27354 0.05732 0.56675 0.0
H504 H 0.25564 0.0749 0.57409 0.0
H505 H 0.25155 0.05712 0.55786 0.0
H506 H 0.2609 0.00936 0.56892 0.0
O507 O 0.29179 0.03607 0.59249 0.0
O508 O 0.28283 0.03461 0.61262 0.0
C509 C 0.27645 0.16735 0.59921 0.0
O510 O 0.41986 0.09865 0.61703 0.0
O511 O 0.428 0.10081 0.59679 0.0
Zn512 Zn 0.92099 0.25702 0.59413 0.0
O513 O 0.89856 0.16513 0.5922 0.0
C514 C 0.04902 0.29595 0.60248 0.0
Zn515 Zn 0.9318 0.26126 0.61484 0.0
C516 C 0.89872 0.1405 0.60243 0.0
O517 O 0.91235 0.17159 0.61228 0.0
C518 C 0.94893 0.37636 0.60713 0.0
O519 O 0.8379 0.22958 0.61662 0.0
O520 O 0.82448 0.22575 0.59647 0.0
N521 N 0.93961 0.24846 0.63329 0.0
C522 C 0.91943 0.25973 0.64402 0.0
C523 C 0.96425 0.20886 0.64836 0.0
N524 N 0.96762 0.21717 0.63608 0.0
N525 N 0.93407 0.23484 0.65363 0.0
C526 C 0.94476 0.25679 0.56519 0.0
C527 C 0.90536 0.3089 0.55841 0.0
N528 N 0.91798 0.26844 0.57495 0.0
N529 N 0.89323 0.30045 0.57061 0.0
N530 N 0.938 0.2823 0.55463 0.0
H531 H -0.01357 0.21433 0.5759 0.0
H532 H 0.95226 0.177 0.56185 0.0
H533 H 0.02444 0.24807 0.56137 0.0
C534 C 0.97943 0.22263 0.5662 0.0
C535 C 0.88335 0.29246 0.64494 0.0
H536 H 0.86261 0.29277 0.63596 0.0
H537 H 0.84696 0.27082 0.65211 0.0
H538 H 0.91476 0.34081 0.6476 0.0
O539 O 0.94967 0.35017 0.61712 0.0
O540 O 0.94081 0.34858 0.59687 0.0
C541 C 0.80255 0.21768 0.60742 0.0
O542 O 0.01659 0.28586 0.59284 0.0
O543 O 0.02485 0.29176 0.61298 0.0
Zn544 Zn 0.79397 0.69564 0.61147 0.0
O545 O 0.82144 0.6297 0.61134 0.0
C546 C 0.66921 0.60303 0.60464 0.0
Zn547 Zn 0.78231 0.69199 0.59101 0.0
C548 C 0.82555 0.60875 0.60091 0.0
O549 O 0.81037 0.62599 0.59115 0.0
C550 C 0.75648 0.78302 0.60135 0.0
O551 O 0.87397 0.75929 0.588 0.0
O552 O 0.88634 0.76259 0.60812 0.0
N553 N 0.76586 0.6799 0.57252 0.0
C554 C 0.76701 0.71854 0.56376 0.0
C555 C 0.72646 0.62949 0.55577 0.0
N556 N 0.74104 0.62465 0.56752 0.0
N557 N 0.74177 0.68786 0.55323 0.0
C558 C 0.80015 0.6759 0.64023 0.0
C559 C 0.83756 0.76812 0.64638 0.0
N560 N 0.80956 0.71113 0.63013 0.0
N561 N 0.83301 0.76831 0.63403 0.0
N562 N 0.81737 0.71075 0.65059 0.0
H563 H 0.80861 0.59549 0.63993 0.0
H564 H 0.74177 0.58639 0.6481 0.0
H565 H 0.74443 0.58858 0.63137 0.0
C566 C 0.77161 0.60755 0.63989 0.0
C567 C 0.79533 0.78656 0.5653 0.0
H568 H 0.83224 0.80406 0.5723 0.0
H569 H 0.81458 0.81041 0.55638 0.0
H570 H 0.75955 0.79739 0.56834 0.0
O571 O 0.75574 0.75813 0.59116 0.0
O572 O 0.76865 0.76371 0.61117 0.0
C573 C 0.90862 0.78026 0.59735 0.0
O574 O 0.70161 0.62619 0.61425 0.0
O575 O 0.69197 0.62406 0.59408 0.0
H576 H 0.57435 0.92036 0.09642 0.0
H577 H 0.47626 0.86154 0.13106 0.0
H578 H 0.51935 0.79438 0.13472 0.0
H579 H 0.5771 0.74595 0.12708 0.0
H580 H 0.67316 0.80343 0.09219 0.0
H581 H 0.64091 0.87986 0.08987 0.0
C582 C 0.56229 0.89262 0.10474 0.0
C583 C 0.52122 0.89458 0.11332 0.0
C584 C 0.58779 0.85495 0.10684 0.0
C585 C 0.50723 0.85995 0.12425 0.0
C586 C 0.53208 0.8219 0.12637 0.0
C587 C 0.59249 0.77635 0.11915 0.0
C588 C 0.62682 0.7686 0.10976 0.0
C589 C 0.57169 0.81839 0.11764 0.0
C590 C 0.64642 0.80839 0.09952 0.0
C591 C 0.62739 0.85155 0.09811 0.0
H592 H 0.29582 0.84551 0.12338 0.0
H593 H 0.26539 0.88288 0.086 0.0
H594 H 0.19349 0.77377 0.08279 0.0
H595 H 0.14875 0.6672 0.08995 0.0
H596 H 0.18313 0.63074 0.12716 0.0
H597 H 0.2454 0.74055 0.13104 0.0
C598 C 0.27186 0.83025 0.11468 0.0
C599 C 0.28558 0.87212 0.10497 0.0
C600 C 0.2331 0.76749 0.11274 0.0
C601 C 0.25514 0.85133 0.09364 0.0
C602 C 0.21478 0.78896 0.09175 0.0
C603 C 0.1703 0.68338 0.09887 0.0
C604 C 0.16243 0.64117 0.10819 0.0
C605 C 0.20539 0.74648 0.10109 0.0
C606 C 0.18924 0.66254 0.11981 0.0
C607 C 0.22441 0.72521 0.12206 0.0
H608 H 0.20822 0.46073 0.08713 0.0
H609 H 0.16565 0.38749 0.12416 0.0
H610 H 0.27484 0.42418 0.12786 0.0
H611 H 0.38321 0.48769 0.12121 0.0
H612 H 0.42279 0.56529 0.08444 0.0
H613 H 0.31355 0.51744 0.08014 0.0
C614 C 0.22235 0.45136 0.09594 0.0
C615 C 0.17914 0.42268 0.10546 0.0
C616 C 0.28488 0.4751 0.09817 0.0
C617 C 0.19835 0.41058 0.11676 0.0
C618 C 0.26075 0.432 0.11891 0.0
C619 C 0.36778 0.49441 0.1123 0.0
C620 C 0.41093 0.53059 0.10323 0.0
C621 C 0.30463 0.46665 0.10985 0.0
C622 C 0.39046 0.53807 0.09164 0.0
C623 C 0.32803 0.51037 0.08911 0.0
H624 H 0.92572 0.58307 0.94303 0.0
H625 H 0.86882 0.49205 0.90784 0.0
H626 H 0.79954 0.53354 0.90501 0.0
H627 H 0.74737 0.58584 0.91372 0.0
H628 H 0.80293 0.67417 0.94917 0.0
H629 H 0.88247 0.64531 0.95055 0.0
C630 C 0.89815 0.57236 0.93474 0.0
C631 C 0.90103 0.53353 0.92579 0.0
C632 C 0.85908 0.59662 0.93315 0.0
C633 C 0.86653 0.52128 0.91493 0.0
C634 C 0.82721 0.54513 0.91329 0.0
C635 C 0.7784 0.60076 0.92151 0.0
C636 C 0.76948 0.632 0.93133 0.0
C637 C 0.82226 0.58187 0.92246 0.0
C638 C 0.80919 0.6501 0.94151 0.0
C639 C 0.85411 0.63303 0.94236 0.0
H640 H 0.44585 0.20517 0.9171 0.0
H641 H 0.4027 0.18096 0.95603 0.0
H642 H 0.43856 0.29038 0.95802 0.0
H643 H 0.49536 0.39417 0.94926 0.0
H644 H 0.54316 0.41805 0.91052 0.0
H645 H 0.49358 0.3071 0.90796 0.0
C646 C 0.44265 0.22332 0.92596 0.0
C647 C 0.42252 0.18514 0.93643 0.0
C648 C 0.4662 0.28646 0.92716 0.0
C649 C 0.41839 0.20952 0.94783 0.0
C650 C 0.43965 0.27219 0.94902 0.0
C651 C 0.49511 0.37505 0.94028 0.0
C652 C 0.52391 0.41407 0.93015 0.0
C653 C 0.4663 0.31136 0.93885 0.0
C654 C 0.52195 0.38881 0.91849 0.0
C655 C 0.4933 0.32547 0.917 0.0
H656 H 0.66823 0.15106 0.91774 0.0
H657 H 0.6313 0.21733 0.95166 0.0
H658 H 0.74086 0.28216 0.95524 0.0
H659 H 0.84569 0.32107 0.94872 0.0
H660 H 0.88628 0.26301 0.91418 0.0
H661 H 0.77641 0.1913 0.91111 0.0
C662 C 0.6845 0.18067 0.92576 0.0
C663 C 0.6423 0.18006 0.93439 0.0
C664 C 0.74777 0.21751 0.92785 0.0
C665 C 0.66335 0.21749 0.94489 0.0
C666 C 0.72581 0.25401 0.94701 0.0
C667 C 0.83089 0.29174 0.94065 0.0
C668 C 0.87378 0.29712 0.93169 0.0
C669 C 0.76825 0.25389 0.93862 0.0
C670 C 0.85377 0.25935 0.92121 0.0
C671 C 0.79107 0.2191 0.91938 0.0
H672 H 0.23632 0.08912 0.45922 0.0
H673 H 0.30523 0.12319 0.42181 0.0
H674 H 0.26995 0.19729 0.41914 0.0
H675 H 0.20861 0.24234 0.42669 0.0
H676 H 0.13757 0.2052 0.46399 0.0
H677 H 0.18412 0.14113 0.46742 0.0
C678 C 0.24563 0.11407 0.45063 0.0
C679 C 0.2732 0.10042 0.44074 0.0
C680 C 0.22308 0.15449 0.44902 0.0
C681 C 0.28404 0.13287 0.42958 0.0
C682 C 0.26322 0.17464 0.428 0.0
C683 C 0.20314 0.21997 0.43555 0.0
C684 C 0.16874 0.2273 0.445 0.0
C685 C 0.23046 0.18379 0.4375 0.0
C686 C 0.16325 0.19949 0.45653 0.0
C687 C 0.19011 0.16322 0.45853 0.0
H688 H 0.94496 0.17863 0.45723 0.0
H689 H 0.90182 0.21194 0.42055 0.0
H690 H 0.82802 0.10285 0.41814 0.0
H691 H 0.78544 -0.00314 0.42556 0.0
H692 H 0.83093 0.9639 0.46209 0.0
H693 H 0.89537 0.07406 0.46538 0.0
C694 C 0.91785 0.16239 0.44889 0.0
C695 C 0.92872 0.2031 0.43909 0.0
C696 C 0.87769 0.09944 0.44737 0.0
C697 C 0.89395 0.18125 0.42824 0.0
C698 C 0.85246 0.11885 0.42679 0.0
C699 C 0.80985 0.01395 0.43419 0.0
C700 C 0.80464 0.97263 0.44347 0.0
C701 C 0.84597 0.07728 0.4361 0.0
C702 C 0.83501 -0.00492 0.45475 0.0
C703 C 0.87145 0.05796 0.45668 0.0
H704 H 0.03209 0.82657 0.45883 0.0
H705 H 0.06763 0.90358 0.42201 0.0
H706 H 0.95831 0.85564 0.41814 0.0
H707 H 0.85407 0.79634 0.42519 0.0
H708 H 0.81381 0.72566 0.46242 0.0
H709 H 0.9237 0.76433 0.46599 0.0
C710 C 0.01564 0.83335 0.45005 0.0
C711 C 0.05775 0.86861 0.44075 0.0
C712 C 0.95219 0.80567 0.44785 0.0
C713 C 0.0361 0.87658 0.42934 0.0
C714 C 0.97361 0.84884 0.42705 0.0
C715 C 0.86882 0.78803 0.43403 0.0
C716 C 0.82605 0.75882 0.44357 0.0
C717 C 0.93145 0.81331 0.43621 0.0
C718 C 0.84617 0.74865 0.45497 0.0
C719 C 0.90892 0.77128 0.45704 0.0
H720 H 0.41223 0.92079 0.25047 0.0
H721 H 0.44677 0.98021 0.28837 0.0
H722 H 0.52188 0.94538 0.28987 0.0
H723 H 0.56606 0.88586 0.28126 0.0
H724 H 0.52713 0.82189 0.24361 0.0
H725 H 0.46396 0.87047 0.24116 0.0
C726 C 0.43747 0.9282 0.25892 0.0
C727 C 0.42362 0.95289 0.26928 0.0
C728 C 0.47812 0.9055 0.25986 0.0
C729 C 0.45656 0.9613 0.28025 0.0
C730 C 0.49889 0.94072 0.28116 0.0
C731 C 0.54369 0.88238 0.27251 0.0
C732 C 0.54996 0.84915 0.2627 0.0
C733 C 0.50782 0.91035 0.27118 0.0
C734 C 0.52212 0.84644 0.25134 0.0
C735 C 0.48638 0.87445 0.24992 0.0
H736 H 0.13826 0.70891 0.25242 0.0
H737 H 0.25609 0.74816 0.28407 0.0
H738 H 0.21186 0.63923 0.28824 0.0
H739 H 0.14113 0.53429 0.28303 0.0
H740 H 0.02779 0.49076 0.2506 0.0
H741 H 0.06676 0.60037 0.24687 0.0
C742 C 0.15494 0.69322 0.26003 0.0
C743 C 0.20037 0.73591 0.2679 0.0
C744 C 0.12874 0.6303 0.26248 0.0
C745 C 0.22118 0.71568 0.27789 0.0
C746 C 0.19552 0.65362 0.28037 0.0
C747 C 0.12358 0.54848 0.27531 0.0
C748 C 0.0813 0.50479 0.26716 0.0
C749 C 0.1488 0.61075 0.27284 0.0
C750 C 0.06005 0.52395 0.25705 0.0
C751 C 0.08297 0.58643 0.25483 0.0
H752 H 0.50284 0.614 0.25093 0.0
H753 H 0.52022 0.5898 0.28985 0.0
H754 H 0.41046 0.515 0.29107 0.0
H755 H 0.30887 0.46687 0.28165 0.0
H756 H 0.29033 0.49532 0.24293 0.0
H757 H 0.40214 0.55962 0.24109 0.0
C758 C 0.48319 0.59124 0.2596 0.0
C759 C 0.51959 0.6076 0.27029 0.0
C760 C 0.41979 0.55067 0.26034 0.0
C761 C 0.49307 0.57793 0.2815 0.0
C762 C 0.43029 0.53574 0.28223 0.0
C763 C 0.32913 0.48716 0.27278 0.0
C764 C 0.29137 0.47733 0.26248 0.0
C765 C 0.39299 0.52375 0.27181 0.0
C766 C 0.31845 0.50292 0.25103 0.0
C767 C 0.38227 0.53933 0.24996 0.0
H768 H 0.88863 0.57363 0.79246 0.0
H769 H 0.79107 0.51064 0.75801 0.0
H770 H 0.8351 0.44487 0.75466 0.0
H771 H 0.90117 0.40607 0.76119 0.0
H772 H -0.0067 0.45949 0.79628 0.0
H773 H 0.95339 0.53011 0.79955 0.0
C774 C 0.87626 0.54448 0.78438 0.0
C775 C 0.83692 0.54687 0.77548 0.0
C776 C 0.9022 0.50677 0.78244 0.0
C777 C 0.82153 0.50957 0.76496 0.0
C778 C 0.84703 0.47237 0.76297 0.0
C779 C 0.9139 0.43429 0.76942 0.0
C780 C 0.95111 0.42883 0.77836 0.0
C781 C 0.88813 0.47147 0.77152 0.0
C782 C 0.9655 0.46402 0.78918 0.0
C783 C 0.94203 0.5036 0.79111 0.0
H784 H 0.64033 0.51358 0.75633 0.0
H785 H 0.58314 0.55171 0.79126 0.0
H786 H 0.51311 0.44183 0.79454 0.0
H787 H 0.4759 0.33445 0.7882 0.0
H788 H 0.54157 0.29961 0.75391 0.0
H789 H 0.60242 0.40902 0.74987 0.0
C790 C 0.61128 0.49821 0.76451 0.0
C791 C 0.6167 0.54059 0.77353 0.0
C792 C 0.57445 0.43542 0.76666 0.0
C793 C 0.57942 0.51975 0.78416 0.0
C794 C 0.54017 0.45698 0.78611 0.0
C795 C 0.50424 0.35103 0.77995 0.0
C796 C 0.50473 0.3092 0.77143 0.0
C797 C 0.53907 0.4143 0.77762 0.0
C798 C 0.54072 0.33103 0.76065 0.0
C799 C 0.57509 0.39352 0.75826 0.0
H800 H 0.53977 0.10953 0.75784 0.0
H801 H 0.51352 0.07864 0.79713 0.0
H802 H 0.62363 0.11622 0.79964 0.0
H803 H 0.72885 0.16908 0.79082 0.0
H804 H 0.7525 0.20457 0.75155 0.0
H805 H 0.64185 0.15507 0.74897 0.0
C806 C 0.5576 0.10955 0.76695 0.0
C807 C 0.51857 0.09229 0.77732 0.0
C808 C 0.6209 0.13376 0.76837 0.0
C809 C 0.54272 0.09248 0.78902 0.0
C810 C 0.60576 0.11447 0.79046 0.0
C811 C 0.70972 0.16607 0.78171 0.0
C812 C 0.74903 0.19126 0.77143 0.0
C813 C 0.64562 0.13757 0.78025 0.0
C814 C 0.72349 0.18623 0.75966 0.0
C815 C 0.66011 0.15753 0.75814 0.0
H816 H 0.09174 0.25555 0.5838 0.0
H817 H 0.13673 0.33416 0.62028 0.0
H818 H 0.21349 0.30202 0.62239 0.0
H819 H 0.25666 0.23881 0.61506 0.0
H820 H 0.20978 0.1581 0.57879 0.0
H821 H 0.14371 0.20268 0.57551 0.0
C822 C 0.11958 0.26731 0.59206 0.0
C823 C 0.10796 0.29634 0.60193 0.0
C824 C 0.16169 0.24641 0.59342 0.0
C825 C 0.14461 0.31143 0.61257 0.0
C826 C 0.18792 0.29238 0.61385 0.0
C827 C 0.23182 0.23097 0.60646 0.0
C828 C 0.23676 0.19423 0.5973 0.0
C829 C 0.19464 0.25732 0.60458 0.0
C830 C 0.20588 0.18567 0.58604 0.0
C831 C 0.16844 0.21138 0.58413 0.0
H832 H 0.81561 0.87133 0.61799 0.0
H833 H 0.71345 0.83198 0.58405 0.0
H834 H 0.75111 0.94164 0.58096 0.0
H835 H 0.8206 0.04916 0.58718 0.0
H836 H 0.9268 0.08527 0.62055 0.0
H837 H 0.88141 0.97593 0.62438 0.0
C838 C 0.80011 0.8864 0.61007 0.0
C839 C 0.76209 0.84392 0.60123 0.0
C840 C 0.82443 0.94899 0.60804 0.0
C841 C 0.74298 0.86421 0.59096 0.0
C842 C 0.76506 0.92678 0.58912 0.0
C843 C 0.83431 0.03284 0.59517 0.0
C844 C 0.87724 0.07486 0.60351 0.0
C845 C 0.8076 0.9697 0.59739 0.0
C846 C 0.89397 0.05353 0.61397 0.0
C847 C 0.8677 -0.00885 0.61624 0.0
H848 H 0.18213 0.97125 0.58381 0.0
H849 H 0.21114 0.92077 0.62018 0.0
H850 H 0.1022 0.84353 0.62167 0.0
H851 H -0.00231 0.79918 0.61356 0.0
H852 H 0.96842 0.85127 0.57733 0.0
H853 H 0.07923 0.91978 0.57483 0.0
C854 C 0.16526 0.94185 0.59185 0.0
C855 C 0.20462 0.95135 0.60182 0.0
C856 C 0.10242 0.89923 0.5928 0.0
C857 C 0.18158 0.91399 0.61236 0.0
C858 C 0.11929 0.87035 0.61327 0.0
C859 C 0.01558 0.82562 0.60513 0.0
C860 C 0.97513 0.82129 0.59574 0.0
C861 C 0.07903 0.86429 0.60373 0.0
C862 C -0.00117 0.85454 0.58473 0.0
C863 C 0.06206 0.89342 0.58329 0.0
H864 H 0.39524 0.95249 0.03934 0.0
H865 H 0.58385 0.08836 0.04637 0.0
H866 H 0.60021 0.1141 0.02439 0.0
H867 H 0.56051 0.09747 1.00313 0.0
H868 H 0.37158 0.96206 0.9962 0.0
H869 H 0.35594 0.93508 1.0181 0.0
C870 C 0.43989 0.98773 0.03603 0.0
C871 C 0.48784 0.01956 0.0445 0.0
C872 C 0.44906 0.00147 0.02338 0.0
C873 C 0.54563 0.06484 0.04012 0.0
C874 C 0.55517 0.07893 0.02753 0.0
C875 C 0.51608 0.06179 1.00644 0.0
C876 C 0.46775 0.03066 0.99801 0.0
C877 C 0.50716 0.04759 1.01909 0.0
C878 C 0.41015 0.98501 1.0024 0.0
C879 C 0.40097 0.97024 1.01496 0.0
H880 H 0.0629 0.44256 0.99514 0.0
H881 H 0.95282 0.52996 0.99792 0.0
H882 H 0.96385 0.53507 1.02038 0.0
H883 H 0.00541 0.51492 0.03936 0.0
H884 H 0.11639 0.42858 0.03654 0.0
H885 H 0.10523 0.42332 1.01407 0.0
C886 C 0.0426 0.46395 1.00065 0.0
C887 C 0.0081 0.48696 0.99484 0.0
C888 C 0.04879 0.46629 1.0136 0.0
C889 C 0.98003 0.51244 1.00218 0.0
C890 C -0.01383 0.5152 1.01502 0.0
C891 C 0.02609 0.49401 0.03382 0.0
C892 C 0.06079 0.4712 0.0396 0.0
C893 C 0.02011 0.49191 0.02086 0.0
C894 C 0.08912 0.44602 0.03227 0.0
C895 C 0.08288 0.44316 1.01943 0.0
H896 H 0.57977 0.50838 1.00317 0.0
H897 H 0.65693 0.6999 0.99431 0.0
H898 H 0.66404 0.72493 1.01624 0.0
H899 H 0.64782 0.69207 0.03797 0.0
H900 H 0.56941 0.50044 0.04688 0.0
H901 H 0.56505 0.47567 0.02498 0.0
C902 C 0.59796 0.5555 1.00609 0.0
C903 C 0.61598 0.60199 0.99715 0.0
C904 C 0.60278 0.56954 1.01872 0.0
C905 C 0.64033 0.66304 1.001 0.0
C906 C 0.64524 0.67744 1.01354 0.0
C907 C 0.63028 0.645 0.03508 0.0
C908 C 0.61058 0.59843 0.04405 0.0
C909 C 0.62641 0.63103 0.02247 0.0
C910 C 0.5872 0.53744 0.04022 0.0
C911 C 0.58377 0.52316 0.02768 0.0
H912 H 0.08024 0.3804 0.37408 0.0
H913 H 0.1587 0.26196 0.37408 0.0
H914 H 0.16918 0.26986 0.3516 0.0
H915 H 0.15708 0.3117 0.33182 0.0
H916 H 0.081 0.43188 0.33181 0.0
H917 H 0.06865 0.42268 0.35432 0.0
C918 C 0.10079 0.35748 0.36917 0.0
C919 C 0.11976 0.32158 0.37575 0.0
C920 C 0.10633 0.36198 0.35621 0.0
C921 C 0.14423 0.29023 0.3692 0.0
C922 C 0.15007 0.29459 0.35636 0.0
C923 C 0.13677 0.33474 0.33679 0.0
C924 C 0.11871 0.37133 0.33025 0.0
C925 C 0.13102 0.33009 0.34974 0.0
C926 C 0.09429 0.4028 0.33674 0.0
C927 C 0.0876 0.39779 0.34958 0.0
H928 H 0.65206 0.83747 0.37622 0.0
H929 H 0.75637 0.74399 0.37362 0.0
H930 H 0.74546 0.73877 0.35114 0.0
H931 H 0.70517 0.76003 0.33219 0.0
H932 H 0.60199 0.85475 0.3347 0.0
H933 H 0.61273 0.85984 0.35718 0.0
C934 C 0.67132 0.81504 0.37072 0.0
C935 C 0.704 0.79014 0.37654 0.0
C936 C 0.66555 0.81303 0.35777 0.0
C937 C 0.7306 0.76298 0.36929 0.0
C938 C 0.72452 0.76017 0.35646 0.0
C939 C 0.68638 0.78303 0.33764 0.0
C940 C 0.65395 0.80815 0.33178 0.0
C941 C 0.6924 0.78535 0.35057 0.0
C942 C 0.62766 0.83565 0.33903 0.0
C943 C 0.63361 0.83838 0.35187 0.0
H944 H 0.21211 0.82104 0.33776 0.0
H945 H 0.27583 0.01083 0.32924 0.0
H946 H 0.27807 0.03382 0.35119 0.0
H947 H 0.26372 0.00017 0.3728 0.0
H948 H 0.19921 0.81037 0.38147 0.0
H949 H 0.19742 0.78722 0.3595 0.0
C950 C 0.22603 0.86727 0.34076 0.0
C951 C 0.242 0.91381 0.33191 0.0
C952 C 0.2284 0.88026 0.3534 0.0
C953 C 0.26087 0.97378 0.33584 0.0
C954 C 0.2631 0.98709 0.3484 0.0
C955 C 0.24954 0.95381 0.36985 0.0
C956 C 0.23315 0.90739 0.37874 0.0
C957 C 0.24715 0.94072 0.35724 0.0
C958 C 0.21432 0.84735 0.37485 0.0
C959 C 0.21236 0.83396 0.36228 0.0
H960 H 0.8295 0.62355 0.70446 0.0
H961 H 0.77171 0.7547 0.7131 0.0
H962 H 0.77261 0.778 0.69121 0.0
H963 H 0.78762 0.7595 0.66951 0.0
H964 H 0.84436 0.62777 0.66071 0.0
H965 H 0.84424 0.60476 0.68266 0.0
C966 C 0.81752 0.65752 0.70153 0.0
C967 C 0.80253 0.68877 0.71047 0.0
C968 C 0.81666 0.66955 0.68886 0.0
C969 C 0.78613 0.73197 0.70652 0.0
C970 C 0.78564 0.74456 0.69396 0.0
C971 C 0.79975 0.7256 0.67241 0.0
C972 C 0.8145 0.69433 0.66345 0.0
C973 C 0.80065 0.71352 0.68506 0.0
C974 C 0.83061 0.65085 0.66734 0.0
C975 C 0.83141 0.63836 0.67992 0.0
H976 H 0.38467 0.08112 0.6657 0.0
H977 H 0.28773 0.18182 0.66886 0.0
H978 H 0.30049 0.18683 0.6913 0.0
H979 H 0.34052 0.16333 0.71003 0.0
H980 H 0.43733 0.06248 0.70686 0.0
H981 H 0.42425 0.0572 0.68443 0.0
C982 C 0.36754 0.10515 0.67131 0.0
C983 C 0.33644 0.13216 0.66567 0.0
C984 C 0.37456 0.10725 0.68419 0.0
C985 C 0.31233 0.16125 0.67305 0.0
C986 C 0.31947 0.16396 0.68586 0.0
C987 C 0.35748 0.13914 0.70443 0.0
C988 C 0.38877 0.11229 0.71005 0.0
C989 C 0.35026 0.13686 0.69154 0.0
C990 C 0.41264 0.08298 0.70267 0.0
C991 C 0.40532 0.08012 0.68988 0.0
H992 H 0.94142 0.32654 0.66794 0.0
H993 H 0.90184 0.13903 0.66876 0.0
H994 H 0.89723 0.1385 0.69129 0.0
H995 H 0.9163 0.19536 0.71072 0.0
H996 H 0.95413 0.38229 0.70993 0.0
H997 H 0.94682 0.379 0.68743 0.0
C998 C 0.92952 0.28495 0.67301 0.0
C999 C 0.92149 0.23276 0.66667 0.0
C1000 C 0.92735 0.28512 0.68599 0.0
C1001 C 0.90832 0.17983 0.67346 0.0
C1002 C 0.90575 0.1795 0.68633 0.0
C1003 C 0.92062 0.23451 0.70568 0.0
C1004 C 0.93521 0.2888 0.71201 0.0
C1005 C 0.91675 0.2324 0.69272 0.0
C1006 C 0.94295 0.33999 0.70524 0.0
C1007 C 0.93887 0.33818 0.69238 0.0
H1008 H 0.22764 0.92867 0.19814 0.0
H1009 H 0.39407 0.02158 0.21934 0.0
H1010 H 0.45585 0.05155 0.20043 0.0
H1011 H 0.46237 0.05299 0.17771 0.0
H1012 H 0.29601 0.96266 0.15643 0.0
H1013 H 0.23425 0.92978 0.17535 0.0
C1014 C 0.27743 0.95516 0.19853 0.0
C1015 C 0.3065 0.97158 0.21005 0.0
C1016 C 0.31255 0.97256 0.18759 0.0
C1017 C 0.37097 0.00661 0.21056 0.0
C1018 C 0.40621 0.02431 0.19975 0.0
C1019 C 0.41262 0.02581 0.1773 0.0
C1020 C 0.38377 0.0089 0.16576 0.0
C1021 C 0.37752 0.00758 0.18822 0.0
C1022 C 0.31925 0.97434 0.16523 0.0
C1023 C 0.28393 0.95615 0.17604 0.0
H1024 H -0.01414 0.44572 0.17353 0.0
H1025 H 0.06708 0.35318 0.1544 0.0
H1026 H 0.0924 0.32344 0.17405 0.0
H1027 H 0.08905 0.3215 0.19682 0.0
H1028 H 0.0065 0.41252 0.21604 0.0
H1029 H 0.9842 0.44534 0.19639 0.0
C1030 C 0.00946 0.41943 0.17375 0.0
C1031 C 0.02593 0.40287 0.16259 0.0
C1032 C 0.0236 0.40227 0.18512 0.0
C1033 C 0.05584 0.36816 0.16289 0.0
C1034 C 0.06972 0.3506 0.17412 0.0
C1035 C 0.06656 0.34884 0.19664 0.0
C1036 C 0.0506 0.3657 0.20782 0.0
C1037 C 0.05369 0.36725 0.1853 0.0
C1038 C 0.0209 0.40063 0.20755 0.0
C1039 C 0.00759 0.41884 0.19631 0.0
H1040 H 0.59536 0.71334 0.20609 0.0
H1041 H 0.77171 0.72376 0.20907 0.0
H1042 H 0.75701 0.67419 0.18899 0.0
H1043 H 0.69429 0.62795 0.17061 0.0
H1044 H 0.51345 0.60781 0.16835 0.0
H1045 H 0.52905 0.66023 0.18807 0.0
C1046 C 0.6297 0.70319 0.20248 0.0
C1047 C 0.68394 0.72076 0.20922 0.0
C1048 C 0.62035 0.6735 0.19098 0.0
C1049 C 0.72941 0.71011 0.20412 0.0
C1050 C 0.72096 0.68169 0.19265 0.0
C1051 C 0.65806 0.6347 0.17444 0.0
C1052 C 0.60362 0.61574 0.16768 0.0
C1053 C 0.66661 0.66312 0.18601 0.0
C1054 C 0.55707 0.62452 0.17291 0.0
C1055 C 0.56562 0.65374 0.18435 0.0
H1056 H 0.96854 0.32629 0.8787 0.0
H1057 H 0.06892 0.50588 0.86225 0.0
H1058 H 0.04023 0.46084 0.84161 0.0
H1059 H -0.00844 0.36987 0.8284 0.0
H1060 H 0.89221 0.19 0.84472 0.0
H1061 H 0.91474 0.23537 0.86543 0.0
C1062 C 0.98258 0.35551 0.8706 0.0
C1063 C 0.01961 0.41931 0.87191 0.0
C1064 C 0.96619 0.32918 0.85883 0.0
C1065 C 0.04001 0.45668 0.86136 0.0
C1066 C 0.02358 0.43098 0.84962 0.0
C1067 C 0.97313 0.34086 0.83649 0.0
C1068 C 0.93888 0.2769 0.83512 0.0
C1069 C -0.01289 0.36727 0.84825 0.0
C1070 C 0.91792 0.23941 0.84565 0.0
C1071 C 0.93098 0.26532 0.85743 0.0
H1072 H 0.71107 0.67246 0.87884 0.0
H1073 H 0.52639 0.59427 0.86505 0.0
H1074 H 0.56487 0.6058 0.84378 0.0
H1075 H 0.65234 0.64268 0.82908 0.0
H1076 H 0.83674 0.7222 0.84314 0.0
H1077 H 0.79738 0.70465 0.86434 0.0
C1078 C 0.67913 0.65638 0.8712 0.0
C1079 C 0.61579 0.63118 0.87352 0.0
C1080 C 0.70172 0.66354 0.85905 0.0
C1081 C 0.57526 0.6133 0.86347 0.0
C1082 C 0.59727 0.61985 0.85133 0.0
C1083 C 0.68357 0.65466 0.8368 0.0
C1084 C 0.74733 0.68276 0.83457 0.0
C1085 C 0.66053 0.64529 0.84899 0.0
C1086 C 0.78754 0.70014 0.84467 0.0
C1087 C 0.76505 0.69025 0.85677 0.0
H1088 H 0.42104 0.0695 0.82947 0.0
H1089 H 0.3225 0.15906 0.84206 0.0
H1090 H 0.34324 0.14499 0.86357 0.0
H1091 H 0.38426 0.10112 0.87879 0.0
H1092 H 0.48126 0.01031 0.86595 0.0
H1093 H 0.46738 0.0317 0.84453 0.0
C1094 C 0.40589 0.08773 0.83689 0.0
C1095 C 0.37156 0.11666 0.83417 0.0
C1096 C 0.4175 0.07886 0.8492 0.0
C1097 C 0.34952 0.13721 0.84395 0.0
C1098 C 0.36134 0.12911 0.85623 0.0
C1099 C 0.40375 0.08761 0.87131 0.0
C1100 C 0.43464 0.05503 0.87394 0.0
C1101 C 0.39473 0.09934 0.85898 0.0
C1102 C 0.45767 0.03572 0.86412 0.0
C1103 C 0.44963 0.04785 0.85189 0.0
H1104 H 0.97293 0.37786 0.53914 0.0
H1105 H 0.96041 0.2008 0.54171 0.0
H1106 H 0.00808 0.21571 0.52142 0.0
H1107 H 0.05501 0.28016 0.50269 0.0
H1108 H 0.05787 0.45242 0.4995 0.0
H1109 H 0.01297 0.43853 0.52014 0.0
C1110 C 0.98038 0.34228 0.53528 0.0
C1111 C 0.96482 0.28921 0.54235 0.0
C1112 C 0.00605 0.35026 0.52334 0.0
C1113 C 0.97446 0.24357 0.53699 0.0
C1114 C 0.00099 0.25165 0.52519 0.0
C1115 C 0.04411 0.31372 0.50636 0.0
C1116 C 0.05836 0.36664 0.49935 0.0
C1117 C 0.01718 0.30492 0.51826 0.0
C1118 C 0.04682 0.41111 0.50461 0.0
C1119 C 0.02108 0.40314 0.51642 0.0
H1120 H 0.64506 0.78717 0.51066 0.0
H1121 H 0.70978 0.68737 0.48888 0.0
H1122 H 0.74441 0.65851 0.50747 0.0
H1123 H 0.75524 0.66091 0.53004 0.0
H1124 H 0.68759 0.7577 0.552 0.0
H1125 H 0.65569 0.78918 0.53339 0.0
C1126 C 0.66688 0.75926 0.5101 0.0
C1127 C 0.67619 0.74031 0.49853 0.0
C1128 C 0.68648 0.74279 0.52085 0.0
C1129 C 0.70385 0.70364 0.49774 0.0
C1130 C 0.72321 0.68686 0.50835 0.0
C1131 C 0.73391 0.68926 0.53067 0.0
C1132 C 0.72544 0.70855 0.54227 0.0
C1133 C 0.71489 0.70628 0.51995 0.0
C1134 C 0.69688 0.74445 0.54311 0.0
C1135 C 0.67784 0.76172 0.53248 0.0
H1136 H 0.26003 0.90807 0.51259 0.0
H1137 H 0.3393 0.07297 0.49066 0.0
H1138 H 0.37656 0.13554 0.50924 0.0
H1139 H 0.38853 0.14332 0.53194 0.0
H1140 H 0.3118 0.9783 0.55377 0.0
H1141 H 0.27212 0.9157 0.53519 0.0
C1142 C 0.28499 0.95771 0.51196 0.0
C1143 C 0.29513 0.9859 0.50035 0.0
C1144 C 0.30712 -0.0067 0.52269 0.0
C1145 C 0.32853 0.05026 0.49954 0.0
C1146 C 0.35069 0.08605 0.51016 0.0
C1147 C 0.36308 0.09368 0.53253 0.0
C1148 C 0.35196 0.06521 0.54412 0.0
C1149 C 0.34041 0.05811 0.52179 0.0
C1150 C 0.31939 0.00092 0.54491 0.0
C1151 C 0.29708 0.96522 0.5343 0.0
H1152 H 0.48069 0.37367 0.11588 0.0
H1153 H 0.59463 0.42005 0.08326 0.0
H1154 H 0.55532 0.3114 0.07903 0.0
H1155 H 0.49554 0.2039 0.08565 0.0
H1156 H 0.38348 0.15781 0.11856 0.0
H1157 H 0.41319 0.26539 0.12138 0.0
C1158 C 0.49695 0.35985 0.10788 0.0
C1159 C 0.54111 0.40456 0.1 0.0
C1160 C 0.47367 0.29736 0.10543 0.0
C1161 C 0.56084 0.38627 0.08949 0.0
C1162 C 0.53826 0.32422 0.08704 0.0
C1163 C 0.47602 0.21715 0.09319 0.0
C1164 C 0.43748 0.17314 0.10189 0.0
C1165 C 0.49521 0.27937 0.09503 0.0
C1166 C 0.4132 0.19103 0.11173 0.0
C1167 C 0.43076 0.25258 0.11344 0.0
H1168 H 0.66473 0.15034 0.08731 0.0
H1169 H 0.65725 0.15101 0.12718 0.0
H1170 H 0.76894 0.21415 0.12794 0.0
H1171 H 0.86669 0.27399 0.11741 0.0
H1172 H 0.8748 0.28147 0.07757 0.0
H1173 H 0.76456 0.2073 0.07669 0.0
C1174 C 0.68751 0.1643 0.09617 0.0
C1175 C 0.6527 0.14663 0.10718 0.0
C1176 C 0.75167 0.2009 0.09655 0.0
C1177 C 0.6829 0.16468 0.11858 0.0
C1178 C 0.74675 0.20033 0.11903 0.0
C1179 C 0.84481 0.25879 0.10849 0.0
C1180 C 0.87883 0.28371 0.09756 0.0
C1181 C 0.78135 0.21917 0.10808 0.0
C1182 C 0.84968 0.26295 0.08612 0.0
C1183 C 0.78655 0.22122 0.08562 0.0
H1184 H 0.77888 0.60428 0.08722 0.0
H1185 H 0.78579 0.62575 0.12682 0.0
H1186 H 0.86184 0.59212 0.12807 0.0
H1187 H 0.91588 0.54457 0.11818 0.0
H1188 H 0.90416 0.51823 0.07867 0.0
H1189 H 0.8393 0.56496 0.07716 0.0
C1190 C 0.79813 0.60316 0.0961 0.0
C1191 C 0.77638 0.61691 0.10692 0.0
C1192 C 0.83952 0.58123 0.09681 0.0
C1193 C 0.80172 0.61514 0.11836 0.0
C1194 C 0.84465 0.5953 0.1191 0.0
C1195 C 0.89909 0.54902 0.10924 0.0
C1196 C 0.91385 0.52707 0.09859 0.0
C1197 C 0.86188 0.57588 0.10843 0.0
C1198 C 0.89282 0.53419 0.08704 0.0
C1199 C 0.85602 0.56116 0.08615 0.0
H1200 H 0.37686 0.48941 0.92444 0.0
H1201 H 0.41593 0.59007 0.95854 0.0
H1202 H 0.30589 0.54901 0.96223 0.0
H1203 H 0.19985 0.49246 0.95468 0.0
H1204 H 0.1612 0.39212 0.9205 0.0
H1205 H 0.26966 0.42277 0.91819 0.0
C1206 C 0.36106 0.50242 0.93264 0.0
C1207 C 0.40389 0.54371 0.94105 0.0
C1208 C 0.29796 0.47771 0.93481 0.0
C1209 C 0.38334 0.55896 0.95185 0.0
C1210 C 0.32061 0.53524 0.954 0.0
C1211 C 0.21485 0.47555 0.94696 0.0
C1212 C 0.17294 0.4406 0.93772 0.0
C1213 C 0.27755 0.49526 0.94545 0.0
C1214 C 0.19293 0.41932 0.92771 0.0
C1215 C 0.25498 0.43746 0.9263 0.0
H1216 H 0.54698 0.91754 0.95392 0.0
H1217 H 0.52621 0.91759 0.91433 0.0
H1218 H 0.57133 0.8523 0.91191 0.0
H1219 H 0.60824 0.78846 0.9209 0.0
H1220 H 0.62475 0.78202 0.96044 0.0
H1221 H 0.59207 0.8583 0.96295 0.0
C1222 C 0.55248 0.90331 0.94478 0.0
C1223 C 0.53241 0.92183 0.93436 0.0
C1224 C 0.57837 0.86519 0.9434 0.0
C1225 C 0.54053 0.90357 0.92255 0.0
C1226 C 0.56668 0.86642 0.92112 0.0
C1227 C 0.60595 0.80449 0.93008 0.0
C1228 C 0.6181 0.77883 0.94047 0.0
C1229 C 0.58479 0.8462 0.93147 0.0
C1230 C 0.61532 0.80069 0.95227 0.0
C1231 C 0.596 0.84388 0.95372 0.0
H1232 H 0.29099 0.86785 0.91963 0.0
H1233 H 0.27142 0.88784 0.95871 0.0
H1234 H 0.1958 0.77867 0.96031 0.0
H1235 H 0.14434 0.67629 0.95097 0.0
H1236 H 0.17032 0.65708 0.91209 0.0
H1237 H 0.23571 0.76757 0.91013 0.0
C1238 C 0.26918 0.84875 0.92846 0.0
C1239 C 0.28691 0.88557 0.93904 0.0
C1240 C 0.22831 0.78591 0.92941 0.0
C1241 C 0.25846 0.86015 0.95042 0.0
C1242 C 0.21579 0.79773 0.95137 0.0
C1243 C 0.16446 0.69631 0.94208 0.0
C1244 C 0.15319 0.6586 0.93174 0.0
C1245 C 0.20216 0.75988 0.941 0.0
C1246 C 0.17883 0.68512 0.92024 0.0
C1247 C 0.21589 0.7483 0.91907 0.0
H1248 H 0.17303 0.71954 0.42061 0.0
H1249 H 0.1697 0.7258 0.46046 0.0
H1250 H 0.12016 0.6148 0.46146 0.0
H1251 H 0.08457 0.51722 0.45135 0.0
H1252 H 0.09433 0.50861 0.41166 0.0
H1253 H 0.13193 0.61892 0.41027 0.0
C1254 C 0.16149 0.69655 0.4295 0.0
C1255 C 0.1758 0.73115 0.44044 0.0
C1256 C 0.13319 0.63223 0.43005 0.0
C1257 C 0.15999 0.70058 0.45189 0.0
C1258 C 0.1312 0.63695 0.45249 0.0
C1259 C 0.09376 0.539 0.44234 0.0
C1260 C 0.08704 0.50465 0.43164 0.0
C1261 C 0.11828 0.60248 0.44166 0.0
C1262 C 0.09889 0.53385 0.42006 0.0
C1263 C 0.12121 0.59711 0.41927 0.0
H1264 H 0.49842 0.62949 0.41909 0.0
H1265 H 0.54034 0.57659 0.454 0.0
H1266 H 0.43194 0.50049 0.45706 0.0
H1267 H 0.32366 0.4572 0.45083 0.0
H1268 H 0.28241 0.51203 0.41605 0.0
H1269 H 0.39174 0.58011 0.41205 0.0
C1270 C 0.48407 0.59974 0.42714 0.0
C1271 C 0.52703 0.6083 0.43628 0.0
C1272 C 0.42146 0.55804 0.42908 0.0
C1273 C 0.50782 0.57037 0.44681 0.0
C1274 C 0.44581 0.52754 0.44865 0.0
C1275 C 0.33885 0.48451 0.44245 0.0
C1276 C 0.29538 0.48066 0.43386 0.0
C1277 C 0.40192 0.52273 0.44008 0.0
C1278 C 0.31532 0.51489 0.42286 0.0
C1279 C 0.37775 0.55346 0.42051 0.0
H1280 H 0.56559 0.88374 0.45212 0.0
H1281 H 0.53502 0.82511 0.4141 0.0
H1282 H 0.4692 0.87021 0.41134 0.0
H1283 H 0.41332 0.9174 0.42026 0.0
H1284 H 0.44059 0.97258 0.45851 0.0
H1285 H 0.51703 0.93989 0.46051 0.0
C1286 C 0.54433 0.88071 0.44325 0.0
C1287 C 0.55393 0.8502 0.4334 0.0
C1288 C 0.50697 0.90697 0.44172 0.0
C1289 C 0.52755 0.84785 0.42186 0.0
C1290 C 0.49024 0.87385 0.42025 0.0
C1291 C 0.43712 0.92381 0.42895 0.0
C1292 C 0.42087 0.94659 0.43926 0.0
C1293 C 0.47891 0.90263 0.43018 0.0
C1294 C 0.45214 0.95473 0.45046 0.0
C1295 C 0.49531 0.93547 0.45165 0.0
H1296 H 0.83882 0.76004 0.25718 0.0
H1297 H 0.82269 0.76544 0.29679 0.0
H1298 H 0.93222 0.79952 0.29892 0.0
H1299 H 0.03501 0.83978 0.28926 0.0
H1300 H 0.0489 0.83993 0.24947 0.0
H1301 H 0.93811 0.79281 0.24775 0.0
C1302 C 0.85874 0.76737 0.26633 0.0
C1303 C 0.82264 0.76081 0.27679 0.0
C1304 C 0.92192 0.78959 0.26745 0.0
C1305 C 0.84943 0.7703 0.28856 0.0
C1306 C 0.91225 0.79046 0.28978 0.0
C1307 C 0.01367 0.8293 0.28023 0.0
C1308 C 0.05043 0.84427 0.26952 0.0
C1309 C 0.94941 0.8025 0.27925 0.0
C1310 C 0.02201 0.82984 0.25788 0.0
C1311 C 0.95847 0.80246 0.25686 0.0
H1312 H 0.23805 0.08885 0.25444 0.0
H1313 H 0.27465 0.10306 0.29356 0.0
H1314 H 0.24079 0.17871 0.29546 0.0
H1315 H 0.19082 0.23236 0.28628 0.0
H1316 H 0.14933 0.21189 0.2473 0.0
H1317 H 0.19415 0.14604 0.24516 0.0
C1318 C 0.23997 0.10939 0.26336 0.0
C1319 C 0.25835 0.09009 0.27386 0.0
C1320 C 0.21805 0.1505 0.26446 0.0
C1321 C 0.26041 0.11709 0.28534 0.0
C1322 C 0.24053 0.15985 0.28645 0.0
C1323 C 0.19148 0.21334 0.27733 0.0
C1324 C 0.16614 0.22641 0.26701 0.0
C1325 C 0.21723 0.17523 0.27614 0.0
C1326 C 0.16802 0.20212 0.25544 0.0
C1327 C 0.19396 0.16472 0.25416 0.0
H1328 H 0.79692 -0.00798 0.28737 0.0
H1329 H 0.80566 0.9703 0.24796 0.0
H1330 H 0.86746 0.08072 0.24542 0.0
H1331 H 0.92443 0.18193 0.25434 0.0
H1332 H 0.92418 0.20546 0.29381 0.0
H1333 H 0.85125 0.09586 0.29631 0.0
C1334 C 0.81251 0.01149 0.27824 0.0
C1335 C 0.79728 0.97289 0.2679 0.0
C1336 C 0.84852 0.07528 0.27682 0.0
C1337 C 0.81727 -0.00117 0.25611 0.0
C1338 C 0.85225 0.06205 0.25462 0.0
C1339 C 0.90755 0.16359 0.26349 0.0
C1340 C 0.93004 0.20173 0.27388 0.0
C1341 C 0.86858 0.10053 0.26491 0.0
C1342 C 0.90757 0.17699 0.28566 0.0
C1343 C 0.86648 0.11425 0.2871 0.0
H1344 H 0.8275 0.8715 0.78602 0.0
H1345 H 0.74741 0.8352 0.7497 0.0
H1346 H 0.78625 0.94526 0.74656 0.0
H1347 H 0.84773 0.05263 0.75407 0.0
H1348 H 0.93435 0.08454 0.78979 0.0
H1349 H 0.88984 0.9752 0.79305 0.0
C1350 C 0.81714 0.88733 0.77752 0.0
C1351 C 0.78377 0.84549 0.7682 0.0
C1352 C 0.84249 0.95006 0.77553 0.0
C1353 C 0.7723 0.86685 0.75709 0.0
C1354 C 0.79519 0.92966 0.75523 0.0
C1355 C 0.85753 0.03538 0.76243 0.0
C1356 C 0.89396 0.07634 0.77168 0.0
C1357 C 0.8316 0.97189 0.76431 0.0
C1358 C 0.90608 0.05374 0.78256 0.0
C1359 C 0.88035 -0.00875 0.78449 0.0
H1360 H 0.19032 0.95369 0.78862 0.0
H1361 H 0.22385 0.93236 0.75031 0.0
H1362 H 0.11547 0.85574 0.7477 0.0
H1363 H 0.0091 0.80201 0.75587 0.0
H1364 H 0.97741 0.82778 0.79407 0.0
H1365 H 0.08679 0.89592 0.79704 0.0
C1366 C 0.17436 0.93137 0.77975 0.0
C1367 C 0.21509 0.94897 0.76968 0.0
C1368 C 0.11182 0.88906 0.7782 0.0
C1369 C 0.19341 0.91966 0.75824 0.0
C1370 C 0.1313 0.87626 0.7567 0.0
C1371 C 0.02625 0.82262 0.76482 0.0
C1372 C 0.98501 0.81019 0.77467 0.0
C1373 C 0.08968 0.86202 0.76652 0.0
C1374 C 0.00799 0.83667 0.78628 0.0
C1375 C 0.07068 0.87558 0.78803 0.0
H1376 H 0.26213 0.22197 0.78608 0.0
H1377 H 0.23661 0.17713 0.7473 0.0
H1378 H 0.17146 0.22382 0.74549 0.0
H1379 H 0.11433 0.26788 0.7554 0.0
H1380 H 0.13606 0.30771 0.79442 0.0
H1381 H 0.21236 0.27438 0.79556 0.0
C1382 C 0.24236 0.22236 0.77722 0.0
C1383 C 0.25314 0.19506 0.76688 0.0
C1384 C 0.20511 0.2491 0.77627 0.0
C1385 C 0.22833 0.19718 0.75542 0.0
C1386 C 0.19133 0.22406 0.75438 0.0
C1387 C 0.13689 0.27087 0.7641 0.0
C1388 C 0.1192 0.28982 0.77484 0.0
C1389 C 0.17857 0.24913 0.76479 0.0
C1390 C 0.14878 0.29318 0.78603 0.0
C1391 C 0.19188 0.27351 0.78672 0.0
H1392 H 0.53426 0.14489 0.62465 0.0
H1393 H 0.48979 0.04547 0.59033 0.0
H1394 H 0.59766 0.07504 0.58726 0.0
H1395 H 0.70637 0.13993 0.59305 0.0
H1396 H 0.75066 0.23994 0.62731 0.0
H1397 H 0.64161 0.20037 0.63158 0.0
C1398 C 0.54788 0.12783 0.61675 0.0
C1399 C 0.50424 0.09305 0.60775 0.0
C1400 C 0.61036 0.14694 0.6148 0.0
C1401 C 0.52268 0.07214 0.59742 0.0
C1402 C 0.58446 0.08974 0.59557 0.0
C1403 C 0.69197 0.15304 0.60142 0.0
C1404 C 0.73637 0.19362 0.60973 0.0
C1405 C 0.62903 0.12926 0.60393 0.0
C1406 C 0.71723 0.20916 0.62071 0.0
C1407 C 0.65488 0.18634 0.62319 0.0
H1408 H 0.92357 0.42937 0.58812 0.0
H1409 H 0.96082 0.44731 0.62725 0.0
H1410 H 0.92711 0.52316 0.62871 0.0
H1411 H 0.87665 0.57538 0.61925 0.0
H1412 H 0.83454 0.55187 0.58031 0.0
H1413 H 0.87954 0.48584 0.57849 0.0
C1414 C 0.92559 0.45069 0.59695 0.0
C1415 C 0.94413 0.43236 0.60758 0.0
C1416 C 0.90373 0.49195 0.59782 0.0
C1417 C 0.94659 0.46061 0.61892 0.0
C1418 C 0.92671 0.50344 0.61979 0.0
C1419 C 0.87724 0.55572 0.61037 0.0
C1420 C 0.85159 0.56782 0.59997 0.0
C1421 C 0.90313 0.51772 0.60937 0.0
C1422 C 0.85344 0.54276 0.58849 0.0
C1423 C 0.87946 0.50529 0.58741 0.0
H1424 H 0.46314 0.34011 0.59107 0.0
H1425 H 0.52575 0.29934 0.62491 0.0
H1426 H 0.59243 0.40869 0.62884 0.0
H1427 H 0.63765 0.51503 0.62192 0.0
H1428 H 0.57639 0.5563 0.58794 0.0
H1429 H 0.50213 0.4477 0.58507 0.0
C1430 C 0.49198 0.35544 0.59921 0.0
C1431 C 0.49096 0.31233 0.60755 0.0
C1432 C 0.52902 0.41826 0.60155 0.0
C1433 C 0.5268 0.33219 0.61829 0.0
C1434 C 0.5644 0.39452 0.62059 0.0
C1435 C 0.60664 0.50049 0.61411 0.0
C1436 C 0.61245 0.54332 0.60514 0.0
C1437 C 0.5661 0.43793 0.61225 0.0
C1438 C 0.57251 0.52387 0.59498 0.0
C1439 C 0.53075 0.46179 0.59323 0.0
loop_
_geom_bond_atom_site_label_1
_geom_bond_atom_site_label_2
_geom_bond_distance
_geom_bond_site_symmetry_2
_ccdc_geom_bond_type
Zn0 O1 2.055 . S
Zn0 O8 2.046 1_545 S
Zn0 N16 2.036 . S
Zn0 O28 2.053 1_545 S
Zn0 O30 2.066 . S
O1 Zn0 2.055 . S
O1 C4 1.259 . S
C2 O30 1.256 . S
C2 O31 1.244 . S
Zn3 O5 2.046 . S
Zn3 O7 2.055 1_545 S
Zn3 N9 2.036 . S
Zn3 O27 2.066 1_545 S
Zn3 O31 2.053 . S
C4 O1 1.259 . S
C4 O5 1.254 . S
O5 Zn3 2.046 . S
O5 C4 1.254 . S
C6 O27 1.256 . S
C6 O28 1.244 . S
O7 Zn3 2.055 1_565 S
O7 C29 1.259 . S
O8 Zn0 2.046 1_565 S
O8 C29 1.254 . S
N9 Zn3 2.036 . S
N9 C10 1.298 1_545 S
N9 N12 1.398 . S
C10 N9 1.298 1_565 S
C10 N13 1.367 1_565 S
C10 C23 1.481 . S
C11 N12 1.299 . S
C11 N13 1.379 . S
N12 N9 1.398 . S
N12 C11 1.299 . S
N13 C10 1.367 1_545 S
N13 C11 1.379 . S
C14 N16 1.298 . S
C14 N18 1.367 . S
C14 C22 1.481 . S
C15 N17 1.299 . S
C15 N18 1.379 1_565 S
N16 Zn0 2.036 . S
N16 C14 1.298 . S
N16 N17 1.398 1_545 S
N17 C15 1.299 . S
N17 N16 1.398 1_565 S
N18 C14 1.367 . S
N18 C15 1.379 1_545 S
H19 C22 0.980 . S
H20 C22 0.981 . S
H21 C22 0.981 . S
C22 C14 1.481 . S
C22 H19 0.980 . S
C22 H20 0.981 . S
C22 H21 0.981 . S
C23 C10 1.481 . S
C23 H24 0.980 . S
C23 H25 0.981 . S
C23 H26 0.981 . S
H24 C23 0.980 . S
H25 C23 0.981 . S
H26 C23 0.981 . S
O27 Zn3 2.066 1_565 S
O27 C6 1.256 . S
O28 Zn0 2.053 1_565 S
O28 C6 1.244 . S
C29 O7 1.259 . S
C29 O8 1.254 . S
O30 Zn0 2.066 . S
O30 C2 1.256 . S
O31 C2 1.244 . S
O31 Zn3 2.053 . S
Zn32 O33 2.055 1_455 S
Zn32 O40 2.046 . S
Zn32 N48 2.036 . S
Zn32 O60 2.053 . S
Zn32 O62 2.066 1_455 S
O33 Zn32 2.055 1_655 S
O33 C36 1.259 . S
C34 O62 1.256 . S
C34 O63 1.244 . S
Zn35 O37 2.046 1_455 S
Zn35 O39 2.055 . S
Zn35 N41 2.036 . S
Zn35 O59 2.066 . S
Zn35 O63 2.053 1_455 S
C36 O33 1.259 . S
C36 O37 1.254 . S
O37 Zn35 2.046 1_655 S
O37 C36 1.254 . S
C38 O59 1.256 . S
C38 O60 1.244 . S
O39 Zn35 2.055 . S
O39 C61 1.259 . S
O40 Zn32 2.046 . S
O40 C61 1.254 . S
N41 Zn35 2.036 . S
N41 C42 1.298 . S
N41 N44 1.398 1_455 S
C42 N41 1.298 . S
C42 N45 1.367 . S
C42 C55 1.481 . S
C43 N44 1.299 1_455 S
C43 N45 1.379 . S
N44 N41 1.398 1_655 S
N44 C43 1.299 1_655 S
N45 C42 1.367 . S
N45 C43 1.379 . S
C46 N48 1.298 . S
C46 N50 1.367 . S
C46 C54 1.481 1_455 S
C47 N49 1.299 . S
C47 N50 1.379 . S
N48 Zn32 2.036 . S
N48 C46 1.298 . S
N48 N49 1.398 . S
N49 C47 1.299 . S
N49 N48 1.398 . S
N50 C46 1.367 . S
N50 C47 1.379 . S
H51 C54 0.980 . S
H52 C54 0.981 . S
H53 C54 0.981 . S
C54 C46 1.481 1_655 S
C54 H51 0.980 . S
C54 H52 0.981 . S
C54 H53 0.981 . S
C55 C42 1.481 . S
C55 H56 0.980 . S
C55 H57 0.981 . S
C55 H58 0.981 . S
H56 C55 0.980 . S
H57 C55 0.981 . S
H58 C55 0.981 . S
O59 Zn35 2.066 . S
O59 C38 1.256 . S
O60 Zn32 2.053 . S
O60 C38 1.244 . S
C61 O39 1.259 . S
C61 O40 1.254 . S
O62 Zn32 2.066 1_655 S
O62 C34 1.256 . S
O63 C34 1.244 . S
O63 Zn35 2.053 1_655 S
Zn64 O65 2.055 . S
Zn64 O72 2.046 . S
Zn64 N80 2.036 . S
Zn64 O92 2.053 . S
Zn64 O94 2.066 . S
O65 Zn64 2.055 . S
O65 C68 1.259 . S
C66 O94 1.256 . S
C66 O95 1.244 . S
Zn67 O69 2.046 . S
Zn67 O71 2.055 . S
Zn67 N73 2.036 . S
Zn67 O91 2.066 . S
Zn67 O95 2.053 . S
C68 O65 1.259 . S
C68 O69 1.254 . S
O69 Zn67 2.046 . S
O69 C68 1.254 . S
C70 O91 1.256 . S
C70 O92 1.244 . S
O71 Zn67 2.055 . S
O71 C93 1.259 . S
O72 Zn64 2.046 . S
O72 C93 1.254 . S
N73 Zn67 2.036 . S
N73 C74 1.298 . S
N73 N76 1.398 . S
C74 N73 1.298 . S
C74 N77 1.367 . S
C74 C87 1.481 . S
C75 N76 1.299 . S
C75 N77 1.379 . S
N76 N73 1.398 . S
N76 C75 1.299 . S
N77 C74 1.367 . S
N77 C75 1.379 . S
C78 N80 1.298 . S
C78 N82 1.367 . S
C78 C86 1.481 . S
C79 N81 1.299 . S
C79 N82 1.379 . S
N80 Zn64 2.036 . S
N80 C78 1.298 . S
N80 N81 1.398 . S
N81 C79 1.299 . S
N81 N80 1.398 . S
N82 C78 1.367 . S
N82 C79 1.379 . S
H83 C86 0.980 . S
H84 C86 0.981 . S
H85 C86 0.981 . S
C86 C78 1.481 . S
C86 H83 0.980 . S
C86 H84 0.981 . S
C86 H85 0.981 . S
C87 C74 1.481 . S
C87 H88 0.980 . S
C87 H89 0.981 . S
C87 H90 0.981 . S
H88 C87 0.980 . S
H89 C87 0.981 . S
H90 C87 0.981 . S
O91 Zn67 2.066 . S
O91 C70 1.256 . S
O92 Zn64 2.053 . S
O92 C70 1.244 . S
C93 O71 1.259 . S
C93 O72 1.254 . S
O94 Zn64 2.066 . S
O94 C66 1.256 . S
O95 C66 1.244 . S
O95 Zn67 2.053 . S
Zn96 O97 2.055 1_455 S
Zn96 O104 2.046 . S
Zn96 N112 2.036 . S
Zn96 O124 2.053 . S
Zn96 O126 2.066 1_455 S
O97 Zn96 2.055 1_655 S
O97 C100 1.259 . S
C98 O126 1.256 . S
C98 O127 1.244 . S
Zn99 O101 2.046 1_455 S
Zn99 O103 2.055 . S
Zn99 N105 2.036 . S
Zn99 O123 2.066 . S
Zn99 O127 2.053 1_455 S
C100 O97 1.259 . S
C100 O101 1.254 . S
O101 Zn99 2.046 1_655 S
O101 C100 1.254 . S
C102 O123 1.256 . S
C102 O124 1.244 . S
O103 Zn99 2.055 . S
O103 C125 1.259 . S
O104 Zn96 2.046 . S
O104 C125 1.254 . S
N105 Zn99 2.036 . S
N105 C106 1.298 . S
N105 N108 1.398 1_455 S
C106 N105 1.298 . S
C106 N109 1.367 . S
C106 C119 1.481 . S
C107 N108 1.299 . S
C107 N109 1.379 1_655 S
N108 N105 1.398 1_655 S
N108 C107 1.299 . S
N109 C106 1.367 . S
N109 C107 1.379 1_455 S
C110 N112 1.298 1_655 S
C110 N114 1.367 1_655 S
C110 C118 1.481 . S
C111 N113 1.299 . S
C111 N114 1.379 . S
N112 Zn96 2.036 . S
N112 C110 1.298 1_455 S
N112 N113 1.398 . S
N113 C111 1.299 . S
N113 N112 1.398 . S
N114 C110 1.367 1_455 S
N114 C111 1.379 . S
H115 C118 0.980 . S
H116 C118 0.981 . S
H117 C118 0.981 . S
C118 C110 1.481 . S
C118 H115 0.980 . S
C118 H116 0.981 . S
C118 H117 0.981 . S
C119 C106 1.481 . S
C119 H120 0.980 . S
C119 H121 0.981 . S
C119 H122 0.981 . S
H120 C119 0.980 . S
H121 C119 0.981 . S
H122 C119 0.981 . S
O123 Zn99 2.066 . S
O123 C102 1.256 . S
O124 Zn96 2.053 . S
O124 C102 1.244 . S
C125 O103 1.259 . S
C125 O104 1.254 . S
O126 Zn96 2.066 1_655 S
O126 C98 1.256 . S
O127 C98 1.244 . S
O127 Zn99 2.053 1_655 S
Zn128 O129 2.055 . S
Zn128 O136 2.046 . S
Zn128 N144 2.036 . S
Zn128 O156 2.053 . S
Zn128 O158 2.066 . S
O129 Zn128 2.055 . S
O129 C132 1.259 . S
C130 O158 1.256 . S
C130 O159 1.244 . S
Zn131 O133 2.046 . S
Zn131 O135 2.055 . S
Zn131 N137 2.036 . S
Zn131 O155 2.066 . S
Zn131 O159 2.053 . S
C132 O129 1.259 . S
C132 O133 1.254 . S
O133 Zn131 2.046 . S
O133 C132 1.254 . S
C134 O155 1.256 . S
C134 O156 1.244 . S
O135 Zn131 2.055 . S
O135 C157 1.259 . S
O136 Zn128 2.046 . S
O136 C157 1.254 . S
N137 Zn131 2.036 . S
N137 C138 1.298 . S
N137 N140 1.398 . S
C138 N137 1.298 . S
C138 N141 1.367 . S
C138 C151 1.481 . S
C139 N140 1.299 . S
C139 N141 1.379 . S
N140 N137 1.398 . S
N140 C139 1.299 . S
N141 C138 1.367 . S
N141 C139 1.379 . S
C142 N144 1.298 . S
C142 N146 1.367 . S
C142 C150 1.481 . S
C143 N145 1.299 . S
C143 N146 1.379 . S
N144 Zn128 2.036 . S
N144 C142 1.298 . S
N144 N145 1.398 . S
N145 C143 1.299 . S
N145 N144 1.398 . S
N146 C142 1.367 . S
N146 C143 1.379 . S
H147 C150 0.980 . S
H148 C150 0.981 . S
H149 C150 0.981 . S
C150 C142 1.481 . S
C150 H147 0.980 . S
C150 H148 0.981 . S
C150 H149 0.981 . S
C151 C138 1.481 . S
C151 H152 0.980 . S
C151 H153 0.981 . S
C151 H154 0.981 . S
H152 C151 0.980 . S
H153 C151 0.981 . S
H154 C151 0.981 . S
O155 Zn131 2.066 . S
O155 C134 1.256 . S
O156 Zn128 2.053 . S
O156 C134 1.244 . S
C157 O135 1.259 . S
C157 O136 1.254 . S
O158 Zn128 2.066 . S
O158 C130 1.256 . S
O159 C130 1.244 . S
O159 Zn131 2.053 . S
Zn160 O161 2.055 1_545 S
Zn160 O168 2.046 . S
Zn160 N176 2.036 . S
Zn160 O188 2.053 . S
Zn160 O190 2.066 1_545 S
O161 Zn160 2.055 1_565 S
O161 C164 1.259 . S
C162 O190 1.256 . S
C162 O191 1.244 . S
Zn163 O165 2.046 1_545 S
Zn163 O167 2.055 . S
Zn163 N169 2.036 . S
Zn163 O187 2.066 . S
Zn163 O191 2.053 1_545 S
C164 O161 1.259 . S
C164 O165 1.254 . S
O165 Zn163 2.046 1_565 S
O165 C164 1.254 . S
C166 O187 1.256 . S
C166 O188 1.244 . S
O167 Zn163 2.055 . S
O167 C189 1.259 . S
O168 Zn160 2.046 . S
O168 C189 1.254 . S
N169 Zn163 2.036 . S
N169 C170 1.298 . S
N169 N172 1.398 1_545 S
C170 N169 1.298 . S
C170 N173 1.367 . S
C170 C183 1.481 . S
C171 N172 1.299 1_545 S
C171 N173 1.379 . S
N172 N169 1.398 1_565 S
N172 C171 1.299 1_565 S
N173 C170 1.367 . S
N173 C171 1.379 . S
C174 N176 1.298 . S
C174 N178 1.367 . S
C174 C182 1.481 1_545 S
C175 N177 1.299 . S
C175 N178 1.379 . S
N176 Zn160 2.036 . S
N176 C174 1.298 . S
N176 N177 1.398 . S
N177 C175 1.299 . S
N177 N176 1.398 . S
N178 C174 1.367 . S
N178 C175 1.379 . S
H179 C182 0.980 . S
H180 C182 0.981 . S
H181 C182 0.981 . S
C182 C174 1.481 1_565 S
C182 H179 0.980 . S
C182 H180 0.981 . S
C182 H181 0.981 . S
C183 C170 1.481 . S
C183 H184 0.980 . S
C183 H185 0.981 . S
C183 H186 0.981 . S
H184 C183 0.980 . S
H185 C183 0.981 . S
H186 C183 0.981 . S
O187 Zn163 2.066 . S
O187 C166 1.256 . S
O188 Zn160 2.053 . S
O188 C166 1.244 . S
C189 O167 1.259 . S
C189 O168 1.254 . S
O190 Zn160 2.066 1_565 S
O190 C162 1.256 . S
O191 C162 1.244 . S
O191 Zn163 2.053 1_565 S
Zn192 O193 2.055 . S
Zn192 O200 2.046 . S
Zn192 N208 2.036 . S
Zn192 O220 2.053 . S
Zn192 O222 2.066 . S
O193 Zn192 2.055 . S
O193 C196 1.259 . S
C194 O222 1.256 . S
C194 O223 1.244 . S
Zn195 O197 2.046 . S
Zn195 O199 2.055 . S
Zn195 N201 2.036 . S
Zn195 O219 2.066 . S
Zn195 O223 2.053 . S
C196 O193 1.259 . S
C196 O197 1.254 . S
O197 Zn195 2.046 . S
O197 C196 1.254 . S
C198 O219 1.256 . S
C198 O220 1.244 . S
O199 Zn195 2.055 . S
O199 C221 1.259 . S
O200 Zn192 2.046 . S
O200 C221 1.254 . S
N201 Zn195 2.036 . S
N201 C202 1.298 . S
N201 N204 1.398 . S
C202 N201 1.298 . S
C202 N205 1.367 . S
C202 C215 1.481 . S
C203 N204 1.299 . S
C203 N205 1.379 . S
N204 N201 1.398 . S
N204 C203 1.299 . S
N205 C202 1.367 . S
N205 C203 1.379 . S
C206 N208 1.298 . S
C206 N210 1.367 . S
C206 C214 1.481 . S
C207 N209 1.299 . S
C207 N210 1.379 . S
N208 Zn192 2.036 . S
N208 C206 1.298 . S
N208 N209 1.398 . S
N209 C207 1.299 . S
N209 N208 1.398 . S
N210 C206 1.367 . S
N210 C207 1.379 . S
H211 C214 0.980 . S
H212 C214 0.981 . S
H213 C214 0.981 . S
C214 C206 1.481 . S
C214 H211 0.980 . S
C214 H212 0.981 . S
C214 H213 0.981 . S
C215 C202 1.481 . S
C215 H216 0.980 . S
C215 H217 0.981 . S
C215 H218 0.981 . S
H216 C215 0.980 . S
H217 C215 0.981 . S
H218 C215 0.981 . S
O219 Zn195 2.066 . S
O219 C198 1.256 . S
O220 Zn192 2.053 . S
O220 C198 1.244 . S
C221 O199 1.259 . S
C221 O200 1.254 . S
O222 Zn192 2.066 . S
O222 C194 1.256 . S
O223 C194 1.244 . S
O223 Zn195 2.053 . S
Zn224 O225 2.055 . S
Zn224 O232 2.046 . S
Zn224 N240 2.036 . S
Zn224 O252 2.053 . S
Zn224 O254 2.066 . S
O225 Zn224 2.055 . S
O225 C228 1.259 . S
C226 O254 1.256 . S
C226 O255 1.244 . S
Zn227 O229 2.046 . S
Zn227 O231 2.055 . S
Zn227 N233 2.036 . S
Zn227 O251 2.066 . S
Zn227 O255 2.053 . S
C228 O225 1.259 . S
C228 O229 1.254 . S
O229 Zn227 2.046 . S
O229 C228 1.254 . S
C230 O251 1.256 . S
C230 O252 1.244 . S
O231 Zn227 2.055 . S
O231 C253 1.259 . S
O232 Zn224 2.046 . S
O232 C253 1.254 . S
N233 Zn227 2.036 . S
N233 C234 1.298 . S
N233 N236 1.398 . S
C234 N233 1.298 . S
C234 N237 1.367 . S
C234 C247 1.481 . S
C235 N236 1.299 . S
C235 N237 1.379 . S
N236 N233 1.398 . S
N236 C235 1.299 . S
N237 C234 1.367 . S
N237 C235 1.379 . S
C238 N240 1.298 . S
C238 N242 1.367 . S
C238 C246 1.481 . S
C239 N241 1.299 . S
C239 N242 1.379 . S
N240 Zn224 2.036 . S
N240 C238 1.298 . S
N240 N241 1.398 . S
N241 C239 1.299 . S
N241 N240 1.398 . S
N242 C238 1.367 . S
N242 C239 1.379 . S
H243 C246 0.980 . S
H244 C246 0.981 . S
H245 C246 0.981 . S
C246 C238 1.481 . S
C246 H243 0.980 . S
C246 H244 0.981 . S
C246 H245 0.981 . S
C247 C234 1.481 . S
C247 H248 0.980 . S
C247 H249 0.981 . S
C247 H250 0.981 . S
H248 C247 0.980 . S
H249 C247 0.981 . S
H250 C247 0.981 . S
O251 Zn227 2.066 . S
O251 C230 1.256 . S
O252 Zn224 2.053 . S
O252 C230 1.244 . S
C253 O231 1.259 . S
C253 O232 1.254 . S
O254 Zn224 2.066 . S
O254 C226 1.256 . S
O255 C226 1.244 . S
O255 Zn227 2.053 . S
Zn256 O257 2.055 . S
Zn256 O264 2.046 . S
Zn256 N272 2.036 . S
Zn256 O284 2.053 . S
Zn256 O286 2.066 . S
O257 Zn256 2.055 . S
O257 C260 1.259 . S
C258 O286 1.256 . S
C258 O287 1.244 . S
Zn259 O261 2.046 . S
Zn259 O263 2.055 . S
Zn259 N265 2.036 . S
Zn259 O283 2.066 . S
Zn259 O287 2.053 . S
C260 O257 1.259 . S
C260 O261 1.254 . S
O261 Zn259 2.046 . S
O261 C260 1.254 . S
C262 O283 1.256 1_545 S
C262 O284 1.244 1_545 S
O263 Zn259 2.055 . S
O263 C285 1.259 . S
O264 Zn256 2.046 . S
O264 C285 1.254 . S
N265 Zn259 2.036 . S
N265 C266 1.298 . S
N265 N268 1.398 . S
C266 N265 1.298 . S
C266 N269 1.367 . S
C266 C279 1.481 . S
C267 N268 1.299 . S
C267 N269 1.379 . S
N268 N265 1.398 . S
N268 C267 1.299 . S
N269 C266 1.367 . S
N269 C267 1.379 . S
C270 N272 1.298 . S
C270 N274 1.367 . S
C270 C278 1.481 . S
C271 N273 1.299 . S
C271 N274 1.379 . S
N272 Zn256 2.036 . S
N272 C270 1.298 . S
N272 N273 1.398 . S
N273 C271 1.299 . S
N273 N272 1.398 . S
N274 C270 1.367 . S
N274 C271 1.379 . S
H275 C278 0.980 . S
H276 C278 0.981 . S
H277 C278 0.981 . S
C278 C270 1.481 . S
C278 H275 0.980 . S
C278 H276 0.981 . S
C278 H277 0.981 . S
C279 C266 1.481 . S
C279 H280 0.980 . S
C279 H281 0.981 . S
C279 H282 0.981 . S
H280 C279 0.980 . S
H281 C279 0.981 . S
H282 C279 0.981 . S
O283 Zn259 2.066 . S
O283 C262 1.256 1_565 S
O284 Zn256 2.053 . S
O284 C262 1.244 1_565 S
C285 O263 1.259 . S
C285 O264 1.254 . S
O286 Zn256 2.066 . S
O286 C258 1.256 . S
O287 C258 1.244 . S
O287 Zn259 2.053 . S
Zn288 O289 2.055 . S
Zn288 O296 2.046 . S
Zn288 N304 2.036 . S
Zn288 O316 2.053 . S
Zn288 O318 2.066 . S
O289 Zn288 2.055 . S
O289 C292 1.259 . S
C290 O318 1.256 . S
C290 O319 1.244 . S
Zn291 O293 2.046 . S
Zn291 O295 2.055 . S
Zn291 N297 2.036 . S
Zn291 O315 2.066 . S
Zn291 O319 2.053 . S
C292 O289 1.259 . S
C292 O293 1.254 . S
O293 Zn291 2.046 . S
O293 C292 1.254 . S
C294 O315 1.256 . S
C294 O316 1.244 . S
O295 Zn291 2.055 . S
O295 C317 1.259 . S
O296 Zn288 2.046 . S
O296 C317 1.254 . S
N297 Zn291 2.036 . S
N297 C298 1.298 . S
N297 N300 1.398 . S
C298 N297 1.298 . S
C298 N301 1.367 . S
C298 C311 1.481 . S
C299 N300 1.299 . S
C299 N301 1.379 . S
N300 N297 1.398 . S
N300 C299 1.299 . S
N301 C298 1.367 . S
N301 C299 1.379 . S
C302 N304 1.298 . S
C302 N306 1.367 . S
C302 C310 1.481 . S
C303 N305 1.299 . S
C303 N306 1.379 . S
N304 Zn288 2.036 . S
N304 C302 1.298 . S
N304 N305 1.398 . S
N305 C303 1.299 . S
N305 N304 1.398 . S
N306 C302 1.367 . S
N306 C303 1.379 . S
H307 C310 0.980 . S
H308 C310 0.981 . S
H309 C310 0.981 . S
C310 C302 1.481 . S
C310 H307 0.980 . S
C310 H308 0.981 . S
C310 H309 0.981 . S
C311 C298 1.481 . S
C311 H312 0.980 . S
C311 H313 0.981 . S
C311 H314 0.981 . S
H312 C311 0.980 . S
H313 C311 0.981 . S
H314 C311 0.981 . S
O315 Zn291 2.066 . S
O315 C294 1.256 . S
O316 Zn288 2.053 . S
O316 C294 1.244 . S
C317 O295 1.259 . S
C317 O296 1.254 . S
O318 Zn288 2.066 . S
O318 C290 1.256 . S
O319 C290 1.244 . S
O319 Zn291 2.053 . S
Zn320 O321 2.055 . S
Zn320 O328 2.046 . S
Zn320 N336 2.036 . S
Zn320 O348 2.053 . S
Zn320 O350 2.066 . S
O321 Zn320 2.055 . S
O321 C324 1.259 . S
C322 O350 1.256 . S
C322 O351 1.244 . S
Zn323 O325 2.046 . S
Zn323 O327 2.055 . S
Zn323 N329 2.036 . S
Zn323 O347 2.066 . S
Zn323 O351 2.053 . S
C324 O321 1.259 . S
C324 O325 1.254 . S
O325 Zn323 2.046 . S
O325 C324 1.254 . S
C326 O347 1.256 . S
C326 O348 1.244 . S
O327 Zn323 2.055 . S
O327 C349 1.259 . S
O328 Zn320 2.046 . S
O328 C349 1.254 . S
N329 Zn323 2.036 . S
N329 C330 1.298 . S
N329 N332 1.398 . S
C330 N329 1.298 . S
C330 N333 1.367 . S
C330 C343 1.481 . S
C331 N332 1.299 . S
C331 N333 1.379 . S
N332 N329 1.398 . S
N332 C331 1.299 . S
N333 C330 1.367 . S
N333 C331 1.379 . S
C334 N336 1.298 . S
C334 N338 1.367 . S
C334 C342 1.481 . S
C335 N337 1.299 . S
C335 N338 1.379 . S
N336 Zn320 2.036 . S
N336 C334 1.298 . S
N336 N337 1.398 . S
N337 C335 1.299 . S
N337 N336 1.398 . S
N338 C334 1.367 . S
N338 C335 1.379 . S
H339 C342 0.980 . S
H340 C342 0.981 . S
H341 C342 0.981 . S
C342 C334 1.481 . S
C342 H339 0.980 . S
C342 H340 0.981 . S
C342 H341 0.981 . S
C343 C330 1.481 . S
C343 H344 0.980 . S
C343 H345 0.981 . S
C343 H346 0.981 . S
H344 C343 0.980 . S
H345 C343 0.981 . S
H346 C343 0.981 . S
O347 Zn323 2.066 . S
O347 C326 1.256 . S
O348 Zn320 2.053 . S
O348 C326 1.244 . S
C349 O327 1.259 . S
C349 O328 1.254 . S
O350 Zn320 2.066 . S
O350 C322 1.256 . S
O351 C322 1.244 . S
O351 Zn323 2.053 . S
Zn352 O353 2.055 . S
Zn352 O360 2.046 . S
Zn352 N368 2.036 . S
Zn352 O380 2.053 . S
Zn352 O382 2.066 . S
O353 Zn352 2.055 . S
O353 C356 1.259 . S
C354 O382 1.256 . S
C354 O383 1.244 . S
Zn355 O357 2.046 . S
Zn355 O359 2.055 . S
Zn355 N361 2.036 . S
Zn355 O379 2.066 . S
Zn355 O383 2.053 . S
C356 O353 1.259 . S
C356 O357 1.254 . S
O357 Zn355 2.046 . S
O357 C356 1.254 . S
C358 O379 1.256 . S
C358 O380 1.244 . S
O359 Zn355 2.055 . S
O359 C381 1.259 . S
O360 Zn352 2.046 . S
O360 C381 1.254 . S
N361 Zn355 2.036 . S
N361 C362 1.298 . S
N361 N364 1.398 . S
C362 N361 1.298 . S
C362 N365 1.367 . S
C362 C375 1.481 . S
C363 N364 1.299 . S
C363 N365 1.379 . S
N364 N361 1.398 . S
N364 C363 1.299 . S
N365 C362 1.367 . S
N365 C363 1.379 . S
C366 N368 1.298 . S
C366 N370 1.367 . S
C366 C374 1.481 . S
C367 N369 1.299 . S
C367 N370 1.379 . S
N368 Zn352 2.036 . S
N368 C366 1.298 . S
N368 N369 1.398 . S
N369 C367 1.299 . S
N369 N368 1.398 . S
N370 C366 1.367 . S
N370 C367 1.379 . S
H371 C374 0.980 . S
H372 C374 0.981 . S
H373 C374 0.981 . S
C374 C366 1.481 . S
C374 H371 0.980 . S
C374 H372 0.981 . S
C374 H373 0.981 . S
C375 C362 1.481 . S
C375 H376 0.980 . S
C375 H377 0.981 . S
C375 H378 0.981 . S
H376 C375 0.980 . S
H377 C375 0.981 . S
H378 C375 0.981 . S
O379 Zn355 2.066 . S
O379 C358 1.256 . S
O380 Zn352 2.053 . S
O380 C358 1.244 . S
C381 O359 1.259 . S
C381 O360 1.254 . S
O382 Zn352 2.066 . S
O382 C354 1.256 . S
O383 C354 1.244 . S
O383 Zn355 2.053 . S
Zn384 O385 2.055 . S
Zn384 O392 2.046 . S
Zn384 N400 2.036 . S
Zn384 O412 2.053 . S
Zn384 O414 2.066 . S
O385 Zn384 2.055 . S
O385 C388 1.259 . S
C386 O414 1.256 . S
C386 O415 1.244 . S
Zn387 O389 2.046 . S
Zn387 O391 2.055 . S
Zn387 N393 2.036 . S
Zn387 O411 2.066 . S
Zn387 O415 2.053 . S
C388 O385 1.259 . S
C388 O389 1.254 . S
O389 Zn387 2.046 . S
O389 C388 1.254 . S
C390 O411 1.256 . S
C390 O412 1.244 . S
O391 Zn387 2.055 . S
O391 C413 1.259 . S
O392 Zn384 2.046 . S
O392 C413 1.254 . S
N393 Zn387 2.036 . S
N393 C394 1.298 . S
N393 N396 1.398 . S
C394 N393 1.298 . S
C394 N397 1.367 . S
C394 C407 1.481 . S
C395 N396 1.299 . S
C395 N397 1.379 . S
N396 N393 1.398 . S
N396 C395 1.299 . S
N397 C394 1.367 . S
N397 C395 1.379 . S
C398 N400 1.298 . S
C398 N402 1.367 . S
C398 C406 1.481 . S
C399 N401 1.299 . S
C399 N402 1.379 . S
N400 Zn384 2.036 . S
N400 C398 1.298 . S
N400 N401 1.398 . S
N401 C399 1.299 . S
N401 N400 1.398 . S
N402 C398 1.367 . S
N402 C399 1.379 . S
H403 C406 0.980 . S
H404 C406 0.981 . S
H405 C406 0.981 . S
C406 C398 1.481 . S
C406 H403 0.980 . S
C406 H404 0.981 . S
C406 H405 0.981 . S
C407 C394 1.481 . S
C407 H408 0.980 . S
C407 H409 0.981 . S
C407 H410 0.981 . S
H408 C407 0.980 . S
H409 C407 0.981 . S
H410 C407 0.981 . S
O411 Zn387 2.066 . S
O411 C390 1.256 . S
O412 Zn384 2.053 . S
O412 C390 1.244 . S
C413 O391 1.259 . S
C413 O392 1.254 . S
O414 Zn384 2.066 . S
O414 C386 1.256 . S
O415 C386 1.244 . S
O415 Zn387 2.053 . S
Zn416 O417 2.055 . S
Zn416 O424 2.046 . S
Zn416 N432 2.036 . S
Zn416 O444 2.053 . S
Zn416 O446 2.066 . S
O417 Zn416 2.055 . S
O417 C420 1.259 . S
C418 O446 1.256 . S
C418 O447 1.244 . S
Zn419 O421 2.046 . S
Zn419 O423 2.055 . S
Zn419 N425 2.036 . S
Zn419 O443 2.066 . S
Zn419 O447 2.053 . S
C420 O417 1.259 . S
C420 O421 1.254 . S
O421 Zn419 2.046 . S
O421 C420 1.254 . S
C422 O443 1.256 . S
C422 O444 1.244 . S
O423 Zn419 2.055 . S
O423 C445 1.259 . S
O424 Zn416 2.046 . S
O424 C445 1.254 . S
N425 Zn419 2.036 . S
N425 C426 1.298 . S
N425 N428 1.398 . S
C426 N425 1.298 . S
C426 N429 1.367 . S
C426 C439 1.481 . S
C427 N428 1.299 . S
C427 N429 1.379 . S
N428 N425 1.398 . S
N428 C427 1.299 . S
N429 C426 1.367 . S
N429 C427 1.379 . S
C430 N432 1.298 . S
C430 N434 1.367 . S
C430 C438 1.481 . S
C431 N433 1.299 . S
C431 N434 1.379 . S
N432 Zn416 2.036 . S
N432 C430 1.298 . S
N432 N433 1.398 . S
N433 C431 1.299 . S
N433 N432 1.398 . S
N434 C430 1.367 . S
N434 C431 1.379 . S
H435 C438 0.980 . S
H436 C438 0.981 . S
H437 C438 0.981 . S
C438 C430 1.481 . S
C438 H435 0.980 . S
C438 H436 0.981 . S
C438 H437 0.981 . S
C439 C426 1.481 . S
C439 H440 0.980 . S
C439 H441 0.981 . S
C439 H442 0.981 . S
H440 C439 0.980 . S
H441 C439 0.981 . S
H442 C439 0.981 . S
O443 Zn419 2.066 . S
O443 C422 1.256 . S
O444 Zn416 2.053 . S
O444 C422 1.244 . S
C445 O423 1.259 . S
C445 O424 1.254 . S
O446 Zn416 2.066 . S
O446 C418 1.256 . S
O447 C418 1.244 . S
O447 Zn419 2.053 . S
Zn448 O449 2.055 . S
Zn448 O456 2.046 . S
Zn448 N464 2.036 . S
Zn448 O476 2.053 . S
Zn448 O478 2.066 . S
O449 Zn448 2.055 . S
O449 C452 1.259 . S
C450 O478 1.256 . S
C450 O479 1.244 . S
Zn451 O453 2.046 . S
Zn451 O455 2.055 . S
Zn451 N457 2.036 . S
Zn451 O475 2.066 . S
Zn451 O479 2.053 . S
C452 O449 1.259 . S
C452 O453 1.254 . S
O453 Zn451 2.046 . S
O453 C452 1.254 . S
C454 O475 1.256 . S
C454 O476 1.244 . S
O455 Zn451 2.055 . S
O455 C477 1.259 . S
O456 Zn448 2.046 . S
O456 C477 1.254 . S
N457 Zn451 2.036 . S
N457 C458 1.298 . S
N457 N460 1.398 . S
C458 N457 1.298 . S
C458 N461 1.367 . S
C458 C471 1.481 . S
C459 N460 1.299 . S
C459 N461 1.379 . S
N460 N457 1.398 . S
N460 C459 1.299 . S
N461 C458 1.367 . S
N461 C459 1.379 . S
C462 N464 1.298 . S
C462 N466 1.367 . S
C462 C470 1.481 . S
C463 N465 1.299 . S
C463 N466 1.379 . S
N464 Zn448 2.036 . S
N464 C462 1.298 . S
N464 N465 1.398 . S
N465 C463 1.299 . S
N465 N464 1.398 . S
N466 C462 1.367 . S
N466 C463 1.379 . S
H467 C470 0.980 . S
H468 C470 0.981 . S
H469 C470 0.981 . S
C470 C462 1.481 . S
C470 H467 0.980 . S
C470 H468 0.981 . S
C470 H469 0.981 . S
C471 C458 1.481 . S
C471 H472 0.980 . S
C471 H473 0.981 . S
C471 H474 0.981 . S
H472 C471 0.980 . S
H473 C471 0.981 . S
H474 C471 0.981 . S
O475 Zn451 2.066 . S
O475 C454 1.256 . S
O476 Zn448 2.053 . S
O476 C454 1.244 . S
C477 O455 1.259 . S
C477 O456 1.254 . S
O478 Zn448 2.066 . S
O478 C450 1.256 . S
O479 C450 1.244 . S
O479 Zn451 2.053 . S
Zn480 O481 2.055 . S
Zn480 O488 2.046 . S
Zn480 N496 2.036 . S
Zn480 O508 2.053 . S
Zn480 O510 2.066 . S
O481 Zn480 2.055 . S
O481 C484 1.259 . S
C482 O510 1.256 . S
C482 O511 1.244 . S
Zn483 O485 2.046 . S
Zn483 O487 2.055 . S
Zn483 N489 2.036 . S
Zn483 O507 2.066 . S
Zn483 O511 2.053 . S
C484 O481 1.259 . S
C484 O485 1.254 . S
O485 Zn483 2.046 . S
O485 C484 1.254 . S
C486 O507 1.256 . S
C486 O508 1.244 . S
O487 Zn483 2.055 . S
O487 C509 1.259 . S
O488 Zn480 2.046 . S
O488 C509 1.254 . S
N489 Zn483 2.036 . S
N489 C490 1.298 . S
N489 N492 1.398 . S
C490 N489 1.298 . S
C490 N493 1.367 . S
C490 C503 1.481 . S
C491 N492 1.299 . S
C491 N493 1.379 . S
N492 N489 1.398 . S
N492 C491 1.299 . S
N493 C490 1.367 . S
N493 C491 1.379 . S
C494 N496 1.298 . S
C494 N498 1.367 . S
C494 C502 1.481 . S
C495 N497 1.299 . S
C495 N498 1.379 . S
N496 Zn480 2.036 . S
N496 C494 1.298 . S
N496 N497 1.398 . S
N497 C495 1.299 . S
N497 N496 1.398 . S
N498 C494 1.367 . S
N498 C495 1.379 . S
H499 C502 0.980 . S
H500 C502 0.981 . S
H501 C502 0.981 . S
C502 C494 1.481 . S
C502 H499 0.980 . S
C502 H500 0.981 . S
C502 H501 0.981 . S
C503 C490 1.481 . S
C503 H504 0.980 . S
C503 H505 0.981 . S
C503 H506 0.981 . S
H504 C503 0.980 . S
H505 C503 0.981 . S
H506 C503 0.981 . S
O507 Zn483 2.066 . S
O507 C486 1.256 . S
O508 Zn480 2.053 . S
O508 C486 1.244 . S
C509 O487 1.259 . S
C509 O488 1.254 . S
O510 Zn480 2.066 . S
O510 C482 1.256 . S
O511 C482 1.244 . S
O511 Zn483 2.053 . S
Zn512 O513 2.055 . S
Zn512 O520 2.046 . S
Zn512 N528 2.036 . S
Zn512 O540 2.053 . S
Zn512 O542 2.066 . S
O513 Zn512 2.055 . S
O513 C516 1.259 . S
C514 O542 1.256 1_455 S
C514 O543 1.244 1_455 S
Zn515 O517 2.046 . S
Zn515 O519 2.055 . S
Zn515 N521 2.036 . S
Zn515 O539 2.066 . S
Zn515 O543 2.053 . S
C516 O513 1.259 . S
C516 O517 1.254 . S
O517 Zn515 2.046 . S
O517 C516 1.254 . S
C518 O539 1.256 . S
C518 O540 1.244 . S
O519 Zn515 2.055 . S
O519 C541 1.259 . S
O520 Zn512 2.046 . S
O520 C541 1.254 . S
N521 Zn515 2.036 . S
N521 C522 1.298 . S
N521 N524 1.398 . S
C522 N521 1.298 . S
C522 N525 1.367 . S
C522 C535 1.481 . S
C523 N524 1.299 . S
C523 N525 1.379 . S
N524 N521 1.398 . S
N524 C523 1.299 . S
N525 C522 1.367 . S
N525 C523 1.379 . S
C526 N528 1.298 . S
C526 N530 1.367 . S
C526 C534 1.481 . S
C527 N529 1.299 . S
C527 N530 1.379 . S
N528 Zn512 2.036 . S
N528 C526 1.298 . S
N528 N529 1.398 . S
N529 C527 1.299 . S
N529 N528 1.398 . S
N530 C526 1.367 . S
N530 C527 1.379 . S
H531 C534 0.980 . S
H532 C534 0.981 . S
H533 C534 0.981 . S
C534 C526 1.481 . S
C534 H531 0.980 . S
C534 H532 0.981 . S
C534 H533 0.981 . S
C535 C522 1.481 . S
C535 H536 0.980 . S
C535 H537 0.981 . S
C535 H538 0.981 . S
H536 C535 0.980 . S
H537 C535 0.981 . S
H538 C535 0.981 . S
O539 Zn515 2.066 . S
O539 C518 1.256 . S
O540 Zn512 2.053 . S
O540 C518 1.244 . S
C541 O519 1.259 . S
C541 O520 1.254 . S
O542 Zn512 2.066 . S
O542 C514 1.256 1_655 S
O543 C514 1.244 1_655 S
O543 Zn515 2.053 . S
Zn544 O545 2.055 . S
Zn544 O552 2.046 . S
Zn544 N560 2.036 . S
Zn544 O572 2.053 . S
Zn544 O574 2.066 . S
O545 Zn544 2.055 . S
O545 C548 1.259 . S
C546 O574 1.256 . S
C546 O575 1.244 . S
Zn547 O549 2.046 . S
Zn547 O551 2.055 . S
Zn547 N553 2.036 . S
Zn547 O571 2.066 . S
Zn547 O575 2.053 . S
C548 O545 1.259 . S
C548 O549 1.254 . S
O549 Zn547 2.046 . S
O549 C548 1.254 . S
C550 O571 1.256 . S
C550 O572 1.244 . S
O551 Zn547 2.055 . S
O551 C573 1.259 . S
O552 Zn544 2.046 . S
O552 C573 1.254 . S
N553 Zn547 2.036 . S
N553 C554 1.298 . S
N553 N556 1.398 . S
C554 N553 1.298 . S
C554 N557 1.367 . S
C554 C567 1.481 . S
C555 N556 1.299 . S
C555 N557 1.379 . S
N556 N553 1.398 . S
N556 C555 1.299 . S
N557 C554 1.367 . S
N557 C555 1.379 . S
C558 N560 1.298 . S
C558 N562 1.367 . S
C558 C566 1.481 . S
C559 N561 1.299 . S
C559 N562 1.379 . S
N560 Zn544 2.036 . S
N560 C558 1.298 . S
N560 N561 1.398 . S
N561 C559 1.299 . S
N561 N560 1.398 . S
N562 C558 1.367 . S
N562 C559 1.379 . S
H563 C566 0.980 . S
H564 C566 0.981 . S
H565 C566 0.981 . S
C566 C558 1.481 . S
C566 H563 0.980 . S
C566 H564 0.981 . S
C566 H565 0.981 . S
C567 C554 1.481 . S
C567 H568 0.980 . S
C567 H569 0.981 . S
C567 H570 0.981 . S
H568 C567 0.980 . S
H569 C567 0.981 . S
H570 C567 0.981 . S
O571 Zn547 2.066 . S
O571 C550 1.256 . S
O572 Zn544 2.053 . S
O572 C550 1.244 . S
C573 O551 1.259 . S
C573 O552 1.254 . S
O574 Zn544 2.066 . S
O574 C546 1.256 . S
O575 C546 1.244 . S
O575 Zn547 2.053 . S
H576 C582 0.930 . S
H577 C585 0.930 . S
H578 C586 0.930 . S
H579 C587 0.930 . S
H580 C590 0.930 . S
H581 C591 0.930 . S
C582 H576 0.930 . S
C582 C583 1.355 . S
C582 C584 1.415 . S
C583 C582 1.355 . S
C583 C585 1.419 . S
C584 C582 1.415 . S
C584 C589 1.425 . S
C584 C591 1.409 . S
C585 H577 0.930 . S
C585 C583 1.419 . S
C585 C586 1.362 . S
C586 H578 0.930 . S
C586 C585 1.362 . S
C586 C589 1.409 . S
C587 H579 0.930 . S
C587 C588 1.355 . S
C587 C589 1.415 . S
C588 C587 1.355 . S
C588 C590 1.419 . S
C589 C584 1.425 . S
C589 C586 1.409 . S
C589 C587 1.415 . S
C590 H580 0.930 . S
C590 C588 1.419 . S
C590 C591 1.362 . S
C591 H581 0.930 . S
C591 C584 1.409 . S
C591 C590 1.362 . S
H592 C598 0.930 . S
H593 C601 0.930 . S
H594 C602 0.930 . S
H595 C603 0.930 . S
H596 C606 0.930 . S
H597 C607 0.930 . S
C598 H592 0.930 . S
C598 C599 1.355 . S
C598 C600 1.415 . S
C599 C598 1.355 . S
C599 C601 1.419 . S
C600 C598 1.415 . S
C600 C605 1.425 . S
C600 C607 1.409 . S
C601 H593 0.930 . S
C601 C599 1.419 . S
C601 C602 1.362 . S
C602 H594 0.930 . S
C602 C601 1.362 . S
C602 C605 1.409 . S
C603 H595 0.930 . S
C603 C604 1.355 . S
C603 C605 1.415 . S
C604 C603 1.355 . S
C604 C606 1.419 . S
C605 C600 1.425 . S
C605 C602 1.409 . S
C605 C603 1.415 . S
C606 H596 0.930 . S
C606 C604 1.419 . S
C606 C607 1.362 . S
C607 H597 0.930 . S
C607 C600 1.409 . S
C607 C606 1.362 . S
H608 C614 0.930 . S
H609 C617 0.930 . S
H610 C618 0.930 . S
H611 C619 0.930 . S
H612 C622 0.930 . S
H613 C623 0.930 . S
C614 H608 0.930 . S
C614 C615 1.355 . S
C614 C616 1.415 . S
C615 C614 1.355 . S
C615 C617 1.419 . S
C616 C614 1.415 . S
C616 C621 1.425 . S
C616 C623 1.409 . S
C617 H609 0.930 . S
C617 C615 1.419 . S
C617 C618 1.362 . S
C618 H610 0.930 . S
C618 C617 1.362 . S
C618 C621 1.409 . S
C619 H611 0.930 . S
C619 C620 1.355 . S
C619 C621 1.415 . S
C620 C619 1.355 . S
C620 C622 1.419 . S
C621 C616 1.425 . S
C621 C618 1.409 . S
C621 C619 1.415 . S
C622 H612 0.930 . S
C622 C620 1.419 . S
C622 C623 1.362 . S
C623 H613 0.930 . S
C623 C616 1.409 . S
C623 C622 1.362 . S
H624 C630 0.930 . S
H625 C633 0.930 . S
H626 C634 0.930 . S
H627 C635 0.930 . S
H628 C638 0.930 . S
H629 C639 0.930 . S
C630 H624 0.930 . S
C630 C631 1.355 . S
C630 C632 1.415 . S
C631 C630 1.355 . S
C631 C633 1.419 . S
C632 C630 1.415 . S
C632 C637 1.425 . S
C632 C639 1.409 . S
C633 H625 0.930 . S
C633 C631 1.419 . S
C633 C634 1.362 . S
C634 H626 0.930 . S
C634 C633 1.362 . S
C634 C637 1.409 . S
C635 H627 0.930 . S
C635 C636 1.355 . S
C635 C637 1.415 . S
C636 C635 1.355 . S
C636 C638 1.419 . S
C637 C632 1.425 . S
C637 C634 1.409 . S
C637 C635 1.415 . S
C638 H628 0.930 . S
C638 C636 1.419 . S
C638 C639 1.362 . S
C639 H629 0.930 . S
C639 C632 1.409 . S
C639 C638 1.362 . S
H640 C646 0.930 . S
H641 C649 0.930 . S
H642 C650 0.930 . S
H643 C651 0.930 . S
H644 C654 0.930 . S
H645 C655 0.930 . S
C646 H640 0.930 . S
C646 C647 1.355 . S
C646 C648 1.415 . S
C647 C646 1.355 . S
C647 C649 1.419 . S
C648 C646 1.415 . S
C648 C653 1.425 . S
C648 C655 1.409 . S
C649 H641 0.930 . S
C649 C647 1.419 . S
C649 C650 1.362 . S
C650 H642 0.930 . S
C650 C649 1.362 . S
C650 C653 1.409 . S
C651 H643 0.930 . S
C651 C652 1.355 . S
C651 C653 1.415 . S
C652 C651 1.355 . S
C652 C654 1.419 . S
C653 C648 1.425 . S
C653 C650 1.409 . S
C653 C651 1.415 . S
C654 H644 0.930 . S
C654 C652 1.419 . S
C654 C655 1.362 . S
C655 H645 0.930 . S
C655 C648 1.409 . S
C655 C654 1.362 . S
H656 C662 0.930 . S
H657 C665 0.930 . S
H658 C666 0.930 . S
H659 C667 0.930 . S
H660 C670 0.930 . S
H661 C671 0.930 . S
C662 H656 0.930 . S
C662 C663 1.355 . S
C662 C664 1.415 . S
C663 C662 1.355 . S
C663 C665 1.419 . S
C664 C662 1.415 . S
C664 C669 1.425 . S
C664 C671 1.409 . S
C665 H657 0.930 . S
C665 C663 1.419 . S
C665 C666 1.362 . S
C666 H658 0.930 . S
C666 C665 1.362 . S
C666 C669 1.409 . S
C667 H659 0.930 . S
C667 C668 1.355 . S
C667 C669 1.415 . S
C668 C667 1.355 . S
C668 C670 1.419 . S
C669 C664 1.425 . S
C669 C666 1.409 . S
C669 C667 1.415 . S
C670 H660 0.930 . S
C670 C668 1.419 . S
C670 C671 1.362 . S
C671 H661 0.930 . S
C671 C664 1.409 . S
C671 C670 1.362 . S
H672 C678 0.930 . S
H673 C681 0.930 . S
H674 C682 0.930 . S
H675 C683 0.930 . S
H676 C686 0.930 . S
H677 C687 0.930 . S
C678 H672 0.930 . S
C678 C679 1.355 . S
C678 C680 1.415 . S
C679 C678 1.355 . S
C679 C681 1.419 . S
C680 C678 1.415 . S
C680 C685 1.425 . S
C680 C687 1.409 . S
C681 H673 0.930 . S
C681 C679 1.419 . S
C681 C682 1.362 . S
C682 H674 0.930 . S
C682 C681 1.362 . S
C682 C685 1.409 . S
C683 H675 0.930 . S
C683 C684 1.355 . S
C683 C685 1.415 . S
C684 C683 1.355 . S
C684 C686 1.419 . S
C685 C680 1.425 . S
C685 C682 1.409 . S
C685 C683 1.415 . S
C686 H676 0.930 . S
C686 C684 1.419 . S
C686 C687 1.362 . S
C687 H677 0.930 . S
C687 C680 1.409 . S
C687 C686 1.362 . S
H688 C694 0.930 . S
H689 C697 0.930 . S
H690 C698 0.930 . S
H691 C699 0.930 . S
H692 C702 0.930 . S
H693 C703 0.930 . S
C694 H688 0.930 . S
C694 C695 1.355 1_655 S
C694 C696 1.415 . S
C695 C694 1.355 1_455 S
C695 C697 1.419 . S
C696 C694 1.415 . S
C696 C701 1.425 . S
C696 C703 1.409 . S
C697 H689 0.930 . S
C697 C695 1.419 . S
C697 C698 1.362 . S
C698 H690 0.930 . S
C698 C697 1.362 . S
C698 C701 1.409 1_455 S
C699 H691 0.930 . S
C699 C700 1.355 . S
C699 C701 1.415 . S
C700 C699 1.355 . S
C700 C702 1.419 . S
C701 C696 1.425 . S
C701 C698 1.409 1_655 S
C701 C699 1.415 . S
C702 H692 0.930 . S
C702 C700 1.419 . S
C702 C703 1.362 . S
C703 H693 0.930 . S
C703 C696 1.409 . S
C703 C702 1.362 . S
H704 C710 0.930 . S
H705 C713 0.930 . S
H706 C714 0.930 . S
H707 C715 0.930 . S
H708 C718 0.930 . S
H709 C719 0.930 . S
C710 H704 0.930 . S
C710 C711 1.355 . S
C710 C712 1.415 1_455 S
C711 C710 1.355 . S
C711 C713 1.419 . S
C712 C710 1.415 1_655 S
C712 C717 1.425 . S
C712 C719 1.409 . S
C713 H705 0.930 . S
C713 C711 1.419 . S
C713 C714 1.362 1_455 S
C714 H706 0.930 . S
C714 C713 1.362 1_655 S
C714 C717 1.409 . S
C715 H707 0.930 . S
C715 C716 1.355 . S
C715 C717 1.415 . S
C716 C715 1.355 . S
C716 C718 1.419 . S
C717 C712 1.425 . S
C717 C714 1.409 . S
C717 C715 1.415 . S
C718 H708 0.930 . S
C718 C716 1.419 . S
C718 C719 1.362 . S
C719 H709 0.930 . S
C719 C712 1.409 . S
C719 C718 1.362 . S
H720 C726 0.930 . S
H721 C729 0.930 . S
H722 C730 0.930 . S
H723 C731 0.930 . S
H724 C734 0.930 . S
H725 C735 0.930 . S
C726 H720 0.930 . S
C726 C727 1.355 . S
C726 C728 1.415 . S
C727 C726 1.355 . S
C727 C729 1.419 . S
C728 C726 1.415 . S
C728 C733 1.425 . S
C728 C735 1.409 . S
C729 H721 0.930 . S
C729 C727 1.419 . S
C729 C730 1.362 . S
C730 H722 0.930 . S
C730 C729 1.362 . S
C730 C733 1.409 . S
C731 H723 0.930 . S
C731 C732 1.355 . S
C731 C733 1.415 . S
C732 C731 1.355 . S
C732 C734 1.419 . S
C733 C728 1.425 . S
C733 C730 1.409 . S
C733 C731 1.415 . S
C734 H724 0.930 . S
C734 C732 1.419 . S
C734 C735 1.362 . S
C735 H725 0.930 . S
C735 C728 1.409 . S
C735 C734 1.362 . S
H736 C742 0.930 . S
H737 C745 0.930 . S
H738 C746 0.930 . S
H739 C747 0.930 . S
H740 C750 0.930 . S
H741 C751 0.930 . S
C742 H736 0.930 . S
C742 C743 1.355 . S
C742 C744 1.415 . S
C743 C742 1.355 . S
C743 C745 1.419 . S
C744 C742 1.415 . S
C744 C749 1.425 . S
C744 C751 1.409 . S
C745 H737 0.930 . S
C745 C743 1.419 . S
C745 C746 1.362 . S
C746 H738 0.930 . S
C746 C745 1.362 . S
C746 C749 1.409 . S
C747 H739 0.930 . S
C747 C748 1.355 . S
C747 C749 1.415 . S
C748 C747 1.355 . S
C748 C750 1.419 . S
C749 C744 1.425 . S
C749 C746 1.409 . S
C749 C747 1.415 . S
C750 H740 0.930 . S
C750 C748 1.419 . S
C750 C751 1.362 . S
C751 H741 0.930 . S
C751 C744 1.409 . S
C751 C750 1.362 . S
H752 C758 0.930 . S
H753 C761 0.930 . S
H754 C762 0.930 . S
H755 C763 0.930 . S
H756 C766 0.930 . S
H757 C767 0.930 . S
C758 H752 0.930 . S
C758 C759 1.355 . S
C758 C760 1.415 . S
C759 C758 1.355 . S
C759 C761 1.419 . S
C760 C758 1.415 . S
C760 C765 1.425 . S
C760 C767 1.409 . S
C761 H753 0.930 . S
C761 C759 1.419 . S
C761 C762 1.362 . S
C762 H754 0.930 . S
C762 C761 1.362 . S
C762 C765 1.409 . S
C763 H755 0.930 . S
C763 C764 1.355 . S
C763 C765 1.415 . S
C764 C763 1.355 . S
C764 C766 1.419 . S
C765 C760 1.425 . S
C765 C762 1.409 . S
C765 C763 1.415 . S
C766 H756 0.930 . S
C766 C764 1.419 . S
C766 C767 1.362 . S
C767 H757 0.930 . S
C767 C760 1.409 . S
C767 C766 1.362 . S
H768 C774 0.930 . S
H769 C777 0.930 . S
H770 C778 0.930 1_455 S
H771 C779 0.930 . S
H772 C782 0.930 . S
H773 C783 0.930 . S
C774 H768 0.930 . S
C774 C775 1.355 . S
C774 C776 1.415 . S
C775 C774 1.355 . S
C775 C777 1.419 . S
C776 C774 1.415 . S
C776 C781 1.425 . S
C776 C783 1.409 . S
C777 H769 0.930 . S
C777 C775 1.419 . S
C777 C778 1.362 . S
C778 H770 0.930 1_655 S
C778 C777 1.362 . S
C778 C781 1.409 . S
C779 H771 0.930 . S
C779 C780 1.355 . S
C779 C781 1.415 . S
C780 C779 1.355 . S
C780 C782 1.419 . S
C781 C776 1.425 . S
C781 C778 1.409 . S
C781 C779 1.415 . S
C782 H772 0.930 . S
C782 C780 1.419 . S
C782 C783 1.362 . S
C783 H773 0.930 . S
C783 C776 1.409 . S
C783 C782 1.362 . S
H784 C790 0.930 . S
H785 C793 0.930 . S
H786 C794 0.930 . S
H787 C795 0.930 . S
H788 C798 0.930 . S
H789 C799 0.930 . S
C790 H784 0.930 . S
C790 C791 1.355 . S
C790 C792 1.415 . S
C791 C790 1.355 . S
C791 C793 1.419 . S
C792 C790 1.415 . S
C792 C797 1.425 . S
C792 C799 1.409 . S
C793 H785 0.930 . S
C793 C791 1.419 . S
C793 C794 1.362 . S
C794 H786 0.930 . S
C794 C793 1.362 . S
C794 C797 1.409 . S
C795 H787 0.930 . S
C795 C796 1.355 . S
C795 C797 1.415 . S
C796 C795 1.355 . S
C796 C798 1.419 . S
C797 C792 1.425 . S
C797 C794 1.409 . S
C797 C795 1.415 . S
C798 H788 0.930 . S
C798 C796 1.419 . S
C798 C799 1.362 . S
C799 H789 0.930 . S
C799 C792 1.409 . S
C799 C798 1.362 . S
H800 C806 0.930 . S
H801 C809 0.930 . S
H802 C810 0.930 . S
H803 C811 0.930 . S
H804 C814 0.930 . S
H805 C815 0.930 . S
C806 H800 0.930 . S
C806 C807 1.355 . S
C806 C808 1.415 . S
C807 C806 1.355 . S
C807 C809 1.419 . S
C808 C806 1.415 . S
C808 C813 1.425 . S
C808 C815 1.409 . S
C809 H801 0.930 . S
C809 C807 1.419 . S
C809 C810 1.362 . S
C810 H802 0.930 . S
C810 C809 1.362 . S
C810 C813 1.409 . S
C811 H803 0.930 . S
C811 C812 1.355 . S
C811 C813 1.415 . S
C812 C811 1.355 . S
C812 C814 1.419 . S
C813 C808 1.425 . S
C813 C810 1.409 . S
C813 C811 1.415 . S
C814 H804 0.930 . S
C814 C812 1.419 . S
C814 C815 1.362 . S
C815 H805 0.930 . S
C815 C808 1.409 . S
C815 C814 1.362 . S
H816 C822 0.930 . S
H817 C825 0.930 . S
H818 C826 0.930 . S
H819 C827 0.930 . S
H820 C830 0.930 . S
H821 C831 0.930 . S
C822 H816 0.930 . S
C822 C823 1.355 . S
C822 C824 1.415 . S
C823 C822 1.355 . S
C823 C825 1.419 . S
C824 C822 1.415 . S
C824 C829 1.425 . S
C824 C831 1.409 . S
C825 H817 0.930 . S
C825 C823 1.419 . S
C825 C826 1.362 . S
C826 H818 0.930 . S
C826 C825 1.362 . S
C826 C829 1.409 . S
C827 H819 0.930 . S
C827 C828 1.355 . S
C827 C829 1.415 . S
C828 C827 1.355 . S
C828 C830 1.419 . S
C829 C824 1.425 . S
C829 C826 1.409 . S
C829 C827 1.415 . S
C830 H820 0.930 . S
C830 C828 1.419 . S
C830 C831 1.362 . S
C831 H821 0.930 . S
C831 C824 1.409 . S
C831 C830 1.362 . S
H832 C838 0.930 . S
H833 C841 0.930 . S
H834 C842 0.930 . S
H835 C843 0.930 . S
H836 C846 0.930 . S
H837 C847 0.930 . S
C838 H832 0.930 . S
C838 C839 1.355 . S
C838 C840 1.415 . S
C839 C838 1.355 . S
C839 C841 1.419 . S
C840 C838 1.415 . S
C840 C845 1.425 . S
C840 C847 1.409 1_565 S
C841 H833 0.930 . S
C841 C839 1.419 . S
C841 C842 1.362 . S
C842 H834 0.930 . S
C842 C841 1.362 . S
C842 C845 1.409 . S
C843 H835 0.930 . S
C843 C844 1.355 . S
C843 C845 1.415 1_545 S
C844 C843 1.355 . S
C844 C846 1.419 . S
C845 C840 1.425 . S
C845 C842 1.409 . S
C845 C843 1.415 1_565 S
C846 H836 0.930 . S
C846 C844 1.419 . S
C846 C847 1.362 . S
C847 H837 0.930 . S
C847 C840 1.409 1_545 S
C847 C846 1.362 . S
H848 C854 0.930 . S
H849 C857 0.930 . S
H850 C858 0.930 . S
H851 C859 0.930 . S
H852 C862 0.930 1_655 S
H853 C863 0.930 . S
C854 H848 0.930 . S
C854 C855 1.355 . S
C854 C856 1.415 1_545 S
C855 C854 1.355 . S
C855 C857 1.419 1_545 S
C856 C854 1.415 1_565 S
C856 C861 1.425 . S
C856 C863 1.409 . S
C857 H849 0.930 . S
C857 C855 1.419 1_565 S
C857 C858 1.362 . S
C858 H850 0.930 . S
C858 C857 1.362 . S
C858 C861 1.409 . S
C859 H851 0.930 . S
C859 C860 1.355 . S
C859 C861 1.415 . S
C860 C859 1.355 . S
C860 C862 1.419 . S
C861 C856 1.425 . S
C861 C858 1.409 . S
C861 C859 1.415 . S
C862 H852 0.930 1_455 S
C862 C860 1.419 . S
C862 C863 1.362 . S
C863 H853 0.930 . S
C863 C856 1.409 . S
C863 C862 1.362 . S
H864 C870 0.930 1_565 S
H865 C873 0.930 . S
H866 C874 0.930 . S
H867 C875 0.930 . S
H868 C878 0.930 . S
H869 C879 0.930 . S
C870 H864 0.930 1_545 S
C870 C871 1.355 . S
C870 C872 1.415 . S
C871 C870 1.355 . S
C871 C873 1.419 . S
C872 C870 1.415 . S
C872 C877 1.425 1_554 S
C872 C879 1.409 1_544 S
C873 H865 0.930 . S
C873 C871 1.419 . S
C873 C874 1.362 . S
C874 H866 0.930 . S
C874 C873 1.362 . S
C874 C877 1.409 1_554 S
C875 H867 0.930 . S
C875 C876 1.355 . S
C875 C877 1.415 . S
C876 C875 1.355 . S
C876 C878 1.419 1_545 S
C877 C872 1.425 1_556 S
C877 C874 1.409 1_556 S
C877 C875 1.415 . S
C878 H868 0.930 . S
C878 C876 1.419 1_565 S
C878 C879 1.362 . S
C879 H869 0.930 . S
C879 C872 1.409 1_566 S
C879 C878 1.362 . S
H880 C886 0.930 . S
H881 C889 0.930 . S
H882 C890 0.930 . S
H883 C891 0.930 . S
H884 C894 0.930 . S
H885 C895 0.930 . S
C886 H880 0.930 . S
C886 C887 1.355 . S
C886 C888 1.415 . S
C887 C886 1.355 . S
C887 C889 1.419 1_455 S
C888 C886 1.415 . S
C888 C893 1.425 1_556 S
C888 C895 1.409 1_556 S
C889 H881 0.930 . S
C889 C887 1.419 1_655 S
C889 C890 1.362 . S
C890 H882 0.930 . S
C890 C889 1.362 . S
C890 C893 1.409 1_656 S
C891 H883 0.930 . S
C891 C892 1.355 1_655 S
C891 C893 1.415 1_655 S
C892 C891 1.355 1_455 S
C892 C894 1.419 . S
C893 C888 1.425 1_554 S
C893 C890 1.409 1_454 S
C893 C891 1.415 1_455 S
C894 H884 0.930 . S
C894 C892 1.419 . S
C894 C895 1.362 . S
C895 H885 0.930 . S
C895 C888 1.409 1_554 S
C895 C894 1.362 . S
H896 C902 0.930 . S
H897 C905 0.930 . S
H898 C906 0.930 . S
H899 C907 0.930 . S
H900 C910 0.930 . S
H901 C911 0.930 . S
C902 H896 0.930 . S
C902 C903 1.355 . S
C902 C904 1.415 . S
C903 C902 1.355 . S
C903 C905 1.419 . S
C904 C902 1.415 . S
C904 C909 1.425 1_556 S
C904 C911 1.409 1_556 S
C905 H897 0.930 . S
C905 C903 1.419 . S
C905 C906 1.362 . S
C906 H898 0.930 . S
C906 C905 1.362 . S
C906 C909 1.409 1_556 S
C907 H899 0.930 . S
C907 C908 1.355 . S
C907 C909 1.415 . S
C908 C907 1.355 . S
C908 C910 1.419 . S
C909 C904 1.425 1_554 S
C909 C906 1.409 1_554 S
C909 C907 1.415 . S
C910 H900 0.930 . S
C910 C908 1.419 . S
C910 C911 1.362 . S
C911 H901 0.930 . S
C911 C904 1.409 1_554 S
C911 C910 1.362 . S
H912 C918 0.930 . S
H913 C921 0.930 . S
H914 C922 0.930 . S
H915 C923 0.930 . S
H916 C926 0.930 . S
H917 C927 0.930 . S
C918 H912 0.930 . S
C918 C919 1.355 . S
C918 C920 1.415 . S
C919 C918 1.355 . S
C919 C921 1.419 . S
C920 C918 1.415 . S
C920 C925 1.425 . S
C920 C927 1.409 . S
C921 H913 0.930 . S
C921 C919 1.419 . S
C921 C922 1.362 . S
C922 H914 0.930 . S
C922 C921 1.362 . S
C922 C925 1.409 . S
C923 H915 0.930 . S
C923 C924 1.355 . S
C923 C925 1.415 . S
C924 C923 1.355 . S
C924 C926 1.419 . S
C925 C920 1.425 . S
C925 C922 1.409 . S
C925 C923 1.415 . S
C926 H916 0.930 . S
C926 C924 1.419 . S
C926 C927 1.362 . S
C927 H917 0.930 . S
C927 C920 1.409 . S
C927 C926 1.362 . S
H928 C934 0.930 . S
H929 C937 0.930 . S
H930 C938 0.930 . S
H931 C939 0.930 . S
H932 C942 0.930 . S
H933 C943 0.930 . S
C934 H928 0.930 . S
C934 C935 1.355 . S
C934 C936 1.415 . S
C935 C934 1.355 . S
C935 C937 1.419 . S
C936 C934 1.415 . S
C936 C941 1.425 . S
C936 C943 1.409 . S
C937 H929 0.930 . S
C937 C935 1.419 . S
C937 C938 1.362 . S
C938 H930 0.930 . S
C938 C937 1.362 . S
C938 C941 1.409 . S
C939 H931 0.930 . S
C939 C940 1.355 . S
C939 C941 1.415 . S
C940 C939 1.355 . S
C940 C942 1.419 . S
C941 C936 1.425 . S
C941 C938 1.409 . S
C941 C939 1.415 . S
C942 H932 0.930 . S
C942 C940 1.419 . S
C942 C943 1.362 . S
C943 H933 0.930 . S
C943 C936 1.409 . S
C943 C942 1.362 . S
H944 C950 0.930 . S
H945 C953 0.930 . S
H946 C954 0.930 . S
H947 C955 0.930 . S
H948 C958 0.930 . S
H949 C959 0.930 . S
C950 H944 0.930 . S
C950 C951 1.355 . S
C950 C952 1.415 . S
C951 C950 1.355 . S
C951 C953 1.419 . S
C952 C950 1.415 . S
C952 C957 1.425 . S
C952 C959 1.409 . S
C953 H945 0.930 . S
C953 C951 1.419 . S
C953 C954 1.362 . S
C954 H946 0.930 . S
C954 C953 1.362 . S
C954 C957 1.409 . S
C955 H947 0.930 . S
C955 C956 1.355 . S
C955 C957 1.415 . S
C956 C955 1.355 . S
C956 C958 1.419 . S
C957 C952 1.425 . S
C957 C954 1.409 . S
C957 C955 1.415 . S
C958 H948 0.930 . S
C958 C956 1.419 . S
C958 C959 1.362 . S
C959 H949 0.930 . S
C959 C952 1.409 . S
C959 C958 1.362 . S
H960 C966 0.930 . S
H961 C969 0.930 . S
H962 C970 0.930 . S
H963 C971 0.930 . S
H964 C974 0.930 . S
H965 C975 0.930 . S
C966 H960 0.930 . S
C966 C967 1.355 . S
C966 C968 1.415 . S
C967 C966 1.355 . S
C967 C969 1.419 . S
C968 C966 1.415 . S
C968 C973 1.425 . S
C968 C975 1.409 . S
C969 H961 0.930 . S
C969 C967 1.419 . S
C969 C970 1.362 . S
C970 H962 0.930 . S
C970 C969 1.362 . S
C970 C973 1.409 . S
C971 H963 0.930 . S
C971 C972 1.355 . S
C971 C973 1.415 . S
C972 C971 1.355 . S
C972 C974 1.419 . S
C973 C968 1.425 . S
C973 C970 1.409 . S
C973 C971 1.415 . S
C974 H964 0.930 . S
C974 C972 1.419 . S
C974 C975 1.362 . S
C975 H965 0.930 . S
C975 C968 1.409 . S
C975 C974 1.362 . S
H976 C982 0.930 . S
H977 C985 0.930 . S
H978 C986 0.930 . S
H979 C987 0.930 . S
H980 C990 0.930 . S
H981 C991 0.930 . S
C982 H976 0.930 . S
C982 C983 1.355 . S
C982 C984 1.415 . S
C983 C982 1.355 . S
C983 C985 1.419 . S
C984 C982 1.415 . S
C984 C989 1.425 . S
C984 C991 1.409 . S
C985 H977 0.930 . S
C985 C983 1.419 . S
C985 C986 1.362 . S
C986 H978 0.930 . S
C986 C985 1.362 . S
C986 C989 1.409 . S
C987 H979 0.930 . S
C987 C988 1.355 . S
C987 C989 1.415 . S
C988 C987 1.355 . S
C988 C990 1.419 . S
C989 C984 1.425 . S
C989 C986 1.409 . S
C989 C987 1.415 . S
C990 H980 0.930 . S
C990 C988 1.419 . S
C990 C991 1.362 . S
C991 H981 0.930 . S
C991 C984 1.409 . S
C991 C990 1.362 . S
H992 C998 0.930 . S
H993 C1001 0.930 . S
H994 C1002 0.930 . S
H995 C1003 0.930 . S
H996 C1006 0.930 . S
H997 C1007 0.930 . S
C998 H992 0.930 . S
C998 C999 1.355 . S
C998 C1000 1.415 . S
C999 C998 1.355 . S
C999 C1001 1.419 . S
C1000 C998 1.415 . S
C1000 C1005 1.425 . S
C1000 C1007 1.409 . S
C1001 H993 0.930 . S
C1001 C999 1.419 . S
C1001 C1002 1.362 . S
C1002 H994 0.930 . S
C1002 C1001 1.362 . S
C1002 C1005 1.409 . S
C1003 H995 0.930 . S
C1003 C1004 1.355 . S
C1003 C1005 1.415 . S
C1004 C1003 1.355 . S
C1004 C1006 1.419 . S
C1005 C1000 1.425 . S
C1005 C1002 1.409 . S
C1005 C1003 1.415 . S
C1006 H996 0.930 . S
C1006 C1004 1.419 . S
C1006 C1007 1.362 . S
C1007 H997 0.930 . S
C1007 C1000 1.409 . S
C1007 C1006 1.362 . S
H1008 C1014 0.930 . S
H1009 C1017 0.930 . S
H1010 C1018 0.930 . S
H1011 C1019 0.930 . S
H1012 C1022 0.930 . S
H1013 C1023 0.930 . S
C1014 H1008 0.930 . S
C1014 C1015 1.355 . S
C1014 C1016 1.415 . S
C1015 C1014 1.355 . S
C1015 C1017 1.419 . S
C1016 C1014 1.415 . S
C1016 C1021 1.425 . S
C1016 C1023 1.409 1_565 S
C1017 H1009 0.930 . S
C1017 C1015 1.419 . S
C1017 C1018 1.362 . S
C1018 H1010 0.930 . S
C1018 C1017 1.362 . S
C1018 C1021 1.409 . S
C1019 H1011 0.930 . S
C1019 C1020 1.355 . S
C1019 C1021 1.415 . S
C1020 C1019 1.355 . S
C1020 C1022 1.419 1_565 S
C1021 C1016 1.425 . S
C1021 C1018 1.409 . S
C1021 C1019 1.415 . S
C1022 H1012 0.930 . S
C1022 C1020 1.419 1_545 S
C1022 C1023 1.362 . S
C1023 H1013 0.930 . S
C1023 C1016 1.409 1_545 S
C1023 C1022 1.362 . S
H1024 C1030 0.930 . S
H1025 C1033 0.930 . S
H1026 C1034 0.930 . S
H1027 C1035 0.930 . S
H1028 C1038 0.930 . S
H1029 C1039 0.930 . S
C1030 H1024 0.930 . S
C1030 C1031 1.355 . S
C1030 C1032 1.415 . S
C1031 C1030 1.355 . S
C1031 C1033 1.419 . S
C1032 C1030 1.415 . S
C1032 C1037 1.425 . S
C1032 C1039 1.409 . S
C1033 H1025 0.930 . S
C1033 C1031 1.419 . S
C1033 C1034 1.362 . S
C1034 H1026 0.930 . S
C1034 C1033 1.362 . S
C1034 C1037 1.409 . S
C1035 H1027 0.930 . S
C1035 C1036 1.355 . S
C1035 C1037 1.415 . S
C1036 C1035 1.355 . S
C1036 C1038 1.419 . S
C1037 C1032 1.425 . S
C1037 C1034 1.409 . S
C1037 C1035 1.415 . S
C1038 H1028 0.930 . S
C1038 C1036 1.419 . S
C1038 C1039 1.362 . S
C1039 H1029 0.930 . S
C1039 C1032 1.409 . S
C1039 C1038 1.362 . S
H1040 C1046 0.930 . S
H1041 C1049 0.930 . S
H1042 C1050 0.930 . S
H1043 C1051 0.930 . S
H1044 C1054 0.930 . S
H1045 C1055 0.930 . S
C1046 H1040 0.930 . S
C1046 C1047 1.355 . S
C1046 C1048 1.415 . S
C1047 C1046 1.355 . S
C1047 C1049 1.419 . S
C1048 C1046 1.415 . S
C1048 C1053 1.425 . S
C1048 C1055 1.409 . S
C1049 H1041 0.930 . S
C1049 C1047 1.419 . S
C1049 C1050 1.362 . S
C1050 H1042 0.930 . S
C1050 C1049 1.362 . S
C1050 C1053 1.409 . S
C1051 H1043 0.930 . S
C1051 C1052 1.355 . S
C1051 C1053 1.415 . S
C1052 C1051 1.355 . S
C1052 C1054 1.419 . S
C1053 C1048 1.425 . S
C1053 C1050 1.409 . S
C1053 C1051 1.415 . S
C1054 H1044 0.930 . S
C1054 C1052 1.419 . S
C1054 C1055 1.362 . S
C1055 H1045 0.930 . S
C1055 C1048 1.409 . S
C1055 C1054 1.362 . S
H1056 C1062 0.930 . S
H1057 C1065 0.930 . S
H1058 C1066 0.930 . S
H1059 C1067 0.930 1_455 S
H1060 C1070 0.930 . S
H1061 C1071 0.930 . S
C1062 H1056 0.930 . S
C1062 C1063 1.355 . S
C1062 C1064 1.415 . S
C1063 C1062 1.355 . S
C1063 C1065 1.419 1_655 S
C1064 C1062 1.415 . S
C1064 C1069 1.425 . S
C1064 C1071 1.409 . S
C1065 H1057 0.930 . S
C1065 C1063 1.419 1_455 S
C1065 C1066 1.362 . S
C1066 H1058 0.930 . S
C1066 C1065 1.362 . S
C1066 C1069 1.409 1_455 S
C1067 H1059 0.930 1_655 S
C1067 C1068 1.355 . S
C1067 C1069 1.415 . S
C1068 C1067 1.355 . S
C1068 C1070 1.419 . S
C1069 C1064 1.425 . S
C1069 C1066 1.409 1_655 S
C1069 C1067 1.415 . S
C1070 H1060 0.930 . S
C1070 C1068 1.419 . S
C1070 C1071 1.362 . S
C1071 H1061 0.930 . S
C1071 C1064 1.409 . S
C1071 C1070 1.362 . S
H1072 C1078 0.930 . S
H1073 C1081 0.930 . S
H1074 C1082 0.930 . S
H1075 C1083 0.930 . S
H1076 C1086 0.930 . S
H1077 C1087 0.930 . S
C1078 H1072 0.930 . S
C1078 C1079 1.355 . S
C1078 C1080 1.415 . S
C1079 C1078 1.355 . S
C1079 C1081 1.419 . S
C1080 C1078 1.415 . S
C1080 C1085 1.425 . S
C1080 C1087 1.409 . S
C1081 H1073 0.930 . S
C1081 C1079 1.419 . S
C1081 C1082 1.362 . S
C1082 H1074 0.930 . S
C1082 C1081 1.362 . S
C1082 C1085 1.409 . S
C1083 H1075 0.930 . S
C1083 C1084 1.355 . S
C1083 C1085 1.415 . S
C1084 C1083 1.355 . S
C1084 C1086 1.419 . S
C1085 C1080 1.425 . S
C1085 C1082 1.409 . S
C1085 C1083 1.415 . S
C1086 H1076 0.930 . S
C1086 C1084 1.419 . S
C1086 C1087 1.362 . S
C1087 H1077 0.930 . S
C1087 C1080 1.409 . S
C1087 C1086 1.362 . S
H1088 C1094 0.930 . S
H1089 C1097 0.930 . S
H1090 C1098 0.930 . S
H1091 C1099 0.930 . S
H1092 C1102 0.930 . S
H1093 C1103 0.930 . S
C1094 H1088 0.930 . S
C1094 C1095 1.355 . S
C1094 C1096 1.415 . S
C1095 C1094 1.355 . S
C1095 C1097 1.419 . S
C1096 C1094 1.415 . S
C1096 C1101 1.425 . S
C1096 C1103 1.409 . S
C1097 H1089 0.930 . S
C1097 C1095 1.419 . S
C1097 C1098 1.362 . S
C1098 H1090 0.930 . S
C1098 C1097 1.362 . S
C1098 C1101 1.409 . S
C1099 H1091 0.930 . S
C1099 C1100 1.355 . S
C1099 C1101 1.415 . S
C1100 C1099 1.355 . S
C1100 C1102 1.419 . S
C1101 C1096 1.425 . S
C1101 C1098 1.409 . S
C1101 C1099 1.415 . S
C1102 H1092 0.930 . S
C1102 C1100 1.419 . S
C1102 C1103 1.362 . S
C1103 H1093 0.930 . S
C1103 C1096 1.409 . S
C1103 C1102 1.362 . S
H1104 C1110 0.930 . S
H1105 C1113 0.930 . S
H1106 C1114 0.930 . S
H1107 C1115 0.930 . S
H1108 C1118 0.930 . S
H1109 C1119 0.930 . S
C1110 H1104 0.930 . S
C1110 C1111 1.355 1_455 S
C1110 C1112 1.415 . S
C1111 C1110 1.355 1_655 S
C1111 C1113 1.419 . S
C1112 C1110 1.415 . S
C1112 C1117 1.425 . S
C1112 C1119 1.409 . S
C1113 H1105 0.930 . S
C1113 C1111 1.419 . S
C1113 C1114 1.362 . S
C1114 H1106 0.930 . S
C1114 C1113 1.362 . S
C1114 C1117 1.409 1_655 S
C1115 H1107 0.930 . S
C1115 C1116 1.355 . S
C1115 C1117 1.415 . S
C1116 C1115 1.355 . S
C1116 C1118 1.419 . S
C1117 C1112 1.425 . S
C1117 C1114 1.409 1_455 S
C1117 C1115 1.415 . S
C1118 H1108 0.930 . S
C1118 C1116 1.419 . S
C1118 C1119 1.362 . S
C1119 H1109 0.930 . S
C1119 C1112 1.409 . S
C1119 C1118 1.362 . S
H1120 C1126 0.930 . S
H1121 C1129 0.930 . S
H1122 C1130 0.930 . S
H1123 C1131 0.930 . S
H1124 C1134 0.930 . S
H1125 C1135 0.930 . S
C1126 H1120 0.930 . S
C1126 C1127 1.355 . S
C1126 C1128 1.415 . S
C1127 C1126 1.355 . S
C1127 C1129 1.419 . S
C1128 C1126 1.415 . S
C1128 C1133 1.425 . S
C1128 C1135 1.409 . S
C1129 H1121 0.930 . S
C1129 C1127 1.419 . S
C1129 C1130 1.362 . S
C1130 H1122 0.930 . S
C1130 C1129 1.362 . S
C1130 C1133 1.409 . S
C1131 H1123 0.930 . S
C1131 C1132 1.355 . S
C1131 C1133 1.415 . S
C1132 C1131 1.355 . S
C1132 C1134 1.419 . S
C1133 C1128 1.425 . S
C1133 C1130 1.409 . S
C1133 C1131 1.415 . S
C1134 H1124 0.930 . S
C1134 C1132 1.419 . S
C1134 C1135 1.362 . S
C1135 H1125 0.930 . S
C1135 C1128 1.409 . S
C1135 C1134 1.362 . S
H1136 C1142 0.930 . S
H1137 C1145 0.930 . S
H1138 C1146 0.930 . S
H1139 C1147 0.930 . S
H1140 C1150 0.930 . S
H1141 C1151 0.930 1_565 S
C1142 H1136 0.930 . S
C1142 C1143 1.355 . S
C1142 C1144 1.415 1_565 S
C1143 C1142 1.355 . S
C1143 C1145 1.419 1_565 S
C1144 C1142 1.415 1_545 S
C1144 C1149 1.425 . S
C1144 C1151 1.409 . S
C1145 H1137 0.930 . S
C1145 C1143 1.419 1_545 S
C1145 C1146 1.362 . S
C1146 H1138 0.930 . S
C1146 C1145 1.362 . S
C1146 C1149 1.409 . S
C1147 H1139 0.930 . S
C1147 C1148 1.355 . S
C1147 C1149 1.415 . S
C1148 C1147 1.355 . S
C1148 C1150 1.419 . S
C1149 C1144 1.425 . S
C1149 C1146 1.409 . S
C1149 C1147 1.415 . S
C1150 H1140 0.930 . S
C1150 C1148 1.419 . S
C1150 C1151 1.362 . S
C1151 H1141 0.930 1_545 S
C1151 C1144 1.409 . S
C1151 C1150 1.362 . S
H1152 C1158 0.930 . S
H1153 C1161 0.930 . S
H1154 C1162 0.930 . S
H1155 C1163 0.930 . S
H1156 C1166 0.930 . S
H1157 C1167 0.930 . S
C1158 H1152 0.930 . S
C1158 C1159 1.355 . S
C1158 C1160 1.415 . S
C1159 C1158 1.355 . S
C1159 C1161 1.419 . S
C1160 C1158 1.415 . S
C1160 C1165 1.425 . S
C1160 C1167 1.409 . S
C1161 H1153 0.930 . S
C1161 C1159 1.419 . S
C1161 C1162 1.362 . S
C1162 H1154 0.930 . S
C1162 C1161 1.362 . S
C1162 C1165 1.409 . S
C1163 H1155 0.930 . S
C1163 C1164 1.355 . S
C1163 C1165 1.415 . S
C1164 C1163 1.355 . S
C1164 C1166 1.419 . S
C1165 C1160 1.425 . S
C1165 C1162 1.409 . S
C1165 C1163 1.415 . S
C1166 H1156 0.930 . S
C1166 C1164 1.419 . S
C1166 C1167 1.362 . S
C1167 H1157 0.930 . S
C1167 C1160 1.409 . S
C1167 C1166 1.362 . S
H1168 C1174 0.930 . S
H1169 C1177 0.930 . S
H1170 C1178 0.930 . S
H1171 C1179 0.930 . S
H1172 C1182 0.930 . S
H1173 C1183 0.930 . S
C1174 H1168 0.930 . S
C1174 C1175 1.355 . S
C1174 C1176 1.415 . S
C1175 C1174 1.355 . S
C1175 C1177 1.419 . S
C1176 C1174 1.415 . S
C1176 C1181 1.425 . S
C1176 C1183 1.409 . S
C1177 H1169 0.930 . S
C1177 C1175 1.419 . S
C1177 C1178 1.362 . S
C1178 H1170 0.930 . S
C1178 C1177 1.362 . S
C1178 C1181 1.409 . S
C1179 H1171 0.930 . S
C1179 C1180 1.355 . S
C1179 C1181 1.415 . S
C1180 C1179 1.355 . S
C1180 C1182 1.419 . S
C1181 C1176 1.425 . S
C1181 C1178 1.409 . S
C1181 C1179 1.415 . S
C1182 H1172 0.930 . S
C1182 C1180 1.419 . S
C1182 C1183 1.362 . S
C1183 H1173 0.930 . S
C1183 C1176 1.409 . S
C1183 C1182 1.362 . S
H1184 C1190 0.930 . S
H1185 C1193 0.930 . S
H1186 C1194 0.930 . S
H1187 C1195 0.930 . S
H1188 C1198 0.930 . S
H1189 C1199 0.930 . S
C1190 H1184 0.930 . S
C1190 C1191 1.355 . S
C1190 C1192 1.415 . S
C1191 C1190 1.355 . S
C1191 C1193 1.419 . S
C1192 C1190 1.415 . S
C1192 C1197 1.425 . S
C1192 C1199 1.409 . S
C1193 H1185 0.930 . S
C1193 C1191 1.419 . S
C1193 C1194 1.362 . S
C1194 H1186 0.930 . S
C1194 C1193 1.362 . S
C1194 C1197 1.409 . S
C1195 H1187 0.930 . S
C1195 C1196 1.355 . S
C1195 C1197 1.415 . S
C1196 C1195 1.355 . S
C1196 C1198 1.419 . S
C1197 C1192 1.425 . S
C1197 C1194 1.409 . S
C1197 C1195 1.415 . S
C1198 H1188 0.930 . S
C1198 C1196 1.419 . S
C1198 C1199 1.362 . S
C1199 H1189 0.930 . S
C1199 C1192 1.409 . S
C1199 C1198 1.362 . S
H1200 C1206 0.930 . S
H1201 C1209 0.930 . S
H1202 C1210 0.930 . S
H1203 C1211 0.930 . S
H1204 C1214 0.930 . S
H1205 C1215 0.930 . S
C1206 H1200 0.930 . S
C1206 C1207 1.355 . S
C1206 C1208 1.415 . S
C1207 C1206 1.355 . S
C1207 C1209 1.419 . S
C1208 C1206 1.415 . S
C1208 C1213 1.425 . S
C1208 C1215 1.409 . S
C1209 H1201 0.930 . S
C1209 C1207 1.419 . S
C1209 C1210 1.362 . S
C1210 H1202 0.930 . S
C1210 C1209 1.362 . S
C1210 C1213 1.409 . S
C1211 H1203 0.930 . S
C1211 C1212 1.355 . S
C1211 C1213 1.415 . S
C1212 C1211 1.355 . S
C1212 C1214 1.419 . S
C1213 C1208 1.425 . S
C1213 C1210 1.409 . S
C1213 C1211 1.415 . S
C1214 H1204 0.930 . S
C1214 C1212 1.419 . S
C1214 C1215 1.362 . S
C1215 H1205 0.930 . S
C1215 C1208 1.409 . S
C1215 C1214 1.362 . S
H1216 C1222 0.930 . S
H1217 C1225 0.930 . S
H1218 C1226 0.930 . S
H1219 C1227 0.930 . S
H1220 C1230 0.930 . S
H1221 C1231 0.930 . S
C1222 H1216 0.930 . S
C1222 C1223 1.355 . S
C1222 C1224 1.415 . S
C1223 C1222 1.355 . S
C1223 C1225 1.419 . S
C1224 C1222 1.415 . S
C1224 C1229 1.425 . S
C1224 C1231 1.409 . S
C1225 H1217 0.930 . S
C1225 C1223 1.419 . S
C1225 C1226 1.362 . S
C1226 H1218 0.930 . S
C1226 C1225 1.362 . S
C1226 C1229 1.409 . S
C1227 H1219 0.930 . S
C1227 C1228 1.355 . S
C1227 C1229 1.415 . S
C1228 C1227 1.355 . S
C1228 C1230 1.419 . S
C1229 C1224 1.425 . S
C1229 C1226 1.409 . S
C1229 C1227 1.415 . S
C1230 H1220 0.930 . S
C1230 C1228 1.419 . S
C1230 C1231 1.362 . S
C1231 H1221 0.930 . S
C1231 C1224 1.409 . S
C1231 C1230 1.362 . S
H1232 C1238 0.930 . S
H1233 C1241 0.930 . S
H1234 C1242 0.930 . S
H1235 C1243 0.930 . S
H1236 C1246 0.930 . S
H1237 C1247 0.930 . S
C1238 H1232 0.930 . S
C1238 C1239 1.355 . S
C1238 C1240 1.415 . S
C1239 C1238 1.355 . S
C1239 C1241 1.419 . S
C1240 C1238 1.415 . S
C1240 C1245 1.425 . S
C1240 C1247 1.409 . S
C1241 H1233 0.930 . S
C1241 C1239 1.419 . S
C1241 C1242 1.362 . S
C1242 H1234 0.930 . S
C1242 C1241 1.362 . S
C1242 C1245 1.409 . S
C1243 H1235 0.930 . S
C1243 C1244 1.355 . S
C1243 C1245 1.415 . S
C1244 C1243 1.355 . S
C1244 C1246 1.419 . S
C1245 C1240 1.425 . S
C1245 C1242 1.409 . S
C1245 C1243 1.415 . S
C1246 H1236 0.930 . S
C1246 C1244 1.419 . S
C1246 C1247 1.362 . S
C1247 H1237 0.930 . S
C1247 C1240 1.409 . S
C1247 C1246 1.362 . S
H1248 C1254 0.930 . S
H1249 C1257 0.930 . S
H1250 C1258 0.930 . S
H1251 C1259 0.930 . S
H1252 C1262 0.930 . S
H1253 C1263 0.930 . S
C1254 H1248 0.930 . S
C1254 C1255 1.355 . S
C1254 C1256 1.415 . S
C1255 C1254 1.355 . S
C1255 C1257 1.419 . S
C1256 C1254 1.415 . S
C1256 C1261 1.425 . S
C1256 C1263 1.409 . S
C1257 H1249 0.930 . S
C1257 C1255 1.419 . S
C1257 C1258 1.362 . S
C1258 H1250 0.930 . S
C1258 C1257 1.362 . S
C1258 C1261 1.409 . S
C1259 H1251 0.930 . S
C1259 C1260 1.355 . S
C1259 C1261 1.415 . S
C1260 C1259 1.355 . S
C1260 C1262 1.419 . S
C1261 C1256 1.425 . S
C1261 C1258 1.409 . S
C1261 C1259 1.415 . S
C1262 H1252 0.930 . S
C1262 C1260 1.419 . S
C1262 C1263 1.362 . S
C1263 H1253 0.930 . S
C1263 C1256 1.409 . S
C1263 C1262 1.362 . S
H1264 C1270 0.930 . S
H1265 C1273 0.930 . S
H1266 C1274 0.930 . S
H1267 C1275 0.930 . S
H1268 C1278 0.930 . S
H1269 C1279 0.930 . S
C1270 H1264 0.930 . S
C1270 C1271 1.355 . S
C1270 C1272 1.415 . S
C1271 C1270 1.355 . S
C1271 C1273 1.419 . S
C1272 C1270 1.415 . S
C1272 C1277 1.425 . S
C1272 C1279 1.409 . S
C1273 H1265 0.930 . S
C1273 C1271 1.419 . S
C1273 C1274 1.362 . S
C1274 H1266 0.930 . S
C1274 C1273 1.362 . S
C1274 C1277 1.409 . S
C1275 H1267 0.930 . S
C1275 C1276 1.355 . S
C1275 C1277 1.415 . S
C1276 C1275 1.355 . S
C1276 C1278 1.419 . S
C1277 C1272 1.425 . S
C1277 C1274 1.409 . S
C1277 C1275 1.415 . S
C1278 H1268 0.930 . S
C1278 C1276 1.419 . S
C1278 C1279 1.362 . S
C1279 H1269 0.930 . S
C1279 C1272 1.409 . S
C1279 C1278 1.362 . S
H1280 C1286 0.930 . S
H1281 C1289 0.930 . S
H1282 C1290 0.930 . S
H1283 C1291 0.930 . S
H1284 C1294 0.930 . S
H1285 C1295 0.930 . S
C1286 H1280 0.930 . S
C1286 C1287 1.355 . S
C1286 C1288 1.415 . S
C1287 C1286 1.355 . S
C1287 C1289 1.419 . S
C1288 C1286 1.415 . S
C1288 C1293 1.425 . S
C1288 C1295 1.409 . S
C1289 H1281 0.930 . S
C1289 C1287 1.419 . S
C1289 C1290 1.362 . S
C1290 H1282 0.930 . S
C1290 C1289 1.362 . S
C1290 C1293 1.409 . S
C1291 H1283 0.930 . S
C1291 C1292 1.355 . S
C1291 C1293 1.415 . S
C1292 C1291 1.355 . S
C1292 C1294 1.419 . S
C1293 C1288 1.425 . S
C1293 C1290 1.409 . S
C1293 C1291 1.415 . S
C1294 H1284 0.930 . S
C1294 C1292 1.419 . S
C1294 C1295 1.362 . S
C1295 H1285 0.930 . S
C1295 C1288 1.409 . S
C1295 C1294 1.362 . S
H1296 C1302 0.930 . S
H1297 C1305 0.930 . S
H1298 C1306 0.930 . S
H1299 C1307 0.930 . S
H1300 C1310 0.930 . S
H1301 C1311 0.930 . S
C1302 H1296 0.930 . S
C1302 C1303 1.355 . S
C1302 C1304 1.415 . S
C1303 C1302 1.355 . S
C1303 C1305 1.419 . S
C1304 C1302 1.415 . S
C1304 C1309 1.425 . S
C1304 C1311 1.409 . S
C1305 H1297 0.930 . S
C1305 C1303 1.419 . S
C1305 C1306 1.362 . S
C1306 H1298 0.930 . S
C1306 C1305 1.362 . S
C1306 C1309 1.409 . S
C1307 H1299 0.930 . S
C1307 C1308 1.355 . S
C1307 C1309 1.415 1_455 S
C1308 C1307 1.355 . S
C1308 C1310 1.419 . S
C1309 C1304 1.425 . S
C1309 C1306 1.409 . S
C1309 C1307 1.415 1_655 S
C1310 H1300 0.930 . S
C1310 C1308 1.419 . S
C1310 C1311 1.362 1_455 S
C1311 H1301 0.930 . S
C1311 C1304 1.409 . S
C1311 C1310 1.362 1_655 S
H1312 C1318 0.930 . S
H1313 C1321 0.930 . S
H1314 C1322 0.930 . S
H1315 C1323 0.930 . S
H1316 C1326 0.930 . S
H1317 C1327 0.930 . S
C1318 H1312 0.930 . S
C1318 C1319 1.355 . S
C1318 C1320 1.415 . S
C1319 C1318 1.355 . S
C1319 C1321 1.419 . S
C1320 C1318 1.415 . S
C1320 C1325 1.425 . S
C1320 C1327 1.409 . S
C1321 H1313 0.930 . S
C1321 C1319 1.419 . S
C1321 C1322 1.362 . S
C1322 H1314 0.930 . S
C1322 C1321 1.362 . S
C1322 C1325 1.409 . S
C1323 H1315 0.930 . S
C1323 C1324 1.355 . S
C1323 C1325 1.415 . S
C1324 C1323 1.355 . S
C1324 C1326 1.419 . S
C1325 C1320 1.425 . S
C1325 C1322 1.409 . S
C1325 C1323 1.415 . S
C1326 H1316 0.930 . S
C1326 C1324 1.419 . S
C1326 C1327 1.362 . S
C1327 H1317 0.930 . S
C1327 C1320 1.409 . S
C1327 C1326 1.362 . S
H1328 C1334 0.930 . S
H1329 C1337 0.930 1_565 S
H1330 C1338 0.930 . S
H1331 C1339 0.930 . S
H1332 C1342 0.930 . S
H1333 C1343 0.930 . S
C1334 H1328 0.930 . S
C1334 C1335 1.355 . S
C1334 C1336 1.415 . S
C1335 C1334 1.355 . S
C1335 C1337 1.419 . S
C1336 C1334 1.415 . S
C1336 C1341 1.425 . S
C1336 C1343 1.409 . S
C1337 H1329 0.930 1_545 S
C1337 C1335 1.419 . S
C1337 C1338 1.362 . S
C1338 H1330 0.930 . S
C1338 C1337 1.362 . S
C1338 C1341 1.409 . S
C1339 H1331 0.930 . S
C1339 C1340 1.355 . S
C1339 C1341 1.415 1_455 S
C1340 C1339 1.355 . S
C1340 C1342 1.419 1_455 S
C1341 C1336 1.425 . S
C1341 C1338 1.409 . S
C1341 C1339 1.415 1_655 S
C1342 H1332 0.930 . S
C1342 C1340 1.419 1_655 S
C1342 C1343 1.362 . S
C1343 H1333 0.930 . S
C1343 C1336 1.409 . S
C1343 C1342 1.362 . S
H1344 C1350 0.930 . S
H1345 C1353 0.930 . S
H1346 C1354 0.930 . S
H1347 C1355 0.930 . S
H1348 C1358 0.930 . S
H1349 C1359 0.930 . S
C1350 H1344 0.930 . S
C1350 C1351 1.355 . S
C1350 C1352 1.415 . S
C1351 C1350 1.355 . S
C1351 C1353 1.419 . S
C1352 C1350 1.415 . S
C1352 C1357 1.425 . S
C1352 C1359 1.409 . S
C1353 H1345 0.930 . S
C1353 C1351 1.419 . S
C1353 C1354 1.362 . S
C1354 H1346 0.930 . S
C1354 C1353 1.362 . S
C1354 C1357 1.409 . S
C1355 H1347 0.930 . S
C1355 C1356 1.355 . S
C1355 C1357 1.415 1_545 S
C1356 C1355 1.355 . S
C1356 C1358 1.419 . S
C1357 C1352 1.425 . S
C1357 C1354 1.409 . S
C1357 C1355 1.415 1_565 S
C1358 H1348 0.930 . S
C1358 C1356 1.419 . S
C1358 C1359 1.362 1_545 S
C1359 H1349 0.930 . S
C1359 C1352 1.409 . S
C1359 C1358 1.362 1_565 S
H1360 C1366 0.930 . S
H1361 C1369 0.930 . S
H1362 C1370 0.930 . S
H1363 C1371 0.930 . S
H1364 C1374 0.930 . S
H1365 C1375 0.930 . S
C1366 H1360 0.930 . S
C1366 C1367 1.355 1_565 S
C1366 C1368 1.415 . S
C1367 C1366 1.355 1_545 S
C1367 C1369 1.419 . S
C1368 C1366 1.415 . S
C1368 C1373 1.425 . S
C1368 C1375 1.409 . S
C1369 H1361 0.930 . S
C1369 C1367 1.419 . S
C1369 C1370 1.362 1_545 S
C1370 H1362 0.930 . S
C1370 C1369 1.362 1_565 S
C1370 C1373 1.409 . S
C1371 H1363 0.930 . S
C1371 C1372 1.355 . S
C1371 C1373 1.415 . S
C1372 C1371 1.355 . S
C1372 C1374 1.419 . S
C1373 C1368 1.425 . S
C1373 C1370 1.409 . S
C1373 C1371 1.415 . S
C1374 H1364 0.930 . S
C1374 C1372 1.419 . S
C1374 C1375 1.362 . S
C1375 H1365 0.930 . S
C1375 C1368 1.409 . S
C1375 C1374 1.362 . S
H1376 C1382 0.930 . S
H1377 C1385 0.930 . S
H1378 C1386 0.930 . S
H1379 C1387 0.930 . S
H1380 C1390 0.930 . S
H1381 C1391 0.930 . S
C1382 H1376 0.930 . S
C1382 C1383 1.355 . S
C1382 C1384 1.415 . S
C1383 C1382 1.355 . S
C1383 C1385 1.419 . S
C1384 C1382 1.415 . S
C1384 C1389 1.425 . S
C1384 C1391 1.409 . S
C1385 H1377 0.930 . S
C1385 C1383 1.419 . S
C1385 C1386 1.362 . S
C1386 H1378 0.930 . S
C1386 C1385 1.362 . S
C1386 C1389 1.409 . S
C1387 H1379 0.930 . S
C1387 C1388 1.355 . S
C1387 C1389 1.415 . S
C1388 C1387 1.355 . S
C1388 C1390 1.419 . S
C1389 C1384 1.425 . S
C1389 C1386 1.409 . S
C1389 C1387 1.415 . S
C1390 H1380 0.930 . S
C1390 C1388 1.419 . S
C1390 C1391 1.362 . S
C1391 H1381 0.930 . S
C1391 C1384 1.409 . S
C1391 C1390 1.362 . S
H1392 C1398 0.930 . S
H1393 C1401 0.930 . S
H1394 C1402 0.930 . S
H1395 C1403 0.930 . S
H1396 C1406 0.930 . S
H1397 C1407 0.930 . S
C1398 H1392 0.930 . S
C1398 C1399 1.355 . S
C1398 C1400 1.415 . S
C1399 C1398 1.355 . S
C1399 C1401 1.419 . S
C1400 C1398 1.415 . S
C1400 C1405 1.425 . S
C1400 C1407 1.409 . S
C1401 H1393 0.930 . S
C1401 C1399 1.419 . S
C1401 C1402 1.362 . S
C1402 H1394 0.930 . S
C1402 C1401 1.362 . S
C1402 C1405 1.409 . S
C1403 H1395 0.930 . S
C1403 C1404 1.355 . S
C1403 C1405 1.415 . S
C1404 C1403 1.355 . S
C1404 C1406 1.419 . S
C1405 C1400 1.425 . S
C1405 C1402 1.409 . S
C1405 C1403 1.415 . S
C1406 H1396 0.930 . S
C1406 C1404 1.419 . S
C1406 C1407 1.362 . S
C1407 H1397 0.930 . S
C1407 C1400 1.409 . S
C1407 C1406 1.362 . S
H1408 C1414 0.930 . S
H1409 C1417 0.930 . S
H1410 C1418 0.930 . S
H1411 C1419 0.930 . S
H1412 C1422 0.930 . S
H1413 C1423 0.930 1_455 S
C1414 H1408 0.930 . S
C1414 C1415 1.355 . S
C1414 C1416 1.415 . S
C1415 C1414 1.355 . S
C1415 C1417 1.419 . S
C1416 C1414 1.415 . S
C1416 C1421 1.425 . S
C1416 C1423 1.409 . S
C1417 H1409 0.930 . S
C1417 C1415 1.419 . S
C1417 C1418 1.362 . S
C1418 H1410 0.930 . S
C1418 C1417 1.362 . S
C1418 C1421 1.409 . S
C1419 H1411 0.930 . S
C1419 C1420 1.355 . S
C1419 C1421 1.415 . S
C1420 C1419 1.355 . S
C1420 C1422 1.419 . S
C1421 C1416 1.425 . S
C1421 C1418 1.409 . S
C1421 C1419 1.415 . S
C1422 H1412 0.930 . S
C1422 C1420 1.419 . S
C1422 C1423 1.362 . S
C1423 H1413 0.930 1_655 S
C1423 C1416 1.409 . S
C1423 C1422 1.362 . S
H1424 C1430 0.930 . S
H1425 C1433 0.930 . S
H1426 C1434 0.930 . S
H1427 C1435 0.930 . S
H1428 C1438 0.930 . S
H1429 C1439 0.930 . S
C1430 H1424 0.930 . S
C1430 C1431 1.355 . S
C1430 C1432 1.415 . S
C1431 C1430 1.355 . S
C1431 C1433 1.419 . S
C1432 C1430 1.415 . S
C1432 C1437 1.425 . S
C1432 C1439 1.409 . S
C1433 H1425 0.930 . S
C1433 C1431 1.419 . S
C1433 C1434 1.362 . S
C1434 H1426 0.930 . S
C1434 C1433 1.362 . S
C1434 C1437 1.409 . S
C1435 H1427 0.930 . S
C1435 C1436 1.355 . S
C1435 C1437 1.415 . S
C1436 C1435 1.355 . S
C1436 C1438 1.419 . S
C1437 C1432 1.425 . S
C1437 C1434 1.409 . S
C1437 C1435 1.415 . S
C1438 H1428 0.930 . S
C1438 C1436 1.419 . S
C1438 C1439 1.362 . S
C1439 H1429 0.930 . S
C1439 C1432 1.409 . S
C1439 C1438 1.362 . S
C583 C29 0.932 . S
C588 C66 0.923 . S
C599 C6 0.897 . S
C604 C61 0.918 . S
C615 C38 0.954 . S
C620 C68 0.943 . S
C631 C100 0.939 . S
C636 C130 0.951 . S
C647 C166 0.893 . S
C652 C132 0.915 . S
C663 C189 0.933 . S
C668 C98 0.942 . S
C679 C262 0.947 . S
C684 C196 0.942 . S
C695 C194 0.896 . S
C700 C253 0.917 1_545 S
C711 C285 0.911 . S
C716 C230 0.893 . S
C727 C322 0.949 . S
C732 C292 0.943 . S
C743 C324 0.918 . S
C748 C358 0.914 . S
C759 C290 0.900 . S
C764 C381 0.920 . S
C775 C413 0.914 . S
C780 C450 0.893 . S
C791 C390 0.955 . S
C796 C445 0.943 . S
C807 C422 0.891 . S
C812 C452 0.911 . S
C823 C514 0.950 . S
C828 C509 0.943 . S
C839 C550 0.954 . S
C844 C516 0.942 . S
C855 C486 0.944 . S
C860 C573 0.942 1_455 S
C871 N18 1.543 . S
C876 N178 1.547 . S
C887 N109 1.483 . S
C892 N50 1.483 . S
C903 N141 1.556 . S
C908 N77 1.552 . S
C919 N205 1.483 . S
C924 N370 1.483 . S
C935 N242 1.508 . S
C940 N301 1.504 . S
C951 N333 1.508 . S
C956 N274 1.504 . S
C967 N402 1.554 . S
C972 N562 1.550 . S
C983 N498 1.485 . S
C988 N434 1.487 . S
C999 N525 1.490 . S
C1004 N461 1.488 . S
C1015 N338 1.652 . S
C1020 N13 1.603 1_565 S
C1031 N45 1.644 . S
C1036 N365 1.609 . S
C1047 N306 1.604 . S
C1052 N82 1.651 . S
C1063 N114 1.605 1_655 S
C1068 N466 1.652 . S
C1079 N146 1.605 . S
C1084 N397 1.652 . S
C1095 N429 1.605 . S
C1100 N173 1.652 . S
C1111 N530 1.649 . S
C1116 N210 1.609 . S
C1127 N237 1.644 . S
C1132 N557 1.609 . S
C1143 N269 1.651 . S
C1148 N493 1.604 . S
C1159 C93 1.447 . S
C1164 C2 1.425 . S
C1175 C4 1.461 . S
C1180 C34 1.446 . S
C1191 C70 1.427 . S
C1196 C36 1.450 . S
C1207 C157 1.446 . S
C1212 C102 1.428 . S
C1223 C164 1.467 . S
C1228 C134 1.466 . S
C1239 C162 1.466 . S
C1244 C125 1.466 . S
C1255 C260 1.448 . S
C1260 C198 1.425 . S
C1271 C226 1.450 . S
C1276 C221 1.455 . S
C1287 C228 1.449 . S
C1292 C258 1.435 . S
C1303 C294 1.428 . S
C1308 C349 1.451 . S
C1319 C326 1.465 1_545 S
C1324 C356 1.468 . S
C1335 C317 1.467 1_545 S
C1340 C354 1.463 . S
C1351 C386 1.465 . S
C1356 C477 1.468 . S
C1367 C418 1.454 . S
C1372 C388 1.464 1_455 S
C1383 C420 1.464 . S
C1388 C454 1.464 1_455 S
C1399 C482 1.427 . S
C1404 C541 1.450 . S
C1415 C518 1.436 . S
C1420 C548 1.456 . S
C1431 C484 1.451 . S
C1436 C546 1.441 . S
