# Generated by pormake.
# Topology lcx, (8)-cn, num edge types: 1
# Building blocks:
#     Node 0, Type 0, BuildingBlock: OLANAS_clean_sbu_2, # of connection points: 8
#     Node 1, Type 0, BuildingBlock: OLANAS_clean_sbu_2, # of connection points: 8
#     Node 2, Type 0, BuildingBlock: OLANAS_clean_sbu_2, # of connection points: 8
#     Node 3, Type 0, BuildingBlock: OLANAS_clean_sbu_2, # of connection points: 8
#     Node 4, Type 0, BuildingBlock: OLANAS_clean_sbu_2, # of connection points: 8
#     Node 5, Type 0, BuildingBlock: OLANAS_clean_sbu_2, # of connection points: 8
#     Edge 6, Type (0, 0), BuildingBlock: XUDNAN_clean_linker_2, # of connection points: 2
#     Edge 7, Type (0, 0), BuildingBlock: XUDNAN_clean_linker_2, # of connection points: 2
#     Edge 8, Type (0, 0), BuildingBlock: XUDNAN_clean_linker_2, # of connection points: 2
#     Edge 9, Type (0, 0), BuildingBlock: XUDNAN_clean_linker_2, # of connection points: 2
#     Edge 10, Type (0, 0), BuildingBlock: XUDNAN_clean_linker_2, # of connection points: 2
#     Edge 11, Type (0, 0), BuildingBlock: XUDNAN_clean_linker_2, # of connection points: 2
#     Edge 12, Type (0, 0), BuildingBlock: XUDNAN_clean_linker_2, # of connection points: 2
#     Edge 13, Type (0, 0), BuildingBlock: XUDNAN_clean_linker_2, # of connection points: 2
#     Edge 14, Type (0, 0), BuildingBlock: XUDNAN_clean_linker_2, # of connection points: 2
#     Edge 15, Type (0, 0), BuildingBlock: XUDNAN_clean_linker_2, # of connection points: 2
#     Edge 16, Type (0, 0), BuildingBlock: XUDNAN_clean_linker_2, # of connection points: 2
#     Edge 17, Type (0, 0), BuildingBlock: XUDNAN_clean_linker_2, # of connection points: 2
#     Edge 18, Type (0, 0), BuildingBlock: XUDNAN_clean_linker_2, # of connection points: 2
#     Edge 19, Type (0, 0), BuildingBlock: XUDNAN_clean_linker_2, # of connection points: 2
#     Edge 20, Type (0, 0), BuildingBlock: XUDNAN_clean_linker_2, # of connection points: 2
#     Edge 21, Type (0, 0), BuildingBlock: XUDNAN_clean_linker_2, # of connection points: 2
#     Edge 22, Type (0, 0), BuildingBlock: XUDNAN_clean_linker_2, # of connection points: 2
#     Edge 23, Type (0, 0), BuildingBlock: XUDNAN_clean_linker_2, # of connection points: 2
#     Edge 24, Type (0, 0), BuildingBlock: XUDNAN_clean_linker_2, # of connection points: 2
#     Edge 25, Type (0, 0), BuildingBlock: XUDNAN_clean_linker_2, # of connection points: 2
#     Edge 26, Type (0, 0), BuildingBlock: XUDNAN_clean_linker_2, # of connection points: 2
#     Edge 27, Type (0, 0), BuildingBlock: XUDNAN_clean_linker_2, # of connection points: 2
#     Edge 28, Type (0, 0), BuildingBlock: XUDNAN_clean_linker_2, # of connection points: 2
#     Edge 29, Type (0, 0), BuildingBlock: XUDNAN_clean_linker_2, # of connection points: 2
# Relax obj value: 0.048
# Max RMSD: 0.138
# Mean RMSD: 0.137
data_MOF--net-lcx--node1-OLANAS_clean_sbu_2--edge1-XUDNAN_clean_linker_2
_symmetry_space_group_name_H-M    P1
_symmetry_Int_Tables_number       1
_symmetry_cell_setting            triclinic
loop_
_symmetry_equiv_pos_as_xyz
'x, y, z'
_cell_length_a     31.174338
_cell_length_b     31.207124
_cell_length_c     31.175859
_cell_angle_alpha  89.692123
_cell_angle_beta   89.909194
_cell_angle_gamma 89.830497
loop_
_atom_site_label
_atom_site_type_symbol
_atom_site_fract_x
_atom_site_fract_y
_atom_site_fract_z
_atom_type_partial_charge
C0 C 0.93716 0.31188 0.5044 0.0
O1 O 0.89761 0.32669 0.50488 0.0
C2 C 0.9743 0.34059 0.50425 0.0
C3 C 0.97508 0.3854 0.50259 0.0
C4 C 0.01553 0.40583 0.5016 0.0
C5 C 0.05385 0.38143 0.50195 0.0
C6 C 0.05038 0.33676 0.50378 0.0
N7 N 0.01141 0.31943 0.50546 0.0
N8 N 0.0063 0.2584 0.44111 0.0
Co9 Co 0.00857 0.26063 0.50346 0.0
N10 N 0.00625 0.20181 0.50111 0.0
C11 C 0.0067 0.1396 0.45904 0.0
C12 C 0.00679 0.11536 0.49753 0.0
C13 C 0.00719 0.13595 0.53786 0.0
C14 C 0.00704 0.18079 0.53835 0.0
C15 C 0.00681 0.18431 0.46224 0.0
N16 N 0.01071 0.25261 0.56557 0.0
N17 N 0.94624 0.2688 0.50585 0.0
N18 N 0.07102 0.26268 0.50105 0.0
C19 C 0.00655 0.21659 0.42788 0.0
O20 O 0.00354 0.20608 0.38719 0.0
C21 C 0.0845 0.3044 0.5017 0.0
O22 O 0.12524 0.31484 0.49854 0.0
C23 C 0.10075 0.22844 0.49352 0.0
C24 C 0.15163 0.19529 0.44469 0.0
C25 C 0.11587 0.22155 0.45162 0.0
C26 C 0.12308 0.2106 0.52848 0.0
C27 C 0.1598 0.18495 0.522 0.0
C28 C 0.1717 0.17533 0.47959 0.0
C29 C 0.00919 0.2097 0.57519 0.0
O30 O 0.01162 0.19523 0.61482 0.0
C31 C 0.0169 0.28339 0.59896 0.0
C32 C 0.05889 0.29217 0.61302 0.0
C33 C 0.06579 0.30984 0.65379 0.0
C34 C 0.03031 0.32108 0.67904 0.0
C35 C 0.98862 0.31109 0.66637 0.0
C36 C 0.98204 0.29295 0.62598 0.0
C37 C 0.91398 0.23843 0.51867 0.0
C38 C 0.8894 0.24633 0.55597 0.0
C39 C 0.85565 0.2193 0.56731 0.0
C40 C 0.84591 0.18468 0.54119 0.0
C41 C 0.86873 0.17705 0.50332 0.0
C42 C 0.9028 0.20412 0.49175 0.0
C43 C 0.99613 0.29233 0.41176 0.0
C44 C 0.97857 0.34427 0.34064 0.0
C45 C 0.94516 0.322 0.36066 0.0
C46 C 0.95394 0.29598 0.39623 0.0
C47 C 0.02953 0.31452 0.39117 0.0
C48 C 0.02108 0.34022 0.35491 0.0
H49 H 0.9457 0.40396 0.50172 0.0
H50 H 0.01717 0.44044 0.50007 0.0
H51 H 0.08483 0.39692 0.5003 0.0
H52 H 0.00665 0.12396 0.42814 0.0
H53 H 0.00684 0.08072 0.49611 0.0
H54 H 0.00789 0.1175 0.56734 0.0
H55 H 0.10169 0.23893 0.42499 0.0
H56 H 0.11364 0.21987 0.56049 0.0
H57 H 0.19884 0.15457 0.4732 0.0
H58 H 0.08599 0.28173 0.59404 0.0
H59 H 0.03525 0.33609 0.70994 0.0
H60 H 0.95038 0.28242 0.61741 0.0
H61 H 0.89538 0.27433 0.57521 0.0
H62 H 0.81914 0.16414 0.54982 0.0
H63 H 0.91934 0.19939 0.46163 0.0
H64 H 0.97154 0.36226 0.3116 0.0
H65 H 0.92866 0.27669 0.4103 0.0
H66 H 0.06221 0.30964 0.40196 0.0
C67 C 0.3316 0.48112 0.93334 0.0
O68 O 0.3462 0.47434 0.89435 0.0
C69 C 0.36012 0.48134 0.97075 0.0
C70 C 0.40448 0.47453 0.97247 0.0
C71 C 0.4248 0.477 0.01296 0.0
C72 C 0.40077 0.48621 0.05037 0.0
C73 C 0.35657 0.49269 0.04596 0.0
N74 N 0.33931 0.48972 0.00706 0.0
N75 N 0.26598 0.43918 0.01112 0.0
Co76 Co 0.2813 0.49922 0.00291 0.0
N77 N 0.22331 0.50878 0.99894 0.0
C78 C 0.15359 0.48066 0.9998 0.0
C79 C 0.13799 0.52307 0.99505 0.0
C80 C 0.16666 0.55809 0.99262 0.0
C81 C 0.21064 0.54939 0.99508 0.0
C82 C 0.19804 0.47456 0.00162 0.0
N83 N 0.28683 0.56084 0.99471 0.0
N84 N 0.28913 0.48968 0.94144 0.0
N85 N 0.28329 0.50734 0.06467 0.0
C86 C 0.22236 0.43468 0.00806 0.0
O87 O 0.20327 0.39754 0.01368 0.0
C88 C 0.32461 0.50294 0.07897 0.0
O89 O 0.33486 0.50691 0.11966 0.0
C90 C 0.24907 0.51883 0.09309 0.0
C91 C 0.19508 0.49507 0.14463 0.0
C92 C 0.222 0.48667 0.10947 0.0
C93 C 0.24935 0.55962 0.11213 0.0
C94 C 0.22333 0.56787 0.14773 0.0
C95 C 0.19542 0.53606 0.16265 0.0
C96 C 0.24689 0.57928 0.99298 0.0
O97 O 0.24138 0.6205 0.9858 0.0
C98 C 0.32436 0.58523 0.98435 0.0
C99 C 0.34154 0.61266 0.01553 0.0
C100 C 0.36832 0.64672 0.00337 0.0
C101 C 0.37887 0.65241 0.96004 0.0
C102 C 0.361 0.62608 0.92852 0.0
C103 C 0.33451 0.59203 0.94092 0.0
C104 C 0.25788 0.48874 0.9075 0.0
C105 C 0.24082 0.52738 0.89087 0.0
C106 C 0.21998 0.52804 0.85078 0.0
C107 C 0.21476 0.4894 0.82881 0.0
C108 C 0.23269 0.45125 0.84402 0.0
C109 C 0.25319 0.45062 0.88388 0.0
C110 C 0.29268 0.40339 0.02267 0.0
C111 C 0.32376 0.32276 0.04664 0.0
C112 C 0.31737 0.33183 0.00303 0.0
C113 C 0.30177 0.37249 0.99131 0.0
C114 C 0.30051 0.39391 0.06632 0.0
C115 C 0.31589 0.3532 0.07856 0.0
H116 H 0.4228 0.46768 0.94379 0.0
H117 H 0.45907 0.47192 0.01531 0.0
H118 H 0.41623 0.48824 0.08136 0.0
H119 H 0.13172 0.45388 0.00216 0.0
H120 H 0.10378 0.52879 0.99344 0.0
H121 H 0.15483 0.59055 0.98902 0.0
H122 H 0.22382 0.45461 0.09658 0.0
H123 H 0.27219 0.58348 0.10136 0.0
H124 H 0.17613 0.54254 0.19089 0.0
H125 H 0.33055 0.61008 0.04843 0.0
H126 H 0.39717 0.68042 0.95043 0.0
H127 H 0.3185 0.57361 0.91648 0.0
H128 H 0.24651 0.5572 0.90727 0.0
H129 H 0.19783 0.48899 0.79843 0.0
H130 H 0.26843 0.42138 0.89501 0.0
H131 H 0.33499 0.29129 0.0561 0.0
H132 H 0.29506 0.37993 0.95804 0.0
H133 H 0.29243 0.41711 0.0907 0.0
C134 C 0.09537 0.70426 0.49173 0.0
O135 O 0.13635 0.69405 0.49154 0.0
C136 C 0.06175 0.67148 0.49375 0.0
C137 C 0.06598 0.62683 0.4932 0.0
C138 C 0.02814 0.60197 0.49565 0.0
C139 C 0.98741 0.62192 0.49854 0.0
C140 C 0.98589 0.66673 0.49909 0.0
N141 N 0.02261 0.68829 0.49683 0.0
N142 N 0.01503 0.75167 0.43433 0.0
Co143 Co 0.01881 0.74697 0.49663 0.0
N144 N 0.01486 0.80565 0.49639 0.0
C145 C 0.00426 0.86909 0.45699 0.0
C146 C 0.0045 0.89155 0.49631 0.0
C147 C 0.00973 0.86939 0.5357 0.0
C148 C 0.01497 0.82486 0.5344 0.0
C149 C 0.00946 0.82455 0.45839 0.0
N150 N 0.02146 0.75192 0.55911 0.0
N151 N 0.08154 0.74603 0.49313 0.0
N152 N 0.95687 0.73819 0.49948 0.0
C153 C 0.00972 0.79384 0.4229 0.0
O154 O 0.00819 0.80634 0.38256 0.0
C155 C 0.94831 0.69512 0.50063 0.0
O156 O 0.90891 0.68015 0.50075 0.0
C157 C 0.92338 0.76876 0.49092 0.0
C158 C 0.86318 0.7902 0.44575 0.0
C159 C 0.90131 0.76712 0.45147 0.0
C160 C 0.90683 0.79375 0.52456 0.0
C161 C 0.86866 0.81727 0.51881 0.0
C162 C 0.84762 0.8155 0.47912 0.0
C163 C 0.01881 0.79434 0.57019 0.0
O164 O 0.01729 0.80679 0.61041 0.0
C165 C 0.01719 0.71922 0.59149 0.0
C166 C 0.97581 0.70932 0.60685 0.0
C167 C 0.97039 0.68849 0.64653 0.0
C168 C 0.00679 0.67622 0.66989 0.0
C169 C 0.048 0.68745 0.65636 0.0
C170 C 0.0533 0.70775 0.61641 0.0
C171 C 0.11201 0.77971 0.50063 0.0
C172 C 0.1243 0.78802 0.54314 0.0
C173 C 0.16379 0.80721 0.552 0.0
C174 C 0.19012 0.82031 0.51804 0.0
C175 C 0.17898 0.81213 0.47551 0.0
C176 C 0.13926 0.79296 0.46682 0.0
C177 C 0.02618 0.72043 0.40259 0.0
C178 C 0.04524 0.67935 0.32528 0.0
C179 C 0.07766 0.7003 0.34761 0.0
C180 C 0.06829 0.71999 0.38655 0.0
C181 C 0.99352 0.69974 0.3795 0.0
C182 C 0.00291 0.67912 0.3405 0.0
H183 H 0.09716 0.61166 0.49088 0.0
H184 H 0.03036 0.56737 0.49517 0.0
H185 H 0.95839 0.60301 0.5001 0.0
H186 H 0.99988 0.8859 0.42685 0.0
H187 H 1.00032 0.92599 0.49628 0.0
H188 H 0.0093 0.88641 0.56585 0.0
H189 H 0.91243 0.74603 0.42638 0.0
H190 H 0.92248 0.7932 0.55554 0.0
H191 H 0.81709 0.83176 0.47483 0.0
H192 H 0.94798 0.72128 0.58981 0.0
H193 H 0.00307 0.65958 0.70031 0.0
H194 H 0.085 0.71769 0.60655 0.0
H195 H 0.10534 0.77586 0.56938 0.0
H196 H 0.22057 0.8356 0.52485 0.0
H197 H 0.13161 0.78511 0.43413 0.0
H198 H 0.05273 0.66573 0.29419 0.0
H199 H 0.09288 0.73792 0.40244 0.0
H200 H 0.96072 0.70178 0.39064 0.0
C201 C 0.68953 0.50758 0.92429 0.0
O202 O 0.67424 0.50744 0.885 0.0
C203 C 0.6616 0.50437 0.96212 0.0
C204 C 0.61676 0.50373 0.96409 0.0
C205 C 0.59723 0.50286 0.0051 0.0
C206 C 0.62251 0.50299 0.04277 0.0
C207 C 0.66716 0.50364 0.0381 0.0
N208 N 0.68364 0.50361 0.9987 0.0
N209 N 0.74212 0.57067 0.9949 0.0
Co210 Co 0.74227 0.50808 0.99437 0.0
N211 N 0.80081 0.51282 0.9895 0.0
C212 C 0.86036 0.55713 0.97721 0.0
C213 C 0.88597 0.51968 0.97514 0.0
C214 C 0.8673 0.47864 0.97983 0.0
C215 C 0.82305 0.47642 0.98711 0.0
C216 C 0.8163 0.55221 0.98423 0.0
N217 N 0.7524 0.44634 0.99308 0.0
N218 N 0.73263 0.50915 0.93261 0.0
N219 N 0.7419 0.50658 0.05698 0.0
C220 C 0.78289 0.5853 0.98722 0.0
O221 O 0.79216 0.62639 0.98648 0.0
C222 C 0.7003 0.50523 0.0714 0.0
O223 O 0.69066 0.50419 0.11248 0.0
C224 C 0.77721 0.49918 0.08564 0.0
C225 C 0.83478 0.52851 0.12929 0.0
C226 C 0.80577 0.53267 0.09502 0.0
C227 C 0.77736 0.46182 0.11137 0.0
C228 C 0.80581 0.45772 0.14574 0.0
C229 C 0.8354 0.49034 0.15315 0.0
C230 C 0.7956 0.43844 0.99005 0.0
O231 O 0.81123 0.39939 0.98673 0.0
C232 C 0.72223 0.41173 0.99235 0.0
C233 C 0.72137 0.38281 0.02714 0.0
C234 C 0.70242 0.34238 0.02305 0.0
C235 C 0.6836 0.33133 0.98396 0.0
C236 C 0.68487 0.35927 0.94866 0.0
C237 C 0.70337 0.3999 0.95323 0.0
C238 C 0.76353 0.5098 0.89852 0.0
C239 C 0.78103 0.47093 0.8839 0.0
C240 C 0.80283 0.46918 0.84453 0.0
C241 C 0.80809 0.50697 0.82072 0.0
C242 C 0.7904 0.54573 0.83446 0.0
C243 C 0.76848 0.54733 0.87372 0.0
C244 C 0.70982 0.59834 0.01273 0.0
C245 C 0.6526 0.66059 0.04251 0.0
C246 C 0.64427 0.64008 0.00368 0.0
C247 C 0.67303 0.60879 0.98868 0.0
C248 C 0.71912 0.62174 0.05026 0.0
C249 C 0.69134 0.65414 0.06405 0.0
H250 H 0.59751 0.50441 0.93524 0.0
H251 H 0.56261 0.50255 0.00767 0.0
H252 H 0.60765 0.50293 0.07417 0.0
H253 H 0.87447 0.58854 0.97315 0.0
H254 H 0.9201 0.52243 0.96943 0.0
H255 H 0.88664 0.44991 0.97728 0.0
H256 H 0.80352 0.56266 0.07763 0.0
H257 H 0.75291 0.43781 0.10701 0.0
H258 H 0.85678 0.48729 0.18043 0.0
H259 H 0.73846 0.39038 0.05617 0.0
H260 H 0.66834 0.30032 0.98071 0.0
H261 H 0.70619 0.42059 0.92549 0.0
H262 H 0.77538 0.44168 0.90173 0.0
H263 H 0.82581 0.50633 0.79074 0.0
H264 H 0.75333 0.57689 0.88388 0.0
H265 H 0.63182 0.68666 0.05267 0.0
H266 H 0.66836 0.59485 0.95733 0.0
H267 H 0.74956 0.61729 0.06635 0.0
C268 C 0.51031 0.07169 0.32557 0.0
O269 O 0.50727 0.10644 0.34908 0.0
C270 C 0.50333 0.02869 0.3437 0.0
C271 C 0.494 0.01693 0.38607 0.0
C272 C 0.48966 0.97274 0.39561 0.0
C273 C 0.49486 0.94159 0.36316 0.0
C274 C 0.50399 0.9559 0.32154 0.0
N275 N 0.50716 0.99791 0.31453 0.0
N276 N 0.58337 0.0114 0.27082 0.0
Co277 Co 0.52172 0.01478 0.26001 0.0
N278 N 0.53657 0.03146 0.20553 0.0
C279 C 0.59102 0.04252 0.15466 0.0
C280 C 0.55857 0.05037 0.12388 0.0
C281 C 0.51468 0.04801 0.13538 0.0
C282 C 0.50457 0.0378 0.17796 0.0
C283 C 0.57835 0.03305 0.19672 0.0
N284 N 0.46239 0.02045 0.24035 0.0
N285 N 0.52002 0.07327 0.28267 0.0
N286 N 0.52087 0.9539 0.24624 0.0
C287 C 0.60515 0.02237 0.23412 0.0
O288 O 0.64721 0.02022 0.23152 0.0
C289 C 0.51146 0.9307 0.28253 0.0
O290 O 0.51033 0.88857 0.28272 0.0
C291 C 0.53031 0.93306 0.20627 0.0
C292 C 0.58357 0.89283 0.16559 0.0
C293 C 0.57328 0.9246 0.19536 0.0
C294 C 0.49744 0.91039 0.1854 0.0
C295 C 0.50747 0.87903 0.15472 0.0
C296 C 0.55056 0.87192 0.14387 0.0
C297 C 0.46219 0.03196 0.19784 0.0
O298 O 0.4264 0.03779 0.17627 0.0
C299 C 0.42348 0.01858 0.26523 0.0
C300 C 0.40792 0.97901 0.28059 0.0
C301 C 0.36775 0.97676 0.30109 0.0
C302 C 0.34425 0.01456 0.30704 0.0
C303 C 0.35739 0.05361 0.28911 0.0
C304 C 0.39743 0.05547 0.26856 0.0
C305 C 0.52314 0.1135 0.25987 0.0
C306 C 0.48795 0.14215 0.25977 0.0
C307 C 0.49205 0.18364 0.24263 0.0
C308 C 0.53139 0.19593 0.22484 0.0
C309 C 0.56721 0.16867 0.22572 0.0
C310 C 0.56285 0.12733 0.24342 0.0
C311 C 0.60552 0.99171 0.30634 0.0
C312 C 0.66788 0.9571 0.36094 0.0
C313 C 0.65731 0.0006 0.36454 0.0
C314 C 0.62618 0.018 0.33664 0.0
C315 C 0.61664 0.94786 0.3041 0.0
C316 C 0.64921 0.93113 0.33 0.0
H317 H 0.49043 0.04077 0.41091 0.0
H318 H 0.48254 0.96266 0.4281 0.0
H319 H 0.49191 0.90778 0.37043 0.0
H320 H 0.62458 0.04376 0.14581 0.0
H321 H 0.5674 0.05793 0.09113 0.0
H322 H 0.48981 0.05352 0.11179 0.0
H323 H 0.59904 0.93966 0.21245 0.0
H324 H 0.46457 0.91441 0.19606 0.0
H325 H 0.55868 0.84674 0.12138 0.0
H326 H 0.42585 0.94995 0.27468 0.0
H327 H 0.31487 0.01338 0.32565 0.0
H328 H 0.40765 0.08504 0.25359 0.0
H329 H 0.45808 0.13277 0.27466 0.0
H330 H 0.53384 0.22706 0.20942 0.0
H331 H 0.5907 0.10686 0.24609 0.0
H332 H 0.69405 0.9438 0.37974 0.0
H333 H 0.6196 0.0521 0.33675 0.0
H334 H 0.60279 0.9275 0.28017 0.0
C335 C 0.53172 0.92283 0.71278 0.0
O336 O 0.5396 0.88271 0.70256 0.0
C337 C 0.52784 0.9564 0.67991 0.0
C338 C 0.53681 0.95374 0.636 0.0
C339 C 0.53373 0.99164 0.61114 0.0
C340 C 0.52276 0.03104 0.63053 0.0
C341 C 0.51417 0.03101 0.67461 0.0
N342 N 0.51554 0.99395 0.69599 0.0
N343 N 0.57469 0.00512 0.76146 0.0
Co344 Co 0.51282 0.997 0.75488 0.0
N345 N 0.51109 0.9997 0.81385 0.0
C346 C 0.549 0.00325 0.87883 0.0
C347 C 0.50959 0.99717 0.90053 0.0
C348 C 0.47109 0.99163 0.8773 0.0
C349 C 0.47329 0.99276 0.83247 0.0
C350 C 0.5485 0.00403 0.83394 0.0
N351 N 0.45061 0.98915 0.75885 0.0
N352 N 0.52136 0.93469 0.75387 0.0
N353 N 0.50526 0.05868 0.74586 0.0
C354 C 0.58473 0.00751 0.80414 0.0
O355 O 0.62423 0.01354 0.81756 0.0
C356 C 0.50748 0.06778 0.70282 0.0
O357 O 0.50307 0.10694 0.68757 0.0
C358 C 0.5001 0.09227 0.77677 0.0
C359 C 0.521 0.16385 0.8 0.0
C360 C 0.52948 0.1266 0.77678 0.0
C361 C 0.46177 0.09592 0.80034 0.0
C362 C 0.45393 0.13269 0.82468 0.0
C363 C 0.48363 0.16622 0.82443 0.0
C364 C 0.43883 0.98659 0.80128 0.0
O365 O 0.39856 0.98272 0.81338 0.0
C366 C 0.41806 0.99042 0.72634 0.0
C367 C 0.40293 0.03045 0.71129 0.0
C368 C 0.3623 0.03359 0.69209 0.0
C369 C 0.33727 0.99688 0.6875 0.0
C370 C 0.35087 0.95754 0.70403 0.0
C371 C 0.3917 0.9541 0.72203 0.0
C372 C 0.50099 0.90402 0.78195 0.0
C373 C 0.4677 0.87807 0.76571 0.0
C374 C 0.44864 0.84685 0.79148 0.0
C375 C 0.4619 0.84232 0.83391 0.0
C376 C 0.49862 0.86313 0.84884 0.0
C377 C 0.51781 0.89496 0.82297 0.0
C378 C 0.60652 0.01395 0.72929 0.0
C379 C 0.68061 0.02994 0.68105 0.0
C380 C 0.66534 0.98784 0.68466 0.0
C381 C 0.62829 0.97994 0.70923 0.0
C382 C 0.623 0.05573 0.72579 0.0
C383 C 0.66031 0.06381 0.70222 0.0
H384 H 0.54666 0.92382 0.62156 0.0
H385 H 0.5409 0.9907 0.57719 0.0
H386 H 0.52219 0.06044 0.61197 0.0
H387 H 0.57864 0.00664 0.89649 0.0
H388 H 0.50897 0.99623 0.93523 0.0
H389 H 0.44099 0.98627 0.89379 0.0
H390 H 0.55732 0.12578 0.75627 0.0
H391 H 0.43731 0.07166 0.79818 0.0
H392 H 0.47708 0.19493 0.84288 0.0
H393 H 0.42041 0.05941 0.71833 0.0
H394 H 0.3054 0.99965 0.67371 0.0
H395 H 0.4005 0.92448 0.73766 0.0
H396 H 0.45839 0.88051 0.73235 0.0
H397 H 0.44786 0.81661 0.85285 0.0
H398 H 0.54685 0.91063 0.83351 0.0
H399 H 0.70994 0.03624 0.66337 0.0
H400 H 0.61763 0.94736 0.71442 0.0
H401 H 0.60899 0.0811 0.74443 0.0
H402 H 0.02224 0.41778 0.31335 0.0
H403 H 0.09825 0.30266 0.33349 0.0
H404 H 0.14972 0.32742 0.27833 0.0
H405 H 0.03253 0.41886 0.19955 0.0
H406 H 0.03351 0.47656 0.19641 0.0
H407 H 0.00575 0.45026 0.23987 0.0
H408 H 0.05155 0.49389 0.29424 0.0
H409 H 0.07926 0.51934 0.25034 0.0
H410 H 0.10925 0.49111 0.29102 0.0
H411 H 0.19171 0.36457 0.21835 0.0
H412 H 0.22363 0.41398 0.16488 0.0
H413 H 0.11463 0.49952 0.17933 0.0
C414 C 0.04987 0.39783 0.30649 0.0
C415 C 0.05609 0.35824 0.32784 0.0
C416 C 0.09303 0.33344 0.31815 0.0
C417 C 0.12217 0.34697 0.28641 0.0
C418 C 0.11372 0.38516 0.2645 0.0
C419 C 0.07863 0.41037 0.2745 0.0
C420 C 0.07576 0.44934 0.24565 0.0
C421 C 0.03444 0.44872 0.21876 0.0
C422 C 0.07918 0.49086 0.27188 0.0
C423 C 0.11495 0.44242 0.21795 0.0
C424 C 0.13656 0.4053 0.22916 0.0
C425 C 0.17487 0.39356 0.20913 0.0
C426 C 0.19248 0.42153 0.17833 0.0
C427 C 0.1716 0.46061 0.16783 0.0
C428 C 0.13143 0.46996 0.18671 0.0
H429 H 0.22739 0.54918 0.76584 0.0
H430 H 0.1786 0.59749 0.8867 0.0
H431 H 0.14167 0.65612 0.84755 0.0
H432 H 0.23199 0.65448 0.70457 0.0
H433 H 0.21323 0.62884 0.65648 0.0
H434 H 0.24603 0.59943 0.69414 0.0
H435 H 0.18767 0.54064 0.69934 0.0
H436 H 0.15477 0.56978 0.66202 0.0
H437 H 0.13371 0.55552 0.71405 0.0
H438 H 0.09902 0.69965 0.79524 0.0
H439 H 0.05136 0.72136 0.73593 0.0
H440 H 0.12246 0.64036 0.64854 0.0
C441 C 0.20968 0.57262 0.7843 0.0
C442 C 0.20547 0.56843 0.82941 0.0
C443 C 0.18257 0.60016 0.85226 0.0
C444 C 0.16148 0.63355 0.83019 0.0
C445 C 0.16391 0.63489 0.78537 0.0
C446 C 0.18771 0.60526 0.76271 0.0
C447 C 0.17956 0.6088 0.71482 0.0
C448 C 0.22012 0.62379 0.69111 0.0
C449 C 0.16292 0.56618 0.69653 0.0
C450 C 0.14524 0.64322 0.71406 0.0
C451 C 0.1379 0.65895 0.75495 0.0
C452 C 0.10511 0.68814 0.76311 0.0
C453 C 0.07816 0.70023 0.72922 0.0
C454 C 0.08348 0.68259 0.68773 0.0
C455 C 0.11841 0.65497 0.67971 0.0
H456 H 0.91766 0.52858 0.15603 0.0
H457 H 0.80481 0.60941 0.14627 0.0
H458 H 0.83608 0.65907 0.19929 0.0
H459 H 0.9204 0.53228 0.26608 0.0
H460 H 0.97801 0.5295 0.27023 0.0
H461 H 0.95134 0.50682 0.22454 0.0
H462 H 0.99811 0.55374 0.17359 0.0
H463 H 0.02485 0.57606 0.21945 0.0
H464 H 0.99926 0.611 0.18097 0.0
H465 H 0.87611 0.69421 0.26167 0.0
H466 H 0.92497 0.71585 0.32029 0.0
H467 H 0.00523 0.60513 0.29441 0.0
C468 C 0.90036 0.55772 0.16368 0.0
C469 C 0.85899 0.56529 0.14689 0.0
C470 C 0.83693 0.60338 0.15812 0.0
C471 C 0.85419 0.63142 0.18875 0.0
C472 C 0.89332 0.62066 0.20777 0.0
C473 C 0.91634 0.58493 0.19512 0.0
C474 C 0.9547 0.57704 0.22369 0.0
C475 C 0.95088 0.53386 0.24754 0.0
C476 C 0.99671 0.57965 0.19788 0.0
C477 C 0.95009 0.61411 0.25424 0.0
C478 C 0.91464 0.63908 0.24473 0.0
C479 C 0.90409 0.67498 0.26915 0.0
C480 C 0.93163 0.68666 0.30283 0.0
C481 C 0.96897 0.66222 0.31186 0.0
C482 C 0.97718 0.62472 0.28804 0.0
H483 H 0.7976 0.44174 0.7618 0.0
H484 H 0.84736 0.40578 0.8867 0.0
H485 H 0.88869 0.34706 0.85326 0.0
H486 H 0.80195 0.32964 0.71045 0.0
H487 H 0.81899 0.35284 0.66022 0.0
H488 H 0.78281 0.38197 0.69471 0.0
H489 H 0.83511 0.44642 0.69434 0.0
H490 H 0.87141 0.41756 0.66036 0.0
H491 H 0.88994 0.43825 0.71092 0.0
H492 H 0.9365 0.30505 0.80596 0.0
H493 H 0.98782 0.28432 0.74958 0.0
H494 H 0.91074 0.35039 0.6543 0.0
C495 C 0.81619 0.4206 0.78227 0.0
C496 C 0.81957 0.42838 0.82679 0.0
C497 C 0.844 0.4001 0.85262 0.0
C498 C 0.86753 0.36666 0.83383 0.0
C499 C 0.86578 0.36171 0.78933 0.0
C500 C 0.84023 0.38764 0.76389 0.0
C501 C 0.84948 0.38098 0.7166 0.0
C502 C 0.81101 0.36011 0.69418 0.0
C503 C 0.86227 0.4233 0.6943 0.0
C504 C 0.88685 0.3501 0.71943 0.0
C505 C 0.89459 0.33808 0.76157 0.0
C506 C 0.93017 0.31349 0.77285 0.0
C507 C 0.95932 0.3022 0.74066 0.0
C508 C 0.95323 0.31613 0.69774 0.0
C509 C 0.91567 0.33887 0.68675 0.0
H510 H 0.27023 0.05407 0.28236 0.0
H511 H 0.37819 0.13816 0.30499 0.0
H512 H 0.32814 0.19498 0.32835 0.0
H513 H 0.18376 0.13935 0.26093 0.0
H514 H 0.14552 0.10848 0.29148 0.0
H515 H 0.18655 0.08164 0.26073 0.0
H516 H 0.2112 0.04092 0.32904 0.0
H517 H 0.17059 0.06739 0.35979 0.0
H518 H 0.22597 0.07095 0.37598 0.0
H519 H 0.27001 0.23467 0.36621 0.0
H520 H 0.21341 0.25001 0.41947 0.0
H521 H 0.145 0.13633 0.38104 0.0
C522 C 0.28336 0.08487 0.29117 0.0
C523 C 0.32821 0.0914 0.29248 0.0
C524 C 0.344 0.13235 0.30349 0.0
C525 C 0.31566 0.16485 0.31684 0.0
C526 C 0.27173 0.15589 0.31885 0.0
C527 C 0.25573 0.11672 0.30609 0.0
C528 C 0.20951 0.11086 0.32003 0.0
C529 C 0.17956 0.11005 0.28096 0.0
C530 C 0.20406 0.07018 0.34788 0.0
C531 C 0.20289 0.15127 0.34579 0.0
C532 C 0.23834 0.17789 0.34286 0.0
C533 C 0.24171 0.21472 0.36772 0.0
C534 C 0.20933 0.22333 0.39776 0.0
C535 C 0.17459 0.19479 0.40331 0.0
C536 C 0.17049 0.15932 0.37599 0.0
H537 H 0.48079 0.77052 0.77447 0.0
H538 H 0.36202 0.84158 0.77598 0.0
H539 H 0.32192 0.77438 0.78724 0.0
H540 H 0.43806 0.65457 0.75018 0.0
H541 H 0.47348 0.63422 0.79121 0.0
H542 H 0.48982 0.67889 0.75809 0.0
H543 H 0.5042 0.72342 0.82662 0.0
H544 H 0.48774 0.67946 0.85948 0.0
H545 H 0.46154 0.73072 0.86499 0.0
H546 H 0.29798 0.70808 0.82304 0.0
H547 H 0.29346 0.65756 0.88397 0.0
H548 H 0.42986 0.63412 0.87551 0.0
C549 C 0.44604 0.771 0.77381 0.0
C550 C 0.42426 0.81063 0.77365 0.0
C551 C 0.37906 0.8113 0.77498 0.0
C552 C 0.3562 0.77309 0.78185 0.0
C553 C 0.37923 0.735 0.78859 0.0
C554 C 0.42356 0.73386 0.7847 0.0
C555 C 0.4425 0.69501 0.80733 0.0
C556 C 0.4621 0.66381 0.77475 0.0
C557 C 0.47584 0.70797 0.8416 0.0
C558 C 0.40257 0.67633 0.82755 0.0
C559 C 0.36611 0.69814 0.81419 0.0
C560 C 0.32613 0.69014 0.83276 0.0
C561 C 0.32378 0.66127 0.86731 0.0
C562 C 0.36137 0.64181 0.88376 0.0
C563 C 0.40072 0.64787 0.86244 0.0
H564 H 0.72711 0.9225 0.29575 0.0
H565 H 0.62251 0.84963 0.34965 0.0
H566 H 0.67188 0.78897 0.36342 0.0
H567 H 0.80225 0.82645 0.26209 0.0
H568 H 0.84774 0.85656 0.2808 0.0
H569 H 0.80309 0.8839 0.25593 0.0
H570 H 0.79602 0.93238 0.32272 0.0
H571 H 0.83978 0.90517 0.34791 0.0
H572 H 0.78857 0.90797 0.37477 0.0
H573 H 0.73324 0.74826 0.39251 0.0
H574 H 0.79687 0.73543 0.4377 0.0
H575 H 0.86366 0.83816 0.37305 0.0
C576 C 0.71436 0.89243 0.30762 0.0
C577 C 0.67112 0.89006 0.32082 0.0
C578 C 0.6553 0.85144 0.33824 0.0
C579 C 0.68337 0.81695 0.34633 0.0
C580 C 0.72709 0.82192 0.33714 0.0
C581 C 0.74243 0.85884 0.31768 0.0
C582 C 0.79085 0.862 0.32157 0.0
C583 C 0.81225 0.8569 0.27747 0.0
C584 C 0.80452 0.90431 0.34306 0.0
C585 C 0.80005 0.82352 0.34992 0.0
C586 C 0.76328 0.79944 0.35652 0.0
C587 C 0.76242 0.76598 0.38639 0.0
C588 C 0.79883 0.75867 0.41182 0.0
C589 C 0.83532 0.78518 0.40784 0.0
C590 C 0.83668 0.81648 0.37518 0.0
H591 H 0.7052 0.28452 0.90973 0.0
H592 H 0.62646 0.39816 0.89565 0.0
H593 H 0.58609 0.36306 0.83739 0.0
H594 H 0.69686 0.24599 0.79082 0.0
H595 H 0.69453 0.19119 0.80914 0.0
H596 H 0.72663 0.22966 0.83768 0.0
H597 H 0.68613 0.21089 0.90796 0.0
H598 H 0.65393 0.17287 0.87985 0.0
H599 H 0.62846 0.21547 0.90943 0.0
H600 H 0.54269 0.31062 0.79781 0.0
H601 H 0.50034 0.24641 0.78057 0.0
H602 H 0.60582 0.16518 0.82055 0.0
C603 C 0.68065 0.30255 0.8929 0.0
C604 C 0.66869 0.34386 0.90693 0.0
C605 C 0.63627 0.36665 0.88491 0.0
C606 C 0.6133 0.34691 0.85176 0.0
C607 C 0.62383 0.3048 0.84066 0.0
C608 C 0.65744 0.28313 0.86006 0.0
C609 C 0.65749 0.23599 0.84845 0.0
C610 C 0.69617 0.22508 0.81982 0.0
C611 C 0.65638 0.20718 0.88881 0.0
C612 C 0.61613 0.23353 0.8233 0.0
C613 C 0.59815 0.27385 0.81763 0.0
C614 C 0.55708 0.27915 0.80082 0.0
C615 C 0.53316 0.24253 0.79131 0.0
C616 C 0.55017 0.20111 0.79907 0.0
C617 C 0.59278 0.1966 0.81334 0.0
H618 H 0.24136 0.78135 0.58069 0.0
H619 H 0.12421 0.84364 0.62128 0.0
H620 H 0.16104 0.87034 0.68577 0.0
H621 H 0.29357 0.76956 0.6974 0.0
H622 H 0.34512 0.78168 0.6742 0.0
H623 H 0.30682 0.75024 0.64463 0.0
H624 H 0.3125 0.80354 0.581 0.0
H625 H 0.35013 0.83509 0.61008 0.0
H626 H 0.30166 0.85963 0.58993 0.0
H627 H 0.21262 0.9103 0.72758 0.0
H628 H 0.27208 0.96007 0.74082 0.0
H629 H 0.35891 0.87701 0.67167 0.0
C630 C 0.22318 0.79886 0.60452 0.0
C631 C 0.18033 0.81097 0.59622 0.0
C632 C 0.15704 0.83392 0.62739 0.0
C633 C 0.17782 0.84904 0.66417 0.0
C634 C 0.22161 0.84044 0.66931 0.0
C635 C 0.24393 0.81492 0.64065 0.0
C636 C 0.29204 0.81879 0.64683 0.0
C637 C 0.31046 0.77762 0.66697 0.0
C638 C 0.31535 0.83 0.60448 0.0
C639 C 0.29343 0.85525 0.67855 0.0
C640 C 0.25258 0.86527 0.69324 0.0
C641 C 0.24475 0.90191 0.71737 0.0
C642 C 0.27862 0.93022 0.72443 0.0
C643 C 0.31967 0.92213 0.70681 0.0
C644 C 0.3278 0.88315 0.68588 0.0
H645 H 0.63717 0.88275 0.09764 0.0
H646 H 0.62212 0.85228 0.23211 0.0
H647 H 0.6722 0.79161 0.22454 0.0
H648 H 0.6272 0.79024 0.06068 0.0
H649 H 0.66654 0.79048 0.01829 0.0
H650 H 0.64476 0.84002 0.03683 0.0
H651 H 0.7208 0.86828 0.05388 0.0
H652 H 0.74333 0.81877 0.03431 0.0
H653 H 0.75628 0.83714 0.08746 0.0
H654 H 0.69519 0.72089 0.19629 0.0
H655 H 0.69879 0.65513 0.15219 0.0
H656 H 0.71037 0.73288 0.03784 0.0
C657 C 0.64713 0.86509 0.12592 0.0
C658 C 0.62632 0.87217 0.16535 0.0
C659 C 0.63846 0.84776 0.20175 0.0
C660 C 0.66674 0.81298 0.19762 0.0
C661 C 0.68363 0.80395 0.15715 0.0
C662 C 0.67579 0.8306 0.12223 0.0
C663 C 0.69157 0.81054 0.08102 0.0
C664 C 0.65535 0.80763 0.04734 0.0
C665 C 0.73032 0.83515 0.06313 0.0
C666 C 0.70488 0.76671 0.09736 0.0
C667 C 0.70075 0.76346 0.14148 0.0
C668 C 0.70091 0.72344 0.16213 0.0
C669 C 0.70312 0.68611 0.137 0.0
C670 C 0.70584 0.68936 0.09194 0.0
C671 C 0.70988 0.73003 0.0725 0.0
H672 H 0.74156 0.08203 0.72525 0.0
H673 H 0.62597 0.14029 0.6752 0.0
H674 H 0.66721 0.20497 0.65487 0.0
H675 H 0.80058 0.18938 0.75456 0.0
H676 H 0.85061 0.16583 0.73751 0.0
H677 H 0.81042 0.13306 0.76327 0.0
H678 H 0.81161 0.08113 0.6986 0.0
H679 H 0.85158 0.11329 0.67312 0.0
H680 H 0.80212 0.10215 0.64542 0.0
H681 H 0.72224 0.24989 0.61965 0.0
H682 H 0.78307 0.26712 0.57197 0.0
H683 H 0.86446 0.1811 0.64404 0.0
C684 C 0.72479 0.10945 0.7119 0.0
C685 C 0.68089 0.10652 0.70165 0.0
C686 C 0.6596 0.1423 0.68366 0.0
C687 C 0.68286 0.17917 0.67217 0.0
C688 C 0.72712 0.17987 0.67964 0.0
C689 C 0.74771 0.14606 0.70001 0.0
C690 C 0.796 0.15 0.69664 0.0
C691 C 0.81555 0.16019 0.74062 0.0
C692 C 0.81644 0.10929 0.67724 0.0
C693 C 0.79947 0.18822 0.66676 0.0
C694 C 0.75956 0.20643 0.65903 0.0
C695 C 0.75376 0.2371 0.62673 0.0
C696 C 0.78857 0.24704 0.59989 0.0
C697 C 0.82843 0.2261 0.60535 0.0
C698 C 0.83462 0.19865 0.64074 0.0
H699 H 0.4099 0.17174 0.21345 0.0
H700 H 0.49437 0.26711 0.26747 0.0
H701 H 0.44375 0.32415 0.24661 0.0
H702 H 0.38676 0.22188 0.12472 0.0
H703 H 0.33083 0.2082 0.12015 0.0
H704 H 0.36605 0.17443 0.15066 0.0
H705 H 0.31686 0.18231 0.21701 0.0
H706 H 0.28118 0.21664 0.18687 0.0
H707 H 0.30359 0.23488 0.23678 0.0
H708 H 0.3981 0.37041 0.20099 0.0
H709 H 0.3598 0.40015 0.13825 0.0
H710 H 0.29785 0.27762 0.11954 0.0
C711 C 0.41641 0.20441 0.22292 0.0
C712 C 0.45603 0.21506 0.24187 0.0
C713 C 0.4642 0.2583 0.25279 0.0
C714 C 0.43547 0.29096 0.24126 0.0
C715 C 0.398 0.27993 0.21976 0.0
C716 C 0.38772 0.23751 0.21176 0.0
C717 C 0.34884 0.23469 0.18277 0.0
C718 C 0.35877 0.2083 0.14221 0.0
C719 C 0.31033 0.21604 0.20733 0.0
C720 C 0.34179 0.28178 0.17226 0.0
C721 C 0.36978 0.30753 0.19473 0.0
C722 C 0.37484 0.35093 0.18438 0.0
C723 C 0.35276 0.36777 0.14874 0.0
C724 C 0.32606 0.34118 0.12382 0.0
C725 C 0.31814 0.2987 0.13801 0.0
H726 H 0.94837 0.70255 0.72985 0.0
H727 H 0.89606 0.65959 0.60882 0.0
H728 H 0.83034 0.63563 0.64649 0.0
H729 H 0.92497 0.61418 0.78357 0.0
H730 H 0.9131 0.63867 0.8345 0.0
H731 H 0.94796 0.66527 0.79726 0.0
H732 H 0.899 0.73254 0.79916 0.0
H733 H 0.8637 0.70583 0.83653 0.0
H734 H 0.84269 0.72757 0.78714 0.0
H735 H 0.77994 0.60121 0.69792 0.0
H736 H 0.75316 0.55532 0.75674 0.0
H737 H 0.84045 0.61593 0.84511 0.0
C738 C 0.92258 0.68909 0.71105 0.0
C739 C 0.92744 0.68244 0.66647 0.0
C740 C 0.89289 0.66521 0.64293 0.0
C741 C 0.85543 0.65162 0.66415 0.0
C742 C 0.85296 0.65594 0.70874 0.0
C743 C 0.8857 0.67457 0.73186 0.0
C744 C 0.87968 0.66816 0.77972 0.0
C745 C 0.9187 0.64518 0.79988 0.0
C746 C 0.87072 0.71109 0.80194 0.0
C747 C 0.84021 0.64008 0.78001 0.0
C748 C 0.8242 0.63493 0.73888 0.0
C749 C 0.79136 0.60604 0.73029 0.0
C750 C 0.77618 0.58022 0.7639 0.0
C751 C 0.79424 0.58301 0.80541 0.0
C752 C 0.82513 0.61459 0.81399 0.0
H753 H 0.88611 0.38506 0.36384 0.0
H754 H 0.91399 0.26292 0.30562 0.0
H755 H 0.86063 0.27786 0.24892 0.0
H756 H 0.76585 0.39312 0.32569 0.0
H757 H 0.77285 0.4499 0.31751 0.0
H758 H 0.80018 0.42304 0.36101 0.0
H759 H 0.87262 0.45259 0.33278 0.0
H760 H 0.84594 0.47878 0.28918 0.0
H761 H 0.88866 0.44131 0.27837 0.0
H762 H 0.82498 0.31561 0.18781 0.0
H763 H 0.80847 0.37048 0.13239 0.0
H764 H 0.79853 0.46666 0.23133 0.0
C765 C 0.87846 0.36038 0.34082 0.0
C766 C 0.90296 0.32252 0.33944 0.0
C767 C 0.89433 0.29153 0.30776 0.0
C768 C 0.86421 0.29992 0.27533 0.0
C769 C 0.84257 0.33915 0.27557 0.0
C770 C 0.84844 0.36843 0.30838 0.0
C771 C 0.82787 0.4111 0.29765 0.0
C772 C 0.78939 0.41978 0.32722 0.0
C773 C 0.86074 0.44802 0.29957 0.0
C774 C 0.81328 0.40271 0.25223 0.0
C775 C 0.82092 0.36077 0.24018 0.0
C776 C 0.81736 0.34806 0.19731 0.0
C777 C 0.80795 0.37933 0.16594 0.0
C778 C 0.80253 0.42262 0.17782 0.0
C779 C 0.80238 0.43358 0.22165 0.0
H780 H 0.08951 0.2878 0.73464 0.0
H781 H 0.13914 0.34229 0.61664 0.0
H782 H 0.20429 0.36539 0.6552 0.0
H783 H 0.10643 0.37184 0.79209 0.0
H784 H 0.1202 0.34597 0.8421 0.0
H785 H 0.08795 0.31833 0.80383 0.0
H786 H 0.1425 0.25549 0.8031 0.0
H787 H 0.17518 0.28321 0.84171 0.0
H788 H 0.19822 0.26586 0.79165 0.0
H789 H 0.252 0.39934 0.70782 0.0
H790 H 0.27302 0.44601 0.76759 0.0
H791 H 0.18892 0.37635 0.85324 0.0
C792 C 0.11486 0.30334 0.71665 0.0
C793 C 0.10923 0.31377 0.67283 0.0
C794 C 0.14297 0.33378 0.65015 0.0
C795 C 0.18012 0.34687 0.6719 0.0
C796 C 0.183 0.33939 0.71613 0.0
C797 C 0.1512 0.31771 0.73821 0.0
C798 C 0.15628 0.32223 0.78635 0.0
C799 C 0.11533 0.34073 0.80724 0.0
C800 C 0.1688 0.27913 0.80691 0.0
C801 C 0.19325 0.35345 0.78801 0.0
C802 C 0.20976 0.361 0.7473 0.0
C803 C 0.24019 0.39277 0.73984 0.0
C804 C 0.25202 0.41911 0.77399 0.0
C805 C 0.23279 0.41415 0.81486 0.0
C806 C 0.20488 0.37962 0.82253 0.0
H807 H 0.14827 0.65104 0.35758 0.0
H808 H 0.09689 0.75805 0.28587 0.0
H809 H 0.15204 0.74793 0.23012 0.0
H810 H 0.26855 0.6625 0.31387 0.0
H811 H 0.27263 0.60487 0.3135 0.0
H812 H 0.24245 0.63136 0.35513 0.0
H813 H 0.17618 0.58524 0.33635 0.0
H814 H 0.20565 0.55914 0.29485 0.0
H815 H 0.15594 0.58597 0.28214 0.0
H816 H 0.18921 0.70978 0.17251 0.0
H817 H 0.20842 0.65108 0.12304 0.0
H818 H 0.24331 0.57132 0.23122 0.0
C819 C 0.15102 0.67404 0.3316 0.0
C820 C 0.11933 0.70565 0.32603 0.0
C821 C 0.12183 0.73429 0.2909 0.0
C822 C 0.15304 0.72865 0.25906 0.0
C823 C 0.1819 0.69464 0.26329 0.0
C824 C 0.18216 0.66863 0.29957 0.0
C825 C 0.21021 0.62956 0.2929 0.0
C826 C 0.25088 0.63225 0.32049 0.0
C827 C 0.18548 0.5876 0.30202 0.0
C828 C 0.22094 0.63475 0.24577 0.0
C829 C 0.20559 0.67316 0.22942 0.0
C830 C 0.2032 0.68055 0.18512 0.0
C831 C 0.21424 0.64715 0.15708 0.0
C832 C 0.22749 0.60713 0.17365 0.0
C833 C 0.23397 0.60219 0.21815 0.0
H834 H 0.70088 0.98588 0.60493 0.0
H835 H 0.69043 0.91185 0.72254 0.0
H836 H 0.74506 0.86085 0.69513 0.0
H837 H 0.71941 0.89629 0.53222 0.0
H838 H 0.75606 0.92744 0.50007 0.0
H839 H 0.71307 0.95357 0.52853 0.0
H840 H 0.77 0.00275 0.56374 0.0
H841 H 0.81348 0.97437 0.53824 0.0
H842 H 0.81207 0.97909 0.59576 0.0
H843 H 0.80413 0.81951 0.65427 0.0
H844 H 0.85526 0.78878 0.60161 0.0
H845 H 0.83018 0.89554 0.51557 0.0
C846 C 0.70962 0.95861 0.62475 0.0
C847 C 0.69143 0.95278 0.66582 0.0
C848 C 0.70355 0.91658 0.69068 0.0
C849 C 0.73491 0.88778 0.67558 0.0
C850 C 0.75374 0.8958 0.63568 0.0
C851 C 0.741 0.93013 0.61051 0.0
C852 C 0.76646 0.93277 0.5694 0.0
C853 C 0.73702 0.92718 0.53024 0.0
C854 C 0.79198 0.97478 0.56666 0.0
C855 C 0.79589 0.89475 0.57524 0.0
C856 C 0.78818 0.87349 0.61345 0.0
C857 C 0.8105 0.83612 0.62438 0.0
C858 C 0.83992 0.81919 0.59456 0.0
C859 C 0.84675 0.83984 0.55453 0.0
C860 C 0.82563 0.87899 0.54587 0.0
H861 H 0.68041 0.35406 0.10721 0.0
H862 H 0.72509 0.25809 0.01764 0.0
H863 H 0.71162 0.20149 0.07128 0.0
H864 H 0.71755 0.29267 0.21024 0.0
H865 H 0.67056 0.31118 0.23844 0.0
H866 H 0.69559 0.34488 0.19845 0.0
H867 H 0.62297 0.35129 0.15848 0.0
H868 H 0.59794 0.31762 0.19788 0.0
H869 H 0.59571 0.3032 0.14201 0.0
H870 H 0.67612 0.1552 0.12478 0.0
H871 H 0.62184 0.12418 0.17322 0.0
H872 H 0.60307 0.24841 0.23172 0.0
C873 C 0.6892 0.32133 0.09983 0.0
C874 C 0.7035 0.31034 0.05837 0.0
C875 C 0.71372 0.26709 0.0492 0.0
C876 C 0.70659 0.23474 0.07963 0.0
C877 C 0.68999 0.24616 0.11948 0.0
C878 C 0.6822 0.28857 0.13002 0.0
C879 C 0.65833 0.29174 0.17225 0.0
C880 C 0.68723 0.31126 0.2069 0.0
C881 C 0.61627 0.31743 0.1673 0.0
C882 C 0.64995 0.24468 0.1813 0.0
C883 C 0.66983 0.21881 0.15136 0.0
C884 C 0.66151 0.17492 0.14927 0.0
C885 C 0.63059 0.15742 0.17698 0.0
C886 C 0.60796 0.18386 0.20596 0.0
C887 C 0.61982 0.22742 0.20974 0.0
H888 H 0.37025 0.08312 0.62039 0.0
H889 H 0.30256 0.07215 0.74108 0.0
H890 H 0.24537 0.11968 0.71363 0.0
H891 H 0.33242 0.20047 0.59603 0.0
H892 H 0.3297 0.18811 0.53969 0.0
H893 H 0.37012 0.16323 0.5729 0.0
H894 H 0.34388 0.08891 0.54773 0.0
H895 H 0.30238 0.11312 0.51587 0.0
H896 H 0.28865 0.07403 0.55634 0.0
H897 H 0.18702 0.14839 0.66621 0.0
H898 H 0.13861 0.16967 0.60743 0.0
H899 H 0.2477 0.17156 0.52015 0.0
C900 C 0.34489 0.09331 0.64184 0.0
C901 C 0.34097 0.07485 0.68296 0.0
C902 C 0.30641 0.08701 0.70981 0.0
C903 C 0.2736 0.11364 0.69432 0.0
C904 C 0.27655 0.1288 0.65233 0.0
C905 C 0.31224 0.12065 0.62704 0.0
C906 C 0.30558 0.13723 0.58179 0.0
C907 C 0.33627 0.17449 0.57204 0.0
C908 C 0.3104 0.10116 0.54852 0.0
C909 C 0.2596 0.15271 0.5848 0.0
C910 C 0.24334 0.14775 0.62566 0.0
C911 C 0.19987 0.15416 0.63444 0.0
C912 C 0.17249 0.16627 0.60064 0.0
C913 C 0.18865 0.17235 0.55846 0.0
C914 C 0.23324 0.16638 0.55127 0.0
H915 H 0.43456 0.65521 0.06068 0.0
H916 H 0.32216 0.71947 0.00997 0.0
H917 H 0.34075 0.78494 0.05027 0.0
H918 H 0.46384 0.66757 0.14315 0.0
H919 H 0.43097 0.7077 0.16867 0.0
H920 H 0.48859 0.71099 0.17181 0.0
H921 H 0.50664 0.68798 0.0735 0.0
H922 H 0.53238 0.72908 0.10425 0.0
H923 H 0.50512 0.74312 0.05538 0.0
H924 H 0.37704 0.84629 0.08804 0.0
H925 H 0.42739 0.89738 0.12196 0.0
H926 H 0.51371 0.79197 0.15109 0.0
C927 C 0.41335 0.68273 0.05929 0.0
C928 C 0.37665 0.68246 0.033 0.0
C929 C 0.35005 0.71921 0.03067 0.0
C930 C 0.36038 0.75644 0.05334 0.0
C931 C 0.39727 0.75622 0.07849 0.0
C932 C 0.42311 0.72015 0.08202 0.0
C933 C 0.46219 0.72917 0.10926 0.0
C934 C 0.46133 0.70226 0.15069 0.0
C935 C 0.50402 0.72183 0.08403 0.0
C936 C 0.45536 0.77627 0.11855 0.0
C937 C 0.41756 0.79132 0.101 0.0
C938 C 0.4064 0.83471 0.10256 0.0
C939 C 0.43509 0.86351 0.12182 0.0
C940 C 0.47457 0.84874 0.13868 0.0
C941 C 0.48397 0.80436 0.13801 0.0
H942 H 0.82891 0.18155 0.42494 0.0
H943 H 0.87028 0.09364 0.52481 0.0
H944 H 0.81706 0.04102 0.50072 0.0
H945 H 0.72274 0.16384 0.42911 0.0
H946 H 0.71067 0.16291 0.37259 0.0
H947 H 0.75651 0.19217 0.39155 0.0
H948 H 0.80731 0.14931 0.3419 0.0
H949 H 0.76138 0.12134 0.3211 0.0
H950 H 0.80593 0.09156 0.34303 0.0
H951 H 0.74802 0.00921 0.48121 0.0
H952 H 0.6844 0.98029 0.4452 0.0
H953 H 0.69332 0.08066 0.34842 0.0
C954 C 0.82849 0.15013 0.43984 0.0
C955 C 0.85358 0.14138 0.47665 0.0
C956 C 0.85156 0.10051 0.4963 0.0
C957 C 0.82095 0.07076 0.48334 0.0
C958 C 0.79387 0.0818 0.44965 0.0
C959 C 0.79886 0.11919 0.42629 0.0
C960 C 0.76506 0.12239 0.39122 0.0
C961 C 0.73711 0.16274 0.39647 0.0
C962 C 0.78618 0.12105 0.34666 0.0
C963 C 0.73934 0.08201 0.40014 0.0
C964 C 0.75609 0.06002 0.43484 0.0
C965 C 0.73575 0.02462 0.45261 0.0
C966 C 0.69939 0.0088 0.43212 0.0
C967 C 0.68485 0.02705 0.39293 0.0
C968 C 0.70389 0.0655 0.3779 0.0
H969 H 0.38072 0.2711 0.00585 0.0
H970 H 0.27443 0.31478 0.92685 0.0
H971 H 0.28842 0.25504 0.87675 0.0
H972 H 0.44938 0.23953 0.92791 0.0
H973 H 0.46895 0.19331 0.95684 0.0
H974 H 0.44789 0.23817 0.98573 0.0
H975 H 0.39401 0.18729 0.0241 0.0
H976 H 0.41439 0.14239 0.99404 0.0
H977 H 0.35799 0.1552 0.99259 0.0
H978 H 0.32189 0.19629 0.83094 0.0
H979 H 0.37414 0.14991 0.79324 0.0
H980 H 0.44793 0.13718 0.90976 0.0
C981 C 0.35912 0.26762 0.97897 0.0
C982 C 0.32598 0.29756 0.97096 0.0
C983 C 0.3003 0.29262 0.93378 0.0
C984 C 0.30748 0.25826 0.90553 0.0
C985 C 0.33952 0.22849 0.91564 0.0
C986 C 0.36458 0.23288 0.9518 0.0
C987 C 0.39864 0.19863 0.95484 0.0
C988 C 0.44383 0.21861 0.95637 0.0
C989 C 0.39076 0.16913 0.9937 0.0
C990 C 0.39073 0.1754 0.9133 0.0
C991 C 0.3562 0.19265 0.8911 0.0
C992 C 0.34793 0.18149 0.84858 0.0
C993 C 0.37738 0.15465 0.82749 0.0
C994 C 0.41425 0.1395 0.8492 0.0
C995 C 0.41896 0.14718 0.8933 0.0
H996 H 0.17072 0.85782 0.40024 0.0
H997 H 0.26169 0.78455 0.47596 0.0
H998 H 0.32052 0.80819 0.42865 0.0
H999 H 0.22922 0.84328 0.29266 0.0
H1000 H 0.21557 0.89714 0.27642 0.0
H1001 H 0.17941 0.86696 0.31013 0.0
H1002 H 0.18044 0.92807 0.36621 0.0
H1003 H 0.21641 0.95813 0.33273 0.0
H1004 H 0.23117 0.94585 0.38731 0.0
H1005 H 0.37079 0.85183 0.38413 0.0
H1006 H 0.40708 0.9105 0.34475 0.0
H1007 H 0.28432 0.95165 0.29366 0.0
C1008 C 0.20276 0.84544 0.4056 0.0
C1009 C 0.21175 0.81953 0.44168 0.0
C1010 C 0.25424 0.80466 0.44851 0.0
C1011 C 0.28784 0.81768 0.42166 0.0
C1012 C 0.27846 0.84499 0.3875 0.0
C1013 C 0.23681 0.85811 0.37886 0.0
C1014 C 0.23609 0.89132 0.34329 0.0
C1015 C 0.21375 0.87361 0.30324 0.0
C1016 C 0.2148 0.93329 0.35833 0.0
C1017 C 0.2838 0.89699 0.3356 0.0
C1018 C 0.30778 0.86942 0.36076 0.0
C1019 C 0.35244 0.87276 0.36328 0.0
C1020 C 0.3729 0.90612 0.34074 0.0
C1021 C 0.34859 0.93578 0.31638 0.0
C1022 C 0.3038 0.92953 0.31219 0.0
H1023 H 0.65895 0.68403 0.92968 0.0
H1024 H 0.5584 0.64661 0.01822 0.0
H1025 H 0.51254 0.70551 0.9907 0.0
H1026 H 0.65024 0.79264 0.9399 0.0
H1027 H 0.65785 0.80662 0.88428 0.0
H1028 H 0.68039 0.75761 0.90522 0.0
H1029 H 0.64037 0.71367 0.84755 0.0
H1030 H 0.61868 0.76266 0.82565 0.0
H1031 H 0.58322 0.71992 0.84162 0.0
H1032 H 0.48707 0.77897 0.96906 0.0
H1033 H 0.46598 0.84334 0.92775 0.0
H1034 H 0.58 0.83036 0.849 0.0
C1035 C 0.62651 0.68707 0.94181 0.0
C1036 C 0.61195 0.66078 0.97586 0.0
C1037 C 0.56979 0.66626 0.99183 0.0
C1038 C 0.54412 0.7003 0.97734 0.0
C1039 C 0.56128 0.72849 0.94714 0.0
C1040 C 0.60045 0.72099 0.92777 0.0
C1041 C 0.61079 0.75579 0.89521 0.0
C1042 C 0.6523 0.77953 0.90688 0.0
C1043 C 0.61338 0.73691 0.84981 0.0
C1044 C 0.57195 0.78467 0.90042 0.0
C1045 C 0.54445 0.76885 0.93144 0.0
C1046 C 0.50765 0.79099 0.94374 0.0
C1047 C 0.49646 0.82808 0.9208 0.0
C1048 C 0.52106 0.84156 0.88488 0.0
C1049 C 0.5607 0.82112 0.87642 0.0
loop_
_geom_bond_atom_site_label_1
_geom_bond_atom_site_label_2
_geom_bond_distance
_geom_bond_site_symmetry_2
_ccdc_geom_bond_type
C0 O1 1.201 . S
C0 C2 1.493 . S
C0 N17 1.318 . S
O1 C0 1.201 . S
C2 C0 1.493 . S
C2 C3 1.381 . S
C2 N7 1.335 1_655 S
C3 C2 1.381 . S
C3 C4 1.411 1_655 S
C3 H49 0.931 . S
C4 C3 1.411 1_455 S
C4 C5 1.384 . S
C4 H50 0.930 . S
C5 C4 1.384 . S
C5 C6 1.376 . S
C5 H51 0.929 . S
C6 C5 1.376 . S
C6 N7 1.330 . S
C6 C21 1.484 . S
N7 C2 1.335 1_455 S
N7 C6 1.330 . S
N7 Co9 1.859 . S
N8 Co9 1.962 . S
N8 C19 1.318 . S
N8 C43 1.421 . S
Co9 N7 1.859 . S
Co9 N8 1.962 . S
Co9 N10 1.859 . S
Co9 N16 1.958 . S
Co9 N17 1.962 1_455 S
Co9 N18 1.958 . S
N10 Co9 1.859 . S
N10 C14 1.330 . S
N10 C15 1.335 . S
C11 C12 1.411 . S
C11 C15 1.381 . S
C11 H52 0.931 . S
C12 C11 1.411 . S
C12 C13 1.384 . S
C12 H53 0.930 . S
C13 C12 1.384 . S
C13 C14 1.376 . S
C13 H54 0.929 . S
C14 N10 1.330 . S
C14 C13 1.376 . S
C14 C29 1.484 . S
C15 N10 1.335 . S
C15 C11 1.381 . S
C15 C19 1.493 . S
N16 Co9 1.958 . S
N16 C29 1.344 . S
N16 C31 1.425 . S
N17 C0 1.318 . S
N17 Co9 1.962 1_655 S
N17 C37 1.421 . S
N18 Co9 1.958 . S
N18 C21 1.344 . S
N18 C23 1.425 . S
C19 N8 1.318 . S
C19 C15 1.493 . S
C19 O20 1.201 . S
O20 C19 1.201 . S
C21 C6 1.484 . S
C21 N18 1.344 . S
C21 O22 1.268 . S
O22 C21 1.268 . S
C23 N18 1.425 . S
C23 C25 1.392 . S
C23 C26 1.368 . S
C24 C25 1.382 . S
C24 C28 1.386 . S
C25 C23 1.392 . S
C25 C24 1.382 . S
C25 H55 0.928 . S
C26 C23 1.368 . S
C26 C27 1.367 . S
C26 H56 0.930 . S
C27 C26 1.367 . S
C27 C28 1.369 . S
C28 C24 1.386 . S
C28 C27 1.369 . S
C28 H57 0.930 . S
C29 C14 1.484 . S
C29 N16 1.344 . S
C29 O30 1.268 . S
O30 C29 1.268 . S
C31 N16 1.425 . S
C31 C32 1.368 . S
C31 C36 1.392 1_455 S
C32 C31 1.368 . S
C32 C33 1.367 . S
C32 H58 0.930 . S
C33 C32 1.367 . S
C33 C34 1.369 . S
C34 C33 1.369 . S
C34 C35 1.386 1_455 S
C34 H59 0.930 . S
C35 C34 1.386 1_655 S
C35 C36 1.382 . S
C36 C31 1.392 1_655 S
C36 C35 1.382 . S
C36 H60 0.928 . S
C37 N17 1.421 . S
C37 C38 1.371 . S
C37 C42 1.385 . S
C38 C37 1.371 . S
C38 C39 1.367 . S
C38 H61 0.931 . S
C39 C38 1.367 . S
C39 C40 1.401 . S
C40 C39 1.401 . S
C40 C41 1.385 . S
C40 H62 0.930 . S
C41 C40 1.385 . S
C41 C42 1.402 . S
C42 C37 1.385 . S
C42 C41 1.402 . S
C42 H63 0.929 . S
C43 N8 1.421 . S
C43 C46 1.385 1_455 S
C43 C47 1.371 . S
C44 C45 1.385 1_455 S
C44 C48 1.401 . S
C44 H64 0.930 . S
C45 C44 1.385 1_655 S
C45 C46 1.402 . S
C46 C43 1.385 1_655 S
C46 C45 1.402 . S
C46 H65 0.929 . S
C47 C43 1.371 . S
C47 C48 1.367 . S
C47 H66 0.931 . S
C48 C44 1.401 . S
C48 C47 1.367 . S
H49 C3 0.931 . S
H50 C4 0.930 . S
H51 C5 0.929 . S
H52 C11 0.931 . S
H53 C12 0.930 . S
H54 C13 0.929 . S
H55 C25 0.928 . S
H56 C26 0.930 . S
H57 C28 0.930 . S
H58 C32 0.930 . S
H59 C34 0.930 . S
H60 C36 0.928 . S
H61 C38 0.931 . S
H62 C40 0.930 . S
H63 C42 0.929 . S
H64 C44 0.930 . S
H65 C46 0.929 . S
H66 C47 0.931 . S
C67 O68 1.201 . S
C67 C69 1.493 . S
C67 N84 1.318 . S
O68 C67 1.201 . S
C69 C67 1.493 . S
C69 C70 1.381 . S
C69 N74 1.335 1_556 S
C70 C69 1.381 . S
C70 C71 1.411 1_556 S
C70 H116 0.931 . S
C71 C70 1.411 1_554 S
C71 C72 1.384 . S
C71 H117 0.930 . S
C72 C71 1.384 . S
C72 C73 1.376 . S
C72 H118 0.929 . S
C73 C72 1.376 . S
C73 N74 1.330 . S
C73 C88 1.484 . S
N74 C69 1.335 1_554 S
N74 C73 1.330 . S
N74 Co76 1.859 . S
N75 Co76 1.962 . S
N75 C86 1.318 . S
N75 C110 1.421 . S
Co76 N74 1.859 . S
Co76 N75 1.962 . S
Co76 N77 1.859 . S
Co76 N83 1.958 . S
Co76 N84 1.962 1_554 S
Co76 N85 1.958 . S
N77 Co76 1.859 . S
N77 C81 1.330 . S
N77 C82 1.335 . S
C78 C79 1.411 . S
C78 C82 1.381 . S
C78 H119 0.931 . S
C79 C78 1.411 . S
C79 C80 1.384 . S
C79 H120 0.930 . S
C80 C79 1.384 . S
C80 C81 1.376 . S
C80 H121 0.929 . S
C81 N77 1.330 . S
C81 C80 1.376 . S
C81 C96 1.484 . S
C82 N77 1.335 . S
C82 C78 1.381 . S
C82 C86 1.493 . S
N83 Co76 1.958 . S
N83 C96 1.344 . S
N83 C98 1.425 . S
N84 C67 1.318 . S
N84 Co76 1.962 1_556 S
N84 C104 1.421 . S
N85 Co76 1.958 . S
N85 C88 1.344 . S
N85 C90 1.425 . S
C86 N75 1.318 . S
C86 C82 1.493 . S
C86 O87 1.201 . S
O87 C86 1.201 . S
C88 C73 1.484 . S
C88 N85 1.344 . S
C88 O89 1.268 . S
O89 C88 1.268 . S
C90 N85 1.425 . S
C90 C92 1.392 . S
C90 C93 1.368 . S
C91 C92 1.382 . S
C91 C95 1.386 . S
C92 C90 1.392 . S
C92 C91 1.382 . S
C92 H122 0.928 . S
C93 C90 1.368 . S
C93 C94 1.367 . S
C93 H123 0.930 . S
C94 C93 1.367 . S
C94 C95 1.369 . S
C95 C91 1.386 . S
C95 C94 1.369 . S
C95 H124 0.930 . S
C96 C81 1.484 . S
C96 N83 1.344 . S
C96 O97 1.268 . S
O97 C96 1.268 . S
C98 N83 1.425 . S
C98 C99 1.368 . S
C98 C103 1.392 1_554 S
C99 C98 1.368 . S
C99 C100 1.367 . S
C99 H125 0.930 . S
C100 C99 1.367 . S
C100 C101 1.369 1_554 S
C101 C100 1.369 1_556 S
C101 C102 1.386 . S
C101 H126 0.930 . S
C102 C101 1.386 . S
C102 C103 1.382 . S
C103 C98 1.392 1_556 S
C103 C102 1.382 . S
C103 H127 0.928 . S
C104 N84 1.421 . S
C104 C105 1.371 . S
C104 C109 1.385 . S
C105 C104 1.371 . S
C105 C106 1.367 . S
C105 H128 0.931 . S
C106 C105 1.367 . S
C106 C107 1.401 . S
C107 C106 1.401 . S
C107 C108 1.385 . S
C107 H129 0.930 . S
C108 C107 1.385 . S
C108 C109 1.402 . S
C109 C104 1.385 . S
C109 C108 1.402 . S
C109 H130 0.929 . S
C110 N75 1.421 . S
C110 C113 1.385 1_554 S
C110 C114 1.371 . S
C111 C112 1.385 1_554 S
C111 C115 1.401 . S
C111 H131 0.930 . S
C112 C111 1.385 1_556 S
C112 C113 1.402 . S
C113 C110 1.385 1_556 S
C113 C112 1.402 . S
C113 H132 0.929 . S
C114 C110 1.371 . S
C114 C115 1.367 . S
C114 H133 0.931 . S
C115 C111 1.401 . S
C115 C114 1.367 . S
H116 C70 0.931 . S
H117 C71 0.930 . S
H118 C72 0.929 . S
H119 C78 0.931 . S
H120 C79 0.930 . S
H121 C80 0.929 . S
H122 C92 0.928 . S
H123 C93 0.930 . S
H124 C95 0.930 . S
H125 C99 0.930 . S
H126 C101 0.930 . S
H127 C103 0.928 . S
H128 C105 0.931 . S
H129 C107 0.930 . S
H130 C109 0.929 . S
H131 C111 0.930 . S
H132 C113 0.929 . S
H133 C114 0.931 . S
C134 O135 1.201 . S
C134 C136 1.493 . S
C134 N151 1.318 . S
O135 C134 1.201 . S
C136 C134 1.493 . S
C136 C137 1.381 . S
C136 N141 1.335 . S
C137 C136 1.381 . S
C137 C138 1.411 1_455 S
C137 H183 0.931 . S
C138 C137 1.411 1_655 S
C138 C139 1.384 . S
C138 H184 0.930 . S
C139 C138 1.384 . S
C139 C140 1.376 . S
C139 H185 0.929 . S
C140 C139 1.376 . S
C140 N141 1.330 1_655 S
C140 C155 1.484 . S
N141 C136 1.335 . S
N141 C140 1.330 1_455 S
N141 Co143 1.859 . S
N142 Co143 1.962 . S
N142 C153 1.318 1_455 S
N142 C177 1.421 . S
Co143 N141 1.859 . S
Co143 N142 1.962 . S
Co143 N144 1.859 1_455 S
Co143 N150 1.958 . S
Co143 N151 1.962 . S
Co143 N152 1.958 1_455 S
N144 Co143 1.859 1_655 S
N144 C148 1.330 . S
N144 C149 1.335 . S
C145 C146 1.411 . S
C145 C149 1.381 . S
C145 H186 0.931 . S
C146 C145 1.411 . S
C146 C147 1.384 . S
C146 H187 0.930 . S
C147 C146 1.384 . S
C147 C148 1.376 . S
C147 H188 0.929 . S
C148 N144 1.330 . S
C148 C147 1.376 . S
C148 C163 1.483 1_655 S
C149 N144 1.335 . S
C149 C145 1.381 . S
C149 C153 1.493 . S
N150 Co143 1.958 . S
N150 C163 1.345 . S
N150 C165 1.425 . S
N151 C134 1.318 . S
N151 Co143 1.962 . S
N151 C171 1.421 . S
N152 Co143 1.958 1_655 S
N152 C155 1.344 . S
N152 C157 1.425 . S
C153 N142 1.318 1_655 S
C153 C149 1.493 . S
C153 O154 1.201 . S
O154 C153 1.201 . S
C155 C140 1.484 . S
C155 N152 1.344 . S
C155 O156 1.268 . S
O156 C155 1.268 . S
C157 N152 1.425 . S
C157 C159 1.392 . S
C157 C160 1.368 . S
C158 C159 1.382 . S
C158 C162 1.386 . S
C159 C157 1.392 . S
C159 C158 1.382 . S
C159 H189 0.928 . S
C160 C157 1.368 . S
C160 C161 1.367 . S
C160 H190 0.930 . S
C161 C160 1.367 . S
C161 C162 1.369 . S
C162 C158 1.386 . S
C162 C161 1.369 . S
C162 H191 0.930 . S
C163 C148 1.483 1_455 S
C163 N150 1.345 . S
C163 O164 1.268 1_455 S
O164 C163 1.268 1_655 S
C165 N150 1.425 . S
C165 C166 1.368 1_455 S
C165 C170 1.392 . S
C166 C165 1.368 1_655 S
C166 C167 1.367 . S
C166 H192 0.930 . S
C167 C166 1.367 . S
C167 C168 1.369 1_655 S
C168 C167 1.369 1_455 S
C168 C169 1.386 . S
C168 H193 0.930 . S
C169 C168 1.386 . S
C169 C170 1.382 . S
C170 C165 1.392 . S
C170 C169 1.382 . S
C170 H194 0.928 . S
C171 N151 1.421 . S
C171 C172 1.371 . S
C171 C176 1.385 . S
C172 C171 1.371 . S
C172 C173 1.367 . S
C172 H195 0.931 . S
C173 C172 1.367 . S
C173 C174 1.401 . S
C174 C173 1.401 . S
C174 C175 1.385 . S
C174 H196 0.930 . S
C175 C174 1.385 . S
C175 C176 1.402 . S
C176 C171 1.385 . S
C176 C175 1.402 . S
C176 H197 0.929 . S
C177 N142 1.421 . S
C177 C180 1.385 . S
C177 C181 1.371 1_455 S
C178 C179 1.385 . S
C178 C182 1.401 1_455 S
C178 H198 0.930 . S
C179 C178 1.385 . S
C179 C180 1.402 . S
C180 C177 1.385 . S
C180 C179 1.402 . S
C180 H199 0.929 . S
C181 C177 1.371 1_655 S
C181 C182 1.367 . S
C181 H200 0.931 . S
C182 C178 1.401 1_655 S
C182 C181 1.367 . S
H183 C137 0.931 . S
H184 C138 0.930 . S
H185 C139 0.929 . S
H186 C145 0.931 . S
H187 C146 0.930 . S
H188 C147 0.929 . S
H189 C159 0.928 . S
H190 C160 0.930 . S
H191 C162 0.930 . S
H192 C166 0.930 . S
H193 C168 0.930 . S
H194 C170 0.928 . S
H195 C172 0.931 . S
H196 C174 0.930 . S
H197 C176 0.929 . S
H198 C178 0.930 . S
H199 C180 0.929 . S
H200 C181 0.931 . S
C201 O202 1.201 . S
C201 C203 1.493 . S
C201 N218 1.318 . S
O202 C201 1.201 . S
C203 C201 1.493 . S
C203 C204 1.381 . S
C203 N208 1.335 1_556 S
C204 C203 1.381 . S
C204 C205 1.411 1_556 S
C204 H250 0.931 . S
C205 C204 1.411 1_554 S
C205 C206 1.384 . S
C205 H251 0.930 . S
C206 C205 1.384 . S
C206 C207 1.376 . S
C206 H252 0.929 . S
C207 C206 1.376 . S
C207 N208 1.330 . S
C207 C222 1.484 . S
N208 C203 1.335 1_554 S
N208 C207 1.330 . S
N208 Co210 1.859 . S
N209 Co210 1.962 . S
N209 C220 1.318 . S
N209 C244 1.421 . S
Co210 N208 1.859 . S
Co210 N209 1.962 . S
Co210 N211 1.859 . S
Co210 N217 1.958 . S
Co210 N218 1.962 1_554 S
Co210 N219 1.958 . S
N211 Co210 1.859 . S
N211 C215 1.330 . S
N211 C216 1.335 . S
C212 C213 1.411 . S
C212 C216 1.381 . S
C212 H253 0.931 . S
C213 C212 1.411 . S
C213 C214 1.384 . S
C213 H254 0.930 . S
C214 C213 1.384 . S
C214 C215 1.376 . S
C214 H255 0.929 . S
C215 N211 1.330 . S
C215 C214 1.376 . S
C215 C230 1.484 . S
C216 N211 1.335 . S
C216 C212 1.381 . S
C216 C220 1.493 . S
N217 Co210 1.958 . S
N217 C230 1.344 . S
N217 C232 1.425 . S
N218 C201 1.318 . S
N218 Co210 1.962 1_556 S
N218 C238 1.421 . S
N219 Co210 1.958 . S
N219 C222 1.344 . S
N219 C224 1.425 . S
C220 N209 1.318 . S
C220 C216 1.493 . S
C220 O221 1.201 . S
O221 C220 1.201 . S
C222 C207 1.484 . S
C222 N219 1.344 . S
C222 O223 1.268 . S
O223 C222 1.268 . S
C224 N219 1.425 . S
C224 C226 1.392 . S
C224 C227 1.368 . S
C225 C226 1.382 . S
C225 C229 1.386 . S
C226 C224 1.392 . S
C226 C225 1.382 . S
C226 H256 0.928 . S
C227 C224 1.368 . S
C227 C228 1.367 . S
C227 H257 0.930 . S
C228 C227 1.367 . S
C228 C229 1.369 . S
C229 C225 1.386 . S
C229 C228 1.369 . S
C229 H258 0.930 . S
C230 C215 1.484 . S
C230 N217 1.344 . S
C230 O231 1.268 . S
O231 C230 1.268 . S
C232 N217 1.425 . S
C232 C233 1.368 . S
C232 C237 1.392 1_554 S
C233 C232 1.368 . S
C233 C234 1.367 . S
C233 H259 0.930 . S
C234 C233 1.367 . S
C234 C235 1.369 1_554 S
C235 C234 1.369 1_556 S
C235 C236 1.386 . S
C235 H260 0.930 . S
C236 C235 1.386 . S
C236 C237 1.382 . S
C237 C232 1.392 1_556 S
C237 C236 1.382 . S
C237 H261 0.928 . S
C238 N218 1.421 . S
C238 C239 1.371 . S
C238 C243 1.385 . S
C239 C238 1.371 . S
C239 C240 1.367 . S
C239 H262 0.931 . S
C240 C239 1.367 . S
C240 C241 1.401 . S
C241 C240 1.401 . S
C241 C242 1.385 . S
C241 H263 0.930 . S
C242 C241 1.385 . S
C242 C243 1.402 . S
C243 C238 1.385 . S
C243 C242 1.402 . S
C243 H264 0.929 . S
C244 N209 1.421 . S
C244 C247 1.385 1_554 S
C244 C248 1.371 . S
C245 C246 1.385 1_554 S
C245 C249 1.401 . S
C245 H265 0.930 . S
C246 C245 1.385 1_556 S
C246 C247 1.402 . S
C247 C244 1.385 1_556 S
C247 C246 1.402 . S
C247 H266 0.929 . S
C248 C244 1.371 . S
C248 C249 1.367 . S
C248 H267 0.931 . S
C249 C245 1.401 . S
C249 C248 1.367 . S
H250 C204 0.931 . S
H251 C205 0.930 . S
H252 C206 0.929 . S
H253 C212 0.931 . S
H254 C213 0.930 . S
H255 C214 0.929 . S
H256 C226 0.928 . S
H257 C227 0.930 . S
H258 C229 0.930 . S
H259 C233 0.930 . S
H260 C235 0.930 . S
H261 C237 0.928 . S
H262 C239 0.931 . S
H263 C241 0.930 . S
H264 C243 0.929 . S
H265 C245 0.930 . S
H266 C247 0.929 . S
H267 C248 0.931 . S
C268 O269 1.201 . S
C268 C270 1.493 . S
C268 N285 1.318 . S
O269 C268 1.201 . S
C270 C268 1.493 . S
C270 C271 1.381 . S
C270 N275 1.335 1_545 S
C271 C270 1.381 . S
C271 C272 1.411 1_545 S
C271 H317 0.931 . S
C272 C271 1.411 1_565 S
C272 C273 1.384 . S
C272 H318 0.930 . S
C273 C272 1.384 . S
C273 C274 1.376 . S
C273 H319 0.929 . S
C274 C273 1.376 . S
C274 N275 1.330 . S
C274 C289 1.484 . S
N275 C270 1.335 1_565 S
N275 C274 1.330 . S
N275 Co277 1.859 . S
N276 Co277 1.962 . S
N276 C287 1.318 . S
N276 C311 1.421 . S
Co277 N275 1.859 . S
Co277 N276 1.962 . S
Co277 N278 1.859 . S
Co277 N284 1.958 . S
Co277 N285 1.962 1_565 S
Co277 N286 1.958 . S
N278 Co277 1.859 . S
N278 C282 1.330 . S
N278 C283 1.335 . S
C279 C280 1.411 . S
C279 C283 1.381 . S
C279 H320 0.931 . S
C280 C279 1.411 . S
C280 C281 1.384 . S
C280 H321 0.930 . S
C281 C280 1.384 . S
C281 C282 1.376 . S
C281 H322 0.929 . S
C282 N278 1.330 . S
C282 C281 1.376 . S
C282 C297 1.484 . S
C283 N278 1.335 . S
C283 C279 1.381 . S
C283 C287 1.493 . S
N284 Co277 1.958 . S
N284 C297 1.344 . S
N284 C299 1.426 . S
N285 C268 1.318 . S
N285 Co277 1.962 1_545 S
N285 C305 1.421 . S
N286 Co277 1.958 . S
N286 C289 1.344 . S
N286 C291 1.425 . S
C287 N276 1.318 . S
C287 C283 1.493 . S
C287 O288 1.201 . S
O288 C287 1.201 . S
C289 C274 1.484 . S
C289 N286 1.344 . S
C289 O290 1.268 . S
O290 C289 1.268 . S
C291 N286 1.425 . S
C291 C293 1.392 . S
C291 C294 1.368 . S
C292 C293 1.382 . S
C292 C296 1.386 . S
C293 C291 1.392 . S
C293 C292 1.382 . S
C293 H323 0.928 . S
C294 C291 1.368 . S
C294 C295 1.367 . S
C294 H324 0.930 . S
C295 C294 1.367 . S
C295 C296 1.369 . S
C296 C292 1.386 . S
C296 C295 1.369 . S
C296 H325 0.930 . S
C297 C282 1.484 . S
C297 N284 1.344 . S
C297 O298 1.268 . S
O298 C297 1.268 . S
C299 N284 1.426 . S
C299 C300 1.380 . S
C299 C304 1.378 1_565 S
C300 C299 1.380 . S
C300 C301 1.367 . S
C300 H326 0.930 . S
C301 C300 1.367 . S
C301 C302 1.369 1_565 S
C302 C301 1.369 1_545 S
C302 C303 1.386 . S
C302 H327 0.930 . S
C303 C302 1.386 . S
C303 C304 1.382 . S
C304 C299 1.378 1_545 S
C304 C303 1.382 . S
C304 H328 0.928 . S
C305 N285 1.421 . S
C305 C306 1.371 . S
C305 C310 1.385 . S
C306 C305 1.371 . S
C306 C307 1.367 . S
C306 H329 0.931 . S
C307 C306 1.367 . S
C307 C308 1.401 . S
C308 C307 1.401 . S
C308 C309 1.385 . S
C308 H330 0.930 . S
C309 C308 1.385 . S
C309 C310 1.402 . S
C310 C305 1.385 . S
C310 C309 1.402 . S
C310 H331 0.929 . S
C311 N276 1.421 . S
C311 C314 1.385 1_565 S
C311 C315 1.371 . S
C312 C313 1.385 1_565 S
C312 C316 1.401 . S
C312 H332 0.930 . S
C313 C312 1.385 1_545 S
C313 C314 1.402 . S
C314 C311 1.385 1_545 S
C314 C313 1.402 . S
C314 H333 0.929 . S
C315 C311 1.371 . S
C315 C316 1.367 . S
C315 H334 0.931 . S
C316 C312 1.401 . S
C316 C315 1.367 . S
H317 C271 0.931 . S
H318 C272 0.930 . S
H319 C273 0.929 . S
H320 C279 0.931 . S
H321 C280 0.930 . S
H322 C281 0.929 . S
H323 C293 0.928 . S
H324 C294 0.930 . S
H325 C296 0.930 . S
H326 C300 0.930 . S
H327 C302 0.930 . S
H328 C304 0.928 . S
H329 C306 0.931 . S
H330 C308 0.930 . S
H331 C310 0.929 . S
H332 C312 0.930 . S
H333 C314 0.929 . S
H334 C315 0.931 . S
C335 O336 1.201 . S
C335 C337 1.493 . S
C335 N352 1.318 . S
O336 C335 1.201 . S
C337 C335 1.493 . S
C337 C338 1.381 . S
C337 N342 1.335 1_565 S
C338 C337 1.381 . S
C338 C339 1.411 1_565 S
C338 H384 0.931 . S
C339 C338 1.411 1_545 S
C339 C340 1.384 . S
C339 H385 0.930 . S
C340 C339 1.384 . S
C340 C341 1.376 . S
C340 H386 0.929 . S
C341 C340 1.376 . S
C341 N342 1.330 . S
C341 C356 1.484 . S
N342 C337 1.335 1_545 S
N342 C341 1.330 . S
N342 Co344 1.859 . S
N343 Co344 1.962 . S
N343 C354 1.318 . S
N343 C378 1.421 . S
Co344 N342 1.859 . S
Co344 N343 1.962 . S
Co344 N345 1.859 . S
Co344 N351 1.958 . S
Co344 N352 1.962 1_545 S
Co344 N353 1.958 . S
N345 Co344 1.859 . S
N345 C349 1.330 . S
N345 C350 1.335 . S
C346 C347 1.411 . S
C346 C350 1.381 . S
C346 H387 0.931 . S
C347 C346 1.411 . S
C347 C348 1.384 . S
C347 H388 0.930 . S
C348 C347 1.384 . S
C348 C349 1.376 . S
C348 H389 0.929 . S
C349 N345 1.330 . S
C349 C348 1.376 . S
C349 C364 1.484 . S
C350 N345 1.335 . S
C350 C346 1.381 . S
C350 C354 1.493 . S
N351 Co344 1.958 . S
N351 C364 1.344 . S
N351 C366 1.425 . S
N352 C335 1.318 . S
N352 Co344 1.962 1_565 S
N352 C372 1.421 . S
N353 Co344 1.958 . S
N353 C356 1.344 . S
N353 C358 1.425 . S
C354 N343 1.318 . S
C354 C350 1.493 . S
C354 O355 1.201 . S
O355 C354 1.201 . S
C356 C341 1.484 . S
C356 N353 1.344 . S
C356 O357 1.268 . S
O357 C356 1.268 . S
C358 N353 1.425 . S
C358 C360 1.392 . S
C358 C361 1.368 . S
C359 C360 1.382 . S
C359 C363 1.386 . S
C360 C358 1.392 . S
C360 C359 1.382 . S
C360 H390 0.928 . S
C361 C358 1.368 . S
C361 C362 1.367 . S
C361 H391 0.930 . S
C362 C361 1.367 . S
C362 C363 1.369 . S
C363 C359 1.386 . S
C363 C362 1.369 . S
C363 H392 0.930 . S
C364 C349 1.484 . S
C364 N351 1.344 . S
C364 O365 1.268 . S
O365 C364 1.268 . S
C366 N351 1.425 . S
C366 C367 1.368 . S
C366 C371 1.392 1_545 S
C367 C366 1.368 . S
C367 C368 1.367 . S
C367 H393 0.930 . S
C368 C367 1.367 . S
C368 C369 1.355 1_545 S
C369 C368 1.355 1_565 S
C369 C370 1.399 . S
C369 H394 0.932 . S
C370 C369 1.399 . S
C370 C371 1.382 . S
C371 C366 1.392 1_565 S
C371 C370 1.382 . S
C371 H395 0.928 . S
C372 N352 1.421 . S
C372 C373 1.371 . S
C372 C377 1.385 . S
C373 C372 1.371 . S
C373 C374 1.367 . S
C373 H396 0.931 . S
C374 C373 1.367 . S
C374 C375 1.401 . S
C375 C374 1.401 . S
C375 C376 1.385 . S
C375 H397 0.930 . S
C376 C375 1.385 . S
C376 C377 1.402 . S
C377 C372 1.385 . S
C377 C376 1.402 . S
C377 H398 0.929 . S
C378 N343 1.421 . S
C378 C381 1.385 1_545 S
C378 C382 1.371 . S
C379 C380 1.385 1_545 S
C379 C383 1.401 . S
C379 H399 0.930 . S
C380 C379 1.385 1_565 S
C380 C381 1.402 . S
C381 C378 1.385 1_565 S
C381 C380 1.402 . S
C381 H400 0.929 . S
C382 C378 1.371 . S
C382 C383 1.367 . S
C382 H401 0.931 . S
C383 C379 1.401 . S
C383 C382 1.367 . S
H384 C338 0.931 . S
H385 C339 0.930 . S
H386 C340 0.929 . S
H387 C346 0.931 . S
H388 C347 0.930 . S
H389 C348 0.929 . S
H390 C360 0.928 . S
H391 C361 0.930 . S
H392 C363 0.930 . S
H393 C367 0.930 . S
H394 C369 0.932 . S
H395 C371 0.928 . S
H396 C373 0.931 . S
H397 C375 0.930 . S
H398 C377 0.929 . S
H399 C379 0.930 . S
H400 C381 0.929 . S
H401 C382 0.931 . S
H402 C414 0.930 . S
H403 C416 0.930 . S
H404 C417 0.930 . S
H405 C421 0.959 . S
H406 C421 0.959 . S
H407 C421 0.961 . S
H408 C422 0.960 . S
H409 C422 0.961 . S
H410 C422 0.959 . S
H411 C425 0.929 . S
H412 C426 0.931 . S
H413 C428 0.930 . S
C414 H402 0.930 . S
C414 C415 1.399 . S
C414 C419 1.399 . S
C415 C414 1.399 . S
C415 C416 1.376 . S
C416 H403 0.930 . S
C416 C415 1.376 . S
C416 C417 1.388 . S
C417 H404 0.930 . S
C417 C416 1.388 . S
C417 C418 1.390 . S
C418 C417 1.390 . S
C418 C419 1.394 . S
C418 C424 1.465 . S
C419 C414 1.399 . S
C419 C418 1.394 . S
C419 C420 1.516 . S
C420 C419 1.516 . S
C420 C421 1.502 . S
C420 C422 1.561 . S
C420 C423 1.526 . S
C421 H405 0.959 . S
C421 H406 0.959 . S
C421 H407 0.961 . S
C421 C420 1.502 . S
C422 H408 0.960 . S
C422 H409 0.961 . S
C422 H410 0.959 . S
C422 C420 1.561 . S
C423 C420 1.526 . S
C423 C424 1.396 . S
C423 C428 1.390 . S
C424 C418 1.465 . S
C424 C423 1.396 . S
C424 C425 1.399 . S
C425 H411 0.929 . S
C425 C424 1.399 . S
C425 C426 1.385 . S
C426 H412 0.931 . S
C426 C425 1.385 . S
C426 C427 1.389 . S
C427 C426 1.389 . S
C427 C428 1.387 . S
C428 H413 0.930 . S
C428 C423 1.390 . S
C428 C427 1.387 . S
H429 C441 0.930 . S
H430 C443 0.930 . S
H431 C444 0.930 . S
H432 C448 0.959 . S
H433 C448 0.959 . S
H434 C448 0.961 . S
H435 C449 0.960 . S
H436 C449 0.961 . S
H437 C449 0.959 . S
H438 C452 0.929 . S
H439 C453 0.931 . S
H440 C455 0.930 . S
C441 H429 0.930 . S
C441 C442 1.399 . S
C441 C446 1.399 . S
C442 C441 1.399 . S
C442 C443 1.376 . S
C443 H430 0.930 . S
C443 C442 1.376 . S
C443 C444 1.388 . S
C444 H431 0.930 . S
C444 C443 1.388 . S
C444 C445 1.390 . S
C445 C444 1.390 . S
C445 C446 1.394 . S
C445 C451 1.465 . S
C446 C441 1.399 . S
C446 C445 1.394 . S
C446 C447 1.516 . S
C447 C446 1.516 . S
C447 C448 1.502 . S
C447 C449 1.561 . S
C447 C450 1.526 . S
C448 H432 0.959 . S
C448 H433 0.959 . S
C448 H434 0.961 . S
C448 C447 1.502 . S
C449 H435 0.960 . S
C449 H436 0.961 . S
C449 H437 0.959 . S
C449 C447 1.561 . S
C450 C447 1.526 . S
C450 C451 1.396 . S
C450 C455 1.390 . S
C451 C445 1.465 . S
C451 C450 1.396 . S
C451 C452 1.399 . S
C452 H438 0.929 . S
C452 C451 1.399 . S
C452 C453 1.385 . S
C453 H439 0.931 . S
C453 C452 1.385 . S
C453 C454 1.389 . S
C454 C453 1.389 . S
C454 C455 1.387 . S
C455 H440 0.930 . S
C455 C450 1.390 . S
C455 C454 1.387 . S
H456 C468 0.930 . S
H457 C470 0.930 . S
H458 C471 0.930 . S
H459 C475 0.959 . S
H460 C475 0.959 . S
H461 C475 0.961 . S
H462 C476 0.960 . S
H463 C476 0.961 . S
H464 C476 0.959 . S
H465 C479 0.929 . S
H466 C480 0.931 . S
H467 C482 0.930 . S
C468 H456 0.930 . S
C468 C469 1.399 . S
C468 C473 1.399 . S
C469 C468 1.399 . S
C469 C470 1.376 . S
C470 H457 0.930 . S
C470 C469 1.376 . S
C470 C471 1.388 . S
C471 H458 0.930 . S
C471 C470 1.388 . S
C471 C472 1.390 . S
C472 C471 1.390 . S
C472 C473 1.394 . S
C472 C478 1.465 . S
C473 C468 1.399 . S
C473 C472 1.394 . S
C473 C474 1.516 . S
C474 C473 1.516 . S
C474 C475 1.502 . S
C474 C476 1.561 . S
C474 C477 1.526 . S
C475 H459 0.959 . S
C475 H460 0.959 . S
C475 H461 0.961 . S
C475 C474 1.502 . S
C476 H462 0.960 . S
C476 H463 0.961 . S
C476 H464 0.959 . S
C476 C474 1.561 . S
C477 C474 1.526 . S
C477 C478 1.396 . S
C477 C482 1.390 . S
C478 C472 1.465 . S
C478 C477 1.396 . S
C478 C479 1.399 . S
C479 H465 0.929 . S
C479 C478 1.399 . S
C479 C480 1.385 . S
C480 H466 0.931 . S
C480 C479 1.385 . S
C480 C481 1.389 . S
C481 C480 1.389 . S
C481 C482 1.387 . S
C482 H467 0.930 . S
C482 C477 1.390 . S
C482 C481 1.387 . S
H483 C495 0.930 . S
H484 C497 0.930 . S
H485 C498 0.930 . S
H486 C502 0.959 . S
H487 C502 0.959 . S
H488 C502 0.961 . S
H489 C503 0.960 . S
H490 C503 0.961 . S
H491 C503 0.959 . S
H492 C506 0.929 . S
H493 C507 0.931 . S
H494 C509 0.930 . S
C495 H483 0.930 . S
C495 C496 1.399 . S
C495 C500 1.399 . S
C496 C495 1.399 . S
C496 C497 1.376 . S
C497 H484 0.930 . S
C497 C496 1.376 . S
C497 C498 1.388 . S
C498 H485 0.930 . S
C498 C497 1.388 . S
C498 C499 1.390 . S
C499 C498 1.390 . S
C499 C500 1.394 . S
C499 C505 1.465 . S
C500 C495 1.399 . S
C500 C499 1.394 . S
C500 C501 1.516 . S
C501 C500 1.516 . S
C501 C502 1.502 . S
C501 C503 1.561 . S
C501 C504 1.526 . S
C502 H486 0.959 . S
C502 H487 0.959 . S
C502 H488 0.961 . S
C502 C501 1.502 . S
C503 H489 0.960 . S
C503 H490 0.961 . S
C503 H491 0.959 . S
C503 C501 1.561 . S
C504 C501 1.526 . S
C504 C505 1.396 . S
C504 C509 1.390 . S
C505 C499 1.465 . S
C505 C504 1.396 . S
C505 C506 1.399 . S
C506 H492 0.929 . S
C506 C505 1.399 . S
C506 C507 1.385 . S
C507 H493 0.931 . S
C507 C506 1.385 . S
C507 C508 1.389 . S
C508 C507 1.389 . S
C508 C509 1.387 . S
C509 H494 0.930 . S
C509 C504 1.390 . S
C509 C508 1.387 . S
H510 C522 0.930 . S
H511 C524 0.930 . S
H512 C525 0.930 . S
H513 C529 0.959 . S
H514 C529 0.959 . S
H515 C529 0.961 . S
H516 C530 0.960 . S
H517 C530 0.961 . S
H518 C530 0.959 . S
H519 C533 0.929 . S
H520 C534 0.931 . S
H521 C536 0.930 . S
C522 H510 0.930 . S
C522 C523 1.399 . S
C522 C527 1.399 . S
C523 C522 1.399 . S
C523 C524 1.376 . S
C524 H511 0.930 . S
C524 C523 1.376 . S
C524 C525 1.388 . S
C525 H512 0.930 . S
C525 C524 1.388 . S
C525 C526 1.390 . S
C526 C525 1.390 . S
C526 C527 1.394 . S
C526 C532 1.465 . S
C527 C522 1.399 . S
C527 C526 1.394 . S
C527 C528 1.516 . S
C528 C527 1.516 . S
C528 C529 1.502 . S
C528 C530 1.561 . S
C528 C531 1.526 . S
C529 H513 0.959 . S
C529 H514 0.959 . S
C529 H515 0.961 . S
C529 C528 1.502 . S
C530 H516 0.960 . S
C530 H517 0.961 . S
C530 H518 0.959 . S
C530 C528 1.561 . S
C531 C528 1.526 . S
C531 C532 1.396 . S
C531 C536 1.390 . S
C532 C526 1.465 . S
C532 C531 1.396 . S
C532 C533 1.399 . S
C533 H519 0.929 . S
C533 C532 1.399 . S
C533 C534 1.385 . S
C534 H520 0.931 . S
C534 C533 1.385 . S
C534 C535 1.389 . S
C535 C534 1.389 . S
C535 C536 1.387 . S
C536 H521 0.930 . S
C536 C531 1.390 . S
C536 C535 1.387 . S
H537 C549 0.930 . S
H538 C551 0.930 . S
H539 C552 0.930 . S
H540 C556 0.959 . S
H541 C556 0.959 . S
H542 C556 0.961 . S
H543 C557 0.960 . S
H544 C557 0.961 . S
H545 C557 0.959 . S
H546 C560 0.929 . S
H547 C561 0.931 . S
H548 C563 0.930 . S
C549 H537 0.930 . S
C549 C550 1.399 . S
C549 C554 1.399 . S
C550 C549 1.399 . S
C550 C551 1.376 . S
C551 H538 0.930 . S
C551 C550 1.376 . S
C551 C552 1.388 . S
C552 H539 0.930 . S
C552 C551 1.388 . S
C552 C553 1.390 . S
C553 C552 1.390 . S
C553 C554 1.394 . S
C553 C559 1.465 . S
C554 C549 1.399 . S
C554 C553 1.394 . S
C554 C555 1.516 . S
C555 C554 1.516 . S
C555 C556 1.502 . S
C555 C557 1.561 . S
C555 C558 1.526 . S
C556 H540 0.959 . S
C556 H541 0.959 . S
C556 H542 0.961 . S
C556 C555 1.502 . S
C557 H543 0.960 . S
C557 H544 0.961 . S
C557 H545 0.959 . S
C557 C555 1.561 . S
C558 C555 1.526 . S
C558 C559 1.396 . S
C558 C563 1.390 . S
C559 C553 1.465 . S
C559 C558 1.396 . S
C559 C560 1.399 . S
C560 H546 0.929 . S
C560 C559 1.399 . S
C560 C561 1.385 . S
C561 H547 0.931 . S
C561 C560 1.385 . S
C561 C562 1.389 . S
C562 C561 1.389 . S
C562 C563 1.387 . S
C563 H548 0.930 . S
C563 C558 1.390 . S
C563 C562 1.387 . S
H564 C576 0.930 . S
H565 C578 0.930 . S
H566 C579 0.930 . S
H567 C583 0.959 . S
H568 C583 0.959 . S
H569 C583 0.961 . S
H570 C584 0.960 . S
H571 C584 0.961 . S
H572 C584 0.959 . S
H573 C587 0.929 . S
H574 C588 0.931 . S
H575 C590 0.930 . S
C576 H564 0.930 . S
C576 C577 1.399 . S
C576 C581 1.399 . S
C577 C576 1.399 . S
C577 C578 1.376 . S
C578 H565 0.930 . S
C578 C577 1.376 . S
C578 C579 1.388 . S
C579 H566 0.930 . S
C579 C578 1.388 . S
C579 C580 1.390 . S
C580 C579 1.390 . S
C580 C581 1.394 . S
C580 C586 1.465 . S
C581 C576 1.399 . S
C581 C580 1.394 . S
C581 C582 1.516 . S
C582 C581 1.516 . S
C582 C583 1.502 . S
C582 C584 1.561 . S
C582 C585 1.526 . S
C583 H567 0.959 . S
C583 H568 0.959 . S
C583 H569 0.961 . S
C583 C582 1.502 . S
C584 H570 0.960 . S
C584 H571 0.961 . S
C584 H572 0.959 . S
C584 C582 1.561 . S
C585 C582 1.526 . S
C585 C586 1.396 . S
C585 C590 1.390 . S
C586 C580 1.465 . S
C586 C585 1.396 . S
C586 C587 1.399 . S
C587 H573 0.929 . S
C587 C586 1.399 . S
C587 C588 1.385 . S
C588 H574 0.931 . S
C588 C587 1.385 . S
C588 C589 1.389 . S
C589 C588 1.389 . S
C589 C590 1.387 . S
C590 H575 0.930 . S
C590 C585 1.390 . S
C590 C589 1.387 . S
H591 C603 0.930 . S
H592 C605 0.930 . S
H593 C606 0.930 . S
H594 C610 0.959 . S
H595 C610 0.959 . S
H596 C610 0.961 . S
H597 C611 0.960 . S
H598 C611 0.961 . S
H599 C611 0.959 . S
H600 C614 0.929 . S
H601 C615 0.931 . S
H602 C617 0.930 . S
C603 H591 0.930 . S
C603 C604 1.399 . S
C603 C608 1.399 . S
C604 C603 1.399 . S
C604 C605 1.376 . S
C605 H592 0.930 . S
C605 C604 1.376 . S
C605 C606 1.388 . S
C606 H593 0.930 . S
C606 C605 1.388 . S
C606 C607 1.390 . S
C607 C606 1.390 . S
C607 C608 1.394 . S
C607 C613 1.465 . S
C608 C603 1.399 . S
C608 C607 1.394 . S
C608 C609 1.516 . S
C609 C608 1.516 . S
C609 C610 1.502 . S
C609 C611 1.561 . S
C609 C612 1.526 . S
C610 H594 0.959 . S
C610 H595 0.959 . S
C610 H596 0.961 . S
C610 C609 1.502 . S
C611 H597 0.960 . S
C611 H598 0.961 . S
C611 H599 0.959 . S
C611 C609 1.561 . S
C612 C609 1.526 . S
C612 C613 1.396 . S
C612 C617 1.390 . S
C613 C607 1.465 . S
C613 C612 1.396 . S
C613 C614 1.399 . S
C614 H600 0.929 . S
C614 C613 1.399 . S
C614 C615 1.385 . S
C615 H601 0.931 . S
C615 C614 1.385 . S
C615 C616 1.389 . S
C616 C615 1.389 . S
C616 C617 1.387 . S
C617 H602 0.930 . S
C617 C612 1.390 . S
C617 C616 1.387 . S
H618 C630 0.930 . S
H619 C632 0.930 . S
H620 C633 0.930 . S
H621 C637 0.959 . S
H622 C637 0.959 . S
H623 C637 0.961 . S
H624 C638 0.960 . S
H625 C638 0.961 . S
H626 C638 0.959 . S
H627 C641 0.929 . S
H628 C642 0.931 . S
H629 C644 0.930 . S
C630 H618 0.930 . S
C630 C631 1.399 . S
C630 C635 1.399 . S
C631 C630 1.399 . S
C631 C632 1.376 . S
C632 H619 0.930 . S
C632 C631 1.376 . S
C632 C633 1.388 . S
C633 H620 0.930 . S
C633 C632 1.388 . S
C633 C634 1.390 . S
C634 C633 1.390 . S
C634 C635 1.394 . S
C634 C640 1.465 . S
C635 C630 1.399 . S
C635 C634 1.394 . S
C635 C636 1.516 . S
C636 C635 1.516 . S
C636 C637 1.502 . S
C636 C638 1.561 . S
C636 C639 1.526 . S
C637 H621 0.959 . S
C637 H622 0.959 . S
C637 H623 0.961 . S
C637 C636 1.502 . S
C638 H624 0.960 . S
C638 H625 0.961 . S
C638 H626 0.959 . S
C638 C636 1.561 . S
C639 C636 1.526 . S
C639 C640 1.396 . S
C639 C644 1.390 . S
C640 C634 1.465 . S
C640 C639 1.396 . S
C640 C641 1.399 . S
C641 H627 0.929 . S
C641 C640 1.399 . S
C641 C642 1.385 . S
C642 H628 0.931 . S
C642 C641 1.385 . S
C642 C643 1.389 . S
C643 C642 1.389 . S
C643 C644 1.387 . S
C644 H629 0.930 . S
C644 C639 1.390 . S
C644 C643 1.387 . S
H645 C657 0.930 . S
H646 C659 0.930 . S
H647 C660 0.930 . S
H648 C664 0.959 . S
H649 C664 0.959 . S
H650 C664 0.961 . S
H651 C665 0.960 . S
H652 C665 0.961 . S
H653 C665 0.959 . S
H654 C668 0.929 . S
H655 C669 0.931 . S
H656 C671 0.930 . S
C657 H645 0.930 . S
C657 C658 1.399 . S
C657 C662 1.399 . S
C658 C657 1.399 . S
C658 C659 1.376 . S
C659 H646 0.930 . S
C659 C658 1.376 . S
C659 C660 1.388 . S
C660 H647 0.930 . S
C660 C659 1.388 . S
C660 C661 1.390 . S
C661 C660 1.390 . S
C661 C662 1.394 . S
C661 C667 1.465 . S
C662 C657 1.399 . S
C662 C661 1.394 . S
C662 C663 1.516 . S
C663 C662 1.516 . S
C663 C664 1.502 . S
C663 C665 1.561 . S
C663 C666 1.526 . S
C664 H648 0.959 . S
C664 H649 0.959 . S
C664 H650 0.961 . S
C664 C663 1.502 . S
C665 H651 0.960 . S
C665 H652 0.961 . S
C665 H653 0.959 . S
C665 C663 1.561 . S
C666 C663 1.526 . S
C666 C667 1.396 . S
C666 C671 1.390 . S
C667 C661 1.465 . S
C667 C666 1.396 . S
C667 C668 1.399 . S
C668 H654 0.929 . S
C668 C667 1.399 . S
C668 C669 1.385 . S
C669 H655 0.931 . S
C669 C668 1.385 . S
C669 C670 1.389 . S
C670 C669 1.389 . S
C670 C671 1.387 . S
C671 H656 0.930 . S
C671 C666 1.390 . S
C671 C670 1.387 . S
H672 C684 0.930 . S
H673 C686 0.930 . S
H674 C687 0.930 . S
H675 C691 0.959 . S
H676 C691 0.959 . S
H677 C691 0.961 . S
H678 C692 0.960 . S
H679 C692 0.961 . S
H680 C692 0.959 . S
H681 C695 0.929 . S
H682 C696 0.931 . S
H683 C698 0.930 . S
C684 H672 0.930 . S
C684 C685 1.399 . S
C684 C689 1.399 . S
C685 C684 1.399 . S
C685 C686 1.376 . S
C686 H673 0.930 . S
C686 C685 1.376 . S
C686 C687 1.388 . S
C687 H674 0.930 . S
C687 C686 1.388 . S
C687 C688 1.390 . S
C688 C687 1.390 . S
C688 C689 1.394 . S
C688 C694 1.465 . S
C689 C684 1.399 . S
C689 C688 1.394 . S
C689 C690 1.516 . S
C690 C689 1.516 . S
C690 C691 1.502 . S
C690 C692 1.561 . S
C690 C693 1.526 . S
C691 H675 0.959 . S
C691 H676 0.959 . S
C691 H677 0.961 . S
C691 C690 1.502 . S
C692 H678 0.960 . S
C692 H679 0.961 . S
C692 H680 0.959 . S
C692 C690 1.561 . S
C693 C690 1.526 . S
C693 C694 1.396 . S
C693 C698 1.390 . S
C694 C688 1.465 . S
C694 C693 1.396 . S
C694 C695 1.399 . S
C695 H681 0.929 . S
C695 C694 1.399 . S
C695 C696 1.385 . S
C696 H682 0.931 . S
C696 C695 1.385 . S
C696 C697 1.389 . S
C697 C696 1.389 . S
C697 C698 1.387 . S
C698 H683 0.930 . S
C698 C693 1.390 . S
C698 C697 1.387 . S
H699 C711 0.930 . S
H700 C713 0.930 . S
H701 C714 0.930 . S
H702 C718 0.959 . S
H703 C718 0.959 . S
H704 C718 0.961 . S
H705 C719 0.960 . S
H706 C719 0.961 . S
H707 C719 0.959 . S
H708 C722 0.929 . S
H709 C723 0.931 . S
H710 C725 0.930 . S
C711 H699 0.930 . S
C711 C712 1.399 . S
C711 C716 1.399 . S
C712 C711 1.399 . S
C712 C713 1.376 . S
C713 H700 0.930 . S
C713 C712 1.376 . S
C713 C714 1.388 . S
C714 H701 0.930 . S
C714 C713 1.388 . S
C714 C715 1.390 . S
C715 C714 1.390 . S
C715 C716 1.394 . S
C715 C721 1.465 . S
C716 C711 1.399 . S
C716 C715 1.394 . S
C716 C717 1.516 . S
C717 C716 1.516 . S
C717 C718 1.502 . S
C717 C719 1.561 . S
C717 C720 1.526 . S
C718 H702 0.959 . S
C718 H703 0.959 . S
C718 H704 0.961 . S
C718 C717 1.502 . S
C719 H705 0.960 . S
C719 H706 0.961 . S
C719 H707 0.959 . S
C719 C717 1.561 . S
C720 C717 1.526 . S
C720 C721 1.396 . S
C720 C725 1.390 . S
C721 C715 1.465 . S
C721 C720 1.396 . S
C721 C722 1.399 . S
C722 H708 0.929 . S
C722 C721 1.399 . S
C722 C723 1.385 . S
C723 H709 0.931 . S
C723 C722 1.385 . S
C723 C724 1.389 . S
C724 C723 1.389 . S
C724 C725 1.387 . S
C725 H710 0.930 . S
C725 C720 1.390 . S
C725 C724 1.387 . S
H726 C738 0.930 . S
H727 C740 0.930 . S
H728 C741 0.930 . S
H729 C745 0.959 . S
H730 C745 0.959 . S
H731 C745 0.961 . S
H732 C746 0.960 . S
H733 C746 0.961 . S
H734 C746 0.959 . S
H735 C749 0.929 . S
H736 C750 0.931 . S
H737 C752 0.930 . S
C738 H726 0.930 . S
C738 C739 1.399 . S
C738 C743 1.399 . S
C739 C738 1.399 . S
C739 C740 1.376 . S
C740 H727 0.930 . S
C740 C739 1.376 . S
C740 C741 1.388 . S
C741 H728 0.930 . S
C741 C740 1.388 . S
C741 C742 1.390 . S
C742 C741 1.390 . S
C742 C743 1.394 . S
C742 C748 1.465 . S
C743 C738 1.399 . S
C743 C742 1.394 . S
C743 C744 1.516 . S
C744 C743 1.516 . S
C744 C745 1.502 . S
C744 C746 1.561 . S
C744 C747 1.526 . S
C745 H729 0.959 . S
C745 H730 0.959 . S
C745 H731 0.961 . S
C745 C744 1.502 . S
C746 H732 0.960 . S
C746 H733 0.961 . S
C746 H734 0.959 . S
C746 C744 1.561 . S
C747 C744 1.526 . S
C747 C748 1.396 . S
C747 C752 1.390 . S
C748 C742 1.465 . S
C748 C747 1.396 . S
C748 C749 1.399 . S
C749 H735 0.929 . S
C749 C748 1.399 . S
C749 C750 1.385 . S
C750 H736 0.931 . S
C750 C749 1.385 . S
C750 C751 1.389 . S
C751 C750 1.389 . S
C751 C752 1.387 . S
C752 H737 0.930 . S
C752 C747 1.390 . S
C752 C751 1.387 . S
H753 C765 0.930 . S
H754 C767 0.930 . S
H755 C768 0.930 . S
H756 C772 0.959 . S
H757 C772 0.959 . S
H758 C772 0.961 . S
H759 C773 0.960 . S
H760 C773 0.961 . S
H761 C773 0.959 . S
H762 C776 0.929 . S
H763 C777 0.931 . S
H764 C779 0.930 . S
C765 H753 0.930 . S
C765 C766 1.399 . S
C765 C770 1.399 . S
C766 C765 1.399 . S
C766 C767 1.376 . S
C767 H754 0.930 . S
C767 C766 1.376 . S
C767 C768 1.388 . S
C768 H755 0.930 . S
C768 C767 1.388 . S
C768 C769 1.390 . S
C769 C768 1.390 . S
C769 C770 1.394 . S
C769 C775 1.465 . S
C770 C765 1.399 . S
C770 C769 1.394 . S
C770 C771 1.516 . S
C771 C770 1.516 . S
C771 C772 1.502 . S
C771 C773 1.561 . S
C771 C774 1.526 . S
C772 H756 0.959 . S
C772 H757 0.959 . S
C772 H758 0.961 . S
C772 C771 1.502 . S
C773 H759 0.960 . S
C773 H760 0.961 . S
C773 H761 0.959 . S
C773 C771 1.561 . S
C774 C771 1.526 . S
C774 C775 1.396 . S
C774 C779 1.390 . S
C775 C769 1.465 . S
C775 C774 1.396 . S
C775 C776 1.399 . S
C776 H762 0.929 . S
C776 C775 1.399 . S
C776 C777 1.385 . S
C777 H763 0.931 . S
C777 C776 1.385 . S
C777 C778 1.389 . S
C778 C777 1.389 . S
C778 C779 1.387 . S
C779 H764 0.930 . S
C779 C774 1.390 . S
C779 C778 1.387 . S
H780 C792 0.930 . S
H781 C794 0.930 . S
H782 C795 0.930 . S
H783 C799 0.959 . S
H784 C799 0.959 . S
H785 C799 0.961 . S
H786 C800 0.960 . S
H787 C800 0.961 . S
H788 C800 0.959 . S
H789 C803 0.929 . S
H790 C804 0.931 . S
H791 C806 0.930 . S
C792 H780 0.930 . S
C792 C793 1.399 . S
C792 C797 1.399 . S
C793 C792 1.399 . S
C793 C794 1.376 . S
C794 H781 0.930 . S
C794 C793 1.376 . S
C794 C795 1.388 . S
C795 H782 0.930 . S
C795 C794 1.388 . S
C795 C796 1.390 . S
C796 C795 1.390 . S
C796 C797 1.394 . S
C796 C802 1.465 . S
C797 C792 1.399 . S
C797 C796 1.394 . S
C797 C798 1.516 . S
C798 C797 1.516 . S
C798 C799 1.502 . S
C798 C800 1.561 . S
C798 C801 1.526 . S
C799 H783 0.959 . S
C799 H784 0.959 . S
C799 H785 0.961 . S
C799 C798 1.502 . S
C800 H786 0.960 . S
C800 H787 0.961 . S
C800 H788 0.959 . S
C800 C798 1.561 . S
C801 C798 1.526 . S
C801 C802 1.396 . S
C801 C806 1.390 . S
C802 C796 1.465 . S
C802 C801 1.396 . S
C802 C803 1.399 . S
C803 H789 0.929 . S
C803 C802 1.399 . S
C803 C804 1.385 . S
C804 H790 0.931 . S
C804 C803 1.385 . S
C804 C805 1.389 . S
C805 C804 1.389 . S
C805 C806 1.387 . S
C806 H791 0.930 . S
C806 C801 1.390 . S
C806 C805 1.387 . S
H807 C819 0.930 . S
H808 C821 0.930 . S
H809 C822 0.930 . S
H810 C826 0.959 . S
H811 C826 0.959 . S
H812 C826 0.961 . S
H813 C827 0.960 . S
H814 C827 0.961 . S
H815 C827 0.959 . S
H816 C830 0.929 . S
H817 C831 0.931 . S
H818 C833 0.930 . S
C819 H807 0.930 . S
C819 C820 1.399 . S
C819 C824 1.399 . S
C820 C819 1.399 . S
C820 C821 1.376 . S
C821 H808 0.930 . S
C821 C820 1.376 . S
C821 C822 1.388 . S
C822 H809 0.930 . S
C822 C821 1.388 . S
C822 C823 1.390 . S
C823 C822 1.390 . S
C823 C824 1.394 . S
C823 C829 1.465 . S
C824 C819 1.399 . S
C824 C823 1.394 . S
C824 C825 1.516 . S
C825 C824 1.516 . S
C825 C826 1.502 . S
C825 C827 1.561 . S
C825 C828 1.526 . S
C826 H810 0.959 . S
C826 H811 0.959 . S
C826 H812 0.961 . S
C826 C825 1.502 . S
C827 H813 0.960 . S
C827 H814 0.961 . S
C827 H815 0.959 . S
C827 C825 1.561 . S
C828 C825 1.526 . S
C828 C829 1.396 . S
C828 C833 1.390 . S
C829 C823 1.465 . S
C829 C828 1.396 . S
C829 C830 1.399 . S
C830 H816 0.929 . S
C830 C829 1.399 . S
C830 C831 1.385 . S
C831 H817 0.931 . S
C831 C830 1.385 . S
C831 C832 1.389 . S
C832 C831 1.389 . S
C832 C833 1.387 . S
C833 H818 0.930 . S
C833 C828 1.390 . S
C833 C832 1.387 . S
H834 C846 0.930 . S
H835 C848 0.930 . S
H836 C849 0.930 . S
H837 C853 0.959 . S
H838 C853 0.959 . S
H839 C853 0.961 . S
H840 C854 0.960 1_545 S
H841 C854 0.961 . S
H842 C854 0.959 . S
H843 C857 0.929 . S
H844 C858 0.931 . S
H845 C860 0.930 . S
C846 H834 0.930 . S
C846 C847 1.399 . S
C846 C851 1.399 . S
C847 C846 1.399 . S
C847 C848 1.376 . S
C848 H835 0.930 . S
C848 C847 1.376 . S
C848 C849 1.388 . S
C849 H836 0.930 . S
C849 C848 1.388 . S
C849 C850 1.390 . S
C850 C849 1.390 . S
C850 C851 1.394 . S
C850 C856 1.465 . S
C851 C846 1.399 . S
C851 C850 1.394 . S
C851 C852 1.516 . S
C852 C851 1.516 . S
C852 C853 1.502 . S
C852 C854 1.561 . S
C852 C855 1.526 . S
C853 H837 0.959 . S
C853 H838 0.959 . S
C853 H839 0.961 . S
C853 C852 1.502 . S
C854 H840 0.960 1_565 S
C854 H841 0.961 . S
C854 H842 0.959 . S
C854 C852 1.561 . S
C855 C852 1.526 . S
C855 C856 1.396 . S
C855 C860 1.390 . S
C856 C850 1.465 . S
C856 C855 1.396 . S
C856 C857 1.399 . S
C857 H843 0.929 . S
C857 C856 1.399 . S
C857 C858 1.385 . S
C858 H844 0.931 . S
C858 C857 1.385 . S
C858 C859 1.389 . S
C859 C858 1.389 . S
C859 C860 1.387 . S
C860 H845 0.930 . S
C860 C855 1.390 . S
C860 C859 1.387 . S
H861 C873 0.930 . S
H862 C875 0.930 . S
H863 C876 0.930 . S
H864 C880 0.959 . S
H865 C880 0.959 . S
H866 C880 0.961 . S
H867 C881 0.960 . S
H868 C881 0.961 . S
H869 C881 0.959 . S
H870 C884 0.929 . S
H871 C885 0.931 . S
H872 C887 0.930 . S
C873 H861 0.930 . S
C873 C874 1.399 . S
C873 C878 1.399 . S
C874 C873 1.399 . S
C874 C875 1.376 . S
C875 H862 0.930 . S
C875 C874 1.376 . S
C875 C876 1.388 . S
C876 H863 0.930 . S
C876 C875 1.388 . S
C876 C877 1.390 . S
C877 C876 1.390 . S
C877 C878 1.394 . S
C877 C883 1.465 . S
C878 C873 1.399 . S
C878 C877 1.394 . S
C878 C879 1.516 . S
C879 C878 1.516 . S
C879 C880 1.502 . S
C879 C881 1.561 . S
C879 C882 1.526 . S
C880 H864 0.959 . S
C880 H865 0.959 . S
C880 H866 0.961 . S
C880 C879 1.502 . S
C881 H867 0.960 . S
C881 H868 0.961 . S
C881 H869 0.959 . S
C881 C879 1.561 . S
C882 C879 1.526 . S
C882 C883 1.396 . S
C882 C887 1.390 . S
C883 C877 1.465 . S
C883 C882 1.396 . S
C883 C884 1.399 . S
C884 H870 0.929 . S
C884 C883 1.399 . S
C884 C885 1.385 . S
C885 H871 0.931 . S
C885 C884 1.385 . S
C885 C886 1.389 . S
C886 C885 1.389 . S
C886 C887 1.387 . S
C887 H872 0.930 . S
C887 C882 1.390 . S
C887 C886 1.387 . S
H888 C900 0.930 . S
H889 C902 0.930 . S
H890 C903 0.930 . S
H891 C907 0.959 . S
H892 C907 0.959 . S
H893 C907 0.961 . S
H894 C908 0.960 . S
H895 C908 0.961 . S
H896 C908 0.959 . S
H897 C911 0.929 . S
H898 C912 0.931 . S
H899 C914 0.930 . S
C900 H888 0.930 . S
C900 C901 1.399 . S
C900 C905 1.399 . S
C901 C900 1.399 . S
C901 C902 1.376 . S
C902 H889 0.930 . S
C902 C901 1.376 . S
C902 C903 1.388 . S
C903 H890 0.930 . S
C903 C902 1.388 . S
C903 C904 1.390 . S
C904 C903 1.390 . S
C904 C905 1.394 . S
C904 C910 1.465 . S
C905 C900 1.399 . S
C905 C904 1.394 . S
C905 C906 1.516 . S
C906 C905 1.516 . S
C906 C907 1.502 . S
C906 C908 1.561 . S
C906 C909 1.526 . S
C907 H891 0.959 . S
C907 H892 0.959 . S
C907 H893 0.961 . S
C907 C906 1.502 . S
C908 H894 0.960 . S
C908 H895 0.961 . S
C908 H896 0.959 . S
C908 C906 1.561 . S
C909 C906 1.526 . S
C909 C910 1.396 . S
C909 C914 1.390 . S
C910 C904 1.465 . S
C910 C909 1.396 . S
C910 C911 1.399 . S
C911 H897 0.929 . S
C911 C910 1.399 . S
C911 C912 1.385 . S
C912 H898 0.931 . S
C912 C911 1.385 . S
C912 C913 1.389 . S
C913 C912 1.389 . S
C913 C914 1.387 . S
C914 H899 0.930 . S
C914 C909 1.390 . S
C914 C913 1.387 . S
H915 C927 0.930 . S
H916 C929 0.930 . S
H917 C930 0.930 . S
H918 C934 0.959 . S
H919 C934 0.959 . S
H920 C934 0.961 . S
H921 C935 0.960 . S
H922 C935 0.961 . S
H923 C935 0.959 . S
H924 C938 0.929 . S
H925 C939 0.931 . S
H926 C941 0.930 . S
C927 H915 0.930 . S
C927 C928 1.399 . S
C927 C932 1.399 . S
C928 C927 1.399 . S
C928 C929 1.376 . S
C929 H916 0.930 . S
C929 C928 1.376 . S
C929 C930 1.388 . S
C930 H917 0.930 . S
C930 C929 1.388 . S
C930 C931 1.390 . S
C931 C930 1.390 . S
C931 C932 1.394 . S
C931 C937 1.465 . S
C932 C927 1.399 . S
C932 C931 1.394 . S
C932 C933 1.516 . S
C933 C932 1.516 . S
C933 C934 1.502 . S
C933 C935 1.561 . S
C933 C936 1.526 . S
C934 H918 0.959 . S
C934 H919 0.959 . S
C934 H920 0.961 . S
C934 C933 1.502 . S
C935 H921 0.960 . S
C935 H922 0.961 . S
C935 H923 0.959 . S
C935 C933 1.561 . S
C936 C933 1.526 . S
C936 C937 1.396 . S
C936 C941 1.390 . S
C937 C931 1.465 . S
C937 C936 1.396 . S
C937 C938 1.399 . S
C938 H924 0.929 . S
C938 C937 1.399 . S
C938 C939 1.385 . S
C939 H925 0.931 . S
C939 C938 1.385 . S
C939 C940 1.389 . S
C940 C939 1.389 . S
C940 C941 1.387 . S
C941 H926 0.930 . S
C941 C936 1.390 . S
C941 C940 1.387 . S
H942 C954 0.930 . S
H943 C956 0.930 . S
H944 C957 0.930 . S
H945 C961 0.959 . S
H946 C961 0.959 . S
H947 C961 0.961 . S
H948 C962 0.960 . S
H949 C962 0.961 . S
H950 C962 0.959 . S
H951 C965 0.929 . S
H952 C966 0.931 . S
H953 C968 0.930 . S
C954 H942 0.930 . S
C954 C955 1.399 . S
C954 C959 1.399 . S
C955 C954 1.399 . S
C955 C956 1.376 . S
C956 H943 0.930 . S
C956 C955 1.376 . S
C956 C957 1.388 . S
C957 H944 0.930 . S
C957 C956 1.388 . S
C957 C958 1.390 . S
C958 C957 1.390 . S
C958 C959 1.394 . S
C958 C964 1.465 . S
C959 C954 1.399 . S
C959 C958 1.394 . S
C959 C960 1.516 . S
C960 C959 1.516 . S
C960 C961 1.502 . S
C960 C962 1.561 . S
C960 C963 1.526 . S
C961 H945 0.959 . S
C961 H946 0.959 . S
C961 H947 0.961 . S
C961 C960 1.502 . S
C962 H948 0.960 . S
C962 H949 0.961 . S
C962 H950 0.959 . S
C962 C960 1.561 . S
C963 C960 1.526 . S
C963 C964 1.396 . S
C963 C968 1.390 . S
C964 C958 1.465 . S
C964 C963 1.396 . S
C964 C965 1.399 . S
C965 H951 0.929 . S
C965 C964 1.399 . S
C965 C966 1.385 . S
C966 H952 0.931 . S
C966 C965 1.385 . S
C966 C967 1.389 . S
C967 C966 1.389 . S
C967 C968 1.387 . S
C968 H953 0.930 . S
C968 C963 1.390 . S
C968 C967 1.387 . S
H969 C981 0.930 . S
H970 C983 0.930 . S
H971 C984 0.930 . S
H972 C988 0.959 . S
H973 C988 0.959 . S
H974 C988 0.961 . S
H975 C989 0.960 1_554 S
H976 C989 0.961 . S
H977 C989 0.959 . S
H978 C992 0.929 . S
H979 C993 0.931 . S
H980 C995 0.930 . S
C981 H969 0.930 . S
C981 C982 1.399 . S
C981 C986 1.399 . S
C982 C981 1.399 . S
C982 C983 1.376 . S
C983 H970 0.930 . S
C983 C982 1.376 . S
C983 C984 1.388 . S
C984 H971 0.930 . S
C984 C983 1.388 . S
C984 C985 1.390 . S
C985 C984 1.390 . S
C985 C986 1.394 . S
C985 C991 1.465 . S
C986 C981 1.399 . S
C986 C985 1.394 . S
C986 C987 1.516 . S
C987 C986 1.516 . S
C987 C988 1.502 . S
C987 C989 1.561 . S
C987 C990 1.526 . S
C988 H972 0.959 . S
C988 H973 0.959 . S
C988 H974 0.961 . S
C988 C987 1.502 . S
C989 H975 0.960 1_556 S
C989 H976 0.961 . S
C989 H977 0.959 . S
C989 C987 1.561 . S
C990 C987 1.526 . S
C990 C991 1.396 . S
C990 C995 1.390 . S
C991 C985 1.465 . S
C991 C990 1.396 . S
C991 C992 1.399 . S
C992 H978 0.929 . S
C992 C991 1.399 . S
C992 C993 1.385 . S
C993 H979 0.931 . S
C993 C992 1.385 . S
C993 C994 1.389 . S
C994 C993 1.389 . S
C994 C995 1.387 . S
C995 H980 0.930 . S
C995 C990 1.390 . S
C995 C994 1.387 . S
H996 C1008 0.930 . S
H997 C1010 0.930 . S
H998 C1011 0.930 . S
H999 C1015 0.959 . S
H1000 C1015 0.959 . S
H1001 C1015 0.961 . S
H1002 C1016 0.960 . S
H1003 C1016 0.961 . S
H1004 C1016 0.959 . S
H1005 C1019 0.929 . S
H1006 C1020 0.931 . S
H1007 C1022 0.930 . S
C1008 H996 0.930 . S
C1008 C1009 1.399 . S
C1008 C1013 1.399 . S
C1009 C1008 1.399 . S
C1009 C1010 1.376 . S
C1010 H997 0.930 . S
C1010 C1009 1.376 . S
C1010 C1011 1.388 . S
C1011 H998 0.930 . S
C1011 C1010 1.388 . S
C1011 C1012 1.390 . S
C1012 C1011 1.390 . S
C1012 C1013 1.394 . S
C1012 C1018 1.465 . S
C1013 C1008 1.399 . S
C1013 C1012 1.394 . S
C1013 C1014 1.516 . S
C1014 C1013 1.516 . S
C1014 C1015 1.502 . S
C1014 C1016 1.561 . S
C1014 C1017 1.526 . S
C1015 H999 0.959 . S
C1015 H1000 0.959 . S
C1015 H1001 0.961 . S
C1015 C1014 1.502 . S
C1016 H1002 0.960 . S
C1016 H1003 0.961 . S
C1016 H1004 0.959 . S
C1016 C1014 1.561 . S
C1017 C1014 1.526 . S
C1017 C1018 1.396 . S
C1017 C1022 1.390 . S
C1018 C1012 1.465 . S
C1018 C1017 1.396 . S
C1018 C1019 1.399 . S
C1019 H1005 0.929 . S
C1019 C1018 1.399 . S
C1019 C1020 1.385 . S
C1020 H1006 0.931 . S
C1020 C1019 1.385 . S
C1020 C1021 1.389 . S
C1021 C1020 1.389 . S
C1021 C1022 1.387 . S
C1022 H1007 0.930 . S
C1022 C1017 1.390 . S
C1022 C1021 1.387 . S
H1023 C1035 0.930 . S
H1024 C1037 0.930 . S
H1025 C1038 0.930 . S
H1026 C1042 0.959 . S
H1027 C1042 0.959 . S
H1028 C1042 0.961 . S
H1029 C1043 0.960 . S
H1030 C1043 0.961 . S
H1031 C1043 0.959 . S
H1032 C1046 0.929 . S
H1033 C1047 0.931 . S
H1034 C1049 0.930 . S
C1035 H1023 0.930 . S
C1035 C1036 1.399 . S
C1035 C1040 1.399 . S
C1036 C1035 1.399 . S
C1036 C1037 1.376 . S
C1037 H1024 0.930 . S
C1037 C1036 1.376 . S
C1037 C1038 1.388 . S
C1038 H1025 0.930 . S
C1038 C1037 1.388 . S
C1038 C1039 1.390 . S
C1039 C1038 1.390 . S
C1039 C1040 1.394 . S
C1039 C1045 1.465 . S
C1040 C1035 1.399 . S
C1040 C1039 1.394 . S
C1040 C1041 1.516 . S
C1041 C1040 1.516 . S
C1041 C1042 1.502 . S
C1041 C1043 1.561 . S
C1041 C1044 1.526 . S
C1042 H1026 0.959 . S
C1042 H1027 0.959 . S
C1042 H1028 0.961 . S
C1042 C1041 1.502 . S
C1043 H1029 0.960 . S
C1043 H1030 0.961 . S
C1043 H1031 0.959 . S
C1043 C1041 1.561 . S
C1044 C1041 1.526 . S
C1044 C1045 1.396 . S
C1044 C1049 1.390 . S
C1045 C1039 1.465 . S
C1045 C1044 1.396 . S
C1045 C1046 1.399 . S
C1046 H1032 0.929 . S
C1046 C1045 1.399 . S
C1046 C1047 1.385 . S
C1047 H1033 0.931 . S
C1047 C1046 1.385 . S
C1047 C1048 1.389 . S
C1048 C1047 1.389 . S
C1048 C1049 1.387 . S
C1049 H1034 0.930 . S
C1049 C1044 1.390 . S
C1049 C1048 1.387 . S
C415 C48 1.247 . S
C427 C91 1.269 . S
C442 C106 1.266 . S
C454 C169 1.215 . S
C469 C225 1.390 . S
C481 C182 1.308 . S
C496 C240 1.368 . S
C508 C35 1.327 . S
C523 C303 1.018 . S
C535 C24 0.987 . S
C550 C374 1.189 . S
C562 C102 1.185 . S
C577 C316 1.215 . S
C589 C158 1.207 . S
C604 C236 1.103 . S
C616 C359 1.055 . S
C631 C173 1.350 . S
C643 C370 1.317 . S
C658 C292 1.290 . S
C670 C249 1.326 . S
C685 C383 1.518 . S
C697 C39 1.457 . S
C712 C307 1.476 . S
C724 C115 1.451 . S
C739 C167 1.329 . S
C751 C242 1.244 . S
C766 C45 1.263 . S
C778 C228 1.337 . S
C793 C33 1.431 . S
C805 C108 1.362 . S
C820 C179 1.362 . S
C832 C94 1.429 . S
C847 C380 1.288 . S
C859 C161 1.267 . S
C874 C234 1.264 . S
C886 C309 1.277 . S
C901 C368 1.191 . S
C913 C27 1.268 . S
C928 C100 1.146 . S
C940 C295 1.243 . S
C955 C41 1.430 . S
C967 C313 1.418 . S
C982 C112 1.431 . S
C994 C362 1.396 . S
C1009 C175 1.386 . S
C1021 C301 1.462 . S
C1036 C246 1.458 . S
C1048 C376 1.460 . S
