# Generated by pormake.
# Topology yfx, (5)-cn, num edge types: 1
# Building blocks:
#     Node 0, Type 0, BuildingBlock: XOMCOT_clean_sbu_1, # of connection points: 5
#     Node 1, Type 0, BuildingBlock: XOMCOT_clean_sbu_1, # of connection points: 5
#     Node 2, Type 0, BuildingBlock: XOMCOT_clean_sbu_1, # of connection points: 5
#     Node 3, Type 0, BuildingBlock: XOMCOT_clean_sbu_1, # of connection points: 5
#     Node 4, Type 0, BuildingBlock: XOMCOT_clean_sbu_1, # of connection points: 5
#     Node 5, Type 0, BuildingBlock: XOMCOT_clean_sbu_1, # of connection points: 5
#     Node 6, Type 0, BuildingBlock: XOMCOT_clean_sbu_1, # of connection points: 5
#     Node 7, Type 0, BuildingBlock: XOMCOT_clean_sbu_1, # of connection points: 5
#     Edge 8, Type (0, 0), BuildingBlock: XIVTED_clean_linker_0, # of connection points: 2
#     Edge 9, Type (0, 0), BuildingBlock: XIVTED_clean_linker_0, # of connection points: 2
#     Edge 10, Type (0, 0), BuildingBlock: XIVTED_clean_linker_0, # of connection points: 2
#     Edge 11, Type (0, 0), BuildingBlock: XIVTED_clean_linker_0, # of connection points: 2
#     Edge 12, Type (0, 0), BuildingBlock: XIVTED_clean_linker_0, # of connection points: 2
#     Edge 13, Type (0, 0), BuildingBlock: XIVTED_clean_linker_0, # of connection points: 2
#     Edge 14, Type (0, 0), BuildingBlock: XIVTED_clean_linker_0, # of connection points: 2
#     Edge 15, Type (0, 0), BuildingBlock: XIVTED_clean_linker_0, # of connection points: 2
#     Edge 16, Type (0, 0), BuildingBlock: XIVTED_clean_linker_0, # of connection points: 2
#     Edge 17, Type (0, 0), BuildingBlock: XIVTED_clean_linker_0, # of connection points: 2
#     Edge 18, Type (0, 0), BuildingBlock: XIVTED_clean_linker_0, # of connection points: 2
#     Edge 19, Type (0, 0), BuildingBlock: XIVTED_clean_linker_0, # of connection points: 2
#     Edge 20, Type (0, 0), BuildingBlock: XIVTED_clean_linker_0, # of connection points: 2
#     Edge 21, Type (0, 0), BuildingBlock: XIVTED_clean_linker_0, # of connection points: 2
#     Edge 22, Type (0, 0), BuildingBlock: XIVTED_clean_linker_0, # of connection points: 2
#     Edge 23, Type (0, 0), BuildingBlock: XIVTED_clean_linker_0, # of connection points: 2
#     Edge 24, Type (0, 0), BuildingBlock: XIVTED_clean_linker_0, # of connection points: 2
#     Edge 25, Type (0, 0), BuildingBlock: XIVTED_clean_linker_0, # of connection points: 2
#     Edge 26, Type (0, 0), BuildingBlock: XIVTED_clean_linker_0, # of connection points: 2
#     Edge 27, Type (0, 0), BuildingBlock: XIVTED_clean_linker_0, # of connection points: 2
# Relax obj value: 0.117
# Max RMSD: 0.118
# Mean RMSD: 0.118
data_MOF--net-yfx--node1-XOMCOT_clean_sbu_1--edge1-XIVTED_clean_linker_0
_symmetry_space_group_name_H-M    P1
_symmetry_Int_Tables_number       1
_symmetry_cell_setting            triclinic
loop_
_symmetry_equiv_pos_as_xyz
'x, y, z'
_cell_length_a     36.20013
_cell_length_b     36.20477
_cell_length_c     28.028296
_cell_angle_alpha  90.121794
_cell_angle_beta   90.075959
_cell_angle_gamma 90.214386
loop_
_atom_site_label
_atom_site_type_symbol
_atom_site_fract_x
_atom_site_fract_y
_atom_site_fract_z
_atom_type_partial_charge
C0 C 0.27851 0.38959 0.96277 0.0
C1 C 0.31422 0.37724 0.95884 0.0
N2 N 0.32202 0.35685 0.99766 0.0
N3 N 0.2638 0.37689 1.00375 0.0
C4 C 0.29113 0.35724 0.02449 0.0
H5 H 0.2635 0.40505 0.93614 0.0
Co6 Co 0.21397 0.38101 1.01844 0.0
C7 C 0.20387 0.33557 0.10674 0.0
O8 O 0.17194 0.32277 0.09183 0.0
N9 N 0.16228 0.3861 0.03202 0.0
C10 C 0.10092 0.37902 0.03069 0.0
C11 C 0.13426 0.36277 0.0206 0.0
C12 C 0.14469 0.4163 0.04943 0.0
N13 N 0.10749 0.41295 0.04835 0.0
O14 O 0.2244 0.42812 0.04626 0.0
H15 H 0.13736 0.33574 1.00474 0.0
H16 H 0.1586 0.44095 0.06171 0.0
O17 O 0.22259 0.35745 0.08038 0.0
C18 C 0.22113 0.45308 1.01455 0.0
O19 O 0.20687 0.4437 0.97307 0.0
N20 N 0.20612 0.33671 0.98542 0.0
C21 C 0.2199 0.28831 0.91027 0.0
C22 C 0.22942 0.27858 0.95716 0.0
C23 C 0.22242 0.30347 0.99462 0.0
C24 C 0.194 0.34493 0.94066 0.0
C25 C 0.20043 0.32106 0.90264 0.0
H26 H 0.23377 0.29774 0.02946 0.0
H27 H 0.18272 0.372 0.93356 0.0
H28 H 0.2877 0.34106 0.05655 0.0
H29 H 0.33253 0.38161 0.92885 0.0
H30 H 0.07394 0.36746 0.02302 0.0
H31 H 0.24514 0.25376 0.96408 0.0
H32 H 0.19301 0.3296 0.86686 0.0
C33 C 0.61418 0.28152 0.97551 0.0
C34 C 0.62605 0.31756 0.97257 0.0
N35 N 0.65057 0.32361 1.00791 0.0
N36 N 0.63129 0.26492 1.01238 0.0
C37 C 0.65321 0.29136 0.0316 0.0
H38 H 0.59569 0.26777 0.95085 0.0
Co39 Co 0.62858 0.21464 0.02473 0.0
C40 C 0.67214 0.20338 0.11514 0.0
O41 O 0.68102 0.16947 0.10338 0.0
N42 N 0.62503 0.16241 0.03596 0.0
C43 C 0.63339 0.10147 0.03014 0.0
C44 C 0.64831 0.13563 0.02086 0.0
C45 C 0.5963 0.14321 0.05496 0.0
N46 N 0.60037 0.10617 0.05119 0.0
O47 O 0.58136 0.22263 0.05327 0.0
H48 H 0.67437 0.1401 1.00308 0.0
H49 H 0.57221 0.15597 0.07041 0.0
O50 O 0.65268 0.2229 0.08675 0.0
C51 C 0.55625 0.21754 0.02197 0.0
O52 O 0.56586 0.20328 0.98065 0.0
N53 N 0.67269 0.2091 0.99101 0.0
C54 C 0.72565 0.21716 0.91911 0.0
C55 C 0.73441 0.22506 0.96712 0.0
C56 C 0.70736 0.22104 1.00272 0.0
C57 C 0.66422 0.20003 0.94512 0.0
C58 C 0.69017 0.20358 0.90884 0.0
H59 H 0.71362 0.22986 0.03867 0.0
H60 H 0.6362 0.19211 0.93622 0.0
H61 H 0.67281 0.28651 0.06001 0.0
H62 H 0.61833 0.33739 0.94551 0.0
H63 H 0.64522 0.07526 0.01975 0.0
H64 H 0.76142 0.2356 0.97686 0.0
H65 H 0.68148 0.19799 0.87256 0.0
C66 C 0.73394 0.61485 0.96464 0.0
C67 C 0.69777 0.626 0.96196 0.0
N68 N 0.69039 0.64694 1.00052 0.0
N69 N 0.74938 0.62888 1.00455 0.0
C70 C 0.72198 0.64797 0.02607 0.0
H71 H 0.74875 0.59954 0.93764 0.0
Co72 Co 0.79984 0.62736 1.01661 0.0
C73 C 0.80881 0.68055 0.09729 0.0
O74 O 0.83563 0.69765 0.07485 0.0
N75 N 0.85219 0.62509 0.02799 0.0
C76 C 0.91278 0.63658 0.02594 0.0
C77 C 0.87831 0.65037 1.01653 0.0
C78 C 0.87214 0.59613 0.04462 0.0
N79 N 0.90912 0.60207 0.0432 0.0
O80 O 0.79234 0.58101 0.04765 0.0
H81 H 0.87316 0.67718 1.00112 0.0
H82 H 0.85991 0.57052 0.05613 0.0
O83 O 0.79254 0.65316 0.07748 0.0
C84 C 0.79565 0.55568 1.01629 0.0
O85 O 0.80839 0.56494 0.97404 0.0
N86 N 0.80476 0.67048 0.98007 0.0
C87 C 0.79091 0.7159 0.90183 0.0
C88 C 0.77945 0.72644 0.94771 0.0
C89 C 0.78629 0.703 0.98657 0.0
C90 C 0.81823 0.66134 0.93625 0.0
C91 C 0.81193 0.68376 0.89682 0.0
H92 H 0.7735 0.70927 0.02037 0.0
H93 H 0.83116 0.63475 0.93106 0.0
H94 H 0.72581 0.66495 0.05751 0.0
H95 H 0.67891 0.62077 0.93268 0.0
H96 H 0.93845 0.65092 1.01907 0.0
H97 H 0.76254 0.75075 0.95277 0.0
H98 H 0.82121 0.67465 0.862 0.0
C99 C 0.40167 0.72903 0.97087 0.0
C100 C 0.39028 0.69292 0.96703 0.0
N101 N 0.36638 0.68591 1.00268 0.0
N102 N 0.38492 0.74477 1.00865 0.0
C103 C 0.36379 0.71768 0.02766 0.0
H104 H 0.41942 0.7435 0.94614 0.0
Co105 Co 0.38706 0.79501 0.02138 0.0
C106 C 0.33677 0.80483 0.1049 0.0
O107 O 0.32239 0.83456 0.0858 0.0
N108 N 0.39011 0.84727 0.03325 0.0
C109 C 0.38146 0.9082 0.02822 0.0
C110 C 0.36673 0.87401 1.0184 0.0
C111 C 0.4187 0.86653 0.0527 0.0
N112 N 0.41447 0.90357 0.04938 0.0
O113 O 0.43366 0.78713 0.05179 0.0
H114 H 0.34075 0.86948 1.00029 0.0
H115 H 0.44282 0.85384 0.06812 0.0
O116 O 0.3618 0.78708 0.0825 0.0
C117 C 0.45942 0.79183 0.02141 0.0
O118 O 0.45078 0.80616 0.97982 0.0
N119 N 0.34351 0.80028 0.98561 0.0
C120 C 0.29243 0.7914 0.91116 0.0
C121 C 0.2833 0.78154 0.95832 0.0
C122 C 0.30943 0.7857 0.99499 0.0
C123 C 0.35229 0.81126 0.94055 0.0
C124 C 0.32726 0.80734 0.90304 0.0
H125 H 0.30305 0.77463 0.02972 0.0
H126 H 0.38 0.82095 0.93314 0.0
H127 H 0.34474 0.72177 0.0569 0.0
H128 H 0.39774 0.67374 0.93899 0.0
H129 H 0.36953 0.93439 1.01806 0.0
H130 H 0.2568 0.76919 0.96658 0.0
H131 H 0.33628 0.81452 0.86744 0.0
C132 C 0.78334 0.90539 0.48267 0.0
C133 C 0.82007 0.89606 0.48655 0.0
N134 N 0.82283 0.86789 0.51759 0.0
N135 N 0.76318 0.88341 0.51149 0.0
C136 C 0.78808 0.86079 0.5322 0.0
H137 H 0.77204 0.92656 0.45982 0.0
Co138 Co 0.71213 0.8851 0.51912 0.0
C139 C 0.69892 0.83236 0.5991 0.0
O140 O 0.67093 0.81687 0.57683 0.0
N141 N 0.65943 0.88752 0.52682 0.0
C142 C 0.59865 0.87877 0.51803 0.0
C143 C 0.63311 0.86438 0.50954 0.0
C144 C 0.63964 0.91538 0.54667 0.0
N145 N 0.60279 0.91119 0.54094 0.0
O146 O 0.71851 0.93098 0.55187 0.0
H147 H 0.63819 0.83885 0.4907 0.0
H148 H 0.65179 0.93893 0.56442 0.0
O149 O 0.71672 0.85865 0.57931 0.0
C150 C 0.71421 0.95704 0.52187 0.0
O151 O 0.70155 0.94865 0.47919 0.0
N152 N 0.70838 0.84263 0.48105 0.0
C153 C 0.7217 0.79672 0.40294 0.0
C154 C 0.72967 0.78467 0.44944 0.0
C155 C 0.72311 0.80836 0.48834 0.0
C156 C 0.69853 0.85356 0.43636 0.0
C157 C 0.7045 0.83096 0.397 0.0
H158 H 0.73284 0.80033 0.5232 0.0
H159 H 0.68832 0.88127 0.43088 0.0
H160 H 0.78104 0.83931 0.55739 0.0
H161 H 0.8428 0.90817 0.4669 0.0
H162 H 0.57271 0.8671 0.50594 0.0
H163 H 0.74357 0.75862 0.45527 0.0
H164 H 0.69794 0.84125 0.36173 0.0
C165 C 0.12351 0.7775 0.45773 0.0
C166 C 0.13649 0.81296 0.45253 0.0
N167 N 0.15459 0.82249 0.49277 0.0
N168 N 0.13356 0.76467 0.5009 0.0
C169 C 0.15211 0.79289 0.52172 0.0
H170 H 0.10947 0.76128 0.43076 0.0
Co171 Co 0.12788 0.71574 0.5188 0.0
C172 C 0.14592 0.7166 0.62024 0.0
O173 O 0.11475 0.69869 0.62707 0.0
N174 N 0.12176 0.66583 0.53559 0.0
C175 C 0.13191 0.60824 0.55971 0.0
C176 C 0.14756 0.64258 0.55286 0.0
C177 C 0.0909 0.64488 0.53174 0.0
N178 N 0.09613 0.60978 0.54649 0.0
O179 O 0.08287 0.72891 0.54998 0.0
H180 H 0.17595 0.65017 0.56013 0.0
H181 H 0.06512 0.65483 0.51752 0.0
O182 O 0.15586 0.72484 0.57776 0.0
C183 C 0.05498 0.72871 0.52228 0.0
O184 O 0.05907 0.71724 0.47809 0.0
N185 N 0.17019 0.70429 0.48369 0.0
C186 C 0.21719 0.71114 0.40556 0.0
C187 C 0.22796 0.72459 0.45058 0.0
C188 C 0.20383 0.72096 0.48952 0.0
C189 C 0.16118 0.68766 0.44164 0.0
C190 C 0.18432 0.69068 0.40212 0.0
H191 H 0.21044 0.73502 0.52251 0.0
H192 H 0.13403 0.67553 0.43723 0.0
H193 H 0.16592 0.79101 0.55584 0.0
H194 H 0.13414 0.82989 0.42089 0.0
H195 H 0.14577 0.58421 0.57388 0.0
H196 H 0.253 0.74076 0.45459 0.0
H197 H 0.17514 0.67965 0.36813 0.0
C198 C 0.22589 0.11025 0.48191 0.0
C199 C 0.18932 0.12017 0.48581 0.0
N200 N 0.187 0.14782 0.5178 0.0
N201 N 0.24635 0.13137 0.51166 0.0
C202 C 0.22178 0.15397 0.53303 0.0
H203 H 0.23691 0.08941 0.45827 0.0
Co204 Co 0.29736 0.12915 0.51925 0.0
C205 C 0.31173 0.1768 0.60447 0.0
O206 O 0.34094 0.19164 0.58437 0.0
N207 N 0.35003 0.12609 0.52676 0.0
C208 C 0.41089 0.13444 0.51861 0.0
C209 C 0.37658 0.14919 0.51019 0.0
C210 C 0.36953 0.09784 0.54605 0.0
N211 N 0.40643 0.10182 0.54075 0.0
O212 O 0.29088 0.08179 0.54799 0.0
H213 H 0.37183 0.17508 0.49221 0.0
H214 H 0.35712 0.07421 0.56318 0.0
O215 O 0.29278 0.15266 0.58181 0.0
C216 C 0.29518 0.05675 0.51647 0.0
O217 O 0.30786 0.06655 0.47439 0.0
N218 N 0.30125 0.17359 0.48518 0.0
C219 C 0.29089 0.22621 0.41369 0.0
C220 C 0.28179 0.23422 0.46134 0.0
C221 C 0.28738 0.20749 0.49683 0.0
C222 C 0.31094 0.16585 0.43926 0.0
C223 C 0.30675 0.19194 0.40324 0.0
H224 H 0.27797 0.21324 0.53256 0.0
H225 H 0.32026 0.13837 0.43017 0.0
H226 H 0.22907 0.17488 0.55903 0.0
H227 H 0.16644 0.10898 0.46541 0.0
H228 H 0.43696 0.1461 0.50714 0.0
H229 H 0.26903 0.26026 0.47067 0.0
H230 H 0.31337 0.18428 0.36687 0.0
C231 C 0.88384 0.23589 0.4628 0.0
C232 C 0.87111 0.20027 0.45798 0.0
N233 N 0.8547 0.19041 0.49915 0.0
N234 N 0.87524 0.24846 0.50665 0.0
C235 C 0.85791 0.21993 0.52827 0.0
H236 H 0.89645 0.25242 0.43513 0.0
Co237 Co 0.88031 0.29755 0.52428 0.0
C238 C 0.86676 0.2962 0.62715 0.0
O239 O 0.89759 0.31505 0.63244 0.0
N240 N 0.88586 0.34757 0.54068 0.0
C241 C 0.87615 0.40497 0.56611 0.0
C242 C 0.86061 0.37044 0.56004 0.0
C243 C 0.91622 0.3689 0.53476 0.0
N244 N 0.91129 0.40388 0.5503 0.0
O245 O 0.92686 0.28571 0.55229 0.0
H246 H 0.83274 0.36243 0.56944 0.0
H247 H 0.94143 0.35925 0.51865 0.0
O248 O 0.85551 0.28783 0.58519 0.0
C249 C 0.95402 0.28569 0.52354 0.0
O250 O 0.94882 0.2966 0.47937 0.0
N251 N 0.83592 0.30759 0.49263 0.0
C252 C 0.78353 0.29857 0.4204 0.0
C253 C 0.77686 0.28498 0.46657 0.0
C254 C 0.80341 0.28996 0.50245 0.0
C255 C 0.84132 0.32401 0.4495 0.0
C256 C 0.81533 0.32007 0.41291 0.0
H257 H 0.79943 0.27625 0.53625 0.0
H258 H 0.86767 0.33687 0.44181 0.0
H259 H 0.84518 0.22158 0.56306 0.0
H260 H 0.87222 0.18355 0.42595 0.0
H261 H 0.86274 0.42878 0.58165 0.0
H262 H 0.7525 0.26852 0.47402 0.0
H263 H 0.82185 0.33079 0.37786 0.0
H264 H 0.52885 0.26383 0.09193 0.0
H265 H 0.35848 0.31827 0.93049 0.0
H266 H 0.4974 0.20442 0.9644 0.0
H267 H 0.35794 0.34336 0.08084 0.0
H268 H 0.41299 0.27995 0.94214 0.0
H269 H 0.46874 0.29544 0.09033 0.0
C270 C 0.50911 0.2569 0.06422 0.0
C271 C 0.51833 0.23183 0.02787 0.0
C272 C 0.40096 0.29367 0.97274 0.0
C273 C 0.45034 0.26817 0.02539 0.0
C274 C 0.3701 0.31583 0.96595 0.0
C275 C 0.35407 0.3342 1.00469 0.0
C276 C 0.41638 0.29024 1.01851 0.0
C277 C 0.3697 0.32956 0.05016 0.0
C278 C 0.47494 0.27501 0.06325 0.0
C279 C 0.49177 0.22394 0.99277 0.0
N280 N 0.40039 0.30831 0.05584 0.0
N281 N 0.45929 0.2424 0.99203 0.0
H282 H 0.67184 0.35573 0.0911 0.0
H283 H 0.80565 0.49667 0.95819 0.0
H284 H 0.68246 0.3637 0.93837 0.0
H285 H 0.75239 0.52849 0.08968 0.0
H286 H 0.77294 0.43794 0.96043 0.0
H287 H 0.71192 0.41077 0.09966 0.0
C288 C 0.6827 0.36909 0.05953 0.0
C289 C 0.67367 0.35562 1.01395 0.0
C290 C 0.76868 0.45761 0.98907 0.0
C291 C 0.71974 0.41727 0.0234 0.0
C292 C 0.78744 0.49113 0.988 0.0
C293 C 0.78128 0.51782 0.02343 0.0
C294 C 0.74364 0.4504 0.02598 0.0
C295 C 0.75774 0.50874 0.0615 0.0
C296 C 0.70536 0.40032 0.06441 0.0
C297 C 0.68833 0.37362 0.97403 0.0
N298 N 0.73939 0.47576 0.0616 0.0
N299 N 0.71081 0.40335 0.9797 0.0
H300 H 0.65404 0.68488 0.93281 0.0
H301 H 0.48455 0.74453 0.09156 0.0
H302 H 0.65481 0.66184 0.08357 0.0
H303 H 0.51955 0.80392 0.966 0.0
H304 H 0.54377 0.71121 0.09104 0.0
H305 H 0.60034 0.72439 0.94398 0.0
C306 C 0.6426 0.68798 0.96826 0.0
C307 C 0.6585 0.66988 1.00727 0.0
C308 C 0.53854 0.73202 0.0642 0.0
C309 C 0.59711 0.71524 0.02053 0.0
C310 C 0.5049 0.75111 0.06456 0.0
C311 C 0.49691 0.77667 0.02838 0.0
C312 C 0.56384 0.73836 0.02708 0.0
C313 C 0.52421 0.78406 0.99418 0.0
C314 C 0.61222 0.71082 0.97476 0.0
C315 C 0.64312 0.67539 0.0527 0.0
N316 N 0.55612 0.76463 0.99397 0.0
N317 N 0.61288 0.69734 0.05812 0.0
H318 H 0.26335 0.48073 0.08886 0.0
H319 H 0.33479 0.64708 0.93145 0.0
H320 H 0.21528 0.51069 0.95335 0.0
H321 H 0.34511 0.65194 0.08452 0.0
H322 H 0.29554 0.59256 0.93907 0.0
H323 H 0.29673 0.54017 0.08978 0.0
C324 C 0.25934 0.49996 0.05979 0.0
C325 C 0.23686 0.49054 0.02069 0.0
C326 C 0.30625 0.60552 0.97111 0.0
C327 C 0.27521 0.55773 0.02117 0.0
C328 C 0.32894 0.63639 0.96669 0.0
C329 C 0.34337 0.6537 1.0074 0.0
C330 C 0.29831 0.59136 1.01657 0.0
C331 C 0.33439 0.63921 0.05237 0.0
C332 C 0.27841 0.53375 0.06031 0.0
C333 C 0.23266 0.51647 0.98395 0.0
N334 N 0.31266 0.6085 0.05584 0.0
N335 N 0.25201 0.54855 0.98481 0.0
H336 H 0.98668 0.70272 0.50117 0.0
H337 H 0.89205 0.89488 0.52949 0.0
H338 H 0.04301 0.79195 0.57314 0.0
H339 H 0.82812 0.79423 0.53166 0.0
H340 H 0.94831 0.85866 0.54307 0.0
H341 H 0.92821 0.73569 0.51051 0.0
C342 C 0.98648 0.72897 0.51984 0.0
C343 C 0.01944 0.74473 0.53655 0.0
C344 C 0.92187 0.84461 0.5413 0.0
C345 C 0.95317 0.78306 0.54589 0.0
C346 C 0.88993 0.86519 0.53318 0.0
C347 C 0.85557 0.84742 0.52926 0.0
C348 C 0.91944 0.80597 0.54432 0.0
C349 C 0.8541 0.80894 0.53472 0.0
C350 C 0.95321 0.74774 0.52514 0.0
C351 C 0.01798 0.77884 0.56021 0.0
N352 N 0.88568 0.7894 0.54119 0.0
N353 N 0.9854 0.79735 0.5633 0.0
H354 H 0.24869 0.02982 0.58631 0.0
H355 H 0.19614 0.85694 0.42661 0.0
H356 H 0.30894 0.99738 0.46031 0.0
H357 H 0.16548 0.86072 0.57507 0.0
H358 H 0.235 0.91127 0.43844 0.0
H359 H 0.21674 0.96969 0.58501 0.0
C360 C 0.25577 0.00981 0.55906 0.0
C361 C 0.28113 0.01876 0.52298 0.0
C362 C 0.21993 0.90024 0.4686 0.0
C363 C 0.2444 0.95074 0.52078 0.0
C364 C 0.19743 0.86947 0.46167 0.0
C365 C 0.17733 0.85467 0.49981 0.0
C366 C 0.22203 0.9168 0.51389 0.0
C367 C 0.18061 0.87148 0.54483 0.0
C368 C 0.23744 0.97565 0.55822 0.0
C369 C 0.28919 0.99191 0.48842 0.0
N370 N 0.20228 0.90201 0.55062 0.0
N371 N 0.27054 0.95941 0.4878 0.0
H372 H 0.1835 0.22178 0.52908 0.0
H373 H 0.9665 0.22508 0.57894 0.0
H374 H 0.11748 0.12251 0.53174 0.0
H375 H 0.02216 0.30866 0.4962 0.0
H376 H 0.0254 0.19187 0.58686 0.0
H377 H 0.12742 0.25842 0.5417 0.0
C378 C 0.15723 0.20774 0.53317 0.0
C379 C 0.15485 0.1692 0.52914 0.0
C380 C 0.02469 0.21785 0.56779 0.0
C381 C 0.09109 0.21065 0.54404 0.0
C382 C 0.99133 0.23689 0.56364 0.0
C383 C 0.98973 0.26947 0.53677 0.0
C384 C 0.05653 0.23207 0.54584 0.0
C385 C 0.02241 0.28348 0.51699 0.0
C386 C 0.12537 0.22859 0.54015 0.0
C387 C 0.1202 0.15223 0.53418 0.0
N388 N 0.05456 0.26467 0.52186 0.0
N389 N 0.08955 0.17309 0.54141 0.0
H390 H 0.80893 0.1583 0.43556 0.0
H391 H 0.76456 0.98109 0.5892 0.0
H392 H 0.84806 0.15036 0.58043 0.0
H393 H 0.69623 0.01873 0.47291 0.0
H394 H 0.79657 0.04121 0.589 0.0
H395 H 0.76993 0.10425 0.4485 0.0
C396 C 0.80946 0.14487 0.47003 0.0
C397 C 0.83198 0.15837 0.50682 0.0
C398 C 0.77407 0.03641 0.56424 0.0
C399 C 0.78719 0.09663 0.52221 0.0
C400 C 0.75569 1.00227 0.56452 0.0
C401 C 0.72808 0.99483 0.53057 0.0
C402 C 0.76484 0.06278 0.52949 0.0
C403 C 0.71777 0.02309 0.49919 0.0
C404 C 0.7869 0.1143 0.47765 0.0
C405 C 0.83105 0.14053 0.55124 0.0
N406 N 0.7365 0.05553 0.49894 0.0
N407 N 0.80928 0.11017 0.55764 0.0
H408 H 0.22336 0.25721 0.39764 0.0
H409 H 0.27477 0.34112 0.142 0.0
H410 H 0.33282 0.24965 0.33803 0.0
H411 H 0.16512 0.30463 0.18017 0.0
H412 H 0.29722 0.32005 0.21996 0.0
H413 H 0.20256 0.28835 0.32484 0.0
C414 C 0.24322 0.26292 0.3697 0.0
C415 C 0.27986 0.25084 0.37383 0.0
C416 C 0.26824 0.31683 0.21119 0.0
C417 C 0.2562 0.28607 0.29034 0.0
C418 C 0.25539 0.32882 0.16673 0.0
C419 C 0.21805 0.32425 0.15422 0.0
C420 C 0.24344 0.30087 0.24377 0.0
C421 C 0.19419 0.30835 0.18798 0.0
C422 C 0.23125 0.2803 0.32798 0.0
C423 C 0.30429 0.25841 0.33614 0.0
N424 N 0.20724 0.29734 0.23116 0.0
N425 N 0.29202 0.27546 0.29591 0.0
H426 H 0.67069 0.27575 0.14629 0.0
H427 H 0.75807 0.22884 0.4018 0.0
H428 H 0.70324 0.16634 0.18994 0.0
H429 H 0.75872 0.33901 0.3434 0.0
H430 H 0.72795 0.20645 0.32925 0.0
H431 H 0.69401 0.30011 0.2224 0.0
C432 C 0.68266 0.25682 0.17178 0.0
C433 C 0.68525 0.21891 0.16137 0.0
C434 C 0.73437 0.23559 0.33242 0.0
C435 C 0.71144 0.2466 0.24888 0.0
C436 C 0.75119 0.24852 0.37414 0.0
C437 C 0.76085 0.28596 0.37891 0.0
C438 C 0.72682 0.26022 0.29503 0.0
C439 C 0.75194 0.30991 0.3412 0.0
C440 C 0.69597 0.27078 0.21523 0.0
C441 C 0.70086 0.19576 0.19609 0.0
N442 N 0.73547 0.29666 0.30085 0.0
N443 N 0.71323 0.20993 0.23817 0.0
H444 H 0.75664 0.65117 0.15851 0.0
H445 H 0.7643 0.8255 0.33309 0.0
H446 H 0.8325 0.74268 0.14333 0.0
H447 H 0.71179 0.72374 0.37568 0.0
H448 H 0.78587 0.79568 0.26052 0.0
H449 H 0.73632 0.67709 0.23534 0.0
C450 C 0.76908 0.67659 0.17129 0.0
C451 C 0.7963 0.6948 0.14426 0.0
C452 C 0.76976 0.77965 0.28562 0.0
C453 C 0.77306 0.72455 0.23174 0.0
C454 C 0.75728 0.79675 0.32701 0.0
C455 C 0.73595 0.77714 0.3602 0.0
C456 C 0.7607 0.74253 0.27673 0.0
C457 C 0.72816 0.73978 0.35088 0.0
C458 C 0.75754 0.69126 0.21517 0.0
C459 C 0.81145 0.7276 0.16268 0.0
N460 N 0.74026 0.72368 0.30967 0.0
N461 N 0.79951 0.74142 0.20494 0.0
H462 H 0.36581 0.75201 0.16499 0.0
H463 H 0.18581 0.74226 0.32759 0.0
H464 H 0.27231 0.82447 0.14825 0.0
H465 H 0.29171 0.709 0.38313 0.0
H466 H 0.216 0.76436 0.25534 0.0
H467 H 0.33833 0.72846 0.23938 0.0
C468 C 0.33959 0.76298 0.1769 0.0
C469 C 0.32137 0.79033 0.1503 0.0
C470 C 0.23272 0.75216 0.28319 0.0
C471 C 0.28973 0.76318 0.23472 0.0
C472 C 0.21547 0.73923 0.32432 0.0
C473 C 0.23624 0.7234 0.36127 0.0
C474 C 0.27115 0.74899 0.27835 0.0
C475 C 0.27471 0.72095 0.35541 0.0
C476 C 0.32404 0.74962 0.21938 0.0
C477 C 0.28748 0.80353 0.16751 0.0
N478 N 0.29098 0.73337 0.31449 0.0
N479 N 0.2727 0.78966 0.20826 0.0
H480 H 0.7489 0.86266 0.66217 0.0
H481 H 0.75561 0.68401 0.82696 0.0
H482 H 0.67791 0.76785 0.64194 0.0
H483 H 0.79299 0.79004 0.87855 0.0
H484 H 0.73238 0.71351 0.75483 0.0
H485 H 0.77043 0.83603 0.73775 0.0
C486 C 0.73777 0.83633 0.67362 0.0
C487 C 0.71154 0.81745 0.64559 0.0
C488 C 0.74559 0.73044 0.78185 0.0
C489 C 0.73635 0.78678 0.73162 0.0
C490 C 0.75909 0.71358 0.8229 0.0
C491 C 0.77658 0.7346 0.85853 0.0
C492 C 0.74988 0.76867 0.77584 0.0
C493 C 0.77974 0.7729 0.85181 0.0
C494 C 0.74999 0.82125 0.71681 0.0
C495 C 0.69806 0.78346 0.66229 0.0
N496 N 0.76681 0.78874 0.81096 0.0
N497 N 0.71082 0.76914 0.70392 0.0
H498 H 0.20349 0.76663 0.62462 0.0
H499 H 0.24658 0.73098 0.90022 0.0
H500 H 0.13956 0.69204 0.71189 0.0
H501 H 0.28234 0.82966 0.82689 0.0
H502 H 0.21089 0.71333 0.82988 0.0
H503 H 0.23766 0.78629 0.69608 0.0
C504 C 0.19673 0.75427 0.65867 0.0
C505 C 0.16847 0.72773 0.66221 0.0
C506 C 0.22641 0.73896 0.82931 0.0
C507 C 0.20757 0.74995 0.74401 0.0
C508 C 0.24659 0.74933 0.86977 0.0
C509 C 0.26773 0.782 0.86994 0.0
C510 C 0.22759 0.76106 0.78822 0.0
C511 C 0.26712 0.80392 0.82847 0.0
C512 C 0.21611 0.76564 0.69948 0.0
C513 C 0.16096 0.7127 0.70738 0.0
N514 N 0.24767 0.79294 0.78929 0.0
N515 N 0.18043 0.72389 0.74636 0.0
H516 H 0.2553 0.14995 0.66067 0.0
H517 H 0.26946 0.31571 0.84793 0.0
H518 H 0.33978 0.23435 0.65663 0.0
H519 H 0.20623 0.21742 0.87775 0.0
H520 H 0.29323 0.28673 0.77557 0.0
H521 H 0.23451 0.17439 0.73788 0.0
C522 C 0.26957 0.1735 0.67602 0.0
C523 C 0.29933 0.19016 0.65195 0.0
C524 C 0.27437 0.27125 0.79792 0.0
C525 C 0.27549 0.21832 0.74007 0.0
C526 C 0.26077 0.28783 0.83916 0.0
C527 C 0.23584 0.26889 0.86857 0.0
C528 C 0.26264 0.2355 0.78541 0.0
C529 C 0.22549 0.23281 0.85588 0.0
C530 C 0.25774 0.18734 0.72015 0.0
C531 C 0.31675 0.22056 0.67367 0.0
N532 N 0.23869 0.21732 0.81487 0.0
N533 N 0.30443 0.23374 0.71618 0.0
H534 H 0.77379 0.27606 0.91117 0.0
H535 H 0.80981 0.24578 0.633 0.0
H536 H 0.73579 0.17948 0.83457 0.0
H537 H 0.87672 0.31871 0.71954 0.0
H538 H 0.77834 0.22453 0.70533 0.0
H539 H 0.80925 0.2945 0.8409 0.0
C540 C 0.77331 0.25834 0.88002 0.0
C541 C 0.75138 0.2262 0.87902 0.0
C542 C 0.79998 0.24513 0.70844 0.0
C543 C 0.79118 0.24794 0.79767 0.0
C544 C 0.81784 0.25741 0.66711 0.0
C545 C 0.84609 0.28399 0.67011 0.0
C546 C 0.81001 0.25991 0.75308 0.0
C547 C 0.85523 0.29807 0.71543 0.0
C548 C 0.79333 0.26913 0.83966 0.0
C549 C 0.75154 0.20488 0.83694 0.0
N550 N 0.83717 0.28601 0.75502 0.0
N551 N 0.77073 0.2163 0.79793 0.0
H552 H 0.90318 0.53206 0.08041 0.0
H553 H 0.11719 0.48725 0.04044 0.0
H554 H 0.98343 0.61085 0.02772 0.0
H555 H 0.03561 0.40416 0.0742 0.0
H556 H 0.06965 0.53452 0.04664 0.0
H557 H 0.95227 0.48683 0.08837 0.0
C558 C 0.93084 0.54021 0.07046 0.0
C559 C 0.93845 0.57573 0.05242 0.0
C560 C 0.06215 0.50598 0.05306 0.0
C561 C 0.99529 0.52346 0.0622 0.0
C562 C 0.08943 0.47892 0.04993 0.0
C563 C 0.08045 0.44151 0.0566 0.0
C564 C 0.0255 0.49572 0.063 0.0
C565 C 0.04371 0.43254 0.06809 0.0
C566 C 0.95902 0.51414 0.07523 0.0
C567 C 0.97551 0.58414 0.04139 0.0
N568 N 0.01757 0.45939 0.07069 0.0
N569 N 1.00231 0.55823 0.04618 0.0
H570 H 0.52548 0.11377 0.05715 0.0
H571 H 0.48935 0.8961 0.0562 0.0
H572 H 0.61256 0.03292 0.0662 0.0
H573 H 0.40211 0.97684 0.06463 0.0
H574 H 0.53469 0.94562 0.06474 0.0
H575 H 0.48001 0.06427 0.06478 0.0
C576 C 0.5352 0.08576 0.06145 0.0
C577 C 0.57316 0.07769 0.06061 0.0
C578 C 0.50561 0.95249 0.06512 0.0
C579 C 0.52084 0.0205 0.06851 0.0
C580 C 0.47955 0.92409 0.06055 0.0
C581 C 0.44159 0.93211 0.05928 0.0
C582 C 0.49381 0.98935 0.06822 0.0
C583 C 0.43096 0.96924 0.06447 0.0
C584 C 0.50909 0.05738 0.0655 0.0
C585 C 0.58372 0.04055 0.06572 0.0
N586 N 0.45687 0.99641 0.06831 0.0
N587 N 0.55777 0.01341 0.06904 0.0
H588 H 0.4798 0.11414 0.55508 0.0
H589 H 0.52932 0.89864 0.55396 0.0
H590 H 0.39817 0.02711 0.54723 0.0
H591 H 0.61082 0.98587 0.54856 0.0
H592 H 0.48092 0.94522 0.56108 0.0
H593 H 0.52806 0.06748 0.56229 0.0
C594 C 0.47194 0.08527 0.55509 0.0
C595 C 0.43475 0.07471 0.55014 0.0
C596 C 0.50944 0.95414 0.55873 0.0
C597 C 0.49002 0.02095 0.55864 0.0
C598 C 0.53712 0.92752 0.5545 0.0
C599 C 0.57433 0.93818 0.55029 0.0
C600 C 0.51891 0.99181 0.55867 0.0
C601 C 0.5827 0.97612 0.55209 0.0
C602 C 0.49954 0.0586 0.55937 0.0
C603 C 0.4263 0.03677 0.5513 0.0
N604 N 0.55523 1.00149 0.55577 0.0
N605 N 0.4537 0.01133 0.55506 0.0
H606 H 0.02124 0.61626 0.551 0.0
H607 H 0.98624 0.39767 0.5502 0.0
H608 H 0.10866 0.53562 0.54503 0.0
H609 H 0.89845 0.47802 0.55099 0.0
H610 H 0.03132 0.44782 0.54928 0.0
H611 H 0.97597 0.56619 0.55198 0.0
C612 C 0.03102 0.58809 0.54959 0.0
C613 C 0.06902 0.58033 0.54771 0.0
C614 C 1.0022 0.45452 0.54963 0.0
C615 C 0.01702 0.52258 0.54944 0.0
C616 C 0.97632 0.42581 0.54985 0.0
C617 C 0.93828 0.43346 0.55039 0.0
C618 C 0.99014 0.49134 0.54999 0.0
C619 C 0.92737 0.47067 0.55098 0.0
C620 C 1.00506 0.55943 0.55045 0.0
C621 C 0.07981 0.54308 0.54695 0.0
N622 N 0.95313 0.49816 0.55067 0.0
N623 N 0.05398 0.51567 0.54773 0.0
loop_
_geom_bond_atom_site_label_1
_geom_bond_atom_site_label_2
_geom_bond_distance
_geom_bond_site_symmetry_2
_ccdc_geom_bond_type
C0 C1 1.351 . S
C0 N3 1.368 1_556 S
C0 H5 0.931 . S
C1 C0 1.351 . S
C1 N2 1.373 1_556 S
C1 H29 0.930 . S
N2 C1 1.373 1_554 S
N2 C4 1.340 . S
N3 C0 1.368 1_554 S
N3 C4 1.321 . S
N3 Co6 2.135 . S
C4 N2 1.340 . S
C4 N3 1.321 . S
C4 H28 0.930 . S
H5 C0 0.931 . S
Co6 N3 2.135 . S
Co6 N9 2.121 . S
Co6 O14 2.055 . S
Co6 O17 2.039 . S
Co6 N20 2.140 1_554 S
C7 O8 1.227 . S
C7 O17 1.265 . S
O8 C7 1.227 . S
N9 Co6 2.121 . S
N9 C11 1.375 . S
N9 C12 1.313 . S
C10 C11 1.338 . S
C10 N13 1.377 . S
C10 H30 0.930 . S
C11 N9 1.375 . S
C11 C10 1.338 . S
C11 H15 0.931 . S
C12 N9 1.313 . S
C12 N13 1.344 . S
C12 H16 0.930 . S
N13 C10 1.377 . S
N13 C12 1.344 . S
O14 Co6 2.055 . S
O14 C18 1.245 1_554 S
H15 C11 0.931 . S
H16 C12 0.930 . S
O17 Co6 2.039 . S
O17 C7 1.265 . S
C18 O14 1.245 1_556 S
C18 O19 1.234 . S
O19 C18 1.234 . S
N20 Co6 2.140 1_556 S
N20 C23 1.346 . S
N20 C24 1.345 . S
C21 C22 1.387 . S
C21 C25 1.391 . S
C22 C21 1.387 . S
C22 C23 1.369 . S
C22 H31 0.929 . S
C23 N20 1.346 . S
C23 C22 1.369 . S
C23 H26 0.928 . S
C24 N20 1.345 . S
C24 C25 1.371 . S
C24 H27 0.931 . S
C25 C21 1.391 . S
C25 C24 1.371 . S
C25 H32 0.930 . S
H26 C23 0.928 . S
H27 C24 0.931 . S
H28 C4 0.930 . S
H29 C1 0.930 . S
H30 C10 0.930 . S
H31 C22 0.929 . S
H32 C25 0.930 . S
C33 C34 1.351 . S
C33 N36 1.368 1_556 S
C33 H38 0.931 . S
C34 C33 1.351 . S
C34 N35 1.373 1_556 S
C34 H62 0.930 . S
N35 C34 1.373 1_554 S
N35 C37 1.340 . S
N36 C33 1.368 1_554 S
N36 C37 1.321 . S
N36 Co39 2.135 . S
C37 N35 1.340 . S
C37 N36 1.321 . S
C37 H61 0.930 . S
H38 C33 0.931 . S
Co39 N36 2.135 . S
Co39 N42 2.121 . S
Co39 O47 2.055 . S
Co39 O50 2.039 . S
Co39 N53 2.140 1_554 S
C40 O41 1.227 . S
C40 O50 1.265 . S
O41 C40 1.227 . S
N42 Co39 2.121 . S
N42 C44 1.375 . S
N42 C45 1.313 . S
C43 C44 1.338 . S
C43 N46 1.377 . S
C43 H63 0.930 . S
C44 N42 1.375 . S
C44 C43 1.338 . S
C44 H48 0.931 . S
C45 N42 1.313 . S
C45 N46 1.344 . S
C45 H49 0.930 . S
N46 C43 1.377 . S
N46 C45 1.344 . S
O47 Co39 2.055 . S
O47 C51 1.245 1_554 S
H48 C44 0.931 . S
H49 C45 0.930 . S
O50 Co39 2.039 . S
O50 C40 1.265 . S
C51 O47 1.245 1_556 S
C51 O52 1.234 . S
O52 C51 1.234 . S
N53 Co39 2.140 1_556 S
N53 C56 1.346 . S
N53 C57 1.345 . S
C54 C55 1.387 . S
C54 C58 1.391 . S
C55 C54 1.387 . S
C55 C56 1.369 . S
C55 H64 0.929 . S
C56 N53 1.346 . S
C56 C55 1.369 . S
C56 H59 0.928 . S
C57 N53 1.345 . S
C57 C58 1.371 . S
C57 H60 0.931 . S
C58 C54 1.391 . S
C58 C57 1.371 . S
C58 H65 0.930 . S
H59 C56 0.928 . S
H60 C57 0.931 . S
H61 C37 0.930 . S
H62 C34 0.930 . S
H63 C43 0.930 . S
H64 C55 0.929 . S
H65 C58 0.930 . S
C66 C67 1.351 . S
C66 N69 1.368 1_556 S
C66 H71 0.931 . S
C67 C66 1.351 . S
C67 N68 1.373 1_556 S
C67 H95 0.930 . S
N68 C67 1.373 1_554 S
N68 C70 1.340 . S
N69 C66 1.368 1_554 S
N69 C70 1.321 . S
N69 Co72 2.135 . S
C70 N68 1.340 . S
C70 N69 1.321 . S
C70 H94 0.930 . S
H71 C66 0.931 . S
Co72 N69 2.135 . S
Co72 N75 2.121 . S
Co72 O80 2.055 . S
Co72 O83 2.039 . S
Co72 N86 2.140 1_554 S
C73 O74 1.227 . S
C73 O83 1.265 . S
O74 C73 1.227 . S
N75 Co72 2.121 . S
N75 C77 1.375 . S
N75 C78 1.313 . S
C76 C77 1.338 . S
C76 N79 1.377 . S
C76 H96 0.930 . S
C77 N75 1.375 . S
C77 C76 1.338 . S
C77 H81 0.931 . S
C78 N75 1.313 . S
C78 N79 1.344 . S
C78 H82 0.930 . S
N79 C76 1.377 . S
N79 C78 1.344 . S
O80 Co72 2.055 . S
O80 C84 1.245 1_554 S
H81 C77 0.931 . S
H82 C78 0.930 . S
O83 Co72 2.039 . S
O83 C73 1.265 . S
C84 O80 1.245 1_556 S
C84 O85 1.234 . S
O85 C84 1.234 . S
N86 Co72 2.140 1_556 S
N86 C89 1.346 . S
N86 C90 1.345 . S
C87 C88 1.387 . S
C87 C91 1.391 . S
C88 C87 1.387 . S
C88 C89 1.369 . S
C88 H97 0.929 . S
C89 N86 1.346 . S
C89 C88 1.369 . S
C89 H92 0.928 . S
C90 N86 1.345 . S
C90 C91 1.371 . S
C90 H93 0.931 . S
C91 C87 1.391 . S
C91 C90 1.371 . S
C91 H98 0.930 . S
H92 C89 0.928 . S
H93 C90 0.931 . S
H94 C70 0.930 . S
H95 C67 0.930 . S
H96 C76 0.930 . S
H97 C88 0.929 . S
H98 C91 0.930 . S
C99 C100 1.351 . S
C99 N102 1.368 1_556 S
C99 H104 0.931 . S
C100 C99 1.351 . S
C100 N101 1.373 1_556 S
C100 H128 0.930 . S
N101 C100 1.373 1_554 S
N101 C103 1.340 . S
N102 C99 1.368 1_554 S
N102 C103 1.321 . S
N102 Co105 2.135 . S
C103 N101 1.340 . S
C103 N102 1.321 . S
C103 H127 0.930 . S
H104 C99 0.931 . S
Co105 N102 2.135 . S
Co105 N108 2.121 . S
Co105 O113 2.055 . S
Co105 O116 2.039 . S
Co105 N119 2.140 1_554 S
C106 O107 1.227 . S
C106 O116 1.265 . S
O107 C106 1.227 . S
N108 Co105 2.121 . S
N108 C110 1.375 . S
N108 C111 1.313 . S
C109 C110 1.338 . S
C109 N112 1.377 . S
C109 H129 0.930 . S
C110 N108 1.375 . S
C110 C109 1.338 . S
C110 H114 0.931 . S
C111 N108 1.313 . S
C111 N112 1.344 . S
C111 H115 0.930 . S
N112 C109 1.377 . S
N112 C111 1.344 . S
O113 Co105 2.055 . S
O113 C117 1.245 1_554 S
H114 C110 0.931 . S
H115 C111 0.930 . S
O116 Co105 2.039 . S
O116 C106 1.265 . S
C117 O113 1.245 1_556 S
C117 O118 1.234 . S
O118 C117 1.234 . S
N119 Co105 2.140 1_556 S
N119 C122 1.346 . S
N119 C123 1.345 . S
C120 C121 1.387 . S
C120 C124 1.391 . S
C121 C120 1.387 . S
C121 C122 1.369 . S
C121 H130 0.929 . S
C122 N119 1.346 . S
C122 C121 1.369 . S
C122 H125 0.928 . S
C123 N119 1.345 . S
C123 C124 1.371 . S
C123 H126 0.931 . S
C124 C120 1.391 . S
C124 C123 1.371 . S
C124 H131 0.930 . S
H125 C122 0.928 . S
H126 C123 0.931 . S
H127 C103 0.930 . S
H128 C100 0.930 . S
H129 C109 0.930 . S
H130 C121 0.929 . S
H131 C124 0.930 . S
C132 C133 1.351 . S
C132 N135 1.368 . S
C132 H137 0.931 . S
C133 C132 1.351 . S
C133 N134 1.373 . S
C133 H161 0.930 . S
N134 C133 1.373 . S
N134 C136 1.340 . S
N135 C132 1.368 . S
N135 C136 1.321 . S
N135 Co138 2.135 . S
C136 N134 1.340 . S
C136 N135 1.321 . S
C136 H160 0.930 . S
H137 C132 0.931 . S
Co138 N135 2.135 . S
Co138 N141 2.121 . S
Co138 O146 2.055 . S
Co138 O149 2.039 . S
Co138 N152 2.140 . S
C139 O140 1.227 . S
C139 O149 1.265 . S
O140 C139 1.227 . S
N141 Co138 2.121 . S
N141 C143 1.375 . S
N141 C144 1.313 . S
C142 C143 1.338 . S
C142 N145 1.377 . S
C142 H162 0.930 . S
C143 N141 1.375 . S
C143 C142 1.338 . S
C143 H147 0.931 . S
C144 N141 1.313 . S
C144 N145 1.344 . S
C144 H148 0.930 . S
N145 C142 1.377 . S
N145 C144 1.344 . S
O146 Co138 2.055 . S
O146 C150 1.253 . S
H147 C143 0.931 . S
H148 C144 0.930 . S
O149 Co138 2.039 . S
O149 C139 1.265 . S
C150 O146 1.253 . S
C150 O151 1.227 . S
O151 C150 1.227 . S
N152 Co138 2.140 . S
N152 C155 1.346 . S
N152 C156 1.345 . S
C153 C154 1.387 . S
C153 C157 1.391 . S
C154 C153 1.387 . S
C154 C155 1.369 . S
C154 H163 0.929 . S
C155 N152 1.346 . S
C155 C154 1.369 . S
C155 H158 0.928 . S
C156 N152 1.345 . S
C156 C157 1.371 . S
C156 H159 0.931 . S
C157 C153 1.391 . S
C157 C156 1.371 . S
C157 H164 0.930 . S
H158 C155 0.928 . S
H159 C156 0.931 . S
H160 C136 0.930 . S
H161 C133 0.930 . S
H162 C142 0.930 . S
H163 C154 0.929 . S
H164 C157 0.930 . S
C165 C166 1.351 . S
C165 N168 1.368 . S
C165 H170 0.931 . S
C166 C165 1.351 . S
C166 N167 1.373 . S
C166 H194 0.930 . S
N167 C166 1.373 . S
N167 C169 1.340 . S
N168 C165 1.368 . S
N168 C169 1.321 . S
N168 Co171 2.135 . S
C169 N167 1.340 . S
C169 N168 1.321 . S
C169 H193 0.930 . S
H170 C165 0.931 . S
Co171 N168 2.135 . S
Co171 N174 2.121 . S
Co171 O179 2.055 . S
Co171 O182 2.039 . S
Co171 N185 2.140 . S
C172 O173 1.227 . S
C172 O182 1.265 . S
O173 C172 1.227 . S
N174 Co171 2.121 . S
N174 C176 1.375 . S
N174 C177 1.313 . S
C175 C176 1.338 . S
C175 N178 1.377 . S
C175 H195 0.930 . S
C176 N174 1.375 . S
C176 C175 1.338 . S
C176 H180 0.931 . S
C177 N174 1.313 . S
C177 N178 1.344 . S
C177 H181 0.930 . S
N178 C175 1.377 . S
N178 C177 1.344 . S
O179 Co171 2.055 . S
O179 C183 1.253 . S
H180 C176 0.931 . S
H181 C177 0.930 . S
O182 Co171 2.039 . S
O182 C172 1.265 . S
C183 O179 1.253 . S
C183 O184 1.227 . S
O184 C183 1.227 . S
N185 Co171 2.140 . S
N185 C188 1.346 . S
N185 C189 1.345 . S
C186 C187 1.387 . S
C186 C190 1.391 . S
C187 C186 1.387 . S
C187 C188 1.369 . S
C187 H196 0.929 . S
C188 N185 1.346 . S
C188 C187 1.369 . S
C188 H191 0.928 . S
C189 N185 1.345 . S
C189 C190 1.371 . S
C189 H192 0.931 . S
C190 C186 1.391 . S
C190 C189 1.371 . S
C190 H197 0.930 . S
H191 C188 0.928 . S
H192 C189 0.931 . S
H193 C169 0.930 . S
H194 C166 0.930 . S
H195 C175 0.930 . S
H196 C187 0.929 . S
H197 C190 0.930 . S
C198 C199 1.351 . S
C198 N201 1.368 . S
C198 H203 0.931 . S
C199 C198 1.351 . S
C199 N200 1.373 . S
C199 H227 0.930 . S
N200 C199 1.373 . S
N200 C202 1.340 . S
N201 C198 1.368 . S
N201 C202 1.321 . S
N201 Co204 2.135 . S
C202 N200 1.340 . S
C202 N201 1.321 . S
C202 H226 0.930 . S
H203 C198 0.931 . S
Co204 N201 2.135 . S
Co204 N207 2.121 . S
Co204 O212 2.055 . S
Co204 O215 2.039 . S
Co204 N218 2.140 . S
C205 O206 1.227 . S
C205 O215 1.265 . S
O206 C205 1.227 . S
N207 Co204 2.121 . S
N207 C209 1.375 . S
N207 C210 1.313 . S
C208 C209 1.338 . S
C208 N211 1.377 . S
C208 H228 0.930 . S
C209 N207 1.375 . S
C209 C208 1.338 . S
C209 H213 0.931 . S
C210 N207 1.313 . S
C210 N211 1.344 . S
C210 H214 0.930 . S
N211 C208 1.377 . S
N211 C210 1.344 . S
O212 Co204 2.055 . S
O212 C216 1.253 . S
H213 C209 0.931 . S
H214 C210 0.930 . S
O215 Co204 2.039 . S
O215 C205 1.265 . S
C216 O212 1.253 . S
C216 O217 1.227 . S
O217 C216 1.227 . S
N218 Co204 2.140 . S
N218 C221 1.346 . S
N218 C222 1.345 . S
C219 C220 1.387 . S
C219 C223 1.391 . S
C220 C219 1.387 . S
C220 C221 1.369 . S
C220 H229 0.929 . S
C221 N218 1.346 . S
C221 C220 1.369 . S
C221 H224 0.928 . S
C222 N218 1.345 . S
C222 C223 1.371 . S
C222 H225 0.931 . S
C223 C219 1.391 . S
C223 C222 1.371 . S
C223 H230 0.930 . S
H224 C221 0.928 . S
H225 C222 0.931 . S
H226 C202 0.930 . S
H227 C199 0.930 . S
H228 C208 0.930 . S
H229 C220 0.929 . S
H230 C223 0.930 . S
C231 C232 1.351 . S
C231 N234 1.368 . S
C231 H236 0.931 . S
C232 C231 1.351 . S
C232 N233 1.373 . S
C232 H260 0.930 . S
N233 C232 1.373 . S
N233 C235 1.340 . S
N234 C231 1.368 . S
N234 C235 1.321 . S
N234 Co237 2.135 . S
C235 N233 1.340 . S
C235 N234 1.321 . S
C235 H259 0.930 . S
H236 C231 0.931 . S
Co237 N234 2.135 . S
Co237 N240 2.121 . S
Co237 O245 2.055 . S
Co237 O248 2.039 . S
Co237 N251 2.140 . S
C238 O239 1.227 . S
C238 O248 1.265 . S
O239 C238 1.227 . S
N240 Co237 2.121 . S
N240 C242 1.375 . S
N240 C243 1.313 . S
C241 C242 1.338 . S
C241 N244 1.377 . S
C241 H261 0.930 . S
C242 N240 1.375 . S
C242 C241 1.338 . S
C242 H246 0.931 . S
C243 N240 1.313 . S
C243 N244 1.344 . S
C243 H247 0.930 . S
N244 C241 1.377 . S
N244 C243 1.344 . S
O245 Co237 2.055 . S
O245 C249 1.253 . S
H246 C242 0.931 . S
H247 C243 0.930 . S
O248 Co237 2.039 . S
O248 C238 1.265 . S
C249 O245 1.253 . S
C249 O250 1.227 . S
O250 C249 1.227 . S
N251 Co237 2.140 . S
N251 C254 1.346 . S
N251 C255 1.345 . S
C252 C253 1.387 . S
C252 C256 1.391 . S
C253 C252 1.387 . S
C253 C254 1.369 . S
C253 H262 0.929 . S
C254 N251 1.346 . S
C254 C253 1.369 . S
C254 H257 0.928 . S
C255 N251 1.345 . S
C255 C256 1.371 . S
C255 H258 0.931 . S
C256 C252 1.391 . S
C256 C255 1.371 . S
C256 H263 0.930 . S
H257 C254 0.928 . S
H258 C255 0.931 . S
H259 C235 0.930 . S
H260 C232 0.930 . S
H261 C241 0.930 . S
H262 C253 0.929 . S
H263 C256 0.930 . S
H264 C270 0.930 . S
H265 C274 0.930 . S
H266 C279 0.929 . S
H267 C277 0.929 . S
H268 C272 0.929 . S
H269 C278 0.929 . S
C270 H264 0.930 . S
C270 C271 1.379 . S
C270 C278 1.378 . S
C271 C270 1.379 . S
C271 C279 1.422 1_554 S
C272 H268 0.929 . S
C272 C274 1.378 . S
C272 C276 1.350 1_556 S
C273 C276 1.463 . S
C273 C278 1.350 . S
C273 N281 1.427 1_554 S
C274 H265 0.930 . S
C274 C272 1.378 . S
C274 C275 1.367 1_556 S
C275 C274 1.367 1_554 S
C275 C277 1.433 . S
C276 C272 1.350 1_554 S
C276 C273 1.463 . S
C276 N280 1.427 . S
C277 H267 0.929 . S
C277 C275 1.433 . S
C277 N280 1.384 . S
C278 H269 0.929 . S
C278 C270 1.378 . S
C278 C273 1.350 . S
C279 H266 0.929 . S
C279 C271 1.422 1_556 S
C279 N281 1.384 . S
N280 C276 1.427 . S
N280 C277 1.384 . S
N281 C273 1.427 1_556 S
N281 C279 1.384 . S
H282 C288 0.930 . S
H283 C292 0.930 . S
H284 C297 0.929 . S
H285 C295 0.929 . S
H286 C290 0.929 . S
H287 C296 0.929 . S
C288 H282 0.930 . S
C288 C289 1.367 . S
C288 C296 1.378 . S
C289 C288 1.367 . S
C289 C297 1.433 1_554 S
C290 H286 0.929 . S
C290 C292 1.378 . S
C290 C294 1.350 1_556 S
C291 C294 1.463 . S
C291 C296 1.350 . S
C291 N299 1.427 1_554 S
C292 H283 0.930 . S
C292 C290 1.378 . S
C292 C293 1.367 . S
C293 C292 1.367 . S
C293 C295 1.433 1_556 S
C294 C290 1.350 1_554 S
C294 C291 1.463 . S
C294 N298 1.427 . S
C295 H285 0.929 . S
C295 C293 1.433 1_554 S
C295 N298 1.384 . S
C296 H287 0.929 . S
C296 C288 1.378 . S
C296 C291 1.350 . S
C297 H284 0.929 . S
C297 C289 1.433 1_556 S
C297 N299 1.384 . S
N298 C294 1.427 . S
N298 C295 1.384 . S
N299 C291 1.427 1_556 S
N299 C297 1.384 . S
H300 C306 0.930 . S
H301 C310 0.930 . S
H302 C315 0.929 . S
H303 C313 0.929 . S
H304 C308 0.929 . S
H305 C314 0.929 . S
C306 H300 0.930 . S
C306 C307 1.367 1_556 S
C306 C314 1.378 . S
C307 C306 1.367 1_554 S
C307 C315 1.433 . S
C308 H304 0.929 . S
C308 C310 1.378 . S
C308 C312 1.350 . S
C309 C312 1.463 . S
C309 C314 1.350 1_554 S
C309 N317 1.427 . S
C310 H301 0.930 . S
C310 C308 1.378 . S
C310 C311 1.379 . S
C311 C310 1.379 . S
C311 C313 1.422 1_554 S
C312 C308 1.350 . S
C312 C309 1.463 . S
C312 N316 1.427 1_554 S
C313 H303 0.929 . S
C313 C311 1.422 1_556 S
C313 N316 1.384 . S
C314 H305 0.929 . S
C314 C306 1.378 . S
C314 C309 1.350 1_556 S
C315 H302 0.929 . S
C315 C307 1.433 . S
C315 N317 1.384 . S
N316 C312 1.427 1_556 S
N316 C313 1.384 . S
N317 C309 1.427 . S
N317 C315 1.384 . S
H318 C324 0.930 . S
H319 C328 0.930 . S
H320 C333 0.929 . S
H321 C331 0.929 . S
H322 C326 0.929 . S
H323 C332 0.929 . S
C324 H318 0.930 . S
C324 C325 1.375 . S
C324 C332 1.378 . S
C325 C324 1.375 . S
C325 C333 1.426 1_554 S
C326 H322 0.929 . S
C326 C328 1.378 . S
C326 C330 1.350 1_556 S
C327 C330 1.463 . S
C327 C332 1.350 . S
C327 N335 1.427 1_554 S
C328 H319 0.930 . S
C328 C326 1.378 . S
C328 C329 1.367 1_556 S
C329 C328 1.367 1_554 S
C329 C331 1.433 . S
C330 C326 1.350 1_554 S
C330 C327 1.463 . S
C330 N334 1.427 . S
C331 H321 0.929 . S
C331 C329 1.433 . S
C331 N334 1.384 . S
C332 H323 0.929 . S
C332 C324 1.378 . S
C332 C327 1.350 . S
C333 H320 0.929 . S
C333 C325 1.426 1_556 S
C333 N335 1.384 . S
N334 C330 1.427 . S
N334 C331 1.384 . S
N335 C327 1.427 1_556 S
N335 C333 1.384 . S
H336 C342 0.930 . S
H337 C346 0.930 . S
H338 C351 0.929 . S
H339 C349 0.929 . S
H340 C344 0.929 . S
H341 C350 0.929 . S
C342 H336 0.930 . S
C342 C343 1.367 . S
C342 C350 1.378 1_455 S
C343 C342 1.367 . S
C343 C351 1.433 . S
C344 H340 0.929 . S
C344 C346 1.378 . S
C344 C348 1.350 . S
C345 C348 1.463 . S
C345 C350 1.350 . S
C345 N353 1.427 . S
C346 H337 0.930 . S
C346 C344 1.378 . S
C346 C347 1.367 . S
C347 C346 1.367 . S
C347 C349 1.433 . S
C348 C344 1.350 . S
C348 C345 1.463 . S
C348 N352 1.427 . S
C349 H339 0.929 . S
C349 C347 1.433 . S
C349 N352 1.384 . S
C350 H341 0.929 . S
C350 C342 1.378 1_655 S
C350 C345 1.350 . S
C351 H338 0.929 . S
C351 C343 1.433 . S
C351 N353 1.384 1_455 S
N352 C348 1.427 . S
N352 C349 1.384 . S
N353 C345 1.427 . S
N353 C351 1.384 1_655 S
H354 C360 0.930 . S
H355 C364 0.930 . S
H356 C369 0.929 . S
H357 C367 0.929 . S
H358 C362 0.929 . S
H359 C368 0.929 . S
C360 H354 0.930 . S
C360 C361 1.367 . S
C360 C368 1.378 1_545 S
C361 C360 1.367 . S
C361 C369 1.433 . S
C362 H358 0.929 . S
C362 C364 1.378 . S
C362 C366 1.350 . S
C363 C366 1.463 . S
C363 C368 1.350 . S
C363 N371 1.427 . S
C364 H355 0.930 . S
C364 C362 1.378 . S
C364 C365 1.367 . S
C365 C364 1.367 . S
C365 C367 1.433 . S
C366 C362 1.350 . S
C366 C363 1.463 . S
C366 N370 1.427 . S
C367 H357 0.929 . S
C367 C365 1.433 . S
C367 N370 1.384 . S
C368 H359 0.929 . S
C368 C360 1.378 1_565 S
C368 C363 1.350 . S
C369 H356 0.929 . S
C369 C361 1.433 . S
C369 N371 1.384 1_545 S
N370 C366 1.427 . S
N370 C367 1.384 . S
N371 C363 1.427 . S
N371 C369 1.384 1_565 S
H372 C378 0.930 . S
H373 C382 0.930 . S
H374 C387 0.929 . S
H375 C385 0.929 . S
H376 C380 0.929 . S
H377 C386 0.929 . S
C378 H372 0.930 . S
C378 C379 1.367 . S
C378 C386 1.378 . S
C379 C378 1.367 . S
C379 C387 1.433 . S
C380 H376 0.929 . S
C380 C382 1.378 1_455 S
C380 C384 1.350 . S
C381 C384 1.463 . S
C381 C386 1.350 . S
C381 N389 1.427 . S
C382 H373 0.930 . S
C382 C380 1.378 1_655 S
C382 C383 1.367 . S
C383 C382 1.367 . S
C383 C385 1.433 . S
C384 C380 1.350 . S
C384 C381 1.463 . S
C384 N388 1.427 . S
C385 H375 0.929 . S
C385 C383 1.433 . S
C385 N388 1.384 1_655 S
C386 H377 0.929 . S
C386 C378 1.378 . S
C386 C381 1.350 . S
C387 H374 0.929 . S
C387 C379 1.433 . S
C387 N389 1.384 . S
N388 C384 1.427 . S
N388 C385 1.384 1_455 S
N389 C381 1.427 . S
N389 C387 1.384 . S
H390 C396 0.930 . S
H391 C400 0.930 . S
H392 C405 0.929 . S
H393 C403 0.929 . S
H394 C398 0.929 . S
H395 C404 0.929 . S
C396 H390 0.930 . S
C396 C397 1.367 . S
C396 C404 1.378 . S
C397 C396 1.367 . S
C397 C405 1.433 . S
C398 H394 0.929 . S
C398 C400 1.378 1_545 S
C398 C402 1.350 . S
C399 C402 1.463 . S
C399 C404 1.350 . S
C399 N407 1.427 . S
C400 H391 0.930 . S
C400 C398 1.378 1_565 S
C400 C401 1.367 . S
C401 C400 1.367 . S
C401 C403 1.433 . S
C402 C398 1.350 . S
C402 C399 1.463 . S
C402 N406 1.427 . S
C403 H393 0.929 . S
C403 C401 1.433 . S
C403 N406 1.384 1_565 S
C404 H395 0.929 . S
C404 C396 1.378 . S
C404 C399 1.350 . S
C405 H392 0.929 . S
C405 C397 1.433 . S
C405 N407 1.384 . S
N406 C402 1.427 . S
N406 C403 1.384 1_545 S
N407 C399 1.427 . S
N407 C405 1.384 . S
H408 C414 0.930 . S
H409 C418 0.930 . S
H410 C423 0.929 . S
H411 C421 0.929 . S
H412 C416 0.929 . S
H413 C422 0.929 . S
C414 H408 0.930 . S
C414 C415 1.367 . S
C414 C422 1.378 . S
C415 C414 1.367 . S
C415 C423 1.433 . S
C416 H412 0.929 . S
C416 C418 1.378 . S
C416 C420 1.350 . S
C417 C420 1.463 . S
C417 C422 1.350 . S
C417 N425 1.427 . S
C418 H409 0.930 . S
C418 C416 1.378 . S
C418 C419 1.367 . S
C419 C418 1.367 . S
C419 C421 1.433 . S
C420 C416 1.350 . S
C420 C417 1.463 . S
C420 N424 1.427 . S
C421 H411 0.929 . S
C421 C419 1.433 . S
C421 N424 1.384 . S
C422 H413 0.929 . S
C422 C414 1.378 . S
C422 C417 1.350 . S
C423 H410 0.929 . S
C423 C415 1.433 . S
C423 N425 1.384 . S
N424 C420 1.427 . S
N424 C421 1.384 . S
N425 C417 1.427 . S
N425 C423 1.384 . S
H426 C432 0.930 . S
H427 C436 0.930 . S
H428 C441 0.929 . S
H429 C439 0.929 . S
H430 C434 0.929 . S
H431 C440 0.929 . S
C432 H426 0.930 . S
C432 C433 1.367 . S
C432 C440 1.378 . S
C433 C432 1.367 . S
C433 C441 1.433 . S
C434 H430 0.929 . S
C434 C436 1.378 . S
C434 C438 1.350 . S
C435 C438 1.463 . S
C435 C440 1.350 . S
C435 N443 1.427 . S
C436 H427 0.930 . S
C436 C434 1.378 . S
C436 C437 1.367 . S
C437 C436 1.367 . S
C437 C439 1.433 . S
C438 C434 1.350 . S
C438 C435 1.463 . S
C438 N442 1.427 . S
C439 H429 0.929 . S
C439 C437 1.433 . S
C439 N442 1.384 . S
C440 H431 0.929 . S
C440 C432 1.378 . S
C440 C435 1.350 . S
C441 H428 0.929 . S
C441 C433 1.433 . S
C441 N443 1.384 . S
N442 C438 1.427 . S
N442 C439 1.384 . S
N443 C435 1.427 . S
N443 C441 1.384 . S
H444 C450 0.930 . S
H445 C454 0.930 . S
H446 C459 0.929 . S
H447 C457 0.929 . S
H448 C452 0.929 . S
H449 C458 0.929 . S
C450 H444 0.930 . S
C450 C451 1.367 . S
C450 C458 1.378 . S
C451 C450 1.367 . S
C451 C459 1.433 . S
C452 H448 0.929 . S
C452 C454 1.378 . S
C452 C456 1.350 . S
C453 C456 1.463 . S
C453 C458 1.350 . S
C453 N461 1.427 . S
C454 H445 0.930 . S
C454 C452 1.378 . S
C454 C455 1.367 . S
C455 C454 1.367 . S
C455 C457 1.433 . S
C456 C452 1.350 . S
C456 C453 1.463 . S
C456 N460 1.427 . S
C457 H447 0.929 . S
C457 C455 1.433 . S
C457 N460 1.384 . S
C458 H449 0.929 . S
C458 C450 1.378 . S
C458 C453 1.350 . S
C459 H446 0.929 . S
C459 C451 1.433 . S
C459 N461 1.384 . S
N460 C456 1.427 . S
N460 C457 1.384 . S
N461 C453 1.427 . S
N461 C459 1.384 . S
H462 C468 0.930 . S
H463 C472 0.930 . S
H464 C477 0.929 . S
H465 C475 0.929 . S
H466 C470 0.929 . S
H467 C476 0.929 . S
C468 H462 0.930 . S
C468 C469 1.367 . S
C468 C476 1.378 . S
C469 C468 1.367 . S
C469 C477 1.433 . S
C470 H466 0.929 . S
C470 C472 1.378 . S
C470 C474 1.350 . S
C471 C474 1.463 . S
C471 C476 1.350 . S
C471 N479 1.427 . S
C472 H463 0.930 . S
C472 C470 1.378 . S
C472 C473 1.367 . S
C473 C472 1.367 . S
C473 C475 1.433 . S
C474 C470 1.350 . S
C474 C471 1.463 . S
C474 N478 1.427 . S
C475 H465 0.929 . S
C475 C473 1.433 . S
C475 N478 1.384 . S
C476 H467 0.929 . S
C476 C468 1.378 . S
C476 C471 1.350 . S
C477 H464 0.929 . S
C477 C469 1.433 . S
C477 N479 1.384 . S
N478 C474 1.427 . S
N478 C475 1.384 . S
N479 C471 1.427 . S
N479 C477 1.384 . S
H480 C486 0.930 . S
H481 C490 0.930 . S
H482 C495 0.929 . S
H483 C493 0.929 . S
H484 C488 0.929 . S
H485 C494 0.929 . S
C486 H480 0.930 . S
C486 C487 1.367 . S
C486 C494 1.378 . S
C487 C486 1.367 . S
C487 C495 1.433 . S
C488 H484 0.929 . S
C488 C490 1.378 . S
C488 C492 1.350 . S
C489 C492 1.463 . S
C489 C494 1.350 . S
C489 N497 1.427 . S
C490 H481 0.930 . S
C490 C488 1.378 . S
C490 C491 1.367 . S
C491 C490 1.367 . S
C491 C493 1.433 . S
C492 C488 1.350 . S
C492 C489 1.463 . S
C492 N496 1.427 . S
C493 H483 0.929 . S
C493 C491 1.433 . S
C493 N496 1.384 . S
C494 H485 0.929 . S
C494 C486 1.378 . S
C494 C489 1.350 . S
C495 H482 0.929 . S
C495 C487 1.433 . S
C495 N497 1.384 . S
N496 C492 1.427 . S
N496 C493 1.384 . S
N497 C489 1.427 . S
N497 C495 1.384 . S
H498 C504 0.930 . S
H499 C508 0.930 . S
H500 C513 0.929 . S
H501 C511 0.929 . S
H502 C506 0.929 . S
H503 C512 0.929 . S
C504 H498 0.930 . S
C504 C505 1.367 . S
C504 C512 1.378 . S
C505 C504 1.367 . S
C505 C513 1.433 . S
C506 H502 0.929 . S
C506 C508 1.378 . S
C506 C510 1.350 . S
C507 C510 1.463 . S
C507 C512 1.350 . S
C507 N515 1.427 . S
C508 H499 0.930 . S
C508 C506 1.378 . S
C508 C509 1.367 . S
C509 C508 1.367 . S
C509 C511 1.433 . S
C510 C506 1.350 . S
C510 C507 1.463 . S
C510 N514 1.427 . S
C511 H501 0.929 . S
C511 C509 1.433 . S
C511 N514 1.384 . S
C512 H503 0.929 . S
C512 C504 1.378 . S
C512 C507 1.350 . S
C513 H500 0.929 . S
C513 C505 1.433 . S
C513 N515 1.384 . S
N514 C510 1.427 . S
N514 C511 1.384 . S
N515 C507 1.427 . S
N515 C513 1.384 . S
H516 C522 0.930 . S
H517 C526 0.930 . S
H518 C531 0.929 . S
H519 C529 0.929 . S
H520 C524 0.929 . S
H521 C530 0.929 . S
C522 H516 0.930 . S
C522 C523 1.367 . S
C522 C530 1.378 . S
C523 C522 1.367 . S
C523 C531 1.433 . S
C524 H520 0.929 . S
C524 C526 1.378 . S
C524 C528 1.350 . S
C525 C528 1.463 . S
C525 C530 1.350 . S
C525 N533 1.427 . S
C526 H517 0.930 . S
C526 C524 1.378 . S
C526 C527 1.367 . S
C527 C526 1.367 . S
C527 C529 1.433 . S
C528 C524 1.350 . S
C528 C525 1.463 . S
C528 N532 1.427 . S
C529 H519 0.929 . S
C529 C527 1.433 . S
C529 N532 1.384 . S
C530 H521 0.929 . S
C530 C522 1.378 . S
C530 C525 1.350 . S
C531 H518 0.929 . S
C531 C523 1.433 . S
C531 N533 1.384 . S
N532 C528 1.427 . S
N532 C529 1.384 . S
N533 C525 1.427 . S
N533 C531 1.384 . S
H534 C540 0.930 . S
H535 C544 0.930 . S
H536 C549 0.929 . S
H537 C547 0.929 . S
H538 C542 0.929 . S
H539 C548 0.929 . S
C540 H534 0.930 . S
C540 C541 1.367 . S
C540 C548 1.378 . S
C541 C540 1.367 . S
C541 C549 1.433 . S
C542 H538 0.929 . S
C542 C544 1.378 . S
C542 C546 1.350 . S
C543 C546 1.463 . S
C543 C548 1.350 . S
C543 N551 1.427 . S
C544 H535 0.930 . S
C544 C542 1.378 . S
C544 C545 1.367 . S
C545 C544 1.367 . S
C545 C547 1.433 . S
C546 C542 1.350 . S
C546 C543 1.463 . S
C546 N550 1.427 . S
C547 H537 0.929 . S
C547 C545 1.433 . S
C547 N550 1.384 . S
C548 H539 0.929 . S
C548 C540 1.378 . S
C548 C543 1.350 . S
C549 H536 0.929 . S
C549 C541 1.433 . S
C549 N551 1.384 . S
N550 C546 1.427 . S
N550 C547 1.384 . S
N551 C543 1.427 . S
N551 C549 1.384 . S
H552 C558 0.930 . S
H553 C562 0.930 . S
H554 C567 0.929 . S
H555 C565 0.929 . S
H556 C560 0.929 . S
H557 C566 0.929 . S
C558 H552 0.930 . S
C558 C559 1.367 . S
C558 C566 1.378 . S
C559 C558 1.367 . S
C559 C567 1.433 1_554 S
C560 H556 0.929 . S
C560 C562 1.378 . S
C560 C564 1.350 1_556 S
C561 C564 1.463 1_655 S
C561 C566 1.350 . S
C561 N569 1.427 1_554 S
C562 H553 0.930 . S
C562 C560 1.378 . S
C562 C563 1.367 1_556 S
C563 C562 1.367 1_554 S
C563 C565 1.433 . S
C564 C560 1.350 1_554 S
C564 C561 1.463 1_455 S
C564 N568 1.427 . S
C565 H555 0.929 . S
C565 C563 1.433 . S
C565 N568 1.384 . S
C566 H557 0.929 . S
C566 C558 1.378 . S
C566 C561 1.350 . S
C567 H554 0.929 . S
C567 C559 1.433 1_556 S
C567 N569 1.384 . S
N568 C564 1.427 . S
N568 C565 1.384 . S
N569 C561 1.427 1_556 S
N569 C567 1.384 . S
H570 C576 0.930 . S
H571 C580 0.930 . S
H572 C585 0.929 . S
H573 C583 0.929 . S
H574 C578 0.929 . S
H575 C584 0.929 . S
C576 H570 0.930 . S
C576 C577 1.367 . S
C576 C584 1.378 . S
C577 C576 1.367 . S
C577 C585 1.433 1_554 S
C578 H574 0.929 . S
C578 C580 1.378 . S
C578 C582 1.350 1_556 S
C579 C582 1.463 1_545 S
C579 C584 1.350 . S
C579 N587 1.427 1_554 S
C580 H571 0.930 . S
C580 C578 1.378 . S
C580 C581 1.367 1_556 S
C581 C580 1.367 1_554 S
C581 C583 1.433 . S
C582 C578 1.350 1_554 S
C582 C579 1.463 1_565 S
C582 N586 1.427 . S
C583 H573 0.929 . S
C583 C581 1.433 . S
C583 N586 1.384 . S
C584 H575 0.929 . S
C584 C576 1.378 . S
C584 C579 1.350 . S
C585 H572 0.929 . S
C585 C577 1.433 1_556 S
C585 N587 1.384 . S
N586 C582 1.427 . S
N586 C583 1.384 . S
N587 C579 1.427 1_556 S
N587 C585 1.384 . S
H588 C594 0.930 . S
H589 C598 0.930 . S
H590 C603 0.929 . S
H591 C601 0.929 . S
H592 C596 0.929 . S
H593 C602 0.929 . S
C594 H588 0.930 . S
C594 C595 1.367 . S
C594 C602 1.378 . S
C595 C594 1.367 . S
C595 C603 1.433 . S
C596 H592 0.929 . S
C596 C598 1.378 . S
C596 C600 1.350 . S
C597 C600 1.463 1_545 S
C597 C602 1.350 . S
C597 N605 1.427 . S
C598 H589 0.930 . S
C598 C596 1.378 . S
C598 C599 1.367 . S
C599 C598 1.367 . S
C599 C601 1.433 . S
C600 C596 1.350 . S
C600 C597 1.463 1_565 S
C600 N604 1.427 . S
C601 H591 0.929 . S
C601 C599 1.433 . S
C601 N604 1.384 . S
C602 H593 0.929 . S
C602 C594 1.378 . S
C602 C597 1.350 . S
C603 H590 0.929 . S
C603 C595 1.433 . S
C603 N605 1.384 . S
N604 C600 1.427 . S
N604 C601 1.384 . S
N605 C597 1.427 . S
N605 C603 1.384 . S
H606 C612 0.930 . S
H607 C616 0.930 . S
H608 C621 0.929 . S
H609 C619 0.929 . S
H610 C614 0.929 1_455 S
H611 C620 0.929 1_655 S
C612 H606 0.930 . S
C612 C613 1.367 . S
C612 C620 1.378 . S
C613 C612 1.367 . S
C613 C621 1.433 . S
C614 H610 0.929 1_655 S
C614 C616 1.378 . S
C614 C618 1.350 . S
C615 C618 1.463 1_455 S
C615 C620 1.350 . S
C615 N623 1.427 . S
C616 H607 0.930 . S
C616 C614 1.378 . S
C616 C617 1.367 . S
C617 C616 1.367 . S
C617 C619 1.433 . S
C618 C614 1.350 . S
C618 C615 1.463 1_655 S
C618 N622 1.427 . S
C619 H609 0.929 . S
C619 C617 1.433 . S
C619 N622 1.384 . S
C620 H611 0.929 1_455 S
C620 C612 1.378 . S
C620 C615 1.350 . S
C621 H608 0.929 . S
C621 C613 1.433 . S
C621 N623 1.384 . S
N622 C618 1.427 . S
N622 C619 1.384 . S
N623 C615 1.427 . S
N623 C621 1.384 . S
C271 C51 0.743 1_554 S
C275 N2 0.739 . S
C289 N35 0.754 . S
C293 C84 0.749 . S
C307 N68 0.739 . S
C311 C117 0.743 1_554 S
C325 C18 0.745 1_554 S
C329 N101 0.735 . S
C343 C183 0.750 . S
C347 N134 0.737 . S
C361 C216 0.746 . S
C365 N167 0.734 . S
C379 N200 0.759 . S
C383 C249 0.744 . S
C397 N233 0.737 . S
C401 C150 0.744 . S
C415 C219 1.511 . S
C419 C7 1.497 . S
C433 C40 1.499 . S
C437 C252 1.508 . S
C451 C73 1.506 . S
C455 C153 1.514 . S
C469 C106 1.501 . S
C473 C186 1.510 . S
C487 C139 1.509 . S
C491 C87 1.522 . S
C505 C172 1.498 . S
C509 C120 1.514 . S
C523 C205 1.507 . S
C527 C21 1.520 . S
C541 C54 1.512 . S
C545 C238 1.501 . S
C559 N79 2.209 . S
C563 N13 2.212 . S
C577 N46 2.211 . S
C581 N112 2.212 . S
C595 N211 2.211 . S
C599 N145 2.208 . S
C613 N178 2.210 . S
C617 N244 2.212 . S
