# Generated by pormake.
# Topology wkx, (5)-cn, num edge types: 1
# Building blocks:
#     Node 0, Type 0, BuildingBlock: BEQFEK_clean_sbu_0, # of connection points: 5
#     Node 1, Type 0, BuildingBlock: BEQFEK_clean_sbu_0, # of connection points: 5
#     Node 2, Type 0, BuildingBlock: BEQFEK_clean_sbu_0, # of connection points: 5
#     Node 3, Type 0, BuildingBlock: BEQFEK_clean_sbu_0, # of connection points: 5
#     Node 4, Type 0, BuildingBlock: BEQFEK_clean_sbu_0, # of connection points: 5
#     Node 5, Type 0, BuildingBlock: BEQFEK_clean_sbu_0, # of connection points: 5
#     Node 6, Type 0, BuildingBlock: BEQFEK_clean_sbu_0, # of connection points: 5
#     Node 7, Type 0, BuildingBlock: BEQFEK_clean_sbu_0, # of connection points: 5
#     Node 8, Type 0, BuildingBlock: BEQFEK_clean_sbu_0, # of connection points: 5
#     Node 9, Type 0, BuildingBlock: BEQFEK_clean_sbu_0, # of connection points: 5
#     Node 10, Type 0, BuildingBlock: BEQFEK_clean_sbu_0, # of connection points: 5
#     Node 11, Type 0, BuildingBlock: BEQFEK_clean_sbu_0, # of connection points: 5
#     Edge 12, Type (0, 0), BuildingBlock: CIFDUS_clean_linker_0, # of connection points: 2
#     Edge 13, Type (0, 0), BuildingBlock: CIFDUS_clean_linker_0, # of connection points: 2
#     Edge 14, Type (0, 0), BuildingBlock: CIFDUS_clean_linker_0, # of connection points: 2
#     Edge 15, Type (0, 0), BuildingBlock: CIFDUS_clean_linker_0, # of connection points: 2
#     Edge 16, Type (0, 0), BuildingBlock: CIFDUS_clean_linker_0, # of connection points: 2
#     Edge 17, Type (0, 0), BuildingBlock: CIFDUS_clean_linker_0, # of connection points: 2
#     Edge 18, Type (0, 0), BuildingBlock: CIFDUS_clean_linker_0, # of connection points: 2
#     Edge 19, Type (0, 0), BuildingBlock: CIFDUS_clean_linker_0, # of connection points: 2
#     Edge 20, Type (0, 0), BuildingBlock: CIFDUS_clean_linker_0, # of connection points: 2
#     Edge 21, Type (0, 0), BuildingBlock: CIFDUS_clean_linker_0, # of connection points: 2
#     Edge 22, Type (0, 0), BuildingBlock: CIFDUS_clean_linker_0, # of connection points: 2
#     Edge 23, Type (0, 0), BuildingBlock: CIFDUS_clean_linker_0, # of connection points: 2
#     Edge 24, Type (0, 0), BuildingBlock: CIFDUS_clean_linker_0, # of connection points: 2
#     Edge 25, Type (0, 0), BuildingBlock: CIFDUS_clean_linker_0, # of connection points: 2
#     Edge 26, Type (0, 0), BuildingBlock: CIFDUS_clean_linker_0, # of connection points: 2
#     Edge 27, Type (0, 0), BuildingBlock: CIFDUS_clean_linker_0, # of connection points: 2
#     Edge 28, Type (0, 0), BuildingBlock: CIFDUS_clean_linker_0, # of connection points: 2
#     Edge 29, Type (0, 0), BuildingBlock: CIFDUS_clean_linker_0, # of connection points: 2
#     Edge 30, Type (0, 0), BuildingBlock: CIFDUS_clean_linker_0, # of connection points: 2
#     Edge 31, Type (0, 0), BuildingBlock: CIFDUS_clean_linker_0, # of connection points: 2
#     Edge 32, Type (0, 0), BuildingBlock: CIFDUS_clean_linker_0, # of connection points: 2
#     Edge 33, Type (0, 0), BuildingBlock: CIFDUS_clean_linker_0, # of connection points: 2
#     Edge 34, Type (0, 0), BuildingBlock: CIFDUS_clean_linker_0, # of connection points: 2
#     Edge 35, Type (0, 0), BuildingBlock: CIFDUS_clean_linker_0, # of connection points: 2
#     Edge 36, Type (0, 0), BuildingBlock: CIFDUS_clean_linker_0, # of connection points: 2
#     Edge 37, Type (0, 0), BuildingBlock: CIFDUS_clean_linker_0, # of connection points: 2
#     Edge 38, Type (0, 0), BuildingBlock: CIFDUS_clean_linker_0, # of connection points: 2
#     Edge 39, Type (0, 0), BuildingBlock: CIFDUS_clean_linker_0, # of connection points: 2
#     Edge 40, Type (0, 0), BuildingBlock: CIFDUS_clean_linker_0, # of connection points: 2
#     Edge 41, Type (0, 0), BuildingBlock: CIFDUS_clean_linker_0, # of connection points: 2
# Relax obj value: 0.435
# Max RMSD: 0.259
# Mean RMSD: 0.259
data_MOF--net-wkx--node1-BEQFEK_clean_sbu_0--edge1-CIFDUS_clean_linker_0
_symmetry_space_group_name_H-M    P1
_symmetry_Int_Tables_number       1
_symmetry_cell_setting            triclinic
loop_
_symmetry_equiv_pos_as_xyz
'x, y, z'
_cell_length_a     31.986875
_cell_length_b     32.08952
_cell_length_c     66.015942
_cell_angle_alpha  89.913694
_cell_angle_beta   90.055503
_cell_angle_gamma 120.27002
loop_
_atom_site_label
_atom_site_type_symbol
_atom_site_fract_x
_atom_site_fract_y
_atom_site_fract_z
_atom_type_partial_charge
Co0 Co 0.21562 0.15829 0.45116 0.0
Co1 Co 0.32503 0.20923 0.46215 0.0
C2 C 0.2565 0.23957 0.48013 0.0
O3 O 0.22172 0.2091 0.4693 0.0
O4 O 0.29828 0.24372 0.47888 0.0
C5 C 0.1227 0.13813 0.43402 0.0
O6 O 0.14236 0.18355 0.42859 0.0
C7 C 0.42304 0.29044 0.45537 0.0
C8 C 0.46852 0.26432 0.46916 0.0
C9 C 0.47113 0.30288 0.45847 0.0
N10 N 0.39408 0.24679 0.46367 0.0
N11 N 0.42148 0.23163 0.4721 0.0
C12 C 0.40404 0.317 0.44339 0.0
H13 H 0.36517 0.29311 0.43979 0.0
H14 H 0.42497 0.33137 0.42916 0.0
H15 H 0.40751 0.34761 0.4525 0.0
C16 C 0.25216 0.16523 0.40995 0.0
N17 N 0.25966 0.1796 0.42944 0.0
N18 N 0.30569 0.19766 0.43396 0.0
C19 C 0.32874 0.19418 0.41742 0.0
C20 C 0.29569 0.17411 0.40158 0.0
C21 C 0.20291 0.13452 0.40089 0.0
H22 H 0.18136 0.10252 0.41064 0.0
H23 H 0.18423 0.15564 0.40014 0.0
H24 H 0.20449 0.12198 0.38542 0.0
O25 O 0.22509 0.11091 0.46643 0.0
O26 O 0.30272 0.14524 0.47513 0.0
H27 H 0.38616 0.18876 0.43162 0.0
H28 H 0.38709 0.18749 0.40417 0.0
C29 C 0.37956 0.20352 0.41755 0.0
H30 H 0.40502 0.24298 0.41726 0.0
H31 H 0.40807 0.19839 0.47935 0.0
O32 O 0.14786 0.12259 0.44245 0.0
C33 C 0.25985 0.10896 0.47491 0.0
Co34 Co 0.0516 0.20985 0.62171 0.0
Co35 Co 0.11353 0.3195 0.63011 0.0
C36 C 0.00967 0.25475 0.64614 0.0
O37 O 0.00332 0.21912 0.63553 0.0
O38 O 0.0502 0.29432 0.64583 0.0
C39 C 0.99678 0.10867 0.62666 0.0
O40 O 0.99115 0.12034 0.64512 0.0
C41 C 0.12465 0.41249 0.62002 0.0
C42 C 0.19945 0.46433 0.62946 0.0
C43 C 0.15937 0.46144 0.61986 0.0
N44 N 0.14378 0.3881 0.62883 0.0
N45 N 0.18839 0.41926 0.63461 0.0
C46 C 0.07393 0.38832 0.61206 0.0
H47 H 0.07431 0.38195 0.59557 0.0
H48 H 0.05748 0.41113 0.61469 0.0
H49 H 0.05141 0.35276 0.61939 0.0
C50 C 0.08564 0.23972 0.58018 0.0
N51 N 0.07939 0.2502 0.59927 0.0
N52 N 0.10805 0.29647 0.60269 0.0
C53 C 0.13457 0.31691 0.58579 0.0
C54 C 0.12101 0.28165 0.57089 0.0
C55 C 0.06419 0.18922 0.57238 0.0
H56 H 0.08017 0.1706 0.58077 0.0
H57 H 0.02461 0.16926 0.57521 0.0
H58 H 0.07103 0.18824 0.55598 0.0
O59 O 0.10327 0.2208 0.64115 0.0
O60 O 0.15345 0.29921 0.64602 0.0
H61 H 0.19865 0.37689 0.59807 0.0
H62 H 0.19699 0.37485 0.57061 0.0
C63 C 0.17511 0.3681 0.58453 0.0
H64 H 0.15985 0.39237 0.58437 0.0
H65 H 0.21164 0.40968 0.64157 0.0
O66 O 0.02065 0.14189 0.61384 0.0
C67 C 0.14096 0.25525 0.64936 0.0
Co68 Co 0.84288 0.05482 0.78393 0.0
Co69 Co 0.78147 0.10276 0.79397 0.0
C70 C 0.75184 0.00117 0.80762 0.0
O71 O 0.78757 0.00369 0.79821 0.0
O72 O 0.74438 0.03675 0.80775 0.0
C73 C 0.86852 0.98863 0.76542 0.0
O74 O 0.82447 0.96522 0.75795 0.0
C75 C 0.69637 0.11405 0.78938 0.0
C76 C 0.72746 0.19215 0.79467 0.0
C77 C 0.68522 0.1506 0.78922 0.0
N78 N 0.74315 0.13316 0.79459 0.0
N79 N 0.76132 0.17974 0.79802 0.0
C80 C 0.66487 0.06304 0.78256 0.0
H81 H 0.68731 0.04738 0.77777 0.0
H82 H 0.64109 0.06121 0.76991 0.0
H83 H 0.64153 0.04139 0.79536 0.0
C84 C 0.84253 0.09059 0.74308 0.0
N85 N 0.82534 0.08034 0.76215 0.0
N86 N 0.80075 0.10218 0.76611 0.0
C87 C 0.80207 0.12755 0.74944 0.0
C88 C 0.82818 0.12059 0.7343 0.0
C89 C 0.87858 0.07852 0.7346 0.0
H90 H 0.90736 0.08686 0.74593 0.0
H91 H 0.86003 0.03941 0.73118 0.0
H92 H 0.89554 0.09879 0.72047 0.0
O93 O 0.88319 0.10772 0.80268 0.0
O94 O 0.84089 0.14313 0.81047 0.0
H95 H 0.80159 0.18986 0.76044 0.0
H96 H 0.78998 0.1796 0.73357 0.0
C97 C 0.78343 0.16187 0.74861 0.0
H98 H 0.744 0.14205 0.75169 0.0
H99 H 0.7974 0.20346 0.80183 0.0
O100 O 0.88235 0.02681 0.7757 0.0
C101 C 0.87899 0.14008 0.81204 0.0
Co102 Co 0.77939 0.82702 0.94453 0.0
Co103 Co 0.67408 0.78615 0.95972 0.0
C104 C 0.74165 0.75075 0.9752 0.0
O105 O 0.77365 0.7752 0.96203 0.0
O106 O 0.7024 0.75204 0.97593 0.0
C107 C 0.87849 0.87727 0.9468 0.0
O108 O 0.86631 0.86587 0.96588 0.0
C109 C 0.57691 0.70342 0.95833 0.0
C110 C 0.53055 0.73431 0.96524 0.0
C111 C 0.52908 0.69202 0.95956 0.0
N112 N 0.60544 0.75021 0.96304 0.0
N113 N 0.57755 0.76839 0.96748 0.0
C114 C 0.59543 0.67202 0.95051 0.0
H115 H 0.6341 0.69406 0.94614 0.0
H116 H 0.57359 0.65071 0.93732 0.0
H117 H 0.59193 0.64633 0.96257 0.0
C118 C 0.73697 0.82617 0.90559 0.0
N119 N 0.73156 0.80858 0.92456 0.0
N120 N 0.68753 0.79452 0.931 0.0
C121 C 0.66377 0.80362 0.91628 0.0
C122 C 0.69432 0.82435 0.89968 0.0
C123 C 0.78529 0.85529 0.8956 0.0
H124 H 0.80659 0.83694 0.89747 0.0
H125 H 0.78151 0.8605 0.87923 0.0
H126 H 0.80533 0.89119 0.90297 0.0
O127 O 0.77641 0.87605 0.96138 0.0
O128 O 0.70155 0.85166 0.97176 0.0
H129 H 0.61934 0.82465 0.93234 0.0
H130 H 0.6045 0.81244 0.9057 0.0
C131 C 0.61624 0.80112 0.91944 0.0
H132 H 0.58832 0.76356 0.92324 0.0
H133 H 0.59057 0.80454 0.97107 0.0
O134 O 0.84533 0.86108 0.93346 0.0
C135 C 0.74629 0.8838 0.97082 0.0
Co136 Co 0.94455 0.79642 0.11841 0.0
Co137 Co 0.90263 0.68674 0.12538 0.0
C138 C 0.00121 0.76135 0.14123 0.0
O139 O 0.99653 0.7943 0.13285 0.0
O140 O 0.96783 0.71716 0.13997 0.0
C141 C 0.99168 0.89565 0.12519 0.0
O142 O 0.99549 0.88172 0.14348 0.0
C143 C 0.89438 0.5938 0.1157 0.0
C144 C 0.81902 0.54268 0.12477 0.0
C145 C 0.85906 0.54484 0.11551 0.0
N146 N 0.8753 0.61857 0.12417 0.0
N147 N 0.83049 0.58777 0.1298 0.0
C148 C 0.94534 0.61779 0.10809 0.0
H149 H 0.94546 0.62171 0.09139 0.0
H150 H 0.96234 0.59608 0.11208 0.0
H151 H 0.96701 0.65442 0.11464 0.0
C152 C 0.91457 0.76649 0.07669 0.0
N153 N 0.92372 0.75696 0.0955 0.0
N154 N 0.90293 0.71006 0.09817 0.0
C155 C 0.8785 0.68811 0.08099 0.0
C156 C 0.88547 0.72321 0.06678 0.0
C157 C 0.92704 0.81581 0.06965 0.0
H158 H 0.90699 0.82875 0.07897 0.0
H159 H 0.96629 0.84112 0.07194 0.0
H160 H 0.91779 0.81603 0.05347 0.0
O161 O 0.88853 0.77742 0.13642 0.0
O162 O 0.85928 0.6993 0.14256 0.0
H163 H 0.81988 0.62138 0.092 0.0
H164 H 0.82366 0.62603 0.06464 0.0
C165 C 0.84492 0.63495 0.07888 0.0
H166 H 0.86628 0.61646 0.07878 0.0
H167 H 0.8072 0.5977 0.13643 0.0
O168 O 0.97044 0.86418 0.11144 0.0
C169 C 0.85806 0.73804 0.14494 0.0
Co170 Co 0.16955 0.95494 0.28303 0.0
Co171 Co 0.21232 0.89112 0.29563 0.0
C172 C 0.24889 0.99282 0.31241 0.0
O173 O 0.22303 0.00054 0.30014 0.0
O174 O 0.24727 0.95228 0.31249 0.0
C175 C 0.12834 0.01417 0.28522 0.0
O176 O 0.14627 0.02158 0.30364 0.0
C177 C 0.29495 0.88095 0.28788 0.0
C178 C 0.27182 0.80616 0.29688 0.0
C179 C 0.30932 0.8466 0.28753 0.0
N180 N 0.25091 0.86126 0.29639 0.0
N181 N 0.2374 0.81672 0.30203 0.0
C182 C 0.32149 0.93166 0.28005 0.0
H183 H 0.30999 0.9543 0.28823 0.0
H184 H 0.31255 0.93174 0.26381 0.0
H185 H 0.36119 0.94761 0.28176 0.0
C186 C 0.16879 0.91717 0.24295 0.0
N187 N 0.18701 0.92791 0.26189 0.0
N188 N 0.20171 0.89799 0.26733 0.0
C189 C 0.19241 0.86655 0.252 0.0
C190 C 0.17112 0.87748 0.236 0.0
C191 C 0.13899 0.93645 0.23389 0.0
H192 H 0.15757 0.97609 0.23609 0.0
H193 H 0.13263 0.92814 0.21749 0.0
H194 H 0.1035 0.91995 0.24175 0.0
O195 O 0.12084 0.90031 0.29941 0.0
O196 O 0.14741 0.85069 0.30828 0.0
H197 H 0.17701 0.80233 0.26809 0.0
H198 H 0.17956 0.79746 0.24081 0.0
C199 C 0.19562 0.82177 0.25402 0.0
H200 H 0.23418 0.83195 0.25512 0.0
H201 H 0.20395 0.79293 0.30854 0.0
O202 O 0.1362 0.98805 0.27315 0.0
C203 C 0.11432 0.86188 0.30803 0.0
Co204 Co 0.8662 0.79466 0.41144 0.0
Co205 Co 0.80329 0.68395 0.40477 0.0
C206 C 0.77397 0.75531 0.38929 0.0
O207 O 0.8095 0.78974 0.39833 0.0
O208 O 0.7674 0.71265 0.38998 0.0
C209 C 0.89094 0.88663 0.42761 0.0
O210 O 0.84722 0.86384 0.43541 0.0
C211 C 0.71617 0.59392 0.41526 0.0
C212 C 0.73051 0.53838 0.40299 0.0
C213 C 0.69628 0.54417 0.4136 0.0
N214 N 0.75963 0.61594 0.40611 0.0
N215 N 0.76792 0.58259 0.39868 0.0
C216 C 0.69673 0.62086 0.4266 0.0
H217 H 0.72611 0.65811 0.43001 0.0
H218 H 0.67924 0.60189 0.44091 0.0
H219 H 0.66946 0.62337 0.41709 0.0
C220 C 0.8714 0.76469 0.45314 0.0
N221 N 0.85177 0.75502 0.43445 0.0
N222 N 0.82649 0.70799 0.43178 0.0
C223 C 0.83009 0.68627 0.44877 0.0
C224 C 0.85818 0.72153 0.46293 0.0
C225 C 0.90813 0.81413 0.46032 0.0
H226 H 0.93517 0.83349 0.44824 0.0
H227 H 0.88967 0.83466 0.4638 0.0
H228 H 0.92719 0.81284 0.47415 0.0
O229 O 0.90192 0.77786 0.3918 0.0
O230 O 0.86063 0.69789 0.38789 0.0
H231 H 0.82022 0.61982 0.43687 0.0
H232 H 0.82643 0.62494 0.4642 0.0
C233 C 0.81123 0.63328 0.45071 0.0
H234 H 0.77128 0.6142 0.4522 0.0
H235 H 0.79939 0.59 0.39096 0.0
O236 O 0.90674 0.86347 0.41775 0.0
C237 C 0.89719 0.73929 0.38414 0.0
Co238 Co 0.0824 0.85941 0.57651 0.0
Co239 Co 0.13642 0.80209 0.57151 0.0
C240 C 0.03747 0.76876 0.55269 0.0
O241 O 0.03558 0.8032 0.56121 0.0
O242 O 0.07423 0.76349 0.55511 0.0
C243 C 0.01147 0.88528 0.5897 0.0
O244 O 0.98559 0.84174 0.59734 0.0
C245 C 0.15099 0.72063 0.58026 0.0
C246 C 0.23025 0.7543 0.5769 0.0
C247 C 0.18905 0.71197 0.58257 0.0
N248 N 0.16895 0.76616 0.57367 0.0
N249 N 0.21623 0.78579 0.57134 0.0
C250 C 0.09952 0.68855 0.58658 0.0
H251 H 0.08099 0.7097 0.5884 0.0
H252 H 0.09782 0.66979 0.60097 0.0
H253 H 0.08042 0.66073 0.57475 0.0
C254 C 0.10871 0.86056 0.61939 0.0
N255 N 0.10416 0.84396 0.6003 0.0
N256 N 0.12819 0.82083 0.59844 0.0
C257 C 0.14936 0.82262 0.61646 0.0
C258 C 0.1373 0.84744 0.63033 0.0
C259 C 0.09233 0.8946 0.62613 0.0
H260 H 0.05236 0.87453 0.62757 0.0
H261 H 0.10826 0.91142 0.64094 0.0
H262 H 0.10267 0.92343 0.61466 0.0
O263 O 0.13821 0.89981 0.55903 0.0
O264 O 0.17952 0.86149 0.55569 0.0
H265 H 0.2139 0.82192 0.60875 0.0
H266 H 0.19939 0.81344 0.63547 0.0
C267 C 0.18406 0.80499 0.61993 0.0
H268 H 0.16499 0.76538 0.61778 0.0
H269 H 0.23926 0.82148 0.56689 0.0
O270 O 0.05211 0.89833 0.58151 0.0
C271 C 0.17408 0.89748 0.55218 0.0
Co272 Co 0.21348 0.04617 0.75428 0.0
Co273 Co 0.31853 0.11805 0.74065 0.0
C274 C 0.25795 0.012 0.72602 0.0
O275 O 0.22475 0.00078 0.73903 0.0
O276 O 0.29408 0.05497 0.72517 0.0
C277 C 0.1121 0.9891 0.75337 0.0
O278 O 0.12053 0.98508 0.7342 0.0
C279 C 0.41607 0.13624 0.74611 0.0
C280 C 0.4624 0.21088 0.73529 0.0
C281 C 0.46438 0.17268 0.7443 0.0
N282 N 0.38765 0.1526 0.73891 0.0
N283 N 0.4155 0.19717 0.73234 0.0
C284 C 0.3961 0.08638 0.75449 0.0
H285 H 0.39565 0.08787 0.77127 0.0
H286 H 0.41854 0.07076 0.74968 0.0
H287 H 0.35833 0.06258 0.74943 0.0
C288 C 0.25166 0.08722 0.79418 0.0
N289 N 0.25864 0.07994 0.77469 0.0
N290 N 0.30234 0.11283 0.769 0.0
C291 C 0.32454 0.14295 0.78477 0.0
C292 C 0.29321 0.12769 0.80133 0.0
C293 C 0.20306 0.06167 0.80423 0.0
H294 H 0.1859 0.02227 0.8016 0.0
H295 H 0.20537 0.06866 0.82073 0.0
H296 H 0.17959 0.07412 0.79733 0.0
O297 O 0.21405 0.09307 0.73473 0.0
O298 O 0.28807 0.1511 0.72627 0.0
H299 H 0.37382 0.20913 0.76988 0.0
H300 H 0.3815 0.21048 0.79717 0.0
C301 C 0.37294 0.188 0.78336 0.0
H302 H 0.40122 0.17807 0.78137 0.0
H303 H 0.40251 0.21856 0.72629 0.0
O304 O 0.14769 0.01207 0.76528 0.0
C305 C 0.24209 0.13159 0.72501 0.0
Co306 Co 0.1495 0.21528 0.91091 0.0
Co307 Co 0.19971 0.32588 0.90313 0.0
C308 C 0.24003 0.26223 0.88806 0.0
O309 O 0.20903 0.22594 0.89807 0.0
O310 O 0.23999 0.30205 0.8885 0.0
C311 C 0.09801 0.1162 0.90402 0.0
O312 O 0.1107 0.13149 0.88533 0.0
C313 C 0.27988 0.42319 0.91205 0.0
C314 C 0.25054 0.4691 0.90214 0.0
C315 C 0.29069 0.47112 0.91124 0.0
N316 N 0.23555 0.39489 0.90413 0.0
N317 N 0.21832 0.42258 0.89813 0.0
C318 C 0.31061 0.40371 0.91984 0.0
H319 H 0.29796 0.3671 0.91374 0.0
H320 H 0.30762 0.40079 0.93658 0.0
H321 H 0.34908 0.42793 0.91561 0.0
C322 C 0.1402 0.24392 0.95207 0.0
N323 N 0.15939 0.25513 0.93333 0.0
N324 N 0.17845 0.30167 0.93017 0.0
C325 C 0.17086 0.32149 0.94685 0.0
C326 C 0.14659 0.28557 0.96134 0.0
C327 C 0.10978 0.19318 0.95953 0.0
H328 H 0.07639 0.17449 0.95022 0.0
H329 H 0.1299 0.17363 0.9576 0.0
H330 H 0.09944 0.19175 0.97564 0.0
O331 O 0.11086 0.2255 0.89014 0.0
O332 O 0.14176 0.3045 0.88567 0.0
H333 H 0.16714 0.38159 0.93497 0.0
H334 H 0.16864 0.37977 0.9624 0.0
C335 C 0.18268 0.37282 0.94822 0.0
H336 H 0.22252 0.39684 0.94781 0.0
H337 H 0.18423 0.40964 0.89164 0.0
O338 O 0.11201 0.14682 0.91831 0.0
C339 C 0.11 0.26087 0.88182 0.0
Co340 Co 0.91694 0.14722 0.07285 0.0
Co341 Co 0.85648 0.19557 0.06487 0.0
C342 C 0.96088 0.23571 0.04946 0.0
O343 O 0.96657 0.20633 0.06031 0.0
O344 O 0.92043 0.23475 0.04945 0.0
C345 C 0.98724 0.12359 0.08824 0.0
O346 O 0.01031 0.16658 0.09656 0.0
C347 C 0.84504 0.27763 0.07342 0.0
C348 C 0.76771 0.2502 0.06694 0.0
C349 C 0.8093 0.28985 0.07434 0.0
N350 N 0.82558 0.23288 0.06585 0.0
N351 N 0.7795 0.21683 0.06171 0.0
C352 C 0.89524 0.30536 0.08183 0.0
H353 H 0.91012 0.28116 0.08447 0.0
H354 H 0.89543 0.32342 0.09619 0.0
H355 H 0.91882 0.33362 0.0708 0.0
C356 C 0.87629 0.13484 0.11392 0.0
N357 N 0.88698 0.15626 0.09556 0.0
N358 N 0.85983 0.17551 0.09216 0.0
C359 C 0.83026 0.16615 0.10829 0.0
C360 C 0.8399 0.14035 0.12271 0.0
C361 C 0.89364 0.10183 0.12107 0.0
H362 H 0.88529 0.07374 0.10946 0.0
H363 H 0.93345 0.12288 0.12309 0.0
H364 H 0.87673 0.08407 0.13564 0.0
O365 O 0.86732 0.10886 0.05232 0.0
O366 O 0.81659 0.13665 0.04857 0.0
H367 H 0.76503 0.15763 0.09544 0.0
H368 H 0.7675 0.16187 0.12283 0.0
C369 C 0.78888 0.1754 0.10866 0.0
H370 H 0.80306 0.21474 0.10747 0.0
H371 H 0.75562 0.18235 0.05619 0.0
O372 O 0.94765 0.10954 0.07894 0.0
C373 C 0.82966 0.10615 0.04445 0.0
Co374 Co 0.78215 0.91937 0.24031 0.0
Co375 Co 0.6713 0.87179 0.23357 0.0
C376 C 0.74207 0.97325 0.21894 0.0
O377 O 0.77671 0.97064 0.22699 0.0
O378 O 0.69858 0.93795 0.22009 0.0
C379 C 0.88041 0.98642 0.25313 0.0
O380 O 0.86496 0.01476 0.25988 0.0
C381 C 0.57601 0.85799 0.24364 0.0
C382 C 0.52781 0.78086 0.23643 0.0
C383 C 0.52844 0.82069 0.24478 0.0
N384 N 0.60252 0.84096 0.2351 0.0
N385 N 0.57334 0.79505 0.23048 0.0
C386 C 0.59691 0.90707 0.25281 0.0
H387 H 0.637 0.92528 0.25342 0.0
H388 H 0.5821 0.90428 0.26828 0.0
H389 H 0.58626 0.92903 0.24349 0.0
C390 C 0.7532 0.88294 0.28156 0.0
N391 N 0.74296 0.89423 0.26328 0.0
N392 N 0.69581 0.87124 0.26052 0.0
C393 C 0.6746 0.84357 0.27711 0.0
C394 C 0.71024 0.85041 0.29105 0.0
C395 C 0.80317 0.89603 0.28813 0.0
H396 H 0.81878 0.88173 0.27701 0.0
H397 H 0.82641 0.93586 0.2884 0.0
H398 H 0.80333 0.88152 0.30338 0.0
O399 O 0.76542 0.86656 0.22113 0.0
O400 O 0.68652 0.83239 0.21505 0.0
H401 H 0.61176 0.78161 0.26532 0.0
H402 H 0.61382 0.78489 0.2927 0.0
C403 C 0.62209 0.80622 0.27851 0.0
H404 H 0.60024 0.82418 0.27817 0.0
H405 H 0.58494 0.77274 0.22425 0.0
O406 O 0.85085 0.94537 0.24579 0.0
C407 C 0.72718 0.83511 0.21226 0.0
H408 H 0.04998 0.0871 0.4598 0.0
H409 H 0.08644 0.10835 0.3964 0.0
H410 H 0.01269 0.03225 0.38829 0.0
H411 H 0.9461 0.95399 0.40021 0.0
H412 H 0.90853 0.93344 0.46355 0.0
H413 H 0.9743 0.01547 0.47091 0.0
C414 C 0.04057 0.07574 0.44417 0.0
C415 C 0.0729 0.10272 0.42865 0.0
C416 C 0.99864 0.03192 0.43976 0.0
C417 C 0.06134 0.08805 0.40845 0.0
C418 C 0.01963 0.04439 0.40389 0.0
C419 C 0.95184 0.96808 0.41553 0.0
C420 C 0.9235 0.9381 0.43142 0.0
C421 C 0.98929 0.01511 0.41953 0.0
C422 C 0.9303 0.95628 0.45118 0.0
C423 C 0.96791 0.00294 0.45537 0.0
H424 H 0.97117 0.90184 0.62261 0.0
H425 H 0.02034 0.95023 0.56169 0.0
H426 H 0.01195 0.0209 0.5669 0.0
H427 H 0.00279 0.07434 0.59015 0.0
H428 H 0.96036 0.03052 0.65213 0.0
H429 H 0.95301 0.95229 0.6451 0.0
C430 C 0.97869 0.9273 0.61039 0.0
C431 C 0.99654 0.92137 0.59187 0.0
C432 C 0.97565 0.9689 0.61377 0.0
C433 C 0.00684 0.95458 0.57612 0.0
C434 C 0.00219 0.99496 0.5791 0.0
C435 C 0.99119 0.04745 0.60207 0.0
C436 C 0.98308 0.05854 0.62171 0.0
C437 C 0.98857 0.00342 0.59811 0.0
C438 C 0.96732 0.02302 0.63691 0.0
C439 C 0.9633 0.97835 0.63292 0.0
H440 H 0.93535 0.99268 0.79099 0.0
H441 H 0.88043 0.95084 0.7303 0.0
H442 H 0.94914 0.94019 0.72176 0.0
H443 H 0.03029 0.95434 0.73048 0.0
H444 H 0.08424 0.99689 0.79146 0.0
H445 H 0.00975 0.99464 0.80111 0.0
C446 C 0.93811 0.98043 0.77599 0.0
C447 C 0.90373 0.97325 0.76116 0.0
C448 C 0.97753 0.97476 0.77126 0.0
C449 C 0.9068 0.95661 0.7419 0.0
C450 C 0.94614 0.95084 0.73701 0.0
C451 C 0.02533 0.96211 0.74598 0.0
C452 C 0.06321 0.97686 0.76009 0.0
C453 C 0.98259 0.96147 0.7514 0.0
C454 C 0.05598 0.98619 0.7802 0.0
C455 C 0.01345 0.98508 0.78574 0.0
H456 H 0.91585 0.90911 0.90924 0.0
H457 H 0.9517 0.93317 0.97285 0.0
H458 H 0.02647 0.00749 0.96488 0.0
H459 H 0.07569 0.07079 0.94036 0.0
H460 H 0.03999 0.04728 0.87676 0.0
H461 H 0.97149 0.9673 0.88423 0.0
C462 C 0.94046 0.93015 0.92132 0.0
C463 C 0.92778 0.91613 0.94161 0.0
C464 C 0.98317 0.9732 0.91668 0.0
C465 C 0.96034 0.94337 0.9571 0.0
C466 C 0.00306 0.98604 0.95258 0.0
C467 C 0.05333 0.04786 0.92811 0.0
C468 C 0.06225 0.0652 0.90811 0.0
C469 C 0.01387 0.00215 0.9325 0.0
C470 C 0.03359 0.03487 0.89233 0.0
C471 C 0.9943 0.9892 0.89658 0.0
H472 H 0.99757 0.93621 0.08875 0.0
H473 H 0.01872 0.96874 0.15263 0.0
H474 H 0.02871 0.0483 0.14618 0.0
H475 H 0.01794 0.10261 0.12294 0.0
H476 H 0.99042 0.06578 0.05966 0.0
H477 H 0.99741 0.99434 0.06519 0.0
C478 C 0.00508 0.96096 0.10124 0.0
C479 C 0.00632 0.94633 0.12115 0.0
C480 C 0.00955 0.00587 0.0975 0.0
C481 C 0.01702 0.97905 0.13716 0.0
C482 C 0.02261 0.02448 0.13349 0.0
C483 C 0.01508 0.07963 0.11034 0.0
C484 C 0.00353 0.08882 0.09099 0.0
C485 C 0.01706 0.0375 0.11381 0.0
C486 C -0.00086 0.05884 0.0747 0.0
C487 C 0.00286 0.01799 0.07787 0.0
H488 H 0.07966 0.99649 0.24992 0.0
H489 H 0.09302 0.0594 0.30903 0.0
H490 H 0.0197 0.06334 0.30295 0.0
H491 H 0.94508 0.03678 0.28292 0.0
H492 H 0.92983 0.96724 0.22531 0.0
H493 H 0.01069 0.97832 0.22862 0.0
C494 C 0.06711 0.0119 0.26136 0.0
C495 C 0.09115 0.02671 0.28003 0.0
C496 C 0.02415 0.0123 0.2581 0.0
C497 C 0.0748 0.04721 0.29458 0.0
C498 C 0.03273 0.04925 0.29116 0.0
C499 C 0.96011 0.02513 0.27096 0.0
C500 C 0.93173 0.00079 0.25404 0.0
C501 C 0.00603 0.03003 0.27331 0.0
C502 C 0.95108 0.9855 0.23861 0.0
C503 C 0.99722 0.99182 0.24048 0.0
H504 H 0.67784 0.4553 0.42478 0.0
H505 H 0.60974 0.54179 0.42034 0.0
H506 H 0.53592 0.47666 0.43505 0.0
H507 H 0.49065 0.39518 0.44933 0.0
H508 H 0.55582 0.30565 0.45061 0.0
H509 H 0.63095 0.37225 0.43736 0.0
C510 C 0.64685 0.45998 0.42698 0.0
C511 C 0.65028 0.50429 0.42205 0.0
C512 C 0.60379 0.42169 0.43491 0.0
C513 C 0.60942 0.50928 0.42483 0.0
C514 C 0.56669 0.47159 0.43301 0.0
C515 C 0.52048 0.38941 0.44621 0.0
C516 C 0.51665 0.34463 0.45055 0.0
C517 C 0.56346 0.42763 0.43812 0.0
C518 C 0.55733 0.33948 0.44737 0.0
C519 C 0.60041 0.37755 0.4397 0.0
H520 H 0.21249 0.55535 0.63077 0.0
H521 H 0.10485 0.46237 0.5873 0.0
H522 H 0.1016 0.53054 0.5734 0.0
H523 H 0.13123 0.61782 0.5726 0.0
H524 H 0.2457 0.7122 0.61311 0.0
H525 H 0.24518 0.64277 0.6288 0.0
C526 C 0.18815 0.54985 0.6183 0.0
C527 C 0.15728 0.50296 0.61088 0.0
C528 C 0.18812 0.58985 0.60962 0.0
C529 C 0.12689 0.49703 0.59436 0.0
C530 C 0.12565 0.53643 0.58603 0.0
C531 C 0.15571 0.62294 0.58496 0.0
C532 C 0.18811 0.66971 0.59188 0.0
C533 C 0.15604 0.583 0.59354 0.0
C534 C 0.22048 0.67631 0.60759 0.0
C535 C 0.22011 0.63669 0.61657 0.0
H536 H 0.47719 0.11863 0.77395 0.0
H537 H 0.55553 0.23161 0.73003 0.0
H538 H 0.63086 0.23605 0.74043 0.0
H539 H 0.6745 0.20697 0.76168 0.0
H540 H 0.59428 0.08822 0.8027 0.0
H541 H 0.51889 0.08531 0.79303 0.0
C542 C 0.50987 0.14289 0.7659 0.0
C543 C 0.50969 0.1736 0.75065 0.0
C544 C 0.55292 0.14416 0.77146 0.0
C545 C 0.55409 0.20713 0.74169 0.0
C546 C 0.59732 0.20967 0.74758 0.0
C547 C 0.64038 0.18045 0.76843 0.0
C548 C 0.63965 0.14788 0.78288 0.0
C549 C 0.59715 0.17827 0.76242 0.0
C550 C 0.59544 0.11338 0.79144 0.0
C551 C 0.55248 0.11188 0.78597 0.0
H552 H 0.35626 0.48311 0.94143 0.0
H553 H 0.32178 0.56243 0.89816 0.0
H554 H 0.39048 0.63776 0.91001 0.0
H555 H 0.46167 0.68136 0.93217 0.0
H556 H 0.50047 0.60131 0.97288 0.0
H557 H 0.42952 0.52561 0.96203 0.0
C558 C 0.36432 0.51626 0.93396 0.0
C559 C 0.3341 0.51631 0.91842 0.0
C560 C 0.40478 0.55955 0.94047 0.0
C561 C 0.34434 0.56087 0.91004 0.0
C562 C 0.38375 0.60414 0.91678 0.0
C563 C 0.45428 0.64725 0.93868 0.0
C564 C 0.48579 0.6466 0.95334 0.0
C565 C 0.41428 0.60392 0.93195 0.0
C566 C 0.47656 0.6024 0.96153 0.0
C567 C 0.43605 0.55924 0.95535 0.0
H568 H 0.87734 0.38334 0.06772 0.0
H569 H 0.7478 0.29237 0.10184 0.0
H570 H 0.75375 0.36332 0.11845 0.0
H571 H 0.79564 0.45073 0.12312 0.0
H572 H 0.9202 0.54186 0.08599 0.0
H573 H 0.91719 0.47155 0.07132 0.0
C574 C 0.85068 0.37922 0.0789 0.0
C575 C 0.81248 0.33296 0.08376 0.0
C576 C 0.85385 0.42015 0.08807 0.0
C577 C 0.77744 0.32783 0.09788 0.0
C578 C 0.78097 0.36829 0.10742 0.0
C579 C 0.82239 0.45553 0.11187 0.0
C580 C 0.85922 0.50235 0.10644 0.0
C581 C 0.81905 0.41463 0.10262 0.0
C582 C 0.89286 0.50716 0.09153 0.0
C583 C 0.89067 0.46655 0.08271 0.0
H584 H 0.35258 0.79513 0.29733 0.0
H585 H 0.36012 0.89949 0.25393 0.0
H586 H 0.43081 0.90399 0.2385 0.0
H587 H 0.48986 0.87653 0.23631 0.0
H588 H 0.47622 0.76418 0.27627 0.0
H589 H 0.40839 0.76377 0.29376 0.0
C590 C 0.36981 0.81905 0.28455 0.0
C591 C 0.35227 0.84894 0.27767 0.0
C592 C 0.40925 0.81957 0.27491 0.0
C593 C 0.37434 0.87857 0.26067 0.0
C594 C 0.41446 0.88045 0.25144 0.0
C595 C 0.47201 0.85222 0.24891 0.0
C596 C 0.48782 0.82073 0.25519 0.0
C597 C 0.43229 0.85121 0.25844 0.0
C598 C 0.46429 0.78868 0.27127 0.0
C599 C 0.42569 0.78852 0.28125 0.0
H600 H 0.26437 0.08419 0.31498 0.0
H601 H 0.28852 0.98133 0.34744 0.0
H602 H 0.31186 0.0324 0.3776 0.0
H603 H 0.31334 0.10026 0.39619 0.0
H604 H 0.28592 0.20066 0.36381 0.0
H605 H 0.27607 0.15681 0.3322 0.0
C606 C 0.2757 0.07328 0.32849 0.0
C607 C 0.27404 0.02852 0.32893 0.0
C608 C 0.28799 0.10228 0.34592 0.0
C609 C 0.2893 0.01543 0.3466 0.0
C610 C 0.30232 0.0445 0.36394 0.0
C611 C 0.30676 0.11325 0.38204 0.0
C612 C 0.30072 0.15377 0.38218 0.0
C613 C 0.3001 0.08713 0.364 0.0
C614 C 0.29116 0.16983 0.36393 0.0
C615 C 0.28521 0.14456 0.34592 0.0
H616 H 0.17594 0.24712 0.48382 0.0
H617 H 0.31013 0.28497 0.51408 0.0
H618 H 0.28194 0.30688 0.54451 0.0
H619 H 0.21423 0.3041 0.56407 0.0
H620 H 0.07972 0.26352 0.53377 0.0
H621 H 0.11278 0.25378 0.50187 0.0
C622 C 0.19955 0.26107 0.49692 0.0
C623 C 0.24497 0.26381 0.49665 0.0
C624 C 0.18264 0.27247 0.51451 0.0
C625 C 0.27506 0.28243 0.51376 0.0
C626 C 0.25873 0.29458 0.53128 0.0
C627 C 0.19278 0.29438 0.55032 0.0
C628 C 0.14462 0.28451 0.55117 0.0
C629 C 0.21191 0.28811 0.53207 0.0
C630 C 0.11685 0.27131 0.53339 0.0
C631 C 0.1357 0.26559 0.5152 0.0
H632 H 0.89841 0.21402 0.72856 0.0
H633 H 0.80117 0.08324 0.69681 0.0
H634 H 0.84459 0.11784 0.66511 0.0
H635 H 0.91742 0.17944 0.64798 0.0
H636 H 0.01878 0.30857 0.68 0.0
H637 H 0.96606 0.28138 0.70978 0.0
C638 C 0.88594 0.19398 0.7145 0.0
C639 C 0.84649 0.14641 0.71484 0.0
C640 C 0.91222 0.21364 0.69645 0.0
C641 C 0.83108 0.12011 0.69674 0.0
C642 C 0.85616 0.13977 0.67869 0.0
C643 C 0.92757 0.20231 0.66129 0.0
C644 C 0.97249 0.24572 0.66179 0.0
C645 C 0.8979 0.18569 0.67856 0.0
C646 C 0.98458 0.27499 0.67913 0.0
C647 C 0.95459 0.25919 0.69628 0.0
H648 H 0.71877 0.99793 0.84609 0.0
H649 H 0.72636 0.90889 0.79909 0.0
H650 H 0.70385 0.84335 0.82326 0.0
H651 H 0.69433 0.8159 0.85875 0.0
H652 H 0.68983 0.90562 0.9061 0.0
H653 H 0.69849 0.96589 0.88106 0.0
C654 C 0.71369 0.96354 0.84103 0.0
C655 C 0.72414 0.9583 0.8208 0.0
C656 C 0.7023 0.92635 0.85524 0.0
C657 C 0.71839 0.91379 0.81456 0.0
C658 C 0.70596 0.8764 0.82843 0.0
C659 C 0.69414 0.84819 0.86345 0.0
C660 C 0.69133 0.85636 0.88415 0.0
C661 C 0.6998 0.88297 0.84896 0.0
C662 C 0.69152 0.89845 0.89018 0.0
C663 C 0.69674 0.93302 0.87587 0.0
H664 H 0.82478 0.74763 0.97921 0.0
H665 H 0.69024 0.70651 1.00984 0.0
H666 H 0.7211 0.68845 0.04056 0.0
H667 H 0.79076 0.69517 0.06011 0.0
H668 H 0.92614 0.7414 0.02962 0.0
H669 H 0.89068 0.7466 0.9975 0.0
C670 C 0.80161 0.73376 0.99242 0.0
C671 C 0.75522 0.72891 0.99213 0.0
C672 C 0.82016 0.72494 1.01022 0.0
C673 C 0.72602 0.7107 1.00952 0.0
C674 C 0.74384 0.70071 0.02719 0.0
C675 C 0.81189 0.70516 0.04627 0.0
C676 C 0.86083 0.71755 0.04707 0.0
C677 C 0.79147 0.70928 0.02794 0.0
C678 C 0.88833 0.73133 0.02922 0.0
C679 C 0.8681 0.73452 1.01092 0.0
H680 H 0.00293 0.72898 0.1793 0.0
H681 H 0.0931 0.83282 0.13424 0.0
H682 H 0.15639 0.87612 0.15943 0.0
H683 H 0.18136 0.89115 0.19529 0.0
H684 H 0.09006 0.78979 0.24075 0.0
H685 H 0.03228 0.73901 0.21466 0.0
C686 C 0.03717 0.76 0.17488 0.0
C687 C 0.04343 0.77744 0.15489 0.0
C688 C 0.07287 0.78591 0.1897 0.0
C689 C 0.08756 0.81849 0.1495 0.0
C690 C 0.1236 0.84359 0.16396 0.0
C691 C 0.14923 0.85744 0.19934 0.0
C692 C 0.13995 0.84402 0.21982 0.0
C693 C 0.11592 0.82876 0.18426 0.0
C694 C 0.09806 0.80053 0.22501 0.0
C695 C 0.06496 0.77161 0.21011 0.0
H696 H 0.94838 0.75875 0.54959 0.0
H697 H 0.04276 0.71797 0.52016 0.0
H698 H 0.99048 0.69246 0.49016 0.0
H699 H 0.92537 0.69475 0.47032 0.0
H700 H 0.83524 0.74074 0.49963 0.0
H701 H 0.8781 0.7511 0.5316 0.0
C702 C 0.95703 0.74323 0.53681 0.0
C703 C -0.00012 0.74087 0.5371 0.0
C704 C 0.92773 0.73018 0.51942 0.0
C705 C 0.01008 0.72019 0.52043 0.0
C706 C 0.98041 0.70608 0.50315 0.0
C707 C 0.91433 0.70555 0.48392 0.0
C708 C 0.87701 0.71662 0.48278 0.0
C709 C 0.94023 0.71276 0.50216 0.0
C710 C 0.86352 0.73159 0.5003 0.0
C711 C 0.88824 0.7378 0.51851 0.0
H712 H 0.22986 0.91349 0.64071 0.0
H713 H 0.08777 0.82157 0.66558 0.0
H714 H 0.11547 0.85951 0.6988 0.0
H715 H 0.17665 0.92527 0.71935 0.0
H716 H 0.31752 0.02218 0.69403 0.0
H717 H 0.29435 0.97524 0.66266 0.0
C718 C 0.20553 0.90111 0.65361 0.0
C719 C 0.15701 0.86462 0.6509 0.0
C720 C 0.22145 0.92423 0.67252 0.0
C721 C 0.12534 0.84933 0.66748 0.0
C722 C 0.14114 0.87118 0.68641 0.0
C723 C 0.20287 0.93568 0.7072 0.0
C724 C 0.24877 0.97764 0.70911 0.0
C725 C 0.18869 0.90962 0.68894 0.0
C726 C 0.28195 0.99025 0.69306 0.0
C727 C 0.26857 0.96357 0.67502 0.0
H728 H 0.26094 0.1899 0.88719 0.0
H729 H 0.28076 0.31353 0.85322 0.0
H730 H 0.30497 0.28537 0.8235 0.0
H731 H 0.30707 0.21844 0.80565 0.0
H732 H 0.28614 0.09478 0.83972 0.0
H733 H 0.27572 0.1299 0.87084 0.0
C734 C 0.2718 0.21144 0.87346 0.0
C735 C 0.26842 0.25356 0.87245 0.0
C736 C 0.2846 0.19442 0.85627 0.0
C737 C 0.28304 0.28109 0.85453 0.0
C738 C 0.29638 0.26466 0.83741 0.0
C739 C 0.30168 0.19998 0.82001 0.0
C740 C 0.29704 0.15393 0.82043 0.0
C741 C 0.2953 0.22034 0.83785 0.0
C742 C 0.28958 0.13012 0.83907 0.0
C743 C 0.2835 0.15015 0.85683 0.0
H744 H 0.05187 0.24947 0.04744 0.0
H745 H 0.95371 0.28148 0.0154 0.0
H746 H 0.00643 0.30578 0.98561 0.0
H747 H 0.07404 0.30574 0.96699 0.0
H748 H 0.16837 0.26872 0.9989 0.0
H749 H 0.12365 0.25843 0.03033 0.0
C750 C 0.04237 0.26277 0.03413 0.0
C751 C 0.99838 0.26304 0.0337 0.0
C752 C 0.07194 0.27501 0.01684 0.0
C753 C 0.98719 0.28085 0.01628 0.0
C754 C 0.01715 0.29427 0.99911 0.0
C755 C 0.08534 0.29661 0.98099 0.0
C756 C 0.1244 0.28799 0.98073 0.0
C757 C 0.05862 0.28967 0.99895 0.0
C758 C 0.13849 0.27558 0.99883 0.0
C759 C 0.11282 0.26956 0.01675 0.0
H760 H 0.70104 0.97582 0.18282 0.0
H761 H 0.81605 0.06467 0.22431 0.0
H762 H 0.85445 0.12726 0.19855 0.0
H763 H 0.8622 0.15138 0.16267 0.0
H764 H 0.74874 0.06284 0.12074 0.0
H765 H 0.70295 0.00585 0.14799 0.0
C766 C 0.73351 0.00961 0.18643 0.0
C767 C 0.75564 0.01541 0.20549 0.0
C768 C 0.75634 0.0452 0.17125 0.0
C769 C 0.79825 0.0592 0.20978 0.0
C770 C 0.82053 0.09493 0.19498 0.0
C771 C 0.82687 0.12019 0.1597 0.0
C772 C 0.8087 0.1112 0.13984 0.0
C773 C 0.80102 0.08749 0.17542 0.0
C774 C 0.76315 0.07054 0.13601 0.0
C775 C 0.73713 0.03786 0.15157 0.0
H776 H 0.73233 0.7137 0.35296 0.0
H777 H 0.75576 0.82869 0.39357 0.0
H778 H 0.73241 0.86595 0.36708 0.0
H779 H 0.71804 0.87293 0.33087 0.0
H780 H 0.69592 0.75956 0.28985 0.0
H781 H 0.70571 0.71459 0.31776 0.0
C782 C 0.73063 0.74594 0.3562 0.0
C783 C 0.74608 0.76846 0.37523 0.0
C784 C 0.71831 0.76808 0.34062 0.0
C785 C 0.74426 0.81067 0.37906 0.0
C786 C 0.73125 0.83228 0.36385 0.0
C787 C 0.71405 0.83774 0.32825 0.0
C788 C 0.70613 0.81933 0.30847 0.0
C789 C 0.7202 0.81245 0.34434 0.0
C790 C 0.7016 0.77406 0.30506 0.0
C791 C 0.70748 0.74854 0.32099 0.0
H792 H 0.29955 0.09605 0.50933 0.0
H793 H 0.19408 0.01933 0.46253 0.0
H794 H 0.1639 0.94397 0.48114 0.0
H795 H 0.15892 0.90256 0.5129 0.0
H796 H 0.2591 0.97883 0.56115 0.0
H797 H 0.30058 0.05144 0.53987 0.0
C798 C 0.27078 0.06257 0.50307 0.0
C799 C 0.24862 0.0632 0.48476 0.0
C800 C 0.25249 0.01938 0.5142 0.0
C801 C 0.21118 0.01973 0.47677 0.0
C802 C 0.1939 0.97663 0.48738 0.0
C803 C 0.19088 0.9347 0.51841 0.0
C804 C 0.20662 0.93569 0.53827 0.0
C805 C 0.21303 0.97638 0.50642 0.0
C806 C 0.24717 0.97747 0.54567 0.0
C807 C 0.27044 0.01897 0.53359 0.0
H808 H 0.10889 0.16942 0.66726 0.0
H809 H 0.23474 0.31183 0.66363 0.0
H810 H 0.27858 0.28664 0.68662 0.0
H811 H 0.28044 0.22248 0.70768 0.0
H812 H 0.15083 0.08195 0.71077 0.0
H813 H 0.10963 0.10826 0.68802 0.0
C814 C 0.14604 0.19518 0.67135 0.0
C815 C 0.16862 0.24231 0.66356 0.0
C816 C 0.17047 0.18069 0.68455 0.0
C817 C 0.2165 0.27523 0.66939 0.0
C818 C 0.24157 0.26078 0.6825 0.0
C819 C 0.24325 0.1978 0.70333 0.0
C820 C 0.21896 0.15031 0.71106 0.0
C821 C 0.2189 0.21337 0.69016 0.0
C822 C 0.17058 0.11881 0.70531 0.0
C823 C 0.14677 0.1337 0.69218 0.0
H824 H 0.97283 0.16639 0.80816 0.0
H825 H 0.87546 0.18854 0.84568 0.0
H826 H 0.94102 0.23416 0.87 0.0
H827 H 0.02398 0.25919 0.88237 0.0
H828 H 0.11908 0.23458 0.84453 0.0
H829 H 0.0567 0.19884 0.8184 0.0
C830 C 0.96601 0.18161 0.82157 0.0
C831 C 0.91926 0.17346 0.82533 0.0
C832 C 0.00355 0.20731 0.8354 0.0
C833 C 0.91117 0.19418 0.84253 0.0
C834 C 0.94858 0.22005 0.85646 0.0
C835 C 0.03115 0.24717 0.86813 0.0
C836 C 0.07582 0.24967 0.86511 0.0
C837 C 0.99462 0.22574 0.85331 0.0
C838 C 0.08492 0.2333 0.8469 0.0
C839 C 0.04923 0.21262 0.83207 0.0
H840 H 0.86867 0.08358 1.01401 0.0
H841 H 0.73175 0.0425 0.04203 0.0
H842 H 0.69179 0.97003 0.02052 0.0
H843 H 0.69858 0.91474 0.99599 0.0
H844 H 0.83775 0.95976 0.9685 0.0
H845 H 0.87381 0.03432 0.98744 0.0
C846 C 0.8299 0.05905 1.01516 0.0
C847 C 0.80308 0.0677 0.02955 0.0
C848 C 0.80771 0.01795 1.00298 0.0
C849 C 0.7529 0.03631 0.0309 0.0
C850 C 0.73026 0.99482 0.01874 0.0
C851 C 0.73662 0.94112 0.99402 0.0
C852 C 0.76543 0.93097 0.9811 0.0
C853 C 0.75765 0.98461 1.00507 0.0
C854 C 0.81464 0.96591 0.97855 0.0
C855 C 0.8355 0.00883 0.98936 0.0
H856 H 0.7972 0.77118 0.13734 0.0
H857 H 0.84217 0.70808 0.18398 0.0
H858 H 0.79813 0.72654 0.20942 0.0
H859 H 0.75849 0.77271 0.21878 0.0
H860 H 0.71049 0.83269 0.17201 0.0
H861 H 0.74299 0.80241 0.14598 0.0
C862 C 0.79615 0.76044 0.15301 0.0
C863 C 0.82309 0.73899 0.159 0.0
C864 C 0.77045 0.77074 0.16742 0.0
C865 C 0.82149 0.72465 0.17919 0.0
C866 C 0.79662 0.73545 0.1937 0.0
C867 C 0.75372 0.77749 0.20283 0.0
C868 C 0.73245 0.80475 0.19714 0.0
C869 C 0.77256 0.76013 0.18807 0.0
C870 C 0.72642 0.81128 0.17657 0.0
C871 C 0.74547 0.79448 0.16175 0.0
H872 H 0.90856 0.77439 0.34679 0.0
H873 H 0.96962 0.71908 0.38982 0.0
H874 H 0.04206 0.74763 0.3685 0.0
H875 H 0.09214 0.79861 0.3398 0.0
H876 H 0.02955 0.85552 0.2979 0.0
H877 H 0.95352 0.81558 0.31632 0.0
C878 C 0.93721 0.76739 0.35112 0.0
C879 C 0.93409 0.74455 0.36958 0.0
C880 C 0.97876 0.78485 0.33911 0.0
C881 C 0.97135 0.73608 0.3754 0.0
C882 C 0.01284 0.75283 0.36334 0.0
C883 C 0.06151 0.80138 0.33453 0.0
C884 C 0.06682 0.83076 0.31774 0.0
C885 C 0.01767 0.77881 0.34547 0.0
C886 C 0.02677 0.83394 0.31102 0.0
C887 C 0.98315 0.81104 0.32151 0.0
loop_
_geom_bond_atom_site_label_1
_geom_bond_atom_site_label_2
_geom_bond_distance
_geom_bond_site_symmetry_2
_ccdc_geom_bond_type
Co0 O3 1.970 . S
Co0 N17 1.989 . S
Co0 O25 1.967 . S
Co0 O32 1.920 . S
Co1 O4 1.966 . S
Co1 N10 2.022 . S
Co1 N18 1.993 . S
Co1 O26 1.941 . S
C2 O3 1.258 . S
C2 O4 1.263 . S
O3 Co0 1.970 . S
O3 C2 1.258 . S
O4 Co1 1.966 . S
O4 C2 1.263 . S
C5 O6 1.235 . S
C5 O32 1.289 . S
O6 C5 1.235 . S
C7 C9 1.400 . S
C7 N10 1.351 . S
C7 C12 1.501 . S
C8 C9 1.387 . S
C8 N11 1.341 . S
C9 C7 1.400 . S
C9 C8 1.387 . S
N10 Co1 2.022 . S
N10 C7 1.351 . S
N10 N11 1.365 . S
N11 C8 1.341 . S
N11 N10 1.365 . S
N11 H31 0.862 . S
C12 C7 1.501 . S
C12 H13 0.961 . S
C12 H14 0.961 . S
C12 H15 0.960 . S
H13 C12 0.961 . S
H14 C12 0.961 . S
H15 C12 0.960 . S
C16 N17 1.342 . S
C16 C20 1.401 . S
C16 C21 1.499 . S
N17 Co0 1.989 . S
N17 C16 1.342 . S
N17 N18 1.388 . S
N18 Co1 1.993 . S
N18 N17 1.388 . S
N18 C19 1.346 . S
C19 N18 1.346 . S
C19 C20 1.396 . S
C19 C29 1.510 . S
C20 C16 1.401 . S
C20 C19 1.396 . S
C21 C16 1.499 . S
C21 H22 0.959 . S
C21 H23 0.960 . S
C21 H24 0.961 . S
H22 C21 0.959 . S
H23 C21 0.960 . S
H24 C21 0.961 . S
O25 Co0 1.967 . S
O25 C33 1.258 . S
O26 Co1 1.941 . S
O26 C33 1.266 . S
H27 C29 0.959 . S
H28 C29 0.961 . S
C29 C19 1.510 . S
C29 H27 0.959 . S
C29 H28 0.961 . S
C29 H30 0.960 . S
H30 C29 0.960 . S
H31 N11 0.862 . S
O32 Co0 1.920 . S
O32 C5 1.289 . S
C33 O25 1.258 . S
C33 O26 1.266 . S
Co34 O37 1.970 . S
Co34 N51 1.989 . S
Co34 O59 1.967 . S
Co34 O66 1.920 . S
Co35 O38 1.966 . S
Co35 N44 2.022 . S
Co35 N52 1.993 . S
Co35 O60 1.941 . S
C36 O37 1.258 . S
C36 O38 1.263 . S
O37 Co34 1.970 . S
O37 C36 1.258 . S
O38 Co35 1.966 . S
O38 C36 1.263 . S
C39 O40 1.235 . S
C39 O66 1.289 . S
O40 C39 1.235 . S
C41 C43 1.400 . S
C41 N44 1.351 . S
C41 C46 1.501 . S
C42 C43 1.387 . S
C42 N45 1.341 . S
C43 C41 1.400 . S
C43 C42 1.387 . S
N44 Co35 2.022 . S
N44 C41 1.351 . S
N44 N45 1.365 . S
N45 C42 1.341 . S
N45 N44 1.365 . S
N45 H65 0.862 . S
C46 C41 1.501 . S
C46 H47 0.961 . S
C46 H48 0.961 . S
C46 H49 0.960 . S
H47 C46 0.961 . S
H48 C46 0.961 . S
H49 C46 0.960 . S
C50 N51 1.342 . S
C50 C54 1.401 . S
C50 C55 1.499 . S
N51 Co34 1.989 . S
N51 C50 1.342 . S
N51 N52 1.388 . S
N52 Co35 1.993 . S
N52 N51 1.388 . S
N52 C53 1.346 . S
C53 N52 1.346 . S
C53 C54 1.396 . S
C53 C63 1.510 . S
C54 C50 1.401 . S
C54 C53 1.396 . S
C55 C50 1.499 . S
C55 H56 0.959 . S
C55 H57 0.960 . S
C55 H58 0.961 . S
H56 C55 0.959 . S
H57 C55 0.960 . S
H58 C55 0.961 . S
O59 Co34 1.967 . S
O59 C67 1.258 . S
O60 Co35 1.941 . S
O60 C67 1.266 . S
H61 C63 0.959 . S
H62 C63 0.961 . S
C63 C53 1.510 . S
C63 H61 0.959 . S
C63 H62 0.961 . S
C63 H64 0.960 . S
H64 C63 0.960 . S
H65 N45 0.862 . S
O66 Co34 1.920 . S
O66 C39 1.289 . S
C67 O59 1.258 . S
C67 O60 1.266 . S
Co68 O71 1.970 . S
Co68 N85 1.989 . S
Co68 O93 1.967 . S
Co68 O100 1.920 . S
Co69 O72 1.966 . S
Co69 N78 2.022 . S
Co69 N86 1.993 . S
Co69 O94 1.941 . S
C70 O71 1.258 . S
C70 O72 1.263 . S
O71 Co68 1.970 . S
O71 C70 1.258 . S
O72 Co69 1.966 . S
O72 C70 1.263 . S
C73 O74 1.235 . S
C73 O100 1.289 . S
O74 C73 1.235 . S
C75 C77 1.400 . S
C75 N78 1.351 . S
C75 C80 1.501 . S
C76 C77 1.387 . S
C76 N79 1.341 . S
C77 C75 1.400 . S
C77 C76 1.387 . S
N78 Co69 2.022 . S
N78 C75 1.351 . S
N78 N79 1.365 . S
N79 C76 1.341 . S
N79 N78 1.365 . S
N79 H99 0.862 . S
C80 C75 1.501 . S
C80 H81 0.961 . S
C80 H82 0.961 . S
C80 H83 0.960 . S
H81 C80 0.961 . S
H82 C80 0.961 . S
H83 C80 0.960 . S
C84 N85 1.342 . S
C84 C88 1.401 . S
C84 C89 1.499 . S
N85 Co68 1.989 . S
N85 C84 1.342 . S
N85 N86 1.388 . S
N86 Co69 1.993 . S
N86 N85 1.388 . S
N86 C87 1.346 . S
C87 N86 1.346 . S
C87 C88 1.396 . S
C87 C97 1.510 . S
C88 C84 1.401 . S
C88 C87 1.396 . S
C89 C84 1.499 . S
C89 H90 0.959 . S
C89 H91 0.960 . S
C89 H92 0.961 . S
H90 C89 0.959 . S
H91 C89 0.960 . S
H92 C89 0.961 . S
O93 Co68 1.967 . S
O93 C101 1.258 . S
O94 Co69 1.941 . S
O94 C101 1.266 . S
H95 C97 0.959 . S
H96 C97 0.961 . S
C97 C87 1.510 . S
C97 H95 0.959 . S
C97 H96 0.961 . S
C97 H98 0.960 . S
H98 C97 0.960 . S
H99 N79 0.862 . S
O100 Co68 1.920 . S
O100 C73 1.289 . S
C101 O93 1.258 . S
C101 O94 1.266 . S
Co102 O105 1.970 . S
Co102 N119 1.989 . S
Co102 O127 1.967 . S
Co102 O134 1.920 . S
Co103 O106 1.966 . S
Co103 N112 2.022 . S
Co103 N120 1.993 . S
Co103 O128 1.941 . S
C104 O105 1.258 . S
C104 O106 1.263 . S
O105 Co102 1.970 . S
O105 C104 1.258 . S
O106 Co103 1.966 . S
O106 C104 1.263 . S
C107 O108 1.235 . S
C107 O134 1.289 . S
O108 C107 1.235 . S
C109 C111 1.400 . S
C109 N112 1.351 . S
C109 C114 1.501 . S
C110 C111 1.387 . S
C110 N113 1.341 . S
C111 C109 1.400 . S
C111 C110 1.387 . S
N112 Co103 2.022 . S
N112 C109 1.351 . S
N112 N113 1.365 . S
N113 C110 1.341 . S
N113 N112 1.365 . S
N113 H133 0.862 . S
C114 C109 1.501 . S
C114 H115 0.961 . S
C114 H116 0.961 . S
C114 H117 0.960 . S
H115 C114 0.961 . S
H116 C114 0.961 . S
H117 C114 0.960 . S
C118 N119 1.342 . S
C118 C122 1.401 . S
C118 C123 1.499 . S
N119 Co102 1.989 . S
N119 C118 1.342 . S
N119 N120 1.388 . S
N120 Co103 1.993 . S
N120 N119 1.388 . S
N120 C121 1.346 . S
C121 N120 1.346 . S
C121 C122 1.396 . S
C121 C131 1.510 . S
C122 C118 1.401 . S
C122 C121 1.396 . S
C123 C118 1.499 . S
C123 H124 0.959 . S
C123 H125 0.960 . S
C123 H126 0.961 . S
H124 C123 0.959 . S
H125 C123 0.960 . S
H126 C123 0.961 . S
O127 Co102 1.967 . S
O127 C135 1.258 . S
O128 Co103 1.941 . S
O128 C135 1.266 . S
H129 C131 0.959 . S
H130 C131 0.961 . S
C131 C121 1.510 . S
C131 H129 0.959 . S
C131 H130 0.961 . S
C131 H132 0.960 . S
H132 C131 0.960 . S
H133 N113 0.862 . S
O134 Co102 1.920 . S
O134 C107 1.289 . S
C135 O127 1.258 . S
C135 O128 1.266 . S
Co136 O139 1.970 . S
Co136 N153 1.989 . S
Co136 O161 1.967 . S
Co136 O168 1.920 . S
Co137 O140 1.966 . S
Co137 N146 2.022 . S
Co137 N154 1.993 . S
Co137 O162 1.941 . S
C138 O139 1.258 . S
C138 O140 1.263 . S
O139 Co136 1.970 . S
O139 C138 1.258 . S
O140 Co137 1.966 . S
O140 C138 1.263 . S
C141 O142 1.235 . S
C141 O168 1.289 . S
O142 C141 1.235 . S
C143 C145 1.400 . S
C143 N146 1.351 . S
C143 C148 1.501 . S
C144 C145 1.387 . S
C144 N147 1.341 . S
C145 C143 1.400 . S
C145 C144 1.387 . S
N146 Co137 2.022 . S
N146 C143 1.351 . S
N146 N147 1.365 . S
N147 C144 1.341 . S
N147 N146 1.365 . S
N147 H167 0.862 . S
C148 C143 1.501 . S
C148 H149 0.961 . S
C148 H150 0.961 . S
C148 H151 0.960 . S
H149 C148 0.961 . S
H150 C148 0.961 . S
H151 C148 0.960 . S
C152 N153 1.342 . S
C152 C156 1.401 . S
C152 C157 1.499 . S
N153 Co136 1.989 . S
N153 C152 1.342 . S
N153 N154 1.388 . S
N154 Co137 1.993 . S
N154 N153 1.388 . S
N154 C155 1.346 . S
C155 N154 1.346 . S
C155 C156 1.396 . S
C155 C165 1.510 . S
C156 C152 1.401 . S
C156 C155 1.396 . S
C157 C152 1.499 . S
C157 H158 0.959 . S
C157 H159 0.960 . S
C157 H160 0.961 . S
H158 C157 0.959 . S
H159 C157 0.960 . S
H160 C157 0.961 . S
O161 Co136 1.967 . S
O161 C169 1.258 . S
O162 Co137 1.941 . S
O162 C169 1.266 . S
H163 C165 0.959 . S
H164 C165 0.961 . S
C165 C155 1.510 . S
C165 H163 0.959 . S
C165 H164 0.961 . S
C165 H166 0.960 . S
H166 C165 0.960 . S
H167 N147 0.862 . S
O168 Co136 1.920 . S
O168 C141 1.289 . S
C169 O161 1.258 . S
C169 O162 1.266 . S
Co170 O173 1.970 . S
Co170 N187 1.989 . S
Co170 O195 1.967 . S
Co170 O202 1.920 . S
Co171 O174 1.966 . S
Co171 N180 2.022 . S
Co171 N188 1.993 . S
Co171 O196 1.941 . S
C172 O173 1.258 . S
C172 O174 1.263 . S
O173 Co170 1.970 . S
O173 C172 1.258 . S
O174 Co171 1.966 . S
O174 C172 1.263 . S
C175 O176 1.235 . S
C175 O202 1.289 . S
O176 C175 1.235 . S
C177 C179 1.400 . S
C177 N180 1.351 . S
C177 C182 1.501 . S
C178 C179 1.387 . S
C178 N181 1.341 . S
C179 C177 1.400 . S
C179 C178 1.387 . S
N180 Co171 2.022 . S
N180 C177 1.351 . S
N180 N181 1.365 . S
N181 C178 1.341 . S
N181 N180 1.365 . S
N181 H201 0.862 . S
C182 C177 1.501 . S
C182 H183 0.961 . S
C182 H184 0.961 . S
C182 H185 0.960 . S
H183 C182 0.961 . S
H184 C182 0.961 . S
H185 C182 0.960 . S
C186 N187 1.342 . S
C186 C190 1.401 . S
C186 C191 1.499 . S
N187 Co170 1.989 . S
N187 C186 1.342 . S
N187 N188 1.388 . S
N188 Co171 1.993 . S
N188 N187 1.388 . S
N188 C189 1.346 . S
C189 N188 1.346 . S
C189 C190 1.396 . S
C189 C199 1.510 . S
C190 C186 1.401 . S
C190 C189 1.396 . S
C191 C186 1.499 . S
C191 H192 0.959 . S
C191 H193 0.960 . S
C191 H194 0.961 . S
H192 C191 0.959 . S
H193 C191 0.960 . S
H194 C191 0.961 . S
O195 Co170 1.967 . S
O195 C203 1.258 . S
O196 Co171 1.941 . S
O196 C203 1.266 . S
H197 C199 0.959 . S
H198 C199 0.961 . S
C199 C189 1.510 . S
C199 H197 0.959 . S
C199 H198 0.961 . S
C199 H200 0.960 . S
H200 C199 0.960 . S
H201 N181 0.862 . S
O202 Co170 1.920 . S
O202 C175 1.289 . S
C203 O195 1.258 . S
C203 O196 1.266 . S
Co204 O207 1.970 . S
Co204 N221 1.989 . S
Co204 O229 1.967 . S
Co204 O236 1.920 . S
Co205 O208 1.966 . S
Co205 N214 2.022 . S
Co205 N222 1.993 . S
Co205 O230 1.941 . S
C206 O207 1.258 . S
C206 O208 1.263 . S
O207 Co204 1.970 . S
O207 C206 1.258 . S
O208 Co205 1.966 . S
O208 C206 1.263 . S
C209 O210 1.235 . S
C209 O236 1.289 . S
O210 C209 1.235 . S
C211 C213 1.400 . S
C211 N214 1.351 . S
C211 C216 1.501 . S
C212 C213 1.387 . S
C212 N215 1.341 . S
C213 C211 1.400 . S
C213 C212 1.387 . S
N214 Co205 2.022 . S
N214 C211 1.351 . S
N214 N215 1.365 . S
N215 C212 1.341 . S
N215 N214 1.365 . S
N215 H235 0.862 . S
C216 C211 1.501 . S
C216 H217 0.961 . S
C216 H218 0.961 . S
C216 H219 0.960 . S
H217 C216 0.961 . S
H218 C216 0.961 . S
H219 C216 0.960 . S
C220 N221 1.342 . S
C220 C224 1.401 . S
C220 C225 1.499 . S
N221 Co204 1.989 . S
N221 C220 1.342 . S
N221 N222 1.388 . S
N222 Co205 1.993 . S
N222 N221 1.388 . S
N222 C223 1.346 . S
C223 N222 1.346 . S
C223 C224 1.396 . S
C223 C233 1.510 . S
C224 C220 1.401 . S
C224 C223 1.396 . S
C225 C220 1.499 . S
C225 H226 0.959 . S
C225 H227 0.960 . S
C225 H228 0.961 . S
H226 C225 0.959 . S
H227 C225 0.960 . S
H228 C225 0.961 . S
O229 Co204 1.967 . S
O229 C237 1.258 . S
O230 Co205 1.941 . S
O230 C237 1.266 . S
H231 C233 0.959 . S
H232 C233 0.961 . S
C233 C223 1.510 . S
C233 H231 0.959 . S
C233 H232 0.961 . S
C233 H234 0.960 . S
H234 C233 0.960 . S
H235 N215 0.862 . S
O236 Co204 1.920 . S
O236 C209 1.289 . S
C237 O229 1.258 . S
C237 O230 1.266 . S
Co238 O241 1.970 . S
Co238 N255 1.989 . S
Co238 O263 1.967 . S
Co238 O270 1.920 . S
Co239 O242 1.966 . S
Co239 N248 2.022 . S
Co239 N256 1.993 . S
Co239 O264 1.941 . S
C240 O241 1.258 . S
C240 O242 1.263 . S
O241 Co238 1.970 . S
O241 C240 1.258 . S
O242 Co239 1.966 . S
O242 C240 1.263 . S
C243 O244 1.235 . S
C243 O270 1.289 . S
O244 C243 1.235 . S
C245 C247 1.400 . S
C245 N248 1.351 . S
C245 C250 1.501 . S
C246 C247 1.387 . S
C246 N249 1.341 . S
C247 C245 1.400 . S
C247 C246 1.387 . S
N248 Co239 2.022 . S
N248 C245 1.351 . S
N248 N249 1.365 . S
N249 C246 1.341 . S
N249 N248 1.365 . S
N249 H269 0.862 . S
C250 C245 1.501 . S
C250 H251 0.961 . S
C250 H252 0.961 . S
C250 H253 0.960 . S
H251 C250 0.961 . S
H252 C250 0.961 . S
H253 C250 0.960 . S
C254 N255 1.342 . S
C254 C258 1.401 . S
C254 C259 1.499 . S
N255 Co238 1.989 . S
N255 C254 1.342 . S
N255 N256 1.388 . S
N256 Co239 1.993 . S
N256 N255 1.388 . S
N256 C257 1.346 . S
C257 N256 1.346 . S
C257 C258 1.396 . S
C257 C267 1.510 . S
C258 C254 1.401 . S
C258 C257 1.396 . S
C259 C254 1.499 . S
C259 H260 0.959 . S
C259 H261 0.960 . S
C259 H262 0.961 . S
H260 C259 0.959 . S
H261 C259 0.960 . S
H262 C259 0.961 . S
O263 Co238 1.967 . S
O263 C271 1.258 . S
O264 Co239 1.941 . S
O264 C271 1.266 . S
H265 C267 0.959 . S
H266 C267 0.961 . S
C267 C257 1.510 . S
C267 H265 0.959 . S
C267 H266 0.961 . S
C267 H268 0.960 . S
H268 C267 0.960 . S
H269 N249 0.862 . S
O270 Co238 1.920 . S
O270 C243 1.289 . S
C271 O263 1.258 . S
C271 O264 1.266 . S
Co272 O275 1.970 . S
Co272 N289 1.989 . S
Co272 O297 1.967 . S
Co272 O304 1.920 . S
Co273 O276 1.966 . S
Co273 N282 2.022 . S
Co273 N290 1.993 . S
Co273 O298 1.941 . S
C274 O275 1.258 . S
C274 O276 1.263 . S
O275 Co272 1.970 . S
O275 C274 1.258 . S
O276 Co273 1.966 . S
O276 C274 1.263 . S
C277 O278 1.235 . S
C277 O304 1.289 . S
O278 C277 1.235 . S
C279 C281 1.400 . S
C279 N282 1.351 . S
C279 C284 1.501 . S
C280 C281 1.387 . S
C280 N283 1.341 . S
C281 C279 1.400 . S
C281 C280 1.387 . S
N282 Co273 2.022 . S
N282 C279 1.351 . S
N282 N283 1.365 . S
N283 C280 1.341 . S
N283 N282 1.365 . S
N283 H303 0.862 . S
C284 C279 1.501 . S
C284 H285 0.961 . S
C284 H286 0.961 . S
C284 H287 0.960 . S
H285 C284 0.961 . S
H286 C284 0.961 . S
H287 C284 0.960 . S
C288 N289 1.342 . S
C288 C292 1.401 . S
C288 C293 1.499 . S
N289 Co272 1.989 . S
N289 C288 1.342 . S
N289 N290 1.388 . S
N290 Co273 1.993 . S
N290 N289 1.388 . S
N290 C291 1.346 . S
C291 N290 1.346 . S
C291 C292 1.396 . S
C291 C301 1.510 . S
C292 C288 1.401 . S
C292 C291 1.396 . S
C293 C288 1.499 . S
C293 H294 0.959 . S
C293 H295 0.960 . S
C293 H296 0.961 . S
H294 C293 0.959 . S
H295 C293 0.960 . S
H296 C293 0.961 . S
O297 Co272 1.967 . S
O297 C305 1.258 . S
O298 Co273 1.941 . S
O298 C305 1.266 . S
H299 C301 0.959 . S
H300 C301 0.961 . S
C301 C291 1.510 . S
C301 H299 0.959 . S
C301 H300 0.961 . S
C301 H302 0.960 . S
H302 C301 0.960 . S
H303 N283 0.862 . S
O304 Co272 1.920 . S
O304 C277 1.289 . S
C305 O297 1.258 . S
C305 O298 1.266 . S
Co306 O309 1.970 . S
Co306 N323 1.989 . S
Co306 O331 1.967 . S
Co306 O338 1.920 . S
Co307 O310 1.966 . S
Co307 N316 2.022 . S
Co307 N324 1.993 . S
Co307 O332 1.941 . S
C308 O309 1.258 . S
C308 O310 1.263 . S
O309 Co306 1.970 . S
O309 C308 1.258 . S
O310 Co307 1.966 . S
O310 C308 1.263 . S
C311 O312 1.235 . S
C311 O338 1.289 . S
O312 C311 1.235 . S
C313 C315 1.400 . S
C313 N316 1.351 . S
C313 C318 1.501 . S
C314 C315 1.387 . S
C314 N317 1.341 . S
C315 C313 1.400 . S
C315 C314 1.387 . S
N316 Co307 2.022 . S
N316 C313 1.351 . S
N316 N317 1.365 . S
N317 C314 1.341 . S
N317 N316 1.365 . S
N317 H337 0.862 . S
C318 C313 1.501 . S
C318 H319 0.961 . S
C318 H320 0.961 . S
C318 H321 0.960 . S
H319 C318 0.961 . S
H320 C318 0.961 . S
H321 C318 0.960 . S
C322 N323 1.342 . S
C322 C326 1.401 . S
C322 C327 1.499 . S
N323 Co306 1.989 . S
N323 C322 1.342 . S
N323 N324 1.388 . S
N324 Co307 1.993 . S
N324 N323 1.388 . S
N324 C325 1.346 . S
C325 N324 1.346 . S
C325 C326 1.396 . S
C325 C335 1.510 . S
C326 C322 1.401 . S
C326 C325 1.396 . S
C327 C322 1.499 . S
C327 H328 0.959 . S
C327 H329 0.960 . S
C327 H330 0.961 . S
H328 C327 0.959 . S
H329 C327 0.960 . S
H330 C327 0.961 . S
O331 Co306 1.967 . S
O331 C339 1.258 . S
O332 Co307 1.941 . S
O332 C339 1.266 . S
H333 C335 0.959 . S
H334 C335 0.961 . S
C335 C325 1.510 . S
C335 H333 0.959 . S
C335 H334 0.961 . S
C335 H336 0.960 . S
H336 C335 0.960 . S
H337 N317 0.862 . S
O338 Co306 1.920 . S
O338 C311 1.289 . S
C339 O331 1.258 . S
C339 O332 1.266 . S
Co340 O343 1.970 . S
Co340 N357 1.989 . S
Co340 O365 1.967 . S
Co340 O372 1.920 . S
Co341 O344 1.966 . S
Co341 N350 2.022 . S
Co341 N358 1.993 . S
Co341 O366 1.941 . S
C342 O343 1.258 . S
C342 O344 1.263 . S
O343 Co340 1.970 . S
O343 C342 1.258 . S
O344 Co341 1.966 . S
O344 C342 1.263 . S
C345 O346 1.235 . S
C345 O372 1.289 . S
O346 C345 1.235 . S
C347 C349 1.400 . S
C347 N350 1.351 . S
C347 C352 1.501 . S
C348 C349 1.387 . S
C348 N351 1.341 . S
C349 C347 1.400 . S
C349 C348 1.387 . S
N350 Co341 2.022 . S
N350 C347 1.351 . S
N350 N351 1.365 . S
N351 C348 1.341 . S
N351 N350 1.365 . S
N351 H371 0.862 . S
C352 C347 1.501 . S
C352 H353 0.961 . S
C352 H354 0.961 . S
C352 H355 0.960 . S
H353 C352 0.961 . S
H354 C352 0.961 . S
H355 C352 0.960 . S
C356 N357 1.342 . S
C356 C360 1.401 . S
C356 C361 1.499 . S
N357 Co340 1.989 . S
N357 C356 1.342 . S
N357 N358 1.388 . S
N358 Co341 1.993 . S
N358 N357 1.388 . S
N358 C359 1.346 . S
C359 N358 1.346 . S
C359 C360 1.396 . S
C359 C369 1.510 . S
C360 C356 1.401 . S
C360 C359 1.396 . S
C361 C356 1.499 . S
C361 H362 0.959 . S
C361 H363 0.960 . S
C361 H364 0.961 . S
H362 C361 0.959 . S
H363 C361 0.960 . S
H364 C361 0.961 . S
O365 Co340 1.967 . S
O365 C373 1.258 . S
O366 Co341 1.941 . S
O366 C373 1.266 . S
H367 C369 0.959 . S
H368 C369 0.961 . S
C369 C359 1.510 . S
C369 H367 0.959 . S
C369 H368 0.961 . S
C369 H370 0.960 . S
H370 C369 0.960 . S
H371 N351 0.862 . S
O372 Co340 1.920 . S
O372 C345 1.289 . S
C373 O365 1.258 . S
C373 O366 1.266 . S
Co374 O377 1.970 . S
Co374 N391 1.989 . S
Co374 O399 1.967 . S
Co374 O406 1.920 . S
Co375 O378 1.966 . S
Co375 N384 2.022 . S
Co375 N392 1.993 . S
Co375 O400 1.941 . S
C376 O377 1.258 . S
C376 O378 1.263 . S
O377 Co374 1.970 . S
O377 C376 1.258 . S
O378 Co375 1.966 . S
O378 C376 1.263 . S
C379 O380 1.235 . S
C379 O406 1.289 . S
O380 C379 1.235 . S
C381 C383 1.400 . S
C381 N384 1.351 . S
C381 C386 1.501 . S
C382 C383 1.387 . S
C382 N385 1.341 . S
C383 C381 1.400 . S
C383 C382 1.387 . S
N384 Co375 2.022 . S
N384 C381 1.351 . S
N384 N385 1.365 . S
N385 C382 1.341 . S
N385 N384 1.365 . S
N385 H405 0.862 . S
C386 C381 1.501 . S
C386 H387 0.961 . S
C386 H388 0.961 . S
C386 H389 0.960 . S
H387 C386 0.961 . S
H388 C386 0.961 . S
H389 C386 0.960 . S
C390 N391 1.342 . S
C390 C394 1.401 . S
C390 C395 1.499 . S
N391 Co374 1.989 . S
N391 C390 1.342 . S
N391 N392 1.388 . S
N392 Co375 1.993 . S
N392 N391 1.388 . S
N392 C393 1.346 . S
C393 N392 1.346 . S
C393 C394 1.396 . S
C393 C403 1.510 . S
C394 C390 1.401 . S
C394 C393 1.396 . S
C395 C390 1.499 . S
C395 H396 0.959 . S
C395 H397 0.960 . S
C395 H398 0.961 . S
H396 C395 0.959 . S
H397 C395 0.960 . S
H398 C395 0.961 . S
O399 Co374 1.967 . S
O399 C407 1.258 . S
O400 Co375 1.941 . S
O400 C407 1.266 . S
H401 C403 0.959 . S
H402 C403 0.961 . S
C403 C393 1.510 . S
C403 H401 0.959 . S
C403 H402 0.961 . S
C403 H404 0.960 . S
H404 C403 0.960 . S
H405 N385 0.862 . S
O406 Co374 1.920 . S
O406 C379 1.289 . S
C407 O399 1.258 . S
C407 O400 1.266 . S
H408 C414 0.930 . S
H409 C417 0.930 . S
H410 C418 0.930 . S
H411 C419 0.930 . S
H412 C422 0.930 . S
H413 C423 0.930 . S
C414 H408 0.930 . S
C414 C415 1.355 . S
C414 C416 1.415 1_545 S
C415 C414 1.355 . S
C415 C417 1.419 . S
C416 C414 1.415 1_565 S
C416 C421 1.425 . S
C416 C423 1.409 . S
C417 H409 0.930 . S
C417 C415 1.419 . S
C417 C418 1.362 1_545 S
C418 H410 0.930 . S
C418 C417 1.362 1_565 S
C418 C421 1.409 . S
C419 H411 0.930 . S
C419 C420 1.355 . S
C419 C421 1.415 1_655 S
C420 C419 1.355 . S
C420 C422 1.419 . S
C421 C416 1.425 . S
C421 C418 1.409 . S
C421 C419 1.415 1_455 S
C422 H412 0.930 . S
C422 C420 1.419 . S
C422 C423 1.362 1_655 S
C423 H413 0.930 . S
C423 C416 1.409 . S
C423 C422 1.362 1_455 S
H424 C430 0.930 . S
H425 C433 0.930 . S
H426 C434 0.930 . S
H427 C435 0.930 . S
H428 C438 0.930 . S
H429 C439 0.930 . S
C430 H424 0.930 . S
C430 C431 1.355 . S
C430 C432 1.415 1_565 S
C431 C430 1.355 . S
C431 C433 1.419 . S
C432 C430 1.415 1_545 S
C432 C437 1.425 . S
C432 C439 1.409 . S
C433 H425 0.930 . S
C433 C431 1.419 . S
C433 C434 1.362 1_565 S
C434 H426 0.930 . S
C434 C433 1.362 1_545 S
C434 C437 1.409 . S
C435 H427 0.930 . S
C435 C436 1.355 . S
C435 C437 1.415 . S
C436 C435 1.355 . S
C436 C438 1.419 . S
C437 C432 1.425 . S
C437 C434 1.409 . S
C437 C435 1.415 . S
C438 H428 0.930 . S
C438 C436 1.419 . S
C438 C439 1.362 . S
C439 H429 0.930 . S
C439 C432 1.409 . S
C439 C438 1.362 . S
H440 C446 0.936 1_455 S
H441 C449 0.930 1_565 S
H442 C450 0.930 1_565 S
H443 C451 0.930 . S
H444 C454 0.930 . S
H445 C455 0.930 . S
C446 H440 0.936 1_655 S
C446 C447 1.369 . S
C446 C448 1.394 1_655 S
C447 C446 1.369 . S
C447 C449 1.419 . S
C448 C446 1.394 1_455 S
C448 C453 1.425 . S
C448 C455 1.409 . S
C449 H441 0.930 1_545 S
C449 C447 1.419 . S
C449 C450 1.362 . S
C450 H442 0.930 1_545 S
C450 C449 1.362 . S
C450 C453 1.409 1_655 S
C451 H443 0.930 . S
C451 C452 1.355 . S
C451 C453 1.415 . S
C452 C451 1.355 . S
C452 C454 1.419 . S
C453 C448 1.425 . S
C453 C450 1.409 1_455 S
C453 C451 1.415 . S
C454 H444 0.930 . S
C454 C452 1.419 . S
C454 C455 1.362 . S
C455 H445 0.930 . S
C455 C448 1.409 . S
C455 C454 1.362 . S
H456 C462 0.930 . S
H457 C465 0.930 . S
H458 C466 0.930 . S
H459 C467 0.930 1_655 S
H460 C470 0.930 . S
H461 C471 0.930 1_565 S
C462 H456 0.930 . S
C462 C463 1.355 . S
C462 C464 1.415 1_565 S
C463 C462 1.355 . S
C463 C465 1.419 . S
C464 C462 1.415 1_545 S
C464 C469 1.425 . S
C464 C471 1.409 1_655 S
C465 H457 0.930 . S
C465 C463 1.419 . S
C465 C466 1.362 1_565 S
C466 H458 0.930 . S
C466 C465 1.362 1_545 S
C466 C469 1.409 . S
C467 H459 0.930 1_455 S
C467 C468 1.355 . S
C467 C469 1.415 1_455 S
C468 C467 1.355 . S
C468 C470 1.419 . S
C469 C464 1.425 . S
C469 C466 1.409 . S
C469 C467 1.415 1_655 S
C470 H460 0.930 . S
C470 C468 1.419 . S
C470 C471 1.362 . S
C471 H461 0.930 1_545 S
C471 C464 1.409 1_455 S
C471 C470 1.362 . S
H472 C478 0.930 . S
H473 C481 0.930 1_455 S
H474 C482 0.930 1_445 S
H475 C483 0.930 . S
H476 C486 0.930 . S
H477 C487 0.930 . S
C478 H472 0.930 . S
C478 C479 1.355 . S
C478 C480 1.415 . S
C479 C478 1.355 . S
C479 C481 1.419 . S
C480 C478 1.415 . S
C480 C485 1.425 . S
C480 C487 1.409 . S
C481 H473 0.930 1_655 S
C481 C479 1.419 . S
C481 C482 1.362 . S
C482 H474 0.930 1_665 S
C482 C481 1.362 . S
C482 C485 1.409 . S
C483 H475 0.930 . S
C483 C484 1.355 . S
C483 C485 1.415 1_545 S
C484 C483 1.355 . S
C484 C486 1.419 . S
C485 C480 1.425 . S
C485 C482 1.409 . S
C485 C483 1.415 1_565 S
C486 H476 0.930 . S
C486 C484 1.419 . S
C486 C487 1.362 1_545 S
C487 H477 0.930 . S
C487 C480 1.409 . S
C487 C486 1.362 1_565 S
H488 C494 0.930 . S
H489 C497 0.930 . S
H490 C498 0.930 . S
H491 C499 0.930 . S
H492 C502 0.930 . S
H493 C503 0.930 . S
C494 H488 0.930 . S
C494 C495 1.355 . S
C494 C496 1.415 1_455 S
C495 C494 1.355 . S
C495 C497 1.419 . S
C496 C494 1.415 1_655 S
C496 C501 1.425 . S
C496 C503 1.409 . S
C497 H489 0.930 . S
C497 C495 1.419 . S
C497 C498 1.362 1_455 S
C498 H490 0.930 . S
C498 C497 1.362 1_655 S
C498 C501 1.409 . S
C499 H491 0.930 . S
C499 C500 1.355 . S
C499 C501 1.415 . S
C500 C499 1.355 . S
C500 C502 1.419 . S
C501 C496 1.425 . S
C501 C498 1.409 . S
C501 C499 1.415 . S
C502 H492 0.930 . S
C502 C500 1.419 . S
C502 C503 1.362 . S
C503 H493 0.930 . S
C503 C496 1.409 . S
C503 C502 1.362 . S
H504 C510 0.930 . S
H505 C513 0.930 . S
H506 C514 0.930 . S
H507 C515 0.930 . S
H508 C518 0.930 . S
H509 C519 0.930 . S
C510 H504 0.930 . S
C510 C511 1.355 . S
C510 C512 1.415 . S
C511 C510 1.355 . S
C511 C513 1.419 . S
C512 C510 1.415 . S
C512 C517 1.425 . S
C512 C519 1.409 . S
C513 H505 0.930 . S
C513 C511 1.419 . S
C513 C514 1.362 . S
C514 H506 0.930 . S
C514 C513 1.362 . S
C514 C517 1.409 . S
C515 H507 0.930 . S
C515 C516 1.355 . S
C515 C517 1.415 . S
C516 C515 1.355 . S
C516 C518 1.419 . S
C517 C512 1.425 . S
C517 C514 1.409 . S
C517 C515 1.415 . S
C518 H508 0.930 . S
C518 C516 1.419 . S
C518 C519 1.362 . S
C519 H509 0.930 . S
C519 C512 1.409 . S
C519 C518 1.362 . S
H520 C526 0.930 . S
H521 C529 0.930 . S
H522 C530 0.930 . S
H523 C531 0.930 . S
H524 C534 0.930 . S
H525 C535 0.930 . S
C526 H520 0.930 . S
C526 C527 1.355 . S
C526 C528 1.415 . S
C527 C526 1.355 . S
C527 C529 1.419 . S
C528 C526 1.415 . S
C528 C533 1.425 . S
C528 C535 1.409 . S
C529 H521 0.930 . S
C529 C527 1.419 . S
C529 C530 1.362 . S
C530 H522 0.930 . S
C530 C529 1.362 . S
C530 C533 1.409 . S
C531 H523 0.930 . S
C531 C532 1.355 . S
C531 C533 1.415 . S
C532 C531 1.355 . S
C532 C534 1.419 . S
C533 C528 1.425 . S
C533 C530 1.409 . S
C533 C531 1.415 . S
C534 H524 0.930 . S
C534 C532 1.419 . S
C534 C535 1.362 . S
C535 H525 0.930 . S
C535 C528 1.409 . S
C535 C534 1.362 . S
H536 C542 0.930 . S
H537 C545 0.930 . S
H538 C546 0.930 . S
H539 C547 0.930 . S
H540 C550 0.930 . S
H541 C551 0.930 . S
C542 H536 0.930 . S
C542 C543 1.355 . S
C542 C544 1.415 . S
C543 C542 1.355 . S
C543 C545 1.419 . S
C544 C542 1.415 . S
C544 C549 1.425 . S
C544 C551 1.409 . S
C545 H537 0.930 . S
C545 C543 1.419 . S
C545 C546 1.362 . S
C546 H538 0.930 . S
C546 C545 1.362 . S
C546 C549 1.409 . S
C547 H539 0.930 . S
C547 C548 1.355 . S
C547 C549 1.415 . S
C548 C547 1.355 . S
C548 C550 1.419 . S
C549 C544 1.425 . S
C549 C546 1.409 . S
C549 C547 1.415 . S
C550 H540 0.930 . S
C550 C548 1.419 . S
C550 C551 1.362 . S
C551 H541 0.930 . S
C551 C544 1.409 . S
C551 C550 1.362 . S
H552 C558 0.930 . S
H553 C561 0.930 . S
H554 C562 0.930 . S
H555 C563 0.930 . S
H556 C566 0.930 . S
H557 C567 0.930 . S
C558 H552 0.930 . S
C558 C559 1.355 . S
C558 C560 1.415 . S
C559 C558 1.355 . S
C559 C561 1.419 . S
C560 C558 1.415 . S
C560 C565 1.425 . S
C560 C567 1.409 . S
C561 H553 0.930 . S
C561 C559 1.419 . S
C561 C562 1.362 . S
C562 H554 0.930 . S
C562 C561 1.362 . S
C562 C565 1.409 . S
C563 H555 0.930 . S
C563 C564 1.355 . S
C563 C565 1.415 . S
C564 C563 1.355 . S
C564 C566 1.419 . S
C565 C560 1.425 . S
C565 C562 1.409 . S
C565 C563 1.415 . S
C566 H556 0.930 . S
C566 C564 1.419 . S
C566 C567 1.362 . S
C567 H557 0.930 . S
C567 C560 1.409 . S
C567 C566 1.362 . S
H568 C574 0.930 . S
H569 C577 0.930 . S
H570 C578 0.930 . S
H571 C579 0.930 . S
H572 C582 0.930 . S
H573 C583 0.930 . S
C574 H568 0.930 . S
C574 C575 1.355 . S
C574 C576 1.415 . S
C575 C574 1.355 . S
C575 C577 1.419 . S
C576 C574 1.415 . S
C576 C581 1.425 . S
C576 C583 1.409 . S
C577 H569 0.930 . S
C577 C575 1.419 . S
C577 C578 1.362 . S
C578 H570 0.930 . S
C578 C577 1.362 . S
C578 C581 1.409 . S
C579 H571 0.930 . S
C579 C580 1.355 . S
C579 C581 1.415 . S
C580 C579 1.355 . S
C580 C582 1.419 . S
C581 C576 1.425 . S
C581 C578 1.409 . S
C581 C579 1.415 . S
C582 H572 0.930 . S
C582 C580 1.419 . S
C582 C583 1.362 . S
C583 H573 0.930 . S
C583 C576 1.409 . S
C583 C582 1.362 . S
H584 C590 0.930 . S
H585 C593 0.930 . S
H586 C594 0.930 . S
H587 C595 0.930 . S
H588 C598 0.930 . S
H589 C599 0.930 . S
C590 H584 0.930 . S
C590 C591 1.355 . S
C590 C592 1.415 . S
C591 C590 1.355 . S
C591 C593 1.419 . S
C592 C590 1.415 . S
C592 C597 1.425 . S
C592 C599 1.409 . S
C593 H585 0.930 . S
C593 C591 1.419 . S
C593 C594 1.362 . S
C594 H586 0.930 . S
C594 C593 1.362 . S
C594 C597 1.409 . S
C595 H587 0.930 . S
C595 C596 1.355 . S
C595 C597 1.415 . S
C596 C595 1.355 . S
C596 C598 1.419 . S
C597 C592 1.425 . S
C597 C594 1.409 . S
C597 C595 1.415 . S
C598 H588 0.930 . S
C598 C596 1.419 . S
C598 C599 1.362 . S
C599 H589 0.930 . S
C599 C592 1.409 . S
C599 C598 1.362 . S
H600 C606 0.930 . S
H601 C609 0.930 . S
H602 C610 0.930 . S
H603 C611 0.930 . S
H604 C614 0.930 . S
H605 C615 0.930 . S
C606 H600 0.930 . S
C606 C607 1.355 1_545 S
C606 C608 1.415 . S
C607 C606 1.355 1_565 S
C607 C609 1.419 . S
C608 C606 1.415 . S
C608 C613 1.425 . S
C608 C615 1.409 . S
C609 H601 0.930 . S
C609 C607 1.419 . S
C609 C610 1.362 . S
C610 H602 0.930 . S
C610 C609 1.362 . S
C610 C613 1.409 1_565 S
C611 H603 0.930 . S
C611 C612 1.355 . S
C611 C613 1.415 . S
C612 C611 1.355 . S
C612 C614 1.419 . S
C613 C608 1.425 . S
C613 C610 1.409 1_545 S
C613 C611 1.415 . S
C614 H604 0.930 . S
C614 C612 1.419 . S
C614 C615 1.362 . S
C615 H605 0.930 . S
C615 C608 1.409 . S
C615 C614 1.362 . S
H616 C622 0.930 . S
H617 C625 0.930 . S
H618 C626 0.930 . S
H619 C627 0.930 . S
H620 C630 0.930 . S
H621 C631 0.930 . S
C622 H616 0.930 . S
C622 C623 1.355 . S
C622 C624 1.415 . S
C623 C622 1.355 . S
C623 C625 1.419 . S
C624 C622 1.415 . S
C624 C629 1.425 . S
C624 C631 1.409 . S
C625 H617 0.930 . S
C625 C623 1.419 . S
C625 C626 1.362 . S
C626 H618 0.930 . S
C626 C625 1.362 . S
C626 C629 1.409 . S
C627 H619 0.930 . S
C627 C628 1.355 . S
C627 C629 1.415 . S
C628 C627 1.355 . S
C628 C630 1.419 . S
C629 C624 1.425 . S
C629 C626 1.409 . S
C629 C627 1.415 . S
C630 H620 0.930 . S
C630 C628 1.419 . S
C630 C631 1.362 . S
C631 H621 0.930 . S
C631 C624 1.409 . S
C631 C630 1.362 . S
H632 C638 0.930 . S
H633 C641 0.930 . S
H634 C642 0.930 . S
H635 C643 0.930 . S
H636 C646 0.930 . S
H637 C647 0.930 . S
C638 H632 0.930 . S
C638 C639 1.355 . S
C638 C640 1.415 . S
C639 C638 1.355 . S
C639 C641 1.419 . S
C640 C638 1.415 . S
C640 C645 1.425 . S
C640 C647 1.409 . S
C641 H633 0.930 . S
C641 C639 1.419 . S
C641 C642 1.362 . S
C642 H634 0.930 . S
C642 C641 1.362 . S
C642 C645 1.409 . S
C643 H635 0.930 . S
C643 C644 1.355 1_655 S
C643 C645 1.415 . S
C644 C643 1.355 1_455 S
C644 C646 1.419 . S
C645 C640 1.425 . S
C645 C642 1.409 . S
C645 C643 1.415 . S
C646 H636 0.930 . S
C646 C644 1.419 . S
C646 C647 1.362 1_455 S
C647 H637 0.930 . S
C647 C640 1.409 . S
C647 C646 1.362 1_655 S
H648 C654 0.930 . S
H649 C657 0.930 . S
H650 C658 0.930 . S
H651 C659 0.930 . S
H652 C662 0.930 . S
H653 C663 0.930 1_545 S
C654 H648 0.930 . S
C654 C655 1.355 . S
C654 C656 1.415 1_545 S
C655 C654 1.355 . S
C655 C657 1.419 1_545 S
C656 C654 1.415 1_565 S
C656 C661 1.425 . S
C656 C663 1.409 . S
C657 H649 0.930 . S
C657 C655 1.419 1_565 S
C657 C658 1.362 . S
C658 H650 0.930 . S
C658 C657 1.362 . S
C658 C661 1.409 . S
C659 H651 0.930 . S
C659 C660 1.355 . S
C659 C661 1.415 . S
C660 C659 1.355 . S
C660 C662 1.419 . S
C661 C656 1.425 . S
C661 C658 1.409 . S
C661 C659 1.415 . S
C662 H652 0.930 . S
C662 C660 1.419 . S
C662 C663 1.362 . S
C663 H653 0.930 1_565 S
C663 C656 1.409 . S
C663 C662 1.362 . S
H664 C670 0.930 . S
H665 C673 0.930 . S
H666 C674 0.930 . S
H667 C675 0.930 . S
H668 C678 0.930 . S
H669 C679 0.930 . S
C670 H664 0.930 . S
C670 C671 1.355 . S
C670 C672 1.415 . S
C671 C670 1.355 . S
C671 C673 1.419 . S
C672 C670 1.415 . S
C672 C677 1.425 . S
C672 C679 1.409 1_556 S
C673 H665 0.930 . S
C673 C671 1.419 . S
C673 C674 1.362 . S
C674 H666 0.930 . S
C674 C673 1.362 . S
C674 C677 1.409 . S
C675 H667 0.930 . S
C675 C676 1.355 . S
C675 C677 1.415 1_554 S
C676 C675 1.355 . S
C676 C678 1.419 . S
C677 C672 1.425 . S
C677 C674 1.409 . S
C677 C675 1.415 1_556 S
C678 H668 0.930 . S
C678 C676 1.419 . S
C678 C679 1.362 . S
C679 H669 0.930 . S
C679 C672 1.409 1_554 S
C679 C678 1.362 . S
H680 C686 0.930 . S
H681 C689 0.930 . S
H682 C690 0.930 . S
H683 C691 0.930 . S
H684 C694 0.930 . S
H685 C695 0.930 1_655 S
C686 H680 0.930 . S
C686 C687 1.355 . S
C686 C688 1.415 1_655 S
C687 C686 1.355 . S
C687 C689 1.419 1_655 S
C688 C686 1.415 1_455 S
C688 C693 1.425 . S
C688 C695 1.409 . S
C689 H681 0.930 . S
C689 C687 1.419 1_455 S
C689 C690 1.362 . S
C690 H682 0.930 . S
C690 C689 1.362 . S
C690 C693 1.409 . S
C691 H683 0.930 . S
C691 C692 1.355 . S
C691 C693 1.415 . S
C692 C691 1.355 . S
C692 C694 1.419 . S
C693 C688 1.425 . S
C693 C690 1.409 . S
C693 C691 1.415 . S
C694 H684 0.930 . S
C694 C692 1.419 . S
C694 C695 1.362 . S
C695 H685 0.930 1_455 S
C695 C688 1.409 . S
C695 C694 1.362 . S
H696 C702 0.930 . S
H697 C705 0.930 . S
H698 C706 0.930 1_455 S
H699 C707 0.930 . S
H700 C710 0.930 . S
H701 C711 0.930 . S
C702 H696 0.930 . S
C702 C703 1.355 1_655 S
C702 C704 1.415 . S
C703 C702 1.355 1_455 S
C703 C705 1.419 . S
C704 C702 1.415 . S
C704 C709 1.425 . S
C704 C711 1.409 . S
C705 H697 0.930 . S
C705 C703 1.419 . S
C705 C706 1.362 1_455 S
C706 H698 0.930 1_655 S
C706 C705 1.362 1_655 S
C706 C709 1.409 . S
C707 H699 0.930 . S
C707 C708 1.355 . S
C707 C709 1.415 . S
C708 C707 1.355 . S
C708 C710 1.419 . S
C709 C704 1.425 . S
C709 C706 1.409 . S
C709 C707 1.415 . S
C710 H700 0.930 . S
C710 C708 1.419 . S
C710 C711 1.362 . S
C711 H701 0.930 . S
C711 C704 1.409 . S
C711 C710 1.362 . S
H712 C718 0.930 . S
H713 C721 0.930 . S
H714 C722 0.930 . S
H715 C723 0.930 . S
H716 C726 0.930 . S
H717 C727 0.930 . S
C718 H712 0.930 . S
C718 C719 1.355 . S
C718 C720 1.415 . S
C719 C718 1.355 . S
C719 C721 1.419 . S
C720 C718 1.415 . S
C720 C725 1.425 . S
C720 C727 1.409 1_565 S
C721 H713 0.930 . S
C721 C719 1.419 . S
C721 C722 1.362 . S
C722 H714 0.930 . S
C722 C721 1.362 . S
C722 C725 1.409 . S
C723 H715 0.930 . S
C723 C724 1.355 1_565 S
C723 C725 1.415 . S
C724 C723 1.355 1_545 S
C724 C726 1.419 . S
C725 C720 1.425 . S
C725 C722 1.409 . S
C725 C723 1.415 . S
C726 H716 0.930 . S
C726 C724 1.419 . S
C726 C727 1.362 . S
C727 H717 0.930 . S
C727 C720 1.409 1_545 S
C727 C726 1.362 . S
H728 C734 0.930 . S
H729 C737 0.930 . S
H730 C738 0.930 . S
H731 C739 0.930 . S
H732 C742 0.930 . S
H733 C743 0.930 . S
C734 H728 0.930 . S
C734 C735 1.355 . S
C734 C736 1.415 . S
C735 C734 1.355 . S
C735 C737 1.419 . S
C736 C734 1.415 . S
C736 C741 1.425 . S
C736 C743 1.409 . S
C737 H729 0.930 . S
C737 C735 1.419 . S
C737 C738 1.362 . S
C738 H730 0.930 . S
C738 C737 1.362 . S
C738 C741 1.409 . S
C739 H731 0.930 . S
C739 C740 1.355 . S
C739 C741 1.415 . S
C740 C739 1.355 . S
C740 C742 1.419 . S
C741 C736 1.425 . S
C741 C738 1.409 . S
C741 C739 1.415 . S
C742 H732 0.930 . S
C742 C740 1.419 . S
C742 C743 1.362 . S
C743 H733 0.930 . S
C743 C736 1.409 . S
C743 C742 1.362 . S
H744 C750 0.930 . S
H745 C753 0.930 . S
H746 C754 0.930 . S
H747 C755 0.930 . S
H748 C758 0.930 . S
H749 C759 0.930 . S
C750 H744 0.930 . S
C750 C751 1.355 . S
C750 C752 1.415 1_655 S
C751 C750 1.355 . S
C751 C753 1.419 1_655 S
C752 C750 1.415 1_455 S
C752 C757 1.425 . S
C752 C759 1.409 1_554 S
C753 H745 0.930 . S
C753 C751 1.419 1_455 S
C753 C754 1.362 . S
C754 H746 0.930 . S
C754 C753 1.362 . S
C754 C757 1.409 . S
C755 H747 0.930 . S
C755 C756 1.355 . S
C755 C757 1.415 1_556 S
C756 C755 1.355 . S
C756 C758 1.419 . S
C757 C752 1.425 . S
C757 C754 1.409 . S
C757 C755 1.415 1_554 S
C758 H748 0.930 . S
C758 C756 1.419 . S
C758 C759 1.362 . S
C759 H749 0.930 . S
C759 C752 1.409 1_556 S
C759 C758 1.362 . S
H760 C766 0.930 . S
H761 C769 0.930 . S
H762 C770 0.930 . S
H763 C771 0.930 . S
H764 C774 0.930 . S
H765 C775 0.930 1_565 S
C766 H760 0.930 . S
C766 C767 1.355 . S
C766 C768 1.415 1_565 S
C767 C766 1.355 . S
C767 C769 1.419 1_565 S
C768 C766 1.415 1_545 S
C768 C773 1.425 . S
C768 C775 1.409 . S
C769 H761 0.930 . S
C769 C767 1.419 1_545 S
C769 C770 1.362 . S
C770 H762 0.930 . S
C770 C769 1.362 . S
C770 C773 1.409 . S
C771 H763 0.930 . S
C771 C772 1.355 . S
C771 C773 1.415 . S
C772 C771 1.355 . S
C772 C774 1.419 . S
C773 C768 1.425 . S
C773 C770 1.409 . S
C773 C771 1.415 . S
C774 H764 0.930 . S
C774 C772 1.419 . S
C774 C775 1.362 . S
C775 H765 0.930 1_545 S
C775 C768 1.409 . S
C775 C774 1.362 . S
H776 C782 0.930 . S
H777 C785 0.930 . S
H778 C786 0.930 . S
H779 C787 0.930 . S
H780 C790 0.930 . S
H781 C791 0.930 . S
C782 H776 0.930 . S
C782 C783 1.355 . S
C782 C784 1.415 . S
C783 C782 1.355 . S
C783 C785 1.419 . S
C784 C782 1.415 . S
C784 C789 1.425 . S
C784 C791 1.409 . S
C785 H777 0.930 . S
C785 C783 1.419 . S
C785 C786 1.362 . S
C786 H778 0.930 . S
C786 C785 1.362 . S
C786 C789 1.409 . S
C787 H779 0.930 . S
C787 C788 1.355 . S
C787 C789 1.415 . S
C788 C787 1.355 . S
C788 C790 1.419 . S
C789 C784 1.425 . S
C789 C786 1.409 . S
C789 C787 1.415 . S
C790 H780 0.930 . S
C790 C788 1.419 . S
C790 C791 1.362 . S
C791 H781 0.930 . S
C791 C784 1.409 . S
C791 C790 1.362 . S
H792 C798 0.930 . S
H793 C801 0.930 . S
H794 C802 0.930 . S
H795 C803 0.930 . S
H796 C806 0.930 . S
H797 C807 0.930 . S
C798 H792 0.930 . S
C798 C799 1.355 . S
C798 C800 1.415 . S
C799 C798 1.355 . S
C799 C801 1.419 . S
C800 C798 1.415 . S
C800 C805 1.425 1_545 S
C800 C807 1.409 . S
C801 H793 0.930 . S
C801 C799 1.419 . S
C801 C802 1.362 1_545 S
C802 H794 0.930 . S
C802 C801 1.362 1_565 S
C802 C805 1.409 . S
C803 H795 0.930 . S
C803 C804 1.355 . S
C803 C805 1.415 . S
C804 C803 1.355 . S
C804 C806 1.419 . S
C805 C800 1.425 1_565 S
C805 C802 1.409 . S
C805 C803 1.415 . S
C806 H796 0.930 . S
C806 C804 1.419 . S
C806 C807 1.362 1_565 S
C807 H797 0.930 . S
C807 C800 1.409 . S
C807 C806 1.362 1_545 S
H808 C814 0.930 . S
H809 C817 0.930 . S
H810 C818 0.930 . S
H811 C819 0.930 . S
H812 C822 0.930 . S
H813 C823 0.930 . S
C814 H808 0.930 . S
C814 C815 1.355 . S
C814 C816 1.415 . S
C815 C814 1.355 . S
C815 C817 1.419 . S
C816 C814 1.415 . S
C816 C821 1.425 . S
C816 C823 1.409 . S
C817 H809 0.930 . S
C817 C815 1.419 . S
C817 C818 1.362 . S
C818 H810 0.930 . S
C818 C817 1.362 . S
C818 C821 1.409 . S
C819 H811 0.930 . S
C819 C820 1.355 . S
C819 C821 1.415 . S
C820 C819 1.355 . S
C820 C822 1.419 . S
C821 C816 1.425 . S
C821 C818 1.409 . S
C821 C819 1.415 . S
C822 H812 0.930 . S
C822 C820 1.419 . S
C822 C823 1.362 . S
C823 H813 0.930 . S
C823 C816 1.409 . S
C823 C822 1.362 . S
H824 C830 0.930 . S
H825 C833 0.930 . S
H826 C834 0.930 . S
H827 C835 0.930 . S
H828 C838 0.930 . S
H829 C839 0.930 . S
C830 H824 0.930 . S
C830 C831 1.355 . S
C830 C832 1.415 1_655 S
C831 C830 1.355 . S
C831 C833 1.419 . S
C832 C830 1.415 1_455 S
C832 C837 1.425 1_455 S
C832 C839 1.409 . S
C833 H825 0.930 . S
C833 C831 1.419 . S
C833 C834 1.362 . S
C834 H826 0.930 . S
C834 C833 1.362 . S
C834 C837 1.409 . S
C835 H827 0.930 . S
C835 C836 1.355 . S
C835 C837 1.415 1_455 S
C836 C835 1.355 . S
C836 C838 1.419 . S
C837 C832 1.425 1_655 S
C837 C834 1.409 . S
C837 C835 1.415 1_655 S
C838 H828 0.930 . S
C838 C836 1.419 . S
C838 C839 1.362 . S
C839 H829 0.930 . S
C839 C832 1.409 . S
C839 C838 1.362 . S
H840 C846 0.930 . S
H841 C849 0.930 . S
H842 C850 0.930 . S
H843 C851 0.930 . S
H844 C854 0.930 . S
H845 C855 0.930 . S
C846 H840 0.930 . S
C846 C847 1.355 . S
C846 C848 1.415 1_554 S
C847 C846 1.355 . S
C847 C849 1.419 . S
C848 C846 1.415 1_556 S
C848 C853 1.425 1_546 S
C848 C855 1.409 . S
C849 H841 0.930 . S
C849 C847 1.419 . S
C849 C850 1.362 1_545 S
C850 H842 0.930 . S
C850 C849 1.362 1_565 S
C850 C853 1.409 . S
C851 H843 0.930 . S
C851 C852 1.355 . S
C851 C853 1.415 1_556 S
C852 C851 1.355 . S
C852 C854 1.419 . S
C853 C848 1.425 1_564 S
C853 C850 1.409 . S
C853 C851 1.415 1_554 S
C854 H844 0.930 . S
C854 C852 1.419 . S
C854 C855 1.362 1_565 S
C855 H845 0.930 . S
C855 C848 1.409 . S
C855 C854 1.362 1_545 S
H856 C862 0.930 . S
H857 C865 0.930 . S
H858 C866 0.930 . S
H859 C867 0.930 . S
H860 C870 0.930 . S
H861 C871 0.930 . S
C862 H856 0.930 . S
C862 C863 1.355 . S
C862 C864 1.415 . S
C863 C862 1.355 . S
C863 C865 1.419 . S
C864 C862 1.415 . S
C864 C869 1.425 . S
C864 C871 1.409 . S
C865 H857 0.930 . S
C865 C863 1.419 . S
C865 C866 1.362 . S
C866 H858 0.930 . S
C866 C865 1.362 . S
C866 C869 1.409 . S
C867 H859 0.930 . S
C867 C868 1.355 . S
C867 C869 1.415 . S
C868 C867 1.355 . S
C868 C870 1.419 . S
C869 C864 1.425 . S
C869 C866 1.409 . S
C869 C867 1.415 . S
C870 H860 0.930 . S
C870 C868 1.419 . S
C870 C871 1.362 . S
C871 H861 0.930 . S
C871 C864 1.409 . S
C871 C870 1.362 . S
H872 C878 0.930 . S
H873 C881 0.930 . S
H874 C882 0.930 . S
H875 C883 0.930 . S
H876 C886 0.930 . S
H877 C887 0.930 . S
C878 H872 0.930 . S
C878 C879 1.355 . S
C878 C880 1.415 . S
C879 C878 1.355 . S
C879 C881 1.419 . S
C880 C878 1.415 . S
C880 C885 1.425 1_655 S
C880 C887 1.409 . S
C881 H873 0.930 . S
C881 C879 1.419 . S
C881 C882 1.362 1_655 S
C882 H874 0.930 . S
C882 C881 1.362 1_455 S
C882 C885 1.409 . S
C883 H875 0.930 . S
C883 C884 1.355 . S
C883 C885 1.415 . S
C884 C883 1.355 . S
C884 C886 1.419 . S
C885 C880 1.425 1_455 S
C885 C882 1.409 . S
C885 C883 1.415 . S
C886 H876 0.930 . S
C886 C884 1.419 . S
C886 C887 1.362 1_455 S
C887 H877 0.930 . S
C887 C880 1.409 . S
C887 C886 1.362 1_655 S
C415 C5 0.104 . S
C420 C209 0.117 . S
C431 C243 0.257 . S
C436 C39 0.268 . S
C447 C73 0.162 . S
C452 C277 0.126 . S
C463 C107 0.224 . S
C468 C311 0.250 . S
C479 C141 0.225 . S
C484 C345 0.190 . S
C495 C175 0.269 . S
C500 C379 0.261 . S
C511 C213 1.314 . S
C516 C9 1.249 . S
C527 C43 1.321 . S
C532 C247 1.253 . S
C543 C281 1.253 . S
C548 C77 1.299 . S
C559 C315 1.256 . S
C564 C111 1.322 . S
C575 C349 1.292 . S
C580 C145 1.304 . S
C591 C179 1.321 . S
C596 C383 1.254 . S
C607 C172 1.550 . S
C612 C20 1.544 . S
C623 C2 1.569 . S
C628 C54 1.508 . S
C639 C88 1.517 . S
C644 C36 1.564 . S
C655 C70 1.582 . S
C660 C122 1.496 . S
C671 C104 1.585 . S
C676 C156 1.484 . S
C687 C138 1.578 . S
C692 C190 1.506 . S
C703 C240 1.570 . S
C708 C224 1.505 . S
C719 C258 1.555 . S
C724 C274 1.546 . S
C735 C308 1.568 . S
C740 C292 1.509 . S
C751 C342 1.587 . S
C756 C326 1.483 . S
C767 C376 1.567 . S
C772 C360 1.526 . S
C783 C206 1.567 . S
C788 C394 1.527 . S
C799 C33 1.461 . S
C804 C271 1.496 . S
C815 C67 1.512 . S
C820 C305 1.459 . S
C831 C101 1.502 . S
C836 C339 1.475 . S
C847 C373 1.498 . S
C852 C135 1.458 . S
C863 C169 1.481 . S
C868 C407 1.497 . S
C879 C237 1.510 . S
C884 C203 1.453 . S
