# Generated by pormake.
# Topology sxc, (6)-cn, num edge types: 1
# Building blocks:
#     Node 0, Type 0, BuildingBlock: INOVEN_clean_sbu_0, # of connection points: 6
#     Node 1, Type 0, BuildingBlock: INOVEN_clean_sbu_0, # of connection points: 6
#     Node 2, Type 0, BuildingBlock: INOVEN_clean_sbu_0, # of connection points: 6
#     Edge 3, Type (0, 0), BuildingBlock: KIFKEQ_clean_linker_1, # of connection points: 2
#     Edge 4, Type (0, 0), BuildingBlock: KIFKEQ_clean_linker_1, # of connection points: 2
#     Edge 5, Type (0, 0), BuildingBlock: KIFKEQ_clean_linker_1, # of connection points: 2
#     Edge 6, Type (0, 0), BuildingBlock: KIFKEQ_clean_linker_1, # of connection points: 2
#     Edge 7, Type (0, 0), BuildingBlock: KIFKEQ_clean_linker_1, # of connection points: 2
#     Edge 8, Type (0, 0), BuildingBlock: KIFKEQ_clean_linker_1, # of connection points: 2
#     Edge 9, Type (0, 0), BuildingBlock: KIFKEQ_clean_linker_1, # of connection points: 2
#     Edge 10, Type (0, 0), BuildingBlock: KIFKEQ_clean_linker_1, # of connection points: 2
#     Edge 11, Type (0, 0), BuildingBlock: KIFKEQ_clean_linker_1, # of connection points: 2
# Relax obj value: 0.298
# Max RMSD: 0.164
# Mean RMSD: 0.091
data_MOF--net-sxc--node1-INOVEN_clean_sbu_0--edge1-KIFKEQ_clean_linker_1
_symmetry_space_group_name_H-M    P1
_symmetry_Int_Tables_number       1
_symmetry_cell_setting            triclinic
loop_
_symmetry_equiv_pos_as_xyz
'x, y, z'
_cell_length_a     17.862734
_cell_length_b     16.294833
_cell_length_c     45.735338
_cell_angle_alpha  91.524976
_cell_angle_beta   96.648645
_cell_angle_gamma 93.936234
loop_
_atom_site_label
_atom_site_type_symbol
_atom_site_fract_x
_atom_site_fract_y
_atom_site_fract_z
_atom_type_partial_charge
Gd0 Gd 0.2138 0.08259 0.98511 0.0
Gd1 Gd 1.05797 0.07996 0.98356 0.0
C2 C 0.13618 0.26253 0.98603 0.0
C3 C 0.35498 0.10758 0.9781 0.0
C4 C 0.41682 0.1677 0.98986 0.0
C5 C 0.43132 0.1873 0.02018 0.0
C6 C 0.45963 0.20906 0.9703 0.0
C7 C 0.52818 0.2924 0.01099 0.0
C8 C 0.51463 0.27108 0.98072 0.0
C9 C 0.48685 0.24881 0.03066 0.0
C10 C 0.17034 0.06855 0.04036 0.0
C11 C 0.13464 0.90324 0.98236 0.0
C12 C 0.9187 1.05063 0.99249 0.0
C13 C 0.8797 0.98172 0.00575 0.0
C14 C 0.8048 0.95707 -0.00494 0.0
C15 C 0.91898 0.93571 0.02723 0.0
C16 C 0.8101 0.83732 0.0257 0.0
C17 C 0.88432 0.86423 0.03722 0.0
C18 C 0.77017 0.88537 0.00493 0.0
C19 C 1.10182 0.09826 0.92872 0.0
O20 O 0.19825 0.2231 0.98376 0.0
O21 O 1.07204 0.21901 0.98807 0.0
O22 O 0.3301 0.05593 -0.00331 0.0
O23 O 0.30066 0.13645 0.96058 0.0
O24 O 0.22149 1.02734 0.03019 0.0
O25 O 0.14478 0.11653 0.02098 0.0
O26 O 1.08055 0.94389 0.99248 0.0
O27 O 0.19057 0.94686 0.97236 0.0
O28 O 0.94376 1.03281 0.96755 0.0
O29 O 0.96778 0.09629 0.01041 0.0
O30 O 1.05182 0.13997 0.93962 0.0
O31 O 0.12723 1.04794 0.94742 0.0
H32 H 0.39887 0.15634 0.03577 0.0
H33 H 0.44899 0.19498 0.94683 0.0
H34 H 0.54442 0.30439 0.96489 0.0
H35 H 0.49655 0.26308 0.05411 0.0
H36 H 0.77406 0.9916 0.97828 0.0
H37 H 0.97717 0.95365 0.03567 0.0
H38 H 0.91623 0.82905 0.05344 0.0
H39 H 0.71337 0.86564 -0.00476 0.0
Gd40 Gd 1.049 0.08417 0.31352 0.0
Gd41 Gd 0.19989 0.09789 0.32005 0.0
C42 C 0.13128 0.26836 0.31537 0.0
C43 C 0.91142 0.10754 0.32182 0.0
C44 C 0.88671 0.14129 0.34885 0.0
C45 C 0.80996 0.14377 0.3518 0.0
C46 C 0.94078 0.16317 0.37313 0.0
C47 C 0.84145 0.17964 0.4041 0.0
C48 C 0.9184 0.18115 0.4007 0.0
C49 C 0.78743 0.16345 0.37922 0.0
C50 C 1.0977 0.06752 0.25907 0.0
C51 C 1.11903 0.90985 0.3161 0.0
C52 C 0.34285 0.08006 0.3249 0.0
C53 C 0.38637 1.04623 0.35037 0.0
C54 C 0.35006 1.02562 0.37516 0.0
C55 C 0.46434 1.04123 0.35138 0.0
C56 C 0.47072 1.00497 0.40299 0.0
C57 C 0.50624 1.02018 0.37747 0.0
C58 C 0.39202 1.00612 0.40142 0.0
C59 C 0.14857 0.1123 0.37427 0.0
O60 O 1.07754 0.22214 0.32595 0.0
O61 O 0.18578 0.22919 0.30529 0.0
O62 O 0.95226 0.15851 0.30767 0.0
O63 O 0.94014 1.03647 0.32474 0.0
O64 O 1.04155 1.02484 0.26798 0.0
O65 O 0.12536 0.11988 0.27904 0.0
O66 O 0.18034 0.95704 0.31249 0.0
O67 O 1.05711 0.9465 0.31995 0.0
O68 O 0.31504 0.1499 0.33047 0.0
O69 O 0.29343 1.02823 0.30969 0.0
O70 O 0.20174 0.1586 0.36519 0.0
O71 O 1.12349 0.05997 0.35403 0.0
H72 H 0.76756 0.12677 0.33333 0.0
H73 H 1.00034 0.16213 0.37105 0.0
H74 H 0.96089 0.19269 0.41954 0.0
H75 H 0.72754 0.16022 0.3814 0.0
H76 H 0.28955 1.02837 0.37461 0.0
H77 H 0.49316 0.05708 0.3325 0.0
H78 H 0.56716 1.02138 0.37824 0.0
H79 H 0.36349 0.99528 0.42076 0.0
Gd80 Gd 1.12035 1.00138 0.65107 0.0
Gd81 Gd 1.12124 0.16166 0.64957 0.0
C82 C 0.94192 0.08216 0.64867 0.0
C83 C 1.09838 0.84694 0.66199 0.0
C84 C 1.0319 0.79457 0.66742 0.0
C85 C 1.0241 0.71237 0.65716 0.0
C86 C 0.97248 0.82838 0.67999 0.0
C87 C 0.89504 0.70032 0.66946 0.0
C88 C 0.90453 0.7818 0.6809 0.0
C89 C 0.95622 0.66533 0.65829 0.0
C90 C 0.12835 1.05002 0.59494 0.0
C91 C 0.29975 0.0815 0.6516 0.0
C92 C 0.14639 0.316 0.63954 0.0
C93 C 0.21617 0.36809 0.63778 0.0
C94 C 0.23658 0.43251 0.65876 0.0
C95 C 0.26684 0.34861 0.61772 0.0
C96 C 0.36003 0.45135 0.64176 0.0
C97 C 0.33814 0.39036 0.61961 0.0
C98 C 0.30823 0.47346 0.66089 0.0
C99 C 1.11192 0.11296 0.70563 0.0
O100 O 0.98397 1.01587 0.65295 0.0
O101 O 0.98521 0.15078 0.64442 0.0
O102 O 1.0961 0.8746 0.63546 0.0
O103 O 1.1229 0.9035 0.68224 0.0
O104 O 0.17311 1.00086 0.60863 0.0
O105 O 1.08287 0.07497 0.61198 0.0
O106 O 0.25782 0.14808 0.648 0.0
O107 O 0.25638 1.01246 0.65521 0.0
O108 O 0.13861 0.28845 0.66557 0.0
O109 O 0.12717 0.25978 0.61861 0.0
O110 O 1.06795 0.1625 0.69176 0.0
O111 O 0.15792 0.08804 0.68875 0.0
H112 H 1.06955 0.68546 0.64737 0.0
H113 H 0.97746 0.89176 0.68813 0.0
H114 H 0.85836 0.81108 0.6893 0.0
H115 H 0.95102 0.60232 0.64974 0.0
H116 H 0.19835 0.44856 0.67441 0.0
H117 H 0.25287 0.2989 0.60139 0.0
H118 H 0.37751 0.3721 0.60475 0.0
H119 H 0.32394 0.5209 0.67797 0.0
H120 H 1.01652 0.36185 0.98635 0.0
H121 H 0.25789 0.37968 0.98541 0.0
H122 H 1.01561 0.51105 0.98524 0.0
H123 H 0.25785 0.52983 0.98526 0.0
H124 H 0.23452 0.80017 0.96098 0.0
H125 H 0.23531 0.65069 0.96179 0.0
H126 H 1.03583 0.64074 0.00699 0.0
H127 H 1.03415 0.79039 0.00522 0.0
C128 C 1.06993 0.3974 0.98613 0.0
C129 C 0.1373 0.35664 0.98596 0.0
C130 C 1.06953 0.48439 0.9857 0.0
C131 C 0.13662 0.53573 0.98519 0.0
C132 C 0.20421 0.49465 0.98515 0.0
C133 C 0.2045 0.40738 0.98545 0.0
C134 C 0.19049 0.76639 0.97106 0.0
C135 C 0.13414 0.8093 0.98293 0.0
C136 C 0.19124 0.67941 0.97178 0.0
C137 C 0.1358 0.63044 0.98453 0.0
C138 C 1.07936 0.67379 -0.00355 0.0
C139 C 1.0785 0.76089 -0.00438 0.0
H140 H 0.58713 0.90865 0.41814 0.0
H141 H 0.46182 0.09843 0.4527 0.0
H142 H 0.69706 0.9558 0.45145 0.0
H143 H 0.57223 0.14593 0.48666 0.0
H144 H 0.88439 0.08141 0.44945 0.0
H145 H 0.79668 1.02926 0.48268 0.0
H146 H 0.65211 0.22435 0.45811 0.0
H147 H 0.73944 0.27554 0.42534 0.0
C148 C 0.58207 0.95779 0.43407 0.0
C149 C 0.51796 1.00312 0.43169 0.0
C150 C 0.64524 0.98499 0.45357 0.0
C151 C 0.6454 0.05971 0.46995 0.0
C152 C 0.57512 0.09106 0.47306 0.0
C153 C 0.51166 0.06385 0.4535 0.0
C154 C 0.836 0.11589 0.45257 0.0
C155 C 0.81578 0.17936 0.43365 0.0
C156 C 0.78561 0.08603 0.4717 0.0
C157 C 0.71408 0.11781 0.47095 0.0
C158 C 0.70459 0.19485 0.45815 0.0
C159 C 0.75461 0.22454 0.43902 0.0
H160 H 0.79258 0.69846 0.70959 0.0
H161 H 0.82663 0.6008 0.62368 0.0
H162 H 0.6631 0.63845 0.70283 0.0
H163 H 0.69888 0.53608 0.61778 0.0
H164 H 0.44182 0.52133 0.60105 0.0
H165 H 0.57321 0.57745 0.60864 0.0
H166 H 0.58687 0.51278 0.70015 0.0
H167 H 0.45486 0.45985 0.69261 0.0
C168 C 0.7727 0.66336 0.68941 0.0
C169 C 0.81977 0.6549 0.66711 0.0
C170 C 0.69872 0.62815 0.68567 0.0
C171 C 0.67045 0.58293 0.65966 0.0
C172 C 0.71847 0.57182 0.63785 0.0
C173 C 0.7922 0.60773 0.64146 0.0
C174 C 0.4732 0.51961 0.62274 0.0
C175 C 0.43858 0.48719 0.64632 0.0
C176 C 0.54844 0.55101 0.62709 0.0
C177 C 0.59063 0.54933 0.65501 0.0
C178 C 0.55568 0.51632 0.67852 0.0
C179 C 0.48023 0.48599 0.67423 0.0
H180 H 0.83265 0.21007 0.64144 0.0
H181 H 0.82132 0.95209 0.65694 0.0
H182 H 0.695 0.21069 0.6421 0.0
H183 H 0.68337 0.95241 0.65757 0.0
H184 H 0.40891 0.95343 0.65822 0.0
H185 H 0.54656 0.95291 0.6576 0.0
H186 H 0.55852 0.21185 0.64333 0.0
H187 H 0.42056 0.2121 0.64397 0.0
C188 C 0.80263 0.15193 0.64504 0.0
C189 C 0.84732 0.08103 0.64903 0.0
C190 C 0.71943 0.15227 0.64545 0.0
C191 C 0.66826 0.08168 0.64992 0.0
C192 C 0.7131 1.01063 0.65393 0.0
C193 C 0.79644 1.01032 0.65354 0.0
C194 C 0.43899 1.01174 0.65491 0.0
C195 C 0.39438 0.08278 0.65124 0.0
C196 C 0.52221 1.01147 0.65452 0.0
C197 C 0.57346 0.08225 0.65037 0.0
C198 C 0.52871 0.15345 0.64668 0.0
C199 C 0.44535 0.15373 0.64708 0.0
H200 H 0.66434 0.79674 0.03561 0.0
H201 H 0.87993 0.69374 0.03211 0.0
H202 H 0.6046 0.65934 0.0388 0.0
H203 H 0.821 0.5566 0.03716 0.0
H204 H 0.6649 0.33785 0.99253 0.0
H205 H 0.73972 0.46745 0.00339 0.0
H206 H 0.58796 0.537 0.06536 0.0
H207 H 0.51031 0.40964 0.05303 0.0
C208 C 0.69921 0.74484 0.03612 0.0
C209 C 0.77654 0.75603 0.03314 0.0
C210 C 0.66519 0.66606 0.03839 0.0
C211 C 0.70797 0.59681 0.03798 0.0
C212 C 0.78631 0.60858 0.03706 0.0
C213 C 0.82023 0.68735 0.03454 0.0
C214 C 0.64769 0.38065 0.00857 0.0
C215 C 0.58094 0.36402 0.0215 0.0
C216 C 0.69126 0.45451 0.01516 0.0
C217 C 0.6694 0.51301 0.03507 0.0
C218 C 0.60558 0.4938 0.04956 0.0
C219 C 0.56158 0.42026 0.04274 0.0
H220 H 0.22816 0.38468 0.29227 0.0
H221 H 1.03153 0.36837 0.33862 0.0
H222 H 0.22466 0.53435 0.29183 0.0
H223 H 1.02898 0.51788 0.33919 0.0
H224 H 1.00109 0.78976 0.31844 0.0
H225 H 1.00368 0.64004 0.31769 0.0
H226 H 0.2443 0.66403 0.31345 0.0
H227 H 0.24063 0.81343 0.31321 0.0
C228 C 0.18422 0.41275 0.30261 0.0
C229 C 0.13018 0.36242 0.31545 0.0
C230 C 0.18234 0.49992 0.30257 0.0
C231 C 0.12644 0.54162 0.3155 0.0
C232 C 1.07258 0.49069 0.32843 0.0
C233 C 1.07432 0.40361 0.32833 0.0
C234 C 1.05473 0.76338 0.31729 0.0
C235 C 1.12053 0.81577 0.31582 0.0
C236 C 1.05651 0.67621 0.31707 0.0
C237 C 1.12434 0.63652 0.31555 0.0
C238 C 0.19017 0.68948 0.31414 0.0
C239 C 0.18825 0.77657 0.31421 0.0
H240 H 0.16466 0.19312 0.2292 0.0
H241 H 1.0588 0.94693 0.21656 0.0
H242 H 0.17954 0.1959 0.17637 0.0
H243 H 1.07518 0.94888 0.1642 0.0
H244 H 0.20202 0.95199 0.08064 0.0
H245 H 0.18516 0.95348 0.13296 0.0
H246 H 1.09437 0.19147 0.12523 0.0
H247 H 1.10967 0.18897 0.07237 0.0
C248 C 0.14504 0.13942 0.21524 0.0
C249 C 1.11059 0.06971 0.22724 0.0
C250 C 0.15307 0.1412 0.18488 0.0
C251 C 0.12854 0.07261 0.16584 0.0
C252 C 1.09515 1.00269 0.17806 0.0
C253 C 1.08563 1.00162 0.20815 0.0
C254 C 0.1781 1.00458 0.09 0.0
C255 C 0.15715 0.07028 0.07217 0.0
C256 C 0.16827 1.00535 0.12007 0.0
C257 C 0.13859 0.07269 0.13354 0.0
C258 C 1.11795 0.13885 0.11574 0.0
C259 C 0.12625 0.13722 0.08538 0.0
H260 H 1.03782 1.02336 0.40058 0.0
H261 H 0.23939 0.18558 0.42098 0.0
H262 H 1.02709 1.013 0.45367 0.0
H263 H 0.23001 0.17323 0.47347 0.0
H264 H 0.24267 1.03542 0.56145 0.0
H265 H 0.24262 1.05194 0.50856 0.0
H266 H 1.00922 0.1093 0.50133 0.0
H267 H 1.00993 0.09482 0.55498 0.0
C268 C 1.07977 0.05674 0.4163 0.0
C269 C 0.13953 0.10522 0.40636 0.0
C270 C 1.07342 1.05115 0.44673 0.0
C271 C 0.12788 0.09207 0.46797 0.0
C272 C 0.18729 0.14049 0.45787 0.0
C273 C 0.19256 0.14763 0.42765 0.0
C274 C 0.1913 1.05208 0.5487 0.0
C275 C 0.12644 0.06411 0.56261 0.0
C276 C 0.19133 0.06165 0.5183 0.0
C277 C 0.12594 0.08184 0.50052 0.0
C278 C 1.06048 0.09329 0.51429 0.0
C279 C 1.06102 0.0856 0.54505 0.0
H280 H 1.00518 0.1509 0.74014 0.0
H281 H 0.22267 1.0494 0.74511 0.0
H282 H 1.00661 0.14285 0.79303 0.0
H283 H 0.2257 1.04355 0.79903 0.0
H284 H 0.17057 0.98615 0.89541 0.0
H285 H 0.17606 0.98408 0.84184 0.0
H286 H 1.06302 0.21008 0.83632 0.0
H287 H 1.05565 0.2102 0.88895 0.0
C288 C 1.0538 0.12705 0.75261 0.0
C289 C 1.1141 0.10162 0.73819 0.0
C290 C 1.05499 0.12302 0.78324 0.0
C291 C 1.11705 0.09424 0.80093 0.0
C292 C 0.17675 0.06614 0.78642 0.0
C293 C 0.17523 0.06966 0.75543 0.0
C294 C 0.14716 1.03536 0.88265 0.0
C295 C 1.11183 0.09784 0.89657 0.0
C296 C 0.1505 1.03443 0.85186 0.0
C297 C 1.11875 0.0961 0.83418 0.0
C298 C 1.08612 0.15988 0.8486 0.0
C299 C 1.08238 0.16043 0.87907 0.0
loop_
_geom_bond_atom_site_label_1
_geom_bond_atom_site_label_2
_geom_bond_distance
_geom_bond_site_symmetry_2
_ccdc_geom_bond_type
Gd0 C3 2.818 . S
Gd0 O20 2.377 . S
Gd0 O22 2.448 . S
Gd0 O23 2.506 1_554 S
Gd0 O24 2.435 . S
Gd0 O25 2.717 1_545 S
Gd0 O27 2.395 1_545 S
Gd0 O31 2.327 1_554 S
Gd1 C12 2.825 . S
Gd1 O21 2.394 1_565 S
Gd1 O25 2.352 1_655 S
Gd1 O26 2.373 1_554 S
Gd1 O28 2.439 1_554 S
Gd1 O29 2.527 . S
Gd1 O30 2.400 1_554 S
Gd1 O31 2.699 1_664 S
C2 O20 1.240 . S
C2 O21 1.240 1_455 S
C3 Gd0 2.818 . S
C3 C4 1.510 . S
C3 O22 1.249 . S
C3 O23 1.252 1_554 S
C4 C3 1.510 . S
C4 C5 1.404 . S
C4 C6 1.352 1_554 S
C5 C4 1.404 . S
C5 C9 1.389 . S
C5 H32 0.930 . S
C6 C4 1.352 1_556 S
C6 C8 1.374 . S
C6 H33 0.931 . S
C7 C8 1.359 1_554 S
C7 C9 1.364 . S
C8 C6 1.374 . S
C8 C7 1.359 1_556 S
C8 H34 0.931 . S
C9 C5 1.389 . S
C9 C7 1.364 . S
C9 H35 0.931 . S
C10 O24 1.256 . S
C10 O25 1.257 1_545 S
C11 O26 1.240 1_454 S
C11 O27 1.240 . S
C12 Gd1 2.825 . S
C12 C13 1.510 . S
C12 O28 1.249 1_554 S
C12 O29 1.252 . S
C13 C12 1.510 . S
C13 C14 1.404 1_554 S
C13 C15 1.352 . S
C14 C13 1.404 1_556 S
C14 C18 1.389 . S
C14 H36 0.930 . S
C15 C13 1.352 . S
C15 C17 1.374 . S
C15 H37 0.931 . S
C16 C17 1.359 . S
C16 C18 1.364 1_554 S
C17 C15 1.374 . S
C17 C16 1.359 . S
C17 H38 0.931 . S
C18 C14 1.389 . S
C18 C16 1.364 1_556 S
C18 H39 0.931 . S
C19 O30 1.256 1_445 S
C19 O31 1.257 . S
O20 Gd0 2.377 . S
O20 C2 1.240 . S
O21 Gd1 2.394 1_545 S
O21 C2 1.240 1_655 S
O22 Gd0 2.448 . S
O22 C3 1.249 . S
O23 Gd0 2.506 1_556 S
O23 C3 1.252 1_556 S
O24 Gd0 2.435 . S
O24 C10 1.256 . S
O25 Gd0 2.717 1_565 S
O25 Gd1 2.352 1_455 S
O25 C10 1.257 1_565 S
O26 Gd1 2.373 1_556 S
O26 C11 1.240 1_656 S
O27 Gd0 2.395 1_565 S
O27 C11 1.240 . S
O28 Gd1 2.439 1_556 S
O28 C12 1.249 1_556 S
O29 Gd1 2.527 . S
O29 C12 1.252 . S
O30 Gd1 2.400 1_556 S
O30 C19 1.256 1_665 S
O31 Gd0 2.327 1_556 S
O31 Gd1 2.699 1_446 S
O31 C19 1.257 . S
H32 C5 0.930 . S
H33 C6 0.931 . S
H34 C8 0.931 . S
H35 C9 0.931 . S
H36 C14 0.930 . S
H37 C15 0.931 . S
H38 C17 0.931 . S
H39 C18 0.931 . S
Gd40 C43 2.818 1_565 S
Gd40 O60 2.377 1_565 S
Gd40 O62 2.447 1_565 S
Gd40 O63 2.506 1_565 S
Gd40 O64 2.435 . S
Gd40 O65 2.717 1_665 S
Gd40 O67 2.395 . S
Gd40 O71 2.327 1_565 S
Gd41 C52 2.818 . S
Gd41 O61 2.395 . S
Gd41 O65 2.327 . S
Gd41 O66 2.377 1_545 S
Gd41 O68 2.448 . S
Gd41 O69 2.506 . S
Gd41 O70 2.435 . S
Gd41 O71 2.717 1_455 S
C42 O60 1.240 . S
C42 O61 1.240 1_655 S
C43 Gd40 2.818 1_545 S
C43 C44 1.510 . S
C43 O62 1.250 . S
C43 O63 1.252 . S
C44 C43 1.510 . S
C44 C45 1.404 . S
C44 C46 1.352 . S
C45 C44 1.404 . S
C45 C49 1.389 . S
C45 H72 0.930 . S
C46 C44 1.352 . S
C46 C48 1.374 . S
C46 H73 0.931 . S
C47 C48 1.359 . S
C47 C49 1.364 . S
C48 C46 1.374 . S
C48 C47 1.359 . S
C48 H74 0.931 . S
C49 C45 1.389 . S
C49 C47 1.364 . S
C49 H75 0.931 . S
C50 O64 1.256 1_545 S
C50 O65 1.257 1_655 S
C51 O66 1.240 . S
C51 O67 1.240 1_455 S
C52 Gd41 2.818 . S
C52 C53 1.510 1_545 S
C52 O68 1.249 . S
C52 O69 1.252 . S
C53 C52 1.510 1_565 S
C53 C54 1.404 . S
C53 C55 1.352 . S
C54 C53 1.404 . S
C54 C58 1.389 . S
C54 H76 0.930 1_565 S
C55 C53 1.352 . S
C55 C57 1.374 . S
C55 H77 0.931 . S
C56 C57 1.359 . S
C56 C58 1.364 . S
C57 C55 1.374 . S
C57 C56 1.359 . S
C57 H78 0.931 . S
C58 C54 1.389 . S
C58 C56 1.364 . S
C58 H79 0.931 . S
C59 O70 1.256 . S
C59 O71 1.257 1_455 S
O60 Gd40 2.377 1_545 S
O60 C42 1.240 . S
O61 Gd41 2.395 . S
O61 C42 1.240 1_455 S
O62 Gd40 2.447 1_545 S
O62 C43 1.250 . S
O63 Gd40 2.506 1_545 S
O63 C43 1.252 . S
O64 Gd40 2.435 . S
O64 C50 1.256 1_565 S
O65 Gd40 2.717 1_445 S
O65 Gd41 2.327 . S
O65 C50 1.257 1_455 S
O66 Gd41 2.377 1_565 S
O66 C51 1.240 . S
O67 Gd40 2.395 . S
O67 C51 1.240 1_655 S
O68 Gd41 2.448 . S
O68 C52 1.249 . S
O69 Gd41 2.506 . S
O69 C52 1.252 . S
O70 Gd41 2.435 . S
O70 C59 1.256 . S
O71 Gd40 2.327 1_545 S
O71 Gd41 2.717 1_655 S
O71 C59 1.257 1_655 S
H72 C45 0.930 . S
H73 C46 0.931 . S
H74 C48 0.931 . S
H75 C49 0.931 . S
H76 C54 0.930 1_545 S
H77 C55 0.931 . S
H78 C57 0.931 . S
H79 C58 0.931 . S
Gd80 C83 2.818 . S
Gd80 O100 2.377 1_565 S
Gd80 O102 2.448 . S
Gd80 O103 2.506 . S
Gd80 O104 2.435 . S
Gd80 O105 2.717 1_665 S
Gd80 O107 2.395 1_655 S
Gd80 O111 2.327 1_565 S
Gd81 C92 2.818 . S
Gd81 O101 2.395 1_455 S
Gd81 O105 2.327 . S
Gd81 O106 2.377 . S
Gd81 O108 2.448 . S
Gd81 O109 2.506 . S
Gd81 O110 2.435 . S
Gd81 O111 2.717 1_455 S
C82 O100 1.240 . S
C82 O101 1.240 . S
C83 Gd80 2.818 . S
C83 C84 1.510 . S
C83 O102 1.249 . S
C83 O103 1.252 . S
C84 C83 1.510 . S
C84 C85 1.404 . S
C84 C86 1.352 . S
C85 C84 1.404 . S
C85 C89 1.389 . S
C85 H112 0.930 . S
C86 C84 1.352 . S
C86 C88 1.374 . S
C86 H113 0.931 . S
C87 C88 1.359 . S
C87 C89 1.364 . S
C88 C86 1.374 . S
C88 C87 1.359 . S
C88 H114 0.931 . S
C89 C85 1.389 . S
C89 C87 1.364 . S
C89 H115 0.931 . S
C90 O104 1.256 1_545 S
C90 O105 1.257 1_655 S
C91 O106 1.240 . S
C91 O107 1.240 1_545 S
C92 Gd81 2.818 . S
C92 C93 1.510 . S
C92 O108 1.249 . S
C92 O109 1.252 . S
C93 C92 1.510 . S
C93 C94 1.404 . S
C93 C95 1.352 . S
C94 C93 1.404 . S
C94 C98 1.389 . S
C94 H116 0.930 . S
C95 C93 1.352 . S
C95 C97 1.374 . S
C95 H117 0.931 . S
C96 C97 1.359 . S
C96 C98 1.364 . S
C97 C95 1.374 . S
C97 C96 1.359 . S
C97 H118 0.931 . S
C98 C94 1.389 . S
C98 C96 1.364 . S
C98 H119 0.931 . S
C99 O110 1.256 . S
C99 O111 1.257 1_455 S
O100 Gd80 2.377 1_545 S
O100 C82 1.240 . S
O101 Gd81 2.395 1_655 S
O101 C82 1.240 . S
O102 Gd80 2.448 . S
O102 C83 1.249 . S
O103 Gd80 2.506 . S
O103 C83 1.252 . S
O104 Gd80 2.435 . S
O104 C90 1.256 1_565 S
O105 Gd80 2.717 1_445 S
O105 Gd81 2.327 . S
O105 C90 1.257 1_455 S
O106 Gd81 2.377 . S
O106 C91 1.240 . S
O107 Gd80 2.395 1_455 S
O107 C91 1.240 1_565 S
O108 Gd81 2.448 . S
O108 C92 1.249 . S
O109 Gd81 2.506 . S
O109 C92 1.252 . S
O110 Gd81 2.435 . S
O110 C99 1.256 . S
O111 Gd80 2.327 1_545 S
O111 Gd81 2.717 1_655 S
O111 C99 1.257 1_655 S
H112 C85 0.930 . S
H113 C86 0.931 . S
H114 C88 0.931 . S
H115 C89 0.931 . S
H116 C94 0.930 . S
H117 C95 0.931 . S
H118 C97 0.931 . S
H119 C98 0.931 . S
H120 C128 0.950 . S
H121 C133 0.950 . S
H122 C130 0.950 . S
H123 C132 0.950 . S
H124 C134 0.950 . S
H125 C136 0.950 . S
H126 C138 0.950 1_655 S
H127 C139 0.950 1_655 S
C128 H120 0.950 . S
C128 C129 1.386 . S
C128 C130 1.391 . S
C129 C128 1.386 . S
C129 C133 1.393 1_554 S
C130 H122 0.950 . S
C130 C128 1.391 . S
C130 C131 1.400 . S
C131 C130 1.400 . S
C131 C132 1.398 1_554 S
C131 C137 1.491 . S
C132 H123 0.950 . S
C132 C131 1.398 1_556 S
C132 C133 1.391 . S
C133 H121 0.950 . S
C133 C129 1.393 1_556 S
C133 C132 1.391 . S
C134 H124 0.950 . S
C134 C135 1.386 1_556 S
C134 C136 1.391 . S
C135 C134 1.386 1_554 S
C135 C139 1.393 . S
C136 H125 0.950 . S
C136 C134 1.391 . S
C136 C137 1.400 1_556 S
C137 C131 1.491 . S
C137 C136 1.400 1_554 S
C137 C138 1.398 . S
C138 H126 0.950 1_455 S
C138 C137 1.398 . S
C138 C139 1.391 . S
C139 H127 0.950 1_455 S
C139 C135 1.393 . S
C139 C138 1.391 . S
H140 C148 0.950 . S
H141 C153 0.950 . S
H142 C150 0.950 . S
H143 C152 0.950 . S
H144 C154 0.950 . S
H145 C156 0.950 . S
H146 C158 0.950 . S
H147 C159 0.950 . S
C148 H140 0.950 . S
C148 C149 1.386 . S
C148 C150 1.391 . S
C149 C148 1.386 . S
C149 C153 1.393 . S
C150 H142 0.950 . S
C150 C148 1.391 . S
C150 C151 1.400 . S
C151 C150 1.400 . S
C151 C152 1.398 . S
C151 C157 1.491 1_565 S
C152 H143 0.950 . S
C152 C151 1.398 . S
C152 C153 1.391 . S
C153 H141 0.950 . S
C153 C149 1.393 . S
C153 C152 1.391 . S
C154 H144 0.950 . S
C154 C155 1.386 . S
C154 C156 1.391 . S
C155 C154 1.386 . S
C155 C159 1.393 . S
C156 H145 0.950 . S
C156 C154 1.391 . S
C156 C157 1.400 . S
C157 C151 1.491 1_545 S
C157 C156 1.400 . S
C157 C158 1.398 . S
C158 H146 0.950 . S
C158 C157 1.398 . S
C158 C159 1.391 . S
C159 H147 0.950 . S
C159 C155 1.393 . S
C159 C158 1.391 . S
H160 C168 0.950 . S
H161 C173 0.950 . S
H162 C170 0.950 . S
H163 C172 0.950 . S
H164 C174 0.950 . S
H165 C176 0.950 . S
H166 C178 0.950 . S
H167 C179 0.950 . S
C168 H160 0.950 . S
C168 C169 1.386 . S
C168 C170 1.391 . S
C169 C168 1.386 . S
C169 C173 1.393 . S
C170 H162 0.950 . S
C170 C168 1.391 . S
C170 C171 1.400 . S
C171 C170 1.400 . S
C171 C172 1.398 . S
C171 C177 1.491 . S
C172 H163 0.950 . S
C172 C171 1.398 . S
C172 C173 1.391 . S
C173 H161 0.950 . S
C173 C169 1.393 . S
C173 C172 1.391 . S
C174 H164 0.950 . S
C174 C175 1.386 . S
C174 C176 1.391 . S
C175 C174 1.386 . S
C175 C179 1.393 . S
C176 H165 0.950 . S
C176 C174 1.391 . S
C176 C177 1.400 . S
C177 C171 1.491 . S
C177 C176 1.400 . S
C177 C178 1.398 . S
C178 H166 0.950 . S
C178 C177 1.398 . S
C178 C179 1.391 . S
C179 H167 0.950 . S
C179 C175 1.393 . S
C179 C178 1.391 . S
H180 C188 0.950 . S
H181 C193 0.950 1_565 S
H182 C190 0.950 . S
H183 C192 0.950 1_565 S
H184 C194 0.950 1_565 S
H185 C196 0.950 1_565 S
H186 C198 0.950 . S
H187 C199 0.950 . S
C188 H180 0.950 . S
C188 C189 1.386 . S
C188 C190 1.391 . S
C189 C188 1.386 . S
C189 C193 1.393 . S
C190 H182 0.950 . S
C190 C188 1.391 . S
C190 C191 1.400 . S
C191 C190 1.400 . S
C191 C192 1.398 . S
C191 C197 1.491 . S
C192 H183 0.950 1_545 S
C192 C191 1.398 . S
C192 C193 1.391 . S
C193 H181 0.950 1_545 S
C193 C189 1.393 . S
C193 C192 1.391 . S
C194 H184 0.950 1_545 S
C194 C195 1.386 . S
C194 C196 1.391 . S
C195 C194 1.386 . S
C195 C199 1.393 . S
C196 H185 0.950 1_545 S
C196 C194 1.391 . S
C196 C197 1.400 . S
C197 C191 1.491 . S
C197 C196 1.400 . S
C197 C198 1.398 . S
C198 H186 0.950 . S
C198 C197 1.398 . S
C198 C199 1.391 . S
C199 H187 0.950 . S
C199 C195 1.393 . S
C199 C198 1.391 . S
H200 C208 0.950 . S
H201 C213 0.950 . S
H202 C210 0.950 . S
H203 C212 0.958 . S
H204 C214 0.947 1_556 S
H205 C216 0.950 1_556 S
H206 C218 0.950 . S
H207 C219 0.950 . S
C208 H200 0.950 . S
C208 C209 1.386 . S
C208 C210 1.391 . S
C209 C208 1.386 . S
C209 C213 1.393 1_554 S
C210 H202 0.950 . S
C210 C208 1.391 . S
C210 C211 1.400 . S
C211 C210 1.400 . S
C211 C212 1.386 1_554 S
C211 C217 1.491 . S
C212 H203 0.958 . S
C212 C211 1.386 1_556 S
C212 C213 1.396 . S
C213 H201 0.950 . S
C213 C209 1.393 1_556 S
C213 C212 1.396 . S
C214 H204 0.947 1_554 S
C214 C215 1.386 . S
C214 C216 1.391 . S
C215 C214 1.386 . S
C215 C219 1.393 . S
C216 H205 0.950 1_554 S
C216 C214 1.391 . S
C216 C217 1.400 . S
C217 C211 1.491 . S
C217 C216 1.400 . S
C217 C218 1.398 . S
C218 H206 0.950 . S
C218 C217 1.398 . S
C218 C219 1.391 . S
C219 H207 0.950 . S
C219 C215 1.393 . S
C219 C218 1.391 . S
H220 C228 0.950 . S
H221 C233 0.950 . S
H222 C230 0.950 . S
H223 C232 0.950 . S
H224 C234 0.950 . S
H225 C236 0.950 . S
H226 C238 0.950 . S
H227 C239 0.950 . S
C228 H220 0.950 . S
C228 C229 1.386 . S
C228 C230 1.391 . S
C229 C228 1.386 . S
C229 C233 1.393 . S
C230 H222 0.950 . S
C230 C228 1.391 . S
C230 C231 1.398 . S
C231 C230 1.398 . S
C231 C232 1.399 . S
C231 C237 1.492 1_655 S
C232 H223 0.950 . S
C232 C231 1.399 . S
C232 C233 1.391 . S
C233 H221 0.950 . S
C233 C229 1.393 . S
C233 C232 1.391 . S
C234 H224 0.950 . S
C234 C235 1.386 . S
C234 C236 1.391 . S
C235 C234 1.386 . S
C235 C239 1.393 . S
C236 H225 0.950 . S
C236 C234 1.391 . S
C236 C237 1.400 . S
C237 C231 1.492 1_455 S
C237 C236 1.400 . S
C237 C238 1.398 . S
C238 H226 0.950 . S
C238 C237 1.398 . S
C238 C239 1.391 . S
C239 H227 0.950 . S
C239 C235 1.393 . S
C239 C238 1.391 . S
H240 C248 0.950 . S
H241 C253 0.950 . S
H242 C250 0.950 . S
H243 C252 0.950 . S
H244 C254 0.950 . S
H245 C256 0.950 . S
H246 C258 0.950 . S
H247 C259 0.950 . S
C248 H240 0.950 . S
C248 C249 1.386 . S
C248 C250 1.391 . S
C249 C248 1.386 . S
C249 C253 1.393 1_445 S
C250 H242 0.950 . S
C250 C248 1.391 . S
C250 C251 1.400 . S
C251 C250 1.400 . S
C251 C252 1.398 1_445 S
C251 C257 1.491 . S
C252 H243 0.950 . S
C252 C251 1.398 1_665 S
C252 C253 1.391 . S
C253 H241 0.950 . S
C253 C249 1.393 1_665 S
C253 C252 1.391 . S
C254 H244 0.950 . S
C254 C255 1.386 1_665 S
C254 C256 1.391 . S
C255 C254 1.386 1_445 S
C255 C259 1.393 . S
C256 H245 0.950 . S
C256 C254 1.391 . S
C256 C257 1.400 1_665 S
C257 C251 1.491 . S
C257 C256 1.400 1_445 S
C257 C258 1.398 . S
C258 H246 0.950 . S
C258 C257 1.398 . S
C258 C259 1.391 . S
C259 H247 0.950 . S
C259 C255 1.393 . S
C259 C258 1.391 . S
H260 C268 0.950 . S
H261 C273 0.950 . S
H262 C270 0.950 . S
H263 C272 0.950 . S
H264 C274 0.950 . S
H265 C276 0.950 . S
H266 C278 0.950 1_565 S
H267 C279 0.950 1_565 S
C268 H260 0.950 . S
C268 C269 1.386 1_665 S
C268 C270 1.391 . S
C269 C268 1.386 1_445 S
C269 C273 1.393 . S
C270 H262 0.950 . S
C270 C268 1.391 . S
C270 C271 1.400 1_665 S
C271 C270 1.400 1_445 S
C271 C272 1.398 . S
C271 C277 1.491 . S
C272 H263 0.950 . S
C272 C271 1.398 . S
C272 C273 1.391 . S
C273 H261 0.950 . S
C273 C269 1.393 . S
C273 C272 1.391 . S
C274 H264 0.950 . S
C274 C275 1.386 . S
C274 C276 1.391 . S
C275 C274 1.386 . S
C275 C279 1.393 1_455 S
C276 H265 0.950 . S
C276 C274 1.391 . S
C276 C277 1.400 . S
C277 C271 1.491 . S
C277 C276 1.400 . S
C277 C278 1.398 1_455 S
C278 H266 0.950 1_545 S
C278 C277 1.398 1_655 S
C278 C279 1.391 . S
C279 H267 0.950 1_545 S
C279 C275 1.393 1_655 S
C279 C278 1.391 . S
H280 C288 0.950 . S
H281 C293 0.950 . S
H282 C290 0.950 . S
H283 C292 0.950 . S
H284 C294 0.950 . S
H285 C296 0.950 . S
H286 C298 0.949 1_655 S
H287 C299 0.950 1_655 S
C288 H280 0.950 . S
C288 C289 1.386 1_655 S
C288 C290 1.391 . S
C289 C288 1.386 1_455 S
C289 C293 1.393 1_545 S
C290 H282 0.950 . S
C290 C288 1.391 . S
C290 C291 1.400 1_655 S
C291 C290 1.400 1_455 S
C291 C292 1.398 1_545 S
C291 C297 1.491 . S
C292 H283 0.950 . S
C292 C291 1.398 1_565 S
C292 C293 1.391 . S
C293 H281 0.950 . S
C293 C289 1.393 1_565 S
C293 C292 1.391 . S
C294 H284 0.950 . S
C294 C295 1.386 1_565 S
C294 C296 1.391 . S
C295 C294 1.386 1_545 S
C295 C299 1.393 . S
C296 H285 0.950 . S
C296 C294 1.391 . S
C296 C297 1.400 1_565 S
C297 C291 1.491 . S
C297 C296 1.400 1_545 S
C297 C298 1.400 . S
C298 H286 0.949 1_455 S
C298 C297 1.400 . S
C298 C299 1.390 . S
C299 H287 0.950 1_455 S
C299 C295 1.393 . S
C299 C298 1.390 . S
C129 C2 2.989 . S
C135 C11 2.989 . S
C149 C56 0.762 . S
C155 C47 0.762 . S
C169 C87 0.644 . S
C175 C96 0.644 . S
C189 C82 4.858 . S
C195 C91 4.858 . S
C209 C16 0.591 . S
C215 C7 0.591 . S
C229 C42 3.058 . S
C235 C51 3.058 . S
C249 C50 1.486 1_455 S
C255 C10 1.484 . S
C269 C59 1.460 . S
C275 C90 1.461 1_455 S
C289 C99 1.490 . S
C295 C19 1.475 . S
