# Generated by pormake.
# Topology atn, (4)-cn, num edge types: 1
# Building blocks:
#     Node 0, Type 0, BuildingBlock: AZAVOO_clean_sbu_0, # of connection points: 4
#     Node 1, Type 0, BuildingBlock: AZAVOO_clean_sbu_0, # of connection points: 4
#     Node 2, Type 0, BuildingBlock: AZAVOO_clean_sbu_0, # of connection points: 4
#     Node 3, Type 0, BuildingBlock: AZAVOO_clean_sbu_0, # of connection points: 4
#     Node 4, Type 0, BuildingBlock: AZAVOO_clean_sbu_0, # of connection points: 4
#     Node 5, Type 0, BuildingBlock: AZAVOO_clean_sbu_0, # of connection points: 4
#     Node 6, Type 0, BuildingBlock: AZAVOO_clean_sbu_0, # of connection points: 4
#     Node 7, Type 0, BuildingBlock: AZAVOO_clean_sbu_0, # of connection points: 4
#     Node 8, Type 0, BuildingBlock: AZAVOO_clean_sbu_0, # of connection points: 4
#     Node 9, Type 0, BuildingBlock: AZAVOO_clean_sbu_0, # of connection points: 4
#     Node 10, Type 0, BuildingBlock: AZAVOO_clean_sbu_0, # of connection points: 4
#     Node 11, Type 0, BuildingBlock: AZAVOO_clean_sbu_0, # of connection points: 4
#     Node 12, Type 0, BuildingBlock: AZAVOO_clean_sbu_0, # of connection points: 4
#     Node 13, Type 0, BuildingBlock: AZAVOO_clean_sbu_0, # of connection points: 4
#     Node 14, Type 0, BuildingBlock: AZAVOO_clean_sbu_0, # of connection points: 4
#     Node 15, Type 0, BuildingBlock: AZAVOO_clean_sbu_0, # of connection points: 4
#     Edge 16, Type (0, 0), BuildingBlock: MIFKUJ_clean_linker_0, # of connection points: 2
#     Edge 17, Type (0, 0), BuildingBlock: MIFKUJ_clean_linker_0, # of connection points: 2
#     Edge 18, Type (0, 0), BuildingBlock: MIFKUJ_clean_linker_0, # of connection points: 2
#     Edge 19, Type (0, 0), BuildingBlock: MIFKUJ_clean_linker_0, # of connection points: 2
#     Edge 20, Type (0, 0), BuildingBlock: MIFKUJ_clean_linker_0, # of connection points: 2
#     Edge 21, Type (0, 0), BuildingBlock: MIFKUJ_clean_linker_0, # of connection points: 2
#     Edge 22, Type (0, 0), BuildingBlock: MIFKUJ_clean_linker_0, # of connection points: 2
#     Edge 23, Type (0, 0), BuildingBlock: MIFKUJ_clean_linker_0, # of connection points: 2
#     Edge 24, Type (0, 0), BuildingBlock: MIFKUJ_clean_linker_0, # of connection points: 2
#     Edge 25, Type (0, 0), BuildingBlock: MIFKUJ_clean_linker_0, # of connection points: 2
#     Edge 26, Type (0, 0), BuildingBlock: MIFKUJ_clean_linker_0, # of connection points: 2
#     Edge 27, Type (0, 0), BuildingBlock: MIFKUJ_clean_linker_0, # of connection points: 2
#     Edge 28, Type (0, 0), BuildingBlock: MIFKUJ_clean_linker_0, # of connection points: 2
#     Edge 29, Type (0, 0), BuildingBlock: MIFKUJ_clean_linker_0, # of connection points: 2
#     Edge 30, Type (0, 0), BuildingBlock: MIFKUJ_clean_linker_0, # of connection points: 2
#     Edge 31, Type (0, 0), BuildingBlock: MIFKUJ_clean_linker_0, # of connection points: 2
#     Edge 32, Type (0, 0), BuildingBlock: MIFKUJ_clean_linker_0, # of connection points: 2
#     Edge 33, Type (0, 0), BuildingBlock: MIFKUJ_clean_linker_0, # of connection points: 2
#     Edge 34, Type (0, 0), BuildingBlock: MIFKUJ_clean_linker_0, # of connection points: 2
#     Edge 35, Type (0, 0), BuildingBlock: MIFKUJ_clean_linker_0, # of connection points: 2
#     Edge 36, Type (0, 0), BuildingBlock: MIFKUJ_clean_linker_0, # of connection points: 2
#     Edge 37, Type (0, 0), BuildingBlock: MIFKUJ_clean_linker_0, # of connection points: 2
#     Edge 38, Type (0, 0), BuildingBlock: MIFKUJ_clean_linker_0, # of connection points: 2
#     Edge 39, Type (0, 0), BuildingBlock: MIFKUJ_clean_linker_0, # of connection points: 2
#     Edge 40, Type (0, 0), BuildingBlock: MIFKUJ_clean_linker_0, # of connection points: 2
#     Edge 41, Type (0, 0), BuildingBlock: MIFKUJ_clean_linker_0, # of connection points: 2
#     Edge 42, Type (0, 0), BuildingBlock: MIFKUJ_clean_linker_0, # of connection points: 2
#     Edge 43, Type (0, 0), BuildingBlock: MIFKUJ_clean_linker_0, # of connection points: 2
#     Edge 44, Type (0, 0), BuildingBlock: MIFKUJ_clean_linker_0, # of connection points: 2
#     Edge 45, Type (0, 0), BuildingBlock: MIFKUJ_clean_linker_0, # of connection points: 2
#     Edge 46, Type (0, 0), BuildingBlock: MIFKUJ_clean_linker_0, # of connection points: 2
#     Edge 47, Type (0, 0), BuildingBlock: MIFKUJ_clean_linker_0, # of connection points: 2
# Relax obj value: 0.127
# Max RMSD: 0.133
# Mean RMSD: 0.133
data_MOF--net-atn--node1-AZAVOO_clean_sbu_0--edge1-MIFKUJ_clean_linker_0
_symmetry_space_group_name_H-M    P1
_symmetry_Int_Tables_number       1
_symmetry_cell_setting            triclinic
loop_
_symmetry_equiv_pos_as_xyz
'x, y, z'
_cell_length_a     78.55833
_cell_length_b     78.491633
_cell_length_c     33.910305
_cell_angle_alpha  90.030461
_cell_angle_beta   90.022902
_cell_angle_gamma 90.055682
loop_
_atom_site_label
_atom_site_type_symbol
_atom_site_fract_x
_atom_site_fract_y
_atom_site_fract_z
_atom_type_partial_charge
Mg0 Mg 0.20535 0.38304 0.97951 0.0
O1 O 0.22678 0.36338 0.97623 0.0
O2 O 0.23968 0.36637 0.91783 0.0
Mg3 Mg 0.22557 0.38659 0.88242 0.0
C4 C 0.23828 0.35922 0.95146 0.0
C5 C 0.18728 0.37682 0.05652 0.0
O6 O 0.17514 0.37957 0.03061 0.0
O7 O 0.22461 0.40463 0.98721 0.0
O8 O 0.23462 0.40701 0.92575 0.0
O9 O 0.18724 0.36431 0.95405 0.0
O10 O 0.20271 0.38209 0.91841 0.0
C11 C 0.23392 0.41208 0.96152 0.0
C12 C 0.19204 0.36963 0.9197 0.0
O13 O 0.20267 0.37827 0.04544 0.0
Mg14 Mg 0.61136 0.19312 0.00116 0.0
O15 O 0.63001 0.21447 0.98551 0.0
O16 O 0.62909 0.21973 0.92084 0.0
Mg17 Mg 0.60818 0.20274 0.89543 0.0
C18 C 0.63519 0.22252 0.95512 0.0
C19 C 0.63214 0.19675 0.07658 0.0
O20 O 0.6437 0.19568 0.04871 0.0
O21 O 0.58959 0.2123 -0.00173 0.0
O22 O 0.58843 0.2168 0.93315 0.0
O23 O 0.63098 0.17392 0.98512 0.0
O24 O 0.61206 0.18443 0.94337 0.0
C25 C 0.58299 0.21952 0.96811 0.0
C26 C 0.6253 0.17518 0.94944 0.0
O27 O 0.61652 0.19726 0.0667 0.0
Mg28 Mg 0.79211 0.61006 0.98859 0.0
O29 O 0.76929 0.62822 0.98684 0.0
O30 O 0.75473 0.62321 0.93131 0.0
Mg31 Mg 0.76862 0.60273 0.89649 0.0
C32 C 0.75677 0.63115 0.96381 0.0
C33 C 0.81212 0.61974 0.06208 0.0
O34 O 0.8239 0.61701 0.03532 0.0
O35 O 0.77449 0.58775 0.0032 0.0
O36 O 0.76155 0.58379 0.94504 0.0
O37 O 0.80794 0.62898 0.95681 0.0
O38 O 0.79245 0.60924 0.92713 0.0
C39 C 0.76402 0.57974 0.98106 0.0
C40 C 0.80228 0.62234 0.9244 0.0
O41 O 0.79665 0.61704 0.05299 0.0
Mg42 Mg 0.38063 0.79311 0.98453 0.0
O43 O 0.36622 0.76774 0.98726 0.0
O44 O 0.36892 0.75508 0.92849 0.0
Mg45 Mg 0.38593 0.77138 0.88935 0.0
C46 C 0.36305 0.75548 0.96357 0.0
C47 C 0.36952 0.81116 0.058 0.0
O48 O 0.36609 0.82146 0.02854 0.0
O49 O 0.40586 0.7791 0.99145 0.0
O50 O 0.40831 0.76733 0.93163 0.0
O51 O 0.3575 0.80521 0.95941 0.0
O52 O 0.37786 0.7936 0.92342 0.0
C53 C 0.41409 0.77023 0.96622 0.0
C54 C 0.36307 0.8006 0.92518 0.0
O55 O 0.37697 0.79712 0.0507 0.0
Mg56 Mg 0.19752 0.61501 0.01187 0.0
O57 O 0.22084 0.63211 0.02215 0.0
O58 O 0.23014 0.62763 0.0837 0.0
Mg59 Mg 0.21328 0.60751 0.11252 0.0
C60 C 0.23118 0.63516 0.05041 0.0
C61 C 0.19775 0.63638 0.93493 0.0
O62 O 0.20061 0.64822 0.96152 0.0
O63 O 0.21525 0.59209 0.00505 0.0
O64 O 0.22271 0.58783 0.06794 0.0
O65 O 0.18015 0.63488 0.03628 0.0
O66 O 0.19297 0.61521 0.07223 0.0
C67 C 0.22308 0.58358 0.03159 0.0
C68 C 0.18363 0.62866 0.07066 0.0
O69 O 0.19709 0.62088 0.94586 0.0
Mg70 Mg 0.38296 0.19504 0.0063 0.0
O71 O 0.36446 0.21747 0.01081 0.0
O72 O 0.36773 0.22927 0.07043 0.0
Mg73 Mg 0.38731 0.21381 0.10479 0.0
C74 C 0.36069 0.22874 0.03652 0.0
C75 C 0.38507 0.18098 0.92202 0.0
O76 O 0.39532 0.17072 0.94134 0.0
O77 O 0.40516 0.21354 7e-05 0.0
O78 O 0.40807 0.22277 0.06217 0.0
O79 O 0.36296 0.17798 0.03 0.0
O80 O 0.38163 0.19178 0.06702 0.0
C81 C 0.41293 0.22232 0.02624 0.0
C82 C 0.36819 0.18242 0.06474 0.0
O83 O 0.37851 0.19351 0.94022 0.0
Mg84 Mg 0.78954 0.37955 0.01073 0.0
O85 O 0.76796 0.35981 0.00989 0.0
O86 O 0.75426 0.36176 0.06746 0.0
Mg87 Mg 0.76664 0.38248 0.10467 0.0
C88 C 0.75624 0.35502 0.03352 0.0
C89 C 0.80918 0.37968 0.93409 0.0
O90 O 0.81929 0.3873 0.95948 0.0
O91 O 0.77059 0.40105 0.00073 0.0
O92 O 0.75821 0.40275 0.06003 0.0
O93 O 0.80695 0.36086 0.03862 0.0
O94 O 0.79045 0.37852 0.07202 0.0
C95 C 0.76014 0.40803 0.02467 0.0
C96 C 0.80123 0.36616 0.07225 0.0
O97 O 0.79437 0.37533 0.94531 0.0
Mg98 Mg 0.62378 0.80213 0.02355 0.0
O99 O 0.63729 0.77654 0.02951 0.0
O100 O 0.63235 0.76625 0.08997 0.0
Mg101 Mg 0.61561 0.78542 0.12269 0.0
C102 C 0.63919 0.7651 0.05591 0.0
C103 C 0.62057 0.81344 0.93751 0.0
O104 O 0.60879 0.8226 0.95501 0.0
O105 O 0.59832 0.78843 0.01726 0.0
O106 O 0.59386 0.78005 0.07953 0.0
O107 O 0.64696 0.81454 0.04802 0.0
O108 O 0.62513 0.80552 0.08378 0.0
C109 C 0.58913 0.78129 0.04361 0.0
C110 C 0.64032 0.81159 0.08229 0.0
O111 O 0.62862 0.80243 0.95763 0.0
Mg112 Mg 0.70411 0.88327 0.50106 0.0
O113 O 0.72827 0.86697 0.49767 0.0
O114 O 0.73833 0.86854 0.43612 0.0
Mg115 Mg 0.72177 0.88704 0.40142 0.0
C116 C 0.73904 0.86272 0.47123 0.0
C117 C 0.68904 0.88465 0.58281 0.0
O118 O 0.67816 0.89307 0.56075 0.0
O119 O 0.72012 0.90753 0.50448 0.0
O120 O 0.72979 0.90876 0.44248 0.0
O121 O 0.6895 0.86091 0.47908 0.0
O122 O 0.70065 0.88094 0.44092 0.0
C123 C 0.72878 0.91482 0.47738 0.0
C124 C 0.69308 0.86648 0.44413 0.0
O125 O 0.70289 0.87964 0.56735 0.0
Mg126 Mg 0.10582 0.70064 0.4983 0.0
O127 O 0.12638 0.72042 0.48383 0.0
O128 O 0.12346 0.72852 0.42098 0.0
Mg129 Mg 0.09988 0.71537 0.39636 0.0
C130 C 0.13119 0.72913 0.45404 0.0
C131 C 0.11275 0.68622 0.57889 0.0
O132 O 0.10575 0.67377 0.55861 0.0
O133 O 0.0863 0.72211 0.5049 0.0
O134 O 0.08344 0.72947 0.44148 0.0
O135 O 0.12221 0.68017 0.47295 0.0
O136 O 0.10314 0.69475 0.43895 0.0
C137 C 0.07955 0.73125 0.47784 0.0
C138 C 0.11518 0.68369 0.43941 0.0
O139 O 0.11396 0.70081 0.56284 0.0
Mg140 Mg 0.28514 0.12098 0.49198 0.0
O141 O 0.26289 0.13962 0.49846 0.0
O142 O 0.24589 0.1361 0.4462 0.0
Mg143 Mg 0.25783 0.11651 0.40495 0.0
C144 C 0.24952 0.14333 0.47885 0.0
C145 C 0.30641 0.11913 0.56805 0.0
O146 O 0.31504 0.10909 0.54437 0.0
O147 O 0.26829 0.09811 0.50653 0.0
O148 O 0.2538 0.09526 0.45016 0.0
O149 O 0.29984 0.14071 0.4597 0.0
O150 O 0.28291 0.12194 0.43094 0.0
C151 C 0.25773 0.09006 0.48467 0.0
C152 C 0.29277 0.13498 0.42785 0.0
O153 O 0.29252 0.12552 0.55591 0.0
Mg154 Mg 0.89093 0.30549 0.49671 0.0
O155 O 0.87107 0.28454 0.48637 0.0
O156 O 0.87355 0.27477 0.4247 0.0
Mg157 Mg 0.89636 0.28807 0.39707 0.0
C158 C 0.86623 0.27483 0.45827 0.0
C159 C 0.89018 0.31768 0.58316 0.0
O160 O 0.90204 0.32756 0.56819 0.0
O161 O 0.91135 0.28522 0.50472 0.0
O162 O 0.91373 0.27537 0.44293 0.0
O163 O 0.87325 0.32442 0.47067 0.0
O164 O 0.89235 0.3099 0.43644 0.0
C165 C 0.91797 0.27517 0.47932 0.0
C166 C 0.87965 0.32025 0.43684 0.0
O167 O 0.88375 0.30608 0.56165 0.0
Mg168 Mg 0.71015 0.12088 0.51707 0.0
O169 O 0.73274 0.13933 0.51765 0.0
O170 O 0.74786 0.13423 0.57221 0.0
Mg171 Mg 0.7355 0.11229 0.60572 0.0
C172 C 0.74528 0.14254 0.54044 0.0
C173 C 0.68808 0.13139 0.44837 0.0
O174 O 0.67737 0.12865 0.47746 0.0
O175 O 0.72745 0.09906 0.49828 0.0
O176 O 0.74118 0.09391 0.55483 0.0
O177 O 0.69501 0.13903 0.55329 0.0
O178 O 0.71113 0.11861 0.57802 0.0
C179 C 0.73801 0.09039 0.51875 0.0
C180 C 0.70135 0.13148 0.58387 0.0
O181 O 0.70383 0.12866 0.45418 0.0
Mg182 Mg 0.88313 0.69825 0.50229 0.0
O183 O 0.86426 0.71985 0.51427 0.0
O184 O 0.86652 0.7279 0.57728 0.0
Mg185 Mg 0.88765 0.7121 0.60542 0.0
C186 C 0.8597 0.72917 0.54324 0.0
C187 C 0.86162 0.69805 0.42692 0.0
O188 O 0.85014 0.69824 0.45507 0.0
O189 O 0.9046 0.71797 0.49946 0.0
O190 O 0.90706 0.72424 0.56368 0.0
O191 O 0.86437 0.67905 0.52425 0.0
O192 O 0.88334 0.69204 0.56179 0.0
C193 C 0.91189 0.72585 0.52789 0.0
C194 C 0.87055 0.68189 0.559 0.0
O195 O 0.87726 0.69921 0.43632 0.0
Mg196 Mg 0.29156 0.8791 0.50743 0.0
O197 O 0.26715 0.86304 0.50214 0.0
O198 O 0.2529 0.86628 0.55875 0.0
Mg199 Mg 0.26725 0.88445 0.59905 0.0
C200 C 0.25447 0.85971 0.52449 0.0
C201 C 0.31253 0.86952 0.43696 0.0
O202 O 0.32259 0.86799 0.46771 0.0
O203 O 0.27658 0.90371 0.4971 0.0
O204 O 0.26346 0.90616 0.55525 0.0
O205 O 0.30462 0.85699 0.53488 0.0
O206 O 0.29057 0.87648 0.56878 0.0
C207 C 0.26687 0.9118 0.52087 0.0
C208 C 0.29865 0.8622 0.56827 0.0
O209 O 0.29752 0.87515 0.4422 0.0
Mg210 Mg 0.10735 0.30611 0.49572 0.0
O211 O 0.1281 0.28708 0.5147 0.0
O212 O 0.12257 0.27817 0.57597 0.0
Mg213 Mg 0.09812 0.29102 0.59598 0.0
C214 C 0.1318 0.27817 0.54504 0.0
C215 C 0.13295 0.30847 0.42731 0.0
O216 O 0.14282 0.31012 0.45836 0.0
O217 O 0.08867 0.28425 0.48602 0.0
O218 O 0.08358 0.27622 0.54831 0.0
O219 O 0.12223 0.32708 0.52252 0.0
O220 O 0.1028 0.312 0.55444 0.0
C221 C 0.08123 0.27468 0.5112 0.0
C222 C 0.11468 0.3233 0.55531 0.0
O223 O 0.11715 0.30566 0.43243 0.0
H224 H 0.23357 0.55871 0.08173 0.0
H225 H 0.24432 0.53074 0.06528 0.0
H226 H 0.24377 0.54382 0.94161 0.0
H227 H 0.23205 0.57188 0.95796 0.0
H228 H 0.22914 0.51564 0.94954 0.0
H229 H 0.28218 0.53511 0.99586 0.0
H230 H 0.30288 0.54941 0.03939 0.0
H231 H 0.29116 0.51421 0.13238 0.0
H232 H 0.2702 0.49984 0.08966 0.0
H233 H 0.25386 0.43167 0.9136 0.0
H234 H 0.26128 0.4615 0.9234 0.0
H235 H 0.24063 0.45967 0.04104 0.0
H236 H 0.23285 0.42975 0.03148 0.0
H237 H 0.27175 0.48272 0.02618 0.0
H238 H 0.2137 0.46912 0.9798 0.0
H239 H 0.19409 0.45475 0.93366 0.0
H240 H 0.2181 0.47996 0.836 0.0
H241 H 0.23803 0.49427 0.88163 0.0
C242 C 0.23599 0.55583 0.05099 0.0
C243 C 0.23181 0.56752 0.02109 0.0
C244 C 0.24237 0.5398 0.04164 0.0
C245 C 0.24517 0.53517 0.00221 0.0
C246 C 0.24176 0.5471 0.97229 0.0
C247 C 0.23505 0.56312 0.98163 0.0
C248 C 0.24938 0.5172 0.99251 0.0
C249 C 0.23884 0.50865 0.96556 0.0
C250 C 0.2619 0.50786 0.01359 0.0
C251 C 0.27454 0.51642 0.03952 0.0
C252 C 0.28393 0.53047 0.02567 0.0
C253 C 0.29572 0.53859 0.05021 0.0
C254 C 0.29832 0.53273 0.08864 0.0
C255 C 0.28914 0.51873 0.10259 0.0
C256 C 0.27732 0.51056 0.07819 0.0
C257 C 0.25128 0.4374 0.94203 0.0
C258 C 0.24234 0.42842 0.97145 0.0
C259 C 0.25565 0.45445 0.94758 0.0
C260 C 0.25131 0.46274 0.98271 0.0
C261 C 0.24408 0.45339 0.01372 0.0
C262 C 0.23956 0.43633 0.00811 0.0
C263 C 0.25126 0.48152 0.98427 0.0
C264 C 0.26248 0.49004 0.00961 0.0
C265 C 0.2396 0.49096 0.96129 0.0
C266 C 0.22746 0.48258 0.93401 0.0
C267 C 0.21487 0.47148 0.94846 0.0
C268 C 0.20369 0.46336 0.92242 0.0
C269 C 0.20488 0.4664 0.88191 0.0
C270 C 0.21722 0.47759 0.86738 0.0
C271 C 0.22846 0.48571 0.8933 0.0
H272 H 0.19622 0.46011 0.86179 0.0
H273 H 0.30745 0.53904 0.10759 0.0
H274 H 0.42384 0.23269 0.95319 0.0
H275 H 0.45224 0.24331 0.9361 0.0
H276 H 0.46682 0.24101 0.05876 0.0
H277 H 0.4384 0.23147 0.07611 0.0
H278 H 0.48345 0.26547 0.02686 0.0
H279 H 0.47214 0.20634 0.9909 0.0
H280 H 0.45677 0.1835 0.95566 0.0
H281 H 0.46906 0.20682 0.84471 0.0
H282 H 0.48435 0.2299 0.8794 0.0
H283 H 0.56424 0.22505 0.03525 0.0
H284 H 0.53543 0.23667 0.03857 0.0
H285 H 0.5374 0.24872 0.91461 0.0
H286 H 0.56616 0.23729 0.91092 0.0
H287 H 0.51219 0.22592 0.93433 0.0
H288 H 0.53139 0.28036 0.97661 0.0
H289 H 0.54785 0.30081 0.01653 0.0
H290 H 0.52221 0.28383 0.12117 0.0
H291 H 0.50575 0.26308 0.082 0.0
C292 C 0.43303 0.23482 0.97651 0.0
C293 C 0.42901 0.23097 0.01587 0.0
C294 C 0.44924 0.24086 0.96675 0.0
C295 C 0.46182 0.24252 0.99602 0.0
C296 C 0.45739 0.23982 0.03559 0.0
C297 C 0.44111 0.23423 0.04546 0.0
C298 C 0.48003 0.24481 0.98568 0.0
C299 C 0.48976 0.25687 0.00654 0.0
C300 C 0.48825 0.23383 0.95855 0.0
C301 C 0.47917 0.21993 0.93771 0.0
C302 C 0.47147 0.20662 0.959 0.0
C303 C 0.46279 0.19365 0.93914 0.0
C304 C 0.46188 0.19374 0.89798 0.0
C305 C 0.46972 0.20679 0.87659 0.0
C306 C 0.4784 0.21982 0.89632 0.0
C307 C 0.55876 0.23063 0.00895 0.0
C308 C 0.56737 0.22987 0.97265 0.0
C309 C 0.54232 0.23737 0.01095 0.0
C310 C 0.5343 0.24348 0.97675 0.0
C311 C 0.54339 0.24405 0.94128 0.0
C312 C 0.55982 0.23742 0.93927 0.0
C313 C 0.51568 0.24614 0.97656 0.0
C314 C 0.50588 0.23493 0.95372 0.0
C315 C 0.50755 0.25759 0.00258 0.0
C316 C 0.51738 0.27009 0.02632 0.0
C317 C 0.52934 0.28088 0.00817 0.0
C318 C 0.53866 0.29255 0.03067 0.0
C319 C 0.53609 0.2936 0.07136 0.0
C320 C 0.52418 0.283 0.08964 0.0
C321 C 0.51483 0.2713 0.06728 0.0
H322 H 0.54332 0.30265 0.08873 0.0
H323 H 0.45515 0.18369 0.88265 0.0
H324 H 0.73194 0.42238 0.05793 0.0
H325 H 0.72221 0.45174 0.05001 0.0
H326 H 0.76059 0.45989 0.96089 0.0
H327 H 0.76988 0.43048 0.96758 0.0
H328 H 0.73924 0.47769 0.06944 0.0
H329 H 0.75287 0.49201 0.90256 0.0
H330 H 0.74807 0.4783 0.83809 0.0
H331 H 0.70724 0.44874 0.88718 0.0
H332 H 0.71162 0.46245 0.95182 0.0
H333 H 0.77632 0.55692 0.03444 0.0
H334 H 0.76589 0.52804 0.04534 0.0
H335 H 0.7224 0.53836 0.97118 0.0
H336 H 0.73329 0.56702 0.95874 0.0
H337 H 0.73593 0.51161 0.94644 0.0
H338 H 0.71844 0.52843 0.073 0.0
H339 H 0.71988 0.54227 0.13818 0.0
H340 H 0.76155 0.50987 0.17095 0.0
H341 H 0.76055 0.49599 0.10577 0.0
C342 C 0.73794 0.43031 0.03578 0.0
C343 C 0.75177 0.42418 0.01359 0.0
C344 C 0.7324 0.44709 0.03138 0.0
C345 C 0.74066 0.45809 0.00494 0.0
C346 C 0.75375 0.45163 0.98097 0.0
C347 C 0.75912 0.43477 0.98491 0.0
C348 C 0.73733 0.4767 0.00601 0.0
C349 C 0.73826 0.48511 0.04257 0.0
C350 C 0.73544 0.4864 0.97117 0.0
C351 C 0.73263 0.47823 0.93215 0.0
C352 C 0.74278 0.48268 0.89957 0.0
C353 C 0.74016 0.47488 0.86299 0.0
C354 C 0.72737 0.46264 0.85856 0.0
C355 C 0.71717 0.4582 0.89068 0.0
C356 C 0.71974 0.46596 0.92732 0.0
C357 C 0.76428 0.55319 0.02146 0.0
C358 C 0.75569 0.56411 0.99549 0.0
C359 C 0.75825 0.53667 0.0278 0.0
C360 C 0.7433 0.53096 0.00911 0.0
C361 C 0.73401 0.54239 0.98568 0.0
C362 C 0.74021 0.55878 0.9787 0.0
C363 C 0.73877 0.51259 0.0097 0.0
C364 C 0.73641 0.50422 0.97343 0.0
C365 C 0.73877 0.50295 0.04492 0.0
C366 C 0.73944 0.51119 0.08435 0.0
C367 C 0.72798 0.52431 0.094 0.0
C368 C 0.72871 0.53216 0.13098 0.0
C369 C 0.7408 0.52696 0.15868 0.0
C370 C 0.75218 0.51388 0.14947 0.0
C371 C 0.75151 0.50599 0.11253 0.0
H372 H 0.74135 0.53306 0.18728 0.0
H373 H 0.72537 0.45661 0.83022 0.0
H374 H 0.57722 0.77132 0.97109 0.0
H375 H 0.54817 0.76237 0.95464 0.0
H376 H 0.53334 0.76912 0.07627 0.0
H377 H 0.56233 0.77711 0.09307 0.0
H378 H 0.51745 0.74323 0.04946 0.0
H379 H 0.52731 0.80057 0.0014 0.0
H380 H 0.542 0.82258 0.96215 0.0
H381 H 0.53039 0.79525 0.85572 0.0
H382 H 0.51579 0.77297 0.89445 0.0
H383 H 0.43163 0.77351 0.03593 0.0
H384 H 0.46198 0.76815 0.04656 0.0
H385 H 0.46653 0.74904 0.92782 0.0
H386 H 0.43632 0.75412 0.9169 0.0
H387 H 0.48803 0.77666 0.94582 0.0
H388 H 0.47284 0.72215 0.99797 0.0
H389 H 0.45711 0.70213 0.04053 0.0
H390 H 0.47747 0.72659 0.14357 0.0
H391 H 0.49313 0.74693 0.10164 0.0
C392 C 0.56776 0.77072 0.99427 0.0
C393 C 0.57199 0.77504 0.03326 0.0
C394 C 0.55118 0.76564 0.98488 0.0
C395 C 0.53848 0.76536 0.01411 0.0
C396 C 0.54288 0.76917 0.05321 0.0
C397 C 0.55948 0.77384 0.06274 0.0
C398 C 0.52036 0.76227 0.0041 0.0
C399 C 0.51101 0.75058 0.02686 0.0
C400 C 0.51198 0.77161 0.97411 0.0
C401 C 0.52066 0.78502 0.95082 0.0
C402 C 0.52799 0.79921 0.96965 0.0
C403 C 0.53628 0.81173 0.9475 0.0
C404 C 0.53718 0.81028 0.90648 0.0
C405 C 0.52972 0.79634 0.88751 0.0
C406 C 0.52144 0.78376 0.90953 0.0
C407 C 0.439 0.76782 0.01236 0.0
C408 C 0.43158 0.76448 0.9754 0.0
C409 C 0.45631 0.7647 0.01854 0.0
C410 C 0.46642 0.75825 0.98788 0.0
C411 C 0.45888 0.75403 0.95177 0.0
C412 C 0.4416 0.75698 0.94566 0.0
C413 C 0.48512 0.75798 0.99183 0.0
C414 C 0.49455 0.76907 0.9679 0.0
C415 C 0.49344 0.74839 0.02128 0.0
C416 C 0.48407 0.73615 0.04662 0.0
C417 C 0.47385 0.72336 0.0297 0.0
C418 C 0.46497 0.71193 0.05372 0.0
C419 C 0.46627 0.71311 0.09472 0.0
C420 C 0.47648 0.7257 0.1118 0.0
C421 C 0.48538 0.73716 0.08791 0.0
H422 H 0.45938 0.70425 0.11327 0.0
H423 H 0.54361 0.81999 0.88938 0.0
H424 H 0.76127 0.06918 0.5529 0.0
H425 H 0.76589 0.03937 0.537 0.0
H426 H 0.73473 0.04466 0.43294 0.0
H427 H 0.7296 0.07453 0.44926 0.0
H428 H 0.72242 0.0211 0.47862 0.0
H429 H 0.77729 0.03304 0.42725 0.0
H430 H 0.80611 0.04545 0.42519 0.0
H431 H 0.82 0.01711 0.52856 0.0
H432 H 0.79118 0.00471 0.53161 0.0
H433 H 0.75198 0.93148 0.43161 0.0
H434 H 0.75944 0.9616 0.4347 0.0
H435 H 0.73037 0.96688 0.54186 0.0
H436 H 0.72258 0.93672 0.53876 0.0
H437 H 0.77403 0.98481 0.48526 0.0
H438 H 0.70528 0.00155 0.53087 0.0
H439 H 0.67648 0.98902 0.52755 0.0
H440 H 0.69071 0.96058 0.42452 0.0
H441 H 0.71948 0.97312 0.42691 0.0
C442 C 0.75575 0.06418 0.52599 0.0
C443 C 0.74471 0.07416 0.50286 0.0
C444 C 0.75854 0.0471 0.51677 0.0
C445 C 0.75055 0.03973 0.48395 0.0
C446 C 0.74092 0.05009 0.4586 0.0
C447 C 0.73804 0.06719 0.46791 0.0
C448 C 0.74988 0.02094 0.48015 0.0
C449 C 0.73376 0.01322 0.47969 0.0
C450 C 0.76463 0.0106 0.48147 0.0
C451 C 0.78201 0.01803 0.47979 0.0
C452 C 0.78644 0.02955 0.44974 0.0
C453 C 0.80279 0.03657 0.44835 0.0
C454 C 0.81487 0.03209 0.47676 0.0
C455 C 0.81063 0.02057 0.50657 0.0
C456 C 0.79429 0.01352 0.5081 0.0
C457 C 0.74743 0.93894 0.45634 0.0
C458 C 0.73637 0.93179 0.48451 0.0
C459 C 0.75182 0.95614 0.45813 0.0
C460 C 0.74518 0.96648 0.48802 0.0
C461 C 0.73542 0.95908 0.51822 0.0
C462 C 0.73102 0.94185 0.51648 0.0
C463 C 0.74663 0.98521 0.48477 0.0
C464 C 0.7628 0.99282 0.48394 0.0
C465 C 0.73195 0.99552 0.48148 0.0
C466 C 0.71457 0.98815 0.47934 0.0
C467 C 0.70222 0.99268 0.50742 0.0
C468 C 0.68591 0.98557 0.50571 0.0
C469 C 0.68179 0.97397 0.47592 0.0
C470 C 0.69394 0.96951 0.44766 0.0
C471 C 0.71025 0.97661 0.4492 0.0
H472 H 0.66916 0.96846 0.47468 0.0
H473 H 0.82752 0.03754 0.47564 0.0
H474 H 0.92279 0.7403 0.45836 0.0
H475 H 0.95056 0.7536 0.44602 0.0
H476 H 0.96424 0.74595 0.56811 0.0
H477 H 0.93644 0.73385 0.58096 0.0
H478 H 0.97939 0.77258 0.54563 0.0
H479 H 0.97273 0.71563 0.4894 0.0
H480 H 0.95961 0.69421 0.44556 0.0
H481 H 0.97131 0.72517 0.34475 0.0
H482 H 0.98435 0.74685 0.38812 0.0
H483 H 0.06068 0.73252 0.54598 0.0
H484 H 0.03208 0.74446 0.55221 0.0
H485 H 0.03647 0.76676 0.4365 0.0
H486 H 0.06508 0.75515 0.43014 0.0
H487 H 0.01184 0.74096 0.44389 0.0
H488 H 0.02751 0.7927 0.50679 0.0
H489 H 0.04217 0.81094 0.5553 0.0
H490 H 0.01531 0.78625 0.64959 0.0
H491 H 0.00067 0.76767 0.60173 0.0
C492 C 0.93164 0.74181 0.48262 0.0
C493 C 0.92754 0.73579 0.52045 0.0
C494 C 0.94751 0.74937 0.47558 0.0
C495 C 0.95971 0.75039 0.50591 0.0
C496 C 0.95513 0.74536 0.54414 0.0
C497 C 0.93919 0.73829 0.55139 0.0
C498 C 0.97782 0.75456 0.49771 0.0
C499 C 0.9865 0.76572 0.52329 0.0
C500 C 0.9871 0.74593 0.468 0.0
C501 C 0.97927 0.73294 0.44197 0.0
C502 C 0.9724 0.71789 0.45789 0.0
C503 C 0.965 0.70571 0.43315 0.0
C504 C 0.96457 0.70836 0.39241 0.0
C505 C 0.9716 0.72317 0.37632 0.0
C506 C 0.97899 0.73541 0.40095 0.0
C507 C 0.05586 0.74054 0.52253 0.0
C508 C 0.06496 0.74247 0.48713 0.0
C509 C 0.03952 0.74742 0.5262 0.0
C510 C 0.03215 0.75633 0.4946 0.0
C511 C 0.04195 0.75988 0.46112 0.0
C512 C 0.05827 0.75312 0.45753 0.0
C513 C 0.01347 0.75834 0.49292 0.0
C514 C 0.0047 0.74829 0.46541 0.0
C515 C 0.00428 0.76755 0.52162 0.0
C516 C 0.01303 0.77872 0.5506 0.0
C517 C 0.02481 0.79106 0.53789 0.0
C518 C 0.03311 0.80148 0.56528 0.0
C519 C 0.02969 0.79975 0.6055 0.0
C520 C 0.01794 0.78759 0.61842 0.0
C521 C 0.00961 0.77713 0.59115 0.0
H522 H 0.03612 0.80783 0.62666 0.0
H523 H 0.95883 0.69891 0.3733 0.0
H524 H 0.26899 0.07056 0.5466 0.0
H525 H 0.26547 0.03977 0.55347 0.0
H526 H 0.23097 0.03936 0.45451 0.0
H527 H 0.23403 0.0701 0.44799 0.0
H528 H 0.22244 0.01501 0.50616 0.0
H529 H 0.27282 0.03379 0.43888 0.0
H530 H 0.29942 0.05019 0.43136 0.0
H531 H 0.32077 0.02465 0.5318 0.0
H532 H 0.29418 0.00828 0.54026 0.0
H533 H 0.27487 0.93128 0.45601 0.0
H534 H 0.26813 0.96143 0.44598 0.0
H535 H 0.23897 0.96164 0.5538 0.0
H536 H 0.24511 0.93165 0.56333 0.0
H537 H 0.27826 0.98619 0.49088 0.0
H538 H 0.20971 0.9926 0.55491 0.0
H539 H 0.18282 0.97636 0.55559 0.0
H540 H 0.19718 0.95107 0.44836 0.0
H541 H 0.22403 0.96732 0.44671 0.0
C542 C 0.26021 0.06404 0.52712 0.0
C543 C 0.25211 0.07275 0.49614 0.0
C544 C 0.25829 0.04641 0.53095 0.0
C545 C 0.24836 0.03726 0.50374 0.0
C546 C 0.23884 0.04616 0.47555 0.0
C547 C 0.24067 0.06376 0.47181 0.0
C548 C 0.24955 0.01845 0.50132 0.0
C549 C 0.23462 0.00865 0.50304 0.0
C550 C 0.2654 0.01024 0.49566 0.0
C551 C 0.28147 0.01993 0.49041 0.0
C552 C 0.28316 0.03175 0.4595 0.0
C553 C 0.29823 0.04103 0.45506 0.0
C554 C 0.31176 0.03849 0.48114 0.0
C555 C 0.31027 0.02663 0.51166 0.0
C556 C 0.2952 0.01733 0.51628 0.0
C557 C 0.26666 0.93764 0.47701 0.0
C558 C 0.26068 0.92906 0.51065 0.0
C559 C 0.26288 0.95489 0.47135 0.0
C560 C 0.25302 0.9638 0.49911 0.0
C561 C 0.24636 0.95502 0.53161 0.0
C562 C 0.25002 0.93783 0.53715 0.0
C563 C 0.25117 0.98258 0.49665 0.0
C564 C 0.26602 0.99244 0.49398 0.0
C565 C 0.2352 0.9908 0.50042 0.0
C566 C 0.21896 0.9811 0.50088 0.0
C567 C 0.2071 0.98364 0.53136 0.0
C568 C 0.19187 0.97442 0.53194 0.0
C569 C 0.18832 0.96266 0.5021 0.0
C570 C 0.19997 0.96014 0.47154 0.0
C571 C 0.21521 0.96934 0.4708 0.0
H572 H 0.17652 0.95552 0.50262 0.0
H573 H 0.32342 0.04569 0.47766 0.0
H574 H 0.07218 0.24415 0.54313 0.0
H575 H 0.04504 0.22942 0.5337 0.0
H576 H 0.03136 0.2661 0.44416 0.0
H577 H 0.0588 0.27993 0.45166 0.0
H578 H 0.01788 0.24095 0.55431 0.0
H579 H -0.00021 0.25716 0.38906 0.0
H580 H 0.01261 0.25361 0.32329 0.0
H581 H 0.04534 0.21435 0.36803 0.0
H582 H 0.03255 0.21743 0.43398 0.0
H583 H 0.942 0.28203 0.5347 0.0
H584 H 0.96955 0.26832 0.54121 0.0
H585 H 0.95444 0.23001 0.45655 0.0
H586 H 0.92713 0.24451 0.44813 0.0
H587 H 0.982 0.24048 0.43416 0.0
H588 H 0.96656 0.21986 0.55694 0.0
H589 H 0.95366 0.21868 0.62312 0.0
H590 H 0.98782 0.25772 0.66339 0.0
H591 H 0.00076 0.25936 0.59735 0.0
C592 C 0.06362 0.24855 0.52025 0.0
C593 C 0.06748 0.26321 0.49825 0.0
C594 C 0.04807 0.24018 0.51501 0.0
C595 C 0.03598 0.2466 0.48835 0.0
C596 C 0.04048 0.2605 0.46424 0.0
C597 C 0.05621 0.26854 0.4687 0.0
C598 C 0.01785 0.24114 0.49064 0.0
C599 C 0.01007 0.24052 0.52797 0.0
C600 C 0.00759 0.23955 0.45653 0.0
C601 C 0.01518 0.23754 0.41662 0.0
C602 C 0.0096 0.24764 0.38487 0.0
C603 C 0.0169 0.24575 0.34753 0.0
C604 C 0.02979 0.23377 0.34149 0.0
C605 C 0.03538 0.22364 0.37276 0.0
C606 C 0.02812 0.22548 0.41016 0.0
C607 C 0.94435 0.27039 0.5184 0.0
C608 C 0.93253 0.26442 0.49066 0.0
C609 C 0.96012 0.26242 0.52233 0.0
C610 C 0.96417 0.24798 0.49954 0.0
C611 C 0.95173 0.24117 0.47427 0.0
C612 C 0.93611 0.24942 0.46958 0.0
C613 C 0.9821 0.24194 0.49771 0.0
C614 C 0.98982 0.24028 0.46049 0.0
C615 C 0.9923 0.2406 0.53196 0.0
C616 C 0.98466 0.23971 0.57203 0.0
C617 C 0.97128 0.22826 0.57983 0.0
C618 C 0.96396 0.22751 0.61735 0.0
C619 C 0.96992 0.23811 0.64744 0.0
C620 C 0.98324 0.24948 0.64008 0.0
C621 C 0.99061 0.25029 0.6026 0.0
H622 H 0.96423 0.23752 0.67647 0.0
H623 H 0.03543 0.23234 0.31257 0.0
H624 H 0.27068 0.35495 0.92489 0.0
H625 H 0.2902 0.3317 0.94021 0.0
H626 H 0.25197 0.30859 0.01444 0.0
H627 H 0.23273 0.33236 0.00084 0.0
H628 H 0.28024 0.30511 0.0484 0.0
H629 H 0.26149 0.29365 0.91813 0.0
H630 H 0.25523 0.29945 0.84815 0.0
H631 H 0.30826 0.30876 0.82619 0.0
H632 H 0.31481 0.30324 0.89618 0.0
H633 H 0.33486 0.2259 0.98303 0.0
H634 H 0.31229 0.24654 0.96972 0.0
H635 H 0.33469 0.28119 0.05403 0.0
H636 H 0.35676 0.26029 0.06876 0.0
H637 H 0.3114 0.27607 0.94037 0.0
H638 H 0.30577 0.30557 0.09796 0.0
H639 H 0.30851 0.29638 0.16723 0.0
H640 H 0.29779 0.24475 0.13346 0.0
H641 H 0.29475 0.25365 0.0641 0.0
C642 C 0.26647 0.34492 0.94455 0.0
C643 C 0.25019 0.34539 0.96154 0.0
C644 C 0.27759 0.33157 0.95309 0.0
C645 C 0.27243 0.31815 0.97776 0.0
C646 C 0.25623 0.31876 0.99524 0.0
C647 C 0.24525 0.33232 0.98744 0.0
C648 C 0.28402 0.30361 0.98554 0.0
C649 C 0.287 0.29872 0.02475 0.0
C650 C 0.29247 0.29487 0.95467 0.0
C651 C 0.28862 0.29816 0.91249 0.0
C652 C 0.2718 0.29704 0.89843 0.0
C653 C 0.26821 0.30027 0.85876 0.0
C654 C 0.28133 0.3045 0.83276 0.0
C655 C 0.2981 0.30549 0.84637 0.0
C656 C 0.30176 0.30229 0.88603 0.0
C657 C 0.33493 0.23792 -0.00126 0.0
C658 C 0.34748 0.24145 0.02713 0.0
C659 C 0.32204 0.2497 0.99111 0.0
C660 C 0.32159 0.26531 0.01135 0.0
C661 C 0.33445 0.26905 0.03885 0.0
C662 C 0.34713 0.25714 0.04707 0.0
C663 C 0.3079 0.27784 0.00327 0.0
C664 C 0.30454 0.28236 0.964 0.0
C665 C 0.29855 0.28571 0.03399 0.0
C666 C 0.30019 0.28027 0.07576 0.0
C667 C 0.30392 0.29227 0.10534 0.0
C668 C 0.30554 0.28711 0.14462 0.0
C669 C 0.30338 0.26999 0.15472 0.0
C670 C 0.29953 0.258 0.12558 0.0
C671 C 0.29787 0.26309 0.08627 0.0
H672 H 0.30465 0.26602 0.18514 0.0
H673 H 0.27852 0.307 0.80205 0.0
H674 H 0.73308 0.33842 0.07958 0.0
H675 H 0.71431 0.31505 0.06089 0.0
H676 H 0.73424 0.31631 0.94246 0.0
H677 H 0.7532 0.33984 0.96085 0.0
H678 H 0.69835 0.31435 0.94647 0.0
H679 H 0.74697 0.28554 -0.00023 0.0
H680 H 0.76927 0.27985 0.04922 0.0
H681 H 0.73103 0.26767 0.13519 0.0
H682 H 0.70849 0.27354 0.08641 0.0
H683 H 0.65393 0.23821 0.89755 0.0
H684 H 0.67631 0.25949 0.90603 0.0
H685 H 0.66861 0.25827 0.03204 0.0
H686 H 0.64689 0.23636 0.0239 0.0
H687 H 0.70077 0.25926 0.01795 0.0
H688 H 0.65234 0.29078 0.96954 0.0
H689 H 0.62926 0.29753 0.92275 0.0
H690 H 0.66597 0.30563 0.83084 0.0
H691 H 0.68926 0.29871 0.877 0.0
C692 C 0.73351 0.33379 0.0495 0.0
C693 C 0.7447 0.34099 0.02173 0.0
C694 C 0.72281 0.32037 0.03895 0.0
C695 C 0.72305 0.31387 0.00045 0.0
C696 C 0.73395 0.32115 0.97238 0.0
C697 C 0.74479 0.33454 0.98299 0.0
C698 C 0.71175 0.2995 0.98984 0.0
C699 C 0.69903 0.30217 0.9615 0.0
C700 C 0.71249 0.2838 0.01017 0.0
C701 C 0.72604 0.2801 0.03948 0.0
C702 C 0.74331 0.28176 0.0293 0.0
C703 C 0.756 0.27849 0.0572 0.0
C704 C 0.75157 0.27343 0.09534 0.0
C705 C 0.73445 0.27159 0.10563 0.0
C706 C 0.72171 0.27487 0.07785 0.0
C707 C 0.65708 0.24239 0.92706 0.0
C708 C 0.64864 0.23555 0.96001 0.0
C709 C 0.6698 0.25466 0.93186 0.0
C710 C 0.67399 0.26069 0.96964 0.0
C711 C 0.66563 0.25381 0.00258 0.0
C712 C 0.65316 0.24131 0.99786 0.0
C713 C 0.68702 0.27419 0.97518 0.0
C714 C 0.70013 0.27135 0.00254 0.0
C715 C 0.68649 0.28981 0.9543 0.0
C716 C 0.67251 0.29405 0.92659 0.0
C717 C 0.65547 0.29388 0.93928 0.0
C718 C 0.64236 0.29776 0.91289 0.0
C719 C 0.64614 0.30196 0.87382 0.0
C720 C 0.66306 0.30234 0.8611 0.0
C721 C 0.67622 0.29846 0.88736 0.0
H722 H 0.63598 0.30495 0.85343 0.0
H723 H 0.76141 0.2709 0.11691 0.0
H724 H 0.76137 0.65925 0.01012 0.0
H725 H 0.74019 0.68082 0.02729 0.0
H726 H 0.70199 0.6529 0.96224 0.0
H727 H 0.72333 0.63187 0.94327 0.0
H728 H 0.69828 0.68377 0.94619 0.0
H729 H 0.70437 0.65374 0.06746 0.0
H730 H 0.71956 0.64096 0.12377 0.0
H731 H 0.73823 0.69026 0.15771 0.0
H732 H 0.72332 0.70332 0.10128 0.0
H733 H 0.63999 0.73432 0.09369 0.0
H734 H 0.65844 0.71003 0.07911 0.0
H735 H 0.68226 0.73864 0.98546 0.0
H736 H 0.66345 0.76263 -0.00122 0.0
H737 H 0.69076 0.7053 0.08263 0.0
H738 H 0.69505 0.71371 0.91228 0.0
H739 H 0.677 0.72374 0.85747 0.0
H740 H 0.63211 0.71222 0.9246 0.0
H741 H 0.64987 0.70192 0.97958 0.0
C742 C 0.74843 0.65773 -0.00039 0.0
C743 C 0.74398 0.64394 0.97532 0.0
C744 C 0.7363 0.66999 0.00964 0.0
C745 C 0.71939 0.66838 0.99658 0.0
C746 C 0.71494 0.65448 0.97261 0.0
C747 C 0.72714 0.64246 0.96181 0.0
C748 C 0.70644 0.68144 0.00668 0.0
C749 C 0.69662 0.6884 0.97609 0.0
C750 C 0.70394 0.68727 0.04579 0.0
C751 C 0.71284 0.67949 0.07993 0.0
C752 C 0.7118 0.66184 0.08679 0.0
C753 C 0.72035 0.65455 0.11875 0.0
C754 C 0.72989 0.66479 0.14425 0.0
C755 C 0.73085 0.68235 0.13791 0.0
C756 C 0.72233 0.68971 0.10597 0.0
C757 C 0.64909 0.73537 0.06982 0.0
C758 C 0.65016 0.75032 0.04712 0.0
C759 C 0.65966 0.72151 0.06161 0.0
C760 C 0.67157 0.72241 0.03083 0.0
C761 C 0.67288 0.73747 0.0087 0.0
C762 C 0.66214 0.7512 0.01643 0.0
C763 C 0.68282 0.70772 0.02205 0.0
C764 C 0.69236 0.70053 0.05283 0.0
C765 C 0.68461 0.70121 0.98335 0.0
C766 C 0.67381 0.70718 0.95018 0.0
C767 C 0.68133 0.71325 0.91527 0.0
C768 C 0.67115 0.71899 0.88419 0.0
C769 C 0.65342 0.71866 0.88759 0.0
C770 C 0.64584 0.71253 0.92204 0.0
C771 C 0.65596 0.70675 0.9532 0.0
H772 H 0.64556 0.72314 0.86351 0.0
H773 H 0.7365 0.65911 0.16897 0.0
H774 H 0.24285 0.648 0.9805 0.0
H775 H 0.26646 0.66788 0.97064 0.0
H776 H 0.27425 0.67065 0.09635 0.0
H777 H 0.25076 0.65065 0.10662 0.0
H778 H 0.27452 0.70295 0.05635 0.0
H779 H 0.30036 0.64755 0.04902 0.0
H780 H 0.30321 0.61802 0.02514 0.0
H781 H 0.30986 0.63621 0.90674 0.0
H782 H 0.3068 0.66586 0.92985 0.0
H783 H 0.35258 0.74782 0.03861 0.0
H784 H 0.33163 0.72637 0.05826 0.0
H785 H 0.32553 0.71141 0.93657 0.0
H786 H 0.34683 0.73228 0.91693 0.0
H787 H 0.3253 0.68442 0.98062 0.0
H788 H 0.2971 0.73898 0.98468 0.0
H789 H 0.29367 0.76886 0.00582 0.0
H790 H 0.29054 0.75287 0.12667 0.0
H791 H 0.29415 0.72288 0.10626 0.0
C792 C 0.24953 0.65288 0.00608 0.0
C793 C 0.245 0.64767 0.04433 0.0
C794 C 0.26302 0.66419 0.00037 0.0
C795 C 0.27211 0.67059 0.03279 0.0
C796 C 0.26737 0.66579 0.07103 0.0
C797 C 0.25401 0.65432 0.07677 0.0
C798 C 0.28677 0.68206 0.02656 0.0
C799 C 0.28576 0.69887 0.04034 0.0
C800 C 0.30123 0.67674 0.00507 0.0
C801 C 0.3032 0.65892 0.99113 0.0
C802 C 0.30229 0.64525 0.01785 0.0
C803 C 0.30397 0.62849 0.00446 0.0
C804 C 0.30667 0.62523 0.96443 0.0
C805 C 0.30775 0.63875 0.93773 0.0
C806 C 0.30606 0.65553 0.95096 0.0
C807 C 0.34687 0.73985 0.01611 0.0
C808 C 0.3513 0.74182 0.97619 0.0
C809 C 0.33485 0.72766 0.02735 0.0
C810 C 0.32678 0.7175 -0.00121 0.0
C811 C 0.33157 0.71911 0.95912 0.0
C812 C 0.34375 0.73109 0.94794 0.0
C813 C 0.31299 0.7055 0.00972 0.0
C814 C 0.31415 0.68853 0.99691 0.0
C815 C 0.29857 0.71075 0.03168 0.0
C816 C 0.29607 0.72872 0.04398 0.0
C817 C 0.29577 0.74185 0.01578 0.0
C818 C 0.29378 0.75879 0.02762 0.0
C819 C 0.29194 0.76276 0.06757 0.0
C820 C 0.292 0.74977 0.09575 0.0
C821 C 0.29399 0.7328 0.08406 0.0
H822 H 0.29045 0.77589 0.07665 0.0
H823 H 0.30797 0.61225 0.95413 0.0
H824 H 0.84085 0.74586 0.59896 0.0
H825 H 0.81995 0.7685 0.58817 0.0
H826 H 0.82794 0.7649 0.46263 0.0
H827 H 0.84871 0.74214 0.473 0.0
H828 H 0.82992 0.79845 0.49325 0.0
H829 H 0.79309 0.74959 0.49697 0.0
H830 H 0.78042 0.72344 0.52454 0.0
H831 H 0.7634 0.75134 0.62603 0.0
H832 H 0.7762 0.77764 0.59934 0.0
H833 H 0.76166 0.84769 0.42085 0.0
H834 H 0.78223 0.82542 0.4358 0.0
H835 H 0.76712 0.82646 0.55808 0.0
H836 H 0.74617 0.84857 0.54328 0.0
H837 H 0.76914 0.79456 0.53199 0.0
H838 H 0.80516 0.84359 0.52827 0.0
H839 H 0.81732 0.86998 0.50067 0.0
H840 H 0.83603 0.84215 0.40066 0.0
H841 H 0.82377 0.81561 0.4274 0.0
C842 C 0.83811 0.74983 0.56904 0.0
C843 C 0.84647 0.74226 0.53683 0.0
C844 C 0.82613 0.76271 0.56295 0.0
C845 C 0.82245 0.76831 0.52463 0.0
C846 C 0.83067 0.76072 0.49242 0.0
C847 C 0.84246 0.74769 0.49842 0.0
C848 C 0.8104 0.78248 0.51817 0.0
C849 C 0.81657 0.79757 0.50128 0.0
C850 C 0.79316 0.78142 0.52982 0.0
C851 C 0.78577 0.76555 0.54634 0.0
C852 C 0.78683 0.75011 0.52539 0.0
C853 C 0.77958 0.73527 0.5408 0.0
C854 C 0.77111 0.73573 0.577 0.0
C855 C 0.76996 0.75101 0.59798 0.0
C856 C 0.77721 0.76589 0.58272 0.0
C857 C 0.76278 0.84333 0.45104 0.0
C858 C 0.75227 0.84997 0.4809 0.0
C859 C 0.77461 0.83061 0.45954 0.0
C860 C 0.77635 0.82441 0.49814 0.0
C861 C 0.76599 0.83108 0.5281 0.0
C862 C 0.75407 0.84376 0.51959 0.0
C863 C 0.7886 0.81057 0.50681 0.0
C864 C 0.7825 0.79553 0.52417 0.0
C865 C 0.80595 0.81171 0.49581 0.0
C866 C 0.81341 0.82764 0.4797 0.0
C867 C 0.81175 0.84312 0.50025 0.0
C868 C 0.81868 0.8581 0.48478 0.0
C869 C 0.82741 0.85775 0.44889 0.0
C870 C 0.82925 0.8424 0.42844 0.0
C871 C 0.82233 0.82738 0.44377 0.0
H872 H 0.83276 0.86936 0.43696 0.0
H873 H 0.76538 0.72426 0.58873 0.0
H874 H 0.2518 0.84359 0.45268 0.0
H875 H 0.23223 0.82044 0.435 0.0
H876 H 0.20937 0.82327 0.55039 0.0
H877 H 0.22863 0.84631 0.56828 0.0
H878 H 0.21933 0.79023 0.52792 0.0
H879 H 0.18855 0.83882 0.47508 0.0
H880 H 0.1854 0.86414 0.43268 0.0
H881 H 0.19476 0.83355 0.32995 0.0
H882 H 0.1982 0.80808 0.37184 0.0
H883 H 0.14348 0.74322 0.5218 0.0
H884 H 0.16617 0.76423 0.52836 0.0
H885 H 0.175 0.76214 0.40277 0.0
H886 H 0.15162 0.74178 0.39586 0.0
H887 H 0.17514 0.79324 0.4237 0.0
H888 H 0.20328 0.74411 0.47386 0.0
H889 H 0.20759 0.71849 0.51474 0.0
H890 H 0.20504 0.74896 0.61974 0.0
H891 H 0.20047 0.77474 0.57957 0.0
C892 C 0.24249 0.8394 0.47414 0.0
C893 C 0.24183 0.84679 0.51194 0.0
C894 C 0.23134 0.82619 0.46397 0.0
C895 C 0.21945 0.82015 0.4915 0.0
C896 C 0.21854 0.82771 0.52885 0.0
C897 C 0.22953 0.84096 0.53891 0.0
C898 C 0.20817 0.80561 0.48225 0.0
C899 C 0.20958 0.79086 0.50531 0.0
C900 C 0.19595 0.80629 0.45175 0.0
C901 C 0.19383 0.8216 0.42662 0.0
C902 C 0.19009 0.83753 0.44348 0.0
C903 C 0.18822 0.8519 0.41954 0.0
C904 C 0.18993 0.85047 0.37866 0.0
C905 C 0.19347 0.83465 0.36163 0.0
C906 C 0.19537 0.82024 0.38545 0.0
C907 C 0.15037 0.74711 0.49564 0.0
C908 C 0.1458 0.74083 0.45832 0.0
C909 C 0.16343 0.75906 0.49943 0.0
C910 C 0.17255 0.76458 0.46614 0.0
C911 C 0.16819 0.75808 0.4289 0.0
C912 C 0.15486 0.7464 0.42499 0.0
C913 C 0.18595 0.77784 0.47009 0.0
C914 C 0.18501 0.79238 0.44598 0.0
C915 C 0.19878 0.77687 0.49936 0.0
C916 C 0.20144 0.76135 0.52366 0.0
C917 C 0.20351 0.74534 0.50567 0.0
C918 C 0.20602 0.73079 0.52873 0.0
C919 C 0.20658 0.73211 0.5698 0.0
C920 C 0.20461 0.74797 0.58792 0.0
C921 C 0.20208 0.76255 0.56502 0.0
H922 H 0.2086 0.72087 0.58759 0.0
H923 H 0.18848 0.86161 0.36017 0.0
H924 H 0.21602 0.14844 0.46173 0.0
H925 H 0.19865 0.17316 0.47844 0.0
H926 H 0.24096 0.19515 0.54187 0.0
H927 H 0.2582 0.17003 0.52664 0.0
H928 H 0.21331 0.20235 0.57924 0.0
H929 H 0.23102 0.20781 0.44621 0.0
H930 H 0.2357 0.19901 0.37724 0.0
H931 H 0.18178 0.19361 0.36052 0.0
H932 H 0.17678 0.20216 0.42957 0.0
H933 H 0.15948 0.28041 0.49633 0.0
H934 H 0.18325 0.26044 0.49139 0.0
H935 H 0.16125 0.22999 0.58437 0.0
H936 H 0.13804 0.25031 0.59074 0.0
H937 H 0.18315 0.23034 0.46828 0.0
H938 H 0.18837 0.20558 0.63001 0.0
H939 H 0.1876 0.21697 0.69781 0.0
H940 H 0.2025 0.26625 0.6552 0.0
H941 H 0.20321 0.25522 0.58706 0.0
C942 C 0.22156 0.15845 0.47961 0.0
C943 C 0.23851 0.15738 0.49259 0.0
C944 C 0.21166 0.17263 0.48896 0.0
C945 C 0.21864 0.18624 0.5105 0.0
C946 C 0.23532 0.18486 0.525 0.0
C947 C 0.24516 0.1705 0.51629 0.0
C948 C 0.20865 0.20208 0.51664 0.0
C949 C 0.20675 0.20852 0.555 0.0
C950 C 0.20063 0.21056 0.48483 0.0
C951 C 0.20354 0.20552 0.44316 0.0
C952 C 0.22016 0.20465 0.42789 0.0
C953 C 0.22287 0.19971 0.38878 0.0
C954 C 0.20905 0.19572 0.36454 0.0
C955 C 0.19248 0.1967 0.37934 0.0
C956 C 0.1897 0.20161 0.41845 0.0
C957 C 0.15988 0.26959 0.51611 0.0
C958 C 0.14684 0.26688 0.54377 0.0
C959 C 0.17347 0.25818 0.51328 0.0
C960 C 0.17418 0.24372 0.53769 0.0
C961 C 0.16132 0.24123 0.56587 0.0
C962 C 0.14792 0.2528 0.56924 0.0
C963 C 0.18733 0.2304 0.53116 0.0
C964 C 0.18983 0.22436 0.4926 0.0
C965 C 0.19643 0.22276 0.56261 0.0
C966 C 0.19573 0.22958 0.6034 0.0
C967 C 0.19147 0.21885 0.63509 0.0
C968 C 0.19098 0.22527 0.67355 0.0
C969 C 0.19488 0.24236 0.68074 0.0
C970 C 0.19929 0.25307 0.64948 0.0
C971 C 0.19967 0.24676 0.61092 0.0
H972 H 0.19456 0.24728 0.71055 0.0
H973 H 0.21117 0.19189 0.33427 0.0
H974 H 0.85395 0.26383 0.52914 0.0
H975 H 0.83227 0.242 0.54057 0.0
H976 H 0.82493 0.2367 0.41513 0.0
H977 H 0.84677 0.25839 0.40329 0.0
H978 H 0.79399 0.23753 0.46195 0.0
H979 H 0.84801 0.20873 0.45446 0.0
H980 H 0.87808 0.20398 0.47211 0.0
H981 H 0.86385 0.19554 0.59278 0.0
H982 H 0.8337 0.2005 0.57594 0.0
H983 H 0.74915 0.15847 0.46908 0.0
H984 H 0.76878 0.18163 0.45283 0.0
H985 H 0.7871 0.18189 0.57286 0.0
H986 H 0.768 0.15844 0.58891 0.0
H987 H 0.81267 0.18379 0.52559 0.0
H988 H 0.75854 0.21191 0.53399 0.0
H989 H 0.72853 0.21777 0.51773 0.0
H990 H 0.74251 0.22899 0.39811 0.0
H991 H 0.7725 0.22264 0.4133 0.0
C992 C 0.84761 0.25816 0.50397 0.0
C993 C 0.85216 0.26272 0.4653 0.0
C994 C 0.83527 0.24568 0.51057 0.0
C995 C 0.82716 0.2377 0.47865 0.0
C996 C 0.83111 0.24272 0.44007 0.0
C997 C 0.84363 0.25504 0.43341 0.0
C998 C 0.81516 0.22354 0.48564 0.0
C999 C 0.79802 0.22566 0.4754 0.0
C1000 C 0.82051 0.20828 0.50387 0.0
C1001 C 0.83862 0.20516 0.51401 0.0
C1002 C 0.85131 0.206 0.48482 0.0
C1003 C 0.86836 0.20325 0.49467 0.0
C1004 C 0.87288 0.1995 0.53357 0.0
C1005 C 0.86034 0.19846 0.56268 0.0
C1006 C 0.84326 0.20123 0.55299 0.0
C1007 C 0.75736 0.16348 0.492 0.0
C1008 C 0.75703 0.1566 0.53028 0.0
C1009 C 0.76851 0.17678 0.48272 0.0
C1010 C 0.77928 0.18366 0.51175 0.0
C1011 C 0.77894 0.17679 0.54994 0.0
C1012 C 0.76799 0.16337 0.55909 0.0
C1013 C 0.79123 0.19774 0.50242 0.0
C1014 C 0.80848 0.19561 0.51211 0.0
C1015 C 0.7859 0.21303 0.48394 0.0
C1016 C 0.76776 0.21656 0.47468 0.0
C1017 C 0.75519 0.21538 0.50408 0.0
C1018 C 0.73816 0.21879 0.49504 0.0
C1019 C 0.73357 0.22362 0.45684 0.0
C1020 C 0.74602 0.22509 0.42761 0.0
C1021 C 0.76304 0.22156 0.4364 0.0
H1022 H 0.72039 0.2263 0.44992 0.0
H1023 H 0.8861 0.19737 0.54113 0.0
H1024 H 0.11515 0.31312 0.35874 0.0
H1025 H 0.1263 0.32289 0.29546 0.0
H1026 H 0.17733 0.32196 0.34256 0.0
H1027 H 0.16622 0.31259 0.40624 0.0
H1028 H 0.17192 0.35099 0.30676 0.0
H1029 H 0.16369 0.29263 0.27278 0.0
H1030 H 0.14823 0.2654 0.26686 0.0
H1031 H 0.11125 0.2891 0.19151 0.0
H1032 H 0.12636 0.31654 0.19741 0.0
H1033 H 0.20902 0.36797 0.11661 0.0
H1034 H 0.20145 0.35497 0.17996 0.0
H1035 H 0.14826 0.35776 0.14915 0.0
H1036 H 0.15564 0.37065 0.08604 0.0
H1037 H 0.15715 0.32624 0.17655 0.0
H1038 H 0.16486 0.38504 0.21501 0.0
H1039 H 0.18073 0.41204 0.22117 0.0
H1040 H 0.21957 0.3867 0.28815 0.0
H1041 H 0.20403 0.35949 0.28193 0.0
C1042 C 0.12877 0.31474 0.35547 0.0
C1043 C 0.13979 0.31215 0.38757 0.0
C1044 C 0.13515 0.32028 0.3192 0.0
C1045 C 0.15268 0.32308 0.31414 0.0
C1046 C 0.16375 0.31994 0.34579 0.0
C1047 C 0.15738 0.31452 0.38214 0.0
C1048 C 0.1593 0.33031 0.27669 0.0
C1049 C 0.16896 0.34538 0.27832 0.0
C1050 C 0.15521 0.32319 0.23952 0.0
C1051 C 0.14609 0.30668 0.23581 0.0
C1052 C 0.15219 0.29207 0.25519 0.0
C1053 C 0.1435 0.27659 0.25179 0.0
C1054 C 0.12874 0.27553 0.2289 0.0
C1055 C 0.12267 0.28994 0.20926 0.0
C1056 C 0.13131 0.30546 0.21258 0.0
C1057 C 0.19571 0.36597 0.12352 0.0
C1058 C 0.18293 0.37033 0.09625 0.0
C1059 C 0.19141 0.35854 0.1597 0.0
C1060 C 0.17429 0.35539 0.16919 0.0
C1061 C 0.16154 0.35999 0.1423 0.0
C1062 C 0.1658 0.36745 0.1063 0.0
C1063 C 0.16953 0.34698 0.20674 0.0
C1064 C 0.16024 0.33171 0.20507 0.0
C1065 C 0.17405 0.35385 0.24385 0.0
C1066 C 0.18339 0.3702 0.24761 0.0
C1067 C 0.17686 0.3852 0.23075 0.0
C1068 C 0.18578 0.40055 0.23432 0.0
C1069 C 0.20117 0.40108 0.25493 0.0
C1070 C 0.20766 0.38626 0.27212 0.0
C1071 C 0.1988 0.37088 0.26861 0.0
H1072 H 0.20806 0.41297 0.25767 0.0
H1073 H 0.12203 0.26353 0.22631 0.0
H1074 H 0.70668 0.13972 0.38272 0.0
H1075 H 0.69628 0.15291 0.32193 0.0
H1076 H 0.64519 0.1529 0.36854 0.0
H1077 H 0.65539 0.13949 0.42896 0.0
H1078 H 0.64541 0.14275 0.29338 0.0
H1079 H 0.66894 0.18936 0.36719 0.0
H1080 H 0.69122 0.20442 0.40483 0.0
H1081 H 0.72407 0.2035 0.3037 0.0
H1082 H 0.70207 0.18822 0.26559 0.0
H1083 H 0.61155 0.19426 0.14178 0.0
H1084 H 0.62013 0.18591 0.20846 0.0
H1085 H 0.6727 0.185 0.1717 0.0
H1086 H 0.66432 0.19372 0.10559 0.0
H1087 H 0.67036 0.1969 0.24466 0.0
H1088 H 0.64808 0.14855 0.1728 0.0
H1089 H 0.62637 0.13275 0.13496 0.0
H1090 H 0.59165 0.13646 0.23235 0.0
H1091 H 0.6131 0.15248 0.27059 0.0
C1092 C 0.69323 0.14246 0.37994 0.0
C1093 C 0.68188 0.13861 0.41073 0.0
C1094 C 0.68731 0.15008 0.34529 0.0
C1095 C 0.66999 0.15412 0.34097 0.0
C1096 C 0.65861 0.14995 0.3713 0.0
C1097 C 0.66449 0.1423 0.40586 0.0
C1098 C 0.66368 0.16264 0.30477 0.0
C1099 C 0.65068 0.15473 0.28307 0.0
C1100 C 0.67075 0.17812 0.29098 0.0
C1101 C 0.68391 0.18752 0.31365 0.0
C1102 C 0.68095 0.19228 0.35305 0.0
C1103 C 0.69352 0.20086 0.37446 0.0
C1104 C 0.70905 0.20487 0.35667 0.0
C1105 C 0.71203 0.20036 0.31742 0.0
C1106 C 0.69951 0.19176 0.29589 0.0
C1107 C 0.62496 0.19259 0.14812 0.0
C1108 C 0.63723 0.19442 0.11824 0.0
C1109 C 0.62983 0.18773 0.18617 0.0
C1110 C 0.64702 0.18446 0.19481 0.0
C1111 C 0.65936 0.18735 0.16568 0.0
C1112 C 0.65452 0.19229 0.1278 0.0
C1113 C 0.65218 0.17694 0.23313 0.0
C1114 C 0.66498 0.18501 0.25521 0.0
C1115 C 0.64497 0.16156 0.24724 0.0
C1116 C 0.63211 0.15187 0.22436 0.0
C1117 C 0.63577 0.1461 0.18602 0.0
C1118 C 0.62352 0.13709 0.16453 0.0
C1119 C 0.60762 0.13365 0.1812 0.0
C1120 C 0.60396 0.13916 0.21945 0.0
C1121 C 0.61615 0.1482 0.24105 0.0
H1122 H 0.59816 0.12668 0.16451 0.0
H1123 H 0.71876 0.21148 0.37329 0.0
H1124 H 0.88209 0.68984 0.36417 0.0
H1125 H 0.87308 0.67833 0.30043 0.0
H1126 H 0.82048 0.68466 0.33385 0.0
H1127 H 0.82935 0.69592 0.39772 0.0
H1128 H 0.82604 0.65327 0.3076 0.0
H1129 H 0.83887 0.70967 0.26251 0.0
H1130 H 0.85644 0.73543 0.25363 0.0
H1131 H 0.89389 0.70617 0.19112 0.0
H1132 H 0.87665 0.68018 0.2001 0.0
H1133 H 0.79084 0.63121 0.12045 0.0
H1134 H 0.79886 0.6459 0.18139 0.0
H1135 H 0.85193 0.64037 0.15142 0.0
H1136 H 0.84405 0.62596 0.09028 0.0
H1137 H 0.84547 0.67207 0.17546 0.0
H1138 H 0.83333 0.61562 0.22273 0.0
H1139 H 0.816 0.58971 0.23189 0.0
H1140 H 0.77749 0.61904 0.29065 0.0
H1141 H 0.7945 0.64518 0.28138 0.0
C1142 C 0.86861 0.68909 0.35767 0.0
C1143 C 0.85644 0.6937 0.38614 0.0
C1144 C 0.86347 0.68252 0.32117 0.0
C1145 C 0.84609 0.68062 0.31235 0.0
C1146 C 0.83395 0.68592 0.34009 0.0
C1147 C 0.83906 0.69242 0.37656 0.0
C1148 C 0.84054 0.67201 0.2755 0.0
C1149 C 0.83006 0.65757 0.27865 0.0
C1150 C 0.84615 0.67732 0.23781 0.0
C1151 C 0.85654 0.69294 0.23231 0.0
C1152 C 0.85092 0.7087 0.24715 0.0
C1153 C 0.86081 0.72335 0.24204 0.0
C1154 C 0.87629 0.72243 0.22191 0.0
C1155 C 0.8819 0.70686 0.20675 0.0
C1156 C 0.87207 0.69217 0.2118 0.0
C1157 C 0.80422 0.63298 0.12702 0.0
C1158 C 0.8168 0.62739 0.10052 0.0
C1159 C 0.80879 0.64137 0.16188 0.0
C1160 C 0.82601 0.64417 0.17107 0.0
C1161 C 0.83857 0.63841 0.14488 0.0
C1162 C 0.83403 0.63009 0.11002 0.0
C1163 C 0.831 0.65334 0.20763 0.0
C1164 C 0.84139 0.66785 0.20442 0.0
C1165 C 0.82534 0.64808 0.24531 0.0
C1166 C 0.81511 0.63238 0.251 0.0
C1167 C 0.8211 0.61657 0.23733 0.0
C1168 C 0.81135 0.60184 0.24259 0.0
C1169 C 0.79563 0.60274 0.26174 0.0
C1170 C 0.78965 0.61837 0.27577 0.0
C1171 C 0.79935 0.63314 0.27055 0.0
H1172 H 0.7881 0.59132 0.26579 0.0
H1173 H 0.88393 0.73379 0.21798 0.0
H1174 H 0.34062 0.85051 0.42128 0.0
H1175 H 0.35013 0.83955 0.35793 0.0
H1176 H 0.30764 0.86401 0.30055 0.0
H1177 H 0.29761 0.87456 0.36457 0.0
H1178 H 0.31159 0.83339 0.27177 0.0
H1179 H 0.34928 0.88017 0.29575 0.0
H1180 H 0.36978 0.89766 0.33316 0.0
H1181 H 0.40481 0.85573 0.33645 0.0
H1182 H 0.38442 0.8379 0.29949 0.0
H1183 H 0.34547 0.83439 0.07774 0.0
H1184 H 0.33581 0.8424 0.14349 0.0
H1185 H 0.37098 0.80663 0.1951 0.0
H1186 H 0.38059 0.79822 0.12882 0.0
H1187 H 0.37119 0.84163 0.22716 0.0
H1188 H 0.33288 0.79559 0.19843 0.0
H1189 H 0.31211 0.77956 0.15839 0.0
H1190 H 0.27793 0.8222 0.16092 0.0
H1191 H 0.29862 0.83861 0.20039 0.0
C1192 C 0.3333 0.85367 0.3952 0.0
C1193 C 0.31841 0.86352 0.39791 0.0
C1194 C 0.33882 0.84743 0.35891 0.0
C1195 C 0.3298 0.8512 0.32429 0.0
C1196 C 0.31485 0.86098 0.32686 0.0
C1197 C 0.30916 0.86705 0.36339 0.0
C1198 C 0.33589 0.84469 0.28564 0.0
C1199 C 0.32456 0.83539 0.26185 0.0
C1200 C 0.35294 0.84695 0.27298 0.0
C1201 C 0.36525 0.85765 0.29519 0.0
C1202 C 0.3613 0.87464 0.30471 0.0
C1203 C 0.37291 0.88462 0.32579 0.0
C1204 C 0.38857 0.8778 0.33726 0.0
C1205 C 0.39267 0.86099 0.32759 0.0
C1206 C 0.3811 0.85094 0.30654 0.0
C1207 C 0.35117 0.82818 0.103 0.0
C1208 C 0.36383 0.8157 0.09816 0.0
C1209 C 0.34556 0.83273 0.14053 0.0
C1210 C 0.35263 0.82504 0.17399 0.0
C1211 C 0.36536 0.81265 0.16947 0.0
C1212 C 0.3708 0.80785 0.13172 0.0
C1213 C 0.34689 0.83044 0.21356 0.0
C1214 C 0.35827 0.83957 0.23738 0.0
C1215 C 0.32984 0.82824 0.22594 0.0
C1216 C 0.31738 0.81839 0.20211 0.0
C1217 C 0.32101 0.80162 0.19012 0.0
C1218 C 0.30923 0.79245 0.16759 0.0
C1219 C 0.29372 0.79986 0.15709 0.0
C1220 C 0.28996 0.81647 0.16907 0.0
C1221 C 0.3017 0.82571 0.19155 0.0
H1222 H 0.28459 0.79273 0.13978 0.0
H1223 H 0.39754 0.88555 0.35357 0.0
H1224 H 0.13313 0.70717 0.62359 0.0
H1225 H 0.14859 0.69967 0.68393 0.0
H1226 H 0.12652 0.64934 0.68078 0.0
H1227 H 0.11092 0.65677 0.62108 0.0
H1228 H 0.12666 0.66117 0.75393 0.0
H1229 H 0.16695 0.65611 0.6489 0.0
H1230 H 0.1835 0.66549 0.59108 0.0
H1231 H 0.20626 0.70542 0.65987 0.0
H1232 H 0.18968 0.69638 0.71807 0.0
H1233 H 0.18246 0.61641 0.87895 0.0
H1234 H 0.16933 0.62587 0.81733 0.0
H1235 H 0.18738 0.67696 0.83829 0.0
H1236 H 0.20047 0.66767 0.90018 0.0
H1237 H 0.18966 0.66595 0.75733 0.0
H1238 H 0.149 0.66909 0.86383 0.0
H1239 H 0.13294 0.65764 0.92039 0.0
H1240 H 0.11113 0.61902 0.84615 0.0
H1241 H 0.12728 0.6301 0.78924 0.0
C1242 C 0.13142 0.69458 0.63604 0.0
C1243 C 0.12084 0.68254 0.61743 0.0
C1244 C 0.14036 0.69027 0.67036 0.0
C1245 C 0.1389 0.67386 0.68656 0.0
C1246 C 0.12788 0.66206 0.66879 0.0
C1247 C 0.11898 0.66634 0.63457 0.0
C1248 C 0.14903 0.66874 0.72161 0.0
C1249 C 0.14044 0.6621 0.75447 0.0
C1250 C 0.16702 0.67013 0.7226 0.0
C1251 C 0.17694 0.67569 0.6877 0.0
C1252 C 0.17537 0.66699 0.65161 0.0
C1253 C 0.18478 0.67222 0.6188 0.0
C1254 C 0.1959 0.68605 0.62178 0.0
C1255 C 0.19763 0.6947 0.6576 0.0
C1256 C 0.18824 0.68953 0.69052 0.0
C1257 C 0.18393 0.62959 0.87014 0.0
C1258 C 0.19237 0.64133 0.89467 0.0
C1259 C 0.17636 0.63498 0.83498 0.0
C1260 C 0.1772 0.65215 0.82359 0.0
C1261 C 0.18655 0.66367 0.84667 0.0
C1262 C 0.19398 0.65833 0.88205 0.0
C1263 C 0.16726 0.6583 0.78928 0.0
C1264 C 0.17588 0.66515 0.75672 0.0
C1265 C 0.14931 0.65691 0.78828 0.0
C1266 C 0.13947 0.65033 0.82238 0.0
C1267 C 0.14088 0.65808 0.85964 0.0
C1268 C 0.13175 0.65167 0.89175 0.0
C1269 C 0.12105 0.63758 0.88689 0.0
C1270 C 0.11944 0.62991 0.84988 0.0
C1271 C 0.12857 0.63626 0.81768 0.0
H1272 H 0.11399 0.63264 0.91178 0.0
H1273 H 0.20321 0.69001 0.59635 0.0
H1274 H 0.33474 0.10653 0.60452 0.0
H1275 H 0.34849 0.11729 0.66424 0.0
H1276 H 0.30892 0.15494 0.67715 0.0
H1277 H 0.29507 0.14427 0.61741 0.0
H1278 H 0.3413 0.16864 0.68352 0.0
H1279 H 0.3096 0.12177 0.73759 0.0
H1280 H 0.30002 0.09192 0.74237 0.0
H1281 H 0.35148 0.07573 0.7626 0.0
H1282 H 0.36141 0.10548 0.75738 0.0
H1283 H 0.35973 0.19602 0.87897 0.0
H1284 H 0.34742 0.1859 0.81715 0.0
H1285 H 0.38458 0.14551 0.81246 0.0
H1286 H 0.39676 0.15534 0.87477 0.0
H1287 H 0.35382 0.13314 0.80096 0.0
H1288 H 0.38578 0.17962 0.74802 0.0
H1289 H 0.39584 0.20929 0.74257 0.0
H1290 H 0.34481 0.22607 0.71921 0.0
H1291 H 0.33441 0.19651 0.72506 0.0
C1292 C 0.32886 0.11698 0.62027 0.0
C1293 C 0.31382 0.12454 0.6062 0.0
C1294 C 0.33672 0.1231 0.65442 0.0
C1295 C 0.3297 0.1369 0.67511 0.0
C1296 C 0.31455 0.1443 0.66153 0.0
C1297 C 0.30661 0.13812 0.62752 0.0
C1298 C 0.33846 0.14392 0.71025 0.0
C1299 C 0.34385 0.16097 0.70946 0.0
C1300 C 0.34221 0.13373 0.7435 0.0
C1301 C 0.33627 0.11583 0.74669 0.0
C1302 C 0.3189 0.11183 0.74271 0.0
C1303 C 0.3134 0.09493 0.74557 0.0
C1304 C 0.32514 0.08193 0.75267 0.0
C1305 C 0.3424 0.08581 0.75704 0.0
C1306 C 0.34797 0.10269 0.75417 0.0
C1307 C 0.36548 0.18515 0.86448 0.0
C1308 C 0.37918 0.17644 0.8819 0.0
C1309 C 0.35844 0.1794 0.82904 0.0
C1310 C 0.3651 0.16497 0.81006 0.0
C1311 C 0.37919 0.15664 0.82665 0.0
C1312 C 0.38618 0.16232 0.8622 0.0
C1313 C 0.3567 0.15792 0.77437 0.0
C1314 C 0.35135 0.14084 0.77502 0.0
C1315 C 0.35308 0.16807 0.74091 0.0
C1316 C 0.35929 0.18586 0.73735 0.0
C1317 C 0.37668 0.18965 0.74204 0.0
C1318 C 0.38245 0.20645 0.73882 0.0
C1319 C 0.37096 0.21956 0.73065 0.0
C1320 C 0.35369 0.2159 0.72558 0.0
C1321 C 0.34785 0.19913 0.72881 0.0
H1322 H 0.37546 0.23256 0.72815 0.0
H1323 H 0.32086 0.06886 0.75489 0.0
H1324 H 0.83957 0.38838 0.90101 0.0
H1325 H 0.85202 0.37744 0.84023 0.0
H1326 H 0.80665 0.34793 0.81819 0.0
H1327 H 0.79409 0.35874 0.87944 0.0
H1328 H 0.83557 0.32893 0.80991 0.0
H1329 H 0.81497 0.38255 0.76293 0.0
H1330 H 0.81096 0.4137 0.76344 0.0
H1331 H 0.86496 0.42104 0.75356 0.0
H1332 H 0.86932 0.38992 0.75354 0.0
H1333 H 0.86059 0.3053 0.61472 0.0
H1334 H 0.84609 0.31521 0.67413 0.0
H1335 H 0.88792 0.34929 0.69873 0.0
H1336 H 0.90225 0.33979 0.63871 0.0
H1337 H 0.85909 0.36574 0.70427 0.0
H1338 H 0.87998 0.31236 0.75402 0.0
H1339 H 0.88427 0.28124 0.7544 0.0
H1340 H 0.83021 0.27344 0.75982 0.0
H1341 H 0.82559 0.30453 0.75897 0.0
C1342 C 0.83213 0.37972 0.88306 0.0
C1343 C 0.81583 0.37443 0.89509 0.0
C1344 C 0.83926 0.3735 0.84823 0.0
C1345 C 0.83024 0.36193 0.82457 0.0
C1346 C 0.81383 0.35685 0.83605 0.0
C1347 C 0.80664 0.36312 0.87091 0.0
C1348 C 0.83831 0.35466 0.78879 0.0
C1349 C 0.84047 0.33694 0.78643 0.0
C1350 C 0.84506 0.36516 0.75872 0.0
C1351 C 0.84248 0.38389 0.75856 0.0
C1352 C 0.826 0.3908 0.76117 0.0
C1353 C 0.82366 0.40846 0.76131 0.0
C1354 C 0.8377 0.41934 0.75862 0.0
C1355 C 0.8541 0.41259 0.75567 0.0
C1356 C 0.85651 0.39495 0.75555 0.0
C1357 C 0.86684 0.3147 0.6331 0.0
C1358 C 0.88256 0.3218 0.62192 0.0
C1359 C 0.85854 0.32034 0.66716 0.0
C1360 C 0.86593 0.33296 0.69105 0.0
C1361 C 0.88192 0.3396 0.68067 0.0
C1362 C 0.89014 0.3341 0.64644 0.0
C1363 C 0.85662 0.33999 0.72556 0.0
C1364 C 0.85417 0.35769 0.72763 0.0
C1365 C 0.84967 0.32947 0.75542 0.0
C1366 C 0.85243 0.31077 0.75603 0.0
C1367 C 0.869 0.30401 0.75498 0.0
C1368 C 0.87149 0.28638 0.75534 0.0
C1369 C 0.85752 0.27537 0.75702 0.0
C1370 C 0.84102 0.28198 0.75846 0.0
C1371 C 0.83846 0.29961 0.75808 0.0
H1372 H 0.85948 0.26173 0.7573 0.0
H1373 H 0.83586 0.43301 0.75873 0.0
H1374 H 0.64787 0.8006 0.89709 0.0
H1375 H 0.6598 0.81126 0.83524 0.0
H1376 H 0.61864 0.84735 0.82568 0.0
H1377 H 0.60654 0.83671 0.88728 0.0
H1378 H 0.62696 0.83328 0.75421 0.0
H1379 H 0.65599 0.85963 0.86411 0.0
H1380 H 0.67239 0.85959 0.92613 0.0
H1381 H 0.71283 0.8322 0.86933 0.0
H1382 H 0.69654 0.83187 0.80708 0.0
H1383 H 0.66084 0.89384 0.6245 0.0
H1384 H 0.64984 0.88062 0.68442 0.0
H1385 H 0.69385 0.84788 0.68953 0.0
H1386 H 0.70513 0.86127 0.62982 0.0
H1387 H 0.68483 0.85853 0.76201 0.0
H1388 H 0.65674 0.83326 0.65131 0.0
H1389 H 0.64044 0.8329 0.58916 0.0
H1390 H 0.59844 0.85749 0.64677 0.0
H1391 H 0.61459 0.85822 0.70916 0.0
C1392 C 0.64119 0.81061 0.88152 0.0
C1393 C 0.62635 0.81795 0.89734 0.0
C1394 C 0.64808 0.81674 0.84628 0.0
C1395 C 0.64027 0.8303 0.82632 0.0
C1396 C 0.62492 0.83694 0.84077 0.0
C1397 C 0.61804 0.83085 0.87603 0.0
C1398 C 0.64853 0.83825 0.79164 0.0
C1399 C 0.63955 0.83893 0.75596 0.0
C1400 C 0.66512 0.84527 0.79377 0.0
C1401 C 0.67497 0.84557 0.83108 0.0
C1402 C 0.66832 0.85349 0.86494 0.0
C1403 C 0.67761 0.85355 0.90011 0.0
C1404 C 0.69363 0.84586 0.9017 0.0
C1405 C 0.70041 0.83813 0.86808 0.0
C1406 C 0.69117 0.83801 0.83283 0.0
C1407 C 0.66832 0.884 0.63864 0.0
C1408 C 0.68378 0.87849 0.62218 0.0
C1409 C 0.66195 0.87638 0.67277 0.0
C1410 C 0.67083 0.86299 0.69086 0.0
C1411 C 0.68674 0.85811 0.67582 0.0
C1412 C 0.69317 0.86579 0.64174 0.0
C1413 C 0.66319 0.85372 0.72461 0.0
C1414 C 0.67229 0.85278 0.76012 0.0
C1415 C 0.64672 0.8464 0.72227 0.0
C1416 C 0.63694 0.84593 0.68482 0.0
C1417 C 0.64408 0.83871 0.65065 0.0
C1418 C 0.63486 0.83842 0.61539 0.0
C1419 C 0.61843 0.8452 0.61399 0.0
C1420 C 0.61117 0.85226 0.64788 0.0
C1421 C 0.62035 0.8526 0.68322 0.0
H1422 H 0.61131 0.84497 0.58666 0.0
H1423 H 0.70079 0.84591 0.92897 0.0
H1424 H 0.83987 0.66547 0.5655 0.0
H1425 H 0.82649 0.65497 0.62614 0.0
H1426 H 0.86965 0.67259 0.69362 0.0
H1427 H 0.88324 0.68255 0.63348 0.0
H1428 H 0.86065 0.64202 0.71688 0.0
H1429 H 0.83268 0.69497 0.69137 0.0
H1430 H 0.81654 0.71585 0.65203 0.0
H1431 H 0.77443 0.68109 0.64462 0.0
H1432 H 0.79044 0.65985 0.68341 0.0
H1433 H 0.82619 0.64664 0.90944 0.0
H1434 H 0.83584 0.65674 0.84499 0.0
H1435 H 0.79871 0.62473 0.78768 0.0
H1436 H 0.78929 0.61415 0.85174 0.0
H1437 H 0.8032 0.66142 0.75802 0.0
H1438 H 0.83312 0.60863 0.78666 0.0
H1439 H 0.85023 0.58972 0.82906 0.0
H1440 H 0.88994 0.6273 0.83398 0.0
H1441 H 0.87293 0.64654 0.79208 0.0
C1442 C 0.84651 0.667 0.59328 0.0
C1443 C 0.8625 0.67501 0.59484 0.0
C1444 C 0.83882 0.66111 0.62786 0.0
C1445 C 0.84701 0.66321 0.66438 0.0
C1446 C 0.8631 0.67089 0.66576 0.0
C1447 C 0.87079 0.6767 0.63135 0.0
C1448 C 0.83894 0.65744 0.70142 0.0
C1449 C 0.84813 0.64637 0.72591 0.0
C1450 C 0.82255 0.66299 0.71302 0.0
C1451 C 0.81284 0.67574 0.68989 0.0
C1452 C 0.82003 0.69171 0.68107 0.0
C1453 C 0.8109 0.70362 0.65892 0.0
C1454 C 0.7945 0.69977 0.64575 0.0
C1455 C 0.78716 0.68403 0.65479 0.0
C1456 C 0.79625 0.67205 0.67686 0.0
C1457 C 0.81992 0.64188 0.88318 0.0
C1458 C 0.80696 0.62958 0.88574 0.0
C1459 C 0.82544 0.64768 0.84647 0.0
C1460 C 0.81794 0.64144 0.81186 0.0
C1461 C 0.80454 0.62972 0.81424 0.0
C1462 C 0.79921 0.62368 0.85092 0.0
C1463 C 0.825 0.64618 0.7732 0.0
C1464 C 0.81564 0.65701 0.74858 0.0
C1465 C 0.84138 0.6407 0.76171 0.0
C1466 C 0.85168 0.62908 0.7866 0.0
C1467 C 0.84543 0.61292 0.79709 0.0
C1468 C 0.85513 0.60213 0.82096 0.0
C1469 C 0.87115 0.60732 0.83429 0.0
C1470 C 0.87752 0.6233 0.82368 0.0
C1471 C 0.86786 0.63415 0.79985 0.0
H1472 H 0.87864 0.59895 0.85277 0.0
H1473 H 0.78746 0.70901 0.62865 0.0
H1474 H 0.32258 0.83794 0.58198 0.0
H1475 H 0.32795 0.8228 0.64359 0.0
H1476 H 0.28446 0.84739 0.69654 0.0
H1477 H 0.27943 0.86291 0.6357 0.0
H1478 H 0.31051 0.8513 0.74108 0.0
H1479 H 0.28546 0.80348 0.67767 0.0
H1480 H 0.28051 0.7825 0.62478 0.0
H1481 H 0.332 0.76482 0.63565 0.0
H1482 H 0.33736 0.78587 0.68823 0.0
H1483 H 0.32984 0.81056 0.92092 0.0
H1484 H 0.31328 0.81619 0.8612 0.0
H1485 H 0.35606 0.80102 0.78963 0.0
H1486 H 0.37264 0.7953 0.84894 0.0
H1487 H 0.32521 0.7903 0.75828 0.0
H1488 H 0.35087 0.84195 0.81194 0.0
H1489 H 0.35597 0.8632 0.86426 0.0
H1490 H 0.30236 0.87347 0.87067 0.0
H1491 H 0.29694 0.85211 0.81868 0.0
C1492 C 0.31403 0.83994 0.60662 0.0
C1493 C 0.30074 0.85184 0.60416 0.0
C1494 C 0.31701 0.83116 0.64171 0.0
C1495 C 0.30651 0.83386 0.67461 0.0
C1496 C 0.29275 0.84515 0.67155 0.0
C1497 C 0.28994 0.85411 0.63672 0.0
C1498 C 0.31108 0.82655 0.71337 0.0
C1499 C 0.31327 0.83786 0.74502 0.0
C1500 C 0.31499 0.80908 0.71836 0.0
C1501 C 0.31183 0.79635 0.68678 0.0
C1502 C 0.29577 0.79521 0.66861 0.0
C1503 C 0.29288 0.78328 0.6387 0.0
C1504 C 0.30594 0.77235 0.62682 0.0
C1505 C 0.3219 0.7733 0.64488 0.0
C1506 C 0.32486 0.78521 0.67479 0.0
C1507 C 0.33564 0.80823 0.89245 0.0
C1508 C 0.35257 0.80263 0.88955 0.0
C1509 C 0.32615 0.81138 0.85845 0.0
C1510 C 0.33353 0.80912 0.82115 0.0
C1511 C 0.35014 0.80274 0.81821 0.0
C1512 C 0.35961 0.79955 0.85214 0.0
C1513 C 0.3248 0.81512 0.78528 0.0
C1514 C 0.32195 0.80361 0.75431 0.0
C1515 C 0.3202 0.83241 0.78077 0.0
C1516 C 0.32348 0.84531 0.81182 0.0
C1517 C 0.34016 0.84865 0.82473 0.0
C1518 C 0.34311 0.86073 0.85428 0.0
C1519 C 0.32949 0.86964 0.87087 0.0
C1520 C 0.31289 0.86653 0.85785 0.0
C1521 C 0.30987 0.85445 0.82835 0.0
H1522 H 0.3318 0.87899 0.89374 0.0
H1523 H 0.30368 0.76313 0.60366 0.0
H1524 H 0.14474 0.33965 0.56898 0.0
H1525 H 0.15717 0.34658 0.6331 0.0
H1526 H 0.11206 0.32783 0.69128 0.0
H1527 H 0.09941 0.3211 0.62725 0.0
H1528 H 0.12488 0.3572 0.72557 0.0
H1529 H 0.14427 0.30228 0.68582 0.0
H1530 H 0.15597 0.28206 0.63722 0.0
H1531 H 0.20277 0.31032 0.63394 0.0
H1532 H 0.19123 0.33092 0.68202 0.0
H1533 H 0.16445 0.3488 0.91285 0.0
H1534 H 0.15104 0.33885 0.85186 0.0
H1535 H 0.19066 0.36292 0.78377 0.0
H1536 H 0.20392 0.37322 0.84425 0.0
H1537 H 0.17965 0.32863 0.75687 0.0
H1538 H 0.15826 0.38472 0.79314 0.0
H1539 H 0.14524 0.40532 0.839 0.0
H1540 H 0.10098 0.37347 0.84906 0.0
H1541 H 0.11388 0.35254 0.80368 0.0
C1542 C 0.13736 0.33726 0.59537 0.0
C1543 C 0.12124 0.32957 0.59324 0.0
C1544 C 0.1445 0.34114 0.63191 0.0
C1545 C 0.13562 0.33739 0.66674 0.0
C1546 C 0.11912 0.33068 0.66463 0.0
C1547 C 0.11198 0.32675 0.6281 0.0
C1548 C 0.14398 0.33959 0.7053 0.0
C1549 C 0.13671 0.35077 0.73269 0.0
C1550 C 0.15941 0.33116 0.71432 0.0
C1551 C 0.16682 0.31825 0.68726 0.0
C1552 C 0.15705 0.30421 0.67467 0.0
C1553 C 0.16363 0.2927 0.64717 0.0
C1554 C 0.18005 0.29498 0.6323 0.0
C1555 C 0.19002 0.30863 0.64537 0.0
C1556 C 0.18347 0.32022 0.6728 0.0
C1557 C 0.17047 0.35174 0.88493 0.0
C1558 C 0.1852 0.3619 0.88336 0.0
C1559 C 0.1628 0.34604 0.85022 0.0
C1560 C 0.16989 0.35022 0.81356 0.0
C1561 C 0.18509 0.35953 0.81193 0.0
C1562 C 0.1926 0.36548 0.84656 0.0
C1563 C 0.16063 0.34642 0.77685 0.0
C1564 C 0.16773 0.33491 0.74985 0.0
C1565 C 0.14491 0.35438 0.76835 0.0
C1566 C 0.13712 0.36697 0.79545 0.0
C1567 C 0.14582 0.38203 0.80545 0.0
C1568 C 0.13845 0.39378 0.83128 0.0
C1569 C 0.12231 0.39068 0.84705 0.0
C1570 C 0.1135 0.37583 0.8369 0.0
C1571 C 0.12083 0.36403 0.81112 0.0
H1572 H 0.11662 0.39979 0.86703 0.0
H1573 H 0.18506 0.28616 0.61068 0.0
H1574 H 0.65932 0.16829 0.94535 0.0
H1575 H 0.67541 0.15995 0.8863 0.0
H1576 H 0.62878 0.15838 0.81918 0.0
H1577 H 0.61273 0.16699 0.8776 0.0
H1578 H 0.65163 0.13014 0.8063 0.0
H1579 H 0.64966 0.19191 0.80847 0.0
H1580 H 0.65406 0.2201 0.83876 0.0
H1581 H 0.70741 0.20955 0.85172 0.0
H1582 H 0.70327 0.1812 0.82151 0.0
H1583 H 0.68325 0.15959 0.60624 0.0
H1584 H 0.67373 0.16677 0.67294 0.0
H1585 H 0.70079 0.12335 0.71908 0.0
H1586 H 0.71018 0.11596 0.65274 0.0
H1587 H 0.68967 0.17334 0.74552 0.0
H1588 H 0.6735 0.10392 0.78431 0.0
H1589 H 0.66692 0.07674 0.75093 0.0
H1590 H 0.64642 0.10404 0.65204 0.0
H1591 H 0.65267 0.13135 0.68507 0.0
C1592 C 0.65252 0.1659 0.91811 0.0
C1593 C 0.63483 0.1683 0.91581 0.0
C1594 C 0.6617 0.16122 0.88452 0.0
C1595 C 0.65321 0.15863 0.84862 0.0
C1596 C 0.63548 0.1603 0.84676 0.0
C1597 C 0.62637 0.16526 0.88003 0.0
C1598 C 0.66276 0.15508 0.81222 0.0
C1599 C 0.66013 0.13946 0.79321 0.0
C1600 C 0.67358 0.16741 0.79509 0.0
C1601 C 0.67613 0.1844 0.8132 0.0
C1602 C 0.6623 0.19555 0.8181 0.0
C1603 C 0.66476 0.21157 0.83519 0.0
C1604 C 0.681 0.2166 0.8474 0.0
C1605 C 0.69483 0.20562 0.84235 0.0
C1606 C 0.69244 0.18959 0.82517 0.0
C1607 C 0.68738 0.15173 0.63067 0.0
C1608 C 0.69735 0.13715 0.62423 0.0
C1609 C 0.68201 0.1559 0.66871 0.0
C1610 C 0.68646 0.14548 0.70068 0.0
C1611 C 0.69716 0.13145 0.69463 0.0
C1612 C 0.70254 0.12729 0.65669 0.0
C1613 C 0.6786 0.14834 0.73959 0.0
C1614 C 0.68151 0.16384 0.75903 0.0
C1615 C 0.66781 0.13598 0.75688 0.0
C1616 C 0.66375 0.11965 0.73696 0.0
C1617 C 0.66755 0.1041 0.75549 0.0
C1618 C 0.66387 0.08868 0.73663 0.0
C1619 C 0.65631 0.08867 0.69932 0.0
C1620 C 0.65234 0.10407 0.68086 0.0
C1621 C 0.65596 0.11952 0.69962 0.0
H1622 H 0.6535 0.07672 0.68476 0.0
H1623 H 0.68289 0.22901 0.8606 0.0
H1624 H 0.84851 0.33521 0.42715 0.0
H1625 H 0.83424 0.34175 0.36478 0.0
H1626 H 0.87778 0.32299 0.30055 0.0
H1627 H 0.89224 0.31683 0.36254 0.0
H1628 H 0.86639 0.35191 0.26946 0.0
H1629 H 0.84266 0.29874 0.31023 0.0
H1630 H 0.82868 0.2787 0.35586 0.0
H1631 H 0.78422 0.31045 0.35856 0.0
H1632 H 0.79805 0.33085 0.31341 0.0
H1633 H 0.82736 0.34377 0.08249 0.0
H1634 H 0.83957 0.33418 0.14502 0.0
H1635 H 0.80097 0.36182 0.20873 0.0
H1636 H 0.78892 0.3718 0.14664 0.0
H1637 H 0.8095 0.32755 0.23932 0.0
H1638 H 0.83493 0.38129 0.20001 0.0
H1639 H 0.84951 0.40044 0.1533 0.0
H1640 H 0.8916 0.3657 0.14649 0.0
H1641 H 0.87713 0.34621 0.19274 0.0
C1642 C 0.85508 0.33261 0.39972 0.0
C1643 C 0.8714 0.32533 0.39966 0.0
C1644 C 0.84688 0.33623 0.36417 0.0
C1645 C 0.85487 0.33257 0.32814 0.0
C1646 C 0.87137 0.3258 0.32807 0.0
C1647 C 0.87956 0.3222 0.36352 0.0
C1648 C 0.84608 0.33579 0.29037 0.0
C1649 C 0.85405 0.3464 0.26271 0.0
C1650 C 0.8299 0.32873 0.28183 0.0
C1651 C 0.82147 0.31643 0.30875 0.0
C1652 C 0.82996 0.30153 0.3208 0.0
C1653 C 0.82206 0.29009 0.34655 0.0
C1654 C 0.80559 0.29332 0.36019 0.0
C1655 C 0.79698 0.30798 0.34801 0.0
C1656 C 0.80485 0.31948 0.32233 0.0
C1657 C 0.8213 0.3476 0.10976 0.0
C1658 C 0.80721 0.35862 0.10959 0.0
C1659 C 0.82828 0.3421 0.14538 0.0
C1660 C 0.82116 0.34738 0.18125 0.0
C1661 C 0.80656 0.35759 0.18121 0.0
C1662 C 0.79972 0.3633 0.14565 0.0
C1663 C 0.82985 0.34362 0.21873 0.0
C1664 C 0.82186 0.33296 0.24622 0.0
C1665 C 0.8461 0.35046 0.22704 0.0
C1666 C 0.85486 0.36221 0.19945 0.0
C1667 C 0.84722 0.37766 0.18826 0.0
C1668 C 0.85548 0.38859 0.16193 0.0
C1669 C 0.87145 0.38427 0.14684 0.0
C1670 C 0.87922 0.36902 0.15814 0.0
C1671 C 0.871 0.35803 0.18442 0.0
H1672 H 0.87783 0.39275 0.12647 0.0
H1673 H 0.7995 0.28445 0.38012 0.0
H1674 H 0.67482 0.80863 0.09156 0.0
H1675 H 0.69064 0.80917 0.15408 0.0
H1676 H 0.6438 0.81927 0.21654 0.0
H1677 H 0.62806 0.81786 0.15498 0.0
H1678 H 0.69681 0.83167 0.2044 0.0
H1679 H 0.64113 0.80421 0.30354 0.0
H1680 H 0.62023 0.78086 0.29929 0.0
H1681 H 0.65131 0.75543 0.21343 0.0
H1682 H 0.67258 0.77845 0.21764 0.0
H1683 H 0.68722 0.8776 0.37036 0.0
H1684 H 0.68522 0.86075 0.31042 0.0
H1685 H 0.69278 0.81469 0.37786 0.0
H1686 H 0.6939 0.83169 0.43872 0.0
H1687 H 0.67048 0.8086 0.32621 0.0
H1688 H 0.7249 0.83027 0.31581 0.0
H1689 H 0.74864 0.85071 0.32046 0.0
H1690 H 0.72607 0.88129 0.22951 0.0
H1691 H 0.702 0.86125 0.2248 0.0
C1692 C 0.668 0.81094 0.1188 0.0
C1693 C 0.65026 0.81315 0.11872 0.0
C1694 C 0.677 0.81113 0.15442 0.0
C1695 C 0.66835 0.81374 0.1902 0.0
C1696 C 0.65069 0.81651 0.18964 0.0
C1697 C 0.64172 0.81595 0.15438 0.0
C1698 C 0.67759 0.81499 0.22817 0.0
C1699 C 0.69127 0.82641 0.23101 0.0
C1700 C 0.67114 0.80723 0.2628 0.0
C1701 C 0.6585 0.79312 0.26094 0.0
C1702 C 0.64363 0.79356 0.28408 0.0
C1703 C 0.63168 0.78039 0.28158 0.0
C1704 C 0.63444 0.76668 0.25611 0.0
C1705 C 0.64918 0.76607 0.23313 0.0
C1706 C 0.66118 0.77919 0.23554 0.0
C1707 C 0.68837 0.86388 0.3724 0.0
C1708 C 0.69071 0.8559 0.40893 0.0
C1709 C 0.68748 0.85425 0.3381 0.0
C1710 C 0.68947 0.83648 0.33942 0.0
C1711 C 0.69144 0.8284 0.3761 0.0
C1712 C 0.69197 0.83807 0.41076 0.0
C1713 C 0.68838 0.82663 0.30226 0.0
C1714 C 0.67642 0.81342 0.29961 0.0
C1715 C 0.69703 0.83209 0.26786 0.0
C1716 C 0.71161 0.84418 0.26991 0.0
C1717 C 0.72495 0.84138 0.29687 0.0
C1718 C 0.73847 0.85291 0.29955 0.0
C1719 C 0.73887 0.86728 0.27526 0.0
C1720 C 0.72576 0.87013 0.24823 0.0
C1721 C 0.71218 0.85866 0.24548 0.0
H1722 H 0.74934 0.8762 0.2774 0.0
H1723 H 0.62515 0.75652 0.25418 0.0
H1724 H 0.14622 0.669 0.42594 0.0
H1725 H 0.15795 0.66033 0.362 0.0
H1726 H 0.11106 0.67484 0.30495 0.0
H1727 H 0.09925 0.68339 0.36848 0.0
H1728 H 0.12333 0.64433 0.27781 0.0
H1729 H 0.14334 0.70126 0.29929 0.0
H1730 H 0.15709 0.72442 0.33667 0.0
H1731 H 0.20397 0.69635 0.33879 0.0
H1732 H 0.19044 0.67294 0.30151 0.0
H1733 H 0.15372 0.64547 0.08092 0.0
H1734 H 0.14199 0.65627 0.14318 0.0
H1735 H 0.18782 0.6411 0.20378 0.0
H1736 H 0.19961 0.63063 0.14193 0.0
H1737 H 0.17571 0.67259 0.22838 0.0
H1738 H 0.15487 0.61541 0.20647 0.0
H1739 H 0.14052 0.59273 0.1686 0.0
H1740 H 0.0944 0.62203 0.16699 0.0
H1741 H 0.10856 0.64501 0.20441 0.0
C1742 C 0.13838 0.67014 0.3998 0.0
C1743 C 0.1219 0.67699 0.40203 0.0
C1744 C 0.14511 0.6653 0.36337 0.0
C1745 C 0.1354 0.66717 0.32885 0.0
C1746 C 0.11873 0.67337 0.33129 0.0
C1747 C 0.11206 0.67832 0.36755 0.0
C1748 C 0.14272 0.66305 0.28994 0.0
C1749 C 0.13467 0.65064 0.26676 0.0
C1750 C 0.15758 0.6712 0.2759 0.0
C1751 C 0.16583 0.68528 0.29799 0.0
C1752 C 0.15655 0.69997 0.30798 0.0
C1753 C 0.16431 0.71315 0.32912 0.0
C1754 C 0.18137 0.71183 0.34033 0.0
C1755 C 0.19074 0.69734 0.33018 0.0
C1756 C 0.18305 0.68413 0.30896 0.0
C1757 C 0.16134 0.64466 0.10748 0.0
C1758 C 0.17738 0.63682 0.10689 0.0
C1759 C 0.15463 0.65076 0.14293 0.0
C1760 C 0.16397 0.64919 0.17804 0.0
C1761 C 0.18038 0.64226 0.17701 0.0
C1762 C 0.18701 0.63606 0.14173 0.0
C1763 C 0.15635 0.65383 0.2163 0.0
C1764 C 0.16435 0.66632 0.23939 0.0
C1765 C 0.14137 0.64583 0.23018 0.0
C1766 C 0.13282 0.632 0.20784 0.0
C1767 C 0.14171 0.61708 0.19775 0.0
C1768 C 0.1336 0.60416 0.17642 0.0
C1769 C 0.11657 0.60596 0.16529 0.0
C1770 C 0.1076 0.62067 0.17557 0.0
C1771 C 0.11565 0.63364 0.19685 0.0
H1772 H 0.11032 0.59594 0.14879 0.0
H1773 H 0.18734 0.72204 0.35676 0.0
H1774 H 0.315 0.16069 0.41115 0.0
H1775 H 0.32338 0.17093 0.34608 0.0
H1776 H 0.28659 0.13736 0.29202 0.0
H1777 H 0.27866 0.12659 0.35675 0.0
H1778 H 0.31579 0.13327 0.25883 0.0
H1779 H 0.282 0.18142 0.29011 0.0
H1780 H 0.27119 0.20533 0.33002 0.0
H1781 H 0.32061 0.22872 0.32822 0.0
H1782 H 0.33181 0.20482 0.28882 0.0
H1783 H 0.33742 0.16621 0.06833 0.0
H1784 H 0.3206 0.15998 0.12738 0.0
H1785 H 0.35923 0.18334 0.19992 0.0
H1786 H 0.37627 0.18926 0.14144 0.0
H1787 H 0.32515 0.19333 0.21876 0.0
H1788 H 0.35887 0.14244 0.19451 0.0
H1789 H 0.36895 0.11839 0.15395 0.0
H1790 H 0.31759 0.10041 0.14123 0.0
H1791 H 0.30719 0.12451 0.18132 0.0
C1792 C 0.3085 0.15569 0.38546 0.0
C1793 C 0.29619 0.1428 0.38913 0.0
C1794 C 0.31322 0.16164 0.34826 0.0
C1795 C 0.3055 0.15501 0.31418 0.0
C1796 C 0.29269 0.14266 0.31794 0.0
C1797 C 0.28812 0.13657 0.35505 0.0
C1798 C 0.31204 0.15963 0.27469 0.0
C1799 C 0.31745 0.14642 0.24975 0.0
C1800 C 0.31444 0.17678 0.26305 0.0
C1801 C 0.30777 0.19124 0.28671 0.0
C1802 C 0.2906 0.19159 0.29847 0.0
C1803 C 0.2844 0.20516 0.32097 0.0
C1804 C 0.29521 0.21852 0.33171 0.0
C1805 C 0.31225 0.21836 0.3199 0.0
C1806 C 0.31853 0.20481 0.29743 0.0
C1807 C 0.34234 0.17 0.09686 0.0
C1808 C 0.35812 0.17835 0.1002 0.0
C1809 C 0.3327 0.16649 0.13046 0.0
C1810 C 0.33868 0.17131 0.16779 0.0
C1811 C 0.35435 0.17972 0.17122 0.0
C1812 C 0.36406 0.18308 0.13774 0.0
C1813 C 0.32903 0.16698 0.20367 0.0
C1814 C 0.32312 0.18022 0.2278 0.0
C1815 C 0.32597 0.14988 0.21445 0.0
C1816 C 0.33224 0.13538 0.19048 0.0
C1817 C 0.34971 0.13344 0.18276 0.0
C1818 C 0.35549 0.11979 0.15993 0.0
C1819 C 0.34391 0.10791 0.14491 0.0
C1820 C 0.32654 0.10964 0.15281 0.0
C1821 C 0.3207 0.12328 0.1756 0.0
H1822 H 0.3484 0.09734 0.12724 0.0
H1823 H 0.29038 0.22902 0.34913 0.0
loop_
_geom_bond_atom_site_label_1
_geom_bond_atom_site_label_2
_geom_bond_distance
_geom_bond_site_symmetry_2
_ccdc_geom_bond_type
Mg0 O1 2.028 . S
Mg0 O7 1.986 . S
Mg0 O9 2.114 1_554 S
Mg0 O10 2.251 1_554 S
Mg0 O13 2.010 . S
O1 Mg0 2.028 . S
O1 C4 1.250 1_554 S
O2 Mg3 2.028 . S
O2 C4 1.248 . S
Mg3 O2 2.028 . S
Mg3 O8 2.032 . S
Mg3 O10 2.079 . S
C4 O1 1.250 1_556 S
C4 O2 1.248 . S
C5 O6 1.264 . S
C5 O13 1.249 . S
O6 C5 1.264 . S
O7 Mg0 1.986 . S
O7 C11 1.246 1_554 S
O8 Mg3 2.032 . S
O8 C11 1.259 . S
O9 Mg0 2.114 1_556 S
O9 C12 1.252 . S
O10 Mg0 2.251 1_556 S
O10 Mg3 2.079 . S
O10 C12 1.273 . S
C11 O7 1.246 1_556 S
C11 O8 1.259 . S
C12 O9 1.252 . S
C12 O10 1.273 . S
O13 Mg0 2.010 . S
O13 C5 1.249 . S
Mg14 O15 2.028 . S
Mg14 O21 1.986 . S
Mg14 O23 2.114 1_554 S
Mg14 O24 2.251 1_554 S
Mg14 O27 2.010 . S
O15 Mg14 2.028 . S
O15 C18 1.250 1_554 S
O16 Mg17 2.028 . S
O16 C18 1.248 . S
Mg17 O16 2.028 . S
Mg17 O22 2.032 . S
Mg17 O24 2.079 . S
C18 O15 1.250 1_556 S
C18 O16 1.248 . S
C19 O20 1.264 . S
C19 O27 1.249 . S
O20 C19 1.264 . S
O21 Mg14 1.986 . S
O21 C25 1.246 1_554 S
O22 Mg17 2.032 . S
O22 C25 1.259 . S
O23 Mg14 2.114 1_556 S
O23 C26 1.252 . S
O24 Mg14 2.251 1_556 S
O24 Mg17 2.079 . S
O24 C26 1.273 . S
C25 O21 1.246 1_556 S
C25 O22 1.259 . S
C26 O23 1.252 . S
C26 O24 1.273 . S
O27 Mg14 2.010 . S
O27 C19 1.249 . S
Mg28 O29 2.028 . S
Mg28 O35 1.986 . S
Mg28 O37 2.114 1_554 S
Mg28 O38 2.251 1_554 S
Mg28 O41 2.010 . S
O29 Mg28 2.028 . S
O29 C32 1.250 1_554 S
O30 Mg31 2.028 . S
O30 C32 1.248 . S
Mg31 O30 2.028 . S
Mg31 O36 2.032 . S
Mg31 O38 2.079 . S
C32 O29 1.250 1_556 S
C32 O30 1.248 . S
C33 O34 1.264 . S
C33 O41 1.249 . S
O34 C33 1.264 . S
O35 Mg28 1.986 . S
O35 C39 1.246 1_554 S
O36 Mg31 2.032 . S
O36 C39 1.259 . S
O37 Mg28 2.114 1_556 S
O37 C40 1.252 . S
O38 Mg28 2.251 1_556 S
O38 Mg31 2.079 . S
O38 C40 1.273 . S
C39 O35 1.246 1_556 S
C39 O36 1.259 . S
C40 O37 1.252 . S
C40 O38 1.273 . S
O41 Mg28 2.010 . S
O41 C33 1.249 . S
Mg42 O43 2.028 . S
Mg42 O49 1.986 . S
Mg42 O51 2.114 1_554 S
Mg42 O52 2.251 1_554 S
Mg42 O55 2.010 . S
O43 Mg42 2.028 . S
O43 C46 1.250 1_554 S
O44 Mg45 2.028 . S
O44 C46 1.248 . S
Mg45 O44 2.028 . S
Mg45 O50 2.032 . S
Mg45 O52 2.079 . S
C46 O43 1.250 1_556 S
C46 O44 1.248 . S
C47 O48 1.264 . S
C47 O55 1.249 . S
O48 C47 1.264 . S
O49 Mg42 1.986 . S
O49 C53 1.246 1_554 S
O50 Mg45 2.032 . S
O50 C53 1.259 . S
O51 Mg42 2.114 1_556 S
O51 C54 1.252 . S
O52 Mg42 2.251 1_556 S
O52 Mg45 2.079 . S
O52 C54 1.273 . S
C53 O49 1.246 1_556 S
C53 O50 1.259 . S
C54 O51 1.252 . S
C54 O52 1.273 . S
O55 Mg42 2.010 . S
O55 C47 1.249 . S
Mg56 O57 2.028 1_554 S
Mg56 O63 1.986 1_554 S
Mg56 O65 2.114 . S
Mg56 O66 2.251 . S
Mg56 O69 2.010 1_554 S
O57 Mg56 2.028 1_556 S
O57 C60 1.250 1_556 S
O58 Mg59 2.028 . S
O58 C60 1.248 . S
Mg59 O58 2.028 . S
Mg59 O64 2.032 . S
Mg59 O66 2.079 . S
C60 O57 1.250 1_554 S
C60 O58 1.248 . S
C61 O62 1.264 . S
C61 O69 1.249 . S
O62 C61 1.264 . S
O63 Mg56 1.986 1_556 S
O63 C67 1.246 1_556 S
O64 Mg59 2.032 . S
O64 C67 1.259 . S
O65 Mg56 2.114 . S
O65 C68 1.252 . S
O66 Mg56 2.251 . S
O66 Mg59 2.079 . S
O66 C68 1.273 . S
C67 O63 1.246 1_554 S
C67 O64 1.259 . S
C68 O65 1.252 . S
C68 O66 1.273 . S
O69 Mg56 2.010 1_556 S
O69 C61 1.249 . S
Mg70 O71 2.028 1_554 S
Mg70 O77 1.986 1_554 S
Mg70 O79 2.114 . S
Mg70 O80 2.251 . S
Mg70 O83 2.010 1_554 S
O71 Mg70 2.028 1_556 S
O71 C74 1.250 1_556 S
O72 Mg73 2.028 . S
O72 C74 1.248 . S
Mg73 O72 2.028 . S
Mg73 O78 2.032 . S
Mg73 O80 2.079 . S
C74 O71 1.250 1_554 S
C74 O72 1.248 . S
C75 O76 1.264 . S
C75 O83 1.249 . S
O76 C75 1.264 . S
O77 Mg70 1.986 1_556 S
O77 C81 1.246 1_556 S
O78 Mg73 2.032 . S
O78 C81 1.259 . S
O79 Mg70 2.114 . S
O79 C82 1.252 . S
O80 Mg70 2.251 . S
O80 Mg73 2.079 . S
O80 C82 1.273 . S
C81 O77 1.246 1_554 S
C81 O78 1.259 . S
C82 O79 1.252 . S
C82 O80 1.273 . S
O83 Mg70 2.010 1_556 S
O83 C75 1.249 . S
Mg84 O85 2.028 1_554 S
Mg84 O91 1.986 1_554 S
Mg84 O93 2.114 . S
Mg84 O94 2.251 . S
Mg84 O97 2.010 1_554 S
O85 Mg84 2.028 1_556 S
O85 C88 1.250 1_556 S
O86 Mg87 2.028 . S
O86 C88 1.248 . S
Mg87 O86 2.028 . S
Mg87 O92 2.032 . S
Mg87 O94 2.079 . S
C88 O85 1.250 1_554 S
C88 O86 1.248 . S
C89 O90 1.264 . S
C89 O97 1.249 . S
O90 C89 1.264 . S
O91 Mg84 1.986 1_556 S
O91 C95 1.246 1_556 S
O92 Mg87 2.032 . S
O92 C95 1.259 . S
O93 Mg84 2.114 . S
O93 C96 1.252 . S
O94 Mg84 2.251 . S
O94 Mg87 2.079 . S
O94 C96 1.273 . S
C95 O91 1.246 1_554 S
C95 O92 1.259 . S
C96 O93 1.252 . S
C96 O94 1.273 . S
O97 Mg84 2.010 1_556 S
O97 C89 1.249 . S
Mg98 O99 2.028 1_554 S
Mg98 O105 1.986 1_554 S
Mg98 O107 2.114 . S
Mg98 O108 2.251 . S
Mg98 O111 2.010 1_554 S
O99 Mg98 2.028 1_556 S
O99 C102 1.250 1_556 S
O100 Mg101 2.028 . S
O100 C102 1.248 . S
Mg101 O100 2.028 . S
Mg101 O106 2.032 . S
Mg101 O108 2.079 . S
C102 O99 1.250 1_554 S
C102 O100 1.248 . S
C103 O104 1.264 . S
C103 O111 1.249 . S
O104 C103 1.264 . S
O105 Mg98 1.986 1_556 S
O105 C109 1.246 1_556 S
O106 Mg101 2.032 . S
O106 C109 1.259 . S
O107 Mg98 2.114 . S
O107 C110 1.252 . S
O108 Mg98 2.251 . S
O108 Mg101 2.079 . S
O108 C110 1.273 . S
C109 O105 1.246 1_554 S
C109 O106 1.259 . S
C110 O107 1.252 . S
C110 O108 1.273 . S
O111 Mg98 2.010 1_556 S
O111 C103 1.249 . S
Mg112 O113 2.028 . S
Mg112 O119 1.986 . S
Mg112 O121 2.114 . S
Mg112 O122 2.251 . S
Mg112 O125 2.010 . S
O113 Mg112 2.028 . S
O113 C116 1.250 . S
O114 Mg115 2.028 . S
O114 C116 1.248 . S
Mg115 O114 2.028 . S
Mg115 O120 2.032 . S
Mg115 O122 2.079 . S
C116 O113 1.250 . S
C116 O114 1.248 . S
C117 O118 1.264 . S
C117 O125 1.249 . S
O118 C117 1.264 . S
O119 Mg112 1.986 . S
O119 C123 1.246 . S
O120 Mg115 2.032 . S
O120 C123 1.259 . S
O121 Mg112 2.114 . S
O121 C124 1.252 . S
O122 Mg112 2.251 . S
O122 Mg115 2.079 . S
O122 C124 1.273 . S
C123 O119 1.246 . S
C123 O120 1.259 . S
C124 O121 1.252 . S
C124 O122 1.273 . S
O125 Mg112 2.010 . S
O125 C117 1.249 . S
Mg126 O127 2.028 . S
Mg126 O133 1.986 . S
Mg126 O135 2.114 . S
Mg126 O136 2.251 . S
Mg126 O139 2.010 . S
O127 Mg126 2.028 . S
O127 C130 1.250 . S
O128 Mg129 2.028 . S
O128 C130 1.248 . S
Mg129 O128 2.028 . S
Mg129 O134 2.032 . S
Mg129 O136 2.079 . S
C130 O127 1.250 . S
C130 O128 1.248 . S
C131 O132 1.264 . S
C131 O139 1.249 . S
O132 C131 1.264 . S
O133 Mg126 1.986 . S
O133 C137 1.246 . S
O134 Mg129 2.032 . S
O134 C137 1.259 . S
O135 Mg126 2.114 . S
O135 C138 1.252 . S
O136 Mg126 2.251 . S
O136 Mg129 2.079 . S
O136 C138 1.273 . S
C137 O133 1.246 . S
C137 O134 1.259 . S
C138 O135 1.252 . S
C138 O136 1.273 . S
O139 Mg126 2.010 . S
O139 C131 1.249 . S
Mg140 O141 2.028 . S
Mg140 O147 1.986 . S
Mg140 O149 2.114 . S
Mg140 O150 2.251 . S
Mg140 O153 2.010 . S
O141 Mg140 2.028 . S
O141 C144 1.250 . S
O142 Mg143 2.028 . S
O142 C144 1.248 . S
Mg143 O142 2.028 . S
Mg143 O148 2.032 . S
Mg143 O150 2.079 . S
C144 O141 1.250 . S
C144 O142 1.248 . S
C145 O146 1.264 . S
C145 O153 1.249 . S
O146 C145 1.264 . S
O147 Mg140 1.986 . S
O147 C151 1.246 . S
O148 Mg143 2.032 . S
O148 C151 1.259 . S
O149 Mg140 2.114 . S
O149 C152 1.252 . S
O150 Mg140 2.251 . S
O150 Mg143 2.079 . S
O150 C152 1.273 . S
C151 O147 1.246 . S
C151 O148 1.259 . S
C152 O149 1.252 . S
C152 O150 1.273 . S
O153 Mg140 2.010 . S
O153 C145 1.249 . S
Mg154 O155 2.028 . S
Mg154 O161 1.986 . S
Mg154 O163 2.114 . S
Mg154 O164 2.251 . S
Mg154 O167 2.010 . S
O155 Mg154 2.028 . S
O155 C158 1.250 . S
O156 Mg157 2.028 . S
O156 C158 1.248 . S
Mg157 O156 2.028 . S
Mg157 O162 2.032 . S
Mg157 O164 2.079 . S
C158 O155 1.250 . S
C158 O156 1.248 . S
C159 O160 1.264 . S
C159 O167 1.249 . S
O160 C159 1.264 . S
O161 Mg154 1.986 . S
O161 C165 1.246 . S
O162 Mg157 2.032 . S
O162 C165 1.259 . S
O163 Mg154 2.114 . S
O163 C166 1.252 . S
O164 Mg154 2.251 . S
O164 Mg157 2.079 . S
O164 C166 1.273 . S
C165 O161 1.246 . S
C165 O162 1.259 . S
C166 O163 1.252 . S
C166 O164 1.273 . S
O167 Mg154 2.010 . S
O167 C159 1.249 . S
Mg168 O169 2.028 . S
Mg168 O175 1.986 . S
Mg168 O177 2.114 . S
Mg168 O178 2.251 . S
Mg168 O181 2.010 . S
O169 Mg168 2.028 . S
O169 C172 1.250 . S
O170 Mg171 2.028 . S
O170 C172 1.248 . S
Mg171 O170 2.028 . S
Mg171 O176 2.032 . S
Mg171 O178 2.079 . S
C172 O169 1.250 . S
C172 O170 1.248 . S
C173 O174 1.264 . S
C173 O181 1.249 . S
O174 C173 1.264 . S
O175 Mg168 1.986 . S
O175 C179 1.246 . S
O176 Mg171 2.032 . S
O176 C179 1.259 . S
O177 Mg168 2.114 . S
O177 C180 1.252 . S
O178 Mg168 2.251 . S
O178 Mg171 2.079 . S
O178 C180 1.273 . S
C179 O175 1.246 . S
C179 O176 1.259 . S
C180 O177 1.252 . S
C180 O178 1.273 . S
O181 Mg168 2.010 . S
O181 C173 1.249 . S
Mg182 O183 2.028 . S
Mg182 O189 1.986 . S
Mg182 O191 2.114 . S
Mg182 O192 2.251 . S
Mg182 O195 2.010 . S
O183 Mg182 2.028 . S
O183 C186 1.250 . S
O184 Mg185 2.028 . S
O184 C186 1.248 . S
Mg185 O184 2.028 . S
Mg185 O190 2.032 . S
Mg185 O192 2.079 . S
C186 O183 1.250 . S
C186 O184 1.248 . S
C187 O188 1.264 . S
C187 O195 1.249 . S
O188 C187 1.264 . S
O189 Mg182 1.986 . S
O189 C193 1.246 . S
O190 Mg185 2.032 . S
O190 C193 1.259 . S
O191 Mg182 2.114 . S
O191 C194 1.252 . S
O192 Mg182 2.251 . S
O192 Mg185 2.079 . S
O192 C194 1.273 . S
C193 O189 1.246 . S
C193 O190 1.259 . S
C194 O191 1.252 . S
C194 O192 1.273 . S
O195 Mg182 2.010 . S
O195 C187 1.249 . S
Mg196 O197 2.028 . S
Mg196 O203 1.986 . S
Mg196 O205 2.114 . S
Mg196 O206 2.251 . S
Mg196 O209 2.010 . S
O197 Mg196 2.028 . S
O197 C200 1.250 . S
O198 Mg199 2.028 . S
O198 C200 1.248 . S
Mg199 O198 2.028 . S
Mg199 O204 2.032 . S
Mg199 O206 2.079 . S
C200 O197 1.250 . S
C200 O198 1.248 . S
C201 O202 1.264 . S
C201 O209 1.249 . S
O202 C201 1.264 . S
O203 Mg196 1.986 . S
O203 C207 1.246 . S
O204 Mg199 2.032 . S
O204 C207 1.259 . S
O205 Mg196 2.114 . S
O205 C208 1.252 . S
O206 Mg196 2.251 . S
O206 Mg199 2.079 . S
O206 C208 1.273 . S
C207 O203 1.246 . S
C207 O204 1.259 . S
C208 O205 1.252 . S
C208 O206 1.273 . S
O209 Mg196 2.010 . S
O209 C201 1.249 . S
Mg210 O211 2.028 . S
Mg210 O217 1.986 . S
Mg210 O219 2.114 . S
Mg210 O220 2.251 . S
Mg210 O223 2.010 . S
O211 Mg210 2.028 . S
O211 C214 1.250 . S
O212 Mg213 2.028 . S
O212 C214 1.248 . S
Mg213 O212 2.028 . S
Mg213 O218 2.032 . S
Mg213 O220 2.079 . S
C214 O211 1.250 . S
C214 O212 1.248 . S
C215 O216 1.264 . S
C215 O223 1.249 . S
O216 C215 1.264 . S
O217 Mg210 1.986 . S
O217 C221 1.246 . S
O218 Mg213 2.032 . S
O218 C221 1.259 . S
O219 Mg210 2.114 . S
O219 C222 1.252 . S
O220 Mg210 2.251 . S
O220 Mg213 2.079 . S
O220 C222 1.273 . S
C221 O217 1.246 . S
C221 O218 1.259 . S
C222 O219 1.252 . S
C222 O220 1.273 . S
O223 Mg210 2.010 . S
O223 C215 1.249 . S
H224 C242 0.951 . S
H225 C244 0.951 . S
H226 C246 0.950 . S
H227 C247 0.950 . S
H228 C249 0.950 . S
H229 C252 0.950 . S
H230 C253 0.950 . S
H231 C255 0.950 . S
H232 C256 0.950 . S
H233 C257 0.951 . S
H234 C259 0.951 . S
H235 C261 0.950 . S
H236 C262 0.950 . S
H237 C264 0.950 . S
H238 C267 0.950 . S
H239 C268 0.950 . S
H240 C270 0.950 . S
H241 C271 0.950 . S
C242 H224 0.951 . S
C242 C243 1.366 . S
C242 C244 1.388 . S
C243 C242 1.366 . S
C243 C247 1.385 1_554 S
C244 H225 0.951 . S
C244 C242 1.388 . S
C244 C245 1.366 . S
C245 C244 1.366 . S
C245 C246 1.414 1_554 S
C245 C248 1.499 . S
C246 H226 0.950 . S
C246 C245 1.414 1_556 S
C246 C247 1.374 . S
C247 H227 0.950 . S
C247 C243 1.385 1_556 S
C247 C246 1.374 . S
C248 C245 1.499 . S
C248 C249 1.373 1_554 S
C248 C250 1.389 . S
C249 H228 0.950 . S
C249 C248 1.373 1_556 S
C249 C265 1.377 . S
C250 C248 1.389 . S
C250 C251 1.524 . S
C250 C264 1.377 . S
C251 C250 1.524 . S
C251 C252 1.397 . S
C251 C256 1.363 . S
C252 H229 0.950 . S
C252 C251 1.397 . S
C252 C253 1.334 . S
C253 H230 0.950 . S
C253 C252 1.334 . S
C253 C254 1.287 . S
C254 C253 1.287 . S
C254 C255 1.524 . S
C254 H273 0.913 . S
C255 H231 0.950 . S
C255 C254 1.524 . S
C255 C256 1.415 . S
C256 H232 0.950 . S
C256 C251 1.363 . S
C256 C255 1.415 . S
C257 H233 0.951 . S
C257 C258 1.366 . S
C257 C259 1.388 . S
C258 C257 1.366 . S
C258 C262 1.385 1_556 S
C259 H234 0.951 . S
C259 C257 1.388 . S
C259 C260 1.366 . S
C260 C259 1.366 . S
C260 C261 1.414 1_556 S
C260 C263 1.498 1_556 S
C261 H235 0.950 . S
C261 C260 1.414 1_554 S
C261 C262 1.374 . S
C262 H236 0.950 . S
C262 C258 1.385 1_554 S
C262 C261 1.374 . S
C263 C260 1.498 1_554 S
C263 C264 1.394 . S
C263 C265 1.370 1_554 S
C264 H237 0.950 . S
C264 C250 1.377 . S
C264 C263 1.394 . S
C265 C249 1.377 . S
C265 C263 1.370 1_556 S
C265 C266 1.524 . S
C266 C265 1.524 . S
C266 C267 1.397 . S
C266 C271 1.363 . S
C267 H238 0.950 . S
C267 C266 1.397 . S
C267 C268 1.334 . S
C268 H239 0.950 . S
C268 C267 1.334 . S
C268 C269 1.287 . S
C269 C268 1.287 . S
C269 C270 1.524 . S
C269 H272 0.999 . S
C270 H240 0.950 . S
C270 C269 1.524 . S
C270 C271 1.415 . S
C271 H241 0.950 . S
C271 C266 1.363 . S
C271 C270 1.415 . S
H272 C269 0.999 . S
H273 C254 0.913 . S
H274 C292 0.951 . S
H275 C294 0.951 . S
H276 C296 0.950 . S
H277 C297 0.950 . S
H278 C299 0.950 . S
H279 C302 0.950 1_554 S
H280 C303 0.950 . S
H281 C305 0.950 . S
H282 C306 0.950 . S
H283 C307 0.951 . S
H284 C309 0.951 . S
H285 C311 0.950 . S
H286 C312 0.950 . S
H287 C314 0.950 . S
H288 C317 0.950 1_556 S
H289 C318 0.950 . S
H290 C320 0.950 . S
H291 C321 0.950 . S
C292 H274 0.951 . S
C292 C293 1.366 1_556 S
C292 C294 1.388 . S
C293 C292 1.366 1_554 S
C293 C297 1.385 . S
C294 H275 0.951 . S
C294 C292 1.388 . S
C294 C295 1.366 1_556 S
C295 C294 1.366 1_554 S
C295 C296 1.414 . S
C295 C298 1.499 . S
C296 H276 0.950 . S
C296 C295 1.414 . S
C296 C297 1.374 . S
C297 H277 0.950 . S
C297 C293 1.385 . S
C297 C296 1.374 . S
C298 C295 1.499 . S
C298 C299 1.373 . S
C298 C300 1.389 1_554 S
C299 H278 0.950 . S
C299 C298 1.373 . S
C299 C315 1.377 . S
C300 C298 1.389 1_556 S
C300 C301 1.524 . S
C300 C314 1.377 . S
C301 C300 1.524 . S
C301 C302 1.397 . S
C301 C306 1.363 . S
C302 H279 0.950 1_556 S
C302 C301 1.397 . S
C302 C303 1.334 . S
C303 H280 0.950 . S
C303 C302 1.334 . S
C303 C304 1.287 . S
C304 C303 1.287 . S
C304 C305 1.524 . S
C304 H323 0.913 . S
C305 H281 0.950 . S
C305 C304 1.524 . S
C305 C306 1.415 . S
C306 H282 0.950 . S
C306 C301 1.363 . S
C306 C305 1.415 . S
C307 H283 0.951 . S
C307 C308 1.366 1_554 S
C307 C309 1.388 . S
C308 C307 1.366 1_556 S
C308 C312 1.385 . S
C309 H284 0.951 . S
C309 C307 1.388 . S
C309 C310 1.364 . S
C310 C309 1.364 . S
C310 C311 1.415 1_554 S
C310 C313 1.499 1_554 S
C311 H285 0.950 . S
C311 C310 1.415 1_556 S
C311 C312 1.374 . S
C312 H286 0.950 . S
C312 C308 1.385 . S
C312 C311 1.374 . S
C313 C310 1.499 1_556 S
C313 C314 1.374 . S
C313 C315 1.388 1_556 S
C314 H287 0.950 . S
C314 C300 1.377 . S
C314 C313 1.374 . S
C315 C299 1.377 . S
C315 C313 1.388 1_554 S
C315 C316 1.524 . S
C316 C315 1.524 . S
C316 C317 1.397 . S
C316 C321 1.363 . S
C317 H288 0.950 1_554 S
C317 C316 1.397 . S
C317 C318 1.334 . S
C318 H289 0.950 . S
C318 C317 1.334 . S
C318 C319 1.287 . S
C319 C318 1.287 . S
C319 C320 1.524 . S
C319 H322 0.999 . S
C320 H290 0.950 . S
C320 C319 1.524 . S
C320 C321 1.415 . S
C321 H291 0.950 . S
C321 C316 1.363 . S
C321 C320 1.415 . S
H322 C319 0.999 . S
H323 C304 0.913 . S
H324 C342 0.951 . S
H325 C344 0.949 1_556 S
H326 C346 0.950 . S
H327 C347 0.950 . S
H328 C349 0.950 . S
H329 C352 0.950 . S
H330 C353 0.950 . S
H331 C355 0.950 . S
H332 C356 0.950 . S
H333 C357 0.951 . S
H334 C359 0.951 . S
H335 C361 0.950 . S
H336 C362 0.950 . S
H337 C364 0.950 . S
H338 C367 0.950 . S
H339 C368 0.950 . S
H340 C370 0.950 . S
H341 C371 0.950 . S
C342 H324 0.951 . S
C342 C343 1.366 . S
C342 C344 1.389 . S
C343 C342 1.366 . S
C343 C347 1.385 . S
C344 H325 0.949 1_554 S
C344 C342 1.389 . S
C344 C345 1.366 . S
C345 C344 1.366 . S
C345 C346 1.414 . S
C345 C348 1.500 . S
C346 H326 0.950 . S
C346 C345 1.414 . S
C346 C347 1.374 . S
C347 H327 0.950 . S
C347 C343 1.385 . S
C347 C346 1.374 . S
C348 C345 1.500 . S
C348 C349 1.392 . S
C348 C350 1.372 1_554 S
C349 H328 0.950 . S
C349 C348 1.392 . S
C349 C365 1.377 . S
C350 C348 1.372 1_556 S
C350 C351 1.524 . S
C350 C364 1.377 . S
C351 C350 1.524 . S
C351 C352 1.397 . S
C351 C356 1.363 . S
C352 H329 0.950 . S
C352 C351 1.397 . S
C352 C353 1.334 . S
C353 H330 0.950 . S
C353 C352 1.334 . S
C353 C354 1.287 . S
C354 C353 1.287 . S
C354 C355 1.524 . S
C354 H373 0.913 . S
C355 H331 0.950 . S
C355 C354 1.524 . S
C355 C356 1.415 . S
C356 H332 0.950 . S
C356 C351 1.363 . S
C356 C355 1.415 . S
C357 H333 0.951 . S
C357 C358 1.366 1_554 S
C357 C359 1.388 . S
C358 C357 1.366 1_556 S
C358 C362 1.385 . S
C359 H334 0.951 . S
C359 C357 1.388 . S
C359 C360 1.366 . S
C360 C359 1.366 . S
C360 C361 1.414 1_554 S
C360 C363 1.499 . S
C361 H335 0.950 . S
C361 C360 1.414 1_556 S
C361 C362 1.374 . S
C362 H336 0.950 . S
C362 C358 1.385 . S
C362 C361 1.374 . S
C363 C360 1.499 . S
C363 C364 1.373 1_554 S
C363 C365 1.389 . S
C364 H337 0.950 . S
C364 C350 1.377 . S
C364 C363 1.373 1_556 S
C365 C349 1.377 . S
C365 C363 1.389 . S
C365 C366 1.524 . S
C366 C365 1.524 . S
C366 C367 1.397 . S
C366 C371 1.363 . S
C367 H338 0.950 . S
C367 C366 1.397 . S
C367 C368 1.334 . S
C368 H339 0.950 . S
C368 C367 1.334 . S
C368 C369 1.287 . S
C369 C368 1.287 . S
C369 C370 1.524 . S
C369 H372 0.999 . S
C370 H340 0.950 . S
C370 C369 1.524 . S
C370 C371 1.415 . S
C371 H341 0.950 . S
C371 C366 1.363 . S
C371 C370 1.415 . S
H372 C369 0.999 . S
H373 C354 0.913 . S
H374 C392 0.951 . S
H375 C394 0.951 . S
H376 C396 0.950 . S
H377 C397 0.950 . S
H378 C399 0.950 . S
H379 C402 0.950 . S
H380 C403 0.950 . S
H381 C405 0.950 . S
H382 C406 0.950 . S
H383 C407 0.951 . S
H384 C409 0.951 . S
H385 C411 0.950 . S
H386 C412 0.950 . S
H387 C414 0.950 . S
H388 C417 0.950 . S
H389 C418 0.950 . S
H390 C420 0.950 . S
H391 C421 0.950 . S
C392 H374 0.951 . S
C392 C393 1.366 1_556 S
C392 C394 1.388 . S
C393 C392 1.366 1_554 S
C393 C397 1.385 . S
C394 H375 0.951 . S
C394 C392 1.388 . S
C394 C395 1.366 1_556 S
C395 C394 1.366 1_554 S
C395 C396 1.414 . S
C395 C398 1.499 . S
C396 H376 0.950 . S
C396 C395 1.414 . S
C396 C397 1.374 . S
C397 H377 0.950 . S
C397 C393 1.385 . S
C397 C396 1.374 . S
C398 C395 1.499 . S
C398 C399 1.373 . S
C398 C400 1.389 1_554 S
C399 H378 0.950 . S
C399 C398 1.373 . S
C399 C415 1.377 . S
C400 C398 1.389 1_556 S
C400 C401 1.524 . S
C400 C414 1.377 . S
C401 C400 1.524 . S
C401 C402 1.397 . S
C401 C406 1.363 . S
C402 H379 0.950 . S
C402 C401 1.397 . S
C402 C403 1.334 . S
C403 H380 0.950 . S
C403 C402 1.334 . S
C403 C404 1.287 . S
C404 C403 1.287 . S
C404 C405 1.524 . S
C404 H423 0.913 . S
C405 H381 0.950 . S
C405 C404 1.524 . S
C405 C406 1.415 . S
C406 H382 0.950 . S
C406 C401 1.363 . S
C406 C405 1.415 . S
C407 H383 0.951 . S
C407 C408 1.366 1_554 S
C407 C409 1.388 . S
C408 C407 1.366 1_556 S
C408 C412 1.385 . S
C409 H384 0.951 . S
C409 C407 1.388 . S
C409 C410 1.366 . S
C410 C409 1.366 . S
C410 C411 1.414 1_554 S
C410 C413 1.499 . S
C411 H385 0.950 . S
C411 C410 1.414 1_556 S
C411 C412 1.374 . S
C412 H386 0.950 . S
C412 C408 1.385 . S
C412 C411 1.374 . S
C413 C410 1.499 . S
C413 C414 1.373 1_554 S
C413 C415 1.389 . S
C414 H387 0.950 . S
C414 C400 1.377 . S
C414 C413 1.373 1_556 S
C415 C399 1.377 . S
C415 C413 1.389 . S
C415 C416 1.524 . S
C416 C415 1.524 . S
C416 C417 1.397 . S
C416 C421 1.363 . S
C417 H388 0.950 . S
C417 C416 1.397 . S
C417 C418 1.334 . S
C418 H389 0.950 . S
C418 C417 1.334 . S
C418 C419 1.287 . S
C419 C418 1.287 . S
C419 C420 1.524 . S
C419 H422 0.999 . S
C420 H390 0.950 . S
C420 C419 1.524 . S
C420 C421 1.415 . S
C421 H391 0.950 . S
C421 C416 1.363 . S
C421 C420 1.415 . S
H422 C419 0.999 . S
H423 C404 0.913 . S
H424 C442 0.951 . S
H425 C444 0.951 . S
H426 C446 0.950 . S
H427 C447 0.950 . S
H428 C449 0.950 . S
H429 C452 0.950 . S
H430 C453 0.950 . S
H431 C455 0.950 . S
H432 C456 0.950 . S
H433 C457 0.951 . S
H434 C459 0.951 . S
H435 C461 0.950 . S
H436 C462 0.950 . S
H437 C464 0.950 . S
H438 C467 0.950 . S
H439 C468 0.950 . S
H440 C470 0.950 . S
H441 C471 0.950 . S
C442 H424 0.951 . S
C442 C443 1.366 . S
C442 C444 1.388 . S
C443 C442 1.366 . S
C443 C447 1.385 . S
C444 H425 0.951 . S
C444 C442 1.388 . S
C444 C445 1.366 . S
C445 C444 1.366 . S
C445 C446 1.414 . S
C445 C448 1.499 . S
C446 H426 0.950 . S
C446 C445 1.414 . S
C446 C447 1.374 . S
C447 H427 0.950 . S
C447 C443 1.385 . S
C447 C446 1.374 . S
C448 C445 1.499 . S
C448 C449 1.373 . S
C448 C450 1.389 . S
C449 H428 0.950 . S
C449 C448 1.373 . S
C449 C465 1.377 1_545 S
C450 C448 1.389 . S
C450 C451 1.524 . S
C450 C464 1.377 1_545 S
C451 C450 1.524 . S
C451 C452 1.397 . S
C451 C456 1.363 . S
C452 H429 0.950 . S
C452 C451 1.397 . S
C452 C453 1.334 . S
C453 H430 0.950 . S
C453 C452 1.334 . S
C453 C454 1.287 . S
C454 C453 1.287 . S
C454 C455 1.524 . S
C454 H473 0.913 . S
C455 H431 0.950 . S
C455 C454 1.524 . S
C455 C456 1.415 . S
C456 H432 0.950 . S
C456 C451 1.363 . S
C456 C455 1.415 . S
C457 H433 0.951 . S
C457 C458 1.366 . S
C457 C459 1.388 . S
C458 C457 1.366 . S
C458 C462 1.385 . S
C459 H434 0.951 . S
C459 C457 1.388 . S
C459 C460 1.366 . S
C460 C459 1.366 . S
C460 C461 1.414 . S
C460 C463 1.499 . S
C461 H435 0.950 . S
C461 C460 1.414 . S
C461 C462 1.374 . S
C462 H436 0.950 . S
C462 C458 1.385 . S
C462 C461 1.374 . S
C463 C460 1.499 . S
C463 C464 1.373 . S
C463 C465 1.389 . S
C464 H437 0.950 . S
C464 C450 1.377 1_565 S
C464 C463 1.373 . S
C465 C449 1.377 1_565 S
C465 C463 1.389 . S
C465 C466 1.524 . S
C466 C465 1.524 . S
C466 C467 1.397 . S
C466 C471 1.363 . S
C467 H438 0.950 . S
C467 C466 1.397 . S
C467 C468 1.334 . S
C468 H439 0.950 . S
C468 C467 1.334 . S
C468 C469 1.287 . S
C469 C468 1.287 . S
C469 C470 1.524 . S
C469 H472 0.999 . S
C470 H440 0.950 . S
C470 C469 1.524 . S
C470 C471 1.415 . S
C471 H441 0.950 . S
C471 C466 1.363 . S
C471 C470 1.415 . S
H472 C469 0.999 . S
H473 C454 0.913 . S
H474 C492 0.951 . S
H475 C494 0.951 . S
H476 C496 0.950 . S
H477 C497 0.950 . S
H478 C499 0.950 . S
H479 C502 0.950 . S
H480 C503 0.950 . S
H481 C505 0.950 . S
H482 C506 0.950 . S
H483 C507 0.951 . S
H484 C509 0.951 . S
H485 C511 0.950 . S
H486 C512 0.950 . S
H487 C514 0.950 . S
H488 C517 0.950 . S
H489 C518 0.950 . S
H490 C520 0.950 . S
H491 C521 0.950 . S
C492 H474 0.951 . S
C492 C493 1.366 . S
C492 C494 1.388 . S
C493 C492 1.366 . S
C493 C497 1.385 . S
C494 H475 0.951 . S
C494 C492 1.388 . S
C494 C495 1.366 . S
C495 C494 1.366 . S
C495 C496 1.414 . S
C495 C498 1.499 . S
C496 H476 0.950 . S
C496 C495 1.414 . S
C496 C497 1.374 . S
C497 H477 0.950 . S
C497 C493 1.385 . S
C497 C496 1.374 . S
C498 C495 1.499 . S
C498 C499 1.373 . S
C498 C500 1.389 . S
C499 H478 0.950 . S
C499 C498 1.373 . S
C499 C515 1.377 1_655 S
C500 C498 1.389 . S
C500 C501 1.524 . S
C500 C514 1.377 1_655 S
C501 C500 1.524 . S
C501 C502 1.397 . S
C501 C506 1.363 . S
C502 H479 0.950 . S
C502 C501 1.397 . S
C502 C503 1.334 . S
C503 H480 0.950 . S
C503 C502 1.334 . S
C503 C504 1.287 . S
C504 C503 1.287 . S
C504 C505 1.524 . S
C504 H523 0.913 . S
C505 H481 0.950 . S
C505 C504 1.524 . S
C505 C506 1.415 . S
C506 H482 0.950 . S
C506 C501 1.363 . S
C506 C505 1.415 . S
C507 H483 0.951 . S
C507 C508 1.366 . S
C507 C509 1.388 . S
C508 C507 1.366 . S
C508 C512 1.385 . S
C509 H484 0.951 . S
C509 C507 1.388 . S
C509 C510 1.366 . S
C510 C509 1.366 . S
C510 C511 1.414 . S
C510 C513 1.499 . S
C511 H485 0.950 . S
C511 C510 1.414 . S
C511 C512 1.374 . S
C512 H486 0.950 . S
C512 C508 1.385 . S
C512 C511 1.374 . S
C513 C510 1.499 . S
C513 C514 1.373 . S
C513 C515 1.389 . S
C514 H487 0.950 . S
C514 C500 1.377 1_455 S
C514 C513 1.373 . S
C515 C499 1.377 1_455 S
C515 C513 1.389 . S
C515 C516 1.524 . S
C516 C515 1.524 . S
C516 C517 1.397 . S
C516 C521 1.363 . S
C517 H488 0.950 . S
C517 C516 1.397 . S
C517 C518 1.334 . S
C518 H489 0.950 . S
C518 C517 1.334 . S
C518 C519 1.287 . S
C519 C518 1.287 . S
C519 C520 1.524 . S
C519 H522 0.999 . S
C520 H490 0.950 . S
C520 C519 1.524 . S
C520 C521 1.415 . S
C521 H491 0.950 . S
C521 C516 1.363 . S
C521 C520 1.415 . S
H522 C519 0.999 . S
H523 C504 0.913 . S
H524 C542 0.951 . S
H525 C544 0.951 . S
H526 C546 0.950 . S
H527 C547 0.950 . S
H528 C549 0.950 . S
H529 C552 0.950 . S
H530 C553 0.950 . S
H531 C555 0.950 . S
H532 C556 0.950 . S
H533 C557 0.951 . S
H534 C559 0.951 . S
H535 C561 0.950 . S
H536 C562 0.950 . S
H537 C564 0.950 . S
H538 C567 0.950 . S
H539 C568 0.950 . S
H540 C570 0.950 . S
H541 C571 0.950 . S
C542 H524 0.951 . S
C542 C543 1.366 . S
C542 C544 1.388 . S
C543 C542 1.366 . S
C543 C547 1.385 . S
C544 H525 0.951 . S
C544 C542 1.388 . S
C544 C545 1.366 . S
C545 C544 1.366 . S
C545 C546 1.414 . S
C545 C548 1.499 . S
C546 H526 0.950 . S
C546 C545 1.414 . S
C546 C547 1.374 . S
C547 H527 0.950 . S
C547 C543 1.385 . S
C547 C546 1.374 . S
C548 C545 1.499 . S
C548 C549 1.373 . S
C548 C550 1.389 . S
C549 H528 0.950 . S
C549 C548 1.373 . S
C549 C565 1.377 1_545 S
C550 C548 1.389 . S
C550 C551 1.524 . S
C550 C564 1.377 1_545 S
C551 C550 1.524 . S
C551 C552 1.397 . S
C551 C556 1.363 . S
C552 H529 0.950 . S
C552 C551 1.397 . S
C552 C553 1.334 . S
C553 H530 0.950 . S
C553 C552 1.334 . S
C553 C554 1.287 . S
C554 C553 1.287 . S
C554 C555 1.524 . S
C554 H573 0.913 . S
C555 H531 0.950 . S
C555 C554 1.524 . S
C555 C556 1.415 . S
C556 H532 0.950 . S
C556 C551 1.363 . S
C556 C555 1.415 . S
C557 H533 0.951 . S
C557 C558 1.366 . S
C557 C559 1.388 . S
C558 C557 1.366 . S
C558 C562 1.385 . S
C559 H534 0.951 . S
C559 C557 1.388 . S
C559 C560 1.366 . S
C560 C559 1.366 . S
C560 C561 1.414 . S
C560 C563 1.499 . S
C561 H535 0.950 . S
C561 C560 1.414 . S
C561 C562 1.374 . S
C562 H536 0.950 . S
C562 C558 1.385 . S
C562 C561 1.374 . S
C563 C560 1.499 . S
C563 C564 1.373 . S
C563 C565 1.389 . S
C564 H537 0.950 . S
C564 C550 1.377 1_565 S
C564 C563 1.373 . S
C565 C549 1.377 1_565 S
C565 C563 1.389 . S
C565 C566 1.524 . S
C566 C565 1.524 . S
C566 C567 1.397 . S
C566 C571 1.363 . S
C567 H538 0.950 . S
C567 C566 1.397 . S
C567 C568 1.334 . S
C568 H539 0.950 . S
C568 C567 1.334 . S
C568 C569 1.287 . S
C569 C568 1.287 . S
C569 C570 1.524 . S
C569 H572 0.999 . S
C570 H540 0.950 . S
C570 C569 1.524 . S
C570 C571 1.415 . S
C571 H541 0.950 . S
C571 C566 1.363 . S
C571 C570 1.415 . S
H572 C569 0.999 . S
H573 C554 0.913 . S
H574 C592 0.951 . S
H575 C594 0.951 . S
H576 C596 0.950 . S
H577 C597 0.950 . S
H578 C599 0.950 . S
H579 C602 0.950 . S
H580 C603 0.950 . S
H581 C605 0.950 . S
H582 C606 0.950 . S
H583 C607 0.951 . S
H584 C609 0.951 . S
H585 C611 0.950 . S
H586 C612 0.950 . S
H587 C614 0.950 . S
H588 C617 0.950 . S
H589 C618 0.950 . S
H590 C620 0.950 . S
H591 C621 0.950 . S
C592 H574 0.951 . S
C592 C593 1.366 . S
C592 C594 1.388 . S
C593 C592 1.366 . S
C593 C597 1.385 . S
C594 H575 0.951 . S
C594 C592 1.388 . S
C594 C595 1.366 . S
C595 C594 1.366 . S
C595 C596 1.414 . S
C595 C598 1.499 . S
C596 H576 0.950 . S
C596 C595 1.414 . S
C596 C597 1.374 . S
C597 H577 0.950 . S
C597 C593 1.385 . S
C597 C596 1.374 . S
C598 C595 1.499 . S
C598 C599 1.373 . S
C598 C600 1.389 . S
C599 H578 0.950 . S
C599 C598 1.373 . S
C599 C615 1.377 1_455 S
C600 C598 1.389 . S
C600 C601 1.524 . S
C600 C614 1.377 1_455 S
C601 C600 1.524 . S
C601 C602 1.397 . S
C601 C606 1.363 . S
C602 H579 0.950 . S
C602 C601 1.397 . S
C602 C603 1.334 . S
C603 H580 0.950 . S
C603 C602 1.334 . S
C603 C604 1.287 . S
C604 C603 1.287 . S
C604 C605 1.524 . S
C604 H623 0.913 . S
C605 H581 0.950 . S
C605 C604 1.524 . S
C605 C606 1.415 . S
C606 H582 0.950 . S
C606 C601 1.363 . S
C606 C605 1.415 . S
C607 H583 0.951 . S
C607 C608 1.366 . S
C607 C609 1.388 . S
C608 C607 1.366 . S
C608 C612 1.385 . S
C609 H584 0.951 . S
C609 C607 1.388 . S
C609 C610 1.366 . S
C610 C609 1.366 . S
C610 C611 1.414 . S
C610 C613 1.499 . S
C611 H585 0.950 . S
C611 C610 1.414 . S
C611 C612 1.374 . S
C612 H586 0.950 . S
C612 C608 1.385 . S
C612 C611 1.374 . S
C613 C610 1.499 . S
C613 C614 1.373 . S
C613 C615 1.389 . S
C614 H587 0.950 . S
C614 C600 1.377 1_655 S
C614 C613 1.373 . S
C615 C599 1.377 1_655 S
C615 C613 1.389 . S
C615 C616 1.524 . S
C616 C615 1.524 . S
C616 C617 1.397 . S
C616 C621 1.363 . S
C617 H588 0.950 . S
C617 C616 1.397 . S
C617 C618 1.334 . S
C618 H589 0.950 . S
C618 C617 1.334 . S
C618 C619 1.287 . S
C619 C618 1.287 . S
C619 C620 1.524 . S
C619 H622 0.999 . S
C620 H590 0.950 . S
C620 C619 1.524 . S
C620 C621 1.415 . S
C621 H591 0.950 . S
C621 C616 1.363 . S
C621 C620 1.415 . S
H622 C619 0.999 . S
H623 C604 0.913 . S
H624 C642 0.951 . S
H625 C644 0.951 . S
H626 C646 0.950 . S
H627 C647 0.950 . S
H628 C649 0.950 . S
H629 C652 0.950 . S
H630 C653 0.950 . S
H631 C655 0.950 . S
H632 C656 0.950 . S
H633 C657 0.951 . S
H634 C659 0.953 . S
H635 C661 0.950 . S
H636 C662 0.950 . S
H637 C664 0.950 . S
H638 C667 0.950 . S
H639 C668 0.950 . S
H640 C670 0.950 . S
H641 C671 0.950 . S
C642 H624 0.951 . S
C642 C643 1.366 . S
C642 C644 1.388 . S
C643 C642 1.366 . S
C643 C647 1.385 1_554 S
C644 H625 0.951 . S
C644 C642 1.388 . S
C644 C645 1.364 1_554 S
C645 C644 1.364 1_556 S
C645 C646 1.415 . S
C645 C648 1.499 . S
C646 H626 0.950 . S
C646 C645 1.415 . S
C646 C647 1.374 . S
C647 H627 0.950 . S
C647 C643 1.385 1_556 S
C647 C646 1.374 . S
C648 C645 1.499 . S
C648 C649 1.365 1_556 S
C648 C650 1.396 . S
C649 H628 0.950 . S
C649 C648 1.365 1_554 S
C649 C665 1.377 . S
C650 C648 1.396 . S
C650 C651 1.524 . S
C650 C664 1.377 . S
C651 C650 1.524 . S
C651 C652 1.397 . S
C651 C656 1.363 . S
C652 H629 0.950 . S
C652 C651 1.397 . S
C652 C653 1.334 . S
C653 H630 0.950 . S
C653 C652 1.334 . S
C653 C654 1.287 . S
C654 C653 1.287 . S
C654 C655 1.524 . S
C654 H673 0.913 . S
C655 H631 0.950 . S
C655 C654 1.524 . S
C655 C656 1.415 . S
C656 H632 0.950 . S
C656 C651 1.363 . S
C656 C655 1.415 . S
C657 H633 0.951 . S
C657 C658 1.366 1_556 S
C657 C659 1.388 . S
C658 C657 1.366 1_554 S
C658 C662 1.385 . S
C659 H634 0.953 . S
C659 C657 1.388 . S
C659 C660 1.363 1_556 S
C660 C659 1.363 1_554 S
C660 C661 1.414 . S
C660 C663 1.499 . S
C661 H635 0.950 . S
C661 C660 1.414 . S
C661 C662 1.374 . S
C662 H636 0.950 . S
C662 C658 1.385 . S
C662 C661 1.374 . S
C663 C660 1.499 . S
C663 C664 1.373 1_554 S
C663 C665 1.389 . S
C664 H637 0.950 . S
C664 C650 1.377 . S
C664 C663 1.373 1_556 S
C665 C649 1.377 . S
C665 C663 1.389 . S
C665 C666 1.524 . S
C666 C665 1.524 . S
C666 C667 1.397 . S
C666 C671 1.363 . S
C667 H638 0.950 . S
C667 C666 1.397 . S
C667 C668 1.334 . S
C668 H639 0.950 . S
C668 C667 1.334 . S
C668 C669 1.287 . S
C669 C668 1.287 . S
C669 C670 1.524 . S
C669 H672 0.999 . S
C670 H640 0.950 . S
C670 C669 1.524 . S
C670 C671 1.415 . S
C671 H641 0.950 . S
C671 C666 1.363 . S
C671 C670 1.415 . S
H672 C669 0.999 . S
H673 C654 0.913 . S
H674 C692 0.951 . S
H675 C694 0.951 . S
H676 C696 0.950 . S
H677 C697 0.950 . S
H678 C699 0.950 . S
H679 C702 0.950 . S
H680 C703 0.950 . S
H681 C705 0.950 . S
H682 C706 0.950 . S
H683 C707 0.951 . S
H684 C709 0.951 . S
H685 C711 0.950 . S
H686 C712 0.950 . S
H687 C714 0.950 . S
H688 C717 0.950 . S
H689 C718 0.950 . S
H690 C720 0.950 . S
H691 C721 0.950 . S
C692 H674 0.951 . S
C692 C693 1.366 . S
C692 C694 1.388 . S
C693 C692 1.366 . S
C693 C697 1.385 1_554 S
C694 H675 0.951 . S
C694 C692 1.388 . S
C694 C695 1.366 . S
C695 C694 1.366 . S
C695 C696 1.414 1_554 S
C695 C698 1.499 . S
C696 H676 0.950 . S
C696 C695 1.414 1_556 S
C696 C697 1.374 . S
C697 H677 0.950 . S
C697 C693 1.385 1_556 S
C697 C696 1.374 . S
C698 C695 1.499 . S
C698 C699 1.373 1_554 S
C698 C700 1.389 . S
C699 H678 0.950 . S
C699 C698 1.373 1_556 S
C699 C715 1.377 . S
C700 C698 1.389 . S
C700 C701 1.524 . S
C700 C714 1.377 . S
C701 C700 1.524 . S
C701 C702 1.397 . S
C701 C706 1.363 . S
C702 H679 0.950 . S
C702 C701 1.397 . S
C702 C703 1.334 . S
C703 H680 0.950 . S
C703 C702 1.334 . S
C703 C704 1.287 . S
C704 C703 1.287 . S
C704 C705 1.524 . S
C704 H723 0.913 . S
C705 H681 0.950 . S
C705 C704 1.524 . S
C705 C706 1.415 . S
C706 H682 0.950 . S
C706 C701 1.363 . S
C706 C705 1.415 . S
C707 H683 0.951 . S
C707 C708 1.366 1_556 S
C707 C709 1.388 . S
C708 C707 1.366 1_554 S
C708 C712 1.385 . S
C709 H684 0.951 . S
C709 C707 1.388 . S
C709 C710 1.365 1_556 S
C710 C709 1.365 1_554 S
C710 C711 1.414 . S
C710 C713 1.498 . S
C711 H685 0.950 . S
C711 C710 1.414 . S
C711 C712 1.374 . S
C712 H686 0.950 . S
C712 C708 1.385 . S
C712 C711 1.374 . S
C713 C710 1.498 . S
C713 C714 1.397 . S
C713 C715 1.367 1_554 S
C714 H687 0.950 . S
C714 C700 1.377 . S
C714 C713 1.397 . S
C715 C699 1.377 . S
C715 C713 1.367 1_556 S
C715 C716 1.524 . S
C716 C715 1.524 . S
C716 C717 1.397 . S
C716 C721 1.363 . S
C717 H688 0.950 . S
C717 C716 1.397 . S
C717 C718 1.334 . S
C718 H689 0.950 . S
C718 C717 1.334 . S
C718 C719 1.287 . S
C719 C718 1.287 . S
C719 C720 1.524 . S
C719 H722 0.999 . S
C720 H690 0.950 . S
C720 C719 1.524 . S
C720 C721 1.415 . S
C721 H691 0.950 . S
C721 C716 1.363 . S
C721 C720 1.415 . S
H722 C719 0.999 . S
H723 C704 0.913 . S
H724 C742 0.951 . S
H725 C744 0.951 . S
H726 C746 0.950 . S
H727 C747 0.950 . S
H728 C749 0.950 . S
H729 C752 0.950 . S
H730 C753 0.950 . S
H731 C755 0.950 . S
H732 C756 0.950 . S
H733 C757 0.951 . S
H734 C759 0.951 . S
H735 C761 0.950 . S
H736 C762 0.950 . S
H737 C764 0.950 . S
H738 C767 0.950 . S
H739 C768 0.950 . S
H740 C770 0.950 . S
H741 C771 0.950 . S
C742 H724 0.951 . S
C742 C743 1.366 . S
C742 C744 1.388 . S
C743 C742 1.366 . S
C743 C747 1.385 1_554 S
C744 H725 0.951 . S
C744 C742 1.388 . S
C744 C745 1.366 . S
C745 C744 1.366 . S
C745 C746 1.414 1_554 S
C745 C748 1.499 . S
C746 H726 0.950 . S
C746 C745 1.414 1_556 S
C746 C747 1.374 . S
C747 H727 0.950 . S
C747 C743 1.385 1_556 S
C747 C746 1.374 . S
C748 C745 1.499 . S
C748 C749 1.373 1_554 S
C748 C750 1.389 . S
C749 H728 0.950 . S
C749 C748 1.373 1_556 S
C749 C765 1.377 . S
C750 C748 1.389 . S
C750 C751 1.524 . S
C750 C764 1.377 . S
C751 C750 1.524 . S
C751 C752 1.397 . S
C751 C756 1.363 . S
C752 H729 0.950 . S
C752 C751 1.397 . S
C752 C753 1.334 . S
C753 H730 0.950 . S
C753 C752 1.334 . S
C753 C754 1.287 . S
C754 C753 1.287 . S
C754 C755 1.524 . S
C754 H773 0.913 . S
C755 H731 0.950 . S
C755 C754 1.524 . S
C755 C756 1.415 . S
C756 H732 0.950 . S
C756 C751 1.363 . S
C756 C755 1.415 . S
C757 H733 0.951 . S
C757 C758 1.366 1_556 S
C757 C759 1.388 . S
C758 C757 1.366 1_554 S
C758 C762 1.385 . S
C759 H734 0.951 . S
C759 C757 1.388 . S
C759 C760 1.364 1_556 S
C760 C759 1.364 1_554 S
C760 C761 1.416 . S
C760 C763 1.499 . S
C761 H735 0.950 . S
C761 C760 1.416 . S
C761 C762 1.374 . S
C762 H736 0.950 . S
C762 C758 1.385 . S
C762 C761 1.374 . S
C763 C760 1.499 . S
C763 C764 1.378 . S
C763 C765 1.385 1_554 S
C764 H737 0.950 . S
C764 C750 1.377 . S
C764 C763 1.378 . S
C765 C749 1.377 . S
C765 C763 1.385 1_556 S
C765 C766 1.524 . S
C766 C765 1.524 . S
C766 C767 1.397 . S
C766 C771 1.363 . S
C767 H738 0.950 . S
C767 C766 1.397 . S
C767 C768 1.334 . S
C768 H739 0.950 . S
C768 C767 1.334 . S
C768 C769 1.287 . S
C769 C768 1.287 . S
C769 C770 1.524 . S
C769 H772 0.999 . S
C770 H740 0.950 . S
C770 C769 1.524 . S
C770 C771 1.415 . S
C771 H741 0.950 . S
C771 C766 1.363 . S
C771 C770 1.415 . S
H772 C769 0.999 . S
H773 C754 0.913 . S
H774 C792 0.951 . S
H775 C794 0.951 . S
H776 C796 0.950 . S
H777 C797 0.950 . S
H778 C799 0.950 . S
H779 C802 0.950 . S
H780 C803 0.950 . S
H781 C805 0.950 . S
H782 C806 0.950 1_556 S
H783 C807 0.951 . S
H784 C809 0.951 . S
H785 C811 0.950 . S
H786 C812 0.950 . S
H787 C814 0.950 . S
H788 C817 0.950 . S
H789 C818 0.950 . S
H790 C820 0.950 . S
H791 C821 0.950 1_554 S
C792 H774 0.951 . S
C792 C793 1.366 1_556 S
C792 C794 1.388 . S
C793 C792 1.366 1_554 S
C793 C797 1.385 . S
C794 H775 0.951 . S
C794 C792 1.388 . S
C794 C795 1.366 1_556 S
C795 C794 1.366 1_554 S
C795 C796 1.414 . S
C795 C798 1.499 . S
C796 H776 0.950 . S
C796 C795 1.414 . S
C796 C797 1.374 . S
C797 H777 0.950 . S
C797 C793 1.385 . S
C797 C796 1.374 . S
C798 C795 1.499 . S
C798 C799 1.373 1_554 S
C798 C800 1.389 . S
C799 H778 0.950 . S
C799 C798 1.373 1_556 S
C799 C815 1.377 . S
C800 C798 1.389 . S
C800 C801 1.524 . S
C800 C814 1.377 . S
C801 C800 1.524 . S
C801 C802 1.397 . S
C801 C806 1.363 . S
C802 H779 0.950 . S
C802 C801 1.397 . S
C802 C803 1.334 . S
C803 H780 0.950 . S
C803 C802 1.334 . S
C803 C804 1.287 . S
C804 C803 1.287 . S
C804 C805 1.524 . S
C804 H823 0.913 . S
C805 H781 0.950 . S
C805 C804 1.524 . S
C805 C806 1.415 . S
C806 H782 0.950 1_554 S
C806 C801 1.363 . S
C806 C805 1.415 . S
C807 H783 0.951 . S
C807 C808 1.366 . S
C807 C809 1.388 . S
C808 C807 1.366 . S
C808 C812 1.385 1_554 S
C809 H784 0.951 . S
C809 C807 1.388 . S
C809 C810 1.367 1_554 S
C810 C809 1.367 1_556 S
C810 C811 1.413 . S
C810 C813 1.498 . S
C811 H785 0.950 . S
C811 C810 1.413 . S
C811 C812 1.374 . S
C812 H786 0.950 . S
C812 C808 1.385 1_556 S
C812 C811 1.374 . S
C813 C810 1.498 . S
C813 C814 1.369 1_556 S
C813 C815 1.393 . S
C814 H787 0.950 . S
C814 C800 1.377 . S
C814 C813 1.369 1_554 S
C815 C799 1.377 . S
C815 C813 1.393 . S
C815 C816 1.524 . S
C816 C815 1.524 . S
C816 C817 1.397 . S
C816 C821 1.363 . S
C817 H788 0.950 . S
C817 C816 1.397 . S
C817 C818 1.334 . S
C818 H789 0.950 . S
C818 C817 1.334 . S
C818 C819 1.287 . S
C819 C818 1.287 . S
C819 C820 1.524 . S
C819 H822 0.999 . S
C820 H790 0.950 . S
C820 C819 1.524 . S
C820 C821 1.415 . S
C821 H791 0.950 1_556 S
C821 C816 1.363 . S
C821 C820 1.415 . S
H822 C819 0.999 . S
H823 C804 0.913 . S
H824 C842 0.951 . S
H825 C844 0.951 . S
H826 C846 0.950 . S
H827 C847 0.950 . S
H828 C849 0.950 . S
H829 C852 0.950 . S
H830 C853 0.950 . S
H831 C855 0.950 . S
H832 C856 0.950 . S
H833 C857 0.951 . S
H834 C859 0.951 . S
H835 C861 0.950 . S
H836 C862 0.950 . S
H837 C864 0.950 . S
H838 C867 0.950 . S
H839 C868 0.950 . S
H840 C870 0.950 . S
H841 C871 0.950 . S
C842 H824 0.951 . S
C842 C843 1.366 . S
C842 C844 1.388 . S
C843 C842 1.366 . S
C843 C847 1.385 . S
C844 H825 0.951 . S
C844 C842 1.388 . S
C844 C845 1.366 . S
C845 C844 1.366 . S
C845 C846 1.414 . S
C845 C848 1.499 . S
C846 H826 0.950 . S
C846 C845 1.414 . S
C846 C847 1.374 . S
C847 H827 0.950 . S
C847 C843 1.385 . S
C847 C846 1.374 . S
C848 C845 1.499 . S
C848 C849 1.373 . S
C848 C850 1.389 . S
C849 H828 0.950 . S
C849 C848 1.373 . S
C849 C865 1.377 . S
C850 C848 1.389 . S
C850 C851 1.524 . S
C850 C864 1.377 . S
C851 C850 1.524 . S
C851 C852 1.397 . S
C851 C856 1.363 . S
C852 H829 0.950 . S
C852 C851 1.397 . S
C852 C853 1.334 . S
C853 H830 0.950 . S
C853 C852 1.334 . S
C853 C854 1.287 . S
C854 C853 1.287 . S
C854 C855 1.524 . S
C854 H873 0.913 . S
C855 H831 0.950 . S
C855 C854 1.524 . S
C855 C856 1.415 . S
C856 H832 0.950 . S
C856 C851 1.363 . S
C856 C855 1.415 . S
C857 H833 0.951 . S
C857 C858 1.366 . S
C857 C859 1.388 . S
C858 C857 1.366 . S
C858 C862 1.385 . S
C859 H834 0.951 . S
C859 C857 1.388 . S
C859 C860 1.366 . S
C860 C859 1.366 . S
C860 C861 1.414 . S
C860 C863 1.499 . S
C861 H835 0.950 . S
C861 C860 1.414 . S
C861 C862 1.374 . S
C862 H836 0.950 . S
C862 C858 1.385 . S
C862 C861 1.374 . S
C863 C860 1.499 . S
C863 C864 1.373 . S
C863 C865 1.389 . S
C864 H837 0.950 . S
C864 C850 1.377 . S
C864 C863 1.373 . S
C865 C849 1.377 . S
C865 C863 1.389 . S
C865 C866 1.524 . S
C866 C865 1.524 . S
C866 C867 1.397 . S
C866 C871 1.363 . S
C867 H838 0.950 . S
C867 C866 1.397 . S
C867 C868 1.334 . S
C868 H839 0.950 . S
C868 C867 1.334 . S
C868 C869 1.287 . S
C869 C868 1.287 . S
C869 C870 1.524 . S
C869 H872 0.999 . S
C870 H840 0.950 . S
C870 C869 1.524 . S
C870 C871 1.415 . S
C871 H841 0.950 . S
C871 C866 1.363 . S
C871 C870 1.415 . S
H872 C869 0.999 . S
H873 C854 0.913 . S
H874 C892 0.951 . S
H875 C894 0.951 . S
H876 C896 0.950 . S
H877 C897 0.950 . S
H878 C899 0.950 . S
H879 C902 0.950 . S
H880 C903 0.950 . S
H881 C905 0.950 . S
H882 C906 0.950 . S
H883 C907 0.951 . S
H884 C909 0.951 . S
H885 C911 0.950 . S
H886 C912 0.950 . S
H887 C914 0.950 . S
H888 C917 0.950 . S
H889 C918 0.950 . S
H890 C920 0.950 . S
H891 C921 0.950 . S
C892 H874 0.951 . S
C892 C893 1.366 . S
C892 C894 1.388 . S
C893 C892 1.366 . S
C893 C897 1.385 . S
C894 H875 0.951 . S
C894 C892 1.388 . S
C894 C895 1.366 . S
C895 C894 1.366 . S
C895 C896 1.414 . S
C895 C898 1.499 . S
C896 H876 0.950 . S
C896 C895 1.414 . S
C896 C897 1.374 . S
C897 H877 0.950 . S
C897 C893 1.385 . S
C897 C896 1.374 . S
C898 C895 1.499 . S
C898 C899 1.373 . S
C898 C900 1.389 . S
C899 H878 0.950 . S
C899 C898 1.373 . S
C899 C915 1.377 . S
C900 C898 1.389 . S
C900 C901 1.524 . S
C900 C914 1.377 . S
C901 C900 1.524 . S
C901 C902 1.397 . S
C901 C906 1.363 . S
C902 H879 0.950 . S
C902 C901 1.397 . S
C902 C903 1.334 . S
C903 H880 0.950 . S
C903 C902 1.334 . S
C903 C904 1.287 . S
C904 C903 1.287 . S
C904 C905 1.524 . S
C904 H923 0.913 . S
C905 H881 0.950 . S
C905 C904 1.524 . S
C905 C906 1.415 . S
C906 H882 0.950 . S
C906 C901 1.363 . S
C906 C905 1.415 . S
C907 H883 0.951 . S
C907 C908 1.366 . S
C907 C909 1.388 . S
C908 C907 1.366 . S
C908 C912 1.385 . S
C909 H884 0.951 . S
C909 C907 1.388 . S
C909 C910 1.366 . S
C910 C909 1.366 . S
C910 C911 1.414 . S
C910 C913 1.499 . S
C911 H885 0.950 . S
C911 C910 1.414 . S
C911 C912 1.374 . S
C912 H886 0.950 . S
C912 C908 1.385 . S
C912 C911 1.374 . S
C913 C910 1.499 . S
C913 C914 1.373 . S
C913 C915 1.389 . S
C914 H887 0.950 . S
C914 C900 1.377 . S
C914 C913 1.373 . S
C915 C899 1.377 . S
C915 C913 1.389 . S
C915 C916 1.524 . S
C916 C915 1.524 . S
C916 C917 1.397 . S
C916 C921 1.363 . S
C917 H888 0.950 . S
C917 C916 1.397 . S
C917 C918 1.334 . S
C918 H889 0.950 . S
C918 C917 1.334 . S
C918 C919 1.287 . S
C919 C918 1.287 . S
C919 C920 1.524 . S
C919 H922 0.999 . S
C920 H890 0.950 . S
C920 C919 1.524 . S
C920 C921 1.415 . S
C921 H891 0.950 . S
C921 C916 1.363 . S
C921 C920 1.415 . S
H922 C919 0.999 . S
H923 C904 0.913 . S
H924 C942 0.951 . S
H925 C944 0.951 . S
H926 C946 0.950 . S
H927 C947 0.950 . S
H928 C949 0.950 . S
H929 C952 0.950 . S
H930 C953 0.950 . S
H931 C955 0.950 . S
H932 C956 0.950 . S
H933 C957 0.951 . S
H934 C959 0.951 . S
H935 C961 0.950 . S
H936 C962 0.950 . S
H937 C964 0.950 . S
H938 C967 0.950 . S
H939 C968 0.950 . S
H940 C970 0.950 . S
H941 C971 0.950 . S
C942 H924 0.951 . S
C942 C943 1.366 . S
C942 C944 1.388 . S
C943 C942 1.366 . S
C943 C947 1.385 . S
C944 H925 0.951 . S
C944 C942 1.388 . S
C944 C945 1.366 . S
C945 C944 1.366 . S
C945 C946 1.414 . S
C945 C948 1.499 . S
C946 H926 0.950 . S
C946 C945 1.414 . S
C946 C947 1.374 . S
C947 H927 0.950 . S
C947 C943 1.385 . S
C947 C946 1.374 . S
C948 C945 1.499 . S
C948 C949 1.373 . S
C948 C950 1.389 . S
C949 H928 0.950 . S
C949 C948 1.373 . S
C949 C965 1.377 . S
C950 C948 1.389 . S
C950 C951 1.524 . S
C950 C964 1.377 . S
C951 C950 1.524 . S
C951 C952 1.397 . S
C951 C956 1.363 . S
C952 H929 0.950 . S
C952 C951 1.397 . S
C952 C953 1.334 . S
C953 H930 0.950 . S
C953 C952 1.334 . S
C953 C954 1.287 . S
C954 C953 1.287 . S
C954 C955 1.524 . S
C954 H973 0.913 . S
C955 H931 0.950 . S
C955 C954 1.524 . S
C955 C956 1.415 . S
C956 H932 0.950 . S
C956 C951 1.363 . S
C956 C955 1.415 . S
C957 H933 0.951 . S
C957 C958 1.366 . S
C957 C959 1.388 . S
C958 C957 1.366 . S
C958 C962 1.385 . S
C959 H934 0.951 . S
C959 C957 1.388 . S
C959 C960 1.366 . S
C960 C959 1.366 . S
C960 C961 1.414 . S
C960 C963 1.499 . S
C961 H935 0.950 . S
C961 C960 1.414 . S
C961 C962 1.374 . S
C962 H936 0.950 . S
C962 C958 1.385 . S
C962 C961 1.374 . S
C963 C960 1.499 . S
C963 C964 1.373 . S
C963 C965 1.389 . S
C964 H937 0.950 . S
C964 C950 1.377 . S
C964 C963 1.373 . S
C965 C949 1.377 . S
C965 C963 1.389 . S
C965 C966 1.524 . S
C966 C965 1.524 . S
C966 C967 1.397 . S
C966 C971 1.363 . S
C967 H938 0.950 . S
C967 C966 1.397 . S
C967 C968 1.334 . S
C968 H939 0.950 . S
C968 C967 1.334 . S
C968 C969 1.287 . S
C969 C968 1.287 . S
C969 C970 1.524 . S
C969 H972 0.999 . S
C970 H940 0.950 . S
C970 C969 1.524 . S
C970 C971 1.415 . S
C971 H941 0.950 . S
C971 C966 1.363 . S
C971 C970 1.415 . S
H972 C969 0.999 . S
H973 C954 0.913 . S
H974 C992 0.951 . S
H975 C994 0.951 . S
H976 C996 0.950 . S
H977 C997 0.950 . S
H978 C999 0.950 . S
H979 C1002 0.950 . S
H980 C1003 0.950 . S
H981 C1005 0.950 . S
H982 C1006 0.950 . S
H983 C1007 0.951 . S
H984 C1009 0.951 . S
H985 C1011 0.950 . S
H986 C1012 0.950 . S
H987 C1014 0.950 . S
H988 C1017 0.950 . S
H989 C1018 0.950 . S
H990 C1020 0.950 . S
H991 C1021 0.950 . S
C992 H974 0.951 . S
C992 C993 1.366 . S
C992 C994 1.388 . S
C993 C992 1.366 . S
C993 C997 1.385 . S
C994 H975 0.951 . S
C994 C992 1.388 . S
C994 C995 1.366 . S
C995 C994 1.366 . S
C995 C996 1.414 . S
C995 C998 1.499 . S
C996 H976 0.950 . S
C996 C995 1.414 . S
C996 C997 1.374 . S
C997 H977 0.950 . S
C997 C993 1.385 . S
C997 C996 1.374 . S
C998 C995 1.499 . S
C998 C999 1.373 . S
C998 C1000 1.389 . S
C999 H978 0.950 . S
C999 C998 1.373 . S
C999 C1015 1.377 . S
C1000 C998 1.389 . S
C1000 C1001 1.524 . S
C1000 C1014 1.377 . S
C1001 C1000 1.524 . S
C1001 C1002 1.397 . S
C1001 C1006 1.363 . S
C1002 H979 0.950 . S
C1002 C1001 1.397 . S
C1002 C1003 1.334 . S
C1003 H980 0.950 . S
C1003 C1002 1.334 . S
C1003 C1004 1.287 . S
C1004 C1003 1.287 . S
C1004 C1005 1.524 . S
C1004 H1023 0.913 . S
C1005 H981 0.950 . S
C1005 C1004 1.524 . S
C1005 C1006 1.415 . S
C1006 H982 0.950 . S
C1006 C1001 1.363 . S
C1006 C1005 1.415 . S
C1007 H983 0.951 . S
C1007 C1008 1.366 . S
C1007 C1009 1.388 . S
C1008 C1007 1.366 . S
C1008 C1012 1.385 . S
C1009 H984 0.951 . S
C1009 C1007 1.388 . S
C1009 C1010 1.366 . S
C1010 C1009 1.366 . S
C1010 C1011 1.414 . S
C1010 C1013 1.499 . S
C1011 H985 0.950 . S
C1011 C1010 1.414 . S
C1011 C1012 1.374 . S
C1012 H986 0.950 . S
C1012 C1008 1.385 . S
C1012 C1011 1.374 . S
C1013 C1010 1.499 . S
C1013 C1014 1.373 . S
C1013 C1015 1.389 . S
C1014 H987 0.950 . S
C1014 C1000 1.377 . S
C1014 C1013 1.373 . S
C1015 C999 1.377 . S
C1015 C1013 1.389 . S
C1015 C1016 1.524 . S
C1016 C1015 1.524 . S
C1016 C1017 1.397 . S
C1016 C1021 1.363 . S
C1017 H988 0.950 . S
C1017 C1016 1.397 . S
C1017 C1018 1.334 . S
C1018 H989 0.950 . S
C1018 C1017 1.334 . S
C1018 C1019 1.287 . S
C1019 C1018 1.287 . S
C1019 C1020 1.524 . S
C1019 H1022 0.999 . S
C1020 H990 0.950 . S
C1020 C1019 1.524 . S
C1020 C1021 1.415 . S
C1021 H991 0.950 . S
C1021 C1016 1.363 . S
C1021 C1020 1.415 . S
H1022 C1019 0.999 . S
H1023 C1004 0.913 . S
H1024 C1042 0.951 . S
H1025 C1044 0.951 . S
H1026 C1046 0.950 . S
H1027 C1047 0.950 . S
H1028 C1049 0.950 . S
H1029 C1052 0.950 . S
H1030 C1053 0.950 . S
H1031 C1055 0.950 . S
H1032 C1056 0.950 . S
H1033 C1057 0.951 . S
H1034 C1059 0.951 . S
H1035 C1061 0.950 . S
H1036 C1062 0.950 . S
H1037 C1064 0.950 . S
H1038 C1067 0.950 . S
H1039 C1068 0.950 . S
H1040 C1070 0.950 . S
H1041 C1071 0.950 . S
C1042 H1024 0.951 . S
C1042 C1043 1.366 . S
C1042 C1044 1.388 . S
C1043 C1042 1.366 . S
C1043 C1047 1.385 . S
C1044 H1025 0.951 . S
C1044 C1042 1.388 . S
C1044 C1045 1.366 . S
C1045 C1044 1.366 . S
C1045 C1046 1.414 . S
C1045 C1048 1.499 . S
C1046 H1026 0.950 . S
C1046 C1045 1.414 . S
C1046 C1047 1.374 . S
C1047 H1027 0.950 . S
C1047 C1043 1.385 . S
C1047 C1046 1.374 . S
C1048 C1045 1.499 . S
C1048 C1049 1.373 . S
C1048 C1050 1.389 . S
C1049 H1028 0.950 . S
C1049 C1048 1.373 . S
C1049 C1065 1.377 . S
C1050 C1048 1.389 . S
C1050 C1051 1.524 . S
C1050 C1064 1.377 . S
C1051 C1050 1.524 . S
C1051 C1052 1.397 . S
C1051 C1056 1.363 . S
C1052 H1029 0.950 . S
C1052 C1051 1.397 . S
C1052 C1053 1.334 . S
C1053 H1030 0.950 . S
C1053 C1052 1.334 . S
C1053 C1054 1.287 . S
C1054 C1053 1.287 . S
C1054 C1055 1.524 . S
C1054 H1073 0.913 . S
C1055 H1031 0.950 . S
C1055 C1054 1.524 . S
C1055 C1056 1.415 . S
C1056 H1032 0.950 . S
C1056 C1051 1.363 . S
C1056 C1055 1.415 . S
C1057 H1033 0.951 . S
C1057 C1058 1.366 . S
C1057 C1059 1.388 . S
C1058 C1057 1.366 . S
C1058 C1062 1.385 . S
C1059 H1034 0.951 . S
C1059 C1057 1.388 . S
C1059 C1060 1.366 . S
C1060 C1059 1.366 . S
C1060 C1061 1.414 . S
C1060 C1063 1.499 . S
C1061 H1035 0.950 . S
C1061 C1060 1.414 . S
C1061 C1062 1.374 . S
C1062 H1036 0.950 . S
C1062 C1058 1.385 . S
C1062 C1061 1.374 . S
C1063 C1060 1.499 . S
C1063 C1064 1.373 . S
C1063 C1065 1.389 . S
C1064 H1037 0.950 . S
C1064 C1050 1.377 . S
C1064 C1063 1.373 . S
C1065 C1049 1.377 . S
C1065 C1063 1.389 . S
C1065 C1066 1.524 . S
C1066 C1065 1.524 . S
C1066 C1067 1.397 . S
C1066 C1071 1.363 . S
C1067 H1038 0.950 . S
C1067 C1066 1.397 . S
C1067 C1068 1.334 . S
C1068 H1039 0.950 . S
C1068 C1067 1.334 . S
C1068 C1069 1.287 . S
C1069 C1068 1.287 . S
C1069 C1070 1.524 . S
C1069 H1072 0.999 . S
C1070 H1040 0.950 . S
C1070 C1069 1.524 . S
C1070 C1071 1.415 . S
C1071 H1041 0.950 . S
C1071 C1066 1.363 . S
C1071 C1070 1.415 . S
H1072 C1069 0.999 . S
H1073 C1054 0.913 . S
H1074 C1092 0.951 . S
H1075 C1094 0.951 . S
H1076 C1096 0.950 . S
H1077 C1097 0.950 . S
H1078 C1099 0.950 . S
H1079 C1102 0.950 . S
H1080 C1103 0.950 . S
H1081 C1105 0.950 . S
H1082 C1106 0.950 . S
H1083 C1107 0.951 . S
H1084 C1109 0.951 . S
H1085 C1111 0.950 . S
H1086 C1112 0.950 . S
H1087 C1114 0.950 . S
H1088 C1117 0.950 . S
H1089 C1118 0.950 . S
H1090 C1120 0.950 . S
H1091 C1121 0.950 . S
C1092 H1074 0.951 . S
C1092 C1093 1.366 . S
C1092 C1094 1.388 . S
C1093 C1092 1.366 . S
C1093 C1097 1.385 . S
C1094 H1075 0.951 . S
C1094 C1092 1.388 . S
C1094 C1095 1.366 . S
C1095 C1094 1.366 . S
C1095 C1096 1.414 . S
C1095 C1098 1.499 . S
C1096 H1076 0.950 . S
C1096 C1095 1.414 . S
C1096 C1097 1.374 . S
C1097 H1077 0.950 . S
C1097 C1093 1.385 . S
C1097 C1096 1.374 . S
C1098 C1095 1.499 . S
C1098 C1099 1.373 . S
C1098 C1100 1.389 . S
C1099 H1078 0.950 . S
C1099 C1098 1.373 . S
C1099 C1115 1.377 . S
C1100 C1098 1.389 . S
C1100 C1101 1.524 . S
C1100 C1114 1.377 . S
C1101 C1100 1.524 . S
C1101 C1102 1.397 . S
C1101 C1106 1.363 . S
C1102 H1079 0.950 . S
C1102 C1101 1.397 . S
C1102 C1103 1.334 . S
C1103 H1080 0.950 . S
C1103 C1102 1.334 . S
C1103 C1104 1.287 . S
C1104 C1103 1.287 . S
C1104 C1105 1.524 . S
C1104 H1123 0.913 . S
C1105 H1081 0.950 . S
C1105 C1104 1.524 . S
C1105 C1106 1.415 . S
C1106 H1082 0.950 . S
C1106 C1101 1.363 . S
C1106 C1105 1.415 . S
C1107 H1083 0.951 . S
C1107 C1108 1.366 . S
C1107 C1109 1.388 . S
C1108 C1107 1.366 . S
C1108 C1112 1.385 . S
C1109 H1084 0.951 . S
C1109 C1107 1.388 . S
C1109 C1110 1.366 . S
C1110 C1109 1.366 . S
C1110 C1111 1.414 . S
C1110 C1113 1.499 . S
C1111 H1085 0.950 . S
C1111 C1110 1.414 . S
C1111 C1112 1.374 . S
C1112 H1086 0.950 . S
C1112 C1108 1.385 . S
C1112 C1111 1.374 . S
C1113 C1110 1.499 . S
C1113 C1114 1.373 . S
C1113 C1115 1.389 . S
C1114 H1087 0.950 . S
C1114 C1100 1.377 . S
C1114 C1113 1.373 . S
C1115 C1099 1.377 . S
C1115 C1113 1.389 . S
C1115 C1116 1.524 . S
C1116 C1115 1.524 . S
C1116 C1117 1.397 . S
C1116 C1121 1.363 . S
C1117 H1088 0.950 . S
C1117 C1116 1.397 . S
C1117 C1118 1.334 . S
C1118 H1089 0.950 . S
C1118 C1117 1.334 . S
C1118 C1119 1.287 . S
C1119 C1118 1.287 . S
C1119 C1120 1.524 . S
C1119 H1122 0.999 . S
C1120 H1090 0.950 . S
C1120 C1119 1.524 . S
C1120 C1121 1.415 . S
C1121 H1091 0.950 . S
C1121 C1116 1.363 . S
C1121 C1120 1.415 . S
H1122 C1119 0.999 . S
H1123 C1104 0.913 . S
H1124 C1142 0.951 . S
H1125 C1144 0.951 . S
H1126 C1146 0.950 . S
H1127 C1147 0.950 . S
H1128 C1149 0.950 . S
H1129 C1152 0.950 . S
H1130 C1153 0.950 . S
H1131 C1155 0.950 . S
H1132 C1156 0.950 . S
H1133 C1157 0.951 . S
H1134 C1159 0.951 . S
H1135 C1161 0.950 . S
H1136 C1162 0.950 . S
H1137 C1164 0.950 . S
H1138 C1167 0.950 . S
H1139 C1168 0.950 . S
H1140 C1170 0.950 . S
H1141 C1171 0.950 . S
C1142 H1124 0.951 . S
C1142 C1143 1.366 . S
C1142 C1144 1.388 . S
C1143 C1142 1.366 . S
C1143 C1147 1.385 . S
C1144 H1125 0.951 . S
C1144 C1142 1.388 . S
C1144 C1145 1.366 . S
C1145 C1144 1.366 . S
C1145 C1146 1.414 . S
C1145 C1148 1.499 . S
C1146 H1126 0.950 . S
C1146 C1145 1.414 . S
C1146 C1147 1.374 . S
C1147 H1127 0.950 . S
C1147 C1143 1.385 . S
C1147 C1146 1.374 . S
C1148 C1145 1.499 . S
C1148 C1149 1.373 . S
C1148 C1150 1.389 . S
C1149 H1128 0.950 . S
C1149 C1148 1.373 . S
C1149 C1165 1.377 . S
C1150 C1148 1.389 . S
C1150 C1151 1.524 . S
C1150 C1164 1.377 . S
C1151 C1150 1.524 . S
C1151 C1152 1.397 . S
C1151 C1156 1.363 . S
C1152 H1129 0.950 . S
C1152 C1151 1.397 . S
C1152 C1153 1.334 . S
C1153 H1130 0.950 . S
C1153 C1152 1.334 . S
C1153 C1154 1.287 . S
C1154 C1153 1.287 . S
C1154 C1155 1.524 . S
C1154 H1173 0.913 . S
C1155 H1131 0.950 . S
C1155 C1154 1.524 . S
C1155 C1156 1.415 . S
C1156 H1132 0.950 . S
C1156 C1151 1.363 . S
C1156 C1155 1.415 . S
C1157 H1133 0.951 . S
C1157 C1158 1.366 . S
C1157 C1159 1.388 . S
C1158 C1157 1.366 . S
C1158 C1162 1.385 . S
C1159 H1134 0.951 . S
C1159 C1157 1.388 . S
C1159 C1160 1.366 . S
C1160 C1159 1.366 . S
C1160 C1161 1.414 . S
C1160 C1163 1.499 . S
C1161 H1135 0.950 . S
C1161 C1160 1.414 . S
C1161 C1162 1.374 . S
C1162 H1136 0.950 . S
C1162 C1158 1.385 . S
C1162 C1161 1.374 . S
C1163 C1160 1.499 . S
C1163 C1164 1.373 . S
C1163 C1165 1.389 . S
C1164 H1137 0.950 . S
C1164 C1150 1.377 . S
C1164 C1163 1.373 . S
C1165 C1149 1.377 . S
C1165 C1163 1.389 . S
C1165 C1166 1.524 . S
C1166 C1165 1.524 . S
C1166 C1167 1.397 . S
C1166 C1171 1.363 . S
C1167 H1138 0.950 . S
C1167 C1166 1.397 . S
C1167 C1168 1.334 . S
C1168 H1139 0.950 . S
C1168 C1167 1.334 . S
C1168 C1169 1.287 . S
C1169 C1168 1.287 . S
C1169 C1170 1.524 . S
C1169 H1172 0.999 . S
C1170 H1140 0.950 . S
C1170 C1169 1.524 . S
C1170 C1171 1.415 . S
C1171 H1141 0.950 . S
C1171 C1166 1.363 . S
C1171 C1170 1.415 . S
H1172 C1169 0.999 . S
H1173 C1154 0.913 . S
H1174 C1192 0.951 . S
H1175 C1194 0.951 . S
H1176 C1196 0.950 . S
H1177 C1197 0.950 . S
H1178 C1199 0.950 . S
H1179 C1202 0.950 . S
H1180 C1203 0.950 . S
H1181 C1205 0.950 . S
H1182 C1206 0.950 . S
H1183 C1207 0.951 . S
H1184 C1209 0.951 . S
H1185 C1211 0.950 . S
H1186 C1212 0.950 . S
H1187 C1214 0.950 . S
H1188 C1217 0.950 . S
H1189 C1218 0.950 . S
H1190 C1220 0.950 . S
H1191 C1221 0.950 . S
C1192 H1174 0.951 . S
C1192 C1193 1.366 . S
C1192 C1194 1.388 . S
C1193 C1192 1.366 . S
C1193 C1197 1.385 . S
C1194 H1175 0.951 . S
C1194 C1192 1.388 . S
C1194 C1195 1.366 . S
C1195 C1194 1.366 . S
C1195 C1196 1.414 . S
C1195 C1198 1.499 . S
C1196 H1176 0.950 . S
C1196 C1195 1.414 . S
C1196 C1197 1.374 . S
C1197 H1177 0.950 . S
C1197 C1193 1.385 . S
C1197 C1196 1.374 . S
C1198 C1195 1.499 . S
C1198 C1199 1.373 . S
C1198 C1200 1.389 . S
C1199 H1178 0.950 . S
C1199 C1198 1.373 . S
C1199 C1215 1.377 . S
C1200 C1198 1.389 . S
C1200 C1201 1.524 . S
C1200 C1214 1.377 . S
C1201 C1200 1.524 . S
C1201 C1202 1.397 . S
C1201 C1206 1.363 . S
C1202 H1179 0.950 . S
C1202 C1201 1.397 . S
C1202 C1203 1.334 . S
C1203 H1180 0.950 . S
C1203 C1202 1.334 . S
C1203 C1204 1.287 . S
C1204 C1203 1.287 . S
C1204 C1205 1.524 . S
C1204 H1223 0.913 . S
C1205 H1181 0.950 . S
C1205 C1204 1.524 . S
C1205 C1206 1.415 . S
C1206 H1182 0.950 . S
C1206 C1201 1.363 . S
C1206 C1205 1.415 . S
C1207 H1183 0.951 . S
C1207 C1208 1.366 . S
C1207 C1209 1.388 . S
C1208 C1207 1.366 . S
C1208 C1212 1.385 . S
C1209 H1184 0.951 . S
C1209 C1207 1.388 . S
C1209 C1210 1.366 . S
C1210 C1209 1.366 . S
C1210 C1211 1.414 . S
C1210 C1213 1.499 . S
C1211 H1185 0.950 . S
C1211 C1210 1.414 . S
C1211 C1212 1.374 . S
C1212 H1186 0.950 . S
C1212 C1208 1.385 . S
C1212 C1211 1.374 . S
C1213 C1210 1.499 . S
C1213 C1214 1.373 . S
C1213 C1215 1.389 . S
C1214 H1187 0.950 . S
C1214 C1200 1.377 . S
C1214 C1213 1.373 . S
C1215 C1199 1.377 . S
C1215 C1213 1.389 . S
C1215 C1216 1.524 . S
C1216 C1215 1.524 . S
C1216 C1217 1.397 . S
C1216 C1221 1.363 . S
C1217 H1188 0.950 . S
C1217 C1216 1.397 . S
C1217 C1218 1.334 . S
C1218 H1189 0.950 . S
C1218 C1217 1.334 . S
C1218 C1219 1.287 . S
C1219 C1218 1.287 . S
C1219 C1220 1.524 . S
C1219 H1222 0.999 . S
C1220 H1190 0.950 . S
C1220 C1219 1.524 . S
C1220 C1221 1.415 . S
C1221 H1191 0.950 . S
C1221 C1216 1.363 . S
C1221 C1220 1.415 . S
H1222 C1219 0.999 . S
H1223 C1204 0.913 . S
H1224 C1242 0.951 . S
H1225 C1244 0.951 . S
H1226 C1246 0.950 . S
H1227 C1247 0.950 . S
H1228 C1249 0.950 . S
H1229 C1252 0.950 . S
H1230 C1253 0.950 . S
H1231 C1255 0.950 . S
H1232 C1256 0.950 . S
H1233 C1257 0.951 . S
H1234 C1259 0.951 . S
H1235 C1261 0.950 . S
H1236 C1262 0.950 . S
H1237 C1264 0.950 . S
H1238 C1267 0.950 . S
H1239 C1268 0.950 . S
H1240 C1270 0.950 . S
H1241 C1271 0.950 . S
C1242 H1224 0.951 . S
C1242 C1243 1.366 . S
C1242 C1244 1.388 . S
C1243 C1242 1.366 . S
C1243 C1247 1.385 . S
C1244 H1225 0.951 . S
C1244 C1242 1.388 . S
C1244 C1245 1.366 . S
C1245 C1244 1.366 . S
C1245 C1246 1.414 . S
C1245 C1248 1.499 . S
C1246 H1226 0.950 . S
C1246 C1245 1.414 . S
C1246 C1247 1.374 . S
C1247 H1227 0.950 . S
C1247 C1243 1.385 . S
C1247 C1246 1.374 . S
C1248 C1245 1.499 . S
C1248 C1249 1.373 . S
C1248 C1250 1.389 . S
C1249 H1228 0.950 . S
C1249 C1248 1.373 . S
C1249 C1265 1.377 . S
C1250 C1248 1.389 . S
C1250 C1251 1.524 . S
C1250 C1264 1.377 . S
C1251 C1250 1.524 . S
C1251 C1252 1.397 . S
C1251 C1256 1.363 . S
C1252 H1229 0.950 . S
C1252 C1251 1.397 . S
C1252 C1253 1.334 . S
C1253 H1230 0.950 . S
C1253 C1252 1.334 . S
C1253 C1254 1.287 . S
C1254 C1253 1.287 . S
C1254 C1255 1.524 . S
C1254 H1273 0.913 . S
C1255 H1231 0.950 . S
C1255 C1254 1.524 . S
C1255 C1256 1.415 . S
C1256 H1232 0.950 . S
C1256 C1251 1.363 . S
C1256 C1255 1.415 . S
C1257 H1233 0.951 . S
C1257 C1258 1.366 . S
C1257 C1259 1.388 . S
C1258 C1257 1.366 . S
C1258 C1262 1.385 . S
C1259 H1234 0.951 . S
C1259 C1257 1.388 . S
C1259 C1260 1.366 . S
C1260 C1259 1.366 . S
C1260 C1261 1.414 . S
C1260 C1263 1.499 . S
C1261 H1235 0.950 . S
C1261 C1260 1.414 . S
C1261 C1262 1.374 . S
C1262 H1236 0.950 . S
C1262 C1258 1.385 . S
C1262 C1261 1.374 . S
C1263 C1260 1.499 . S
C1263 C1264 1.373 . S
C1263 C1265 1.389 . S
C1264 H1237 0.950 . S
C1264 C1250 1.377 . S
C1264 C1263 1.373 . S
C1265 C1249 1.377 . S
C1265 C1263 1.389 . S
C1265 C1266 1.524 . S
C1266 C1265 1.524 . S
C1266 C1267 1.397 . S
C1266 C1271 1.363 . S
C1267 H1238 0.950 . S
C1267 C1266 1.397 . S
C1267 C1268 1.334 . S
C1268 H1239 0.950 . S
C1268 C1267 1.334 . S
C1268 C1269 1.287 . S
C1269 C1268 1.287 . S
C1269 C1270 1.524 . S
C1269 H1272 0.999 . S
C1270 H1240 0.950 . S
C1270 C1269 1.524 . S
C1270 C1271 1.415 . S
C1271 H1241 0.950 . S
C1271 C1266 1.363 . S
C1271 C1270 1.415 . S
H1272 C1269 0.999 . S
H1273 C1254 0.913 . S
H1274 C1292 0.951 . S
H1275 C1294 0.951 . S
H1276 C1296 0.950 . S
H1277 C1297 0.950 . S
H1278 C1299 0.950 . S
H1279 C1302 0.950 . S
H1280 C1303 0.950 . S
H1281 C1305 0.950 . S
H1282 C1306 0.950 . S
H1283 C1307 0.951 . S
H1284 C1309 0.951 . S
H1285 C1311 0.950 . S
H1286 C1312 0.950 . S
H1287 C1314 0.950 . S
H1288 C1317 0.950 . S
H1289 C1318 0.950 . S
H1290 C1320 0.950 . S
H1291 C1321 0.950 . S
C1292 H1274 0.951 . S
C1292 C1293 1.366 . S
C1292 C1294 1.388 . S
C1293 C1292 1.366 . S
C1293 C1297 1.385 . S
C1294 H1275 0.951 . S
C1294 C1292 1.388 . S
C1294 C1295 1.366 . S
C1295 C1294 1.366 . S
C1295 C1296 1.414 . S
C1295 C1298 1.499 . S
C1296 H1276 0.950 . S
C1296 C1295 1.414 . S
C1296 C1297 1.374 . S
C1297 H1277 0.950 . S
C1297 C1293 1.385 . S
C1297 C1296 1.374 . S
C1298 C1295 1.499 . S
C1298 C1299 1.373 . S
C1298 C1300 1.389 . S
C1299 H1278 0.950 . S
C1299 C1298 1.373 . S
C1299 C1315 1.377 . S
C1300 C1298 1.389 . S
C1300 C1301 1.524 . S
C1300 C1314 1.377 . S
C1301 C1300 1.524 . S
C1301 C1302 1.397 . S
C1301 C1306 1.363 . S
C1302 H1279 0.950 . S
C1302 C1301 1.397 . S
C1302 C1303 1.334 . S
C1303 H1280 0.950 . S
C1303 C1302 1.334 . S
C1303 C1304 1.287 . S
C1304 C1303 1.287 . S
C1304 C1305 1.524 . S
C1304 H1323 0.913 . S
C1305 H1281 0.950 . S
C1305 C1304 1.524 . S
C1305 C1306 1.415 . S
C1306 H1282 0.950 . S
C1306 C1301 1.363 . S
C1306 C1305 1.415 . S
C1307 H1283 0.951 . S
C1307 C1308 1.366 . S
C1307 C1309 1.388 . S
C1308 C1307 1.366 . S
C1308 C1312 1.385 . S
C1309 H1284 0.951 . S
C1309 C1307 1.388 . S
C1309 C1310 1.366 . S
C1310 C1309 1.366 . S
C1310 C1311 1.414 . S
C1310 C1313 1.499 . S
C1311 H1285 0.950 . S
C1311 C1310 1.414 . S
C1311 C1312 1.374 . S
C1312 H1286 0.950 . S
C1312 C1308 1.385 . S
C1312 C1311 1.374 . S
C1313 C1310 1.499 . S
C1313 C1314 1.373 . S
C1313 C1315 1.389 . S
C1314 H1287 0.950 . S
C1314 C1300 1.377 . S
C1314 C1313 1.373 . S
C1315 C1299 1.377 . S
C1315 C1313 1.389 . S
C1315 C1316 1.524 . S
C1316 C1315 1.524 . S
C1316 C1317 1.397 . S
C1316 C1321 1.363 . S
C1317 H1288 0.950 . S
C1317 C1316 1.397 . S
C1317 C1318 1.334 . S
C1318 H1289 0.950 . S
C1318 C1317 1.334 . S
C1318 C1319 1.287 . S
C1319 C1318 1.287 . S
C1319 C1320 1.524 . S
C1319 H1322 0.999 . S
C1320 H1290 0.950 . S
C1320 C1319 1.524 . S
C1320 C1321 1.415 . S
C1321 H1291 0.950 . S
C1321 C1316 1.363 . S
C1321 C1320 1.415 . S
H1322 C1319 0.999 . S
H1323 C1304 0.913 . S
H1324 C1342 0.951 . S
H1325 C1344 0.951 . S
H1326 C1346 0.950 . S
H1327 C1347 0.950 . S
H1328 C1349 0.950 . S
H1329 C1352 0.950 . S
H1330 C1353 0.950 . S
H1331 C1355 0.950 . S
H1332 C1356 0.950 . S
H1333 C1357 0.951 . S
H1334 C1359 0.951 . S
H1335 C1361 0.950 . S
H1336 C1362 0.950 . S
H1337 C1364 0.950 . S
H1338 C1367 0.950 . S
H1339 C1368 0.950 . S
H1340 C1370 0.950 . S
H1341 C1371 0.950 . S
C1342 H1324 0.951 . S
C1342 C1343 1.366 . S
C1342 C1344 1.388 . S
C1343 C1342 1.366 . S
C1343 C1347 1.385 . S
C1344 H1325 0.951 . S
C1344 C1342 1.388 . S
C1344 C1345 1.366 . S
C1345 C1344 1.366 . S
C1345 C1346 1.414 . S
C1345 C1348 1.499 . S
C1346 H1326 0.950 . S
C1346 C1345 1.414 . S
C1346 C1347 1.374 . S
C1347 H1327 0.950 . S
C1347 C1343 1.385 . S
C1347 C1346 1.374 . S
C1348 C1345 1.499 . S
C1348 C1349 1.373 . S
C1348 C1350 1.389 . S
C1349 H1328 0.950 . S
C1349 C1348 1.373 . S
C1349 C1365 1.377 . S
C1350 C1348 1.389 . S
C1350 C1351 1.524 . S
C1350 C1364 1.377 . S
C1351 C1350 1.524 . S
C1351 C1352 1.397 . S
C1351 C1356 1.363 . S
C1352 H1329 0.950 . S
C1352 C1351 1.397 . S
C1352 C1353 1.334 . S
C1353 H1330 0.950 . S
C1353 C1352 1.334 . S
C1353 C1354 1.287 . S
C1354 C1353 1.287 . S
C1354 C1355 1.524 . S
C1354 H1373 0.913 . S
C1355 H1331 0.950 . S
C1355 C1354 1.524 . S
C1355 C1356 1.415 . S
C1356 H1332 0.950 . S
C1356 C1351 1.363 . S
C1356 C1355 1.415 . S
C1357 H1333 0.951 . S
C1357 C1358 1.366 . S
C1357 C1359 1.388 . S
C1358 C1357 1.366 . S
C1358 C1362 1.385 . S
C1359 H1334 0.951 . S
C1359 C1357 1.388 . S
C1359 C1360 1.366 . S
C1360 C1359 1.366 . S
C1360 C1361 1.414 . S
C1360 C1363 1.499 . S
C1361 H1335 0.950 . S
C1361 C1360 1.414 . S
C1361 C1362 1.374 . S
C1362 H1336 0.950 . S
C1362 C1358 1.385 . S
C1362 C1361 1.374 . S
C1363 C1360 1.499 . S
C1363 C1364 1.373 . S
C1363 C1365 1.389 . S
C1364 H1337 0.950 . S
C1364 C1350 1.377 . S
C1364 C1363 1.373 . S
C1365 C1349 1.377 . S
C1365 C1363 1.389 . S
C1365 C1366 1.524 . S
C1366 C1365 1.524 . S
C1366 C1367 1.397 . S
C1366 C1371 1.363 . S
C1367 H1338 0.950 . S
C1367 C1366 1.397 . S
C1367 C1368 1.334 . S
C1368 H1339 0.950 . S
C1368 C1367 1.334 . S
C1368 C1369 1.287 . S
C1369 C1368 1.287 . S
C1369 C1370 1.524 . S
C1369 H1372 0.999 . S
C1370 H1340 0.950 . S
C1370 C1369 1.524 . S
C1370 C1371 1.415 . S
C1371 H1341 0.950 . S
C1371 C1366 1.363 . S
C1371 C1370 1.415 . S
H1372 C1369 0.999 . S
H1373 C1354 0.913 . S
H1374 C1392 0.951 . S
H1375 C1394 0.951 . S
H1376 C1396 0.950 . S
H1377 C1397 0.950 . S
H1378 C1399 0.950 . S
H1379 C1402 0.950 . S
H1380 C1403 0.950 . S
H1381 C1405 0.950 . S
H1382 C1406 0.950 . S
H1383 C1407 0.951 . S
H1384 C1409 0.951 . S
H1385 C1411 0.950 . S
H1386 C1412 0.950 . S
H1387 C1414 0.950 . S
H1388 C1417 0.950 . S
H1389 C1418 0.950 . S
H1390 C1420 0.950 . S
H1391 C1421 0.950 . S
C1392 H1374 0.951 . S
C1392 C1393 1.366 . S
C1392 C1394 1.388 . S
C1393 C1392 1.366 . S
C1393 C1397 1.385 . S
C1394 H1375 0.951 . S
C1394 C1392 1.388 . S
C1394 C1395 1.366 . S
C1395 C1394 1.366 . S
C1395 C1396 1.414 . S
C1395 C1398 1.499 . S
C1396 H1376 0.950 . S
C1396 C1395 1.414 . S
C1396 C1397 1.374 . S
C1397 H1377 0.950 . S
C1397 C1393 1.385 . S
C1397 C1396 1.374 . S
C1398 C1395 1.499 . S
C1398 C1399 1.373 . S
C1398 C1400 1.389 . S
C1399 H1378 0.950 . S
C1399 C1398 1.373 . S
C1399 C1415 1.377 . S
C1400 C1398 1.389 . S
C1400 C1401 1.524 . S
C1400 C1414 1.377 . S
C1401 C1400 1.524 . S
C1401 C1402 1.397 . S
C1401 C1406 1.363 . S
C1402 H1379 0.950 . S
C1402 C1401 1.397 . S
C1402 C1403 1.334 . S
C1403 H1380 0.950 . S
C1403 C1402 1.334 . S
C1403 C1404 1.287 . S
C1404 C1403 1.287 . S
C1404 C1405 1.524 . S
C1404 H1423 0.913 . S
C1405 H1381 0.950 . S
C1405 C1404 1.524 . S
C1405 C1406 1.415 . S
C1406 H1382 0.950 . S
C1406 C1401 1.363 . S
C1406 C1405 1.415 . S
C1407 H1383 0.951 . S
C1407 C1408 1.366 . S
C1407 C1409 1.388 . S
C1408 C1407 1.366 . S
C1408 C1412 1.385 . S
C1409 H1384 0.951 . S
C1409 C1407 1.388 . S
C1409 C1410 1.366 . S
C1410 C1409 1.366 . S
C1410 C1411 1.414 . S
C1410 C1413 1.499 . S
C1411 H1385 0.950 . S
C1411 C1410 1.414 . S
C1411 C1412 1.374 . S
C1412 H1386 0.950 . S
C1412 C1408 1.385 . S
C1412 C1411 1.374 . S
C1413 C1410 1.499 . S
C1413 C1414 1.373 . S
C1413 C1415 1.389 . S
C1414 H1387 0.950 . S
C1414 C1400 1.377 . S
C1414 C1413 1.373 . S
C1415 C1399 1.377 . S
C1415 C1413 1.389 . S
C1415 C1416 1.524 . S
C1416 C1415 1.524 . S
C1416 C1417 1.397 . S
C1416 C1421 1.363 . S
C1417 H1388 0.950 . S
C1417 C1416 1.397 . S
C1417 C1418 1.334 . S
C1418 H1389 0.950 . S
C1418 C1417 1.334 . S
C1418 C1419 1.287 . S
C1419 C1418 1.287 . S
C1419 C1420 1.524 . S
C1419 H1422 0.999 . S
C1420 H1390 0.950 . S
C1420 C1419 1.524 . S
C1420 C1421 1.415 . S
C1421 H1391 0.950 . S
C1421 C1416 1.363 . S
C1421 C1420 1.415 . S
H1422 C1419 0.999 . S
H1423 C1404 0.913 . S
H1424 C1442 0.951 . S
H1425 C1444 0.951 . S
H1426 C1446 0.950 . S
H1427 C1447 0.950 . S
H1428 C1449 0.950 . S
H1429 C1452 0.950 . S
H1430 C1453 0.950 . S
H1431 C1455 0.950 . S
H1432 C1456 0.950 . S
H1433 C1457 0.951 . S
H1434 C1459 0.951 . S
H1435 C1461 0.950 . S
H1436 C1462 0.950 . S
H1437 C1464 0.950 . S
H1438 C1467 0.950 . S
H1439 C1468 0.950 . S
H1440 C1470 0.950 . S
H1441 C1471 0.950 . S
C1442 H1424 0.951 . S
C1442 C1443 1.366 . S
C1442 C1444 1.388 . S
C1443 C1442 1.366 . S
C1443 C1447 1.385 . S
C1444 H1425 0.951 . S
C1444 C1442 1.388 . S
C1444 C1445 1.366 . S
C1445 C1444 1.366 . S
C1445 C1446 1.414 . S
C1445 C1448 1.499 . S
C1446 H1426 0.950 . S
C1446 C1445 1.414 . S
C1446 C1447 1.374 . S
C1447 H1427 0.950 . S
C1447 C1443 1.385 . S
C1447 C1446 1.374 . S
C1448 C1445 1.499 . S
C1448 C1449 1.373 . S
C1448 C1450 1.389 . S
C1449 H1428 0.950 . S
C1449 C1448 1.373 . S
C1449 C1465 1.377 . S
C1450 C1448 1.389 . S
C1450 C1451 1.524 . S
C1450 C1464 1.377 . S
C1451 C1450 1.524 . S
C1451 C1452 1.397 . S
C1451 C1456 1.363 . S
C1452 H1429 0.950 . S
C1452 C1451 1.397 . S
C1452 C1453 1.334 . S
C1453 H1430 0.950 . S
C1453 C1452 1.334 . S
C1453 C1454 1.287 . S
C1454 C1453 1.287 . S
C1454 C1455 1.524 . S
C1454 H1473 0.913 . S
C1455 H1431 0.950 . S
C1455 C1454 1.524 . S
C1455 C1456 1.415 . S
C1456 H1432 0.950 . S
C1456 C1451 1.363 . S
C1456 C1455 1.415 . S
C1457 H1433 0.951 . S
C1457 C1458 1.366 . S
C1457 C1459 1.388 . S
C1458 C1457 1.366 . S
C1458 C1462 1.385 . S
C1459 H1434 0.951 . S
C1459 C1457 1.388 . S
C1459 C1460 1.366 . S
C1460 C1459 1.366 . S
C1460 C1461 1.414 . S
C1460 C1463 1.499 . S
C1461 H1435 0.950 . S
C1461 C1460 1.414 . S
C1461 C1462 1.374 . S
C1462 H1436 0.950 . S
C1462 C1458 1.385 . S
C1462 C1461 1.374 . S
C1463 C1460 1.499 . S
C1463 C1464 1.373 . S
C1463 C1465 1.389 . S
C1464 H1437 0.950 . S
C1464 C1450 1.377 . S
C1464 C1463 1.373 . S
C1465 C1449 1.377 . S
C1465 C1463 1.389 . S
C1465 C1466 1.524 . S
C1466 C1465 1.524 . S
C1466 C1467 1.397 . S
C1466 C1471 1.363 . S
C1467 H1438 0.950 . S
C1467 C1466 1.397 . S
C1467 C1468 1.334 . S
C1468 H1439 0.950 . S
C1468 C1467 1.334 . S
C1468 C1469 1.287 . S
C1469 C1468 1.287 . S
C1469 C1470 1.524 . S
C1469 H1472 0.999 . S
C1470 H1440 0.950 . S
C1470 C1469 1.524 . S
C1470 C1471 1.415 . S
C1471 H1441 0.950 . S
C1471 C1466 1.363 . S
C1471 C1470 1.415 . S
H1472 C1469 0.999 . S
H1473 C1454 0.913 . S
H1474 C1492 0.951 . S
H1475 C1494 0.951 . S
H1476 C1496 0.950 . S
H1477 C1497 0.950 . S
H1478 C1499 0.950 . S
H1479 C1502 0.950 . S
H1480 C1503 0.950 . S
H1481 C1505 0.950 . S
H1482 C1506 0.950 . S
H1483 C1507 0.951 . S
H1484 C1509 0.951 . S
H1485 C1511 0.950 . S
H1486 C1512 0.950 . S
H1487 C1514 0.950 . S
H1488 C1517 0.950 . S
H1489 C1518 0.950 . S
H1490 C1520 0.950 . S
H1491 C1521 0.950 . S
C1492 H1474 0.951 . S
C1492 C1493 1.366 . S
C1492 C1494 1.388 . S
C1493 C1492 1.366 . S
C1493 C1497 1.385 . S
C1494 H1475 0.951 . S
C1494 C1492 1.388 . S
C1494 C1495 1.366 . S
C1495 C1494 1.366 . S
C1495 C1496 1.414 . S
C1495 C1498 1.499 . S
C1496 H1476 0.950 . S
C1496 C1495 1.414 . S
C1496 C1497 1.374 . S
C1497 H1477 0.950 . S
C1497 C1493 1.385 . S
C1497 C1496 1.374 . S
C1498 C1495 1.499 . S
C1498 C1499 1.373 . S
C1498 C1500 1.389 . S
C1499 H1478 0.950 . S
C1499 C1498 1.373 . S
C1499 C1515 1.377 . S
C1500 C1498 1.389 . S
C1500 C1501 1.524 . S
C1500 C1514 1.377 . S
C1501 C1500 1.524 . S
C1501 C1502 1.397 . S
C1501 C1506 1.363 . S
C1502 H1479 0.950 . S
C1502 C1501 1.397 . S
C1502 C1503 1.334 . S
C1503 H1480 0.950 . S
C1503 C1502 1.334 . S
C1503 C1504 1.287 . S
C1504 C1503 1.287 . S
C1504 C1505 1.524 . S
C1504 H1523 0.913 . S
C1505 H1481 0.950 . S
C1505 C1504 1.524 . S
C1505 C1506 1.415 . S
C1506 H1482 0.950 . S
C1506 C1501 1.363 . S
C1506 C1505 1.415 . S
C1507 H1483 0.951 . S
C1507 C1508 1.366 . S
C1507 C1509 1.388 . S
C1508 C1507 1.366 . S
C1508 C1512 1.385 . S
C1509 H1484 0.951 . S
C1509 C1507 1.388 . S
C1509 C1510 1.366 . S
C1510 C1509 1.366 . S
C1510 C1511 1.414 . S
C1510 C1513 1.499 . S
C1511 H1485 0.950 . S
C1511 C1510 1.414 . S
C1511 C1512 1.374 . S
C1512 H1486 0.950 . S
C1512 C1508 1.385 . S
C1512 C1511 1.374 . S
C1513 C1510 1.499 . S
C1513 C1514 1.373 . S
C1513 C1515 1.389 . S
C1514 H1487 0.950 . S
C1514 C1500 1.377 . S
C1514 C1513 1.373 . S
C1515 C1499 1.377 . S
C1515 C1513 1.389 . S
C1515 C1516 1.524 . S
C1516 C1515 1.524 . S
C1516 C1517 1.397 . S
C1516 C1521 1.363 . S
C1517 H1488 0.950 . S
C1517 C1516 1.397 . S
C1517 C1518 1.334 . S
C1518 H1489 0.950 . S
C1518 C1517 1.334 . S
C1518 C1519 1.287 . S
C1519 C1518 1.287 . S
C1519 C1520 1.524 . S
C1519 H1522 0.999 . S
C1520 H1490 0.950 . S
C1520 C1519 1.524 . S
C1520 C1521 1.415 . S
C1521 H1491 0.950 . S
C1521 C1516 1.363 . S
C1521 C1520 1.415 . S
H1522 C1519 0.999 . S
H1523 C1504 0.913 . S
H1524 C1542 0.951 . S
H1525 C1544 0.951 . S
H1526 C1546 0.950 . S
H1527 C1547 0.950 . S
H1528 C1549 0.950 . S
H1529 C1552 0.950 . S
H1530 C1553 0.950 . S
H1531 C1555 0.950 . S
H1532 C1556 0.950 . S
H1533 C1557 0.951 . S
H1534 C1559 0.951 . S
H1535 C1561 0.950 . S
H1536 C1562 0.950 . S
H1537 C1564 0.950 . S
H1538 C1567 0.950 . S
H1539 C1568 0.950 . S
H1540 C1570 0.950 . S
H1541 C1571 0.950 . S
C1542 H1524 0.951 . S
C1542 C1543 1.366 . S
C1542 C1544 1.388 . S
C1543 C1542 1.366 . S
C1543 C1547 1.385 . S
C1544 H1525 0.951 . S
C1544 C1542 1.388 . S
C1544 C1545 1.366 . S
C1545 C1544 1.366 . S
C1545 C1546 1.414 . S
C1545 C1548 1.499 . S
C1546 H1526 0.950 . S
C1546 C1545 1.414 . S
C1546 C1547 1.374 . S
C1547 H1527 0.950 . S
C1547 C1543 1.385 . S
C1547 C1546 1.374 . S
C1548 C1545 1.499 . S
C1548 C1549 1.373 . S
C1548 C1550 1.389 . S
C1549 H1528 0.950 . S
C1549 C1548 1.373 . S
C1549 C1565 1.377 . S
C1550 C1548 1.389 . S
C1550 C1551 1.524 . S
C1550 C1564 1.377 . S
C1551 C1550 1.524 . S
C1551 C1552 1.397 . S
C1551 C1556 1.363 . S
C1552 H1529 0.950 . S
C1552 C1551 1.397 . S
C1552 C1553 1.334 . S
C1553 H1530 0.950 . S
C1553 C1552 1.334 . S
C1553 C1554 1.287 . S
C1554 C1553 1.287 . S
C1554 C1555 1.524 . S
C1554 H1573 0.913 . S
C1555 H1531 0.950 . S
C1555 C1554 1.524 . S
C1555 C1556 1.415 . S
C1556 H1532 0.950 . S
C1556 C1551 1.363 . S
C1556 C1555 1.415 . S
C1557 H1533 0.951 . S
C1557 C1558 1.366 . S
C1557 C1559 1.388 . S
C1558 C1557 1.366 . S
C1558 C1562 1.385 . S
C1559 H1534 0.951 . S
C1559 C1557 1.388 . S
C1559 C1560 1.366 . S
C1560 C1559 1.366 . S
C1560 C1561 1.414 . S
C1560 C1563 1.499 . S
C1561 H1535 0.950 . S
C1561 C1560 1.414 . S
C1561 C1562 1.374 . S
C1562 H1536 0.950 . S
C1562 C1558 1.385 . S
C1562 C1561 1.374 . S
C1563 C1560 1.499 . S
C1563 C1564 1.373 . S
C1563 C1565 1.389 . S
C1564 H1537 0.950 . S
C1564 C1550 1.377 . S
C1564 C1563 1.373 . S
C1565 C1549 1.377 . S
C1565 C1563 1.389 . S
C1565 C1566 1.524 . S
C1566 C1565 1.524 . S
C1566 C1567 1.397 . S
C1566 C1571 1.363 . S
C1567 H1538 0.950 . S
C1567 C1566 1.397 . S
C1567 C1568 1.334 . S
C1568 H1539 0.950 . S
C1568 C1567 1.334 . S
C1568 C1569 1.287 . S
C1569 C1568 1.287 . S
C1569 C1570 1.524 . S
C1569 H1572 0.999 . S
C1570 H1540 0.950 . S
C1570 C1569 1.524 . S
C1570 C1571 1.415 . S
C1571 H1541 0.950 . S
C1571 C1566 1.363 . S
C1571 C1570 1.415 . S
H1572 C1569 0.999 . S
H1573 C1554 0.913 . S
H1574 C1592 0.951 . S
H1575 C1594 0.951 . S
H1576 C1596 0.950 . S
H1577 C1597 0.950 . S
H1578 C1599 0.950 . S
H1579 C1602 0.950 . S
H1580 C1603 0.950 . S
H1581 C1605 0.950 . S
H1582 C1606 0.950 . S
H1583 C1607 0.951 . S
H1584 C1609 0.951 . S
H1585 C1611 0.950 . S
H1586 C1612 0.950 . S
H1587 C1614 0.950 . S
H1588 C1617 0.950 . S
H1589 C1618 0.950 . S
H1590 C1620 0.950 . S
H1591 C1621 0.950 . S
C1592 H1574 0.951 . S
C1592 C1593 1.366 . S
C1592 C1594 1.388 . S
C1593 C1592 1.366 . S
C1593 C1597 1.385 . S
C1594 H1575 0.951 . S
C1594 C1592 1.388 . S
C1594 C1595 1.366 . S
C1595 C1594 1.366 . S
C1595 C1596 1.414 . S
C1595 C1598 1.499 . S
C1596 H1576 0.950 . S
C1596 C1595 1.414 . S
C1596 C1597 1.374 . S
C1597 H1577 0.950 . S
C1597 C1593 1.385 . S
C1597 C1596 1.374 . S
C1598 C1595 1.499 . S
C1598 C1599 1.373 . S
C1598 C1600 1.389 . S
C1599 H1578 0.950 . S
C1599 C1598 1.373 . S
C1599 C1615 1.377 . S
C1600 C1598 1.389 . S
C1600 C1601 1.524 . S
C1600 C1614 1.377 . S
C1601 C1600 1.524 . S
C1601 C1602 1.397 . S
C1601 C1606 1.363 . S
C1602 H1579 0.950 . S
C1602 C1601 1.397 . S
C1602 C1603 1.334 . S
C1603 H1580 0.950 . S
C1603 C1602 1.334 . S
C1603 C1604 1.287 . S
C1604 C1603 1.287 . S
C1604 C1605 1.524 . S
C1604 H1623 0.913 . S
C1605 H1581 0.950 . S
C1605 C1604 1.524 . S
C1605 C1606 1.415 . S
C1606 H1582 0.950 . S
C1606 C1601 1.363 . S
C1606 C1605 1.415 . S
C1607 H1583 0.951 . S
C1607 C1608 1.366 . S
C1607 C1609 1.388 . S
C1608 C1607 1.366 . S
C1608 C1612 1.385 . S
C1609 H1584 0.951 . S
C1609 C1607 1.388 . S
C1609 C1610 1.366 . S
C1610 C1609 1.366 . S
C1610 C1611 1.414 . S
C1610 C1613 1.499 . S
C1611 H1585 0.950 . S
C1611 C1610 1.414 . S
C1611 C1612 1.374 . S
C1612 H1586 0.950 . S
C1612 C1608 1.385 . S
C1612 C1611 1.374 . S
C1613 C1610 1.499 . S
C1613 C1614 1.373 . S
C1613 C1615 1.389 . S
C1614 H1587 0.950 . S
C1614 C1600 1.377 . S
C1614 C1613 1.373 . S
C1615 C1599 1.377 . S
C1615 C1613 1.389 . S
C1615 C1616 1.524 . S
C1616 C1615 1.524 . S
C1616 C1617 1.397 . S
C1616 C1621 1.363 . S
C1617 H1588 0.950 . S
C1617 C1616 1.397 . S
C1617 C1618 1.334 . S
C1618 H1589 0.950 . S
C1618 C1617 1.334 . S
C1618 C1619 1.287 . S
C1619 C1618 1.287 . S
C1619 C1620 1.524 . S
C1619 H1622 0.999 . S
C1620 H1590 0.950 . S
C1620 C1619 1.524 . S
C1620 C1621 1.415 . S
C1621 H1591 0.950 . S
C1621 C1616 1.363 . S
C1621 C1620 1.415 . S
H1622 C1619 0.999 . S
H1623 C1604 0.913 . S
H1624 C1642 0.951 . S
H1625 C1644 0.951 . S
H1626 C1646 0.950 . S
H1627 C1647 0.950 . S
H1628 C1649 0.950 . S
H1629 C1652 0.950 . S
H1630 C1653 0.950 . S
H1631 C1655 0.950 . S
H1632 C1656 0.950 . S
H1633 C1657 0.951 . S
H1634 C1659 0.951 . S
H1635 C1661 0.950 . S
H1636 C1662 0.950 . S
H1637 C1664 0.950 . S
H1638 C1667 0.950 . S
H1639 C1668 0.950 . S
H1640 C1670 0.950 . S
H1641 C1671 0.950 . S
C1642 H1624 0.951 . S
C1642 C1643 1.366 . S
C1642 C1644 1.388 . S
C1643 C1642 1.366 . S
C1643 C1647 1.385 . S
C1644 H1625 0.951 . S
C1644 C1642 1.388 . S
C1644 C1645 1.366 . S
C1645 C1644 1.366 . S
C1645 C1646 1.414 . S
C1645 C1648 1.499 . S
C1646 H1626 0.950 . S
C1646 C1645 1.414 . S
C1646 C1647 1.374 . S
C1647 H1627 0.950 . S
C1647 C1643 1.385 . S
C1647 C1646 1.374 . S
C1648 C1645 1.499 . S
C1648 C1649 1.373 . S
C1648 C1650 1.389 . S
C1649 H1628 0.950 . S
C1649 C1648 1.373 . S
C1649 C1665 1.377 . S
C1650 C1648 1.389 . S
C1650 C1651 1.524 . S
C1650 C1664 1.377 . S
C1651 C1650 1.524 . S
C1651 C1652 1.397 . S
C1651 C1656 1.363 . S
C1652 H1629 0.950 . S
C1652 C1651 1.397 . S
C1652 C1653 1.334 . S
C1653 H1630 0.950 . S
C1653 C1652 1.334 . S
C1653 C1654 1.287 . S
C1654 C1653 1.287 . S
C1654 C1655 1.524 . S
C1654 H1673 0.913 . S
C1655 H1631 0.950 . S
C1655 C1654 1.524 . S
C1655 C1656 1.415 . S
C1656 H1632 0.950 . S
C1656 C1651 1.363 . S
C1656 C1655 1.415 . S
C1657 H1633 0.951 . S
C1657 C1658 1.366 . S
C1657 C1659 1.388 . S
C1658 C1657 1.366 . S
C1658 C1662 1.385 . S
C1659 H1634 0.951 . S
C1659 C1657 1.388 . S
C1659 C1660 1.366 . S
C1660 C1659 1.366 . S
C1660 C1661 1.414 . S
C1660 C1663 1.499 . S
C1661 H1635 0.950 . S
C1661 C1660 1.414 . S
C1661 C1662 1.374 . S
C1662 H1636 0.950 . S
C1662 C1658 1.385 . S
C1662 C1661 1.374 . S
C1663 C1660 1.499 . S
C1663 C1664 1.373 . S
C1663 C1665 1.389 . S
C1664 H1637 0.950 . S
C1664 C1650 1.377 . S
C1664 C1663 1.373 . S
C1665 C1649 1.377 . S
C1665 C1663 1.389 . S
C1665 C1666 1.524 . S
C1666 C1665 1.524 . S
C1666 C1667 1.397 . S
C1666 C1671 1.363 . S
C1667 H1638 0.950 . S
C1667 C1666 1.397 . S
C1667 C1668 1.334 . S
C1668 H1639 0.950 . S
C1668 C1667 1.334 . S
C1668 C1669 1.287 . S
C1669 C1668 1.287 . S
C1669 C1670 1.524 . S
C1669 H1672 0.999 . S
C1670 H1640 0.950 . S
C1670 C1669 1.524 . S
C1670 C1671 1.415 . S
C1671 H1641 0.950 . S
C1671 C1666 1.363 . S
C1671 C1670 1.415 . S
H1672 C1669 0.999 . S
H1673 C1654 0.913 . S
H1674 C1692 0.951 . S
H1675 C1694 0.951 . S
H1676 C1696 0.950 . S
H1677 C1697 0.950 . S
H1678 C1699 0.950 . S
H1679 C1702 0.950 . S
H1680 C1703 0.950 . S
H1681 C1705 0.950 . S
H1682 C1706 0.950 . S
H1683 C1707 0.951 . S
H1684 C1709 0.951 . S
H1685 C1711 0.950 . S
H1686 C1712 0.950 . S
H1687 C1714 0.950 . S
H1688 C1717 0.950 . S
H1689 C1718 0.950 . S
H1690 C1720 0.950 . S
H1691 C1721 0.950 . S
C1692 H1674 0.951 . S
C1692 C1693 1.366 . S
C1692 C1694 1.388 . S
C1693 C1692 1.366 . S
C1693 C1697 1.385 . S
C1694 H1675 0.951 . S
C1694 C1692 1.388 . S
C1694 C1695 1.366 . S
C1695 C1694 1.366 . S
C1695 C1696 1.414 . S
C1695 C1698 1.499 . S
C1696 H1676 0.950 . S
C1696 C1695 1.414 . S
C1696 C1697 1.374 . S
C1697 H1677 0.950 . S
C1697 C1693 1.385 . S
C1697 C1696 1.374 . S
C1698 C1695 1.499 . S
C1698 C1699 1.373 . S
C1698 C1700 1.389 . S
C1699 H1678 0.950 . S
C1699 C1698 1.373 . S
C1699 C1715 1.377 . S
C1700 C1698 1.389 . S
C1700 C1701 1.524 . S
C1700 C1714 1.377 . S
C1701 C1700 1.524 . S
C1701 C1702 1.397 . S
C1701 C1706 1.363 . S
C1702 H1679 0.950 . S
C1702 C1701 1.397 . S
C1702 C1703 1.334 . S
C1703 H1680 0.950 . S
C1703 C1702 1.334 . S
C1703 C1704 1.287 . S
C1704 C1703 1.287 . S
C1704 C1705 1.524 . S
C1704 H1723 0.913 . S
C1705 H1681 0.950 . S
C1705 C1704 1.524 . S
C1705 C1706 1.415 . S
C1706 H1682 0.950 . S
C1706 C1701 1.363 . S
C1706 C1705 1.415 . S
C1707 H1683 0.951 . S
C1707 C1708 1.366 . S
C1707 C1709 1.388 . S
C1708 C1707 1.366 . S
C1708 C1712 1.385 . S
C1709 H1684 0.951 . S
C1709 C1707 1.388 . S
C1709 C1710 1.366 . S
C1710 C1709 1.366 . S
C1710 C1711 1.414 . S
C1710 C1713 1.499 . S
C1711 H1685 0.950 . S
C1711 C1710 1.414 . S
C1711 C1712 1.374 . S
C1712 H1686 0.950 . S
C1712 C1708 1.385 . S
C1712 C1711 1.374 . S
C1713 C1710 1.499 . S
C1713 C1714 1.373 . S
C1713 C1715 1.389 . S
C1714 H1687 0.950 . S
C1714 C1700 1.377 . S
C1714 C1713 1.373 . S
C1715 C1699 1.377 . S
C1715 C1713 1.389 . S
C1715 C1716 1.524 . S
C1716 C1715 1.524 . S
C1716 C1717 1.397 . S
C1716 C1721 1.363 . S
C1717 H1688 0.950 . S
C1717 C1716 1.397 . S
C1717 C1718 1.334 . S
C1718 H1689 0.950 . S
C1718 C1717 1.334 . S
C1718 C1719 1.287 . S
C1719 C1718 1.287 . S
C1719 C1720 1.524 . S
C1719 H1722 0.999 . S
C1720 H1690 0.950 . S
C1720 C1719 1.524 . S
C1720 C1721 1.415 . S
C1721 H1691 0.950 . S
C1721 C1716 1.363 . S
C1721 C1720 1.415 . S
H1722 C1719 0.999 . S
H1723 C1704 0.913 . S
H1724 C1742 0.951 . S
H1725 C1744 0.951 . S
H1726 C1746 0.950 . S
H1727 C1747 0.950 . S
H1728 C1749 0.950 . S
H1729 C1752 0.950 . S
H1730 C1753 0.950 . S
H1731 C1755 0.950 . S
H1732 C1756 0.950 . S
H1733 C1757 0.951 . S
H1734 C1759 0.951 . S
H1735 C1761 0.950 . S
H1736 C1762 0.950 . S
H1737 C1764 0.950 . S
H1738 C1767 0.950 . S
H1739 C1768 0.950 . S
H1740 C1770 0.950 . S
H1741 C1771 0.950 . S
C1742 H1724 0.951 . S
C1742 C1743 1.366 . S
C1742 C1744 1.388 . S
C1743 C1742 1.366 . S
C1743 C1747 1.385 . S
C1744 H1725 0.951 . S
C1744 C1742 1.388 . S
C1744 C1745 1.366 . S
C1745 C1744 1.366 . S
C1745 C1746 1.414 . S
C1745 C1748 1.499 . S
C1746 H1726 0.950 . S
C1746 C1745 1.414 . S
C1746 C1747 1.374 . S
C1747 H1727 0.950 . S
C1747 C1743 1.385 . S
C1747 C1746 1.374 . S
C1748 C1745 1.499 . S
C1748 C1749 1.373 . S
C1748 C1750 1.389 . S
C1749 H1728 0.950 . S
C1749 C1748 1.373 . S
C1749 C1765 1.377 . S
C1750 C1748 1.389 . S
C1750 C1751 1.524 . S
C1750 C1764 1.377 . S
C1751 C1750 1.524 . S
C1751 C1752 1.397 . S
C1751 C1756 1.363 . S
C1752 H1729 0.950 . S
C1752 C1751 1.397 . S
C1752 C1753 1.334 . S
C1753 H1730 0.950 . S
C1753 C1752 1.334 . S
C1753 C1754 1.287 . S
C1754 C1753 1.287 . S
C1754 C1755 1.524 . S
C1754 H1773 0.913 . S
C1755 H1731 0.950 . S
C1755 C1754 1.524 . S
C1755 C1756 1.415 . S
C1756 H1732 0.950 . S
C1756 C1751 1.363 . S
C1756 C1755 1.415 . S
C1757 H1733 0.951 . S
C1757 C1758 1.366 . S
C1757 C1759 1.388 . S
C1758 C1757 1.366 . S
C1758 C1762 1.385 . S
C1759 H1734 0.951 . S
C1759 C1757 1.388 . S
C1759 C1760 1.366 . S
C1760 C1759 1.366 . S
C1760 C1761 1.414 . S
C1760 C1763 1.499 . S
C1761 H1735 0.950 . S
C1761 C1760 1.414 . S
C1761 C1762 1.374 . S
C1762 H1736 0.950 . S
C1762 C1758 1.385 . S
C1762 C1761 1.374 . S
C1763 C1760 1.499 . S
C1763 C1764 1.373 . S
C1763 C1765 1.389 . S
C1764 H1737 0.950 . S
C1764 C1750 1.377 . S
C1764 C1763 1.373 . S
C1765 C1749 1.377 . S
C1765 C1763 1.389 . S
C1765 C1766 1.524 . S
C1766 C1765 1.524 . S
C1766 C1767 1.397 . S
C1766 C1771 1.363 . S
C1767 H1738 0.950 . S
C1767 C1766 1.397 . S
C1767 C1768 1.334 . S
C1768 H1739 0.950 . S
C1768 C1767 1.334 . S
C1768 C1769 1.287 . S
C1769 C1768 1.287 . S
C1769 C1770 1.524 . S
C1769 H1772 0.999 . S
C1770 H1740 0.950 . S
C1770 C1769 1.524 . S
C1770 C1771 1.415 . S
C1771 H1741 0.950 . S
C1771 C1766 1.363 . S
C1771 C1770 1.415 . S
H1772 C1769 0.999 . S
H1773 C1754 0.913 . S
H1774 C1792 0.951 . S
H1775 C1794 0.951 . S
H1776 C1796 0.950 . S
H1777 C1797 0.950 . S
H1778 C1799 0.950 . S
H1779 C1802 0.950 . S
H1780 C1803 0.950 . S
H1781 C1805 0.950 . S
H1782 C1806 0.950 . S
H1783 C1807 0.951 . S
H1784 C1809 0.951 . S
H1785 C1811 0.950 . S
H1786 C1812 0.950 . S
H1787 C1814 0.950 . S
H1788 C1817 0.950 . S
H1789 C1818 0.950 . S
H1790 C1820 0.950 . S
H1791 C1821 0.950 . S
C1792 H1774 0.951 . S
C1792 C1793 1.366 . S
C1792 C1794 1.388 . S
C1793 C1792 1.366 . S
C1793 C1797 1.385 . S
C1794 H1775 0.951 . S
C1794 C1792 1.388 . S
C1794 C1795 1.366 . S
C1795 C1794 1.366 . S
C1795 C1796 1.414 . S
C1795 C1798 1.499 . S
C1796 H1776 0.950 . S
C1796 C1795 1.414 . S
C1796 C1797 1.374 . S
C1797 H1777 0.950 . S
C1797 C1793 1.385 . S
C1797 C1796 1.374 . S
C1798 C1795 1.499 . S
C1798 C1799 1.373 . S
C1798 C1800 1.389 . S
C1799 H1778 0.950 . S
C1799 C1798 1.373 . S
C1799 C1815 1.377 . S
C1800 C1798 1.389 . S
C1800 C1801 1.524 . S
C1800 C1814 1.377 . S
C1801 C1800 1.524 . S
C1801 C1802 1.397 . S
C1801 C1806 1.363 . S
C1802 H1779 0.950 . S
C1802 C1801 1.397 . S
C1802 C1803 1.334 . S
C1803 H1780 0.950 . S
C1803 C1802 1.334 . S
C1803 C1804 1.287 . S
C1804 C1803 1.287 . S
C1804 C1805 1.524 . S
C1804 H1823 0.913 . S
C1805 H1781 0.950 . S
C1805 C1804 1.524 . S
C1805 C1806 1.415 . S
C1806 H1782 0.950 . S
C1806 C1801 1.363 . S
C1806 C1805 1.415 . S
C1807 H1783 0.951 . S
C1807 C1808 1.366 . S
C1807 C1809 1.388 . S
C1808 C1807 1.366 . S
C1808 C1812 1.385 . S
C1809 H1784 0.951 . S
C1809 C1807 1.388 . S
C1809 C1810 1.366 . S
C1810 C1809 1.366 . S
C1810 C1811 1.414 . S
C1810 C1813 1.499 . S
C1811 H1785 0.950 . S
C1811 C1810 1.414 . S
C1811 C1812 1.374 . S
C1812 H1786 0.950 . S
C1812 C1808 1.385 . S
C1812 C1811 1.374 . S
C1813 C1810 1.499 . S
C1813 C1814 1.373 . S
C1813 C1815 1.389 . S
C1814 H1787 0.950 . S
C1814 C1800 1.377 . S
C1814 C1813 1.373 . S
C1815 C1799 1.377 . S
C1815 C1813 1.389 . S
C1815 C1816 1.524 . S
C1816 C1815 1.524 . S
C1816 C1817 1.397 . S
C1816 C1821 1.363 . S
C1817 H1788 0.950 . S
C1817 C1816 1.397 . S
C1817 C1818 1.334 . S
C1818 H1789 0.950 . S
C1818 C1817 1.334 . S
C1818 C1819 1.287 . S
C1819 C1818 1.287 . S
C1819 C1820 1.524 . S
C1819 H1822 0.999 . S
C1820 H1790 0.950 . S
C1820 C1819 1.524 . S
C1820 C1821 1.415 . S
C1821 H1791 0.950 . S
C1821 C1816 1.363 . S
C1821 C1820 1.415 . S
H1822 C1819 0.999 . S
H1823 C1804 0.913 . S
C243 C67 1.067 . S
C258 C11 1.067 . S
C293 C81 1.067 . S
C308 C25 1.067 . S
C343 C95 1.066 . S
C358 C39 1.066 . S
C393 C109 1.066 . S
C408 C53 1.066 . S
C443 C179 1.067 . S
C458 C123 1.067 . S
C493 C193 1.067 . S
C508 C137 1.067 . S
C543 C151 1.067 . S
C558 C207 1.067 . S
C593 C221 1.066 . S
C608 C165 1.066 . S
C643 C4 0.976 1_554 S
C658 C74 0.977 . S
C693 C88 0.977 . S
C708 C18 0.976 1_554 S
C743 C32 0.975 1_554 S
C758 C102 0.975 . S
C793 C60 0.976 . S
C808 C46 0.976 1_554 S
C843 C186 0.976 . S
C858 C116 0.976 . S
C893 C200 0.975 . S
C908 C130 0.976 . S
C943 C144 0.976 . S
C958 C214 0.977 . S
C993 C158 0.976 . S
C1008 C172 0.976 . S
C1043 C215 1.180 . S
C1058 C5 1.181 . S
C1093 C173 1.180 . S
C1108 C19 1.182 . S
C1143 C187 1.180 . S
C1158 C33 1.181 . S
C1193 C201 1.182 . S
C1208 C47 1.180 . S
C1243 C131 1.180 . S
C1258 C61 1.182 . S
C1293 C145 1.180 . S
C1308 C75 1.180 . S
C1343 C89 1.181 . S
C1358 C159 1.180 . S
C1393 C103 1.181 . S
C1408 C117 1.181 . S
C1443 C194 1.704 . S
C1458 C40 1.704 . S
C1493 C208 1.704 . S
C1508 C54 1.704 . S
C1543 C222 1.704 . S
C1558 C12 1.704 . S
C1593 C26 1.704 . S
C1608 C180 1.704 . S
C1643 C166 1.704 . S
C1658 C96 1.704 . S
C1693 C110 1.704 . S
C1708 C124 1.704 . S
C1743 C138 1.704 . S
C1758 C68 1.704 . S
C1793 C152 1.704 . S
C1808 C82 1.704 . S
