# Generated by pormake.
# Topology uks, (4)-cn, num edge types: 1
# Building blocks:
#     Node 0, Type 0, BuildingBlock: NAWXER_clean_sbu_0, # of connection points: 4
#     Node 1, Type 0, BuildingBlock: NAWXER_clean_sbu_0, # of connection points: 4
#     Node 2, Type 0, BuildingBlock: NAWXER_clean_sbu_0, # of connection points: 4
#     Node 3, Type 0, BuildingBlock: NAWXER_clean_sbu_0, # of connection points: 4
#     Node 4, Type 0, BuildingBlock: NAWXER_clean_sbu_0, # of connection points: 4
#     Node 5, Type 0, BuildingBlock: NAWXER_clean_sbu_0, # of connection points: 4
#     Node 6, Type 0, BuildingBlock: NAWXER_clean_sbu_0, # of connection points: 4
#     Node 7, Type 0, BuildingBlock: NAWXER_clean_sbu_0, # of connection points: 4
#     Node 8, Type 0, BuildingBlock: NAWXER_clean_sbu_0, # of connection points: 4
#     Node 9, Type 0, BuildingBlock: NAWXER_clean_sbu_0, # of connection points: 4
#     Node 10, Type 0, BuildingBlock: NAWXER_clean_sbu_0, # of connection points: 4
#     Node 11, Type 0, BuildingBlock: NAWXER_clean_sbu_0, # of connection points: 4
#     Node 12, Type 0, BuildingBlock: NAWXER_clean_sbu_0, # of connection points: 4
#     Node 13, Type 0, BuildingBlock: NAWXER_clean_sbu_0, # of connection points: 4
#     Node 14, Type 0, BuildingBlock: NAWXER_clean_sbu_0, # of connection points: 4
#     Node 15, Type 0, BuildingBlock: NAWXER_clean_sbu_0, # of connection points: 4
#     Node 16, Type 0, BuildingBlock: NAWXER_clean_sbu_0, # of connection points: 4
#     Node 17, Type 0, BuildingBlock: NAWXER_clean_sbu_0, # of connection points: 4
#     Node 18, Type 0, BuildingBlock: NAWXER_clean_sbu_0, # of connection points: 4
#     Node 19, Type 0, BuildingBlock: NAWXER_clean_sbu_0, # of connection points: 4
#     Node 20, Type 0, BuildingBlock: NAWXER_clean_sbu_0, # of connection points: 4
#     Node 21, Type 0, BuildingBlock: NAWXER_clean_sbu_0, # of connection points: 4
#     Node 22, Type 0, BuildingBlock: NAWXER_clean_sbu_0, # of connection points: 4
#     Node 23, Type 0, BuildingBlock: NAWXER_clean_sbu_0, # of connection points: 4
#     Edge 24, Type (0, 0), BuildingBlock: XUDNAN_clean_linker_2, # of connection points: 2
#     Edge 25, Type (0, 0), BuildingBlock: XUDNAN_clean_linker_2, # of connection points: 2
#     Edge 26, Type (0, 0), BuildingBlock: XUDNAN_clean_linker_2, # of connection points: 2
#     Edge 27, Type (0, 0), BuildingBlock: XUDNAN_clean_linker_2, # of connection points: 2
#     Edge 28, Type (0, 0), BuildingBlock: XUDNAN_clean_linker_2, # of connection points: 2
#     Edge 29, Type (0, 0), BuildingBlock: XUDNAN_clean_linker_2, # of connection points: 2
#     Edge 30, Type (0, 0), BuildingBlock: XUDNAN_clean_linker_2, # of connection points: 2
#     Edge 31, Type (0, 0), BuildingBlock: XUDNAN_clean_linker_2, # of connection points: 2
#     Edge 32, Type (0, 0), BuildingBlock: XUDNAN_clean_linker_2, # of connection points: 2
#     Edge 33, Type (0, 0), BuildingBlock: XUDNAN_clean_linker_2, # of connection points: 2
#     Edge 34, Type (0, 0), BuildingBlock: XUDNAN_clean_linker_2, # of connection points: 2
#     Edge 35, Type (0, 0), BuildingBlock: XUDNAN_clean_linker_2, # of connection points: 2
#     Edge 36, Type (0, 0), BuildingBlock: XUDNAN_clean_linker_2, # of connection points: 2
#     Edge 37, Type (0, 0), BuildingBlock: XUDNAN_clean_linker_2, # of connection points: 2
#     Edge 38, Type (0, 0), BuildingBlock: XUDNAN_clean_linker_2, # of connection points: 2
#     Edge 39, Type (0, 0), BuildingBlock: XUDNAN_clean_linker_2, # of connection points: 2
#     Edge 40, Type (0, 0), BuildingBlock: XUDNAN_clean_linker_2, # of connection points: 2
#     Edge 41, Type (0, 0), BuildingBlock: XUDNAN_clean_linker_2, # of connection points: 2
#     Edge 42, Type (0, 0), BuildingBlock: XUDNAN_clean_linker_2, # of connection points: 2
#     Edge 43, Type (0, 0), BuildingBlock: XUDNAN_clean_linker_2, # of connection points: 2
#     Edge 44, Type (0, 0), BuildingBlock: XUDNAN_clean_linker_2, # of connection points: 2
#     Edge 45, Type (0, 0), BuildingBlock: XUDNAN_clean_linker_2, # of connection points: 2
#     Edge 46, Type (0, 0), BuildingBlock: XUDNAN_clean_linker_2, # of connection points: 2
#     Edge 47, Type (0, 0), BuildingBlock: XUDNAN_clean_linker_2, # of connection points: 2
#     Edge 48, Type (0, 0), BuildingBlock: XUDNAN_clean_linker_2, # of connection points: 2
#     Edge 49, Type (0, 0), BuildingBlock: XUDNAN_clean_linker_2, # of connection points: 2
#     Edge 50, Type (0, 0), BuildingBlock: XUDNAN_clean_linker_2, # of connection points: 2
#     Edge 51, Type (0, 0), BuildingBlock: XUDNAN_clean_linker_2, # of connection points: 2
#     Edge 52, Type (0, 0), BuildingBlock: XUDNAN_clean_linker_2, # of connection points: 2
#     Edge 53, Type (0, 0), BuildingBlock: XUDNAN_clean_linker_2, # of connection points: 2
#     Edge 54, Type (0, 0), BuildingBlock: XUDNAN_clean_linker_2, # of connection points: 2
#     Edge 55, Type (0, 0), BuildingBlock: XUDNAN_clean_linker_2, # of connection points: 2
#     Edge 56, Type (0, 0), BuildingBlock: XUDNAN_clean_linker_2, # of connection points: 2
#     Edge 57, Type (0, 0), BuildingBlock: XUDNAN_clean_linker_2, # of connection points: 2
#     Edge 58, Type (0, 0), BuildingBlock: XUDNAN_clean_linker_2, # of connection points: 2
#     Edge 59, Type (0, 0), BuildingBlock: XUDNAN_clean_linker_2, # of connection points: 2
#     Edge 60, Type (0, 0), BuildingBlock: XUDNAN_clean_linker_2, # of connection points: 2
#     Edge 61, Type (0, 0), BuildingBlock: XUDNAN_clean_linker_2, # of connection points: 2
#     Edge 62, Type (0, 0), BuildingBlock: XUDNAN_clean_linker_2, # of connection points: 2
#     Edge 63, Type (0, 0), BuildingBlock: XUDNAN_clean_linker_2, # of connection points: 2
#     Edge 64, Type (0, 0), BuildingBlock: XUDNAN_clean_linker_2, # of connection points: 2
#     Edge 65, Type (0, 0), BuildingBlock: XUDNAN_clean_linker_2, # of connection points: 2
#     Edge 66, Type (0, 0), BuildingBlock: XUDNAN_clean_linker_2, # of connection points: 2
#     Edge 67, Type (0, 0), BuildingBlock: XUDNAN_clean_linker_2, # of connection points: 2
#     Edge 68, Type (0, 0), BuildingBlock: XUDNAN_clean_linker_2, # of connection points: 2
#     Edge 69, Type (0, 0), BuildingBlock: XUDNAN_clean_linker_2, # of connection points: 2
#     Edge 70, Type (0, 0), BuildingBlock: XUDNAN_clean_linker_2, # of connection points: 2
#     Edge 71, Type (0, 0), BuildingBlock: XUDNAN_clean_linker_2, # of connection points: 2
# Relax obj value: 0.065
# Max RMSD: 0.064
# Mean RMSD: 0.064
data_MOF--net-uks--node1-NAWXER_clean_sbu_0--edge1-XUDNAN_clean_linker_2
_symmetry_space_group_name_H-M    P1
_symmetry_Int_Tables_number       1
_symmetry_cell_setting            triclinic
loop_
_symmetry_equiv_pos_as_xyz
'x, y, z'
_cell_length_a     53.773567
_cell_length_b     53.525526
_cell_length_c     53.468878
_cell_angle_alpha  90.024168
_cell_angle_beta   90.088456
_cell_angle_gamma 90.181933
loop_
_atom_site_label
_atom_site_type_symbol
_atom_site_fract_x
_atom_site_fract_y
_atom_site_fract_z
_atom_type_partial_charge
C0 C 0.10473 0.37592 0.69487 0.0
C1 C 0.19647 0.37765 0.70222 0.0
O2 O 0.1199 0.36341 0.68162 0.0
Zn3 Zn 0.15097 0.374 0.69815 0.0
O4 O 0.11312 0.38938 0.71284 0.0
Zn5 Zn 0.14758 0.39906 0.72983 0.0
O6 O 0.14924 0.43519 0.72453 0.0
O7 O 0.15342 0.41305 0.68991 0.0
O8 O 0.18441 0.39006 0.71865 0.0
O9 O 0.18454 0.3644 0.68635 0.0
O10 O 0.14973 0.35597 0.73367 0.0
O11 O 0.14636 0.38439 0.76332 0.0
C12 C 0.15327 0.43425 0.70106 0.0
C13 C 0.14824 0.36157 0.75693 0.0
C14 C 0.59347 0.6313 0.19902 0.0
C15 C 0.67171 0.61153 0.24256 0.0
O16 O 0.59536 0.61968 0.21969 0.0
Zn17 Zn 0.63174 0.62069 0.22257 0.0
O18 O 0.61316 0.63938 0.18822 0.0
Zn19 Zn 0.65219 0.64055 0.19359 0.0
O20 O 0.66509 0.62149 0.16512 0.0
O21 O 0.64429 0.59829 0.19215 0.0
O22 O 0.67395 0.62431 0.22246 0.0
O23 O 0.65013 0.60521 0.25023 0.0
O24 O 0.63952 0.65866 0.23062 0.0
O25 O 0.65897 0.6764 0.1989 0.0
C26 C 0.6569 0.60017 0.17192 0.0
C27 C 0.64985 0.67784 0.22083 0.0
C28 C 0.34318 0.12249 0.73939 0.0
C29 C 0.43022 0.14257 0.71962 0.0
O30 O 0.34622 0.13484 0.7191 0.0
Zn31 Zn 0.37555 0.15107 0.69744 0.0
O32 O 0.36194 0.11673 0.75277 0.0
Zn33 Zn 0.38692 0.13164 0.73088 0.0
O34 O 0.3781 0.16997 0.73597 0.0
O35 O 0.36776 0.18672 0.69968 0.0
O36 O 0.4224 0.13005 0.73826 0.0
O37 O 0.4146 0.15105 0.70368 0.0
O38 O 0.37201 0.13209 0.66643 0.0
O39 O 0.38345 0.10879 0.69846 0.0
C40 C 0.371 0.18885 0.72318 0.0
C41 C 0.37762 0.11074 0.67531 0.0
C42 C 0.92276 0.8627 0.18201 0.0
C43 C 0.83763 0.87834 0.2086 0.0
O44 O 0.92256 0.87355 0.20342 0.0
Zn45 Zn 0.89408 0.88716 0.22847 0.0
O46 O 0.90224 0.85776 0.17139 0.0
Zn47 Zn 0.87984 0.87054 0.19617 0.0
O48 O 0.88347 0.91084 0.19435 0.0
O49 O 0.90041 0.92256 0.23006 0.0
O50 O 0.8451 0.86758 0.1888 0.0
O51 O 0.85356 0.88615 0.2248 0.0
O52 O 0.89898 0.86841 0.25881 0.0
O53 O 0.88342 0.84565 0.22816 0.0
C54 C 0.89143 0.92823 0.20884 0.0
C55 C 0.89076 0.84756 0.25098 0.0
C56 C 0.15779 0.11657 0.88063 0.0
C57 C 0.16259 0.20208 0.84665 0.0
O58 O 0.14659 0.11941 0.85968 0.0
Zn59 Zn 0.1392 0.1481 0.83313 0.0
O60 O 0.16816 0.13536 0.89095 0.0
Zn61 Zn 0.16075 0.16001 0.86508 0.0
O62 O 0.12178 0.16541 0.86814 0.0
O63 O 0.10299 0.15137 0.8342 0.0
O64 O 0.17208 0.1948 0.86724 0.0
O65 O 0.15061 0.18644 0.83301 0.0
O66 O 0.15638 0.13529 0.80376 0.0
O67 O 0.18184 0.14609 0.83437 0.0
C68 C 0.10182 0.16189 0.85552 0.0
C69 C 0.1784 0.1372 0.81238 0.0
C70 C 0.93005 0.63976 0.31799 0.0
C71 C 0.84099 0.62308 0.30594 0.0
O72 O 0.91975 0.63268 0.29773 0.0
Zn73 Zn 0.88578 0.63087 0.31039 0.0
O74 O 0.91693 0.64298 0.33765 0.0
Zn75 Zn 0.87906 0.64132 0.34875 0.0
O76 O 0.87924 0.61549 0.37432 0.0
O77 O 0.88615 0.60058 0.33647 0.0
O78 O 0.84688 0.63042 0.32798 0.0
O79 O 0.85776 0.62134 0.28923 0.0
O80 O 0.87878 0.66938 0.31621 0.0
O81 O 0.87282 0.67672 0.35631 0.0
C82 C 0.8831 0.5969 0.35996 0.0
C83 C 0.87446 0.68479 0.33395 0.0
C84 C 0.43762 0.39895 0.80612 0.0
C85 C 0.3659 0.41122 0.75022 0.0
O86 O 0.41638 0.39739 0.81684 0.0
Zn87 Zn 0.37789 0.40078 0.8082 0.0
O88 O 0.43861 0.40462 0.78303 0.0
Zn89 Zn 0.40259 0.40749 0.77729 0.0
O90 O 0.3919 0.44047 0.79799 0.0
O91 O 0.36666 0.42866 0.8283 0.0
O92 O 0.38863 0.41286 0.74372 0.0
O93 O 0.36032 0.40751 0.77318 0.0
O94 O 0.36576 0.36706 0.81478 0.0
O95 O 0.39042 0.36969 0.78191 0.0
C96 C 0.37815 0.44599 0.81684 0.0
C97 C 0.37638 0.35668 0.79623 0.0
C98 C 0.58828 0.89166 0.31364 0.0
C99 C 0.66911 0.89937 0.27309 0.0
O100 O 0.59334 0.89974 0.29191 0.0
Zn101 Zn 0.6288 0.89586 0.29307 0.0
O102 O 0.60592 0.88429 0.32802 0.0
Zn103 Zn 0.64598 0.88179 0.32587 0.0
O104 O 0.65805 0.90464 0.35162 0.0
O105 O 0.63972 0.92364 0.31996 0.0
O106 O 0.67053 0.89091 0.29548 0.0
O107 O 0.64804 0.90508 0.26394 0.0
O108 O 0.63453 0.85611 0.29319 0.0
O109 O 0.65201 0.84632 0.32919 0.0
C110 C 0.65083 0.92467 0.34116 0.0
C111 C 0.64383 0.83966 0.30786 0.0
C112 C 0.72807 0.14877 0.35316 0.0
C113 C 0.69721 0.14916 0.4389 0.0
O114 O 0.74074 0.13469 0.36776 0.0
Zn115 Zn 0.74116 0.12391 0.40652 0.0
O116 O 0.70878 0.15976 0.36132 0.0
Zn117 Zn 0.71128 0.14767 0.39533 0.0
O118 O 0.74459 0.16627 0.40587 0.0
O119 O 0.77364 0.1387 0.4152 0.0
O120 O 0.68784 0.15916 0.41954 0.0
O121 O 0.71693 0.13581 0.43676 0.0
O122 O 0.73621 0.08756 0.40468 0.0
O123 O 0.70342 0.10885 0.39236 0.0
C124 C 0.76697 0.16134 0.41228 0.0
C125 C 0.71402 0.08783 0.39638 0.0
C126 C 0.87779 0.18721 0.93519 0.0
C127 C 0.87821 0.21328 0.84806 0.0
O128 O 0.88522 0.20987 0.93271 0.0
Zn129 Zn 0.89136 0.23565 0.90245 0.0
O130 O 0.87153 0.17479 0.91593 0.0
Zn131 Zn 0.87743 0.2004 0.89147 0.0
O132 O 0.91737 0.2036 0.89155 0.0
O133 O 0.9266 0.24164 0.90459 0.0
O134 O 0.8711 0.19243 0.85691 0.0
O135 O 0.88582 0.23054 0.86291 0.0
O136 O 0.86937 0.26296 0.91003 0.0
O137 O 0.84948 0.22811 0.90009 0.0
C138 C 0.93363 0.22033 0.89696 0.0
C139 C 0.84914 0.25117 0.90664 0.0
C140 C 0.82724 0.37329 0.43328 0.0
C141 C 0.77401 0.38495 0.35943 0.0
O142 O 0.80422 0.37897 0.43393 0.0
Zn143 Zn 0.79993 0.38131 0.3977 0.0
O144 O 0.83845 0.37191 0.41221 0.0
Zn145 Zn 0.83128 0.37489 0.37303 0.0
O146 O 0.85162 0.40408 0.36378 0.0
O147 O 0.82152 0.41359 0.39008 0.0
O148 O 0.79684 0.38059 0.35418 0.0
O149 O 0.76758 0.38722 0.3822 0.0
O150 O 0.80712 0.34341 0.38848 0.0
O151 O 0.8397 0.34019 0.36368 0.0
C152 C 0.84059 0.42014 0.37735 0.0
C153 C 0.82243 0.32978 0.37631 0.0
C154 C 0.63159 0.27178 0.86784 0.0
C155 C 0.6198 0.31973 0.94478 0.0
O156 O 0.62237 0.26396 0.88827 0.0
Zn157 Zn 0.62439 0.29553 0.9065 0.0
O158 O 0.63783 0.2948 0.86584 0.0
Zn159 Zn 0.63877 0.32788 0.88787 0.0
O160 O 0.67455 0.33463 0.88834 0.0
O161 O 0.66362 0.30105 0.90973 0.0
O162 O 0.62834 0.33299 0.92667 0.0
O163 O 0.61503 0.29669 0.94131 0.0
O164 O 0.5969 0.31917 0.88953 0.0
O165 O 0.61612 0.34995 0.86989 0.0
C166 C 0.68048 0.31617 0.90208 0.0
C167 C 0.59603 0.33903 0.87613 0.0
C168 C 0.68349 0.37633 0.19957 0.0
C169 C 0.64671 0.37003 0.11599 0.0
O170 O 0.69948 0.37887 0.18197 0.0
Zn171 Zn 0.70015 0.37891 0.14182 0.0
O172 O 0.66081 0.37248 0.19399 0.0
Zn173 Zn 0.66434 0.37305 0.1578 0.0
O174 O 0.68472 0.33952 0.14973 0.0
O175 O 0.72107 0.3504 0.13406 0.0
O176 O 0.63528 0.36821 0.13672 0.0
O177 O 0.6702 0.37403 0.1156 0.0
O178 O 0.71147 0.41259 0.134 0.0
O179 O 0.6739 0.41144 0.15045 0.0
C180 C 0.70587 0.33337 0.14061 0.0
C181 C 0.69214 0.42404 0.14141 0.0
C182 C 0.65914 0.19726 0.70445 0.0
C183 C 0.65329 0.17968 0.61452 0.0
O184 O 0.64665 0.2132 0.69181 0.0
Zn185 Zn 0.63428 0.21998 0.65455 0.0
O186 O 0.66859 0.17834 0.69359 0.0
Zn187 Zn 0.65673 0.18712 0.66004 0.0
O188 O 0.67698 0.22098 0.65306 0.0
O189 O 0.65049 0.25204 0.64822 0.0
O190 O 0.66481 0.16679 0.63079 0.0
O191 O 0.64145 0.19926 0.62135 0.0
O192 O 0.59825 0.21736 0.65872 0.0
O193 O 0.61772 0.18186 0.66585 0.0
C194 C 0.67282 0.24422 0.64908 0.0
C195 C 0.59753 0.19452 0.66532 0.0
C196 C 0.7811 0.16747 0.13552 0.0
C197 C 0.83139 0.09461 0.15988 0.0
O198 O 0.80345 0.17245 0.14205 0.0
Zn199 Zn 0.83614 0.1545 0.15447 0.0
O200 O 0.77376 0.14482 0.13515 0.0
Zn201 Zn 0.80522 0.12973 0.14633 0.0
O202 O 0.80707 0.14339 0.18363 0.0
O203 O 0.83893 0.16939 0.18767 0.0
O204 O 0.80922 0.09388 0.15147 0.0
O205 O 0.8427 0.11569 0.16162 0.0
O206 O 0.85928 0.16274 0.12771 0.0
O207 O 0.82964 0.13656 0.11589 0.0
C208 C 0.82015 0.15828 0.19701 0.0
C209 C 0.84923 0.14926 0.11087 0.0
C210 C 0.89382 0.27929 0.67811 0.0
C211 C 0.88956 0.31927 0.5968 0.0
O212 O 0.89921 0.2697 0.65705 0.0
Zn213 Zn 0.89401 0.29958 0.63762 0.0
O214 O 0.88773 0.30241 0.67942 0.0
Zn215 Zn 0.88243 0.33345 0.65448 0.0
O216 O 0.84745 0.34074 0.66009 0.0
O217 O 0.85425 0.30425 0.64211 0.0
O218 O 0.88346 0.33417 0.61449 0.0
O219 O 0.8977 0.29762 0.6019 0.0
O220 O 0.92438 0.32314 0.64906 0.0
O221 O 0.90781 0.35713 0.66498 0.0
C222 C 0.83902 0.32048 0.65083 0.0
C223 C 0.92706 0.34466 0.65927 0.0
C224 C 0.34026 0.71394 0.16378 0.0
C225 C 0.42467 0.68331 0.15325 0.0
O226 O 0.3526 0.72615 0.14735 0.0
Zn227 Zn 0.38894 0.72569 0.13068 0.0
O228 O 0.34958 0.69482 0.17431 0.0
Zn229 Zn 0.38126 0.69709 0.15724 0.0
O230 O 0.39347 0.73219 0.17253 0.0
O231 O 0.39973 0.75878 0.1416 0.0
O232 O 0.40745 0.67427 0.16673 0.0
O233 O 0.42006 0.70207 0.13905 0.0
O234 O 0.38149 0.71975 0.09556 0.0
O235 O 0.3707 0.68793 0.11936 0.0
C236 C 0.39914 0.7542 0.16496 0.0
C237 C 0.37161 0.69826 0.0977 0.0
C238 C 0.35116 0.87573 0.40465 0.0
C239 C 0.36928 0.84434 0.32021 0.0
O240 O 0.34462 0.88529 0.3839 0.0
Zn241 Zn 0.36036 0.86119 0.36185 0.0
O242 O 0.36502 0.85626 0.40468 0.0
Zn243 Zn 0.38159 0.83151 0.37791 0.0
O244 O 0.41736 0.83571 0.38249 0.0
O245 O 0.3994 0.8684 0.3652 0.0
O246 O 0.37896 0.83141 0.33788 0.0
O247 O 0.35643 0.86354 0.32559 0.0
O248 O 0.33976 0.8279 0.37026 0.0
O249 O 0.36552 0.79996 0.38598 0.0
C250 C 0.41914 0.85734 0.37278 0.0
C251 C 0.34363 0.80608 0.37932 0.0
C252 C 0.19689 0.8501 0.86962 0.0
C253 C 0.18358 0.93732 0.89503 0.0
O254 O 0.21622 0.86182 0.87704 0.0
Zn255 Zn 0.22754 0.89687 0.89069 0.0
O256 O 0.17586 0.86099 0.86904 0.0
Zn257 Zn 0.18812 0.89337 0.88186 0.0
O258 O 0.211 0.90526 0.85176 0.0
O259 O 0.25034 0.9069 0.86343 0.0
O260 O 0.16702 0.92259 0.88638 0.0
O261 O 0.20603 0.92967 0.89751 0.0
O262 O 0.23844 0.88645 0.9241 0.0
O263 O 0.19775 0.88318 0.91915 0.0
C264 C 0.23383 0.90952 0.84651 0.0
C265 C 0.21712 0.88078 0.93286 0.0
C266 C 0.18302 0.71775 0.37774 0.0
C267 C 0.09461 0.69657 0.37038 0.0
O268 O 0.16469 0.73245 0.38051 0.0
Zn269 Zn 0.13848 0.70781 0.37579 0.0
O270 O 0.17901 0.69464 0.37275 0.0
Zn271 Zn 0.14798 0.67001 0.36693 0.0
O272 O 0.1519 0.66 0.3317 0.0
O273 O 0.14189 0.69954 0.337 0.0
O274 O 0.10894 0.67776 0.3673 0.0
O275 O 0.1038 0.71774 0.37612 0.0
O276 O 0.14285 0.68403 0.40783 0.0
O277 O 0.15215 0.64636 0.39408 0.0
C278 C 0.14652 0.6812 0.32236 0.0
C279 C 0.1483 0.66115 0.41231 0.0
C280 C 0.29699 0.64633 0.93699 0.0
C281 C 0.25672 0.63255 0.8554 0.0
O282 O 0.30992 0.65482 0.91874 0.0
Zn283 Zn 0.30757 0.65491 0.87874 0.0
O284 O 0.27683 0.63475 0.93237 0.0
Zn285 Zn 0.2766 0.63757 0.89607 0.0
O286 O 0.305 0.61182 0.88351 0.0
O287 O 0.33516 0.63476 0.86763 0.0
O288 O 0.24774 0.62633 0.87656 0.0
O289 O 0.27838 0.64253 0.85428 0.0
O290 O 0.30699 0.68996 0.87021 0.0
O291 O 0.27278 0.67719 0.88919 0.0
C292 C 0.32633 0.61334 0.87283 0.0
C293 C 0.28534 0.69459 0.87854 0.0
C294 C 0.09288 0.81661 0.13352 0.0
C295 C 0.1796 0.7925 0.14654 0.0
O296 O 0.09859 0.79643 0.12192 0.0
Zn297 Zn 0.13103 0.77383 0.11649 0.0
O298 O 0.10969 0.82866 0.14516 0.0
Zn299 Zn 0.13737 0.80655 0.13854 0.0
O300 O 0.14684 0.81102 0.09956 0.0
O301 O 0.13899 0.77491 0.0812 0.0
O302 O 0.16958 0.81248 0.1546 0.0
O303 O 0.16717 0.77783 0.13231 0.0
O304 O 0.12224 0.74208 0.13234 0.0
O305 O 0.12717 0.77335 0.15882 0.0
C306 C 0.14705 0.79722 0.07993 0.0
C307 C 0.12263 0.75017 0.15474 0.0
C308 C 0.20428 0.65169 0.68146 0.0
C309 C 0.18946 0.64801 0.59067 0.0
O310 O 0.18499 0.65981 0.67024 0.0
Zn311 Zn 0.19671 0.65259 0.63631 0.0
O312 O 0.22249 0.64319 0.66861 0.0
Zn313 Zn 0.23235 0.63618 0.63045 0.0
O314 O 0.26091 0.65769 0.6255 0.0
O315 O 0.22661 0.67912 0.63202 0.0
O316 O 0.21064 0.63948 0.59739 0.0
O317 O 0.17544 0.65816 0.60686 0.0
O318 O 0.19829 0.61231 0.63921 0.0
O319 O 0.23695 0.60048 0.63154 0.0
C320 C 0.25016 0.67862 0.62812 0.0
C321 C 0.21461 0.595 0.6372 0.0
C322 C 0.31336 0.85148 0.63343 0.0
C323 C 0.33685 0.94019 0.63071 0.0
O324 O 0.29519 0.86599 0.62803 0.0
Zn325 Zn 0.28869 0.90529 0.62343 0.0
O326 O 0.33464 0.86089 0.63806 0.0
Zn327 Zn 0.32568 0.89578 0.63351 0.0
O328 O 0.30167 0.90296 0.66498 0.0
O329 O 0.26508 0.9131 0.64957 0.0
O330 O 0.35071 0.92212 0.63729 0.0
O331 O 0.314 0.93606 0.6253 0.0
O332 O 0.27863 0.9074 0.58868 0.0
O333 O 0.31802 0.89697 0.59368 0.0
C334 C 0.27905 0.90963 0.66845 0.0
C335 C 0.29956 0.90174 0.57919 0.0
H336 H 0.15396 0.2197 0.79979 0.0
H337 H 0.17357 0.24426 0.8746 0.0
H338 H 0.17129 0.28841 0.86045 0.0
H339 H 0.18872 0.26687 0.76647 0.0
H340 H 0.16563 0.26943 0.74214 0.0
H341 H 0.1696 0.2403 0.75847 0.0
H342 H 0.12282 0.24045 0.77014 0.0
H343 H 0.11876 0.26973 0.75413 0.0
H344 H 0.11007 0.26689 0.78655 0.0
H345 H 0.16459 0.33049 0.83747 0.0
H346 H 0.15791 0.36536 0.80762 0.0
H347 H 0.14335 0.31161 0.7486 0.0
C348 C 0.15796 0.2343 0.81327 0.0
C349 C 0.1639 0.22851 0.83835 0.0
C350 C 0.16912 0.24824 0.85526 0.0
C351 C 0.16772 0.27336 0.8474 0.0
C352 C 0.16127 0.27835 0.82256 0.0
C353 C 0.15679 0.25923 0.80575 0.0
C354 C 0.15031 0.26913 0.78009 0.0
C355 C 0.16973 0.26095 0.76065 0.0
C356 C 0.12392 0.26107 0.77229 0.0
C357 C 0.15167 0.2969 0.78496 0.0
C358 C 0.15785 0.30202 0.80954 0.0
C359 C 0.15986 0.32659 0.81818 0.0
C360 C 0.15589 0.34629 0.80114 0.0
C361 C 0.15015 0.34126 0.77574 0.0
C362 C 0.14781 0.31617 0.76783 0.0
H363 H 0.71849 0.6102 0.2239 0.0
H364 H 0.67701 0.60088 0.2928 0.0
H365 H 0.71675 0.59868 0.31635 0.0
H366 H 0.77224 0.57001 0.24088 0.0
H367 H 0.79381 0.59054 0.22523 0.0
H368 H 0.76239 0.58749 0.21383 0.0
H369 H 0.75688 0.63544 0.21721 0.0
H370 H 0.78808 0.63866 0.22891 0.0
H371 H 0.76237 0.65069 0.24678 0.0
H372 H 0.76064 0.60364 0.33253 0.0
H373 H 0.80494 0.61272 0.3402 0.0
H374 H 0.81757 0.61856 0.26026 0.0
C375 C 0.7177 0.6071 0.2439 0.0
C376 C 0.69468 0.6057 0.25659 0.0
C377 C 0.69444 0.60174 0.28273 0.0
C378 C 0.71692 0.60056 0.29621 0.0
C379 C 0.73929 0.603 0.28313 0.0
C380 C 0.73981 0.60582 0.25749 0.0
C381 C 0.76602 0.60987 0.24794 0.0
C382 C 0.77409 0.58818 0.23097 0.0
C383 C 0.76846 0.63517 0.23443 0.0
C384 C 0.78026 0.60981 0.27233 0.0
C385 C 0.76454 0.60563 0.29239 0.0
C386 C 0.77313 0.6065 0.31693 0.0
C387 C 0.79833 0.61184 0.32107 0.0
C388 C 0.81476 0.6163 0.30079 0.0
C389 C 0.80558 0.61492 0.2761 0.0
H390 H 0.38548 0.33412 0.75148 0.0
H391 H 0.35643 0.31952 0.82577 0.0
H392 H 0.34926 0.27528 0.81396 0.0
H393 H 0.34232 0.2937 0.71807 0.0
H394 H 0.36533 0.28401 0.69561 0.0
H395 H 0.3674 0.31451 0.70978 0.0
H396 H 0.41215 0.30476 0.72489 0.0
H397 H 0.41026 0.27431 0.71073 0.0
H398 H 0.41766 0.27723 0.7435 0.0
H399 H 0.34823 0.23228 0.79486 0.0
H400 H 0.35229 0.19375 0.76987 0.0
H401 H 0.38006 0.23697 0.70721 0.0
C402 C 0.3776 0.32167 0.76534 0.0
C403 C 0.37169 0.3302 0.78968 0.0
C404 C 0.36113 0.31336 0.80708 0.0
C405 C 0.35698 0.28825 0.80051 0.0
C406 C 0.36313 0.28049 0.77636 0.0
C407 C 0.37306 0.29676 0.759 0.0
C408 C 0.3784 0.28374 0.73441 0.0
C409 C 0.36241 0.29464 0.71321 0.0
C410 C 0.40627 0.28509 0.72802 0.0
C411 C 0.37046 0.25735 0.74075 0.0
C412 C 0.36169 0.25591 0.76505 0.0
C413 C 0.35474 0.23326 0.77575 0.0
C414 C 0.35717 0.21149 0.76142 0.0
C415 C 0.36626 0.21249 0.73657 0.0
C416 C 0.37257 0.23579 0.72597 0.0
H417 H 0.71669 0.90231 0.29014 0.0
H418 H 0.67311 0.89818 0.22191 0.0
H419 H 0.71189 0.89392 0.19731 0.0
H420 H 0.76924 0.93771 0.2634 0.0
H421 H 0.79163 0.92121 0.28225 0.0
H422 H 0.76056 0.92608 0.29381 0.0
H423 H 0.7557 0.87835 0.30059 0.0
H424 H 0.78657 0.87329 0.28874 0.0
H425 H 0.76048 0.8574 0.27464 0.0
H426 H 0.75535 0.88527 0.18104 0.0
H427 H 0.80008 0.87731 0.17385 0.0
H428 H 0.81467 0.88878 0.25287 0.0
C429 C 0.7153 0.90095 0.26997 0.0
C430 C 0.69195 0.90055 0.25787 0.0
C431 C 0.69087 0.89874 0.23148 0.0
C432 C 0.71277 0.8962 0.21741 0.0
C433 C 0.73549 0.89592 0.23004 0.0
C434 C 0.73688 0.89872 0.2557 0.0
C435 C 0.76341 0.89715 0.26497 0.0
C436 C 0.7717 0.92202 0.2768 0.0
C437 C 0.76672 0.87524 0.28331 0.0
C438 C 0.77676 0.89237 0.2406 0.0
C439 C 0.76039 0.89167 0.22064 0.0
C440 C 0.76836 0.88616 0.19647 0.0
C441 C 0.79375 0.8815 0.1926 0.0
C442 C 0.81083 0.88256 0.21279 0.0
C443 C 0.80212 0.88813 0.23702 0.0
H444 H 0.81154 0.12422 0.23321 0.0
H445 H 0.80691 0.20325 0.2167 0.0
H446 H 0.78138 0.20959 0.25482 0.0
H447 H 0.75157 0.11557 0.2541 0.0
H448 H 0.75896 0.09421 0.27906 0.0
H449 H 0.77888 0.09622 0.25212 0.0
H450 H 0.81691 0.10614 0.28031 0.0
H451 H 0.79728 0.10333 0.30744 0.0
H452 H 0.81513 0.13145 0.30249 0.0
H453 H 0.75156 0.20569 0.29162 0.0
H454 H 0.72708 0.19374 0.32902 0.0
H455 H 0.75371 0.11767 0.32234 0.0
C456 C 0.8059 0.14299 0.23821 0.0
C457 C 0.81142 0.16337 0.22248 0.0
C458 C 0.80331 0.18759 0.22902 0.0
C459 C 0.78857 0.19125 0.2504 0.0
C460 C 0.78256 0.17052 0.26506 0.0
C461 C 0.79165 0.14699 0.25964 0.0
C462 C 0.78243 0.12772 0.27815 0.0
C463 C 0.76705 0.10723 0.26507 0.0
C464 C 0.80423 0.11651 0.29298 0.0
C465 C 0.76624 0.14391 0.29454 0.0
C466 C 0.76624 0.16848 0.28655 0.0
C467 C 0.75171 0.18659 0.29824 0.0
C468 C 0.73761 0.17958 0.31922 0.0
C469 C 0.73848 0.15479 0.3284 0.0
C470 C 0.75271 0.13675 0.31565 0.0
H471 H 0.89321 0.2961 0.72608 0.0
H472 H 0.89251 0.22802 0.68197 0.0
H473 H 0.88764 0.20317 0.72077 0.0
H474 H 0.92815 0.27144 0.77818 0.0
H475 H 0.91091 0.28926 0.80087 0.0
H476 H 0.91485 0.30112 0.76962 0.0
H477 H 0.86699 0.30507 0.76513 0.0
H478 H 0.86288 0.29295 0.79626 0.0
H479 H 0.84763 0.27798 0.77018 0.0
H480 H 0.88068 0.18619 0.76485 0.0
H481 H 0.87611 0.17841 0.8103 0.0
H482 H 0.88239 0.25804 0.82435 0.0
C483 C 0.89219 0.27595 0.72451 0.0
C484 C 0.89317 0.26397 0.70104 0.0
C485 C 0.89192 0.23755 0.69982 0.0
C486 C 0.88902 0.22332 0.72172 0.0
C487 C 0.88764 0.23584 0.74457 0.0
C488 C 0.8895 0.26156 0.74605 0.0
C489 C 0.88769 0.27066 0.77272 0.0
C490 C 0.91184 0.28389 0.78082 0.0
C491 C 0.86494 0.28766 0.77627 0.0
C492 C 0.88435 0.24607 0.78611 0.0
C493 C 0.88419 0.22616 0.76965 0.0
C494 C 0.88093 0.20164 0.7779 0.0
C495 C 0.87822 0.19742 0.80369 0.0
C496 C 0.87899 0.21762 0.82082 0.0
C497 C 0.88188 0.24219 0.81175 0.0
H498 H 0.78341 0.38585 0.30925 0.0
H499 H 0.72278 0.38584 0.36273 0.0
H500 H 0.69252 0.38427 0.32773 0.0
H501 H 0.75335 0.42447 0.26246 0.0
H502 H 0.76668 0.40731 0.23678 0.0
H503 H 0.78309 0.40945 0.2661 0.0
H504 H 0.78522 0.36112 0.2683 0.0
H505 H 0.76867 0.35882 0.2391 0.0
H506 H 0.75688 0.34312 0.26646 0.0
H507 H 0.66898 0.38048 0.28607 0.0
H508 H 0.6546 0.37687 0.24216 0.0
H509 H 0.73123 0.3799 0.21697 0.0
C510 C 0.76377 0.38573 0.31372 0.0
C511 C 0.75549 0.38597 0.3388 0.0
C512 C 0.72959 0.38579 0.34368 0.0
C513 C 0.71227 0.38482 0.32391 0.0
C514 C 0.72116 0.38421 0.29938 0.0
C515 C 0.74634 0.38488 0.29431 0.0
C516 C 0.75132 0.38372 0.26649 0.0
C517 C 0.76438 0.40767 0.25743 0.0
C518 C 0.76641 0.3603 0.2597 0.0
C519 C 0.72501 0.38203 0.25658 0.0
C520 C 0.7078 0.38232 0.27575 0.0
C521 C 0.68234 0.3804 0.27095 0.0
C522 C 0.67434 0.37829 0.24595 0.0
C523 C 0.69174 0.37816 0.22605 0.0
C524 C 0.71738 0.38006 0.23165 0.0
H525 H 0.66548 0.24158 0.72714 0.0
H526 H 0.65563 0.16276 0.7426 0.0
H527 H 0.64926 0.17257 0.78763 0.0
H528 H 0.69704 0.25837 0.78667 0.0
H529 H 0.68153 0.28816 0.78765 0.0
H530 H 0.68873 0.27398 0.75798 0.0
H531 H 0.64231 0.27723 0.74527 0.0
H532 H 0.63482 0.29085 0.77504 0.0
H533 H 0.61893 0.26296 0.76479 0.0
H534 H 0.6383 0.19266 0.83025 0.0
H535 H 0.62833 0.22015 0.86628 0.0
H536 H 0.64577 0.28509 0.82097 0.0
C537 C 0.66275 0.22629 0.74015 0.0
C538 C 0.66122 0.20144 0.7316 0.0
C539 C 0.6573 0.1819 0.74898 0.0
C540 C 0.65346 0.18736 0.77449 0.0
C541 C 0.65398 0.21235 0.78213 0.0
C542 C 0.65906 0.2314 0.76541 0.0
C543 C 0.65726 0.25679 0.77753 0.0
C544 C 0.68265 0.2701 0.77746 0.0
C545 C 0.63713 0.27288 0.7649 0.0
C546 C 0.64971 0.24928 0.80361 0.0
C547 C 0.64792 0.22363 0.80613 0.0
C548 C 0.64002 0.21273 0.82851 0.0
C549 C 0.63422 0.22847 0.84881 0.0
C550 C 0.63634 0.25478 0.84651 0.0
C551 C 0.64412 0.26508 0.82351 0.0
H552 H 0.29531 0.70136 0.14498 0.0
H553 H 0.33237 0.75113 0.19686 0.0
H554 H 0.29387 0.77617 0.20079 0.0
H555 H 0.2658 0.74644 0.11187 0.0
H556 H 0.23728 0.72955 0.10627 0.0
H557 H 0.26573 0.71275 0.11136 0.0
H558 H 0.2458 0.68845 0.14822 0.0
H559 H 0.21699 0.70471 0.14283 0.0
H560 H 0.23127 0.70546 0.17334 0.0
H561 H 0.25281 0.7989 0.19421 0.0
H562 H 0.21202 0.8153 0.17993 0.0
H563 H 0.20358 0.75065 0.13151 0.0
C564 C 0.29478 0.71678 0.15809 0.0
C565 C 0.31621 0.72396 0.17133 0.0
C566 C 0.31563 0.74502 0.1873 0.0
C567 C 0.29397 0.7594 0.18947 0.0
C568 C 0.27322 0.7524 0.17544 0.0
C569 C 0.27338 0.73133 0.16035 0.0
C570 C 0.24968 0.72909 0.14536 0.0
C571 C 0.25496 0.7295 0.11705 0.0
C572 C 0.23507 0.70553 0.1529 0.0
C573 C 0.23654 0.75254 0.1537 0.0
C574 C 0.25014 0.76571 0.17121 0.0
C575 C 0.24184 0.78853 0.18073 0.0
C576 C 0.21879 0.79782 0.1724 0.0
C577 C 0.20459 0.78433 0.1546 0.0
C578 C 0.21384 0.76151 0.14518 0.0
H579 H 0.29414 0.81702 0.37568 0.0
H580 H 0.34502 0.75549 0.38838 0.0
H581 H 0.30924 0.72634 0.39058 0.0
H582 H 0.24559 0.79509 0.41747 0.0
H583 H 0.22084 0.80595 0.39752 0.0
H584 H 0.2504 0.82187 0.39761 0.0
H585 H 0.25382 0.81568 0.34966 0.0
H586 H 0.22431 0.7997 0.34942 0.0
H587 H 0.25146 0.78464 0.33676 0.0
H588 H 0.26798 0.70376 0.38895 0.0
H589 H 0.22444 0.6895 0.38562 0.0
H590 H 0.20043 0.76619 0.37546 0.0
C591 C 0.29783 0.79742 0.37902 0.0
C592 C 0.32243 0.7885 0.38176 0.0
C593 C 0.32636 0.76275 0.38626 0.0
C594 C 0.30615 0.74607 0.38751 0.0
C595 C 0.28217 0.75551 0.38448 0.0
C596 C 0.27793 0.78063 0.38055 0.0
C597 C 0.25041 0.78605 0.37776 0.0
C598 C 0.24128 0.80326 0.39885 0.0
C599 C 0.24467 0.79717 0.35186 0.0
C600 C 0.23976 0.75997 0.38036 0.0
C601 C 0.2584 0.74262 0.38418 0.0
C602 C 0.25324 0.7172 0.38618 0.0
C603 C 0.22843 0.7093 0.38417 0.0
C604 C 0.20899 0.72674 0.38037 0.0
C605 C 0.21482 0.75244 0.37863 0.0
H606 H 0.19315 0.80922 0.89914 0.0
H607 H 0.21321 0.83408 0.82488 0.0
H608 H 0.23714 0.79532 0.81834 0.0
H609 H 0.2489 0.78679 0.91535 0.0
H610 H 0.23891 0.75959 0.93252 0.0
H611 H 0.21866 0.78614 0.92984 0.0
H612 H 0.18386 0.75866 0.9106 0.0
H613 H 0.20357 0.73171 0.91413 0.0
H614 H 0.19065 0.73922 0.88394 0.0
H615 H 0.26601 0.75915 0.82357 0.0
H616 H 0.29102 0.72269 0.83652 0.0
H617 H 0.25093 0.71971 0.90678 0.0
C618 C 0.20115 0.80559 0.88092 0.0
C619 C 0.20056 0.82405 0.86208 0.0
C620 C 0.21262 0.81962 0.83905 0.0
C621 C 0.22657 0.79783 0.83536 0.0
C622 C 0.22807 0.78063 0.85487 0.0
C623 C 0.21502 0.78381 0.87692 0.0
C624 C 0.22144 0.76353 0.89567 0.0
C625 C 0.23264 0.77469 0.91975 0.0
C626 C 0.19852 0.74731 0.90141 0.0
C627 C 0.24074 0.74902 0.88105 0.0
C628 C 0.24444 0.75934 0.85765 0.0
C629 C 0.26283 0.75052 0.84158 0.0
C630 C 0.27719 0.73005 0.84924 0.0
C631 C 0.27287 0.71843 0.87261 0.0
C632 C 0.25449 0.72817 0.88874 0.0
H633 H 0.23218 0.72653 0.62754 0.0
H634 H 0.30098 0.68436 0.62852 0.0
H635 H 0.32491 0.72386 0.63049 0.0
H636 H 0.25464 0.77696 0.58864 0.0
H637 H 0.23716 0.80044 0.60511 0.0
H638 H 0.22572 0.76882 0.60362 0.0
H639 H 0.22352 0.76739 0.65202 0.0
H640 H 0.23511 0.79895 0.65367 0.0
H641 H 0.25101 0.77432 0.67012 0.0
H642 H 0.34126 0.76852 0.63383 0.0
H643 H 0.34852 0.81421 0.63555 0.0
H644 H 0.26888 0.82655 0.63137 0.0
C645 C 0.25229 0.72554 0.62806 0.0
C646 C 0.26468 0.70228 0.6279 0.0
C647 C 0.29104 0.70192 0.62854 0.0
C648 C 0.3048 0.72427 0.62975 0.0
C649 C 0.29196 0.74687 0.63014 0.0
C650 C 0.26628 0.74763 0.62909 0.0
C651 C 0.25689 0.77426 0.62952 0.0
C652 C 0.24278 0.78048 0.60528 0.0
C653 C 0.24068 0.779 0.65272 0.0
C654 C 0.28126 0.78842 0.63111 0.0
C655 C 0.30131 0.77235 0.63158 0.0
C656 C 0.32568 0.78125 0.63335 0.0
C657 C 0.32963 0.80723 0.63441 0.0
C658 C 0.30931 0.82402 0.63353 0.0
C659 C 0.28486 0.8143 0.63196 0.0
H660 H 0.87886 0.79904 0.23928 0.0
H661 H 0.89748 0.84718 0.30194 0.0
H662 H 0.89232 0.81149 0.33085 0.0
H663 H 0.8325 0.76165 0.27073 0.0
H664 H 0.84167 0.73311 0.25546 0.0
H665 H 0.84601 0.76265 0.2399 0.0
H666 H 0.89296 0.75322 0.2344 0.0
H667 H 0.88869 0.72357 0.24968 0.0
H668 H 0.91143 0.74543 0.26145 0.0
H669 H 0.88538 0.76966 0.35303 0.0
H670 H 0.88073 0.72523 0.36552 0.0
H671 H 0.86719 0.70533 0.28801 0.0
C672 C 0.88181 0.80215 0.25908 0.0
C673 C 0.88853 0.82597 0.2683 0.0
C674 C 0.89237 0.8291 0.29437 0.0
C675 C 0.88935 0.80896 0.31098 0.0
C676 C 0.88254 0.78575 0.30126 0.0
C677 C 0.87902 0.78226 0.27586 0.0
C678 C 0.87278 0.75533 0.26994 0.0
C679 C 0.84669 0.75306 0.25832 0.0
C680 C 0.89265 0.74371 0.25287 0.0
C681 C 0.87351 0.74412 0.29591 0.0
C682 C 0.87891 0.76191 0.31384 0.0
C683 C 0.88106 0.7556 0.33912 0.0
C684 C 0.87824 0.73036 0.34609 0.0
C685 C 0.87357 0.7118 0.32779 0.0
C686 C 0.87073 0.71903 0.30251 0.0
H687 H 0.22317 0.41113 0.7291 0.0
H688 H 0.23206 0.35232 0.67398 0.0
H689 H 0.27788 0.35925 0.67499 0.0
H690 H 0.27268 0.45209 0.70708 0.0
H691 H 0.28102 0.46112 0.73848 0.0
H692 H 0.24931 0.45287 0.7312 0.0
H693 H 0.24964 0.41919 0.76613 0.0
H694 H 0.28109 0.42766 0.77374 0.0
H695 H 0.27361 0.39571 0.76607 0.0
H696 H 0.32374 0.37096 0.68584 0.0
H697 H 0.36294 0.38325 0.70727 0.0
H698 H 0.32178 0.43428 0.75422 0.0
C699 C 0.23454 0.39967 0.71699 0.0
C700 C 0.22392 0.38103 0.70153 0.0
C701 C 0.23974 0.36668 0.68602 0.0
C702 C 0.26575 0.37063 0.68639 0.0
C703 C 0.2755 0.3892 0.70209 0.0
C704 C 0.26015 0.40342 0.71706 0.0
C705 C 0.27464 0.42099 0.73372 0.0
C706 C 0.26908 0.44839 0.72722 0.0
C707 C 0.26945 0.41554 0.76154 0.0
C708 C 0.30083 0.41404 0.72653 0.0
C709 C 0.30119 0.39599 0.70797 0.0
C710 C 0.32357 0.38542 0.69999 0.0
C711 C 0.34581 0.39271 0.71203 0.0
C712 C 0.34533 0.41012 0.73197 0.0
C713 C 0.32269 0.42145 0.73856 0.0
H714 H 0.63825 0.82177 0.26002 0.0
H715 H 0.65531 0.79837 0.33587 0.0
H716 H 0.66048 0.75498 0.32105 0.0
H717 H 0.60351 0.76736 0.24197 0.0
H718 H 0.61545 0.76676 0.21049 0.0
H719 H 0.61317 0.79598 0.22703 0.0
H720 H 0.66006 0.80415 0.21946 0.0
H721 H 0.66254 0.77486 0.20302 0.0
H722 H 0.68249 0.78123 0.2294 0.0
H723 H 0.66225 0.71427 0.29861 0.0
H724 H 0.66087 0.67829 0.26991 0.0
H725 H 0.64459 0.72777 0.2078 0.0
C726 C 0.64296 0.80751 0.27356 0.0
C727 C 0.64623 0.81346 0.29919 0.0
C728 C 0.65267 0.79428 0.3162 0.0
C729 C 0.65569 0.76959 0.30794 0.0
C730 C 0.65246 0.76443 0.28257 0.0
C731 C 0.64632 0.78281 0.26559 0.0
C732 C 0.64395 0.77219 0.23933 0.0
C733 C 0.61744 0.77578 0.22911 0.0
C734 C 0.66342 0.7838 0.22177 0.0
C735 C 0.64942 0.74484 0.24425 0.0
C736 C 0.65425 0.74089 0.26937 0.0
C737 C 0.6587 0.71716 0.27889 0.0
C738 C 0.65784 0.69686 0.26244 0.0
C739 C 0.65279 0.70031 0.23665 0.0
C740 C 0.64892 0.72469 0.22734 0.0
H741 H 0.32347 0.12417 0.78661 0.0
H742 H 0.30486 0.10935 0.70913 0.0
H743 H 0.26033 0.10698 0.72014 0.0
H744 H 0.27248 0.08585 0.81566 0.0
H745 H 0.26755 0.10872 0.83989 0.0
H746 H 0.29812 0.10462 0.82675 0.0
H747 H 0.29974 0.15179 0.81594 0.0
H748 H 0.26914 0.15599 0.82873 0.0
H749 H 0.27547 0.16516 0.79693 0.0
H750 H 0.21757 0.11132 0.73855 0.0
H751 H 0.18007 0.1219 0.76315 0.0
H752 H 0.22666 0.13529 0.82822 0.0
C753 C 0.31006 0.11945 0.77222 0.0
C754 C 0.31753 0.11652 0.74713 0.0
C755 C 0.29943 0.11139 0.72853 0.0
C756 C 0.27412 0.10999 0.7346 0.0
C757 C 0.26718 0.11388 0.75936 0.0
C758 C 0.28462 0.11838 0.77793 0.0
C759 C 0.27212 0.12465 0.80248 0.0
C760 C 0.27791 0.10477 0.82237 0.0
C761 C 0.27956 0.15096 0.81153 0.0
C762 C 0.24505 0.12366 0.79463 0.0
C763 C 0.24252 0.11707 0.76981 0.0
C764 C 0.21929 0.11618 0.75812 0.0
C765 C 0.19809 0.12228 0.7722 0.0
C766 C 0.20036 0.12944 0.79759 0.0
C767 C 0.2242 0.12984 0.80886 0.0
H768 H 0.30038 0.89538 0.71327 0.0
H769 H 0.23612 0.93321 0.68206 0.0
H770 H 0.22019 0.94062 0.72464 0.0
H771 H 0.26735 0.86401 0.76195 0.0
H772 H 0.29198 0.86676 0.7847 0.0
H773 H 0.29928 0.86584 0.75186 0.0
H774 H 0.32317 0.90772 0.75613 0.0
H775 H 0.31575 0.90887 0.78898 0.0
H776 H 0.30753 0.9346 0.76889 0.0
H777 H 0.21024 0.94264 0.7699 0.0
H778 H 0.2051 0.93656 0.81522 0.0
H779 H 0.27537 0.89705 0.81834 0.0
C780 C 0.28306 0.90541 0.71541 0.0
C781 C 0.26955 0.91382 0.69422 0.0
C782 C 0.2468 0.92656 0.69789 0.0
C783 C 0.23767 0.93099 0.72204 0.0
C784 C 0.25141 0.92252 0.74245 0.0
C785 C 0.27352 0.90982 0.73947 0.0
C786 C 0.28381 0.90147 0.76463 0.0
C787 C 0.28571 0.87282 0.76585 0.0
C788 C 0.30906 0.91391 0.76997 0.0
C789 C 0.26385 0.91121 0.78219 0.0
C790 C 0.24552 0.92351 0.76888 0.0
C791 C 0.22455 0.93321 0.78053 0.0
C792 C 0.22182 0.92967 0.80632 0.0
C793 C 0.23992 0.91654 0.82038 0.0
C794 C 0.26152 0.90765 0.8082 0.0
H795 H 0.13319 0.72433 0.29933 0.0
H796 H 0.15242 0.64728 0.2834 0.0
H797 H 0.14489 0.65508 0.23817 0.0
H798 H 0.08386 0.72973 0.25454 0.0
H799 H 0.09144 0.76171 0.24711 0.0
H800 H 0.09806 0.74957 0.27782 0.0
H801 H 0.14443 0.76229 0.27315 0.0
H802 H 0.13786 0.77479 0.24265 0.0
H803 H 0.16174 0.75153 0.24641 0.0
H804 H 0.13594 0.67291 0.19375 0.0
H805 H 0.1294 0.69896 0.1559 0.0
H806 H 0.11506 0.76312 0.20321 0.0
C807 C 0.13592 0.70894 0.28648 0.0
C808 C 0.14351 0.68516 0.295 0.0
C809 C 0.14673 0.66569 0.27734 0.0
C810 C 0.14235 0.66994 0.25164 0.0
C811 C 0.13458 0.69368 0.24402 0.0
C812 C 0.13151 0.71279 0.26109 0.0
C813 C 0.12364 0.73681 0.24863 0.0
C814 C 0.09771 0.74492 0.25756 0.0
C815 C 0.14308 0.75756 0.25296 0.0
C816 C 0.12308 0.72852 0.22166 0.0
C817 C 0.12923 0.70358 0.21917 0.0
C818 C 0.13091 0.69238 0.19561 0.0
C819 C 0.12697 0.70726 0.17421 0.0
C820 C 0.12158 0.73307 0.17656 0.0
C821 C 0.11898 0.74345 0.20069 0.0
H822 H 0.27541 0.62757 0.80885 0.0
H823 H 0.20577 0.63489 0.84882 0.0
H824 H 0.18359 0.64036 0.80835 0.0
H825 H 0.26482 0.67389 0.76513 0.0
H826 H 0.27976 0.65791 0.73958 0.0
H827 H 0.2893 0.65177 0.77124 0.0
H828 H 0.28069 0.60443 0.76522 0.0
H829 H 0.27167 0.61033 0.73332 0.0
H830 H 0.25065 0.59428 0.7541 0.0
H831 H 0.17018 0.64927 0.76241 0.0
H832 H 0.16659 0.65613 0.71655 0.0
H833 H 0.24581 0.64314 0.70893 0.0
C834 C 0.25539 0.62976 0.80913 0.0
C835 C 0.24227 0.63071 0.83191 0.0
C836 C 0.21611 0.63374 0.8315 0.0
C837 C 0.20344 0.63708 0.80862 0.0
C838 C 0.21723 0.63707 0.78646 0.0
C839 C 0.24261 0.63302 0.78668 0.0
C840 C 0.25363 0.63464 0.76079 0.0
C841 C 0.27301 0.65581 0.7591 0.0
C842 C 0.26481 0.60942 0.7529 0.0
C843 C 0.23063 0.64069 0.74583 0.0
C844 C 0.20971 0.64205 0.76073 0.0
C845 C 0.18647 0.648 0.75062 0.0
C846 C 0.18462 0.65208 0.72461 0.0
C847 C 0.20589 0.65015 0.70911 0.0
C848 C 0.22911 0.64465 0.72013 0.0
H849 H 0.3891 0.80042 0.3043 0.0
H850 H 0.36003 0.87074 0.2767 0.0
H851 H 0.36943 0.85741 0.23326 0.0
H852 H 0.43914 0.79344 0.25966 0.0
H853 H 0.4349 0.76011 0.25724 0.0
H854 H 0.42729 0.776 0.28592 0.0
H855 H 0.38245 0.75798 0.28419 0.0
H856 H 0.3901 0.74174 0.2558 0.0
H857 H 0.36392 0.76268 0.25646 0.0
H858 H 0.38106 0.83492 0.19235 0.0
H859 H 0.38915 0.80421 0.15862 0.0
H860 H 0.41015 0.74929 0.21428 0.0
C861 C 0.38484 0.81321 0.2892 0.0
C862 C 0.37394 0.83672 0.29394 0.0
C863 C 0.36838 0.85264 0.27353 0.0
C864 C 0.37383 0.84528 0.24882 0.0
C865 C 0.38482 0.82198 0.24491 0.0
C866 C 0.39002 0.80615 0.26463 0.0
C867 C 0.40028 0.78146 0.25571 0.0
C868 C 0.42699 0.77754 0.2652 0.0
C869 C 0.38316 0.75969 0.26349 0.0
C870 C 0.39976 0.78557 0.22777 0.0
C871 C 0.39115 0.80914 0.22176 0.0
C872 C 0.38802 0.81652 0.19691 0.0
C873 C 0.39288 0.79904 0.17784 0.0
C874 C 0.40046 0.77442 0.18382 0.0
C875 C 0.40464 0.76804 0.20909 0.0
H876 H 0.72268 0.32129 0.8733 0.0
H877 H 0.69649 0.29797 0.94634 0.0
H878 H 0.7384 0.28265 0.95683 0.0
H879 H 0.75874 0.26884 0.86237 0.0
H880 H 0.78383 0.28458 0.84648 0.0
H881 H 0.75306 0.29765 0.84589 0.0
H882 H 0.76995 0.33919 0.86418 0.0
H883 H 0.8009 0.32632 0.8646 0.0
H884 H 0.78759 0.33878 0.89288 0.0
H885 H 0.78093 0.26515 0.95773 0.0
H886 H 0.8225 0.24736 0.94913 0.0
H887 H 0.82196 0.28115 0.87554 0.0
C888 C 0.7261 0.31376 0.89178 0.0
C889 C 0.70651 0.3111 0.90918 0.0
C890 C 0.71134 0.30032 0.93286 0.0
C891 C 0.73508 0.2916 0.939 0.0
C892 C 0.75383 0.2937 0.92122 0.0
C893 C 0.74975 0.30462 0.89813 0.0
C894 C 0.77261 0.30231 0.88164 0.0
C895 C 0.76669 0.28746 0.85769 0.0
C896 C 0.7834 0.3282 0.87547 0.0
C897 C 0.7898 0.28783 0.89884 0.0
C898 C 0.77863 0.28331 0.92168 0.0
C899 C 0.79008 0.26895 0.94013 0.0
C900 C 0.81357 0.25888 0.93511 0.0
C901 C 0.82528 0.26327 0.91191 0.0
C902 C 0.8134 0.27802 0.8936 0.0
H903 H 0.81683 0.27577 0.64055 0.0
H904 H 0.7999 0.35253 0.66007 0.0
H905 H 0.75486 0.34239 0.65905 0.0
H906 H 0.76494 0.2652 0.59875 0.0
H907 H 0.76046 0.23345 0.60906 0.0
H908 H 0.791 0.24733 0.61004 0.0
H909 H 0.79436 0.23712 0.65733 0.0
H910 H 0.76392 0.2231 0.65646 0.0
H911 H 0.77049 0.2479 0.67833 0.0
H912 H 0.71107 0.32283 0.6564 0.0
H913 H 0.67376 0.29542 0.65538 0.0
H914 H 0.72077 0.23188 0.63869 0.0
C915 C 0.80372 0.29059 0.64441 0.0
C916 C 0.81193 0.31501 0.65024 0.0
C917 C 0.79406 0.33369 0.65552 0.0
C918 C 0.76844 0.32811 0.65488 0.0
C919 C 0.76103 0.30376 0.64905 0.0
C920 C 0.77826 0.28532 0.64406 0.0
C921 C 0.76587 0.26033 0.63949 0.0
C922 C 0.77087 0.25104 0.61274 0.0
C923 C 0.77415 0.24098 0.65907 0.0
C924 C 0.7389 0.26743 0.64289 0.0
C925 C 0.73631 0.29258 0.6481 0.0
C926 C 0.71295 0.30313 0.65227 0.0
C927 C 0.69185 0.28746 0.65155 0.0
C928 C 0.69433 0.26151 0.64699 0.0
C929 C 0.7182 0.25162 0.64228 0.0
H930 H 0.75142 0.31237 0.13035 0.0
H931 H 0.67402 0.29354 0.14373 0.0
H932 H 0.68386 0.24877 0.13925 0.0
H933 H 0.76421 0.26263 0.08491 0.0
H934 H 0.79505 0.25719 0.09693 0.0
H935 H 0.78152 0.28789 0.09898 0.0
H936 H 0.78874 0.28815 0.14695 0.0
H937 H 0.80244 0.2576 0.14498 0.0
H938 H 0.77651 0.2629 0.16561 0.0
H939 H 0.70277 0.20547 0.13568 0.0
H940 H 0.72975 0.16797 0.13623 0.0
H941 H 0.79437 0.21547 0.12542 0.0
C942 C 0.73649 0.29886 0.13202 0.0
C943 C 0.71195 0.30653 0.13734 0.0
C944 C 0.693 0.28817 0.13972 0.0
C945 C 0.69836 0.26266 0.13705 0.0
C946 C 0.72277 0.2557 0.13198 0.0
C947 C 0.74154 0.27329 0.12958 0.0
C948 C 0.76651 0.26091 0.12584 0.0
C949 C 0.77746 0.26755 0.10013 0.0
C950 C 0.7846 0.2678 0.14711 0.0
C951 C 0.75895 0.23365 0.12702 0.0
C952 C 0.73362 0.23093 0.13021 0.0
C953 C 0.72262 0.20738 0.13294 0.0
C954 C 0.73804 0.18616 0.13311 0.0
C955 C 0.76413 0.18874 0.13083 0.0
C956 C 0.77447 0.2128 0.12712 0.0
H957 H 0.78687 0.305 0.40225 0.0
H958 H 0.85353 0.29216 0.3585 0.0
H959 H 0.85015 0.24667 0.36768 0.0
H960 H 0.79926 0.26001 0.4505 0.0
H961 H 0.76695 0.25149 0.4535 0.0
H962 H 0.77538 0.28263 0.44385 0.0
H963 H 0.74867 0.27793 0.40362 0.0
H964 H 0.73971 0.24711 0.41348 0.0
H965 H 0.75383 0.2516 0.38325 0.0
H966 H 0.83723 0.20148 0.381 0.0
H967 H 0.81443 0.16286 0.39302 0.0
H968 H 0.75809 0.20781 0.42901 0.0
C969 C 0.80093 0.29281 0.39449 0.0
C970 C 0.82049 0.30226 0.37958 0.0
C971 C 0.83829 0.28538 0.36987 0.0
C972 C 0.83661 0.25956 0.37519 0.0
C973 C 0.8172 0.25106 0.39043 0.0
C974 C 0.79967 0.26738 0.39976 0.0
C975 C 0.77993 0.25411 0.4148 0.0
C976 C 0.78043 0.26257 0.44229 0.0
C977 C 0.75402 0.2579 0.40308 0.0
C978 C 0.7886 0.22749 0.41218 0.0
C979 C 0.81026 0.22587 0.39832 0.0
C980 C 0.8205 0.20268 0.39216 0.0
C981 C 0.80764 0.1808 0.39934 0.0
C982 C 0.78475 0.18242 0.41232 0.0
C983 C 0.77581 0.20604 0.41957 0.0
H984 H 0.18399 0.57859 0.6743 0.0
H985 H 0.22931 0.55303 0.61241 0.0
H986 H 0.21619 0.50944 0.62087 0.0
H987 H 0.19931 0.52718 0.71492 0.0
H988 H 0.16896 0.52577 0.72914 0.0
H989 H 0.18063 0.555 0.71721 0.0
H990 H 0.14138 0.55933 0.68942 0.0
H991 H 0.12966 0.53002 0.70113 0.0
H992 H 0.13334 0.53461 0.66794 0.0
H993 H 0.19727 0.46942 0.63506 0.0
H994 H 0.17861 0.43398 0.65728 0.0
H995 H 0.14819 0.48458 0.71288 0.0
C996 C 0.19096 0.56376 0.66245 0.0
C997 C 0.20737 0.569 0.64248 0.0
C998 C 0.21667 0.54925 0.62771 0.0
C999 C 0.20921 0.52454 0.63231 0.0
C1000 C 0.1929 0.51998 0.65207 0.0
C1001 C 0.18425 0.53893 0.66723 0.0
C1002 C 0.16827 0.5287 0.68828 0.0
C1003 C 0.18 0.5345 0.7139 0.0
C1004 C 0.14158 0.53877 0.68658 0.0
C1005 C 0.16915 0.50098 0.68249 0.0
C1006 C 0.18313 0.49654 0.66126 0.0
C1007 C 0.1864 0.47263 0.65177 0.0
C1008 C 0.17553 0.45261 0.66452 0.0
C1009 C 0.16184 0.45644 0.68687 0.0
C1010 C 0.15851 0.48105 0.69587 0.0
H1011 H 0.44692 0.65815 0.19223 0.0
H1012 H 0.46032 0.68633 0.11734 0.0
H1013 H 0.50394 0.67249 0.12003 0.0
H1014 H 0.50401 0.6786 0.21746 0.0
H1015 H 0.50853 0.65209 0.23772 0.0
H1016 H 0.47756 0.66142 0.22908 0.0
H1017 H 0.46864 0.61698 0.21204 0.0
H1018 H 0.49961 0.60747 0.22069 0.0
H1019 H 0.48905 0.60368 0.1889 0.0
H1020 H 0.54618 0.65854 0.13142 0.0
H1021 H 0.58556 0.64649 0.15124 0.0
H1022 H 0.54619 0.62798 0.21969 0.0
C1023 C 0.45893 0.66089 0.17622 0.0
C1024 C 0.45019 0.6731 0.15444 0.0
C1025 C 0.46661 0.67696 0.13414 0.0
C1026 C 0.49138 0.66907 0.13546 0.0
C1027 C 0.49954 0.65748 0.15729 0.0
C1028 C 0.48391 0.65341 0.17737 0.0
C1029 C 0.49807 0.64229 0.19931 0.0
C1030 C 0.49698 0.65964 0.22224 0.0
C1031 C 0.48825 0.61604 0.2056 0.0
C1032 C 0.52415 0.64117 0.18853 0.0
C1033 C 0.52438 0.64979 0.16416 0.0
C1034 C 0.54624 0.65159 0.15043 0.0
C1035 C 0.56856 0.64475 0.16194 0.0
C1036 C 0.56905 0.63627 0.18707 0.0
C1037 C 0.54642 0.63413 0.20041 0.0
H1038 H 0.37024 0.96348 0.66198 0.0
H1039 H 0.32333 0.97561 0.59716 0.0
H1040 H 0.33403 0.02048 0.59768 0.0
H1041 H 0.35129 0.01615 0.6935 0.0
H1042 H 0.38096 0.02351 0.70745 0.0
H1043 H 0.37368 0.99178 0.69915 0.0
H1044 H 0.41339 0.98966 0.67181 0.0
H1045 H 0.42082 0.02147 0.6801 0.0
H1046 H 0.41827 1.01264 0.64766 0.0
H1047 H 0.34558 0.0647 0.60819 0.0
H1048 H 0.35533 0.10471 0.62929 0.0
H1049 H 0.39361 0.06407 0.68799 0.0
C1050 C 0.36297 0.97549 0.64742 0.0
C1051 C 0.34627 0.9661 0.62932 0.0
C1052 C 0.33632 0.98247 0.61109 0.0
C1053 C 0.34238 1.00796 0.61116 0.0
C1054 C 0.35834 0.01687 0.62967 0.0
C1055 C 0.36851 1.00114 0.6475 0.0
C1056 C 0.38257 0.01589 0.66717 0.0
C1057 C 0.37145 1.01158 0.69335 0.0
C1058 C 0.41042 1.00954 0.66664 0.0
C1059 C 0.37799 0.04231 0.65809 0.0
C1060 C 0.36442 0.0425 0.63616 0.0
C1061 C 0.35655 0.0648 0.62518 0.0
C1062 C 0.36219 0.08746 0.63726 0.0
C1063 C 0.37527 0.08758 0.66025 0.0
C1064 C 0.38373 0.06468 0.67034 0.0
H1065 H 0.07036 0.84591 0.1692 0.0
H1066 H 0.05562 0.8042 0.10113 0.0
H1067 H 1.01088 0.81355 0.10506 0.0
H1068 H 0.01766 0.82432 0.20192 0.0
H1069 H 1.01153 0.85335 0.21781 0.0
H1070 H 0.04274 0.8458 0.20843 0.0
H1071 H 0.04566 0.88723 0.18357 0.0
H1072 H 0.01448 0.89502 0.19303 0.0
H1073 H 0.02242 0.89425 0.1603 0.0
H1074 H 0.96769 0.82518 0.11747 0.0
H1075 H 0.92864 0.83801 0.13766 0.0
H1076 H 0.97076 0.87126 0.19862 0.0
C1077 C 0.05777 0.83924 0.15483 0.0
C1078 C 0.06652 0.82453 0.13469 0.0
C1079 C 0.04937 0.81559 0.11663 0.0
C1080 C 0.02392 0.82083 0.11869 0.0
C1081 C 0.01583 0.83492 0.13901 0.0
C1082 C 0.0322 0.84404 0.15678 0.0
C1083 C 0.01839 0.85733 0.17763 0.0
C1084 C 0.02285 0.84442 0.20294 0.0
C1085 C 0.02567 0.88511 0.17869 0.0
C1086 C 0.99171 0.85399 0.16893 0.0
C1087 C 0.99073 0.8412 0.1465 0.0
C1088 C 0.96822 0.83534 0.13496 0.0
C1089 C 0.9461 0.8427 0.14664 0.0
C1090 C 0.94653 0.85568 0.16976 0.0
C1091 C 0.96974 0.86144 0.18094 0.0
H1092 H 0.15018 0.96844 0.87187 0.0
H1093 H 0.20554 0.96601 0.93081 0.0
H1094 H 0.20098 1.01144 0.93733 0.0
H1095 H 0.17197 0.02308 0.84507 0.0
H1096 H 0.14199 0.03534 0.83641 0.0
H1097 H 0.14625 1.00216 0.8393 0.0
H1098 H 0.11014 0.99993 0.87127 0.0
H1099 H 0.10569 0.03317 0.86839 0.0
H1100 H 0.111 0.01949 0.89872 0.0
H1101 H 0.19389 0.0578 0.93433 0.0
H1102 H 0.18582 0.10128 0.92097 0.0
H1103 H 0.13601 0.07366 0.8632 0.0
C1104 C 0.16067 0.97737 0.8867 0.0
C1105 C 0.17793 0.96368 0.9011 0.0
C1106 C 0.19206 0.97615 0.91971 0.0
C1107 C 0.18954 1.00194 0.92361 0.0
C1108 C 0.17289 0.0151 0.90864 0.0
C1109 C 0.15866 1.00324 0.89056 0.0
C1110 C 0.14425 0.02205 0.87514 0.0
C1111 C 0.15157 0.02056 0.84735 0.0
C1112 C 0.1161 0.01844 0.8786 0.0
C1113 C 0.15308 0.04627 0.88694 0.0
C1114 C 0.16928 0.04189 0.90649 0.0
C1115 C 0.18094 0.06146 0.91926 0.0
C1116 C 0.17625 0.08612 0.91156 0.0
C1117 C 0.16023 0.09098 0.8911 0.0
C1118 C 0.1482 0.07069 0.87905 0.0
H1119 H 0.96636 0.62429 0.34991 0.0
H1120 H 0.9512 0.67581 0.28938 0.0
H1121 H 0.99097 0.69775 0.29798 0.0
H1122 H 0.99362 0.66618 0.39166 0.0
H1123 H 0.01759 0.64548 0.40277 0.0
H1124 H 0.98874 0.63284 0.39113 0.0
H1125 H 0.01243 0.60587 0.35877 0.0
H1126 H 0.0414 0.61782 0.37086 0.0
H1127 H 0.0344 0.6206 0.338 0.0
H1128 H 0.02976 0.71705 0.31694 0.0
H1129 H 0.06975 0.72651 0.33801 0.0
H1130 H 0.06161 0.65992 0.38336 0.0
C1131 C 0.9719 0.63968 0.33798 0.0
C1132 C 0.95607 0.64822 0.31874 0.0
C1133 C 0.96347 0.6687 0.30379 0.0
C1134 C 0.98581 0.68145 0.30879 0.0
C1135 C 1.00066 0.67309 0.32848 0.0
C1136 C 0.99444 0.65214 0.34226 0.0
C1137 C 0.01393 0.64665 0.36199 0.0
C1138 C 1.00279 0.64787 0.38845 0.0
C1139 C 0.02628 0.62123 0.3571 0.0
C1140 C 0.03186 0.66805 0.35751 0.0
C1141 C 0.02361 0.6834 0.33845 0.0
C1142 C 0.03654 0.70498 0.33167 0.0
C1143 C 0.05902 0.71041 0.34396 0.0
C1144 C 0.06849 0.69407 0.36243 0.0
C1145 C 0.05458 0.67281 0.36945 0.0
H1146 H 0.31204 0.56429 0.87978 0.0
H1147 H 0.37049 0.61013 0.84747 0.0
H1148 H 0.39087 0.57222 0.83126 0.0
H1149 H 0.35197 0.51173 0.89773 0.0
H1150 H 0.32869 0.48865 0.89005 0.0
H1151 H 0.31943 0.51929 0.90037 0.0
H1152 H 0.29299 0.52464 0.8602 0.0
H1153 H 0.30226 0.4941 0.84969 0.0
H1154 H 0.30752 0.52096 0.83006 0.0
H1155 H 0.40332 0.52969 0.81586 0.0
H1156 H 0.40801 0.48537 0.80406 0.0
H1157 H 0.34219 0.46671 0.84716 0.0
C1158 C 0.32931 0.56637 0.8696 0.0
C1159 C 0.33965 0.5903 0.86499 0.0
C1160 C 0.36219 0.59209 0.85137 0.0
C1161 C 0.37393 0.57063 0.84204 0.0
C1162 C 0.36303 0.54741 0.84658 0.0
C1163 C 0.34134 0.5451 0.86022 0.0
C1164 C 0.33317 0.51797 0.86185 0.0
C1165 C 0.33333 0.50888 0.88913 0.0
C1166 C 0.30746 0.51421 0.84973 0.0
C1167 C 0.35344 0.50544 0.84669 0.0
C1168 C 0.37047 0.52279 0.83805 0.0
C1169 C 0.39025 0.51591 0.82275 0.0
C1170 C 0.39271 0.49067 0.81608 0.0
C1171 C 0.37558 0.47248 0.82478 0.0
C1172 C 0.35579 0.48007 0.84045 0.0
H1173 H 0.46616 0.83741 0.37995 0.0
H1174 H 0.4277 0.90284 0.35162 0.0
H1175 H 0.46715 0.91941 0.33547 0.0
H1176 H 0.52451 0.8712 0.39774 0.0
H1177 H 0.54397 0.84544 0.3885 0.0
H1178 H 0.51302 0.83961 0.40007 0.0
H1179 H 0.50271 0.81492 0.35968 0.0
H1180 H 0.53347 0.82093 0.34784 0.0
H1181 H 0.50664 0.82983 0.3297 0.0
H1182 H 0.509 0.92628 0.3172 0.0
H1183 H 0.5525 0.92559 0.30247 0.0
H1184 H 0.56544 0.85762 0.34462 0.0
C1185 C 0.46615 0.85551 0.37093 0.0
C1186 C 0.44371 0.86875 0.36708 0.0
C1187 C 0.44453 0.89226 0.35487 0.0
C1188 C 0.4669 0.90188 0.34555 0.0
C1189 C 0.48848 0.88802 0.34886 0.0
C1190 C 0.48849 0.8656 0.36168 0.0
C1191 C 0.51431 0.85418 0.36183 0.0
C1192 C 0.52456 0.85252 0.38863 0.0
C1193 C 0.51426 0.82844 0.349 0.0
C1194 C 0.52853 0.87335 0.34651 0.0
C1195 C 0.51317 0.89264 0.33914 0.0
C1196 C 0.52138 0.91157 0.32327 0.0
C1197 C 0.54604 0.91094 0.31486 0.0
C1198 C 0.56231 0.89172 0.32262 0.0
C1199 C 0.55346 0.87278 0.33879 0.0
H1200 H 0.68915 0.15319 0.58874 0.0
H1201 H 0.61937 0.19263 0.57923 0.0
H1202 H 0.62194 0.18658 0.53366 0.0
H1203 H 0.71882 0.17956 0.53635 0.0
H1204 H 0.73535 0.15175 0.5273 0.0
H1205 H 0.72698 0.15653 0.55953 0.0
H1206 H 0.70382 0.11402 0.56 0.0
H1207 H 0.71228 0.10902 0.52778 0.0
H1208 H 0.68006 0.10784 0.53696 0.0
H1209 H 0.63327 0.17953 0.48931 0.0
H1210 H 0.65252 0.17124 0.44841 0.0
H1211 H 0.71544 0.13655 0.48559 0.0
C1212 C 0.67415 0.15999 0.57707 0.0
C1213 C 0.65396 0.17323 0.58757 0.0
C1214 C 0.63499 0.1824 0.57164 0.0
C1215 C 0.63624 0.17902 0.54571 0.0
C1216 C 0.65662 0.16645 0.53587 0.0
C1217 C 0.67523 0.15696 0.55098 0.0
C1218 C 0.69585 0.14562 0.53529 0.0
C1219 C 0.72072 0.15918 0.5399 0.0
C1220 C 0.69813 0.11745 0.54031 0.0
C1221 C 0.68607 0.15063 0.50911 0.0
C1222 C 0.66333 0.16251 0.50997 0.0
C1223 C 0.65096 0.17 0.48835 0.0
C1224 C 0.66212 0.16527 0.46518 0.0
C1225 C 0.68548 0.15318 0.46369 0.0
C1226 C 0.69748 0.14563 0.48604 0.0
H1227 H 0.87034 0.18767 0.08417 0.0
H1228 H 0.84789 0.10995 0.07902 0.0
H1229 H 0.85682 0.11019 0.03381 0.0
H1230 H 0.8415 0.20639 0.02962 0.0
H1231 H 0.86492 0.2285 0.01992 0.0
H1232 H 0.8611 0.22139 0.05257 0.0
H1233 H 0.9075 0.20884 0.05576 0.0
H1234 H 0.91156 0.21621 0.02312 0.0
H1235 H 0.91977 0.18569 0.03466 0.0
H1236 H 0.86294 0.11998 0.98884 0.0
H1237 H 0.86702 0.13855 0.94683 0.0
H1238 H 0.88481 0.21026 0.98055 0.0
C1239 C 0.86821 0.17052 0.07363 0.0
C1240 C 0.85875 0.1487 0.08504 0.0
C1241 C 0.85529 0.1268 0.07057 0.0
C1242 C 0.86034 0.12674 0.04491 0.0
C1243 C 0.86879 0.14876 0.03396 0.0
C1244 C 0.87288 0.17023 0.04782 0.0
C1245 C 0.87965 0.19199 0.03099 0.0
C1246 C 0.86066 0.21332 0.03343 0.0
C1247 C 0.9062 0.20122 0.03646 0.0
C1248 C 0.87802 0.17954 1.00557 0.0
C1249 C 0.872 0.15454 1.00775 0.0
C1250 C 0.86804 0.13945 0.98687 0.0
C1251 C 0.87027 0.1502 0.96308 0.0
C1252 C 0.87632 0.17583 0.96036 0.0
C1253 C 0.88042 0.19055 0.98197 0.0
H1254 H 0.85251 0.3489 0.57888 0.0
H1255 H 0.91683 0.30591 0.55597 0.0
H1256 H 0.90896 0.31763 0.5119 0.0
H1257 H 0.81433 0.3302 0.52779 0.0
H1258 H 0.79873 0.35981 0.52484 0.0
H1259 H 0.81069 0.35009 0.55475 0.0
H1260 H 0.83643 0.39098 0.55788 0.0
H1261 H 0.82454 0.40085 0.52795 0.0
H1262 H 0.85763 0.39908 0.53306 0.0
H1263 H 0.89415 0.33346 0.47101 0.0
H1264 H 0.87146 0.34912 0.43451 0.0
H1265 H 0.81445 0.37968 0.48316 0.0
C1266 C 0.86515 0.34232 0.56457 0.0
C1267 C 0.88551 0.32684 0.57068 0.0
C1268 C 0.90125 0.31791 0.55155 0.0
C1269 C 0.89697 0.32454 0.52656 0.0
C1270 C 0.87665 0.33974 0.52113 0.0
C1271 C 0.8608 0.34829 0.5395 0.0
C1272 C 0.83923 0.36275 0.52836 0.0
C1273 C 0.81427 0.34994 0.53428 0.0
C1274 C 0.83948 0.39004 0.53735 0.0
C1275 C 0.84542 0.36094 0.50079 0.0
C1276 C 0.86729 0.3479 0.4972 0.0
C1277 C 0.87702 0.34369 0.47355 0.0
C1278 C 0.86394 0.35278 0.45292 0.0
C1279 C 0.84111 0.3657 0.45593 0.0
C1280 C 0.83181 0.36991 0.48026 0.0
H1281 H 0.62101 0.29666 0.99063 0.0
H1282 H 0.61284 0.36905 0.95517 0.0
H1283 H 0.61218 0.38928 0.99665 0.0
H1284 H 0.58348 0.31022 0.04793 0.0
H1285 H 0.60452 0.29307 0.06775 0.0
H1286 H 0.60014 0.28377 0.03562 0.0
H1287 H 0.64763 0.28723 0.02811 0.0
H1288 H 0.65213 0.29646 0.06013 0.0
H1289 H 0.66342 0.31614 0.03524 0.0
H1290 H 0.61788 0.40221 0.04104 0.0
H1291 H 0.63112 0.40687 0.08519 0.0
H1292 H 0.63599 0.32649 0.09225 0.0
C1293 C 0.61833 0.31668 0.99167 0.0
C1294 C 0.6167 0.33128 0.96972 0.0
C1295 C 0.61401 0.35751 0.97177 0.0
C1296 C 0.61347 0.36915 0.99525 0.0
C1297 C 0.61568 0.35432 0.01654 0.0
C1298 C 0.61807 0.32865 0.01501 0.0
C1299 C 0.62297 0.31736 0.04055 0.0
C1300 C 0.60149 0.30008 0.04842 0.0
C1301 C 0.64802 0.3035 0.04102 0.0
C1302 C 0.62377 0.34075 0.05652 0.0
C1303 C 0.61907 0.36185 0.04236 0.0
C1304 C 0.62096 0.38582 0.05246 0.0
C1305 C 0.62837 0.38833 0.0775 0.0
C1306 C 0.63368 0.36701 0.09207 0.0
C1307 C 0.631 0.34296 0.08162 0.0
H1308 H 0.88987 0.55373 0.33323 0.0
H1309 H 0.8711 0.58096 0.40732 0.0
H1310 H 0.86199 0.5377 0.42066 0.0
H1311 H 0.84236 0.51036 0.32843 0.0
H1312 H 0.86003 0.48692 0.3121 0.0
H1313 H 0.86842 0.51935 0.30922 0.0
H1314 H 0.91314 0.50952 0.32426 0.0
H1315 H 0.90498 0.47694 0.32697 0.0
H1316 H 0.91769 0.49341 0.3535 0.0
H1317 H 0.84966 0.49284 0.42421 0.0
H1318 H 0.83709 0.4489 0.41879 0.0
H1319 H 0.86469 0.45 0.34259 0.0
C1320 C 0.88444 0.5506 0.35247 0.0
C1321 C 0.8813 0.57083 0.36928 0.0
C1322 C 0.87383 0.56584 0.39417 0.0
C1323 C 0.86859 0.5413 0.40189 0.0
C1324 C 0.87114 0.52194 0.3846 0.0
C1325 C 0.87919 0.52625 0.36048 0.0
C1326 C 0.87881 0.5024 0.34508 0.0
C1327 C 0.86137 0.50492 0.32238 0.0
C1328 C 0.90523 0.49514 0.33698 0.0
C1329 C 0.86853 0.48408 0.36408 0.0
C1330 C 0.86437 0.4958 0.38678 0.0
C1331 C 0.85324 0.48339 0.4067 0.0
C1332 C 0.84603 0.45846 0.40335 0.0
C1333 C 0.85005 0.446 0.38031 0.0
C1334 C 0.86181 0.45891 0.36053 0.0
H1335 H 0.48692 0.3956 0.79023 0.0
H1336 H 0.43958 0.3877 0.85561 0.0
H1337 H 0.47534 0.37377 0.88029 0.0
H1338 H 0.52399 0.34207 0.80138 0.0
H1339 H 0.55295 0.35586 0.79143 0.0
H1340 H 0.52402 0.36691 0.77862 0.0
H1341 H 0.53484 0.41195 0.79268 0.0
H1342 H 0.56389 0.40104 0.80544 0.0
H1343 H 0.54243 0.41791 0.82499 0.0
H1344 H 0.51427 0.35688 0.89718 0.0
H1345 H 0.5561 0.34065 0.90645 0.0
H1346 H 0.58047 0.3611 0.83187 0.0
C1347 C 0.4842 0.3913 0.80982 0.0
C1348 C 0.46027 0.39275 0.82086 0.0
C1349 C 0.45756 0.38675 0.84656 0.0
C1350 C 0.47782 0.37881 0.86085 0.0
C1351 C 0.50092 0.37712 0.84939 0.0
C1352 C 0.50444 0.38344 0.82459 0.0
C1353 C 0.53139 0.37925 0.81703 0.0
C1354 C 0.53318 0.35987 0.79586 0.0
C1355 C 0.54388 0.40402 0.8096 0.0
C1356 C 0.54216 0.36914 0.84133 0.0
C1357 C 0.52408 0.36806 0.85963 0.0
C1358 C 0.52873 0.35798 0.88317 0.0
C1359 C 0.5525 0.3487 0.88821 0.0
C1360 C 0.5715 0.34983 0.86998 0.0
C1361 C 0.56635 0.36044 0.84628 0.0
H1362 H 0.73094 0.03869 0.39606 0.0
H1363 H 0.66522 0.08412 0.38366 0.0
H1364 H 0.6416 0.04672 0.37174 0.0
H1365 H 0.72159 0.99816 0.34452 0.0
H1366 H 0.73208 0.97025 0.3601 0.0
H1367 H 0.74383 1.00029 0.36971 0.0
H1368 H 0.72945 0.9916 0.4151 0.0
H1369 H 0.71763 0.96149 0.40561 0.0
H1370 H 0.69743 0.98347 0.42096 0.0
H1371 H 0.62583 1.00601 0.35732 0.0
H1372 H 0.61845 0.96308 0.34219 0.0
H1373 H 0.69294 0.94219 0.3651 0.0
C1374 C 0.71149 0.04067 0.39119 0.0
C1375 C 0.70002 0.06447 0.39082 0.0
C1376 C 0.67457 0.06623 0.38407 0.0
C1377 C 0.66087 0.04503 0.37733 0.0
C1378 C 0.67272 0.022 0.37753 0.0
C1379 C 0.69738 0.01952 0.3844 0.0
C1380 C 0.70566 0.99249 0.38184 0.0
C1381 C 0.72705 0.99017 0.36292 0.0
C1382 C 0.71297 0.98162 0.4074 0.0
C1383 C 0.68195 0.98044 0.37197 0.0
C1384 C 0.66322 0.99792 0.36973 0.0
C1385 C 0.64016 0.99201 0.35939 0.0
C1386 C 0.63615 0.96762 0.35081 0.0
C1387 C 0.65496 0.94933 0.35287 0.0
C1388 C 0.67804 0.95571 0.36394 0.0
H1389 H 0.0533 0.15122 0.84114 0.0
H1390 H 0.09731 0.19683 0.89196 0.0
H1391 H 0.0593 0.21653 0.90773 0.0
H1392 H 1.00756 0.19766 0.82626 0.0
H1393 H 0.98169 0.17617 0.826 0.0
H1394 H 0.01242 0.16529 0.81834 0.0
H1395 H 1.00929 0.13162 0.85301 0.0
H1396 H 0.97851 0.14234 0.8607 0.0
H1397 H 1.00216 0.14095 0.88459 0.0
H1398 H 0.01723 0.23306 0.91674 0.0
H1399 H 0.97256 0.24285 0.92091 0.0
H1400 H 0.95494 0.18525 0.86645 0.0
C1401 C 0.05487 0.16527 0.85564 0.0
C1402 C 0.07833 0.17242 0.86529 0.0
C1403 C 0.07959 0.19085 0.88434 0.0
C1404 C 0.05809 0.20229 0.8934 0.0
C1405 C 0.03532 0.19496 0.88348 0.0
C1406 C 0.03343 0.1767 0.86526 0.0
C1407 C 1.00644 0.1721 0.8583 0.0
C1408 C 1.00176 0.17817 0.83058 0.0
C1409 C 0.99865 0.14515 0.86453 0.0
C1410 C 0.99366 0.19077 0.87531 0.0
C1411 C 1.01073 0.2039 0.88948 0.0
C1412 C 1.0036 0.22276 0.90593 0.0
C1413 C 0.97823 0.22825 0.90812 0.0
C1414 C 0.96034 0.2147 0.89418 0.0
C1415 C 0.96821 0.1957 0.87759 0.0
H1416 H 0.81895 0.04508 0.151 0.0
H1417 H 0.87333 0.09238 0.18831 0.0
H1418 H 0.89542 0.05511 0.20328 0.0
H1419 H 0.8165 0.99725 0.19791 0.0
H1420 H 0.81394 0.97183 0.17594 0.0
H1421 H 0.80234 1.00227 0.16775 0.0
H1422 H 0.82995 1.00237 0.12808 0.0
H1423 H 0.84171 0.97195 0.13621 0.0
H1424 H 0.86299 0.99753 0.13112 0.0
H1425 H 0.91056 1.01305 0.21625 0.0
H1426 H 0.91841 0.96842 0.22513 0.0
H1427 H 0.85597 0.94792 0.17781 0.0
C1428 C 0.83552 0.04756 0.16229 0.0
C1429 C 0.84436 0.07172 0.16845 0.0
C1430 C 0.86619 0.07413 0.1832 0.0
C1431 C 0.87892 0.05305 0.19185 0.0
C1432 C 0.8698 0.02956 0.18543 0.0
C1433 C 0.8487 0.02662 0.17088 0.0
C1434 C 0.84296 0.99914 0.16678 0.0
C1435 C 0.81742 0.99222 0.17776 0.0
C1436 C 0.8445 0.99235 0.13889 0.0
C1437 C 0.86395 0.98722 0.18153 0.0
C1438 C 0.87914 1.00514 0.19221 0.0
C1439 C 0.89899 0.9988 0.20775 0.0
C1440 C 0.90331 0.97345 0.21269 0.0
C1441 C 0.88806 0.95474 0.20188 0.0
C1442 C 0.8683 0.96179 0.18588 0.0
H1443 H 0.07634 0.34112 0.66862 0.0
H1444 H 0.07131 0.41064 0.71017 0.0
H1445 H 0.02599 0.41095 0.70401 0.0
H1446 H 0.02706 0.35482 0.62333 0.0
H1447 H 0.0152 0.32329 0.62308 0.0
H1448 H 0.04765 0.329 0.6294 0.0
H1449 H 0.04389 0.30475 0.67114 0.0
H1450 H 1.01144 0.29899 0.66494 0.0
H1451 H 0.02075 0.31403 0.69365 0.0
H1452 H 0.98113 0.40362 0.69457 0.0
H1453 H 0.93929 0.38825 0.68329 0.0
H1454 H 0.97234 0.32293 0.64861 0.0
C1455 C 0.06571 0.35652 0.67615 0.0
C1456 C 0.0775 0.37589 0.68984 0.0
C1457 C 0.06281 0.39553 0.69969 0.0
C1458 C 0.03699 0.39595 0.69623 0.0
C1459 C 0.0259 0.37653 0.68295 0.0
C1460 C 0.03969 0.35712 0.67309 0.0
C1461 C 0.02279 0.33807 0.66051 0.0
C1462 C 0.02852 0.3362 0.63241 0.0
C1463 C 0.02485 0.31244 0.67333 0.0
C1464 C 0.99747 0.34979 0.66501 0.0
C1465 C 0.99977 0.37206 0.67783 0.0
C1466 C 0.97907 0.38622 0.68445 0.0
C1467 C 0.95535 0.37733 0.67795 0.0
C1468 C 0.9524 0.35438 0.66504 0.0
C1469 C 0.97388 0.34057 0.65842 0.0
H1470 H 0.6547 0.45329 0.15933 0.0
H1471 H 0.72553 0.45755 0.12079 0.0
H1472 H 0.72224 0.50374 0.11997 0.0
H1473 H 0.62462 0.50549 0.12774 0.0
H1474 H 0.609 0.51551 0.15579 0.0
H1475 H 0.61615 0.48295 0.15131 0.0
H1476 H 0.64003 0.48231 0.19349 0.0
H1477 H 0.63278 0.51474 0.19817 0.0
H1478 H 0.6647 0.50459 0.19879 0.0
H1479 H 0.71175 0.55032 0.12588 0.0
H1480 H 0.69669 0.59163 0.14046 0.0
H1481 H 0.63315 0.55545 0.17493 0.0
C1482 C 0.66944 0.46382 0.15041 0.0
C1483 C 0.69033 0.45171 0.14002 0.0
C1484 C 0.7093 0.46636 0.12883 0.0
C1485 C 0.70753 0.49262 0.12818 0.0
C1486 C 0.68666 0.50393 0.13873 0.0
C1487 C 0.66801 0.48987 0.14968 0.0
C1488 C 0.64826 0.50625 0.16121 0.0
C1489 C 0.62302 0.50231 0.14823 0.0
C1490 C 0.64635 0.5017 0.18959 0.0
C1491 C 0.65885 0.53181 0.15552 0.0
C1492 C 0.68083 0.53027 0.14226 0.0
C1493 C 0.69442 0.55169 0.13604 0.0
C1494 C 0.68566 0.5751 0.14424 0.0
C1495 C 0.6637 0.57679 0.15873 0.0
C1496 C 0.64993 0.55484 0.16376 0.0
H1497 H 0.45149 0.17953 0.69145 0.0
H1498 H 0.46963 0.116 0.73839 0.0
H1499 H 0.51428 0.12221 0.72894 0.0
H1500 H 0.49674 0.16921 0.64405 0.0
H1501 H 0.50397 0.20182 0.63971 0.0
H1502 H 0.47352 0.19261 0.65032 0.0
H1503 H 0.47825 0.22105 0.68926 0.0
H1504 H 0.50863 0.23053 0.67867 0.0
H1505 H 0.50486 0.21733 0.70945 0.0
H1506 H 0.55644 0.13387 0.71241 0.0
H1507 H 0.59393 0.15253 0.69375 0.0
H1508 H 0.5488 0.21017 0.65918 0.0
C1509 C 0.46486 0.16696 0.69983 0.0
C1510 C 0.4571 0.14715 0.71557 0.0
C1511 C 0.47517 0.1313 0.72636 0.0
C1512 C 0.50054 0.13463 0.721 0.0
C1513 C 0.5075 0.15412 0.70511 0.0
C1514 C 0.49024 0.17026 0.69499 0.0
C1515 C 0.50266 0.19003 0.67891 0.0
C1516 C 0.49369 0.1883 0.65163 0.0
C1517 C 0.49834 0.21629 0.68973 0.0
C1518 C 0.52966 0.18234 0.68131 0.0
C1519 C 0.53195 0.16143 0.69633 0.0
C1520 C 0.55488 0.15035 0.70079 0.0
C1521 C 0.57608 0.16106 0.68994 0.0
C1522 C 0.57436 0.18287 0.67495 0.0
C1523 C 0.55075 0.19358 0.67059 0.0
H1524 H 0.36764 0.86486 0.45191 0.0
H1525 H 0.31179 0.90755 0.41196 0.0
H1526 H 0.29248 0.91929 0.45226 0.0
H1527 H 0.32831 0.8405 0.49864 0.0
H1528 H 0.35092 0.84284 0.52345 0.0
H1529 H 0.36105 0.83889 0.49162 0.0
H1530 H 0.38806 0.87893 0.49501 0.0
H1531 H 0.37824 0.88286 0.52696 0.0
H1532 H 0.3739 0.90781 0.50477 0.0
H1533 H 0.27736 0.92348 0.49724 0.0
H1534 H 0.27022 0.92317 0.54298 0.0
H1535 H 0.33702 0.87904 0.55312 0.0
C1536 C 0.35153 0.87695 0.4516 0.0
C1537 C 0.34124 0.88529 0.42873 0.0
C1538 C 0.32013 0.90107 0.42922 0.0
C1539 C 0.30895 0.90773 0.45203 0.0
C1540 C 0.31927 0.89871 0.47421 0.0
C1541 C 0.34033 0.88397 0.47415 0.0
C1542 C 0.34775 0.87656 0.50046 0.0
C1543 C 0.34695 0.848 0.50372 0.0
C1544 C 0.37351 0.88718 0.50719 0.0
C1545 C 0.3274 0.88913 0.51537 0.0
C1546 C 0.31104 0.9017 0.49993 0.0
C1547 C 0.29023 0.91392 0.50949 0.0
C1548 C 0.28625 0.91353 0.53549 0.0
C1549 C 0.30312 0.90121 0.55166 0.0
C1550 C 0.3239 0.88884 0.54131 0.0
H1551 H 0.14187 0.84223 0.05559 0.0
H1552 H 0.18213 0.77225 0.05359 0.0
H1553 H 0.20762 0.78804 0.01843 0.0
H1554 H 0.1389 0.84868 0.98802 0.0
H1555 H 0.14146 0.88226 0.98881 0.0
H1556 H 0.12761 0.86585 0.01469 0.0
H1557 H 0.15918 0.88694 0.04474 0.0
H1558 H 0.17344 0.90303 0.01884 0.0
H1559 H 0.19204 0.88361 0.03902 0.0
H1560 H 0.22999 0.81228 0.98452 0.0
H1561 H 0.24185 0.83961 0.94908 0.0
H1562 H 0.18418 0.89189 0.97004 0.0
C1563 C 0.15599 0.83026 0.0476 0.0
C1564 C 0.16012 0.80605 0.05724 0.0
C1565 C 0.17858 0.79078 0.04627 0.0
C1566 C 0.1933 0.79969 0.0265 0.0
C1567 C 0.18901 0.82376 0.01755 0.0
C1568 C 0.17034 0.83858 0.02728 0.0
C1569 C 0.16821 0.86289 1.01287 0.0
C1570 C 0.14253 0.86504 1.00035 0.0
C1571 C 0.17354 0.88545 0.02989 0.0
C1572 C 0.18867 0.8595 0.99365 0.0
C1573 C 0.20086 0.83706 0.99706 0.0
C1574 C 0.22056 0.82988 0.98168 0.0
C1575 C 0.22739 0.84564 0.96179 0.0
C1576 C 0.21421 0.86799 0.95715 0.0
C1577 C 0.19482 0.87508 0.97349 0.0
H1578 H 0.16264 0.68008 0.56033 0.0
H1579 H 0.19901 0.6079 0.56157 0.0
H1580 H 0.18877 0.60174 0.51702 0.0
H1581 H 0.11299 0.66401 0.51498 0.0
H1582 H 0.11476 0.69384 0.49944 0.0
H1583 H 0.12222 0.69147 0.53223 0.0
H1584 H 0.16535 0.71149 0.52391 0.0
H1585 H 0.15802 0.71391 0.49115 0.0
H1586 H 0.18565 0.69764 0.50099 0.0
H1587 H 0.17681 0.6041 0.47195 0.0
H1588 H 0.16633 0.61613 0.42865 0.0
H1589 H 0.13938 0.68766 0.45552 0.0
C1590 C 0.16794 0.6628 0.55128 0.0
C1591 C 0.18139 0.64434 0.56443 0.0
C1592 C 0.18864 0.62225 0.55183 0.0
C1593 C 0.18281 0.61851 0.52656 0.0
C1594 C 0.1699 0.63717 0.51395 0.0
C1595 C 0.16267 0.65897 0.52577 0.0
C1596 C 0.15095 0.67691 0.50722 0.0
C1597 C 0.1236 0.68184 0.51387 0.0
C1598 C 0.16589 0.70143 0.50574 0.0
C1599 C 0.15311 0.66193 0.48319 0.0
C1600 C 0.16374 0.6389 0.48759 0.0
C1601 C 0.16832 0.62203 0.46827 0.0
C1602 C 0.16227 0.62902 0.4437 0.0
C1603 C 0.152 0.65281 0.43857 0.0
C1604 C 0.14709 0.66928 0.45875 0.0
H1605 H 0.3749 0.71087 0.04765 0.0
H1606 H 0.34044 0.65781 0.0984 0.0
H1607 H 0.31787 0.63872 0.06301 0.0
H1608 H 0.32233 0.72002 1.00798 0.0
H1609 H 0.3401 0.72169 0.97947 0.0
H1610 H 0.35406 0.73099 1.00868 0.0
H1611 H 0.38991 0.69955 1.00165 0.0
H1612 H 0.37613 0.69025 0.97235 0.0
H1613 H 0.3827 0.66713 0.99593 0.0
H1614 H 0.29707 0.6268 0.02238 0.0
H1615 H 0.28214 0.62097 0.97899 0.0
H1616 H 0.33141 0.68035 0.95422 0.0
C1617 C 0.36276 0.69512 0.0513 0.0
C1618 C 0.35951 0.68587 0.0759 0.0
C1619 C 0.3434 0.6652 0.07978 0.0
C1620 C 0.3304 0.65425 0.05978 0.0
C1621 C 0.33381 0.66396 0.03586 0.0
C1622 C 0.34982 0.68374 0.03147 0.0
C1623 C 0.35022 0.69048 1.0039 0.0
C1624 C 0.34113 0.71739 0.99977 0.0
C1625 C 0.37629 0.68661 0.99281 0.0
C1626 C 0.33178 0.67158 0.99356 0.0
C1627 C 0.3224 0.65657 1.01233 0.0
C1628 C 0.30446 0.6383 1.00749 0.0
C1629 C 0.29602 0.63518 0.98279 0.0
C1630 C 0.30568 0.65005 0.96314 0.0
C1631 C 0.32383 0.66847 0.96875 0.0
loop_
_geom_bond_atom_site_label_1
_geom_bond_atom_site_label_2
_geom_bond_distance
_geom_bond_site_symmetry_2
_ccdc_geom_bond_type
C0 O2 1.247 . S
C0 O4 1.258 . S
C1 O8 1.247 . S
C1 O9 1.258 . S
O2 C0 1.247 . S
O2 Zn3 2.028 . S
Zn3 O2 2.028 . S
Zn3 O7 2.035 . S
Zn3 O9 2.035 . S
Zn3 O10 2.028 . S
O4 C0 1.258 . S
O4 Zn5 2.035 . S
Zn5 O4 2.035 . S
Zn5 O6 2.028 . S
Zn5 O8 2.028 . S
Zn5 O11 2.035 . S
O6 Zn5 2.028 . S
O6 C12 1.247 . S
O7 Zn3 2.035 . S
O7 C12 1.258 . S
O8 C1 1.247 . S
O8 Zn5 2.028 . S
O9 C1 1.258 . S
O9 Zn3 2.035 . S
O10 Zn3 2.028 . S
O10 C13 1.247 . S
O11 Zn5 2.035 . S
O11 C13 1.258 . S
C12 O6 1.247 . S
C12 O7 1.258 . S
C13 O10 1.247 . S
C13 O11 1.258 . S
C14 O16 1.247 . S
C14 O18 1.258 . S
C15 O22 1.247 . S
C15 O23 1.258 . S
O16 C14 1.247 . S
O16 Zn17 2.028 . S
Zn17 O16 2.028 . S
Zn17 O21 2.035 . S
Zn17 O23 2.035 . S
Zn17 O24 2.028 . S
O18 C14 1.258 . S
O18 Zn19 2.035 . S
Zn19 O18 2.035 . S
Zn19 O20 2.028 . S
Zn19 O22 2.028 . S
Zn19 O25 2.035 . S
O20 Zn19 2.028 . S
O20 C26 1.247 . S
O21 Zn17 2.035 . S
O21 C26 1.258 . S
O22 C15 1.247 . S
O22 Zn19 2.028 . S
O23 C15 1.258 . S
O23 Zn17 2.035 . S
O24 Zn17 2.028 . S
O24 C27 1.247 . S
O25 Zn19 2.035 . S
O25 C27 1.258 . S
C26 O20 1.247 . S
C26 O21 1.258 . S
C27 O24 1.247 . S
C27 O25 1.258 . S
C28 O30 1.247 . S
C28 O32 1.258 . S
C29 O36 1.247 . S
C29 O37 1.258 . S
O30 C28 1.247 . S
O30 Zn31 2.028 . S
Zn31 O30 2.028 . S
Zn31 O35 2.035 . S
Zn31 O37 2.035 . S
Zn31 O38 2.028 . S
O32 C28 1.258 . S
O32 Zn33 2.035 . S
Zn33 O32 2.035 . S
Zn33 O34 2.028 . S
Zn33 O36 2.028 . S
Zn33 O39 2.035 . S
O34 Zn33 2.028 . S
O34 C40 1.247 . S
O35 Zn31 2.035 . S
O35 C40 1.258 . S
O36 C29 1.247 . S
O36 Zn33 2.028 . S
O37 C29 1.258 . S
O37 Zn31 2.035 . S
O38 Zn31 2.028 . S
O38 C41 1.247 . S
O39 Zn33 2.035 . S
O39 C41 1.258 . S
C40 O34 1.247 . S
C40 O35 1.258 . S
C41 O38 1.247 . S
C41 O39 1.258 . S
C42 O44 1.247 . S
C42 O46 1.258 . S
C43 O50 1.247 . S
C43 O51 1.258 . S
O44 C42 1.247 . S
O44 Zn45 2.028 . S
Zn45 O44 2.028 . S
Zn45 O49 2.035 . S
Zn45 O51 2.035 . S
Zn45 O52 2.028 . S
O46 C42 1.258 . S
O46 Zn47 2.035 . S
Zn47 O46 2.035 . S
Zn47 O48 2.028 . S
Zn47 O50 2.028 . S
Zn47 O53 2.035 . S
O48 Zn47 2.028 . S
O48 C54 1.247 . S
O49 Zn45 2.035 . S
O49 C54 1.258 . S
O50 C43 1.247 . S
O50 Zn47 2.028 . S
O51 C43 1.258 . S
O51 Zn45 2.035 . S
O52 Zn45 2.028 . S
O52 C55 1.247 . S
O53 Zn47 2.035 . S
O53 C55 1.258 . S
C54 O48 1.247 . S
C54 O49 1.258 . S
C55 O52 1.247 . S
C55 O53 1.258 . S
C56 O58 1.247 . S
C56 O60 1.258 . S
C57 O64 1.247 . S
C57 O65 1.258 . S
O58 C56 1.247 . S
O58 Zn59 2.028 . S
Zn59 O58 2.028 . S
Zn59 O63 2.035 . S
Zn59 O65 2.035 . S
Zn59 O66 2.028 . S
O60 C56 1.258 . S
O60 Zn61 2.035 . S
Zn61 O60 2.035 . S
Zn61 O62 2.028 . S
Zn61 O64 2.028 . S
Zn61 O67 2.035 . S
O62 Zn61 2.028 . S
O62 C68 1.247 . S
O63 Zn59 2.035 . S
O63 C68 1.258 . S
O64 C57 1.247 . S
O64 Zn61 2.028 . S
O65 C57 1.258 . S
O65 Zn59 2.035 . S
O66 Zn59 2.028 . S
O66 C69 1.247 . S
O67 Zn61 2.035 . S
O67 C69 1.258 . S
C68 O62 1.247 . S
C68 O63 1.258 . S
C69 O66 1.247 . S
C69 O67 1.258 . S
C70 O72 1.247 . S
C70 O74 1.258 . S
C71 O78 1.247 . S
C71 O79 1.258 . S
O72 C70 1.247 . S
O72 Zn73 2.028 . S
Zn73 O72 2.028 . S
Zn73 O77 2.035 . S
Zn73 O79 2.035 . S
Zn73 O80 2.028 . S
O74 C70 1.258 . S
O74 Zn75 2.035 . S
Zn75 O74 2.035 . S
Zn75 O76 2.028 . S
Zn75 O78 2.028 . S
Zn75 O81 2.035 . S
O76 Zn75 2.028 . S
O76 C82 1.247 . S
O77 Zn73 2.035 . S
O77 C82 1.258 . S
O78 C71 1.247 . S
O78 Zn75 2.028 . S
O79 C71 1.258 . S
O79 Zn73 2.035 . S
O80 Zn73 2.028 . S
O80 C83 1.247 . S
O81 Zn75 2.035 . S
O81 C83 1.258 . S
C82 O76 1.247 . S
C82 O77 1.258 . S
C83 O80 1.247 . S
C83 O81 1.258 . S
C84 O86 1.247 . S
C84 O88 1.258 . S
C85 O92 1.247 . S
C85 O93 1.258 . S
O86 C84 1.247 . S
O86 Zn87 2.028 . S
Zn87 O86 2.028 . S
Zn87 O91 2.035 . S
Zn87 O93 2.035 . S
Zn87 O94 2.028 . S
O88 C84 1.258 . S
O88 Zn89 2.035 . S
Zn89 O88 2.035 . S
Zn89 O90 2.028 . S
Zn89 O92 2.028 . S
Zn89 O95 2.035 . S
O90 Zn89 2.028 . S
O90 C96 1.247 . S
O91 Zn87 2.035 . S
O91 C96 1.258 . S
O92 C85 1.247 . S
O92 Zn89 2.028 . S
O93 C85 1.258 . S
O93 Zn87 2.035 . S
O94 Zn87 2.028 . S
O94 C97 1.247 . S
O95 Zn89 2.035 . S
O95 C97 1.258 . S
C96 O90 1.247 . S
C96 O91 1.258 . S
C97 O94 1.247 . S
C97 O95 1.258 . S
C98 O100 1.247 . S
C98 O102 1.258 . S
C99 O106 1.247 . S
C99 O107 1.258 . S
O100 C98 1.247 . S
O100 Zn101 2.028 . S
Zn101 O100 2.028 . S
Zn101 O105 2.035 . S
Zn101 O107 2.035 . S
Zn101 O108 2.028 . S
O102 C98 1.258 . S
O102 Zn103 2.035 . S
Zn103 O102 2.035 . S
Zn103 O104 2.028 . S
Zn103 O106 2.028 . S
Zn103 O109 2.035 . S
O104 Zn103 2.028 . S
O104 C110 1.247 . S
O105 Zn101 2.035 . S
O105 C110 1.258 . S
O106 C99 1.247 . S
O106 Zn103 2.028 . S
O107 C99 1.258 . S
O107 Zn101 2.035 . S
O108 Zn101 2.028 . S
O108 C111 1.247 . S
O109 Zn103 2.035 . S
O109 C111 1.258 . S
C110 O104 1.247 . S
C110 O105 1.258 . S
C111 O108 1.247 . S
C111 O109 1.258 . S
C112 O114 1.247 . S
C112 O116 1.258 . S
C113 O120 1.247 . S
C113 O121 1.258 . S
O114 C112 1.247 . S
O114 Zn115 2.028 . S
Zn115 O114 2.028 . S
Zn115 O119 2.035 . S
Zn115 O121 2.035 . S
Zn115 O122 2.028 . S
O116 C112 1.258 . S
O116 Zn117 2.035 . S
Zn117 O116 2.035 . S
Zn117 O118 2.028 . S
Zn117 O120 2.028 . S
Zn117 O123 2.035 . S
O118 Zn117 2.028 . S
O118 C124 1.247 . S
O119 Zn115 2.035 . S
O119 C124 1.258 . S
O120 C113 1.247 . S
O120 Zn117 2.028 . S
O121 C113 1.258 . S
O121 Zn115 2.035 . S
O122 Zn115 2.028 . S
O122 C125 1.247 . S
O123 Zn117 2.035 . S
O123 C125 1.258 . S
C124 O118 1.247 . S
C124 O119 1.258 . S
C125 O122 1.247 . S
C125 O123 1.258 . S
C126 O128 1.247 . S
C126 O130 1.258 . S
C127 O134 1.247 . S
C127 O135 1.258 . S
O128 C126 1.247 . S
O128 Zn129 2.028 . S
Zn129 O128 2.028 . S
Zn129 O133 2.035 . S
Zn129 O135 2.035 . S
Zn129 O136 2.028 . S
O130 C126 1.258 . S
O130 Zn131 2.035 . S
Zn131 O130 2.035 . S
Zn131 O132 2.028 . S
Zn131 O134 2.028 . S
Zn131 O137 2.035 . S
O132 Zn131 2.028 . S
O132 C138 1.247 . S
O133 Zn129 2.035 . S
O133 C138 1.258 . S
O134 C127 1.247 . S
O134 Zn131 2.028 . S
O135 C127 1.258 . S
O135 Zn129 2.035 . S
O136 Zn129 2.028 . S
O136 C139 1.247 . S
O137 Zn131 2.035 . S
O137 C139 1.258 . S
C138 O132 1.247 . S
C138 O133 1.258 . S
C139 O136 1.247 . S
C139 O137 1.258 . S
C140 O142 1.247 . S
C140 O144 1.258 . S
C141 O148 1.247 . S
C141 O149 1.258 . S
O142 C140 1.247 . S
O142 Zn143 2.028 . S
Zn143 O142 2.028 . S
Zn143 O147 2.035 . S
Zn143 O149 2.035 . S
Zn143 O150 2.028 . S
O144 C140 1.258 . S
O144 Zn145 2.035 . S
Zn145 O144 2.035 . S
Zn145 O146 2.028 . S
Zn145 O148 2.028 . S
Zn145 O151 2.035 . S
O146 Zn145 2.028 . S
O146 C152 1.247 . S
O147 Zn143 2.035 . S
O147 C152 1.258 . S
O148 C141 1.247 . S
O148 Zn145 2.028 . S
O149 C141 1.258 . S
O149 Zn143 2.035 . S
O150 Zn143 2.028 . S
O150 C153 1.247 . S
O151 Zn145 2.035 . S
O151 C153 1.258 . S
C152 O146 1.247 . S
C152 O147 1.258 . S
C153 O150 1.247 . S
C153 O151 1.258 . S
C154 O156 1.247 . S
C154 O158 1.258 . S
C155 O162 1.247 . S
C155 O163 1.258 . S
O156 C154 1.247 . S
O156 Zn157 2.028 . S
Zn157 O156 2.028 . S
Zn157 O161 2.035 . S
Zn157 O163 2.035 . S
Zn157 O164 2.028 . S
O158 C154 1.258 . S
O158 Zn159 2.035 . S
Zn159 O158 2.035 . S
Zn159 O160 2.028 . S
Zn159 O162 2.028 . S
Zn159 O165 2.035 . S
O160 Zn159 2.028 . S
O160 C166 1.247 . S
O161 Zn157 2.035 . S
O161 C166 1.258 . S
O162 C155 1.247 . S
O162 Zn159 2.028 . S
O163 C155 1.258 . S
O163 Zn157 2.035 . S
O164 Zn157 2.028 . S
O164 C167 1.247 . S
O165 Zn159 2.035 . S
O165 C167 1.258 . S
C166 O160 1.247 . S
C166 O161 1.258 . S
C167 O164 1.247 . S
C167 O165 1.258 . S
C168 O170 1.247 . S
C168 O172 1.258 . S
C169 O176 1.247 . S
C169 O177 1.258 . S
O170 C168 1.247 . S
O170 Zn171 2.028 . S
Zn171 O170 2.028 . S
Zn171 O175 2.035 . S
Zn171 O177 2.035 . S
Zn171 O178 2.028 . S
O172 C168 1.258 . S
O172 Zn173 2.035 . S
Zn173 O172 2.035 . S
Zn173 O174 2.028 . S
Zn173 O176 2.028 . S
Zn173 O179 2.035 . S
O174 Zn173 2.028 . S
O174 C180 1.247 . S
O175 Zn171 2.035 . S
O175 C180 1.258 . S
O176 C169 1.247 . S
O176 Zn173 2.028 . S
O177 C169 1.258 . S
O177 Zn171 2.035 . S
O178 Zn171 2.028 . S
O178 C181 1.247 . S
O179 Zn173 2.035 . S
O179 C181 1.258 . S
C180 O174 1.247 . S
C180 O175 1.258 . S
C181 O178 1.247 . S
C181 O179 1.258 . S
C182 O184 1.247 . S
C182 O186 1.258 . S
C183 O190 1.247 . S
C183 O191 1.258 . S
O184 C182 1.247 . S
O184 Zn185 2.028 . S
Zn185 O184 2.028 . S
Zn185 O189 2.035 . S
Zn185 O191 2.035 . S
Zn185 O192 2.028 . S
O186 C182 1.258 . S
O186 Zn187 2.035 . S
Zn187 O186 2.035 . S
Zn187 O188 2.028 . S
Zn187 O190 2.028 . S
Zn187 O193 2.035 . S
O188 Zn187 2.028 . S
O188 C194 1.247 . S
O189 Zn185 2.035 . S
O189 C194 1.258 . S
O190 C183 1.247 . S
O190 Zn187 2.028 . S
O191 C183 1.258 . S
O191 Zn185 2.035 . S
O192 Zn185 2.028 . S
O192 C195 1.247 . S
O193 Zn187 2.035 . S
O193 C195 1.258 . S
C194 O188 1.247 . S
C194 O189 1.258 . S
C195 O192 1.247 . S
C195 O193 1.258 . S
C196 O198 1.247 . S
C196 O200 1.258 . S
C197 O204 1.247 . S
C197 O205 1.258 . S
O198 C196 1.247 . S
O198 Zn199 2.028 . S
Zn199 O198 2.028 . S
Zn199 O203 2.035 . S
Zn199 O205 2.035 . S
Zn199 O206 2.028 . S
O200 C196 1.258 . S
O200 Zn201 2.035 . S
Zn201 O200 2.035 . S
Zn201 O202 2.028 . S
Zn201 O204 2.028 . S
Zn201 O207 2.035 . S
O202 Zn201 2.028 . S
O202 C208 1.247 . S
O203 Zn199 2.035 . S
O203 C208 1.258 . S
O204 C197 1.247 . S
O204 Zn201 2.028 . S
O205 C197 1.258 . S
O205 Zn199 2.035 . S
O206 Zn199 2.028 . S
O206 C209 1.247 . S
O207 Zn201 2.035 . S
O207 C209 1.258 . S
C208 O202 1.247 . S
C208 O203 1.258 . S
C209 O206 1.247 . S
C209 O207 1.258 . S
C210 O212 1.247 . S
C210 O214 1.258 . S
C211 O218 1.247 . S
C211 O219 1.258 . S
O212 C210 1.247 . S
O212 Zn213 2.028 . S
Zn213 O212 2.028 . S
Zn213 O217 2.035 . S
Zn213 O219 2.035 . S
Zn213 O220 2.028 . S
O214 C210 1.258 . S
O214 Zn215 2.035 . S
Zn215 O214 2.035 . S
Zn215 O216 2.028 . S
Zn215 O218 2.028 . S
Zn215 O221 2.035 . S
O216 Zn215 2.028 . S
O216 C222 1.247 . S
O217 Zn213 2.035 . S
O217 C222 1.258 . S
O218 C211 1.247 . S
O218 Zn215 2.028 . S
O219 C211 1.258 . S
O219 Zn213 2.035 . S
O220 Zn213 2.028 . S
O220 C223 1.247 . S
O221 Zn215 2.035 . S
O221 C223 1.258 . S
C222 O216 1.247 . S
C222 O217 1.258 . S
C223 O220 1.247 . S
C223 O221 1.258 . S
C224 O226 1.247 . S
C224 O228 1.258 . S
C225 O232 1.247 . S
C225 O233 1.258 . S
O226 C224 1.247 . S
O226 Zn227 2.028 . S
Zn227 O226 2.028 . S
Zn227 O231 2.035 . S
Zn227 O233 2.035 . S
Zn227 O234 2.028 . S
O228 C224 1.258 . S
O228 Zn229 2.035 . S
Zn229 O228 2.035 . S
Zn229 O230 2.028 . S
Zn229 O232 2.028 . S
Zn229 O235 2.035 . S
O230 Zn229 2.028 . S
O230 C236 1.247 . S
O231 Zn227 2.035 . S
O231 C236 1.258 . S
O232 C225 1.247 . S
O232 Zn229 2.028 . S
O233 C225 1.258 . S
O233 Zn227 2.035 . S
O234 Zn227 2.028 . S
O234 C237 1.247 . S
O235 Zn229 2.035 . S
O235 C237 1.258 . S
C236 O230 1.247 . S
C236 O231 1.258 . S
C237 O234 1.247 . S
C237 O235 1.258 . S
C238 O240 1.247 . S
C238 O242 1.258 . S
C239 O246 1.247 . S
C239 O247 1.258 . S
O240 C238 1.247 . S
O240 Zn241 2.028 . S
Zn241 O240 2.028 . S
Zn241 O245 2.035 . S
Zn241 O247 2.035 . S
Zn241 O248 2.028 . S
O242 C238 1.258 . S
O242 Zn243 2.035 . S
Zn243 O242 2.035 . S
Zn243 O244 2.028 . S
Zn243 O246 2.028 . S
Zn243 O249 2.035 . S
O244 Zn243 2.028 . S
O244 C250 1.247 . S
O245 Zn241 2.035 . S
O245 C250 1.258 . S
O246 C239 1.247 . S
O246 Zn243 2.028 . S
O247 C239 1.258 . S
O247 Zn241 2.035 . S
O248 Zn241 2.028 . S
O248 C251 1.247 . S
O249 Zn243 2.035 . S
O249 C251 1.258 . S
C250 O244 1.247 . S
C250 O245 1.258 . S
C251 O248 1.247 . S
C251 O249 1.258 . S
C252 O254 1.247 . S
C252 O256 1.258 . S
C253 O260 1.247 . S
C253 O261 1.258 . S
O254 C252 1.247 . S
O254 Zn255 2.028 . S
Zn255 O254 2.028 . S
Zn255 O259 2.035 . S
Zn255 O261 2.035 . S
Zn255 O262 2.028 . S
O256 C252 1.258 . S
O256 Zn257 2.035 . S
Zn257 O256 2.035 . S
Zn257 O258 2.028 . S
Zn257 O260 2.028 . S
Zn257 O263 2.035 . S
O258 Zn257 2.028 . S
O258 C264 1.247 . S
O259 Zn255 2.035 . S
O259 C264 1.258 . S
O260 C253 1.247 . S
O260 Zn257 2.028 . S
O261 C253 1.258 . S
O261 Zn255 2.035 . S
O262 Zn255 2.028 . S
O262 C265 1.247 . S
O263 Zn257 2.035 . S
O263 C265 1.258 . S
C264 O258 1.247 . S
C264 O259 1.258 . S
C265 O262 1.247 . S
C265 O263 1.258 . S
C266 O268 1.247 . S
C266 O270 1.258 . S
C267 O274 1.247 . S
C267 O275 1.258 . S
O268 C266 1.247 . S
O268 Zn269 2.028 . S
Zn269 O268 2.028 . S
Zn269 O273 2.035 . S
Zn269 O275 2.035 . S
Zn269 O276 2.028 . S
O270 C266 1.258 . S
O270 Zn271 2.035 . S
Zn271 O270 2.035 . S
Zn271 O272 2.028 . S
Zn271 O274 2.028 . S
Zn271 O277 2.035 . S
O272 Zn271 2.028 . S
O272 C278 1.247 . S
O273 Zn269 2.035 . S
O273 C278 1.258 . S
O274 C267 1.247 . S
O274 Zn271 2.028 . S
O275 C267 1.258 . S
O275 Zn269 2.035 . S
O276 Zn269 2.028 . S
O276 C279 1.247 . S
O277 Zn271 2.035 . S
O277 C279 1.258 . S
C278 O272 1.247 . S
C278 O273 1.258 . S
C279 O276 1.247 . S
C279 O277 1.258 . S
C280 O282 1.247 . S
C280 O284 1.258 . S
C281 O288 1.247 . S
C281 O289 1.258 . S
O282 C280 1.247 . S
O282 Zn283 2.028 . S
Zn283 O282 2.028 . S
Zn283 O287 2.035 . S
Zn283 O289 2.035 . S
Zn283 O290 2.028 . S
O284 C280 1.258 . S
O284 Zn285 2.035 . S
Zn285 O284 2.035 . S
Zn285 O286 2.028 . S
Zn285 O288 2.028 . S
Zn285 O291 2.035 . S
O286 Zn285 2.028 . S
O286 C292 1.247 . S
O287 Zn283 2.035 . S
O287 C292 1.258 . S
O288 C281 1.247 . S
O288 Zn285 2.028 . S
O289 C281 1.258 . S
O289 Zn283 2.035 . S
O290 Zn283 2.028 . S
O290 C293 1.247 . S
O291 Zn285 2.035 . S
O291 C293 1.258 . S
C292 O286 1.247 . S
C292 O287 1.258 . S
C293 O290 1.247 . S
C293 O291 1.258 . S
C294 O296 1.247 . S
C294 O298 1.258 . S
C295 O302 1.247 . S
C295 O303 1.258 . S
O296 C294 1.247 . S
O296 Zn297 2.028 . S
Zn297 O296 2.028 . S
Zn297 O301 2.035 . S
Zn297 O303 2.035 . S
Zn297 O304 2.028 . S
O298 C294 1.258 . S
O298 Zn299 2.035 . S
Zn299 O298 2.035 . S
Zn299 O300 2.028 . S
Zn299 O302 2.028 . S
Zn299 O305 2.035 . S
O300 Zn299 2.028 . S
O300 C306 1.247 . S
O301 Zn297 2.035 . S
O301 C306 1.258 . S
O302 C295 1.247 . S
O302 Zn299 2.028 . S
O303 C295 1.258 . S
O303 Zn297 2.035 . S
O304 Zn297 2.028 . S
O304 C307 1.247 . S
O305 Zn299 2.035 . S
O305 C307 1.258 . S
C306 O300 1.247 . S
C306 O301 1.258 . S
C307 O304 1.247 . S
C307 O305 1.258 . S
C308 O310 1.247 . S
C308 O312 1.258 . S
C309 O316 1.247 . S
C309 O317 1.258 . S
O310 C308 1.247 . S
O310 Zn311 2.028 . S
Zn311 O310 2.028 . S
Zn311 O315 2.035 . S
Zn311 O317 2.035 . S
Zn311 O318 2.028 . S
O312 C308 1.258 . S
O312 Zn313 2.035 . S
Zn313 O312 2.035 . S
Zn313 O314 2.028 . S
Zn313 O316 2.028 . S
Zn313 O319 2.035 . S
O314 Zn313 2.028 . S
O314 C320 1.247 . S
O315 Zn311 2.035 . S
O315 C320 1.258 . S
O316 C309 1.247 . S
O316 Zn313 2.028 . S
O317 C309 1.258 . S
O317 Zn311 2.035 . S
O318 Zn311 2.028 . S
O318 C321 1.247 . S
O319 Zn313 2.035 . S
O319 C321 1.258 . S
C320 O314 1.247 . S
C320 O315 1.258 . S
C321 O318 1.247 . S
C321 O319 1.258 . S
C322 O324 1.247 . S
C322 O326 1.258 . S
C323 O330 1.247 . S
C323 O331 1.258 . S
O324 C322 1.247 . S
O324 Zn325 2.028 . S
Zn325 O324 2.028 . S
Zn325 O329 2.035 . S
Zn325 O331 2.035 . S
Zn325 O332 2.028 . S
O326 C322 1.258 . S
O326 Zn327 2.035 . S
Zn327 O326 2.035 . S
Zn327 O328 2.028 . S
Zn327 O330 2.028 . S
Zn327 O333 2.035 . S
O328 Zn327 2.028 . S
O328 C334 1.247 . S
O329 Zn325 2.035 . S
O329 C334 1.258 . S
O330 C323 1.247 . S
O330 Zn327 2.028 . S
O331 C323 1.258 . S
O331 Zn325 2.035 . S
O332 Zn325 2.028 . S
O332 C335 1.247 . S
O333 Zn327 2.035 . S
O333 C335 1.258 . S
C334 O328 1.247 . S
C334 O329 1.258 . S
C335 O332 1.247 . S
C335 O333 1.258 . S
H336 C348 0.930 . S
H337 C350 0.930 . S
H338 C351 0.930 . S
H339 C355 0.959 . S
H340 C355 0.959 . S
H341 C355 0.961 . S
H342 C356 0.960 . S
H343 C356 0.961 . S
H344 C356 0.959 . S
H345 C359 0.929 . S
H346 C360 0.931 . S
H347 C362 0.930 . S
C348 H336 0.930 . S
C348 C349 1.399 . S
C348 C353 1.399 . S
C349 C348 1.399 . S
C349 C350 1.376 . S
C350 H337 0.930 . S
C350 C349 1.376 . S
C350 C351 1.388 . S
C351 H338 0.930 . S
C351 C350 1.388 . S
C351 C352 1.390 . S
C352 C351 1.390 . S
C352 C353 1.394 . S
C352 C358 1.465 . S
C353 C348 1.399 . S
C353 C352 1.394 . S
C353 C354 1.516 . S
C354 C353 1.516 . S
C354 C355 1.502 . S
C354 C356 1.561 . S
C354 C357 1.526 . S
C355 H339 0.959 . S
C355 H340 0.959 . S
C355 H341 0.961 . S
C355 C354 1.502 . S
C356 H342 0.960 . S
C356 H343 0.961 . S
C356 H344 0.959 . S
C356 C354 1.561 . S
C357 C354 1.526 . S
C357 C358 1.396 . S
C357 C362 1.390 . S
C358 C352 1.465 . S
C358 C357 1.396 . S
C358 C359 1.399 . S
C359 H345 0.929 . S
C359 C358 1.399 . S
C359 C360 1.385 . S
C360 H346 0.931 . S
C360 C359 1.385 . S
C360 C361 1.389 . S
C361 C360 1.389 . S
C361 C362 1.387 . S
C362 H347 0.930 . S
C362 C357 1.390 . S
C362 C361 1.387 . S
H363 C375 0.930 . S
H364 C377 0.930 . S
H365 C378 0.930 . S
H366 C382 0.959 . S
H367 C382 0.959 . S
H368 C382 0.961 . S
H369 C383 0.960 . S
H370 C383 0.961 . S
H371 C383 0.959 . S
H372 C386 0.929 . S
H373 C387 0.931 . S
H374 C389 0.930 . S
C375 H363 0.930 . S
C375 C376 1.399 . S
C375 C380 1.399 . S
C376 C375 1.399 . S
C376 C377 1.376 . S
C377 H364 0.930 . S
C377 C376 1.376 . S
C377 C378 1.388 . S
C378 H365 0.930 . S
C378 C377 1.388 . S
C378 C379 1.390 . S
C379 C378 1.390 . S
C379 C380 1.394 . S
C379 C385 1.465 . S
C380 C375 1.399 . S
C380 C379 1.394 . S
C380 C381 1.516 . S
C381 C380 1.516 . S
C381 C382 1.502 . S
C381 C383 1.561 . S
C381 C384 1.526 . S
C382 H366 0.959 . S
C382 H367 0.959 . S
C382 H368 0.961 . S
C382 C381 1.502 . S
C383 H369 0.960 . S
C383 H370 0.961 . S
C383 H371 0.959 . S
C383 C381 1.561 . S
C384 C381 1.526 . S
C384 C385 1.396 . S
C384 C389 1.390 . S
C385 C379 1.465 . S
C385 C384 1.396 . S
C385 C386 1.399 . S
C386 H372 0.929 . S
C386 C385 1.399 . S
C386 C387 1.385 . S
C387 H373 0.931 . S
C387 C386 1.385 . S
C387 C388 1.389 . S
C388 C387 1.389 . S
C388 C389 1.387 . S
C389 H374 0.930 . S
C389 C384 1.390 . S
C389 C388 1.387 . S
H390 C402 0.930 . S
H391 C404 0.930 . S
H392 C405 0.930 . S
H393 C409 0.959 . S
H394 C409 0.959 . S
H395 C409 0.961 . S
H396 C410 0.960 . S
H397 C410 0.961 . S
H398 C410 0.959 . S
H399 C413 0.929 . S
H400 C414 0.931 . S
H401 C416 0.930 . S
C402 H390 0.930 . S
C402 C403 1.399 . S
C402 C407 1.399 . S
C403 C402 1.399 . S
C403 C404 1.376 . S
C404 H391 0.930 . S
C404 C403 1.376 . S
C404 C405 1.388 . S
C405 H392 0.930 . S
C405 C404 1.388 . S
C405 C406 1.390 . S
C406 C405 1.390 . S
C406 C407 1.394 . S
C406 C412 1.465 . S
C407 C402 1.399 . S
C407 C406 1.394 . S
C407 C408 1.516 . S
C408 C407 1.516 . S
C408 C409 1.502 . S
C408 C410 1.561 . S
C408 C411 1.526 . S
C409 H393 0.959 . S
C409 H394 0.959 . S
C409 H395 0.961 . S
C409 C408 1.502 . S
C410 H396 0.960 . S
C410 H397 0.961 . S
C410 H398 0.959 . S
C410 C408 1.561 . S
C411 C408 1.526 . S
C411 C412 1.396 . S
C411 C416 1.390 . S
C412 C406 1.465 . S
C412 C411 1.396 . S
C412 C413 1.399 . S
C413 H399 0.929 . S
C413 C412 1.399 . S
C413 C414 1.385 . S
C414 H400 0.931 . S
C414 C413 1.385 . S
C414 C415 1.389 . S
C415 C414 1.389 . S
C415 C416 1.387 . S
C416 H401 0.930 . S
C416 C411 1.390 . S
C416 C415 1.387 . S
H417 C429 0.930 . S
H418 C431 0.930 . S
H419 C432 0.930 . S
H420 C436 0.959 . S
H421 C436 0.959 . S
H422 C436 0.961 . S
H423 C437 0.960 . S
H424 C437 0.961 . S
H425 C437 0.959 . S
H426 C440 0.929 . S
H427 C441 0.931 . S
H428 C443 0.930 . S
C429 H417 0.930 . S
C429 C430 1.399 . S
C429 C434 1.399 . S
C430 C429 1.399 . S
C430 C431 1.376 . S
C431 H418 0.930 . S
C431 C430 1.376 . S
C431 C432 1.388 . S
C432 H419 0.930 . S
C432 C431 1.388 . S
C432 C433 1.390 . S
C433 C432 1.390 . S
C433 C434 1.394 . S
C433 C439 1.465 . S
C434 C429 1.399 . S
C434 C433 1.394 . S
C434 C435 1.516 . S
C435 C434 1.516 . S
C435 C436 1.502 . S
C435 C437 1.561 . S
C435 C438 1.526 . S
C436 H420 0.959 . S
C436 H421 0.959 . S
C436 H422 0.961 . S
C436 C435 1.502 . S
C437 H423 0.960 . S
C437 H424 0.961 . S
C437 H425 0.959 . S
C437 C435 1.561 . S
C438 C435 1.526 . S
C438 C439 1.396 . S
C438 C443 1.390 . S
C439 C433 1.465 . S
C439 C438 1.396 . S
C439 C440 1.399 . S
C440 H426 0.929 . S
C440 C439 1.399 . S
C440 C441 1.385 . S
C441 H427 0.931 . S
C441 C440 1.385 . S
C441 C442 1.389 . S
C442 C441 1.389 . S
C442 C443 1.387 . S
C443 H428 0.930 . S
C443 C438 1.390 . S
C443 C442 1.387 . S
H444 C456 0.930 . S
H445 C458 0.930 . S
H446 C459 0.930 . S
H447 C463 0.959 . S
H448 C463 0.959 . S
H449 C463 0.961 . S
H450 C464 0.960 . S
H451 C464 0.961 . S
H452 C464 0.959 . S
H453 C467 0.929 . S
H454 C468 0.931 . S
H455 C470 0.930 . S
C456 H444 0.930 . S
C456 C457 1.399 . S
C456 C461 1.399 . S
C457 C456 1.399 . S
C457 C458 1.376 . S
C458 H445 0.930 . S
C458 C457 1.376 . S
C458 C459 1.388 . S
C459 H446 0.930 . S
C459 C458 1.388 . S
C459 C460 1.390 . S
C460 C459 1.390 . S
C460 C461 1.394 . S
C460 C466 1.465 . S
C461 C456 1.399 . S
C461 C460 1.394 . S
C461 C462 1.516 . S
C462 C461 1.516 . S
C462 C463 1.502 . S
C462 C464 1.561 . S
C462 C465 1.526 . S
C463 H447 0.959 . S
C463 H448 0.959 . S
C463 H449 0.961 . S
C463 C462 1.502 . S
C464 H450 0.960 . S
C464 H451 0.961 . S
C464 H452 0.959 . S
C464 C462 1.561 . S
C465 C462 1.526 . S
C465 C466 1.396 . S
C465 C470 1.390 . S
C466 C460 1.465 . S
C466 C465 1.396 . S
C466 C467 1.399 . S
C467 H453 0.929 . S
C467 C466 1.399 . S
C467 C468 1.385 . S
C468 H454 0.931 . S
C468 C467 1.385 . S
C468 C469 1.389 . S
C469 C468 1.389 . S
C469 C470 1.387 . S
C470 H455 0.930 . S
C470 C465 1.390 . S
C470 C469 1.387 . S
H471 C483 0.930 . S
H472 C485 0.930 . S
H473 C486 0.930 . S
H474 C490 0.959 . S
H475 C490 0.959 . S
H476 C490 0.961 . S
H477 C491 0.960 . S
H478 C491 0.961 . S
H479 C491 0.959 . S
H480 C494 0.929 . S
H481 C495 0.931 . S
H482 C497 0.930 . S
C483 H471 0.930 . S
C483 C484 1.399 . S
C483 C488 1.399 . S
C484 C483 1.399 . S
C484 C485 1.376 . S
C485 H472 0.930 . S
C485 C484 1.376 . S
C485 C486 1.388 . S
C486 H473 0.930 . S
C486 C485 1.388 . S
C486 C487 1.390 . S
C487 C486 1.390 . S
C487 C488 1.394 . S
C487 C493 1.465 . S
C488 C483 1.399 . S
C488 C487 1.394 . S
C488 C489 1.516 . S
C489 C488 1.516 . S
C489 C490 1.502 . S
C489 C491 1.561 . S
C489 C492 1.526 . S
C490 H474 0.959 . S
C490 H475 0.959 . S
C490 H476 0.961 . S
C490 C489 1.502 . S
C491 H477 0.960 . S
C491 H478 0.961 . S
C491 H479 0.959 . S
C491 C489 1.561 . S
C492 C489 1.526 . S
C492 C493 1.396 . S
C492 C497 1.390 . S
C493 C487 1.465 . S
C493 C492 1.396 . S
C493 C494 1.399 . S
C494 H480 0.929 . S
C494 C493 1.399 . S
C494 C495 1.385 . S
C495 H481 0.931 . S
C495 C494 1.385 . S
C495 C496 1.389 . S
C496 C495 1.389 . S
C496 C497 1.387 . S
C497 H482 0.930 . S
C497 C492 1.390 . S
C497 C496 1.387 . S
H498 C510 0.930 . S
H499 C512 0.930 . S
H500 C513 0.930 . S
H501 C517 0.959 . S
H502 C517 0.959 . S
H503 C517 0.961 . S
H504 C518 0.960 . S
H505 C518 0.961 . S
H506 C518 0.959 . S
H507 C521 0.929 . S
H508 C522 0.931 . S
H509 C524 0.930 . S
C510 H498 0.930 . S
C510 C511 1.399 . S
C510 C515 1.399 . S
C511 C510 1.399 . S
C511 C512 1.376 . S
C512 H499 0.930 . S
C512 C511 1.376 . S
C512 C513 1.388 . S
C513 H500 0.930 . S
C513 C512 1.388 . S
C513 C514 1.390 . S
C514 C513 1.390 . S
C514 C515 1.394 . S
C514 C520 1.465 . S
C515 C510 1.399 . S
C515 C514 1.394 . S
C515 C516 1.516 . S
C516 C515 1.516 . S
C516 C517 1.502 . S
C516 C518 1.561 . S
C516 C519 1.526 . S
C517 H501 0.959 . S
C517 H502 0.959 . S
C517 H503 0.961 . S
C517 C516 1.502 . S
C518 H504 0.960 . S
C518 H505 0.961 . S
C518 H506 0.959 . S
C518 C516 1.561 . S
C519 C516 1.526 . S
C519 C520 1.396 . S
C519 C524 1.390 . S
C520 C514 1.465 . S
C520 C519 1.396 . S
C520 C521 1.399 . S
C521 H507 0.929 . S
C521 C520 1.399 . S
C521 C522 1.385 . S
C522 H508 0.931 . S
C522 C521 1.385 . S
C522 C523 1.389 . S
C523 C522 1.389 . S
C523 C524 1.387 . S
C524 H509 0.930 . S
C524 C519 1.390 . S
C524 C523 1.387 . S
H525 C537 0.930 . S
H526 C539 0.930 . S
H527 C540 0.930 . S
H528 C544 0.959 . S
H529 C544 0.959 . S
H530 C544 0.961 . S
H531 C545 0.960 . S
H532 C545 0.961 . S
H533 C545 0.959 . S
H534 C548 0.929 . S
H535 C549 0.931 . S
H536 C551 0.930 . S
C537 H525 0.930 . S
C537 C538 1.399 . S
C537 C542 1.399 . S
C538 C537 1.399 . S
C538 C539 1.376 . S
C539 H526 0.930 . S
C539 C538 1.376 . S
C539 C540 1.388 . S
C540 H527 0.930 . S
C540 C539 1.388 . S
C540 C541 1.390 . S
C541 C540 1.390 . S
C541 C542 1.394 . S
C541 C547 1.465 . S
C542 C537 1.399 . S
C542 C541 1.394 . S
C542 C543 1.516 . S
C543 C542 1.516 . S
C543 C544 1.502 . S
C543 C545 1.561 . S
C543 C546 1.526 . S
C544 H528 0.959 . S
C544 H529 0.959 . S
C544 H530 0.961 . S
C544 C543 1.502 . S
C545 H531 0.960 . S
C545 H532 0.961 . S
C545 H533 0.959 . S
C545 C543 1.561 . S
C546 C543 1.526 . S
C546 C547 1.396 . S
C546 C551 1.390 . S
C547 C541 1.465 . S
C547 C546 1.396 . S
C547 C548 1.399 . S
C548 H534 0.929 . S
C548 C547 1.399 . S
C548 C549 1.385 . S
C549 H535 0.931 . S
C549 C548 1.385 . S
C549 C550 1.389 . S
C550 C549 1.389 . S
C550 C551 1.387 . S
C551 H536 0.930 . S
C551 C546 1.390 . S
C551 C550 1.387 . S
H552 C564 0.930 . S
H553 C566 0.930 . S
H554 C567 0.930 . S
H555 C571 0.959 . S
H556 C571 0.959 . S
H557 C571 0.961 . S
H558 C572 0.960 . S
H559 C572 0.961 . S
H560 C572 0.959 . S
H561 C575 0.929 . S
H562 C576 0.931 . S
H563 C578 0.930 . S
C564 H552 0.930 . S
C564 C565 1.399 . S
C564 C569 1.399 . S
C565 C564 1.399 . S
C565 C566 1.376 . S
C566 H553 0.930 . S
C566 C565 1.376 . S
C566 C567 1.388 . S
C567 H554 0.930 . S
C567 C566 1.388 . S
C567 C568 1.390 . S
C568 C567 1.390 . S
C568 C569 1.394 . S
C568 C574 1.465 . S
C569 C564 1.399 . S
C569 C568 1.394 . S
C569 C570 1.516 . S
C570 C569 1.516 . S
C570 C571 1.502 . S
C570 C572 1.561 . S
C570 C573 1.526 . S
C571 H555 0.959 . S
C571 H556 0.959 . S
C571 H557 0.961 . S
C571 C570 1.502 . S
C572 H558 0.960 . S
C572 H559 0.961 . S
C572 H560 0.959 . S
C572 C570 1.561 . S
C573 C570 1.526 . S
C573 C574 1.396 . S
C573 C578 1.390 . S
C574 C568 1.465 . S
C574 C573 1.396 . S
C574 C575 1.399 . S
C575 H561 0.929 . S
C575 C574 1.399 . S
C575 C576 1.385 . S
C576 H562 0.931 . S
C576 C575 1.385 . S
C576 C577 1.389 . S
C577 C576 1.389 . S
C577 C578 1.387 . S
C578 H563 0.930 . S
C578 C573 1.390 . S
C578 C577 1.387 . S
H579 C591 0.930 . S
H580 C593 0.930 . S
H581 C594 0.930 . S
H582 C598 0.959 . S
H583 C598 0.959 . S
H584 C598 0.961 . S
H585 C599 0.960 . S
H586 C599 0.961 . S
H587 C599 0.959 . S
H588 C602 0.929 . S
H589 C603 0.931 . S
H590 C605 0.930 . S
C591 H579 0.930 . S
C591 C592 1.399 . S
C591 C596 1.399 . S
C592 C591 1.399 . S
C592 C593 1.376 . S
C593 H580 0.930 . S
C593 C592 1.376 . S
C593 C594 1.388 . S
C594 H581 0.930 . S
C594 C593 1.388 . S
C594 C595 1.390 . S
C595 C594 1.390 . S
C595 C596 1.394 . S
C595 C601 1.465 . S
C596 C591 1.399 . S
C596 C595 1.394 . S
C596 C597 1.516 . S
C597 C596 1.516 . S
C597 C598 1.502 . S
C597 C599 1.561 . S
C597 C600 1.526 . S
C598 H582 0.959 . S
C598 H583 0.959 . S
C598 H584 0.961 . S
C598 C597 1.502 . S
C599 H585 0.960 . S
C599 H586 0.961 . S
C599 H587 0.959 . S
C599 C597 1.561 . S
C600 C597 1.526 . S
C600 C601 1.396 . S
C600 C605 1.390 . S
C601 C595 1.465 . S
C601 C600 1.396 . S
C601 C602 1.399 . S
C602 H588 0.929 . S
C602 C601 1.399 . S
C602 C603 1.385 . S
C603 H589 0.931 . S
C603 C602 1.385 . S
C603 C604 1.389 . S
C604 C603 1.389 . S
C604 C605 1.387 . S
C605 H590 0.930 . S
C605 C600 1.390 . S
C605 C604 1.387 . S
H606 C618 0.930 . S
H607 C620 0.930 . S
H608 C621 0.930 . S
H609 C625 0.959 . S
H610 C625 0.959 . S
H611 C625 0.961 . S
H612 C626 0.960 . S
H613 C626 0.961 . S
H614 C626 0.959 . S
H615 C629 0.929 . S
H616 C630 0.931 . S
H617 C632 0.930 . S
C618 H606 0.930 . S
C618 C619 1.399 . S
C618 C623 1.399 . S
C619 C618 1.399 . S
C619 C620 1.376 . S
C620 H607 0.930 . S
C620 C619 1.376 . S
C620 C621 1.388 . S
C621 H608 0.930 . S
C621 C620 1.388 . S
C621 C622 1.390 . S
C622 C621 1.390 . S
C622 C623 1.394 . S
C622 C628 1.465 . S
C623 C618 1.399 . S
C623 C622 1.394 . S
C623 C624 1.516 . S
C624 C623 1.516 . S
C624 C625 1.502 . S
C624 C626 1.561 . S
C624 C627 1.526 . S
C625 H609 0.959 . S
C625 H610 0.959 . S
C625 H611 0.961 . S
C625 C624 1.502 . S
C626 H612 0.960 . S
C626 H613 0.961 . S
C626 H614 0.959 . S
C626 C624 1.561 . S
C627 C624 1.526 . S
C627 C628 1.396 . S
C627 C632 1.390 . S
C628 C622 1.465 . S
C628 C627 1.396 . S
C628 C629 1.399 . S
C629 H615 0.929 . S
C629 C628 1.399 . S
C629 C630 1.385 . S
C630 H616 0.931 . S
C630 C629 1.385 . S
C630 C631 1.389 . S
C631 C630 1.389 . S
C631 C632 1.387 . S
C632 H617 0.930 . S
C632 C627 1.390 . S
C632 C631 1.387 . S
H633 C645 0.930 . S
H634 C647 0.930 . S
H635 C648 0.930 . S
H636 C652 0.959 . S
H637 C652 0.959 . S
H638 C652 0.961 . S
H639 C653 0.960 . S
H640 C653 0.961 . S
H641 C653 0.959 . S
H642 C656 0.929 . S
H643 C657 0.931 . S
H644 C659 0.930 . S
C645 H633 0.930 . S
C645 C646 1.399 . S
C645 C650 1.399 . S
C646 C645 1.399 . S
C646 C647 1.376 . S
C647 H634 0.930 . S
C647 C646 1.376 . S
C647 C648 1.388 . S
C648 H635 0.930 . S
C648 C647 1.388 . S
C648 C649 1.390 . S
C649 C648 1.390 . S
C649 C650 1.394 . S
C649 C655 1.465 . S
C650 C645 1.399 . S
C650 C649 1.394 . S
C650 C651 1.516 . S
C651 C650 1.516 . S
C651 C652 1.502 . S
C651 C653 1.561 . S
C651 C654 1.526 . S
C652 H636 0.959 . S
C652 H637 0.959 . S
C652 H638 0.961 . S
C652 C651 1.502 . S
C653 H639 0.960 . S
C653 H640 0.961 . S
C653 H641 0.959 . S
C653 C651 1.561 . S
C654 C651 1.526 . S
C654 C655 1.396 . S
C654 C659 1.390 . S
C655 C649 1.465 . S
C655 C654 1.396 . S
C655 C656 1.399 . S
C656 H642 0.929 . S
C656 C655 1.399 . S
C656 C657 1.385 . S
C657 H643 0.931 . S
C657 C656 1.385 . S
C657 C658 1.389 . S
C658 C657 1.389 . S
C658 C659 1.387 . S
C659 H644 0.930 . S
C659 C654 1.390 . S
C659 C658 1.387 . S
H660 C672 0.930 . S
H661 C674 0.930 . S
H662 C675 0.930 . S
H663 C679 0.959 . S
H664 C679 0.959 . S
H665 C679 0.961 . S
H666 C680 0.960 . S
H667 C680 0.961 . S
H668 C680 0.959 . S
H669 C683 0.929 . S
H670 C684 0.931 . S
H671 C686 0.930 . S
C672 H660 0.930 . S
C672 C673 1.399 . S
C672 C677 1.399 . S
C673 C672 1.399 . S
C673 C674 1.376 . S
C674 H661 0.930 . S
C674 C673 1.376 . S
C674 C675 1.388 . S
C675 H662 0.930 . S
C675 C674 1.388 . S
C675 C676 1.390 . S
C676 C675 1.390 . S
C676 C677 1.394 . S
C676 C682 1.465 . S
C677 C672 1.399 . S
C677 C676 1.394 . S
C677 C678 1.516 . S
C678 C677 1.516 . S
C678 C679 1.502 . S
C678 C680 1.561 . S
C678 C681 1.526 . S
C679 H663 0.959 . S
C679 H664 0.959 . S
C679 H665 0.961 . S
C679 C678 1.502 . S
C680 H666 0.960 . S
C680 H667 0.961 . S
C680 H668 0.959 . S
C680 C678 1.561 . S
C681 C678 1.526 . S
C681 C682 1.396 . S
C681 C686 1.390 . S
C682 C676 1.465 . S
C682 C681 1.396 . S
C682 C683 1.399 . S
C683 H669 0.929 . S
C683 C682 1.399 . S
C683 C684 1.385 . S
C684 H670 0.931 . S
C684 C683 1.385 . S
C684 C685 1.389 . S
C685 C684 1.389 . S
C685 C686 1.387 . S
C686 H671 0.930 . S
C686 C681 1.390 . S
C686 C685 1.387 . S
H687 C699 0.930 . S
H688 C701 0.930 . S
H689 C702 0.930 . S
H690 C706 0.959 . S
H691 C706 0.959 . S
H692 C706 0.961 . S
H693 C707 0.960 . S
H694 C707 0.961 . S
H695 C707 0.959 . S
H696 C710 0.929 . S
H697 C711 0.931 . S
H698 C713 0.930 . S
C699 H687 0.930 . S
C699 C700 1.399 . S
C699 C704 1.399 . S
C700 C699 1.399 . S
C700 C701 1.376 . S
C701 H688 0.930 . S
C701 C700 1.376 . S
C701 C702 1.388 . S
C702 H689 0.930 . S
C702 C701 1.388 . S
C702 C703 1.390 . S
C703 C702 1.390 . S
C703 C704 1.394 . S
C703 C709 1.465 . S
C704 C699 1.399 . S
C704 C703 1.394 . S
C704 C705 1.516 . S
C705 C704 1.516 . S
C705 C706 1.502 . S
C705 C707 1.561 . S
C705 C708 1.526 . S
C706 H690 0.959 . S
C706 H691 0.959 . S
C706 H692 0.961 . S
C706 C705 1.502 . S
C707 H693 0.960 . S
C707 H694 0.961 . S
C707 H695 0.959 . S
C707 C705 1.561 . S
C708 C705 1.526 . S
C708 C709 1.396 . S
C708 C713 1.390 . S
C709 C703 1.465 . S
C709 C708 1.396 . S
C709 C710 1.399 . S
C710 H696 0.929 . S
C710 C709 1.399 . S
C710 C711 1.385 . S
C711 H697 0.931 . S
C711 C710 1.385 . S
C711 C712 1.389 . S
C712 C711 1.389 . S
C712 C713 1.387 . S
C713 H698 0.930 . S
C713 C708 1.390 . S
C713 C712 1.387 . S
H714 C726 0.930 . S
H715 C728 0.930 . S
H716 C729 0.930 . S
H717 C733 0.959 . S
H718 C733 0.959 . S
H719 C733 0.961 . S
H720 C734 0.960 . S
H721 C734 0.961 . S
H722 C734 0.959 . S
H723 C737 0.929 . S
H724 C738 0.931 . S
H725 C740 0.930 . S
C726 H714 0.930 . S
C726 C727 1.399 . S
C726 C731 1.399 . S
C727 C726 1.399 . S
C727 C728 1.376 . S
C728 H715 0.930 . S
C728 C727 1.376 . S
C728 C729 1.388 . S
C729 H716 0.930 . S
C729 C728 1.388 . S
C729 C730 1.390 . S
C730 C729 1.390 . S
C730 C731 1.394 . S
C730 C736 1.465 . S
C731 C726 1.399 . S
C731 C730 1.394 . S
C731 C732 1.516 . S
C732 C731 1.516 . S
C732 C733 1.502 . S
C732 C734 1.561 . S
C732 C735 1.526 . S
C733 H717 0.959 . S
C733 H718 0.959 . S
C733 H719 0.961 . S
C733 C732 1.502 . S
C734 H720 0.960 . S
C734 H721 0.961 . S
C734 H722 0.959 . S
C734 C732 1.561 . S
C735 C732 1.526 . S
C735 C736 1.396 . S
C735 C740 1.390 . S
C736 C730 1.465 . S
C736 C735 1.396 . S
C736 C737 1.399 . S
C737 H723 0.929 . S
C737 C736 1.399 . S
C737 C738 1.385 . S
C738 H724 0.931 . S
C738 C737 1.385 . S
C738 C739 1.389 . S
C739 C738 1.389 . S
C739 C740 1.387 . S
C740 H725 0.930 . S
C740 C735 1.390 . S
C740 C739 1.387 . S
H741 C753 0.930 . S
H742 C755 0.930 . S
H743 C756 0.930 . S
H744 C760 0.959 . S
H745 C760 0.959 . S
H746 C760 0.961 . S
H747 C761 0.960 . S
H748 C761 0.961 . S
H749 C761 0.959 . S
H750 C764 0.929 . S
H751 C765 0.931 . S
H752 C767 0.930 . S
C753 H741 0.930 . S
C753 C754 1.399 . S
C753 C758 1.399 . S
C754 C753 1.399 . S
C754 C755 1.376 . S
C755 H742 0.930 . S
C755 C754 1.376 . S
C755 C756 1.388 . S
C756 H743 0.930 . S
C756 C755 1.388 . S
C756 C757 1.390 . S
C757 C756 1.390 . S
C757 C758 1.394 . S
C757 C763 1.465 . S
C758 C753 1.399 . S
C758 C757 1.394 . S
C758 C759 1.516 . S
C759 C758 1.516 . S
C759 C760 1.502 . S
C759 C761 1.561 . S
C759 C762 1.526 . S
C760 H744 0.959 . S
C760 H745 0.959 . S
C760 H746 0.961 . S
C760 C759 1.502 . S
C761 H747 0.960 . S
C761 H748 0.961 . S
C761 H749 0.959 . S
C761 C759 1.561 . S
C762 C759 1.526 . S
C762 C763 1.396 . S
C762 C767 1.390 . S
C763 C757 1.465 . S
C763 C762 1.396 . S
C763 C764 1.399 . S
C764 H750 0.929 . S
C764 C763 1.399 . S
C764 C765 1.385 . S
C765 H751 0.931 . S
C765 C764 1.385 . S
C765 C766 1.389 . S
C766 C765 1.389 . S
C766 C767 1.387 . S
C767 H752 0.930 . S
C767 C762 1.390 . S
C767 C766 1.387 . S
H768 C780 0.930 . S
H769 C782 0.930 . S
H770 C783 0.930 . S
H771 C787 0.959 . S
H772 C787 0.959 . S
H773 C787 0.961 . S
H774 C788 0.960 . S
H775 C788 0.961 . S
H776 C788 0.959 . S
H777 C791 0.929 . S
H778 C792 0.931 . S
H779 C794 0.930 . S
C780 H768 0.930 . S
C780 C781 1.399 . S
C780 C785 1.399 . S
C781 C780 1.399 . S
C781 C782 1.376 . S
C782 H769 0.930 . S
C782 C781 1.376 . S
C782 C783 1.388 . S
C783 H770 0.930 . S
C783 C782 1.388 . S
C783 C784 1.390 . S
C784 C783 1.390 . S
C784 C785 1.394 . S
C784 C790 1.465 . S
C785 C780 1.399 . S
C785 C784 1.394 . S
C785 C786 1.516 . S
C786 C785 1.516 . S
C786 C787 1.502 . S
C786 C788 1.561 . S
C786 C789 1.526 . S
C787 H771 0.959 . S
C787 H772 0.959 . S
C787 H773 0.961 . S
C787 C786 1.502 . S
C788 H774 0.960 . S
C788 H775 0.961 . S
C788 H776 0.959 . S
C788 C786 1.561 . S
C789 C786 1.526 . S
C789 C790 1.396 . S
C789 C794 1.390 . S
C790 C784 1.465 . S
C790 C789 1.396 . S
C790 C791 1.399 . S
C791 H777 0.929 . S
C791 C790 1.399 . S
C791 C792 1.385 . S
C792 H778 0.931 . S
C792 C791 1.385 . S
C792 C793 1.389 . S
C793 C792 1.389 . S
C793 C794 1.387 . S
C794 H779 0.930 . S
C794 C789 1.390 . S
C794 C793 1.387 . S
H795 C807 0.930 . S
H796 C809 0.930 . S
H797 C810 0.930 . S
H798 C814 0.959 . S
H799 C814 0.959 . S
H800 C814 0.961 . S
H801 C815 0.960 . S
H802 C815 0.961 . S
H803 C815 0.959 . S
H804 C818 0.929 . S
H805 C819 0.931 . S
H806 C821 0.930 . S
C807 H795 0.930 . S
C807 C808 1.399 . S
C807 C812 1.399 . S
C808 C807 1.399 . S
C808 C809 1.376 . S
C809 H796 0.930 . S
C809 C808 1.376 . S
C809 C810 1.388 . S
C810 H797 0.930 . S
C810 C809 1.388 . S
C810 C811 1.390 . S
C811 C810 1.390 . S
C811 C812 1.394 . S
C811 C817 1.465 . S
C812 C807 1.399 . S
C812 C811 1.394 . S
C812 C813 1.516 . S
C813 C812 1.516 . S
C813 C814 1.502 . S
C813 C815 1.561 . S
C813 C816 1.526 . S
C814 H798 0.959 . S
C814 H799 0.959 . S
C814 H800 0.961 . S
C814 C813 1.502 . S
C815 H801 0.960 . S
C815 H802 0.961 . S
C815 H803 0.959 . S
C815 C813 1.561 . S
C816 C813 1.526 . S
C816 C817 1.396 . S
C816 C821 1.390 . S
C817 C811 1.465 . S
C817 C816 1.396 . S
C817 C818 1.399 . S
C818 H804 0.929 . S
C818 C817 1.399 . S
C818 C819 1.385 . S
C819 H805 0.931 . S
C819 C818 1.385 . S
C819 C820 1.389 . S
C820 C819 1.389 . S
C820 C821 1.387 . S
C821 H806 0.930 . S
C821 C816 1.390 . S
C821 C820 1.387 . S
H822 C834 0.930 . S
H823 C836 0.930 . S
H824 C837 0.930 . S
H825 C841 0.959 . S
H826 C841 0.959 . S
H827 C841 0.961 . S
H828 C842 0.960 . S
H829 C842 0.961 . S
H830 C842 0.959 . S
H831 C845 0.929 . S
H832 C846 0.931 . S
H833 C848 0.930 . S
C834 H822 0.930 . S
C834 C835 1.399 . S
C834 C839 1.399 . S
C835 C834 1.399 . S
C835 C836 1.376 . S
C836 H823 0.930 . S
C836 C835 1.376 . S
C836 C837 1.388 . S
C837 H824 0.930 . S
C837 C836 1.388 . S
C837 C838 1.390 . S
C838 C837 1.390 . S
C838 C839 1.394 . S
C838 C844 1.465 . S
C839 C834 1.399 . S
C839 C838 1.394 . S
C839 C840 1.516 . S
C840 C839 1.516 . S
C840 C841 1.502 . S
C840 C842 1.561 . S
C840 C843 1.526 . S
C841 H825 0.959 . S
C841 H826 0.959 . S
C841 H827 0.961 . S
C841 C840 1.502 . S
C842 H828 0.960 . S
C842 H829 0.961 . S
C842 H830 0.959 . S
C842 C840 1.561 . S
C843 C840 1.526 . S
C843 C844 1.396 . S
C843 C848 1.390 . S
C844 C838 1.465 . S
C844 C843 1.396 . S
C844 C845 1.399 . S
C845 H831 0.929 . S
C845 C844 1.399 . S
C845 C846 1.385 . S
C846 H832 0.931 . S
C846 C845 1.385 . S
C846 C847 1.389 . S
C847 C846 1.389 . S
C847 C848 1.387 . S
C848 H833 0.930 . S
C848 C843 1.390 . S
C848 C847 1.387 . S
H849 C861 0.930 . S
H850 C863 0.930 . S
H851 C864 0.930 . S
H852 C868 0.959 . S
H853 C868 0.959 . S
H854 C868 0.961 . S
H855 C869 0.960 . S
H856 C869 0.961 . S
H857 C869 0.959 . S
H858 C872 0.929 . S
H859 C873 0.931 . S
H860 C875 0.930 . S
C861 H849 0.930 . S
C861 C862 1.399 . S
C861 C866 1.399 . S
C862 C861 1.399 . S
C862 C863 1.376 . S
C863 H850 0.930 . S
C863 C862 1.376 . S
C863 C864 1.388 . S
C864 H851 0.930 . S
C864 C863 1.388 . S
C864 C865 1.390 . S
C865 C864 1.390 . S
C865 C866 1.394 . S
C865 C871 1.465 . S
C866 C861 1.399 . S
C866 C865 1.394 . S
C866 C867 1.516 . S
C867 C866 1.516 . S
C867 C868 1.502 . S
C867 C869 1.561 . S
C867 C870 1.526 . S
C868 H852 0.959 . S
C868 H853 0.959 . S
C868 H854 0.961 . S
C868 C867 1.502 . S
C869 H855 0.960 . S
C869 H856 0.961 . S
C869 H857 0.959 . S
C869 C867 1.561 . S
C870 C867 1.526 . S
C870 C871 1.396 . S
C870 C875 1.390 . S
C871 C865 1.465 . S
C871 C870 1.396 . S
C871 C872 1.399 . S
C872 H858 0.929 . S
C872 C871 1.399 . S
C872 C873 1.385 . S
C873 H859 0.931 . S
C873 C872 1.385 . S
C873 C874 1.389 . S
C874 C873 1.389 . S
C874 C875 1.387 . S
C875 H860 0.930 . S
C875 C870 1.390 . S
C875 C874 1.387 . S
H876 C888 0.930 . S
H877 C890 0.930 . S
H878 C891 0.930 . S
H879 C895 0.959 . S
H880 C895 0.959 . S
H881 C895 0.961 . S
H882 C896 0.960 . S
H883 C896 0.961 . S
H884 C896 0.959 . S
H885 C899 0.929 . S
H886 C900 0.931 . S
H887 C902 0.930 . S
C888 H876 0.930 . S
C888 C889 1.399 . S
C888 C893 1.399 . S
C889 C888 1.399 . S
C889 C890 1.376 . S
C890 H877 0.930 . S
C890 C889 1.376 . S
C890 C891 1.388 . S
C891 H878 0.930 . S
C891 C890 1.388 . S
C891 C892 1.390 . S
C892 C891 1.390 . S
C892 C893 1.394 . S
C892 C898 1.465 . S
C893 C888 1.399 . S
C893 C892 1.394 . S
C893 C894 1.516 . S
C894 C893 1.516 . S
C894 C895 1.502 . S
C894 C896 1.561 . S
C894 C897 1.526 . S
C895 H879 0.959 . S
C895 H880 0.959 . S
C895 H881 0.961 . S
C895 C894 1.502 . S
C896 H882 0.960 . S
C896 H883 0.961 . S
C896 H884 0.959 . S
C896 C894 1.561 . S
C897 C894 1.526 . S
C897 C898 1.396 . S
C897 C902 1.390 . S
C898 C892 1.465 . S
C898 C897 1.396 . S
C898 C899 1.399 . S
C899 H885 0.929 . S
C899 C898 1.399 . S
C899 C900 1.385 . S
C900 H886 0.931 . S
C900 C899 1.385 . S
C900 C901 1.389 . S
C901 C900 1.389 . S
C901 C902 1.387 . S
C902 H887 0.930 . S
C902 C897 1.390 . S
C902 C901 1.387 . S
H903 C915 0.930 . S
H904 C917 0.930 . S
H905 C918 0.930 . S
H906 C922 0.959 . S
H907 C922 0.959 . S
H908 C922 0.961 . S
H909 C923 0.960 . S
H910 C923 0.961 . S
H911 C923 0.959 . S
H912 C926 0.929 . S
H913 C927 0.931 . S
H914 C929 0.930 . S
C915 H903 0.930 . S
C915 C916 1.399 . S
C915 C920 1.399 . S
C916 C915 1.399 . S
C916 C917 1.376 . S
C917 H904 0.930 . S
C917 C916 1.376 . S
C917 C918 1.388 . S
C918 H905 0.930 . S
C918 C917 1.388 . S
C918 C919 1.390 . S
C919 C918 1.390 . S
C919 C920 1.394 . S
C919 C925 1.465 . S
C920 C915 1.399 . S
C920 C919 1.394 . S
C920 C921 1.516 . S
C921 C920 1.516 . S
C921 C922 1.502 . S
C921 C923 1.561 . S
C921 C924 1.526 . S
C922 H906 0.959 . S
C922 H907 0.959 . S
C922 H908 0.961 . S
C922 C921 1.502 . S
C923 H909 0.960 . S
C923 H910 0.961 . S
C923 H911 0.959 . S
C923 C921 1.561 . S
C924 C921 1.526 . S
C924 C925 1.396 . S
C924 C929 1.390 . S
C925 C919 1.465 . S
C925 C924 1.396 . S
C925 C926 1.399 . S
C926 H912 0.929 . S
C926 C925 1.399 . S
C926 C927 1.385 . S
C927 H913 0.931 . S
C927 C926 1.385 . S
C927 C928 1.389 . S
C928 C927 1.389 . S
C928 C929 1.387 . S
C929 H914 0.930 . S
C929 C924 1.390 . S
C929 C928 1.387 . S
H930 C942 0.930 . S
H931 C944 0.930 . S
H932 C945 0.930 . S
H933 C949 0.959 . S
H934 C949 0.959 . S
H935 C949 0.961 . S
H936 C950 0.960 . S
H937 C950 0.961 . S
H938 C950 0.959 . S
H939 C953 0.929 . S
H940 C954 0.931 . S
H941 C956 0.930 . S
C942 H930 0.930 . S
C942 C943 1.399 . S
C942 C947 1.399 . S
C943 C942 1.399 . S
C943 C944 1.376 . S
C944 H931 0.930 . S
C944 C943 1.376 . S
C944 C945 1.388 . S
C945 H932 0.930 . S
C945 C944 1.388 . S
C945 C946 1.390 . S
C946 C945 1.390 . S
C946 C947 1.394 . S
C946 C952 1.465 . S
C947 C942 1.399 . S
C947 C946 1.394 . S
C947 C948 1.516 . S
C948 C947 1.516 . S
C948 C949 1.502 . S
C948 C950 1.561 . S
C948 C951 1.526 . S
C949 H933 0.959 . S
C949 H934 0.959 . S
C949 H935 0.961 . S
C949 C948 1.502 . S
C950 H936 0.960 . S
C950 H937 0.961 . S
C950 H938 0.959 . S
C950 C948 1.561 . S
C951 C948 1.526 . S
C951 C952 1.396 . S
C951 C956 1.390 . S
C952 C946 1.465 . S
C952 C951 1.396 . S
C952 C953 1.399 . S
C953 H939 0.929 . S
C953 C952 1.399 . S
C953 C954 1.385 . S
C954 H940 0.931 . S
C954 C953 1.385 . S
C954 C955 1.389 . S
C955 C954 1.389 . S
C955 C956 1.387 . S
C956 H941 0.930 . S
C956 C951 1.390 . S
C956 C955 1.387 . S
H957 C969 0.930 . S
H958 C971 0.930 . S
H959 C972 0.930 . S
H960 C976 0.959 . S
H961 C976 0.959 . S
H962 C976 0.961 . S
H963 C977 0.960 . S
H964 C977 0.961 . S
H965 C977 0.959 . S
H966 C980 0.929 . S
H967 C981 0.931 . S
H968 C983 0.930 . S
C969 H957 0.930 . S
C969 C970 1.399 . S
C969 C974 1.399 . S
C970 C969 1.399 . S
C970 C971 1.376 . S
C971 H958 0.930 . S
C971 C970 1.376 . S
C971 C972 1.388 . S
C972 H959 0.930 . S
C972 C971 1.388 . S
C972 C973 1.390 . S
C973 C972 1.390 . S
C973 C974 1.394 . S
C973 C979 1.465 . S
C974 C969 1.399 . S
C974 C973 1.394 . S
C974 C975 1.516 . S
C975 C974 1.516 . S
C975 C976 1.502 . S
C975 C977 1.561 . S
C975 C978 1.526 . S
C976 H960 0.959 . S
C976 H961 0.959 . S
C976 H962 0.961 . S
C976 C975 1.502 . S
C977 H963 0.960 . S
C977 H964 0.961 . S
C977 H965 0.959 . S
C977 C975 1.561 . S
C978 C975 1.526 . S
C978 C979 1.396 . S
C978 C983 1.390 . S
C979 C973 1.465 . S
C979 C978 1.396 . S
C979 C980 1.399 . S
C980 H966 0.929 . S
C980 C979 1.399 . S
C980 C981 1.385 . S
C981 H967 0.931 . S
C981 C980 1.385 . S
C981 C982 1.389 . S
C982 C981 1.389 . S
C982 C983 1.387 . S
C983 H968 0.930 . S
C983 C978 1.390 . S
C983 C982 1.387 . S
H984 C996 0.930 . S
H985 C998 0.930 . S
H986 C999 0.930 . S
H987 C1003 0.959 . S
H988 C1003 0.959 . S
H989 C1003 0.961 . S
H990 C1004 0.960 . S
H991 C1004 0.961 . S
H992 C1004 0.959 . S
H993 C1007 0.929 . S
H994 C1008 0.931 . S
H995 C1010 0.930 . S
C996 H984 0.930 . S
C996 C997 1.399 . S
C996 C1001 1.399 . S
C997 C996 1.399 . S
C997 C998 1.376 . S
C998 H985 0.930 . S
C998 C997 1.376 . S
C998 C999 1.388 . S
C999 H986 0.930 . S
C999 C998 1.388 . S
C999 C1000 1.390 . S
C1000 C999 1.390 . S
C1000 C1001 1.394 . S
C1000 C1006 1.465 . S
C1001 C996 1.399 . S
C1001 C1000 1.394 . S
C1001 C1002 1.516 . S
C1002 C1001 1.516 . S
C1002 C1003 1.502 . S
C1002 C1004 1.561 . S
C1002 C1005 1.526 . S
C1003 H987 0.959 . S
C1003 H988 0.959 . S
C1003 H989 0.961 . S
C1003 C1002 1.502 . S
C1004 H990 0.960 . S
C1004 H991 0.961 . S
C1004 H992 0.959 . S
C1004 C1002 1.561 . S
C1005 C1002 1.526 . S
C1005 C1006 1.396 . S
C1005 C1010 1.390 . S
C1006 C1000 1.465 . S
C1006 C1005 1.396 . S
C1006 C1007 1.399 . S
C1007 H993 0.929 . S
C1007 C1006 1.399 . S
C1007 C1008 1.385 . S
C1008 H994 0.931 . S
C1008 C1007 1.385 . S
C1008 C1009 1.389 . S
C1009 C1008 1.389 . S
C1009 C1010 1.387 . S
C1010 H995 0.930 . S
C1010 C1005 1.390 . S
C1010 C1009 1.387 . S
H1011 C1023 0.930 . S
H1012 C1025 0.930 . S
H1013 C1026 0.930 . S
H1014 C1030 0.959 . S
H1015 C1030 0.959 . S
H1016 C1030 0.961 . S
H1017 C1031 0.960 . S
H1018 C1031 0.961 . S
H1019 C1031 0.959 . S
H1020 C1034 0.929 . S
H1021 C1035 0.931 . S
H1022 C1037 0.930 . S
C1023 H1011 0.930 . S
C1023 C1024 1.399 . S
C1023 C1028 1.399 . S
C1024 C1023 1.399 . S
C1024 C1025 1.376 . S
C1025 H1012 0.930 . S
C1025 C1024 1.376 . S
C1025 C1026 1.388 . S
C1026 H1013 0.930 . S
C1026 C1025 1.388 . S
C1026 C1027 1.390 . S
C1027 C1026 1.390 . S
C1027 C1028 1.394 . S
C1027 C1033 1.465 . S
C1028 C1023 1.399 . S
C1028 C1027 1.394 . S
C1028 C1029 1.516 . S
C1029 C1028 1.516 . S
C1029 C1030 1.502 . S
C1029 C1031 1.561 . S
C1029 C1032 1.526 . S
C1030 H1014 0.959 . S
C1030 H1015 0.959 . S
C1030 H1016 0.961 . S
C1030 C1029 1.502 . S
C1031 H1017 0.960 . S
C1031 H1018 0.961 . S
C1031 H1019 0.959 . S
C1031 C1029 1.561 . S
C1032 C1029 1.526 . S
C1032 C1033 1.396 . S
C1032 C1037 1.390 . S
C1033 C1027 1.465 . S
C1033 C1032 1.396 . S
C1033 C1034 1.399 . S
C1034 H1020 0.929 . S
C1034 C1033 1.399 . S
C1034 C1035 1.385 . S
C1035 H1021 0.931 . S
C1035 C1034 1.385 . S
C1035 C1036 1.389 . S
C1036 C1035 1.389 . S
C1036 C1037 1.387 . S
C1037 H1022 0.930 . S
C1037 C1032 1.390 . S
C1037 C1036 1.387 . S
H1038 C1050 0.930 . S
H1039 C1052 0.930 . S
H1040 C1053 0.930 . S
H1041 C1057 0.959 . S
H1042 C1057 0.959 . S
H1043 C1057 0.961 1_565 S
H1044 C1058 0.960 . S
H1045 C1058 0.961 . S
H1046 C1058 0.959 . S
H1047 C1061 0.929 . S
H1048 C1062 0.931 . S
H1049 C1064 0.930 . S
C1050 H1038 0.930 . S
C1050 C1051 1.399 . S
C1050 C1055 1.399 . S
C1051 C1050 1.399 . S
C1051 C1052 1.376 . S
C1052 H1039 0.930 . S
C1052 C1051 1.376 . S
C1052 C1053 1.388 . S
C1053 H1040 0.930 . S
C1053 C1052 1.388 . S
C1053 C1054 1.390 . S
C1054 C1053 1.390 . S
C1054 C1055 1.394 . S
C1054 C1060 1.465 1_565 S
C1055 C1050 1.399 . S
C1055 C1054 1.394 . S
C1055 C1056 1.516 . S
C1056 C1055 1.516 . S
C1056 C1057 1.502 1_565 S
C1056 C1058 1.561 . S
C1056 C1059 1.526 1_565 S
C1057 H1041 0.959 . S
C1057 H1042 0.959 . S
C1057 H1043 0.961 1_545 S
C1057 C1056 1.502 1_545 S
C1058 H1044 0.960 . S
C1058 H1045 0.961 . S
C1058 H1046 0.959 . S
C1058 C1056 1.561 . S
C1059 C1056 1.526 1_545 S
C1059 C1060 1.396 . S
C1059 C1064 1.390 . S
C1060 C1054 1.465 1_545 S
C1060 C1059 1.396 . S
C1060 C1061 1.399 . S
C1061 H1047 0.929 . S
C1061 C1060 1.399 . S
C1061 C1062 1.385 . S
C1062 H1048 0.931 . S
C1062 C1061 1.385 . S
C1062 C1063 1.389 . S
C1063 C1062 1.389 . S
C1063 C1064 1.387 . S
C1064 H1049 0.930 . S
C1064 C1059 1.390 . S
C1064 C1063 1.387 . S
H1065 C1077 0.930 . S
H1066 C1079 0.930 . S
H1067 C1080 0.930 . S
H1068 C1084 0.960 . S
H1069 C1084 0.956 1_655 S
H1070 C1084 0.961 . S
H1071 C1085 0.960 . S
H1072 C1085 0.961 . S
H1073 C1085 0.959 . S
H1074 C1088 0.929 . S
H1075 C1089 0.931 . S
H1076 C1091 0.930 . S
C1077 H1065 0.930 . S
C1077 C1078 1.399 . S
C1077 C1082 1.399 . S
C1078 C1077 1.399 . S
C1078 C1079 1.376 . S
C1079 H1066 0.930 . S
C1079 C1078 1.376 . S
C1079 C1080 1.388 . S
C1080 H1067 0.930 . S
C1080 C1079 1.388 . S
C1080 C1081 1.390 . S
C1081 C1080 1.390 . S
C1081 C1082 1.394 . S
C1081 C1087 1.465 1_455 S
C1082 C1077 1.399 . S
C1082 C1081 1.394 . S
C1082 C1083 1.516 . S
C1083 C1082 1.516 . S
C1083 C1084 1.502 . S
C1083 C1085 1.561 . S
C1083 C1086 1.526 1_455 S
C1084 H1068 0.960 . S
C1084 H1069 0.956 1_455 S
C1084 H1070 0.961 . S
C1084 C1083 1.502 . S
C1085 H1071 0.960 . S
C1085 H1072 0.961 . S
C1085 H1073 0.959 . S
C1085 C1083 1.561 . S
C1086 C1083 1.526 1_655 S
C1086 C1087 1.396 . S
C1086 C1091 1.390 . S
C1087 C1081 1.465 1_655 S
C1087 C1086 1.396 . S
C1087 C1088 1.399 . S
C1088 H1074 0.929 . S
C1088 C1087 1.399 . S
C1088 C1089 1.385 . S
C1089 H1075 0.931 . S
C1089 C1088 1.385 . S
C1089 C1090 1.389 . S
C1090 C1089 1.389 . S
C1090 C1091 1.387 . S
C1091 H1076 0.930 . S
C1091 C1086 1.390 . S
C1091 C1090 1.387 . S
H1092 C1104 0.930 . S
H1093 C1106 0.930 . S
H1094 C1107 0.930 . S
H1095 C1111 0.959 . S
H1096 C1111 0.959 . S
H1097 C1111 0.961 . S
H1098 C1112 0.960 . S
H1099 C1112 0.961 . S
H1100 C1112 0.959 . S
H1101 C1115 0.929 . S
H1102 C1116 0.931 . S
H1103 C1118 0.930 . S
C1104 H1092 0.930 . S
C1104 C1105 1.399 . S
C1104 C1109 1.399 . S
C1105 C1104 1.399 . S
C1105 C1106 1.376 . S
C1106 H1093 0.930 . S
C1106 C1105 1.376 . S
C1106 C1107 1.388 . S
C1107 H1094 0.930 . S
C1107 C1106 1.388 . S
C1107 C1108 1.390 . S
C1108 C1107 1.390 . S
C1108 C1109 1.394 . S
C1108 C1114 1.465 1_565 S
C1109 C1104 1.399 . S
C1109 C1108 1.394 . S
C1109 C1110 1.516 . S
C1110 C1109 1.516 . S
C1110 C1111 1.502 . S
C1110 C1112 1.561 . S
C1110 C1113 1.526 1_565 S
C1111 H1095 0.959 . S
C1111 H1096 0.959 . S
C1111 H1097 0.961 . S
C1111 C1110 1.502 . S
C1112 H1098 0.960 . S
C1112 H1099 0.961 . S
C1112 H1100 0.959 . S
C1112 C1110 1.561 . S
C1113 C1110 1.526 1_545 S
C1113 C1114 1.396 . S
C1113 C1118 1.390 . S
C1114 C1108 1.465 1_545 S
C1114 C1113 1.396 . S
C1114 C1115 1.399 . S
C1115 H1101 0.929 . S
C1115 C1114 1.399 . S
C1115 C1116 1.385 . S
C1116 H1102 0.931 . S
C1116 C1115 1.385 . S
C1116 C1117 1.389 . S
C1117 C1116 1.389 . S
C1117 C1118 1.387 . S
C1118 H1103 0.930 . S
C1118 C1113 1.390 . S
C1118 C1117 1.387 . S
H1119 C1131 0.930 . S
H1120 C1133 0.930 . S
H1121 C1134 0.930 . S
H1122 C1138 0.959 . S
H1123 C1138 0.959 1_455 S
H1124 C1138 0.961 . S
H1125 C1139 0.960 1_655 S
H1126 C1139 0.961 . S
H1127 C1139 0.959 . S
H1128 C1142 0.929 . S
H1129 C1143 0.931 . S
H1130 C1145 0.930 . S
C1131 H1119 0.930 . S
C1131 C1132 1.399 . S
C1131 C1136 1.399 . S
C1132 C1131 1.399 . S
C1132 C1133 1.376 . S
C1133 H1120 0.930 . S
C1133 C1132 1.376 . S
C1133 C1134 1.388 . S
C1134 H1121 0.930 . S
C1134 C1133 1.388 . S
C1134 C1135 1.390 . S
C1135 C1134 1.390 . S
C1135 C1136 1.394 . S
C1135 C1141 1.465 1_655 S
C1136 C1131 1.399 . S
C1136 C1135 1.394 . S
C1136 C1137 1.505 1_655 S
C1137 C1136 1.505 1_455 S
C1137 C1138 1.497 1_455 S
C1137 C1139 1.567 . S
C1137 C1140 1.538 . S
C1138 H1122 0.959 . S
C1138 H1123 0.959 1_655 S
C1138 H1124 0.961 . S
C1138 C1137 1.497 1_655 S
C1139 H1125 0.960 1_455 S
C1139 H1126 0.961 . S
C1139 H1127 0.959 . S
C1139 C1137 1.567 . S
C1140 C1137 1.538 . S
C1140 C1141 1.396 . S
C1140 C1145 1.390 . S
C1141 C1135 1.465 1_455 S
C1141 C1140 1.396 . S
C1141 C1142 1.399 . S
C1142 H1128 0.929 . S
C1142 C1141 1.399 . S
C1142 C1143 1.385 . S
C1143 H1129 0.931 . S
C1143 C1142 1.385 . S
C1143 C1144 1.389 . S
C1144 C1143 1.389 . S
C1144 C1145 1.387 . S
C1145 H1130 0.930 . S
C1145 C1140 1.390 . S
C1145 C1144 1.387 . S
H1146 C1158 0.930 . S
H1147 C1160 0.930 . S
H1148 C1161 0.930 . S
H1149 C1165 0.959 . S
H1150 C1165 0.959 . S
H1151 C1165 0.961 . S
H1152 C1166 0.960 . S
H1153 C1166 0.961 . S
H1154 C1166 0.959 . S
H1155 C1169 0.929 . S
H1156 C1170 0.931 . S
H1157 C1172 0.930 . S
C1158 H1146 0.930 . S
C1158 C1159 1.399 . S
C1158 C1163 1.399 . S
C1159 C1158 1.399 . S
C1159 C1160 1.376 . S
C1160 H1147 0.930 . S
C1160 C1159 1.376 . S
C1160 C1161 1.388 . S
C1161 H1148 0.930 . S
C1161 C1160 1.388 . S
C1161 C1162 1.390 . S
C1162 C1161 1.390 . S
C1162 C1163 1.394 . S
C1162 C1168 1.465 . S
C1163 C1158 1.399 . S
C1163 C1162 1.394 . S
C1163 C1164 1.516 . S
C1164 C1163 1.516 . S
C1164 C1165 1.502 . S
C1164 C1166 1.561 . S
C1164 C1167 1.526 . S
C1165 H1149 0.959 . S
C1165 H1150 0.959 . S
C1165 H1151 0.961 . S
C1165 C1164 1.502 . S
C1166 H1152 0.960 . S
C1166 H1153 0.961 . S
C1166 H1154 0.959 . S
C1166 C1164 1.561 . S
C1167 C1164 1.526 . S
C1167 C1168 1.396 . S
C1167 C1172 1.390 . S
C1168 C1162 1.465 . S
C1168 C1167 1.396 . S
C1168 C1169 1.399 . S
C1169 H1155 0.929 . S
C1169 C1168 1.399 . S
C1169 C1170 1.385 . S
C1170 H1156 0.931 . S
C1170 C1169 1.385 . S
C1170 C1171 1.389 . S
C1171 C1170 1.389 . S
C1171 C1172 1.387 . S
C1172 H1157 0.930 . S
C1172 C1167 1.390 . S
C1172 C1171 1.387 . S
H1173 C1185 0.930 . S
H1174 C1187 0.930 . S
H1175 C1188 0.930 . S
H1176 C1192 0.959 . S
H1177 C1192 0.959 . S
H1178 C1192 0.961 . S
H1179 C1193 0.960 . S
H1180 C1193 0.961 . S
H1181 C1193 0.959 . S
H1182 C1196 0.929 . S
H1183 C1197 0.931 . S
H1184 C1199 0.930 . S
C1185 H1173 0.930 . S
C1185 C1186 1.399 . S
C1185 C1190 1.399 . S
C1186 C1185 1.399 . S
C1186 C1187 1.376 . S
C1187 H1174 0.930 . S
C1187 C1186 1.376 . S
C1187 C1188 1.388 . S
C1188 H1175 0.930 . S
C1188 C1187 1.388 . S
C1188 C1189 1.390 . S
C1189 C1188 1.390 . S
C1189 C1190 1.394 . S
C1189 C1195 1.465 . S
C1190 C1185 1.399 . S
C1190 C1189 1.394 . S
C1190 C1191 1.516 . S
C1191 C1190 1.516 . S
C1191 C1192 1.502 . S
C1191 C1193 1.561 . S
C1191 C1194 1.526 . S
C1192 H1176 0.959 . S
C1192 H1177 0.959 . S
C1192 H1178 0.961 . S
C1192 C1191 1.502 . S
C1193 H1179 0.960 . S
C1193 H1180 0.961 . S
C1193 H1181 0.959 . S
C1193 C1191 1.561 . S
C1194 C1191 1.526 . S
C1194 C1195 1.396 . S
C1194 C1199 1.390 . S
C1195 C1189 1.465 . S
C1195 C1194 1.396 . S
C1195 C1196 1.399 . S
C1196 H1182 0.929 . S
C1196 C1195 1.399 . S
C1196 C1197 1.385 . S
C1197 H1183 0.931 . S
C1197 C1196 1.385 . S
C1197 C1198 1.389 . S
C1198 C1197 1.389 . S
C1198 C1199 1.387 . S
C1199 H1184 0.930 . S
C1199 C1194 1.390 . S
C1199 C1198 1.387 . S
H1200 C1212 0.930 . S
H1201 C1214 0.930 . S
H1202 C1215 0.930 . S
H1203 C1219 0.959 . S
H1204 C1219 0.959 . S
H1205 C1219 0.961 . S
H1206 C1220 0.960 . S
H1207 C1220 0.961 . S
H1208 C1220 0.959 . S
H1209 C1223 0.929 . S
H1210 C1224 0.931 . S
H1211 C1226 0.930 . S
C1212 H1200 0.930 . S
C1212 C1213 1.399 . S
C1212 C1217 1.399 . S
C1213 C1212 1.399 . S
C1213 C1214 1.376 . S
C1214 H1201 0.930 . S
C1214 C1213 1.376 . S
C1214 C1215 1.388 . S
C1215 H1202 0.930 . S
C1215 C1214 1.388 . S
C1215 C1216 1.390 . S
C1216 C1215 1.390 . S
C1216 C1217 1.394 . S
C1216 C1222 1.465 . S
C1217 C1212 1.399 . S
C1217 C1216 1.394 . S
C1217 C1218 1.516 . S
C1218 C1217 1.516 . S
C1218 C1219 1.502 . S
C1218 C1220 1.561 . S
C1218 C1221 1.526 . S
C1219 H1203 0.959 . S
C1219 H1204 0.959 . S
C1219 H1205 0.961 . S
C1219 C1218 1.502 . S
C1220 H1206 0.960 . S
C1220 H1207 0.961 . S
C1220 H1208 0.959 . S
C1220 C1218 1.561 . S
C1221 C1218 1.526 . S
C1221 C1222 1.396 . S
C1221 C1226 1.390 . S
C1222 C1216 1.465 . S
C1222 C1221 1.396 . S
C1222 C1223 1.399 . S
C1223 H1209 0.929 . S
C1223 C1222 1.399 . S
C1223 C1224 1.385 . S
C1224 H1210 0.931 . S
C1224 C1223 1.385 . S
C1224 C1225 1.389 . S
C1225 C1224 1.389 . S
C1225 C1226 1.387 . S
C1226 H1211 0.930 . S
C1226 C1221 1.390 . S
C1226 C1225 1.387 . S
H1227 C1239 0.930 . S
H1228 C1241 0.930 . S
H1229 C1242 0.930 . S
H1230 C1246 0.959 1_556 S
H1231 C1246 0.959 1_556 S
H1232 C1246 0.961 . S
H1233 C1247 0.960 . S
H1234 C1247 0.961 . S
H1235 C1247 0.959 . S
H1236 C1250 0.929 . S
H1237 C1251 0.931 . S
H1238 C1253 0.930 . S
C1239 H1227 0.930 . S
C1239 C1240 1.399 . S
C1239 C1244 1.399 . S
C1240 C1239 1.399 . S
C1240 C1241 1.376 . S
C1241 H1228 0.930 . S
C1241 C1240 1.376 . S
C1241 C1242 1.388 . S
C1242 H1229 0.930 . S
C1242 C1241 1.388 . S
C1242 C1243 1.390 . S
C1243 C1242 1.390 . S
C1243 C1244 1.394 . S
C1243 C1249 1.465 1_554 S
C1244 C1239 1.399 . S
C1244 C1243 1.394 . S
C1244 C1245 1.516 . S
C1245 C1244 1.516 . S
C1245 C1246 1.502 . S
C1245 C1247 1.561 . S
C1245 C1248 1.526 1_554 S
C1246 H1230 0.959 1_554 S
C1246 H1231 0.959 1_554 S
C1246 H1232 0.961 . S
C1246 C1245 1.502 . S
C1247 H1233 0.960 . S
C1247 H1234 0.961 . S
C1247 H1235 0.959 . S
C1247 C1245 1.561 . S
C1248 C1245 1.526 1_556 S
C1248 C1249 1.396 . S
C1248 C1253 1.390 . S
C1249 C1243 1.465 1_556 S
C1249 C1248 1.396 . S
C1249 C1250 1.399 . S
C1250 H1236 0.929 . S
C1250 C1249 1.399 . S
C1250 C1251 1.385 . S
C1251 H1237 0.931 . S
C1251 C1250 1.385 . S
C1251 C1252 1.389 . S
C1252 C1251 1.389 . S
C1252 C1253 1.387 . S
C1253 H1238 0.930 . S
C1253 C1248 1.390 . S
C1253 C1252 1.387 . S
H1254 C1266 0.930 . S
H1255 C1268 0.930 . S
H1256 C1269 0.930 . S
H1257 C1273 0.959 . S
H1258 C1273 0.959 . S
H1259 C1273 0.961 . S
H1260 C1274 0.960 . S
H1261 C1274 0.961 . S
H1262 C1274 0.959 . S
H1263 C1277 0.929 . S
H1264 C1278 0.931 . S
H1265 C1280 0.930 . S
C1266 H1254 0.930 . S
C1266 C1267 1.399 . S
C1266 C1271 1.399 . S
C1267 C1266 1.399 . S
C1267 C1268 1.376 . S
C1268 H1255 0.930 . S
C1268 C1267 1.376 . S
C1268 C1269 1.388 . S
C1269 H1256 0.930 . S
C1269 C1268 1.388 . S
C1269 C1270 1.390 . S
C1270 C1269 1.390 . S
C1270 C1271 1.394 . S
C1270 C1276 1.465 . S
C1271 C1266 1.399 . S
C1271 C1270 1.394 . S
C1271 C1272 1.516 . S
C1272 C1271 1.516 . S
C1272 C1273 1.502 . S
C1272 C1274 1.561 . S
C1272 C1275 1.526 . S
C1273 H1257 0.959 . S
C1273 H1258 0.959 . S
C1273 H1259 0.961 . S
C1273 C1272 1.502 . S
C1274 H1260 0.960 . S
C1274 H1261 0.961 . S
C1274 H1262 0.959 . S
C1274 C1272 1.561 . S
C1275 C1272 1.526 . S
C1275 C1276 1.396 . S
C1275 C1280 1.390 . S
C1276 C1270 1.465 . S
C1276 C1275 1.396 . S
C1276 C1277 1.399 . S
C1277 H1263 0.929 . S
C1277 C1276 1.399 . S
C1277 C1278 1.385 . S
C1278 H1264 0.931 . S
C1278 C1277 1.385 . S
C1278 C1279 1.389 . S
C1279 C1278 1.389 . S
C1279 C1280 1.387 . S
C1280 H1265 0.930 . S
C1280 C1275 1.390 . S
C1280 C1279 1.387 . S
H1281 C1293 0.930 . S
H1282 C1295 0.930 . S
H1283 C1296 0.930 . S
H1284 C1300 0.959 . S
H1285 C1300 0.959 . S
H1286 C1300 0.961 . S
H1287 C1301 0.960 . S
H1288 C1301 0.961 . S
H1289 C1301 0.959 . S
H1290 C1304 0.929 . S
H1291 C1305 0.931 . S
H1292 C1307 0.930 . S
C1293 H1281 0.930 . S
C1293 C1294 1.399 . S
C1293 C1298 1.399 . S
C1294 C1293 1.399 . S
C1294 C1295 1.376 . S
C1295 H1282 0.930 . S
C1295 C1294 1.376 . S
C1295 C1296 1.388 . S
C1296 H1283 0.930 . S
C1296 C1295 1.388 . S
C1296 C1297 1.390 . S
C1297 C1296 1.390 . S
C1297 C1298 1.394 . S
C1297 C1303 1.465 1_556 S
C1298 C1293 1.399 . S
C1298 C1297 1.394 . S
C1298 C1299 1.516 1_556 S
C1299 C1298 1.516 1_554 S
C1299 C1300 1.502 . S
C1299 C1301 1.561 . S
C1299 C1302 1.526 . S
C1300 H1284 0.959 . S
C1300 H1285 0.959 . S
C1300 H1286 0.961 . S
C1300 C1299 1.502 . S
C1301 H1287 0.960 . S
C1301 H1288 0.961 . S
C1301 H1289 0.959 . S
C1301 C1299 1.561 . S
C1302 C1299 1.526 . S
C1302 C1303 1.396 . S
C1302 C1307 1.390 . S
C1303 C1297 1.465 1_554 S
C1303 C1302 1.396 . S
C1303 C1304 1.399 . S
C1304 H1290 0.929 . S
C1304 C1303 1.399 . S
C1304 C1305 1.385 . S
C1305 H1291 0.931 . S
C1305 C1304 1.385 . S
C1305 C1306 1.389 . S
C1306 C1305 1.389 . S
C1306 C1307 1.387 . S
C1307 H1292 0.930 . S
C1307 C1302 1.390 . S
C1307 C1306 1.387 . S
H1308 C1320 0.930 . S
H1309 C1322 0.930 . S
H1310 C1323 0.930 . S
H1311 C1327 0.959 . S
H1312 C1327 0.959 . S
H1313 C1327 0.961 . S
H1314 C1328 0.960 . S
H1315 C1328 0.961 . S
H1316 C1328 0.959 . S
H1317 C1331 0.929 . S
H1318 C1332 0.931 . S
H1319 C1334 0.930 . S
C1320 H1308 0.930 . S
C1320 C1321 1.399 . S
C1320 C1325 1.399 . S
C1321 C1320 1.399 . S
C1321 C1322 1.376 . S
C1322 H1309 0.930 . S
C1322 C1321 1.376 . S
C1322 C1323 1.388 . S
C1323 H1310 0.930 . S
C1323 C1322 1.388 . S
C1323 C1324 1.390 . S
C1324 C1323 1.390 . S
C1324 C1325 1.394 . S
C1324 C1330 1.465 . S
C1325 C1320 1.399 . S
C1325 C1324 1.394 . S
C1325 C1326 1.516 . S
C1326 C1325 1.516 . S
C1326 C1327 1.502 . S
C1326 C1328 1.561 . S
C1326 C1329 1.526 . S
C1327 H1311 0.959 . S
C1327 H1312 0.959 . S
C1327 H1313 0.961 . S
C1327 C1326 1.502 . S
C1328 H1314 0.960 . S
C1328 H1315 0.961 . S
C1328 H1316 0.959 . S
C1328 C1326 1.561 . S
C1329 C1326 1.526 . S
C1329 C1330 1.396 . S
C1329 C1334 1.390 . S
C1330 C1324 1.465 . S
C1330 C1329 1.396 . S
C1330 C1331 1.399 . S
C1331 H1317 0.929 . S
C1331 C1330 1.399 . S
C1331 C1332 1.385 . S
C1332 H1318 0.931 . S
C1332 C1331 1.385 . S
C1332 C1333 1.389 . S
C1333 C1332 1.389 . S
C1333 C1334 1.387 . S
C1334 H1319 0.930 . S
C1334 C1329 1.390 . S
C1334 C1333 1.387 . S
H1335 C1347 0.930 . S
H1336 C1349 0.930 . S
H1337 C1350 0.930 . S
H1338 C1354 0.959 . S
H1339 C1354 0.959 . S
H1340 C1354 0.961 . S
H1341 C1355 0.960 . S
H1342 C1355 0.961 . S
H1343 C1355 0.959 . S
H1344 C1358 0.929 . S
H1345 C1359 0.931 . S
H1346 C1361 0.930 . S
C1347 H1335 0.930 . S
C1347 C1348 1.399 . S
C1347 C1352 1.399 . S
C1348 C1347 1.399 . S
C1348 C1349 1.376 . S
C1349 H1336 0.930 . S
C1349 C1348 1.376 . S
C1349 C1350 1.388 . S
C1350 H1337 0.930 . S
C1350 C1349 1.388 . S
C1350 C1351 1.390 . S
C1351 C1350 1.390 . S
C1351 C1352 1.394 . S
C1351 C1357 1.465 . S
C1352 C1347 1.399 . S
C1352 C1351 1.394 . S
C1352 C1353 1.516 . S
C1353 C1352 1.516 . S
C1353 C1354 1.502 . S
C1353 C1355 1.561 . S
C1353 C1356 1.526 . S
C1354 H1338 0.959 . S
C1354 H1339 0.959 . S
C1354 H1340 0.961 . S
C1354 C1353 1.502 . S
C1355 H1341 0.960 . S
C1355 H1342 0.961 . S
C1355 H1343 0.959 . S
C1355 C1353 1.561 . S
C1356 C1353 1.526 . S
C1356 C1357 1.396 . S
C1356 C1361 1.390 . S
C1357 C1351 1.465 . S
C1357 C1356 1.396 . S
C1357 C1358 1.399 . S
C1358 H1344 0.929 . S
C1358 C1357 1.399 . S
C1358 C1359 1.385 . S
C1359 H1345 0.931 . S
C1359 C1358 1.385 . S
C1359 C1360 1.389 . S
C1360 C1359 1.389 . S
C1360 C1361 1.387 . S
C1361 H1346 0.930 . S
C1361 C1356 1.390 . S
C1361 C1360 1.387 . S
H1362 C1374 0.930 . S
H1363 C1376 0.930 . S
H1364 C1377 0.930 . S
H1365 C1381 0.959 . S
H1366 C1381 0.959 . S
H1367 C1381 0.961 . S
H1368 C1382 0.971 . S
H1369 C1382 0.961 . S
H1370 C1382 0.959 . S
H1371 C1385 0.929 . S
H1372 C1386 0.931 . S
H1373 C1388 0.930 . S
C1374 H1362 0.930 . S
C1374 C1375 1.399 . S
C1374 C1379 1.399 . S
C1375 C1374 1.399 . S
C1375 C1376 1.376 . S
C1376 H1363 0.930 . S
C1376 C1375 1.376 . S
C1376 C1377 1.388 . S
C1377 H1364 0.930 . S
C1377 C1376 1.388 . S
C1377 C1378 1.390 . S
C1378 C1377 1.390 . S
C1378 C1379 1.394 . S
C1378 C1384 1.465 1_545 S
C1379 C1374 1.399 . S
C1379 C1378 1.394 . S
C1379 C1380 1.516 1_545 S
C1380 C1379 1.516 1_565 S
C1380 C1381 1.502 . S
C1380 C1382 1.561 . S
C1380 C1383 1.526 . S
C1381 H1365 0.959 . S
C1381 H1366 0.959 . S
C1381 H1367 0.961 . S
C1381 C1380 1.502 . S
C1382 H1368 0.971 . S
C1382 H1369 0.961 . S
C1382 H1370 0.959 . S
C1382 C1380 1.561 . S
C1383 C1380 1.526 . S
C1383 C1384 1.396 . S
C1383 C1388 1.390 . S
C1384 C1378 1.465 1_565 S
C1384 C1383 1.396 . S
C1384 C1385 1.399 . S
C1385 H1371 0.929 . S
C1385 C1384 1.399 . S
C1385 C1386 1.385 . S
C1386 H1372 0.931 . S
C1386 C1385 1.385 . S
C1386 C1387 1.389 . S
C1387 C1386 1.389 . S
C1387 C1388 1.387 . S
C1388 H1373 0.930 . S
C1388 C1383 1.390 . S
C1388 C1387 1.387 . S
H1389 C1401 0.930 . S
H1390 C1403 0.930 . S
H1391 C1404 0.930 . S
H1392 C1408 0.959 . S
H1393 C1408 0.959 . S
H1394 C1408 0.961 . S
H1395 C1409 0.960 . S
H1396 C1409 0.961 . S
H1397 C1409 0.959 . S
H1398 C1412 0.929 . S
H1399 C1413 0.931 . S
H1400 C1415 0.930 . S
C1401 H1389 0.930 . S
C1401 C1402 1.399 . S
C1401 C1406 1.399 . S
C1402 C1401 1.399 . S
C1402 C1403 1.376 . S
C1403 H1390 0.930 . S
C1403 C1402 1.376 . S
C1403 C1404 1.388 . S
C1404 H1391 0.930 . S
C1404 C1403 1.388 . S
C1404 C1405 1.390 . S
C1405 C1404 1.390 . S
C1405 C1406 1.394 . S
C1405 C1411 1.465 1_455 S
C1406 C1401 1.399 . S
C1406 C1405 1.394 . S
C1406 C1407 1.516 1_455 S
C1407 C1406 1.516 1_655 S
C1407 C1408 1.502 . S
C1407 C1409 1.561 . S
C1407 C1410 1.526 . S
C1408 H1392 0.959 . S
C1408 H1393 0.959 . S
C1408 H1394 0.961 . S
C1408 C1407 1.502 . S
C1409 H1395 0.960 . S
C1409 H1396 0.961 . S
C1409 H1397 0.959 . S
C1409 C1407 1.561 . S
C1410 C1407 1.526 . S
C1410 C1411 1.396 . S
C1410 C1415 1.390 . S
C1411 C1405 1.465 1_655 S
C1411 C1410 1.396 . S
C1411 C1412 1.399 . S
C1412 H1398 0.929 . S
C1412 C1411 1.399 . S
C1412 C1413 1.385 . S
C1413 H1399 0.931 . S
C1413 C1412 1.385 . S
C1413 C1414 1.389 . S
C1414 C1413 1.389 . S
C1414 C1415 1.387 . S
C1415 H1400 0.930 . S
C1415 C1410 1.390 . S
C1415 C1414 1.387 . S
H1416 C1428 0.930 . S
H1417 C1430 0.930 . S
H1418 C1431 0.930 . S
H1419 C1435 0.959 . S
H1420 C1435 0.959 . S
H1421 C1435 0.961 . S
H1422 C1436 0.960 . S
H1423 C1436 0.961 . S
H1424 C1436 0.959 . S
H1425 C1439 0.929 . S
H1426 C1440 0.931 . S
H1427 C1442 0.930 . S
C1428 H1416 0.930 . S
C1428 C1429 1.399 . S
C1428 C1433 1.399 . S
C1429 C1428 1.399 . S
C1429 C1430 1.376 . S
C1430 H1417 0.930 . S
C1430 C1429 1.376 . S
C1430 C1431 1.388 . S
C1431 H1418 0.930 . S
C1431 C1430 1.388 . S
C1431 C1432 1.390 . S
C1432 C1431 1.390 . S
C1432 C1433 1.394 . S
C1432 C1438 1.465 1_545 S
C1433 C1428 1.399 . S
C1433 C1432 1.394 . S
C1433 C1434 1.516 1_545 S
C1434 C1433 1.516 1_565 S
C1434 C1435 1.502 . S
C1434 C1436 1.561 . S
C1434 C1437 1.526 . S
C1435 H1419 0.959 . S
C1435 H1420 0.959 . S
C1435 H1421 0.961 . S
C1435 C1434 1.502 . S
C1436 H1422 0.960 . S
C1436 H1423 0.961 . S
C1436 H1424 0.959 . S
C1436 C1434 1.561 . S
C1437 C1434 1.526 . S
C1437 C1438 1.396 . S
C1437 C1442 1.390 . S
C1438 C1432 1.465 1_565 S
C1438 C1437 1.396 . S
C1438 C1439 1.399 . S
C1439 H1425 0.929 . S
C1439 C1438 1.399 . S
C1439 C1440 1.385 . S
C1440 H1426 0.931 . S
C1440 C1439 1.385 . S
C1440 C1441 1.389 . S
C1441 C1440 1.389 . S
C1441 C1442 1.387 . S
C1442 H1427 0.930 . S
C1442 C1437 1.390 . S
C1442 C1441 1.387 . S
H1443 C1455 0.930 . S
H1444 C1457 0.930 . S
H1445 C1458 0.930 . S
H1446 C1462 0.959 . S
H1447 C1462 0.959 . S
H1448 C1462 0.961 . S
H1449 C1463 0.960 . S
H1450 C1463 0.961 1_655 S
H1451 C1463 0.959 1_655 S
H1452 C1466 0.929 . S
H1453 C1467 0.931 . S
H1454 C1469 0.930 . S
C1455 H1443 0.930 . S
C1455 C1456 1.399 . S
C1455 C1460 1.399 . S
C1456 C1455 1.399 . S
C1456 C1457 1.376 . S
C1457 H1444 0.930 . S
C1457 C1456 1.376 . S
C1457 C1458 1.388 . S
C1458 H1445 0.930 . S
C1458 C1457 1.388 . S
C1458 C1459 1.390 . S
C1459 C1458 1.390 . S
C1459 C1460 1.394 . S
C1459 C1465 1.465 1_455 S
C1460 C1455 1.399 . S
C1460 C1459 1.394 . S
C1460 C1461 1.516 . S
C1461 C1460 1.516 . S
C1461 C1462 1.502 . S
C1461 C1463 1.561 . S
C1461 C1464 1.526 1_455 S
C1462 H1446 0.959 . S
C1462 H1447 0.959 . S
C1462 H1448 0.961 . S
C1462 C1461 1.502 . S
C1463 H1449 0.960 . S
C1463 H1450 0.961 1_455 S
C1463 H1451 0.959 1_455 S
C1463 C1461 1.561 . S
C1464 C1461 1.526 1_655 S
C1464 C1465 1.396 . S
C1464 C1469 1.390 . S
C1465 C1459 1.465 1_655 S
C1465 C1464 1.396 . S
C1465 C1466 1.399 . S
C1466 H1452 0.929 . S
C1466 C1465 1.399 . S
C1466 C1467 1.385 . S
C1467 H1453 0.931 . S
C1467 C1466 1.385 . S
C1467 C1468 1.389 . S
C1468 C1467 1.389 . S
C1468 C1469 1.387 . S
C1469 H1454 0.930 . S
C1469 C1464 1.390 . S
C1469 C1468 1.387 . S
H1470 C1482 0.930 . S
H1471 C1484 0.930 . S
H1472 C1485 0.930 . S
H1473 C1489 0.959 . S
H1474 C1489 0.959 . S
H1475 C1489 0.961 . S
H1476 C1490 0.960 . S
H1477 C1490 0.961 . S
H1478 C1490 0.959 . S
H1479 C1493 0.929 . S
H1480 C1494 0.931 . S
H1481 C1496 0.930 . S
C1482 H1470 0.930 . S
C1482 C1483 1.399 . S
C1482 C1487 1.399 . S
C1483 C1482 1.399 . S
C1483 C1484 1.376 . S
C1484 H1471 0.930 . S
C1484 C1483 1.376 . S
C1484 C1485 1.388 . S
C1485 H1472 0.930 . S
C1485 C1484 1.388 . S
C1485 C1486 1.390 . S
C1486 C1485 1.390 . S
C1486 C1487 1.394 . S
C1486 C1492 1.465 . S
C1487 C1482 1.399 . S
C1487 C1486 1.394 . S
C1487 C1488 1.516 . S
C1488 C1487 1.516 . S
C1488 C1489 1.502 . S
C1488 C1490 1.561 . S
C1488 C1491 1.526 . S
C1489 H1473 0.959 . S
C1489 H1474 0.959 . S
C1489 H1475 0.961 . S
C1489 C1488 1.502 . S
C1490 H1476 0.960 . S
C1490 H1477 0.961 . S
C1490 H1478 0.959 . S
C1490 C1488 1.561 . S
C1491 C1488 1.526 . S
C1491 C1492 1.396 . S
C1491 C1496 1.390 . S
C1492 C1486 1.465 . S
C1492 C1491 1.396 . S
C1492 C1493 1.399 . S
C1493 H1479 0.929 . S
C1493 C1492 1.399 . S
C1493 C1494 1.385 . S
C1494 H1480 0.931 . S
C1494 C1493 1.385 . S
C1494 C1495 1.389 . S
C1495 C1494 1.389 . S
C1495 C1496 1.387 . S
C1496 H1481 0.930 . S
C1496 C1491 1.390 . S
C1496 C1495 1.387 . S
H1497 C1509 0.930 . S
H1498 C1511 0.930 . S
H1499 C1512 0.930 . S
H1500 C1516 0.959 . S
H1501 C1516 0.959 . S
H1502 C1516 0.961 . S
H1503 C1517 0.960 . S
H1504 C1517 0.961 . S
H1505 C1517 0.959 . S
H1506 C1520 0.929 . S
H1507 C1521 0.931 . S
H1508 C1523 0.930 . S
C1509 H1497 0.930 . S
C1509 C1510 1.399 . S
C1509 C1514 1.399 . S
C1510 C1509 1.399 . S
C1510 C1511 1.376 . S
C1511 H1498 0.930 . S
C1511 C1510 1.376 . S
C1511 C1512 1.388 . S
C1512 H1499 0.930 . S
C1512 C1511 1.388 . S
C1512 C1513 1.390 . S
C1513 C1512 1.390 . S
C1513 C1514 1.394 . S
C1513 C1519 1.465 . S
C1514 C1509 1.399 . S
C1514 C1513 1.394 . S
C1514 C1515 1.516 . S
C1515 C1514 1.516 . S
C1515 C1516 1.502 . S
C1515 C1517 1.561 . S
C1515 C1518 1.526 . S
C1516 H1500 0.959 . S
C1516 H1501 0.959 . S
C1516 H1502 0.961 . S
C1516 C1515 1.502 . S
C1517 H1503 0.960 . S
C1517 H1504 0.961 . S
C1517 H1505 0.959 . S
C1517 C1515 1.561 . S
C1518 C1515 1.526 . S
C1518 C1519 1.396 . S
C1518 C1523 1.390 . S
C1519 C1513 1.465 . S
C1519 C1518 1.396 . S
C1519 C1520 1.399 . S
C1520 H1506 0.929 . S
C1520 C1519 1.399 . S
C1520 C1521 1.385 . S
C1521 H1507 0.931 . S
C1521 C1520 1.385 . S
C1521 C1522 1.389 . S
C1522 C1521 1.389 . S
C1522 C1523 1.387 . S
C1523 H1508 0.930 . S
C1523 C1518 1.390 . S
C1523 C1522 1.387 . S
H1524 C1536 0.930 . S
H1525 C1538 0.930 . S
H1526 C1539 0.930 . S
H1527 C1543 0.959 . S
H1528 C1543 0.959 . S
H1529 C1543 0.961 . S
H1530 C1544 0.960 . S
H1531 C1544 0.961 . S
H1532 C1544 0.959 . S
H1533 C1547 0.929 . S
H1534 C1548 0.931 . S
H1535 C1550 0.930 . S
C1536 H1524 0.930 . S
C1536 C1537 1.399 . S
C1536 C1541 1.399 . S
C1537 C1536 1.399 . S
C1537 C1538 1.376 . S
C1538 H1525 0.930 . S
C1538 C1537 1.376 . S
C1538 C1539 1.388 . S
C1539 H1526 0.930 . S
C1539 C1538 1.388 . S
C1539 C1540 1.390 . S
C1540 C1539 1.390 . S
C1540 C1541 1.394 . S
C1540 C1546 1.465 . S
C1541 C1536 1.399 . S
C1541 C1540 1.394 . S
C1541 C1542 1.516 . S
C1542 C1541 1.516 . S
C1542 C1543 1.502 . S
C1542 C1544 1.561 . S
C1542 C1545 1.526 . S
C1543 H1527 0.959 . S
C1543 H1528 0.959 . S
C1543 H1529 0.961 . S
C1543 C1542 1.502 . S
C1544 H1530 0.960 . S
C1544 H1531 0.961 . S
C1544 H1532 0.959 . S
C1544 C1542 1.561 . S
C1545 C1542 1.526 . S
C1545 C1546 1.396 . S
C1545 C1550 1.390 . S
C1546 C1540 1.465 . S
C1546 C1545 1.396 . S
C1546 C1547 1.399 . S
C1547 H1533 0.929 . S
C1547 C1546 1.399 . S
C1547 C1548 1.385 . S
C1548 H1534 0.931 . S
C1548 C1547 1.385 . S
C1548 C1549 1.389 . S
C1549 C1548 1.389 . S
C1549 C1550 1.387 . S
C1550 H1535 0.930 . S
C1550 C1545 1.390 . S
C1550 C1549 1.387 . S
H1551 C1563 0.930 . S
H1552 C1565 0.930 . S
H1553 C1566 0.930 . S
H1554 C1570 0.959 1_556 S
H1555 C1570 0.959 1_556 S
H1556 C1570 0.961 . S
H1557 C1571 0.960 . S
H1558 C1571 0.961 . S
H1559 C1571 0.959 . S
H1560 C1574 0.929 . S
H1561 C1575 0.931 . S
H1562 C1577 0.930 . S
C1563 H1551 0.930 . S
C1563 C1564 1.399 . S
C1563 C1568 1.399 . S
C1564 C1563 1.399 . S
C1564 C1565 1.376 . S
C1565 H1552 0.930 . S
C1565 C1564 1.376 . S
C1565 C1566 1.388 . S
C1566 H1553 0.930 . S
C1566 C1565 1.388 . S
C1566 C1567 1.390 . S
C1567 C1566 1.390 . S
C1567 C1568 1.394 . S
C1567 C1573 1.465 1_554 S
C1568 C1563 1.399 . S
C1568 C1567 1.394 . S
C1568 C1569 1.516 . S
C1569 C1568 1.516 . S
C1569 C1570 1.502 . S
C1569 C1571 1.561 . S
C1569 C1572 1.526 1_554 S
C1570 H1554 0.959 1_554 S
C1570 H1555 0.959 1_554 S
C1570 H1556 0.961 . S
C1570 C1569 1.502 . S
C1571 H1557 0.960 . S
C1571 H1558 0.961 . S
C1571 H1559 0.959 . S
C1571 C1569 1.561 . S
C1572 C1569 1.526 1_556 S
C1572 C1573 1.396 . S
C1572 C1577 1.390 . S
C1573 C1567 1.465 1_556 S
C1573 C1572 1.396 . S
C1573 C1574 1.399 . S
C1574 H1560 0.929 . S
C1574 C1573 1.399 . S
C1574 C1575 1.385 . S
C1575 H1561 0.931 . S
C1575 C1574 1.385 . S
C1575 C1576 1.389 . S
C1576 C1575 1.389 . S
C1576 C1577 1.387 . S
C1577 H1562 0.930 . S
C1577 C1572 1.390 . S
C1577 C1576 1.387 . S
H1578 C1590 0.930 . S
H1579 C1592 0.930 . S
H1580 C1593 0.930 . S
H1581 C1597 0.959 . S
H1582 C1597 0.959 . S
H1583 C1597 0.961 . S
H1584 C1598 0.960 . S
H1585 C1598 0.961 . S
H1586 C1598 0.959 . S
H1587 C1601 0.929 . S
H1588 C1602 0.931 . S
H1589 C1604 0.930 . S
C1590 H1578 0.930 . S
C1590 C1591 1.399 . S
C1590 C1595 1.399 . S
C1591 C1590 1.399 . S
C1591 C1592 1.376 . S
C1592 H1579 0.930 . S
C1592 C1591 1.376 . S
C1592 C1593 1.388 . S
C1593 H1580 0.930 . S
C1593 C1592 1.388 . S
C1593 C1594 1.390 . S
C1594 C1593 1.390 . S
C1594 C1595 1.394 . S
C1594 C1600 1.465 . S
C1595 C1590 1.399 . S
C1595 C1594 1.394 . S
C1595 C1596 1.516 . S
C1596 C1595 1.516 . S
C1596 C1597 1.502 . S
C1596 C1598 1.561 . S
C1596 C1599 1.526 . S
C1597 H1581 0.959 . S
C1597 H1582 0.959 . S
C1597 H1583 0.961 . S
C1597 C1596 1.502 . S
C1598 H1584 0.960 . S
C1598 H1585 0.961 . S
C1598 H1586 0.959 . S
C1598 C1596 1.561 . S
C1599 C1596 1.526 . S
C1599 C1600 1.396 . S
C1599 C1604 1.390 . S
C1600 C1594 1.465 . S
C1600 C1599 1.396 . S
C1600 C1601 1.399 . S
C1601 H1587 0.929 . S
C1601 C1600 1.399 . S
C1601 C1602 1.385 . S
C1602 H1588 0.931 . S
C1602 C1601 1.385 . S
C1602 C1603 1.389 . S
C1603 C1602 1.389 . S
C1603 C1604 1.387 . S
C1604 H1589 0.930 . S
C1604 C1599 1.390 . S
C1604 C1603 1.387 . S
H1605 C1617 0.930 . S
H1606 C1619 0.930 . S
H1607 C1620 0.930 . S
H1608 C1624 0.959 . S
H1609 C1624 0.959 . S
H1610 C1624 0.961 . S
H1611 C1625 0.960 . S
H1612 C1625 0.961 . S
H1613 C1625 0.959 . S
H1614 C1628 0.929 . S
H1615 C1629 0.931 . S
H1616 C1631 0.930 . S
C1617 H1605 0.930 . S
C1617 C1618 1.399 . S
C1617 C1622 1.399 . S
C1618 C1617 1.399 . S
C1618 C1619 1.376 . S
C1619 H1606 0.930 . S
C1619 C1618 1.376 . S
C1619 C1620 1.388 . S
C1620 H1607 0.930 . S
C1620 C1619 1.388 . S
C1620 C1621 1.390 . S
C1621 C1620 1.390 . S
C1621 C1622 1.394 . S
C1621 C1627 1.465 1_554 S
C1622 C1617 1.399 . S
C1622 C1621 1.394 . S
C1622 C1623 1.516 1_554 S
C1623 C1622 1.516 1_556 S
C1623 C1624 1.502 . S
C1623 C1625 1.561 . S
C1623 C1626 1.526 . S
C1624 H1608 0.959 . S
C1624 H1609 0.959 . S
C1624 H1610 0.961 . S
C1624 C1623 1.502 . S
C1625 H1611 0.960 . S
C1625 H1612 0.961 . S
C1625 H1613 0.959 . S
C1625 C1623 1.561 . S
C1626 C1623 1.526 . S
C1626 C1627 1.396 . S
C1626 C1631 1.390 . S
C1627 C1621 1.465 1_556 S
C1627 C1626 1.396 . S
C1627 C1628 1.399 . S
C1628 H1614 0.929 . S
C1628 C1627 1.399 . S
C1628 C1629 1.385 . S
C1629 H1615 0.931 . S
C1629 C1628 1.385 . S
C1629 C1630 1.389 . S
C1630 C1629 1.389 . S
C1630 C1631 1.387 . S
C1631 H1616 0.930 . S
C1631 C1626 1.390 . S
C1631 C1630 1.387 . S
C349 C57 1.463 . S
C361 C13 1.479 . S
C376 C15 1.453 . S
C388 C71 1.443 . S
C403 C97 1.472 . S
C415 C40 1.449 . S
C430 C99 1.457 . S
C442 C43 1.442 . S
C457 C208 1.458 . S
C469 C112 1.442 . S
C484 C210 1.472 . S
C496 C127 1.449 . S
C511 C141 1.463 . S
C523 C168 1.479 . S
C538 C182 1.441 . S
C550 C154 1.457 . S
C565 C224 1.465 . S
C577 C295 1.479 . S
C592 C251 1.448 . S
C604 C266 1.445 . S
C619 C252 1.458 . S
C631 C293 1.442 . S
C646 C320 1.467 . S
C658 C322 1.444 . S
C673 C55 1.451 . S
C685 C83 1.443 . S
C700 C1 1.479 . S
C712 C85 1.471 . S
C727 C111 1.450 . S
C739 C27 1.442 . S
C754 C28 1.442 . S
C766 C69 1.449 . S
C781 C334 1.443 . S
C793 C264 1.453 . S
C808 C278 1.457 . S
C820 C307 1.470 . S
C835 C281 1.448 . S
C847 C308 1.443 . S
C862 C239 1.466 . S
C874 C236 1.477 . S
C889 C166 1.451 . S
C901 C139 1.465 . S
C916 C222 1.478 . S
C928 C194 1.471 . S
C943 C180 1.479 . S
C955 C196 1.473 . S
C970 C153 1.479 . S
C982 C124 1.475 . S
C997 C321 1.488 . S
C1009 C12 1.487 . S
C1024 C225 1.488 . S
C1036 C14 1.479 . S
C1051 C323 1.487 . S
C1063 C41 1.487 . S
C1078 C294 1.489 . S
C1090 C42 1.485 . S
C1105 C253 1.489 . S
C1117 C56 1.480 . S
C1132 C70 1.482 . S
C1144 C267 1.479 . S
C1159 C292 1.485 . S
C1171 C96 1.489 . S
C1186 C250 1.479 . S
C1198 C98 1.489 . S
C1213 C183 1.488 . S
C1225 C113 1.478 . S
C1240 C209 1.489 . S
C1252 C126 1.486 . S
C1267 C211 1.490 . S
C1279 C140 1.482 . S
C1294 C155 1.477 . S
C1306 C169 1.485 . S
C1321 C82 1.488 . S
C1333 C152 1.489 . S
C1348 C84 1.483 . S
C1360 C167 1.489 . S
C1375 C125 1.480 . S
C1387 C110 1.487 . S
C1402 C68 1.481 . S
C1414 C138 1.489 . S
C1429 C197 1.481 . S
C1441 C54 1.488 . S
C1456 C0 1.489 . S
C1468 C223 1.483 . S
C1483 C181 1.488 . S
C1495 C26 1.480 . S
C1510 C29 1.488 . S
C1522 C195 1.482 . S
C1537 C238 1.479 . S
C1549 C335 1.478 . S
C1564 C306 1.480 . S
C1576 C265 1.478 . S
C1591 C309 1.482 . S
C1603 C279 1.478 . S
C1618 C237 1.480 . S
C1630 C280 1.487 . S
