# Generated by pormake.
# Topology unp, (4)-cn, num edge types: 1
# Building blocks:
#     Node 0, Type 0, BuildingBlock: UXUYUI_clean_sbu_0, # of connection points: 4
#     Node 1, Type 0, BuildingBlock: UXUYUI_clean_sbu_0, # of connection points: 4
#     Node 2, Type 0, BuildingBlock: UXUYUI_clean_sbu_0, # of connection points: 4
#     Node 3, Type 0, BuildingBlock: UXUYUI_clean_sbu_0, # of connection points: 4
#     Node 4, Type 0, BuildingBlock: UXUYUI_clean_sbu_0, # of connection points: 4
#     Node 5, Type 0, BuildingBlock: UXUYUI_clean_sbu_0, # of connection points: 4
#     Node 6, Type 0, BuildingBlock: UXUYUI_clean_sbu_0, # of connection points: 4
#     Node 7, Type 0, BuildingBlock: UXUYUI_clean_sbu_0, # of connection points: 4
#     Node 8, Type 0, BuildingBlock: UXUYUI_clean_sbu_0, # of connection points: 4
#     Node 9, Type 0, BuildingBlock: UXUYUI_clean_sbu_0, # of connection points: 4
#     Node 10, Type 0, BuildingBlock: UXUYUI_clean_sbu_0, # of connection points: 4
#     Node 11, Type 0, BuildingBlock: UXUYUI_clean_sbu_0, # of connection points: 4
#     Node 12, Type 0, BuildingBlock: UXUYUI_clean_sbu_0, # of connection points: 4
#     Node 13, Type 0, BuildingBlock: UXUYUI_clean_sbu_0, # of connection points: 4
#     Node 14, Type 0, BuildingBlock: UXUYUI_clean_sbu_0, # of connection points: 4
#     Node 15, Type 0, BuildingBlock: UXUYUI_clean_sbu_0, # of connection points: 4
#     Node 16, Type 0, BuildingBlock: UXUYUI_clean_sbu_0, # of connection points: 4
#     Node 17, Type 0, BuildingBlock: UXUYUI_clean_sbu_0, # of connection points: 4
#     Edge 18, Type (0, 0), BuildingBlock: CIFDUS_clean_linker_0, # of connection points: 2
#     Edge 19, Type (0, 0), BuildingBlock: CIFDUS_clean_linker_0, # of connection points: 2
#     Edge 20, Type (0, 0), BuildingBlock: CIFDUS_clean_linker_0, # of connection points: 2
#     Edge 21, Type (0, 0), BuildingBlock: CIFDUS_clean_linker_0, # of connection points: 2
#     Edge 22, Type (0, 0), BuildingBlock: CIFDUS_clean_linker_0, # of connection points: 2
#     Edge 23, Type (0, 0), BuildingBlock: CIFDUS_clean_linker_0, # of connection points: 2
#     Edge 24, Type (0, 0), BuildingBlock: CIFDUS_clean_linker_0, # of connection points: 2
#     Edge 25, Type (0, 0), BuildingBlock: CIFDUS_clean_linker_0, # of connection points: 2
#     Edge 26, Type (0, 0), BuildingBlock: CIFDUS_clean_linker_0, # of connection points: 2
#     Edge 27, Type (0, 0), BuildingBlock: CIFDUS_clean_linker_0, # of connection points: 2
#     Edge 28, Type (0, 0), BuildingBlock: CIFDUS_clean_linker_0, # of connection points: 2
#     Edge 29, Type (0, 0), BuildingBlock: CIFDUS_clean_linker_0, # of connection points: 2
#     Edge 30, Type (0, 0), BuildingBlock: CIFDUS_clean_linker_0, # of connection points: 2
#     Edge 31, Type (0, 0), BuildingBlock: CIFDUS_clean_linker_0, # of connection points: 2
#     Edge 32, Type (0, 0), BuildingBlock: CIFDUS_clean_linker_0, # of connection points: 2
#     Edge 33, Type (0, 0), BuildingBlock: CIFDUS_clean_linker_0, # of connection points: 2
#     Edge 34, Type (0, 0), BuildingBlock: CIFDUS_clean_linker_0, # of connection points: 2
#     Edge 35, Type (0, 0), BuildingBlock: CIFDUS_clean_linker_0, # of connection points: 2
#     Edge 36, Type (0, 0), BuildingBlock: CIFDUS_clean_linker_0, # of connection points: 2
#     Edge 37, Type (0, 0), BuildingBlock: CIFDUS_clean_linker_0, # of connection points: 2
#     Edge 38, Type (0, 0), BuildingBlock: CIFDUS_clean_linker_0, # of connection points: 2
#     Edge 39, Type (0, 0), BuildingBlock: CIFDUS_clean_linker_0, # of connection points: 2
#     Edge 40, Type (0, 0), BuildingBlock: CIFDUS_clean_linker_0, # of connection points: 2
#     Edge 41, Type (0, 0), BuildingBlock: CIFDUS_clean_linker_0, # of connection points: 2
#     Edge 42, Type (0, 0), BuildingBlock: CIFDUS_clean_linker_0, # of connection points: 2
#     Edge 43, Type (0, 0), BuildingBlock: CIFDUS_clean_linker_0, # of connection points: 2
#     Edge 44, Type (0, 0), BuildingBlock: CIFDUS_clean_linker_0, # of connection points: 2
#     Edge 45, Type (0, 0), BuildingBlock: CIFDUS_clean_linker_0, # of connection points: 2
#     Edge 46, Type (0, 0), BuildingBlock: CIFDUS_clean_linker_0, # of connection points: 2
#     Edge 47, Type (0, 0), BuildingBlock: CIFDUS_clean_linker_0, # of connection points: 2
#     Edge 48, Type (0, 0), BuildingBlock: CIFDUS_clean_linker_0, # of connection points: 2
#     Edge 49, Type (0, 0), BuildingBlock: CIFDUS_clean_linker_0, # of connection points: 2
#     Edge 50, Type (0, 0), BuildingBlock: CIFDUS_clean_linker_0, # of connection points: 2
#     Edge 51, Type (0, 0), BuildingBlock: CIFDUS_clean_linker_0, # of connection points: 2
#     Edge 52, Type (0, 0), BuildingBlock: CIFDUS_clean_linker_0, # of connection points: 2
#     Edge 53, Type (0, 0), BuildingBlock: CIFDUS_clean_linker_0, # of connection points: 2
# Relax obj value: 0.501
# Max RMSD: 0.229
# Mean RMSD: 0.224
data_MOF--net-unp--node1-UXUYUI_clean_sbu_0--edge1-CIFDUS_clean_linker_0
_symmetry_space_group_name_H-M    P1
_symmetry_Int_Tables_number       1
_symmetry_cell_setting            triclinic
loop_
_symmetry_equiv_pos_as_xyz
'x, y, z'
_cell_length_a     57.552233
_cell_length_b     57.555617
_cell_length_c     95.226137
_cell_angle_alpha  90.228977
_cell_angle_beta   89.771496
_cell_angle_gamma 120.51173
loop_
_atom_site_label
_atom_site_type_symbol
_atom_site_fract_x
_atom_site_fract_y
_atom_site_fract_z
_atom_type_partial_charge
Li0 Li 0.18569 0.21493 0.092 0.0
Li1 Li 0.19669 0.22578 0.11612 0.0
Li2 Li 0.17345 0.17957 0.11021 0.0
Li3 Li 0.15025 0.20719 0.11069 0.0
C4 C 0.2212 0.19675 0.09489 0.0
N5 N 0.24398 0.17582 0.07697 0.0
C6 C 0.24924 0.20866 0.09405 0.0
C7 C 0.20483 0.17431 0.08653 0.0
C8 C 0.26035 0.19776 0.08495 0.0
C9 C 0.21668 0.16398 0.07758 0.0
C10 C 0.1953 0.26826 0.10563 0.0
C11 C 0.19924 0.30907 0.11501 0.0
N12 N 0.22537 0.32306 0.11064 0.0
C13 C 0.22209 0.28305 0.1011 0.0
C14 C 0.18367 0.28133 0.11255 0.0
C15 C 0.237 0.31074 0.1038 0.0
C16 C 0.17601 0.21381 0.06297 0.0
N17 N 0.19564 0.22347 0.07289 0.0
C18 C 0.22996 0.24005 0.05524 0.0
C19 C 0.22222 0.23709 0.06934 0.0
C20 C 0.21009 0.2287 0.04481 0.0
C21 C 0.18282 0.21598 0.04877 0.0
H22 H 0.15505 0.20357 0.06611 0.0
H23 H 0.23741 0.24476 0.07746 0.0
C24 C 0.24652 0.24649 0.12869 0.0
N25 N 0.22531 0.25061 0.12817 0.0
C26 C 0.26865 0.26259 0.13713 0.0
C27 C 0.24663 0.28672 0.14479 0.0
C28 C 0.22484 0.27012 0.13609 0.0
C29 C 0.26899 0.2831 0.14529 0.0
H30 H 0.24602 0.23025 0.12275 0.0
H31 H 0.20743 0.27254 0.13585 0.0
C32 C 0.12855 0.15959 0.09009 0.0
N33 N 0.08481 0.11416 0.07871 0.0
C34 C 0.10377 0.14674 0.09715 0.0
C35 C 0.13094 0.14928 0.07718 0.0
C36 C 0.08194 0.12383 0.09124 0.0
C37 C 0.10864 0.1263 0.07162 0.0
C38 C 0.1748 0.20196 0.13964 0.0
C39 C 0.19084 0.19208 0.14477 0.0
C40 C 0.16941 0.21854 0.14813 0.0
C41 C 0.20142 0.19914 0.15832 0.0
C42 C 0.18032 0.22509 0.16164 0.0
N43 N 0.19599 0.21537 0.1664 0.0
C44 C 0.18935 0.14051 0.11552 0.0
C45 C 0.1423 0.12331 0.11419 0.0
C46 C 0.1851 0.1144 0.1167 0.0
N47 N 0.16806 0.14437 0.11379 0.0
C48 C 0.13714 0.09696 0.11513 0.0
C49 C 0.15873 0.09229 0.11608 0.0
H50 H 0.20967 0.15762 0.11565 0.0
H51 H 0.12571 0.12688 0.11364 0.0
C52 C 0.10313 0.20507 0.10155 0.0
N53 N 0.11611 0.20405 0.11321 0.0
C54 C 0.07554 0.19588 0.10206 0.0
C55 C 0.07581 0.18697 0.12683 0.0
C56 C 0.10331 0.19598 0.12579 0.0
C57 C 0.06128 0.18569 0.11471 0.0
H58 H 0.11376 0.211 0.09162 0.0
H59 H 0.11396 0.19476 0.13482 0.0
O60 O 0.21008 0.20777 0.10345 0.0
O61 O 0.18036 0.24118 0.1031 0.0
O62 O 0.15004 0.18251 0.09558 0.0
O63 O 0.16486 0.19579 0.12627 0.0
H64 H 0.26234 0.22635 0.10023 0.0
H65 H 0.1832 0.16481 0.08706 0.0
H66 H 0.28201 0.20681 0.08419 0.0
H67 H 0.20416 0.14654 0.0711 0.0
H68 H 0.19057 0.31946 0.12042 0.0
H69 H 0.23133 0.27318 0.09572 0.0
H70 H 0.16289 0.27011 0.11605 0.0
H71 H 0.25783 0.32243 0.10046 0.0
H72 H 0.25119 0.24996 0.05257 0.0
H73 H 0.16697 0.20734 0.04097 0.0
H74 H 0.2851 0.25856 0.13753 0.0
H75 H 0.24604 0.30219 0.15103 0.0
H76 H 0.1015 0.15393 0.10726 0.0
H77 H 0.14975 0.15886 0.07142 0.0
H78 H 0.06275 0.11367 0.09666 0.0
H79 H 0.11028 0.11815 0.06166 0.0
H80 H 0.19535 0.17937 0.13829 0.0
H81 H 0.1574 0.22671 0.14425 0.0
H82 H 0.21402 0.19179 0.1624 0.0
H83 H 0.17649 0.23806 0.16829 0.0
H84 H 0.20222 0.1115 0.11756 0.0
H85 H 0.11647 0.08036 0.11499 0.0
H86 H 0.06524 0.19496 0.0924 0.0
H87 H 0.06579 0.17975 0.13685 0.0
Li88 Li 0.82033 0.00075 0.10107 0.0
Li89 Li 0.79606 0.95215 0.09926 0.0
Li90 Li 0.7876 0.9796 0.08225 0.0
Li91 Li 0.77363 0.97583 0.10735 0.0
C92 C 0.84317 0.98874 0.07693 0.0
N93 N 0.88776 0.00845 0.05949 0.0
C94 C 0.86187 0.98026 0.07859 0.0
C95 C 0.84706 0.00703 0.06627 0.0
C96 C 0.88431 0.99053 0.06972 0.0
C97 C 0.86975 0.01682 0.0576 0.0
C98 C 0.82172 0.97148 0.12462 0.0
C99 C 0.83481 0.96055 0.14654 0.0
N100 N 0.85807 0.96481 0.14046 0.0
C101 C 0.84573 0.97566 0.11861 0.0
C102 C 0.81617 0.96379 0.13871 0.0
C103 C 0.86386 0.97224 0.12678 0.0
C104 C 0.86092 0.03823 0.11977 0.0
N105 N 0.85424 0.03259 0.10597 0.0
C106 C 0.89672 0.0703 0.0991 0.0
C107 C 0.87117 0.04885 0.09573 0.0
C108 C 0.9049 0.07526 0.11319 0.0
C109 C 0.88637 0.05935 0.12363 0.0
H110 H 0.84672 0.02599 0.12782 0.0
H111 H 0.86505 0.04515 0.08492 0.0
C112 C 0.80868 0.91441 0.08909 0.0
N113 N 0.79956 0.92115 0.10068 0.0
C114 C 0.81692 0.89548 0.09 0.0
C115 C 0.80428 0.8893 0.11453 0.0
C116 C 0.79628 0.90837 0.11314 0.0
C117 C 0.81563 0.88333 0.10298 0.0
H118 H 0.81096 0.92486 0.0793 0.0
H119 H 0.78869 0.91389 0.12217 0.0
C120 C 0.80408 0.03521 0.0973 0.0
N121 N 0.83123 0.09025 0.10174 0.0
C122 C 0.805 0.04549 0.11074 0.0
C123 C 0.8168 0.05286 0.0861 0.0
C124 C 0.81889 0.0734 0.11277 0.0
C125 C 0.83046 0.08064 0.08857 0.0
C126 C 0.74021 0.92256 0.09805 0.0
C127 C 0.71991 0.90396 0.0892 0.0
C128 C 0.73976 0.91661 0.1123 0.0
C129 C 0.69945 0.87966 0.09476 0.0
C130 C 0.71897 0.89209 0.11746 0.0
N131 N 0.69941 0.87427 0.10866 0.0
C132 C 0.78549 0.96915 0.0535 0.0
C133 C 0.76975 0.99874 0.05979 0.0
C134 C 0.7838 0.97372 0.03929 0.0
N135 N 0.77928 0.98226 0.06337 0.0
C136 C 0.76728 0.00353 0.04565 0.0
C137 C 0.77511 0.9915 0.03526 0.0
H138 H 0.79302 0.95617 0.05672 0.0
H139 H 0.76504 0.00891 0.06791 0.0
C140 C 0.75204 0.97839 0.13332 0.0
N141 N 0.74754 0.97607 0.11927 0.0
C142 C 0.73561 0.98312 0.14223 0.0
C143 C 0.70956 0.9819 0.12207 0.0
C144 C 0.72649 0.97709 0.11354 0.0
C145 C 0.71459 0.98582 0.13657 0.0
H146 H 0.76915 0.97783 0.13752 0.0
H147 H 0.72371 0.97551 0.10228 0.0
O148 O 0.82061 0.97825 0.08527 0.0
O149 O 0.80328 0.974 0.11672 0.0
O150 O 0.79123 0.00797 0.09519 0.0
O151 O 0.76039 0.94638 0.0927 0.0
H152 H 0.85908 0.96578 0.08659 0.0
H153 H 0.83305 0.01409 0.06487 0.0
H154 H 0.89895 0.98417 0.07092 0.0
H155 H 0.87306 0.03114 0.04939 0.0
H156 H 0.83073 0.95456 0.15744 0.0
H157 H 0.85039 0.98166 0.10778 0.0
H158 H 0.79754 0.96008 0.14352 0.0
H159 H 0.88254 0.97548 0.12223 0.0
H160 H 0.91028 0.08215 0.0907 0.0
H161 H 0.89165 0.06292 0.13465 0.0
H162 H 0.82575 0.89172 0.08084 0.0
H163 H 0.80253 0.88007 0.12467 0.0
H164 H 0.79537 0.03206 0.11952 0.0
H165 H 0.81638 0.04517 0.07566 0.0
H166 H 0.81991 0.08167 0.12312 0.0
H167 H 0.84053 0.09455 0.08002 0.0
H168 H 0.72 0.90827 0.07813 0.0
H169 H 0.75528 0.93071 0.11933 0.0
H170 H 0.68361 0.86507 0.08803 0.0
H171 H 0.71839 0.88723 0.12847 0.0
H172 H 0.78983 0.96399 0.03151 0.0
H173 H 0.7606 0.01743 0.04287 0.0
H174 H 0.73999 0.98573 0.15337 0.0
H175 H 0.69378 0.98412 0.11727 0.0
Li176 Li 0.98908 0.81559 0.10782 0.0
Li177 Li 0.0401 0.84347 0.10724 0.0
Li178 Li 0.01399 0.80492 0.09013 0.0
Li179 Li 0.01588 0.79736 0.11457 0.0
C180 C 0.00834 0.85844 0.08803 0.0
N181 N 0.99874 0.89845 0.07905 0.0
C182 C 0.01589 0.88122 0.09638 0.0
C183 C 0.99611 0.85618 0.07504 0.0
C184 C 0.01082 0.90117 0.09168 0.0
C185 C 0.99135 0.87657 0.07071 0.0
C186 C 0.01456 0.82268 0.13719 0.0
C187 C 0.03717 0.82233 0.15838 0.0
N188 N 0.01291 0.80863 0.16503 0.0
C189 C 0.98987 0.80878 0.14424 0.0
C190 C 0.03844 0.82968 0.14431 0.0
C191 C 0.98946 0.8018 0.15832 0.0
C192 C 0.93235 0.80028 0.10895 0.0
N193 N 0.9584 0.81938 0.11174 0.0
C194 C 0.94455 0.84989 0.11982 0.0
C195 C 0.96455 0.8434 0.11761 0.0
C196 C 0.91773 0.83124 0.11621 0.0
C197 C 0.91164 0.8059 0.11101 0.0
H198 H 0.92741 0.78073 0.10504 0.0
H199 H 0.98518 0.85777 0.12037 0.0
C200 C 0.08189 0.89113 0.09618 0.0
N201 N 0.06928 0.87928 0.10841 0.0
C202 C 0.09835 0.9191 0.09544 0.0
C203 C 0.08999 0.92188 0.12013 0.0
C204 C 0.07359 0.89383 0.12038 0.0
C205 C 0.10167 0.93489 0.10739 0.0
H206 H 0.07758 0.879 0.08678 0.0
H207 H 0.06266 0.88392 0.12985 0.0
C208 C 0.96084 0.76525 0.09439 0.0
N209 N 0.91558 0.73615 0.07789 0.0
C210 C 0.94296 0.73797 0.09714 0.0
C211 C 0.95575 0.77766 0.0832 0.0
C212 C 0.92015 0.72362 0.08871 0.0
C213 C 0.93277 0.76263 0.07499 0.0
C214 C 0.0595 0.79981 0.10121 0.0
C215 C 0.04515 0.77255 0.0975 0.0
C216 C 0.08661 0.81185 0.10504 0.0
C217 C 0.05821 0.75767 0.09773 0.0
C218 C 0.09895 0.79629 0.10513 0.0
N219 N 0.08461 0.76975 0.10151 0.0
C220 C 0.0245 0.81563 0.06168 0.0
C221 C 0.00186 0.76886 0.06681 0.0
C222 C 0.02192 0.81026 0.04731 0.0
N223 N 0.01393 0.79504 0.07106 0.0
C224 C 0.99909 0.76256 0.0525 0.0
C225 C 0.0086 0.78343 0.04258 0.0
H226 H 0.03414 0.83624 0.06539 0.0
H227 H 0.99344 0.75286 0.07451 0.0
C228 C 0.98998 0.75439 0.1324 0.0
N229 N 0.01531 0.77266 0.12804 0.0
C230 C 0.98605 0.73661 0.14322 0.0
C231 C 0.03437 0.75585 0.14458 0.0
C232 C 0.03743 0.77375 0.13385 0.0
C233 C 0.0084 0.73737 0.14946 0.0
H234 H 0.97283 0.75434 0.12777 0.0
H235 H 0.0574 0.78895 0.13051 0.0
O236 O 0.01352 0.83882 0.09238 0.0
O237 O 0.01529 0.82897 0.1233 0.0
O238 O 0.9836 0.77927 0.10237 0.0
O239 O 0.04703 0.81464 0.10122 0.0
H240 H 0.02531 0.88339 0.10646 0.0
H241 H 0.99044 0.83898 0.06828 0.0
H242 H 0.01647 0.91882 0.09808 0.0
H243 H 0.98186 0.87503 0.06069 0.0
H244 H 0.05545 0.82739 0.164 0.0
H245 H 0.97121 0.80315 0.13885 0.0
H246 H 0.05769 0.84024 0.13895 0.0
H247 H 0.97049 0.79085 0.16389 0.0
H248 H 0.95026 0.86969 0.12387 0.0
H249 H 0.89112 0.79064 0.10845 0.0
H250 H 0.10714 0.92837 0.08544 0.0
H251 H 0.09171 0.93333 0.12951 0.0
H252 H 0.94672 0.72796 0.10568 0.0
H253 H 0.96932 0.79866 0.08092 0.0
H254 H 0.90613 0.70251 0.09073 0.0
H255 H 0.9286 0.77204 0.06631 0.0
H256 H 0.02407 0.76291 0.09468 0.0
H257 H 0.09793 0.83295 0.10797 0.0
H258 H 0.04733 0.73651 0.09495 0.0
H259 H 0.1199 0.8053 0.1081 0.0
H260 H 0.02982 0.82689 0.03997 0.0
H261 H 0.98858 0.74163 0.04922 0.0
H262 H 0.96575 0.72253 0.14678 0.0
H263 H 0.052 0.75699 0.14932 0.0
Li264 Li 0.23134 0.19966 0.89207 0.0
Li265 Li 0.21745 0.18738 0.91648 0.0
Li266 Li 0.2046 0.15273 0.89818 0.0
Li267 Li 0.18415 0.18106 0.89927 0.0
C268 C 0.26816 0.18996 0.90364 0.0
N269 N 0.32333 0.21373 0.90043 0.0
C270 C 0.28553 0.20783 0.91383 0.0
C271 C 0.27882 0.18391 0.89191 0.0
C272 C 0.31337 0.21969 0.91199 0.0
C273 C 0.30677 0.19623 0.89045 0.0
C274 C 0.20612 0.23213 0.90347 0.0
C275 C 0.17756 0.24921 0.91109 0.0
N276 N 0.18339 0.26378 0.89904 0.0
C277 C 0.21184 0.24729 0.89118 0.0
C278 C 0.18887 0.23312 0.91353 0.0
C279 C 0.20016 0.26318 0.88914 0.0
C280 C 0.25261 0.22563 0.86643 0.0
N281 N 0.25844 0.22596 0.88026 0.0
C282 C 0.29896 0.26857 0.87766 0.0
C283 C 0.28118 0.24671 0.88595 0.0
C284 C 0.29277 0.26953 0.86348 0.0
C285 C 0.2695 0.2473 0.85782 0.0
H286 H 0.23394 0.20935 0.86227 0.0
H287 H 0.28487 0.24696 0.89708 0.0
C288 C 0.23068 0.17855 0.94373 0.0
N289 N 0.22722 0.19596 0.93564 0.0
C290 C 0.23165 0.18118 0.95832 0.0
C291 C 0.22823 0.22114 0.95583 0.0
C292 C 0.22714 0.21762 0.9413 0.0
C293 C 0.22941 0.20214 0.96454 0.0
H294 H 0.2309 0.16162 0.93889 0.0
H295 H 0.22479 0.23136 0.9346 0.0
C296 C 0.19116 0.15437 0.87164 0.0
N297 N 0.17574 0.11722 0.85007 0.0
C298 C 0.16405 0.13913 0.86773 0.0
C299 C 0.21044 0.15089 0.86451 0.0
C300 C 0.15666 0.12041 0.85681 0.0
C301 C 0.20224 0.13195 0.85365 0.0
C302 C 0.17421 0.14322 0.92614 0.0
C303 C 0.17536 0.12011 0.92928 0.0
C304 C 0.16638 0.15506 0.93658 0.0
C305 C 0.1687 0.10927 0.9428 0.0
C306 C 0.15995 0.14365 0.94998 0.0
N307 N 0.16123 0.12118 0.95278 0.0
C308 C 0.21519 0.10935 0.89534 0.0
C309 C 0.17028 0.09896 0.89123 0.0
C310 C 0.20759 0.08226 0.8935 0.0
N311 N 0.19646 0.11702 0.89426 0.0
C312 C 0.16196 0.07191 0.88904 0.0
C313 C 0.18063 0.06322 0.89035 0.0
H314 H 0.23578 0.1241 0.898 0.0
H315 H 0.1557 0.1055 0.89091 0.0
C316 C 0.14642 0.18762 0.88299 0.0
N317 N 0.15158 0.18116 0.89587 0.0
C318 C 0.12144 0.18524 0.88023 0.0
C319 C 0.10835 0.17117 0.90427 0.0
C320 C 0.13327 0.17331 0.90646 0.0
C321 C 0.10198 0.17664 0.89095 0.0
H322 H 0.16139 0.1938 0.87474 0.0
H323 H 0.13772 0.16805 0.91653 0.0
O324 O 0.24086 0.17817 0.90524 0.0
O325 O 0.21677 0.21587 0.90549 0.0
O326 O 0.19876 0.17252 0.88245 0.0
O327 O 0.18096 0.15432 0.91298 0.0
H328 H 0.27761 0.21266 0.92299 0.0
H329 H 0.26565 0.16991 0.88402 0.0
H330 H 0.32706 0.23368 0.91974 0.0
H331 H 0.31531 0.19186 0.88138 0.0
H332 H 0.16401 0.25 0.91873 0.0
H333 H 0.22499 0.24669 0.88324 0.0
H334 H 0.18381 0.22116 0.92299 0.0
H335 H 0.20437 0.27496 0.87965 0.0
H336 H 0.31676 0.28501 0.88248 0.0
H337 H 0.26336 0.24725 0.84709 0.0
H338 H 0.23295 0.16633 0.96469 0.0
H339 H 0.22639 0.23753 0.9602 0.0
H340 H 0.14883 0.14143 0.8732 0.0
H341 H 0.2315 0.16261 0.86736 0.0
H342 H 0.13574 0.10835 0.85373 0.0
H343 H 0.21694 0.12896 0.84808 0.0
H344 H 0.1815 0.11069 0.92143 0.0
H345 H 0.16609 0.17337 0.93453 0.0
H346 H 0.16957 0.09144 0.94537 0.0
H347 H 0.15421 0.15283 0.95819 0.0
H348 H 0.22246 0.07618 0.89471 0.0
H349 H 0.14087 0.05773 0.88697 0.0
H350 H 0.11716 0.18955 0.86981 0.0
H351 H 0.09371 0.16401 0.91273 0.0
Li352 Li 0.80837 0.01877 0.882 0.0
Li353 Li 0.8193 0.02062 0.9067 0.0
Li354 Li 0.85453 0.0378 0.88854 0.0
Li355 Li 0.8237 0.98933 0.89154 0.0
C356 C 0.81922 0.06655 0.89042 0.0
N357 N 0.79467 0.09534 0.88306 0.0
C358 C 0.7995 0.06631 0.89913 0.0
C359 C 0.82664 0.0816 0.87803 0.0
C360 C 0.78729 0.08097 0.89521 0.0
C361 C 0.81393 0.09597 0.87447 0.0
C362 C 0.77243 0.96302 0.89523 0.0
C363 C 0.75175 0.91794 0.9046 0.0
N364 N 0.73811 0.90805 0.89235 0.0
C365 C 0.75825 0.95241 0.88272 0.0
C366 C 0.76919 0.94566 0.90627 0.0
C367 C 0.74096 0.92457 0.88148 0.0
C368 C 0.78721 0.02004 0.85538 0.0
N369 N 0.78331 0.01964 0.86947 0.0
C370 C 0.73926 0.01309 0.86615 0.0
C371 C 0.76017 0.01676 0.87497 0.0
C372 C 0.74218 0.01207 0.85156 0.0
C373 C 0.76685 0.01642 0.84617 0.0
H374 H 0.80557 0.02184 0.85128 0.0
H375 H 0.75744 0.01593 0.88624 0.0
C376 C 0.82893 0.04781 0.93268 0.0
N377 N 0.81076 0.02573 0.92533 0.0
C378 C 0.82617 0.04891 0.9472 0.0
C379 C 0.78457 0.00593 0.94599 0.0
C380 C 0.78828 0.00555 0.93153 0.0
C381 C 0.80427 0.02727 0.95407 0.0
H382 H 0.84651 0.06366 0.92742 0.0
H383 H 0.77399 0.98845 0.92538 0.0
C384 C 0.85346 0.01728 0.86354 0.0
N385 N 0.89364 0.03309 0.84355 0.0
C386 C 0.86579 0.002 0.86127 0.0
C387 C 0.86149 0.04053 0.8556 0.0
C388 C 0.88607 0.01034 0.85112 0.0
C389 C 0.88187 0.04822 0.84557 0.0
C390 C 0.86135 0.02061 0.91806 0.0
C391 C 0.88524 0.0449 0.92069 0.0
C392 C 0.84815 0.0027 0.92914 0.0
C393 C 0.89552 0.05084 0.93434 0.0
C394 C 0.85905 0.00943 0.94264 0.0
N395 N 0.88231 0.03315 0.94494 0.0
C396 C 0.90078 0.09003 0.8829 0.0
C397 C 0.90752 0.05265 0.88307 0.0
C398 C 0.9282 0.1076 0.88013 0.0
N399 N 0.89114 0.06314 0.88431 0.0
C400 C 0.93478 0.0693 0.88004 0.0
C401 C 0.94544 0.09715 0.87861 0.0
H402 H 0.8873 0.09782 0.8841 0.0
H403 H 0.89937 0.03127 0.88459 0.0
C404 C 0.81286 0.93996 0.87848 0.0
N405 N 0.8213 0.95503 0.89043 0.0
C406 C 0.81387 0.91623 0.87739 0.0
C407 C 0.83071 0.9233 0.90117 0.0
C408 C 0.82982 0.94701 0.9017 0.0
C409 C 0.82323 0.90788 0.8888 0.0
H410 H 0.80626 0.94688 0.86964 0.0
H411 H 0.83678 0.95946 0.91096 0.0
O412 O 0.83104 0.05194 0.89394 0.0
O413 O 0.79004 0.99015 0.89652 0.0
O414 O 0.83389 0.00971 0.87362 0.0
O415 O 0.85079 0.01457 0.90478 0.0
H416 H 0.79349 0.05471 0.90874 0.0
H417 H 0.8419 0.08203 0.87119 0.0
H418 H 0.77189 0.08086 0.9018 0.0
H419 H 0.81935 0.10758 0.86487 0.0
H420 H 0.74919 0.90426 0.91302 0.0
H421 H 0.76076 0.96543 0.87399 0.0
H422 H 0.78043 0.95344 0.91592 0.0
H423 H 0.72991 0.91608 0.87185 0.0
H424 H 0.72043 0.00937 0.87074 0.0
H425 H 0.76993 0.01591 0.83497 0.0
H426 H 0.84162 0.06585 0.95307 0.0
H427 H 0.76745 0.98882 0.9509 0.0
H428 H 0.8601 0.98413 0.86741 0.0
H429 H 0.8524 0.05276 0.85731 0.0
H430 H 0.89587 0.99878 0.84931 0.0
H431 H 0.88841 0.06627 0.83942 0.0
H432 H 0.89568 0.05914 0.91234 0.0
H433 H 0.82925 0.98416 0.92744 0.0
H434 H 0.91396 0.06959 0.93651 0.0
H435 H 0.84886 0.9959 0.95132 0.0
H436 H 0.93585 0.12904 0.87921 0.0
H437 H 0.94758 0.06059 0.87926 0.0
H438 H 0.80803 0.90489 0.86765 0.0
H439 H 0.83855 0.91786 0.9101 0.0
Li440 Li 0.00999 0.82173 0.89471 0.0
Li441 Li 0.96095 0.80055 0.89332 0.0
Li442 Li 0.98224 0.7886 0.91207 0.0
Li443 Li 0.98155 0.77432 0.88803 0.0
C444 C 0.98099 0.83141 0.9212 0.0
N445 N 0.97095 0.84408 0.94774 0.0
C446 C 0.95632 0.82961 0.92421 0.0
C447 C 0.00057 0.83975 0.93171 0.0
C448 C 0.95165 0.83613 0.93768 0.0
C449 C 0.99509 0.84599 0.94506 0.0
C450 C 0.97716 0.81447 0.8671 0.0
C451 C 0.94198 0.8054 0.85046 0.0
N452 N 0.95628 0.83141 0.84602 0.0
C453 C 0.99147 0.84113 0.86237 0.0
C454 C 0.9522 0.79644 0.86108 0.0
C455 C 0.9806 0.84929 0.8517 0.0
C456 C 0.05627 0.85954 0.87899 0.0
N457 N 0.04283 0.85487 0.8914 0.0
C458 C 0.07358 0.89968 0.8992 0.0
C459 C 0.05124 0.87419 0.9015 0.0
C460 C 0.08715 0.90554 0.88627 0.0
C461 C 0.07853 0.88502 0.87613 0.0
H462 H 0.04906 0.84381 0.87112 0.0
H463 H 0.04005 0.87014 0.91116 0.0
C464 C 0.90714 0.79137 0.88883 0.0
N465 N 0.93412 0.80934 0.88891 0.0
C466 C 0.88902 0.80002 0.88555 0.0
C467 C 0.92696 0.84516 0.88234 0.0
C468 C 0.94417 0.83582 0.88594 0.0
C469 C 0.89903 0.82721 0.88214 0.0
H470 H 0.89972 0.77047 0.89141 0.0
H471 H 0.96568 0.84972 0.88642 0.0
C472 C 0.0396 0.8017 0.89987 0.0
N473 N 0.0948 0.82703 0.89607 0.0
C474 C 0.05023 0.79784 0.88744 0.0
C475 C 0.05706 0.8186 0.91033 0.0
C476 C 0.07819 0.81076 0.88574 0.0
C477 C 0.0849 0.8312 0.90821 0.0
C478 C 0.93657 0.73725 0.89864 0.0
C479 C 0.94243 0.72112 0.90712 0.0
C480 C 0.91788 0.72551 0.88776 0.0
C481 C 0.92955 0.69342 0.90449 0.0
C482 C 0.90544 0.69773 0.88548 0.0
N483 N 0.9115 0.68241 0.89381 0.0
C484 C 0.95728 0.77436 0.93862 0.0
C485 C 0.00077 0.77936 0.93784 0.0
C486 C 0.95669 0.77233 0.95323 0.0
N487 N 0.97957 0.77892 0.93135 0.0
C488 C 0.00097 0.77723 0.95243 0.0
C489 C 0.97912 0.77463 0.96034 0.0
H490 H 0.94058 0.7738 0.93313 0.0
H491 H 0.01801 0.78253 0.93177 0.0
C492 C 0.97022 0.74074 0.86382 0.0
N493 N 0.98052 0.7461 0.87703 0.0
C494 C 0.97262 0.72221 0.85537 0.0
C495 C 0.99551 0.71448 0.87441 0.0
C496 C 0.99224 0.73282 0.88256 0.0
C497 C 0.98629 0.7095 0.86045 0.0
H498 H 0.9609 0.75143 0.85967 0.0
H499 H 0.00021 0.73746 0.89312 0.0
O500 O 0.98577 0.82466 0.90813 0.0
O501 O 0.98728 0.8062 0.87771 0.0
O502 O 0.01227 0.78982 0.90157 0.0
O503 O 0.94959 0.76449 0.90078 0.0
H504 H 0.94081 0.82303 0.9163 0.0
H505 H 0.01953 0.84065 0.92973 0.0
H506 H 0.93263 0.83474 0.94015 0.0
H507 H 0.00994 0.85215 0.95332 0.0
H508 H 0.92259 0.79171 0.84581 0.0
H509 H 0.0106 0.85552 0.867 0.0
H510 H 0.94046 0.77596 0.86485 0.0
H511 H 0.99144 0.86989 0.84798 0.0
H512 H 0.07928 0.91509 0.90719 0.0
H513 H 0.08848 0.88883 0.86602 0.0
H514 H 0.86753 0.78572 0.88563 0.0
H515 H 0.93537 0.86639 0.88008 0.0
H516 H 0.0371 0.78537 0.87909 0.0
H517 H 0.04925 0.82241 0.91986 0.0
H518 H 0.08669 0.80799 0.87617 0.0
H519 H 0.09863 0.84443 0.91619 0.0
H520 H 0.95701 0.72995 0.91552 0.0
H521 H 0.91321 0.73775 0.88108 0.0
H522 H 0.93399 0.6807 0.91092 0.0
H523 H 0.89103 0.68838 0.87705 0.0
H524 H 0.9393 0.76995 0.95895 0.0
H525 H 0.01866 0.77913 0.95751 0.0
H526 H 0.96463 0.71858 0.8448 0.0
H527 H 0.00644 0.70549 0.87879 0.0
Li528 Li 0.86017 0.55401 0.4507 0.0
Li529 Li 0.84772 0.54438 0.42672 0.0
Li530 Li 0.81365 0.53668 0.445 0.0
Li531 Li 0.83485 0.50761 0.44391 0.0
C532 C 0.86482 0.5969 0.43471 0.0
N533 N 0.90461 0.64773 0.42636 0.0
C534 C 0.891 0.6022 0.43211 0.0
C535 C 0.8589 0.61746 0.43308 0.0
C536 C 0.91083 0.62802 0.42789 0.0
C537 C 0.87929 0.64303 0.42884 0.0
C538 C 0.88291 0.52452 0.42884 0.0
C539 C 0.87893 0.49395 0.41036 0.0
N540 N 0.90594 0.50375 0.41104 0.0
C541 C 0.91063 0.5343 0.42937 0.0
C542 C 0.86692 0.5042 0.41926 0.0
C543 C 0.92189 0.52352 0.42029 0.0
C544 C 0.90332 0.56552 0.4675 0.0
N545 N 0.88828 0.57629 0.46329 0.0
C546 C 0.91222 0.61387 0.47876 0.0
C547 C 0.8924 0.60011 0.46855 0.0
C548 C 0.92732 0.6026 0.48364 0.0
C549 C 0.9229 0.57829 0.47779 0.0
H550 H 0.89945 0.5465 0.46314 0.0
H551 H 0.87992 0.60804 0.46509 0.0
C552 C 0.83573 0.54968 0.39891 0.0
N553 N 0.85628 0.55376 0.40748 0.0
C554 C 0.83982 0.55332 0.38444 0.0
C555 C 0.88652 0.56653 0.38797 0.0
C556 C 0.88153 0.56272 0.40238 0.0
C557 C 0.86537 0.56131 0.37877 0.0
H558 H 0.81589 0.54272 0.40329 0.0
H559 H 0.89769 0.56632 0.40943 0.0
C560 C 0.83596 0.5284 0.47387 0.0
N561 N 0.85472 0.5386 0.50116 0.0
C562 C 0.84625 0.51339 0.4799 0.0
C563 C 0.83497 0.54842 0.48175 0.0
C564 C 0.85569 0.51889 0.49371 0.0
C565 C 0.84463 0.55333 0.49552 0.0
C566 C 0.7904 0.49037 0.42389 0.0
C567 C 0.76611 0.47649 0.43132 0.0
C568 C 0.79199 0.48204 0.41028 0.0
C569 C 0.74394 0.45438 0.42508 0.0
C570 C 0.76937 0.45981 0.40441 0.0
N571 N 0.74601 0.44656 0.41187 0.0
C572 C 0.76551 0.53419 0.43711 0.0
C573 C 0.76853 0.52599 0.46123 0.0
C574 C 0.73781 0.52406 0.43842 0.0
N575 N 0.77992 0.53392 0.44832 0.0
C576 C 0.74099 0.51594 0.46304 0.0
C577 C 0.72502 0.51359 0.45138 0.0
H578 H 0.77504 0.54 0.4269 0.0
H579 H 0.78034 0.52544 0.46988 0.0
C580 C 0.847 0.46506 0.44733 0.0
N581 N 0.82742 0.4717 0.44737 0.0
C582 C 0.84041 0.43844 0.44973 0.0
C583 C 0.79393 0.42632 0.45291 0.0
C584 C 0.80145 0.4531 0.4505 0.0
C585 C 0.81347 0.41857 0.45241 0.0
H586 H 0.86778 0.48036 0.44552 0.0
H587 H 0.78652 0.45909 0.45122 0.0
O588 O 0.84497 0.57181 0.43887 0.0
O589 O 0.8718 0.53534 0.43749 0.0
O590 O 0.8274 0.52386 0.46023 0.0
O591 O 0.81222 0.5125 0.42969 0.0
H592 H 0.89607 0.58665 0.43338 0.0
H593 H 0.83874 0.61368 0.43506 0.0
H594 H 0.93116 0.63239 0.42585 0.0
H595 H 0.87499 0.65913 0.42754 0.0
H596 H 0.86676 0.47818 0.40291 0.0
H597 H 0.9233 0.55014 0.43668 0.0
H598 H 0.84548 0.4963 0.4188 0.0
H599 H 0.94332 0.53092 0.42057 0.0
H600 H 0.91516 0.6326 0.4831 0.0
H601 H 0.93441 0.5692 0.4812 0.0
H602 H 0.82291 0.54888 0.37773 0.0
H603 H 0.90663 0.57316 0.38405 0.0
H604 H 0.84724 0.49789 0.47392 0.0
H605 H 0.82729 0.56039 0.47718 0.0
H606 H 0.86388 0.50757 0.49848 0.0
H607 H 0.84423 0.56893 0.5017 0.0
H608 H 0.76439 0.48251 0.44185 0.0
H609 H 0.81043 0.49264 0.40425 0.0
H610 H 0.72508 0.44344 0.43076 0.0
H611 H 0.77037 0.45315 0.3939 0.0
H612 H 0.72626 0.52233 0.42912 0.0
H613 H 0.73198 0.50839 0.47325 0.0
H614 H 0.85625 0.43354 0.44959 0.0
H615 H 0.7729 0.41177 0.4549 0.0
Li616 Li 0.48607 0.32308 0.44007 0.0
Li617 Li 0.45675 0.27415 0.43863 0.0
Li618 Li 0.45179 0.30321 0.4217 0.0
Li619 Li 0.43737 0.30109 0.4459 0.0
C620 C 0.50453 0.3108 0.41554 0.0
N621 N 0.54772 0.33573 0.39726 0.0
C622 C 0.52085 0.29969 0.41305 0.0
C623 C 0.51016 0.33455 0.40872 0.0
C624 C 0.54261 0.31261 0.40378 0.0
C625 C 0.53207 0.34685 0.39951 0.0
C626 C 0.48375 0.29576 0.46452 0.0
C627 C 0.50128 0.29813 0.48778 0.0
N628 N 0.51984 0.29261 0.48234 0.0
C629 C 0.50301 0.29011 0.45916 0.0
C630 C 0.48285 0.29979 0.47895 0.0
C631 C 0.52106 0.28858 0.46833 0.0
C632 C 0.52514 0.37569 0.44952 0.0
N633 N 0.52141 0.35181 0.44458 0.0
C634 C 0.56862 0.36805 0.44606 0.0
C635 C 0.54252 0.34774 0.44281 0.0
C636 C 0.57315 0.39295 0.45108 0.0
C637 C 0.55109 0.39682 0.45273 0.0
H638 H 0.50796 0.37832 0.45096 0.0
H639 H 0.53918 0.32866 0.43891 0.0
C640 C 0.46448 0.23319 0.42881 0.0
N641 N 0.45708 0.24146 0.44049 0.0
C642 C 0.47159 0.21343 0.42978 0.0
C643 C 0.46135 0.20963 0.45461 0.0
C644 C 0.45433 0.22944 0.45314 0.0
C645 C 0.47111 0.20215 0.44292 0.0
H646 H 0.46655 0.24322 0.41891 0.0
H647 H 0.44846 0.23649 0.46228 0.0
C648 C 0.45773 0.35476 0.42992 0.0
N649 N 0.45336 0.39796 0.42084 0.0
C650 C 0.43322 0.35418 0.43117 0.0
C651 C 0.4801 0.3775 0.4242 0.0
C652 C 0.4314 0.37617 0.42648 0.0
C653 C 0.47746 0.39907 0.41962 0.0
C654 C 0.40125 0.24845 0.43738 0.0
C655 C 0.37967 0.23076 0.42887 0.0
C656 C 0.40101 0.24275 0.45166 0.0
C657 C 0.35814 0.20763 0.43481 0.0
C658 C 0.37912 0.21941 0.45719 0.0
N659 N 0.35831 0.20248 0.44872 0.0
C660 C 0.45169 0.29287 0.39309 0.0
C661 C 0.43424 0.32144 0.39814 0.0
C662 C 0.44944 0.29569 0.3787 0.0
N663 N 0.44474 0.30619 0.40245 0.0
C664 C 0.43162 0.32483 0.38383 0.0
C665 C 0.43966 0.31217 0.37391 0.0
H666 H 0.45962 0.28053 0.3968 0.0
H667 H 0.42807 0.33119 0.40572 0.0
C668 C 0.42312 0.31982 0.46932 0.0
N669 N 0.4127 0.30432 0.45767 0.0
C670 C 0.40697 0.32573 0.47777 0.0
C671 C 0.36944 0.29905 0.46223 0.0
C672 C 0.38636 0.29364 0.45406 0.0
C673 C 0.37984 0.31563 0.47415 0.0
H674 H 0.44427 0.32835 0.47175 0.0
H675 H 0.37875 0.28173 0.44459 0.0
O676 O 0.4833 0.29849 0.4247 0.0
O677 O 0.46579 0.29733 0.45578 0.0
O678 O 0.46 0.33356 0.43465 0.0
O679 O 0.42244 0.27113 0.43165 0.0
H680 H 0.51688 0.2814 0.41832 0.0
H681 H 0.49761 0.34325 0.41043 0.0
H682 H 0.55546 0.30429 0.40179 0.0
H683 H 0.53661 0.36521 0.39414 0.0
H684 H 0.50082 0.30122 0.49897 0.0
H685 H 0.50394 0.2868 0.44804 0.0
H686 H 0.46804 0.30414 0.48327 0.0
H687 H 0.53602 0.28418 0.46432 0.0
H688 H 0.58516 0.36441 0.4445 0.0
H689 H 0.55386 0.41575 0.45664 0.0
H690 H 0.47926 0.20855 0.42052 0.0
H691 H 0.46041 0.20122 0.46489 0.0
H692 H 0.41569 0.33683 0.43554 0.0
H693 H 0.49939 0.37862 0.42338 0.0
H694 H 0.41251 0.3759 0.42731 0.0
H695 H 0.4946 0.41674 0.41515 0.0
H696 H 0.37957 0.23489 0.4178 0.0
H697 H 0.41744 0.25619 0.45843 0.0
H698 H 0.34129 0.19377 0.42835 0.0
H699 H 0.37866 0.21477 0.46822 0.0
H700 H 0.45605 0.28569 0.37143 0.0
H701 H 0.42345 0.33726 0.38058 0.0
H702 H 0.41597 0.33901 0.48671 0.0
H703 H 0.34863 0.29078 0.45911 0.0
Li704 Li 0.65117 0.14664 0.43775 0.0
Li705 Li 0.70229 0.17419 0.43689 0.0
Li706 Li 0.67457 0.14319 0.41654 0.0
Li707 Li 0.6778 0.12654 0.43873 0.0
C708 C 0.67149 0.19696 0.42206 0.0
N709 N 0.66474 0.24064 0.41751 0.0
C710 C 0.68113 0.21806 0.43181 0.0
C711 C 0.65872 0.19834 0.40988 0.0
C712 C 0.67745 0.23989 0.42935 0.0
C713 C 0.65539 0.2205 0.40781 0.0
C714 C 0.67327 0.1395 0.46479 0.0
C715 C 0.68915 0.13196 0.48673 0.0
N716 N 0.66398 0.11091 0.48944 0.0
C717 C 0.64751 0.11792 0.46783 0.0
C718 C 0.69425 0.1467 0.47433 0.0
C719 C 0.64325 0.10367 0.48034 0.0
C720 C 0.59477 0.12747 0.44358 0.0
N721 N 0.62062 0.14837 0.44465 0.0
C722 C 0.60531 0.17665 0.4543 0.0
C723 C 0.62614 0.17216 0.45054 0.0
C724 C 0.57838 0.1562 0.45224 0.0
C725 C 0.57322 0.13105 0.44719 0.0
H726 H 0.59069 0.10814 0.43966 0.0
H727 H 0.64679 0.1879 0.45208 0.0
C728 C 0.74485 0.22445 0.42927 0.0
N729 N 0.73218 0.20884 0.44062 0.0
C730 C 0.76298 0.25199 0.43093 0.0
C731 C 0.75596 0.24648 0.45603 0.0
C732 C 0.73776 0.21905 0.45387 0.0
C733 C 0.7681 0.26355 0.44443 0.0
H734 H 0.7395 0.2158 0.41884 0.0
H735 H 0.72691 0.20629 0.46267 0.0
C736 C 0.62154 0.10384 0.41933 0.0
N737 N 0.57656 0.08484 0.40233 0.0
C738 C 0.60506 0.07615 0.41684 0.0
C739 C 0.6151 0.12177 0.41307 0.0
C740 C 0.58243 0.06697 0.40823 0.0
C741 C 0.59229 0.11182 0.40456 0.0
C742 C 0.7218 0.13519 0.4257 0.0
C743 C 0.7114 0.11057 0.41863 0.0
C744 C 0.74606 0.14565 0.43305 0.0
C745 C 0.72532 0.09656 0.41923 0.0
C746 C 0.7594 0.13105 0.43336 0.0
N747 N 0.74882 0.107 0.42652 0.0
C748 C 0.68348 0.16321 0.38901 0.0
C749 C 0.65947 0.1155 0.39053 0.0
C750 C 0.67965 0.16188 0.3745 0.0
N751 N 0.6728 0.14023 0.39671 0.0
C752 C 0.6551 0.11321 0.37606 0.0
C753 C 0.66477 0.13663 0.36788 0.0
H754 H 0.69436 0.18259 0.3942 0.0
H755 H 0.65149 0.09755 0.39691 0.0
C756 C 0.65716 0.07237 0.44513 0.0
N757 N 0.67893 0.09718 0.44749 0.0
C758 C 0.65441 0.0499 0.45209 0.0
C759 C 0.69692 0.0787 0.46368 0.0
C760 C 0.69899 0.10067 0.45633 0.0
C761 C 0.67418 0.05298 0.46171 0.0
H762 H 0.64142 0.07016 0.43821 0.0
H763 H 0.71611 0.12062 0.45808 0.0
O764 O 0.67529 0.17555 0.4242 0.0
O765 O 0.67792 0.1532 0.45242 0.0
O766 O 0.6445 0.1132 0.42723 0.0
O767 O 0.70835 0.14905 0.42537 0.0
H768 H 0.691 0.21746 0.44131 0.0
H769 H 0.65144 0.18255 0.40204 0.0
H770 H 0.68467 0.25622 0.43688 0.0
H771 H 0.64544 0.22171 0.39846 0.0
H772 H 0.70525 0.13714 0.49416 0.0
H773 H 0.6311 0.11199 0.46051 0.0
H774 H 0.71438 0.16313 0.47208 0.0
H775 H 0.62347 0.0868 0.48278 0.0
H776 H 0.61033 0.19635 0.45822 0.0
H777 H 0.55277 0.11448 0.44581 0.0
H778 H 0.77143 0.26432 0.42165 0.0
H779 H 0.75953 0.25442 0.46663 0.0
H780 H 0.60979 0.06184 0.42132 0.0
H781 H 0.62735 0.14309 0.41492 0.0
H782 H 0.56961 0.04562 0.4062 0.0
H783 H 0.58709 0.12556 0.39974 0.0
H784 H 0.69263 0.10226 0.4129 0.0
H785 H 0.75435 0.16474 0.43853 0.0
H786 H 0.71742 0.07737 0.41392 0.0
H787 H 0.77813 0.1388 0.43906 0.0
H788 H 0.68796 0.18044 0.36856 0.0
H789 H 0.64344 0.09334 0.37142 0.0
H790 H 0.63631 0.03051 0.45046 0.0
H791 H 0.71258 0.08186 0.47103 0.0
Li792 Li 0.89513 0.54271 0.22546 0.0
Li793 Li 0.87846 0.53111 0.24903 0.0
Li794 Li 0.86575 0.49679 0.23038 0.0
Li795 Li 0.84767 0.52688 0.23025 0.0
C796 C 0.9291 0.53287 0.23827 0.0
N797 N 0.9847 0.55987 0.23652 0.0
C798 C 0.94472 0.55361 0.24773 0.0
C799 C 0.94174 0.52566 0.22801 0.0
C800 C 0.97281 0.56706 0.24665 0.0
C801 C 0.96988 0.53962 0.22727 0.0
C802 C 0.88249 0.58267 0.23092 0.0
C803 C 0.89658 0.62996 0.23092 0.0
N804 N 0.88945 0.62804 0.21719 0.0
C805 C 0.87534 0.58121 0.21678 0.0
C806 C 0.89325 0.60728 0.23804 0.0
C807 C 0.879 0.60434 0.21004 0.0
C808 C 0.9266 0.56493 0.20079 0.0
N809 N 0.92509 0.56868 0.21479 0.0
C810 C 0.9616 0.61414 0.21323 0.0
C811 C 0.94254 0.59242 0.22115 0.0
C812 C 0.96261 0.61135 0.19862 0.0
C813 C 0.94546 0.58608 0.19247 0.0
H814 H 0.91218 0.54609 0.19594 0.0
H815 H 0.9406 0.59498 0.23227 0.0
C816 C 0.88118 0.517 0.27687 0.0
N817 N 0.88458 0.5376 0.26854 0.0
C818 C 0.88307 0.52015 0.29144 0.0
C819 C 0.89236 0.56582 0.28852 0.0
C820 C 0.89034 0.56178 0.27401 0.0
C821 C 0.88837 0.54472 0.29745 0.0
H822 H 0.87629 0.49789 0.27219 0.0
H823 H 0.89275 0.5777 0.26711 0.0
C824 C 0.85742 0.49996 0.20324 0.0
N825 N 0.84488 0.46377 0.18138 0.0
C826 C 0.83352 0.49076 0.1957 0.0
C827 C 0.87518 0.49113 0.19948 0.0
C828 C 0.82748 0.47238 0.18473 0.0
C829 C 0.86841 0.47271 0.18846 0.0
C830 C 0.82327 0.49683 0.25409 0.0
C831 C 0.80319 0.47097 0.2581 0.0
C832 C 0.82349 0.51936 0.2598 0.0
C833 C 0.78365 0.46806 0.26783 0.0
C834 C 0.80361 0.51561 0.26949 0.0
N835 N 0.78426 0.49025 0.27327 0.0
C836 C 0.87023 0.44927 0.22903 0.0
C837 C 0.82813 0.44466 0.22301 0.0
C838 C 0.85972 0.42158 0.22706 0.0
N839 N 0.85426 0.46006 0.22704 0.0
C840 C 0.81695 0.41712 0.22076 0.0
C841 C 0.8327 0.40519 0.2229 0.0
H842 H 0.89092 0.46205 0.23235 0.0
H843 H 0.81587 0.45382 0.22173 0.0
C844 C 0.81124 0.54778 0.22998 0.0
N845 N 0.815 0.52679 0.22692 0.0
C846 C 0.78554 0.54462 0.22893 0.0
C847 C 0.76827 0.49844 0.22164 0.0
C848 C 0.79416 0.50247 0.22285 0.0
C849 C 0.7636 0.51958 0.22481 0.0
H850 H 0.82787 0.56665 0.23372 0.0
H851 H 0.79753 0.48585 0.22108 0.0
O852 O 0.90158 0.51982 0.23901 0.0
O853 O 0.88004 0.56054 0.23767 0.0
O854 O 0.86347 0.51764 0.21417 0.0
O855 O 0.84233 0.49995 0.24446 0.0
H856 H 0.93526 0.55947 0.25572 0.0
H857 H 0.92997 0.50949 0.2207 0.0
H858 H 0.98515 0.58328 0.25385 0.0
H859 H 0.97993 0.53435 0.21934 0.0
H860 H 0.90492 0.64913 0.23632 0.0
H861 H 0.86709 0.5625 0.211 0.0
H862 H 0.8992 0.60895 0.24892 0.0
H863 H 0.87356 0.60347 0.1991 0.0
H864 H 0.97453 0.63329 0.21836 0.0
H865 H 0.94529 0.58321 0.18121 0.0
H866 H 0.87949 0.50324 0.29794 0.0
H867 H 0.89674 0.58515 0.29271 0.0
H868 H 0.81983 0.49784 0.19822 0.0
H869 H 0.89382 0.49816 0.20514 0.0
H870 H 0.80899 0.465 0.17885 0.0
H871 H 0.88185 0.46551 0.18555 0.0
H872 H 0.8027 0.45334 0.25371 0.0
H873 H 0.83875 0.53953 0.25672 0.0
H874 H 0.76797 0.44816 0.27103 0.0
H875 H 0.80352 0.53286 0.27399 0.0
H876 H 0.87245 0.41306 0.22884 0.0
H877 H 0.79591 0.40513 0.21783 0.0
H878 H 0.7828 0.5614 0.23154 0.0
H879 H 0.75187 0.47857 0.21883 0.0
Li880 Li 0.46989 0.36239 0.22236 0.0
Li881 Li 0.47821 0.36545 0.24708 0.0
Li882 Li 0.51514 0.38828 0.23029 0.0
Li883 Li 0.49178 0.33946 0.23185 0.0
C884 C 0.48968 0.41759 0.22668 0.0
N885 N 0.49854 0.46207 0.21138 0.0
C886 C 0.48864 0.43878 0.23327 0.0
C887 C 0.49521 0.41902 0.2123 0.0
C888 C 0.49318 0.4611 0.22535 0.0
C889 C 0.49963 0.44167 0.20475 0.0
C890 C 0.42773 0.32007 0.23479 0.0
C891 C 0.3846 0.28114 0.2292 0.0
N892 N 0.37243 0.29568 0.23195 0.0
C893 C 0.41477 0.33456 0.23765 0.0
C894 C 0.41253 0.29311 0.23058 0.0
C895 C 0.38682 0.32191 0.2361 0.0
C896 C 0.44077 0.34118 0.19777 0.0
N897 N 0.44453 0.35841 0.20846 0.0
C898 C 0.41015 0.36587 0.19949 0.0
C899 C 0.42994 0.37095 0.20945 0.0
C900 C 0.40557 0.34787 0.18841 0.0
C901 C 0.42135 0.33564 0.18755 0.0
H902 H 0.45249 0.33129 0.19738 0.0
H903 H 0.43323 0.38442 0.21815 0.0
C904 C 0.48415 0.38594 0.27451 0.0
N905 N 0.46669 0.36606 0.26574 0.0
C906 C 0.47913 0.38403 0.28896 0.0
C907 C 0.43751 0.3421 0.28491 0.0
C908 C 0.44353 0.3446 0.27062 0.0
C909 C 0.45589 0.36144 0.29436 0.0
H910 H 0.50277 0.40241 0.27037 0.0
H911 H 0.43043 0.32852 0.26361 0.0
C912 C 0.52198 0.36071 0.20788 0.0
N913 N 0.56364 0.3593 0.19415 0.0
C914 C 0.5444 0.36431 0.21539 0.0
C915 C 0.52076 0.35639 0.19339 0.0
C916 C 0.56526 0.36355 0.20826 0.0
C917 C 0.54201 0.35573 0.18664 0.0
C918 C 0.51511 0.354 0.25861 0.0
C919 C 0.53869 0.36612 0.26663 0.0
C920 C 0.49321 0.32929 0.26289 0.0
C921 C 0.53995 0.35335 0.27881 0.0
C922 C 0.49525 0.3172 0.27514 0.0
N923 N 0.51838 0.32937 0.28279 0.0
C924 C 0.5675 0.42811 0.23809 0.0
C925 C 0.55853 0.42782 0.21381 0.0
C926 C 0.59495 0.44595 0.23582 0.0
N927 N 0.55014 0.41873 0.22709 0.0
C928 C 0.58575 0.44585 0.21108 0.0
C929 C 0.60457 0.45431 0.22208 0.0
H930 H 0.56026 0.42049 0.24852 0.0
H931 H 0.54443 0.4198 0.20519 0.0
C932 C 0.47795 0.28616 0.2238 0.0
N933 N 0.49638 0.30878 0.23071 0.0
C934 C 0.48074 0.26338 0.22335 0.0
C935 C 0.52189 0.28799 0.23671 0.0
C936 C 0.51836 0.3102 0.23685 0.0
C937 C 0.50279 0.26405 0.23005 0.0
H938 H 0.46113 0.28582 0.21862 0.0
H939 H 0.53331 0.32862 0.24186 0.0
O940 O 0.48517 0.39563 0.23437 0.0
O941 O 0.45513 0.3322 0.2362 0.0
O942 O 0.50135 0.36166 0.21454 0.0
O943 O 0.51346 0.36658 0.24678 0.0
H944 H 0.48435 0.43796 0.2444 0.0
H945 H 0.49598 0.4028 0.20699 0.0
H946 H 0.49244 0.47765 0.23032 0.0
H947 H 0.50392 0.44302 0.19361 0.0
H948 H 0.37259 0.26028 0.22598 0.0
H949 H 0.42624 0.35543 0.24097 0.0
H950 H 0.4221 0.28144 0.22852 0.0
H951 H 0.37657 0.33294 0.23821 0.0
H952 H 0.39847 0.37576 0.20049 0.0
H953 H 0.41815 0.32129 0.17931 0.0
H954 H 0.49407 0.39923 0.29586 0.0
H955 H 0.41918 0.32453 0.28856 0.0
H956 H 0.54585 0.36791 0.22659 0.0
H957 H 0.50357 0.35365 0.18741 0.0
H958 H 0.58276 0.36639 0.21395 0.0
H959 H 0.54133 0.35241 0.17542 0.0
H960 H 0.55587 0.38517 0.26349 0.0
H961 H 0.4748 0.31948 0.25686 0.0
H962 H 0.55808 0.36252 0.28511 0.0
H963 H 0.47844 0.29813 0.27858 0.0
H964 H 0.60863 0.45162 0.24463 0.0
H965 H 0.59214 0.45208 0.20035 0.0
H966 H 0.46566 0.24538 0.218 0.0
H967 H 0.53962 0.2897 0.24163 0.0
Li968 Li 0.61057 0.13309 0.21849 0.0
Li969 Li 0.65816 0.16089 0.21994 0.0
Li970 Li 0.63821 0.1144 0.21306 0.0
Li971 Li 0.63392 0.12569 0.23761 0.0
C972 C 0.62398 0.13339 0.19041 0.0
N973 N 0.59782 0.11254 0.16521 0.0
C974 C 0.63416 0.14811 0.17801 0.0
C975 C 0.60051 0.10801 0.18998 0.0
C976 C 0.62063 0.13725 0.16538 0.0
C977 C 0.58758 0.09784 0.17713 0.0
C978 C 0.6238 0.17678 0.23472 0.0
C979 C 0.59963 0.19535 0.2465 0.0
N980 N 0.60518 0.2126 0.23559 0.0
C981 C 0.62933 0.19476 0.22365 0.0
C982 C 0.6089 0.17712 0.24626 0.0
C983 C 0.61975 0.2127 0.22429 0.0
C984 C 0.56024 0.12738 0.22495 0.0
N985 N 0.57942 0.13566 0.21476 0.0
C986 C 0.56152 0.15992 0.20323 0.0
C987 C 0.57987 0.15093 0.20379 0.0
C988 C 0.54287 0.15354 0.21419 0.0
C989 C 0.54164 0.13617 0.22487 0.0
H990 H 0.56084 0.11583 0.23373 0.0
H991 H 0.59594 0.15828 0.19614 0.0
C992 C 0.70112 0.20374 0.20489 0.0
N993 N 0.68817 0.19619 0.21747 0.0
C994 C 0.7225 0.2301 0.20295 0.0
C995 C 0.71713 0.23997 0.22706 0.0
C996 C 0.69574 0.21361 0.22847 0.0
C997 C 0.73064 0.24859 0.21414 0.0
H998 H 0.69459 0.18938 0.19633 0.0
H999 H 0.68491 0.20707 0.23832 0.0
C1000 C 0.59843 0.0728 0.22986 0.0
N1001 N 0.58556 0.02239 0.23947 0.0
C1002 C 0.61882 0.06794 0.2341 0.0
C1003 C 0.57152 0.05203 0.23053 0.0
C1004 C 0.6119 0.04232 0.23893 0.0
C1005 C 0.56542 0.02667 0.23541 0.0
C1006 C 0.69334 0.14972 0.23105 0.0
C1007 C 0.71406 0.15124 0.22268 0.0
C1008 C 0.69972 0.16507 0.24336 0.0
C1009 C 0.74085 0.16822 0.22672 0.0
C1010 C 0.72675 0.1818 0.24705 0.0
N1011 N 0.74659 0.18304 0.23871 0.0
C1012 C 0.66809 0.10707 0.19336 0.0
C1013 C 0.63057 0.06498 0.19998 0.0
C1014 C 0.6783 0.0943 0.1851 0.0
N1015 N 0.64521 0.09235 0.20097 0.0
C1016 C 0.6401 0.05128 0.19181 0.0
C1017 C 0.66472 0.06603 0.18459 0.0
H1018 H 0.67878 0.12884 0.19402 0.0
H1019 H 0.61193 0.05369 0.20574 0.0
C1020 C 0.61537 0.11781 0.26563 0.0
N1021 N 0.63347 0.11678 0.25684 0.0
C1022 C 0.61687 0.11479 0.28009 0.0
C1023 C 0.6546 0.10815 0.27604 0.0
C1024 C 0.65238 0.11132 0.26169 0.0
C1025 C 0.63713 0.11056 0.28548 0.0
H1026 H 0.60022 0.12164 0.26144 0.0
H1027 H 0.6664 0.11039 0.25445 0.0
O1028 O 0.63725 0.14383 0.20281 0.0
O1029 O 0.632 0.15824 0.23401 0.0
O1030 O 0.60449 0.09778 0.22528 0.0
O1031 O 0.66697 0.13364 0.22713 0.0
H1032 H 0.65235 0.16776 0.17817 0.0
H1033 H 0.59229 0.09624 0.19942 0.0
H1034 H 0.62828 0.14844 0.15571 0.0
H1035 H 0.56941 0.07825 0.17665 0.0
H1036 H 0.58793 0.19571 0.25533 0.0
H1037 H 0.64034 0.19444 0.21449 0.0
H1038 H 0.6043 0.16332 0.2549 0.0
H1039 H 0.62368 0.22654 0.21573 0.0
H1040 H 0.56357 0.17372 0.19496 0.0
H1041 H 0.52754 0.13079 0.23351 0.0
H1042 H 0.73247 0.23601 0.19284 0.0
H1043 H 0.72247 0.25373 0.23586 0.0
H1044 H 0.63976 0.0836 0.23354 0.0
H1045 H 0.5555 0.0555 0.22733 0.0
H1046 H 0.62747 0.03827 0.2422 0.0
H1047 H 0.54466 0.01041 0.23597 0.0
H1048 H 0.70959 0.13943 0.21318 0.0
H1049 H 0.68397 0.16447 0.24987 0.0
H1050 H 0.75709 0.16962 0.22032 0.0
H1051 H 0.73195 0.19392 0.25649 0.0
H1052 H 0.69694 0.10645 0.17937 0.0
H1053 H 0.62893 0.02944 0.19159 0.0
H1054 H 0.60266 0.11626 0.28699 0.0
H1055 H 0.67062 0.10509 0.27973 0.0
Li1056 Li 0.52347 0.86791 0.75166 0.0
Li1057 Li 0.53645 0.88013 0.7762 0.0
Li1058 Li 0.51001 0.83248 0.76883 0.0
Li1059 Li 0.48839 0.85939 0.7694 0.0
C1060 C 0.56912 0.86435 0.75624 0.0
N1061 N 0.61452 0.87351 0.74155 0.0
C1062 C 0.59389 0.88787 0.75862 0.0
C1063 C 0.56755 0.84537 0.74651 0.0
C1064 C 0.61659 0.89215 0.75107 0.0
C1065 C 0.59069 0.85041 0.73914 0.0
C1066 C 0.51812 0.91552 0.76976 0.0
C1067 C 0.51004 0.93446 0.79056 0.0
N1068 N 0.51403 0.95615 0.78296 0.0
C1069 C 0.52212 0.93798 0.76215 0.0
C1070 C 0.51201 0.91371 0.78408 0.0
C1071 C 0.51999 0.95832 0.76902 0.0
C1072 C 0.51431 0.86479 0.72266 0.0
N1073 N 0.53391 0.87707 0.73252 0.0
C1074 C 0.56769 0.89762 0.71469 0.0
C1075 C 0.56007 0.89407 0.72882 0.0
C1076 C 0.548 0.88423 0.70433 0.0
C1077 C 0.52093 0.86817 0.70842 0.0
H1078 H 0.49358 0.85183 0.72586 0.0
H1079 H 0.57513 0.90446 0.73681 0.0
C1080 C 0.57451 0.88942 0.7957 0.0
N1081 N 0.56529 0.903 0.78812 0.0
C1082 C 0.59826 0.90342 0.80335 0.0
C1083 C 0.60229 0.94532 0.79566 0.0
C1084 C 0.57842 0.93043 0.78801 0.0
C1085 C 0.61274 0.93171 0.80315 0.0
H1086 H 0.56401 0.86764 0.79523 0.0
H1087 H 0.57112 0.94075 0.78154 0.0
C1088 C 0.47273 0.81073 0.74814 0.0
N1089 N 0.44317 0.76014 0.73613 0.0
C1090 C 0.44529 0.79439 0.75125 0.0
C1091 C 0.48502 0.80145 0.7388 0.0
C1092 C 0.43072 0.76885 0.7451 0.0
C1093 C 0.46977 0.77578 0.73288 0.0
C1094 C 0.48972 0.83085 0.79534 0.0
C1095 C 0.46247 0.81194 0.7932 0.0
C1096 C 0.50231 0.82996 0.80768 0.0
C1097 C 0.44828 0.79235 0.80341 0.0
C1098 C 0.48744 0.81005 0.81764 0.0
N1099 N 0.46095 0.79181 0.81532 0.0
C1100 C 0.52811 0.79554 0.77256 0.0
C1101 C 0.48062 0.77559 0.77363 0.0
C1102 C 0.52589 0.77036 0.77415 0.0
N1103 N 0.50562 0.79764 0.77207 0.0
C1104 C 0.47748 0.75013 0.77542 0.0
C1105 C 0.50028 0.74726 0.77554 0.0
H1106 H 0.54781 0.81339 0.77161 0.0
H1107 H 0.46301 0.7776 0.77333 0.0
C1108 C 0.43914 0.85185 0.76063 0.0
N1109 N 0.45476 0.8574 0.77222 0.0
C1110 C 0.41188 0.84356 0.76199 0.0
C1111 C 0.41792 0.84923 0.78713 0.0
C1112 C 0.44511 0.85738 0.78528 0.0
C1113 C 0.40067 0.84107 0.77543 0.0
H1114 H 0.4474 0.85196 0.75039 0.0
H1115 H 0.45803 0.86193 0.79433 0.0
O1116 O 0.54667 0.85977 0.76357 0.0
O1117 O 0.52003 0.89543 0.7631 0.0
O1118 O 0.4874 0.83576 0.75411 0.0
O1119 O 0.50399 0.85027 0.78549 0.0
H1120 H 0.59557 0.90283 0.76609 0.0
H1121 H 0.5487 0.82687 0.74469 0.0
H1122 H 0.63583 0.91032 0.75275 0.0
H1123 H 0.58972 0.83593 0.73154 0.0
H1124 H 0.50535 0.93333 0.80164 0.0
H1125 H 0.52683 0.93966 0.75105 0.0
H1126 H 0.50896 0.89659 0.79018 0.0
H1127 H 0.52305 0.97582 0.76326 0.0
H1128 H 0.58871 0.91051 0.71188 0.0
H1129 H 0.50519 0.85754 0.7007 0.0
H1130 H 0.60562 0.89223 0.80908 0.0
H1131 H 0.6131 0.96714 0.79516 0.0
H1132 H 0.43541 0.80115 0.75848 0.0
H1133 H 0.50609 0.81396 0.73612 0.0
H1134 H 0.40953 0.75592 0.74749 0.0
H1135 H 0.47907 0.76832 0.72567 0.0
H1136 H 0.45246 0.8121 0.78365 0.0
H1137 H 0.52332 0.84454 0.80958 0.0
H1138 H 0.42722 0.77752 0.80183 0.0
H1139 H 0.49694 0.80912 0.82724 0.0
H1140 H 0.54396 0.76896 0.77432 0.0
H1141 H 0.45734 0.73276 0.77632 0.0
H1142 H 0.3994 0.83724 0.75267 0.0
H1143 H 0.41021 0.84802 0.79766 0.0
Li1144 Li 0.15871 0.65911 0.77517 0.0
Li1145 Li 0.12864 0.60825 0.77723 0.0
Li1146 Li 0.12571 0.63459 0.75639 0.0
Li1147 Li 0.11089 0.63801 0.77927 0.0
C1148 C 0.18115 0.6349 0.75878 0.0
N1149 N 0.23169 0.64429 0.75134 0.0
C1150 C 0.19284 0.62244 0.76614 0.0
C1151 C 0.19508 0.65188 0.74752 0.0
C1152 C 0.21843 0.62751 0.76225 0.0
C1153 C 0.22063 0.65645 0.74395 0.0
C1154 C 0.13103 0.64142 0.80428 0.0
C1155 C 0.10381 0.62554 0.82525 0.0
N1156 N 0.11437 0.65149 0.82965 0.0
C1157 C 0.14175 0.66791 0.80903 0.0
C1158 C 0.112 0.62002 0.81246 0.0
C1159 C 0.13301 0.67259 0.82188 0.0
C1160 C 0.19996 0.71432 0.77803 0.0
N1161 N 0.19383 0.68832 0.77954 0.0
C1162 C 0.23879 0.70285 0.78694 0.0
C1163 C 0.21238 0.68234 0.78433 0.0
C1164 C 0.24612 0.72991 0.78488 0.0
C1165 C 0.22614 0.73554 0.78059 0.0
H1166 H 0.18458 0.71863 0.77477 0.0
H1167 H 0.20672 0.66158 0.78602 0.0
C1168 C 0.1267 0.55945 0.77198 0.0
N1169 N 0.12995 0.57726 0.78227 0.0
C1170 C 0.1351 0.54084 0.77413 0.0
C1171 C 0.14815 0.55808 0.79776 0.0
C1172 C 0.13955 0.57636 0.79515 0.0
C1173 C 0.14713 0.54087 0.78695 0.0
H1174 H 0.11963 0.56117 0.76174 0.0
H1175 H 0.14249 0.59121 0.80301 0.0
C1176 C 0.13763 0.68661 0.75633 0.0
N1177 N 0.14606 0.72345 0.73552 0.0
C1178 C 0.11832 0.69399 0.7538 0.0
C1179 C 0.16126 0.69808 0.74832 0.0
C1180 C 0.12295 0.71263 0.74322 0.0
C1181 C 0.16514 0.71663 0.73783 0.0
C1182 C 0.06919 0.59268 0.76844 0.0
C1183 C 0.05606 0.60501 0.76244 0.0
C1184 C 0.05421 0.568 0.77533 0.0
C1185 C 0.02804 0.59254 0.7636 0.0
C1186 C 0.02621 0.55614 0.77624 0.0
N1187 N 0.01382 0.56857 0.77042 0.0
C1188 C 0.13305 0.62306 0.72857 0.0
C1189 C 0.10534 0.64236 0.73063 0.0
C1190 C 0.13189 0.62358 0.71394 0.0
N1191 N 0.12045 0.633 0.73657 0.0
C1192 C 0.10386 0.64356 0.71605 0.0
C1193 C 0.11759 0.63445 0.70752 0.0
H1194 H 0.14443 0.61514 0.73354 0.0
H1195 H 0.09475 0.64932 0.73718 0.0
C1196 C 0.09291 0.67084 0.78987 0.0
N1197 N 0.08587 0.64448 0.78939 0.0
C1198 C 0.07702 0.67875 0.79711 0.0
C1199 C 0.04702 0.63228 0.80367 0.0
C1200 C 0.06363 0.62526 0.79628 0.0
C1201 C 0.0536 0.65937 0.80406 0.0
H1202 H 0.11129 0.6859 0.78486 0.0
H1203 H 0.05897 0.60457 0.79625 0.0
O1204 O 0.15602 0.63006 0.76242 0.0
O1205 O 0.13873 0.6365 0.79155 0.0
O1206 O 0.13326 0.66807 0.76651 0.0
O1207 O 0.09656 0.6045 0.76741 0.0
H1208 H 0.18249 0.60928 0.7749 0.0
H1209 H 0.1862 0.66127 0.74149 0.0
H1210 H 0.22776 0.61813 0.76793 0.0
H1211 H 0.23163 0.66958 0.73527 0.0
H1212 H 0.08895 0.60921 0.83165 0.0
H1213 H 0.1564 0.68468 0.80278 0.0
H1214 H 0.10336 0.59941 0.80885 0.0
H1215 H 0.14098 0.693 0.82566 0.0
H1216 H 0.25344 0.69745 0.79017 0.0
H1217 H 0.23069 0.75609 0.77919 0.0
H1218 H 0.13428 0.52822 0.76546 0.0
H1219 H 0.15715 0.55861 0.80781 0.0
H1220 H 0.09974 0.68511 0.75977 0.0
H1221 H 0.17649 0.6928 0.75022 0.0
H1222 H 0.10812 0.71841 0.7411 0.0
H1223 H 0.18334 0.72561 0.73155 0.0
H1224 H 0.06744 0.62419 0.75714 0.0
H1225 H 0.06414 0.55819 0.77998 0.0
H1226 H 0.01761 0.60194 0.75911 0.0
H1227 H 0.01432 0.53709 0.78159 0.0
H1228 H 0.14274 0.61634 0.70773 0.0
H1229 H 0.0922 0.6516 0.71148 0.0
H1230 H 0.0834 0.69997 0.79752 0.0
H1231 H 0.02926 0.61672 0.80898 0.0
Li1232 Li 0.32722 0.48086 0.77195 0.0
Li1233 Li 0.37623 0.50267 0.77229 0.0
Li1234 Li 0.34925 0.46879 0.7541 0.0
Li1235 Li 0.34884 0.45566 0.77877 0.0
C1236 C 0.34693 0.51629 0.74692 0.0
N1237 N 0.33376 0.54031 0.72574 0.0
C1238 C 0.36106 0.54437 0.74548 0.0
C1239 C 0.32593 0.50053 0.73765 0.0
C1240 C 0.35413 0.55611 0.7347 0.0
C1241 C 0.31964 0.513 0.72699 0.0
C1242 C 0.35121 0.50684 0.79674 0.0
C1243 C 0.34804 0.52365 0.81948 0.0
N1244 N 0.35207 0.54674 0.81337 0.0
C1245 C 0.35529 0.53074 0.79069 0.0
C1246 C 0.34754 0.50325 0.81125 0.0
C1247 C 0.35568 0.55067 0.79927 0.0
C1248 C 0.27777 0.47103 0.78499 0.0
N1249 N 0.29829 0.48756 0.7762 0.0
C1250 C 0.28125 0.51767 0.77481 0.0
C1251 C 0.30029 0.5106 0.77118 0.0
C1252 C 0.25978 0.50086 0.78367 0.0
C1253 C 0.25785 0.47708 0.78868 0.0
H1254 H 0.27713 0.45343 0.78937 0.0
H1255 H 0.31718 0.52417 0.76478 0.0
C1256 C 0.41936 0.5532 0.76472 0.0
N1257 N 0.40838 0.53613 0.77576 0.0
C1258 C 0.4373 0.58059 0.76705 0.0
C1259 C 0.43479 0.57157 0.79196 0.0
C1260 C 0.41685 0.54437 0.78913 0.0
C1261 C 0.44406 0.59028 0.78089 0.0
H1262 H 0.41247 0.54593 0.75419 0.0
H1263 H 0.40805 0.53029 0.79773 0.0
C1264 C 0.29059 0.42789 0.76768 0.0
N1265 N 0.23548 0.39577 0.77157 0.0
C1266 C 0.28034 0.4086 0.77837 0.0
C1267 C 0.2727 0.4305 0.75884 0.0
C1268 C 0.25246 0.39264 0.7802 0.0
C1269 C 0.24495 0.4142 0.76102 0.0
C1270 C 0.40273 0.47408 0.77136 0.0
C1271 C 0.42111 0.47103 0.76309 0.0
C1272 C 0.40745 0.47911 0.78575 0.0
C1273 C 0.44397 0.47303 0.76937 0.0
C1274 C 0.43053 0.48097 0.79163 0.0
N1275 N 0.44816 0.47791 0.78339 0.0
C1276 C 0.36921 0.47266 0.72647 0.0
C1277 C 0.32403 0.43764 0.73029 0.0
C1278 C 0.36692 0.46673 0.71211 0.0
N1279 N 0.34775 0.45839 0.73513 0.0
C1280 C 0.3207 0.4314 0.71602 0.0
C1281 C 0.3422 0.44629 0.70677 0.0
H1282 H 0.38776 0.48915 0.73065 0.0
H1283 H 0.30736 0.42662 0.73744 0.0
C1284 C 0.33681 0.4254 0.80353 0.0
N1285 N 0.34723 0.4284 0.79041 0.0
C1286 C 0.33389 0.40448 0.81209 0.0
C1287 C 0.35363 0.39091 0.79367 0.0
C1288 C 0.35579 0.41188 0.78539 0.0
C1289 C 0.34217 0.38672 0.80716 0.0
H1290 H 0.32993 0.43873 0.80714 0.0
H1291 H 0.36403 0.41483 0.77488 0.0
O1292 O 0.35347 0.5045 0.75747 0.0
O1293 O 0.35066 0.48692 0.78857 0.0
O1294 O 0.3179 0.44363 0.76572 0.0
O1295 O 0.3803 0.4722 0.76532 0.0
H1296 H 0.37691 0.55704 0.75275 0.0
H1297 H 0.31462 0.47891 0.73865 0.0
H1298 H 0.36488 0.57779 0.7335 0.0
H1299 H 0.3035 0.50096 0.71971 0.0
H1300 H 0.34524 0.52114 0.83073 0.0
H1301 H 0.35832 0.53402 0.77951 0.0
H1302 H 0.34438 0.48491 0.81612 0.0
H1303 H 0.3589 0.56927 0.79472 0.0
H1304 H 0.28343 0.5363 0.77084 0.0
H1305 H 0.24168 0.46387 0.79571 0.0
H1306 H 0.44387 0.59423 0.75819 0.0
H1307 H 0.43992 0.57813 0.80275 0.0
H1308 H 0.2937 0.40584 0.78517 0.0
H1309 H 0.28006 0.44512 0.75047 0.0
H1310 H 0.24431 0.37773 0.78847 0.0
H1311 H 0.23093 0.41621 0.75432 0.0
H1312 H 0.41774 0.46715 0.75193 0.0
H1313 H 0.39344 0.48148 0.79233 0.0
H1314 H 0.45837 0.4707 0.7631 0.0
H1315 H 0.43442 0.48483 0.80275 0.0
H1316 H 0.38382 0.47872 0.70519 0.0
H1317 H 0.30139 0.41548 0.71219 0.0
H1318 H 0.32438 0.40178 0.82225 0.0
H1319 H 0.36063 0.37801 0.78949 0.0
Li1320 Li 0.55686 0.87072 0.54861 0.0
Li1321 Li 0.54465 0.8588 0.57375 0.0
Li1322 Li 0.53388 0.82359 0.55546 0.0
Li1323 Li 0.51054 0.8485 0.556 0.0
C1324 C 0.58964 0.8492 0.55558 0.0
N1325 N 0.6286 0.84159 0.54297 0.0
C1326 C 0.61034 0.8501 0.56362 0.0
C1327 C 0.58874 0.84444 0.54113 0.0
C1328 C 0.62985 0.8462 0.55705 0.0
C1329 C 0.60862 0.84064 0.53496 0.0
C1330 C 0.52717 0.89866 0.56104 0.0
C1331 C 0.49825 0.91334 0.57114 0.0
N1332 N 0.49869 0.92526 0.55876 0.0
C1333 C 0.52739 0.9111 0.54843 0.0
C1334 C 0.51253 0.8998 0.57251 0.0
C1335 C 0.51285 0.92444 0.54748 0.0
C1336 C 0.57519 0.89904 0.52341 0.0
N1337 N 0.58282 0.89739 0.53666 0.0
C1338 C 0.6261 0.93661 0.53312 0.0
C1339 C 0.60778 0.91533 0.5416 0.0
C1340 C 0.61851 0.93934 0.51949 0.0
C1341 C 0.59279 0.91994 0.5146 0.0
H1342 H 0.55504 0.88467 0.51988 0.0
H1343 H 0.61318 0.91346 0.55223 0.0
C1344 C 0.55316 0.851 0.60213 0.0
N1345 N 0.55445 0.86925 0.59267 0.0
C1346 C 0.55523 0.85683 0.61648 0.0
C1347 C 0.56114 0.90051 0.61096 0.0
C1348 C 0.55928 0.89397 0.59673 0.0
C1349 C 0.55837 0.88152 0.62102 0.0
H1350 H 0.54901 0.83139 0.59856 0.0
H1351 H 0.56037 0.90812 0.58895 0.0
C1352 C 0.50679 0.82038 0.53082 0.0
N1353 N 0.46877 0.77994 0.51387 0.0
C1354 C 0.48295 0.79961 0.53663 0.0
C1355 C 0.51131 0.82058 0.51638 0.0
C1356 C 0.46397 0.77936 0.5279 0.0
C1357 C 0.49184 0.79996 0.50799 0.0
C1358 C 0.48954 0.81095 0.57959 0.0
C1359 C 0.47023 0.78391 0.57707 0.0
C1360 C 0.48721 0.82376 0.59159 0.0
C1361 C 0.44878 0.7703 0.58645 0.0
C1362 C 0.46547 0.80945 0.60072 0.0
N1363 N 0.44686 0.78324 0.59799 0.0
C1364 C 0.5203 0.7716 0.56339 0.0
C1365 C 0.53007 0.78 0.53912 0.0
C1366 C 0.51023 0.74412 0.56135 0.0
N1367 N 0.5289 0.78868 0.55227 0.0
C1368 C 0.52019 0.75263 0.53658 0.0
C1369 C 0.50916 0.73415 0.54771 0.0
H1370 H 0.51968 0.7791 0.57374 0.0
H1371 H 0.53729 0.79404 0.53046 0.0
C1372 C 0.46992 0.84881 0.53908 0.0
N1373 N 0.47643 0.84628 0.55249 0.0
C1374 C 0.44425 0.84437 0.53597 0.0
C1375 C 0.43322 0.83699 0.56065 0.0
C1376 C 0.459 0.84151 0.56325 0.0
C1377 C 0.42527 0.83765 0.5468 0.0
H1378 H 0.48441 0.85361 0.53072 0.0
H1379 H 0.46485 0.84084 0.57387 0.0
O1380 O 0.57037 0.8529 0.56192 0.0
O1381 O 0.54065 0.88485 0.56204 0.0
O1382 O 0.52595 0.8402 0.5392 0.0
O1383 O 0.51112 0.82443 0.57069 0.0
H1384 H 0.61128 0.85374 0.57482 0.0
H1385 H 0.5729 0.84368 0.53473 0.0
H1386 H 0.64599 0.84683 0.56314 0.0
H1387 H 0.60817 0.83693 0.52379 0.0
H1388 H 0.4867 0.91424 0.57989 0.0
H1389 H 0.53846 0.91024 0.53943 0.0
H1390 H 0.51181 0.88995 0.58229 0.0
H1391 H 0.51274 0.93407 0.53777 0.0
H1392 H 0.64577 0.95103 0.53727 0.0
H1393 H 0.58586 0.92154 0.50429 0.0
H1394 H 0.55277 0.8416 0.62396 0.0
H1395 H 0.5638 0.91983 0.61409 0.0
H1396 H 0.47909 0.79922 0.54774 0.0
H1397 H 0.52977 0.83639 0.51172 0.0
H1398 H 0.44542 0.76318 0.53227 0.0
H1399 H 0.49511 0.79983 0.4968 0.0
H1400 H 0.47177 0.77341 0.568 0.0
H1401 H 0.50162 0.84471 0.59368 0.0
H1402 H 0.4337 0.74941 0.58459 0.0
H1403 H 0.46336 0.81921 0.60996 0.0
H1404 H 0.50173 0.73067 0.57024 0.0
H1405 H 0.52015 0.74588 0.52595 0.0
H1406 H 0.43915 0.84562 0.52517 0.0
H1407 H 0.41932 0.83185 0.56936 0.0
Li1408 Li 0.15056 0.65755 0.5583 0.0
Li1409 Li 0.17748 0.70728 0.55939 0.0
Li1410 Li 0.14429 0.68159 0.57786 0.0
Li1411 Li 0.13082 0.68621 0.55502 0.0
C1412 C 0.18386 0.67038 0.58345 0.0
N1413 N 0.19721 0.65035 0.60639 0.0
C1414 C 0.20795 0.68666 0.59063 0.0
C1415 C 0.16651 0.64394 0.58793 0.0
C1416 C 0.21437 0.67614 0.6022 0.0
C1417 C 0.17362 0.63419 0.59956 0.0
C1418 C 0.17528 0.6966 0.53224 0.0
C1419 C 0.20071 0.73573 0.5176 0.0
N1420 N 0.21212 0.72303 0.51094 0.0
C1421 C 0.18701 0.68381 0.52513 0.0
C1422 C 0.18193 0.72265 0.52833 0.0
C1423 C 0.20568 0.69754 0.51443 0.0
C1424 C 0.13434 0.60118 0.55305 0.0
N1425 N 0.15447 0.62748 0.5535 0.0
C1426 C 0.18734 0.61518 0.54804 0.0
C1427 C 0.18057 0.63463 0.55122 0.0
C1428 C 0.16707 0.5879 0.54731 0.0
C1429 C 0.14024 0.58094 0.54991 0.0
H1430 H 0.1138 0.59573 0.5553 0.0
H1431 H 0.19622 0.65559 0.55201 0.0
C1432 C 0.22176 0.76214 0.55747 0.0
N1433 N 0.2133 0.73548 0.55608 0.0
C1434 C 0.24899 0.78149 0.55542 0.0
C1435 C 0.25779 0.74544 0.55035 0.0
C1436 C 0.23062 0.72692 0.55259 0.0
C1437 C 0.26738 0.77314 0.55186 0.0
H1438 H 0.20748 0.76831 0.56034 0.0
H1439 H 0.22328 0.70557 0.55172 0.0
C1440 C 0.09485 0.63092 0.55957 0.0
N1441 N 0.05204 0.58844 0.54579 0.0
C1442 C 0.09497 0.629 0.54491 0.0
C1443 C 0.07287 0.6112 0.56718 0.0
C1444 C 0.07314 0.60741 0.53816 0.0
C1445 C 0.05147 0.58987 0.56003 0.0
C1446 C 0.13748 0.72842 0.56862 0.0
C1447 C 0.11702 0.72167 0.57851 0.0
C1448 C 0.14252 0.74777 0.55839 0.0
C1449 C 0.10165 0.73418 0.57787 0.0
C1450 C 0.12667 0.75979 0.55808 0.0
N1451 N 0.10673 0.75279 0.56774 0.0
C1452 C 0.15587 0.69987 0.60585 0.0
C1453 C 0.1172 0.6565 0.60289 0.0
C1454 C 0.15285 0.69772 0.62044 0.0
N1455 N 0.13823 0.67933 0.59747 0.0
C1456 C 0.11342 0.65347 0.61739 0.0
C1457 C 0.13154 0.67414 0.62638 0.0
H1458 H 0.1726 0.71766 0.6012 0.0
H1459 H 0.10369 0.64044 0.59595 0.0
C1460 C 0.106 0.69471 0.53137 0.0
N1461 N 0.10306 0.68798 0.54519 0.0
C1462 C 0.084 0.69159 0.52367 0.0
C1463 C 0.05676 0.67579 0.54473 0.0
C1464 C 0.07926 0.67921 0.55201 0.0
C1465 C 0.05877 0.68122 0.53027 0.0
H1466 H 0.12499 0.70114 0.52615 0.0
H1467 H 0.07743 0.67364 0.56296 0.0
O1468 O 0.17697 0.68056 0.57233 0.0
O1469 O 0.15734 0.68367 0.54293 0.0
O1470 O 0.11574 0.65211 0.5665 0.0
O1471 O 0.15236 0.71599 0.56892 0.0
H1472 H 0.22149 0.70723 0.58731 0.0
H1473 H 0.14758 0.63122 0.5826 0.0
H1474 H 0.23295 0.68849 0.60787 0.0
H1475 H 0.16035 0.61381 0.60319 0.0
H1476 H 0.20624 0.75601 0.51458 0.0
H1477 H 0.18168 0.66346 0.52777 0.0
H1478 H 0.17298 0.73281 0.53368 0.0
H1479 H 0.215 0.68792 0.50889 0.0
H1480 H 0.20837 0.62143 0.5465 0.0
H1481 H 0.12402 0.56012 0.54952 0.0
H1482 H 0.25562 0.80267 0.55669 0.0
H1483 H 0.27131 0.73806 0.54793 0.0
H1484 H 0.11163 0.64391 0.53876 0.0
H1485 H 0.07227 0.61234 0.5785 0.0
H1486 H 0.073 0.60573 0.52683 0.0
H1487 H 0.03438 0.57447 0.56581 0.0
H1488 H 0.11285 0.7067 0.58649 0.0
H1489 H 0.15838 0.75334 0.55072 0.0
H1490 H 0.08563 0.72903 0.58539 0.0
H1491 H 0.13023 0.77467 0.55017 0.0
H1492 H 0.16748 0.71397 0.62699 0.0
H1493 H 0.09656 0.6351 0.62152 0.0
H1494 H 0.08632 0.69563 0.5125 0.0
H1495 H 0.03772 0.6679 0.55022 0.0
Li1496 Li 0.28456 0.46465 0.55848 0.0
Li1497 Li 0.33338 0.4912 0.56011 0.0
Li1498 Li 0.31172 0.44501 0.55259 0.0
Li1499 Li 0.30892 0.4561 0.57741 0.0
C1500 C 0.3113 0.4949 0.53482 0.0
N1501 N 0.31077 0.53454 0.51878 0.0
C1502 C 0.31098 0.51658 0.54131 0.0
C1503 C 0.31144 0.49346 0.52017 0.0
C1504 C 0.31067 0.53638 0.53302 0.0
C1505 C 0.31116 0.51369 0.51224 0.0
C1506 C 0.3086 0.50634 0.58396 0.0
C1507 C 0.32427 0.52752 0.60661 0.0
N1508 N 0.31119 0.54137 0.60469 0.0
C1509 C 0.29546 0.52096 0.58219 0.0
C1510 C 0.32322 0.50975 0.59626 0.0
C1511 C 0.29696 0.53851 0.5928 0.0
C1512 C 0.23984 0.46791 0.56664 0.0
N1513 N 0.25275 0.46607 0.5551 0.0
C1514 C 0.22535 0.47535 0.54007 0.0
C1515 C 0.24507 0.46833 0.54194 0.0
C1516 C 0.21345 0.47995 0.55187 0.0
C1517 C 0.2201 0.47498 0.56528 0.0
H1518 H 0.24623 0.46571 0.57698 0.0
H1519 H 0.25518 0.4661 0.5329 0.0
C1520 C 0.37741 0.53386 0.54501 0.0
N1521 N 0.36466 0.52644 0.55767 0.0
C1522 C 0.40059 0.55923 0.54333 0.0
C1523 C 0.39741 0.56847 0.56781 0.0
C1524 C 0.37427 0.54318 0.56896 0.0
C1525 C 0.41088 0.57682 0.55488 0.0
H1526 H 0.3697 0.52001 0.53623 0.0
H1527 H 0.36434 0.53675 0.57897 0.0
C1528 C 0.25721 0.40896 0.55838 0.0
N1529 N 0.21306 0.36755 0.54492 0.0
C1530 C 0.23847 0.38631 0.56592 0.0
C1531 C 0.25351 0.41058 0.54399 0.0
C1532 C 0.21628 0.36558 0.55892 0.0
C1533 C 0.23105 0.38943 0.53738 0.0
C1534 C 0.36858 0.47674 0.56493 0.0
C1535 C 0.38018 0.4743 0.55251 0.0
C1536 C 0.38513 0.49425 0.57548 0.0
C1537 C 0.40815 0.48948 0.55082 0.0
C1538 C 0.41301 0.50913 0.57337 0.0
N1539 N 0.42385 0.50646 0.56119 0.0
C1540 C 0.32225 0.42481 0.52778 0.0
C1541 C 0.30968 0.39629 0.54771 0.0
C1542 C 0.32701 0.40698 0.52005 0.0
N1543 N 0.31428 0.41937 0.5414 0.0
C1544 C 0.31404 0.37783 0.54036 0.0
C1545 C 0.32342 0.38337 0.52643 0.0
H1546 H 0.32597 0.4435 0.52312 0.0
H1547 H 0.30332 0.39262 0.55858 0.0
C1548 C 0.28426 0.43742 0.60382 0.0
N1549 N 0.30735 0.44592 0.59638 0.0
C1550 C 0.28392 0.43339 0.61829 0.0
C1551 C 0.331 0.44658 0.61703 0.0
C1552 C 0.33018 0.44957 0.60256 0.0
C1553 C 0.30779 0.43887 0.62521 0.0
H1554 H 0.26635 0.43455 0.59856 0.0
H1555 H 0.34815 0.45602 0.59634 0.0
O1556 O 0.31144 0.47509 0.54267 0.0
O1557 O 0.30644 0.48822 0.5739 0.0
O1558 O 0.27903 0.42936 0.56512 0.0
O1559 O 0.34114 0.46262 0.5666 0.0
H1560 H 0.31101 0.51817 0.55259 0.0
H1561 H 0.31167 0.47681 0.51498 0.0
H1562 H 0.31037 0.55322 0.53791 0.0
H1563 H 0.31123 0.51279 0.5009 0.0
H1564 H 0.33557 0.53034 0.61615 0.0
H1565 H 0.2842 0.51883 0.57273 0.0
H1566 H 0.3341 0.49923 0.5977 0.0
H1567 H 0.28679 0.54984 0.59158 0.0
H1568 H 0.2204 0.47839 0.52953 0.0
H1569 H 0.21163 0.47842 0.57469 0.0
H1570 H 0.41051 0.56491 0.5332 0.0
H1571 H 0.40449 0.58153 0.57694 0.0
H1572 H 0.24108 0.38479 0.57707 0.0
H1573 H 0.2678 0.42791 0.53797 0.0
H1574 H 0.20161 0.34792 0.56463 0.0
H1575 H 0.22794 0.3904 0.52625 0.0
H1576 H 0.36775 0.46103 0.5442 0.0
H1577 H 0.37653 0.4969 0.58504 0.0
H1578 H 0.41738 0.48783 0.54123 0.0
H1579 H 0.42601 0.52297 0.58138 0.0
H1580 H 0.33462 0.41228 0.50942 0.0
H1581 H 0.31068 0.35973 0.54562 0.0
H1582 H 0.26527 0.42666 0.62399 0.0
H1583 H 0.35005 0.45149 0.62172 0.0
H1584 H 0.35428 0.33609 0.19381 0.0
H1585 H 0.40765 0.34323 0.15999 0.0
H1586 H 0.37029 0.32616 0.14338 0.0
H1587 H 0.32197 0.30583 0.13884 0.0
H1588 H 0.26812 0.29717 0.17268 0.0
H1589 H 0.30631 0.31907 0.18884 0.0
C1590 C 0.35782 0.33442 0.18276 0.0
C1591 C 0.38362 0.34067 0.17815 0.0
C1592 C 0.33618 0.32432 0.17329 0.0
C1593 C 0.38787 0.33814 0.16382 0.0
C1594 C 0.36655 0.32847 0.15432 0.0
C1595 C 0.31863 0.30887 0.14975 0.0
C1596 C 0.29227 0.29964 0.15461 0.0
C1597 C 0.34054 0.32089 0.159 0.0
C1598 C 0.28825 0.30421 0.16868 0.0
C1599 C 0.31005 0.31652 0.17794 0.0
H1600 H 0.73654 0.02582 0.15579 0.0
H1601 H 0.66047 0.96869 0.13693 0.0
H1602 H 0.63788 0.98791 0.15046 0.0
H1603 H 0.64038 0.02234 0.16705 0.0
H1604 H 0.71703 0.07898 0.18564 0.0
H1605 H 0.73874 0.05838 0.17287 0.0
C1606 C 0.71491 0.01716 0.15483 0.0
C1607 C 0.70017 0.99573 0.14545 0.0
C1608 C 0.70222 0.02839 0.16251 0.0
C1609 C 0.67228 0.98527 0.14405 0.0
C1610 C 0.65937 0.99622 0.1518 0.0
C1611 C 0.66177 0.02994 0.16838 0.0
C1612 C 0.67713 0.05234 0.17715 0.0
C1613 C 0.67422 0.01799 0.16096 0.0
C1614 C 0.70486 0.06211 0.17874 0.0
C1615 C 0.71728 0.05025 0.17151 0.0
H1616 H 0.96527 0.65935 0.20089 0.0
H1617 H 0.99429 0.61666 0.17585 0.0
H1618 H 0.01424 0.65398 0.15904 0.0
H1619 H 0.01903 0.69662 0.15025 0.0
H1620 H 0.98719 0.73725 0.17479 0.0
H1621 H 0.9732 0.70318 0.19321 0.0
C1622 C 0.9766 0.65851 0.19196 0.0
C1623 C 0.97838 0.63534 0.18962 0.0
C1624 C 0.98735 0.67964 0.18223 0.0
C1625 C 0.99257 0.63428 0.17782 0.0
C1626 C 0.00394 0.65557 0.16822 0.0
C1627 C 0.00956 0.69817 0.1598 0.0
C1628 C 0.00409 0.71921 0.16129 0.0
C1629 C 0.00083 0.67804 0.17012 0.0
C1630 C 0.99151 0.72109 0.17353 0.0
C1631 C 0.98346 0.70162 0.184 0.0
H1632 H 0.34604 0.38433 0.8356 0.0
H1633 H 0.32707 0.3357 0.79805 0.0
H1634 H 0.31415 0.29585 0.81226 0.0
H1635 H 0.30362 0.27393 0.83528 0.0
H1636 H 0.31703 0.32193 0.87267 0.0
H1637 H 0.33706 0.3627 0.8586 0.0
C1638 C 0.339 0.36502 0.83049 0.0
C1639 C 0.33728 0.36311 0.81575 0.0
C1640 C 0.33055 0.34193 0.83872 0.0
C1641 C 0.32888 0.33798 0.80935 0.0
C1642 C 0.32121 0.31505 0.81748 0.0
C1643 C 0.31086 0.29327 0.84039 0.0
C1644 C 0.3085 0.29459 0.85506 0.0
C1645 C 0.32124 0.31666 0.83217 0.0
C1646 C 0.3188 0.32006 0.86146 0.0
C1647 C 0.33 0.34349 0.85339 0.0
H1648 H 0.72638 0.97516 0.83079 0.0
H1649 H 0.70452 0.02794 0.85173 0.0
H1650 H 0.66294 0.00882 0.83792 0.0
H1651 H 0.63147 0.97482 0.82091 0.0
H1652 H 0.65376 0.92173 0.80067 0.0
H1653 H 0.69671 0.94349 0.81307 0.0
C1654 C 0.71285 0.98296 0.83212 0.0
C1655 C 0.71857 0.00302 0.8422 0.0
C1656 C 0.68895 0.97162 0.82435 0.0
C1657 C 0.70047 0.0124 0.84405 0.0
C1658 C 0.67673 0.00149 0.83616 0.0
C1659 C 0.64593 0.96831 0.81913 0.0
C1660 C 0.63941 0.94654 0.81004 0.0
C1661 C 0.67053 0.98074 0.82645 0.0
C1662 C 0.6582 0.93816 0.80782 0.0
C1663 C 0.68278 0.95064 0.81485 0.0
H1664 H 0.03024 0.642 0.82983 0.0
H1665 H 0.03965 0.69611 0.79614 0.0
H1666 H 0.01786 0.71499 0.81032 0.0
H1667 H 0.0004 0.71922 0.83291 0.0
H1668 H 0.98899 0.66416 0.8665 0.0
H1669 H 0.00728 0.64251 0.85165 0.0
C1670 C 0.02699 0.6575 0.82548 0.0
C1671 C 0.03699 0.66794 0.81203 0.0
C1672 C 0.01438 0.6683 0.8337 0.0
C1673 C 0.03273 0.68816 0.80659 0.0
C1674 C 0.02017 0.6989 0.81466 0.0
C1675 C 0.00112 0.70199 0.83693 0.0
C1676 C 0.9935 0.69357 0.85089 0.0
C1677 C 0.01152 0.68958 0.82834 0.0
C1678 C 0.99518 0.67149 0.85589 0.0
C1679 C 0.00555 0.65899 0.84739 0.0
H1680 H 0.96927 0.65426 0.48464 0.0
H1681 H 0.93049 0.57957 0.50773 0.0
H1682 H 0.96668 0.59853 0.52508 0.0
H1683 H 0.01126 0.63444 0.53227 0.0
H1684 H 0.05154 0.70883 0.50893 0.0
H1685 H 0.01286 0.69197 0.49306 0.0
C1686 C 0.96861 0.64242 0.49363 0.0
C1687 C 0.94748 0.61557 0.49492 0.0
C1688 C 0.98983 0.65328 0.5034 0.0
C1689 C 0.94679 0.60022 0.5065 0.0
C1690 C 0.96743 0.61103 0.5164 0.0
C1691 C 0.01133 0.64727 0.52393 0.0
C1692 C 0.0342 0.67285 0.52178 0.0
C1693 C 0.98934 0.63728 0.51476 0.0
C1694 C 0.03421 0.68897 0.51073 0.0
C1695 C 0.01212 0.67935 0.50167 0.0
H1696 H 0.31537 0.36803 0.49891 0.0
H1697 H 0.35029 0.3598 0.53727 0.0
H1698 H 0.36819 0.33532 0.52469 0.0
H1699 H 0.37756 0.31998 0.50249 0.0
H1700 H 0.34524 0.33076 0.46386 0.0
H1701 H 0.32251 0.3502 0.47686 0.0
C1702 C 0.32684 0.36082 0.50452 0.0
C1703 C 0.33159 0.36592 0.51899 0.0
C1704 C 0.33764 0.34727 0.49716 0.0
C1705 C 0.34605 0.35595 0.52616 0.0
C1706 C 0.35652 0.34213 0.51895 0.0
C1707 C 0.36546 0.32651 0.49692 0.0
C1708 C 0.36331 0.32415 0.48223 0.0
C1709 C 0.35299 0.33825 0.50441 0.0
C1710 C 0.34709 0.33216 0.47519 0.0
C1711 C 0.33427 0.3435 0.4826 0.0
H1712 H 0.6796 0.05236 0.48993 0.0
H1713 H 0.65714 0.00148 0.45319 0.0
H1714 H 0.64076 0.9616 0.46804 0.0
H1715 H 0.62798 0.94098 0.49139 0.0
H1716 H 0.64825 0.99183 0.52809 0.0
H1717 H 0.67114 0.03194 0.51338 0.0
C1718 C 0.67181 0.03262 0.48519 0.0
C1719 C 0.66936 0.02979 0.47051 0.0
C1720 C 0.66189 0.00976 0.49379 0.0
C1721 C 0.65893 0.00406 0.46449 0.0
C1722 C 0.64954 0.98129 0.47296 0.0
C1723 C 0.63759 0.96085 0.49617 0.0
C1724 C 0.63609 0.96338 0.5108 0.0
C1725 C 0.65007 0.98383 0.48762 0.0
C1726 C 0.64918 0.98926 0.51687 0.0
C1727 C 0.66209 0.01224 0.50845 0.0
H1728 H 0.02774 0.13981 0.12902 0.0
H1729 H 0.02708 0.1974 0.10035 0.0
H1730 H 0.97817 0.16902 0.09798 0.0
H1731 H 0.93609 0.12617 0.10276 0.0
H1732 H 0.93745 0.06918 0.13158 0.0
H1733 H 0.9855 0.09957 0.13556 0.0
C1734 C 0.01694 0.14666 0.12255 0.0
C1735 C 0.03123 0.17073 0.11482 0.0
C1736 C 0.98888 0.1303 0.12125 0.0
C1737 C 0.01672 0.17879 0.10626 0.0
C1738 C 0.98872 0.16261 0.10493 0.0
C1739 C 0.94691 0.12054 0.10999 0.0
C1740 C 0.93323 0.09539 0.1168 0.0
C1741 C 0.97468 0.13801 0.11213 0.0
C1742 C 0.94741 0.08851 0.12629 0.0
C1743 C 0.97495 0.10578 0.1285 0.0
H1744 H 0.84704 0.88515 0.12463 0.0
H1745 H 0.81439 0.84539 0.085 0.0
H1746 H 0.84172 0.824 0.08619 0.0
H1747 H 0.87805 0.82024 0.09734 0.0
H1748 H 0.91038 0.85982 0.13705 0.0
H1749 H 0.87975 0.87747 0.13701 0.0
C1750 C 0.84533 0.87125 0.11642 0.0
C1751 C 0.8288 0.86702 0.1047 0.0
C1752 C 0.86127 0.85924 0.1171 0.0
C1753 C 0.82723 0.84929 0.09405 0.0
C1754 C 0.84282 0.83703 0.09473 0.0
C1755 C 0.87798 0.8322 0.10616 0.0
C1756 C 0.8967 0.83892 0.11711 0.0
C1757 C 0.86041 0.8424 0.10603 0.0
C1758 C 0.89654 0.85475 0.12836 0.0
C1759 C 0.87896 0.86477 0.12837 0.0
H1760 H 0.1301 0.0543 0.09674 0.0
H1761 H 0.17571 0.06801 0.13474 0.0
H1762 H 0.16353 0.02047 0.13503 0.0
H1763 H 0.13733 0.97436 0.12512 0.0
H1764 H 0.09211 0.96168 0.08697 0.0
H1765 H 0.10702 0.0095 0.08596 0.0
C1766 C 0.13742 0.04682 0.10505 0.0
C1767 C 0.15342 0.06433 0.1158 0.0
C1768 C 0.13047 0.01971 0.10508 0.0
C1769 C 0.16328 0.05473 0.12638 0.0
C1770 C 0.15626 0.0276 0.12656 0.0
C1771 C 0.13098 0.98218 0.11654 0.0
C1772 C 0.1137 0.96449 0.10613 0.0
C1773 C 0.13949 0.0098 0.11607 0.0
C1774 C 0.10574 0.97489 0.095 0.0
C1775 C 0.11404 0.00221 0.09448 0.0
H1776 H 0.12999 0.93983 0.90235 0.0
H1777 H 0.09054 0.93451 0.86307 0.0
H1778 H 0.11886 0.98323 0.8599 0.0
H1779 H 0.15015 0.02783 0.87 0.0
H1780 H 0.18915 0.03329 0.90943 0.0
H1781 H 0.16603 0.98408 0.91079 0.0
C1782 C 0.128 0.94935 0.89299 0.0
C1783 C 0.10806 0.93373 0.88303 0.0
C1784 C 0.14408 0.9774 0.89134 0.0
C1785 C 0.10584 0.94613 0.87084 0.0
C1786 C 0.12185 0.974 0.86909 0.0
C1787 C 0.1539 0.01816 0.87874 0.0
C1788 C 0.17103 0.03402 0.88967 0.0
C1789 C 0.14032 0.98992 0.87952 0.0
C1790 C 0.17609 0.02143 0.90088 0.0
C1791 C 0.16271 0.99332 0.90172 0.0
H1792 H 0.06959 0.14632 0.86973 0.0
H1793 H 0.07181 0.19213 0.90615 0.0
H1794 H 0.02325 0.1743 0.9042 0.0
H1795 H 0.97946 0.14077 0.89415 0.0
H1796 H 0.97709 0.09264 0.85879 0.0
H1797 H 0.02639 0.11651 0.85812 0.0
C1798 C 0.05953 0.15297 0.87698 0.0
C1799 C 0.07412 0.17039 0.88809 0.0
C1800 C 0.03153 0.14195 0.87606 0.0
C1801 C 0.06086 0.17857 0.89757 0.0
C1802 C 0.03313 0.16833 0.89647 0.0
C1803 C 0.98982 0.13607 0.88609 0.0
C1804 C 0.97482 0.11497 0.87658 0.0
C1805 C 0.01812 0.14927 0.88607 0.0
C1806 C 0.98835 0.10874 0.86627 0.0
C1807 C 0.01648 0.12232 0.86591 0.0
H1808 H 0.85779 0.82195 0.89831 0.0
H1809 H 0.90047 0.8569 0.85969 0.0
H1810 H 0.87693 0.88203 0.85715 0.0
H1811 H 0.8496 0.89911 0.86778 0.0
H1812 H 0.80928 0.8666 0.90724 0.0
H1813 H 0.82612 0.83519 0.90754 0.0
C1814 C 0.86131 0.8345 0.88916 0.0
C1815 C 0.88086 0.83776 0.87924 0.0
C1816 C 0.84836 0.84956 0.88803 0.0
C1817 C 0.88558 0.8543 0.8675 0.0
C1818 C 0.87221 0.8687 0.86607 0.0
C1819 C 0.84385 0.88458 0.87622 0.0
C1820 C 0.82837 0.88521 0.8875 0.0
C1821 C 0.85432 0.86724 0.87654 0.0
C1822 C 0.82137 0.86657 0.89849 0.0
C1823 C 0.83105 0.84869 0.89869 0.0
H1824 H 0.69631 0.46567 0.46455 0.0
H1825 H 0.68678 0.52253 0.43947 0.0
H1826 H 0.63808 0.49088 0.43817 0.0
H1827 H 0.59891 0.44532 0.44252 0.0
H1828 H 0.60968 0.38867 0.46707 0.0
H1829 H 0.65722 0.42222 0.47046 0.0
C1830 C 0.68355 0.47154 0.45912 0.0
C1831 C 0.69518 0.4965 0.45217 0.0
C1832 C 0.65581 0.45316 0.45824 0.0
C1833 C 0.67834 0.50338 0.44485 0.0
C1834 C 0.65052 0.4853 0.44411 0.0
C1835 C 0.61162 0.44059 0.44882 0.0
C1836 C 0.60095 0.41456 0.45446 0.0
C1837 C 0.63912 0.45987 0.45051 0.0
C1838 C 0.6176 0.4085 0.4625 0.0
C1839 C 0.64473 0.42766 0.46445 0.0
H1840 H 0.50504 0.20601 0.46368 0.0
H1841 H 0.46729 0.16213 0.42566 0.0
H1842 H 0.49557 0.14171 0.42605 0.0
H1843 H 0.53467 0.14082 0.43558 0.0
H1844 H 0.57247 0.18491 0.47355 0.0
H1845 H 0.54023 0.20056 0.47485 0.0
C1846 C 0.50239 0.19136 0.4557 0.0
C1847 C 0.4842 0.18576 0.4446 0.0
C1848 C 0.51898 0.18003 0.45587 0.0
C1849 C 0.48139 0.16706 0.43422 0.0
C1850 C 0.49756 0.15539 0.43443 0.0
C1851 C 0.53544 0.15326 0.44435 0.0
C1852 C 0.55618 0.16194 0.45435 0.0
C1853 C 0.517 0.1624 0.44496 0.0
C1854 C 0.55703 0.17835 0.46556 0.0
C1855 C 0.53856 0.18725 0.46633 0.0
H1856 H 0.83219 0.39005 0.4382 0.0
H1857 H 0.77661 0.38227 0.47097 0.0
H1858 H 0.75919 0.33389 0.47211 0.0
H1859 H 0.75679 0.29345 0.46231 0.0
H1860 H 0.81323 0.30095 0.43012 0.0
H1861 H 0.83346 0.34992 0.43039 0.0
C1862 C 0.81668 0.37791 0.44581 0.0
C1863 C 0.80544 0.38979 0.45432 0.0
C1864 C 0.80676 0.35002 0.44645 0.0
C1865 C 0.78518 0.37361 0.46404 0.0
C1866 C 0.77529 0.34593 0.46476 0.0
C1867 C 0.774 0.30574 0.45561 0.0
C1868 C 0.78328 0.2934 0.44613 0.0
C1869 C 0.7855 0.33384 0.45579 0.0
C1870 C 0.80534 0.30982 0.43736 0.0
C1871 C 0.81697 0.33785 0.43753 0.0
H1872 H 0.77242 0.27966 0.23159 0.0
H1873 H 0.73606 0.28172 0.19244 0.0
H1874 H 0.76684 0.3304 0.19088 0.0
H1875 H 0.8006 0.37288 0.20195 0.0
H1876 H 0.83617 0.37103 0.2414 0.0
H1877 H 0.8095 0.32176 0.24146 0.0
C1878 C 0.77145 0.29078 0.22266 0.0
C1879 C 0.75184 0.27722 0.21223 0.0
C1880 C 0.78898 0.31878 0.22192 0.0
C1881 C 0.75106 0.29171 0.20058 0.0
C1882 C 0.76851 0.31956 0.19973 0.0
C1883 C 0.80269 0.36163 0.21047 0.0
C1884 C 0.82007 0.37552 0.22173 0.0
C1885 C 0.78702 0.33338 0.21053 0.0
C1886 C 0.82299 0.36077 0.23259 0.0
C1887 C 0.80759 0.33262 0.23269 0.0
H1888 H 0.72442 0.49143 0.20552 0.0
H1889 H 0.73978 0.53627 0.24416 0.0
H1890 H 0.69217 0.52269 0.24583 0.0
H1891 H 0.64545 0.49416 0.23762 0.0
H1892 H 0.6302 0.44659 0.19992 0.0
H1893 H 0.67836 0.46543 0.19652 0.0
C1894 C 0.71737 0.49833 0.21428 0.0
C1895 C 0.7356 0.51459 0.22477 0.0
C1896 C 0.68989 0.48988 0.21538 0.0
C1897 C 0.72625 0.52387 0.23588 0.0
C1898 C 0.69895 0.51592 0.23692 0.0
C1899 C 0.65265 0.488 0.22863 0.0
C1900 C 0.63406 0.46886 0.2191 0.0
C1901 C 0.68047 0.4983 0.22693 0.0
C1902 C 0.64389 0.46154 0.20735 0.0
C1903 C 0.6715 0.47209 0.20545 0.0
H1904 H 0.49591 0.23067 0.20803 0.0
H1905 H 0.51821 0.2443 0.2518 0.0
H1906 H 0.52972 0.20896 0.25108 0.0
H1907 H 0.53774 0.17756 0.2375 0.0
H1908 H 0.51619 0.16402 0.19367 0.0
H1909 H 0.49963 0.19563 0.19499 0.0
C1910 C 0.50276 0.22551 0.21748 0.0
C1911 C 0.50654 0.24035 0.2299 0.0
C1912 C 0.50955 0.20526 0.21697 0.0
C1913 C 0.51564 0.23356 0.24203 0.0
C1914 C 0.52211 0.21327 0.24165 0.0
C1915 C 0.5287 0.1809 0.22833 0.0
C1916 C 0.52819 0.16847 0.21551 0.0
C1917 C 0.51975 0.19944 0.22911 0.0
C1918 C 0.51694 0.17349 0.20365 0.0
C1919 C 0.50753 0.19159 0.20439 0.0
H1920 H 0.27456 0.77474 0.76868 0.0
H1921 H 0.282 0.73443 0.80505 0.0
H1922 H 0.33021 0.76705 0.80611 0.0
H1923 H 0.37075 0.80399 0.79531 0.0
H1924 H 0.36346 0.8451 0.75928 0.0
H1925 H 0.31451 0.81538 0.75966 0.0
C1926 C 0.28656 0.77342 0.77705 0.0
C1927 C 0.27466 0.75185 0.78664 0.0
C1928 C 0.31432 0.79228 0.77762 0.0
C1929 C 0.29069 0.7504 0.79732 0.0
C1930 C 0.31826 0.76914 0.79799 0.0
C1931 C 0.35847 0.80704 0.78778 0.0
C1932 C 0.37086 0.82665 0.77721 0.0
C1933 C 0.33039 0.78976 0.78799 0.0
C1934 C 0.35452 0.82991 0.7674 0.0
C1935 C 0.32651 0.81292 0.76762 0.0
H1936 H 0.20559 0.47386 0.77935 0.0
H1937 H 0.27091 0.54675 0.79711 0.0
H1938 H 0.24059 0.56414 0.8013 0.0
H1939 H 0.19721 0.56085 0.79745 0.0
H1940 H 0.13192 0.48933 0.77852 0.0
H1941 H 0.16043 0.46907 0.77723 0.0
C1942 C 0.2129 0.49328 0.78438 0.0
C1943 C 0.24032 0.50911 0.78791 0.0
C1944 C 0.19548 0.50347 0.78639 0.0
C1945 C 0.24983 0.53437 0.79428 0.0
C1946 C 0.23255 0.54431 0.79665 0.0
C1947 C 0.18891 0.54051 0.79341 0.0
C1948 C 0.16245 0.52657 0.78814 0.0
C1949 C 0.20554 0.52934 0.79241 0.0
C1950 C 0.15228 0.5005 0.78259 0.0
C1951 C 0.16857 0.48894 0.78184 0.0
H1952 H 0.4692 0.7078 0.794 0.0
H1953 H 0.52391 0.72588 0.75922 0.0
H1954 H 0.51387 0.67915 0.75886 0.0
H1955 H 0.48582 0.63215 0.76687 0.0
H1956 H 0.42994 0.61432 0.80116 0.0
H1957 H 0.44457 0.66191 0.80347 0.0
C1958 C 0.47907 0.7015 0.78643 0.0
C1959 C 0.49698 0.72008 0.77655 0.0
C1960 C 0.473 0.67463 0.7862 0.0
C1961 C 0.51006 0.7119 0.76695 0.0
C1962 C 0.50421 0.68517 0.76669 0.0
C1963 C 0.4771 0.63876 0.77495 0.0
C1964 C 0.45675 0.61963 0.78377 0.0
C1965 C 0.48516 0.66619 0.77603 0.0
C1966 C 0.4459 0.62856 0.79433 0.0
C1967 C 0.45402 0.65579 0.79556 0.0
H1968 H 0.50863 0.69437 0.56343 0.0
H1969 H 0.47451 0.70743 0.5261 0.0
H1970 H 0.44332 0.65905 0.52391 0.0
H1971 H 0.42147 0.61382 0.53448 0.0
H1972 H 0.45399 0.6012 0.5725 0.0
H1973 H 0.4898 0.64853 0.57262 0.0
C1974 C 0.49452 0.68661 0.55474 0.0
C1975 C 0.49378 0.70459 0.54505 0.0
C1976 C 0.47603 0.65882 0.55379 0.0
C1977 C 0.47574 0.69411 0.53368 0.0
C1978 C 0.45765 0.66642 0.53249 0.0
C1979 C 0.43677 0.62132 0.5426 0.0
C1980 C 0.43491 0.60418 0.55357 0.0
C1981 C 0.45701 0.64869 0.54274 0.0
C1982 C 0.45477 0.61418 0.56408 0.0
C1983 C 0.47525 0.6412 0.56414 0.0
H1984 H 0.30195 0.77416 0.53205 0.0
H1985 H 0.29874 0.81563 0.56919 0.0
H1986 H 0.34798 0.84232 0.56974 0.0
H1987 H 0.39169 0.84948 0.56148 0.0
H1988 H 0.39438 0.80548 0.52528 0.0
H1989 H 0.34575 0.78456 0.52244 0.0
C1990 C 0.31205 0.78924 0.54019 0.0
C1991 C 0.29674 0.79263 0.55068 0.0
C1992 C 0.34031 0.80396 0.54066 0.0
C1993 C 0.31005 0.81266 0.56097 0.0
C1994 C 0.33822 0.82776 0.56136 0.0
C1995 C 0.38165 0.83547 0.5529 0.0
C1996 C 0.39666 0.82883 0.54372 0.0
C1997 C 0.35352 0.82289 0.55155 0.0
C1998 C 0.38343 0.81113 0.53246 0.0
C1999 C 0.35554 0.79893 0.5309 0.0
H2000 H 0.22307 0.52081 0.53429 0.0
H2001 H 0.16808 0.46988 0.56656 0.0
H2002 H 0.14704 0.49763 0.56711 0.0
H2003 H 0.14787 0.5393 0.56028 0.0
H2004 H 0.20301 0.5898 0.52794 0.0
H2005 H 0.22017 0.55901 0.52546 0.0
C2006 C 0.20596 0.51523 0.54117 0.0
C2007 C 0.19731 0.49338 0.55044 0.0
C2008 C 0.19422 0.53142 0.54155 0.0
C2009 C 0.1754 0.48683 0.55945 0.0
C2010 C 0.16335 0.50268 0.55977 0.0
C2011 C 0.1632 0.54324 0.55247 0.0
C2012 C 0.17443 0.56704 0.54446 0.0
C2013 C 0.17314 0.5255 0.55116 0.0
C2014 C 0.19443 0.57192 0.53445 0.0
C2015 C 0.20419 0.55428 0.53298 0.0
H2016 H 0.19063 0.18562 0.02756 0.0
H2017 H 0.24692 0.27121 0.02904 0.0
H2018 H 0.25904 0.27048 0.00439 0.0
H2019 H 0.25249 0.24546 0.98225 0.0
H2020 H 0.19626 0.1597 0.98113 0.0
H2021 H 0.18554 0.16043 0.00587 0.0
C2022 C 0.20543 0.20411 0.02243 0.0
C2023 C 0.21763 0.22848 0.02997 0.0
C2024 C 0.21246 0.20344 0.00839 0.0
C2025 C 0.23724 0.25224 0.02337 0.0
C2026 C 0.24414 0.25181 0.00931 0.0
C2027 C 0.238 0.22695 0.98747 0.0
C2028 C 0.22526 0.20256 0.97989 0.0
C2029 C 0.23175 0.22754 0.00169 0.0
C2030 C 0.20667 0.17866 0.98679 0.0
C2031 C 0.20032 0.17909 0.0009 0.0
H2032 H 0.76153 0.01287 0.97166 0.0
H2033 H 0.84562 0.03621 0.97115 0.0
H2034 H 0.84406 0.0278 0.99631 0.0
H2035 H 0.81826 0.01129 0.01817 0.0
H2036 H 0.73451 0.98863 0.01918 0.0
H2037 H 0.73633 0.99918 0.99409 0.0
C2038 C 0.77952 0.0163 0.97712 0.0
C2039 C 0.80365 0.02518 0.96958 0.0
C2040 C 0.77845 0.01129 0.99161 0.0
C2041 C 0.8269 0.02975 0.97676 0.0
C2042 C 0.82598 0.0247 0.99111 0.0
C2043 C 0.80045 0.00868 0.01285 0.0
C2044 C 0.7762 0.99888 0.02034 0.0
C2045 C 0.80178 0.01506 0.99858 0.0
C2046 C 0.75333 0.99606 0.01352 0.0
C2047 C 0.75439 0.00205 0.99922 0.0
H2048 H 0.99634 0.74996 0.97852 0.0
H2049 H 0.96634 0.80506 0.9769 0.0
H2050 H 0.97228 0.8121 0.00221 0.0
H2051 H 0.98764 0.8041 0.02464 0.0
H2052 H 0.01748 0.749 0.02665 0.0
H2053 H 0.01 0.74042 0.00135 0.0
C2054 C 0.99105 0.76343 0.98375 0.0
C2055 C 0.98085 0.77691 0.97586 0.0
C2056 C 0.99463 0.76749 0.99833 0.0
C2057 C 0.97384 0.79413 0.98276 0.0
C2058 C 0.97744 0.79835 0.99721 0.0
C2059 C 0.99261 0.7903 0.0195 0.0
C2060 C 0.0034 0.77745 0.0274 0.0
C2061 C 0.98809 0.78539 0.00506 0.0
C2062 C 0.00918 0.75914 0.02073 0.0
C2063 C 0.00497 0.7543 0.00629 0.0
H2064 H 0.8655 0.56806 0.31262 0.0
H2065 H 0.9113 0.52802 0.31708 0.0
H2066 H 0.90917 0.53068 0.34263 0.0
H2067 H 0.89262 0.5426 0.36365 0.0
H2068 H 0.84688 0.5827 0.35921 0.0
H2069 H 0.85084 0.58196 0.33366 0.0
C2070 C 0.8754 0.56031 0.31918 0.0
C2071 C 0.88851 0.54783 0.31295 0.0
C2072 C 0.874 0.56181 0.33385 0.0
C2073 C 0.90081 0.53745 0.32161 0.0
C2074 C 0.89969 0.53905 0.33621 0.0
C2075 C 0.88391 0.5516 0.3571 0.0
C2076 C 0.86947 0.56269 0.36332 0.0
C2077 C 0.88611 0.55095 0.34244 0.0
C2078 C 0.85787 0.5738 0.35467 0.0
C2079 C 0.86018 0.57345 0.34008 0.0
H2080 H 0.4375 0.31385 0.30787 0.0
H2081 H 0.4665 0.39821 0.31548 0.0
H2082 H 0.46318 0.39021 0.34081 0.0
H2083 H 0.45377 0.35947 0.36073 0.0
H2084 H 0.4235 0.27497 0.35279 0.0
H2085 H 0.42523 0.28282 0.32756 0.0
C2086 C 0.44252 0.33044 0.31502 0.0
C2087 C 0.45212 0.35658 0.30974 0.0
C2088 C 0.44045 0.32569 0.3295 0.0
C2089 C 0.45928 0.37793 0.31924 0.0
C2090 C 0.45727 0.37335 0.33372 0.0
C2091 C 0.44712 0.3427 0.35348 0.0
C2092 C 0.43869 0.31669 0.35864 0.0
C2093 C 0.44813 0.34735 0.33897 0.0
C2094 C 0.43049 0.29525 0.3491 0.0
C2095 C 0.43136 0.29969 0.33467 0.0
H2096 H 0.66486 0.10139 0.34863 0.0
H2097 H 0.65013 0.16753 0.35296 0.0
H2098 H 0.63961 0.16474 0.32802 0.0
H2099 H 0.6353 0.14413 0.30493 0.0
H2100 H 0.64894 0.07735 0.30051 0.0
H2101 H 0.65895 0.07964 0.32558 0.0
C2102 C 0.65912 0.11504 0.34414 0.0
C2103 C 0.65849 0.13476 0.35266 0.0
C2104 C 0.65284 0.11318 0.32979 0.0
C2105 C 0.6513 0.15249 0.34662 0.0
C2106 C 0.64505 0.15078 0.33237 0.0
C2107 C 0.64001 0.12977 0.30949 0.0
C2108 C 0.64129 0.11055 0.30086 0.0
C2109 C 0.64581 0.13126 0.32386 0.0
C2110 C 0.64802 0.09247 0.30689 0.0
C2111 C 0.65369 0.09374 0.32123 0.0
H2112 H 0.58482 0.87537 0.64304 0.0
H2113 H 0.52601 0.89789 0.6327 0.0
H2114 H 0.51848 0.90204 0.65761 0.0
H2115 H 0.52664 0.89664 0.68235 0.0
H2116 H 0.58613 0.87523 0.69289 0.0
H2117 H 0.59559 0.87346 0.66794 0.0
C2118 C 0.57052 0.88135 0.6463 0.0
C2119 C 0.55595 0.88626 0.6361 0.0
C2120 C 0.56638 0.88383 0.66065 0.0
C2121 C 0.53763 0.89424 0.64038 0.0
C2122 C 0.5332 0.89646 0.65461 0.0
C2123 C 0.54179 0.89178 0.67914 0.0
C2124 C 0.55556 0.8859 0.68936 0.0
C2125 C 0.54717 0.89093 0.66482 0.0
C2126 C 0.57539 0.87994 0.68516 0.0
C2127 C 0.58068 0.87878 0.67091 0.0
H2128 H 0.12001 0.62949 0.64137 0.0
H2129 H 0.13704 0.71126 0.64612 0.0
H2130 H 0.13348 0.70591 0.67163 0.0
H2131 H 0.12637 0.67823 0.69259 0.0
H2132 H 0.10961 0.59658 0.68779 0.0
H2133 H 0.11193 0.60154 0.66225 0.0
C2134 C 0.12259 0.64603 0.64797 0.0
C2135 C 0.12871 0.67071 0.64185 0.0
C2136 C 0.12057 0.64283 0.66261 0.0
C2137 C 0.13255 0.69214 0.65058 0.0
C2138 C 0.1304 0.68905 0.66515 0.0
C2139 C 0.12291 0.66144 0.68593 0.0
C2140 C 0.11778 0.63707 0.69204 0.0
C2141 C 0.12451 0.66452 0.67128 0.0
C2142 C 0.11379 0.61561 0.68332 0.0
C2143 C 0.11505 0.61841 0.66873 0.0
H2144 H 0.33948 0.42675 0.64155 0.0
H2145 H 0.27935 0.45053 0.64442 0.0
H2146 H 0.28327 0.45256 0.6698 0.0
H2147 H 0.30578 0.45067 0.69121 0.0
H2148 H 0.36974 0.43269 0.68833 0.0
H2149 H 0.36303 0.42629 0.66285 0.0
C2150 C 0.32741 0.43272 0.64763 0.0
C2151 C 0.30907 0.43838 0.64087 0.0
C2152 C 0.33071 0.43524 0.66226 0.0
C2153 C 0.29319 0.44537 0.64916 0.0
C2154 C 0.29565 0.44693 0.66375 0.0
C2155 C 0.31807 0.44515 0.68496 0.0
C2156 C 0.33805 0.44192 0.6915 0.0
C2157 C 0.31457 0.44226 0.67038 0.0
C2158 C 0.35423 0.43522 0.6834 0.0
C2159 C 0.35035 0.43154 0.6689 0.0
loop_
_geom_bond_atom_site_label_1
_geom_bond_atom_site_label_2
_geom_bond_distance
_geom_bond_site_symmetry_2
_ccdc_geom_bond_type
Li0 N17 1.990 . S
Li0 O60 1.956 . S
Li0 O61 1.970 . S
Li0 O62 1.961 . S
Li1 N25 1.990 . S
Li1 O60 1.970 . S
Li1 O61 1.956 . S
Li1 O63 1.961 . S
Li2 N47 1.990 . S
Li2 O60 1.961 . S
Li2 O62 1.956 . S
Li2 O63 1.970 . S
Li3 N53 1.990 . S
Li3 O61 1.961 . S
Li3 O62 1.970 . S
Li3 O63 1.956 . S
C4 C6 1.348 . S
C4 C7 1.356 . S
C4 O60 1.325 . S
N5 C8 1.314 . S
N5 C9 1.279 . S
C6 C4 1.348 . S
C6 C8 1.353 . S
C6 H64 0.929 . S
C7 C4 1.356 . S
C7 C9 1.358 . S
C7 H65 0.930 . S
C8 N5 1.314 . S
C8 C6 1.353 . S
C8 H66 0.930 . S
C9 N5 1.279 . S
C9 C7 1.358 . S
C9 H67 0.930 . S
C10 C13 1.348 . S
C10 C14 1.356 . S
C10 O61 1.325 . S
C11 N12 1.279 . S
C11 C14 1.358 . S
C11 H68 0.930 . S
N12 C11 1.279 . S
N12 C15 1.314 . S
C13 C10 1.348 . S
C13 C15 1.353 . S
C13 H69 0.929 . S
C14 C10 1.356 . S
C14 C11 1.358 . S
C14 H70 0.930 . S
C15 N12 1.314 . S
C15 C13 1.353 . S
C15 H71 0.930 . S
C16 N17 1.314 . S
C16 C21 1.353 . S
C16 H22 0.930 . S
N17 Li0 1.990 . S
N17 C16 1.314 . S
N17 C19 1.279 . S
C18 C19 1.358 . S
C18 C20 1.356 . S
C18 H72 0.930 . S
C19 N17 1.279 . S
C19 C18 1.358 . S
C19 H23 0.930 . S
C20 C18 1.356 . S
C20 C21 1.348 . S
C21 C16 1.353 . S
C21 C20 1.348 . S
C21 H73 0.929 . S
H22 C16 0.930 . S
H23 C19 0.930 . S
C24 N25 1.314 . S
C24 C26 1.353 . S
C24 H30 0.930 . S
N25 Li1 1.990 . S
N25 C24 1.314 . S
N25 C28 1.279 . S
C26 C24 1.353 . S
C26 C29 1.348 . S
C26 H74 0.929 . S
C27 C28 1.358 . S
C27 C29 1.356 . S
C27 H75 0.930 . S
C28 N25 1.279 . S
C28 C27 1.358 . S
C28 H31 0.930 . S
C29 C26 1.348 . S
C29 C27 1.356 . S
H30 C24 0.930 . S
H31 C28 0.930 . S
C32 C34 1.348 . S
C32 C35 1.356 . S
C32 O62 1.325 . S
N33 C36 1.314 . S
N33 C37 1.279 . S
C34 C32 1.348 . S
C34 C36 1.353 . S
C34 H76 0.929 . S
C35 C32 1.356 . S
C35 C37 1.358 . S
C35 H77 0.930 . S
C36 N33 1.314 . S
C36 C34 1.353 . S
C36 H78 0.930 . S
C37 N33 1.279 . S
C37 C35 1.358 . S
C37 H79 0.930 . S
C38 C39 1.348 . S
C38 C40 1.356 . S
C38 O63 1.325 . S
C39 C38 1.348 . S
C39 C41 1.353 . S
C39 H80 0.929 . S
C40 C38 1.356 . S
C40 C42 1.358 . S
C40 H81 0.930 . S
C41 C39 1.353 . S
C41 N43 1.314 . S
C41 H82 0.930 . S
C42 C40 1.358 . S
C42 N43 1.279 . S
C42 H83 0.930 . S
N43 C41 1.314 . S
N43 C42 1.279 . S
C44 C46 1.353 . S
C44 N47 1.314 . S
C44 H50 0.930 . S
C45 N47 1.279 . S
C45 C48 1.358 . S
C45 H51 0.930 . S
C46 C44 1.353 . S
C46 C49 1.348 . S
C46 H84 0.929 . S
N47 Li2 1.990 . S
N47 C44 1.314 . S
N47 C45 1.279 . S
C48 C45 1.358 . S
C48 C49 1.356 . S
C48 H85 0.930 . S
C49 C46 1.348 . S
C49 C48 1.356 . S
H50 C44 0.930 . S
H51 C45 0.930 . S
C52 N53 1.314 . S
C52 C54 1.353 . S
C52 H58 0.930 . S
N53 Li3 1.990 . S
N53 C52 1.314 . S
N53 C56 1.279 . S
C54 C52 1.353 . S
C54 C57 1.348 . S
C54 H86 0.929 . S
C55 C56 1.358 . S
C55 C57 1.356 . S
C55 H87 0.930 . S
C56 N53 1.279 . S
C56 C55 1.358 . S
C56 H59 0.930 . S
C57 C54 1.348 . S
C57 C55 1.356 . S
H58 C52 0.930 . S
H59 C56 0.930 . S
O60 Li0 1.956 . S
O60 Li1 1.970 . S
O60 Li2 1.961 . S
O60 C4 1.325 . S
O61 Li0 1.970 . S
O61 Li1 1.956 . S
O61 Li3 1.961 . S
O61 C10 1.325 . S
O62 Li0 1.961 . S
O62 Li2 1.956 . S
O62 Li3 1.970 . S
O62 C32 1.325 . S
O63 Li1 1.961 . S
O63 Li2 1.970 . S
O63 Li3 1.956 . S
O63 C38 1.325 . S
H64 C6 0.929 . S
H65 C7 0.930 . S
H66 C8 0.930 . S
H67 C9 0.930 . S
H68 C11 0.930 . S
H69 C13 0.929 . S
H70 C14 0.930 . S
H71 C15 0.930 . S
H72 C18 0.930 . S
H73 C21 0.929 . S
H74 C26 0.929 . S
H75 C27 0.930 . S
H76 C34 0.929 . S
H77 C35 0.930 . S
H78 C36 0.930 . S
H79 C37 0.930 . S
H80 C39 0.929 . S
H81 C40 0.930 . S
H82 C41 0.930 . S
H83 C42 0.930 . S
H84 C46 0.929 . S
H85 C48 0.930 . S
H86 C54 0.929 . S
H87 C55 0.930 . S
Li88 N105 1.990 . S
Li88 O148 1.956 1_545 S
Li88 O149 1.970 . S
Li88 O150 1.961 . S
Li89 N113 1.990 . S
Li89 O148 1.970 . S
Li89 O149 1.956 1_565 S
Li89 O151 1.961 . S
Li90 N135 1.991 . S
Li90 O148 1.968 . S
Li90 O150 1.947 1_565 S
Li90 O151 1.976 . S
Li91 N141 1.990 . S
Li91 O149 1.961 . S
Li91 O150 1.970 . S
Li91 O151 1.956 1_545 S
C92 C94 1.348 . S
C92 C95 1.356 1_565 S
C92 O148 1.325 . S
N93 C96 1.314 . S
N93 C97 1.279 1_565 S
C94 C92 1.348 . S
C94 C96 1.353 . S
C94 H152 0.929 . S
C95 C92 1.356 1_545 S
C95 C97 1.358 . S
C95 H153 0.930 . S
C96 N93 1.314 . S
C96 C94 1.353 . S
C96 H154 0.930 . S
C97 N93 1.279 1_545 S
C97 C95 1.358 . S
C97 H155 0.930 . S
C98 C101 1.348 . S
C98 C102 1.356 1_545 S
C98 O149 1.325 . S
C99 N100 1.279 1_565 S
C99 C102 1.358 . S
C99 H156 0.930 . S
N100 C99 1.279 1_545 S
N100 C103 1.314 . S
C101 C98 1.348 . S
C101 C103 1.353 . S
C101 H157 0.929 . S
C102 C98 1.356 1_565 S
C102 C99 1.358 . S
C102 H158 0.930 . S
C103 N100 1.314 . S
C103 C101 1.353 . S
C103 H159 0.930 . S
C104 N105 1.314 . S
C104 C109 1.353 . S
C104 H110 0.930 . S
N105 Li88 1.990 . S
N105 C104 1.314 . S
N105 C107 1.279 . S
C106 C107 1.358 . S
C106 C108 1.356 . S
C106 H160 0.930 . S
C107 N105 1.279 . S
C107 C106 1.358 . S
C107 H111 0.930 . S
C108 C106 1.356 . S
C108 C109 1.348 . S
C109 C104 1.353 . S
C109 C108 1.348 . S
C109 H161 0.929 . S
H110 C104 0.930 . S
H111 C107 0.930 . S
C112 N113 1.314 . S
C112 C114 1.353 . S
C112 H118 0.930 . S
N113 Li89 1.990 . S
N113 C112 1.314 . S
N113 C116 1.279 . S
C114 C112 1.353 . S
C114 C117 1.348 . S
C114 H162 0.929 . S
C115 C116 1.358 . S
C115 C117 1.356 . S
C115 H163 0.930 . S
C116 N113 1.279 . S
C116 C115 1.358 . S
C116 H119 0.930 . S
C117 C114 1.348 . S
C117 C115 1.356 . S
H118 C112 0.930 . S
H119 C116 0.930 . S
C120 C122 1.348 . S
C120 C123 1.356 . S
C120 O150 1.325 . S
N121 C124 1.314 . S
N121 C125 1.279 . S
C122 C120 1.348 . S
C122 C124 1.353 . S
C122 H164 0.929 . S
C123 C120 1.356 . S
C123 C125 1.358 . S
C123 H165 0.930 . S
C124 N121 1.314 . S
C124 C122 1.353 . S
C124 H166 0.930 . S
C125 N121 1.279 . S
C125 C123 1.358 . S
C125 H167 0.930 . S
C126 C127 1.348 . S
C126 C128 1.356 . S
C126 O151 1.325 . S
C127 C126 1.348 . S
C127 C129 1.353 . S
C127 H168 0.929 . S
C128 C126 1.356 . S
C128 C130 1.358 . S
C128 H169 0.930 . S
C129 C127 1.353 . S
C129 N131 1.314 . S
C129 H170 0.930 . S
C130 C128 1.358 . S
C130 N131 1.279 . S
C130 H171 0.930 . S
N131 C129 1.314 . S
N131 C130 1.279 . S
C132 C134 1.353 . S
C132 N135 1.327 . S
C132 H138 0.930 . S
C133 N135 1.265 1_545 S
C133 C136 1.358 . S
C133 H139 0.930 . S
C134 C132 1.353 . S
C134 C137 1.348 . S
C134 H172 0.929 . S
N135 Li90 1.991 . S
N135 C132 1.327 . S
N135 C133 1.265 1_565 S
C136 C133 1.358 . S
C136 C137 1.356 1_545 S
C136 H173 0.930 . S
C137 C134 1.348 . S
C137 C136 1.356 1_565 S
H138 C132 0.930 . S
H139 C133 0.930 . S
C140 N141 1.314 . S
C140 C142 1.353 . S
C140 H146 0.930 . S
N141 Li91 1.990 . S
N141 C140 1.314 . S
N141 C144 1.279 1_545 S
C142 C140 1.353 . S
C142 C145 1.348 . S
C142 H174 0.929 . S
C143 C144 1.372 . S
C143 C145 1.341 1_565 S
C143 H175 0.932 . S
C144 N141 1.279 1_565 S
C144 C143 1.372 . S
C144 H147 0.930 . S
C145 C142 1.348 . S
C145 C143 1.341 1_545 S
H146 C140 0.930 . S
H147 C144 0.930 . S
O148 Li88 1.956 1_565 S
O148 Li89 1.970 . S
O148 Li90 1.968 . S
O148 C92 1.325 . S
O149 Li88 1.970 . S
O149 Li89 1.956 1_545 S
O149 Li91 1.961 . S
O149 C98 1.325 . S
O150 Li88 1.961 . S
O150 Li90 1.947 1_545 S
O150 Li91 1.970 . S
O150 C120 1.325 . S
O151 Li89 1.961 . S
O151 Li90 1.976 . S
O151 Li91 1.956 1_565 S
O151 C126 1.325 . S
H152 C94 0.929 . S
H153 C95 0.930 . S
H154 C96 0.930 . S
H155 C97 0.930 . S
H156 C99 0.930 . S
H157 C101 0.929 . S
H158 C102 0.930 . S
H159 C103 0.930 . S
H160 C106 0.930 . S
H161 C109 0.929 . S
H162 C114 0.929 . S
H163 C115 0.930 . S
H164 C122 0.929 . S
H165 C123 0.930 . S
H166 C124 0.930 . S
H167 C125 0.930 . S
H168 C127 0.929 . S
H169 C128 0.930 . S
H170 C129 0.930 . S
H171 C130 0.930 . S
H172 C134 0.929 . S
H173 C136 0.930 . S
H174 C142 0.929 . S
H175 C143 0.932 . S
Li176 N193 1.990 . S
Li176 O236 1.956 1_655 S
Li176 O237 1.970 . S
Li176 O238 1.961 . S
Li177 N201 1.990 . S
Li177 O236 1.970 . S
Li177 O237 1.956 1_455 S
Li177 O239 1.961 . S
Li178 N223 1.990 . S
Li178 O236 1.957 . S
Li178 O238 1.950 1_455 S
Li178 O239 1.978 . S
Li179 N229 1.990 . S
Li179 O237 1.961 . S
Li179 O238 1.970 . S
Li179 O239 1.956 1_655 S
C180 C182 1.348 . S
C180 C183 1.356 1_455 S
C180 O236 1.325 . S
N181 C184 1.314 . S
N181 C185 1.279 1_455 S
C182 C180 1.348 . S
C182 C184 1.353 . S
C182 H240 0.929 . S
C183 C180 1.356 1_655 S
C183 C185 1.358 . S
C183 H241 0.930 . S
C184 N181 1.314 . S
C184 C182 1.353 . S
C184 H242 0.930 . S
C185 N181 1.279 1_655 S
C185 C183 1.358 . S
C185 H243 0.930 . S
C186 C189 1.348 . S
C186 C190 1.356 1_655 S
C186 O237 1.325 . S
C187 N188 1.279 1_455 S
C187 C190 1.358 . S
C187 H244 0.930 . S
N188 C187 1.279 1_655 S
N188 C191 1.314 . S
C189 C186 1.348 . S
C189 C191 1.353 . S
C189 H245 0.929 . S
C190 C186 1.356 1_455 S
C190 C187 1.358 . S
C190 H246 0.930 . S
C191 N188 1.314 . S
C191 C189 1.353 . S
C191 H247 0.930 . S
C192 N193 1.314 . S
C192 C197 1.353 . S
C192 H198 0.930 . S
N193 Li176 1.990 . S
N193 C192 1.314 . S
N193 C195 1.279 . S
C194 C195 1.358 . S
C194 C196 1.356 . S
C194 H248 0.930 . S
C195 N193 1.279 . S
C195 C194 1.358 . S
C195 H199 0.930 . S
C196 C194 1.356 . S
C196 C197 1.348 . S
C197 C192 1.353 . S
C197 C196 1.348 . S
C197 H249 0.929 . S
H198 C192 0.930 . S
H199 C195 0.930 . S
C200 N201 1.314 . S
C200 C202 1.353 . S
C200 H206 0.930 . S
N201 Li177 1.990 . S
N201 C200 1.314 . S
N201 C204 1.279 . S
C202 C200 1.353 . S
C202 C205 1.348 . S
C202 H250 0.929 . S
C203 C204 1.358 . S
C203 C205 1.356 . S
C203 H251 0.930 . S
C204 N201 1.279 . S
C204 C203 1.358 . S
C204 H207 0.930 . S
C205 C202 1.348 . S
C205 C203 1.356 . S
H206 C200 0.930 . S
H207 C204 0.930 . S
C208 C210 1.348 . S
C208 C211 1.356 . S
C208 O238 1.325 . S
N209 C212 1.314 . S
N209 C213 1.279 . S
C210 C208 1.348 . S
C210 C212 1.353 . S
C210 H252 0.929 . S
C211 C208 1.356 . S
C211 C213 1.358 . S
C211 H253 0.930 . S
C212 N209 1.314 . S
C212 C210 1.353 . S
C212 H254 0.930 . S
C213 N209 1.279 . S
C213 C211 1.358 . S
C213 H255 0.930 . S
C214 C215 1.348 . S
C214 C216 1.356 . S
C214 O239 1.325 . S
C215 C214 1.348 . S
C215 C217 1.353 . S
C215 H256 0.929 . S
C216 C214 1.356 . S
C216 C218 1.358 . S
C216 H257 0.930 . S
C217 C215 1.353 . S
C217 N219 1.314 . S
C217 H258 0.930 . S
C218 C216 1.358 . S
C218 N219 1.279 . S
C218 H259 0.930 . S
N219 C217 1.314 . S
N219 C218 1.279 . S
C220 C222 1.353 . S
C220 N223 1.320 . S
C220 H226 0.930 . S
C221 N223 1.277 1_655 S
C221 C224 1.358 . S
C221 H227 0.930 . S
C222 C220 1.353 . S
C222 C225 1.348 . S
C222 H260 0.929 . S
N223 Li178 1.990 . S
N223 C220 1.320 . S
N223 C221 1.277 1_455 S
C224 C221 1.358 . S
C224 C225 1.356 1_655 S
C224 H261 0.930 . S
C225 C222 1.348 . S
C225 C224 1.356 1_455 S
H226 C220 0.930 . S
H227 C221 0.930 . S
C228 N229 1.314 . S
C228 C230 1.353 . S
C228 H234 0.930 . S
N229 Li179 1.990 . S
N229 C228 1.314 . S
N229 C232 1.279 1_655 S
C230 C228 1.353 . S
C230 C233 1.348 . S
C230 H262 0.929 . S
C231 C232 1.363 1_655 S
C231 C233 1.367 . S
C231 H263 0.914 1_655 S
C232 N229 1.279 1_455 S
C232 C231 1.363 1_455 S
C232 H235 0.930 . S
C233 C230 1.348 . S
C233 C231 1.367 . S
H234 C228 0.930 . S
H235 C232 0.930 . S
O236 Li176 1.956 1_455 S
O236 Li177 1.970 . S
O236 Li178 1.957 . S
O236 C180 1.325 . S
O237 Li176 1.970 . S
O237 Li177 1.956 1_655 S
O237 Li179 1.961 . S
O237 C186 1.325 . S
O238 Li176 1.961 . S
O238 Li178 1.950 1_655 S
O238 Li179 1.970 . S
O238 C208 1.325 . S
O239 Li177 1.961 . S
O239 Li178 1.978 . S
O239 Li179 1.956 1_455 S
O239 C214 1.325 . S
H240 C182 0.929 . S
H241 C183 0.930 . S
H242 C184 0.930 . S
H243 C185 0.930 . S
H244 C187 0.930 . S
H245 C189 0.929 . S
H246 C190 0.930 . S
H247 C191 0.930 . S
H248 C194 0.930 . S
H249 C197 0.929 . S
H250 C202 0.929 . S
H251 C203 0.930 . S
H252 C210 0.929 . S
H253 C211 0.930 . S
H254 C212 0.930 . S
H255 C213 0.930 . S
H256 C215 0.929 . S
H257 C216 0.930 . S
H258 C217 0.930 . S
H259 C218 0.930 . S
H260 C222 0.929 . S
H261 C224 0.930 . S
H262 C230 0.929 . S
H263 C231 0.914 1_455 S
Li264 N281 1.990 . S
Li264 O324 1.956 . S
Li264 O325 1.970 . S
Li264 O326 1.961 . S
Li265 N289 1.990 . S
Li265 O324 1.970 . S
Li265 O325 1.956 . S
Li265 O327 1.961 . S
Li266 N311 1.990 . S
Li266 O324 1.961 . S
Li266 O326 1.956 . S
Li266 O327 1.970 . S
Li267 N317 1.990 . S
Li267 O325 1.961 . S
Li267 O326 1.970 . S
Li267 O327 1.956 . S
C268 C270 1.348 . S
C268 C271 1.356 . S
C268 O324 1.325 . S
N269 C272 1.314 . S
N269 C273 1.279 . S
C270 C268 1.348 . S
C270 C272 1.353 . S
C270 H328 0.929 . S
C271 C268 1.356 . S
C271 C273 1.358 . S
C271 H329 0.930 . S
C272 N269 1.314 . S
C272 C270 1.353 . S
C272 H330 0.930 . S
C273 N269 1.279 . S
C273 C271 1.358 . S
C273 H331 0.930 . S
C274 C277 1.348 . S
C274 C278 1.356 . S
C274 O325 1.325 . S
C275 N276 1.279 . S
C275 C278 1.358 . S
C275 H332 0.930 . S
N276 C275 1.279 . S
N276 C279 1.314 . S
C277 C274 1.348 . S
C277 C279 1.353 . S
C277 H333 0.929 . S
C278 C274 1.356 . S
C278 C275 1.358 . S
C278 H334 0.930 . S
C279 N276 1.314 . S
C279 C277 1.353 . S
C279 H335 0.930 . S
C280 N281 1.314 . S
C280 C285 1.353 . S
C280 H286 0.930 . S
N281 Li264 1.990 . S
N281 C280 1.314 . S
N281 C283 1.279 . S
C282 C283 1.358 . S
C282 C284 1.356 . S
C282 H336 0.930 . S
C283 N281 1.279 . S
C283 C282 1.358 . S
C283 H287 0.930 . S
C284 C282 1.356 . S
C284 C285 1.348 . S
C285 C280 1.353 . S
C285 C284 1.348 . S
C285 H337 0.929 . S
H286 C280 0.930 . S
H287 C283 0.930 . S
C288 N289 1.314 . S
C288 C290 1.353 . S
C288 H294 0.930 . S
N289 Li265 1.990 . S
N289 C288 1.314 . S
N289 C292 1.279 . S
C290 C288 1.353 . S
C290 C293 1.348 . S
C290 H338 0.929 . S
C291 C292 1.358 . S
C291 C293 1.356 . S
C291 H339 0.930 . S
C292 N289 1.279 . S
C292 C291 1.358 . S
C292 H295 0.930 . S
C293 C290 1.348 . S
C293 C291 1.356 . S
H294 C288 0.930 . S
H295 C292 0.930 . S
C296 C298 1.348 . S
C296 C299 1.356 . S
C296 O326 1.325 . S
N297 C300 1.314 . S
N297 C301 1.279 . S
C298 C296 1.348 . S
C298 C300 1.353 . S
C298 H340 0.929 . S
C299 C296 1.356 . S
C299 C301 1.358 . S
C299 H341 0.930 . S
C300 N297 1.314 . S
C300 C298 1.353 . S
C300 H342 0.930 . S
C301 N297 1.279 . S
C301 C299 1.358 . S
C301 H343 0.930 . S
C302 C303 1.348 . S
C302 C304 1.356 . S
C302 O327 1.325 . S
C303 C302 1.348 . S
C303 C305 1.353 . S
C303 H344 0.929 . S
C304 C302 1.356 . S
C304 C306 1.358 . S
C304 H345 0.930 . S
C305 C303 1.353 . S
C305 N307 1.314 . S
C305 H346 0.930 . S
C306 C304 1.358 . S
C306 N307 1.279 . S
C306 H347 0.930 . S
N307 C305 1.314 . S
N307 C306 1.279 . S
C308 C310 1.353 . S
C308 N311 1.314 . S
C308 H314 0.930 . S
C309 N311 1.279 . S
C309 C312 1.358 . S
C309 H315 0.930 . S
C310 C308 1.353 . S
C310 C313 1.348 . S
C310 H348 0.929 . S
N311 Li266 1.990 . S
N311 C308 1.314 . S
N311 C309 1.279 . S
C312 C309 1.358 . S
C312 C313 1.356 . S
C312 H349 0.930 . S
C313 C310 1.348 . S
C313 C312 1.356 . S
H314 C308 0.930 . S
H315 C309 0.930 . S
C316 N317 1.314 . S
C316 C318 1.353 . S
C316 H322 0.930 . S
N317 Li267 1.990 . S
N317 C316 1.314 . S
N317 C320 1.279 . S
C318 C316 1.353 . S
C318 C321 1.348 . S
C318 H350 0.929 . S
C319 C320 1.358 . S
C319 C321 1.356 . S
C319 H351 0.930 . S
C320 N317 1.279 . S
C320 C319 1.358 . S
C320 H323 0.930 . S
C321 C318 1.348 . S
C321 C319 1.356 . S
H322 C316 0.930 . S
H323 C320 0.930 . S
O324 Li264 1.956 . S
O324 Li265 1.970 . S
O324 Li266 1.961 . S
O324 C268 1.325 . S
O325 Li264 1.970 . S
O325 Li265 1.956 . S
O325 Li267 1.961 . S
O325 C274 1.325 . S
O326 Li264 1.961 . S
O326 Li266 1.956 . S
O326 Li267 1.970 . S
O326 C296 1.325 . S
O327 Li265 1.961 . S
O327 Li266 1.970 . S
O327 Li267 1.956 . S
O327 C302 1.325 . S
H328 C270 0.929 . S
H329 C271 0.930 . S
H330 C272 0.930 . S
H331 C273 0.930 . S
H332 C275 0.930 . S
H333 C277 0.929 . S
H334 C278 0.930 . S
H335 C279 0.930 . S
H336 C282 0.930 . S
H337 C285 0.929 . S
H338 C290 0.929 . S
H339 C291 0.930 . S
H340 C298 0.929 . S
H341 C299 0.930 . S
H342 C300 0.930 . S
H343 C301 0.930 . S
H344 C303 0.929 . S
H345 C304 0.930 . S
H346 C305 0.930 . S
H347 C306 0.930 . S
H348 C310 0.929 . S
H349 C312 0.930 . S
H350 C318 0.929 . S
H351 C319 0.930 . S
Li352 N369 1.990 . S
Li352 O412 1.956 1_565 S
Li352 O413 1.970 . S
Li352 O414 1.961 . S
Li353 N377 1.990 . S
Li353 O412 1.978 . S
Li353 O413 1.950 1_545 S
Li353 O415 1.957 . S
Li354 N399 1.990 . S
Li354 O412 1.961 . S
Li354 O414 1.956 1_545 S
Li354 O415 1.970 . S
Li355 N405 1.990 . S
Li355 O413 1.961 . S
Li355 O414 1.970 . S
Li355 O415 1.956 1_565 S
C356 C358 1.348 . S
C356 C359 1.356 . S
C356 O412 1.325 . S
N357 C360 1.314 . S
N357 C361 1.279 . S
C358 C356 1.348 . S
C358 C360 1.353 . S
C358 H416 0.929 . S
C359 C356 1.356 . S
C359 C361 1.358 . S
C359 H417 0.930 . S
C360 N357 1.314 . S
C360 C358 1.353 . S
C360 H418 0.930 . S
C361 N357 1.279 . S
C361 C359 1.358 . S
C361 H419 0.930 . S
C362 C365 1.348 . S
C362 C366 1.356 . S
C362 O413 1.325 . S
C363 N364 1.279 . S
C363 C366 1.358 . S
C363 H420 0.930 . S
N364 C363 1.279 . S
N364 C367 1.314 . S
C365 C362 1.348 . S
C365 C367 1.353 . S
C365 H421 0.929 . S
C366 C362 1.356 . S
C366 C363 1.358 . S
C366 H422 0.930 . S
C367 N364 1.314 . S
C367 C365 1.353 . S
C367 H423 0.930 . S
C368 N369 1.314 . S
C368 C373 1.353 . S
C368 H374 0.930 . S
N369 Li352 1.990 . S
N369 C368 1.314 . S
N369 C371 1.279 1_565 S
C370 C371 1.363 1_565 S
C370 C372 1.367 . S
C370 H424 0.914 1_565 S
C371 N369 1.279 1_545 S
C371 C370 1.363 1_545 S
C371 H375 0.930 . S
C372 C370 1.367 . S
C372 C373 1.348 . S
C373 C368 1.353 . S
C373 C372 1.348 . S
C373 H425 0.929 . S
H374 C368 0.930 . S
H375 C371 0.930 . S
C376 N377 1.320 . S
C376 C378 1.353 . S
C376 H382 0.930 . S
N377 Li353 1.990 . S
N377 C376 1.320 . S
N377 C380 1.277 1_545 S
C378 C376 1.353 . S
C378 C381 1.348 . S
C378 H426 0.929 . S
C379 C380 1.358 . S
C379 C381 1.356 1_565 S
C379 H427 0.930 . S
C380 N377 1.277 1_565 S
C380 C379 1.358 . S
C380 H383 0.930 . S
C381 C378 1.348 . S
C381 C379 1.356 1_545 S
H382 C376 0.930 . S
H383 C380 0.930 . S
C384 C386 1.348 . S
C384 C387 1.356 1_565 S
C384 O414 1.325 . S
N385 C388 1.314 . S
N385 C389 1.279 1_565 S
C386 C384 1.348 . S
C386 C388 1.353 . S
C386 H428 0.929 . S
C387 C384 1.356 1_545 S
C387 C389 1.358 . S
C387 H429 0.930 . S
C388 N385 1.314 . S
C388 C386 1.353 . S
C388 H430 0.930 . S
C389 N385 1.279 1_545 S
C389 C387 1.358 . S
C389 H431 0.930 . S
C390 C391 1.348 . S
C390 C392 1.356 1_545 S
C390 O415 1.325 . S
C391 C390 1.348 . S
C391 C393 1.353 . S
C391 H432 0.929 . S
C392 C390 1.356 1_565 S
C392 C394 1.358 . S
C392 H433 0.930 . S
C393 C391 1.353 . S
C393 N395 1.314 . S
C393 H434 0.930 . S
C394 C392 1.358 . S
C394 N395 1.279 1_565 S
C394 H435 0.930 . S
N395 C393 1.314 . S
N395 C394 1.279 1_545 S
C396 C398 1.353 . S
C396 N399 1.314 . S
C396 H402 0.930 . S
C397 N399 1.279 . S
C397 C400 1.358 . S
C397 H403 0.930 . S
C398 C396 1.353 . S
C398 C401 1.348 . S
C398 H436 0.929 . S
N399 Li354 1.990 . S
N399 C396 1.314 . S
N399 C397 1.279 . S
C400 C397 1.358 . S
C400 C401 1.356 . S
C400 H437 0.930 . S
C401 C398 1.348 . S
C401 C400 1.356 . S
H402 C396 0.930 . S
H403 C397 0.930 . S
C404 N405 1.314 . S
C404 C406 1.353 . S
C404 H410 0.930 . S
N405 Li355 1.990 . S
N405 C404 1.314 . S
N405 C408 1.279 . S
C406 C404 1.353 . S
C406 C409 1.348 . S
C406 H438 0.929 . S
C407 C408 1.358 . S
C407 C409 1.356 . S
C407 H439 0.930 . S
C408 N405 1.279 . S
C408 C407 1.358 . S
C408 H411 0.930 . S
C409 C406 1.348 . S
C409 C407 1.356 . S
H410 C404 0.930 . S
H411 C408 0.930 . S
O412 Li352 1.956 1_545 S
O412 Li353 1.978 . S
O412 Li354 1.961 . S
O412 C356 1.325 . S
O413 Li352 1.970 . S
O413 Li353 1.950 1_565 S
O413 Li355 1.961 . S
O413 C362 1.325 . S
O414 Li352 1.961 . S
O414 Li354 1.956 1_565 S
O414 Li355 1.970 . S
O414 C384 1.325 . S
O415 Li353 1.957 . S
O415 Li354 1.970 . S
O415 Li355 1.956 1_545 S
O415 C390 1.325 . S
H416 C358 0.929 . S
H417 C359 0.930 . S
H418 C360 0.930 . S
H419 C361 0.930 . S
H420 C363 0.930 . S
H421 C365 0.929 . S
H422 C366 0.930 . S
H423 C367 0.930 . S
H424 C370 0.914 1_545 S
H425 C373 0.929 . S
H426 C378 0.929 . S
H427 C379 0.930 . S
H428 C386 0.929 . S
H429 C387 0.930 . S
H430 C388 0.930 . S
H431 C389 0.930 . S
H432 C391 0.929 . S
H433 C392 0.930 . S
H434 C393 0.930 . S
H435 C394 0.930 . S
H436 C398 0.929 . S
H437 C400 0.930 . S
H438 C406 0.929 . S
H439 C407 0.930 . S
Li440 N457 1.990 . S
Li440 O500 1.956 1_455 S
Li440 O501 1.970 . S
Li440 O502 1.961 . S
Li441 N465 1.990 . S
Li441 O500 1.970 . S
Li441 O501 1.956 1_655 S
Li441 O503 1.961 . S
Li442 N487 1.991 . S
Li442 O500 1.968 . S
Li442 O502 1.947 1_655 S
Li442 O503 1.976 . S
Li443 N493 1.990 . S
Li443 O501 1.961 . S
Li443 O502 1.970 . S
Li443 O503 1.956 1_455 S
C444 C446 1.348 . S
C444 C447 1.356 1_655 S
C444 O500 1.325 . S
N445 C448 1.314 . S
N445 C449 1.279 1_655 S
C446 C444 1.348 . S
C446 C448 1.353 . S
C446 H504 0.929 . S
C447 C444 1.356 1_455 S
C447 C449 1.358 . S
C447 H505 0.930 . S
C448 N445 1.314 . S
C448 C446 1.353 . S
C448 H506 0.930 . S
C449 N445 1.279 1_455 S
C449 C447 1.358 . S
C449 H507 0.930 . S
C450 C453 1.348 . S
C450 C454 1.356 1_455 S
C450 O501 1.325 . S
C451 N452 1.279 1_655 S
C451 C454 1.358 . S
C451 H508 0.930 . S
N452 C451 1.279 1_455 S
N452 C455 1.314 . S
C453 C450 1.348 . S
C453 C455 1.353 . S
C453 H509 0.929 . S
C454 C450 1.356 1_655 S
C454 C451 1.358 . S
C454 H510 0.930 . S
C455 N452 1.314 . S
C455 C453 1.353 . S
C455 H511 0.930 . S
C456 N457 1.314 . S
C456 C461 1.353 . S
C456 H462 0.930 . S
N457 Li440 1.990 . S
N457 C456 1.314 . S
N457 C459 1.279 . S
C458 C459 1.358 . S
C458 C460 1.356 . S
C458 H512 0.930 . S
C459 N457 1.279 . S
C459 C458 1.358 . S
C459 H463 0.930 . S
C460 C458 1.356 . S
C460 C461 1.348 . S
C461 C456 1.353 . S
C461 C460 1.348 . S
C461 H513 0.929 . S
H462 C456 0.930 . S
H463 C459 0.930 . S
C464 N465 1.314 . S
C464 C466 1.353 . S
C464 H470 0.930 . S
N465 Li441 1.990 . S
N465 C464 1.314 . S
N465 C468 1.279 . S
C466 C464 1.353 . S
C466 C469 1.348 . S
C466 H514 0.929 . S
C467 C468 1.358 . S
C467 C469 1.356 . S
C467 H515 0.930 . S
C468 N465 1.279 . S
C468 C467 1.358 . S
C468 H471 0.930 . S
C469 C466 1.348 . S
C469 C467 1.356 . S
H470 C464 0.930 . S
H471 C468 0.930 . S
C472 C474 1.348 . S
C472 C475 1.356 . S
C472 O502 1.325 . S
N473 C476 1.314 . S
N473 C477 1.279 . S
C474 C472 1.348 . S
C474 C476 1.353 . S
C474 H516 0.929 . S
C475 C472 1.356 . S
C475 C477 1.358 . S
C475 H517 0.930 . S
C476 N473 1.314 . S
C476 C474 1.353 . S
C476 H518 0.930 . S
C477 N473 1.279 . S
C477 C475 1.358 . S
C477 H519 0.930 . S
C478 C479 1.348 . S
C478 C480 1.356 . S
C478 O503 1.325 . S
C479 C478 1.348 . S
C479 C481 1.353 . S
C479 H520 0.929 . S
C480 C478 1.356 . S
C480 C482 1.358 . S
C480 H521 0.930 . S
C481 C479 1.353 . S
C481 N483 1.314 . S
C481 H522 0.930 . S
C482 C480 1.358 . S
C482 N483 1.279 . S
C482 H523 0.930 . S
N483 C481 1.314 . S
N483 C482 1.279 . S
C484 C486 1.353 . S
C484 N487 1.327 . S
C484 H490 0.930 . S
C485 N487 1.265 1_455 S
C485 C488 1.358 . S
C485 H491 0.930 . S
C486 C484 1.353 . S
C486 C489 1.348 . S
C486 H524 0.929 . S
N487 Li442 1.991 . S
N487 C484 1.327 . S
N487 C485 1.265 1_655 S
C488 C485 1.358 . S
C488 C489 1.356 1_455 S
C488 H525 0.930 . S
C489 C486 1.348 . S
C489 C488 1.356 1_655 S
H490 C484 0.930 . S
H491 C485 0.930 . S
C492 N493 1.314 . S
C492 C494 1.353 . S
C492 H498 0.930 . S
N493 Li443 1.990 . S
N493 C492 1.314 . S
N493 C496 1.279 1_455 S
C494 C492 1.353 . S
C494 C497 1.348 . S
C494 H526 0.929 . S
C495 C496 1.372 . S
C495 C497 1.341 1_655 S
C495 H527 0.932 . S
C496 N493 1.279 1_655 S
C496 C495 1.372 . S
C496 H499 0.930 . S
C497 C494 1.348 . S
C497 C495 1.341 1_455 S
H498 C492 0.930 . S
H499 C496 0.930 . S
O500 Li440 1.956 1_655 S
O500 Li441 1.970 . S
O500 Li442 1.968 . S
O500 C444 1.325 . S
O501 Li440 1.970 . S
O501 Li441 1.956 1_455 S
O501 Li443 1.961 . S
O501 C450 1.325 . S
O502 Li440 1.961 . S
O502 Li442 1.947 1_455 S
O502 Li443 1.970 . S
O502 C472 1.325 . S
O503 Li441 1.961 . S
O503 Li442 1.976 . S
O503 Li443 1.956 1_655 S
O503 C478 1.325 . S
H504 C446 0.929 . S
H505 C447 0.930 . S
H506 C448 0.930 . S
H507 C449 0.930 . S
H508 C451 0.930 . S
H509 C453 0.929 . S
H510 C454 0.930 . S
H511 C455 0.930 . S
H512 C458 0.930 . S
H513 C461 0.929 . S
H514 C466 0.929 . S
H515 C467 0.930 . S
H516 C474 0.929 . S
H517 C475 0.930 . S
H518 C476 0.930 . S
H519 C477 0.930 . S
H520 C479 0.929 . S
H521 C480 0.930 . S
H522 C481 0.930 . S
H523 C482 0.930 . S
H524 C486 0.929 . S
H525 C488 0.930 . S
H526 C494 0.929 . S
H527 C495 0.932 . S
Li528 N545 1.990 . S
Li528 O588 1.956 . S
Li528 O589 1.970 . S
Li528 O590 1.961 . S
Li529 N553 1.990 . S
Li529 O588 1.970 . S
Li529 O589 1.956 . S
Li529 O591 1.961 . S
Li530 N575 1.990 . S
Li530 O588 1.961 . S
Li530 O590 1.956 . S
Li530 O591 1.970 . S
Li531 N581 1.990 . S
Li531 O589 1.961 . S
Li531 O590 1.970 . S
Li531 O591 1.956 . S
C532 C534 1.348 . S
C532 C535 1.356 . S
C532 O588 1.325 . S
N533 C536 1.314 . S
N533 C537 1.279 . S
C534 C532 1.348 . S
C534 C536 1.353 . S
C534 H592 0.929 . S
C535 C532 1.356 . S
C535 C537 1.358 . S
C535 H593 0.930 . S
C536 N533 1.314 . S
C536 C534 1.353 . S
C536 H594 0.930 . S
C537 N533 1.279 . S
C537 C535 1.358 . S
C537 H595 0.930 . S
C538 C541 1.348 . S
C538 C542 1.356 . S
C538 O589 1.325 . S
C539 N540 1.279 . S
C539 C542 1.358 . S
C539 H596 0.930 . S
N540 C539 1.279 . S
N540 C543 1.314 . S
C541 C538 1.348 . S
C541 C543 1.353 . S
C541 H597 0.929 . S
C542 C538 1.356 . S
C542 C539 1.358 . S
C542 H598 0.930 . S
C543 N540 1.314 . S
C543 C541 1.353 . S
C543 H599 0.930 . S
C544 N545 1.314 . S
C544 C549 1.353 . S
C544 H550 0.930 . S
N545 Li528 1.990 . S
N545 C544 1.314 . S
N545 C547 1.279 . S
C546 C547 1.358 . S
C546 C548 1.356 . S
C546 H600 0.930 . S
C547 N545 1.279 . S
C547 C546 1.358 . S
C547 H551 0.930 . S
C548 C546 1.356 . S
C548 C549 1.348 . S
C549 C544 1.353 . S
C549 C548 1.348 . S
C549 H601 0.929 . S
H550 C544 0.930 . S
H551 C547 0.930 . S
C552 N553 1.314 . S
C552 C554 1.353 . S
C552 H558 0.930 . S
N553 Li529 1.990 . S
N553 C552 1.314 . S
N553 C556 1.279 . S
C554 C552 1.353 . S
C554 C557 1.348 . S
C554 H602 0.929 . S
C555 C556 1.358 . S
C555 C557 1.356 . S
C555 H603 0.930 . S
C556 N553 1.279 . S
C556 C555 1.358 . S
C556 H559 0.930 . S
C557 C554 1.348 . S
C557 C555 1.356 . S
H558 C552 0.930 . S
H559 C556 0.930 . S
C560 C562 1.348 . S
C560 C563 1.356 . S
C560 O590 1.325 . S
N561 C564 1.314 . S
N561 C565 1.279 . S
C562 C560 1.348 . S
C562 C564 1.353 . S
C562 H604 0.929 . S
C563 C560 1.356 . S
C563 C565 1.358 . S
C563 H605 0.930 . S
C564 N561 1.314 . S
C564 C562 1.353 . S
C564 H606 0.930 . S
C565 N561 1.279 . S
C565 C563 1.358 . S
C565 H607 0.930 . S
C566 C567 1.348 . S
C566 C568 1.356 . S
C566 O591 1.325 . S
C567 C566 1.348 . S
C567 C569 1.353 . S
C567 H608 0.929 . S
C568 C566 1.356 . S
C568 C570 1.358 . S
C568 H609 0.930 . S
C569 C567 1.353 . S
C569 N571 1.314 . S
C569 H610 0.930 . S
C570 C568 1.358 . S
C570 N571 1.279 . S
C570 H611 0.930 . S
N571 C569 1.314 . S
N571 C570 1.279 . S
C572 C574 1.353 . S
C572 N575 1.314 . S
C572 H578 0.930 . S
C573 N575 1.279 . S
C573 C576 1.358 . S
C573 H579 0.930 . S
C574 C572 1.353 . S
C574 C577 1.348 . S
C574 H612 0.929 . S
N575 Li530 1.990 . S
N575 C572 1.314 . S
N575 C573 1.279 . S
C576 C573 1.358 . S
C576 C577 1.356 . S
C576 H613 0.930 . S
C577 C574 1.348 . S
C577 C576 1.356 . S
H578 C572 0.930 . S
H579 C573 0.930 . S
C580 N581 1.314 . S
C580 C582 1.353 . S
C580 H586 0.930 . S
N581 Li531 1.990 . S
N581 C580 1.314 . S
N581 C584 1.279 . S
C582 C580 1.353 . S
C582 C585 1.348 . S
C582 H614 0.929 . S
C583 C584 1.358 . S
C583 C585 1.356 . S
C583 H615 0.930 . S
C584 N581 1.279 . S
C584 C583 1.358 . S
C584 H587 0.930 . S
C585 C582 1.348 . S
C585 C583 1.356 . S
H586 C580 0.930 . S
H587 C584 0.930 . S
O588 Li528 1.956 . S
O588 Li529 1.970 . S
O588 Li530 1.961 . S
O588 C532 1.325 . S
O589 Li528 1.970 . S
O589 Li529 1.956 . S
O589 Li531 1.961 . S
O589 C538 1.325 . S
O590 Li528 1.961 . S
O590 Li530 1.956 . S
O590 Li531 1.970 . S
O590 C560 1.325 . S
O591 Li529 1.961 . S
O591 Li530 1.970 . S
O591 Li531 1.956 . S
O591 C566 1.325 . S
H592 C534 0.929 . S
H593 C535 0.930 . S
H594 C536 0.930 . S
H595 C537 0.930 . S
H596 C539 0.930 . S
H597 C541 0.929 . S
H598 C542 0.930 . S
H599 C543 0.930 . S
H600 C546 0.930 . S
H601 C549 0.929 . S
H602 C554 0.929 . S
H603 C555 0.930 . S
H604 C562 0.929 . S
H605 C563 0.930 . S
H606 C564 0.930 . S
H607 C565 0.930 . S
H608 C567 0.929 . S
H609 C568 0.930 . S
H610 C569 0.930 . S
H611 C570 0.930 . S
H612 C574 0.929 . S
H613 C576 0.930 . S
H614 C582 0.929 . S
H615 C583 0.930 . S
Li616 N633 1.990 . S
Li616 O676 1.956 . S
Li616 O677 1.970 . S
Li616 O678 1.961 . S
Li617 N641 1.990 . S
Li617 O676 1.970 . S
Li617 O677 1.956 . S
Li617 O679 1.961 . S
Li618 N663 1.990 . S
Li618 O676 1.961 . S
Li618 O678 1.956 . S
Li618 O679 1.970 . S
Li619 N669 1.990 . S
Li619 O677 1.961 . S
Li619 O678 1.970 . S
Li619 O679 1.956 . S
C620 C622 1.348 . S
C620 C623 1.356 . S
C620 O676 1.325 . S
N621 C624 1.314 . S
N621 C625 1.279 . S
C622 C620 1.348 . S
C622 C624 1.353 . S
C622 H680 0.929 . S
C623 C620 1.356 . S
C623 C625 1.358 . S
C623 H681 0.930 . S
C624 N621 1.314 . S
C624 C622 1.353 . S
C624 H682 0.930 . S
C625 N621 1.279 . S
C625 C623 1.358 . S
C625 H683 0.930 . S
C626 C629 1.348 . S
C626 C630 1.356 . S
C626 O677 1.325 . S
C627 N628 1.279 . S
C627 C630 1.358 . S
C627 H684 0.930 . S
N628 C627 1.279 . S
N628 C631 1.314 . S
C629 C626 1.348 . S
C629 C631 1.353 . S
C629 H685 0.929 . S
C630 C626 1.356 . S
C630 C627 1.358 . S
C630 H686 0.930 . S
C631 N628 1.314 . S
C631 C629 1.353 . S
C631 H687 0.930 . S
C632 N633 1.314 . S
C632 C637 1.353 . S
C632 H638 0.930 . S
N633 Li616 1.990 . S
N633 C632 1.314 . S
N633 C635 1.279 . S
C634 C635 1.358 . S
C634 C636 1.356 . S
C634 H688 0.930 . S
C635 N633 1.279 . S
C635 C634 1.358 . S
C635 H639 0.930 . S
C636 C634 1.356 . S
C636 C637 1.348 . S
C637 C632 1.353 . S
C637 C636 1.348 . S
C637 H689 0.929 . S
H638 C632 0.930 . S
H639 C635 0.930 . S
C640 N641 1.314 . S
C640 C642 1.353 . S
C640 H646 0.930 . S
N641 Li617 1.990 . S
N641 C640 1.314 . S
N641 C644 1.279 . S
C642 C640 1.353 . S
C642 C645 1.348 . S
C642 H690 0.929 . S
C643 C644 1.358 . S
C643 C645 1.356 . S
C643 H691 0.930 . S
C644 N641 1.279 . S
C644 C643 1.358 . S
C644 H647 0.930 . S
C645 C642 1.348 . S
C645 C643 1.356 . S
H646 C640 0.930 . S
H647 C644 0.930 . S
C648 C650 1.348 . S
C648 C651 1.356 . S
C648 O678 1.325 . S
N649 C652 1.314 . S
N649 C653 1.279 . S
C650 C648 1.348 . S
C650 C652 1.353 . S
C650 H692 0.929 . S
C651 C648 1.356 . S
C651 C653 1.358 . S
C651 H693 0.930 . S
C652 N649 1.314 . S
C652 C650 1.353 . S
C652 H694 0.930 . S
C653 N649 1.279 . S
C653 C651 1.358 . S
C653 H695 0.930 . S
C654 C655 1.348 . S
C654 C656 1.356 . S
C654 O679 1.325 . S
C655 C654 1.348 . S
C655 C657 1.353 . S
C655 H696 0.929 . S
C656 C654 1.356 . S
C656 C658 1.358 . S
C656 H697 0.930 . S
C657 C655 1.353 . S
C657 N659 1.314 . S
C657 H698 0.930 . S
C658 C656 1.358 . S
C658 N659 1.279 . S
C658 H699 0.930 . S
N659 C657 1.314 . S
N659 C658 1.279 . S
C660 C662 1.353 . S
C660 N663 1.314 . S
C660 H666 0.930 . S
C661 N663 1.279 . S
C661 C664 1.358 . S
C661 H667 0.930 . S
C662 C660 1.353 . S
C662 C665 1.348 . S
C662 H700 0.929 . S
N663 Li618 1.990 . S
N663 C660 1.314 . S
N663 C661 1.279 . S
C664 C661 1.358 . S
C664 C665 1.356 . S
C664 H701 0.930 . S
C665 C662 1.348 . S
C665 C664 1.356 . S
H666 C660 0.930 . S
H667 C661 0.930 . S
C668 N669 1.314 . S
C668 C670 1.353 . S
C668 H674 0.930 . S
N669 Li619 1.990 . S
N669 C668 1.314 . S
N669 C672 1.279 . S
C670 C668 1.353 . S
C670 C673 1.348 . S
C670 H702 0.929 . S
C671 C672 1.358 . S
C671 C673 1.356 . S
C671 H703 0.930 . S
C672 N669 1.279 . S
C672 C671 1.358 . S
C672 H675 0.930 . S
C673 C670 1.348 . S
C673 C671 1.356 . S
H674 C668 0.930 . S
H675 C672 0.930 . S
O676 Li616 1.956 . S
O676 Li617 1.970 . S
O676 Li618 1.961 . S
O676 C620 1.325 . S
O677 Li616 1.970 . S
O677 Li617 1.956 . S
O677 Li619 1.961 . S
O677 C626 1.325 . S
O678 Li616 1.961 . S
O678 Li618 1.956 . S
O678 Li619 1.970 . S
O678 C648 1.325 . S
O679 Li617 1.961 . S
O679 Li618 1.970 . S
O679 Li619 1.956 . S
O679 C654 1.325 . S
H680 C622 0.929 . S
H681 C623 0.930 . S
H682 C624 0.930 . S
H683 C625 0.930 . S
H684 C627 0.930 . S
H685 C629 0.929 . S
H686 C630 0.930 . S
H687 C631 0.930 . S
H688 C634 0.930 . S
H689 C637 0.929 . S
H690 C642 0.929 . S
H691 C643 0.930 . S
H692 C650 0.929 . S
H693 C651 0.930 . S
H694 C652 0.930 . S
H695 C653 0.930 . S
H696 C655 0.929 . S
H697 C656 0.930 . S
H698 C657 0.930 . S
H699 C658 0.930 . S
H700 C662 0.929 . S
H701 C664 0.930 . S
H702 C670 0.929 . S
H703 C671 0.930 . S
Li704 N721 1.990 . S
Li704 O764 1.956 . S
Li704 O765 1.970 . S
Li704 O766 1.961 . S
Li705 N729 1.990 . S
Li705 O764 1.970 . S
Li705 O765 1.956 . S
Li705 O767 1.961 . S
Li706 N751 1.990 . S
Li706 O764 1.961 . S
Li706 O766 1.956 . S
Li706 O767 1.970 . S
Li707 N757 1.990 . S
Li707 O765 1.961 . S
Li707 O766 1.970 . S
Li707 O767 1.956 . S
C708 C710 1.348 . S
C708 C711 1.356 . S
C708 O764 1.325 . S
N709 C712 1.314 . S
N709 C713 1.279 . S
C710 C708 1.348 . S
C710 C712 1.353 . S
C710 H768 0.929 . S
C711 C708 1.356 . S
C711 C713 1.358 . S
C711 H769 0.930 . S
C712 N709 1.314 . S
C712 C710 1.353 . S
C712 H770 0.930 . S
C713 N709 1.279 . S
C713 C711 1.358 . S
C713 H771 0.930 . S
C714 C717 1.348 . S
C714 C718 1.356 . S
C714 O765 1.325 . S
C715 N716 1.279 . S
C715 C718 1.358 . S
C715 H772 0.930 . S
N716 C715 1.279 . S
N716 C719 1.314 . S
C717 C714 1.348 . S
C717 C719 1.353 . S
C717 H773 0.929 . S
C718 C714 1.356 . S
C718 C715 1.358 . S
C718 H774 0.930 . S
C719 N716 1.314 . S
C719 C717 1.353 . S
C719 H775 0.930 . S
C720 N721 1.314 . S
C720 C725 1.353 . S
C720 H726 0.930 . S
N721 Li704 1.990 . S
N721 C720 1.314 . S
N721 C723 1.279 . S
C722 C723 1.358 . S
C722 C724 1.356 . S
C722 H776 0.930 . S
C723 N721 1.279 . S
C723 C722 1.358 . S
C723 H727 0.930 . S
C724 C722 1.356 . S
C724 C725 1.348 . S
C725 C720 1.353 . S
C725 C724 1.348 . S
C725 H777 0.929 . S
H726 C720 0.930 . S
H727 C723 0.930 . S
C728 N729 1.314 . S
C728 C730 1.353 . S
C728 H734 0.930 . S
N729 Li705 1.990 . S
N729 C728 1.314 . S
N729 C732 1.279 . S
C730 C728 1.353 . S
C730 C733 1.348 . S
C730 H778 0.929 . S
C731 C732 1.358 . S
C731 C733 1.356 . S
C731 H779 0.930 . S
C732 N729 1.279 . S
C732 C731 1.358 . S
C732 H735 0.930 . S
C733 C730 1.348 . S
C733 C731 1.356 . S
H734 C728 0.930 . S
H735 C732 0.930 . S
C736 C738 1.348 . S
C736 C739 1.356 . S
C736 O766 1.325 . S
N737 C740 1.314 . S
N737 C741 1.279 . S
C738 C736 1.348 . S
C738 C740 1.353 . S
C738 H780 0.929 . S
C739 C736 1.356 . S
C739 C741 1.358 . S
C739 H781 0.930 . S
C740 N737 1.314 . S
C740 C738 1.353 . S
C740 H782 0.930 . S
C741 N737 1.279 . S
C741 C739 1.358 . S
C741 H783 0.930 . S
C742 C743 1.348 . S
C742 C744 1.356 . S
C742 O767 1.325 . S
C743 C742 1.348 . S
C743 C745 1.353 . S
C743 H784 0.929 . S
C744 C742 1.356 . S
C744 C746 1.358 . S
C744 H785 0.930 . S
C745 C743 1.353 . S
C745 N747 1.314 . S
C745 H786 0.930 . S
C746 C744 1.358 . S
C746 N747 1.279 . S
C746 H787 0.930 . S
N747 C745 1.314 . S
N747 C746 1.279 . S
C748 C750 1.353 . S
C748 N751 1.314 . S
C748 H754 0.930 . S
C749 N751 1.279 . S
C749 C752 1.358 . S
C749 H755 0.930 . S
C750 C748 1.353 . S
C750 C753 1.348 . S
C750 H788 0.929 . S
N751 Li706 1.990 . S
N751 C748 1.314 . S
N751 C749 1.279 . S
C752 C749 1.358 . S
C752 C753 1.356 . S
C752 H789 0.930 . S
C753 C750 1.348 . S
C753 C752 1.356 . S
H754 C748 0.930 . S
H755 C749 0.930 . S
C756 N757 1.314 . S
C756 C758 1.353 . S
C756 H762 0.930 . S
N757 Li707 1.990 . S
N757 C756 1.314 . S
N757 C760 1.279 . S
C758 C756 1.353 . S
C758 C761 1.348 . S
C758 H790 0.929 . S
C759 C760 1.358 . S
C759 C761 1.356 . S
C759 H791 0.930 . S
C760 N757 1.279 . S
C760 C759 1.358 . S
C760 H763 0.930 . S
C761 C758 1.348 . S
C761 C759 1.356 . S
H762 C756 0.930 . S
H763 C760 0.930 . S
O764 Li704 1.956 . S
O764 Li705 1.970 . S
O764 Li706 1.961 . S
O764 C708 1.325 . S
O765 Li704 1.970 . S
O765 Li705 1.956 . S
O765 Li707 1.961 . S
O765 C714 1.325 . S
O766 Li704 1.961 . S
O766 Li706 1.956 . S
O766 Li707 1.970 . S
O766 C736 1.325 . S
O767 Li705 1.961 . S
O767 Li706 1.970 . S
O767 Li707 1.956 . S
O767 C742 1.325 . S
H768 C710 0.929 . S
H769 C711 0.930 . S
H770 C712 0.930 . S
H771 C713 0.930 . S
H772 C715 0.930 . S
H773 C717 0.929 . S
H774 C718 0.930 . S
H775 C719 0.930 . S
H776 C722 0.930 . S
H777 C725 0.929 . S
H778 C730 0.929 . S
H779 C731 0.930 . S
H780 C738 0.929 . S
H781 C739 0.930 . S
H782 C740 0.930 . S
H783 C741 0.930 . S
H784 C743 0.929 . S
H785 C744 0.930 . S
H786 C745 0.930 . S
H787 C746 0.930 . S
H788 C750 0.929 . S
H789 C752 0.930 . S
H790 C758 0.929 . S
H791 C759 0.930 . S
Li792 N809 1.990 . S
Li792 O852 1.956 . S
Li792 O853 1.970 . S
Li792 O854 1.961 . S
Li793 N817 1.990 . S
Li793 O852 1.970 . S
Li793 O853 1.956 . S
Li793 O855 1.961 . S
Li794 N839 1.990 . S
Li794 O852 1.961 . S
Li794 O854 1.956 . S
Li794 O855 1.970 . S
Li795 N845 1.990 . S
Li795 O853 1.961 . S
Li795 O854 1.970 . S
Li795 O855 1.956 . S
C796 C798 1.348 . S
C796 C799 1.356 . S
C796 O852 1.325 . S
N797 C800 1.314 . S
N797 C801 1.279 . S
C798 C796 1.348 . S
C798 C800 1.353 . S
C798 H856 0.929 . S
C799 C796 1.356 . S
C799 C801 1.358 . S
C799 H857 0.930 . S
C800 N797 1.314 . S
C800 C798 1.353 . S
C800 H858 0.930 . S
C801 N797 1.279 . S
C801 C799 1.358 . S
C801 H859 0.930 . S
C802 C805 1.348 . S
C802 C806 1.356 . S
C802 O853 1.325 . S
C803 N804 1.279 . S
C803 C806 1.358 . S
C803 H860 0.930 . S
N804 C803 1.279 . S
N804 C807 1.314 . S
C805 C802 1.348 . S
C805 C807 1.353 . S
C805 H861 0.929 . S
C806 C802 1.356 . S
C806 C803 1.358 . S
C806 H862 0.930 . S
C807 N804 1.314 . S
C807 C805 1.353 . S
C807 H863 0.930 . S
C808 N809 1.314 . S
C808 C813 1.353 . S
C808 H814 0.930 . S
N809 Li792 1.990 . S
N809 C808 1.314 . S
N809 C811 1.279 . S
C810 C811 1.358 . S
C810 C812 1.356 . S
C810 H864 0.930 . S
C811 N809 1.279 . S
C811 C810 1.358 . S
C811 H815 0.930 . S
C812 C810 1.356 . S
C812 C813 1.348 . S
C813 C808 1.353 . S
C813 C812 1.348 . S
C813 H865 0.929 . S
H814 C808 0.930 . S
H815 C811 0.930 . S
C816 N817 1.314 . S
C816 C818 1.353 . S
C816 H822 0.930 . S
N817 Li793 1.990 . S
N817 C816 1.314 . S
N817 C820 1.279 . S
C818 C816 1.353 . S
C818 C821 1.348 . S
C818 H866 0.929 . S
C819 C820 1.358 . S
C819 C821 1.356 . S
C819 H867 0.930 . S
C820 N817 1.279 . S
C820 C819 1.358 . S
C820 H823 0.930 . S
C821 C818 1.348 . S
C821 C819 1.356 . S
H822 C816 0.930 . S
H823 C820 0.930 . S
C824 C826 1.348 . S
C824 C827 1.356 . S
C824 O854 1.325 . S
N825 C828 1.314 . S
N825 C829 1.279 . S
C826 C824 1.348 . S
C826 C828 1.353 . S
C826 H868 0.929 . S
C827 C824 1.356 . S
C827 C829 1.358 . S
C827 H869 0.930 . S
C828 N825 1.314 . S
C828 C826 1.353 . S
C828 H870 0.930 . S
C829 N825 1.279 . S
C829 C827 1.358 . S
C829 H871 0.930 . S
C830 C831 1.348 . S
C830 C832 1.356 . S
C830 O855 1.325 . S
C831 C830 1.348 . S
C831 C833 1.353 . S
C831 H872 0.929 . S
C832 C830 1.356 . S
C832 C834 1.358 . S
C832 H873 0.930 . S
C833 C831 1.353 . S
C833 N835 1.314 . S
C833 H874 0.930 . S
C834 C832 1.358 . S
C834 N835 1.279 . S
C834 H875 0.930 . S
N835 C833 1.314 . S
N835 C834 1.279 . S
C836 C838 1.353 . S
C836 N839 1.314 . S
C836 H842 0.930 . S
C837 N839 1.279 . S
C837 C840 1.358 . S
C837 H843 0.930 . S
C838 C836 1.353 . S
C838 C841 1.348 . S
C838 H876 0.929 . S
N839 Li794 1.990 . S
N839 C836 1.314 . S
N839 C837 1.279 . S
C840 C837 1.358 . S
C840 C841 1.356 . S
C840 H877 0.930 . S
C841 C838 1.348 . S
C841 C840 1.356 . S
H842 C836 0.930 . S
H843 C837 0.930 . S
C844 N845 1.314 . S
C844 C846 1.353 . S
C844 H850 0.930 . S
N845 Li795 1.990 . S
N845 C844 1.314 . S
N845 C848 1.279 . S
C846 C844 1.353 . S
C846 C849 1.348 . S
C846 H878 0.929 . S
C847 C848 1.358 . S
C847 C849 1.356 . S
C847 H879 0.930 . S
C848 N845 1.279 . S
C848 C847 1.358 . S
C848 H851 0.930 . S
C849 C846 1.348 . S
C849 C847 1.356 . S
H850 C844 0.930 . S
H851 C848 0.930 . S
O852 Li792 1.956 . S
O852 Li793 1.970 . S
O852 Li794 1.961 . S
O852 C796 1.325 . S
O853 Li792 1.970 . S
O853 Li793 1.956 . S
O853 Li795 1.961 . S
O853 C802 1.325 . S
O854 Li792 1.961 . S
O854 Li794 1.956 . S
O854 Li795 1.970 . S
O854 C824 1.325 . S
O855 Li793 1.961 . S
O855 Li794 1.970 . S
O855 Li795 1.956 . S
O855 C830 1.325 . S
H856 C798 0.929 . S
H857 C799 0.930 . S
H858 C800 0.930 . S
H859 C801 0.930 . S
H860 C803 0.930 . S
H861 C805 0.929 . S
H862 C806 0.930 . S
H863 C807 0.930 . S
H864 C810 0.930 . S
H865 C813 0.929 . S
H866 C818 0.929 . S
H867 C819 0.930 . S
H868 C826 0.929 . S
H869 C827 0.930 . S
H870 C828 0.930 . S
H871 C829 0.930 . S
H872 C831 0.929 . S
H873 C832 0.930 . S
H874 C833 0.930 . S
H875 C834 0.930 . S
H876 C838 0.929 . S
H877 C840 0.930 . S
H878 C846 0.929 . S
H879 C847 0.930 . S
Li880 N897 1.990 . S
Li880 O940 1.956 . S
Li880 O941 1.970 . S
Li880 O942 1.961 . S
Li881 N905 1.990 . S
Li881 O940 1.970 . S
Li881 O941 1.956 . S
Li881 O943 1.961 . S
Li882 N927 1.990 . S
Li882 O940 1.961 . S
Li882 O942 1.956 . S
Li882 O943 1.970 . S
Li883 N933 1.990 . S
Li883 O941 1.961 . S
Li883 O942 1.970 . S
Li883 O943 1.956 . S
C884 C886 1.348 . S
C884 C887 1.356 . S
C884 O940 1.325 . S
N885 C888 1.314 . S
N885 C889 1.279 . S
C886 C884 1.348 . S
C886 C888 1.353 . S
C886 H944 0.929 . S
C887 C884 1.356 . S
C887 C889 1.358 . S
C887 H945 0.930 . S
C888 N885 1.314 . S
C888 C886 1.353 . S
C888 H946 0.930 . S
C889 N885 1.279 . S
C889 C887 1.358 . S
C889 H947 0.930 . S
C890 C893 1.348 . S
C890 C894 1.356 . S
C890 O941 1.325 . S
C891 N892 1.279 . S
C891 C894 1.358 . S
C891 H948 0.930 . S
N892 C891 1.279 . S
N892 C895 1.314 . S
C893 C890 1.348 . S
C893 C895 1.353 . S
C893 H949 0.929 . S
C894 C890 1.356 . S
C894 C891 1.358 . S
C894 H950 0.930 . S
C895 N892 1.314 . S
C895 C893 1.353 . S
C895 H951 0.930 . S
C896 N897 1.314 . S
C896 C901 1.353 . S
C896 H902 0.930 . S
N897 Li880 1.990 . S
N897 C896 1.314 . S
N897 C899 1.279 . S
C898 C899 1.358 . S
C898 C900 1.356 . S
C898 H952 0.930 . S
C899 N897 1.279 . S
C899 C898 1.358 . S
C899 H903 0.930 . S
C900 C898 1.356 . S
C900 C901 1.348 . S
C901 C896 1.353 . S
C901 C900 1.348 . S
C901 H953 0.929 . S
H902 C896 0.930 . S
H903 C899 0.930 . S
C904 N905 1.314 . S
C904 C906 1.353 . S
C904 H910 0.930 . S
N905 Li881 1.990 . S
N905 C904 1.314 . S
N905 C908 1.279 . S
C906 C904 1.353 . S
C906 C909 1.348 . S
C906 H954 0.929 . S
C907 C908 1.358 . S
C907 C909 1.356 . S
C907 H955 0.930 . S
C908 N905 1.279 . S
C908 C907 1.358 . S
C908 H911 0.930 . S
C909 C906 1.348 . S
C909 C907 1.356 . S
H910 C904 0.930 . S
H911 C908 0.930 . S
C912 C914 1.348 . S
C912 C915 1.356 . S
C912 O942 1.325 . S
N913 C916 1.314 . S
N913 C917 1.279 . S
C914 C912 1.348 . S
C914 C916 1.353 . S
C914 H956 0.929 . S
C915 C912 1.356 . S
C915 C917 1.358 . S
C915 H957 0.930 . S
C916 N913 1.314 . S
C916 C914 1.353 . S
C916 H958 0.930 . S
C917 N913 1.279 . S
C917 C915 1.358 . S
C917 H959 0.930 . S
C918 C919 1.348 . S
C918 C920 1.356 . S
C918 O943 1.325 . S
C919 C918 1.348 . S
C919 C921 1.353 . S
C919 H960 0.929 . S
C920 C918 1.356 . S
C920 C922 1.358 . S
C920 H961 0.930 . S
C921 C919 1.353 . S
C921 N923 1.314 . S
C921 H962 0.930 . S
C922 C920 1.358 . S
C922 N923 1.279 . S
C922 H963 0.930 . S
N923 C921 1.314 . S
N923 C922 1.279 . S
C924 C926 1.353 . S
C924 N927 1.314 . S
C924 H930 0.930 . S
C925 N927 1.279 . S
C925 C928 1.358 . S
C925 H931 0.930 . S
C926 C924 1.353 . S
C926 C929 1.348 . S
C926 H964 0.929 . S
N927 Li882 1.990 . S
N927 C924 1.314 . S
N927 C925 1.279 . S
C928 C925 1.358 . S
C928 C929 1.356 . S
C928 H965 0.930 . S
C929 C926 1.348 . S
C929 C928 1.356 . S
H930 C924 0.930 . S
H931 C925 0.930 . S
C932 N933 1.314 . S
C932 C934 1.353 . S
C932 H938 0.930 . S
N933 Li883 1.990 . S
N933 C932 1.314 . S
N933 C936 1.279 . S
C934 C932 1.353 . S
C934 C937 1.348 . S
C934 H966 0.929 . S
C935 C936 1.358 . S
C935 C937 1.356 . S
C935 H967 0.930 . S
C936 N933 1.279 . S
C936 C935 1.358 . S
C936 H939 0.930 . S
C937 C934 1.348 . S
C937 C935 1.356 . S
H938 C932 0.930 . S
H939 C936 0.930 . S
O940 Li880 1.956 . S
O940 Li881 1.970 . S
O940 Li882 1.961 . S
O940 C884 1.325 . S
O941 Li880 1.970 . S
O941 Li881 1.956 . S
O941 Li883 1.961 . S
O941 C890 1.325 . S
O942 Li880 1.961 . S
O942 Li882 1.956 . S
O942 Li883 1.970 . S
O942 C912 1.325 . S
O943 Li881 1.961 . S
O943 Li882 1.970 . S
O943 Li883 1.956 . S
O943 C918 1.325 . S
H944 C886 0.929 . S
H945 C887 0.930 . S
H946 C888 0.930 . S
H947 C889 0.930 . S
H948 C891 0.930 . S
H949 C893 0.929 . S
H950 C894 0.930 . S
H951 C895 0.930 . S
H952 C898 0.930 . S
H953 C901 0.929 . S
H954 C906 0.929 . S
H955 C907 0.930 . S
H956 C914 0.929 . S
H957 C915 0.930 . S
H958 C916 0.930 . S
H959 C917 0.930 . S
H960 C919 0.929 . S
H961 C920 0.930 . S
H962 C921 0.930 . S
H963 C922 0.930 . S
H964 C926 0.929 . S
H965 C928 0.930 . S
H966 C934 0.929 . S
H967 C935 0.930 . S
Li968 N985 1.990 . S
Li968 O1028 1.956 . S
Li968 O1029 1.970 . S
Li968 O1030 1.961 . S
Li969 N993 1.990 . S
Li969 O1028 1.970 . S
Li969 O1029 1.956 . S
Li969 O1031 1.961 . S
Li970 N1015 1.990 . S
Li970 O1028 1.961 . S
Li970 O1030 1.956 . S
Li970 O1031 1.970 . S
Li971 N1021 1.990 . S
Li971 O1029 1.961 . S
Li971 O1030 1.970 . S
Li971 O1031 1.956 . S
C972 C974 1.348 . S
C972 C975 1.356 . S
C972 O1028 1.325 . S
N973 C976 1.314 . S
N973 C977 1.279 . S
C974 C972 1.348 . S
C974 C976 1.353 . S
C974 H1032 0.929 . S
C975 C972 1.356 . S
C975 C977 1.358 . S
C975 H1033 0.930 . S
C976 N973 1.314 . S
C976 C974 1.353 . S
C976 H1034 0.930 . S
C977 N973 1.279 . S
C977 C975 1.358 . S
C977 H1035 0.930 . S
C978 C981 1.348 . S
C978 C982 1.356 . S
C978 O1029 1.325 . S
C979 N980 1.279 . S
C979 C982 1.358 . S
C979 H1036 0.930 . S
N980 C979 1.279 . S
N980 C983 1.314 . S
C981 C978 1.348 . S
C981 C983 1.353 . S
C981 H1037 0.929 . S
C982 C978 1.356 . S
C982 C979 1.358 . S
C982 H1038 0.930 . S
C983 N980 1.314 . S
C983 C981 1.353 . S
C983 H1039 0.930 . S
C984 N985 1.314 . S
C984 C989 1.353 . S
C984 H990 0.930 . S
N985 Li968 1.990 . S
N985 C984 1.314 . S
N985 C987 1.279 . S
C986 C987 1.358 . S
C986 C988 1.356 . S
C986 H1040 0.930 . S
C987 N985 1.279 . S
C987 C986 1.358 . S
C987 H991 0.930 . S
C988 C986 1.356 . S
C988 C989 1.348 . S
C989 C984 1.353 . S
C989 C988 1.348 . S
C989 H1041 0.929 . S
H990 C984 0.930 . S
H991 C987 0.930 . S
C992 N993 1.314 . S
C992 C994 1.353 . S
C992 H998 0.930 . S
N993 Li969 1.990 . S
N993 C992 1.314 . S
N993 C996 1.279 . S
C994 C992 1.353 . S
C994 C997 1.348 . S
C994 H1042 0.929 . S
C995 C996 1.358 . S
C995 C997 1.356 . S
C995 H1043 0.930 . S
C996 N993 1.279 . S
C996 C995 1.358 . S
C996 H999 0.930 . S
C997 C994 1.348 . S
C997 C995 1.356 . S
H998 C992 0.930 . S
H999 C996 0.930 . S
C1000 C1002 1.348 . S
C1000 C1003 1.356 . S
C1000 O1030 1.325 . S
N1001 C1004 1.314 . S
N1001 C1005 1.279 . S
C1002 C1000 1.348 . S
C1002 C1004 1.353 . S
C1002 H1044 0.929 . S
C1003 C1000 1.356 . S
C1003 C1005 1.358 . S
C1003 H1045 0.930 . S
C1004 N1001 1.314 . S
C1004 C1002 1.353 . S
C1004 H1046 0.930 . S
C1005 N1001 1.279 . S
C1005 C1003 1.358 . S
C1005 H1047 0.930 . S
C1006 C1007 1.348 . S
C1006 C1008 1.356 . S
C1006 O1031 1.325 . S
C1007 C1006 1.348 . S
C1007 C1009 1.353 . S
C1007 H1048 0.929 . S
C1008 C1006 1.356 . S
C1008 C1010 1.358 . S
C1008 H1049 0.930 . S
C1009 C1007 1.353 . S
C1009 N1011 1.314 . S
C1009 H1050 0.930 . S
C1010 C1008 1.358 . S
C1010 N1011 1.279 . S
C1010 H1051 0.930 . S
N1011 C1009 1.314 . S
N1011 C1010 1.279 . S
C1012 C1014 1.353 . S
C1012 N1015 1.314 . S
C1012 H1018 0.930 . S
C1013 N1015 1.279 . S
C1013 C1016 1.358 . S
C1013 H1019 0.930 . S
C1014 C1012 1.353 . S
C1014 C1017 1.348 . S
C1014 H1052 0.929 . S
N1015 Li970 1.990 . S
N1015 C1012 1.314 . S
N1015 C1013 1.279 . S
C1016 C1013 1.358 . S
C1016 C1017 1.356 . S
C1016 H1053 0.930 . S
C1017 C1014 1.348 . S
C1017 C1016 1.356 . S
H1018 C1012 0.930 . S
H1019 C1013 0.930 . S
C1020 N1021 1.314 . S
C1020 C1022 1.353 . S
C1020 H1026 0.930 . S
N1021 Li971 1.990 . S
N1021 C1020 1.314 . S
N1021 C1024 1.279 . S
C1022 C1020 1.353 . S
C1022 C1025 1.348 . S
C1022 H1054 0.929 . S
C1023 C1024 1.358 . S
C1023 C1025 1.356 . S
C1023 H1055 0.930 . S
C1024 N1021 1.279 . S
C1024 C1023 1.358 . S
C1024 H1027 0.930 . S
C1025 C1022 1.348 . S
C1025 C1023 1.356 . S
H1026 C1020 0.930 . S
H1027 C1024 0.930 . S
O1028 Li968 1.956 . S
O1028 Li969 1.970 . S
O1028 Li970 1.961 . S
O1028 C972 1.325 . S
O1029 Li968 1.970 . S
O1029 Li969 1.956 . S
O1029 Li971 1.961 . S
O1029 C978 1.325 . S
O1030 Li968 1.961 . S
O1030 Li970 1.956 . S
O1030 Li971 1.970 . S
O1030 C1000 1.325 . S
O1031 Li969 1.961 . S
O1031 Li970 1.970 . S
O1031 Li971 1.956 . S
O1031 C1006 1.325 . S
H1032 C974 0.929 . S
H1033 C975 0.930 . S
H1034 C976 0.930 . S
H1035 C977 0.930 . S
H1036 C979 0.930 . S
H1037 C981 0.929 . S
H1038 C982 0.930 . S
H1039 C983 0.930 . S
H1040 C986 0.930 . S
H1041 C989 0.929 . S
H1042 C994 0.929 . S
H1043 C995 0.930 . S
H1044 C1002 0.929 . S
H1045 C1003 0.930 . S
H1046 C1004 0.930 . S
H1047 C1005 0.930 . S
H1048 C1007 0.929 . S
H1049 C1008 0.930 . S
H1050 C1009 0.930 . S
H1051 C1010 0.930 . S
H1052 C1014 0.929 . S
H1053 C1016 0.930 . S
H1054 C1022 0.929 . S
H1055 C1023 0.930 . S
Li1056 N1073 1.990 . S
Li1056 O1116 1.956 . S
Li1056 O1117 1.970 . S
Li1056 O1118 1.961 . S
Li1057 N1081 1.990 . S
Li1057 O1116 1.970 . S
Li1057 O1117 1.956 . S
Li1057 O1119 1.961 . S
Li1058 N1103 1.990 . S
Li1058 O1116 1.961 . S
Li1058 O1118 1.956 . S
Li1058 O1119 1.970 . S
Li1059 N1109 1.990 . S
Li1059 O1117 1.961 . S
Li1059 O1118 1.970 . S
Li1059 O1119 1.956 . S
C1060 C1062 1.348 . S
C1060 C1063 1.356 . S
C1060 O1116 1.325 . S
N1061 C1064 1.314 . S
N1061 C1065 1.279 . S
C1062 C1060 1.348 . S
C1062 C1064 1.353 . S
C1062 H1120 0.929 . S
C1063 C1060 1.356 . S
C1063 C1065 1.358 . S
C1063 H1121 0.930 . S
C1064 N1061 1.314 . S
C1064 C1062 1.353 . S
C1064 H1122 0.930 . S
C1065 N1061 1.279 . S
C1065 C1063 1.358 . S
C1065 H1123 0.930 . S
C1066 C1069 1.348 . S
C1066 C1070 1.356 . S
C1066 O1117 1.325 . S
C1067 N1068 1.279 . S
C1067 C1070 1.358 . S
C1067 H1124 0.930 . S
N1068 C1067 1.279 . S
N1068 C1071 1.314 . S
C1069 C1066 1.348 . S
C1069 C1071 1.353 . S
C1069 H1125 0.929 . S
C1070 C1066 1.356 . S
C1070 C1067 1.358 . S
C1070 H1126 0.930 . S
C1071 N1068 1.314 . S
C1071 C1069 1.353 . S
C1071 H1127 0.930 . S
C1072 N1073 1.314 . S
C1072 C1077 1.353 . S
C1072 H1078 0.930 . S
N1073 Li1056 1.990 . S
N1073 C1072 1.314 . S
N1073 C1075 1.279 . S
C1074 C1075 1.358 . S
C1074 C1076 1.356 . S
C1074 H1128 0.930 . S
C1075 N1073 1.279 . S
C1075 C1074 1.358 . S
C1075 H1079 0.930 . S
C1076 C1074 1.356 . S
C1076 C1077 1.348 . S
C1077 C1072 1.353 . S
C1077 C1076 1.348 . S
C1077 H1129 0.929 . S
H1078 C1072 0.930 . S
H1079 C1075 0.930 . S
C1080 N1081 1.314 . S
C1080 C1082 1.353 . S
C1080 H1086 0.930 . S
N1081 Li1057 1.990 . S
N1081 C1080 1.314 . S
N1081 C1084 1.279 . S
C1082 C1080 1.353 . S
C1082 C1085 1.348 . S
C1082 H1130 0.929 . S
C1083 C1084 1.358 . S
C1083 C1085 1.356 . S
C1083 H1131 0.930 . S
C1084 N1081 1.279 . S
C1084 C1083 1.358 . S
C1084 H1087 0.930 . S
C1085 C1082 1.348 . S
C1085 C1083 1.356 . S
H1086 C1080 0.930 . S
H1087 C1084 0.930 . S
C1088 C1090 1.348 . S
C1088 C1091 1.356 . S
C1088 O1118 1.325 . S
N1089 C1092 1.314 . S
N1089 C1093 1.279 . S
C1090 C1088 1.348 . S
C1090 C1092 1.353 . S
C1090 H1132 0.929 . S
C1091 C1088 1.356 . S
C1091 C1093 1.358 . S
C1091 H1133 0.930 . S
C1092 N1089 1.314 . S
C1092 C1090 1.353 . S
C1092 H1134 0.930 . S
C1093 N1089 1.279 . S
C1093 C1091 1.358 . S
C1093 H1135 0.930 . S
C1094 C1095 1.348 . S
C1094 C1096 1.356 . S
C1094 O1119 1.325 . S
C1095 C1094 1.348 . S
C1095 C1097 1.353 . S
C1095 H1136 0.929 . S
C1096 C1094 1.356 . S
C1096 C1098 1.358 . S
C1096 H1137 0.930 . S
C1097 C1095 1.353 . S
C1097 N1099 1.314 . S
C1097 H1138 0.930 . S
C1098 C1096 1.358 . S
C1098 N1099 1.279 . S
C1098 H1139 0.930 . S
N1099 C1097 1.314 . S
N1099 C1098 1.279 . S
C1100 C1102 1.353 . S
C1100 N1103 1.314 . S
C1100 H1106 0.930 . S
C1101 N1103 1.279 . S
C1101 C1104 1.358 . S
C1101 H1107 0.930 . S
C1102 C1100 1.353 . S
C1102 C1105 1.348 . S
C1102 H1140 0.929 . S
N1103 Li1058 1.990 . S
N1103 C1100 1.314 . S
N1103 C1101 1.279 . S
C1104 C1101 1.358 . S
C1104 C1105 1.356 . S
C1104 H1141 0.930 . S
C1105 C1102 1.348 . S
C1105 C1104 1.356 . S
H1106 C1100 0.930 . S
H1107 C1101 0.930 . S
C1108 N1109 1.314 . S
C1108 C1110 1.353 . S
C1108 H1114 0.930 . S
N1109 Li1059 1.990 . S
N1109 C1108 1.314 . S
N1109 C1112 1.279 . S
C1110 C1108 1.353 . S
C1110 C1113 1.348 . S
C1110 H1142 0.929 . S
C1111 C1112 1.358 . S
C1111 C1113 1.356 . S
C1111 H1143 0.930 . S
C1112 N1109 1.279 . S
C1112 C1111 1.358 . S
C1112 H1115 0.930 . S
C1113 C1110 1.348 . S
C1113 C1111 1.356 . S
H1114 C1108 0.930 . S
H1115 C1112 0.930 . S
O1116 Li1056 1.956 . S
O1116 Li1057 1.970 . S
O1116 Li1058 1.961 . S
O1116 C1060 1.325 . S
O1117 Li1056 1.970 . S
O1117 Li1057 1.956 . S
O1117 Li1059 1.961 . S
O1117 C1066 1.325 . S
O1118 Li1056 1.961 . S
O1118 Li1058 1.956 . S
O1118 Li1059 1.970 . S
O1118 C1088 1.325 . S
O1119 Li1057 1.961 . S
O1119 Li1058 1.970 . S
O1119 Li1059 1.956 . S
O1119 C1094 1.325 . S
H1120 C1062 0.929 . S
H1121 C1063 0.930 . S
H1122 C1064 0.930 . S
H1123 C1065 0.930 . S
H1124 C1067 0.930 . S
H1125 C1069 0.929 . S
H1126 C1070 0.930 . S
H1127 C1071 0.930 . S
H1128 C1074 0.930 . S
H1129 C1077 0.929 . S
H1130 C1082 0.929 . S
H1131 C1083 0.930 . S
H1132 C1090 0.929 . S
H1133 C1091 0.930 . S
H1134 C1092 0.930 . S
H1135 C1093 0.930 . S
H1136 C1095 0.929 . S
H1137 C1096 0.930 . S
H1138 C1097 0.930 . S
H1139 C1098 0.930 . S
H1140 C1102 0.929 . S
H1141 C1104 0.930 . S
H1142 C1110 0.929 . S
H1143 C1111 0.930 . S
Li1144 N1161 1.990 . S
Li1144 O1204 1.956 . S
Li1144 O1205 1.970 . S
Li1144 O1206 1.961 . S
Li1145 N1169 1.990 . S
Li1145 O1204 1.970 . S
Li1145 O1205 1.956 . S
Li1145 O1207 1.961 . S
Li1146 N1191 1.990 . S
Li1146 O1204 1.961 . S
Li1146 O1206 1.956 . S
Li1146 O1207 1.970 . S
Li1147 N1197 1.990 . S
Li1147 O1205 1.961 . S
Li1147 O1206 1.970 . S
Li1147 O1207 1.956 . S
C1148 C1150 1.348 . S
C1148 C1151 1.356 . S
C1148 O1204 1.325 . S
N1149 C1152 1.314 . S
N1149 C1153 1.279 . S
C1150 C1148 1.348 . S
C1150 C1152 1.353 . S
C1150 H1208 0.929 . S
C1151 C1148 1.356 . S
C1151 C1153 1.358 . S
C1151 H1209 0.930 . S
C1152 N1149 1.314 . S
C1152 C1150 1.353 . S
C1152 H1210 0.930 . S
C1153 N1149 1.279 . S
C1153 C1151 1.358 . S
C1153 H1211 0.930 . S
C1154 C1157 1.348 . S
C1154 C1158 1.356 . S
C1154 O1205 1.325 . S
C1155 N1156 1.279 . S
C1155 C1158 1.358 . S
C1155 H1212 0.930 . S
N1156 C1155 1.279 . S
N1156 C1159 1.314 . S
C1157 C1154 1.348 . S
C1157 C1159 1.353 . S
C1157 H1213 0.929 . S
C1158 C1154 1.356 . S
C1158 C1155 1.358 . S
C1158 H1214 0.930 . S
C1159 N1156 1.314 . S
C1159 C1157 1.353 . S
C1159 H1215 0.930 . S
C1160 N1161 1.314 . S
C1160 C1165 1.353 . S
C1160 H1166 0.930 . S
N1161 Li1144 1.990 . S
N1161 C1160 1.314 . S
N1161 C1163 1.279 . S
C1162 C1163 1.358 . S
C1162 C1164 1.356 . S
C1162 H1216 0.930 . S
C1163 N1161 1.279 . S
C1163 C1162 1.358 . S
C1163 H1167 0.930 . S
C1164 C1162 1.356 . S
C1164 C1165 1.348 . S
C1165 C1160 1.353 . S
C1165 C1164 1.348 . S
C1165 H1217 0.929 . S
H1166 C1160 0.930 . S
H1167 C1163 0.930 . S
C1168 N1169 1.314 . S
C1168 C1170 1.353 . S
C1168 H1174 0.930 . S
N1169 Li1145 1.990 . S
N1169 C1168 1.314 . S
N1169 C1172 1.279 . S
C1170 C1168 1.353 . S
C1170 C1173 1.348 . S
C1170 H1218 0.929 . S
C1171 C1172 1.358 . S
C1171 C1173 1.356 . S
C1171 H1219 0.930 . S
C1172 N1169 1.279 . S
C1172 C1171 1.358 . S
C1172 H1175 0.930 . S
C1173 C1170 1.348 . S
C1173 C1171 1.356 . S
H1174 C1168 0.930 . S
H1175 C1172 0.930 . S
C1176 C1178 1.348 . S
C1176 C1179 1.356 . S
C1176 O1206 1.325 . S
N1177 C1180 1.314 . S
N1177 C1181 1.279 . S
C1178 C1176 1.348 . S
C1178 C1180 1.353 . S
C1178 H1220 0.929 . S
C1179 C1176 1.356 . S
C1179 C1181 1.358 . S
C1179 H1221 0.930 . S
C1180 N1177 1.314 . S
C1180 C1178 1.353 . S
C1180 H1222 0.930 . S
C1181 N1177 1.279 . S
C1181 C1179 1.358 . S
C1181 H1223 0.930 . S
C1182 C1183 1.348 . S
C1182 C1184 1.356 . S
C1182 O1207 1.325 . S
C1183 C1182 1.348 . S
C1183 C1185 1.353 . S
C1183 H1224 0.929 . S
C1184 C1182 1.356 . S
C1184 C1186 1.358 . S
C1184 H1225 0.930 . S
C1185 C1183 1.353 . S
C1185 N1187 1.314 . S
C1185 H1226 0.930 . S
C1186 C1184 1.358 . S
C1186 N1187 1.279 . S
C1186 H1227 0.930 . S
N1187 C1185 1.314 . S
N1187 C1186 1.279 . S
C1188 C1190 1.353 . S
C1188 N1191 1.314 . S
C1188 H1194 0.930 . S
C1189 N1191 1.279 . S
C1189 C1192 1.358 . S
C1189 H1195 0.930 . S
C1190 C1188 1.353 . S
C1190 C1193 1.348 . S
C1190 H1228 0.929 . S
N1191 Li1146 1.990 . S
N1191 C1188 1.314 . S
N1191 C1189 1.279 . S
C1192 C1189 1.358 . S
C1192 C1193 1.356 . S
C1192 H1229 0.930 . S
C1193 C1190 1.348 . S
C1193 C1192 1.356 . S
H1194 C1188 0.930 . S
H1195 C1189 0.930 . S
C1196 N1197 1.314 . S
C1196 C1198 1.353 . S
C1196 H1202 0.930 . S
N1197 Li1147 1.990 . S
N1197 C1196 1.314 . S
N1197 C1200 1.279 . S
C1198 C1196 1.353 . S
C1198 C1201 1.348 . S
C1198 H1230 0.929 . S
C1199 C1200 1.358 . S
C1199 C1201 1.356 . S
C1199 H1231 0.930 . S
C1200 N1197 1.279 . S
C1200 C1199 1.358 . S
C1200 H1203 0.930 . S
C1201 C1198 1.348 . S
C1201 C1199 1.356 . S
H1202 C1196 0.930 . S
H1203 C1200 0.930 . S
O1204 Li1144 1.956 . S
O1204 Li1145 1.970 . S
O1204 Li1146 1.961 . S
O1204 C1148 1.325 . S
O1205 Li1144 1.970 . S
O1205 Li1145 1.956 . S
O1205 Li1147 1.961 . S
O1205 C1154 1.325 . S
O1206 Li1144 1.961 . S
O1206 Li1146 1.956 . S
O1206 Li1147 1.970 . S
O1206 C1176 1.325 . S
O1207 Li1145 1.961 . S
O1207 Li1146 1.970 . S
O1207 Li1147 1.956 . S
O1207 C1182 1.325 . S
H1208 C1150 0.929 . S
H1209 C1151 0.930 . S
H1210 C1152 0.930 . S
H1211 C1153 0.930 . S
H1212 C1155 0.930 . S
H1213 C1157 0.929 . S
H1214 C1158 0.930 . S
H1215 C1159 0.930 . S
H1216 C1162 0.930 . S
H1217 C1165 0.929 . S
H1218 C1170 0.929 . S
H1219 C1171 0.930 . S
H1220 C1178 0.929 . S
H1221 C1179 0.930 . S
H1222 C1180 0.930 . S
H1223 C1181 0.930 . S
H1224 C1183 0.929 . S
H1225 C1184 0.930 . S
H1226 C1185 0.930 . S
H1227 C1186 0.930 . S
H1228 C1190 0.929 . S
H1229 C1192 0.930 . S
H1230 C1198 0.929 . S
H1231 C1199 0.930 . S
Li1232 N1249 1.990 . S
Li1232 O1292 1.956 . S
Li1232 O1293 1.970 . S
Li1232 O1294 1.961 . S
Li1233 N1257 1.990 . S
Li1233 O1292 1.970 . S
Li1233 O1293 1.956 . S
Li1233 O1295 1.961 . S
Li1234 N1279 1.990 . S
Li1234 O1292 1.961 . S
Li1234 O1294 1.956 . S
Li1234 O1295 1.970 . S
Li1235 N1285 1.990 . S
Li1235 O1293 1.961 . S
Li1235 O1294 1.970 . S
Li1235 O1295 1.956 . S
C1236 C1238 1.348 . S
C1236 C1239 1.356 . S
C1236 O1292 1.325 . S
N1237 C1240 1.314 . S
N1237 C1241 1.279 . S
C1238 C1236 1.348 . S
C1238 C1240 1.353 . S
C1238 H1296 0.929 . S
C1239 C1236 1.356 . S
C1239 C1241 1.358 . S
C1239 H1297 0.930 . S
C1240 N1237 1.314 . S
C1240 C1238 1.353 . S
C1240 H1298 0.930 . S
C1241 N1237 1.279 . S
C1241 C1239 1.358 . S
C1241 H1299 0.930 . S
C1242 C1245 1.348 . S
C1242 C1246 1.356 . S
C1242 O1293 1.325 . S
C1243 N1244 1.279 . S
C1243 C1246 1.358 . S
C1243 H1300 0.930 . S
N1244 C1243 1.279 . S
N1244 C1247 1.314 . S
C1245 C1242 1.348 . S
C1245 C1247 1.353 . S
C1245 H1301 0.929 . S
C1246 C1242 1.356 . S
C1246 C1243 1.358 . S
C1246 H1302 0.930 . S
C1247 N1244 1.314 . S
C1247 C1245 1.353 . S
C1247 H1303 0.930 . S
C1248 N1249 1.314 . S
C1248 C1253 1.353 . S
C1248 H1254 0.930 . S
N1249 Li1232 1.990 . S
N1249 C1248 1.314 . S
N1249 C1251 1.279 . S
C1250 C1251 1.358 . S
C1250 C1252 1.356 . S
C1250 H1304 0.930 . S
C1251 N1249 1.279 . S
C1251 C1250 1.358 . S
C1251 H1255 0.930 . S
C1252 C1250 1.356 . S
C1252 C1253 1.348 . S
C1253 C1248 1.353 . S
C1253 C1252 1.348 . S
C1253 H1305 0.929 . S
H1254 C1248 0.930 . S
H1255 C1251 0.930 . S
C1256 N1257 1.314 . S
C1256 C1258 1.353 . S
C1256 H1262 0.930 . S
N1257 Li1233 1.990 . S
N1257 C1256 1.314 . S
N1257 C1260 1.279 . S
C1258 C1256 1.353 . S
C1258 C1261 1.348 . S
C1258 H1306 0.929 . S
C1259 C1260 1.358 . S
C1259 C1261 1.356 . S
C1259 H1307 0.930 . S
C1260 N1257 1.279 . S
C1260 C1259 1.358 . S
C1260 H1263 0.930 . S
C1261 C1258 1.348 . S
C1261 C1259 1.356 . S
H1262 C1256 0.930 . S
H1263 C1260 0.930 . S
C1264 C1266 1.348 . S
C1264 C1267 1.356 . S
C1264 O1294 1.325 . S
N1265 C1268 1.314 . S
N1265 C1269 1.279 . S
C1266 C1264 1.348 . S
C1266 C1268 1.353 . S
C1266 H1308 0.929 . S
C1267 C1264 1.356 . S
C1267 C1269 1.358 . S
C1267 H1309 0.930 . S
C1268 N1265 1.314 . S
C1268 C1266 1.353 . S
C1268 H1310 0.930 . S
C1269 N1265 1.279 . S
C1269 C1267 1.358 . S
C1269 H1311 0.930 . S
C1270 C1271 1.348 . S
C1270 C1272 1.356 . S
C1270 O1295 1.325 . S
C1271 C1270 1.348 . S
C1271 C1273 1.353 . S
C1271 H1312 0.929 . S
C1272 C1270 1.356 . S
C1272 C1274 1.358 . S
C1272 H1313 0.930 . S
C1273 C1271 1.353 . S
C1273 N1275 1.314 . S
C1273 H1314 0.930 . S
C1274 C1272 1.358 . S
C1274 N1275 1.279 . S
C1274 H1315 0.930 . S
N1275 C1273 1.314 . S
N1275 C1274 1.279 . S
C1276 C1278 1.353 . S
C1276 N1279 1.314 . S
C1276 H1282 0.930 . S
C1277 N1279 1.279 . S
C1277 C1280 1.358 . S
C1277 H1283 0.930 . S
C1278 C1276 1.353 . S
C1278 C1281 1.348 . S
C1278 H1316 0.929 . S
N1279 Li1234 1.990 . S
N1279 C1276 1.314 . S
N1279 C1277 1.279 . S
C1280 C1277 1.358 . S
C1280 C1281 1.356 . S
C1280 H1317 0.930 . S
C1281 C1278 1.348 . S
C1281 C1280 1.356 . S
H1282 C1276 0.930 . S
H1283 C1277 0.930 . S
C1284 N1285 1.314 . S
C1284 C1286 1.353 . S
C1284 H1290 0.930 . S
N1285 Li1235 1.990 . S
N1285 C1284 1.314 . S
N1285 C1288 1.279 . S
C1286 C1284 1.353 . S
C1286 C1289 1.348 . S
C1286 H1318 0.929 . S
C1287 C1288 1.358 . S
C1287 C1289 1.356 . S
C1287 H1319 0.930 . S
C1288 N1285 1.279 . S
C1288 C1287 1.358 . S
C1288 H1291 0.930 . S
C1289 C1286 1.348 . S
C1289 C1287 1.356 . S
H1290 C1284 0.930 . S
H1291 C1288 0.930 . S
O1292 Li1232 1.956 . S
O1292 Li1233 1.970 . S
O1292 Li1234 1.961 . S
O1292 C1236 1.325 . S
O1293 Li1232 1.970 . S
O1293 Li1233 1.956 . S
O1293 Li1235 1.961 . S
O1293 C1242 1.325 . S
O1294 Li1232 1.961 . S
O1294 Li1234 1.956 . S
O1294 Li1235 1.970 . S
O1294 C1264 1.325 . S
O1295 Li1233 1.961 . S
O1295 Li1234 1.970 . S
O1295 Li1235 1.956 . S
O1295 C1270 1.325 . S
H1296 C1238 0.929 . S
H1297 C1239 0.930 . S
H1298 C1240 0.930 . S
H1299 C1241 0.930 . S
H1300 C1243 0.930 . S
H1301 C1245 0.929 . S
H1302 C1246 0.930 . S
H1303 C1247 0.930 . S
H1304 C1250 0.930 . S
H1305 C1253 0.929 . S
H1306 C1258 0.929 . S
H1307 C1259 0.930 . S
H1308 C1266 0.929 . S
H1309 C1267 0.930 . S
H1310 C1268 0.930 . S
H1311 C1269 0.930 . S
H1312 C1271 0.929 . S
H1313 C1272 0.930 . S
H1314 C1273 0.930 . S
H1315 C1274 0.930 . S
H1316 C1278 0.929 . S
H1317 C1280 0.930 . S
H1318 C1286 0.929 . S
H1319 C1287 0.930 . S
Li1320 N1337 1.990 . S
Li1320 O1380 1.956 . S
Li1320 O1381 1.970 . S
Li1320 O1382 1.961 . S
Li1321 N1345 1.990 . S
Li1321 O1380 1.970 . S
Li1321 O1381 1.956 . S
Li1321 O1383 1.961 . S
Li1322 N1367 1.990 . S
Li1322 O1380 1.961 . S
Li1322 O1382 1.956 . S
Li1322 O1383 1.970 . S
Li1323 N1373 1.990 . S
Li1323 O1381 1.961 . S
Li1323 O1382 1.970 . S
Li1323 O1383 1.956 . S
C1324 C1326 1.348 . S
C1324 C1327 1.356 . S
C1324 O1380 1.325 . S
N1325 C1328 1.314 . S
N1325 C1329 1.279 . S
C1326 C1324 1.348 . S
C1326 C1328 1.353 . S
C1326 H1384 0.929 . S
C1327 C1324 1.356 . S
C1327 C1329 1.358 . S
C1327 H1385 0.930 . S
C1328 N1325 1.314 . S
C1328 C1326 1.353 . S
C1328 H1386 0.930 . S
C1329 N1325 1.279 . S
C1329 C1327 1.358 . S
C1329 H1387 0.930 . S
C1330 C1333 1.348 . S
C1330 C1334 1.356 . S
C1330 O1381 1.325 . S
C1331 N1332 1.279 . S
C1331 C1334 1.358 . S
C1331 H1388 0.930 . S
N1332 C1331 1.279 . S
N1332 C1335 1.314 . S
C1333 C1330 1.348 . S
C1333 C1335 1.353 . S
C1333 H1389 0.929 . S
C1334 C1330 1.356 . S
C1334 C1331 1.358 . S
C1334 H1390 0.930 . S
C1335 N1332 1.314 . S
C1335 C1333 1.353 . S
C1335 H1391 0.930 . S
C1336 N1337 1.314 . S
C1336 C1341 1.353 . S
C1336 H1342 0.930 . S
N1337 Li1320 1.990 . S
N1337 C1336 1.314 . S
N1337 C1339 1.279 . S
C1338 C1339 1.358 . S
C1338 C1340 1.356 . S
C1338 H1392 0.930 . S
C1339 N1337 1.279 . S
C1339 C1338 1.358 . S
C1339 H1343 0.930 . S
C1340 C1338 1.356 . S
C1340 C1341 1.348 . S
C1341 C1336 1.353 . S
C1341 C1340 1.348 . S
C1341 H1393 0.929 . S
H1342 C1336 0.930 . S
H1343 C1339 0.930 . S
C1344 N1345 1.314 . S
C1344 C1346 1.353 . S
C1344 H1350 0.930 . S
N1345 Li1321 1.990 . S
N1345 C1344 1.314 . S
N1345 C1348 1.279 . S
C1346 C1344 1.353 . S
C1346 C1349 1.348 . S
C1346 H1394 0.929 . S
C1347 C1348 1.358 . S
C1347 C1349 1.356 . S
C1347 H1395 0.930 . S
C1348 N1345 1.279 . S
C1348 C1347 1.358 . S
C1348 H1351 0.930 . S
C1349 C1346 1.348 . S
C1349 C1347 1.356 . S
H1350 C1344 0.930 . S
H1351 C1348 0.930 . S
C1352 C1354 1.348 . S
C1352 C1355 1.356 . S
C1352 O1382 1.325 . S
N1353 C1356 1.314 . S
N1353 C1357 1.279 . S
C1354 C1352 1.348 . S
C1354 C1356 1.353 . S
C1354 H1396 0.929 . S
C1355 C1352 1.356 . S
C1355 C1357 1.358 . S
C1355 H1397 0.930 . S
C1356 N1353 1.314 . S
C1356 C1354 1.353 . S
C1356 H1398 0.930 . S
C1357 N1353 1.279 . S
C1357 C1355 1.358 . S
C1357 H1399 0.930 . S
C1358 C1359 1.348 . S
C1358 C1360 1.356 . S
C1358 O1383 1.325 . S
C1359 C1358 1.348 . S
C1359 C1361 1.353 . S
C1359 H1400 0.929 . S
C1360 C1358 1.356 . S
C1360 C1362 1.358 . S
C1360 H1401 0.930 . S
C1361 C1359 1.353 . S
C1361 N1363 1.314 . S
C1361 H1402 0.930 . S
C1362 C1360 1.358 . S
C1362 N1363 1.279 . S
C1362 H1403 0.930 . S
N1363 C1361 1.314 . S
N1363 C1362 1.279 . S
C1364 C1366 1.353 . S
C1364 N1367 1.314 . S
C1364 H1370 0.930 . S
C1365 N1367 1.279 . S
C1365 C1368 1.358 . S
C1365 H1371 0.930 . S
C1366 C1364 1.353 . S
C1366 C1369 1.348 . S
C1366 H1404 0.929 . S
N1367 Li1322 1.990 . S
N1367 C1364 1.314 . S
N1367 C1365 1.279 . S
C1368 C1365 1.358 . S
C1368 C1369 1.356 . S
C1368 H1405 0.930 . S
C1369 C1366 1.348 . S
C1369 C1368 1.356 . S
H1370 C1364 0.930 . S
H1371 C1365 0.930 . S
C1372 N1373 1.314 . S
C1372 C1374 1.353 . S
C1372 H1378 0.930 . S
N1373 Li1323 1.990 . S
N1373 C1372 1.314 . S
N1373 C1376 1.279 . S
C1374 C1372 1.353 . S
C1374 C1377 1.348 . S
C1374 H1406 0.929 . S
C1375 C1376 1.358 . S
C1375 C1377 1.356 . S
C1375 H1407 0.930 . S
C1376 N1373 1.279 . S
C1376 C1375 1.358 . S
C1376 H1379 0.930 . S
C1377 C1374 1.348 . S
C1377 C1375 1.356 . S
H1378 C1372 0.930 . S
H1379 C1376 0.930 . S
O1380 Li1320 1.956 . S
O1380 Li1321 1.970 . S
O1380 Li1322 1.961 . S
O1380 C1324 1.325 . S
O1381 Li1320 1.970 . S
O1381 Li1321 1.956 . S
O1381 Li1323 1.961 . S
O1381 C1330 1.325 . S
O1382 Li1320 1.961 . S
O1382 Li1322 1.956 . S
O1382 Li1323 1.970 . S
O1382 C1352 1.325 . S
O1383 Li1321 1.961 . S
O1383 Li1322 1.970 . S
O1383 Li1323 1.956 . S
O1383 C1358 1.325 . S
H1384 C1326 0.929 . S
H1385 C1327 0.930 . S
H1386 C1328 0.930 . S
H1387 C1329 0.930 . S
H1388 C1331 0.930 . S
H1389 C1333 0.929 . S
H1390 C1334 0.930 . S
H1391 C1335 0.930 . S
H1392 C1338 0.930 . S
H1393 C1341 0.929 . S
H1394 C1346 0.929 . S
H1395 C1347 0.930 . S
H1396 C1354 0.929 . S
H1397 C1355 0.930 . S
H1398 C1356 0.930 . S
H1399 C1357 0.930 . S
H1400 C1359 0.929 . S
H1401 C1360 0.930 . S
H1402 C1361 0.930 . S
H1403 C1362 0.930 . S
H1404 C1366 0.929 . S
H1405 C1368 0.930 . S
H1406 C1374 0.929 . S
H1407 C1375 0.930 . S
Li1408 N1425 1.990 . S
Li1408 O1468 1.956 . S
Li1408 O1469 1.970 . S
Li1408 O1470 1.961 . S
Li1409 N1433 1.990 . S
Li1409 O1468 1.970 . S
Li1409 O1469 1.956 . S
Li1409 O1471 1.961 . S
Li1410 N1455 1.990 . S
Li1410 O1468 1.961 . S
Li1410 O1470 1.956 . S
Li1410 O1471 1.970 . S
Li1411 N1461 1.990 . S
Li1411 O1469 1.961 . S
Li1411 O1470 1.970 . S
Li1411 O1471 1.956 . S
C1412 C1414 1.348 . S
C1412 C1415 1.356 . S
C1412 O1468 1.325 . S
N1413 C1416 1.314 . S
N1413 C1417 1.279 . S
C1414 C1412 1.348 . S
C1414 C1416 1.353 . S
C1414 H1472 0.929 . S
C1415 C1412 1.356 . S
C1415 C1417 1.358 . S
C1415 H1473 0.930 . S
C1416 N1413 1.314 . S
C1416 C1414 1.353 . S
C1416 H1474 0.930 . S
C1417 N1413 1.279 . S
C1417 C1415 1.358 . S
C1417 H1475 0.930 . S
C1418 C1421 1.348 . S
C1418 C1422 1.356 . S
C1418 O1469 1.325 . S
C1419 N1420 1.279 . S
C1419 C1422 1.358 . S
C1419 H1476 0.930 . S
N1420 C1419 1.279 . S
N1420 C1423 1.314 . S
C1421 C1418 1.348 . S
C1421 C1423 1.353 . S
C1421 H1477 0.929 . S
C1422 C1418 1.356 . S
C1422 C1419 1.358 . S
C1422 H1478 0.930 . S
C1423 N1420 1.314 . S
C1423 C1421 1.353 . S
C1423 H1479 0.930 . S
C1424 N1425 1.314 . S
C1424 C1429 1.353 . S
C1424 H1430 0.930 . S
N1425 Li1408 1.990 . S
N1425 C1424 1.314 . S
N1425 C1427 1.279 . S
C1426 C1427 1.358 . S
C1426 C1428 1.356 . S
C1426 H1480 0.930 . S
C1427 N1425 1.279 . S
C1427 C1426 1.358 . S
C1427 H1431 0.930 . S
C1428 C1426 1.356 . S
C1428 C1429 1.348 . S
C1429 C1424 1.353 . S
C1429 C1428 1.348 . S
C1429 H1481 0.929 . S
H1430 C1424 0.930 . S
H1431 C1427 0.930 . S
C1432 N1433 1.314 . S
C1432 C1434 1.353 . S
C1432 H1438 0.930 . S
N1433 Li1409 1.990 . S
N1433 C1432 1.314 . S
N1433 C1436 1.279 . S
C1434 C1432 1.353 . S
C1434 C1437 1.348 . S
C1434 H1482 0.929 . S
C1435 C1436 1.358 . S
C1435 C1437 1.356 . S
C1435 H1483 0.930 . S
C1436 N1433 1.279 . S
C1436 C1435 1.358 . S
C1436 H1439 0.930 . S
C1437 C1434 1.348 . S
C1437 C1435 1.356 . S
H1438 C1432 0.930 . S
H1439 C1436 0.930 . S
C1440 C1442 1.348 . S
C1440 C1443 1.356 . S
C1440 O1470 1.325 . S
N1441 C1444 1.314 . S
N1441 C1445 1.279 . S
C1442 C1440 1.348 . S
C1442 C1444 1.353 . S
C1442 H1484 0.929 . S
C1443 C1440 1.356 . S
C1443 C1445 1.358 . S
C1443 H1485 0.930 . S
C1444 N1441 1.314 . S
C1444 C1442 1.353 . S
C1444 H1486 0.930 . S
C1445 N1441 1.279 . S
C1445 C1443 1.358 . S
C1445 H1487 0.930 . S
C1446 C1447 1.348 . S
C1446 C1448 1.356 . S
C1446 O1471 1.325 . S
C1447 C1446 1.348 . S
C1447 C1449 1.353 . S
C1447 H1488 0.929 . S
C1448 C1446 1.356 . S
C1448 C1450 1.358 . S
C1448 H1489 0.930 . S
C1449 C1447 1.353 . S
C1449 N1451 1.314 . S
C1449 H1490 0.930 . S
C1450 C1448 1.358 . S
C1450 N1451 1.279 . S
C1450 H1491 0.930 . S
N1451 C1449 1.314 . S
N1451 C1450 1.279 . S
C1452 C1454 1.353 . S
C1452 N1455 1.314 . S
C1452 H1458 0.930 . S
C1453 N1455 1.279 . S
C1453 C1456 1.358 . S
C1453 H1459 0.930 . S
C1454 C1452 1.353 . S
C1454 C1457 1.348 . S
C1454 H1492 0.929 . S
N1455 Li1410 1.990 . S
N1455 C1452 1.314 . S
N1455 C1453 1.279 . S
C1456 C1453 1.358 . S
C1456 C1457 1.356 . S
C1456 H1493 0.930 . S
C1457 C1454 1.348 . S
C1457 C1456 1.356 . S
H1458 C1452 0.930 . S
H1459 C1453 0.930 . S
C1460 N1461 1.314 . S
C1460 C1462 1.353 . S
C1460 H1466 0.930 . S
N1461 Li1411 1.990 . S
N1461 C1460 1.314 . S
N1461 C1464 1.279 . S
C1462 C1460 1.353 . S
C1462 C1465 1.348 . S
C1462 H1494 0.929 . S
C1463 C1464 1.358 . S
C1463 C1465 1.356 . S
C1463 H1495 0.930 . S
C1464 N1461 1.279 . S
C1464 C1463 1.358 . S
C1464 H1467 0.930 . S
C1465 C1462 1.348 . S
C1465 C1463 1.356 . S
H1466 C1460 0.930 . S
H1467 C1464 0.930 . S
O1468 Li1408 1.956 . S
O1468 Li1409 1.970 . S
O1468 Li1410 1.961 . S
O1468 C1412 1.325 . S
O1469 Li1408 1.970 . S
O1469 Li1409 1.956 . S
O1469 Li1411 1.961 . S
O1469 C1418 1.325 . S
O1470 Li1408 1.961 . S
O1470 Li1410 1.956 . S
O1470 Li1411 1.970 . S
O1470 C1440 1.325 . S
O1471 Li1409 1.961 . S
O1471 Li1410 1.970 . S
O1471 Li1411 1.956 . S
O1471 C1446 1.325 . S
H1472 C1414 0.929 . S
H1473 C1415 0.930 . S
H1474 C1416 0.930 . S
H1475 C1417 0.930 . S
H1476 C1419 0.930 . S
H1477 C1421 0.929 . S
H1478 C1422 0.930 . S
H1479 C1423 0.930 . S
H1480 C1426 0.930 . S
H1481 C1429 0.929 . S
H1482 C1434 0.929 . S
H1483 C1435 0.930 . S
H1484 C1442 0.929 . S
H1485 C1443 0.930 . S
H1486 C1444 0.930 . S
H1487 C1445 0.930 . S
H1488 C1447 0.929 . S
H1489 C1448 0.930 . S
H1490 C1449 0.930 . S
H1491 C1450 0.930 . S
H1492 C1454 0.929 . S
H1493 C1456 0.930 . S
H1494 C1462 0.929 . S
H1495 C1463 0.930 . S
Li1496 N1513 1.990 . S
Li1496 O1556 1.956 . S
Li1496 O1557 1.970 . S
Li1496 O1558 1.961 . S
Li1497 N1521 1.990 . S
Li1497 O1556 1.970 . S
Li1497 O1557 1.956 . S
Li1497 O1559 1.961 . S
Li1498 N1543 1.990 . S
Li1498 O1556 1.961 . S
Li1498 O1558 1.956 . S
Li1498 O1559 1.970 . S
Li1499 N1549 1.990 . S
Li1499 O1557 1.961 . S
Li1499 O1558 1.970 . S
Li1499 O1559 1.956 . S
C1500 C1502 1.348 . S
C1500 C1503 1.356 . S
C1500 O1556 1.325 . S
N1501 C1504 1.314 . S
N1501 C1505 1.279 . S
C1502 C1500 1.348 . S
C1502 C1504 1.353 . S
C1502 H1560 0.929 . S
C1503 C1500 1.356 . S
C1503 C1505 1.358 . S
C1503 H1561 0.930 . S
C1504 N1501 1.314 . S
C1504 C1502 1.353 . S
C1504 H1562 0.930 . S
C1505 N1501 1.279 . S
C1505 C1503 1.358 . S
C1505 H1563 0.930 . S
C1506 C1509 1.348 . S
C1506 C1510 1.356 . S
C1506 O1557 1.325 . S
C1507 N1508 1.279 . S
C1507 C1510 1.358 . S
C1507 H1564 0.930 . S
N1508 C1507 1.279 . S
N1508 C1511 1.314 . S
C1509 C1506 1.348 . S
C1509 C1511 1.353 . S
C1509 H1565 0.929 . S
C1510 C1506 1.356 . S
C1510 C1507 1.358 . S
C1510 H1566 0.930 . S
C1511 N1508 1.314 . S
C1511 C1509 1.353 . S
C1511 H1567 0.930 . S
C1512 N1513 1.314 . S
C1512 C1517 1.353 . S
C1512 H1518 0.930 . S
N1513 Li1496 1.990 . S
N1513 C1512 1.314 . S
N1513 C1515 1.279 . S
C1514 C1515 1.358 . S
C1514 C1516 1.356 . S
C1514 H1568 0.930 . S
C1515 N1513 1.279 . S
C1515 C1514 1.358 . S
C1515 H1519 0.930 . S
C1516 C1514 1.356 . S
C1516 C1517 1.348 . S
C1517 C1512 1.353 . S
C1517 C1516 1.348 . S
C1517 H1569 0.929 . S
H1518 C1512 0.930 . S
H1519 C1515 0.930 . S
C1520 N1521 1.314 . S
C1520 C1522 1.353 . S
C1520 H1526 0.930 . S
N1521 Li1497 1.990 . S
N1521 C1520 1.314 . S
N1521 C1524 1.279 . S
C1522 C1520 1.353 . S
C1522 C1525 1.348 . S
C1522 H1570 0.929 . S
C1523 C1524 1.358 . S
C1523 C1525 1.356 . S
C1523 H1571 0.930 . S
C1524 N1521 1.279 . S
C1524 C1523 1.358 . S
C1524 H1527 0.930 . S
C1525 C1522 1.348 . S
C1525 C1523 1.356 . S
H1526 C1520 0.930 . S
H1527 C1524 0.930 . S
C1528 C1530 1.348 . S
C1528 C1531 1.356 . S
C1528 O1558 1.325 . S
N1529 C1532 1.314 . S
N1529 C1533 1.279 . S
C1530 C1528 1.348 . S
C1530 C1532 1.353 . S
C1530 H1572 0.929 . S
C1531 C1528 1.356 . S
C1531 C1533 1.358 . S
C1531 H1573 0.930 . S
C1532 N1529 1.314 . S
C1532 C1530 1.353 . S
C1532 H1574 0.930 . S
C1533 N1529 1.279 . S
C1533 C1531 1.358 . S
C1533 H1575 0.930 . S
C1534 C1535 1.348 . S
C1534 C1536 1.356 . S
C1534 O1559 1.325 . S
C1535 C1534 1.348 . S
C1535 C1537 1.353 . S
C1535 H1576 0.929 . S
C1536 C1534 1.356 . S
C1536 C1538 1.358 . S
C1536 H1577 0.930 . S
C1537 C1535 1.353 . S
C1537 N1539 1.314 . S
C1537 H1578 0.930 . S
C1538 C1536 1.358 . S
C1538 N1539 1.279 . S
C1538 H1579 0.930 . S
N1539 C1537 1.314 . S
N1539 C1538 1.279 . S
C1540 C1542 1.353 . S
C1540 N1543 1.314 . S
C1540 H1546 0.930 . S
C1541 N1543 1.279 . S
C1541 C1544 1.358 . S
C1541 H1547 0.930 . S
C1542 C1540 1.353 . S
C1542 C1545 1.348 . S
C1542 H1580 0.929 . S
N1543 Li1498 1.990 . S
N1543 C1540 1.314 . S
N1543 C1541 1.279 . S
C1544 C1541 1.358 . S
C1544 C1545 1.356 . S
C1544 H1581 0.930 . S
C1545 C1542 1.348 . S
C1545 C1544 1.356 . S
H1546 C1540 0.930 . S
H1547 C1541 0.930 . S
C1548 N1549 1.314 . S
C1548 C1550 1.353 . S
C1548 H1554 0.930 . S
N1549 Li1499 1.990 . S
N1549 C1548 1.314 . S
N1549 C1552 1.279 . S
C1550 C1548 1.353 . S
C1550 C1553 1.348 . S
C1550 H1582 0.929 . S
C1551 C1552 1.358 . S
C1551 C1553 1.356 . S
C1551 H1583 0.930 . S
C1552 N1549 1.279 . S
C1552 C1551 1.358 . S
C1552 H1555 0.930 . S
C1553 C1550 1.348 . S
C1553 C1551 1.356 . S
H1554 C1548 0.930 . S
H1555 C1552 0.930 . S
O1556 Li1496 1.956 . S
O1556 Li1497 1.970 . S
O1556 Li1498 1.961 . S
O1556 C1500 1.325 . S
O1557 Li1496 1.970 . S
O1557 Li1497 1.956 . S
O1557 Li1499 1.961 . S
O1557 C1506 1.325 . S
O1558 Li1496 1.961 . S
O1558 Li1498 1.956 . S
O1558 Li1499 1.970 . S
O1558 C1528 1.325 . S
O1559 Li1497 1.961 . S
O1559 Li1498 1.970 . S
O1559 Li1499 1.956 . S
O1559 C1534 1.325 . S
H1560 C1502 0.929 . S
H1561 C1503 0.930 . S
H1562 C1504 0.930 . S
H1563 C1505 0.930 . S
H1564 C1507 0.930 . S
H1565 C1509 0.929 . S
H1566 C1510 0.930 . S
H1567 C1511 0.930 . S
H1568 C1514 0.930 . S
H1569 C1517 0.929 . S
H1570 C1522 0.929 . S
H1571 C1523 0.930 . S
H1572 C1530 0.929 . S
H1573 C1531 0.930 . S
H1574 C1532 0.930 . S
H1575 C1533 0.930 . S
H1576 C1535 0.929 . S
H1577 C1536 0.930 . S
H1578 C1537 0.930 . S
H1579 C1538 0.930 . S
H1580 C1542 0.929 . S
H1581 C1544 0.930 . S
H1582 C1550 0.929 . S
H1583 C1551 0.930 . S
H1584 C1590 0.930 . S
H1585 C1593 0.930 . S
H1586 C1594 0.930 . S
H1587 C1595 0.930 . S
H1588 C1598 0.930 . S
H1589 C1599 0.930 . S
C1590 H1584 0.930 . S
C1590 C1591 1.355 . S
C1590 C1592 1.415 . S
C1591 C1590 1.355 . S
C1591 C1593 1.419 . S
C1592 C1590 1.415 . S
C1592 C1597 1.425 . S
C1592 C1599 1.409 . S
C1593 H1585 0.930 . S
C1593 C1591 1.419 . S
C1593 C1594 1.362 . S
C1594 H1586 0.930 . S
C1594 C1593 1.362 . S
C1594 C1597 1.409 . S
C1595 H1587 0.930 . S
C1595 C1596 1.355 . S
C1595 C1597 1.415 . S
C1596 C1595 1.355 . S
C1596 C1598 1.419 . S
C1597 C1592 1.425 . S
C1597 C1594 1.409 . S
C1597 C1595 1.415 . S
C1598 H1588 0.930 . S
C1598 C1596 1.419 . S
C1598 C1599 1.362 . S
C1599 H1589 0.930 . S
C1599 C1592 1.409 . S
C1599 C1598 1.362 . S
H1600 C1606 0.930 . S
H1601 C1609 0.930 . S
H1602 C1610 0.930 1_565 S
H1603 C1611 0.930 . S
H1604 C1614 0.930 . S
H1605 C1615 0.930 . S
C1606 H1600 0.930 . S
C1606 C1607 1.355 . S
C1606 C1608 1.415 . S
C1607 C1606 1.355 . S
C1607 C1609 1.419 1_545 S
C1608 C1606 1.415 . S
C1608 C1613 1.425 . S
C1608 C1615 1.409 . S
C1609 H1601 0.930 . S
C1609 C1607 1.419 1_565 S
C1609 C1610 1.362 1_565 S
C1610 H1602 0.930 1_545 S
C1610 C1609 1.362 1_545 S
C1610 C1613 1.409 . S
C1611 H1603 0.930 . S
C1611 C1612 1.355 . S
C1611 C1613 1.415 . S
C1612 C1611 1.355 . S
C1612 C1614 1.419 . S
C1613 C1608 1.425 . S
C1613 C1610 1.409 . S
C1613 C1611 1.415 . S
C1614 H1604 0.930 . S
C1614 C1612 1.419 . S
C1614 C1615 1.362 . S
C1615 H1605 0.930 . S
C1615 C1608 1.409 . S
C1615 C1614 1.362 . S
H1616 C1622 0.930 . S
H1617 C1625 0.930 . S
H1618 C1626 0.930 . S
H1619 C1627 0.930 . S
H1620 C1630 0.930 . S
H1621 C1631 0.930 . S
C1622 H1616 0.930 . S
C1622 C1623 1.355 . S
C1622 C1624 1.415 . S
C1623 C1622 1.355 . S
C1623 C1625 1.419 . S
C1624 C1622 1.415 . S
C1624 C1629 1.425 . S
C1624 C1631 1.409 . S
C1625 H1617 0.930 . S
C1625 C1623 1.419 . S
C1625 C1626 1.362 . S
C1626 H1618 0.930 . S
C1626 C1625 1.362 . S
C1626 C1629 1.409 . S
C1627 H1619 0.930 . S
C1627 C1628 1.355 . S
C1627 C1629 1.415 . S
C1628 C1627 1.355 . S
C1628 C1630 1.419 . S
C1629 C1624 1.425 . S
C1629 C1626 1.409 . S
C1629 C1627 1.415 . S
C1630 H1620 0.930 . S
C1630 C1628 1.419 . S
C1630 C1631 1.362 . S
C1631 H1621 0.930 . S
C1631 C1624 1.409 . S
C1631 C1630 1.362 . S
H1632 C1638 0.930 . S
H1633 C1641 0.930 . S
H1634 C1642 0.930 . S
H1635 C1643 0.930 . S
H1636 C1646 0.930 . S
H1637 C1647 0.930 . S
C1638 H1632 0.930 . S
C1638 C1639 1.355 . S
C1638 C1640 1.415 . S
C1639 C1638 1.355 . S
C1639 C1641 1.419 . S
C1640 C1638 1.415 . S
C1640 C1645 1.425 . S
C1640 C1647 1.409 . S
C1641 H1633 0.930 . S
C1641 C1639 1.419 . S
C1641 C1642 1.362 . S
C1642 H1634 0.930 . S
C1642 C1641 1.362 . S
C1642 C1645 1.409 . S
C1643 H1635 0.930 . S
C1643 C1644 1.355 . S
C1643 C1645 1.415 . S
C1644 C1643 1.355 . S
C1644 C1646 1.419 . S
C1645 C1640 1.425 . S
C1645 C1642 1.409 . S
C1645 C1643 1.415 . S
C1646 H1636 0.930 . S
C1646 C1644 1.419 . S
C1646 C1647 1.362 . S
C1647 H1637 0.930 . S
C1647 C1640 1.409 . S
C1647 C1646 1.362 . S
H1648 C1654 0.930 . S
H1649 C1657 0.930 1_545 S
H1650 C1658 0.930 1_545 S
H1651 C1659 0.930 . S
H1652 C1662 0.930 . S
H1653 C1663 0.930 . S
C1654 H1648 0.930 . S
C1654 C1655 1.355 . S
C1654 C1656 1.415 . S
C1655 C1654 1.355 . S
C1655 C1657 1.419 . S
C1656 C1654 1.415 . S
C1656 C1661 1.425 . S
C1656 C1663 1.409 . S
C1657 H1649 0.930 1_565 S
C1657 C1655 1.419 . S
C1657 C1658 1.362 . S
C1658 H1650 0.930 1_565 S
C1658 C1657 1.362 . S
C1658 C1661 1.409 . S
C1659 H1651 0.930 . S
C1659 C1660 1.355 . S
C1659 C1661 1.415 . S
C1660 C1659 1.355 . S
C1660 C1662 1.419 . S
C1661 C1656 1.425 . S
C1661 C1658 1.409 . S
C1661 C1659 1.415 . S
C1662 H1652 0.930 . S
C1662 C1660 1.419 . S
C1662 C1663 1.362 . S
C1663 H1653 0.930 . S
C1663 C1656 1.409 . S
C1663 C1662 1.362 . S
H1664 C1670 0.930 . S
H1665 C1673 0.930 . S
H1666 C1674 0.930 . S
H1667 C1675 0.930 . S
H1668 C1678 0.930 1_655 S
H1669 C1679 0.930 1_655 S
C1670 H1664 0.930 . S
C1670 C1671 1.355 . S
C1670 C1672 1.415 . S
C1671 C1670 1.355 . S
C1671 C1673 1.419 . S
C1672 C1670 1.415 . S
C1672 C1677 1.425 . S
C1672 C1679 1.409 . S
C1673 H1665 0.930 . S
C1673 C1671 1.419 . S
C1673 C1674 1.362 . S
C1674 H1666 0.930 . S
C1674 C1673 1.362 . S
C1674 C1677 1.409 . S
C1675 H1667 0.930 . S
C1675 C1676 1.355 . S
C1675 C1677 1.415 . S
C1676 C1675 1.355 . S
C1676 C1678 1.419 . S
C1677 C1672 1.425 . S
C1677 C1674 1.409 . S
C1677 C1675 1.415 . S
C1678 H1668 0.930 1_455 S
C1678 C1676 1.419 . S
C1678 C1679 1.362 . S
C1679 H1669 0.930 1_455 S
C1679 C1672 1.409 . S
C1679 C1678 1.362 . S
H1680 C1686 0.930 . S
H1681 C1689 0.930 . S
H1682 C1690 0.930 . S
H1683 C1691 0.930 . S
H1684 C1694 0.930 . S
H1685 C1695 0.930 . S
C1686 H1680 0.930 . S
C1686 C1687 1.355 . S
C1686 C1688 1.415 . S
C1687 C1686 1.355 . S
C1687 C1689 1.419 . S
C1688 C1686 1.415 . S
C1688 C1693 1.425 . S
C1688 C1695 1.409 1_655 S
C1689 H1681 0.930 . S
C1689 C1687 1.419 . S
C1689 C1690 1.362 . S
C1690 H1682 0.930 . S
C1690 C1689 1.362 . S
C1690 C1693 1.409 . S
C1691 H1683 0.930 . S
C1691 C1692 1.355 . S
C1691 C1693 1.415 1_455 S
C1692 C1691 1.355 . S
C1692 C1694 1.419 . S
C1693 C1688 1.425 . S
C1693 C1690 1.409 . S
C1693 C1691 1.415 1_655 S
C1694 H1684 0.930 . S
C1694 C1692 1.419 . S
C1694 C1695 1.362 . S
C1695 H1685 0.930 . S
C1695 C1688 1.409 1_455 S
C1695 C1694 1.362 . S
H1696 C1702 0.930 . S
H1697 C1705 0.930 . S
H1698 C1706 0.930 . S
H1699 C1707 0.930 . S
H1700 C1710 0.930 . S
H1701 C1711 0.930 . S
C1702 H1696 0.930 . S
C1702 C1703 1.355 . S
C1702 C1704 1.415 . S
C1703 C1702 1.355 . S
C1703 C1705 1.419 . S
C1704 C1702 1.415 . S
C1704 C1709 1.425 . S
C1704 C1711 1.409 . S
C1705 H1697 0.930 . S
C1705 C1703 1.419 . S
C1705 C1706 1.362 . S
C1706 H1698 0.930 . S
C1706 C1705 1.362 . S
C1706 C1709 1.409 . S
C1707 H1699 0.930 . S
C1707 C1708 1.355 . S
C1707 C1709 1.415 . S
C1708 C1707 1.355 . S
C1708 C1710 1.419 . S
C1709 C1704 1.425 . S
C1709 C1706 1.409 . S
C1709 C1707 1.415 . S
C1710 H1700 0.930 . S
C1710 C1708 1.419 . S
C1710 C1711 1.362 . S
C1711 H1701 0.930 . S
C1711 C1704 1.409 . S
C1711 C1710 1.362 . S
H1712 C1718 0.930 . S
H1713 C1721 0.930 . S
H1714 C1722 0.930 . S
H1715 C1723 0.930 . S
H1716 C1726 0.930 . S
H1717 C1727 0.930 1_545 S
C1718 H1712 0.930 . S
C1718 C1719 1.355 . S
C1718 C1720 1.415 . S
C1719 C1718 1.355 . S
C1719 C1721 1.419 . S
C1720 C1718 1.415 . S
C1720 C1725 1.425 1_545 S
C1720 C1727 1.409 1_545 S
C1721 H1713 0.930 . S
C1721 C1719 1.419 . S
C1721 C1722 1.362 1_545 S
C1722 H1714 0.930 . S
C1722 C1721 1.362 1_565 S
C1722 C1725 1.409 . S
C1723 H1715 0.930 . S
C1723 C1724 1.355 . S
C1723 C1725 1.415 . S
C1724 C1723 1.355 . S
C1724 C1726 1.419 . S
C1725 C1720 1.425 1_565 S
C1725 C1722 1.409 . S
C1725 C1723 1.415 . S
C1726 H1716 0.930 . S
C1726 C1724 1.419 . S
C1726 C1727 1.362 . S
C1727 H1717 0.930 1_565 S
C1727 C1720 1.409 1_565 S
C1727 C1726 1.362 . S
H1728 C1734 0.930 . S
H1729 C1737 0.930 . S
H1730 C1738 0.930 1_655 S
H1731 C1739 0.930 . S
H1732 C1742 0.930 . S
H1733 C1743 0.930 . S
C1734 H1728 0.930 . S
C1734 C1735 1.355 . S
C1734 C1736 1.415 . S
C1735 C1734 1.355 . S
C1735 C1737 1.419 . S
C1736 C1734 1.415 . S
C1736 C1741 1.425 1_455 S
C1736 C1743 1.409 . S
C1737 H1729 0.930 . S
C1737 C1735 1.419 . S
C1737 C1738 1.362 . S
C1738 H1730 0.930 1_455 S
C1738 C1737 1.362 . S
C1738 C1741 1.409 1_455 S
C1739 H1731 0.930 . S
C1739 C1740 1.355 . S
C1739 C1741 1.415 . S
C1740 C1739 1.355 . S
C1740 C1742 1.419 . S
C1741 C1736 1.425 1_655 S
C1741 C1738 1.409 1_655 S
C1741 C1739 1.415 . S
C1742 H1732 0.930 . S
C1742 C1740 1.419 . S
C1742 C1743 1.362 1_655 S
C1743 H1733 0.930 . S
C1743 C1736 1.409 . S
C1743 C1742 1.362 1_455 S
H1744 C1750 0.930 . S
H1745 C1753 0.930 . S
H1746 C1754 0.930 . S
H1747 C1755 0.930 . S
H1748 C1758 0.930 . S
H1749 C1759 0.930 . S
C1750 H1744 0.930 . S
C1750 C1751 1.355 . S
C1750 C1752 1.415 . S
C1751 C1750 1.355 . S
C1751 C1753 1.419 . S
C1752 C1750 1.415 . S
C1752 C1757 1.425 . S
C1752 C1759 1.409 . S
C1753 H1745 0.930 . S
C1753 C1751 1.419 . S
C1753 C1754 1.362 . S
C1754 H1746 0.930 . S
C1754 C1753 1.362 . S
C1754 C1757 1.409 . S
C1755 H1747 0.930 . S
C1755 C1756 1.355 . S
C1755 C1757 1.415 . S
C1756 C1755 1.355 . S
C1756 C1758 1.419 . S
C1757 C1752 1.425 . S
C1757 C1754 1.409 . S
C1757 C1755 1.415 . S
C1758 H1748 0.930 . S
C1758 C1756 1.419 . S
C1758 C1759 1.362 . S
C1759 H1749 0.930 . S
C1759 C1752 1.409 . S
C1759 C1758 1.362 . S
H1760 C1766 0.930 . S
H1761 C1769 0.930 . S
H1762 C1770 0.930 . S
H1763 C1771 0.930 . S
H1764 C1774 0.930 . S
H1765 C1775 0.930 . S
C1766 H1760 0.930 . S
C1766 C1767 1.355 . S
C1766 C1768 1.399 1_545 S
C1767 C1766 1.355 . S
C1767 C1769 1.419 . S
C1768 C1766 1.399 1_565 S
C1768 C1773 1.431 . S
C1768 C1775 1.419 . S
C1769 H1761 0.930 . S
C1769 C1767 1.419 . S
C1769 C1770 1.362 . S
C1770 H1762 0.930 . S
C1770 C1769 1.362 . S
C1770 C1773 1.409 1_545 S
C1771 H1763 0.930 . S
C1771 C1772 1.355 . S
C1771 C1773 1.415 . S
C1772 C1771 1.355 . S
C1772 C1774 1.419 . S
C1773 C1768 1.431 . S
C1773 C1770 1.409 1_565 S
C1773 C1771 1.415 . S
C1774 H1764 0.930 . S
C1774 C1772 1.419 . S
C1774 C1775 1.362 . S
C1775 H1765 0.930 . S
C1775 C1768 1.419 . S
C1775 C1774 1.362 . S
H1776 C1782 0.930 . S
H1777 C1785 0.930 . S
H1778 C1786 0.930 . S
H1779 C1787 0.930 . S
H1780 C1790 0.930 . S
H1781 C1791 0.930 . S
C1782 H1776 0.930 . S
C1782 C1783 1.355 . S
C1782 C1784 1.415 1_565 S
C1783 C1782 1.355 . S
C1783 C1785 1.419 . S
C1784 C1782 1.415 1_545 S
C1784 C1789 1.425 . S
C1784 C1791 1.409 . S
C1785 H1777 0.930 . S
C1785 C1783 1.419 . S
C1785 C1786 1.362 . S
C1786 H1778 0.930 . S
C1786 C1785 1.362 . S
C1786 C1789 1.409 1_565 S
C1787 H1779 0.930 . S
C1787 C1788 1.355 . S
C1787 C1789 1.415 . S
C1788 C1787 1.355 . S
C1788 C1790 1.419 . S
C1789 C1784 1.425 . S
C1789 C1786 1.409 1_545 S
C1789 C1787 1.415 . S
C1790 H1780 0.930 . S
C1790 C1788 1.419 . S
C1790 C1791 1.362 . S
C1791 H1781 0.930 . S
C1791 C1784 1.409 . S
C1791 C1790 1.362 . S
H1792 C1798 0.930 . S
H1793 C1801 0.930 . S
H1794 C1802 0.930 . S
H1795 C1803 0.930 . S
H1796 C1806 0.930 . S
H1797 C1807 0.930 . S
C1798 H1792 0.930 . S
C1798 C1799 1.355 . S
C1798 C1800 1.415 . S
C1799 C1798 1.355 . S
C1799 C1801 1.419 . S
C1800 C1798 1.415 . S
C1800 C1805 1.425 1_455 S
C1800 C1807 1.409 1_455 S
C1801 H1793 0.930 . S
C1801 C1799 1.419 . S
C1801 C1802 1.362 . S
C1802 H1794 0.930 . S
C1802 C1801 1.362 . S
C1802 C1805 1.409 1_455 S
C1803 H1795 0.930 . S
C1803 C1804 1.355 . S
C1803 C1805 1.415 . S
C1804 C1803 1.355 . S
C1804 C1806 1.419 . S
C1805 C1800 1.425 1_655 S
C1805 C1802 1.409 1_655 S
C1805 C1803 1.415 . S
C1806 H1796 0.930 . S
C1806 C1804 1.419 . S
C1806 C1807 1.362 . S
C1807 H1797 0.930 . S
C1807 C1800 1.409 1_655 S
C1807 C1806 1.362 . S
H1808 C1814 0.930 . S
H1809 C1817 0.930 . S
H1810 C1818 0.930 . S
H1811 C1819 0.930 . S
H1812 C1822 0.930 . S
H1813 C1823 0.930 . S
C1814 H1808 0.930 . S
C1814 C1815 1.355 . S
C1814 C1816 1.415 . S
C1815 C1814 1.355 . S
C1815 C1817 1.419 . S
C1816 C1814 1.415 . S
C1816 C1821 1.425 . S
C1816 C1823 1.409 . S
C1817 H1809 0.930 . S
C1817 C1815 1.419 . S
C1817 C1818 1.362 . S
C1818 H1810 0.930 . S
C1818 C1817 1.362 . S
C1818 C1821 1.409 . S
C1819 H1811 0.930 . S
C1819 C1820 1.355 . S
C1819 C1821 1.415 . S
C1820 C1819 1.355 . S
C1820 C1822 1.419 . S
C1821 C1816 1.425 . S
C1821 C1818 1.409 . S
C1821 C1819 1.415 . S
C1822 H1812 0.930 . S
C1822 C1820 1.419 . S
C1822 C1823 1.362 . S
C1823 H1813 0.930 . S
C1823 C1816 1.409 . S
C1823 C1822 1.362 . S
H1824 C1830 0.930 . S
H1825 C1833 0.930 . S
H1826 C1834 0.930 . S
H1827 C1835 0.930 . S
H1828 C1838 0.930 . S
H1829 C1839 0.930 . S
C1830 H1824 0.930 . S
C1830 C1831 1.355 . S
C1830 C1832 1.415 . S
C1831 C1830 1.355 . S
C1831 C1833 1.419 . S
C1832 C1830 1.415 . S
C1832 C1837 1.425 . S
C1832 C1839 1.409 . S
C1833 H1825 0.930 . S
C1833 C1831 1.419 . S
C1833 C1834 1.362 . S
C1834 H1826 0.930 . S
C1834 C1833 1.362 . S
C1834 C1837 1.409 . S
C1835 H1827 0.930 . S
C1835 C1836 1.355 . S
C1835 C1837 1.415 . S
C1836 C1835 1.355 . S
C1836 C1838 1.419 . S
C1837 C1832 1.425 . S
C1837 C1834 1.409 . S
C1837 C1835 1.415 . S
C1838 H1828 0.930 . S
C1838 C1836 1.419 . S
C1838 C1839 1.362 . S
C1839 H1829 0.930 . S
C1839 C1832 1.409 . S
C1839 C1838 1.362 . S
H1840 C1846 0.930 . S
H1841 C1849 0.930 . S
H1842 C1850 0.930 . S
H1843 C1851 0.930 . S
H1844 C1854 0.930 . S
H1845 C1855 0.930 . S
C1846 H1840 0.930 . S
C1846 C1847 1.355 . S
C1846 C1848 1.415 . S
C1847 C1846 1.355 . S
C1847 C1849 1.419 . S
C1848 C1846 1.415 . S
C1848 C1853 1.425 . S
C1848 C1855 1.409 . S
C1849 H1841 0.930 . S
C1849 C1847 1.419 . S
C1849 C1850 1.362 . S
C1850 H1842 0.930 . S
C1850 C1849 1.362 . S
C1850 C1853 1.409 . S
C1851 H1843 0.930 . S
C1851 C1852 1.355 . S
C1851 C1853 1.415 . S
C1852 C1851 1.355 . S
C1852 C1854 1.419 . S
C1853 C1848 1.425 . S
C1853 C1850 1.409 . S
C1853 C1851 1.415 . S
C1854 H1844 0.930 . S
C1854 C1852 1.419 . S
C1854 C1855 1.362 . S
C1855 H1845 0.930 . S
C1855 C1848 1.409 . S
C1855 C1854 1.362 . S
H1856 C1862 0.930 . S
H1857 C1865 0.930 . S
H1858 C1866 0.930 . S
H1859 C1867 0.930 . S
H1860 C1870 0.930 . S
H1861 C1871 0.930 . S
C1862 H1856 0.930 . S
C1862 C1863 1.355 . S
C1862 C1864 1.415 . S
C1863 C1862 1.355 . S
C1863 C1865 1.419 . S
C1864 C1862 1.415 . S
C1864 C1869 1.425 . S
C1864 C1871 1.409 . S
C1865 H1857 0.930 . S
C1865 C1863 1.419 . S
C1865 C1866 1.362 . S
C1866 H1858 0.930 . S
C1866 C1865 1.362 . S
C1866 C1869 1.409 . S
C1867 H1859 0.930 . S
C1867 C1868 1.355 . S
C1867 C1869 1.415 . S
C1868 C1867 1.355 . S
C1868 C1870 1.419 . S
C1869 C1864 1.425 . S
C1869 C1866 1.409 . S
C1869 C1867 1.415 . S
C1870 H1860 0.930 . S
C1870 C1868 1.419 . S
C1870 C1871 1.362 . S
C1871 H1861 0.930 . S
C1871 C1864 1.409 . S
C1871 C1870 1.362 . S
H1872 C1878 0.930 . S
H1873 C1881 0.930 . S
H1874 C1882 0.930 . S
H1875 C1883 0.930 . S
H1876 C1886 0.930 . S
H1877 C1887 0.930 . S
C1878 H1872 0.930 . S
C1878 C1879 1.355 . S
C1878 C1880 1.415 . S
C1879 C1878 1.355 . S
C1879 C1881 1.419 . S
C1880 C1878 1.415 . S
C1880 C1885 1.425 . S
C1880 C1887 1.409 . S
C1881 H1873 0.930 . S
C1881 C1879 1.419 . S
C1881 C1882 1.362 . S
C1882 H1874 0.930 . S
C1882 C1881 1.362 . S
C1882 C1885 1.409 . S
C1883 H1875 0.930 . S
C1883 C1884 1.355 . S
C1883 C1885 1.415 . S
C1884 C1883 1.355 . S
C1884 C1886 1.419 . S
C1885 C1880 1.425 . S
C1885 C1882 1.409 . S
C1885 C1883 1.415 . S
C1886 H1876 0.930 . S
C1886 C1884 1.419 . S
C1886 C1887 1.362 . S
C1887 H1877 0.930 . S
C1887 C1880 1.409 . S
C1887 C1886 1.362 . S
H1888 C1894 0.930 . S
H1889 C1897 0.930 . S
H1890 C1898 0.930 . S
H1891 C1899 0.930 . S
H1892 C1902 0.930 . S
H1893 C1903 0.930 . S
C1894 H1888 0.930 . S
C1894 C1895 1.355 . S
C1894 C1896 1.415 . S
C1895 C1894 1.355 . S
C1895 C1897 1.419 . S
C1896 C1894 1.415 . S
C1896 C1901 1.425 . S
C1896 C1903 1.409 . S
C1897 H1889 0.930 . S
C1897 C1895 1.419 . S
C1897 C1898 1.362 . S
C1898 H1890 0.930 . S
C1898 C1897 1.362 . S
C1898 C1901 1.409 . S
C1899 H1891 0.930 . S
C1899 C1900 1.355 . S
C1899 C1901 1.415 . S
C1900 C1899 1.355 . S
C1900 C1902 1.419 . S
C1901 C1896 1.425 . S
C1901 C1898 1.409 . S
C1901 C1899 1.415 . S
C1902 H1892 0.930 . S
C1902 C1900 1.419 . S
C1902 C1903 1.362 . S
C1903 H1893 0.930 . S
C1903 C1896 1.409 . S
C1903 C1902 1.362 . S
H1904 C1910 0.930 . S
H1905 C1913 0.930 . S
H1906 C1914 0.930 . S
H1907 C1915 0.930 . S
H1908 C1918 0.930 . S
H1909 C1919 0.930 . S
C1910 H1904 0.930 . S
C1910 C1911 1.355 . S
C1910 C1912 1.415 . S
C1911 C1910 1.355 . S
C1911 C1913 1.419 . S
C1912 C1910 1.415 . S
C1912 C1917 1.425 . S
C1912 C1919 1.409 . S
C1913 H1905 0.930 . S
C1913 C1911 1.419 . S
C1913 C1914 1.362 . S
C1914 H1906 0.930 . S
C1914 C1913 1.362 . S
C1914 C1917 1.409 . S
C1915 H1907 0.930 . S
C1915 C1916 1.355 . S
C1915 C1917 1.415 . S
C1916 C1915 1.355 . S
C1916 C1918 1.419 . S
C1917 C1912 1.425 . S
C1917 C1914 1.409 . S
C1917 C1915 1.415 . S
C1918 H1908 0.930 . S
C1918 C1916 1.419 . S
C1918 C1919 1.362 . S
C1919 H1909 0.930 . S
C1919 C1912 1.409 . S
C1919 C1918 1.362 . S
H1920 C1926 0.930 . S
H1921 C1929 0.930 . S
H1922 C1930 0.930 . S
H1923 C1931 0.930 . S
H1924 C1934 0.930 . S
H1925 C1935 0.930 . S
C1926 H1920 0.930 . S
C1926 C1927 1.355 . S
C1926 C1928 1.415 . S
C1927 C1926 1.355 . S
C1927 C1929 1.419 . S
C1928 C1926 1.415 . S
C1928 C1933 1.425 . S
C1928 C1935 1.409 . S
C1929 H1921 0.930 . S
C1929 C1927 1.419 . S
C1929 C1930 1.362 . S
C1930 H1922 0.930 . S
C1930 C1929 1.362 . S
C1930 C1933 1.409 . S
C1931 H1923 0.930 . S
C1931 C1932 1.355 . S
C1931 C1933 1.415 . S
C1932 C1931 1.355 . S
C1932 C1934 1.419 . S
C1933 C1928 1.425 . S
C1933 C1930 1.409 . S
C1933 C1931 1.415 . S
C1934 H1924 0.930 . S
C1934 C1932 1.419 . S
C1934 C1935 1.362 . S
C1935 H1925 0.930 . S
C1935 C1928 1.409 . S
C1935 C1934 1.362 . S
H1936 C1942 0.930 . S
H1937 C1945 0.930 . S
H1938 C1946 0.930 . S
H1939 C1947 0.930 . S
H1940 C1950 0.930 . S
H1941 C1951 0.930 . S
C1942 H1936 0.930 . S
C1942 C1943 1.355 . S
C1942 C1944 1.415 . S
C1943 C1942 1.355 . S
C1943 C1945 1.419 . S
C1944 C1942 1.415 . S
C1944 C1949 1.425 . S
C1944 C1951 1.409 . S
C1945 H1937 0.930 . S
C1945 C1943 1.419 . S
C1945 C1946 1.362 . S
C1946 H1938 0.930 . S
C1946 C1945 1.362 . S
C1946 C1949 1.409 . S
C1947 H1939 0.930 . S
C1947 C1948 1.355 . S
C1947 C1949 1.415 . S
C1948 C1947 1.355 . S
C1948 C1950 1.419 . S
C1949 C1944 1.425 . S
C1949 C1946 1.409 . S
C1949 C1947 1.415 . S
C1950 H1940 0.930 . S
C1950 C1948 1.419 . S
C1950 C1951 1.362 . S
C1951 H1941 0.930 . S
C1951 C1944 1.409 . S
C1951 C1950 1.362 . S
H1952 C1958 0.930 . S
H1953 C1961 0.930 . S
H1954 C1962 0.930 . S
H1955 C1963 0.930 . S
H1956 C1966 0.930 . S
H1957 C1967 0.930 . S
C1958 H1952 0.930 . S
C1958 C1959 1.355 . S
C1958 C1960 1.415 . S
C1959 C1958 1.355 . S
C1959 C1961 1.419 . S
C1960 C1958 1.415 . S
C1960 C1965 1.425 . S
C1960 C1967 1.409 . S
C1961 H1953 0.930 . S
C1961 C1959 1.419 . S
C1961 C1962 1.362 . S
C1962 H1954 0.930 . S
C1962 C1961 1.362 . S
C1962 C1965 1.409 . S
C1963 H1955 0.930 . S
C1963 C1964 1.355 . S
C1963 C1965 1.415 . S
C1964 C1963 1.355 . S
C1964 C1966 1.419 . S
C1965 C1960 1.425 . S
C1965 C1962 1.409 . S
C1965 C1963 1.415 . S
C1966 H1956 0.930 . S
C1966 C1964 1.419 . S
C1966 C1967 1.362 . S
C1967 H1957 0.930 . S
C1967 C1960 1.409 . S
C1967 C1966 1.362 . S
H1968 C1974 0.930 . S
H1969 C1977 0.930 . S
H1970 C1978 0.930 . S
H1971 C1979 0.930 . S
H1972 C1982 0.930 . S
H1973 C1983 0.930 . S
C1974 H1968 0.930 . S
C1974 C1975 1.355 . S
C1974 C1976 1.415 . S
C1975 C1974 1.355 . S
C1975 C1977 1.419 . S
C1976 C1974 1.415 . S
C1976 C1981 1.425 . S
C1976 C1983 1.409 . S
C1977 H1969 0.930 . S
C1977 C1975 1.419 . S
C1977 C1978 1.362 . S
C1978 H1970 0.930 . S
C1978 C1977 1.362 . S
C1978 C1981 1.409 . S
C1979 H1971 0.930 . S
C1979 C1980 1.355 . S
C1979 C1981 1.415 . S
C1980 C1979 1.355 . S
C1980 C1982 1.419 . S
C1981 C1976 1.425 . S
C1981 C1978 1.409 . S
C1981 C1979 1.415 . S
C1982 H1972 0.930 . S
C1982 C1980 1.419 . S
C1982 C1983 1.362 . S
C1983 H1973 0.930 . S
C1983 C1976 1.409 . S
C1983 C1982 1.362 . S
H1984 C1990 0.930 . S
H1985 C1993 0.930 . S
H1986 C1994 0.930 . S
H1987 C1995 0.930 . S
H1988 C1998 0.930 . S
H1989 C1999 0.930 . S
C1990 H1984 0.930 . S
C1990 C1991 1.355 . S
C1990 C1992 1.415 . S
C1991 C1990 1.355 . S
C1991 C1993 1.419 . S
C1992 C1990 1.415 . S
C1992 C1997 1.425 . S
C1992 C1999 1.409 . S
C1993 H1985 0.930 . S
C1993 C1991 1.419 . S
C1993 C1994 1.362 . S
C1994 H1986 0.930 . S
C1994 C1993 1.362 . S
C1994 C1997 1.409 . S
C1995 H1987 0.930 . S
C1995 C1996 1.355 . S
C1995 C1997 1.415 . S
C1996 C1995 1.355 . S
C1996 C1998 1.419 . S
C1997 C1992 1.425 . S
C1997 C1994 1.409 . S
C1997 C1995 1.415 . S
C1998 H1988 0.930 . S
C1998 C1996 1.419 . S
C1998 C1999 1.362 . S
C1999 H1989 0.930 . S
C1999 C1992 1.409 . S
C1999 C1998 1.362 . S
H2000 C2006 0.930 . S
H2001 C2009 0.930 . S
H2002 C2010 0.930 . S
H2003 C2011 0.930 . S
H2004 C2014 0.930 . S
H2005 C2015 0.930 . S
C2006 H2000 0.930 . S
C2006 C2007 1.355 . S
C2006 C2008 1.415 . S
C2007 C2006 1.355 . S
C2007 C2009 1.419 . S
C2008 C2006 1.415 . S
C2008 C2013 1.425 . S
C2008 C2015 1.409 . S
C2009 H2001 0.930 . S
C2009 C2007 1.419 . S
C2009 C2010 1.362 . S
C2010 H2002 0.930 . S
C2010 C2009 1.362 . S
C2010 C2013 1.409 . S
C2011 H2003 0.930 . S
C2011 C2012 1.355 . S
C2011 C2013 1.415 . S
C2012 C2011 1.355 . S
C2012 C2014 1.419 . S
C2013 C2008 1.425 . S
C2013 C2010 1.409 . S
C2013 C2011 1.415 . S
C2014 H2004 0.930 . S
C2014 C2012 1.419 . S
C2014 C2015 1.362 . S
C2015 H2005 0.930 . S
C2015 C2008 1.409 . S
C2015 C2014 1.362 . S
H2016 C2022 0.930 . S
H2017 C2025 0.930 . S
H2018 C2026 0.930 . S
H2019 C2027 0.930 . S
H2020 C2030 0.930 . S
H2021 C2031 0.930 . S
C2022 H2016 0.930 . S
C2022 C2023 1.355 . S
C2022 C2024 1.415 . S
C2023 C2022 1.355 . S
C2023 C2025 1.419 . S
C2024 C2022 1.415 . S
C2024 C2029 1.425 1_554 S
C2024 C2031 1.409 1_554 S
C2025 H2017 0.930 . S
C2025 C2023 1.419 . S
C2025 C2026 1.362 . S
C2026 H2018 0.930 . S
C2026 C2025 1.362 . S
C2026 C2029 1.409 1_554 S
C2027 H2019 0.930 . S
C2027 C2028 1.355 . S
C2027 C2029 1.415 . S
C2028 C2027 1.355 . S
C2028 C2030 1.419 . S
C2029 C2024 1.425 1_556 S
C2029 C2026 1.409 1_556 S
C2029 C2027 1.415 . S
C2030 H2020 0.930 . S
C2030 C2028 1.419 . S
C2030 C2031 1.362 . S
C2031 H2021 0.930 . S
C2031 C2024 1.409 1_556 S
C2031 C2030 1.362 . S
H2032 C2038 0.930 . S
H2033 C2041 0.930 . S
H2034 C2042 0.930 . S
H2035 C2043 0.930 . S
H2036 C2046 0.930 . S
H2037 C2047 0.901 1_556 S
C2038 H2032 0.930 . S
C2038 C2039 1.355 1_565 S
C2038 C2040 1.415 . S
C2039 C2038 1.355 1_545 S
C2039 C2041 1.419 . S
C2040 C2038 1.415 . S
C2040 C2045 1.394 1_566 S
C2040 C2047 1.409 1_556 S
C2041 H2033 0.930 . S
C2041 C2039 1.419 . S
C2041 C2042 1.362 . S
C2042 H2034 0.930 . S
C2042 C2041 1.362 . S
C2042 C2045 1.366 1_556 S
C2043 H2035 0.930 . S
C2043 C2044 1.355 1_545 S
C2043 C2045 1.491 . S
C2044 C2043 1.355 1_565 S
C2044 C2046 1.419 . S
C2045 C2040 1.394 1_544 S
C2045 C2042 1.366 1_554 S
C2045 C2043 1.491 . S
C2046 H2036 0.930 . S
C2046 C2044 1.419 . S
C2046 C2047 1.362 . S
C2047 H2037 0.901 1_554 S
C2047 C2040 1.409 1_554 S
C2047 C2046 1.362 . S
H2048 C2054 0.930 . S
H2049 C2057 0.930 . S
H2050 C2058 0.930 . S
H2051 C2059 0.930 . S
H2052 C2062 0.930 . S
H2053 C2063 0.930 . S
C2054 H2048 0.930 . S
C2054 C2055 1.355 . S
C2054 C2056 1.401 1_556 S
C2055 C2054 1.355 . S
C2055 C2057 1.419 . S
C2056 C2054 1.401 1_554 S
C2056 C2061 1.429 1_655 S
C2056 C2063 1.419 . S
C2057 H2049 0.930 . S
C2057 C2055 1.419 . S
C2057 C2058 1.362 1_655 S
C2058 H2050 0.930 . S
C2058 C2057 1.362 1_455 S
C2058 C2061 1.409 1_556 S
C2059 H2051 0.930 . S
C2059 C2060 1.355 . S
C2059 C2061 1.415 . S
C2060 C2059 1.355 . S
C2060 C2062 1.419 . S
C2061 C2056 1.429 1_455 S
C2061 C2058 1.409 1_554 S
C2061 C2059 1.415 . S
C2062 H2052 0.930 . S
C2062 C2060 1.419 . S
C2062 C2063 1.362 1_455 S
C2063 H2053 0.930 . S
C2063 C2056 1.419 . S
C2063 C2062 1.362 1_655 S
H2064 C2070 0.930 . S
H2065 C2073 0.930 . S
H2066 C2074 0.930 . S
H2067 C2075 0.930 . S
H2068 C2078 0.930 . S
H2069 C2079 0.930 . S
C2070 H2064 0.930 . S
C2070 C2071 1.355 . S
C2070 C2072 1.415 . S
C2071 C2070 1.355 . S
C2071 C2073 1.419 . S
C2072 C2070 1.415 . S
C2072 C2077 1.425 . S
C2072 C2079 1.409 . S
C2073 H2065 0.930 . S
C2073 C2071 1.419 . S
C2073 C2074 1.362 . S
C2074 H2066 0.930 . S
C2074 C2073 1.362 . S
C2074 C2077 1.409 . S
C2075 H2067 0.930 . S
C2075 C2076 1.355 . S
C2075 C2077 1.415 . S
C2076 C2075 1.355 . S
C2076 C2078 1.419 . S
C2077 C2072 1.425 . S
C2077 C2074 1.409 . S
C2077 C2075 1.415 . S
C2078 H2068 0.930 . S
C2078 C2076 1.419 . S
C2078 C2079 1.362 . S
C2079 H2069 0.930 . S
C2079 C2072 1.409 . S
C2079 C2078 1.362 . S
H2080 C2086 0.930 . S
H2081 C2089 0.930 . S
H2082 C2090 0.930 . S
H2083 C2091 0.930 . S
H2084 C2094 0.930 . S
H2085 C2095 0.930 . S
C2086 H2080 0.930 . S
C2086 C2087 1.355 . S
C2086 C2088 1.415 . S
C2087 C2086 1.355 . S
C2087 C2089 1.419 . S
C2088 C2086 1.415 . S
C2088 C2093 1.425 . S
C2088 C2095 1.409 . S
C2089 H2081 0.930 . S
C2089 C2087 1.419 . S
C2089 C2090 1.362 . S
C2090 H2082 0.930 . S
C2090 C2089 1.362 . S
C2090 C2093 1.409 . S
C2091 H2083 0.930 . S
C2091 C2092 1.355 . S
C2091 C2093 1.415 . S
C2092 C2091 1.355 . S
C2092 C2094 1.419 . S
C2093 C2088 1.425 . S
C2093 C2090 1.409 . S
C2093 C2091 1.415 . S
C2094 H2084 0.930 . S
C2094 C2092 1.419 . S
C2094 C2095 1.362 . S
C2095 H2085 0.930 . S
C2095 C2088 1.409 . S
C2095 C2094 1.362 . S
H2096 C2102 0.930 . S
H2097 C2105 0.930 . S
H2098 C2106 0.930 . S
H2099 C2107 0.930 . S
H2100 C2110 0.930 . S
H2101 C2111 0.930 . S
C2102 H2096 0.930 . S
C2102 C2103 1.355 . S
C2102 C2104 1.415 . S
C2103 C2102 1.355 . S
C2103 C2105 1.419 . S
C2104 C2102 1.415 . S
C2104 C2109 1.425 . S
C2104 C2111 1.409 . S
C2105 H2097 0.930 . S
C2105 C2103 1.419 . S
C2105 C2106 1.362 . S
C2106 H2098 0.930 . S
C2106 C2105 1.362 . S
C2106 C2109 1.409 . S
C2107 H2099 0.930 . S
C2107 C2108 1.355 . S
C2107 C2109 1.415 . S
C2108 C2107 1.355 . S
C2108 C2110 1.419 . S
C2109 C2104 1.425 . S
C2109 C2106 1.409 . S
C2109 C2107 1.415 . S
C2110 H2100 0.930 . S
C2110 C2108 1.419 . S
C2110 C2111 1.362 . S
C2111 H2101 0.930 . S
C2111 C2104 1.409 . S
C2111 C2110 1.362 . S
H2112 C2118 0.930 . S
H2113 C2121 0.930 . S
H2114 C2122 0.930 . S
H2115 C2123 0.930 . S
H2116 C2126 0.930 . S
H2117 C2127 0.930 . S
C2118 H2112 0.930 . S
C2118 C2119 1.355 . S
C2118 C2120 1.415 . S
C2119 C2118 1.355 . S
C2119 C2121 1.419 . S
C2120 C2118 1.415 . S
C2120 C2125 1.425 . S
C2120 C2127 1.409 . S
C2121 H2113 0.930 . S
C2121 C2119 1.419 . S
C2121 C2122 1.362 . S
C2122 H2114 0.930 . S
C2122 C2121 1.362 . S
C2122 C2125 1.409 . S
C2123 H2115 0.930 . S
C2123 C2124 1.355 . S
C2123 C2125 1.415 . S
C2124 C2123 1.355 . S
C2124 C2126 1.419 . S
C2125 C2120 1.425 . S
C2125 C2122 1.409 . S
C2125 C2123 1.415 . S
C2126 H2116 0.930 . S
C2126 C2124 1.419 . S
C2126 C2127 1.362 . S
C2127 H2117 0.930 . S
C2127 C2120 1.409 . S
C2127 C2126 1.362 . S
H2128 C2134 0.930 . S
H2129 C2137 0.930 . S
H2130 C2138 0.930 . S
H2131 C2139 0.930 . S
H2132 C2142 0.930 . S
H2133 C2143 0.930 . S
C2134 H2128 0.930 . S
C2134 C2135 1.355 . S
C2134 C2136 1.415 . S
C2135 C2134 1.355 . S
C2135 C2137 1.419 . S
C2136 C2134 1.415 . S
C2136 C2141 1.425 . S
C2136 C2143 1.409 . S
C2137 H2129 0.930 . S
C2137 C2135 1.419 . S
C2137 C2138 1.362 . S
C2138 H2130 0.930 . S
C2138 C2137 1.362 . S
C2138 C2141 1.409 . S
C2139 H2131 0.930 . S
C2139 C2140 1.355 . S
C2139 C2141 1.415 . S
C2140 C2139 1.355 . S
C2140 C2142 1.419 . S
C2141 C2136 1.425 . S
C2141 C2138 1.409 . S
C2141 C2139 1.415 . S
C2142 H2132 0.930 . S
C2142 C2140 1.419 . S
C2142 C2143 1.362 . S
C2143 H2133 0.930 . S
C2143 C2136 1.409 . S
C2143 C2142 1.362 . S
H2144 C2150 0.930 . S
H2145 C2153 0.930 . S
H2146 C2154 0.930 . S
H2147 C2155 0.930 . S
H2148 C2158 0.930 . S
H2149 C2159 0.930 . S
C2150 H2144 0.930 . S
C2150 C2151 1.355 . S
C2150 C2152 1.415 . S
C2151 C2150 1.355 . S
C2151 C2153 1.419 . S
C2152 C2150 1.415 . S
C2152 C2157 1.425 . S
C2152 C2159 1.409 . S
C2153 H2145 0.930 . S
C2153 C2151 1.419 . S
C2153 C2154 1.362 . S
C2154 H2146 0.930 . S
C2154 C2153 1.362 . S
C2154 C2157 1.409 . S
C2155 H2147 0.930 . S
C2155 C2156 1.355 . S
C2155 C2157 1.415 . S
C2156 C2155 1.355 . S
C2156 C2158 1.419 . S
C2157 C2152 1.425 . S
C2157 C2154 1.409 . S
C2157 C2155 1.415 . S
C2158 H2148 0.930 . S
C2158 C2156 1.419 . S
C2158 C2159 1.362 . S
C2159 H2149 0.930 . S
C2159 C2152 1.409 . S
C2159 C2158 1.362 . S
C1591 C900 0.878 . S
C1596 C29 0.875 . S
C1607 C145 0.863 . S
C1612 C1017 0.807 . S
C1623 C812 0.875 . S
C1628 C233 0.847 . S
C1639 C1289 0.860 . S
C1644 C284 0.840 . S
C1655 C372 0.861 . S
C1660 C1085 0.803 . S
C1671 C1201 0.801 . S
C1676 C497 0.847 . S
C1687 C548 0.869 . S
C1692 C1465 0.917 . S
C1703 C1545 0.852 . S
C1708 C673 0.869 . S
C1719 C761 0.867 . S
C1724 C1340 0.890 . S
C1735 C57 1.161 . S
C1740 C108 1.218 . S
C1751 C117 1.079 . S
C1756 C196 1.150 . S
C1767 C49 1.224 . S
C1772 C205 1.045 . S
C1783 C460 1.221 . S
C1788 C313 1.030 . S
C1799 C321 1.223 . S
C1804 C401 1.055 . S
C1815 C469 1.122 . S
C1820 C409 1.149 . S
C1831 C577 1.178 . S
C1836 C636 1.267 . S
C1847 C645 1.135 . S
C1852 C724 1.235 . S
C1863 C585 1.222 . S
C1868 C733 1.169 . S
C1879 C997 1.274 . S
C1884 C841 1.119 . S
C1895 C849 1.208 . S
C1900 C929 1.026 . S
C1911 C937 1.234 . S
C1916 C988 1.165 . S
C1927 C1164 1.273 . S
C1932 C1113 1.206 . S
C1943 C1252 1.235 . S
C1948 C1173 1.168 . S
C1959 C1105 1.208 . S
C1964 C1261 1.007 . S
C1975 C1369 1.088 . S
C1980 C1525 1.263 . S
C1991 C1437 1.078 . S
C1996 C1377 1.224 . S
C2007 C1516 1.157 . S
C2012 C1428 1.234 . S
C2023 C20 1.642 . S
C2028 C293 1.603 . S
C2039 C381 1.578 . S
C2044 C137 1.595 . S
C2055 C489 1.551 . S
C2060 C225 1.603 . S
C2071 C821 1.656 . S
C2076 C557 1.633 . S
C2087 C909 1.630 . S
C2092 C665 1.615 . S
C2103 C753 1.604 . S
C2108 C1025 1.644 . S
C2119 C1349 1.612 . S
C2124 C1076 1.619 . S
C2135 C1457 1.642 . S
C2140 C1193 1.649 . S
C2151 C1553 1.615 . S
C2156 C1281 1.630 . S
