# Generated by pormake.
# Topology yfj, (5)-cn, num edge types: 1
# Building blocks:
#     Node 0, Type 0, BuildingBlock: XOMCOT_clean_sbu_0, # of connection points: 5
#     Node 1, Type 0, BuildingBlock: XOMCOT_clean_sbu_0, # of connection points: 5
#     Node 2, Type 0, BuildingBlock: XOMCOT_clean_sbu_0, # of connection points: 5
#     Node 3, Type 0, BuildingBlock: XOMCOT_clean_sbu_0, # of connection points: 5
#     Node 4, Type 0, BuildingBlock: XOMCOT_clean_sbu_0, # of connection points: 5
#     Node 5, Type 0, BuildingBlock: XOMCOT_clean_sbu_0, # of connection points: 5
#     Node 6, Type 0, BuildingBlock: XOMCOT_clean_sbu_0, # of connection points: 5
#     Node 7, Type 0, BuildingBlock: XOMCOT_clean_sbu_0, # of connection points: 5
#     Node 8, Type 0, BuildingBlock: XOMCOT_clean_sbu_0, # of connection points: 5
#     Node 9, Type 0, BuildingBlock: XOMCOT_clean_sbu_0, # of connection points: 5
#     Node 10, Type 0, BuildingBlock: XOMCOT_clean_sbu_0, # of connection points: 5
#     Node 11, Type 0, BuildingBlock: XOMCOT_clean_sbu_0, # of connection points: 5
#     Node 12, Type 0, BuildingBlock: XOMCOT_clean_sbu_0, # of connection points: 5
#     Node 13, Type 0, BuildingBlock: XOMCOT_clean_sbu_0, # of connection points: 5
#     Node 14, Type 0, BuildingBlock: XOMCOT_clean_sbu_0, # of connection points: 5
#     Node 15, Type 0, BuildingBlock: XOMCOT_clean_sbu_0, # of connection points: 5
#     Edge 16, Type (0, 0), None
#     Edge 17, Type (0, 0), None
#     Edge 18, Type (0, 0), None
#     Edge 19, Type (0, 0), None
#     Edge 20, Type (0, 0), None
#     Edge 21, Type (0, 0), None
#     Edge 22, Type (0, 0), None
#     Edge 23, Type (0, 0), None
#     Edge 24, Type (0, 0), None
#     Edge 25, Type (0, 0), None
#     Edge 26, Type (0, 0), None
#     Edge 27, Type (0, 0), None
#     Edge 28, Type (0, 0), None
#     Edge 29, Type (0, 0), None
#     Edge 30, Type (0, 0), None
#     Edge 31, Type (0, 0), None
#     Edge 32, Type (0, 0), None
#     Edge 33, Type (0, 0), None
#     Edge 34, Type (0, 0), None
#     Edge 35, Type (0, 0), None
#     Edge 36, Type (0, 0), None
#     Edge 37, Type (0, 0), None
#     Edge 38, Type (0, 0), None
#     Edge 39, Type (0, 0), None
#     Edge 40, Type (0, 0), None
#     Edge 41, Type (0, 0), None
#     Edge 42, Type (0, 0), None
#     Edge 43, Type (0, 0), None
#     Edge 44, Type (0, 0), None
#     Edge 45, Type (0, 0), None
#     Edge 46, Type (0, 0), None
#     Edge 47, Type (0, 0), None
#     Edge 48, Type (0, 0), None
#     Edge 49, Type (0, 0), None
#     Edge 50, Type (0, 0), None
#     Edge 51, Type (0, 0), None
#     Edge 52, Type (0, 0), None
#     Edge 53, Type (0, 0), None
#     Edge 54, Type (0, 0), None
#     Edge 55, Type (0, 0), None
# Relax obj value: 0.396
# Max RMSD: 0.253
# Mean RMSD: 0.253
data_MOF--net-yfj--node1-XOMCOT_clean_sbu_0--edge1-none
_symmetry_space_group_name_H-M    P1
_symmetry_Int_Tables_number       1
_symmetry_cell_setting            triclinic
loop_
_symmetry_equiv_pos_as_xyz
'x, y, z'
_cell_length_a     25.297232
_cell_length_b     25.297235
_cell_length_c     24.796394
_cell_angle_alpha  90.000001
_cell_angle_beta   90.0
_cell_angle_gamma 90.0
loop_
_atom_site_label
_atom_site_type_symbol
_atom_site_fract_x
_atom_site_fract_y
_atom_site_fract_z
_atom_type_partial_charge
Co0 Co 0.13204 0.13765 0.35378 0.0
C1 C 0.19032 0.12323 0.25139 0.0
C2 C 0.18037 0.20559 0.26975 0.0
C3 C 0.21108 0.20091 0.22384 0.0
N4 N 0.16776 0.15686 0.28721 0.0
N5 N 0.21719 0.14908 0.21215 0.0
H6 H 0.18941 0.08064 0.25567 0.0
H7 H 0.16995 0.24189 0.29019 0.0
C8 C 0.12744 0.23782 0.42352 0.0
O9 O 0.07585 0.23273 0.42006 0.0
N10 N 0.09653 0.11658 0.41973 0.0
C11 C 0.04718 0.0963 0.42433 0.0
C12 C 0.03902 0.08032 0.47682 0.0
C13 C 0.11705 0.11421 0.46993 0.0
N14 N 0.08297 0.09203 0.50466 0.0
C15 C 0.10155 0.03215 0.324 0.0
C16 C 0.01128 0.06509 0.27037 0.0
C17 C 0.01674 0.01155 0.28415 0.0
C18 C 0.06392 -0.00517 0.30857 0.0
C19 C 0.05032 0.1011 0.28591 0.0
N20 N 0.09293 0.08459 0.31491 0.0
H21 H 0.13503 0.01919 0.34748 0.0
H22 H 0.04416 0.14294 0.27941 0.0
H23 H 0.01909 0.09235 0.3918 0.0
H24 H 0.15622 0.1272 0.48113 0.0
O25 O 0.19393 0.08989 0.37364 0.0
O26 O 0.1912 0.17167 0.39241 0.0
O27 O 0.15783 0.20552 0.39619 0.0
C28 C 0.21777 0.12869 0.39472 0.0
H29 H 0.22943 0.23323 0.20245 0.0
H30 H 0.00385 0.0621 0.49334 0.0
H31 H 0.97547 0.07948 0.25145 0.0
H32 H 0.06944 0.95403 0.3206 0.0
Co33 Co 0.84953 0.63204 0.60378 0.0
C34 C 0.86396 0.69032 0.50139 0.0
C35 C 0.78159 0.68037 0.51975 0.0
C36 C 0.78627 0.71108 0.47384 0.0
N37 N 0.83032 0.66776 0.53721 0.0
N38 N 0.83811 0.71719 0.46215 0.0
H39 H 0.90654 0.68941 0.50567 0.0
H40 H 0.7453 0.66995 0.54019 0.0
C41 C 0.74937 0.62744 0.67352 0.0
O42 O 0.75445 0.57585 0.67006 0.0
N43 N 0.87061 0.59653 0.66973 0.0
C44 C 0.89088 0.54718 0.67433 0.0
C45 C 0.90686 0.53902 0.72682 0.0
C46 C 0.87298 0.61705 0.71993 0.0
N47 N 0.89516 0.58297 0.75466 0.0
C48 C 0.95503 0.60155 0.574 0.0
C49 C 0.9221 0.51128 0.52037 0.0
C50 C 0.97563 0.51674 0.53415 0.0
C51 C 0.99235 0.56392 0.55857 0.0
C52 C 0.88608 0.55032 0.53591 0.0
N53 N 0.90259 0.59293 0.56491 0.0
H54 H 0.96799 0.63503 0.59748 0.0
H55 H 0.84425 0.54416 0.52941 0.0
H56 H 0.89484 0.51909 0.6418 0.0
H57 H 0.85999 0.65622 0.73113 0.0
O58 O 0.89729 0.69393 0.62364 0.0
O59 O 0.81551 0.6912 0.64241 0.0
O60 O 0.78167 0.65783 0.64619 0.0
C61 C 0.8585 0.71777 0.64472 0.0
H62 H 0.75395 0.72943 0.45245 0.0
H63 H 0.92508 0.50385 0.74334 0.0
H64 H 0.90771 0.47547 0.50145 0.0
H65 H 0.03315 0.56944 0.5706 0.0
Co66 Co 0.35514 0.34953 0.85378 0.0
C67 C 0.29686 0.36396 0.75139 0.0
C68 C 0.30682 0.28159 0.76975 0.0
C69 C 0.2761 0.28627 0.72384 0.0
N70 N 0.31943 0.33032 0.78721 0.0
N71 N 0.27 0.33811 0.71215 0.0
H72 H 0.29777 0.40654 0.75567 0.0
H73 H 0.31724 0.2453 0.79019 0.0
C74 C 0.35974 0.24937 0.92352 0.0
O75 O 0.41133 0.25445 0.92006 0.0
N76 N 0.39066 0.37061 0.91973 0.0
C77 C 0.44 0.39088 0.92433 0.0
C78 C 0.44816 0.40686 0.97682 0.0
C79 C 0.37013 0.37298 0.96993 0.0
N80 N 0.40421 0.39516 1.00466 0.0
C81 C 0.38563 0.45503 0.824 0.0
C82 C 0.47591 0.4221 0.77037 0.0
C83 C 0.47044 0.47563 0.78415 0.0
C84 C 0.42326 0.49235 0.80857 0.0
C85 C 0.43687 0.38608 0.78591 0.0
N86 N 0.39425 0.40259 0.81491 0.0
H87 H 0.35216 0.46799 0.84748 0.0
H88 H 0.44302 0.34425 0.77941 0.0
H89 H 0.46809 0.39484 0.8918 0.0
H90 H 0.33096 0.35999 0.98113 0.0
O91 O 0.29325 0.39729 0.87364 0.0
O92 O 0.29598 0.31551 0.89241 0.0
O93 O 0.32935 0.28167 0.89619 0.0
C94 C 0.26941 0.3585 0.89472 0.0
H95 H 0.25775 0.25395 0.70245 0.0
H96 H 0.48333 0.42508 0.99334 0.0
H97 H 0.51172 0.40771 0.75145 0.0
H98 H 0.41774 0.53315 0.8206 0.0
Co99 Co 0.63765 0.85514 0.10378 0.0
C100 C 0.62323 0.79686 1.00139 0.0
C101 C 0.70559 0.80682 1.01975 0.0
C102 C 0.70091 0.7761 0.97384 0.0
N103 N 0.65686 0.81943 0.03721 0.0
N104 N 0.64908 0.77 0.96215 0.0
H105 H 0.58064 0.79777 1.00567 0.0
H106 H 0.74189 0.81724 0.04019 0.0
C107 C 0.73782 0.85974 0.17352 0.0
O108 O 0.73273 0.91133 0.17006 0.0
N109 N 0.61658 0.89066 0.16973 0.0
C110 C 0.5963 0.94 0.17433 0.0
C111 C 0.58032 0.94816 0.22682 0.0
C112 C 0.61421 0.87013 0.21993 0.0
N113 N 0.59203 0.90421 0.25466 0.0
C114 C 0.53215 0.88563 0.074 0.0
C115 C 0.56509 0.97591 1.02037 0.0
C116 C 0.51155 0.97044 0.03415 0.0
C117 C 0.49483 0.92326 0.05857 0.0
C118 C 0.6011 0.93687 0.03591 0.0
N119 N 0.58459 0.89425 0.06491 0.0
H120 H 0.51919 0.85216 0.09748 0.0
H121 H 0.64294 0.94302 1.02941 0.0
H122 H 0.59235 0.96809 0.1418 0.0
H123 H 0.6272 0.83096 0.23113 0.0
O124 O 0.58989 0.79325 0.12364 0.0
O125 O 0.67167 0.79598 0.14241 0.0
O126 O 0.70552 0.82935 0.14619 0.0
C127 C 0.62869 0.76941 0.14472 0.0
H128 H 0.73323 0.75775 0.95245 0.0
H129 H 0.5621 0.98333 0.24334 0.0
H130 H 0.57948 0.01172 1.00145 0.0
H131 H 0.45403 0.91774 0.0706 0.0
Co132 Co 0.13204 0.34953 0.96053 0.0
C133 C 0.19032 0.36396 0.06292 0.0
C134 C 0.18037 0.28159 0.04456 0.0
C135 C 0.21108 0.28627 0.09047 0.0
N136 N 0.16776 0.33032 1.02709 0.0
N137 N 0.21719 0.33811 0.10216 0.0
H138 H 0.18941 0.40654 0.05863 0.0
H139 H 0.16995 0.2453 1.02411 0.0
C140 C 0.12744 0.24937 0.89079 0.0
O141 O 0.07585 0.25445 0.89425 0.0
N142 N 0.09653 0.37061 0.89458 0.0
C143 C 0.04718 0.39088 0.88998 0.0
C144 C 0.03902 0.40686 0.83748 0.0
C145 C 0.11705 0.37298 0.84438 0.0
N146 N 0.08297 0.39516 0.80965 0.0
C147 C 0.10155 0.45503 0.99031 0.0
C148 C 0.01127 0.4221 0.04394 0.0
C149 C 0.01674 0.47563 1.03016 0.0
C150 C 0.06392 0.49235 1.00574 0.0
C151 C 0.05031 0.38608 1.0284 0.0
N152 N 0.09293 0.40259 0.99939 0.0
H153 H 0.13502 0.46799 0.96683 0.0
H154 H 0.04416 0.34425 0.0349 0.0
H155 H 0.01909 0.39484 0.92251 0.0
H156 H 0.15622 0.35998 0.83318 0.0
O157 O 0.19393 0.39729 0.94067 0.0
O158 O 0.1912 0.31551 0.9219 0.0
O159 O 0.15783 0.28167 0.91812 0.0
C160 C 0.21777 0.3585 0.91959 0.0
H161 H 0.22943 0.25395 0.11186 0.0
H162 H 0.00385 0.42508 0.82097 0.0
H163 H 0.97547 0.40771 0.06286 0.0
H164 H 0.06944 0.53315 0.99371 0.0
Co165 Co 0.63765 0.63204 0.21053 0.0
C166 C 0.62323 0.69032 0.31292 0.0
C167 C 0.70559 0.68037 0.29456 0.0
C168 C 0.70091 0.71108 0.34047 0.0
N169 N 0.65686 0.66776 0.27709 0.0
N170 N 0.64908 0.71719 0.35216 0.0
H171 H 0.58064 0.68941 0.30863 0.0
H172 H 0.74189 0.66995 0.27411 0.0
C173 C 0.73782 0.62744 0.14079 0.0
O174 O 0.73273 0.57585 0.14425 0.0
N175 N 0.61658 0.59653 0.14458 0.0
C176 C 0.5963 0.54718 0.13998 0.0
C177 C 0.58032 0.53902 0.08748 0.0
C178 C 0.61421 0.61705 0.09438 0.0
N179 N 0.59203 0.58297 0.05965 0.0
C180 C 0.53215 0.60155 0.24031 0.0
C181 C 0.56509 0.51127 0.29394 0.0
C182 C 0.51155 0.51674 0.28016 0.0
C183 C 0.49483 0.56392 0.25574 0.0
C184 C 0.6011 0.55031 0.2784 0.0
N185 N 0.58459 0.59293 0.24939 0.0
H186 H 0.51919 0.63502 0.21683 0.0
H187 H 0.64294 0.54416 0.2849 0.0
H188 H 0.59235 0.51909 0.17251 0.0
H189 H 0.6272 0.65622 0.08318 0.0
O190 O 0.58989 0.69393 0.19067 0.0
O191 O 0.67167 0.6912 0.1719 0.0
O192 O 0.70552 0.65783 0.16812 0.0
C193 C 0.62869 0.71777 0.16959 0.0
H194 H 0.73323 0.72943 0.36186 0.0
H195 H 0.5621 0.50385 0.07097 0.0
H196 H 0.57948 0.47547 0.31286 0.0
H197 H 0.45403 0.56944 0.24371 0.0
Co198 Co 0.35514 0.13765 0.46053 0.0
C199 C 0.29686 0.12323 0.56292 0.0
C200 C 0.30682 0.20559 0.54456 0.0
C201 C 0.2761 0.20091 0.59047 0.0
N202 N 0.31943 0.15686 0.52709 0.0
N203 N 0.27 0.14908 0.60216 0.0
H204 H 0.29777 0.08064 0.55863 0.0
H205 H 0.31724 0.24189 0.52411 0.0
C206 C 0.35974 0.23782 0.39079 0.0
O207 O 0.41133 0.23273 0.39425 0.0
N208 N 0.39066 0.11658 0.39458 0.0
C209 C 0.44 0.0963 0.38998 0.0
C210 C 0.44816 0.08032 0.33748 0.0
C211 C 0.37013 0.11421 0.34438 0.0
N212 N 0.40422 0.09203 0.30965 0.0
C213 C 0.38563 0.03215 0.49031 0.0
C214 C 0.47591 0.06509 0.54394 0.0
C215 C 0.47044 0.01155 0.53016 0.0
C216 C 0.42326 -0.00517 0.50574 0.0
C217 C 0.43687 0.1011 0.5284 0.0
N218 N 0.39425 0.08459 0.49939 0.0
H219 H 0.35216 0.01919 0.46683 0.0
H220 H 0.44302 0.14294 0.5349 0.0
H221 H 0.46809 0.09235 0.42251 0.0
H222 H 0.33096 0.1272 0.33318 0.0
O223 O 0.29325 0.08989 0.44067 0.0
O224 O 0.29598 0.17167 0.4219 0.0
O225 O 0.32935 0.20552 0.41812 0.0
C226 C 0.26941 0.12869 0.41959 0.0
H227 H 0.25775 0.23323 0.61186 0.0
H228 H 0.48333 0.0621 0.32097 0.0
H229 H 0.51172 0.07948 0.56286 0.0
H230 H 0.41774 0.95403 0.49371 0.0
Co231 Co 0.84953 0.85514 0.71053 0.0
C232 C 0.86396 0.79686 0.81292 0.0
C233 C 0.78159 0.80682 0.79456 0.0
C234 C 0.78627 0.7761 0.84047 0.0
N235 N 0.83032 0.81943 0.77709 0.0
N236 N 0.83811 0.77 0.85216 0.0
H237 H 0.90654 0.79777 0.80863 0.0
H238 H 0.7453 0.81724 0.77411 0.0
C239 C 0.74937 0.85974 0.64079 0.0
O240 O 0.75445 0.91133 0.64425 0.0
N241 N 0.87061 0.89066 0.64458 0.0
C242 C 0.89088 0.94 0.63998 0.0
C243 C 0.90686 0.94816 0.58748 0.0
C244 C 0.87298 0.87013 0.59438 0.0
N245 N 0.89516 0.90422 0.55965 0.0
C246 C 0.95503 0.88563 0.74031 0.0
C247 C 0.9221 0.97591 0.79394 0.0
C248 C 0.97563 0.97044 0.78016 0.0
C249 C 0.99235 0.92326 0.75574 0.0
C250 C 0.88608 0.93687 0.7784 0.0
N251 N 0.90259 0.89425 0.74939 0.0
H252 H 0.96799 0.85216 0.71683 0.0
H253 H 0.84425 0.94302 0.7849 0.0
H254 H 0.89484 0.96809 0.67251 0.0
H255 H 0.85998 0.83096 0.58318 0.0
O256 O 0.89729 0.79325 0.69067 0.0
O257 O 0.81551 0.79598 0.6719 0.0
O258 O 0.78167 0.82935 0.66812 0.0
C259 C 0.8585 0.76941 0.66959 0.0
H260 H 0.75395 0.75775 0.86186 0.0
H261 H 0.92508 0.98333 0.57097 0.0
H262 H 0.90771 0.01172 0.81286 0.0
H263 H 0.03315 0.91774 0.74371 0.0
Co264 Co 0.63204 0.63766 0.85378 0.0
C265 C 0.69035 0.62323 0.75141 0.0
C266 C 0.68036 0.7056 0.76974 0.0
C267 C 0.71109 0.70092 0.72385 0.0
N268 N 0.66776 0.65686 0.78722 0.0
N269 N 0.71724 0.64908 0.71219 0.0
H270 H 0.68944 0.58064 0.7557 0.0
H271 H 0.66991 0.74189 0.79017 0.0
C272 C 0.62744 0.73783 0.92351 0.0
O273 O 0.57585 0.73275 0.92005 0.0
N274 N 0.59652 0.61659 0.91974 0.0
C275 C 0.54718 0.59632 0.92433 0.0
C276 C 0.53901 0.58033 0.97682 0.0
C277 C 0.61705 0.61421 0.96993 0.0
N278 N 0.58296 0.59204 1.00466 0.0
C279 C 0.60155 0.53216 0.82401 0.0
C280 C 0.51128 0.56509 0.77036 0.0
C281 C 0.51675 0.51156 0.78415 0.0
C282 C 0.56392 0.49483 0.80858 0.0
C283 C 0.55032 0.6011 0.7859 0.0
N284 N 0.59293 0.5846 0.81492 0.0
H285 H 0.63502 0.5192 0.84749 0.0
H286 H 0.54417 0.64294 0.7794 0.0
H287 H 0.51909 0.59236 0.8918 0.0
H288 H 0.65622 0.6272 0.98113 0.0
O289 O 0.69393 0.5899 0.87365 0.0
O290 O 0.6912 0.67168 0.89242 0.0
O291 O 0.65783 0.70552 0.89619 0.0
C292 C 0.71777 0.62869 0.89472 0.0
H293 H 0.72942 0.73324 0.70244 0.0
H294 H 0.50384 0.56212 0.99334 0.0
H295 H 0.47547 0.57948 0.75144 0.0
H296 H 0.56944 0.45404 0.82061 0.0
Co297 Co 0.34953 0.13204 0.10378 0.0
C298 C 0.36396 0.19035 1.00141 0.0
C299 C 0.28159 0.18036 1.01974 0.0
C300 C 0.28627 0.21109 0.97385 0.0
N301 N 0.33032 0.16776 0.03722 0.0
N302 N 0.3381 0.21724 0.96219 0.0
H303 H 0.40654 0.18944 1.0057 0.0
H304 H 0.24529 0.16991 0.04017 0.0
C305 C 0.24935 0.12744 0.17351 0.0
O306 O 0.25443 0.07585 0.17005 0.0
N307 N 0.3706 0.09652 0.16974 0.0
C308 C 0.39087 0.04718 0.17433 0.0
C309 C 0.40685 0.03901 0.22682 0.0
C310 C 0.37297 0.11705 0.21993 0.0
N311 N 0.39515 0.08296 0.25466 0.0
C312 C 0.45503 0.10155 0.07401 0.0
C313 C 0.42209 0.01128 1.02036 0.0
C314 C 0.47562 0.01675 0.03415 0.0
C315 C 0.49235 0.06392 0.05858 0.0
C316 C 0.38608 0.05032 0.0359 0.0
N317 N 0.40258 0.09293 0.06492 0.0
H318 H 0.46798 0.13502 0.09749 0.0
H319 H 0.34424 0.04417 1.0294 0.0
H320 H 0.39482 0.01909 0.1418 0.0
H321 H 0.35998 0.15622 0.23113 0.0
O322 O 0.39729 0.19393 0.12365 0.0
O323 O 0.31551 0.1912 0.14242 0.0
O324 O 0.28166 0.15783 0.14619 0.0
C325 C 0.35849 0.21777 0.14472 0.0
H326 H 0.25395 0.22942 0.95244 0.0
H327 H 0.42506 0.00384 0.24334 0.0
H328 H 0.4077 0.97547 1.00144 0.0
H329 H 0.53315 0.06944 0.07061 0.0
Co330 Co 0.85514 0.84953 0.35378 0.0
C331 C 0.79683 0.86396 0.25141 0.0
C332 C 0.80683 0.78159 0.26974 0.0
C333 C 0.77609 0.78627 0.22385 0.0
N334 N 0.81942 0.83032 0.28722 0.0
N335 N 0.76994 0.8381 0.21219 0.0
H336 H 0.79774 0.90654 0.2557 0.0
H337 H 0.81728 0.74529 0.29017 0.0
C338 C 0.85975 0.74935 0.42351 0.0
O339 O 0.91134 0.75443 0.42005 0.0
N340 N 0.89066 0.8706 0.41974 0.0
C341 C 0.94001 0.89087 0.42433 0.0
C342 C 0.94817 0.90685 0.47682 0.0
C343 C 0.87014 0.87297 0.46993 0.0
N344 N 0.90422 0.89515 0.50466 0.0
C345 C 0.88563 0.95503 0.32401 0.0
C346 C 0.97591 0.92209 0.27036 0.0
C347 C 0.97044 0.97562 0.28415 0.0
C348 C 0.92326 0.99235 0.30858 0.0
C349 C 0.93687 0.88608 0.2859 0.0
N350 N 0.89425 0.90258 0.31492 0.0
H351 H 0.85216 0.96798 0.34749 0.0
H352 H 0.94302 0.84424 0.2794 0.0
H353 H 0.96809 0.89482 0.3918 0.0
H354 H 0.83097 0.85998 0.48113 0.0
O355 O 0.79325 0.89729 0.37365 0.0
O356 O 0.79598 0.81551 0.39242 0.0
O357 O 0.82936 0.78166 0.39619 0.0
C358 C 0.76941 0.85849 0.39472 0.0
H359 H 0.75776 0.75395 0.20244 0.0
H360 H 0.98334 0.92506 0.49334 0.0
H361 H 0.01171 0.9077 0.25144 0.0
H362 H 0.91774 0.03315 0.32061 0.0
Co363 Co 0.13766 0.35514 0.60378 0.0
C364 C 0.12323 0.29683 0.50141 0.0
C365 C 0.2056 0.30683 0.51974 0.0
C366 C 0.20092 0.27609 0.47385 0.0
N367 N 0.15686 0.31942 0.53722 0.0
N368 N 0.14908 0.26994 0.46219 0.0
H369 H 0.08064 0.29774 0.5057 0.0
H370 H 0.24189 0.31728 0.54017 0.0
C371 C 0.23783 0.35975 0.67351 0.0
O372 O 0.23275 0.41134 0.67005 0.0
N373 N 0.11659 0.39066 0.66974 0.0
C374 C 0.09632 0.44001 0.67433 0.0
C375 C 0.08033 0.44817 0.72682 0.0
C376 C 0.11421 0.37014 0.71993 0.0
N377 N 0.09204 0.40422 0.75466 0.0
C378 C 0.03216 0.38563 0.57401 0.0
C379 C 0.06509 0.47591 0.52036 0.0
C380 C 0.01156 0.47044 0.53415 0.0
C381 C -0.00517 0.42326 0.55858 0.0
C382 C 0.1011 0.43687 0.5359 0.0
N383 N 0.0846 0.39425 0.56492 0.0
H384 H 0.0192 0.35216 0.59749 0.0
H385 H 0.14294 0.44302 0.5294 0.0
H386 H 0.09236 0.46809 0.6418 0.0
H387 H 0.1272 0.33097 0.73113 0.0
O388 O 0.0899 0.29325 0.62365 0.0
O389 O 0.17168 0.29598 0.64242 0.0
O390 O 0.20552 0.32936 0.64619 0.0
C391 C 0.12869 0.26941 0.64472 0.0
H392 H 0.23324 0.25776 0.45244 0.0
H393 H 0.06212 0.48334 0.74334 0.0
H394 H 0.07948 0.51171 0.50144 0.0
H395 H 0.95404 0.41774 0.57061 0.0
Co396 Co 0.63204 0.84953 0.46053 0.0
C397 C 0.69035 0.86396 0.56289 0.0
C398 C 0.68036 0.78159 0.54456 0.0
C399 C 0.71109 0.78627 0.59046 0.0
N400 N 0.66776 0.83032 0.52709 0.0
N401 N 0.71724 0.8381 0.60212 0.0
H402 H 0.68944 0.90654 0.55861 0.0
H403 H 0.66991 0.74529 0.52414 0.0
C404 C 0.62744 0.74935 0.3908 0.0
O405 O 0.57585 0.75443 0.39426 0.0
N406 N 0.59652 0.8706 0.39457 0.0
C407 C 0.54717 0.89087 0.38998 0.0
C408 C 0.53901 0.90685 0.33748 0.0
C409 C 0.61705 0.87297 0.34438 0.0
N410 N 0.58296 0.89514 0.30965 0.0
C411 C 0.60155 0.95503 0.4903 0.0
C412 C 0.51128 0.92209 0.54394 0.0
C413 C 0.51675 0.97562 0.53016 0.0
C414 C 0.56392 0.99235 0.50573 0.0
C415 C 0.55032 0.88608 0.5284 0.0
N416 N 0.59293 0.90258 0.49939 0.0
H417 H 0.63502 0.96798 0.46681 0.0
H418 H 0.54417 0.84424 0.5349 0.0
H419 H 0.51909 0.89482 0.42251 0.0
H420 H 0.65622 0.85998 0.33318 0.0
O421 O 0.69393 0.89729 0.44066 0.0
O422 O 0.6912 0.81551 0.42189 0.0
O423 O 0.65783 0.78166 0.41812 0.0
C424 C 0.71777 0.85849 0.41959 0.0
H425 H 0.72942 0.75395 0.61186 0.0
H426 H 0.50384 0.92506 0.32097 0.0
H427 H 0.47547 0.9077 0.56287 0.0
H428 H 0.56944 0.03315 0.4937 0.0
Co429 Co 0.13766 0.13204 0.71053 0.0
C430 C 0.12323 0.19035 0.81289 0.0
C431 C 0.2056 0.18035 0.79456 0.0
C432 C 0.20092 0.21109 0.84046 0.0
N433 N 0.15686 0.16776 0.77709 0.0
N434 N 0.14908 0.21724 0.85212 0.0
H435 H 0.08064 0.18944 0.80861 0.0
H436 H 0.24189 0.16991 0.77414 0.0
C437 C 0.23783 0.12744 0.6408 0.0
O438 O 0.23275 0.07585 0.64426 0.0
N439 N 0.11659 0.09652 0.64457 0.0
C440 C 0.09632 0.04717 0.63998 0.0
C441 C 0.08033 0.03901 0.58748 0.0
C442 C 0.11421 0.11705 0.59438 0.0
N443 N 0.09204 0.08296 0.55965 0.0
C444 C 0.03216 0.10155 0.7403 0.0
C445 C 0.06509 0.01128 0.79394 0.0
C446 C 0.01156 0.01675 0.78016 0.0
C447 C -0.00517 0.06392 0.75573 0.0
C448 C 0.10111 0.05032 0.7784 0.0
N449 N 0.0846 0.09293 0.74939 0.0
H450 H 0.0192 0.13502 0.71681 0.0
H451 H 0.14294 0.04417 0.7849 0.0
H452 H 0.09236 0.01909 0.67251 0.0
H453 H 0.1272 0.15622 0.58318 0.0
O454 O 0.0899 0.19393 0.69066 0.0
O455 O 0.17168 0.1912 0.67189 0.0
O456 O 0.20553 0.15783 0.66812 0.0
C457 C 0.12869 0.21777 0.66959 0.0
H458 H 0.23324 0.22942 0.86186 0.0
H459 H 0.06212 0.00384 0.57097 0.0
H460 H 0.07948 0.97547 0.81287 0.0
H461 H 0.95404 0.06944 0.7437 0.0
Co462 Co 0.85514 0.63766 0.96053 0.0
C463 C 0.79683 0.62323 0.06289 0.0
C464 C 0.80683 0.7056 0.04456 0.0
C465 C 0.77609 0.70092 0.09046 0.0
N466 N 0.81942 0.65686 1.02709 0.0
N467 N 0.76994 0.64908 0.10212 0.0
H468 H 0.79774 0.58064 0.05861 0.0
H469 H 0.81728 0.74189 1.02414 0.0
C470 C 0.85975 0.73783 0.8908 0.0
O471 O 0.91134 0.73275 0.89426 0.0
N472 N 0.89066 0.61659 0.89457 0.0
C473 C 0.94001 0.59632 0.88998 0.0
C474 C 0.94817 0.58033 0.83748 0.0
C475 C 0.87014 0.61421 0.84438 0.0
N476 N 0.90422 0.59204 0.80965 0.0
C477 C 0.88563 0.53216 0.9903 0.0
C478 C 0.97591 0.56509 0.04394 0.0
C479 C 0.97044 0.51156 1.03016 0.0
C480 C 0.92326 0.49483 1.00573 0.0
C481 C 0.93687 0.60111 1.0284 0.0
N482 N 0.89425 0.5846 0.99939 0.0
H483 H 0.85216 0.5192 0.96681 0.0
H484 H 0.94302 0.64294 0.0349 0.0
H485 H 0.96809 0.59236 0.92251 0.0
H486 H 0.83097 0.6272 0.83318 0.0
O487 O 0.79325 0.5899 0.94066 0.0
O488 O 0.79598 0.67168 0.92189 0.0
O489 O 0.82936 0.70553 0.91812 0.0
C490 C 0.76941 0.62869 0.91959 0.0
H491 H 0.75776 0.73324 0.11186 0.0
H492 H 0.98334 0.56212 0.82097 0.0
H493 H 0.01171 0.57948 0.06287 0.0
H494 H 0.91774 0.45404 0.9937 0.0
Co495 Co 0.34953 0.35514 0.21053 0.0
C496 C 0.36396 0.29683 0.31289 0.0
C497 C 0.28159 0.30683 0.29456 0.0
C498 C 0.28627 0.27609 0.34046 0.0
N499 N 0.33032 0.31942 0.27709 0.0
N500 N 0.3381 0.26994 0.35212 0.0
H501 H 0.40654 0.29774 0.30861 0.0
H502 H 0.24529 0.31728 0.27414 0.0
C503 C 0.24935 0.35975 0.1408 0.0
O504 O 0.25443 0.41134 0.14426 0.0
N505 N 0.3706 0.39066 0.14457 0.0
C506 C 0.39087 0.44001 0.13998 0.0
C507 C 0.40685 0.44817 0.08748 0.0
C508 C 0.37297 0.37014 0.09438 0.0
N509 N 0.39514 0.40422 0.05965 0.0
C510 C 0.45503 0.38563 0.2403 0.0
C511 C 0.42209 0.47591 0.29394 0.0
C512 C 0.47562 0.47044 0.28016 0.0
C513 C 0.49235 0.42326 0.25573 0.0
C514 C 0.38608 0.43687 0.2784 0.0
N515 N 0.40258 0.39425 0.24939 0.0
H516 H 0.46798 0.35216 0.21681 0.0
H517 H 0.34424 0.44302 0.2849 0.0
H518 H 0.39482 0.46809 0.17251 0.0
H519 H 0.35998 0.33097 0.08318 0.0
O520 O 0.39729 0.29325 0.19066 0.0
O521 O 0.31551 0.29598 0.17189 0.0
O522 O 0.28166 0.32936 0.16812 0.0
C523 C 0.35849 0.26941 0.16959 0.0
H524 H 0.25395 0.25776 0.36186 0.0
H525 H 0.42506 0.48334 0.07097 0.0
H526 H 0.4077 0.51171 0.31287 0.0
H527 H 0.53315 0.41774 0.2437 0.0
loop_
_geom_bond_atom_site_label_1
_geom_bond_atom_site_label_2
_geom_bond_distance
_geom_bond_site_symmetry_2
_ccdc_geom_bond_type
Co0 N4 2.148 . S
Co0 N10 2.128 . S
Co0 N20 2.194 . S
Co0 O25 2.351 . S
Co0 O26 2.155 . S
Co0 O27 2.096 . S
C1 N4 1.301 . S
C1 N5 1.328 . S
C1 H6 0.930 . S
C2 C3 1.333 . S
C2 N4 1.317 . S
C2 H7 0.930 . S
C3 C2 1.333 . S
C3 N5 1.350 . S
C3 H29 0.931 . S
N4 Co0 2.148 . S
N4 C1 1.301 . S
N4 C2 1.317 . S
N5 C1 1.328 . S
N5 C3 1.350 . S
H6 C1 0.930 . S
H7 C2 0.930 . S
C8 O9 1.224 . S
C8 O27 1.247 . S
O9 C8 1.224 . S
N10 Co0 2.128 . S
N10 C11 1.355 . S
N10 C13 1.311 . S
C11 N10 1.355 . S
C11 C12 1.363 . S
C11 H23 0.929 . S
C12 C11 1.363 . S
C12 N14 1.375 . S
C12 H30 0.931 . S
C13 N10 1.311 . S
C13 N14 1.347 . S
C13 H24 0.929 . S
N14 C12 1.375 . S
N14 C13 1.347 . S
C15 C18 1.365 . S
C15 N20 1.328 . S
C15 H21 0.929 . S
C16 C17 1.367 . S
C16 C19 1.392 . S
C16 H31 0.910 1_455 S
C17 C16 1.367 . S
C17 C18 1.366 . S
C18 C15 1.365 . S
C18 C17 1.366 . S
C18 H32 0.930 1_545 S
C19 C16 1.392 . S
C19 N20 1.315 . S
C19 H22 0.930 . S
N20 Co0 2.194 . S
N20 C15 1.328 . S
N20 C19 1.315 . S
H21 C15 0.929 . S
H22 C19 0.930 . S
H23 C11 0.929 . S
H24 C13 0.929 . S
O25 Co0 2.351 . S
O25 C28 1.244 . S
O26 Co0 2.155 . S
O26 C28 1.240 . S
O27 Co0 2.096 . S
O27 C8 1.247 . S
C28 O25 1.244 . S
C28 O26 1.240 . S
H29 C3 0.931 . S
H30 C12 0.931 . S
H31 C16 0.910 1_655 S
H32 C18 0.930 1_565 S
Co33 N37 2.148 . S
Co33 N43 2.128 . S
Co33 N53 2.194 . S
Co33 O58 2.351 . S
Co33 O59 2.155 . S
Co33 O60 2.096 . S
C34 N37 1.301 . S
C34 N38 1.328 . S
C34 H39 0.930 . S
C35 C36 1.333 . S
C35 N37 1.317 . S
C35 H40 0.930 . S
C36 C35 1.333 . S
C36 N38 1.350 . S
C36 H62 0.931 . S
N37 Co33 2.148 . S
N37 C34 1.301 . S
N37 C35 1.317 . S
N38 C34 1.328 . S
N38 C36 1.350 . S
H39 C34 0.930 . S
H40 C35 0.930 . S
C41 O42 1.224 . S
C41 O60 1.247 . S
O42 C41 1.224 . S
N43 Co33 2.128 . S
N43 C44 1.355 . S
N43 C46 1.311 . S
C44 N43 1.355 . S
C44 C45 1.363 . S
C44 H56 0.929 . S
C45 C44 1.363 . S
C45 N47 1.375 . S
C45 H63 0.931 . S
C46 N43 1.311 . S
C46 N47 1.347 . S
C46 H57 0.929 . S
N47 C45 1.375 . S
N47 C46 1.347 . S
C48 C51 1.365 . S
C48 N53 1.328 . S
C48 H54 0.929 . S
C49 C50 1.362 . S
C49 C52 1.378 . S
C49 H64 0.929 . S
C50 C49 1.362 . S
C50 C51 1.366 . S
C51 C48 1.365 . S
C51 C50 1.366 . S
C51 H65 0.930 1_655 S
C52 C49 1.378 . S
C52 N53 1.315 . S
C52 H55 0.930 . S
N53 Co33 2.194 . S
N53 C48 1.328 . S
N53 C52 1.315 . S
H54 C48 0.929 . S
H55 C52 0.930 . S
H56 C44 0.929 . S
H57 C46 0.929 . S
O58 Co33 2.351 . S
O58 C61 1.244 . S
O59 Co33 2.155 . S
O59 C61 1.240 . S
O60 Co33 2.096 . S
O60 C41 1.247 . S
C61 O58 1.244 . S
C61 O59 1.240 . S
H62 C36 0.931 . S
H63 C45 0.931 . S
H64 C49 0.929 . S
H65 C51 0.930 1_455 S
Co66 N70 2.148 . S
Co66 N76 2.128 . S
Co66 N86 2.194 . S
Co66 O91 2.351 . S
Co66 O92 2.155 . S
Co66 O93 2.096 . S
C67 N70 1.301 . S
C67 N71 1.328 . S
C67 H72 0.930 . S
C68 C69 1.333 . S
C68 N70 1.317 . S
C68 H73 0.930 . S
C69 C68 1.333 . S
C69 N71 1.350 . S
C69 H95 0.931 . S
N70 Co66 2.148 . S
N70 C67 1.301 . S
N70 C68 1.317 . S
N71 C67 1.328 . S
N71 C69 1.350 . S
H72 C67 0.930 . S
H73 C68 0.930 . S
C74 O75 1.224 . S
C74 O93 1.247 . S
O75 C74 1.224 . S
N76 Co66 2.128 . S
N76 C77 1.355 . S
N76 C79 1.311 . S
C77 N76 1.355 . S
C77 C78 1.363 . S
C77 H89 0.929 . S
C78 C77 1.363 . S
C78 N80 1.373 1_556 S
C78 H96 0.938 . S
C79 N76 1.311 . S
C79 N80 1.342 1_556 S
C79 H90 0.929 . S
N80 C78 1.373 1_554 S
N80 C79 1.342 1_554 S
C81 C84 1.365 . S
C81 N86 1.328 . S
C81 H87 0.929 . S
C82 C83 1.362 . S
C82 C85 1.378 . S
C82 H97 0.929 . S
C83 C82 1.362 . S
C83 C84 1.366 . S
C84 C81 1.365 . S
C84 C83 1.366 . S
C84 H98 0.930 . S
C85 C82 1.378 . S
C85 N86 1.315 . S
C85 H88 0.930 . S
N86 Co66 2.194 . S
N86 C81 1.328 . S
N86 C85 1.315 . S
H87 C81 0.929 . S
H88 C85 0.930 . S
H89 C77 0.929 . S
H90 C79 0.929 . S
O91 Co66 2.351 . S
O91 C94 1.244 . S
O92 Co66 2.155 . S
O92 C94 1.240 . S
O93 Co66 2.096 . S
O93 C74 1.247 . S
C94 O91 1.244 . S
C94 O92 1.240 . S
H95 C69 0.931 . S
H96 C78 0.938 . S
H97 C82 0.929 . S
H98 C84 0.930 . S
Co99 N103 2.148 . S
Co99 N109 2.128 . S
Co99 N119 2.194 . S
Co99 O124 2.351 . S
Co99 O125 2.155 . S
Co99 O126 2.096 . S
C100 N103 1.301 1_556 S
C100 N104 1.328 . S
C100 H105 0.930 . S
C101 C102 1.333 1_554 S
C101 N103 1.317 . S
C101 H106 0.930 . S
C102 C101 1.333 1_556 S
C102 N104 1.350 . S
C102 H128 0.931 . S
N103 Co99 2.148 . S
N103 C100 1.301 1_554 S
N103 C101 1.317 . S
N104 C100 1.328 . S
N104 C102 1.350 . S
H105 C100 0.930 . S
H106 C101 0.930 . S
C107 O108 1.224 . S
C107 O126 1.247 . S
O108 C107 1.224 . S
N109 Co99 2.128 . S
N109 C110 1.355 . S
N109 C112 1.311 . S
C110 N109 1.355 . S
C110 C111 1.363 . S
C110 H122 0.929 . S
C111 C110 1.363 . S
C111 N113 1.375 . S
C111 H129 0.931 . S
C112 N109 1.311 . S
C112 N113 1.347 . S
C112 H123 0.929 . S
N113 C111 1.375 . S
N113 C112 1.347 . S
C114 C117 1.365 . S
C114 N119 1.328 . S
C114 H120 0.929 . S
C115 C116 1.367 . S
C115 C118 1.392 . S
C115 H130 0.910 1_565 S
C116 C115 1.367 . S
C116 C117 1.366 . S
C117 C114 1.365 . S
C117 C116 1.366 . S
C117 H131 0.930 . S
C118 C115 1.392 . S
C118 N119 1.315 . S
C118 H121 0.930 . S
N119 Co99 2.194 . S
N119 C114 1.328 . S
N119 C118 1.315 . S
H120 C114 0.929 . S
H121 C118 0.930 . S
H122 C110 0.929 . S
H123 C112 0.929 . S
O124 Co99 2.351 . S
O124 C127 1.244 . S
O125 Co99 2.155 . S
O125 C127 1.240 . S
O126 Co99 2.096 . S
O126 C107 1.247 . S
C127 O124 1.244 . S
C127 O125 1.240 . S
H128 C102 0.931 . S
H129 C111 0.931 . S
H130 C115 0.910 1_545 S
H131 C117 0.930 . S
Co132 N136 2.148 . S
Co132 N142 2.128 . S
Co132 N152 2.194 . S
Co132 O157 2.351 . S
Co132 O158 2.155 . S
Co132 O159 2.096 . S
C133 N136 1.301 1_554 S
C133 N137 1.328 . S
C133 H138 0.930 . S
C134 C135 1.333 1_556 S
C134 N136 1.317 . S
C134 H139 0.930 . S
C135 C134 1.333 1_554 S
C135 N137 1.350 . S
C135 H161 0.931 . S
N136 Co132 2.148 . S
N136 C133 1.301 1_556 S
N136 C134 1.317 . S
N137 C133 1.328 . S
N137 C135 1.350 . S
H138 C133 0.930 . S
H139 C134 0.930 . S
C140 O141 1.224 . S
C140 O159 1.247 . S
O141 C140 1.224 . S
N142 Co132 2.128 . S
N142 C143 1.355 . S
N142 C145 1.311 . S
C143 N142 1.355 . S
C143 C144 1.363 . S
C143 H155 0.929 . S
C144 C143 1.363 . S
C144 N146 1.375 . S
C144 H162 0.931 . S
C145 N142 1.311 . S
C145 N146 1.347 . S
C145 H156 0.929 . S
N146 C144 1.375 . S
N146 C145 1.347 . S
C147 C150 1.365 . S
C147 N152 1.328 . S
C147 H153 0.929 . S
C148 C149 1.367 . S
C148 C151 1.392 . S
C148 H163 0.910 1_455 S
C149 C148 1.367 . S
C149 C150 1.366 . S
C150 C147 1.365 . S
C150 C149 1.366 . S
C150 H164 0.930 . S
C151 C148 1.392 . S
C151 N152 1.315 . S
C151 H154 0.930 . S
N152 Co132 2.194 . S
N152 C147 1.328 . S
N152 C151 1.315 . S
H153 C147 0.929 . S
H154 C151 0.930 . S
H155 C143 0.929 . S
H156 C145 0.929 . S
O157 Co132 2.351 . S
O157 C160 1.244 . S
O158 Co132 2.155 . S
O158 C160 1.240 . S
O159 Co132 2.096 . S
O159 C140 1.247 . S
C160 O157 1.244 . S
C160 O158 1.240 . S
H161 C135 0.931 . S
H162 C144 0.931 . S
H163 C148 0.910 1_655 S
H164 C150 0.930 . S
Co165 N169 2.148 . S
Co165 N175 2.128 . S
Co165 N185 2.194 . S
Co165 O190 2.351 . S
Co165 O191 2.155 . S
Co165 O192 2.096 . S
C166 N169 1.301 . S
C166 N170 1.328 . S
C166 H171 0.930 . S
C167 C168 1.333 . S
C167 N169 1.317 . S
C167 H172 0.930 . S
C168 C167 1.333 . S
C168 N170 1.350 . S
C168 H194 0.931 . S
N169 Co165 2.148 . S
N169 C166 1.301 . S
N169 C167 1.317 . S
N170 C166 1.328 . S
N170 C168 1.350 . S
H171 C166 0.930 . S
H172 C167 0.930 . S
C173 O174 1.224 . S
C173 O192 1.247 . S
O174 C173 1.224 . S
N175 Co165 2.128 . S
N175 C176 1.355 . S
N175 C178 1.311 . S
C176 N175 1.355 . S
C176 C177 1.363 . S
C176 H188 0.929 . S
C177 C176 1.363 . S
C177 N179 1.373 1_554 S
C177 H195 0.938 . S
C178 N175 1.311 . S
C178 N179 1.342 1_554 S
C178 H189 0.929 . S
N179 C177 1.373 1_556 S
N179 C178 1.342 1_556 S
C180 C183 1.365 . S
C180 N185 1.328 . S
C180 H186 0.929 . S
C181 C182 1.362 . S
C181 C184 1.378 . S
C181 H196 0.929 . S
C182 C181 1.362 . S
C182 C183 1.366 . S
C183 C180 1.365 . S
C183 C182 1.366 . S
C183 H197 0.930 . S
C184 C181 1.378 . S
C184 N185 1.315 . S
C184 H187 0.930 . S
N185 Co165 2.194 . S
N185 C180 1.328 . S
N185 C184 1.315 . S
H186 C180 0.929 . S
H187 C184 0.930 . S
H188 C176 0.929 . S
H189 C178 0.929 . S
O190 Co165 2.351 . S
O190 C193 1.244 . S
O191 Co165 2.155 . S
O191 C193 1.240 . S
O192 Co165 2.096 . S
O192 C173 1.247 . S
C193 O190 1.244 . S
C193 O191 1.240 . S
H194 C168 0.931 . S
H195 C177 0.938 . S
H196 C181 0.929 . S
H197 C183 0.930 . S
Co198 N202 2.148 . S
Co198 N208 2.128 . S
Co198 N218 2.194 . S
Co198 O223 2.351 . S
Co198 O224 2.155 . S
Co198 O225 2.096 . S
C199 N202 1.301 . S
C199 N203 1.328 . S
C199 H204 0.930 . S
C200 C201 1.333 . S
C200 N202 1.317 . S
C200 H205 0.930 . S
C201 C200 1.333 . S
C201 N203 1.350 . S
C201 H227 0.931 . S
N202 Co198 2.148 . S
N202 C199 1.301 . S
N202 C200 1.317 . S
N203 C199 1.328 . S
N203 C201 1.350 . S
H204 C199 0.930 . S
H205 C200 0.930 . S
C206 O207 1.224 . S
C206 O225 1.247 . S
O207 C206 1.224 . S
N208 Co198 2.128 . S
N208 C209 1.355 . S
N208 C211 1.311 . S
C209 N208 1.355 . S
C209 C210 1.363 . S
C209 H221 0.929 . S
C210 C209 1.363 . S
C210 N212 1.375 . S
C210 H228 0.931 . S
C211 N208 1.311 . S
C211 N212 1.347 . S
C211 H222 0.929 . S
N212 C210 1.375 . S
N212 C211 1.347 . S
C213 C216 1.365 . S
C213 N218 1.328 . S
C213 H219 0.929 . S
C214 C215 1.362 . S
C214 C217 1.378 . S
C214 H229 0.929 . S
C215 C214 1.362 . S
C215 C216 1.366 . S
C216 C213 1.365 . S
C216 C215 1.366 . S
C216 H230 0.930 1_545 S
C217 C214 1.378 . S
C217 N218 1.315 . S
C217 H220 0.930 . S
N218 Co198 2.194 . S
N218 C213 1.328 . S
N218 C217 1.315 . S
H219 C213 0.929 . S
H220 C217 0.930 . S
H221 C209 0.929 . S
H222 C211 0.929 . S
O223 Co198 2.351 . S
O223 C226 1.244 . S
O224 Co198 2.155 . S
O224 C226 1.240 . S
O225 Co198 2.096 . S
O225 C206 1.247 . S
C226 O223 1.244 . S
C226 O224 1.240 . S
H227 C201 0.931 . S
H228 C210 0.931 . S
H229 C214 0.929 . S
H230 C216 0.930 1_565 S
Co231 N235 2.148 . S
Co231 N241 2.128 . S
Co231 N251 2.194 . S
Co231 O256 2.351 . S
Co231 O257 2.155 . S
Co231 O258 2.096 . S
C232 N235 1.301 . S
C232 N236 1.328 . S
C232 H237 0.930 . S
C233 C234 1.333 . S
C233 N235 1.317 . S
C233 H238 0.930 . S
C234 C233 1.333 . S
C234 N236 1.350 . S
C234 H260 0.931 . S
N235 Co231 2.148 . S
N235 C232 1.301 . S
N235 C233 1.317 . S
N236 C232 1.328 . S
N236 C234 1.350 . S
H237 C232 0.930 . S
H238 C233 0.930 . S
C239 O240 1.224 . S
C239 O258 1.247 . S
O240 C239 1.224 . S
N241 Co231 2.128 . S
N241 C242 1.355 . S
N241 C244 1.311 . S
C242 N241 1.355 . S
C242 C243 1.363 . S
C242 H254 0.929 . S
C243 C242 1.363 . S
C243 N245 1.375 . S
C243 H261 0.931 . S
C244 N241 1.311 . S
C244 N245 1.347 . S
C244 H255 0.929 . S
N245 C243 1.375 . S
N245 C244 1.347 . S
C246 C249 1.365 . S
C246 N251 1.328 . S
C246 H252 0.929 . S
C247 C248 1.367 . S
C247 C250 1.392 . S
C247 H262 0.910 1_565 S
C248 C247 1.367 . S
C248 C249 1.366 . S
C249 C246 1.365 . S
C249 C248 1.366 . S
C249 H263 0.930 1_655 S
C250 C247 1.392 . S
C250 N251 1.315 . S
C250 H253 0.930 . S
N251 Co231 2.194 . S
N251 C246 1.328 . S
N251 C250 1.315 . S
H252 C246 0.929 . S
H253 C250 0.930 . S
H254 C242 0.929 . S
H255 C244 0.929 . S
O256 Co231 2.351 . S
O256 C259 1.244 . S
O257 Co231 2.155 . S
O257 C259 1.240 . S
O258 Co231 2.096 . S
O258 C239 1.247 . S
C259 O256 1.244 . S
C259 O257 1.240 . S
H260 C234 0.931 . S
H261 C243 0.931 . S
H262 C247 0.910 1_545 S
H263 C249 0.930 1_455 S
Co264 N268 2.148 . S
Co264 N274 2.128 . S
Co264 N284 2.194 . S
Co264 O289 2.351 . S
Co264 O290 2.155 . S
Co264 O291 2.096 . S
C265 N268 1.301 . S
C265 N269 1.328 . S
C265 H270 0.930 . S
C266 C267 1.333 . S
C266 N268 1.317 . S
C266 H271 0.930 . S
C267 C266 1.333 . S
C267 N269 1.350 . S
C267 H293 0.931 . S
N268 Co264 2.148 . S
N268 C265 1.301 . S
N268 C266 1.317 . S
N269 C265 1.328 . S
N269 C267 1.350 . S
H270 C265 0.930 . S
H271 C266 0.930 . S
C272 O273 1.224 . S
C272 O291 1.247 . S
O273 C272 1.224 . S
N274 Co264 2.128 . S
N274 C275 1.355 . S
N274 C277 1.311 . S
C275 N274 1.355 . S
C275 C276 1.363 . S
C275 H287 0.929 . S
C276 C275 1.363 . S
C276 N278 1.373 1_556 S
C276 H294 0.938 . S
C277 N274 1.311 . S
C277 N278 1.342 1_556 S
C277 H288 0.929 . S
N278 C276 1.373 1_554 S
N278 C277 1.342 1_554 S
C279 C282 1.365 . S
C279 N284 1.328 . S
C279 H285 0.929 . S
C280 C281 1.362 . S
C280 C283 1.378 . S
C280 H295 0.929 . S
C281 C280 1.362 . S
C281 C282 1.366 . S
C282 C279 1.365 . S
C282 C281 1.366 . S
C282 H296 0.930 . S
C283 C280 1.378 . S
C283 N284 1.315 . S
C283 H286 0.930 . S
N284 Co264 2.194 . S
N284 C279 1.328 . S
N284 C283 1.315 . S
H285 C279 0.929 . S
H286 C283 0.930 . S
H287 C275 0.929 . S
H288 C277 0.929 . S
O289 Co264 2.351 . S
O289 C292 1.244 . S
O290 Co264 2.155 . S
O290 C292 1.240 . S
O291 Co264 2.096 . S
O291 C272 1.247 . S
C292 O289 1.244 . S
C292 O290 1.240 . S
H293 C267 0.931 . S
H294 C276 0.938 . S
H295 C280 0.929 . S
H296 C282 0.930 . S
Co297 N301 2.148 . S
Co297 N307 2.128 . S
Co297 N317 2.194 . S
Co297 O322 2.351 . S
Co297 O323 2.155 . S
Co297 O324 2.096 . S
C298 N301 1.301 1_556 S
C298 N302 1.328 . S
C298 H303 0.930 . S
C299 C300 1.333 1_554 S
C299 N301 1.317 . S
C299 H304 0.930 . S
C300 C299 1.333 1_556 S
C300 N302 1.350 . S
C300 H326 0.931 . S
N301 Co297 2.148 . S
N301 C298 1.301 1_554 S
N301 C299 1.317 . S
N302 C298 1.328 . S
N302 C300 1.350 . S
H303 C298 0.930 . S
H304 C299 0.930 . S
C305 O306 1.224 . S
C305 O324 1.247 . S
O306 C305 1.224 . S
N307 Co297 2.128 . S
N307 C308 1.355 . S
N307 C310 1.311 . S
C308 N307 1.355 . S
C308 C309 1.363 . S
C308 H320 0.929 . S
C309 C308 1.363 . S
C309 N311 1.375 . S
C309 H327 0.931 . S
C310 N307 1.311 . S
C310 N311 1.347 . S
C310 H321 0.929 . S
N311 C309 1.375 . S
N311 C310 1.347 . S
C312 C315 1.365 . S
C312 N317 1.328 . S
C312 H318 0.929 . S
C313 C314 1.367 . S
C313 C316 1.392 . S
C313 H328 0.910 1_545 S
C314 C313 1.367 . S
C314 C315 1.366 . S
C315 C312 1.365 . S
C315 C314 1.366 . S
C315 H329 0.930 . S
C316 C313 1.392 . S
C316 N317 1.315 . S
C316 H319 0.930 . S
N317 Co297 2.194 . S
N317 C312 1.328 . S
N317 C316 1.315 . S
H318 C312 0.929 . S
H319 C316 0.930 . S
H320 C308 0.929 . S
H321 C310 0.929 . S
O322 Co297 2.351 . S
O322 C325 1.244 . S
O323 Co297 2.155 . S
O323 C325 1.240 . S
O324 Co297 2.096 . S
O324 C305 1.247 . S
C325 O322 1.244 . S
C325 O323 1.240 . S
H326 C300 0.931 . S
H327 C309 0.931 . S
H328 C313 0.910 1_565 S
H329 C315 0.930 . S
Co330 N334 2.148 . S
Co330 N340 2.128 . S
Co330 N350 2.194 . S
Co330 O355 2.351 . S
Co330 O356 2.155 . S
Co330 O357 2.096 . S
C331 N334 1.301 . S
C331 N335 1.328 . S
C331 H336 0.930 . S
C332 C333 1.333 . S
C332 N334 1.317 . S
C332 H337 0.930 . S
C333 C332 1.333 . S
C333 N335 1.350 . S
C333 H359 0.931 . S
N334 Co330 2.148 . S
N334 C331 1.301 . S
N334 C332 1.317 . S
N335 C331 1.328 . S
N335 C333 1.350 . S
H336 C331 0.930 . S
H337 C332 0.930 . S
C338 O339 1.224 . S
C338 O357 1.247 . S
O339 C338 1.224 . S
N340 Co330 2.128 . S
N340 C341 1.355 . S
N340 C343 1.311 . S
C341 N340 1.355 . S
C341 C342 1.363 . S
C341 H353 0.929 . S
C342 C341 1.363 . S
C342 N344 1.375 . S
C342 H360 0.931 . S
C343 N340 1.311 . S
C343 N344 1.347 . S
C343 H354 0.929 . S
N344 C342 1.375 . S
N344 C343 1.347 . S
C345 C348 1.365 . S
C345 N350 1.328 . S
C345 H351 0.929 . S
C346 C347 1.367 . S
C346 C349 1.392 . S
C346 H361 0.910 1_655 S
C347 C346 1.367 . S
C347 C348 1.366 . S
C348 C345 1.365 . S
C348 C347 1.366 . S
C348 H362 0.930 1_565 S
C349 C346 1.392 . S
C349 N350 1.315 . S
C349 H352 0.930 . S
N350 Co330 2.194 . S
N350 C345 1.328 . S
N350 C349 1.315 . S
H351 C345 0.929 . S
H352 C349 0.930 . S
H353 C341 0.929 . S
H354 C343 0.929 . S
O355 Co330 2.351 . S
O355 C358 1.244 . S
O356 Co330 2.155 . S
O356 C358 1.240 . S
O357 Co330 2.096 . S
O357 C338 1.247 . S
C358 O355 1.244 . S
C358 O356 1.240 . S
H359 C333 0.931 . S
H360 C342 0.931 . S
H361 C346 0.910 1_455 S
H362 C348 0.930 1_545 S
Co363 N367 2.148 . S
Co363 N373 2.128 . S
Co363 N383 2.194 . S
Co363 O388 2.351 . S
Co363 O389 2.155 . S
Co363 O390 2.096 . S
C364 N367 1.301 . S
C364 N368 1.328 . S
C364 H369 0.930 . S
C365 C366 1.333 . S
C365 N367 1.317 . S
C365 H370 0.930 . S
C366 C365 1.333 . S
C366 N368 1.350 . S
C366 H392 0.931 . S
N367 Co363 2.148 . S
N367 C364 1.301 . S
N367 C365 1.317 . S
N368 C364 1.328 . S
N368 C366 1.350 . S
H369 C364 0.930 . S
H370 C365 0.930 . S
C371 O372 1.224 . S
C371 O390 1.247 . S
O372 C371 1.224 . S
N373 Co363 2.128 . S
N373 C374 1.355 . S
N373 C376 1.311 . S
C374 N373 1.355 . S
C374 C375 1.363 . S
C374 H386 0.929 . S
C375 C374 1.363 . S
C375 N377 1.375 . S
C375 H393 0.931 . S
C376 N373 1.311 . S
C376 N377 1.347 . S
C376 H387 0.929 . S
N377 C375 1.375 . S
N377 C376 1.347 . S
C378 C381 1.365 . S
C378 N383 1.328 . S
C378 H384 0.929 . S
C379 C380 1.362 . S
C379 C382 1.378 . S
C379 H394 0.929 . S
C380 C379 1.362 . S
C380 C381 1.366 . S
C381 C378 1.365 . S
C381 C380 1.366 . S
C381 H395 0.930 1_455 S
C382 C379 1.378 . S
C382 N383 1.315 . S
C382 H385 0.930 . S
N383 Co363 2.194 . S
N383 C378 1.328 . S
N383 C382 1.315 . S
H384 C378 0.929 . S
H385 C382 0.930 . S
H386 C374 0.929 . S
H387 C376 0.929 . S
O388 Co363 2.351 . S
O388 C391 1.244 . S
O389 Co363 2.155 . S
O389 C391 1.240 . S
O390 Co363 2.096 . S
O390 C371 1.247 . S
C391 O388 1.244 . S
C391 O389 1.240 . S
H392 C366 0.931 . S
H393 C375 0.931 . S
H394 C379 0.929 . S
H395 C381 0.930 1_655 S
Co396 N400 2.148 . S
Co396 N406 2.128 . S
Co396 N416 2.194 . S
Co396 O421 2.351 . S
Co396 O422 2.155 . S
Co396 O423 2.096 . S
C397 N400 1.301 . S
C397 N401 1.328 . S
C397 H402 0.930 . S
C398 C399 1.333 . S
C398 N400 1.317 . S
C398 H403 0.930 . S
C399 C398 1.333 . S
C399 N401 1.350 . S
C399 H425 0.931 . S
N400 Co396 2.148 . S
N400 C397 1.301 . S
N400 C398 1.317 . S
N401 C397 1.328 . S
N401 C399 1.350 . S
H402 C397 0.930 . S
H403 C398 0.930 . S
C404 O405 1.224 . S
C404 O423 1.247 . S
O405 C404 1.224 . S
N406 Co396 2.128 . S
N406 C407 1.355 . S
N406 C409 1.311 . S
C407 N406 1.355 . S
C407 C408 1.363 . S
C407 H419 0.929 . S
C408 C407 1.363 . S
C408 N410 1.375 . S
C408 H426 0.931 . S
C409 N406 1.311 . S
C409 N410 1.347 . S
C409 H420 0.929 . S
N410 C408 1.375 . S
N410 C409 1.347 . S
C411 C414 1.365 . S
C411 N416 1.328 . S
C411 H417 0.929 . S
C412 C413 1.362 . S
C412 C415 1.378 . S
C412 H427 0.929 . S
C413 C412 1.362 . S
C413 C414 1.366 . S
C414 C411 1.365 . S
C414 C413 1.366 . S
C414 H428 0.930 1_565 S
C415 C412 1.378 . S
C415 N416 1.315 . S
C415 H418 0.930 . S
N416 Co396 2.194 . S
N416 C411 1.328 . S
N416 C415 1.315 . S
H417 C411 0.929 . S
H418 C415 0.930 . S
H419 C407 0.929 . S
H420 C409 0.929 . S
O421 Co396 2.351 . S
O421 C424 1.244 . S
O422 Co396 2.155 . S
O422 C424 1.240 . S
O423 Co396 2.096 . S
O423 C404 1.247 . S
C424 O421 1.244 . S
C424 O422 1.240 . S
H425 C399 0.931 . S
H426 C408 0.931 . S
H427 C412 0.929 . S
H428 C414 0.930 1_545 S
Co429 N433 2.148 . S
Co429 N439 2.128 . S
Co429 N449 2.194 . S
Co429 O454 2.351 . S
Co429 O455 2.155 . S
Co429 O456 2.096 . S
C430 N433 1.301 . S
C430 N434 1.328 . S
C430 H435 0.930 . S
C431 C432 1.333 . S
C431 N433 1.317 . S
C431 H436 0.930 . S
C432 C431 1.333 . S
C432 N434 1.350 . S
C432 H458 0.931 . S
N433 Co429 2.148 . S
N433 C430 1.301 . S
N433 C431 1.317 . S
N434 C430 1.328 . S
N434 C432 1.350 . S
H435 C430 0.930 . S
H436 C431 0.930 . S
C437 O438 1.224 . S
C437 O456 1.247 . S
O438 C437 1.224 . S
N439 Co429 2.128 . S
N439 C440 1.355 . S
N439 C442 1.311 . S
C440 N439 1.355 . S
C440 C441 1.363 . S
C440 H452 0.929 . S
C441 C440 1.363 . S
C441 N443 1.375 . S
C441 H459 0.931 . S
C442 N439 1.311 . S
C442 N443 1.347 . S
C442 H453 0.929 . S
N443 C441 1.375 . S
N443 C442 1.347 . S
C444 C447 1.365 . S
C444 N449 1.328 . S
C444 H450 0.929 . S
C445 C446 1.367 . S
C445 C448 1.392 . S
C445 H460 0.910 1_545 S
C446 C445 1.367 . S
C446 C447 1.366 . S
C447 C444 1.365 . S
C447 C446 1.366 . S
C447 H461 0.930 1_455 S
C448 C445 1.392 . S
C448 N449 1.315 . S
C448 H451 0.930 . S
N449 Co429 2.194 . S
N449 C444 1.328 . S
N449 C448 1.315 . S
H450 C444 0.929 . S
H451 C448 0.930 . S
H452 C440 0.929 . S
H453 C442 0.929 . S
O454 Co429 2.351 . S
O454 C457 1.244 . S
O455 Co429 2.155 . S
O455 C457 1.240 . S
O456 Co429 2.096 . S
O456 C437 1.247 . S
C457 O454 1.244 . S
C457 O455 1.240 . S
H458 C432 0.931 . S
H459 C441 0.931 . S
H460 C445 0.910 1_565 S
H461 C447 0.930 1_655 S
Co462 N466 2.148 . S
Co462 N472 2.128 . S
Co462 N482 2.194 . S
Co462 O487 2.351 . S
Co462 O488 2.155 . S
Co462 O489 2.096 . S
C463 N466 1.301 1_554 S
C463 N467 1.328 . S
C463 H468 0.930 . S
C464 C465 1.333 1_556 S
C464 N466 1.317 . S
C464 H469 0.930 . S
C465 C464 1.333 1_554 S
C465 N467 1.350 . S
C465 H491 0.931 . S
N466 Co462 2.148 . S
N466 C463 1.301 1_556 S
N466 C464 1.317 . S
N467 C463 1.328 . S
N467 C465 1.350 . S
H468 C463 0.930 . S
H469 C464 0.930 . S
C470 O471 1.224 . S
C470 O489 1.247 . S
O471 C470 1.224 . S
N472 Co462 2.128 . S
N472 C473 1.355 . S
N472 C475 1.311 . S
C473 N472 1.355 . S
C473 C474 1.363 . S
C473 H485 0.929 . S
C474 C473 1.363 . S
C474 N476 1.375 . S
C474 H492 0.931 . S
C475 N472 1.311 . S
C475 N476 1.347 . S
C475 H486 0.929 . S
N476 C474 1.375 . S
N476 C475 1.347 . S
C477 C480 1.365 . S
C477 N482 1.328 . S
C477 H483 0.929 . S
C478 C479 1.367 . S
C478 C481 1.392 . S
C478 H493 0.910 1_655 S
C479 C478 1.367 . S
C479 C480 1.366 . S
C480 C477 1.365 . S
C480 C479 1.366 . S
C480 H494 0.930 . S
C481 C478 1.392 . S
C481 N482 1.315 . S
C481 H484 0.930 . S
N482 Co462 2.194 . S
N482 C477 1.328 . S
N482 C481 1.315 . S
H483 C477 0.929 . S
H484 C481 0.930 . S
H485 C473 0.929 . S
H486 C475 0.929 . S
O487 Co462 2.351 . S
O487 C490 1.244 . S
O488 Co462 2.155 . S
O488 C490 1.240 . S
O489 Co462 2.096 . S
O489 C470 1.247 . S
C490 O487 1.244 . S
C490 O488 1.240 . S
H491 C465 0.931 . S
H492 C474 0.931 . S
H493 C478 0.910 1_455 S
H494 C480 0.930 . S
Co495 N499 2.148 . S
Co495 N505 2.128 . S
Co495 N515 2.194 . S
Co495 O520 2.351 . S
Co495 O521 2.155 . S
Co495 O522 2.096 . S
C496 N499 1.301 . S
C496 N500 1.328 . S
C496 H501 0.930 . S
C497 C498 1.333 . S
C497 N499 1.317 . S
C497 H502 0.930 . S
C498 C497 1.333 . S
C498 N500 1.350 . S
C498 H524 0.931 . S
N499 Co495 2.148 . S
N499 C496 1.301 . S
N499 C497 1.317 . S
N500 C496 1.328 . S
N500 C498 1.350 . S
H501 C496 0.930 . S
H502 C497 0.930 . S
C503 O504 1.224 . S
C503 O522 1.247 . S
O504 C503 1.224 . S
N505 Co495 2.128 . S
N505 C506 1.355 . S
N505 C508 1.311 . S
C506 N505 1.355 . S
C506 C507 1.363 . S
C506 H518 0.929 . S
C507 C506 1.363 . S
C507 N509 1.373 1_554 S
C507 H525 0.938 . S
C508 N505 1.311 . S
C508 N509 1.342 1_554 S
C508 H519 0.929 . S
N509 C507 1.373 1_556 S
N509 C508 1.342 1_556 S
C510 C513 1.365 . S
C510 N515 1.328 . S
C510 H516 0.929 . S
C511 C512 1.362 . S
C511 C514 1.378 . S
C511 H526 0.929 . S
C512 C511 1.362 . S
C512 C513 1.366 . S
C513 C510 1.365 . S
C513 C512 1.366 . S
C513 H527 0.930 . S
C514 C511 1.378 . S
C514 N515 1.315 . S
C514 H517 0.930 . S
N515 Co495 2.194 . S
N515 C510 1.328 . S
N515 C514 1.315 . S
H516 C510 0.929 . S
H517 C514 0.930 . S
H518 C506 0.929 . S
H519 C508 0.929 . S
O520 Co495 2.351 . S
O520 C523 1.244 . S
O521 Co495 2.155 . S
O521 C523 1.240 . S
O522 Co495 2.096 . S
O522 C503 1.247 . S
C523 O520 1.244 . S
C523 O521 1.240 . S
H524 C498 0.931 . S
H525 C507 0.938 . S
H526 C511 0.929 . S
H527 C513 0.930 . S
N14 N443 0.404 . S
N476 N47 0.403 . S
N509 N80 0.403 1_556 S
N410 N113 0.403 . S
N377 N146 0.403 . S
N278 N179 0.403 1_554 S
N212 N311 0.403 . S
N344 N245 0.404 . S
C305 N5 3.588 . S
N38 C338 3.588 . S
N71 C371 3.588 . S
N104 C272 3.588 . S
N137 C503 3.588 . S
C404 N170 3.588 . S
C437 N203 3.588 . S
C470 N236 3.588 . S
N269 C41 3.588 . S
N302 C74 3.588 . S
N335 C107 3.588 . S
C8 N368 3.588 . S
N401 C239 3.588 . S
C140 N434 3.588 . S
N467 C173 3.588 . S
N500 C206 3.588 . S
C17 C347 1.730 1_445 S
C380 C50 1.730 1_455 S
C83 C281 1.731 . S
C314 C116 1.731 1_545 S
C149 C479 1.731 1_455 S
C512 C182 1.731 . S
C413 C215 1.730 1_565 S
C446 C248 1.730 1_445 S
C226 C28 1.879 . S
C61 C259 1.879 . S
C160 C94 1.879 . S
C127 C193 1.879 . S
C292 C490 1.879 . S
C325 C523 1.879 . S
C358 C424 1.879 . S
C457 C391 1.879 . S
