# Generated by pormake.
# Topology umc, (4)-cn, num edge types: 1
# Building blocks:
#     Node 0, Type 0, BuildingBlock: KOZSID_clean_sbu_0, # of connection points: 4
#     Node 1, Type 0, BuildingBlock: KOZSID_clean_sbu_0, # of connection points: 4
#     Node 2, Type 0, BuildingBlock: KOZSID_clean_sbu_0, # of connection points: 4
#     Node 3, Type 0, BuildingBlock: KOZSID_clean_sbu_0, # of connection points: 4
#     Node 4, Type 0, BuildingBlock: KOZSID_clean_sbu_0, # of connection points: 4
#     Node 5, Type 0, BuildingBlock: KOZSID_clean_sbu_0, # of connection points: 4
#     Node 6, Type 0, BuildingBlock: KOZSID_clean_sbu_0, # of connection points: 4
#     Node 7, Type 0, BuildingBlock: KOZSID_clean_sbu_0, # of connection points: 4
#     Node 8, Type 0, BuildingBlock: KOZSID_clean_sbu_0, # of connection points: 4
#     Node 9, Type 0, BuildingBlock: KOZSID_clean_sbu_0, # of connection points: 4
#     Node 10, Type 0, BuildingBlock: KOZSID_clean_sbu_0, # of connection points: 4
#     Node 11, Type 0, BuildingBlock: KOZSID_clean_sbu_0, # of connection points: 4
#     Node 12, Type 0, BuildingBlock: KOZSID_clean_sbu_0, # of connection points: 4
#     Node 13, Type 0, BuildingBlock: KOZSID_clean_sbu_0, # of connection points: 4
#     Node 14, Type 0, BuildingBlock: KOZSID_clean_sbu_0, # of connection points: 4
#     Node 15, Type 0, BuildingBlock: KOZSID_clean_sbu_0, # of connection points: 4
#     Edge 16, Type (0, 0), BuildingBlock: OJICUG_clean_linker_0, # of connection points: 2
#     Edge 17, Type (0, 0), BuildingBlock: OJICUG_clean_linker_0, # of connection points: 2
#     Edge 18, Type (0, 0), BuildingBlock: OJICUG_clean_linker_0, # of connection points: 2
#     Edge 19, Type (0, 0), BuildingBlock: OJICUG_clean_linker_0, # of connection points: 2
#     Edge 20, Type (0, 0), BuildingBlock: OJICUG_clean_linker_0, # of connection points: 2
#     Edge 21, Type (0, 0), BuildingBlock: OJICUG_clean_linker_0, # of connection points: 2
#     Edge 22, Type (0, 0), BuildingBlock: OJICUG_clean_linker_0, # of connection points: 2
#     Edge 23, Type (0, 0), BuildingBlock: OJICUG_clean_linker_0, # of connection points: 2
#     Edge 24, Type (0, 0), BuildingBlock: OJICUG_clean_linker_0, # of connection points: 2
#     Edge 25, Type (0, 0), BuildingBlock: OJICUG_clean_linker_0, # of connection points: 2
#     Edge 26, Type (0, 0), BuildingBlock: OJICUG_clean_linker_0, # of connection points: 2
#     Edge 27, Type (0, 0), BuildingBlock: OJICUG_clean_linker_0, # of connection points: 2
#     Edge 28, Type (0, 0), BuildingBlock: OJICUG_clean_linker_0, # of connection points: 2
#     Edge 29, Type (0, 0), BuildingBlock: OJICUG_clean_linker_0, # of connection points: 2
#     Edge 30, Type (0, 0), BuildingBlock: OJICUG_clean_linker_0, # of connection points: 2
#     Edge 31, Type (0, 0), BuildingBlock: OJICUG_clean_linker_0, # of connection points: 2
#     Edge 32, Type (0, 0), BuildingBlock: OJICUG_clean_linker_0, # of connection points: 2
#     Edge 33, Type (0, 0), BuildingBlock: OJICUG_clean_linker_0, # of connection points: 2
#     Edge 34, Type (0, 0), BuildingBlock: OJICUG_clean_linker_0, # of connection points: 2
#     Edge 35, Type (0, 0), BuildingBlock: OJICUG_clean_linker_0, # of connection points: 2
#     Edge 36, Type (0, 0), BuildingBlock: OJICUG_clean_linker_0, # of connection points: 2
#     Edge 37, Type (0, 0), BuildingBlock: OJICUG_clean_linker_0, # of connection points: 2
#     Edge 38, Type (0, 0), BuildingBlock: OJICUG_clean_linker_0, # of connection points: 2
#     Edge 39, Type (0, 0), BuildingBlock: OJICUG_clean_linker_0, # of connection points: 2
#     Edge 40, Type (0, 0), BuildingBlock: OJICUG_clean_linker_0, # of connection points: 2
#     Edge 41, Type (0, 0), BuildingBlock: OJICUG_clean_linker_0, # of connection points: 2
#     Edge 42, Type (0, 0), BuildingBlock: OJICUG_clean_linker_0, # of connection points: 2
#     Edge 43, Type (0, 0), BuildingBlock: OJICUG_clean_linker_0, # of connection points: 2
#     Edge 44, Type (0, 0), BuildingBlock: OJICUG_clean_linker_0, # of connection points: 2
#     Edge 45, Type (0, 0), BuildingBlock: OJICUG_clean_linker_0, # of connection points: 2
#     Edge 46, Type (0, 0), BuildingBlock: OJICUG_clean_linker_0, # of connection points: 2
#     Edge 47, Type (0, 0), BuildingBlock: OJICUG_clean_linker_0, # of connection points: 2
# Relax obj value: 0.054
# Max RMSD: 0.171
# Mean RMSD: 0.171
data_MOF--net-umc--node1-KOZSID_clean_sbu_0--edge1-OJICUG_clean_linker_0
_symmetry_space_group_name_H-M    P1
_symmetry_Int_Tables_number       1
_symmetry_cell_setting            triclinic
loop_
_symmetry_equiv_pos_as_xyz
'x, y, z'
_cell_length_a     53.093716
_cell_length_b     30.579662
_cell_length_c     47.160596
_cell_angle_alpha  89.998696
_cell_angle_beta   89.999717
_cell_angle_gamma 89.999678
loop_
_atom_site_label
_atom_site_type_symbol
_atom_site_fract_x
_atom_site_fract_y
_atom_site_fract_z
_atom_type_partial_charge
C0 C 0.37609 0.02949 0.33261 0.0
C1 C 0.36317 0.99004 0.33069 0.0
C2 C 0.35173 0.98341 0.3563 0.0
C3 C 0.35857 0.0185 0.37264 0.0
N4 N 0.37372 0.04684 0.35899 0.0
Co5 Co 0.38973 0.09949 0.37597 0.0
N6 N 0.38396 0.0779 0.41511 0.0
C7 C 0.36784 0.04587 0.42257 0.0
C8 C 0.36905 0.03542 0.45076 0.0
C9 C 0.3868 0.06292 0.46178 0.0
C10 C 0.3952 0.08939 0.43982 0.0
N11 N 0.40581 0.15192 0.39311 0.0
C12 C 0.41376 0.15934 0.42018 0.0
C13 C 0.4229 0.20162 0.42291 0.0
C14 C 0.42027 0.22126 0.39682 0.0
C15 C 0.40971 0.19003 0.37954 0.0
N16 N 0.39526 0.12027 0.33656 0.0
C17 C 0.40008 0.16188 0.32911 0.0
C18 C 0.40333 0.16657 0.30033 0.0
C19 C 0.40026 0.12535 0.28911 0.0
C20 C 0.39539 0.09756 0.31169 0.0
N21 N 0.35687 0.1305 0.37689 0.0
C22 C 0.3148 0.18843 0.37604 0.0
C23 C 0.3202 0.16038 0.35301 0.0
C24 C 0.34123 0.13201 0.3538 0.0
C25 C 0.33072 0.18485 0.39981 0.0
C26 C 0.35099 0.15554 0.40001 0.0
N27 N 0.42293 0.07075 0.37517 0.0
C28 C 0.46721 0.07584 0.36402 0.0
C29 C 0.47181 0.03527 0.37654 0.0
C30 C 0.45136 0.01235 0.38819 0.0
C31 C 0.42697 0.0304 0.38693 0.0
C32 C 0.4429 0.09311 0.36388 0.0
H33 H 0.41148 0.01208 0.39575 0.0
H34 H 0.44046 0.12516 0.35492 0.0
H35 H 0.34524 0.11215 0.3354 0.0
H36 H 0.36261 0.15475 0.4187 0.0
C37 C 0.35595 0.02054 0.40199 0.0
C38 C 0.38918 0.05058 0.30866 0.0
C39 C 0.41124 0.1282 0.44404 0.0
C40 C 0.40604 0.19309 0.35002 0.0
H41 H 0.3623 0.96776 0.31293 0.0
H42 H 0.34107 0.95493 0.36278 0.0
H43 H 0.35932 0.00928 0.46169 0.0
H44 H 0.3931 0.06284 0.48343 0.0
H45 H 0.43041 0.21679 0.44184 0.0
H46 H 0.42592 0.25407 0.39103 0.0
H47 H 0.40841 0.19601 0.28895 0.0
H48 H 0.40144 0.11672 0.26689 0.0
H49 H 0.30849 0.16032 0.33426 0.0
H50 H 0.32838 0.20555 0.41818 0.0
H51 H 0.48249 0.09467 0.35491 0.0
H52 H 0.45417 0.98062 0.3979 0.0
C53 C 0.67078 0.97819 0.3326 0.0
C54 C 0.6837 0.01764 0.33069 0.0
C55 C 0.69515 0.02425 0.35629 0.0
C56 C 0.6883 0.98916 0.37263 0.0
N57 N 0.67315 0.96083 0.35898 0.0
Co58 Co 0.65714 0.90818 0.37595 0.0
N59 N 0.66291 0.92976 0.41509 0.0
C60 C 0.67903 0.96177 0.42256 0.0
C61 C 0.67783 0.9722 0.45075 0.0
C62 C 0.66008 0.94471 0.46177 0.0
C63 C 0.65167 0.91826 0.4398 0.0
N64 N 0.64106 0.85574 0.39308 0.0
C65 C 0.6331 0.84832 0.42015 0.0
C66 C 0.62396 0.80604 0.42288 0.0
C67 C 0.62659 0.78641 0.39679 0.0
C68 C 0.63716 0.81764 0.37952 0.0
N69 N 0.65161 0.8874 0.33654 0.0
C70 C 0.64679 0.84579 0.32909 0.0
C71 C 0.64354 0.84111 0.30031 0.0
C72 C 0.64662 0.88234 0.28909 0.0
C73 C 0.65148 0.91013 0.31167 0.0
N74 N 0.69 0.87717 0.37687 0.0
C75 C 0.73207 0.81923 0.37602 0.0
C76 C 0.72667 0.84729 0.35299 0.0
C77 C 0.70564 0.87566 0.35379 0.0
C78 C 0.71614 0.82281 0.39979 0.0
C79 C 0.69587 0.85212 0.39999 0.0
N80 N 0.62394 0.93692 0.37515 0.0
C81 C 0.57966 0.93183 0.364 0.0
C82 C 0.57506 0.9724 0.37652 0.0
C83 C 0.59551 0.99531 0.38819 0.0
C84 C 0.6199 0.97726 0.38692 0.0
C85 C 0.60397 0.91456 0.36385 0.0
H86 H 0.63539 0.99558 0.39575 0.0
H87 H 0.60641 0.88252 0.3549 0.0
H88 H 0.70164 0.89552 0.33538 0.0
H89 H 0.68425 0.8529 0.41868 0.0
C90 C 0.69093 0.98711 0.40198 0.0
C91 C 0.65769 0.9571 0.30865 0.0
C92 C 0.63562 0.87946 0.44402 0.0
C93 C 0.64083 0.81458 0.35 0.0
H94 H 0.68458 0.03992 0.31293 0.0
H95 H 0.7058 0.05273 0.36277 0.0
H96 H 0.68757 0.99833 0.46168 0.0
H97 H 0.65379 0.94477 0.48343 0.0
H98 H 0.61644 0.79088 0.44181 0.0
H99 H 0.62094 0.7536 0.391 0.0
H100 H 0.63847 0.81167 0.28893 0.0
H101 H 0.64544 0.89097 0.26687 0.0
H102 H 0.73838 0.84735 0.33424 0.0
H103 H 0.71848 0.8021 0.41816 0.0
H104 H 0.56438 0.91301 0.35488 0.0
H105 H 0.5927 0.02704 0.3979 0.0
C106 C 0.37609 0.97819 0.17589 0.0
C107 C 0.36317 0.01764 0.1778 0.0
C108 C 0.35173 0.02426 0.15219 0.0
C109 C 0.35858 0.98916 0.13585 0.0
N110 N 0.37372 0.96084 0.14951 0.0
Co111 Co 0.38974 0.90818 0.13254 0.0
N112 N 0.38397 0.92976 0.0934 0.0
C113 C 0.36784 0.96178 0.08593 0.0
C114 C 0.36905 0.97221 0.05773 0.0
C115 C 0.38679 0.94471 0.04672 0.0
C116 C 0.3952 0.91826 0.06868 0.0
N117 N 0.40581 0.85574 0.11541 0.0
C118 C 0.41377 0.84832 0.08834 0.0
C119 C 0.42291 0.80604 0.08562 0.0
C120 C 0.42028 0.78641 0.1117 0.0
C121 C 0.40971 0.81764 0.12897 0.0
N122 N 0.39526 0.88741 0.17195 0.0
C123 C 0.40008 0.84579 0.17941 0.0
C124 C 0.40333 0.84112 0.20818 0.0
C125 C 0.40025 0.88234 0.2194 0.0
C126 C 0.39539 0.91013 0.19682 0.0
N127 N 0.35687 0.87717 0.13162 0.0
C128 C 0.3148 0.81924 0.13247 0.0
C129 C 0.3202 0.84729 0.1555 0.0
C130 C 0.34124 0.87566 0.1547 0.0
C131 C 0.33073 0.82281 0.10871 0.0
C132 C 0.351 0.85212 0.1085 0.0
N133 N 0.42294 0.93692 0.13334 0.0
C134 C 0.46721 0.93183 0.14449 0.0
C135 C 0.47181 0.9724 0.13196 0.0
C136 C 0.45137 0.99531 0.1203 0.0
C137 C 0.42697 0.97726 0.12156 0.0
C138 C 0.4429 0.91456 0.14463 0.0
H139 H 0.41148 0.99558 0.11274 0.0
H140 H 0.44046 0.88252 0.15359 0.0
H141 H 0.34523 0.89553 0.17311 0.0
H142 H 0.36262 0.8529 0.08981 0.0
C143 C 0.35595 0.98712 0.1065 0.0
C144 C 0.38918 0.9571 0.19984 0.0
C145 C 0.41125 0.87945 0.06447 0.0
C146 C 0.40604 0.81458 0.1585 0.0
H147 H 0.3623 0.03992 0.19556 0.0
H148 H 0.34107 0.05274 0.14571 0.0
H149 H 0.35931 0.99834 0.0468 0.0
H150 H 0.39309 0.94478 0.02506 0.0
H151 H 0.43043 0.79087 0.06669 0.0
H152 H 0.42593 0.7536 0.11749 0.0
H153 H 0.4084 0.81168 0.21957 0.0
H154 H 0.40143 0.89098 0.24162 0.0
H155 H 0.30849 0.84736 0.17425 0.0
H156 H 0.32839 0.8021 0.09033 0.0
H157 H 0.48249 0.913 0.15361 0.0
H158 H 0.45417 0.02704 0.11059 0.0
C159 C 0.67078 0.02949 0.17588 0.0
C160 C 0.6837 0.99004 0.17779 0.0
C161 C 0.69515 0.98342 0.15219 0.0
C162 C 0.6883 0.01851 0.13585 0.0
N163 N 0.67315 0.04684 0.1495 0.0
Co164 Co 0.65714 0.09949 0.13252 0.0
N165 N 0.66291 0.07791 0.09338 0.0
C166 C 0.67903 0.04589 0.08592 0.0
C167 C 0.67782 0.03544 0.05772 0.0
C168 C 0.66007 0.06293 0.0467 0.0
C169 C 0.65167 0.0894 0.06867 0.0
N170 N 0.64106 0.15193 0.11538 0.0
C171 C 0.6331 0.15935 0.08831 0.0
C172 C 0.62396 0.20162 0.08558 0.0
C173 C 0.62659 0.22126 0.11167 0.0
C174 C 0.63716 0.19003 0.12894 0.0
N175 N 0.65161 0.12027 0.17193 0.0
C176 C 0.64678 0.16189 0.17938 0.0
C177 C 0.64354 0.16657 0.20815 0.0
C178 C 0.64661 0.12535 0.21938 0.0
C179 C 0.65148 0.09756 0.1968 0.0
N180 N 0.69 0.13051 0.1316 0.0
C181 C 0.73207 0.18844 0.13245 0.0
C182 C 0.72667 0.16039 0.15548 0.0
C183 C 0.70563 0.13202 0.15468 0.0
C184 C 0.71614 0.18486 0.10868 0.0
C185 C 0.69587 0.15555 0.10848 0.0
N186 N 0.62394 0.07075 0.13332 0.0
C187 C 0.57966 0.07584 0.14447 0.0
C188 C 0.57506 0.03527 0.13195 0.0
C189 C 0.59551 0.01235 0.1203 0.0
C190 C 0.6199 0.03041 0.12155 0.0
C191 C 0.60397 0.09311 0.14461 0.0
H192 H 0.63539 0.01208 0.11273 0.0
H193 H 0.60641 0.12516 0.15357 0.0
H194 H 0.70164 0.11215 0.17309 0.0
H195 H 0.68425 0.15477 0.08979 0.0
C196 C 0.69093 0.02055 0.1065 0.0
C197 C 0.65769 0.05058 0.19983 0.0
C198 C 0.63562 0.1282 0.06445 0.0
C199 C 0.64083 0.1931 0.15846 0.0
H200 H 0.68458 0.96777 0.19555 0.0
H201 H 0.7058 0.95494 0.14571 0.0
H202 H 0.68756 0.0093 0.0468 0.0
H203 H 0.65377 0.06285 0.02505 0.0
H204 H 0.61645 0.21679 0.06665 0.0
H205 H 0.62094 0.25407 0.11745 0.0
H206 H 0.63846 0.19601 0.21954 0.0
H207 H 0.64543 0.11672 0.2416 0.0
H208 H 0.73838 0.16032 0.17423 0.0
H209 H 0.71849 0.20557 0.09031 0.0
H210 H 0.56438 0.09466 0.15358 0.0
H211 H 0.59271 0.98062 0.11059 0.0
C212 C 0.64901 0.9099 0.69714 0.0
C213 C 0.6434 0.8828 0.71987 0.0
C214 C 0.64018 0.8414 0.70899 0.0
C215 C 0.6441 0.84527 0.68028 0.0
N216 N 0.64947 0.88656 0.67252 0.0
Co217 Co 0.65646 0.90595 0.6331 0.0
N218 N 0.64042 0.85334 0.61599 0.0
C219 C 0.6355 0.8159 0.62989 0.0
C220 C 0.62494 0.78465 0.61261 0.0
C221 C 0.62343 0.80354 0.58617 0.0
C222 C 0.63317 0.8454 0.58873 0.0
N223 N 0.66413 0.92589 0.594 0.0
C224 C 0.65588 0.91086 0.56863 0.0
C225 C 0.66901 0.9305 0.54659 0.0
C226 C 0.68559 0.95931 0.55845 0.0
C227 C 0.68203 0.95523 0.58707 0.0
N228 N 0.67222 0.95888 0.65 0.0
C229 C 0.6881 0.98633 0.63665 0.0
C230 C 0.69448 0.02204 0.65266 0.0
C231 C 0.68201 0.01667 0.67779 0.0
C232 C 0.66903 0.97726 0.67598 0.0
N233 N 0.68903 0.87422 0.63403 0.0
C234 C 0.73134 0.81725 0.63647 0.0
C235 C 0.71541 0.81889 0.61269 0.0
C236 C 0.6951 0.84778 0.61166 0.0
C237 C 0.72562 0.84614 0.65895 0.0
C238 C 0.70439 0.87405 0.65738 0.0
N239 N 0.62349 0.93537 0.63201 0.0
C240 C 0.59575 0.9938 0.61727 0.0
C241 C 0.57495 0.97186 0.62898 0.0
C242 C 0.57901 0.93165 0.64215 0.0
C243 C 0.60314 0.91388 0.64312 0.0
C244 C 0.61999 0.97517 0.6193 0.0
H245 H 0.60511 0.88218 0.65268 0.0
H246 H 0.63582 0.99264 0.61045 0.0
H247 H 0.68371 0.84716 0.59285 0.0
H248 H 0.70012 0.89481 0.67528 0.0
C249 C 0.63834 0.81362 0.65956 0.0
C250 C 0.65554 0.9568 0.6999 0.0
C251 C 0.63776 0.87508 0.56454 0.0
C252 C 0.69284 0.98185 0.60773 0.0
H253 H 0.64182 0.892 0.74195 0.0
H254 H 0.6346 0.81239 0.72054 0.0
H255 H 0.61867 0.75226 0.61858 0.0
H256 H 0.6165 0.78802 0.56708 0.0
H257 H 0.66766 0.92319 0.52435 0.0
H258 H 0.69859 0.98073 0.54751 0.0
H259 H 0.70579 0.04983 0.64632 0.0
H260 H 0.68247 0.03951 0.69527 0.0
H261 H 0.71784 0.79708 0.59487 0.0
H262 H 0.73727 0.84727 0.67774 0.0
H263 H 0.59335 0.02522 0.60703 0.0
H264 H 0.56345 0.91357 0.65131 0.0
C265 C 0.3978 0.09784 0.69718 0.0
C266 C 0.40336 0.12498 0.7199 0.0
C267 C 0.40652 0.16639 0.70901 0.0
C268 C 0.40263 0.16248 0.6803 0.0
N269 N 0.39733 0.12115 0.67255 0.0
Co270 Co 0.3904 0.10169 0.63313 0.0
N271 N 0.40636 0.15435 0.61602 0.0
C272 C 0.41122 0.19183 0.6299 0.0
C273 C 0.42174 0.22312 0.61262 0.0
C274 C 0.42329 0.20421 0.58618 0.0
C275 C 0.41362 0.1623 0.58875 0.0
N276 N 0.38279 0.08167 0.59403 0.0
C277 C 0.39103 0.09671 0.56866 0.0
C278 C 0.37794 0.077 0.54662 0.0
C279 C 0.36139 0.04812 0.55849 0.0
C280 C 0.36494 0.05225 0.58711 0.0
N281 N 0.3747 0.04871 0.65004 0.0
C282 C 0.35887 0.02117 0.63669 0.0
C283 C 0.35252 0.98546 0.65272 0.0
C284 C 0.36496 0.99091 0.67785 0.0
C285 C 0.37789 0.03037 0.67603 0.0
N286 N 0.35778 0.13328 0.63403 0.0
C287 C 0.31545 0.19021 0.63646 0.0
C288 C 0.33137 0.18854 0.61267 0.0
C289 C 0.35169 0.15967 0.61164 0.0
C290 C 0.32119 0.16133 0.65895 0.0
C291 C 0.34242 0.13345 0.65738 0.0
N292 N 0.42341 0.07242 0.63209 0.0
C293 C 0.45128 0.01412 0.61744 0.0
C294 C 0.47204 0.03616 0.6292 0.0
C295 C 0.46787 0.0764 0.64231 0.0
C296 C 0.44371 0.09403 0.64322 0.0
C297 C 0.427 0.03262 0.61941 0.0
H298 H 0.44167 0.12575 0.65274 0.0
H299 H 0.41122 0.01506 0.61054 0.0
H300 H 0.36307 0.16029 0.59283 0.0
H301 H 0.34671 0.11271 0.67529 0.0
C302 C 0.40835 0.19413 0.65956 0.0
C303 C 0.39134 0.05091 0.69995 0.0
C304 C 0.40909 0.13258 0.56457 0.0
C305 C 0.35414 0.0256 0.60777 0.0
H306 H 0.40494 0.11582 0.74199 0.0
H307 H 0.41205 0.19543 0.72055 0.0
H308 H 0.42796 0.25554 0.61858 0.0
H309 H 0.43022 0.21974 0.56709 0.0
H310 H 0.37929 0.08431 0.52439 0.0
H311 H 0.34843 0.02664 0.54754 0.0
H312 H 0.34125 0.95762 0.64638 0.0
H313 H 0.36452 0.9681 0.69535 0.0
H314 H 0.32893 0.21033 0.59484 0.0
H315 H 0.30955 0.16021 0.67775 0.0
H316 H 0.45374 0.9827 0.60721 0.0
H317 H 0.48337 0.09465 0.65144 0.0
C318 C 0.64906 0.09782 0.81131 0.0
C319 C 0.64349 0.12495 0.78859 0.0
C320 C 0.6403 0.16635 0.79947 0.0
C321 C 0.6442 0.16246 0.82819 0.0
N322 N 0.64952 0.12114 0.83594 0.0
Co323 Co 0.65646 0.1017 0.87536 0.0
N324 N 0.64047 0.15433 0.89247 0.0
C325 C 0.63559 0.1918 0.87858 0.0
C326 C 0.62505 0.22308 0.89586 0.0
C327 C 0.62351 0.20417 0.9223 0.0
C328 C 0.63321 0.16228 0.91973 0.0
N329 N 0.66409 0.0817 0.91446 0.0
C330 C 0.65584 0.09674 0.93983 0.0
C331 C 0.66894 0.07705 0.96187 0.0
C332 C 0.6855 0.0482 0.95001 0.0
C333 C 0.68196 0.05231 0.92139 0.0
N334 N 0.67219 0.04874 0.85846 0.0
C335 C 0.68804 0.02123 0.87181 0.0
C336 C 0.6944 0.98552 0.85579 0.0
C337 C 0.68195 0.99095 0.83066 0.0
C338 C 0.66901 0.03039 0.83247 0.0
N339 N 0.68906 0.13335 0.87446 0.0
C340 C 0.73137 0.19033 0.87205 0.0
C341 C 0.71544 0.18864 0.89583 0.0
C342 C 0.69514 0.15975 0.89685 0.0
C343 C 0.72565 0.16145 0.84956 0.0
C344 C 0.70443 0.13353 0.85112 0.0
N345 N 0.62347 0.07237 0.87641 0.0
C346 C 0.59564 0.01405 0.89111 0.0
C347 C 0.57487 0.03604 0.87935 0.0
C348 C 0.579 0.07626 0.8662 0.0
C349 C 0.60315 0.09393 0.86527 0.0
C350 C 0.61991 0.03259 0.88911 0.0
H351 H 0.60517 0.12564 0.85573 0.0
H352 H 0.6357 0.01507 0.89799 0.0
H353 H 0.68375 0.16035 0.91566 0.0
H354 H 0.70015 0.1128 0.83321 0.0
C355 C 0.63845 0.1941 0.84892 0.0
C356 C 0.65554 0.0509 0.80855 0.0
C357 C 0.63776 0.13258 0.94392 0.0
C358 C 0.69276 0.02568 0.90073 0.0
H359 H 0.64191 0.11577 0.7665 0.0
H360 H 0.63475 0.19539 0.78793 0.0
H361 H 0.61881 0.25549 0.8899 0.0
H362 H 0.61658 0.2197 0.94139 0.0
H363 H 0.66759 0.08436 0.98411 0.0
H364 H 0.69848 0.02674 0.96096 0.0
H365 H 0.70568 0.9577 0.86213 0.0
H366 H 0.6824 0.96812 0.81317 0.0
H367 H 0.71787 0.21044 0.91366 0.0
H368 H 0.7373 0.16034 0.83077 0.0
H369 H 0.59319 0.98264 0.90136 0.0
H370 H 0.56349 0.09445 0.85704 0.0
C371 C 0.39784 0.90992 0.81135 0.0
C372 C 0.40343 0.88282 0.78863 0.0
C373 C 0.40663 0.84141 0.7995 0.0
C374 C 0.40272 0.84527 0.82821 0.0
N375 N 0.39738 0.88658 0.83597 0.0
Co376 Co 0.39041 0.90597 0.8754 0.0
N377 N 0.40641 0.85334 0.8925 0.0
C378 C 0.41132 0.81589 0.8786 0.0
C379 C 0.42186 0.78461 0.89587 0.0
C380 C 0.42338 0.8035 0.92232 0.0
C381 C 0.41366 0.84538 0.91976 0.0
N382 N 0.38275 0.92592 0.9145 0.0
C383 C 0.39099 0.91087 0.93987 0.0
C384 C 0.37787 0.93051 0.96191 0.0
C385 C 0.3613 0.95935 0.95005 0.0
C386 C 0.36486 0.95527 0.92143 0.0
N387 N 0.37467 0.95893 0.8585 0.0
C388 C 0.3588 0.98641 0.87185 0.0
C389 C 0.35243 0.02212 0.85585 0.0
C390 C 0.3649 0.01674 0.83072 0.0
C391 C 0.37786 0.97731 0.83253 0.0
N392 N 0.35782 0.8743 0.87446 0.0
C393 C 0.31549 0.81738 0.872 0.0
C394 C 0.33142 0.81899 0.89578 0.0
C395 C 0.35174 0.84785 0.89683 0.0
C396 C 0.32122 0.84629 0.84953 0.0
C397 C 0.34245 0.87417 0.85112 0.0
N398 N 0.42338 0.93533 0.87648 0.0
C399 C 0.45117 0.99371 0.89121 0.0
C400 C 0.47195 0.97175 0.87947 0.0
C401 C 0.46786 0.93155 0.86631 0.0
C402 C 0.44372 0.91381 0.86535 0.0
C403 C 0.42691 0.97512 0.8892 0.0
H404 H 0.44173 0.88212 0.8558 0.0
H405 H 0.4111 0.99261 0.89806 0.0
H406 H 0.36312 0.84721 0.91564 0.0
H407 H 0.34674 0.89493 0.83322 0.0
C408 C 0.40847 0.81362 0.84893 0.0
C409 C 0.39134 0.95683 0.8086 0.0
C410 C 0.40909 0.87506 0.94395 0.0
C411 C 0.35406 0.98192 0.90077 0.0
H412 H 0.40502 0.89202 0.76654 0.0
H413 H 0.4122 0.81239 0.78795 0.0
H414 H 0.42812 0.75221 0.8899 0.0
H415 H 0.43031 0.78797 0.94141 0.0
H416 H 0.37921 0.92318 0.98415 0.0
H417 H 0.34831 0.98078 0.961 0.0
H418 H 0.34114 0.04992 0.86219 0.0
H419 H 0.36445 0.03958 0.81324 0.0
H420 H 0.32897 0.79716 0.9136 0.0
H421 H 0.30957 0.84744 0.83074 0.0
H422 H 0.45359 0.02512 0.90146 0.0
H423 H 0.4834 0.91342 0.85714 0.0
C424 C 0.87609 0.52948 0.33261 0.0
C425 C 0.86317 0.49003 0.3307 0.0
C426 C 0.85173 0.48341 0.3563 0.0
C427 C 0.85858 0.51851 0.37264 0.0
N428 N 0.87372 0.54683 0.35899 0.0
Co429 Co 0.88974 0.59949 0.37595 0.0
N430 N 0.88397 0.57791 0.4151 0.0
C431 C 0.86785 0.54588 0.42257 0.0
C432 C 0.86907 0.53544 0.45076 0.0
C433 C 0.88681 0.56293 0.46177 0.0
C434 C 0.89521 0.5894 0.43981 0.0
N435 N 0.90581 0.65193 0.39309 0.0
C436 C 0.91377 0.65935 0.42015 0.0
C437 C 0.9229 0.70163 0.42288 0.0
C438 C 0.92027 0.72127 0.39679 0.0
C439 C 0.90971 0.69003 0.37952 0.0
N440 N 0.89526 0.62026 0.33654 0.0
C441 C 0.90008 0.66187 0.32909 0.0
C442 C 0.90333 0.66655 0.30031 0.0
C443 C 0.90025 0.62533 0.28909 0.0
C444 C 0.89539 0.59754 0.31168 0.0
N445 N 0.85687 0.6305 0.37688 0.0
C446 C 0.8148 0.68843 0.37603 0.0
C447 C 0.8202 0.66038 0.35299 0.0
C448 C 0.84123 0.63201 0.35379 0.0
C449 C 0.83073 0.68485 0.39979 0.0
C450 C 0.851 0.65554 0.4 0.0
N451 N 0.92294 0.57075 0.37515 0.0
C452 C 0.96721 0.57585 0.36401 0.0
C453 C 0.97181 0.53528 0.37653 0.0
C454 C 0.95137 0.51236 0.38819 0.0
C455 C 0.92697 0.53041 0.38693 0.0
C456 C 0.9429 0.59311 0.36386 0.0
H457 H 0.91148 0.51208 0.39575 0.0
H458 H 0.94046 0.62516 0.3549 0.0
H459 H 0.84523 0.61214 0.33539 0.0
H460 H 0.86262 0.65476 0.41868 0.0
C461 C 0.85595 0.52054 0.40199 0.0
C462 C 0.88918 0.55057 0.30865 0.0
C463 C 0.91125 0.62821 0.44402 0.0
C464 C 0.90603 0.69309 0.35 0.0
H465 H 0.8623 0.46775 0.31294 0.0
H466 H 0.84108 0.45493 0.36278 0.0
H467 H 0.85934 0.50929 0.46169 0.0
H468 H 0.89312 0.56285 0.48342 0.0
H469 H 0.93042 0.7168 0.44181 0.0
H470 H 0.92592 0.75408 0.391 0.0
H471 H 0.9084 0.69599 0.28893 0.0
H472 H 0.90143 0.61669 0.26688 0.0
H473 H 0.80849 0.66032 0.33424 0.0
H474 H 0.82838 0.70556 0.41817 0.0
H475 H 0.98249 0.59467 0.35489 0.0
H476 H 0.95417 0.48063 0.3979 0.0
C477 C 0.17078 0.47818 0.33262 0.0
C478 C 0.1837 0.51763 0.3307 0.0
C479 C 0.19515 0.52425 0.35631 0.0
C480 C 0.1883 0.48915 0.37265 0.0
N481 N 0.17315 0.46083 0.359 0.0
Co482 Co 0.15714 0.40818 0.37597 0.0
N483 N 0.16291 0.42976 0.41511 0.0
C484 C 0.17903 0.46177 0.42258 0.0
C485 C 0.17783 0.4722 0.45077 0.0
C486 C 0.16009 0.44471 0.46179 0.0
C487 C 0.15167 0.41826 0.43982 0.0
N488 N 0.14106 0.35574 0.39311 0.0
C489 C 0.1331 0.34832 0.42017 0.0
C490 C 0.12396 0.30605 0.4229 0.0
C491 C 0.12659 0.28641 0.39682 0.0
C492 C 0.13716 0.31763 0.37954 0.0
N493 N 0.15161 0.3874 0.33656 0.0
C494 C 0.14678 0.34578 0.32911 0.0
C495 C 0.14354 0.34111 0.30033 0.0
C496 C 0.14661 0.38233 0.28911 0.0
C497 C 0.15148 0.41012 0.31169 0.0
N498 N 0.19 0.37716 0.37689 0.0
C499 C 0.23207 0.31923 0.37604 0.0
C500 C 0.22667 0.34728 0.35301 0.0
C501 C 0.20563 0.37565 0.35381 0.0
C502 C 0.21614 0.3228 0.39981 0.0
C503 C 0.19587 0.35211 0.40001 0.0
N504 N 0.12394 0.43692 0.37517 0.0
C505 C 0.07966 0.43183 0.36402 0.0
C506 C 0.07506 0.47241 0.37654 0.0
C507 C 0.09551 0.49532 0.3882 0.0
C508 C 0.1199 0.47726 0.38694 0.0
C509 C 0.10397 0.41456 0.36388 0.0
H510 H 0.13539 0.49558 0.39576 0.0
H511 H 0.10641 0.38252 0.35492 0.0
H512 H 0.20164 0.39552 0.3354 0.0
H513 H 0.18425 0.35289 0.4187 0.0
C514 C 0.19093 0.48711 0.402 0.0
C515 C 0.15769 0.45709 0.30867 0.0
C516 C 0.13562 0.37947 0.44404 0.0
C517 C 0.14083 0.31457 0.35002 0.0
H518 H 0.18458 0.53991 0.31294 0.0
H519 H 0.2058 0.55272 0.36279 0.0
H520 H 0.18758 0.49833 0.4617 0.0
H521 H 0.1538 0.44477 0.48345 0.0
H522 H 0.11644 0.29088 0.44183 0.0
H523 H 0.12094 0.2536 0.39103 0.0
H524 H 0.13846 0.31167 0.28895 0.0
H525 H 0.14543 0.39096 0.2669 0.0
H526 H 0.23838 0.34735 0.33426 0.0
H527 H 0.21848 0.30209 0.41818 0.0
H528 H 0.06438 0.41301 0.3549 0.0
H529 H 0.09271 0.52705 0.39791 0.0
C530 C 0.8761 0.47817 0.17588 0.0
C531 C 0.86318 0.51762 0.1778 0.0
C532 C 0.85173 0.52425 0.1522 0.0
C533 C 0.85858 0.48916 0.13585 0.0
N534 N 0.87373 0.46083 0.1495 0.0
Co535 Co 0.88974 0.40818 0.13253 0.0
N536 N 0.88397 0.42977 0.09339 0.0
C537 C 0.86785 0.4618 0.08592 0.0
C538 C 0.86907 0.47226 0.05774 0.0
C539 C 0.88682 0.44476 0.04672 0.0
C540 C 0.89521 0.41828 0.06868 0.0
N541 N 0.90581 0.35574 0.11539 0.0
C542 C 0.91376 0.34832 0.08832 0.0
C543 C 0.9229 0.30604 0.08558 0.0
C544 C 0.92027 0.2864 0.11167 0.0
C545 C 0.90971 0.31763 0.12895 0.0
N546 N 0.89527 0.38739 0.17194 0.0
C547 C 0.90009 0.34577 0.17939 0.0
C548 C 0.90334 0.34109 0.20816 0.0
C549 C 0.90026 0.38231 0.21939 0.0
C550 C 0.8954 0.4101 0.1968 0.0
N551 N 0.85687 0.37717 0.1316 0.0
C552 C 0.8148 0.31924 0.13245 0.0
C553 C 0.82021 0.34728 0.15549 0.0
C554 C 0.84124 0.37565 0.15469 0.0
C555 C 0.83072 0.32282 0.10869 0.0
C556 C 0.851 0.35213 0.10848 0.0
N557 N 0.92294 0.43691 0.13333 0.0
C558 C 0.96722 0.43181 0.14447 0.0
C559 C 0.97182 0.47239 0.13196 0.0
C560 C 0.95137 0.49531 0.1203 0.0
C561 C 0.92698 0.47725 0.12156 0.0
C562 C 0.94291 0.41454 0.14462 0.0
H563 H 0.91149 0.49559 0.11274 0.0
H564 H 0.94047 0.3825 0.15357 0.0
H565 H 0.84524 0.39551 0.1731 0.0
H566 H 0.86262 0.35292 0.08979 0.0
C567 C 0.85596 0.48713 0.1065 0.0
C568 C 0.88918 0.45708 0.19984 0.0
C569 C 0.91124 0.37946 0.06445 0.0
C570 C 0.90604 0.31457 0.15847 0.0
H571 H 0.8623 0.5399 0.19557 0.0
H572 H 0.84108 0.55273 0.14572 0.0
H573 H 0.85934 0.49841 0.04681 0.0
H574 H 0.89313 0.44485 0.02507 0.0
H575 H 0.93041 0.29087 0.06665 0.0
H576 H 0.92592 0.25359 0.11746 0.0
H577 H 0.90841 0.31165 0.21954 0.0
H578 H 0.90144 0.39094 0.2416 0.0
H579 H 0.80849 0.34734 0.17424 0.0
H580 H 0.82838 0.30212 0.09031 0.0
H581 H 0.98249 0.41298 0.15358 0.0
H582 H 0.95417 0.52704 0.1106 0.0
C583 C 0.17078 0.52948 0.1759 0.0
C584 C 0.1837 0.49003 0.17781 0.0
C585 C 0.19515 0.48342 0.15221 0.0
C586 C 0.18831 0.51851 0.13587 0.0
N587 N 0.17315 0.54683 0.14952 0.0
Co588 Co 0.15714 0.59948 0.13254 0.0
N589 N 0.16292 0.5779 0.0934 0.0
C590 C 0.17905 0.5459 0.08594 0.0
C591 C 0.17786 0.53548 0.05774 0.0
C592 C 0.16011 0.56297 0.04672 0.0
C593 C 0.15169 0.58941 0.06869 0.0
N594 N 0.14106 0.65192 0.11541 0.0
C595 C 0.1331 0.65933 0.08834 0.0
C596 C 0.12396 0.70161 0.08561 0.0
C597 C 0.12659 0.72125 0.1117 0.0
C598 C 0.13716 0.69002 0.12897 0.0
N599 N 0.15161 0.62026 0.17195 0.0
C600 C 0.14679 0.66187 0.1794 0.0
C601 C 0.14354 0.66655 0.20818 0.0
C602 C 0.14661 0.62533 0.2194 0.0
C603 C 0.15148 0.59754 0.19682 0.0
N604 N 0.19 0.6305 0.13162 0.0
C605 C 0.23207 0.68844 0.13247 0.0
C606 C 0.22667 0.66038 0.15551 0.0
C607 C 0.20564 0.63201 0.15471 0.0
C608 C 0.21615 0.68486 0.10871 0.0
C609 C 0.19587 0.65555 0.10851 0.0
N610 N 0.12394 0.57074 0.13334 0.0
C611 C 0.07966 0.57582 0.14449 0.0
C612 C 0.07507 0.53525 0.13197 0.0
C613 C 0.09551 0.51234 0.12031 0.0
C614 C 0.11991 0.5304 0.12157 0.0
C615 C 0.10397 0.5931 0.14464 0.0
H616 H 0.1354 0.51208 0.11274 0.0
H617 H 0.10641 0.62514 0.1536 0.0
H618 H 0.20164 0.61214 0.17311 0.0
H619 H 0.18425 0.65477 0.08982 0.0
C620 C 0.19094 0.52056 0.10652 0.0
C621 C 0.15769 0.55057 0.19985 0.0
C622 C 0.13562 0.62819 0.06447 0.0
C623 C 0.14083 0.69309 0.15849 0.0
H624 H 0.18458 0.46775 0.19557 0.0
H625 H 0.20581 0.45494 0.14573 0.0
H626 H 0.18761 0.50936 0.04681 0.0
H627 H 0.15383 0.56292 0.02506 0.0
H628 H 0.11644 0.71677 0.06668 0.0
H629 H 0.12093 0.75405 0.11748 0.0
H630 H 0.13846 0.69599 0.21956 0.0
H631 H 0.14543 0.6167 0.24162 0.0
H632 H 0.23838 0.66032 0.17426 0.0
H633 H 0.21848 0.70557 0.09033 0.0
H634 H 0.06439 0.59464 0.15361 0.0
H635 H 0.09271 0.48062 0.11059 0.0
C636 C 0.14901 0.40989 0.69717 0.0
C637 C 0.1434 0.38278 0.71989 0.0
C638 C 0.14019 0.34138 0.70901 0.0
C639 C 0.1441 0.34525 0.6803 0.0
N640 N 0.14947 0.38655 0.67254 0.0
Co641 Co 0.15645 0.40595 0.63313 0.0
N642 N 0.14042 0.35334 0.61601 0.0
C643 C 0.1355 0.31589 0.62991 0.0
C644 C 0.12495 0.28464 0.61263 0.0
C645 C 0.12344 0.30353 0.58618 0.0
C646 C 0.13318 0.3454 0.58875 0.0
N647 N 0.16412 0.4259 0.59403 0.0
C648 C 0.15588 0.41087 0.56865 0.0
C649 C 0.169 0.43052 0.54662 0.0
C650 C 0.18558 0.45933 0.55848 0.0
C651 C 0.18202 0.45524 0.5871 0.0
N652 N 0.17221 0.45888 0.65003 0.0
C653 C 0.18808 0.48635 0.63668 0.0
C654 C 0.19445 0.52206 0.65269 0.0
C655 C 0.18198 0.51668 0.67782 0.0
C656 C 0.16902 0.47726 0.67601 0.0
N657 N 0.18903 0.37423 0.63406 0.0
C658 C 0.23134 0.31727 0.63649 0.0
C659 C 0.21541 0.31891 0.61272 0.0
C660 C 0.1951 0.3478 0.61168 0.0
C661 C 0.22562 0.34616 0.65897 0.0
C662 C 0.20439 0.37406 0.6574 0.0
N663 N 0.12349 0.43535 0.63204 0.0
C664 C 0.09573 0.49376 0.61729 0.0
C665 C 0.07494 0.47182 0.629 0.0
C666 C 0.079 0.43161 0.64218 0.0
C667 C 0.10313 0.41385 0.64315 0.0
C668 C 0.11998 0.47515 0.61932 0.0
H669 H 0.10511 0.38216 0.65271 0.0
H670 H 0.1358 0.49262 0.61047 0.0
H671 H 0.18371 0.34718 0.59287 0.0
H672 H 0.20011 0.39482 0.67531 0.0
C673 C 0.13835 0.31361 0.65957 0.0
C674 C 0.15552 0.45679 0.69993 0.0
C675 C 0.13776 0.37508 0.56457 0.0
C676 C 0.19282 0.48187 0.60777 0.0
H677 H 0.14181 0.39197 0.74198 0.0
H678 H 0.13461 0.31236 0.72056 0.0
H679 H 0.11868 0.25224 0.61859 0.0
H680 H 0.11651 0.28802 0.56709 0.0
H681 H 0.16765 0.42321 0.52438 0.0
H682 H 0.19857 0.48076 0.54754 0.0
H683 H 0.20575 0.54986 0.64635 0.0
H684 H 0.18243 0.53952 0.6953 0.0
H685 H 0.21784 0.29711 0.59489 0.0
H686 H 0.23727 0.34728 0.67776 0.0
H687 H 0.09333 0.52518 0.60704 0.0
H688 H 0.06345 0.41352 0.65133 0.0
C689 C 0.89779 0.59776 0.69714 0.0
C690 C 0.90335 0.62488 0.71987 0.0
C691 C 0.90652 0.66629 0.709 0.0
C692 C 0.90262 0.66241 0.68028 0.0
N693 N 0.89732 0.62109 0.67252 0.0
Co694 Co 0.89039 0.60166 0.6331 0.0
N695 N 0.90637 0.65433 0.61599 0.0
C696 C 0.91122 0.6918 0.62989 0.0
C697 C 0.92175 0.7231 0.61262 0.0
C698 C 0.9233 0.70421 0.58618 0.0
C699 C 0.91362 0.6623 0.58874 0.0
N700 N 0.88278 0.58168 0.59399 0.0
C701 C 0.89102 0.59674 0.56862 0.0
C702 C 0.87793 0.57706 0.54658 0.0
C703 C 0.86137 0.54818 0.55843 0.0
C704 C 0.86492 0.55227 0.58705 0.0
N705 N 0.87468 0.54868 0.64998 0.0
C706 C 0.85885 0.52116 0.63663 0.0
C707 C 0.85249 0.48544 0.65264 0.0
C708 C 0.86494 0.49086 0.67777 0.0
C709 C 0.87787 0.53031 0.67597 0.0
N710 N 0.85778 0.63327 0.634 0.0
C711 C 0.81545 0.6902 0.63644 0.0
C712 C 0.83137 0.68855 0.61265 0.0
C713 C 0.85169 0.65968 0.61162 0.0
C714 C 0.82118 0.66131 0.65891 0.0
C715 C 0.84241 0.63342 0.65734 0.0
N716 N 0.9234 0.57239 0.63205 0.0
C717 C 0.95126 0.51409 0.61738 0.0
C718 C 0.97202 0.53611 0.62915 0.0
C719 C 0.96786 0.57633 0.64227 0.0
C720 C 0.9437 0.59398 0.64319 0.0
C721 C 0.92699 0.5326 0.61935 0.0
H722 H 0.94167 0.62569 0.65271 0.0
H723 H 0.9112 0.51505 0.61047 0.0
H724 H 0.86308 0.66031 0.5928 0.0
H725 H 0.8467 0.61267 0.67525 0.0
C726 C 0.90835 0.69408 0.65956 0.0
C727 C 0.89133 0.55083 0.69989 0.0
C728 C 0.90909 0.6326 0.56455 0.0
C729 C 0.85413 0.52562 0.6077 0.0
H730 H 0.90493 0.61569 0.74196 0.0
H731 H 0.91205 0.69533 0.72054 0.0
H732 H 0.92797 0.75552 0.61859 0.0
H733 H 0.93023 0.71975 0.56709 0.0
H734 H 0.87927 0.58439 0.52434 0.0
H735 H 0.84841 0.52672 0.54747 0.0
H736 H 0.84123 0.45761 0.64629 0.0
H737 H 0.86449 0.46803 0.69526 0.0
H738 H 0.82893 0.71035 0.59483 0.0
H739 H 0.80954 0.66018 0.67771 0.0
H740 H 0.95372 0.48267 0.60715 0.0
H741 H 0.98336 0.59457 0.65142 0.0
C742 C 0.14895 0.59776 0.81135 0.0
C743 C 0.1433 0.62484 0.78863 0.0
C744 C 0.14007 0.66624 0.7995 0.0
C745 C 0.144 0.66238 0.82821 0.0
N746 N 0.14941 0.6211 0.83597 0.0
Co747 Co 0.15644 0.60173 0.87538 0.0
N748 N 0.14039 0.65432 0.8925 0.0
C749 C 0.13544 0.69175 0.87861 0.0
C750 C 0.12488 0.72299 0.89589 0.0
C751 C 0.1234 0.7041 0.92234 0.0
C752 C 0.13316 0.66225 0.91977 0.0
N753 N 0.16415 0.58181 0.91448 0.0
C754 C 0.15591 0.59682 0.93986 0.0
C755 C 0.16905 0.5772 0.96189 0.0
C756 C 0.18565 0.54842 0.95001 0.0
C757 C 0.18207 0.5525 0.92139 0.0
N758 N 0.17222 0.54883 0.85847 0.0
C759 C 0.18813 0.5214 0.87181 0.0
C760 C 0.19451 0.4857 0.8558 0.0
C761 C 0.18202 0.49104 0.83068 0.0
C762 C 0.16903 0.53044 0.8325 0.0
N763 N 0.189 0.63351 0.87441 0.0
C764 C 0.23131 0.69045 0.87197 0.0
C765 C 0.21538 0.68883 0.89574 0.0
C766 C 0.19507 0.65995 0.89678 0.0
C767 C 0.22558 0.66156 0.84949 0.0
C768 C 0.20435 0.63367 0.85106 0.0
N769 N 0.1235 0.57226 0.87651 0.0
C770 C 0.09584 0.51371 0.89123 0.0
C771 C 0.07501 0.53566 0.87962 0.0
C772 C 0.07899 0.57591 0.8665 0.0
C773 C 0.10311 0.59374 0.86547 0.0
C774 C 0.12006 0.53241 0.88917 0.0
H775 H 0.10504 0.62545 0.85593 0.0
H776 H 0.13592 0.51495 0.89795 0.0
H777 H 0.18369 0.66058 0.9156 0.0
H778 H 0.20007 0.61291 0.83316 0.0
C779 C 0.13825 0.69403 0.84894 0.0
C780 C 0.15551 0.55087 0.80859 0.0
C781 C 0.13777 0.63258 0.94395 0.0
C782 C 0.19288 0.5259 0.90072 0.0
H783 H 0.14171 0.61564 0.76654 0.0
H784 H 0.13446 0.69524 0.78796 0.0
H785 H 0.11858 0.75537 0.88993 0.0
H786 H 0.11646 0.71961 0.94143 0.0
H787 H 0.1677 0.5845 0.98412 0.0
H788 H 0.19865 0.52702 0.96095 0.0
H789 H 0.20583 0.45792 0.86214 0.0
H790 H 0.18247 0.46819 0.81321 0.0
H791 H 0.21782 0.71064 0.91356 0.0
H792 H 0.23723 0.66043 0.83069 0.0
H793 H 0.09348 0.48223 0.90141 0.0
H794 H 0.06339 0.59395 0.85738 0.0
C795 C 0.89777 0.40978 0.8113 0.0
C796 C 0.9033 0.38262 0.78859 0.0
C797 C 0.90643 0.34121 0.79948 0.0
C798 C 0.90255 0.34514 0.8282 0.0
N799 N 0.89729 0.38648 0.83594 0.0
Co800 Co 0.89039 0.40598 0.87536 0.0
N801 N 0.90632 0.35329 0.89248 0.0
C802 C 0.91114 0.31579 0.8786 0.0
C803 C 0.92163 0.28448 0.89589 0.0
C804 C 0.92321 0.3034 0.92232 0.0
C805 C 0.91357 0.34534 0.91974 0.0
N806 N 0.88281 0.42605 0.91445 0.0
C807 C 0.89105 0.411 0.93983 0.0
C808 C 0.87799 0.43076 0.96187 0.0
C809 C 0.86146 0.45966 0.95001 0.0
C810 C 0.86499 0.45551 0.92139 0.0
N811 N 0.87471 0.45898 0.85844 0.0
C812 C 0.8589 0.48655 0.87179 0.0
C813 C 0.85257 0.52226 0.85576 0.0
C814 C 0.86499 0.51677 0.83062 0.0
C815 C 0.8779 0.4773 0.83245 0.0
N816 N 0.85775 0.37445 0.87449 0.0
C817 C 0.81543 0.31751 0.87208 0.0
C818 C 0.83133 0.31922 0.89587 0.0
C819 C 0.85165 0.3481 0.89689 0.0
C820 C 0.82116 0.34636 0.84958 0.0
C821 C 0.84239 0.37426 0.85114 0.0
N822 N 0.92342 0.43517 0.87636 0.0
C823 C 0.95135 0.49346 0.89091 0.0
C824 C 0.97209 0.47133 0.87918 0.0
C825 C 0.96788 0.43103 0.86616 0.0
C826 C 0.9437 0.41346 0.86527 0.0
C827 C 0.92705 0.47501 0.88898 0.0
H828 H 0.94163 0.38172 0.8558 0.0
H829 H 0.91128 0.49264 0.89783 0.0
H830 H 0.86303 0.34751 0.91571 0.0
H831 H 0.84669 0.39496 0.83321 0.0
C832 C 0.90826 0.31348 0.84894 0.0
C833 C 0.89134 0.45672 0.80853 0.0
C834 C 0.90908 0.37508 0.94392 0.0
C835 C 0.8542 0.48215 0.90072 0.0
H836 H 0.90488 0.39177 0.7665 0.0
H837 H 0.91194 0.31214 0.78795 0.0
H838 H 0.92782 0.25203 0.88993 0.0
H839 H 0.93013 0.28786 0.94141 0.0
H840 H 0.87934 0.42345 0.9841 0.0
H841 H 0.84852 0.48117 0.96096 0.0
H842 H 0.84132 0.55012 0.8621 0.0
H843 H 0.86456 0.53958 0.81312 0.0
H844 H 0.82889 0.29745 0.91372 0.0
H845 H 0.80953 0.34745 0.83077 0.0
H846 H 0.95383 0.52492 0.90107 0.0
H847 H 0.98335 0.41264 0.85708 0.0
C848 C 0.43401 0.1156 0.49025 0.0
C849 C 0.41709 0.14095 0.4742 0.0
H850 H 0.44495 0.09364 0.5318 0.0
C851 C 0.40137 0.17058 0.48865 0.0
H852 H 0.44595 0.09185 0.47978 0.0
C853 C 0.40103 0.17202 0.51851 0.0
C854 C 0.41627 0.14361 0.53456 0.0
H855 H 0.38773 0.18978 0.47696 0.0
H856 H 0.3871 0.19221 0.52901 0.0
C857 C 0.43346 0.11667 0.52007 0.0
C858 C 0.64579 0.83562 0.51848 0.0
C859 C 0.63057 0.86406 0.53453 0.0
H860 H 0.65908 0.81782 0.47694 0.0
C861 C 0.6134 0.89103 0.52004 0.0
H862 H 0.6597 0.81541 0.52899 0.0
C863 C 0.61285 0.8921 0.49022 0.0
C864 C 0.62975 0.86672 0.47417 0.0
H865 H 0.60193 0.91408 0.53177 0.0
H866 H 0.60092 0.91588 0.47975 0.0
C867 C 0.64545 0.83705 0.48863 0.0
C868 C 0.43402 0.89207 0.01826 0.0
C869 C 0.41711 0.8667 0.03432 0.0
H870 H 0.44494 0.91404 0.97672 0.0
C871 C 0.4014 0.83704 0.01987 0.0
H872 H 0.44595 0.91584 0.02873 0.0
C873 C 0.40106 0.8356 0.99002 0.0
C874 C 0.41628 0.86404 0.97396 0.0
H875 H 0.38777 0.81782 0.03156 0.0
H876 H 0.38714 0.8154 0.97951 0.0
C877 C 0.43347 0.89099 0.98844 0.0
C878 C 0.6134 0.11666 0.98842 0.0
C879 C 0.63058 0.14361 0.97393 0.0
H880 H 0.60091 0.09181 0.0287 0.0
C881 C 0.64581 0.17203 0.98999 0.0
H882 H 0.60192 0.09362 0.97669 0.0
C883 C 0.64547 0.17059 0.01984 0.0
C884 C 0.62976 0.14094 0.0343 0.0
H885 H 0.65973 0.19223 0.97948 0.0
H886 H 0.65911 0.18981 0.03153 0.0
C887 C 0.61285 0.11558 0.01824 0.0
C888 C 0.93347 0.6167 0.52006 0.0
C889 C 0.91627 0.64364 0.53454 0.0
H890 H 0.94597 0.59186 0.47978 0.0
C891 C 0.90104 0.67206 0.51848 0.0
H892 H 0.94495 0.59368 0.53179 0.0
C893 C 0.90139 0.67061 0.48862 0.0
C894 C 0.91711 0.64097 0.47417 0.0
H895 H 0.88711 0.69224 0.52898 0.0
H896 H 0.88775 0.68981 0.47693 0.0
C897 C 0.93402 0.61563 0.49024 0.0
C898 C 0.14579 0.33562 0.5185 0.0
C899 C 0.13058 0.36407 0.53455 0.0
H900 H 0.15909 0.31783 0.47696 0.0
C901 C 0.1134 0.39103 0.52006 0.0
H902 H 0.15971 0.31541 0.52901 0.0
C903 C 0.11285 0.3921 0.49025 0.0
C904 C 0.12975 0.36672 0.47419 0.0
H905 H 0.10193 0.41408 0.53179 0.0
H906 H 0.10092 0.41588 0.47978 0.0
C907 C 0.14545 0.33706 0.48865 0.0
C908 C 0.93346 0.39096 0.98841 0.0
C909 C 0.91625 0.36404 0.97393 0.0
H910 H 0.94597 0.41578 0.02869 0.0
C911 C 0.90101 0.33565 0.98999 0.0
H912 H 0.94495 0.41397 0.97668 0.0
C913 C 0.90135 0.33709 0.01984 0.0
C914 C 0.91709 0.36671 0.0343 0.0
H915 H 0.88707 0.31548 0.97949 0.0
H916 H 0.88771 0.31791 0.03154 0.0
C917 C 0.93402 0.39203 0.01823 0.0
C918 C 0.14545 0.67061 0.01987 0.0
C919 C 0.12975 0.64093 0.03433 0.0
H920 H 0.1597 0.69227 0.97951 0.0
C921 C 0.11286 0.61553 0.01827 0.0
H922 H 0.15907 0.68984 0.03157 0.0
C923 C 0.11342 0.6166 0.98845 0.0
C924 C 0.13059 0.64358 0.97396 0.0
H925 H 0.10094 0.59174 0.02874 0.0
H926 H 0.10195 0.59354 0.97672 0.0
C927 C 0.14579 0.67204 0.99002 0.0
C928 C 0.53613 0.99722 0.40261 0.0
C929 C 0.54892 0.99002 0.37691 0.0
H930 H 0.50129 0.01599 0.42264 0.0
C931 C 0.53596 0.9967 0.35129 0.0
H932 H 0.54561 0.99179 0.42263 0.0
C933 C 0.51088 0.0109 0.3513 0.0
C934 C 0.49795 0.01764 0.37692 0.0
H935 H 0.54533 0.99109 0.33121 0.0
H936 H 0.5015 0.01647 0.33121 0.0
C937 C 0.51076 0.0105 0.40261 0.0
C938 C 0.51075 0.99722 0.10588 0.0
C939 C 0.49795 0.99002 0.13158 0.0
H940 H 0.54558 0.01599 0.08585 0.0
C941 C 0.51091 0.99669 0.1572 0.0
H942 H 0.50127 0.99178 0.08585 0.0
C943 C 0.53599 0.0109 0.15719 0.0
C944 C 0.54893 0.01764 0.13157 0.0
H945 H 0.50154 0.99109 0.17728 0.0
H946 H 0.54537 0.01646 0.17727 0.0
C947 C 0.53611 0.0105 0.10588 0.0
C948 C 0.53587 0.99591 0.60279 0.0
C949 C 0.54901 0.99023 0.62843 0.0
H950 H 0.50078 0.01372 0.58292 0.0
C951 C 0.53641 0.99844 0.65408 0.0
H952 H 0.54507 0.98916 0.58276 0.0
C953 C 0.51136 0.01261 0.65416 0.0
C954 C 0.49805 0.01797 0.62863 0.0
H955 H 0.54603 0.99389 0.67413 0.0
H956 H 0.50228 0.01929 0.67428 0.0
C957 C 0.51051 0.00931 0.6029 0.0
C958 C 0.53577 0.01163 0.85434 0.0
C959 C 0.54887 0.0178 0.87992 0.0
H960 H 0.50124 0.9923 0.83431 0.0
C961 C 0.53623 0.00999 0.90564 0.0
H962 H 0.54499 0.01771 0.83423 0.0
C963 C 0.51086 0.9966 0.9057 0.0
C964 C 0.49792 0.99007 0.88002 0.0
H965 H 0.54581 0.01507 0.92565 0.0
H966 H 0.50152 0.99052 0.92573 0.0
C967 C 0.51071 0.99746 0.85438 0.0
C968 C 1.01075 0.51048 0.40261 0.0
C969 C 0.99795 0.51766 0.37692 0.0
H970 H 0.04559 0.49174 0.42264 0.0
C971 C 1.0109 0.51095 0.3513 0.0
H972 H 1.00128 0.51594 0.42264 0.0
C973 C 0.03598 0.49674 0.3513 0.0
C974 C 0.04893 0.49003 0.37692 0.0
H975 H 1.00153 0.51653 0.33121 0.0
H976 H 0.04536 0.49116 0.33122 0.0
C977 C 0.03612 0.4972 0.40261 0.0
C978 C 0.03613 0.51042 0.10589 0.0
C979 C 0.04893 0.51763 0.13158 0.0
H980 H 1.0013 0.49166 0.08585 0.0
C981 C 0.03597 0.51095 0.1572 0.0
H982 H 0.04562 0.51586 0.08586 0.0
C983 C 1.01089 0.49675 0.1572 0.0
C984 C 0.99795 0.49001 0.13157 0.0
H985 H 0.04534 0.51656 0.17728 0.0
H986 H 1.00151 0.49119 0.17728 0.0
C987 C 1.01077 0.49715 0.10588 0.0
C988 C 1.01055 0.50948 0.60287 0.0
C989 C 0.99803 0.5179 0.62859 0.0
H990 H 0.04516 0.48953 0.58276 0.0
C991 C 1.01127 0.51231 0.65415 0.0
H992 H 1.00087 0.51409 0.58287 0.0
C993 C 0.03633 0.49814 0.65408 0.0
C994 C 0.04899 0.49018 0.62844 0.0
H995 H 1.00214 0.51882 0.67426 0.0
H996 H 0.04589 0.49342 0.67414 0.0
C997 C 0.03591 0.49609 0.60279 0.0
C998 C 0.03558 0.51315 0.90569 0.0
C999 C 0.0491 0.51718 0.88017 0.0
H1000 H 1.00021 0.49659 0.92537 0.0
C1001 C 0.03689 0.5074 0.85453 0.0
H1002 H 0.04448 0.5212 0.92568 0.0
C1003 C 1.01184 0.49323 0.85435 0.0
C1004 C 0.99815 0.48943 0.87976 0.0
H1005 H 0.0468 0.51077 0.83457 0.0
H1006 H 1.00305 0.48538 0.83425 0.0
C1007 C 1.01023 0.49973 0.90547 0.0
C1008 C 0.26398 0.26987 0.40099 0.0
C1009 C 0.25359 0.28621 0.37555 0.0
H1010 H 0.28909 0.22581 0.42138 0.0
C1011 C 0.26365 0.26951 0.34998 0.0
H1012 H 0.25777 0.28183 0.42138 0.0
C1013 C 0.28322 0.23815 0.34998 0.0
C1014 C 0.29328 0.22144 0.37555 0.0
H1015 H 0.25633 0.28016 0.32973 0.0
H1016 H 0.29054 0.2275 0.32973 0.0
C1017 C 0.28289 0.23778 0.40099 0.0
C1018 C 0.76398 0.76987 0.40098 0.0
C1019 C 0.75359 0.78622 0.37554 0.0
H1020 H 0.78909 0.72582 0.42137 0.0
C1021 C 0.76365 0.76951 0.34997 0.0
H1022 H 0.75778 0.78184 0.42137 0.0
C1023 C 0.78322 0.73815 0.34997 0.0
C1024 C 0.79328 0.72144 0.37554 0.0
H1025 H 0.75633 0.78016 0.32972 0.0
H1026 H 0.79054 0.7275 0.32972 0.0
C1027 C 0.78289 0.73779 0.40098 0.0
C1028 C 0.26365 0.73816 0.15853 0.0
C1029 C 0.25359 0.72145 0.13296 0.0
H1030 H 0.29054 0.78017 0.17878 0.0
C1031 C 0.26398 0.7378 0.10752 0.0
H1032 H 0.25633 0.72751 0.17878 0.0
C1033 C 0.28289 0.76988 0.10752 0.0
C1034 C 0.29328 0.78623 0.13296 0.0
H1035 H 0.25778 0.72583 0.08713 0.0
H1036 H 0.28909 0.78184 0.08713 0.0
C1037 C 0.28322 0.76952 0.15853 0.0
C1038 C 0.76398 0.2378 0.1075 0.0
C1039 C 0.75359 0.22145 0.13294 0.0
H1040 H 0.78909 0.28185 0.08711 0.0
C1041 C 0.76365 0.23815 0.15851 0.0
H1042 H 0.75778 0.22584 0.08711 0.0
C1043 C 0.78322 0.26951 0.15851 0.0
C1044 C 0.79328 0.28622 0.13294 0.0
H1045 H 0.75633 0.2275 0.17876 0.0
H1046 H 0.79054 0.28016 0.17876 0.0
C1047 C 0.78289 0.26988 0.1075 0.0
C1048 C 0.76386 0.76951 0.61181 0.0
C1049 C 0.75327 0.78536 0.63724 0.0
H1050 H 0.78912 0.72606 0.59139 0.0
C1051 C 0.76345 0.7691 0.66286 0.0
H1052 H 0.75765 0.78141 0.5914 0.0
C1053 C 0.78335 0.73835 0.66285 0.0
C1054 C 0.79352 0.72209 0.63723 0.0
H1055 H 0.75597 0.77964 0.68306 0.0
H1056 H 0.79085 0.7278 0.68305 0.0
C1057 C 0.78292 0.73796 0.6118 0.0
C1058 C 0.26386 0.26952 0.61183 0.0
C1059 C 0.25328 0.28538 0.63727 0.0
H1060 H 0.28912 0.22607 0.59141 0.0
C1061 C 0.26346 0.26911 0.66288 0.0
H1062 H 0.25765 0.28142 0.59142 0.0
C1063 C 0.28336 0.23837 0.66287 0.0
C1064 C 0.29352 0.2221 0.63725 0.0
H1065 H 0.25597 0.27966 0.68309 0.0
H1066 H 0.29085 0.22782 0.68307 0.0
C1067 C 0.28293 0.23797 0.61183 0.0
C1068 C 0.76347 0.23852 0.84566 0.0
C1069 C 0.75329 0.22224 0.87128 0.0
H1070 H 0.79085 0.27984 0.82547 0.0
C1071 C 0.76387 0.23813 0.89671 0.0
H1072 H 0.75599 0.22796 0.82545 0.0
C1073 C 0.78291 0.26971 0.89671 0.0
C1074 C 0.79351 0.28558 0.87129 0.0
H1075 H 0.75766 0.22622 0.91712 0.0
H1076 H 0.7891 0.28163 0.91713 0.0
C1077 C 0.78335 0.26929 0.84567 0.0
C1078 C 0.26344 0.73857 0.84558 0.0
C1079 C 0.25327 0.72231 0.87119 0.0
H1080 H 0.29086 0.77984 0.82539 0.0
C1081 C 0.26386 0.73813 0.89662 0.0
H1082 H 0.25595 0.72805 0.82537 0.0
C1083 C 0.28294 0.76965 0.89663 0.0
C1084 C 0.29354 0.78552 0.87121 0.0
H1085 H 0.25765 0.72622 0.91703 0.0
H1086 H 0.28916 0.78152 0.91705 0.0
C1087 C 0.28336 0.76929 0.84559 0.0
C1088 C 0.41242 0.0158 0.26708 0.0
C1089 C 0.38963 0.02815 0.28012 0.0
H1090 H 0.43021 0.98338 0.23163 0.0
C1091 C 0.36695 0.01632 0.26673 0.0
H1092 H 0.43021 0.0243 0.27687 0.0
C1093 C 0.36695 0.99139 0.24177 0.0
C1094 C 0.38963 0.97954 0.22838 0.0
H1095 H 0.34907 0.02554 0.27603 0.0
H1096 H 0.34906 0.98217 0.23247 0.0
C1097 C 0.41242 0.99188 0.24142 0.0
C1098 C 0.63445 0.0158 0.24141 0.0
C1099 C 0.65724 0.02815 0.22837 0.0
H1100 H 0.61666 0.98338 0.27686 0.0
C1101 C 0.67992 0.01631 0.24176 0.0
H1102 H 0.61666 0.0243 0.23161 0.0
C1103 C 0.67992 0.99138 0.26672 0.0
C1104 C 0.65724 0.97954 0.28011 0.0
H1105 H 0.69781 0.02553 0.23246 0.0
H1106 H 0.69781 0.98217 0.27602 0.0
C1107 C 0.63445 0.99188 0.26706 0.0
C1108 C 0.63228 0.01585 0.76704 0.0
C1109 C 0.65507 0.02817 0.78009 0.0
H1110 H 0.61449 0.9834 0.7316 0.0
C1111 C 0.67775 0.01631 0.7667 0.0
H1112 H 0.61449 0.0244 0.77681 0.0
C1113 C 0.67775 0.99137 0.74175 0.0
C1114 C 0.65507 0.97956 0.72834 0.0
H1115 H 0.69564 0.02557 0.77597 0.0
H1116 H 0.69564 0.98208 0.73249 0.0
C1117 C 0.63228 0.99192 0.74139 0.0
C1118 C 0.4146 0.99194 0.76711 0.0
C1119 C 0.39181 0.97958 0.78016 0.0
H1120 H 0.43239 0.0244 0.73168 0.0
C1121 C 0.36913 0.99141 0.76676 0.0
H1122 H 0.43239 0.98341 0.7769 0.0
C1123 C 0.36913 0.01635 0.7418 0.0
C1124 C 0.39181 0.02819 0.72841 0.0
H1125 H 0.35124 0.98213 0.77602 0.0
H1126 H 0.35124 0.02561 0.73253 0.0
C1127 C 0.4146 0.01586 0.74146 0.0
C1128 C 0.86695 0.49134 0.24177 0.0
C1129 C 0.88964 0.47951 0.22838 0.0
H1130 H 0.84907 0.52549 0.27603 0.0
C1131 C 0.91243 0.49186 0.24142 0.0
H1132 H 0.84907 0.48212 0.23247 0.0
C1133 C 0.91243 0.51578 0.26707 0.0
C1134 C 0.88963 0.52813 0.28012 0.0
H1135 H 0.93022 0.48337 0.23162 0.0
H1136 H 0.93021 0.52429 0.27686 0.0
C1137 C 0.86695 0.51628 0.26673 0.0
C1138 C 0.17992 0.49136 0.26674 0.0
C1139 C 0.15724 0.47952 0.28013 0.0
H1140 H 0.19781 0.52551 0.23248 0.0
C1141 C 0.13445 0.49187 0.26708 0.0
H1142 H 0.19781 0.48215 0.27604 0.0
C1143 C 0.13445 0.51579 0.24143 0.0
C1144 C 0.15724 0.52813 0.22839 0.0
H1145 H 0.11666 0.48337 0.27688 0.0
H1146 H 0.11666 0.52429 0.23163 0.0
C1147 C 0.17992 0.51629 0.24178 0.0
C1148 C 0.13225 0.51576 0.76709 0.0
C1149 C 0.15504 0.52812 0.78014 0.0
H1150 H 0.11447 0.48329 0.73166 0.0
C1151 C 0.17772 0.51632 0.76673 0.0
H1152 H 0.11446 0.52427 0.77688 0.0
C1153 C 0.17773 0.49139 0.74177 0.0
C1154 C 0.15505 0.47953 0.72838 0.0
H1155 H 0.19561 0.52562 0.77599 0.0
H1156 H 0.19562 0.48213 0.73251 0.0
C1157 C 0.13226 0.49184 0.74143 0.0
C1158 C 0.86912 0.51623 0.74173 0.0
C1159 C 0.8918 0.52808 0.72834 0.0
H1160 H 0.85123 0.48201 0.77595 0.0
C1161 C 0.91459 0.51572 0.74138 0.0
H1162 H 0.85123 0.52551 0.73247 0.0
C1163 C 0.9146 0.49178 0.76703 0.0
C1164 C 0.89181 0.47943 0.78007 0.0
H1165 H 0.93238 0.52427 0.7316 0.0
H1166 H 0.93239 0.48325 0.7768 0.0
C1167 C 0.86912 0.49128 0.76668 0.0
loop_
_geom_bond_atom_site_label_1
_geom_bond_atom_site_label_2
_geom_bond_distance
_geom_bond_site_symmetry_2
_ccdc_geom_bond_type
C0 C1 1.443 . S
C0 N4 1.376 . S
C0 C38 1.389 . S
C1 C0 1.443 . S
C1 C2 1.340 1_545 S
C1 H41 0.951 1_545 S
C2 C1 1.340 1_565 S
C2 C3 1.439 1_565 S
C2 H42 0.950 . S
C3 C2 1.439 1_545 S
C3 N4 1.374 . S
C3 C37 1.395 . S
N4 C0 1.376 . S
N4 C3 1.374 . S
N4 Co5 2.008 . S
Co5 N4 2.008 . S
Co5 N6 1.995 . S
Co5 N11 2.008 . S
Co5 N16 1.995 . S
Co5 N21 2.282 . S
Co5 N27 2.282 . S
N6 Co5 1.995 . S
N6 C7 1.376 . S
N6 C10 1.383 . S
C7 N6 1.376 . S
C7 C8 1.446 . S
C7 C37 1.391 . S
C8 C7 1.446 . S
C8 C9 1.339 . S
C8 H43 0.949 . S
C9 C8 1.339 . S
C9 C10 1.439 . S
C9 H44 0.950 . S
C10 N6 1.383 . S
C10 C9 1.439 . S
C10 C39 1.392 . S
N11 Co5 2.008 . S
N11 C12 1.376 . S
N11 C15 1.374 . S
C12 N11 1.376 . S
C12 C13 1.443 . S
C12 C39 1.389 . S
C13 C12 1.443 . S
C13 C14 1.340 . S
C13 H45 0.951 . S
C14 C13 1.340 . S
C14 C15 1.439 . S
C14 H46 0.950 . S
C15 N11 1.374 . S
C15 C14 1.439 . S
C15 C40 1.395 . S
N16 Co5 1.995 . S
N16 C17 1.376 . S
N16 C20 1.383 . S
C17 N16 1.376 . S
C17 C18 1.446 . S
C17 C40 1.391 . S
C18 C17 1.446 . S
C18 C19 1.339 . S
C18 H47 0.949 . S
C19 C18 1.339 . S
C19 C20 1.439 . S
C19 H48 0.950 . S
C20 N16 1.383 . S
C20 C19 1.439 . S
C20 C38 1.392 . S
N21 Co5 2.282 . S
N21 C24 1.332 . S
N21 C26 1.332 . S
C22 C23 1.386 . S
C22 C25 1.388 . S
C23 C22 1.386 . S
C23 C24 1.382 . S
C23 H49 0.950 . S
C24 N21 1.332 . S
C24 C23 1.382 . S
C24 H35 0.952 . S
C25 C22 1.388 . S
C25 C26 1.382 . S
C25 H50 0.950 . S
C26 N21 1.332 . S
C26 C25 1.382 . S
C26 H36 0.948 . S
N27 Co5 2.282 . S
N27 C31 1.332 . S
N27 C32 1.332 . S
C28 C29 1.388 . S
C28 C32 1.382 . S
C28 H51 0.950 . S
C29 C28 1.388 . S
C29 C30 1.386 . S
C30 C29 1.386 . S
C30 C31 1.382 . S
C30 H52 0.950 1_545 S
C31 N27 1.332 . S
C31 C30 1.382 . S
C31 H33 0.952 . S
C32 N27 1.332 . S
C32 C28 1.382 . S
C32 H34 0.948 . S
H33 C31 0.952 . S
H34 C32 0.948 . S
H35 C24 0.952 . S
H36 C26 0.948 . S
C37 C3 1.395 . S
C37 C7 1.391 . S
C38 C0 1.389 . S
C38 C20 1.392 . S
C39 C10 1.392 . S
C39 C12 1.389 . S
C40 C15 1.395 . S
C40 C17 1.391 . S
H41 C1 0.951 1_565 S
H42 C2 0.950 . S
H43 C8 0.949 . S
H44 C9 0.950 . S
H45 C13 0.951 . S
H46 C14 0.950 . S
H47 C18 0.949 . S
H48 C19 0.950 . S
H49 C23 0.950 . S
H50 C25 0.950 . S
H51 C28 0.950 . S
H52 C30 0.950 1_565 S
C53 C54 1.443 . S
C53 N57 1.376 . S
C53 C91 1.389 . S
C54 C53 1.443 . S
C54 C55 1.340 1_565 S
C54 H94 0.951 1_565 S
C55 C54 1.340 1_545 S
C55 C56 1.439 1_545 S
C55 H95 0.950 . S
C56 C55 1.439 1_565 S
C56 N57 1.374 . S
C56 C90 1.395 . S
N57 C53 1.376 . S
N57 C56 1.374 . S
N57 Co58 2.008 . S
Co58 N57 2.008 . S
Co58 N59 1.995 . S
Co58 N64 2.008 . S
Co58 N69 1.995 . S
Co58 N74 2.282 . S
Co58 N80 2.282 . S
N59 Co58 1.995 . S
N59 C60 1.376 . S
N59 C63 1.383 . S
C60 N59 1.376 . S
C60 C61 1.446 . S
C60 C90 1.391 . S
C61 C60 1.446 . S
C61 C62 1.339 . S
C61 H96 0.949 . S
C62 C61 1.339 . S
C62 C63 1.439 . S
C62 H97 0.950 . S
C63 N59 1.383 . S
C63 C62 1.439 . S
C63 C92 1.392 . S
N64 Co58 2.008 . S
N64 C65 1.376 . S
N64 C68 1.374 . S
C65 N64 1.376 . S
C65 C66 1.443 . S
C65 C92 1.389 . S
C66 C65 1.443 . S
C66 C67 1.340 . S
C66 H98 0.951 . S
C67 C66 1.340 . S
C67 C68 1.439 . S
C67 H99 0.950 . S
C68 N64 1.374 . S
C68 C67 1.439 . S
C68 C93 1.395 . S
N69 Co58 1.995 . S
N69 C70 1.376 . S
N69 C73 1.383 . S
C70 N69 1.376 . S
C70 C71 1.446 . S
C70 C93 1.391 . S
C71 C70 1.446 . S
C71 C72 1.339 . S
C71 H100 0.949 . S
C72 C71 1.339 . S
C72 C73 1.439 . S
C72 H101 0.950 . S
C73 N69 1.383 . S
C73 C72 1.439 . S
C73 C91 1.392 . S
N74 Co58 2.282 . S
N74 C77 1.332 . S
N74 C79 1.332 . S
C75 C76 1.386 . S
C75 C78 1.388 . S
C76 C75 1.386 . S
C76 C77 1.382 . S
C76 H102 0.950 . S
C77 N74 1.332 . S
C77 C76 1.382 . S
C77 H88 0.952 . S
C78 C75 1.388 . S
C78 C79 1.382 . S
C78 H103 0.950 . S
C79 N74 1.332 . S
C79 C78 1.382 . S
C79 H89 0.948 . S
N80 Co58 2.282 . S
N80 C84 1.332 . S
N80 C85 1.332 . S
C81 C82 1.388 . S
C81 C85 1.382 . S
C81 H104 0.950 . S
C82 C81 1.388 . S
C82 C83 1.386 . S
C83 C82 1.386 . S
C83 C84 1.382 . S
C83 H105 0.950 1_565 S
C84 N80 1.332 . S
C84 C83 1.382 . S
C84 H86 0.952 . S
C85 N80 1.332 . S
C85 C81 1.382 . S
C85 H87 0.948 . S
H86 C84 0.952 . S
H87 C85 0.948 . S
H88 C77 0.952 . S
H89 C79 0.948 . S
C90 C56 1.395 . S
C90 C60 1.391 . S
C91 C53 1.389 . S
C91 C73 1.392 . S
C92 C63 1.392 . S
C92 C65 1.389 . S
C93 C68 1.395 . S
C93 C70 1.391 . S
H94 C54 0.951 1_545 S
H95 C55 0.950 . S
H96 C61 0.949 . S
H97 C62 0.950 . S
H98 C66 0.951 . S
H99 C67 0.950 . S
H100 C71 0.949 . S
H101 C72 0.950 . S
H102 C76 0.950 . S
H103 C78 0.950 . S
H104 C81 0.950 . S
H105 C83 0.950 1_545 S
C106 C107 1.443 . S
C106 N110 1.376 . S
C106 C144 1.389 . S
C107 C106 1.443 . S
C107 C108 1.340 1_565 S
C107 H147 0.951 1_565 S
C108 C107 1.340 1_545 S
C108 C109 1.439 1_545 S
C108 H148 0.950 . S
C109 C108 1.439 1_565 S
C109 N110 1.374 . S
C109 C143 1.395 . S
N110 C106 1.376 . S
N110 C109 1.374 . S
N110 Co111 2.008 . S
Co111 N110 2.008 . S
Co111 N112 1.995 . S
Co111 N117 2.008 . S
Co111 N122 1.995 . S
Co111 N127 2.282 . S
Co111 N133 2.282 . S
N112 Co111 1.995 . S
N112 C113 1.376 . S
N112 C116 1.383 . S
C113 N112 1.376 . S
C113 C114 1.446 . S
C113 C143 1.391 . S
C114 C113 1.446 . S
C114 C115 1.339 . S
C114 H149 0.949 . S
C115 C114 1.339 . S
C115 C116 1.439 . S
C115 H150 0.950 . S
C116 N112 1.383 . S
C116 C115 1.439 . S
C116 C145 1.392 . S
N117 Co111 2.008 . S
N117 C118 1.376 . S
N117 C121 1.374 . S
C118 N117 1.376 . S
C118 C119 1.443 . S
C118 C145 1.389 . S
C119 C118 1.443 . S
C119 C120 1.340 . S
C119 H151 0.951 . S
C120 C119 1.340 . S
C120 C121 1.439 . S
C120 H152 0.950 . S
C121 N117 1.374 . S
C121 C120 1.439 . S
C121 C146 1.395 . S
N122 Co111 1.995 . S
N122 C123 1.376 . S
N122 C126 1.383 . S
C123 N122 1.376 . S
C123 C124 1.446 . S
C123 C146 1.391 . S
C124 C123 1.446 . S
C124 C125 1.339 . S
C124 H153 0.949 . S
C125 C124 1.339 . S
C125 C126 1.439 . S
C125 H154 0.950 . S
C126 N122 1.383 . S
C126 C125 1.439 . S
C126 C144 1.392 . S
N127 Co111 2.282 . S
N127 C130 1.332 . S
N127 C132 1.332 . S
C128 C129 1.386 . S
C128 C131 1.388 . S
C129 C128 1.386 . S
C129 C130 1.382 . S
C129 H155 0.950 . S
C130 N127 1.332 . S
C130 C129 1.382 . S
C130 H141 0.952 . S
C131 C128 1.388 . S
C131 C132 1.382 . S
C131 H156 0.950 . S
C132 N127 1.332 . S
C132 C131 1.382 . S
C132 H142 0.948 . S
N133 Co111 2.282 . S
N133 C137 1.332 . S
N133 C138 1.332 . S
C134 C135 1.388 . S
C134 C138 1.382 . S
C134 H157 0.950 . S
C135 C134 1.388 . S
C135 C136 1.386 . S
C136 C135 1.386 . S
C136 C137 1.382 . S
C136 H158 0.950 1_565 S
C137 N133 1.332 . S
C137 C136 1.382 . S
C137 H139 0.952 . S
C138 N133 1.332 . S
C138 C134 1.382 . S
C138 H140 0.948 . S
H139 C137 0.952 . S
H140 C138 0.948 . S
H141 C130 0.952 . S
H142 C132 0.948 . S
C143 C109 1.395 . S
C143 C113 1.391 . S
C144 C106 1.389 . S
C144 C126 1.392 . S
C145 C116 1.392 . S
C145 C118 1.389 . S
C146 C121 1.395 . S
C146 C123 1.391 . S
H147 C107 0.951 1_545 S
H148 C108 0.950 . S
H149 C114 0.949 . S
H150 C115 0.950 . S
H151 C119 0.951 . S
H152 C120 0.950 . S
H153 C124 0.949 . S
H154 C125 0.950 . S
H155 C129 0.950 . S
H156 C131 0.950 . S
H157 C134 0.950 . S
H158 C136 0.950 1_545 S
C159 C160 1.443 . S
C159 N163 1.376 . S
C159 C197 1.389 . S
C160 C159 1.443 . S
C160 C161 1.340 1_545 S
C160 H200 0.951 1_545 S
C161 C160 1.340 1_565 S
C161 C162 1.439 1_565 S
C161 H201 0.950 . S
C162 C161 1.439 1_545 S
C162 N163 1.374 . S
C162 C196 1.395 . S
N163 C159 1.376 . S
N163 C162 1.374 . S
N163 Co164 2.008 . S
Co164 N163 2.008 . S
Co164 N165 1.995 . S
Co164 N170 2.008 . S
Co164 N175 1.995 . S
Co164 N180 2.282 . S
Co164 N186 2.282 . S
N165 Co164 1.995 . S
N165 C166 1.376 . S
N165 C169 1.383 . S
C166 N165 1.376 . S
C166 C167 1.446 . S
C166 C196 1.391 . S
C167 C166 1.446 . S
C167 C168 1.339 . S
C167 H202 0.949 . S
C168 C167 1.339 . S
C168 C169 1.439 . S
C168 H203 0.950 . S
C169 N165 1.383 . S
C169 C168 1.439 . S
C169 C198 1.392 . S
N170 Co164 2.008 . S
N170 C171 1.376 . S
N170 C174 1.374 . S
C171 N170 1.376 . S
C171 C172 1.443 . S
C171 C198 1.389 . S
C172 C171 1.443 . S
C172 C173 1.340 . S
C172 H204 0.951 . S
C173 C172 1.340 . S
C173 C174 1.439 . S
C173 H205 0.950 . S
C174 N170 1.374 . S
C174 C173 1.439 . S
C174 C199 1.395 . S
N175 Co164 1.995 . S
N175 C176 1.376 . S
N175 C179 1.383 . S
C176 N175 1.376 . S
C176 C177 1.446 . S
C176 C199 1.391 . S
C177 C176 1.446 . S
C177 C178 1.339 . S
C177 H206 0.949 . S
C178 C177 1.339 . S
C178 C179 1.439 . S
C178 H207 0.950 . S
C179 N175 1.383 . S
C179 C178 1.439 . S
C179 C197 1.392 . S
N180 Co164 2.282 . S
N180 C183 1.332 . S
N180 C185 1.332 . S
C181 C182 1.386 . S
C181 C184 1.388 . S
C182 C181 1.386 . S
C182 C183 1.382 . S
C182 H208 0.950 . S
C183 N180 1.332 . S
C183 C182 1.382 . S
C183 H194 0.952 . S
C184 C181 1.388 . S
C184 C185 1.382 . S
C184 H209 0.950 . S
C185 N180 1.332 . S
C185 C184 1.382 . S
C185 H195 0.948 . S
N186 Co164 2.282 . S
N186 C190 1.332 . S
N186 C191 1.332 . S
C187 C188 1.388 . S
C187 C191 1.382 . S
C187 H210 0.950 . S
C188 C187 1.388 . S
C188 C189 1.386 . S
C189 C188 1.386 . S
C189 C190 1.382 . S
C189 H211 0.950 1_545 S
C190 N186 1.332 . S
C190 C189 1.382 . S
C190 H192 0.952 . S
C191 N186 1.332 . S
C191 C187 1.382 . S
C191 H193 0.948 . S
H192 C190 0.952 . S
H193 C191 0.948 . S
H194 C183 0.952 . S
H195 C185 0.948 . S
C196 C162 1.395 . S
C196 C166 1.391 . S
C197 C159 1.389 . S
C197 C179 1.392 . S
C198 C169 1.392 . S
C198 C171 1.389 . S
C199 C174 1.395 . S
C199 C176 1.391 . S
H200 C160 0.951 1_565 S
H201 C161 0.950 . S
H202 C167 0.949 . S
H203 C168 0.950 . S
H204 C172 0.951 . S
H205 C173 0.950 . S
H206 C177 0.949 . S
H207 C178 0.950 . S
H208 C182 0.950 . S
H209 C184 0.950 . S
H210 C187 0.950 . S
H211 C189 0.950 1_565 S
C212 C213 1.443 . S
C212 N216 1.376 . S
C212 C250 1.389 . S
C213 C212 1.443 . S
C213 C214 1.340 . S
C213 H253 0.951 . S
C214 C213 1.340 . S
C214 C215 1.439 . S
C214 H254 0.950 . S
C215 C214 1.439 . S
C215 N216 1.374 . S
C215 C249 1.395 . S
N216 C212 1.376 . S
N216 C215 1.374 . S
N216 Co217 2.008 . S
Co217 N216 2.008 . S
Co217 N218 1.995 . S
Co217 N223 2.008 . S
Co217 N228 1.995 . S
Co217 N233 2.282 . S
Co217 N239 2.282 . S
N218 Co217 1.995 . S
N218 C219 1.376 . S
N218 C222 1.383 . S
C219 N218 1.376 . S
C219 C220 1.446 . S
C219 C249 1.391 . S
C220 C219 1.446 . S
C220 C221 1.339 . S
C220 H255 0.949 . S
C221 C220 1.339 . S
C221 C222 1.439 . S
C221 H256 0.950 . S
C222 N218 1.383 . S
C222 C221 1.439 . S
C222 C251 1.392 . S
N223 Co217 2.008 . S
N223 C224 1.376 . S
N223 C227 1.374 . S
C224 N223 1.376 . S
C224 C225 1.443 . S
C224 C251 1.389 . S
C225 C224 1.443 . S
C225 C226 1.340 . S
C225 H257 0.951 . S
C226 C225 1.340 . S
C226 C227 1.439 . S
C226 H258 0.950 . S
C227 N223 1.374 . S
C227 C226 1.439 . S
C227 C252 1.395 . S
N228 Co217 1.995 . S
N228 C229 1.376 . S
N228 C232 1.383 . S
C229 N228 1.376 . S
C229 C230 1.446 1_565 S
C229 C252 1.391 . S
C230 C229 1.446 1_545 S
C230 C231 1.339 1_545 S
C230 H259 0.949 . S
C231 C230 1.339 1_565 S
C231 C232 1.439 . S
C231 H260 0.958 . S
C232 N228 1.383 . S
C232 C231 1.439 . S
C232 C250 1.392 . S
N233 Co217 2.282 . S
N233 C236 1.332 . S
N233 C238 1.332 . S
C234 C235 1.386 . S
C234 C237 1.388 . S
C235 C234 1.386 . S
C235 C236 1.382 . S
C235 H261 0.950 . S
C236 N233 1.332 . S
C236 C235 1.382 . S
C236 H247 0.952 . S
C237 C234 1.388 . S
C237 C238 1.382 . S
C237 H262 0.950 . S
C238 N233 1.332 . S
C238 C237 1.382 . S
C238 H248 0.948 . S
N239 Co217 2.282 . S
N239 C243 1.332 . S
N239 C244 1.332 . S
C240 C241 1.388 . S
C240 C244 1.382 . S
C240 H263 0.950 1_565 S
C241 C240 1.388 . S
C241 C242 1.386 . S
C242 C241 1.386 . S
C242 C243 1.382 . S
C242 H264 0.950 . S
C243 N239 1.332 . S
C243 C242 1.382 . S
C243 H245 0.952 . S
C244 N239 1.332 . S
C244 C240 1.382 . S
C244 H246 0.948 . S
H245 C243 0.952 . S
H246 C244 0.948 . S
H247 C236 0.952 . S
H248 C238 0.948 . S
C249 C215 1.395 . S
C249 C219 1.391 . S
C250 C212 1.389 . S
C250 C232 1.392 . S
C251 C222 1.392 . S
C251 C224 1.389 . S
C252 C227 1.395 . S
C252 C229 1.391 . S
H253 C213 0.951 . S
H254 C214 0.950 . S
H255 C220 0.949 . S
H256 C221 0.950 . S
H257 C225 0.951 . S
H258 C226 0.950 . S
H259 C230 0.949 . S
H260 C231 0.958 . S
H261 C235 0.950 . S
H262 C237 0.950 . S
H263 C240 0.950 1_545 S
H264 C242 0.950 . S
C265 C266 1.443 . S
C265 N269 1.376 . S
C265 C303 1.389 . S
C266 C265 1.443 . S
C266 C267 1.340 . S
C266 H306 0.951 . S
C267 C266 1.340 . S
C267 C268 1.439 . S
C267 H307 0.950 . S
C268 C267 1.439 . S
C268 N269 1.374 . S
C268 C302 1.395 . S
N269 C265 1.376 . S
N269 C268 1.374 . S
N269 Co270 2.008 . S
Co270 N269 2.008 . S
Co270 N271 1.995 . S
Co270 N276 2.008 . S
Co270 N281 1.995 . S
Co270 N286 2.282 . S
Co270 N292 2.282 . S
N271 Co270 1.995 . S
N271 C272 1.376 . S
N271 C275 1.383 . S
C272 N271 1.376 . S
C272 C273 1.446 . S
C272 C302 1.391 . S
C273 C272 1.446 . S
C273 C274 1.339 . S
C273 H308 0.949 . S
C274 C273 1.339 . S
C274 C275 1.439 . S
C274 H309 0.950 . S
C275 N271 1.383 . S
C275 C274 1.439 . S
C275 C304 1.392 . S
N276 Co270 2.008 . S
N276 C277 1.376 . S
N276 C280 1.374 . S
C277 N276 1.376 . S
C277 C278 1.443 . S
C277 C304 1.389 . S
C278 C277 1.443 . S
C278 C279 1.340 . S
C278 H310 0.951 . S
C279 C278 1.340 . S
C279 C280 1.439 . S
C279 H311 0.950 . S
C280 N276 1.374 . S
C280 C279 1.439 . S
C280 C305 1.395 . S
N281 Co270 1.995 . S
N281 C282 1.376 . S
N281 C285 1.383 . S
C282 N281 1.376 . S
C282 C283 1.446 1_545 S
C282 C305 1.391 . S
C283 C282 1.446 1_565 S
C283 C284 1.339 1_565 S
C283 H312 0.949 . S
C284 C283 1.339 1_545 S
C284 C285 1.439 . S
C284 H313 0.958 . S
C285 N281 1.383 . S
C285 C284 1.439 . S
C285 C303 1.392 . S
N286 Co270 2.282 . S
N286 C289 1.332 . S
N286 C291 1.332 . S
C287 C288 1.386 . S
C287 C290 1.388 . S
C288 C287 1.386 . S
C288 C289 1.382 . S
C288 H314 0.950 . S
C289 N286 1.332 . S
C289 C288 1.382 . S
C289 H300 0.952 . S
C290 C287 1.388 . S
C290 C291 1.382 . S
C290 H315 0.950 . S
C291 N286 1.332 . S
C291 C290 1.382 . S
C291 H301 0.948 . S
N292 Co270 2.282 . S
N292 C296 1.332 . S
N292 C297 1.332 . S
C293 C294 1.388 . S
C293 C297 1.382 . S
C293 H316 0.950 1_545 S
C294 C293 1.388 . S
C294 C295 1.386 . S
C295 C294 1.386 . S
C295 C296 1.382 . S
C295 H317 0.950 . S
C296 N292 1.332 . S
C296 C295 1.382 . S
C296 H298 0.952 . S
C297 N292 1.332 . S
C297 C293 1.382 . S
C297 H299 0.948 . S
H298 C296 0.952 . S
H299 C297 0.948 . S
H300 C289 0.952 . S
H301 C291 0.948 . S
C302 C268 1.395 . S
C302 C272 1.391 . S
C303 C265 1.389 . S
C303 C285 1.392 . S
C304 C275 1.392 . S
C304 C277 1.389 . S
C305 C280 1.395 . S
C305 C282 1.391 . S
H306 C266 0.951 . S
H307 C267 0.950 . S
H308 C273 0.949 . S
H309 C274 0.950 . S
H310 C278 0.951 . S
H311 C279 0.950 . S
H312 C283 0.949 . S
H313 C284 0.958 . S
H314 C288 0.950 . S
H315 C290 0.950 . S
H316 C293 0.950 1_565 S
H317 C295 0.950 . S
C318 C319 1.443 . S
C318 N322 1.376 . S
C318 C356 1.389 . S
C319 C318 1.443 . S
C319 C320 1.340 . S
C319 H359 0.951 . S
C320 C319 1.340 . S
C320 C321 1.439 . S
C320 H360 0.950 . S
C321 C320 1.439 . S
C321 N322 1.374 . S
C321 C355 1.395 . S
N322 C318 1.376 . S
N322 C321 1.374 . S
N322 Co323 2.008 . S
Co323 N322 2.008 . S
Co323 N324 1.995 . S
Co323 N329 2.008 . S
Co323 N334 1.995 . S
Co323 N339 2.282 . S
Co323 N345 2.282 . S
N324 Co323 1.995 . S
N324 C325 1.376 . S
N324 C328 1.383 . S
C325 N324 1.376 . S
C325 C326 1.446 . S
C325 C355 1.391 . S
C326 C325 1.446 . S
C326 C327 1.339 . S
C326 H361 0.949 . S
C327 C326 1.339 . S
C327 C328 1.439 . S
C327 H362 0.950 . S
C328 N324 1.383 . S
C328 C327 1.439 . S
C328 C357 1.392 . S
N329 Co323 2.008 . S
N329 C330 1.376 . S
N329 C333 1.374 . S
C330 N329 1.376 . S
C330 C331 1.443 . S
C330 C357 1.389 . S
C331 C330 1.443 . S
C331 C332 1.340 . S
C331 H363 0.951 . S
C332 C331 1.340 . S
C332 C333 1.439 . S
C332 H364 0.950 . S
C333 N329 1.374 . S
C333 C332 1.439 . S
C333 C358 1.395 . S
N334 Co323 1.995 . S
N334 C335 1.376 . S
N334 C338 1.383 . S
C335 N334 1.376 . S
C335 C336 1.446 1_545 S
C335 C358 1.391 . S
C336 C335 1.446 1_565 S
C336 C337 1.339 1_565 S
C336 H365 0.949 . S
C337 C336 1.339 1_545 S
C337 C338 1.439 . S
C337 H366 0.958 . S
C338 N334 1.383 . S
C338 C337 1.439 . S
C338 C356 1.392 . S
N339 Co323 2.282 . S
N339 C342 1.332 . S
N339 C344 1.332 . S
C340 C341 1.386 . S
C340 C343 1.388 . S
C341 C340 1.386 . S
C341 C342 1.382 . S
C341 H367 0.950 . S
C342 N339 1.332 . S
C342 C341 1.382 . S
C342 H353 0.952 . S
C343 C340 1.388 . S
C343 C344 1.382 . S
C343 H368 0.950 . S
C344 N339 1.332 . S
C344 C343 1.382 . S
C344 H354 0.948 . S
N345 Co323 2.282 . S
N345 C349 1.332 . S
N345 C350 1.332 . S
C346 C347 1.388 . S
C346 C350 1.382 . S
C346 H369 0.950 1_545 S
C347 C346 1.388 . S
C347 C348 1.386 . S
C348 C347 1.386 . S
C348 C349 1.382 . S
C348 H370 0.950 . S
C349 N345 1.332 . S
C349 C348 1.382 . S
C349 H351 0.952 . S
C350 N345 1.332 . S
C350 C346 1.382 . S
C350 H352 0.948 . S
H351 C349 0.952 . S
H352 C350 0.948 . S
H353 C342 0.952 . S
H354 C344 0.948 . S
C355 C321 1.395 . S
C355 C325 1.391 . S
C356 C318 1.389 . S
C356 C338 1.392 . S
C357 C328 1.392 . S
C357 C330 1.389 . S
C358 C333 1.395 . S
C358 C335 1.391 . S
H359 C319 0.951 . S
H360 C320 0.950 . S
H361 C326 0.949 . S
H362 C327 0.950 . S
H363 C331 0.951 . S
H364 C332 0.950 . S
H365 C336 0.949 . S
H366 C337 0.958 . S
H367 C341 0.950 . S
H368 C343 0.950 . S
H369 C346 0.950 1_565 S
H370 C348 0.950 . S
C371 C372 1.443 . S
C371 N375 1.376 . S
C371 C409 1.389 . S
C372 C371 1.443 . S
C372 C373 1.340 . S
C372 H412 0.951 . S
C373 C372 1.340 . S
C373 C374 1.439 . S
C373 H413 0.950 . S
C374 C373 1.439 . S
C374 N375 1.374 . S
C374 C408 1.395 . S
N375 C371 1.376 . S
N375 C374 1.374 . S
N375 Co376 2.008 . S
Co376 N375 2.008 . S
Co376 N377 1.995 . S
Co376 N382 2.008 . S
Co376 N387 1.995 . S
Co376 N392 2.282 . S
Co376 N398 2.282 . S
N377 Co376 1.995 . S
N377 C378 1.376 . S
N377 C381 1.383 . S
C378 N377 1.376 . S
C378 C379 1.446 . S
C378 C408 1.391 . S
C379 C378 1.446 . S
C379 C380 1.339 . S
C379 H414 0.949 . S
C380 C379 1.339 . S
C380 C381 1.439 . S
C380 H415 0.950 . S
C381 N377 1.383 . S
C381 C380 1.439 . S
C381 C410 1.392 . S
N382 Co376 2.008 . S
N382 C383 1.376 . S
N382 C386 1.374 . S
C383 N382 1.376 . S
C383 C384 1.443 . S
C383 C410 1.389 . S
C384 C383 1.443 . S
C384 C385 1.340 . S
C384 H416 0.951 . S
C385 C384 1.340 . S
C385 C386 1.439 . S
C385 H417 0.950 . S
C386 N382 1.374 . S
C386 C385 1.439 . S
C386 C411 1.395 . S
N387 Co376 1.995 . S
N387 C388 1.376 . S
N387 C391 1.383 . S
C388 N387 1.376 . S
C388 C389 1.446 1_565 S
C388 C411 1.391 . S
C389 C388 1.446 1_545 S
C389 C390 1.339 1_545 S
C389 H418 0.949 . S
C390 C389 1.339 1_565 S
C390 C391 1.439 . S
C390 H419 0.958 . S
C391 N387 1.383 . S
C391 C390 1.439 . S
C391 C409 1.392 . S
N392 Co376 2.282 . S
N392 C395 1.332 . S
N392 C397 1.332 . S
C393 C394 1.386 . S
C393 C396 1.388 . S
C394 C393 1.386 . S
C394 C395 1.382 . S
C394 H420 0.950 . S
C395 N392 1.332 . S
C395 C394 1.382 . S
C395 H406 0.952 . S
C396 C393 1.388 . S
C396 C397 1.382 . S
C396 H421 0.950 . S
C397 N392 1.332 . S
C397 C396 1.382 . S
C397 H407 0.948 . S
N398 Co376 2.282 . S
N398 C402 1.332 . S
N398 C403 1.332 . S
C399 C400 1.388 . S
C399 C403 1.382 . S
C399 H422 0.950 1_565 S
C400 C399 1.388 . S
C400 C401 1.386 . S
C401 C400 1.386 . S
C401 C402 1.382 . S
C401 H423 0.950 . S
C402 N398 1.332 . S
C402 C401 1.382 . S
C402 H404 0.952 . S
C403 N398 1.332 . S
C403 C399 1.382 . S
C403 H405 0.948 . S
H404 C402 0.952 . S
H405 C403 0.948 . S
H406 C395 0.952 . S
H407 C397 0.948 . S
C408 C374 1.395 . S
C408 C378 1.391 . S
C409 C371 1.389 . S
C409 C391 1.392 . S
C410 C381 1.392 . S
C410 C383 1.389 . S
C411 C386 1.395 . S
C411 C388 1.391 . S
H412 C372 0.951 . S
H413 C373 0.950 . S
H414 C379 0.949 . S
H415 C380 0.950 . S
H416 C384 0.951 . S
H417 C385 0.950 . S
H418 C389 0.949 . S
H419 C390 0.958 . S
H420 C394 0.950 . S
H421 C396 0.950 . S
H422 C399 0.950 1_545 S
H423 C401 0.950 . S
C424 C425 1.443 . S
C424 N428 1.376 . S
C424 C462 1.389 . S
C425 C424 1.443 . S
C425 C426 1.340 . S
C425 H465 0.951 . S
C426 C425 1.340 . S
C426 C427 1.439 . S
C426 H466 0.950 . S
C427 C426 1.439 . S
C427 N428 1.374 . S
C427 C461 1.395 . S
N428 C424 1.376 . S
N428 C427 1.374 . S
N428 Co429 2.008 . S
Co429 N428 2.008 . S
Co429 N430 1.995 . S
Co429 N435 2.008 . S
Co429 N440 1.995 . S
Co429 N445 2.282 . S
Co429 N451 2.282 . S
N430 Co429 1.995 . S
N430 C431 1.376 . S
N430 C434 1.383 . S
C431 N430 1.376 . S
C431 C432 1.446 . S
C431 C461 1.391 . S
C432 C431 1.446 . S
C432 C433 1.339 . S
C432 H467 0.949 . S
C433 C432 1.339 . S
C433 C434 1.439 . S
C433 H468 0.950 . S
C434 N430 1.383 . S
C434 C433 1.439 . S
C434 C463 1.392 . S
N435 Co429 2.008 . S
N435 C436 1.376 . S
N435 C439 1.374 . S
C436 N435 1.376 . S
C436 C437 1.443 . S
C436 C463 1.389 . S
C437 C436 1.443 . S
C437 C438 1.340 . S
C437 H469 0.951 . S
C438 C437 1.340 . S
C438 C439 1.439 . S
C438 H470 0.950 . S
C439 N435 1.374 . S
C439 C438 1.439 . S
C439 C464 1.395 . S
N440 Co429 1.995 . S
N440 C441 1.376 . S
N440 C444 1.383 . S
C441 N440 1.376 . S
C441 C442 1.446 . S
C441 C464 1.391 . S
C442 C441 1.446 . S
C442 C443 1.339 . S
C442 H471 0.949 . S
C443 C442 1.339 . S
C443 C444 1.439 . S
C443 H472 0.950 . S
C444 N440 1.383 . S
C444 C443 1.439 . S
C444 C462 1.392 . S
N445 Co429 2.282 . S
N445 C448 1.332 . S
N445 C450 1.332 . S
C446 C447 1.386 . S
C446 C449 1.388 . S
C447 C446 1.386 . S
C447 C448 1.382 . S
C447 H473 0.950 . S
C448 N445 1.332 . S
C448 C447 1.382 . S
C448 H459 0.952 . S
C449 C446 1.388 . S
C449 C450 1.382 . S
C449 H474 0.950 . S
C450 N445 1.332 . S
C450 C449 1.382 . S
C450 H460 0.948 . S
N451 Co429 2.282 . S
N451 C455 1.332 . S
N451 C456 1.332 . S
C452 C453 1.388 . S
C452 C456 1.382 . S
C452 H475 0.950 . S
C453 C452 1.388 . S
C453 C454 1.386 . S
C454 C453 1.386 . S
C454 C455 1.382 . S
C454 H476 0.950 . S
C455 N451 1.332 . S
C455 C454 1.382 . S
C455 H457 0.952 . S
C456 N451 1.332 . S
C456 C452 1.382 . S
C456 H458 0.948 . S
H457 C455 0.952 . S
H458 C456 0.948 . S
H459 C448 0.952 . S
H460 C450 0.948 . S
C461 C427 1.395 . S
C461 C431 1.391 . S
C462 C424 1.389 . S
C462 C444 1.392 . S
C463 C434 1.392 . S
C463 C436 1.389 . S
C464 C439 1.395 . S
C464 C441 1.391 . S
H465 C425 0.951 . S
H466 C426 0.950 . S
H467 C432 0.949 . S
H468 C433 0.950 . S
H469 C437 0.951 . S
H470 C438 0.950 . S
H471 C442 0.949 . S
H472 C443 0.950 . S
H473 C447 0.950 . S
H474 C449 0.950 . S
H475 C452 0.950 . S
H476 C454 0.950 . S
C477 C478 1.443 . S
C477 N481 1.376 . S
C477 C515 1.389 . S
C478 C477 1.443 . S
C478 C479 1.340 . S
C478 H518 0.951 . S
C479 C478 1.340 . S
C479 C480 1.439 . S
C479 H519 0.950 . S
C480 C479 1.439 . S
C480 N481 1.374 . S
C480 C514 1.395 . S
N481 C477 1.376 . S
N481 C480 1.374 . S
N481 Co482 2.008 . S
Co482 N481 2.008 . S
Co482 N483 1.995 . S
Co482 N488 2.008 . S
Co482 N493 1.995 . S
Co482 N498 2.282 . S
Co482 N504 2.282 . S
N483 Co482 1.995 . S
N483 C484 1.376 . S
N483 C487 1.383 . S
C484 N483 1.376 . S
C484 C485 1.446 . S
C484 C514 1.391 . S
C485 C484 1.446 . S
C485 C486 1.339 . S
C485 H520 0.949 . S
C486 C485 1.339 . S
C486 C487 1.439 . S
C486 H521 0.950 . S
C487 N483 1.383 . S
C487 C486 1.439 . S
C487 C516 1.392 . S
N488 Co482 2.008 . S
N488 C489 1.376 . S
N488 C492 1.374 . S
C489 N488 1.376 . S
C489 C490 1.443 . S
C489 C516 1.389 . S
C490 C489 1.443 . S
C490 C491 1.340 . S
C490 H522 0.951 . S
C491 C490 1.340 . S
C491 C492 1.439 . S
C491 H523 0.950 . S
C492 N488 1.374 . S
C492 C491 1.439 . S
C492 C517 1.395 . S
N493 Co482 1.995 . S
N493 C494 1.376 . S
N493 C497 1.383 . S
C494 N493 1.376 . S
C494 C495 1.446 . S
C494 C517 1.391 . S
C495 C494 1.446 . S
C495 C496 1.339 . S
C495 H524 0.949 . S
C496 C495 1.339 . S
C496 C497 1.439 . S
C496 H525 0.950 . S
C497 N493 1.383 . S
C497 C496 1.439 . S
C497 C515 1.392 . S
N498 Co482 2.282 . S
N498 C501 1.332 . S
N498 C503 1.332 . S
C499 C500 1.386 . S
C499 C502 1.388 . S
C500 C499 1.386 . S
C500 C501 1.382 . S
C500 H526 0.950 . S
C501 N498 1.332 . S
C501 C500 1.382 . S
C501 H512 0.952 . S
C502 C499 1.388 . S
C502 C503 1.382 . S
C502 H527 0.950 . S
C503 N498 1.332 . S
C503 C502 1.382 . S
C503 H513 0.948 . S
N504 Co482 2.282 . S
N504 C508 1.332 . S
N504 C509 1.332 . S
C505 C506 1.388 . S
C505 C509 1.382 . S
C505 H528 0.950 . S
C506 C505 1.388 . S
C506 C507 1.386 . S
C507 C506 1.386 . S
C507 C508 1.382 . S
C507 H529 0.950 . S
C508 N504 1.332 . S
C508 C507 1.382 . S
C508 H510 0.952 . S
C509 N504 1.332 . S
C509 C505 1.382 . S
C509 H511 0.948 . S
H510 C508 0.952 . S
H511 C509 0.948 . S
H512 C501 0.952 . S
H513 C503 0.948 . S
C514 C480 1.395 . S
C514 C484 1.391 . S
C515 C477 1.389 . S
C515 C497 1.392 . S
C516 C487 1.392 . S
C516 C489 1.389 . S
C517 C492 1.395 . S
C517 C494 1.391 . S
H518 C478 0.951 . S
H519 C479 0.950 . S
H520 C485 0.949 . S
H521 C486 0.950 . S
H522 C490 0.951 . S
H523 C491 0.950 . S
H524 C495 0.949 . S
H525 C496 0.950 . S
H526 C500 0.950 . S
H527 C502 0.950 . S
H528 C505 0.950 . S
H529 C507 0.950 . S
C530 C531 1.443 . S
C530 N534 1.376 . S
C530 C568 1.389 . S
C531 C530 1.443 . S
C531 C532 1.340 . S
C531 H571 0.951 . S
C532 C531 1.340 . S
C532 C533 1.439 . S
C532 H572 0.950 . S
C533 C532 1.439 . S
C533 N534 1.374 . S
C533 C567 1.395 . S
N534 C530 1.376 . S
N534 C533 1.374 . S
N534 Co535 2.008 . S
Co535 N534 2.008 . S
Co535 N536 1.995 . S
Co535 N541 2.008 . S
Co535 N546 1.995 . S
Co535 N551 2.282 . S
Co535 N557 2.282 . S
N536 Co535 1.995 . S
N536 C537 1.376 . S
N536 C540 1.383 . S
C537 N536 1.376 . S
C537 C538 1.446 . S
C537 C567 1.391 . S
C538 C537 1.446 . S
C538 C539 1.339 . S
C538 H573 0.949 . S
C539 C538 1.339 . S
C539 C540 1.439 . S
C539 H574 0.950 . S
C540 N536 1.383 . S
C540 C539 1.439 . S
C540 C569 1.392 . S
N541 Co535 2.008 . S
N541 C542 1.376 . S
N541 C545 1.374 . S
C542 N541 1.376 . S
C542 C543 1.443 . S
C542 C569 1.389 . S
C543 C542 1.443 . S
C543 C544 1.340 . S
C543 H575 0.951 . S
C544 C543 1.340 . S
C544 C545 1.439 . S
C544 H576 0.950 . S
C545 N541 1.374 . S
C545 C544 1.439 . S
C545 C570 1.395 . S
N546 Co535 1.995 . S
N546 C547 1.376 . S
N546 C550 1.383 . S
C547 N546 1.376 . S
C547 C548 1.446 . S
C547 C570 1.391 . S
C548 C547 1.446 . S
C548 C549 1.339 . S
C548 H577 0.949 . S
C549 C548 1.339 . S
C549 C550 1.439 . S
C549 H578 0.950 . S
C550 N546 1.383 . S
C550 C549 1.439 . S
C550 C568 1.392 . S
N551 Co535 2.282 . S
N551 C554 1.332 . S
N551 C556 1.332 . S
C552 C553 1.386 . S
C552 C555 1.388 . S
C553 C552 1.386 . S
C553 C554 1.382 . S
C553 H579 0.950 . S
C554 N551 1.332 . S
C554 C553 1.382 . S
C554 H565 0.952 . S
C555 C552 1.388 . S
C555 C556 1.382 . S
C555 H580 0.950 . S
C556 N551 1.332 . S
C556 C555 1.382 . S
C556 H566 0.948 . S
N557 Co535 2.282 . S
N557 C561 1.332 . S
N557 C562 1.332 . S
C558 C559 1.388 . S
C558 C562 1.382 . S
C558 H581 0.950 . S
C559 C558 1.388 . S
C559 C560 1.386 . S
C560 C559 1.386 . S
C560 C561 1.382 . S
C560 H582 0.950 . S
C561 N557 1.332 . S
C561 C560 1.382 . S
C561 H563 0.952 . S
C562 N557 1.332 . S
C562 C558 1.382 . S
C562 H564 0.948 . S
H563 C561 0.952 . S
H564 C562 0.948 . S
H565 C554 0.952 . S
H566 C556 0.948 . S
C567 C533 1.395 . S
C567 C537 1.391 . S
C568 C530 1.389 . S
C568 C550 1.392 . S
C569 C540 1.392 . S
C569 C542 1.389 . S
C570 C545 1.395 . S
C570 C547 1.391 . S
H571 C531 0.951 . S
H572 C532 0.950 . S
H573 C538 0.949 . S
H574 C539 0.950 . S
H575 C543 0.951 . S
H576 C544 0.950 . S
H577 C548 0.949 . S
H578 C549 0.950 . S
H579 C553 0.950 . S
H580 C555 0.950 . S
H581 C558 0.950 . S
H582 C560 0.950 . S
C583 C584 1.443 . S
C583 N587 1.376 . S
C583 C621 1.389 . S
C584 C583 1.443 . S
C584 C585 1.340 . S
C584 H624 0.951 . S
C585 C584 1.340 . S
C585 C586 1.439 . S
C585 H625 0.950 . S
C586 C585 1.439 . S
C586 N587 1.374 . S
C586 C620 1.395 . S
N587 C583 1.376 . S
N587 C586 1.374 . S
N587 Co588 2.008 . S
Co588 N587 2.008 . S
Co588 N589 1.995 . S
Co588 N594 2.008 . S
Co588 N599 1.995 . S
Co588 N604 2.282 . S
Co588 N610 2.282 . S
N589 Co588 1.995 . S
N589 C590 1.376 . S
N589 C593 1.383 . S
C590 N589 1.376 . S
C590 C591 1.446 . S
C590 C620 1.391 . S
C591 C590 1.446 . S
C591 C592 1.339 . S
C591 H626 0.949 . S
C592 C591 1.339 . S
C592 C593 1.439 . S
C592 H627 0.950 . S
C593 N589 1.383 . S
C593 C592 1.439 . S
C593 C622 1.392 . S
N594 Co588 2.008 . S
N594 C595 1.376 . S
N594 C598 1.374 . S
C595 N594 1.376 . S
C595 C596 1.443 . S
C595 C622 1.389 . S
C596 C595 1.443 . S
C596 C597 1.340 . S
C596 H628 0.951 . S
C597 C596 1.340 . S
C597 C598 1.439 . S
C597 H629 0.950 . S
C598 N594 1.374 . S
C598 C597 1.439 . S
C598 C623 1.395 . S
N599 Co588 1.995 . S
N599 C600 1.376 . S
N599 C603 1.383 . S
C600 N599 1.376 . S
C600 C601 1.446 . S
C600 C623 1.391 . S
C601 C600 1.446 . S
C601 C602 1.339 . S
C601 H630 0.949 . S
C602 C601 1.339 . S
C602 C603 1.439 . S
C602 H631 0.950 . S
C603 N599 1.383 . S
C603 C602 1.439 . S
C603 C621 1.392 . S
N604 Co588 2.282 . S
N604 C607 1.332 . S
N604 C609 1.332 . S
C605 C606 1.386 . S
C605 C608 1.388 . S
C606 C605 1.386 . S
C606 C607 1.382 . S
C606 H632 0.950 . S
C607 N604 1.332 . S
C607 C606 1.382 . S
C607 H618 0.952 . S
C608 C605 1.388 . S
C608 C609 1.382 . S
C608 H633 0.950 . S
C609 N604 1.332 . S
C609 C608 1.382 . S
C609 H619 0.948 . S
N610 Co588 2.282 . S
N610 C614 1.332 . S
N610 C615 1.332 . S
C611 C612 1.388 . S
C611 C615 1.382 . S
C611 H634 0.950 . S
C612 C611 1.388 . S
C612 C613 1.386 . S
C613 C612 1.386 . S
C613 C614 1.382 . S
C613 H635 0.950 . S
C614 N610 1.332 . S
C614 C613 1.382 . S
C614 H616 0.952 . S
C615 N610 1.332 . S
C615 C611 1.382 . S
C615 H617 0.948 . S
H616 C614 0.952 . S
H617 C615 0.948 . S
H618 C607 0.952 . S
H619 C609 0.948 . S
C620 C586 1.395 . S
C620 C590 1.391 . S
C621 C583 1.389 . S
C621 C603 1.392 . S
C622 C593 1.392 . S
C622 C595 1.389 . S
C623 C598 1.395 . S
C623 C600 1.391 . S
H624 C584 0.951 . S
H625 C585 0.950 . S
H626 C591 0.949 . S
H627 C592 0.950 . S
H628 C596 0.951 . S
H629 C597 0.950 . S
H630 C601 0.949 . S
H631 C602 0.950 . S
H632 C606 0.950 . S
H633 C608 0.950 . S
H634 C611 0.950 . S
H635 C613 0.950 . S
C636 C637 1.443 . S
C636 N640 1.376 . S
C636 C674 1.389 . S
C637 C636 1.443 . S
C637 C638 1.340 . S
C637 H677 0.951 . S
C638 C637 1.340 . S
C638 C639 1.439 . S
C638 H678 0.950 . S
C639 C638 1.439 . S
C639 N640 1.374 . S
C639 C673 1.395 . S
N640 C636 1.376 . S
N640 C639 1.374 . S
N640 Co641 2.008 . S
Co641 N640 2.008 . S
Co641 N642 1.995 . S
Co641 N647 2.008 . S
Co641 N652 1.995 . S
Co641 N657 2.282 . S
Co641 N663 2.282 . S
N642 Co641 1.995 . S
N642 C643 1.376 . S
N642 C646 1.383 . S
C643 N642 1.376 . S
C643 C644 1.446 . S
C643 C673 1.391 . S
C644 C643 1.446 . S
C644 C645 1.339 . S
C644 H679 0.949 . S
C645 C644 1.339 . S
C645 C646 1.439 . S
C645 H680 0.950 . S
C646 N642 1.383 . S
C646 C645 1.439 . S
C646 C675 1.392 . S
N647 Co641 2.008 . S
N647 C648 1.376 . S
N647 C651 1.374 . S
C648 N647 1.376 . S
C648 C649 1.443 . S
C648 C675 1.389 . S
C649 C648 1.443 . S
C649 C650 1.340 . S
C649 H681 0.951 . S
C650 C649 1.340 . S
C650 C651 1.439 . S
C650 H682 0.950 . S
C651 N647 1.374 . S
C651 C650 1.439 . S
C651 C676 1.395 . S
N652 Co641 1.995 . S
N652 C653 1.376 . S
N652 C656 1.383 . S
C653 N652 1.376 . S
C653 C654 1.446 . S
C653 C676 1.391 . S
C654 C653 1.446 . S
C654 C655 1.339 . S
C654 H683 0.949 . S
C655 C654 1.339 . S
C655 C656 1.439 . S
C655 H684 0.950 . S
C656 N652 1.383 . S
C656 C655 1.439 . S
C656 C674 1.392 . S
N657 Co641 2.282 . S
N657 C660 1.332 . S
N657 C662 1.332 . S
C658 C659 1.386 . S
C658 C661 1.388 . S
C659 C658 1.386 . S
C659 C660 1.382 . S
C659 H685 0.950 . S
C660 N657 1.332 . S
C660 C659 1.382 . S
C660 H671 0.952 . S
C661 C658 1.388 . S
C661 C662 1.382 . S
C661 H686 0.950 . S
C662 N657 1.332 . S
C662 C661 1.382 . S
C662 H672 0.948 . S
N663 Co641 2.282 . S
N663 C667 1.332 . S
N663 C668 1.332 . S
C664 C665 1.388 . S
C664 C668 1.382 . S
C664 H687 0.950 . S
C665 C664 1.388 . S
C665 C666 1.386 . S
C666 C665 1.386 . S
C666 C667 1.382 . S
C666 H688 0.950 . S
C667 N663 1.332 . S
C667 C666 1.382 . S
C667 H669 0.952 . S
C668 N663 1.332 . S
C668 C664 1.382 . S
C668 H670 0.948 . S
H669 C667 0.952 . S
H670 C668 0.948 . S
H671 C660 0.952 . S
H672 C662 0.948 . S
C673 C639 1.395 . S
C673 C643 1.391 . S
C674 C636 1.389 . S
C674 C656 1.392 . S
C675 C646 1.392 . S
C675 C648 1.389 . S
C676 C651 1.395 . S
C676 C653 1.391 . S
H677 C637 0.951 . S
H678 C638 0.950 . S
H679 C644 0.949 . S
H680 C645 0.950 . S
H681 C649 0.951 . S
H682 C650 0.950 . S
H683 C654 0.949 . S
H684 C655 0.950 . S
H685 C659 0.950 . S
H686 C661 0.950 . S
H687 C664 0.950 . S
H688 C666 0.950 . S
C689 C690 1.443 . S
C689 N693 1.376 . S
C689 C727 1.389 . S
C690 C689 1.443 . S
C690 C691 1.340 . S
C690 H730 0.951 . S
C691 C690 1.340 . S
C691 C692 1.439 . S
C691 H731 0.950 . S
C692 C691 1.439 . S
C692 N693 1.374 . S
C692 C726 1.395 . S
N693 C689 1.376 . S
N693 C692 1.374 . S
N693 Co694 2.008 . S
Co694 N693 2.008 . S
Co694 N695 1.995 . S
Co694 N700 2.008 . S
Co694 N705 1.995 . S
Co694 N710 2.282 . S
Co694 N716 2.282 . S
N695 Co694 1.995 . S
N695 C696 1.376 . S
N695 C699 1.383 . S
C696 N695 1.376 . S
C696 C697 1.446 . S
C696 C726 1.391 . S
C697 C696 1.446 . S
C697 C698 1.339 . S
C697 H732 0.949 . S
C698 C697 1.339 . S
C698 C699 1.439 . S
C698 H733 0.950 . S
C699 N695 1.383 . S
C699 C698 1.439 . S
C699 C728 1.392 . S
N700 Co694 2.008 . S
N700 C701 1.376 . S
N700 C704 1.374 . S
C701 N700 1.376 . S
C701 C702 1.443 . S
C701 C728 1.389 . S
C702 C701 1.443 . S
C702 C703 1.340 . S
C702 H734 0.951 . S
C703 C702 1.340 . S
C703 C704 1.439 . S
C703 H735 0.950 . S
C704 N700 1.374 . S
C704 C703 1.439 . S
C704 C729 1.395 . S
N705 Co694 1.995 . S
N705 C706 1.376 . S
N705 C709 1.383 . S
C706 N705 1.376 . S
C706 C707 1.446 . S
C706 C729 1.391 . S
C707 C706 1.446 . S
C707 C708 1.339 . S
C707 H736 0.949 . S
C708 C707 1.339 . S
C708 C709 1.439 . S
C708 H737 0.950 . S
C709 N705 1.383 . S
C709 C708 1.439 . S
C709 C727 1.392 . S
N710 Co694 2.282 . S
N710 C713 1.332 . S
N710 C715 1.332 . S
C711 C712 1.386 . S
C711 C714 1.388 . S
C712 C711 1.386 . S
C712 C713 1.382 . S
C712 H738 0.950 . S
C713 N710 1.332 . S
C713 C712 1.382 . S
C713 H724 0.952 . S
C714 C711 1.388 . S
C714 C715 1.382 . S
C714 H739 0.950 . S
C715 N710 1.332 . S
C715 C714 1.382 . S
C715 H725 0.948 . S
N716 Co694 2.282 . S
N716 C720 1.332 . S
N716 C721 1.332 . S
C717 C718 1.388 . S
C717 C721 1.382 . S
C717 H740 0.950 . S
C718 C717 1.388 . S
C718 C719 1.386 . S
C719 C718 1.386 . S
C719 C720 1.382 . S
C719 H741 0.950 . S
C720 N716 1.332 . S
C720 C719 1.382 . S
C720 H722 0.952 . S
C721 N716 1.332 . S
C721 C717 1.382 . S
C721 H723 0.948 . S
H722 C720 0.952 . S
H723 C721 0.948 . S
H724 C713 0.952 . S
H725 C715 0.948 . S
C726 C692 1.395 . S
C726 C696 1.391 . S
C727 C689 1.389 . S
C727 C709 1.392 . S
C728 C699 1.392 . S
C728 C701 1.389 . S
C729 C704 1.395 . S
C729 C706 1.391 . S
H730 C690 0.951 . S
H731 C691 0.950 . S
H732 C697 0.949 . S
H733 C698 0.950 . S
H734 C702 0.951 . S
H735 C703 0.950 . S
H736 C707 0.949 . S
H737 C708 0.950 . S
H738 C712 0.950 . S
H739 C714 0.950 . S
H740 C717 0.950 . S
H741 C719 0.950 . S
C742 C743 1.443 . S
C742 N746 1.376 . S
C742 C780 1.389 . S
C743 C742 1.443 . S
C743 C744 1.340 . S
C743 H783 0.951 . S
C744 C743 1.340 . S
C744 C745 1.439 . S
C744 H784 0.950 . S
C745 C744 1.439 . S
C745 N746 1.374 . S
C745 C779 1.395 . S
N746 C742 1.376 . S
N746 C745 1.374 . S
N746 Co747 2.008 . S
Co747 N746 2.008 . S
Co747 N748 1.995 . S
Co747 N753 2.008 . S
Co747 N758 1.995 . S
Co747 N763 2.282 . S
Co747 N769 2.282 . S
N748 Co747 1.995 . S
N748 C749 1.376 . S
N748 C752 1.383 . S
C749 N748 1.376 . S
C749 C750 1.446 . S
C749 C779 1.391 . S
C750 C749 1.446 . S
C750 C751 1.339 . S
C750 H785 0.949 . S
C751 C750 1.339 . S
C751 C752 1.439 . S
C751 H786 0.950 . S
C752 N748 1.383 . S
C752 C751 1.439 . S
C752 C781 1.392 . S
N753 Co747 2.008 . S
N753 C754 1.376 . S
N753 C757 1.374 . S
C754 N753 1.376 . S
C754 C755 1.443 . S
C754 C781 1.389 . S
C755 C754 1.443 . S
C755 C756 1.340 . S
C755 H787 0.951 . S
C756 C755 1.340 . S
C756 C757 1.439 . S
C756 H788 0.950 . S
C757 N753 1.374 . S
C757 C756 1.439 . S
C757 C782 1.395 . S
N758 Co747 1.995 . S
N758 C759 1.376 . S
N758 C762 1.383 . S
C759 N758 1.376 . S
C759 C760 1.446 . S
C759 C782 1.391 . S
C760 C759 1.446 . S
C760 C761 1.339 . S
C760 H789 0.949 . S
C761 C760 1.339 . S
C761 C762 1.439 . S
C761 H790 0.950 . S
C762 N758 1.383 . S
C762 C761 1.439 . S
C762 C780 1.392 . S
N763 Co747 2.282 . S
N763 C766 1.332 . S
N763 C768 1.332 . S
C764 C765 1.386 . S
C764 C767 1.388 . S
C765 C764 1.386 . S
C765 C766 1.382 . S
C765 H791 0.950 . S
C766 N763 1.332 . S
C766 C765 1.382 . S
C766 H777 0.952 . S
C767 C764 1.388 . S
C767 C768 1.382 . S
C767 H792 0.950 . S
C768 N763 1.332 . S
C768 C767 1.382 . S
C768 H778 0.948 . S
N769 Co747 2.282 . S
N769 C773 1.332 . S
N769 C774 1.332 . S
C770 C771 1.388 . S
C770 C774 1.382 . S
C770 H793 0.950 . S
C771 C770 1.388 . S
C771 C772 1.386 . S
C772 C771 1.386 . S
C772 C773 1.382 . S
C772 H794 0.950 . S
C773 N769 1.332 . S
C773 C772 1.382 . S
C773 H775 0.952 . S
C774 N769 1.332 . S
C774 C770 1.382 . S
C774 H776 0.948 . S
H775 C773 0.952 . S
H776 C774 0.948 . S
H777 C766 0.952 . S
H778 C768 0.948 . S
C779 C745 1.395 . S
C779 C749 1.391 . S
C780 C742 1.389 . S
C780 C762 1.392 . S
C781 C752 1.392 . S
C781 C754 1.389 . S
C782 C757 1.395 . S
C782 C759 1.391 . S
H783 C743 0.951 . S
H784 C744 0.950 . S
H785 C750 0.949 . S
H786 C751 0.950 . S
H787 C755 0.951 . S
H788 C756 0.950 . S
H789 C760 0.949 . S
H790 C761 0.950 . S
H791 C765 0.950 . S
H792 C767 0.950 . S
H793 C770 0.950 . S
H794 C772 0.950 . S
C795 C796 1.443 . S
C795 N799 1.376 . S
C795 C833 1.389 . S
C796 C795 1.443 . S
C796 C797 1.340 . S
C796 H836 0.951 . S
C797 C796 1.340 . S
C797 C798 1.439 . S
C797 H837 0.950 . S
C798 C797 1.439 . S
C798 N799 1.374 . S
C798 C832 1.395 . S
N799 C795 1.376 . S
N799 C798 1.374 . S
N799 Co800 2.008 . S
Co800 N799 2.008 . S
Co800 N801 1.995 . S
Co800 N806 2.008 . S
Co800 N811 1.995 . S
Co800 N816 2.282 . S
Co800 N822 2.282 . S
N801 Co800 1.995 . S
N801 C802 1.376 . S
N801 C805 1.383 . S
C802 N801 1.376 . S
C802 C803 1.446 . S
C802 C832 1.391 . S
C803 C802 1.446 . S
C803 C804 1.339 . S
C803 H838 0.949 . S
C804 C803 1.339 . S
C804 C805 1.439 . S
C804 H839 0.950 . S
C805 N801 1.383 . S
C805 C804 1.439 . S
C805 C834 1.392 . S
N806 Co800 2.008 . S
N806 C807 1.376 . S
N806 C810 1.374 . S
C807 N806 1.376 . S
C807 C808 1.443 . S
C807 C834 1.389 . S
C808 C807 1.443 . S
C808 C809 1.340 . S
C808 H840 0.951 . S
C809 C808 1.340 . S
C809 C810 1.439 . S
C809 H841 0.950 . S
C810 N806 1.374 . S
C810 C809 1.439 . S
C810 C835 1.395 . S
N811 Co800 1.995 . S
N811 C812 1.376 . S
N811 C815 1.383 . S
C812 N811 1.376 . S
C812 C813 1.446 . S
C812 C835 1.391 . S
C813 C812 1.446 . S
C813 C814 1.339 . S
C813 H842 0.949 . S
C814 C813 1.339 . S
C814 C815 1.439 . S
C814 H843 0.950 . S
C815 N811 1.383 . S
C815 C814 1.439 . S
C815 C833 1.392 . S
N816 Co800 2.282 . S
N816 C819 1.332 . S
N816 C821 1.332 . S
C817 C818 1.386 . S
C817 C820 1.388 . S
C818 C817 1.386 . S
C818 C819 1.382 . S
C818 H844 0.950 . S
C819 N816 1.332 . S
C819 C818 1.382 . S
C819 H830 0.952 . S
C820 C817 1.388 . S
C820 C821 1.382 . S
C820 H845 0.950 . S
C821 N816 1.332 . S
C821 C820 1.382 . S
C821 H831 0.948 . S
N822 Co800 2.282 . S
N822 C826 1.332 . S
N822 C827 1.332 . S
C823 C824 1.388 . S
C823 C827 1.382 . S
C823 H846 0.950 . S
C824 C823 1.388 . S
C824 C825 1.386 . S
C825 C824 1.386 . S
C825 C826 1.382 . S
C825 H847 0.950 . S
C826 N822 1.332 . S
C826 C825 1.382 . S
C826 H828 0.952 . S
C827 N822 1.332 . S
C827 C823 1.382 . S
C827 H829 0.948 . S
H828 C826 0.952 . S
H829 C827 0.948 . S
H830 C819 0.952 . S
H831 C821 0.948 . S
C832 C798 1.395 . S
C832 C802 1.391 . S
C833 C795 1.389 . S
C833 C815 1.392 . S
C834 C805 1.392 . S
C834 C807 1.389 . S
C835 C810 1.395 . S
C835 C812 1.391 . S
H836 C796 0.951 . S
H837 C797 0.950 . S
H838 C803 0.949 . S
H839 C804 0.950 . S
H840 C808 0.951 . S
H841 C809 0.950 . S
H842 C813 0.949 . S
H843 C814 0.950 . S
H844 C818 0.950 . S
H845 C820 0.950 . S
H846 C823 0.950 . S
H847 C825 0.950 . S
C848 C849 1.387 . S
C848 H852 0.950 . S
C848 C857 1.390 . S
C849 C848 1.387 . S
C849 C851 1.387 . S
H850 C857 0.950 . S
C851 C849 1.387 . S
C851 C853 1.390 . S
C851 H855 0.950 . S
H852 C848 0.950 . S
C853 C851 1.390 . S
C853 C854 1.387 . S
C853 H856 0.950 . S
C854 C853 1.387 . S
C854 C857 1.387 . S
H855 C851 0.950 . S
H856 C853 0.950 . S
C857 C848 1.390 . S
C857 H850 0.950 . S
C857 C854 1.387 . S
C858 C859 1.387 . S
C858 H862 0.950 . S
C858 C867 1.390 . S
C859 C858 1.387 . S
C859 C861 1.387 . S
H860 C867 0.950 . S
C861 C859 1.387 . S
C861 C863 1.390 . S
C861 H865 0.950 . S
H862 C858 0.950 . S
C863 C861 1.390 . S
C863 C864 1.387 . S
C863 H866 0.950 . S
C864 C863 1.387 . S
C864 C867 1.387 . S
H865 C861 0.950 . S
H866 C863 0.950 . S
C867 C858 1.390 . S
C867 H860 0.950 . S
C867 C864 1.387 . S
C868 C869 1.387 . S
C868 H872 0.950 . S
C868 C877 1.390 1_554 S
C869 C868 1.387 . S
C869 C871 1.387 . S
H870 C877 0.950 . S
C871 C869 1.387 . S
C871 C873 1.390 1_554 S
C871 H875 0.950 . S
H872 C868 0.950 . S
C873 C871 1.390 1_556 S
C873 C874 1.387 . S
C873 H876 0.950 . S
C874 C873 1.387 . S
C874 C877 1.387 . S
H875 C871 0.950 . S
H876 C873 0.950 . S
C877 C868 1.390 1_556 S
C877 H870 0.950 . S
C877 C874 1.387 . S
C878 C879 1.387 . S
C878 H882 0.950 . S
C878 C887 1.390 1_556 S
C879 C878 1.387 . S
C879 C881 1.387 . S
H880 C887 0.950 . S
C881 C879 1.387 . S
C881 C883 1.390 1_556 S
C881 H885 0.950 . S
H882 C878 0.950 . S
C883 C881 1.390 1_554 S
C883 C884 1.387 . S
C883 H886 0.950 . S
C884 C883 1.387 . S
C884 C887 1.387 . S
H885 C881 0.950 . S
H886 C883 0.950 . S
C887 C878 1.390 1_554 S
C887 H880 0.950 . S
C887 C884 1.387 . S
C888 C889 1.387 . S
C888 H892 0.950 . S
C888 C897 1.390 . S
C889 C888 1.387 . S
C889 C891 1.387 . S
H890 C897 0.950 . S
C891 C889 1.387 . S
C891 C893 1.390 . S
C891 H895 0.950 . S
H892 C888 0.950 . S
C893 C891 1.390 . S
C893 C894 1.387 . S
C893 H896 0.950 . S
C894 C893 1.387 . S
C894 C897 1.387 . S
H895 C891 0.950 . S
H896 C893 0.950 . S
C897 C888 1.390 . S
C897 H890 0.950 . S
C897 C894 1.387 . S
C898 C899 1.387 . S
C898 H902 0.950 . S
C898 C907 1.390 . S
C899 C898 1.387 . S
C899 C901 1.387 . S
H900 C907 0.950 . S
C901 C899 1.387 . S
C901 C903 1.390 . S
C901 H905 0.950 . S
H902 C898 0.950 . S
C903 C901 1.390 . S
C903 C904 1.387 . S
C903 H906 0.950 . S
C904 C903 1.387 . S
C904 C907 1.387 . S
H905 C901 0.950 . S
H906 C903 0.950 . S
C907 C898 1.390 . S
C907 H900 0.950 . S
C907 C904 1.387 . S
C908 C909 1.387 . S
C908 H912 0.950 . S
C908 C917 1.390 1_556 S
C909 C908 1.387 . S
C909 C911 1.387 . S
H910 C917 0.950 . S
C911 C909 1.387 . S
C911 C913 1.390 1_556 S
C911 H915 0.950 . S
H912 C908 0.950 . S
C913 C911 1.390 1_554 S
C913 C914 1.387 . S
C913 H916 0.950 . S
C914 C913 1.387 . S
C914 C917 1.387 . S
H915 C911 0.950 . S
H916 C913 0.950 . S
C917 C908 1.390 1_554 S
C917 H910 0.950 . S
C917 C914 1.387 . S
C918 C919 1.387 . S
C918 H922 0.950 . S
C918 C927 1.390 1_554 S
C919 C918 1.387 . S
C919 C921 1.387 . S
H920 C927 0.950 . S
C921 C919 1.387 . S
C921 C923 1.390 1_554 S
C921 H925 0.950 . S
H922 C918 0.950 . S
C923 C921 1.390 1_556 S
C923 C924 1.387 . S
C923 H926 0.950 . S
C924 C923 1.387 . S
C924 C927 1.387 . S
H925 C921 0.950 . S
H926 C923 0.950 . S
C927 C918 1.390 1_556 S
C927 H920 0.950 . S
C927 C924 1.387 . S
C928 C929 1.387 . S
C928 H932 0.950 . S
C928 C937 1.390 1_565 S
C929 C928 1.387 . S
C929 C931 1.387 . S
H930 C937 0.950 . S
C931 C929 1.387 . S
C931 C933 1.390 1_565 S
C931 H935 0.950 . S
H932 C928 0.950 . S
C933 C931 1.390 1_545 S
C933 C934 1.387 . S
C933 H936 0.950 . S
C934 C933 1.387 . S
C934 C937 1.387 . S
H935 C931 0.950 . S
H936 C933 0.950 . S
C937 C928 1.390 1_545 S
C937 H930 0.950 . S
C937 C934 1.387 . S
C938 C939 1.387 . S
C938 H942 0.950 . S
C938 C947 1.390 1_565 S
C939 C938 1.387 . S
C939 C941 1.387 . S
H940 C947 0.950 . S
C941 C939 1.387 . S
C941 C943 1.390 1_565 S
C941 H945 0.950 . S
H942 C938 0.950 . S
C943 C941 1.390 1_545 S
C943 C944 1.387 . S
C943 H946 0.950 . S
C944 C943 1.387 . S
C944 C947 1.387 . S
H945 C941 0.950 . S
H946 C943 0.950 . S
C947 C938 1.390 1_545 S
C947 H940 0.950 . S
C947 C944 1.387 . S
C948 C949 1.387 . S
C948 H952 0.950 . S
C948 C957 1.390 1_565 S
C949 C948 1.387 . S
C949 C951 1.387 . S
H950 C957 0.950 . S
C951 C949 1.387 . S
C951 C953 1.390 1_565 S
C951 H955 0.950 . S
H952 C948 0.950 . S
C953 C951 1.390 1_545 S
C953 C954 1.387 . S
C953 H956 0.950 . S
C954 C953 1.387 . S
C954 C957 1.387 . S
H955 C951 0.950 . S
H956 C953 0.950 . S
C957 C948 1.390 1_545 S
C957 H950 0.950 . S
C957 C954 1.387 . S
C958 C959 1.387 . S
C958 H962 0.950 . S
C958 C967 1.390 1_545 S
C959 C958 1.387 . S
C959 C961 1.387 . S
H960 C967 0.950 . S
C961 C959 1.387 . S
C961 C963 1.390 1_545 S
C961 H965 0.950 . S
H962 C958 0.950 . S
C963 C961 1.390 1_565 S
C963 C964 1.387 . S
C963 H966 0.950 . S
C964 C963 1.387 . S
C964 C967 1.387 . S
H965 C961 0.950 . S
H966 C963 0.950 . S
C967 C958 1.390 1_565 S
C967 H960 0.950 . S
C967 C964 1.387 . S
C968 C969 1.387 . S
C968 H972 0.950 . S
C968 C977 1.390 1_655 S
C969 C968 1.387 . S
C969 C971 1.387 . S
H970 C977 0.950 . S
C971 C969 1.387 . S
C971 C973 1.390 1_655 S
C971 H975 0.950 . S
H972 C968 0.950 . S
C973 C971 1.390 1_455 S
C973 C974 1.387 . S
C973 H976 0.950 . S
C974 C973 1.387 . S
C974 C977 1.387 . S
H975 C971 0.950 . S
H976 C973 0.950 . S
C977 C968 1.390 1_455 S
C977 H970 0.950 . S
C977 C974 1.387 . S
C978 C979 1.387 . S
C978 H982 0.950 . S
C978 C987 1.390 1_455 S
C979 C978 1.387 . S
C979 C981 1.387 . S
H980 C987 0.950 . S
C981 C979 1.387 . S
C981 C983 1.390 1_455 S
C981 H985 0.950 . S
H982 C978 0.950 . S
C983 C981 1.390 1_655 S
C983 C984 1.387 . S
C983 H986 0.950 . S
C984 C983 1.387 . S
C984 C987 1.387 . S
H985 C981 0.950 . S
H986 C983 0.950 . S
C987 C978 1.390 1_655 S
C987 H980 0.950 . S
C987 C984 1.387 . S
C988 C989 1.387 . S
C988 H992 0.950 . S
C988 C997 1.390 1_655 S
C989 C988 1.387 . S
C989 C991 1.387 . S
H990 C997 0.950 . S
C991 C989 1.387 . S
C991 C993 1.390 1_655 S
C991 H995 0.950 . S
H992 C988 0.950 . S
C993 C991 1.390 1_455 S
C993 C994 1.387 . S
C993 H996 0.950 . S
C994 C993 1.387 . S
C994 C997 1.387 . S
H995 C991 0.950 . S
H996 C993 0.950 . S
C997 C988 1.390 1_455 S
C997 H990 0.950 . S
C997 C994 1.387 . S
C998 C999 1.387 . S
C998 H1002 0.950 . S
C998 C1007 1.390 1_455 S
C999 C998 1.387 . S
C999 C1001 1.387 . S
H1000 C1007 0.950 . S
C1001 C999 1.387 . S
C1001 C1003 1.390 1_455 S
C1001 H1005 0.950 . S
H1002 C998 0.950 . S
C1003 C1001 1.390 1_655 S
C1003 C1004 1.387 . S
C1003 H1006 0.950 . S
C1004 C1003 1.387 . S
C1004 C1007 1.387 . S
H1005 C1001 0.950 . S
H1006 C1003 0.950 . S
C1007 C998 1.390 1_655 S
C1007 H1000 0.950 . S
C1007 C1004 1.387 . S
C1008 C1009 1.387 . S
C1008 H1012 0.950 . S
C1008 C1017 1.390 . S
C1009 C1008 1.387 . S
C1009 C1011 1.387 . S
H1010 C1017 0.950 . S
C1011 C1009 1.387 . S
C1011 C1013 1.390 . S
C1011 H1015 0.950 . S
H1012 C1008 0.950 . S
C1013 C1011 1.390 . S
C1013 C1014 1.387 . S
C1013 H1016 0.950 . S
C1014 C1013 1.387 . S
C1014 C1017 1.387 . S
H1015 C1011 0.950 . S
H1016 C1013 0.950 . S
C1017 C1008 1.390 . S
C1017 H1010 0.950 . S
C1017 C1014 1.387 . S
C1018 C1019 1.387 . S
C1018 H1022 0.950 . S
C1018 C1027 1.390 . S
C1019 C1018 1.387 . S
C1019 C1021 1.387 . S
H1020 C1027 0.950 . S
C1021 C1019 1.387 . S
C1021 C1023 1.390 . S
C1021 H1025 0.950 . S
H1022 C1018 0.950 . S
C1023 C1021 1.390 . S
C1023 C1024 1.387 . S
C1023 H1026 0.950 . S
C1024 C1023 1.387 . S
C1024 C1027 1.387 . S
H1025 C1021 0.950 . S
H1026 C1023 0.950 . S
C1027 C1018 1.390 . S
C1027 H1020 0.950 . S
C1027 C1024 1.387 . S
C1028 C1029 1.387 . S
C1028 H1032 0.950 . S
C1028 C1037 1.390 . S
C1029 C1028 1.387 . S
C1029 C1031 1.387 . S
H1030 C1037 0.950 . S
C1031 C1029 1.387 . S
C1031 C1033 1.390 . S
C1031 H1035 0.950 . S
H1032 C1028 0.950 . S
C1033 C1031 1.390 . S
C1033 C1034 1.387 . S
C1033 H1036 0.950 . S
C1034 C1033 1.387 . S
C1034 C1037 1.387 . S
H1035 C1031 0.950 . S
H1036 C1033 0.950 . S
C1037 C1028 1.390 . S
C1037 H1030 0.950 . S
C1037 C1034 1.387 . S
C1038 C1039 1.387 . S
C1038 H1042 0.950 . S
C1038 C1047 1.390 . S
C1039 C1038 1.387 . S
C1039 C1041 1.387 . S
H1040 C1047 0.950 . S
C1041 C1039 1.387 . S
C1041 C1043 1.390 . S
C1041 H1045 0.950 . S
H1042 C1038 0.950 . S
C1043 C1041 1.390 . S
C1043 C1044 1.387 . S
C1043 H1046 0.950 . S
C1044 C1043 1.387 . S
C1044 C1047 1.387 . S
H1045 C1041 0.950 . S
H1046 C1043 0.950 . S
C1047 C1038 1.390 . S
C1047 H1040 0.950 . S
C1047 C1044 1.387 . S
C1048 C1049 1.387 . S
C1048 H1052 0.950 . S
C1048 C1057 1.390 . S
C1049 C1048 1.387 . S
C1049 C1051 1.387 . S
H1050 C1057 0.950 . S
C1051 C1049 1.387 . S
C1051 C1053 1.390 . S
C1051 H1055 0.950 . S
H1052 C1048 0.950 . S
C1053 C1051 1.390 . S
C1053 C1054 1.387 . S
C1053 H1056 0.950 . S
C1054 C1053 1.387 . S
C1054 C1057 1.387 . S
H1055 C1051 0.950 . S
H1056 C1053 0.950 . S
C1057 C1048 1.390 . S
C1057 H1050 0.950 . S
C1057 C1054 1.387 . S
C1058 C1059 1.387 . S
C1058 H1062 0.950 . S
C1058 C1067 1.390 . S
C1059 C1058 1.387 . S
C1059 C1061 1.387 . S
H1060 C1067 0.950 . S
C1061 C1059 1.387 . S
C1061 C1063 1.390 . S
C1061 H1065 0.950 . S
H1062 C1058 0.950 . S
C1063 C1061 1.390 . S
C1063 C1064 1.387 . S
C1063 H1066 0.950 . S
C1064 C1063 1.387 . S
C1064 C1067 1.387 . S
H1065 C1061 0.950 . S
H1066 C1063 0.950 . S
C1067 C1058 1.390 . S
C1067 H1060 0.950 . S
C1067 C1064 1.387 . S
C1068 C1069 1.387 . S
C1068 H1072 0.950 . S
C1068 C1077 1.390 . S
C1069 C1068 1.387 . S
C1069 C1071 1.387 . S
H1070 C1077 0.950 . S
C1071 C1069 1.387 . S
C1071 C1073 1.390 . S
C1071 H1075 0.950 . S
H1072 C1068 0.950 . S
C1073 C1071 1.390 . S
C1073 C1074 1.387 . S
C1073 H1076 0.950 . S
C1074 C1073 1.387 . S
C1074 C1077 1.387 . S
H1075 C1071 0.950 . S
H1076 C1073 0.950 . S
C1077 C1068 1.390 . S
C1077 H1070 0.950 . S
C1077 C1074 1.387 . S
C1078 C1079 1.387 . S
C1078 H1082 0.950 . S
C1078 C1087 1.390 . S
C1079 C1078 1.387 . S
C1079 C1081 1.387 . S
H1080 C1087 0.950 . S
C1081 C1079 1.387 . S
C1081 C1083 1.390 . S
C1081 H1085 0.950 . S
H1082 C1078 0.950 . S
C1083 C1081 1.390 . S
C1083 C1084 1.387 . S
C1083 H1086 0.950 . S
C1084 C1083 1.387 . S
C1084 C1087 1.387 . S
H1085 C1081 0.950 . S
H1086 C1083 0.950 . S
C1087 C1078 1.390 . S
C1087 H1080 0.950 . S
C1087 C1084 1.387 . S
C1088 C1089 1.387 . S
C1088 H1092 0.950 . S
C1088 C1097 1.390 1_545 S
C1089 C1088 1.387 . S
C1089 C1091 1.387 . S
H1090 C1097 0.950 . S
C1091 C1089 1.387 . S
C1091 C1093 1.390 1_545 S
C1091 H1095 0.950 . S
H1092 C1088 0.950 . S
C1093 C1091 1.390 1_565 S
C1093 C1094 1.387 . S
C1093 H1096 0.950 . S
C1094 C1093 1.387 . S
C1094 C1097 1.387 . S
H1095 C1091 0.950 . S
H1096 C1093 0.950 . S
C1097 C1088 1.390 1_565 S
C1097 H1090 0.950 . S
C1097 C1094 1.387 . S
C1098 C1099 1.387 . S
C1098 H1102 0.950 . S
C1098 C1107 1.390 1_545 S
C1099 C1098 1.387 . S
C1099 C1101 1.387 . S
H1100 C1107 0.950 . S
C1101 C1099 1.387 . S
C1101 C1103 1.390 1_545 S
C1101 H1105 0.950 . S
H1102 C1098 0.950 . S
C1103 C1101 1.390 1_565 S
C1103 C1104 1.387 . S
C1103 H1106 0.950 . S
C1104 C1103 1.387 . S
C1104 C1107 1.387 . S
H1105 C1101 0.950 . S
H1106 C1103 0.950 . S
C1107 C1098 1.390 1_565 S
C1107 H1100 0.950 . S
C1107 C1104 1.387 . S
C1108 C1109 1.387 . S
C1108 H1112 0.950 . S
C1108 C1117 1.390 1_545 S
C1109 C1108 1.387 . S
C1109 C1111 1.387 . S
H1110 C1117 0.950 . S
C1111 C1109 1.387 . S
C1111 C1113 1.390 1_545 S
C1111 H1115 0.950 . S
H1112 C1108 0.950 . S
C1113 C1111 1.390 1_565 S
C1113 C1114 1.387 . S
C1113 H1116 0.950 . S
C1114 C1113 1.387 . S
C1114 C1117 1.387 . S
H1115 C1111 0.950 . S
H1116 C1113 0.950 . S
C1117 C1108 1.390 1_565 S
C1117 H1110 0.950 . S
C1117 C1114 1.387 . S
C1118 C1119 1.387 . S
C1118 H1122 0.950 . S
C1118 C1127 1.390 1_565 S
C1119 C1118 1.387 . S
C1119 C1121 1.387 . S
H1120 C1127 0.950 . S
C1121 C1119 1.387 . S
C1121 C1123 1.390 1_565 S
C1121 H1125 0.950 . S
H1122 C1118 0.950 . S
C1123 C1121 1.390 1_545 S
C1123 C1124 1.387 . S
C1123 H1126 0.950 . S
C1124 C1123 1.387 . S
C1124 C1127 1.387 . S
H1125 C1121 0.950 . S
H1126 C1123 0.950 . S
C1127 C1118 1.390 1_545 S
C1127 H1120 0.950 . S
C1127 C1124 1.387 . S
C1128 C1129 1.387 . S
C1128 H1132 0.950 . S
C1128 C1137 1.390 . S
C1129 C1128 1.387 . S
C1129 C1131 1.387 . S
H1130 C1137 0.950 . S
C1131 C1129 1.387 . S
C1131 C1133 1.390 . S
C1131 H1135 0.950 . S
H1132 C1128 0.950 . S
C1133 C1131 1.390 . S
C1133 C1134 1.387 . S
C1133 H1136 0.950 . S
C1134 C1133 1.387 . S
C1134 C1137 1.387 . S
H1135 C1131 0.950 . S
H1136 C1133 0.950 . S
C1137 C1128 1.390 . S
C1137 H1130 0.950 . S
C1137 C1134 1.387 . S
C1138 C1139 1.387 . S
C1138 H1142 0.950 . S
C1138 C1147 1.390 . S
C1139 C1138 1.387 . S
C1139 C1141 1.387 . S
H1140 C1147 0.950 . S
C1141 C1139 1.387 . S
C1141 C1143 1.390 . S
C1141 H1145 0.950 . S
H1142 C1138 0.950 . S
C1143 C1141 1.390 . S
C1143 C1144 1.387 . S
C1143 H1146 0.950 . S
C1144 C1143 1.387 . S
C1144 C1147 1.387 . S
H1145 C1141 0.950 . S
H1146 C1143 0.950 . S
C1147 C1138 1.390 . S
C1147 H1140 0.950 . S
C1147 C1144 1.387 . S
C1148 C1149 1.387 . S
C1148 H1152 0.950 . S
C1148 C1157 1.390 . S
C1149 C1148 1.387 . S
C1149 C1151 1.387 . S
H1150 C1157 0.950 . S
C1151 C1149 1.387 . S
C1151 C1153 1.390 . S
C1151 H1155 0.950 . S
H1152 C1148 0.950 . S
C1153 C1151 1.390 . S
C1153 C1154 1.387 . S
C1153 H1156 0.950 . S
C1154 C1153 1.387 . S
C1154 C1157 1.387 . S
H1155 C1151 0.950 . S
H1156 C1153 0.950 . S
C1157 C1148 1.390 . S
C1157 H1150 0.950 . S
C1157 C1154 1.387 . S
C1158 C1159 1.387 . S
C1158 H1162 0.950 . S
C1158 C1167 1.390 . S
C1159 C1158 1.387 . S
C1159 C1161 1.387 . S
H1160 C1167 0.950 . S
C1161 C1159 1.387 . S
C1161 C1163 1.390 . S
C1161 H1165 0.950 . S
H1162 C1158 0.950 . S
C1163 C1161 1.390 . S
C1163 C1164 1.387 . S
C1163 H1166 0.950 . S
C1164 C1163 1.387 . S
C1164 C1167 1.387 . S
H1165 C1161 0.950 . S
H1166 C1163 0.950 . S
C1167 C1158 1.390 . S
C1167 H1160 0.950 . S
C1167 C1164 1.387 . S
C849 C39 1.843 . S
C854 C304 1.837 . S
C859 C251 1.838 . S
C864 C92 1.842 . S
C869 C145 1.843 . S
C874 C410 1.837 . S
C879 C357 1.837 . S
C884 C198 1.843 . S
C889 C728 1.837 . S
C894 C463 1.843 . S
C899 C675 1.838 . S
C904 C516 1.842 . S
C909 C834 1.837 . S
C914 C569 1.843 . S
C919 C622 1.842 . S
C924 C781 1.838 . S
C929 C82 1.552 . S
C934 C29 1.552 . S
C939 C135 1.552 . S
C944 C188 1.552 . S
C949 C241 1.556 . S
C954 C294 1.556 . S
C959 C347 1.555 . S
C964 C400 1.555 . S
C969 C453 1.552 . S
C974 C506 1.552 . S
C979 C612 1.552 . S
C984 C559 1.552 . S
C989 C718 1.556 . S
C994 C665 1.556 . S
C999 C771 1.556 . S
C1004 C824 1.556 . S
C1009 C499 1.535 . S
C1014 C22 1.535 . S
C1019 C75 1.535 . S
C1024 C446 1.535 . S
C1029 C605 1.535 . S
C1034 C128 1.535 . S
C1039 C181 1.536 . S
C1044 C552 1.536 . S
C1049 C234 1.533 . S
C1054 C711 1.533 . S
C1059 C658 1.533 . S
C1064 C287 1.533 . S
C1069 C340 1.534 . S
C1074 C817 1.534 . S
C1079 C764 1.534 . S
C1084 C393 1.534 . S
C1089 C38 1.943 . S
C1094 C144 1.943 . S
C1099 C197 1.943 . S
C1104 C91 1.943 . S
C1109 C356 1.952 . S
C1114 C250 1.952 . S
C1119 C409 1.952 . S
C1124 C303 1.952 . S
C1129 C568 1.940 . S
C1134 C462 1.940 . S
C1139 C515 1.940 . S
C1144 C621 1.940 . S
C1149 C780 1.952 . S
C1154 C674 1.952 . S
C1159 C727 1.955 . S
C1164 C833 1.955 . S
