# Generated by pormake.
# Topology snv-x, (7)-cn, num edge types: 1
# Building blocks:
#     Node 0, Type 0, BuildingBlock: NUHQUE_clean_sbu_2, # of connection points: 7
#     Node 1, Type 0, BuildingBlock: NUHQUE_clean_sbu_2, # of connection points: 7
#     Node 2, Type 0, BuildingBlock: NUHQUE_clean_sbu_2, # of connection points: 7
#     Node 3, Type 0, BuildingBlock: NUHQUE_clean_sbu_2, # of connection points: 7
#     Node 4, Type 0, BuildingBlock: NUHQUE_clean_sbu_2, # of connection points: 7
#     Node 5, Type 0, BuildingBlock: NUHQUE_clean_sbu_2, # of connection points: 7
#     Node 6, Type 0, BuildingBlock: NUHQUE_clean_sbu_2, # of connection points: 7
#     Node 7, Type 0, BuildingBlock: NUHQUE_clean_sbu_2, # of connection points: 7
#     Node 8, Type 0, BuildingBlock: NUHQUE_clean_sbu_2, # of connection points: 7
#     Node 9, Type 0, BuildingBlock: NUHQUE_clean_sbu_2, # of connection points: 7
#     Node 10, Type 0, BuildingBlock: NUHQUE_clean_sbu_2, # of connection points: 7
#     Node 11, Type 0, BuildingBlock: NUHQUE_clean_sbu_2, # of connection points: 7
#     Node 12, Type 0, BuildingBlock: NUHQUE_clean_sbu_2, # of connection points: 7
#     Node 13, Type 0, BuildingBlock: NUHQUE_clean_sbu_2, # of connection points: 7
#     Node 14, Type 0, BuildingBlock: NUHQUE_clean_sbu_2, # of connection points: 7
#     Node 15, Type 0, BuildingBlock: NUHQUE_clean_sbu_2, # of connection points: 7
#     Node 16, Type 0, BuildingBlock: NUHQUE_clean_sbu_2, # of connection points: 7
#     Node 17, Type 0, BuildingBlock: NUHQUE_clean_sbu_2, # of connection points: 7
#     Node 18, Type 0, BuildingBlock: NUHQUE_clean_sbu_2, # of connection points: 7
#     Node 19, Type 0, BuildingBlock: NUHQUE_clean_sbu_2, # of connection points: 7
#     Node 20, Type 0, BuildingBlock: NUHQUE_clean_sbu_2, # of connection points: 7
#     Node 21, Type 0, BuildingBlock: NUHQUE_clean_sbu_2, # of connection points: 7
#     Node 22, Type 0, BuildingBlock: NUHQUE_clean_sbu_2, # of connection points: 7
#     Node 23, Type 0, BuildingBlock: NUHQUE_clean_sbu_2, # of connection points: 7
#     Edge 24, Type (0, 0), BuildingBlock: ZUJKAS_clean_linker_0, # of connection points: 2
#     Edge 25, Type (0, 0), BuildingBlock: ZUJKAS_clean_linker_0, # of connection points: 2
#     Edge 26, Type (0, 0), BuildingBlock: ZUJKAS_clean_linker_0, # of connection points: 2
#     Edge 27, Type (0, 0), BuildingBlock: ZUJKAS_clean_linker_0, # of connection points: 2
#     Edge 28, Type (0, 0), BuildingBlock: ZUJKAS_clean_linker_0, # of connection points: 2
#     Edge 29, Type (0, 0), BuildingBlock: ZUJKAS_clean_linker_0, # of connection points: 2
#     Edge 30, Type (0, 0), BuildingBlock: ZUJKAS_clean_linker_0, # of connection points: 2
#     Edge 31, Type (0, 0), BuildingBlock: ZUJKAS_clean_linker_0, # of connection points: 2
#     Edge 32, Type (0, 0), BuildingBlock: ZUJKAS_clean_linker_0, # of connection points: 2
#     Edge 33, Type (0, 0), BuildingBlock: ZUJKAS_clean_linker_0, # of connection points: 2
#     Edge 34, Type (0, 0), BuildingBlock: ZUJKAS_clean_linker_0, # of connection points: 2
#     Edge 35, Type (0, 0), BuildingBlock: ZUJKAS_clean_linker_0, # of connection points: 2
#     Edge 36, Type (0, 0), BuildingBlock: ZUJKAS_clean_linker_0, # of connection points: 2
#     Edge 37, Type (0, 0), BuildingBlock: ZUJKAS_clean_linker_0, # of connection points: 2
#     Edge 38, Type (0, 0), BuildingBlock: ZUJKAS_clean_linker_0, # of connection points: 2
#     Edge 39, Type (0, 0), BuildingBlock: ZUJKAS_clean_linker_0, # of connection points: 2
#     Edge 40, Type (0, 0), BuildingBlock: ZUJKAS_clean_linker_0, # of connection points: 2
#     Edge 41, Type (0, 0), BuildingBlock: ZUJKAS_clean_linker_0, # of connection points: 2
#     Edge 42, Type (0, 0), BuildingBlock: ZUJKAS_clean_linker_0, # of connection points: 2
#     Edge 43, Type (0, 0), BuildingBlock: ZUJKAS_clean_linker_0, # of connection points: 2
#     Edge 44, Type (0, 0), BuildingBlock: ZUJKAS_clean_linker_0, # of connection points: 2
#     Edge 45, Type (0, 0), BuildingBlock: ZUJKAS_clean_linker_0, # of connection points: 2
#     Edge 46, Type (0, 0), BuildingBlock: ZUJKAS_clean_linker_0, # of connection points: 2
#     Edge 47, Type (0, 0), BuildingBlock: ZUJKAS_clean_linker_0, # of connection points: 2
#     Edge 48, Type (0, 0), BuildingBlock: ZUJKAS_clean_linker_0, # of connection points: 2
#     Edge 49, Type (0, 0), BuildingBlock: ZUJKAS_clean_linker_0, # of connection points: 2
#     Edge 50, Type (0, 0), BuildingBlock: ZUJKAS_clean_linker_0, # of connection points: 2
#     Edge 51, Type (0, 0), BuildingBlock: ZUJKAS_clean_linker_0, # of connection points: 2
#     Edge 52, Type (0, 0), BuildingBlock: ZUJKAS_clean_linker_0, # of connection points: 2
#     Edge 53, Type (0, 0), BuildingBlock: ZUJKAS_clean_linker_0, # of connection points: 2
#     Edge 54, Type (0, 0), BuildingBlock: ZUJKAS_clean_linker_0, # of connection points: 2
#     Edge 55, Type (0, 0), BuildingBlock: ZUJKAS_clean_linker_0, # of connection points: 2
#     Edge 56, Type (0, 0), BuildingBlock: ZUJKAS_clean_linker_0, # of connection points: 2
#     Edge 57, Type (0, 0), BuildingBlock: ZUJKAS_clean_linker_0, # of connection points: 2
#     Edge 58, Type (0, 0), BuildingBlock: ZUJKAS_clean_linker_0, # of connection points: 2
#     Edge 59, Type (0, 0), BuildingBlock: ZUJKAS_clean_linker_0, # of connection points: 2
#     Edge 60, Type (0, 0), BuildingBlock: ZUJKAS_clean_linker_0, # of connection points: 2
#     Edge 61, Type (0, 0), BuildingBlock: ZUJKAS_clean_linker_0, # of connection points: 2
#     Edge 62, Type (0, 0), BuildingBlock: ZUJKAS_clean_linker_0, # of connection points: 2
#     Edge 63, Type (0, 0), BuildingBlock: ZUJKAS_clean_linker_0, # of connection points: 2
#     Edge 64, Type (0, 0), BuildingBlock: ZUJKAS_clean_linker_0, # of connection points: 2
#     Edge 65, Type (0, 0), BuildingBlock: ZUJKAS_clean_linker_0, # of connection points: 2
#     Edge 66, Type (0, 0), BuildingBlock: ZUJKAS_clean_linker_0, # of connection points: 2
#     Edge 67, Type (0, 0), BuildingBlock: ZUJKAS_clean_linker_0, # of connection points: 2
#     Edge 68, Type (0, 0), BuildingBlock: ZUJKAS_clean_linker_0, # of connection points: 2
#     Edge 69, Type (0, 0), BuildingBlock: ZUJKAS_clean_linker_0, # of connection points: 2
#     Edge 70, Type (0, 0), BuildingBlock: ZUJKAS_clean_linker_0, # of connection points: 2
#     Edge 71, Type (0, 0), BuildingBlock: ZUJKAS_clean_linker_0, # of connection points: 2
#     Edge 72, Type (0, 0), BuildingBlock: ZUJKAS_clean_linker_0, # of connection points: 2
#     Edge 73, Type (0, 0), BuildingBlock: ZUJKAS_clean_linker_0, # of connection points: 2
#     Edge 74, Type (0, 0), BuildingBlock: ZUJKAS_clean_linker_0, # of connection points: 2
#     Edge 75, Type (0, 0), BuildingBlock: ZUJKAS_clean_linker_0, # of connection points: 2
#     Edge 76, Type (0, 0), BuildingBlock: ZUJKAS_clean_linker_0, # of connection points: 2
#     Edge 77, Type (0, 0), BuildingBlock: ZUJKAS_clean_linker_0, # of connection points: 2
#     Edge 78, Type (0, 0), BuildingBlock: ZUJKAS_clean_linker_0, # of connection points: 2
#     Edge 79, Type (0, 0), BuildingBlock: ZUJKAS_clean_linker_0, # of connection points: 2
#     Edge 80, Type (0, 0), BuildingBlock: ZUJKAS_clean_linker_0, # of connection points: 2
#     Edge 81, Type (0, 0), BuildingBlock: ZUJKAS_clean_linker_0, # of connection points: 2
#     Edge 82, Type (0, 0), BuildingBlock: ZUJKAS_clean_linker_0, # of connection points: 2
#     Edge 83, Type (0, 0), BuildingBlock: ZUJKAS_clean_linker_0, # of connection points: 2
#     Edge 84, Type (0, 0), BuildingBlock: ZUJKAS_clean_linker_0, # of connection points: 2
#     Edge 85, Type (0, 0), BuildingBlock: ZUJKAS_clean_linker_0, # of connection points: 2
#     Edge 86, Type (0, 0), BuildingBlock: ZUJKAS_clean_linker_0, # of connection points: 2
#     Edge 87, Type (0, 0), BuildingBlock: ZUJKAS_clean_linker_0, # of connection points: 2
#     Edge 88, Type (0, 0), BuildingBlock: ZUJKAS_clean_linker_0, # of connection points: 2
#     Edge 89, Type (0, 0), BuildingBlock: ZUJKAS_clean_linker_0, # of connection points: 2
#     Edge 90, Type (0, 0), BuildingBlock: ZUJKAS_clean_linker_0, # of connection points: 2
#     Edge 91, Type (0, 0), BuildingBlock: ZUJKAS_clean_linker_0, # of connection points: 2
#     Edge 92, Type (0, 0), BuildingBlock: ZUJKAS_clean_linker_0, # of connection points: 2
#     Edge 93, Type (0, 0), BuildingBlock: ZUJKAS_clean_linker_0, # of connection points: 2
#     Edge 94, Type (0, 0), BuildingBlock: ZUJKAS_clean_linker_0, # of connection points: 2
#     Edge 95, Type (0, 0), BuildingBlock: ZUJKAS_clean_linker_0, # of connection points: 2
#     Edge 96, Type (0, 0), BuildingBlock: ZUJKAS_clean_linker_0, # of connection points: 2
#     Edge 97, Type (0, 0), BuildingBlock: ZUJKAS_clean_linker_0, # of connection points: 2
#     Edge 98, Type (0, 0), BuildingBlock: ZUJKAS_clean_linker_0, # of connection points: 2
#     Edge 99, Type (0, 0), BuildingBlock: ZUJKAS_clean_linker_0, # of connection points: 2
#     Edge 100, Type (0, 0), BuildingBlock: ZUJKAS_clean_linker_0, # of connection points: 2
#     Edge 101, Type (0, 0), BuildingBlock: ZUJKAS_clean_linker_0, # of connection points: 2
#     Edge 102, Type (0, 0), BuildingBlock: ZUJKAS_clean_linker_0, # of connection points: 2
#     Edge 103, Type (0, 0), BuildingBlock: ZUJKAS_clean_linker_0, # of connection points: 2
#     Edge 104, Type (0, 0), BuildingBlock: ZUJKAS_clean_linker_0, # of connection points: 2
#     Edge 105, Type (0, 0), BuildingBlock: ZUJKAS_clean_linker_0, # of connection points: 2
#     Edge 106, Type (0, 0), BuildingBlock: ZUJKAS_clean_linker_0, # of connection points: 2
#     Edge 107, Type (0, 0), BuildingBlock: ZUJKAS_clean_linker_0, # of connection points: 2
# Relax obj value: 0.177
# Max RMSD: 0.251
# Mean RMSD: 0.251
data_MOF--net-snv-x--node1-NUHQUE_clean_sbu_2--edge1-ZUJKAS_clean_linker_0
_symmetry_space_group_name_H-M    P1
_symmetry_Int_Tables_number       1
_symmetry_cell_setting            triclinic
loop_
_symmetry_equiv_pos_as_xyz
'x, y, z'
_cell_length_a     68.240902
_cell_length_b     68.234201
_cell_length_c     68.139527
_cell_angle_alpha  90.12256
_cell_angle_beta   90.058999
_cell_angle_gamma 89.990227
loop_
_atom_site_label
_atom_site_type_symbol
_atom_site_fract_x
_atom_site_fract_y
_atom_site_fract_z
_atom_type_partial_charge
O0 O 0.13282 0.44102 0.26936 0.0
Tb1 Tb 0.11757 0.43396 0.29709 0.0
Eu2 Eu 0.13845 0.40245 0.33444 0.0
C3 C 0.12572 0.45218 0.25516 0.0
O4 O 0.1069 0.45615 0.25482 0.0
C5 C 0.14874 0.44457 0.32675 0.0
O6 O 0.14524 0.38486 0.36154 0.0
C7 C 0.15743 0.3896 0.30405 0.0
C8 C 0.13712 0.36786 0.36549 0.0
O9 O 0.12489 0.36002 0.35282 0.0
C10 C 0.09442 0.39765 0.3166 0.0
C11 C 0.16191 0.37037 0.29559 0.0
C12 C 0.16991 0.36918 0.27672 0.0
C13 C 0.17566 0.351 0.26901 0.0
C14 C 0.17339 0.33408 0.28048 0.0
C15 C 0.16556 0.33507 0.29956 0.0
C16 C 0.15942 0.35334 0.30682 0.0
O17 O 0.14673 0.43646 0.30943 0.0
O18 O 0.14414 0.43374 0.34176 0.0
O19 O 0.10731 0.45149 0.32189 0.0
O20 O 0.09884 0.45943 0.29287 0.0
C21 C 0.09766 0.46406 0.31135 0.0
O22 O 0.10604 0.39706 0.33215 0.0
O23 O 0.09881 0.4074 0.30015 0.0
O24 O 0.16582 0.39343 0.32098 0.0
O25 O 0.13899 0.39496 0.30334 0.0
H26 H 0.17207 0.38244 0.26823 0.0
H27 H 0.17916 0.32032 0.27502 0.0
H28 H 0.15334 0.35451 0.32146 0.0
O29 O 0.57347 0.12645 0.26443 0.0
Tb30 Tb 0.58348 0.11637 0.29352 0.0
Eu31 Eu 0.61398 0.13854 0.33053 0.0
C32 C 0.57613 0.14472 0.25849 0.0
O33 O 0.58823 0.15597 0.2684 0.0
C34 C 0.57124 0.14697 0.32325 0.0
O35 O 0.63244 0.14213 0.35769 0.0
C36 C 0.62648 0.15878 0.30093 0.0
C37 C 0.62932 0.1299 0.37224 0.0
O38 O 0.61591 0.11625 0.37002 0.0
C39 C 0.62097 0.09503 0.31203 0.0
C40 C 0.64495 0.16252 0.29062 0.0
C41 C 0.64439 0.16916 0.27118 0.0
C42 C 0.6618 0.17359 0.26122 0.0
C43 C 0.67981 0.17084 0.27085 0.0
C44 C 0.68059 0.16513 0.29068 0.0
C45 C 0.66298 0.16055 0.30033 0.0
O46 O 0.57919 0.14535 0.30584 0.0
O47 O 0.58265 0.14363 0.33822 0.0
O48 O 0.55876 0.09646 0.29025 0.0
O49 O 0.56839 0.1042 0.31898 0.0
C50 C 0.55561 0.09426 0.30894 0.0
O51 O 0.6207 0.10649 0.32766 0.0
O52 O 0.61102 0.09906 0.29561 0.0
O53 O 0.62503 0.16594 0.31883 0.0
O54 O 0.61935 0.141 0.29915 0.0
H55 H 0.63037 0.17137 0.26399 0.0
H56 H 0.69323 0.17444 0.2632 0.0
H57 H 0.6631 0.15643 0.31568 0.0
O58 O 0.89188 0.57457 0.2632 0.0
Tb59 Tb 0.90343 0.58622 0.2912 0.0
Eu60 Eu 0.88327 0.61025 0.32975 0.0
C61 C 0.88893 0.55536 0.26233 0.0
O62 O 0.89543 0.54478 0.27705 0.0
C63 C 0.87522 0.56739 0.32066 0.0
O64 O 0.87745 0.62356 0.35939 0.0
C65 C 0.85892 0.62222 0.30314 0.0
C66 C 0.87991 0.64228 0.36319 0.0
O67 O 0.88576 0.65408 0.34915 0.0
C68 C 0.92268 0.62476 0.30913 0.0
C69 C 0.85311 0.64029 0.29313 0.0
C70 C 0.84438 0.63896 0.27456 0.0
C71 C 0.83647 0.65566 0.26546 0.0
C72 C 0.83832 0.67388 0.27504 0.0
C73 C 0.84753 0.67546 0.29343 0.0
C74 C 0.85489 0.65855 0.30244 0.0
O75 O 0.8759 0.57463 0.30283 0.0
O76 O 0.88149 0.57818 0.33519 0.0
O77 O 0.92927 0.56795 0.28717 0.0
O78 O 0.91839 0.5731 0.31612 0.0
C79 C 0.93199 0.56461 0.30581 0.0
O80 O 0.91342 0.62225 0.32586 0.0
O81 O 0.91694 0.61589 0.29259 0.0
O82 O 0.85445 0.62099 0.32185 0.0
O83 O 0.87637 0.61534 0.29894 0.0
H84 H 0.84324 0.62473 0.26756 0.0
H85 H 0.83139 0.68677 0.26891 0.0
H86 H 0.86153 0.65951 0.31686 0.0
O87 O 0.44076 0.88985 0.26311 0.0
Tb88 Tb 0.43051 0.89935 0.29242 0.0
Eu89 Eu 0.40766 0.87709 0.3308 0.0
C90 C 0.43946 0.87123 0.25767 0.0
O91 O 0.4285 0.85945 0.2682 0.0
C92 C 0.45115 0.87115 0.3211 0.0
O93 O 0.39474 0.87045 0.36039 0.0
C94 C 0.3944 0.85414 0.3035 0.0
C95 C 0.37631 0.8741 0.36462 0.0
O96 O 0.36476 0.88139 0.35104 0.0
C97 C 0.39231 0.91718 0.31226 0.0
C98 C 0.37553 0.85036 0.29391 0.0
C99 C 0.37522 0.84245 0.27491 0.0
C100 C 0.35732 0.83815 0.26569 0.0
C101 C 0.33974 0.84204 0.27569 0.0
C102 C 0.33986 0.84966 0.29485 0.0
C103 C 0.35786 0.854 0.30381 0.0
O104 O 0.44413 0.87243 0.30321 0.0
O105 O 0.43982 0.87546 0.33592 0.0
O106 O 0.4483 0.92542 0.2879 0.0
O107 O 0.44406 0.91467 0.317 0.0
C108 C 0.45211 0.92831 0.30643 0.0
O109 O 0.39563 0.90739 0.32854 0.0
O110 O 0.40062 0.9121 0.29526 0.0
O111 O 0.39581 0.84889 0.32201 0.0
O112 O 0.40233 0.87126 0.29986 0.0
H113 H 0.3889 0.8393 0.26746 0.0
H114 H 0.32593 0.83773 0.26907 0.0
H115 H 0.35813 0.85975 0.31863 0.0
O116 O 0.11591 0.562 0.75323 0.0
Tb117 Tb 0.10351 0.57279 0.72528 0.0
Eu118 Eu 0.12324 0.61732 0.68825 0.0
C119 C 0.13438 0.56502 0.75842 0.0
O120 O 0.14491 0.57747 0.74824 0.0
C121 C 0.13747 0.57644 0.69566 0.0
O122 O 0.12636 0.6366 0.66166 0.0
C123 C 0.13524 0.63325 0.72068 0.0
C124 C 0.11654 0.63181 0.64575 0.0
O125 O 0.10484 0.61654 0.6464 0.0
C126 C 0.08134 0.60725 0.70599 0.0
C127 C 0.14541 0.65092 0.72738 0.0
C128 C 0.15668 0.6501 0.74457 0.0
C129 C 0.16826 0.66615 0.75031 0.0
C130 C 0.16786 0.68322 0.73875 0.0
C131 C 0.15643 0.68425 0.72162 0.0
C132 C 0.14527 0.66796 0.71596 0.0
O133 O 0.13018 0.58335 0.71211 0.0
O134 O 0.13875 0.58912 0.68139 0.0
O135 O 0.08782 0.54493 0.72425 0.0
O136 O 0.09818 0.55732 0.6977 0.0
C137 C 0.08922 0.54249 0.70539 0.0
O138 O 0.09356 0.60275 0.69166 0.0
O139 O 0.08256 0.59738 0.72279 0.0
O140 O 0.11741 0.63562 0.71371 0.0
O141 O 0.14594 0.62103 0.71032 0.0
H142 H 0.15677 0.63675 0.75316 0.0
H143 H 0.17745 0.69536 0.74235 0.0
H144 H 0.13681 0.66837 0.70248 0.0
O145 O 0.43921 0.12339 0.75571 0.0
Tb146 Tb 0.42823 0.11404 0.7266 0.0
Eu147 Eu 0.40493 0.13594 0.68842 0.0
C148 C 0.43782 0.14194 0.76136 0.0
O149 O 0.42638 0.15366 0.75126 0.0
C150 C 0.44821 0.14252 0.69796 0.0
O151 O 0.39148 0.14222 0.65899 0.0
C152 C 0.39238 0.15933 0.71566 0.0
C153 C 0.37285 0.13903 0.65529 0.0
O154 O 0.36142 0.13249 0.66932 0.0
C155 C 0.38985 0.09589 0.70735 0.0
C156 C 0.3741 0.16406 0.72592 0.0
C157 C 0.3751 0.17235 0.74472 0.0
C158 C 0.35792 0.1777 0.7546 0.0
C159 C 0.3397 0.1747 0.74555 0.0
C160 C 0.33852 0.16698 0.72643 0.0
C161 C 0.35583 0.16136 0.71681 0.0
O162 O 0.441 0.14135 0.71576 0.0
O163 O 0.43708 0.13772 0.68311 0.0
O164 O 0.44629 0.08802 0.73035 0.0
O165 O 0.4417 0.09946 0.70156 0.0
C166 C 0.44998 0.08565 0.71173 0.0
O167 O 0.39283 0.10568 0.69102 0.0
O168 O 0.39846 0.10094 0.72422 0.0
O169 O 0.39339 0.16431 0.69706 0.0
O170 O 0.39988 0.14202 0.71935 0.0
H171 H 0.38924 0.17514 0.75146 0.0
H172 H 0.32656 0.17994 0.75279 0.0
H173 H 0.35513 0.15549 0.70204 0.0
O174 O 0.89615 0.44389 0.75408 0.0
Tb175 Tb 0.9055 0.43164 0.72551 0.0
Eu176 Eu 0.88374 0.40353 0.6888 0.0
C177 C 0.87791 0.44134 0.76023 0.0
O178 O 0.86694 0.4285 0.75093 0.0
C179 C 0.87534 0.44707 0.69568 0.0
O180 O 0.87679 0.38481 0.66247 0.0
C181 C 0.86356 0.39329 0.71938 0.0
C182 C 0.88903 0.38549 0.64761 0.0
O183 O 0.9047 0.39659 0.64916 0.0
C184 C 0.92662 0.39596 0.70653 0.0
C185 C 0.85319 0.37582 0.72611 0.0
C186 C 0.84153 0.3769 0.743 0.0
C187 C 0.83025 0.36074 0.74869 0.0
C188 C 0.83119 0.34335 0.73771 0.0
C189 C 0.84302 0.34204 0.7209 0.0
C190 C 0.85395 0.35844 0.7151 0.0
O191 O 0.87719 0.44131 0.71398 0.0
O192 O 0.88065 0.4352 0.68158 0.0
O193 O 0.93116 0.45068 0.7263 0.0
O194 O 0.91787 0.44386 0.69881 0.0
C195 C 0.93224 0.45298 0.70733 0.0
O196 O 0.91622 0.39883 0.69052 0.0
O197 O 0.9204 0.40277 0.72378 0.0
O198 O 0.85585 0.40204 0.70407 0.0
O199 O 0.88269 0.39186 0.71845 0.0
H200 H 0.84062 0.3905 0.75121 0.0
H201 H 0.82217 0.33098 0.74196 0.0
H202 H 0.86285 0.35779 0.70194 0.0
O203 O 0.5741 0.88653 0.74794 0.0
Tb204 Tb 0.58503 0.89747 0.71951 0.0
Eu205 Eu 0.61344 0.87383 0.68466 0.0
C206 C 0.55497 0.88321 0.74896 0.0
O207 O 0.54422 0.88861 0.73391 0.0
C208 C 0.5701 0.86608 0.69099 0.0
O209 O 0.63095 0.86561 0.65795 0.0
C210 C 0.62491 0.85474 0.71543 0.0
C211 C 0.64869 0.87246 0.65492 0.0
O212 O 0.65681 0.88382 0.6682 0.0
C213 C 0.62324 0.91693 0.70062 0.0
C214 C 0.64373 0.8519 0.72537 0.0
C215 C 0.64425 0.84332 0.74401 0.0
C216 C 0.66228 0.83936 0.75314 0.0
C217 C 0.67974 0.8444 0.74343 0.0
C218 C 0.67937 0.85284 0.72464 0.0
C219 C 0.66124 0.85677 0.7158 0.0
O220 O 0.57631 0.86844 0.70907 0.0
O221 O 0.58204 0.87031 0.6767 0.0
O222 O 0.56489 0.92181 0.72351 0.0
O223 O 0.56887 0.9098 0.69479 0.0
C224 C 0.55973 0.92298 0.70514 0.0
O225 O 0.62254 0.90525 0.68524 0.0
O226 O 0.61362 0.91304 0.71721 0.0
O227 O 0.62343 0.84673 0.69793 0.0
O228 O 0.61769 0.87253 0.7163 0.0
H229 H 0.63065 0.8393 0.75116 0.0
H230 H 0.69369 0.84032 0.74986 0.0
H231 H 0.66073 0.86305 0.70123 0.0
O232 O 0.26961 0.12522 0.44545 0.0
Tb233 Tb 0.29819 0.11467 0.4344 0.0
Eu234 Eu 0.33682 0.13392 0.40848 0.0
C235 C 0.26442 0.14383 0.44346 0.0
O236 O 0.27437 0.15479 0.43117 0.0
C237 C 0.32778 0.1437 0.4509 0.0
O238 O 0.36586 0.13818 0.39351 0.0
C239 C 0.30966 0.15702 0.39542 0.0
C240 C 0.36884 0.13351 0.37502 0.0
O241 O 0.35422 0.12677 0.36443 0.0
C242 C 0.31599 0.09331 0.39664 0.0
C243 C 0.3 0.16213 0.37694 0.0
C244 C 0.28173 0.17138 0.37757 0.0
C245 C 0.27298 0.17838 0.36032 0.0
C246 C 0.28273 0.17565 0.34234 0.0
C247 C 0.30105 0.16618 0.34147 0.0
C248 C 0.30943 0.15916 0.35892 0.0
O249 O 0.31033 0.143 0.44285 0.0
O250 O 0.3426 0.13765 0.44043 0.0
O251 O 0.29509 0.09229 0.45692 0.0
O252 O 0.3237 0.10135 0.4482 0.0
C253 C 0.31382 0.08999 0.45979 0.0
O254 O 0.33262 0.10294 0.39861 0.0
O255 O 0.29957 0.09872 0.40587 0.0
O256 O 0.32812 0.16229 0.39717 0.0
O257 O 0.30601 0.13947 0.40231 0.0
H258 H 0.27461 0.17364 0.39162 0.0
H259 H 0.27667 0.18219 0.32919 0.0
H260 H 0.32358 0.15198 0.35864 0.0
O261 O 0.88071 0.26581 0.43063 0.0
Tb262 Tb 0.89384 0.29488 0.42497 0.0
Eu263 Eu 0.87192 0.33553 0.40547 0.0
C264 C 0.86153 0.26353 0.43269 0.0
O265 O 0.84994 0.27789 0.42735 0.0
C266 C 0.87061 0.32586 0.44941 0.0
O267 O 0.86343 0.36351 0.39038 0.0
C268 C 0.84954 0.30672 0.39481 0.0
C269 C 0.86748 0.36633 0.37175 0.0
O270 O 0.87616 0.35233 0.36176 0.0
C271 C 0.9125 0.31904 0.38908 0.0
C272 C 0.84296 0.29749 0.37659 0.0
C273 C 0.83309 0.2795 0.37743 0.0
C274 C 0.82617 0.27072 0.36018 0.0
C275 C 0.82977 0.27971 0.34205 0.0
C276 C 0.83979 0.29763 0.34107 0.0
C277 C 0.84627 0.30657 0.35843 0.0
O278 O 0.87005 0.30799 0.4422 0.0
O279 O 0.87379 0.34063 0.43768 0.0
O280 O 0.91959 0.28197 0.43848 0.0
O281 O 0.91224 0.31181 0.44482 0.0
C282 C 0.92458 0.29768 0.44808 0.0
O283 O 0.90203 0.33474 0.39291 0.0
O284 O 0.90765 0.30146 0.39605 0.0
O285 O 0.84288 0.32446 0.39838 0.0
O286 O 0.86819 0.30463 0.39887 0.0
H287 H 0.83015 0.27271 0.3915 0.0
H288 H 0.82408 0.27308 0.32873 0.0
H289 H 0.8537 0.32057 0.35784 0.0
O290 O 0.7509 0.89427 0.44425 0.0
Tb291 Tb 0.72193 0.90269 0.43256 0.0
Eu292 Eu 0.68452 0.87912 0.40928 0.0
C293 C 0.75741 0.8761 0.44213 0.0
O294 O 0.74851 0.86463 0.42944 0.0
C295 C 0.69472 0.87327 0.45224 0.0
O296 O 0.65583 0.87172 0.39483 0.0
C297 C 0.71241 0.85665 0.39655 0.0
C298 C 0.65225 0.8759 0.37635 0.0
O299 O 0.66582 0.88453 0.36582 0.0
C300 C 0.70257 0.91971 0.39396 0.0
C301 C 0.72037 0.85125 0.37733 0.0
C302 C 0.73875 0.84222 0.37612 0.0
C303 C 0.74605 0.83608 0.35789 0.0
C304 C 0.73466 0.83886 0.34094 0.0
C305 C 0.71605 0.84768 0.34195 0.0
C306 C 0.70924 0.85423 0.36027 0.0
O307 O 0.71209 0.87462 0.44418 0.0
O308 O 0.67948 0.87771 0.44156 0.0
O309 O 0.72396 0.92831 0.45159 0.0
O310 O 0.69583 0.9164 0.44479 0.0
C311 C 0.70512 0.93019 0.45412 0.0
O312 O 0.68649 0.90957 0.39731 0.0
O313 O 0.71956 0.91539 0.40267 0.0
O314 O 0.69461 0.85034 0.40025 0.0
O315 O 0.71531 0.87486 0.40205 0.0
H316 H 0.74721 0.83968 0.38936 0.0
H317 H 0.73984 0.83285 0.32716 0.0
H318 H 0.69503 0.86112 0.36144 0.0
O319 O 0.13357 0.75209 0.43321 0.0
Tb320 Tb 0.12078 0.72329 0.42536 0.0
Eu321 Eu 0.1417 0.68218 0.40361 0.0
C322 C 0.15277 0.75482 0.43453 0.0
O323 O 0.16447 0.74149 0.42705 0.0
C324 C 0.14452 0.69163 0.4476 0.0
O325 O 0.14869 0.65315 0.38951 0.0
C326 C 0.16469 0.70997 0.39176 0.0
C327 C 0.14302 0.64904 0.37152 0.0
O328 O 0.13376 0.66245 0.36128 0.0
C329 C 0.10164 0.70113 0.3882 0.0
C330 C 0.16875 0.71992 0.37318 0.0
C331 C 0.17709 0.73868 0.37348 0.0
C332 C 0.18092 0.74857 0.35587 0.0
C333 C 0.17616 0.73951 0.33797 0.0
C334 C 0.16819 0.72055 0.33748 0.0
C335 C 0.16435 0.71085 0.3552 0.0
O336 O 0.14559 0.70938 0.44024 0.0
O337 O 0.14113 0.67688 0.43583 0.0
O338 O 0.09528 0.73441 0.44081 0.0
O339 O 0.10345 0.70436 0.44428 0.0
C340 C 0.091 0.71788 0.44925 0.0
O341 O 0.11146 0.68486 0.39143 0.0
O342 O 0.10699 0.71828 0.39603 0.0
O343 O 0.17024 0.69156 0.39304 0.0
O344 O 0.14724 0.71319 0.39909 0.0
H345 H 0.1808 0.7455 0.38739 0.0
H346 H 0.18 0.74668 0.32431 0.0
H347 H 0.15823 0.69619 0.35498 0.0
O348 O 0.26664 0.89025 0.57363 0.0
Tb349 Tb 0.29506 0.89983 0.586 0.0
Eu350 Eu 0.33214 0.87829 0.61162 0.0
C351 C 0.26094 0.87172 0.57494 0.0
O352 O 0.27048 0.86011 0.58697 0.0
C353 C 0.32498 0.87137 0.56805 0.0
O354 O 0.35936 0.87188 0.62906 0.0
C355 C 0.30356 0.85596 0.62263 0.0
C356 C 0.37352 0.88489 0.62977 0.0
O357 O 0.37132 0.90157 0.62043 0.0
C358 C 0.31259 0.91895 0.62473 0.0
C359 C 0.29366 0.85107 0.64101 0.0
C360 C 0.27481 0.84303 0.64026 0.0
C361 C 0.26545 0.83676 0.65749 0.0
C362 C 0.27505 0.83947 0.67559 0.0
C363 C 0.29384 0.84783 0.67653 0.0
C364 C 0.30312 0.85359 0.65913 0.0
O365 O 0.30696 0.87229 0.57472 0.0
O366 O 0.33934 0.87614 0.57982 0.0
O367 O 0.29226 0.92531 0.56707 0.0
O368 O 0.32073 0.91406 0.57358 0.0
C369 C 0.31102 0.92759 0.56437 0.0
O370 O 0.329 0.90907 0.62246 0.0
O371 O 0.29609 0.91378 0.61553 0.0
O372 O 0.32171 0.84976 0.62087 0.0
O373 O 0.30092 0.87388 0.61625 0.0
H374 H 0.26769 0.84123 0.62614 0.0
H375 H 0.26853 0.83388 0.68894 0.0
H376 H 0.31779 0.85969 0.65964 0.0
O377 O 0.13824 0.26554 0.58717 0.0
Tb378 Tb 0.12316 0.29313 0.59501 0.0
Eu379 Eu 0.1404 0.33701 0.61278 0.0
C380 C 0.1367 0.2592 0.5688 0.0
O381 O 0.12487 0.26861 0.55688 0.0
C382 C 0.14531 0.32385 0.5697 0.0
O383 O 0.14304 0.36815 0.6236 0.0
C384 C 0.1664 0.31354 0.62749 0.0
C385 C 0.13934 0.37254 0.64205 0.0
O386 O 0.13484 0.35839 0.65428 0.0
C387 C 0.10421 0.31503 0.63171 0.0
C388 C 0.1699 0.30421 0.64655 0.0
C389 C 0.17884 0.28571 0.64719 0.0
C390 C 0.18194 0.27629 0.66522 0.0
C391 C 0.17589 0.28559 0.68259 0.0
C392 C 0.16719 0.30424 0.68217 0.0
C393 C 0.16406 0.31341 0.66404 0.0
O394 O 0.14699 0.30663 0.57821 0.0
O395 O 0.14025 0.33913 0.58017 0.0
O396 O 0.09626 0.28112 0.58283 0.0
O397 O 0.10432 0.31075 0.57635 0.0
C398 C 0.09133 0.29708 0.57365 0.0
O399 O 0.11099 0.33205 0.62593 0.0
O400 O 0.11179 0.2982 0.62526 0.0
O401 O 0.16882 0.33265 0.62659 0.0
O402 O 0.15077 0.30738 0.61816 0.0
H403 H 0.18344 0.27871 0.63366 0.0
H404 H 0.17916 0.27884 0.69661 0.0
H405 H 0.15734 0.32777 0.66357 0.0
O406 O 0.74663 0.12526 0.56555 0.0
Tb407 Tb 0.71789 0.11542 0.57654 0.0
Eu408 Eu 0.68211 0.13611 0.61345 0.0
C409 C 0.75312 0.14332 0.5684 0.0
O410 O 0.74427 0.1544 0.58145 0.0
C411 C 0.68899 0.14866 0.57163 0.0
O412 O 0.6576 0.1416 0.63481 0.0
C413 C 0.71528 0.14999 0.62591 0.0
C414 C 0.64407 0.12808 0.63701 0.0
O415 O 0.64585 0.11152 0.62732 0.0
C416 C 0.69746 0.09159 0.60992 0.0
C417 C 0.72347 0.15789 0.64412 0.0
C418 C 0.74126 0.16811 0.64347 0.0
C419 C 0.74895 0.17688 0.66049 0.0
C420 C 0.73881 0.17459 0.6783 0.0
C421 C 0.72102 0.16432 0.6791 0.0
C422 C 0.71326 0.15614 0.6619 0.0
O423 O 0.70623 0.1447 0.5791 0.0
O424 O 0.67407 0.14627 0.58333 0.0
O425 O 0.69098 0.1067 0.56143 0.0
O426 O 0.71848 0.09811 0.54962 0.0
C427 C 0.6996 0.09751 0.54716 0.0
O428 O 0.68227 0.10342 0.60786 0.0
O429 O 0.71496 0.09613 0.6025 0.0
O430 O 0.70186 0.16084 0.61738 0.0
O431 O 0.71096 0.13125 0.62603 0.0
H432 H 0.74887 0.16955 0.62958 0.0
H433 H 0.74406 0.18187 0.69145 0.0
H434 H 0.69927 0.14861 0.66229 0.0
O435 O 0.87968 0.75316 0.58427 0.0
Tb436 Tb 0.89145 0.7238 0.59148 0.0
Eu437 Eu 0.86748 0.68386 0.61086 0.0
C438 C 0.86059 0.75623 0.58222 0.0
O439 O 0.84842 0.74272 0.58842 0.0
C440 C 0.86733 0.69354 0.5667 0.0
O441 O 0.8601 0.65558 0.62603 0.0
C442 C 0.84597 0.71291 0.62248 0.0
C443 C 0.87227 0.64084 0.62375 0.0
O444 O 0.88766 0.64326 0.61243 0.0
C445 C 0.90797 0.69963 0.62811 0.0
C446 C 0.84163 0.72278 0.6411 0.0
C447 C 0.83587 0.7425 0.64093 0.0
C448 C 0.83196 0.75232 0.65857 0.0
C449 C 0.83387 0.74223 0.67639 0.0
C450 C 0.83877 0.72222 0.67674 0.0
C451 C 0.84313 0.71269 0.65897 0.0
O452 O 0.8676 0.71152 0.57369 0.0
O453 O 0.86891 0.67868 0.57866 0.0
O454 O 0.91869 0.73479 0.57936 0.0
O455 O 0.90991 0.7053 0.57314 0.0
C456 C 0.92334 0.71854 0.57051 0.0
O457 O 0.89751 0.68414 0.6236 0.0
O458 O 0.90351 0.71735 0.62123 0.0
O459 O 0.83913 0.695 0.62026 0.0
O460 O 0.86399 0.71501 0.6162 0.0
H461 H 0.8342 0.75013 0.62708 0.0
H462 H 0.83039 0.74973 0.68998 0.0
H463 H 0.84685 0.69725 0.65891 0.0
O464 O 0.4403 0.26869 0.13223 0.0
Tb465 Tb 0.43228 0.29566 0.11619 0.0
Eu466 Eu 0.39963 0.33213 0.13635 0.0
C467 C 0.45144 0.25441 0.12524 0.0
O468 O 0.45524 0.25378 0.10637 0.0
C469 C 0.44254 0.3278 0.14531 0.0
O470 O 0.37934 0.35786 0.13991 0.0
C471 C 0.38928 0.30225 0.1573 0.0
C472 C 0.38109 0.37243 0.12745 0.0
O473 O 0.39413 0.37097 0.11334 0.0
C474 C 0.39436 0.31196 0.09341 0.0
C475 C 0.37137 0.29147 0.16209 0.0
C476 C 0.37295 0.2727 0.17021 0.0
C477 C 0.3562 0.26271 0.17678 0.0
C478 C 0.33775 0.27157 0.1743 0.0
C479 C 0.33599 0.29033 0.16603 0.0
C480 C 0.3529 0.30022 0.15988 0.0
O481 O 0.43562 0.30989 0.1445 0.0
O482 O 0.4304 0.34187 0.14099 0.0
O483 O 0.45767 0.29183 0.09722 0.0
O484 O 0.44766 0.32072 0.10372 0.0
C485 C 0.46082 0.31045 0.09456 0.0
O486 O 0.39355 0.32795 0.10431 0.0
O487 O 0.4051 0.29626 0.0981 0.0
O488 O 0.39053 0.32017 0.16434 0.0
O489 O 0.39549 0.30062 0.13915 0.0
H490 H 0.38734 0.26621 0.17202 0.0
H491 H 0.3248 0.26457 0.18024 0.0
H492 H 0.35177 0.3149 0.15391 0.0
O493 O 0.44096 0.74912 0.88831 0.0
Tb494 Tb 0.43121 0.71954 0.89686 0.0
Eu495 Eu 0.40438 0.6833 0.87262 0.0
C496 C 0.43828 0.75596 0.87034 0.0
O497 O 0.42615 0.74669 0.85858 0.0
C498 C 0.44759 0.69178 0.8661 0.0
O499 O 0.38799 0.65592 0.8644 0.0
C500 C 0.39244 0.71335 0.85271 0.0
C501 C 0.36996 0.65267 0.8703 0.0
O502 O 0.36081 0.66615 0.88059 0.0
C503 C 0.39361 0.69907 0.91607 0.0
C504 C 0.37387 0.72294 0.84767 0.0
C505 C 0.37404 0.74276 0.84227 0.0
C506 C 0.35667 0.75207 0.83648 0.0
C507 C 0.33913 0.74135 0.83626 0.0
C508 C 0.33888 0.72125 0.8407 0.0
C509 C 0.35629 0.71221 0.84694 0.0
O510 O 0.43998 0.70933 0.86791 0.0
O511 O 0.43627 0.67684 0.86977 0.0
O512 O 0.45327 0.72352 0.91954 0.0
O513 O 0.44703 0.69465 0.90922 0.0
C514 C 0.4577 0.70504 0.92113 0.0
O515 O 0.39482 0.68391 0.90407 0.0
O516 O 0.40291 0.71595 0.91267 0.0
O517 O 0.39548 0.696 0.84485 0.0
O518 O 0.39786 0.71451 0.87116 0.0
H519 H 0.38774 0.7508 0.84206 0.0
H520 H 0.32579 0.74842 0.8313 0.0
H521 H 0.35642 0.69667 0.85019 0.0
O522 O 0.26289 0.43598 0.89016 0.0
Tb523 Tb 0.29253 0.427 0.89968 0.0
Eu524 Eu 0.33137 0.40609 0.87701 0.0
C525 C 0.25804 0.43534 0.87133 0.0
O526 O 0.26983 0.42619 0.85919 0.0
C527 C 0.32118 0.44976 0.87282 0.0
O528 O 0.36077 0.39299 0.8701 0.0
C529 C 0.304 0.39365 0.85374 0.0
C530 C 0.36413 0.37414 0.87217 0.0
O531 O 0.34983 0.3626 0.87787 0.0
C532 C 0.31307 0.38883 0.91628 0.0
C533 C 0.29336 0.3755 0.84928 0.0
C534 C 0.27372 0.37677 0.84335 0.0
C535 C 0.26314 0.35981 0.8387 0.0
C536 C 0.27243 0.34153 0.83988 0.0
C537 C 0.2923 0.34007 0.84507 0.0
C538 C 0.30262 0.35711 0.85025 0.0
O539 O 0.30336 0.44254 0.87378 0.0
O540 O 0.33613 0.4384 0.87658 0.0
O541 O 0.287 0.44361 0.92641 0.0
O542 O 0.31639 0.44037 0.91614 0.0
C543 C 0.30536 0.44762 0.92989 0.0
O544 O 0.32932 0.39314 0.90691 0.0
O545 O 0.29593 0.39674 0.91122 0.0
O546 O 0.32257 0.39445 0.84862 0.0
O547 O 0.30049 0.40138 0.87101 0.0
H548 H 0.26674 0.39097 0.84201 0.0
H549 H 0.26445 0.32844 0.83563 0.0
H550 H 0.31799 0.35617 0.85412 0.0
O551 O 0.57648 0.26208 0.89128 0.0
Tb552 Tb 0.58708 0.29127 0.90069 0.0
Eu553 Eu 0.61006 0.32945 0.87837 0.0
C554 C 0.57724 0.25677 0.87256 0.0
O555 O 0.58781 0.26742 0.86053 0.0
C556 C 0.56638 0.32041 0.87304 0.0
O557 O 0.62376 0.35865 0.87171 0.0
C558 C 0.6222 0.30198 0.85505 0.0
C559 C 0.64243 0.36225 0.8748 0.0
O560 O 0.65379 0.34823 0.88151 0.0
C561 C 0.62561 0.3106 0.91838 0.0
C562 C 0.64075 0.29213 0.85045 0.0
C563 C 0.64041 0.27265 0.84391 0.0
C564 C 0.65789 0.26304 0.839 0.0
C565 C 0.67575 0.27308 0.84101 0.0
C566 C 0.67628 0.29291 0.84667 0.0
C567 C 0.65864 0.30222 0.85177 0.0
O568 O 0.57324 0.30247 0.87401 0.0
O569 O 0.57794 0.33504 0.87736 0.0
O570 O 0.57412 0.316 0.91616 0.0
O571 O 0.56942 0.28701 0.92691 0.0
C572 C 0.56598 0.30558 0.92984 0.0
O573 O 0.62243 0.3269 0.90859 0.0
O574 O 0.61708 0.29373 0.9133 0.0
O575 O 0.62069 0.32044 0.84973 0.0
O576 O 0.615 0.29848 0.87254 0.0
H577 H 0.62651 0.26512 0.84224 0.0
H578 H 0.68922 0.26569 0.837 0.0
H579 H 0.65863 0.31756 0.85589 0.0
O580 O 0.7513 0.57351 0.89078 0.0
Tb581 Tb 0.72185 0.58328 0.90025 0.0
Eu582 Eu 0.68362 0.60825 0.87976 0.0
C583 C 0.75685 0.57508 0.8722 0.0
O584 O 0.74621 0.58594 0.8604 0.0
C585 C 0.69283 0.56535 0.87103 0.0
O586 O 0.65439 0.62237 0.87389 0.0
C587 C 0.71137 0.62115 0.8573 0.0
C588 C 0.65085 0.64096 0.87757 0.0
O589 O 0.66499 0.65214 0.88438 0.0
C590 C 0.70285 0.62084 0.92089 0.0
C591 C 0.72189 0.63932 0.85287 0.0
C592 C 0.74089 0.63809 0.8452 0.0
C593 C 0.75073 0.65499 0.83874 0.0
C594 C 0.74144 0.67328 0.84112 0.0
C595 C 0.72259 0.67471 0.84924 0.0
C596 C 0.71282 0.65763 0.85504 0.0
O597 O 0.71054 0.57276 0.87213 0.0
O598 O 0.67806 0.57627 0.87642 0.0
O599 O 0.72523 0.5615 0.92332 0.0
O600 O 0.69652 0.56947 0.91378 0.0
C601 C 0.70652 0.55844 0.92562 0.0
O602 O 0.68657 0.61869 0.91071 0.0
O603 O 0.71956 0.61196 0.9158 0.0
O604 O 0.6929 0.6203 0.85184 0.0
O605 O 0.71466 0.61347 0.87462 0.0
H606 H 0.74768 0.62382 0.84368 0.0
H607 H 0.7482 0.68642 0.83535 0.0
H608 H 0.69804 0.65854 0.86078 0.0
O609 O 0.57573 0.75128 0.12517 0.0
Tb610 Tb 0.58606 0.72212 0.11535 0.0
Eu611 Eu 0.60745 0.68277 0.13761 0.0
C612 C 0.57644 0.75623 0.14398 0.0
O613 O 0.58674 0.74517 0.1559 0.0
C614 C 0.56414 0.69306 0.14181 0.0
O615 O 0.62073 0.65337 0.14443 0.0
C616 C 0.61859 0.70992 0.16186 0.0
C617 C 0.63953 0.64973 0.14231 0.0
O618 O 0.65128 0.66383 0.13654 0.0
C619 C 0.62451 0.70199 0.09832 0.0
C620 C 0.63663 0.71937 0.16874 0.0
C621 C 0.63562 0.73846 0.17629 0.0
C622 C 0.65232 0.74747 0.18425 0.0
C623 C 0.67017 0.7372 0.18413 0.0
C624 C 0.67131 0.71786 0.17702 0.0
C625 C 0.65447 0.70916 0.16899 0.0
O626 O 0.57192 0.71065 0.14171 0.0
O627 O 0.57514 0.6781 0.13716 0.0
O628 O 0.5692 0.72701 0.08865 0.0
O629 O 0.5726 0.69788 0.09953 0.0
C630 C 0.56518 0.70857 0.08564 0.0
O631 O 0.62085 0.68564 0.10786 0.0
O632 O 0.6162 0.719 0.10332 0.0
O633 O 0.61596 0.69155 0.16703 0.0
O634 O 0.61352 0.71351 0.14365 0.0
H635 H 0.62169 0.74609 0.17647 0.0
H636 H 0.68304 0.74387 0.19062 0.0
H637 H 0.65495 0.69412 0.16386 0.0
O638 O 0.26373 0.57488 0.12639 0.0
Tb639 Tb 0.2933 0.5839 0.11686 0.0
Eu640 Eu 0.32985 0.61254 0.13939 0.0
C641 C 0.25759 0.57768 0.14462 0.0
O642 O 0.26744 0.58978 0.15594 0.0
C643 C 0.32153 0.56997 0.1482 0.0
O644 O 0.35717 0.62935 0.14688 0.0
C645 C 0.29961 0.62545 0.15843 0.0
C646 C 0.3607 0.64695 0.13996 0.0
O647 O 0.34755 0.65554 0.12881 0.0
C648 C 0.31375 0.62049 0.09539 0.0
C649 C 0.29008 0.64435 0.162 0.0
C650 C 0.27089 0.64472 0.16927 0.0
C651 C 0.26184 0.66262 0.17388 0.0
C652 C 0.27215 0.68016 0.17073 0.0
C653 C 0.29149 0.67995 0.1637 0.0
C654 C 0.30034 0.66194 0.1592 0.0
O655 O 0.30416 0.57788 0.14621 0.0
O656 O 0.33657 0.58096 0.14409 0.0
O657 O 0.2891 0.55965 0.09654 0.0
O658 O 0.31811 0.56734 0.10527 0.0
C659 C 0.30759 0.55532 0.09487 0.0
O660 O 0.32894 0.62009 0.1074 0.0
O661 O 0.29696 0.61112 0.0992 0.0
O662 O 0.31694 0.62309 0.16651 0.0
O663 O 0.29858 0.61878 0.14039 0.0
H664 H 0.26321 0.63105 0.17184 0.0
H665 H 0.26567 0.69395 0.17525 0.0
H666 H 0.31536 0.66157 0.15404 0.0
O667 O 0.751 0.44025 0.12529 0.0
Tb668 Tb 0.72218 0.42876 0.11597 0.0
Eu669 Eu 0.68409 0.40352 0.13634 0.0
C670 C 0.75752 0.43789 0.14345 0.0
O671 O 0.74821 0.42566 0.15502 0.0
C672 C 0.6926 0.44685 0.14474 0.0
O673 O 0.65556 0.38751 0.14035 0.0
C674 C 0.71118 0.39013 0.1593 0.0
C675 C 0.64152 0.39 0.12737 0.0
O676 O 0.64466 0.40176 0.11245 0.0
C677 C 0.70442 0.39063 0.09603 0.0
C678 C 0.72105 0.3714 0.16298 0.0
C679 C 0.74013 0.37155 0.17058 0.0
C680 C 0.74968 0.35392 0.1751 0.0
C681 C 0.74001 0.33609 0.17149 0.0
C682 C 0.72081 0.33574 0.16407 0.0
C683 C 0.71141 0.3535 0.1597 0.0
O684 O 0.71056 0.43999 0.14368 0.0
O685 O 0.67805 0.43545 0.13965 0.0
O686 O 0.72552 0.44819 0.09095 0.0
O687 O 0.69682 0.44176 0.10157 0.0
C688 C 0.70684 0.4512 0.08843 0.0
O689 O 0.68779 0.39322 0.10543 0.0
O690 O 0.72095 0.39942 0.10172 0.0
O691 O 0.69263 0.39124 0.16441 0.0
O692 O 0.71498 0.39838 0.14235 0.0
H693 H 0.74734 0.38543 0.17344 0.0
H694 H 0.74687 0.32245 0.1759 0.0
H695 H 0.6965 0.35339 0.15418 0.0
H696 H 0.11949 0.33515 0.38096 0.0
H697 H 0.12273 0.32255 0.4145 0.0
H698 H 0.16523 0.36749 0.42754 0.0
H699 H 0.1623 0.38 0.39416 0.0
H700 H 0.17483 0.33018 0.44334 0.0
H701 H 0.09851 0.35311 0.46088 0.0
H702 H 0.10133 0.33683 0.4403 0.0
H703 H 0.11105 0.36125 0.43907 0.0
C704 C 0.12969 0.3422 0.3909 0.0
C705 C 0.14045 0.35874 0.38494 0.0
C706 C 0.13147 0.33503 0.41007 0.0
C707 C 0.14399 0.34429 0.42358 0.0
C708 C 0.15543 0.36017 0.41737 0.0
H709 H 0.1418 0.35704 0.54774 0.0
H710 H 0.14245 0.35986 0.51207 0.0
C711 C 0.15367 0.36734 0.39827 0.0
C712 C 0.1444 0.33842 0.44454 0.0
H713 H 0.11698 0.33927 0.48642 0.0
C714 C 0.16214 0.33194 0.45275 0.0
C715 C 0.12786 0.34096 0.4568 0.0
C716 C 0.10862 0.34855 0.44894 0.0
C717 C 0.16387 0.32827 0.47299 0.0
C718 C 0.1474 0.33106 0.48524 0.0
C719 C 0.12956 0.33711 0.47695 0.0
C720 C 0.14856 0.32918 0.50689 0.0
C721 C 0.18347 0.32221 0.48124 0.0
C722 C 0.15204 0.311 0.51585 0.0
C723 C 0.15175 0.30932 0.53635 0.0
C724 C 0.14787 0.32581 0.54819 0.0
C725 C 0.14487 0.34405 0.53911 0.0
C726 C 0.14517 0.34569 0.5187 0.0
H727 H 0.19549 0.32403 0.47041 0.0
H728 H 0.18702 0.33091 0.49457 0.0
H729 H 0.18286 0.30655 0.48554 0.0
H730 H 0.15445 0.29801 0.507 0.0
H731 H 0.15406 0.29505 0.54285 0.0
H732 H 0.65728 0.15698 0.38262 0.0
H733 H 0.67294 0.161 0.41481 0.0
H734 H 0.64019 0.11171 0.43689 0.0
H735 H 0.62485 0.10736 0.4049 0.0
H736 H 0.65438 0.16916 0.44932 0.0
H737 H 0.69443 0.09892 0.45692 0.0
H738 H 0.6861 0.1081 0.43349 0.0
H739 H 0.66937 0.09574 0.44964 0.0
C740 C 0.65364 0.14684 0.39427 0.0
C741 C 0.63982 0.13185 0.39119 0.0
C742 C 0.6626 0.14915 0.41263 0.0
C743 C 0.65802 0.13643 0.42816 0.0
C744 C 0.6444 0.12135 0.42501 0.0
H745 H 0.65428 0.15148 0.55191 0.0
H746 H 0.64899 0.14992 0.51649 0.0
C747 C 0.63548 0.11901 0.40671 0.0
C748 C 0.66604 0.13984 0.44813 0.0
H749 H 0.68828 0.11676 0.48664 0.0
C750 C 0.66209 0.15782 0.45736 0.0
C751 C 0.67627 0.12511 0.45858 0.0
C752 C 0.68199 0.10595 0.4491 0.0
C753 C 0.6672 0.16111 0.47704 0.0
C754 C 0.67626 0.14593 0.48784 0.0
C755 C 0.68113 0.12831 0.47837 0.0
C756 C 0.67976 0.14766 0.50922 0.0
C757 C 0.66259 0.18071 0.48622 0.0
C758 C 0.69883 0.14672 0.51688 0.0
C759 C 0.70192 0.14767 0.53716 0.0
C760 C 0.68595 0.14923 0.55012 0.0
C761 C 0.6669 0.15033 0.54235 0.0
C762 C 0.66384 0.1495 0.5221 0.0
H763 H 0.66084 0.19232 0.47494 0.0
H764 H 0.64862 0.17961 0.49447 0.0
H765 H 0.67428 0.18522 0.49665 0.0
H766 H 0.7113 0.14519 0.50716 0.0
H767 H 0.71677 0.14676 0.54268 0.0
H768 H 0.88257 0.68019 0.37671 0.0
H769 H 0.8791 0.69157 0.41076 0.0
H770 H 0.86699 0.63245 0.42929 0.0
H771 H 0.87041 0.62094 0.39557 0.0
H772 H 0.84555 0.68581 0.43852 0.0
H773 H 0.91522 0.6513 0.46267 0.0
H774 H 0.9098 0.65626 0.43721 0.0
H775 H 0.89905 0.63544 0.44917 0.0
C776 C 0.87911 0.66963 0.38804 0.0
C777 C 0.87693 0.64963 0.38344 0.0
C778 C 0.87709 0.67617 0.40744 0.0
C779 C 0.87303 0.66279 0.42251 0.0
C780 C 0.87037 0.64295 0.41788 0.0
H781 H 0.86331 0.65846 0.54772 0.0
H782 H 0.86342 0.65254 0.51237 0.0
C783 C 0.87229 0.63642 0.39856 0.0
C784 C 0.87198 0.66926 0.44323 0.0
H785 H 0.894 0.66283 0.48772 0.0
C786 C 0.85621 0.68099 0.44929 0.0
C787 C 0.88595 0.66293 0.45716 0.0
C788 C 0.90357 0.65092 0.45127 0.0
C789 C 0.85363 0.68593 0.46918 0.0
C790 C 0.86737 0.67917 0.48319 0.0
C791 C 0.8834 0.66787 0.47697 0.0
C792 C 0.86532 0.68318 0.50449 0.0
C793 C 0.83589 0.69771 0.47512 0.0
C794 C 0.86612 0.70241 0.5118 0.0
C795 C 0.86597 0.70587 0.53205 0.0
C796 C 0.86518 0.69012 0.54534 0.0
C797 C 0.8639 0.67092 0.53792 0.0
C798 C 0.864 0.6675 0.51771 0.0
H799 H 0.82451 0.69781 0.46345 0.0
H800 H 0.82934 0.69183 0.48881 0.0
H801 H 0.84038 0.71309 0.47794 0.0
H802 H 0.86754 0.71471 0.50188 0.0
H803 H 0.86714 0.72082 0.53728 0.0
H804 H 0.3389 0.87886 0.37866 0.0
H805 H 0.32794 0.8761 0.41286 0.0
H806 H 0.38647 0.86014 0.4305 0.0
H807 H 0.39756 0.86277 0.39656 0.0
H808 H 0.33372 0.84133 0.44156 0.0
H809 H 0.36968 0.91151 0.46247 0.0
H810 H 0.36313 0.90568 0.43743 0.0
H811 H 0.38427 0.89457 0.44845 0.0
C812 C 0.3494 0.87463 0.3898 0.0
C813 C 0.36914 0.87118 0.38491 0.0
C814 C 0.3431 0.87301 0.40929 0.0
C815 C 0.35646 0.86808 0.42413 0.0
C816 C 0.37599 0.8641 0.41922 0.0
H817 H 0.36039 0.86665 0.55009 0.0
H818 H 0.36684 0.86418 0.51492 0.0
C819 C 0.38228 0.8656 0.3998 0.0
C820 C 0.35038 0.86789 0.44494 0.0
H821 H 0.35702 0.89219 0.48822 0.0
C822 C 0.33865 0.85248 0.4518 0.0
C823 C 0.3569 0.88248 0.45815 0.0
C824 C 0.36908 0.89961 0.45133 0.0
C825 C 0.33378 0.85095 0.47179 0.0
C826 C 0.34055 0.86543 0.48507 0.0
C827 C 0.35196 0.88103 0.47805 0.0
C828 C 0.33628 0.86474 0.5064 0.0
C829 C 0.32198 0.83355 0.4786 0.0
C830 C 0.31693 0.86561 0.51333 0.0
C831 C 0.31318 0.86687 0.53348 0.0
C832 C 0.32875 0.86754 0.54702 0.0
C833 C 0.34808 0.86617 0.54005 0.0
C834 C 0.35179 0.86478 0.51995 0.0
H835 H 0.32237 0.82137 0.46775 0.0
H836 H 0.32748 0.82804 0.4929 0.0
H837 H 0.30648 0.83804 0.48052 0.0
H838 H 0.30474 0.86602 0.50314 0.0
H839 H 0.29813 0.86807 0.53836 0.0
H840 H 0.09739 0.62591 0.61112 0.0
H841 H 0.10431 0.64082 0.57937 0.0
H842 H 0.14956 0.67626 0.60577 0.0
H843 H 0.14286 0.66121 0.63775 0.0
H844 H 0.104 0.68027 0.56691 0.0
H845 H 0.17807 0.6465 0.5613 0.0
H846 H 0.16021 0.63858 0.57911 0.0
H847 H 0.17344 0.66102 0.58285 0.0
C848 C 0.10875 0.63695 0.61026 0.0
C849 C 0.1197 0.64223 0.62695 0.0
C850 C 0.11265 0.6455 0.59208 0.0
C851 C 0.12762 0.65944 0.59015 0.0
C852 C 0.13815 0.66529 0.60689 0.0
H853 H 0.14417 0.71939 0.47673 0.0
H854 H 0.1416 0.71381 0.51218 0.0
C855 C 0.13423 0.65675 0.62516 0.0
C856 C 0.13247 0.66715 0.5704 0.0
H857 H 0.16734 0.66531 0.53448 0.0
C858 C 0.11794 0.67725 0.55989 0.0
C859 C 0.1506 0.66296 0.56122 0.0
C860 C 0.16648 0.65155 0.57157 0.0
C861 C 0.12088 0.6829 0.54029 0.0
C862 C 0.13891 0.67849 0.53106 0.0
C863 C 0.15361 0.6688 0.5417 0.0
C864 C 0.14207 0.68219 0.50987 0.0
C865 C 0.10434 0.69265 0.52929 0.0
C866 C 0.14381 0.66628 0.49693 0.0
C867 C 0.14532 0.66939 0.47673 0.0
C868 C 0.14527 0.68851 0.46909 0.0
C869 C 0.1443 0.70448 0.48216 0.0
C870 C 0.14269 0.70133 0.5024 0.0
H871 H 0.09035 0.69228 0.53761 0.0
H872 H 0.10816 0.7082 0.52648 0.0
H873 H 0.10205 0.68539 0.51488 0.0
H874 H 0.14341 0.65139 0.50242 0.0
H875 H 0.14607 0.65677 0.46709 0.0
H876 H 0.33507 0.13454 0.64202 0.0
H877 H 0.32348 0.13678 0.60795 0.0
H878 H 0.38191 0.15128 0.58896 0.0
H879 H 0.39362 0.14922 0.62274 0.0
H880 H 0.33175 0.17232 0.57777 0.0
H881 H 0.36077 0.09833 0.55922 0.0
H882 H 0.35389 0.10521 0.5839 0.0
H883 H 0.37637 0.11409 0.57361 0.0
C884 C 0.34541 0.13836 0.63061 0.0
C885 C 0.3653 0.14158 0.63508 0.0
C886 C 0.33875 0.13967 0.6112 0.0
C887 C 0.3519 0.14409 0.59605 0.0
C888 C 0.37159 0.14779 0.60052 0.0
H889 H 0.36177 0.14548 0.47179 0.0
H890 H 0.36553 0.14658 0.5074 0.0
C891 C 0.37824 0.1466 0.61984 0.0
C892 C 0.34551 0.14406 0.57534 0.0
H893 H 0.3506 0.11826 0.53275 0.0
C894 C 0.33559 0.16044 0.5679 0.0
C895 C 0.35062 0.1285 0.56265 0.0
C896 C 0.36089 0.11043 0.57017 0.0
C897 C 0.33137 0.16203 0.54776 0.0
C898 C 0.33705 0.1467 0.53494 0.0
C899 C 0.34637 0.13004 0.5426 0.0
C900 C 0.33443 0.1479 0.5134 0.0
C901 C 0.32165 0.18039 0.54022 0.0
C902 C 0.31567 0.14856 0.50496 0.0
C903 C 0.31347 0.14804 0.48454 0.0
C904 C 0.33 0.14667 0.47228 0.0
C905 C 0.34875 0.14653 0.48081 0.0
C906 C 0.35093 0.14711 0.50116 0.0
H907 H 0.32191 0.19239 0.55127 0.0
H908 H 0.32894 0.18559 0.52663 0.0
H909 H 0.30613 0.17715 0.53662 0.0
H910 H 0.30273 0.14884 0.51414 0.0
H911 H 0.29881 0.14803 0.47841 0.0
H912 H 0.85648 0.36388 0.63767 0.0
H913 H 0.84941 0.34839 0.60587 0.0
H914 H 0.90508 0.36842 0.58374 0.0
H915 H 0.91233 0.38364 0.61526 0.0
H916 H 0.84654 0.36697 0.56977 0.0
H917 H 0.90503 0.31096 0.5676 0.0
H918 H 0.8979 0.32322 0.59 0.0
H919 H 0.91456 0.33483 0.57316 0.0
C920 C 0.8673 0.36476 0.62609 0.0
C921 C 0.88497 0.37499 0.629 0.0
C922 C 0.86323 0.35593 0.60795 0.0
C923 C 0.87685 0.357 0.59254 0.0
C924 C 0.89455 0.36701 0.59554 0.0
H925 H 0.86993 0.36092 0.46884 0.0
H926 H 0.86828 0.36634 0.50419 0.0
C927 C 0.8986 0.37584 0.61357 0.0
C928 C 0.87226 0.34891 0.57285 0.0
H929 H 0.89148 0.32054 0.53633 0.0
C930 C 0.85615 0.35654 0.56256 0.0
C931 C 0.8846 0.33507 0.56354 0.0
C932 C 0.90137 0.32539 0.57423 0.0
C933 C 0.85279 0.35162 0.54281 0.0
C934 C 0.86607 0.339 0.53306 0.0
C935 C 0.88144 0.33042 0.54372 0.0
C936 C 0.86521 0.33564 0.51155 0.0
C937 C 0.83522 0.36023 0.53251 0.0
C938 C 0.86427 0.31655 0.50389 0.0
C939 C 0.86534 0.31338 0.48362 0.0
C940 C 0.86752 0.32926 0.47066 0.0
C941 C 0.8681 0.34837 0.47838 0.0
C942 C 0.86703 0.35152 0.49861 0.0
H943 H 0.82339 0.36389 0.54309 0.0
H944 H 0.83962 0.37399 0.52506 0.0
H945 H 0.82929 0.34999 0.5213 0.0
H946 H 0.86304 0.30408 0.51363 0.0
H947 H 0.86496 0.29846 0.47817 0.0
H948 H 0.63662 0.84835 0.6253 0.0
H949 H 0.65017 0.84586 0.59227 0.0
H950 H 0.69599 0.88652 0.60794 0.0
H951 H 0.68246 0.8892 0.64113 0.0
H952 H 0.67463 0.89712 0.57451 0.0
H953 H 0.69947 0.81999 0.56927 0.0
H954 H 0.67502 0.82242 0.5787 0.0
H955 H 0.69531 0.83217 0.59247 0.0
C956 C 0.64978 0.85652 0.62187 0.0
C957 C 0.65838 0.86908 0.63581 0.0
C958 C 0.65759 0.85496 0.603 0.0
C959 C 0.67419 0.86584 0.59773 0.0
C960 C 0.68323 0.87789 0.61179 0.0
H961 H 0.72375 0.8647 0.47865 0.0
H962 H 0.72069 0.86243 0.51444 0.0
C963 C 0.67548 0.8794 0.63073 0.0
C964 C 0.68064 0.86623 0.57699 0.0
H965 H 0.69409 0.83678 0.53871 0.0
C966 C 0.67919 0.884 0.56676 0.0
C967 C 0.6867 0.84912 0.56694 0.0
C968 C 0.68942 0.82987 0.57744 0.0
C969 C 0.68271 0.8849 0.54651 0.0
C970 C 0.68764 0.86756 0.53627 0.0
C971 C 0.69007 0.84998 0.54662 0.0
C972 C 0.68939 0.86739 0.51466 0.0
C973 C 0.68077 0.90432 0.53613 0.0
C974 C 0.67271 0.87039 0.50302 0.0
C975 C 0.67435 0.87159 0.48265 0.0
C976 C 0.69275 0.86983 0.47356 0.0
C977 C 0.70937 0.86614 0.48523 0.0
C978 C 0.70767 0.86485 0.50565 0.0
H979 H 0.68133 0.91684 0.54656 0.0
H980 H 0.69257 0.90614 0.52506 0.0
H981 H 0.66649 0.90482 0.52834 0.0
H982 H 0.65844 0.87217 0.50976 0.0
H983 H 0.66127 0.87441 0.47409 0.0
H984 H 0.38046 0.12757 0.33686 0.0
H985 H 0.41406 0.12851 0.32391 0.0
H986 H 0.43587 0.14311 0.38149 0.0
H987 H 0.40261 0.14232 0.39452 0.0
H988 H 0.44322 0.16252 0.32827 0.0
H989 H 0.46692 0.09249 0.36257 0.0
H990 H 0.44163 0.09756 0.35644 0.0
H991 H 0.45261 0.10872 0.37764 0.0
C992 C 0.39242 0.13102 0.34674 0.0
C993 C 0.38886 0.13478 0.36674 0.0
C994 C 0.41156 0.13155 0.33932 0.0
C995 C 0.42739 0.13562 0.35183 0.0
C996 C 0.42384 0.13969 0.37168 0.0
H997 H 0.55075 0.14764 0.35754 0.0
H998 H 0.51541 0.14436 0.36195 0.0
C999 C 0.40479 0.13931 0.37906 0.0
C1000 C 0.44774 0.13584 0.3444 0.0
H1001 H 0.49187 0.11297 0.3499 0.0
C1002 C 0.45386 0.15157 0.3327 0.0
C1003 C 0.46147 0.12149 0.35026 0.0
C1004 C 0.4554 0.10399 0.3623 0.0
C1005 C 0.47367 0.15391 0.32757 0.0
C1006 C 0.48755 0.13993 0.33407 0.0
C1007 C 0.48122 0.12374 0.34506 0.0
C1008 C 0.50888 0.14249 0.33092 0.0
C1009 C 0.47973 0.17179 0.31609 0.0
C1010 C 0.51694 0.14259 0.31198 0.0
C1011 C 0.53719 0.14462 0.30939 0.0
C1012 C 0.5497 0.14636 0.32573 0.0
C1013 C 0.54153 0.14636 0.34465 0.0
C1014 C 0.52134 0.14442 0.3472 0.0
H1015 H 0.46794 0.183 0.31557 0.0
H1016 H 0.49306 0.17853 0.32259 0.0
H1017 H 0.48323 0.1674 0.3008 0.0
H1018 H 0.50763 0.14079 0.29922 0.0
H1019 H 0.54306 0.14438 0.29463 0.0
H1020 H 0.87727 0.37845 0.33474 0.0
H1021 H 0.87472 0.41168 0.32144 0.0
H1022 H 0.84753 0.43125 0.3751 0.0
H1023 H 0.84985 0.39815 0.38847 0.0
H1024 H 0.83059 0.44704 0.33916 0.0
H1025 H 0.91173 0.4548 0.34406 0.0
H1026 H 0.90262 0.43418 0.33034 0.0
H1027 H 0.89865 0.4354 0.35635 0.0
C1028 C 0.87052 0.38976 0.34362 0.0
C1029 C 0.864 0.38573 0.36277 0.0
C1030 C 0.86911 0.40873 0.336 0.0
C1031 C 0.86117 0.42391 0.34741 0.0
C1032 C 0.85373 0.41971 0.3661 0.0
H1033 H 0.87963 0.54637 0.35425 0.0
H1034 H 0.87435 0.51131 0.35881 0.0
C1035 C 0.85515 0.40079 0.37374 0.0
C1036 C 0.862 0.44448 0.3407 0.0
H1037 H 0.89393 0.48225 0.33349 0.0
C1038 C 0.84441 0.45473 0.33766 0.0
C1039 C 0.88009 0.45443 0.33899 0.0
C1040 C 0.89939 0.44426 0.34272 0.0
C1041 C 0.84447 0.47484 0.33327 0.0
C1042 C 0.86255 0.48481 0.33191 0.0
C1043 C 0.88011 0.47446 0.3345 0.0
C1044 C 0.8637 0.50626 0.32933 0.0
C1045 C 0.82527 0.48552 0.33088 0.0
C1046 C 0.85913 0.51503 0.3113 0.0
C1047 C 0.8621 0.53514 0.30863 0.0
C1048 C 0.86981 0.54669 0.32393 0.0
C1049 C 0.87368 0.53791 0.34217 0.0
C1050 C 0.87073 0.51787 0.3448 0.0
H1051 H 0.8125 0.47612 0.33456 0.0
H1052 H 0.82499 0.49876 0.34038 0.0
H1053 H 0.82373 0.49045 0.31545 0.0
H1054 H 0.85383 0.50624 0.29914 0.0
H1055 H 0.85882 0.54153 0.29447 0.0
H1056 H 0.63976 0.88158 0.33849 0.0
H1057 H 0.60628 0.87781 0.32579 0.0
H1058 H 0.58699 0.85795 0.38257 0.0
H1059 H 0.6202 0.86159 0.3954 0.0
H1060 H 0.57762 0.84099 0.32975 0.0
H1061 H 0.55555 0.91078 0.36597 0.0
H1062 H 0.58066 0.90545 0.35946 0.0
H1063 H 0.56978 0.89389 0.38042 0.0
C1064 C 0.62842 0.87623 0.34822 0.0
C1065 C 0.63259 0.87209 0.36802 0.0
C1066 C 0.60937 0.87402 0.34092 0.0
C1067 C 0.59426 0.86772 0.35332 0.0
C1068 C 0.59851 0.86289 0.37284 0.0
H1069 H 0.46931 0.8644 0.35605 0.0
H1070 H 0.50445 0.86172 0.36215 0.0
C1071 C 0.6175 0.86501 0.38012 0.0
C1072 C 0.57373 0.86747 0.34649 0.0
H1073 H 0.5303 0.89141 0.35238 0.0
C1074 C 0.56723 0.85205 0.33449 0.0
C1075 C 0.56038 0.88198 0.35276 0.0
C1076 C 0.56686 0.89908 0.36526 0.0
C1077 C 0.54738 0.85041 0.32916 0.0
C1078 C 0.53392 0.86472 0.33583 0.0
C1079 C 0.54063 0.88038 0.34741 0.0
C1080 C 0.51267 0.86367 0.33156 0.0
C1081 C 0.54084 0.83309 0.31703 0.0
C1082 C 0.50562 0.86525 0.31227 0.0
C1083 C 0.48546 0.86669 0.30871 0.0
C1084 C 0.4721 0.86677 0.32442 0.0
C1085 C 0.47921 0.86444 0.34364 0.0
C1086 C 0.49929 0.86291 0.34715 0.0
H1087 H 0.55203 0.82125 0.31684 0.0
H1088 H 0.52687 0.82702 0.32273 0.0
H1089 H 0.53832 0.83789 0.30169 0.0
H1090 H 0.5157 0.86621 0.30005 0.0
H1091 H 0.48044 0.86859 0.29374 0.0
H1092 H 0.16525 0.61947 0.38679 0.0
H1093 H 0.16771 0.58567 0.37504 0.0
H1094 H 0.12915 0.59927 0.32681 0.0
H1095 H 0.12666 0.63322 0.33837 0.0
H1096 H 0.11855 0.56538 0.3511 0.0
H1097 H 0.19556 0.5632 0.32476 0.0
H1098 H 0.19201 0.57406 0.34858 0.0
H1099 H 0.1819 0.58577 0.32728 0.0
C1100 C 0.15747 0.61536 0.37355 0.0
C1101 C 0.14574 0.62903 0.36353 0.0
C1102 C 0.15897 0.59606 0.36681 0.0
C1103 C 0.14875 0.59006 0.34998 0.0
C1104 C 0.13725 0.60369 0.33976 0.0
H1105 H 0.15126 0.47227 0.29774 0.0
H1106 H 0.15117 0.50804 0.30177 0.0
C1107 C 0.13587 0.62307 0.34638 0.0
C1108 C 0.14902 0.56921 0.34394 0.0
H1109 H 0.17938 0.53247 0.32851 0.0
C1110 C 0.13178 0.5582 0.34599 0.0
C1111 C 0.16629 0.55998 0.33715 0.0
C1112 C 0.18499 0.57134 0.33413 0.0
C1113 C 0.13158 0.53799 0.34217 0.0
C1114 C 0.14901 0.52864 0.33605 0.0
C1115 C 0.16607 0.53974 0.33328 0.0
C1116 C 0.14992 0.50715 0.33347 0.0
C1117 C 0.1128 0.52664 0.34476 0.0
C1118 C 0.14963 0.49495 0.34998 0.0
C1119 C 0.14972 0.47461 0.34776 0.0
C1120 C 0.15015 0.4661 0.32896 0.0
C1121 C 0.15095 0.47839 0.31242 0.0
C1122 C 0.15087 0.49879 0.31467 0.0
H1123 H 0.10024 0.5363 0.3484 0.0
H1124 H 0.10941 0.51837 0.33111 0.0
H1125 H 0.11451 0.51584 0.35679 0.0
H1126 H 0.14909 0.50119 0.3646 0.0
H1127 H 0.14916 0.46558 0.3608 0.0
H1128 H 0.54181 0.85354 0.71663 0.0
H1129 H 0.50646 0.85136 0.71042 0.0
H1130 H 0.51605 0.867 0.64989 0.0
H1131 H 0.55115 0.86948 0.65599 0.0
H1132 H 0.48328 0.88272 0.69739 0.0
H1133 H 0.47869 0.82024 0.64571 0.0
H1134 H 0.4998 0.8245 0.66116 0.0
H1135 H 0.49688 0.83782 0.63857 0.0
C1136 C 0.53637 0.85639 0.70198 0.0
C1137 C 0.54923 0.86196 0.68687 0.0
C1138 C 0.51621 0.85503 0.69844 0.0
C1139 C 0.50868 0.85884 0.67966 0.0
C1140 C 0.52159 0.86364 0.66441 0.0
H1141 H 0.40515 0.90892 0.63449 0.0
H1142 H 0.43656 0.90103 0.6497 0.0
C1143 C 0.54167 0.86511 0.66795 0.0
C1144 C 0.48728 0.85961 0.67617 0.0
H1145 H 0.45171 0.84308 0.64506 0.0
C1146 C 0.47626 0.8738 0.68622 0.0
C1147 C 0.4781 0.84781 0.66177 0.0
C1148 C 0.48894 0.8316 0.65132 0.0
C1149 C 0.45658 0.87732 0.68137 0.0
C1150 C 0.44785 0.86654 0.66592 0.0
C1151 C 0.45851 0.85151 0.65674 0.0
C1152 C 0.42826 0.87159 0.65803 0.0
C1153 C 0.44546 0.89283 0.69256 0.0
C1154 C 0.41325 0.85755 0.65743 0.0
C1155 C 0.39526 0.86199 0.64864 0.0
C1156 C 0.39208 0.88049 0.64011 0.0
C1157 C 0.40709 0.89456 0.64095 0.0
C1158 C 0.42502 0.89013 0.64978 0.0
H1159 H 0.45178 0.89516 0.70742 0.0
H1160 H 0.44639 0.90692 0.68451 0.0
H1161 H 0.42975 0.88885 0.6941 0.0
H1162 H 0.41553 0.84311 0.66359 0.0
H1163 H 0.384 0.85081 0.64821 0.0
H1164 H 0.13663 0.38628 0.67973 0.0
H1165 H 0.13567 0.42051 0.69065 0.0
H1166 H 0.14084 0.43975 0.63066 0.0
H1167 H 0.14191 0.40562 0.61959 0.0
H1168 H 0.16499 0.45079 0.68312 0.0
H1169 H 0.09153 0.46901 0.65312 0.0
H1170 H 0.09953 0.4441 0.6572 0.0
H1171 H 0.10787 0.45731 0.63601 0.0
C1172 C 0.13756 0.39779 0.66884 0.0
C1173 C 0.13931 0.39322 0.64877 0.0
C1174 C 0.137 0.41732 0.67512 0.0
C1175 C 0.13791 0.43262 0.66144 0.0
C1176 C 0.13982 0.42813 0.64142 0.0
H1177 H 0.13933 0.55841 0.65989 0.0
H1178 H 0.13954 0.52325 0.653 0.0
C1179 C 0.14056 0.40862 0.63514 0.0
C1180 C 0.13739 0.45333 0.66804 0.0
H1181 H 0.11104 0.49568 0.66413 0.0
C1182 C 0.15313 0.4606 0.67915 0.0
C1183 C 0.12184 0.46602 0.66289 0.0
C1184 C 0.10412 0.45875 0.6518 0.0
C1185 C 0.15411 0.48046 0.68459 0.0
C1186 C 0.13878 0.49326 0.67901 0.0
C1187 C 0.12282 0.48586 0.6683 0.0
C1188 C 0.13932 0.51454 0.6835 0.0
C1189 C 0.17186 0.48771 0.69566 0.0
C1190 C 0.1392 0.52133 0.70297 0.0
C1191 C 0.13919 0.54146 0.70696 0.0
C1192 C 0.13906 0.55515 0.69157 0.0
C1193 C 0.13948 0.54828 0.67211 0.0
C1194 C 0.13948 0.52818 0.66813 0.0
H1195 H 0.18419 0.4771 0.69497 0.0
H1196 H 0.17692 0.50199 0.68975 0.0
H1197 H 0.16793 0.48987 0.71132 0.0
H1198 H 0.13877 0.51107 0.71506 0.0
H1199 H 0.13888 0.54628 0.72206 0.0
H1200 H 0.63445 0.16151 0.6573 0.0
H1201 H 0.60343 0.16871 0.67395 0.0
H1202 H 0.58213 0.11108 0.65892 0.0
H1203 H 0.61301 0.10367 0.64266 0.0
H1204 H 0.56743 0.17 0.65709 0.0
H1205 H 0.56702 0.11468 0.71607 0.0
H1206 H 0.58897 0.1209 0.70268 0.0
H1207 H 0.57174 0.1035 0.69272 0.0
C1208 C 0.62327 0.15027 0.65784 0.0
C1209 C 0.62619 0.13202 0.64864 0.0
C1210 C 0.60556 0.15441 0.66734 0.0
C1211 C 0.59057 0.14033 0.66794 0.0
C1212 C 0.59365 0.122 0.65909 0.0
H1213 H 0.46789 0.14422 0.6632 0.0
H1214 H 0.5031 0.14753 0.65835 0.0
C1215 C 0.61129 0.11784 0.64965 0.0
C1216 C 0.57106 0.14514 0.67622 0.0
H1217 H 0.5352 0.12671 0.70573 0.0
C1218 C 0.56051 0.16079 0.66803 0.0
C1219 C 0.56214 0.13339 0.69077 0.0
C1220 C 0.57316 0.11732 0.70121 0.0
C1221 C 0.54082 0.1641 0.67298 0.0
C1222 C 0.53138 0.1512 0.68615 0.0
C1223 C 0.54234 0.13644 0.6954 0.0
C1224 C 0.50986 0.15149 0.68916 0.0
C1225 C 0.53024 0.18116 0.66373 0.0
C1226 C 0.5019 0.15245 0.70813 0.0
C1227 C 0.48171 0.15037 0.71098 0.0
C1228 C 0.46916 0.14716 0.6949 0.0
C1229 C 0.47712 0.14679 0.67589 0.0
C1230 C 0.49727 0.14883 0.67307 0.0
H1231 H 0.54058 0.19317 0.66005 0.0
H1232 H 0.52324 0.17624 0.64986 0.0
H1233 H 0.51868 0.18705 0.67357 0.0
H1234 H 0.51137 0.15434 0.72076 0.0
H1235 H 0.47604 0.15066 0.72583 0.0
H1236 H 0.84132 0.6299 0.64705 0.0
H1237 H 0.83689 0.59849 0.66404 0.0
H1238 H 0.89179 0.57794 0.64043 0.0
H1239 H 0.89637 0.60905 0.62357 0.0
H1240 H 0.83555 0.56005 0.64723 0.0
H1241 H 0.89688 0.56791 0.69991 0.0
H1242 H 0.88658 0.58848 0.68681 0.0
H1243 H 0.9041 0.57264 0.67504 0.0
C1244 C 0.85246 0.61869 0.64554 0.0
C1245 C 0.86922 0.62199 0.634 0.0
C1246 C 0.8499 0.60079 0.65525 0.0
C1247 C 0.86418 0.58605 0.65373 0.0
C1248 C 0.8808 0.58928 0.64211 0.0
H1249 H 0.8701 0.4633 0.65952 0.0
H1250 H 0.86364 0.49756 0.65181 0.0
C1251 C 0.88332 0.60705 0.63237 0.0
C1252 C 0.86165 0.56694 0.66365 0.0
H1253 H 0.88536 0.53511 0.69404 0.0
C1254 C 0.84621 0.55469 0.65775 0.0
C1255 C 0.87537 0.56011 0.67762 0.0
C1256 C 0.89155 0.57305 0.68538 0.0
C1257 C 0.8449 0.53529 0.66449 0.0
C1258 C 0.85957 0.52797 0.67721 0.0
C1259 C 0.87423 0.54065 0.68412 0.0
C1260 C 0.86112 0.50686 0.6821 0.0
C1261 C 0.82805 0.52272 0.65761 0.0
C1262 C 0.862 0.50067 0.70172 0.0
C1263 C 0.86585 0.48104 0.7062 0.0
C1264 C 0.86906 0.46731 0.69111 0.0
C1265 C 0.86762 0.47347 0.67149 0.0
C1266 C 0.86376 0.49305 0.66705 0.0
H1267 H 0.81508 0.53181 0.65382 0.0
H1268 H 0.83251 0.51463 0.64419 0.0
H1269 H 0.82375 0.5119 0.66896 0.0
H1270 H 0.86017 0.51113 0.71356 0.0
H1271 H 0.86692 0.47677 0.72147 0.0
H1272 H 0.35394 0.38127 0.15583 0.0
H1273 H 0.33734 0.41273 0.16107 0.0
H1274 H 0.36674 0.43659 0.11047 0.0
H1275 H 0.38297 0.40531 0.10491 0.0
H1276 H 0.3551 0.44753 0.16897 0.0
H1277 H 0.31144 0.4552 0.10088 0.0
H1278 H 0.3208 0.43189 0.10926 0.0
H1279 H 0.33643 0.44855 0.09617 0.0
C1280 C 0.35661 0.39314 0.14564 0.0
C1281 C 0.36978 0.39079 0.12995 0.0
C1282 C 0.34711 0.41109 0.14865 0.0
C1283 C 0.35052 0.42692 0.13596 0.0
C1284 C 0.36343 0.42446 0.12013 0.0
H1285 H 0.35556 0.54947 0.15186 0.0
H1286 H 0.35989 0.51399 0.15095 0.0
C1287 C 0.37286 0.40657 0.11708 0.0
C1288 C 0.34214 0.44655 0.14013 0.0
H1289 H 0.31854 0.48497 0.11845 0.0
C1290 C 0.34678 0.45558 0.15807 0.0
C1291 C 0.33104 0.45698 0.12604 0.0
C1292 C 0.32444 0.4476 0.10709 0.0
C1293 C 0.34165 0.47515 0.1618 0.0
C1294 C 0.33192 0.48603 0.14709 0.0
C1295 C 0.32622 0.47667 0.12963 0.0
C1296 C 0.32892 0.50747 0.14889 0.0
C1297 C 0.34704 0.4841 0.18134 0.0
C1298 C 0.31006 0.5156 0.1478 0.0
C1299 C 0.30752 0.53596 0.1483 0.0
C1300 C 0.32386 0.54848 0.14963 0.0
C1301 C 0.34268 0.54023 0.15093 0.0
C1302 C 0.34518 0.51994 0.15051 0.0
H1303 H 0.34859 0.47272 0.19287 0.0
H1304 H 0.36132 0.49174 0.17997 0.0
H1305 H 0.33589 0.49495 0.18616 0.0
H1306 H 0.29733 0.50622 0.14637 0.0
H1307 H 0.29284 0.54187 0.14711 0.0
H1308 H 0.33652 0.63784 0.88686 0.0
H1309 H 0.32439 0.60408 0.88467 0.0
H1310 H 0.37113 0.58962 0.84467 0.0
H1311 H 0.3834 0.62321 0.84677 0.0
H1312 H 0.33056 0.57375 0.83549 0.0
H1313 H 0.35893 0.55899 0.91076 0.0
H1314 H 0.34369 0.58028 0.90745 0.0
H1315 H 0.36745 0.57939 0.89625 0.0
C1316 C 0.34404 0.62756 0.87737 0.0
C1317 C 0.36105 0.63314 0.86715 0.0
C1318 C 0.33711 0.60829 0.87616 0.0
C1319 C 0.34699 0.5944 0.86463 0.0
C1320 C 0.36333 0.60017 0.85364 0.0
H1321 H 0.35593 0.46947 0.87095 0.0
H1322 H 0.36082 0.50475 0.86753 0.0
C1323 C 0.37035 0.61935 0.85494 0.0
C1324 C 0.34137 0.57348 0.86517 0.0
H1325 H 0.34409 0.53276 0.89403 0.0
C1326 C 0.33333 0.56477 0.84831 0.0
C1327 C 0.34526 0.56186 0.88187 0.0
C1328 C 0.35441 0.57046 0.90013 0.0
C1329 C 0.32915 0.5446 0.84771 0.0
C1330 C 0.33314 0.53298 0.8644 0.0
C1331 C 0.34103 0.54176 0.88128 0.0
C1332 C 0.33 0.51151 0.86454 0.0
C1333 C 0.32105 0.53574 0.8291 0.0
C1334 C 0.31103 0.50362 0.86376 0.0
C1335 C 0.30816 0.48341 0.86572 0.0
C1336 C 0.32423 0.47079 0.86855 0.0
C1337 C 0.34324 0.47874 0.86876 0.0
C1338 C 0.34607 0.49891 0.86685 0.0
H1339 H 0.32215 0.54595 0.81647 0.0
H1340 H 0.32892 0.52197 0.82541 0.0
H1341 H 0.30537 0.53206 0.83131 0.0
H1342 H 0.29842 0.51315 0.86227 0.0
H1343 H 0.29332 0.47777 0.86559 0.0
H1344 H 0.39723 0.39483 0.86374 0.0
H1345 H 0.43075 0.38254 0.86148 0.0
H1346 H 0.41024 0.32377 0.87212 0.0
H1347 H 0.37647 0.33593 0.87446 0.0
H1348 H 0.44912 0.36016 0.89417 0.0
H1349 H 0.44803 0.32053 0.82257 0.0
H1350 H 0.43086 0.33991 0.8282 0.0
H1351 H 0.42821 0.31637 0.83951 0.0
C1352 C 0.39975 0.37925 0.8654 0.0
C1353 C 0.38418 0.36637 0.86936 0.0
C1354 C 0.41892 0.37227 0.8641 0.0
C1355 C 0.42289 0.35227 0.86652 0.0
C1356 C 0.40739 0.33924 0.87 0.0
H1357 H 0.53687 0.29334 0.86986 0.0
H1358 H 0.5016 0.29988 0.86773 0.0
C1359 C 0.38815 0.34623 0.87141 0.0
C1360 C 0.44345 0.34546 0.86678 0.0
H1361 H 0.47783 0.32058 0.84019 0.0
C1362 C 0.4554 0.35145 0.88242 0.0
C1363 C 0.45145 0.33393 0.85152 0.0
C1364 C 0.43909 0.32731 0.83439 0.0
C1365 C 0.4753 0.34642 0.8831 0.0
C1366 C 0.48355 0.33555 0.86745 0.0
C1367 C 0.47147 0.32905 0.85207 0.0
C1368 C 0.50483 0.3314 0.86668 0.0
C1369 C 0.48729 0.35272 0.90065 0.0
C1370 C 0.51828 0.34692 0.86607 0.0
C1371 C 0.53836 0.34327 0.86735 0.0
C1372 C 0.54538 0.32399 0.86907 0.0
C1373 C 0.53192 0.30836 0.86858 0.0
C1374 C 0.51178 0.31206 0.86738 0.0
H1375 H 0.47788 0.35589 0.91357 0.0
H1376 H 0.49811 0.34129 0.90477 0.0
H1377 H 0.49541 0.36632 0.89699 0.0
H1378 H 0.5132 0.36193 0.86511 0.0
H1379 H 0.54833 0.35562 0.8675 0.0
H1380 H 0.68039 0.37517 0.87864 0.0
H1381 H 0.69221 0.40908 0.87609 0.0
H1382 H 0.63375 0.42848 0.8621 0.0
H1383 H 0.62181 0.39488 0.86453 0.0
H1384 H 0.68626 0.43853 0.84196 0.0
H1385 H 0.65286 0.45913 0.91349 0.0
H1386 H 0.65858 0.43407 0.90704 0.0
H1387 H 0.6373 0.44574 0.89688 0.0
C1388 C 0.67008 0.38665 0.87489 0.0
C1389 C 0.65012 0.38234 0.87195 0.0
C1390 C 0.67688 0.40596 0.87339 0.0
C1391 C 0.66379 0.42122 0.86908 0.0
C1392 C 0.64402 0.41689 0.86558 0.0
H1393 H 0.65818 0.5461 0.86628 0.0
H1394 H 0.65295 0.51075 0.86445 0.0
C1395 C 0.63725 0.39765 0.86697 0.0
C1396 C 0.67038 0.44186 0.86903 0.0
H1397 H 0.66449 0.48504 0.89362 0.0
C1398 C 0.68172 0.44873 0.85332 0.0
C1399 C 0.66441 0.455 0.88391 0.0
C1400 C 0.65274 0.44817 0.9014 0.0
C1401 C 0.68658 0.4687 0.8517 0.0
C1402 C 0.68013 0.48195 0.86634 0.0
C1403 C 0.66929 0.47488 0.88233 0.0
C1404 C 0.68377 0.50334 0.86521 0.0
C1405 C 0.69791 0.47558 0.83401 0.0
C1406 C 0.70288 0.51094 0.86592 0.0
C1407 C 0.70593 0.53121 0.86685 0.0
C1408 C 0.6899 0.54418 0.86731 0.0
C1409 C 0.67084 0.53652 0.86598 0.0
C1410 C 0.66781 0.51631 0.86496 0.0
H1411 H 0.69794 0.46446 0.82208 0.0
H1412 H 0.69168 0.48945 0.82821 0.0
H1413 H 0.71333 0.47842 0.83834 0.0
H1414 H 0.71539 0.50119 0.86648 0.0
H1415 H 0.7208 0.53665 0.86802 0.0
H1416 H 0.63804 0.67889 0.88224 0.0
H1417 H 0.60421 0.69097 0.87975 0.0
H1418 H 0.58445 0.6328 0.86495 0.0
H1419 H 0.61799 0.62061 0.8673 0.0
H1420 H 0.57573 0.68654 0.8457 0.0
H1421 H 0.55234 0.65086 0.91502 0.0
H1422 H 0.5777 0.65599 0.90947 0.0
H1423 H 0.56567 0.63537 0.89833 0.0
C1424 C 0.6265 0.6687 0.87836 0.0
C1425 C 0.63071 0.64876 0.87509 0.0
C1426 C 0.60722 0.67563 0.87692 0.0
C1427 C 0.59187 0.66271 0.87238 0.0
C1428 C 0.5961 0.64294 0.86867 0.0
H1429 H 0.46752 0.6574 0.86217 0.0
H1430 H 0.50294 0.65242 0.86312 0.0
C1431 C 0.6153 0.63603 0.86999 0.0
C1432 C 0.57128 0.66955 0.87187 0.0
H1433 H 0.52711 0.66294 0.89431 0.0
C1434 C 0.56509 0.68162 0.85642 0.0
C1435 C 0.55753 0.66311 0.88594 0.0
C1436 C 0.56359 0.65075 0.90325 0.0
C1437 C 0.54522 0.68667 0.85415 0.0
C1438 C 0.53135 0.67967 0.86789 0.0
C1439 C 0.53774 0.66816 0.88371 0.0
C1440 C 0.51001 0.68323 0.86575 0.0
C1441 C 0.53911 0.69876 0.83667 0.0
C1442 C 0.50221 0.70225 0.86672 0.0
C1443 C 0.48189 0.70516 0.86608 0.0
C1444 C 0.46907 0.68907 0.86464 0.0
C1445 C 0.47698 0.67011 0.86328 0.0
C1446 C 0.49723 0.66723 0.86386 0.0
H1447 H 0.5508 0.69944 0.82535 0.0
H1448 H 0.52561 0.69269 0.82987 0.0
H1449 H 0.5359 0.71394 0.84156 0.0
H1450 H 0.51177 0.71478 0.86854 0.0
H1451 H 0.47625 0.71995 0.86733 0.0
H1452 H 0.67752 0.6366 0.13972 0.0
H1453 H 0.68908 0.60261 0.1423 0.0
H1454 H 0.63008 0.58337 0.15395 0.0
H1455 H 0.61839 0.61707 0.15143 0.0
H1456 H 0.68333 0.57333 0.17496 0.0
H1457 H 0.64916 0.55238 0.1039 0.0
H1458 H 0.65418 0.57754 0.11051 0.0
H1459 H 0.63334 0.56514 0.1207 0.0
C1460 C 0.66703 0.62514 0.14295 0.0
C1461 C 0.64699 0.62953 0.14519 0.0
C1462 C 0.67367 0.60576 0.14446 0.0
C1463 C 0.66038 0.59051 0.14809 0.0
C1464 C 0.64052 0.59494 0.15093 0.0
H1465 H 0.65737 0.46499 0.14996 0.0
H1466 H 0.65105 0.50012 0.15234 0.0
C1467 C 0.63389 0.61424 0.14951 0.0
C1468 C 0.66693 0.56982 0.1482 0.0
H1469 H 0.66116 0.52655 0.1237 0.0
C1470 C 0.67867 0.56308 0.1637 0.0
C1471 C 0.66082 0.55657 0.13344 0.0
C1472 C 0.64881 0.56323 0.11608 0.0
C1473 C 0.68384 0.54317 0.16522 0.0
C1474 C 0.67733 0.52983 0.15067 0.0
C1475 C 0.666 0.53675 0.13493 0.0
C1476 C 0.68161 0.50851 0.15152 0.0
C1477 C 0.69563 0.53647 0.1827 0.0
C1478 C 0.70094 0.50151 0.15059 0.0
C1479 C 0.70463 0.48135 0.14935 0.0
C1480 C 0.68901 0.46788 0.1488 0.0
C1481 C 0.66973 0.47494 0.15033 0.0
C1482 C 0.66608 0.49504 0.15167 0.0
H1483 H 0.69539 0.54743 0.19478 0.0
H1484 H 0.69 0.5223 0.18838 0.0
H1485 H 0.71109 0.53429 0.17819 0.0
H1486 H 0.71315 0.51163 0.15007 0.0
H1487 H 0.71965 0.47639 0.14801 0.0
H1488 H 0.37564 0.68027 0.12317 0.0
H1489 H 0.40929 0.69263 0.12576 0.0
H1490 H 0.42341 0.64626 0.16626 0.0
H1491 H 0.38993 0.63389 0.1639 0.0
H1492 H 0.4395 0.68432 0.17627 0.0
H1493 H 0.4545 0.66112 0.09931 0.0
H1494 H 0.43388 0.67713 0.10298 0.0
H1495 H 0.43332 0.65271 0.11272 0.0
C1496 C 0.38584 0.67286 0.13283 0.0
C1497 C 0.38018 0.65595 0.14314 0.0
C1498 C 0.40505 0.67991 0.13424 0.0
C1499 C 0.41885 0.67018 0.146 0.0
C1500 C 0.41297 0.65393 0.15707 0.0
H1501 H 0.54323 0.65902 0.14041 0.0
H1502 H 0.50772 0.65514 0.14262 0.0
C1503 C 0.39383 0.64685 0.15563 0.0
C1504 C 0.43977 0.6759 0.14581 0.0
H1505 H 0.48064 0.67495 0.11699 0.0
C1506 C 0.4485 0.68249 0.16328 0.0
C1507 C 0.45145 0.67323 0.12887 0.0
C1508 C 0.44294 0.66553 0.10991 0.0
C1509 C 0.46872 0.68628 0.16432 0.0
C1510 C 0.48038 0.68344 0.14742 0.0
C1511 C 0.47159 0.67714 0.12989 0.0
C1512 C 0.50192 0.68589 0.14775 0.0
C1513 C 0.4776 0.69263 0.18358 0.0
C1514 C 0.51041 0.70447 0.15012 0.0
C1515 C 0.53075 0.70676 0.14885 0.0
C1516 C 0.54288 0.69049 0.14516 0.0
C1517 C 0.53432 0.67184 0.1433 0.0
C1518 C 0.51403 0.6696 0.14452 0.0
H1519 H 0.46718 0.69097 0.19599 0.0
H1520 H 0.49101 0.68398 0.18679 0.0
H1521 H 0.48191 0.70828 0.18263 0.0
H1522 H 0.50128 0.71726 0.15237 0.0
H1523 H 0.53689 0.72134 0.15026 0.0
H1524 H 0.62989 0.36498 0.15656 0.0
H1525 H 0.59759 0.34988 0.16077 0.0
H1526 H 0.57733 0.37817 0.10798 0.0
H1527 H 0.60952 0.39303 0.10349 0.0
H1528 H 0.56249 0.36896 0.16574 0.0
H1529 H 0.55901 0.32213 0.09927 0.0
H1530 H 0.58177 0.33169 0.10891 0.0
H1531 H 0.56611 0.34696 0.09423 0.0
C1532 C 0.61862 0.36782 0.14574 0.0
C1533 C 0.62229 0.3802 0.12968 0.0
C1534 C 0.60018 0.35917 0.14816 0.0
C1535 C 0.58516 0.36262 0.1345 0.0
C1536 C 0.58884 0.37489 0.11842 0.0
H1537 H 0.46084 0.36326 0.14571 0.0
H1538 H 0.49597 0.3698 0.14436 0.0
C1539 C 0.60723 0.38351 0.11598 0.0
C1540 C 0.56521 0.35459 0.1377 0.0
H1541 H 0.52854 0.32876 0.11535 0.0
C1542 C 0.55516 0.35995 0.15485 0.0
C1543 C 0.55575 0.34259 0.12363 0.0
C1544 C 0.56626 0.33531 0.10556 0.0
C1545 C 0.5356 0.3544 0.15787 0.0
C1546 C 0.52575 0.34348 0.14321 0.0
C1547 C 0.53606 0.33732 0.12648 0.0
C1548 C 0.50449 0.33925 0.14451 0.0
C1549 C 0.52559 0.36043 0.17668 0.0
C1550 C 0.49759 0.31987 0.14469 0.0
C1551 C 0.47744 0.31606 0.14546 0.0
C1552 C 0.46389 0.3316 0.14581 0.0
C1553 C 0.47089 0.35097 0.14559 0.0
C1554 C 0.49098 0.35474 0.1449 0.0
H1555 H 0.53638 0.36345 0.18853 0.0
H1556 H 0.51711 0.37406 0.17408 0.0
H1557 H 0.51529 0.34892 0.18177 0.0
H1558 H 0.50779 0.30771 0.14424 0.0
H1559 H 0.4725 0.30098 0.14543 0.0
H1560 H 0.16607 0.45488 0.25634 0.0
H1561 H 0.18737 0.47528 0.23581 0.0
H1562 H 0.13735 0.49329 0.20167 0.0
H1563 H 0.11597 0.47335 0.22233 0.0
H1564 H 0.19664 0.47693 0.1971 0.0
H1565 H 0.15892 0.54578 0.21775 0.0
H1566 H 0.15429 0.5229 0.2301 0.0
H1567 H 0.14275 0.52808 0.20691 0.0
C1568 C 0.15959 0.46301 0.24433 0.0
C1569 C 0.13919 0.46247 0.24115 0.0
C1570 C 0.17184 0.47476 0.23259 0.0
C1571 C 0.16403 0.48633 0.21737 0.0
C1572 C 0.14379 0.48505 0.2136 0.0
H1573 H 0.23758 0.54626 0.12832 0.0
H1574 H 0.21446 0.5241 0.14473 0.0
C1575 C 0.13155 0.47343 0.22538 0.0
C1576 C 0.17691 0.49997 0.20575 0.0
H1577 H 0.18253 0.54805 0.19239 0.0
C1578 C 0.19352 0.49248 0.19608 0.0
C1579 C 0.17317 0.5204 0.20454 0.0
C1580 C 0.15644 0.52984 0.21553 0.0
C1581 C 0.20627 0.50468 0.18521 0.0
C1582 C 0.20219 0.52502 0.18354 0.0
C1583 C 0.18565 0.53249 0.19333 0.0
C1584 C 0.21546 0.53902 0.17281 0.0
C1585 C 0.22435 0.4957 0.17618 0.0
C1586 C 0.22318 0.55544 0.18263 0.0
C1587 C 0.23614 0.56829 0.17319 0.0
C1588 C 0.24182 0.56522 0.15353 0.0
C1589 C 0.23359 0.54916 0.14343 0.0
C1590 C 0.22052 0.53628 0.15292 0.0
H1591 H 0.2281 0.48144 0.18308 0.0
H1592 H 0.22166 0.49302 0.16034 0.0
H1593 H 0.23714 0.50566 0.1776 0.0
H1594 H 0.21953 0.5581 0.19788 0.0
H1595 H 0.24208 0.58044 0.18154 0.0
H1596 H 0.54479 0.12848 0.23838 0.0
H1597 H 0.52298 0.1447 0.21471 0.0
H1598 H 0.55692 0.19772 0.21991 0.0
H1599 H 0.57885 0.18161 0.24306 0.0
H1600 H 0.49923 0.17646 0.21902 0.0
H1601 H 0.55356 0.19292 0.16125 0.0
H1602 H 0.55872 0.1763 0.18115 0.0
H1603 H 0.56091 0.20237 0.1847 0.0
C1604 C 0.54784 0.14347 0.2342 0.0
C1605 C 0.56379 0.15359 0.24258 0.0
C1606 C 0.53523 0.15281 0.22073 0.0
C1607 C 0.53834 0.17245 0.21517 0.0
C1608 C 0.55434 0.18247 0.22345 0.0
H1609 H 0.4536 0.25557 0.16566 0.0
H1610 H 0.47354 0.23497 0.18728 0.0
C1611 C 0.5669 0.17319 0.23685 0.0
C1612 C 0.52457 0.18276 0.20134 0.0
H1613 H 0.52319 0.21026 0.15934 0.0
C1614 C 0.50448 0.18371 0.20589 0.0
C1615 C 0.53118 0.1921 0.18398 0.0
C1616 C 0.55223 0.19072 0.17735 0.0
C1617 C 0.49105 0.19408 0.19397 0.0
C1618 C 0.49784 0.20419 0.17711 0.0
C1619 C 0.51785 0.20279 0.17231 0.0
C1620 C 0.48458 0.21618 0.16414 0.0
C1621 C 0.46964 0.19377 0.19945 0.0
C1622 C 0.48413 0.21288 0.14375 0.0
C1623 C 0.47285 0.2248 0.1313 0.0
C1624 C 0.46164 0.24045 0.13883 0.0
C1625 C 0.46178 0.24353 0.15929 0.0
C1626 C 0.47318 0.23165 0.17174 0.0
H1627 H 0.46604 0.18084 0.20864 0.0
H1628 H 0.46615 0.20711 0.2081 0.0
H1629 H 0.46015 0.19356 0.18621 0.0
H1630 H 0.49273 0.20114 0.13737 0.0
H1631 H 0.47324 0.22194 0.11567 0.0
H1632 H 0.77217 0.47313 0.12974 0.0
H1633 H 0.79577 0.49507 0.1461 0.0
H1634 H 0.80214 0.4534 0.19308 0.0
H1635 H 0.77862 0.43161 0.177 0.0
H1636 H 0.79273 0.51143 0.18618 0.0
H1637 H 0.85949 0.46615 0.17669 0.0
H1638 H 0.83783 0.46287 0.16176 0.0
H1639 H 0.83871 0.4531 0.18622 0.0
C1640 C 0.77884 0.46849 0.14338 0.0
C1641 C 0.77353 0.45045 0.15191 0.0
C1642 C 0.79225 0.48114 0.15282 0.0
C1643 C 0.80094 0.47592 0.17083 0.0
C1644 C 0.79591 0.45776 0.17913 0.0
H1645 H 0.87867 0.51686 0.26073 0.0
H1646 H 0.85786 0.49996 0.23733 0.0
C1647 C 0.78238 0.44527 0.16987 0.0
C1648 C 0.81481 0.48948 0.1814 0.0
H1649 H 0.86143 0.49216 0.19987 0.0
C1650 C 0.80784 0.50736 0.18897 0.0
C1651 C 0.83455 0.48425 0.18513 0.0
C1652 C 0.84321 0.46564 0.1769 0.0
C1653 C 0.81968 0.51959 0.2009 0.0
C1654 C 0.83934 0.51412 0.20506 0.0
C1655 C 0.84645 0.49652 0.19686 0.0
C1656 C 0.8523 0.52531 0.21916 0.0
C1657 C 0.81065 0.53775 0.20975 0.0
C1658 C 0.85656 0.54546 0.21698 0.0
C1659 C 0.86859 0.55542 0.23068 0.0
C1660 C 0.87685 0.54541 0.24675 0.0
C1661 C 0.87278 0.52522 0.24859 0.0
C1662 C 0.86076 0.5154 0.2351 0.0
H1663 H 0.79439 0.53734 0.20912 0.0
H1664 H 0.81521 0.53958 0.2253 0.0
H1665 H 0.81564 0.55078 0.20143 0.0
H1666 H 0.85069 0.5535 0.20463 0.0
H1667 H 0.87136 0.57092 0.22871 0.0
H1668 H 0.54937 0.78048 0.12554 0.0
H1669 H 0.52678 0.80397 0.14106 0.0
H1670 H 0.55116 0.79004 0.19772 0.0
H1671 H 0.574 0.76741 0.18241 0.0
H1672 H 0.49808 0.79928 0.16594 0.0
H1673 H 0.55108 0.84769 0.20298 0.0
H1674 H 0.55861 0.82984 0.18495 0.0
H1675 H 0.55517 0.82282 0.21023 0.0
C1676 C 0.5502 0.78275 0.14125 0.0
C1677 C 0.56376 0.77207 0.1526 0.0
C1678 C 0.53716 0.79615 0.15018 0.0
C1679 C 0.53734 0.79927 0.17067 0.0
C1680 C 0.55095 0.78861 0.1819 0.0
H1681 H 0.44111 0.83301 0.24573 0.0
H1682 H 0.4641 0.81753 0.22335 0.0
C1683 C 0.56401 0.77543 0.17303 0.0
C1684 C 0.5227 0.81261 0.18058 0.0
H1685 H 0.51825 0.84791 0.21623 0.0
C1686 C 0.50258 0.81009 0.17673 0.0
C1687 C 0.52827 0.82716 0.19446 0.0
C1688 C 0.54947 0.83219 0.19822 0.0
C1689 C 0.48808 0.82086 0.18689 0.0
C1690 C 0.49362 0.83426 0.20191 0.0
C1691 C 0.51375 0.83748 0.20506 0.0
C1692 C 0.47889 0.84431 0.21506 0.0
C1693 C 0.46693 0.81781 0.1812 0.0
C1694 C 0.47955 0.86469 0.21861 0.0
C1695 C 0.46641 0.87371 0.23185 0.0
C1696 C 0.45227 0.86257 0.24194 0.0
C1697 C 0.45154 0.84225 0.23815 0.0
C1698 C 0.4647 0.83328 0.22512 0.0
H1699 H 0.46561 0.81341 0.16554 0.0
H1700 H 0.46066 0.8058 0.19018 0.0
H1701 H 0.45808 0.83127 0.18357 0.0
H1702 H 0.49038 0.87365 0.21125 0.0
H1703 H 0.46762 0.88931 0.23448 0.0
H1704 H 0.17324 0.56454 0.76832 0.0
H1705 H 0.19035 0.54232 0.79039 0.0
H1706 H 0.13543 0.51519 0.80578 0.0
H1707 H 0.11819 0.53703 0.78295 0.0
H1708 H 0.19031 0.53558 0.82799 0.0
H1709 H 0.16559 0.46742 0.79112 0.0
H1710 H 0.1611 0.49134 0.78091 0.0
H1711 H 0.14582 0.48211 0.80032 0.0
C1712 C 0.16468 0.55392 0.77641 0.0
C1713 C 0.14424 0.5526 0.77365 0.0
C1714 C 0.17456 0.54115 0.78913 0.0
C1715 C 0.16439 0.52663 0.79961 0.0
C1716 C 0.14384 0.52578 0.79752 0.0
H1717 H 0.23241 0.46082 0.89019 0.0
H1718 H 0.20783 0.48233 0.87492 0.0
C1719 C 0.13392 0.53847 0.78457 0.0
C1720 C 0.17554 0.51245 0.81235 0.0
H1721 H 0.18483 0.46363 0.8196 0.0
C1722 C 0.18902 0.51984 0.82618 0.0
C1723 C 0.17417 0.49182 0.80999 0.0
C1724 C 0.16105 0.48266 0.79467 0.0
C1725 C 0.2013 0.50739 0.83729 0.0
C1726 C 0.19977 0.48676 0.83508 0.0
C1727 C 0.18599 0.47937 0.82156 0.0
C1728 C 0.21348 0.47266 0.84514 0.0
C1729 C 0.21646 0.51661 0.85054 0.0
C1730 C 0.22424 0.45919 0.83384 0.0
C1731 C 0.23793 0.44663 0.84258 0.0
C1732 C 0.24146 0.44711 0.86297 0.0
C1733 C 0.23019 0.46005 0.87447 0.0
C1734 C 0.21626 0.47257 0.86567 0.0
H1735 H 0.21911 0.53222 0.84677 0.0
H1736 H 0.2112 0.51608 0.86593 0.0
H1737 H 0.2306 0.50862 0.84968 0.0
H1738 H 0.22246 0.45873 0.81805 0.0
H1739 H 0.24619 0.43688 0.83313 0.0
H1740 H 0.46648 0.12388 0.78403 0.0
H1741 H 0.4897 0.13957 0.80681 0.0
H1742 H 0.46325 0.19571 0.79502 0.0
H1743 H 0.4398 0.18019 0.77311 0.0
H1744 H 0.51749 0.16517 0.80142 0.0
H1745 H 0.46581 0.20005 0.85272 0.0
H1746 H 0.45792 0.18217 0.83486 0.0
H1747 H 0.46047 0.20761 0.82815 0.0
C1748 C 0.46534 0.1395 0.78663 0.0
C1749 C 0.451 0.15063 0.77678 0.0
C1750 C 0.47874 0.14853 0.79962 0.0
C1751 C 0.47817 0.16892 0.80314 0.0
C1752 C 0.4638 0.17994 0.79329 0.0
H1753 H 0.57419 0.24544 0.83421 0.0
H1754 H 0.551 0.2229 0.81928 0.0
C1755 C 0.45037 0.17096 0.78052 0.0
C1756 C 0.49314 0.17897 0.81603 0.0
H1757 H 0.4983 0.21408 0.85178 0.0
C1758 C 0.51321 0.17566 0.8126 0.0
C1759 C 0.48789 0.19245 0.83106 0.0
C1760 C 0.46685 0.1956 0.83706 0.0
C1761 C 0.52793 0.18596 0.82297 0.0
C1762 C 0.52263 0.2006 0.83686 0.0
C1763 C 0.50259 0.20322 0.84097 0.0
C1764 C 0.53748 0.2139 0.84653 0.0
C1765 C 0.54905 0.18081 0.81895 0.0
C1766 C 0.53758 0.21714 0.867 0.0
C1767 C 0.55082 0.2305 0.87571 0.0
C1768 C 0.56431 0.24101 0.86416 0.0
C1769 C 0.56428 0.23754 0.84374 0.0
C1770 C 0.551 0.22441 0.83509 0.0
H1771 H 0.55051 0.16527 0.81425 0.0
H1772 H 0.5546 0.19008 0.80681 0.0
H1773 H 0.5584 0.18318 0.83208 0.0
H1774 H 0.52727 0.20944 0.87628 0.0
H1775 H 0.55021 0.23286 0.89141 0.0
H1776 H 0.78178 0.54866 0.89067 0.0
H1777 H 0.80617 0.52698 0.87526 0.0
H1778 H 0.7917 0.55097 0.81859 0.0
H1779 H 0.76822 0.57299 0.83382 0.0
H1780 H 0.8031 0.49824 0.85054 0.0
H1781 H 0.84914 0.55304 0.81349 0.0
H1782 H 0.8309 0.55994 0.83134 0.0
H1783 H 0.82416 0.55601 0.80602 0.0
C1784 C 0.78411 0.5496 0.87498 0.0
C1785 C 0.77306 0.56284 0.86362 0.0
C1786 C 0.79803 0.53708 0.86611 0.0
C1787 C 0.80129 0.53743 0.84565 0.0
C1788 C 0.7902 0.55067 0.8344 0.0
H1789 H 0.83962 0.44161 0.77187 0.0
H1790 H 0.82301 0.46435 0.79368 0.0
C1791 C 0.77652 0.56326 0.84322 0.0
C1792 C 0.81527 0.52333 0.83581 0.0
H1793 H 0.85075 0.52018 0.8003 0.0
C1794 C 0.81368 0.50315 0.83975 0.0
C1795 C 0.82957 0.52943 0.82195 0.0
C1796 C 0.83369 0.55081 0.81814 0.0
C1797 C 0.82514 0.48907 0.82974 0.0
C1798 C 0.83826 0.49507 0.81472 0.0
C1799 C 0.84054 0.5153 0.81145 0.0
C1800 C 0.84901 0.48068 0.80171 0.0
C1801 C 0.82313 0.46786 0.83564 0.0
C1802 C 0.86931 0.48234 0.79809 0.0
C1803 C 0.87896 0.46937 0.78511 0.0
C1804 C 0.86857 0.45437 0.7754 0.0
C1805 C 0.84832 0.45271 0.77918 0.0
C1806 C 0.83871 0.46573 0.79191 0.0
H1807 H 0.81886 0.46654 0.85131 0.0
H1808 H 0.81138 0.46092 0.82675 0.0
H1809 H 0.83697 0.45963 0.83334 0.0
H1810 H 0.87772 0.49378 0.80523 0.0
H1811 H 0.89449 0.47129 0.78248 0.0
H1812 H 0.43183 0.77775 0.83731 0.0
H1813 H 0.45405 0.80088 0.82133 0.0
H1814 H 0.49598 0.79314 0.86798 0.0
H1815 H 0.47366 0.76997 0.88422 0.0
H1816 H 0.47231 0.83718 0.837 0.0
H1817 H 0.52672 0.78019 0.81572 0.0
H1818 H 0.50179 0.77407 0.82217 0.0
H1819 H 0.51888 0.78103 0.84093 0.0
C1820 C 0.44567 0.78111 0.84436 0.0
C1821 C 0.45086 0.77196 0.86214 0.0
C1822 C 0.45841 0.79435 0.83514 0.0
C1823 C 0.47687 0.79863 0.84324 0.0
C1824 C 0.48194 0.78995 0.86127 0.0
H1825 H 0.5712 0.86583 0.78235 0.0
H1826 H 0.55385 0.84644 0.80751 0.0
C1827 C 0.46906 0.77683 0.87066 0.0
C1828 C 0.49069 0.81197 0.83253 0.0
H1829 H 0.5326 0.81233 0.80482 0.0
C1830 C 0.48558 0.83176 0.83012 0.0
C1831 C 0.50817 0.80506 0.82368 0.0
C1832 C 0.51431 0.78392 0.82558 0.0
C1833 C 0.49718 0.84466 0.81889 0.0
C1834 C 0.51414 0.83754 0.80913 0.0
C1835 C 0.51966 0.8179 0.81216 0.0
C1836 C 0.52512 0.84973 0.79438 0.0
C1837 C 0.49105 0.86587 0.81765 0.0
C1838 C 0.51499 0.85789 0.77844 0.0
C1839 C 0.52478 0.86899 0.76427 0.0
C1840 C 0.54518 0.87219 0.76529 0.0
C1841 C 0.55549 0.8639 0.78115 0.0
C1842 C 0.54556 0.85272 0.79551 0.0
H1843 H 0.48285 0.87043 0.83098 0.0
H1844 H 0.50389 0.8757 0.81585 0.0
H1845 H 0.48116 0.86782 0.80487 0.0
H1846 H 0.49941 0.85541 0.7767 0.0
H1847 H 0.5162 0.87482 0.75223 0.0
H1848 H 0.17563 0.25034 0.57619 0.0
H1849 H 0.19693 0.22872 0.55652 0.0
H1850 H 0.14689 0.21039 0.52245 0.0
H1851 H 0.12597 0.23246 0.54134 0.0
H1852 H 0.20054 0.19062 0.54709 0.0
H1853 H 0.18062 0.23039 0.47942 0.0
H1854 H 0.17337 0.23889 0.50338 0.0
H1855 H 0.15946 0.2201 0.491 0.0
C1856 C 0.16916 0.24139 0.56475 0.0
C1857 C 0.14909 0.24321 0.56031 0.0
C1858 C 0.18137 0.22909 0.55338 0.0
C1859 C 0.17375 0.21826 0.53743 0.0
C1860 C 0.15343 0.21902 0.53408 0.0
H1861 H 0.24009 0.12702 0.47149 0.0
H1862 H 0.21792 0.14391 0.49439 0.0
C1863 C 0.14137 0.23151 0.54512 0.0
C1864 C 0.18691 0.20687 0.52374 0.0
H1865 H 0.19793 0.20051 0.47508 0.0
C1866 C 0.20001 0.19285 0.53135 0.0
C1867 C 0.18668 0.20988 0.50312 0.0
C1868 C 0.17444 0.22577 0.49376 0.0
C1869 C 0.2125 0.1817 0.51903 0.0
C1870 C 0.21159 0.18411 0.49833 0.0
C1871 C 0.19861 0.19827 0.49082 0.0
C1872 C 0.22471 0.1732 0.48417 0.0
C1873 C 0.22698 0.16793 0.52847 0.0
C1874 C 0.23541 0.18366 0.47001 0.0
C1875 C 0.24763 0.17399 0.45658 0.0
C1876 C 0.24978 0.15344 0.45685 0.0
C1877 C 0.23888 0.14283 0.4708 0.0
C1878 C 0.22636 0.15256 0.48415 0.0
H1879 H 0.22986 0.17198 0.54402 0.0
H1880 H 0.22088 0.15286 0.52831 0.0
H1881 H 0.24113 0.16783 0.52045 0.0
H1882 H 0.23454 0.1995 0.46946 0.0
H1883 H 0.25576 0.18281 0.4462 0.0
H1884 H 0.76658 0.1811 0.56864 0.0
H1885 H 0.78753 0.19729 0.54471 0.0
H1886 H 0.79495 0.14257 0.51384 0.0
H1887 H 0.77328 0.12632 0.5375 0.0
H1888 H 0.82414 0.19414 0.53341 0.0
H1889 H 0.77709 0.17628 0.46944 0.0
H1890 H 0.76948 0.17165 0.49432 0.0
H1891 H 0.78606 0.15511 0.48216 0.0
C1892 C 0.77271 0.17238 0.55685 0.0
C1893 C 0.76803 0.15234 0.55503 0.0
C1894 C 0.78478 0.18173 0.5431 0.0
C1895 C 0.79262 0.17138 0.52706 0.0
C1896 C 0.78871 0.15113 0.52567 0.0
H1897 H 0.88042 0.23393 0.4532 0.0
H1898 H 0.86543 0.2095 0.47499 0.0
C1899 C 0.77645 0.14176 0.53939 0.0
C1900 C 0.80448 0.18207 0.51184 0.0
H1901 H 0.80642 0.19326 0.46286 0.0
C1902 C 0.8203 0.19384 0.51796 0.0
C1903 C 0.79946 0.182 0.49161 0.0
C1904 C 0.782 0.17075 0.48396 0.0
C1905 C 0.83089 0.20567 0.5047 0.0
C1906 C 0.826 0.20544 0.48445 0.0
C1907 C 0.81042 0.19339 0.47827 0.0
C1908 C 0.83553 0.21888 0.46979 0.0
C1909 C 0.84659 0.21903 0.51276 0.0
C1910 C 0.82387 0.23165 0.45861 0.0
C1911 C 0.83238 0.24532 0.44589 0.0
C1912 C 0.85289 0.24675 0.44389 0.0
C1913 C 0.86461 0.23335 0.45435 0.0
C1914 C 0.85602 0.21951 0.46706 0.0
H1915 H 0.84515 0.22113 0.52887 0.0
H1916 H 0.86118 0.21246 0.5099 0.0
H1917 H 0.84606 0.23363 0.50562 0.0
H1918 H 0.80808 0.23152 0.46019 0.0
H1919 H 0.82279 0.25526 0.43806 0.0
H1920 H 0.88055 0.78447 0.56081 0.0
H1921 H 0.86647 0.80912 0.53857 0.0
H1922 H 0.80837 0.78941 0.55351 0.0
H1923 H 0.82216 0.76549 0.576 0.0
H1924 H 0.84579 0.80499 0.50624 0.0
H1925 H 0.79934 0.84663 0.55757 0.0
H1926 H 0.81749 0.82937 0.56601 0.0
H1927 H 0.79344 0.82109 0.55873 0.0
C1928 C 0.86476 0.78572 0.55971 0.0
C1929 C 0.85257 0.77298 0.57043 0.0
C1930 C 0.85669 0.79977 0.54685 0.0
C1931 C 0.83622 0.80154 0.54444 0.0
C1932 C 0.82412 0.78896 0.55536 0.0
H1933 H 0.77131 0.83854 0.4423 0.0
H1934 H 0.79175 0.82251 0.4667 0.0
C1935 C 0.83212 0.77507 0.56822 0.0
C1936 C 0.82741 0.81545 0.5297 0.0
H1937 H 0.79043 0.84888 0.52332 0.0
C1938 C 0.83387 0.81477 0.5101 0.0
C1939 C 0.81205 0.82866 0.53452 0.0
C1940 C 0.80534 0.83165 0.5554 0.0
C1941 C 0.8249 0.82605 0.49523 0.0
C1942 C 0.80852 0.83809 0.49979 0.0
C1943 C 0.8027 0.83951 0.51955 0.0
C1944 C 0.79671 0.84851 0.48427 0.0
C1945 C 0.83326 0.82499 0.47477 0.0
C1946 C 0.79199 0.86858 0.48594 0.0
C1947 C 0.7799 0.87787 0.47196 0.0
C1948 C 0.77214 0.86731 0.45594 0.0
C1949 C 0.77712 0.84733 0.45421 0.0
C1950 C 0.78903 0.83807 0.4682 0.0
H1951 H 0.84916 0.8215 0.47511 0.0
H1952 H 0.82583 0.81308 0.46651 0.0
H1953 H 0.83119 0.83897 0.46672 0.0
H1954 H 0.79751 0.87706 0.49821 0.0
H1955 H 0.77625 0.89319 0.47396 0.0
H1956 H 0.13407 0.78256 0.45779 0.0
H1957 H 0.14926 0.8063 0.48036 0.0
H1958 H 0.20651 0.78633 0.46267 0.0
H1959 H 0.19159 0.76326 0.43987 0.0
H1960 H 0.17118 0.80105 0.51183 0.0
H1961 H 0.21597 0.84366 0.45993 0.0
H1962 H 0.1973 0.8268 0.45173 0.0
H1963 H 0.22148 0.81807 0.45788 0.0
C1964 C 0.1499 0.78354 0.45838 0.0
C1965 C 0.16151 0.77099 0.44676 0.0
C1966 C 0.15862 0.79708 0.47143 0.0
C1967 C 0.17918 0.79853 0.47316 0.0
C1968 C 0.1907 0.78612 0.46138 0.0
H1969 H 0.24777 0.83389 0.57403 0.0
H1970 H 0.22679 0.81808 0.54987 0.0
C1971 C 0.18205 0.77272 0.44834 0.0
C1972 C 0.18868 0.81201 0.48798 0.0
H1973 H 0.22584 0.84538 0.49389 0.0
C1974 C 0.18296 0.8109 0.50779 0.0
C1975 C 0.20388 0.82531 0.48297 0.0
C1976 C 0.20985 0.8287 0.46194 0.0
C1977 C 0.19246 0.82189 0.52262 0.0
C1978 C 0.20861 0.83409 0.51779 0.0
C1979 C 0.21373 0.83589 0.49787 0.0
C1980 C 0.22088 0.84435 0.53314 0.0
C1981 C 0.18487 0.82036 0.54335 0.0
C1982 C 0.22524 0.86453 0.53186 0.0
C1983 C 0.23761 0.87372 0.54573 0.0
C1984 C 0.24605 0.86295 0.56121 0.0
C1985 C 0.24147 0.84284 0.56253 0.0
C1986 C 0.22925 0.8337 0.54868 0.0
H1987 H 0.16901 0.81667 0.54352 0.0
H1988 H 0.19276 0.80841 0.55106 0.0
H1989 H 0.18707 0.83422 0.55161 0.0
H1990 H 0.21918 0.87318 0.52001 0.0
H1991 H 0.24092 0.88914 0.54404 0.0
H1992 H 0.96205 0.54812 0.28585 0.0
H1993 H 0.99303 0.53632 0.29941 0.0
H1994 H 0.9728 0.54925 0.35798 0.0
H1995 H 0.94155 0.56105 0.34446 0.0
H1996 H 0.01848 0.56197 0.32684 0.0
H1997 H 0.99418 0.48989 0.3567 0.0
H1998 H 0.98065 0.50118 0.33694 0.0
H1999 H 0.98015 0.51191 0.36096 0.0
C2000 C 0.9641 0.54821 0.30162 0.0
C2001 C 0.94952 0.55544 0.31414 0.0
C2002 C 0.98178 0.5416 0.30932 0.0
C2003 C 0.9851 0.5421 0.32963 0.0
C2004 C 0.97039 0.5488 0.34227 0.0
H2005 H 0.08911 0.472 0.34965 0.0
H2006 H 0.06548 0.49635 0.36174 0.0
C2007 C 0.95262 0.55543 0.33455 0.0
C2008 C 1.00428 0.53573 0.33706 0.0
H2009 H 0.02777 0.49382 0.35014 0.0
C2010 C 0.02062 0.54731 0.33257 0.0
C2011 C 1.00688 0.51681 0.34491 0.0
C2012 C 0.98961 0.50412 0.35024 0.0
C2013 C 0.03957 0.53956 0.33363 0.0
C2014 C 0.04201 0.51972 0.33899 0.0
C2015 C 0.02585 0.50901 0.34588 0.0
C2016 C 0.05953 0.50852 0.33304 0.0
C2017 C 0.05658 0.55222 0.32749 0.0
C2018 C 0.06422 0.50759 0.313 0.0
C2019 C 0.07741 0.49366 0.30611 0.0
C2020 C 0.08607 0.48039 0.31913 0.0
C2021 C 0.08243 0.48206 0.33934 0.0
C2022 C 0.06907 0.49598 0.34626 0.0
H2023 H 0.0542 0.56766 0.33213 0.0
H2024 H 0.07059 0.54694 0.33378 0.0
H2025 H 0.05775 0.5521 0.31124 0.0
H2026 H 0.05665 0.51673 0.30244 0.0
H2027 H 0.08011 0.4927 0.29047 0.0
H2028 H 0.46704 0.95874 0.28588 0.0
H2029 H 0.48067 0.98918 0.29904 0.0
H2030 H 0.47223 0.96806 0.35804 0.0
H2031 H 0.4585 0.93737 0.34492 0.0
H2032 H 0.4586 0.01505 0.33029 0.0
H2033 H 0.53266 0.98678 0.35043 0.0
H2034 H 0.51877 0.97472 0.33134 0.0
H2035 H 0.5107 0.97326 0.35631 0.0
C2036 C 0.46824 0.9605 0.30164 0.0
C2037 C 0.4618 0.94579 0.31441 0.0
C2038 C 0.47589 0.97788 0.30913 0.0
C2039 C 0.47727 0.98077 0.32945 0.0
C2040 C 0.4712 0.96599 0.34231 0.0
H2041 H 0.55148 0.08322 0.34715 0.0
H2042 H 0.52862 0.05856 0.35998 0.0
C2043 C 0.46347 0.94853 0.3348 0.0
C2044 C 0.48528 0.99943 0.33671 0.0
H2045 H 0.52944 0.02079 0.34555 0.0
C2046 C 0.47394 0.01639 0.3343 0.0
C2047 C 0.50513 1.00099 0.34227 0.0
C2048 C 0.51765 0.98303 0.34533 0.0
C2049 C 0.48255 0.03498 0.33527 0.0
C2050 C 0.50297 0.03644 0.33832 0.0
C2051 C 0.51378 0.01959 0.34308 0.0
C2052 C 0.51399 0.05396 0.33216 0.0
C2053 C 0.47 0.05279 0.33157 0.0
C2054 C 0.51312 0.0596 0.31238 0.0
C2055 C 0.52624 0.07334 0.30503 0.0
C2056 C 0.54043 0.08165 0.31734 0.0
C2057 C 0.54066 0.07688 0.33739 0.0
C2058 C 0.5276 0.06292 0.34473 0.0
H2059 H 0.45508 0.05071 0.33773 0.0
H2060 H 0.47656 0.06622 0.33804 0.0
H2061 H 0.46841 0.05496 0.31551 0.0
H2062 H 0.50305 0.05251 0.30232 0.0
H2063 H 0.52573 0.07689 0.28955 0.0
H2064 H 0.93621 0.45816 0.6679 0.0
H2065 H 0.96652 0.46623 0.65013 0.0
H2066 H 0.99725 0.47123 0.70525 0.0
H2067 H 0.96716 0.46353 0.72302 0.0
H2068 H 0.99164 0.50225 0.6582 0.0
H2069 H 0.03 0.4319 0.66834 0.0
H2070 H 1.00354 0.43401 0.66799 0.0
H2071 H 0.01705 0.4393 0.69008 0.0
C2072 C 0.94943 0.46123 0.67617 0.0
C2073 C 0.94945 0.46034 0.6968 0.0
C2074 C 0.96667 0.4656 0.66601 0.0
C2075 C 0.98408 0.46875 0.67642 0.0
C2076 C 0.98396 0.46837 0.69701 0.0
H2077 H 0.06991 0.5113 0.72012 0.0
H2078 H 0.04914 0.48867 0.702 0.0
C2079 C 0.96675 0.46425 0.70714 0.0
C2080 C 1.00245 0.47387 0.66641 0.0
H2081 H 0.05051 0.46148 0.67054 0.0
C2082 C 1.00458 0.49318 0.65991 0.0
C2083 C 0.01909 0.46174 0.66818 0.0
C2084 C 0.01729 0.44049 0.67383 0.0
C2085 C 0.0232 0.50173 0.65864 0.0
C2086 C 0.03981 0.49043 0.66394 0.0
C2087 C 0.03773 0.47018 0.66682 0.0
C2088 C 0.05673 0.50013 0.67333 0.0
C2089 C 0.02462 0.52341 0.65456 0.0
C2090 C 0.06872 0.51333 0.66315 0.0
C2091 C 0.08047 0.52651 0.67361 0.0
C2092 C 0.08031 0.52643 0.69424 0.0
C2093 C 0.06997 0.51184 0.70423 0.0
C2094 C 0.05826 0.49878 0.69384 0.0
H2095 H 0.01026 0.52987 0.65042 0.0
H2096 H 0.03015 0.53121 0.66777 0.0
H2097 H 0.03507 0.52602 0.64238 0.0
H2098 H 0.068 0.51432 0.64731 0.0
H2099 H 0.08873 0.53745 0.66563 0.0
H2100 H 0.55034 0.92997 0.66675 0.0
H2101 H 0.52819 0.95566 0.6543 0.0
H2102 H 0.51594 0.97365 0.71376 0.0
H2103 H 0.53792 0.94836 0.72619 0.0
H2104 H 0.48158 0.96745 0.68328 0.0
H2105 H 0.54264 0.01776 0.66296 0.0
H2106 H 0.543 0.99207 0.6565 0.0
H2107 H 0.54687 0.99938 0.68149 0.0
C2108 C 0.54277 0.93938 0.67708 0.0
C2109 C 0.54584 0.93739 0.69739 0.0
C2110 C 0.53019 0.95393 0.66997 0.0
C2111 C 0.52056 0.9664 0.68318 0.0
C2112 C 0.52327 0.96404 0.70342 0.0
H2113 H 0.46267 0.05343 0.731 0.0
H2114 H 0.47735 0.02403 0.71676 0.0
C2115 C 0.53585 0.94968 0.71048 0.0
C2116 C 0.5083 0.98279 0.67653 0.0
H2117 H 0.51228 0.03226 0.67145 0.0
C2118 C 0.48808 0.98154 0.67986 0.0
C2119 C 0.51689 1.00103 0.67191 0.0
C2120 C 0.53854 1.00281 0.66791 0.0
C2121 C 0.47661 0.9985 0.68096 0.0
C2122 C 0.48575 0.01695 0.67894 0.0
C2123 C 0.50542 0.01802 0.67316 0.0
C2124 C 0.47651 0.03474 0.68688 0.0
C2125 C 0.45517 0.99668 0.68597 0.0
C2126 C 0.4718 0.05064 0.67478 0.0
C2127 C 0.46342 0.06749 0.68292 0.0
C2128 C 0.45998 0.06864 0.70323 0.0
C2129 C 0.46519 0.05288 0.71531 0.0
C2130 C 0.47337 0.03606 0.70718 0.0
H2131 H 0.44913 0.98244 0.68085 0.0
H2132 H 0.4534 0.99739 0.70215 0.0
H2133 H 0.44654 0.00878 0.67936 0.0
H2134 H 0.47443 0.04991 0.65912 0.0
H2135 H 0.4595 0.07953 0.67334 0.0
H2136 H 0.34983 0.93367 0.55709 0.0
H2137 H 0.36481 0.96343 0.54329 0.0
H2138 H 0.30741 0.98915 0.53694 0.0
H2139 H 0.29243 0.95962 0.55039 0.0
H2140 H 0.35233 0.9822 0.50387 0.0
H2141 H 0.34363 0.02946 0.56934 0.0
H2142 H 0.34609 1.00308 0.57078 0.0
H2143 H 0.32281 0.01396 0.56485 0.0
C2144 C 0.34048 0.94569 0.5526 0.0
C2145 C 0.32002 0.94449 0.55475 0.0
C2146 C 0.34904 0.9626 0.54488 0.0
C2147 C 0.33717 0.97847 0.53957 0.0
C2148 C 0.31675 0.97709 0.54135 0.0
H2149 H 0.29466 0.0667 0.48545 0.0
H2150 H 0.30891 0.04199 0.50702 0.0
C2151 C 0.30822 0.9602 0.54885 0.0
C2152 C 0.34547 0.99644 0.53119 0.0
H2153 H 0.34051 0.04562 0.53758 0.0
C2154 C 0.3507 0.99616 0.51134 0.0
C2155 C 0.34351 0.01446 0.54118 0.0
C2156 C 0.33889 0.01531 0.5628 0.0
C2157 C 0.35122 0.01357 0.50049 0.0
C2158 C 0.34649 0.0314 0.50997 0.0
C2159 C 0.34397 0.03185 0.53038 0.0
C2160 C 0.3389 0.04803 0.4986 0.0
C2161 C 0.3544 0.01255 0.4786 0.0
C2162 C 0.35117 0.0597 0.48703 0.0
C2163 C 0.34301 0.07381 0.47464 0.0
C2164 C 0.32257 0.07623 0.47372 0.0
C2165 C 0.31044 0.06499 0.48584 0.0
C2166 C 0.31857 0.051 0.49821 0.0
H2167 H 0.35823 0.99753 0.47359 0.0
H2168 H 0.3409 0.01731 0.47084 0.0
H2169 H 0.36639 0.02266 0.47434 0.0
H2170 H 0.36689 0.05756 0.48725 0.0
H2171 H 0.35263 0.08247 0.46546 0.0
H2172 H 0.92898 0.31946 0.48103 0.0
H2173 H 0.95805 0.32108 0.50207 0.0
H2174 H 0.98877 0.28254 0.46216 0.0
H2175 H 0.95921 0.27971 0.44209 0.0
H2176 H 0.99468 0.27095 0.49654 0.0
H2177 H 1.00707 0.35097 0.49704 0.0
H2178 H 0.9831 0.3453 0.50604 0.0
H2179 H 0.98942 0.33957 0.48097 0.0
C2180 C 0.94203 0.31144 0.47684 0.0
C2181 C 0.94208 0.29942 0.46016 0.0
C2182 C 0.95866 0.31254 0.48867 0.0
C2183 C 0.97574 0.30229 0.48344 0.0
C2184 C 0.97578 0.29059 0.46646 0.0
H2185 H 0.0876 0.31995 0.54152 0.0
H2186 H 0.05957 0.32124 0.5191 0.0
C2187 C 0.95896 0.28895 0.45504 0.0
C2188 C 0.99312 0.30252 0.49634 0.0
H2189 H 0.02378 0.33255 0.52197 0.0
C2190 C 1.00119 0.28445 0.50188 0.0
C2191 C 1.00178 0.32013 0.50307 0.0
C2192 C 0.99501 0.34006 0.49627 0.0
C2193 C 0.01759 0.28344 0.51409 0.0
C2194 C 0.0254 0.30099 0.52194 0.0
C2195 C 0.01753 0.3191 0.51621 0.0
C2196 C 0.04192 0.30085 0.53587 0.0
C2197 C 0.0266 0.26359 0.51796 0.0
C2198 C 0.04107 0.28934 0.5529 0.0
C2199 C 0.05726 0.28809 0.56527 0.0
C2200 C 0.07412 0.29902 0.56119 0.0
C2201 C 0.07464 0.31141 0.54483 0.0
C2202 C 0.05868 0.31216 0.5321 0.0
H2203 H 0.0233 0.25312 0.50589 0.0
H2204 H 0.04276 0.26458 0.51962 0.0
H2205 H 0.02033 0.25744 0.53164 0.0
H2206 H 0.028 0.2811 0.55648 0.0
H2207 H 0.05658 0.27871 0.57806 0.0
H2208 H 0.72269 0.95883 0.47537 0.0
H2209 H 0.70751 0.98871 0.4882 0.0
H2210 H 0.65122 0.96976 0.4665 0.0
H2211 H 0.66631 0.93955 0.45379 0.0
H2212 H 0.67259 0.01305 0.45611 0.0
H2213 H 0.65882 0.99116 0.53339 0.0
H2214 H 0.68094 0.98182 0.52241 0.0
H2215 H 0.65758 0.97405 0.51309 0.0
C2216 C 0.70704 0.9609 0.47359 0.0
C2217 C 0.69564 0.94699 0.46365 0.0
C2218 C 0.69842 0.97792 0.48086 0.0
C2219 C 0.67833 0.9813 0.47817 0.0
C2220 C 0.66676 0.96727 0.46865 0.0
H2221 H 0.66122 0.08667 0.54617 0.0
H2222 H 0.64687 0.06134 0.52498 0.0
C2223 C 0.67537 0.95009 0.46151 0.0
C2224 C 0.67009 1.00006 0.48479 0.0
H2225 H 0.66371 0.02534 0.5273 0.0
C2226 C 0.66991 0.01577 0.47157 0.0
C2227 C 0.66627 1.00338 0.50483 0.0
C2228 C 0.66573 0.98672 0.51931 0.0
C2229 C 0.66824 0.03511 0.47834 0.0
C2230 C 0.66706 0.03857 0.49875 0.0
C2231 C 0.66475 0.02269 0.51163 0.0
C2232 C 0.67301 0.0575 0.50743 0.0
C2233 C 0.6692 0.05169 0.4638 0.0
C2234 C 0.69219 0.06415 0.50411 0.0
C2235 C 0.70045 0.0783 0.51632 0.0
C2236 C 0.68962 0.08602 0.53197 0.0
C2237 C 0.66985 0.08078 0.5342 0.0
C2238 C 0.66162 0.06642 0.52208 0.0
H2239 H 0.66239 0.04737 0.44962 0.0
H2240 H 0.6617 0.06498 0.46949 0.0
H2241 H 0.68476 0.05537 0.46086 0.0
H2242 H 0.70141 0.0572 0.49319 0.0
H2243 H 0.71567 0.08229 0.51425 0.0
H2244 H 0.9296 0.69719 0.53754 0.0
H2245 H 0.96068 0.69352 0.51997 0.0
H2246 H 0.98996 0.72714 0.56515 0.0
H2247 H 0.9586 0.73219 0.58166 0.0
H2248 H 0.99991 0.74057 0.53296 0.0
H2249 H 0.00734 0.66043 0.52602 0.0
H2250 H 0.98445 0.66796 0.51563 0.0
H2251 H 0.98897 0.67149 0.54151 0.0
C2252 C 0.94278 0.70365 0.54364 0.0
C2253 C 0.94194 0.71513 0.56066 0.0
C2254 C 0.96055 0.70131 0.53382 0.0
C2255 C 0.97777 0.70972 0.54144 0.0
C2256 C 0.97689 0.72053 0.55898 0.0
H2257 H 0.08899 0.69213 0.47943 0.0
H2258 H 0.06257 0.68951 0.50373 0.0
C2259 C 0.95904 0.72348 0.56835 0.0
C2260 C 0.99617 0.70927 0.53005 0.0
H2261 H 0.02551 0.6798 0.50227 0.0
C2262 C 1.00568 0.72717 0.52661 0.0
C2263 C 1.004 0.6918 0.52201 0.0
C2264 C 0.99574 0.67184 0.5267 0.0
C2265 C 0.02231 0.72823 0.51477 0.0
C2266 C 0.02894 0.71109 0.50518 0.0
C2267 C 0.02007 0.69301 0.50929 0.0
C2268 C 0.04452 0.71189 0.49025 0.0
C2269 C 0.03254 0.74775 0.51275 0.0
C2270 C 0.04281 0.72492 0.47443 0.0
C2271 C 0.05803 0.72683 0.46103 0.0
C2272 C 0.07477 0.71514 0.46282 0.0
C2273 C 0.0761 0.70129 0.47793 0.0
C2274 C 0.06109 0.69978 0.49173 0.0
H2275 H 0.03039 0.75694 0.52606 0.0
H2276 H 0.04852 0.74592 0.5103 0.0
H2277 H 0.0262 0.75584 0.50014 0.0
H2278 H 0.0298 0.73383 0.4726 0.0
H2279 H 0.05667 0.73736 0.44923 0.0
H2280 H 0.55129 0.28541 0.96067 0.0
H2281 H 0.53768 0.29893 0.99097 0.0
H2282 H 0.546 0.35758 0.96901 0.0
H2283 H 0.55971 0.34409 0.93847 0.0
H2284 H 0.55926 0.33043 0.0167 0.0
H2285 H 0.48558 0.35013 0.98707 0.0
H2286 H 0.49978 0.33112 0.97531 0.0
H2287 H 0.5077 0.35611 0.97387 0.0
C2288 C 0.55009 0.30117 0.96223 0.0
C2289 C 0.55646 0.31374 0.94731 0.0
C2290 C 0.54246 0.30886 0.97954 0.0
C2291 C 0.54102 0.32919 0.98213 0.0
C2292 C 0.54709 0.34184 0.96717 0.0
H2293 H 0.4654 0.34841 0.08315 0.0
H2294 H 0.48878 0.3608 0.05877 0.0
C2295 C 0.5548 0.33413 0.9498 0.0
C2296 C 0.5328 0.33668 1.00059 0.0
H2297 H 0.48838 0.34584 0.02121 0.0
C2298 C 0.54391 0.33447 0.01776 0.0
C2299 C 0.51295 0.34228 1.00179 0.0
C2300 C 0.50068 0.34513 0.98359 0.0
C2301 C 0.53505 0.3357 0.03624 0.0
C2302 C 0.51462 0.33879 0.03735 0.0
C2303 C 0.50405 0.34333 0.02027 0.0
C2304 C 0.50336 0.33292 0.05482 0.0
C2305 C 0.54731 0.33232 0.05433 0.0
C2306 C 0.50404 0.31324 0.06075 0.0
C2307 C 0.49064 0.30613 0.07435 0.0
C2308 C 0.47633 0.31858 0.08219 0.0
C2309 C 0.4763 0.33853 0.07716 0.0
C2310 C 0.48965 0.34564 0.06336 0.0
H2311 H 0.56243 0.33799 0.05223 0.0
H2312 H 0.54074 0.33948 0.06741 0.0
H2313 H 0.5484 0.31634 0.05714 0.0
H2314 H 0.51419 0.30306 0.05397 0.0
H2315 H 0.49098 0.29071 0.07811 0.0
H2316 H 0.4658 0.66661 0.9288 0.0
H2317 H 0.48847 0.65397 0.95391 0.0
H2318 H 0.50467 0.71323 0.96902 0.0
H2319 H 0.48222 0.72584 0.94422 0.0
H2320 H 0.53706 0.68318 0.96533 0.0
H2321 H 0.47469 0.66307 0.01429 0.0
H2322 H 0.47543 0.65476 0.98915 0.0
H2323 H 0.47095 0.68012 0.99442 0.0
C2324 C 0.4744 0.67685 0.9374 0.0
C2325 C 0.47221 0.69717 0.93484 0.0
C2326 C 0.48728 0.66963 0.95163 0.0
C2327 C 0.4981 0.68272 0.96323 0.0
C2328 C 0.49645 0.70295 0.96008 0.0
H2329 H 0.55457 0.72874 0.05315 0.0
H2330 H 0.54095 0.7154 0.02277 0.0
C2331 C 0.48358 0.71013 0.94603 0.0
C2332 C 0.51001 0.67606 0.97991 0.0
H2333 H 0.50496 0.67 0.02925 0.0
C2334 C 0.53024 0.67952 0.97922 0.0
C2335 C 0.50101 0.6711 0.9979 0.0
C2336 C 0.47933 0.667 0.99917 0.0
C2337 C 0.54131 0.68037 0.99648 0.0
C2338 C 0.53176 0.67795 0.01469 0.0
C2339 C 0.5121 0.67205 0.01519 0.0
C2340 C 0.5406 0.68535 0.03294 0.0
C2341 C 0.56278 0.68542 0.99525 0.0
C2342 C 0.54425 0.67289 0.04884 0.0
C2343 C 0.55198 0.68051 0.06625 0.0
C2344 C 0.55583 0.70069 0.06795 0.0
C2345 C 0.55171 0.71315 0.05217 0.0
C2346 C 0.54416 0.70552 0.03479 0.0
H2347 H 0.56917 0.68042 0.9811 0.0
H2348 H 0.56452 0.70158 0.9961 0.0
H2349 H 0.57114 0.67874 1.00753 0.0
H2350 H 0.54125 0.65734 0.04771 0.0
H2351 H 0.55506 0.67065 0.0783 0.0
H2352 H 0.28394 0.46091 0.9606 0.0
H2353 H 0.29623 0.47461 0.99142 0.0
H2354 H 0.35565 0.4685 0.97076 0.0
H2355 H 0.34341 0.45478 0.9397 0.0
H2356 H 0.32585 0.45519 0.0183 0.0
H2357 H 0.34793 0.52787 0.98797 0.0
H2358 H 0.33032 0.51273 0.97522 0.0
H2359 H 0.35558 0.50555 0.97602 0.0
C2360 C 0.29961 0.4626 0.96258 0.0
C2361 C 0.31275 0.45693 0.94784 0.0
C2362 C 0.3066 0.47027 0.98018 0.0
C2363 C 0.3268 0.47244 0.98327 0.0
C2364 C 0.34001 0.46692 0.96854 0.0
H2365 H 0.34564 0.54901 0.08441 0.0
H2366 H 0.35763 0.52498 0.06032 0.0
C2367 C 0.333 0.45919 0.95087 0.0
C2368 C 0.33357 0.48102 1.00189 0.0
H2369 H 0.34362 0.52558 0.02201 0.0
C2370 C 0.33034 0.47042 0.0192 0.0
C2371 C 0.33977 0.50073 1.00291 0.0
C2372 C 0.34364 0.51252 0.98461 0.0
C2373 C 0.33124 0.47967 0.03753 0.0
C2374 C 0.33509 0.49998 0.03836 0.0
C2375 C 0.34055 0.51 0.02125 0.0
C2376 C 0.32919 0.51183 0.05546 0.0
C2377 C 0.32674 0.46797 0.05572 0.0
C2378 C 0.30931 0.51221 0.0607 0.0
C2379 C 0.30245 0.52599 0.07409 0.0
C2380 C 0.31536 0.53959 0.08246 0.0
C2381 C 0.33544 0.53864 0.07803 0.0
C2382 C 0.3423 0.52492 0.06441 0.0
H2383 H 0.33169 0.45254 0.05405 0.0
H2384 H 0.33385 0.47445 0.06889 0.0
H2385 H 0.31066 0.46776 0.05811 0.0
H2386 H 0.29887 0.50255 0.0536 0.0
H2387 H 0.28692 0.52641 0.07738 0.0
H2388 H 0.66778 0.553 0.93354 0.0
H2389 H 0.6537 0.53191 0.95913 0.0
H2390 H 0.7118 0.51275 0.97512 0.0
H2391 H 0.7259 0.53369 0.94977 0.0
H2392 H 0.6794 0.48205 0.971 0.0
H2393 H 0.66335 0.54591 0.01976 0.0
H2394 H 0.65564 0.54574 0.99442 0.0
H2395 H 0.68112 0.5483 1.00031 0.0
C2396 C 0.67747 0.54413 0.94246 0.0
C2397 C 0.6979 0.545 0.93992 0.0
C2398 C 0.66942 0.53214 0.95696 0.0
C2399 C 0.68177 0.52091 0.96889 0.0
C2400 C 0.7021 0.52132 0.96591 0.0
H2401 H 0.72632 0.46719 0.05794 0.0
H2402 H 0.71222 0.48236 0.02875 0.0
C2403 C 0.71012 0.53331 0.95154 0.0
C2404 C 0.6742 0.5096 0.98556 0.0
H2405 H 0.6685 0.51532 0.03488 0.0
C2406 C 0.67614 0.48918 0.98487 0.0
C2407 C 0.6698 0.51903 1.00351 0.0
C2408 C 0.66729 0.54096 1.00473 0.0
C2409 C 0.67618 0.47816 1.00216 0.0
C2410 C 0.67441 0.48796 0.02032 0.0
C2411 C 0.66993 0.50798 0.02082 0.0
C2412 C 0.68216 0.47897 0.03826 0.0
C2413 C 0.68018 0.45646 1.00108 0.0
C2414 C 0.6698 0.47259 0.05333 0.0
C2415 C 0.67786 0.46386 0.07005 0.0
C2416 C 0.69828 0.46173 0.07181 0.0
C2417 C 0.71055 0.46869 0.05691 0.0
C2418 C 0.70253 0.47722 0.04024 0.0
H2419 H 0.67583 0.4503 0.98661 0.0
H2420 H 0.69611 0.45386 1.00311 0.0
H2421 H 0.67223 0.44853 0.01287 0.0
H2422 H 0.65406 0.47407 0.052 0.0
H2423 H 0.66814 0.45857 0.08143 0.0
H2424 H 0.26375 0.20662 0.38733 0.0
H2425 H 0.23723 0.23048 0.38554 0.0
H2426 H 0.21568 0.20274 0.33284 0.0
H2427 H 0.24176 0.17829 0.33494 0.0
H2428 H 0.23658 0.25463 0.35396 0.0
H2429 H 0.16476 0.21758 0.3605 0.0
H2430 H 0.18733 0.20661 0.369 0.0
H2431 H 0.1809 0.20573 0.3434 0.0
C2432 C 0.25294 0.20507 0.37579 0.0
C2433 C 0.25497 0.19061 0.36118 0.0
C2434 C 0.23781 0.21879 0.37476 0.0
C2435 C 0.22439 0.21831 0.35916 0.0
C2436 C 0.22563 0.20318 0.34523 0.0
H2437 H 0.15933 0.29645 0.2898 0.0
H2438 H 0.1703 0.26796 0.30841 0.0
C2439 C 0.24073 0.18939 0.34629 0.0
C2440 C 0.21161 0.23544 0.35541 0.0
H2441 H 0.16471 0.24912 0.34448 0.0
C2442 C 0.2208 0.25355 0.35233 0.0
C2443 C 0.19108 0.23388 0.35306 0.0
C2444 C 0.1804 0.21493 0.35684 0.0
C2445 C 0.21024 0.26991 0.34595 0.0
C2446 C 0.18974 0.2683 0.3431 0.0
C2447 C 0.18038 0.25035 0.34683 0.0
C2448 C 0.17845 0.28456 0.33424 0.0
C2449 C 0.22141 0.28842 0.34112 0.0
C2450 C 0.17821 0.30315 0.34307 0.0
C2451 C 0.17252 0.31957 0.33227 0.0
C2452 C 0.16658 0.31757 0.31255 0.0
C2453 C 0.16447 0.29859 0.30469 0.0
C2454 C 0.1705 0.28224 0.3154 0.0
H2455 H 0.23745 0.28582 0.34014 0.0
H2456 H 0.21636 0.2947 0.32697 0.0
H2457 H 0.21887 0.29946 0.35283 0.0
H2458 H 0.18387 0.30516 0.3578 0.0
H2459 H 0.1743 0.33387 0.33893 0.0
H2460 H 0.70987 0.19203 0.2858 0.0
H2461 H 0.73907 0.19658 0.30535 0.0
H2462 H 0.72281 0.14792 0.3421 0.0
H2463 H 0.69371 0.14221 0.32159 0.0
H2464 H 0.72994 0.188 0.36071 0.0
H2465 H 0.79073 0.16263 0.31344 0.0
H2466 H 0.77189 0.17521 0.3 0.0
H2467 H 0.76625 0.15247 0.31206 0.0
C2468 C 0.71271 0.18164 0.29744 0.0
C2469 C 0.69937 0.16654 0.30184 0.0
C2470 C 0.72945 0.1844 0.30874 0.0
C2471 C 0.73321 0.17241 0.32495 0.0
C2472 C 0.72021 0.15717 0.32945 0.0
H2473 H 0.8352 0.23415 0.3741 0.0
H2474 H 0.81436 0.2046 0.37233 0.0
C2475 C 0.70352 0.15408 0.31782 0.0
C2476 C 0.74953 0.17789 0.33809 0.0
H2477 H 0.79741 0.19132 0.3339 0.0
C2478 C 0.74492 0.18803 0.35539 0.0
C2479 C 0.76906 0.17772 0.33125 0.0
C2480 C 0.77485 0.16624 0.31325 0.0
C2481 C 0.7588 0.2002 0.36448 0.0
C2482 C 0.77755 0.20217 0.35596 0.0
C2483 C 0.78293 0.18993 0.34031 0.0
C2484 C 0.78959 0.21978 0.35961 0.0
C2485 C 0.75277 0.21231 0.38199 0.0
C2486 C 0.78252 0.23789 0.35295 0.0
C2487 C 0.79439 0.25445 0.35356 0.0
C2488 C 0.8135 0.25325 0.36101 0.0
C2489 C 0.82044 0.23531 0.36834 0.0
C2490 C 0.8086 0.21854 0.36739 0.0
H2491 H 0.74095 0.20495 0.39042 0.0
H2492 H 0.76542 0.21509 0.39187 0.0
H2493 H 0.74706 0.22664 0.37685 0.0
H2494 H 0.76802 0.23905 0.34656 0.0
H2495 H 0.78876 0.26818 0.34791 0.0
H2496 H 0.85748 0.71143 0.27919 0.0
H2497 H 0.84997 0.74325 0.29402 0.0
H2498 H 0.8283 0.71414 0.34578 0.0
H2499 H 0.83604 0.68237 0.33115 0.0
H2500 H 0.81215 0.75122 0.30128 0.0
H2501 H 0.8544 0.76185 0.36982 0.0
H2502 H 0.86151 0.74433 0.35122 0.0
H2503 H 0.84268 0.73835 0.36867 0.0
C2504 C 0.85166 0.71189 0.29397 0.0
C2505 C 0.84717 0.69447 0.30396 0.0
C2506 C 0.84746 0.73004 0.30246 0.0
C2507 C 0.83867 0.73109 0.32105 0.0
C2508 C 0.83548 0.71375 0.33162 0.0
H2509 H 0.75647 0.80392 0.37908 0.0
H2510 H 0.78289 0.78086 0.37139 0.0
C2511 C 0.83983 0.69557 0.3232 0.0
C2512 C 0.8295 0.74966 0.32764 0.0
H2513 H 0.82463 0.78079 0.36667 0.0
C2514 C 0.8152 0.75793 0.3154 0.0
C2515 C 0.83329 0.7582 0.34619 0.0
C2516 C 0.84895 0.75032 0.35966 0.0
C2517 C 0.80397 0.77399 0.32147 0.0
C2518 C 0.80746 0.78235 0.34017 0.0
C2519 C 0.8221 0.77442 0.35229 0.0
C2520 C 0.79481 0.79827 0.34774 0.0
C2521 C 0.78775 0.78117 0.30818 0.0
C2522 C 0.79345 0.81614 0.33766 0.0
C2523 C 0.77825 0.82918 0.34186 0.0
C2524 C 0.76445 0.8247 0.35646 0.0
C2525 C 0.76698 0.80773 0.36781 0.0
C2526 C 0.78205 0.79456 0.36343 0.0
H2527 H 0.78431 0.77048 0.29635 0.0
H2528 H 0.77416 0.78403 0.31666 0.0
H2529 H 0.79234 0.79507 0.30114 0.0
H2530 H 0.80339 0.81941 0.32573 0.0
H2531 H 0.77669 0.84229 0.33306 0.0
H2532 H 0.17263 0.78193 0.33534 0.0
H2533 H 0.19482 0.80956 0.32953 0.0
H2534 H 0.23683 0.78434 0.3695 0.0
H2535 H 0.21458 0.75696 0.37567 0.0
H2536 H 0.23671 0.82607 0.36982 0.0
H2537 H 0.24109 0.79478 0.29437 0.0
H2538 H 0.21711 0.8023 0.30216 0.0
H2539 H 0.22907 0.78215 0.31419 0.0
C2540 C 0.1864 0.78259 0.34326 0.0
C2541 C 0.19204 0.76721 0.35574 0.0
C2542 C 0.19904 0.79834 0.33993 0.0
C2543 C 0.21763 0.79873 0.34875 0.0
C2544 C 0.22256 0.78428 0.36252 0.0
H2545 H 0.33326 0.83588 0.33175 0.0
H2546 H 0.30151 0.82938 0.34672 0.0
C2547 C 0.20983 0.76865 0.36604 0.0
C2548 C 0.23298 0.81227 0.3416 0.0
H2549 H 0.26189 0.82082 0.30176 0.0
C2550 C 0.24207 0.82518 0.35486 0.0
C2551 C 0.23999 0.81098 0.3221 0.0
C2552 C 0.23147 0.79673 0.30738 0.0
C2553 C 0.2583 0.83654 0.34922 0.0
C2554 C 0.26571 0.83468 0.32992 0.0
C2555 C 0.25609 0.82238 0.3165 0.0
C2556 C 0.28465 0.84331 0.32369 0.0
C2557 C 0.2675 0.85018 0.36402 0.0
C2558 C 0.28584 0.85375 0.30599 0.0
C2559 C 0.30401 0.85726 0.29727 0.0
C2560 C 0.32131 0.85041 0.30613 0.0
C2561 C 0.32021 0.8415 0.32467 0.0
C2562 C 0.30202 0.83786 0.33332 0.0
H2563 H 0.25655 0.85526 0.37496 0.0
H2564 H 0.27919 0.84224 0.37208 0.0
H2565 H 0.27414 0.86317 0.35681 0.0
H2566 H 0.27263 0.85804 0.29828 0.0
H2567 H 0.30448 0.86432 0.28305 0.0
H2568 H 0.15515 0.72274 0.73241 0.0
H2569 H 0.16479 0.75088 0.71254 0.0
H2570 H 0.1711 0.71323 0.662 0.0
H2571 H 0.16184 0.68493 0.68192 0.0
H2572 H 0.20496 0.73214 0.67324 0.0
H2573 H 0.14438 0.78574 0.66808 0.0
H2574 H 0.14794 0.77671 0.69255 0.0
H2575 H 0.14039 0.7601 0.67344 0.0
C2576 C 0.15811 0.72057 0.71694 0.0
C2577 C 0.15797 0.70165 0.70875 0.0
C2578 C 0.16335 0.73669 0.70553 0.0
C2579 C 0.16846 0.73416 0.68575 0.0
C2580 C 0.16698 0.71549 0.67719 0.0
H2581 H 0.25382 0.8105 0.62911 0.0
H2582 H 0.22667 0.78748 0.63082 0.0
C2583 C 0.16168 0.69935 0.68859 0.0
C2584 C 0.17907 0.74999 0.67548 0.0
H2585 H 0.17722 0.79877 0.66473 0.0
C2586 C 0.19879 0.74659 0.67086 0.0
C2587 C 0.17099 0.76883 0.67266 0.0
C2588 C 0.1497 0.77304 0.67678 0.0
C2589 C 0.21107 0.76184 0.66481 0.0
C2590 C 0.2032 0.78093 0.66266 0.0
C2591 C 0.18319 0.78413 0.66631 0.0
C2592 C 0.2161 0.79794 0.65887 0.0
C2593 C 0.23265 0.75756 0.66221 0.0
C2594 C 0.21808 0.81255 0.67323 0.0
C2595 C 0.23325 0.82623 0.67202 0.0
C2596 C 0.24688 0.82532 0.65656 0.0
C2597 C 0.2437 0.81174 0.64127 0.0
C2598 C 0.22828 0.79835 0.64232 0.0
H2599 H 0.23688 0.74321 0.66861 0.0
H2600 H 0.23617 0.75713 0.64632 0.0
H2601 H 0.24175 0.76913 0.66919 0.0
H2602 H 0.20866 0.81265 0.68602 0.0
H2603 H 0.23484 0.83688 0.68371 0.0
H2604 H 0.30231 0.15575 0.73953 0.0
H2605 H 0.27066 0.16457 0.72507 0.0
H2606 H 0.30041 0.18996 0.67541 0.0
H2607 H 0.33191 0.18095 0.68959 0.0
H2608 H 0.26219 0.2022 0.72094 0.0
H2609 H 0.25334 0.16683 0.64853 0.0
H2610 H 0.27078 0.1582 0.6665 0.0
H2611 H 0.2768 0.17845 0.65069 0.0
C2612 C 0.30202 0.16265 0.72523 0.0
C2613 C 0.31957 0.16778 0.71576 0.0
C2614 C 0.28395 0.16763 0.71696 0.0
C2615 C 0.28311 0.17784 0.69909 0.0
C2616 C 0.30059 0.18167 0.68895 0.0
H2617 H 0.21613 0.26725 0.64653 0.0
H2618 H 0.23789 0.23961 0.65344 0.0
C2619 C 0.31865 0.17657 0.69713 0.0
C2620 C 0.26469 0.18765 0.69298 0.0
H2621 H 0.23556 0.19737 0.65335 0.0
C2622 C 0.25607 0.20077 0.70631 0.0
C2623 C 0.25683 0.18593 0.67382 0.0
C2624 C 0.26483 0.17143 0.65915 0.0
C2625 C 0.24056 0.21299 0.70075 0.0
C2626 C 0.23316 0.21182 0.68137 0.0
C2627 C 0.24125 0.1982 0.6682 0.0
C2628 C 0.2183 0.22595 0.67427 0.0
C2629 C 0.23299 0.22787 0.71535 0.0
C2630 C 0.19972 0.2269 0.68303 0.0
C2631 C 0.18732 0.24274 0.6792 0.0
C2632 C 0.19322 0.25774 0.66638 0.0
C2633 C 0.21115 0.25588 0.6564 0.0
C2634 C 0.2236 0.2401 0.66035 0.0
H2635 H 0.24283 0.22942 0.72826 0.0
H2636 H 0.23134 0.24247 0.70837 0.0
H2637 H 0.21839 0.22319 0.72072 0.0
H2638 H 0.19524 0.21593 0.69357 0.0
H2639 H 0.17345 0.24368 0.68686 0.0
H2640 H 0.77829 0.18157 0.68771 0.0
H2641 H 0.80176 0.20847 0.68953 0.0
H2642 H 0.78333 0.2285 0.63244 0.0
H2643 H 0.75882 0.20254 0.63107 0.0
H2644 H 0.83243 0.2238 0.66858 0.0
H2645 H 0.76813 0.27407 0.66697 0.0
H2646 H 0.76546 0.24789 0.66893 0.0
H2647 H 0.77102 0.25891 0.64563 0.0
C2648 C 0.77924 0.19164 0.67548 0.0
C2649 C 0.76622 0.19018 0.65952 0.0
C2650 C 0.79285 0.20688 0.67645 0.0
C2651 C 0.79389 0.2208 0.66137 0.0
C2652 C 0.7824 0.2182 0.64448 0.0
H2653 H 0.83851 0.3392 0.68115 0.0
H2654 H 0.83149 0.30946 0.6622 0.0
C2655 C 0.76853 0.20315 0.64363 0.0
C2656 C 0.80511 0.23912 0.66459 0.0
H2657 H 0.79873 0.28808 0.67264 0.0
C2658 C 0.82515 0.23792 0.66917 0.0
C2659 C 0.79556 0.25755 0.66541 0.0
C2660 C 0.77384 0.25977 0.66165 0.0
C2661 C 0.83571 0.25453 0.67526 0.0
C2662 C 0.82592 0.27271 0.67687 0.0
C2663 C 0.80621 0.27412 0.67124 0.0
C2664 C 0.8347 0.28984 0.68691 0.0
C2665 C 0.85709 0.25241 0.68041 0.0
C2666 C 0.83928 0.28858 0.70694 0.0
C2667 C 0.8432 0.3055 0.71778 0.0
C2668 C 0.84254 0.324 0.70877 0.0
C2669 C 0.83924 0.32513 0.68844 0.0
C2670 C 0.83522 0.30817 0.67761 0.0
H2671 H 0.86385 0.23987 0.67249 0.0
H2672 H 0.86538 0.26596 0.67691 0.0
H2673 H 0.85849 0.24958 0.69638 0.0
H2674 H 0.83857 0.27465 0.7145 0.0
H2675 H 0.84585 0.30422 0.7334 0.0
H2676 H 0.71448 0.86767 0.73726 0.0
H2677 H 0.74639 0.86314 0.72151 0.0
H2678 H 0.71794 0.83689 0.67136 0.0
H2679 H 0.68617 0.8416 0.68684 0.0
H2680 H 0.75771 0.82655 0.71586 0.0
H2681 H 0.76255 0.86449 0.64464 0.0
H2682 H 0.74484 0.87129 0.66316 0.0
H2683 H 0.73999 0.8512 0.64664 0.0
C2684 C 0.71504 0.86151 0.7226 0.0
C2685 C 0.69787 0.85476 0.71339 0.0
C2686 C 0.73324 0.85904 0.71357 0.0
C2687 C 0.7346 0.84975 0.6952 0.0
C2688 C 0.71731 0.84451 0.6853 0.0
H2689 H 0.79992 0.76449 0.63834 0.0
H2690 H 0.78 0.79337 0.64563 0.0
C2691 C 0.6991 0.84712 0.69425 0.0
C2692 C 0.75363 0.84169 0.68847 0.0
H2693 H 0.78188 0.83449 0.64773 0.0
C2694 C 0.76334 0.82874 0.70115 0.0
C2695 C 0.76083 0.84437 0.6692 0.0
C2696 C 0.75158 0.85876 0.65522 0.0
C2697 C 0.77913 0.81733 0.69472 0.0
C2698 C 0.78581 0.81932 0.67515 0.0
C2699 C 0.7768 0.83304 0.66274 0.0
C2700 C 0.80031 0.8054 0.6669 0.0
C2701 C 0.78749 0.80218 0.70857 0.0
C2702 C 0.81889 0.80326 0.6755 0.0
C2703 C 0.83014 0.78659 0.67159 0.0
C2704 C 0.82315 0.77213 0.65866 0.0
C2705 C 0.80565 0.77546 0.64833 0.0
C2706 C 0.79426 0.79196 0.65249 0.0
H2707 H 0.77812 0.80001 0.72171 0.0
H2708 H 0.78921 0.78783 0.70105 0.0
H2709 H 0.80214 0.80704 0.7137 0.0
H2710 H 0.824 0.81371 0.68634 0.0
H2711 H 0.8437 0.7844 0.67957 0.0
H2712 H 0.38439 0.2539 0.20402 0.0
H2713 H 0.38327 0.22815 0.22859 0.0
H2714 H 0.33012 0.20566 0.2027 0.0
H2715 H 0.33177 0.23068 0.17725 0.0
H2716 H 0.35341 0.22967 0.25325 0.0
H2717 H 0.35541 0.15541 0.22074 0.0
H2718 H 0.36371 0.17685 0.20763 0.0
H2719 H 0.33801 0.17094 0.20861 0.0
C2720 C 0.37296 0.24296 0.20289 0.0
C2721 C 0.35799 0.24458 0.18876 0.0
C2722 C 0.37229 0.22826 0.21708 0.0
C2723 C 0.35662 0.21496 0.21753 0.0
C2724 C 0.34254 0.21553 0.20251 0.0
H2725 H 0.28729 0.16061 0.30396 0.0
H2726 H 0.30431 0.16876 0.27352 0.0
C2727 C 0.34333 0.23008 0.18814 0.0
C2728 C 0.35284 0.20347 0.23556 0.0
H2729 H 0.3398 0.15826 0.25262 0.0
C2730 C 0.35091 0.21396 0.25319 0.0
C2731 C 0.3493 0.18304 0.2354 0.0
C2732 C 0.3519 0.17089 0.21709 0.0
C2733 C 0.34466 0.20485 0.27044 0.0
C2734 C 0.3406 0.18452 0.2702 0.0
C2735 C 0.34305 0.17382 0.25275 0.0
C2736 C 0.33207 0.17485 0.28761 0.0
C2737 C 0.3414 0.21734 0.28849 0.0
C2738 C 0.34235 0.17456 0.30544 0.0
C2739 C 0.33256 0.17039 0.32292 0.0
C2740 C 0.31236 0.16615 0.3228 0.0
C2741 C 0.30269 0.16436 0.30463 0.0
C2742 C 0.31245 0.16877 0.28718 0.0
H2743 H 0.34145 0.23325 0.28506 0.0
H2744 H 0.32721 0.21367 0.29557 0.0
H2745 H 0.35329 0.21452 0.29924 0.0
H2746 H 0.3576 0.17896 0.30599 0.0
H2747 H 0.34055 0.17195 0.33656 0.0
H2748 H 0.75973 0.3769 0.20632 0.0
H2749 H 0.78654 0.37139 0.22925 0.0
H2750 H 0.80859 0.32491 0.19237 0.0
H2751 H 0.78166 0.33037 0.16927 0.0
H2752 H 0.79785 0.31271 0.22853 0.0
H2753 H 0.84532 0.37788 0.23644 0.0
H2754 H 0.81978 0.38403 0.23728 0.0
H2755 H 0.83 0.37384 0.21515 0.0
C2756 C 0.77074 0.36607 0.20262 0.0
C2757 C 0.76846 0.3539 0.1861 0.0
C2758 C 0.78616 0.36299 0.21574 0.0
C2759 C 0.79966 0.34781 0.21248 0.0
C2760 C 0.79838 0.33677 0.19512 0.0
H2761 H 0.85616 0.28331 0.30756 0.0
H2762 H 0.8524 0.29673 0.27442 0.0
C2763 C 0.78293 0.33981 0.18201 0.0
C2764 C 0.81205 0.34087 0.2289 0.0
H2765 H 0.84379 0.35616 0.26457 0.0
C2766 C 0.8083 0.32202 0.23612 0.0
C2767 C 0.82543 0.35316 0.23892 0.0
C2768 C 0.83051 0.37329 0.23143 0.0
C2769 C 0.81657 0.3155 0.25374 0.0
C2770 C 0.82951 0.32799 0.26415 0.0
C2771 C 0.83396 0.34657 0.25651 0.0
C2772 C 0.8367 0.32262 0.28394 0.0
C2773 C 0.81024 0.29581 0.26165 0.0
C2774 C 0.83057 0.33355 0.3003 0.0
C2775 C 0.8331 0.32612 0.31923 0.0
C2776 C 0.84162 0.3076 0.32196 0.0
C2777 C 0.84934 0.29752 0.30572 0.0
C2778 C 0.84714 0.30514 0.28685 0.0
H2779 H 0.79702 0.2901 0.25403 0.0
H2780 H 0.82223 0.28504 0.25951 0.0
H2781 H 0.80699 0.29675 0.27759 0.0
H2782 H 0.82255 0.34712 0.29838 0.0
H2783 H 0.82704 0.33412 0.33156 0.0
H2784 H 0.62342 0.75893 0.20956 0.0
H2785 H 0.62499 0.78563 0.23335 0.0
H2786 H 0.68003 0.80445 0.2087 0.0
H2787 H 0.67817 0.77826 0.18433 0.0
H2788 H 0.65481 0.78368 0.25907 0.0
H2789 H 0.65593 0.85662 0.22405 0.0
H2790 H 0.64657 0.83507 0.21175 0.0
H2791 H 0.67251 0.83983 0.21242 0.0
C2792 C 0.63542 0.76926 0.20858 0.0
C2793 C 0.65083 0.76629 0.19521 0.0
C2794 C 0.63632 0.78451 0.22227 0.0
C2795 C 0.6526 0.79708 0.22281 0.0
C2796 C 0.66715 0.79518 0.20839 0.0
H2797 H 0.72624 0.85314 0.30329 0.0
H2798 H 0.70666 0.84448 0.27459 0.0
C2799 C 0.66622 0.77999 0.19463 0.0
C2800 C 0.65646 0.80912 0.24053 0.0
H2801 H 0.67182 0.85426 0.25588 0.0
C2802 C 0.65802 0.79924 0.25849 0.0
C2803 C 0.66087 0.82935 0.23967 0.0
C2804 C 0.6587 0.84087 0.22094 0.0
C2805 C 0.66509 0.80865 0.27534 0.0
C2806 C 0.67021 0.82874 0.27438 0.0
C2807 C 0.6678 0.83891 0.25662 0.0
C2808 C 0.68023 0.83852 0.29104 0.0
C2809 C 0.6683 0.79655 0.29363 0.0
C2810 C 0.67155 0.8392 0.30968 0.0
C2811 C 0.68287 0.84351 0.32623 0.0
C2812 C 0.70302 0.84766 0.32436 0.0
C2813 C 0.71098 0.8493 0.30538 0.0
C2814 C 0.69973 0.84462 0.28889 0.0
H2815 H 0.66747 0.78056 0.2906 0.0
H2816 H 0.68282 0.79976 0.30026 0.0
H2817 H 0.65682 0.80016 0.30457 0.0
H2818 H 0.65636 0.83502 0.31159 0.0
H2819 H 0.67609 0.84215 0.34052 0.0
H2820 H 0.25076 0.64006 0.2049 0.0
H2821 H 0.22354 0.64612 0.22719 0.0
H2822 H 0.20315 0.69286 0.18984 0.0
H2823 H 0.23058 0.68694 0.16748 0.0
H2824 H 0.21184 0.70524 0.22598 0.0
H2825 H 0.165 0.63962 0.23254 0.0
H2826 H 0.19046 0.63353 0.23475 0.0
H2827 H 0.18131 0.64337 0.21201 0.0
C2828 C 0.24005 0.65109 0.20099 0.0
C2829 C 0.2429 0.66315 0.18453 0.0
C2830 C 0.22439 0.6545 0.21373 0.0
C2831 C 0.21118 0.66985 0.21013 0.0
C2832 C 0.21311 0.68088 0.19286 0.0
H2833 H 0.15086 0.73368 0.3038 0.0
H2834 H 0.15534 0.72016 0.27075 0.0
C2835 C 0.22883 0.67755 0.18016 0.0
C2836 C 0.19818 0.6768 0.22612 0.0
H2837 H 0.16579 0.6613 0.26097 0.0
C2838 C 0.20135 0.69582 0.23331 0.0
C2839 C 0.18469 0.66441 0.23579 0.0
C2840 C 0.18003 0.64416 0.22823 0.0
C2841 C 0.19245 0.70237 0.25061 0.0
C2842 C 0.17954 0.68971 0.26078 0.0
C2843 C 0.17561 0.671 0.25311 0.0
C2844 C 0.17203 0.695 0.28047 0.0
C2845 C 0.19806 0.72231 0.25855 0.0
C2846 C 0.17858 0.68451 0.29691 0.0
C2847 C 0.17577 0.69204 0.31578 0.0
C2848 C 0.16648 0.71023 0.31843 0.0
C2849 C 0.15829 0.71975 0.30209 0.0
C2850 C 0.16088 0.71207 0.28324 0.0
H2851 H 0.21109 0.72847 0.25099 0.0
H2852 H 0.18569 0.73263 0.25638 0.0
H2853 H 0.20129 0.72153 0.2745 0.0
H2854 H 0.18716 0.67128 0.29509 0.0
H2855 H 0.18226 0.68443 0.32811 0.0
H2856 H 0.33041 0.8339 0.68445 0.0
H2857 H 0.34467 0.82809 0.71689 0.0
H2858 H 0.29533 0.85698 0.74392 0.0
H2859 H 0.28076 0.86235 0.71148 0.0
H2860 H 0.35485 0.84934 0.75131 0.0
H2861 H 0.29058 0.80035 0.76246 0.0
H2862 H 0.29622 0.81099 0.73897 0.0
H2863 H 0.28475 0.82555 0.75774 0.0
C2864 C 0.32289 0.83949 0.69728 0.0
C2865 C 0.30436 0.84831 0.69554 0.0
C2866 C 0.33104 0.83618 0.7158 0.0
C2867 C 0.32085 0.84175 0.7328 0.0
C2868 C 0.30324 0.85222 0.73098 0.0
H2869 H 0.33262 0.78303 0.84459 0.0
H2870 H 0.32629 0.81091 0.82296 0.0
C2871 C 0.29495 0.8553 0.71249 0.0
C2872 C 0.32721 0.8341 0.75212 0.0
H2873 H 0.31415 0.80105 0.78718 0.0
C2874 C 0.34588 0.83898 0.75934 0.0
C2875 C 0.3155 0.82051 0.7625 0.0
C2876 C 0.29573 0.81386 0.75501 0.0
C2877 C 0.35329 0.8303 0.77653 0.0
C2878 C 0.3418 0.81626 0.78652 0.0
C2879 C 0.32287 0.812 0.77966 0.0
C2880 C 0.34958 0.80385 0.80259 0.0
C2881 C 0.37341 0.83604 0.78366 0.0
C2882 C 0.36546 0.79127 0.79893 0.0
C2883 C 0.36918 0.77544 0.81137 0.0
C2884 C 0.35689 0.77181 0.82749 0.0
C2885 C 0.34224 0.78549 0.8322 0.0
C2886 C 0.33864 0.80141 0.81986 0.0
H2887 H 0.37712 0.85123 0.77915 0.0
H2888 H 0.37455 0.83495 0.79988 0.0
H2889 H 0.38443 0.82607 0.77703 0.0
H2890 H 0.37385 0.79255 0.78551 0.0
H2891 H 0.38044 0.765 0.80728 0.0
H2892 H 0.14942 0.29067 0.71542 0.0
H2893 H 0.15194 0.30501 0.74828 0.0
H2894 H 0.18097 0.35558 0.72393 0.0
H2895 H 0.17813 0.34153 0.69118 0.0
H2896 H 0.18784 0.30879 0.76175 0.0
H2897 H 0.15217 0.38093 0.76863 0.0
H2898 H 0.14564 0.36365 0.74958 0.0
H2899 H 0.16638 0.37972 0.74656 0.0
C2900 C 0.15568 0.30517 0.71706 0.0
C2901 C 0.16382 0.31488 0.70083 0.0
C2902 C 0.15702 0.31339 0.7358 0.0
C2903 C 0.16659 0.33141 0.73861 0.0
C2904 C 0.17311 0.34191 0.72216 0.0
H2905 H 0.252 0.38167 0.80739 0.0
H2906 H 0.22288 0.37648 0.78715 0.0
C2907 C 0.1716 0.33378 0.7034 0.0
C2908 C 0.17389 0.3369 0.75838 0.0
H2909 H 0.18171 0.3761 0.78862 0.0
C2910 C 0.18599 0.32332 0.76798 0.0
C2911 C 0.17164 0.3559 0.76638 0.0
C2912 C 0.15807 0.37079 0.75731 0.0
C2913 C 0.19715 0.32864 0.78437 0.0
C2914 C 0.19575 0.348 0.79178 0.0
C2915 C 0.18271 0.36127 0.78296 0.0
C2916 C 0.20982 0.35521 0.8067 0.0
C2917 C 0.21153 0.31389 0.79255 0.0
C2918 C 0.21149 0.34593 0.825 0.0
C2919 C 0.22831 0.3486 0.8364 0.0
C2920 C 0.24338 0.361 0.82987 0.0
C2921 C 0.24057 0.37207 0.81275 0.0
C2922 C 0.22392 0.36912 0.80119 0.0
H2923 H 0.21328 0.30093 0.7828 0.0
H2924 H 0.22617 0.32067 0.79472 0.0
H2925 H 0.20622 0.3086 0.80698 0.0
H2926 H 0.20055 0.33546 0.8297 0.0
H2927 H 0.23011 0.34008 0.84967 0.0
H2928 H 0.68406 0.17783 0.68548 0.0
H2929 H 0.66919 0.18498 0.71745 0.0
H2930 H 0.71811 0.15737 0.74649 0.0
H2931 H 0.73335 0.15089 0.71457 0.0
H2932 H 0.65838 0.16586 0.75251 0.0
H2933 H 0.72299 0.21457 0.7627 0.0
H2934 H 0.71761 0.2028 0.73963 0.0
H2935 H 0.72888 0.18918 0.7592 0.0
C2936 C 0.69133 0.17281 0.6987 0.0
C2937 C 0.70993 0.16408 0.6977 0.0
C2938 C 0.68283 0.17688 0.71693 0.0
C2939 C 0.69278 0.1721 0.73432 0.0
C2940 C 0.71041 0.16154 0.73323 0.0
H2941 H 0.68119 0.23124 0.84628 0.0
H2942 H 0.68712 0.20378 0.8239 0.0
C2943 C 0.71906 0.1578 0.71505 0.0
C2944 C 0.68625 0.18066 0.75321 0.0
H2945 H 0.6997 0.21431 0.78774 0.0
C2946 C 0.66746 0.17629 0.76038 0.0
C2947 C 0.69808 0.19442 0.76333 0.0
C2948 C 0.71793 0.2007 0.75578 0.0
C2949 C 0.66013 0.18549 0.77736 0.0
C2950 C 0.67187 0.19947 0.78722 0.0
C2951 C 0.69083 0.20337 0.78033 0.0
C2952 C 0.6644 0.21202 0.80334 0.0
C2953 C 0.63987 0.18034 0.78446 0.0
C2954 C 0.64905 0.22522 0.79967 0.0
C2955 C 0.64564 0.24089 0.81245 0.0
C2956 C 0.65768 0.24373 0.82897 0.0
C2957 C 0.67183 0.22948 0.83355 0.0
C2958 C 0.67517 0.21376 0.82083 0.0
H2959 H 0.63555 0.16538 0.77964 0.0
H2960 H 0.63892 0.18119 0.80071 0.0
H2961 H 0.62918 0.19086 0.77817 0.0
H2962 H 0.64083 0.22444 0.78609 0.0
H2963 H 0.63477 0.25174 0.80842 0.0
H2964 H 0.86238 0.69242 0.69069 0.0
H2965 H 0.85651 0.67192 0.7198 0.0
H2966 H 0.80516 0.7061 0.73345 0.0
H2967 H 0.81034 0.72596 0.70443 0.0
H2968 H 0.85019 0.68323 0.76247 0.0
H2969 H 0.78657 0.64772 0.72691 0.0
H2970 H 0.80553 0.66006 0.71317 0.0
H2971 H 0.78603 0.67389 0.72436 0.0
C2972 C 0.84988 0.69556 0.69997 0.0
C2973 C 0.83685 0.71088 0.69523 0.0
C2974 C 0.84665 0.68394 0.71661 0.0
C2975 C 0.83032 0.68745 0.72858 0.0
C2976 C 0.81778 0.70312 0.72428 0.0
H2977 H 0.78123 0.6814 0.83695 0.0
H2978 H 0.80585 0.68338 0.81144 0.0
C2979 C 0.82091 0.71461 0.70775 0.0
C2980 C 0.82528 0.67448 0.74513 0.0
H2981 H 0.78592 0.64936 0.76226 0.0
C2982 C 0.83642 0.6753 0.76241 0.0
C2983 C 0.80767 0.66363 0.74481 0.0
C2984 C 0.79586 0.66107 0.72624 0.0
C2985 C 0.82931 0.66716 0.77997 0.0
C2986 C 0.81038 0.65862 0.78021 0.0
C2987 C 0.80031 0.65608 0.76237 0.0
C2988 C 0.79927 0.65501 0.79864 0.0
C2989 C 0.84195 0.66834 0.79808 0.0
C2990 C 0.78742 0.63828 0.8004 0.0
C2991 C 0.77246 0.63762 0.81436 0.0
C2992 C 0.76929 0.65352 0.82721 0.0
C2993 C 0.78271 0.66918 0.82691 0.0
C2994 C 0.79726 0.67011 0.81254 0.0
H2995 H 0.85763 0.66627 0.79421 0.0
H2996 H 0.84053 0.68315 0.80471 0.0
H2997 H 0.83778 0.65718 0.80915 0.0
H2998 H 0.7887 0.62636 0.78995 0.0
H2999 H 0.76253 0.62527 0.81392 0.0
H3000 H 0.32795 0.3267 0.18043 0.0
H3001 H 0.29562 0.33991 0.18849 0.0
H3002 H 0.26827 0.28983 0.16114 0.0
H3003 H 0.30065 0.27631 0.15341 0.0
H3004 H 0.2596 0.34898 0.16971 0.0
H3005 H 0.25402 0.28433 0.21913 0.0
H3006 H 0.27648 0.2908 0.20687 0.0
H3007 H 0.25716 0.27872 0.19358 0.0
C3008 C 0.31504 0.31881 0.17559 0.0
C3009 C 0.31675 0.30036 0.16654 0.0
C3010 C 0.29658 0.32636 0.18022 0.0
C3011 C 0.2796 0.31562 0.17578 0.0
C3012 C 0.28123 0.29813 0.16503 0.0
H3013 H 0.16964 0.32482 0.23926 0.0
H3014 H 0.1917 0.31799 0.21178 0.0
C3015 C 0.29969 0.29045 0.1606 0.0
C3016 C 0.26074 0.32132 0.18485 0.0
H3017 H 0.22854 0.30709 0.22029 0.0
C3018 C 0.25261 0.33975 0.18059 0.0
C3019 C 0.25176 0.30928 0.19915 0.0
C3020 C 0.26033 0.28976 0.20513 0.0
C3021 C 0.23587 0.34657 0.1905 0.0
C3022 C 0.22728 0.33473 0.20517 0.0
C3023 C 0.23504 0.31606 0.2089 0.0
C3024 C 0.21156 0.34185 0.21837 0.0
C3025 C 0.22769 0.36642 0.18534 0.0
C3026 C 0.21504 0.35793 0.23079 0.0
C3027 C 0.20243 0.36187 0.24645 0.0
C3028 C 0.18628 0.34964 0.25009 0.0
C3029 C 0.18207 0.33438 0.23685 0.0
C3030 C 0.19461 0.33053 0.22113 0.0
H3031 H 0.23139 0.37051 0.17001 0.0
H3032 H 0.21152 0.36681 0.18712 0.0
H3033 H 0.2342 0.37761 0.19522 0.0
H3034 H 0.22826 0.36657 0.22927 0.0
H3035 H 0.20617 0.37357 0.25656 0.0
H3036 H 0.17876 0.69481 0.77661 0.0
H3037 H 0.20674 0.69453 0.79877 0.0
H3038 H 0.21666 0.63346 0.78569 0.0
H3039 H 0.18972 0.63403 0.76214 0.0
H3040 H 0.21995 0.67588 0.83054 0.0
H3041 H 0.26672 0.65649 0.76636 0.0
H3042 H 0.24113 0.66223 0.76369 0.0
H3043 H 0.24857 0.63871 0.77298 0.0
C3044 C 0.18688 0.68129 0.77837 0.0
C3045 C 0.18231 0.66465 0.76703 0.0
C3046 C 0.20275 0.68108 0.7913 0.0
C3047 C 0.21421 0.66413 0.79345 0.0
C3048 C 0.20842 0.64688 0.78379 0.0
H3049 H 0.32244 0.69106 0.86214 0.0
H3050 H 0.29292 0.672 0.85375 0.0
C3051 C 0.19277 0.64719 0.77051 0.0
C3052 C 0.23331 0.66554 0.80385 0.0
H3053 H 0.28254 0.66603 0.795 0.0
C3054 C 0.23368 0.67336 0.82295 0.0
C3055 C 0.25124 0.66222 0.79389 0.0
C3056 C 0.25201 0.65459 0.77307 0.0
C3057 C 0.25134 0.6794 0.83173 0.0
C3058 C 0.26906 0.67714 0.82125 0.0
C3059 C 0.26886 0.66772 0.80294 0.0
C3060 C 0.28711 0.68784 0.82687 0.0
C3061 C 0.25077 0.68955 0.8514 0.0
C3062 C 0.29378 0.70269 0.81437 0.0
C3063 C 0.31055 0.7133 0.81895 0.0
C3064 C 0.32105 0.70952 0.83629 0.0
C3065 C 0.31458 0.6944 0.84874 0.0
C3066 C 0.29767 0.68362 0.84405 0.0
H3067 H 0.23556 0.69169 0.8568 0.0
H3068 H 0.25889 0.68066 0.86234 0.0
H3069 H 0.25804 0.70407 0.85047 0.0
H3070 H 0.28592 0.70613 0.80098 0.0
H3071 H 0.3154 0.72439 0.80869 0.0
H3072 H 0.37458 0.21325 0.75929 0.0
H3073 H 0.36915 0.2361 0.78618 0.0
H3074 H 0.33798 0.19124 0.81812 0.0
H3075 H 0.3423 0.16875 0.79033 0.0
H3076 H 0.31639 0.21996 0.81663 0.0
H3077 H 0.38689 0.25132 0.83841 0.0
H3078 H 0.38573 0.2532 0.81227 0.0
H3079 H 0.38562 0.22931 0.82371 0.0
C3080 C 0.36716 0.20811 0.77236 0.0
C3081 C 0.35885 0.18933 0.77285 0.0
C3082 C 0.36421 0.22113 0.78789 0.0
C3083 C 0.35338 0.21543 0.80448 0.0
C3084 C 0.34642 0.19604 0.80556 0.0
H3085 H 0.31783 0.32196 0.87067 0.0
H3086 H 0.33352 0.28966 0.86641 0.0
C3087 C 0.3489 0.18318 0.78975 0.0
C3088 C 0.34616 0.23065 0.8184 0.0
H3089 H 0.35882 0.27508 0.83782 0.0
C3090 C 0.32587 0.23162 0.82183 0.0
C3091 C 0.35832 0.24581 0.82582 0.0
C3092 C 0.38036 0.24466 0.82502 0.0
C3093 C 0.3173 0.24819 0.83038 0.0
C3094 C 0.32919 0.26453 0.83496 0.0
C3095 C 0.34963 0.26277 0.8337 0.0
C3096 C 0.32041 0.28415 0.83798 0.0
C3097 C 0.2954 0.24843 0.8334 0.0
C3098 C 0.30847 0.29194 0.82317 0.0
C3099 C 0.29955 0.31009 0.82558 0.0
C3100 C 0.30252 0.32105 0.84279 0.0
C3101 C 0.31516 0.31369 0.85735 0.0
C3102 C 0.32407 0.2953 0.85495 0.0
H3103 H 0.28981 0.23347 0.83653 0.0
H3104 H 0.29115 0.25831 0.84565 0.0
H3105 H 0.28815 0.25359 0.81976 0.0
H3106 H 0.30601 0.28392 0.80965 0.0
H3107 H 0.29038 0.31565 0.81385 0.0
H3108 H 0.70464 0.28897 0.81871 0.0
H3109 H 0.73416 0.30815 0.81448 0.0
H3110 H 0.71918 0.34346 0.86478 0.0
H3111 H 0.68971 0.3234 0.87001 0.0
H3112 H 0.72811 0.3633 0.82499 0.0
H3113 H 0.78532 0.31191 0.85077 0.0
H3114 H 0.76613 0.30014 0.83703 0.0
H3115 H 0.76049 0.31169 0.86009 0.0
C3116 C 0.7078 0.30029 0.82941 0.0
C3117 C 0.69483 0.30432 0.84495 0.0
C3118 C 0.72468 0.31138 0.82683 0.0
C3119 C 0.72896 0.32697 0.83949 0.0
C3120 C 0.71617 0.33129 0.855 0.0
H3121 H 0.83793 0.36995 0.78708 0.0
H3122 H 0.81475 0.36842 0.81478 0.0
C3123 C 0.69929 0.31991 0.85784 0.0
C3124 C 0.74609 0.33935 0.83495 0.0
H3125 H 0.79436 0.33338 0.82383 0.0
C3126 C 0.7428 0.35722 0.82539 0.0
C3127 C 0.76523 0.33154 0.83573 0.0
C3128 C 0.76959 0.31284 0.84664 0.0
C3129 C 0.75774 0.36618 0.81448 0.0
C3130 C 0.7762 0.35687 0.81307 0.0
C3131 C 0.78013 0.34041 0.82473 0.0
C3132 C 0.78973 0.36108 0.79667 0.0
C3133 C 0.75321 0.38467 0.8033 0.0
C3134 C 0.7833 0.35745 0.77743 0.0
C3135 C 0.79644 0.35798 0.76184 0.0
C3136 C 0.81627 0.36224 0.76515 0.0
C3137 C 0.82265 0.3667 0.78425 0.0
C3138 C 0.80947 0.36588 0.8 0.0
H3139 H 0.74197 0.39356 0.81105 0.0
H3140 H 0.76657 0.39371 0.80118 0.0
H3141 H 0.74724 0.38075 0.78865 0.0
H3142 H 0.76825 0.35325 0.77458 0.0
H3143 H 0.79122 0.35457 0.7472 0.0
H3144 H 0.68664 0.68311 0.8341 0.0
H3145 H 0.67332 0.71569 0.82731 0.0
H3146 H 0.72228 0.74211 0.85746 0.0
H3147 H 0.73598 0.7095 0.86376 0.0
H3148 H 0.66291 0.74994 0.84735 0.0
H3149 H 0.72941 0.76062 0.80134 0.0
H3150 H 0.72326 0.73727 0.81196 0.0
H3151 H 0.73414 0.75616 0.82685 0.0
C3152 C 0.69427 0.69586 0.83973 0.0
C3153 C 0.71246 0.69388 0.84919 0.0
C3154 C 0.68666 0.71446 0.83585 0.0
C3155 C 0.69707 0.7313 0.84148 0.0
C3156 C 0.71427 0.72929 0.8526 0.0
H3157 H 0.68613 0.84511 0.78497 0.0
H3158 H 0.69267 0.82176 0.81141 0.0
C3159 C 0.72204 0.71071 0.85623 0.0
C3160 C 0.69125 0.75061 0.83347 0.0
H3161 H 0.70604 0.78557 0.801 0.0
C3162 C 0.67241 0.7579 0.83741 0.0
C3163 C 0.70365 0.7609 0.8204 0.0
C3164 C 0.72367 0.75332 0.81471 0.0
C3165 C 0.66549 0.77502 0.82828 0.0
C3166 C 0.6777 0.78492 0.8148 0.0
C3167 C 0.69678 0.77805 0.8115 0.0
C3168 C 0.67055 0.80101 0.80212 0.0
C3169 C 0.64511 0.78219 0.83291 0.0
C3170 C 0.65555 0.79734 0.7885 0.0
C3171 C 0.65186 0.81059 0.77334 0.0
C3172 C 0.66323 0.82767 0.77146 0.0
C3173 C 0.67729 0.83196 0.78594 0.0
C3174 C 0.68096 0.81871 0.8011 0.0
H3175 H 0.64032 0.77728 0.84768 0.0
H3176 H 0.64426 0.79843 0.83225 0.0
H3177 H 0.63471 0.77606 0.82197 0.0
H3178 H 0.64766 0.78357 0.78869 0.0
H3179 H 0.64111 0.80671 0.76229 0.0
H3180 H 0.68866 0.69101 0.15212 0.0
H3181 H 0.7177 0.67069 0.15886 0.0
H3182 H 0.72375 0.69835 0.21551 0.0
H3183 H 0.69465 0.71778 0.20942 0.0
H3184 H 0.75662 0.68117 0.16788 0.0
H3185 H 0.72356 0.64034 0.22902 0.0
H3186 H 0.709 0.65401 0.21163 0.0
H3187 H 0.71981 0.6661 0.23257 0.0
C3188 C 0.69616 0.69263 0.16605 0.0
C3189 C 0.68939 0.70613 0.18018 0.0
C3190 C 0.71275 0.68109 0.16982 0.0
C3191 C 0.72263 0.6828 0.18781 0.0
C3192 C 0.71611 0.69652 0.20168 0.0
H3193 H 0.83188 0.68252 0.23568 0.0
H3194 H 0.80561 0.68343 0.21179 0.0
C3195 C 0.69961 0.70789 0.19802 0.0
C3196 C 0.73996 0.67067 0.19256 0.0
H3197 H 0.75886 0.64558 0.2312 0.0
C3198 C 0.75711 0.67288 0.18144 0.0
C3199 C 0.74043 0.6592 0.20978 0.0
C3200 C 0.72212 0.65458 0.22127 0.0
C3201 C 0.77516 0.66571 0.18832 0.0
C3202 C 0.77607 0.6568 0.20707 0.0
C3203 C 0.75849 0.65273 0.21701 0.0
C3204 C 0.79474 0.65425 0.2181 0.0
C3205 C 0.79305 0.66828 0.17562 0.0
C3206 C 0.79776 0.63752 0.2297 0.0
C3207 C 0.81213 0.63744 0.24432 0.0
C3208 C 0.82418 0.65394 0.24737 0.0
C3209 C 0.82252 0.66979 0.23428 0.0
C3210 C 0.80772 0.67012 0.22012 0.0
H3211 H 0.78922 0.66615 0.1599 0.0
H3212 H 0.79862 0.68348 0.17721 0.0
H3213 H 0.80488 0.65783 0.17957 0.0
H3214 H 0.78804 0.62503 0.22844 0.0
H3215 H 0.81273 0.62494 0.25404 0.0
H3216 H 0.32761 0.68581 0.17971 0.0
H3217 H 0.34281 0.71735 0.18733 0.0
H3218 H 0.2967 0.7472 0.15603 0.0
H3219 H 0.28114 0.71563 0.14874 0.0
H3220 H 0.35577 0.7518 0.16825 0.0
H3221 H 0.28862 0.76419 0.21295 0.0
H3222 H 0.29409 0.74084 0.20184 0.0
H3223 H 0.28447 0.76051 0.18719 0.0
C3224 C 0.32104 0.69905 0.17392 0.0
C3225 C 0.30303 0.69834 0.16391 0.0
C3226 C 0.32974 0.71707 0.1783 0.0
C3227 C 0.32062 0.7346 0.17264 0.0
C3228 C 0.30373 0.73382 0.16089 0.0
H3229 H 0.33407 0.84559 0.23389 0.0
H3230 H 0.32754 0.82342 0.20637 0.0
C3231 C 0.29489 0.71582 0.15671 0.0
C3232 C 0.32715 0.75335 0.18147 0.0
H3233 H 0.31316 0.78786 0.21491 0.0
C3234 C 0.3464 0.75988 0.17825 0.0
C3235 C 0.31493 0.76376 0.19464 0.0
C3236 C 0.29444 0.75695 0.19955 0.0
C3237 C 0.35385 0.7764 0.18813 0.0
C3238 C 0.34178 0.78642 0.20171 0.0
C3239 C 0.32234 0.78028 0.20435 0.0
C3240 C 0.34924 0.80196 0.215 0.0
C3241 C 0.3746 0.78282 0.18413 0.0
C3242 C 0.36409 0.7976 0.22857 0.0
C3243 C 0.36787 0.81026 0.24428 0.0
C3244 C 0.35666 0.82736 0.24679 0.0
C3245 C 0.3428 0.83241 0.23239 0.0
C3246 C 0.33912 0.81981 0.21663 0.0
H3247 H 0.37938 0.77831 0.16921 0.0
H3248 H 0.37618 0.79896 0.18556 0.0
H3249 H 0.38455 0.77574 0.19489 0.0
H3250 H 0.37176 0.78372 0.22792 0.0
H3251 H 0.37847 0.80587 0.25527 0.0
H3252 H 0.68504 0.32791 0.17989 0.0
H3253 H 0.67113 0.29553 0.18632 0.0
H3254 H 0.71829 0.26863 0.15389 0.0
H3255 H 0.73256 0.30103 0.14784 0.0
H3256 H 0.65939 0.26142 0.16579 0.0
H3257 H 0.72708 0.24957 0.2099 0.0
H3258 H 0.72078 0.27313 0.19983 0.0
H3259 H 0.73101 0.2544 0.18433 0.0
C3260 C 0.69211 0.31514 0.17361 0.0
C3261 C 0.71001 0.31691 0.1636 0.0
C3262 C 0.68416 0.29664 0.17731 0.0
C3263 C 0.69393 0.27967 0.17096 0.0
C3264 C 0.71075 0.28153 0.15927 0.0
H3265 H 0.68449 0.16668 0.22877 0.0
H3266 H 0.68997 0.18931 0.20149 0.0
C3267 C 0.71885 0.30001 0.15579 0.0
C3268 C 0.68808 0.26035 0.17895 0.0
H3269 H 0.70334 0.22505 0.21086 0.0
C3270 C 0.66906 0.25329 0.17543 0.0
C3271 C 0.70071 0.24982 0.19163 0.0
C3272 C 0.72097 0.25713 0.19683 0.0
C3273 C 0.66221 0.23615 0.18459 0.0
C3274 C 0.67464 0.22603 0.19774 0.0
C3275 C 0.69388 0.2327 0.20061 0.0
C3276 C 0.66766 0.20995 0.21059 0.0
C3277 C 0.64167 0.22921 0.18032 0.0
C3278 C 0.65274 0.21362 0.22429 0.0
C3279 C 0.64958 0.20071 0.23985 0.0
C3280 C 0.66145 0.18402 0.24212 0.0
C3281 C 0.67525 0.17953 0.22748 0.0
C3282 C 0.67834 0.1924 0.21186 0.0
H3283 H 0.6368 0.23392 0.1655 0.0
H3284 H 0.64055 0.21301 0.18129 0.0
H3285 H 0.63149 0.23575 0.19121 0.0
H3286 H 0.64462 0.22725 0.22392 0.0
H3287 H 0.63901 0.20471 0.25101 0.0
H3288 H 0.91792 0.34657 0.36071 0.0
H3289 H 0.94844 0.35654 0.3451 0.0
H3290 H 0.97898 0.30978 0.37456 0.0
H3291 H 0.94815 0.29966 0.39043 0.0
H3292 H 0.99683 0.34667 0.37937 0.0
H3293 H 0.98149 0.33433 0.30051 0.0
H3294 H 0.96286 0.34826 0.31282 0.0
H3295 H 0.96709 0.32318 0.31971 0.0
C3296 C 0.931 0.33803 0.36356 0.0
C3297 C 0.93043 0.32215 0.37678 0.0
C3298 C 0.94853 0.34376 0.3545 0.0
C3299 C 0.96616 0.33388 0.35838 0.0
C3300 C 0.9656 0.31762 0.37114 0.0
H3301 H 0.08894 0.36298 0.33531 0.0
H3302 H 0.05824 0.347 0.34403 0.0
C3303 C 0.94791 0.3117 0.3801 0.0
C3304 C 0.98521 0.34169 0.35046 0.0
H3305 H 0.00908 0.35453 0.30807 0.0
C3306 C 0.99957 0.34815 0.36377 0.0
C3307 C 0.98881 0.34403 0.33009 0.0
C3308 C 0.97433 0.33693 0.31492 0.0
C3309 C 0.01706 0.35718 0.3574 0.0
C3310 C 0.02078 0.35942 0.33701 0.0
C3311 C 1.00641 0.35291 0.32367 0.0
C3312 C 0.03962 0.36811 0.32945 0.0
C3313 C 0.03108 0.36486 0.37274 0.0
C3314 C 0.03978 0.38469 0.31709 0.0
C3315 C 0.0576 0.39375 0.31166 0.0
C3316 C 0.07563 0.38643 0.31854 0.0
C3317 C 0.07538 0.36921 0.32993 0.0
C3318 C 0.05773 0.36011 0.33511 0.0
H3319 H 0.02357 0.36762 0.38694 0.0
H3320 H 0.0427 0.3538 0.37538 0.0
H3321 H 0.03815 0.37869 0.36791 0.0
H3322 H 0.02608 0.39111 0.31227 0.0
H3323 H 0.05719 0.40704 0.303 0.0
H3324 H 0.68008 0.92164 0.36121 0.0
H3325 H 0.66974 0.9507 0.34323 0.0
H3326 H 0.70775 0.98636 0.3791 0.0
H3327 H 0.71848 0.95694 0.39702 0.0
H3328 H 0.64983 0.98054 0.35826 0.0
H3329 H 0.71811 0.01002 0.32589 0.0
H3330 H 0.71662 0.98558 0.33587 0.0
H3331 H 0.71963 1.00634 0.35192 0.0
C3332 C 0.68669 0.93558 0.36496 0.0
C3333 C 0.70027 0.93685 0.3805 0.0
C3334 C 0.68064 0.95229 0.35469 0.0
C3335 C 0.68789 0.97093 0.35962 0.0
C3336 C 0.70214 0.9722 0.37462 0.0
H3337 H 0.65345 0.09009 0.33453 0.0
H3338 H 0.66966 0.0597 0.34378 0.0
C3339 C 0.70836 0.95533 0.38487 0.0
C3340 C 0.67915 0.98886 0.35015 0.0
H3341 H 0.6901 0.0309 0.32496 0.0
C3342 C 0.65868 0.99142 0.35081 0.0
C3343 C 0.69053 1.00324 0.3404 0.0
C3344 C 0.71242 1.00112 0.33827 0.0
C3345 C 0.64941 0.00798 0.34257 0.0
C3346 C 0.66078 0.02244 0.33295 0.0
C3347 C 0.68125 0.01984 0.33214 0.0
C3348 C 0.65191 0.0411 0.3252 0.0
C3349 C 0.62753 0.01018 0.34495 0.0
C3350 C 0.63685 0.04116 0.31096 0.0
C3351 C 0.62744 0.05878 0.30549 0.0
C3352 C 0.63289 0.0767 0.31419 0.0
C3353 C 0.64869 0.07661 0.32758 0.0
C3354 C 0.65806 0.05916 0.33292 0.0
H3355 H 0.62163 1.00022 0.3564 0.0
H3356 H 0.62363 0.02548 0.34892 0.0
H3357 H 0.62021 1.00654 0.33086 0.0
H3358 H 0.63203 0.02752 0.3044 0.0
H3359 H 0.61532 0.05824 0.29524 0.0
H3360 H 0.95983 0.6178 0.29456 0.0
H3361 H 0.99022 0.63453 0.30474 0.0
H3362 H 0.95616 0.67674 0.33722 0.0
H3363 H 0.92608 0.65983 0.32761 0.0
H3364 H 1.00666 0.67164 0.30269 0.0
H3365 H 0.98988 0.65477 0.38033 0.0
H3366 H 0.97615 0.64431 0.36026 0.0
H3367 H 0.97099 0.66881 0.36865 0.0
C3368 C 0.95883 0.63101 0.30336 0.0
C3369 C 0.94047 0.63752 0.31016 0.0
C3370 C 0.97625 0.64048 0.30938 0.0
C3371 C 0.97568 0.65666 0.32232 0.0
C3372 C 0.95722 0.664 0.32779 0.0
H3373 H 0.06617 0.72088 0.39021 0.0
H3374 H 0.03553 0.71226 0.37298 0.0
C3375 C 0.93994 0.65445 0.32201 0.0
C3376 C 0.99415 0.66528 0.33094 0.0
H3377 H 0.01697 0.67566 0.37467 0.0
C3378 C 0.00888 0.67247 0.31843 0.0
C3379 C 0.9973 0.66646 0.35153 0.0
C3380 C 0.98285 0.65801 0.36598 0.0
C3381 C 0.02632 0.68094 0.32587 0.0
C3382 C 0.02941 0.68212 0.34645 0.0
C3383 C 0.01464 0.67506 0.35893 0.0
C3384 C 0.04838 0.68917 0.35535 0.0
C3385 C 0.0412 0.68878 0.31155 0.0
C3386 C 0.06598 0.67936 0.35115 0.0
C3387 C 0.08338 0.68424 0.36097 0.0
C3388 C 0.08389 0.69916 0.37533 0.0
C3389 C 0.06646 0.70958 0.37903 0.0
C3390 C 0.04888 0.70451 0.36928 0.0
H3391 H 0.03435 0.69246 0.29723 0.0
H3392 H 0.04857 0.70206 0.31744 0.0
H3393 H 0.05252 0.67742 0.30886 0.0
H3394 H 0.06612 0.66725 0.34086 0.0
H3395 H 0.0964 0.67576 0.35777 0.0
H3396 H 0.3606 0.92097 0.33595 0.0
H3397 H 0.34397 0.95096 0.34594 0.0
H3398 H 0.37856 0.98392 0.30468 0.0
H3399 H 0.39555 0.9536 0.29469 0.0
H3400 H 0.37959 0.99992 0.34179 0.0
H3401 H 0.30213 0.98564 0.3227 0.0
H3402 H 0.3127 0.96628 0.33699 0.0
H3403 H 0.32201 0.97124 0.31279 0.0
C3404 C 0.36432 0.93449 0.32853 0.0
C3405 C 0.37932 0.93475 0.31432 0.0
C3406 C 0.35469 0.95173 0.33427 0.0
C3407 C 0.35971 0.96988 0.326 0.0
C3408 C 0.37422 0.97015 0.31124 0.0
H3409 H 0.33392 0.09072 0.3613 0.0
H3410 H 0.34296 0.06116 0.34321 0.0
C3411 C 0.38381 0.95275 0.30534 0.0
C3412 C 0.35117 0.98853 0.33424 0.0
H3413 H 0.30794 0.01156 0.34582 0.0
C3414 C 0.36392 1.00254 0.3424 0.0
C3415 C 0.33069 0.99202 0.33542 0.0
C3416 C 0.31609 0.97809 0.32634 0.0
C3417 C 0.35687 0.01947 0.35203 0.0
C3418 C 0.33638 0.02296 0.35326 0.0
C3419 C 0.3236 0.00902 0.34501 0.0
C3420 C 0.3282 0.04113 0.36282 0.0
C3421 C 0.37154 0.03316 0.36141 0.0
C3422 C 0.31562 0.04011 0.37922 0.0
C3423 C 0.31003 0.05725 0.38948 0.0
C3424 C 0.31691 0.07574 0.38351 0.0
C3425 C 0.32838 0.07674 0.36636 0.0
C3426 C 0.33377 0.05976 0.35609 0.0
H3427 H 0.38578 0.02575 0.36417 0.0
H3428 H 0.37432 0.04566 0.3514 0.0
H3429 H 0.36596 0.03906 0.37553 0.0
H3430 H 0.31093 0.02598 0.38469 0.0
H3431 H 0.30145 0.05589 0.40277 0.0
H3432 H 0.94455 0.71756 0.628 0.0
H3433 H 0.9746 0.70524 0.64403 0.0
H3434 H 0.94097 0.66003 0.67237 0.0
H3435 H 0.91123 0.67215 0.65666 0.0
H3436 H 0.98451 0.69418 0.68809 0.0
H3437 H 0.983 0.63207 0.63516 0.0
H3438 H 0.97032 0.65486 0.6306 0.0
H3439 H 0.96036 0.63744 0.64757 0.0
C3440 C 0.94348 0.70543 0.63816 0.0
C3441 C 0.92539 0.6959 0.641 0.0
C3442 C 0.96071 0.69828 0.64723 0.0
C3443 C 0.96016 0.6815 0.65928 0.0
C3444 C 0.94191 0.67285 0.66306 0.0
H3445 H 0.04871 0.61678 0.72873 0.0
H3446 H 0.01972 0.63586 0.71863 0.0
C3447 C 0.92484 0.67989 0.65406 0.0
C3448 C 0.97853 0.67181 0.66662 0.0
H3449 H 1.00637 0.63042 0.66064 0.0
C3450 C 0.98933 0.68028 0.68206 0.0
C3451 C 0.98492 0.65364 0.65881 0.0
C3452 C 0.97419 0.64394 0.64203 0.0
C3453 C 1.00612 0.67094 0.68996 0.0
C3454 C 0.01232 0.65261 0.68231 0.0
C3455 C 1.00163 0.64434 0.6667 0.0
C3456 C 0.0304 0.64217 0.68942 0.0
C3457 C 0.01736 0.68086 0.70623 0.0
C3458 C 0.04617 0.63931 0.67653 0.0
C3459 C 0.06271 0.62856 0.68228 0.0
C3460 C 0.06401 0.61999 0.70107 0.0
C3461 C 0.04834 0.62312 0.71418 0.0
C3462 C 0.03173 0.6341 0.70842 0.0
H3463 H 0.01273 0.69634 0.70831 0.0
H3464 H 0.01484 0.67287 0.72016 0.0
H3465 H 0.03333 0.68051 0.70312 0.0
H3466 H 0.04562 0.6453 0.66182 0.0
H3467 H 0.07438 0.62669 0.6717 0.0
H3468 H 0.33504 0.9233 0.65733 0.0
H3469 H 0.34358 0.95344 0.67455 0.0
H3470 H 0.30318 0.98567 0.63822 0.0
H3471 H 0.29461 0.95519 0.62064 0.0
H3472 H 0.34014 1.00251 0.63932 0.0
H3473 H 0.31706 0.98717 0.71551 0.0
H3474 H 0.33224 0.96818 0.70548 0.0
H3475 H 0.30852 0.97285 0.69489 0.0
C3476 C 0.32751 0.93669 0.65329 0.0
C3477 C 0.31394 0.93669 0.63767 0.0
C3478 C 0.3324 0.954 0.66327 0.0
C3479 C 0.32394 0.972 0.65799 0.0
C3480 C 0.30986 0.97201 0.64277 0.0
H3481 H 0.35586 0.09328 0.68686 0.0
H3482 H 0.33871 0.06365 0.67634 0.0
C3483 C 0.30478 0.95453 0.63283 0.0
C3484 C 0.33122 0.99076 0.66716 0.0
H3485 H 0.33975 0.01363 0.7113 0.0
C3486 C 0.33978 1.00502 0.65504 0.0
C3487 C 0.33113 0.99409 0.68775 0.0
C3488 C 0.32158 0.97985 0.70166 0.0
C3489 C 0.34863 0.02207 0.66282 0.0
C3490 C 0.34858 0.02542 0.68342 0.0
C3491 C 0.3399 0.01122 0.69556 0.0
C3492 C 0.35734 0.04365 0.69239 0.0
C3493 C 0.3586 0.03599 0.64885 0.0
C3494 C 0.37277 0.04267 0.70618 0.0
C3495 C 0.38242 0.05984 0.71265 0.0
C3496 C 0.37682 0.07834 0.70547 0.0
C3497 C 0.36058 0.0793 0.69272 0.0
C3498 C 0.35088 0.06228 0.68646 0.0
H3499 H 0.36239 0.0287 0.63475 0.0
H3500 H 0.34854 0.04832 0.64549 0.0
H3501 H 0.37221 0.04212 0.65536 0.0
H3502 H 0.37801 0.02855 0.71117 0.0
H3503 H 0.39506 0.0585 0.72218 0.0
H3504 H 0.95121 0.37735 0.73382 0.0
H3505 H 0.98259 0.36043 0.72688 0.0
H3506 H 0.97723 0.37549 0.66577 0.0
H3507 H 0.94655 0.39206 0.67234 0.0
H3508 H 0.99067 0.32787 0.69661 0.0
H3509 H 0.03245 0.39606 0.68308 0.0
H3510 H 0.00972 0.39584 0.69663 0.0
H3511 H 0.00946 0.39493 0.67026 0.0
C3512 C 0.9568 0.3771 0.71895 0.0
C3513 C 0.94613 0.3861 0.70371 0.0
C3514 C 0.97469 0.36733 0.71496 0.0
C3515 C 0.98239 0.36668 0.69574 0.0
C3516 C 0.97179 0.37578 0.6807 0.0
H3517 H 0.06726 0.29935 0.62803 0.0
H3518 H 0.03791 0.30983 0.64612 0.0
C3519 C 0.95405 0.38527 0.68458 0.0
C3520 C 1.00152 0.35689 0.69085 0.0
H3521 H 0.04628 0.36655 0.67045 0.0
C3522 C 1.00298 0.33632 0.6912 0.0
C3523 C 0.01768 0.36779 0.68377 0.0
C3524 C 0.0174 0.38989 0.68354 0.0
C3525 C 0.01981 0.32646 0.68407 0.0
C3526 C 0.0356 0.33738 0.67605 0.0
C3527 C 0.03431 0.35797 0.67641 0.0
C3528 C 0.05353 0.32809 0.66698 0.0
C3529 C 0.0205 0.30441 0.68528 0.0
C3530 C 0.07234 0.33443 0.67263 0.0
C3531 C 0.08905 0.32852 0.66219 0.0
C3532 C 0.08759 0.3159 0.6459 0.0
C3533 C 0.06898 0.30856 0.64089 0.0
C3534 C 0.05213 0.31467 0.65124 0.0
H3535 H 0.01077 0.29884 0.69709 0.0
H3536 H 0.01532 0.29812 0.67117 0.0
H3537 H 0.03563 0.29911 0.68804 0.0
H3538 H 0.07404 0.34474 0.68462 0.0
H3539 H 0.1031 0.33472 0.66624 0.0
H3540 H 0.65883 0.9198 0.68328 0.0
H3541 H 0.67499 0.94925 0.67116 0.0
H3542 H 0.63042 0.98491 0.69831 0.0
H3543 H 0.61423 0.95516 0.71074 0.0
H3544 H 0.65882 0.97362 0.64495 0.0
H3545 H 0.67943 0.01657 0.71094 0.0
H3546 H 0.67286 0.99096 0.71214 0.0
H3547 H 0.65412 0.00939 0.71034 0.0
C3548 C 0.65274 0.93392 0.68718 0.0
C3549 C 0.63527 0.93505 0.69811 0.0
C3550 C 0.66198 0.95083 0.68013 0.0
C3551 C 0.65407 0.9695 0.68372 0.0
C3552 C 0.63713 0.9708 0.69555 0.0
H3553 H 0.66247 0.07281 0.61241 0.0
H3554 H 0.65411 0.04323 0.6304 0.0
C3555 C 0.62788 0.95375 0.70276 0.0
C3556 C 0.66248 0.98705 0.67336 0.0
H3557 H 0.68144 0.03316 0.68012 0.0
C3558 C 0.6639 0.98653 0.65275 0.0
C3559 C 0.66933 1.00399 0.68334 0.0
C3560 C 0.66906 1.00528 0.70542 0.0
C3561 C 0.67139 1.00245 0.64194 0.0
C3562 C 0.67764 0.0196 0.65184 0.0
C3563 C 0.67672 0.02004 0.67247 0.0
C3564 C 0.68349 0.03767 0.64079 0.0
C3565 C 0.67241 1.00089 0.61988 0.0
C3566 C 0.70297 0.04456 0.64043 0.0
C3567 C 0.70797 0.06164 0.62983 0.0
C3568 C 0.69349 0.07231 0.61967 0.0
C3569 C 0.67409 0.06514 0.62005 0.0
C3570 C 0.66921 0.04813 0.63037 0.0
H3571 H 0.67127 0.98545 0.61479 0.0
H3572 H 0.66011 0.00929 0.61335 0.0
H3573 H 0.68632 0.00723 0.61432 0.0
H3574 H 0.71429 0.03674 0.64834 0.0
H3575 H 0.72298 0.06678 0.63004 0.0
H3576 H 0.29279 0.38871 0.95153 0.0
H3577 H 0.30243 0.37147 0.9818 0.0
H3578 H 0.34913 0.34262 0.95049 0.0
H3579 H 0.33941 0.35933 0.92045 0.0
H3580 H 0.33275 0.31786 0.97711 0.0
H3581 H 0.35013 0.38899 0.01282 0.0
H3582 H 0.32512 0.38648 1.00502 0.0
H3583 H 0.34439 0.38708 0.98706 0.0
C3584 C 0.30473 0.37825 0.95101 0.0
C3585 C 0.31533 0.37549 0.93352 0.0
C3586 C 0.31046 0.36861 0.96841 0.0
C3587 C 0.3269 0.35603 0.96867 0.0
C3588 C 0.33654 0.35229 0.95088 0.0
H3589 H 0.40343 0.29891 0.05591 0.0
H3590 H 0.38624 0.30774 0.02535 0.0
C3591 C 0.33091 0.3619 0.93362 0.0
C3592 C 0.33498 0.34763 0.98741 0.0
H3593 H 0.35525 0.36055 0.03158 0.0
C3594 C 0.33758 0.32721 0.98906 0.0
C3595 C 0.34159 0.35973 1.00302 0.0
C3596 C 0.34037 0.38179 1.00192 0.0
C3597 C 0.34624 0.31863 1.00585 0.0
C3598 C 0.35287 0.33075 0.02142 0.0
C3599 C 0.35019 0.35115 0.01977 0.0
C3600 C 0.36229 0.32286 0.03976 0.0
C3601 C 0.34787 0.29663 1.00689 0.0
C3602 C 0.35461 0.32805 0.05815 0.0
C3603 C 0.36443 0.3231 0.0755 0.0
C3604 C 0.38228 0.31272 0.0751 0.0
C3605 C 0.38955 0.30655 0.05679 0.0
C3606 C 0.37971 0.31167 0.03927 0.0
H3607 H 0.33753 0.28932 0.99661 0.0
H3608 H 0.36296 0.29219 1.00276 0.0
H3609 H 0.34495 0.29128 0.02198 0.0
H3610 H 0.34124 0.33657 0.05911 0.0
H3611 H 0.3584 0.32815 0.08932 0.0
H3612 H 0.39883 0.71403 0.95368 0.0
H3613 H 0.38222 0.70308 0.98388 0.0
H3614 H 0.34448 0.66584 0.94942 0.0
H3615 H 0.36111 0.67629 0.91962 0.0
H3616 H 0.34396 0.70271 0.99826 0.0
H3617 H 0.36841 0.62626 0.98615 0.0
H3618 H 0.37793 0.6465 0.9721 0.0
H3619 H 0.3546 0.63581 0.96591 0.0
C3620 C 0.38674 0.70381 0.95254 0.0
C3621 C 0.38146 0.69597 0.93414 0.0
C3622 C 0.37731 0.69742 0.96986 0.0
C3623 C 0.36239 0.68309 0.96914 0.0
C3624 C 0.35631 0.67635 0.95062 0.0
H3625 H 0.29762 0.61452 0.05836 0.0
H3626 H 0.30739 0.63062 0.02748 0.0
C3627 C 0.36578 0.68253 0.93347 0.0
C3628 C 0.35355 0.67463 0.98754 0.0
H3629 H 0.34523 0.63127 0.01157 0.0
C3630 C 0.34433 0.6871 1.00117 0.0
C3631 C 0.35385 0.65419 0.99152 0.0
C3632 C 0.36439 0.63993 0.97826 0.0
C3633 C 0.33527 0.67974 0.01831 0.0
C3634 C 0.33558 0.65931 0.02225 0.0
C3635 C 0.3447 0.64686 0.00858 0.0
C3636 C 0.32791 0.65071 0.04109 0.0
C3637 C 0.32516 0.69396 0.03193 0.0
C3638 C 0.33592 0.6566 0.05914 0.0
C3639 C 0.33039 0.64744 0.07667 0.0
C3640 C 0.31662 0.63201 0.07686 0.0
C3641 C 0.30802 0.62649 0.05888 0.0
C3642 C 0.31375 0.63562 0.04118 0.0
H3643 H 0.32077 0.70756 0.02414 0.0
H3644 H 0.31194 0.68729 0.03865 0.0
H3645 H 0.3354 0.69815 0.04388 0.0
H3646 H 0.34712 0.66784 0.05964 0.0
H3647 H 0.33744 0.65212 0.09012 0.0
H3648 H 0.62356 0.29114 0.95404 0.0
H3649 H 0.64055 0.30026 0.98468 0.0
H3650 H 0.67297 0.34457 0.95356 0.0
H3651 H 0.65639 0.33542 0.92318 0.0
H3652 H 0.69614 0.32634 0.98118 0.0
H3653 H 0.62582 0.34987 0.01471 0.0
H3654 H 0.62657 0.32469 1.00704 0.0
H3655 H 0.62793 0.34384 0.98902 0.0
C3656 C 0.6347 0.30244 0.95365 0.0
C3657 C 0.63854 0.31252 0.93607 0.0
C3658 C 0.64423 0.30788 0.97126 0.0
C3659 C 0.65782 0.32349 0.97167 0.0
C3660 C 0.66253 0.33262 0.95385 0.0
H3661 H 0.72004 0.39627 0.05898 0.0
H3662 H 0.7104 0.37897 0.02873 0.0
C3663 C 0.65299 0.32731 0.93639 0.0
C3664 C 0.66642 0.33121 0.99055 0.0
H3665 H 0.65415 0.35324 0.03407 0.0
C3666 C 0.68693 0.33213 0.99279 0.0
C3667 C 0.65456 0.33902 1.00575 0.0
C3668 C 0.63251 0.33952 1.00404 0.0
C3669 C 0.6958 0.34027 0.00974 0.0
C3670 C 0.68392 0.3482 0.02488 0.0
C3671 C 0.66341 0.34719 0.02263 0.0
C3672 C 0.69215 0.35744 0.04328 0.0
C3673 C 0.71783 0.33992 0.0114 0.0
C3674 C 0.68544 0.35122 0.06174 0.0
C3675 C 0.69085 0.36116 0.07893 0.0
C3676 C 0.70329 0.37763 0.07836 0.0
C3677 C 0.71089 0.38335 0.06005 0.0
C3678 C 0.70527 0.37345 0.04269 0.0
H3679 H 0.72435 0.32845 1.00182 0.0
H3680 H 0.72375 0.3543 1.00668 0.0
H3681 H 0.72256 0.33725 0.02675 0.0
H3682 H 0.67539 0.33898 0.06282 0.0
H3683 H 0.68455 0.35645 0.09273 0.0
H3684 H 0.72184 0.61726 0.9568 0.0
H3685 H 0.71329 0.63419 0.98764 0.0
H3686 H 0.6706 0.66897 0.9567 0.0
H3687 H 0.67914 0.65241 0.92614 0.0
H3688 H 0.69035 0.69095 0.98481 0.0
H3689 H 0.66252 0.62164 0.01704 0.0
H3690 H 0.68769 0.62111 0.00937 0.0
H3691 H 0.66861 0.62382 0.99138 0.0
C3692 C 0.71101 0.62886 0.95651 0.0
C3693 C 0.70118 0.63338 0.93891 0.0
C3694 C 0.7059 0.63838 0.97422 0.0
C3695 C 0.69093 0.65267 0.97472 0.0
C3696 C 0.68207 0.65799 0.95691 0.0
H3697 H 0.62097 0.71838 0.0614 0.0
H3698 H 0.63828 0.70795 0.03149 0.0
C3699 C 0.68702 0.64844 0.93936 0.0
C3700 C 0.68359 0.66145 0.99364 0.0
H3701 H 0.66029 0.64992 0.0366 0.0
C3702 C 0.68389 0.68195 0.99619 0.0
C3703 C 0.67493 0.64987 0.00854 0.0
C3704 C 0.6732 0.62791 1.00648 0.0
C3705 C 0.67609 0.69105 0.01317 0.0
C3706 C 0.66722 0.67946 0.02798 0.0
C3707 C 0.66706 0.65896 0.02543 0.0
C3708 C 0.6581 0.688 0.04629 0.0
C3709 C 0.67779 0.71299 0.01518 0.0
C3710 C 0.66334 0.68058 0.0648 0.0
C3711 C 0.65335 0.68642 0.08181 0.0
C3712 C 0.63784 0.70003 0.081 0.0
C3713 C 0.63316 0.70829 0.06267 0.0
C3714 C 0.64307 0.70223 0.0455 0.0
H3715 H 0.68993 0.71887 1.00606 0.0
H3716 H 0.66398 0.71989 0.01008 0.0
H3717 H 0.68032 0.71737 0.03068 0.0
H3718 H 0.67481 0.66967 0.06604 0.0
H3719 H 0.65726 0.6796 0.09562 0.0
loop_
_geom_bond_atom_site_label_1
_geom_bond_atom_site_label_2
_geom_bond_distance
_geom_bond_site_symmetry_2
_ccdc_geom_bond_type
O0 Tb1 2.292 . S
O0 C3 1.255 . S
Tb1 O0 2.292 . S
Tb1 O17 2.326 . S
Tb1 O19 2.500 . S
Tb1 O20 2.473 . S
Tb1 O23 2.324 . S
Eu2 O6 2.292 . S
Eu2 C7 2.852 . S
Eu2 O18 2.324 . S
Eu2 O22 2.326 . S
Eu2 O24 2.500 . S
Eu2 O25 2.473 . S
C3 O0 1.255 . S
C3 O4 1.247 . S
O4 C3 1.247 . S
C5 O17 1.242 . S
C5 O18 1.258 . S
O6 Eu2 2.292 . S
O6 C8 1.255 . S
C7 Eu2 2.852 . S
C7 C11 1.503 . S
C7 O24 1.273 . S
C7 O25 1.257 . S
C8 O6 1.255 . S
C8 O9 1.247 . S
O9 C8 1.247 . S
C10 O22 1.242 . S
C10 O23 1.258 . S
C11 C7 1.503 . S
C11 C12 1.379 . S
C11 C16 1.392 . S
C12 C11 1.379 . S
C12 C13 1.404 . S
C12 H26 0.929 . S
C13 C12 1.404 . S
C13 C14 1.389 . S
C14 C13 1.389 . S
C14 C15 1.399 . S
C14 H27 0.931 . S
C15 C14 1.399 . S
C15 C16 1.390 . S
C16 C11 1.392 . S
C16 C15 1.390 . S
C16 H28 0.929 . S
O17 Tb1 2.326 . S
O17 C5 1.242 . S
O18 Eu2 2.324 . S
O18 C5 1.258 . S
O19 Tb1 2.500 . S
O19 C21 1.273 . S
O20 Tb1 2.473 . S
O20 C21 1.257 . S
C21 O19 1.273 . S
C21 O20 1.257 . S
O22 Eu2 2.326 . S
O22 C10 1.242 . S
O23 Tb1 2.324 . S
O23 C10 1.258 . S
O24 Eu2 2.500 . S
O24 C7 1.273 . S
O25 Eu2 2.473 . S
O25 C7 1.257 . S
H26 C12 0.929 . S
H27 C14 0.931 . S
H28 C16 0.929 . S
O29 Tb30 2.292 . S
O29 C32 1.255 . S
Tb30 O29 2.292 . S
Tb30 O46 2.326 . S
Tb30 O48 2.500 . S
Tb30 O49 2.473 . S
Tb30 O52 2.324 . S
Eu31 O35 2.292 . S
Eu31 C36 2.852 . S
Eu31 O47 2.324 . S
Eu31 O51 2.326 . S
Eu31 O53 2.500 . S
Eu31 O54 2.473 . S
C32 O29 1.255 . S
C32 O33 1.247 . S
O33 C32 1.247 . S
C34 O46 1.242 . S
C34 O47 1.258 . S
O35 Eu31 2.292 . S
O35 C37 1.255 . S
C36 Eu31 2.852 . S
C36 C40 1.503 . S
C36 O53 1.273 . S
C36 O54 1.257 . S
C37 O35 1.255 . S
C37 O38 1.247 . S
O38 C37 1.247 . S
C39 O51 1.242 . S
C39 O52 1.258 . S
C40 C36 1.503 . S
C40 C41 1.379 . S
C40 C45 1.392 . S
C41 C40 1.379 . S
C41 C42 1.404 . S
C41 H55 0.929 . S
C42 C41 1.404 . S
C42 C43 1.389 . S
C43 C42 1.389 . S
C43 C44 1.399 . S
C43 H56 0.931 . S
C44 C43 1.399 . S
C44 C45 1.390 . S
C45 C40 1.392 . S
C45 C44 1.390 . S
C45 H57 0.929 . S
O46 Tb30 2.326 . S
O46 C34 1.242 . S
O47 Eu31 2.324 . S
O47 C34 1.258 . S
O48 Tb30 2.500 . S
O48 C50 1.273 . S
O49 Tb30 2.473 . S
O49 C50 1.257 . S
C50 O48 1.273 . S
C50 O49 1.257 . S
O51 Eu31 2.326 . S
O51 C39 1.242 . S
O52 Tb30 2.324 . S
O52 C39 1.258 . S
O53 Eu31 2.500 . S
O53 C36 1.273 . S
O54 Eu31 2.473 . S
O54 C36 1.257 . S
H55 C41 0.929 . S
H56 C43 0.931 . S
H57 C45 0.929 . S
O58 Tb59 2.292 . S
O58 C61 1.255 . S
Tb59 O58 2.292 . S
Tb59 O75 2.326 . S
Tb59 O77 2.500 . S
Tb59 O78 2.473 . S
Tb59 O81 2.324 . S
Eu60 O64 2.292 . S
Eu60 C65 2.852 . S
Eu60 O76 2.324 . S
Eu60 O80 2.326 . S
Eu60 O82 2.500 . S
Eu60 O83 2.473 . S
C61 O58 1.255 . S
C61 O62 1.247 . S
O62 C61 1.247 . S
C63 O75 1.242 . S
C63 O76 1.258 . S
O64 Eu60 2.292 . S
O64 C66 1.255 . S
C65 Eu60 2.852 . S
C65 C69 1.503 . S
C65 O82 1.273 . S
C65 O83 1.257 . S
C66 O64 1.255 . S
C66 O67 1.247 . S
O67 C66 1.247 . S
C68 O80 1.242 . S
C68 O81 1.258 . S
C69 C65 1.503 . S
C69 C70 1.379 . S
C69 C74 1.392 . S
C70 C69 1.379 . S
C70 C71 1.404 . S
C70 H84 0.929 . S
C71 C70 1.404 . S
C71 C72 1.389 . S
C72 C71 1.389 . S
C72 C73 1.399 . S
C72 H85 0.931 . S
C73 C72 1.399 . S
C73 C74 1.390 . S
C74 C69 1.392 . S
C74 C73 1.390 . S
C74 H86 0.929 . S
O75 Tb59 2.326 . S
O75 C63 1.242 . S
O76 Eu60 2.324 . S
O76 C63 1.258 . S
O77 Tb59 2.500 . S
O77 C79 1.273 . S
O78 Tb59 2.473 . S
O78 C79 1.257 . S
C79 O77 1.273 . S
C79 O78 1.257 . S
O80 Eu60 2.326 . S
O80 C68 1.242 . S
O81 Tb59 2.324 . S
O81 C68 1.258 . S
O82 Eu60 2.500 . S
O82 C65 1.273 . S
O83 Eu60 2.473 . S
O83 C65 1.257 . S
H84 C70 0.929 . S
H85 C72 0.931 . S
H86 C74 0.929 . S
O87 Tb88 2.292 . S
O87 C90 1.255 . S
Tb88 O87 2.292 . S
Tb88 O104 2.326 . S
Tb88 O106 2.500 . S
Tb88 O107 2.473 . S
Tb88 O110 2.324 . S
Eu89 O93 2.292 . S
Eu89 C94 2.852 . S
Eu89 O105 2.324 . S
Eu89 O109 2.326 . S
Eu89 O111 2.500 . S
Eu89 O112 2.473 . S
C90 O87 1.255 . S
C90 O91 1.247 . S
O91 C90 1.247 . S
C92 O104 1.242 . S
C92 O105 1.258 . S
O93 Eu89 2.292 . S
O93 C95 1.255 . S
C94 Eu89 2.852 . S
C94 C98 1.503 . S
C94 O111 1.273 . S
C94 O112 1.257 . S
C95 O93 1.255 . S
C95 O96 1.247 . S
O96 C95 1.247 . S
C97 O109 1.242 . S
C97 O110 1.258 . S
C98 C94 1.503 . S
C98 C99 1.379 . S
C98 C103 1.392 . S
C99 C98 1.379 . S
C99 C100 1.404 . S
C99 H113 0.929 . S
C100 C99 1.404 . S
C100 C101 1.389 . S
C101 C100 1.389 . S
C101 C102 1.399 . S
C101 H114 0.931 . S
C102 C101 1.399 . S
C102 C103 1.390 . S
C103 C98 1.392 . S
C103 C102 1.390 . S
C103 H115 0.929 . S
O104 Tb88 2.326 . S
O104 C92 1.242 . S
O105 Eu89 2.324 . S
O105 C92 1.258 . S
O106 Tb88 2.500 . S
O106 C108 1.273 . S
O107 Tb88 2.473 . S
O107 C108 1.257 . S
C108 O106 1.273 . S
C108 O107 1.257 . S
O109 Eu89 2.326 . S
O109 C97 1.242 . S
O110 Tb88 2.324 . S
O110 C97 1.258 . S
O111 Eu89 2.500 . S
O111 C94 1.273 . S
O112 Eu89 2.473 . S
O112 C94 1.257 . S
H113 C99 0.929 . S
H114 C101 0.931 . S
H115 C103 0.929 . S
O116 Tb117 2.292 . S
O116 C119 1.255 . S
Tb117 O116 2.292 . S
Tb117 O133 2.326 . S
Tb117 O135 2.500 . S
Tb117 O136 2.473 . S
Tb117 O139 2.324 . S
Eu118 O122 2.292 . S
Eu118 C123 2.852 . S
Eu118 O134 2.324 . S
Eu118 O138 2.326 . S
Eu118 O140 2.500 . S
Eu118 O141 2.473 . S
C119 O116 1.255 . S
C119 O120 1.247 . S
O120 C119 1.247 . S
C121 O133 1.242 . S
C121 O134 1.258 . S
O122 Eu118 2.292 . S
O122 C124 1.255 . S
C123 Eu118 2.852 . S
C123 C127 1.503 . S
C123 O140 1.273 . S
C123 O141 1.257 . S
C124 O122 1.255 . S
C124 O125 1.247 . S
O125 C124 1.247 . S
C126 O138 1.242 . S
C126 O139 1.258 . S
C127 C123 1.503 . S
C127 C128 1.379 . S
C127 C132 1.392 . S
C128 C127 1.379 . S
C128 C129 1.404 . S
C128 H142 0.929 . S
C129 C128 1.404 . S
C129 C130 1.389 . S
C130 C129 1.389 . S
C130 C131 1.399 . S
C130 H143 0.931 . S
C131 C130 1.399 . S
C131 C132 1.390 . S
C132 C127 1.392 . S
C132 C131 1.390 . S
C132 H144 0.929 . S
O133 Tb117 2.326 . S
O133 C121 1.242 . S
O134 Eu118 2.324 . S
O134 C121 1.258 . S
O135 Tb117 2.500 . S
O135 C137 1.273 . S
O136 Tb117 2.473 . S
O136 C137 1.257 . S
C137 O135 1.273 . S
C137 O136 1.257 . S
O138 Eu118 2.326 . S
O138 C126 1.242 . S
O139 Tb117 2.324 . S
O139 C126 1.258 . S
O140 Eu118 2.500 . S
O140 C123 1.273 . S
O141 Eu118 2.473 . S
O141 C123 1.257 . S
H142 C128 0.929 . S
H143 C130 0.931 . S
H144 C132 0.929 . S
O145 Tb146 2.292 . S
O145 C148 1.255 . S
Tb146 O145 2.292 . S
Tb146 O162 2.326 . S
Tb146 O164 2.500 . S
Tb146 O165 2.473 . S
Tb146 O168 2.324 . S
Eu147 O151 2.292 . S
Eu147 C152 2.852 . S
Eu147 O163 2.324 . S
Eu147 O167 2.326 . S
Eu147 O169 2.500 . S
Eu147 O170 2.473 . S
C148 O145 1.255 . S
C148 O149 1.247 . S
O149 C148 1.247 . S
C150 O162 1.242 . S
C150 O163 1.258 . S
O151 Eu147 2.292 . S
O151 C153 1.255 . S
C152 Eu147 2.852 . S
C152 C156 1.503 . S
C152 O169 1.273 . S
C152 O170 1.257 . S
C153 O151 1.255 . S
C153 O154 1.247 . S
O154 C153 1.247 . S
C155 O167 1.242 . S
C155 O168 1.258 . S
C156 C152 1.503 . S
C156 C157 1.379 . S
C156 C161 1.392 . S
C157 C156 1.379 . S
C157 C158 1.404 . S
C157 H171 0.929 . S
C158 C157 1.404 . S
C158 C159 1.389 . S
C159 C158 1.389 . S
C159 C160 1.399 . S
C159 H172 0.931 . S
C160 C159 1.399 . S
C160 C161 1.390 . S
C161 C156 1.392 . S
C161 C160 1.390 . S
C161 H173 0.929 . S
O162 Tb146 2.326 . S
O162 C150 1.242 . S
O163 Eu147 2.324 . S
O163 C150 1.258 . S
O164 Tb146 2.500 . S
O164 C166 1.273 . S
O165 Tb146 2.473 . S
O165 C166 1.257 . S
C166 O164 1.273 . S
C166 O165 1.257 . S
O167 Eu147 2.326 . S
O167 C155 1.242 . S
O168 Tb146 2.324 . S
O168 C155 1.258 . S
O169 Eu147 2.500 . S
O169 C152 1.273 . S
O170 Eu147 2.473 . S
O170 C152 1.257 . S
H171 C157 0.929 . S
H172 C159 0.931 . S
H173 C161 0.929 . S
O174 Tb175 2.292 . S
O174 C177 1.255 . S
Tb175 O174 2.292 . S
Tb175 O191 2.326 . S
Tb175 O193 2.500 . S
Tb175 O194 2.473 . S
Tb175 O197 2.324 . S
Eu176 O180 2.292 . S
Eu176 C181 2.852 . S
Eu176 O192 2.324 . S
Eu176 O196 2.326 . S
Eu176 O198 2.500 . S
Eu176 O199 2.473 . S
C177 O174 1.255 . S
C177 O178 1.247 . S
O178 C177 1.247 . S
C179 O191 1.242 . S
C179 O192 1.258 . S
O180 Eu176 2.292 . S
O180 C182 1.255 . S
C181 Eu176 2.852 . S
C181 C185 1.503 . S
C181 O198 1.273 . S
C181 O199 1.257 . S
C182 O180 1.255 . S
C182 O183 1.247 . S
O183 C182 1.247 . S
C184 O196 1.242 . S
C184 O197 1.258 . S
C185 C181 1.503 . S
C185 C186 1.379 . S
C185 C190 1.392 . S
C186 C185 1.379 . S
C186 C187 1.404 . S
C186 H200 0.929 . S
C187 C186 1.404 . S
C187 C188 1.389 . S
C188 C187 1.389 . S
C188 C189 1.399 . S
C188 H201 0.931 . S
C189 C188 1.399 . S
C189 C190 1.390 . S
C190 C185 1.392 . S
C190 C189 1.390 . S
C190 H202 0.929 . S
O191 Tb175 2.326 . S
O191 C179 1.242 . S
O192 Eu176 2.324 . S
O192 C179 1.258 . S
O193 Tb175 2.500 . S
O193 C195 1.273 . S
O194 Tb175 2.473 . S
O194 C195 1.257 . S
C195 O193 1.273 . S
C195 O194 1.257 . S
O196 Eu176 2.326 . S
O196 C184 1.242 . S
O197 Tb175 2.324 . S
O197 C184 1.258 . S
O198 Eu176 2.500 . S
O198 C181 1.273 . S
O199 Eu176 2.473 . S
O199 C181 1.257 . S
H200 C186 0.929 . S
H201 C188 0.931 . S
H202 C190 0.929 . S
O203 Tb204 2.292 . S
O203 C206 1.255 . S
Tb204 O203 2.292 . S
Tb204 O220 2.326 . S
Tb204 O222 2.500 . S
Tb204 O223 2.473 . S
Tb204 O226 2.324 . S
Eu205 O209 2.292 . S
Eu205 C210 2.852 . S
Eu205 O221 2.324 . S
Eu205 O225 2.326 . S
Eu205 O227 2.500 . S
Eu205 O228 2.473 . S
C206 O203 1.255 . S
C206 O207 1.247 . S
O207 C206 1.247 . S
C208 O220 1.242 . S
C208 O221 1.258 . S
O209 Eu205 2.292 . S
O209 C211 1.255 . S
C210 Eu205 2.852 . S
C210 C214 1.503 . S
C210 O227 1.273 . S
C210 O228 1.257 . S
C211 O209 1.255 . S
C211 O212 1.247 . S
O212 C211 1.247 . S
C213 O225 1.242 . S
C213 O226 1.258 . S
C214 C210 1.503 . S
C214 C215 1.379 . S
C214 C219 1.392 . S
C215 C214 1.379 . S
C215 C216 1.404 . S
C215 H229 0.929 . S
C216 C215 1.404 . S
C216 C217 1.389 . S
C217 C216 1.389 . S
C217 C218 1.399 . S
C217 H230 0.931 . S
C218 C217 1.399 . S
C218 C219 1.390 . S
C219 C214 1.392 . S
C219 C218 1.390 . S
C219 H231 0.929 . S
O220 Tb204 2.326 . S
O220 C208 1.242 . S
O221 Eu205 2.324 . S
O221 C208 1.258 . S
O222 Tb204 2.500 . S
O222 C224 1.273 . S
O223 Tb204 2.473 . S
O223 C224 1.257 . S
C224 O222 1.273 . S
C224 O223 1.257 . S
O225 Eu205 2.326 . S
O225 C213 1.242 . S
O226 Tb204 2.324 . S
O226 C213 1.258 . S
O227 Eu205 2.500 . S
O227 C210 1.273 . S
O228 Eu205 2.473 . S
O228 C210 1.257 . S
H229 C215 0.929 . S
H230 C217 0.931 . S
H231 C219 0.929 . S
O232 Tb233 2.292 . S
O232 C235 1.255 . S
Tb233 O232 2.292 . S
Tb233 O249 2.326 . S
Tb233 O251 2.500 . S
Tb233 O252 2.473 . S
Tb233 O255 2.324 . S
Eu234 O238 2.292 . S
Eu234 C239 2.852 . S
Eu234 O250 2.324 . S
Eu234 O254 2.326 . S
Eu234 O256 2.500 . S
Eu234 O257 2.473 . S
C235 O232 1.255 . S
C235 O236 1.247 . S
O236 C235 1.247 . S
C237 O249 1.242 . S
C237 O250 1.258 . S
O238 Eu234 2.292 . S
O238 C240 1.255 . S
C239 Eu234 2.852 . S
C239 C243 1.503 . S
C239 O256 1.273 . S
C239 O257 1.257 . S
C240 O238 1.255 . S
C240 O241 1.247 . S
O241 C240 1.247 . S
C242 O254 1.242 . S
C242 O255 1.258 . S
C243 C239 1.503 . S
C243 C244 1.379 . S
C243 C248 1.392 . S
C244 C243 1.379 . S
C244 C245 1.404 . S
C244 H258 0.929 . S
C245 C244 1.404 . S
C245 C246 1.389 . S
C246 C245 1.389 . S
C246 C247 1.399 . S
C246 H259 0.931 . S
C247 C246 1.399 . S
C247 C248 1.390 . S
C248 C243 1.392 . S
C248 C247 1.390 . S
C248 H260 0.929 . S
O249 Tb233 2.326 . S
O249 C237 1.242 . S
O250 Eu234 2.324 . S
O250 C237 1.258 . S
O251 Tb233 2.500 . S
O251 C253 1.273 . S
O252 Tb233 2.473 . S
O252 C253 1.257 . S
C253 O251 1.273 . S
C253 O252 1.257 . S
O254 Eu234 2.326 . S
O254 C242 1.242 . S
O255 Tb233 2.324 . S
O255 C242 1.258 . S
O256 Eu234 2.500 . S
O256 C239 1.273 . S
O257 Eu234 2.473 . S
O257 C239 1.257 . S
H258 C244 0.929 . S
H259 C246 0.931 . S
H260 C248 0.929 . S
O261 Tb262 2.292 . S
O261 C264 1.255 . S
Tb262 O261 2.292 . S
Tb262 O278 2.326 . S
Tb262 O280 2.500 . S
Tb262 O281 2.473 . S
Tb262 O284 2.324 . S
Eu263 O267 2.292 . S
Eu263 C268 2.852 . S
Eu263 O279 2.324 . S
Eu263 O283 2.326 . S
Eu263 O285 2.500 . S
Eu263 O286 2.473 . S
C264 O261 1.255 . S
C264 O265 1.247 . S
O265 C264 1.247 . S
C266 O278 1.242 . S
C266 O279 1.258 . S
O267 Eu263 2.292 . S
O267 C269 1.255 . S
C268 Eu263 2.852 . S
C268 C272 1.503 . S
C268 O285 1.273 . S
C268 O286 1.257 . S
C269 O267 1.255 . S
C269 O270 1.247 . S
O270 C269 1.247 . S
C271 O283 1.242 . S
C271 O284 1.258 . S
C272 C268 1.503 . S
C272 C273 1.379 . S
C272 C277 1.392 . S
C273 C272 1.379 . S
C273 C274 1.404 . S
C273 H287 0.929 . S
C274 C273 1.404 . S
C274 C275 1.389 . S
C275 C274 1.389 . S
C275 C276 1.399 . S
C275 H288 0.931 . S
C276 C275 1.399 . S
C276 C277 1.390 . S
C277 C272 1.392 . S
C277 C276 1.390 . S
C277 H289 0.929 . S
O278 Tb262 2.326 . S
O278 C266 1.242 . S
O279 Eu263 2.324 . S
O279 C266 1.258 . S
O280 Tb262 2.500 . S
O280 C282 1.273 . S
O281 Tb262 2.473 . S
O281 C282 1.257 . S
C282 O280 1.273 . S
C282 O281 1.257 . S
O283 Eu263 2.326 . S
O283 C271 1.242 . S
O284 Tb262 2.324 . S
O284 C271 1.258 . S
O285 Eu263 2.500 . S
O285 C268 1.273 . S
O286 Eu263 2.473 . S
O286 C268 1.257 . S
H287 C273 0.929 . S
H288 C275 0.931 . S
H289 C277 0.929 . S
O290 Tb291 2.292 . S
O290 C293 1.255 . S
Tb291 O290 2.292 . S
Tb291 O307 2.326 . S
Tb291 O309 2.500 . S
Tb291 O310 2.473 . S
Tb291 O313 2.324 . S
Eu292 O296 2.292 . S
Eu292 C297 2.852 . S
Eu292 O308 2.324 . S
Eu292 O312 2.326 . S
Eu292 O314 2.500 . S
Eu292 O315 2.473 . S
C293 O290 1.255 . S
C293 O294 1.247 . S
O294 C293 1.247 . S
C295 O307 1.242 . S
C295 O308 1.258 . S
O296 Eu292 2.292 . S
O296 C298 1.255 . S
C297 Eu292 2.852 . S
C297 C301 1.503 . S
C297 O314 1.273 . S
C297 O315 1.257 . S
C298 O296 1.255 . S
C298 O299 1.247 . S
O299 C298 1.247 . S
C300 O312 1.242 . S
C300 O313 1.258 . S
C301 C297 1.503 . S
C301 C302 1.379 . S
C301 C306 1.392 . S
C302 C301 1.379 . S
C302 C303 1.404 . S
C302 H316 0.929 . S
C303 C302 1.404 . S
C303 C304 1.389 . S
C304 C303 1.389 . S
C304 C305 1.399 . S
C304 H317 0.931 . S
C305 C304 1.399 . S
C305 C306 1.390 . S
C306 C301 1.392 . S
C306 C305 1.390 . S
C306 H318 0.929 . S
O307 Tb291 2.326 . S
O307 C295 1.242 . S
O308 Eu292 2.324 . S
O308 C295 1.258 . S
O309 Tb291 2.500 . S
O309 C311 1.273 . S
O310 Tb291 2.473 . S
O310 C311 1.257 . S
C311 O309 1.273 . S
C311 O310 1.257 . S
O312 Eu292 2.326 . S
O312 C300 1.242 . S
O313 Tb291 2.324 . S
O313 C300 1.258 . S
O314 Eu292 2.500 . S
O314 C297 1.273 . S
O315 Eu292 2.473 . S
O315 C297 1.257 . S
H316 C302 0.929 . S
H317 C304 0.931 . S
H318 C306 0.929 . S
O319 Tb320 2.292 . S
O319 C322 1.255 . S
Tb320 O319 2.292 . S
Tb320 O336 2.326 . S
Tb320 O338 2.500 . S
Tb320 O339 2.473 . S
Tb320 O342 2.324 . S
Eu321 O325 2.292 . S
Eu321 C326 2.852 . S
Eu321 O337 2.324 . S
Eu321 O341 2.326 . S
Eu321 O343 2.500 . S
Eu321 O344 2.473 . S
C322 O319 1.255 . S
C322 O323 1.247 . S
O323 C322 1.247 . S
C324 O336 1.242 . S
C324 O337 1.258 . S
O325 Eu321 2.292 . S
O325 C327 1.255 . S
C326 Eu321 2.852 . S
C326 C330 1.503 . S
C326 O343 1.273 . S
C326 O344 1.257 . S
C327 O325 1.255 . S
C327 O328 1.247 . S
O328 C327 1.247 . S
C329 O341 1.242 . S
C329 O342 1.258 . S
C330 C326 1.503 . S
C330 C331 1.379 . S
C330 C335 1.392 . S
C331 C330 1.379 . S
C331 C332 1.404 . S
C331 H345 0.929 . S
C332 C331 1.404 . S
C332 C333 1.389 . S
C333 C332 1.389 . S
C333 C334 1.399 . S
C333 H346 0.931 . S
C334 C333 1.399 . S
C334 C335 1.390 . S
C335 C330 1.392 . S
C335 C334 1.390 . S
C335 H347 0.929 . S
O336 Tb320 2.326 . S
O336 C324 1.242 . S
O337 Eu321 2.324 . S
O337 C324 1.258 . S
O338 Tb320 2.500 . S
O338 C340 1.273 . S
O339 Tb320 2.473 . S
O339 C340 1.257 . S
C340 O338 1.273 . S
C340 O339 1.257 . S
O341 Eu321 2.326 . S
O341 C329 1.242 . S
O342 Tb320 2.324 . S
O342 C329 1.258 . S
O343 Eu321 2.500 . S
O343 C326 1.273 . S
O344 Eu321 2.473 . S
O344 C326 1.257 . S
H345 C331 0.929 . S
H346 C333 0.931 . S
H347 C335 0.929 . S
O348 Tb349 2.292 . S
O348 C351 1.255 . S
Tb349 O348 2.292 . S
Tb349 O365 2.326 . S
Tb349 O367 2.500 . S
Tb349 O368 2.473 . S
Tb349 O371 2.324 . S
Eu350 O354 2.292 . S
Eu350 C355 2.852 . S
Eu350 O366 2.324 . S
Eu350 O370 2.326 . S
Eu350 O372 2.500 . S
Eu350 O373 2.473 . S
C351 O348 1.255 . S
C351 O352 1.247 . S
O352 C351 1.247 . S
C353 O365 1.242 . S
C353 O366 1.258 . S
O354 Eu350 2.292 . S
O354 C356 1.255 . S
C355 Eu350 2.852 . S
C355 C359 1.503 . S
C355 O372 1.273 . S
C355 O373 1.257 . S
C356 O354 1.255 . S
C356 O357 1.247 . S
O357 C356 1.247 . S
C358 O370 1.242 . S
C358 O371 1.258 . S
C359 C355 1.503 . S
C359 C360 1.379 . S
C359 C364 1.392 . S
C360 C359 1.379 . S
C360 C361 1.404 . S
C360 H374 0.929 . S
C361 C360 1.404 . S
C361 C362 1.389 . S
C362 C361 1.389 . S
C362 C363 1.399 . S
C362 H375 0.931 . S
C363 C362 1.399 . S
C363 C364 1.390 . S
C364 C359 1.392 . S
C364 C363 1.390 . S
C364 H376 0.929 . S
O365 Tb349 2.326 . S
O365 C353 1.242 . S
O366 Eu350 2.324 . S
O366 C353 1.258 . S
O367 Tb349 2.500 . S
O367 C369 1.273 . S
O368 Tb349 2.473 . S
O368 C369 1.257 . S
C369 O367 1.273 . S
C369 O368 1.257 . S
O370 Eu350 2.326 . S
O370 C358 1.242 . S
O371 Tb349 2.324 . S
O371 C358 1.258 . S
O372 Eu350 2.500 . S
O372 C355 1.273 . S
O373 Eu350 2.473 . S
O373 C355 1.257 . S
H374 C360 0.929 . S
H375 C362 0.931 . S
H376 C364 0.929 . S
O377 Tb378 2.292 . S
O377 C380 1.255 . S
Tb378 O377 2.292 . S
Tb378 O394 2.326 . S
Tb378 O396 2.500 . S
Tb378 O397 2.473 . S
Tb378 O400 2.324 . S
Eu379 O383 2.292 . S
Eu379 C384 2.852 . S
Eu379 O395 2.324 . S
Eu379 O399 2.326 . S
Eu379 O401 2.500 . S
Eu379 O402 2.473 . S
C380 O377 1.255 . S
C380 O381 1.247 . S
O381 C380 1.247 . S
C382 O394 1.242 . S
C382 O395 1.258 . S
O383 Eu379 2.292 . S
O383 C385 1.255 . S
C384 Eu379 2.852 . S
C384 C388 1.503 . S
C384 O401 1.273 . S
C384 O402 1.257 . S
C385 O383 1.255 . S
C385 O386 1.247 . S
O386 C385 1.247 . S
C387 O399 1.242 . S
C387 O400 1.258 . S
C388 C384 1.503 . S
C388 C389 1.379 . S
C388 C393 1.392 . S
C389 C388 1.379 . S
C389 C390 1.404 . S
C389 H403 0.929 . S
C390 C389 1.404 . S
C390 C391 1.389 . S
C391 C390 1.389 . S
C391 C392 1.399 . S
C391 H404 0.931 . S
C392 C391 1.399 . S
C392 C393 1.390 . S
C393 C388 1.392 . S
C393 C392 1.390 . S
C393 H405 0.929 . S
O394 Tb378 2.326 . S
O394 C382 1.242 . S
O395 Eu379 2.324 . S
O395 C382 1.258 . S
O396 Tb378 2.500 . S
O396 C398 1.273 . S
O397 Tb378 2.473 . S
O397 C398 1.257 . S
C398 O396 1.273 . S
C398 O397 1.257 . S
O399 Eu379 2.326 . S
O399 C387 1.242 . S
O400 Tb378 2.324 . S
O400 C387 1.258 . S
O401 Eu379 2.500 . S
O401 C384 1.273 . S
O402 Eu379 2.473 . S
O402 C384 1.257 . S
H403 C389 0.929 . S
H404 C391 0.931 . S
H405 C393 0.929 . S
O406 Tb407 2.292 . S
O406 C409 1.255 . S
Tb407 O406 2.292 . S
Tb407 O423 2.326 . S
Tb407 O425 2.500 . S
Tb407 O426 2.473 . S
Tb407 O429 2.324 . S
Eu408 O412 2.292 . S
Eu408 C413 2.852 . S
Eu408 O424 2.324 . S
Eu408 O428 2.326 . S
Eu408 O430 2.500 . S
Eu408 O431 2.473 . S
C409 O406 1.255 . S
C409 O410 1.247 . S
O410 C409 1.247 . S
C411 O423 1.242 . S
C411 O424 1.258 . S
O412 Eu408 2.292 . S
O412 C414 1.255 . S
C413 Eu408 2.852 . S
C413 C417 1.503 . S
C413 O430 1.273 . S
C413 O431 1.257 . S
C414 O412 1.255 . S
C414 O415 1.247 . S
O415 C414 1.247 . S
C416 O428 1.242 . S
C416 O429 1.258 . S
C417 C413 1.503 . S
C417 C418 1.379 . S
C417 C422 1.392 . S
C418 C417 1.379 . S
C418 C419 1.404 . S
C418 H432 0.929 . S
C419 C418 1.404 . S
C419 C420 1.389 . S
C420 C419 1.389 . S
C420 C421 1.399 . S
C420 H433 0.931 . S
C421 C420 1.399 . S
C421 C422 1.390 . S
C422 C417 1.392 . S
C422 C421 1.390 . S
C422 H434 0.929 . S
O423 Tb407 2.326 . S
O423 C411 1.242 . S
O424 Eu408 2.324 . S
O424 C411 1.258 . S
O425 Tb407 2.500 . S
O425 C427 1.273 . S
O426 Tb407 2.473 . S
O426 C427 1.257 . S
C427 O425 1.273 . S
C427 O426 1.257 . S
O428 Eu408 2.326 . S
O428 C416 1.242 . S
O429 Tb407 2.324 . S
O429 C416 1.258 . S
O430 Eu408 2.500 . S
O430 C413 1.273 . S
O431 Eu408 2.473 . S
O431 C413 1.257 . S
H432 C418 0.929 . S
H433 C420 0.931 . S
H434 C422 0.929 . S
O435 Tb436 2.292 . S
O435 C438 1.255 . S
Tb436 O435 2.292 . S
Tb436 O452 2.326 . S
Tb436 O454 2.500 . S
Tb436 O455 2.473 . S
Tb436 O458 2.324 . S
Eu437 O441 2.292 . S
Eu437 C442 2.852 . S
Eu437 O453 2.324 . S
Eu437 O457 2.326 . S
Eu437 O459 2.500 . S
Eu437 O460 2.473 . S
C438 O435 1.255 . S
C438 O439 1.247 . S
O439 C438 1.247 . S
C440 O452 1.242 . S
C440 O453 1.258 . S
O441 Eu437 2.292 . S
O441 C443 1.255 . S
C442 Eu437 2.852 . S
C442 C446 1.503 . S
C442 O459 1.273 . S
C442 O460 1.257 . S
C443 O441 1.255 . S
C443 O444 1.247 . S
O444 C443 1.247 . S
C445 O457 1.242 . S
C445 O458 1.258 . S
C446 C442 1.503 . S
C446 C447 1.379 . S
C446 C451 1.392 . S
C447 C446 1.379 . S
C447 C448 1.404 . S
C447 H461 0.929 . S
C448 C447 1.404 . S
C448 C449 1.389 . S
C449 C448 1.389 . S
C449 C450 1.399 . S
C449 H462 0.931 . S
C450 C449 1.399 . S
C450 C451 1.390 . S
C451 C446 1.392 . S
C451 C450 1.390 . S
C451 H463 0.929 . S
O452 Tb436 2.326 . S
O452 C440 1.242 . S
O453 Eu437 2.324 . S
O453 C440 1.258 . S
O454 Tb436 2.500 . S
O454 C456 1.273 . S
O455 Tb436 2.473 . S
O455 C456 1.257 . S
C456 O454 1.273 . S
C456 O455 1.257 . S
O457 Eu437 2.326 . S
O457 C445 1.242 . S
O458 Tb436 2.324 . S
O458 C445 1.258 . S
O459 Eu437 2.500 . S
O459 C442 1.273 . S
O460 Eu437 2.473 . S
O460 C442 1.257 . S
H461 C447 0.929 . S
H462 C449 0.931 . S
H463 C451 0.929 . S
O464 Tb465 2.292 . S
O464 C467 1.255 . S
Tb465 O464 2.292 . S
Tb465 O481 2.326 . S
Tb465 O483 2.500 . S
Tb465 O484 2.473 . S
Tb465 O487 2.324 . S
Eu466 O470 2.292 . S
Eu466 C471 2.852 . S
Eu466 O482 2.324 . S
Eu466 O486 2.326 . S
Eu466 O488 2.500 . S
Eu466 O489 2.473 . S
C467 O464 1.255 . S
C467 O468 1.247 . S
O468 C467 1.247 . S
C469 O481 1.242 . S
C469 O482 1.258 . S
O470 Eu466 2.292 . S
O470 C472 1.255 . S
C471 Eu466 2.852 . S
C471 C475 1.503 . S
C471 O488 1.273 . S
C471 O489 1.257 . S
C472 O470 1.255 . S
C472 O473 1.247 . S
O473 C472 1.247 . S
C474 O486 1.242 . S
C474 O487 1.258 . S
C475 C471 1.503 . S
C475 C476 1.379 . S
C475 C480 1.392 . S
C476 C475 1.379 . S
C476 C477 1.404 . S
C476 H490 0.929 . S
C477 C476 1.404 . S
C477 C478 1.389 . S
C478 C477 1.389 . S
C478 C479 1.399 . S
C478 H491 0.931 . S
C479 C478 1.399 . S
C479 C480 1.390 . S
C480 C475 1.392 . S
C480 C479 1.390 . S
C480 H492 0.929 . S
O481 Tb465 2.326 . S
O481 C469 1.242 . S
O482 Eu466 2.324 . S
O482 C469 1.258 . S
O483 Tb465 2.500 . S
O483 C485 1.273 . S
O484 Tb465 2.473 . S
O484 C485 1.257 . S
C485 O483 1.273 . S
C485 O484 1.257 . S
O486 Eu466 2.326 . S
O486 C474 1.242 . S
O487 Tb465 2.324 . S
O487 C474 1.258 . S
O488 Eu466 2.500 . S
O488 C471 1.273 . S
O489 Eu466 2.473 . S
O489 C471 1.257 . S
H490 C476 0.929 . S
H491 C478 0.931 . S
H492 C480 0.929 . S
O493 Tb494 2.292 . S
O493 C496 1.255 . S
Tb494 O493 2.292 . S
Tb494 O510 2.326 . S
Tb494 O512 2.500 . S
Tb494 O513 2.473 . S
Tb494 O516 2.324 . S
Eu495 O499 2.292 . S
Eu495 C500 2.852 . S
Eu495 O511 2.324 . S
Eu495 O515 2.326 . S
Eu495 O517 2.500 . S
Eu495 O518 2.473 . S
C496 O493 1.255 . S
C496 O497 1.247 . S
O497 C496 1.247 . S
C498 O510 1.242 . S
C498 O511 1.258 . S
O499 Eu495 2.292 . S
O499 C501 1.255 . S
C500 Eu495 2.852 . S
C500 C504 1.503 . S
C500 O517 1.273 . S
C500 O518 1.257 . S
C501 O499 1.255 . S
C501 O502 1.247 . S
O502 C501 1.247 . S
C503 O515 1.242 . S
C503 O516 1.258 . S
C504 C500 1.503 . S
C504 C505 1.379 . S
C504 C509 1.392 . S
C505 C504 1.379 . S
C505 C506 1.404 . S
C505 H519 0.929 . S
C506 C505 1.404 . S
C506 C507 1.389 . S
C507 C506 1.389 . S
C507 C508 1.399 . S
C507 H520 0.931 . S
C508 C507 1.399 . S
C508 C509 1.390 . S
C509 C504 1.392 . S
C509 C508 1.390 . S
C509 H521 0.929 . S
O510 Tb494 2.326 . S
O510 C498 1.242 . S
O511 Eu495 2.324 . S
O511 C498 1.258 . S
O512 Tb494 2.500 . S
O512 C514 1.273 . S
O513 Tb494 2.473 . S
O513 C514 1.257 . S
C514 O512 1.273 . S
C514 O513 1.257 . S
O515 Eu495 2.326 . S
O515 C503 1.242 . S
O516 Tb494 2.324 . S
O516 C503 1.258 . S
O517 Eu495 2.500 . S
O517 C500 1.273 . S
O518 Eu495 2.473 . S
O518 C500 1.257 . S
H519 C505 0.929 . S
H520 C507 0.931 . S
H521 C509 0.929 . S
O522 Tb523 2.292 . S
O522 C525 1.255 . S
Tb523 O522 2.292 . S
Tb523 O539 2.326 . S
Tb523 O541 2.500 . S
Tb523 O542 2.473 . S
Tb523 O545 2.324 . S
Eu524 O528 2.292 . S
Eu524 C529 2.852 . S
Eu524 O540 2.324 . S
Eu524 O544 2.326 . S
Eu524 O546 2.500 . S
Eu524 O547 2.473 . S
C525 O522 1.255 . S
C525 O526 1.247 . S
O526 C525 1.247 . S
C527 O539 1.242 . S
C527 O540 1.258 . S
O528 Eu524 2.292 . S
O528 C530 1.255 . S
C529 Eu524 2.852 . S
C529 C533 1.503 . S
C529 O546 1.273 . S
C529 O547 1.257 . S
C530 O528 1.255 . S
C530 O531 1.247 . S
O531 C530 1.247 . S
C532 O544 1.242 . S
C532 O545 1.258 . S
C533 C529 1.503 . S
C533 C534 1.379 . S
C533 C538 1.392 . S
C534 C533 1.379 . S
C534 C535 1.404 . S
C534 H548 0.929 . S
C535 C534 1.404 . S
C535 C536 1.389 . S
C536 C535 1.389 . S
C536 C537 1.399 . S
C536 H549 0.931 . S
C537 C536 1.399 . S
C537 C538 1.390 . S
C538 C533 1.392 . S
C538 C537 1.390 . S
C538 H550 0.929 . S
O539 Tb523 2.326 . S
O539 C527 1.242 . S
O540 Eu524 2.324 . S
O540 C527 1.258 . S
O541 Tb523 2.500 . S
O541 C543 1.273 . S
O542 Tb523 2.473 . S
O542 C543 1.257 . S
C543 O541 1.273 . S
C543 O542 1.257 . S
O544 Eu524 2.326 . S
O544 C532 1.242 . S
O545 Tb523 2.324 . S
O545 C532 1.258 . S
O546 Eu524 2.500 . S
O546 C529 1.273 . S
O547 Eu524 2.473 . S
O547 C529 1.257 . S
H548 C534 0.929 . S
H549 C536 0.931 . S
H550 C538 0.929 . S
O551 Tb552 2.292 . S
O551 C554 1.255 . S
Tb552 O551 2.292 . S
Tb552 O568 2.326 . S
Tb552 O570 2.500 . S
Tb552 O571 2.473 . S
Tb552 O574 2.324 . S
Eu553 O557 2.292 . S
Eu553 C558 2.852 . S
Eu553 O569 2.324 . S
Eu553 O573 2.326 . S
Eu553 O575 2.500 . S
Eu553 O576 2.473 . S
C554 O551 1.255 . S
C554 O555 1.247 . S
O555 C554 1.247 . S
C556 O568 1.242 . S
C556 O569 1.258 . S
O557 Eu553 2.292 . S
O557 C559 1.255 . S
C558 Eu553 2.852 . S
C558 C562 1.503 . S
C558 O575 1.273 . S
C558 O576 1.257 . S
C559 O557 1.255 . S
C559 O560 1.247 . S
O560 C559 1.247 . S
C561 O573 1.242 . S
C561 O574 1.258 . S
C562 C558 1.503 . S
C562 C563 1.379 . S
C562 C567 1.392 . S
C563 C562 1.379 . S
C563 C564 1.404 . S
C563 H577 0.929 . S
C564 C563 1.404 . S
C564 C565 1.389 . S
C565 C564 1.389 . S
C565 C566 1.399 . S
C565 H578 0.931 . S
C566 C565 1.399 . S
C566 C567 1.390 . S
C567 C562 1.392 . S
C567 C566 1.390 . S
C567 H579 0.929 . S
O568 Tb552 2.326 . S
O568 C556 1.242 . S
O569 Eu553 2.324 . S
O569 C556 1.258 . S
O570 Tb552 2.500 . S
O570 C572 1.273 . S
O571 Tb552 2.473 . S
O571 C572 1.257 . S
C572 O570 1.273 . S
C572 O571 1.257 . S
O573 Eu553 2.326 . S
O573 C561 1.242 . S
O574 Tb552 2.324 . S
O574 C561 1.258 . S
O575 Eu553 2.500 . S
O575 C558 1.273 . S
O576 Eu553 2.473 . S
O576 C558 1.257 . S
H577 C563 0.929 . S
H578 C565 0.931 . S
H579 C567 0.929 . S
O580 Tb581 2.292 . S
O580 C583 1.255 . S
Tb581 O580 2.292 . S
Tb581 O597 2.326 . S
Tb581 O599 2.500 . S
Tb581 O600 2.473 . S
Tb581 O603 2.324 . S
Eu582 O586 2.292 . S
Eu582 C587 2.852 . S
Eu582 O598 2.324 . S
Eu582 O602 2.326 . S
Eu582 O604 2.500 . S
Eu582 O605 2.473 . S
C583 O580 1.255 . S
C583 O584 1.247 . S
O584 C583 1.247 . S
C585 O597 1.242 . S
C585 O598 1.258 . S
O586 Eu582 2.292 . S
O586 C588 1.255 . S
C587 Eu582 2.852 . S
C587 C591 1.503 . S
C587 O604 1.273 . S
C587 O605 1.257 . S
C588 O586 1.255 . S
C588 O589 1.247 . S
O589 C588 1.247 . S
C590 O602 1.242 . S
C590 O603 1.258 . S
C591 C587 1.503 . S
C591 C592 1.379 . S
C591 C596 1.392 . S
C592 C591 1.379 . S
C592 C593 1.404 . S
C592 H606 0.929 . S
C593 C592 1.404 . S
C593 C594 1.389 . S
C594 C593 1.389 . S
C594 C595 1.399 . S
C594 H607 0.931 . S
C595 C594 1.399 . S
C595 C596 1.390 . S
C596 C591 1.392 . S
C596 C595 1.390 . S
C596 H608 0.929 . S
O597 Tb581 2.326 . S
O597 C585 1.242 . S
O598 Eu582 2.324 . S
O598 C585 1.258 . S
O599 Tb581 2.500 . S
O599 C601 1.273 . S
O600 Tb581 2.473 . S
O600 C601 1.257 . S
C601 O599 1.273 . S
C601 O600 1.257 . S
O602 Eu582 2.326 . S
O602 C590 1.242 . S
O603 Tb581 2.324 . S
O603 C590 1.258 . S
O604 Eu582 2.500 . S
O604 C587 1.273 . S
O605 Eu582 2.473 . S
O605 C587 1.257 . S
H606 C592 0.929 . S
H607 C594 0.931 . S
H608 C596 0.929 . S
O609 Tb610 2.292 . S
O609 C612 1.255 . S
Tb610 O609 2.292 . S
Tb610 O626 2.326 . S
Tb610 O628 2.500 . S
Tb610 O629 2.473 . S
Tb610 O632 2.324 . S
Eu611 O615 2.292 . S
Eu611 C616 2.852 . S
Eu611 O627 2.324 . S
Eu611 O631 2.326 . S
Eu611 O633 2.500 . S
Eu611 O634 2.473 . S
C612 O609 1.255 . S
C612 O613 1.247 . S
O613 C612 1.247 . S
C614 O626 1.242 . S
C614 O627 1.258 . S
O615 Eu611 2.292 . S
O615 C617 1.255 . S
C616 Eu611 2.852 . S
C616 C620 1.503 . S
C616 O633 1.273 . S
C616 O634 1.257 . S
C617 O615 1.255 . S
C617 O618 1.247 . S
O618 C617 1.247 . S
C619 O631 1.242 . S
C619 O632 1.258 . S
C620 C616 1.503 . S
C620 C621 1.379 . S
C620 C625 1.392 . S
C621 C620 1.379 . S
C621 C622 1.404 . S
C621 H635 0.929 . S
C622 C621 1.404 . S
C622 C623 1.389 . S
C623 C622 1.389 . S
C623 C624 1.399 . S
C623 H636 0.931 . S
C624 C623 1.399 . S
C624 C625 1.390 . S
C625 C620 1.392 . S
C625 C624 1.390 . S
C625 H637 0.929 . S
O626 Tb610 2.326 . S
O626 C614 1.242 . S
O627 Eu611 2.324 . S
O627 C614 1.258 . S
O628 Tb610 2.500 . S
O628 C630 1.273 . S
O629 Tb610 2.473 . S
O629 C630 1.257 . S
C630 O628 1.273 . S
C630 O629 1.257 . S
O631 Eu611 2.326 . S
O631 C619 1.242 . S
O632 Tb610 2.324 . S
O632 C619 1.258 . S
O633 Eu611 2.500 . S
O633 C616 1.273 . S
O634 Eu611 2.473 . S
O634 C616 1.257 . S
H635 C621 0.929 . S
H636 C623 0.931 . S
H637 C625 0.929 . S
O638 Tb639 2.292 . S
O638 C641 1.255 . S
Tb639 O638 2.292 . S
Tb639 O655 2.326 . S
Tb639 O657 2.500 . S
Tb639 O658 2.473 . S
Tb639 O661 2.324 . S
Eu640 O644 2.292 . S
Eu640 C645 2.852 . S
Eu640 O656 2.324 . S
Eu640 O660 2.326 . S
Eu640 O662 2.500 . S
Eu640 O663 2.473 . S
C641 O638 1.255 . S
C641 O642 1.247 . S
O642 C641 1.247 . S
C643 O655 1.242 . S
C643 O656 1.258 . S
O644 Eu640 2.292 . S
O644 C646 1.255 . S
C645 Eu640 2.852 . S
C645 C649 1.503 . S
C645 O662 1.273 . S
C645 O663 1.257 . S
C646 O644 1.255 . S
C646 O647 1.247 . S
O647 C646 1.247 . S
C648 O660 1.242 . S
C648 O661 1.258 . S
C649 C645 1.503 . S
C649 C650 1.379 . S
C649 C654 1.392 . S
C650 C649 1.379 . S
C650 C651 1.404 . S
C650 H664 0.929 . S
C651 C650 1.404 . S
C651 C652 1.389 . S
C652 C651 1.389 . S
C652 C653 1.399 . S
C652 H665 0.931 . S
C653 C652 1.399 . S
C653 C654 1.390 . S
C654 C649 1.392 . S
C654 C653 1.390 . S
C654 H666 0.929 . S
O655 Tb639 2.326 . S
O655 C643 1.242 . S
O656 Eu640 2.324 . S
O656 C643 1.258 . S
O657 Tb639 2.500 . S
O657 C659 1.273 . S
O658 Tb639 2.473 . S
O658 C659 1.257 . S
C659 O657 1.273 . S
C659 O658 1.257 . S
O660 Eu640 2.326 . S
O660 C648 1.242 . S
O661 Tb639 2.324 . S
O661 C648 1.258 . S
O662 Eu640 2.500 . S
O662 C645 1.273 . S
O663 Eu640 2.473 . S
O663 C645 1.257 . S
H664 C650 0.929 . S
H665 C652 0.931 . S
H666 C654 0.929 . S
O667 Tb668 2.292 . S
O667 C670 1.255 . S
Tb668 O667 2.292 . S
Tb668 O684 2.326 . S
Tb668 O686 2.500 . S
Tb668 O687 2.473 . S
Tb668 O690 2.324 . S
Eu669 O673 2.292 . S
Eu669 C674 2.852 . S
Eu669 O685 2.324 . S
Eu669 O689 2.326 . S
Eu669 O691 2.500 . S
Eu669 O692 2.473 . S
C670 O667 1.255 . S
C670 O671 1.247 . S
O671 C670 1.247 . S
C672 O684 1.242 . S
C672 O685 1.258 . S
O673 Eu669 2.292 . S
O673 C675 1.255 . S
C674 Eu669 2.852 . S
C674 C678 1.503 . S
C674 O691 1.273 . S
C674 O692 1.257 . S
C675 O673 1.255 . S
C675 O676 1.247 . S
O676 C675 1.247 . S
C677 O689 1.242 . S
C677 O690 1.258 . S
C678 C674 1.503 . S
C678 C679 1.379 . S
C678 C683 1.392 . S
C679 C678 1.379 . S
C679 C680 1.404 . S
C679 H693 0.929 . S
C680 C679 1.404 . S
C680 C681 1.389 . S
C681 C680 1.389 . S
C681 C682 1.399 . S
C681 H694 0.931 . S
C682 C681 1.399 . S
C682 C683 1.390 . S
C683 C678 1.392 . S
C683 C682 1.390 . S
C683 H695 0.929 . S
O684 Tb668 2.326 . S
O684 C672 1.242 . S
O685 Eu669 2.324 . S
O685 C672 1.258 . S
O686 Tb668 2.500 . S
O686 C688 1.273 . S
O687 Tb668 2.473 . S
O687 C688 1.257 . S
C688 O686 1.273 . S
C688 O687 1.257 . S
O689 Eu669 2.326 . S
O689 C677 1.242 . S
O690 Tb668 2.324 . S
O690 C677 1.258 . S
O691 Eu669 2.500 . S
O691 C674 1.273 . S
O692 Eu669 2.473 . S
O692 C674 1.257 . S
H693 C679 0.929 . S
H694 C681 0.931 . S
H695 C683 0.929 . S
H696 C704 0.929 . S
H697 C706 0.930 . S
H698 C708 0.930 . S
H699 C711 0.929 . S
H700 C714 0.930 . S
H701 C716 0.960 . S
H702 C716 0.960 . S
H703 C716 0.960 . S
C704 H696 0.929 . S
C704 C705 1.377 . S
C704 C706 1.384 . S
C705 C704 1.377 . S
C705 C711 1.390 . S
C706 H697 0.930 . S
C706 C704 1.384 . S
C706 C707 1.372 . S
C707 C706 1.372 . S
C707 C708 1.400 . S
C707 C712 1.490 . S
C708 H698 0.930 . S
C708 C707 1.400 . S
C708 C711 1.386 . S
H709 C725 0.930 . S
H710 C726 0.931 . S
C711 H699 0.929 . S
C711 C705 1.390 . S
C711 C708 1.386 . S
C712 C707 1.490 . S
C712 C714 1.395 . S
C712 C715 1.403 . S
H713 C719 0.930 . S
C714 H700 0.930 . S
C714 C712 1.395 . S
C714 C717 1.403 . S
C715 C712 1.403 . S
C715 C716 1.524 . S
C715 C719 1.400 . S
C716 H701 0.960 . S
C716 H702 0.960 . S
C716 H703 0.960 . S
C716 C715 1.524 . S
C717 C714 1.403 . S
C717 C718 1.392 . S
C717 C721 1.495 . S
C718 C717 1.392 . S
C718 C719 1.385 . S
C718 C720 1.478 . S
C719 H713 0.930 . S
C719 C715 1.400 . S
C719 C718 1.385 . S
C720 C718 1.478 . S
C720 C722 1.381 . S
C720 C726 1.383 . S
C721 C717 1.495 . S
C721 H727 0.959 . S
C721 H728 0.961 . S
C721 H729 0.960 . S
C722 C720 1.381 . S
C722 C723 1.394 . S
C722 H730 0.930 . S
C723 C722 1.394 . S
C723 C724 1.383 . S
C723 H731 0.929 . S
C724 C723 1.383 . S
C724 C725 1.377 . S
C725 H709 0.930 . S
C725 C724 1.377 . S
C725 C726 1.379 . S
C726 H710 0.931 . S
C726 C720 1.383 . S
C726 C725 1.379 . S
H727 C721 0.959 . S
H728 C721 0.961 . S
H729 C721 0.960 . S
H730 C722 0.930 . S
H731 C723 0.929 . S
H732 C740 0.929 . S
H733 C742 0.930 . S
H734 C744 0.930 . S
H735 C747 0.929 . S
H736 C750 0.930 . S
H737 C752 0.960 . S
H738 C752 0.960 . S
H739 C752 0.960 . S
C740 H732 0.929 . S
C740 C741 1.377 . S
C740 C742 1.384 . S
C741 C740 1.377 . S
C741 C747 1.390 . S
C742 H733 0.930 . S
C742 C740 1.384 . S
C742 C743 1.372 . S
C743 C742 1.372 . S
C743 C744 1.400 . S
C743 C748 1.490 . S
C744 H734 0.930 . S
C744 C743 1.400 . S
C744 C747 1.386 . S
H745 C761 0.930 . S
H746 C762 0.931 . S
C747 H735 0.929 . S
C747 C741 1.390 . S
C747 C744 1.386 . S
C748 C743 1.490 . S
C748 C750 1.395 . S
C748 C751 1.403 . S
H749 C755 0.930 . S
C750 H736 0.930 . S
C750 C748 1.395 . S
C750 C753 1.403 . S
C751 C748 1.403 . S
C751 C752 1.524 . S
C751 C755 1.400 . S
C752 H737 0.960 . S
C752 H738 0.960 . S
C752 H739 0.960 . S
C752 C751 1.524 . S
C753 C750 1.403 . S
C753 C754 1.392 . S
C753 C757 1.495 . S
C754 C753 1.392 . S
C754 C755 1.385 . S
C754 C756 1.478 . S
C755 H749 0.930 . S
C755 C751 1.400 . S
C755 C754 1.385 . S
C756 C754 1.478 . S
C756 C758 1.381 . S
C756 C762 1.383 . S
C757 C753 1.495 . S
C757 H763 0.959 . S
C757 H764 0.961 . S
C757 H765 0.960 . S
C758 C756 1.381 . S
C758 C759 1.394 . S
C758 H766 0.930 . S
C759 C758 1.394 . S
C759 C760 1.383 . S
C759 H767 0.929 . S
C760 C759 1.383 . S
C760 C761 1.377 . S
C761 H745 0.930 . S
C761 C760 1.377 . S
C761 C762 1.379 . S
C762 H746 0.931 . S
C762 C756 1.383 . S
C762 C761 1.379 . S
H763 C757 0.959 . S
H764 C757 0.961 . S
H765 C757 0.960 . S
H766 C758 0.930 . S
H767 C759 0.929 . S
H768 C776 0.929 . S
H769 C778 0.930 . S
H770 C780 0.930 . S
H771 C783 0.929 . S
H772 C786 0.930 . S
H773 C788 0.960 . S
H774 C788 0.960 . S
H775 C788 0.960 . S
C776 H768 0.929 . S
C776 C777 1.377 . S
C776 C778 1.384 . S
C777 C776 1.377 . S
C777 C783 1.390 . S
C778 H769 0.930 . S
C778 C776 1.384 . S
C778 C779 1.372 . S
C779 C778 1.372 . S
C779 C780 1.400 . S
C779 C784 1.490 . S
C780 H770 0.930 . S
C780 C779 1.400 . S
C780 C783 1.386 . S
H781 C797 0.930 . S
H782 C798 0.931 . S
C783 H771 0.929 . S
C783 C777 1.390 . S
C783 C780 1.386 . S
C784 C779 1.490 . S
C784 C786 1.395 . S
C784 C787 1.403 . S
H785 C791 0.930 . S
C786 H772 0.930 . S
C786 C784 1.395 . S
C786 C789 1.403 . S
C787 C784 1.403 . S
C787 C788 1.524 . S
C787 C791 1.400 . S
C788 H773 0.960 . S
C788 H774 0.960 . S
C788 H775 0.960 . S
C788 C787 1.524 . S
C789 C786 1.403 . S
C789 C790 1.392 . S
C789 C793 1.495 . S
C790 C789 1.392 . S
C790 C791 1.385 . S
C790 C792 1.478 . S
C791 H785 0.930 . S
C791 C787 1.400 . S
C791 C790 1.385 . S
C792 C790 1.478 . S
C792 C794 1.381 . S
C792 C798 1.383 . S
C793 C789 1.495 . S
C793 H799 0.959 . S
C793 H800 0.961 . S
C793 H801 0.960 . S
C794 C792 1.381 . S
C794 C795 1.394 . S
C794 H802 0.930 . S
C795 C794 1.394 . S
C795 C796 1.383 . S
C795 H803 0.929 . S
C796 C795 1.383 . S
C796 C797 1.377 . S
C797 H781 0.930 . S
C797 C796 1.377 . S
C797 C798 1.379 . S
C798 H782 0.931 . S
C798 C792 1.383 . S
C798 C797 1.379 . S
H799 C793 0.959 . S
H800 C793 0.961 . S
H801 C793 0.960 . S
H802 C794 0.930 . S
H803 C795 0.929 . S
H804 C812 0.929 . S
H805 C814 0.930 . S
H806 C816 0.930 . S
H807 C819 0.929 . S
H808 C822 0.930 . S
H809 C824 0.960 . S
H810 C824 0.960 . S
H811 C824 0.960 . S
C812 H804 0.929 . S
C812 C813 1.377 . S
C812 C814 1.384 . S
C813 C812 1.377 . S
C813 C819 1.390 . S
C814 H805 0.930 . S
C814 C812 1.384 . S
C814 C815 1.372 . S
C815 C814 1.372 . S
C815 C816 1.400 . S
C815 C820 1.490 . S
C816 H806 0.930 . S
C816 C815 1.400 . S
C816 C819 1.386 . S
H817 C833 0.930 . S
H818 C834 0.931 . S
C819 H807 0.929 . S
C819 C813 1.390 . S
C819 C816 1.386 . S
C820 C815 1.490 . S
C820 C822 1.395 . S
C820 C823 1.403 . S
H821 C827 0.930 . S
C822 H808 0.930 . S
C822 C820 1.395 . S
C822 C825 1.403 . S
C823 C820 1.403 . S
C823 C824 1.524 . S
C823 C827 1.400 . S
C824 H809 0.960 . S
C824 H810 0.960 . S
C824 H811 0.960 . S
C824 C823 1.524 . S
C825 C822 1.403 . S
C825 C826 1.392 . S
C825 C829 1.495 . S
C826 C825 1.392 . S
C826 C827 1.385 . S
C826 C828 1.478 . S
C827 H821 0.930 . S
C827 C823 1.400 . S
C827 C826 1.385 . S
C828 C826 1.478 . S
C828 C830 1.381 . S
C828 C834 1.383 . S
C829 C825 1.495 . S
C829 H835 0.959 . S
C829 H836 0.961 . S
C829 H837 0.960 . S
C830 C828 1.381 . S
C830 C831 1.394 . S
C830 H838 0.930 . S
C831 C830 1.394 . S
C831 C832 1.383 . S
C831 H839 0.929 . S
C832 C831 1.383 . S
C832 C833 1.377 . S
C833 H817 0.930 . S
C833 C832 1.377 . S
C833 C834 1.379 . S
C834 H818 0.931 . S
C834 C828 1.383 . S
C834 C833 1.379 . S
H835 C829 0.959 . S
H836 C829 0.961 . S
H837 C829 0.960 . S
H838 C830 0.930 . S
H839 C831 0.929 . S
H840 C848 0.929 . S
H841 C850 0.930 . S
H842 C852 0.930 . S
H843 C855 0.929 . S
H844 C858 0.930 . S
H845 C860 0.960 . S
H846 C860 0.960 . S
H847 C860 0.960 . S
C848 H840 0.929 . S
C848 C849 1.377 . S
C848 C850 1.384 . S
C849 C848 1.377 . S
C849 C855 1.390 . S
C850 H841 0.930 . S
C850 C848 1.384 . S
C850 C851 1.372 . S
C851 C850 1.372 . S
C851 C852 1.400 . S
C851 C856 1.490 . S
C852 H842 0.930 . S
C852 C851 1.400 . S
C852 C855 1.386 . S
H853 C869 0.930 . S
H854 C870 0.931 . S
C855 H843 0.929 . S
C855 C849 1.390 . S
C855 C852 1.386 . S
C856 C851 1.490 . S
C856 C858 1.395 . S
C856 C859 1.403 . S
H857 C863 0.930 . S
C858 H844 0.930 . S
C858 C856 1.395 . S
C858 C861 1.403 . S
C859 C856 1.403 . S
C859 C860 1.524 . S
C859 C863 1.400 . S
C860 H845 0.960 . S
C860 H846 0.960 . S
C860 H847 0.960 . S
C860 C859 1.524 . S
C861 C858 1.403 . S
C861 C862 1.392 . S
C861 C865 1.495 . S
C862 C861 1.392 . S
C862 C863 1.385 . S
C862 C864 1.478 . S
C863 H857 0.930 . S
C863 C859 1.400 . S
C863 C862 1.385 . S
C864 C862 1.478 . S
C864 C866 1.381 . S
C864 C870 1.383 . S
C865 C861 1.495 . S
C865 H871 0.959 . S
C865 H872 0.961 . S
C865 H873 0.960 . S
C866 C864 1.381 . S
C866 C867 1.394 . S
C866 H874 0.930 . S
C867 C866 1.394 . S
C867 C868 1.383 . S
C867 H875 0.929 . S
C868 C867 1.383 . S
C868 C869 1.377 . S
C869 H853 0.930 . S
C869 C868 1.377 . S
C869 C870 1.379 . S
C870 H854 0.931 . S
C870 C864 1.383 . S
C870 C869 1.379 . S
H871 C865 0.959 . S
H872 C865 0.961 . S
H873 C865 0.960 . S
H874 C866 0.930 . S
H875 C867 0.929 . S
H876 C884 0.929 . S
H877 C886 0.930 . S
H878 C888 0.930 . S
H879 C891 0.929 . S
H880 C894 0.930 . S
H881 C896 0.960 . S
H882 C896 0.960 . S
H883 C896 0.960 . S
C884 H876 0.929 . S
C884 C885 1.377 . S
C884 C886 1.384 . S
C885 C884 1.377 . S
C885 C891 1.390 . S
C886 H877 0.930 . S
C886 C884 1.384 . S
C886 C887 1.372 . S
C887 C886 1.372 . S
C887 C888 1.400 . S
C887 C892 1.490 . S
C888 H878 0.930 . S
C888 C887 1.400 . S
C888 C891 1.386 . S
H889 C905 0.930 . S
H890 C906 0.931 . S
C891 H879 0.929 . S
C891 C885 1.390 . S
C891 C888 1.386 . S
C892 C887 1.490 . S
C892 C894 1.395 . S
C892 C895 1.403 . S
H893 C899 0.930 . S
C894 H880 0.930 . S
C894 C892 1.395 . S
C894 C897 1.403 . S
C895 C892 1.403 . S
C895 C896 1.524 . S
C895 C899 1.400 . S
C896 H881 0.960 . S
C896 H882 0.960 . S
C896 H883 0.960 . S
C896 C895 1.524 . S
C897 C894 1.403 . S
C897 C898 1.392 . S
C897 C901 1.495 . S
C898 C897 1.392 . S
C898 C899 1.385 . S
C898 C900 1.478 . S
C899 H893 0.930 . S
C899 C895 1.400 . S
C899 C898 1.385 . S
C900 C898 1.478 . S
C900 C902 1.381 . S
C900 C906 1.383 . S
C901 C897 1.495 . S
C901 H907 0.959 . S
C901 H908 0.961 . S
C901 H909 0.960 . S
C902 C900 1.381 . S
C902 C903 1.394 . S
C902 H910 0.930 . S
C903 C902 1.394 . S
C903 C904 1.383 . S
C903 H911 0.929 . S
C904 C903 1.383 . S
C904 C905 1.377 . S
C905 H889 0.930 . S
C905 C904 1.377 . S
C905 C906 1.379 . S
C906 H890 0.931 . S
C906 C900 1.383 . S
C906 C905 1.379 . S
H907 C901 0.959 . S
H908 C901 0.961 . S
H909 C901 0.960 . S
H910 C902 0.930 . S
H911 C903 0.929 . S
H912 C920 0.929 . S
H913 C922 0.930 . S
H914 C924 0.930 . S
H915 C927 0.929 . S
H916 C930 0.930 . S
H917 C932 0.960 . S
H918 C932 0.960 . S
H919 C932 0.960 . S
C920 H912 0.929 . S
C920 C921 1.377 . S
C920 C922 1.384 . S
C921 C920 1.377 . S
C921 C927 1.390 . S
C922 H913 0.930 . S
C922 C920 1.384 . S
C922 C923 1.372 . S
C923 C922 1.372 . S
C923 C924 1.400 . S
C923 C928 1.490 . S
C924 H914 0.930 . S
C924 C923 1.400 . S
C924 C927 1.386 . S
H925 C941 0.930 . S
H926 C942 0.931 . S
C927 H915 0.929 . S
C927 C921 1.390 . S
C927 C924 1.386 . S
C928 C923 1.490 . S
C928 C930 1.395 . S
C928 C931 1.403 . S
H929 C935 0.930 . S
C930 H916 0.930 . S
C930 C928 1.395 . S
C930 C933 1.403 . S
C931 C928 1.403 . S
C931 C932 1.524 . S
C931 C935 1.400 . S
C932 H917 0.960 . S
C932 H918 0.960 . S
C932 H919 0.960 . S
C932 C931 1.524 . S
C933 C930 1.403 . S
C933 C934 1.392 . S
C933 C937 1.495 . S
C934 C933 1.392 . S
C934 C935 1.385 . S
C934 C936 1.478 . S
C935 H929 0.930 . S
C935 C931 1.400 . S
C935 C934 1.385 . S
C936 C934 1.478 . S
C936 C938 1.381 . S
C936 C942 1.383 . S
C937 C933 1.495 . S
C937 H943 0.959 . S
C937 H944 0.961 . S
C937 H945 0.960 . S
C938 C936 1.381 . S
C938 C939 1.394 . S
C938 H946 0.930 . S
C939 C938 1.394 . S
C939 C940 1.383 . S
C939 H947 0.929 . S
C940 C939 1.383 . S
C940 C941 1.377 . S
C941 H925 0.930 . S
C941 C940 1.377 . S
C941 C942 1.379 . S
C942 H926 0.931 . S
C942 C936 1.383 . S
C942 C941 1.379 . S
H943 C937 0.959 . S
H944 C937 0.961 . S
H945 C937 0.960 . S
H946 C938 0.930 . S
H947 C939 0.929 . S
H948 C956 0.929 . S
H949 C958 0.930 . S
H950 C960 0.930 . S
H951 C963 0.929 . S
H952 C966 0.930 . S
H953 C968 0.960 . S
H954 C968 0.960 . S
H955 C968 0.960 . S
C956 H948 0.929 . S
C956 C957 1.377 . S
C956 C958 1.384 . S
C957 C956 1.377 . S
C957 C963 1.390 . S
C958 H949 0.930 . S
C958 C956 1.384 . S
C958 C959 1.372 . S
C959 C958 1.372 . S
C959 C960 1.400 . S
C959 C964 1.490 . S
C960 H950 0.930 . S
C960 C959 1.400 . S
C960 C963 1.386 . S
H961 C977 0.930 . S
H962 C978 0.931 . S
C963 H951 0.929 . S
C963 C957 1.390 . S
C963 C960 1.386 . S
C964 C959 1.490 . S
C964 C966 1.395 . S
C964 C967 1.403 . S
H965 C971 0.930 . S
C966 H952 0.930 . S
C966 C964 1.395 . S
C966 C969 1.403 . S
C967 C964 1.403 . S
C967 C968 1.524 . S
C967 C971 1.400 . S
C968 H953 0.960 . S
C968 H954 0.960 . S
C968 H955 0.960 . S
C968 C967 1.524 . S
C969 C966 1.403 . S
C969 C970 1.392 . S
C969 C973 1.495 . S
C970 C969 1.392 . S
C970 C971 1.385 . S
C970 C972 1.478 . S
C971 H965 0.930 . S
C971 C967 1.400 . S
C971 C970 1.385 . S
C972 C970 1.478 . S
C972 C974 1.381 . S
C972 C978 1.383 . S
C973 C969 1.495 . S
C973 H979 0.959 . S
C973 H980 0.961 . S
C973 H981 0.960 . S
C974 C972 1.381 . S
C974 C975 1.394 . S
C974 H982 0.930 . S
C975 C974 1.394 . S
C975 C976 1.383 . S
C975 H983 0.929 . S
C976 C975 1.383 . S
C976 C977 1.377 . S
C977 H961 0.930 . S
C977 C976 1.377 . S
C977 C978 1.379 . S
C978 H962 0.931 . S
C978 C972 1.383 . S
C978 C977 1.379 . S
H979 C973 0.959 . S
H980 C973 0.961 . S
H981 C973 0.960 . S
H982 C974 0.930 . S
H983 C975 0.929 . S
H984 C992 0.929 . S
H985 C994 0.930 . S
H986 C996 0.930 . S
H987 C999 0.929 . S
H988 C1002 0.930 . S
H989 C1004 0.960 . S
H990 C1004 0.960 . S
H991 C1004 0.960 . S
C992 H984 0.929 . S
C992 C993 1.377 . S
C992 C994 1.384 . S
C993 C992 1.377 . S
C993 C999 1.390 . S
C994 H985 0.930 . S
C994 C992 1.384 . S
C994 C995 1.372 . S
C995 C994 1.372 . S
C995 C996 1.400 . S
C995 C1000 1.490 . S
C996 H986 0.930 . S
C996 C995 1.400 . S
C996 C999 1.386 . S
H997 C1013 0.930 . S
H998 C1014 0.931 . S
C999 H987 0.929 . S
C999 C993 1.390 . S
C999 C996 1.386 . S
C1000 C995 1.490 . S
C1000 C1002 1.395 . S
C1000 C1003 1.403 . S
H1001 C1007 0.930 . S
C1002 H988 0.930 . S
C1002 C1000 1.395 . S
C1002 C1005 1.403 . S
C1003 C1000 1.403 . S
C1003 C1004 1.524 . S
C1003 C1007 1.400 . S
C1004 H989 0.960 . S
C1004 H990 0.960 . S
C1004 H991 0.960 . S
C1004 C1003 1.524 . S
C1005 C1002 1.403 . S
C1005 C1006 1.392 . S
C1005 C1009 1.495 . S
C1006 C1005 1.392 . S
C1006 C1007 1.385 . S
C1006 C1008 1.478 . S
C1007 H1001 0.930 . S
C1007 C1003 1.400 . S
C1007 C1006 1.385 . S
C1008 C1006 1.478 . S
C1008 C1010 1.381 . S
C1008 C1014 1.383 . S
C1009 C1005 1.495 . S
C1009 H1015 0.959 . S
C1009 H1016 0.961 . S
C1009 H1017 0.960 . S
C1010 C1008 1.381 . S
C1010 C1011 1.394 . S
C1010 H1018 0.930 . S
C1011 C1010 1.394 . S
C1011 C1012 1.383 . S
C1011 H1019 0.929 . S
C1012 C1011 1.383 . S
C1012 C1013 1.377 . S
C1013 H997 0.930 . S
C1013 C1012 1.377 . S
C1013 C1014 1.379 . S
C1014 H998 0.931 . S
C1014 C1008 1.383 . S
C1014 C1013 1.379 . S
H1015 C1009 0.959 . S
H1016 C1009 0.961 . S
H1017 C1009 0.960 . S
H1018 C1010 0.930 . S
H1019 C1011 0.929 . S
H1020 C1028 0.929 . S
H1021 C1030 0.930 . S
H1022 C1032 0.930 . S
H1023 C1035 0.929 . S
H1024 C1038 0.930 . S
H1025 C1040 0.960 . S
H1026 C1040 0.960 . S
H1027 C1040 0.960 . S
C1028 H1020 0.929 . S
C1028 C1029 1.377 . S
C1028 C1030 1.384 . S
C1029 C1028 1.377 . S
C1029 C1035 1.390 . S
C1030 H1021 0.930 . S
C1030 C1028 1.384 . S
C1030 C1031 1.372 . S
C1031 C1030 1.372 . S
C1031 C1032 1.400 . S
C1031 C1036 1.490 . S
C1032 H1022 0.930 . S
C1032 C1031 1.400 . S
C1032 C1035 1.386 . S
H1033 C1049 0.930 . S
H1034 C1050 0.931 . S
C1035 H1023 0.929 . S
C1035 C1029 1.390 . S
C1035 C1032 1.386 . S
C1036 C1031 1.490 . S
C1036 C1038 1.395 . S
C1036 C1039 1.403 . S
H1037 C1043 0.930 . S
C1038 H1024 0.930 . S
C1038 C1036 1.395 . S
C1038 C1041 1.403 . S
C1039 C1036 1.403 . S
C1039 C1040 1.524 . S
C1039 C1043 1.400 . S
C1040 H1025 0.960 . S
C1040 H1026 0.960 . S
C1040 H1027 0.960 . S
C1040 C1039 1.524 . S
C1041 C1038 1.403 . S
C1041 C1042 1.392 . S
C1041 C1045 1.495 . S
C1042 C1041 1.392 . S
C1042 C1043 1.385 . S
C1042 C1044 1.478 . S
C1043 H1037 0.930 . S
C1043 C1039 1.400 . S
C1043 C1042 1.385 . S
C1044 C1042 1.478 . S
C1044 C1046 1.381 . S
C1044 C1050 1.383 . S
C1045 C1041 1.495 . S
C1045 H1051 0.959 . S
C1045 H1052 0.961 . S
C1045 H1053 0.960 . S
C1046 C1044 1.381 . S
C1046 C1047 1.394 . S
C1046 H1054 0.930 . S
C1047 C1046 1.394 . S
C1047 C1048 1.383 . S
C1047 H1055 0.929 . S
C1048 C1047 1.383 . S
C1048 C1049 1.377 . S
C1049 H1033 0.930 . S
C1049 C1048 1.377 . S
C1049 C1050 1.379 . S
C1050 H1034 0.931 . S
C1050 C1044 1.383 . S
C1050 C1049 1.379 . S
H1051 C1045 0.959 . S
H1052 C1045 0.961 . S
H1053 C1045 0.960 . S
H1054 C1046 0.930 . S
H1055 C1047 0.929 . S
H1056 C1064 0.929 . S
H1057 C1066 0.930 . S
H1058 C1068 0.930 . S
H1059 C1071 0.929 . S
H1060 C1074 0.930 . S
H1061 C1076 0.960 . S
H1062 C1076 0.960 . S
H1063 C1076 0.960 . S
C1064 H1056 0.929 . S
C1064 C1065 1.377 . S
C1064 C1066 1.384 . S
C1065 C1064 1.377 . S
C1065 C1071 1.390 . S
C1066 H1057 0.930 . S
C1066 C1064 1.384 . S
C1066 C1067 1.372 . S
C1067 C1066 1.372 . S
C1067 C1068 1.400 . S
C1067 C1072 1.490 . S
C1068 H1058 0.930 . S
C1068 C1067 1.400 . S
C1068 C1071 1.386 . S
H1069 C1085 0.930 . S
H1070 C1086 0.931 . S
C1071 H1059 0.929 . S
C1071 C1065 1.390 . S
C1071 C1068 1.386 . S
C1072 C1067 1.490 . S
C1072 C1074 1.395 . S
C1072 C1075 1.403 . S
H1073 C1079 0.930 . S
C1074 H1060 0.930 . S
C1074 C1072 1.395 . S
C1074 C1077 1.403 . S
C1075 C1072 1.403 . S
C1075 C1076 1.524 . S
C1075 C1079 1.400 . S
C1076 H1061 0.960 . S
C1076 H1062 0.960 . S
C1076 H1063 0.960 . S
C1076 C1075 1.524 . S
C1077 C1074 1.403 . S
C1077 C1078 1.392 . S
C1077 C1081 1.495 . S
C1078 C1077 1.392 . S
C1078 C1079 1.385 . S
C1078 C1080 1.478 . S
C1079 H1073 0.930 . S
C1079 C1075 1.400 . S
C1079 C1078 1.385 . S
C1080 C1078 1.478 . S
C1080 C1082 1.381 . S
C1080 C1086 1.383 . S
C1081 C1077 1.495 . S
C1081 H1087 0.959 . S
C1081 H1088 0.961 . S
C1081 H1089 0.960 . S
C1082 C1080 1.381 . S
C1082 C1083 1.394 . S
C1082 H1090 0.930 . S
C1083 C1082 1.394 . S
C1083 C1084 1.383 . S
C1083 H1091 0.929 . S
C1084 C1083 1.383 . S
C1084 C1085 1.377 . S
C1085 H1069 0.930 . S
C1085 C1084 1.377 . S
C1085 C1086 1.379 . S
C1086 H1070 0.931 . S
C1086 C1080 1.383 . S
C1086 C1085 1.379 . S
H1087 C1081 0.959 . S
H1088 C1081 0.961 . S
H1089 C1081 0.960 . S
H1090 C1082 0.930 . S
H1091 C1083 0.929 . S
H1092 C1100 0.929 . S
H1093 C1102 0.930 . S
H1094 C1104 0.930 . S
H1095 C1107 0.929 . S
H1096 C1110 0.930 . S
H1097 C1112 0.960 . S
H1098 C1112 0.960 . S
H1099 C1112 0.960 . S
C1100 H1092 0.929 . S
C1100 C1101 1.377 . S
C1100 C1102 1.384 . S
C1101 C1100 1.377 . S
C1101 C1107 1.390 . S
C1102 H1093 0.930 . S
C1102 C1100 1.384 . S
C1102 C1103 1.372 . S
C1103 C1102 1.372 . S
C1103 C1104 1.400 . S
C1103 C1108 1.490 . S
C1104 H1094 0.930 . S
C1104 C1103 1.400 . S
C1104 C1107 1.386 . S
H1105 C1121 0.930 . S
H1106 C1122 0.931 . S
C1107 H1095 0.929 . S
C1107 C1101 1.390 . S
C1107 C1104 1.386 . S
C1108 C1103 1.490 . S
C1108 C1110 1.395 . S
C1108 C1111 1.403 . S
H1109 C1115 0.930 . S
C1110 H1096 0.930 . S
C1110 C1108 1.395 . S
C1110 C1113 1.403 . S
C1111 C1108 1.403 . S
C1111 C1112 1.524 . S
C1111 C1115 1.400 . S
C1112 H1097 0.960 . S
C1112 H1098 0.960 . S
C1112 H1099 0.960 . S
C1112 C1111 1.524 . S
C1113 C1110 1.403 . S
C1113 C1114 1.392 . S
C1113 C1117 1.495 . S
C1114 C1113 1.392 . S
C1114 C1115 1.385 . S
C1114 C1116 1.478 . S
C1115 H1109 0.930 . S
C1115 C1111 1.400 . S
C1115 C1114 1.385 . S
C1116 C1114 1.478 . S
C1116 C1118 1.381 . S
C1116 C1122 1.383 . S
C1117 C1113 1.495 . S
C1117 H1123 0.959 . S
C1117 H1124 0.961 . S
C1117 H1125 0.960 . S
C1118 C1116 1.381 . S
C1118 C1119 1.394 . S
C1118 H1126 0.930 . S
C1119 C1118 1.394 . S
C1119 C1120 1.383 . S
C1119 H1127 0.929 . S
C1120 C1119 1.383 . S
C1120 C1121 1.377 . S
C1121 H1105 0.930 . S
C1121 C1120 1.377 . S
C1121 C1122 1.379 . S
C1122 H1106 0.931 . S
C1122 C1116 1.383 . S
C1122 C1121 1.379 . S
H1123 C1117 0.959 . S
H1124 C1117 0.961 . S
H1125 C1117 0.960 . S
H1126 C1118 0.930 . S
H1127 C1119 0.929 . S
H1128 C1136 0.929 . S
H1129 C1138 0.930 . S
H1130 C1140 0.930 . S
H1131 C1143 0.929 . S
H1132 C1146 0.930 . S
H1133 C1148 0.960 . S
H1134 C1148 0.960 . S
H1135 C1148 0.960 . S
C1136 H1128 0.929 . S
C1136 C1137 1.377 . S
C1136 C1138 1.384 . S
C1137 C1136 1.377 . S
C1137 C1143 1.390 . S
C1138 H1129 0.930 . S
C1138 C1136 1.384 . S
C1138 C1139 1.372 . S
C1139 C1138 1.372 . S
C1139 C1140 1.400 . S
C1139 C1144 1.490 . S
C1140 H1130 0.930 . S
C1140 C1139 1.400 . S
C1140 C1143 1.386 . S
H1141 C1157 0.930 . S
H1142 C1158 0.931 . S
C1143 H1131 0.929 . S
C1143 C1137 1.390 . S
C1143 C1140 1.386 . S
C1144 C1139 1.490 . S
C1144 C1146 1.395 . S
C1144 C1147 1.403 . S
H1145 C1151 0.930 . S
C1146 H1132 0.930 . S
C1146 C1144 1.395 . S
C1146 C1149 1.403 . S
C1147 C1144 1.403 . S
C1147 C1148 1.524 . S
C1147 C1151 1.400 . S
C1148 H1133 0.960 . S
C1148 H1134 0.960 . S
C1148 H1135 0.960 . S
C1148 C1147 1.524 . S
C1149 C1146 1.403 . S
C1149 C1150 1.392 . S
C1149 C1153 1.495 . S
C1150 C1149 1.392 . S
C1150 C1151 1.385 . S
C1150 C1152 1.478 . S
C1151 H1145 0.930 . S
C1151 C1147 1.400 . S
C1151 C1150 1.385 . S
C1152 C1150 1.478 . S
C1152 C1154 1.381 . S
C1152 C1158 1.383 . S
C1153 C1149 1.495 . S
C1153 H1159 0.959 . S
C1153 H1160 0.961 . S
C1153 H1161 0.960 . S
C1154 C1152 1.381 . S
C1154 C1155 1.394 . S
C1154 H1162 0.930 . S
C1155 C1154 1.394 . S
C1155 C1156 1.383 . S
C1155 H1163 0.929 . S
C1156 C1155 1.383 . S
C1156 C1157 1.377 . S
C1157 H1141 0.930 . S
C1157 C1156 1.377 . S
C1157 C1158 1.379 . S
C1158 H1142 0.931 . S
C1158 C1152 1.383 . S
C1158 C1157 1.379 . S
H1159 C1153 0.959 . S
H1160 C1153 0.961 . S
H1161 C1153 0.960 . S
H1162 C1154 0.930 . S
H1163 C1155 0.929 . S
H1164 C1172 0.929 . S
H1165 C1174 0.930 . S
H1166 C1176 0.930 . S
H1167 C1179 0.929 . S
H1168 C1182 0.930 . S
H1169 C1184 0.960 . S
H1170 C1184 0.960 . S
H1171 C1184 0.960 . S
C1172 H1164 0.929 . S
C1172 C1173 1.377 . S
C1172 C1174 1.384 . S
C1173 C1172 1.377 . S
C1173 C1179 1.390 . S
C1174 H1165 0.930 . S
C1174 C1172 1.384 . S
C1174 C1175 1.372 . S
C1175 C1174 1.372 . S
C1175 C1176 1.400 . S
C1175 C1180 1.490 . S
C1176 H1166 0.930 . S
C1176 C1175 1.400 . S
C1176 C1179 1.386 . S
H1177 C1193 0.930 . S
H1178 C1194 0.931 . S
C1179 H1167 0.929 . S
C1179 C1173 1.390 . S
C1179 C1176 1.386 . S
C1180 C1175 1.490 . S
C1180 C1182 1.395 . S
C1180 C1183 1.403 . S
H1181 C1187 0.930 . S
C1182 H1168 0.930 . S
C1182 C1180 1.395 . S
C1182 C1185 1.403 . S
C1183 C1180 1.403 . S
C1183 C1184 1.524 . S
C1183 C1187 1.400 . S
C1184 H1169 0.960 . S
C1184 H1170 0.960 . S
C1184 H1171 0.960 . S
C1184 C1183 1.524 . S
C1185 C1182 1.403 . S
C1185 C1186 1.392 . S
C1185 C1189 1.495 . S
C1186 C1185 1.392 . S
C1186 C1187 1.385 . S
C1186 C1188 1.478 . S
C1187 H1181 0.930 . S
C1187 C1183 1.400 . S
C1187 C1186 1.385 . S
C1188 C1186 1.478 . S
C1188 C1190 1.381 . S
C1188 C1194 1.383 . S
C1189 C1185 1.495 . S
C1189 H1195 0.959 . S
C1189 H1196 0.961 . S
C1189 H1197 0.960 . S
C1190 C1188 1.381 . S
C1190 C1191 1.394 . S
C1190 H1198 0.930 . S
C1191 C1190 1.394 . S
C1191 C1192 1.383 . S
C1191 H1199 0.929 . S
C1192 C1191 1.383 . S
C1192 C1193 1.377 . S
C1193 H1177 0.930 . S
C1193 C1192 1.377 . S
C1193 C1194 1.379 . S
C1194 H1178 0.931 . S
C1194 C1188 1.383 . S
C1194 C1193 1.379 . S
H1195 C1189 0.959 . S
H1196 C1189 0.961 . S
H1197 C1189 0.960 . S
H1198 C1190 0.930 . S
H1199 C1191 0.929 . S
H1200 C1208 0.929 . S
H1201 C1210 0.930 . S
H1202 C1212 0.930 . S
H1203 C1215 0.929 . S
H1204 C1218 0.930 . S
H1205 C1220 0.960 . S
H1206 C1220 0.960 . S
H1207 C1220 0.960 . S
C1208 H1200 0.929 . S
C1208 C1209 1.377 . S
C1208 C1210 1.384 . S
C1209 C1208 1.377 . S
C1209 C1215 1.390 . S
C1210 H1201 0.930 . S
C1210 C1208 1.384 . S
C1210 C1211 1.372 . S
C1211 C1210 1.372 . S
C1211 C1212 1.400 . S
C1211 C1216 1.490 . S
C1212 H1202 0.930 . S
C1212 C1211 1.400 . S
C1212 C1215 1.386 . S
H1213 C1229 0.930 . S
H1214 C1230 0.931 . S
C1215 H1203 0.929 . S
C1215 C1209 1.390 . S
C1215 C1212 1.386 . S
C1216 C1211 1.490 . S
C1216 C1218 1.395 . S
C1216 C1219 1.403 . S
H1217 C1223 0.930 . S
C1218 H1204 0.930 . S
C1218 C1216 1.395 . S
C1218 C1221 1.403 . S
C1219 C1216 1.403 . S
C1219 C1220 1.524 . S
C1219 C1223 1.400 . S
C1220 H1205 0.960 . S
C1220 H1206 0.960 . S
C1220 H1207 0.960 . S
C1220 C1219 1.524 . S
C1221 C1218 1.403 . S
C1221 C1222 1.392 . S
C1221 C1225 1.495 . S
C1222 C1221 1.392 . S
C1222 C1223 1.385 . S
C1222 C1224 1.478 . S
C1223 H1217 0.930 . S
C1223 C1219 1.400 . S
C1223 C1222 1.385 . S
C1224 C1222 1.478 . S
C1224 C1226 1.381 . S
C1224 C1230 1.383 . S
C1225 C1221 1.495 . S
C1225 H1231 0.959 . S
C1225 H1232 0.961 . S
C1225 H1233 0.960 . S
C1226 C1224 1.381 . S
C1226 C1227 1.394 . S
C1226 H1234 0.930 . S
C1227 C1226 1.394 . S
C1227 C1228 1.383 . S
C1227 H1235 0.929 . S
C1228 C1227 1.383 . S
C1228 C1229 1.377 . S
C1229 H1213 0.930 . S
C1229 C1228 1.377 . S
C1229 C1230 1.379 . S
C1230 H1214 0.931 . S
C1230 C1224 1.383 . S
C1230 C1229 1.379 . S
H1231 C1225 0.959 . S
H1232 C1225 0.961 . S
H1233 C1225 0.960 . S
H1234 C1226 0.930 . S
H1235 C1227 0.929 . S
H1236 C1244 0.929 . S
H1237 C1246 0.930 . S
H1238 C1248 0.930 . S
H1239 C1251 0.929 . S
H1240 C1254 0.930 . S
H1241 C1256 0.960 . S
H1242 C1256 0.960 . S
H1243 C1256 0.960 . S
C1244 H1236 0.929 . S
C1244 C1245 1.377 . S
C1244 C1246 1.384 . S
C1245 C1244 1.377 . S
C1245 C1251 1.390 . S
C1246 H1237 0.930 . S
C1246 C1244 1.384 . S
C1246 C1247 1.372 . S
C1247 C1246 1.372 . S
C1247 C1248 1.400 . S
C1247 C1252 1.490 . S
C1248 H1238 0.930 . S
C1248 C1247 1.400 . S
C1248 C1251 1.386 . S
H1249 C1265 0.930 . S
H1250 C1266 0.931 . S
C1251 H1239 0.929 . S
C1251 C1245 1.390 . S
C1251 C1248 1.386 . S
C1252 C1247 1.490 . S
C1252 C1254 1.395 . S
C1252 C1255 1.403 . S
H1253 C1259 0.930 . S
C1254 H1240 0.930 . S
C1254 C1252 1.395 . S
C1254 C1257 1.403 . S
C1255 C1252 1.403 . S
C1255 C1256 1.524 . S
C1255 C1259 1.400 . S
C1256 H1241 0.960 . S
C1256 H1242 0.960 . S
C1256 H1243 0.960 . S
C1256 C1255 1.524 . S
C1257 C1254 1.403 . S
C1257 C1258 1.392 . S
C1257 C1261 1.495 . S
C1258 C1257 1.392 . S
C1258 C1259 1.385 . S
C1258 C1260 1.478 . S
C1259 H1253 0.930 . S
C1259 C1255 1.400 . S
C1259 C1258 1.385 . S
C1260 C1258 1.478 . S
C1260 C1262 1.381 . S
C1260 C1266 1.383 . S
C1261 C1257 1.495 . S
C1261 H1267 0.959 . S
C1261 H1268 0.961 . S
C1261 H1269 0.960 . S
C1262 C1260 1.381 . S
C1262 C1263 1.394 . S
C1262 H1270 0.930 . S
C1263 C1262 1.394 . S
C1263 C1264 1.383 . S
C1263 H1271 0.929 . S
C1264 C1263 1.383 . S
C1264 C1265 1.377 . S
C1265 H1249 0.930 . S
C1265 C1264 1.377 . S
C1265 C1266 1.379 . S
C1266 H1250 0.931 . S
C1266 C1260 1.383 . S
C1266 C1265 1.379 . S
H1267 C1261 0.959 . S
H1268 C1261 0.961 . S
H1269 C1261 0.960 . S
H1270 C1262 0.930 . S
H1271 C1263 0.929 . S
H1272 C1280 0.929 . S
H1273 C1282 0.930 . S
H1274 C1284 0.930 . S
H1275 C1287 0.929 . S
H1276 C1290 0.930 . S
H1277 C1292 0.960 . S
H1278 C1292 0.960 . S
H1279 C1292 0.960 . S
C1280 H1272 0.929 . S
C1280 C1281 1.377 . S
C1280 C1282 1.384 . S
C1281 C1280 1.377 . S
C1281 C1287 1.390 . S
C1282 H1273 0.930 . S
C1282 C1280 1.384 . S
C1282 C1283 1.372 . S
C1283 C1282 1.372 . S
C1283 C1284 1.400 . S
C1283 C1288 1.490 . S
C1284 H1274 0.930 . S
C1284 C1283 1.400 . S
C1284 C1287 1.386 . S
H1285 C1301 0.930 . S
H1286 C1302 0.931 . S
C1287 H1275 0.929 . S
C1287 C1281 1.390 . S
C1287 C1284 1.386 . S
C1288 C1283 1.490 . S
C1288 C1290 1.395 . S
C1288 C1291 1.403 . S
H1289 C1295 0.930 . S
C1290 H1276 0.930 . S
C1290 C1288 1.395 . S
C1290 C1293 1.403 . S
C1291 C1288 1.403 . S
C1291 C1292 1.524 . S
C1291 C1295 1.400 . S
C1292 H1277 0.960 . S
C1292 H1278 0.960 . S
C1292 H1279 0.960 . S
C1292 C1291 1.524 . S
C1293 C1290 1.403 . S
C1293 C1294 1.392 . S
C1293 C1297 1.495 . S
C1294 C1293 1.392 . S
C1294 C1295 1.385 . S
C1294 C1296 1.478 . S
C1295 H1289 0.930 . S
C1295 C1291 1.400 . S
C1295 C1294 1.385 . S
C1296 C1294 1.478 . S
C1296 C1298 1.381 . S
C1296 C1302 1.383 . S
C1297 C1293 1.495 . S
C1297 H1303 0.959 . S
C1297 H1304 0.961 . S
C1297 H1305 0.960 . S
C1298 C1296 1.381 . S
C1298 C1299 1.394 . S
C1298 H1306 0.930 . S
C1299 C1298 1.394 . S
C1299 C1300 1.383 . S
C1299 H1307 0.929 . S
C1300 C1299 1.383 . S
C1300 C1301 1.377 . S
C1301 H1285 0.930 . S
C1301 C1300 1.377 . S
C1301 C1302 1.379 . S
C1302 H1286 0.931 . S
C1302 C1296 1.383 . S
C1302 C1301 1.379 . S
H1303 C1297 0.959 . S
H1304 C1297 0.961 . S
H1305 C1297 0.960 . S
H1306 C1298 0.930 . S
H1307 C1299 0.929 . S
H1308 C1316 0.929 . S
H1309 C1318 0.930 . S
H1310 C1320 0.930 . S
H1311 C1323 0.929 . S
H1312 C1326 0.930 . S
H1313 C1328 0.960 . S
H1314 C1328 0.960 . S
H1315 C1328 0.960 . S
C1316 H1308 0.929 . S
C1316 C1317 1.377 . S
C1316 C1318 1.384 . S
C1317 C1316 1.377 . S
C1317 C1323 1.390 . S
C1318 H1309 0.930 . S
C1318 C1316 1.384 . S
C1318 C1319 1.372 . S
C1319 C1318 1.372 . S
C1319 C1320 1.400 . S
C1319 C1324 1.490 . S
C1320 H1310 0.930 . S
C1320 C1319 1.400 . S
C1320 C1323 1.386 . S
H1321 C1337 0.930 . S
H1322 C1338 0.931 . S
C1323 H1311 0.929 . S
C1323 C1317 1.390 . S
C1323 C1320 1.386 . S
C1324 C1319 1.490 . S
C1324 C1326 1.395 . S
C1324 C1327 1.403 . S
H1325 C1331 0.930 . S
C1326 H1312 0.930 . S
C1326 C1324 1.395 . S
C1326 C1329 1.403 . S
C1327 C1324 1.403 . S
C1327 C1328 1.524 . S
C1327 C1331 1.400 . S
C1328 H1313 0.960 . S
C1328 H1314 0.960 . S
C1328 H1315 0.960 . S
C1328 C1327 1.524 . S
C1329 C1326 1.403 . S
C1329 C1330 1.392 . S
C1329 C1333 1.495 . S
C1330 C1329 1.392 . S
C1330 C1331 1.385 . S
C1330 C1332 1.478 . S
C1331 H1325 0.930 . S
C1331 C1327 1.400 . S
C1331 C1330 1.385 . S
C1332 C1330 1.478 . S
C1332 C1334 1.381 . S
C1332 C1338 1.383 . S
C1333 C1329 1.495 . S
C1333 H1339 0.959 . S
C1333 H1340 0.961 . S
C1333 H1341 0.960 . S
C1334 C1332 1.381 . S
C1334 C1335 1.394 . S
C1334 H1342 0.930 . S
C1335 C1334 1.394 . S
C1335 C1336 1.383 . S
C1335 H1343 0.929 . S
C1336 C1335 1.383 . S
C1336 C1337 1.377 . S
C1337 H1321 0.930 . S
C1337 C1336 1.377 . S
C1337 C1338 1.379 . S
C1338 H1322 0.931 . S
C1338 C1332 1.383 . S
C1338 C1337 1.379 . S
H1339 C1333 0.959 . S
H1340 C1333 0.961 . S
H1341 C1333 0.960 . S
H1342 C1334 0.930 . S
H1343 C1335 0.929 . S
H1344 C1352 0.929 . S
H1345 C1354 0.930 . S
H1346 C1356 0.930 . S
H1347 C1359 0.929 . S
H1348 C1362 0.930 . S
H1349 C1364 0.960 . S
H1350 C1364 0.960 . S
H1351 C1364 0.960 . S
C1352 H1344 0.929 . S
C1352 C1353 1.377 . S
C1352 C1354 1.384 . S
C1353 C1352 1.377 . S
C1353 C1359 1.390 . S
C1354 H1345 0.930 . S
C1354 C1352 1.384 . S
C1354 C1355 1.372 . S
C1355 C1354 1.372 . S
C1355 C1356 1.400 . S
C1355 C1360 1.490 . S
C1356 H1346 0.930 . S
C1356 C1355 1.400 . S
C1356 C1359 1.386 . S
H1357 C1373 0.930 . S
H1358 C1374 0.931 . S
C1359 H1347 0.929 . S
C1359 C1353 1.390 . S
C1359 C1356 1.386 . S
C1360 C1355 1.490 . S
C1360 C1362 1.395 . S
C1360 C1363 1.403 . S
H1361 C1367 0.930 . S
C1362 H1348 0.930 . S
C1362 C1360 1.395 . S
C1362 C1365 1.403 . S
C1363 C1360 1.403 . S
C1363 C1364 1.524 . S
C1363 C1367 1.400 . S
C1364 H1349 0.960 . S
C1364 H1350 0.960 . S
C1364 H1351 0.960 . S
C1364 C1363 1.524 . S
C1365 C1362 1.403 . S
C1365 C1366 1.392 . S
C1365 C1369 1.495 . S
C1366 C1365 1.392 . S
C1366 C1367 1.385 . S
C1366 C1368 1.478 . S
C1367 H1361 0.930 . S
C1367 C1363 1.400 . S
C1367 C1366 1.385 . S
C1368 C1366 1.478 . S
C1368 C1370 1.381 . S
C1368 C1374 1.383 . S
C1369 C1365 1.495 . S
C1369 H1375 0.959 . S
C1369 H1376 0.961 . S
C1369 H1377 0.960 . S
C1370 C1368 1.381 . S
C1370 C1371 1.394 . S
C1370 H1378 0.930 . S
C1371 C1370 1.394 . S
C1371 C1372 1.383 . S
C1371 H1379 0.929 . S
C1372 C1371 1.383 . S
C1372 C1373 1.377 . S
C1373 H1357 0.930 . S
C1373 C1372 1.377 . S
C1373 C1374 1.379 . S
C1374 H1358 0.931 . S
C1374 C1368 1.383 . S
C1374 C1373 1.379 . S
H1375 C1369 0.959 . S
H1376 C1369 0.961 . S
H1377 C1369 0.960 . S
H1378 C1370 0.930 . S
H1379 C1371 0.929 . S
H1380 C1388 0.929 . S
H1381 C1390 0.930 . S
H1382 C1392 0.930 . S
H1383 C1395 0.929 . S
H1384 C1398 0.930 . S
H1385 C1400 0.960 . S
H1386 C1400 0.960 . S
H1387 C1400 0.960 . S
C1388 H1380 0.929 . S
C1388 C1389 1.377 . S
C1388 C1390 1.384 . S
C1389 C1388 1.377 . S
C1389 C1395 1.390 . S
C1390 H1381 0.930 . S
C1390 C1388 1.384 . S
C1390 C1391 1.372 . S
C1391 C1390 1.372 . S
C1391 C1392 1.400 . S
C1391 C1396 1.490 . S
C1392 H1382 0.930 . S
C1392 C1391 1.400 . S
C1392 C1395 1.386 . S
H1393 C1409 0.930 . S
H1394 C1410 0.931 . S
C1395 H1383 0.929 . S
C1395 C1389 1.390 . S
C1395 C1392 1.386 . S
C1396 C1391 1.490 . S
C1396 C1398 1.395 . S
C1396 C1399 1.403 . S
H1397 C1403 0.930 . S
C1398 H1384 0.930 . S
C1398 C1396 1.395 . S
C1398 C1401 1.403 . S
C1399 C1396 1.403 . S
C1399 C1400 1.524 . S
C1399 C1403 1.400 . S
C1400 H1385 0.960 . S
C1400 H1386 0.960 . S
C1400 H1387 0.960 . S
C1400 C1399 1.524 . S
C1401 C1398 1.403 . S
C1401 C1402 1.392 . S
C1401 C1405 1.495 . S
C1402 C1401 1.392 . S
C1402 C1403 1.385 . S
C1402 C1404 1.478 . S
C1403 H1397 0.930 . S
C1403 C1399 1.400 . S
C1403 C1402 1.385 . S
C1404 C1402 1.478 . S
C1404 C1406 1.381 . S
C1404 C1410 1.383 . S
C1405 C1401 1.495 . S
C1405 H1411 0.959 . S
C1405 H1412 0.961 . S
C1405 H1413 0.960 . S
C1406 C1404 1.381 . S
C1406 C1407 1.394 . S
C1406 H1414 0.930 . S
C1407 C1406 1.394 . S
C1407 C1408 1.383 . S
C1407 H1415 0.929 . S
C1408 C1407 1.383 . S
C1408 C1409 1.377 . S
C1409 H1393 0.930 . S
C1409 C1408 1.377 . S
C1409 C1410 1.379 . S
C1410 H1394 0.931 . S
C1410 C1404 1.383 . S
C1410 C1409 1.379 . S
H1411 C1405 0.959 . S
H1412 C1405 0.961 . S
H1413 C1405 0.960 . S
H1414 C1406 0.930 . S
H1415 C1407 0.929 . S
H1416 C1424 0.929 . S
H1417 C1426 0.930 . S
H1418 C1428 0.930 . S
H1419 C1431 0.929 . S
H1420 C1434 0.930 . S
H1421 C1436 0.960 . S
H1422 C1436 0.960 . S
H1423 C1436 0.960 . S
C1424 H1416 0.929 . S
C1424 C1425 1.377 . S
C1424 C1426 1.384 . S
C1425 C1424 1.377 . S
C1425 C1431 1.390 . S
C1426 H1417 0.930 . S
C1426 C1424 1.384 . S
C1426 C1427 1.372 . S
C1427 C1426 1.372 . S
C1427 C1428 1.400 . S
C1427 C1432 1.490 . S
C1428 H1418 0.930 . S
C1428 C1427 1.400 . S
C1428 C1431 1.386 . S
H1429 C1445 0.930 . S
H1430 C1446 0.931 . S
C1431 H1419 0.929 . S
C1431 C1425 1.390 . S
C1431 C1428 1.386 . S
C1432 C1427 1.490 . S
C1432 C1434 1.395 . S
C1432 C1435 1.403 . S
H1433 C1439 0.930 . S
C1434 H1420 0.930 . S
C1434 C1432 1.395 . S
C1434 C1437 1.403 . S
C1435 C1432 1.403 . S
C1435 C1436 1.524 . S
C1435 C1439 1.400 . S
C1436 H1421 0.960 . S
C1436 H1422 0.960 . S
C1436 H1423 0.960 . S
C1436 C1435 1.524 . S
C1437 C1434 1.403 . S
C1437 C1438 1.392 . S
C1437 C1441 1.495 . S
C1438 C1437 1.392 . S
C1438 C1439 1.385 . S
C1438 C1440 1.478 . S
C1439 H1433 0.930 . S
C1439 C1435 1.400 . S
C1439 C1438 1.385 . S
C1440 C1438 1.478 . S
C1440 C1442 1.381 . S
C1440 C1446 1.383 . S
C1441 C1437 1.495 . S
C1441 H1447 0.959 . S
C1441 H1448 0.961 . S
C1441 H1449 0.960 . S
C1442 C1440 1.381 . S
C1442 C1443 1.394 . S
C1442 H1450 0.930 . S
C1443 C1442 1.394 . S
C1443 C1444 1.383 . S
C1443 H1451 0.929 . S
C1444 C1443 1.383 . S
C1444 C1445 1.377 . S
C1445 H1429 0.930 . S
C1445 C1444 1.377 . S
C1445 C1446 1.379 . S
C1446 H1430 0.931 . S
C1446 C1440 1.383 . S
C1446 C1445 1.379 . S
H1447 C1441 0.959 . S
H1448 C1441 0.961 . S
H1449 C1441 0.960 . S
H1450 C1442 0.930 . S
H1451 C1443 0.929 . S
H1452 C1460 0.929 . S
H1453 C1462 0.930 . S
H1454 C1464 0.930 . S
H1455 C1467 0.929 . S
H1456 C1470 0.930 . S
H1457 C1472 0.960 . S
H1458 C1472 0.960 . S
H1459 C1472 0.960 . S
C1460 H1452 0.929 . S
C1460 C1461 1.377 . S
C1460 C1462 1.384 . S
C1461 C1460 1.377 . S
C1461 C1467 1.390 . S
C1462 H1453 0.930 . S
C1462 C1460 1.384 . S
C1462 C1463 1.372 . S
C1463 C1462 1.372 . S
C1463 C1464 1.400 . S
C1463 C1468 1.490 . S
C1464 H1454 0.930 . S
C1464 C1463 1.400 . S
C1464 C1467 1.386 . S
H1465 C1481 0.930 . S
H1466 C1482 0.931 . S
C1467 H1455 0.929 . S
C1467 C1461 1.390 . S
C1467 C1464 1.386 . S
C1468 C1463 1.490 . S
C1468 C1470 1.395 . S
C1468 C1471 1.403 . S
H1469 C1475 0.930 . S
C1470 H1456 0.930 . S
C1470 C1468 1.395 . S
C1470 C1473 1.403 . S
C1471 C1468 1.403 . S
C1471 C1472 1.524 . S
C1471 C1475 1.400 . S
C1472 H1457 0.960 . S
C1472 H1458 0.960 . S
C1472 H1459 0.960 . S
C1472 C1471 1.524 . S
C1473 C1470 1.403 . S
C1473 C1474 1.392 . S
C1473 C1477 1.495 . S
C1474 C1473 1.392 . S
C1474 C1475 1.385 . S
C1474 C1476 1.478 . S
C1475 H1469 0.930 . S
C1475 C1471 1.400 . S
C1475 C1474 1.385 . S
C1476 C1474 1.478 . S
C1476 C1478 1.381 . S
C1476 C1482 1.383 . S
C1477 C1473 1.495 . S
C1477 H1483 0.959 . S
C1477 H1484 0.961 . S
C1477 H1485 0.960 . S
C1478 C1476 1.381 . S
C1478 C1479 1.394 . S
C1478 H1486 0.930 . S
C1479 C1478 1.394 . S
C1479 C1480 1.383 . S
C1479 H1487 0.929 . S
C1480 C1479 1.383 . S
C1480 C1481 1.377 . S
C1481 H1465 0.930 . S
C1481 C1480 1.377 . S
C1481 C1482 1.379 . S
C1482 H1466 0.931 . S
C1482 C1476 1.383 . S
C1482 C1481 1.379 . S
H1483 C1477 0.959 . S
H1484 C1477 0.961 . S
H1485 C1477 0.960 . S
H1486 C1478 0.930 . S
H1487 C1479 0.929 . S
H1488 C1496 0.929 . S
H1489 C1498 0.930 . S
H1490 C1500 0.930 . S
H1491 C1503 0.929 . S
H1492 C1506 0.930 . S
H1493 C1508 0.960 . S
H1494 C1508 0.960 . S
H1495 C1508 0.960 . S
C1496 H1488 0.929 . S
C1496 C1497 1.377 . S
C1496 C1498 1.384 . S
C1497 C1496 1.377 . S
C1497 C1503 1.390 . S
C1498 H1489 0.930 . S
C1498 C1496 1.384 . S
C1498 C1499 1.372 . S
C1499 C1498 1.372 . S
C1499 C1500 1.400 . S
C1499 C1504 1.490 . S
C1500 H1490 0.930 . S
C1500 C1499 1.400 . S
C1500 C1503 1.386 . S
H1501 C1517 0.930 . S
H1502 C1518 0.931 . S
C1503 H1491 0.929 . S
C1503 C1497 1.390 . S
C1503 C1500 1.386 . S
C1504 C1499 1.490 . S
C1504 C1506 1.395 . S
C1504 C1507 1.403 . S
H1505 C1511 0.930 . S
C1506 H1492 0.930 . S
C1506 C1504 1.395 . S
C1506 C1509 1.403 . S
C1507 C1504 1.403 . S
C1507 C1508 1.524 . S
C1507 C1511 1.400 . S
C1508 H1493 0.960 . S
C1508 H1494 0.960 . S
C1508 H1495 0.960 . S
C1508 C1507 1.524 . S
C1509 C1506 1.403 . S
C1509 C1510 1.392 . S
C1509 C1513 1.495 . S
C1510 C1509 1.392 . S
C1510 C1511 1.385 . S
C1510 C1512 1.478 . S
C1511 H1505 0.930 . S
C1511 C1507 1.400 . S
C1511 C1510 1.385 . S
C1512 C1510 1.478 . S
C1512 C1514 1.381 . S
C1512 C1518 1.383 . S
C1513 C1509 1.495 . S
C1513 H1519 0.959 . S
C1513 H1520 0.961 . S
C1513 H1521 0.960 . S
C1514 C1512 1.381 . S
C1514 C1515 1.394 . S
C1514 H1522 0.930 . S
C1515 C1514 1.394 . S
C1515 C1516 1.383 . S
C1515 H1523 0.929 . S
C1516 C1515 1.383 . S
C1516 C1517 1.377 . S
C1517 H1501 0.930 . S
C1517 C1516 1.377 . S
C1517 C1518 1.379 . S
C1518 H1502 0.931 . S
C1518 C1512 1.383 . S
C1518 C1517 1.379 . S
H1519 C1513 0.959 . S
H1520 C1513 0.961 . S
H1521 C1513 0.960 . S
H1522 C1514 0.930 . S
H1523 C1515 0.929 . S
H1524 C1532 0.929 . S
H1525 C1534 0.930 . S
H1526 C1536 0.930 . S
H1527 C1539 0.929 . S
H1528 C1542 0.930 . S
H1529 C1544 0.960 . S
H1530 C1544 0.960 . S
H1531 C1544 0.960 . S
C1532 H1524 0.929 . S
C1532 C1533 1.377 . S
C1532 C1534 1.384 . S
C1533 C1532 1.377 . S
C1533 C1539 1.390 . S
C1534 H1525 0.930 . S
C1534 C1532 1.384 . S
C1534 C1535 1.372 . S
C1535 C1534 1.372 . S
C1535 C1536 1.400 . S
C1535 C1540 1.490 . S
C1536 H1526 0.930 . S
C1536 C1535 1.400 . S
C1536 C1539 1.386 . S
H1537 C1553 0.930 . S
H1538 C1554 0.931 . S
C1539 H1527 0.929 . S
C1539 C1533 1.390 . S
C1539 C1536 1.386 . S
C1540 C1535 1.490 . S
C1540 C1542 1.395 . S
C1540 C1543 1.403 . S
H1541 C1547 0.930 . S
C1542 H1528 0.930 . S
C1542 C1540 1.395 . S
C1542 C1545 1.403 . S
C1543 C1540 1.403 . S
C1543 C1544 1.524 . S
C1543 C1547 1.400 . S
C1544 H1529 0.960 . S
C1544 H1530 0.960 . S
C1544 H1531 0.960 . S
C1544 C1543 1.524 . S
C1545 C1542 1.403 . S
C1545 C1546 1.392 . S
C1545 C1549 1.495 . S
C1546 C1545 1.392 . S
C1546 C1547 1.385 . S
C1546 C1548 1.478 . S
C1547 H1541 0.930 . S
C1547 C1543 1.400 . S
C1547 C1546 1.385 . S
C1548 C1546 1.478 . S
C1548 C1550 1.381 . S
C1548 C1554 1.383 . S
C1549 C1545 1.495 . S
C1549 H1555 0.959 . S
C1549 H1556 0.961 . S
C1549 H1557 0.960 . S
C1550 C1548 1.381 . S
C1550 C1551 1.394 . S
C1550 H1558 0.930 . S
C1551 C1550 1.394 . S
C1551 C1552 1.383 . S
C1551 H1559 0.929 . S
C1552 C1551 1.383 . S
C1552 C1553 1.377 . S
C1553 H1537 0.930 . S
C1553 C1552 1.377 . S
C1553 C1554 1.379 . S
C1554 H1538 0.931 . S
C1554 C1548 1.383 . S
C1554 C1553 1.379 . S
H1555 C1549 0.959 . S
H1556 C1549 0.961 . S
H1557 C1549 0.960 . S
H1558 C1550 0.930 . S
H1559 C1551 0.929 . S
H1560 C1568 0.929 . S
H1561 C1570 0.930 . S
H1562 C1572 0.930 . S
H1563 C1575 0.929 . S
H1564 C1578 0.930 . S
H1565 C1580 0.960 . S
H1566 C1580 0.960 . S
H1567 C1580 0.960 . S
C1568 H1560 0.929 . S
C1568 C1569 1.377 . S
C1568 C1570 1.384 . S
C1569 C1568 1.377 . S
C1569 C1575 1.390 . S
C1570 H1561 0.930 . S
C1570 C1568 1.384 . S
C1570 C1571 1.372 . S
C1571 C1570 1.372 . S
C1571 C1572 1.400 . S
C1571 C1576 1.490 . S
C1572 H1562 0.930 . S
C1572 C1571 1.400 . S
C1572 C1575 1.386 . S
H1573 C1589 0.930 . S
H1574 C1590 0.931 . S
C1575 H1563 0.929 . S
C1575 C1569 1.390 . S
C1575 C1572 1.386 . S
C1576 C1571 1.490 . S
C1576 C1578 1.395 . S
C1576 C1579 1.403 . S
H1577 C1583 0.930 . S
C1578 H1564 0.930 . S
C1578 C1576 1.395 . S
C1578 C1581 1.403 . S
C1579 C1576 1.403 . S
C1579 C1580 1.524 . S
C1579 C1583 1.400 . S
C1580 H1565 0.960 . S
C1580 H1566 0.960 . S
C1580 H1567 0.960 . S
C1580 C1579 1.524 . S
C1581 C1578 1.403 . S
C1581 C1582 1.392 . S
C1581 C1585 1.495 . S
C1582 C1581 1.392 . S
C1582 C1583 1.385 . S
C1582 C1584 1.478 . S
C1583 H1577 0.930 . S
C1583 C1579 1.400 . S
C1583 C1582 1.385 . S
C1584 C1582 1.478 . S
C1584 C1586 1.381 . S
C1584 C1590 1.383 . S
C1585 C1581 1.495 . S
C1585 H1591 0.959 . S
C1585 H1592 0.961 . S
C1585 H1593 0.960 . S
C1586 C1584 1.381 . S
C1586 C1587 1.394 . S
C1586 H1594 0.930 . S
C1587 C1586 1.394 . S
C1587 C1588 1.383 . S
C1587 H1595 0.929 . S
C1588 C1587 1.383 . S
C1588 C1589 1.377 . S
C1589 H1573 0.930 . S
C1589 C1588 1.377 . S
C1589 C1590 1.379 . S
C1590 H1574 0.931 . S
C1590 C1584 1.383 . S
C1590 C1589 1.379 . S
H1591 C1585 0.959 . S
H1592 C1585 0.961 . S
H1593 C1585 0.960 . S
H1594 C1586 0.930 . S
H1595 C1587 0.929 . S
H1596 C1604 0.929 . S
H1597 C1606 0.930 . S
H1598 C1608 0.930 . S
H1599 C1611 0.929 . S
H1600 C1614 0.930 . S
H1601 C1616 0.960 . S
H1602 C1616 0.960 . S
H1603 C1616 0.960 . S
C1604 H1596 0.929 . S
C1604 C1605 1.377 . S
C1604 C1606 1.384 . S
C1605 C1604 1.377 . S
C1605 C1611 1.390 . S
C1606 H1597 0.930 . S
C1606 C1604 1.384 . S
C1606 C1607 1.372 . S
C1607 C1606 1.372 . S
C1607 C1608 1.400 . S
C1607 C1612 1.490 . S
C1608 H1598 0.930 . S
C1608 C1607 1.400 . S
C1608 C1611 1.386 . S
H1609 C1625 0.930 . S
H1610 C1626 0.931 . S
C1611 H1599 0.929 . S
C1611 C1605 1.390 . S
C1611 C1608 1.386 . S
C1612 C1607 1.490 . S
C1612 C1614 1.395 . S
C1612 C1615 1.403 . S
H1613 C1619 0.930 . S
C1614 H1600 0.930 . S
C1614 C1612 1.395 . S
C1614 C1617 1.403 . S
C1615 C1612 1.403 . S
C1615 C1616 1.524 . S
C1615 C1619 1.400 . S
C1616 H1601 0.960 . S
C1616 H1602 0.960 . S
C1616 H1603 0.960 . S
C1616 C1615 1.524 . S
C1617 C1614 1.403 . S
C1617 C1618 1.392 . S
C1617 C1621 1.495 . S
C1618 C1617 1.392 . S
C1618 C1619 1.385 . S
C1618 C1620 1.478 . S
C1619 H1613 0.930 . S
C1619 C1615 1.400 . S
C1619 C1618 1.385 . S
C1620 C1618 1.478 . S
C1620 C1622 1.381 . S
C1620 C1626 1.383 . S
C1621 C1617 1.495 . S
C1621 H1627 0.959 . S
C1621 H1628 0.961 . S
C1621 H1629 0.960 . S
C1622 C1620 1.381 . S
C1622 C1623 1.394 . S
C1622 H1630 0.930 . S
C1623 C1622 1.394 . S
C1623 C1624 1.383 . S
C1623 H1631 0.929 . S
C1624 C1623 1.383 . S
C1624 C1625 1.377 . S
C1625 H1609 0.930 . S
C1625 C1624 1.377 . S
C1625 C1626 1.379 . S
C1626 H1610 0.931 . S
C1626 C1620 1.383 . S
C1626 C1625 1.379 . S
H1627 C1621 0.959 . S
H1628 C1621 0.961 . S
H1629 C1621 0.960 . S
H1630 C1622 0.930 . S
H1631 C1623 0.929 . S
H1632 C1640 0.929 . S
H1633 C1642 0.930 . S
H1634 C1644 0.930 . S
H1635 C1647 0.929 . S
H1636 C1650 0.930 . S
H1637 C1652 0.960 . S
H1638 C1652 0.960 . S
H1639 C1652 0.960 . S
C1640 H1632 0.929 . S
C1640 C1641 1.377 . S
C1640 C1642 1.384 . S
C1641 C1640 1.377 . S
C1641 C1647 1.390 . S
C1642 H1633 0.930 . S
C1642 C1640 1.384 . S
C1642 C1643 1.372 . S
C1643 C1642 1.372 . S
C1643 C1644 1.400 . S
C1643 C1648 1.490 . S
C1644 H1634 0.930 . S
C1644 C1643 1.400 . S
C1644 C1647 1.386 . S
H1645 C1661 0.930 . S
H1646 C1662 0.931 . S
C1647 H1635 0.929 . S
C1647 C1641 1.390 . S
C1647 C1644 1.386 . S
C1648 C1643 1.490 . S
C1648 C1650 1.395 . S
C1648 C1651 1.403 . S
H1649 C1655 0.930 . S
C1650 H1636 0.930 . S
C1650 C1648 1.395 . S
C1650 C1653 1.403 . S
C1651 C1648 1.403 . S
C1651 C1652 1.524 . S
C1651 C1655 1.400 . S
C1652 H1637 0.960 . S
C1652 H1638 0.960 . S
C1652 H1639 0.960 . S
C1652 C1651 1.524 . S
C1653 C1650 1.403 . S
C1653 C1654 1.392 . S
C1653 C1657 1.495 . S
C1654 C1653 1.392 . S
C1654 C1655 1.385 . S
C1654 C1656 1.478 . S
C1655 H1649 0.930 . S
C1655 C1651 1.400 . S
C1655 C1654 1.385 . S
C1656 C1654 1.478 . S
C1656 C1658 1.381 . S
C1656 C1662 1.383 . S
C1657 C1653 1.495 . S
C1657 H1663 0.959 . S
C1657 H1664 0.961 . S
C1657 H1665 0.960 . S
C1658 C1656 1.381 . S
C1658 C1659 1.394 . S
C1658 H1666 0.930 . S
C1659 C1658 1.394 . S
C1659 C1660 1.383 . S
C1659 H1667 0.929 . S
C1660 C1659 1.383 . S
C1660 C1661 1.377 . S
C1661 H1645 0.930 . S
C1661 C1660 1.377 . S
C1661 C1662 1.379 . S
C1662 H1646 0.931 . S
C1662 C1656 1.383 . S
C1662 C1661 1.379 . S
H1663 C1657 0.959 . S
H1664 C1657 0.961 . S
H1665 C1657 0.960 . S
H1666 C1658 0.930 . S
H1667 C1659 0.929 . S
H1668 C1676 0.929 . S
H1669 C1678 0.930 . S
H1670 C1680 0.930 . S
H1671 C1683 0.929 . S
H1672 C1686 0.930 . S
H1673 C1688 0.960 . S
H1674 C1688 0.960 . S
H1675 C1688 0.960 . S
C1676 H1668 0.929 . S
C1676 C1677 1.377 . S
C1676 C1678 1.384 . S
C1677 C1676 1.377 . S
C1677 C1683 1.390 . S
C1678 H1669 0.930 . S
C1678 C1676 1.384 . S
C1678 C1679 1.372 . S
C1679 C1678 1.372 . S
C1679 C1680 1.400 . S
C1679 C1684 1.490 . S
C1680 H1670 0.930 . S
C1680 C1679 1.400 . S
C1680 C1683 1.386 . S
H1681 C1697 0.930 . S
H1682 C1698 0.931 . S
C1683 H1671 0.929 . S
C1683 C1677 1.390 . S
C1683 C1680 1.386 . S
C1684 C1679 1.490 . S
C1684 C1686 1.395 . S
C1684 C1687 1.403 . S
H1685 C1691 0.930 . S
C1686 H1672 0.930 . S
C1686 C1684 1.395 . S
C1686 C1689 1.403 . S
C1687 C1684 1.403 . S
C1687 C1688 1.524 . S
C1687 C1691 1.400 . S
C1688 H1673 0.960 . S
C1688 H1674 0.960 . S
C1688 H1675 0.960 . S
C1688 C1687 1.524 . S
C1689 C1686 1.403 . S
C1689 C1690 1.392 . S
C1689 C1693 1.495 . S
C1690 C1689 1.392 . S
C1690 C1691 1.385 . S
C1690 C1692 1.478 . S
C1691 H1685 0.930 . S
C1691 C1687 1.400 . S
C1691 C1690 1.385 . S
C1692 C1690 1.478 . S
C1692 C1694 1.381 . S
C1692 C1698 1.383 . S
C1693 C1689 1.495 . S
C1693 H1699 0.959 . S
C1693 H1700 0.961 . S
C1693 H1701 0.960 . S
C1694 C1692 1.381 . S
C1694 C1695 1.394 . S
C1694 H1702 0.930 . S
C1695 C1694 1.394 . S
C1695 C1696 1.383 . S
C1695 H1703 0.929 . S
C1696 C1695 1.383 . S
C1696 C1697 1.377 . S
C1697 H1681 0.930 . S
C1697 C1696 1.377 . S
C1697 C1698 1.379 . S
C1698 H1682 0.931 . S
C1698 C1692 1.383 . S
C1698 C1697 1.379 . S
H1699 C1693 0.959 . S
H1700 C1693 0.961 . S
H1701 C1693 0.960 . S
H1702 C1694 0.930 . S
H1703 C1695 0.929 . S
H1704 C1712 0.929 . S
H1705 C1714 0.930 . S
H1706 C1716 0.930 . S
H1707 C1719 0.929 . S
H1708 C1722 0.930 . S
H1709 C1724 0.960 . S
H1710 C1724 0.960 . S
H1711 C1724 0.960 . S
C1712 H1704 0.929 . S
C1712 C1713 1.377 . S
C1712 C1714 1.384 . S
C1713 C1712 1.377 . S
C1713 C1719 1.390 . S
C1714 H1705 0.930 . S
C1714 C1712 1.384 . S
C1714 C1715 1.372 . S
C1715 C1714 1.372 . S
C1715 C1716 1.400 . S
C1715 C1720 1.490 . S
C1716 H1706 0.930 . S
C1716 C1715 1.400 . S
C1716 C1719 1.386 . S
H1717 C1733 0.930 . S
H1718 C1734 0.931 . S
C1719 H1707 0.929 . S
C1719 C1713 1.390 . S
C1719 C1716 1.386 . S
C1720 C1715 1.490 . S
C1720 C1722 1.395 . S
C1720 C1723 1.403 . S
H1721 C1727 0.930 . S
C1722 H1708 0.930 . S
C1722 C1720 1.395 . S
C1722 C1725 1.403 . S
C1723 C1720 1.403 . S
C1723 C1724 1.524 . S
C1723 C1727 1.400 . S
C1724 H1709 0.960 . S
C1724 H1710 0.960 . S
C1724 H1711 0.960 . S
C1724 C1723 1.524 . S
C1725 C1722 1.403 . S
C1725 C1726 1.392 . S
C1725 C1729 1.495 . S
C1726 C1725 1.392 . S
C1726 C1727 1.385 . S
C1726 C1728 1.478 . S
C1727 H1721 0.930 . S
C1727 C1723 1.400 . S
C1727 C1726 1.385 . S
C1728 C1726 1.478 . S
C1728 C1730 1.381 . S
C1728 C1734 1.383 . S
C1729 C1725 1.495 . S
C1729 H1735 0.959 . S
C1729 H1736 0.961 . S
C1729 H1737 0.960 . S
C1730 C1728 1.381 . S
C1730 C1731 1.394 . S
C1730 H1738 0.930 . S
C1731 C1730 1.394 . S
C1731 C1732 1.383 . S
C1731 H1739 0.929 . S
C1732 C1731 1.383 . S
C1732 C1733 1.377 . S
C1733 H1717 0.930 . S
C1733 C1732 1.377 . S
C1733 C1734 1.379 . S
C1734 H1718 0.931 . S
C1734 C1728 1.383 . S
C1734 C1733 1.379 . S
H1735 C1729 0.959 . S
H1736 C1729 0.961 . S
H1737 C1729 0.960 . S
H1738 C1730 0.930 . S
H1739 C1731 0.929 . S
H1740 C1748 0.929 . S
H1741 C1750 0.930 . S
H1742 C1752 0.930 . S
H1743 C1755 0.929 . S
H1744 C1758 0.930 . S
H1745 C1760 0.960 . S
H1746 C1760 0.960 . S
H1747 C1760 0.960 . S
C1748 H1740 0.929 . S
C1748 C1749 1.377 . S
C1748 C1750 1.384 . S
C1749 C1748 1.377 . S
C1749 C1755 1.390 . S
C1750 H1741 0.930 . S
C1750 C1748 1.384 . S
C1750 C1751 1.372 . S
C1751 C1750 1.372 . S
C1751 C1752 1.400 . S
C1751 C1756 1.490 . S
C1752 H1742 0.930 . S
C1752 C1751 1.400 . S
C1752 C1755 1.386 . S
H1753 C1769 0.930 . S
H1754 C1770 0.931 . S
C1755 H1743 0.929 . S
C1755 C1749 1.390 . S
C1755 C1752 1.386 . S
C1756 C1751 1.490 . S
C1756 C1758 1.395 . S
C1756 C1759 1.403 . S
H1757 C1763 0.930 . S
C1758 H1744 0.930 . S
C1758 C1756 1.395 . S
C1758 C1761 1.403 . S
C1759 C1756 1.403 . S
C1759 C1760 1.524 . S
C1759 C1763 1.400 . S
C1760 H1745 0.960 . S
C1760 H1746 0.960 . S
C1760 H1747 0.960 . S
C1760 C1759 1.524 . S
C1761 C1758 1.403 . S
C1761 C1762 1.392 . S
C1761 C1765 1.495 . S
C1762 C1761 1.392 . S
C1762 C1763 1.385 . S
C1762 C1764 1.478 . S
C1763 H1757 0.930 . S
C1763 C1759 1.400 . S
C1763 C1762 1.385 . S
C1764 C1762 1.478 . S
C1764 C1766 1.381 . S
C1764 C1770 1.383 . S
C1765 C1761 1.495 . S
C1765 H1771 0.959 . S
C1765 H1772 0.961 . S
C1765 H1773 0.960 . S
C1766 C1764 1.381 . S
C1766 C1767 1.394 . S
C1766 H1774 0.930 . S
C1767 C1766 1.394 . S
C1767 C1768 1.383 . S
C1767 H1775 0.929 . S
C1768 C1767 1.383 . S
C1768 C1769 1.377 . S
C1769 H1753 0.930 . S
C1769 C1768 1.377 . S
C1769 C1770 1.379 . S
C1770 H1754 0.931 . S
C1770 C1764 1.383 . S
C1770 C1769 1.379 . S
H1771 C1765 0.959 . S
H1772 C1765 0.961 . S
H1773 C1765 0.960 . S
H1774 C1766 0.930 . S
H1775 C1767 0.929 . S
H1776 C1784 0.929 . S
H1777 C1786 0.930 . S
H1778 C1788 0.930 . S
H1779 C1791 0.929 . S
H1780 C1794 0.930 . S
H1781 C1796 0.960 . S
H1782 C1796 0.960 . S
H1783 C1796 0.960 . S
C1784 H1776 0.929 . S
C1784 C1785 1.377 . S
C1784 C1786 1.384 . S
C1785 C1784 1.377 . S
C1785 C1791 1.390 . S
C1786 H1777 0.930 . S
C1786 C1784 1.384 . S
C1786 C1787 1.372 . S
C1787 C1786 1.372 . S
C1787 C1788 1.400 . S
C1787 C1792 1.490 . S
C1788 H1778 0.930 . S
C1788 C1787 1.400 . S
C1788 C1791 1.386 . S
H1789 C1805 0.930 . S
H1790 C1806 0.931 . S
C1791 H1779 0.929 . S
C1791 C1785 1.390 . S
C1791 C1788 1.386 . S
C1792 C1787 1.490 . S
C1792 C1794 1.395 . S
C1792 C1795 1.403 . S
H1793 C1799 0.930 . S
C1794 H1780 0.930 . S
C1794 C1792 1.395 . S
C1794 C1797 1.403 . S
C1795 C1792 1.403 . S
C1795 C1796 1.524 . S
C1795 C1799 1.400 . S
C1796 H1781 0.960 . S
C1796 H1782 0.960 . S
C1796 H1783 0.960 . S
C1796 C1795 1.524 . S
C1797 C1794 1.403 . S
C1797 C1798 1.392 . S
C1797 C1801 1.495 . S
C1798 C1797 1.392 . S
C1798 C1799 1.385 . S
C1798 C1800 1.478 . S
C1799 H1793 0.930 . S
C1799 C1795 1.400 . S
C1799 C1798 1.385 . S
C1800 C1798 1.478 . S
C1800 C1802 1.381 . S
C1800 C1806 1.383 . S
C1801 C1797 1.495 . S
C1801 H1807 0.959 . S
C1801 H1808 0.961 . S
C1801 H1809 0.960 . S
C1802 C1800 1.381 . S
C1802 C1803 1.394 . S
C1802 H1810 0.930 . S
C1803 C1802 1.394 . S
C1803 C1804 1.383 . S
C1803 H1811 0.929 . S
C1804 C1803 1.383 . S
C1804 C1805 1.377 . S
C1805 H1789 0.930 . S
C1805 C1804 1.377 . S
C1805 C1806 1.379 . S
C1806 H1790 0.931 . S
C1806 C1800 1.383 . S
C1806 C1805 1.379 . S
H1807 C1801 0.959 . S
H1808 C1801 0.961 . S
H1809 C1801 0.960 . S
H1810 C1802 0.930 . S
H1811 C1803 0.929 . S
H1812 C1820 0.929 . S
H1813 C1822 0.930 . S
H1814 C1824 0.930 . S
H1815 C1827 0.929 . S
H1816 C1830 0.930 . S
H1817 C1832 0.960 . S
H1818 C1832 0.960 . S
H1819 C1832 0.960 . S
C1820 H1812 0.929 . S
C1820 C1821 1.377 . S
C1820 C1822 1.384 . S
C1821 C1820 1.377 . S
C1821 C1827 1.390 . S
C1822 H1813 0.930 . S
C1822 C1820 1.384 . S
C1822 C1823 1.372 . S
C1823 C1822 1.372 . S
C1823 C1824 1.400 . S
C1823 C1828 1.490 . S
C1824 H1814 0.930 . S
C1824 C1823 1.400 . S
C1824 C1827 1.386 . S
H1825 C1841 0.930 . S
H1826 C1842 0.931 . S
C1827 H1815 0.929 . S
C1827 C1821 1.390 . S
C1827 C1824 1.386 . S
C1828 C1823 1.490 . S
C1828 C1830 1.395 . S
C1828 C1831 1.403 . S
H1829 C1835 0.930 . S
C1830 H1816 0.930 . S
C1830 C1828 1.395 . S
C1830 C1833 1.403 . S
C1831 C1828 1.403 . S
C1831 C1832 1.524 . S
C1831 C1835 1.400 . S
C1832 H1817 0.960 . S
C1832 H1818 0.960 . S
C1832 H1819 0.960 . S
C1832 C1831 1.524 . S
C1833 C1830 1.403 . S
C1833 C1834 1.392 . S
C1833 C1837 1.495 . S
C1834 C1833 1.392 . S
C1834 C1835 1.385 . S
C1834 C1836 1.478 . S
C1835 H1829 0.930 . S
C1835 C1831 1.400 . S
C1835 C1834 1.385 . S
C1836 C1834 1.478 . S
C1836 C1838 1.381 . S
C1836 C1842 1.383 . S
C1837 C1833 1.495 . S
C1837 H1843 0.959 . S
C1837 H1844 0.961 . S
C1837 H1845 0.960 . S
C1838 C1836 1.381 . S
C1838 C1839 1.394 . S
C1838 H1846 0.930 . S
C1839 C1838 1.394 . S
C1839 C1840 1.383 . S
C1839 H1847 0.929 . S
C1840 C1839 1.383 . S
C1840 C1841 1.377 . S
C1841 H1825 0.930 . S
C1841 C1840 1.377 . S
C1841 C1842 1.379 . S
C1842 H1826 0.931 . S
C1842 C1836 1.383 . S
C1842 C1841 1.379 . S
H1843 C1837 0.959 . S
H1844 C1837 0.961 . S
H1845 C1837 0.960 . S
H1846 C1838 0.930 . S
H1847 C1839 0.929 . S
H1848 C1856 0.929 . S
H1849 C1858 0.930 . S
H1850 C1860 0.930 . S
H1851 C1863 0.929 . S
H1852 C1866 0.930 . S
H1853 C1868 0.960 . S
H1854 C1868 0.960 . S
H1855 C1868 0.960 . S
C1856 H1848 0.929 . S
C1856 C1857 1.377 . S
C1856 C1858 1.384 . S
C1857 C1856 1.377 . S
C1857 C1863 1.390 . S
C1858 H1849 0.930 . S
C1858 C1856 1.384 . S
C1858 C1859 1.372 . S
C1859 C1858 1.372 . S
C1859 C1860 1.400 . S
C1859 C1864 1.490 . S
C1860 H1850 0.930 . S
C1860 C1859 1.400 . S
C1860 C1863 1.386 . S
H1861 C1877 0.930 . S
H1862 C1878 0.931 . S
C1863 H1851 0.929 . S
C1863 C1857 1.390 . S
C1863 C1860 1.386 . S
C1864 C1859 1.490 . S
C1864 C1866 1.395 . S
C1864 C1867 1.403 . S
H1865 C1871 0.930 . S
C1866 H1852 0.930 . S
C1866 C1864 1.395 . S
C1866 C1869 1.403 . S
C1867 C1864 1.403 . S
C1867 C1868 1.524 . S
C1867 C1871 1.400 . S
C1868 H1853 0.960 . S
C1868 H1854 0.960 . S
C1868 H1855 0.960 . S
C1868 C1867 1.524 . S
C1869 C1866 1.403 . S
C1869 C1870 1.392 . S
C1869 C1873 1.495 . S
C1870 C1869 1.392 . S
C1870 C1871 1.385 . S
C1870 C1872 1.478 . S
C1871 H1865 0.930 . S
C1871 C1867 1.400 . S
C1871 C1870 1.385 . S
C1872 C1870 1.478 . S
C1872 C1874 1.381 . S
C1872 C1878 1.383 . S
C1873 C1869 1.495 . S
C1873 H1879 0.959 . S
C1873 H1880 0.961 . S
C1873 H1881 0.960 . S
C1874 C1872 1.381 . S
C1874 C1875 1.394 . S
C1874 H1882 0.930 . S
C1875 C1874 1.394 . S
C1875 C1876 1.383 . S
C1875 H1883 0.929 . S
C1876 C1875 1.383 . S
C1876 C1877 1.377 . S
C1877 H1861 0.930 . S
C1877 C1876 1.377 . S
C1877 C1878 1.379 . S
C1878 H1862 0.931 . S
C1878 C1872 1.383 . S
C1878 C1877 1.379 . S
H1879 C1873 0.959 . S
H1880 C1873 0.961 . S
H1881 C1873 0.960 . S
H1882 C1874 0.930 . S
H1883 C1875 0.929 . S
H1884 C1892 0.929 . S
H1885 C1894 0.930 . S
H1886 C1896 0.930 . S
H1887 C1899 0.929 . S
H1888 C1902 0.930 . S
H1889 C1904 0.960 . S
H1890 C1904 0.960 . S
H1891 C1904 0.960 . S
C1892 H1884 0.929 . S
C1892 C1893 1.377 . S
C1892 C1894 1.384 . S
C1893 C1892 1.377 . S
C1893 C1899 1.390 . S
C1894 H1885 0.930 . S
C1894 C1892 1.384 . S
C1894 C1895 1.372 . S
C1895 C1894 1.372 . S
C1895 C1896 1.400 . S
C1895 C1900 1.490 . S
C1896 H1886 0.930 . S
C1896 C1895 1.400 . S
C1896 C1899 1.386 . S
H1897 C1913 0.930 . S
H1898 C1914 0.931 . S
C1899 H1887 0.929 . S
C1899 C1893 1.390 . S
C1899 C1896 1.386 . S
C1900 C1895 1.490 . S
C1900 C1902 1.395 . S
C1900 C1903 1.403 . S
H1901 C1907 0.930 . S
C1902 H1888 0.930 . S
C1902 C1900 1.395 . S
C1902 C1905 1.403 . S
C1903 C1900 1.403 . S
C1903 C1904 1.524 . S
C1903 C1907 1.400 . S
C1904 H1889 0.960 . S
C1904 H1890 0.960 . S
C1904 H1891 0.960 . S
C1904 C1903 1.524 . S
C1905 C1902 1.403 . S
C1905 C1906 1.392 . S
C1905 C1909 1.495 . S
C1906 C1905 1.392 . S
C1906 C1907 1.385 . S
C1906 C1908 1.478 . S
C1907 H1901 0.930 . S
C1907 C1903 1.400 . S
C1907 C1906 1.385 . S
C1908 C1906 1.478 . S
C1908 C1910 1.381 . S
C1908 C1914 1.383 . S
C1909 C1905 1.495 . S
C1909 H1915 0.959 . S
C1909 H1916 0.961 . S
C1909 H1917 0.960 . S
C1910 C1908 1.381 . S
C1910 C1911 1.394 . S
C1910 H1918 0.930 . S
C1911 C1910 1.394 . S
C1911 C1912 1.383 . S
C1911 H1919 0.929 . S
C1912 C1911 1.383 . S
C1912 C1913 1.377 . S
C1913 H1897 0.930 . S
C1913 C1912 1.377 . S
C1913 C1914 1.379 . S
C1914 H1898 0.931 . S
C1914 C1908 1.383 . S
C1914 C1913 1.379 . S
H1915 C1909 0.959 . S
H1916 C1909 0.961 . S
H1917 C1909 0.960 . S
H1918 C1910 0.930 . S
H1919 C1911 0.929 . S
H1920 C1928 0.929 . S
H1921 C1930 0.930 . S
H1922 C1932 0.930 . S
H1923 C1935 0.929 . S
H1924 C1938 0.930 . S
H1925 C1940 0.960 . S
H1926 C1940 0.960 . S
H1927 C1940 0.960 . S
C1928 H1920 0.929 . S
C1928 C1929 1.377 . S
C1928 C1930 1.384 . S
C1929 C1928 1.377 . S
C1929 C1935 1.390 . S
C1930 H1921 0.930 . S
C1930 C1928 1.384 . S
C1930 C1931 1.372 . S
C1931 C1930 1.372 . S
C1931 C1932 1.400 . S
C1931 C1936 1.490 . S
C1932 H1922 0.930 . S
C1932 C1931 1.400 . S
C1932 C1935 1.386 . S
H1933 C1949 0.930 . S
H1934 C1950 0.931 . S
C1935 H1923 0.929 . S
C1935 C1929 1.390 . S
C1935 C1932 1.386 . S
C1936 C1931 1.490 . S
C1936 C1938 1.395 . S
C1936 C1939 1.403 . S
H1937 C1943 0.930 . S
C1938 H1924 0.930 . S
C1938 C1936 1.395 . S
C1938 C1941 1.403 . S
C1939 C1936 1.403 . S
C1939 C1940 1.524 . S
C1939 C1943 1.400 . S
C1940 H1925 0.960 . S
C1940 H1926 0.960 . S
C1940 H1927 0.960 . S
C1940 C1939 1.524 . S
C1941 C1938 1.403 . S
C1941 C1942 1.392 . S
C1941 C1945 1.495 . S
C1942 C1941 1.392 . S
C1942 C1943 1.385 . S
C1942 C1944 1.478 . S
C1943 H1937 0.930 . S
C1943 C1939 1.400 . S
C1943 C1942 1.385 . S
C1944 C1942 1.478 . S
C1944 C1946 1.381 . S
C1944 C1950 1.383 . S
C1945 C1941 1.495 . S
C1945 H1951 0.959 . S
C1945 H1952 0.961 . S
C1945 H1953 0.960 . S
C1946 C1944 1.381 . S
C1946 C1947 1.394 . S
C1946 H1954 0.930 . S
C1947 C1946 1.394 . S
C1947 C1948 1.383 . S
C1947 H1955 0.929 . S
C1948 C1947 1.383 . S
C1948 C1949 1.377 . S
C1949 H1933 0.930 . S
C1949 C1948 1.377 . S
C1949 C1950 1.379 . S
C1950 H1934 0.931 . S
C1950 C1944 1.383 . S
C1950 C1949 1.379 . S
H1951 C1945 0.959 . S
H1952 C1945 0.961 . S
H1953 C1945 0.960 . S
H1954 C1946 0.930 . S
H1955 C1947 0.929 . S
H1956 C1964 0.929 . S
H1957 C1966 0.930 . S
H1958 C1968 0.930 . S
H1959 C1971 0.929 . S
H1960 C1974 0.930 . S
H1961 C1976 0.960 . S
H1962 C1976 0.960 . S
H1963 C1976 0.960 . S
C1964 H1956 0.929 . S
C1964 C1965 1.377 . S
C1964 C1966 1.384 . S
C1965 C1964 1.377 . S
C1965 C1971 1.390 . S
C1966 H1957 0.930 . S
C1966 C1964 1.384 . S
C1966 C1967 1.372 . S
C1967 C1966 1.372 . S
C1967 C1968 1.400 . S
C1967 C1972 1.490 . S
C1968 H1958 0.930 . S
C1968 C1967 1.400 . S
C1968 C1971 1.386 . S
H1969 C1985 0.930 . S
H1970 C1986 0.931 . S
C1971 H1959 0.929 . S
C1971 C1965 1.390 . S
C1971 C1968 1.386 . S
C1972 C1967 1.490 . S
C1972 C1974 1.395 . S
C1972 C1975 1.403 . S
H1973 C1979 0.930 . S
C1974 H1960 0.930 . S
C1974 C1972 1.395 . S
C1974 C1977 1.403 . S
C1975 C1972 1.403 . S
C1975 C1976 1.524 . S
C1975 C1979 1.400 . S
C1976 H1961 0.960 . S
C1976 H1962 0.960 . S
C1976 H1963 0.960 . S
C1976 C1975 1.524 . S
C1977 C1974 1.403 . S
C1977 C1978 1.392 . S
C1977 C1981 1.495 . S
C1978 C1977 1.392 . S
C1978 C1979 1.385 . S
C1978 C1980 1.478 . S
C1979 H1973 0.930 . S
C1979 C1975 1.400 . S
C1979 C1978 1.385 . S
C1980 C1978 1.478 . S
C1980 C1982 1.381 . S
C1980 C1986 1.383 . S
C1981 C1977 1.495 . S
C1981 H1987 0.959 . S
C1981 H1988 0.961 . S
C1981 H1989 0.960 . S
C1982 C1980 1.381 . S
C1982 C1983 1.394 . S
C1982 H1990 0.930 . S
C1983 C1982 1.394 . S
C1983 C1984 1.383 . S
C1983 H1991 0.929 . S
C1984 C1983 1.383 . S
C1984 C1985 1.377 . S
C1985 H1969 0.930 . S
C1985 C1984 1.377 . S
C1985 C1986 1.379 . S
C1986 H1970 0.931 . S
C1986 C1980 1.383 . S
C1986 C1985 1.379 . S
H1987 C1981 0.959 . S
H1988 C1981 0.961 . S
H1989 C1981 0.960 . S
H1990 C1982 0.930 . S
H1991 C1983 0.929 . S
H1992 C2000 0.929 . S
H1993 C2002 0.930 . S
H1994 C2004 0.930 . S
H1995 C2007 0.929 . S
H1996 C2010 0.930 . S
H1997 C2012 0.960 . S
H1998 C2012 0.960 . S
H1999 C2012 0.960 . S
C2000 H1992 0.929 . S
C2000 C2001 1.377 . S
C2000 C2002 1.384 . S
C2001 C2000 1.377 . S
C2001 C2007 1.390 . S
C2002 H1993 0.930 . S
C2002 C2000 1.384 . S
C2002 C2003 1.372 . S
C2003 C2002 1.372 . S
C2003 C2004 1.400 . S
C2003 C2008 1.490 . S
C2004 H1994 0.930 . S
C2004 C2003 1.400 . S
C2004 C2007 1.386 . S
H2005 C2021 0.930 . S
H2006 C2022 0.931 . S
C2007 H1995 0.929 . S
C2007 C2001 1.390 . S
C2007 C2004 1.386 . S
C2008 C2003 1.490 . S
C2008 C2010 1.395 1_655 S
C2008 C2011 1.403 . S
H2009 C2015 0.930 . S
C2010 H1996 0.930 . S
C2010 C2008 1.395 1_455 S
C2010 C2013 1.403 . S
C2011 C2008 1.403 . S
C2011 C2012 1.524 . S
C2011 C2015 1.400 . S
C2012 H1997 0.960 . S
C2012 H1998 0.960 . S
C2012 H1999 0.960 . S
C2012 C2011 1.524 . S
C2013 C2010 1.403 . S
C2013 C2014 1.392 . S
C2013 C2017 1.495 . S
C2014 C2013 1.392 . S
C2014 C2015 1.385 1_455 S
C2014 C2016 1.478 . S
C2015 H2009 0.930 . S
C2015 C2011 1.400 . S
C2015 C2014 1.385 1_655 S
C2016 C2014 1.478 . S
C2016 C2018 1.381 . S
C2016 C2022 1.383 . S
C2017 C2013 1.495 . S
C2017 H2023 0.959 . S
C2017 H2024 0.961 . S
C2017 H2025 0.960 . S
C2018 C2016 1.381 . S
C2018 C2019 1.394 . S
C2018 H2026 0.930 . S
C2019 C2018 1.394 . S
C2019 C2020 1.383 . S
C2019 H2027 0.929 . S
C2020 C2019 1.383 . S
C2020 C2021 1.377 . S
C2021 H2005 0.930 . S
C2021 C2020 1.377 . S
C2021 C2022 1.379 . S
C2022 H2006 0.931 . S
C2022 C2016 1.383 . S
C2022 C2021 1.379 . S
H2023 C2017 0.959 . S
H2024 C2017 0.961 . S
H2025 C2017 0.960 . S
H2026 C2018 0.930 . S
H2027 C2019 0.929 . S
H2028 C2036 0.929 . S
H2029 C2038 0.930 . S
H2030 C2040 0.930 . S
H2031 C2043 0.929 . S
H2032 C2046 0.930 . S
H2033 C2048 0.960 . S
H2034 C2048 0.960 . S
H2035 C2048 0.960 . S
C2036 H2028 0.929 . S
C2036 C2037 1.377 . S
C2036 C2038 1.384 . S
C2037 C2036 1.377 . S
C2037 C2043 1.390 . S
C2038 H2029 0.930 . S
C2038 C2036 1.384 . S
C2038 C2039 1.372 . S
C2039 C2038 1.372 . S
C2039 C2040 1.400 . S
C2039 C2044 1.490 . S
C2040 H2030 0.930 . S
C2040 C2039 1.400 . S
C2040 C2043 1.386 . S
H2041 C2057 0.930 . S
H2042 C2058 0.931 . S
C2043 H2031 0.929 . S
C2043 C2037 1.390 . S
C2043 C2040 1.386 . S
C2044 C2039 1.490 . S
C2044 C2046 1.395 1_565 S
C2044 C2047 1.403 . S
H2045 C2051 0.930 . S
C2046 H2032 0.930 . S
C2046 C2044 1.395 1_545 S
C2046 C2049 1.403 . S
C2047 C2044 1.403 . S
C2047 C2048 1.524 . S
C2047 C2051 1.400 . S
C2048 H2033 0.960 . S
C2048 H2034 0.960 . S
C2048 H2035 0.960 . S
C2048 C2047 1.524 . S
C2049 C2046 1.403 . S
C2049 C2050 1.392 . S
C2049 C2053 1.495 . S
C2050 C2049 1.392 . S
C2050 C2051 1.385 1_545 S
C2050 C2052 1.478 . S
C2051 H2045 0.930 . S
C2051 C2047 1.400 . S
C2051 C2050 1.385 1_565 S
C2052 C2050 1.478 . S
C2052 C2054 1.381 . S
C2052 C2058 1.383 . S
C2053 C2049 1.495 . S
C2053 H2059 0.959 . S
C2053 H2060 0.961 . S
C2053 H2061 0.960 . S
C2054 C2052 1.381 . S
C2054 C2055 1.394 . S
C2054 H2062 0.930 . S
C2055 C2054 1.394 . S
C2055 C2056 1.383 . S
C2055 H2063 0.929 . S
C2056 C2055 1.383 . S
C2056 C2057 1.377 . S
C2057 H2041 0.930 . S
C2057 C2056 1.377 . S
C2057 C2058 1.379 . S
C2058 H2042 0.931 . S
C2058 C2052 1.383 . S
C2058 C2057 1.379 . S
H2059 C2053 0.959 . S
H2060 C2053 0.961 . S
H2061 C2053 0.960 . S
H2062 C2054 0.930 . S
H2063 C2055 0.929 . S
H2064 C2072 0.929 . S
H2065 C2074 0.930 . S
H2066 C2076 0.930 . S
H2067 C2079 0.929 . S
H2068 C2082 0.930 . S
H2069 C2084 0.960 . S
H2070 C2084 0.960 . S
H2071 C2084 0.960 . S
C2072 H2064 0.929 . S
C2072 C2073 1.377 . S
C2072 C2074 1.384 . S
C2073 C2072 1.377 . S
C2073 C2079 1.390 . S
C2074 H2065 0.930 . S
C2074 C2072 1.384 . S
C2074 C2075 1.372 . S
C2075 C2074 1.372 . S
C2075 C2076 1.400 . S
C2075 C2080 1.490 . S
C2076 H2066 0.930 . S
C2076 C2075 1.400 . S
C2076 C2079 1.386 . S
H2077 C2093 0.930 . S
H2078 C2094 0.931 . S
C2079 H2067 0.929 . S
C2079 C2073 1.390 . S
C2079 C2076 1.386 . S
C2080 C2075 1.490 . S
C2080 C2082 1.395 . S
C2080 C2083 1.403 1_655 S
H2081 C2087 0.930 . S
C2082 H2068 0.930 . S
C2082 C2080 1.395 . S
C2082 C2085 1.403 . S
C2083 C2080 1.403 1_455 S
C2083 C2084 1.524 . S
C2083 C2087 1.400 . S
C2084 H2069 0.960 . S
C2084 H2070 0.960 . S
C2084 H2071 0.960 . S
C2084 C2083 1.524 . S
C2085 C2082 1.403 . S
C2085 C2086 1.392 1_655 S
C2085 C2089 1.495 . S
C2086 C2085 1.392 1_455 S
C2086 C2087 1.385 . S
C2086 C2088 1.478 . S
C2087 H2081 0.930 . S
C2087 C2083 1.400 . S
C2087 C2086 1.385 . S
C2088 C2086 1.478 . S
C2088 C2090 1.381 . S
C2088 C2094 1.383 . S
C2089 C2085 1.495 . S
C2089 H2095 0.959 . S
C2089 H2096 0.961 . S
C2089 H2097 0.960 . S
C2090 C2088 1.381 . S
C2090 C2091 1.394 . S
C2090 H2098 0.930 . S
C2091 C2090 1.394 . S
C2091 C2092 1.383 . S
C2091 H2099 0.929 . S
C2092 C2091 1.383 . S
C2092 C2093 1.377 . S
C2093 H2077 0.930 . S
C2093 C2092 1.377 . S
C2093 C2094 1.379 . S
C2094 H2078 0.931 . S
C2094 C2088 1.383 . S
C2094 C2093 1.379 . S
H2095 C2089 0.959 . S
H2096 C2089 0.961 . S
H2097 C2089 0.960 . S
H2098 C2090 0.930 . S
H2099 C2091 0.929 . S
H2100 C2108 0.929 . S
H2101 C2110 0.930 . S
H2102 C2112 0.930 . S
H2103 C2115 0.929 . S
H2104 C2118 0.930 . S
H2105 C2120 0.960 . S
H2106 C2120 0.960 . S
H2107 C2120 0.960 . S
C2108 H2100 0.929 . S
C2108 C2109 1.377 . S
C2108 C2110 1.384 . S
C2109 C2108 1.377 . S
C2109 C2115 1.390 . S
C2110 H2101 0.930 . S
C2110 C2108 1.384 . S
C2110 C2111 1.372 . S
C2111 C2110 1.372 . S
C2111 C2112 1.400 . S
C2111 C2116 1.490 . S
C2112 H2102 0.930 . S
C2112 C2111 1.400 . S
C2112 C2115 1.386 . S
H2113 C2129 0.930 . S
H2114 C2130 0.931 . S
C2115 H2103 0.929 . S
C2115 C2109 1.390 . S
C2115 C2112 1.386 . S
C2116 C2111 1.490 . S
C2116 C2118 1.395 . S
C2116 C2119 1.403 1_565 S
H2117 C2123 0.930 . S
C2118 H2104 0.930 . S
C2118 C2116 1.395 . S
C2118 C2121 1.403 . S
C2119 C2116 1.403 1_545 S
C2119 C2120 1.524 . S
C2119 C2123 1.400 . S
C2120 H2105 0.960 . S
C2120 H2106 0.960 . S
C2120 H2107 0.960 . S
C2120 C2119 1.524 . S
C2121 C2118 1.403 . S
C2121 C2122 1.392 1_565 S
C2121 C2125 1.495 . S
C2122 C2121 1.392 1_545 S
C2122 C2123 1.385 . S
C2122 C2124 1.478 . S
C2123 H2117 0.930 . S
C2123 C2119 1.400 . S
C2123 C2122 1.385 . S
C2124 C2122 1.478 . S
C2124 C2126 1.381 . S
C2124 C2130 1.383 . S
C2125 C2121 1.495 . S
C2125 H2131 0.959 . S
C2125 H2132 0.961 . S
C2125 H2133 0.960 . S
C2126 C2124 1.381 . S
C2126 C2127 1.394 . S
C2126 H2134 0.930 . S
C2127 C2126 1.394 . S
C2127 C2128 1.383 . S
C2127 H2135 0.929 . S
C2128 C2127 1.383 . S
C2128 C2129 1.377 . S
C2129 H2113 0.930 . S
C2129 C2128 1.377 . S
C2129 C2130 1.379 . S
C2130 H2114 0.931 . S
C2130 C2124 1.383 . S
C2130 C2129 1.379 . S
H2131 C2125 0.959 . S
H2132 C2125 0.961 . S
H2133 C2125 0.960 . S
H2134 C2126 0.930 . S
H2135 C2127 0.929 . S
H2136 C2144 0.929 . S
H2137 C2146 0.930 . S
H2138 C2148 0.930 . S
H2139 C2151 0.929 . S
H2140 C2154 0.930 . S
H2141 C2156 0.960 1_545 S
H2142 C2156 0.965 . S
H2143 C2156 0.960 . S
C2144 H2136 0.929 . S
C2144 C2145 1.377 . S
C2144 C2146 1.384 . S
C2145 C2144 1.377 . S
C2145 C2151 1.390 . S
C2146 H2137 0.930 . S
C2146 C2144 1.384 . S
C2146 C2147 1.372 . S
C2147 C2146 1.372 . S
C2147 C2148 1.400 . S
C2147 C2152 1.490 . S
C2148 H2138 0.930 . S
C2148 C2147 1.400 . S
C2148 C2151 1.386 . S
H2149 C2165 0.930 . S
H2150 C2166 0.931 . S
C2151 H2139 0.929 . S
C2151 C2145 1.390 . S
C2151 C2148 1.386 . S
C2152 C2147 1.490 . S
C2152 C2154 1.395 . S
C2152 C2155 1.403 . S
H2153 C2159 0.930 . S
C2154 H2140 0.930 . S
C2154 C2152 1.395 . S
C2154 C2157 1.403 1_565 S
C2155 C2152 1.403 . S
C2155 C2156 1.524 . S
C2155 C2159 1.400 1_565 S
C2156 H2141 0.960 1_565 S
C2156 H2142 0.965 . S
C2156 H2143 0.960 . S
C2156 C2155 1.524 . S
C2157 C2154 1.403 1_545 S
C2157 C2158 1.392 . S
C2157 C2161 1.495 . S
C2158 C2157 1.392 . S
C2158 C2159 1.385 . S
C2158 C2160 1.478 . S
C2159 H2153 0.930 . S
C2159 C2155 1.400 1_545 S
C2159 C2158 1.385 . S
C2160 C2158 1.478 . S
C2160 C2162 1.381 . S
C2160 C2166 1.383 . S
C2161 C2157 1.495 . S
C2161 H2167 0.979 . S
C2161 H2168 0.961 . S
C2161 H2169 0.960 . S
C2162 C2160 1.381 . S
C2162 C2163 1.394 . S
C2162 H2170 0.930 . S
C2163 C2162 1.394 . S
C2163 C2164 1.383 . S
C2163 H2171 0.929 . S
C2164 C2163 1.383 . S
C2164 C2165 1.377 . S
C2165 H2149 0.930 . S
C2165 C2164 1.377 . S
C2165 C2166 1.379 . S
C2166 H2150 0.931 . S
C2166 C2160 1.383 . S
C2166 C2165 1.379 . S
H2167 C2161 0.979 . S
H2168 C2161 0.961 . S
H2169 C2161 0.960 . S
H2170 C2162 0.930 . S
H2171 C2163 0.929 . S
H2172 C2180 0.929 . S
H2173 C2182 0.930 . S
H2174 C2184 0.930 . S
H2175 C2187 0.929 . S
H2176 C2190 0.930 . S
H2177 C2192 0.960 1_455 S
H2178 C2192 0.960 . S
H2179 C2192 0.960 . S
C2180 H2172 0.929 . S
C2180 C2181 1.377 . S
C2180 C2182 1.384 . S
C2181 C2180 1.377 . S
C2181 C2187 1.390 . S
C2182 H2173 0.930 . S
C2182 C2180 1.384 . S
C2182 C2183 1.372 . S
C2183 C2182 1.372 . S
C2183 C2184 1.400 . S
C2183 C2188 1.490 . S
C2184 H2174 0.930 . S
C2184 C2183 1.400 . S
C2184 C2187 1.386 . S
H2185 C2201 0.930 . S
H2186 C2202 0.931 . S
C2187 H2175 0.929 . S
C2187 C2181 1.390 . S
C2187 C2184 1.386 . S
C2188 C2183 1.490 . S
C2188 C2190 1.395 . S
C2188 C2191 1.403 . S
H2189 C2195 0.930 . S
C2190 H2176 0.930 . S
C2190 C2188 1.395 . S
C2190 C2193 1.403 1_655 S
C2191 C2188 1.403 . S
C2191 C2192 1.524 . S
C2191 C2195 1.400 1_655 S
C2192 H2177 0.960 1_655 S
C2192 H2178 0.960 . S
C2192 H2179 0.960 . S
C2192 C2191 1.524 . S
C2193 C2190 1.403 1_455 S
C2193 C2194 1.392 . S
C2193 C2197 1.495 . S
C2194 C2193 1.392 . S
C2194 C2195 1.385 . S
C2194 C2196 1.478 . S
C2195 H2189 0.930 . S
C2195 C2191 1.400 1_455 S
C2195 C2194 1.385 . S
C2196 C2194 1.478 . S
C2196 C2198 1.381 . S
C2196 C2202 1.383 . S
C2197 C2193 1.495 . S
C2197 H2203 0.959 1_455 S
C2197 H2204 0.961 . S
C2197 H2205 0.957 1_455 S
C2198 C2196 1.381 . S
C2198 C2199 1.394 . S
C2198 H2206 0.930 . S
C2199 C2198 1.394 . S
C2199 C2200 1.383 . S
C2199 H2207 0.929 . S
C2200 C2199 1.383 . S
C2200 C2201 1.377 . S
C2201 H2185 0.930 . S
C2201 C2200 1.377 . S
C2201 C2202 1.379 . S
C2202 H2186 0.931 . S
C2202 C2196 1.383 . S
C2202 C2201 1.379 . S
H2203 C2197 0.959 1_655 S
H2204 C2197 0.961 . S
H2205 C2197 0.957 1_655 S
H2206 C2198 0.930 . S
H2207 C2199 0.929 . S
H2208 C2216 0.929 . S
H2209 C2218 0.930 . S
H2210 C2220 0.930 . S
H2211 C2223 0.929 . S
H2212 C2226 0.930 . S
H2213 C2228 0.960 . S
H2214 C2228 0.960 . S
H2215 C2228 0.960 . S
C2216 H2208 0.929 . S
C2216 C2217 1.377 . S
C2216 C2218 1.384 . S
C2217 C2216 1.377 . S
C2217 C2223 1.390 . S
C2218 H2209 0.930 . S
C2218 C2216 1.384 . S
C2218 C2219 1.372 . S
C2219 C2218 1.372 . S
C2219 C2220 1.400 . S
C2219 C2224 1.490 . S
C2220 H2210 0.930 . S
C2220 C2219 1.400 . S
C2220 C2223 1.386 . S
H2221 C2237 0.930 . S
H2222 C2238 0.931 . S
C2223 H2211 0.929 . S
C2223 C2217 1.390 . S
C2223 C2220 1.386 . S
C2224 C2219 1.490 . S
C2224 C2226 1.395 1_565 S
C2224 C2227 1.403 . S
H2225 C2231 0.930 . S
C2226 H2212 0.930 . S
C2226 C2224 1.395 1_545 S
C2226 C2229 1.403 . S
C2227 C2224 1.403 . S
C2227 C2228 1.524 . S
C2227 C2231 1.400 . S
C2228 H2213 0.960 . S
C2228 H2214 0.960 . S
C2228 H2215 0.960 . S
C2228 C2227 1.524 . S
C2229 C2226 1.403 . S
C2229 C2230 1.392 . S
C2229 C2233 1.495 . S
C2230 C2229 1.392 . S
C2230 C2231 1.385 1_545 S
C2230 C2232 1.478 . S
C2231 H2225 0.930 . S
C2231 C2227 1.400 . S
C2231 C2230 1.385 1_565 S
C2232 C2230 1.478 . S
C2232 C2234 1.381 . S
C2232 C2238 1.383 . S
C2233 C2229 1.495 . S
C2233 H2239 0.959 . S
C2233 H2240 0.961 . S
C2233 H2241 0.960 . S
C2234 C2232 1.381 . S
C2234 C2235 1.394 . S
C2234 H2242 0.930 . S
C2235 C2234 1.394 . S
C2235 C2236 1.383 . S
C2235 H2243 0.929 . S
C2236 C2235 1.383 . S
C2236 C2237 1.377 . S
C2237 H2221 0.930 . S
C2237 C2236 1.377 . S
C2237 C2238 1.379 . S
C2238 H2222 0.931 . S
C2238 C2232 1.383 . S
C2238 C2237 1.379 . S
H2239 C2233 0.959 . S
H2240 C2233 0.961 . S
H2241 C2233 0.960 . S
H2242 C2234 0.930 . S
H2243 C2235 0.929 . S
H2244 C2252 0.929 . S
H2245 C2254 0.930 . S
H2246 C2256 0.930 . S
H2247 C2259 0.929 . S
H2248 C2262 0.930 . S
H2249 C2264 0.960 1_455 S
H2250 C2264 0.960 . S
H2251 C2264 0.960 . S
C2252 H2244 0.929 . S
C2252 C2253 1.377 . S
C2252 C2254 1.384 . S
C2253 C2252 1.377 . S
C2253 C2259 1.390 . S
C2254 H2245 0.930 . S
C2254 C2252 1.384 . S
C2254 C2255 1.372 . S
C2255 C2254 1.372 . S
C2255 C2256 1.400 . S
C2255 C2260 1.490 . S
C2256 H2246 0.930 . S
C2256 C2255 1.400 . S
C2256 C2259 1.386 . S
H2257 C2273 0.930 . S
H2258 C2274 0.931 . S
C2259 H2247 0.929 . S
C2259 C2253 1.390 . S
C2259 C2256 1.386 . S
C2260 C2255 1.490 . S
C2260 C2262 1.395 . S
C2260 C2263 1.403 . S
H2261 C2267 0.930 . S
C2262 H2248 0.930 . S
C2262 C2260 1.395 . S
C2262 C2265 1.403 1_655 S
C2263 C2260 1.403 . S
C2263 C2264 1.524 . S
C2263 C2267 1.400 1_655 S
C2264 H2249 0.960 1_655 S
C2264 H2250 0.960 . S
C2264 H2251 0.960 . S
C2264 C2263 1.524 . S
C2265 C2262 1.403 1_455 S
C2265 C2266 1.392 . S
C2265 C2269 1.495 . S
C2266 C2265 1.392 . S
C2266 C2267 1.385 . S
C2266 C2268 1.478 . S
C2267 H2261 0.930 . S
C2267 C2263 1.400 1_455 S
C2267 C2266 1.385 . S
C2268 C2266 1.478 . S
C2268 C2270 1.381 . S
C2268 C2274 1.383 . S
C2269 C2265 1.495 . S
C2269 H2275 0.959 1_455 S
C2269 H2276 0.961 . S
C2269 H2277 0.944 1_455 S
C2270 C2268 1.381 . S
C2270 C2271 1.394 . S
C2270 H2278 0.930 . S
C2271 C2270 1.394 . S
C2271 C2272 1.383 . S
C2271 H2279 0.929 . S
C2272 C2271 1.383 . S
C2272 C2273 1.377 . S
C2273 H2257 0.930 . S
C2273 C2272 1.377 . S
C2273 C2274 1.379 . S
C2274 H2258 0.931 . S
C2274 C2268 1.383 . S
C2274 C2273 1.379 . S
H2275 C2269 0.959 1_655 S
H2276 C2269 0.961 . S
H2277 C2269 0.944 1_655 S
H2278 C2270 0.930 . S
H2279 C2271 0.929 . S
H2280 C2288 0.929 . S
H2281 C2290 0.930 . S
H2282 C2292 0.930 . S
H2283 C2295 0.929 . S
H2284 C2298 0.930 . S
H2285 C2300 0.960 . S
H2286 C2300 0.960 . S
H2287 C2300 0.960 . S
C2288 H2280 0.929 . S
C2288 C2289 1.377 . S
C2288 C2290 1.384 . S
C2289 C2288 1.377 . S
C2289 C2295 1.390 . S
C2290 H2281 0.930 . S
C2290 C2288 1.384 . S
C2290 C2291 1.372 . S
C2291 C2290 1.372 . S
C2291 C2292 1.400 . S
C2291 C2296 1.490 . S
C2292 H2282 0.930 . S
C2292 C2291 1.400 . S
C2292 C2295 1.386 . S
H2293 C2309 0.930 . S
H2294 C2310 0.931 . S
C2295 H2283 0.929 . S
C2295 C2289 1.390 . S
C2295 C2292 1.386 . S
C2296 C2291 1.490 . S
C2296 C2298 1.395 1_556 S
C2296 C2299 1.403 . S
H2297 C2303 0.930 . S
C2298 H2284 0.930 . S
C2298 C2296 1.395 1_554 S
C2298 C2301 1.403 . S
C2299 C2296 1.403 . S
C2299 C2300 1.524 . S
C2299 C2303 1.400 . S
C2300 H2285 0.960 . S
C2300 H2286 0.960 . S
C2300 H2287 0.960 . S
C2300 C2299 1.524 . S
C2301 C2298 1.403 . S
C2301 C2302 1.392 . S
C2301 C2305 1.495 . S
C2302 C2301 1.392 . S
C2302 C2303 1.385 1_554 S
C2302 C2304 1.478 . S
C2303 H2297 0.930 . S
C2303 C2299 1.400 . S
C2303 C2302 1.385 1_556 S
C2304 C2302 1.478 . S
C2304 C2306 1.381 . S
C2304 C2310 1.383 . S
C2305 C2301 1.495 . S
C2305 H2311 0.959 . S
C2305 H2312 0.961 . S
C2305 H2313 0.960 . S
C2306 C2304 1.381 . S
C2306 C2307 1.394 . S
C2306 H2314 0.930 . S
C2307 C2306 1.394 . S
C2307 C2308 1.383 . S
C2307 H2315 0.929 . S
C2308 C2307 1.383 . S
C2308 C2309 1.377 . S
C2309 H2293 0.930 . S
C2309 C2308 1.377 . S
C2309 C2310 1.379 . S
C2310 H2294 0.931 . S
C2310 C2304 1.383 . S
C2310 C2309 1.379 . S
H2311 C2305 0.959 . S
H2312 C2305 0.961 . S
H2313 C2305 0.960 . S
H2314 C2306 0.930 . S
H2315 C2307 0.929 . S
H2316 C2324 0.929 . S
H2317 C2326 0.930 . S
H2318 C2328 0.930 . S
H2319 C2331 0.929 . S
H2320 C2334 0.930 . S
H2321 C2336 0.960 . S
H2322 C2336 0.960 . S
H2323 C2336 0.960 . S
C2324 H2316 0.929 . S
C2324 C2325 1.377 . S
C2324 C2326 1.384 . S
C2325 C2324 1.377 . S
C2325 C2331 1.390 . S
C2326 H2317 0.930 . S
C2326 C2324 1.384 . S
C2326 C2327 1.372 . S
C2327 C2326 1.372 . S
C2327 C2328 1.400 . S
C2327 C2332 1.490 . S
C2328 H2318 0.930 . S
C2328 C2327 1.400 . S
C2328 C2331 1.386 . S
H2329 C2345 0.930 . S
H2330 C2346 0.931 . S
C2331 H2319 0.929 . S
C2331 C2325 1.390 . S
C2331 C2328 1.386 . S
C2332 C2327 1.490 . S
C2332 C2334 1.395 . S
C2332 C2335 1.403 1_556 S
H2333 C2339 0.930 . S
C2334 H2320 0.930 . S
C2334 C2332 1.395 . S
C2334 C2337 1.403 . S
C2335 C2332 1.403 1_554 S
C2335 C2336 1.524 . S
C2335 C2339 1.400 . S
C2336 H2321 0.960 . S
C2336 H2322 0.960 . S
C2336 H2323 0.960 . S
C2336 C2335 1.524 . S
C2337 C2334 1.403 . S
C2337 C2338 1.392 1_556 S
C2337 C2341 1.495 . S
C2338 C2337 1.392 1_554 S
C2338 C2339 1.385 . S
C2338 C2340 1.478 . S
C2339 H2333 0.930 . S
C2339 C2335 1.400 . S
C2339 C2338 1.385 . S
C2340 C2338 1.478 . S
C2340 C2342 1.381 . S
C2340 C2346 1.383 . S
C2341 C2337 1.495 . S
C2341 H2347 0.959 . S
C2341 H2348 0.961 . S
C2341 H2349 0.960 . S
C2342 C2340 1.381 . S
C2342 C2343 1.394 . S
C2342 H2350 0.930 . S
C2343 C2342 1.394 . S
C2343 C2344 1.383 . S
C2343 H2351 0.929 . S
C2344 C2343 1.383 . S
C2344 C2345 1.377 . S
C2345 H2329 0.930 . S
C2345 C2344 1.377 . S
C2345 C2346 1.379 . S
C2346 H2330 0.931 . S
C2346 C2340 1.383 . S
C2346 C2345 1.379 . S
H2347 C2341 0.959 . S
H2348 C2341 0.961 . S
H2349 C2341 0.960 . S
H2350 C2342 0.930 . S
H2351 C2343 0.929 . S
H2352 C2360 0.929 . S
H2353 C2362 0.930 . S
H2354 C2364 0.930 . S
H2355 C2367 0.929 . S
H2356 C2370 0.930 . S
H2357 C2372 0.960 . S
H2358 C2372 0.960 . S
H2359 C2372 0.960 . S
C2360 H2352 0.929 . S
C2360 C2361 1.377 . S
C2360 C2362 1.384 . S
C2361 C2360 1.377 . S
C2361 C2367 1.390 . S
C2362 H2353 0.930 . S
C2362 C2360 1.384 . S
C2362 C2363 1.372 . S
C2363 C2362 1.372 . S
C2363 C2364 1.400 . S
C2363 C2368 1.490 . S
C2364 H2354 0.930 . S
C2364 C2363 1.400 . S
C2364 C2367 1.386 . S
H2365 C2381 0.930 . S
H2366 C2382 0.931 . S
C2367 H2355 0.929 . S
C2367 C2361 1.390 . S
C2367 C2364 1.386 . S
C2368 C2363 1.490 . S
C2368 C2370 1.395 1_556 S
C2368 C2371 1.403 . S
H2369 C2375 0.930 . S
C2370 H2356 0.930 . S
C2370 C2368 1.395 1_554 S
C2370 C2373 1.403 . S
C2371 C2368 1.403 . S
C2371 C2372 1.524 . S
C2371 C2375 1.400 . S
C2372 H2357 0.960 . S
C2372 H2358 0.960 . S
C2372 H2359 0.960 . S
C2372 C2371 1.524 . S
C2373 C2370 1.403 . S
C2373 C2374 1.392 . S
C2373 C2377 1.495 . S
C2374 C2373 1.392 . S
C2374 C2375 1.385 1_554 S
C2374 C2376 1.478 . S
C2375 H2369 0.930 . S
C2375 C2371 1.400 . S
C2375 C2374 1.385 1_556 S
C2376 C2374 1.478 . S
C2376 C2378 1.381 . S
C2376 C2382 1.383 . S
C2377 C2373 1.495 . S
C2377 H2383 0.959 . S
C2377 H2384 0.961 . S
C2377 H2385 0.960 . S
C2378 C2376 1.381 . S
C2378 C2379 1.394 . S
C2378 H2386 0.930 . S
C2379 C2378 1.394 . S
C2379 C2380 1.383 . S
C2379 H2387 0.929 . S
C2380 C2379 1.383 . S
C2380 C2381 1.377 . S
C2381 H2365 0.930 . S
C2381 C2380 1.377 . S
C2381 C2382 1.379 . S
C2382 H2366 0.931 . S
C2382 C2376 1.383 . S
C2382 C2381 1.379 . S
H2383 C2377 0.959 . S
H2384 C2377 0.961 . S
H2385 C2377 0.960 . S
H2386 C2378 0.930 . S
H2387 C2379 0.929 . S
H2388 C2396 0.929 . S
H2389 C2398 0.930 . S
H2390 C2400 0.930 . S
H2391 C2403 0.929 . S
H2392 C2406 0.930 . S
H2393 C2408 0.960 1_554 S
H2394 C2408 0.960 . S
H2395 C2408 0.960 1_554 S
C2396 H2388 0.929 . S
C2396 C2397 1.377 . S
C2396 C2398 1.384 . S
C2397 C2396 1.377 . S
C2397 C2403 1.390 . S
C2398 H2389 0.930 . S
C2398 C2396 1.384 . S
C2398 C2399 1.372 . S
C2399 C2398 1.372 . S
C2399 C2400 1.400 . S
C2399 C2404 1.490 . S
C2400 H2390 0.930 . S
C2400 C2399 1.400 . S
C2400 C2403 1.386 . S
H2401 C2417 0.930 . S
H2402 C2418 0.931 . S
C2403 H2391 0.929 . S
C2403 C2397 1.390 . S
C2403 C2400 1.386 . S
C2404 C2399 1.490 . S
C2404 C2406 1.395 . S
C2404 C2407 1.403 . S
H2405 C2411 0.930 . S
C2406 H2392 0.930 . S
C2406 C2404 1.395 . S
C2406 C2409 1.428 . S
C2407 C2404 1.403 . S
C2407 C2408 1.524 . S
C2407 C2411 1.400 1_556 S
C2408 H2393 0.960 1_556 S
C2408 H2394 0.960 . S
C2408 H2395 0.960 1_556 S
C2408 C2407 1.524 . S
C2409 C2406 1.428 . S
C2409 C2410 1.369 1_556 S
C2409 C2413 1.495 . S
C2410 C2409 1.369 1_554 S
C2410 C2411 1.385 . S
C2410 C2412 1.478 . S
C2411 H2405 0.930 . S
C2411 C2407 1.400 1_554 S
C2411 C2410 1.385 . S
C2412 C2410 1.478 . S
C2412 C2414 1.381 . S
C2412 C2418 1.383 . S
C2413 C2409 1.495 . S
C2413 H2419 0.978 . S
C2413 H2420 0.935 1_556 S
C2413 H2421 0.968 . S
C2414 C2412 1.381 . S
C2414 C2415 1.394 . S
C2414 H2422 0.930 . S
C2415 C2414 1.394 . S
C2415 C2416 1.383 . S
C2415 H2423 0.929 . S
C2416 C2415 1.383 . S
C2416 C2417 1.377 . S
C2417 H2401 0.930 . S
C2417 C2416 1.377 . S
C2417 C2418 1.379 . S
C2418 H2402 0.931 . S
C2418 C2412 1.383 . S
C2418 C2417 1.379 . S
H2419 C2413 0.978 . S
H2420 C2413 0.935 1_554 S
H2421 C2413 0.968 . S
H2422 C2414 0.930 . S
H2423 C2415 0.929 . S
H2424 C2432 0.929 . S
H2425 C2434 0.930 . S
H2426 C2436 0.930 . S
H2427 C2439 0.929 . S
H2428 C2442 0.930 . S
H2429 C2444 0.960 . S
H2430 C2444 0.960 . S
H2431 C2444 0.960 . S
C2432 H2424 0.929 . S
C2432 C2433 1.377 . S
C2432 C2434 1.384 . S
C2433 C2432 1.377 . S
C2433 C2439 1.390 . S
C2434 H2425 0.930 . S
C2434 C2432 1.384 . S
C2434 C2435 1.372 . S
C2435 C2434 1.372 . S
C2435 C2436 1.400 . S
C2435 C2440 1.490 . S
C2436 H2426 0.930 . S
C2436 C2435 1.400 . S
C2436 C2439 1.386 . S
H2437 C2453 0.930 . S
H2438 C2454 0.931 . S
C2439 H2427 0.929 . S
C2439 C2433 1.390 . S
C2439 C2436 1.386 . S
C2440 C2435 1.490 . S
C2440 C2442 1.395 . S
C2440 C2443 1.403 . S
H2441 C2447 0.930 . S
C2442 H2428 0.930 . S
C2442 C2440 1.395 . S
C2442 C2445 1.403 . S
C2443 C2440 1.403 . S
C2443 C2444 1.524 . S
C2443 C2447 1.400 . S
C2444 H2429 0.960 . S
C2444 H2430 0.960 . S
C2444 H2431 0.960 . S
C2444 C2443 1.524 . S
C2445 C2442 1.403 . S
C2445 C2446 1.392 . S
C2445 C2449 1.495 . S
C2446 C2445 1.392 . S
C2446 C2447 1.385 . S
C2446 C2448 1.478 . S
C2447 H2441 0.930 . S
C2447 C2443 1.400 . S
C2447 C2446 1.385 . S
C2448 C2446 1.478 . S
C2448 C2450 1.381 . S
C2448 C2454 1.383 . S
C2449 C2445 1.495 . S
C2449 H2455 0.959 . S
C2449 H2456 0.961 . S
C2449 H2457 0.960 . S
C2450 C2448 1.381 . S
C2450 C2451 1.394 . S
C2450 H2458 0.930 . S
C2451 C2450 1.394 . S
C2451 C2452 1.383 . S
C2451 H2459 0.929 . S
C2452 C2451 1.383 . S
C2452 C2453 1.377 . S
C2453 H2437 0.930 . S
C2453 C2452 1.377 . S
C2453 C2454 1.379 . S
C2454 H2438 0.931 . S
C2454 C2448 1.383 . S
C2454 C2453 1.379 . S
H2455 C2449 0.959 . S
H2456 C2449 0.961 . S
H2457 C2449 0.960 . S
H2458 C2450 0.930 . S
H2459 C2451 0.929 . S
H2460 C2468 0.929 . S
H2461 C2470 0.930 . S
H2462 C2472 0.930 . S
H2463 C2475 0.929 . S
H2464 C2478 0.930 . S
H2465 C2480 0.960 . S
H2466 C2480 0.960 . S
H2467 C2480 0.960 . S
C2468 H2460 0.929 . S
C2468 C2469 1.377 . S
C2468 C2470 1.384 . S
C2469 C2468 1.377 . S
C2469 C2475 1.390 . S
C2470 H2461 0.930 . S
C2470 C2468 1.384 . S
C2470 C2471 1.372 . S
C2471 C2470 1.372 . S
C2471 C2472 1.400 . S
C2471 C2476 1.490 . S
C2472 H2462 0.930 . S
C2472 C2471 1.400 . S
C2472 C2475 1.386 . S
H2473 C2489 0.930 . S
H2474 C2490 0.931 . S
C2475 H2463 0.929 . S
C2475 C2469 1.390 . S
C2475 C2472 1.386 . S
C2476 C2471 1.490 . S
C2476 C2478 1.395 . S
C2476 C2479 1.403 . S
H2477 C2483 0.930 . S
C2478 H2464 0.930 . S
C2478 C2476 1.395 . S
C2478 C2481 1.403 . S
C2479 C2476 1.403 . S
C2479 C2480 1.524 . S
C2479 C2483 1.400 . S
C2480 H2465 0.960 . S
C2480 H2466 0.960 . S
C2480 H2467 0.960 . S
C2480 C2479 1.524 . S
C2481 C2478 1.403 . S
C2481 C2482 1.392 . S
C2481 C2485 1.495 . S
C2482 C2481 1.392 . S
C2482 C2483 1.385 . S
C2482 C2484 1.478 . S
C2483 H2477 0.930 . S
C2483 C2479 1.400 . S
C2483 C2482 1.385 . S
C2484 C2482 1.478 . S
C2484 C2486 1.381 . S
C2484 C2490 1.383 . S
C2485 C2481 1.495 . S
C2485 H2491 0.959 . S
C2485 H2492 0.961 . S
C2485 H2493 0.960 . S
C2486 C2484 1.381 . S
C2486 C2487 1.394 . S
C2486 H2494 0.930 . S
C2487 C2486 1.394 . S
C2487 C2488 1.383 . S
C2487 H2495 0.929 . S
C2488 C2487 1.383 . S
C2488 C2489 1.377 . S
C2489 H2473 0.930 . S
C2489 C2488 1.377 . S
C2489 C2490 1.379 . S
C2490 H2474 0.931 . S
C2490 C2484 1.383 . S
C2490 C2489 1.379 . S
H2491 C2485 0.959 . S
H2492 C2485 0.961 . S
H2493 C2485 0.960 . S
H2494 C2486 0.930 . S
H2495 C2487 0.929 . S
H2496 C2504 0.929 . S
H2497 C2506 0.930 . S
H2498 C2508 0.930 . S
H2499 C2511 0.929 . S
H2500 C2514 0.930 . S
H2501 C2516 0.960 . S
H2502 C2516 0.960 . S
H2503 C2516 0.960 . S
C2504 H2496 0.929 . S
C2504 C2505 1.377 . S
C2504 C2506 1.384 . S
C2505 C2504 1.377 . S
C2505 C2511 1.390 . S
C2506 H2497 0.930 . S
C2506 C2504 1.384 . S
C2506 C2507 1.372 . S
C2507 C2506 1.372 . S
C2507 C2508 1.400 . S
C2507 C2512 1.490 . S
C2508 H2498 0.930 . S
C2508 C2507 1.400 . S
C2508 C2511 1.386 . S
H2509 C2525 0.930 . S
H2510 C2526 0.931 . S
C2511 H2499 0.929 . S
C2511 C2505 1.390 . S
C2511 C2508 1.386 . S
C2512 C2507 1.490 . S
C2512 C2514 1.395 . S
C2512 C2515 1.403 . S
H2513 C2519 0.930 . S
C2514 H2500 0.930 . S
C2514 C2512 1.395 . S
C2514 C2517 1.403 . S
C2515 C2512 1.403 . S
C2515 C2516 1.524 . S
C2515 C2519 1.400 . S
C2516 H2501 0.960 . S
C2516 H2502 0.960 . S
C2516 H2503 0.960 . S
C2516 C2515 1.524 . S
C2517 C2514 1.403 . S
C2517 C2518 1.392 . S
C2517 C2521 1.495 . S
C2518 C2517 1.392 . S
C2518 C2519 1.385 . S
C2518 C2520 1.478 . S
C2519 H2513 0.930 . S
C2519 C2515 1.400 . S
C2519 C2518 1.385 . S
C2520 C2518 1.478 . S
C2520 C2522 1.381 . S
C2520 C2526 1.383 . S
C2521 C2517 1.495 . S
C2521 H2527 0.959 . S
C2521 H2528 0.961 . S
C2521 H2529 0.960 . S
C2522 C2520 1.381 . S
C2522 C2523 1.394 . S
C2522 H2530 0.930 . S
C2523 C2522 1.394 . S
C2523 C2524 1.383 . S
C2523 H2531 0.929 . S
C2524 C2523 1.383 . S
C2524 C2525 1.377 . S
C2525 H2509 0.930 . S
C2525 C2524 1.377 . S
C2525 C2526 1.379 . S
C2526 H2510 0.931 . S
C2526 C2520 1.383 . S
C2526 C2525 1.379 . S
H2527 C2521 0.959 . S
H2528 C2521 0.961 . S
H2529 C2521 0.960 . S
H2530 C2522 0.930 . S
H2531 C2523 0.929 . S
H2532 C2540 0.929 . S
H2533 C2542 0.930 . S
H2534 C2544 0.930 . S
H2535 C2547 0.929 . S
H2536 C2550 0.930 . S
H2537 C2552 0.960 . S
H2538 C2552 0.960 . S
H2539 C2552 0.960 . S
C2540 H2532 0.929 . S
C2540 C2541 1.377 . S
C2540 C2542 1.384 . S
C2541 C2540 1.377 . S
C2541 C2547 1.390 . S
C2542 H2533 0.930 . S
C2542 C2540 1.384 . S
C2542 C2543 1.372 . S
C2543 C2542 1.372 . S
C2543 C2544 1.400 . S
C2543 C2548 1.490 . S
C2544 H2534 0.930 . S
C2544 C2543 1.400 . S
C2544 C2547 1.386 . S
H2545 C2561 0.930 . S
H2546 C2562 0.931 . S
C2547 H2535 0.929 . S
C2547 C2541 1.390 . S
C2547 C2544 1.386 . S
C2548 C2543 1.490 . S
C2548 C2550 1.395 . S
C2548 C2551 1.403 . S
H2549 C2555 0.930 . S
C2550 H2536 0.930 . S
C2550 C2548 1.395 . S
C2550 C2553 1.403 . S
C2551 C2548 1.403 . S
C2551 C2552 1.524 . S
C2551 C2555 1.400 . S
C2552 H2537 0.960 . S
C2552 H2538 0.960 . S
C2552 H2539 0.960 . S
C2552 C2551 1.524 . S
C2553 C2550 1.403 . S
C2553 C2554 1.392 . S
C2553 C2557 1.495 . S
C2554 C2553 1.392 . S
C2554 C2555 1.385 . S
C2554 C2556 1.478 . S
C2555 H2549 0.930 . S
C2555 C2551 1.400 . S
C2555 C2554 1.385 . S
C2556 C2554 1.478 . S
C2556 C2558 1.381 . S
C2556 C2562 1.383 . S
C2557 C2553 1.495 . S
C2557 H2563 0.959 . S
C2557 H2564 0.961 . S
C2557 H2565 0.960 . S
C2558 C2556 1.381 . S
C2558 C2559 1.394 . S
C2558 H2566 0.930 . S
C2559 C2558 1.394 . S
C2559 C2560 1.383 . S
C2559 H2567 0.929 . S
C2560 C2559 1.383 . S
C2560 C2561 1.377 . S
C2561 H2545 0.930 . S
C2561 C2560 1.377 . S
C2561 C2562 1.379 . S
C2562 H2546 0.931 . S
C2562 C2556 1.383 . S
C2562 C2561 1.379 . S
H2563 C2557 0.959 . S
H2564 C2557 0.961 . S
H2565 C2557 0.960 . S
H2566 C2558 0.930 . S
H2567 C2559 0.929 . S
H2568 C2576 0.929 . S
H2569 C2578 0.930 . S
H2570 C2580 0.930 . S
H2571 C2583 0.929 . S
H2572 C2586 0.930 . S
H2573 C2588 0.960 . S
H2574 C2588 0.960 . S
H2575 C2588 0.960 . S
C2576 H2568 0.929 . S
C2576 C2577 1.377 . S
C2576 C2578 1.384 . S
C2577 C2576 1.377 . S
C2577 C2583 1.390 . S
C2578 H2569 0.930 . S
C2578 C2576 1.384 . S
C2578 C2579 1.372 . S
C2579 C2578 1.372 . S
C2579 C2580 1.400 . S
C2579 C2584 1.490 . S
C2580 H2570 0.930 . S
C2580 C2579 1.400 . S
C2580 C2583 1.386 . S
H2581 C2597 0.930 . S
H2582 C2598 0.931 . S
C2583 H2571 0.929 . S
C2583 C2577 1.390 . S
C2583 C2580 1.386 . S
C2584 C2579 1.490 . S
C2584 C2586 1.395 . S
C2584 C2587 1.403 . S
H2585 C2591 0.930 . S
C2586 H2572 0.930 . S
C2586 C2584 1.395 . S
C2586 C2589 1.403 . S
C2587 C2584 1.403 . S
C2587 C2588 1.524 . S
C2587 C2591 1.400 . S
C2588 H2573 0.960 . S
C2588 H2574 0.960 . S
C2588 H2575 0.960 . S
C2588 C2587 1.524 . S
C2589 C2586 1.403 . S
C2589 C2590 1.392 . S
C2589 C2593 1.495 . S
C2590 C2589 1.392 . S
C2590 C2591 1.385 . S
C2590 C2592 1.478 . S
C2591 H2585 0.930 . S
C2591 C2587 1.400 . S
C2591 C2590 1.385 . S
C2592 C2590 1.478 . S
C2592 C2594 1.381 . S
C2592 C2598 1.383 . S
C2593 C2589 1.495 . S
C2593 H2599 0.959 . S
C2593 H2600 0.961 . S
C2593 H2601 0.960 . S
C2594 C2592 1.381 . S
C2594 C2595 1.394 . S
C2594 H2602 0.930 . S
C2595 C2594 1.394 . S
C2595 C2596 1.383 . S
C2595 H2603 0.929 . S
C2596 C2595 1.383 . S
C2596 C2597 1.377 . S
C2597 H2581 0.930 . S
C2597 C2596 1.377 . S
C2597 C2598 1.379 . S
C2598 H2582 0.931 . S
C2598 C2592 1.383 . S
C2598 C2597 1.379 . S
H2599 C2593 0.959 . S
H2600 C2593 0.961 . S
H2601 C2593 0.960 . S
H2602 C2594 0.930 . S
H2603 C2595 0.929 . S
H2604 C2612 0.929 . S
H2605 C2614 0.930 . S
H2606 C2616 0.930 . S
H2607 C2619 0.929 . S
H2608 C2622 0.930 . S
H2609 C2624 0.960 . S
H2610 C2624 0.960 . S
H2611 C2624 0.960 . S
C2612 H2604 0.929 . S
C2612 C2613 1.377 . S
C2612 C2614 1.384 . S
C2613 C2612 1.377 . S
C2613 C2619 1.390 . S
C2614 H2605 0.930 . S
C2614 C2612 1.384 . S
C2614 C2615 1.372 . S
C2615 C2614 1.372 . S
C2615 C2616 1.400 . S
C2615 C2620 1.490 . S
C2616 H2606 0.930 . S
C2616 C2615 1.400 . S
C2616 C2619 1.386 . S
H2617 C2633 0.930 . S
H2618 C2634 0.931 . S
C2619 H2607 0.929 . S
C2619 C2613 1.390 . S
C2619 C2616 1.386 . S
C2620 C2615 1.490 . S
C2620 C2622 1.395 . S
C2620 C2623 1.403 . S
H2621 C2627 0.930 . S
C2622 H2608 0.930 . S
C2622 C2620 1.395 . S
C2622 C2625 1.403 . S
C2623 C2620 1.403 . S
C2623 C2624 1.524 . S
C2623 C2627 1.400 . S
C2624 H2609 0.960 . S
C2624 H2610 0.960 . S
C2624 H2611 0.960 . S
C2624 C2623 1.524 . S
C2625 C2622 1.403 . S
C2625 C2626 1.392 . S
C2625 C2629 1.495 . S
C2626 C2625 1.392 . S
C2626 C2627 1.385 . S
C2626 C2628 1.478 . S
C2627 H2621 0.930 . S
C2627 C2623 1.400 . S
C2627 C2626 1.385 . S
C2628 C2626 1.478 . S
C2628 C2630 1.381 . S
C2628 C2634 1.383 . S
C2629 C2625 1.495 . S
C2629 H2635 0.959 . S
C2629 H2636 0.961 . S
C2629 H2637 0.960 . S
C2630 C2628 1.381 . S
C2630 C2631 1.394 . S
C2630 H2638 0.930 . S
C2631 C2630 1.394 . S
C2631 C2632 1.383 . S
C2631 H2639 0.929 . S
C2632 C2631 1.383 . S
C2632 C2633 1.377 . S
C2633 H2617 0.930 . S
C2633 C2632 1.377 . S
C2633 C2634 1.379 . S
C2634 H2618 0.931 . S
C2634 C2628 1.383 . S
C2634 C2633 1.379 . S
H2635 C2629 0.959 . S
H2636 C2629 0.961 . S
H2637 C2629 0.960 . S
H2638 C2630 0.930 . S
H2639 C2631 0.929 . S
H2640 C2648 0.929 . S
H2641 C2650 0.930 . S
H2642 C2652 0.930 . S
H2643 C2655 0.929 . S
H2644 C2658 0.930 . S
H2645 C2660 0.960 . S
H2646 C2660 0.960 . S
H2647 C2660 0.960 . S
C2648 H2640 0.929 . S
C2648 C2649 1.377 . S
C2648 C2650 1.384 . S
C2649 C2648 1.377 . S
C2649 C2655 1.390 . S
C2650 H2641 0.930 . S
C2650 C2648 1.384 . S
C2650 C2651 1.372 . S
C2651 C2650 1.372 . S
C2651 C2652 1.400 . S
C2651 C2656 1.490 . S
C2652 H2642 0.930 . S
C2652 C2651 1.400 . S
C2652 C2655 1.386 . S
H2653 C2669 0.930 . S
H2654 C2670 0.931 . S
C2655 H2643 0.929 . S
C2655 C2649 1.390 . S
C2655 C2652 1.386 . S
C2656 C2651 1.490 . S
C2656 C2658 1.395 . S
C2656 C2659 1.403 . S
H2657 C2663 0.930 . S
C2658 H2644 0.930 . S
C2658 C2656 1.395 . S
C2658 C2661 1.403 . S
C2659 C2656 1.403 . S
C2659 C2660 1.524 . S
C2659 C2663 1.400 . S
C2660 H2645 0.960 . S
C2660 H2646 0.960 . S
C2660 H2647 0.960 . S
C2660 C2659 1.524 . S
C2661 C2658 1.403 . S
C2661 C2662 1.392 . S
C2661 C2665 1.495 . S
C2662 C2661 1.392 . S
C2662 C2663 1.385 . S
C2662 C2664 1.478 . S
C2663 H2657 0.930 . S
C2663 C2659 1.400 . S
C2663 C2662 1.385 . S
C2664 C2662 1.478 . S
C2664 C2666 1.381 . S
C2664 C2670 1.383 . S
C2665 C2661 1.495 . S
C2665 H2671 0.959 . S
C2665 H2672 0.961 . S
C2665 H2673 0.960 . S
C2666 C2664 1.381 . S
C2666 C2667 1.394 . S
C2666 H2674 0.930 . S
C2667 C2666 1.394 . S
C2667 C2668 1.383 . S
C2667 H2675 0.929 . S
C2668 C2667 1.383 . S
C2668 C2669 1.377 . S
C2669 H2653 0.930 . S
C2669 C2668 1.377 . S
C2669 C2670 1.379 . S
C2670 H2654 0.931 . S
C2670 C2664 1.383 . S
C2670 C2669 1.379 . S
H2671 C2665 0.959 . S
H2672 C2665 0.961 . S
H2673 C2665 0.960 . S
H2674 C2666 0.930 . S
H2675 C2667 0.929 . S
H2676 C2684 0.929 . S
H2677 C2686 0.930 . S
H2678 C2688 0.930 . S
H2679 C2691 0.929 . S
H2680 C2694 0.930 . S
H2681 C2696 0.960 . S
H2682 C2696 0.960 . S
H2683 C2696 0.960 . S
C2684 H2676 0.929 . S
C2684 C2685 1.377 . S
C2684 C2686 1.384 . S
C2685 C2684 1.377 . S
C2685 C2691 1.390 . S
C2686 H2677 0.930 . S
C2686 C2684 1.384 . S
C2686 C2687 1.372 . S
C2687 C2686 1.372 . S
C2687 C2688 1.400 . S
C2687 C2692 1.490 . S
C2688 H2678 0.930 . S
C2688 C2687 1.400 . S
C2688 C2691 1.386 . S
H2689 C2705 0.930 . S
H2690 C2706 0.931 . S
C2691 H2679 0.929 . S
C2691 C2685 1.390 . S
C2691 C2688 1.386 . S
C2692 C2687 1.490 . S
C2692 C2694 1.395 . S
C2692 C2695 1.403 . S
H2693 C2699 0.930 . S
C2694 H2680 0.930 . S
C2694 C2692 1.395 . S
C2694 C2697 1.403 . S
C2695 C2692 1.403 . S
C2695 C2696 1.524 . S
C2695 C2699 1.400 . S
C2696 H2681 0.960 . S
C2696 H2682 0.960 . S
C2696 H2683 0.960 . S
C2696 C2695 1.524 . S
C2697 C2694 1.403 . S
C2697 C2698 1.392 . S
C2697 C2701 1.495 . S
C2698 C2697 1.392 . S
C2698 C2699 1.385 . S
C2698 C2700 1.478 . S
C2699 H2693 0.930 . S
C2699 C2695 1.400 . S
C2699 C2698 1.385 . S
C2700 C2698 1.478 . S
C2700 C2702 1.381 . S
C2700 C2706 1.383 . S
C2701 C2697 1.495 . S
C2701 H2707 0.959 . S
C2701 H2708 0.961 . S
C2701 H2709 0.960 . S
C2702 C2700 1.381 . S
C2702 C2703 1.394 . S
C2702 H2710 0.930 . S
C2703 C2702 1.394 . S
C2703 C2704 1.383 . S
C2703 H2711 0.929 . S
C2704 C2703 1.383 . S
C2704 C2705 1.377 . S
C2705 H2689 0.930 . S
C2705 C2704 1.377 . S
C2705 C2706 1.379 . S
C2706 H2690 0.931 . S
C2706 C2700 1.383 . S
C2706 C2705 1.379 . S
H2707 C2701 0.959 . S
H2708 C2701 0.961 . S
H2709 C2701 0.960 . S
H2710 C2702 0.930 . S
H2711 C2703 0.929 . S
H2712 C2720 0.929 . S
H2713 C2722 0.930 . S
H2714 C2724 0.930 . S
H2715 C2727 0.929 . S
H2716 C2730 0.930 . S
H2717 C2732 0.960 . S
H2718 C2732 0.960 . S
H2719 C2732 0.960 . S
C2720 H2712 0.929 . S
C2720 C2721 1.377 . S
C2720 C2722 1.384 . S
C2721 C2720 1.377 . S
C2721 C2727 1.390 . S
C2722 H2713 0.930 . S
C2722 C2720 1.384 . S
C2722 C2723 1.372 . S
C2723 C2722 1.372 . S
C2723 C2724 1.400 . S
C2723 C2728 1.490 . S
C2724 H2714 0.930 . S
C2724 C2723 1.400 . S
C2724 C2727 1.386 . S
H2725 C2741 0.930 . S
H2726 C2742 0.931 . S
C2727 H2715 0.929 . S
C2727 C2721 1.390 . S
C2727 C2724 1.386 . S
C2728 C2723 1.490 . S
C2728 C2730 1.395 . S
C2728 C2731 1.403 . S
H2729 C2735 0.930 . S
C2730 H2716 0.930 . S
C2730 C2728 1.395 . S
C2730 C2733 1.403 . S
C2731 C2728 1.403 . S
C2731 C2732 1.524 . S
C2731 C2735 1.400 . S
C2732 H2717 0.960 . S
C2732 H2718 0.960 . S
C2732 H2719 0.960 . S
C2732 C2731 1.524 . S
C2733 C2730 1.403 . S
C2733 C2734 1.392 . S
C2733 C2737 1.495 . S
C2734 C2733 1.392 . S
C2734 C2735 1.385 . S
C2734 C2736 1.478 . S
C2735 H2729 0.930 . S
C2735 C2731 1.400 . S
C2735 C2734 1.385 . S
C2736 C2734 1.478 . S
C2736 C2738 1.381 . S
C2736 C2742 1.383 . S
C2737 C2733 1.495 . S
C2737 H2743 0.959 . S
C2737 H2744 0.961 . S
C2737 H2745 0.960 . S
C2738 C2736 1.381 . S
C2738 C2739 1.394 . S
C2738 H2746 0.930 . S
C2739 C2738 1.394 . S
C2739 C2740 1.383 . S
C2739 H2747 0.929 . S
C2740 C2739 1.383 . S
C2740 C2741 1.377 . S
C2741 H2725 0.930 . S
C2741 C2740 1.377 . S
C2741 C2742 1.379 . S
C2742 H2726 0.931 . S
C2742 C2736 1.383 . S
C2742 C2741 1.379 . S
H2743 C2737 0.959 . S
H2744 C2737 0.961 . S
H2745 C2737 0.960 . S
H2746 C2738 0.930 . S
H2747 C2739 0.929 . S
H2748 C2756 0.929 . S
H2749 C2758 0.930 . S
H2750 C2760 0.930 . S
H2751 C2763 0.929 . S
H2752 C2766 0.930 . S
H2753 C2768 0.960 . S
H2754 C2768 0.960 . S
H2755 C2768 0.960 . S
C2756 H2748 0.929 . S
C2756 C2757 1.377 . S
C2756 C2758 1.384 . S
C2757 C2756 1.377 . S
C2757 C2763 1.390 . S
C2758 H2749 0.930 . S
C2758 C2756 1.384 . S
C2758 C2759 1.372 . S
C2759 C2758 1.372 . S
C2759 C2760 1.400 . S
C2759 C2764 1.490 . S
C2760 H2750 0.930 . S
C2760 C2759 1.400 . S
C2760 C2763 1.386 . S
H2761 C2777 0.930 . S
H2762 C2778 0.931 . S
C2763 H2751 0.929 . S
C2763 C2757 1.390 . S
C2763 C2760 1.386 . S
C2764 C2759 1.490 . S
C2764 C2766 1.395 . S
C2764 C2767 1.403 . S
H2765 C2771 0.930 . S
C2766 H2752 0.930 . S
C2766 C2764 1.395 . S
C2766 C2769 1.403 . S
C2767 C2764 1.403 . S
C2767 C2768 1.524 . S
C2767 C2771 1.400 . S
C2768 H2753 0.960 . S
C2768 H2754 0.960 . S
C2768 H2755 0.960 . S
C2768 C2767 1.524 . S
C2769 C2766 1.403 . S
C2769 C2770 1.392 . S
C2769 C2773 1.495 . S
C2770 C2769 1.392 . S
C2770 C2771 1.385 . S
C2770 C2772 1.478 . S
C2771 H2765 0.930 . S
C2771 C2767 1.400 . S
C2771 C2770 1.385 . S
C2772 C2770 1.478 . S
C2772 C2774 1.381 . S
C2772 C2778 1.383 . S
C2773 C2769 1.495 . S
C2773 H2779 0.959 . S
C2773 H2780 0.961 . S
C2773 H2781 0.960 . S
C2774 C2772 1.381 . S
C2774 C2775 1.394 . S
C2774 H2782 0.930 . S
C2775 C2774 1.394 . S
C2775 C2776 1.383 . S
C2775 H2783 0.929 . S
C2776 C2775 1.383 . S
C2776 C2777 1.377 . S
C2777 H2761 0.930 . S
C2777 C2776 1.377 . S
C2777 C2778 1.379 . S
C2778 H2762 0.931 . S
C2778 C2772 1.383 . S
C2778 C2777 1.379 . S
H2779 C2773 0.959 . S
H2780 C2773 0.961 . S
H2781 C2773 0.960 . S
H2782 C2774 0.930 . S
H2783 C2775 0.929 . S
H2784 C2792 0.929 . S
H2785 C2794 0.930 . S
H2786 C2796 0.930 . S
H2787 C2799 0.929 . S
H2788 C2802 0.930 . S
H2789 C2804 0.960 . S
H2790 C2804 0.960 . S
H2791 C2804 0.960 . S
C2792 H2784 0.929 . S
C2792 C2793 1.377 . S
C2792 C2794 1.384 . S
C2793 C2792 1.377 . S
C2793 C2799 1.390 . S
C2794 H2785 0.930 . S
C2794 C2792 1.384 . S
C2794 C2795 1.372 . S
C2795 C2794 1.372 . S
C2795 C2796 1.400 . S
C2795 C2800 1.490 . S
C2796 H2786 0.930 . S
C2796 C2795 1.400 . S
C2796 C2799 1.386 . S
H2797 C2813 0.930 . S
H2798 C2814 0.931 . S
C2799 H2787 0.929 . S
C2799 C2793 1.390 . S
C2799 C2796 1.386 . S
C2800 C2795 1.490 . S
C2800 C2802 1.395 . S
C2800 C2803 1.403 . S
H2801 C2807 0.930 . S
C2802 H2788 0.930 . S
C2802 C2800 1.395 . S
C2802 C2805 1.403 . S
C2803 C2800 1.403 . S
C2803 C2804 1.524 . S
C2803 C2807 1.400 . S
C2804 H2789 0.960 . S
C2804 H2790 0.960 . S
C2804 H2791 0.960 . S
C2804 C2803 1.524 . S
C2805 C2802 1.403 . S
C2805 C2806 1.392 . S
C2805 C2809 1.495 . S
C2806 C2805 1.392 . S
C2806 C2807 1.385 . S
C2806 C2808 1.478 . S
C2807 H2801 0.930 . S
C2807 C2803 1.400 . S
C2807 C2806 1.385 . S
C2808 C2806 1.478 . S
C2808 C2810 1.381 . S
C2808 C2814 1.383 . S
C2809 C2805 1.495 . S
C2809 H2815 0.959 . S
C2809 H2816 0.961 . S
C2809 H2817 0.960 . S
C2810 C2808 1.381 . S
C2810 C2811 1.394 . S
C2810 H2818 0.930 . S
C2811 C2810 1.394 . S
C2811 C2812 1.383 . S
C2811 H2819 0.929 . S
C2812 C2811 1.383 . S
C2812 C2813 1.377 . S
C2813 H2797 0.930 . S
C2813 C2812 1.377 . S
C2813 C2814 1.379 . S
C2814 H2798 0.931 . S
C2814 C2808 1.383 . S
C2814 C2813 1.379 . S
H2815 C2809 0.959 . S
H2816 C2809 0.961 . S
H2817 C2809 0.960 . S
H2818 C2810 0.930 . S
H2819 C2811 0.929 . S
H2820 C2828 0.929 . S
H2821 C2830 0.930 . S
H2822 C2832 0.930 . S
H2823 C2835 0.929 . S
H2824 C2838 0.930 . S
H2825 C2840 0.960 . S
H2826 C2840 0.960 . S
H2827 C2840 0.960 . S
C2828 H2820 0.929 . S
C2828 C2829 1.377 . S
C2828 C2830 1.384 . S
C2829 C2828 1.377 . S
C2829 C2835 1.390 . S
C2830 H2821 0.930 . S
C2830 C2828 1.384 . S
C2830 C2831 1.372 . S
C2831 C2830 1.372 . S
C2831 C2832 1.400 . S
C2831 C2836 1.490 . S
C2832 H2822 0.930 . S
C2832 C2831 1.400 . S
C2832 C2835 1.386 . S
H2833 C2849 0.930 . S
H2834 C2850 0.931 . S
C2835 H2823 0.929 . S
C2835 C2829 1.390 . S
C2835 C2832 1.386 . S
C2836 C2831 1.490 . S
C2836 C2838 1.395 . S
C2836 C2839 1.403 . S
H2837 C2843 0.930 . S
C2838 H2824 0.930 . S
C2838 C2836 1.395 . S
C2838 C2841 1.403 . S
C2839 C2836 1.403 . S
C2839 C2840 1.524 . S
C2839 C2843 1.400 . S
C2840 H2825 0.960 . S
C2840 H2826 0.960 . S
C2840 H2827 0.960 . S
C2840 C2839 1.524 . S
C2841 C2838 1.403 . S
C2841 C2842 1.392 . S
C2841 C2845 1.495 . S
C2842 C2841 1.392 . S
C2842 C2843 1.385 . S
C2842 C2844 1.478 . S
C2843 H2837 0.930 . S
C2843 C2839 1.400 . S
C2843 C2842 1.385 . S
C2844 C2842 1.478 . S
C2844 C2846 1.381 . S
C2844 C2850 1.383 . S
C2845 C2841 1.495 . S
C2845 H2851 0.959 . S
C2845 H2852 0.961 . S
C2845 H2853 0.960 . S
C2846 C2844 1.381 . S
C2846 C2847 1.394 . S
C2846 H2854 0.930 . S
C2847 C2846 1.394 . S
C2847 C2848 1.383 . S
C2847 H2855 0.929 . S
C2848 C2847 1.383 . S
C2848 C2849 1.377 . S
C2849 H2833 0.930 . S
C2849 C2848 1.377 . S
C2849 C2850 1.379 . S
C2850 H2834 0.931 . S
C2850 C2844 1.383 . S
C2850 C2849 1.379 . S
H2851 C2845 0.959 . S
H2852 C2845 0.961 . S
H2853 C2845 0.960 . S
H2854 C2846 0.930 . S
H2855 C2847 0.929 . S
H2856 C2864 0.929 . S
H2857 C2866 0.930 . S
H2858 C2868 0.930 . S
H2859 C2871 0.929 . S
H2860 C2874 0.930 . S
H2861 C2876 0.960 . S
H2862 C2876 0.960 . S
H2863 C2876 0.960 . S
C2864 H2856 0.929 . S
C2864 C2865 1.377 . S
C2864 C2866 1.384 . S
C2865 C2864 1.377 . S
C2865 C2871 1.390 . S
C2866 H2857 0.930 . S
C2866 C2864 1.384 . S
C2866 C2867 1.372 . S
C2867 C2866 1.372 . S
C2867 C2868 1.400 . S
C2867 C2872 1.490 . S
C2868 H2858 0.930 . S
C2868 C2867 1.400 . S
C2868 C2871 1.386 . S
H2869 C2885 0.930 . S
H2870 C2886 0.931 . S
C2871 H2859 0.929 . S
C2871 C2865 1.390 . S
C2871 C2868 1.386 . S
C2872 C2867 1.490 . S
C2872 C2874 1.395 . S
C2872 C2875 1.403 . S
H2873 C2879 0.930 . S
C2874 H2860 0.930 . S
C2874 C2872 1.395 . S
C2874 C2877 1.403 . S
C2875 C2872 1.403 . S
C2875 C2876 1.524 . S
C2875 C2879 1.400 . S
C2876 H2861 0.960 . S
C2876 H2862 0.960 . S
C2876 H2863 0.960 . S
C2876 C2875 1.524 . S
C2877 C2874 1.403 . S
C2877 C2878 1.392 . S
C2877 C2881 1.495 . S
C2878 C2877 1.392 . S
C2878 C2879 1.385 . S
C2878 C2880 1.478 . S
C2879 H2873 0.930 . S
C2879 C2875 1.400 . S
C2879 C2878 1.385 . S
C2880 C2878 1.478 . S
C2880 C2882 1.381 . S
C2880 C2886 1.383 . S
C2881 C2877 1.495 . S
C2881 H2887 0.959 . S
C2881 H2888 0.961 . S
C2881 H2889 0.960 . S
C2882 C2880 1.381 . S
C2882 C2883 1.394 . S
C2882 H2890 0.930 . S
C2883 C2882 1.394 . S
C2883 C2884 1.383 . S
C2883 H2891 0.929 . S
C2884 C2883 1.383 . S
C2884 C2885 1.377 . S
C2885 H2869 0.930 . S
C2885 C2884 1.377 . S
C2885 C2886 1.379 . S
C2886 H2870 0.931 . S
C2886 C2880 1.383 . S
C2886 C2885 1.379 . S
H2887 C2881 0.959 . S
H2888 C2881 0.961 . S
H2889 C2881 0.960 . S
H2890 C2882 0.930 . S
H2891 C2883 0.929 . S
H2892 C2900 0.929 . S
H2893 C2902 0.930 . S
H2894 C2904 0.930 . S
H2895 C2907 0.929 . S
H2896 C2910 0.930 . S
H2897 C2912 0.960 . S
H2898 C2912 0.960 . S
H2899 C2912 0.960 . S
C2900 H2892 0.929 . S
C2900 C2901 1.377 . S
C2900 C2902 1.384 . S
C2901 C2900 1.377 . S
C2901 C2907 1.390 . S
C2902 H2893 0.930 . S
C2902 C2900 1.384 . S
C2902 C2903 1.372 . S
C2903 C2902 1.372 . S
C2903 C2904 1.400 . S
C2903 C2908 1.490 . S
C2904 H2894 0.930 . S
C2904 C2903 1.400 . S
C2904 C2907 1.386 . S
H2905 C2921 0.930 . S
H2906 C2922 0.931 . S
C2907 H2895 0.929 . S
C2907 C2901 1.390 . S
C2907 C2904 1.386 . S
C2908 C2903 1.490 . S
C2908 C2910 1.395 . S
C2908 C2911 1.403 . S
H2909 C2915 0.930 . S
C2910 H2896 0.930 . S
C2910 C2908 1.395 . S
C2910 C2913 1.403 . S
C2911 C2908 1.403 . S
C2911 C2912 1.524 . S
C2911 C2915 1.400 . S
C2912 H2897 0.960 . S
C2912 H2898 0.960 . S
C2912 H2899 0.960 . S
C2912 C2911 1.524 . S
C2913 C2910 1.403 . S
C2913 C2914 1.392 . S
C2913 C2917 1.495 . S
C2914 C2913 1.392 . S
C2914 C2915 1.385 . S
C2914 C2916 1.478 . S
C2915 H2909 0.930 . S
C2915 C2911 1.400 . S
C2915 C2914 1.385 . S
C2916 C2914 1.478 . S
C2916 C2918 1.381 . S
C2916 C2922 1.383 . S
C2917 C2913 1.495 . S
C2917 H2923 0.959 . S
C2917 H2924 0.961 . S
C2917 H2925 0.960 . S
C2918 C2916 1.381 . S
C2918 C2919 1.394 . S
C2918 H2926 0.930 . S
C2919 C2918 1.394 . S
C2919 C2920 1.383 . S
C2919 H2927 0.929 . S
C2920 C2919 1.383 . S
C2920 C2921 1.377 . S
C2921 H2905 0.930 . S
C2921 C2920 1.377 . S
C2921 C2922 1.379 . S
C2922 H2906 0.931 . S
C2922 C2916 1.383 . S
C2922 C2921 1.379 . S
H2923 C2917 0.959 . S
H2924 C2917 0.961 . S
H2925 C2917 0.960 . S
H2926 C2918 0.930 . S
H2927 C2919 0.929 . S
H2928 C2936 0.929 . S
H2929 C2938 0.930 . S
H2930 C2940 0.930 . S
H2931 C2943 0.929 . S
H2932 C2946 0.930 . S
H2933 C2948 0.960 . S
H2934 C2948 0.960 . S
H2935 C2948 0.960 . S
C2936 H2928 0.929 . S
C2936 C2937 1.377 . S
C2936 C2938 1.384 . S
C2937 C2936 1.377 . S
C2937 C2943 1.390 . S
C2938 H2929 0.930 . S
C2938 C2936 1.384 . S
C2938 C2939 1.372 . S
C2939 C2938 1.372 . S
C2939 C2940 1.400 . S
C2939 C2944 1.490 . S
C2940 H2930 0.930 . S
C2940 C2939 1.400 . S
C2940 C2943 1.386 . S
H2941 C2957 0.930 . S
H2942 C2958 0.931 . S
C2943 H2931 0.929 . S
C2943 C2937 1.390 . S
C2943 C2940 1.386 . S
C2944 C2939 1.490 . S
C2944 C2946 1.395 . S
C2944 C2947 1.403 . S
H2945 C2951 0.930 . S
C2946 H2932 0.930 . S
C2946 C2944 1.395 . S
C2946 C2949 1.403 . S
C2947 C2944 1.403 . S
C2947 C2948 1.524 . S
C2947 C2951 1.400 . S
C2948 H2933 0.960 . S
C2948 H2934 0.960 . S
C2948 H2935 0.960 . S
C2948 C2947 1.524 . S
C2949 C2946 1.403 . S
C2949 C2950 1.392 . S
C2949 C2953 1.495 . S
C2950 C2949 1.392 . S
C2950 C2951 1.385 . S
C2950 C2952 1.478 . S
C2951 H2945 0.930 . S
C2951 C2947 1.400 . S
C2951 C2950 1.385 . S
C2952 C2950 1.478 . S
C2952 C2954 1.381 . S
C2952 C2958 1.383 . S
C2953 C2949 1.495 . S
C2953 H2959 0.959 . S
C2953 H2960 0.961 . S
C2953 H2961 0.960 . S
C2954 C2952 1.381 . S
C2954 C2955 1.394 . S
C2954 H2962 0.930 . S
C2955 C2954 1.394 . S
C2955 C2956 1.383 . S
C2955 H2963 0.929 . S
C2956 C2955 1.383 . S
C2956 C2957 1.377 . S
C2957 H2941 0.930 . S
C2957 C2956 1.377 . S
C2957 C2958 1.379 . S
C2958 H2942 0.931 . S
C2958 C2952 1.383 . S
C2958 C2957 1.379 . S
H2959 C2953 0.959 . S
H2960 C2953 0.961 . S
H2961 C2953 0.960 . S
H2962 C2954 0.930 . S
H2963 C2955 0.929 . S
H2964 C2972 0.929 . S
H2965 C2974 0.930 . S
H2966 C2976 0.930 . S
H2967 C2979 0.929 . S
H2968 C2982 0.930 . S
H2969 C2984 0.960 . S
H2970 C2984 0.960 . S
H2971 C2984 0.960 . S
C2972 H2964 0.929 . S
C2972 C2973 1.377 . S
C2972 C2974 1.384 . S
C2973 C2972 1.377 . S
C2973 C2979 1.390 . S
C2974 H2965 0.930 . S
C2974 C2972 1.384 . S
C2974 C2975 1.372 . S
C2975 C2974 1.372 . S
C2975 C2976 1.400 . S
C2975 C2980 1.490 . S
C2976 H2966 0.930 . S
C2976 C2975 1.400 . S
C2976 C2979 1.386 . S
H2977 C2993 0.930 . S
H2978 C2994 0.931 . S
C2979 H2967 0.929 . S
C2979 C2973 1.390 . S
C2979 C2976 1.386 . S
C2980 C2975 1.490 . S
C2980 C2982 1.395 . S
C2980 C2983 1.403 . S
H2981 C2987 0.930 . S
C2982 H2968 0.930 . S
C2982 C2980 1.395 . S
C2982 C2985 1.403 . S
C2983 C2980 1.403 . S
C2983 C2984 1.524 . S
C2983 C2987 1.400 . S
C2984 H2969 0.960 . S
C2984 H2970 0.960 . S
C2984 H2971 0.960 . S
C2984 C2983 1.524 . S
C2985 C2982 1.403 . S
C2985 C2986 1.392 . S
C2985 C2989 1.495 . S
C2986 C2985 1.392 . S
C2986 C2987 1.385 . S
C2986 C2988 1.478 . S
C2987 H2981 0.930 . S
C2987 C2983 1.400 . S
C2987 C2986 1.385 . S
C2988 C2986 1.478 . S
C2988 C2990 1.381 . S
C2988 C2994 1.383 . S
C2989 C2985 1.495 . S
C2989 H2995 0.959 . S
C2989 H2996 0.961 . S
C2989 H2997 0.960 . S
C2990 C2988 1.381 . S
C2990 C2991 1.394 . S
C2990 H2998 0.930 . S
C2991 C2990 1.394 . S
C2991 C2992 1.383 . S
C2991 H2999 0.929 . S
C2992 C2991 1.383 . S
C2992 C2993 1.377 . S
C2993 H2977 0.930 . S
C2993 C2992 1.377 . S
C2993 C2994 1.379 . S
C2994 H2978 0.931 . S
C2994 C2988 1.383 . S
C2994 C2993 1.379 . S
H2995 C2989 0.959 . S
H2996 C2989 0.961 . S
H2997 C2989 0.960 . S
H2998 C2990 0.930 . S
H2999 C2991 0.929 . S
H3000 C3008 0.929 . S
H3001 C3010 0.930 . S
H3002 C3012 0.930 . S
H3003 C3015 0.929 . S
H3004 C3018 0.930 . S
H3005 C3020 0.960 . S
H3006 C3020 0.960 . S
H3007 C3020 0.960 . S
C3008 H3000 0.929 . S
C3008 C3009 1.377 . S
C3008 C3010 1.384 . S
C3009 C3008 1.377 . S
C3009 C3015 1.390 . S
C3010 H3001 0.930 . S
C3010 C3008 1.384 . S
C3010 C3011 1.372 . S
C3011 C3010 1.372 . S
C3011 C3012 1.400 . S
C3011 C3016 1.490 . S
C3012 H3002 0.930 . S
C3012 C3011 1.400 . S
C3012 C3015 1.386 . S
H3013 C3029 0.930 . S
H3014 C3030 0.931 . S
C3015 H3003 0.929 . S
C3015 C3009 1.390 . S
C3015 C3012 1.386 . S
C3016 C3011 1.490 . S
C3016 C3018 1.395 . S
C3016 C3019 1.403 . S
H3017 C3023 0.930 . S
C3018 H3004 0.930 . S
C3018 C3016 1.395 . S
C3018 C3021 1.403 . S
C3019 C3016 1.403 . S
C3019 C3020 1.524 . S
C3019 C3023 1.400 . S
C3020 H3005 0.960 . S
C3020 H3006 0.960 . S
C3020 H3007 0.960 . S
C3020 C3019 1.524 . S
C3021 C3018 1.403 . S
C3021 C3022 1.392 . S
C3021 C3025 1.495 . S
C3022 C3021 1.392 . S
C3022 C3023 1.385 . S
C3022 C3024 1.478 . S
C3023 H3017 0.930 . S
C3023 C3019 1.400 . S
C3023 C3022 1.385 . S
C3024 C3022 1.478 . S
C3024 C3026 1.381 . S
C3024 C3030 1.383 . S
C3025 C3021 1.495 . S
C3025 H3031 0.959 . S
C3025 H3032 0.961 . S
C3025 H3033 0.960 . S
C3026 C3024 1.381 . S
C3026 C3027 1.394 . S
C3026 H3034 0.930 . S
C3027 C3026 1.394 . S
C3027 C3028 1.383 . S
C3027 H3035 0.929 . S
C3028 C3027 1.383 . S
C3028 C3029 1.377 . S
C3029 H3013 0.930 . S
C3029 C3028 1.377 . S
C3029 C3030 1.379 . S
C3030 H3014 0.931 . S
C3030 C3024 1.383 . S
C3030 C3029 1.379 . S
H3031 C3025 0.959 . S
H3032 C3025 0.961 . S
H3033 C3025 0.960 . S
H3034 C3026 0.930 . S
H3035 C3027 0.929 . S
H3036 C3044 0.929 . S
H3037 C3046 0.930 . S
H3038 C3048 0.930 . S
H3039 C3051 0.929 . S
H3040 C3054 0.930 . S
H3041 C3056 0.960 . S
H3042 C3056 0.960 . S
H3043 C3056 0.960 . S
C3044 H3036 0.929 . S
C3044 C3045 1.377 . S
C3044 C3046 1.384 . S
C3045 C3044 1.377 . S
C3045 C3051 1.390 . S
C3046 H3037 0.930 . S
C3046 C3044 1.384 . S
C3046 C3047 1.372 . S
C3047 C3046 1.372 . S
C3047 C3048 1.400 . S
C3047 C3052 1.490 . S
C3048 H3038 0.930 . S
C3048 C3047 1.400 . S
C3048 C3051 1.386 . S
H3049 C3065 0.930 . S
H3050 C3066 0.931 . S
C3051 H3039 0.929 . S
C3051 C3045 1.390 . S
C3051 C3048 1.386 . S
C3052 C3047 1.490 . S
C3052 C3054 1.395 . S
C3052 C3055 1.403 . S
H3053 C3059 0.930 . S
C3054 H3040 0.930 . S
C3054 C3052 1.395 . S
C3054 C3057 1.403 . S
C3055 C3052 1.403 . S
C3055 C3056 1.524 . S
C3055 C3059 1.400 . S
C3056 H3041 0.960 . S
C3056 H3042 0.960 . S
C3056 H3043 0.960 . S
C3056 C3055 1.524 . S
C3057 C3054 1.403 . S
C3057 C3058 1.392 . S
C3057 C3061 1.495 . S
C3058 C3057 1.392 . S
C3058 C3059 1.385 . S
C3058 C3060 1.478 . S
C3059 H3053 0.930 . S
C3059 C3055 1.400 . S
C3059 C3058 1.385 . S
C3060 C3058 1.478 . S
C3060 C3062 1.381 . S
C3060 C3066 1.383 . S
C3061 C3057 1.495 . S
C3061 H3067 0.959 . S
C3061 H3068 0.961 . S
C3061 H3069 0.960 . S
C3062 C3060 1.381 . S
C3062 C3063 1.394 . S
C3062 H3070 0.930 . S
C3063 C3062 1.394 . S
C3063 C3064 1.383 . S
C3063 H3071 0.929 . S
C3064 C3063 1.383 . S
C3064 C3065 1.377 . S
C3065 H3049 0.930 . S
C3065 C3064 1.377 . S
C3065 C3066 1.379 . S
C3066 H3050 0.931 . S
C3066 C3060 1.383 . S
C3066 C3065 1.379 . S
H3067 C3061 0.959 . S
H3068 C3061 0.961 . S
H3069 C3061 0.960 . S
H3070 C3062 0.930 . S
H3071 C3063 0.929 . S
H3072 C3080 0.929 . S
H3073 C3082 0.930 . S
H3074 C3084 0.930 . S
H3075 C3087 0.929 . S
H3076 C3090 0.930 . S
H3077 C3092 0.960 . S
H3078 C3092 0.960 . S
H3079 C3092 0.960 . S
C3080 H3072 0.929 . S
C3080 C3081 1.377 . S
C3080 C3082 1.384 . S
C3081 C3080 1.377 . S
C3081 C3087 1.390 . S
C3082 H3073 0.930 . S
C3082 C3080 1.384 . S
C3082 C3083 1.372 . S
C3083 C3082 1.372 . S
C3083 C3084 1.400 . S
C3083 C3088 1.490 . S
C3084 H3074 0.930 . S
C3084 C3083 1.400 . S
C3084 C3087 1.386 . S
H3085 C3101 0.930 . S
H3086 C3102 0.931 . S
C3087 H3075 0.929 . S
C3087 C3081 1.390 . S
C3087 C3084 1.386 . S
C3088 C3083 1.490 . S
C3088 C3090 1.395 . S
C3088 C3091 1.403 . S
H3089 C3095 0.930 . S
C3090 H3076 0.930 . S
C3090 C3088 1.395 . S
C3090 C3093 1.403 . S
C3091 C3088 1.403 . S
C3091 C3092 1.524 . S
C3091 C3095 1.400 . S
C3092 H3077 0.960 . S
C3092 H3078 0.960 . S
C3092 H3079 0.960 . S
C3092 C3091 1.524 . S
C3093 C3090 1.403 . S
C3093 C3094 1.392 . S
C3093 C3097 1.495 . S
C3094 C3093 1.392 . S
C3094 C3095 1.385 . S
C3094 C3096 1.478 . S
C3095 H3089 0.930 . S
C3095 C3091 1.400 . S
C3095 C3094 1.385 . S
C3096 C3094 1.478 . S
C3096 C3098 1.381 . S
C3096 C3102 1.383 . S
C3097 C3093 1.495 . S
C3097 H3103 0.959 . S
C3097 H3104 0.961 . S
C3097 H3105 0.960 . S
C3098 C3096 1.381 . S
C3098 C3099 1.394 . S
C3098 H3106 0.930 . S
C3099 C3098 1.394 . S
C3099 C3100 1.383 . S
C3099 H3107 0.929 . S
C3100 C3099 1.383 . S
C3100 C3101 1.377 . S
C3101 H3085 0.930 . S
C3101 C3100 1.377 . S
C3101 C3102 1.379 . S
C3102 H3086 0.931 . S
C3102 C3096 1.383 . S
C3102 C3101 1.379 . S
H3103 C3097 0.959 . S
H3104 C3097 0.961 . S
H3105 C3097 0.960 . S
H3106 C3098 0.930 . S
H3107 C3099 0.929 . S
H3108 C3116 0.929 . S
H3109 C3118 0.930 . S
H3110 C3120 0.930 . S
H3111 C3123 0.929 . S
H3112 C3126 0.930 . S
H3113 C3128 0.960 . S
H3114 C3128 0.960 . S
H3115 C3128 0.960 . S
C3116 H3108 0.929 . S
C3116 C3117 1.377 . S
C3116 C3118 1.384 . S
C3117 C3116 1.377 . S
C3117 C3123 1.390 . S
C3118 H3109 0.930 . S
C3118 C3116 1.384 . S
C3118 C3119 1.372 . S
C3119 C3118 1.372 . S
C3119 C3120 1.400 . S
C3119 C3124 1.490 . S
C3120 H3110 0.930 . S
C3120 C3119 1.400 . S
C3120 C3123 1.386 . S
H3121 C3137 0.930 . S
H3122 C3138 0.931 . S
C3123 H3111 0.929 . S
C3123 C3117 1.390 . S
C3123 C3120 1.386 . S
C3124 C3119 1.490 . S
C3124 C3126 1.395 . S
C3124 C3127 1.403 . S
H3125 C3131 0.930 . S
C3126 H3112 0.930 . S
C3126 C3124 1.395 . S
C3126 C3129 1.403 . S
C3127 C3124 1.403 . S
C3127 C3128 1.524 . S
C3127 C3131 1.400 . S
C3128 H3113 0.960 . S
C3128 H3114 0.960 . S
C3128 H3115 0.960 . S
C3128 C3127 1.524 . S
C3129 C3126 1.403 . S
C3129 C3130 1.392 . S
C3129 C3133 1.495 . S
C3130 C3129 1.392 . S
C3130 C3131 1.385 . S
C3130 C3132 1.478 . S
C3131 H3125 0.930 . S
C3131 C3127 1.400 . S
C3131 C3130 1.385 . S
C3132 C3130 1.478 . S
C3132 C3134 1.381 . S
C3132 C3138 1.383 . S
C3133 C3129 1.495 . S
C3133 H3139 0.959 . S
C3133 H3140 0.961 . S
C3133 H3141 0.960 . S
C3134 C3132 1.381 . S
C3134 C3135 1.394 . S
C3134 H3142 0.930 . S
C3135 C3134 1.394 . S
C3135 C3136 1.383 . S
C3135 H3143 0.929 . S
C3136 C3135 1.383 . S
C3136 C3137 1.377 . S
C3137 H3121 0.930 . S
C3137 C3136 1.377 . S
C3137 C3138 1.379 . S
C3138 H3122 0.931 . S
C3138 C3132 1.383 . S
C3138 C3137 1.379 . S
H3139 C3133 0.959 . S
H3140 C3133 0.961 . S
H3141 C3133 0.960 . S
H3142 C3134 0.930 . S
H3143 C3135 0.929 . S
H3144 C3152 0.929 . S
H3145 C3154 0.930 . S
H3146 C3156 0.930 . S
H3147 C3159 0.929 . S
H3148 C3162 0.930 . S
H3149 C3164 0.960 . S
H3150 C3164 0.960 . S
H3151 C3164 0.960 . S
C3152 H3144 0.929 . S
C3152 C3153 1.377 . S
C3152 C3154 1.384 . S
C3153 C3152 1.377 . S
C3153 C3159 1.390 . S
C3154 H3145 0.930 . S
C3154 C3152 1.384 . S
C3154 C3155 1.372 . S
C3155 C3154 1.372 . S
C3155 C3156 1.400 . S
C3155 C3160 1.490 . S
C3156 H3146 0.930 . S
C3156 C3155 1.400 . S
C3156 C3159 1.386 . S
H3157 C3173 0.930 . S
H3158 C3174 0.931 . S
C3159 H3147 0.929 . S
C3159 C3153 1.390 . S
C3159 C3156 1.386 . S
C3160 C3155 1.490 . S
C3160 C3162 1.395 . S
C3160 C3163 1.403 . S
H3161 C3167 0.930 . S
C3162 H3148 0.930 . S
C3162 C3160 1.395 . S
C3162 C3165 1.403 . S
C3163 C3160 1.403 . S
C3163 C3164 1.524 . S
C3163 C3167 1.400 . S
C3164 H3149 0.960 . S
C3164 H3150 0.960 . S
C3164 H3151 0.960 . S
C3164 C3163 1.524 . S
C3165 C3162 1.403 . S
C3165 C3166 1.392 . S
C3165 C3169 1.495 . S
C3166 C3165 1.392 . S
C3166 C3167 1.385 . S
C3166 C3168 1.478 . S
C3167 H3161 0.930 . S
C3167 C3163 1.400 . S
C3167 C3166 1.385 . S
C3168 C3166 1.478 . S
C3168 C3170 1.381 . S
C3168 C3174 1.383 . S
C3169 C3165 1.495 . S
C3169 H3175 0.959 . S
C3169 H3176 0.961 . S
C3169 H3177 0.960 . S
C3170 C3168 1.381 . S
C3170 C3171 1.394 . S
C3170 H3178 0.930 . S
C3171 C3170 1.394 . S
C3171 C3172 1.383 . S
C3171 H3179 0.929 . S
C3172 C3171 1.383 . S
C3172 C3173 1.377 . S
C3173 H3157 0.930 . S
C3173 C3172 1.377 . S
C3173 C3174 1.379 . S
C3174 H3158 0.931 . S
C3174 C3168 1.383 . S
C3174 C3173 1.379 . S
H3175 C3169 0.959 . S
H3176 C3169 0.961 . S
H3177 C3169 0.960 . S
H3178 C3170 0.930 . S
H3179 C3171 0.929 . S
H3180 C3188 0.929 . S
H3181 C3190 0.930 . S
H3182 C3192 0.930 . S
H3183 C3195 0.929 . S
H3184 C3198 0.930 . S
H3185 C3200 0.960 . S
H3186 C3200 0.960 . S
H3187 C3200 0.960 . S
C3188 H3180 0.929 . S
C3188 C3189 1.377 . S
C3188 C3190 1.384 . S
C3189 C3188 1.377 . S
C3189 C3195 1.390 . S
C3190 H3181 0.930 . S
C3190 C3188 1.384 . S
C3190 C3191 1.372 . S
C3191 C3190 1.372 . S
C3191 C3192 1.400 . S
C3191 C3196 1.490 . S
C3192 H3182 0.930 . S
C3192 C3191 1.400 . S
C3192 C3195 1.386 . S
H3193 C3209 0.930 . S
H3194 C3210 0.931 . S
C3195 H3183 0.929 . S
C3195 C3189 1.390 . S
C3195 C3192 1.386 . S
C3196 C3191 1.490 . S
C3196 C3198 1.395 . S
C3196 C3199 1.403 . S
H3197 C3203 0.930 . S
C3198 H3184 0.930 . S
C3198 C3196 1.395 . S
C3198 C3201 1.403 . S
C3199 C3196 1.403 . S
C3199 C3200 1.524 . S
C3199 C3203 1.400 . S
C3200 H3185 0.960 . S
C3200 H3186 0.960 . S
C3200 H3187 0.960 . S
C3200 C3199 1.524 . S
C3201 C3198 1.403 . S
C3201 C3202 1.392 . S
C3201 C3205 1.495 . S
C3202 C3201 1.392 . S
C3202 C3203 1.385 . S
C3202 C3204 1.478 . S
C3203 H3197 0.930 . S
C3203 C3199 1.400 . S
C3203 C3202 1.385 . S
C3204 C3202 1.478 . S
C3204 C3206 1.381 . S
C3204 C3210 1.383 . S
C3205 C3201 1.495 . S
C3205 H3211 0.959 . S
C3205 H3212 0.961 . S
C3205 H3213 0.960 . S
C3206 C3204 1.381 . S
C3206 C3207 1.394 . S
C3206 H3214 0.930 . S
C3207 C3206 1.394 . S
C3207 C3208 1.383 . S
C3207 H3215 0.929 . S
C3208 C3207 1.383 . S
C3208 C3209 1.377 . S
C3209 H3193 0.930 . S
C3209 C3208 1.377 . S
C3209 C3210 1.379 . S
C3210 H3194 0.931 . S
C3210 C3204 1.383 . S
C3210 C3209 1.379 . S
H3211 C3205 0.959 . S
H3212 C3205 0.961 . S
H3213 C3205 0.960 . S
H3214 C3206 0.930 . S
H3215 C3207 0.929 . S
H3216 C3224 0.929 . S
H3217 C3226 0.930 . S
H3218 C3228 0.930 . S
H3219 C3231 0.929 . S
H3220 C3234 0.930 . S
H3221 C3236 0.960 . S
H3222 C3236 0.960 . S
H3223 C3236 0.960 . S
C3224 H3216 0.929 . S
C3224 C3225 1.377 . S
C3224 C3226 1.384 . S
C3225 C3224 1.377 . S
C3225 C3231 1.390 . S
C3226 H3217 0.930 . S
C3226 C3224 1.384 . S
C3226 C3227 1.372 . S
C3227 C3226 1.372 . S
C3227 C3228 1.400 . S
C3227 C3232 1.490 . S
C3228 H3218 0.930 . S
C3228 C3227 1.400 . S
C3228 C3231 1.386 . S
H3229 C3245 0.930 . S
H3230 C3246 0.931 . S
C3231 H3219 0.929 . S
C3231 C3225 1.390 . S
C3231 C3228 1.386 . S
C3232 C3227 1.490 . S
C3232 C3234 1.395 . S
C3232 C3235 1.403 . S
H3233 C3239 0.930 . S
C3234 H3220 0.930 . S
C3234 C3232 1.395 . S
C3234 C3237 1.403 . S
C3235 C3232 1.403 . S
C3235 C3236 1.524 . S
C3235 C3239 1.400 . S
C3236 H3221 0.960 . S
C3236 H3222 0.960 . S
C3236 H3223 0.960 . S
C3236 C3235 1.524 . S
C3237 C3234 1.403 . S
C3237 C3238 1.392 . S
C3237 C3241 1.495 . S
C3238 C3237 1.392 . S
C3238 C3239 1.385 . S
C3238 C3240 1.478 . S
C3239 H3233 0.930 . S
C3239 C3235 1.400 . S
C3239 C3238 1.385 . S
C3240 C3238 1.478 . S
C3240 C3242 1.381 . S
C3240 C3246 1.383 . S
C3241 C3237 1.495 . S
C3241 H3247 0.959 . S
C3241 H3248 0.961 . S
C3241 H3249 0.960 . S
C3242 C3240 1.381 . S
C3242 C3243 1.394 . S
C3242 H3250 0.930 . S
C3243 C3242 1.394 . S
C3243 C3244 1.383 . S
C3243 H3251 0.929 . S
C3244 C3243 1.383 . S
C3244 C3245 1.377 . S
C3245 H3229 0.930 . S
C3245 C3244 1.377 . S
C3245 C3246 1.379 . S
C3246 H3230 0.931 . S
C3246 C3240 1.383 . S
C3246 C3245 1.379 . S
H3247 C3241 0.959 . S
H3248 C3241 0.961 . S
H3249 C3241 0.960 . S
H3250 C3242 0.930 . S
H3251 C3243 0.929 . S
H3252 C3260 0.929 . S
H3253 C3262 0.930 . S
H3254 C3264 0.930 . S
H3255 C3267 0.929 . S
H3256 C3270 0.930 . S
H3257 C3272 0.960 . S
H3258 C3272 0.960 . S
H3259 C3272 0.960 . S
C3260 H3252 0.929 . S
C3260 C3261 1.377 . S
C3260 C3262 1.384 . S
C3261 C3260 1.377 . S
C3261 C3267 1.390 . S
C3262 H3253 0.930 . S
C3262 C3260 1.384 . S
C3262 C3263 1.372 . S
C3263 C3262 1.372 . S
C3263 C3264 1.400 . S
C3263 C3268 1.490 . S
C3264 H3254 0.930 . S
C3264 C3263 1.400 . S
C3264 C3267 1.386 . S
H3265 C3281 0.930 . S
H3266 C3282 0.931 . S
C3267 H3255 0.929 . S
C3267 C3261 1.390 . S
C3267 C3264 1.386 . S
C3268 C3263 1.490 . S
C3268 C3270 1.395 . S
C3268 C3271 1.403 . S
H3269 C3275 0.930 . S
C3270 H3256 0.930 . S
C3270 C3268 1.395 . S
C3270 C3273 1.403 . S
C3271 C3268 1.403 . S
C3271 C3272 1.524 . S
C3271 C3275 1.400 . S
C3272 H3257 0.960 . S
C3272 H3258 0.960 . S
C3272 H3259 0.960 . S
C3272 C3271 1.524 . S
C3273 C3270 1.403 . S
C3273 C3274 1.392 . S
C3273 C3277 1.495 . S
C3274 C3273 1.392 . S
C3274 C3275 1.385 . S
C3274 C3276 1.478 . S
C3275 H3269 0.930 . S
C3275 C3271 1.400 . S
C3275 C3274 1.385 . S
C3276 C3274 1.478 . S
C3276 C3278 1.381 . S
C3276 C3282 1.383 . S
C3277 C3273 1.495 . S
C3277 H3283 0.959 . S
C3277 H3284 0.961 . S
C3277 H3285 0.960 . S
C3278 C3276 1.381 . S
C3278 C3279 1.394 . S
C3278 H3286 0.930 . S
C3279 C3278 1.394 . S
C3279 C3280 1.383 . S
C3279 H3287 0.929 . S
C3280 C3279 1.383 . S
C3280 C3281 1.377 . S
C3281 H3265 0.930 . S
C3281 C3280 1.377 . S
C3281 C3282 1.379 . S
C3282 H3266 0.931 . S
C3282 C3276 1.383 . S
C3282 C3281 1.379 . S
H3283 C3277 0.959 . S
H3284 C3277 0.961 . S
H3285 C3277 0.960 . S
H3286 C3278 0.930 . S
H3287 C3279 0.929 . S
H3288 C3296 0.929 . S
H3289 C3298 0.930 . S
H3290 C3300 0.930 . S
H3291 C3303 0.929 . S
H3292 C3306 0.930 . S
H3293 C3308 0.960 . S
H3294 C3308 0.960 . S
H3295 C3308 0.960 . S
C3296 H3288 0.929 . S
C3296 C3297 1.377 . S
C3296 C3298 1.384 . S
C3297 C3296 1.377 . S
C3297 C3303 1.390 . S
C3298 H3289 0.930 . S
C3298 C3296 1.384 . S
C3298 C3299 1.372 . S
C3299 C3298 1.372 . S
C3299 C3300 1.400 . S
C3299 C3304 1.490 . S
C3300 H3290 0.930 . S
C3300 C3299 1.400 . S
C3300 C3303 1.386 . S
H3301 C3317 0.930 . S
H3302 C3318 0.931 . S
C3303 H3291 0.929 . S
C3303 C3297 1.390 . S
C3303 C3300 1.386 . S
C3304 C3299 1.490 . S
C3304 C3306 1.395 . S
C3304 C3307 1.403 . S
H3305 C3311 0.930 . S
C3306 H3292 0.930 . S
C3306 C3304 1.395 . S
C3306 C3309 1.403 1_655 S
C3307 C3304 1.403 . S
C3307 C3308 1.524 . S
C3307 C3311 1.400 1_655 S
C3308 H3293 0.960 . S
C3308 H3294 0.960 . S
C3308 H3295 0.960 . S
C3308 C3307 1.524 . S
C3309 C3306 1.403 1_455 S
C3309 C3310 1.392 . S
C3309 C3313 1.495 . S
C3310 C3309 1.392 . S
C3310 C3311 1.385 . S
C3310 C3312 1.478 . S
C3311 H3305 0.930 . S
C3311 C3307 1.400 1_455 S
C3311 C3310 1.385 . S
C3312 C3310 1.478 . S
C3312 C3314 1.381 . S
C3312 C3318 1.383 . S
C3313 C3309 1.495 . S
C3313 H3319 0.959 . S
C3313 H3320 0.961 . S
C3313 H3321 0.960 . S
C3314 C3312 1.381 . S
C3314 C3315 1.394 . S
C3314 H3322 0.930 . S
C3315 C3314 1.394 . S
C3315 C3316 1.383 . S
C3315 H3323 0.929 . S
C3316 C3315 1.383 . S
C3316 C3317 1.377 . S
C3317 H3301 0.930 . S
C3317 C3316 1.377 . S
C3317 C3318 1.379 . S
C3318 H3302 0.931 . S
C3318 C3312 1.383 . S
C3318 C3317 1.379 . S
H3319 C3313 0.959 . S
H3320 C3313 0.961 . S
H3321 C3313 0.960 . S
H3322 C3314 0.930 . S
H3323 C3315 0.929 . S
H3324 C3332 0.929 . S
H3325 C3334 0.930 . S
H3326 C3336 0.930 . S
H3327 C3339 0.929 . S
H3328 C3342 0.930 . S
H3329 C3344 0.920 1_545 S
H3330 C3344 0.991 . S
H3331 C3344 0.969 . S
C3332 H3324 0.929 . S
C3332 C3333 1.377 . S
C3332 C3334 1.384 . S
C3333 C3332 1.377 . S
C3333 C3339 1.390 . S
C3334 H3325 0.930 . S
C3334 C3332 1.384 . S
C3334 C3335 1.372 . S
C3335 C3334 1.372 . S
C3335 C3336 1.400 . S
C3335 C3340 1.490 . S
C3336 H3326 0.930 . S
C3336 C3335 1.400 . S
C3336 C3339 1.386 . S
H3337 C3353 0.930 . S
H3338 C3354 0.931 . S
C3339 H3327 0.929 . S
C3339 C3333 1.390 . S
C3339 C3336 1.386 . S
C3340 C3335 1.490 . S
C3340 C3342 1.395 . S
C3340 C3343 1.403 . S
H3341 C3347 0.930 . S
C3342 H3328 0.930 . S
C3342 C3340 1.395 . S
C3342 C3345 1.449 . S
C3343 C3340 1.403 . S
C3343 C3344 1.525 . S
C3343 C3347 1.400 1_565 S
C3344 H3329 0.920 1_565 S
C3344 H3330 0.991 . S
C3344 H3331 0.969 . S
C3344 C3343 1.525 . S
C3345 C3342 1.449 . S
C3345 C3346 1.347 1_565 S
C3345 C3349 1.497 . S
C3346 C3345 1.347 1_545 S
C3346 C3347 1.385 . S
C3346 C3348 1.478 . S
C3347 H3341 0.930 . S
C3347 C3343 1.400 1_545 S
C3347 C3346 1.385 . S
C3348 C3346 1.478 . S
C3348 C3350 1.381 . S
C3348 C3354 1.383 . S
C3349 C3345 1.497 . S
C3349 H3355 0.959 . S
C3349 H3356 0.961 1_565 S
C3349 H3357 0.960 1_565 S
C3350 C3348 1.381 . S
C3350 C3351 1.394 . S
C3350 H3358 0.930 . S
C3351 C3350 1.394 . S
C3351 C3352 1.383 . S
C3351 H3359 0.929 . S
C3352 C3351 1.383 . S
C3352 C3353 1.377 . S
C3353 H3337 0.930 . S
C3353 C3352 1.377 . S
C3353 C3354 1.379 . S
C3354 H3338 0.931 . S
C3354 C3348 1.383 . S
C3354 C3353 1.379 . S
H3355 C3349 0.959 . S
H3356 C3349 0.961 1_545 S
H3357 C3349 0.960 1_545 S
H3358 C3350 0.930 . S
H3359 C3351 0.929 . S
H3360 C3368 0.929 . S
H3361 C3370 0.930 . S
H3362 C3372 0.930 . S
H3363 C3375 0.929 . S
H3364 C3378 0.929 . S
H3365 C3380 0.960 . S
H3366 C3380 0.960 . S
H3367 C3380 0.960 . S
C3368 H3360 0.929 . S
C3368 C3369 1.377 . S
C3368 C3370 1.384 . S
C3369 C3368 1.377 . S
C3369 C3375 1.390 . S
C3370 H3361 0.930 . S
C3370 C3368 1.384 . S
C3370 C3371 1.372 . S
C3371 C3370 1.372 . S
C3371 C3372 1.400 . S
C3371 C3376 1.490 . S
C3372 H3362 0.930 . S
C3372 C3371 1.400 . S
C3372 C3375 1.386 . S
H3373 C3389 0.930 . S
H3374 C3390 0.931 . S
C3375 H3363 0.929 . S
C3375 C3369 1.390 . S
C3375 C3372 1.386 . S
C3376 C3371 1.490 . S
C3376 C3378 1.355 1_655 S
C3376 C3379 1.403 . S
H3377 C3383 0.930 . S
C3378 H3364 0.929 . S
C3378 C3376 1.355 1_455 S
C3378 C3381 1.445 . S
C3379 C3376 1.403 . S
C3379 C3380 1.524 . S
C3379 C3383 1.400 1_655 S
C3380 H3365 0.960 . S
C3380 H3366 0.960 . S
C3380 H3367 0.960 . S
C3380 C3379 1.524 . S
C3381 C3378 1.445 . S
C3381 C3382 1.392 . S
C3381 C3385 1.495 . S
C3382 C3381 1.392 . S
C3382 C3383 1.385 . S
C3382 C3384 1.478 . S
C3383 H3377 0.930 . S
C3383 C3379 1.400 1_455 S
C3383 C3382 1.385 . S
C3384 C3382 1.478 . S
C3384 C3386 1.381 . S
C3384 C3390 1.383 . S
C3385 C3381 1.495 . S
C3385 H3391 0.959 . S
C3385 H3392 0.961 . S
C3385 H3393 0.960 . S
C3386 C3384 1.381 . S
C3386 C3387 1.394 . S
C3386 H3394 0.930 . S
C3387 C3386 1.394 . S
C3387 C3388 1.383 . S
C3387 H3395 0.929 . S
C3388 C3387 1.383 . S
C3388 C3389 1.377 . S
C3389 H3373 0.930 . S
C3389 C3388 1.377 . S
C3389 C3390 1.379 . S
C3390 H3374 0.931 . S
C3390 C3384 1.383 . S
C3390 C3389 1.379 . S
H3391 C3385 0.959 . S
H3392 C3385 0.961 . S
H3393 C3385 0.960 . S
H3394 C3386 0.930 . S
H3395 C3387 0.929 . S
H3396 C3404 0.929 . S
H3397 C3406 0.930 . S
H3398 C3408 0.930 . S
H3399 C3411 0.929 . S
H3400 C3414 0.930 . S
H3401 C3416 0.960 . S
H3402 C3416 0.960 . S
H3403 C3416 0.960 . S
C3404 H3396 0.929 . S
C3404 C3405 1.377 . S
C3404 C3406 1.384 . S
C3405 C3404 1.377 . S
C3405 C3411 1.390 . S
C3406 H3397 0.930 . S
C3406 C3404 1.384 . S
C3406 C3407 1.372 . S
C3407 C3406 1.372 . S
C3407 C3408 1.400 . S
C3407 C3412 1.490 . S
C3408 H3398 0.930 . S
C3408 C3407 1.400 . S
C3408 C3411 1.386 . S
H3409 C3425 0.930 . S
H3410 C3426 0.931 . S
C3411 H3399 0.929 . S
C3411 C3405 1.390 . S
C3411 C3408 1.386 . S
C3412 C3407 1.490 . S
C3412 C3414 1.395 . S
C3412 C3415 1.403 . S
H3413 C3419 0.930 . S
C3414 H3400 0.930 . S
C3414 C3412 1.395 . S
C3414 C3417 1.403 1_565 S
C3415 C3412 1.403 . S
C3415 C3416 1.524 . S
C3415 C3419 1.400 1_565 S
C3416 H3401 0.960 . S
C3416 H3402 0.960 . S
C3416 H3403 0.960 . S
C3416 C3415 1.524 . S
C3417 C3414 1.403 1_545 S
C3417 C3418 1.392 . S
C3417 C3421 1.495 . S
C3418 C3417 1.392 . S
C3418 C3419 1.385 . S
C3418 C3420 1.478 . S
C3419 H3413 0.930 . S
C3419 C3415 1.400 1_545 S
C3419 C3418 1.385 . S
C3420 C3418 1.478 . S
C3420 C3422 1.381 . S
C3420 C3426 1.383 . S
C3421 C3417 1.495 . S
C3421 H3427 0.959 . S
C3421 H3428 0.961 . S
C3421 H3429 0.960 . S
C3422 C3420 1.381 . S
C3422 C3423 1.394 . S
C3422 H3430 0.930 . S
C3423 C3422 1.394 . S
C3423 C3424 1.383 . S
C3423 H3431 0.929 . S
C3424 C3423 1.383 . S
C3424 C3425 1.377 . S
C3425 H3409 0.930 . S
C3425 C3424 1.377 . S
C3425 C3426 1.379 . S
C3426 H3410 0.931 . S
C3426 C3420 1.383 . S
C3426 C3425 1.379 . S
H3427 C3421 0.959 . S
H3428 C3421 0.961 . S
H3429 C3421 0.960 . S
H3430 C3422 0.930 . S
H3431 C3423 0.929 . S
H3432 C3440 0.929 . S
H3433 C3442 0.930 . S
H3434 C3444 0.930 . S
H3435 C3447 0.929 . S
H3436 C3450 0.931 . S
H3437 C3452 0.960 . S
H3438 C3452 0.960 . S
H3439 C3452 0.960 . S
C3440 H3432 0.929 . S
C3440 C3441 1.377 . S
C3440 C3442 1.384 . S
C3441 C3440 1.377 . S
C3441 C3447 1.390 . S
C3442 H3433 0.930 . S
C3442 C3440 1.384 . S
C3442 C3443 1.372 . S
C3443 C3442 1.372 . S
C3443 C3444 1.400 . S
C3443 C3448 1.490 . S
C3444 H3434 0.930 . S
C3444 C3443 1.400 . S
C3444 C3447 1.386 . S
H3445 C3461 0.930 . S
H3446 C3462 0.931 . S
C3447 H3435 0.929 . S
C3447 C3441 1.390 . S
C3447 C3444 1.386 . S
C3448 C3443 1.490 . S
C3448 C3450 1.406 . S
C3448 C3451 1.403 . S
H3449 C3455 0.930 . S
C3450 H3436 0.931 . S
C3450 C3448 1.406 . S
C3450 C3453 1.391 1_655 S
C3451 C3448 1.403 . S
C3451 C3452 1.524 . S
C3451 C3455 1.400 1_655 S
C3452 H3437 0.960 . S
C3452 H3438 0.960 . S
C3452 H3439 0.960 . S
C3452 C3451 1.524 . S
C3453 C3450 1.391 1_455 S
C3453 C3454 1.392 . S
C3453 C3457 1.495 . S
C3454 C3453 1.392 . S
C3454 C3455 1.385 . S
C3454 C3456 1.478 . S
C3455 H3449 0.930 . S
C3455 C3451 1.400 1_455 S
C3455 C3454 1.385 . S
C3456 C3454 1.478 . S
C3456 C3458 1.381 . S
C3456 C3462 1.383 . S
C3457 C3453 1.495 . S
C3457 H3463 0.959 . S
C3457 H3464 0.961 . S
C3457 H3465 0.960 . S
C3458 C3456 1.381 . S
C3458 C3459 1.394 . S
C3458 H3466 0.930 . S
C3459 C3458 1.394 . S
C3459 C3460 1.383 . S
C3459 H3467 0.929 . S
C3460 C3459 1.383 . S
C3460 C3461 1.377 . S
C3461 H3445 0.930 . S
C3461 C3460 1.377 . S
C3461 C3462 1.379 . S
C3462 H3446 0.931 . S
C3462 C3456 1.383 . S
C3462 C3461 1.379 . S
H3463 C3457 0.959 . S
H3464 C3457 0.961 . S
H3465 C3457 0.960 . S
H3466 C3458 0.930 . S
H3467 C3459 0.929 . S
H3468 C3476 0.929 . S
H3469 C3478 0.930 . S
H3470 C3480 0.930 . S
H3471 C3483 0.929 . S
H3472 C3486 0.930 . S
H3473 C3488 0.960 . S
H3474 C3488 0.960 . S
H3475 C3488 0.960 . S
C3476 H3468 0.929 . S
C3476 C3477 1.377 . S
C3476 C3478 1.384 . S
C3477 C3476 1.377 . S
C3477 C3483 1.390 . S
C3478 H3469 0.930 . S
C3478 C3476 1.384 . S
C3478 C3479 1.372 . S
C3479 C3478 1.372 . S
C3479 C3480 1.400 . S
C3479 C3484 1.490 . S
C3480 H3470 0.930 . S
C3480 C3479 1.400 . S
C3480 C3483 1.386 . S
H3481 C3497 0.930 . S
H3482 C3498 0.931 . S
C3483 H3471 0.929 . S
C3483 C3477 1.390 . S
C3483 C3480 1.386 . S
C3484 C3479 1.490 . S
C3484 C3486 1.395 . S
C3484 C3487 1.403 . S
H3485 C3491 0.930 . S
C3486 H3472 0.930 . S
C3486 C3484 1.395 . S
C3486 C3489 1.403 1_565 S
C3487 C3484 1.403 . S
C3487 C3488 1.524 . S
C3487 C3491 1.400 1_565 S
C3488 H3473 0.960 . S
C3488 H3474 0.960 . S
C3488 H3475 0.960 . S
C3488 C3487 1.524 . S
C3489 C3486 1.403 1_545 S
C3489 C3490 1.392 . S
C3489 C3493 1.495 . S
C3490 C3489 1.392 . S
C3490 C3491 1.385 . S
C3490 C3492 1.478 . S
C3491 H3485 0.930 . S
C3491 C3487 1.400 1_545 S
C3491 C3490 1.385 . S
C3492 C3490 1.478 . S
C3492 C3494 1.381 . S
C3492 C3498 1.383 . S
C3493 C3489 1.495 . S
C3493 H3499 0.959 . S
C3493 H3500 0.961 . S
C3493 H3501 0.960 . S
C3494 C3492 1.381 . S
C3494 C3495 1.394 . S
C3494 H3502 0.930 . S
C3495 C3494 1.394 . S
C3495 C3496 1.383 . S
C3495 H3503 0.929 . S
C3496 C3495 1.383 . S
C3496 C3497 1.377 . S
C3497 H3481 0.930 . S
C3497 C3496 1.377 . S
C3497 C3498 1.379 . S
C3498 H3482 0.931 . S
C3498 C3492 1.383 . S
C3498 C3497 1.379 . S
H3499 C3493 0.959 . S
H3500 C3493 0.961 . S
H3501 C3493 0.960 . S
H3502 C3494 0.930 . S
H3503 C3495 0.929 . S
H3504 C3512 0.929 . S
H3505 C3514 0.930 . S
H3506 C3516 0.930 . S
H3507 C3519 0.929 . S
H3508 C3522 0.930 . S
H3509 C3524 0.960 . S
H3510 C3524 0.964 . S
H3511 C3524 0.960 1_655 S
C3512 H3504 0.929 . S
C3512 C3513 1.377 . S
C3512 C3514 1.384 . S
C3513 C3512 1.377 . S
C3513 C3519 1.390 . S
C3514 H3505 0.930 . S
C3514 C3512 1.384 . S
C3514 C3515 1.372 . S
C3515 C3514 1.372 . S
C3515 C3516 1.400 . S
C3515 C3520 1.490 . S
C3516 H3506 0.930 . S
C3516 C3515 1.400 . S
C3516 C3519 1.386 . S
H3517 C3533 0.930 . S
H3518 C3534 0.931 . S
C3519 H3507 0.929 . S
C3519 C3513 1.390 . S
C3519 C3516 1.386 . S
C3520 C3515 1.490 . S
C3520 C3522 1.395 . S
C3520 C3523 1.368 1_655 S
H3521 C3527 0.930 . S
C3522 H3508 0.930 . S
C3522 C3520 1.395 . S
C3522 C3525 1.403 . S
C3523 C3520 1.368 1_455 S
C3523 C3524 1.529 . S
C3523 C3527 1.431 . S
C3524 H3509 0.960 . S
C3524 H3510 0.964 . S
C3524 H3511 0.960 1_455 S
C3524 C3523 1.529 . S
C3525 C3522 1.403 . S
C3525 C3526 1.392 1_655 S
C3525 C3529 1.495 . S
C3526 C3525 1.392 1_455 S
C3526 C3527 1.385 . S
C3526 C3528 1.478 . S
C3527 H3521 0.930 . S
C3527 C3523 1.431 . S
C3527 C3526 1.385 . S
C3528 C3526 1.478 . S
C3528 C3530 1.381 . S
C3528 C3534 1.383 . S
C3529 C3525 1.495 . S
C3529 H3535 0.959 . S
C3529 H3536 0.961 . S
C3529 H3537 0.960 1_655 S
C3530 C3528 1.381 . S
C3530 C3531 1.394 . S
C3530 H3538 0.930 . S
C3531 C3530 1.394 . S
C3531 C3532 1.383 . S
C3531 H3539 0.929 . S
C3532 C3531 1.383 . S
C3532 C3533 1.377 . S
C3533 H3517 0.930 . S
C3533 C3532 1.377 . S
C3533 C3534 1.379 . S
C3534 H3518 0.931 . S
C3534 C3528 1.383 . S
C3534 C3533 1.379 . S
H3535 C3529 0.959 . S
H3536 C3529 0.961 . S
H3537 C3529 0.960 1_455 S
H3538 C3530 0.930 . S
H3539 C3531 0.929 . S
H3540 C3548 0.929 . S
H3541 C3550 0.930 . S
H3542 C3552 0.930 . S
H3543 C3555 0.929 . S
H3544 C3558 0.930 . S
H3545 C3560 0.960 . S
H3546 C3560 0.958 . S
H3547 C3560 0.960 1_565 S
C3548 H3540 0.929 . S
C3548 C3549 1.377 . S
C3548 C3550 1.384 . S
C3549 C3548 1.377 . S
C3549 C3555 1.390 . S
C3550 H3541 0.930 . S
C3550 C3548 1.384 . S
C3550 C3551 1.372 . S
C3551 C3550 1.372 . S
C3551 C3552 1.400 . S
C3551 C3556 1.490 . S
C3552 H3542 0.930 . S
C3552 C3551 1.400 . S
C3552 C3555 1.386 . S
H3553 C3569 0.930 . S
H3554 C3570 0.931 . S
C3555 H3543 0.929 . S
C3555 C3549 1.390 . S
C3555 C3552 1.386 . S
C3556 C3551 1.490 . S
C3556 C3558 1.395 . S
C3556 C3559 1.403 1_565 S
H3557 C3563 0.930 . S
C3558 H3544 0.930 . S
C3558 C3556 1.395 . S
C3558 C3561 1.403 . S
C3559 C3556 1.403 1_545 S
C3559 C3560 1.524 . S
C3559 C3563 1.400 . S
C3560 H3545 0.960 . S
C3560 H3546 0.958 . S
C3560 H3547 0.960 1_545 S
C3560 C3559 1.524 . S
C3561 C3558 1.403 . S
C3561 C3562 1.392 1_565 S
C3561 C3565 1.495 . S
C3562 C3561 1.392 1_545 S
C3562 C3563 1.385 . S
C3562 C3564 1.478 . S
C3563 H3557 0.930 . S
C3563 C3559 1.400 . S
C3563 C3562 1.385 . S
C3564 C3562 1.478 . S
C3564 C3566 1.381 . S
C3564 C3570 1.383 . S
C3565 C3561 1.495 . S
C3565 H3571 0.959 . S
C3565 H3572 0.961 . S
C3565 H3573 0.960 1_565 S
C3566 C3564 1.381 . S
C3566 C3567 1.394 . S
C3566 H3574 0.930 . S
C3567 C3566 1.394 . S
C3567 C3568 1.383 . S
C3567 H3575 0.929 . S
C3568 C3567 1.383 . S
C3568 C3569 1.377 . S
C3569 H3553 0.930 . S
C3569 C3568 1.377 . S
C3569 C3570 1.379 . S
C3570 H3554 0.931 . S
C3570 C3564 1.383 . S
C3570 C3569 1.379 . S
H3571 C3565 0.959 . S
H3572 C3565 0.961 . S
H3573 C3565 0.960 1_545 S
H3574 C3566 0.930 . S
H3575 C3567 0.929 . S
H3576 C3584 0.929 . S
H3577 C3586 0.930 . S
H3578 C3588 0.930 . S
H3579 C3591 0.929 . S
H3580 C3594 0.930 . S
H3581 C3596 0.960 1_554 S
H3582 C3596 0.960 . S
H3583 C3596 0.960 . S
C3584 H3576 0.929 . S
C3584 C3585 1.377 . S
C3584 C3586 1.384 . S
C3585 C3584 1.377 . S
C3585 C3591 1.390 . S
C3586 H3577 0.930 . S
C3586 C3584 1.384 . S
C3586 C3587 1.372 . S
C3587 C3586 1.372 . S
C3587 C3588 1.400 . S
C3587 C3592 1.490 . S
C3588 H3578 0.930 . S
C3588 C3587 1.400 . S
C3588 C3591 1.386 . S
H3589 C3605 0.930 . S
H3590 C3606 0.931 . S
C3591 H3579 0.929 . S
C3591 C3585 1.390 . S
C3591 C3588 1.386 . S
C3592 C3587 1.490 . S
C3592 C3594 1.395 . S
C3592 C3595 1.403 . S
H3593 C3599 0.930 . S
C3594 H3580 0.930 . S
C3594 C3592 1.395 . S
C3594 C3597 1.403 1_556 S
C3595 C3592 1.403 . S
C3595 C3596 1.524 . S
C3595 C3599 1.400 1_556 S
C3596 H3581 0.960 1_556 S
C3596 H3582 0.960 . S
C3596 H3583 0.960 . S
C3596 C3595 1.524 . S
C3597 C3594 1.403 1_554 S
C3597 C3598 1.392 . S
C3597 C3601 1.495 . S
C3598 C3597 1.392 . S
C3598 C3599 1.385 . S
C3598 C3600 1.478 . S
C3599 H3593 0.930 . S
C3599 C3595 1.400 1_554 S
C3599 C3598 1.385 . S
C3600 C3598 1.478 . S
C3600 C3602 1.381 . S
C3600 C3606 1.383 . S
C3601 C3597 1.495 . S
C3601 H3607 0.959 1_554 S
C3601 H3608 0.961 . S
C3601 H3609 0.960 . S
C3602 C3600 1.381 . S
C3602 C3603 1.394 . S
C3602 H3610 0.930 . S
C3603 C3602 1.394 . S
C3603 C3604 1.383 . S
C3603 H3611 0.929 . S
C3604 C3603 1.383 . S
C3604 C3605 1.377 . S
C3605 H3589 0.930 . S
C3605 C3604 1.377 . S
C3605 C3606 1.379 . S
C3606 H3590 0.931 . S
C3606 C3600 1.383 . S
C3606 C3605 1.379 . S
H3607 C3601 0.959 1_556 S
H3608 C3601 0.961 . S
H3609 C3601 0.960 . S
H3610 C3602 0.930 . S
H3611 C3603 0.929 . S
H3612 C3620 0.929 . S
H3613 C3622 0.930 . S
H3614 C3624 0.930 . S
H3615 C3627 0.929 . S
H3616 C3630 0.928 1_556 S
H3617 C3632 0.960 . S
H3618 C3632 0.960 . S
H3619 C3632 0.960 . S
C3620 H3612 0.929 . S
C3620 C3621 1.377 . S
C3620 C3622 1.384 . S
C3621 C3620 1.377 . S
C3621 C3627 1.390 . S
C3622 H3613 0.930 . S
C3622 C3620 1.384 . S
C3622 C3623 1.372 . S
C3623 C3622 1.372 . S
C3623 C3624 1.400 . S
C3623 C3628 1.490 . S
C3624 H3614 0.930 . S
C3624 C3623 1.400 . S
C3624 C3627 1.386 . S
H3625 C3641 0.930 . S
H3626 C3642 0.931 . S
C3627 H3615 0.929 . S
C3627 C3621 1.390 . S
C3627 C3624 1.386 . S
C3628 C3623 1.490 . S
C3628 C3630 1.373 1_556 S
C3628 C3631 1.403 . S
H3629 C3635 0.930 . S
C3630 H3616 0.928 1_554 S
C3630 C3628 1.373 1_554 S
C3630 C3633 1.427 . S
C3631 C3628 1.403 . S
C3631 C3632 1.524 . S
C3631 C3635 1.400 1_556 S
C3632 H3617 0.960 . S
C3632 H3618 0.960 . S
C3632 H3619 0.960 . S
C3632 C3631 1.524 . S
C3633 C3630 1.427 . S
C3633 C3634 1.392 . S
C3633 C3637 1.495 . S
C3634 C3633 1.392 . S
C3634 C3635 1.385 . S
C3634 C3636 1.478 . S
C3635 H3629 0.930 . S
C3635 C3631 1.400 1_554 S
C3635 C3634 1.385 . S
C3636 C3634 1.478 . S
C3636 C3638 1.381 . S
C3636 C3642 1.383 . S
C3637 C3633 1.495 . S
C3637 H3643 0.959 . S
C3637 H3644 0.961 . S
C3637 H3645 0.960 . S
C3638 C3636 1.381 . S
C3638 C3639 1.394 . S
C3638 H3646 0.930 . S
C3639 C3638 1.394 . S
C3639 C3640 1.383 . S
C3639 H3647 0.929 . S
C3640 C3639 1.383 . S
C3640 C3641 1.377 . S
C3641 H3625 0.930 . S
C3641 C3640 1.377 . S
C3641 C3642 1.379 . S
C3642 H3626 0.931 . S
C3642 C3636 1.383 . S
C3642 C3641 1.379 . S
H3643 C3637 0.959 . S
H3644 C3637 0.961 . S
H3645 C3637 0.960 . S
H3646 C3638 0.930 . S
H3647 C3639 0.929 . S
H3648 C3656 0.929 . S
H3649 C3658 0.930 . S
H3650 C3660 0.930 . S
H3651 C3663 0.929 . S
H3652 C3666 0.930 . S
H3653 C3668 0.960 1_554 S
H3654 C3668 0.960 . S
H3655 C3668 0.960 . S
C3656 H3648 0.929 . S
C3656 C3657 1.377 . S
C3656 C3658 1.384 . S
C3657 C3656 1.377 . S
C3657 C3663 1.390 . S
C3658 H3649 0.930 . S
C3658 C3656 1.384 . S
C3658 C3659 1.372 . S
C3659 C3658 1.372 . S
C3659 C3660 1.400 . S
C3659 C3664 1.490 . S
C3660 H3650 0.930 . S
C3660 C3659 1.400 . S
C3660 C3663 1.386 . S
H3661 C3677 0.930 . S
H3662 C3678 0.931 . S
C3663 H3651 0.929 . S
C3663 C3657 1.390 . S
C3663 C3660 1.386 . S
C3664 C3659 1.490 . S
C3664 C3666 1.395 . S
C3664 C3667 1.403 . S
H3665 C3671 0.930 . S
C3666 H3652 0.930 . S
C3666 C3664 1.395 . S
C3666 C3669 1.403 1_556 S
C3667 C3664 1.403 . S
C3667 C3668 1.524 . S
C3667 C3671 1.400 1_556 S
C3668 H3653 0.960 1_556 S
C3668 H3654 0.960 . S
C3668 H3655 0.960 . S
C3668 C3667 1.524 . S
C3669 C3666 1.403 1_554 S
C3669 C3670 1.392 . S
C3669 C3673 1.495 . S
C3670 C3669 1.392 . S
C3670 C3671 1.385 . S
C3670 C3672 1.478 . S
C3671 H3665 0.930 . S
C3671 C3667 1.400 1_554 S
C3671 C3670 1.385 . S
C3672 C3670 1.478 . S
C3672 C3674 1.381 . S
C3672 C3678 1.383 . S
C3673 C3669 1.495 . S
C3673 H3679 0.959 1_554 S
C3673 H3680 0.961 . S
C3673 H3681 0.960 . S
C3674 C3672 1.381 . S
C3674 C3675 1.394 . S
C3674 H3682 0.930 . S
C3675 C3674 1.394 . S
C3675 C3676 1.383 . S
C3675 H3683 0.929 . S
C3676 C3675 1.383 . S
C3676 C3677 1.377 . S
C3677 H3661 0.930 . S
C3677 C3676 1.377 . S
C3677 C3678 1.379 . S
C3678 H3662 0.931 . S
C3678 C3672 1.383 . S
C3678 C3677 1.379 . S
H3679 C3673 0.959 1_556 S
H3680 C3673 0.961 . S
H3681 C3673 0.960 . S
H3682 C3674 0.930 . S
H3683 C3675 0.929 . S
H3684 C3692 0.929 . S
H3685 C3694 0.930 . S
H3686 C3696 0.930 . S
H3687 C3699 0.929 . S
H3688 C3702 0.930 . S
H3689 C3704 0.960 1_554 S
H3690 C3704 0.960 . S
H3691 C3704 0.960 . S
C3692 H3684 0.929 . S
C3692 C3693 1.377 . S
C3692 C3694 1.384 . S
C3693 C3692 1.377 . S
C3693 C3699 1.390 . S
C3694 H3685 0.930 . S
C3694 C3692 1.384 . S
C3694 C3695 1.372 . S
C3695 C3694 1.372 . S
C3695 C3696 1.400 . S
C3695 C3700 1.490 . S
C3696 H3686 0.930 . S
C3696 C3695 1.400 . S
C3696 C3699 1.386 . S
H3697 C3713 0.930 . S
H3698 C3714 0.931 . S
C3699 H3687 0.929 . S
C3699 C3693 1.390 . S
C3699 C3696 1.386 . S
C3700 C3695 1.490 . S
C3700 C3702 1.395 . S
C3700 C3703 1.403 . S
H3701 C3707 0.930 . S
C3702 H3688 0.930 . S
C3702 C3700 1.395 . S
C3702 C3705 1.403 1_556 S
C3703 C3700 1.403 . S
C3703 C3704 1.524 . S
C3703 C3707 1.400 1_556 S
C3704 H3689 0.960 1_556 S
C3704 H3690 0.960 . S
C3704 H3691 0.960 . S
C3704 C3703 1.524 . S
C3705 C3702 1.403 1_554 S
C3705 C3706 1.392 . S
C3705 C3709 1.495 . S
C3706 C3705 1.392 . S
C3706 C3707 1.385 . S
C3706 C3708 1.478 . S
C3707 H3701 0.930 . S
C3707 C3703 1.400 1_554 S
C3707 C3706 1.385 . S
C3708 C3706 1.478 . S
C3708 C3710 1.381 . S
C3708 C3714 1.383 . S
C3709 C3705 1.495 . S
C3709 H3715 0.959 1_554 S
C3709 H3716 0.961 . S
C3709 H3717 0.960 . S
C3710 C3708 1.381 . S
C3710 C3711 1.394 . S
C3710 H3718 0.930 . S
C3711 C3710 1.394 . S
C3711 C3712 1.383 . S
C3711 H3719 0.929 . S
C3712 C3711 1.383 . S
C3712 C3713 1.377 . S
C3713 H3697 0.930 . S
C3713 C3712 1.377 . S
C3713 C3714 1.379 . S
C3714 H3698 0.931 . S
C3714 C3708 1.383 . S
C3714 C3713 1.379 . S
H3715 C3709 0.959 1_556 S
H3716 C3709 0.961 . S
H3717 C3709 0.960 . S
H3718 C3710 0.930 . S
H3719 C3711 0.929 . S
C705 C8 2.796 . S
C724 C382 2.771 . S
C741 C37 2.799 . S
C760 C411 2.764 . S
C777 C66 2.799 . S
C796 C440 2.779 . S
C813 C95 2.800 . S
C832 C353 2.776 . S
C849 C124 2.795 . S
C868 C324 2.769 . S
C885 C153 2.798 . S
C904 C237 2.778 . S
C921 C182 2.800 . S
C940 C266 2.771 . S
C957 C211 2.797 . S
C976 C295 2.750 . S
C993 C240 2.800 . S
C1012 C34 2.777 . S
C1029 C269 2.798 . S
C1048 C63 2.779 . S
C1065 C298 2.798 . S
C1084 C92 2.779 . S
C1101 C327 2.794 . S
C1120 C5 2.743 . S
C1137 C208 2.767 . S
C1156 C356 2.806 . S
C1173 C385 2.799 . S
C1192 C121 2.779 . S
C1209 C414 2.797 . S
C1228 C150 2.752 . S
C1245 C443 2.798 . S
C1264 C179 2.757 . S
C1281 C472 2.798 . S
C1300 C643 2.758 . S
C1317 C501 2.796 . S
C1336 C527 2.773 . S
C1353 C530 2.793 . S
C1372 C556 2.744 . S
C1389 C559 2.798 . S
C1408 C585 2.779 . S
C1425 C588 2.799 . S
C1444 C498 2.779 . S
C1461 C617 2.796 . S
C1480 C672 2.772 . S
C1497 C646 2.799 . S
C1516 C614 2.779 . S
C1533 C675 2.797 . S
C1552 C469 2.752 . S
C1569 C3 2.181 . S
C1588 C641 2.161 . S
C1605 C32 2.181 . S
C1624 C467 2.159 . S
C1641 C670 2.180 . S
C1660 C61 2.163 . S
C1677 C612 2.176 . S
C1696 C90 2.184 . S
C1713 C119 2.180 . S
C1732 C525 2.167 . S
C1749 C148 2.179 . S
C1768 C554 2.168 . S
C1785 C583 2.178 . S
C1804 C177 2.175 . S
C1821 C496 2.176 . S
C1840 C206 2.186 . S
C1857 C380 2.181 . S
C1876 C235 2.161 . S
C1893 C409 2.180 . S
C1912 C264 2.168 . S
C1929 C438 2.179 . S
C1948 C293 2.170 . S
C1965 C322 2.179 . S
C1984 C351 2.167 . S
C2001 C79 0.704 . S
C2020 C21 0.706 . S
C2037 C108 0.704 . S
C2056 C50 0.706 . S
C2073 C195 0.720 . S
C2092 C137 0.745 . S
C2109 C224 0.726 . S
C2128 C166 0.700 . S
C2145 C369 0.711 . S
C2164 C253 0.770 . S
C2181 C282 0.721 . S
C2200 C398 0.655 . S
C2217 C311 0.708 . S
C2236 C427 0.681 . S
C2253 C456 0.721 . S
C2272 C340 0.656 . S
C2289 C572 0.704 . S
C2308 C485 0.708 . S
C2325 C514 0.726 . S
C2344 C630 0.683 . S
C2361 C543 0.704 . S
C2380 C659 0.710 . S
C2397 C601 0.722 . S
C2416 C688 0.657 . S
C2433 C245 0.876 . S
C2452 C15 0.857 . S
C2469 C44 0.893 . S
C2488 C274 0.834 . S
C2505 C73 0.899 . S
C2524 C303 0.862 . S
C2541 C332 0.864 . S
C2560 C102 0.910 . S
C2577 C131 0.897 . S
C2596 C361 0.808 . S
C2613 C160 0.902 . S
C2632 C390 0.821 . S
C2649 C419 0.849 . S
C2668 C189 0.929 . S
C2685 C218 0.899 . S
C2704 C448 0.854 . S
C2721 C477 0.876 . S
C2740 C247 0.862 . S
C2757 C680 0.866 . S
C2776 C276 0.866 . S
C2793 C622 0.874 . S
C2812 C305 0.855 . S
C2829 C651 0.861 . S
C2848 C334 0.879 . S
C2865 C363 0.890 . S
C2884 C506 0.858 . S
C2901 C392 0.902 . S
C2920 C535 0.798 . S
C2937 C421 0.889 . S
C2956 C564 0.871 . S
C2973 C450 0.891 . S
C2992 C593 0.918 . S
C3009 C479 0.888 . S
C3028 C13 0.927 . S
C3045 C129 0.849 . S
C3064 C508 0.920 . S
C3081 C158 0.854 . S
C3100 C537 0.900 . S
C3117 C566 0.891 . S
C3136 C187 0.851 . S
C3153 C595 0.887 . S
C3172 C216 0.927 . S
C3189 C624 0.892 . S
C3208 C71 0.909 . S
C3225 C653 0.886 . S
C3244 C100 0.909 . S
C3261 C682 0.887 . S
C3280 C42 0.927 . S
C3297 C271 1.018 . S
C3316 C10 1.015 . S
C3333 C300 1.024 . S
C3352 C39 0.963 . S
C3369 C68 1.012 . S
C3388 C329 1.041 . S
C3405 C97 1.017 . S
C3424 C242 1.019 . S
C3441 C445 1.015 . S
C3460 C126 1.029 . S
C3477 C358 1.020 . S
C3496 C155 1.003 . S
C3513 C184 1.016 . S
C3532 C387 0.994 . S
C3549 C213 1.018 . S
C3568 C416 0.984 . S
C3585 C532 1.008 . S
C3604 C474 1.030 . S
C3621 C503 1.007 . S
C3640 C648 1.060 . S
C3657 C561 1.008 . S
C3676 C677 1.032 . S
C3693 C590 1.008 . S
C3712 C619 1.033 . S
