# Generated by pormake.
# Topology crb, (4)-cn, num edge types: 1
# Building blocks:
#     Node 0, Type 0, BuildingBlock: KUFVIS_clean_sbu_0, # of connection points: 4
#     Node 1, Type 0, BuildingBlock: KUFVIS_clean_sbu_0, # of connection points: 4
#     Node 2, Type 0, BuildingBlock: KUFVIS_clean_sbu_0, # of connection points: 4
#     Node 3, Type 0, BuildingBlock: KUFVIS_clean_sbu_0, # of connection points: 4
#     Node 4, Type 0, BuildingBlock: KUFVIS_clean_sbu_0, # of connection points: 4
#     Node 5, Type 0, BuildingBlock: KUFVIS_clean_sbu_0, # of connection points: 4
#     Node 6, Type 0, BuildingBlock: KUFVIS_clean_sbu_0, # of connection points: 4
#     Node 7, Type 0, BuildingBlock: KUFVIS_clean_sbu_0, # of connection points: 4
#     Edge 8, Type (0, 0), BuildingBlock: XUDNAN_clean_linker_2, # of connection points: 2
#     Edge 9, Type (0, 0), BuildingBlock: XUDNAN_clean_linker_2, # of connection points: 2
#     Edge 10, Type (0, 0), BuildingBlock: XUDNAN_clean_linker_2, # of connection points: 2
#     Edge 11, Type (0, 0), BuildingBlock: XUDNAN_clean_linker_2, # of connection points: 2
#     Edge 12, Type (0, 0), BuildingBlock: XUDNAN_clean_linker_2, # of connection points: 2
#     Edge 13, Type (0, 0), BuildingBlock: XUDNAN_clean_linker_2, # of connection points: 2
#     Edge 14, Type (0, 0), BuildingBlock: XUDNAN_clean_linker_2, # of connection points: 2
#     Edge 15, Type (0, 0), BuildingBlock: XUDNAN_clean_linker_2, # of connection points: 2
#     Edge 16, Type (0, 0), BuildingBlock: XUDNAN_clean_linker_2, # of connection points: 2
#     Edge 17, Type (0, 0), BuildingBlock: XUDNAN_clean_linker_2, # of connection points: 2
#     Edge 18, Type (0, 0), BuildingBlock: XUDNAN_clean_linker_2, # of connection points: 2
#     Edge 19, Type (0, 0), BuildingBlock: XUDNAN_clean_linker_2, # of connection points: 2
#     Edge 20, Type (0, 0), BuildingBlock: XUDNAN_clean_linker_2, # of connection points: 2
#     Edge 21, Type (0, 0), BuildingBlock: XUDNAN_clean_linker_2, # of connection points: 2
#     Edge 22, Type (0, 0), BuildingBlock: XUDNAN_clean_linker_2, # of connection points: 2
#     Edge 23, Type (0, 0), BuildingBlock: XUDNAN_clean_linker_2, # of connection points: 2
# Relax obj value: 0.084
# Max RMSD: 0.128
# Mean RMSD: 0.128
data_MOF--net-crb--node1-KUFVIS_clean_sbu_0--edge1-XUDNAN_clean_linker_2
_symmetry_space_group_name_H-M    P1
_symmetry_Int_Tables_number       1
_symmetry_cell_setting            triclinic
loop_
_symmetry_equiv_pos_as_xyz
'x, y, z'
_cell_length_a     41.324092
_cell_length_b     43.558734
_cell_length_c     23.134626
_cell_angle_alpha  89.929301
_cell_angle_beta   90.088258
_cell_angle_gamma 89.75559
loop_
_atom_site_label
_atom_site_type_symbol
_atom_site_fract_x
_atom_site_fract_y
_atom_site_fract_z
_atom_type_partial_charge
Mn0 Mn 0.33145 0.35086 0.04717 0.0
Mn1 Mn 0.35799 0.28289 0.99444 0.0
C2 C 0.38542 0.33633 0.05692 0.0
C3 C 0.32099 0.40396 0.04579 0.0
C4 C 0.3229 0.28823 0.10818 0.0
O5 O 0.29539 0.34013 0.98924 0.0
O6 O 0.31485 0.29389 0.96324 0.0
C7 C 0.36476 0.30222 0.87221 0.0
N8 N 0.37773 0.28951 0.92089 0.0
C9 C 0.42528 0.27334 0.86935 0.0
C10 C 0.4125 0.28628 0.81866 0.0
C11 C 0.38225 0.30108 0.82026 0.0
C12 C 0.40732 0.27627 0.92031 0.0
H13 H 0.34112 0.31284 0.87281 0.0
C14 C 0.29341 0.3151 0.96051 0.0
O15 O 0.30645 0.38553 0.08107 0.0
O16 O 0.34011 0.39138 1.00793 0.0
N17 N 0.3996 0.26858 0.01891 0.0
C18 C 0.40849 0.25729 0.07158 0.0
C19 C 0.43819 0.24184 0.07746 0.0
C20 C 0.45784 0.23716 0.02876 0.0
C21 C 0.44815 0.24886 0.97494 0.0
C22 C 0.41875 0.26485 0.97208 0.0
H23 H 0.39281 0.25968 0.10863 0.0
O24 O 0.37221 0.35577 0.09224 0.0
O25 O 0.36692 0.32576 0.01606 0.0
O26 O 0.31685 0.31684 0.10309 0.0
O27 O 0.33876 0.27314 0.0704 0.0
C28 C 0.46591 0.24437 0.92364 0.0
C29 C 0.45476 0.25701 0.87107 0.0
H30 H 0.4256 0.28481 0.77822 0.0
H31 H 0.37216 0.31105 0.7813 0.0
H32 H 0.44549 0.23277 0.11907 0.0
H33 H 0.48002 0.22406 0.03304 0.0
H34 H 0.48826 0.23133 0.92399 0.0
H35 H 0.46892 0.25385 0.83216 0.0
Mn36 Mn 0.6753 0.36081 1.01405 0.0
Mn37 Mn 0.65485 0.28738 0.04489 0.0
C38 C 0.62125 0.34621 1.01552 0.0
C39 C 0.68613 0.412 0.03777 0.0
C40 C 0.68307 0.30676 0.92986 0.0
O41 O 0.71573 0.34426 0.05644 0.0
O42 O 0.69815 0.29644 0.07658 0.0
C43 C 0.65096 0.29109 0.1726 0.0
N44 N 0.63679 0.28475 0.12076 0.0
C45 C 0.5876 0.26896 0.16745 0.0
C46 C 0.60171 0.27522 0.22129 0.0
C47 C 0.63352 0.28635 0.22385 0.0
C48 C 0.60628 0.27382 0.11783 0.0
H49 H 0.67538 0.2997 0.17492 0.0
C50 C 0.71916 0.31785 0.08052 0.0
O51 O 0.6968 0.39976 0.99047 0.0
O52 O 0.67033 0.39422 0.07284 0.0
N53 N 0.61278 0.27623 0.01795 0.0
C54 C 0.60187 0.27373 0.96257 0.0
C55 C 0.56999 0.26411 0.9525 0.0
C56 C 0.54982 0.2571 0.99943 0.0
C57 C 0.56153 0.25986 0.05599 0.0
C58 C 0.59356 0.26934 0.06338 0.0
H59 H 0.61731 0.27922 0.92642 0.0
O60 O 0.63036 0.36976 0.9853 0.0
O61 O 0.64408 0.33152 0.04278 0.0
O62 O 0.68489 0.33519 0.94201 0.0
O63 O 0.67287 0.28664 0.96544 0.0
C64 C 0.54244 0.25432 0.10531 0.0
C65 C 0.55548 0.25881 0.161 0.0
H66 H 0.58823 0.27184 0.26091 0.0
H67 H 0.64456 0.29132 0.26522 0.0
H68 H 0.56092 0.26224 0.90874 0.0
H69 H 0.52526 0.25001 0.99164 0.0
H70 H 0.51752 0.24716 0.10102 0.0
H71 H 0.54041 0.25494 0.19855 0.0
Mn72 Mn 0.67992 0.69073 0.05575 0.0
Mn73 Mn 0.6563 0.76154 1.01218 0.0
C74 C 0.62509 0.70383 0.05257 0.0
C75 C 0.69292 0.63828 0.04831 0.0
C76 C 0.68668 0.74929 0.12871 0.0
O77 O 0.71902 0.70576 1.00749 0.0
O78 O 0.69908 0.75176 0.97884 0.0
C79 C 0.64878 0.75145 0.88619 0.0
N80 N 0.63595 0.75994 0.938 0.0
C81 C 0.58472 0.77212 0.89379 0.0
C82 C 0.59738 0.76353 0.83996 0.0
C83 C 0.62954 0.75313 0.83618 0.0
C84 C 0.6051 0.77015 0.94207 0.0
H85 H 0.67348 0.74346 0.88303 0.0
C86 C 0.72092 0.7308 0.97809 0.0
O87 O 0.70393 0.65562 0.089 0.0
O88 O 0.67594 0.65184 1.00815 0.0
N89 N 0.61473 0.7729 0.04105 0.0
C90 C 0.60557 0.77803 0.09678 0.0
C91 C 0.5739 0.78782 0.10834 0.0
C92 C 0.5521 0.79222 0.06255 0.0
C93 C 0.5619 0.78637 1.00564 0.0
C94 C 0.59388 0.77701 0.99668 0.0
H95 H 0.62224 0.77467 0.13217 0.0
O96 O 0.63536 0.68263 0.08771 0.0
O97 O 0.64723 0.7173 0.02205 0.0
O98 O 0.68898 0.72052 0.12161 0.0
O99 O 0.67618 0.76732 0.0896 0.0
C100 C 0.5411 0.78896 0.95761 0.0
C101 C 0.55246 0.78185 0.90171 0.0
H102 H 0.58256 0.76459 0.80135 0.0
H103 H 0.63947 0.7464 0.7948 0.0
H104 H 0.5663 0.79198 0.15239 0.0
H105 H 0.52787 0.79986 0.07191 0.0
H106 H 0.51621 0.79591 0.96334 0.0
H107 H 0.53606 0.7835 0.86527 0.0
Mn108 Mn 0.33688 0.68163 1.01528 0.0
Mn109 Mn 0.35579 0.75619 0.0367 0.0
C110 C 0.38946 0.69874 0.99938 0.0
C111 C 0.33006 0.63029 0.0434 0.0
C112 C 0.31833 0.73383 0.93265 0.0
O113 O 0.29953 0.69742 0.06667 0.0
O114 O 0.31786 0.74522 0.08427 0.0
C115 C 0.3755 0.75512 0.1598 0.0
N116 N 0.38238 0.76138 0.10347 0.0
C117 C 0.43127 0.78765 0.12984 0.0
C118 C 0.42483 0.78141 0.18818 0.0
C119 C 0.39699 0.76476 0.20316 0.0
C120 C 0.40963 0.77644 0.08848 0.0
H121 H 0.35359 0.7432 0.17152 0.0
C122 C 0.29774 0.7234 0.0927 0.0
O123 O 0.31514 0.64186 0.99922 0.0
O124 O 0.34801 0.64885 0.07349 0.0
N125 N 0.3924 0.76981 0.99358 0.0
C126 C 0.39541 0.77329 0.93528 0.0
C127 C 0.42222 0.78897 0.91294 0.0
C128 C 0.4451 0.80166 0.95078 0.0
C129 C 0.44151 0.7977 1.01061 0.0
C130 C 0.41483 0.78107 0.03027 0.0
H131 H 0.37731 0.76454 0.90603 0.0
O132 O 0.37893 0.67393 0.97484 0.0
O133 O 0.36911 0.71278 0.03304 0.0
O134 O 0.32042 0.70544 0.94493 0.0
O135 O 0.32889 0.75483 0.96581 0.0
C136 C 0.46275 0.81045 0.05156 0.0
C137 C 0.45788 0.80515 0.11113 0.0
H138 H 0.44099 0.78939 0.22181 0.0
H139 H 0.39178 0.75995 0.24809 0.0
H140 H 0.4248 0.79195 0.86673 0.0
H141 H 0.4651 0.81468 0.93336 0.0
H142 H 0.48271 0.82463 0.03762 0.0
H143 H 0.47469 0.81474 0.14216 0.0
Mn144 Mn 0.82581 0.86316 0.55547 0.0
Mn145 Mn 0.84991 0.79494 0.49969 0.0
C146 C 0.88066 0.85101 0.54878 0.0
C147 C 0.81226 0.91558 0.55172 0.0
C148 C 0.82173 0.80123 0.62007 0.0
O149 O 0.78601 0.8498 0.50832 0.0
O150 O 0.8054 0.8048 0.47362 0.0
C151 C 0.85145 0.81134 0.3753 0.0
N152 N 0.86673 0.80049 0.42343 0.0
C153 C 0.9157 0.7911 0.37001 0.0
C154 C 0.90044 0.80207 0.31986 0.0
C155 C 0.86819 0.81227 0.32255 0.0
C156 C 0.89769 0.79047 0.42124 0.0
H157 H 0.8267 0.8192 0.37708 0.0
C158 C 0.78341 0.82545 0.47766 0.0
O159 O 0.80219 0.89765 0.59253 0.0
O160 O 0.82905 0.90278 0.51072 0.0
N161 N 0.89288 0.78306 0.52053 0.0
C162 C 0.90476 0.77549 0.57364 0.0
C163 C 0.93713 0.76614 0.57893 0.0
C164 C 0.95677 0.7646 0.52958 0.0
C165 C 0.94399 0.77219 0.47536 0.0
C166 C 0.91152 0.7812 0.47267 0.0
H167 H 0.88974 0.77683 0.6117 0.0
O168 O 0.8705 0.87055 0.58708 0.0
O169 O 0.85844 0.83855 0.51674 0.0
O170 O 0.8173 0.83015 0.61712 0.0
O171 O 0.83365 0.78574 0.57841 0.0
C172 C 0.96245 0.77206 0.42419 0.0
C173 C 0.94829 0.78146 0.37151 0.0
H174 H 0.91336 0.80304 0.27919 0.0
H175 H 0.85626 0.82086 0.28408 0.0
H176 H 0.94701 0.76039 0.62094 0.0
H177 H 0.98178 0.75812 0.53388 0.0
H178 H 0.98771 0.76536 0.42503 0.0
H179 H 0.96285 0.78175 0.33263 0.0
Mn180 Mn 0.17106 0.85194 0.51161 0.0
Mn181 Mn 0.14334 0.78184 0.54986 0.0
C182 C 0.11658 0.83983 0.50018 0.0
C183 C 0.18307 0.90345 0.53159 0.0
C184 C 0.17943 0.79328 0.43811 0.0
O185 O 0.20751 0.83597 0.56412 0.0
O186 O 0.18613 0.78977 0.58509 0.0
C187 C 0.13448 0.7936 0.67487 0.0
N188 N 0.12231 0.78424 0.6231 0.0
C189 C 0.07387 0.76546 0.66803 0.0
C190 C 0.08578 0.77496 0.7219 0.0
C191 C 0.11607 0.78942 0.72523 0.0
C192 C 0.0927 0.77143 0.61913 0.0
H193 H 0.15819 0.80383 0.67776 0.0
C194 C 0.2084 0.80988 0.58938 0.0
O195 O 0.19632 0.88913 0.48854 0.0
O196 O 0.16367 0.88774 0.56415 0.0
N197 N 0.1021 0.77016 0.52001 0.0
C198 C 0.09407 0.76275 0.46464 0.0
C199 C 0.06452 0.7481 0.45362 0.0
C200 C 0.04411 0.7403 0.49979 0.0
C201 C 0.05283 0.74827 0.55645 0.0
C202 C 0.08215 0.76361 0.56456 0.0
H203 H 0.11035 0.76749 0.42931 0.0
O204 O 0.12989 0.86153 0.47018 0.0
O205 O 0.13534 0.82579 0.53697 0.0
O206 O 0.18457 0.82185 0.44664 0.0
O207 O 0.16401 0.77652 0.47383 0.0
C208 C 0.03416 0.74073 0.60539 0.0
C209 C 0.04442 0.74973 0.66103 0.0
H210 H 0.07197 0.7711 0.76099 0.0
H211 H 0.12549 0.79672 0.76664 0.0
H212 H 0.05794 0.742 0.40984 0.0
H213 H 0.02202 0.72784 0.49117 0.0
H214 H 0.01176 0.72815 0.60083 0.0
H215 H 0.02956 0.74428 0.69815 0.0
Mn216 Mn 0.17867 0.18196 0.54587 0.0
Mn217 Mn 0.15247 0.25008 0.49233 0.0
C218 C 0.12357 0.19396 0.54401 0.0
C219 C 0.19196 0.12941 0.5422 0.0
C220 C 0.18427 0.24396 0.60966 0.0
O221 O 0.21681 0.19531 0.49428 0.0
O222 O 0.1962 0.24046 0.46299 0.0
C223 C 0.14788 0.23374 0.36824 0.0
N224 N 0.13377 0.24448 0.41745 0.0
C225 C 0.08348 0.25381 0.36775 0.0
C226 C 0.09749 0.24293 0.31651 0.0
C227 C 0.12982 0.23281 0.3168 0.0
C228 C 0.10275 0.25441 0.41758 0.0
H229 H 0.17271 0.22595 0.36815 0.0
C230 C 0.21846 0.21992 0.46384 0.0
O231 O 0.20345 0.1476 0.58133 0.0
O232 O 0.17401 0.14203 0.50243 0.0
N233 N 0.11002 0.26169 0.51641 0.0
C234 C 0.09949 0.26918 0.57037 0.0
C235 C 0.06728 0.2785 0.57806 0.0
C236 C 0.04642 0.28011 0.53021 0.0
C237 C 0.05781 0.27253 0.4751 0.0
C238 C 0.09019 0.26356 0.47001 0.0
H239 H 0.11547 0.26782 0.60726 0.0
O240 O 0.13492 0.17461 0.58174 0.0
O241 O 0.1448 0.20642 0.51005 0.0
O242 O 0.18914 0.21514 0.60609 0.0
O243 O 0.17064 0.25934 0.56948 0.0
C244 C 0.03809 0.27269 0.42534 0.0
C245 C 0.05094 0.26338 0.37166 0.0
H246 H 0.08357 0.24197 0.27684 0.0
H247 H 0.14078 0.2243 0.27748 0.0
H248 H 0.05846 0.2842 0.62076 0.0
H249 H 0.02157 0.28664 0.53644 0.0
H250 H 0.01287 0.27934 0.42803 0.0
H251 H 0.03541 0.2631 0.3339 0.0
Mn252 Mn 0.83266 0.19234 0.51158 0.0
Mn253 Mn 0.85969 0.26247 0.55079 0.0
C254 C 0.8872 0.20432 0.50257 0.0
C255 C 0.8201 0.14111 0.53253 0.0
C256 C 0.82565 0.25072 0.43682 0.0
O257 O 0.79536 0.20857 0.56146 0.0
O258 O 0.81658 0.25448 0.58483 0.0
C259 C 0.86766 0.25043 0.676 0.0
N260 N 0.88017 0.25998 0.62464 0.0
C261 C 0.9286 0.27801 0.67087 0.0
C262 C 0.91633 0.26834 0.72434 0.0
C263 C 0.88586 0.25418 0.72681 0.0
C264 C 0.90994 0.27252 0.62149 0.0
H265 H 0.84386 0.24035 0.67822 0.0
C266 C 0.7942 0.23439 0.58746 0.0
O267 O 0.80766 0.15508 0.48816 0.0
O268 O 0.83903 0.15702 0.56564 0.0
N269 N 0.90113 0.27429 0.52217 0.0
C270 C 0.90944 0.28211 0.46713 0.0
C271 C 0.93901 0.29687 0.45705 0.0
C272 C 0.9592 0.30429 0.50379 0.0
C273 C 0.95027 0.29582 0.56006 0.0
C274 C 0.92084 0.28054 0.56728 0.0
H275 H 0.89335 0.27763 0.43132 0.0
O276 O 0.87433 0.18232 0.47277 0.0
O277 O 0.86799 0.21856 0.53823 0.0
O278 O 0.82065 0.22207 0.44494 0.0
O279 O 0.83973 0.26768 0.47398 0.0
C280 C 0.96883 0.30282 0.60948 0.0
C281 C 0.95827 0.29349 0.66473 0.0
H282 H 0.92999 0.27183 0.76377 0.0
H283 H 0.87616 0.24673 0.76791 0.0
H284 H 0.94577 0.30334 0.41355 0.0
H285 H 0.98127 0.31691 0.49589 0.0
H286 H 0.99137 0.31523 0.6056 0.0
H287 H 0.97302 0.29854 0.70224 0.0
H288 H 0.32762 0.4509 0.96533 0.0
H289 H 0.31127 0.43327 0.14751 0.0
H290 H 0.31272 0.48885 0.16731 0.0
H291 H 0.38068 0.51512 0.9805 0.0
H292 H 0.36361 0.53665 0.92118 0.0
H293 H 0.3619 0.49534 0.92091 0.0
H294 H 0.2996 0.49766 0.909 0.0
H295 H 0.30115 0.53899 0.90885 0.0
H296 H 0.2758 0.51928 0.9601 0.0
H297 H 0.3205 0.54639 0.16883 0.0
H298 H 0.32569 0.6022 0.14918 0.0
H299 H 0.33054 0.58334 0.9655 0.0
C300 C 0.32416 0.45883 1.00924 0.0
C301 C 0.31941 0.4377 0.0549 0.0
C302 C 0.31474 0.44899 0.11176 0.0
C303 C 0.31572 0.48055 0.12356 0.0
C304 C 0.3207 0.50081 0.07787 0.0
C305 C 0.3241 0.49049 0.02162 0.0
C306 C 0.32765 0.51734 0.98023 0.0
C307 C 0.36041 0.51602 0.94886 0.0
C308 C 0.29936 0.51837 0.93699 0.0
C309 C 0.32617 0.54418 0.02206 0.0
C310 C 0.32273 0.53412 0.07833 0.0
C311 C 0.32266 0.55458 0.12482 0.0
C312 C 0.32574 0.58618 0.11341 0.0
C313 C 0.32802 0.597 0.05595 0.0
C314 C 0.32823 0.57566 1.00985 0.0
H315 H 0.42896 0.34002 0.96779 0.0
H316 H 0.42116 0.32392 0.15211 0.0
H317 H 0.48082 0.32332 0.16039 0.0
H318 H 0.50305 0.29561 0.93922 0.0
H319 H 0.51902 0.32366 0.89005 0.0
H320 H 0.47588 0.31956 0.89768 0.0
H321 H 0.47121 0.37719 0.92212 0.0
H322 H 0.51441 0.38129 0.91568 0.0
H323 H 0.49433 0.39255 0.98148 0.0
H324 H 0.54009 0.33095 0.15125 0.0
H325 H 0.59699 0.339 0.12297 0.0
H326 H 0.56789 0.34866 0.94391 0.0
C327 C 0.43998 0.33539 1.00943 0.0
C328 C 0.42069 0.33121 0.05924 0.0
C329 C 0.43569 0.32665 0.11351 0.0
C330 C 0.46947 0.32637 0.11858 0.0
C331 C 0.48787 0.3313 0.06906 0.0
C332 C 0.4738 0.33552 1.01536 0.0
C333 C 0.49929 0.34275 0.97007 0.0
C334 C 0.49928 0.31894 0.92133 0.0
C335 C 0.49451 0.37539 0.94593 0.0
C336 C 0.52986 0.34064 1.00628 0.0
C337 C 0.52252 0.3348 0.06351 0.0
C338 C 0.54623 0.33444 0.10628 0.0
C339 C 0.57847 0.33878 0.08979 0.0
C340 C 0.58686 0.34243 0.03097 0.0
C341 C 0.56214 0.34449 0.98888 0.0
H342 H 0.68432 0.45944 0.95978 0.0
H343 H 0.69616 0.43928 0.14219 0.0
H344 H 0.70224 0.49476 0.16233 0.0
H345 H 0.739 0.52465 0.9507 0.0
H346 H 0.71318 0.54632 0.90267 0.0
H347 H 0.71234 0.50496 0.90151 0.0
H348 H 0.65056 0.50601 0.91983 0.0
H349 H 0.65118 0.54734 0.92094 0.0
H350 H 0.63491 0.52646 0.98154 0.0
H351 H 0.70812 0.55153 0.16252 0.0
H352 H 0.70677 0.60714 0.14635 0.0
H353 H 0.68549 0.59248 0.96455 0.0
C354 C 0.68862 0.46678 1.00382 0.0
C355 C 0.69035 0.44513 0.04951 0.0
C356 C 0.69503 0.45551 0.10673 0.0
C357 C 0.6986 0.48693 0.11844 0.0
C358 C 0.69672 0.50771 0.07255 0.0
C359 C 0.69131 0.4982 0.01649 0.0
C360 C 0.68788 0.5256 0.97596 0.0
C361 C 0.7147 0.52536 0.92999 0.0
C362 C 0.65412 0.52639 0.94793 0.0
C363 C 0.69227 0.55202 0.01807 0.0
C364 C 0.69794 0.54094 0.07326 0.0
C365 C 0.70352 0.56047 0.1196 0.0
C366 C 0.70283 0.59214 0.10973 0.0
C367 C 0.696 0.60436 0.0541 0.0
C368 C 0.69071 0.58391 1.00752 0.0
H369 H 0.43151 0.70547 0.0901 0.0
H370 H 0.42589 0.70571 0.90312 0.0
H371 H 0.48552 0.7096 0.89747 0.0
H372 H 0.50091 0.7559 0.10837 0.0
H373 H 0.51945 0.73368 0.16516 0.0
H374 H 0.47607 0.73379 0.15661 0.0
H375 H 0.47515 0.6751 0.14792 0.0
H376 H 0.51838 0.67393 0.15777 0.0
H377 H 0.50038 0.65633 0.09508 0.0
H378 H 0.545 0.70659 0.91137 0.0
H379 H 0.60172 0.70285 0.94374 0.0
H380 H 0.57056 0.70504 0.12243 0.0
C381 C 0.44292 0.70737 0.04813 0.0
C382 C 0.42424 0.70618 0.99686 0.0
C383 C 0.43987 0.70721 0.94265 0.0
C384 C 0.47366 0.70931 0.93914 0.0
C385 C 0.49152 0.70963 0.99032 0.0
C386 C 0.4768 0.70879 0.0439 0.0
C387 C 0.50194 0.70664 0.0919 0.0
C388 C 0.49945 0.73416 0.133 0.0
C389 C 0.49876 0.67619 0.12511 0.0
C390 C 0.53304 0.70733 0.05696 0.0
C391 C 0.52628 0.70848 0.99842 0.0
C392 C 0.55062 0.70664 0.95707 0.0
C393 C 0.58277 0.70469 0.97587 0.0
C394 C 0.59056 0.70534 0.03542 0.0
C395 C 0.56529 0.70573 0.07659 0.0
H396 H 0.82142 0.96036 0.46763 0.0
H397 H 0.79312 0.94739 0.64665 0.0
H398 H 0.79 1.00334 0.65968 0.0
H399 H 0.8705 0.02584 0.48851 0.0
H400 H 0.8579 0.0455 0.42362 0.0
H401 H 0.85675 1.00421 0.42685 0.0
H402 H 0.79594 1.00514 0.39967 0.0
H403 H 0.79694 0.04646 0.39609 0.0
H404 H 0.76813 0.0276 0.44238 0.0
H405 H 0.79599 0.06032 0.65729 0.0
H406 H 0.80436 0.1154 0.63563 0.0
H407 H 0.82333 0.09297 0.45638 0.0
C408 C 0.81415 0.96934 0.50928 0.0
C409 C 0.80756 0.94936 0.55612 0.0
C410 C 0.79816 0.96208 0.60997 0.0
C411 C 0.7964 0.99391 0.61795 0.0
C412 C 0.8035 1.01297 0.5714 0.0
C413 C 0.81158 1.00127 0.51776 0.0
C414 C 0.81796 0.02711 0.4751 0.0
C415 C 0.85285 0.02556 0.45219 0.0
C416 C 0.79326 0.02654 0.42536 0.0
C417 C 0.8129 0.05499 0.51358 0.0
C418 C 0.80488 0.04621 0.56913 0.0
C419 C 0.80154 0.06756 0.61367 0.0
C420 C 0.80642 0.09873 0.6011 0.0
C421 C 0.81381 0.10833 0.54429 0.0
C422 C 0.81684 0.0862 0.49989 0.0
H423 H 0.0736 0.83825 0.59089 0.0
H424 H 0.07986 0.83581 0.40397 0.0
H425 H 0.02025 0.83905 0.39712 0.0
H426 H 0.99949 0.79521 0.60928 0.0
H427 H 0.98323 0.81943 0.6651 0.0
H428 H 0.02639 0.81558 0.65696 0.0
H429 H 0.03245 0.87388 0.64683 0.0
H430 H 0.98937 0.87857 0.65548 0.0
H431 H 0.00927 0.8942 0.59281 0.0
H432 H 0.96157 0.84949 0.40958 0.0
H433 H 0.90479 0.85513 0.44073 0.0
H434 H 0.93456 0.84803 0.61989 0.0
C435 C 0.06222 0.8374 0.54873 0.0
C436 C 0.08112 0.83603 0.4978 0.0
C437 C 0.06566 0.83635 0.44328 0.0
C438 C 0.0319 0.8384 0.43903 0.0
C439 C 0.01396 0.84066 0.48978 0.0
C440 C 0.02839 0.8398 0.5437 0.0
C441 C 1.00327 0.84418 0.59106 0.0
C442 C 1.00309 0.81695 0.63311 0.0
C443 C 0.00894 0.87451 0.62345 0.0
C444 C 0.97243 0.84579 0.55535 0.0
C445 C 0.97947 0.84499 0.49699 0.0
C446 C 0.95562 0.84897 0.4551 0.0
C447 C 0.92344 0.85193 0.47315 0.0
C448 C 0.91522 0.84991 0.53233 0.0
C449 C 0.94015 0.84818 0.57418 0.0
H450 H 0.18161 0.08381 0.46006 0.0
H451 H 0.21127 0.09832 0.63802 0.0
H452 H 0.21374 0.0425 0.65341 0.0
H453 H 0.13207 1.01871 0.48414 0.0
H454 H 0.14425 0.99836 0.41991 0.0
H455 H 0.14563 0.03967 0.4215 0.0
H456 H 0.20629 0.03819 0.39372 0.0
H457 H 0.20507 0.99685 0.39176 0.0
H458 H 0.2342 1.01602 0.43702 0.0
H459 H 0.20718 0.98546 0.65346 0.0
H460 H 0.19879 0.93017 0.63384 0.0
H461 H 0.17914 0.95101 0.45396 0.0
C462 C 0.18901 0.07518 0.50198 0.0
C463 C 0.19621 0.09559 0.54783 0.0
C464 C 0.20579 0.08331 0.60206 0.0
C465 C 0.20716 0.05154 0.6114 0.0
C466 C 0.19951 0.03207 0.5658 0.0
C467 C 0.19125 0.0433 0.51179 0.0
C468 C 0.18454 1.01706 0.47023 0.0
C469 C 0.14954 1.01855 0.44763 0.0
C470 C 0.20899 1.01703 0.42022 0.0
C471 C 0.18964 0.98952 0.50974 0.0
C472 C 0.1979 0.9988 0.56488 0.0
C473 C 0.20142 0.97784 0.61016 0.0
C474 C 0.19654 0.94654 0.59876 0.0
C475 C 0.189 0.93641 0.54234 0.0
C476 C 0.18572 0.95818 0.4972 0.0
H477 H 0.93084 0.20604 0.59278 0.0
H478 H 0.92298 0.20955 0.40603 0.0
H479 H 0.98246 0.20628 0.39778 0.0
H480 H 0.00519 0.24917 0.60982 0.0
H481 H 0.02214 0.22472 0.66483 0.0
H482 H 0.97888 0.22857 0.65804 0.0
H483 H 0.97269 0.17036 0.64749 0.0
H484 H 0.01585 0.16561 0.65488 0.0
H485 H 0.99527 0.15023 0.59264 0.0
H486 H 0.04075 0.19488 0.40845 0.0
H487 H 0.09785 0.18917 0.43746 0.0
H488 H 0.07056 0.19651 0.61772 0.0
C489 C 0.94187 0.20718 0.5504 0.0
C490 C 0.92253 0.20877 0.49988 0.0
C491 C 0.93752 0.20883 0.44503 0.0
C492 C 0.9712 0.20674 0.43997 0.0
C493 C 0.98956 0.20412 0.49025 0.0
C494 C 0.97567 0.20483 0.54455 0.0
C495 C 1.00131 0.20025 0.59117 0.0
C496 C 1.00192 0.22732 0.63348 0.0
C497 C 0.99595 0.16981 0.62344 0.0
C498 C 0.0318 0.19871 0.55455 0.0
C499 C 0.02405 0.19959 0.49644 0.0
C500 C 0.0473 0.19542 0.45373 0.0
C501 C 0.07966 0.19237 0.4706 0.0
C502 C 0.0887 0.19452 0.52941 0.0
C503 C 0.06434 0.19628 0.57224 0.0
H504 H 0.23729 0.27375 0.41493 0.0
H505 H 0.2568 0.17586 0.4113 0.0
H506 H 0.28917 0.18294 0.32207 0.0
H507 H 0.22226 0.28141 0.27036 0.0
H508 H 0.24 0.31892 0.26244 0.0
H509 H 0.22386 0.30723 0.33113 0.0
H510 H 0.27892 0.31779 0.38082 0.0
H511 H 0.29514 0.33027 0.3125 0.0
H512 H 0.31518 0.30022 0.35267 0.0
H513 H 0.31345 0.20058 0.22544 0.0
H514 H 0.33006 0.22694 0.13564 0.0
H515 H 0.29185 0.31277 0.20275 0.0
C516 C 0.24919 0.25382 0.39658 0.0
C517 C 0.24464 0.22422 0.42054 0.0
C518 C 0.26036 0.19881 0.3945 0.0
C519 C 0.27855 0.20263 0.34345 0.0
C520 C 0.28093 0.232 0.31931 0.0
C521 C 0.26701 0.2572 0.34574 0.0
C522 C 0.27049 0.2859 0.3093 0.0
C523 C 0.23718 0.29912 0.29231 0.0
C524 C 0.29117 0.30996 0.34069 0.0
C525 C 0.28799 0.27296 0.25736 0.0
C526 C 0.29409 0.24191 0.26393 0.0
C527 C 0.30906 0.22494 0.22033 0.0
C528 C 0.31826 0.24015 0.16924 0.0
C529 C 0.31225 0.27203 0.16169 0.0
C530 C 0.29687 0.28844 0.20673 0.0
H531 H 0.73507 0.26352 0.13287 0.0
H532 H 0.76144 0.35988 0.12848 0.0
H533 H 0.79527 0.35202 0.21573 0.0
H534 H 0.72304 0.25991 0.27911 0.0
H535 H 0.73817 0.22136 0.28872 0.0
H536 H 0.72123 0.23285 0.22034 0.0
H537 H 0.77407 0.2171 0.16788 0.0
H538 H 0.79108 0.20491 0.23597 0.0
H539 H 0.81218 0.23251 0.19201 0.0
H540 H 0.82022 0.33488 0.31081 0.0
H541 H 0.83664 0.30997 0.40181 0.0
H542 H 0.79179 0.22507 0.34546 0.0
C543 C 0.74871 0.28291 0.1489 0.0
C544 C 0.74564 0.31238 0.1232 0.0
C545 C 0.76366 0.33703 0.14658 0.0
C546 C 0.78278 0.33278 0.19646 0.0
C547 C 0.78373 0.30376 0.2223 0.0
C548 C 0.76745 0.27916 0.19877 0.0
C549 C 0.7698 0.25101 0.23728 0.0
C550 C 0.73606 0.2407 0.25755 0.0
C551 C 0.78787 0.22484 0.20644 0.0
C552 C 0.7895 0.26366 0.28699 0.0
C553 C 0.7975 0.29405 0.27733 0.0
C554 C 0.81439 0.31101 0.31834 0.0
C555 C 0.82347 0.29658 0.37022 0.0
C556 C 0.81558 0.26539 0.38125 0.0
C557 C 0.79841 0.24882 0.3386 0.0
H558 H 0.77419 0.84965 0.37088 0.0
H559 H 0.73311 0.78713 0.49597 0.0
H560 H 0.69843 0.76483 0.41983 0.0
H561 H 0.6994 0.85813 0.27418 0.0
H562 H 0.72418 0.85821 0.21013 0.0
H563 H 0.73951 0.8742 0.27656 0.0
H564 H 0.78935 0.83827 0.26968 0.0
H565 H 0.77393 0.82149 0.20429 0.0
H566 H 0.78346 0.79736 0.26541 0.0
H567 H 0.6777 0.74222 0.32871 0.0
H568 H 0.66716 0.72416 0.22949 0.0
H569 H 0.72076 0.80128 0.16058 0.0
C570 C 0.75638 0.83259 0.38267 0.0
C571 C 0.75525 0.82087 0.43966 0.0
C572 C 0.73328 0.79717 0.4531 0.0
C573 C 0.71377 0.78419 0.40992 0.0
C574 C 0.71666 0.79512 0.35342 0.0
C575 C 0.73695 0.8192 0.33975 0.0
C576 C 0.73853 0.82398 0.27466 0.0
C577 C 0.72456 0.85551 0.2579 0.0
C578 C 0.77338 0.82003 0.25223 0.0
C579 C 0.71689 0.79817 0.2538 0.0
C580 C 0.70449 0.78191 0.30011 0.0
C581 C 0.68656 0.75524 0.29219 0.0
C582 C 0.68095 0.745 0.23568 0.0
C583 C 0.69294 0.76144 0.18747 0.0
C584 C 0.71081 0.78862 0.19668 0.0
H585 H 0.22041 0.81714 0.35492 0.0
H586 H 0.16658 0.73505 0.39952 0.0
H587 H 0.18784 0.70915 0.3129 0.0
H588 H 0.21038 0.81106 0.19862 0.0
H589 H 0.25071 0.82449 0.18361 0.0
H590 H 0.22994 0.83721 0.24774 0.0
H591 H 0.27772 0.81787 0.31093 0.0
H592 H 0.29864 0.80519 0.24703 0.0
H593 H 0.29086 0.77848 0.30486 0.0
H594 H 0.21734 0.69096 0.22256 0.0
H595 H 0.25342 0.68244 0.13853 0.0
H596 H 0.28694 0.7765 0.15318 0.0
C597 C 0.21281 0.79384 0.34628 0.0
C598 C 0.19173 0.7783 0.38442 0.0
C599 C 0.18273 0.74762 0.37136 0.0
C600 C 0.1946 0.73263 0.32199 0.0
C601 C 0.21549 0.74851 0.28561 0.0
C602 C 0.2245 0.77845 0.29716 0.0
C603 C 0.24822 0.78999 0.25235 0.0
C604 C 0.23395 0.8173 0.21858 0.0
C605 C 0.28078 0.79836 0.28048 0.0
C606 C 0.25138 0.76181 0.21431 0.0
C607 C 0.23223 0.73812 0.23384 0.0
C608 C 0.23224 0.70948 0.20659 0.0
C609 C 0.25275 0.70485 0.15871 0.0
C610 C 0.27304 0.72872 0.13865 0.0
C611 C 0.27171 0.75766 0.16671 0.0
H612 H 0.22477 0.83447 0.69428 0.0
H613 H 0.2501 0.76331 0.57172 0.0
H614 H 0.28421 0.73799 0.64548 0.0
H615 H 0.30522 0.83496 0.77486 0.0
H616 H 0.28531 0.84087 0.84324 0.0
H617 H 0.26787 0.85644 0.77795 0.0
H618 H 0.21436 0.82821 0.80055 0.0
H619 H 0.23178 0.81189 0.86502 0.0
H620 H 0.21485 0.78715 0.81048 0.0
H621 H 0.30686 0.71556 0.73528 0.0
H622 H 0.32375 0.70072 0.83368 0.0
H623 H 0.28596 0.78682 0.90006 0.0
C624 C 0.23899 0.81452 0.68235 0.0
C625 C 0.23577 0.80127 0.62691 0.0
C626 C 0.25313 0.77418 0.61349 0.0
C627 C 0.27232 0.75954 0.65525 0.0
C628 C 0.27391 0.77231 0.71034 0.0
C629 C 0.25834 0.79954 0.72385 0.0
C630 C 0.26197 0.80679 0.7878 0.0
C631 C 0.28125 0.83653 0.79646 0.0
C632 C 0.22877 0.80861 0.8177 0.0
C633 C 0.2811 0.77895 0.80821 0.0
C634 C 0.28759 0.75937 0.7627 0.0
C635 C 0.30257 0.731 0.77109 0.0
C636 C 0.31175 0.72262 0.82728 0.0
C637 C 0.30625 0.74261 0.87452 0.0
C638 C 0.29079 0.77122 0.86467 0.0
H639 H 0.27525 0.26105 0.9114 0.0
H640 H 0.25489 0.35881 0.90635 0.0
H641 H 0.22113 0.35096 0.8188 0.0
H642 H 0.28697 0.25213 0.76518 0.0
H643 H 0.26921 0.21448 0.76052 0.0
H644 H 0.28717 0.22704 0.82722 0.0
H645 H 0.23354 0.21672 0.88164 0.0
H646 H 0.21547 0.20359 0.81523 0.0
H647 H 0.1965 0.23399 0.85588 0.0
H648 H 0.1947 0.33238 0.72434 0.0
H649 H 0.17637 0.30522 0.63651 0.0
H650 H 0.21612 0.22005 0.70431 0.0
C651 C 0.26307 0.28084 0.89297 0.0
C652 C 0.26767 0.3106 0.91617 0.0
C653 C 0.25142 0.33576 0.89006 0.0
C654 C 0.23237 0.3315 0.84003 0.0
C655 C 0.22965 0.30194 0.81695 0.0
C656 C 0.24431 0.27702 0.84324 0.0
C657 C 0.2399 0.24795 0.80829 0.0
C658 C 0.27276 0.23464 0.78918 0.0
C659 C 0.22017 0.22416 0.84229 0.0
C660 C 0.22095 0.26033 0.75731 0.0
C661 C 0.21501 0.29145 0.76307 0.0
C662 C 0.19898 0.30797 0.71991 0.0
C663 C 0.18876 0.2923 0.66995 0.0
C664 C 0.19472 0.26037 0.66311 0.0
C665 C 0.21095 0.24436 0.70789 0.0
H666 H 0.71433 0.25362 0.89625 0.0
H667 H 0.67319 0.33845 0.83015 0.0
H668 H 0.68986 0.3241 0.7314 0.0
H669 H 0.7842 0.25633 0.80954 0.0
H670 H 0.78714 0.21546 0.79855 0.0
H671 H 0.76799 0.23023 0.86257 0.0
H672 H 0.71629 0.19931 0.83818 0.0
H673 H 0.73527 0.18472 0.77361 0.0
H674 H 0.69697 0.20453 0.76892 0.0
H675 H 0.71502 0.30354 0.64214 0.0
H676 H 0.75142 0.2803 0.56959 0.0
H677 H 0.77784 0.20897 0.6915 0.0
C678 C 0.70829 0.26879 0.86068 0.0
C679 C 0.69219 0.29703 0.87068 0.0
C680 C 0.68547 0.31673 0.82341 0.0
C681 C 0.69462 0.30865 0.76711 0.0
C682 C 0.71074 0.28086 0.75863 0.0
C683 C 0.71785 0.26132 0.8041 0.0
C684 C 0.73861 0.23453 0.78389 0.0
C685 C 0.77142 0.23414 0.8155 0.0
C686 C 0.72071 0.20396 0.79161 0.0
C687 C 0.74256 0.24242 0.7203 0.0
C688 C 0.72575 0.26899 0.70659 0.0
C689 C 0.72772 0.28239 0.65198 0.0
C690 C 0.74826 0.26897 0.61091 0.0
C691 C 0.76644 0.24235 0.62445 0.0
C692 C 0.76302 0.22852 0.67939 0.0
H693 H 0.74013 0.78491 0.93026 0.0
H694 H 0.7583 0.68686 0.92274 0.0
H695 H 0.79015 0.69448 0.83306 0.0
H696 H 0.72442 0.79426 0.78607 0.0
H697 H 0.74258 0.83165 0.77935 0.0
H698 H 0.72667 0.81936 0.84783 0.0
H699 H 0.78213 0.82881 0.89686 0.0
H700 H 0.79817 0.84179 0.82872 0.0
H701 H 0.81801 0.8111 0.86748 0.0
H702 H 0.81389 0.71284 0.73611 0.0
H703 H 0.82954 0.7398 0.64636 0.0
H704 H 0.79354 0.82544 0.71791 0.0
C705 C 0.75163 0.76503 0.91098 0.0
C706 C 0.74685 0.73524 0.93411 0.0
C707 C 0.76204 0.70994 0.90671 0.0
C708 C 0.77995 0.71407 0.85536 0.0
C709 C 0.78263 0.74366 0.8322 0.0
C710 C 0.76921 0.76873 0.85985 0.0
C711 C 0.77291 0.79777 0.82435 0.0
C712 C 0.73967 0.81155 0.80847 0.0
C713 C 0.79407 0.82125 0.85625 0.0
C714 C 0.78997 0.7852 0.77157 0.0
C715 C 0.79564 0.75401 0.77685 0.0
C716 C 0.80986 0.73731 0.73207 0.0
C717 C 0.81856 0.75287 0.68101 0.0
C718 C 0.81287 0.78488 0.67464 0.0
C719 C 0.79847 0.80106 0.72105 0.0
loop_
_geom_bond_atom_site_label_1
_geom_bond_atom_site_label_2
_geom_bond_distance
_geom_bond_site_symmetry_2
_ccdc_geom_bond_type
Mn0 O5 2.095 1_554 S
Mn0 O15 2.162 . S
Mn0 O16 2.297 1_554 S
Mn0 O24 2.385 . S
Mn0 O25 2.209 . S
Mn0 O26 2.094 . S
Mn1 O6 2.121 1_554 S
Mn1 N8 2.257 1_554 S
Mn1 N17 2.282 . S
Mn1 O25 2.215 . S
Mn1 O27 2.117 . S
C2 O24 1.234 . S
C2 O25 1.283 . S
C3 O15 1.281 . S
C3 O16 1.236 1_554 S
C4 O26 1.240 . S
C4 O27 1.264 . S
O5 Mn0 2.095 1_556 S
O5 C14 1.250 . S
O6 Mn1 2.121 1_556 S
O6 C14 1.258 . S
C7 N8 1.326 . S
C7 C11 1.460 . S
C7 H13 0.929 . S
N8 Mn1 2.257 1_556 S
N8 C7 1.326 . S
N8 C12 1.362 . S
C9 C10 1.258 . S
C9 C12 1.431 . S
C9 C29 1.449 . S
C10 C9 1.258 . S
C10 C11 1.477 . S
C10 H30 0.931 . S
C11 C7 1.460 . S
C11 C10 1.477 . S
C11 H31 0.930 . S
C12 N8 1.362 . S
C12 C9 1.431 . S
C12 C22 1.476 1_556 S
H13 C7 0.929 . S
C14 O5 1.250 . S
C14 O6 1.258 . S
O15 Mn0 2.162 . S
O15 C3 1.281 . S
O16 Mn0 2.297 1_556 S
O16 C3 1.236 1_556 S
N17 Mn1 2.282 . S
N17 C18 1.328 . S
N17 C22 1.318 . S
C18 N17 1.328 . S
C18 C19 1.457 . S
C18 H23 0.929 . S
C19 C18 1.457 . S
C19 C20 1.291 . S
C19 H32 0.931 . S
C20 C19 1.291 . S
C20 C21 1.373 . S
C20 H33 0.929 . S
C21 C20 1.373 . S
C21 C22 1.396 . S
C21 C28 1.403 . S
C22 C12 1.476 1_554 S
C22 N17 1.318 . S
C22 C21 1.396 . S
H23 C18 0.929 . S
O24 Mn0 2.385 . S
O24 C2 1.234 . S
O25 Mn0 2.209 . S
O25 Mn1 2.215 . S
O25 C2 1.283 . S
O26 Mn0 2.094 . S
O26 C4 1.240 . S
O27 Mn1 2.117 . S
O27 C4 1.264 . S
C28 C21 1.403 . S
C28 C29 1.399 1_554 S
C28 H34 0.929 . S
C29 C9 1.449 . S
C29 C28 1.399 1_556 S
C29 H35 0.930 . S
H30 C10 0.931 . S
H31 C11 0.930 . S
H32 C19 0.931 . S
H33 C20 0.929 . S
H34 C28 0.929 . S
H35 C29 0.930 . S
Mn36 O41 2.095 1_556 S
Mn36 O51 2.162 . S
Mn36 O52 2.297 1_556 S
Mn36 O60 2.385 . S
Mn36 O61 2.209 1_556 S
Mn36 O62 2.094 . S
Mn37 O42 2.121 . S
Mn37 N44 2.257 . S
Mn37 N53 2.282 1_554 S
Mn37 O61 2.215 . S
Mn37 O63 2.117 1_554 S
C38 O60 1.234 . S
C38 O61 1.283 1_556 S
C39 O51 1.281 1_554 S
C39 O52 1.236 . S
C40 O62 1.240 . S
C40 O63 1.264 . S
O41 Mn36 2.095 1_554 S
O41 C50 1.250 . S
O42 Mn37 2.121 . S
O42 C50 1.258 . S
C43 N44 1.326 . S
C43 C47 1.460 . S
C43 H49 0.929 . S
N44 Mn37 2.257 . S
N44 C43 1.326 . S
N44 C48 1.362 . S
C45 C46 1.258 . S
C45 C48 1.431 . S
C45 C65 1.449 . S
C46 C45 1.258 . S
C46 C47 1.477 . S
C46 H66 0.931 . S
C47 C43 1.460 . S
C47 C46 1.477 . S
C47 H67 0.930 . S
C48 N44 1.362 . S
C48 C45 1.431 . S
C48 C58 1.476 1_554 S
H49 C43 0.929 . S
C50 O41 1.250 . S
C50 O42 1.258 . S
O51 Mn36 2.162 . S
O51 C39 1.281 1_556 S
O52 Mn36 2.297 1_554 S
O52 C39 1.236 . S
N53 Mn37 2.282 1_556 S
N53 C54 1.328 . S
N53 C58 1.318 . S
C54 N53 1.328 . S
C54 C55 1.457 . S
C54 H59 0.929 . S
C55 C54 1.457 . S
C55 C56 1.291 . S
C55 H68 0.931 . S
C56 C55 1.291 . S
C56 C57 1.373 . S
C56 H69 0.929 . S
C57 C56 1.373 . S
C57 C58 1.396 . S
C57 C64 1.403 . S
C58 C48 1.476 1_556 S
C58 N53 1.318 . S
C58 C57 1.396 . S
H59 C54 0.929 . S
O60 Mn36 2.385 . S
O60 C38 1.234 . S
O61 Mn36 2.209 1_554 S
O61 Mn37 2.215 . S
O61 C38 1.283 1_554 S
O62 Mn36 2.094 . S
O62 C40 1.240 . S
O63 Mn37 2.117 1_556 S
O63 C40 1.264 . S
C64 C57 1.403 . S
C64 C65 1.399 1_556 S
C64 H70 0.929 . S
C65 C45 1.449 . S
C65 C64 1.399 1_554 S
C65 H71 0.930 . S
H66 C46 0.931 . S
H67 C47 0.930 . S
H68 C55 0.931 . S
H69 C56 0.929 . S
H70 C64 0.929 . S
H71 C65 0.930 . S
Mn72 O77 2.095 1_554 S
Mn72 O87 2.162 . S
Mn72 O88 2.297 1_554 S
Mn72 O96 2.385 . S
Mn72 O97 2.209 . S
Mn72 O98 2.094 . S
Mn73 O78 2.121 1_554 S
Mn73 N80 2.257 1_554 S
Mn73 N89 2.282 . S
Mn73 O97 2.215 . S
Mn73 O99 2.117 . S
C74 O96 1.234 . S
C74 O97 1.283 . S
C75 O87 1.281 . S
C75 O88 1.236 1_554 S
C76 O98 1.240 . S
C76 O99 1.264 . S
O77 Mn72 2.095 1_556 S
O77 C86 1.250 . S
O78 Mn73 2.121 1_556 S
O78 C86 1.258 . S
C79 N80 1.326 . S
C79 C83 1.460 . S
C79 H85 0.929 . S
N80 Mn73 2.257 1_556 S
N80 C79 1.326 . S
N80 C84 1.362 . S
C81 C82 1.258 . S
C81 C84 1.431 . S
C81 C101 1.449 . S
C82 C81 1.258 . S
C82 C83 1.477 . S
C82 H102 0.931 . S
C83 C79 1.460 . S
C83 C82 1.477 . S
C83 H103 0.930 . S
C84 N80 1.362 . S
C84 C81 1.431 . S
C84 C94 1.476 1_556 S
H85 C79 0.929 . S
C86 O77 1.250 . S
C86 O78 1.258 . S
O87 Mn72 2.162 . S
O87 C75 1.281 . S
O88 Mn72 2.297 1_556 S
O88 C75 1.236 1_556 S
N89 Mn73 2.282 . S
N89 C90 1.328 . S
N89 C94 1.318 . S
C90 N89 1.328 . S
C90 C91 1.457 . S
C90 H95 0.929 . S
C91 C90 1.457 . S
C91 C92 1.291 . S
C91 H104 0.931 . S
C92 C91 1.291 . S
C92 C93 1.373 . S
C92 H105 0.929 . S
C93 C92 1.373 . S
C93 C94 1.396 . S
C93 C100 1.403 . S
C94 C84 1.476 1_554 S
C94 N89 1.318 . S
C94 C93 1.396 . S
H95 C90 0.929 . S
O96 Mn72 2.385 . S
O96 C74 1.234 . S
O97 Mn72 2.209 . S
O97 Mn73 2.215 . S
O97 C74 1.283 . S
O98 Mn72 2.094 . S
O98 C76 1.240 . S
O99 Mn73 2.117 . S
O99 C76 1.264 . S
C100 C93 1.403 . S
C100 C101 1.399 1_554 S
C100 H106 0.929 . S
C101 C81 1.449 . S
C101 C100 1.399 1_556 S
C101 H107 0.930 . S
H102 C82 0.931 . S
H103 C83 0.930 . S
H104 C91 0.931 . S
H105 C92 0.929 . S
H106 C100 0.929 . S
H107 C101 0.930 . S
Mn108 O113 2.095 1_556 S
Mn108 O123 2.162 . S
Mn108 O124 2.297 1_556 S
Mn108 O132 2.385 . S
Mn108 O133 2.209 1_556 S
Mn108 O134 2.094 . S
Mn109 O114 2.121 . S
Mn109 N116 2.257 . S
Mn109 N125 2.282 1_554 S
Mn109 O133 2.215 . S
Mn109 O135 2.117 1_554 S
C110 O132 1.234 . S
C110 O133 1.283 1_556 S
C111 O123 1.281 1_554 S
C111 O124 1.236 . S
C112 O134 1.240 . S
C112 O135 1.264 . S
O113 Mn108 2.095 1_554 S
O113 C122 1.250 . S
O114 Mn109 2.121 . S
O114 C122 1.258 . S
C115 N116 1.326 . S
C115 C119 1.460 . S
C115 H121 0.929 . S
N116 Mn109 2.257 . S
N116 C115 1.326 . S
N116 C120 1.362 . S
C117 C118 1.258 . S
C117 C120 1.431 . S
C117 C137 1.449 . S
C118 C117 1.258 . S
C118 C119 1.477 . S
C118 H138 0.931 . S
C119 C115 1.460 . S
C119 C118 1.477 . S
C119 H139 0.930 . S
C120 N116 1.362 . S
C120 C117 1.431 . S
C120 C130 1.476 1_554 S
H121 C115 0.929 . S
C122 O113 1.250 . S
C122 O114 1.258 . S
O123 Mn108 2.162 . S
O123 C111 1.281 1_556 S
O124 Mn108 2.297 1_554 S
O124 C111 1.236 . S
N125 Mn109 2.282 1_556 S
N125 C126 1.328 . S
N125 C130 1.318 . S
C126 N125 1.328 . S
C126 C127 1.457 . S
C126 H131 0.929 . S
C127 C126 1.457 . S
C127 C128 1.291 . S
C127 H140 0.931 . S
C128 C127 1.291 . S
C128 C129 1.373 . S
C128 H141 0.929 . S
C129 C128 1.373 . S
C129 C130 1.396 . S
C129 C136 1.403 . S
C130 C120 1.476 1_556 S
C130 N125 1.318 . S
C130 C129 1.396 . S
H131 C126 0.929 . S
O132 Mn108 2.385 . S
O132 C110 1.234 . S
O133 Mn108 2.209 1_554 S
O133 Mn109 2.215 . S
O133 C110 1.283 1_554 S
O134 Mn108 2.094 . S
O134 C112 1.240 . S
O135 Mn109 2.117 1_556 S
O135 C112 1.264 . S
C136 C129 1.403 . S
C136 C137 1.399 1_556 S
C136 H142 0.929 . S
C137 C117 1.449 . S
C137 C136 1.399 1_554 S
C137 H143 0.930 . S
H138 C118 0.931 . S
H139 C119 0.930 . S
H140 C127 0.931 . S
H141 C128 0.929 . S
H142 C136 0.929 . S
H143 C137 0.930 . S
Mn144 O149 2.095 . S
Mn144 O159 2.162 . S
Mn144 O160 2.297 . S
Mn144 O168 2.385 . S
Mn144 O169 2.209 . S
Mn144 O170 2.094 . S
Mn145 O150 2.121 . S
Mn145 N152 2.257 . S
Mn145 N161 2.282 . S
Mn145 O169 2.215 . S
Mn145 O171 2.117 . S
C146 O168 1.234 . S
C146 O169 1.283 . S
C147 O159 1.281 . S
C147 O160 1.236 . S
C148 O170 1.240 . S
C148 O171 1.264 . S
O149 Mn144 2.095 . S
O149 C158 1.250 . S
O150 Mn145 2.121 . S
O150 C158 1.258 . S
C151 N152 1.326 . S
C151 C155 1.460 . S
C151 H157 0.929 . S
N152 Mn145 2.257 . S
N152 C151 1.326 . S
N152 C156 1.362 . S
C153 C154 1.258 . S
C153 C156 1.431 . S
C153 C173 1.449 . S
C154 C153 1.258 . S
C154 C155 1.477 . S
C154 H174 0.931 . S
C155 C151 1.460 . S
C155 C154 1.477 . S
C155 H175 0.930 . S
C156 N152 1.362 . S
C156 C153 1.431 . S
C156 C166 1.476 . S
H157 C151 0.929 . S
C158 O149 1.250 . S
C158 O150 1.258 . S
O159 Mn144 2.162 . S
O159 C147 1.281 . S
O160 Mn144 2.297 . S
O160 C147 1.236 . S
N161 Mn145 2.282 . S
N161 C162 1.328 . S
N161 C166 1.318 . S
C162 N161 1.328 . S
C162 C163 1.457 . S
C162 H167 0.929 . S
C163 C162 1.457 . S
C163 C164 1.291 . S
C163 H176 0.931 . S
C164 C163 1.291 . S
C164 C165 1.373 . S
C164 H177 0.929 . S
C165 C164 1.373 . S
C165 C166 1.396 . S
C165 C172 1.403 . S
C166 C156 1.476 . S
C166 N161 1.318 . S
C166 C165 1.396 . S
H167 C162 0.929 . S
O168 Mn144 2.385 . S
O168 C146 1.234 . S
O169 Mn144 2.209 . S
O169 Mn145 2.215 . S
O169 C146 1.283 . S
O170 Mn144 2.094 . S
O170 C148 1.240 . S
O171 Mn145 2.117 . S
O171 C148 1.264 . S
C172 C165 1.403 . S
C172 C173 1.399 . S
C172 H178 0.929 . S
C173 C153 1.449 . S
C173 C172 1.399 . S
C173 H179 0.930 . S
H174 C154 0.931 . S
H175 C155 0.930 . S
H176 C163 0.931 . S
H177 C164 0.929 . S
H178 C172 0.929 . S
H179 C173 0.930 . S
Mn180 O185 2.095 . S
Mn180 O195 2.162 . S
Mn180 O196 2.297 . S
Mn180 O204 2.385 . S
Mn180 O205 2.209 . S
Mn180 O206 2.094 . S
Mn181 O186 2.121 . S
Mn181 N188 2.257 . S
Mn181 N197 2.282 . S
Mn181 O205 2.215 . S
Mn181 O207 2.117 . S
C182 O204 1.234 . S
C182 O205 1.283 . S
C183 O195 1.281 . S
C183 O196 1.236 . S
C184 O206 1.240 . S
C184 O207 1.264 . S
O185 Mn180 2.095 . S
O185 C194 1.250 . S
O186 Mn181 2.121 . S
O186 C194 1.258 . S
C187 N188 1.326 . S
C187 C191 1.460 . S
C187 H193 0.929 . S
N188 Mn181 2.257 . S
N188 C187 1.326 . S
N188 C192 1.362 . S
C189 C190 1.258 . S
C189 C192 1.431 . S
C189 C209 1.449 . S
C190 C189 1.258 . S
C190 C191 1.477 . S
C190 H210 0.931 . S
C191 C187 1.460 . S
C191 C190 1.477 . S
C191 H211 0.930 . S
C192 N188 1.362 . S
C192 C189 1.431 . S
C192 C202 1.476 . S
H193 C187 0.929 . S
C194 O185 1.250 . S
C194 O186 1.258 . S
O195 Mn180 2.162 . S
O195 C183 1.281 . S
O196 Mn180 2.297 . S
O196 C183 1.236 . S
N197 Mn181 2.282 . S
N197 C198 1.328 . S
N197 C202 1.318 . S
C198 N197 1.328 . S
C198 C199 1.457 . S
C198 H203 0.929 . S
C199 C198 1.457 . S
C199 C200 1.291 . S
C199 H212 0.931 . S
C200 C199 1.291 . S
C200 C201 1.373 . S
C200 H213 0.929 . S
C201 C200 1.373 . S
C201 C202 1.396 . S
C201 C208 1.403 . S
C202 C192 1.476 . S
C202 N197 1.318 . S
C202 C201 1.396 . S
H203 C198 0.929 . S
O204 Mn180 2.385 . S
O204 C182 1.234 . S
O205 Mn180 2.209 . S
O205 Mn181 2.215 . S
O205 C182 1.283 . S
O206 Mn180 2.094 . S
O206 C184 1.240 . S
O207 Mn181 2.117 . S
O207 C184 1.264 . S
C208 C201 1.403 . S
C208 C209 1.399 . S
C208 H214 0.929 . S
C209 C189 1.449 . S
C209 C208 1.399 . S
C209 H215 0.930 . S
H210 C190 0.931 . S
H211 C191 0.930 . S
H212 C199 0.931 . S
H213 C200 0.929 . S
H214 C208 0.929 . S
H215 C209 0.930 . S
Mn216 O221 2.095 . S
Mn216 O231 2.162 . S
Mn216 O232 2.297 . S
Mn216 O240 2.385 . S
Mn216 O241 2.209 . S
Mn216 O242 2.094 . S
Mn217 O222 2.121 . S
Mn217 N224 2.257 . S
Mn217 N233 2.282 . S
Mn217 O241 2.215 . S
Mn217 O243 2.117 . S
C218 O240 1.234 . S
C218 O241 1.283 . S
C219 O231 1.281 . S
C219 O232 1.236 . S
C220 O242 1.240 . S
C220 O243 1.264 . S
O221 Mn216 2.095 . S
O221 C230 1.250 . S
O222 Mn217 2.121 . S
O222 C230 1.258 . S
C223 N224 1.326 . S
C223 C227 1.460 . S
C223 H229 0.929 . S
N224 Mn217 2.257 . S
N224 C223 1.326 . S
N224 C228 1.362 . S
C225 C226 1.258 . S
C225 C228 1.431 . S
C225 C245 1.449 . S
C226 C225 1.258 . S
C226 C227 1.477 . S
C226 H246 0.931 . S
C227 C223 1.460 . S
C227 C226 1.477 . S
C227 H247 0.930 . S
C228 N224 1.362 . S
C228 C225 1.431 . S
C228 C238 1.476 . S
H229 C223 0.929 . S
C230 O221 1.250 . S
C230 O222 1.258 . S
O231 Mn216 2.162 . S
O231 C219 1.281 . S
O232 Mn216 2.297 . S
O232 C219 1.236 . S
N233 Mn217 2.282 . S
N233 C234 1.328 . S
N233 C238 1.318 . S
C234 N233 1.328 . S
C234 C235 1.457 . S
C234 H239 0.929 . S
C235 C234 1.457 . S
C235 C236 1.291 . S
C235 H248 0.931 . S
C236 C235 1.291 . S
C236 C237 1.373 . S
C236 H249 0.929 . S
C237 C236 1.373 . S
C237 C238 1.396 . S
C237 C244 1.403 . S
C238 C228 1.476 . S
C238 N233 1.318 . S
C238 C237 1.396 . S
H239 C234 0.929 . S
O240 Mn216 2.385 . S
O240 C218 1.234 . S
O241 Mn216 2.209 . S
O241 Mn217 2.215 . S
O241 C218 1.283 . S
O242 Mn216 2.094 . S
O242 C220 1.240 . S
O243 Mn217 2.117 . S
O243 C220 1.264 . S
C244 C237 1.403 . S
C244 C245 1.399 . S
C244 H250 0.929 . S
C245 C225 1.449 . S
C245 C244 1.399 . S
C245 H251 0.930 . S
H246 C226 0.931 . S
H247 C227 0.930 . S
H248 C235 0.931 . S
H249 C236 0.929 . S
H250 C244 0.929 . S
H251 C245 0.930 . S
Mn252 O257 2.095 . S
Mn252 O267 2.162 . S
Mn252 O268 2.297 . S
Mn252 O276 2.385 . S
Mn252 O277 2.209 . S
Mn252 O278 2.094 . S
Mn253 O258 2.121 . S
Mn253 N260 2.257 . S
Mn253 N269 2.282 . S
Mn253 O277 2.215 . S
Mn253 O279 2.117 . S
C254 O276 1.234 . S
C254 O277 1.283 . S
C255 O267 1.281 . S
C255 O268 1.236 . S
C256 O278 1.240 . S
C256 O279 1.264 . S
O257 Mn252 2.095 . S
O257 C266 1.250 . S
O258 Mn253 2.121 . S
O258 C266 1.258 . S
C259 N260 1.326 . S
C259 C263 1.460 . S
C259 H265 0.929 . S
N260 Mn253 2.257 . S
N260 C259 1.326 . S
N260 C264 1.362 . S
C261 C262 1.258 . S
C261 C264 1.431 . S
C261 C281 1.449 . S
C262 C261 1.258 . S
C262 C263 1.477 . S
C262 H282 0.931 . S
C263 C259 1.460 . S
C263 C262 1.477 . S
C263 H283 0.930 . S
C264 N260 1.362 . S
C264 C261 1.431 . S
C264 C274 1.476 . S
H265 C259 0.929 . S
C266 O257 1.250 . S
C266 O258 1.258 . S
O267 Mn252 2.162 . S
O267 C255 1.281 . S
O268 Mn252 2.297 . S
O268 C255 1.236 . S
N269 Mn253 2.282 . S
N269 C270 1.328 . S
N269 C274 1.318 . S
C270 N269 1.328 . S
C270 C271 1.457 . S
C270 H275 0.929 . S
C271 C270 1.457 . S
C271 C272 1.291 . S
C271 H284 0.931 . S
C272 C271 1.291 . S
C272 C273 1.373 . S
C272 H285 0.929 . S
C273 C272 1.373 . S
C273 C274 1.396 . S
C273 C280 1.403 . S
C274 C264 1.476 . S
C274 N269 1.318 . S
C274 C273 1.396 . S
H275 C270 0.929 . S
O276 Mn252 2.385 . S
O276 C254 1.234 . S
O277 Mn252 2.209 . S
O277 Mn253 2.215 . S
O277 C254 1.283 . S
O278 Mn252 2.094 . S
O278 C256 1.240 . S
O279 Mn253 2.117 . S
O279 C256 1.264 . S
C280 C273 1.403 . S
C280 C281 1.399 . S
C280 H286 0.929 . S
C281 C261 1.449 . S
C281 C280 1.399 . S
C281 H287 0.930 . S
H282 C262 0.931 . S
H283 C263 0.930 . S
H284 C271 0.931 . S
H285 C272 0.929 . S
H286 C280 0.929 . S
H287 C281 0.930 . S
H288 C300 0.930 . S
H289 C302 0.930 . S
H290 C303 0.930 . S
H291 C307 0.959 . S
H292 C307 0.959 . S
H293 C307 0.961 . S
H294 C308 0.960 . S
H295 C308 0.961 . S
H296 C308 0.959 . S
H297 C311 0.929 . S
H298 C312 0.931 . S
H299 C314 0.930 . S
C300 H288 0.930 . S
C300 C301 1.399 1_556 S
C300 C305 1.399 . S
C301 C300 1.399 1_554 S
C301 C302 1.376 . S
C302 H289 0.930 . S
C302 C301 1.376 . S
C302 C303 1.388 . S
C303 H290 0.930 . S
C303 C302 1.388 . S
C303 C304 1.390 . S
C304 C303 1.390 . S
C304 C305 1.394 1_554 S
C304 C310 1.465 . S
C305 C300 1.399 . S
C305 C304 1.394 1_556 S
C305 C306 1.516 . S
C306 C305 1.516 . S
C306 C307 1.502 . S
C306 C308 1.561 . S
C306 C309 1.526 . S
C307 H291 0.959 . S
C307 H292 0.959 . S
C307 H293 0.961 . S
C307 C306 1.502 . S
C308 H294 0.960 . S
C308 H295 0.961 . S
C308 H296 0.959 . S
C308 C306 1.561 . S
C309 C306 1.526 . S
C309 C310 1.396 1_556 S
C309 C314 1.390 . S
C310 C304 1.465 . S
C310 C309 1.396 1_554 S
C310 C311 1.399 . S
C311 H297 0.929 . S
C311 C310 1.399 . S
C311 C312 1.385 . S
C312 H298 0.931 . S
C312 C311 1.385 . S
C312 C313 1.389 . S
C313 C312 1.389 . S
C313 C314 1.387 1_554 S
C314 H299 0.930 . S
C314 C309 1.390 . S
C314 C313 1.387 1_556 S
H315 C327 0.930 . S
H316 C329 0.930 . S
H317 C330 0.930 . S
H318 C334 0.959 . S
H319 C334 0.959 . S
H320 C334 0.961 . S
H321 C335 0.960 . S
H322 C335 0.961 . S
H323 C335 0.959 1_554 S
H324 C338 0.929 . S
H325 C339 0.931 . S
H326 C341 0.930 . S
C327 H315 0.930 . S
C327 C328 1.399 1_556 S
C327 C332 1.399 1_556 S
C328 C327 1.399 1_554 S
C328 C329 1.376 . S
C329 H316 0.930 . S
C329 C328 1.376 . S
C329 C330 1.388 . S
C330 H317 0.930 . S
C330 C329 1.388 . S
C330 C331 1.390 . S
C331 C330 1.390 . S
C331 C332 1.394 . S
C331 C337 1.465 . S
C332 C327 1.399 1_554 S
C332 C331 1.394 . S
C332 C333 1.516 1_554 S
C333 C332 1.516 1_556 S
C333 C334 1.502 . S
C333 C335 1.561 . S
C333 C336 1.526 . S
C334 H318 0.959 . S
C334 H319 0.959 . S
C334 H320 0.961 . S
C334 C333 1.502 . S
C335 H321 0.960 . S
C335 H322 0.961 . S
C335 H323 0.959 1_556 S
C335 C333 1.561 . S
C336 C333 1.526 . S
C336 C337 1.396 1_556 S
C336 C341 1.390 . S
C337 C331 1.465 . S
C337 C336 1.396 1_554 S
C337 C338 1.399 . S
C338 H324 0.929 . S
C338 C337 1.399 . S
C338 C339 1.385 . S
C339 H325 0.931 . S
C339 C338 1.385 . S
C339 C340 1.389 . S
C340 C339 1.389 . S
C340 C341 1.387 1_554 S
C341 H326 0.930 . S
C341 C336 1.390 . S
C341 C340 1.387 1_556 S
H342 C354 0.930 . S
H343 C356 0.930 . S
H344 C357 0.930 . S
H345 C361 0.959 . S
H346 C361 0.959 . S
H347 C361 0.961 . S
H348 C362 0.960 . S
H349 C362 0.961 . S
H350 C362 0.959 . S
H351 C365 0.929 . S
H352 C366 0.931 . S
H353 C368 0.930 . S
C354 H342 0.930 . S
C354 C355 1.399 1_556 S
C354 C359 1.399 . S
C355 C354 1.399 1_554 S
C355 C356 1.376 . S
C356 H343 0.930 . S
C356 C355 1.376 . S
C356 C357 1.388 . S
C357 H344 0.930 . S
C357 C356 1.388 . S
C357 C358 1.390 . S
C358 C357 1.390 . S
C358 C359 1.394 1_554 S
C358 C364 1.465 . S
C359 C354 1.399 . S
C359 C358 1.394 1_556 S
C359 C360 1.516 . S
C360 C359 1.516 . S
C360 C361 1.502 . S
C360 C362 1.561 . S
C360 C363 1.526 . S
C361 H345 0.959 . S
C361 H346 0.959 . S
C361 H347 0.961 . S
C361 C360 1.502 . S
C362 H348 0.960 . S
C362 H349 0.961 . S
C362 H350 0.959 . S
C362 C360 1.561 . S
C363 C360 1.526 . S
C363 C364 1.396 1_556 S
C363 C368 1.390 . S
C364 C358 1.465 . S
C364 C363 1.396 1_554 S
C364 C365 1.399 . S
C365 H351 0.929 . S
C365 C364 1.399 . S
C365 C366 1.385 . S
C366 H352 0.931 . S
C366 C365 1.385 . S
C366 C367 1.389 . S
C367 C366 1.389 . S
C367 C368 1.387 1_554 S
C368 H353 0.930 . S
C368 C363 1.390 . S
C368 C367 1.387 1_556 S
H369 C381 0.930 . S
H370 C383 0.930 . S
H371 C384 0.930 . S
H372 C388 0.959 . S
H373 C388 0.959 . S
H374 C388 0.961 . S
H375 C389 0.960 . S
H376 C389 0.961 . S
H377 C389 0.959 . S
H378 C392 0.929 . S
H379 C393 0.931 . S
H380 C395 0.930 . S
C381 H369 0.930 . S
C381 C382 1.399 1_554 S
C381 C386 1.399 . S
C382 C381 1.399 1_556 S
C382 C383 1.376 . S
C383 H370 0.930 . S
C383 C382 1.376 . S
C383 C384 1.388 . S
C384 H371 0.930 . S
C384 C383 1.388 . S
C384 C385 1.390 . S
C385 C384 1.390 . S
C385 C386 1.394 1_556 S
C385 C391 1.465 1_556 S
C386 C381 1.399 . S
C386 C385 1.394 1_554 S
C386 C387 1.516 . S
C387 C386 1.516 . S
C387 C388 1.502 . S
C387 C389 1.561 1_554 S
C387 C390 1.526 . S
C388 H372 0.959 . S
C388 H373 0.959 . S
C388 H374 0.961 . S
C388 C387 1.502 . S
C389 H375 0.960 . S
C389 H376 0.961 . S
C389 H377 0.959 . S
C389 C387 1.561 1_556 S
C390 C387 1.526 . S
C390 C391 1.396 . S
C390 C395 1.390 . S
C391 C385 1.465 1_554 S
C391 C390 1.396 . S
C391 C392 1.399 1_554 S
C392 H378 0.929 . S
C392 C391 1.399 1_556 S
C392 C393 1.385 1_556 S
C393 H379 0.931 . S
C393 C392 1.385 1_554 S
C393 C394 1.389 . S
C394 C393 1.389 . S
C394 C395 1.387 . S
C395 H380 0.930 . S
C395 C390 1.390 . S
C395 C394 1.387 . S
H396 C408 0.930 . S
H397 C410 0.930 . S
H398 C411 0.930 . S
H399 C415 0.959 . S
H400 C415 0.959 . S
H401 C415 0.961 1_565 S
H402 C416 0.960 1_565 S
H403 C416 0.961 . S
H404 C416 0.959 . S
H405 C419 0.929 . S
H406 C420 0.931 . S
H407 C422 0.930 . S
C408 H396 0.930 . S
C408 C409 1.399 . S
C408 C413 1.399 . S
C409 C408 1.399 . S
C409 C410 1.376 . S
C410 H397 0.930 . S
C410 C409 1.376 . S
C410 C411 1.388 . S
C411 H398 0.930 . S
C411 C410 1.388 . S
C411 C412 1.390 . S
C412 C411 1.390 . S
C412 C413 1.394 . S
C412 C418 1.465 1_565 S
C413 C408 1.399 . S
C413 C412 1.394 . S
C413 C414 1.516 1_565 S
C414 C413 1.516 1_545 S
C414 C415 1.502 . S
C414 C416 1.561 . S
C414 C417 1.526 . S
C415 H399 0.959 . S
C415 H400 0.959 . S
C415 H401 0.961 1_545 S
C415 C414 1.502 . S
C416 H402 0.960 1_545 S
C416 H403 0.961 . S
C416 H404 0.959 . S
C416 C414 1.561 . S
C417 C414 1.526 . S
C417 C418 1.396 . S
C417 C422 1.390 . S
C418 C412 1.465 1_545 S
C418 C417 1.396 . S
C418 C419 1.399 . S
C419 H405 0.929 . S
C419 C418 1.399 . S
C419 C420 1.385 . S
C420 H406 0.931 . S
C420 C419 1.385 . S
C420 C421 1.389 . S
C421 C420 1.389 . S
C421 C422 1.387 . S
C422 H407 0.930 . S
C422 C417 1.390 . S
C422 C421 1.387 . S
H423 C435 0.930 . S
H424 C437 0.930 . S
H425 C438 0.930 . S
H426 C442 0.959 . S
H427 C442 0.959 1_655 S
H428 C442 0.961 . S
H429 C443 0.960 1_455 S
H430 C443 0.961 . S
H431 C443 0.959 . S
H432 C446 0.929 . S
H433 C447 0.931 . S
H434 C449 0.930 . S
C435 H423 0.930 . S
C435 C436 1.399 . S
C435 C440 1.399 . S
C436 C435 1.399 . S
C436 C437 1.376 . S
C437 H424 0.930 . S
C437 C436 1.376 . S
C437 C438 1.388 . S
C438 H425 0.930 . S
C438 C437 1.388 . S
C438 C439 1.390 . S
C439 C438 1.390 . S
C439 C440 1.394 . S
C439 C445 1.465 1_455 S
C440 C435 1.399 . S
C440 C439 1.394 . S
C440 C441 1.519 1_455 S
C441 C440 1.519 1_655 S
C441 C442 1.502 1_655 S
C441 C443 1.561 . S
C441 C444 1.523 . S
C442 H426 0.959 . S
C442 H427 0.959 1_455 S
C442 H428 0.961 . S
C442 C441 1.502 1_455 S
C443 H429 0.960 1_655 S
C443 H430 0.961 . S
C443 H431 0.959 . S
C443 C441 1.561 . S
C444 C441 1.523 . S
C444 C445 1.396 . S
C444 C449 1.390 . S
C445 C439 1.465 1_655 S
C445 C444 1.396 . S
C445 C446 1.399 . S
C446 H432 0.929 . S
C446 C445 1.399 . S
C446 C447 1.385 . S
C447 H433 0.931 . S
C447 C446 1.385 . S
C447 C448 1.389 . S
C448 C447 1.389 . S
C448 C449 1.387 . S
C449 H434 0.930 . S
C449 C444 1.390 . S
C449 C448 1.387 . S
H450 C462 0.930 . S
H451 C464 0.930 . S
H452 C465 0.930 . S
H453 C469 0.959 . S
H454 C469 0.959 . S
H455 C469 0.961 1_545 S
H456 C470 0.960 1_545 S
H457 C470 0.961 . S
H458 C470 0.959 . S
H459 C473 0.929 . S
H460 C474 0.931 . S
H461 C476 0.930 . S
C462 H450 0.930 . S
C462 C463 1.399 . S
C462 C467 1.399 . S
C463 C462 1.399 . S
C463 C464 1.376 . S
C464 H451 0.930 . S
C464 C463 1.376 . S
C464 C465 1.388 . S
C465 H452 0.930 . S
C465 C464 1.388 . S
C465 C466 1.390 . S
C466 C465 1.390 . S
C466 C467 1.394 . S
C466 C472 1.465 1_545 S
C467 C462 1.399 . S
C467 C466 1.394 . S
C467 C468 1.516 1_545 S
C468 C467 1.516 1_565 S
C468 C469 1.502 . S
C468 C470 1.561 . S
C468 C471 1.526 . S
C469 H453 0.959 . S
C469 H454 0.959 . S
C469 H455 0.961 1_565 S
C469 C468 1.502 . S
C470 H456 0.960 1_565 S
C470 H457 0.961 . S
C470 H458 0.959 . S
C470 C468 1.561 . S
C471 C468 1.526 . S
C471 C472 1.396 . S
C471 C476 1.390 . S
C472 C466 1.465 1_565 S
C472 C471 1.396 . S
C472 C473 1.399 . S
C473 H459 0.929 . S
C473 C472 1.399 . S
C473 C474 1.385 . S
C474 H460 0.931 . S
C474 C473 1.385 . S
C474 C475 1.389 . S
C475 C474 1.389 . S
C475 C476 1.387 . S
C476 H461 0.930 . S
C476 C471 1.390 . S
C476 C475 1.387 . S
H477 C489 0.930 . S
H478 C491 0.930 . S
H479 C492 0.930 . S
H480 C496 0.959 . S
H481 C496 0.959 1_455 S
H482 C496 0.961 . S
H483 C497 0.978 . S
H484 C497 0.946 1_455 S
H485 C497 0.955 1_455 S
H486 C500 0.929 . S
H487 C501 0.931 . S
H488 C503 0.930 . S
C489 H477 0.930 . S
C489 C490 1.399 . S
C489 C494 1.399 . S
C490 C489 1.399 . S
C490 C491 1.376 . S
C491 H478 0.930 . S
C491 C490 1.376 . S
C491 C492 1.388 . S
C492 H479 0.930 . S
C492 C491 1.388 . S
C492 C493 1.390 . S
C493 C492 1.390 . S
C493 C494 1.394 . S
C493 C499 1.465 1_655 S
C494 C489 1.399 . S
C494 C493 1.394 . S
C494 C495 1.516 . S
C495 C494 1.516 . S
C495 C496 1.502 . S
C495 C497 1.562 . S
C495 C498 1.526 1_655 S
C496 H480 0.959 . S
C496 H481 0.959 1_655 S
C496 H482 0.961 . S
C496 C495 1.502 . S
C497 H483 0.978 . S
C497 H484 0.946 1_655 S
C497 H485 0.955 1_655 S
C497 C495 1.562 . S
C498 C495 1.526 1_455 S
C498 C499 1.396 . S
C498 C503 1.390 . S
C499 C493 1.465 1_455 S
C499 C498 1.396 . S
C499 C500 1.399 . S
C500 H486 0.929 . S
C500 C499 1.399 . S
C500 C501 1.385 . S
C501 H487 0.931 . S
C501 C500 1.385 . S
C501 C502 1.389 . S
C502 C501 1.389 . S
C502 C503 1.387 . S
C503 H488 0.930 . S
C503 C498 1.390 . S
C503 C502 1.387 . S
H504 C516 0.930 . S
H505 C518 0.930 . S
H506 C519 0.930 . S
H507 C523 0.959 . S
H508 C523 0.959 . S
H509 C523 0.961 . S
H510 C524 0.960 . S
H511 C524 0.961 . S
H512 C524 0.959 . S
H513 C527 0.929 . S
H514 C528 0.931 . S
H515 C530 0.930 . S
C516 H504 0.930 . S
C516 C517 1.399 . S
C516 C521 1.399 . S
C517 C516 1.399 . S
C517 C518 1.376 . S
C518 H505 0.930 . S
C518 C517 1.376 . S
C518 C519 1.388 . S
C519 H506 0.930 . S
C519 C518 1.388 . S
C519 C520 1.390 . S
C520 C519 1.390 . S
C520 C521 1.394 . S
C520 C526 1.465 . S
C521 C516 1.399 . S
C521 C520 1.394 . S
C521 C522 1.516 . S
C522 C521 1.516 . S
C522 C523 1.502 . S
C522 C524 1.561 . S
C522 C525 1.526 . S
C523 H507 0.959 . S
C523 H508 0.959 . S
C523 H509 0.961 . S
C523 C522 1.502 . S
C524 H510 0.960 . S
C524 H511 0.961 . S
C524 H512 0.959 . S
C524 C522 1.561 . S
C525 C522 1.526 . S
C525 C526 1.396 . S
C525 C530 1.390 . S
C526 C520 1.465 . S
C526 C525 1.396 . S
C526 C527 1.399 . S
C527 H513 0.929 . S
C527 C526 1.399 . S
C527 C528 1.385 . S
C528 H514 0.931 . S
C528 C527 1.385 . S
C528 C529 1.389 . S
C529 C528 1.389 . S
C529 C530 1.387 . S
C530 H515 0.930 . S
C530 C525 1.390 . S
C530 C529 1.387 . S
H531 C543 0.930 . S
H532 C545 0.930 . S
H533 C546 0.930 . S
H534 C550 0.959 . S
H535 C550 0.959 . S
H536 C550 0.961 . S
H537 C551 0.960 . S
H538 C551 0.961 . S
H539 C551 0.959 . S
H540 C554 0.929 . S
H541 C555 0.931 . S
H542 C557 0.930 . S
C543 H531 0.930 . S
C543 C544 1.399 . S
C543 C548 1.399 . S
C544 C543 1.399 . S
C544 C545 1.376 . S
C545 H532 0.930 . S
C545 C544 1.376 . S
C545 C546 1.388 . S
C546 H533 0.930 . S
C546 C545 1.388 . S
C546 C547 1.390 . S
C547 C546 1.390 . S
C547 C548 1.394 . S
C547 C553 1.465 . S
C548 C543 1.399 . S
C548 C547 1.394 . S
C548 C549 1.516 . S
C549 C548 1.516 . S
C549 C550 1.502 . S
C549 C551 1.561 . S
C549 C552 1.526 . S
C550 H534 0.959 . S
C550 H535 0.959 . S
C550 H536 0.961 . S
C550 C549 1.502 . S
C551 H537 0.960 . S
C551 H538 0.961 . S
C551 H539 0.959 . S
C551 C549 1.561 . S
C552 C549 1.526 . S
C552 C553 1.396 . S
C552 C557 1.390 . S
C553 C547 1.465 . S
C553 C552 1.396 . S
C553 C554 1.399 . S
C554 H540 0.929 . S
C554 C553 1.399 . S
C554 C555 1.385 . S
C555 H541 0.931 . S
C555 C554 1.385 . S
C555 C556 1.389 . S
C556 C555 1.389 . S
C556 C557 1.387 . S
C557 H542 0.930 . S
C557 C552 1.390 . S
C557 C556 1.387 . S
H558 C570 0.930 . S
H559 C572 0.930 . S
H560 C573 0.930 . S
H561 C577 0.959 . S
H562 C577 0.959 . S
H563 C577 0.961 . S
H564 C578 0.960 . S
H565 C578 0.961 . S
H566 C578 0.959 . S
H567 C581 0.929 . S
H568 C582 0.931 . S
H569 C584 0.930 . S
C570 H558 0.930 . S
C570 C571 1.399 . S
C570 C575 1.399 . S
C571 C570 1.399 . S
C571 C572 1.376 . S
C572 H559 0.930 . S
C572 C571 1.376 . S
C572 C573 1.388 . S
C573 H560 0.930 . S
C573 C572 1.388 . S
C573 C574 1.390 . S
C574 C573 1.390 . S
C574 C575 1.394 . S
C574 C580 1.465 . S
C575 C570 1.399 . S
C575 C574 1.394 . S
C575 C576 1.516 . S
C576 C575 1.516 . S
C576 C577 1.502 . S
C576 C578 1.561 . S
C576 C579 1.526 . S
C577 H561 0.959 . S
C577 H562 0.959 . S
C577 H563 0.961 . S
C577 C576 1.502 . S
C578 H564 0.960 . S
C578 H565 0.961 . S
C578 H566 0.959 . S
C578 C576 1.561 . S
C579 C576 1.526 . S
C579 C580 1.396 . S
C579 C584 1.390 . S
C580 C574 1.465 . S
C580 C579 1.396 . S
C580 C581 1.399 . S
C581 H567 0.929 . S
C581 C580 1.399 . S
C581 C582 1.385 . S
C582 H568 0.931 . S
C582 C581 1.385 . S
C582 C583 1.389 . S
C583 C582 1.389 . S
C583 C584 1.387 . S
C584 H569 0.930 . S
C584 C579 1.390 . S
C584 C583 1.387 . S
H585 C597 0.930 . S
H586 C599 0.930 . S
H587 C600 0.930 . S
H588 C604 0.959 . S
H589 C604 0.959 . S
H590 C604 0.961 . S
H591 C605 0.960 . S
H592 C605 0.961 . S
H593 C605 0.959 . S
H594 C608 0.929 . S
H595 C609 0.931 . S
H596 C611 0.930 . S
C597 H585 0.930 . S
C597 C598 1.399 . S
C597 C602 1.399 . S
C598 C597 1.399 . S
C598 C599 1.376 . S
C599 H586 0.930 . S
C599 C598 1.376 . S
C599 C600 1.388 . S
C600 H587 0.930 . S
C600 C599 1.388 . S
C600 C601 1.390 . S
C601 C600 1.390 . S
C601 C602 1.394 . S
C601 C607 1.465 . S
C602 C597 1.399 . S
C602 C601 1.394 . S
C602 C603 1.516 . S
C603 C602 1.516 . S
C603 C604 1.502 . S
C603 C605 1.561 . S
C603 C606 1.526 . S
C604 H588 0.959 . S
C604 H589 0.959 . S
C604 H590 0.961 . S
C604 C603 1.502 . S
C605 H591 0.960 . S
C605 H592 0.961 . S
C605 H593 0.959 . S
C605 C603 1.561 . S
C606 C603 1.526 . S
C606 C607 1.396 . S
C606 C611 1.390 . S
C607 C601 1.465 . S
C607 C606 1.396 . S
C607 C608 1.399 . S
C608 H594 0.929 . S
C608 C607 1.399 . S
C608 C609 1.385 . S
C609 H595 0.931 . S
C609 C608 1.385 . S
C609 C610 1.389 . S
C610 C609 1.389 . S
C610 C611 1.387 . S
C611 H596 0.930 . S
C611 C606 1.390 . S
C611 C610 1.387 . S
H612 C624 0.930 . S
H613 C626 0.930 . S
H614 C627 0.930 . S
H615 C631 0.959 . S
H616 C631 0.959 . S
H617 C631 0.961 . S
H618 C632 0.960 . S
H619 C632 0.961 . S
H620 C632 0.959 . S
H621 C635 0.929 . S
H622 C636 0.931 . S
H623 C638 0.930 . S
C624 H612 0.930 . S
C624 C625 1.399 . S
C624 C629 1.399 . S
C625 C624 1.399 . S
C625 C626 1.376 . S
C626 H613 0.930 . S
C626 C625 1.376 . S
C626 C627 1.388 . S
C627 H614 0.930 . S
C627 C626 1.388 . S
C627 C628 1.390 . S
C628 C627 1.390 . S
C628 C629 1.394 . S
C628 C634 1.465 . S
C629 C624 1.399 . S
C629 C628 1.394 . S
C629 C630 1.516 . S
C630 C629 1.516 . S
C630 C631 1.502 . S
C630 C632 1.561 . S
C630 C633 1.526 . S
C631 H615 0.959 . S
C631 H616 0.959 . S
C631 H617 0.961 . S
C631 C630 1.502 . S
C632 H618 0.960 . S
C632 H619 0.961 . S
C632 H620 0.959 . S
C632 C630 1.561 . S
C633 C630 1.526 . S
C633 C634 1.396 . S
C633 C638 1.390 . S
C634 C628 1.465 . S
C634 C633 1.396 . S
C634 C635 1.399 . S
C635 H621 0.929 . S
C635 C634 1.399 . S
C635 C636 1.385 . S
C636 H622 0.931 . S
C636 C635 1.385 . S
C636 C637 1.389 . S
C637 C636 1.389 . S
C637 C638 1.387 . S
C638 H623 0.930 . S
C638 C633 1.390 . S
C638 C637 1.387 . S
H639 C651 0.930 . S
H640 C653 0.930 . S
H641 C654 0.930 . S
H642 C658 0.959 . S
H643 C658 0.959 . S
H644 C658 0.961 . S
H645 C659 0.960 . S
H646 C659 0.961 . S
H647 C659 0.959 . S
H648 C662 0.929 . S
H649 C663 0.931 . S
H650 C665 0.930 . S
C651 H639 0.930 . S
C651 C652 1.399 . S
C651 C656 1.399 . S
C652 C651 1.399 . S
C652 C653 1.376 . S
C653 H640 0.930 . S
C653 C652 1.376 . S
C653 C654 1.388 . S
C654 H641 0.930 . S
C654 C653 1.388 . S
C654 C655 1.390 . S
C655 C654 1.390 . S
C655 C656 1.394 . S
C655 C661 1.465 . S
C656 C651 1.399 . S
C656 C655 1.394 . S
C656 C657 1.516 . S
C657 C656 1.516 . S
C657 C658 1.502 . S
C657 C659 1.561 . S
C657 C660 1.526 . S
C658 H642 0.959 . S
C658 H643 0.959 . S
C658 H644 0.961 . S
C658 C657 1.502 . S
C659 H645 0.960 . S
C659 H646 0.961 . S
C659 H647 0.959 . S
C659 C657 1.561 . S
C660 C657 1.526 . S
C660 C661 1.396 . S
C660 C665 1.390 . S
C661 C655 1.465 . S
C661 C660 1.396 . S
C661 C662 1.399 . S
C662 H648 0.929 . S
C662 C661 1.399 . S
C662 C663 1.385 . S
C663 H649 0.931 . S
C663 C662 1.385 . S
C663 C664 1.389 . S
C664 C663 1.389 . S
C664 C665 1.387 . S
C665 H650 0.930 . S
C665 C660 1.390 . S
C665 C664 1.387 . S
H666 C678 0.930 . S
H667 C680 0.930 . S
H668 C681 0.930 . S
H669 C685 0.959 . S
H670 C685 0.959 . S
H671 C685 0.961 . S
H672 C686 0.960 . S
H673 C686 0.961 . S
H674 C686 0.959 . S
H675 C689 0.929 . S
H676 C690 0.931 . S
H677 C692 0.930 . S
C678 H666 0.930 . S
C678 C679 1.399 . S
C678 C683 1.399 . S
C679 C678 1.399 . S
C679 C680 1.376 . S
C680 H667 0.930 . S
C680 C679 1.376 . S
C680 C681 1.388 . S
C681 H668 0.930 . S
C681 C680 1.388 . S
C681 C682 1.390 . S
C682 C681 1.390 . S
C682 C683 1.394 . S
C682 C688 1.465 . S
C683 C678 1.399 . S
C683 C682 1.394 . S
C683 C684 1.516 . S
C684 C683 1.516 . S
C684 C685 1.502 . S
C684 C686 1.561 . S
C684 C687 1.526 . S
C685 H669 0.959 . S
C685 H670 0.959 . S
C685 H671 0.961 . S
C685 C684 1.502 . S
C686 H672 0.960 . S
C686 H673 0.961 . S
C686 H674 0.959 . S
C686 C684 1.561 . S
C687 C684 1.526 . S
C687 C688 1.396 . S
C687 C692 1.390 . S
C688 C682 1.465 . S
C688 C687 1.396 . S
C688 C689 1.399 . S
C689 H675 0.929 . S
C689 C688 1.399 . S
C689 C690 1.385 . S
C690 H676 0.931 . S
C690 C689 1.385 . S
C690 C691 1.389 . S
C691 C690 1.389 . S
C691 C692 1.387 . S
C692 H677 0.930 . S
C692 C687 1.390 . S
C692 C691 1.387 . S
H693 C705 0.930 . S
H694 C707 0.930 . S
H695 C708 0.930 . S
H696 C712 0.959 . S
H697 C712 0.959 . S
H698 C712 0.961 . S
H699 C713 0.960 . S
H700 C713 0.961 . S
H701 C713 0.959 . S
H702 C716 0.929 . S
H703 C717 0.931 . S
H704 C719 0.930 . S
C705 H693 0.930 . S
C705 C706 1.399 . S
C705 C710 1.399 . S
C706 C705 1.399 . S
C706 C707 1.376 . S
C707 H694 0.930 . S
C707 C706 1.376 . S
C707 C708 1.388 . S
C708 H695 0.930 . S
C708 C707 1.388 . S
C708 C709 1.390 . S
C709 C708 1.390 . S
C709 C710 1.394 . S
C709 C715 1.465 . S
C710 C705 1.399 . S
C710 C709 1.394 . S
C710 C711 1.516 . S
C711 C710 1.516 . S
C711 C712 1.502 . S
C711 C713 1.561 . S
C711 C714 1.526 . S
C712 H696 0.959 . S
C712 H697 0.959 . S
C712 H698 0.961 . S
C712 C711 1.502 . S
C713 H699 0.960 . S
C713 H700 0.961 . S
C713 H701 0.959 . S
C713 C711 1.561 . S
C714 C711 1.526 . S
C714 C715 1.396 . S
C714 C719 1.390 . S
C715 C709 1.465 . S
C715 C714 1.396 . S
C715 C716 1.399 . S
C716 H702 0.929 . S
C716 C715 1.399 . S
C716 C717 1.385 . S
C717 H703 0.931 . S
C717 C716 1.385 . S
C717 C718 1.389 . S
C718 C717 1.389 . S
C718 C719 1.387 . S
C719 H704 0.930 . S
C719 C714 1.390 . S
C719 C718 1.387 . S
C301 C3 1.489 . S
C313 C111 1.518 . S
C328 C2 1.506 . S
C340 C38 1.507 1_554 S
C355 C39 1.509 . S
C367 C75 1.490 . S
C382 C110 1.511 . S
C394 C74 1.512 . S
C409 C147 1.489 . S
C421 C255 1.518 . S
C436 C182 1.513 . S
C448 C146 1.513 . S
C463 C219 1.492 . S
C475 C183 1.516 . S
C490 C254 1.508 . S
C502 C218 1.509 . S
C517 C230 1.443 . S
C529 C4 1.461 . S
C544 C50 1.443 . S
C556 C256 1.461 . S
C571 C158 1.360 . S
C583 C76 1.471 . S
C598 C184 1.468 . S
C610 C122 1.418 . S
C625 C194 1.361 . S
C637 C112 1.471 . S
C652 C14 1.391 . S
C664 C220 1.471 . S
C679 C40 1.470 . S
C691 C266 1.361 . S
C706 C86 1.419 . S
C718 C148 1.468 . S
