# Generated by pormake.
# Topology fnu, (5)-cn, num edge types: 1
# Building blocks:
#     Node 0, Type 0, BuildingBlock: XOMCOT_clean_sbu_0, # of connection points: 5
#     Node 1, Type 0, BuildingBlock: XOMCOT_clean_sbu_0, # of connection points: 5
#     Node 2, Type 0, BuildingBlock: XOMCOT_clean_sbu_0, # of connection points: 5
#     Node 3, Type 0, BuildingBlock: XOMCOT_clean_sbu_0, # of connection points: 5
#     Node 4, Type 0, BuildingBlock: XOMCOT_clean_sbu_0, # of connection points: 5
#     Node 5, Type 0, BuildingBlock: XOMCOT_clean_sbu_0, # of connection points: 5
#     Edge 6, Type (0, 0), BuildingBlock: XUDNAN_clean_linker_2, # of connection points: 2
#     Edge 7, Type (0, 0), BuildingBlock: XUDNAN_clean_linker_2, # of connection points: 2
#     Edge 8, Type (0, 0), BuildingBlock: XUDNAN_clean_linker_2, # of connection points: 2
#     Edge 9, Type (0, 0), BuildingBlock: XUDNAN_clean_linker_2, # of connection points: 2
#     Edge 10, Type (0, 0), BuildingBlock: XUDNAN_clean_linker_2, # of connection points: 2
#     Edge 11, Type (0, 0), BuildingBlock: XUDNAN_clean_linker_2, # of connection points: 2
#     Edge 12, Type (0, 0), BuildingBlock: XUDNAN_clean_linker_2, # of connection points: 2
#     Edge 13, Type (0, 0), BuildingBlock: XUDNAN_clean_linker_2, # of connection points: 2
#     Edge 14, Type (0, 0), BuildingBlock: XUDNAN_clean_linker_2, # of connection points: 2
#     Edge 15, Type (0, 0), BuildingBlock: XUDNAN_clean_linker_2, # of connection points: 2
#     Edge 16, Type (0, 0), BuildingBlock: XUDNAN_clean_linker_2, # of connection points: 2
#     Edge 17, Type (0, 0), BuildingBlock: XUDNAN_clean_linker_2, # of connection points: 2
#     Edge 18, Type (0, 0), BuildingBlock: XUDNAN_clean_linker_2, # of connection points: 2
#     Edge 19, Type (0, 0), BuildingBlock: XUDNAN_clean_linker_2, # of connection points: 2
#     Edge 20, Type (0, 0), BuildingBlock: XUDNAN_clean_linker_2, # of connection points: 2
# Relax obj value: 0.175
# Max RMSD: 0.131
# Mean RMSD: 0.131
data_MOF--net-fnu--node1-XOMCOT_clean_sbu_0--edge1-XUDNAN_clean_linker_2
_symmetry_space_group_name_H-M    P1
_symmetry_Int_Tables_number       1
_symmetry_cell_setting            triclinic
loop_
_symmetry_equiv_pos_as_xyz
'x, y, z'
_cell_length_a     25.883829
_cell_length_b     28.319485
_cell_length_c     33.401334
_cell_angle_alpha  89.859959
_cell_angle_beta   98.187569
_cell_angle_gamma 122.84608
loop_
_atom_site_label
_atom_site_type_symbol
_atom_site_fract_x
_atom_site_fract_y
_atom_site_fract_z
_atom_type_partial_charge
Co0 Co 0.09895 0.05964 0.25483 0.0
C1 C 0.09574 1.02858 0.33906 0.0
C2 C 0.18908 0.09249 0.33179 0.0
C3 C 0.18857 0.08276 0.37227 0.0
N4 N 0.13075 0.05859 0.31093 0.0
N5 N 0.12979 0.0427 0.37686 0.0
H6 H 1.04571 0.99895 0.33221 0.0
H7 H 0.22922 0.12351 0.31921 0.0
C8 C 0.22945 0.13494 0.23917 0.0
O9 O 0.22906 0.17617 0.25667 0.0
N10 N 0.06472 0.0601 0.19955 0.0
C11 C 1.00333 1.03238 0.18417 0.0
C12 C 0.99568 0.05285 0.14825 0.0
C13 C 0.09354 0.09764 0.17269 0.0
N14 N 1.05235 0.0939 0.14091 0.0
C15 C 1.00555 0.9401 0.23968 0.0
C16 C 0.08376 0.90848 0.22113 0.0
C17 C 1.01897 0.8691 0.2112 0.0
C18 C 0.97991 0.88515 0.22247 0.0
C19 C 0.10731 0.96331 0.23748 0.0
N20 N 0.06813 0.97971 0.24409 0.0
H21 H 0.97444 0.95139 0.24767 0.0
H22 H 0.15723 0.99246 0.24386 0.0
H23 H 0.96575 1.00236 0.1992 0.0
H24 H 0.14327 0.12803 0.17689 0.0
O25 O 1.02613 0.05348 0.27136 0.0
O26 O 0.1146 0.1334 0.26687 0.0
O27 O 0.18161 0.08422 0.2368 0.0
C28 C 1.05732 0.1083 0.27267 0.0
H29 H 0.22837 0.10411 0.39651 0.0
H30 H 0.95134 0.03988 0.12994 0.0
H31 H 0.11648 0.89769 0.21557 0.0
H32 H 0.92968 0.85665 0.21649 0.0
Co33 Co 0.06822 1.03199 0.77176 0.0
C34 C 1.06228 1.0053 0.68414 0.0
C35 C 0.97142 0.96507 0.70098 0.0
C36 C 0.96437 0.95173 0.66022 0.0
N37 N 1.03274 0.99823 0.71622 0.0
N38 N 1.02133 0.97698 0.64949 0.0
H39 H 0.11246 1.03066 0.68607 0.0
H40 H 0.93389 0.9524 0.71783 0.0
C41 C 0.96985 0.95914 0.82409 0.0
O42 O 1.01354 0.97259 0.85554 0.0
N43 N 0.10516 0.06826 0.82653 0.0
C44 C 0.16487 0.09095 0.84466 0.0
C45 C 0.1776 0.12546 0.87827 0.0
C46 C 0.0833 0.09117 0.84895 0.0
N47 N 0.12637 0.1257 0.88089 0.0
C48 C 0.15978 1.00211 0.78268 0.0
C49 C 0.08238 0.89462 0.80451 0.0
C50 C 0.14713 0.9185 0.81237 0.0
C51 C 0.18561 0.97223 0.79915 0.0
C52 C 1.05886 0.92651 0.7888 0.0
N53 N 0.09804 0.98148 0.7815 0.0
H54 H 0.19049 0.04371 0.77347 0.0
H55 H 1.00904 0.9067 0.78332 0.0
H56 H 0.19895 0.08627 0.83356 0.0
H57 H 1.03729 0.08385 0.84135 0.0
O58 O 0.14038 0.09761 0.75436 0.0
O59 O 1.05178 0.08955 0.75968 0.0
O60 O 0.98435 0.97624 0.78934 0.0
C61 C 0.10886 0.12133 0.75334 0.0
H62 H 0.92039 0.92672 0.63972 0.0
H63 H 0.22119 0.14829 0.89935 0.0
H64 H 1.04977 0.85185 0.81112 0.0
H65 H 0.23567 0.99258 0.80317 0.0
Co66 Co 0.74416 0.39245 0.57673 0.0
C67 C 0.74954 0.39584 0.66647 0.0
C68 C 0.82132 0.38786 0.64919 0.0
C69 C 0.82448 0.38624 0.69072 0.0
N70 N 0.77397 0.39345 0.63384 0.0
N71 N 0.77946 0.39146 0.70145 0.0
H72 H 0.70978 0.39939 0.66489 0.0
H73 H 0.85147 0.38478 0.63162 0.0
C74 C 0.84799 0.41849 0.5305 0.0
O75 O 0.80558 0.38154 0.50091 0.0
N76 N 0.71298 0.39194 0.5204 0.0
C77 C 0.65569 0.35447 0.4992 0.0
C78 C 0.64684 0.37669 0.46435 0.0
C79 C 0.73733 0.43703 0.49847 0.0
N80 N 0.69807 0.42868 0.4641 0.0
C81 C 0.6572 0.27202 0.56489 0.0
C82 C 0.73912 0.24378 0.54869 0.0
C83 C 0.67483 0.2025 0.5394 0.0
C84 C 0.63395 0.2169 0.54959 0.0
C85 C 0.76019 0.29873 0.56327 0.0
N86 N 0.71899 0.31354 0.56797 0.0
H87 H 0.62436 0.28194 0.57152 0.0
H88 H 0.80972 0.32911 0.56971 0.0
H89 H 0.62063 0.31505 0.50886 0.0
H90 H 0.78194 0.47602 0.50835 0.0
O91 O 0.66716 0.38076 0.58938 0.0
O92 O 0.7531 0.4641 0.58644 0.0
O93 O 0.83168 0.42484 0.56365 0.0
C94 C 0.69441 0.43527 0.58983 0.0
H95 H 0.85769 0.38213 0.71148 0.0
H96 H 0.60579 0.35608 0.441 0.0
H97 H 0.7732 0.23428 0.54402 0.0
H98 H 0.58396 0.18698 0.54397 0.0
Co99 Co 0.74837 0.38344 0.10796 0.0
C100 C 0.73413 0.38123 0.0176 0.0
C101 C 0.68957 0.2981 0.03791 0.0
C102 C 0.68482 0.2935 0.99625 0.0
N103 N 0.72091 0.35314 0.05139 0.0
N104 N 0.71275 0.34579 0.9836 0.0
H105 H 0.76076 0.42667 0.0177 0.0
H106 H 0.67268 0.26366 0.05714 0.0
C107 C 0.64111 0.31221 0.15409 0.0
O108 O 0.68142 0.32818 0.18786 0.0
N109 N 0.77803 0.41543 0.16378 0.0
C110 C 0.82777 0.42293 0.18914 0.0
C111 C 0.83744 0.45496 0.22362 0.0
C112 C 0.75951 0.4444 0.18262 0.0
N113 N 0.79449 0.46861 0.21946 0.0
C114 C 0.83676 0.35193 0.11132 0.0
C115 C 0.77853 0.2596 0.15558 0.0
C116 C 0.84107 0.2829 0.15218 0.0
C117 C 0.86914 0.32799 0.12806 0.0
C118 C 0.74797 0.28533 0.13871 0.0
N119 N 0.7786 0.33344 0.11928 0.0
H120 H 0.86053 0.388 0.09425 0.0
H121 H 0.70053 0.2669 0.14265 0.0
H122 H 0.85588 0.40715 0.18318 0.0
H123 H 0.72072 0.44711 0.16937 0.0
O124 O 0.82425 0.44963 0.09546 0.0
O125 O 0.73591 0.44419 0.09578 0.0
O126 O 0.66008 0.32562 0.11971 0.0
C127 C 0.79502 0.47535 0.09344 0.0
H128 H 0.66276 0.25475 0.97675 0.0
H129 H 0.87262 0.46586 0.25001 0.0
H130 H 0.75452 0.22385 0.17313 0.0
H131 H 0.91685 0.34625 0.12359 0.0
Co132 Co 0.42099 0.70422 0.91316 0.0
C133 C 0.43117 0.69953 1.00333 0.0
C134 C 0.49953 0.69234 0.97946 0.0
C135 C 0.50494 0.68583 0.0203 0.0
N136 N 0.45373 0.70149 0.96867 0.0
N137 N 0.46166 0.68985 0.03542 0.0
H138 H 0.39143 0.70233 1.00475 0.0
H139 H 0.52575 0.68828 0.95881 0.0
C140 C 0.55589 0.77792 0.90827 0.0
O141 O 0.55934 0.81061 0.93776 0.0
N142 N 0.38715 0.70548 0.85855 0.0
C143 C 0.32779 0.66954 0.84037 0.0
C144 C 0.31732 0.69108 0.8056 0.0
C145 C 0.41205 0.74843 0.83499 0.0
N146 N 0.37032 0.7409 0.80216 0.0
C147 C 0.34231 0.58463 0.91667 0.0
C148 C 0.38293 0.55465 0.85494 0.0
C149 C 0.32926 0.51278 0.86911 0.0
C150 C 0.30976 0.52803 0.90101 0.0
C151 C 0.41316 0.61091 0.87064 0.0
N152 N 0.3919 0.62553 0.90049 0.0
H153 H 0.32525 0.59618 0.94005 0.0
H154 H 0.45091 0.64281 0.85656 0.0
H155 H 0.29362 0.63175 0.85263 0.0
H156 H 0.45918 0.78492 0.84273 0.0
O157 O 0.34683 0.6946 0.92948 0.0
O158 O 0.43359 0.77689 0.92587 0.0
O159 O 0.50397 0.73157 0.89549 0.0
C160 C 0.3754 0.74929 0.93052 0.0
H161 H 0.5377 0.67765 0.03729 0.0
H162 H 0.27332 0.67158 0.78514 0.0
H163 H 0.39874 0.54461 0.82988 0.0
H164 H 0.26821 0.4968 0.91259 0.0
Co165 Co 0.38988 0.71689 0.43046 0.0
C166 C 0.38213 0.68219 0.34518 0.0
C167 C 0.31118 0.6975 0.35198 0.0
C168 C 0.31 0.68926 0.31115 0.0
N169 N 0.35586 0.69234 0.37339 0.0
N170 N 0.35489 0.67996 0.30684 0.0
H171 H 0.42324 0.68068 0.35245 0.0
H172 H 0.2834 0.7092 0.36516 0.0
C173 C 0.25206 0.6241 0.43139 0.0
O174 O 0.24603 0.60003 0.39598 0.0
N175 N 0.42554 0.74391 0.48651 0.0
C176 C 0.48488 0.76424 0.50401 0.0
C177 C 0.49686 0.79306 0.54067 0.0
C178 C 0.40254 0.76122 0.5124 0.0
N179 N 0.4452 0.79146 0.54566 0.0
C180 C 0.47028 0.67577 0.43354 0.0
C181 C 0.39661 0.57778 0.46859 0.0
C182 C 0.45988 0.59741 0.47049 0.0
C183 C 0.49599 0.64622 0.45084 0.0
C184 C 0.37373 0.61 0.45285 0.0
N185 N 0.41102 0.65986 0.437 0.0
H186 H 0.5004 0.71456 0.42067 0.0
H187 H 0.32684 0.59523 0.45595 0.0
H188 H 0.51865 0.76169 0.49022 0.0
H189 H 0.35682 0.75468 0.50589 0.0
O190 O 0.4668 0.77965 0.41582 0.0
O191 O 0.38537 0.78244 0.42441 0.0
O192 O 0.30508 0.66688 0.44801 0.0
C193 C 0.44289 0.80959 0.41857 0.0
H194 H 0.27965 0.6917 0.28656 0.0
H195 H 0.54038 0.81391 0.56185 0.0
H196 H 0.3647 0.53879 0.48069 0.0
H197 H 0.5449 0.66402 0.45062 0.0
H198 H 0.3501 0.22272 0.26351 0.0
H199 H 0.23437 0.0799 0.17318 0.0
H200 H 0.32595 0.11024 0.13942 0.0
H201 H 0.44437 0.32282 0.19876 0.0
H202 H 0.51505 0.35564 0.23567 0.0
H203 H 0.44057 0.32238 0.25225 0.0
H204 H 0.46582 0.25909 0.29553 0.0
H205 H 0.54064 0.29269 0.27941 0.0
H206 H 0.48794 0.21703 0.27177 0.0
H207 H 0.43206 0.16242 0.1129 0.0
H208 H 0.54259 0.22238 0.10244 0.0
H209 H 0.58755 0.32548 0.21344 0.0
C210 C 0.34401 0.19754 0.23675 0.0
C211 C 0.28494 0.14898 0.22091 0.0
C212 C 0.27921 0.11703 0.18602 0.0
C213 C 0.33094 0.13424 0.1665 0.0
C214 C 0.38843 0.183 0.18261 0.0
C215 C 0.39523 0.21345 0.21749 0.0
C216 C 0.46193 0.26322 0.22972 0.0
C217 C 0.46566 0.31932 0.22904 0.0
C218 C 0.49078 0.25764 0.27158 0.0
C219 C 0.49183 0.25655 0.19621 0.0
C220 C 0.44883 0.21065 0.16883 0.0
C221 C 0.46603 0.19799 0.13451 0.0
C222 C 0.52877 0.23241 0.1286 0.0
C223 C 0.57369 0.27821 0.15728 0.0
C224 C 0.55442 0.29029 0.19123 0.0
H225 H 0.93819 0.07086 0.23603 0.0
H226 H 0.10975 0.2183 0.29837 0.0
H227 H 0.06922 0.27763 0.27776 0.0
H228 H 0.92531 0.13657 0.15159 0.0
H229 H 0.84153 0.10054 0.14275 0.0
H230 H 0.87796 0.06714 0.16815 0.0
H231 H 0.82247 0.05447 0.22967 0.0
H232 H 0.7845 0.08665 0.20421 0.0
H233 H 0.82976 0.11483 0.25437 0.0
H234 H 1.01724 0.32274 0.24301 0.0
H235 H 0.95323 0.35034 0.20072 0.0
H236 H 0.8144 0.17451 0.15953 0.0
C237 C 0.96592 0.11516 0.24691 0.0
C238 C 1.02658 0.13986 0.26971 0.0
C239 C 1.06274 0.19845 0.28167 0.0
C240 C 1.04021 0.2325 0.26987 0.0
C241 C 0.98144 0.2074 0.24589 0.0
C242 C 0.94434 0.14997 0.23489 0.0
C243 C 0.8855 0.13464 0.20585 0.0
C244 C 0.88242 0.10817 0.16466 0.0
C245 C 0.82709 0.09532 0.22466 0.0
C246 C 0.89565 0.19246 0.20198 0.0
C247 C 0.95142 0.23373 0.22533 0.0
C248 C 0.97309 0.29073 0.22506 0.0
C249 C 0.93665 0.30604 0.20066 0.0
C250 C 0.8789 0.26465 0.17682 0.0
C251 C 0.85804 0.20701 0.17775 0.0
H252 H 0.77037 0.54052 0.13684 0.0
H253 H 0.90245 0.55052 0.06514 0.0
H254 H 0.9717 0.65337 0.08483 0.0
H255 H 0.79697 0.68104 0.12197 0.0
H256 H 0.79134 0.69216 0.17387 0.0
H257 H 0.74836 0.62165 0.14904 0.0
H258 H 0.79921 0.59238 0.20701 0.0
H259 H 0.84431 0.66275 0.23189 0.0
H260 H 0.88297 0.62922 0.21881 0.0
H261 H 1.02872 0.75424 0.11525 0.0
H262 H 0.0707 0.84447 0.15448 0.0
H263 H 0.9066 0.76624 0.21304 0.0
C264 C 0.81286 0.56469 0.12416 0.0
C265 C 0.83036 0.53783 0.09853 0.0
C266 C 0.88763 0.57052 0.08405 0.0
C267 C 0.9273 0.62887 0.09526 0.0
C268 C 0.90961 0.65376 0.12162 0.0
C269 C 0.85377 0.62267 0.13598 0.0
C270 C 0.8485 0.65835 0.16701 0.0
C271 C 0.793 0.66362 0.15206 0.0
C272 C 0.84354 0.63426 0.20866 0.0
C273 C 0.91016 0.71437 0.16797 0.0
C274 C 0.9443 0.71092 0.14121 0.0
C275 C 1.0025 0.75724 0.1365 0.0
C276 C 1.02638 0.80842 0.15951 0.0
C277 C 0.99286 0.81328 0.18772 0.0
C278 C 0.93374 0.765 0.19176 0.0
H279 H 0.22983 0.20368 0.78636 0.0
H280 H 1.05353 0.17788 0.73065 0.0
H281 H 0.09319 0.2768 0.75186 0.0
H282 H 0.25022 0.28419 0.87224 0.0
H283 H 0.33364 0.33178 0.87724 0.0
H284 H 0.29561 0.2617 0.85263 0.0
H285 H 0.34365 0.30321 0.78815 0.0
H286 H 0.38253 0.37342 0.81288 0.0
H287 H 0.33225 0.35488 0.76444 0.0
H288 H 0.14508 0.37292 0.78751 0.0
H289 H 0.21172 0.46528 0.82815 0.0
H290 H 0.35677 0.43212 0.85967 0.0
C291 C 0.20076 0.2197 0.77696 0.0
C292 C 0.13896 0.18337 0.75602 0.0
C293 C 0.1013 0.20519 0.746 0.0
C294 C 0.12331 0.26126 0.75817 0.0
C295 C 0.18329 0.29526 0.78038 0.0
C296 C 0.22207 0.2758 0.78908 0.0
C297 C 0.28288 0.32008 0.81587 0.0
C298 C 0.29107 0.29811 0.85692 0.0
C299 C 0.33864 0.33903 0.79402 0.0
C300 C 0.2719 0.36711 0.82112 0.0
C301 C 0.21385 0.35154 0.80062 0.0
C302 C 0.19107 0.38598 0.80308 0.0
C303 C 0.22894 0.43811 0.82647 0.0
C304 C 0.28921 0.45571 0.84686 0.0
C305 C 0.31101 0.41975 0.84405 0.0
H306 H 0.67939 0.85642 0.93962 0.0
H307 H 0.5595 0.74042 0.83365 0.0
H308 H 0.65172 0.77356 0.80048 0.0
H309 H 0.78566 0.96983 0.8869 0.0
H310 H 0.85406 0.98991 0.92338 0.0
H311 H 0.77933 0.95721 0.93946 0.0
H312 H 0.79166 0.87913 0.9695 0.0
H313 H 0.86697 0.91149 0.95421 0.0
H314 H 0.80764 0.83857 0.93788 0.0
H315 H 0.75773 0.82435 0.77709 0.0
H316 H 0.86867 0.88162 0.76832 0.0
H317 H 0.9201 0.95928 0.8912 0.0
C318 C 0.6725 0.83777 0.90949 0.0
C319 C 0.61193 0.79578 0.88924 0.0
C320 C 0.60526 0.77239 0.84991 0.0
C321 C 0.65744 0.79115 0.83073 0.0
C322 C 0.7164 0.83287 0.85142 0.0
C323 C 0.72424 0.85533 0.89018 0.0
C324 C 0.79265 0.89907 0.90608 0.0
C325 C 0.80352 0.95745 0.91445 0.0
C326 C 0.8161 0.88097 0.94417 0.0
C327 C 0.82215 0.8978 0.87026 0.0
C328 C 0.77733 0.85993 0.83877 0.0
C329 C 0.79318 0.85356 0.80179 0.0
C330 C 0.8563 0.88639 0.79699 0.0
C331 C 0.90315 0.9244 0.82922 0.0
C332 C 0.8855 0.92984 0.8663 0.0
H333 H 0.25718 0.92393 0.80747 0.0
H334 H 0.09916 0.84607 0.87181 0.0
H335 H 0.14226 0.79808 0.91105 0.0
H336 H 0.27671 0.80767 0.80297 0.0
H337 H 0.36063 0.85279 0.81165 0.0
H338 H 0.31496 0.87842 0.78744 0.0
H339 H 0.37315 0.9634 0.84264 0.0
H340 H 0.41721 0.93622 0.86716 0.0
H341 H 0.37202 0.95038 0.89548 0.0
H342 H 0.20028 0.75415 0.94164 0.0
H343 H 0.27028 0.72053 0.9614 0.0
H344 H 0.39539 0.83416 0.88295 0.0
C345 C 0.2316 0.8973 0.82998 0.0
C346 C 0.17381 0.88868 0.83568 0.0
C347 C 0.14234 0.85259 0.8655 0.0
C348 C 0.16689 0.82544 0.88852 0.0
C349 C 0.22375 0.8351 0.88214 0.0
C350 C 0.25591 0.8704 0.85375 0.0
C351 C 0.3165 0.87399 0.85314 0.0
C352 C 0.31714 0.85186 0.8113 0.0
C353 C 0.37306 0.93461 0.86534 0.0
C354 C 0.31309 0.8349 0.88537 0.0
C355 C 0.25898 0.81255 0.90158 0.0
C356 C 0.24337 0.77222 0.92971 0.0
C357 C 0.28348 0.75353 0.94097 0.0
C358 C 0.33919 0.77597 0.92481 0.0
C359 C 0.35439 0.81783 0.89711 0.0
H360 H 0.8981 0.41263 0.46467 0.0
H361 H 0.94892 0.50414 0.58261 0.0
H362 H 1.05795 0.56515 0.57093 0.0
H363 H 1.04234 0.41703 0.46846 0.0
H364 H 1.04362 0.4251 0.415 0.0
H365 H 0.97026 0.3877 0.43329 0.0
H366 H 0.94162 0.45459 0.39945 0.0
H367 H 1.01485 0.49228 0.38116 0.0
H368 H 0.994 0.52987 0.41165 0.0
H369 H 0.16149 0.61897 0.54484 0.0
H370 H 0.25019 0.65929 0.50754 0.0
H371 H 0.13187 0.53186 0.40684 0.0
C372 C 0.93213 0.44515 0.48829 0.0
C373 C 0.91459 0.45334 0.52471 0.0
C374 C 0.96093 0.49672 0.55457 0.0
C375 C 1.02308 0.53169 0.54816 0.0
C376 C 1.03854 0.52272 0.5118 0.0
C377 C 0.99439 0.48023 0.48247 0.0
C378 C 1.02289 0.47958 0.4459 0.0
C379 C 1.01958 0.42405 0.44035 0.0
C380 C 0.99144 0.4897 0.40726 0.0
C381 C 0.08968 0.52909 0.45877 0.0
C382 C 0.09789 0.55326 0.49697 0.0
C383 C 0.15544 0.60013 0.51498 0.0
C384 C 0.20568 0.62285 0.49342 0.0
C385 C 0.19841 0.59895 0.45408 0.0
C386 C 0.13936 0.55123 0.4368 0.0
H387 H 0.71231 0.51846 0.54152 0.0
H388 H 0.58996 0.406 0.62168 0.0
H389 H 0.51943 0.4393 0.60272 0.0
H390 H 0.68734 0.63425 0.55397 0.0
H391 H 0.68782 0.64638 0.50098 0.0
H392 H 0.73293 0.62038 0.52584 0.0
H393 H 0.67742 0.53625 0.47139 0.0
H394 H 0.63052 0.56026 0.44649 0.0
H395 H 0.59345 0.49006 0.46295 0.0
H396 H 0.46176 0.48409 0.57351 0.0
H397 H 0.41703 0.53008 0.53416 0.0
H398 H 0.56962 0.60196 0.46472 0.0
C399 C 0.67178 0.50233 0.55617 0.0
C400 C 0.65738 0.46093 0.58406 0.0
C401 C 0.60237 0.43866 0.601 0.0
C402 C 0.56211 0.45726 0.59031 0.0
C403 C 0.57695 0.49725 0.56197 0.0
C404 C 0.63033 0.51925 0.54496 0.0
C405 C 0.63237 0.55721 0.51221 0.0
C406 C 0.68844 0.61817 0.52397 0.0
C407 C 0.63342 0.53453 0.47078 0.0
C408 C 0.57135 0.55256 0.51297 0.0
C409 C 0.54089 0.51886 0.5425 0.0
C410 C 0.48479 0.50982 0.54984 0.0
C411 C 0.4591 0.53575 0.52648 0.0
C412 C 0.48809 0.56931 0.49482 0.0
C413 C 0.54536 0.57735 0.48836 0.0
H414 H 0.42602 0.87531 0.46686 0.0
H415 H 0.55279 0.8831 0.39113 0.0
H416 H 0.62608 0.98528 0.41309 0.0
H417 H 0.45476 1.01495 0.45533 0.0
H418 H 0.45132 1.02578 0.50779 0.0
H419 H 0.40705 0.95546 0.48263 0.0
H420 H 0.45992 0.92461 0.53875 0.0
H421 H 0.50492 0.9949 0.56393 0.0
H422 H 0.54383 0.96237 0.54937 0.0
H423 H 0.68568 0.08688 0.44475 0.0
H424 H 0.72764 0.17767 0.48349 0.0
H425 H 0.56573 0.09901 0.54417 0.0
C426 C 0.46832 0.89884 0.45387 0.0
C427 C 0.48301 0.87178 0.4263 0.0
C428 C 0.54016 0.90343 0.41157 0.0
C429 C 0.58207 0.96131 0.42405 0.0
C430 C 0.56659 0.98645 0.45193 0.0
C431 C 0.51114 0.956 0.46679 0.0
C432 C 0.50733 0.99143 0.49872 0.0
C433 C 0.45183 0.99725 0.4853 0.0
C434 C 0.50381 0.96687 0.54014 0.0
C435 C 0.56896 0.04705 0.4992 0.0
C436 C 0.60235 0.04347 0.47189 0.0
C437 C 0.66009 0.08991 0.46647 0.0
C438 C 0.68392 0.14138 0.48912 0.0
C439 C 0.65063 0.14629 0.51748 0.0
C440 C 0.59252 0.09776 0.52261 0.0
H441 H 0.11569 0.06028 0.61389 0.0
H442 H 0.95345 0.88857 0.59238 0.0
H443 H 0.96585 0.88607 0.52077 0.0
H444 H 0.08434 0.10554 0.51959 0.0
H445 H 0.16457 0.14938 0.51259 0.0
H446 H 0.14595 0.13693 0.56306 0.0
H447 H 0.21765 0.09942 0.57868 0.0
H448 H 0.23679 0.11206 0.5283 0.0
H449 H 0.20554 0.04277 0.5457 0.0
H450 H 0.99125 0.90357 0.45052 0.0
H451 H 1.03099 0.93905 0.38672 0.0
H452 H 0.17744 0.09929 0.45266 0.0
C453 C 0.08365 1.02186 0.59426 0.0
C454 C 1.03344 0.9746 0.60882 0.0
C455 C 0.99181 0.92544 0.5819 0.0
C456 C 0.99862 0.92353 0.54116 0.0
C457 C 1.04752 0.9711 0.5275 0.0
C458 C 0.08967 1.01927 0.5532 0.0
C459 C 0.13669 0.06515 0.53014 0.0
C460 C 0.13261 0.11732 0.53143 0.0
C461 C 0.20311 0.08075 0.54669 0.0
C462 C 0.11401 1.0353 0.48756 0.0
C463 C 1.06249 0.98108 0.48679 0.0
C464 C 1.03187 0.94586 0.45079 0.0
C465 C 1.05452 0.96649 0.41461 0.0
C466 C 0.10747 1.02184 0.4145 0.0
C467 C 0.13754 0.05647 0.45169 0.0
H468 H 0.73816 0.29728 0.92595 0.0
H469 H 0.70511 0.42853 0.94854 0.0
H470 H 0.71661 0.45368 0.87777 0.0
H471 H 0.85696 0.37658 0.86456 0.0
H472 H 0.83329 0.31613 0.83084 0.0
H473 H 0.82005 0.3073 0.88261 0.0
H474 H 0.70232 0.23427 0.85741 0.0
H475 H 0.7152 0.24291 0.80556 0.0
H476 H 0.65872 0.25362 0.82215 0.0
H477 H 0.72778 0.4617 0.80335 0.0
H478 H 0.74782 0.45821 0.73337 0.0
H479 H 0.78083 0.32625 0.76083 0.0
C480 C 0.73293 0.33103 0.91582 0.0
C481 C 0.72021 0.36073 0.94253 0.0
C482 C 0.71496 0.40542 0.92852 0.0
C483 C 0.72114 0.41975 0.88838 0.0
C484 C 0.73355 0.38955 0.86276 0.0
C485 C 0.74021 0.34659 0.87609 0.0
C486 C 0.75611 0.3223 0.84305 0.0
C487 C 0.82043 0.33113 0.85605 0.0
C488 C 0.70504 0.25956 0.83136 0.0
C489 C 0.75709 0.35807 0.80894 0.0
C490 C 0.74313 0.39612 0.82073 0.0
C491 C 0.73923 0.43237 0.79395 0.0
C492 C 0.75037 0.42997 0.75426 0.0
C493 C 0.76627 0.39231 0.74188 0.0
C494 C 0.76961 0.35598 0.76971 0.0
H495 H 0.34249 0.72281 0.23523 0.0
H496 H 0.41031 0.62463 0.2929 0.0
H497 H 0.4434 0.61548 0.2291 0.0
H498 H 0.283 0.64487 0.13597 0.0
H499 H 0.30676 0.70669 0.10881 0.0
H500 H 0.28755 0.70492 0.15879 0.0
H501 H 0.39576 0.79638 0.18312 0.0
H502 H 0.41531 0.79846 0.13324 0.0
H503 H 0.46527 0.79892 0.17696 0.0
H504 H 0.46872 0.61663 0.15923 0.0
H505 H 0.48738 0.6297 0.0888 0.0
H506 H 0.40495 0.72889 0.07586 0.0
C507 C 0.36361 0.6988 0.23439 0.0
C508 C 0.37356 0.67421 0.26926 0.0
C509 C 0.40262 0.64419 0.26686 0.0
C510 C 0.42127 0.63852 0.23064 0.0
C511 C 0.41081 0.6633 0.19698 0.0
C512 C 0.38282 0.69298 0.19851 0.0
C513 C 0.37829 0.71656 0.15816 0.0
C514 C 0.30982 0.69176 0.13932 0.0
C515 C 0.41591 0.78143 0.16319 0.0
C516 C 0.40805 0.69539 0.13366 0.0
C517 C 0.42628 0.66467 0.15671 0.0
C518 C 0.45497 0.6409 0.141 0.0
C519 C 0.4658 0.649 0.10085 0.0
C520 C 0.44838 0.68094 0.0765 0.0
C521 C 0.41861 0.70403 0.09333 0.0
H522 H 0.97651 0.06285 0.06823 0.0
H523 H 0.159 0.19394 0.13225 0.0
H524 H 0.18749 0.23518 0.06781 0.0
H525 H 1.02119 1.03173 0.99529 0.0
H526 H 0.96098 1.01905 0.95405 0.0
H527 H 0.94517 1.01165 1.00479 0.0
H528 H 0.91316 0.08317 0.99808 0.0
H529 H 0.92835 0.0922 0.94661 0.0
H530 H 0.96588 0.15263 0.98331 0.0
H531 H 0.20608 0.24543 0.99745 0.0
H532 H 0.21424 0.2208 0.92906 0.0
H533 H 1.0195 0.08422 0.91004 0.0
C534 C 1.02132 0.10186 0.06926 0.0
C535 C 0.0655 0.12474 0.10539 0.0
C536 C 0.12448 0.17494 0.10493 0.0
C537 C 0.14074 0.1993 0.06847 0.0
C538 C 0.09714 0.17361 0.0329 0.0
C539 C 1.03807 0.12636 0.03318 0.0
C540 C 1.00415 0.09981 0.99068 0.0
C541 C 0.98169 0.03695 0.98599 0.0
C542 C 0.94965 0.10742 0.979 0.0
C543 C 1.0558 0.13553 0.96678 0.0
C544 C 0.10812 0.17954 0.99137 0.0
C545 C 0.16491 0.21231 0.97764 0.0
C546 C 0.16929 0.19775 0.93885 0.0
C547 C 0.11743 0.15041 0.91452 0.0
C548 C 1.05928 0.12135 0.92772 0.0
H549 H 0.87134 0.52855 0.28964 0.0
H550 H 0.68864 0.46818 0.21998 0.0
H551 H 0.65739 0.48881 0.27935 0.0
H552 H 0.82427 0.45579 0.36203 0.0
H553 H 0.88007 0.50406 0.40451 0.0
H554 H 0.90047 0.5136 0.35492 0.0
H555 H 0.92608 0.61547 0.36028 0.0
H556 H 0.90606 0.60627 0.41056 0.0
H557 H 0.86868 0.62819 0.3723 0.0
H558 H 0.63061 0.47675 0.34587 0.0
H559 H 0.61337 0.43566 0.41123 0.0
H560 H 0.80975 0.49995 0.44245 0.0
C561 C 0.8255 0.52144 0.28655 0.0
C562 C 0.78227 0.4952 0.25026 0.0
C563 C 0.72311 0.48783 0.24722 0.0
C564 C 0.70485 0.49997 0.28104 0.0
C565 C 0.74611 0.5197 0.31776 0.0
C566 C 0.80609 0.53176 0.32057 0.0
C567 C 0.83584 0.5387 0.36443 0.0
C568 C 0.86149 0.5007 0.37184 0.0
C569 C 0.88719 0.60087 0.37767 0.0
C570 C 0.78014 0.51988 0.38512 0.0
C571 C 0.72994 0.51239 0.35801 0.0
C572 C 0.67006 0.48439 0.36773 0.0
C573 C 0.66043 0.46045 0.40473 0.0
C574 C 0.7104 0.46467 0.43163 0.0
C575 C 0.77133 0.49764 0.42275 0.0
H576 H 0.33773 0.7485 0.57414 0.0
H577 H 0.53331 0.88286 0.59705 0.0
H578 H 0.52305 0.90492 0.66549 0.0
H579 H 0.28456 0.8159 0.65022 0.0
H580 H 0.23023 0.74601 0.66356 0.0
H581 H 0.24503 0.75684 0.61208 0.0
H582 H 0.27304 0.68191 0.61466 0.0
H583 H 0.25917 0.67125 0.66573 0.0
H584 H 0.33387 0.69066 0.65405 0.0
H585 H 0.50227 0.89198 0.73468 0.0
H586 H 0.47463 0.84518 0.79687 0.0
H587 H 0.29172 0.71731 0.7308 0.0
C588 C 0.37732 0.78462 0.59281 0.0
C589 C 0.43623 0.81369 0.58066 0.0
C590 C 0.48784 0.85963 0.60613 0.0
C591 C 0.48215 0.87297 0.64485 0.0
C592 C 0.42439 0.8403 0.65744 0.0
C593 C 0.3723 0.79763 0.63177 0.0
C594 C 0.31979 0.76057 0.65482 0.0
C595 C 0.26678 0.77046 0.64456 0.0
C596 C 0.29523 0.69748 0.64688 0.0
C597 C 0.35354 0.78384 0.69786 0.0
C598 C 0.41245 0.83178 0.69869 0.0
C599 C 0.45568 0.85535 0.73449 0.0
C600 C 0.43972 0.82765 0.76976 0.0
C601 C 0.38136 0.77605 0.76887 0.0
C602 C 0.33673 0.75627 0.73293 0.0
loop_
_geom_bond_atom_site_label_1
_geom_bond_atom_site_label_2
_geom_bond_distance
_geom_bond_site_symmetry_2
_ccdc_geom_bond_type
Co0 N4 2.148 . S
Co0 N10 2.128 . S
Co0 N20 2.194 1_445 S
Co0 O25 2.351 1_455 S
Co0 O26 2.155 . S
Co0 O27 2.096 . S
C1 N4 1.301 . S
C1 N5 1.328 . S
C1 H6 0.930 1_455 S
C2 C3 1.333 . S
C2 N4 1.317 . S
C2 H7 0.930 . S
C3 C2 1.333 . S
C3 N5 1.350 . S
C3 H29 0.931 . S
N4 Co0 2.148 . S
N4 C1 1.301 . S
N4 C2 1.317 . S
N5 C1 1.328 . S
N5 C3 1.350 . S
H6 C1 0.930 1_655 S
H7 C2 0.930 . S
C8 O9 1.224 . S
C8 O27 1.247 . S
O9 C8 1.224 . S
N10 Co0 2.128 . S
N10 C11 1.355 1_445 S
N10 C13 1.311 . S
C11 N10 1.355 1_665 S
C11 C12 1.363 . S
C11 H23 0.929 . S
C12 C11 1.363 . S
C12 N14 1.375 1_665 S
C12 H30 0.931 . S
C13 N10 1.311 . S
C13 N14 1.347 . S
C13 H24 0.929 . S
N14 C12 1.375 1_445 S
N14 C13 1.347 . S
C15 C18 1.365 . S
C15 N20 1.328 . S
C15 H21 0.929 . S
C16 C17 1.362 . S
C16 C19 1.378 1_655 S
C16 H31 0.929 1_655 S
C17 C16 1.362 . S
C17 C18 1.366 . S
C18 C15 1.365 . S
C18 C17 1.366 . S
C18 H32 0.930 . S
C19 C16 1.378 1_455 S
C19 N20 1.315 1_455 S
C19 H22 0.930 . S
N20 Co0 2.194 1_665 S
N20 C15 1.328 . S
N20 C19 1.315 1_655 S
H21 C15 0.929 . S
H22 C19 0.930 . S
H23 C11 0.929 . S
H24 C13 0.929 . S
O25 Co0 2.351 1_655 S
O25 C28 1.244 . S
O26 Co0 2.155 . S
O26 C28 1.240 1_455 S
O27 Co0 2.096 . S
O27 C8 1.247 . S
C28 O25 1.244 . S
C28 O26 1.240 1_655 S
H29 C3 0.931 . S
H30 C12 0.931 . S
H31 C16 0.929 1_455 S
H32 C18 0.930 . S
Co33 N37 2.148 1_455 S
Co33 N43 2.128 . S
Co33 N53 2.194 1_545 S
Co33 O58 2.351 . S
Co33 O59 2.155 . S
Co33 O60 2.096 1_445 S
C34 N37 1.301 1_455 S
C34 N38 1.328 1_455 S
C34 H39 0.930 . S
C35 C36 1.333 . S
C35 N37 1.317 1_565 S
C35 H40 0.930 . S
C36 C35 1.333 . S
C36 N38 1.350 1_565 S
C36 H62 0.931 . S
N37 Co33 2.148 1_655 S
N37 C34 1.301 1_655 S
N37 C35 1.317 1_545 S
N38 C34 1.328 1_655 S
N38 C36 1.350 1_545 S
H39 C34 0.930 . S
H40 C35 0.930 . S
C41 O42 1.224 . S
C41 O60 1.247 . S
O42 C41 1.224 . S
N43 Co33 2.128 . S
N43 C44 1.355 . S
N43 C46 1.311 1_455 S
C44 N43 1.355 . S
C44 C45 1.363 . S
C44 H56 0.929 . S
C45 C44 1.363 . S
C45 N47 1.375 . S
C45 H63 0.931 . S
C46 N43 1.311 1_655 S
C46 N47 1.347 1_655 S
C46 H57 0.930 1_545 S
N47 C45 1.375 . S
N47 C46 1.347 1_455 S
C48 C51 1.365 1_545 S
C48 N53 1.328 1_545 S
C48 H54 0.929 . S
C49 C50 1.362 . S
C49 C52 1.378 . S
C49 H64 0.929 . S
C50 C49 1.362 . S
C50 C51 1.366 . S
C51 C48 1.365 1_565 S
C51 C50 1.366 . S
C51 H65 0.930 . S
C52 C49 1.378 . S
C52 N53 1.315 . S
C52 H55 0.930 1_455 S
N53 Co33 2.194 1_565 S
N53 C48 1.328 1_565 S
N53 C52 1.315 . S
H54 C48 0.929 . S
H55 C52 0.930 1_655 S
H56 C44 0.929 . S
H57 C46 0.930 1_565 S
O58 Co33 2.351 . S
O58 C61 1.244 . S
O59 Co33 2.155 . S
O59 C61 1.240 . S
O60 Co33 2.096 1_665 S
O60 C41 1.247 . S
C61 O58 1.244 . S
C61 O59 1.240 . S
H62 C36 0.931 . S
H63 C45 0.931 . S
H64 C49 0.929 . S
H65 C51 0.930 . S
Co66 N70 2.148 . S
Co66 N76 2.128 . S
Co66 N86 2.194 . S
Co66 O91 2.351 . S
Co66 O92 2.155 . S
Co66 O93 2.096 . S
C67 N70 1.301 . S
C67 N71 1.328 . S
C67 H72 0.930 . S
C68 C69 1.333 . S
C68 N70 1.317 . S
C68 H73 0.930 . S
C69 C68 1.333 . S
C69 N71 1.350 . S
C69 H95 0.931 . S
N70 Co66 2.148 . S
N70 C67 1.301 . S
N70 C68 1.317 . S
N71 C67 1.328 . S
N71 C69 1.350 . S
H72 C67 0.930 . S
H73 C68 0.930 . S
C74 O75 1.224 . S
C74 O93 1.247 . S
O75 C74 1.224 . S
N76 Co66 2.128 . S
N76 C77 1.355 . S
N76 C79 1.311 . S
C77 N76 1.355 . S
C77 C78 1.363 . S
C77 H89 0.929 . S
C78 C77 1.363 . S
C78 N80 1.375 . S
C78 H96 0.931 . S
C79 N76 1.311 . S
C79 N80 1.347 . S
C79 H90 0.929 . S
N80 C78 1.375 . S
N80 C79 1.347 . S
C81 C84 1.365 . S
C81 N86 1.328 . S
C81 H87 0.929 . S
C82 C83 1.362 . S
C82 C85 1.378 . S
C82 H97 0.929 . S
C83 C82 1.362 . S
C83 C84 1.366 . S
C84 C81 1.365 . S
C84 C83 1.366 . S
C84 H98 0.930 . S
C85 C82 1.378 . S
C85 N86 1.315 . S
C85 H88 0.930 . S
N86 Co66 2.194 . S
N86 C81 1.328 . S
N86 C85 1.315 . S
H87 C81 0.929 . S
H88 C85 0.930 . S
H89 C77 0.929 . S
H90 C79 0.929 . S
O91 Co66 2.351 . S
O91 C94 1.244 . S
O92 Co66 2.155 . S
O92 C94 1.240 . S
O93 Co66 2.096 . S
O93 C74 1.247 . S
C94 O91 1.244 . S
C94 O92 1.240 . S
H95 C69 0.931 . S
H96 C78 0.931 . S
H97 C82 0.929 . S
H98 C84 0.930 . S
Co99 N103 2.148 . S
Co99 N109 2.128 . S
Co99 N119 2.194 . S
Co99 O124 2.351 . S
Co99 O125 2.155 . S
Co99 O126 2.096 . S
C100 N103 1.301 . S
C100 N104 1.328 1_554 S
C100 H105 0.930 . S
C101 C102 1.333 1_554 S
C101 N103 1.317 . S
C101 H106 0.930 . S
C102 C101 1.333 1_556 S
C102 N104 1.350 . S
C102 H128 0.931 . S
N103 Co99 2.148 . S
N103 C100 1.301 . S
N103 C101 1.317 . S
N104 C100 1.328 1_556 S
N104 C102 1.350 . S
H105 C100 0.930 . S
H106 C101 0.930 . S
C107 O108 1.224 . S
C107 O126 1.247 . S
O108 C107 1.224 . S
N109 Co99 2.128 . S
N109 C110 1.355 . S
N109 C112 1.311 . S
C110 N109 1.355 . S
C110 C111 1.363 . S
C110 H122 0.929 . S
C111 C110 1.363 . S
C111 N113 1.375 . S
C111 H129 0.931 . S
C112 N109 1.311 . S
C112 N113 1.347 . S
C112 H123 0.929 . S
N113 C111 1.375 . S
N113 C112 1.347 . S
C114 C117 1.365 . S
C114 N119 1.328 . S
C114 H120 0.929 . S
C115 C116 1.362 . S
C115 C118 1.378 . S
C115 H130 0.929 . S
C116 C115 1.362 . S
C116 C117 1.366 . S
C117 C114 1.365 . S
C117 C116 1.366 . S
C117 H131 0.930 . S
C118 C115 1.378 . S
C118 N119 1.315 . S
C118 H121 0.930 . S
N119 Co99 2.194 . S
N119 C114 1.328 . S
N119 C118 1.315 . S
H120 C114 0.929 . S
H121 C118 0.930 . S
H122 C110 0.929 . S
H123 C112 0.929 . S
O124 Co99 2.351 . S
O124 C127 1.244 . S
O125 Co99 2.155 . S
O125 C127 1.240 . S
O126 Co99 2.096 . S
O126 C107 1.247 . S
C127 O124 1.244 . S
C127 O125 1.240 . S
H128 C102 0.931 . S
H129 C111 0.931 . S
H130 C115 0.929 . S
H131 C117 0.930 . S
Co132 N136 2.148 . S
Co132 N142 2.128 . S
Co132 N152 2.194 . S
Co132 O157 2.351 . S
Co132 O158 2.155 . S
Co132 O159 2.096 . S
C133 N136 1.301 . S
C133 N137 1.328 1_556 S
C133 H138 0.930 . S
C134 C135 1.333 1_556 S
C134 N136 1.317 . S
C134 H139 0.930 . S
C135 C134 1.333 1_554 S
C135 N137 1.350 . S
C135 H161 0.931 . S
N136 Co132 2.148 . S
N136 C133 1.301 . S
N136 C134 1.317 . S
N137 C133 1.328 1_554 S
N137 C135 1.350 . S
H138 C133 0.930 . S
H139 C134 0.930 . S
C140 O141 1.224 . S
C140 O159 1.247 . S
O141 C140 1.224 . S
N142 Co132 2.128 . S
N142 C143 1.355 . S
N142 C145 1.311 . S
C143 N142 1.355 . S
C143 C144 1.363 . S
C143 H155 0.929 . S
C144 C143 1.363 . S
C144 N146 1.375 . S
C144 H162 0.931 . S
C145 N142 1.311 . S
C145 N146 1.347 . S
C145 H156 0.929 . S
N146 C144 1.375 . S
N146 C145 1.347 . S
C147 C150 1.365 . S
C147 N152 1.328 . S
C147 H153 0.929 . S
C148 C149 1.362 . S
C148 C151 1.378 . S
C148 H163 0.929 . S
C149 C148 1.362 . S
C149 C150 1.366 . S
C150 C147 1.365 . S
C150 C149 1.366 . S
C150 H164 0.930 . S
C151 C148 1.378 . S
C151 N152 1.315 . S
C151 H154 0.930 . S
N152 Co132 2.194 . S
N152 C147 1.328 . S
N152 C151 1.315 . S
H153 C147 0.929 . S
H154 C151 0.930 . S
H155 C143 0.929 . S
H156 C145 0.929 . S
O157 Co132 2.351 . S
O157 C160 1.244 . S
O158 Co132 2.155 . S
O158 C160 1.240 . S
O159 Co132 2.096 . S
O159 C140 1.247 . S
C160 O157 1.244 . S
C160 O158 1.240 . S
H161 C135 0.931 . S
H162 C144 0.931 . S
H163 C148 0.929 . S
H164 C150 0.930 . S
Co165 N169 2.148 . S
Co165 N175 2.128 . S
Co165 N185 2.194 . S
Co165 O190 2.351 . S
Co165 O191 2.155 . S
Co165 O192 2.096 . S
C166 N169 1.301 . S
C166 N170 1.328 . S
C166 H171 0.930 . S
C167 C168 1.333 . S
C167 N169 1.317 . S
C167 H172 0.930 . S
C168 C167 1.333 . S
C168 N170 1.350 . S
C168 H194 0.931 . S
N169 Co165 2.148 . S
N169 C166 1.301 . S
N169 C167 1.317 . S
N170 C166 1.328 . S
N170 C168 1.350 . S
H171 C166 0.930 . S
H172 C167 0.930 . S
C173 O174 1.224 . S
C173 O192 1.247 . S
O174 C173 1.224 . S
N175 Co165 2.128 . S
N175 C176 1.355 . S
N175 C178 1.311 . S
C176 N175 1.355 . S
C176 C177 1.363 . S
C176 H188 0.929 . S
C177 C176 1.363 . S
C177 N179 1.375 . S
C177 H195 0.931 . S
C178 N175 1.311 . S
C178 N179 1.347 . S
C178 H189 0.929 . S
N179 C177 1.375 . S
N179 C178 1.347 . S
C180 C183 1.365 . S
C180 N185 1.328 . S
C180 H186 0.929 . S
C181 C182 1.362 . S
C181 C184 1.378 . S
C181 H196 0.929 . S
C182 C181 1.362 . S
C182 C183 1.366 . S
C183 C180 1.365 . S
C183 C182 1.366 . S
C183 H197 0.930 . S
C184 C181 1.378 . S
C184 N185 1.315 . S
C184 H187 0.930 . S
N185 Co165 2.194 . S
N185 C180 1.328 . S
N185 C184 1.315 . S
H186 C180 0.929 . S
H187 C184 0.930 . S
H188 C176 0.929 . S
H189 C178 0.929 . S
O190 Co165 2.351 . S
O190 C193 1.244 . S
O191 Co165 2.155 . S
O191 C193 1.240 . S
O192 Co165 2.096 . S
O192 C173 1.247 . S
C193 O190 1.244 . S
C193 O191 1.240 . S
H194 C168 0.931 . S
H195 C177 0.931 . S
H196 C181 0.929 . S
H197 C183 0.930 . S
H198 C210 0.930 . S
H199 C212 0.930 . S
H200 C213 0.930 . S
H201 C217 0.959 . S
H202 C217 0.959 . S
H203 C217 0.961 . S
H204 C218 0.960 . S
H205 C218 0.961 . S
H206 C218 0.959 . S
H207 C221 0.929 . S
H208 C222 0.931 . S
H209 C224 0.930 . S
C210 H198 0.930 . S
C210 C211 1.399 . S
C210 C215 1.399 . S
C211 C210 1.399 . S
C211 C212 1.376 . S
C212 H199 0.930 . S
C212 C211 1.376 . S
C212 C213 1.388 . S
C213 H200 0.930 . S
C213 C212 1.388 . S
C213 C214 1.390 . S
C214 C213 1.390 . S
C214 C215 1.394 . S
C214 C220 1.465 . S
C215 C210 1.399 . S
C215 C214 1.394 . S
C215 C216 1.516 . S
C216 C215 1.516 . S
C216 C217 1.502 . S
C216 C218 1.561 . S
C216 C219 1.526 . S
C217 H201 0.959 . S
C217 H202 0.959 . S
C217 H203 0.961 . S
C217 C216 1.502 . S
C218 H204 0.960 . S
C218 H205 0.961 . S
C218 H206 0.959 . S
C218 C216 1.561 . S
C219 C216 1.526 . S
C219 C220 1.396 . S
C219 C224 1.390 . S
C220 C214 1.465 . S
C220 C219 1.396 . S
C220 C221 1.399 . S
C221 H207 0.929 . S
C221 C220 1.399 . S
C221 C222 1.385 . S
C222 H208 0.931 . S
C222 C221 1.385 . S
C222 C223 1.389 . S
C223 C222 1.389 . S
C223 C224 1.387 . S
C224 H209 0.930 . S
C224 C219 1.390 . S
C224 C223 1.387 . S
H225 C237 0.930 . S
H226 C239 0.930 . S
H227 C240 0.930 . S
H228 C244 0.959 . S
H229 C244 0.959 . S
H230 C244 0.961 . S
H231 C245 0.960 . S
H232 C245 0.961 . S
H233 C245 0.959 . S
H234 C248 0.929 . S
H235 C249 0.931 . S
H236 C251 0.930 . S
C237 H225 0.930 . S
C237 C238 1.399 . S
C237 C242 1.399 . S
C238 C237 1.399 . S
C238 C239 1.376 . S
C239 H226 0.930 . S
C239 C238 1.376 . S
C239 C240 1.388 . S
C240 H227 0.930 . S
C240 C239 1.388 . S
C240 C241 1.390 . S
C241 C240 1.390 . S
C241 C242 1.394 . S
C241 C247 1.465 . S
C242 C237 1.399 . S
C242 C241 1.394 . S
C242 C243 1.516 . S
C243 C242 1.516 . S
C243 C244 1.502 . S
C243 C245 1.561 . S
C243 C246 1.526 . S
C244 H228 0.959 . S
C244 H229 0.959 . S
C244 H230 0.961 . S
C244 C243 1.502 . S
C245 H231 0.960 . S
C245 H232 0.961 . S
C245 H233 0.959 . S
C245 C243 1.561 . S
C246 C243 1.526 . S
C246 C247 1.396 . S
C246 C251 1.390 . S
C247 C241 1.465 . S
C247 C246 1.396 . S
C247 C248 1.399 . S
C248 H234 0.929 . S
C248 C247 1.399 . S
C248 C249 1.385 . S
C249 H235 0.931 . S
C249 C248 1.385 . S
C249 C250 1.389 . S
C250 C249 1.389 . S
C250 C251 1.387 . S
C251 H236 0.930 . S
C251 C246 1.390 . S
C251 C250 1.387 . S
H252 C264 0.930 . S
H253 C266 0.930 . S
H254 C267 0.930 . S
H255 C271 0.959 . S
H256 C271 0.959 . S
H257 C271 0.961 . S
H258 C272 0.960 . S
H259 C272 0.961 . S
H260 C272 0.959 . S
H261 C275 0.929 . S
H262 C276 0.931 . S
H263 C278 0.930 . S
C264 H252 0.930 . S
C264 C265 1.399 . S
C264 C269 1.399 . S
C265 C264 1.399 . S
C265 C266 1.376 . S
C266 H253 0.930 . S
C266 C265 1.376 . S
C266 C267 1.388 . S
C267 H254 0.930 . S
C267 C266 1.388 . S
C267 C268 1.390 . S
C268 C267 1.390 . S
C268 C269 1.394 . S
C268 C274 1.465 . S
C269 C264 1.399 . S
C269 C268 1.394 . S
C269 C270 1.516 . S
C270 C269 1.516 . S
C270 C271 1.502 . S
C270 C272 1.561 . S
C270 C273 1.526 . S
C271 H255 0.959 . S
C271 H256 0.959 . S
C271 H257 0.961 . S
C271 C270 1.502 . S
C272 H258 0.960 . S
C272 H259 0.961 . S
C272 H260 0.959 . S
C272 C270 1.561 . S
C273 C270 1.526 . S
C273 C274 1.396 . S
C273 C278 1.390 . S
C274 C268 1.465 . S
C274 C273 1.396 . S
C274 C275 1.399 . S
C275 H261 0.929 . S
C275 C274 1.399 . S
C275 C276 1.385 . S
C276 H262 0.931 . S
C276 C275 1.385 . S
C276 C277 1.389 . S
C277 C276 1.389 . S
C277 C278 1.387 . S
C278 H263 0.930 . S
C278 C273 1.390 . S
C278 C277 1.387 . S
H279 C291 0.930 . S
H280 C293 0.930 . S
H281 C294 0.930 . S
H282 C298 0.959 . S
H283 C298 0.959 . S
H284 C298 0.961 . S
H285 C299 0.960 . S
H286 C299 0.961 . S
H287 C299 0.959 . S
H288 C302 0.929 . S
H289 C303 0.931 . S
H290 C305 0.930 . S
C291 H279 0.930 . S
C291 C292 1.399 . S
C291 C296 1.399 . S
C292 C291 1.399 . S
C292 C293 1.376 . S
C293 H280 0.930 . S
C293 C292 1.376 . S
C293 C294 1.388 . S
C294 H281 0.930 . S
C294 C293 1.388 . S
C294 C295 1.390 . S
C295 C294 1.390 . S
C295 C296 1.394 . S
C295 C301 1.465 . S
C296 C291 1.399 . S
C296 C295 1.394 . S
C296 C297 1.516 . S
C297 C296 1.516 . S
C297 C298 1.502 . S
C297 C299 1.561 . S
C297 C300 1.526 . S
C298 H282 0.959 . S
C298 H283 0.959 . S
C298 H284 0.961 . S
C298 C297 1.502 . S
C299 H285 0.960 . S
C299 H286 0.961 . S
C299 H287 0.959 . S
C299 C297 1.561 . S
C300 C297 1.526 . S
C300 C301 1.396 . S
C300 C305 1.390 . S
C301 C295 1.465 . S
C301 C300 1.396 . S
C301 C302 1.399 . S
C302 H288 0.929 . S
C302 C301 1.399 . S
C302 C303 1.385 . S
C303 H289 0.931 . S
C303 C302 1.385 . S
C303 C304 1.389 . S
C304 C303 1.389 . S
C304 C305 1.387 . S
C305 H290 0.930 . S
C305 C300 1.390 . S
C305 C304 1.387 . S
H306 C318 0.930 . S
H307 C320 0.930 . S
H308 C321 0.930 . S
H309 C325 0.959 . S
H310 C325 0.959 . S
H311 C325 0.961 . S
H312 C326 0.960 . S
H313 C326 0.961 . S
H314 C326 0.959 . S
H315 C329 0.929 . S
H316 C330 0.931 . S
H317 C332 0.930 . S
C318 H306 0.930 . S
C318 C319 1.399 . S
C318 C323 1.399 . S
C319 C318 1.399 . S
C319 C320 1.376 . S
C320 H307 0.930 . S
C320 C319 1.376 . S
C320 C321 1.388 . S
C321 H308 0.930 . S
C321 C320 1.388 . S
C321 C322 1.390 . S
C322 C321 1.390 . S
C322 C323 1.394 . S
C322 C328 1.465 . S
C323 C318 1.399 . S
C323 C322 1.394 . S
C323 C324 1.516 . S
C324 C323 1.516 . S
C324 C325 1.502 . S
C324 C326 1.561 . S
C324 C327 1.526 . S
C325 H309 0.959 . S
C325 H310 0.959 . S
C325 H311 0.961 . S
C325 C324 1.502 . S
C326 H312 0.960 . S
C326 H313 0.961 . S
C326 H314 0.959 . S
C326 C324 1.561 . S
C327 C324 1.526 . S
C327 C328 1.396 . S
C327 C332 1.390 . S
C328 C322 1.465 . S
C328 C327 1.396 . S
C328 C329 1.399 . S
C329 H315 0.929 . S
C329 C328 1.399 . S
C329 C330 1.385 . S
C330 H316 0.931 . S
C330 C329 1.385 . S
C330 C331 1.389 . S
C331 C330 1.389 . S
C331 C332 1.387 . S
C332 H317 0.930 . S
C332 C327 1.390 . S
C332 C331 1.387 . S
H333 C345 0.930 . S
H334 C347 0.930 . S
H335 C348 0.930 . S
H336 C352 0.959 . S
H337 C352 0.959 . S
H338 C352 0.961 . S
H339 C353 0.960 . S
H340 C353 0.961 . S
H341 C353 0.959 . S
H342 C356 0.929 . S
H343 C357 0.931 . S
H344 C359 0.930 . S
C345 H333 0.930 . S
C345 C346 1.399 . S
C345 C350 1.399 . S
C346 C345 1.399 . S
C346 C347 1.376 . S
C347 H334 0.930 . S
C347 C346 1.376 . S
C347 C348 1.388 . S
C348 H335 0.930 . S
C348 C347 1.388 . S
C348 C349 1.390 . S
C349 C348 1.390 . S
C349 C350 1.394 . S
C349 C355 1.465 . S
C350 C345 1.399 . S
C350 C349 1.394 . S
C350 C351 1.516 . S
C351 C350 1.516 . S
C351 C352 1.502 . S
C351 C353 1.561 . S
C351 C354 1.526 . S
C352 H336 0.959 . S
C352 H337 0.959 . S
C352 H338 0.961 . S
C352 C351 1.502 . S
C353 H339 0.960 . S
C353 H340 0.961 . S
C353 H341 0.959 . S
C353 C351 1.561 . S
C354 C351 1.526 . S
C354 C355 1.396 . S
C354 C359 1.390 . S
C355 C349 1.465 . S
C355 C354 1.396 . S
C355 C356 1.399 . S
C356 H342 0.929 . S
C356 C355 1.399 . S
C356 C357 1.385 . S
C357 H343 0.931 . S
C357 C356 1.385 . S
C357 C358 1.389 . S
C358 C357 1.389 . S
C358 C359 1.387 . S
C359 H344 0.930 . S
C359 C354 1.390 . S
C359 C358 1.387 . S
H360 C372 0.930 . S
H361 C374 0.930 . S
H362 C375 0.930 1_455 S
H363 C379 0.959 . S
H364 C379 0.959 . S
H365 C379 0.961 . S
H366 C380 0.960 . S
H367 C380 0.961 . S
H368 C380 0.959 . S
H369 C383 0.929 . S
H370 C384 0.931 . S
H371 C386 0.930 . S
C372 H360 0.930 . S
C372 C373 1.399 . S
C372 C377 1.399 . S
C373 C372 1.399 . S
C373 C374 1.376 . S
C374 H361 0.930 . S
C374 C373 1.376 . S
C374 C375 1.388 . S
C375 H362 0.930 1_655 S
C375 C374 1.388 . S
C375 C376 1.385 1_655 S
C376 C375 1.385 1_455 S
C376 C377 1.391 1_455 S
C376 C382 1.472 . S
C377 C372 1.399 . S
C377 C376 1.391 1_655 S
C377 C378 1.516 . S
C378 C377 1.516 . S
C378 C379 1.502 . S
C378 C380 1.561 . S
C378 C381 1.526 1_655 S
C379 H363 0.959 . S
C379 H364 0.959 . S
C379 H365 0.961 . S
C379 C378 1.502 . S
C380 H366 0.960 . S
C380 H367 0.961 . S
C380 H368 0.959 . S
C380 C378 1.561 . S
C381 C378 1.526 1_455 S
C381 C382 1.396 . S
C381 C386 1.390 . S
C382 C376 1.472 . S
C382 C381 1.396 . S
C382 C383 1.399 . S
C383 H369 0.929 . S
C383 C382 1.399 . S
C383 C384 1.385 . S
C384 H370 0.931 . S
C384 C383 1.385 . S
C384 C385 1.389 . S
C385 C384 1.389 . S
C385 C386 1.387 . S
C386 H371 0.930 . S
C386 C381 1.390 . S
C386 C385 1.387 . S
H387 C399 0.930 . S
H388 C401 0.930 . S
H389 C402 0.930 . S
H390 C406 0.959 . S
H391 C406 0.959 . S
H392 C406 0.961 . S
H393 C407 0.960 . S
H394 C407 0.961 . S
H395 C407 0.959 . S
H396 C410 0.929 . S
H397 C411 0.931 . S
H398 C413 0.930 . S
C399 H387 0.930 . S
C399 C400 1.399 . S
C399 C404 1.399 . S
C400 C399 1.399 . S
C400 C401 1.376 . S
C401 H388 0.930 . S
C401 C400 1.376 . S
C401 C402 1.388 . S
C402 H389 0.930 . S
C402 C401 1.388 . S
C402 C403 1.390 . S
C403 C402 1.390 . S
C403 C404 1.394 . S
C403 C409 1.465 . S
C404 C399 1.399 . S
C404 C403 1.394 . S
C404 C405 1.516 . S
C405 C404 1.516 . S
C405 C406 1.502 . S
C405 C407 1.561 . S
C405 C408 1.526 . S
C406 H390 0.959 . S
C406 H391 0.959 . S
C406 H392 0.961 . S
C406 C405 1.502 . S
C407 H393 0.960 . S
C407 H394 0.961 . S
C407 H395 0.959 . S
C407 C405 1.561 . S
C408 C405 1.526 . S
C408 C409 1.396 . S
C408 C413 1.390 . S
C409 C403 1.465 . S
C409 C408 1.396 . S
C409 C410 1.399 . S
C410 H396 0.929 . S
C410 C409 1.399 . S
C410 C411 1.385 . S
C411 H397 0.931 . S
C411 C410 1.385 . S
C411 C412 1.389 . S
C412 C411 1.389 . S
C412 C413 1.387 . S
C413 H398 0.930 . S
C413 C408 1.390 . S
C413 C412 1.387 . S
H414 C426 0.930 . S
H415 C428 0.930 . S
H416 C429 0.930 . S
H417 C433 0.959 . S
H418 C433 0.959 . S
H419 C433 0.961 . S
H420 C434 0.960 . S
H421 C434 0.961 . S
H422 C434 0.959 . S
H423 C437 0.929 . S
H424 C438 0.931 . S
H425 C440 0.930 . S
C426 H414 0.930 . S
C426 C427 1.399 . S
C426 C431 1.399 . S
C427 C426 1.399 . S
C427 C428 1.376 . S
C428 H415 0.930 . S
C428 C427 1.376 . S
C428 C429 1.388 . S
C429 H416 0.930 . S
C429 C428 1.388 . S
C429 C430 1.390 . S
C430 C429 1.390 . S
C430 C431 1.394 . S
C430 C436 1.465 1_565 S
C431 C426 1.399 . S
C431 C430 1.394 . S
C431 C432 1.516 . S
C432 C431 1.516 . S
C432 C433 1.502 . S
C432 C434 1.561 . S
C432 C435 1.526 1_565 S
C433 H417 0.959 . S
C433 H418 0.959 . S
C433 H419 0.961 . S
C433 C432 1.502 . S
C434 H420 0.960 . S
C434 H421 0.961 . S
C434 H422 0.959 . S
C434 C432 1.561 . S
C435 C432 1.526 1_545 S
C435 C436 1.396 . S
C435 C440 1.390 . S
C436 C430 1.465 1_545 S
C436 C435 1.396 . S
C436 C437 1.399 . S
C437 H423 0.929 . S
C437 C436 1.399 . S
C437 C438 1.385 . S
C438 H424 0.931 . S
C438 C437 1.385 . S
C438 C439 1.389 . S
C439 C438 1.389 . S
C439 C440 1.387 . S
C440 H425 0.930 . S
C440 C435 1.390 . S
C440 C439 1.387 . S
H441 C453 0.930 . S
H442 C455 0.934 1_655 S
H443 C456 0.930 1_655 S
H444 C460 0.955 1_655 S
H445 C460 0.959 . S
H446 C460 0.958 . S
H447 C461 0.960 . S
H448 C461 0.961 . S
H449 C461 0.959 . S
H450 C464 0.929 . S
H451 C465 0.931 . S
H452 C467 0.930 . S
C453 H441 0.930 . S
C453 C454 1.399 . S
C453 C458 1.399 . S
C454 C453 1.399 . S
C454 C455 1.365 1_545 S
C455 H442 0.934 1_455 S
C455 C454 1.365 1_565 S
C455 C456 1.396 . S
C456 H443 0.930 1_455 S
C456 C455 1.396 . S
C456 C457 1.390 1_565 S
C457 C456 1.390 1_545 S
C457 C458 1.394 . S
C457 C463 1.465 . S
C458 C453 1.399 . S
C458 C457 1.394 . S
C458 C459 1.516 . S
C459 C458 1.516 . S
C459 C460 1.508 . S
C459 C461 1.561 . S
C459 C462 1.526 . S
C460 H444 0.955 1_455 S
C460 H445 0.959 . S
C460 H446 0.958 . S
C460 C459 1.508 . S
C461 H447 0.960 . S
C461 H448 0.961 . S
C461 H449 0.959 . S
C461 C459 1.561 . S
C462 C459 1.526 . S
C462 C463 1.396 . S
C462 C467 1.390 . S
C463 C457 1.465 . S
C463 C462 1.396 . S
C463 C464 1.399 1_545 S
C464 H450 0.929 . S
C464 C463 1.399 1_565 S
C464 C465 1.385 . S
C465 H451 0.931 . S
C465 C464 1.385 . S
C465 C466 1.389 1_565 S
C466 C465 1.389 1_545 S
C466 C467 1.387 . S
C467 H452 0.930 . S
C467 C462 1.390 . S
C467 C466 1.387 . S
H468 C480 0.930 . S
H469 C482 0.930 . S
H470 C483 0.930 . S
H471 C487 0.959 . S
H472 C487 0.959 . S
H473 C487 0.961 . S
H474 C488 0.960 . S
H475 C488 0.961 . S
H476 C488 0.959 . S
H477 C491 0.929 . S
H478 C492 0.931 . S
H479 C494 0.930 . S
C480 H468 0.930 . S
C480 C481 1.399 . S
C480 C485 1.399 . S
C481 C480 1.399 . S
C481 C482 1.376 . S
C482 H469 0.930 . S
C482 C481 1.376 . S
C482 C483 1.388 . S
C483 H470 0.930 . S
C483 C482 1.388 . S
C483 C484 1.390 . S
C484 C483 1.390 . S
C484 C485 1.394 . S
C484 C490 1.465 . S
C485 C480 1.399 . S
C485 C484 1.394 . S
C485 C486 1.516 . S
C486 C485 1.516 . S
C486 C487 1.502 . S
C486 C488 1.561 . S
C486 C489 1.526 . S
C487 H471 0.959 . S
C487 H472 0.959 . S
C487 H473 0.961 . S
C487 C486 1.502 . S
C488 H474 0.960 . S
C488 H475 0.961 . S
C488 H476 0.959 . S
C488 C486 1.561 . S
C489 C486 1.526 . S
C489 C490 1.396 . S
C489 C494 1.390 . S
C490 C484 1.465 . S
C490 C489 1.396 . S
C490 C491 1.399 . S
C491 H477 0.929 . S
C491 C490 1.399 . S
C491 C492 1.385 . S
C492 H478 0.931 . S
C492 C491 1.385 . S
C492 C493 1.389 . S
C493 C492 1.389 . S
C493 C494 1.387 . S
C494 H479 0.930 . S
C494 C489 1.390 . S
C494 C493 1.387 . S
H495 C507 0.930 . S
H496 C509 0.930 . S
H497 C510 0.930 . S
H498 C514 0.959 . S
H499 C514 0.959 . S
H500 C514 0.961 . S
H501 C515 0.960 . S
H502 C515 0.961 . S
H503 C515 0.959 . S
H504 C518 0.929 . S
H505 C519 0.931 . S
H506 C521 0.930 . S
C507 H495 0.930 . S
C507 C508 1.399 . S
C507 C512 1.399 . S
C508 C507 1.399 . S
C508 C509 1.376 . S
C509 H496 0.930 . S
C509 C508 1.376 . S
C509 C510 1.388 . S
C510 H497 0.930 . S
C510 C509 1.388 . S
C510 C511 1.390 . S
C511 C510 1.390 . S
C511 C512 1.394 . S
C511 C517 1.465 . S
C512 C507 1.399 . S
C512 C511 1.394 . S
C512 C513 1.516 . S
C513 C512 1.516 . S
C513 C514 1.502 . S
C513 C515 1.561 . S
C513 C516 1.526 . S
C514 H498 0.959 . S
C514 H499 0.959 . S
C514 H500 0.961 . S
C514 C513 1.502 . S
C515 H501 0.960 . S
C515 H502 0.961 . S
C515 H503 0.959 . S
C515 C513 1.561 . S
C516 C513 1.526 . S
C516 C517 1.396 . S
C516 C521 1.390 . S
C517 C511 1.465 . S
C517 C516 1.396 . S
C517 C518 1.399 . S
C518 H504 0.929 . S
C518 C517 1.399 . S
C518 C519 1.385 . S
C519 H505 0.931 . S
C519 C518 1.385 . S
C519 C520 1.389 . S
C520 C519 1.389 . S
C520 C521 1.387 . S
C521 H506 0.930 . S
C521 C516 1.390 . S
C521 C520 1.387 . S
H522 C534 0.930 1_655 S
H523 C536 0.930 . S
H524 C537 0.930 . S
H525 C541 0.959 1_455 S
H526 C541 0.959 . S
H527 C541 0.961 1_554 S
H528 C542 0.960 1_554 S
H529 C542 0.961 . S
H530 C542 0.959 . S
H531 C545 0.929 . S
H532 C546 0.931 . S
H533 C548 0.930 . S
C534 H522 0.930 1_455 S
C534 C535 1.399 1_565 S
C534 C539 1.399 . S
C535 C534 1.399 1_545 S
C535 C536 1.376 . S
C536 H523 0.930 . S
C536 C535 1.376 . S
C536 C537 1.388 . S
C537 H524 0.930 . S
C537 C536 1.388 . S
C537 C538 1.390 . S
C538 C537 1.390 . S
C538 C539 1.394 1_545 S
C538 C544 1.465 1_554 S
C539 C534 1.399 . S
C539 C538 1.394 1_565 S
C539 C540 1.516 1_454 S
C540 C539 1.516 1_656 S
C540 C541 1.502 . S
C540 C542 1.561 . S
C540 C543 1.526 . S
C541 H525 0.959 1_655 S
C541 H526 0.959 . S
C541 H527 0.961 1_556 S
C541 C540 1.502 . S
C542 H528 0.960 1_556 S
C542 H529 0.961 . S
C542 H530 0.959 . S
C542 C540 1.561 . S
C543 C540 1.526 . S
C543 C544 1.396 1_665 S
C543 C548 1.390 . S
C544 C538 1.465 1_556 S
C544 C543 1.396 1_445 S
C544 C545 1.399 . S
C545 H531 0.929 . S
C545 C544 1.399 . S
C545 C546 1.385 . S
C546 H532 0.931 . S
C546 C545 1.385 . S
C546 C547 1.389 1_455 S
C547 C546 1.389 1_655 S
C547 C548 1.387 1_545 S
C548 H533 0.930 . S
C548 C543 1.390 . S
C548 C547 1.387 1_565 S
H549 C561 0.930 . S
H550 C563 0.930 . S
H551 C564 0.930 . S
H552 C568 0.959 . S
H553 C568 0.959 . S
H554 C568 0.961 . S
H555 C569 0.960 . S
H556 C569 0.961 . S
H557 C569 0.959 . S
H558 C572 0.929 . S
H559 C573 0.931 . S
H560 C575 0.930 . S
C561 H549 0.930 . S
C561 C562 1.399 . S
C561 C566 1.399 . S
C562 C561 1.399 . S
C562 C563 1.376 . S
C563 H550 0.930 . S
C563 C562 1.376 . S
C563 C564 1.388 . S
C564 H551 0.930 . S
C564 C563 1.388 . S
C564 C565 1.390 . S
C565 C564 1.390 . S
C565 C566 1.394 . S
C565 C571 1.465 . S
C566 C561 1.399 . S
C566 C565 1.394 . S
C566 C567 1.516 . S
C567 C566 1.516 . S
C567 C568 1.502 . S
C567 C569 1.561 . S
C567 C570 1.526 . S
C568 H552 0.959 . S
C568 H553 0.959 . S
C568 H554 0.961 . S
C568 C567 1.502 . S
C569 H555 0.960 . S
C569 H556 0.961 . S
C569 H557 0.959 . S
C569 C567 1.561 . S
C570 C567 1.526 . S
C570 C571 1.396 . S
C570 C575 1.390 . S
C571 C565 1.465 . S
C571 C570 1.396 . S
C571 C572 1.399 . S
C572 H558 0.929 . S
C572 C571 1.399 . S
C572 C573 1.385 . S
C573 H559 0.931 . S
C573 C572 1.385 . S
C573 C574 1.389 . S
C574 C573 1.389 . S
C574 C575 1.387 . S
C575 H560 0.930 . S
C575 C570 1.390 . S
C575 C574 1.387 . S
H576 C588 0.930 . S
H577 C590 0.930 . S
H578 C591 0.930 . S
H579 C595 0.959 . S
H580 C595 0.959 . S
H581 C595 0.961 . S
H582 C596 0.960 . S
H583 C596 0.961 . S
H584 C596 0.959 . S
H585 C599 0.929 . S
H586 C600 0.931 . S
H587 C602 0.930 . S
C588 H576 0.930 . S
C588 C589 1.399 . S
C588 C593 1.399 . S
C589 C588 1.399 . S
C589 C590 1.376 . S
C590 H577 0.930 . S
C590 C589 1.376 . S
C590 C591 1.388 . S
C591 H578 0.930 . S
C591 C590 1.388 . S
C591 C592 1.390 . S
C592 C591 1.390 . S
C592 C593 1.394 . S
C592 C598 1.465 . S
C593 C588 1.399 . S
C593 C592 1.394 . S
C593 C594 1.516 . S
C594 C593 1.516 . S
C594 C595 1.502 . S
C594 C596 1.561 . S
C594 C597 1.526 . S
C595 H579 0.959 . S
C595 H580 0.959 . S
C595 H581 0.961 . S
C595 C594 1.502 . S
C596 H582 0.960 . S
C596 H583 0.961 . S
C596 H584 0.959 . S
C596 C594 1.561 . S
C597 C594 1.526 . S
C597 C598 1.396 . S
C597 C602 1.390 . S
C598 C592 1.465 . S
C598 C597 1.396 . S
C598 C599 1.399 . S
C599 H585 0.929 . S
C599 C598 1.399 . S
C599 C600 1.385 . S
C600 H586 0.931 . S
C600 C599 1.385 . S
C600 C601 1.389 . S
C601 C600 1.389 . S
C601 C602 1.387 . S
C602 H587 0.930 . S
C602 C597 1.390 . S
C602 C601 1.387 . S
C211 C8 1.926 . S
C223 C107 1.928 . S
C238 C28 1.579 . S
C250 C116 1.585 . S
C265 C127 1.582 . S
C277 C17 1.578 . S
C292 C61 1.523 . S
C304 C149 1.608 . S
C319 C140 1.915 . S
C331 C41 1.938 . S
C346 C50 1.583 . S
C358 C160 1.581 . S
C373 C74 1.941 . S
C385 C173 1.912 . S
C400 C94 1.588 . S
C412 C182 1.577 . S
C427 C193 1.562 . S
C439 C83 1.586 . S
C454 N38 2.191 1_455 S
C466 N5 2.189 . S
C481 N104 2.189 . S
C493 N71 2.193 . S
C508 N170 2.191 . S
C520 N137 2.189 . S
C535 N14 0.643 . S
C547 N47 0.584 1_655 S
C562 N113 0.720 . S
C574 N80 0.539 . S
C589 N179 0.541 . S
C601 N146 0.688 . S
