# Generated by pormake.
# Topology uoq, (4)-cn, num edge types: 1
# Building blocks:
#     Node 0, Type 0, BuildingBlock: CEKHIL_clean_sbu_0, # of connection points: 4
#     Node 1, Type 0, BuildingBlock: CEKHIL_clean_sbu_0, # of connection points: 4
#     Node 2, Type 0, BuildingBlock: CEKHIL_clean_sbu_0, # of connection points: 4
#     Node 3, Type 0, BuildingBlock: CEKHIL_clean_sbu_0, # of connection points: 4
#     Node 4, Type 0, BuildingBlock: CEKHIL_clean_sbu_0, # of connection points: 4
#     Node 5, Type 0, BuildingBlock: CEKHIL_clean_sbu_0, # of connection points: 4
#     Node 6, Type 0, BuildingBlock: CEKHIL_clean_sbu_0, # of connection points: 4
#     Node 7, Type 0, BuildingBlock: CEKHIL_clean_sbu_0, # of connection points: 4
#     Node 8, Type 0, BuildingBlock: CEKHIL_clean_sbu_0, # of connection points: 4
#     Node 9, Type 0, BuildingBlock: CEKHIL_clean_sbu_0, # of connection points: 4
#     Node 10, Type 0, BuildingBlock: CEKHIL_clean_sbu_0, # of connection points: 4
#     Node 11, Type 0, BuildingBlock: CEKHIL_clean_sbu_0, # of connection points: 4
#     Edge 12, Type (0, 0), BuildingBlock: KIFKEQ_clean_linker_1, # of connection points: 2
#     Edge 13, Type (0, 0), BuildingBlock: KIFKEQ_clean_linker_1, # of connection points: 2
#     Edge 14, Type (0, 0), BuildingBlock: KIFKEQ_clean_linker_1, # of connection points: 2
#     Edge 15, Type (0, 0), BuildingBlock: KIFKEQ_clean_linker_1, # of connection points: 2
#     Edge 16, Type (0, 0), BuildingBlock: KIFKEQ_clean_linker_1, # of connection points: 2
#     Edge 17, Type (0, 0), BuildingBlock: KIFKEQ_clean_linker_1, # of connection points: 2
#     Edge 18, Type (0, 0), BuildingBlock: KIFKEQ_clean_linker_1, # of connection points: 2
#     Edge 19, Type (0, 0), BuildingBlock: KIFKEQ_clean_linker_1, # of connection points: 2
#     Edge 20, Type (0, 0), BuildingBlock: KIFKEQ_clean_linker_1, # of connection points: 2
#     Edge 21, Type (0, 0), BuildingBlock: KIFKEQ_clean_linker_1, # of connection points: 2
#     Edge 22, Type (0, 0), BuildingBlock: KIFKEQ_clean_linker_1, # of connection points: 2
#     Edge 23, Type (0, 0), BuildingBlock: KIFKEQ_clean_linker_1, # of connection points: 2
#     Edge 24, Type (0, 0), BuildingBlock: KIFKEQ_clean_linker_1, # of connection points: 2
#     Edge 25, Type (0, 0), BuildingBlock: KIFKEQ_clean_linker_1, # of connection points: 2
#     Edge 26, Type (0, 0), BuildingBlock: KIFKEQ_clean_linker_1, # of connection points: 2
#     Edge 27, Type (0, 0), BuildingBlock: KIFKEQ_clean_linker_1, # of connection points: 2
#     Edge 28, Type (0, 0), BuildingBlock: KIFKEQ_clean_linker_1, # of connection points: 2
#     Edge 29, Type (0, 0), BuildingBlock: KIFKEQ_clean_linker_1, # of connection points: 2
#     Edge 30, Type (0, 0), BuildingBlock: KIFKEQ_clean_linker_1, # of connection points: 2
#     Edge 31, Type (0, 0), BuildingBlock: KIFKEQ_clean_linker_1, # of connection points: 2
#     Edge 32, Type (0, 0), BuildingBlock: KIFKEQ_clean_linker_1, # of connection points: 2
#     Edge 33, Type (0, 0), BuildingBlock: KIFKEQ_clean_linker_1, # of connection points: 2
#     Edge 34, Type (0, 0), BuildingBlock: KIFKEQ_clean_linker_1, # of connection points: 2
#     Edge 35, Type (0, 0), BuildingBlock: KIFKEQ_clean_linker_1, # of connection points: 2
# Relax obj value: 0.172
# Max RMSD: 0.159
# Mean RMSD: 0.159
data_MOF--net-uoq--node1-CEKHIL_clean_sbu_0--edge1-KIFKEQ_clean_linker_1
_symmetry_space_group_name_H-M    P1
_symmetry_Int_Tables_number       1
_symmetry_cell_setting            triclinic
loop_
_symmetry_equiv_pos_as_xyz
'x, y, z'
_cell_length_a     59.466704
_cell_length_b     59.397026
_cell_length_c     22.013787
_cell_angle_alpha  90.034276
_cell_angle_beta   89.968074
_cell_angle_gamma 120.00558
loop_
_atom_site_label
_atom_site_type_symbol
_atom_site_fract_x
_atom_site_fract_y
_atom_site_fract_z
_atom_type_partial_charge
Co0 Co 0.31294 0.4451 0.26186 0.0
O1 O 0.27949 0.42483 0.22155 0.0
O2 O 0.30932 0.46449 0.19509 0.0
C3 C 0.32319 0.41306 0.26932 0.0
O4 O 0.34957 0.47216 0.28932 0.0
Co5 Co 0.32636 0.43111 0.38924 0.0
O6 O 0.36253 0.45711 0.36764 0.0
C7 C 0.29716 0.45959 0.38003 0.0
C8 C 0.28643 0.44454 0.1854 0.0
C9 C 0.36705 0.47413 0.32704 0.0
O10 O 0.29776 0.45994 0.32139 0.0
O11 O 0.30625 0.44827 0.41306 0.0
O12 O 0.32721 0.42579 0.21855 0.0
O13 O 0.31135 0.41851 0.31042 0.0
Co14 Co 0.87347 0.31276 0.59321 0.0
O15 O 0.86303 0.28076 0.54866 0.0
O16 O 0.85192 0.30986 0.52385 0.0
C17 C 0.91597 0.32507 0.60738 0.0
O18 O 0.8806 0.34805 0.62599 0.0
Co19 Co 0.89521 0.3211 0.72641 0.0
O20 O 0.90217 0.35703 0.71484 0.0
C21 C 0.83926 0.28717 0.70236 0.0
C22 C 0.85007 0.28748 0.51266 0.0
C23 C 0.89246 0.36339 0.67109 0.0
O24 O 0.84162 0.2941 0.64628 0.0
O25 O 0.85827 0.29394 0.7389 0.0
O26 O 0.90843 0.32986 0.55582 0.0
O27 O 0.89757 0.31105 0.6445 0.0
Co28 Co 0.56811 0.87399 0.91902 0.0
O29 O 0.58907 0.86341 0.87248 0.0
O30 O 0.54752 0.84915 0.85598 0.0
C31 C 0.59711 0.9172 0.92155 0.0
O32 O 0.54015 0.88055 0.95479 0.0
Co33 Co 0.58603 0.90198 0.04522 0.0
O34 O 0.5546 0.90541 0.03879 0.0
C35 C 0.56856 0.84618 0.0327 0.0
C36 C 0.56834 0.84842 0.8412 0.0
C37 C 0.53723 0.89332 0.99859 0.0
O38 O 0.55904 0.84503 0.97942 0.0
O39 O 0.58258 0.86739 0.06158 0.0
O40 O 0.58236 0.9072 0.87398 0.0
O41 O 0.59525 0.90086 0.96195 0.0
Co42 Co 0.70302 0.56659 0.26294 0.0
O43 O 0.73613 0.58686 0.22135 0.0
O44 O 0.70622 0.54716 0.19543 0.0
C45 C 0.69248 0.59841 0.27189 0.0
O46 O 0.66661 0.5396 0.29212 0.0
Co47 Co 0.69174 0.58133 0.39227 0.0
O48 O 0.65581 0.55311 0.3771 0.0
C49 C 0.72014 0.5523 0.37954 0.0
C50 C 0.72907 0.56713 0.18519 0.0
C51 C 0.65031 0.53668 0.33441 0.0
O52 O 0.71868 0.55172 0.32101 0.0
O53 O 0.71194 0.56408 0.41374 0.0
O54 O 0.68825 0.58572 0.22096 0.0
O55 O 0.70497 0.5933 0.31189 0.0
Co56 Co 0.14325 0.70015 0.59608 0.0
O57 O 0.15477 0.73309 0.55477 0.0
O58 O 0.16507 0.70374 0.52672 0.0
C59 C 0.10094 0.68882 0.60932 0.0
O60 O 0.13514 0.66399 0.62472 0.0
Co61 Co 0.11964 0.68825 0.72752 0.0
O62 O 0.10896 0.6519 0.70656 0.0
C63 C 0.17658 0.71991 0.70908 0.0
C64 C 0.16749 0.72649 0.51763 0.0
C65 C 0.12043 0.64689 0.66428 0.0
O66 O 0.17467 0.71708 0.65096 0.0
O67 O 0.15724 0.71119 0.74542 0.0
O68 O 0.10866 0.6846 0.55731 0.0
O69 O 0.11909 0.70152 0.64805 0.0
Co70 Co 0.44765 0.13754 0.91629 0.0
O71 O 0.427 0.14868 0.87055 0.0
O72 O 0.46873 0.16345 0.85553 0.0
C73 C 0.41872 0.09432 0.91433 0.0
O74 O 0.47536 0.13058 0.95189 0.0
Co75 Co 0.42845 0.10689 0.03919 0.0
O76 O 0.45867 0.10168 0.02848 0.0
C77 C 0.44677 0.16322 0.03351 0.0
C78 C 0.44793 0.16417 0.8405 0.0
C79 C 0.47701 0.11552 0.99166 0.0
O80 O 0.45599 0.16535 0.97943 0.0
O81 O 0.43297 0.14152 0.06077 0.0
O82 O 0.43404 0.10518 0.86803 0.0
O83 O 0.4201 0.10988 0.95635 0.0
Co84 Co 0.56445 0.698 0.43877 0.0
O85 O 0.58577 0.7312 0.47931 0.0
O86 O 0.54646 0.70163 0.50859 0.0
C87 C 0.59583 0.6872 0.42509 0.0
O88 O 0.53656 0.66155 0.41138 0.0
Co89 Co 0.57553 0.6853 0.30759 0.0
O90 O 0.55065 0.64899 0.33036 0.0
C91 C 0.54946 0.71636 0.32546 0.0
C92 C 0.56665 0.72449 0.51715 0.0
C93 C 0.53428 0.64417 0.37274 0.0
O94 O 0.54939 0.71439 0.38378 0.0
O95 O 0.55976 0.70723 0.28923 0.0
O96 O 0.5841 0.68305 0.47736 0.0
O97 O 0.58986 0.69945 0.3862 0.0
Co98 Co 0.87345 0.56541 0.77348 0.0
O99 O 0.8607 0.58589 0.8146 0.0
O100 O 0.85108 0.54635 0.8416 0.0
C101 C 0.9157 0.59729 0.76351 0.0
O102 O 0.88281 0.53825 0.745 0.0
Co103 Co 0.89907 0.57939 0.64375 0.0
O104 O 0.90703 0.55139 0.65991 0.0
C105 C 0.8417 0.55067 0.65741 0.0
C106 C 0.84819 0.56636 0.85132 0.0
C107 C 0.89616 0.53514 0.70292 0.0
O108 O 0.84275 0.55027 0.71594 0.0
O109 O 0.86158 0.56225 0.62288 0.0
O110 O 0.90749 0.58485 0.81478 0.0
O111 O 0.89796 0.59184 0.72369 0.0
Co112 Co 0.3172 0.87431 0.11754 0.0
O113 O 0.28573 0.8645 0.16351 0.0
O114 O 0.31402 0.85204 0.18575 0.0
C115 C 0.33019 0.91705 0.10536 0.0
O116 O 0.35184 0.88062 0.08303 0.0
Co117 Co 0.32536 0.89723 0.98561 0.0
O118 O 0.36075 0.90224 0.99424 0.0
C119 C 0.28866 0.84178 1.00916 0.0
C120 C 0.29207 0.85089 0.19829 0.0
C121 C 0.36695 0.89211 0.03742 0.0
O122 O 0.29756 0.84301 0.06312 0.0
O123 O 0.29507 0.86155 0.97524 0.0
O124 O 0.33558 0.90923 0.15576 0.0
O125 O 0.31573 0.89896 0.06819 0.0
Co126 Co 0.4509 0.31322 0.43621 0.0
O127 O 0.42972 0.28045 0.47843 0.0
O128 O 0.46915 0.31026 0.50639 0.0
C129 C 0.41964 0.32411 0.42164 0.0
O130 O 0.47864 0.34937 0.40666 0.0
Co131 Co 0.43877 0.32352 0.30358 0.0
O132 O 0.46593 0.35974 0.31993 0.0
C133 C 0.46529 0.29319 0.32451 0.0
C134 C 0.44898 0.28748 0.51595 0.0
C135 C 0.48186 0.36555 0.36374 0.0
O136 O 0.46584 0.29625 0.38256 0.0
O137 O 0.45441 0.30134 0.28741 0.0
O138 O 0.43151 0.32867 0.47378 0.0
O139 O 0.42522 0.31121 0.3837 0.0
Co140 Co 0.14296 0.44746 0.77386 0.0
O141 O 0.15556 0.42667 0.81405 0.0
O142 O 0.16541 0.46619 0.84199 0.0
C143 C 0.1007 0.41571 0.76391 0.0
O144 O 0.13385 0.47494 0.74685 0.0
Co145 Co 0.11681 0.43478 0.64507 0.0
O146 O 0.10634 0.46048 0.66752 0.0
C147 C 0.17433 0.4625 0.65732 0.0
C148 C 0.16812 0.44606 0.85116 0.0
C149 C 0.11855 0.47718 0.70892 0.0
O150 O 0.17351 0.46252 0.71592 0.0
O151 O 0.15425 0.45164 0.62317 0.0
O152 O 0.10898 0.42798 0.81536 0.0
O153 O 0.11834 0.4214 0.7236 0.0
Co154 Co 0.69827 0.13835 0.117 0.0
O155 O 0.7304 0.14895 0.16078 0.0
O156 O 0.70218 0.16138 0.18414 0.0
C157 C 0.68566 0.0956 0.10784 0.0
O158 O 0.66307 0.13141 0.08476 0.0
Co159 Co 0.68739 0.11309 0.98724 0.0
O160 O 0.65128 0.1048 1.00364 0.0
C161 C 0.72232 0.16976 1.00353 0.0
C162 C 0.72433 0.16281 0.19552 0.0
C163 C 0.64633 0.11699 0.04432 0.0
O164 O 0.7169 0.16896 0.06039 0.0
O165 O 0.71421 0.14979 0.9693 0.0
O166 O 0.68077 0.10408 0.15789 0.0
O167 O 0.69929 0.1131 0.06855 0.0
H168 H 0.36078 0.40771 0.20706 0.0
H169 H 0.31564 0.38547 0.37252 0.0
H170 H 0.38488 0.38684 0.24466 0.0
H171 H 0.33977 0.36534 0.40989 0.0
H172 H 0.4086 0.35791 0.48376 0.0
H173 H 0.38577 0.37973 0.44429 0.0
H174 H 0.37538 0.34114 0.27184 0.0
H175 H 0.39744 0.31914 0.311 0.0
C176 C 0.35584 0.39821 0.25095 0.0
C177 C 0.33634 0.39835 0.28673 0.0
C178 C 0.36969 0.3864 0.27267 0.0
C179 C 0.36447 0.37481 0.33074 0.0
C180 C 0.34465 0.37456 0.36565 0.0
C181 C 0.33068 0.38598 0.34381 0.0
C182 C 0.4013 0.35401 0.43764 0.0
C183 C 0.40493 0.33681 0.40069 0.0
C184 C 0.3883 0.36652 0.41493 0.0
C185 C 0.37899 0.3623 0.35467 0.0
C186 C 0.38268 0.34514 0.31798 0.0
C187 C 0.39525 0.33242 0.3408 0.0
H188 H 0.93342 0.31927 0.71688 0.0
H189 H 0.96045 0.36094 0.5473 0.0
H190 H 0.97731 0.34196 0.75684 0.0
H191 H 1.00498 0.38347 0.58755 0.0
H192 H 0.08161 0.39002 0.65795 0.0
H193 H 0.03753 0.36981 0.61953 0.0
H194 H 0.01235 0.38775 0.78742 0.0
H195 H 0.05715 0.40877 0.82613 0.0
C196 C 0.94873 0.33335 0.68797 0.0
C197 C 0.94333 0.33833 0.62873 0.0
C198 C 0.97392 0.34646 0.71126 0.0
C199 C 0.99457 0.36464 0.67568 0.0
C200 C 0.98938 0.36949 0.61605 0.0
C201 C 0.96396 0.35657 0.5929 0.0
C202 C 0.06678 0.38978 0.687 0.0
C203 C 0.073 0.40117 0.74521 0.0
C204 C 0.04151 0.37831 0.66456 0.0
C205 C 0.02154 0.37748 0.69997 0.0
C206 C 0.02743 0.38816 0.75901 0.0
C207 C 0.05299 0.40006 0.78134 0.0
H208 H 0.64485 0.94307 0.96901 0.0
H209 H 0.58063 0.95299 0.91537 0.0
H210 H 0.66553 0.98534 0.01851 0.0
H211 H 0.60151 0.99591 0.96536 0.0
H212 H 0.63499 0.05661 0.12591 0.0
H213 H 0.61317 0.01394 0.07477 0.0
H214 H 0.68596 0.0315 0.99163 0.0
H215 H 0.70738 0.07348 0.04235 0.0
C216 C 0.63556 0.95476 0.96629 0.0
C217 C 0.61151 0.9451 0.93704 0.0
C218 C 0.64729 0.9789 0.99509 0.0
C219 C 0.63513 0.99397 0.99621 0.0
C220 C 0.61125 0.98462 0.96569 0.0
C221 C 0.59957 0.96038 0.93599 0.0
C222 C 0.64632 0.05088 0.09808 0.0
C223 C 0.67296 0.06806 0.08899 0.0
C224 C 0.63379 0.02675 0.06788 0.0
C225 C 0.64782 0.01939 0.02882 0.0
C226 C 0.67459 0.03641 0.02162 0.0
C227 C 0.68692 0.06041 0.051 0.0
H228 H 0.65492 0.60398 0.21048 0.0
H229 H 0.69945 0.625 0.37676 0.0
H230 H 0.63077 0.62465 0.24888 0.0
H231 H 0.67523 0.64495 0.41494 0.0
H232 H 0.6066 0.65331 0.48791 0.0
H233 H 0.62937 0.63131 0.44888 0.0
H234 H 0.64055 0.67014 0.27658 0.0
H235 H 0.61854 0.69226 0.31523 0.0
C236 C 0.65969 0.61313 0.25479 0.0
C237 C 0.67907 0.61275 0.29047 0.0
C238 C 0.64581 0.62484 0.27695 0.0
C239 C 0.65088 0.63611 0.3354 0.0
C240 C 0.67048 0.63599 0.37039 0.0
C241 C 0.68449 0.62467 0.34809 0.0
C242 C 0.61409 0.65724 0.44195 0.0
C243 C 0.61068 0.67452 0.40485 0.0
C244 C 0.62705 0.64462 0.41948 0.0
C245 C 0.63653 0.64882 0.35934 0.0
C246 C 0.63311 0.66612 0.32261 0.0
C247 C 0.62057 0.67893 0.34516 0.0
H248 H 0.95931 0.60425 0.82524 0.0
H249 H 0.93472 0.62317 0.65765 0.0
H250 H 1.00412 0.6256 0.78664 0.0
H251 H 0.97886 0.64377 0.6193 0.0
H252 H 0.0566 0.65371 0.54729 0.0
H253 H 0.0119 0.63099 0.58657 0.0
H254 H 0.03893 0.67135 0.75745 0.0
H255 H 0.08299 0.69418 0.71851 0.0
C256 C 0.96344 0.61306 0.78058 0.0
C257 C 0.94339 0.61191 0.74462 0.0
C258 C 0.98902 0.62517 0.75831 0.0
C259 C 0.99493 0.63605 0.69949 0.0
C260 C 0.9749 0.63513 0.66417 0.0
C261 C 0.94958 0.62343 0.68656 0.0
C262 C 0.05291 0.65783 0.59298 0.0
C263 C 0.07342 0.67574 0.62962 0.0
C264 C 0.02738 0.64479 0.61559 0.0
C265 C 0.02196 0.64921 0.67544 0.0
C266 C 0.04248 0.66716 0.71169 0.0
C267 C 0.06777 0.68037 0.68897 0.0
H268 H 0.30934 0.93718 0.03052 0.0
H269 H 0.37999 0.95756 0.12769 0.0
H270 H 0.33086 0.97848 0.97747 0.0
H271 H 0.40186 0.99976 0.0745 0.0
H272 H 0.43751 0.06048 0.91677 0.0
H273 H 0.41658 0.01774 0.9673 0.0
H274 H 0.34838 0.02423 0.99944 0.0
H275 H 0.36915 0.06634 0.94926 0.0
C276 C 0.32943 0.95084 0.0415 0.0
C277 C 0.34287 0.94429 0.0839 0.0
C278 C 0.34181 0.97452 1.01086 0.0
C279 C 0.36813 0.99244 0.02142 0.0
C280 C 0.38162 0.98622 0.06487 0.0
C281 C 0.36903 0.96234 0.09616 0.0
C282 C 0.41767 0.05214 0.93255 0.0
C283 C 0.40456 0.06624 0.92751 0.0
C284 C 0.40592 0.02803 0.96271 0.0
C285 C 0.38084 0.01761 0.98774 0.0
C286 C 0.36755 0.03145 0.98026 0.0
C287 C 0.37933 0.05548 0.95094 0.0
H288 H 0.17622 0.40596 0.88348 0.0
H289 H 0.19852 0.48487 0.93141 0.0
H290 H 0.20453 0.40538 0.96321 0.0
H291 H 0.22654 0.48422 1.01158 0.0
H292 H 0.29505 0.48404 0.10719 0.0
H293 H 0.26664 0.48411 0.02729 0.0
H294 H 0.2096 0.40496 0.07235 0.0
H295 H 0.23823 0.40483 0.15181 0.0
C296 C 0.18708 0.42317 0.91115 0.0
C297 C 0.18504 0.44547 0.90074 0.0
C298 C 0.20326 0.4228 0.95725 0.0
C299 C 0.21802 0.44477 0.99418 0.0
C300 C 0.21586 0.46703 0.98375 0.0
C301 C 0.1996 0.46735 0.93787 0.0
C302 C 0.27646 0.46662 0.10008 0.0
C303 C 0.26902 0.44443 0.13617 0.0
C304 C 0.26003 0.46671 0.05435 0.0
C305 C 0.23563 0.44457 0.04304 0.0
C306 C 0.22828 0.42231 0.07899 0.0
C307 C 0.24469 0.42227 0.12494 0.0
H308 H 0.8413 0.23895 0.4822 0.0
H309 H 0.81899 0.29543 0.43351 0.0
H310 H 0.81094 0.20875 0.40737 0.0
H311 H 0.78895 0.26544 0.35769 0.0
H312 H 0.71785 0.19565 0.2723 0.0
H313 H 0.7483 0.22558 0.34762 0.0
H314 H 0.80287 0.20045 0.30096 0.0
H315 H 0.7722 0.17021 0.22667 0.0
C316 C 0.83011 0.24506 0.4551 0.0
C317 C 0.83269 0.26971 0.46405 0.0
C318 C 0.81269 0.22771 0.41185 0.0
C319 C 0.79726 0.23445 0.37619 0.0
C320 C 0.80011 0.25927 0.38475 0.0
C321 C 0.81756 0.27663 0.42798 0.0
C322 C 0.73628 0.1964 0.27834 0.0
C323 C 0.74246 0.1804 0.24334 0.0
C324 C 0.75391 0.21378 0.32129 0.0
C325 C 0.77826 0.21568 0.33062 0.0
C326 C 0.78427 0.19944 0.29589 0.0
C327 C 0.76667 0.1821 0.25293 0.0
H328 H 0.60887 0.84213 0.80374 0.0
H329 H 0.52775 0.81437 0.769 0.0
H330 H 0.60865 0.81223 0.72738 0.0
H331 H 0.5276 0.7848 0.6916 0.0
H332 H 0.52885 0.71601 0.60055 0.0
H333 H 0.52944 0.74572 0.67803 0.0
H334 H 0.60643 0.80375 0.62068 0.0
H335 H 0.60598 0.7738 0.54406 0.0
C336 C 0.59099 0.82978 0.77949 0.0
C337 C 0.56832 0.83074 0.79273 0.0
C338 C 0.59089 0.81265 0.7353 0.0
C339 C 0.5681 0.79589 0.70289 0.0
C340 C 0.54546 0.79702 0.71599 0.0
C341 C 0.54558 0.81417 0.7602 0.0
C342 C 0.54597 0.73507 0.6046 0.0
C343 C 0.56738 0.74241 0.56588 0.0
C344 C 0.54623 0.75226 0.64887 0.0
C345 C 0.56794 0.77737 0.6559 0.0
C346 C 0.58946 0.78457 0.61744 0.0
C347 C 0.58917 0.76738 0.57312 0.0
H348 H 0.7205 0.52756 0.10688 0.0
H349 H 0.77711 0.60687 0.15121 0.0
H350 H 0.74903 0.52752 0.02704 0.0
H351 H 0.80583 0.60678 0.07195 0.0
H352 H 0.83974 0.60618 0.88401 0.0
H353 H 0.8111 0.60644 0.96327 0.0
H354 H 0.78922 0.52757 1.01081 0.0
H355 H 0.81761 0.52725 0.93096 0.0
C356 C 0.73905 0.54501 0.09969 0.0
C357 C 0.74641 0.56722 0.1357 0.0
C358 C 0.75556 0.54494 0.05401 0.0
C359 C 0.77993 0.56713 0.04267 0.0
C360 C 0.78717 0.5894 0.07855 0.0
C361 C 0.77071 0.58942 0.1244 0.0
C362 C 0.82886 0.58889 0.9114 0.0
C363 C 0.83107 0.56669 0.90083 0.0
C364 C 0.81247 0.58907 0.95725 0.0
C365 C 0.79766 0.56702 0.99386 0.0
C366 C 0.79995 0.54483 0.98326 0.0
C367 C 0.81643 0.54469 0.93757 0.0
H368 H 0.19836 0.71875 0.4374 0.0
H369 H 0.1766 0.77535 0.48908 0.0
H370 H 0.22824 0.74886 0.36161 0.0
H371 H 0.20679 0.80569 0.41406 0.0
H372 H 0.24457 0.84394 0.23175 0.0
H373 H 0.21434 0.81399 0.30715 0.0
H374 H 0.26899 0.78871 0.35139 0.0
H375 H 0.29901 0.81837 0.27505 0.0
C376 C 0.19991 0.73761 0.43259 0.0
C377 C 0.18497 0.74453 0.4695 0.0
C378 C 0.21726 0.75504 0.38934 0.0
C379 C 0.2202 0.77993 0.38152 0.0
C380 C 0.20498 0.78668 0.41804 0.0
C381 C 0.18768 0.76927 0.4614 0.0
C382 C 0.25024 0.83211 0.25777 0.0
C383 C 0.27432 0.83367 0.24715 0.0
C384 C 0.23287 0.81493 0.30135 0.0
C385 C 0.23902 0.7987 0.33566 0.0
C386 C 0.26328 0.80051 0.32542 0.0
C387 C 0.28067 0.81774 0.28187 0.0
H388 H 0.40739 0.17036 0.80309 0.0
H389 H 0.48874 0.19887 0.76958 0.0
H390 H 0.40754 0.20025 0.72702 0.0
H391 H 0.48882 0.22845 0.69233 0.0
H392 H 0.40995 0.23817 0.54363 0.0
H393 H 0.4098 0.20858 0.62064 0.0
H394 H 0.48659 0.26723 0.67764 0.0
H395 H 0.4869 0.29659 0.59962 0.0
C396 C 0.42532 0.1829 0.77922 0.0
C397 C 0.44806 0.18212 0.79268 0.0
C398 C 0.42538 0.20003 0.73515 0.0
C399 C 0.44819 0.21695 0.70303 0.0
C400 C 0.47094 0.21608 0.71648 0.0
C401 C 0.47087 0.19893 0.76062 0.0
C402 C 0.42679 0.24482 0.57271 0.0
C403 C 0.44844 0.26985 0.56519 0.0
C404 C 0.42667 0.22783 0.61727 0.0
C405 C 0.44821 0.23531 0.65578 0.0
C406 C 0.46978 0.26048 0.64849 0.0
C407 C 0.46988 0.27748 0.60391 0.0
H408 H 0.21763 0.45963 0.68444 0.0
H409 H 0.18651 0.49196 0.55643 0.0
H410 H 0.2528 0.4686 0.61358 0.0
H411 H 0.2218 0.50143 0.48606 0.0
H412 H 0.25209 0.45937 0.35389 0.0
H413 H 0.22723 0.46995 0.42534 0.0
H414 H 0.29066 0.4987 0.55368 0.0
H415 H 0.31511 0.48765 0.48279 0.0
C416 C 0.219 0.46966 0.64231 0.0
C417 C 0.19932 0.47479 0.6253 0.0
C418 C 0.23907 0.4748 0.60158 0.0
C419 C 0.23973 0.4853 0.54369 0.0
C420 C 0.22147 0.49285 0.52971 0.0
C421 C 0.20141 0.48758 0.57011 0.0
C422 C 0.26097 0.46879 0.39644 0.0
C423 C 0.28521 0.47234 0.41344 0.0
C424 C 0.24682 0.47488 0.43746 0.0
C425 C 0.25689 0.48475 0.49564 0.0
C426 C 0.28222 0.49064 0.5098 0.0
C427 C 0.29622 0.48443 0.46913 0.0
H428 H 0.80916 0.30226 0.76106 0.0
H429 H 0.81442 0.23514 0.7082 0.0
H430 H 0.77816 0.27671 0.84139 0.0
H431 H 0.78373 0.2097 0.78837 0.0
H432 H 0.7738 0.1924 0.98829 0.0
H433 H 0.79801 0.22234 0.90583 0.0
H434 H 0.73159 0.23058 0.8638 0.0
H435 H 0.70724 0.20029 0.9465 0.0
C436 C 0.80251 0.28167 0.7646 0.0
C437 C 0.81368 0.27038 0.72839 0.0
C438 C 0.78513 0.26723 0.81085 0.0
C439 C 0.77924 0.24158 0.82151 0.0
C440 C 0.78839 0.22962 0.78124 0.0
C441 C 0.80553 0.24396 0.73486 0.0
C442 C 0.76488 0.20162 0.9633 0.0
C443 C 0.73898 0.19457 0.97389 0.0
C444 C 0.77847 0.21831 0.91562 0.0
C445 C 0.76629 0.22811 0.878 0.0
C446 C 0.74121 0.22307 0.89222 0.0
C447 C 0.72749 0.20612 0.9398 0.0
H448 H 0.60061 0.83684 0.10012 0.0
H449 H 0.52046 0.80316 0.04546 0.0
H450 H 0.58811 0.80422 0.17935 0.0
H451 H 0.50775 0.77014 0.12575 0.0
H452 H 0.51628 0.7024 0.23096 0.0
H453 H 0.51597 0.73277 0.15677 0.0
H454 H 0.56258 0.79657 0.27795 0.0
H455 H 0.56288 0.76607 0.35209 0.0
C456 C 0.58034 0.82203 0.10441 0.0
C457 C 0.56148 0.82239 0.06693 0.0
C458 C 0.57313 0.8037 0.1504 0.0
C459 C 0.54687 0.78536 0.16001 0.0
C460 C 0.52808 0.78441 0.1197 0.0
C461 C 0.53536 0.80294 0.07333 0.0
C462 C 0.5253 0.72281 0.24285 0.0
C463 C 0.53981 0.73208 0.29665 0.0
C464 C 0.52521 0.74015 0.20035 0.0
C465 C 0.53987 0.76695 0.21111 0.0
C466 C 0.55151 0.77592 0.26836 0.0
C467 C 0.5514 0.75852 0.31113 0.0
H468 H 0.70096 0.52233 0.47888 0.0
H469 H 0.76556 0.55315 0.35405 0.0
H470 H 0.72501 0.511 0.55026 0.0
H471 H 0.78995 0.54214 0.42588 0.0
H472 H 0.83018 0.5204 0.55832 0.0
H473 H 0.79498 0.50996 0.48693 0.0
H474 H 0.76252 0.5424 0.61162 0.0
H475 H 0.79771 0.55252 0.68341 0.0
C476 C 0.72008 0.52594 0.46607 0.0
C477 C 0.73168 0.5389 0.41158 0.0
C478 C 0.73384 0.51956 0.50701 0.0
C479 C 0.75947 0.52611 0.49419 0.0
C480 C 0.77012 0.53671 0.43687 0.0
C481 C 0.75624 0.54302 0.39563 0.0
C482 C 0.81495 0.52444 0.57123 0.0
C483 C 0.81666 0.53753 0.62576 0.0
C484 C 0.79495 0.51859 0.53027 0.0
C485 C 0.77635 0.5258 0.54315 0.0
C486 C 0.77656 0.53647 0.60057 0.0
C487 C 0.79662 0.54226 0.64181 0.0
H488 H 0.20783 0.7717 0.69955 0.0
H489 H 0.20005 0.70325 0.7872 0.0
H490 H 0.23765 0.79879 0.77956 0.0
H491 H 0.23022 0.73036 0.86696 0.0
H492 H 0.30074 0.80527 0.97445 0.0
H493 H 0.27862 0.77366 0.8922 0.0
H494 H 0.21758 0.79291 0.89284 0.0
H495 H 0.23953 0.82418 0.97441 0.0
C496 C 0.21375 0.76267 0.73393 0.0
C497 C 0.20194 0.73558 0.73749 0.0
C498 C 0.23045 0.77804 0.78008 0.0
C499 C 0.23562 0.76642 0.8297 0.0
C500 C 0.22638 0.73963 0.82916 0.0
C501 C 0.20937 0.72422 0.78341 0.0
C502 C 0.28195 0.80167 0.95885 0.0
C503 C 0.27152 0.81673 0.98076 0.0
C504 C 0.2696 0.78402 0.91135 0.0
C505 C 0.24697 0.78166 0.88539 0.0
C506 C 0.23541 0.79499 0.91132 0.0
C507 C 0.24763 0.81243 0.95862 0.0
H508 H 0.41514 0.17046 0.10797 0.0
H509 H 0.49434 0.2072 0.04411 0.0
H510 H 0.42788 0.20295 0.18749 0.0
H511 H 0.50736 0.24004 0.12491 0.0
H512 H 0.49812 0.30677 0.22957 0.0
H513 H 0.49879 0.27601 0.15731 0.0
H514 H 0.45434 0.21331 0.28292 0.0
H515 H 0.45349 0.24424 0.35496 0.0
C516 C 0.43526 0.18582 0.11056 0.0
C517 C 0.45378 0.18644 0.07012 0.0
C518 C 0.44265 0.2041 0.15674 0.0
C519 C 0.46878 0.22337 0.16372 0.0
C520 C 0.48716 0.22507 0.12096 0.0
C521 C 0.47968 0.20662 0.07433 0.0
C522 C 0.48966 0.28657 0.24283 0.0
C523 C 0.47548 0.27766 0.29715 0.0
C524 C 0.48997 0.26897 0.20143 0.0
C525 C 0.47593 0.24228 0.21389 0.0
C526 C 0.46485 0.23384 0.27188 0.0
C527 C 0.46466 0.2515 0.31348 0.0
H528 H 0.3786 0.52263 0.28957 0.0
H529 H 0.41293 0.48058 0.37021 0.0
H530 H 0.41937 0.5635 0.30444 0.0
H531 H 0.45371 0.5214 0.38425 0.0
H532 H 0.52886 0.59879 0.3291 0.0
H533 H 0.48871 0.55732 0.31638 0.0
H534 H 0.44552 0.5897 0.4001 0.0
H535 H 0.4858 0.63126 0.4136 0.0
C536 C 0.39496 0.52206 0.30948 0.0
C537 C 0.39257 0.49837 0.3286 0.0
C538 C 0.41816 0.54546 0.31863 0.0
C539 C 0.43957 0.54559 0.34601 0.0
C540 C 0.4375 0.52184 0.36305 0.0
C541 C 0.41418 0.49851 0.35495 0.0
C542 C 0.51085 0.59697 0.34557 0.0
C543 C 0.51049 0.61827 0.37249 0.0
C544 C 0.4879 0.57324 0.33826 0.0
C545 C 0.46403 0.5704 0.35676 0.0
C546 C 0.46367 0.59149 0.38487 0.0
C547 C 0.48673 0.61514 0.39321 0.0
H548 H 0.88038 0.49688 0.78982 0.0
H549 H 0.91362 0.51752 0.60972 0.0
H550 H 0.87943 0.45533 0.78152 0.0
H551 H 0.9126 0.4762 0.60179 0.0
H552 H 0.87791 0.38729 0.58507 0.0
H553 H 0.87903 0.42888 0.59405 0.0
H554 H 0.9109 0.43893 0.77467 0.0
H555 H 0.90981 0.3976 0.76614 0.0
C556 C 0.88765 0.4927 0.74874 0.0
C557 C 0.89716 0.51065 0.70063 0.0
C558 C 0.88713 0.46891 0.74401 0.0
C559 C 0.89581 0.46246 0.69081 0.0
C560 C 0.90548 0.48047 0.64301 0.0
C561 C 0.90628 0.5043 0.64795 0.0
C562 C 0.88525 0.3984 0.62659 0.0
C563 C 0.89383 0.38904 0.67471 0.0
C564 C 0.88594 0.42225 0.63168 0.0
C565 C 0.89499 0.43713 0.68518 0.0
C566 C 0.90355 0.42778 0.73318 0.0
C567 C 0.90309 0.40413 0.72795 0.0
H568 H 0.52061 0.91112 0.0935 0.0
H569 H 0.49713 0.87524 0.91648 0.0
H570 H 0.47955 0.91055 0.10359 0.0
H571 H 0.45594 0.87464 0.92699 0.0
H572 H 0.39986 0.90675 0.94005 0.0
H573 H 0.44061 0.90673 0.93105 0.0
H574 H 0.43216 0.8785 0.11506 0.0
H575 H 0.39122 0.87856 0.12448 0.0
C576 C 0.50675 0.90314 0.05662 0.0
C577 C 0.5123 0.8933 1.00399 0.0
C578 C 0.4831 0.90265 0.06271 0.0
C579 C 0.46449 0.89254 1.01616 0.0
C580 C 0.47001 0.88278 0.96345 0.0
C581 C 0.49359 0.88305 0.95753 0.0
C582 C 0.40664 0.90061 0.97884 0.0
C583 C 0.39219 0.8927 0.03313 0.0
C584 C 0.42995 0.90041 0.97339 0.0
C585 C 0.43957 0.89253 0.02222 0.0
C586 C 0.42533 0.88486 0.07675 0.0
C587 C 0.40182 0.88481 0.08206 0.0
H588 H 0.62731 0.49856 0.24743 0.0
H589 H 0.6158 0.51905 0.42872 0.0
H590 H 0.58655 0.45724 0.25592 0.0
H591 H 0.57531 0.4779 0.43687 0.0
H592 H 0.52024 0.38852 0.45037 0.0
H593 H 0.56091 0.43005 0.44264 0.0
H594 H 0.53884 0.44211 0.26412 0.0
H595 H 0.49845 0.40098 0.27144 0.0
C596 C 0.61607 0.49438 0.28884 0.0
C597 C 0.62484 0.51225 0.33718 0.0
C598 C 0.59272 0.47073 0.29369 0.0
C599 C 0.57781 0.46432 0.34721 0.0
C600 C 0.58652 0.48218 0.39537 0.0
C601 C 0.60964 0.50589 0.39031 0.0
C602 C 0.52398 0.4001 0.40967 0.0
C603 C 0.50596 0.39135 0.3617 0.0
C604 C 0.54725 0.42389 0.40528 0.0
C605 C 0.55308 0.43924 0.35259 0.0
C606 C 0.53503 0.43057 0.30493 0.0
C607 C 0.51174 0.40703 0.30951 0.0
H608 H 0.15609 0.63407 0.62346 0.0
H609 H 0.08094 0.60166 0.70963 0.0
H610 H 0.15509 0.59264 0.63737 0.0
H611 H 0.07987 0.5603 0.72268 0.0
H612 H 0.07903 0.48363 0.66666 0.0
H613 H 0.07889 0.52443 0.65366 0.0
H614 H 0.15533 0.56647 0.73335 0.0
H615 H 0.15539 0.52559 0.74726 0.0
C616 C 0.13919 0.618 0.64437 0.0
C617 C 0.11857 0.6211 0.66534 0.0
C618 C 0.13876 0.59442 0.65292 0.0
C619 C 0.11749 0.57338 0.68151 0.0
C620 C 0.09648 0.57619 0.70045 0.0
C621 C 0.09712 0.59986 0.69294 0.0
C622 C 0.09567 0.50154 0.68215 0.0
C623 C 0.11719 0.50139 0.70816 0.0
C624 C 0.09558 0.52486 0.67465 0.0
C625 C 0.1172 0.54858 0.69195 0.0
C626 C 0.13853 0.54844 0.71902 0.0
C627 C 0.13843 0.52504 0.7276 0.0
H628 H 0.63429 0.15346 0.08346 0.0
H629 H 0.60107 0.07819 0.99713 0.0
H630 H 0.59321 0.15308 0.06962 0.0
H631 H 0.56003 0.07772 0.9842 0.0
H632 H 0.48382 0.0769 0.03903 0.0
H633 H 0.52459 0.07705 0.05412 0.0
H634 H 0.56678 0.15355 0.97443 0.0
H635 H 0.52592 0.15336 0.95848 0.0
C636 C 0.61813 0.1367 0.06234 0.0
C637 C 0.6209 0.11584 0.04144 0.0
C638 C 0.59474 0.1366 0.05393 0.0
C639 C 0.57352 0.11542 0.02561 0.0
C640 C 0.57606 0.09425 1.00634 0.0
C641 C 0.59955 0.09456 1.01367 0.0
C642 C 0.50177 0.09372 0.02444 0.0
C643 C 0.50163 0.11511 0.99747 0.0
C644 C 0.52507 0.09375 0.03298 0.0
C645 C 0.54881 0.11536 1.01576 0.0
C646 C 0.54874 0.13674 0.98863 0.0
C647 C 0.52535 0.13652 0.97903 0.0
loop_
_geom_bond_atom_site_label_1
_geom_bond_atom_site_label_2
_geom_bond_distance
_geom_bond_site_symmetry_2
_ccdc_geom_bond_type
Co0 O1 2.216 . S
Co0 O2 2.091 . S
Co0 O4 2.004 . S
Co0 O10 2.021 . S
Co0 O12 2.137 . S
Co0 O13 2.244 . S
O1 Co0 2.216 . S
O1 C8 1.247 . S
O2 Co0 2.091 . S
O2 C8 1.261 . S
C3 O12 1.247 . S
C3 O13 1.272 . S
O4 Co0 2.004 . S
O4 C9 1.259 . S
Co5 O6 2.061 . S
Co5 O11 2.052 . S
Co5 O13 2.135 . S
O6 Co5 2.061 . S
O6 C9 1.235 . S
C7 O10 1.238 . S
C7 O11 1.241 . S
C8 O1 1.247 . S
C8 O2 1.261 . S
C9 O4 1.259 . S
C9 O6 1.235 . S
O10 Co0 2.021 . S
O10 C7 1.238 . S
O11 Co5 2.052 . S
O11 C7 1.241 . S
O12 Co0 2.137 . S
O12 C3 1.247 . S
O13 Co0 2.244 . S
O13 C3 1.272 . S
O13 Co5 2.135 . S
Co14 O15 2.216 . S
Co14 O16 2.091 . S
Co14 O18 2.004 . S
Co14 O24 2.021 . S
Co14 O26 2.137 . S
Co14 O27 2.244 . S
O15 Co14 2.216 . S
O15 C22 1.247 . S
O16 Co14 2.091 . S
O16 C22 1.261 . S
C17 O26 1.247 . S
C17 O27 1.272 . S
O18 Co14 2.004 . S
O18 C23 1.259 . S
Co19 O20 2.061 . S
Co19 O25 2.052 . S
Co19 O27 2.135 . S
O20 Co19 2.061 . S
O20 C23 1.235 . S
C21 O24 1.238 . S
C21 O25 1.241 . S
C22 O15 1.247 . S
C22 O16 1.261 . S
C23 O18 1.259 . S
C23 O20 1.235 . S
O24 Co14 2.021 . S
O24 C21 1.238 . S
O25 Co19 2.052 . S
O25 C21 1.241 . S
O26 Co14 2.137 . S
O26 C17 1.247 . S
O27 Co14 2.244 . S
O27 C17 1.272 . S
O27 Co19 2.135 . S
Co28 O29 2.216 . S
Co28 O30 2.091 . S
Co28 O32 2.004 . S
Co28 O38 2.021 . S
Co28 O40 2.137 . S
Co28 O41 2.244 . S
O29 Co28 2.216 . S
O29 C36 1.247 . S
O30 Co28 2.091 . S
O30 C36 1.261 . S
C31 O40 1.247 . S
C31 O41 1.272 . S
O32 Co28 2.004 . S
O32 C37 1.259 . S
Co33 O34 2.061 . S
Co33 O39 2.052 . S
Co33 O41 2.135 1_554 S
O34 Co33 2.061 . S
O34 C37 1.235 1_554 S
C35 O38 1.238 1_554 S
C35 O39 1.241 . S
C36 O29 1.247 . S
C36 O30 1.261 . S
C37 O32 1.259 . S
C37 O34 1.235 1_556 S
O38 Co28 2.021 . S
O38 C35 1.238 1_556 S
O39 Co33 2.052 . S
O39 C35 1.241 . S
O40 Co28 2.137 . S
O40 C31 1.247 . S
O41 Co28 2.244 . S
O41 C31 1.272 . S
O41 Co33 2.135 1_556 S
Co42 O43 2.216 . S
Co42 O44 2.091 . S
Co42 O46 2.004 . S
Co42 O52 2.021 . S
Co42 O54 2.137 . S
Co42 O55 2.244 . S
O43 Co42 2.216 . S
O43 C50 1.247 . S
O44 Co42 2.091 . S
O44 C50 1.261 . S
C45 O54 1.247 . S
C45 O55 1.272 . S
O46 Co42 2.004 . S
O46 C51 1.259 . S
Co47 O48 2.061 . S
Co47 O53 2.052 . S
Co47 O55 2.135 . S
O48 Co47 2.061 . S
O48 C51 1.235 . S
C49 O52 1.238 . S
C49 O53 1.241 . S
C50 O43 1.247 . S
C50 O44 1.261 . S
C51 O46 1.259 . S
C51 O48 1.235 . S
O52 Co42 2.021 . S
O52 C49 1.238 . S
O53 Co47 2.052 . S
O53 C49 1.241 . S
O54 Co42 2.137 . S
O54 C45 1.247 . S
O55 Co42 2.244 . S
O55 C45 1.272 . S
O55 Co47 2.135 . S
Co56 O57 2.216 . S
Co56 O58 2.091 . S
Co56 O60 2.004 . S
Co56 O66 2.021 . S
Co56 O68 2.137 . S
Co56 O69 2.244 . S
O57 Co56 2.216 . S
O57 C64 1.247 . S
O58 Co56 2.091 . S
O58 C64 1.261 . S
C59 O68 1.247 . S
C59 O69 1.272 . S
O60 Co56 2.004 . S
O60 C65 1.259 . S
Co61 O62 2.061 . S
Co61 O67 2.052 . S
Co61 O69 2.135 . S
O62 Co61 2.061 . S
O62 C65 1.235 . S
C63 O66 1.238 . S
C63 O67 1.241 . S
C64 O57 1.247 . S
C64 O58 1.261 . S
C65 O60 1.259 . S
C65 O62 1.235 . S
O66 Co56 2.021 . S
O66 C63 1.238 . S
O67 Co61 2.052 . S
O67 C63 1.241 . S
O68 Co56 2.137 . S
O68 C59 1.247 . S
O69 Co56 2.244 . S
O69 C59 1.272 . S
O69 Co61 2.135 . S
Co70 O71 2.216 . S
Co70 O72 2.091 . S
Co70 O74 2.004 . S
Co70 O80 2.021 . S
Co70 O82 2.137 . S
Co70 O83 2.244 . S
O71 Co70 2.216 . S
O71 C78 1.247 . S
O72 Co70 2.091 . S
O72 C78 1.261 . S
C73 O82 1.247 . S
C73 O83 1.272 . S
O74 Co70 2.004 . S
O74 C79 1.259 . S
Co75 O76 2.061 . S
Co75 O81 2.052 . S
Co75 O83 2.135 1_554 S
O76 Co75 2.061 . S
O76 C79 1.235 1_554 S
C77 O80 1.238 1_554 S
C77 O81 1.241 . S
C78 O71 1.247 . S
C78 O72 1.261 . S
C79 O74 1.259 . S
C79 O76 1.235 1_556 S
O80 Co70 2.021 . S
O80 C77 1.238 1_556 S
O81 Co75 2.052 . S
O81 C77 1.241 . S
O82 Co70 2.137 . S
O82 C73 1.247 . S
O83 Co70 2.244 . S
O83 C73 1.272 . S
O83 Co75 2.135 1_556 S
Co84 O85 2.216 . S
Co84 O86 2.091 . S
Co84 O88 2.004 . S
Co84 O94 2.021 . S
Co84 O96 2.137 . S
Co84 O97 2.244 . S
O85 Co84 2.216 . S
O85 C92 1.247 . S
O86 Co84 2.091 . S
O86 C92 1.261 . S
C87 O96 1.247 . S
C87 O97 1.272 . S
O88 Co84 2.004 . S
O88 C93 1.259 . S
Co89 O90 2.061 . S
Co89 O95 2.052 . S
Co89 O97 2.135 . S
O90 Co89 2.061 . S
O90 C93 1.235 . S
C91 O94 1.238 . S
C91 O95 1.241 . S
C92 O85 1.247 . S
C92 O86 1.261 . S
C93 O88 1.259 . S
C93 O90 1.235 . S
O94 Co84 2.021 . S
O94 C91 1.238 . S
O95 Co89 2.052 . S
O95 C91 1.241 . S
O96 Co84 2.137 . S
O96 C87 1.247 . S
O97 Co84 2.244 . S
O97 C87 1.272 . S
O97 Co89 2.135 . S
Co98 O99 2.216 . S
Co98 O100 2.091 . S
Co98 O102 2.004 . S
Co98 O108 2.021 . S
Co98 O110 2.137 . S
Co98 O111 2.244 . S
O99 Co98 2.216 . S
O99 C106 1.247 . S
O100 Co98 2.091 . S
O100 C106 1.261 . S
C101 O110 1.247 . S
C101 O111 1.272 . S
O102 Co98 2.004 . S
O102 C107 1.259 . S
Co103 O104 2.061 . S
Co103 O109 2.052 . S
Co103 O111 2.135 . S
O104 Co103 2.061 . S
O104 C107 1.235 . S
C105 O108 1.238 . S
C105 O109 1.241 . S
C106 O99 1.247 . S
C106 O100 1.261 . S
C107 O102 1.259 . S
C107 O104 1.235 . S
O108 Co98 2.021 . S
O108 C105 1.238 . S
O109 Co103 2.052 . S
O109 C105 1.241 . S
O110 Co98 2.137 . S
O110 C101 1.247 . S
O111 Co98 2.244 . S
O111 C101 1.272 . S
O111 Co103 2.135 . S
Co112 O113 2.216 . S
Co112 O114 2.091 . S
Co112 O116 2.004 . S
Co112 O122 2.021 . S
Co112 O124 2.137 . S
Co112 O125 2.244 . S
O113 Co112 2.216 . S
O113 C120 1.247 . S
O114 Co112 2.091 . S
O114 C120 1.261 . S
C115 O124 1.247 . S
C115 O125 1.272 . S
O116 Co112 2.004 . S
O116 C121 1.259 . S
Co117 O118 2.061 . S
Co117 O123 2.052 . S
Co117 O125 2.135 1_556 S
O118 Co117 2.061 . S
O118 C121 1.235 1_556 S
C119 O122 1.238 1_556 S
C119 O123 1.241 . S
C120 O113 1.247 . S
C120 O114 1.261 . S
C121 O116 1.259 . S
C121 O118 1.235 1_554 S
O122 Co112 2.021 . S
O122 C119 1.238 1_554 S
O123 Co117 2.052 . S
O123 C119 1.241 . S
O124 Co112 2.137 . S
O124 C115 1.247 . S
O125 Co112 2.244 . S
O125 C115 1.272 . S
O125 Co117 2.135 1_554 S
Co126 O127 2.216 . S
Co126 O128 2.091 . S
Co126 O130 2.004 . S
Co126 O136 2.021 . S
Co126 O138 2.137 . S
Co126 O139 2.244 . S
O127 Co126 2.216 . S
O127 C134 1.247 . S
O128 Co126 2.091 . S
O128 C134 1.261 . S
C129 O138 1.247 . S
C129 O139 1.272 . S
O130 Co126 2.004 . S
O130 C135 1.259 . S
Co131 O132 2.061 . S
Co131 O137 2.052 . S
Co131 O139 2.135 . S
O132 Co131 2.061 . S
O132 C135 1.235 . S
C133 O136 1.238 . S
C133 O137 1.241 . S
C134 O127 1.247 . S
C134 O128 1.261 . S
C135 O130 1.259 . S
C135 O132 1.235 . S
O136 Co126 2.021 . S
O136 C133 1.238 . S
O137 Co131 2.052 . S
O137 C133 1.241 . S
O138 Co126 2.137 . S
O138 C129 1.247 . S
O139 Co126 2.244 . S
O139 C129 1.272 . S
O139 Co131 2.135 . S
Co140 O141 2.216 . S
Co140 O142 2.091 . S
Co140 O144 2.004 . S
Co140 O150 2.021 . S
Co140 O152 2.137 . S
Co140 O153 2.244 . S
O141 Co140 2.216 . S
O141 C148 1.247 . S
O142 Co140 2.091 . S
O142 C148 1.261 . S
C143 O152 1.247 . S
C143 O153 1.272 . S
O144 Co140 2.004 . S
O144 C149 1.259 . S
Co145 O146 2.061 . S
Co145 O151 2.052 . S
Co145 O153 2.135 . S
O146 Co145 2.061 . S
O146 C149 1.235 . S
C147 O150 1.238 . S
C147 O151 1.241 . S
C148 O141 1.247 . S
C148 O142 1.261 . S
C149 O144 1.259 . S
C149 O146 1.235 . S
O150 Co140 2.021 . S
O150 C147 1.238 . S
O151 Co145 2.052 . S
O151 C147 1.241 . S
O152 Co140 2.137 . S
O152 C143 1.247 . S
O153 Co140 2.244 . S
O153 C143 1.272 . S
O153 Co145 2.135 . S
Co154 O155 2.216 . S
Co154 O156 2.091 . S
Co154 O158 2.004 . S
Co154 O164 2.021 . S
Co154 O166 2.137 . S
Co154 O167 2.244 . S
O155 Co154 2.216 . S
O155 C162 1.247 . S
O156 Co154 2.091 . S
O156 C162 1.261 . S
C157 O166 1.247 . S
C157 O167 1.272 . S
O158 Co154 2.004 . S
O158 C163 1.259 . S
Co159 O160 2.061 . S
Co159 O165 2.052 . S
Co159 O167 2.135 1_556 S
O160 Co159 2.061 . S
O160 C163 1.235 1_556 S
C161 O164 1.238 1_556 S
C161 O165 1.241 . S
C162 O155 1.247 . S
C162 O156 1.261 . S
C163 O158 1.259 . S
C163 O160 1.235 1_554 S
O164 Co154 2.021 . S
O164 C161 1.238 1_554 S
O165 Co159 2.052 . S
O165 C161 1.241 . S
O166 Co154 2.137 . S
O166 C157 1.247 . S
O167 Co154 2.244 . S
O167 C157 1.272 . S
O167 Co159 2.135 1_554 S
H168 C176 0.950 . S
H169 C181 0.950 . S
H170 C178 0.950 . S
H171 C180 0.950 . S
H172 C182 0.950 . S
H173 C184 0.950 . S
H174 C186 0.950 . S
H175 C187 0.950 . S
C176 H168 0.950 . S
C176 C177 1.386 . S
C176 C178 1.391 . S
C177 C176 1.386 . S
C177 C181 1.393 . S
C178 H170 0.950 . S
C178 C176 1.391 . S
C178 C179 1.400 . S
C179 C178 1.400 . S
C179 C180 1.398 . S
C179 C185 1.491 . S
C180 H171 0.950 . S
C180 C179 1.398 . S
C180 C181 1.391 . S
C181 H169 0.950 . S
C181 C177 1.393 . S
C181 C180 1.391 . S
C182 H172 0.950 . S
C182 C183 1.386 . S
C182 C184 1.391 . S
C183 C182 1.386 . S
C183 C187 1.393 . S
C184 H173 0.950 . S
C184 C182 1.391 . S
C184 C185 1.400 . S
C185 C179 1.491 . S
C185 C184 1.400 . S
C185 C186 1.398 . S
C186 H174 0.950 . S
C186 C185 1.398 . S
C186 C187 1.391 . S
C187 H175 0.950 . S
C187 C183 1.393 . S
C187 C186 1.391 . S
H188 C196 0.950 . S
H189 C201 0.950 . S
H190 C198 0.950 . S
H191 C200 0.950 . S
H192 C202 0.950 . S
H193 C204 0.950 . S
H194 C206 0.950 . S
H195 C207 0.950 . S
C196 H188 0.950 . S
C196 C197 1.386 . S
C196 C198 1.391 . S
C197 C196 1.386 . S
C197 C201 1.393 . S
C198 H190 0.950 . S
C198 C196 1.391 . S
C198 C199 1.400 . S
C199 C198 1.400 . S
C199 C200 1.398 . S
C199 C205 1.491 1_655 S
C200 H191 0.950 . S
C200 C199 1.398 . S
C200 C201 1.391 . S
C201 H189 0.950 . S
C201 C197 1.393 . S
C201 C200 1.391 . S
C202 H192 0.950 . S
C202 C203 1.386 . S
C202 C204 1.391 . S
C203 C202 1.386 . S
C203 C207 1.393 . S
C204 H193 0.950 . S
C204 C202 1.391 . S
C204 C205 1.400 . S
C205 C199 1.491 1_455 S
C205 C204 1.400 . S
C205 C206 1.398 . S
C206 H194 0.950 . S
C206 C205 1.398 . S
C206 C207 1.391 . S
C207 H195 0.950 . S
C207 C203 1.393 . S
C207 C206 1.391 . S
H208 C216 0.950 . S
H209 C221 0.950 . S
H210 C218 0.950 . S
H211 C220 0.950 1_554 S
H212 C222 0.950 . S
H213 C224 0.950 . S
H214 C226 0.950 1_556 S
H215 C227 0.950 . S
C216 H208 0.950 . S
C216 C217 1.386 . S
C216 C218 1.391 . S
C217 C216 1.386 . S
C217 C221 1.393 . S
C218 H210 0.950 . S
C218 C216 1.391 . S
C218 C219 1.400 . S
C219 C218 1.400 . S
C219 C220 1.398 . S
C219 C225 1.491 1_566 S
C220 H211 0.950 1_556 S
C220 C219 1.398 . S
C220 C221 1.391 . S
C221 H209 0.950 . S
C221 C217 1.393 . S
C221 C220 1.391 . S
C222 H212 0.950 . S
C222 C223 1.386 . S
C222 C224 1.391 . S
C223 C222 1.386 . S
C223 C227 1.393 . S
C224 H213 0.950 . S
C224 C222 1.391 . S
C224 C225 1.400 . S
C225 C219 1.491 1_544 S
C225 C224 1.400 . S
C225 C226 1.398 . S
C226 H214 0.950 1_554 S
C226 C225 1.398 . S
C226 C227 1.391 . S
C227 H215 0.950 . S
C227 C223 1.393 . S
C227 C226 1.391 . S
H228 C236 0.950 . S
H229 C241 0.950 . S
H230 C238 0.950 . S
H231 C240 0.950 . S
H232 C242 0.950 . S
H233 C244 0.950 . S
H234 C246 0.950 . S
H235 C247 0.950 . S
C236 H228 0.950 . S
C236 C237 1.386 . S
C236 C238 1.391 . S
C237 C236 1.386 . S
C237 C241 1.393 . S
C238 H230 0.950 . S
C238 C236 1.391 . S
C238 C239 1.400 . S
C239 C238 1.400 . S
C239 C240 1.398 . S
C239 C245 1.491 . S
C240 H231 0.950 . S
C240 C239 1.398 . S
C240 C241 1.391 . S
C241 H229 0.950 . S
C241 C237 1.393 . S
C241 C240 1.391 . S
C242 H232 0.950 . S
C242 C243 1.386 . S
C242 C244 1.391 . S
C243 C242 1.386 . S
C243 C247 1.393 . S
C244 H233 0.950 . S
C244 C242 1.391 . S
C244 C245 1.400 . S
C245 C239 1.491 . S
C245 C244 1.400 . S
C245 C246 1.398 . S
C246 H234 0.950 . S
C246 C245 1.398 . S
C246 C247 1.391 . S
C247 H235 0.950 . S
C247 C243 1.393 . S
C247 C246 1.391 . S
H248 C256 0.950 . S
H249 C261 0.950 . S
H250 C258 0.950 . S
H251 C260 0.950 . S
H252 C262 0.950 . S
H253 C264 0.950 . S
H254 C266 0.950 . S
H255 C267 0.950 . S
C256 H248 0.950 . S
C256 C257 1.386 . S
C256 C258 1.391 . S
C257 C256 1.386 . S
C257 C261 1.393 . S
C258 H250 0.950 . S
C258 C256 1.391 . S
C258 C259 1.400 . S
C259 C258 1.400 . S
C259 C260 1.398 . S
C259 C265 1.491 1_655 S
C260 H251 0.950 . S
C260 C259 1.398 . S
C260 C261 1.391 . S
C261 H249 0.950 . S
C261 C257 1.393 . S
C261 C260 1.391 . S
C262 H252 0.950 . S
C262 C263 1.386 . S
C262 C264 1.391 . S
C263 C262 1.386 . S
C263 C267 1.393 . S
C264 H253 0.950 . S
C264 C262 1.391 . S
C264 C265 1.400 . S
C265 C259 1.491 1_455 S
C265 C264 1.400 . S
C265 C266 1.398 . S
C266 H254 0.950 . S
C266 C265 1.398 . S
C266 C267 1.391 . S
C267 H255 0.950 . S
C267 C263 1.393 . S
C267 C266 1.391 . S
H268 C276 0.950 1_556 S
H269 C281 0.950 . S
H270 C278 0.950 . S
H271 C280 0.950 . S
H272 C282 0.950 1_554 S
H273 C284 0.950 . S
H274 C286 0.950 . S
H275 C287 0.950 . S
C276 H268 0.950 1_554 S
C276 C277 1.386 . S
C276 C278 1.391 1_554 S
C277 C276 1.386 . S
C277 C281 1.393 . S
C278 H270 0.950 . S
C278 C276 1.391 1_556 S
C278 C279 1.400 1_556 S
C279 C278 1.400 1_554 S
C279 C280 1.398 . S
C279 C285 1.491 1_564 S
C280 H271 0.950 . S
C280 C279 1.398 . S
C280 C281 1.391 . S
C281 H269 0.950 . S
C281 C277 1.393 . S
C281 C280 1.391 . S
C282 H272 0.950 1_556 S
C282 C283 1.386 . S
C282 C284 1.391 1_556 S
C283 C282 1.386 . S
C283 C287 1.393 . S
C284 H273 0.950 . S
C284 C282 1.391 1_554 S
C284 C285 1.400 1_554 S
C285 C279 1.491 1_546 S
C285 C284 1.400 1_556 S
C285 C286 1.398 . S
C286 H274 0.950 . S
C286 C285 1.398 . S
C286 C287 1.391 . S
C287 H275 0.950 . S
C287 C283 1.393 . S
C287 C286 1.391 . S
H288 C296 0.950 . S
H289 C301 0.950 . S
H290 C298 0.950 1_554 S
H291 C300 0.950 . S
H292 C302 0.950 . S
H293 C304 0.950 1_556 S
H294 C306 0.950 . S
H295 C307 0.950 . S
C296 H288 0.950 . S
C296 C297 1.386 . S
C296 C298 1.391 . S
C297 C296 1.386 . S
C297 C301 1.393 . S
C298 H290 0.950 1_556 S
C298 C296 1.391 . S
C298 C299 1.400 . S
C299 C298 1.400 . S
C299 C300 1.398 . S
C299 C305 1.491 1_556 S
C300 H291 0.950 . S
C300 C299 1.398 . S
C300 C301 1.391 . S
C301 H289 0.950 . S
C301 C297 1.393 . S
C301 C300 1.391 . S
C302 H292 0.950 . S
C302 C303 1.386 . S
C302 C304 1.391 . S
C303 C302 1.386 . S
C303 C307 1.393 . S
C304 H293 0.950 1_554 S
C304 C302 1.391 . S
C304 C305 1.400 . S
C305 C299 1.491 1_554 S
C305 C304 1.400 . S
C305 C306 1.398 . S
C306 H294 0.950 . S
C306 C305 1.398 . S
C306 C307 1.391 . S
C307 H295 0.950 . S
C307 C303 1.393 . S
C307 C306 1.391 . S
H308 C316 0.950 . S
H309 C321 0.950 . S
H310 C318 0.950 . S
H311 C320 0.950 . S
H312 C322 0.950 . S
H313 C324 0.950 . S
H314 C326 0.950 . S
H315 C327 0.950 . S
C316 H308 0.950 . S
C316 C317 1.386 . S
C316 C318 1.391 . S
C317 C316 1.386 . S
C317 C321 1.393 . S
C318 H310 0.950 . S
C318 C316 1.391 . S
C318 C319 1.400 . S
C319 C318 1.400 . S
C319 C320 1.398 . S
C319 C325 1.491 . S
C320 H311 0.950 . S
C320 C319 1.398 . S
C320 C321 1.391 . S
C321 H309 0.950 . S
C321 C317 1.393 . S
C321 C320 1.391 . S
C322 H312 0.950 . S
C322 C323 1.386 . S
C322 C324 1.391 . S
C323 C322 1.386 . S
C323 C327 1.393 . S
C324 H313 0.950 . S
C324 C322 1.391 . S
C324 C325 1.400 . S
C325 C319 1.491 . S
C325 C324 1.400 . S
C325 C326 1.398 . S
C326 H314 0.950 . S
C326 C325 1.398 . S
C326 C327 1.391 . S
C327 H315 0.950 . S
C327 C323 1.393 . S
C327 C326 1.391 . S
H328 C336 0.950 . S
H329 C341 0.950 . S
H330 C338 0.950 . S
H331 C340 0.950 . S
H332 C342 0.950 . S
H333 C344 0.950 . S
H334 C346 0.950 . S
H335 C347 0.950 . S
C336 H328 0.950 . S
C336 C337 1.386 . S
C336 C338 1.391 . S
C337 C336 1.386 . S
C337 C341 1.393 . S
C338 H330 0.950 . S
C338 C336 1.391 . S
C338 C339 1.400 . S
C339 C338 1.400 . S
C339 C340 1.398 . S
C339 C345 1.491 . S
C340 H331 0.950 . S
C340 C339 1.398 . S
C340 C341 1.391 . S
C341 H329 0.950 . S
C341 C337 1.393 . S
C341 C340 1.391 . S
C342 H332 0.950 . S
C342 C343 1.386 . S
C342 C344 1.391 . S
C343 C342 1.386 . S
C343 C347 1.393 . S
C344 H333 0.950 . S
C344 C342 1.391 . S
C344 C345 1.400 . S
C345 C339 1.491 . S
C345 C344 1.400 . S
C345 C346 1.398 . S
C346 H334 0.950 . S
C346 C345 1.398 . S
C346 C347 1.391 . S
C347 H335 0.950 . S
C347 C343 1.393 . S
C347 C346 1.391 . S
H348 C356 0.950 . S
H349 C361 0.950 . S
H350 C358 0.950 . S
H351 C360 0.950 1_556 S
H352 C362 0.950 . S
H353 C364 0.950 . S
H354 C366 0.950 1_554 S
H355 C367 0.950 . S
C356 H348 0.950 . S
C356 C357 1.386 . S
C356 C358 1.391 . S
C357 C356 1.386 . S
C357 C361 1.393 . S
C358 H350 0.950 . S
C358 C356 1.391 . S
C358 C359 1.400 . S
C359 C358 1.400 . S
C359 C360 1.398 . S
C359 C365 1.491 1_554 S
C360 H351 0.950 1_554 S
C360 C359 1.398 . S
C360 C361 1.391 . S
C361 H349 0.950 . S
C361 C357 1.393 . S
C361 C360 1.391 . S
C362 H352 0.950 . S
C362 C363 1.386 . S
C362 C364 1.391 . S
C363 C362 1.386 . S
C363 C367 1.393 . S
C364 H353 0.950 . S
C364 C362 1.391 . S
C364 C365 1.400 . S
C365 C359 1.491 1_556 S
C365 C364 1.400 . S
C365 C366 1.398 . S
C366 H354 0.950 1_556 S
C366 C365 1.398 . S
C366 C367 1.391 . S
C367 H355 0.950 . S
C367 C363 1.393 . S
C367 C366 1.391 . S
H368 C376 0.950 . S
H369 C381 0.950 . S
H370 C378 0.950 . S
H371 C380 0.950 . S
H372 C382 0.950 . S
H373 C384 0.950 . S
H374 C386 0.950 . S
H375 C387 0.950 . S
C376 H368 0.950 . S
C376 C377 1.386 . S
C376 C378 1.391 . S
C377 C376 1.386 . S
C377 C381 1.393 . S
C378 H370 0.950 . S
C378 C376 1.391 . S
C378 C379 1.400 . S
C379 C378 1.400 . S
C379 C380 1.398 . S
C379 C385 1.491 . S
C380 H371 0.950 . S
C380 C379 1.398 . S
C380 C381 1.391 . S
C381 H369 0.950 . S
C381 C377 1.393 . S
C381 C380 1.391 . S
C382 H372 0.950 . S
C382 C383 1.386 . S
C382 C384 1.391 . S
C383 C382 1.386 . S
C383 C387 1.393 . S
C384 H373 0.950 . S
C384 C382 1.391 . S
C384 C385 1.400 . S
C385 C379 1.491 . S
C385 C384 1.400 . S
C385 C386 1.398 . S
C386 H374 0.950 . S
C386 C385 1.398 . S
C386 C387 1.391 . S
C387 H375 0.950 . S
C387 C383 1.393 . S
C387 C386 1.391 . S
H388 C396 0.950 . S
H389 C401 0.950 . S
H390 C398 0.950 . S
H391 C400 0.950 . S
H392 C402 0.950 . S
H393 C404 0.950 . S
H394 C406 0.950 . S
H395 C407 0.950 . S
C396 H388 0.950 . S
C396 C397 1.386 . S
C396 C398 1.391 . S
C397 C396 1.386 . S
C397 C401 1.393 . S
C398 H390 0.950 . S
C398 C396 1.391 . S
C398 C399 1.400 . S
C399 C398 1.400 . S
C399 C400 1.398 . S
C399 C405 1.491 . S
C400 H391 0.950 . S
C400 C399 1.398 . S
C400 C401 1.391 . S
C401 H389 0.950 . S
C401 C397 1.393 . S
C401 C400 1.391 . S
C402 H392 0.950 . S
C402 C403 1.386 . S
C402 C404 1.391 . S
C403 C402 1.386 . S
C403 C407 1.393 . S
C404 H393 0.950 . S
C404 C402 1.391 . S
C404 C405 1.400 . S
C405 C399 1.491 . S
C405 C404 1.400 . S
C405 C406 1.398 . S
C406 H394 0.950 . S
C406 C405 1.398 . S
C406 C407 1.391 . S
C407 H395 0.950 . S
C407 C403 1.393 . S
C407 C406 1.391 . S
H408 C416 0.950 . S
H409 C421 0.950 . S
H410 C418 0.950 . S
H411 C420 0.950 . S
H412 C422 0.950 . S
H413 C424 0.950 . S
H414 C426 0.950 . S
H415 C427 0.950 . S
C416 H408 0.950 . S
C416 C417 1.386 . S
C416 C418 1.391 . S
C417 C416 1.386 . S
C417 C421 1.393 . S
C418 H410 0.950 . S
C418 C416 1.391 . S
C418 C419 1.400 . S
C419 C418 1.400 . S
C419 C420 1.398 . S
C419 C425 1.491 . S
C420 H411 0.950 . S
C420 C419 1.398 . S
C420 C421 1.391 . S
C421 H409 0.950 . S
C421 C417 1.393 . S
C421 C420 1.391 . S
C422 H412 0.950 . S
C422 C423 1.386 . S
C422 C424 1.391 . S
C423 C422 1.386 . S
C423 C427 1.393 . S
C424 H413 0.950 . S
C424 C422 1.391 . S
C424 C425 1.400 . S
C425 C419 1.491 . S
C425 C424 1.400 . S
C425 C426 1.398 . S
C426 H414 0.950 . S
C426 C425 1.398 . S
C426 C427 1.391 . S
C427 H415 0.950 . S
C427 C423 1.393 . S
C427 C426 1.391 . S
H428 C436 0.950 . S
H429 C441 0.950 . S
H430 C438 0.950 . S
H431 C440 0.950 . S
H432 C442 0.950 . S
H433 C444 0.950 . S
H434 C446 0.950 . S
H435 C447 0.950 . S
C436 H428 0.950 . S
C436 C437 1.386 . S
C436 C438 1.391 . S
C437 C436 1.386 . S
C437 C441 1.393 . S
C438 H430 0.950 . S
C438 C436 1.391 . S
C438 C439 1.400 . S
C439 C438 1.400 . S
C439 C440 1.398 . S
C439 C445 1.491 . S
C440 H431 0.950 . S
C440 C439 1.398 . S
C440 C441 1.391 . S
C441 H429 0.950 . S
C441 C437 1.393 . S
C441 C440 1.391 . S
C442 H432 0.950 . S
C442 C443 1.386 . S
C442 C444 1.391 . S
C443 C442 1.386 . S
C443 C447 1.393 . S
C444 H433 0.950 . S
C444 C442 1.391 . S
C444 C445 1.400 . S
C445 C439 1.491 . S
C445 C444 1.400 . S
C445 C446 1.398 . S
C446 H434 0.950 . S
C446 C445 1.398 . S
C446 C447 1.391 . S
C447 H435 0.950 . S
C447 C443 1.393 . S
C447 C446 1.391 . S
H448 C456 0.950 . S
H449 C461 0.950 . S
H450 C458 0.950 . S
H451 C460 0.950 . S
H452 C462 0.950 . S
H453 C464 0.950 . S
H454 C466 0.950 . S
H455 C467 0.950 . S
C456 H448 0.950 . S
C456 C457 1.386 . S
C456 C458 1.391 . S
C457 C456 1.386 . S
C457 C461 1.393 . S
C458 H450 0.950 . S
C458 C456 1.391 . S
C458 C459 1.400 . S
C459 C458 1.400 . S
C459 C460 1.398 . S
C459 C465 1.491 . S
C460 H451 0.950 . S
C460 C459 1.398 . S
C460 C461 1.391 . S
C461 H449 0.950 . S
C461 C457 1.393 . S
C461 C460 1.391 . S
C462 H452 0.950 . S
C462 C463 1.386 . S
C462 C464 1.391 . S
C463 C462 1.386 . S
C463 C467 1.393 . S
C464 H453 0.950 . S
C464 C462 1.391 . S
C464 C465 1.400 . S
C465 C459 1.491 . S
C465 C464 1.400 . S
C465 C466 1.398 . S
C466 H454 0.950 . S
C466 C465 1.398 . S
C466 C467 1.391 . S
C467 H455 0.950 . S
C467 C463 1.393 . S
C467 C466 1.391 . S
H468 C476 0.950 . S
H469 C481 0.950 . S
H470 C478 0.950 . S
H471 C480 0.950 . S
H472 C482 0.950 . S
H473 C484 0.950 . S
H474 C486 0.950 . S
H475 C487 0.950 . S
C476 H468 0.950 . S
C476 C477 1.386 . S
C476 C478 1.391 . S
C477 C476 1.386 . S
C477 C481 1.393 . S
C478 H470 0.950 . S
C478 C476 1.391 . S
C478 C479 1.400 . S
C479 C478 1.400 . S
C479 C480 1.398 . S
C479 C485 1.491 . S
C480 H471 0.950 . S
C480 C479 1.398 . S
C480 C481 1.391 . S
C481 H469 0.950 . S
C481 C477 1.393 . S
C481 C480 1.391 . S
C482 H472 0.950 . S
C482 C483 1.386 . S
C482 C484 1.391 . S
C483 C482 1.386 . S
C483 C487 1.393 . S
C484 H473 0.950 . S
C484 C482 1.391 . S
C484 C485 1.400 . S
C485 C479 1.491 . S
C485 C484 1.400 . S
C485 C486 1.398 . S
C486 H474 0.950 . S
C486 C485 1.398 . S
C486 C487 1.391 . S
C487 H475 0.950 . S
C487 C483 1.393 . S
C487 C486 1.391 . S
H488 C496 0.950 . S
H489 C501 0.950 . S
H490 C498 0.950 . S
H491 C500 0.950 . S
H492 C502 0.950 . S
H493 C504 0.950 . S
H494 C506 0.950 . S
H495 C507 0.950 . S
C496 H488 0.950 . S
C496 C497 1.386 . S
C496 C498 1.391 . S
C497 C496 1.386 . S
C497 C501 1.393 . S
C498 H490 0.950 . S
C498 C496 1.391 . S
C498 C499 1.400 . S
C499 C498 1.400 . S
C499 C500 1.398 . S
C499 C505 1.491 . S
C500 H491 0.950 . S
C500 C499 1.398 . S
C500 C501 1.391 . S
C501 H489 0.950 . S
C501 C497 1.393 . S
C501 C500 1.391 . S
C502 H492 0.950 . S
C502 C503 1.386 . S
C502 C504 1.391 . S
C503 C502 1.386 . S
C503 C507 1.393 . S
C504 H493 0.950 . S
C504 C502 1.391 . S
C504 C505 1.400 . S
C505 C499 1.491 . S
C505 C504 1.400 . S
C505 C506 1.398 . S
C506 H494 0.950 . S
C506 C505 1.398 . S
C506 C507 1.391 . S
C507 H495 0.950 . S
C507 C503 1.393 . S
C507 C506 1.391 . S
H508 C516 0.950 . S
H509 C521 0.950 . S
H510 C518 0.950 . S
H511 C520 0.950 . S
H512 C522 0.950 . S
H513 C524 0.950 . S
H514 C526 0.950 . S
H515 C527 0.950 . S
C516 H508 0.950 . S
C516 C517 1.386 . S
C516 C518 1.391 . S
C517 C516 1.386 . S
C517 C521 1.393 . S
C518 H510 0.950 . S
C518 C516 1.391 . S
C518 C519 1.400 . S
C519 C518 1.400 . S
C519 C520 1.398 . S
C519 C525 1.491 . S
C520 H511 0.950 . S
C520 C519 1.398 . S
C520 C521 1.391 . S
C521 H509 0.950 . S
C521 C517 1.393 . S
C521 C520 1.391 . S
C522 H512 0.950 . S
C522 C523 1.386 . S
C522 C524 1.391 . S
C523 C522 1.386 . S
C523 C527 1.393 . S
C524 H513 0.950 . S
C524 C522 1.391 . S
C524 C525 1.400 . S
C525 C519 1.491 . S
C525 C524 1.400 . S
C525 C526 1.398 . S
C526 H514 0.950 . S
C526 C525 1.398 . S
C526 C527 1.391 . S
C527 H515 0.950 . S
C527 C523 1.393 . S
C527 C526 1.391 . S
H528 C536 0.950 . S
H529 C541 0.950 . S
H530 C538 0.950 . S
H531 C540 0.950 . S
H532 C542 0.950 . S
H533 C544 0.950 . S
H534 C546 0.950 . S
H535 C547 0.950 . S
C536 H528 0.950 . S
C536 C537 1.386 . S
C536 C538 1.391 . S
C537 C536 1.386 . S
C537 C541 1.393 . S
C538 H530 0.950 . S
C538 C536 1.391 . S
C538 C539 1.400 . S
C539 C538 1.400 . S
C539 C540 1.398 . S
C539 C545 1.491 . S
C540 H531 0.950 . S
C540 C539 1.398 . S
C540 C541 1.391 . S
C541 H529 0.950 . S
C541 C537 1.393 . S
C541 C540 1.391 . S
C542 H532 0.950 . S
C542 C543 1.386 . S
C542 C544 1.391 . S
C543 C542 1.386 . S
C543 C547 1.393 . S
C544 H533 0.950 . S
C544 C542 1.391 . S
C544 C545 1.400 . S
C545 C539 1.491 . S
C545 C544 1.400 . S
C545 C546 1.398 . S
C546 H534 0.950 . S
C546 C545 1.398 . S
C546 C547 1.391 . S
C547 H535 0.950 . S
C547 C543 1.393 . S
C547 C546 1.391 . S
H548 C556 0.950 . S
H549 C561 0.950 . S
H550 C558 0.950 . S
H551 C560 0.950 . S
H552 C562 0.950 . S
H553 C564 0.950 . S
H554 C566 0.950 . S
H555 C567 0.950 . S
C556 H548 0.950 . S
C556 C557 1.386 . S
C556 C558 1.391 . S
C557 C556 1.386 . S
C557 C561 1.393 . S
C558 H550 0.950 . S
C558 C556 1.391 . S
C558 C559 1.400 . S
C559 C558 1.400 . S
C559 C560 1.398 . S
C559 C565 1.491 . S
C560 H551 0.950 . S
C560 C559 1.398 . S
C560 C561 1.391 . S
C561 H549 0.950 . S
C561 C557 1.393 . S
C561 C560 1.391 . S
C562 H552 0.950 . S
C562 C563 1.386 . S
C562 C564 1.391 . S
C563 C562 1.386 . S
C563 C567 1.393 . S
C564 H553 0.950 . S
C564 C562 1.391 . S
C564 C565 1.400 . S
C565 C559 1.491 . S
C565 C564 1.400 . S
C565 C566 1.398 . S
C566 H554 0.950 . S
C566 C565 1.398 . S
C566 C567 1.391 . S
C567 H555 0.950 . S
C567 C563 1.393 . S
C567 C566 1.391 . S
H568 C576 0.950 . S
H569 C581 0.950 . S
H570 C578 0.950 . S
H571 C580 0.950 . S
H572 C582 0.950 . S
H573 C584 0.950 . S
H574 C586 0.950 . S
H575 C587 0.950 . S
C576 H568 0.950 . S
C576 C577 1.386 1_554 S
C576 C578 1.391 . S
C577 C576 1.386 1_556 S
C577 C581 1.393 . S
C578 H570 0.950 . S
C578 C576 1.391 . S
C578 C579 1.400 1_554 S
C579 C578 1.400 1_556 S
C579 C580 1.398 . S
C579 C585 1.491 1_556 S
C580 H571 0.950 . S
C580 C579 1.398 . S
C580 C581 1.391 . S
C581 H569 0.950 . S
C581 C577 1.393 . S
C581 C580 1.391 . S
C582 H572 0.950 . S
C582 C583 1.386 1_556 S
C582 C584 1.391 . S
C583 C582 1.386 1_554 S
C583 C587 1.393 . S
C584 H573 0.950 . S
C584 C582 1.391 . S
C584 C585 1.400 1_556 S
C585 C579 1.491 1_554 S
C585 C584 1.400 1_554 S
C585 C586 1.398 . S
C586 H574 0.950 . S
C586 C585 1.398 . S
C586 C587 1.391 . S
C587 H575 0.950 . S
C587 C583 1.393 . S
C587 C586 1.391 . S
H588 C596 0.950 . S
H589 C601 0.950 . S
H590 C598 0.950 . S
H591 C600 0.950 . S
H592 C602 0.950 . S
H593 C604 0.950 . S
H594 C606 0.950 . S
H595 C607 0.950 . S
C596 H588 0.950 . S
C596 C597 1.386 . S
C596 C598 1.391 . S
C597 C596 1.386 . S
C597 C601 1.393 . S
C598 H590 0.950 . S
C598 C596 1.391 . S
C598 C599 1.400 . S
C599 C598 1.400 . S
C599 C600 1.398 . S
C599 C605 1.491 . S
C600 H591 0.950 . S
C600 C599 1.398 . S
C600 C601 1.391 . S
C601 H589 0.950 . S
C601 C597 1.393 . S
C601 C600 1.391 . S
C602 H592 0.950 . S
C602 C603 1.386 . S
C602 C604 1.391 . S
C603 C602 1.386 . S
C603 C607 1.393 . S
C604 H593 0.950 . S
C604 C602 1.391 . S
C604 C605 1.400 . S
C605 C599 1.491 . S
C605 C604 1.400 . S
C605 C606 1.398 . S
C606 H594 0.950 . S
C606 C605 1.398 . S
C606 C607 1.391 . S
C607 H595 0.950 . S
C607 C603 1.393 . S
C607 C606 1.391 . S
H608 C616 0.950 . S
H609 C621 0.950 . S
H610 C618 0.950 . S
H611 C620 0.950 . S
H612 C622 0.950 . S
H613 C624 0.950 . S
H614 C626 0.950 . S
H615 C627 0.950 . S
C616 H608 0.950 . S
C616 C617 1.386 . S
C616 C618 1.391 . S
C617 C616 1.386 . S
C617 C621 1.393 . S
C618 H610 0.950 . S
C618 C616 1.391 . S
C618 C619 1.400 . S
C619 C618 1.400 . S
C619 C620 1.398 . S
C619 C625 1.491 . S
C620 H611 0.950 . S
C620 C619 1.398 . S
C620 C621 1.391 . S
C621 H609 0.950 . S
C621 C617 1.393 . S
C621 C620 1.391 . S
C622 H612 0.950 . S
C622 C623 1.386 . S
C622 C624 1.391 . S
C623 C622 1.386 . S
C623 C627 1.393 . S
C624 H613 0.950 . S
C624 C622 1.391 . S
C624 C625 1.400 . S
C625 C619 1.491 . S
C625 C624 1.400 . S
C625 C626 1.398 . S
C626 H614 0.950 . S
C626 C625 1.398 . S
C626 C627 1.391 . S
C627 H615 0.950 . S
C627 C623 1.393 . S
C627 C626 1.391 . S
H628 C636 0.950 . S
H629 C641 0.950 . S
H630 C638 0.950 . S
H631 C640 0.950 . S
H632 C642 0.950 . S
H633 C644 0.950 . S
H634 C646 0.950 . S
H635 C647 0.950 . S
C636 H628 0.950 . S
C636 C637 1.386 1_556 S
C636 C638 1.391 . S
C637 C636 1.386 1_554 S
C637 C641 1.393 . S
C638 H630 0.950 . S
C638 C636 1.391 . S
C638 C639 1.400 1_556 S
C639 C638 1.400 1_554 S
C639 C640 1.398 . S
C639 C645 1.491 1_554 S
C640 H631 0.950 . S
C640 C639 1.398 . S
C640 C641 1.391 . S
C641 H629 0.950 . S
C641 C637 1.393 . S
C641 C640 1.391 . S
C642 H632 0.950 . S
C642 C643 1.386 1_554 S
C642 C644 1.391 . S
C643 C642 1.386 1_556 S
C643 C647 1.393 . S
C644 H633 0.950 . S
C644 C642 1.391 . S
C644 C645 1.400 1_554 S
C645 C639 1.491 1_556 S
C645 C644 1.400 1_556 S
C645 C646 1.398 . S
C646 H634 0.950 . S
C646 C645 1.398 . S
C646 C647 1.391 . S
C647 H635 0.950 . S
C647 C643 1.393 . S
C647 C646 1.391 . S
C177 C3 1.362 . S
C183 C129 1.369 . S
C197 C17 1.376 . S
C203 C143 1.367 . S
C217 C31 1.374 . S
C223 C157 1.379 . S
C237 C45 1.362 . S
C243 C87 1.369 . S
C257 C101 1.363 . S
C263 C59 1.371 . S
C277 C115 1.379 . S
C283 C73 1.373 . S
C297 C148 1.797 . S
C303 C8 1.790 . S
C317 C22 1.791 . S
C323 C162 1.796 . S
C337 C36 1.794 . S
C343 C92 1.792 . S
C357 C50 1.791 . S
C363 C106 1.799 . S
C377 C64 1.791 . S
C383 C120 1.799 . S
C397 C78 1.788 . S
C403 C134 1.800 . S
C417 C147 0.911 . S
C423 C7 0.912 . S
C437 C21 0.939 . S
C443 C161 0.939 . S
C457 C35 0.903 . S
C463 C91 0.903 . S
C477 C49 0.927 . S
C483 C105 0.926 . S
C497 C63 0.903 . S
C503 C119 0.903 . S
C517 C77 0.903 . S
C523 C133 0.903 . S
C537 C9 1.656 . S
C543 C93 1.658 . S
C557 C107 1.660 . S
C563 C23 1.657 . S
C577 C37 1.656 . S
C583 C121 1.661 . S
C597 C51 1.661 . S
C603 C135 1.656 . S
C617 C65 1.657 . S
C623 C149 1.658 . S
C637 C163 1.656 . S
C643 C79 1.659 . S
