# Generated by pormake.
# Topology umn, (4)-cn, num edge types: 1
# Building blocks:
#     Node 0, Type 0, BuildingBlock: KUFVIS_clean_sbu_0, # of connection points: 4
#     Node 1, Type 0, BuildingBlock: KUFVIS_clean_sbu_0, # of connection points: 4
#     Node 2, Type 0, BuildingBlock: KUFVIS_clean_sbu_0, # of connection points: 4
#     Node 3, Type 0, BuildingBlock: KUFVIS_clean_sbu_0, # of connection points: 4
#     Node 4, Type 0, BuildingBlock: KUFVIS_clean_sbu_0, # of connection points: 4
#     Node 5, Type 0, BuildingBlock: KUFVIS_clean_sbu_0, # of connection points: 4
#     Node 6, Type 0, BuildingBlock: KUFVIS_clean_sbu_0, # of connection points: 4
#     Node 7, Type 0, BuildingBlock: KUFVIS_clean_sbu_0, # of connection points: 4
#     Node 8, Type 0, BuildingBlock: KUFVIS_clean_sbu_0, # of connection points: 4
#     Node 9, Type 0, BuildingBlock: KUFVIS_clean_sbu_0, # of connection points: 4
#     Node 10, Type 0, BuildingBlock: KUFVIS_clean_sbu_0, # of connection points: 4
#     Node 11, Type 0, BuildingBlock: KUFVIS_clean_sbu_0, # of connection points: 4
#     Node 12, Type 0, BuildingBlock: KUFVIS_clean_sbu_0, # of connection points: 4
#     Node 13, Type 0, BuildingBlock: KUFVIS_clean_sbu_0, # of connection points: 4
#     Node 14, Type 0, BuildingBlock: KUFVIS_clean_sbu_0, # of connection points: 4
#     Node 15, Type 0, BuildingBlock: KUFVIS_clean_sbu_0, # of connection points: 4
#     Node 16, Type 0, BuildingBlock: KUFVIS_clean_sbu_0, # of connection points: 4
#     Node 17, Type 0, BuildingBlock: KUFVIS_clean_sbu_0, # of connection points: 4
#     Node 18, Type 0, BuildingBlock: KUFVIS_clean_sbu_0, # of connection points: 4
#     Node 19, Type 0, BuildingBlock: KUFVIS_clean_sbu_0, # of connection points: 4
#     Node 20, Type 0, BuildingBlock: KUFVIS_clean_sbu_0, # of connection points: 4
#     Node 21, Type 0, BuildingBlock: KUFVIS_clean_sbu_0, # of connection points: 4
#     Node 22, Type 0, BuildingBlock: KUFVIS_clean_sbu_0, # of connection points: 4
#     Node 23, Type 0, BuildingBlock: KUFVIS_clean_sbu_0, # of connection points: 4
#     Node 24, Type 0, BuildingBlock: KUFVIS_clean_sbu_0, # of connection points: 4
#     Node 25, Type 0, BuildingBlock: KUFVIS_clean_sbu_0, # of connection points: 4
#     Node 26, Type 0, BuildingBlock: KUFVIS_clean_sbu_0, # of connection points: 4
#     Node 27, Type 0, BuildingBlock: KUFVIS_clean_sbu_0, # of connection points: 4
#     Node 28, Type 0, BuildingBlock: KUFVIS_clean_sbu_0, # of connection points: 4
#     Node 29, Type 0, BuildingBlock: KUFVIS_clean_sbu_0, # of connection points: 4
#     Node 30, Type 0, BuildingBlock: KUFVIS_clean_sbu_0, # of connection points: 4
#     Node 31, Type 0, BuildingBlock: KUFVIS_clean_sbu_0, # of connection points: 4
#     Node 32, Type 0, BuildingBlock: KUFVIS_clean_sbu_0, # of connection points: 4
#     Node 33, Type 0, BuildingBlock: KUFVIS_clean_sbu_0, # of connection points: 4
#     Node 34, Type 0, BuildingBlock: KUFVIS_clean_sbu_0, # of connection points: 4
#     Node 35, Type 0, BuildingBlock: KUFVIS_clean_sbu_0, # of connection points: 4
#     Edge 36, Type (0, 0), None
#     Edge 37, Type (0, 0), None
#     Edge 38, Type (0, 0), None
#     Edge 39, Type (0, 0), None
#     Edge 40, Type (0, 0), None
#     Edge 41, Type (0, 0), None
#     Edge 42, Type (0, 0), None
#     Edge 43, Type (0, 0), None
#     Edge 44, Type (0, 0), None
#     Edge 45, Type (0, 0), None
#     Edge 46, Type (0, 0), None
#     Edge 47, Type (0, 0), None
#     Edge 48, Type (0, 0), None
#     Edge 49, Type (0, 0), None
#     Edge 50, Type (0, 0), None
#     Edge 51, Type (0, 0), None
#     Edge 52, Type (0, 0), None
#     Edge 53, Type (0, 0), None
#     Edge 54, Type (0, 0), None
#     Edge 55, Type (0, 0), None
#     Edge 56, Type (0, 0), None
#     Edge 57, Type (0, 0), None
#     Edge 58, Type (0, 0), None
#     Edge 59, Type (0, 0), None
#     Edge 60, Type (0, 0), None
#     Edge 61, Type (0, 0), None
#     Edge 62, Type (0, 0), None
#     Edge 63, Type (0, 0), None
#     Edge 64, Type (0, 0), None
#     Edge 65, Type (0, 0), None
#     Edge 66, Type (0, 0), None
#     Edge 67, Type (0, 0), None
#     Edge 68, Type (0, 0), None
#     Edge 69, Type (0, 0), None
#     Edge 70, Type (0, 0), None
#     Edge 71, Type (0, 0), None
#     Edge 72, Type (0, 0), None
#     Edge 73, Type (0, 0), None
#     Edge 74, Type (0, 0), None
#     Edge 75, Type (0, 0), None
#     Edge 76, Type (0, 0), None
#     Edge 77, Type (0, 0), None
#     Edge 78, Type (0, 0), None
#     Edge 79, Type (0, 0), None
#     Edge 80, Type (0, 0), None
#     Edge 81, Type (0, 0), None
#     Edge 82, Type (0, 0), None
#     Edge 83, Type (0, 0), None
#     Edge 84, Type (0, 0), None
#     Edge 85, Type (0, 0), None
#     Edge 86, Type (0, 0), None
#     Edge 87, Type (0, 0), None
#     Edge 88, Type (0, 0), None
#     Edge 89, Type (0, 0), None
#     Edge 90, Type (0, 0), None
#     Edge 91, Type (0, 0), None
#     Edge 92, Type (0, 0), None
#     Edge 93, Type (0, 0), None
#     Edge 94, Type (0, 0), None
#     Edge 95, Type (0, 0), None
#     Edge 96, Type (0, 0), None
#     Edge 97, Type (0, 0), None
#     Edge 98, Type (0, 0), None
#     Edge 99, Type (0, 0), None
#     Edge 100, Type (0, 0), None
#     Edge 101, Type (0, 0), None
#     Edge 102, Type (0, 0), None
#     Edge 103, Type (0, 0), None
#     Edge 104, Type (0, 0), None
#     Edge 105, Type (0, 0), None
#     Edge 106, Type (0, 0), None
#     Edge 107, Type (0, 0), None
# Relax obj value: 0.169
# Max RMSD: 0.236
# Mean RMSD: 0.236
data_MOF--net-umn--node1-KUFVIS_clean_sbu_0--edge1-none
_symmetry_space_group_name_H-M    P1
_symmetry_Int_Tables_number       1
_symmetry_cell_setting            triclinic
loop_
_symmetry_equiv_pos_as_xyz
'x, y, z'
_cell_length_a     36.621319
_cell_length_b     36.622589
_cell_length_c     17.526369
_cell_angle_alpha  89.98864
_cell_angle_beta   90.010587
_cell_angle_gamma 119.98517
loop_
_atom_site_label
_atom_site_type_symbol
_atom_site_fract_x
_atom_site_fract_y
_atom_site_fract_z
_atom_type_partial_charge
Mn0 Mn 0.31771 0.06203 0.24965 0.0
Mn1 Mn 0.2294 0.05984 0.32076 0.0
C2 C 0.26468 0.00129 0.29441 0.0
C3 C 0.35335 0.04735 0.14113 0.0
C4 C 0.3009 0.08536 0.40318 0.0
O5 O 0.32194 0.11261 0.20361 0.0
O6 O 0.25779 0.10481 0.2376 0.0
C7 C 0.16102 0.02466 0.18877 0.0
N8 N 0.17597 0.02739 0.26835 0.0
C9 C 0.07082 0.94727 0.30485 0.0
C10 C 0.05254 0.94139 0.22004 0.0
C11 C 0.08463 0.97085 0.15275 0.0
C12 C 0.14756 0.00271 0.3282 0.0
H13 H 0.18706 0.04748 0.15285 0.0
C14 C 0.29619 0.12604 0.20942 0.0
O15 O 0.37392 0.07094 0.19905 0.0
O16 O 0.31356 0.03372 0.14554 0.0
N17 N 0.20559 0.01951 0.41028 0.0
C18 C 0.22148 3e-05 0.4546 0.0
C19 C 0.19951 0.97489 0.51922 0.0
C20 C 0.1572 0.96229 0.53801 0.0
C21 C 0.13262 0.96943 0.48648 0.0
C22 C 0.16448 0.00395 0.41505 0.0
H23 H 0.25241 0.00462 0.443 0.0
O24 O 0.30413 0.01306 0.30575 0.0
O25 O 0.25604 0.0297 0.26993 0.0
O26 O 0.3297 0.08937 0.35693 0.0
O27 O 0.27571 0.09592 0.3806 0.0
C28 C 0.07753 0.93019 0.47677 0.0
C29 C 0.04726 0.9185 0.39031 0.0
H30 H 0.02031 0.91782 0.20737 0.0
H31 H 0.06877 0.96329 0.09711 0.0
H32 H 0.21561 0.96296 0.55415 0.0
H33 H 0.14219 0.94045 0.58467 0.0
H34 H 0.06253 0.90939 0.52473 0.0
H35 H 0.0149 0.89303 0.38949 0.0
Mn36 Mn 0.88938 0.24597 0.24983 0.0
Mn37 Mn 0.89161 0.15981 0.32087 0.0
C38 C 0.9501 0.25367 0.29482 0.0
C39 C 0.90414 0.29636 0.14135 0.0
C40 C 0.86608 0.2058 0.40332 0.0
O41 O 0.83887 0.19967 0.20354 0.0
O42 O 0.84662 0.14331 0.23779 0.0
C43 C 0.92678 0.12686 0.18851 0.0
N44 N 0.92404 0.13891 0.2682 0.0
C45 C 0.00426 0.11391 0.30419 0.0
C46 C 0.01016 0.1017 0.21926 0.0
C47 C -0.01934 0.10442 0.1521 0.0
C48 C 0.94874 0.13509 0.32792 0.0
H49 H 0.90395 0.13013 0.15271 0.0
C50 C 0.82541 0.16049 0.20947 0.0
O51 O 0.88047 0.29328 0.19917 0.0
O52 O 0.91782 0.27024 0.14584 0.0
N53 N 0.93194 0.17618 0.41033 0.0
C54 C 0.95141 0.21146 0.45481 0.0
C55 C -0.02345 0.21452 0.51938 0.0
C56 C -0.01084 0.18478 0.53793 0.0
C57 C -0.01796 0.15317 0.48621 0.0
C58 C 0.9475 0.15061 0.4149 0.0
H59 H 0.94686 0.23784 0.44332 0.0
O60 O 0.93826 0.2813 0.30619 0.0
O61 O 0.92174 0.21664 0.2702 0.0
O62 O 0.86188 0.23046 0.35699 0.0
O63 O 0.85558 0.17004 0.38092 0.0
C64 C 0.02133 0.13738 0.47621 0.0
C65 C 0.03305 0.11899 0.38956 0.0
H66 H 0.03376 0.09309 0.20642 0.0
H67 H -0.01177 0.09624 0.09637 0.0
H68 H -0.01152 0.24249 0.55444 0.0
H69 H 0.01102 0.19155 0.58456 0.0
H70 H 0.04214 0.14311 0.52413 0.0
H71 H 0.05854 0.11212 0.38858 0.0
Mn72 Mn 0.70552 0.63378 0.24979 0.0
Mn73 Mn 0.79165 0.72215 0.32078 0.0
C74 C 0.69778 0.68677 0.29473 0.0
C75 C 0.65513 0.59815 0.14132 0.0
C76 C 0.7457 0.65066 0.40327 0.0
O77 O 0.75183 0.62959 0.20351 0.0
O78 O 0.80817 0.69368 0.23769 0.0
C79 C 0.8246 0.7903 0.18844 0.0
N80 N 0.81254 0.77549 0.26812 0.0
C81 C 0.83749 0.88067 0.30412 0.0
C82 C 0.8497 0.8988 0.21919 0.0
C83 C 0.847 0.86661 0.15203 0.0
C84 C 0.81634 0.80399 0.32784 0.0
H85 H 0.82134 0.76421 0.15264 0.0
C86 C 0.79101 0.65532 0.20937 0.0
O87 O 0.65823 0.57758 0.19917 0.0
O88 O 0.68123 0.63794 0.14579 0.0
N89 N 0.77527 0.7461 0.41024 0.0
C90 C 0.73997 0.73028 0.45469 0.0
C91 C 0.73689 0.75234 0.51926 0.0
C92 C 0.76662 0.79467 0.53783 0.0
C93 C 0.79825 0.81917 0.48613 0.0
C94 C 0.80083 0.78721 0.41482 0.0
H95 H 0.71359 0.69936 0.44319 0.0
O96 O 0.67016 0.64731 0.30611 0.0
O97 O 0.73482 0.69546 0.27012 0.0
O98 O 0.72104 0.62181 0.35697 0.0
O99 O 0.78145 0.6759 0.38083 0.0
C100 C 0.81401 0.87423 0.47613 0.0
C101 C 0.8324 0.90436 0.38949 0.0
H102 H 0.8583 0.931 0.20635 0.0
H103 H 0.85519 0.88237 0.0963 0.0
H104 H 0.70892 0.7363 0.5543 0.0
H105 H 0.75985 0.80975 0.58446 0.0
H106 H 0.80827 0.8893 0.52405 0.0
H107 H 0.83924 0.93671 0.38852 0.0
Mn108 Mn 0.05231 0.32746 0.30558 0.0
Mn109 Mn 0.05015 0.23915 0.23447 0.0
C110 C -0.00836 0.27449 0.26068 0.0
C111 C 0.0376 0.36308 0.41409 0.0
C112 C 0.07564 0.31066 0.15206 0.0
O113 O 0.10287 0.33168 0.3517 0.0
O114 O 0.09512 0.26756 0.3176 0.0
C115 C 0.015 0.17085 0.36656 0.0
N116 N 0.01772 0.18576 0.28695 0.0
C117 C 0.93757 0.0806 0.25062 0.0
C118 C 0.93169 0.06237 0.33547 0.0
C119 C 0.96116 0.09449 0.40272 0.0
C120 C -0.00696 0.15732 0.22714 0.0
H121 H 0.03782 0.19691 0.40244 0.0
C122 C 0.11633 0.30595 0.34583 0.0
O123 O 0.06122 0.38366 0.3562 0.0
O124 O 0.02396 0.3233 0.40965 0.0
N125 N 0.00981 0.2153 0.14496 0.0
C126 C -0.00968 0.23116 0.10063 0.0
C127 C 0.96517 0.20917 0.03603 0.0
C128 C 0.95258 0.16685 1.01729 0.0
C129 C 0.95974 0.1423 0.06886 0.0
C130 C -0.00573 0.17419 0.14025 0.0
H131 H -0.00512 0.26209 0.1122 0.0
O132 O 0.00338 0.31393 0.24939 0.0
O133 O 0.01999 0.26578 0.28526 0.0
O134 O 0.07971 0.33947 0.19833 0.0
O135 O 0.08621 0.28546 0.17459 0.0
C136 C 0.92048 0.08722 0.07868 0.0
C137 C 0.90879 0.05699 0.1652 0.0
H138 H 0.90811 0.03015 0.3482 0.0
H139 H 0.9536 0.07867 0.45839 0.0
H140 H 0.95322 0.22524 1.00108 0.0
H141 H 0.93073 0.15182 0.97065 0.0
H142 H 0.89968 0.07219 0.03073 0.0
H143 H 0.88331 0.02464 0.16607 0.0
Mn144 Mn 0.62396 0.71519 0.30552 0.0
Mn145 Mn 0.71226 0.80134 0.23438 0.0
C146 C 0.67695 0.7075 0.26062 0.0
C147 C 0.58835 0.66486 0.41403 0.0
C148 C 0.64076 0.75532 0.152 0.0
O149 O 0.61973 0.76153 0.35165 0.0
O150 O 0.68384 0.81788 0.31752 0.0
C151 C 0.78055 0.83446 0.36648 0.0
N152 N 0.76566 0.8223 0.28687 0.0
C153 C 0.87084 0.84732 0.25055 0.0
C154 C 0.88905 0.85964 0.33541 0.0
C155 C 0.85692 0.85698 0.40265 0.0
C156 C 0.79411 0.82607 0.22706 0.0
H157 H 0.75449 0.83122 0.40235 0.0
C158 C 0.64547 0.80071 0.34581 0.0
O159 O 0.56776 0.66791 0.35615 0.0
O160 O 0.62813 0.69099 0.40959 0.0
N161 N 0.73614 0.78487 0.1449 0.0
C162 C 0.72031 0.74952 0.10061 0.0
C163 C 0.74231 0.74638 0.03601 0.0
C164 C 0.78462 0.77613 1.01724 0.0
C165 C 0.80915 0.80783 0.06879 0.0
C166 C 0.77725 0.81046 0.14016 0.0
H167 H 0.6894 0.72315 0.11221 0.0
O168 O 0.6375 0.6798 0.24934 0.0
O169 O 0.68565 0.74455 0.28519 0.0
O170 O 0.61195 0.7306 0.19827 0.0
O171 O 0.66594 0.79108 0.17449 0.0
C172 C 0.86424 0.82366 0.07861 0.0
C173 C 0.89446 0.84217 0.16513 0.0
H174 H 0.92128 0.86829 0.34814 0.0
H175 H 0.87275 0.86524 0.45832 0.0
H176 H 0.72626 0.71836 1.00109 0.0
H177 H 0.79965 0.76932 0.9706 0.0
H178 H 0.87927 0.81789 0.03067 0.0
H179 H 0.92682 0.84905 0.16601 0.0
Mn180 Mn 0.2362 0.89912 0.30539 0.0
Mn181 Mn 0.15 0.90128 0.23438 0.0
C182 C 0.24386 0.95975 0.26026 0.0
C183 C 0.28663 0.91393 0.41383 0.0
C184 C 0.19601 0.87578 0.15192 0.0
O185 O 0.18993 0.84863 0.35179 0.0
O186 O 0.13354 0.85629 0.31746 0.0
C187 C 0.1171 0.93646 0.36684 0.0
N188 N 0.1291 0.93371 0.28712 0.0
C189 C 0.10412 0.01395 0.25127 0.0
C190 C 0.09196 0.01986 0.33623 0.0
C191 C 0.09471 -0.00963 0.40335 0.0
C192 C 0.12526 0.95842 0.22743 0.0
H193 H 0.12039 0.91363 0.40262 0.0
C194 C 0.15074 0.83513 0.34582 0.0
O195 O 0.28352 0.89023 0.35604 0.0
O196 O 0.26052 0.92762 0.40932 0.0
N197 N 0.1663 0.94161 0.14491 0.0
C198 C 0.20156 0.96107 0.10037 0.0
C199 C 0.20458 -0.0138 0.03581 0.0
C200 C 0.17484 -0.00119 1.01734 0.0
C201 C 0.14326 -0.00829 0.06913 0.0
C202 C 0.14073 0.95716 0.14041 0.0
H203 H 0.22796 0.95654 0.11182 0.0
O204 O 0.27153 0.94796 0.24889 0.0
O205 O 0.20684 0.93145 0.28498 0.0
O206 O 0.22064 0.87155 0.19828 0.0
O207 O 0.16024 0.86529 0.17427 0.0
C208 C 0.1275 0.03101 0.07921 0.0
C209 C 0.10916 0.04274 0.16591 0.0
H210 H 0.08337 0.04347 0.34911 0.0
H211 H 0.08656 -0.00205 0.45911 0.0
H212 H 0.23254 -0.00186 1.00071 0.0
H213 H 0.18158 0.02066 0.97072 0.0
H214 H 0.1332 0.05182 0.0313 0.0
H215 H 0.10231 0.06824 0.16693 0.0
Mn216 Mn 0.62402 0.89918 0.80564 0.0
Mn217 Mn 0.71231 0.90134 0.73448 0.0
C218 C 0.67707 0.95992 0.76088 0.0
C219 C 0.58841 0.91388 0.91418 0.0
C220 C 0.6408 0.87583 0.6521 0.0
O221 O 0.61978 0.84859 0.85165 0.0
O222 O 0.68393 0.85638 0.81765 0.0
C223 C 0.78073 0.9365 0.86641 0.0
N224 N 0.76575 0.93379 0.78685 0.0
C225 C 0.87091 0.01388 0.75026 0.0
C226 C 0.88921 0.01975 0.83505 0.0
C227 C 0.85713 -0.0097 0.90237 0.0
C228 C 0.79415 0.95845 0.72698 0.0
H229 H 0.7547 0.91369 0.90234 0.0
C230 C 0.64553 0.83515 0.84583 0.0
O231 O 0.56783 0.8903 0.85625 0.0
O232 O 0.62819 0.92749 0.90976 0.0
N233 N 0.7361 0.94167 0.64495 0.0
C234 C 0.72021 0.96115 0.60066 0.0
C235 C 0.74216 -0.0137 0.53603 0.0
C236 C 0.78447 -0.00111 0.5172 0.0
C237 C 0.80905 -0.00827 0.56869 0.0
C238 C 0.77721 0.95722 0.64014 0.0
H239 H 0.68927 0.95656 0.61227 0.0
O240 O 0.63762 0.94817 0.74956 0.0
O241 O 0.6857 0.9315 0.78534 0.0
O242 O 0.61202 0.87185 0.69835 0.0
O243 O 0.66598 0.86526 0.67468 0.0
C244 C 0.86415 0.03096 0.57836 0.0
C245 C 0.89445 0.04264 0.66479 0.0
H246 H 0.92145 0.04331 0.8477 0.0
H247 H 0.87301 -0.00215 0.95799 0.0
H248 H 0.72607 -0.00176 0.50113 0.0
H249 H 0.79947 0.02073 0.47053 0.0
H250 H 0.87915 0.05175 0.53039 0.0
H251 H 0.92682 0.0681 0.66558 0.0
Mn252 Mn 0.05241 0.71526 0.80546 0.0
Mn253 Mn 0.05021 0.80142 0.73438 0.0
C254 C -0.00831 0.70757 0.76048 0.0
C255 C 0.03763 0.66487 0.91396 0.0
C256 C 0.07573 0.75541 0.65195 0.0
O257 O 0.10293 0.76156 0.85171 0.0
O258 O 0.09519 0.81792 0.81747 0.0
C259 C 0.01505 0.83442 0.86667 0.0
N260 N 0.01778 0.82234 0.787 0.0
C261 C 0.9376 0.84737 0.75094 0.0
C262 C 0.93171 0.85962 0.83585 0.0
C263 C 0.96119 0.8569 0.90303 0.0
C264 C -0.00691 0.82616 0.72726 0.0
H265 H 0.03788 0.83115 0.90249 0.0
C266 C 0.11639 0.80074 0.84578 0.0
O267 O 0.06129 0.66794 0.85613 0.0
O268 O 0.02397 0.69101 0.90946 0.0
N269 N 0.00988 0.78504 0.6449 0.0
C270 C -0.00959 0.74975 0.60045 0.0
C271 C 0.96526 0.74668 0.53588 0.0
C272 C 0.95266 0.77642 0.51729 0.0
C273 C 0.95979 0.80805 0.56898 0.0
C274 C -0.00567 0.81062 0.6403 0.0
H275 H -0.00505 0.72337 0.61196 0.0
O276 O 0.00352 0.67992 0.74912 0.0
O277 O 0.02006 0.7446 0.78507 0.0
O278 O 0.07989 0.73074 0.69828 0.0
O279 O 0.08624 0.79117 0.67436 0.0
C280 C 0.92052 0.82386 0.57893 0.0
C281 C 0.90881 0.84229 0.66555 0.0
H282 H 0.90812 0.86825 0.84867 0.0
H283 H 0.95363 0.8651 0.95874 0.0
H284 H 0.95332 0.7187 0.50085 0.0
H285 H 0.93081 0.76965 0.47066 0.0
H286 H 0.89971 0.81814 0.53101 0.0
H287 H 0.88333 0.84917 0.6665 0.0
Mn288 Mn 0.23626 0.32749 0.8055 0.0
Mn289 Mn 0.15012 0.23915 0.73446 0.0
C290 C 0.24398 0.27448 0.76058 0.0
C291 C 0.28663 0.36309 0.91399 0.0
C292 C 0.1961 0.31064 0.652 0.0
O293 O 0.18995 0.3317 0.85173 0.0
O294 O 0.1336 0.2676 0.81756 0.0
C295 C 0.11711 0.17095 0.86673 0.0
N296 N 0.12921 0.18579 0.78707 0.0
C297 C 0.10422 0.08061 0.75097 0.0
C298 C 0.09197 0.06245 0.83588 0.0
C299 C 0.09466 0.09462 0.90306 0.0
C300 C 0.12541 0.1573 0.72732 0.0
H301 H 0.12037 0.19703 0.90255 0.0
C302 C 0.15077 0.30597 0.84587 0.0
O303 O 0.28356 0.38368 0.85613 0.0
O304 O 0.26051 0.32331 0.90952 0.0
N305 N 0.16653 0.21522 0.64499 0.0
C306 C 0.20183 0.23104 0.60058 0.0
C307 C 0.20493 0.20899 0.536 0.0
C308 C 0.17519 0.16667 0.51738 0.0
C309 C 0.14355 0.14216 0.56904 0.0
C310 C 0.14096 0.1741 0.64037 0.0
H311 H 0.22821 0.26196 0.6121 0.0
O312 O 0.27162 0.31394 0.74922 0.0
O313 O 0.20695 0.26581 0.78516 0.0
O314 O 0.22078 0.33948 0.6983 0.0
O315 O 0.16034 0.28541 0.67445 0.0
C316 C 0.12776 0.08709 0.57898 0.0
C317 C 0.10933 0.05693 0.66559 0.0
H318 H 0.08335 0.03024 0.84868 0.0
H319 H 0.08645 0.07884 0.95877 0.0
H320 H 0.23292 0.22503 0.50099 0.0
H321 H 0.18197 0.1516 0.47074 0.0
H322 H 0.1335 0.07203 0.53105 0.0
H323 H 0.10246 0.02458 0.66653 0.0
Mn324 Mn 0.88948 0.63381 0.74971 0.0
Mn325 Mn 0.89166 0.72215 0.82077 0.0
C326 C 0.95015 0.68678 0.79461 0.0
C327 C 0.90417 0.59817 0.64122 0.0
C328 C 0.86616 0.65065 0.90321 0.0
O329 O 0.83893 0.62961 0.70355 0.0
O330 O 0.84669 0.69373 0.73765 0.0
C331 C 0.92684 0.79041 0.68862 0.0
N332 N 0.92411 0.77553 0.76825 0.0
C333 C 0.00429 0.88068 0.80451 0.0
C334 C 0.01018 0.89888 0.71964 0.0
C335 C -0.01931 0.86675 0.65241 0.0
C336 C 0.9488 0.80398 0.82804 0.0
H337 H 0.90401 0.76435 0.65276 0.0
C338 C 0.82548 0.65535 0.70941 0.0
O339 O 0.88055 0.5776 0.69911 0.0
O340 O 0.91784 0.63796 0.64565 0.0
N341 N 0.932 0.74601 0.91027 0.0
C342 C 0.95149 0.73015 0.95463 0.0
C343 C -0.02337 0.75216 1.01923 0.0
C344 C -0.01077 0.79448 0.03793 0.0
C345 C -0.0179 0.81902 0.98632 0.0
C346 C 0.94756 0.78713 0.91495 0.0
H347 H 0.94693 0.69923 0.94308 0.0
O348 O 0.9384 0.64733 0.80592 0.0
O349 O 0.92181 0.69549 0.77001 0.0
O350 O 0.86207 0.62183 0.85694 0.0
O351 O 0.85561 0.67586 0.88069 0.0
C352 C 0.02137 0.8741 0.97647 0.0
C353 C 0.03308 0.9043 0.88992 0.0
H354 H 0.03377 0.9311 0.70688 0.0
H355 H -0.01174 0.88257 0.59673 0.0
H356 H -0.01143 0.73608 0.05421 0.0
H357 H 0.01108 0.80951 0.08457 0.0
H358 H 0.04218 0.88913 1.02441 0.0
H359 H 0.05856 0.93665 0.88902 0.0
Mn360 Mn 0.31776 0.24602 0.74977 0.0
Mn361 Mn 0.22943 0.15988 0.82086 0.0
C362 C 0.26478 0.25372 0.79469 0.0
C363 C 0.35339 0.29636 0.64129 0.0
C364 C 0.30092 0.20587 0.90328 0.0
O365 O 0.32197 0.19968 0.7036 0.0
O366 O 0.25786 0.14334 0.73773 0.0
C367 C 0.16118 0.12682 0.68868 0.0
N368 N 0.17605 0.13894 0.76832 0.0
C369 C 0.07088 0.11396 0.80454 0.0
C370 C 0.05269 0.10167 0.71966 0.0
C371 C 0.08484 0.10434 0.65245 0.0
C372 C 0.14759 0.13516 0.8281 0.0
H373 H 0.18725 0.13006 0.65284 0.0
C374 C 0.29623 0.16051 0.70943 0.0
O375 O 0.37397 0.29329 0.69917 0.0
O376 O 0.3136 0.27025 0.64573 0.0
N377 N 0.20554 0.17632 0.91034 0.0
C378 C 0.22136 0.21166 0.95466 0.0
C379 C 0.19935 0.21478 1.01927 0.0
C380 C 0.15703 0.18504 0.03798 0.0
C381 C 0.13251 0.15337 0.98638 0.0
C382 C 0.16443 0.15075 0.91502 0.0
H383 H 0.25228 0.23803 0.9431 0.0
O384 O 0.30423 0.2814 0.806 0.0
O385 O 0.25607 0.21668 0.77009 0.0
O386 O 0.32976 0.23057 0.857 0.0
O387 O 0.27573 0.17011 0.88079 0.0
C388 C 0.07743 0.13757 0.9765 0.0
C389 C 0.04724 0.1191 0.88994 0.0
H390 H 0.02047 0.09305 0.70689 0.0
H391 H 0.06903 0.09611 0.59676 0.0
H392 H 0.2154 0.24279 0.05422 0.0
H393 H 0.14199 0.19184 0.08461 0.0
H394 H 0.06239 0.14333 1.02444 0.0
H395 H 0.01488 0.11223 0.88904 0.0
Mn396 Mn 0.70558 0.0621 0.7499 0.0
Mn397 Mn 0.79178 0.0599 0.82086 0.0
C398 C 0.6979 0.00145 0.79504 0.0
C399 C 0.65515 0.04731 0.64148 0.0
C400 C 0.74579 0.08542 0.90336 0.0
O401 O 0.75185 0.11257 0.70347 0.0
O402 O 0.80824 0.1049 0.73779 0.0
C403 C 0.82462 0.0247 0.68833 0.0
N404 N 0.81265 0.02746 0.76808 0.0
C405 C 0.8376 0.94719 0.80384 0.0
C406 C 0.84973 0.94128 0.71886 0.0
C407 C 0.84697 0.97078 0.65176 0.0
C408 C 0.81649 0.00275 0.82774 0.0
H409 H 0.82133 0.04754 0.65258 0.0
C410 C 0.79104 0.12606 0.70943 0.0
O411 O 0.65827 0.07101 0.69928 0.0
O412 O 0.68124 0.0336 0.64599 0.0
N413 N 0.77549 0.01957 0.91032 0.0
C414 C 0.74025 0.00013 0.95489 0.0
C415 C 0.73724 0.975 1.01945 0.0
C416 C 0.76698 0.96237 0.03788 0.0
C417 C 0.79854 0.96946 0.98604 0.0
C418 C 0.80106 0.00401 0.91478 0.0
H419 H 0.71385 0.00465 0.94346 0.0
O420 O 0.67025 0.01327 0.80642 0.0
O421 O 0.73493 0.02975 0.77029 0.0
O422 O 0.72118 0.08967 0.857 0.0
O423 O 0.78156 0.0959 0.88102 0.0
C424 C 0.81427 0.93014 0.97592 0.0
C425 C 0.83258 0.9184 0.88919 0.0
H426 H 0.8583 0.91766 0.70595 0.0
H427 H 0.8551 0.96319 0.59599 0.0
H428 H 0.7093 0.96308 0.05459 0.0
H429 H 0.76025 0.94052 0.0845 0.0
H430 H 0.80857 0.90933 1.02382 0.0
H431 H 0.83942 0.89289 0.88814 0.0
Mn432 Mn -0.01563 0.3954 0.58318 0.0
Mn433 Mn 0.89602 0.39322 0.65416 0.0
C434 C 0.93135 0.33468 0.62808 0.0
C435 C 0.02001 0.38064 0.47478 0.0
C436 C 0.96751 0.41873 0.73665 0.0
O437 O -0.01141 0.44593 0.53693 0.0
O438 O 0.92448 0.4382 0.57104 0.0
C439 C 0.82782 0.35805 0.52188 0.0
N440 N 0.84267 0.36078 0.60154 0.0
C441 C 0.73749 0.2806 0.63765 0.0
C442 C 0.71933 0.27471 0.55275 0.0
C443 C 0.7515 0.30419 0.48556 0.0
C444 C 0.81418 0.33609 0.66129 0.0
H445 H 0.8539 0.38087 0.48605 0.0
C446 C 0.96286 0.45939 0.54277 0.0
O447 O 0.04058 0.4043 0.53262 0.0
O448 O -0.01978 0.36699 0.47918 0.0
N449 N 0.87211 0.35289 0.74365 0.0
C450 C 0.88795 0.33343 0.7881 0.0
C451 C 0.86591 0.30829 0.85269 0.0
C452 C 0.82357 0.29568 0.87127 0.0
C453 C 0.79905 0.3028 0.81958 0.0
C454 C 0.83099 0.33733 0.74825 0.0
H455 H 0.91888 0.33798 0.77661 0.0
O456 O 0.97081 0.34649 0.6395 0.0
O457 O 0.9227 0.36307 0.60349 0.0
O458 O -0.00365 0.42287 0.69036 0.0
O459 O 0.94228 0.42926 0.71417 0.0
C460 C 0.74398 0.26353 0.80965 0.0
C461 C 0.71382 0.25182 0.72305 0.0
H462 H 0.68712 0.25112 0.53995 0.0
H463 H 0.73571 0.29662 0.42985 0.0
H464 H 0.88196 0.29636 0.88772 0.0
H465 H 0.80851 0.27383 0.91792 0.0
H466 H 0.72893 0.24273 0.85758 0.0
H467 H 0.68147 0.22634 0.72211 0.0
Mn468 Mn 0.55606 0.57931 0.58314 0.0
Mn469 Mn 0.55831 0.49318 0.65417 0.0
C470 C 0.6168 0.58703 0.62807 0.0
C471 C 0.5708 0.62971 0.47473 0.0
C472 C 0.53274 0.53912 0.73663 0.0
O473 O 0.50555 0.533 0.53689 0.0
O474 O 0.51333 0.47665 0.57105 0.0
C475 C 0.59353 0.4602 0.52191 0.0
N476 N 0.59079 0.47229 0.60157 0.0
C477 C 0.67102 0.44733 0.63771 0.0
C478 C 0.67693 0.43508 0.55281 0.0
C479 C 0.64743 0.43776 0.48562 0.0
C480 C 0.61549 0.4685 0.66133 0.0
H481 H 0.5707 0.46344 0.48608 0.0
C482 C 0.49211 0.49382 0.54276 0.0
O483 O 0.54712 0.6266 0.53255 0.0
O484 O 0.58447 0.60358 0.47914 0.0
N485 N 0.59865 0.50959 0.74366 0.0
C486 C 0.61808 0.54488 0.78811 0.0
C487 C 0.64323 0.54799 0.8527 0.0
C488 C 0.65588 0.51828 0.8713 0.0
C489 C 0.64878 0.48665 0.81962 0.0
C490 C 0.61423 0.48405 0.74827 0.0
H491 H 0.6135 0.57125 0.7766 0.0
O492 O 0.60496 0.61466 0.63946 0.0
O493 O 0.58844 0.55 0.60348 0.0
O494 O 0.52859 0.56381 0.69032 0.0
O495 O 0.52225 0.50337 0.71417 0.0
C496 C 0.68808 0.47088 0.8097 0.0
C497 C 0.69981 0.45245 0.72311 0.0
H498 H 0.70054 0.42648 0.54002 0.0
H499 H 0.65501 0.42956 0.42991 0.0
H500 H 0.65514 0.57596 0.88773 0.0
H501 H 0.67773 0.52507 0.91794 0.0
H502 H 0.70889 0.47663 0.85764 0.0
H503 H 0.72531 0.4456 0.72218 0.0
Mn504 Mn 0.37217 0.96711 0.58301 0.0
Mn505 Mn 0.4583 0.05545 0.6541 0.0
C506 C 0.36445 0.02012 0.62793 0.0
C507 C 0.32178 0.9315 0.47455 0.0
C508 C 0.41233 -0.01606 0.73653 0.0
O509 O 0.4185 0.96292 0.53681 0.0
O510 O 0.47484 0.02701 0.57101 0.0
C511 C 0.49135 0.12367 0.52187 0.0
N512 N 0.47922 0.10882 0.60152 0.0
C513 C 0.50421 0.21399 0.63765 0.0
C514 C 0.51649 0.23217 0.55276 0.0
C515 C 0.51382 0.20001 0.48557 0.0
C516 C 0.483 0.13729 0.66127 0.0
H517 H 0.48811 0.0976 0.48605 0.0
C518 C 0.45767 -0.01136 0.54273 0.0
O519 O 0.32488 0.91092 0.53238 0.0
O520 O 0.34791 0.97129 0.47898 0.0
N521 N 0.44187 0.07936 0.74357 0.0
C522 C 0.40656 0.06352 0.78798 0.0
C523 C 0.40344 0.08555 0.85254 0.0
C524 C 0.43315 0.12788 0.87117 0.0
C525 C 0.46481 0.1524 0.81954 0.0
C526 C 0.46742 0.12047 0.7482 0.0
H527 H 0.38019 0.03259 0.77645 0.0
O528 O 0.33681 -0.01934 0.63929 0.0
O529 O 0.40149 0.02879 0.60336 0.0
O530 O 0.38764 0.95511 0.69022 0.0
O531 O 0.44808 0.00918 0.71408 0.0
C532 C 0.4806 0.20748 0.80962 0.0
C533 C 0.49907 0.23765 0.72304 0.0
H534 H 0.52512 0.26438 0.53997 0.0
H535 H 0.52205 0.2158 0.42987 0.0
H536 H 0.37544 0.0695 0.88754 0.0
H537 H 0.42635 0.14294 0.9178 0.0
H538 H 0.47484 0.22253 0.85754 0.0
H539 H 0.50594 0.27 0.7221 0.0
Mn540 Mn 0.71901 0.66084 0.63882 0.0
Mn541 Mn 0.71689 0.57253 0.56777 0.0
C542 C 0.65834 0.60784 0.59392 0.0
C543 C 0.70429 0.69645 0.74733 0.0
C544 C 0.74238 0.64404 0.48532 0.0
O545 O 0.76959 0.66509 0.68495 0.0
O546 O 0.76186 0.60098 0.65089 0.0
C547 C 0.68174 0.50429 0.69998 0.0
N548 N 0.68447 0.51916 0.62033 0.0
C549 C 0.60434 0.41398 0.58413 0.0
C550 C 0.59845 0.39579 0.66901 0.0
C551 C 0.62792 0.42795 0.73622 0.0
C552 C 0.65979 0.49069 0.56056 0.0
H553 H 0.70455 0.53037 0.73583 0.0
C554 C 0.78306 0.63937 0.67909 0.0
O555 O 0.7279 0.71703 0.68944 0.0
O556 O 0.69066 0.65667 0.74289 0.0
N557 N 0.67656 0.54863 0.47828 0.0
C558 C 0.65708 0.56448 0.43385 0.0
C559 C 0.63194 0.54245 0.36926 0.0
C560 C 0.61935 0.50012 0.35063 0.0
C561 C 0.6265 0.4756 0.40227 0.0
C562 C 0.66102 0.50752 0.47363 0.0
H563 H 0.66164 0.5954 0.44537 0.0
O564 O 0.67007 0.64729 0.58262 0.0
O565 O 0.68671 0.59916 0.61851 0.0
O566 O 0.7464 0.67284 0.53158 0.0
O567 O 0.75292 0.61881 0.5078 0.0
C568 C 0.58725 0.42052 0.41215 0.0
C569 C 0.57556 0.39033 0.49872 0.0
H570 H 0.57488 0.36357 0.68178 0.0
H571 H 0.62036 0.41214 0.79192 0.0
H572 H 0.62 0.5585 0.33426 0.0
H573 H 0.59751 0.48507 0.30398 0.0
H574 H 0.56645 0.40547 0.36421 0.0
H575 H 0.55009 0.35797 0.49963 0.0
Mn576 Mn 0.29068 0.04857 0.63872 0.0
Mn577 Mn 0.37902 0.13473 0.56761 0.0
C578 C 0.34366 0.04088 0.59376 0.0
C579 C 0.25508 -0.00179 0.74721 0.0
C580 C 0.30751 0.08871 0.48523 0.0
O581 O 0.28647 0.09489 0.68493 0.0
O582 O 0.35055 0.15125 0.6507 0.0
C583 C 0.44722 0.16777 0.69987 0.0
N584 N 0.43238 0.15566 0.62021 0.0
C585 C 0.53756 0.18065 0.58413 0.0
C586 C 0.55572 0.19291 0.66903 0.0
C587 C 0.52355 0.19023 0.7362 0.0
C588 C 0.46086 0.15945 0.56047 0.0
H589 H 0.42113 0.16452 0.73569 0.0
C590 C 0.31219 0.13407 0.67903 0.0
O591 O 0.23449 0.00128 0.68935 0.0
O592 O 0.29486 0.02432 0.74275 0.0
N593 N 0.40295 0.11831 0.47816 0.0
C594 C 0.38714 0.08298 0.43381 0.0
C595 C 0.40918 0.07988 0.36923 0.0
C596 C 0.4515 0.10962 0.35057 0.0
C597 C 0.47601 0.14128 0.4022 0.0
C598 C 0.44406 0.14389 0.47352 0.0
H599 H 0.35623 0.0566 0.44537 0.0
O600 O 0.30422 0.0132 0.58244 0.0
O601 O 0.35237 0.07792 0.61837 0.0
O602 O 0.27867 0.06403 0.53152 0.0
O603 O 0.33274 0.12448 0.5076 0.0
C604 C 0.53108 0.15707 0.41215 0.0
C605 C 0.56124 0.17552 0.49876 0.0
H606 H 0.58794 0.20153 0.68184 0.0
H607 H 0.53933 0.19845 0.79191 0.0
H608 H 0.39314 0.05188 0.33425 0.0
H609 H 0.46656 0.10283 0.30395 0.0
H610 H 0.54614 0.15132 0.36424 0.0
H611 H 0.59359 0.18238 0.4997 0.0
Mn612 Mn 0.90295 0.23249 0.63886 0.0
Mn613 Mn 0.81678 0.23466 0.56775 0.0
C614 C 0.91062 0.29316 0.5939 0.0
C615 C 0.9533 0.24721 0.74736 0.0
C616 C 0.86277 0.20912 0.48536 0.0
O617 O 0.85664 0.18195 0.68503 0.0
O618 O 0.80026 0.18968 0.65087 0.0
C619 C 0.78371 0.26984 0.69994 0.0
N620 N 0.79584 0.2671 0.6203 0.0
C621 C 0.77083 0.34729 0.58408 0.0
C622 C 0.75854 0.35318 0.66895 0.0
C623 C 0.76122 0.3237 0.73617 0.0
C624 C 0.79206 0.2918 0.56052 0.0
H625 H 0.78697 0.24701 0.7358 0.0
C626 C 0.81745 0.16847 0.67912 0.0
O627 O 0.95025 0.22358 0.6895 0.0
O628 O 0.92717 0.26087 0.7429 0.0
N629 N 0.8332 0.27499 0.47826 0.0
C630 C 0.8685 0.29443 0.43383 0.0
C631 C 0.87161 0.31958 0.36924 0.0
C632 C 0.84189 0.33221 0.3506 0.0
C633 C 0.81024 0.32509 0.40224 0.0
C634 C 0.80764 0.29055 0.4736 0.0
H635 H 0.89487 0.28986 0.44536 0.0
O636 O 0.93832 0.28141 0.58259 0.0
O637 O 0.87358 0.26481 0.6185 0.0
O638 O 0.88753 0.20506 0.53165 0.0
O639 O 0.82701 0.19861 0.5078 0.0
C640 C 0.79443 0.36436 0.4121 0.0
C641 C 0.77596 0.37607 0.49866 0.0
H642 H 0.7499 0.37677 0.68171 0.0
H643 H 0.75299 0.33127 0.79186 0.0
H644 H 0.8996 0.33151 0.33424 0.0
H645 H 0.84869 0.35405 0.30395 0.0
H646 H 0.80018 0.38516 0.36416 0.0
H647 H 0.76908 0.40155 0.49956 0.0
Mn648 Mn 0.29067 0.23248 0.13883 0.0
Mn649 Mn 0.37901 0.23466 0.06781 0.0
C650 C 0.34372 0.29322 0.094 0.0
C651 C 0.25506 0.24721 0.24733 0.0
C652 C 0.30752 0.20916 0.98533 0.0
O653 O 0.28642 0.18191 0.18494 0.0
O654 O 0.35055 0.18967 0.15092 0.0
C655 C 0.44725 0.2698 0.20003 0.0
N656 N 0.43239 0.26708 0.12038 0.0
C657 C 0.53757 0.3472 0.08418 0.0
C658 C 0.55576 0.35309 0.16906 0.0
C659 C 0.5236 0.32362 0.23627 0.0
C660 C 0.46086 0.29176 0.06061 0.0
H661 H 0.42118 0.24699 0.23588 0.0
C662 C 0.31215 0.16845 0.17911 0.0
O663 O 0.23448 0.22361 0.18943 0.0
O664 O 0.29484 0.26083 0.2429 0.0
N665 N 0.40292 0.27499 0.97833 0.0
C666 C 0.38708 0.29448 0.93393 0.0
C667 C 0.40911 0.31962 0.86933 0.0
C668 C 0.45144 0.3322 0.85068 0.0
C669 C 0.47596 0.32504 0.90232 0.0
C670 C 0.44403 0.29053 0.97368 0.0
H671 H 0.35615 0.28993 0.94546 0.0
O672 O 0.30426 0.28144 0.08265 0.0
O673 O 0.35236 0.26481 0.11854 0.0
O674 O 0.2787 0.20511 0.03158 0.0
O675 O 0.33275 0.19862 1.00782 0.0
C676 C 0.53104 0.36429 0.9122 0.0
C677 C 0.56122 0.37598 0.99877 0.0
H678 H 0.58798 0.37666 0.18183 0.0
H679 H 0.5394 0.33118 0.29197 0.0
H680 H 0.39306 0.33157 0.83433 0.0
H681 H 0.46649 0.35404 0.80403 0.0
H682 H 0.54609 0.38509 0.86426 0.0
H683 H 0.59358 0.40144 0.99968 0.0
Mn684 Mn 0.71902 0.04854 0.13891 0.0
Mn685 Mn 0.71683 0.13468 0.06774 0.0
C686 C 0.6583 0.04085 0.09399 0.0
C687 C 0.70427 -0.00181 0.24746 0.0
C688 C 0.74243 0.08871 0.98539 0.0
O689 O 0.76956 0.09487 0.18506 0.0
O690 O 0.76179 0.15122 0.15089 0.0
C691 C 0.68164 0.16779 0.19985 0.0
N692 N 0.68437 0.15562 0.12023 0.0
C693 C 0.6042 0.18064 0.08389 0.0
C694 C 0.59832 0.19298 0.16874 0.0
C695 C 0.6278 0.19032 0.23599 0.0
C696 C 0.65968 0.15939 0.06043 0.0
H697 H 0.70447 0.16455 0.23573 0.0
C698 C 0.78301 0.13405 0.17915 0.0
O699 O 0.72791 0.00123 0.1896 0.0
O700 O 0.69063 0.02434 0.24296 0.0
N701 N 0.67651 0.11823 0.97823 0.0
C702 C 0.65711 0.08293 0.93379 0.0
C703 C 0.63194 0.07979 0.8692 0.0
C704 C 0.61929 0.10948 0.85054 0.0
C705 C 0.62639 0.14114 0.90215 0.0
C706 C 0.66092 0.14376 0.97354 0.0
H707 H 0.66171 0.05658 0.94533 0.0
O708 O 0.67009 0.01318 0.08266 0.0
O709 O 0.68669 0.07788 0.11851 0.0
O710 O 0.74645 0.06394 0.0317 0.0
O711 O 0.75291 0.12446 1.00784 0.0
C712 C 0.58712 0.15696 0.91195 0.0
C713 C 0.57542 0.17548 0.99846 0.0
H714 H 0.57473 0.20162 0.18146 0.0
H715 H 0.62024 0.19858 0.29165 0.0
H716 H 0.62003 0.05179 0.83422 0.0
H717 H 0.59744 0.10267 0.80389 0.0
H718 H 0.56632 0.1512 0.864 0.0
H719 H 0.54994 0.18237 0.99932 0.0
Mn720 Mn 0.90297 0.66086 0.13878 0.0
Mn721 Mn 0.81683 0.57254 0.06767 0.0
C722 C 0.91067 0.60783 0.09394 0.0
C723 C 0.9533 0.69645 0.24731 0.0
C724 C 0.86284 0.64404 0.98526 0.0
O725 O 0.85663 0.6651 0.18488 0.0
O726 O 0.80029 0.60099 0.15075 0.0
C727 C 0.78373 0.5043 0.19986 0.0
N728 N 0.79588 0.51916 0.12022 0.0
C729 C 0.77084 0.41398 0.08403 0.0
C730 C 0.75854 0.39579 0.16891 0.0
C731 C 0.76121 0.42794 0.23611 0.0
C732 C 0.79209 0.49069 0.06045 0.0
H733 H 0.78698 0.53037 0.2357 0.0
C734 C 0.81745 0.63937 0.17901 0.0
O735 O 0.95026 0.71705 0.18941 0.0
O736 O 0.92715 0.65668 0.24286 0.0
N737 N 0.83327 0.54864 0.97821 0.0
C738 C 0.8686 0.56446 0.93386 0.0
C739 C 0.87172 0.54243 0.86927 0.0
C740 C 0.84198 0.50012 0.85059 0.0
C741 C 0.8103 0.4756 0.90219 0.0
C742 C 0.80769 0.50753 0.97354 0.0
H743 H 0.89498 0.59537 0.94542 0.0
O744 O 0.93833 0.64728 0.08261 0.0
O745 O 0.87363 0.59918 0.11845 0.0
O746 O 0.88756 0.67286 0.03153 0.0
O747 O 0.82707 0.61882 1.00768 0.0
C748 C 0.79448 0.42052 0.91208 0.0
C749 C 0.77598 0.39033 0.99864 0.0
H750 H 0.74989 0.36356 0.18168 0.0
H751 H 0.75297 0.41214 0.2918 0.0
H752 H 0.89972 0.55848 0.83431 0.0
H753 H 0.84878 0.48506 0.80396 0.0
H754 H 0.80023 0.40546 0.86415 0.0
H755 H 0.76909 0.35797 0.99955 0.0
Mn756 Mn 0.55611 0.96713 0.08324 0.0
Mn757 Mn 0.55827 0.05548 0.15417 0.0
C758 C 0.61677 0.02011 0.12818 0.0
C759 C 0.57086 0.93148 0.97487 0.0
C760 C 0.5328 -0.01599 0.2367 0.0
O761 O 0.50558 0.96292 0.03695 0.0
O762 O 0.51328 0.027 0.07108 0.0
C763 C 0.59343 0.12361 1.0218 0.0
N764 N 0.59069 0.10881 0.10149 0.0
C765 C 0.67089 0.21399 0.13746 0.0
C766 C 0.67679 0.23211 0.05253 0.0
C767 C 0.6473 0.19992 0.98538 0.0
C768 C 0.61539 0.13732 0.16121 0.0
H769 H 0.5706 0.09752 0.986 0.0
C770 C 0.49211 -0.01137 0.04279 0.0
O771 O 0.54719 0.91091 0.03271 0.0
O772 O 0.58452 0.97127 0.97925 0.0
N773 N 0.59861 0.07943 0.24364 0.0
C774 C 0.61809 0.06362 0.28812 0.0
C775 C 0.64322 0.08568 0.35269 0.0
C776 C 0.65582 0.12802 0.37123 0.0
C777 C 0.64869 0.15252 0.31949 0.0
C778 C 0.61415 0.12055 0.24819 0.0
H779 H 0.61355 0.03269 0.27664 0.0
O780 O 0.605 -0.01934 0.13958 0.0
O781 O 0.58843 0.02881 0.10352 0.0
O782 O 0.52864 0.95516 0.19041 0.0
O783 O 0.52226 0.00924 0.21423 0.0
C784 C 0.68797 0.20758 0.30948 0.0
C785 C 0.69968 0.23769 0.22283 0.0
H786 H 0.70038 0.26431 0.03968 0.0
H787 H 0.65487 0.21568 0.92964 0.0
H788 H 0.65516 0.06964 0.38776 0.0
H789 H 0.67767 0.1431 0.41786 0.0
H790 H 0.70878 0.22265 0.3574 0.0
H791 H 0.72517 0.27004 0.22184 0.0
Mn792 Mn -0.01562 0.57932 0.08309 0.0
Mn793 Mn 0.89603 0.49318 0.15414 0.0
C794 C 0.93142 0.58703 0.1281 0.0
C795 C 0.02002 0.62972 0.97467 0.0
C796 C 0.96754 0.53915 0.23657 0.0
O797 O -0.01143 0.533 0.03681 0.0
O798 O 0.92449 0.47665 0.07106 0.0
C799 C 0.82785 0.46019 1.02186 0.0
N800 N 0.84268 0.47228 0.10153 0.0
C801 C 0.73751 0.44734 0.13756 0.0
C802 C 0.71936 0.4351 0.05265 0.0
C803 C 0.75154 0.43778 0.98549 0.0
C804 C 0.81419 0.46849 0.16126 0.0
H805 H 0.85394 0.46343 0.98605 0.0
C806 C 0.96286 0.49383 0.04274 0.0
O807 O 0.0406 0.62659 0.03249 0.0
O808 O -0.01977 0.60362 0.9791 0.0
N809 N 0.8721 0.50959 0.24361 0.0
C810 C 0.88793 0.54489 0.28803 0.0
C811 C 0.86589 0.548 0.35259 0.0
C812 C 0.82355 0.51828 0.37119 0.0
C813 C 0.79904 0.48664 0.31952 0.0
C814 C 0.83099 0.48404 0.24821 0.0
H815 H 0.91886 0.57126 0.27652 0.0
O816 O 0.97088 0.61469 0.13944 0.0
O817 O 0.9227 0.54999 0.10344 0.0
O818 O -0.00362 0.5638 0.19026 0.0
O819 O 0.9423 0.50339 0.21416 0.0
C820 C 0.74398 0.47089 0.30955 0.0
C821 C 0.71383 0.45247 0.22293 0.0
H822 H 0.68715 0.4265 0.03983 0.0
H823 H 0.73577 0.42958 0.92977 0.0
H824 H 0.88193 0.57598 0.3876 0.0
H825 H 0.80849 0.52507 0.41781 0.0
H826 H 0.72891 0.47664 0.35747 0.0
H827 H 0.68148 0.44562 0.22197 0.0
Mn828 Mn 0.37219 0.39541 0.08312 0.0
Mn829 Mn 0.45835 0.39321 0.1542 0.0
C830 C 0.3645 0.33475 0.12816 0.0
C831 C 0.32178 0.38065 0.9747 0.0
C832 C 0.41237 0.41875 0.23661 0.0
O833 O 0.41849 0.44591 0.03683 0.0
O834 O 0.47487 0.43819 0.07108 0.0
C835 C 0.49135 0.35801 1.02196 0.0
N836 N 0.47926 0.36076 0.10162 0.0
C837 C 0.50421 0.28052 0.13776 0.0
C838 C 0.51647 0.27461 0.05286 0.0
C839 C 0.51379 0.30411 0.98567 0.0
C840 C 0.48305 0.33605 0.16138 0.0
H841 H 0.48811 0.38084 0.98612 0.0
C842 C 0.45768 0.45939 0.04276 0.0
O843 O 0.32489 0.40434 0.0325 0.0
O844 O 0.34791 0.36697 0.97914 0.0
N845 N 0.44194 0.35288 0.24369 0.0
C846 C 0.40664 0.33342 0.28811 0.0
C847 C 0.40353 0.30827 0.3527 0.0
C848 C 0.43325 0.29565 0.37133 0.0
C849 C 0.46489 0.30276 0.31967 0.0
C850 C 0.4675 0.33731 0.24832 0.0
H851 H 0.38026 0.33798 0.27659 0.0
O852 O 0.33683 0.34654 0.1395 0.0
O853 O 0.40154 0.36307 0.10349 0.0
O854 O 0.38769 0.42291 0.19028 0.0
O855 O 0.44813 0.42926 0.21417 0.0
C856 C 0.48067 0.26346 0.30975 0.0
C857 C 0.49909 0.25173 0.22315 0.0
H858 H 0.52507 0.25101 0.04007 0.0
H859 H 0.52199 0.29653 0.92996 0.0
H860 H 0.37554 0.29634 0.3877 0.0
H861 H 0.42646 0.2738 0.41797 0.0
H862 H 0.47491 0.24265 0.35768 0.0
H863 H 0.50595 0.22623 0.22223 0.0
Mn864 Mn 0.65105 0.72872 0.91647 0.0
Mn865 Mn 0.56269 0.72653 0.98743 0.0
C866 C 0.59802 0.66799 0.96129 0.0
C867 C 0.6867 0.714 0.80804 0.0
C868 C 0.63417 0.75203 0.06994 0.0
O869 O 0.65529 0.77928 0.87031 0.0
O870 O 0.59116 0.77152 0.90433 0.0
C871 C 0.49448 0.69136 0.85516 0.0
N872 N 0.50933 0.69409 0.93482 0.0
C873 C 0.40415 0.61394 0.97095 0.0
C874 C 0.38598 0.60805 0.88605 0.0
C875 C 0.41815 0.63752 0.81886 0.0
C876 C 0.48085 0.66941 0.99457 0.0
H877 H 0.52056 0.71419 0.81933 0.0
C878 C 0.62956 0.79274 0.87614 0.0
O879 O 0.70727 0.73763 0.86592 0.0
O880 O 0.64692 0.70037 0.81241 0.0
N881 N 0.53877 0.68619 0.0769 0.0
C882 C 0.55461 0.6667 0.12133 0.0
C883 C 0.53257 0.64157 0.18592 0.0
C884 C 0.49024 0.62898 0.20453 0.0
C885 C 0.46572 0.63612 0.15286 0.0
C886 C 0.49766 0.67064 0.08152 0.0
H887 H 0.58554 0.67125 0.10982 0.0
O888 O 0.63747 0.67978 0.97269 0.0
O889 O 0.58937 0.69638 0.93673 0.0
O890 O 0.663 0.75612 1.0237 0.0
O891 O 0.60894 0.76256 0.04746 0.0
C892 C 0.41065 0.59686 0.14294 0.0
C893 C 0.38048 0.58516 0.05635 0.0
H894 H 0.35377 0.58447 0.87326 0.0
H895 H 0.40236 0.62996 0.76315 0.0
H896 H 0.54862 0.62963 0.22095 0.0
H897 H 0.47518 0.60713 0.25118 0.0
H898 H 0.39559 0.57605 0.19088 0.0
H899 H 0.34813 0.55968 0.05542 0.0
Mn900 Mn 0.22277 0.91268 0.91639 0.0
Mn901 Mn 0.22498 0.82654 0.9875 0.0
C902 C 0.2835 0.92038 0.96132 0.0
C903 C 0.23752 0.96306 0.80793 0.0
C904 C 0.19937 0.87248 0.06989 0.0
O905 O 0.17225 0.86636 0.87019 0.0
O906 O 0.18002 0.81 0.90437 0.0
C907 C 0.26018 0.79349 0.85533 0.0
N908 N 0.25745 0.80563 0.93496 0.0
C909 C 0.33766 0.78064 0.97121 0.0
C910 C 0.34355 0.76834 0.88635 0.0
C911 C 0.31406 0.771 0.81912 0.0
C912 C 0.28215 0.80186 0.99474 0.0
H913 H 0.23735 0.79672 0.81947 0.0
C914 C 0.1588 0.82718 0.87609 0.0
O915 O 0.21385 0.95997 0.86575 0.0
O916 O 0.25118 0.93692 0.81237 0.0
N917 N 0.2653 0.84298 0.07701 0.0
C918 C 0.2847 0.87827 0.12148 0.0
C919 C 0.30986 0.8814 0.18606 0.0
C920 C 0.32254 0.85171 0.20467 0.0
C921 C 0.31545 0.82008 0.15302 0.0
C922 C 0.28091 0.81745 0.08165 0.0
H923 H 0.28009 0.90461 0.10997 0.0
O924 O 0.27168 0.94803 0.97269 0.0
O925 O 0.25511 0.88334 0.93677 0.0
O926 O 0.19532 0.89723 1.02358 0.0
O927 O 0.18891 0.83674 0.04746 0.0
C928 C 0.35473 0.80428 0.14317 0.0
C929 C 0.36645 0.78579 0.05663 0.0
H930 H 0.36714 0.75971 0.87359 0.0
H931 H 0.32162 0.76276 0.76344 0.0
H932 H 0.32176 0.90937 0.22108 0.0
H933 H 0.34439 0.85852 0.25132 0.0
H934 H 0.37554 0.81004 0.19111 0.0
H935 H 0.39194 0.77892 0.05573 0.0
Mn936 Mn 0.03882 0.30041 0.91652 0.0
Mn937 Mn 0.12495 0.38876 0.98757 0.0
C938 C 0.0311 0.35344 0.96137 0.0
C939 C -0.01155 0.26479 0.80807 0.0
C940 C 0.07897 0.31727 0.07001 0.0
O941 O 0.08514 0.2962 0.87035 0.0
O942 O 0.14149 0.3603 0.9045 0.0
C943 C 0.15799 0.45696 0.85531 0.0
N944 N 0.14587 0.44212 0.93496 0.0
C945 C 0.17086 0.5473 0.97106 0.0
C946 C 0.18314 0.56546 0.88616 0.0
C947 C 0.18046 0.53329 0.81898 0.0
C948 C 0.14966 0.4706 0.99471 0.0
H949 H 0.15474 0.43088 0.81949 0.0
C950 C 0.12432 0.32192 0.87623 0.0
O951 O -0.00847 0.24421 0.86593 0.0
O952 O 0.01458 0.30457 0.81247 0.0
N953 N 0.10852 0.41268 0.07702 0.0
C954 C 0.07321 0.39686 0.12141 0.0
C955 C 0.0701 0.4189 0.18599 0.0
C956 C 0.09983 0.46122 0.20462 0.0
C957 C 0.13148 0.48573 0.15297 0.0
C958 C 0.13409 0.45379 0.08165 0.0
H959 H 0.04683 0.36594 0.10987 0.0
O960 O 0.00346 0.31398 0.97275 0.0
O961 O 0.06814 0.36209 0.93683 0.0
O962 O 0.05427 0.28843 1.02374 0.0
O963 O 0.11473 0.3425 0.0476 0.0
C964 C 0.14728 0.54081 0.14303 0.0
C965 C 0.16574 0.57097 0.05644 0.0
H966 H 0.19176 0.59768 0.87336 0.0
H967 H 0.18868 0.54908 0.76328 0.0
H968 H 0.04211 0.40285 0.22099 0.0
H969 H 0.09304 0.47628 0.25124 0.0
H970 H 0.14153 0.55587 0.19095 0.0
H971 H 0.1726 0.60332 0.05549 0.0
Mn972 Mn 0.38568 -0.00586 0.97203 0.0
Mn973 Mn 0.38355 0.90581 0.90105 0.0
C974 C 0.32502 0.94114 0.9271 0.0
C975 C 0.37091 0.02976 0.08044 0.0
C976 C 0.40903 0.97731 0.81857 0.0
O977 O 0.43623 -0.00163 1.01827 0.0
O978 O 0.42853 0.93429 0.98414 0.0
C979 C 0.34841 0.83764 0.03337 0.0
N980 N 0.35113 0.85247 0.95369 0.0
C981 C 0.27097 0.74728 0.91765 0.0
C982 C 0.26508 0.72914 1.00257 0.0
C983 C 0.29456 0.76132 0.06973 0.0
C984 C 0.32644 0.82397 0.89396 0.0
H985 H 0.37123 0.86373 0.06919 0.0
C986 C 0.44971 0.97266 1.01241 0.0
O987 O 0.39457 0.05034 1.02259 0.0
O988 O 0.35728 -0.01002 0.07605 0.0
N989 N 0.34321 0.88187 0.81158 0.0
C990 C 0.32374 0.8977 0.76711 0.0
C991 C 0.2986 0.87565 0.70253 0.0
C992 C 0.286 0.83331 0.68397 0.0
C993 C 0.29314 0.8088 0.73568 0.0
C994 C 0.32767 0.84076 0.807 0.0
H995 H 0.32828 0.92863 0.77859 0.0
O996 O 0.33676 0.98059 0.91573 0.0
O997 O 0.35337 0.93246 0.95173 0.0
O998 O 0.41312 0.00613 0.86484 0.0
O999 O 0.41956 0.95206 0.841 0.0
C1000 C 0.25387 0.75374 0.74565 0.0
C1001 C 0.24218 0.7236 0.83227 0.0
H1002 H 0.2415 0.69693 1.01539 0.0
H1003 H 0.287 0.74555 0.12545 0.0
H1004 H 0.28666 0.89169 0.66748 0.0
H1005 H 0.26415 0.81824 0.63734 0.0
H1006 H 0.23307 0.73867 0.69772 0.0
H1007 H 0.2167 0.69124 0.83323 0.0
Mn1008 Mn 0.95734 0.38189 0.97218 0.0
Mn1009 Mn 0.04566 0.46804 0.90107 0.0
C1010 C 0.01032 0.3742 0.9272 0.0
C1011 C 0.92172 0.3315 0.08063 0.0
C1012 C -0.02586 0.42206 0.81869 0.0
O1013 O 0.95313 0.42821 1.01839 0.0
O1014 O 0.01721 0.48457 0.98416 0.0
C1015 C 0.11388 0.50109 0.0333 0.0
N1016 N 0.09903 0.48897 0.95365 0.0
C1017 C 0.20421 0.51394 0.91753 0.0
C1018 C 0.22238 0.52622 1.00243 0.0
C1019 C 0.19022 0.52355 0.06961 0.0
C1020 C 0.12751 0.49275 0.8939 0.0
H1021 H 0.0878 0.49785 0.06913 0.0
C1022 C -0.02117 0.46739 1.01244 0.0
O1023 O 0.90114 0.3346 1.0228 0.0
O1024 O 0.96151 0.35763 0.0762 0.0
N1025 N 0.06958 0.45162 0.8116 0.0
C1026 C 0.05374 0.41631 0.7672 0.0
C1027 C 0.07578 0.41319 0.70264 0.0
C1028 C 0.11811 0.44291 0.684 0.0
C1029 C 0.14263 0.47456 0.73564 0.0
C1030 C 0.11069 0.47717 0.80697 0.0
H1031 H 0.02281 0.38994 0.77873 0.0
O1032 O 0.97087 0.34652 0.91588 0.0
O1033 O 0.01902 0.41124 0.95182 0.0
O1034 O 0.94532 0.39735 0.86499 0.0
O1035 O -0.00061 0.45782 0.84108 0.0
C1036 C 0.1977 0.49035 0.74557 0.0
C1037 C 0.22787 0.50881 0.83215 0.0
H1038 H 0.2546 0.53484 1.01522 0.0
H1039 H 0.20601 0.53178 0.12531 0.0
H1040 H 0.05973 0.38519 0.66765 0.0
H1041 H 0.13317 0.43611 0.63738 0.0
H1042 H 0.21276 0.48459 0.69764 0.0
H1043 H 0.26022 0.51567 0.83309 0.0
Mn1044 Mn 0.5696 0.5658 0.97215 0.0
Mn1045 Mn 0.48342 0.56797 0.90103 0.0
C1046 C 0.57726 0.62646 0.92712 0.0
C1047 C 0.61999 0.58058 0.08061 0.0
C1048 C 0.52941 0.54242 0.81867 0.0
O1049 O 0.52329 0.51528 1.0184 0.0
O1050 O 0.46691 0.52299 0.98415 0.0
C1051 C 0.45037 0.60316 0.03322 0.0
N1052 N 0.46249 0.60042 0.95358 0.0
C1053 C 0.4375 0.68062 0.91737 0.0
C1054 C 0.42522 0.68652 1.00225 0.0
C1055 C 0.4279 0.65703 0.06947 0.0
C1056 C 0.4587 0.62512 0.8938 0.0
H1057 H 0.45362 0.58033 0.06907 0.0
C1058 C 0.4841 0.5018 1.01245 0.0
O1059 O 0.6169 0.5569 1.0228 0.0
O1060 O 0.59384 0.59423 0.07615 0.0
N1061 N 0.49984 0.6083 0.81153 0.0
C1062 C 0.53515 0.62776 0.76712 0.0
C1063 C 0.53826 0.65291 0.70253 0.0
C1064 C 0.50854 0.66553 0.68388 0.0
C1065 C 0.47689 0.65841 0.73552 0.0
C1066 C 0.47428 0.62387 0.80687 0.0
H1067 H 0.56151 0.62319 0.77865 0.0
O1068 O 0.60495 0.61469 0.91581 0.0
O1069 O 0.54023 0.59813 0.95176 0.0
O1070 O 0.55413 0.53832 0.86498 0.0
O1071 O 0.49365 0.53193 0.84106 0.0
C1072 C 0.46109 0.69769 0.7454 0.0
C1073 C 0.44263 0.70941 0.83197 0.0
H1074 H 0.41659 0.71012 1.01502 0.0
H1075 H 0.41967 0.6646 0.12516 0.0
H1076 H 0.56626 0.66485 0.66755 0.0
H1077 H 0.51533 0.68738 0.63724 0.0
H1078 H 0.46684 0.7185 0.69746 0.0
H1079 H 0.43576 0.7349 0.83288 0.0
Mn1080 Mn 0.95735 0.56582 0.47208 0.0
Mn1081 Mn 0.04567 0.56797 0.40106 0.0
C1082 C 0.01039 0.62654 0.42722 0.0
C1083 C 0.92174 0.58059 0.58052 0.0
C1084 C -0.02583 0.54246 0.31861 0.0
O1085 O 0.95311 0.51526 0.51827 0.0
O1086 O 0.01722 0.52299 0.48418 0.0
C1087 C 0.11391 0.60312 0.53328 0.0
N1088 N 0.09904 0.60039 0.45364 0.0
C1089 C 0.20423 0.68053 0.41745 0.0
C1090 C 0.22241 0.68641 0.50233 0.0
C1091 C 0.19026 0.65694 0.56954 0.0
C1092 C 0.12752 0.62508 0.39387 0.0
H1093 H 0.08783 0.5803 0.56913 0.0
C1094 C -0.02117 0.50179 0.51242 0.0
O1095 O 0.90115 0.55695 0.52267 0.0
O1096 O 0.96152 0.59421 0.57612 0.0
N1097 N 0.06957 0.6083 0.31157 0.0
C1098 C 0.05372 0.62776 0.26713 0.0
C1099 C 0.07576 0.65291 0.20255 0.0
C1100 C 0.11809 0.66551 0.18393 0.0
C1101 C 0.14262 0.65837 0.23558 0.0
C1102 C 0.11069 0.62385 0.30694 0.0
H1103 H 0.02279 0.6232 0.27864 0.0
O1104 O -0.02906 0.61476 0.41582 0.0
O1105 O 0.01902 0.59813 0.45177 0.0
O1106 O 0.94535 0.5384 0.36488 0.0
O1107 O -0.00059 0.53194 0.34107 0.0
C1108 C 0.1977 0.69762 0.24547 0.0
C1109 C 0.22788 0.70931 0.33204 0.0
H1110 H 0.25463 0.70999 0.5151 0.0
H1111 H 0.20606 0.6645 0.62523 0.0
H1112 H 0.0597 0.66485 0.16754 0.0
H1113 H 0.13315 0.68736 0.13729 0.0
H1114 H 0.21275 0.71842 0.19753 0.0
H1115 H 0.26024 0.73478 0.33295 0.0
Mn1116 Mn 0.38571 0.38189 0.47214 0.0
Mn1117 Mn 0.3835 0.46803 0.40106 0.0
C1118 C 0.32498 0.37419 0.42724 0.0
C1119 C 0.37096 0.33151 0.58059 0.0
C1120 C 0.40906 0.42207 0.31865 0.0
O1121 O 0.43626 0.4282 0.51832 0.0
O1122 O 0.42848 0.48456 0.48417 0.0
C1123 C 0.3483 0.50107 0.53326 0.0
N1124 N 0.35104 0.48895 0.45362 0.0
C1125 C 0.27085 0.51396 0.41741 0.0
C1126 C 0.26495 0.52624 0.50228 0.0
C1127 C 0.29444 0.52356 0.5695 0.0
C1128 C 0.32634 0.49274 0.39385 0.0
H1129 H 0.37113 0.49783 0.56912 0.0
C1130 C 0.4497 0.46738 0.51243 0.0
O1131 O 0.39463 0.33458 0.52275 0.0
O1132 O 0.35732 0.35766 0.57617 0.0
N1133 N 0.34316 0.4516 0.31157 0.0
C1134 C 0.32372 0.4163 0.26714 0.0
C1135 C 0.29857 0.41319 0.20256 0.0
C1136 C 0.28594 0.44291 0.18392 0.0
C1137 C 0.29305 0.47455 0.23556 0.0
C1138 C 0.32759 0.47716 0.30692 0.0
H1139 H 0.3283 0.38994 0.27867 0.0
O1140 O 0.33679 0.34654 0.41588 0.0
O1141 O 0.35336 0.41122 0.45179 0.0
O1142 O 0.41315 0.39733 0.36493 0.0
O1143 O 0.41955 0.45782 0.34107 0.0
C1144 C 0.25377 0.49036 0.24543 0.0
C1145 C 0.24206 0.50883 0.332 0.0
H1146 H 0.24136 0.53487 0.51505 0.0
H1147 H 0.28687 0.53179 0.62519 0.0
H1148 H 0.28664 0.3852 0.16755 0.0
H1149 H 0.26409 0.43611 0.13728 0.0
H1150 H 0.23297 0.48461 0.19749 0.0
H1151 H 0.21657 0.5157 0.3329 0.0
Mn1152 Mn 0.56964 -0.00583 0.47226 0.0
Mn1153 Mn 0.48349 0.90586 0.40113 0.0
C1154 C 0.57733 0.94114 0.4274 0.0
C1155 C 0.62 0.02975 0.58076 0.0
C1156 C 0.52949 0.97738 0.31874 0.0
O1157 O 0.5233 -0.0016 0.51839 0.0
O1158 O 0.46696 0.9343 0.48421 0.0
C1159 C 0.45038 0.8376 0.5333 0.0
N1160 N 0.46254 0.85248 0.45367 0.0
C1161 C 0.4375 0.74729 0.41745 0.0
C1162 C 0.42517 0.72909 0.50232 0.0
C1163 C 0.42784 0.76124 0.56953 0.0
C1164 C 0.45876 0.82401 0.3939 0.0
H1165 H 0.45362 0.86367 0.56914 0.0
C1166 C 0.48412 0.97268 0.51246 0.0
O1167 O 0.61694 0.05035 0.52291 0.0
O1168 O 0.59384 -0.01002 0.57634 0.0
N1169 N 0.49994 0.88197 0.31166 0.0
C1170 C 0.53526 0.89781 0.26728 0.0
C1171 C 0.53839 0.87578 0.20271 0.0
C1172 C 0.50867 0.83346 0.18404 0.0
C1173 C 0.47699 0.80893 0.23564 0.0
C1174 C 0.47438 0.84085 0.30699 0.0
H1175 H 0.56163 0.92873 0.27883 0.0
O1176 O 0.605 0.98059 0.41606 0.0
O1177 O 0.54029 0.9325 0.45191 0.0
O1178 O 0.55423 0.00618 0.36502 0.0
O1179 O 0.49373 0.95214 0.34117 0.0
C1180 C 0.46116 0.75385 0.24551 0.0
C1181 C 0.44265 0.72365 0.33206 0.0
H1182 H 0.41653 0.69687 0.51509 0.0
H1183 H 0.41959 0.74543 0.62521 0.0
H1184 H 0.5664 0.89183 0.16775 0.0
H1185 H 0.51547 0.81841 0.13742 0.0
H1186 H 0.46692 0.7388 0.19758 0.0
H1187 H 0.43576 0.69129 0.33296 0.0
Mn1188 Mn 0.22277 0.30043 0.41647 0.0
Mn1189 Mn 0.22493 0.38877 0.48748 0.0
C1190 C 0.28344 0.35342 0.46141 0.0
C1191 C 0.2375 0.2648 0.30804 0.0
C1192 C 0.19941 0.31726 0.56995 0.0
O1193 O 0.17222 0.29621 0.37028 0.0
O1194 O 0.17995 0.36031 0.40437 0.0
C1195 C 0.26009 0.45696 0.3552 0.0
N1196 N 0.25736 0.44212 0.43487 0.0
C1197 C 0.33753 0.5473 0.47098 0.0
C1198 C 0.34342 0.56546 0.38608 0.0
C1199 C 0.31394 0.53329 0.31889 0.0
C1200 C 0.28205 0.4706 0.49462 0.0
H1201 H 0.23727 0.43089 0.31938 0.0
C1202 C 0.15875 0.32192 0.37614 0.0
O1203 O 0.21385 0.24422 0.3659 0.0
O1204 O 0.25115 0.30458 0.31244 0.0
N1205 N 0.26526 0.41268 0.57696 0.0
C1206 C 0.28472 0.39684 0.62142 0.0
C1207 C 0.30986 0.41888 0.686 0.0
C1208 C 0.32247 0.46121 0.70459 0.0
C1209 C 0.31534 0.48573 0.65291 0.0
C1210 C 0.28081 0.4538 0.58157 0.0
H1211 H 0.28016 0.3659 0.60993 0.0
O1212 O 0.27169 0.31397 0.47274 0.0
O1213 O 0.25509 0.36211 0.43678 0.0
O1214 O 0.19534 0.28845 0.52369 0.0
O1215 O 0.18889 0.34251 0.54749 0.0
C1216 C 0.35461 0.5408 0.64298 0.0
C1217 C 0.36632 0.57096 0.55637 0.0
H1218 H 0.36701 0.59767 0.37328 0.0
H1219 H 0.32151 0.54908 0.26318 0.0
H1220 H 0.3218 0.40282 0.72104 0.0
H1221 H 0.34432 0.47627 0.75123 0.0
H1222 H 0.37541 0.55586 0.69091 0.0
H1223 H 0.3918 0.60331 0.55544 0.0
Mn1224 Mn 0.65104 0.91264 0.41658 0.0
Mn1225 Mn 0.56268 0.82649 0.48764 0.0
C1226 C 0.59808 0.92034 0.46158 0.0
C1227 C 0.68667 0.96305 0.30817 0.0
C1228 C 0.63419 0.87247 0.57005 0.0
O1229 O 0.65522 0.86632 0.37029 0.0
O1230 O 0.59116 0.80997 0.40456 0.0
C1231 C 0.49452 0.79351 0.35531 0.0
N1232 N 0.50934 0.80558 0.43499 0.0
C1233 C 0.40416 0.78066 0.47097 0.0
C1234 C 0.38603 0.76843 0.38605 0.0
C1235 C 0.41822 0.7711 0.3189 0.0
C1236 C 0.48084 0.80179 0.49471 0.0
H1237 H 0.52061 0.79675 0.31952 0.0
C1238 C 0.62951 0.82714 0.3762 0.0
O1239 O 0.70725 0.95992 0.36599 0.0
O1240 O 0.64688 0.93694 0.31259 0.0
N1241 N 0.53873 0.84289 0.57708 0.0
C1242 C 0.55454 0.8782 0.62147 0.0
C1243 C 0.53249 0.8813 0.68605 0.0
C1244 C 0.49016 0.85157 0.70465 0.0
C1245 C 0.46566 0.81993 0.65297 0.0
C1246 C 0.49762 0.81733 0.58168 0.0
H1247 H 0.58546 0.90459 0.60995 0.0
O1248 O 0.63753 0.948 0.47294 0.0
O1249 O 0.58935 0.8833 0.43693 0.0
O1250 O 0.66304 0.89712 0.52375 0.0
O1251 O 0.60893 0.8367 0.5477 0.0
C1252 C 0.4106 0.80418 0.64296 0.0
C1253 C 0.38047 0.78577 0.55633 0.0
H1254 H 0.35382 0.75983 0.37321 0.0
H1255 H 0.40245 0.76291 0.26318 0.0
H1256 H 0.54853 0.90928 0.72106 0.0
H1257 H 0.47509 0.85835 0.75126 0.0
H1258 H 0.39553 0.80993 0.69087 0.0
H1259 H 0.34812 0.77893 0.55535 0.0
Mn1260 Mn 0.03883 0.72872 0.41644 0.0
Mn1261 Mn 0.12501 0.72653 0.48749 0.0
C1262 C 0.03116 0.66806 0.46143 0.0
C1263 C -0.01156 0.71399 0.30802 0.0
C1264 C 0.07904 0.75209 0.56992 0.0
O1265 O 0.08514 0.77924 0.3702 0.0
O1266 O 0.14152 0.77152 0.40439 0.0
C1267 C 0.158 0.69133 0.35523 0.0
N1268 N 0.14591 0.69407 0.43489 0.0
C1269 C 0.17087 0.61385 0.47101 0.0
C1270 C 0.18313 0.60795 0.38612 0.0
C1271 C 0.18045 0.63744 0.31893 0.0
C1272 C 0.14969 0.66937 0.49464 0.0
H1273 H 0.15476 0.71417 0.3194 0.0
C1274 C 0.12433 0.79272 0.37612 0.0
O1275 O -0.00846 0.73767 0.36585 0.0
O1276 O 0.01457 0.70032 0.31244 0.0
N1277 N 0.1086 0.6862 0.57698 0.0
C1278 C 0.07331 0.66677 0.62145 0.0
C1279 C 0.07021 0.64162 0.68603 0.0
C1280 C 0.09992 0.62897 0.70461 0.0
C1281 C 0.13154 0.63607 0.65293 0.0
C1282 C 0.13414 0.67061 0.58159 0.0
H1283 H 0.04694 0.67135 0.60995 0.0
O1284 O 0.00347 0.67983 0.47278 0.0
O1285 O 0.06819 0.69639 0.43679 0.0
O1286 O 0.05431 0.75619 0.52362 0.0
O1287 O 0.11479 0.76258 0.5475 0.0
C1288 C 0.14732 0.59677 0.64301 0.0
C1289 C 0.16576 0.58505 0.55641 0.0
H1290 H 0.19175 0.58434 0.37333 0.0
H1291 H 0.18866 0.62987 0.26322 0.0
H1292 H 0.04223 0.62971 0.72107 0.0
H1293 H 0.09313 0.60712 0.75125 0.0
H1294 H 0.14157 0.57597 0.69094 0.0
H1295 H 0.17262 0.55956 0.55548 0.0
loop_
_geom_bond_atom_site_label_1
_geom_bond_atom_site_label_2
_geom_bond_distance
_geom_bond_site_symmetry_2
_ccdc_geom_bond_type
Mn0 O5 2.095 . S
Mn0 O15 2.162 . S
Mn0 O16 2.297 . S
Mn0 O24 2.385 . S
Mn0 O25 2.209 . S
Mn0 O26 2.094 . S
Mn1 O6 2.121 . S
Mn1 N8 2.257 . S
Mn1 N17 2.282 . S
Mn1 O25 2.215 . S
Mn1 O27 2.117 . S
C2 O24 1.234 . S
C2 O25 1.283 . S
C3 O15 1.281 . S
C3 O16 1.236 . S
C4 O26 1.240 . S
C4 O27 1.264 . S
O5 Mn0 2.095 . S
O5 C14 1.250 . S
O6 Mn1 2.121 . S
O6 C14 1.258 . S
C7 N8 1.326 . S
C7 C11 1.460 . S
C7 H13 0.929 . S
N8 Mn1 2.257 . S
N8 C7 1.326 . S
N8 C12 1.362 1_545 S
C9 C10 1.258 . S
C9 C12 1.431 . S
C9 C29 1.449 . S
C10 C9 1.258 . S
C10 C11 1.477 1_565 S
C10 H30 0.931 . S
C11 C7 1.460 . S
C11 C10 1.477 1_545 S
C11 H31 0.930 . S
C12 N8 1.362 1_565 S
C12 C9 1.431 . S
C12 C22 1.476 . S
H13 C7 0.929 . S
C14 O5 1.250 . S
C14 O6 1.258 . S
O15 Mn0 2.162 . S
O15 C3 1.281 . S
O16 Mn0 2.297 . S
O16 C3 1.236 . S
N17 Mn1 2.282 . S
N17 C18 1.328 . S
N17 C22 1.318 1_545 S
C18 N17 1.328 . S
C18 C19 1.457 1_545 S
C18 H23 0.929 . S
C19 C18 1.457 1_565 S
C19 C20 1.291 . S
C19 H32 0.931 . S
C20 C19 1.291 . S
C20 C21 1.373 . S
C20 H33 0.929 . S
C21 C20 1.373 . S
C21 C22 1.396 . S
C21 C28 1.403 . S
C22 C12 1.476 . S
C22 N17 1.318 1_565 S
C22 C21 1.396 . S
H23 C18 0.929 . S
O24 Mn0 2.385 . S
O24 C2 1.234 . S
O25 Mn0 2.209 . S
O25 Mn1 2.215 . S
O25 C2 1.283 . S
O26 Mn0 2.094 . S
O26 C4 1.240 . S
O27 Mn1 2.117 . S
O27 C4 1.264 . S
C28 C21 1.403 . S
C28 C29 1.399 . S
C28 H34 0.929 . S
C29 C9 1.449 . S
C29 C28 1.399 . S
C29 H35 0.930 . S
H30 C10 0.931 . S
H31 C11 0.930 . S
H32 C19 0.931 . S
H33 C20 0.929 . S
H34 C28 0.929 . S
H35 C29 0.930 . S
Mn36 O41 2.095 . S
Mn36 O51 2.162 . S
Mn36 O52 2.297 . S
Mn36 O60 2.385 . S
Mn36 O61 2.209 . S
Mn36 O62 2.094 . S
Mn37 O42 2.121 . S
Mn37 N44 2.257 . S
Mn37 N53 2.282 . S
Mn37 O61 2.215 . S
Mn37 O63 2.117 . S
C38 O60 1.234 . S
C38 O61 1.283 . S
C39 O51 1.281 . S
C39 O52 1.236 . S
C40 O62 1.240 . S
C40 O63 1.264 . S
O41 Mn36 2.095 . S
O41 C50 1.250 . S
O42 Mn37 2.121 . S
O42 C50 1.258 . S
C43 N44 1.326 . S
C43 C47 1.460 . S
C43 H49 0.929 . S
N44 Mn37 2.257 . S
N44 C43 1.326 . S
N44 C48 1.362 1_655 S
C45 C46 1.258 . S
C45 C48 1.431 . S
C45 C65 1.449 . S
C46 C45 1.258 . S
C46 C47 1.477 1_455 S
C46 H66 0.931 . S
C47 C43 1.460 . S
C47 C46 1.477 1_655 S
C47 H67 0.930 . S
C48 N44 1.362 1_455 S
C48 C45 1.431 . S
C48 C58 1.476 . S
H49 C43 0.929 . S
C50 O41 1.250 . S
C50 O42 1.258 . S
O51 Mn36 2.162 . S
O51 C39 1.281 . S
O52 Mn36 2.297 . S
O52 C39 1.236 . S
N53 Mn37 2.282 . S
N53 C54 1.328 . S
N53 C58 1.318 1_655 S
C54 N53 1.328 . S
C54 C55 1.457 1_655 S
C54 H59 0.929 . S
C55 C54 1.457 1_455 S
C55 C56 1.291 . S
C55 H68 0.931 . S
C56 C55 1.291 . S
C56 C57 1.373 . S
C56 H69 0.929 . S
C57 C56 1.373 . S
C57 C58 1.396 . S
C57 C64 1.403 . S
C58 C48 1.476 . S
C58 N53 1.318 1_455 S
C58 C57 1.396 . S
H59 C54 0.929 . S
O60 Mn36 2.385 . S
O60 C38 1.234 . S
O61 Mn36 2.209 . S
O61 Mn37 2.215 . S
O61 C38 1.283 . S
O62 Mn36 2.094 . S
O62 C40 1.240 . S
O63 Mn37 2.117 . S
O63 C40 1.264 . S
C64 C57 1.403 . S
C64 C65 1.399 . S
C64 H70 0.929 . S
C65 C45 1.449 . S
C65 C64 1.399 . S
C65 H71 0.930 . S
H66 C46 0.931 . S
H67 C47 0.930 . S
H68 C55 0.931 . S
H69 C56 0.929 . S
H70 C64 0.929 . S
H71 C65 0.930 . S
Mn72 O77 2.095 . S
Mn72 O87 2.162 . S
Mn72 O88 2.297 . S
Mn72 O96 2.385 . S
Mn72 O97 2.209 . S
Mn72 O98 2.094 . S
Mn73 O78 2.121 . S
Mn73 N80 2.257 . S
Mn73 N89 2.282 . S
Mn73 O97 2.215 . S
Mn73 O99 2.117 . S
C74 O96 1.234 . S
C74 O97 1.283 . S
C75 O87 1.281 . S
C75 O88 1.236 . S
C76 O98 1.240 . S
C76 O99 1.264 . S
O77 Mn72 2.095 . S
O77 C86 1.250 . S
O78 Mn73 2.121 . S
O78 C86 1.258 . S
C79 N80 1.326 . S
C79 C83 1.460 . S
C79 H85 0.929 . S
N80 Mn73 2.257 . S
N80 C79 1.326 . S
N80 C84 1.362 . S
C81 C82 1.258 . S
C81 C84 1.431 . S
C81 C101 1.449 . S
C82 C81 1.258 . S
C82 C83 1.477 . S
C82 H102 0.931 . S
C83 C79 1.460 . S
C83 C82 1.477 . S
C83 H103 0.930 . S
C84 N80 1.362 . S
C84 C81 1.431 . S
C84 C94 1.476 . S
H85 C79 0.929 . S
C86 O77 1.250 . S
C86 O78 1.258 . S
O87 Mn72 2.162 . S
O87 C75 1.281 . S
O88 Mn72 2.297 . S
O88 C75 1.236 . S
N89 Mn73 2.282 . S
N89 C90 1.328 . S
N89 C94 1.318 . S
C90 N89 1.328 . S
C90 C91 1.457 . S
C90 H95 0.929 . S
C91 C90 1.457 . S
C91 C92 1.291 . S
C91 H104 0.931 . S
C92 C91 1.291 . S
C92 C93 1.373 . S
C92 H105 0.929 . S
C93 C92 1.373 . S
C93 C94 1.396 . S
C93 C100 1.403 . S
C94 C84 1.476 . S
C94 N89 1.318 . S
C94 C93 1.396 . S
H95 C90 0.929 . S
O96 Mn72 2.385 . S
O96 C74 1.234 . S
O97 Mn72 2.209 . S
O97 Mn73 2.215 . S
O97 C74 1.283 . S
O98 Mn72 2.094 . S
O98 C76 1.240 . S
O99 Mn73 2.117 . S
O99 C76 1.264 . S
C100 C93 1.403 . S
C100 C101 1.399 . S
C100 H106 0.929 . S
C101 C81 1.449 . S
C101 C100 1.399 . S
C101 H107 0.930 . S
H102 C82 0.931 . S
H103 C83 0.930 . S
H104 C91 0.931 . S
H105 C92 0.929 . S
H106 C100 0.929 . S
H107 C101 0.930 . S
Mn108 O113 2.095 . S
Mn108 O123 2.162 . S
Mn108 O124 2.297 . S
Mn108 O132 2.385 . S
Mn108 O133 2.209 . S
Mn108 O134 2.094 . S
Mn109 O114 2.121 . S
Mn109 N116 2.257 . S
Mn109 N125 2.282 . S
Mn109 O133 2.215 . S
Mn109 O135 2.117 . S
C110 O132 1.234 . S
C110 O133 1.283 . S
C111 O123 1.281 . S
C111 O124 1.236 . S
C112 O134 1.240 . S
C112 O135 1.264 . S
O113 Mn108 2.095 . S
O113 C122 1.250 . S
O114 Mn109 2.121 . S
O114 C122 1.258 . S
C115 N116 1.326 . S
C115 C119 1.460 . S
C115 H121 0.929 . S
N116 Mn109 2.257 . S
N116 C115 1.326 . S
N116 C120 1.362 1_455 S
C117 C118 1.258 . S
C117 C120 1.431 . S
C117 C137 1.449 . S
C118 C117 1.258 . S
C118 C119 1.477 1_655 S
C118 H138 0.931 . S
C119 C115 1.460 . S
C119 C118 1.477 1_455 S
C119 H139 0.930 . S
C120 N116 1.362 1_655 S
C120 C117 1.431 . S
C120 C130 1.476 . S
H121 C115 0.929 . S
C122 O113 1.250 . S
C122 O114 1.258 . S
O123 Mn108 2.162 . S
O123 C111 1.281 . S
O124 Mn108 2.297 . S
O124 C111 1.236 . S
N125 Mn109 2.282 . S
N125 C126 1.328 . S
N125 C130 1.318 1_455 S
C126 N125 1.328 . S
C126 C127 1.457 1_455 S
C126 H131 0.929 . S
C127 C126 1.457 1_655 S
C127 C128 1.291 . S
C127 H140 0.931 . S
C128 C127 1.291 . S
C128 C129 1.373 . S
C128 H141 0.929 . S
C129 C128 1.373 . S
C129 C130 1.396 . S
C129 C136 1.403 . S
C130 C120 1.476 . S
C130 N125 1.318 1_655 S
C130 C129 1.396 . S
H131 C126 0.929 . S
O132 Mn108 2.385 . S
O132 C110 1.234 . S
O133 Mn108 2.209 . S
O133 Mn109 2.215 . S
O133 C110 1.283 . S
O134 Mn108 2.094 . S
O134 C112 1.240 . S
O135 Mn109 2.117 . S
O135 C112 1.264 . S
C136 C129 1.403 . S
C136 C137 1.399 . S
C136 H142 0.929 . S
C137 C117 1.449 . S
C137 C136 1.399 . S
C137 H143 0.930 . S
H138 C118 0.931 . S
H139 C119 0.930 . S
H140 C127 0.931 . S
H141 C128 0.929 . S
H142 C136 0.929 . S
H143 C137 0.930 . S
Mn144 O149 2.095 . S
Mn144 O159 2.162 . S
Mn144 O160 2.297 . S
Mn144 O168 2.385 . S
Mn144 O169 2.209 . S
Mn144 O170 2.094 . S
Mn145 O150 2.121 . S
Mn145 N152 2.257 . S
Mn145 N161 2.282 . S
Mn145 O169 2.215 . S
Mn145 O171 2.117 . S
C146 O168 1.234 . S
C146 O169 1.283 . S
C147 O159 1.281 . S
C147 O160 1.236 . S
C148 O170 1.240 . S
C148 O171 1.264 . S
O149 Mn144 2.095 . S
O149 C158 1.250 . S
O150 Mn145 2.121 . S
O150 C158 1.258 . S
C151 N152 1.326 . S
C151 C155 1.460 . S
C151 H157 0.929 . S
N152 Mn145 2.257 . S
N152 C151 1.326 . S
N152 C156 1.362 . S
C153 C154 1.258 . S
C153 C156 1.431 . S
C153 C173 1.449 . S
C154 C153 1.258 . S
C154 C155 1.477 . S
C154 H174 0.931 . S
C155 C151 1.460 . S
C155 C154 1.477 . S
C155 H175 0.930 . S
C156 N152 1.362 . S
C156 C153 1.431 . S
C156 C166 1.476 . S
H157 C151 0.929 . S
C158 O149 1.250 . S
C158 O150 1.258 . S
O159 Mn144 2.162 . S
O159 C147 1.281 . S
O160 Mn144 2.297 . S
O160 C147 1.236 . S
N161 Mn145 2.282 . S
N161 C162 1.328 . S
N161 C166 1.318 . S
C162 N161 1.328 . S
C162 C163 1.457 . S
C162 H167 0.929 . S
C163 C162 1.457 . S
C163 C164 1.291 . S
C163 H176 0.931 . S
C164 C163 1.291 . S
C164 C165 1.373 . S
C164 H177 0.929 . S
C165 C164 1.373 . S
C165 C166 1.396 . S
C165 C172 1.403 . S
C166 C156 1.476 . S
C166 N161 1.318 . S
C166 C165 1.396 . S
H167 C162 0.929 . S
O168 Mn144 2.385 . S
O168 C146 1.234 . S
O169 Mn144 2.209 . S
O169 Mn145 2.215 . S
O169 C146 1.283 . S
O170 Mn144 2.094 . S
O170 C148 1.240 . S
O171 Mn145 2.117 . S
O171 C148 1.264 . S
C172 C165 1.403 . S
C172 C173 1.399 . S
C172 H178 0.929 . S
C173 C153 1.449 . S
C173 C172 1.399 . S
C173 H179 0.930 . S
H174 C154 0.931 . S
H175 C155 0.930 . S
H176 C163 0.931 . S
H177 C164 0.929 . S
H178 C172 0.929 . S
H179 C173 0.930 . S
Mn180 O185 2.095 . S
Mn180 O195 2.162 . S
Mn180 O196 2.297 . S
Mn180 O204 2.385 . S
Mn180 O205 2.209 . S
Mn180 O206 2.094 . S
Mn181 O186 2.121 . S
Mn181 N188 2.257 . S
Mn181 N197 2.282 . S
Mn181 O205 2.215 . S
Mn181 O207 2.117 . S
C182 O204 1.234 . S
C182 O205 1.283 . S
C183 O195 1.281 . S
C183 O196 1.236 . S
C184 O206 1.240 . S
C184 O207 1.264 . S
O185 Mn180 2.095 . S
O185 C194 1.250 . S
O186 Mn181 2.121 . S
O186 C194 1.258 . S
C187 N188 1.326 . S
C187 C191 1.460 . S
C187 H193 0.929 . S
N188 Mn181 2.257 . S
N188 C187 1.326 . S
N188 C192 1.362 1_565 S
C189 C190 1.258 . S
C189 C192 1.431 . S
C189 C209 1.449 . S
C190 C189 1.258 . S
C190 C191 1.477 1_545 S
C190 H210 0.931 . S
C191 C187 1.460 . S
C191 C190 1.477 1_565 S
C191 H211 0.930 . S
C192 N188 1.362 1_545 S
C192 C189 1.431 . S
C192 C202 1.476 . S
H193 C187 0.929 . S
C194 O185 1.250 . S
C194 O186 1.258 . S
O195 Mn180 2.162 . S
O195 C183 1.281 . S
O196 Mn180 2.297 . S
O196 C183 1.236 . S
N197 Mn181 2.282 . S
N197 C198 1.328 . S
N197 C202 1.318 1_565 S
C198 N197 1.328 . S
C198 C199 1.457 1_565 S
C198 H203 0.929 . S
C199 C198 1.457 1_545 S
C199 C200 1.291 . S
C199 H212 0.931 . S
C200 C199 1.291 . S
C200 C201 1.373 . S
C200 H213 0.929 . S
C201 C200 1.373 . S
C201 C202 1.396 . S
C201 C208 1.403 . S
C202 C192 1.476 . S
C202 N197 1.318 1_545 S
C202 C201 1.396 . S
H203 C198 0.929 . S
O204 Mn180 2.385 . S
O204 C182 1.234 . S
O205 Mn180 2.209 . S
O205 Mn181 2.215 . S
O205 C182 1.283 . S
O206 Mn180 2.094 . S
O206 C184 1.240 . S
O207 Mn181 2.117 . S
O207 C184 1.264 . S
C208 C201 1.403 . S
C208 C209 1.399 . S
C208 H214 0.929 . S
C209 C189 1.449 . S
C209 C208 1.399 . S
C209 H215 0.930 . S
H210 C190 0.931 . S
H211 C191 0.930 . S
H212 C199 0.931 . S
H213 C200 0.929 . S
H214 C208 0.929 . S
H215 C209 0.930 . S
Mn216 O221 2.095 . S
Mn216 O231 2.162 . S
Mn216 O232 2.297 . S
Mn216 O240 2.385 . S
Mn216 O241 2.209 . S
Mn216 O242 2.094 . S
Mn217 O222 2.121 . S
Mn217 N224 2.257 . S
Mn217 N233 2.282 . S
Mn217 O241 2.215 . S
Mn217 O243 2.117 . S
C218 O240 1.234 . S
C218 O241 1.283 . S
C219 O231 1.281 . S
C219 O232 1.236 . S
C220 O242 1.240 . S
C220 O243 1.264 . S
O221 Mn216 2.095 . S
O221 C230 1.250 . S
O222 Mn217 2.121 . S
O222 C230 1.258 . S
C223 N224 1.326 . S
C223 C227 1.460 . S
C223 H229 0.929 . S
N224 Mn217 2.257 . S
N224 C223 1.326 . S
N224 C228 1.362 1_565 S
C225 C226 1.258 . S
C225 C228 1.431 . S
C225 C245 1.449 . S
C226 C225 1.258 . S
C226 C227 1.477 1_545 S
C226 H246 0.931 . S
C227 C223 1.460 . S
C227 C226 1.477 1_565 S
C227 H247 0.930 . S
C228 N224 1.362 1_545 S
C228 C225 1.431 . S
C228 C238 1.476 . S
H229 C223 0.929 . S
C230 O221 1.250 . S
C230 O222 1.258 . S
O231 Mn216 2.162 . S
O231 C219 1.281 . S
O232 Mn216 2.297 . S
O232 C219 1.236 . S
N233 Mn217 2.282 . S
N233 C234 1.328 . S
N233 C238 1.318 1_565 S
C234 N233 1.328 . S
C234 C235 1.457 1_565 S
C234 H239 0.929 . S
C235 C234 1.457 1_545 S
C235 C236 1.291 . S
C235 H248 0.931 . S
C236 C235 1.291 . S
C236 C237 1.373 . S
C236 H249 0.929 . S
C237 C236 1.373 . S
C237 C238 1.396 . S
C237 C244 1.403 . S
C238 C228 1.476 . S
C238 N233 1.318 1_545 S
C238 C237 1.396 . S
H239 C234 0.929 . S
O240 Mn216 2.385 . S
O240 C218 1.234 . S
O241 Mn216 2.209 . S
O241 Mn217 2.215 . S
O241 C218 1.283 . S
O242 Mn216 2.094 . S
O242 C220 1.240 . S
O243 Mn217 2.117 . S
O243 C220 1.264 . S
C244 C237 1.403 . S
C244 C245 1.399 . S
C244 H250 0.929 . S
C245 C225 1.449 . S
C245 C244 1.399 . S
C245 H251 0.930 . S
H246 C226 0.931 . S
H247 C227 0.930 . S
H248 C235 0.931 . S
H249 C236 0.929 . S
H250 C244 0.929 . S
H251 C245 0.930 . S
Mn252 O257 2.095 . S
Mn252 O267 2.162 . S
Mn252 O268 2.297 . S
Mn252 O276 2.385 . S
Mn252 O277 2.209 . S
Mn252 O278 2.094 . S
Mn253 O258 2.121 . S
Mn253 N260 2.257 . S
Mn253 N269 2.282 . S
Mn253 O277 2.215 . S
Mn253 O279 2.117 . S
C254 O276 1.234 . S
C254 O277 1.283 . S
C255 O267 1.281 . S
C255 O268 1.236 . S
C256 O278 1.240 . S
C256 O279 1.264 . S
O257 Mn252 2.095 . S
O257 C266 1.250 . S
O258 Mn253 2.121 . S
O258 C266 1.258 . S
C259 N260 1.326 . S
C259 C263 1.460 . S
C259 H265 0.929 . S
N260 Mn253 2.257 . S
N260 C259 1.326 . S
N260 C264 1.362 1_455 S
C261 C262 1.258 . S
C261 C264 1.431 . S
C261 C281 1.449 . S
C262 C261 1.258 . S
C262 C263 1.477 1_655 S
C262 H282 0.931 . S
C263 C259 1.460 . S
C263 C262 1.477 1_455 S
C263 H283 0.930 . S
C264 N260 1.362 1_655 S
C264 C261 1.431 . S
C264 C274 1.476 . S
H265 C259 0.929 . S
C266 O257 1.250 . S
C266 O258 1.258 . S
O267 Mn252 2.162 . S
O267 C255 1.281 . S
O268 Mn252 2.297 . S
O268 C255 1.236 . S
N269 Mn253 2.282 . S
N269 C270 1.328 . S
N269 C274 1.318 1_455 S
C270 N269 1.328 . S
C270 C271 1.457 1_455 S
C270 H275 0.929 . S
C271 C270 1.457 1_655 S
C271 C272 1.291 . S
C271 H284 0.931 . S
C272 C271 1.291 . S
C272 C273 1.373 . S
C272 H285 0.929 . S
C273 C272 1.373 . S
C273 C274 1.396 . S
C273 C280 1.403 . S
C274 C264 1.476 . S
C274 N269 1.318 1_655 S
C274 C273 1.396 . S
H275 C270 0.929 . S
O276 Mn252 2.385 . S
O276 C254 1.234 . S
O277 Mn252 2.209 . S
O277 Mn253 2.215 . S
O277 C254 1.283 . S
O278 Mn252 2.094 . S
O278 C256 1.240 . S
O279 Mn253 2.117 . S
O279 C256 1.264 . S
C280 C273 1.403 . S
C280 C281 1.399 . S
C280 H286 0.929 . S
C281 C261 1.449 . S
C281 C280 1.399 . S
C281 H287 0.930 . S
H282 C262 0.931 . S
H283 C263 0.930 . S
H284 C271 0.931 . S
H285 C272 0.929 . S
H286 C280 0.929 . S
H287 C281 0.930 . S
Mn288 O293 2.095 . S
Mn288 O303 2.162 . S
Mn288 O304 2.297 . S
Mn288 O312 2.385 . S
Mn288 O313 2.209 . S
Mn288 O314 2.094 . S
Mn289 O294 2.121 . S
Mn289 N296 2.257 . S
Mn289 N305 2.282 . S
Mn289 O313 2.215 . S
Mn289 O315 2.117 . S
C290 O312 1.234 . S
C290 O313 1.283 . S
C291 O303 1.281 . S
C291 O304 1.236 . S
C292 O314 1.240 . S
C292 O315 1.264 . S
O293 Mn288 2.095 . S
O293 C302 1.250 . S
O294 Mn289 2.121 . S
O294 C302 1.258 . S
C295 N296 1.326 . S
C295 C299 1.460 . S
C295 H301 0.929 . S
N296 Mn289 2.257 . S
N296 C295 1.326 . S
N296 C300 1.362 . S
C297 C298 1.258 . S
C297 C300 1.431 . S
C297 C317 1.449 . S
C298 C297 1.258 . S
C298 C299 1.477 . S
C298 H318 0.931 . S
C299 C295 1.460 . S
C299 C298 1.477 . S
C299 H319 0.930 . S
C300 N296 1.362 . S
C300 C297 1.431 . S
C300 C310 1.476 . S
H301 C295 0.929 . S
C302 O293 1.250 . S
C302 O294 1.258 . S
O303 Mn288 2.162 . S
O303 C291 1.281 . S
O304 Mn288 2.297 . S
O304 C291 1.236 . S
N305 Mn289 2.282 . S
N305 C306 1.328 . S
N305 C310 1.318 . S
C306 N305 1.328 . S
C306 C307 1.457 . S
C306 H311 0.929 . S
C307 C306 1.457 . S
C307 C308 1.291 . S
C307 H320 0.931 . S
C308 C307 1.291 . S
C308 C309 1.373 . S
C308 H321 0.929 . S
C309 C308 1.373 . S
C309 C310 1.396 . S
C309 C316 1.403 . S
C310 C300 1.476 . S
C310 N305 1.318 . S
C310 C309 1.396 . S
H311 C306 0.929 . S
O312 Mn288 2.385 . S
O312 C290 1.234 . S
O313 Mn288 2.209 . S
O313 Mn289 2.215 . S
O313 C290 1.283 . S
O314 Mn288 2.094 . S
O314 C292 1.240 . S
O315 Mn289 2.117 . S
O315 C292 1.264 . S
C316 C309 1.403 . S
C316 C317 1.399 . S
C316 H322 0.929 . S
C317 C297 1.449 . S
C317 C316 1.399 . S
C317 H323 0.930 . S
H318 C298 0.931 . S
H319 C299 0.930 . S
H320 C307 0.931 . S
H321 C308 0.929 . S
H322 C316 0.929 . S
H323 C317 0.930 . S
Mn324 O329 2.095 . S
Mn324 O339 2.162 . S
Mn324 O340 2.297 . S
Mn324 O348 2.385 . S
Mn324 O349 2.209 . S
Mn324 O350 2.094 . S
Mn325 O330 2.121 . S
Mn325 N332 2.257 . S
Mn325 N341 2.282 . S
Mn325 O349 2.215 . S
Mn325 O351 2.117 . S
C326 O348 1.234 . S
C326 O349 1.283 . S
C327 O339 1.281 . S
C327 O340 1.236 . S
C328 O350 1.240 . S
C328 O351 1.264 . S
O329 Mn324 2.095 . S
O329 C338 1.250 . S
O330 Mn325 2.121 . S
O330 C338 1.258 . S
C331 N332 1.326 . S
C331 C335 1.460 . S
C331 H337 0.929 . S
N332 Mn325 2.257 . S
N332 C331 1.326 . S
N332 C336 1.362 1_655 S
C333 C334 1.258 . S
C333 C336 1.431 . S
C333 C353 1.449 . S
C334 C333 1.258 . S
C334 C335 1.477 1_455 S
C334 H354 0.931 . S
C335 C331 1.460 . S
C335 C334 1.477 1_655 S
C335 H355 0.930 . S
C336 N332 1.362 1_455 S
C336 C333 1.431 . S
C336 C346 1.476 . S
H337 C331 0.929 . S
C338 O329 1.250 . S
C338 O330 1.258 . S
O339 Mn324 2.162 . S
O339 C327 1.281 . S
O340 Mn324 2.297 . S
O340 C327 1.236 . S
N341 Mn325 2.282 . S
N341 C342 1.328 . S
N341 C346 1.318 1_655 S
C342 N341 1.328 . S
C342 C343 1.457 1_655 S
C342 H347 0.929 . S
C343 C342 1.457 1_455 S
C343 C344 1.291 . S
C343 H356 0.931 . S
C344 C343 1.291 . S
C344 C345 1.373 . S
C344 H357 0.929 . S
C345 C344 1.373 . S
C345 C346 1.396 . S
C345 C352 1.403 . S
C346 C336 1.476 . S
C346 N341 1.318 1_455 S
C346 C345 1.396 . S
H347 C342 0.929 . S
O348 Mn324 2.385 . S
O348 C326 1.234 . S
O349 Mn324 2.209 . S
O349 Mn325 2.215 . S
O349 C326 1.283 . S
O350 Mn324 2.094 . S
O350 C328 1.240 . S
O351 Mn325 2.117 . S
O351 C328 1.264 . S
C352 C345 1.403 . S
C352 C353 1.399 . S
C352 H358 0.929 . S
C353 C333 1.449 . S
C353 C352 1.399 . S
C353 H359 0.930 . S
H354 C334 0.931 . S
H355 C335 0.930 . S
H356 C343 0.931 . S
H357 C344 0.929 . S
H358 C352 0.929 . S
H359 C353 0.930 . S
Mn360 O365 2.095 . S
Mn360 O375 2.162 . S
Mn360 O376 2.297 . S
Mn360 O384 2.385 . S
Mn360 O385 2.209 . S
Mn360 O386 2.094 . S
Mn361 O366 2.121 . S
Mn361 N368 2.257 . S
Mn361 N377 2.282 . S
Mn361 O385 2.215 . S
Mn361 O387 2.117 . S
C362 O384 1.234 . S
C362 O385 1.283 . S
C363 O375 1.281 . S
C363 O376 1.236 . S
C364 O386 1.240 . S
C364 O387 1.264 . S
O365 Mn360 2.095 . S
O365 C374 1.250 . S
O366 Mn361 2.121 . S
O366 C374 1.258 . S
C367 N368 1.326 . S
C367 C371 1.460 . S
C367 H373 0.929 . S
N368 Mn361 2.257 . S
N368 C367 1.326 . S
N368 C372 1.362 . S
C369 C370 1.258 . S
C369 C372 1.431 . S
C369 C389 1.449 . S
C370 C369 1.258 . S
C370 C371 1.477 . S
C370 H390 0.931 . S
C371 C367 1.460 . S
C371 C370 1.477 . S
C371 H391 0.930 . S
C372 N368 1.362 . S
C372 C369 1.431 . S
C372 C382 1.476 . S
H373 C367 0.929 . S
C374 O365 1.250 . S
C374 O366 1.258 . S
O375 Mn360 2.162 . S
O375 C363 1.281 . S
O376 Mn360 2.297 . S
O376 C363 1.236 . S
N377 Mn361 2.282 . S
N377 C378 1.328 . S
N377 C382 1.318 . S
C378 N377 1.328 . S
C378 C379 1.457 . S
C378 H383 0.929 . S
C379 C378 1.457 . S
C379 C380 1.291 . S
C379 H392 0.931 . S
C380 C379 1.291 . S
C380 C381 1.373 . S
C380 H393 0.929 . S
C381 C380 1.373 . S
C381 C382 1.396 . S
C381 C388 1.403 . S
C382 C372 1.476 . S
C382 N377 1.318 . S
C382 C381 1.396 . S
H383 C378 0.929 . S
O384 Mn360 2.385 . S
O384 C362 1.234 . S
O385 Mn360 2.209 . S
O385 Mn361 2.215 . S
O385 C362 1.283 . S
O386 Mn360 2.094 . S
O386 C364 1.240 . S
O387 Mn361 2.117 . S
O387 C364 1.264 . S
C388 C381 1.403 . S
C388 C389 1.399 . S
C388 H394 0.929 . S
C389 C369 1.449 . S
C389 C388 1.399 . S
C389 H395 0.930 . S
H390 C370 0.931 . S
H391 C371 0.930 . S
H392 C379 0.931 . S
H393 C380 0.929 . S
H394 C388 0.929 . S
H395 C389 0.930 . S
Mn396 O401 2.095 . S
Mn396 O411 2.162 . S
Mn396 O412 2.297 . S
Mn396 O420 2.385 . S
Mn396 O421 2.209 . S
Mn396 O422 2.094 . S
Mn397 O402 2.121 . S
Mn397 N404 2.257 . S
Mn397 N413 2.282 . S
Mn397 O421 2.215 . S
Mn397 O423 2.117 . S
C398 O420 1.234 . S
C398 O421 1.283 . S
C399 O411 1.281 . S
C399 O412 1.236 . S
C400 O422 1.240 . S
C400 O423 1.264 . S
O401 Mn396 2.095 . S
O401 C410 1.250 . S
O402 Mn397 2.121 . S
O402 C410 1.258 . S
C403 N404 1.326 . S
C403 C407 1.460 . S
C403 H409 0.929 . S
N404 Mn397 2.257 . S
N404 C403 1.326 . S
N404 C408 1.362 1_545 S
C405 C406 1.258 . S
C405 C408 1.431 . S
C405 C425 1.449 . S
C406 C405 1.258 . S
C406 C407 1.477 1_565 S
C406 H426 0.931 . S
C407 C403 1.460 . S
C407 C406 1.477 1_545 S
C407 H427 0.930 . S
C408 N404 1.362 1_565 S
C408 C405 1.431 . S
C408 C418 1.476 . S
H409 C403 0.929 . S
C410 O401 1.250 . S
C410 O402 1.258 . S
O411 Mn396 2.162 . S
O411 C399 1.281 . S
O412 Mn396 2.297 . S
O412 C399 1.236 . S
N413 Mn397 2.282 . S
N413 C414 1.328 . S
N413 C418 1.318 1_545 S
C414 N413 1.328 . S
C414 C415 1.457 1_545 S
C414 H419 0.929 . S
C415 C414 1.457 1_565 S
C415 C416 1.291 . S
C415 H428 0.931 . S
C416 C415 1.291 . S
C416 C417 1.373 . S
C416 H429 0.929 . S
C417 C416 1.373 . S
C417 C418 1.396 . S
C417 C424 1.403 . S
C418 C408 1.476 . S
C418 N413 1.318 1_565 S
C418 C417 1.396 . S
H419 C414 0.929 . S
O420 Mn396 2.385 . S
O420 C398 1.234 . S
O421 Mn396 2.209 . S
O421 Mn397 2.215 . S
O421 C398 1.283 . S
O422 Mn396 2.094 . S
O422 C400 1.240 . S
O423 Mn397 2.117 . S
O423 C400 1.264 . S
C424 C417 1.403 . S
C424 C425 1.399 . S
C424 H430 0.929 . S
C425 C405 1.449 . S
C425 C424 1.399 . S
C425 H431 0.930 . S
H426 C406 0.931 . S
H427 C407 0.930 . S
H428 C415 0.931 . S
H429 C416 0.929 . S
H430 C424 0.929 . S
H431 C425 0.930 . S
Mn432 O437 2.095 . S
Mn432 O447 2.162 . S
Mn432 O448 2.297 . S
Mn432 O456 2.385 . S
Mn432 O457 2.209 1_455 S
Mn432 O458 2.094 . S
Mn433 O438 2.121 . S
Mn433 N440 2.257 . S
Mn433 N449 2.282 . S
Mn433 O457 2.215 . S
Mn433 O459 2.117 . S
C434 O456 1.234 1_655 S
C434 O457 1.283 . S
C435 O447 1.281 . S
C435 O448 1.236 . S
C436 O458 1.240 . S
C436 O459 1.264 1_455 S
O437 Mn432 2.095 . S
O437 C446 1.250 1_455 S
O438 Mn433 2.121 . S
O438 C446 1.258 . S
C439 N440 1.326 . S
C439 C443 1.460 . S
C439 H445 0.929 . S
N440 Mn433 2.257 . S
N440 C439 1.326 . S
N440 C444 1.362 . S
C441 C442 1.258 . S
C441 C444 1.431 . S
C441 C461 1.449 . S
C442 C441 1.258 . S
C442 C443 1.477 . S
C442 H462 0.931 . S
C443 C439 1.460 . S
C443 C442 1.477 . S
C443 H463 0.930 . S
C444 N440 1.362 . S
C444 C441 1.431 . S
C444 C454 1.476 . S
H445 C439 0.929 . S
C446 O437 1.250 1_655 S
C446 O438 1.258 . S
O447 Mn432 2.162 . S
O447 C435 1.281 . S
O448 Mn432 2.297 . S
O448 C435 1.236 . S
N449 Mn433 2.282 . S
N449 C450 1.328 . S
N449 C454 1.318 . S
C450 N449 1.328 . S
C450 C451 1.457 . S
C450 H455 0.929 . S
C451 C450 1.457 . S
C451 C452 1.291 . S
C451 H464 0.931 . S
C452 C451 1.291 . S
C452 C453 1.373 . S
C452 H465 0.929 . S
C453 C452 1.373 . S
C453 C454 1.396 . S
C453 C460 1.403 . S
C454 C444 1.476 . S
C454 N449 1.318 . S
C454 C453 1.396 . S
H455 C450 0.929 . S
O456 Mn432 2.385 . S
O456 C434 1.234 1_455 S
O457 Mn432 2.209 1_655 S
O457 Mn433 2.215 . S
O457 C434 1.283 . S
O458 Mn432 2.094 . S
O458 C436 1.240 . S
O459 Mn433 2.117 . S
O459 C436 1.264 1_655 S
C460 C453 1.403 . S
C460 C461 1.399 . S
C460 H466 0.929 . S
C461 C441 1.449 . S
C461 C460 1.399 . S
C461 H467 0.930 . S
H462 C442 0.931 . S
H463 C443 0.930 . S
H464 C451 0.931 . S
H465 C452 0.929 . S
H466 C460 0.929 . S
H467 C461 0.930 . S
Mn468 O473 2.095 . S
Mn468 O483 2.162 . S
Mn468 O484 2.297 . S
Mn468 O492 2.385 . S
Mn468 O493 2.209 . S
Mn468 O494 2.094 . S
Mn469 O474 2.121 . S
Mn469 N476 2.257 . S
Mn469 N485 2.282 . S
Mn469 O493 2.215 . S
Mn469 O495 2.117 . S
C470 O492 1.234 . S
C470 O493 1.283 . S
C471 O483 1.281 . S
C471 O484 1.236 . S
C472 O494 1.240 . S
C472 O495 1.264 . S
O473 Mn468 2.095 . S
O473 C482 1.250 . S
O474 Mn469 2.121 . S
O474 C482 1.258 . S
C475 N476 1.326 . S
C475 C479 1.460 . S
C475 H481 0.929 . S
N476 Mn469 2.257 . S
N476 C475 1.326 . S
N476 C480 1.362 . S
C477 C478 1.258 . S
C477 C480 1.431 . S
C477 C497 1.449 . S
C478 C477 1.258 . S
C478 C479 1.477 . S
C478 H498 0.931 . S
C479 C475 1.460 . S
C479 C478 1.477 . S
C479 H499 0.930 . S
C480 N476 1.362 . S
C480 C477 1.431 . S
C480 C490 1.476 . S
H481 C475 0.929 . S
C482 O473 1.250 . S
C482 O474 1.258 . S
O483 Mn468 2.162 . S
O483 C471 1.281 . S
O484 Mn468 2.297 . S
O484 C471 1.236 . S
N485 Mn469 2.282 . S
N485 C486 1.328 . S
N485 C490 1.318 . S
C486 N485 1.328 . S
C486 C487 1.457 . S
C486 H491 0.929 . S
C487 C486 1.457 . S
C487 C488 1.291 . S
C487 H500 0.931 . S
C488 C487 1.291 . S
C488 C489 1.373 . S
C488 H501 0.929 . S
C489 C488 1.373 . S
C489 C490 1.396 . S
C489 C496 1.403 . S
C490 C480 1.476 . S
C490 N485 1.318 . S
C490 C489 1.396 . S
H491 C486 0.929 . S
O492 Mn468 2.385 . S
O492 C470 1.234 . S
O493 Mn468 2.209 . S
O493 Mn469 2.215 . S
O493 C470 1.283 . S
O494 Mn468 2.094 . S
O494 C472 1.240 . S
O495 Mn469 2.117 . S
O495 C472 1.264 . S
C496 C489 1.403 . S
C496 C497 1.399 . S
C496 H502 0.929 . S
C497 C477 1.449 . S
C497 C496 1.399 . S
C497 H503 0.930 . S
H498 C478 0.931 . S
H499 C479 0.930 . S
H500 C487 0.931 . S
H501 C488 0.929 . S
H502 C496 0.929 . S
H503 C497 0.930 . S
Mn504 O509 2.095 . S
Mn504 O519 2.162 . S
Mn504 O520 2.297 . S
Mn504 O528 2.385 . S
Mn504 O529 2.209 1_565 S
Mn504 O530 2.094 . S
Mn505 O510 2.121 . S
Mn505 N512 2.257 . S
Mn505 N521 2.282 . S
Mn505 O529 2.215 . S
Mn505 O531 2.117 . S
C506 O528 1.234 1_545 S
C506 O529 1.283 . S
C507 O519 1.281 . S
C507 O520 1.236 . S
C508 O530 1.240 . S
C508 O531 1.264 1_565 S
O509 Mn504 2.095 . S
O509 C518 1.250 1_565 S
O510 Mn505 2.121 . S
O510 C518 1.258 . S
C511 N512 1.326 . S
C511 C515 1.460 . S
C511 H517 0.929 . S
N512 Mn505 2.257 . S
N512 C511 1.326 . S
N512 C516 1.362 . S
C513 C514 1.258 . S
C513 C516 1.431 . S
C513 C533 1.449 . S
C514 C513 1.258 . S
C514 C515 1.477 . S
C514 H534 0.931 . S
C515 C511 1.460 . S
C515 C514 1.477 . S
C515 H535 0.930 . S
C516 N512 1.362 . S
C516 C513 1.431 . S
C516 C526 1.476 . S
H517 C511 0.929 . S
C518 O509 1.250 1_545 S
C518 O510 1.258 . S
O519 Mn504 2.162 . S
O519 C507 1.281 . S
O520 Mn504 2.297 . S
O520 C507 1.236 . S
N521 Mn505 2.282 . S
N521 C522 1.328 . S
N521 C526 1.318 . S
C522 N521 1.328 . S
C522 C523 1.457 . S
C522 H527 0.929 . S
C523 C522 1.457 . S
C523 C524 1.291 . S
C523 H536 0.931 . S
C524 C523 1.291 . S
C524 C525 1.373 . S
C524 H537 0.929 . S
C525 C524 1.373 . S
C525 C526 1.396 . S
C525 C532 1.403 . S
C526 C516 1.476 . S
C526 N521 1.318 . S
C526 C525 1.396 . S
H527 C522 0.929 . S
O528 Mn504 2.385 . S
O528 C506 1.234 1_565 S
O529 Mn504 2.209 1_545 S
O529 Mn505 2.215 . S
O529 C506 1.283 . S
O530 Mn504 2.094 . S
O530 C508 1.240 . S
O531 Mn505 2.117 . S
O531 C508 1.264 1_545 S
C532 C525 1.403 . S
C532 C533 1.399 . S
C532 H538 0.929 . S
C533 C513 1.449 . S
C533 C532 1.399 . S
C533 H539 0.930 . S
H534 C514 0.931 . S
H535 C515 0.930 . S
H536 C523 0.931 . S
H537 C524 0.929 . S
H538 C532 0.929 . S
H539 C533 0.930 . S
Mn540 O545 2.095 . S
Mn540 O555 2.162 . S
Mn540 O556 2.297 . S
Mn540 O564 2.385 . S
Mn540 O565 2.209 . S
Mn540 O566 2.094 . S
Mn541 O546 2.121 . S
Mn541 N548 2.257 . S
Mn541 N557 2.282 . S
Mn541 O565 2.215 . S
Mn541 O567 2.117 . S
C542 O564 1.234 . S
C542 O565 1.283 . S
C543 O555 1.281 . S
C543 O556 1.236 . S
C544 O566 1.240 . S
C544 O567 1.264 . S
O545 Mn540 2.095 . S
O545 C554 1.250 . S
O546 Mn541 2.121 . S
O546 C554 1.258 . S
C547 N548 1.326 . S
C547 C551 1.460 . S
C547 H553 0.929 . S
N548 Mn541 2.257 . S
N548 C547 1.326 . S
N548 C552 1.362 . S
C549 C550 1.258 . S
C549 C552 1.431 . S
C549 C569 1.449 . S
C550 C549 1.258 . S
C550 C551 1.477 . S
C550 H570 0.931 . S
C551 C547 1.460 . S
C551 C550 1.477 . S
C551 H571 0.930 . S
C552 N548 1.362 . S
C552 C549 1.431 . S
C552 C562 1.476 . S
H553 C547 0.929 . S
C554 O545 1.250 . S
C554 O546 1.258 . S
O555 Mn540 2.162 . S
O555 C543 1.281 . S
O556 Mn540 2.297 . S
O556 C543 1.236 . S
N557 Mn541 2.282 . S
N557 C558 1.328 . S
N557 C562 1.318 . S
C558 N557 1.328 . S
C558 C559 1.457 . S
C558 H563 0.929 . S
C559 C558 1.457 . S
C559 C560 1.291 . S
C559 H572 0.931 . S
C560 C559 1.291 . S
C560 C561 1.373 . S
C560 H573 0.929 . S
C561 C560 1.373 . S
C561 C562 1.396 . S
C561 C568 1.403 . S
C562 C552 1.476 . S
C562 N557 1.318 . S
C562 C561 1.396 . S
H563 C558 0.929 . S
O564 Mn540 2.385 . S
O564 C542 1.234 . S
O565 Mn540 2.209 . S
O565 Mn541 2.215 . S
O565 C542 1.283 . S
O566 Mn540 2.094 . S
O566 C544 1.240 . S
O567 Mn541 2.117 . S
O567 C544 1.264 . S
C568 C561 1.403 . S
C568 C569 1.399 . S
C568 H574 0.929 . S
C569 C549 1.449 . S
C569 C568 1.399 . S
C569 H575 0.930 . S
H570 C550 0.931 . S
H571 C551 0.930 . S
H572 C559 0.931 . S
H573 C560 0.929 . S
H574 C568 0.929 . S
H575 C569 0.930 . S
Mn576 O581 2.095 . S
Mn576 O591 2.162 . S
Mn576 O592 2.297 . S
Mn576 O600 2.385 . S
Mn576 O601 2.209 . S
Mn576 O602 2.094 . S
Mn577 O582 2.121 . S
Mn577 N584 2.257 . S
Mn577 N593 2.282 . S
Mn577 O601 2.215 . S
Mn577 O603 2.117 . S
C578 O600 1.234 . S
C578 O601 1.283 . S
C579 O591 1.281 . S
C579 O592 1.236 . S
C580 O602 1.240 . S
C580 O603 1.264 . S
O581 Mn576 2.095 . S
O581 C590 1.250 . S
O582 Mn577 2.121 . S
O582 C590 1.258 . S
C583 N584 1.326 . S
C583 C587 1.460 . S
C583 H589 0.929 . S
N584 Mn577 2.257 . S
N584 C583 1.326 . S
N584 C588 1.362 . S
C585 C586 1.258 . S
C585 C588 1.431 . S
C585 C605 1.449 . S
C586 C585 1.258 . S
C586 C587 1.477 . S
C586 H606 0.931 . S
C587 C583 1.460 . S
C587 C586 1.477 . S
C587 H607 0.930 . S
C588 N584 1.362 . S
C588 C585 1.431 . S
C588 C598 1.476 . S
H589 C583 0.929 . S
C590 O581 1.250 . S
C590 O582 1.258 . S
O591 Mn576 2.162 . S
O591 C579 1.281 . S
O592 Mn576 2.297 . S
O592 C579 1.236 . S
N593 Mn577 2.282 . S
N593 C594 1.328 . S
N593 C598 1.318 . S
C594 N593 1.328 . S
C594 C595 1.457 . S
C594 H599 0.929 . S
C595 C594 1.457 . S
C595 C596 1.291 . S
C595 H608 0.931 . S
C596 C595 1.291 . S
C596 C597 1.373 . S
C596 H609 0.929 . S
C597 C596 1.373 . S
C597 C598 1.396 . S
C597 C604 1.403 . S
C598 C588 1.476 . S
C598 N593 1.318 . S
C598 C597 1.396 . S
H599 C594 0.929 . S
O600 Mn576 2.385 . S
O600 C578 1.234 . S
O601 Mn576 2.209 . S
O601 Mn577 2.215 . S
O601 C578 1.283 . S
O602 Mn576 2.094 . S
O602 C580 1.240 . S
O603 Mn577 2.117 . S
O603 C580 1.264 . S
C604 C597 1.403 . S
C604 C605 1.399 . S
C604 H610 0.929 . S
C605 C585 1.449 . S
C605 C604 1.399 . S
C605 H611 0.930 . S
H606 C586 0.931 . S
H607 C587 0.930 . S
H608 C595 0.931 . S
H609 C596 0.929 . S
H610 C604 0.929 . S
H611 C605 0.930 . S
Mn612 O617 2.095 . S
Mn612 O627 2.162 . S
Mn612 O628 2.297 . S
Mn612 O636 2.385 . S
Mn612 O637 2.209 . S
Mn612 O638 2.094 . S
Mn613 O618 2.121 . S
Mn613 N620 2.257 . S
Mn613 N629 2.282 . S
Mn613 O637 2.215 . S
Mn613 O639 2.117 . S
C614 O636 1.234 . S
C614 O637 1.283 . S
C615 O627 1.281 . S
C615 O628 1.236 . S
C616 O638 1.240 . S
C616 O639 1.264 . S
O617 Mn612 2.095 . S
O617 C626 1.250 . S
O618 Mn613 2.121 . S
O618 C626 1.258 . S
C619 N620 1.326 . S
C619 C623 1.460 . S
C619 H625 0.929 . S
N620 Mn613 2.257 . S
N620 C619 1.326 . S
N620 C624 1.362 . S
C621 C622 1.258 . S
C621 C624 1.431 . S
C621 C641 1.449 . S
C622 C621 1.258 . S
C622 C623 1.477 . S
C622 H642 0.931 . S
C623 C619 1.460 . S
C623 C622 1.477 . S
C623 H643 0.930 . S
C624 N620 1.362 . S
C624 C621 1.431 . S
C624 C634 1.476 . S
H625 C619 0.929 . S
C626 O617 1.250 . S
C626 O618 1.258 . S
O627 Mn612 2.162 . S
O627 C615 1.281 . S
O628 Mn612 2.297 . S
O628 C615 1.236 . S
N629 Mn613 2.282 . S
N629 C630 1.328 . S
N629 C634 1.318 . S
C630 N629 1.328 . S
C630 C631 1.457 . S
C630 H635 0.929 . S
C631 C630 1.457 . S
C631 C632 1.291 . S
C631 H644 0.931 . S
C632 C631 1.291 . S
C632 C633 1.373 . S
C632 H645 0.929 . S
C633 C632 1.373 . S
C633 C634 1.396 . S
C633 C640 1.403 . S
C634 C624 1.476 . S
C634 N629 1.318 . S
C634 C633 1.396 . S
H635 C630 0.929 . S
O636 Mn612 2.385 . S
O636 C614 1.234 . S
O637 Mn612 2.209 . S
O637 Mn613 2.215 . S
O637 C614 1.283 . S
O638 Mn612 2.094 . S
O638 C616 1.240 . S
O639 Mn613 2.117 . S
O639 C616 1.264 . S
C640 C633 1.403 . S
C640 C641 1.399 . S
C640 H646 0.929 . S
C641 C621 1.449 . S
C641 C640 1.399 . S
C641 H647 0.930 . S
H642 C622 0.931 . S
H643 C623 0.930 . S
H644 C631 0.931 . S
H645 C632 0.929 . S
H646 C640 0.929 . S
H647 C641 0.930 . S
Mn648 O653 2.095 . S
Mn648 O663 2.162 . S
Mn648 O664 2.297 . S
Mn648 O672 2.385 . S
Mn648 O673 2.209 . S
Mn648 O674 2.094 1_554 S
Mn649 O654 2.121 . S
Mn649 N656 2.257 . S
Mn649 N665 2.282 1_554 S
Mn649 O673 2.215 . S
Mn649 O675 2.117 1_554 S
C650 O672 1.234 . S
C650 O673 1.283 . S
C651 O663 1.281 . S
C651 O664 1.236 . S
C652 O674 1.240 . S
C652 O675 1.264 . S
O653 Mn648 2.095 . S
O653 C662 1.250 . S
O654 Mn649 2.121 . S
O654 C662 1.258 . S
C655 N656 1.326 . S
C655 C659 1.460 . S
C655 H661 0.929 . S
N656 Mn649 2.257 . S
N656 C655 1.326 . S
N656 C660 1.362 . S
C657 C658 1.258 . S
C657 C660 1.431 . S
C657 C677 1.449 . S
C658 C657 1.258 . S
C658 C659 1.477 . S
C658 H678 0.931 . S
C659 C655 1.460 . S
C659 C658 1.477 . S
C659 H679 0.930 . S
C660 N656 1.362 . S
C660 C657 1.431 . S
C660 C670 1.476 1_554 S
H661 C655 0.929 . S
C662 O653 1.250 . S
C662 O654 1.258 . S
O663 Mn648 2.162 . S
O663 C651 1.281 . S
O664 Mn648 2.297 . S
O664 C651 1.236 . S
N665 Mn649 2.282 1_556 S
N665 C666 1.328 . S
N665 C670 1.318 . S
C666 N665 1.328 . S
C666 C667 1.457 . S
C666 H671 0.929 . S
C667 C666 1.457 . S
C667 C668 1.291 . S
C667 H680 0.931 . S
C668 C667 1.291 . S
C668 C669 1.373 . S
C668 H681 0.929 . S
C669 C668 1.373 . S
C669 C670 1.396 . S
C669 C676 1.403 . S
C670 C660 1.476 1_556 S
C670 N665 1.318 . S
C670 C669 1.396 . S
H671 C666 0.929 . S
O672 Mn648 2.385 . S
O672 C650 1.234 . S
O673 Mn648 2.209 . S
O673 Mn649 2.215 . S
O673 C650 1.283 . S
O674 Mn648 2.094 1_556 S
O674 C652 1.240 . S
O675 Mn649 2.117 1_556 S
O675 C652 1.264 . S
C676 C669 1.403 . S
C676 C677 1.399 1_556 S
C676 H682 0.929 . S
C677 C657 1.449 . S
C677 C676 1.399 1_554 S
C677 H683 0.930 . S
H678 C658 0.931 . S
H679 C659 0.930 . S
H680 C667 0.931 . S
H681 C668 0.929 . S
H682 C676 0.929 . S
H683 C677 0.930 . S
Mn684 O689 2.095 . S
Mn684 O699 2.162 . S
Mn684 O700 2.297 . S
Mn684 O708 2.385 . S
Mn684 O709 2.209 . S
Mn684 O710 2.094 1_554 S
Mn685 O690 2.121 . S
Mn685 N692 2.257 . S
Mn685 N701 2.282 1_554 S
Mn685 O709 2.215 . S
Mn685 O711 2.117 1_554 S
C686 O708 1.234 . S
C686 O709 1.283 . S
C687 O699 1.281 . S
C687 O700 1.236 . S
C688 O710 1.240 . S
C688 O711 1.264 . S
O689 Mn684 2.095 . S
O689 C698 1.250 . S
O690 Mn685 2.121 . S
O690 C698 1.258 . S
C691 N692 1.326 . S
C691 C695 1.460 . S
C691 H697 0.929 . S
N692 Mn685 2.257 . S
N692 C691 1.326 . S
N692 C696 1.362 . S
C693 C694 1.258 . S
C693 C696 1.431 . S
C693 C713 1.449 . S
C694 C693 1.258 . S
C694 C695 1.477 . S
C694 H714 0.931 . S
C695 C691 1.460 . S
C695 C694 1.477 . S
C695 H715 0.930 . S
C696 N692 1.362 . S
C696 C693 1.431 . S
C696 C706 1.476 1_554 S
H697 C691 0.929 . S
C698 O689 1.250 . S
C698 O690 1.258 . S
O699 Mn684 2.162 . S
O699 C687 1.281 . S
O700 Mn684 2.297 . S
O700 C687 1.236 . S
N701 Mn685 2.282 1_556 S
N701 C702 1.328 . S
N701 C706 1.318 . S
C702 N701 1.328 . S
C702 C703 1.457 . S
C702 H707 0.929 . S
C703 C702 1.457 . S
C703 C704 1.291 . S
C703 H716 0.931 . S
C704 C703 1.291 . S
C704 C705 1.373 . S
C704 H717 0.929 . S
C705 C704 1.373 . S
C705 C706 1.396 . S
C705 C712 1.403 . S
C706 C696 1.476 1_556 S
C706 N701 1.318 . S
C706 C705 1.396 . S
H707 C702 0.929 . S
O708 Mn684 2.385 . S
O708 C686 1.234 . S
O709 Mn684 2.209 . S
O709 Mn685 2.215 . S
O709 C686 1.283 . S
O710 Mn684 2.094 1_556 S
O710 C688 1.240 . S
O711 Mn685 2.117 1_556 S
O711 C688 1.264 . S
C712 C705 1.403 . S
C712 C713 1.399 1_556 S
C712 H718 0.929 . S
C713 C693 1.449 . S
C713 C712 1.399 1_554 S
C713 H719 0.930 . S
H714 C694 0.931 . S
H715 C695 0.930 . S
H716 C703 0.931 . S
H717 C704 0.929 . S
H718 C712 0.929 . S
H719 C713 0.930 . S
Mn720 O725 2.095 . S
Mn720 O735 2.162 . S
Mn720 O736 2.297 . S
Mn720 O744 2.385 . S
Mn720 O745 2.209 . S
Mn720 O746 2.094 1_554 S
Mn721 O726 2.121 . S
Mn721 N728 2.257 . S
Mn721 N737 2.282 1_554 S
Mn721 O745 2.215 . S
Mn721 O747 2.117 1_554 S
C722 O744 1.234 . S
C722 O745 1.283 . S
C723 O735 1.281 . S
C723 O736 1.236 . S
C724 O746 1.240 . S
C724 O747 1.264 . S
O725 Mn720 2.095 . S
O725 C734 1.250 . S
O726 Mn721 2.121 . S
O726 C734 1.258 . S
C727 N728 1.326 . S
C727 C731 1.460 . S
C727 H733 0.929 . S
N728 Mn721 2.257 . S
N728 C727 1.326 . S
N728 C732 1.362 . S
C729 C730 1.258 . S
C729 C732 1.431 . S
C729 C749 1.449 . S
C730 C729 1.258 . S
C730 C731 1.477 . S
C730 H750 0.931 . S
C731 C727 1.460 . S
C731 C730 1.477 . S
C731 H751 0.930 . S
C732 N728 1.362 . S
C732 C729 1.431 . S
C732 C742 1.476 1_554 S
H733 C727 0.929 . S
C734 O725 1.250 . S
C734 O726 1.258 . S
O735 Mn720 2.162 . S
O735 C723 1.281 . S
O736 Mn720 2.297 . S
O736 C723 1.236 . S
N737 Mn721 2.282 1_556 S
N737 C738 1.328 . S
N737 C742 1.318 . S
C738 N737 1.328 . S
C738 C739 1.457 . S
C738 H743 0.929 . S
C739 C738 1.457 . S
C739 C740 1.291 . S
C739 H752 0.931 . S
C740 C739 1.291 . S
C740 C741 1.373 . S
C740 H753 0.929 . S
C741 C740 1.373 . S
C741 C742 1.396 . S
C741 C748 1.403 . S
C742 C732 1.476 1_556 S
C742 N737 1.318 . S
C742 C741 1.396 . S
H743 C738 0.929 . S
O744 Mn720 2.385 . S
O744 C722 1.234 . S
O745 Mn720 2.209 . S
O745 Mn721 2.215 . S
O745 C722 1.283 . S
O746 Mn720 2.094 1_556 S
O746 C724 1.240 . S
O747 Mn721 2.117 1_556 S
O747 C724 1.264 . S
C748 C741 1.403 . S
C748 C749 1.399 1_556 S
C748 H754 0.929 . S
C749 C729 1.449 . S
C749 C748 1.399 1_554 S
C749 H755 0.930 . S
H750 C730 0.931 . S
H751 C731 0.930 . S
H752 C739 0.931 . S
H753 C740 0.929 . S
H754 C748 0.929 . S
H755 C749 0.930 . S
Mn756 O761 2.095 . S
Mn756 O771 2.162 . S
Mn756 O772 2.297 1_554 S
Mn756 O780 2.385 . S
Mn756 O781 2.209 1_565 S
Mn756 O782 2.094 . S
Mn757 O762 2.121 . S
Mn757 N764 2.257 . S
Mn757 N773 2.282 . S
Mn757 O781 2.215 . S
Mn757 O783 2.117 . S
C758 O780 1.234 1_545 S
C758 O781 1.283 . S
C759 O771 1.281 1_556 S
C759 O772 1.236 . S
C760 O782 1.240 . S
C760 O783 1.264 1_565 S
O761 Mn756 2.095 . S
O761 C770 1.250 1_565 S
O762 Mn757 2.121 . S
O762 C770 1.258 . S
C763 N764 1.326 . S
C763 C767 1.460 . S
C763 H769 0.929 . S
N764 Mn757 2.257 . S
N764 C763 1.326 . S
N764 C768 1.362 . S
C765 C766 1.258 . S
C765 C768 1.431 . S
C765 C785 1.449 . S
C766 C765 1.258 . S
C766 C767 1.477 . S
C766 H786 0.931 . S
C767 C763 1.460 . S
C767 C766 1.477 . S
C767 H787 0.930 1_554 S
C768 N764 1.362 . S
C768 C765 1.431 . S
C768 C778 1.476 . S
H769 C763 0.929 . S
C770 O761 1.250 1_545 S
C770 O762 1.258 . S
O771 Mn756 2.162 . S
O771 C759 1.281 1_554 S
O772 Mn756 2.297 1_556 S
O772 C759 1.236 . S
N773 Mn757 2.282 . S
N773 C774 1.328 . S
N773 C778 1.318 . S
C774 N773 1.328 . S
C774 C775 1.457 . S
C774 H779 0.929 . S
C775 C774 1.457 . S
C775 C776 1.291 . S
C775 H788 0.931 . S
C776 C775 1.291 . S
C776 C777 1.373 . S
C776 H789 0.929 . S
C777 C776 1.373 . S
C777 C778 1.396 . S
C777 C784 1.403 . S
C778 C768 1.476 . S
C778 N773 1.318 . S
C778 C777 1.396 . S
H779 C774 0.929 . S
O780 Mn756 2.385 . S
O780 C758 1.234 1_565 S
O781 Mn756 2.209 1_545 S
O781 Mn757 2.215 . S
O781 C758 1.283 . S
O782 Mn756 2.094 . S
O782 C760 1.240 . S
O783 Mn757 2.117 . S
O783 C760 1.264 1_545 S
C784 C777 1.403 . S
C784 C785 1.399 . S
C784 H790 0.929 . S
C785 C765 1.449 . S
C785 C784 1.399 . S
C785 H791 0.930 . S
H786 C766 0.931 . S
H787 C767 0.930 1_556 S
H788 C775 0.931 . S
H789 C776 0.929 . S
H790 C784 0.929 . S
H791 C785 0.930 . S
Mn792 O797 2.095 . S
Mn792 O807 2.162 . S
Mn792 O808 2.297 1_554 S
Mn792 O816 2.385 . S
Mn792 O817 2.209 1_455 S
Mn792 O818 2.094 . S
Mn793 O798 2.121 . S
Mn793 N800 2.257 . S
Mn793 N809 2.282 . S
Mn793 O817 2.215 . S
Mn793 O819 2.117 . S
C794 O816 1.234 1_655 S
C794 O817 1.283 . S
C795 O807 1.281 1_556 S
C795 O808 1.236 . S
C796 O818 1.240 . S
C796 O819 1.264 1_455 S
O797 Mn792 2.095 . S
O797 C806 1.250 1_455 S
O798 Mn793 2.121 . S
O798 C806 1.258 . S
C799 N800 1.326 . S
C799 C803 1.460 . S
C799 H805 0.929 . S
N800 Mn793 2.257 . S
N800 C799 1.326 . S
N800 C804 1.362 . S
C801 C802 1.258 . S
C801 C804 1.431 . S
C801 C821 1.449 . S
C802 C801 1.258 . S
C802 C803 1.477 . S
C802 H822 0.931 . S
C803 C799 1.460 . S
C803 C802 1.477 . S
C803 H823 0.930 1_554 S
C804 N800 1.362 . S
C804 C801 1.431 . S
C804 C814 1.476 . S
H805 C799 0.929 . S
C806 O797 1.250 1_655 S
C806 O798 1.258 . S
O807 Mn792 2.162 . S
O807 C795 1.281 1_554 S
O808 Mn792 2.297 1_556 S
O808 C795 1.236 . S
N809 Mn793 2.282 . S
N809 C810 1.328 . S
N809 C814 1.318 . S
C810 N809 1.328 . S
C810 C811 1.457 . S
C810 H815 0.929 . S
C811 C810 1.457 . S
C811 C812 1.291 . S
C811 H824 0.931 . S
C812 C811 1.291 . S
C812 C813 1.373 . S
C812 H825 0.929 . S
C813 C812 1.373 . S
C813 C814 1.396 . S
C813 C820 1.403 . S
C814 C804 1.476 . S
C814 N809 1.318 . S
C814 C813 1.396 . S
H815 C810 0.929 . S
O816 Mn792 2.385 . S
O816 C794 1.234 1_455 S
O817 Mn792 2.209 1_655 S
O817 Mn793 2.215 . S
O817 C794 1.283 . S
O818 Mn792 2.094 . S
O818 C796 1.240 . S
O819 Mn793 2.117 . S
O819 C796 1.264 1_655 S
C820 C813 1.403 . S
C820 C821 1.399 . S
C820 H826 0.929 . S
C821 C801 1.449 . S
C821 C820 1.399 . S
C821 H827 0.930 . S
H822 C802 0.931 . S
H823 C803 0.930 1_556 S
H824 C811 0.931 . S
H825 C812 0.929 . S
H826 C820 0.929 . S
H827 C821 0.930 . S
Mn828 O833 2.095 . S
Mn828 O843 2.162 . S
Mn828 O844 2.297 1_554 S
Mn828 O852 2.385 . S
Mn828 O853 2.209 . S
Mn828 O854 2.094 . S
Mn829 O834 2.121 . S
Mn829 N836 2.257 . S
Mn829 N845 2.282 . S
Mn829 O853 2.215 . S
Mn829 O855 2.117 . S
C830 O852 1.234 . S
C830 O853 1.283 . S
C831 O843 1.281 1_556 S
C831 O844 1.236 . S
C832 O854 1.240 . S
C832 O855 1.264 . S
O833 Mn828 2.095 . S
O833 C842 1.250 . S
O834 Mn829 2.121 . S
O834 C842 1.258 . S
C835 N836 1.326 . S
C835 C839 1.460 . S
C835 H841 0.929 . S
N836 Mn829 2.257 . S
N836 C835 1.326 . S
N836 C840 1.362 . S
C837 C838 1.258 . S
C837 C840 1.431 . S
C837 C857 1.449 . S
C838 C837 1.258 . S
C838 C839 1.477 . S
C838 H858 0.931 . S
C839 C835 1.460 . S
C839 C838 1.477 . S
C839 H859 0.930 1_554 S
C840 N836 1.362 . S
C840 C837 1.431 . S
C840 C850 1.476 . S
H841 C835 0.929 . S
C842 O833 1.250 . S
C842 O834 1.258 . S
O843 Mn828 2.162 . S
O843 C831 1.281 1_554 S
O844 Mn828 2.297 1_556 S
O844 C831 1.236 . S
N845 Mn829 2.282 . S
N845 C846 1.328 . S
N845 C850 1.318 . S
C846 N845 1.328 . S
C846 C847 1.457 . S
C846 H851 0.929 . S
C847 C846 1.457 . S
C847 C848 1.291 . S
C847 H860 0.931 . S
C848 C847 1.291 . S
C848 C849 1.373 . S
C848 H861 0.929 . S
C849 C848 1.373 . S
C849 C850 1.396 . S
C849 C856 1.403 . S
C850 C840 1.476 . S
C850 N845 1.318 . S
C850 C849 1.396 . S
H851 C846 0.929 . S
O852 Mn828 2.385 . S
O852 C830 1.234 . S
O853 Mn828 2.209 . S
O853 Mn829 2.215 . S
O853 C830 1.283 . S
O854 Mn828 2.094 . S
O854 C832 1.240 . S
O855 Mn829 2.117 . S
O855 C832 1.264 . S
C856 C849 1.403 . S
C856 C857 1.399 . S
C856 H862 0.929 . S
C857 C837 1.449 . S
C857 C856 1.399 . S
C857 H863 0.930 . S
H858 C838 0.931 . S
H859 C839 0.930 1_556 S
H860 C847 0.931 . S
H861 C848 0.929 . S
H862 C856 0.929 . S
H863 C857 0.930 . S
Mn864 O869 2.095 . S
Mn864 O879 2.162 . S
Mn864 O880 2.297 . S
Mn864 O888 2.385 . S
Mn864 O889 2.209 . S
Mn864 O890 2.094 1_556 S
Mn865 O870 2.121 . S
Mn865 N872 2.257 . S
Mn865 N881 2.282 1_556 S
Mn865 O889 2.215 . S
Mn865 O891 2.117 1_556 S
C866 O888 1.234 . S
C866 O889 1.283 . S
C867 O879 1.281 . S
C867 O880 1.236 . S
C868 O890 1.240 . S
C868 O891 1.264 . S
O869 Mn864 2.095 . S
O869 C878 1.250 . S
O870 Mn865 2.121 . S
O870 C878 1.258 . S
C871 N872 1.326 . S
C871 C875 1.460 . S
C871 H877 0.929 . S
N872 Mn865 2.257 . S
N872 C871 1.326 . S
N872 C876 1.362 . S
C873 C874 1.258 . S
C873 C876 1.431 . S
C873 C893 1.449 . S
C874 C873 1.258 . S
C874 C875 1.477 . S
C874 H894 0.931 . S
C875 C871 1.460 . S
C875 C874 1.477 . S
C875 H895 0.930 . S
C876 N872 1.362 . S
C876 C873 1.431 . S
C876 C886 1.476 1_556 S
H877 C871 0.929 . S
C878 O869 1.250 . S
C878 O870 1.258 . S
O879 Mn864 2.162 . S
O879 C867 1.281 . S
O880 Mn864 2.297 . S
O880 C867 1.236 . S
N881 Mn865 2.282 1_554 S
N881 C882 1.328 . S
N881 C886 1.318 . S
C882 N881 1.328 . S
C882 C883 1.457 . S
C882 H887 0.929 . S
C883 C882 1.457 . S
C883 C884 1.291 . S
C883 H896 0.931 . S
C884 C883 1.291 . S
C884 C885 1.373 . S
C884 H897 0.929 . S
C885 C884 1.373 . S
C885 C886 1.396 . S
C885 C892 1.403 . S
C886 C876 1.476 1_554 S
C886 N881 1.318 . S
C886 C885 1.396 . S
H887 C882 0.929 . S
O888 Mn864 2.385 . S
O888 C866 1.234 . S
O889 Mn864 2.209 . S
O889 Mn865 2.215 . S
O889 C866 1.283 . S
O890 Mn864 2.094 1_554 S
O890 C868 1.240 . S
O891 Mn865 2.117 1_554 S
O891 C868 1.264 . S
C892 C885 1.403 . S
C892 C893 1.399 1_554 S
C892 H898 0.929 . S
C893 C873 1.449 . S
C893 C892 1.399 1_556 S
C893 H899 0.930 . S
H894 C874 0.931 . S
H895 C875 0.930 . S
H896 C883 0.931 . S
H897 C884 0.929 . S
H898 C892 0.929 . S
H899 C893 0.930 . S
Mn900 O905 2.095 . S
Mn900 O915 2.162 . S
Mn900 O916 2.297 . S
Mn900 O924 2.385 . S
Mn900 O925 2.209 . S
Mn900 O926 2.094 1_556 S
Mn901 O906 2.121 . S
Mn901 N908 2.257 . S
Mn901 N917 2.282 1_556 S
Mn901 O925 2.215 . S
Mn901 O927 2.117 1_556 S
C902 O924 1.234 . S
C902 O925 1.283 . S
C903 O915 1.281 . S
C903 O916 1.236 . S
C904 O926 1.240 . S
C904 O927 1.264 . S
O905 Mn900 2.095 . S
O905 C914 1.250 . S
O906 Mn901 2.121 . S
O906 C914 1.258 . S
C907 N908 1.326 . S
C907 C911 1.460 . S
C907 H913 0.929 . S
N908 Mn901 2.257 . S
N908 C907 1.326 . S
N908 C912 1.362 . S
C909 C910 1.258 . S
C909 C912 1.431 . S
C909 C929 1.449 . S
C910 C909 1.258 . S
C910 C911 1.477 . S
C910 H930 0.931 . S
C911 C907 1.460 . S
C911 C910 1.477 . S
C911 H931 0.930 . S
C912 N908 1.362 . S
C912 C909 1.431 . S
C912 C922 1.476 1_556 S
H913 C907 0.929 . S
C914 O905 1.250 . S
C914 O906 1.258 . S
O915 Mn900 2.162 . S
O915 C903 1.281 . S
O916 Mn900 2.297 . S
O916 C903 1.236 . S
N917 Mn901 2.282 1_554 S
N917 C918 1.328 . S
N917 C922 1.318 . S
C918 N917 1.328 . S
C918 C919 1.457 . S
C918 H923 0.929 . S
C919 C918 1.457 . S
C919 C920 1.291 . S
C919 H932 0.931 . S
C920 C919 1.291 . S
C920 C921 1.373 . S
C920 H933 0.929 . S
C921 C920 1.373 . S
C921 C922 1.396 . S
C921 C928 1.403 . S
C922 C912 1.476 1_554 S
C922 N917 1.318 . S
C922 C921 1.396 . S
H923 C918 0.929 . S
O924 Mn900 2.385 . S
O924 C902 1.234 . S
O925 Mn900 2.209 . S
O925 Mn901 2.215 . S
O925 C902 1.283 . S
O926 Mn900 2.094 1_554 S
O926 C904 1.240 . S
O927 Mn901 2.117 1_554 S
O927 C904 1.264 . S
C928 C921 1.403 . S
C928 C929 1.399 1_554 S
C928 H934 0.929 . S
C929 C909 1.449 . S
C929 C928 1.399 1_556 S
C929 H935 0.930 . S
H930 C910 0.931 . S
H931 C911 0.930 . S
H932 C919 0.931 . S
H933 C920 0.929 . S
H934 C928 0.929 . S
H935 C929 0.930 . S
Mn936 O941 2.095 . S
Mn936 O951 2.162 . S
Mn936 O952 2.297 . S
Mn936 O960 2.385 . S
Mn936 O961 2.209 . S
Mn936 O962 2.094 1_556 S
Mn937 O942 2.121 . S
Mn937 N944 2.257 . S
Mn937 N953 2.282 1_556 S
Mn937 O961 2.215 . S
Mn937 O963 2.117 1_556 S
C938 O960 1.234 . S
C938 O961 1.283 . S
C939 O951 1.281 . S
C939 O952 1.236 . S
C940 O962 1.240 . S
C940 O963 1.264 . S
O941 Mn936 2.095 . S
O941 C950 1.250 . S
O942 Mn937 2.121 . S
O942 C950 1.258 . S
C943 N944 1.326 . S
C943 C947 1.460 . S
C943 H949 0.929 . S
N944 Mn937 2.257 . S
N944 C943 1.326 . S
N944 C948 1.362 . S
C945 C946 1.258 . S
C945 C948 1.431 . S
C945 C965 1.449 . S
C946 C945 1.258 . S
C946 C947 1.477 . S
C946 H966 0.931 . S
C947 C943 1.460 . S
C947 C946 1.477 . S
C947 H967 0.930 . S
C948 N944 1.362 . S
C948 C945 1.431 . S
C948 C958 1.476 1_556 S
H949 C943 0.929 . S
C950 O941 1.250 . S
C950 O942 1.258 . S
O951 Mn936 2.162 . S
O951 C939 1.281 . S
O952 Mn936 2.297 . S
O952 C939 1.236 . S
N953 Mn937 2.282 1_554 S
N953 C954 1.328 . S
N953 C958 1.318 . S
C954 N953 1.328 . S
C954 C955 1.457 . S
C954 H959 0.929 . S
C955 C954 1.457 . S
C955 C956 1.291 . S
C955 H968 0.931 . S
C956 C955 1.291 . S
C956 C957 1.373 . S
C956 H969 0.929 . S
C957 C956 1.373 . S
C957 C958 1.396 . S
C957 C964 1.403 . S
C958 C948 1.476 1_554 S
C958 N953 1.318 . S
C958 C957 1.396 . S
H959 C954 0.929 . S
O960 Mn936 2.385 . S
O960 C938 1.234 . S
O961 Mn936 2.209 . S
O961 Mn937 2.215 . S
O961 C938 1.283 . S
O962 Mn936 2.094 1_554 S
O962 C940 1.240 . S
O963 Mn937 2.117 1_554 S
O963 C940 1.264 . S
C964 C957 1.403 . S
C964 C965 1.399 1_554 S
C964 H970 0.929 . S
C965 C945 1.449 . S
C965 C964 1.399 1_556 S
C965 H971 0.930 . S
H966 C946 0.931 . S
H967 C947 0.930 . S
H968 C955 0.931 . S
H969 C956 0.929 . S
H970 C964 0.929 . S
H971 C965 0.930 . S
Mn972 O977 2.095 . S
Mn972 O987 2.162 . S
Mn972 O988 2.297 1_556 S
Mn972 O996 2.385 . S
Mn972 O997 2.209 1_545 S
Mn972 O998 2.094 . S
Mn973 O978 2.121 . S
Mn973 N980 2.257 . S
Mn973 N989 2.282 . S
Mn973 O997 2.215 . S
Mn973 O999 2.117 . S
C974 O996 1.234 1_565 S
C974 O997 1.283 . S
C975 O987 1.281 1_554 S
C975 O988 1.236 . S
C976 O998 1.240 . S
C976 O999 1.264 1_545 S
O977 Mn972 2.095 . S
O977 C986 1.250 1_545 S
O978 Mn973 2.121 . S
O978 C986 1.258 . S
C979 N980 1.326 . S
C979 C983 1.460 . S
C979 H985 0.929 . S
N980 Mn973 2.257 . S
N980 C979 1.326 . S
N980 C984 1.362 . S
C981 C982 1.258 . S
C981 C984 1.431 . S
C981 C1001 1.449 . S
C982 C981 1.258 . S
C982 C983 1.477 . S
C982 H1002 0.931 . S
C983 C979 1.460 . S
C983 C982 1.477 . S
C983 H1003 0.930 1_556 S
C984 N980 1.362 . S
C984 C981 1.431 . S
C984 C994 1.476 . S
H985 C979 0.929 . S
C986 O977 1.250 1_565 S
C986 O978 1.258 . S
O987 Mn972 2.162 . S
O987 C975 1.281 1_556 S
O988 Mn972 2.297 1_554 S
O988 C975 1.236 . S
N989 Mn973 2.282 . S
N989 C990 1.328 . S
N989 C994 1.318 . S
C990 N989 1.328 . S
C990 C991 1.457 . S
C990 H995 0.929 . S
C991 C990 1.457 . S
C991 C992 1.291 . S
C991 H1004 0.931 . S
C992 C991 1.291 . S
C992 C993 1.373 . S
C992 H1005 0.929 . S
C993 C992 1.373 . S
C993 C994 1.396 . S
C993 C1000 1.403 . S
C994 C984 1.476 . S
C994 N989 1.318 . S
C994 C993 1.396 . S
H995 C990 0.929 . S
O996 Mn972 2.385 . S
O996 C974 1.234 1_545 S
O997 Mn972 2.209 1_565 S
O997 Mn973 2.215 . S
O997 C974 1.283 . S
O998 Mn972 2.094 . S
O998 C976 1.240 . S
O999 Mn973 2.117 . S
O999 C976 1.264 1_565 S
C1000 C993 1.403 . S
C1000 C1001 1.399 . S
C1000 H1006 0.929 . S
C1001 C981 1.449 . S
C1001 C1000 1.399 . S
C1001 H1007 0.930 . S
H1002 C982 0.931 . S
H1003 C983 0.930 1_554 S
H1004 C991 0.931 . S
H1005 C992 0.929 . S
H1006 C1000 0.929 . S
H1007 C1001 0.930 . S
Mn1008 O1013 2.095 . S
Mn1008 O1023 2.162 . S
Mn1008 O1024 2.297 1_556 S
Mn1008 O1032 2.385 . S
Mn1008 O1033 2.209 1_655 S
Mn1008 O1034 2.094 . S
Mn1009 O1014 2.121 . S
Mn1009 N1016 2.257 . S
Mn1009 N1025 2.282 . S
Mn1009 O1033 2.215 . S
Mn1009 O1035 2.117 . S
C1010 O1032 1.234 1_455 S
C1010 O1033 1.283 . S
C1011 O1023 1.281 1_554 S
C1011 O1024 1.236 . S
C1012 O1034 1.240 . S
C1012 O1035 1.264 1_655 S
O1013 Mn1008 2.095 . S
O1013 C1022 1.250 1_655 S
O1014 Mn1009 2.121 . S
O1014 C1022 1.258 . S
C1015 N1016 1.326 . S
C1015 C1019 1.460 . S
C1015 H1021 0.929 . S
N1016 Mn1009 2.257 . S
N1016 C1015 1.326 . S
N1016 C1020 1.362 . S
C1017 C1018 1.258 . S
C1017 C1020 1.431 . S
C1017 C1037 1.449 . S
C1018 C1017 1.258 . S
C1018 C1019 1.477 . S
C1018 H1038 0.931 . S
C1019 C1015 1.460 . S
C1019 C1018 1.477 . S
C1019 H1039 0.930 1_556 S
C1020 N1016 1.362 . S
C1020 C1017 1.431 . S
C1020 C1030 1.476 . S
H1021 C1015 0.929 . S
C1022 O1013 1.250 1_455 S
C1022 O1014 1.258 . S
O1023 Mn1008 2.162 . S
O1023 C1011 1.281 1_556 S
O1024 Mn1008 2.297 1_554 S
O1024 C1011 1.236 . S
N1025 Mn1009 2.282 . S
N1025 C1026 1.328 . S
N1025 C1030 1.318 . S
C1026 N1025 1.328 . S
C1026 C1027 1.457 . S
C1026 H1031 0.929 . S
C1027 C1026 1.457 . S
C1027 C1028 1.291 . S
C1027 H1040 0.931 . S
C1028 C1027 1.291 . S
C1028 C1029 1.373 . S
C1028 H1041 0.929 . S
C1029 C1028 1.373 . S
C1029 C1030 1.396 . S
C1029 C1036 1.403 . S
C1030 C1020 1.476 . S
C1030 N1025 1.318 . S
C1030 C1029 1.396 . S
H1031 C1026 0.929 . S
O1032 Mn1008 2.385 . S
O1032 C1010 1.234 1_655 S
O1033 Mn1008 2.209 1_455 S
O1033 Mn1009 2.215 . S
O1033 C1010 1.283 . S
O1034 Mn1008 2.094 . S
O1034 C1012 1.240 . S
O1035 Mn1009 2.117 . S
O1035 C1012 1.264 1_455 S
C1036 C1029 1.403 . S
C1036 C1037 1.399 . S
C1036 H1042 0.929 . S
C1037 C1017 1.449 . S
C1037 C1036 1.399 . S
C1037 H1043 0.930 . S
H1038 C1018 0.931 . S
H1039 C1019 0.930 1_554 S
H1040 C1027 0.931 . S
H1041 C1028 0.929 . S
H1042 C1036 0.929 . S
H1043 C1037 0.930 . S
Mn1044 O1049 2.095 . S
Mn1044 O1059 2.162 . S
Mn1044 O1060 2.297 1_556 S
Mn1044 O1068 2.385 . S
Mn1044 O1069 2.209 . S
Mn1044 O1070 2.094 . S
Mn1045 O1050 2.121 . S
Mn1045 N1052 2.257 . S
Mn1045 N1061 2.282 . S
Mn1045 O1069 2.215 . S
Mn1045 O1071 2.117 . S
C1046 O1068 1.234 . S
C1046 O1069 1.283 . S
C1047 O1059 1.281 1_554 S
C1047 O1060 1.236 . S
C1048 O1070 1.240 . S
C1048 O1071 1.264 . S
O1049 Mn1044 2.095 . S
O1049 C1058 1.250 . S
O1050 Mn1045 2.121 . S
O1050 C1058 1.258 . S
C1051 N1052 1.326 . S
C1051 C1055 1.460 . S
C1051 H1057 0.929 . S
N1052 Mn1045 2.257 . S
N1052 C1051 1.326 . S
N1052 C1056 1.362 . S
C1053 C1054 1.258 . S
C1053 C1056 1.431 . S
C1053 C1073 1.449 . S
C1054 C1053 1.258 . S
C1054 C1055 1.477 . S
C1054 H1074 0.931 . S
C1055 C1051 1.460 . S
C1055 C1054 1.477 . S
C1055 H1075 0.930 1_556 S
C1056 N1052 1.362 . S
C1056 C1053 1.431 . S
C1056 C1066 1.476 . S
H1057 C1051 0.929 . S
C1058 O1049 1.250 . S
C1058 O1050 1.258 . S
O1059 Mn1044 2.162 . S
O1059 C1047 1.281 1_556 S
O1060 Mn1044 2.297 1_554 S
O1060 C1047 1.236 . S
N1061 Mn1045 2.282 . S
N1061 C1062 1.328 . S
N1061 C1066 1.318 . S
C1062 N1061 1.328 . S
C1062 C1063 1.457 . S
C1062 H1067 0.929 . S
C1063 C1062 1.457 . S
C1063 C1064 1.291 . S
C1063 H1076 0.931 . S
C1064 C1063 1.291 . S
C1064 C1065 1.373 . S
C1064 H1077 0.929 . S
C1065 C1064 1.373 . S
C1065 C1066 1.396 . S
C1065 C1072 1.403 . S
C1066 C1056 1.476 . S
C1066 N1061 1.318 . S
C1066 C1065 1.396 . S
H1067 C1062 0.929 . S
O1068 Mn1044 2.385 . S
O1068 C1046 1.234 . S
O1069 Mn1044 2.209 . S
O1069 Mn1045 2.215 . S
O1069 C1046 1.283 . S
O1070 Mn1044 2.094 . S
O1070 C1048 1.240 . S
O1071 Mn1045 2.117 . S
O1071 C1048 1.264 . S
C1072 C1065 1.403 . S
C1072 C1073 1.399 . S
C1072 H1078 0.929 . S
C1073 C1053 1.449 . S
C1073 C1072 1.399 . S
C1073 H1079 0.930 . S
H1074 C1054 0.931 . S
H1075 C1055 0.930 1_554 S
H1076 C1063 0.931 . S
H1077 C1064 0.929 . S
H1078 C1072 0.929 . S
H1079 C1073 0.930 . S
Mn1080 O1085 2.095 . S
Mn1080 O1095 2.162 . S
Mn1080 O1096 2.297 . S
Mn1080 O1104 2.385 . S
Mn1080 O1105 2.209 1_655 S
Mn1080 O1106 2.094 . S
Mn1081 O1086 2.121 . S
Mn1081 N1088 2.257 . S
Mn1081 N1097 2.282 . S
Mn1081 O1105 2.215 . S
Mn1081 O1107 2.117 . S
C1082 O1104 1.234 1_455 S
C1082 O1105 1.283 . S
C1083 O1095 1.281 . S
C1083 O1096 1.236 . S
C1084 O1106 1.240 . S
C1084 O1107 1.264 1_655 S
O1085 Mn1080 2.095 . S
O1085 C1094 1.250 1_655 S
O1086 Mn1081 2.121 . S
O1086 C1094 1.258 . S
C1087 N1088 1.326 . S
C1087 C1091 1.460 . S
C1087 H1093 0.929 . S
N1088 Mn1081 2.257 . S
N1088 C1087 1.326 . S
N1088 C1092 1.362 . S
C1089 C1090 1.258 . S
C1089 C1092 1.431 . S
C1089 C1109 1.449 . S
C1090 C1089 1.258 . S
C1090 C1091 1.477 . S
C1090 H1110 0.931 . S
C1091 C1087 1.460 . S
C1091 C1090 1.477 . S
C1091 H1111 0.930 . S
C1092 N1088 1.362 . S
C1092 C1089 1.431 . S
C1092 C1102 1.476 . S
H1093 C1087 0.929 . S
C1094 O1085 1.250 1_455 S
C1094 O1086 1.258 . S
O1095 Mn1080 2.162 . S
O1095 C1083 1.281 . S
O1096 Mn1080 2.297 . S
O1096 C1083 1.236 . S
N1097 Mn1081 2.282 . S
N1097 C1098 1.328 . S
N1097 C1102 1.318 . S
C1098 N1097 1.328 . S
C1098 C1099 1.457 . S
C1098 H1103 0.929 . S
C1099 C1098 1.457 . S
C1099 C1100 1.291 . S
C1099 H1112 0.931 . S
C1100 C1099 1.291 . S
C1100 C1101 1.373 . S
C1100 H1113 0.929 . S
C1101 C1100 1.373 . S
C1101 C1102 1.396 . S
C1101 C1108 1.403 . S
C1102 C1092 1.476 . S
C1102 N1097 1.318 . S
C1102 C1101 1.396 . S
H1103 C1098 0.929 . S
O1104 Mn1080 2.385 . S
O1104 C1082 1.234 1_655 S
O1105 Mn1080 2.209 1_455 S
O1105 Mn1081 2.215 . S
O1105 C1082 1.283 . S
O1106 Mn1080 2.094 . S
O1106 C1084 1.240 . S
O1107 Mn1081 2.117 . S
O1107 C1084 1.264 1_455 S
C1108 C1101 1.403 . S
C1108 C1109 1.399 . S
C1108 H1114 0.929 . S
C1109 C1089 1.449 . S
C1109 C1108 1.399 . S
C1109 H1115 0.930 . S
H1110 C1090 0.931 . S
H1111 C1091 0.930 . S
H1112 C1099 0.931 . S
H1113 C1100 0.929 . S
H1114 C1108 0.929 . S
H1115 C1109 0.930 . S
Mn1116 O1121 2.095 . S
Mn1116 O1131 2.162 . S
Mn1116 O1132 2.297 . S
Mn1116 O1140 2.385 . S
Mn1116 O1141 2.209 . S
Mn1116 O1142 2.094 . S
Mn1117 O1122 2.121 . S
Mn1117 N1124 2.257 . S
Mn1117 N1133 2.282 . S
Mn1117 O1141 2.215 . S
Mn1117 O1143 2.117 . S
C1118 O1140 1.234 . S
C1118 O1141 1.283 . S
C1119 O1131 1.281 . S
C1119 O1132 1.236 . S
C1120 O1142 1.240 . S
C1120 O1143 1.264 . S
O1121 Mn1116 2.095 . S
O1121 C1130 1.250 . S
O1122 Mn1117 2.121 . S
O1122 C1130 1.258 . S
C1123 N1124 1.326 . S
C1123 C1127 1.460 . S
C1123 H1129 0.929 . S
N1124 Mn1117 2.257 . S
N1124 C1123 1.326 . S
N1124 C1128 1.362 . S
C1125 C1126 1.258 . S
C1125 C1128 1.431 . S
C1125 C1145 1.449 . S
C1126 C1125 1.258 . S
C1126 C1127 1.477 . S
C1126 H1146 0.931 . S
C1127 C1123 1.460 . S
C1127 C1126 1.477 . S
C1127 H1147 0.930 . S
C1128 N1124 1.362 . S
C1128 C1125 1.431 . S
C1128 C1138 1.476 . S
H1129 C1123 0.929 . S
C1130 O1121 1.250 . S
C1130 O1122 1.258 . S
O1131 Mn1116 2.162 . S
O1131 C1119 1.281 . S
O1132 Mn1116 2.297 . S
O1132 C1119 1.236 . S
N1133 Mn1117 2.282 . S
N1133 C1134 1.328 . S
N1133 C1138 1.318 . S
C1134 N1133 1.328 . S
C1134 C1135 1.457 . S
C1134 H1139 0.929 . S
C1135 C1134 1.457 . S
C1135 C1136 1.291 . S
C1135 H1148 0.931 . S
C1136 C1135 1.291 . S
C1136 C1137 1.373 . S
C1136 H1149 0.929 . S
C1137 C1136 1.373 . S
C1137 C1138 1.396 . S
C1137 C1144 1.403 . S
C1138 C1128 1.476 . S
C1138 N1133 1.318 . S
C1138 C1137 1.396 . S
H1139 C1134 0.929 . S
O1140 Mn1116 2.385 . S
O1140 C1118 1.234 . S
O1141 Mn1116 2.209 . S
O1141 Mn1117 2.215 . S
O1141 C1118 1.283 . S
O1142 Mn1116 2.094 . S
O1142 C1120 1.240 . S
O1143 Mn1117 2.117 . S
O1143 C1120 1.264 . S
C1144 C1137 1.403 . S
C1144 C1145 1.399 . S
C1144 H1150 0.929 . S
C1145 C1125 1.449 . S
C1145 C1144 1.399 . S
C1145 H1151 0.930 . S
H1146 C1126 0.931 . S
H1147 C1127 0.930 . S
H1148 C1135 0.931 . S
H1149 C1136 0.929 . S
H1150 C1144 0.929 . S
H1151 C1145 0.930 . S
Mn1152 O1157 2.095 . S
Mn1152 O1167 2.162 . S
Mn1152 O1168 2.297 . S
Mn1152 O1176 2.385 . S
Mn1152 O1177 2.209 1_545 S
Mn1152 O1178 2.094 . S
Mn1153 O1158 2.121 . S
Mn1153 N1160 2.257 . S
Mn1153 N1169 2.282 . S
Mn1153 O1177 2.215 . S
Mn1153 O1179 2.117 . S
C1154 O1176 1.234 1_565 S
C1154 O1177 1.283 . S
C1155 O1167 1.281 . S
C1155 O1168 1.236 . S
C1156 O1178 1.240 . S
C1156 O1179 1.264 1_545 S
O1157 Mn1152 2.095 . S
O1157 C1166 1.250 1_545 S
O1158 Mn1153 2.121 . S
O1158 C1166 1.258 . S
C1159 N1160 1.326 . S
C1159 C1163 1.460 . S
C1159 H1165 0.929 . S
N1160 Mn1153 2.257 . S
N1160 C1159 1.326 . S
N1160 C1164 1.362 . S
C1161 C1162 1.258 . S
C1161 C1164 1.431 . S
C1161 C1181 1.449 . S
C1162 C1161 1.258 . S
C1162 C1163 1.477 . S
C1162 H1182 0.931 . S
C1163 C1159 1.460 . S
C1163 C1162 1.477 . S
C1163 H1183 0.930 . S
C1164 N1160 1.362 . S
C1164 C1161 1.431 . S
C1164 C1174 1.476 . S
H1165 C1159 0.929 . S
C1166 O1157 1.250 1_565 S
C1166 O1158 1.258 . S
O1167 Mn1152 2.162 . S
O1167 C1155 1.281 . S
O1168 Mn1152 2.297 . S
O1168 C1155 1.236 . S
N1169 Mn1153 2.282 . S
N1169 C1170 1.328 . S
N1169 C1174 1.318 . S
C1170 N1169 1.328 . S
C1170 C1171 1.457 . S
C1170 H1175 0.929 . S
C1171 C1170 1.457 . S
C1171 C1172 1.291 . S
C1171 H1184 0.931 . S
C1172 C1171 1.291 . S
C1172 C1173 1.373 . S
C1172 H1185 0.929 . S
C1173 C1172 1.373 . S
C1173 C1174 1.396 . S
C1173 C1180 1.403 . S
C1174 C1164 1.476 . S
C1174 N1169 1.318 . S
C1174 C1173 1.396 . S
H1175 C1170 0.929 . S
O1176 Mn1152 2.385 . S
O1176 C1154 1.234 1_545 S
O1177 Mn1152 2.209 1_565 S
O1177 Mn1153 2.215 . S
O1177 C1154 1.283 . S
O1178 Mn1152 2.094 . S
O1178 C1156 1.240 . S
O1179 Mn1153 2.117 . S
O1179 C1156 1.264 1_565 S
C1180 C1173 1.403 . S
C1180 C1181 1.399 . S
C1180 H1186 0.929 . S
C1181 C1161 1.449 . S
C1181 C1180 1.399 . S
C1181 H1187 0.930 . S
H1182 C1162 0.931 . S
H1183 C1163 0.930 . S
H1184 C1171 0.931 . S
H1185 C1172 0.929 . S
H1186 C1180 0.929 . S
H1187 C1181 0.930 . S
Mn1188 O1193 2.095 . S
Mn1188 O1203 2.162 . S
Mn1188 O1204 2.297 . S
Mn1188 O1212 2.385 . S
Mn1188 O1213 2.209 . S
Mn1188 O1214 2.094 . S
Mn1189 O1194 2.121 . S
Mn1189 N1196 2.257 . S
Mn1189 N1205 2.282 . S
Mn1189 O1213 2.215 . S
Mn1189 O1215 2.117 . S
C1190 O1212 1.234 . S
C1190 O1213 1.283 . S
C1191 O1203 1.281 . S
C1191 O1204 1.236 . S
C1192 O1214 1.240 . S
C1192 O1215 1.264 . S
O1193 Mn1188 2.095 . S
O1193 C1202 1.250 . S
O1194 Mn1189 2.121 . S
O1194 C1202 1.258 . S
C1195 N1196 1.326 . S
C1195 C1199 1.460 . S
C1195 H1201 0.929 . S
N1196 Mn1189 2.257 . S
N1196 C1195 1.326 . S
N1196 C1200 1.362 . S
C1197 C1198 1.258 . S
C1197 C1200 1.431 . S
C1197 C1217 1.449 . S
C1198 C1197 1.258 . S
C1198 C1199 1.477 . S
C1198 H1218 0.931 . S
C1199 C1195 1.460 . S
C1199 C1198 1.477 . S
C1199 H1219 0.930 . S
C1200 N1196 1.362 . S
C1200 C1197 1.431 . S
C1200 C1210 1.476 . S
H1201 C1195 0.929 . S
C1202 O1193 1.250 . S
C1202 O1194 1.258 . S
O1203 Mn1188 2.162 . S
O1203 C1191 1.281 . S
O1204 Mn1188 2.297 . S
O1204 C1191 1.236 . S
N1205 Mn1189 2.282 . S
N1205 C1206 1.328 . S
N1205 C1210 1.318 . S
C1206 N1205 1.328 . S
C1206 C1207 1.457 . S
C1206 H1211 0.929 . S
C1207 C1206 1.457 . S
C1207 C1208 1.291 . S
C1207 H1220 0.931 . S
C1208 C1207 1.291 . S
C1208 C1209 1.373 . S
C1208 H1221 0.929 . S
C1209 C1208 1.373 . S
C1209 C1210 1.396 . S
C1209 C1216 1.403 . S
C1210 C1200 1.476 . S
C1210 N1205 1.318 . S
C1210 C1209 1.396 . S
H1211 C1206 0.929 . S
O1212 Mn1188 2.385 . S
O1212 C1190 1.234 . S
O1213 Mn1188 2.209 . S
O1213 Mn1189 2.215 . S
O1213 C1190 1.283 . S
O1214 Mn1188 2.094 . S
O1214 C1192 1.240 . S
O1215 Mn1189 2.117 . S
O1215 C1192 1.264 . S
C1216 C1209 1.403 . S
C1216 C1217 1.399 . S
C1216 H1222 0.929 . S
C1217 C1197 1.449 . S
C1217 C1216 1.399 . S
C1217 H1223 0.930 . S
H1218 C1198 0.931 . S
H1219 C1199 0.930 . S
H1220 C1207 0.931 . S
H1221 C1208 0.929 . S
H1222 C1216 0.929 . S
H1223 C1217 0.930 . S
Mn1224 O1229 2.095 . S
Mn1224 O1239 2.162 . S
Mn1224 O1240 2.297 . S
Mn1224 O1248 2.385 . S
Mn1224 O1249 2.209 . S
Mn1224 O1250 2.094 . S
Mn1225 O1230 2.121 . S
Mn1225 N1232 2.257 . S
Mn1225 N1241 2.282 . S
Mn1225 O1249 2.215 . S
Mn1225 O1251 2.117 . S
C1226 O1248 1.234 . S
C1226 O1249 1.283 . S
C1227 O1239 1.281 . S
C1227 O1240 1.236 . S
C1228 O1250 1.240 . S
C1228 O1251 1.264 . S
O1229 Mn1224 2.095 . S
O1229 C1238 1.250 . S
O1230 Mn1225 2.121 . S
O1230 C1238 1.258 . S
C1231 N1232 1.326 . S
C1231 C1235 1.460 . S
C1231 H1237 0.929 . S
N1232 Mn1225 2.257 . S
N1232 C1231 1.326 . S
N1232 C1236 1.362 . S
C1233 C1234 1.258 . S
C1233 C1236 1.431 . S
C1233 C1253 1.449 . S
C1234 C1233 1.258 . S
C1234 C1235 1.477 . S
C1234 H1254 0.931 . S
C1235 C1231 1.460 . S
C1235 C1234 1.477 . S
C1235 H1255 0.930 . S
C1236 N1232 1.362 . S
C1236 C1233 1.431 . S
C1236 C1246 1.476 . S
H1237 C1231 0.929 . S
C1238 O1229 1.250 . S
C1238 O1230 1.258 . S
O1239 Mn1224 2.162 . S
O1239 C1227 1.281 . S
O1240 Mn1224 2.297 . S
O1240 C1227 1.236 . S
N1241 Mn1225 2.282 . S
N1241 C1242 1.328 . S
N1241 C1246 1.318 . S
C1242 N1241 1.328 . S
C1242 C1243 1.457 . S
C1242 H1247 0.929 . S
C1243 C1242 1.457 . S
C1243 C1244 1.291 . S
C1243 H1256 0.931 . S
C1244 C1243 1.291 . S
C1244 C1245 1.373 . S
C1244 H1257 0.929 . S
C1245 C1244 1.373 . S
C1245 C1246 1.396 . S
C1245 C1252 1.403 . S
C1246 C1236 1.476 . S
C1246 N1241 1.318 . S
C1246 C1245 1.396 . S
H1247 C1242 0.929 . S
O1248 Mn1224 2.385 . S
O1248 C1226 1.234 . S
O1249 Mn1224 2.209 . S
O1249 Mn1225 2.215 . S
O1249 C1226 1.283 . S
O1250 Mn1224 2.094 . S
O1250 C1228 1.240 . S
O1251 Mn1225 2.117 . S
O1251 C1228 1.264 . S
C1252 C1245 1.403 . S
C1252 C1253 1.399 . S
C1252 H1258 0.929 . S
C1253 C1233 1.449 . S
C1253 C1252 1.399 . S
C1253 H1259 0.930 . S
H1254 C1234 0.931 . S
H1255 C1235 0.930 . S
H1256 C1243 0.931 . S
H1257 C1244 0.929 . S
H1258 C1252 0.929 . S
H1259 C1253 0.930 . S
Mn1260 O1265 2.095 . S
Mn1260 O1275 2.162 . S
Mn1260 O1276 2.297 . S
Mn1260 O1284 2.385 . S
Mn1260 O1285 2.209 . S
Mn1260 O1286 2.094 . S
Mn1261 O1266 2.121 . S
Mn1261 N1268 2.257 . S
Mn1261 N1277 2.282 . S
Mn1261 O1285 2.215 . S
Mn1261 O1287 2.117 . S
C1262 O1284 1.234 . S
C1262 O1285 1.283 . S
C1263 O1275 1.281 . S
C1263 O1276 1.236 . S
C1264 O1286 1.240 . S
C1264 O1287 1.264 . S
O1265 Mn1260 2.095 . S
O1265 C1274 1.250 . S
O1266 Mn1261 2.121 . S
O1266 C1274 1.258 . S
C1267 N1268 1.326 . S
C1267 C1271 1.460 . S
C1267 H1273 0.929 . S
N1268 Mn1261 2.257 . S
N1268 C1267 1.326 . S
N1268 C1272 1.362 . S
C1269 C1270 1.258 . S
C1269 C1272 1.431 . S
C1269 C1289 1.449 . S
C1270 C1269 1.258 . S
C1270 C1271 1.477 . S
C1270 H1290 0.931 . S
C1271 C1267 1.460 . S
C1271 C1270 1.477 . S
C1271 H1291 0.930 . S
C1272 N1268 1.362 . S
C1272 C1269 1.431 . S
C1272 C1282 1.476 . S
H1273 C1267 0.929 . S
C1274 O1265 1.250 . S
C1274 O1266 1.258 . S
O1275 Mn1260 2.162 . S
O1275 C1263 1.281 . S
O1276 Mn1260 2.297 . S
O1276 C1263 1.236 . S
N1277 Mn1261 2.282 . S
N1277 C1278 1.328 . S
N1277 C1282 1.318 . S
C1278 N1277 1.328 . S
C1278 C1279 1.457 . S
C1278 H1283 0.929 . S
C1279 C1278 1.457 . S
C1279 C1280 1.291 . S
C1279 H1292 0.931 . S
C1280 C1279 1.291 . S
C1280 C1281 1.373 . S
C1280 H1293 0.929 . S
C1281 C1280 1.373 . S
C1281 C1282 1.396 . S
C1281 C1288 1.403 . S
C1282 C1272 1.476 . S
C1282 N1277 1.318 . S
C1282 C1281 1.396 . S
H1283 C1278 0.929 . S
O1284 Mn1260 2.385 . S
O1284 C1262 1.234 . S
O1285 Mn1260 2.209 . S
O1285 Mn1261 2.215 . S
O1285 C1262 1.283 . S
O1286 Mn1260 2.094 . S
O1286 C1264 1.240 . S
O1287 Mn1261 2.117 . S
O1287 C1264 1.264 . S
C1288 C1281 1.403 . S
C1288 C1289 1.399 . S
C1288 H1294 0.929 . S
C1289 C1269 1.449 . S
C1289 C1288 1.399 . S
C1289 H1295 0.930 . S
H1290 C1270 0.931 . S
H1291 C1271 0.930 . S
H1292 C1279 0.931 . S
H1293 C1280 0.929 . S
H1294 C1288 0.929 . S
H1295 C1289 0.930 . S
C182 C2 0.874 1_565 S
C110 C38 0.874 1_455 S
C74 C146 0.873 . S
C218 C398 0.874 1_565 S
C254 C326 0.874 1_455 S
C362 C290 0.873 . S
C434 C614 0.874 . S
C470 C542 0.874 . S
C578 C506 0.873 . S
C830 C650 0.874 . S
C758 C686 0.874 . S
C722 C794 0.874 . S
C1046 C866 0.874 . S
C974 C902 0.874 . S
C938 C1010 0.874 . S
C1262 C1082 0.874 . S
C1190 C1118 0.874 . S
C1226 C1154 0.873 . S
C580 C4 2.195 . S
C616 C40 2.196 . S
C544 C76 2.195 . S
C112 C940 2.195 . S
C148 C868 2.195 . S
C184 C904 2.196 . S
C220 C1228 2.195 . S
C1264 C256 2.196 . S
C1192 C292 2.195 . S
C724 C328 2.195 . S
C652 C364 2.195 . S
C400 C688 2.196 . S
C436 C1012 2.195 1_455 S
C1048 C472 2.196 . S
C976 C508 2.195 1_545 S
C760 C1156 2.195 1_565 S
C1084 C796 2.195 1_655 S
C832 C1120 2.196 . S
C662 C14 1.570 . S
C698 C50 1.569 . S
C86 C734 1.568 . S
C122 C1202 1.570 . S
C1238 C158 1.568 . S
C1274 C194 1.569 . S
C230 C878 1.570 . S
C266 C914 1.569 . S
C950 C302 1.568 . S
C338 C554 1.570 . S
C374 C590 1.568 . S
C626 C410 1.569 . S
C446 C1094 1.570 1_655 S
C482 C1130 1.569 . S
C1166 C518 1.568 1_565 S
C986 C770 1.570 1_566 S
C806 C1022 1.568 1_654 S
C842 C1058 1.569 1_554 S
C975 C3 1.718 . S
C39 C1011 1.719 . S
C1047 C75 1.719 . S
C111 C435 1.718 . S
C471 C147 1.719 . S
C507 C183 1.719 . S
C219 C759 1.718 . S
C795 C255 1.719 . S
C291 C831 1.719 . S
C327 C1083 1.718 . S
C363 C1119 1.719 . S
C1155 C399 1.719 . S
C543 C867 1.718 . S
C579 C903 1.719 1_545 S
C615 C939 1.719 1_655 S
C651 C1191 1.718 . S
C687 C1227 1.719 1_545 S
C1263 C723 1.719 1_455 S
