# Generated by pormake.
# Topology smc, (6)-cn, num edge types: 1
# Building blocks:
#     Node 0, Type 0, BuildingBlock: GEDQOX_clean_sbu_0, # of connection points: 6
#     Node 1, Type 0, BuildingBlock: GEDQOX_clean_sbu_0, # of connection points: 6
#     Node 2, Type 0, BuildingBlock: GEDQOX_clean_sbu_0, # of connection points: 6
#     Node 3, Type 0, BuildingBlock: GEDQOX_clean_sbu_0, # of connection points: 6
#     Node 4, Type 0, BuildingBlock: GEDQOX_clean_sbu_0, # of connection points: 6
#     Node 5, Type 0, BuildingBlock: GEDQOX_clean_sbu_0, # of connection points: 6
#     Node 6, Type 0, BuildingBlock: GEDQOX_clean_sbu_0, # of connection points: 6
#     Node 7, Type 0, BuildingBlock: GEDQOX_clean_sbu_0, # of connection points: 6
#     Node 8, Type 0, BuildingBlock: GEDQOX_clean_sbu_0, # of connection points: 6
#     Edge 9, Type (0, 0), BuildingBlock: EZIPEK_clean_linker_0, # of connection points: 2
#     Edge 10, Type (0, 0), BuildingBlock: EZIPEK_clean_linker_0, # of connection points: 2
#     Edge 11, Type (0, 0), BuildingBlock: EZIPEK_clean_linker_0, # of connection points: 2
#     Edge 12, Type (0, 0), BuildingBlock: EZIPEK_clean_linker_0, # of connection points: 2
#     Edge 13, Type (0, 0), BuildingBlock: EZIPEK_clean_linker_0, # of connection points: 2
#     Edge 14, Type (0, 0), BuildingBlock: EZIPEK_clean_linker_0, # of connection points: 2
#     Edge 15, Type (0, 0), BuildingBlock: EZIPEK_clean_linker_0, # of connection points: 2
#     Edge 16, Type (0, 0), BuildingBlock: EZIPEK_clean_linker_0, # of connection points: 2
#     Edge 17, Type (0, 0), BuildingBlock: EZIPEK_clean_linker_0, # of connection points: 2
#     Edge 18, Type (0, 0), BuildingBlock: EZIPEK_clean_linker_0, # of connection points: 2
#     Edge 19, Type (0, 0), BuildingBlock: EZIPEK_clean_linker_0, # of connection points: 2
#     Edge 20, Type (0, 0), BuildingBlock: EZIPEK_clean_linker_0, # of connection points: 2
#     Edge 21, Type (0, 0), BuildingBlock: EZIPEK_clean_linker_0, # of connection points: 2
#     Edge 22, Type (0, 0), BuildingBlock: EZIPEK_clean_linker_0, # of connection points: 2
#     Edge 23, Type (0, 0), BuildingBlock: EZIPEK_clean_linker_0, # of connection points: 2
#     Edge 24, Type (0, 0), BuildingBlock: EZIPEK_clean_linker_0, # of connection points: 2
#     Edge 25, Type (0, 0), BuildingBlock: EZIPEK_clean_linker_0, # of connection points: 2
#     Edge 26, Type (0, 0), BuildingBlock: EZIPEK_clean_linker_0, # of connection points: 2
#     Edge 27, Type (0, 0), BuildingBlock: EZIPEK_clean_linker_0, # of connection points: 2
#     Edge 28, Type (0, 0), BuildingBlock: EZIPEK_clean_linker_0, # of connection points: 2
#     Edge 29, Type (0, 0), BuildingBlock: EZIPEK_clean_linker_0, # of connection points: 2
#     Edge 30, Type (0, 0), BuildingBlock: EZIPEK_clean_linker_0, # of connection points: 2
#     Edge 31, Type (0, 0), BuildingBlock: EZIPEK_clean_linker_0, # of connection points: 2
#     Edge 32, Type (0, 0), BuildingBlock: EZIPEK_clean_linker_0, # of connection points: 2
#     Edge 33, Type (0, 0), BuildingBlock: EZIPEK_clean_linker_0, # of connection points: 2
#     Edge 34, Type (0, 0), BuildingBlock: EZIPEK_clean_linker_0, # of connection points: 2
#     Edge 35, Type (0, 0), BuildingBlock: EZIPEK_clean_linker_0, # of connection points: 2
# Relax obj value: 0.177
# Max RMSD: 0.335
# Mean RMSD: 0.335
data_MOF--net-smc--node1-GEDQOX_clean_sbu_0--edge1-EZIPEK_clean_linker_0
_symmetry_space_group_name_H-M    P1
_symmetry_Int_Tables_number       1
_symmetry_cell_setting            triclinic
loop_
_symmetry_equiv_pos_as_xyz
'x, y, z'
_cell_length_a     31.795239
_cell_length_b     31.802758
_cell_length_c     29.04086
_cell_angle_alpha  90.330058
_cell_angle_beta   89.821136
_cell_angle_gamma 119.94177
loop_
_atom_site_label
_atom_site_type_symbol
_atom_site_fract_x
_atom_site_fract_y
_atom_site_fract_z
_atom_type_partial_charge
Nd0 Nd 0.07633 0.4369 0.99429 0.0
Nd1 Nd 1.00614 0.46501 0.01719 0.0
C2 C 0.14668 0.41492 0.9868 0.0
C3 C 0.2002 0.4411 0.99218 0.0
C4 C 0.22596 0.48977 0.00709 0.0
C5 C 0.27696 0.51512 0.00812 0.0
C6 C 0.30308 0.49273 0.99287 0.0
C7 C 0.27728 0.44444 0.97721 0.0
C8 C 0.22639 0.41887 0.97706 0.0
C9 C 1.02267 0.42732 0.91528 0.0
C10 C 0.1123 0.55235 0.99148 0.0
C11 C 0.94788 0.50213 0.02341 0.0
C12 C 0.9149 0.52273 0.02644 0.0
C13 C 0.88087 0.51372 0.99144 0.0
C14 C 0.85105 0.53461 0.99331 0.0
C15 C 0.85516 0.56578 0.02978 0.0
C16 C 0.88935 0.57497 0.06467 0.0
C17 C 0.9185 0.55329 0.06328 0.0
C18 C 0.05237 0.45193 0.09448 0.0
C19 C 0.96037 0.35238 0.02116 0.0
O20 O 0.13113 0.42998 0.95285 0.0
O21 O 0.11963 0.40552 0.02365 0.0
O22 O 0.06959 0.45143 0.91773 0.0
O23 O 1.00617 0.41723 0.95615 0.0
O24 O 0.12663 0.52055 0.99841 0.0
O25 O 0.06589 0.53751 0.98935 0.0
O26 O 0.95694 0.48727 0.98451 0.0
O27 O 0.96925 0.49641 0.05931 0.0
O28 O 1.00606 0.43554 0.09019 0.0
O29 O 0.07272 0.47481 0.05791 0.0
O30 O 0.94962 0.38663 0.01529 0.0
O31 O 1.00667 0.3622 0.01858 0.0
H32 H 0.20677 0.50845 0.0172 0.0
H33 H 0.29607 0.55236 0.02023 0.0
H34 H 0.29664 0.42646 0.96528 0.0
H35 H 0.20742 0.38188 0.96428 0.0
H36 H 0.87729 0.49049 0.96253 0.0
H37 H 0.82508 0.52691 0.96594 0.0
H38 H 0.89338 0.59894 0.09307 0.0
H39 H 0.94457 0.56124 0.0906 0.0
Nd40 Nd 0.62947 0.65802 0.99566 0.0
Nd41 Nd 0.59962 0.55903 0.01582 0.0
C42 C 0.65342 0.75104 0.99133 0.0
C43 C 0.6273 0.7787 0.99546 0.0
C44 C 0.57884 0.75668 0.01074 0.0
C45 C 0.55367 0.78261 0.01082 0.0
C46 C 0.57611 0.83057 0.9945 0.0
C47 C 0.62425 0.85219 0.9787 0.0
C48 C 0.64956 0.82656 0.9793 0.0
C49 C 0.63607 0.61338 0.91507 0.0
C50 C 0.51345 0.58048 0.99329 0.0
C51 C 0.55985 0.46372 0.02158 0.0
C52 C 0.53652 0.41001 0.02346 0.0
C53 C 0.50192 0.3813 0.9901 0.0
C54 C 0.48023 0.33074 0.99077 0.0
C55 C 0.49297 0.30763 0.02451 0.0
C56 C 0.5268 0.33606 0.05855 0.0
C57 C 0.54817 0.38684 0.05821 0.0
C58 C 0.61122 0.61596 0.09472 0.0
C59 C 0.71177 0.62345 0.01862 0.0
O60 O 0.65926 0.73124 0.02837 0.0
O61 O 0.64122 0.72224 0.9558 0.0
O62 O 0.61371 0.63793 0.91874 0.0
O63 O 0.64689 0.60656 0.95534 0.0
O64 O 0.54604 0.62633 1.00046 0.0
O65 O 0.52689 0.54789 0.99054 0.0
O66 O 0.55709 0.48578 0.9848 0.0
O67 O 0.58516 0.49266 0.05535 0.0
O68 O 0.62649 0.58528 0.08997 0.0
O69 O 0.58995 0.6154 0.05774 0.0
O70 O 0.67753 0.58008 0.00647 0.0
O71 O 0.70231 0.66012 0.02154 0.0
H72 H 0.56025 0.71929 0.02193 0.0
H73 H 0.51655 0.76514 0.02308 0.0
H74 H 0.64231 0.88908 0.96599 0.0
H75 H 0.68643 0.84393 0.96638 0.0
H76 H 0.49184 0.39792 0.96309 0.0
H77 H 0.45453 0.30959 0.964 0.0
H78 H 0.53747 0.31904 0.08467 0.0
H79 H 0.57451 0.40798 0.08452 0.0
Nd80 Nd 0.41048 0.99097 0.98676 0.0
Nd81 Nd 0.50816 0.06025 0.01467 0.0
C82 C 0.31842 0.92083 0.97868 0.0
C83 C 0.29222 0.86662 0.9821 0.0
C84 C 0.26484 0.84294 0.02154 0.0
C85 C 0.23822 0.79198 0.02373 0.0
C86 C 0.23844 0.76348 0.98659 0.0
C87 C 0.26678 0.78698 0.94776 0.0
C88 C 0.2932 0.83781 0.94546 0.0
C89 C 0.46091 0.03969 0.90901 0.0
C90 C 0.48859 0.95389 0.9899 0.0
C91 C 0.60366 0.11677 0.02223 0.0
C92 C 0.65735 0.1491 0.02593 0.0
C93 C 0.6816 0.19138 0.99908 0.0
C94 C 0.73239 0.22052 1.00066 0.0
C95 C 0.76027 0.20781 0.02872 0.0
C96 C 0.73614 0.16553 0.05547 0.0
C97 C 0.68527 0.1367 0.05433 0.0
C98 C 0.4424 1.01622 0.08791 0.0
C99 C 0.44319 0.10849 0.01165 0.0
O100 O 0.33628 0.94591 0.01646 0.0
O101 O 0.34766 0.9403 0.94376 0.0
O102 O 0.43946 0.9931 0.91434 0.0
O103 O 0.46527 0.05901 0.9487 0.0
O104 O 0.44256 0.94013 0.99658 0.0
O105 O 0.52036 1.00004 0.98606 0.0
O106 O 0.57863 0.11945 0.98787 0.0
O107 O 0.57753 0.08467 0.05348 0.0
O108 O 0.47604 0.06164 0.08718 0.0
O109 O 0.44705 0.9952 0.05282 0.0
O110 O 0.48751 0.11737 0.01791 0.0
O111 O 0.40749 0.06419 0.99924 0.0
H112 H 0.26339 0.86383 0.05048 0.0
H113 H 0.21675 0.77474 0.05411 0.0
H114 H 0.26764 0.76587 0.91874 0.0
H115 H 0.31389 0.85446 0.91456 0.0
H116 H 0.6613 0.20188 0.97663 0.0
H117 H 0.75004 0.25284 0.97964 0.0
H118 H 0.75677 0.15483 0.07721 0.0
H119 H 0.66787 0.10414 0.07503 0.0
Nd120 Nd 0.74414 0.76917 0.32485 0.0
Nd121 Nd 0.67592 0.79904 0.34872 0.0
C122 C 0.81356 0.74579 0.31755 0.0
C123 C 0.86716 0.77274 0.32344 0.0
C124 C 0.89271 0.82322 0.33136 0.0
C125 C 0.94372 0.84924 0.3314 0.0
C126 C 0.97024 0.82535 0.32336 0.0
C127 C 0.94467 0.77487 0.316 0.0
C128 C 0.8937 0.7489 0.31595 0.0
C129 C 0.69016 0.76099 0.24613 0.0
C130 C 0.78272 0.88577 0.32394 0.0
C131 C 0.62008 0.83831 0.35708 0.0
C132 C 0.58937 0.86117 0.36084 0.0
C133 C 0.59661 0.89866 0.33066 0.0
C134 C 0.567 0.91959 0.33312 0.0
C135 C 0.52924 0.90307 0.36545 0.0
C136 C 0.52246 0.86632 0.39628 0.0
C137 C 0.55254 0.8458 0.39424 0.0
C138 C 0.72225 0.78635 0.42567 0.0
C139 C 0.62796 0.68691 0.35015 0.0
O140 O 0.79779 0.7603 0.28331 0.0
O141 O 0.78626 0.73642 0.35416 0.0
O142 O 0.73708 0.78344 0.24819 0.0
O143 O 0.67408 0.75135 0.28707 0.0
O144 O 0.79605 0.85281 0.3277 0.0
O145 O 0.73668 0.87242 0.32468 0.0
O146 O 0.64577 0.84304 0.32017 0.0
O147 O 0.62311 0.81146 0.38941 0.0
O148 O 0.67654 0.77245 0.42238 0.0
O149 O 0.74261 0.80798 0.38865 0.0
O150 O 0.61897 0.72136 0.33868 0.0
O151 O 0.67407 0.69622 0.35184 0.0
H152 H 0.87329 0.84273 0.33654 0.0
H153 H 0.96255 0.88811 0.33712 0.0
H154 H 0.96425 0.75565 0.30966 0.0
H155 H 0.87495 0.71026 0.30897 0.0
H156 H 0.62479 0.91143 0.30467 0.0
H157 H 0.57216 0.94724 0.3085 0.0
H158 H 0.493 0.85258 0.42098 0.0
H159 H 0.54616 0.81706 0.41798 0.0
Nd160 Nd 0.29879 0.99172 0.32586 0.0
Nd161 Nd 0.26482 0.89446 0.35255 0.0
C162 C 0.32454 0.08495 0.3217 0.0
C163 C 0.29591 0.11083 0.32238 0.0
C164 C 0.27874 0.12037 0.36377 0.0
C165 C 0.25277 0.14556 0.3635 0.0
C166 C 0.24286 0.16141 0.32186 0.0
C167 C 0.25873 0.15063 0.28054 0.0
C168 C 0.2851 0.12605 0.28081 0.0
C169 C 0.30788 0.94657 0.24835 0.0
C170 C 0.18086 0.91633 0.32249 0.0
C171 C 0.22475 0.7988 0.3546 0.0
C172 C 0.20234 0.74495 0.35531 0.0
C173 C 0.20533 0.7196 0.31664 0.0
C174 C 0.1843 0.66889 0.31735 0.0
C175 C 0.15962 0.6424 0.35665 0.0
C176 C 0.15605 0.66754 0.39507 0.0
C177 C 0.17723 0.71822 0.39445 0.0
C178 C 0.2812 0.95849 0.42625 0.0
C179 C 0.37491 0.95012 0.36319 0.0
O180 O 0.32703 0.06424 0.35954 0.0
O181 O 0.31912 0.05827 0.28548 0.0
O182 O 0.28545 0.97132 0.24977 0.0
O183 O 0.31545 0.93791 0.28972 0.0
O184 O 0.21523 0.96234 0.32297 0.0
O185 O 0.19181 0.88236 0.32819 0.0
O186 O 0.24903 0.82489 0.31905 0.0
O187 O 0.22234 0.82389 0.3894 0.0
O188 O 0.2921 0.92422 0.42693 0.0
O189 O 0.25889 0.95537 0.38923 0.0
O190 O 0.33697 0.90963 0.37476 0.0
O191 O 0.37022 0.98659 0.34502 0.0
H192 H 0.28577 0.10884 0.39647 0.0
H193 H 0.24096 0.1533 0.39589 0.0
H194 H 0.25163 0.16232 0.24795 0.0
H195 H 0.29741 0.11927 0.24825 0.0
H196 H 0.22427 0.73898 0.28588 0.0
H197 H 0.18798 0.65037 0.28752 0.0
H198 H 0.13772 0.64793 0.42595 0.0
H199 H 0.17421 0.73648 0.4248 0.0
Nd200 Nd 0.07635 0.3245 0.32699 0.0
Nd201 Nd 0.17574 0.39328 0.35115 0.0
C202 C 0.98393 0.25432 0.32648 0.0
C203 C 0.9589 0.20004 0.32677 0.0
C204 C 0.93487 0.17359 0.36643 0.0
C205 C 0.90923 0.12255 0.36576 0.0
C206 C 0.90716 0.09679 0.32546 0.0
C207 C 0.93229 0.12306 0.28627 0.0
C208 C 0.95766 0.17393 0.28683 0.0
C209 C 0.12057 0.37702 0.24802 0.0
C210 C 0.15532 0.28584 0.32391 0.0
C211 C 0.27113 0.44978 0.35477 0.0
C212 C 0.32477 0.48169 0.35629 0.0
C213 C 0.35057 0.50759 0.31707 0.0
C214 C 0.40124 0.53747 0.31842 0.0
C215 C 0.4274 0.54122 0.35871 0.0
C216 C 0.40159 0.51458 0.39766 0.0
C217 C 0.35083 0.48567 0.39665 0.0
C218 C 0.11502 0.34718 0.42732 0.0
C219 C 0.11258 0.44293 0.35155 0.0
O220 O 1.00633 0.27784 0.36392 0.0
O221 O 1.00841 0.2756 0.28947 0.0
O222 O 0.09504 0.33005 0.24998 0.0
O223 O 0.12876 0.39378 0.28916 0.0
O224 O 0.10899 0.27314 0.3213 0.0
O225 O 0.18799 0.33096 0.33213 0.0
O226 O 0.24792 0.4294 0.31656 0.0
O227 O 0.24341 0.44047 0.39112 0.0
O228 O 0.14839 0.3926 0.42606 0.0
O229 O 0.11699 0.32713 0.3901 0.0
O230 O 0.1566 0.45133 0.34409 0.0
O231 O 0.07495 0.39704 0.35018 0.0
H232 H 0.93528 0.19237 0.3978 0.0
H233 H 0.8903 0.1031 0.3965 0.0
H234 H 0.9314 0.1041 0.25485 0.0
H235 H 0.97577 0.19271 0.25556 0.0
H236 H 0.33149 0.50516 0.28544 0.0
H237 H 0.42011 0.55767 0.28796 0.0
H238 H 0.42079 0.51678 0.42913 0.0
H239 H 0.33201 0.46593 0.42731 0.0
Nd240 Nd 0.40172 0.09559 0.66643 0.0
Nd241 Nd 0.3476 0.13971 0.68884 0.0
C242 C 0.47709 0.08097 0.66552 0.0
C243 C 0.53132 0.11166 0.66404 0.0
C244 C 0.55797 0.14543 0.69906 0.0
C245 C 0.60907 0.1718 0.69784 0.0
C246 C 0.63484 0.16493 0.66177 0.0
C247 C 0.60819 0.13233 0.6262 0.0
C248 C 0.55719 0.10621 0.62727 0.0
C249 C 0.34073 0.07197 0.59437 0.0
C250 C 0.45002 0.21765 0.6582 0.0
C251 C 0.28567 0.17264 0.6937 0.0
C252 C 0.25065 0.19092 0.69584 0.0
C253 C 0.22098 0.18576 0.65781 0.0
C254 C 0.19055 0.20604 0.65856 0.0
C255 C 0.18937 0.23231 0.69719 0.0
C256 C 0.21892 0.2374 0.73518 0.0
C257 C 0.24902 0.21681 0.73459 0.0
C258 C 0.39604 0.12468 0.76382 0.0
C259 C 0.28561 0.0258 0.69805 0.0
O260 O 0.45455 0.08118 0.7033 0.0
O261 O 0.4535 0.08018 0.62843 0.0
O262 O 0.35516 0.04422 0.61246 0.0
O263 O 0.36017 0.11472 0.61436 0.0
O264 O 0.45715 0.18 0.65821 0.0
O265 O 0.40705 0.21101 0.6655 0.0
O266 O 0.28781 0.14798 0.65851 0.0
O267 O 0.31531 0.17809 0.72728 0.0
O268 O 0.39891 0.16629 0.75541 0.0
O269 O 0.37037 0.09579 0.73326 0.0
O270 O 0.28778 0.06662 0.70872 0.0
O271 O 0.3256 0.02542 0.68371 0.0
H272 H 0.53947 0.15101 0.72778 0.0
H273 H 0.62861 0.1967 0.72574 0.0
H274 H 0.62694 0.12629 0.59799 0.0
H275 H 0.53787 0.08088 0.5996 0.0
H276 H 0.22166 0.16651 0.62719 0.0
H277 H 0.16806 0.20144 0.62888 0.0
H278 H 0.21854 0.25727 0.76545 0.0
H279 H 0.27153 0.22176 0.76433 0.0
Nd280 Nd 0.96513 0.32354 0.66406 0.0
Nd281 Nd 0.93197 0.22514 0.68241 0.0
C282 C 0.977 0.41153 0.65475 0.0
C283 C 0.94684 0.43534 0.65665 0.0
C284 C 0.94688 0.46151 0.69589 0.0
C285 C 0.92178 0.48739 0.69579 0.0
C286 C 0.89631 0.48765 0.65642 0.0
C287 C 0.89501 0.46047 0.61774 0.0
C288 C 0.92003 0.43471 0.61777 0.0
C289 C 0.99661 0.28839 0.59294 0.0
C290 C 0.84572 0.24595 0.66133 0.0
C291 C 0.89119 0.12976 0.68849 0.0
C292 C 0.86833 0.0763 0.69186 0.0
C293 C 0.85513 0.04755 0.65209 0.0
C294 C 0.83476 0.99727 0.6552 0.0
C295 C 0.82975 0.97382 0.69802 0.0
C296 C 0.83714 1.00271 0.73783 0.0
C297 C 0.85729 0.05318 0.73475 0.0
C298 C 0.94823 0.28314 0.76216 0.0
C299 C 0.04408 0.28824 0.68993 0.0
O300 O 0.98674 0.39669 0.69329 0.0
O301 O 0.96821 0.3814 0.62052 0.0
O302 O 1.02163 0.32953 0.61366 0.0
O303 O 0.95375 0.26461 0.61091 0.0
O304 O 0.88098 0.29095 0.65374 0.0
O305 O 0.85625 0.21267 0.67251 0.0
O306 O 0.90042 0.15234 0.64909 0.0
O307 O 0.90529 0.15818 0.72455 0.0
O308 O 0.96422 0.25322 0.75549 0.0
O309 O 0.92596 0.28248 0.72614 0.0
O310 O 1.01002 0.24588 0.67545 0.0
O311 O 1.03438 0.32431 0.69654 0.0
H312 H 0.96722 0.46291 0.72625 0.0
H313 H 0.92312 0.50811 0.72605 0.0
H314 H 0.87553 0.46018 0.58708 0.0
H315 H 0.91917 0.41517 0.58679 0.0
H316 H 0.86064 0.06384 0.61834 0.0
H317 H 0.8242 0.97699 0.62321 0.0
H318 H 0.82734 0.98823 0.77183 0.0
H319 H 0.86403 0.07409 0.76619 0.0
Nd320 Nd 0.73608 0.65418 0.65875 0.0
Nd321 Nd 0.83457 0.72102 0.68152 0.0
C322 C 0.64389 0.58422 0.65489 0.0
C323 C 0.62071 0.53012 0.65704 0.0
C324 C 0.58795 0.50358 0.69243 0.0
C325 C 0.56432 0.45254 0.69283 0.0
C326 C 0.57295 0.42702 0.65778 0.0
C327 C 0.60664 0.45342 0.6232 0.0
C328 C 0.63035 0.50424 0.62288 0.0
C329 C 0.78181 0.70408 0.57857 0.0
C330 C 0.81251 0.61369 0.65601 0.0
C331 C 0.92972 0.77589 0.68955 0.0
C332 C 0.98324 0.80669 0.69321 0.0
C333 C 1.01224 0.82024 0.65334 0.0
C334 C 0.06257 0.85049 0.65639 0.0
C335 C 0.08497 0.86737 0.69936 0.0
C336 C 0.05639 0.85299 0.73937 0.0
C337 C 1.0059 0.82292 0.73632 0.0
C338 C 0.77488 0.67733 0.7587 0.0
C339 C 0.77266 0.77183 0.68051 0.0
O340 O 0.6704 0.60474 0.61868 0.0
O341 O 0.66348 0.6094 0.69238 0.0
O342 O 0.75576 0.65732 0.58193 0.0
O343 O 0.7894 0.72202 0.61906 0.0
O344 O 0.76635 0.60108 0.659 0.0
O345 O 0.8459 0.65934 0.65807 0.0
O346 O 0.90819 0.7567 0.65043 0.0
O347 O 0.90036 0.7666 0.7245 0.0
O348 O 0.80508 0.72339 0.75395 0.0
O349 O 0.77671 0.65612 0.7223 0.0
O350 O 0.81628 0.77911 0.67275 0.0
O351 O 0.7346 0.72643 0.68154 0.0
H352 H 0.58003 0.52229 0.71939 0.0
H353 H 0.53847 0.43289 0.7199 0.0
H354 H 0.61389 0.43457 0.59587 0.0
H355 H 0.65569 0.52312 0.59524 0.0
H356 H 0.99595 0.80842 0.61962 0.0
H357 H 0.08392 0.86215 0.62507 0.0
H358 H 0.07293 0.86669 0.77271 0.0
H359 H 0.98457 0.81307 0.76764 0.0
C360 C 0.4369 0.57262 0.95851 0.0
C361 C 0.46033 0.56322 0.99523 0.0
C362 C 0.38096 0.50854 0.03066 0.0
C363 C 0.35745 0.51892 0.99465 0.0
N364 N 0.36263 0.56558 0.92756 0.0
N365 N 0.45598 0.5303 0.07082 0.0
C366 C 0.3854 0.55266 0.95968 0.0
C367 C 0.43265 0.5334 0.03259 0.0
N368 N 0.46366 0.59868 0.92146 0.0
N369 N 0.35378 0.47416 0.06272 0.0
H370 H 0.49368 0.54847 0.07384 0.0
H371 H 0.43834 0.51347 0.10122 0.0
H372 H 0.31605 0.45748 0.0645 0.0
H373 H 0.36822 0.45996 0.08597 0.0
H374 H 0.44859 0.6023 0.89103 0.0
H375 H 0.50134 0.61448 0.91998 0.0
H376 H 0.38093 0.5938 0.90432 0.0
H377 H 0.32501 0.55003 0.92594 0.0
C378 C 0.49732 0.88472 0.95676 0.0
C379 C 0.50667 0.91861 0.99279 0.0
C380 C 0.56044 0.89398 0.03039 0.0
C381 C 0.55011 0.8591 0.99503 0.0
N382 N 0.50393 0.81627 0.92785 0.0
N383 N 0.53951 0.94937 0.06819 0.0
C384 C 0.51687 0.85284 0.95931 0.0
C385 C 0.53617 0.92151 0.03079 0.0
N386 N 0.47162 0.88462 0.91906 0.0
N387 N 0.59425 0.90143 0.06326 0.0
H388 H 0.52223 0.96988 0.06984 0.0
H389 H 0.5558 0.94911 0.09913 0.0
H390 H 0.6105 0.88004 0.06601 0.0
H391 H 0.60838 0.93049 0.08628 0.0
H392 H 0.46802 0.86502 0.88909 0.0
H393 H 0.45617 0.90676 0.91652 0.0
H394 H 0.47601 0.80604 0.90409 0.0
H395 H 0.51908 0.79378 0.92735 0.0
C396 C 0.21787 0.68101 0.01806 0.0
C397 C 0.20738 0.70913 0.98729 0.0
C398 C 0.14125 0.63379 0.9539 0.0
C399 C 0.14769 0.60592 0.98841 0.0
N400 N 0.18634 0.6057 0.05999 0.0
N401 N 0.15253 0.71218 0.93197 0.0
C402 C 0.18467 0.63018 0.02219 0.0
C403 C 0.1672 0.68545 0.95689 0.0
N404 N 0.25998 0.70264 0.04288 0.0
N405 N 0.11158 0.61103 0.91715 0.0
H406 H 0.1699 0.74995 0.93368 0.0
H407 H 0.12035 0.69668 0.91316 0.0
H408 H 0.09376 0.5735 0.91239 0.0
H409 H 0.10897 0.6296 0.88887 0.0
H410 H 0.27204 0.68314 0.06209 0.0
H411 H 0.2851 0.73963 0.04082 0.0
H412 H 0.2095 0.62266 0.08775 0.0
H413 H 0.16102 0.56953 0.06623 0.0
C414 C 0.46417 0.18564 0.97428 0.0
C415 C 0.439 0.15313 0.0105 0.0
C416 C 0.44218 0.22123 0.05421 0.0
C417 C 0.47439 0.25429 0.02079 0.0
N418 N 0.52463 0.26736 0.9538 0.0
N419 N 0.40735 0.14065 0.08749 0.0
C420 C 0.48771 0.23633 0.98203 0.0
C421 C 0.4285 0.17105 0.05117 0.0
N422 N 0.46551 0.16757 0.93217 0.0
N423 N 0.42422 0.23752 0.08833 0.0
H424 H 0.39577 0.10375 0.08534 0.0
H425 H 0.40359 0.15243 0.11998 0.0
H426 H 0.43356 0.27385 0.09148 0.0
H427 H 0.39718 0.21446 0.11105 0.0
H428 H 0.4805 0.1894 0.9033 0.0
H429 H 0.44544 0.1304 0.92577 0.0
H430 H 0.53902 0.25538 0.92794 0.0
H431 H 0.54434 0.30478 0.95927 0.0
C432 C 0.8387 0.26681 0.06935 0.0
C433 C 0.81475 0.23857 0.02965 0.0
C434 C 0.89346 0.27401 0.98932 0.0
C435 C 0.91706 0.30316 0.02841 0.0
N436 N 0.91515 0.31902 0.10877 0.0
N437 N 0.82008 0.2087 0.95464 0.0
C438 C 0.89042 0.2963 0.06958 0.0
C439 C 0.84249 0.24011 0.99048 0.0
N440 N 0.81183 0.26783 0.10575 0.0
N441 N 0.92 0.28038 0.95047 0.0
H442 H 0.78309 0.18329 0.95453 0.0
H443 H 0.83829 0.20527 0.92633 0.0
H444 H 0.95765 0.30087 0.95134 0.0
H445 H 0.90535 0.26626 0.91827 0.0
H446 H 0.82645 0.29146 0.13361 0.0
H447 H 0.77404 0.24747 0.10669 0.0
H448 H 0.89921 0.31345 0.14117 0.0
H449 H 0.95297 0.34001 0.10926 0.0
C450 C 0.82802 0.62151 0.99536 0.0
C451 C 0.82406 0.58915 0.03095 0.0
C452 C 0.76168 0.60212 0.06808 0.0
C453 C 0.7596 0.62713 0.02872 0.0
N454 N 0.78992 0.65962 0.95395 0.0
N455 N 0.782 0.54375 0.09874 0.0
C456 C 0.79305 0.63704 0.99235 0.0
C457 C 0.78991 0.57859 0.06707 0.0
N458 N 0.86581 0.63825 0.96494 0.0
N459 N 0.73577 0.6004 0.10627 0.0
H460 H 0.80041 0.52431 0.09832 0.0
H461 H 0.75403 0.53088 0.12284 0.0
H462 H 0.7165 0.61901 0.10779 0.0
H463 H 0.73795 0.58572 0.13753 0.0
H464 H 0.87301 0.66501 0.94069 0.0
H465 H 0.89272 0.62867 0.9667 0.0
H466 H 0.80766 0.66153 0.92315 0.0
H467 H 0.7679 0.67514 0.95328 0.0
C468 C 0.04975 0.8597 0.27975 0.0
C469 C 1.02479 0.85306 0.32221 0.0
C470 C 0.10342 0.89941 0.36195 0.0
C471 C 0.12813 0.9011 0.32052 0.0
N472 N 0.12492 0.87851 0.24083 0.0
N473 N 1.02772 0.86098 0.4049 0.0
C474 C 0.10126 0.88009 0.27961 0.0
C475 C 0.05163 0.87173 0.36363 0.0
N476 N 1.02431 0.84769 0.23936 0.0
N477 N 0.12959 0.92438 0.39979 0.0
H478 H 0.99001 0.84075 0.40762 0.0
H479 H 0.04516 0.86855 0.43666 0.0
H480 H 0.16735 0.94505 0.39958 0.0
H481 H 0.11402 0.92841 0.42986 0.0
H482 H 0.0407 0.8561 0.20706 0.0
H483 H 0.98676 0.83302 0.23809 0.0
H484 H 0.10715 0.85846 0.21159 0.0
H485 H 0.16267 0.89519 0.23885 0.0
C486 C 0.14992 0.20411 0.34147 0.0
C487 C 0.17311 0.25003 0.319 0.0
C488 C 0.24369 0.2396 0.30371 0.0
C489 C 0.21845 0.19166 0.32129 0.0
N490 N 0.1425 0.12456 0.34727 0.0
N491 N 0.23662 0.30367 0.26684 0.0
C492 C 0.16997 0.17274 0.33719 0.0
C493 C 0.21835 0.26534 0.29651 0.0
N494 N 0.11065 0.19126 0.36927 0.0
N495 N 0.29247 0.26161 0.29549 0.0
H496 H 0.21766 0.32133 0.25782 0.0
H497 H 0.26753 0.31383 0.24692 0.0
H498 H 0.31293 0.2449 0.30191 0.0
H499 H 0.31338 0.29823 0.28713 0.0
H500 H 0.09572 0.16043 0.3899 0.0
H501 H 0.0959 0.21349 0.37561 0.0
H502 H 0.10548 0.10787 0.3544 0.0
H503 H 0.15559 0.10044 0.34402 0.0
C504 C 0.83532 1.01962 0.29512 0.0
C505 C 0.87721 0.04241 0.32355 0.0
C506 C 0.85806 0.96227 0.35286 0.0
C507 C 0.81877 0.93915 0.32115 0.0
N508 N 0.7784 0.94678 0.25406 0.0
N509 N 0.9344 0.03438 0.3717 0.0
C510 C 0.80998 0.9682 0.28986 0.0
C511 C 0.89046 1.01337 0.34995 0.0
N512 N 0.81842 0.04682 0.27447 0.0
N513 N 0.86283 0.93647 0.38787 0.0
H514 H 0.95911 0.07153 0.37023 0.0
H515 H 0.94817 1.01438 0.38737 0.0
H516 H 0.83861 0.89986 0.39329 0.0
H517 H 0.88781 0.95256 0.41452 0.0
H518 H 0.78515 0.03161 0.2575 0.0
H519 H 0.8352 0.08442 0.2781 0.0
H520 H 0.77382 0.96641 0.22789 0.0
H521 H 0.76099 0.90954 0.24754 0.0
C522 C 0.16526 0.572 0.38826 0.0
C523 C 0.14125 0.58895 0.35927 0.0
C524 C 0.0864 0.50481 0.33293 0.0
C525 C 0.11015 0.48795 0.36259 0.0
N526 N 0.1616 0.5045 0.429 0.0
N527 N 0.07328 0.57104 0.31032 0.0
C528 C 0.14583 0.52137 0.39384 0.0
C529 C 0.09995 0.55513 0.33353 0.0
N530 N 0.20844 0.60419 0.40849 0.0
N531 N 0.05212 0.47315 0.30311 0.0
H532 H 0.08237 0.60742 0.30998 0.0
H533 H 0.0403 0.54798 0.29437 0.0
H534 H 0.03805 0.4359 0.30565 0.0
H535 H 0.03835 0.48385 0.27598 0.0
H536 H 0.23051 0.59361 0.42535 0.0
H537 H 0.22478 0.64169 0.40465 0.0
H538 H 0.18403 0.52647 0.45543 0.0
H539 H 0.14774 0.46775 0.43455 0.0
C540 C 0.51268 0.5663 0.33064 0.0
C541 C 0.48156 0.57402 0.36059 0.0
C542 C 0.55359 0.6413 0.39673 0.0
C543 C 0.58371 0.63961 0.36154 0.0
N544 N 0.59168 0.60068 0.29393 0.0
N545 N 0.47322 0.6255 0.41712 0.0
C546 C 0.5632 0.60174 0.32845 0.0
C547 C 0.50225 0.6131 0.39264 0.0
N548 N 0.4943 0.52463 0.30511 0.0
N549 N 0.57452 0.67063 0.43402 0.0
H550 H 0.43559 0.60759 0.41351 0.0
H551 H 0.48685 0.65675 0.43735 0.0
H552 H 0.61202 0.68901 0.43863 0.0
H553 H 0.55492 0.67154 0.46246 0.0
H554 H 0.51583 0.51505 0.28567 0.0
H555 H 0.45797 0.49742 0.30671 0.0
H556 H 0.57798 0.57867 0.26485 0.0
H557 H 0.62918 0.62323 0.29449 0.0
C558 C 0.46057 0.97242 0.38647 0.0
C559 C 0.41943 0.94554 0.35798 0.0
C560 C 0.45425 0.89562 0.33047 0.0
C561 C 0.49259 0.91913 0.36243 0.0
N562 N 0.53154 0.97723 0.42348 0.0
N563 N 0.37456 0.87657 0.30627 0.0
C564 C 0.49571 0.95702 0.39105 0.0
C565 C 0.4158 0.90598 0.33077 0.0
N566 N 0.46569 1.01229 0.40935 0.0
N567 N 0.45457 0.86334 0.29922 0.0
H568 H 0.34705 0.88436 0.30037 0.0
H569 H 0.36631 0.84268 0.29331 0.0
H570 H 0.47993 0.85169 0.29957 0.0
H571 H 0.43177 0.85067 0.27064 0.0
H572 H 0.49635 0.03596 0.42818 0.0
H573 H 0.44043 0.02387 0.40638 0.0
H574 H 0.53329 1.00129 0.44884 0.0
H575 H 0.55831 0.96759 0.42677 0.0
C576 C 0.76938 0.24028 0.62554 0.0
C577 C 0.79288 0.23178 0.66292 0.0
C578 C 0.71293 0.17788 0.69794 0.0
C579 C 0.68953 0.1893 0.66264 0.0
N580 N 0.69697 0.23967 0.59789 0.0
N581 N 0.78674 0.20405 0.7413 0.0
C582 C 0.71827 0.22307 0.62794 0.0
C583 C 0.76449 0.20408 0.7011 0.0
N584 N 0.7951 0.2626 0.58677 0.0
N585 N 0.68622 0.14042 0.72739 0.0
H586 H 0.82416 0.22497 0.74616 0.0
H587 H 0.76768 0.18801 0.77143 0.0
H588 H 0.64853 0.11919 0.72561 0.0
H589 H 0.70189 0.12726 0.75047 0.0
H590 H 0.77893 0.265 0.55652 0.0
H591 H 0.83217 0.27527 0.5835 0.0
H592 H 0.71663 0.26785 0.57489 0.0
H593 H 0.66003 0.22838 0.59894 0.0
C594 C 0.83024 0.50498 0.68092 0.0
C595 C 0.87267 0.51803 0.65473 0.0
C596 C 0.8672 0.58594 0.6216 0.0
C597 C 0.829 0.57716 0.65266 0.0
N598 N 0.78161 0.53345 0.7192 0.0
N599 N 0.93677 0.57624 0.60607 0.0
C600 C 0.81209 0.53776 0.68407 0.0
C601 C 0.89262 0.56001 0.62665 0.0
N602 N 0.80692 0.46107 0.70251 0.0
N603 N 0.87835 0.61812 0.58634 0.0
H604 H 0.95686 0.55863 0.60927 0.0
H605 H 0.95551 0.60959 0.58947 0.0
H606 H 0.85901 0.63605 0.58005 0.0
H607 H 0.90302 0.62288 0.56039 0.0
H608 H 0.77299 0.44751 0.71796 0.0
H609 H 0.8193 0.43626 0.70122 0.0
H610 H 0.77207 0.50824 0.7456 0.0
H611 H 0.77026 0.55846 0.72505 0.0
C612 C 0.55867 0.34438 0.68214 0.0
C613 C 0.54467 0.37263 0.65535 0.0
C614 C 0.47974 0.29788 0.62004 0.0
C615 C 0.48933 0.26932 0.65119 0.0
N616 N 0.53708 0.26558 0.71368 0.0
N617 N 0.48872 0.37637 0.602 0.0
C618 C 0.52901 0.2926 0.68235 0.0
C619 C 0.50448 0.34936 0.62495 0.0
N620 N 0.60087 0.36709 0.70682 0.0
N621 N 0.44724 0.27542 0.58509 0.0
H622 H 0.50606 0.41412 0.60423 0.0
H623 H 0.45628 0.36128 0.58367 0.0
H624 H 0.42961 0.23793 0.57987 0.0
H625 H 0.44151 0.29398 0.55866 0.0
H626 H 0.61604 0.34874 0.72314 0.0
H627 H 0.62281 0.40476 0.70815 0.0
H628 H 0.56044 0.28042 0.74166 0.0
H629 H 0.51893 0.22787 0.71271 0.0
C630 C 0.79766 0.85155 0.64729 0.0
C631 C 0.77062 0.81775 0.68227 0.0
C632 C 0.79182 0.88665 0.73476 0.0
C633 C 0.8161 0.92014 0.69804 0.0
N634 N 0.8676 0.92943 0.63337 0.0
N635 N 0.73712 0.80302 0.75828 0.0
C636 C 0.8262 0.90123 0.65795 0.0
C637 C 0.76526 0.83543 0.7254 0.0
N638 N 0.79833 0.83551 0.60395 0.0
N639 N 0.80356 0.90189 0.77916 0.0
H640 H 0.71891 0.76565 0.75227 0.0
H641 H 0.72821 0.81321 0.78933 0.0
H642 H 0.8376 0.93135 0.7868 0.0
H643 H 0.78721 0.88002 0.80767 0.0
H644 H 0.81455 0.85865 0.57607 0.0
H645 H 0.7784 0.79895 0.59601 0.0
H646 H 0.87916 0.91608 0.6062 0.0
H647 H 0.8935 0.96419 0.64434 0.0
C648 C 0.17486 0.89655 0.70893 0.0
C649 C 0.13665 0.90665 0.70137 0.0
C650 C 0.19574 0.99078 0.6846 0.0
C651 C 0.23492 0.9828 0.69743 0.0
N652 N 0.25945 0.9287 0.7299 0.0
N653 N 0.111 0.9659 0.69318 0.0
C654 C 0.22394 0.93571 0.71162 0.0
C655 C 0.14728 0.95459 0.6931 0.0
N656 N 0.16427 0.84955 0.7132 0.0
N657 N 0.20399 0.03142 0.66099 0.0
H658 H 0.07448 0.94027 0.69797 0.0
H659 H 0.11776 1.00153 0.69301 0.0
H660 H 0.23773 0.0575 0.64869 0.0
H661 H 0.17625 0.03589 0.64721 0.0
H662 H 0.19073 0.83937 0.71385 0.0
H663 H 0.12875 0.82043 0.7128 0.0
H664 H 0.25255 0.8962 0.7449 0.0
H665 H 0.29511 0.95665 0.73419 0.0
C666 C 0.11816 0.23617 0.73147 0.0
C667 C 0.15625 0.25334 0.6986 0.0
C668 C 0.12793 0.30657 0.66637 0.0
C669 C 0.09126 0.29071 0.70057 0.0
N670 N 0.06243 0.25289 0.77393 0.0
N671 N 0.20375 0.31287 0.64104 0.0
C672 C 0.09027 0.25968 0.73589 0.0
C673 C 0.1631 0.29105 0.66791 0.0
N674 N 0.10669 0.19574 0.75679 0.0
N675 N 0.12812 0.33514 0.63146 0.0
H676 H 0.23052 0.30306 0.64177 0.0
H677 H 0.21297 0.3434 0.62112 0.0
H678 H 0.10607 0.35072 0.6321 0.0
H679 H 0.14893 0.34208 0.60172 0.0
H680 H 0.07597 0.17872 0.77762 0.0
H681 H 0.12492 0.17624 0.75345 0.0
H682 H 0.06191 0.23281 0.80237 0.0
H683 H 0.04535 0.27322 0.77918 0.0
C684 C 0.13732 0.4238 0.17159 0.0
C685 C 0.10687 0.40165 0.21037 0.0
C686 C 0.048 0.42327 0.1774 0.0
C687 C 0.07559 0.44093 0.13612 0.0
N688 N 0.15572 0.47317 0.1029 0.0
N689 N 1.02821 0.37324 0.24502 0.0
C690 C 0.12285 0.44534 0.13559 0.0
C691 C 0.06094 0.39952 0.21163 0.0
N692 N 0.17937 0.42222 0.16799 0.0
N693 N 1.01173 0.43339 0.18648 0.0
H694 H 0.03712 0.35991 0.27357 0.0
H695 H 0.99159 0.36303 0.24329 0.0
H696 H 1.00623 0.45754 0.16684 0.0
H697 H 0.99202 0.42419 0.21707 0.0
H698 H 0.2002 0.43087 0.13813 0.0
H699 H 0.19172 0.4087 0.19412 0.0
H700 H 0.19214 0.48279 0.10369 0.0
H701 H 0.14855 0.49156 0.07766 0.0
C702 C 0.63945 0.72855 0.17204 0.0
C703 C 0.66578 0.72266 0.20855 0.0
C704 C 0.64471 0.64223 0.176 0.0
C705 C 0.62322 0.65012 0.13645 0.0
N706 N 0.58367 0.69271 0.10763 0.0
N707 N 0.69905 0.67557 0.24071 0.0
C708 C 0.61615 0.69124 0.13724 0.0
C709 C 0.67 0.68008 0.20898 0.0
N710 N 0.63809 0.77076 0.16975 0.0
N711 N 0.63648 0.59658 0.18513 0.0
H712 H 0.71296 0.69805 0.2693 0.0
H713 H 0.71042 0.65008 0.23776 0.0
H714 H 0.61106 0.56599 0.16712 0.0
H715 H 0.64831 0.58758 0.21493 0.0
H716 H 0.62547 0.78097 0.14134 0.0
H717 H 0.65302 0.79748 0.19528 0.0
H718 H 0.57353 0.71913 0.10877 0.0
H719 H 0.5615 0.66402 0.086 0.0
C720 C 0.35827 0.98472 0.12586 0.0
C721 C 0.40613 0.99156 0.12697 0.0
C722 C 0.39114 0.9655 0.20789 0.0
C723 C 0.34128 0.95469 0.20611 0.0
N724 N 0.27584 0.93958 0.15452 0.0
N725 N 0.46176 0.97423 0.16672 0.0
C726 C 0.32448 0.9595 0.16217 0.0
C727 C 0.42001 0.97657 0.16695 0.0
N728 N 0.3452 1.00436 0.09129 0.0
N729 N 0.4137 0.97072 0.24861 0.0
H730 H 0.48459 0.98377 0.13813 0.0
H731 H 0.47102 0.95846 0.19332 0.0
H732 H 0.39668 0.96872 0.2788 0.0
H733 H 0.4508 0.98361 0.25209 0.0
H734 H 0.31295 1.00543 0.09126 0.0
H735 H 0.36882 0.02309 0.06482 0.0
H736 H 0.26149 0.9386 0.12203 0.0
H737 H 0.24983 0.91897 0.17924 0.0
C738 C 0.4019 0.03473 0.84549 0.0
C739 C 0.44862 0.06067 0.86678 0.0
C740 C 0.46318 0.13248 0.81985 0.0
C741 C 0.41391 0.10787 0.80473 0.0
N742 N 0.33354 0.03971 0.81605 0.0
N743 N 0.5257 0.13424 0.87038 0.0
C744 C 0.38258 0.06046 0.82179 0.0
C745 C 0.47995 0.10959 0.8524 0.0
N746 N 0.37687 0.98518 0.84404 0.0
N747 N 0.49393 0.17764 0.80307 0.0
H748 H 0.53942 0.11763 0.89172 0.0
H749 H 0.54964 0.17102 0.86538 0.0
H750 H 0.48176 0.19624 0.78277 0.0
H751 H 0.53123 0.19645 0.80846 0.0
H752 H 0.34404 0.9654 0.82656 0.0
H753 H 0.39235 0.96403 0.85186 0.0
H754 H 0.30874 1.00683 0.83115 0.0
H755 H 0.31754 0.05819 0.80135 0.0
C756 C 1.00759 0.34865 0.87618 0.0
C757 C 0.99986 0.38915 0.87718 0.0
C758 C 0.95014 0.35649 0.80598 0.0
C759 C 0.96025 0.31719 0.80407 0.0
N760 N 0.97841 0.26613 0.85134 0.0
N761 N 0.96713 0.43388 0.84051 0.0
C762 C 0.98378 0.31081 0.84282 0.0
C763 C 0.97181 0.39345 0.8414 0.0
N764 N 0.03756 0.34548 0.90773 0.0
N765 N 0.91658 0.35654 0.77672 0.0
H766 H 0.98079 0.46014 0.86652 0.0
H767 H 0.95285 0.44336 0.81291 0.0
H768 H 0.89528 0.32801 0.75459 0.0
H769 H 0.90476 0.38166 0.7782 0.0
H770 H 0.05152 0.32215 0.9039 0.0
H771 H 0.0488 0.36644 0.93747 0.0
H772 H 0.99102 0.25791 0.8811 0.0
H773 H 0.95449 0.23509 0.833 0.0
C774 C 0.69887 0.60784 0.80157 0.0
C775 C 0.74139 0.6553 0.80077 0.0
C776 C 0.71566 0.67275 0.8757 0.0
C777 C 0.67257 0.62651 0.87605 0.0
N778 N 0.62106 0.55129 0.83731 0.0
N779 N 0.79851 0.72015 0.84994 0.0
C780 C 0.66399 0.59423 0.83861 0.0
C781 C 0.7519 0.68428 0.84132 0.0
N782 N 0.69295 0.57426 0.76897 0.0
N783 N 0.72242 0.70667 0.90826 0.0
H784 H 0.82794 0.72477 0.83022 0.0
H785 H 0.80922 0.73988 0.88062 0.0
H786 H 0.70136 0.69856 0.93779 0.0
H787 H 0.74866 0.74322 0.90524 0.0
H788 H 0.6669 0.53767 0.77078 0.0
H789 H 0.7163 0.58141 0.74155 0.0
H790 H 0.60848 0.52851 0.80867 0.0
H791 H 0.59602 0.53979 0.86426 0.0
C792 C 0.78921 0.77345 0.46552 0.0
C793 C 0.74405 0.77336 0.46673 0.0
C794 C 0.72574 0.73035 0.54132 0.0
C795 C 0.76954 0.72825 0.5396 0.0
N796 N 0.84124 0.74454 0.49781 0.0
N797 N 0.68481 0.77361 0.51852 0.0
C798 C 0.80094 0.74932 0.50116 0.0
C799 C 0.71652 0.75767 0.50812 0.0
N800 N 0.82276 0.79969 0.43264 0.0
N801 N 0.69269 0.70696 0.57545 0.0
H802 H 0.68206 0.79946 0.49885 0.0
H803 H 0.66715 0.76756 0.55013 0.0
H804 H 0.69909 0.69024 0.60291 0.0
H805 H 0.65756 0.70158 0.57479 0.0
H806 H 0.85806 0.80575 0.43234 0.0
H807 H 0.81742 0.81992 0.40793 0.0
H808 H 0.86274 0.75296 0.46845 0.0
H809 H 0.85135 0.72869 0.52366 0.0
C810 C 0.33812 0.03893 0.46907 0.0
C811 C 0.29221 0.99515 0.46503 0.0
C812 C 0.27267 1.01097 0.54285 0.0
C813 C 0.31797 0.05556 0.54683 0.0
N814 N 0.3886 0.11643 0.50795 0.0
N815 N 0.21149 0.94691 0.49489 0.0
C816 C 0.34854 0.0712 0.50767 0.0
C817 C 0.25794 0.98422 0.50056 0.0
N818 N 0.37313 0.04865 0.43725 0.0
N819 N 0.24538 0.9913 0.58112 0.0
H820 H 0.20021 0.92472 0.4657 0.0
H821 H 0.18335 0.9406 0.51739 0.0
H822 H 0.25636 1.00889 0.6123 0.0
H823 H 0.2154 0.95644 0.58278 0.0
H824 H 0.4091 0.07618 0.44054 0.0
H825 H 0.36623 0.02674 0.40872 0.0
H826 H 0.41049 0.13211 0.47921 0.0
H827 H 0.39693 0.14014 0.5358 0.0
C828 C 0.04399 0.26923 0.53357 0.0
C829 C 1.0116 0.28676 0.54368 0.0
C830 C 0.04497 0.34179 0.47718 0.0
C831 C 0.077 0.3238 0.46573 0.0
N832 N 0.09938 0.26281 0.47944 0.0
N833 N 0.97206 0.32922 0.51682 0.0
C834 C 0.07359 0.28468 0.49251 0.0
C835 C 1.00888 0.31912 0.51226 0.0
N836 N 0.04812 0.2394 0.56453 0.0
N837 N 0.05025 0.38237 0.45636 0.0
H838 H 0.94551 0.31321 0.54228 0.0
H839 H 0.96486 0.34895 0.49272 0.0
H840 H 0.07619 0.40059 0.43153 0.0
H841 H 1.03234 0.40067 0.46691 0.0
H842 H 0.07545 0.23046 0.56336 0.0
H843 H 1.02474 0.22513 0.59263 0.0
H844 H 0.09497 0.23125 0.49456 0.0
H845 H 0.12286 0.27433 0.45129 0.0
loop_
_geom_bond_atom_site_label_1
_geom_bond_atom_site_label_2
_geom_bond_distance
_geom_bond_site_symmetry_2
_ccdc_geom_bond_type
Nd0 C2 2.836 . S
Nd0 O20 2.500 1_556 S
Nd0 O21 2.492 . S
Nd0 O22 2.487 . S
Nd0 O23 2.682 1_455 S
Nd0 O24 2.410 . S
Nd0 O29 2.414 1_556 S
Nd0 O31 2.424 1_456 S
Nd1 C11 2.836 . S
Nd1 O23 2.414 1_554 S
Nd1 O25 2.424 1_655 S
Nd1 O26 2.500 1_554 S
Nd1 O27 2.492 . S
Nd1 O28 2.487 . S
Nd1 O29 2.682 1_655 S
Nd1 O30 2.410 . S
C2 Nd0 2.836 . S
C2 C3 1.498 . S
C2 O20 1.258 1_556 S
C2 O21 1.239 . S
C3 C2 1.498 . S
C3 C4 1.366 1_556 S
C3 C8 1.407 . S
C4 C3 1.366 1_554 S
C4 C5 1.392 . S
C4 H32 0.930 . S
C5 C4 1.392 . S
C5 C6 1.398 1_554 S
C5 H33 0.929 . S
C6 C5 1.398 1_556 S
C6 C7 1.352 . S
C7 C6 1.352 . S
C7 C8 1.384 . S
C7 H34 0.930 . S
C8 C3 1.407 . S
C8 C7 1.384 . S
C8 H35 0.929 . S
C9 O22 1.241 1_655 S
C9 O23 1.273 . S
C10 O24 1.251 . S
C10 O25 1.268 1_556 S
C11 Nd1 2.836 . S
C11 C12 1.498 . S
C11 O26 1.258 1_554 S
C11 O27 1.239 . S
C12 C11 1.498 . S
C12 C13 1.366 1_554 S
C12 C17 1.407 . S
C13 C12 1.366 1_556 S
C13 C14 1.392 . S
C13 H36 0.930 . S
C14 C13 1.392 . S
C14 C15 1.398 1_556 S
C14 H37 0.929 . S
C15 C14 1.398 1_554 S
C15 C16 1.352 . S
C16 C15 1.352 . S
C16 C17 1.384 . S
C16 H38 0.930 . S
C17 C12 1.407 . S
C17 C16 1.384 . S
C17 H39 0.929 . S
C18 O28 1.241 1_455 S
C18 O29 1.273 . S
C19 O30 1.251 . S
C19 O31 1.268 . S
O20 Nd0 2.500 1_554 S
O20 C2 1.258 1_554 S
O21 Nd0 2.492 . S
O21 C2 1.239 . S
O22 Nd0 2.487 . S
O22 C9 1.241 1_455 S
O23 Nd0 2.682 1_655 S
O23 Nd1 2.414 1_556 S
O23 C9 1.273 . S
O24 Nd0 2.410 . S
O24 C10 1.251 . S
O25 Nd1 2.424 1_455 S
O25 C10 1.268 1_554 S
O26 Nd1 2.500 1_556 S
O26 C11 1.258 1_556 S
O27 Nd1 2.492 . S
O27 C11 1.239 . S
O28 Nd1 2.487 . S
O28 C18 1.241 1_655 S
O29 Nd0 2.414 1_554 S
O29 Nd1 2.682 1_455 S
O29 C18 1.273 . S
O30 Nd1 2.410 . S
O30 C19 1.251 . S
O31 Nd0 2.424 1_654 S
O31 C19 1.268 . S
H32 C4 0.930 . S
H33 C5 0.929 . S
H34 C7 0.930 . S
H35 C8 0.929 . S
H36 C13 0.930 . S
H37 C14 0.929 . S
H38 C16 0.930 . S
H39 C17 0.929 . S
Nd40 C42 2.836 . S
Nd40 O60 2.500 1_556 S
Nd40 O61 2.492 . S
Nd40 O62 2.487 . S
Nd40 O63 2.682 . S
Nd40 O64 2.410 . S
Nd40 O69 2.414 1_556 S
Nd40 O71 2.424 1_556 S
Nd41 C51 2.836 . S
Nd41 O63 2.414 1_554 S
Nd41 O65 2.424 . S
Nd41 O66 2.500 1_554 S
Nd41 O67 2.492 . S
Nd41 O68 2.487 . S
Nd41 O69 2.682 . S
Nd41 O70 2.410 . S
C42 Nd40 2.836 . S
C42 C43 1.498 . S
C42 O60 1.258 1_556 S
C42 O61 1.239 . S
C43 C42 1.498 . S
C43 C44 1.366 1_556 S
C43 C48 1.407 . S
C44 C43 1.366 1_554 S
C44 C45 1.392 . S
C44 H72 0.930 . S
C45 C44 1.392 . S
C45 C46 1.398 1_554 S
C45 H73 0.929 . S
C46 C45 1.398 1_556 S
C46 C47 1.352 . S
C47 C46 1.352 . S
C47 C48 1.384 . S
C47 H74 0.930 . S
C48 C43 1.407 . S
C48 C47 1.384 . S
C48 H75 0.929 . S
C49 O62 1.241 . S
C49 O63 1.273 . S
C50 O64 1.251 . S
C50 O65 1.268 1_556 S
C51 Nd41 2.836 . S
C51 C52 1.498 . S
C51 O66 1.258 1_554 S
C51 O67 1.239 . S
C52 C51 1.498 . S
C52 C53 1.366 1_554 S
C52 C57 1.407 . S
C53 C52 1.366 1_556 S
C53 C54 1.392 . S
C53 H76 0.930 . S
C54 C53 1.392 . S
C54 C55 1.398 1_556 S
C54 H77 0.929 . S
C55 C54 1.398 1_554 S
C55 C56 1.352 . S
C56 C55 1.352 . S
C56 C57 1.384 . S
C56 H78 0.930 . S
C57 C52 1.407 . S
C57 C56 1.384 . S
C57 H79 0.929 . S
C58 O68 1.241 . S
C58 O69 1.273 . S
C59 O70 1.251 . S
C59 O71 1.268 . S
O60 Nd40 2.500 1_554 S
O60 C42 1.258 1_554 S
O61 Nd40 2.492 . S
O61 C42 1.239 . S
O62 Nd40 2.487 . S
O62 C49 1.241 . S
O63 Nd40 2.682 . S
O63 Nd41 2.414 1_556 S
O63 C49 1.273 . S
O64 Nd40 2.410 . S
O64 C50 1.251 . S
O65 Nd41 2.424 . S
O65 C50 1.268 1_554 S
O66 Nd41 2.500 1_556 S
O66 C51 1.258 1_556 S
O67 Nd41 2.492 . S
O67 C51 1.239 . S
O68 Nd41 2.487 . S
O68 C58 1.241 . S
O69 Nd40 2.414 1_554 S
O69 Nd41 2.682 . S
O69 C58 1.273 . S
O70 Nd41 2.410 . S
O70 C59 1.251 . S
O71 Nd40 2.424 1_554 S
O71 C59 1.268 . S
H72 C44 0.930 . S
H73 C45 0.929 . S
H74 C47 0.930 . S
H75 C48 0.929 . S
H76 C53 0.930 . S
H77 C54 0.929 . S
H78 C56 0.930 . S
H79 C57 0.929 . S
Nd80 C82 2.836 . S
Nd80 O100 2.500 1_556 S
Nd80 O101 2.492 . S
Nd80 O102 2.487 . S
Nd80 O103 2.682 1_565 S
Nd80 O104 2.410 . S
Nd80 O109 2.414 1_556 S
Nd80 O111 2.424 1_566 S
Nd81 C91 2.836 . S
Nd81 O103 2.414 1_554 S
Nd81 O105 2.424 1_545 S
Nd81 O106 2.500 1_554 S
Nd81 O107 2.492 . S
Nd81 O108 2.487 . S
Nd81 O109 2.682 1_545 S
Nd81 O110 2.410 . S
C82 Nd80 2.836 . S
C82 C83 1.498 . S
C82 O100 1.258 1_556 S
C82 O101 1.239 . S
C83 C82 1.498 . S
C83 C84 1.366 1_556 S
C83 C88 1.407 . S
C84 C83 1.366 1_554 S
C84 C85 1.392 . S
C84 H112 0.930 . S
C85 C84 1.392 . S
C85 C86 1.398 1_554 S
C85 H113 0.929 . S
C86 C85 1.398 1_556 S
C86 C87 1.352 . S
C87 C86 1.352 . S
C87 C88 1.384 . S
C87 H114 0.930 . S
C88 C83 1.407 . S
C88 C87 1.384 . S
C88 H115 0.929 . S
C89 O102 1.241 1_545 S
C89 O103 1.273 . S
C90 O104 1.251 . S
C90 O105 1.268 1_556 S
C91 Nd81 2.836 . S
C91 C92 1.498 . S
C91 O106 1.258 1_554 S
C91 O107 1.239 . S
C92 C91 1.498 . S
C92 C93 1.366 1_554 S
C92 C97 1.407 . S
C93 C92 1.366 1_556 S
C93 C94 1.392 . S
C93 H116 0.930 . S
C94 C93 1.392 . S
C94 C95 1.398 1_556 S
C94 H117 0.929 . S
C95 C94 1.398 1_554 S
C95 C96 1.352 . S
C96 C95 1.352 . S
C96 C97 1.384 . S
C96 H118 0.930 . S
C97 C92 1.407 . S
C97 C96 1.384 . S
C97 H119 0.929 . S
C98 O108 1.241 1_565 S
C98 O109 1.273 . S
C99 O110 1.251 . S
C99 O111 1.268 . S
O100 Nd80 2.500 1_554 S
O100 C82 1.258 1_554 S
O101 Nd80 2.492 . S
O101 C82 1.239 . S
O102 Nd80 2.487 . S
O102 C89 1.241 1_565 S
O103 Nd80 2.682 1_545 S
O103 Nd81 2.414 1_556 S
O103 C89 1.273 . S
O104 Nd80 2.410 . S
O104 C90 1.251 . S
O105 Nd81 2.424 1_565 S
O105 C90 1.268 1_554 S
O106 Nd81 2.500 1_556 S
O106 C91 1.258 1_556 S
O107 Nd81 2.492 . S
O107 C91 1.239 . S
O108 Nd81 2.487 . S
O108 C98 1.241 1_545 S
O109 Nd80 2.414 1_554 S
O109 Nd81 2.682 1_565 S
O109 C98 1.273 . S
O110 Nd81 2.410 . S
O110 C99 1.251 . S
O111 Nd80 2.424 1_544 S
O111 C99 1.268 . S
H112 C84 0.930 . S
H113 C85 0.929 . S
H114 C87 0.930 . S
H115 C88 0.929 . S
H116 C93 0.930 . S
H117 C94 0.929 . S
H118 C96 0.930 . S
H119 C97 0.929 . S
Nd120 C122 2.836 . S
Nd120 O140 2.500 . S
Nd120 O141 2.492 . S
Nd120 O142 2.487 . S
Nd120 O143 2.682 . S
Nd120 O144 2.410 . S
Nd120 O149 2.414 . S
Nd120 O151 2.424 . S
Nd121 C131 2.836 . S
Nd121 O143 2.414 . S
Nd121 O145 2.424 . S
Nd121 O146 2.500 . S
Nd121 O147 2.492 . S
Nd121 O148 2.487 . S
Nd121 O149 2.682 . S
Nd121 O150 2.410 . S
C122 Nd120 2.836 . S
C122 C123 1.498 . S
C122 O140 1.258 . S
C122 O141 1.239 . S
C123 C122 1.498 . S
C123 C124 1.366 . S
C123 C128 1.407 . S
C124 C123 1.366 . S
C124 C125 1.392 . S
C124 H152 0.930 . S
C125 C124 1.392 . S
C125 C126 1.398 . S
C125 H153 0.929 . S
C126 C125 1.398 . S
C126 C127 1.352 . S
C127 C126 1.352 . S
C127 C128 1.384 . S
C127 H154 0.930 . S
C128 C123 1.407 . S
C128 C127 1.384 . S
C128 H155 0.929 . S
C129 O142 1.241 . S
C129 O143 1.273 . S
C130 O144 1.251 . S
C130 O145 1.268 . S
C131 Nd121 2.836 . S
C131 C132 1.498 . S
C131 O146 1.258 . S
C131 O147 1.239 . S
C132 C131 1.498 . S
C132 C133 1.366 . S
C132 C137 1.407 . S
C133 C132 1.366 . S
C133 C134 1.392 . S
C133 H156 0.930 . S
C134 C133 1.392 . S
C134 C135 1.398 . S
C134 H157 0.929 . S
C135 C134 1.398 . S
C135 C136 1.352 . S
C136 C135 1.352 . S
C136 C137 1.384 . S
C136 H158 0.930 . S
C137 C132 1.407 . S
C137 C136 1.384 . S
C137 H159 0.929 . S
C138 O148 1.241 . S
C138 O149 1.273 . S
C139 O150 1.251 . S
C139 O151 1.268 . S
O140 Nd120 2.500 . S
O140 C122 1.258 . S
O141 Nd120 2.492 . S
O141 C122 1.239 . S
O142 Nd120 2.487 . S
O142 C129 1.241 . S
O143 Nd120 2.682 . S
O143 Nd121 2.414 . S
O143 C129 1.273 . S
O144 Nd120 2.410 . S
O144 C130 1.251 . S
O145 Nd121 2.424 . S
O145 C130 1.268 . S
O146 Nd121 2.500 . S
O146 C131 1.258 . S
O147 Nd121 2.492 . S
O147 C131 1.239 . S
O148 Nd121 2.487 . S
O148 C138 1.241 . S
O149 Nd120 2.414 . S
O149 Nd121 2.682 . S
O149 C138 1.273 . S
O150 Nd121 2.410 . S
O150 C139 1.251 . S
O151 Nd120 2.424 . S
O151 C139 1.268 . S
H152 C124 0.930 . S
H153 C125 0.929 . S
H154 C127 0.930 . S
H155 C128 0.929 . S
H156 C133 0.930 . S
H157 C134 0.929 . S
H158 C136 0.930 . S
H159 C137 0.929 . S
Nd160 C162 2.836 1_565 S
Nd160 O180 2.500 1_565 S
Nd160 O181 2.492 1_565 S
Nd160 O182 2.487 . S
Nd160 O183 2.682 . S
Nd160 O184 2.410 . S
Nd160 O189 2.414 . S
Nd160 O191 2.424 . S
Nd161 C171 2.836 . S
Nd161 O183 2.414 . S
Nd161 O185 2.424 . S
Nd161 O186 2.500 . S
Nd161 O187 2.492 . S
Nd161 O188 2.487 . S
Nd161 O189 2.682 . S
Nd161 O190 2.410 . S
C162 Nd160 2.836 1_545 S
C162 C163 1.498 . S
C162 O180 1.258 . S
C162 O181 1.239 . S
C163 C162 1.498 . S
C163 C164 1.366 . S
C163 C168 1.407 . S
C164 C163 1.366 . S
C164 C165 1.392 . S
C164 H192 0.930 . S
C165 C164 1.392 . S
C165 C166 1.398 . S
C165 H193 0.929 . S
C166 C165 1.398 . S
C166 C167 1.352 . S
C167 C166 1.352 . S
C167 C168 1.384 . S
C167 H194 0.930 . S
C168 C163 1.407 . S
C168 C167 1.384 . S
C168 H195 0.929 . S
C169 O182 1.241 . S
C169 O183 1.273 . S
C170 O184 1.251 . S
C170 O185 1.268 . S
C171 Nd161 2.836 . S
C171 C172 1.498 . S
C171 O186 1.258 . S
C171 O187 1.239 . S
C172 C171 1.498 . S
C172 C173 1.366 . S
C172 C177 1.407 . S
C173 C172 1.366 . S
C173 C174 1.392 . S
C173 H196 0.930 . S
C174 C173 1.392 . S
C174 C175 1.398 . S
C174 H197 0.929 . S
C175 C174 1.398 . S
C175 C176 1.352 . S
C176 C175 1.352 . S
C176 C177 1.384 . S
C176 H198 0.930 . S
C177 C172 1.407 . S
C177 C176 1.384 . S
C177 H199 0.929 . S
C178 O188 1.241 . S
C178 O189 1.273 . S
C179 O190 1.251 . S
C179 O191 1.268 . S
O180 Nd160 2.500 1_545 S
O180 C162 1.258 . S
O181 Nd160 2.492 1_545 S
O181 C162 1.239 . S
O182 Nd160 2.487 . S
O182 C169 1.241 . S
O183 Nd160 2.682 . S
O183 Nd161 2.414 . S
O183 C169 1.273 . S
O184 Nd160 2.410 . S
O184 C170 1.251 . S
O185 Nd161 2.424 . S
O185 C170 1.268 . S
O186 Nd161 2.500 . S
O186 C171 1.258 . S
O187 Nd161 2.492 . S
O187 C171 1.239 . S
O188 Nd161 2.487 . S
O188 C178 1.241 . S
O189 Nd160 2.414 . S
O189 Nd161 2.682 . S
O189 C178 1.273 . S
O190 Nd161 2.410 . S
O190 C179 1.251 . S
O191 Nd160 2.424 . S
O191 C179 1.268 . S
H192 C164 0.930 . S
H193 C165 0.929 . S
H194 C167 0.930 . S
H195 C168 0.929 . S
H196 C173 0.930 . S
H197 C174 0.929 . S
H198 C176 0.930 . S
H199 C177 0.929 . S
Nd200 C202 2.836 1_455 S
Nd200 O220 2.500 1_455 S
Nd200 O221 2.492 1_455 S
Nd200 O222 2.487 . S
Nd200 O223 2.682 . S
Nd200 O224 2.410 . S
Nd200 O229 2.414 . S
Nd200 O231 2.424 . S
Nd201 C211 2.836 . S
Nd201 O223 2.414 . S
Nd201 O225 2.424 . S
Nd201 O226 2.500 . S
Nd201 O227 2.492 . S
Nd201 O228 2.487 . S
Nd201 O229 2.682 . S
Nd201 O230 2.410 . S
C202 Nd200 2.836 1_655 S
C202 C203 1.498 . S
C202 O220 1.258 . S
C202 O221 1.239 . S
C203 C202 1.498 . S
C203 C204 1.366 . S
C203 C208 1.407 . S
C204 C203 1.366 . S
C204 C205 1.392 . S
C204 H232 0.930 . S
C205 C204 1.392 . S
C205 C206 1.398 . S
C205 H233 0.929 . S
C206 C205 1.398 . S
C206 C207 1.352 . S
C207 C206 1.352 . S
C207 C208 1.384 . S
C207 H234 0.930 . S
C208 C203 1.407 . S
C208 C207 1.384 . S
C208 H235 0.929 . S
C209 O222 1.241 . S
C209 O223 1.273 . S
C210 O224 1.251 . S
C210 O225 1.268 . S
C211 Nd201 2.836 . S
C211 C212 1.498 . S
C211 O226 1.258 . S
C211 O227 1.239 . S
C212 C211 1.498 . S
C212 C213 1.366 . S
C212 C217 1.407 . S
C213 C212 1.366 . S
C213 C214 1.392 . S
C213 H236 0.930 . S
C214 C213 1.392 . S
C214 C215 1.398 . S
C214 H237 0.929 . S
C215 C214 1.398 . S
C215 C216 1.352 . S
C216 C215 1.352 . S
C216 C217 1.384 . S
C216 H238 0.930 . S
C217 C212 1.407 . S
C217 C216 1.384 . S
C217 H239 0.929 . S
C218 O228 1.241 . S
C218 O229 1.273 . S
C219 O230 1.251 . S
C219 O231 1.268 . S
O220 Nd200 2.500 1_655 S
O220 C202 1.258 . S
O221 Nd200 2.492 1_655 S
O221 C202 1.239 . S
O222 Nd200 2.487 . S
O222 C209 1.241 . S
O223 Nd200 2.682 . S
O223 Nd201 2.414 . S
O223 C209 1.273 . S
O224 Nd200 2.410 . S
O224 C210 1.251 . S
O225 Nd201 2.424 . S
O225 C210 1.268 . S
O226 Nd201 2.500 . S
O226 C211 1.258 . S
O227 Nd201 2.492 . S
O227 C211 1.239 . S
O228 Nd201 2.487 . S
O228 C218 1.241 . S
O229 Nd200 2.414 . S
O229 Nd201 2.682 . S
O229 C218 1.273 . S
O230 Nd201 2.410 . S
O230 C219 1.251 . S
O231 Nd200 2.424 . S
O231 C219 1.268 . S
H232 C204 0.930 . S
H233 C205 0.929 . S
H234 C207 0.930 . S
H235 C208 0.929 . S
H236 C213 0.930 . S
H237 C214 0.929 . S
H238 C216 0.930 . S
H239 C217 0.929 . S
Nd240 C242 2.836 . S
Nd240 O260 2.500 . S
Nd240 O261 2.492 . S
Nd240 O262 2.487 . S
Nd240 O263 2.682 . S
Nd240 O264 2.410 . S
Nd240 O269 2.414 . S
Nd240 O271 2.424 . S
Nd241 C251 2.836 . S
Nd241 O263 2.414 . S
Nd241 O265 2.424 . S
Nd241 O266 2.500 . S
Nd241 O267 2.492 . S
Nd241 O268 2.487 . S
Nd241 O269 2.682 . S
Nd241 O270 2.410 . S
C242 Nd240 2.836 . S
C242 C243 1.498 . S
C242 O260 1.258 . S
C242 O261 1.239 . S
C243 C242 1.498 . S
C243 C244 1.366 . S
C243 C248 1.407 . S
C244 C243 1.366 . S
C244 C245 1.392 . S
C244 H272 0.930 . S
C245 C244 1.392 . S
C245 C246 1.398 . S
C245 H273 0.929 . S
C246 C245 1.398 . S
C246 C247 1.352 . S
C247 C246 1.352 . S
C247 C248 1.384 . S
C247 H274 0.930 . S
C248 C243 1.407 . S
C248 C247 1.384 . S
C248 H275 0.929 . S
C249 O262 1.241 . S
C249 O263 1.273 . S
C250 O264 1.251 . S
C250 O265 1.268 . S
C251 Nd241 2.836 . S
C251 C252 1.498 . S
C251 O266 1.258 . S
C251 O267 1.239 . S
C252 C251 1.498 . S
C252 C253 1.366 . S
C252 C257 1.407 . S
C253 C252 1.366 . S
C253 C254 1.392 . S
C253 H276 0.930 . S
C254 C253 1.392 . S
C254 C255 1.398 . S
C254 H277 0.929 . S
C255 C254 1.398 . S
C255 C256 1.352 . S
C256 C255 1.352 . S
C256 C257 1.384 . S
C256 H278 0.930 . S
C257 C252 1.407 . S
C257 C256 1.384 . S
C257 H279 0.929 . S
C258 O268 1.241 . S
C258 O269 1.273 . S
C259 O270 1.251 . S
C259 O271 1.268 . S
O260 Nd240 2.500 . S
O260 C242 1.258 . S
O261 Nd240 2.492 . S
O261 C242 1.239 . S
O262 Nd240 2.487 . S
O262 C249 1.241 . S
O263 Nd240 2.682 . S
O263 Nd241 2.414 . S
O263 C249 1.273 . S
O264 Nd240 2.410 . S
O264 C250 1.251 . S
O265 Nd241 2.424 . S
O265 C250 1.268 . S
O266 Nd241 2.500 . S
O266 C251 1.258 . S
O267 Nd241 2.492 . S
O267 C251 1.239 . S
O268 Nd241 2.487 . S
O268 C258 1.241 . S
O269 Nd240 2.414 . S
O269 Nd241 2.682 . S
O269 C258 1.273 . S
O270 Nd241 2.410 . S
O270 C259 1.251 . S
O271 Nd240 2.424 . S
O271 C259 1.268 . S
H272 C244 0.930 . S
H273 C245 0.929 . S
H274 C247 0.930 . S
H275 C248 0.929 . S
H276 C253 0.930 . S
H277 C254 0.929 . S
H278 C256 0.930 . S
H279 C257 0.929 . S
Nd280 C282 2.836 . S
Nd280 O300 2.500 . S
Nd280 O301 2.492 . S
Nd280 O302 2.487 . S
Nd280 O303 2.682 . S
Nd280 O304 2.410 . S
Nd280 O309 2.414 . S
Nd280 O311 2.424 . S
Nd281 C291 2.836 . S
Nd281 O303 2.414 . S
Nd281 O305 2.424 . S
Nd281 O306 2.500 . S
Nd281 O307 2.492 . S
Nd281 O308 2.487 . S
Nd281 O309 2.682 . S
Nd281 O310 2.410 . S
C282 Nd280 2.836 . S
C282 C283 1.498 . S
C282 O300 1.258 . S
C282 O301 1.239 . S
C283 C282 1.498 . S
C283 C284 1.366 . S
C283 C288 1.407 . S
C284 C283 1.366 . S
C284 C285 1.392 . S
C284 H312 0.930 . S
C285 C284 1.392 . S
C285 C286 1.398 . S
C285 H313 0.929 . S
C286 C285 1.398 . S
C286 C287 1.352 . S
C287 C286 1.352 . S
C287 C288 1.384 . S
C287 H314 0.930 . S
C288 C283 1.407 . S
C288 C287 1.384 . S
C288 H315 0.929 . S
C289 O302 1.241 . S
C289 O303 1.273 . S
C290 O304 1.251 . S
C290 O305 1.268 . S
C291 Nd281 2.836 . S
C291 C292 1.498 . S
C291 O306 1.258 . S
C291 O307 1.239 . S
C292 C291 1.498 . S
C292 C293 1.366 . S
C292 C297 1.407 . S
C293 C292 1.366 . S
C293 C294 1.392 1_545 S
C293 H316 0.930 . S
C294 C293 1.392 1_565 S
C294 C295 1.398 . S
C294 H317 0.929 . S
C295 C294 1.398 . S
C295 C296 1.352 . S
C296 C295 1.352 . S
C296 C297 1.384 1_565 S
C296 H318 0.930 . S
C297 C292 1.407 . S
C297 C296 1.384 1_545 S
C297 H319 0.929 . S
C298 O308 1.241 . S
C298 O309 1.273 . S
C299 O310 1.251 . S
C299 O311 1.268 . S
O300 Nd280 2.500 . S
O300 C282 1.258 . S
O301 Nd280 2.492 . S
O301 C282 1.239 . S
O302 Nd280 2.487 . S
O302 C289 1.241 . S
O303 Nd280 2.682 . S
O303 Nd281 2.414 . S
O303 C289 1.273 . S
O304 Nd280 2.410 . S
O304 C290 1.251 . S
O305 Nd281 2.424 . S
O305 C290 1.268 . S
O306 Nd281 2.500 . S
O306 C291 1.258 . S
O307 Nd281 2.492 . S
O307 C291 1.239 . S
O308 Nd281 2.487 . S
O308 C298 1.241 . S
O309 Nd280 2.414 . S
O309 Nd281 2.682 . S
O309 C298 1.273 . S
O310 Nd281 2.410 . S
O310 C299 1.251 . S
O311 Nd280 2.424 . S
O311 C299 1.268 . S
H312 C284 0.930 . S
H313 C285 0.929 . S
H314 C287 0.930 . S
H315 C288 0.929 . S
H316 C293 0.930 . S
H317 C294 0.929 . S
H318 C296 0.930 . S
H319 C297 0.929 . S
Nd320 C322 2.836 . S
Nd320 O340 2.500 . S
Nd320 O341 2.492 . S
Nd320 O342 2.487 . S
Nd320 O343 2.682 . S
Nd320 O344 2.410 . S
Nd320 O349 2.414 . S
Nd320 O351 2.424 . S
Nd321 C331 2.836 . S
Nd321 O343 2.414 . S
Nd321 O345 2.424 . S
Nd321 O346 2.500 . S
Nd321 O347 2.492 . S
Nd321 O348 2.487 . S
Nd321 O349 2.682 . S
Nd321 O350 2.410 . S
C322 Nd320 2.836 . S
C322 C323 1.498 . S
C322 O340 1.258 . S
C322 O341 1.239 . S
C323 C322 1.498 . S
C323 C324 1.366 . S
C323 C328 1.407 . S
C324 C323 1.366 . S
C324 C325 1.392 . S
C324 H352 0.930 . S
C325 C324 1.392 . S
C325 C326 1.398 . S
C325 H353 0.929 . S
C326 C325 1.398 . S
C326 C327 1.352 . S
C327 C326 1.352 . S
C327 C328 1.384 . S
C327 H354 0.930 . S
C328 C323 1.407 . S
C328 C327 1.384 . S
C328 H355 0.929 . S
C329 O342 1.241 . S
C329 O343 1.273 . S
C330 O344 1.251 . S
C330 O345 1.268 . S
C331 Nd321 2.836 . S
C331 C332 1.498 . S
C331 O346 1.258 . S
C331 O347 1.239 . S
C332 C331 1.498 . S
C332 C333 1.366 . S
C332 C337 1.407 . S
C333 C332 1.366 . S
C333 C334 1.392 1_655 S
C333 H356 0.930 . S
C334 C333 1.392 1_455 S
C334 C335 1.398 . S
C334 H357 0.929 . S
C335 C334 1.398 . S
C335 C336 1.352 . S
C336 C335 1.352 . S
C336 C337 1.384 1_455 S
C336 H358 0.930 . S
C337 C332 1.407 . S
C337 C336 1.384 1_655 S
C337 H359 0.929 . S
C338 O348 1.241 . S
C338 O349 1.273 . S
C339 O350 1.251 . S
C339 O351 1.268 . S
O340 Nd320 2.500 . S
O340 C322 1.258 . S
O341 Nd320 2.492 . S
O341 C322 1.239 . S
O342 Nd320 2.487 . S
O342 C329 1.241 . S
O343 Nd320 2.682 . S
O343 Nd321 2.414 . S
O343 C329 1.273 . S
O344 Nd320 2.410 . S
O344 C330 1.251 . S
O345 Nd321 2.424 . S
O345 C330 1.268 . S
O346 Nd321 2.500 . S
O346 C331 1.258 . S
O347 Nd321 2.492 . S
O347 C331 1.239 . S
O348 Nd321 2.487 . S
O348 C338 1.241 . S
O349 Nd320 2.414 . S
O349 Nd321 2.682 . S
O349 C338 1.273 . S
O350 Nd321 2.410 . S
O350 C339 1.251 . S
O351 Nd320 2.424 . S
O351 C339 1.268 . S
H352 C324 0.930 . S
H353 C325 0.929 . S
H354 C327 0.930 . S
H355 C328 0.929 . S
H356 C333 0.930 . S
H357 C334 0.929 . S
H358 C336 0.930 . S
H359 C337 0.929 . S
C360 C361 1.363 . S
C360 C366 1.379 . S
C360 N368 1.356 . S
C361 C360 1.363 . S
C361 C367 1.363 1_556 S
C362 C363 1.363 1_554 S
C362 C367 1.379 . S
C362 N369 1.356 . S
C363 C362 1.363 1_556 S
C363 C366 1.363 . S
N364 C366 1.356 . S
N364 H376 0.984 . S
N364 H377 0.985 . S
N365 C367 1.356 . S
N365 H370 0.984 . S
N365 H371 0.985 . S
C366 C360 1.379 . S
C366 C363 1.363 . S
C366 N364 1.356 . S
C367 C361 1.363 1_554 S
C367 C362 1.379 . S
C367 N365 1.356 . S
N368 C360 1.356 . S
N368 H374 0.984 . S
N368 H375 0.984 . S
N369 C362 1.356 . S
N369 H372 0.984 . S
N369 H373 0.985 . S
H370 N365 0.984 . S
H371 N365 0.985 . S
H372 N369 0.984 . S
H373 N369 0.985 . S
H374 N368 0.984 . S
H375 N368 0.984 . S
H376 N364 0.984 . S
H377 N364 0.985 . S
C378 C379 1.363 . S
C378 C384 1.379 . S
C378 N386 1.356 . S
C379 C378 1.363 . S
C379 C385 1.363 1_556 S
C380 C381 1.363 1_554 S
C380 C385 1.379 . S
C380 N387 1.356 . S
C381 C380 1.363 1_556 S
C381 C384 1.363 . S
N382 C384 1.356 . S
N382 H394 0.984 . S
N382 H395 0.985 . S
N383 C385 1.356 . S
N383 H388 0.984 . S
N383 H389 0.985 . S
C384 C378 1.379 . S
C384 C381 1.363 . S
C384 N382 1.356 . S
C385 C379 1.363 1_554 S
C385 C380 1.379 . S
C385 N383 1.356 . S
N386 C378 1.356 . S
N386 H392 0.984 . S
N386 H393 0.984 . S
N387 C380 1.356 . S
N387 H390 0.984 . S
N387 H391 0.985 . S
H388 N383 0.984 . S
H389 N383 0.985 . S
H390 N387 0.984 . S
H391 N387 0.985 . S
H392 N386 0.984 . S
H393 N386 0.984 . S
H394 N382 0.984 . S
H395 N382 0.985 . S
C396 C397 1.363 1_554 S
C396 C402 1.379 . S
C396 N404 1.356 . S
C397 C396 1.363 1_556 S
C397 C403 1.363 . S
C398 C399 1.363 . S
C398 C403 1.379 . S
C398 N405 1.356 . S
C399 C398 1.363 . S
C399 C402 1.363 1_556 S
N400 C402 1.356 . S
N400 H412 0.984 . S
N400 H413 0.985 . S
N401 C403 1.356 . S
N401 H406 0.984 . S
N401 H407 0.985 . S
C402 C396 1.379 . S
C402 C399 1.363 1_554 S
C402 N400 1.356 . S
C403 C397 1.363 . S
C403 C398 1.379 . S
C403 N401 1.356 . S
N404 C396 1.356 . S
N404 H410 0.984 . S
N404 H411 0.984 . S
N405 C398 1.356 . S
N405 H408 0.984 . S
N405 H409 0.985 . S
H406 N401 0.984 . S
H407 N401 0.985 . S
H408 N405 0.984 . S
H409 N405 0.985 . S
H410 N404 0.984 . S
H411 N404 0.984 . S
H412 N400 0.984 . S
H413 N400 0.985 . S
C414 C415 1.363 1_556 S
C414 C420 1.379 . S
C414 N422 1.356 . S
C415 C414 1.363 1_554 S
C415 C421 1.363 . S
C416 C417 1.363 . S
C416 C421 1.379 . S
C416 N423 1.356 . S
C417 C416 1.363 . S
C417 C420 1.363 1_554 S
N418 C420 1.356 . S
N418 H430 0.984 . S
N418 H431 0.985 . S
N419 C421 1.356 . S
N419 H424 0.984 . S
N419 H425 0.985 . S
C420 C414 1.379 . S
C420 C417 1.363 1_556 S
C420 N418 1.356 . S
C421 C415 1.363 . S
C421 C416 1.379 . S
C421 N419 1.356 . S
N422 C414 1.356 . S
N422 H428 0.984 . S
N422 H429 0.984 . S
N423 C416 1.356 . S
N423 H426 0.984 . S
N423 H427 0.985 . S
H424 N419 0.984 . S
H425 N419 0.985 . S
H426 N423 0.984 . S
H427 N423 0.985 . S
H428 N422 0.984 . S
H429 N422 0.984 . S
H430 N418 0.984 . S
H431 N418 0.985 . S
C432 C433 1.363 . S
C432 C438 1.379 . S
C432 N440 1.356 . S
C433 C432 1.363 . S
C433 C439 1.363 1_554 S
C434 C435 1.363 1_556 S
C434 C439 1.379 . S
C434 N441 1.356 . S
C435 C434 1.363 1_554 S
C435 C438 1.363 . S
N436 C438 1.356 . S
N436 H448 0.984 . S
N436 H449 0.985 . S
N437 C439 1.356 . S
N437 H442 0.984 . S
N437 H443 0.985 . S
C438 C432 1.379 . S
C438 C435 1.363 . S
C438 N436 1.356 . S
C439 C433 1.363 1_556 S
C439 C434 1.379 . S
C439 N437 1.356 . S
N440 C432 1.356 . S
N440 H446 0.984 . S
N440 H447 0.984 . S
N441 C434 1.356 . S
N441 H444 0.984 . S
N441 H445 0.985 . S
H442 N437 0.984 . S
H443 N437 0.985 . S
H444 N441 0.984 . S
H445 N441 0.985 . S
H446 N440 0.984 . S
H447 N440 0.984 . S
H448 N436 0.984 . S
H449 N436 0.985 . S
C450 C451 1.363 1_556 S
C450 C456 1.379 . S
C450 N458 1.356 . S
C451 C450 1.363 1_554 S
C451 C457 1.363 . S
C452 C453 1.363 . S
C452 C457 1.379 . S
C452 N459 1.356 . S
C453 C452 1.363 . S
C453 C456 1.363 1_554 S
N454 C456 1.356 . S
N454 H466 0.984 . S
N454 H467 0.985 . S
N455 C457 1.356 . S
N455 H460 0.984 . S
N455 H461 0.985 . S
C456 C450 1.379 . S
C456 C453 1.363 1_556 S
C456 N454 1.356 . S
C457 C451 1.363 . S
C457 C452 1.379 . S
C457 N455 1.356 . S
N458 C450 1.356 . S
N458 H464 0.984 . S
N458 H465 0.984 . S
N459 C452 1.356 . S
N459 H462 0.984 . S
N459 H463 0.985 . S
H460 N455 0.984 . S
H461 N455 0.985 . S
H462 N459 0.984 . S
H463 N459 0.985 . S
H464 N458 0.984 . S
H465 N458 0.984 . S
H466 N454 0.984 . S
H467 N454 0.985 . S
C468 C469 1.363 1_455 S
C468 C474 1.379 . S
C468 N476 1.356 1_455 S
C469 C468 1.363 1_655 S
C469 C475 1.363 1_655 S
C470 C471 1.363 . S
C470 C475 1.379 . S
C470 N477 1.356 . S
C471 C470 1.363 . S
C471 C474 1.363 . S
N472 C474 1.356 . S
N472 H484 0.984 . S
N472 H485 0.985 . S
N473 C475 1.356 1_655 S
N473 H478 0.984 . S
N473 H479 0.985 . S
C474 C468 1.379 . S
C474 C471 1.363 . S
C474 N472 1.356 . S
C475 C469 1.363 1_455 S
C475 C470 1.379 . S
C475 N473 1.356 1_455 S
N476 C468 1.356 1_655 S
N476 H482 0.984 1_655 S
N476 H483 0.984 . S
N477 C470 1.356 . S
N477 H480 0.984 . S
N477 H481 0.985 . S
H478 N473 0.984 . S
H479 N473 0.985 . S
H480 N477 0.984 . S
H481 N477 0.985 . S
H482 N476 0.984 1_455 S
H483 N476 0.984 . S
H484 N472 0.984 . S
H485 N472 0.985 . S
C486 C487 1.363 . S
C486 C492 1.379 . S
C486 N494 1.356 . S
C487 C486 1.363 . S
C487 C493 1.363 . S
C488 C489 1.363 . S
C488 C493 1.379 . S
C488 N495 1.356 . S
C489 C488 1.363 . S
C489 C492 1.363 . S
N490 C492 1.356 . S
N490 H502 0.984 . S
N490 H503 0.985 . S
N491 C493 1.356 . S
N491 H496 0.984 . S
N491 H497 0.985 . S
C492 C486 1.379 . S
C492 C489 1.363 . S
C492 N490 1.356 . S
C493 C487 1.363 . S
C493 C488 1.379 . S
C493 N491 1.356 . S
N494 C486 1.356 . S
N494 H500 0.984 . S
N494 H501 0.984 . S
N495 C488 1.356 . S
N495 H498 0.984 . S
N495 H499 0.985 . S
H496 N491 0.984 . S
H497 N491 0.985 . S
H498 N495 0.984 . S
H499 N495 0.985 . S
H500 N494 0.984 . S
H501 N494 0.984 . S
H502 N490 0.984 . S
H503 N490 0.985 . S
C504 C505 1.363 1_565 S
C504 C510 1.379 . S
C504 N512 1.356 1_565 S
C505 C504 1.363 1_545 S
C505 C511 1.363 1_545 S
C506 C507 1.363 . S
C506 C511 1.379 . S
C506 N513 1.356 . S
C507 C506 1.363 . S
C507 C510 1.363 . S
N508 C510 1.356 . S
N508 H520 0.984 . S
N508 H521 0.985 . S
N509 C511 1.356 1_545 S
N509 H514 0.984 . S
N509 H515 0.985 . S
C510 C504 1.379 . S
C510 C507 1.363 . S
C510 N508 1.356 . S
C511 C505 1.363 1_565 S
C511 C506 1.379 . S
C511 N509 1.356 1_565 S
N512 C504 1.356 1_545 S
N512 H518 0.984 . S
N512 H519 0.984 . S
N513 C506 1.356 . S
N513 H516 0.984 . S
N513 H517 0.985 . S
H514 N509 0.984 . S
H515 N509 0.985 . S
H516 N513 0.984 . S
H517 N513 0.985 . S
H518 N512 0.984 . S
H519 N512 0.984 . S
H520 N508 0.984 . S
H521 N508 0.985 . S
C522 C523 1.363 . S
C522 C528 1.379 . S
C522 N530 1.356 . S
C523 C522 1.363 . S
C523 C529 1.363 . S
C524 C525 1.363 . S
C524 C529 1.379 . S
C524 N531 1.356 . S
C525 C524 1.363 . S
C525 C528 1.363 . S
N526 C528 1.356 . S
N526 H538 0.984 . S
N526 H539 0.985 . S
N527 C529 1.356 . S
N527 H532 0.984 . S
N527 H533 0.985 . S
C528 C522 1.379 . S
C528 C525 1.363 . S
C528 N526 1.356 . S
C529 C523 1.363 . S
C529 C524 1.379 . S
C529 N527 1.356 . S
N530 C522 1.356 . S
N530 H536 0.984 . S
N530 H537 0.984 . S
N531 C524 1.356 . S
N531 H534 0.984 . S
N531 H535 0.985 . S
H532 N527 0.984 . S
H533 N527 0.985 . S
H534 N531 0.984 . S
H535 N531 0.985 . S
H536 N530 0.984 . S
H537 N530 0.984 . S
H538 N526 0.984 . S
H539 N526 0.985 . S
C540 C541 1.363 . S
C540 C546 1.379 . S
C540 N548 1.356 . S
C541 C540 1.363 . S
C541 C547 1.363 . S
C542 C543 1.363 . S
C542 C547 1.379 . S
C542 N549 1.356 . S
C543 C542 1.363 . S
C543 C546 1.363 . S
N544 C546 1.356 . S
N544 H556 0.984 . S
N544 H557 0.985 . S
N545 C547 1.356 . S
N545 H550 0.984 . S
N545 H551 0.985 . S
C546 C540 1.379 . S
C546 C543 1.363 . S
C546 N544 1.356 . S
C547 C541 1.363 . S
C547 C542 1.379 . S
C547 N545 1.356 . S
N548 C540 1.356 . S
N548 H554 0.984 . S
N548 H555 0.984 . S
N549 C542 1.356 . S
N549 H552 0.984 . S
N549 H553 0.985 . S
H550 N545 0.984 . S
H551 N545 0.985 . S
H552 N549 0.984 . S
H553 N549 0.985 . S
H554 N548 0.984 . S
H555 N548 0.984 . S
H556 N544 0.984 . S
H557 N544 0.985 . S
C558 C559 1.363 . S
C558 C564 1.379 . S
C558 N566 1.356 . S
C559 C558 1.363 . S
C559 C565 1.363 . S
C560 C561 1.363 . S
C560 C565 1.379 . S
C560 N567 1.356 . S
C561 C560 1.363 . S
C561 C564 1.363 . S
N562 C564 1.356 . S
N562 H574 0.984 . S
N562 H575 0.985 . S
N563 C565 1.356 . S
N563 H568 0.984 . S
N563 H569 0.985 . S
C564 C558 1.379 . S
C564 C561 1.363 . S
C564 N562 1.356 . S
C565 C559 1.363 . S
C565 C560 1.379 . S
C565 N563 1.356 . S
N566 C558 1.356 . S
N566 H572 0.984 . S
N566 H573 0.984 . S
N567 C560 1.356 . S
N567 H570 0.984 . S
N567 H571 0.985 . S
H568 N563 0.984 . S
H569 N563 0.985 . S
H570 N567 0.984 . S
H571 N567 0.985 . S
H572 N566 0.984 . S
H573 N566 0.984 . S
H574 N562 0.984 . S
H575 N562 0.985 . S
C576 C577 1.363 . S
C576 C582 1.379 . S
C576 N584 1.356 . S
C577 C576 1.363 . S
C577 C583 1.363 . S
C578 C579 1.363 . S
C578 C583 1.379 . S
C578 N585 1.356 . S
C579 C578 1.363 . S
C579 C582 1.363 . S
N580 C582 1.356 . S
N580 H592 0.984 . S
N580 H593 0.985 . S
N581 C583 1.356 . S
N581 H586 0.984 . S
N581 H587 0.985 . S
C582 C576 1.379 . S
C582 C579 1.363 . S
C582 N580 1.356 . S
C583 C577 1.363 . S
C583 C578 1.379 . S
C583 N581 1.356 . S
N584 C576 1.356 . S
N584 H590 0.984 . S
N584 H591 0.984 . S
N585 C578 1.356 . S
N585 H588 0.984 . S
N585 H589 0.985 . S
H586 N581 0.984 . S
H587 N581 0.985 . S
H588 N585 0.984 . S
H589 N585 0.985 . S
H590 N584 0.984 . S
H591 N584 0.984 . S
H592 N580 0.984 . S
H593 N580 0.985 . S
C594 C595 1.363 . S
C594 C600 1.379 . S
C594 N602 1.356 . S
C595 C594 1.363 . S
C595 C601 1.363 . S
C596 C597 1.363 . S
C596 C601 1.379 . S
C596 N603 1.356 . S
C597 C596 1.363 . S
C597 C600 1.363 . S
N598 C600 1.356 . S
N598 H610 0.984 . S
N598 H611 0.985 . S
N599 C601 1.356 . S
N599 H604 0.984 . S
N599 H605 0.985 . S
C600 C594 1.379 . S
C600 C597 1.363 . S
C600 N598 1.356 . S
C601 C595 1.363 . S
C601 C596 1.379 . S
C601 N599 1.356 . S
N602 C594 1.356 . S
N602 H608 0.984 . S
N602 H609 0.984 . S
N603 C596 1.356 . S
N603 H606 0.984 . S
N603 H607 0.985 . S
H604 N599 0.984 . S
H605 N599 0.985 . S
H606 N603 0.984 . S
H607 N603 0.985 . S
H608 N602 0.984 . S
H609 N602 0.984 . S
H610 N598 0.984 . S
H611 N598 0.985 . S
C612 C613 1.363 . S
C612 C618 1.379 . S
C612 N620 1.356 . S
C613 C612 1.363 . S
C613 C619 1.363 . S
C614 C615 1.363 . S
C614 C619 1.379 . S
C614 N621 1.356 . S
C615 C614 1.363 . S
C615 C618 1.363 . S
N616 C618 1.356 . S
N616 H628 0.984 . S
N616 H629 0.985 . S
N617 C619 1.356 . S
N617 H622 0.984 . S
N617 H623 0.985 . S
C618 C612 1.379 . S
C618 C615 1.363 . S
C618 N616 1.356 . S
C619 C613 1.363 . S
C619 C614 1.379 . S
C619 N617 1.356 . S
N620 C612 1.356 . S
N620 H626 0.984 . S
N620 H627 0.984 . S
N621 C614 1.356 . S
N621 H624 0.984 . S
N621 H625 0.985 . S
H622 N617 0.984 . S
H623 N617 0.985 . S
H624 N621 0.984 . S
H625 N621 0.985 . S
H626 N620 0.984 . S
H627 N620 0.984 . S
H628 N616 0.984 . S
H629 N616 0.985 . S
C630 C631 1.363 . S
C630 C636 1.379 . S
C630 N638 1.356 . S
C631 C630 1.363 . S
C631 C637 1.363 . S
C632 C633 1.363 . S
C632 C637 1.379 . S
C632 N639 1.356 . S
C633 C632 1.363 . S
C633 C636 1.363 . S
N634 C636 1.356 . S
N634 H646 0.984 . S
N634 H647 0.985 . S
N635 C637 1.356 . S
N635 H640 0.984 . S
N635 H641 0.985 . S
C636 C630 1.379 . S
C636 C633 1.363 . S
C636 N634 1.356 . S
C637 C631 1.363 . S
C637 C632 1.379 . S
C637 N635 1.356 . S
N638 C630 1.356 . S
N638 H644 0.984 . S
N638 H645 0.984 . S
N639 C632 1.356 . S
N639 H642 0.984 . S
N639 H643 0.985 . S
H640 N635 0.984 . S
H641 N635 0.985 . S
H642 N639 0.984 . S
H643 N639 0.985 . S
H644 N638 0.984 . S
H645 N638 0.984 . S
H646 N634 0.984 . S
H647 N634 0.985 . S
C648 C649 1.363 . S
C648 C654 1.379 . S
C648 N656 1.356 . S
C649 C648 1.363 . S
C649 C655 1.363 1_565 S
C650 C651 1.363 . S
C650 C655 1.379 . S
C650 N657 1.356 . S
C651 C650 1.363 . S
C651 C654 1.363 1_545 S
N652 C654 1.356 . S
N652 H664 0.984 . S
N652 H665 0.985 . S
N653 C655 1.356 . S
N653 H658 0.984 . S
N653 H659 0.985 . S
C654 C648 1.379 . S
C654 C651 1.363 1_565 S
C654 N652 1.356 . S
C655 C649 1.363 1_545 S
C655 C650 1.379 . S
C655 N653 1.356 . S
N656 C648 1.356 . S
N656 H662 0.984 . S
N656 H663 0.984 . S
N657 C650 1.356 . S
N657 H660 0.984 . S
N657 H661 0.985 . S
H658 N653 0.984 . S
H659 N653 0.985 . S
H660 N657 0.984 . S
H661 N657 0.985 . S
H662 N656 0.984 . S
H663 N656 0.984 . S
H664 N652 0.984 . S
H665 N652 0.985 . S
C666 C667 1.363 1_655 S
C666 C672 1.379 . S
C666 N674 1.356 . S
C667 C666 1.363 1_455 S
C667 C673 1.363 . S
C668 C669 1.377 . S
C668 C673 1.379 . S
C668 N675 1.356 . S
C669 C668 1.377 . S
C669 C672 1.362 1_455 S
N670 C672 1.356 . S
N670 H682 0.984 . S
N670 H683 0.985 . S
N671 C673 1.356 . S
N671 H676 0.984 . S
N671 H677 0.985 . S
C672 C666 1.379 . S
C672 C669 1.362 1_655 S
C672 N670 1.356 . S
C673 C667 1.363 . S
C673 C668 1.379 . S
C673 N671 1.356 . S
N674 C666 1.356 . S
N674 H680 0.984 . S
N674 H681 0.984 1_655 S
N675 C668 1.356 . S
N675 H678 0.984 . S
N675 H679 0.985 . S
H676 N671 0.984 . S
H677 N671 0.985 . S
H678 N675 0.984 . S
H679 N675 0.985 . S
H680 N674 0.984 . S
H681 N674 0.984 1_455 S
H682 N670 0.984 . S
H683 N670 0.985 . S
C684 C685 1.363 . S
C684 C690 1.379 . S
C684 N692 1.356 . S
C685 C684 1.363 . S
C685 C691 1.363 . S
C686 C687 1.363 . S
C686 C691 1.379 . S
C686 N693 1.356 . S
C687 C686 1.363 . S
C687 C690 1.363 . S
N688 C690 1.356 . S
N688 H700 0.984 . S
N688 H701 0.985 . S
N689 C691 1.356 . S
N689 H694 0.984 . S
N689 H695 0.985 . S
C690 C684 1.379 . S
C690 C687 1.363 . S
C690 N688 1.356 . S
C691 C685 1.363 . S
C691 C686 1.379 . S
C691 N689 1.356 . S
N692 C684 1.356 . S
N692 H698 0.984 . S
N692 H699 0.984 . S
N693 C686 1.356 . S
N693 H696 0.984 . S
N693 H697 0.985 . S
H694 N689 0.984 . S
H695 N689 0.985 . S
H696 N693 0.984 . S
H697 N693 0.985 . S
H698 N692 0.984 . S
H699 N692 0.984 . S
H700 N688 0.984 . S
H701 N688 0.985 . S
C702 C703 1.363 . S
C702 C708 1.379 . S
C702 N710 1.356 . S
C703 C702 1.363 . S
C703 C709 1.363 . S
C704 C705 1.363 . S
C704 C709 1.379 . S
C704 N711 1.356 . S
C705 C704 1.363 . S
C705 C708 1.363 . S
N706 C708 1.356 . S
N706 H718 0.984 . S
N706 H719 0.985 . S
N707 C709 1.356 . S
N707 H712 0.984 . S
N707 H713 0.985 . S
C708 C702 1.379 . S
C708 C705 1.363 . S
C708 N706 1.356 . S
C709 C703 1.363 . S
C709 C704 1.379 . S
C709 N707 1.356 . S
N710 C702 1.356 . S
N710 H716 0.984 . S
N710 H717 0.984 . S
N711 C704 1.356 . S
N711 H714 0.984 . S
N711 H715 0.985 . S
H712 N707 0.984 . S
H713 N707 0.985 . S
H714 N711 0.984 . S
H715 N711 0.985 . S
H716 N710 0.984 . S
H717 N710 0.984 . S
H718 N706 0.984 . S
H719 N706 0.985 . S
C720 C721 1.363 . S
C720 C726 1.379 . S
C720 N728 1.356 . S
C721 C720 1.363 . S
C721 C727 1.363 . S
C722 C723 1.363 . S
C722 C727 1.379 . S
C722 N729 1.356 . S
C723 C722 1.363 . S
C723 C726 1.363 . S
N724 C726 1.356 . S
N724 H736 0.984 . S
N724 H737 0.985 . S
N725 C727 1.356 . S
N725 H730 0.984 . S
N725 H731 0.985 . S
C726 C720 1.379 . S
C726 C723 1.363 . S
C726 N724 1.356 . S
C727 C721 1.363 . S
C727 C722 1.379 . S
C727 N725 1.356 . S
N728 C720 1.356 . S
N728 H734 0.984 . S
N728 H735 0.984 . S
N729 C722 1.356 . S
N729 H732 0.984 . S
N729 H733 0.985 . S
H730 N725 0.984 . S
H731 N725 0.985 . S
H732 N729 0.984 . S
H733 N729 0.985 . S
H734 N728 0.984 . S
H735 N728 0.984 . S
H736 N724 0.984 . S
H737 N724 0.985 . S
C738 C739 1.363 . S
C738 C744 1.379 . S
C738 N746 1.356 1_545 S
C739 C738 1.363 . S
C739 C745 1.363 . S
C740 C741 1.363 . S
C740 C745 1.379 . S
C740 N747 1.356 . S
C741 C740 1.363 . S
C741 C744 1.363 . S
N742 C744 1.356 . S
N742 H754 0.984 . S
N742 H755 0.985 . S
N743 C745 1.356 . S
N743 H748 0.984 . S
N743 H749 0.985 . S
C744 C738 1.379 . S
C744 C741 1.363 . S
C744 N742 1.356 . S
C745 C739 1.363 . S
C745 C740 1.379 . S
C745 N743 1.356 . S
N746 C738 1.356 1_565 S
N746 H752 0.984 . S
N746 H753 0.984 . S
N747 C740 1.356 . S
N747 H750 0.984 . S
N747 H751 0.985 . S
H748 N743 0.984 . S
H749 N743 0.985 . S
H750 N747 0.984 . S
H751 N747 0.985 . S
H752 N746 0.984 . S
H753 N746 0.984 . S
H754 N742 0.984 . S
H755 N742 0.985 . S
C756 C757 1.363 . S
C756 C762 1.379 . S
C756 N764 1.356 . S
C757 C756 1.363 . S
C757 C763 1.363 . S
C758 C759 1.363 . S
C758 C763 1.379 . S
C758 N765 1.356 . S
C759 C758 1.363 . S
C759 C762 1.363 . S
N760 C762 1.356 . S
N760 H772 0.984 . S
N760 H773 0.985 . S
N761 C763 1.356 . S
N761 H766 0.984 . S
N761 H767 0.985 . S
C762 C756 1.379 . S
C762 C759 1.363 . S
C762 N760 1.356 . S
C763 C757 1.363 . S
C763 C758 1.379 . S
C763 N761 1.356 . S
N764 C756 1.356 . S
N764 H770 0.984 . S
N764 H771 0.984 . S
N765 C758 1.356 . S
N765 H768 0.984 . S
N765 H769 0.985 . S
H766 N761 0.984 . S
H767 N761 0.985 . S
H768 N765 0.984 . S
H769 N765 0.985 . S
H770 N764 0.984 . S
H771 N764 0.984 . S
H772 N760 0.984 . S
H773 N760 0.985 . S
C774 C775 1.363 . S
C774 C780 1.379 . S
C774 N782 1.356 . S
C775 C774 1.363 . S
C775 C781 1.363 . S
C776 C777 1.363 . S
C776 C781 1.379 . S
C776 N783 1.356 . S
C777 C776 1.363 . S
C777 C780 1.363 . S
N778 C780 1.356 . S
N778 H790 0.984 . S
N778 H791 0.985 . S
N779 C781 1.356 . S
N779 H784 0.984 . S
N779 H785 0.985 . S
C780 C774 1.379 . S
C780 C777 1.363 . S
C780 N778 1.356 . S
C781 C775 1.363 . S
C781 C776 1.379 . S
C781 N779 1.356 . S
N782 C774 1.356 . S
N782 H788 0.984 . S
N782 H789 0.984 . S
N783 C776 1.356 . S
N783 H786 0.984 . S
N783 H787 0.985 . S
H784 N779 0.984 . S
H785 N779 0.985 . S
H786 N783 0.984 . S
H787 N783 0.985 . S
H788 N782 0.984 . S
H789 N782 0.984 . S
H790 N778 0.984 . S
H791 N778 0.985 . S
C792 C793 1.363 . S
C792 C798 1.379 . S
C792 N800 1.356 . S
C793 C792 1.363 . S
C793 C799 1.363 . S
C794 C795 1.363 . S
C794 C799 1.379 . S
C794 N801 1.356 . S
C795 C794 1.363 . S
C795 C798 1.363 . S
N796 C798 1.356 . S
N796 H808 0.984 . S
N796 H809 0.985 . S
N797 C799 1.356 . S
N797 H802 0.984 . S
N797 H803 0.985 . S
C798 C792 1.379 . S
C798 C795 1.363 . S
C798 N796 1.356 . S
C799 C793 1.363 . S
C799 C794 1.379 . S
C799 N797 1.356 . S
N800 C792 1.356 . S
N800 H806 0.984 . S
N800 H807 0.984 . S
N801 C794 1.356 . S
N801 H804 0.984 . S
N801 H805 0.985 . S
H802 N797 0.984 . S
H803 N797 0.985 . S
H804 N801 0.984 . S
H805 N801 0.985 . S
H806 N800 0.984 . S
H807 N800 0.984 . S
H808 N796 0.984 . S
H809 N796 0.985 . S
C810 C811 1.363 . S
C810 C816 1.379 1_565 S
C810 N818 1.356 . S
C811 C810 1.363 . S
C811 C817 1.363 . S
C812 C813 1.363 . S
C812 C817 1.379 1_545 S
C812 N819 1.356 . S
C813 C812 1.363 . S
C813 C816 1.363 . S
N814 C816 1.356 . S
N814 H826 0.984 . S
N814 H827 0.985 . S
N815 C817 1.356 . S
N815 H820 0.984 . S
N815 H821 0.985 . S
C816 C810 1.379 1_545 S
C816 C813 1.363 . S
C816 N814 1.356 . S
C817 C811 1.363 . S
C817 C812 1.379 1_565 S
C817 N815 1.356 . S
N818 C810 1.356 . S
N818 H824 0.984 . S
N818 H825 0.984 . S
N819 C812 1.356 . S
N819 H822 0.984 . S
N819 H823 0.985 . S
H820 N815 0.984 . S
H821 N815 0.985 . S
H822 N819 0.984 . S
H823 N819 0.985 . S
H824 N818 0.984 . S
H825 N818 0.984 . S
H826 N814 0.984 . S
H827 N814 0.985 . S
C828 C829 1.363 . S
C828 C834 1.379 1_655 S
C828 N836 1.356 . S
C829 C828 1.363 . S
C829 C835 1.363 . S
C830 C831 1.363 . S
C830 C835 1.379 1_455 S
C830 N837 1.356 . S
C831 C830 1.363 . S
C831 C834 1.363 . S
N832 C834 1.356 . S
N832 H844 0.984 . S
N832 H845 0.985 . S
N833 C835 1.356 . S
N833 H838 0.984 . S
N833 H839 0.985 . S
C834 C828 1.379 1_455 S
C834 C831 1.363 . S
C834 N832 1.356 . S
C835 C829 1.363 . S
C835 C830 1.379 1_655 S
C835 N833 1.356 . S
N836 C828 1.356 . S
N836 H842 0.984 . S
N836 H843 0.984 . S
N837 C830 1.356 . S
N837 H840 0.984 . S
N837 H841 0.985 . S
H838 N833 0.984 . S
H839 N833 0.985 . S
H840 N837 0.984 . S
H841 N837 0.985 . S
H842 N836 0.984 . S
H843 N836 0.984 . S
H844 N832 0.984 . S
H845 N832 0.985 . S
C361 C50 1.527 . S
C363 C6 1.611 . S
C379 C90 1.527 . S
C381 C46 1.611 . S
C397 C86 1.611 . S
C399 C10 1.527 . S
C415 C99 1.767 . S
C417 C55 1.675 . S
C433 C95 1.675 . S
C435 C19 1.768 . S
C451 C15 1.675 . S
C453 C59 1.767 . S
C469 C126 1.611 . S
C471 C170 1.527 . S
C487 C210 1.527 . S
C489 C166 1.611 . S
C505 C206 1.611 . S
C507 C130 1.527 . S
C523 C175 1.675 . S
C525 C219 1.767 . S
C541 C215 1.675 . S
C543 C139 1.767 . S
C559 C179 1.767 . S
C561 C135 1.675 . S
C577 C290 1.527 . S
C579 C246 1.611 . S
C595 C286 1.611 . S
C597 C330 1.527 . S
C613 C326 1.611 . S
C615 C250 1.527 . S
C631 C339 1.767 . S
C633 C295 1.675 . S
C649 C335 1.675 . S
C651 C259 1.768 . S
C667 C255 1.675 . S
C669 C299 1.753 1_455 S
C685 C209 2.382 . S
C687 C18 2.741 . S
C703 C129 2.382 . S
C705 C58 2.741 . S
C721 C98 2.741 . S
C723 C169 2.382 . S
C739 C89 2.382 . S
C741 C258 2.741 . S
C757 C9 2.382 . S
C759 C298 2.741 . S
C775 C338 2.741 . S
C777 C49 2.382 . S
C793 C138 2.741 . S
C795 C329 2.382 . S
C811 C178 2.741 . S
C813 C249 2.382 . S
C829 C289 2.382 . S
C831 C218 2.741 . S
