# Generated by pormake.
# Topology uoy, (4)-cn, num edge types: 1
# Building blocks:
#     Node 0, Type 0, BuildingBlock: CEKHIL_clean_sbu_0, # of connection points: 4
#     Node 1, Type 0, BuildingBlock: CEKHIL_clean_sbu_0, # of connection points: 4
#     Node 2, Type 0, BuildingBlock: CEKHIL_clean_sbu_0, # of connection points: 4
#     Node 3, Type 0, BuildingBlock: CEKHIL_clean_sbu_0, # of connection points: 4
#     Node 4, Type 0, BuildingBlock: CEKHIL_clean_sbu_0, # of connection points: 4
#     Node 5, Type 0, BuildingBlock: CEKHIL_clean_sbu_0, # of connection points: 4
#     Node 6, Type 0, BuildingBlock: CEKHIL_clean_sbu_0, # of connection points: 4
#     Node 7, Type 0, BuildingBlock: CEKHIL_clean_sbu_0, # of connection points: 4
#     Node 8, Type 0, BuildingBlock: CEKHIL_clean_sbu_0, # of connection points: 4
#     Node 9, Type 0, BuildingBlock: CEKHIL_clean_sbu_0, # of connection points: 4
#     Node 10, Type 0, BuildingBlock: CEKHIL_clean_sbu_0, # of connection points: 4
#     Node 11, Type 0, BuildingBlock: CEKHIL_clean_sbu_0, # of connection points: 4
#     Node 12, Type 0, BuildingBlock: CEKHIL_clean_sbu_0, # of connection points: 4
#     Node 13, Type 0, BuildingBlock: CEKHIL_clean_sbu_0, # of connection points: 4
#     Node 14, Type 0, BuildingBlock: CEKHIL_clean_sbu_0, # of connection points: 4
#     Node 15, Type 0, BuildingBlock: CEKHIL_clean_sbu_0, # of connection points: 4
#     Edge 16, Type (0, 0), BuildingBlock: MIFKUJ_clean_linker_0, # of connection points: 2
#     Edge 17, Type (0, 0), BuildingBlock: MIFKUJ_clean_linker_0, # of connection points: 2
#     Edge 18, Type (0, 0), BuildingBlock: MIFKUJ_clean_linker_0, # of connection points: 2
#     Edge 19, Type (0, 0), BuildingBlock: MIFKUJ_clean_linker_0, # of connection points: 2
#     Edge 20, Type (0, 0), BuildingBlock: MIFKUJ_clean_linker_0, # of connection points: 2
#     Edge 21, Type (0, 0), BuildingBlock: MIFKUJ_clean_linker_0, # of connection points: 2
#     Edge 22, Type (0, 0), BuildingBlock: MIFKUJ_clean_linker_0, # of connection points: 2
#     Edge 23, Type (0, 0), BuildingBlock: MIFKUJ_clean_linker_0, # of connection points: 2
#     Edge 24, Type (0, 0), BuildingBlock: MIFKUJ_clean_linker_0, # of connection points: 2
#     Edge 25, Type (0, 0), BuildingBlock: MIFKUJ_clean_linker_0, # of connection points: 2
#     Edge 26, Type (0, 0), BuildingBlock: MIFKUJ_clean_linker_0, # of connection points: 2
#     Edge 27, Type (0, 0), BuildingBlock: MIFKUJ_clean_linker_0, # of connection points: 2
#     Edge 28, Type (0, 0), BuildingBlock: MIFKUJ_clean_linker_0, # of connection points: 2
#     Edge 29, Type (0, 0), BuildingBlock: MIFKUJ_clean_linker_0, # of connection points: 2
#     Edge 30, Type (0, 0), BuildingBlock: MIFKUJ_clean_linker_0, # of connection points: 2
#     Edge 31, Type (0, 0), BuildingBlock: MIFKUJ_clean_linker_0, # of connection points: 2
#     Edge 32, Type (0, 0), BuildingBlock: MIFKUJ_clean_linker_0, # of connection points: 2
#     Edge 33, Type (0, 0), BuildingBlock: MIFKUJ_clean_linker_0, # of connection points: 2
#     Edge 34, Type (0, 0), BuildingBlock: MIFKUJ_clean_linker_0, # of connection points: 2
#     Edge 35, Type (0, 0), BuildingBlock: MIFKUJ_clean_linker_0, # of connection points: 2
#     Edge 36, Type (0, 0), BuildingBlock: MIFKUJ_clean_linker_0, # of connection points: 2
#     Edge 37, Type (0, 0), BuildingBlock: MIFKUJ_clean_linker_0, # of connection points: 2
#     Edge 38, Type (0, 0), BuildingBlock: MIFKUJ_clean_linker_0, # of connection points: 2
#     Edge 39, Type (0, 0), BuildingBlock: MIFKUJ_clean_linker_0, # of connection points: 2
#     Edge 40, Type (0, 0), BuildingBlock: MIFKUJ_clean_linker_0, # of connection points: 2
#     Edge 41, Type (0, 0), BuildingBlock: MIFKUJ_clean_linker_0, # of connection points: 2
#     Edge 42, Type (0, 0), BuildingBlock: MIFKUJ_clean_linker_0, # of connection points: 2
#     Edge 43, Type (0, 0), BuildingBlock: MIFKUJ_clean_linker_0, # of connection points: 2
#     Edge 44, Type (0, 0), BuildingBlock: MIFKUJ_clean_linker_0, # of connection points: 2
#     Edge 45, Type (0, 0), BuildingBlock: MIFKUJ_clean_linker_0, # of connection points: 2
#     Edge 46, Type (0, 0), BuildingBlock: MIFKUJ_clean_linker_0, # of connection points: 2
#     Edge 47, Type (0, 0), BuildingBlock: MIFKUJ_clean_linker_0, # of connection points: 2
# Relax obj value: 0.040
# Max RMSD: 0.062
# Mean RMSD: 0.062
data_MOF--net-uoy--node1-CEKHIL_clean_sbu_0--edge1-MIFKUJ_clean_linker_0
_symmetry_space_group_name_H-M    P1
_symmetry_Int_Tables_number       1
_symmetry_cell_setting            triclinic
loop_
_symmetry_equiv_pos_as_xyz
'x, y, z'
_cell_length_a     35.455791
_cell_length_b     35.479635
_cell_length_c     138.78752
_cell_angle_alpha  89.99663
_cell_angle_beta   89.995841
_cell_angle_gamma 89.959758
loop_
_atom_site_label
_atom_site_type_symbol
_atom_site_fract_x
_atom_site_fract_y
_atom_site_fract_z
_atom_type_partial_charge
Co0 Co 0.24538 0.11593 0.18636 0.0
O1 O 0.19135 0.12083 0.18729 0.0
O2 O 0.22066 0.07281 0.18043 0.0
C3 C 0.25814 0.1312 0.20182 0.0
O4 O 0.30075 0.10065 0.18448 0.0
Co5 Co 0.29633 0.18611 0.18961 0.0
O6 O 0.33805 0.14901 0.18893 0.0
C7 C 0.25222 0.17944 0.17171 0.0
C8 C 0.18896 0.08871 0.18288 0.0
C9 C 0.33356 0.11508 0.18613 0.0
O10 O 0.24459 0.1448 0.17375 0.0
O11 O 0.26929 0.20151 0.17756 0.0
O12 O 0.24825 0.09702 0.1996 0.0
O13 O 0.25641 0.15534 0.19489 0.0
Co14 Co 0.8923 0.74108 0.43689 0.0
O15 O 0.88664 0.68715 0.4378 0.0
O16 O 0.93557 0.71575 0.4312 0.0
C17 C 0.87561 0.75441 0.45222 0.0
O18 O 0.90857 0.79619 0.43515 0.0
Co19 Co 0.8221 0.79287 0.43948 0.0
O20 O 0.85988 0.83403 0.43913 0.0
C21 C 0.83042 0.74821 0.42179 0.0
C22 C 0.91916 0.68427 0.43358 0.0
C23 C 0.89421 0.82914 0.43668 0.0
O24 O 0.86489 0.74086 0.42407 0.0
O25 O 0.80754 0.76518 0.42746 0.0
O26 O 0.90973 0.74338 0.45026 0.0
O27 O 0.8522 0.75309 0.44511 0.0
Co28 Co 0.25915 0.39416 0.68646 0.0
O29 O 0.31315 0.38884 0.68727 0.0
O30 O 0.28388 0.43776 0.68079 0.0
C31 C 0.24642 0.37745 0.70181 0.0
O32 O 0.20387 0.4098 0.68473 0.0
Co33 Co 0.20823 0.3237 0.68917 0.0
O34 O 0.16652 0.36103 0.68883 0.0
C35 C 0.25376 0.33171 0.67163 0.0
C36 C 0.31553 0.42135 0.68305 0.0
C37 C 0.17104 0.39532 0.68632 0.0
O38 O 0.25961 0.36664 0.67368 0.0
O39 O 0.23753 0.30875 0.6774 0.0
O40 O 0.25656 0.41176 0.69981 0.0
O41 O 0.24803 0.35396 0.69472 0.0
Co42 Co 0.61319 0.761 0.93693 0.0
O43 O 0.62037 0.81471 0.93808 0.0
O44 O 0.5717 0.78787 0.93089 0.0
C45 C 0.62708 0.74648 0.95236 0.0
O46 O 0.59527 0.70653 0.93481 0.0
Co47 Co 0.6809 0.70627 0.94014 0.0
O48 O 0.64173 0.66674 0.93925 0.0
C49 C 0.67641 0.75045 0.92221 0.0
C50 C 0.5886 0.81872 0.93355 0.0
C51 C 0.60815 0.673 0.93639 0.0
O52 O 0.64264 0.761 0.92438 0.0
O53 O 0.6973 0.7314 0.92794 0.0
O54 O 0.59368 0.75885 0.95014 0.0
O55 O 0.65153 0.74712 0.94548 0.0
Co56 Co 0.24183 0.39111 0.06129 0.0
O57 O 0.18797 0.38601 0.06005 0.0
O58 O 0.21639 0.434 0.06713 0.0
C59 C 0.25643 0.37615 0.04593 0.0
O60 O 0.29687 0.40662 0.06343 0.0
Co61 Co 0.293 0.32076 0.05848 0.0
O62 O 0.33463 0.35792 0.0594 0.0
C63 C 0.2474 0.32774 0.07605 0.0
C64 C 0.18499 0.41803 0.06448 0.0
C65 C 0.3298 0.39205 0.06201 0.0
O66 O 0.24025 0.36237 0.0739 0.0
O67 O 0.26468 0.30528 0.07034 0.0
O68 O 0.24572 0.41015 0.0481 0.0
O69 O 0.25399 0.35183 0.05282 0.0
Co70 Co 0.61629 0.74489 0.31178 0.0
O71 O 0.62295 0.69107 0.31083 0.0
O72 O 0.57394 0.71876 0.31767 0.0
C73 C 0.63125 0.75849 0.29635 0.0
O74 O 0.59926 0.7998 0.31365 0.0
Co75 Co 0.68538 0.79778 0.30867 0.0
O76 O 0.64665 0.83802 0.309 0.0
C77 C 0.67959 0.75299 0.32644 0.0
C78 C 0.5908 0.68761 0.3152 0.0
C79 C 0.61282 0.83287 0.31183 0.0
O80 O 0.645 0.74501 0.32442 0.0
O81 O 0.70142 0.77046 0.32061 0.0
O82 O 0.59755 0.74687 0.2985 0.0
O83 O 0.65532 0.75757 0.30331 0.0
Co84 Co 0.26288 0.11538 0.5619 0.0
O85 O 0.31692 0.12098 0.56097 0.0
O86 O 0.28814 0.07261 0.5678 0.0
C87 C 0.24945 0.1306 0.54648 0.0
O88 O 0.20778 0.09911 0.56379 0.0
Co89 Co 0.21047 0.1849 0.55884 0.0
O90 O 0.16938 0.14735 0.55979 0.0
C91 C 0.25458 0.17833 0.57673 0.0
C92 C 0.31966 0.08876 0.56534 0.0
C93 C 0.17465 0.11331 0.56241 0.0
O94 O 0.26318 0.14402 0.57456 0.0
O95 O 0.23689 0.20024 0.57096 0.0
O96 O 0.26069 0.09676 0.54861 0.0
O97 O 0.25059 0.15464 0.55345 0.0
Co98 Co 0.89139 0.76258 0.81214 0.0
O99 O 0.88489 0.81653 0.81134 0.0
O100 O 0.93359 0.78826 0.81819 0.0
C101 C 0.87697 0.74969 0.79663 0.0
O102 O 0.90863 0.70769 0.81393 0.0
Co103 Co 0.82341 0.70873 0.80862 0.0
O104 O 0.8622 0.66867 0.80909 0.0
C105 C 0.82919 0.74992 0.82703 0.0
C106 C 0.91693 0.81959 0.81578 0.0
C107 C 0.8957 0.67441 0.81208 0.0
O108 O 0.86228 0.76198 0.82472 0.0
O109 O 0.80835 0.73067 0.82133 0.0
O110 O 0.91064 0.76101 0.79893 0.0
O111 O 0.85257 0.75023 0.80353 0.0
Co112 Co 0.7411 0.61611 0.68735 0.0
O113 O 0.6871 0.62014 0.68833 0.0
O114 O 0.71693 0.57283 0.68132 0.0
C115 C 0.75378 0.63107 0.7028 0.0
O116 O 0.79667 0.60194 0.68544 0.0
Co117 Co 0.79026 0.6874 0.69058 0.0
O118 O 0.83243 0.65047 0.69051 0.0
C119 C 0.74627 0.67992 0.67277 0.0
C120 C 0.68503 0.58819 0.68384 0.0
C121 C 0.82899 0.61662 0.68753 0.0
O122 O 0.73999 0.64502 0.67477 0.0
O123 O 0.76229 0.70273 0.67862 0.0
O124 O 0.74447 0.5968 0.70053 0.0
O125 O 0.75138 0.6555 0.69594 0.0
Co126 Co 0.39121 0.24242 0.93678 0.0
O127 O 0.38823 0.18819 0.93727 0.0
O128 O 0.43472 0.22014 0.93044 0.0
C129 C 0.37736 0.25309 0.95242 0.0
O130 O 0.40435 0.29842 0.93525 0.0
Co131 Co 0.31982 0.29073 0.94085 0.0
O132 O 0.35632 0.33303 0.94112 0.0
C133 C 0.32671 0.25053 0.92234 0.0
C134 C 0.42014 0.18767 0.93271 0.0
C135 C 0.38972 0.3303 0.93779 0.0
O136 O 0.36129 0.24228 0.92434 0.0
O137 O 0.30469 0.26692 0.92833 0.0
O138 O 0.41149 0.24424 0.94987 0.0
O139 O 0.35236 0.25125 0.94567 0.0
Co140 Co 0.76399 0.89204 0.18674 0.0
O141 O 0.81802 0.88604 0.18738 0.0
O142 O 0.78907 0.93468 0.18073 0.0
C143 C 0.75178 0.87682 0.20223 0.0
O144 O 0.70876 0.9085 0.18517 0.0
Co145 Co 0.71183 0.82259 0.1901 0.0
O146 O 0.67138 0.86119 0.19025 0.0
C147 C 0.75535 0.82877 0.17213 0.0
C148 C 0.82067 0.91827 0.18302 0.0
C149 C 0.67598 0.89497 0.18732 0.0
O150 O 0.763 0.86346 0.17409 0.0
O151 O 0.73869 0.8067 0.17806 0.0
O152 O 0.76299 0.91062 0.20005 0.0
O153 O 0.75231 0.85286 0.19525 0.0
Co154 Co 0.11576 0.25997 0.43677 0.0
O155 O 0.12207 0.31397 0.43626 0.0
O156 O 0.07174 0.28352 0.43098 0.0
C157 C 0.1343 0.25264 0.4522 0.0
O158 O 0.09861 0.20455 0.4365 0.0
Co159 Co 0.18473 0.20745 0.44033 0.0
O160 O 0.14553 0.16861 0.44241 0.0
C161 C 0.17515 0.2443 0.4214 0.0
C162 C 0.08874 0.31552 0.43244 0.0
C163 C 0.1116 0.17264 0.43956 0.0
O164 O 0.14172 0.25524 0.4238 0.0
O165 O 0.19753 0.2276 0.42725 0.0
O166 O 0.10003 0.26311 0.45025 0.0
O167 O 0.1568 0.2506 0.44491 0.0
Co168 Co 0.74401 0.89023 0.56189 0.0
O169 O 0.69002 0.88337 0.56164 0.0
O170 O 0.71882 0.93324 0.56771 0.0
C171 C 0.75469 0.87342 0.54644 0.0
O172 O 0.7991 0.90785 0.56301 0.0
Co173 Co 0.79756 0.82173 0.55866 0.0
O174 O 0.83685 0.86117 0.55774 0.0
C175 C 0.75735 0.8297 0.57715 0.0
C176 C 0.68729 0.91615 0.56572 0.0
C177 C 0.83186 0.89498 0.56057 0.0
O178 O 0.74663 0.86316 0.57475 0.0
O179 O 0.7751 0.80773 0.5714 0.0
O180 O 0.74324 0.90727 0.54847 0.0
O181 O 0.75558 0.8502 0.55359 0.0
Co182 Co 0.11461 0.24384 0.81177 0.0
O183 O 0.11923 0.18989 0.81098 0.0
O184 O 0.0711 0.21949 0.81769 0.0
C185 C 0.13045 0.25586 0.79632 0.0
O186 O 0.10001 0.2995 0.81345 0.0
Co187 Co 0.18604 0.29319 0.8086 0.0
O188 O 0.14861 0.33478 0.80818 0.0
C189 C 0.17764 0.25009 0.82656 0.0
C190 C 0.08697 0.18766 0.81532 0.0
C191 C 0.11468 0.33161 0.81114 0.0
O192 O 0.14286 0.24348 0.82446 0.0
O193 O 0.20061 0.26608 0.82074 0.0
O194 O 0.09615 0.24622 0.79849 0.0
O195 O 0.15437 0.25409 0.80331 0.0
Co196 Co 0.76054 0.61408 0.06185 0.0
O197 O 0.81459 0.62014 0.06177 0.0
O198 O 0.78471 0.57077 0.06779 0.0
C199 C 0.75076 0.6307 0.04637 0.0
O200 O 0.70516 0.59742 0.06277 0.0
Co201 Co 0.70828 0.68327 0.05837 0.0
O202 O 0.6688 0.64413 0.05691 0.0
C203 C 0.74863 0.6756 0.07683 0.0
C204 C 0.81658 0.58739 0.06589 0.0
C205 C 0.67298 0.6104 0.0599 0.0
O206 O 0.75776 0.64148 0.07464 0.0
O207 O 0.73186 0.69784 0.07096 0.0
O208 O 0.76152 0.59668 0.04849 0.0
O209 O 0.75014 0.65411 0.05349 0.0
Co210 Co 0.39303 0.26324 0.31166 0.0
O211 O 0.38878 0.31732 0.31087 0.0
O212 O 0.43677 0.28717 0.31751 0.0
C213 C 0.37693 0.25094 0.29624 0.0
O214 O 0.40752 0.20766 0.31336 0.0
Co215 Co 0.32154 0.21385 0.30862 0.0
O216 O 0.35836 0.17164 0.30881 0.0
C217 C 0.32985 0.25809 0.32636 0.0
C218 C 0.42117 0.31914 0.31517 0.0
C219 C 0.39255 0.17526 0.31153 0.0
O220 O 0.36489 0.26376 0.32436 0.0
O221 O 0.30674 0.24254 0.3205 0.0
O222 O 0.41128 0.26063 0.29836 0.0
O223 O 0.35311 0.25292 0.30325 0.0
H224 H 0.23525 0.36837 0.09257 0.0
H225 H 0.22735 0.34358 0.10894 0.0
H226 H 0.22951 0.23008 0.09786 0.0
H227 H 0.2378 0.25448 0.08153 0.0
H228 H 0.17517 0.24206 0.11299 0.0
H229 H 0.30702 0.26142 0.10587 0.0
H230 H 0.36203 0.29849 0.10056 0.0
H231 H 0.3429 0.37794 0.12339 0.0
H232 H 0.28737 0.34161 0.12874 0.0
H233 H 0.23226 0.14044 0.15533 0.0
H234 H 0.22302 0.16625 0.13912 0.0
H235 H 0.24087 0.27859 0.1501 0.0
H236 H 0.25083 0.25316 0.16618 0.0
H237 H 0.2827 0.26788 0.13489 0.0
H238 H 0.1529 0.24709 0.14276 0.0
H239 H 0.09768 0.21046 0.14812 0.0
H240 H 0.11175 0.13472 0.12426 0.0
H241 H 0.16741 0.17062 0.11883 0.0
C242 C 0.23338 0.33817 0.0936 0.0
C243 C 0.23756 0.31339 0.08576 0.0
C244 C 0.22893 0.32406 0.10295 0.0
C245 C 0.22812 0.28499 0.1046 0.0
C246 C 0.23004 0.26029 0.09674 0.0
C247 C 0.23502 0.27432 0.08742 0.0
C248 C 0.22879 0.26981 0.11455 0.0
C249 C 0.19873 0.24743 0.11779 0.0
C250 C 0.25933 0.27728 0.12081 0.0
C251 C 0.29279 0.29906 0.11763 0.0
C252 C 0.31434 0.28699 0.1097 0.0
C253 C 0.34565 0.30783 0.10669 0.0
C254 C 0.35588 0.34062 0.11161 0.0
C255 C 0.33489 0.35258 0.11957 0.0
C256 C 0.3035 0.33187 0.1226 0.0
C257 C 0.23375 0.17067 0.15431 0.0
C258 C 0.24264 0.19465 0.16205 0.0
C259 C 0.22834 0.18542 0.14504 0.0
C260 C 0.23119 0.22443 0.14338 0.0
C261 C 0.23876 0.24841 0.15117 0.0
C262 C 0.24443 0.23375 0.16038 0.0
C263 C 0.22879 0.24031 0.13348 0.0
C264 C 0.25882 0.26269 0.13019 0.0
C265 C 0.19811 0.2329 0.12722 0.0
C266 C 0.16456 0.21134 0.13044 0.0
C267 C 0.14441 0.22245 0.1387 0.0
C268 C 0.11299 0.20185 0.14174 0.0
C269 C 0.10127 0.17022 0.13655 0.0
C270 C 0.12089 0.1592 0.12828 0.0
C271 C 0.15235 0.17968 0.12521 0.0
H272 H 0.07695 0.15431 0.13892 0.0
H273 H 0.38014 0.35671 0.10927 0.0
H274 H 0.75748 0.73848 0.41609 0.0
H275 H 0.73382 0.72972 0.39972 0.0
H276 H 0.84784 0.7286 0.38891 0.0
H277 H 0.87192 0.73701 0.40535 0.0
H278 H 0.79983 0.78088 0.37976 0.0
H279 H 0.80006 0.65001 0.38819 0.0
H280 H 0.78551 0.59454 0.39821 0.0
H281 H 0.66696 0.61512 0.3947 0.0
H282 H 0.68079 0.67109 0.38476 0.0
H283 H 0.75355 0.74826 0.33161 0.0
H284 H 0.77965 0.73891 0.34765 0.0
H285 H 0.6674 0.72724 0.35925 0.0
H286 H 0.64084 0.73578 0.34306 0.0
H287 H 0.71578 0.67901 0.36798 0.0
H288 H 0.71346 0.81076 0.36082 0.0
H289 H 0.72548 0.86816 0.35128 0.0
H290 H 0.84478 0.84854 0.35311 0.0
H291 H 0.83344 0.79068 0.36254 0.0
C292 C 0.77761 0.73588 0.41025 0.0
C293 C 0.81661 0.73868 0.41201 0.0
C294 C 0.76401 0.73066 0.40091 0.0
C295 C 0.78907 0.72842 0.39311 0.0
C296 C 0.82806 0.73017 0.39485 0.0
C297 C 0.84176 0.73486 0.40424 0.0
C298 C 0.77428 0.72748 0.38312 0.0
C299 C 0.78208 0.75823 0.37711 0.0
C300 C 0.74992 0.69863 0.37983 0.0
C301 C 0.74149 0.66498 0.3858 0.0
C302 C 0.77089 0.64293 0.38963 0.0
C303 C 0.76277 0.61134 0.39528 0.0
C304 C 0.72534 0.60136 0.39711 0.0
C305 C 0.69594 0.62291 0.39328 0.0
C306 C 0.70391 0.65455 0.38763 0.0
C307 C 0.73429 0.74343 0.33754 0.0
C308 C 0.69502 0.74335 0.33607 0.0
C309 C 0.74932 0.73812 0.34673 0.0
C310 C 0.72548 0.73324 0.3547 0.0
C311 C 0.68632 0.7312 0.35321 0.0
C312 C 0.67118 0.73615 0.34396 0.0
C313 C 0.74159 0.73232 0.36458 0.0
C314 C 0.73382 0.70146 0.37059 0.0
C315 C 0.76563 0.76135 0.36796 0.0
C316 C 0.77258 0.79617 0.3623 0.0
C317 C 0.74224 0.81852 0.35912 0.0
C318 C 0.74893 0.85116 0.35375 0.0
C319 C 0.78586 0.86193 0.35157 0.0
C320 C 0.81619 0.84013 0.35479 0.0
C321 C 0.80965 0.80742 0.36015 0.0
H322 H 0.79099 0.88722 0.34741 0.0
H323 H 0.71911 0.57689 0.40148 0.0
H324 H 0.28886 0.1417 0.59193 0.0
H325 H 0.30004 0.16643 0.60818 0.0
H326 H 0.25209 0.27322 0.59975 0.0
H327 H 0.24151 0.24929 0.58359 0.0
H328 H 0.31281 0.28384 0.61091 0.0
H329 H 0.19988 0.20556 0.61177 0.0
H330 H 0.16508 0.14594 0.60965 0.0
H331 H 0.23958 0.09095 0.6296 0.0
H332 H 0.27507 0.15018 0.63175 0.0
H333 H 0.24999 0.36829 0.65433 0.0
H334 H 0.26001 0.34116 0.63833 0.0
H335 H 0.29324 0.23569 0.65137 0.0
H336 H 0.28082 0.26212 0.66731 0.0
H337 H 0.2483 0.22039 0.63813 0.0
H338 H 0.35696 0.30005 0.63897 0.0
H339 H 0.39219 0.35931 0.64122 0.0
H340 H 0.32902 0.41092 0.61836 0.0
H341 H 0.29304 0.35213 0.61605 0.0
C342 C 0.281 0.17054 0.59351 0.0
C343 C 0.26392 0.1933 0.58644 0.0
C344 C 0.28734 0.18462 0.60281 0.0
C345 C 0.2765 0.22158 0.60522 0.0
C346 C 0.26073 0.24465 0.59808 0.0
C347 C 0.25449 0.23073 0.58882 0.0
C348 C 0.27949 0.23605 0.61524 0.0
C349 C 0.29867 0.27007 0.61688 0.0
C350 C 0.26189 0.2176 0.62307 0.0
C351 C 0.24035 0.18214 0.62184 0.0
C352 C 0.20896 0.18068 0.61565 0.0
C353 C 0.1891 0.14698 0.61446 0.0
C354 C 0.20018 0.11464 0.61947 0.0
C355 C 0.23107 0.11599 0.62571 0.0
C356 C 0.25105 0.14961 0.62693 0.0
C357 C 0.25997 0.33951 0.65376 0.0
C358 C 0.26455 0.31725 0.66204 0.0
C359 C 0.26594 0.32402 0.64461 0.0
C360 C 0.27791 0.28637 0.64358 0.0
C361 C 0.28389 0.26469 0.65192 0.0
C362 C 0.27691 0.27984 0.66103 0.0
C363 C 0.28137 0.26866 0.63387 0.0
C364 C 0.2632 0.23401 0.63226 0.0
C365 C 0.30021 0.28645 0.6261 0.0
C366 C 0.32213 0.32172 0.62739 0.0
C367 C 0.35044 0.32409 0.63446 0.0
C368 C 0.37056 0.3576 0.63574 0.0
C369 C 0.3628 0.38888 0.62995 0.0
C370 C 0.33499 0.38667 0.62284 0.0
C371 C 0.31476 0.35325 0.62153 0.0
H372 H 0.37838 0.4148 0.63096 0.0
H373 H 0.18478 0.08858 0.61853 0.0
H374 H 0.84418 0.80981 0.83903 0.0
H375 H 0.81683 0.8218 0.855 0.0
H376 H 0.75476 0.71738 0.85311 0.0
H377 H 0.78031 0.70646 0.8371 0.0
H378 H 0.71102 0.76575 0.8603 0.0
H379 H 0.84101 0.73037 0.86663 0.0
H380 H 0.91011 0.73693 0.86536 0.0
H381 H 0.90343 0.8483 0.87735 0.0
H382 H 0.83421 0.84251 0.8786 0.0
H383 H 0.73959 0.721 0.91395 0.0
H384 H 0.76429 0.73227 0.89791 0.0
H385 H 0.67466 0.81176 0.89241 0.0
H386 H 0.64876 0.79961 0.90851 0.0
H387 H 0.79238 0.78853 0.88875 0.0
H388 H 0.65261 0.80873 0.86841 0.0
H389 H 0.58526 0.79201 0.86988 0.0
H390 H 0.61462 0.69363 0.88628 0.0
H391 H 0.68211 0.70955 0.88481 0.0
C392 C 0.82469 0.78951 0.84206 0.0
C393 C 0.81435 0.75724 0.83682 0.0
C394 C 0.80911 0.79632 0.85119 0.0
C395 C 0.7838 0.77038 0.85533 0.0
C396 C 0.77382 0.73808 0.85008 0.0
C397 C 0.78864 0.73175 0.84092 0.0
C398 C 0.76789 0.77584 0.86517 0.0
C399 C 0.72886 0.77105 0.8665 0.0
C400 C 0.79092 0.78273 0.87332 0.0
C401 C 0.83247 0.78619 0.87259 0.0
C402 C 0.85428 0.75634 0.86893 0.0
C403 C 0.89345 0.7599 0.86823 0.0
C404 C 0.91114 0.79306 0.87124 0.0
C405 C 0.88969 0.82267 0.875 0.0
C406 C 0.8505 0.81927 0.87571 0.0
C407 C 0.72504 0.74106 0.90938 0.0
C408 C 0.69193 0.7592 0.91253 0.0
C409 C 0.73943 0.74764 0.9002 0.0
C410 C 0.72133 0.7727 0.8939 0.0
C411 C 0.68887 0.79186 0.89708 0.0
C412 C 0.6741 0.78492 0.90629 0.0
C413 C 0.73585 0.77685 0.88389 0.0
C414 C 0.7745 0.78389 0.88252 0.0
C415 C 0.71272 0.7706 0.87573 0.0
C416 C 0.67229 0.76064 0.87661 0.0
C417 C 0.64464 0.78352 0.87232 0.0
C418 C 0.60647 0.77418 0.87315 0.0
C419 C 0.59566 0.74187 0.8782 0.0
C420 C 0.62302 0.71874 0.8824 0.0
C421 C 0.66122 0.72792 0.88158 0.0
H422 H 0.5661 0.73471 0.87884 0.0
H423 H 0.94146 0.79576 0.87069 0.0
H424 H 0.77783 0.76182 0.58485 0.0
H425 H 0.76673 0.73852 0.60106 0.0
H426 H 0.70827 0.84133 0.60828 0.0
H427 H 0.71972 0.86543 0.59197 0.0
H428 H 0.75874 0.82076 0.62213 0.0
H429 H 0.6592 0.75954 0.60471 0.0
H430 H 0.63222 0.72187 0.59146 0.0
H431 H 0.70139 0.62766 0.59955 0.0
H432 H 0.72917 0.66492 0.61276 0.0
H433 H 0.71618 0.74806 0.66809 0.0
H434 H 0.70743 0.77451 0.65197 0.0
H435 H 0.75034 0.67157 0.63947 0.0
H436 H 0.75638 0.64419 0.65559 0.0
H437 H 0.69998 0.69621 0.62831 0.0
H438 H 0.80589 0.75711 0.64379 0.0
H439 H 0.83766 0.79357 0.65656 0.0
H440 H 0.76229 0.88643 0.6517 0.0
H441 H 0.72982 0.85034 0.63896 0.0
C442 C 0.76242 0.77961 0.58983 0.0
C443 C 0.74962 0.8156 0.58705 0.0
C444 C 0.75591 0.76604 0.59911 0.0
C445 C 0.73613 0.78787 0.60585 0.0
C446 C 0.72341 0.8239 0.60316 0.0
C447 C 0.72995 0.83762 0.59384 0.0
C448 C 0.73027 0.77335 0.61578 0.0
C449 C 0.7452 0.79388 0.62352 0.0
C450 C 0.71354 0.73778 0.61755 0.0
C451 C 0.6964 0.71512 0.6097 0.0
C452 C 0.6688 0.73086 0.60363 0.0
C453 C 0.65335 0.70957 0.59613 0.0
C454 C 0.66512 0.67242 0.59466 0.0
C455 C 0.69229 0.65644 0.6007 0.0
C456 C 0.70785 0.67761 0.60821 0.0
C457 C 0.72314 0.73095 0.66187 0.0
C458 C 0.73714 0.6942 0.66306 0.0
C459 C 0.71848 0.74618 0.65266 0.0
C460 C 0.72936 0.72559 0.64446 0.0
C461 C 0.74189 0.68823 0.64565 0.0
C462 C 0.74538 0.67255 0.65486 0.0
C463 C 0.7292 0.74324 0.6347 0.0
C464 C 0.71313 0.72331 0.62697 0.0
C465 C 0.74551 0.7791 0.6329 0.0
C466 C 0.7652 0.80089 0.6405 0.0
C467 C 0.79599 0.78523 0.64548 0.0
C468 C 0.81412 0.80583 0.65271 0.0
C469 C 0.80192 0.84225 0.65496 0.0
C470 C 0.77165 0.8582 0.64996 0.0
C471 C 0.7534 0.8377 0.64273 0.0
H472 H 0.81599 0.85814 0.66056 0.0
H473 H 0.65315 0.656 0.58884 0.0
H474 H 0.36444 0.22107 0.90669 0.0
H475 H 0.33979 0.21166 0.89038 0.0
H476 H 0.23074 0.25198 0.89951 0.0
H477 H 0.25473 0.26099 0.91578 0.0
H478 H 0.22388 0.19203 0.8875 0.0
H479 H 0.29281 0.31022 0.88813 0.0
H480 H 0.34911 0.34964 0.89083 0.0
H481 H 0.41098 0.2842 0.87014 0.0
H482 H 0.35514 0.24409 0.86741 0.0
H483 H 0.13884 0.25083 0.8436 0.0
H484 H 0.16472 0.24267 0.8598 0.0
H485 H 0.27416 0.2185 0.84761 0.0
H486 H 0.24879 0.22882 0.83147 0.0
H487 H 0.28371 0.26464 0.86108 0.0
H488 H 0.21385 0.14949 0.85916 0.0
H489 H 0.15794 0.10971 0.8563 0.0
H490 H 0.09885 0.16647 0.87908 0.0
H491 H 0.15422 0.20696 0.88199 0.0
C492 C 0.3351 0.22764 0.90526 0.0
C493 C 0.31172 0.24218 0.91256 0.0
C494 C 0.32111 0.2223 0.89592 0.0
C495 C 0.28352 0.23152 0.8937 0.0
C496 C 0.25982 0.24466 0.90105 0.0
C497 C 0.27371 0.25002 0.91036 0.0
C498 C 0.26915 0.22952 0.88365 0.0
C499 C 0.23681 0.20799 0.88171 0.0
C500 C 0.28651 0.24965 0.87605 0.0
C501 C 0.31996 0.27394 0.87765 0.0
C502 C 0.3185 0.30409 0.88421 0.0
C503 C 0.35031 0.32658 0.88574 0.0
C504 C 0.38364 0.31936 0.88068 0.0
C505 C 0.38518 0.28971 0.87407 0.0
C506 C 0.35346 0.26712 0.87252 0.0
C507 C 0.16828 0.24326 0.84439 0.0
C508 C 0.19183 0.24057 0.83629 0.0
C509 C 0.18307 0.23838 0.85367 0.0
C510 C 0.22144 0.22951 0.85499 0.0
C511 C 0.24456 0.22548 0.84683 0.0
C512 C 0.23002 0.23127 0.8376 0.0
C513 C 0.23817 0.22708 0.86483 0.0
C514 C 0.27094 0.24804 0.86677 0.0
C515 C 0.22131 0.20613 0.87239 0.0
C516 C 0.18812 0.18146 0.87074 0.0
C517 C 0.18886 0.15364 0.86352 0.0
C518 C 0.15727 0.13094 0.8619 0.0
C519 C 0.12484 0.13561 0.86749 0.0
C520 C 0.12398 0.1629 0.87475 0.0
C521 C 0.15548 0.1857 0.8764 0.0
H522 H 0.1004 0.11804 0.86622 0.0
H523 H 0.40823 0.3368 0.88188 0.0
H524 H 0.74674 0.74873 0.08294 0.0
H525 H 0.75663 0.77273 0.09919 0.0
H526 H 0.77893 0.66 0.10931 0.0
H527 H 0.76903 0.63547 0.09298 0.0
H528 H 0.72643 0.69843 0.12043 0.0
H529 H 0.85001 0.72103 0.10775 0.0
H530 H 0.89636 0.74483 0.09599 0.0
H531 H 0.85707 0.8579 0.1006 0.0
H532 H 0.81008 0.83472 0.11229 0.0
H533 H 0.76922 0.75568 0.1674 0.0
H534 H 0.77672 0.7288 0.15135 0.0
H535 H 0.7675 0.83981 0.13886 0.0
H536 H 0.76142 0.86714 0.15503 0.0
H537 H 0.81698 0.79958 0.12904 0.0
H538 H 0.69071 0.77863 0.14024 0.0
H539 H 0.64156 0.75692 0.15152 0.0
H540 H 0.68242 0.64336 0.14909 0.0
H541 H 0.73215 0.66449 0.13788 0.0
C542 C 0.75397 0.72892 0.08859 0.0
C543 C 0.7569 0.69007 0.08665 0.0
C544 C 0.75987 0.7428 0.09787 0.0
C545 C 0.7688 0.71822 0.10544 0.0
C546 C 0.77219 0.67946 0.10355 0.0
C547 C 0.7666 0.66552 0.09421 0.0
C548 C 0.77228 0.73296 0.11541 0.0
C549 C 0.74675 0.71999 0.12237 0.0
C550 C 0.79793 0.76202 0.11783 0.0
C551 C 0.82631 0.77608 0.11084 0.0
C552 C 0.85104 0.75094 0.1062 0.0
C553 C 0.87748 0.76432 0.09956 0.0
C554 C 0.87961 0.80284 0.09753 0.0
C555 C 0.85537 0.82807 0.10217 0.0
C556 C 0.82886 0.81482 0.10882 0.0
C557 C 0.76919 0.77446 0.16125 0.0
C558 C 0.76423 0.8135 0.16247 0.0
C559 C 0.77334 0.75902 0.15206 0.0
C560 C 0.77163 0.78212 0.14387 0.0
C561 C 0.76864 0.82136 0.14508 0.0
C562 C 0.76515 0.83697 0.15431 0.0
C563 C 0.77107 0.76507 0.13407 0.0
C564 C 0.79695 0.77773 0.12713 0.0
C565 C 0.74537 0.73602 0.1316 0.0
C566 C 0.71538 0.72321 0.1383 0.0
C567 C 0.68937 0.74907 0.14216 0.0
C568 C 0.66139 0.73687 0.14854 0.0
C569 C 0.65894 0.6988 0.15104 0.0
C570 C 0.6844 0.67284 0.14715 0.0
C571 C 0.71247 0.68491 0.14079 0.0
H572 H 0.63725 0.6894 0.15597 0.0
H573 H 0.90009 0.81315 0.09239 0.0
H574 H 0.24109 0.21956 0.41344 0.0
H575 H 0.26513 0.23097 0.39732 0.0
H576 H 0.16578 0.29582 0.39048 0.0
H577 H 0.14092 0.28413 0.40672 0.0
H578 H 0.18479 0.24657 0.37609 0.0
H579 H 0.24924 0.34023 0.39479 0.0
H580 H 0.28707 0.36339 0.40847 0.0
H581 H 0.37869 0.2912 0.40014 0.0
H582 H 0.34123 0.26722 0.38648 0.0
H583 H 0.26337 0.29172 0.33094 0.0
H584 H 0.23612 0.29999 0.34699 0.0
H585 H 0.33563 0.25001 0.35962 0.0
H586 H 0.36395 0.24444 0.34359 0.0
H587 H 0.31256 0.30009 0.3711 0.0
H588 H 0.24764 0.1997 0.35427 0.0
H589 H 0.21064 0.17195 0.34099 0.0
H590 H 0.1214 0.25131 0.34617 0.0
H591 H 0.15807 0.27978 0.35941 0.0
C592 C 0.22419 0.23638 0.40856 0.0
C593 C 0.18903 0.25108 0.41144 0.0
C594 C 0.23817 0.24303 0.39933 0.0
C595 C 0.21763 0.26485 0.39275 0.0
C596 C 0.18223 0.27912 0.39548 0.0
C597 C 0.16807 0.2724 0.40476 0.0
C598 C 0.23306 0.27164 0.38294 0.0
C599 C 0.2124 0.25898 0.37497 0.0
C600 C 0.26951 0.28695 0.38151 0.0
C601 C 0.29232 0.3018 0.38964 0.0
C602 C 0.27738 0.32915 0.3959 0.0
C603 C 0.29877 0.34244 0.40365 0.0
C604 C 0.33524 0.32874 0.40518 0.0
C605 C 0.35044 0.3018 0.39895 0.0
C606 C 0.32916 0.2884 0.39119 0.0
C607 C 0.27961 0.28318 0.33718 0.0
C608 C 0.31563 0.2673 0.33606 0.0
C609 C 0.2639 0.28753 0.34635 0.0
C610 C 0.28319 0.27448 0.35455 0.0
C611 C 0.31997 0.26014 0.35344 0.0
C612 C 0.3362 0.25694 0.34428 0.0
C613 C 0.26469 0.27417 0.3642 0.0
C614 C 0.28474 0.2881 0.37217 0.0
C615 C 0.2279 0.25942 0.36566 0.0
C616 C 0.20574 0.2421 0.35776 0.0
C617 C 0.22021 0.21134 0.35254 0.0
C618 C 0.19929 0.19548 0.34503 0.0
C619 C 0.16374 0.20993 0.34272 0.0
C620 C 0.14897 0.24019 0.34795 0.0
C621 C 0.16978 0.25618 0.35546 0.0
H622 H 0.14761 0.19762 0.3369 0.0
H623 H 0.35173 0.33904 0.41119 0.0
H624 H 0.28403 0.0848 0.21611 0.0
H625 H 0.30675 0.10316 0.2321 0.0
H626 H 0.28372 0.21982 0.22545 0.0
H627 H 0.26292 0.20171 0.20934 0.0
H628 H 0.3456 0.2176 0.23438 0.0
H629 H 0.22432 0.1621 0.24022 0.0
H630 H 0.17558 0.11258 0.2396 0.0
H631 H 0.24807 0.03746 0.25529 0.0
H632 H 0.29742 0.08642 0.2559 0.0
H633 H 0.30591 0.23885 0.28946 0.0
H634 H 0.28744 0.21721 0.27343 0.0
H635 H 0.40469 0.20815 0.26537 0.0
H636 H 0.42324 0.23119 0.28131 0.0
H637 H 0.29626 0.15592 0.26387 0.0
H638 H 0.4157 0.22561 0.24161 0.0
H639 H 0.45705 0.28147 0.24232 0.0
H640 H 0.37504 0.33951 0.2596 0.0
H641 H 0.33303 0.2842 0.25889 0.0
C642 C 0.28388 0.11433 0.21809 0.0
C643 C 0.27157 0.14182 0.21152 0.0
C644 C 0.2967 0.12482 0.22724 0.0
C645 C 0.29645 0.16289 0.23008 0.0
C646 C 0.28432 0.1903 0.22346 0.0
C647 C 0.27227 0.17991 0.21426 0.0
C648 C 0.3087 0.17443 0.23991 0.0
C649 C 0.33482 0.204 0.24082 0.0
C650 C 0.29433 0.15722 0.24836 0.0
C651 C 0.26469 0.12778 0.24802 0.0
C652 C 0.22995 0.13493 0.24348 0.0
C653 C 0.20221 0.10698 0.24314 0.0
C654 C 0.20877 0.07186 0.24738 0.0
C655 C 0.24305 0.06465 0.252 0.0
C656 C 0.27091 0.0925 0.25235 0.0
C657 C 0.32775 0.23233 0.28426 0.0
C658 C 0.36601 0.23702 0.2866 0.0
C659 C 0.31717 0.21979 0.27511 0.0
C660 C 0.34461 0.21141 0.26813 0.0
C661 C 0.38293 0.21517 0.27055 0.0
C662 C 0.39353 0.22821 0.27967 0.0
C663 C 0.33293 0.19918 0.25832 0.0
C664 C 0.30712 0.16938 0.25742 0.0
C665 C 0.34653 0.21707 0.24988 0.0
C666 C 0.37145 0.25059 0.25029 0.0
C667 C 0.40647 0.25034 0.24554 0.0
C668 C 0.43002 0.2819 0.24594 0.0
C669 C 0.41874 0.31396 0.25103 0.0
C670 C 0.38381 0.3146 0.2557 0.0
C671 C 0.36015 0.28314 0.2553 0.0
H672 H 0.43702 0.33835 0.25135 0.0
H673 H 0.18725 0.05026 0.24711 0.0
H674 H 0.91591 0.75087 0.46897 0.0
H675 H 0.8964 0.77293 0.48496 0.0
H676 H 0.79121 0.81254 0.47309 0.0
H677 H 0.81027 0.79022 0.45713 0.0
H678 H 0.82808 0.86459 0.4859 0.0
H679 H 0.78997 0.73318 0.48451 0.0
H680 H 0.80178 0.66534 0.48204 0.0
H681 H 0.88399 0.6663 0.50476 0.0
H682 H 0.87302 0.73428 0.50727 0.0
H683 H 0.72801 0.89842 0.5292 0.0
H684 H 0.74846 0.87916 0.51311 0.0
H685 H 0.83354 0.80746 0.52582 0.0
H686 H 0.81059 0.82399 0.54183 0.0
H687 H 0.80818 0.77208 0.5122 0.0
H688 H 0.84995 0.90042 0.51412 0.0
H689 H 0.84396 0.96896 0.51669 0.0
H690 H 0.76403 0.97598 0.49351 0.0
H691 H 0.7692 0.9074 0.49088 0.0
C692 C 0.88868 0.76438 0.46977 0.0
C693 C 0.86454 0.76867 0.46181 0.0
C694 C 0.87758 0.77691 0.4789 0.0
C695 C 0.84231 0.79419 0.48019 0.0
C696 C 0.81855 0.79929 0.47222 0.0
C697 C 0.82943 0.78639 0.46312 0.0
C698 C 0.82969 0.80607 0.48991 0.0
C699 C 0.82336 0.84446 0.49166 0.0
C700 C 0.8247 0.77982 0.49745 0.0
C701 C 0.83092 0.73887 0.49601 0.0
C702 C 0.81076 0.71897 0.48893 0.0
C703 C 0.81727 0.68049 0.48753 0.0
C704 C 0.84369 0.66154 0.49322 0.0
C705 C 0.86357 0.68102 0.50035 0.0
C706 C 0.85719 0.71951 0.50177 0.0
C707 C 0.75107 0.87854 0.52851 0.0
C708 C 0.76786 0.8628 0.53673 0.0
C709 C 0.76306 0.8678 0.51931 0.0
C710 C 0.79331 0.84246 0.51815 0.0
C711 C 0.81017 0.82699 0.52643 0.0
C712 C 0.79718 0.8366 0.53561 0.0
C713 C 0.80674 0.83107 0.50838 0.0
C714 C 0.8131 0.79259 0.50655 0.0
C715 C 0.8127 0.85744 0.50083 0.0
C716 C 0.80972 0.89872 0.50236 0.0
C717 C 0.83093 0.91655 0.50961 0.0
C718 C 0.8277 0.95541 0.51107 0.0
C719 C 0.80356 0.97679 0.50528 0.0
C720 C 0.78269 0.95937 0.498 0.0
C721 C 0.78579 0.92052 0.49651 0.0
H722 H 0.80109 0.00687 0.50643 0.0
H723 H 0.8487 0.63175 0.49213 0.0
H724 H 0.22109 0.42278 0.71636 0.0
H725 H 0.19901 0.40336 0.73232 0.0
H726 H 0.22104 0.28708 0.72504 0.0
H727 H 0.24124 0.30629 0.70895 0.0
H728 H 0.15978 0.28903 0.73432 0.0
H729 H 0.28178 0.34294 0.73979 0.0
H730 H 0.33113 0.39183 0.73909 0.0
H731 H 0.26077 0.46717 0.75533 0.0
H732 H 0.2108 0.41885 0.75602 0.0
H733 H 0.2014 0.26697 0.78938 0.0
H734 H 0.21962 0.28802 0.77328 0.0
H735 H 0.10223 0.29818 0.76545 0.0
H736 H 0.08392 0.27568 0.78145 0.0
H737 H 0.21132 0.34918 0.76377 0.0
H738 H 0.09014 0.28126 0.7417 0.0
H739 H 0.04834 0.22575 0.74243 0.0
H740 H 0.13038 0.16664 0.75946 0.0
H741 H 0.17284 0.22159 0.75873 0.0
C742 C 0.22114 0.3931 0.71818 0.0
C743 C 0.23306 0.36605 0.71145 0.0
C744 C 0.20869 0.38201 0.72732 0.0
C745 C 0.20893 0.34375 0.72998 0.0
C746 C 0.2205 0.31675 0.72319 0.0
C747 C 0.2322 0.32776 0.714 0.0
C748 C 0.19734 0.33166 0.73982 0.0
C749 C 0.17104 0.30227 0.74075 0.0
C750 C 0.21242 0.34835 0.74826 0.0
C751 C 0.24242 0.37743 0.74787 0.0
C752 C 0.27674 0.37003 0.74315 0.0
C753 C 0.30483 0.39762 0.74277 0.0
C754 C 0.29905 0.43262 0.74714 0.0
C755 C 0.26519 0.44006 0.75193 0.0
C756 C 0.23699 0.41258 0.75233 0.0
C757 C 0.17947 0.27359 0.78421 0.0
C758 C 0.14124 0.26939 0.78664 0.0
C759 C 0.18992 0.28578 0.77502 0.0
C760 C 0.16236 0.29432 0.76808 0.0
C761 C 0.12407 0.291 0.77058 0.0
C762 C 0.11361 0.27828 0.77974 0.0
C763 C 0.17386 0.30651 0.75825 0.0
C764 C 0.19998 0.33604 0.75733 0.0
C765 C 0.15968 0.28901 0.74983 0.0
C766 C 0.13445 0.25571 0.75025 0.0
C767 C 0.09928 0.25637 0.74558 0.0
C768 C 0.07548 0.22501 0.74599 0.0
C769 C 0.08664 0.19274 0.75101 0.0
C770 C 0.1217 0.19171 0.7556 0.0
C771 C 0.14562 0.22297 0.7552 0.0
H772 H 0.06816 0.16851 0.75133 0.0
H773 H 0.32083 0.45394 0.74684 0.0
H774 H 0.71177 0.69386 0.04121 0.0
H775 H 0.68846 0.71068 0.02519 0.0
H776 H 0.73644 0.60866 0.01356 0.0
H777 H 0.75925 0.59117 0.02964 0.0
H778 H 0.75278 0.67894 0.00312 0.0
H779 H 0.64883 0.60808 0.01649 0.0
H780 H 0.60231 0.59443 0.02923 0.0
H781 H 0.55427 0.7047 0.02574 0.0
H782 H 0.60103 0.71932 0.01311 0.0
H783 H 0.67725 0.69114 0.95671 0.0
H784 H 0.69494 0.66806 0.97262 0.0
H785 H 0.61755 0.74692 0.98572 0.0
H786 H 0.59773 0.76804 0.96967 0.0
H787 H 0.61607 0.68749 0.99575 0.0
H788 H 0.71817 0.76203 0.98372 0.0
H789 H 0.76692 0.78221 0.97214 0.0
H790 H 0.82004 0.67368 0.97411 0.0
H791 H 0.77132 0.65269 0.98561 0.0
C792 C 0.71733 0.67495 0.03526 0.0
C793 C 0.73725 0.64114 0.03667 0.0
C794 C 0.70392 0.68458 0.02612 0.0
C795 C 0.71062 0.66079 0.01824 0.0
C796 C 0.73098 0.6273 0.01959 0.0
C797 C 0.74389 0.61734 0.02876 0.0
C798 C 0.69657 0.67113 0.00856 0.0
C799 C 0.72293 0.68028 0.00142 0.0
C800 C 0.65761 0.67415 0.00654 0.0
C801 C 0.62867 0.66492 0.01391 0.0
C802 C 0.62851 0.62952 0.01848 0.0
C803 C 0.60209 0.6216 0.02568 0.0
C804 C 0.57541 0.64871 0.02831 0.0
C805 C 0.57498 0.68374 0.0237 0.0
C806 C 0.60143 0.69185 0.01652 0.0
C807 C 0.66382 0.70334 0.96298 0.0
C808 C 0.63641 0.73161 0.96198 0.0
C809 C 0.67415 0.69033 0.97209 0.0
C810 C 0.65853 0.70652 0.98043 0.0
C811 C 0.63025 0.73407 0.97942 0.0
C812 C 0.619 0.74624 0.97026 0.0
C813 C 0.67234 0.6953 0.99016 0.0
C814 C 0.64597 0.68608 0.99736 0.0
C815 C 0.71141 0.69307 0.99233 0.0
C816 C 0.7409 0.70569 0.98546 0.0
C817 C 0.74012 0.7424 0.98164 0.0
C818 C 0.76776 0.75399 0.97509 0.0
C819 C 0.7965 0.72921 0.97237 0.0
C820 C 0.79773 0.69283 0.97621 0.0
C821 C 0.77014 0.68108 0.98275 0.0
H822 H 0.81787 0.73824 0.9673 0.0
H823 H 0.55504 0.64254 0.0339 0.0
H824 H 0.2672 0.30596 0.03852 0.0
H825 H 0.29254 0.28931 0.02273 0.0
H826 H 0.3081 0.40725 0.01619 0.0
H827 H 0.2811 0.42404 0.03186 0.0
H828 H 0.28237 0.37563 0.00121 0.0
H829 H 0.38361 0.34701 0.02205 0.0
H830 H 0.41597 0.31985 0.03616 0.0
H831 H 0.38985 0.20825 0.02626 0.0
H832 H 0.35666 0.2347 0.01218 0.0
H833 H 0.42651 0.27458 0.96656 0.0
H834 H 0.41111 0.30037 0.98245 0.0
H835 H 0.29246 0.28828 0.97621 0.0
H836 H 0.30772 0.26389 0.96022 0.0
H837 H 0.37844 0.27489 0.99757 0.0
H838 H 0.24113 0.35576 0.98658 0.0
H839 H 0.21645 0.39001 0.97245 0.0
H840 H 0.32942 0.4107 0.96264 0.0
H841 H 0.35479 0.37721 0.97679 0.0
C842 C 0.27606 0.32833 0.03372 0.0
C843 C 0.2722 0.36628 0.03641 0.0
C844 C 0.29081 0.31879 0.02471 0.0
C845 C 0.30293 0.34697 0.0183 0.0
C846 C 0.29901 0.38496 0.02099 0.0
C847 C 0.28364 0.39454 0.02995 0.0
C848 C 0.31865 0.33666 0.00871 0.0
C849 C 0.30349 0.35371 0.00043 0.0
C850 C 0.34723 0.309 0.00765 0.0
C851 C 0.36739 0.29288 0.01608 0.0
C852 C 0.38453 0.31667 0.02291 0.0
C853 C 0.40307 0.30141 0.0309 0.0
C854 C 0.40496 0.26237 0.0321 0.0
C855 C 0.38836 0.23849 0.02532 0.0
C856 C 0.36969 0.25361 0.01732 0.0
C857 C 0.39715 0.27749 0.96859 0.0
C858 C 0.36829 0.26742 0.96214 0.0
C859 C 0.38838 0.29216 0.97767 0.0
C860 C 0.35061 0.29684 0.9805 0.0
C861 C 0.32181 0.28585 0.97413 0.0
C862 C 0.33055 0.27168 0.96501 0.0
C863 C 0.34112 0.31289 0.9901 0.0
C864 C 0.35753 0.29699 0.99837 0.0
C865 C 0.31492 0.34277 0.99116 0.0
C866 C 0.29983 0.36365 0.98272 0.0
C867 C 0.26071 0.36782 0.98144 0.0
C868 C 0.2466 0.38708 0.97343 0.0
C869 C 0.27135 0.40243 0.96664 0.0
C870 C 0.31027 0.39871 0.96789 0.0
C871 C 0.32453 0.37957 0.9759 0.0
H872 H 0.26036 0.41726 0.96043 0.0
H873 H 0.41934 0.25061 0.03829 0.0
H874 H 0.59325 0.74795 0.27945 0.0
H875 H 0.6114 0.77036 0.26337 0.0
H876 H 0.70887 0.82529 0.27549 0.0
H877 H 0.69156 0.80222 0.29151 0.0
H878 H 0.66137 0.86963 0.26137 0.0
H879 H 0.72734 0.75026 0.26576 0.0
H880 H 0.72973 0.6823 0.26945 0.0
H881 H 0.65363 0.65966 0.24609 0.0
H882 H 0.65036 0.7276 0.24236 0.0
H883 H 0.76769 0.91089 0.21938 0.0
H884 H 0.74518 0.89279 0.23539 0.0
H885 H 0.67858 0.80386 0.22267 0.0
H886 H 0.70311 0.82027 0.20681 0.0
H887 H 0.70783 0.77704 0.23735 0.0
H888 H 0.64123 0.89204 0.232 0.0
H889 H 0.63252 0.95929 0.2281 0.0
H890 H 0.7 0.99031 0.25253 0.0
H891 H 0.70959 0.92321 0.2565 0.0
C892 C 0.61845 0.76494 0.27868 0.0
C893 C 0.64109 0.77321 0.28672 0.0
C894 C 0.62874 0.77769 0.26952 0.0
C895 C 0.66144 0.79942 0.26828 0.0
C896 C 0.68349 0.80862 0.27633 0.0
C897 C 0.67364 0.79527 0.28546 0.0
C898 C 0.67357 0.8113 0.25855 0.0
C899 C 0.67189 0.84959 0.25611 0.0
C900 C 0.68605 0.78485 0.25165 0.0
C901 C 0.68828 0.74402 0.25385 0.0
C902 C 0.71085 0.73082 0.26147 0.0
C903 C 0.71242 0.6923 0.26355 0.0
C904 C 0.69176 0.66669 0.25803 0.0
C905 C 0.66957 0.67954 0.25038 0.0
C906 C 0.66787 0.71804 0.24827 0.0
C907 C 0.74818 0.88754 0.22003 0.0
C908 C 0.73714 0.86699 0.21187 0.0
C909 C 0.73504 0.87737 0.22918 0.0
C910 C 0.70954 0.84729 0.23029 0.0
C911 C 0.69825 0.82709 0.22207 0.0
C912 C 0.71221 0.83658 0.21298 0.0
C913 C 0.69571 0.8358 0.24 0.0
C914 C 0.69713 0.79741 0.2425 0.0
C915 C 0.68208 0.86216 0.24686 0.0
C916 C 0.67644 0.90256 0.24449 0.0
C917 C 0.65447 0.91319 0.2365 0.0
C918 C 0.64934 0.95129 0.23428 0.0
C919 C 0.66579 0.97905 0.24005 0.0
C920 C 0.68733 0.96878 0.24806 0.0
C921 C 0.6926 0.93071 0.2503 0.0
H922 H 0.66176 0.00853 0.23832 0.0
H923 H 0.69301 0.63688 0.25965 0.0
H924 H 0.19651 0.2118 0.45719 0.0
H925 H 0.21462 0.19029 0.4733 0.0
H926 H 0.1174 0.246 0.48537 0.0
H927 H 0.09845 0.26684 0.46922 0.0
H928 H 0.19299 0.25775 0.49502 0.0
H929 H 0.10912 0.16183 0.48261 0.0
H930 H 0.09062 0.11759 0.4698 0.0
H931 H 0.19366 0.0559 0.47375 0.0
H932 H 0.21376 0.10104 0.48626 0.0
H933 H 0.20014 0.18662 0.54194 0.0
H934 H 0.17829 0.20527 0.52598 0.0
H935 H 0.24648 0.11769 0.51318 0.0
H936 H 0.2665 0.09743 0.52927 0.0
H937 H 0.18584 0.12199 0.50347 0.0
H938 H 0.27398 0.21452 0.514 0.0
H939 H 0.30236 0.26151 0.5249 0.0
H940 H 0.20182 0.32876 0.52331 0.0
H941 H 0.17263 0.2819 0.5125 0.0
C942 C 0.17899 0.21952 0.46327 0.0
C943 C 0.14594 0.24082 0.46195 0.0
C944 C 0.1894 0.20722 0.47245 0.0
C945 C 0.16725 0.21652 0.48047 0.0
C946 C 0.13479 0.23861 0.47923 0.0
C947 C 0.12395 0.25031 0.47002 0.0
C948 C 0.17758 0.2024 0.49014 0.0
C949 C 0.19093 0.22819 0.49696 0.0
C950 C 0.17622 0.16358 0.49243 0.0
C951 C 0.16318 0.13516 0.48531 0.0
C952 C 0.12804 0.13907 0.48069 0.0
C953 C 0.11727 0.11384 0.47347 0.0
C954 C 0.14091 0.0839 0.47096 0.0
C955 C 0.17539 0.07914 0.47569 0.0
C956 C 0.18656 0.10466 0.48282 0.0
C957 C 0.21031 0.17122 0.53573 0.0
C958 C 0.23531 0.14084 0.53682 0.0
C959 C 0.19798 0.18203 0.52658 0.0
C960 C 0.21151 0.16363 0.51831 0.0
C961 C 0.23572 0.13252 0.51942 0.0
C962 C 0.24727 0.12102 0.52861 0.0
C963 C 0.20108 0.17748 0.50852 0.0
C964 C 0.18781 0.15162 0.50162 0.0
C965 C 0.20352 0.2162 0.50603 0.0
C966 C 0.22099 0.24451 0.51252 0.0
C967 C 0.25783 0.2392 0.51603 0.0
C968 C 0.27407 0.26583 0.52218 0.0
C969 C 0.25387 0.29805 0.52481 0.0
C970 C 0.21741 0.30376 0.52128 0.0
C971 C 0.20101 0.27719 0.51513 0.0
H972 H 0.26649 0.31864 0.52958 0.0
H973 H 0.13248 0.06439 0.46537 0.0
H974 H 0.74611 0.69809 0.71202 0.0
H975 H 0.76984 0.71532 0.72794 0.0
H976 H 0.82004 0.60494 0.73086 0.0
H977 H 0.79374 0.58686 0.7152 0.0
H978 H 0.79416 0.62198 0.74697 0.0
H979 H 0.87173 0.69102 0.7249 0.0
H980 H 0.88514 0.73405 0.71137 0.0
H981 H 0.82955 0.82434 0.72631 0.0
H982 H 0.81537 0.78174 0.73988 0.0
H983 H 0.9236 0.74295 0.78101 0.0
H984 H 0.9074 0.71899 0.76497 0.0
H985 H 0.79291 0.70027 0.77434 0.0
H986 H 0.809 0.7236 0.79037 0.0
H987 H 0.85922 0.74423 0.75187 0.0
H988 H 0.7564 0.62455 0.76328 0.0
H989 H 0.74902 0.57894 0.77657 0.0
H990 H 0.86779 0.58455 0.78239 0.0
H991 H 0.87603 0.62975 0.76905 0.0
C992 C 0.76214 0.67754 0.71609 0.0
C993 C 0.76822 0.64122 0.71241 0.0
C994 C 0.77602 0.68748 0.72516 0.0
C995 C 0.7977 0.66183 0.73056 0.0
C996 C 0.80353 0.62535 0.72687 0.0
C997 C 0.78858 0.61502 0.71792 0.0
C998 C 0.81376 0.67284 0.74009 0.0
C999 C 0.80852 0.64866 0.748 0.0
C1000 C 0.83332 0.7073 0.74148 0.0
C1001 C 0.84229 0.73311 0.73338 0.0
C1002 C 0.86223 0.72001 0.72528 0.0
C1003 C 0.86996 0.74433 0.71761 0.0
C1004 C 0.85815 0.78188 0.71797 0.0
C1005 C 0.83867 0.79524 0.72603 0.0
C1006 C 0.83082 0.77104 0.73372 0.0
C1007 C 0.89502 0.73358 0.77965 0.0
C1008 C 0.86757 0.73511 0.78695 0.0
C1009 C 0.8858 0.71996 0.77048 0.0
C1010 C 0.84904 0.70747 0.76848 0.0
C1011 C 0.82161 0.70913 0.77576 0.0
C1012 C 0.83081 0.72267 0.78491 0.0
C1013 C 0.83889 0.69372 0.75871 0.0
C1014 C 0.84517 0.71741 0.75078 0.0
C1015 C 0.82132 0.65837 0.75725 0.0
C1016 C 0.81673 0.6308 0.76521 0.0
C1017 C 0.78097 0.61591 0.76736 0.0
C1018 C 0.77665 0.59015 0.77491 0.0
C1019 C 0.80792 0.57892 0.78032 0.0
C1020 C 0.84361 0.59335 0.77819 0.0
C1021 C 0.8481 0.61908 0.77065 0.0
H1022 H 0.8045 0.55901 0.78617 0.0
H1023 H 0.86414 0.80065 0.71202 0.0
H1024 H 0.17258 0.01399 0.17989 0.0
H1025 H 0.11 0.9852 0.17852 0.0
H1026 H 0.0587 0.09542 0.18012 0.0
H1027 H 0.12091 0.12386 0.18198 0.0
H1028 H 0.02158 0.05295 0.19101 0.0
H1029 H 0.06401 0.03854 0.1585 0.0
H1030 H 0.10701 0.0194 0.14542 0.0
H1031 H 0.09673 0.90363 0.15404 0.0
H1032 H 0.05403 0.92213 0.16726 0.0
H1033 H 0.8364 0.99167 0.17822 0.0
H1034 H 0.89881 0.02102 0.17667 0.0
H1035 H 0.95172 0.91371 0.18217 0.0
H1036 H 0.88964 0.88436 0.18384 0.0
H1037 H 0.98659 0.95524 0.16707 0.0
H1038 H 0.94482 0.97285 0.19999 0.0
H1039 H 0.90031 0.99394 0.21253 0.0
H1040 H 0.90793 0.10756 0.20206 0.0
H1041 H 0.95211 0.08702 0.18935 0.0
C1042 C 0.14792 0.03202 0.17985 0.0
C1043 C 0.15167 0.07116 0.18106 0.0
C1044 C 0.11207 0.01558 0.17901 0.0
C1045 C 0.07928 0.03805 0.17911 0.0
C1046 C 0.0833 0.07729 0.18007 0.0
C1047 C 0.11897 0.09358 0.1811 0.0
C1048 C 0.04075 0.02086 0.17874 0.0
C1049 C 0.01393 0.0321 0.18564 0.0
C1050 C 0.0305 0.99301 0.17188 0.0
C1051 C 0.0561 0.98177 0.16393 0.0
C1052 C 0.07113 0.00903 0.15765 0.0
C1053 C 0.09541 0.99829 0.15021 0.0
C1054 C 0.10467 0.96033 0.14892 0.0
C1055 C 0.08957 0.93302 0.15506 0.0
C1056 C 0.0653 0.94361 0.16252 0.0
C1057 C 0.86133 0.97428 0.179 0.0
C1058 C 0.85805 0.93573 0.1812 0.0
C1059 C 0.89697 0.99109 0.17813 0.0
C1060 C 0.92996 0.96959 0.17936 0.0
C1061 C 0.9267 0.93084 0.18119 0.0
C1062 C 0.89116 0.91415 0.18217 0.0
C1063 C 0.96785 0.98769 0.17926 0.0
C1064 C 0.99444 0.97643 0.17234 0.0
C1065 C 0.97779 0.01594 0.18599 0.0
C1066 C 0.95143 0.02833 0.19366 0.0
C1067 C 0.93676 1.00227 0.20031 0.0
C1068 C 0.91164 0.01414 0.20746 0.0
C1069 C 0.90121 0.05205 0.20808 0.0
C1070 C 0.91598 0.0782 0.20156 0.0
C1071 C 0.94107 0.06646 0.19439 0.0
H1072 H 0.88176 0.06118 0.21362 0.0
H1073 H 0.12348 0.95208 0.14315 0.0
H1074 H 0.01387 0.33332 0.43353 0.0
H1075 H 0.98538 0.39595 0.43232 0.0
H1076 H 0.09421 0.44319 0.42531 0.0
H1077 H 0.12298 0.381 0.42723 0.0
H1078 H 0.06509 0.48674 0.43704 0.0
H1079 H 0.01435 0.43092 0.40838 0.0
H1080 H 0.98098 0.38315 0.39869 0.0
H1081 H 0.88016 0.40136 0.41519 0.0
H1082 H 0.91306 0.44892 0.42506 0.0
H1083 H 0.9888 0.66817 0.42584 0.0
H1084 H 0.01805 0.6059 0.4239 0.0
H1085 H 0.91857 0.55353 0.43574 0.0
H1086 H 0.88915 0.6153 0.43758 0.0
H1087 H 0.94434 0.51428 0.42046 0.0
H1088 H 0.9982 0.56828 0.44947 0.0
H1089 H 0.03241 0.61687 0.4587 0.0
H1090 H 0.12916 0.60275 0.44043 0.0
H1091 H 0.09533 0.55439 0.43102 0.0
C1092 C 0.03154 0.35705 0.4316 0.0
C1093 C 0.07059 0.35231 0.43044 0.0
C1094 C 0.0152 0.39294 0.43085 0.0
C1095 C 0.03737 0.42468 0.42856 0.0
C1096 C 0.07631 0.41949 0.42711 0.0
C1097 C 0.09277 0.38385 0.42815 0.0
C1098 C 0.02063 0.46348 0.42825 0.0
C1099 C 0.03906 0.49271 0.43323 0.0
C1100 C 0.98619 0.47168 0.42347 0.0
C1101 C 0.96627 0.44327 0.41751 0.0
C1102 C 0.98513 0.42458 0.40998 0.0
C1103 C 0.96629 0.39756 0.40445 0.0
C1104 C 0.9285 0.38917 0.40634 0.0
C1105 C 0.90944 0.40786 0.41374 0.0
C1106 C 0.92815 0.43489 0.4193 0.0
C1107 C 0.9731 0.64336 0.42797 0.0
C1108 C 0.93671 0.64677 0.43191 0.0
C1109 C 0.9899 0.60777 0.42689 0.0
C1110 C 0.97069 0.57494 0.42977 0.0
C1111 C 0.934 0.57833 0.43346 0.0
C1112 C 0.91725 0.61378 0.43454 0.0
C1113 C 0.9889 0.53706 0.42922 0.0
C1114 C 0.97064 0.50812 0.42413 0.0
C1115 C 0.02372 0.52919 0.43378 0.0
C1116 C 0.04411 0.55802 0.43949 0.0
C1117 C 0.02668 0.57573 0.44739 0.0
C1118 C 0.04602 0.60319 0.45266 0.0
C1119 C 0.0829 0.61297 0.45014 0.0
C1120 C 0.10057 0.5952 0.44237 0.0
C1121 C 0.08135 0.56775 0.43707 0.0
H1122 H 0.09781 0.63424 0.45422 0.0
H1123 H 0.91398 0.36823 0.40205 0.0
H1124 H 0.33397 0.49628 0.68282 0.0
H1125 H 0.39711 0.5237 0.68145 0.0
H1126 H 0.44402 0.41253 0.67724 0.0
H1127 H 0.38136 0.38513 0.67929 0.0
H1128 H 0.48669 0.44523 0.68858 0.0
H1129 H 0.43429 0.48535 0.65849 0.0
H1130 H 0.38782 0.51512 0.64767 0.0
H1131 H 0.40513 0.62163 0.66167 0.0
H1132 H 0.45137 0.59241 0.67266 0.0
H1133 H 0.67002 0.51701 0.67689 0.0
H1134 H 0.60788 0.48732 0.67492 0.0
H1135 H 0.55414 0.58935 0.68479 0.0
H1136 H 0.61567 0.61904 0.68671 0.0
H1137 H 0.51698 0.55912 0.66939 0.0
H1138 H 0.56744 0.51528 0.69996 0.0
H1139 H 0.6149 0.48409 0.71023 0.0
H1140 H 0.60222 0.38175 0.69404 0.0
H1141 H 0.55502 0.41251 0.6836 0.0
C1142 C 0.35778 0.47784 0.68149 0.0
C1143 C 0.3528 0.43862 0.68115 0.0
C1144 C 0.39394 0.49352 0.68065 0.0
C1145 C 0.4257 0.47037 0.67909 0.0
C1146 C 0.42031 0.43118 0.67848 0.0
C1147 C 0.3844 0.41549 0.6796 0.0
C1148 C 0.46469 0.48652 0.67863 0.0
C1149 C 0.49327 0.4697 0.6842 0.0
C1150 C 0.47369 0.5189 0.67308 0.0
C1151 C 0.44607 0.5366 0.66645 0.0
C1152 C 0.42802 0.51507 0.6593 0.0
C1153 C 0.40174 0.53186 0.65313 0.0
C1154 C 0.39347 0.57022 0.654 0.0
C1155 C 0.41154 0.59191 0.66101 0.0
C1156 C 0.43782 0.57526 0.66721 0.0
C1157 C 0.64492 0.53315 0.67856 0.0
C1158 C 0.64784 0.57031 0.68201 0.0
C1159 C 0.60943 0.51614 0.67747 0.0
C1160 C 0.57628 0.536 0.67979 0.0
C1161 C 0.57922 0.57344 0.68294 0.0
C1162 C 0.61453 0.59032 0.68408 0.0
C1163 C 0.53847 0.51774 0.67931 0.0
C1164 C 0.51022 0.5343 0.67361 0.0
C1165 C 0.52986 0.48481 0.68462 0.0
C1166 C 0.55802 0.4663 0.69094 0.0
C1167 C 0.57498 0.48621 0.69855 0.0
C1168 C 0.6018 0.4686 0.70441 0.0
C1169 C 0.61165 0.43099 0.70277 0.0
C1170 C 0.59462 0.41089 0.69529 0.0
C1171 C 0.56782 0.42838 0.6894 0.0
H1172 H 0.63242 0.41741 0.70732 0.0
H1173 H 0.37311 0.58316 0.64922 0.0
H1174 H 0.49459 0.1705 0.93503 0.0
H1175 H 0.52392 0.10821 0.93385 0.0
H1176 H 0.41799 0.06147 0.92417 0.0
H1177 H 0.38816 0.12312 0.92619 0.0
H1178 H 0.4431 0.0164 0.93587 0.0
H1179 H 0.50447 0.07697 0.90916 0.0
H1180 H 0.54136 0.12636 0.90095 0.0
H1181 H 0.63516 0.10512 0.91975 0.0
H1182 H 0.59868 0.05591 0.92815 0.0
H1183 H 0.52213 0.83694 0.92447 0.0
H1184 H 0.49422 0.89977 0.92256 0.0
H1185 H 0.58971 0.94901 0.93711 0.0
H1186 H 0.61795 0.88663 0.93889 0.0
H1187 H 0.56943 0.99142 0.92196 0.0
H1188 H 0.50494 0.93228 0.94885 0.0
H1189 H 0.46737 0.88218 0.95658 0.0
H1190 H 0.37795 0.9003 0.93623 0.0
H1191 H 0.41519 0.95022 0.92831 0.0
C1192 C 0.47784 0.14693 0.93252 0.0
C1193 C 0.43923 0.15153 0.93065 0.0
C1194 C 0.49466 0.11126 0.93177 0.0
C1195 C 0.47353 0.07976 0.92874 0.0
C1196 C 0.43511 0.08495 0.92656 0.0
C1197 C 0.41805 0.12027 0.92765 0.0
C1198 C 0.49053 0.04106 0.92844 0.0
C1199 C 0.47041 0.01105 0.93263 0.0
C1200 C 0.52663 0.0336 0.92444 0.0
C1201 C 0.54872 0.06296 0.91933 0.0
C1202 C 0.53289 0.08298 0.91158 0.0
C1203 C 0.55374 0.11093 0.90688 0.0
C1204 C 0.59055 0.11893 0.90984 0.0
C1205 C 0.60664 0.09892 0.91747 0.0
C1206 C 0.58591 0.07096 0.9222 0.0
C1207 C 0.53727 0.86119 0.92721 0.0
C1208 C 0.57217 0.8567 0.93188 0.0
C1209 C 0.52122 0.8971 0.92614 0.0
C1210 C 0.53961 0.92919 0.9298 0.0
C1211 C 0.57492 0.92478 0.93423 0.0
C1212 C 0.59099 0.889 0.93527 0.0
C1213 C 0.5218 0.96726 0.92931 0.0
C1214 C 0.54188 0.99702 0.92504 0.0
C1215 C 0.48547 0.97446 0.93311 0.0
C1216 C 0.46299 0.94471 0.93794 0.0
C1217 C 0.47736 0.92541 0.94599 0.0
C1218 C 0.45611 0.89708 0.95041 0.0
C1219 C 0.42034 0.888 0.94688 0.0
C1220 C 0.40568 0.90732 0.93894 0.0
C1221 C 0.42683 0.93565 0.93449 0.0
H1222 H 0.40395 0.86604 0.95031 0.0
H1223 H 0.60663 0.1406 0.9062 0.0
H1224 H 0.1163 0.38532 0.06199 0.0
H1225 H 0.05421 0.41406 0.06363 0.0
H1226 H 0.10585 0.51906 0.07206 0.0
H1227 H 0.16849 0.48992 0.07067 0.0
H1228 H 0.04407 0.50747 0.08249 0.0
H1229 H 0.07262 0.50545 0.04902 0.0
H1230 H 0.09243 0.47839 0.03346 0.0
H1231 H 0.99831 0.40233 0.03411 0.0
H1232 H 0.97822 0.42859 0.04975 0.0
H1233 H 0.88461 0.62205 0.06801 0.0
H1234 H 0.94681 0.59243 0.06946 0.0
H1235 H 0.89493 0.48263 0.06887 0.0
H1236 H 0.83236 0.51215 0.06769 0.0
H1237 H 0.95655 0.49786 0.0547 0.0
H1238 H 0.92835 0.5043 0.08861 0.0
H1239 H 0.90945 0.53629 0.10362 0.0
H1240 H 0.00449 0.61065 0.10126 0.0
H1241 H 0.02366 0.57945 0.08614 0.0
C1242 C 0.11456 0.41449 0.06424 0.0
C1243 C 0.14742 0.43543 0.06611 0.0
C1244 C 0.07894 0.43097 0.06514 0.0
C1245 C 0.07521 0.46902 0.06777 0.0
C1246 C 0.10793 0.48972 0.06997 0.0
C1247 C 0.14373 0.47307 0.06916 0.0
C1248 C 0.03719 0.4871 0.06797 0.0
C1249 C 0.02516 0.50573 0.07637 0.0
C1250 C 0.01217 0.48467 0.06002 0.0
C1251 C 0.02414 0.46873 0.05061 0.0
C1252 C 0.05632 0.48274 0.04589 0.0
C1253 C 0.06757 0.46758 0.03704 0.0
C1254 C 0.0467 0.43859 0.03281 0.0
C1255 C 0.01448 0.42476 0.0374 0.0
C1256 C 1.00313 0.43978 0.04626 0.0
C1257 C 0.88639 0.59159 0.06834 0.0
C1258 C 0.85361 0.56939 0.06774 0.0
C1259 C 0.92194 0.57474 0.06918 0.0
C1260 C 0.92546 0.53536 0.06927 0.0
C1261 C 0.89277 0.51308 0.06883 0.0
C1262 C 0.85708 0.52996 0.0682 0.0
C1263 C 0.96343 0.51762 0.06924 0.0
C1264 C 0.97549 0.49934 0.06083 0.0
C1265 C 0.98862 0.52104 0.07709 0.0
C1266 C 0.9772 0.5398 0.08619 0.0
C1267 C 0.94501 0.52772 0.09124 0.0
C1268 C 0.9343 0.54565 0.09978 0.0
C1269 C 0.95569 0.57556 0.10338 0.0
C1270 C 0.98791 0.58752 0.09846 0.0
C1271 C 0.99873 0.5697 0.08991 0.0
H1272 H 0.94735 0.5894 0.11 0.0
H1273 H 0.05545 0.4269 0.02596 0.0
H1274 H 0.51741 0.66986 0.31963 0.0
H1275 H 0.48963 0.60686 0.32098 0.0
H1276 H 0.59909 0.55701 0.31614 0.0
H1277 H 0.62647 0.61971 0.31439 0.0
H1278 H 0.55191 0.52156 0.30583 0.0
H1279 H 0.55217 0.55795 0.33898 0.0
H1280 H 0.53906 0.59833 0.35305 0.0
H1281 H 0.42008 0.58874 0.34783 0.0
H1282 H 0.4325 0.54869 0.33365 0.0
H1283 H 0.49606 0.33393 0.31854 0.0
H1284 H 0.52617 0.39609 0.31995 0.0
H1285 H 0.41757 0.4498 0.31729 0.0
H1286 H 0.3875 0.38807 0.31569 0.0
H1287 H 0.46552 0.48162 0.33202 0.0
H1288 H 0.46789 0.44668 0.29833 0.0
H1289 H 0.48283 0.40488 0.28465 0.0
H1290 H 0.60059 0.41035 0.29173 0.0
H1291 H 0.58625 0.45177 0.30555 0.0
C1292 C 0.53555 0.64544 0.31895 0.0
C1293 C 0.57412 0.64981 0.31689 0.0
C1294 C 0.51969 0.60935 0.31977 0.0
C1295 C 0.54224 0.57687 0.31876 0.0
C1296 C 0.58093 0.5814 0.31691 0.0
C1297 C 0.59663 0.61736 0.31595 0.0
C1298 C 0.52546 0.53821 0.31917 0.0
C1299 C 0.53358 0.51279 0.31167 0.0
C1300 C 0.50089 0.52656 0.32667 0.0
C1301 C 0.49329 0.55062 0.33519 0.0
C1302 C 0.52322 0.56469 0.34079 0.0
C1303 C 0.51591 0.58748 0.34879 0.0
C1304 C 0.47876 0.59618 0.35132 0.0
C1305 C 0.44884 0.58202 0.34586 0.0
C1306 C 0.456 0.55924 0.33784 0.0
C1307 C 0.4786 0.35899 0.31836 0.0
C1308 C 0.43944 0.35611 0.31696 0.0
C1309 C 0.49582 0.39446 0.31915 0.0
C1310 C 0.4741 0.4276 0.31869 0.0
C1311 C 0.43486 0.42466 0.31768 0.0
C1312 C 0.41776 0.38933 0.31673 0.0
C1313 C 0.49227 0.4654 0.31874 0.0
C1314 C 0.48422 0.49056 0.32627 0.0
C1315 C 0.5173 0.47671 0.31135 0.0
C1316 C 0.52595 0.45194 0.30303 0.0
C1317 C 0.49693 0.43868 0.29702 0.0
C1318 C 0.50529 0.41512 0.28923 0.0
C1319 C 0.54262 0.40487 0.28734 0.0
C1320 C 0.57168 0.41825 0.29322 0.0
C1321 C 0.56345 0.44178 0.30103 0.0
H1322 H 0.54905 0.38664 0.28131 0.0
H1323 H 0.47316 0.61382 0.35751 0.0
H1324 H 0.6707 0.99073 0.56874 0.0
H1325 H 0.60816 0.01958 0.57004 0.0
H1326 H 0.55682 0.90952 0.56825 0.0
H1327 H 0.61911 0.88092 0.5665 0.0
H1328 H 0.52018 0.95274 0.55726 0.0
H1329 H 0.56127 0.96553 0.5899 0.0
H1330 H 0.60374 0.98376 0.60317 0.0
H1331 H 0.59452 0.09998 0.59486 0.0
H1332 H 0.55237 0.0824 0.58146 0.0
H1333 H 0.33504 0.01517 0.56999 0.0
H1334 H 0.39727 0.98533 0.57148 0.0
H1335 H 0.45079 0.09231 0.56605 0.0
H1336 H 0.38886 0.12216 0.56442 0.0
H1337 H 0.48481 0.04993 0.58131 0.0
H1338 H 0.44467 0.03424 0.54825 0.0
H1339 H 0.40072 0.01428 0.53547 0.0
H1340 H 0.40675 0.90004 0.54557 0.0
H1341 H 0.45035 0.91945 0.55851 0.0
C1342 C 0.64607 0.9727 0.56874 0.0
C1343 C 0.64986 0.93356 0.56752 0.0
C1344 C 0.61023 0.9892 0.56952 0.0
C1345 C 0.57744 0.96681 0.56935 0.0
C1346 C 0.58144 0.92757 0.56837 0.0
C1347 C 0.61715 0.91119 0.56741 0.0
C1348 C 0.53898 0.98419 0.56967 0.0
C1349 C 0.51242 0.97348 0.56265 0.0
C1350 C 0.52863 0.0119 0.57656 0.0
C1351 C 0.55394 0.02259 0.58462 0.0
C1352 C 0.56852 0.99494 0.59086 0.0
C1353 C 0.5925 0.00517 0.59841 0.0
C1354 C 0.6019 0.04299 0.59984 0.0
C1355 C 0.58726 0.07069 0.59374 0.0
C1356 C 0.56329 0.06062 0.58617 0.0
C1357 C 0.36006 0.03239 0.56921 0.0
C1358 C 0.35701 0.07099 0.56704 0.0
C1359 C 0.39559 0.01529 0.57004 0.0
C1360 C 0.4287 0.03657 0.56883 0.0
C1361 C 0.42567 0.07536 0.56702 0.0
C1362 C 0.39022 0.09233 0.56606 0.0
C1363 C 0.46646 0.01818 0.56898 0.0
C1364 C 0.49276 0.02888 0.57602 0.0
C1365 C 0.47647 0.99008 0.56221 0.0
C1366 C 0.45043 0.97837 0.55441 0.0
C1367 C 0.43636 0.00492 0.5478 0.0
C1368 C 0.41157 0.9937 0.54051 0.0
C1369 C 0.40086 0.95593 0.53972 0.0
C1370 C 0.41502 0.92929 0.5462 0.0
C1371 C 0.43979 0.94038 0.55351 0.0
H1372 H 0.38167 0.9473 0.53408 0.0
H1373 H 0.62047 0.05085 0.6057 0.0
H1374 H 0.01384 0.17183 0.82069 0.0
H1375 H 0.98458 0.10942 0.82221 0.0
H1376 H 0.09138 0.05696 0.81564 0.0
H1377 H 0.12023 0.11886 0.81386 0.0
H1378 H 0.04035 0.02467 0.80554 0.0
H1379 H 0.05126 0.05659 0.8388 0.0
H1380 H 0.04345 0.09531 0.85342 0.0
H1381 H 0.92303 0.08853 0.85059 0.0
H1382 H 0.93014 0.05018 0.83587 0.0
H1383 H 0.99125 0.83646 0.81903 0.0
H1384 H 0.01973 0.89934 0.82037 0.0
H1385 H 0.9097 0.95022 0.81803 0.0
H1386 H 0.88117 0.88762 0.81644 0.0
H1387 H 0.96161 0.98245 0.83304 0.0
H1388 H 0.95418 0.95073 0.7991 0.0
H1389 H 0.96527 0.90984 0.78501 0.0
H1390 H 0.08464 0.91421 0.7901 0.0
H1391 H 0.07418 0.95469 0.80432 0.0
C1392 C 0.03108 0.14695 0.81967 0.0
C1393 C 0.06931 0.15035 0.81712 0.0
C1394 C 0.01439 0.11122 0.82057 0.0
C1395 C 0.03575 0.07823 0.81908 0.0
C1396 C 0.07413 0.0818 0.81677 0.0
C1397 C 0.09066 0.11733 0.81578 0.0
C1398 C 0.01809 0.04001 0.81947 0.0
C1399 C 0.0236 0.01544 0.81164 0.0
C1400 C 0.99567 0.02777 0.82733 0.0
C1401 C 0.99124 0.05085 0.83617 0.0
C1402 C 0.02311 0.06363 0.84125 0.0
C1403 C 0.01882 0.08545 0.84956 0.0
C1404 C 0.98277 0.09446 0.85292 0.0
C1405 C 0.95094 0.08158 0.84798 0.0
C1406 C 0.95509 0.05977 0.83965 0.0
C1407 C 0.97311 0.86102 0.81892 0.0
C1408 C 0.934 0.85711 0.81759 0.0
C1409 C 0.9894 0.89691 0.81968 0.0
C1410 C 0.96681 0.92944 0.81929 0.0
C1411 C 0.92761 0.92551 0.81838 0.0
C1412 C 0.9114 0.88972 0.81743 0.0
C1413 C 0.98424 0.96755 0.81917 0.0
C1414 C 0.97854 0.99195 0.827 0.0
C1415 C 0.00703 0.97951 0.8114 0.0
C1416 C 0.01336 0.95536 0.80283 0.0
C1417 C 0.98276 0.94267 0.79727 0.0
C1418 C 0.98894 0.91963 0.78925 0.0
C1419 C 0.02563 0.90933 0.78668 0.0
C1420 C 0.05623 0.92215 0.79211 0.0
C1421 C 0.0502 0.94516 0.80015 0.0
H1422 H 0.03036 0.89151 0.78047 0.0
H1423 H 0.97949 0.11136 0.85936 0.0
H1424 H 0.60276 0.87415 0.19039 0.0
H1425 H 0.54615 0.91239 0.18908 0.0
H1426 H 0.61328 0.00835 0.1808 0.0
H1427 H 0.6708 0.97008 0.18219 0.0
H1428 H 0.55995 0.02639 0.19439 0.0
H1429 H 0.56143 0.96135 0.16408 0.0
H1430 H 0.56552 0.90576 0.15347 0.0
H1431 H 0.46656 0.85908 0.16671 0.0
H1432 H 0.46216 0.91417 0.17749 0.0
H1433 H 0.40455 0.13977 0.18216 0.0
H1434 H 0.4625 0.10305 0.18122 0.0
H1435 H 0.39953 1.00121 0.18664 0.0
H1436 H 0.34085 0.03795 0.18721 0.0
H1437 H 0.45212 0.98721 0.17392 0.0
H1438 H 0.45157 0.04851 0.2047 0.0
H1439 H 0.44706 0.10222 0.21593 0.0
H1440 H 0.54354 0.15359 0.20263 0.0
H1441 H 0.54833 0.10041 0.19124 0.0
C1442 C 0.60579 0.90335 0.18825 0.0
C1443 C 0.64161 0.9189 0.18636 0.0
C1444 C 0.57316 0.92517 0.18746 0.0
C1445 C 0.57529 0.96312 0.1847 0.0
C1446 C 0.61092 0.97903 0.18289 0.0
C1447 C 0.64378 0.95709 0.18366 0.0
C1448 C 0.54022 0.98609 0.18397 0.0
C1449 C 0.53663 0.01823 0.18978 0.0
C1450 C 0.50926 0.97478 0.17819 0.0
C1451 C 0.51164 0.94178 0.17165 0.0
C1452 C 0.54068 0.93912 0.16477 0.0
C1453 C 0.54303 0.90771 0.15872 0.0
C1454 C 0.51636 0.87887 0.15943 0.0
C1455 C 0.48721 0.88143 0.16617 0.0
C1456 C 0.48475 0.91276 0.17225 0.0
C1457 C 0.40291 0.10951 0.1831 0.0
C1458 C 0.36806 0.09182 0.18486 0.0
C1459 C 0.4362 0.08853 0.18262 0.0
C1460 C 0.43572 0.04939 0.18411 0.0
C1461 C 0.40077 0.0314 0.18552 0.0
C1462 C 0.36721 0.0524 0.18585 0.0
C1463 C 0.47173 0.02756 0.18437 0.0
C1464 C 0.47548 0.99557 0.17849 0.0
C1465 C 0.50274 0.03877 0.19017 0.0
C1466 C 0.50008 0.07065 0.19706 0.0
C1467 C 0.47167 0.07138 0.20413 0.0
C1468 C 0.46908 0.10171 0.21053 0.0
C1469 C 0.49494 0.13134 0.20998 0.0
C1470 C 0.5235 0.13065 0.20304 0.0
C1471 C 0.52619 0.10041 0.19662 0.0
H1472 H 0.49288 0.1548 0.21494 0.0
H1473 H 0.51824 0.85457 0.15474 0.0
H1474 H 0.87109 0.90064 0.43264 0.0
H1475 H 0.90872 0.95824 0.4325 0.0
H1476 H 0.00871 0.89357 0.43879 0.0
H1477 H 0.97111 0.83533 0.43882 0.0
H1478 H 0.99618 0.95733 0.45117 0.0
H1479 H 1.00093 0.92867 0.41733 0.0
H1480 H 0.97398 0.91297 0.40145 0.0
H1481 H 0.91059 0.01613 0.40162 0.0
H1482 H 0.93675 0.0322 0.41757 0.0
H1483 H 0.13002 0.10195 0.44582 0.0
H1484 H 0.09258 0.04487 0.44508 0.0
H1485 H 0.99998 0.1074 0.43277 0.0
H1486 H 0.03807 0.16511 0.4332 0.0
H1487 H 0.00783 0.04441 0.42336 0.0
H1488 H 0.99783 0.07321 0.45678 0.0
H1489 H 0.01817 0.08929 0.47327 0.0
H1490 H 0.0851 0.98853 0.47449 0.0
H1491 H 0.0652 0.97184 0.458 0.0
C1492 C 0.90117 0.89851 0.4339 0.0
C1493 C 0.91811 0.86334 0.43575 0.0
C1494 C 0.92265 0.93151 0.43378 0.0
C1495 C 0.96152 0.93023 0.43561 0.0
C1496 C 0.97873 0.89516 0.43734 0.0
C1497 C 0.95728 0.86191 0.43731 0.0
C1498 C 0.98355 0.96582 0.43617 0.0
C1499 C 0.99937 0.9761 0.44505 0.0
C1500 C 0.98621 0.99102 0.4283 0.0
C1501 C 0.97054 0.98146 0.41869 0.0
C1502 C 0.98099 0.94785 0.41402 0.0
C1503 C 0.96591 0.93892 0.405 0.0
C1504 C 0.94052 0.96349 0.40054 0.0
C1505 C 0.93023 0.9971 0.40509 0.0
C1506 C 0.94521 0.00615 0.41411 0.0
C1507 C 0.10165 0.10389 0.44296 0.0
C1508 C 0.08722 0.1384 0.43953 0.0
C1509 C 0.08006 0.07103 0.44263 0.0
C1510 C 0.04314 0.07167 0.43899 0.0
C1511 C 0.02838 0.10609 0.43562 0.0
C1512 C 0.05015 0.13914 0.43591 0.0
C1513 C 0.02083 0.03604 0.43838 0.0
C1514 C 0.00483 0.02572 0.4295 0.0
C1515 C 0.01738 0.01104 0.44631 0.0
C1516 C 0.03024 0.02143 0.45613 0.0
C1517 C 0.01711 0.05462 0.46054 0.0
C1518 C 0.02838 0.06373 0.4699 0.0
C1519 C 0.05283 0.0399 0.47493 0.0
C1520 C 0.06607 0.0069 0.4706 0.0
C1521 C 0.05474 0.99755 0.46125 0.0
H1522 H 0.06164 0.04709 0.48217 0.0
H1523 H 0.92888 0.95652 0.39356 0.0
H1524 H 0.16568 0.47275 0.68618 0.0
H1525 H 0.10796 0.51092 0.68557 0.0
H1526 H 0.04106 0.4098 0.68357 0.0
H1527 H 0.09825 0.37159 0.68422 0.0
H1528 H 0.01661 0.46567 0.67098 0.0
H1529 H 0.0482 0.45207 0.70452 0.0
H1530 H 0.08976 0.4563 0.71873 0.0
H1531 H 0.09914 0.57597 0.71479 0.0
H1532 H 0.05808 0.57236 0.70046 0.0
H1533 H 0.83583 0.54073 0.68354 0.0
H1534 H 0.89399 0.50356 0.68256 0.0
H1535 H 0.95958 0.60352 0.68817 0.0
H1536 H 0.90197 0.64052 0.68934 0.0
H1537 H 0.98539 0.54834 0.69868 0.0
H1538 H 0.95336 0.56293 0.66532 0.0
H1539 H 0.9128 0.55922 0.65092 0.0
H1540 H 0.905 0.43913 0.6542 0.0
H1541 H 0.94513 0.44219 0.6687 0.0
C1542 C 0.13871 0.45866 0.68552 0.0
C1543 C 0.13666 0.41907 0.68531 0.0
C1544 C 0.10573 0.48051 0.68521 0.0
C1545 C 0.07014 0.46319 0.68459 0.0
C1546 C 0.06815 0.42379 0.68405 0.0
C1547 C 0.10096 0.40198 0.68447 0.0
C1548 C 0.03481 0.48586 0.68484 0.0
C1549 C 0.00957 0.48351 0.67707 0.0
C1550 C 0.02592 0.50961 0.69271 0.0
C1551 C 0.05042 0.51188 0.70135 0.0
C1552 C 0.05939 0.47924 0.70664 0.0
C1553 C 0.08281 0.48153 0.71472 0.0
C1554 C 0.09717 0.51636 0.71764 0.0
C1555 C 0.08805 0.54899 0.7125 0.0
C1556 C 0.0647 0.54685 0.7044 0.0
C1557 C 0.86263 0.55484 0.68451 0.0
C1558 C 0.86402 0.5937 0.68652 0.0
C1559 C 0.89594 0.53356 0.68392 0.0
C1560 C 0.93135 0.55074 0.68521 0.0
C1561 C 0.93272 0.58951 0.68716 0.0
C1562 C 0.89958 0.61069 0.68781 0.0
C1563 C 0.96704 0.52845 0.68477 0.0
C1564 C 0.99237 0.53072 0.69254 0.0
C1565 C 0.97606 0.50478 0.67687 0.0
C1566 C 0.95192 0.50284 0.66816 0.0
C1567 C 0.94274 0.53577 0.66302 0.0
C1568 C 0.91988 0.53377 0.65483 0.0
C1569 C 0.90624 0.49897 0.65166 0.0
C1570 C 0.91553 0.46607 0.65667 0.0
C1571 C 0.93836 0.46792 0.66487 0.0
H1572 H 0.88855 0.49748 0.64532 0.0
H1573 H 0.11529 0.51808 0.7239 0.0
H1574 H 0.4637 0.33871 0.93201 0.0
H1575 H 0.49973 0.39747 0.93076 0.0
H1576 H 0.40236 0.46058 0.94007 0.0
H1577 H 0.3662 0.40247 0.94128 0.0
H1578 H 0.43745 0.49534 0.92511 0.0
H1579 H 0.47266 0.44127 0.95565 0.0
H1580 H 0.49653 0.39125 0.96639 0.0
H1581 H 0.60192 0.39048 0.95114 0.0
H1582 H 0.57847 0.44015 0.94022 0.0
H1583 H 0.53074 0.66826 0.93773 0.0
H1584 H 0.49224 0.61082 0.93706 0.0
H1585 H 0.59191 0.54519 0.9309 0.0
H1586 H 0.63032 0.60187 0.93191 0.0
H1587 H 0.55474 0.51149 0.94411 0.0
H1588 H 0.52055 0.56589 0.9136 0.0
H1589 H 0.49683 0.61535 0.90268 0.0
H1590 H 0.39042 0.61527 0.91745 0.0
H1591 H 0.41368 0.56612 0.92855 0.0
C1592 C 0.44989 0.36509 0.93376 0.0
C1593 C 0.41201 0.36566 0.93678 0.0
C1594 C 0.47057 0.39866 0.93306 0.0
C1595 C 0.45382 0.43346 0.93538 0.0
C1596 C 0.41589 0.43415 0.93822 0.0
C1597 C 0.39529 0.40072 0.93895 0.0
C1598 C 0.47587 0.46915 0.93509 0.0
C1599 C 0.46294 0.49905 0.92932 0.0
C1600 C 0.50944 0.47382 0.94047 0.0
C1601 C 0.52367 0.44415 0.94706 0.0
C1602 C 0.50082 0.43023 0.95454 0.0
C1603 C 0.51429 0.40198 0.96067 0.0
C1604 C 0.55068 0.38763 0.95943 0.0
C1605 C 0.57372 0.40158 0.95208 0.0
C1606 C 0.56036 0.4298 0.94593 0.0
C1607 C 0.54426 0.64161 0.93611 0.0
C1608 C 0.58359 0.63961 0.93493 0.0
C1609 C 0.52224 0.60876 0.93571 0.0
C1610 C 0.53907 0.57346 0.9339 0.0
C1611 C 0.57817 0.57185 0.93239 0.0
C1612 C 0.60013 0.6044 0.93294 0.0
C1613 C 0.51669 0.53782 0.93402 0.0
C1614 C 0.52942 0.50789 0.93982 0.0
C1615 C 0.48306 0.53313 0.92864 0.0
C1616 C 0.469 0.5626 0.92196 0.0
C1617 C 0.49219 0.57662 0.91457 0.0
C1618 C 0.47881 0.60456 0.90834 0.0
C1619 C 0.44218 0.61851 0.90939 0.0
C1620 C 0.41881 0.60447 0.91665 0.0
C1621 C 0.43206 0.57655 0.92291 0.0
H1622 H 0.43187 0.64014 0.90456 0.0
H1623 H 0.56106 0.36576 0.96418 0.0
H1624 H 0.60269 0.62669 0.05295 0.0
H1625 H 0.54567 0.58886 0.054 0.0
H1626 H 0.60752 0.50096 0.06852 0.0
H1627 H 0.66535 0.53883 0.06749 0.0
H1628 H 0.55854 0.47376 0.05425 0.0
H1629 H 0.55212 0.55839 0.08141 0.0
H1630 H 0.55394 0.62071 0.08927 0.0
H1631 H 0.46033 0.65748 0.07203 0.0
H1632 H 0.45827 0.59552 0.06398 0.0
H1633 H 0.39922 0.36929 0.06798 0.0
H1634 H 0.45732 0.40602 0.06853 0.0
H1635 H 0.39662 0.50424 0.05869 0.0
H1636 H 0.33781 0.4678 0.05862 0.0
H1637 H 0.44626 0.52579 0.07098 0.0
H1638 H 0.45261 0.44619 0.0432 0.0
H1639 H 0.4497 0.38618 0.03427 0.0
H1640 H 0.54169 0.34271 0.05106 0.0
H1641 H 0.5449 0.40238 0.06016 0.0
C1642 C 0.60443 0.59936 0.0564 0.0
C1643 C 0.63876 0.58608 0.06025 0.0
C1644 C 0.57161 0.57775 0.057 0.0
C1645 C 0.57211 0.54234 0.06148 0.0
C1646 C 0.60645 0.52834 0.06508 0.0
C1647 C 0.63947 0.55005 0.06449 0.0
C1648 C 0.53657 0.52032 0.06245 0.0
C1649 C 0.53417 0.48482 0.05804 0.0
C1650 C 0.50434 0.53531 0.06711 0.0
C1651 C 0.50523 0.5724 0.07204 0.0
C1652 C 0.53207 0.57984 0.07926 0.0
C1653 C 0.53313 0.61509 0.08375 0.0
C1654 C 0.50732 0.64306 0.08114 0.0
C1655 C 0.48032 0.63579 0.07404 0.0
C1656 C 0.47917 0.6006 0.06952 0.0
C1657 C 0.39818 0.39883 0.06603 0.0
C1658 C 0.364 0.41562 0.06319 0.0
C1659 C 0.43152 0.41978 0.06627 0.0
C1660 C 0.43178 0.45773 0.06337 0.0
C1661 C 0.39734 0.47496 0.06089 0.0
C1662 C 0.3637 0.45416 0.06086 0.0
C1663 C 0.46802 0.47907 0.06276 0.0
C1664 C 0.4706 0.51452 0.06721 0.0
C1665 C 0.50022 0.46434 0.05798 0.0
C1666 C 0.49877 0.42863 0.05242 0.0
C1667 C 0.4721 0.42376 0.04502 0.0
C1668 C 0.4704 0.38981 0.03993 0.0
C1669 C 0.49541 0.36059 0.04212 0.0
C1670 C 0.52229 0.36534 0.04938 0.0
C1671 C 0.52411 0.39924 0.0545 0.0
H1672 H 0.494 0.33431 0.03818 0.0
H1673 H 0.50819 0.67034 0.08462 0.0
H1674 H 0.36756 0.10237 0.3115 0.0
H1675 H 0.40466 0.04469 0.31245 0.0
H1676 H 0.50663 0.11021 0.31471 0.0
H1677 H 0.46955 0.16854 0.31373 0.0
H1678 H 0.51241 0.05259 0.30137 0.0
H1679 H 0.47231 0.06598 0.33423 0.0
H1680 H 0.42627 0.07495 0.34735 0.0
H1681 H 0.36936 0.97319 0.33906 0.0
H1682 H 0.41476 0.96389 0.3258 0.0
H1683 H 0.63613 0.90585 0.31314 0.0
H1684 H 0.59789 0.96263 0.31386 0.0
H1685 H 0.49671 0.89526 0.31364 0.0
H1686 H 0.53517 0.8376 0.31311 0.0
H1687 H 0.48964 0.95349 0.32593 0.0
H1688 H 0.52788 0.93964 0.29314 0.0
H1689 H 0.57248 0.92999 0.27973 0.0
H1690 H 0.63067 0.03178 0.28737 0.0
H1691 H 0.58676 0.04176 0.30092 0.0
C1692 C 0.39788 0.10473 0.31224 0.0
C1693 C 0.41551 0.1403 0.31254 0.0
C1694 C 0.41905 0.07157 0.31283 0.0
C1695 C 0.45842 0.07303 0.31373 0.0
C1696 C 0.47625 0.1084 0.31404 0.0
C1697 C 0.455 0.14173 0.31352 0.0
C1698 C 0.48085 0.03753 0.31404 0.0
C1699 C 0.50787 0.0312 0.30684 0.0
C1700 C 0.474 0.00898 0.32097 0.0
C1701 C 0.44674 0.01444 0.32896 0.0
C1702 C 0.4498 0.04568 0.33515 0.0
C1703 C 0.42385 0.05079 0.34262 0.0
C1704 C 0.39485 0.0247 0.34402 0.0
C1705 C 0.39181 0.9934 0.33797 0.0
C1706 C 0.41767 0.98817 0.33048 0.0
C1707 C 0.60573 0.90286 0.31326 0.0
C1708 C 0.58876 0.86699 0.31295 0.0
C1709 C 0.58386 0.93553 0.31365 0.0
C1710 C 0.54436 0.9334 0.31358 0.0
C1711 C 0.52716 0.89766 0.31363 0.0
C1712 C 0.54916 0.86472 0.31332 0.0
C1713 C 0.52143 0.96865 0.3133 0.0
C1714 C 0.49424 0.9749 0.32048 0.0
C1715 C 0.52787 0.99704 0.30629 0.0
C1716 C 0.55421 0.99127 0.2981 0.0
C1717 C 0.55035 0.95983 0.292 0.0
C1718 C 0.57549 0.95432 0.28437 0.0
C1719 C 0.60444 0.98021 0.28271 0.0
C1720 C 0.60826 0.01173 0.28867 0.0
C1721 C 0.58323 0.01734 0.29632 0.0
H1722 H 0.62387 0.9759 0.27679 0.0
H1723 H 0.3748 0.02871 0.34981 0.0
H1724 H 0.90349 0.87794 0.55481 0.0
H1725 H 0.96011 0.91595 0.55624 0.0
H1726 H 0.89553 0.00555 0.56923 0.0
H1727 H 0.83792 0.96749 0.56775 0.0
H1728 H 0.94569 0.03163 0.55562 0.0
H1729 H 0.95122 0.94967 0.5831 0.0
H1730 H 0.9492 0.88845 0.5915 0.0
H1731 H 0.04409 0.84988 0.57499 0.0
H1732 H 0.04635 0.91069 0.56639 0.0
H1733 H 0.10584 0.13632 0.56868 0.0
H1734 H 0.0477 0.09986 0.56959 0.0
H1735 H 0.10731 1.00101 0.55973 0.0
H1736 H 0.16628 0.03728 0.55926 0.0
H1737 H 0.05804 0.98078 0.57254 0.0
H1738 H 0.05116 0.05898 0.54437 0.0
H1739 H 0.05344 0.11858 0.53524 0.0
H1740 H 0.96169 0.16232 0.55207 0.0
H1741 H 0.95919 0.10314 0.56139 0.0
C1742 C 0.90101 0.9057 0.558 0.0
C1743 C 0.86592 0.91944 0.56124 0.0
C1744 C 0.93365 0.92738 0.55884 0.0
C1745 C 0.9323 0.96334 0.56301 0.0
C1746 C 0.89729 0.97772 0.56605 0.0
C1747 C 0.86438 0.95593 0.56521 0.0
C1748 C 0.96761 0.9857 0.56404 0.0
C1749 C 0.97004 0.02085 0.55947 0.0
C1750 C 0.99982 0.97112 0.56882 0.0
C1751 C 0.99878 0.93466 0.57406 0.0
C1752 C 0.9715 0.92805 0.58122 0.0
C1753 C 0.97034 0.89343 0.58602 0.0
C1754 C 0.99645 0.86527 0.58377 0.0
C1755 C 0.02386 0.87171 0.57672 0.0
C1756 C 0.02513 0.90627 0.57189 0.0
C1757 C 0.10666 0.10671 0.56678 0.0
C1758 C 0.14058 0.08972 0.5638 0.0
C1759 C 0.07329 0.08591 0.56724 0.0
C1760 C 0.07268 0.04787 0.56445 0.0
C1761 C 0.10688 0.03039 0.56185 0.0
C1762 C 0.1406 0.05109 0.56159 0.0
C1763 C 0.0363 0.02675 0.56406 0.0
C1764 C 0.03366 0.99176 0.56874 0.0
C1765 C 0.004 0.04128 0.55928 0.0
C1766 C 0.00523 0.07677 0.55363 0.0
C1767 C 0.03162 0.0814 0.54616 0.0
C1768 C 0.03294 0.1151 0.54095 0.0
C1769 C 0.00779 0.14426 0.54309 0.0
C1770 C 0.98119 0.13973 0.55043 0.0
C1771 C 0.97979 0.10611 0.55567 0.0
H1772 H 0.00886 0.17033 0.53905 0.0
H1773 H 0.99549 0.83848 0.58749 0.0
H1774 H 0.97304 0.66948 0.81082 0.0
H1775 H 0.0116 0.61186 0.81154 0.0
H1776 H 0.91179 0.54604 0.81711 0.0
H1777 H 0.87325 0.60299 0.81626 0.0
H1778 H 0.97503 0.52564 0.82878 0.0
H1779 H 0.94231 0.54784 0.79542 0.0
H1780 H 0.93927 0.5857 0.78054 0.0
H1781 H 0.06006 0.59367 0.78006 0.0
H1782 H 0.06382 0.55638 0.79505 0.0
H1783 H 0.04097 0.34028 0.81726 0.0
H1784 H 0.00456 0.399 0.81824 0.0
H1785 H 0.10066 0.46134 0.80783 0.0
H1786 H 0.1368 0.40332 0.8067 0.0
H1787 H 0.0399 0.48457 0.79889 0.0
H1788 H 0.07472 0.4631 0.83168 0.0
H1789 H 0.08034 0.42762 0.84689 0.0
H1790 H 0.9597 0.4206 0.8489 0.0
H1791 H 0.95336 0.4556 0.83362 0.0
C1792 C 0.95945 0.64278 0.81232 0.0
C1793 C 0.92008 0.64078 0.81342 0.0
C1794 C 0.98145 0.6099 0.81269 0.0
C1795 C 0.96448 0.57463 0.81433 0.0
C1796 C 0.92546 0.57289 0.81585 0.0
C1797 C 0.90346 0.6055 0.81531 0.0
C1798 C 0.98683 0.53917 0.81396 0.0
C1799 C 0.98897 0.51644 0.82223 0.0
C1800 C 0.00558 0.52756 0.80547 0.0
C1801 C 1.00333 0.5497 0.79642 0.0
C1802 C 0.96821 0.55796 0.7922 0.0
C1803 C 0.96635 0.57926 0.78373 0.0
C1804 C 0.99943 0.59218 0.77938 0.0
C1805 C 0.03445 0.58371 0.78346 0.0
C1806 C 0.03647 0.56249 0.79193 0.0
C1807 C 0.05436 0.36648 0.81519 0.0
C1808 C 0.09193 0.36685 0.81192 0.0
C1809 C 0.03355 0.40011 0.81579 0.0
C1810 C 0.04993 0.43477 0.81317 0.0
C1811 C 0.08729 0.43507 0.80987 0.0
C1812 C 0.10801 0.40167 0.80927 0.0
C1813 C 0.02831 0.47081 0.81373 0.0
C1814 C 0.02615 0.49368 0.80548 0.0
C1815 C 0.00992 0.48273 0.82227 0.0
C1816 C 0.01358 0.46159 0.83145 0.0
C1817 C 0.04939 0.45369 0.83532 0.0
C1818 C 0.05271 0.43373 0.84396 0.0
C1819 C 0.0204 0.42177 0.84884 0.0
C1820 C 0.9847 0.42983 0.8451 0.0
C1821 C 0.98123 0.44975 0.83645 0.0
H1822 H 0.02303 0.40633 0.85554 0.0
H1823 H 0.99792 0.60866 0.77283 0.0
loop_
_geom_bond_atom_site_label_1
_geom_bond_atom_site_label_2
_geom_bond_distance
_geom_bond_site_symmetry_2
_ccdc_geom_bond_type
Co0 O1 2.216 . S
Co0 O2 2.091 . S
Co0 O4 2.004 . S
Co0 O10 2.021 . S
Co0 O12 2.137 . S
Co0 O13 2.244 . S
O1 Co0 2.216 . S
O1 C8 1.247 . S
O2 Co0 2.091 . S
O2 C8 1.261 . S
C3 O12 1.247 . S
C3 O13 1.272 . S
O4 Co0 2.004 . S
O4 C9 1.259 . S
Co5 O6 2.061 . S
Co5 O11 2.052 . S
Co5 O13 2.135 . S
O6 Co5 2.061 . S
O6 C9 1.235 . S
C7 O10 1.238 . S
C7 O11 1.241 . S
C8 O1 1.247 . S
C8 O2 1.261 . S
C9 O4 1.259 . S
C9 O6 1.235 . S
O10 Co0 2.021 . S
O10 C7 1.238 . S
O11 Co5 2.052 . S
O11 C7 1.241 . S
O12 Co0 2.137 . S
O12 C3 1.247 . S
O13 Co0 2.244 . S
O13 C3 1.272 . S
O13 Co5 2.135 . S
Co14 O15 2.216 . S
Co14 O16 2.091 . S
Co14 O18 2.004 . S
Co14 O24 2.021 . S
Co14 O26 2.137 . S
Co14 O27 2.244 . S
O15 Co14 2.216 . S
O15 C22 1.247 . S
O16 Co14 2.091 . S
O16 C22 1.261 . S
C17 O26 1.247 . S
C17 O27 1.272 . S
O18 Co14 2.004 . S
O18 C23 1.259 . S
Co19 O20 2.061 . S
Co19 O25 2.052 . S
Co19 O27 2.135 . S
O20 Co19 2.061 . S
O20 C23 1.235 . S
C21 O24 1.238 . S
C21 O25 1.241 . S
C22 O15 1.247 . S
C22 O16 1.261 . S
C23 O18 1.259 . S
C23 O20 1.235 . S
O24 Co14 2.021 . S
O24 C21 1.238 . S
O25 Co19 2.052 . S
O25 C21 1.241 . S
O26 Co14 2.137 . S
O26 C17 1.247 . S
O27 Co14 2.244 . S
O27 C17 1.272 . S
O27 Co19 2.135 . S
Co28 O29 2.216 . S
Co28 O30 2.091 . S
Co28 O32 2.004 . S
Co28 O38 2.021 . S
Co28 O40 2.137 . S
Co28 O41 2.244 . S
O29 Co28 2.216 . S
O29 C36 1.247 . S
O30 Co28 2.091 . S
O30 C36 1.261 . S
C31 O40 1.247 . S
C31 O41 1.272 . S
O32 Co28 2.004 . S
O32 C37 1.259 . S
Co33 O34 2.061 . S
Co33 O39 2.052 . S
Co33 O41 2.135 . S
O34 Co33 2.061 . S
O34 C37 1.235 . S
C35 O38 1.238 . S
C35 O39 1.241 . S
C36 O29 1.247 . S
C36 O30 1.261 . S
C37 O32 1.259 . S
C37 O34 1.235 . S
O38 Co28 2.021 . S
O38 C35 1.238 . S
O39 Co33 2.052 . S
O39 C35 1.241 . S
O40 Co28 2.137 . S
O40 C31 1.247 . S
O41 Co28 2.244 . S
O41 C31 1.272 . S
O41 Co33 2.135 . S
Co42 O43 2.216 . S
Co42 O44 2.091 . S
Co42 O46 2.004 . S
Co42 O52 2.021 . S
Co42 O54 2.137 . S
Co42 O55 2.244 . S
O43 Co42 2.216 . S
O43 C50 1.247 . S
O44 Co42 2.091 . S
O44 C50 1.261 . S
C45 O54 1.247 . S
C45 O55 1.272 . S
O46 Co42 2.004 . S
O46 C51 1.259 . S
Co47 O48 2.061 . S
Co47 O53 2.052 . S
Co47 O55 2.135 . S
O48 Co47 2.061 . S
O48 C51 1.235 . S
C49 O52 1.238 . S
C49 O53 1.241 . S
C50 O43 1.247 . S
C50 O44 1.261 . S
C51 O46 1.259 . S
C51 O48 1.235 . S
O52 Co42 2.021 . S
O52 C49 1.238 . S
O53 Co47 2.052 . S
O53 C49 1.241 . S
O54 Co42 2.137 . S
O54 C45 1.247 . S
O55 Co42 2.244 . S
O55 C45 1.272 . S
O55 Co47 2.135 . S
Co56 O57 2.216 . S
Co56 O58 2.091 . S
Co56 O60 2.004 . S
Co56 O66 2.021 . S
Co56 O68 2.137 . S
Co56 O69 2.244 . S
O57 Co56 2.216 . S
O57 C64 1.247 . S
O58 Co56 2.091 . S
O58 C64 1.261 . S
C59 O68 1.247 . S
C59 O69 1.272 . S
O60 Co56 2.004 . S
O60 C65 1.259 . S
Co61 O62 2.061 . S
Co61 O67 2.052 . S
Co61 O69 2.135 . S
O62 Co61 2.061 . S
O62 C65 1.235 . S
C63 O66 1.238 . S
C63 O67 1.241 . S
C64 O57 1.247 . S
C64 O58 1.261 . S
C65 O60 1.259 . S
C65 O62 1.235 . S
O66 Co56 2.021 . S
O66 C63 1.238 . S
O67 Co61 2.052 . S
O67 C63 1.241 . S
O68 Co56 2.137 . S
O68 C59 1.247 . S
O69 Co56 2.244 . S
O69 C59 1.272 . S
O69 Co61 2.135 . S
Co70 O71 2.216 . S
Co70 O72 2.091 . S
Co70 O74 2.004 . S
Co70 O80 2.021 . S
Co70 O82 2.137 . S
Co70 O83 2.244 . S
O71 Co70 2.216 . S
O71 C78 1.247 . S
O72 Co70 2.091 . S
O72 C78 1.261 . S
C73 O82 1.247 . S
C73 O83 1.272 . S
O74 Co70 2.004 . S
O74 C79 1.259 . S
Co75 O76 2.061 . S
Co75 O81 2.052 . S
Co75 O83 2.135 . S
O76 Co75 2.061 . S
O76 C79 1.235 . S
C77 O80 1.238 . S
C77 O81 1.241 . S
C78 O71 1.247 . S
C78 O72 1.261 . S
C79 O74 1.259 . S
C79 O76 1.235 . S
O80 Co70 2.021 . S
O80 C77 1.238 . S
O81 Co75 2.052 . S
O81 C77 1.241 . S
O82 Co70 2.137 . S
O82 C73 1.247 . S
O83 Co70 2.244 . S
O83 C73 1.272 . S
O83 Co75 2.135 . S
Co84 O85 2.216 . S
Co84 O86 2.091 . S
Co84 O88 2.004 . S
Co84 O94 2.021 . S
Co84 O96 2.137 . S
Co84 O97 2.244 . S
O85 Co84 2.216 . S
O85 C92 1.247 . S
O86 Co84 2.091 . S
O86 C92 1.261 . S
C87 O96 1.247 . S
C87 O97 1.272 . S
O88 Co84 2.004 . S
O88 C93 1.259 . S
Co89 O90 2.061 . S
Co89 O95 2.052 . S
Co89 O97 2.135 . S
O90 Co89 2.061 . S
O90 C93 1.235 . S
C91 O94 1.238 . S
C91 O95 1.241 . S
C92 O85 1.247 . S
C92 O86 1.261 . S
C93 O88 1.259 . S
C93 O90 1.235 . S
O94 Co84 2.021 . S
O94 C91 1.238 . S
O95 Co89 2.052 . S
O95 C91 1.241 . S
O96 Co84 2.137 . S
O96 C87 1.247 . S
O97 Co84 2.244 . S
O97 C87 1.272 . S
O97 Co89 2.135 . S
Co98 O99 2.216 . S
Co98 O100 2.091 . S
Co98 O102 2.004 . S
Co98 O108 2.021 . S
Co98 O110 2.137 . S
Co98 O111 2.244 . S
O99 Co98 2.216 . S
O99 C106 1.247 . S
O100 Co98 2.091 . S
O100 C106 1.261 . S
C101 O110 1.247 . S
C101 O111 1.272 . S
O102 Co98 2.004 . S
O102 C107 1.259 . S
Co103 O104 2.061 . S
Co103 O109 2.052 . S
Co103 O111 2.135 . S
O104 Co103 2.061 . S
O104 C107 1.235 . S
C105 O108 1.238 . S
C105 O109 1.241 . S
C106 O99 1.247 . S
C106 O100 1.261 . S
C107 O102 1.259 . S
C107 O104 1.235 . S
O108 Co98 2.021 . S
O108 C105 1.238 . S
O109 Co103 2.052 . S
O109 C105 1.241 . S
O110 Co98 2.137 . S
O110 C101 1.247 . S
O111 Co98 2.244 . S
O111 C101 1.272 . S
O111 Co103 2.135 . S
Co112 O113 2.216 . S
Co112 O114 2.091 . S
Co112 O116 2.004 . S
Co112 O122 2.021 . S
Co112 O124 2.137 . S
Co112 O125 2.244 . S
O113 Co112 2.216 . S
O113 C120 1.247 . S
O114 Co112 2.091 . S
O114 C120 1.261 . S
C115 O124 1.247 . S
C115 O125 1.272 . S
O116 Co112 2.004 . S
O116 C121 1.259 . S
Co117 O118 2.061 . S
Co117 O123 2.052 . S
Co117 O125 2.135 . S
O118 Co117 2.061 . S
O118 C121 1.235 . S
C119 O122 1.238 . S
C119 O123 1.241 . S
C120 O113 1.247 . S
C120 O114 1.261 . S
C121 O116 1.259 . S
C121 O118 1.235 . S
O122 Co112 2.021 . S
O122 C119 1.238 . S
O123 Co117 2.052 . S
O123 C119 1.241 . S
O124 Co112 2.137 . S
O124 C115 1.247 . S
O125 Co112 2.244 . S
O125 C115 1.272 . S
O125 Co117 2.135 . S
Co126 O127 2.216 . S
Co126 O128 2.091 . S
Co126 O130 2.004 . S
Co126 O136 2.021 . S
Co126 O138 2.137 . S
Co126 O139 2.244 . S
O127 Co126 2.216 . S
O127 C134 1.247 . S
O128 Co126 2.091 . S
O128 C134 1.261 . S
C129 O138 1.247 . S
C129 O139 1.272 . S
O130 Co126 2.004 . S
O130 C135 1.259 . S
Co131 O132 2.061 . S
Co131 O137 2.052 . S
Co131 O139 2.135 . S
O132 Co131 2.061 . S
O132 C135 1.235 . S
C133 O136 1.238 . S
C133 O137 1.241 . S
C134 O127 1.247 . S
C134 O128 1.261 . S
C135 O130 1.259 . S
C135 O132 1.235 . S
O136 Co126 2.021 . S
O136 C133 1.238 . S
O137 Co131 2.052 . S
O137 C133 1.241 . S
O138 Co126 2.137 . S
O138 C129 1.247 . S
O139 Co126 2.244 . S
O139 C129 1.272 . S
O139 Co131 2.135 . S
Co140 O141 2.216 . S
Co140 O142 2.091 . S
Co140 O144 2.004 . S
Co140 O150 2.021 . S
Co140 O152 2.137 . S
Co140 O153 2.244 . S
O141 Co140 2.216 . S
O141 C148 1.247 . S
O142 Co140 2.091 . S
O142 C148 1.261 . S
C143 O152 1.247 . S
C143 O153 1.272 . S
O144 Co140 2.004 . S
O144 C149 1.259 . S
Co145 O146 2.061 . S
Co145 O151 2.052 . S
Co145 O153 2.135 . S
O146 Co145 2.061 . S
O146 C149 1.235 . S
C147 O150 1.238 . S
C147 O151 1.241 . S
C148 O141 1.247 . S
C148 O142 1.261 . S
C149 O144 1.259 . S
C149 O146 1.235 . S
O150 Co140 2.021 . S
O150 C147 1.238 . S
O151 Co145 2.052 . S
O151 C147 1.241 . S
O152 Co140 2.137 . S
O152 C143 1.247 . S
O153 Co140 2.244 . S
O153 C143 1.272 . S
O153 Co145 2.135 . S
Co154 O155 2.216 . S
Co154 O156 2.091 . S
Co154 O158 2.004 . S
Co154 O164 2.021 . S
Co154 O166 2.137 . S
Co154 O167 2.244 . S
O155 Co154 2.216 . S
O155 C162 1.247 . S
O156 Co154 2.091 . S
O156 C162 1.261 . S
C157 O166 1.247 . S
C157 O167 1.272 . S
O158 Co154 2.004 . S
O158 C163 1.259 . S
Co159 O160 2.061 . S
Co159 O165 2.052 . S
Co159 O167 2.135 . S
O160 Co159 2.061 . S
O160 C163 1.235 . S
C161 O164 1.238 . S
C161 O165 1.241 . S
C162 O155 1.247 . S
C162 O156 1.261 . S
C163 O158 1.259 . S
C163 O160 1.235 . S
O164 Co154 2.021 . S
O164 C161 1.238 . S
O165 Co159 2.052 . S
O165 C161 1.241 . S
O166 Co154 2.137 . S
O166 C157 1.247 . S
O167 Co154 2.244 . S
O167 C157 1.272 . S
O167 Co159 2.135 . S
Co168 O169 2.216 . S
Co168 O170 2.091 . S
Co168 O172 2.004 . S
Co168 O178 2.021 . S
Co168 O180 2.137 . S
Co168 O181 2.244 . S
O169 Co168 2.216 . S
O169 C176 1.247 . S
O170 Co168 2.091 . S
O170 C176 1.261 . S
C171 O180 1.247 . S
C171 O181 1.272 . S
O172 Co168 2.004 . S
O172 C177 1.259 . S
Co173 O174 2.061 . S
Co173 O179 2.052 . S
Co173 O181 2.135 . S
O174 Co173 2.061 . S
O174 C177 1.235 . S
C175 O178 1.238 . S
C175 O179 1.241 . S
C176 O169 1.247 . S
C176 O170 1.261 . S
C177 O172 1.259 . S
C177 O174 1.235 . S
O178 Co168 2.021 . S
O178 C175 1.238 . S
O179 Co173 2.052 . S
O179 C175 1.241 . S
O180 Co168 2.137 . S
O180 C171 1.247 . S
O181 Co168 2.244 . S
O181 C171 1.272 . S
O181 Co173 2.135 . S
Co182 O183 2.216 . S
Co182 O184 2.091 . S
Co182 O186 2.004 . S
Co182 O192 2.021 . S
Co182 O194 2.137 . S
Co182 O195 2.244 . S
O183 Co182 2.216 . S
O183 C190 1.247 . S
O184 Co182 2.091 . S
O184 C190 1.261 . S
C185 O194 1.247 . S
C185 O195 1.272 . S
O186 Co182 2.004 . S
O186 C191 1.259 . S
Co187 O188 2.061 . S
Co187 O193 2.052 . S
Co187 O195 2.135 . S
O188 Co187 2.061 . S
O188 C191 1.235 . S
C189 O192 1.238 . S
C189 O193 1.241 . S
C190 O183 1.247 . S
C190 O184 1.261 . S
C191 O186 1.259 . S
C191 O188 1.235 . S
O192 Co182 2.021 . S
O192 C189 1.238 . S
O193 Co187 2.052 . S
O193 C189 1.241 . S
O194 Co182 2.137 . S
O194 C185 1.247 . S
O195 Co182 2.244 . S
O195 C185 1.272 . S
O195 Co187 2.135 . S
Co196 O197 2.216 . S
Co196 O198 2.091 . S
Co196 O200 2.004 . S
Co196 O206 2.021 . S
Co196 O208 2.137 . S
Co196 O209 2.244 . S
O197 Co196 2.216 . S
O197 C204 1.247 . S
O198 Co196 2.091 . S
O198 C204 1.261 . S
C199 O208 1.247 . S
C199 O209 1.272 . S
O200 Co196 2.004 . S
O200 C205 1.259 . S
Co201 O202 2.061 . S
Co201 O207 2.052 . S
Co201 O209 2.135 . S
O202 Co201 2.061 . S
O202 C205 1.235 . S
C203 O206 1.238 . S
C203 O207 1.241 . S
C204 O197 1.247 . S
C204 O198 1.261 . S
C205 O200 1.259 . S
C205 O202 1.235 . S
O206 Co196 2.021 . S
O206 C203 1.238 . S
O207 Co201 2.052 . S
O207 C203 1.241 . S
O208 Co196 2.137 . S
O208 C199 1.247 . S
O209 Co196 2.244 . S
O209 C199 1.272 . S
O209 Co201 2.135 . S
Co210 O211 2.216 . S
Co210 O212 2.091 . S
Co210 O214 2.004 . S
Co210 O220 2.021 . S
Co210 O222 2.137 . S
Co210 O223 2.244 . S
O211 Co210 2.216 . S
O211 C218 1.247 . S
O212 Co210 2.091 . S
O212 C218 1.261 . S
C213 O222 1.247 . S
C213 O223 1.272 . S
O214 Co210 2.004 . S
O214 C219 1.259 . S
Co215 O216 2.061 . S
Co215 O221 2.052 . S
Co215 O223 2.135 . S
O216 Co215 2.061 . S
O216 C219 1.235 . S
C217 O220 1.238 . S
C217 O221 1.241 . S
C218 O211 1.247 . S
C218 O212 1.261 . S
C219 O214 1.259 . S
C219 O216 1.235 . S
O220 Co210 2.021 . S
O220 C217 1.238 . S
O221 Co215 2.052 . S
O221 C217 1.241 . S
O222 Co210 2.137 . S
O222 C213 1.247 . S
O223 Co210 2.244 . S
O223 C213 1.272 . S
O223 Co215 2.135 . S
H224 C242 0.951 . S
H225 C244 0.951 . S
H226 C246 0.950 . S
H227 C247 0.950 . S
H228 C249 0.950 . S
H229 C252 0.950 . S
H230 C253 0.950 . S
H231 C255 0.950 . S
H232 C256 0.950 . S
H233 C257 0.951 . S
H234 C259 0.951 . S
H235 C261 0.950 . S
H236 C262 0.950 . S
H237 C264 0.950 . S
H238 C267 0.950 . S
H239 C268 0.950 . S
H240 C270 0.950 . S
H241 C271 0.950 . S
C242 H224 0.951 . S
C242 C243 1.366 . S
C242 C244 1.388 . S
C243 C242 1.366 . S
C243 C247 1.385 . S
C244 H225 0.951 . S
C244 C242 1.388 . S
C244 C245 1.366 . S
C245 C244 1.366 . S
C245 C246 1.414 . S
C245 C248 1.499 . S
C246 H226 0.950 . S
C246 C245 1.414 . S
C246 C247 1.374 . S
C247 H227 0.950 . S
C247 C243 1.385 . S
C247 C246 1.374 . S
C248 C245 1.499 . S
C248 C249 1.373 . S
C248 C250 1.389 . S
C249 H228 0.950 . S
C249 C248 1.373 . S
C249 C265 1.377 . S
C250 C248 1.389 . S
C250 C251 1.524 . S
C250 C264 1.377 . S
C251 C250 1.524 . S
C251 C252 1.397 . S
C251 C256 1.363 . S
C252 H229 0.950 . S
C252 C251 1.397 . S
C252 C253 1.334 . S
C253 H230 0.950 . S
C253 C252 1.334 . S
C253 C254 1.287 . S
C254 C253 1.287 . S
C254 C255 1.524 . S
C254 H273 0.913 . S
C255 H231 0.950 . S
C255 C254 1.524 . S
C255 C256 1.415 . S
C256 H232 0.950 . S
C256 C251 1.363 . S
C256 C255 1.415 . S
C257 H233 0.951 . S
C257 C258 1.366 . S
C257 C259 1.388 . S
C258 C257 1.366 . S
C258 C262 1.385 . S
C259 H234 0.951 . S
C259 C257 1.388 . S
C259 C260 1.366 . S
C260 C259 1.366 . S
C260 C261 1.414 . S
C260 C263 1.499 . S
C261 H235 0.950 . S
C261 C260 1.414 . S
C261 C262 1.374 . S
C262 H236 0.950 . S
C262 C258 1.385 . S
C262 C261 1.374 . S
C263 C260 1.499 . S
C263 C264 1.373 . S
C263 C265 1.389 . S
C264 H237 0.950 . S
C264 C250 1.377 . S
C264 C263 1.373 . S
C265 C249 1.377 . S
C265 C263 1.389 . S
C265 C266 1.524 . S
C266 C265 1.524 . S
C266 C267 1.397 . S
C266 C271 1.363 . S
C267 H238 0.950 . S
C267 C266 1.397 . S
C267 C268 1.334 . S
C268 H239 0.950 . S
C268 C267 1.334 . S
C268 C269 1.287 . S
C269 C268 1.287 . S
C269 C270 1.524 . S
C269 H272 0.999 . S
C270 H240 0.950 . S
C270 C269 1.524 . S
C270 C271 1.415 . S
C271 H241 0.950 . S
C271 C266 1.363 . S
C271 C270 1.415 . S
H272 C269 0.999 . S
H273 C254 0.913 . S
H274 C292 0.951 . S
H275 C294 0.951 . S
H276 C296 0.950 . S
H277 C297 0.950 . S
H278 C299 0.950 . S
H279 C302 0.950 . S
H280 C303 0.950 . S
H281 C305 0.950 . S
H282 C306 0.950 . S
H283 C307 0.951 . S
H284 C309 0.951 . S
H285 C311 0.950 . S
H286 C312 0.950 . S
H287 C314 0.950 . S
H288 C317 0.950 . S
H289 C318 0.950 . S
H290 C320 0.950 . S
H291 C321 0.950 . S
C292 H274 0.951 . S
C292 C293 1.366 . S
C292 C294 1.388 . S
C293 C292 1.366 . S
C293 C297 1.385 . S
C294 H275 0.951 . S
C294 C292 1.388 . S
C294 C295 1.366 . S
C295 C294 1.366 . S
C295 C296 1.414 . S
C295 C298 1.499 . S
C296 H276 0.950 . S
C296 C295 1.414 . S
C296 C297 1.374 . S
C297 H277 0.950 . S
C297 C293 1.385 . S
C297 C296 1.374 . S
C298 C295 1.499 . S
C298 C299 1.373 . S
C298 C300 1.389 . S
C299 H278 0.950 . S
C299 C298 1.373 . S
C299 C315 1.377 . S
C300 C298 1.389 . S
C300 C301 1.524 . S
C300 C314 1.377 . S
C301 C300 1.524 . S
C301 C302 1.397 . S
C301 C306 1.363 . S
C302 H279 0.950 . S
C302 C301 1.397 . S
C302 C303 1.334 . S
C303 H280 0.950 . S
C303 C302 1.334 . S
C303 C304 1.287 . S
C304 C303 1.287 . S
C304 C305 1.524 . S
C304 H323 0.913 . S
C305 H281 0.950 . S
C305 C304 1.524 . S
C305 C306 1.415 . S
C306 H282 0.950 . S
C306 C301 1.363 . S
C306 C305 1.415 . S
C307 H283 0.951 . S
C307 C308 1.366 . S
C307 C309 1.388 . S
C308 C307 1.366 . S
C308 C312 1.385 . S
C309 H284 0.951 . S
C309 C307 1.388 . S
C309 C310 1.366 . S
C310 C309 1.366 . S
C310 C311 1.414 . S
C310 C313 1.499 . S
C311 H285 0.950 . S
C311 C310 1.414 . S
C311 C312 1.374 . S
C312 H286 0.950 . S
C312 C308 1.385 . S
C312 C311 1.374 . S
C313 C310 1.499 . S
C313 C314 1.373 . S
C313 C315 1.389 . S
C314 H287 0.950 . S
C314 C300 1.377 . S
C314 C313 1.373 . S
C315 C299 1.377 . S
C315 C313 1.389 . S
C315 C316 1.524 . S
C316 C315 1.524 . S
C316 C317 1.397 . S
C316 C321 1.363 . S
C317 H288 0.950 . S
C317 C316 1.397 . S
C317 C318 1.334 . S
C318 H289 0.950 . S
C318 C317 1.334 . S
C318 C319 1.287 . S
C319 C318 1.287 . S
C319 C320 1.524 . S
C319 H322 0.999 . S
C320 H290 0.950 . S
C320 C319 1.524 . S
C320 C321 1.415 . S
C321 H291 0.950 . S
C321 C316 1.363 . S
C321 C320 1.415 . S
H322 C319 0.999 . S
H323 C304 0.913 . S
H324 C342 0.951 . S
H325 C344 0.951 . S
H326 C346 0.950 . S
H327 C347 0.950 . S
H328 C349 0.950 . S
H329 C352 0.950 . S
H330 C353 0.950 . S
H331 C355 0.950 . S
H332 C356 0.950 . S
H333 C357 0.951 . S
H334 C359 0.951 . S
H335 C361 0.950 . S
H336 C362 0.950 . S
H337 C364 0.950 . S
H338 C367 0.950 . S
H339 C368 0.950 . S
H340 C370 0.950 . S
H341 C371 0.950 . S
C342 H324 0.951 . S
C342 C343 1.366 . S
C342 C344 1.388 . S
C343 C342 1.366 . S
C343 C347 1.385 . S
C344 H325 0.951 . S
C344 C342 1.388 . S
C344 C345 1.366 . S
C345 C344 1.366 . S
C345 C346 1.414 . S
C345 C348 1.499 . S
C346 H326 0.950 . S
C346 C345 1.414 . S
C346 C347 1.374 . S
C347 H327 0.950 . S
C347 C343 1.385 . S
C347 C346 1.374 . S
C348 C345 1.499 . S
C348 C349 1.373 . S
C348 C350 1.389 . S
C349 H328 0.950 . S
C349 C348 1.373 . S
C349 C365 1.377 . S
C350 C348 1.389 . S
C350 C351 1.524 . S
C350 C364 1.377 . S
C351 C350 1.524 . S
C351 C352 1.397 . S
C351 C356 1.363 . S
C352 H329 0.950 . S
C352 C351 1.397 . S
C352 C353 1.334 . S
C353 H330 0.950 . S
C353 C352 1.334 . S
C353 C354 1.287 . S
C354 C353 1.287 . S
C354 C355 1.524 . S
C354 H373 0.913 . S
C355 H331 0.950 . S
C355 C354 1.524 . S
C355 C356 1.415 . S
C356 H332 0.950 . S
C356 C351 1.363 . S
C356 C355 1.415 . S
C357 H333 0.951 . S
C357 C358 1.366 . S
C357 C359 1.388 . S
C358 C357 1.366 . S
C358 C362 1.385 . S
C359 H334 0.951 . S
C359 C357 1.388 . S
C359 C360 1.366 . S
C360 C359 1.366 . S
C360 C361 1.414 . S
C360 C363 1.499 . S
C361 H335 0.950 . S
C361 C360 1.414 . S
C361 C362 1.374 . S
C362 H336 0.950 . S
C362 C358 1.385 . S
C362 C361 1.374 . S
C363 C360 1.499 . S
C363 C364 1.373 . S
C363 C365 1.389 . S
C364 H337 0.950 . S
C364 C350 1.377 . S
C364 C363 1.373 . S
C365 C349 1.377 . S
C365 C363 1.389 . S
C365 C366 1.524 . S
C366 C365 1.524 . S
C366 C367 1.397 . S
C366 C371 1.363 . S
C367 H338 0.950 . S
C367 C366 1.397 . S
C367 C368 1.334 . S
C368 H339 0.950 . S
C368 C367 1.334 . S
C368 C369 1.287 . S
C369 C368 1.287 . S
C369 C370 1.524 . S
C369 H372 0.999 . S
C370 H340 0.950 . S
C370 C369 1.524 . S
C370 C371 1.415 . S
C371 H341 0.950 . S
C371 C366 1.363 . S
C371 C370 1.415 . S
H372 C369 0.999 . S
H373 C354 0.913 . S
H374 C392 0.951 . S
H375 C394 0.951 . S
H376 C396 0.950 . S
H377 C397 0.950 . S
H378 C399 0.950 . S
H379 C402 0.950 . S
H380 C403 0.950 . S
H381 C405 0.950 . S
H382 C406 0.950 . S
H383 C407 0.951 . S
H384 C409 0.951 . S
H385 C411 0.950 . S
H386 C412 0.950 . S
H387 C414 0.950 . S
H388 C417 0.950 . S
H389 C418 0.950 . S
H390 C420 0.950 . S
H391 C421 0.950 . S
C392 H374 0.951 . S
C392 C393 1.366 . S
C392 C394 1.388 . S
C393 C392 1.366 . S
C393 C397 1.385 . S
C394 H375 0.951 . S
C394 C392 1.388 . S
C394 C395 1.366 . S
C395 C394 1.366 . S
C395 C396 1.414 . S
C395 C398 1.499 . S
C396 H376 0.950 . S
C396 C395 1.414 . S
C396 C397 1.374 . S
C397 H377 0.950 . S
C397 C393 1.385 . S
C397 C396 1.374 . S
C398 C395 1.499 . S
C398 C399 1.373 . S
C398 C400 1.389 . S
C399 H378 0.950 . S
C399 C398 1.373 . S
C399 C415 1.377 . S
C400 C398 1.389 . S
C400 C401 1.524 . S
C400 C414 1.377 . S
C401 C400 1.524 . S
C401 C402 1.397 . S
C401 C406 1.363 . S
C402 H379 0.950 . S
C402 C401 1.397 . S
C402 C403 1.334 . S
C403 H380 0.950 . S
C403 C402 1.334 . S
C403 C404 1.287 . S
C404 C403 1.287 . S
C404 C405 1.524 . S
C404 H423 0.913 . S
C405 H381 0.950 . S
C405 C404 1.524 . S
C405 C406 1.415 . S
C406 H382 0.950 . S
C406 C401 1.363 . S
C406 C405 1.415 . S
C407 H383 0.951 . S
C407 C408 1.366 . S
C407 C409 1.388 . S
C408 C407 1.366 . S
C408 C412 1.385 . S
C409 H384 0.951 . S
C409 C407 1.388 . S
C409 C410 1.366 . S
C410 C409 1.366 . S
C410 C411 1.414 . S
C410 C413 1.499 . S
C411 H385 0.950 . S
C411 C410 1.414 . S
C411 C412 1.374 . S
C412 H386 0.950 . S
C412 C408 1.385 . S
C412 C411 1.374 . S
C413 C410 1.499 . S
C413 C414 1.373 . S
C413 C415 1.389 . S
C414 H387 0.950 . S
C414 C400 1.377 . S
C414 C413 1.373 . S
C415 C399 1.377 . S
C415 C413 1.389 . S
C415 C416 1.524 . S
C416 C415 1.524 . S
C416 C417 1.397 . S
C416 C421 1.363 . S
C417 H388 0.950 . S
C417 C416 1.397 . S
C417 C418 1.334 . S
C418 H389 0.950 . S
C418 C417 1.334 . S
C418 C419 1.287 . S
C419 C418 1.287 . S
C419 C420 1.524 . S
C419 H422 0.999 . S
C420 H390 0.950 . S
C420 C419 1.524 . S
C420 C421 1.415 . S
C421 H391 0.950 . S
C421 C416 1.363 . S
C421 C420 1.415 . S
H422 C419 0.999 . S
H423 C404 0.913 . S
H424 C442 0.951 . S
H425 C444 0.951 . S
H426 C446 0.950 . S
H427 C447 0.950 . S
H428 C449 0.950 . S
H429 C452 0.950 . S
H430 C453 0.950 . S
H431 C455 0.950 . S
H432 C456 0.950 . S
H433 C457 0.951 . S
H434 C459 0.951 . S
H435 C461 0.950 . S
H436 C462 0.950 . S
H437 C464 0.950 . S
H438 C467 0.950 . S
H439 C468 0.950 . S
H440 C470 0.950 . S
H441 C471 0.950 . S
C442 H424 0.951 . S
C442 C443 1.366 . S
C442 C444 1.388 . S
C443 C442 1.366 . S
C443 C447 1.385 . S
C444 H425 0.951 . S
C444 C442 1.388 . S
C444 C445 1.366 . S
C445 C444 1.366 . S
C445 C446 1.414 . S
C445 C448 1.499 . S
C446 H426 0.950 . S
C446 C445 1.414 . S
C446 C447 1.374 . S
C447 H427 0.950 . S
C447 C443 1.385 . S
C447 C446 1.374 . S
C448 C445 1.499 . S
C448 C449 1.373 . S
C448 C450 1.389 . S
C449 H428 0.950 . S
C449 C448 1.373 . S
C449 C465 1.377 . S
C450 C448 1.389 . S
C450 C451 1.524 . S
C450 C464 1.377 . S
C451 C450 1.524 . S
C451 C452 1.397 . S
C451 C456 1.363 . S
C452 H429 0.950 . S
C452 C451 1.397 . S
C452 C453 1.334 . S
C453 H430 0.950 . S
C453 C452 1.334 . S
C453 C454 1.287 . S
C454 C453 1.287 . S
C454 C455 1.524 . S
C454 H473 0.913 . S
C455 H431 0.950 . S
C455 C454 1.524 . S
C455 C456 1.415 . S
C456 H432 0.950 . S
C456 C451 1.363 . S
C456 C455 1.415 . S
C457 H433 0.951 . S
C457 C458 1.366 . S
C457 C459 1.388 . S
C458 C457 1.366 . S
C458 C462 1.385 . S
C459 H434 0.951 . S
C459 C457 1.388 . S
C459 C460 1.366 . S
C460 C459 1.366 . S
C460 C461 1.414 . S
C460 C463 1.499 . S
C461 H435 0.950 . S
C461 C460 1.414 . S
C461 C462 1.374 . S
C462 H436 0.950 . S
C462 C458 1.385 . S
C462 C461 1.374 . S
C463 C460 1.499 . S
C463 C464 1.373 . S
C463 C465 1.389 . S
C464 H437 0.950 . S
C464 C450 1.377 . S
C464 C463 1.373 . S
C465 C449 1.377 . S
C465 C463 1.389 . S
C465 C466 1.524 . S
C466 C465 1.524 . S
C466 C467 1.397 . S
C466 C471 1.363 . S
C467 H438 0.950 . S
C467 C466 1.397 . S
C467 C468 1.334 . S
C468 H439 0.950 . S
C468 C467 1.334 . S
C468 C469 1.287 . S
C469 C468 1.287 . S
C469 C470 1.524 . S
C469 H472 0.999 . S
C470 H440 0.950 . S
C470 C469 1.524 . S
C470 C471 1.415 . S
C471 H441 0.950 . S
C471 C466 1.363 . S
C471 C470 1.415 . S
H472 C469 0.999 . S
H473 C454 0.913 . S
H474 C492 0.951 . S
H475 C494 0.951 . S
H476 C496 0.950 . S
H477 C497 0.950 . S
H478 C499 0.950 . S
H479 C502 0.950 . S
H480 C503 0.950 . S
H481 C505 0.950 . S
H482 C506 0.950 . S
H483 C507 0.951 . S
H484 C509 0.951 . S
H485 C511 0.950 . S
H486 C512 0.950 . S
H487 C514 0.950 . S
H488 C517 0.950 . S
H489 C518 0.950 . S
H490 C520 0.950 . S
H491 C521 0.950 . S
C492 H474 0.951 . S
C492 C493 1.366 . S
C492 C494 1.388 . S
C493 C492 1.366 . S
C493 C497 1.385 . S
C494 H475 0.951 . S
C494 C492 1.388 . S
C494 C495 1.366 . S
C495 C494 1.366 . S
C495 C496 1.414 . S
C495 C498 1.499 . S
C496 H476 0.950 . S
C496 C495 1.414 . S
C496 C497 1.374 . S
C497 H477 0.950 . S
C497 C493 1.385 . S
C497 C496 1.374 . S
C498 C495 1.499 . S
C498 C499 1.373 . S
C498 C500 1.389 . S
C499 H478 0.950 . S
C499 C498 1.373 . S
C499 C515 1.377 . S
C500 C498 1.389 . S
C500 C501 1.524 . S
C500 C514 1.377 . S
C501 C500 1.524 . S
C501 C502 1.397 . S
C501 C506 1.363 . S
C502 H479 0.950 . S
C502 C501 1.397 . S
C502 C503 1.334 . S
C503 H480 0.950 . S
C503 C502 1.334 . S
C503 C504 1.287 . S
C504 C503 1.287 . S
C504 C505 1.524 . S
C504 H523 0.913 . S
C505 H481 0.950 . S
C505 C504 1.524 . S
C505 C506 1.415 . S
C506 H482 0.950 . S
C506 C501 1.363 . S
C506 C505 1.415 . S
C507 H483 0.951 . S
C507 C508 1.366 . S
C507 C509 1.388 . S
C508 C507 1.366 . S
C508 C512 1.385 . S
C509 H484 0.951 . S
C509 C507 1.388 . S
C509 C510 1.366 . S
C510 C509 1.366 . S
C510 C511 1.414 . S
C510 C513 1.499 . S
C511 H485 0.950 . S
C511 C510 1.414 . S
C511 C512 1.374 . S
C512 H486 0.950 . S
C512 C508 1.385 . S
C512 C511 1.374 . S
C513 C510 1.499 . S
C513 C514 1.373 . S
C513 C515 1.389 . S
C514 H487 0.950 . S
C514 C500 1.377 . S
C514 C513 1.373 . S
C515 C499 1.377 . S
C515 C513 1.389 . S
C515 C516 1.524 . S
C516 C515 1.524 . S
C516 C517 1.397 . S
C516 C521 1.363 . S
C517 H488 0.950 . S
C517 C516 1.397 . S
C517 C518 1.334 . S
C518 H489 0.950 . S
C518 C517 1.334 . S
C518 C519 1.287 . S
C519 C518 1.287 . S
C519 C520 1.524 . S
C519 H522 0.999 . S
C520 H490 0.950 . S
C520 C519 1.524 . S
C520 C521 1.415 . S
C521 H491 0.950 . S
C521 C516 1.363 . S
C521 C520 1.415 . S
H522 C519 0.999 . S
H523 C504 0.913 . S
H524 C542 0.951 . S
H525 C544 0.951 . S
H526 C546 0.950 . S
H527 C547 0.950 . S
H528 C549 0.950 . S
H529 C552 0.950 . S
H530 C553 0.950 . S
H531 C555 0.950 . S
H532 C556 0.950 . S
H533 C557 0.951 . S
H534 C559 0.951 . S
H535 C561 0.950 . S
H536 C562 0.950 . S
H537 C564 0.950 . S
H538 C567 0.950 . S
H539 C568 0.950 . S
H540 C570 0.950 . S
H541 C571 0.950 . S
C542 H524 0.951 . S
C542 C543 1.366 . S
C542 C544 1.388 . S
C543 C542 1.366 . S
C543 C547 1.385 . S
C544 H525 0.951 . S
C544 C542 1.388 . S
C544 C545 1.366 . S
C545 C544 1.366 . S
C545 C546 1.414 . S
C545 C548 1.499 . S
C546 H526 0.950 . S
C546 C545 1.414 . S
C546 C547 1.374 . S
C547 H527 0.950 . S
C547 C543 1.385 . S
C547 C546 1.374 . S
C548 C545 1.499 . S
C548 C549 1.373 . S
C548 C550 1.389 . S
C549 H528 0.950 . S
C549 C548 1.373 . S
C549 C565 1.377 . S
C550 C548 1.389 . S
C550 C551 1.524 . S
C550 C564 1.377 . S
C551 C550 1.524 . S
C551 C552 1.397 . S
C551 C556 1.363 . S
C552 H529 0.950 . S
C552 C551 1.397 . S
C552 C553 1.334 . S
C553 H530 0.950 . S
C553 C552 1.334 . S
C553 C554 1.287 . S
C554 C553 1.287 . S
C554 C555 1.524 . S
C554 H573 0.913 . S
C555 H531 0.950 . S
C555 C554 1.524 . S
C555 C556 1.415 . S
C556 H532 0.950 . S
C556 C551 1.363 . S
C556 C555 1.415 . S
C557 H533 0.951 . S
C557 C558 1.366 . S
C557 C559 1.388 . S
C558 C557 1.366 . S
C558 C562 1.385 . S
C559 H534 0.951 . S
C559 C557 1.388 . S
C559 C560 1.366 . S
C560 C559 1.366 . S
C560 C561 1.414 . S
C560 C563 1.499 . S
C561 H535 0.950 . S
C561 C560 1.414 . S
C561 C562 1.374 . S
C562 H536 0.950 . S
C562 C558 1.385 . S
C562 C561 1.374 . S
C563 C560 1.499 . S
C563 C564 1.373 . S
C563 C565 1.389 . S
C564 H537 0.950 . S
C564 C550 1.377 . S
C564 C563 1.373 . S
C565 C549 1.377 . S
C565 C563 1.389 . S
C565 C566 1.524 . S
C566 C565 1.524 . S
C566 C567 1.397 . S
C566 C571 1.363 . S
C567 H538 0.950 . S
C567 C566 1.397 . S
C567 C568 1.334 . S
C568 H539 0.950 . S
C568 C567 1.334 . S
C568 C569 1.287 . S
C569 C568 1.287 . S
C569 C570 1.524 . S
C569 H572 0.999 . S
C570 H540 0.950 . S
C570 C569 1.524 . S
C570 C571 1.415 . S
C571 H541 0.950 . S
C571 C566 1.363 . S
C571 C570 1.415 . S
H572 C569 0.999 . S
H573 C554 0.913 . S
H574 C592 0.951 . S
H575 C594 0.951 . S
H576 C596 0.950 . S
H577 C597 0.950 . S
H578 C599 0.950 . S
H579 C602 0.950 . S
H580 C603 0.950 . S
H581 C605 0.950 . S
H582 C606 0.950 . S
H583 C607 0.951 . S
H584 C609 0.951 . S
H585 C611 0.950 . S
H586 C612 0.950 . S
H587 C614 0.950 . S
H588 C617 0.950 . S
H589 C618 0.950 . S
H590 C620 0.950 . S
H591 C621 0.950 . S
C592 H574 0.951 . S
C592 C593 1.366 . S
C592 C594 1.388 . S
C593 C592 1.366 . S
C593 C597 1.385 . S
C594 H575 0.951 . S
C594 C592 1.388 . S
C594 C595 1.366 . S
C595 C594 1.366 . S
C595 C596 1.414 . S
C595 C598 1.499 . S
C596 H576 0.950 . S
C596 C595 1.414 . S
C596 C597 1.374 . S
C597 H577 0.950 . S
C597 C593 1.385 . S
C597 C596 1.374 . S
C598 C595 1.499 . S
C598 C599 1.373 . S
C598 C600 1.389 . S
C599 H578 0.950 . S
C599 C598 1.373 . S
C599 C615 1.377 . S
C600 C598 1.389 . S
C600 C601 1.524 . S
C600 C614 1.377 . S
C601 C600 1.524 . S
C601 C602 1.397 . S
C601 C606 1.363 . S
C602 H579 0.950 . S
C602 C601 1.397 . S
C602 C603 1.334 . S
C603 H580 0.950 . S
C603 C602 1.334 . S
C603 C604 1.287 . S
C604 C603 1.287 . S
C604 C605 1.524 . S
C604 H623 0.913 . S
C605 H581 0.950 . S
C605 C604 1.524 . S
C605 C606 1.415 . S
C606 H582 0.950 . S
C606 C601 1.363 . S
C606 C605 1.415 . S
C607 H583 0.951 . S
C607 C608 1.366 . S
C607 C609 1.388 . S
C608 C607 1.366 . S
C608 C612 1.385 . S
C609 H584 0.951 . S
C609 C607 1.388 . S
C609 C610 1.366 . S
C610 C609 1.366 . S
C610 C611 1.414 . S
C610 C613 1.499 . S
C611 H585 0.950 . S
C611 C610 1.414 . S
C611 C612 1.374 . S
C612 H586 0.950 . S
C612 C608 1.385 . S
C612 C611 1.374 . S
C613 C610 1.499 . S
C613 C614 1.373 . S
C613 C615 1.389 . S
C614 H587 0.950 . S
C614 C600 1.377 . S
C614 C613 1.373 . S
C615 C599 1.377 . S
C615 C613 1.389 . S
C615 C616 1.524 . S
C616 C615 1.524 . S
C616 C617 1.397 . S
C616 C621 1.363 . S
C617 H588 0.950 . S
C617 C616 1.397 . S
C617 C618 1.334 . S
C618 H589 0.950 . S
C618 C617 1.334 . S
C618 C619 1.287 . S
C619 C618 1.287 . S
C619 C620 1.524 . S
C619 H622 0.999 . S
C620 H590 0.950 . S
C620 C619 1.524 . S
C620 C621 1.415 . S
C621 H591 0.950 . S
C621 C616 1.363 . S
C621 C620 1.415 . S
H622 C619 0.999 . S
H623 C604 0.913 . S
H624 C642 0.951 . S
H625 C644 0.951 . S
H626 C646 0.950 . S
H627 C647 0.950 . S
H628 C649 0.950 . S
H629 C652 0.950 . S
H630 C653 0.950 . S
H631 C655 0.950 . S
H632 C656 0.950 . S
H633 C657 0.951 . S
H634 C659 0.951 . S
H635 C661 0.950 . S
H636 C662 0.950 . S
H637 C664 0.950 . S
H638 C667 0.950 . S
H639 C668 0.950 . S
H640 C670 0.950 . S
H641 C671 0.950 . S
C642 H624 0.951 . S
C642 C643 1.366 . S
C642 C644 1.388 . S
C643 C642 1.366 . S
C643 C647 1.385 . S
C644 H625 0.951 . S
C644 C642 1.388 . S
C644 C645 1.366 . S
C645 C644 1.366 . S
C645 C646 1.414 . S
C645 C648 1.499 . S
C646 H626 0.950 . S
C646 C645 1.414 . S
C646 C647 1.374 . S
C647 H627 0.950 . S
C647 C643 1.385 . S
C647 C646 1.374 . S
C648 C645 1.499 . S
C648 C649 1.373 . S
C648 C650 1.389 . S
C649 H628 0.950 . S
C649 C648 1.373 . S
C649 C665 1.377 . S
C650 C648 1.389 . S
C650 C651 1.524 . S
C650 C664 1.377 . S
C651 C650 1.524 . S
C651 C652 1.397 . S
C651 C656 1.363 . S
C652 H629 0.950 . S
C652 C651 1.397 . S
C652 C653 1.334 . S
C653 H630 0.950 . S
C653 C652 1.334 . S
C653 C654 1.287 . S
C654 C653 1.287 . S
C654 C655 1.524 . S
C654 H673 0.913 . S
C655 H631 0.950 . S
C655 C654 1.524 . S
C655 C656 1.415 . S
C656 H632 0.950 . S
C656 C651 1.363 . S
C656 C655 1.415 . S
C657 H633 0.951 . S
C657 C658 1.366 . S
C657 C659 1.388 . S
C658 C657 1.366 . S
C658 C662 1.385 . S
C659 H634 0.951 . S
C659 C657 1.388 . S
C659 C660 1.366 . S
C660 C659 1.366 . S
C660 C661 1.414 . S
C660 C663 1.499 . S
C661 H635 0.950 . S
C661 C660 1.414 . S
C661 C662 1.374 . S
C662 H636 0.950 . S
C662 C658 1.385 . S
C662 C661 1.374 . S
C663 C660 1.499 . S
C663 C664 1.373 . S
C663 C665 1.389 . S
C664 H637 0.950 . S
C664 C650 1.377 . S
C664 C663 1.373 . S
C665 C649 1.377 . S
C665 C663 1.389 . S
C665 C666 1.524 . S
C666 C665 1.524 . S
C666 C667 1.397 . S
C666 C671 1.363 . S
C667 H638 0.950 . S
C667 C666 1.397 . S
C667 C668 1.334 . S
C668 H639 0.950 . S
C668 C667 1.334 . S
C668 C669 1.287 . S
C669 C668 1.287 . S
C669 C670 1.524 . S
C669 H672 0.999 . S
C670 H640 0.950 . S
C670 C669 1.524 . S
C670 C671 1.415 . S
C671 H641 0.950 . S
C671 C666 1.363 . S
C671 C670 1.415 . S
H672 C669 0.999 . S
H673 C654 0.913 . S
H674 C692 0.951 . S
H675 C694 0.951 . S
H676 C696 0.950 . S
H677 C697 0.950 . S
H678 C699 0.950 . S
H679 C702 0.950 . S
H680 C703 0.950 . S
H681 C705 0.950 . S
H682 C706 0.950 . S
H683 C707 0.951 . S
H684 C709 0.951 . S
H685 C711 0.950 . S
H686 C712 0.950 . S
H687 C714 0.950 . S
H688 C717 0.950 . S
H689 C718 0.950 . S
H690 C720 0.950 . S
H691 C721 0.950 . S
C692 H674 0.951 . S
C692 C693 1.366 . S
C692 C694 1.388 . S
C693 C692 1.366 . S
C693 C697 1.385 . S
C694 H675 0.951 . S
C694 C692 1.388 . S
C694 C695 1.366 . S
C695 C694 1.366 . S
C695 C696 1.414 . S
C695 C698 1.499 . S
C696 H676 0.950 . S
C696 C695 1.414 . S
C696 C697 1.374 . S
C697 H677 0.950 . S
C697 C693 1.385 . S
C697 C696 1.374 . S
C698 C695 1.499 . S
C698 C699 1.373 . S
C698 C700 1.389 . S
C699 H678 0.950 . S
C699 C698 1.373 . S
C699 C715 1.377 . S
C700 C698 1.389 . S
C700 C701 1.524 . S
C700 C714 1.377 . S
C701 C700 1.524 . S
C701 C702 1.397 . S
C701 C706 1.363 . S
C702 H679 0.950 . S
C702 C701 1.397 . S
C702 C703 1.334 . S
C703 H680 0.950 . S
C703 C702 1.334 . S
C703 C704 1.287 . S
C704 C703 1.287 . S
C704 C705 1.524 . S
C704 H723 0.913 . S
C705 H681 0.950 . S
C705 C704 1.524 . S
C705 C706 1.415 . S
C706 H682 0.950 . S
C706 C701 1.363 . S
C706 C705 1.415 . S
C707 H683 0.951 . S
C707 C708 1.366 . S
C707 C709 1.388 . S
C708 C707 1.366 . S
C708 C712 1.385 . S
C709 H684 0.951 . S
C709 C707 1.388 . S
C709 C710 1.366 . S
C710 C709 1.366 . S
C710 C711 1.414 . S
C710 C713 1.499 . S
C711 H685 0.950 . S
C711 C710 1.414 . S
C711 C712 1.374 . S
C712 H686 0.950 . S
C712 C708 1.385 . S
C712 C711 1.374 . S
C713 C710 1.499 . S
C713 C714 1.373 . S
C713 C715 1.389 . S
C714 H687 0.950 . S
C714 C700 1.377 . S
C714 C713 1.373 . S
C715 C699 1.377 . S
C715 C713 1.389 . S
C715 C716 1.524 . S
C716 C715 1.524 . S
C716 C717 1.397 . S
C716 C721 1.363 . S
C717 H688 0.950 . S
C717 C716 1.397 . S
C717 C718 1.334 . S
C718 H689 0.950 . S
C718 C717 1.334 . S
C718 C719 1.287 . S
C719 C718 1.287 . S
C719 C720 1.524 . S
C719 H722 0.999 . S
C720 H690 0.950 . S
C720 C719 1.524 . S
C720 C721 1.415 . S
C721 H691 0.950 . S
C721 C716 1.363 . S
C721 C720 1.415 . S
H722 C719 0.999 . S
H723 C704 0.913 . S
H724 C742 0.951 . S
H725 C744 0.951 . S
H726 C746 0.950 . S
H727 C747 0.950 . S
H728 C749 0.950 . S
H729 C752 0.950 . S
H730 C753 0.950 . S
H731 C755 0.950 . S
H732 C756 0.950 . S
H733 C757 0.951 . S
H734 C759 0.951 . S
H735 C761 0.950 . S
H736 C762 0.950 . S
H737 C764 0.950 . S
H738 C767 0.950 . S
H739 C768 0.950 . S
H740 C770 0.950 . S
H741 C771 0.950 . S
C742 H724 0.951 . S
C742 C743 1.366 . S
C742 C744 1.388 . S
C743 C742 1.366 . S
C743 C747 1.385 . S
C744 H725 0.951 . S
C744 C742 1.388 . S
C744 C745 1.366 . S
C745 C744 1.366 . S
C745 C746 1.414 . S
C745 C748 1.499 . S
C746 H726 0.950 . S
C746 C745 1.414 . S
C746 C747 1.374 . S
C747 H727 0.950 . S
C747 C743 1.385 . S
C747 C746 1.374 . S
C748 C745 1.499 . S
C748 C749 1.373 . S
C748 C750 1.389 . S
C749 H728 0.950 . S
C749 C748 1.373 . S
C749 C765 1.377 . S
C750 C748 1.389 . S
C750 C751 1.524 . S
C750 C764 1.377 . S
C751 C750 1.524 . S
C751 C752 1.397 . S
C751 C756 1.363 . S
C752 H729 0.950 . S
C752 C751 1.397 . S
C752 C753 1.334 . S
C753 H730 0.950 . S
C753 C752 1.334 . S
C753 C754 1.287 . S
C754 C753 1.287 . S
C754 C755 1.524 . S
C754 H773 0.913 . S
C755 H731 0.950 . S
C755 C754 1.524 . S
C755 C756 1.415 . S
C756 H732 0.950 . S
C756 C751 1.363 . S
C756 C755 1.415 . S
C757 H733 0.951 . S
C757 C758 1.366 . S
C757 C759 1.388 . S
C758 C757 1.366 . S
C758 C762 1.385 . S
C759 H734 0.951 . S
C759 C757 1.388 . S
C759 C760 1.366 . S
C760 C759 1.366 . S
C760 C761 1.414 . S
C760 C763 1.499 . S
C761 H735 0.950 . S
C761 C760 1.414 . S
C761 C762 1.374 . S
C762 H736 0.950 . S
C762 C758 1.385 . S
C762 C761 1.374 . S
C763 C760 1.499 . S
C763 C764 1.373 . S
C763 C765 1.389 . S
C764 H737 0.950 . S
C764 C750 1.377 . S
C764 C763 1.373 . S
C765 C749 1.377 . S
C765 C763 1.389 . S
C765 C766 1.524 . S
C766 C765 1.524 . S
C766 C767 1.397 . S
C766 C771 1.363 . S
C767 H738 0.950 . S
C767 C766 1.397 . S
C767 C768 1.334 . S
C768 H739 0.950 . S
C768 C767 1.334 . S
C768 C769 1.287 . S
C769 C768 1.287 . S
C769 C770 1.524 . S
C769 H772 0.999 . S
C770 H740 0.950 . S
C770 C769 1.524 . S
C770 C771 1.415 . S
C771 H741 0.950 . S
C771 C766 1.363 . S
C771 C770 1.415 . S
H772 C769 0.999 . S
H773 C754 0.913 . S
H774 C792 0.951 . S
H775 C794 0.951 . S
H776 C796 0.950 . S
H777 C797 0.950 . S
H778 C799 0.950 . S
H779 C802 0.950 . S
H780 C803 0.950 . S
H781 C805 0.950 . S
H782 C806 0.950 . S
H783 C807 0.951 . S
H784 C809 0.951 . S
H785 C811 0.950 . S
H786 C812 0.950 . S
H787 C814 0.950 . S
H788 C817 0.950 . S
H789 C818 0.950 . S
H790 C820 0.950 . S
H791 C821 0.950 . S
C792 H774 0.951 . S
C792 C793 1.366 . S
C792 C794 1.388 . S
C793 C792 1.366 . S
C793 C797 1.385 . S
C794 H775 0.951 . S
C794 C792 1.388 . S
C794 C795 1.366 . S
C795 C794 1.366 . S
C795 C796 1.414 . S
C795 C798 1.499 . S
C796 H776 0.950 . S
C796 C795 1.414 . S
C796 C797 1.374 . S
C797 H777 0.950 . S
C797 C793 1.385 . S
C797 C796 1.374 . S
C798 C795 1.499 . S
C798 C799 1.373 . S
C798 C800 1.389 . S
C799 H778 0.950 . S
C799 C798 1.373 . S
C799 C815 1.377 1_554 S
C800 C798 1.389 . S
C800 C801 1.524 . S
C800 C814 1.377 1_554 S
C801 C800 1.524 . S
C801 C802 1.397 . S
C801 C806 1.363 . S
C802 H779 0.950 . S
C802 C801 1.397 . S
C802 C803 1.334 . S
C803 H780 0.950 . S
C803 C802 1.334 . S
C803 C804 1.287 . S
C804 C803 1.287 . S
C804 C805 1.524 . S
C804 H823 0.913 . S
C805 H781 0.950 . S
C805 C804 1.524 . S
C805 C806 1.415 . S
C806 H782 0.950 . S
C806 C801 1.363 . S
C806 C805 1.415 . S
C807 H783 0.951 . S
C807 C808 1.366 . S
C807 C809 1.388 . S
C808 C807 1.366 . S
C808 C812 1.385 . S
C809 H784 0.951 . S
C809 C807 1.388 . S
C809 C810 1.366 . S
C810 C809 1.366 . S
C810 C811 1.414 . S
C810 C813 1.499 . S
C811 H785 0.950 . S
C811 C810 1.414 . S
C811 C812 1.374 . S
C812 H786 0.950 . S
C812 C808 1.385 . S
C812 C811 1.374 . S
C813 C810 1.499 . S
C813 C814 1.373 . S
C813 C815 1.389 . S
C814 H787 0.950 . S
C814 C800 1.377 1_556 S
C814 C813 1.373 . S
C815 C799 1.377 1_556 S
C815 C813 1.389 . S
C815 C816 1.524 . S
C816 C815 1.524 . S
C816 C817 1.397 . S
C816 C821 1.363 . S
C817 H788 0.950 . S
C817 C816 1.397 . S
C817 C818 1.334 . S
C818 H789 0.950 . S
C818 C817 1.334 . S
C818 C819 1.287 . S
C819 C818 1.287 . S
C819 C820 1.524 . S
C819 H822 0.999 . S
C820 H790 0.950 . S
C820 C819 1.524 . S
C820 C821 1.415 . S
C821 H791 0.950 . S
C821 C816 1.363 . S
C821 C820 1.415 . S
H822 C819 0.999 . S
H823 C804 0.913 . S
H824 C842 0.951 . S
H825 C844 0.951 . S
H826 C846 0.950 . S
H827 C847 0.950 . S
H828 C849 0.950 . S
H829 C852 0.950 . S
H830 C853 0.950 . S
H831 C855 0.950 . S
H832 C856 0.950 . S
H833 C857 0.951 . S
H834 C859 0.951 . S
H835 C861 0.950 . S
H836 C862 0.950 . S
H837 C864 0.950 . S
H838 C867 0.950 . S
H839 C868 0.950 . S
H840 C870 0.950 . S
H841 C871 0.950 . S
C842 H824 0.951 . S
C842 C843 1.366 . S
C842 C844 1.388 . S
C843 C842 1.366 . S
C843 C847 1.385 . S
C844 H825 0.951 . S
C844 C842 1.388 . S
C844 C845 1.366 . S
C845 C844 1.366 . S
C845 C846 1.414 . S
C845 C848 1.499 . S
C846 H826 0.950 . S
C846 C845 1.414 . S
C846 C847 1.374 . S
C847 H827 0.950 . S
C847 C843 1.385 . S
C847 C846 1.374 . S
C848 C845 1.499 . S
C848 C849 1.373 . S
C848 C850 1.389 . S
C849 H828 0.950 . S
C849 C848 1.373 . S
C849 C865 1.377 1_554 S
C850 C848 1.389 . S
C850 C851 1.524 . S
C850 C864 1.377 1_554 S
C851 C850 1.524 . S
C851 C852 1.397 . S
C851 C856 1.363 . S
C852 H829 0.950 . S
C852 C851 1.397 . S
C852 C853 1.334 . S
C853 H830 0.950 . S
C853 C852 1.334 . S
C853 C854 1.287 . S
C854 C853 1.287 . S
C854 C855 1.524 . S
C854 H873 0.913 . S
C855 H831 0.950 . S
C855 C854 1.524 . S
C855 C856 1.415 . S
C856 H832 0.950 . S
C856 C851 1.363 . S
C856 C855 1.415 . S
C857 H833 0.951 . S
C857 C858 1.366 . S
C857 C859 1.388 . S
C858 C857 1.366 . S
C858 C862 1.385 . S
C859 H834 0.951 . S
C859 C857 1.388 . S
C859 C860 1.366 . S
C860 C859 1.366 . S
C860 C861 1.414 . S
C860 C863 1.499 . S
C861 H835 0.950 . S
C861 C860 1.414 . S
C861 C862 1.374 . S
C862 H836 0.950 . S
C862 C858 1.385 . S
C862 C861 1.374 . S
C863 C860 1.499 . S
C863 C864 1.373 . S
C863 C865 1.389 . S
C864 H837 0.950 . S
C864 C850 1.377 1_556 S
C864 C863 1.373 . S
C865 C849 1.377 1_556 S
C865 C863 1.389 . S
C865 C866 1.524 . S
C866 C865 1.524 . S
C866 C867 1.397 . S
C866 C871 1.363 . S
C867 H838 0.950 . S
C867 C866 1.397 . S
C867 C868 1.334 . S
C868 H839 0.950 . S
C868 C867 1.334 . S
C868 C869 1.287 . S
C869 C868 1.287 . S
C869 C870 1.524 . S
C869 H872 0.999 . S
C870 H840 0.950 . S
C870 C869 1.524 . S
C870 C871 1.415 . S
C871 H841 0.950 . S
C871 C866 1.363 . S
C871 C870 1.415 . S
H872 C869 0.999 . S
H873 C854 0.913 . S
H874 C892 0.951 . S
H875 C894 0.951 . S
H876 C896 0.950 . S
H877 C897 0.950 . S
H878 C899 0.950 . S
H879 C902 0.950 . S
H880 C903 0.950 . S
H881 C905 0.950 . S
H882 C906 0.950 . S
H883 C907 0.951 . S
H884 C909 0.951 . S
H885 C911 0.950 . S
H886 C912 0.950 . S
H887 C914 0.950 . S
H888 C917 0.950 . S
H889 C918 0.950 . S
H890 C920 0.950 . S
H891 C921 0.950 . S
C892 H874 0.951 . S
C892 C893 1.366 . S
C892 C894 1.388 . S
C893 C892 1.366 . S
C893 C897 1.385 . S
C894 H875 0.951 . S
C894 C892 1.388 . S
C894 C895 1.366 . S
C895 C894 1.366 . S
C895 C896 1.414 . S
C895 C898 1.499 . S
C896 H876 0.950 . S
C896 C895 1.414 . S
C896 C897 1.374 . S
C897 H877 0.950 . S
C897 C893 1.385 . S
C897 C896 1.374 . S
C898 C895 1.499 . S
C898 C899 1.373 . S
C898 C900 1.389 . S
C899 H878 0.950 . S
C899 C898 1.373 . S
C899 C915 1.377 . S
C900 C898 1.389 . S
C900 C901 1.524 . S
C900 C914 1.377 . S
C901 C900 1.524 . S
C901 C902 1.397 . S
C901 C906 1.363 . S
C902 H879 0.950 . S
C902 C901 1.397 . S
C902 C903 1.334 . S
C903 H880 0.950 . S
C903 C902 1.334 . S
C903 C904 1.287 . S
C904 C903 1.287 . S
C904 C905 1.524 . S
C904 H923 0.913 . S
C905 H881 0.950 . S
C905 C904 1.524 . S
C905 C906 1.415 . S
C906 H882 0.950 . S
C906 C901 1.363 . S
C906 C905 1.415 . S
C907 H883 0.951 . S
C907 C908 1.366 . S
C907 C909 1.388 . S
C908 C907 1.366 . S
C908 C912 1.385 . S
C909 H884 0.951 . S
C909 C907 1.388 . S
C909 C910 1.366 . S
C910 C909 1.366 . S
C910 C911 1.414 . S
C910 C913 1.499 . S
C911 H885 0.950 . S
C911 C910 1.414 . S
C911 C912 1.374 . S
C912 H886 0.950 . S
C912 C908 1.385 . S
C912 C911 1.374 . S
C913 C910 1.499 . S
C913 C914 1.373 . S
C913 C915 1.389 . S
C914 H887 0.950 . S
C914 C900 1.377 . S
C914 C913 1.373 . S
C915 C899 1.377 . S
C915 C913 1.389 . S
C915 C916 1.524 . S
C916 C915 1.524 . S
C916 C917 1.397 . S
C916 C921 1.363 . S
C917 H888 0.950 . S
C917 C916 1.397 . S
C917 C918 1.334 . S
C918 H889 0.950 . S
C918 C917 1.334 . S
C918 C919 1.287 . S
C919 C918 1.287 . S
C919 C920 1.524 . S
C919 H922 0.999 . S
C920 H890 0.950 . S
C920 C919 1.524 . S
C920 C921 1.415 . S
C921 H891 0.950 . S
C921 C916 1.363 . S
C921 C920 1.415 . S
H922 C919 0.999 . S
H923 C904 0.913 . S
H924 C942 0.951 . S
H925 C944 0.951 . S
H926 C946 0.950 . S
H927 C947 0.950 . S
H928 C949 0.950 . S
H929 C952 0.950 . S
H930 C953 0.950 . S
H931 C955 0.950 . S
H932 C956 0.950 . S
H933 C957 0.951 . S
H934 C959 0.951 . S
H935 C961 0.950 . S
H936 C962 0.950 . S
H937 C964 0.950 . S
H938 C967 0.950 . S
H939 C968 0.950 . S
H940 C970 0.950 . S
H941 C971 0.950 . S
C942 H924 0.951 . S
C942 C943 1.366 . S
C942 C944 1.388 . S
C943 C942 1.366 . S
C943 C947 1.385 . S
C944 H925 0.951 . S
C944 C942 1.388 . S
C944 C945 1.366 . S
C945 C944 1.366 . S
C945 C946 1.414 . S
C945 C948 1.499 . S
C946 H926 0.950 . S
C946 C945 1.414 . S
C946 C947 1.374 . S
C947 H927 0.950 . S
C947 C943 1.385 . S
C947 C946 1.374 . S
C948 C945 1.499 . S
C948 C949 1.373 . S
C948 C950 1.389 . S
C949 H928 0.950 . S
C949 C948 1.373 . S
C949 C965 1.377 . S
C950 C948 1.389 . S
C950 C951 1.524 . S
C950 C964 1.377 . S
C951 C950 1.524 . S
C951 C952 1.397 . S
C951 C956 1.363 . S
C952 H929 0.950 . S
C952 C951 1.397 . S
C952 C953 1.334 . S
C953 H930 0.950 . S
C953 C952 1.334 . S
C953 C954 1.287 . S
C954 C953 1.287 . S
C954 C955 1.524 . S
C954 H973 0.913 . S
C955 H931 0.950 . S
C955 C954 1.524 . S
C955 C956 1.415 . S
C956 H932 0.950 . S
C956 C951 1.363 . S
C956 C955 1.415 . S
C957 H933 0.951 . S
C957 C958 1.366 . S
C957 C959 1.388 . S
C958 C957 1.366 . S
C958 C962 1.385 . S
C959 H934 0.951 . S
C959 C957 1.388 . S
C959 C960 1.366 . S
C960 C959 1.366 . S
C960 C961 1.414 . S
C960 C963 1.499 . S
C961 H935 0.950 . S
C961 C960 1.414 . S
C961 C962 1.374 . S
C962 H936 0.950 . S
C962 C958 1.385 . S
C962 C961 1.374 . S
C963 C960 1.499 . S
C963 C964 1.373 . S
C963 C965 1.389 . S
C964 H937 0.950 . S
C964 C950 1.377 . S
C964 C963 1.373 . S
C965 C949 1.377 . S
C965 C963 1.389 . S
C965 C966 1.524 . S
C966 C965 1.524 . S
C966 C967 1.397 . S
C966 C971 1.363 . S
C967 H938 0.950 . S
C967 C966 1.397 . S
C967 C968 1.334 . S
C968 H939 0.950 . S
C968 C967 1.334 . S
C968 C969 1.287 . S
C969 C968 1.287 . S
C969 C970 1.524 . S
C969 H972 0.999 . S
C970 H940 0.950 . S
C970 C969 1.524 . S
C970 C971 1.415 . S
C971 H941 0.950 . S
C971 C966 1.363 . S
C971 C970 1.415 . S
H972 C969 0.999 . S
H973 C954 0.913 . S
H974 C992 0.951 . S
H975 C994 0.951 . S
H976 C996 0.950 . S
H977 C997 0.950 . S
H978 C999 0.950 . S
H979 C1002 0.950 . S
H980 C1003 0.950 . S
H981 C1005 0.950 . S
H982 C1006 0.950 . S
H983 C1007 0.951 . S
H984 C1009 0.951 . S
H985 C1011 0.950 . S
H986 C1012 0.950 . S
H987 C1014 0.950 . S
H988 C1017 0.950 . S
H989 C1018 0.950 . S
H990 C1020 0.950 . S
H991 C1021 0.950 . S
C992 H974 0.951 . S
C992 C993 1.366 . S
C992 C994 1.388 . S
C993 C992 1.366 . S
C993 C997 1.385 . S
C994 H975 0.951 . S
C994 C992 1.388 . S
C994 C995 1.366 . S
C995 C994 1.366 . S
C995 C996 1.414 . S
C995 C998 1.499 . S
C996 H976 0.950 . S
C996 C995 1.414 . S
C996 C997 1.374 . S
C997 H977 0.950 . S
C997 C993 1.385 . S
C997 C996 1.374 . S
C998 C995 1.499 . S
C998 C999 1.373 . S
C998 C1000 1.389 . S
C999 H978 0.950 . S
C999 C998 1.373 . S
C999 C1015 1.377 . S
C1000 C998 1.389 . S
C1000 C1001 1.524 . S
C1000 C1014 1.377 . S
C1001 C1000 1.524 . S
C1001 C1002 1.397 . S
C1001 C1006 1.363 . S
C1002 H979 0.950 . S
C1002 C1001 1.397 . S
C1002 C1003 1.334 . S
C1003 H980 0.950 . S
C1003 C1002 1.334 . S
C1003 C1004 1.287 . S
C1004 C1003 1.287 . S
C1004 C1005 1.524 . S
C1004 H1023 0.913 . S
C1005 H981 0.950 . S
C1005 C1004 1.524 . S
C1005 C1006 1.415 . S
C1006 H982 0.950 . S
C1006 C1001 1.363 . S
C1006 C1005 1.415 . S
C1007 H983 0.951 . S
C1007 C1008 1.366 . S
C1007 C1009 1.388 . S
C1008 C1007 1.366 . S
C1008 C1012 1.385 . S
C1009 H984 0.951 . S
C1009 C1007 1.388 . S
C1009 C1010 1.366 . S
C1010 C1009 1.366 . S
C1010 C1011 1.414 . S
C1010 C1013 1.499 . S
C1011 H985 0.950 . S
C1011 C1010 1.414 . S
C1011 C1012 1.374 . S
C1012 H986 0.950 . S
C1012 C1008 1.385 . S
C1012 C1011 1.374 . S
C1013 C1010 1.499 . S
C1013 C1014 1.373 . S
C1013 C1015 1.389 . S
C1014 H987 0.950 . S
C1014 C1000 1.377 . S
C1014 C1013 1.373 . S
C1015 C999 1.377 . S
C1015 C1013 1.389 . S
C1015 C1016 1.524 . S
C1016 C1015 1.524 . S
C1016 C1017 1.397 . S
C1016 C1021 1.363 . S
C1017 H988 0.950 . S
C1017 C1016 1.397 . S
C1017 C1018 1.334 . S
C1018 H989 0.950 . S
C1018 C1017 1.334 . S
C1018 C1019 1.287 . S
C1019 C1018 1.287 . S
C1019 C1020 1.524 . S
C1019 H1022 0.999 . S
C1020 H990 0.950 . S
C1020 C1019 1.524 . S
C1020 C1021 1.415 . S
C1021 H991 0.950 . S
C1021 C1016 1.363 . S
C1021 C1020 1.415 . S
H1022 C1019 0.999 . S
H1023 C1004 0.913 . S
H1024 C1042 0.951 . S
H1025 C1044 0.951 1_565 S
H1026 C1046 0.950 . S
H1027 C1047 0.950 . S
H1028 C1049 0.950 . S
H1029 C1052 0.950 1_545 S
H1030 C1053 0.950 . S
H1031 C1055 0.950 . S
H1032 C1056 0.950 . S
H1033 C1057 0.951 . S
H1034 C1059 0.951 1_545 S
H1035 C1061 0.950 . S
H1036 C1062 0.950 . S
H1037 C1064 0.950 . S
H1038 C1067 0.950 1_565 S
H1039 C1068 0.950 . S
H1040 C1070 0.950 . S
H1041 C1071 0.950 . S
C1042 H1024 0.951 . S
C1042 C1043 1.366 . S
C1042 C1044 1.388 . S
C1043 C1042 1.366 . S
C1043 C1047 1.385 . S
C1044 H1025 0.951 1_545 S
C1044 C1042 1.388 . S
C1044 C1045 1.366 . S
C1045 C1044 1.366 . S
C1045 C1046 1.414 . S
C1045 C1048 1.499 . S
C1046 H1026 0.950 . S
C1046 C1045 1.414 . S
C1046 C1047 1.374 . S
C1047 H1027 0.950 . S
C1047 C1043 1.385 . S
C1047 C1046 1.374 . S
C1048 C1045 1.499 . S
C1048 C1049 1.373 . S
C1048 C1050 1.389 1_545 S
C1049 H1028 0.950 . S
C1049 C1048 1.373 . S
C1049 C1065 1.377 1_455 S
C1050 C1048 1.389 1_565 S
C1050 C1051 1.524 . S
C1050 C1064 1.377 1_455 S
C1051 C1050 1.524 . S
C1051 C1052 1.397 . S
C1051 C1056 1.363 . S
C1052 H1029 0.950 1_565 S
C1052 C1051 1.397 . S
C1052 C1053 1.334 . S
C1053 H1030 0.950 . S
C1053 C1052 1.334 . S
C1053 C1054 1.287 . S
C1054 C1053 1.287 . S
C1054 C1055 1.524 . S
C1054 H1073 0.913 . S
C1055 H1031 0.950 . S
C1055 C1054 1.524 . S
C1055 C1056 1.415 . S
C1056 H1032 0.950 . S
C1056 C1051 1.363 . S
C1056 C1055 1.415 . S
C1057 H1033 0.951 . S
C1057 C1058 1.366 . S
C1057 C1059 1.388 . S
C1058 C1057 1.366 . S
C1058 C1062 1.385 . S
C1059 H1034 0.951 1_565 S
C1059 C1057 1.388 . S
C1059 C1060 1.366 . S
C1060 C1059 1.366 . S
C1060 C1061 1.414 . S
C1060 C1063 1.499 . S
C1061 H1035 0.950 . S
C1061 C1060 1.414 . S
C1061 C1062 1.374 . S
C1062 H1036 0.950 . S
C1062 C1058 1.385 . S
C1062 C1061 1.374 . S
C1063 C1060 1.499 . S
C1063 C1064 1.373 . S
C1063 C1065 1.389 1_565 S
C1064 H1037 0.950 . S
C1064 C1050 1.377 1_655 S
C1064 C1063 1.373 . S
C1065 C1049 1.377 1_655 S
C1065 C1063 1.389 1_545 S
C1065 C1066 1.524 . S
C1066 C1065 1.524 . S
C1066 C1067 1.397 . S
C1066 C1071 1.363 . S
C1067 H1038 0.950 1_545 S
C1067 C1066 1.397 . S
C1067 C1068 1.334 . S
C1068 H1039 0.950 . S
C1068 C1067 1.334 . S
C1068 C1069 1.287 . S
C1069 C1068 1.287 . S
C1069 C1070 1.524 . S
C1069 H1072 0.999 . S
C1070 H1040 0.950 . S
C1070 C1069 1.524 . S
C1070 C1071 1.415 . S
C1071 H1041 0.950 . S
C1071 C1066 1.363 . S
C1071 C1070 1.415 . S
H1072 C1069 0.999 . S
H1073 C1054 0.913 . S
H1074 C1092 0.951 . S
H1075 C1094 0.951 . S
H1076 C1096 0.950 . S
H1077 C1097 0.950 . S
H1078 C1099 0.950 . S
H1079 C1102 0.950 . S
H1080 C1103 0.950 . S
H1081 C1105 0.950 . S
H1082 C1106 0.950 . S
H1083 C1107 0.951 . S
H1084 C1109 0.951 . S
H1085 C1111 0.950 . S
H1086 C1112 0.950 . S
H1087 C1114 0.950 . S
H1088 C1117 0.950 . S
H1089 C1118 0.950 . S
H1090 C1120 0.950 . S
H1091 C1121 0.950 . S
C1092 H1074 0.951 . S
C1092 C1093 1.366 . S
C1092 C1094 1.388 . S
C1093 C1092 1.366 . S
C1093 C1097 1.385 . S
C1094 H1075 0.951 . S
C1094 C1092 1.388 . S
C1094 C1095 1.366 . S
C1095 C1094 1.366 . S
C1095 C1096 1.414 . S
C1095 C1098 1.499 . S
C1096 H1076 0.950 . S
C1096 C1095 1.414 . S
C1096 C1097 1.374 . S
C1097 H1077 0.950 . S
C1097 C1093 1.385 . S
C1097 C1096 1.374 . S
C1098 C1095 1.499 . S
C1098 C1099 1.373 . S
C1098 C1100 1.389 1_455 S
C1099 H1078 0.950 . S
C1099 C1098 1.373 . S
C1099 C1115 1.377 . S
C1100 C1098 1.389 1_655 S
C1100 C1101 1.524 . S
C1100 C1114 1.377 . S
C1101 C1100 1.524 . S
C1101 C1102 1.397 . S
C1101 C1106 1.363 . S
C1102 H1079 0.950 . S
C1102 C1101 1.397 . S
C1102 C1103 1.334 . S
C1103 H1080 0.950 . S
C1103 C1102 1.334 . S
C1103 C1104 1.287 . S
C1104 C1103 1.287 . S
C1104 C1105 1.524 . S
C1104 H1123 0.913 . S
C1105 H1081 0.950 . S
C1105 C1104 1.524 . S
C1105 C1106 1.415 . S
C1106 H1082 0.950 . S
C1106 C1101 1.363 . S
C1106 C1105 1.415 . S
C1107 H1083 0.951 . S
C1107 C1108 1.366 . S
C1107 C1109 1.388 . S
C1108 C1107 1.366 . S
C1108 C1112 1.385 . S
C1109 H1084 0.951 . S
C1109 C1107 1.388 . S
C1109 C1110 1.366 . S
C1110 C1109 1.366 . S
C1110 C1111 1.414 . S
C1110 C1113 1.499 . S
C1111 H1085 0.950 . S
C1111 C1110 1.414 . S
C1111 C1112 1.374 . S
C1112 H1086 0.950 . S
C1112 C1108 1.385 . S
C1112 C1111 1.374 . S
C1113 C1110 1.499 . S
C1113 C1114 1.373 . S
C1113 C1115 1.389 1_655 S
C1114 H1087 0.950 . S
C1114 C1100 1.377 . S
C1114 C1113 1.373 . S
C1115 C1099 1.377 . S
C1115 C1113 1.389 1_455 S
C1115 C1116 1.524 . S
C1116 C1115 1.524 . S
C1116 C1117 1.397 . S
C1116 C1121 1.363 . S
C1117 H1088 0.950 . S
C1117 C1116 1.397 . S
C1117 C1118 1.334 . S
C1118 H1089 0.950 . S
C1118 C1117 1.334 . S
C1118 C1119 1.287 . S
C1119 C1118 1.287 . S
C1119 C1120 1.524 . S
C1119 H1122 0.999 . S
C1120 H1090 0.950 . S
C1120 C1119 1.524 . S
C1120 C1121 1.415 . S
C1121 H1091 0.950 . S
C1121 C1116 1.363 . S
C1121 C1120 1.415 . S
H1122 C1119 0.999 . S
H1123 C1104 0.913 . S
H1124 C1142 0.951 . S
H1125 C1144 0.951 . S
H1126 C1146 0.950 . S
H1127 C1147 0.950 . S
H1128 C1149 0.950 . S
H1129 C1152 0.950 . S
H1130 C1153 0.950 . S
H1131 C1155 0.950 . S
H1132 C1156 0.950 . S
H1133 C1157 0.951 . S
H1134 C1159 0.951 . S
H1135 C1161 0.950 . S
H1136 C1162 0.950 . S
H1137 C1164 0.950 . S
H1138 C1167 0.950 . S
H1139 C1168 0.950 . S
H1140 C1170 0.950 . S
H1141 C1171 0.950 . S
C1142 H1124 0.951 . S
C1142 C1143 1.366 . S
C1142 C1144 1.388 . S
C1143 C1142 1.366 . S
C1143 C1147 1.385 . S
C1144 H1125 0.951 . S
C1144 C1142 1.388 . S
C1144 C1145 1.366 . S
C1145 C1144 1.366 . S
C1145 C1146 1.414 . S
C1145 C1148 1.499 . S
C1146 H1126 0.950 . S
C1146 C1145 1.414 . S
C1146 C1147 1.374 . S
C1147 H1127 0.950 . S
C1147 C1143 1.385 . S
C1147 C1146 1.374 . S
C1148 C1145 1.499 . S
C1148 C1149 1.373 . S
C1148 C1150 1.389 . S
C1149 H1128 0.950 . S
C1149 C1148 1.373 . S
C1149 C1165 1.377 . S
C1150 C1148 1.389 . S
C1150 C1151 1.524 . S
C1150 C1164 1.377 . S
C1151 C1150 1.524 . S
C1151 C1152 1.397 . S
C1151 C1156 1.363 . S
C1152 H1129 0.950 . S
C1152 C1151 1.397 . S
C1152 C1153 1.334 . S
C1153 H1130 0.950 . S
C1153 C1152 1.334 . S
C1153 C1154 1.287 . S
C1154 C1153 1.287 . S
C1154 C1155 1.524 . S
C1154 H1173 0.913 . S
C1155 H1131 0.950 . S
C1155 C1154 1.524 . S
C1155 C1156 1.415 . S
C1156 H1132 0.950 . S
C1156 C1151 1.363 . S
C1156 C1155 1.415 . S
C1157 H1133 0.951 . S
C1157 C1158 1.366 . S
C1157 C1159 1.388 . S
C1158 C1157 1.366 . S
C1158 C1162 1.385 . S
C1159 H1134 0.951 . S
C1159 C1157 1.388 . S
C1159 C1160 1.366 . S
C1160 C1159 1.366 . S
C1160 C1161 1.414 . S
C1160 C1163 1.499 . S
C1161 H1135 0.950 . S
C1161 C1160 1.414 . S
C1161 C1162 1.374 . S
C1162 H1136 0.950 . S
C1162 C1158 1.385 . S
C1162 C1161 1.374 . S
C1163 C1160 1.499 . S
C1163 C1164 1.373 . S
C1163 C1165 1.389 . S
C1164 H1137 0.950 . S
C1164 C1150 1.377 . S
C1164 C1163 1.373 . S
C1165 C1149 1.377 . S
C1165 C1163 1.389 . S
C1165 C1166 1.524 . S
C1166 C1165 1.524 . S
C1166 C1167 1.397 . S
C1166 C1171 1.363 . S
C1167 H1138 0.950 . S
C1167 C1166 1.397 . S
C1167 C1168 1.334 . S
C1168 H1139 0.950 . S
C1168 C1167 1.334 . S
C1168 C1169 1.287 . S
C1169 C1168 1.287 . S
C1169 C1170 1.524 . S
C1169 H1172 0.999 . S
C1170 H1140 0.950 . S
C1170 C1169 1.524 . S
C1170 C1171 1.415 . S
C1171 H1141 0.950 . S
C1171 C1166 1.363 . S
C1171 C1170 1.415 . S
H1172 C1169 0.999 . S
H1173 C1154 0.913 . S
H1174 C1192 0.951 . S
H1175 C1194 0.951 . S
H1176 C1196 0.950 . S
H1177 C1197 0.950 . S
H1178 C1199 0.950 . S
H1179 C1202 0.950 . S
H1180 C1203 0.950 . S
H1181 C1205 0.950 . S
H1182 C1206 0.950 . S
H1183 C1207 0.951 . S
H1184 C1209 0.951 . S
H1185 C1211 0.950 . S
H1186 C1212 0.950 . S
H1187 C1214 0.950 . S
H1188 C1217 0.950 . S
H1189 C1218 0.950 . S
H1190 C1220 0.950 . S
H1191 C1221 0.950 . S
C1192 H1174 0.951 . S
C1192 C1193 1.366 . S
C1192 C1194 1.388 . S
C1193 C1192 1.366 . S
C1193 C1197 1.385 . S
C1194 H1175 0.951 . S
C1194 C1192 1.388 . S
C1194 C1195 1.366 . S
C1195 C1194 1.366 . S
C1195 C1196 1.414 . S
C1195 C1198 1.499 . S
C1196 H1176 0.950 . S
C1196 C1195 1.414 . S
C1196 C1197 1.374 . S
C1197 H1177 0.950 . S
C1197 C1193 1.385 . S
C1197 C1196 1.374 . S
C1198 C1195 1.499 . S
C1198 C1199 1.373 . S
C1198 C1200 1.389 . S
C1199 H1178 0.950 . S
C1199 C1198 1.373 . S
C1199 C1215 1.377 1_545 S
C1200 C1198 1.389 . S
C1200 C1201 1.524 . S
C1200 C1214 1.377 1_545 S
C1201 C1200 1.524 . S
C1201 C1202 1.397 . S
C1201 C1206 1.363 . S
C1202 H1179 0.950 . S
C1202 C1201 1.397 . S
C1202 C1203 1.334 . S
C1203 H1180 0.950 . S
C1203 C1202 1.334 . S
C1203 C1204 1.287 . S
C1204 C1203 1.287 . S
C1204 C1205 1.524 . S
C1204 H1223 0.913 . S
C1205 H1181 0.950 . S
C1205 C1204 1.524 . S
C1205 C1206 1.415 . S
C1206 H1182 0.950 . S
C1206 C1201 1.363 . S
C1206 C1205 1.415 . S
C1207 H1183 0.951 . S
C1207 C1208 1.366 . S
C1207 C1209 1.388 . S
C1208 C1207 1.366 . S
C1208 C1212 1.385 . S
C1209 H1184 0.951 . S
C1209 C1207 1.388 . S
C1209 C1210 1.366 . S
C1210 C1209 1.366 . S
C1210 C1211 1.414 . S
C1210 C1213 1.499 . S
C1211 H1185 0.950 . S
C1211 C1210 1.414 . S
C1211 C1212 1.374 . S
C1212 H1186 0.950 . S
C1212 C1208 1.385 . S
C1212 C1211 1.374 . S
C1213 C1210 1.499 . S
C1213 C1214 1.373 . S
C1213 C1215 1.389 . S
C1214 H1187 0.950 . S
C1214 C1200 1.377 1_565 S
C1214 C1213 1.373 . S
C1215 C1199 1.377 1_565 S
C1215 C1213 1.389 . S
C1215 C1216 1.524 . S
C1216 C1215 1.524 . S
C1216 C1217 1.397 . S
C1216 C1221 1.363 . S
C1217 H1188 0.950 . S
C1217 C1216 1.397 . S
C1217 C1218 1.334 . S
C1218 H1189 0.950 . S
C1218 C1217 1.334 . S
C1218 C1219 1.287 . S
C1219 C1218 1.287 . S
C1219 C1220 1.524 . S
C1219 H1222 0.999 . S
C1220 H1190 0.950 . S
C1220 C1219 1.524 . S
C1220 C1221 1.415 . S
C1221 H1191 0.950 . S
C1221 C1216 1.363 . S
C1221 C1220 1.415 . S
H1222 C1219 0.999 . S
H1223 C1204 0.913 . S
H1224 C1242 0.951 . S
H1225 C1244 0.951 . S
H1226 C1246 0.950 . S
H1227 C1247 0.950 . S
H1228 C1249 0.950 . S
H1229 C1252 0.950 . S
H1230 C1253 0.950 . S
H1231 C1255 0.950 . S
H1232 C1256 0.950 1_655 S
H1233 C1257 0.951 . S
H1234 C1259 0.951 . S
H1235 C1261 0.950 . S
H1236 C1262 0.950 . S
H1237 C1264 0.950 . S
H1238 C1267 0.950 . S
H1239 C1268 0.950 . S
H1240 C1270 0.950 . S
H1241 C1271 0.950 1_455 S
C1242 H1224 0.951 . S
C1242 C1243 1.366 . S
C1242 C1244 1.388 . S
C1243 C1242 1.366 . S
C1243 C1247 1.385 . S
C1244 H1225 0.951 . S
C1244 C1242 1.388 . S
C1244 C1245 1.366 . S
C1245 C1244 1.366 . S
C1245 C1246 1.414 . S
C1245 C1248 1.499 . S
C1246 H1226 0.950 . S
C1246 C1245 1.414 . S
C1246 C1247 1.374 . S
C1247 H1227 0.950 . S
C1247 C1243 1.385 . S
C1247 C1246 1.374 . S
C1248 C1245 1.499 . S
C1248 C1249 1.373 . S
C1248 C1250 1.389 . S
C1249 H1228 0.950 . S
C1249 C1248 1.373 . S
C1249 C1265 1.377 1_455 S
C1250 C1248 1.389 . S
C1250 C1251 1.524 . S
C1250 C1264 1.377 1_455 S
C1251 C1250 1.524 . S
C1251 C1252 1.397 . S
C1251 C1256 1.363 . S
C1252 H1229 0.950 . S
C1252 C1251 1.397 . S
C1252 C1253 1.334 . S
C1253 H1230 0.950 . S
C1253 C1252 1.334 . S
C1253 C1254 1.287 . S
C1254 C1253 1.287 . S
C1254 C1255 1.524 . S
C1254 H1273 0.913 . S
C1255 H1231 0.950 . S
C1255 C1254 1.524 . S
C1255 C1256 1.415 . S
C1256 H1232 0.950 1_455 S
C1256 C1251 1.363 . S
C1256 C1255 1.415 . S
C1257 H1233 0.951 . S
C1257 C1258 1.366 . S
C1257 C1259 1.388 . S
C1258 C1257 1.366 . S
C1258 C1262 1.385 . S
C1259 H1234 0.951 . S
C1259 C1257 1.388 . S
C1259 C1260 1.366 . S
C1260 C1259 1.366 . S
C1260 C1261 1.414 . S
C1260 C1263 1.499 . S
C1261 H1235 0.950 . S
C1261 C1260 1.414 . S
C1261 C1262 1.374 . S
C1262 H1236 0.950 . S
C1262 C1258 1.385 . S
C1262 C1261 1.374 . S
C1263 C1260 1.499 . S
C1263 C1264 1.373 . S
C1263 C1265 1.389 . S
C1264 H1237 0.950 . S
C1264 C1250 1.377 1_655 S
C1264 C1263 1.373 . S
C1265 C1249 1.377 1_655 S
C1265 C1263 1.389 . S
C1265 C1266 1.524 . S
C1266 C1265 1.524 . S
C1266 C1267 1.397 . S
C1266 C1271 1.363 . S
C1267 H1238 0.950 . S
C1267 C1266 1.397 . S
C1267 C1268 1.334 . S
C1268 H1239 0.950 . S
C1268 C1267 1.334 . S
C1268 C1269 1.287 . S
C1269 C1268 1.287 . S
C1269 C1270 1.524 . S
C1269 H1272 0.999 . S
C1270 H1240 0.950 . S
C1270 C1269 1.524 . S
C1270 C1271 1.415 . S
C1271 H1241 0.950 1_655 S
C1271 C1266 1.363 . S
C1271 C1270 1.415 . S
H1272 C1269 0.999 . S
H1273 C1254 0.913 . S
H1274 C1292 0.951 . S
H1275 C1294 0.951 . S
H1276 C1296 0.950 . S
H1277 C1297 0.950 . S
H1278 C1299 0.950 . S
H1279 C1302 0.950 . S
H1280 C1303 0.950 . S
H1281 C1305 0.950 . S
H1282 C1306 0.950 . S
H1283 C1307 0.951 . S
H1284 C1309 0.951 . S
H1285 C1311 0.950 . S
H1286 C1312 0.950 . S
H1287 C1314 0.950 . S
H1288 C1317 0.950 . S
H1289 C1318 0.950 . S
H1290 C1320 0.950 . S
H1291 C1321 0.950 . S
C1292 H1274 0.951 . S
C1292 C1293 1.366 . S
C1292 C1294 1.388 . S
C1293 C1292 1.366 . S
C1293 C1297 1.385 . S
C1294 H1275 0.951 . S
C1294 C1292 1.388 . S
C1294 C1295 1.366 . S
C1295 C1294 1.366 . S
C1295 C1296 1.414 . S
C1295 C1298 1.499 . S
C1296 H1276 0.950 . S
C1296 C1295 1.414 . S
C1296 C1297 1.374 . S
C1297 H1277 0.950 . S
C1297 C1293 1.385 . S
C1297 C1296 1.374 . S
C1298 C1295 1.499 . S
C1298 C1299 1.373 . S
C1298 C1300 1.389 . S
C1299 H1278 0.950 . S
C1299 C1298 1.373 . S
C1299 C1315 1.377 . S
C1300 C1298 1.389 . S
C1300 C1301 1.524 . S
C1300 C1314 1.377 . S
C1301 C1300 1.524 . S
C1301 C1302 1.397 . S
C1301 C1306 1.363 . S
C1302 H1279 0.950 . S
C1302 C1301 1.397 . S
C1302 C1303 1.334 . S
C1303 H1280 0.950 . S
C1303 C1302 1.334 . S
C1303 C1304 1.287 . S
C1304 C1303 1.287 . S
C1304 C1305 1.524 . S
C1304 H1323 0.913 . S
C1305 H1281 0.950 . S
C1305 C1304 1.524 . S
C1305 C1306 1.415 . S
C1306 H1282 0.950 . S
C1306 C1301 1.363 . S
C1306 C1305 1.415 . S
C1307 H1283 0.951 . S
C1307 C1308 1.366 . S
C1307 C1309 1.388 . S
C1308 C1307 1.366 . S
C1308 C1312 1.385 . S
C1309 H1284 0.951 . S
C1309 C1307 1.388 . S
C1309 C1310 1.366 . S
C1310 C1309 1.366 . S
C1310 C1311 1.414 . S
C1310 C1313 1.499 . S
C1311 H1285 0.950 . S
C1311 C1310 1.414 . S
C1311 C1312 1.374 . S
C1312 H1286 0.950 . S
C1312 C1308 1.385 . S
C1312 C1311 1.374 . S
C1313 C1310 1.499 . S
C1313 C1314 1.373 . S
C1313 C1315 1.389 . S
C1314 H1287 0.950 . S
C1314 C1300 1.377 . S
C1314 C1313 1.373 . S
C1315 C1299 1.377 . S
C1315 C1313 1.389 . S
C1315 C1316 1.524 . S
C1316 C1315 1.524 . S
C1316 C1317 1.397 . S
C1316 C1321 1.363 . S
C1317 H1288 0.950 . S
C1317 C1316 1.397 . S
C1317 C1318 1.334 . S
C1318 H1289 0.950 . S
C1318 C1317 1.334 . S
C1318 C1319 1.287 . S
C1319 C1318 1.287 . S
C1319 C1320 1.524 . S
C1319 H1322 0.999 . S
C1320 H1290 0.950 . S
C1320 C1319 1.524 . S
C1320 C1321 1.415 . S
C1321 H1291 0.950 . S
C1321 C1316 1.363 . S
C1321 C1320 1.415 . S
H1322 C1319 0.999 . S
H1323 C1304 0.913 . S
H1324 C1342 0.951 . S
H1325 C1344 0.951 1_545 S
H1326 C1346 0.950 . S
H1327 C1347 0.950 . S
H1328 C1349 0.950 . S
H1329 C1352 0.955 . S
H1330 C1353 0.950 1_565 S
H1331 C1355 0.950 . S
H1332 C1356 0.950 . S
H1333 C1357 0.951 . S
H1334 C1359 0.951 1_565 S
H1335 C1361 0.950 . S
H1336 C1362 0.950 . S
H1337 C1364 0.950 . S
H1338 C1367 0.953 . S
H1339 C1368 0.950 1_545 S
H1340 C1370 0.950 . S
H1341 C1371 0.950 . S
C1342 H1324 0.951 . S
C1342 C1343 1.366 . S
C1342 C1344 1.388 . S
C1343 C1342 1.366 . S
C1343 C1347 1.385 . S
C1344 H1325 0.951 1_565 S
C1344 C1342 1.388 . S
C1344 C1345 1.366 . S
C1345 C1344 1.366 . S
C1345 C1346 1.414 . S
C1345 C1348 1.499 . S
C1346 H1326 0.950 . S
C1346 C1345 1.414 . S
C1346 C1347 1.374 . S
C1347 H1327 0.950 . S
C1347 C1343 1.385 . S
C1347 C1346 1.374 . S
C1348 C1345 1.499 . S
C1348 C1349 1.373 . S
C1348 C1350 1.389 1_565 S
C1349 H1328 0.950 . S
C1349 C1348 1.373 . S
C1349 C1365 1.377 . S
C1350 C1348 1.389 1_545 S
C1350 C1351 1.524 . S
C1350 C1364 1.377 . S
C1351 C1350 1.524 . S
C1351 C1352 1.393 1_545 S
C1351 C1356 1.363 . S
C1352 H1329 0.955 . S
C1352 C1351 1.393 1_565 S
C1352 C1353 1.333 1_565 S
C1353 H1330 0.950 1_545 S
C1353 C1352 1.333 1_545 S
C1353 C1354 1.287 . S
C1354 C1353 1.287 . S
C1354 C1355 1.524 . S
C1354 H1373 0.913 . S
C1355 H1331 0.950 . S
C1355 C1354 1.524 . S
C1355 C1356 1.415 . S
C1356 H1332 0.950 . S
C1356 C1351 1.363 . S
C1356 C1355 1.415 . S
C1357 H1333 0.951 . S
C1357 C1358 1.366 . S
C1357 C1359 1.388 . S
C1358 C1357 1.366 . S
C1358 C1362 1.385 . S
C1359 H1334 0.951 1_545 S
C1359 C1357 1.388 . S
C1359 C1360 1.366 . S
C1360 C1359 1.366 . S
C1360 C1361 1.414 . S
C1360 C1363 1.499 . S
C1361 H1335 0.950 . S
C1361 C1360 1.414 . S
C1361 C1362 1.374 . S
C1362 H1336 0.950 . S
C1362 C1358 1.385 . S
C1362 C1361 1.374 . S
C1363 C1360 1.499 . S
C1363 C1364 1.373 . S
C1363 C1365 1.389 1_545 S
C1364 H1337 0.950 . S
C1364 C1350 1.377 . S
C1364 C1363 1.373 . S
C1365 C1349 1.377 . S
C1365 C1363 1.389 1_565 S
C1365 C1366 1.524 . S
C1366 C1365 1.524 . S
C1366 C1367 1.394 1_565 S
C1366 C1371 1.363 . S
C1367 H1338 0.953 . S
C1367 C1366 1.394 1_545 S
C1367 C1368 1.333 1_545 S
C1368 H1339 0.950 1_565 S
C1368 C1367 1.333 1_565 S
C1368 C1369 1.287 . S
C1369 C1368 1.287 . S
C1369 C1370 1.524 . S
C1369 H1372 0.999 . S
C1370 H1340 0.950 . S
C1370 C1369 1.524 . S
C1370 C1371 1.415 . S
C1371 H1341 0.950 . S
C1371 C1366 1.363 . S
C1371 C1370 1.415 . S
H1372 C1369 0.999 . S
H1373 C1354 0.913 . S
H1374 C1392 0.951 . S
H1375 C1394 0.951 1_655 S
H1376 C1396 0.950 . S
H1377 C1397 0.950 . S
H1378 C1399 0.950 . S
H1379 C1402 0.950 . S
H1380 C1403 0.950 . S
H1381 C1405 0.950 . S
H1382 C1406 0.950 . S
H1383 C1407 0.951 . S
H1384 C1409 0.951 1_455 S
H1385 C1411 0.950 . S
H1386 C1412 0.950 . S
H1387 C1414 0.950 . S
H1388 C1417 0.950 . S
H1389 C1418 0.950 . S
H1390 C1420 0.950 . S
H1391 C1421 0.950 . S
C1392 H1374 0.951 . S
C1392 C1393 1.366 . S
C1392 C1394 1.388 . S
C1393 C1392 1.366 . S
C1393 C1397 1.385 . S
C1394 H1375 0.951 1_455 S
C1394 C1392 1.388 . S
C1394 C1395 1.366 . S
C1395 C1394 1.366 . S
C1395 C1396 1.414 . S
C1395 C1398 1.499 . S
C1396 H1376 0.950 . S
C1396 C1395 1.414 . S
C1396 C1397 1.374 . S
C1397 H1377 0.950 . S
C1397 C1393 1.385 . S
C1397 C1396 1.374 . S
C1398 C1395 1.499 . S
C1398 C1399 1.373 . S
C1398 C1400 1.389 1_455 S
C1399 H1378 0.950 . S
C1399 C1398 1.373 . S
C1399 C1415 1.377 1_545 S
C1400 C1398 1.389 1_655 S
C1400 C1401 1.524 . S
C1400 C1414 1.377 1_545 S
C1401 C1400 1.524 . S
C1401 C1402 1.397 1_655 S
C1401 C1406 1.363 . S
C1402 H1379 0.950 . S
C1402 C1401 1.397 1_455 S
C1402 C1403 1.334 . S
C1403 H1380 0.950 . S
C1403 C1402 1.334 . S
C1403 C1404 1.287 1_455 S
C1404 C1403 1.287 1_655 S
C1404 C1405 1.524 . S
C1404 H1423 0.913 . S
C1405 H1381 0.950 . S
C1405 C1404 1.524 . S
C1405 C1406 1.415 . S
C1406 H1382 0.950 . S
C1406 C1401 1.363 . S
C1406 C1405 1.415 . S
C1407 H1383 0.951 . S
C1407 C1408 1.366 . S
C1407 C1409 1.388 . S
C1408 C1407 1.366 . S
C1408 C1412 1.385 . S
C1409 H1384 0.951 1_655 S
C1409 C1407 1.388 . S
C1409 C1410 1.366 . S
C1410 C1409 1.366 . S
C1410 C1411 1.414 . S
C1410 C1413 1.499 . S
C1411 H1385 0.950 . S
C1411 C1410 1.414 . S
C1411 C1412 1.374 . S
C1412 H1386 0.950 . S
C1412 C1408 1.385 . S
C1412 C1411 1.374 . S
C1413 C1410 1.499 . S
C1413 C1414 1.373 . S
C1413 C1415 1.389 1_655 S
C1414 H1387 0.950 . S
C1414 C1400 1.377 1_565 S
C1414 C1413 1.373 . S
C1415 C1399 1.377 1_565 S
C1415 C1413 1.389 1_455 S
C1415 C1416 1.524 . S
C1416 C1415 1.524 . S
C1416 C1417 1.397 1_455 S
C1416 C1421 1.363 . S
C1417 H1388 0.950 . S
C1417 C1416 1.397 1_655 S
C1417 C1418 1.334 . S
C1418 H1389 0.950 . S
C1418 C1417 1.334 . S
C1418 C1419 1.287 1_655 S
C1419 C1418 1.287 1_455 S
C1419 C1420 1.524 . S
C1419 H1422 0.999 . S
C1420 H1390 0.950 . S
C1420 C1419 1.524 . S
C1420 C1421 1.415 . S
C1421 H1391 0.950 . S
C1421 C1416 1.363 . S
C1421 C1420 1.415 . S
H1422 C1419 0.999 . S
H1423 C1404 0.913 . S
H1424 C1442 0.951 . S
H1425 C1444 0.951 . S
H1426 C1446 0.950 1_545 S
H1427 C1447 0.950 . S
H1428 C1449 0.950 . S
H1429 C1452 0.950 . S
H1430 C1453 0.950 . S
H1431 C1455 0.950 . S
H1432 C1456 0.950 . S
H1433 C1457 0.951 . S
H1434 C1459 0.951 . S
H1435 C1461 0.950 1_565 S
H1436 C1462 0.950 . S
H1437 C1464 0.950 . S
H1438 C1467 0.950 . S
H1439 C1468 0.950 . S
H1440 C1470 0.950 . S
H1441 C1471 0.950 . S
C1442 H1424 0.951 . S
C1442 C1443 1.366 . S
C1442 C1444 1.388 . S
C1443 C1442 1.366 . S
C1443 C1447 1.385 . S
C1444 H1425 0.951 . S
C1444 C1442 1.388 . S
C1444 C1445 1.366 . S
C1445 C1444 1.366 . S
C1445 C1446 1.414 . S
C1445 C1448 1.499 . S
C1446 H1426 0.950 1_565 S
C1446 C1445 1.414 . S
C1446 C1447 1.374 . S
C1447 H1427 0.950 . S
C1447 C1443 1.385 . S
C1447 C1446 1.374 . S
C1448 C1445 1.499 . S
C1448 C1449 1.373 1_565 S
C1448 C1450 1.389 . S
C1449 H1428 0.950 . S
C1449 C1448 1.373 1_545 S
C1449 C1465 1.377 . S
C1450 C1448 1.389 . S
C1450 C1451 1.524 . S
C1450 C1464 1.377 . S
C1451 C1450 1.524 . S
C1451 C1452 1.397 . S
C1451 C1456 1.363 . S
C1452 H1429 0.950 . S
C1452 C1451 1.397 . S
C1452 C1453 1.334 . S
C1453 H1430 0.950 . S
C1453 C1452 1.334 . S
C1453 C1454 1.287 . S
C1454 C1453 1.287 . S
C1454 C1455 1.524 . S
C1454 H1473 0.913 . S
C1455 H1431 0.950 . S
C1455 C1454 1.524 . S
C1455 C1456 1.415 . S
C1456 H1432 0.950 . S
C1456 C1451 1.363 . S
C1456 C1455 1.415 . S
C1457 H1433 0.951 . S
C1457 C1458 1.366 . S
C1457 C1459 1.388 . S
C1458 C1457 1.366 . S
C1458 C1462 1.385 . S
C1459 H1434 0.951 . S
C1459 C1457 1.388 . S
C1459 C1460 1.366 . S
C1460 C1459 1.366 . S
C1460 C1461 1.414 . S
C1460 C1463 1.499 . S
C1461 H1435 0.950 1_545 S
C1461 C1460 1.414 . S
C1461 C1462 1.374 . S
C1462 H1436 0.950 . S
C1462 C1458 1.385 . S
C1462 C1461 1.374 . S
C1463 C1460 1.499 . S
C1463 C1464 1.373 1_545 S
C1463 C1465 1.389 . S
C1464 H1437 0.950 . S
C1464 C1450 1.377 . S
C1464 C1463 1.373 1_565 S
C1465 C1449 1.377 . S
C1465 C1463 1.389 . S
C1465 C1466 1.524 . S
C1466 C1465 1.524 . S
C1466 C1467 1.397 . S
C1466 C1471 1.363 . S
C1467 H1438 0.950 . S
C1467 C1466 1.397 . S
C1467 C1468 1.334 . S
C1468 H1439 0.950 . S
C1468 C1467 1.334 . S
C1468 C1469 1.287 . S
C1469 C1468 1.287 . S
C1469 C1470 1.524 . S
C1469 H1472 0.999 . S
C1470 H1440 0.950 . S
C1470 C1469 1.524 . S
C1470 C1471 1.415 . S
C1471 H1441 0.950 . S
C1471 C1466 1.363 . S
C1471 C1470 1.415 . S
H1472 C1469 0.999 . S
H1473 C1454 0.913 . S
H1474 C1492 0.951 . S
H1475 C1494 0.951 . S
H1476 C1496 0.950 1_455 S
H1477 C1497 0.950 . S
H1478 C1499 0.950 . S
H1479 C1502 0.950 . S
H1480 C1503 0.950 . S
H1481 C1505 0.950 1_545 S
H1482 C1506 0.950 . S
H1483 C1507 0.951 . S
H1484 C1509 0.951 . S
H1485 C1511 0.950 1_655 S
H1486 C1512 0.950 . S
H1487 C1514 0.950 . S
H1488 C1517 0.950 . S
H1489 C1518 0.950 . S
H1490 C1520 0.950 1_565 S
H1491 C1521 0.950 . S
C1492 H1474 0.951 . S
C1492 C1493 1.366 . S
C1492 C1494 1.388 . S
C1493 C1492 1.366 . S
C1493 C1497 1.385 . S
C1494 H1475 0.951 . S
C1494 C1492 1.388 . S
C1494 C1495 1.366 . S
C1495 C1494 1.366 . S
C1495 C1496 1.414 . S
C1495 C1498 1.499 . S
C1496 H1476 0.950 1_655 S
C1496 C1495 1.414 . S
C1496 C1497 1.374 . S
C1497 H1477 0.950 . S
C1497 C1493 1.385 . S
C1497 C1496 1.374 . S
C1498 C1495 1.499 . S
C1498 C1499 1.373 1_655 S
C1498 C1500 1.389 . S
C1499 H1478 0.950 . S
C1499 C1498 1.373 1_455 S
C1499 C1515 1.377 1_565 S
C1500 C1498 1.389 . S
C1500 C1501 1.524 . S
C1500 C1514 1.377 1_565 S
C1501 C1500 1.524 . S
C1501 C1502 1.397 . S
C1501 C1506 1.363 1_565 S
C1502 H1479 0.950 . S
C1502 C1501 1.397 . S
C1502 C1503 1.334 . S
C1503 H1480 0.950 . S
C1503 C1502 1.334 . S
C1503 C1504 1.287 . S
C1504 C1503 1.287 . S
C1504 C1505 1.524 . S
C1504 H1523 0.913 . S
C1505 H1481 0.950 1_565 S
C1505 C1504 1.524 . S
C1505 C1506 1.415 1_565 S
C1506 H1482 0.950 . S
C1506 C1501 1.363 1_545 S
C1506 C1505 1.415 1_545 S
C1507 H1483 0.951 . S
C1507 C1508 1.366 . S
C1507 C1509 1.388 . S
C1508 C1507 1.366 . S
C1508 C1512 1.385 . S
C1509 H1484 0.951 . S
C1509 C1507 1.388 . S
C1509 C1510 1.366 . S
C1510 C1509 1.366 . S
C1510 C1511 1.414 . S
C1510 C1513 1.499 . S
C1511 H1485 0.950 1_455 S
C1511 C1510 1.414 . S
C1511 C1512 1.374 . S
C1512 H1486 0.950 . S
C1512 C1508 1.385 . S
C1512 C1511 1.374 . S
C1513 C1510 1.499 . S
C1513 C1514 1.373 1_455 S
C1513 C1515 1.389 . S
C1514 H1487 0.950 . S
C1514 C1500 1.377 1_545 S
C1514 C1513 1.373 1_655 S
C1515 C1499 1.377 1_545 S
C1515 C1513 1.389 . S
C1515 C1516 1.524 . S
C1516 C1515 1.524 . S
C1516 C1517 1.397 . S
C1516 C1521 1.363 1_545 S
C1517 H1488 0.950 . S
C1517 C1516 1.397 . S
C1517 C1518 1.334 . S
C1518 H1489 0.950 . S
C1518 C1517 1.334 . S
C1518 C1519 1.287 . S
C1519 C1518 1.287 . S
C1519 C1520 1.524 . S
C1519 H1522 0.999 . S
C1520 H1490 0.950 1_545 S
C1520 C1519 1.524 . S
C1520 C1521 1.415 1_545 S
C1521 H1491 0.950 . S
C1521 C1516 1.363 1_565 S
C1521 C1520 1.415 1_565 S
H1522 C1519 0.999 . S
H1523 C1504 0.913 . S
H1524 C1542 0.951 . S
H1525 C1544 0.951 . S
H1526 C1546 0.950 . S
H1527 C1547 0.950 . S
H1528 C1549 0.950 . S
H1529 C1552 0.950 . S
H1530 C1553 0.950 . S
H1531 C1555 0.950 . S
H1532 C1556 0.950 . S
H1533 C1557 0.951 . S
H1534 C1559 0.951 . S
H1535 C1561 0.950 . S
H1536 C1562 0.950 . S
H1537 C1564 0.950 . S
H1538 C1567 0.950 . S
H1539 C1568 0.950 . S
H1540 C1570 0.950 . S
H1541 C1571 0.950 . S
C1542 H1524 0.951 . S
C1542 C1543 1.366 . S
C1542 C1544 1.388 . S
C1543 C1542 1.366 . S
C1543 C1547 1.385 . S
C1544 H1525 0.951 . S
C1544 C1542 1.388 . S
C1544 C1545 1.366 . S
C1545 C1544 1.366 . S
C1545 C1546 1.414 . S
C1545 C1548 1.499 . S
C1546 H1526 0.950 . S
C1546 C1545 1.414 . S
C1546 C1547 1.374 . S
C1547 H1527 0.950 . S
C1547 C1543 1.385 . S
C1547 C1546 1.374 . S
C1548 C1545 1.499 . S
C1548 C1549 1.373 . S
C1548 C1550 1.389 . S
C1549 H1528 0.950 . S
C1549 C1548 1.373 . S
C1549 C1565 1.377 1_455 S
C1550 C1548 1.389 . S
C1550 C1551 1.524 . S
C1550 C1564 1.377 1_455 S
C1551 C1550 1.524 . S
C1551 C1552 1.397 . S
C1551 C1556 1.363 . S
C1552 H1529 0.950 . S
C1552 C1551 1.397 . S
C1552 C1553 1.334 . S
C1553 H1530 0.950 . S
C1553 C1552 1.334 . S
C1553 C1554 1.287 . S
C1554 C1553 1.287 . S
C1554 C1555 1.524 . S
C1554 H1573 0.913 . S
C1555 H1531 0.950 . S
C1555 C1554 1.524 . S
C1555 C1556 1.415 . S
C1556 H1532 0.950 . S
C1556 C1551 1.363 . S
C1556 C1555 1.415 . S
C1557 H1533 0.951 . S
C1557 C1558 1.366 . S
C1557 C1559 1.388 . S
C1558 C1557 1.366 . S
C1558 C1562 1.385 . S
C1559 H1534 0.951 . S
C1559 C1557 1.388 . S
C1559 C1560 1.366 . S
C1560 C1559 1.366 . S
C1560 C1561 1.414 . S
C1560 C1563 1.499 . S
C1561 H1535 0.950 . S
C1561 C1560 1.414 . S
C1561 C1562 1.374 . S
C1562 H1536 0.950 . S
C1562 C1558 1.385 . S
C1562 C1561 1.374 . S
C1563 C1560 1.499 . S
C1563 C1564 1.373 . S
C1563 C1565 1.389 . S
C1564 H1537 0.950 . S
C1564 C1550 1.377 1_655 S
C1564 C1563 1.373 . S
C1565 C1549 1.377 1_655 S
C1565 C1563 1.389 . S
C1565 C1566 1.524 . S
C1566 C1565 1.524 . S
C1566 C1567 1.397 . S
C1566 C1571 1.363 . S
C1567 H1538 0.950 . S
C1567 C1566 1.397 . S
C1567 C1568 1.334 . S
C1568 H1539 0.950 . S
C1568 C1567 1.334 . S
C1568 C1569 1.287 . S
C1569 C1568 1.287 . S
C1569 C1570 1.524 . S
C1569 H1572 0.999 . S
C1570 H1540 0.950 . S
C1570 C1569 1.524 . S
C1570 C1571 1.415 . S
C1571 H1541 0.950 . S
C1571 C1566 1.363 . S
C1571 C1570 1.415 . S
H1572 C1569 0.999 . S
H1573 C1554 0.913 . S
H1574 C1592 0.951 . S
H1575 C1594 0.951 . S
H1576 C1596 0.950 . S
H1577 C1597 0.950 . S
H1578 C1599 0.950 . S
H1579 C1602 0.950 . S
H1580 C1603 0.950 . S
H1581 C1605 0.950 . S
H1582 C1606 0.950 . S
H1583 C1607 0.951 . S
H1584 C1609 0.951 . S
H1585 C1611 0.950 . S
H1586 C1612 0.950 . S
H1587 C1614 0.950 . S
H1588 C1617 0.950 . S
H1589 C1618 0.950 . S
H1590 C1620 0.950 . S
H1591 C1621 0.950 . S
C1592 H1574 0.951 . S
C1592 C1593 1.366 . S
C1592 C1594 1.388 . S
C1593 C1592 1.366 . S
C1593 C1597 1.385 . S
C1594 H1575 0.951 . S
C1594 C1592 1.388 . S
C1594 C1595 1.366 . S
C1595 C1594 1.366 . S
C1595 C1596 1.414 . S
C1595 C1598 1.499 . S
C1596 H1576 0.950 . S
C1596 C1595 1.414 . S
C1596 C1597 1.374 . S
C1597 H1577 0.950 . S
C1597 C1593 1.385 . S
C1597 C1596 1.374 . S
C1598 C1595 1.499 . S
C1598 C1599 1.373 . S
C1598 C1600 1.389 . S
C1599 H1578 0.950 . S
C1599 C1598 1.373 . S
C1599 C1615 1.377 . S
C1600 C1598 1.389 . S
C1600 C1601 1.524 . S
C1600 C1614 1.377 . S
C1601 C1600 1.524 . S
C1601 C1602 1.397 . S
C1601 C1606 1.363 . S
C1602 H1579 0.950 . S
C1602 C1601 1.397 . S
C1602 C1603 1.334 . S
C1603 H1580 0.950 . S
C1603 C1602 1.334 . S
C1603 C1604 1.287 . S
C1604 C1603 1.287 . S
C1604 C1605 1.524 . S
C1604 H1623 0.913 . S
C1605 H1581 0.950 . S
C1605 C1604 1.524 . S
C1605 C1606 1.415 . S
C1606 H1582 0.950 . S
C1606 C1601 1.363 . S
C1606 C1605 1.415 . S
C1607 H1583 0.951 . S
C1607 C1608 1.366 . S
C1607 C1609 1.388 . S
C1608 C1607 1.366 . S
C1608 C1612 1.385 . S
C1609 H1584 0.951 . S
C1609 C1607 1.388 . S
C1609 C1610 1.366 . S
C1610 C1609 1.366 . S
C1610 C1611 1.414 . S
C1610 C1613 1.499 . S
C1611 H1585 0.950 . S
C1611 C1610 1.414 . S
C1611 C1612 1.374 . S
C1612 H1586 0.950 . S
C1612 C1608 1.385 . S
C1612 C1611 1.374 . S
C1613 C1610 1.499 . S
C1613 C1614 1.373 . S
C1613 C1615 1.389 . S
C1614 H1587 0.950 . S
C1614 C1600 1.377 . S
C1614 C1613 1.373 . S
C1615 C1599 1.377 . S
C1615 C1613 1.389 . S
C1615 C1616 1.524 . S
C1616 C1615 1.524 . S
C1616 C1617 1.397 . S
C1616 C1621 1.363 . S
C1617 H1588 0.950 . S
C1617 C1616 1.397 . S
C1617 C1618 1.334 . S
C1618 H1589 0.950 . S
C1618 C1617 1.334 . S
C1618 C1619 1.287 . S
C1619 C1618 1.287 . S
C1619 C1620 1.524 . S
C1619 H1622 0.999 . S
C1620 H1590 0.950 . S
C1620 C1619 1.524 . S
C1620 C1621 1.415 . S
C1621 H1591 0.950 . S
C1621 C1616 1.363 . S
C1621 C1620 1.415 . S
H1622 C1619 0.999 . S
H1623 C1604 0.913 . S
H1624 C1642 0.951 . S
H1625 C1644 0.951 . S
H1626 C1646 0.950 . S
H1627 C1647 0.950 . S
H1628 C1649 0.950 . S
H1629 C1652 0.950 . S
H1630 C1653 0.950 . S
H1631 C1655 0.950 . S
H1632 C1656 0.950 . S
H1633 C1657 0.951 . S
H1634 C1659 0.951 . S
H1635 C1661 0.950 . S
H1636 C1662 0.950 . S
H1637 C1664 0.950 . S
H1638 C1667 0.950 . S
H1639 C1668 0.950 . S
H1640 C1670 0.950 . S
H1641 C1671 0.950 . S
C1642 H1624 0.951 . S
C1642 C1643 1.366 . S
C1642 C1644 1.388 . S
C1643 C1642 1.366 . S
C1643 C1647 1.385 . S
C1644 H1625 0.951 . S
C1644 C1642 1.388 . S
C1644 C1645 1.366 . S
C1645 C1644 1.366 . S
C1645 C1646 1.414 . S
C1645 C1648 1.499 . S
C1646 H1626 0.950 . S
C1646 C1645 1.414 . S
C1646 C1647 1.374 . S
C1647 H1627 0.950 . S
C1647 C1643 1.385 . S
C1647 C1646 1.374 . S
C1648 C1645 1.499 . S
C1648 C1649 1.373 . S
C1648 C1650 1.389 . S
C1649 H1628 0.950 . S
C1649 C1648 1.373 . S
C1649 C1665 1.377 . S
C1650 C1648 1.389 . S
C1650 C1651 1.524 . S
C1650 C1664 1.377 . S
C1651 C1650 1.524 . S
C1651 C1652 1.397 . S
C1651 C1656 1.363 . S
C1652 H1629 0.950 . S
C1652 C1651 1.397 . S
C1652 C1653 1.334 . S
C1653 H1630 0.950 . S
C1653 C1652 1.334 . S
C1653 C1654 1.287 . S
C1654 C1653 1.287 . S
C1654 C1655 1.524 . S
C1654 H1673 0.913 . S
C1655 H1631 0.950 . S
C1655 C1654 1.524 . S
C1655 C1656 1.415 . S
C1656 H1632 0.950 . S
C1656 C1651 1.363 . S
C1656 C1655 1.415 . S
C1657 H1633 0.951 . S
C1657 C1658 1.366 . S
C1657 C1659 1.388 . S
C1658 C1657 1.366 . S
C1658 C1662 1.385 . S
C1659 H1634 0.951 . S
C1659 C1657 1.388 . S
C1659 C1660 1.366 . S
C1660 C1659 1.366 . S
C1660 C1661 1.414 . S
C1660 C1663 1.499 . S
C1661 H1635 0.950 . S
C1661 C1660 1.414 . S
C1661 C1662 1.374 . S
C1662 H1636 0.950 . S
C1662 C1658 1.385 . S
C1662 C1661 1.374 . S
C1663 C1660 1.499 . S
C1663 C1664 1.373 . S
C1663 C1665 1.389 . S
C1664 H1637 0.950 . S
C1664 C1650 1.377 . S
C1664 C1663 1.373 . S
C1665 C1649 1.377 . S
C1665 C1663 1.389 . S
C1665 C1666 1.524 . S
C1666 C1665 1.524 . S
C1666 C1667 1.397 . S
C1666 C1671 1.363 . S
C1667 H1638 0.950 . S
C1667 C1666 1.397 . S
C1667 C1668 1.334 . S
C1668 H1639 0.950 . S
C1668 C1667 1.334 . S
C1668 C1669 1.287 . S
C1669 C1668 1.287 . S
C1669 C1670 1.524 . S
C1669 H1672 0.999 . S
C1670 H1640 0.950 . S
C1670 C1669 1.524 . S
C1670 C1671 1.415 . S
C1671 H1641 0.950 . S
C1671 C1666 1.363 . S
C1671 C1670 1.415 . S
H1672 C1669 0.999 . S
H1673 C1654 0.913 . S
H1674 C1692 0.951 . S
H1675 C1694 0.951 . S
H1676 C1696 0.950 . S
H1677 C1697 0.950 . S
H1678 C1699 0.950 . S
H1679 C1702 0.950 . S
H1680 C1703 0.950 . S
H1681 C1705 0.950 . S
H1682 C1706 0.950 . S
H1683 C1707 0.951 . S
H1684 C1709 0.951 . S
H1685 C1711 0.950 . S
H1686 C1712 0.950 . S
H1687 C1714 0.950 . S
H1688 C1717 0.950 . S
H1689 C1718 0.950 . S
H1690 C1720 0.950 . S
H1691 C1721 0.950 . S
C1692 H1674 0.951 . S
C1692 C1693 1.366 . S
C1692 C1694 1.388 . S
C1693 C1692 1.366 . S
C1693 C1697 1.385 . S
C1694 H1675 0.951 . S
C1694 C1692 1.388 . S
C1694 C1695 1.366 . S
C1695 C1694 1.366 . S
C1695 C1696 1.414 . S
C1695 C1698 1.499 . S
C1696 H1676 0.950 . S
C1696 C1695 1.414 . S
C1696 C1697 1.374 . S
C1697 H1677 0.950 . S
C1697 C1693 1.385 . S
C1697 C1696 1.374 . S
C1698 C1695 1.499 . S
C1698 C1699 1.373 . S
C1698 C1700 1.389 . S
C1699 H1678 0.950 . S
C1699 C1698 1.373 . S
C1699 C1715 1.377 1_545 S
C1700 C1698 1.389 . S
C1700 C1701 1.524 . S
C1700 C1714 1.377 1_545 S
C1701 C1700 1.524 . S
C1701 C1702 1.397 . S
C1701 C1706 1.363 1_545 S
C1702 H1679 0.950 . S
C1702 C1701 1.397 . S
C1702 C1703 1.334 . S
C1703 H1680 0.950 . S
C1703 C1702 1.334 . S
C1703 C1704 1.287 . S
C1704 C1703 1.287 . S
C1704 C1705 1.524 1_545 S
C1704 H1723 0.913 . S
C1705 H1681 0.950 . S
C1705 C1704 1.524 1_565 S
C1705 C1706 1.415 . S
C1706 H1682 0.950 . S
C1706 C1701 1.363 1_565 S
C1706 C1705 1.415 . S
C1707 H1683 0.951 . S
C1707 C1708 1.366 . S
C1707 C1709 1.388 . S
C1708 C1707 1.366 . S
C1708 C1712 1.385 . S
C1709 H1684 0.951 . S
C1709 C1707 1.388 . S
C1709 C1710 1.366 . S
C1710 C1709 1.366 . S
C1710 C1711 1.414 . S
C1710 C1713 1.499 . S
C1711 H1685 0.950 . S
C1711 C1710 1.414 . S
C1711 C1712 1.374 . S
C1712 H1686 0.950 . S
C1712 C1708 1.385 . S
C1712 C1711 1.374 . S
C1713 C1710 1.499 . S
C1713 C1714 1.373 . S
C1713 C1715 1.389 . S
C1714 H1687 0.950 . S
C1714 C1700 1.377 1_565 S
C1714 C1713 1.373 . S
C1715 C1699 1.377 1_565 S
C1715 C1713 1.389 . S
C1715 C1716 1.524 . S
C1716 C1715 1.524 . S
C1716 C1717 1.397 . S
C1716 C1721 1.363 1_565 S
C1717 H1688 0.950 . S
C1717 C1716 1.397 . S
C1717 C1718 1.334 . S
C1718 H1689 0.950 . S
C1718 C1717 1.334 . S
C1718 C1719 1.287 . S
C1719 C1718 1.287 . S
C1719 C1720 1.524 1_565 S
C1719 H1722 0.999 . S
C1720 H1690 0.950 . S
C1720 C1719 1.524 1_545 S
C1720 C1721 1.415 . S
C1721 H1691 0.950 . S
C1721 C1716 1.363 1_545 S
C1721 C1720 1.415 . S
H1722 C1719 0.999 . S
H1723 C1704 0.913 . S
H1724 C1742 0.951 . S
H1725 C1744 0.951 . S
H1726 C1746 0.950 . S
H1727 C1747 0.950 . S
H1728 C1749 0.950 . S
H1729 C1752 0.950 . S
H1730 C1753 0.950 . S
H1731 C1755 0.950 . S
H1732 C1756 0.950 . S
H1733 C1757 0.951 . S
H1734 C1759 0.951 . S
H1735 C1761 0.950 . S
H1736 C1762 0.950 . S
H1737 C1764 0.950 . S
H1738 C1767 0.950 . S
H1739 C1768 0.950 . S
H1740 C1770 0.950 . S
H1741 C1771 0.950 . S
C1742 H1724 0.951 . S
C1742 C1743 1.366 . S
C1742 C1744 1.388 . S
C1743 C1742 1.366 . S
C1743 C1747 1.385 . S
C1744 H1725 0.951 . S
C1744 C1742 1.388 . S
C1744 C1745 1.366 . S
C1745 C1744 1.366 . S
C1745 C1746 1.414 . S
C1745 C1748 1.499 . S
C1746 H1726 0.950 . S
C1746 C1745 1.414 . S
C1746 C1747 1.374 . S
C1747 H1727 0.950 . S
C1747 C1743 1.385 . S
C1747 C1746 1.374 . S
C1748 C1745 1.499 . S
C1748 C1749 1.373 1_565 S
C1748 C1750 1.414 . S
C1749 H1728 0.950 . S
C1749 C1748 1.373 1_545 S
C1749 C1765 1.352 1_655 S
C1750 C1748 1.414 . S
C1750 C1751 1.523 1_655 S
C1750 C1764 1.352 1_655 S
C1751 C1750 1.523 1_455 S
C1751 C1752 1.383 1_455 S
C1751 C1756 1.379 . S
C1752 H1729 0.950 . S
C1752 C1751 1.383 1_655 S
C1752 C1753 1.334 . S
C1753 H1730 0.950 . S
C1753 C1752 1.334 . S
C1753 C1754 1.287 1_655 S
C1754 C1753 1.287 1_455 S
C1754 C1755 1.524 . S
C1754 H1773 0.913 . S
C1755 H1731 0.950 . S
C1755 C1754 1.524 . S
C1755 C1756 1.415 . S
C1756 H1732 0.950 . S
C1756 C1751 1.379 . S
C1756 C1755 1.415 . S
C1757 H1733 0.951 . S
C1757 C1758 1.366 . S
C1757 C1759 1.388 . S
C1758 C1757 1.366 . S
C1758 C1762 1.385 . S
C1759 H1734 0.951 . S
C1759 C1757 1.388 . S
C1759 C1760 1.366 . S
C1760 C1759 1.366 . S
C1760 C1761 1.414 . S
C1760 C1763 1.499 . S
C1761 H1735 0.950 . S
C1761 C1760 1.414 . S
C1761 C1762 1.374 . S
C1762 H1736 0.950 . S
C1762 C1758 1.385 . S
C1762 C1761 1.374 . S
C1763 C1760 1.499 . S
C1763 C1764 1.373 1_545 S
C1763 C1765 1.414 . S
C1764 H1737 0.950 . S
C1764 C1750 1.352 1_455 S
C1764 C1763 1.373 1_565 S
C1765 C1749 1.352 1_455 S
C1765 C1763 1.414 . S
C1765 C1766 1.523 1_455 S
C1766 C1765 1.523 1_655 S
C1766 C1767 1.383 1_655 S
C1766 C1771 1.380 . S
C1767 H1738 0.950 . S
C1767 C1766 1.383 1_455 S
C1767 C1768 1.334 . S
C1768 H1739 0.950 . S
C1768 C1767 1.334 . S
C1768 C1769 1.287 1_455 S
C1769 C1768 1.287 1_655 S
C1769 C1770 1.524 . S
C1769 H1772 0.999 . S
C1770 H1740 0.950 . S
C1770 C1769 1.524 . S
C1770 C1771 1.415 . S
C1771 H1741 0.950 . S
C1771 C1766 1.380 . S
C1771 C1770 1.415 . S
H1772 C1769 0.999 . S
H1773 C1754 0.913 . S
H1774 C1792 0.951 . S
H1775 C1794 0.951 . S
H1776 C1796 0.950 . S
H1777 C1797 0.950 . S
H1778 C1799 0.950 . S
H1779 C1802 0.950 . S
H1780 C1803 0.950 . S
H1781 C1805 0.950 1_455 S
H1782 C1806 0.950 . S
H1783 C1807 0.951 . S
H1784 C1809 0.951 . S
H1785 C1811 0.950 . S
H1786 C1812 0.950 . S
H1787 C1814 0.950 . S
H1788 C1817 0.950 . S
H1789 C1818 0.950 . S
H1790 C1820 0.950 1_655 S
H1791 C1821 0.950 . S
C1792 H1774 0.951 . S
C1792 C1793 1.366 . S
C1792 C1794 1.388 . S
C1793 C1792 1.366 . S
C1793 C1797 1.385 . S
C1794 H1775 0.951 . S
C1794 C1792 1.388 . S
C1794 C1795 1.366 . S
C1795 C1794 1.366 . S
C1795 C1796 1.414 . S
C1795 C1798 1.499 . S
C1796 H1776 0.950 . S
C1796 C1795 1.414 . S
C1796 C1797 1.374 . S
C1797 H1777 0.950 . S
C1797 C1793 1.385 . S
C1797 C1796 1.374 . S
C1798 C1795 1.499 . S
C1798 C1799 1.373 . S
C1798 C1800 1.389 . S
C1799 H1778 0.950 . S
C1799 C1798 1.373 . S
C1799 C1815 1.377 1_655 S
C1800 C1798 1.389 . S
C1800 C1801 1.524 . S
C1800 C1814 1.377 1_655 S
C1801 C1800 1.524 . S
C1801 C1802 1.397 . S
C1801 C1806 1.363 1_655 S
C1802 H1779 0.950 . S
C1802 C1801 1.397 . S
C1802 C1803 1.334 . S
C1803 H1780 0.950 . S
C1803 C1802 1.334 . S
C1803 C1804 1.287 . S
C1804 C1803 1.287 . S
C1804 C1805 1.524 . S
C1804 H1823 0.913 . S
C1805 H1781 0.950 1_655 S
C1805 C1804 1.524 . S
C1805 C1806 1.415 1_655 S
C1806 H1782 0.950 . S
C1806 C1801 1.363 1_455 S
C1806 C1805 1.415 1_455 S
C1807 H1783 0.951 . S
C1807 C1808 1.366 . S
C1807 C1809 1.388 . S
C1808 C1807 1.366 . S
C1808 C1812 1.385 . S
C1809 H1784 0.951 . S
C1809 C1807 1.388 . S
C1809 C1810 1.366 . S
C1810 C1809 1.366 . S
C1810 C1811 1.414 . S
C1810 C1813 1.499 . S
C1811 H1785 0.950 . S
C1811 C1810 1.414 . S
C1811 C1812 1.374 . S
C1812 H1786 0.950 . S
C1812 C1808 1.385 . S
C1812 C1811 1.374 . S
C1813 C1810 1.499 . S
C1813 C1814 1.373 . S
C1813 C1815 1.389 . S
C1814 H1787 0.950 . S
C1814 C1800 1.377 1_455 S
C1814 C1813 1.373 . S
C1815 C1799 1.377 1_455 S
C1815 C1813 1.389 . S
C1815 C1816 1.524 . S
C1816 C1815 1.524 . S
C1816 C1817 1.397 . S
C1816 C1821 1.363 1_455 S
C1817 H1788 0.950 . S
C1817 C1816 1.397 . S
C1817 C1818 1.334 . S
C1818 H1789 0.950 . S
C1818 C1817 1.334 . S
C1818 C1819 1.287 . S
C1819 C1818 1.287 . S
C1819 C1820 1.524 . S
C1819 H1822 0.999 . S
C1820 H1790 0.950 1_455 S
C1820 C1819 1.524 . S
C1820 C1821 1.415 1_455 S
C1821 H1791 0.950 . S
C1821 C1816 1.363 1_655 S
C1821 C1820 1.415 1_655 S
H1822 C1819 0.999 . S
H1823 C1804 0.913 . S
C243 C63 1.303 . S
C258 C7 1.302 . S
C293 C21 1.302 . S
C308 C77 1.303 . S
C343 C91 1.303 . S
C358 C35 1.302 . S
C393 C105 1.302 . S
C408 C49 1.302 . S
C443 C175 1.302 . S
C458 C119 1.302 . S
C493 C133 1.303 . S
C508 C189 1.302 . S
C543 C203 1.302 . S
C558 C147 1.303 . S
C593 C161 1.302 . S
C608 C217 1.302 . S
C643 C3 1.378 . S
C658 C213 1.378 . S
C693 C17 1.377 . S
C708 C171 1.378 . S
C743 C31 1.377 . S
C758 C185 1.377 . S
C793 C199 1.378 . S
C808 C45 1.377 . S
C843 C59 1.377 . S
C858 C129 1.377 . S
C893 C73 1.377 . S
C908 C143 1.378 . S
C943 C157 1.378 . S
C958 C87 1.377 . S
C993 C115 1.378 . S
C1008 C101 1.378 . S
C1043 C8 1.651 . S
C1058 C148 1.651 . S
C1093 C162 1.652 . S
C1108 C22 1.652 . S
C1143 C36 1.651 . S
C1158 C120 1.651 . S
C1193 C134 1.652 . S
C1208 C50 1.652 . S
C1243 C64 1.652 . S
C1258 C204 1.652 . S
C1293 C78 1.651 . S
C1308 C218 1.651 . S
C1343 C176 1.652 . S
C1358 C92 1.652 . S
C1393 C190 1.651 . S
C1408 C106 1.651 . S
C1443 C149 1.343 . S
C1458 C9 1.343 . S
C1493 C23 1.343 . S
C1508 C163 1.343 . S
C1543 C37 1.343 . S
C1558 C121 1.343 . S
C1593 C135 1.343 . S
C1608 C51 1.343 . S
C1643 C205 1.343 . S
C1658 C65 1.344 . S
C1693 C219 1.343 . S
C1708 C79 1.343 . S
C1743 C177 1.343 . S
C1758 C93 1.344 . S
C1793 C107 1.343 . S
C1808 C191 1.343 . S
