# Generated by pormake.
# Topology wiu, (6)-cn, num edge types: 1
# Building blocks:
#     Node 0, Type 0, BuildingBlock: CUKXOW_clean_sbu_0, # of connection points: 6
#     Node 1, Type 0, BuildingBlock: CUKXOW_clean_sbu_0, # of connection points: 6
#     Node 2, Type 0, BuildingBlock: CUKXOW_clean_sbu_0, # of connection points: 6
#     Node 3, Type 0, BuildingBlock: CUKXOW_clean_sbu_0, # of connection points: 6
#     Node 4, Type 0, BuildingBlock: CUKXOW_clean_sbu_0, # of connection points: 6
#     Node 5, Type 0, BuildingBlock: CUKXOW_clean_sbu_0, # of connection points: 6
#     Node 6, Type 0, BuildingBlock: CUKXOW_clean_sbu_0, # of connection points: 6
#     Node 7, Type 0, BuildingBlock: CUKXOW_clean_sbu_0, # of connection points: 6
#     Node 8, Type 0, BuildingBlock: CUKXOW_clean_sbu_0, # of connection points: 6
#     Node 9, Type 0, BuildingBlock: CUKXOW_clean_sbu_0, # of connection points: 6
#     Node 10, Type 0, BuildingBlock: CUKXOW_clean_sbu_0, # of connection points: 6
#     Node 11, Type 0, BuildingBlock: CUKXOW_clean_sbu_0, # of connection points: 6
#     Node 12, Type 0, BuildingBlock: CUKXOW_clean_sbu_0, # of connection points: 6
#     Node 13, Type 0, BuildingBlock: CUKXOW_clean_sbu_0, # of connection points: 6
#     Node 14, Type 0, BuildingBlock: CUKXOW_clean_sbu_0, # of connection points: 6
#     Node 15, Type 0, BuildingBlock: CUKXOW_clean_sbu_0, # of connection points: 6
#     Edge 16, Type (0, 0), BuildingBlock: ZUJKAS_clean_linker_0, # of connection points: 2
#     Edge 17, Type (0, 0), BuildingBlock: ZUJKAS_clean_linker_0, # of connection points: 2
#     Edge 18, Type (0, 0), BuildingBlock: ZUJKAS_clean_linker_0, # of connection points: 2
#     Edge 19, Type (0, 0), BuildingBlock: ZUJKAS_clean_linker_0, # of connection points: 2
#     Edge 20, Type (0, 0), BuildingBlock: ZUJKAS_clean_linker_0, # of connection points: 2
#     Edge 21, Type (0, 0), BuildingBlock: ZUJKAS_clean_linker_0, # of connection points: 2
#     Edge 22, Type (0, 0), BuildingBlock: ZUJKAS_clean_linker_0, # of connection points: 2
#     Edge 23, Type (0, 0), BuildingBlock: ZUJKAS_clean_linker_0, # of connection points: 2
#     Edge 24, Type (0, 0), BuildingBlock: ZUJKAS_clean_linker_0, # of connection points: 2
#     Edge 25, Type (0, 0), BuildingBlock: ZUJKAS_clean_linker_0, # of connection points: 2
#     Edge 26, Type (0, 0), BuildingBlock: ZUJKAS_clean_linker_0, # of connection points: 2
#     Edge 27, Type (0, 0), BuildingBlock: ZUJKAS_clean_linker_0, # of connection points: 2
#     Edge 28, Type (0, 0), BuildingBlock: ZUJKAS_clean_linker_0, # of connection points: 2
#     Edge 29, Type (0, 0), BuildingBlock: ZUJKAS_clean_linker_0, # of connection points: 2
#     Edge 30, Type (0, 0), BuildingBlock: ZUJKAS_clean_linker_0, # of connection points: 2
#     Edge 31, Type (0, 0), BuildingBlock: ZUJKAS_clean_linker_0, # of connection points: 2
#     Edge 32, Type (0, 0), BuildingBlock: ZUJKAS_clean_linker_0, # of connection points: 2
#     Edge 33, Type (0, 0), BuildingBlock: ZUJKAS_clean_linker_0, # of connection points: 2
#     Edge 34, Type (0, 0), BuildingBlock: ZUJKAS_clean_linker_0, # of connection points: 2
#     Edge 35, Type (0, 0), BuildingBlock: ZUJKAS_clean_linker_0, # of connection points: 2
#     Edge 36, Type (0, 0), BuildingBlock: ZUJKAS_clean_linker_0, # of connection points: 2
#     Edge 37, Type (0, 0), BuildingBlock: ZUJKAS_clean_linker_0, # of connection points: 2
#     Edge 38, Type (0, 0), BuildingBlock: ZUJKAS_clean_linker_0, # of connection points: 2
#     Edge 39, Type (0, 0), BuildingBlock: ZUJKAS_clean_linker_0, # of connection points: 2
#     Edge 40, Type (0, 0), BuildingBlock: ZUJKAS_clean_linker_0, # of connection points: 2
#     Edge 41, Type (0, 0), BuildingBlock: ZUJKAS_clean_linker_0, # of connection points: 2
#     Edge 42, Type (0, 0), BuildingBlock: ZUJKAS_clean_linker_0, # of connection points: 2
#     Edge 43, Type (0, 0), BuildingBlock: ZUJKAS_clean_linker_0, # of connection points: 2
#     Edge 44, Type (0, 0), BuildingBlock: ZUJKAS_clean_linker_0, # of connection points: 2
#     Edge 45, Type (0, 0), BuildingBlock: ZUJKAS_clean_linker_0, # of connection points: 2
#     Edge 46, Type (0, 0), BuildingBlock: ZUJKAS_clean_linker_0, # of connection points: 2
#     Edge 47, Type (0, 0), BuildingBlock: ZUJKAS_clean_linker_0, # of connection points: 2
#     Edge 48, Type (0, 0), BuildingBlock: ZUJKAS_clean_linker_0, # of connection points: 2
#     Edge 49, Type (0, 0), BuildingBlock: ZUJKAS_clean_linker_0, # of connection points: 2
#     Edge 50, Type (0, 0), BuildingBlock: ZUJKAS_clean_linker_0, # of connection points: 2
#     Edge 51, Type (0, 0), BuildingBlock: ZUJKAS_clean_linker_0, # of connection points: 2
#     Edge 52, Type (0, 0), BuildingBlock: ZUJKAS_clean_linker_0, # of connection points: 2
#     Edge 53, Type (0, 0), BuildingBlock: ZUJKAS_clean_linker_0, # of connection points: 2
#     Edge 54, Type (0, 0), BuildingBlock: ZUJKAS_clean_linker_0, # of connection points: 2
#     Edge 55, Type (0, 0), BuildingBlock: ZUJKAS_clean_linker_0, # of connection points: 2
#     Edge 56, Type (0, 0), BuildingBlock: ZUJKAS_clean_linker_0, # of connection points: 2
#     Edge 57, Type (0, 0), BuildingBlock: ZUJKAS_clean_linker_0, # of connection points: 2
#     Edge 58, Type (0, 0), BuildingBlock: ZUJKAS_clean_linker_0, # of connection points: 2
#     Edge 59, Type (0, 0), BuildingBlock: ZUJKAS_clean_linker_0, # of connection points: 2
#     Edge 60, Type (0, 0), BuildingBlock: ZUJKAS_clean_linker_0, # of connection points: 2
#     Edge 61, Type (0, 0), BuildingBlock: ZUJKAS_clean_linker_0, # of connection points: 2
#     Edge 62, Type (0, 0), BuildingBlock: ZUJKAS_clean_linker_0, # of connection points: 2
#     Edge 63, Type (0, 0), BuildingBlock: ZUJKAS_clean_linker_0, # of connection points: 2
# Relax obj value: 0.183
# Max RMSD: 0.249
# Mean RMSD: 0.249
data_MOF--net-wiu--node1-CUKXOW_clean_sbu_0--edge1-ZUJKAS_clean_linker_0
_symmetry_space_group_name_H-M    P1
_symmetry_Int_Tables_number       1
_symmetry_cell_setting            triclinic
loop_
_symmetry_equiv_pos_as_xyz
'x, y, z'
_cell_length_a     34.246628
_cell_length_b     34.232647
_cell_length_c     86.390485
_cell_angle_alpha  90.029515
_cell_angle_beta   90.023611
_cell_angle_gamma 90.115489
loop_
_atom_site_label
_atom_site_type_symbol
_atom_site_fract_x
_atom_site_fract_y
_atom_site_fract_z
_atom_type_partial_charge
Tb0 Tb 0.33321 0.08272 0.09222 0.0
C1 C 0.36254 0.14161 0.0672 0.0
Tb2 Tb 0.28838 0.09263 0.06297 0.0
O3 O 0.38624 0.06176 0.08139 0.0
O4 O 0.33281 0.05207 0.07028 0.0
O5 O 0.35944 0.1354 0.08234 0.0
C6 C 0.25421 0.08506 0.03533 0.0
O7 O 0.34211 0.12137 0.05701 0.0
C8 C 0.27963 0.15024 0.08307 0.0
C9 C 0.24806 0.044 0.08968 0.0
O10 O 0.24954 0.11392 0.0448 0.0
O11 O 0.27791 0.05995 0.04146 0.0
O12 O 0.27883 0.15476 0.06816 0.0
O13 O 0.28274 0.11421 0.08599 0.0
O14 O 0.24471 0.05805 0.07542 0.0
O15 O 0.28072 0.0483 0.09786 0.0
C16 C 0.35633 0.08122 0.12158 0.0
O17 O 0.35321 0.05092 0.11261 0.0
O18 O 0.34701 0.11252 0.11394 0.0
C19 C 0.37005 0.05045 0.06862 0.0
Tb20 Tb 0.6849 0.58367 0.34444 0.0
C21 C 0.62268 0.60807 0.31997 0.0
Tb22 Tb 0.68026 0.53981 0.31477 0.0
O23 O 0.7013 0.63823 0.33366 0.0
O24 O 0.71768 0.58617 0.3229 0.0
O25 O 0.63025 0.60574 0.33501 0.0
C26 C 0.69146 0.50906 0.28678 0.0
O27 O 0.6441 0.58977 0.30951 0.0
C28 C 0.62155 0.52562 0.33378 0.0
C29 C 0.72983 0.50195 0.34175 0.0
O30 O 0.67434 0.49175 0.29825 0.0
O31 O 0.70275 0.54351 0.29112 0.0
O32 O 0.61878 0.52452 0.31879 0.0
O33 O 0.65686 0.53171 0.33734 0.0
O34 O 0.71984 0.50003 0.32691 0.0
O35 O 0.72033 0.5324 0.35051 0.0
C36 C 0.68472 0.60715 0.37376 0.0
O37 O 0.71553 0.60424 0.36506 0.0
O38 O 0.65395 0.59724 0.36588 0.0
C39 C 0.71593 0.62338 0.32119 0.0
Tb40 Tb 0.18409 0.93605 0.59364 0.0
C41 C 0.16786 0.86963 0.56978 0.0
Tb42 Tb 0.23662 0.92785 0.56426 0.0
O43 O 0.13305 0.95298 0.5803 0.0
O44 O 0.1887 0.96493 0.57148 0.0
O45 O 0.16645 0.87914 0.58472 0.0
C46 C 0.26314 0.9338 0.53543 0.0
O47 O 0.18695 0.89075 0.55938 0.0
C48 C 0.25631 0.87717 0.58644 0.0
C49 C 0.27165 0.97397 0.59229 0.0
O50 O 0.26009 0.90177 0.54329 0.0
O51 O 0.25131 0.96303 0.54381 0.0
O52 O 0.27428 0.87956 0.5732 0.0
O53 O 0.23111 0.90366 0.58614 0.0
O54 O 0.27507 0.96645 0.57725 0.0
O55 O 0.23976 0.96456 0.6004 0.0
C56 C 0.15739 0.94409 0.62233 0.0
O57 O 0.1665 0.97265 0.61309 0.0
O58 O 0.16241 0.91098 0.61524 0.0
C59 C 0.15215 0.9648 0.56825 0.0
Tb60 Tb 0.82706 0.43884 0.84371 0.0
C61 C 0.88009 0.39844 0.81957 0.0
Tb62 Tb 0.84769 0.48276 0.81324 0.0
O63 O 0.79415 0.39245 0.83259 0.0
O64 O 0.80093 0.44557 0.82118 0.0
O65 O 0.87395 0.40301 0.83466 0.0
C66 C 0.84779 0.50859 0.78431 0.0
O67 O 0.86796 0.42382 0.80903 0.0
C68 C 0.90229 0.49456 0.83479 0.0
C69 C 0.80596 0.53029 0.83989 0.0
O70 O 0.87806 0.49614 0.79181 0.0
O71 O 0.81696 0.5062 0.79304 0.0
O72 O 0.90326 0.50979 0.82103 0.0
O73 O 0.87095 0.47537 0.83543 0.0
O74 O 0.81705 0.53037 0.82512 0.0
O75 O 0.80799 0.49861 0.84874 0.0
C76 C 0.81616 0.41851 0.87296 0.0
O77 O 0.78923 0.4314 0.8637 0.0
O78 O 0.84928 0.4164 0.86566 0.0
C79 C 0.79014 0.4099 0.81937 0.0
Tb80 Tb 0.73776 0.9313 0.95497 0.0
C81 C 0.78317 0.9774 0.92851 0.0
Tb82 Tb 0.696 0.94596 0.92505 0.0
O83 O 0.73852 0.8684 0.95009 0.0
O84 O 0.74178 0.90862 0.93203 0.0
O85 O 0.78463 0.96263 0.94274 0.0
C86 C 0.67582 0.94511 0.89535 0.0
O87 O 0.75083 0.97622 0.92006 0.0
C88 C 0.66232 0.98391 0.94806 0.0
C89 C 0.65555 0.89577 0.95064 0.0
O90 O 0.68088 0.97636 0.90367 0.0
O91 O 0.68142 0.91433 0.90385 0.0
O92 O 0.64607 0.97585 0.93488 0.0
O93 O 0.69898 0.9763 0.94688 0.0
O94 O 0.66039 0.8999 0.93546 0.0
O95 O 0.68058 0.91006 0.96081 0.0
C96 C 0.77192 0.9363 0.98273 0.0
O97 O 0.77946 0.91024 0.97229 0.0
O98 O 0.74551 0.95987 0.97747 0.0
C99 C 0.73961 0.8726 0.93515 0.0
Tb100 Tb 0.35217 0.48329 0.70566 0.0
C101 C 0.30333 0.53173 0.68098 0.0
Tb102 Tb 0.33208 0.4445 0.6755 0.0
O103 O 0.41436 0.48304 0.69954 0.0
O104 O 0.37189 0.48845 0.68237 0.0
O105 O 0.32023 0.53163 0.69483 0.0
C106 C 0.32735 0.42741 0.64558 0.0
O107 O 0.30229 0.50024 0.67204 0.0
C108 C 0.29664 0.41007 0.69901 0.0
C109 C 0.3847 0.40052 0.69942 0.0
O110 O 0.35967 0.43211 0.65324 0.0
O111 O 0.29776 0.43153 0.65485 0.0
O112 O 0.30249 0.3946 0.68551 0.0
O113 O 0.305 0.44664 0.69795 0.0
O114 O 0.37801 0.40616 0.68441 0.0
O115 O 0.37327 0.42552 0.71013 0.0
C116 C 0.35077 0.51405 0.73403 0.0
O117 O 0.37295 0.52571 0.72278 0.0
O118 O 0.32919 0.48529 0.72927 0.0
C119 C 0.40817 0.48513 0.68471 0.0
Tb120 Tb 0.78881 0.10063 0.45625 0.0
C121 C 0.73849 0.05453 0.43106 0.0
Tb122 Tb 0.82639 0.08114 0.42604 0.0
O123 O 0.79129 0.16295 0.45084 0.0
O124 O 0.78368 0.12215 0.43312 0.0
O125 O 0.73841 0.07282 0.44468 0.0
C126 C 0.84317 0.07958 0.39605 0.0
O127 O 0.77052 0.0518 0.42253 0.0
C128 C 0.86006 0.04273 0.44899 0.0
C129 C 0.8731 0.12942 0.45033 0.0
O130 O 0.83884 0.04899 0.40478 0.0
O131 O 0.83881 0.111 0.40428 0.0
O132 O 0.87551 0.04895 0.4355 0.0
O133 O 0.82399 0.05286 0.44825 0.0
O134 O 0.86579 0.12538 0.43532 0.0
O135 O 0.84842 0.11719 0.46106 0.0
C136 C 0.75635 0.09949 0.48438 0.0
O137 O 0.75678 0.129 0.47503 0.0
O138 O 0.77396 0.07032 0.47786 0.0
C139 C 0.78852 0.15816 0.43598 0.0
Tb140 Tb 0.18066 0.54228 0.20388 0.0
C141 C 0.22584 0.49379 0.17796 0.0
Tb142 Tb 0.19839 0.58186 0.17383 0.0
O143 O 0.11805 0.54468 0.19886 0.0
O144 O 0.15822 0.53831 0.18088 0.0
O145 O 0.21077 0.49373 0.19216 0.0
C146 C 0.19887 0.60159 0.14414 0.0
O147 O 0.2259 0.52557 0.16919 0.0
C148 C 0.23759 0.61457 0.19683 0.0
C149 C 0.14989 0.62615 0.19882 0.0
O150 O 0.22973 0.59446 0.15243 0.0
O151 O 0.1678 0.59817 0.15264 0.0
O152 O 0.23096 0.63057 0.18349 0.0
O153 O 0.22782 0.57836 0.19582 0.0
O154 O 0.15407 0.62016 0.18372 0.0
O155 O 0.16238 0.60092 0.20926 0.0
C156 C 0.18207 0.50818 0.23166 0.0
O157 O 0.15679 0.50124 0.22086 0.0
O158 O 0.20685 0.534 0.22677 0.0
C159 C 0.12234 0.54257 0.18395 0.0
Tb160 Tb 0.83202 0.58152 0.59209 0.0
C161 C 0.87852 0.62872 0.56743 0.0
Tb162 Tb 0.79365 0.60033 0.56219 0.0
O163 O 0.88023 0.54857 0.58278 0.0
O164 O 0.82857 0.55203 0.57004 0.0
O165 O 0.87198 0.6249 0.58251 0.0
C166 C 0.75962 0.60023 0.53437 0.0
O167 O 0.85289 0.6172 0.55692 0.0
C168 C 0.79541 0.65876 0.58213 0.0
C169 C 0.74414 0.55437 0.5876 0.0
O170 O 0.75094 0.62344 0.54568 0.0
O171 O 0.78725 0.57695 0.53874 0.0
O172 O 0.79809 0.66286 0.56723 0.0
O173 O 0.78973 0.62303 0.58518 0.0
O174 O 0.74452 0.56966 0.57345 0.0
O175 O 0.77557 0.55449 0.5965 0.0
C176 C 0.85047 0.57605 0.62179 0.0
O177 O 0.84137 0.54697 0.61284 0.0
O178 O 0.84981 0.60845 0.61395 0.0
C179 C 0.86477 0.54202 0.56935 0.0
Tb180 Tb 0.18676 0.07812 0.84293 0.0
C181 C 0.12363 0.10211 0.81876 0.0
Tb182 Tb 0.18327 0.03575 0.81272 0.0
O183 O 0.20104 0.13375 0.83262 0.0
O184 O 0.2191 0.0828 0.82135 0.0
O185 O 0.13142 0.0993 0.83377 0.0
C186 C 0.19473 1.00941 0.784 0.0
O187 O 0.14519 0.08465 0.80813 0.0
C188 C 0.12569 0.01865 0.83195 0.0
C189 C 0.23466 0.99836 0.83934 0.0
O190 O 0.18063 0.98912 0.79538 0.0
O191 O 0.20313 0.04423 0.7889 0.0
O192 O 0.12224 0.01822 0.81697 0.0
O193 O 0.16089 0.02581 0.83524 0.0
O194 O 0.22396 0.99626 0.82456 0.0
O195 O 0.2251 0.0286 0.84821 0.0
C196 C 0.18504 0.09795 0.87264 0.0
O197 O 0.21559 0.10003 0.86375 0.0
O198 O 0.15535 0.08538 0.86471 0.0
C199 C 0.21603 0.12005 0.81999 0.0
Tb200 Tb 0.68472 0.45095 0.09576 0.0
C201 C 0.64616 0.39943 0.07023 0.0
Tb202 Tb 0.73075 0.43303 0.06507 0.0
O203 O 0.63885 0.4849 0.08476 0.0
O204 O 0.69201 0.47782 0.07348 0.0
O205 O 0.64867 0.40557 0.08542 0.0
C206 C 0.75609 0.43255 0.03609 0.0
O207 O 0.67273 0.41167 0.06021 0.0
C208 C 0.74286 0.3788 0.08673 0.0
C209 C 0.77532 0.47694 0.09193 0.0
O210 O 0.7449 0.40219 0.04386 0.0
O211 O 0.75294 0.46374 0.0446 0.0
O212 O 0.75987 0.37874 0.0733 0.0
O213 O 0.72226 0.40907 0.08694 0.0
O214 O 0.77614 0.46602 0.07714 0.0
O215 O 0.74362 0.47355 0.10079 0.0
C216 C 0.66305 0.45267 0.12521 0.0
O217 O 0.67102 0.48325 0.11685 0.0
O218 O 0.66674 0.42127 0.1169 0.0
C219 C 0.65656 0.48906 0.07156 0.0
Tb220 Tb 0.32346 0.94172 0.3416 0.0
C221 C 0.37146 0.89051 0.31874 0.0
Tb222 Tb 0.3514 0.97659 0.312 0.0
O223 O 0.28833 0.89518 0.3316 0.0
O224 O 0.29973 0.94508 0.31859 0.0
O225 O 0.36589 0.8986 0.33362 0.0
C226 C 0.35454 1.00886 0.28387 0.0
O227 O 0.36283 0.91576 0.30771 0.0
C228 C 0.40463 0.97464 0.3341 0.0
C229 C 0.30743 0.03184 0.33596 0.0
O230 O 0.38437 0.99814 0.29203 0.0
O231 O 0.32287 1.00154 0.29155 0.0
O232 O 0.41236 0.97166 0.31944 0.0
O233 O 0.36856 0.98145 0.33564 0.0
O234 O 0.329 0.02999 0.32316 0.0
O235 O 0.2987 1.00018 0.3441 0.0
C236 C 0.31492 0.92614 0.3715 0.0
O237 O 0.28678 0.93524 0.36209 0.0
O238 O 0.34777 0.92504 0.364 0.0
C239 C 0.28641 0.91004 0.3178 0.0
Tb240 Tb 0.2341 0.42736 0.45324 0.0
C241 C 0.27332 0.47322 0.42587 0.0
Tb242 Tb 0.18652 0.4357 0.42274 0.0
O243 O 0.27218 0.37794 0.44555 0.0
O244 O 0.23203 0.40262 0.43134 0.0
O245 O 0.2748 0.46528 0.44093 0.0
C246 C 0.16265 0.44161 0.39358 0.0
O247 O 0.24259 0.46412 0.41707 0.0
C248 C 0.15076 0.46595 0.4471 0.0
C249 C 0.16533 0.37078 0.44643 0.0
O250 O 0.17217 0.4708 0.40244 0.0
O251 O 0.16598 0.40915 0.40123 0.0
O252 O 0.13408 0.45505 0.43436 0.0
O253 O 0.18784 0.46521 0.44499 0.0
O254 O 0.16695 0.37925 0.43142 0.0
O255 O 0.18227 0.39272 0.45712 0.0
C256 C 0.25659 0.43255 0.48265 0.0
O257 O 0.24516 0.40102 0.4757 0.0
O258 O 0.25554 0.46171 0.473 0.0
C259 C 0.25665 0.37561 0.43183 0.0
Tb260 Tb 0.84746 0.98692 0.20502 0.0
C261 C 0.79954 0.03124 0.17912 0.0
Tb262 Tb 0.83651 0.94592 0.17495 0.0
O263 O 0.90913 0.99881 0.20008 0.0
O264 O 0.8689 0.99534 0.18207 0.0
O265 O 0.81562 0.03343 0.19309 0.0
C266 C 0.83502 0.92605 0.14518 0.0
O267 O 0.80164 0.99891 0.1706 0.0
C268 C 0.80509 0.90594 0.19808 0.0
C269 C 0.89639 0.91404 0.19903 0.0
O270 O 0.80455 0.92953 0.15402 0.0
O271 O 0.86636 0.93316 0.15318 0.0
O272 O 0.81622 0.89143 0.18497 0.0
O273 O 0.80671 0.94328 0.19702 0.0
O274 O 0.88978 0.91931 0.18401 0.0
O275 O 0.8755 0.93201 0.2097 0.0
C276 C 0.83952 0.01765 0.23324 0.0
O277 O 0.87159 0.01571 0.22542 0.0
O278 O 0.81142 1.00244 0.22516 0.0
C279 C 0.90488 0.9987 0.18516 0.0
Tb280 Tb 0.28903 0.59591 0.95437 0.0
C281 C 0.24958 0.54723 0.92744 0.0
Tb282 Tb 0.33438 0.58681 0.92505 0.0
O283 O 0.27976 0.65828 0.94975 0.0
O284 O 0.28428 0.61878 0.93149 0.0
O285 O 0.24712 0.55903 0.94204 0.0
C286 C 0.35831 0.58577 0.8958 0.0
O287 O 0.28128 0.5538 0.91893 0.0
C288 C 0.36993 0.55342 0.94876 0.0
C289 C 0.3633 0.64567 0.95024 0.0
O290 O 0.35347 0.55517 0.90448 0.0
O291 O 0.35023 0.61706 0.90367 0.0
O292 O 0.38684 0.56483 0.93615 0.0
O293 O 0.33286 0.55537 0.94672 0.0
O294 O 0.36087 0.63912 0.9351 0.0
O295 O 0.34198 0.62623 0.96038 0.0
C296 C 0.25529 0.58659 0.98194 0.0
O297 O 0.28688 0.56934 0.97737 0.0
O298 O 0.24243 0.60877 0.97093 0.0
C299 C 0.28122 0.65466 0.93479 0.0
Tb300 Tb 0.67815 0.0344 0.70527 0.0
C301 C 0.72809 0.99903 0.6779 0.0
Tb302 Tb 0.68249 0.08065 0.67605 0.0
O303 O 0.61677 0.0191 0.70111 0.0
O304 O 0.65466 0.02803 0.68257 0.0
O305 O 0.71723 0.9953 0.69258 0.0
C306 C 0.68266 0.10518 0.64685 0.0
O307 O 0.71909 0.03048 0.66963 0.0
C308 C 0.71354 0.11827 0.69983 0.0
C309 C 0.62066 0.10313 0.70094 0.0
O310 O 0.7129 0.10441 0.65593 0.0
O311 O 0.65217 0.09272 0.65431 0.0
O312 O 0.69919 0.13453 0.68758 0.0
O313 O 0.71524 0.08129 0.6975 0.0
O314 O 0.62803 0.10204 0.68586 0.0
O315 O 0.64204 0.08389 0.71114 0.0
C316 C 0.69089 1.0029 0.73308 0.0
O317 O 0.6715 0.98663 0.72191 0.0
O318 O 0.70362 0.03666 0.7285 0.0
C319 C 0.61937 0.02148 0.68613 0.0
H320 H 0.37377 0.16225 0.03707 0.0
H321 H 0.40962 0.21874 0.02731 0.0
H322 H 0.43931 0.25155 0.07408 0.0
H323 H 0.40287 0.19561 0.08406 0.0
H324 H 0.41264 0.31528 0.05288 0.0
H325 H 0.53125 0.22041 0.02933 0.0
H326 H 0.48123 0.212 0.02381 0.0
H327 H 0.49678 0.20121 0.04317 0.0
C328 C 0.3879 0.18148 0.04531 0.0
C329 C 0.38589 0.17436 0.06136 0.0
C330 C 0.40811 0.21376 0.03968 0.0
C331 C 0.42675 0.23904 0.05001 0.0
C332 C 0.42459 0.23228 0.066 0.0
H333 H 0.58097 0.37578 0.08584 0.0
H334 H 0.52187 0.34764 0.07476 0.0
C335 C 0.40425 0.20014 0.07166 0.0
C336 C 0.45169 0.2708 0.04444 0.0
H337 H 0.54716 0.28488 0.03547 0.0
C338 C 0.4417 0.30911 0.04853 0.0
C339 C 0.48901 0.26258 0.03834 0.0
C340 C 0.5005 0.22189 0.03337 0.0
C341 C 0.47 0.33855 0.04864 0.0
C342 C 0.50885 0.3287 0.04492 0.0
C343 C 0.51732 0.29198 0.03859 0.0
C344 C 0.54181 0.35146 0.05098 0.0
C345 C 0.45891 0.37896 0.05398 0.0
C346 C 0.57286 0.36174 0.04131 0.0
C347 C 0.60687 0.37723 0.04763 0.0
C348 C 0.6105 0.38211 0.06376 0.0
C349 C 0.57913 0.37217 0.0734 0.0
C350 C 0.54508 0.35682 0.06705 0.0
H351 H 0.42873 0.3862 0.05025 0.0
H352 H 0.45959 0.38003 0.06682 0.0
H353 H 0.47932 0.40141 0.04939 0.0
H354 H 0.57105 0.35701 0.02893 0.0
H355 H 0.6304 0.38497 0.03983 0.0
H356 H 0.59048 0.60549 0.29109 0.0
H357 H 0.52902 0.63471 0.2827 0.0
H358 H 0.51165 0.68156 0.32856 0.0
H359 H 0.57248 0.65175 0.33719 0.0
H360 H 0.44247 0.64862 0.31409 0.0
H361 H 0.5234 0.75343 0.27619 0.0
H362 H 0.52945 0.70175 0.27333 0.0
H363 H 0.54893 0.72453 0.29039 0.0
C364 C 0.57362 0.6221 0.2994 0.0
C365 C 0.58658 0.62697 0.31475 0.0
C366 C 0.53845 0.63845 0.29458 0.0
C367 C 0.51611 0.66022 0.30501 0.0
C368 C 0.52854 0.66448 0.3204 0.0
H369 H 0.39672 0.8313 0.3373 0.0
H370 H 0.41688 0.76624 0.32924 0.0
C371 C 0.56348 0.64788 0.32526 0.0
C372 C 0.4818 0.6823 0.29988 0.0
H373 H 0.4619 0.77171 0.28486 0.0
C374 C 0.44606 0.67495 0.30724 0.0
C375 C 0.48639 0.71594 0.29058 0.0
C376 C 0.52403 0.72467 0.28215 0.0
C377 C 0.41657 0.70315 0.30727 0.0
C378 C 0.42373 0.73935 0.3 0.0
C379 C 0.45689 0.74406 0.29066 0.0
C380 C 0.40357 0.77513 0.30494 0.0
C381 C 0.37952 0.69526 0.31615 0.0
C382 C 0.39007 0.80187 0.29393 0.0
C383 C 0.37972 0.83946 0.29847 0.0
C384 C 0.38254 0.85079 0.3141 0.0
C385 C 0.39451 0.82346 0.32518 0.0
C386 C 0.40523 0.786 0.32061 0.0
H387 H 0.37092 0.66407 0.31505 0.0
H388 H 0.38458 0.70121 0.32862 0.0
H389 H 0.35511 0.71389 0.31204 0.0
H390 H 0.3892 0.79417 0.28177 0.0
H391 H 0.37011 0.85974 0.28965 0.0
H392 H 0.17296 0.83722 0.54101 0.0
H393 H 0.1417 0.77751 0.5318 0.0
H394 H 0.09013 0.7602 0.57682 0.0
H395 H 0.12181 0.81955 0.58631 0.0
H396 H 0.12142 0.68957 0.56131 0.0
H397 H 0.02206 0.7796 0.52448 0.0
H398 H 0.07415 0.78395 0.52232 0.0
H399 H 0.05098 0.80219 0.53948 0.0
C400 C 0.15506 0.82069 0.54901 0.0
C401 C 0.14924 0.83341 0.56435 0.0
C402 C 0.13751 0.78648 0.54371 0.0
C403 C 0.1137 0.76477 0.55363 0.0
C404 C 0.10878 0.77665 0.56906 0.0
H405 H 0.93866 0.65613 0.58497 0.0
H406 H 1.00369 0.67414 0.57618 0.0
C407 C 0.1265 0.81072 0.57441 0.0
C408 C 0.09002 0.73214 0.54782 0.0
H409 H 0.99967 0.71854 0.53246 0.0
C410 C 0.09541 0.69525 0.55451 0.0
C411 C 0.05683 0.73942 0.53854 0.0
C412 C 0.05036 0.77837 0.53075 0.0
C413 C 0.06565 0.66726 0.55396 0.0
C414 C 0.02988 0.6772 0.54691 0.0
C415 C 0.02706 0.71145 0.53811 0.0
C416 C 0.99307 0.65949 0.55212 0.0
C417 C 0.0712 0.62889 0.56221 0.0
C418 C 0.96533 0.64625 0.54143 0.0
C419 C 0.92779 0.63671 0.5464 0.0
C420 C 0.91749 0.64059 0.56211 0.0
C421 C 0.94562 0.65314 0.5728 0.0
C422 C 0.98303 0.66266 0.56783 0.0
H423 H 0.10198 0.61899 0.56126 0.0
H424 H 0.06458 0.63273 0.57469 0.0
H425 H 0.05164 0.6059 0.55744 0.0
H426 H 0.97246 0.64429 0.52924 0.0
H427 H 0.90691 0.62641 0.5379 0.0
H428 H 0.06814 0.13663 0.83674 0.0
H429 H 1.01014 0.17113 0.82797 0.0
H430 H 0.03982 0.14597 0.78046 0.0
H431 H 0.09847 0.11207 0.78907 0.0
H432 H 0.02968 0.22179 0.78541 0.0
H433 H 0.90425 0.14401 0.81041 0.0
H434 H 0.94106 0.14952 0.82499 0.0
H435 H 0.95134 0.121 0.8079 0.0
C436 C 0.0622 0.13813 0.82444 0.0
C437 C 0.08809 0.12214 0.81361 0.0
C438 C 0.02863 0.15716 0.81945 0.0
C439 C 0.02024 0.16011 0.80358 0.0
C440 C 0.04553 0.14333 0.79275 0.0
H441 H 0.87796 0.36983 0.79011 0.0
H442 H 0.90173 0.30654 0.78112 0.0
C443 C 0.07919 0.12438 0.79772 0.0
C444 C 0.98916 0.18673 0.79853 0.0
H445 H 0.89963 0.21676 0.81055 0.0
C446 C 1.00054 0.22016 0.7903 0.0
C447 C 0.95103 0.18405 0.80463 0.0
C448 C 0.93617 0.1474 0.81231 0.0
C449 C 0.97696 0.2534 0.79014 0.0
C450 C 0.94125 0.25251 0.7983 0.0
C451 C 0.92747 0.21733 0.80456 0.0
C452 C 0.92321 0.2889 0.80358 0.0
C453 C 0.99239 0.29049 0.78291 0.0
C454 C 0.92724 0.29937 0.8192 0.0
C455 C 0.91376 0.33532 0.82441 0.0
C456 C 0.89627 0.36136 0.81402 0.0
C457 C 0.89193 0.35058 0.79836 0.0
C458 C 0.90516 0.31441 0.79319 0.0
H459 H 0.0214 0.28629 0.77741 0.0
H460 H 0.97168 0.30091 0.77395 0.0
H461 H 0.99503 0.3137 0.79184 0.0
H462 H 0.94155 0.27994 0.82731 0.0
H463 H 0.91727 0.34274 0.83652 0.0
H464 H 0.62982 0.89597 0.9805 0.0
H465 H 0.56909 0.86812 0.99042 0.0
H466 H 0.53897 0.82929 0.94442 0.0
H467 H 0.59935 0.85733 0.93429 0.0
H468 H 0.47583 0.86815 0.96407 0.0
H469 H 0.55655 0.74491 0.99173 0.0
H470 H 0.57029 0.79495 0.99536 0.0
H471 H 0.57985 0.77349 0.9768 0.0
C472 C 0.61031 0.88144 0.97247 0.0
C473 C 0.61951 0.87824 0.95662 0.0
C474 C 0.5756 0.86592 0.97818 0.0
C475 C 0.54993 0.84692 0.96811 0.0
C476 C 0.5586 0.84431 0.95228 0.0
H477 H 0.39792 0.70358 0.93352 0.0
H478 H 0.43445 0.75921 0.94361 0.0
C479 C 0.59316 0.85994 0.94654 0.0
C480 C 0.51555 0.8262 0.9739 0.0
H481 H 0.49187 0.73337 0.9841 0.0
C482 C 0.4788 0.83918 0.96902 0.0
C483 C 0.51968 0.78898 0.98071 0.0
C484 C 0.55863 0.7745 0.98651 0.0
C485 C 0.44694 0.81365 0.96884 0.0
C486 C 0.45275 0.77447 0.97335 0.0
C487 C 0.48789 0.76337 0.98039 0.0
C488 C 0.42708 0.74317 0.96772 0.0
C489 C 0.40838 0.82785 0.9626 0.0
C490 C 0.4124 0.71507 0.97792 0.0
C491 C 0.39229 0.68282 0.97216 0.0
C492 C 0.38684 0.67823 0.95611 0.0
C493 C 0.40184 0.7063 0.94592 0.0
C494 C 0.42197 0.73847 0.95169 0.0
H495 H 0.40368 0.859 0.96568 0.0
H496 H 0.4086 0.82576 0.94978 0.0
H497 H 0.38363 0.8102 0.96711 0.0
H498 H 0.41694 0.71784 0.99029 0.0
H499 H 0.38113 0.6615 0.98031 0.0
H500 H 0.56925 0.14608 0.68404 0.0
H501 H 0.512 0.18062 0.69357 0.0
H502 H 0.53413 0.13822 0.73977 0.0
H503 H 0.59206 0.104 0.73044 0.0
H504 H 0.44257 0.1568 0.7116 0.0
H505 H 0.54386 0.25869 0.74249 0.0
H506 H 0.5627 0.2249 0.72834 0.0
H507 H 0.5449 0.20716 0.74657 0.0
C508 C 0.56193 0.14393 0.69621 0.0
C509 C 0.58558 0.12311 0.70654 0.0
C510 C 0.52895 0.16319 0.7016 0.0
C511 C 0.51911 0.16178 0.71734 0.0
C512 C 0.54153 0.13959 0.72759 0.0
H513 H 0.3978 0.37907 0.72928 0.0
H514 H 0.41798 0.31551 0.73876 0.0
C515 C 0.57472 0.12044 0.72223 0.0
C516 C 0.48891 0.1885 0.72294 0.0
H517 H 0.48449 0.28356 0.73394 0.0
C518 C 0.45101 0.18411 0.71704 0.0
C519 C 0.49988 0.22355 0.73041 0.0
C520 C 0.53999 0.22916 0.73736 0.0
C521 C 0.42561 0.21599 0.71647 0.0
C522 C 0.43918 0.25272 0.72161 0.0
C523 C 0.4746 0.25541 0.72968 0.0
C524 C 0.42186 0.28934 0.71604 0.0
C525 C 0.38582 0.21074 0.70927 0.0
C526 C 0.41856 0.29594 0.70004 0.0
C527 C 0.40747 0.33246 0.69449 0.0
C528 C 0.39999 0.36296 0.70488 0.0
C529 C 0.40362 0.35626 0.7209 0.0
C530 C 0.41455 0.31979 0.72641 0.0
H531 H 0.37352 0.18169 0.71231 0.0
H532 H 0.36515 0.2338 0.71306 0.0
H533 H 0.38856 0.21188 0.69648 0.0
H534 H 0.42569 0.27318 0.69181 0.0
H535 H 0.4047 0.3367 0.68211 0.0
H536 H 0.11823 0.32207 0.42972 0.0
H537 H 0.08609 0.26268 0.43894 0.0
H538 H 0.13975 0.27719 0.48377 0.0
H539 H 0.17133 0.33695 0.47484 0.0
H540 H 0.11615 0.19127 0.4534 0.0
H541 H 0.02128 0.28068 0.49229 0.0
H542 H 0.05007 0.30362 0.47736 0.0
H543 H 0.07353 0.28358 0.49415 0.0
C544 C 0.12324 0.31258 0.44151 0.0
C545 C 0.14652 0.33455 0.45163 0.0
C546 C 0.10526 0.27853 0.44672 0.0
C547 C 0.11059 0.26592 0.46204 0.0
C548 C 0.13513 0.28681 0.47197 0.0
H549 H 0.90289 0.13021 0.47968 0.0
H550 H 0.96893 0.14879 0.48751 0.0
C551 C 0.15283 0.32104 0.46684 0.0
C552 C 0.08669 0.23342 0.46777 0.0
H553 H 0.99759 0.22028 0.48424 0.0
C554 C 0.09083 0.19693 0.46061 0.0
C555 C 0.05443 0.24066 0.47754 0.0
C556 C 0.04926 0.27919 0.48581 0.0
C557 C 0.06064 0.16946 0.46121 0.0
C558 C 0.0257 0.17943 0.46892 0.0
C559 C 0.02428 0.21314 0.47811 0.0
C560 C 0.98815 0.16222 0.46427 0.0
C561 C 0.06498 0.1318 0.45233 0.0
C562 C 0.97706 0.16447 0.44865 0.0
C563 C 0.93941 0.15445 0.44415 0.0
C564 C 0.91207 0.14234 0.45522 0.0
C565 C 0.92324 0.13989 0.47088 0.0
C566 C 0.96103 0.14995 0.47537 0.0
H567 H 0.0949 0.11991 0.45385 0.0
H568 H 0.04344 0.10945 0.45605 0.0
H569 H 0.06084 0.13762 0.4398 0.0
H570 H 0.99713 0.17537 0.43997 0.0
H571 H 0.93174 0.15653 0.43201 0.0
H572 H 0.15363 0.65587 0.22809 0.0
H573 H 0.12915 0.71897 0.23702 0.0
H574 H 0.08763 0.74405 0.19092 0.0
H575 H 0.11281 0.68163 0.18178 0.0
H576 H 0.12485 0.80936 0.20732 0.0
H577 H 1.00947 0.73203 0.24136 0.0
H578 H 0.06023 0.72175 0.24485 0.0
H579 H 0.03781 0.70597 0.22713 0.0
C580 C 0.13937 0.67488 0.21984 0.0
C581 C 0.13452 0.66365 0.20426 0.0
C582 C 0.12573 0.71094 0.22496 0.0
C583 C 0.10667 0.73583 0.21461 0.0
C584 C 0.10269 0.72515 0.19901 0.0
H585 H 0.95156 0.87917 0.18098 0.0
H586 H 1.01056 0.84618 0.1897 0.0
C587 C 0.11664 0.68936 0.19384 0.0
C588 C 0.08643 0.77099 0.21997 0.0
H589 H 0.99579 0.79496 0.23271 0.0
C590 C 0.09722 0.80684 0.21339 0.0
C591 C 0.05097 0.76763 0.22821 0.0
C592 C 0.03867 0.72987 0.23582 0.0
C593 C 0.0709 0.83797 0.21302 0.0
C594 C 0.03311 0.83241 0.21916 0.0
C595 C 0.02465 0.79871 0.22775 0.0
C596 C 0.99996 0.85643 0.21412 0.0
C597 C 0.08266 0.8753 0.205 0.0
C598 C 0.9738 0.87162 0.22499 0.0
C599 C 0.93954 0.8895 0.22004 0.0
C600 C 0.93098 0.89241 0.20415 0.0
C601 C 0.95728 0.87718 0.19329 0.0
C602 C 0.99139 0.8591 0.19826 0.0
H603 H 0.1142 0.88143 0.20684 0.0
H604 H 0.07795 0.87209 0.19235 0.0
H605 H 0.06538 0.90059 0.2092 0.0
H606 H 0.97961 0.86908 0.23727 0.0
H607 H 0.91991 0.90113 0.22872 0.0
H608 H 0.35865 0.05801 0.03651 0.0
H609 H 0.40753 0.04576 0.01601 0.0
H610 H 0.48773 1.00208 0.05026 0.0
H611 H 0.43965 0.01405 0.07044 0.0
H612 H 0.48258 0.07843 0.01304 0.0
H613 H 0.4983 0.91817 0.01758 0.0
H614 H 0.45769 0.94401 0.02606 0.0
H615 H 0.50404 0.94237 0.03586 0.0
C616 C 0.38618 0.04462 0.03958 0.0
C617 C 0.39461 0.03638 0.05522 0.0
C618 C 0.41449 0.038 0.02784 0.0
C619 C 0.4517 0.02234 0.03137 0.0
C620 C 0.45939 0.01325 0.04693 0.0
H621 H 0.67247 0.97222 0.98029 0.0
H622 H 0.62325 0.9828 1.00071 0.0
C623 C 0.43156 0.02022 0.05857 0.0
C624 C 0.48353 0.01762 0.01924 0.0
H625 H 0.54866 0.95171 1.00385 0.0
C626 C 0.49666 0.05056 0.01097 0.0
C627 C 0.50289 0.98153 0.01649 0.0
C628 C 0.48982 0.94442 0.02435 0.0
C629 C 0.52844 0.04866 1.00045 0.0
C630 C 0.54774 0.01254 0.99766 0.0
C631 C 0.5346 0.97958 1.00593 0.0
C632 C 0.57965 1.008 0.98554 0.0
C633 C 0.54167 0.08592 0.99273 0.0
C634 C 0.57243 0.0185 0.97009 0.0
C635 C 0.60059 0.01266 0.9585 0.0
C636 C 0.63738 0.99592 0.96172 0.0
C637 C 0.64521 0.98601 0.97726 0.0
C638 C 0.61662 0.99167 0.98897 0.0
H639 H 0.53368 0.11199 0.99971 0.0
H640 H 0.57375 0.08613 0.99087 0.0
H641 H 0.52704 0.0886 0.98132 0.0
H642 H 0.54426 0.03017 0.9668 0.0
H643 H 0.59285 0.02028 0.94672 0.0
H644 H 0.71417 0.70219 0.32074 0.0
H645 H 0.73026 0.74776 0.30023 0.0
H646 H 0.76273 0.65195 0.27062 0.0
H647 H 0.74676 0.60531 0.29155 0.0
H648 H 0.79832 0.76425 0.28498 0.0
H649 H 0.68692 0.71298 0.24291 0.0
H650 H 0.68638 0.69834 0.26298 0.0
H651 H 0.72017 0.67624 0.24973 0.0
C652 C 0.72483 0.6903 0.30992 0.0
C653 C 0.72865 0.64947 0.30795 0.0
C654 C 0.73413 0.71682 0.2981 0.0
C655 C 0.74734 0.70392 0.28361 0.0
C656 C 0.75189 0.6631 0.28152 0.0
H657 H 0.80246 0.82716 0.19785 0.0
H658 H 0.78911 0.78133 0.21855 0.0
C659 C 0.74281 0.63621 0.29356 0.0
C660 C 0.75602 0.73375 0.27104 0.0
H661 H 0.72802 0.76437 0.23486 0.0
C662 C 0.78293 0.76412 0.274 0.0
C663 C 0.73597 0.73436 0.25667 0.0
C664 C 0.70548 0.70401 0.25284 0.0
C665 C 0.79086 0.79407 0.26307 0.0
C666 C 0.77062 0.79487 0.24871 0.0
C667 C 0.74364 0.76445 0.24578 0.0
C668 C 0.77867 0.825 0.23613 0.0
C669 C 0.82188 0.82389 0.26688 0.0
C670 C 0.77721 0.86594 0.23867 0.0
C671 C 0.78522 0.89297 0.22657 0.0
C672 C 0.79455 0.87975 0.21156 0.0
C673 C 0.79538 0.83894 0.20914 0.0
C674 C 0.7876 0.81229 0.22109 0.0
H675 H 0.84173 0.81344 0.27617 0.0
H676 H 0.83968 0.8311 0.25653 0.0
H677 H 0.80769 0.85105 0.27103 0.0
H678 H 0.76958 0.87712 0.24998 0.0
H679 H 0.78422 0.92398 0.22897 0.0
H680 H 0.14353 0.03516 0.55276 0.0
H681 H 0.09316 0.0507 0.53332 0.0
H682 H 0.06056 0.92915 0.53135 0.0
H683 H 0.10932 0.91417 0.55109 0.0
H684 H 0.07383 0.03407 0.50459 0.0
H685 H 0.95618 0.97247 0.5407 0.0
H686 H 1.00536 0.97811 0.5478 0.0
H687 H 0.99203 0.93605 0.53636 0.0
C688 C 0.12645 0.01161 0.5478 0.0
C689 C 0.13138 0.97319 0.55329 0.0
C690 C 0.0971 0.02057 0.53678 0.0
C691 C 0.07156 0.99143 0.53103 0.0
C692 C 0.07839 0.95272 0.53584 0.0
H693 H 0.92969 1.00658 0.44765 0.0
H694 H 0.97818 0.99639 0.46775 0.0
C695 C 0.10719 0.94393 0.54693 0.0
C696 C 0.03771 1.0012 0.52027 0.0
H697 H 0.93956 0.98518 0.51421 0.0
C698 C 0.04451 0.02347 0.50683 0.0
C699 C 0.99863 0.98869 0.52311 0.0
C700 C 0.98749 0.96791 0.53786 0.0
C701 C 0.01443 0.03194 0.49606 0.0
C702 C 0.97601 0.017 0.49834 0.0
C703 C 0.96878 0.99622 0.5121 0.0
C704 C 0.94386 0.02119 0.48629 0.0
C705 C 0.02437 0.05745 0.48238 0.0
C706 C 0.90645 0.03636 0.48984 0.0
C707 C 0.87765 0.04157 0.47816 0.0
C708 C 0.88556 0.03174 0.46261 0.0
C709 C 0.92227 0.01492 0.45938 0.0
C710 C 0.95057 1.00946 0.47094 0.0
H711 H 0.04829 0.07822 0.48525 0.0
H712 H 0.03466 0.03879 0.4727 0.0
H713 H 0.99875 0.07443 0.47837 0.0
H714 H 0.89986 0.04532 0.50157 0.0
H715 H 0.85006 0.05479 0.48121 0.0
H716 H 0.80817 0.42105 0.78761 0.0
H717 H 0.79744 0.37327 0.76646 0.0
H718 H 0.73864 0.29655 0.79839 0.0
H719 H 0.74873 0.34336 0.81908 0.0
H720 H 0.82266 0.29508 0.7636 0.0
H721 H 0.66151 0.2953 0.7634 0.0
H722 H 0.68958 0.33281 0.77301 0.0
H723 H 0.68058 0.2867 0.78241 0.0
C724 C 0.79207 0.39449 0.79 0.0
C725 C 0.779 0.38659 0.80517 0.0
C726 C 0.78624 0.36681 0.7779 0.0
C727 C 0.76658 0.33097 0.78059 0.0
C728 C 0.75301 0.32389 0.79566 0.0
H729 H 0.70206 0.1129 0.73171 0.0
H730 H 0.71751 0.16308 0.75125 0.0
C731 C 0.75899 0.35102 0.80761 0.0
C732 C 0.76114 0.29989 0.76819 0.0
H733 H 0.69206 0.23998 0.75157 0.0
C734 C 0.794 0.28349 0.76084 0.0
C735 C 0.7239 0.28387 0.7645 0.0
C736 C 0.68687 0.30083 0.77113 0.0
C737 C 0.79077 0.25142 0.75046 0.0
C738 C 0.75356 0.23502 0.74699 0.0
C739 C 0.72073 0.25172 0.75422 0.0
C740 C 0.74774 0.20188 0.73547 0.0
C741 C 0.82763 0.23458 0.74366 0.0
C742 C 0.7597 0.20595 0.71997 0.0
C743 C 0.75106 0.17709 0.70884 0.0
C744 C 0.73051 0.14268 0.71273 0.0
C745 C 0.71936 0.13792 0.72832 0.0
C746 C 0.72768 0.16716 0.73949 0.0
H747 H 0.85362 0.24193 0.7508 0.0
H748 H 0.82557 0.20232 0.74256 0.0
H749 H 0.83224 0.24703 0.73194 0.0
H750 H 0.77424 0.23244 0.71625 0.0
H751 H 0.75915 0.18253 0.69691 0.0
H752 H 0.26956 0.42604 0.7294 0.0
H753 H 0.25845 0.37781 0.75038 0.0
H754 H 0.30137 0.2861 0.72082 0.0
H755 H 0.31216 0.33293 0.7003 0.0
H756 H 0.20977 0.30907 0.75009 0.0
H757 H 0.36298 0.26442 0.75996 0.0
H758 H 0.35015 0.3092 0.75019 0.0
H759 H 0.34892 0.26339 0.73996 0.0
C760 C 0.27711 0.39573 0.72749 0.0
C761 C 0.2919 0.38384 0.71301 0.0
C762 C 0.27059 0.36796 0.73949 0.0
C763 C 0.27948 0.32785 0.73742 0.0
C764 C 0.2948 0.31652 0.72306 0.0
H765 H 0.25342 0.10566 0.79118 0.0
H766 H 0.26819 0.15429 0.77073 0.0
C767 C 0.30072 0.34375 0.71117 0.0
C768 C 0.27132 0.29706 0.74967 0.0
H769 H 0.31397 0.22252 0.77036 0.0
C770 C 0.23272 0.29053 0.75462 0.0
C771 C 0.30082 0.27183 0.75552 0.0
C772 C 0.34311 0.27765 0.75126 0.0
C773 C 0.22285 0.25968 0.76488 0.0
C774 C 0.2524 0.23462 0.77084 0.0
C775 C 0.29101 0.24109 0.76585 0.0
C776 C 0.24401 0.20381 0.78308 0.0
C777 C 0.18038 0.25366 0.76887 0.0
C778 C 0.22626 0.21481 0.79704 0.0
C779 C 0.21776 0.18725 0.80857 0.0
C780 C 0.22691 0.14724 0.80684 0.0
C781 C 0.24545 0.13589 0.79298 0.0
C782 C 0.25405 0.1639 0.78127 0.0
H783 H 0.16094 0.26535 0.75968 0.0
H784 H 0.17349 0.22226 0.7706 0.0
H785 H 0.17364 0.26957 0.77974 0.0
H786 H 0.21908 0.24514 0.79916 0.0
H787 H 0.20374 0.19773 0.81901 0.0
H788 H 0.30211 0.92054 0.2859 0.0
H789 H 0.29471 0.87105 0.26518 0.0
H790 H 0.24581 0.79036 0.29816 0.0
H791 H 0.25287 0.83878 0.3185 0.0
H792 H 0.32766 0.79443 0.26322 0.0
H793 H 0.16666 0.78212 0.26329 0.0
H794 H 0.19194 0.82257 0.27225 0.0
H795 H 0.18744 0.77666 0.28223 0.0
C796 C 0.28905 0.89258 0.28864 0.0
C797 C 0.27793 0.88411 0.304 0.0
C798 C 0.28506 0.86402 0.27678 0.0
C799 C 0.26913 0.82662 0.2799 0.0
C800 C 0.25741 0.81882 0.29516 0.0
H801 H 0.22359 0.60519 0.22894 0.0
H802 H 0.23284 0.65486 0.24928 0.0
C803 C 0.26164 0.84688 0.30689 0.0
C804 C 0.26592 0.79487 0.26768 0.0
H805 H 0.20128 0.73066 0.25076 0.0
C806 C 0.29991 0.78085 0.26042 0.0
C807 C 0.22991 0.77625 0.26399 0.0
C808 C 0.19185 0.79036 0.27073 0.0
C809 C 0.29904 0.74882 0.24998 0.0
C810 C 0.26304 0.73015 0.24631 0.0
C811 C 0.22904 0.74425 0.25355 0.0
C812 C 0.25975 0.69789 0.23429 0.0
C813 C 0.33712 0.7346 0.24329 0.0
C814 C 0.27182 0.70464 0.21899 0.0
C815 C 0.26652 0.67626 0.20741 0.0
C816 C 0.24894 0.63973 0.21053 0.0
C817 C 0.23785 0.63227 0.22597 0.0
C818 C 0.24282 0.66111 0.23765 0.0
H819 H 0.36228 0.74286 0.25075 0.0
H820 H 0.337 0.70237 0.24181 0.0
H821 H 0.34163 0.74821 0.23178 0.0
H822 H 0.28418 0.73263 0.2158 0.0
H823 H 0.2752 0.68364 0.19572 0.0
H824 H 0.07701 0.49241 0.44561 0.0
H825 H 0.03119 0.50671 0.46622 0.0
H826 H 0.12089 0.48504 0.50011 0.0
H827 H 0.16785 0.4705 0.47908 0.0
H828 H 1.00454 0.45744 0.48829 0.0
H829 H 0.0724 0.58634 0.51662 0.0
H830 H 0.08743 0.56937 0.49774 0.0
H831 H 0.10335 0.54422 0.51485 0.0
C832 C 0.08758 0.49117 0.45742 0.0
C833 C 0.12659 0.48043 0.46053 0.0
C834 C 0.06094 0.49928 0.46929 0.0
C835 C 0.07195 0.49718 0.48491 0.0
C836 C 0.11135 0.48755 0.48821 0.0
H837 H 0.94168 0.52597 0.5707 0.0
H838 H 0.98876 0.51596 0.55024 0.0
C839 C 0.13841 0.47931 0.47615 0.0
C840 C 0.04116 0.50328 0.49731 0.0
H841 H 0.01509 0.56117 0.52808 0.0
C842 C 1.00698 0.48019 0.49698 0.0
C843 C 0.04366 0.533 0.50872 0.0
C844 C 0.07846 0.55996 0.50951 0.0
C845 C 0.97611 0.48534 0.50772 0.0
C846 C 0.97845 0.51521 0.51909 0.0
C847 C 0.01266 0.53836 0.51941 0.0
C848 C 0.94748 0.52112 0.53145 0.0
C849 C 0.94175 0.45776 0.50703 0.0
C850 C 0.90745 0.5274 0.52809 0.0
C851 C 0.87958 0.53303 0.54007 0.0
C852 C 0.89108 0.53289 0.55573 0.0
C853 C 0.93106 0.52634 0.55889 0.0
C854 C 0.95852 0.52075 0.54708 0.0
H855 H 0.94878 0.43073 0.50047 0.0
H856 H 0.93202 0.44939 0.51883 0.0
H857 H 0.91709 0.47241 0.50108 0.0
H858 H 0.89775 0.52861 0.51618 0.0
H859 H 0.84943 0.53795 0.53704 0.0
H860 H 0.58978 0.52998 0.07066 0.0
H861 H 0.54333 0.53841 0.04966 0.0
H862 H 0.62127 0.4784 0.01863 0.0
H863 H 0.6687 0.46991 0.03994 0.0
H864 H 0.54464 0.57501 0.02191 0.0
H865 H 0.51981 0.41654 0.01249 0.0
H866 H 0.5444 0.43551 0.02938 0.0
H867 H 0.56987 0.4322 0.01125 0.0
C868 C 0.59762 0.5189 0.05933 0.0
C869 C 0.63335 0.49907 0.0572 0.0
C870 C 0.57065 0.52372 0.04724 0.0
C871 C 0.5778 0.50851 0.03242 0.0
C872 C 0.6142 0.48984 0.02996 0.0
H873 H 0.43552 0.50972 0.94768 0.0
H874 H 0.4838 0.49804 0.96798 0.0
C875 C 0.64174 0.48535 0.04217 0.0
C876 C 0.54664 0.51238 0.01996 0.0
H877 H 0.48546 0.45981 0.99616 0.0
C878 C 0.53186 0.5497 0.01629 0.0
C879 C 0.52906 0.47965 0.01259 0.0
C880 C 0.5412 0.43862 0.01665 0.0
C881 C 0.5011 0.55517 1.0055 0.0
C882 C 0.48351 0.52244 0.99813 0.0
C883 C 0.49842 0.48511 1.00172 0.0
C884 C 0.4512 0.52652 0.98616 0.0
C885 C 0.48832 0.59627 1.00181 0.0
C886 C 0.41531 0.54522 0.98943 0.0
C887 C 0.38695 0.55147 0.97771 0.0
C888 C 0.39362 0.53916 0.96237 0.0
C889 C 0.42883 0.51917 0.95935 0.0
C890 C 0.45681 0.51261 0.97101 0.0
H891 H 0.5105 0.61821 1.00541 0.0
H892 H 0.48267 0.59976 0.98923 0.0
H893 H 0.46084 0.6027 1.00811 0.0
H894 H 0.40951 0.55587 1.001 0.0
H895 H 0.36105 0.56793 0.98053 0.0
H896 H 0.28486 0.22816 0.07732 0.0
H897 H 0.28039 0.28245 0.09567 0.0
H898 H 0.26509 0.20085 0.13317 0.0
H899 H 0.26957 0.14609 0.11473 0.0
H900 H 0.21009 0.26539 0.13285 0.0
H901 H 0.3628 0.31768 0.12783 0.0
H902 H 0.33849 0.31096 0.10959 0.0
H903 H 0.34784 0.26942 0.12175 0.0
C904 C 0.28069 0.22168 0.08948 0.0
C905 C 0.27763 0.18275 0.09455 0.0
C906 C 0.27836 0.25282 0.1 0.0
C907 C 0.27284 0.24595 0.11588 0.0
C908 C 0.26955 0.20702 0.121 0.0
H909 H 0.22292 0.41891 0.19001 0.0
H910 H 0.23629 0.3573 0.17651 0.0
C911 C 0.27221 0.17572 0.11046 0.0
C912 C 0.26939 0.27961 0.12691 0.0
H913 H 0.31778 0.36078 0.14004 0.0
C914 C 0.23379 0.28599 0.13459 0.0
C915 C 0.30021 0.30669 0.12919 0.0
C916 C 0.33964 0.30079 0.12178 0.0
C917 C 0.22763 0.3194 0.14388 0.0
C918 C 0.25826 0.34695 0.14593 0.0
C919 C 0.2942 0.33993 0.13855 0.0
C920 C 0.25293 0.38434 0.15483 0.0
C921 C 0.18768 0.32575 0.15078 0.0
C922 C 0.25966 0.42042 0.14755 0.0
C923 C 0.25261 0.45572 0.15531 0.0
C924 C 0.23868 0.45613 0.17067 0.0
C925 C 0.23354 0.41997 0.17821 0.0
C926 C 0.24074 0.38456 0.17041 0.0
H927 H 0.16507 0.30758 0.14499 0.0
H928 H 0.18827 0.31753 0.1632 0.0
H929 H 0.17891 0.35688 0.14993 0.0
H930 H 0.2693 0.42136 0.13561 0.0
H931 H 0.25703 0.48274 0.14904 0.0
H932 H 0.54457 0.52517 0.32616 0.0
H933 H 0.48799 0.52209 0.34334 0.0
H934 H 0.56444 0.51968 0.38299 0.0
H935 H 0.62153 0.52213 0.36569 0.0
H936 H 0.50501 0.46424 0.38476 0.0
H937 H 0.44176 0.60807 0.36995 0.0
H938 H 0.45055 0.57823 0.35324 0.0
H939 H 0.49106 0.59473 0.36481 0.0
C940 C 0.54942 0.52406 0.33854 0.0
C941 C 0.5876 0.52401 0.34455 0.0
C942 C 0.51694 0.52265 0.34839 0.0
C943 C 0.52167 0.52137 0.36454 0.0
C944 C 0.55987 0.52098 0.3706 0.0
H945 H 0.34616 0.48707 0.43844 0.0
H946 H 0.40697 0.50151 0.42467 0.0
C947 C 0.59251 0.52247 0.36071 0.0
C948 C 0.48667 0.51892 0.37492 0.0
H949 H 0.39982 0.56358 0.3834 0.0
C950 C 0.48227 0.48623 0.38461 0.0
C951 C 0.45676 0.5475 0.37476 0.0
C952 C 0.46036 0.5843 0.36525 0.0
C953 C 0.44832 0.48057 0.3936 0.0
C954 C 0.41803 0.50877 0.3932 0.0
C955 C 0.42283 0.54187 0.38375 0.0
C956 C 0.38052 0.50355 0.40193 0.0
C957 C 0.44453 0.44353 0.40295 0.0
C958 C 0.3448 0.50181 0.39394 0.0
C959 C 0.3098 0.49397 0.40181 0.0
C960 C 0.30945 0.48783 0.41795 0.0
C961 C 0.34504 0.49152 0.42604 0.0
C962 C 0.38007 0.49937 0.41813 0.0
H963 H 0.46555 0.42083 0.3991 0.0
H964 H 0.4506 0.45009 0.41529 0.0
H965 H 0.41452 0.43137 0.4021 0.0
H966 H 0.34413 0.5052 0.38148 0.0
H967 H 0.28318 0.49143 0.39512 0.0
H968 H 0.20478 0.85354 0.60895 0.0
H969 H 0.21023 0.79756 0.62628 0.0
H970 H 0.32448 0.77266 0.60775 0.0
H971 H 0.31798 0.82777 0.58986 0.0
H972 H 0.28712 0.70844 0.60969 0.0
H973 H 0.26519 0.78215 0.6659 0.0
H974 H 0.22458 0.79 0.65322 0.0
H975 H 0.27201 0.80906 0.64818 0.0
C976 C 0.23128 0.83663 0.60874 0.0
C977 C 0.26104 0.84549 0.59811 0.0
C978 C 0.23454 0.80451 0.61877 0.0
C979 C 0.26817 0.78092 0.6187 0.0
C980 C 0.29821 0.79021 0.60818 0.0
H981 H 0.3273 0.60573 0.68873 0.0
H982 H 0.31736 0.66585 0.67395 0.0
C983 C 0.29458 0.8219 0.59797 0.0
C984 C 0.27123 0.74538 0.62886 0.0
H985 H 0.26081 0.71243 0.66609 0.0
C986 C 0.28158 0.70953 0.62205 0.0
C987 C 0.26459 0.74638 0.64508 0.0
C988 C 0.2564 0.78405 0.65354 0.0
C989 C 0.28518 0.67502 0.63082 0.0
C990 C 0.27663 0.67559 0.64689 0.0
C991 C 0.26672 0.71151 0.65377 0.0
C992 C 0.2793 0.63962 0.65681 0.0
C993 C 0.29946 0.63863 0.62274 0.0
C994 C 0.25992 0.60486 0.65266 0.0
C995 C 0.26603 0.57021 0.66099 0.0
C996 C 0.29078 0.56961 0.67401 0.0
C997 C 0.30783 0.60504 0.67885 0.0
C998 C 0.30229 0.63954 0.67032 0.0
H999 H 0.31618 0.64584 0.61209 0.0
H1000 H 0.31844 0.62092 0.63042 0.0
H1001 H 0.27401 0.62059 0.61922 0.0
H1002 H 0.24079 0.60419 0.64268 0.0
H1003 H 0.25218 0.5436 0.65697 0.0
H1004 H 0.96433 0.54355 0.83386 0.0
H1005 H 0.02038 0.5469 0.85131 0.0
H1006 H 0.97052 0.45527 0.87927 0.0
H1007 H 0.91414 0.4517 0.86161 0.0
H1008 H 0.02419 0.56288 0.88307 0.0
H1009 H 0.08185 0.41484 0.86997 0.0
H1010 H 0.04569 0.43841 0.85798 0.0
H1011 H 0.03175 0.41704 0.87613 0.0
C1012 C 0.9651 0.52417 0.84376 0.0
C1013 C 0.93457 0.49737 0.84635 0.0
C1014 C 0.99728 0.52613 0.85375 0.0
C1015 C 1.00019 0.50106 0.86656 0.0
C1016 C 0.96941 0.47459 0.86936 0.0
H1017 H 0.1758 0.53891 0.93966 0.0
H1018 H 0.11505 0.52482 0.92582 0.0
C1019 C 0.93691 0.47279 0.85935 0.0
C1020 C 0.03552 0.50315 0.8768 0.0
H1021 H 0.11674 0.45239 0.8883 0.0
C1022 C 0.04421 0.53857 0.88431 0.0
C1023 C 0.06212 0.47168 0.8783 0.0
C1024 C 0.05526 0.43337 0.8701 0.0
C1025 C 0.0785 0.54343 0.89315 0.0
C1026 C 0.10502 0.51193 0.89472 0.0
C1027 C 0.09638 0.47646 0.88724 0.0
C1028 C 0.14251 0.51609 0.90356 0.0
C1029 C 0.0867 0.58275 0.90037 0.0
C1030 C 0.17864 0.51426 0.89587 0.0
C1031 C 0.21366 0.52223 0.90378 0.0
C1032 C 0.2135 0.53194 0.91965 0.0
C1033 C 0.17736 0.53161 0.92748 0.0
C1034 C 0.14239 0.52382 0.91954 0.0
H1035 H 0.06785 0.60603 0.89546 0.0
H1036 H 0.08107 0.58113 0.913 0.0
H1037 H 0.11774 0.59119 0.89869 0.0
H1038 H 0.17965 0.50819 0.88357 0.0
H1039 H 0.24071 0.5222 0.8973 0.0
H1040 H 0.77794 0.54007 0.86934 0.0
H1041 H 0.7651 0.6007 0.88317 0.0
H1042 H 0.79449 0.66681 0.84236 0.0
H1043 H 0.80736 0.60581 0.82827 0.0
H1044 H 0.81903 0.65947 0.88904 0.0
H1045 H 0.69268 0.71926 0.85645 0.0
H1046 H 0.70768 0.66888 0.85481 0.0
H1047 H 0.73463 0.70653 0.84503 0.0
C1048 C 0.78124 0.56735 0.86313 0.0
C1049 C 0.79374 0.56768 0.84757 0.0
C1050 C 0.77391 0.60219 0.87114 0.0
C1051 C 0.77851 0.6386 0.86387 0.0
C1052 C 0.79003 0.63921 0.84822 0.0
H1053 H 0.75495 0.87596 0.90381 0.0
H1054 H 0.76495 0.82086 0.88592 0.0
C1055 C 0.79748 0.60418 0.84015 0.0
C1056 C 0.77347 0.67545 0.87311 0.0
H1057 H 0.71838 0.75855 0.87656 0.0
C1058 C 0.797 0.68109 0.88626 0.0
C1059 C 0.74505 0.7041 0.8695 0.0
C1060 C 0.71829 0.69946 0.85575 0.0
C1061 C 0.79284 0.71408 0.89589 0.0
C1062 C 0.76358 0.74216 0.89259 0.0
C1063 C 0.74066 0.7371 0.87921 0.0
C1064 C 0.75572 0.77603 0.90321 0.0
C1065 C 0.82034 0.71874 0.90942 0.0
C1066 C 0.74616 0.76954 0.91883 0.0
C1067 C 0.7405 0.80092 0.92904 0.0
C1068 C 0.74384 0.83976 0.9239 0.0
C1069 C 0.75219 0.84641 0.90816 0.0
C1070 C 0.75793 0.81488 0.89792 0.0
H1071 H 0.8479 0.7023 0.90759 0.0
H1072 H 0.82767 0.74993 0.91146 0.0
H1073 H 0.80622 0.707 0.92 0.0
H1074 H 0.7432 0.74003 0.9232 0.0
H1075 H 0.73372 0.79469 0.94103 0.0
H1076 H 0.48647 0.47521 0.68867 0.0
H1077 H 0.53877 0.48348 0.66961 0.0
H1078 H 0.45351 0.51167 0.63466 0.0
H1079 H 0.40095 0.50373 0.6538 0.0
H1080 H 0.55163 0.4447 0.64111 0.0
H1081 H 0.53062 0.60409 0.63214 0.0
H1082 H 0.50943 0.57836 0.64833 0.0
H1083 H 0.48813 0.57394 0.62942 0.0
C1084 C 0.4788 0.48317 0.67693 0.0
C1085 C 0.43949 0.48891 0.67279 0.0
C1086 C 0.50879 0.48784 0.66601 0.0
C1087 C 0.50036 0.49875 0.65068 0.0
C1088 C 0.461 0.50392 0.64644 0.0
H1089 H 0.66841 0.56161 0.57662 0.0
H1090 H 0.60754 0.54533 0.59029 0.0
C1091 C 0.43089 0.49908 0.65738 0.0
C1092 C 0.53298 0.5045 0.6393 0.0
H1093 H 0.58029 0.57379 0.61764 0.0
C1094 C 0.55773 0.47292 0.63593 0.0
C1095 C 0.54099 0.54118 0.63237 0.0
C1096 C 0.51617 0.5765 0.63578 0.0
C1097 C 0.59023 0.47702 0.62603 0.0
C1098 C 0.59915 0.51405 0.61955 0.0
C1099 C 0.57372 0.54539 0.62256 0.0
C1100 C 0.63601 0.52147 0.61055 0.0
C1101 C 0.61452 0.44137 0.62255 0.0
C1102 C 0.67253 0.51348 0.61724 0.0
C1103 C 0.70725 0.52249 0.60943 0.0
C1104 C 0.70674 0.54019 0.59469 0.0
C1105 C 0.67014 0.54763 0.58784 0.0
C1106 C 0.63522 0.53855 0.59572 0.0
H1107 H 0.597 0.41416 0.62367 0.0
H1108 H 0.627 0.44259 0.61069 0.0
H1109 H 0.6389 0.43963 0.63098 0.0
H1110 H 0.67431 0.5013 0.62878 0.0
H1111 H 0.73464 0.5165 0.61523 0.0
H1112 H 0.77251 0.15605 0.40455 0.0
H1113 H 0.76897 0.21177 0.38657 0.0
H1114 H 0.79495 0.29051 0.42417 0.0
H1115 H 0.79957 0.23528 0.44191 0.0
H1116 H 0.72069 0.27491 0.38625 0.0
H1117 H 0.87215 0.32842 0.39259 0.0
H1118 H 0.85694 0.28111 0.39957 0.0
H1119 H 0.84808 0.32432 0.41094 0.0
C1120 C 0.77803 0.18521 0.4089 0.0
C1121 C 0.78676 0.19109 0.42466 0.0
C1122 C 0.77582 0.21714 0.39863 0.0
C1123 C 0.78248 0.25561 0.40386 0.0
C1124 C 0.79079 0.2613 0.41964 0.0
H1125 H 0.75454 0.49372 0.3719 0.0
H1126 H 0.7693 0.43312 0.38572 0.0
C1127 C 0.7931 0.22956 0.42985 0.0
C1128 C 0.77916 0.29007 0.39315 0.0
H1129 H 0.82639 0.37347 0.38151 0.0
C1130 C 0.74404 0.29613 0.38506 0.0
C1131 C 0.80951 0.31807 0.3915 0.0
C1132 C 0.84892 0.31249 0.39898 0.0
C1133 C 0.73792 0.32985 0.37596 0.0
C1134 C 0.76788 0.35834 0.37468 0.0
C1135 C 0.80328 0.35191 0.3825 0.0
C1136 C 0.76241 0.39558 0.36576 0.0
C1137 C 0.69877 0.33543 0.36827 0.0
C1138 C 0.75507 0.3952 0.34974 0.0
C1139 C 0.74691 0.43 0.34173 0.0
C1140 C 0.74583 0.4662 0.34952 0.0
C1141 C 0.7551 0.46663 0.36543 0.0
C1142 C 0.76344 0.43184 0.3734 0.0
H1143 H 0.67622 0.31545 0.37307 0.0
H1144 H 0.68855 0.366 0.36963 0.0
H1145 H 0.70159 0.3293 0.3557 0.0
H1146 H 0.75485 0.36781 0.34346 0.0
H1147 H 0.73988 0.42824 0.32952 0.0
H1148 H 0.78539 0.50487 0.1215 0.0
H1149 H 0.84637 0.51997 0.13484 0.0
H1150 H 0.91107 0.49402 0.09333 0.0
H1151 H 0.84998 0.47831 0.07986 0.0
H1152 H 0.94262 0.45818 0.11906 0.0
H1153 H 0.91761 0.61439 0.13203 0.0
H1154 H 0.87839 0.58371 0.13854 0.0
H1155 H 0.88845 0.58776 0.11816 0.0
C1156 C 0.81243 0.50287 0.11506 0.0
C1157 C 0.81239 0.4905 0.09949 0.0
C1158 C 0.84747 0.51174 0.12274 0.0
C1159 C 0.88358 0.50873 0.1151 0.0
C1160 C 0.8837 0.49684 0.09951 0.0
H1161 H 0.12472 0.52734 0.15258 0.0
H1162 H 0.06909 0.52052 0.13475 0.0
C1163 C 0.84859 0.48805 0.09177 0.0
C1164 C 0.92105 0.51602 0.12366 0.0
H1165 H 0.96886 0.58322 0.14617 0.0
C1166 C 0.94857 0.4857 0.12482 0.0
C1167 C 0.92908 0.5519 0.13123 0.0
C1168 C 0.90202 0.58644 0.12982 0.0
C1169 C 0.98281 0.48968 0.13381 0.0
C1170 C 0.99034 0.52526 0.14169 0.0
C1171 C 0.96326 0.55588 0.14022 0.0
C1172 C 0.02486 0.53064 0.15221 0.0
C1173 C 1.00979 0.4551 0.1353 0.0
C1174 C 0.01897 0.53987 0.16789 0.0
C1175 C 0.05069 0.54411 0.17802 0.0
C1176 C 0.08928 0.53946 0.17277 0.0
C1177 C 0.09538 0.53103 0.15701 0.0
C1178 C 0.06351 0.52678 0.14683 0.0
H1179 H 0.99545 0.42747 0.13162 0.0
H1180 H 0.03573 0.45975 0.12783 0.0
H1181 H 0.02003 0.45171 0.14743 0.0
H1182 H 0.98963 0.54321 0.17238 0.0
H1183 H 0.0449 0.55077 0.19006 0.0
H1184 H 0.78043 0.65719 0.61357 0.0
H1185 H 0.77283 0.7135 0.63109 0.0
H1186 H 0.79655 0.79178 0.59317 0.0
H1187 H 0.80393 0.73604 0.57574 0.0
H1188 H 0.82428 0.77646 0.639 0.0
H1189 H 0.69174 0.83165 0.6095 0.0
H1190 H 0.71042 0.78304 0.60631 0.0
H1191 H 0.73228 0.8242 0.59668 0.0
C1192 C 0.78413 0.68643 0.60901 0.0
C1193 C 0.79246 0.69209 0.59321 0.0
C1194 C 0.7798 0.71863 0.61904 0.0
C1195 C 0.78338 0.75712 0.61344 0.0
C1196 C 0.79277 0.76258 0.59776 0.0
H1197 H 0.75319 0.99416 0.64772 0.0
H1198 H 0.76943 0.93537 0.63304 0.0
C1199 C 0.79716 0.73056 0.58779 0.0
C1200 C 0.77697 0.79174 0.62379 0.0
H1201 H 0.72153 0.87428 0.6277 0.0
C1202 C 0.80163 0.79771 0.6366 0.0
C1203 C 0.74745 0.81965 0.62073 0.0
C1204 C 0.71869 0.81424 0.60765 0.0
C1205 C 0.79838 0.83126 0.64607 0.0
C1206 C 0.76915 0.85945 0.64286 0.0
C1207 C 0.74419 0.85308 0.63017 0.0
C1208 C 0.7636 0.89574 0.65241 0.0
C1209 C 0.82713 0.83674 0.65912 0.0
C1210 C 0.75554 0.89363 0.66836 0.0
C1211 C 0.74651 0.92746 0.67688 0.0
C1212 C 0.74487 0.96435 0.66965 0.0
C1213 C 0.75428 0.9665 0.65379 0.0
C1214 C 0.76341 0.93271 0.64531 0.0
H1215 H 0.85398 0.81916 0.65732 0.0
H1216 H 0.83555 0.86791 0.66039 0.0
H1217 H 0.81348 0.827 0.67011 0.0
H1218 H 0.7546 0.86559 0.67414 0.0
H1219 H 0.739 0.92434 0.68899 0.0
H1220 H 0.79146 1.00965 0.89963 0.0
H1221 H 0.85158 0.01975 0.88501 0.0
H1222 H 0.91937 0.98341 0.92444 0.0
H1223 H 0.85909 0.97317 0.9393 0.0
H1224 H 0.95174 0.04995 0.90715 0.0
H1225 H 0.91482 0.92443 0.86918 0.0
H1226 H 0.87713 0.96064 0.87072 0.0
H1227 H 0.89084 0.93279 0.88749 0.0
C1228 C 0.81906 1.00432 0.90537 0.0
C1229 C 0.8201 0.99028 0.9207 0.0
C1230 C 0.85354 1.00993 0.8969 0.0
C1231 C 0.89011 1.00162 0.90347 0.0
C1232 C 0.89154 0.9898 0.91905 0.0
H1233 H 0.12823 1.00867 0.86352 0.0
H1234 H 0.07294 1.00501 0.88157 0.0
C1235 C 0.85694 0.98408 0.92757 0.0
C1236 C 0.92634 1.00339 0.89378 0.0
H1237 H 0.96875 0.96328 0.86163 0.0
C1238 C 0.95563 0.03086 0.89725 0.0
C1239 C 0.9316 0.97843 0.88086 0.0
C1240 C 0.90216 0.94714 0.87687 0.0
C1241 C 0.98921 0.03497 0.88787 0.0
C1242 C 0.99417 1.01031 0.8748 0.0
C1243 C 0.96512 0.98239 0.87154 0.0
C1244 C 0.02848 0.01344 0.86404 0.0
C1245 C 0.0183 0.06665 0.89175 0.0
C1246 C 0.02236 0.0184 0.84805 0.0
C1247 C 0.05392 0.01997 0.83773 0.0
C1248 C 0.09253 0.0167 0.84309 0.0
C1249 C 0.09884 0.01171 0.85906 0.0
C1250 C 0.06717 1.00988 0.86941 0.0
H1251 H 1.00522 0.08956 0.89923 0.0
H1252 H 0.04321 0.05365 0.89814 0.0
H1253 H 0.02981 0.0807 0.8811 0.0
H1254 H 0.99299 0.02115 0.84352 0.0
H1255 H 0.04804 0.02402 0.82551 0.0
H1256 H 0.81426 0.10702 0.18761 0.0
H1257 H 0.79922 0.16647 0.17332 0.0
H1258 H 0.73589 0.09877 0.13945 0.0
H1259 H 0.75278 0.03877 0.15333 0.0
H1260 H 0.77843 0.14624 0.12485 0.0
H1261 H 0.70824 0.23535 0.17008 0.0
H1262 H 0.75592 0.22066 0.17623 0.0
H1263 H 0.71867 0.18425 0.1729 0.0
C1264 C 0.79638 0.10472 0.17731 0.0
C1265 C 0.78453 0.06785 0.17174 0.0
C1266 C 0.78754 0.13905 0.16912 0.0
C1267 C 0.76564 0.13778 0.15534 0.0
C1268 C 0.75274 0.10099 0.15003 0.0
H1269 H 0.68723 0.35236 0.10733 0.0
H1270 H 0.69115 0.29448 0.12409 0.0
C1271 C 0.76223 0.06654 0.15805 0.0
C1272 C 0.75898 0.1741 0.14584 0.0
H1273 H 0.73232 0.27052 0.14789 0.0
C1274 C 0.76792 0.1732 0.12994 0.0
C1275 C 0.7446 0.20958 0.15219 0.0
C1276 C 0.7309 0.21241 0.16874 0.0
C1277 C 0.76395 0.20643 0.12044 0.0
C1278 C 0.75224 0.24258 0.12701 0.0
C1279 C 0.7421 0.24329 0.1428 0.0
C1280 C 0.75049 0.2797 0.1177 0.0
C1281 C 0.7716 0.20193 0.10332 0.0
C1282 C 0.78279 0.29197 0.10888 0.0
C1283 C 0.78037 0.3248 0.09923 0.0
C1284 C 0.74607 0.34718 0.0985 0.0
C1285 C 0.71435 0.33631 0.10789 0.0
C1286 C 0.71652 0.30291 0.11739 0.0
H1287 H 0.76668 0.17134 0.09946 0.0
H1288 H 0.75257 0.2214 0.09636 0.0
H1289 H 0.80254 0.20931 0.10087 0.0
H1290 H 0.80988 0.27575 0.10924 0.0
H1291 H 0.80537 0.33249 0.09216 0.0
H1292 H 0.66267 0.06475 0.44148 0.0
H1293 H 0.60183 0.04715 0.42805 0.0
H1294 H 0.66859 0.99632 0.3909 0.0
H1295 H 0.72894 0.0129 0.40424 0.0
H1296 H 0.57523 0.07138 0.3999 0.0
H1297 H 0.59027 0.91087 0.39819 0.0
H1298 H 0.62034 0.94117 0.41048 0.0
H1299 H 0.63252 0.9347 0.39035 0.0
C1300 C 0.66441 0.04908 0.43061 0.0
C1301 C 0.70102 0.04008 0.42408 0.0
C1302 C 0.6295 0.03922 0.42287 0.0
C1303 C 0.63029 0.01979 0.40849 0.0
C1304 C 0.66681 1.01035 0.40211 0.0
H1305 H 0.48269 0.96203 0.33128 0.0
H1306 H 0.53407 0.97252 0.35052 0.0
C1307 C 0.70154 0.02014 0.40979 0.0
C1308 C 0.59344 0.01125 0.39964 0.0
H1309 H 0.54529 0.93882 0.37993 0.0
C1310 C 0.56837 0.04226 0.39575 0.0
C1311 C 0.58413 0.97326 0.39417 0.0
C1312 C 0.60803 0.93806 0.39865 0.0
C1313 C 0.53567 0.03671 0.38601 0.0
C1314 C 0.52729 0.99899 0.38008 0.0
C1315 C 0.55164 0.96779 0.38436 0.0
C1316 C 0.49503 0.9917 0.36866 0.0
C1317 C 0.51132 0.07164 0.38158 0.0
C1318 C 0.45554 0.99823 0.37242 0.0
C1319 C 0.42589 0.99207 0.36137 0.0
C1320 C 0.43513 0.97929 0.34632 0.0
C1321 C 0.47452 0.97204 0.34272 0.0
C1322 C 0.504 0.978 0.35375 0.0
H1323 H 0.52597 0.09963 0.38458 0.0
H1324 H 0.50496 0.07146 0.36898 0.0
H1325 H 0.48308 0.07042 0.38786 0.0
H1326 H 0.44762 1.0081 0.3839 0.0
H1327 H 0.39584 0.99781 0.36453 0.0
H1328 H 0.31658 0.32322 0.43085 0.0
H1329 H 0.32581 0.26867 0.41283 0.0
H1330 H 0.2189 0.29962 0.38949 0.0
H1331 H 0.21071 0.35477 0.40712 0.0
H1332 H 0.28577 0.206 0.40834 0.0
H1333 H 0.28552 0.28464 0.35252 0.0
H1334 H 0.28834 0.30986 0.37081 0.0
H1335 H 0.24184 0.29392 0.36331 0.0
C1336 C 0.29539 0.31874 0.4217 0.0
C1337 C 0.26311 0.34381 0.42029 0.0
C1338 C 0.30061 0.28739 0.4114 0.0
C1339 C 0.27351 0.28004 0.39947 0.0
C1340 C 0.24109 0.30505 0.39815 0.0
H1341 H 0.25093 0.04824 0.35743 0.0
H1342 H 0.2415 0.10882 0.3719 0.0
C1343 C 0.23623 0.3367 0.40833 0.0
C1344 C 0.27808 0.24506 0.38906 0.0
H1345 H 0.27771 0.21522 0.35116 0.0
C1346 C 0.28423 0.20823 0.39584 0.0
C1347 C 0.27671 0.24752 0.37266 0.0
C1348 C 0.27317 0.28617 0.36439 0.0
C1349 C 0.28842 0.17412 0.38684 0.0
C1350 C 0.28504 0.17626 0.37049 0.0
C1351 C 0.27965 0.21317 0.36366 0.0
C1352 C 0.28775 0.14064 0.36035 0.0
C1353 C 0.2975 0.13628 0.39504 0.0
C1354 C 0.31503 0.13872 0.34817 0.0
C1355 C 0.31982 0.10417 0.33955 0.0
C1356 C 0.29756 0.0706 0.34293 0.0
C1357 C 0.26888 0.0733 0.35456 0.0
C1358 C 0.26374 0.10793 0.363 0.0
H1359 H 0.31122 0.14157 0.40652 0.0
H1360 H 0.26996 0.11992 0.39703 0.0
H1361 H 0.31743 0.11771 0.38808 0.0
H1362 H 0.33374 0.1635 0.34571 0.0
H1363 H 0.34234 0.1032 0.33076 0.0
H1364 H 0.90271 1.00596 0.15331 0.0
H1365 H 0.95859 1.00695 0.13535 0.0
H1366 H 0.03754 0.99478 0.17393 0.0
H1367 H 0.98219 0.9931 0.19173 0.0
H1368 H 0.02106 0.05884 0.13393 0.0
H1369 H 0.07693 0.91 0.14518 0.0
H1370 H 0.02891 0.92544 0.15121 0.0
H1371 H 0.07117 0.93814 0.16255 0.0
C1372 C 0.93199 1.00311 0.15791 0.0
C1373 C 0.93796 0.99927 0.17395 0.0
C1374 C 0.96395 1.00379 0.14765 0.0
C1375 C 1.00249 1.00025 0.1532 0.0
C1376 C 1.00827 0.99662 0.16924 0.0
H1377 H 0.24028 0.02061 0.12001 0.0
H1378 H 0.17988 1.00789 0.13424 0.0
C1379 C 0.97649 0.99604 0.17945 0.0
C1380 C 0.03686 1.00202 0.14246 0.0
H1381 H 0.12045 0.95373 0.13212 0.0
C1382 C 0.04251 0.03562 0.13338 0.0
C1383 C 0.06514 0.97186 0.14174 0.0
C1384 C 0.06012 0.93416 0.15057 0.0
C1385 C 0.07613 0.04054 0.12413 0.0
C1386 C 0.10477 1.01066 0.12361 0.0
C1387 C 0.09873 0.97672 0.13247 0.0
C1388 C 0.14181 0.01481 0.11445 0.0
C1389 C 0.0814 0.07853 0.11552 0.0
C1390 C 0.14106 0.02142 0.09838 0.0
C1391 C 0.17573 0.02869 0.09015 0.0
C1392 C 0.21217 0.02926 0.09775 0.0
C1393 C 0.21297 0.02043 0.11368 0.0
C1394 C 0.17829 0.01324 0.1219 0.0
H1395 H 0.06224 0.1019 0.12017 0.0
H1396 H 0.11217 0.0887 0.11613 0.0
H1397 H 0.07372 0.07409 0.10316 0.0
H1398 H 0.11353 0.02179 0.09222 0.0
H1399 H 0.17372 0.03521 0.07791 0.0
H1400 H 0.24165 0.92333 0.82788 0.0
H1401 H 0.25411 0.86349 0.84268 0.0
H1402 H 0.27541 0.93224 0.88361 0.0
H1403 H 0.26271 0.99198 0.86903 0.0
H1404 H 0.31618 0.83382 0.86127 0.0
H1405 H 0.18428 0.86198 0.89669 0.0
H1406 H 0.19454 0.88843 0.87909 0.0
H1407 H 0.2188 0.90151 0.89682 0.0
C1408 C 0.24987 0.9259 0.83994 0.0
C1409 C 0.25085 0.96281 0.84721 0.0
C1410 C 0.25681 0.89148 0.84844 0.0
C1411 C 0.26476 0.89307 0.86441 0.0
C1412 C 0.2684 0.92998 0.87141 0.0
H1413 H 0.28529 0.73217 0.94154 0.0
H1414 H 0.28288 0.78775 0.92382 0.0
C1415 C 0.26144 0.9643 0.86297 0.0
C1416 C 0.26713 0.85646 0.87395 0.0
H1417 H 0.22508 0.81019 0.9049 0.0
C1418 C 0.29614 0.82854 0.87076 0.0
C1419 C 0.24085 0.84917 0.8863 0.0
C1420 C 0.20761 0.87662 0.88988 0.0
C1421 C 0.30045 0.79451 0.8799 0.0
C1422 C 0.27457 0.78765 0.89244 0.0
C1423 C 0.24516 0.81528 0.8954 0.0
C1424 C 0.27792 0.75288 0.90301 0.0
C1425 C 0.33353 0.76692 0.87634 0.0
C1426 C 0.27593 0.71425 0.89737 0.0
C1427 C 0.27742 0.68218 0.90758 0.0
C1428 C 0.28058 0.68801 0.92366 0.0
C1429 C 0.28268 0.72657 0.92924 0.0
C1430 C 0.28133 0.75848 0.91908 0.0
H1431 H 0.35653 0.78118 0.86923 0.0
H1432 H 0.34706 0.75571 0.88713 0.0
H1433 H 0.32205 0.74162 0.86969 0.0
H1434 H 0.27239 0.70884 0.88511 0.0
H1435 H 0.27544 0.65288 0.90291 0.0
H1436 H 0.54237 0.019 0.69377 0.0
H1437 H 0.48567 0.01556 0.6766 0.0
H1438 H 0.56189 0.01775 0.6369 0.0
H1439 H 0.61899 0.02019 0.65416 0.0
H1440 H 0.45858 0.06552 0.65459 0.0
H1441 H 0.49456 0.92348 0.62715 0.0
H1442 H 0.51957 0.94112 0.64416 0.0
H1443 H 0.53203 0.95995 0.62537 0.0
C1444 C 0.54715 0.0185 0.68138 0.0
C1445 C 0.5853 0.0197 0.67535 0.0
C1446 C 0.51458 0.0167 0.67154 0.0
C1447 C 0.51916 0.01578 0.65538 0.0
C1448 C 0.55733 0.01755 0.6493 0.0
H1449 H 0.34539 0.98919 0.58095 0.0
H1450 H 0.40499 1.00271 0.59566 0.0
C1451 C 0.59004 0.01933 0.65918 0.0
C1452 C 0.48384 0.01322 0.64508 0.0
H1453 H 0.43916 0.95653 0.61755 0.0
C1454 C 0.45443 0.04167 0.64648 0.0
C1455 C 0.47811 0.98221 0.63442 0.0
C1456 C 0.50752 0.94973 0.63273 0.0
C1457 C 0.41986 0.04006 0.63759 0.0
C1458 C 0.41386 1.00873 0.62711 0.0
C1459 C 0.44353 0.98063 0.62552 0.0
C1460 C 0.3767 1.0038 0.61803 0.0
C1461 C 0.39032 0.07238 0.63937 0.0
C1462 C 0.34045 1.00025 0.62557 0.0
C1463 C 0.30611 0.99267 0.61716 0.0
C1464 C 0.30698 0.98817 0.60093 0.0
C1465 C 0.34321 0.99273 0.59338 0.0
C1466 C 0.37755 1.00026 0.60181 0.0
H1467 H 0.40397 0.09947 0.64397 0.0
H1468 H 0.37602 0.07921 0.62816 0.0
H1469 H 0.36746 0.06302 0.64768 0.0
H1470 H 0.33883 1.00197 0.63807 0.0
H1471 H 0.27906 0.98897 0.62349 0.0
H1472 H 0.25209 0.02305 0.01547 0.0
H1473 H 0.23305 0.02415 0.98808 0.0
H1474 H 0.20723 0.1472 0.99177 0.0
H1475 H 0.22397 0.14559 0.01922 0.0
H1476 H 0.15557 0.11368 0.97407 0.0
H1477 H 0.3028 0.06609 0.95524 0.0
H1478 H 0.279 0.03087 0.96736 0.0
H1479 H 0.29198 0.07803 0.97509 0.0
C1480 C 0.24185 0.05011 0.01041 0.0
C1481 C 0.2397 0.08428 0.01933 0.0
C1482 C 0.23134 0.05084 0.99477 0.0
C1483 C 0.21977 0.08603 0.98777 0.0
C1484 C 0.21625 0.11977 0.99689 0.0
H1485 H 0.24116 0.13296 0.89 0.0
H1486 H 0.24639 0.13311 0.91825 0.0
C1487 C 0.22587 0.11883 0.01256 0.0
C1488 C 0.21258 0.0884 0.97087 0.0
H1489 H 0.25479 0.07202 0.93572 0.0
C1490 C 0.17729 0.10465 0.96567 0.0
C1491 C 0.24125 0.07731 0.95993 0.0
C1492 C 0.28102 0.0625 0.96467 0.0
C1493 C 0.16991 0.11022 0.94984 0.0
C1494 C 0.19803 0.09784 0.93891 0.0
C1495 C 0.23318 0.08139 0.94411 0.0
C1496 C 0.19213 0.10184 0.92198 0.0
C1497 C 0.13267 0.13043 0.94509 0.0
C1498 C 0.15951 0.08498 0.91471 0.0
C1499 C 0.15609 0.08571 0.8986 0.0
C1500 C 0.18574 0.10242 0.88954 0.0
C1501 C 0.21791 0.11999 0.89678 0.0
C1502 C 0.22096 0.11993 0.91289 0.0
H1503 H 0.12096 0.1489 0.95459 0.0
H1504 H 0.13724 0.1491 0.93474 0.0
H1505 H 0.11022 0.10811 0.94227 0.0
H1506 H 0.13742 0.06994 0.92142 0.0
H1507 H 0.13121 0.07153 0.89323 0.0
H1508 H 0.66047 0.39011 0.14453 0.0
H1509 H 0.66063 0.39134 0.1729 0.0
H1510 H 0.65413 0.51714 0.17212 0.0
H1511 H 0.6542 0.51615 0.14377 0.0
H1512 H 0.72124 0.43445 0.18995 0.0
H1513 H 0.57021 0.48071 0.2046 0.0
H1514 H 0.58257 0.45801 0.18635 0.0
H1515 H 0.59378 0.5086 0.18963 0.0
C1516 C 0.65826 0.41795 0.15043 0.0
C1517 C 0.65734 0.45307 0.14205 0.0
C1518 C 0.65845 0.41858 0.16659 0.0
C1519 C 0.65714 0.45429 0.17451 0.0
C1520 C 0.65462 0.4893 0.16615 0.0
H1521 H 0.72755 0.5422 0.26203 0.0
H1522 H 0.72101 0.52287 0.23482 0.0
C1523 C 0.65476 0.48871 0.15 0.0
C1524 C 0.66208 0.4554 0.19144 0.0
H1525 H 0.61758 0.4845 0.22478 0.0
C1526 C 0.69847 0.44489 0.19762 0.0
C1527 C 0.63219 0.46891 0.20132 0.0
C1528 C 0.59233 0.47944 0.19521 0.0
C1529 C 0.70626 0.44908 0.21346 0.0
C1530 C 0.67689 0.46407 0.22323 0.0
C1531 C 0.64001 0.47312 0.21716 0.0
C1532 C 0.68447 0.47271 0.23965 0.0
C1533 C 0.74593 0.43817 0.21966 0.0
C1534 C 0.66649 0.45045 0.25124 0.0
C1535 C 0.67048 0.46118 0.26675 0.0
C1536 C 0.692 0.49464 0.27078 0.0
C1537 C 0.71094 0.5162 0.25918 0.0
C1538 C 0.70726 0.50522 0.24369 0.0
H1539 H 0.76292 0.42059 0.21121 0.0
H1540 H 0.76264 0.46518 0.22229 0.0
H1541 H 0.74298 0.42134 0.23059 0.0
H1542 H 0.64865 0.42538 0.24824 0.0
H1543 H 0.65546 0.44422 0.2755 0.0
H1544 H 0.29496 0.87527 0.51872 0.0
H1545 H 0.30872 0.87453 0.491 0.0
H1546 H 0.27001 0.99407 0.4874 0.0
H1547 H 0.25698 0.99522 0.51535 0.0
H1548 H 0.25392 0.88444 0.46862 0.0
H1549 H 0.37153 0.99526 0.4627 0.0
H1550 H 0.35782 0.97451 0.48113 0.0
H1551 H 0.32883 0.01257 0.47261 0.0
C1552 C 0.29 0.90162 0.51206 0.0
C1553 C 0.27494 0.93533 0.5191 0.0
C1554 C 0.29782 0.90112 0.49625 0.0
C1555 C 0.29064 0.93429 0.48719 0.0
C1556 C 0.27646 0.96841 0.49426 0.0
H1557 H 0.24894 0.93536 0.38852 0.0
H1558 H 0.24344 0.93594 0.41675 0.0
C1559 C 0.26888 0.969 0.51017 0.0
C1560 C 0.29521 0.93187 0.4702 0.0
H1561 H 0.34272 0.97199 0.43936 0.0
C1562 C 0.27348 0.90346 0.46222 0.0
C1563 C 0.32103 0.95645 0.46195 0.0
C1564 C 0.34644 0.98619 0.47003 0.0
C1565 C 0.27653 0.89921 0.44615 0.0
C1566 C 0.30136 0.92464 0.43782 0.0
C1567 C 0.32352 0.95272 0.44581 0.0
C1568 C 0.30444 0.92287 0.42078 0.0
C1569 C 0.25357 0.86719 0.43827 0.0
C1570 C 0.34065 0.9158 0.41374 0.0
C1571 C 0.34389 0.9157 0.39762 0.0
C1572 C 0.31095 0.92278 0.38837 0.0
C1573 C 0.27467 0.92941 0.39543 0.0
C1574 C 0.27147 0.92965 0.41152 0.0
H1575 H 0.24503 0.84383 0.44654 0.0
H1576 H 0.22643 0.8797 0.43332 0.0
H1577 H 0.27059 0.85383 0.42871 0.0
H1578 H 0.36643 0.91065 0.42071 0.0
H1579 H 0.37224 0.9108 0.39243 0.0
H1580 H 0.83923 0.51166 0.63925 0.0
H1581 H 0.84147 0.50684 0.66738 0.0
H1582 H 0.8762 0.62793 0.67036 0.0
H1583 H 0.87243 0.6333 0.64205 0.0
H1584 H 0.89959 0.51618 0.68722 0.0
H1585 H 0.78367 0.62538 0.69924 0.0
H1586 H 0.79336 0.60712 0.68004 0.0
H1587 H 0.82426 0.6441 0.68837 0.0
C1588 C 0.84749 0.53723 0.6459 0.0
C1589 C 0.85552 0.57289 0.63858 0.0
C1590 C 0.84873 0.53445 0.66195 0.0
C1591 C 0.85833 0.5672 0.67095 0.0
C1592 C 0.86776 0.6026 0.66363 0.0
H1593 H 0.91146 0.53224 0.76844 0.0
H1594 H 0.91495 0.55118 0.74121 0.0
C1595 C 0.86599 0.60553 0.64751 0.0
C1596 C 0.85843 0.56361 0.68799 0.0
H1597 H 0.81517 0.59745 0.72093 0.0
C1598 C 0.88125 0.53404 0.69461 0.0
C1599 C 0.83398 0.58661 0.69752 0.0
C1600 C 0.80713 0.61734 0.69095 0.0
C1601 C 0.87982 0.52626 0.71049 0.0
C1602 C 0.85606 0.54981 0.72009 0.0
C1603 C 0.83359 0.57974 0.71352 0.0
C1604 C 0.85322 0.54276 0.73691 0.0
C1605 C 0.90259 0.49188 0.71668 0.0
C1606 C 0.81697 0.53393 0.74368 0.0
C1607 C 0.81479 0.52398 0.75933 0.0
C1608 C 0.8489 0.5224 0.76829 0.0
C1609 C 0.88485 0.53272 0.76165 0.0
C1610 C 0.88691 0.54335 0.74612 0.0
H1611 H 0.90986 0.47067 0.70738 0.0
H1612 H 0.93045 0.50246 0.72174 0.0
H1613 H 0.88599 0.47629 0.72583 0.0
H1614 H 0.7906 0.53357 0.73674 0.0
H1615 H 0.78677 0.51622 0.76428 0.0
H1616 H 0.77088 0.91477 0.12718 0.0
H1617 H 0.7683 0.9119 0.09891 0.0
H1618 H 0.8938 0.92183 0.09687 0.0
H1619 H 0.89649 0.92524 0.1252 0.0
H1620 H 0.85573 0.97455 0.07793 0.0
H1621 H 0.7978 0.82512 0.06872 0.0
H1622 H 0.76896 0.85319 0.08202 0.0
H1623 H 0.81846 0.84078 0.08694 0.0
C1624 C 0.79794 0.91569 0.1207 0.0
C1625 C 0.83388 0.92008 0.12832 0.0
C1626 C 0.79646 0.91386 0.10457 0.0
C1627 C 0.8309 0.91612 0.09581 0.0
C1628 C 0.86693 0.91977 0.10343 0.0
H1629 H 0.82343 0.88497 0.99537 0.0
H1630 H 0.84346 0.88066 0.02256 0.0
C1631 C 0.86843 0.9216 0.11959 0.0
C1632 C 0.82888 0.9176 0.07871 0.0
H1633 H 0.79309 0.86915 0.04723 0.0
C1634 C 0.8425 0.9513 0.07118 0.0
C1635 C 0.81204 0.88706 0.06993 0.0
C1636 C 0.79883 0.84932 0.07729 0.0
C1637 C 0.83823 0.95596 0.05513 0.0
C1638 C 0.81936 0.92637 0.04649 0.0
C1639 C 0.80724 0.89197 0.05392 0.0
C1640 C 0.81025 0.93113 0.02985 0.0
C1641 C 0.85373 0.99259 0.0476 0.0
C1642 C 0.78515 0.96107 0.02497 0.0
C1643 C 0.77376 0.9636 0.00947 0.0
C1644 C 0.78711 0.93608 0.99867 0.0
C1645 C 0.81288 0.90664 1.00349 0.0
C1646 C 0.82425 0.9041 0.01899 0.0
H1647 H 0.87697 1.00645 0.05473 0.0
H1648 H 0.86566 0.98632 0.03592 0.0
H1649 H 0.82959 0.01393 0.04635 0.0
H1650 H 0.77337 0.98173 0.03322 0.0
H1651 H 0.75361 0.98639 1.00606 0.0
H1652 H 0.36022 0.64708 0.87566 0.0
H1653 H 0.36451 0.64363 0.84734 0.0
H1654 H 0.37616 0.51834 0.84999 0.0
H1655 H 0.37242 0.52165 0.87823 0.0
H1656 H 0.4263 0.55411 0.82813 0.0
H1657 H 0.27163 0.60132 0.82181 0.0
H1658 H 0.30306 0.63365 0.83251 0.0
H1659 H 0.29188 0.58613 0.84012 0.0
C1660 C 0.36433 0.61891 0.87018 0.0
C1661 C 0.3658 0.58457 0.87905 0.0
C1662 C 0.36652 0.61697 0.85404 0.0
C1663 C 0.37002 0.58067 0.84661 0.0
C1664 C 0.37334 0.54661 0.85553 0.0
H1665 H 0.30724 0.4896 0.75845 0.0
H1666 H 0.31315 0.51042 0.78547 0.0
C1667 C 0.37118 0.54852 0.87163 0.0
C1668 C 0.36814 0.57751 0.82957 0.0
H1669 H 0.30571 0.58618 0.79896 0.0
C1670 C 0.40015 0.56153 0.82169 0.0
C1671 C 0.33372 0.5868 0.82131 0.0
C1672 C 0.29793 0.60266 0.82932 0.0
C1673 C 0.39841 0.55385 0.80575 0.0
C1674 C 0.3639 0.56289 0.79752 0.0
C1675 C 0.33218 0.5796 0.80534 0.0
C1676 C 0.3591 0.55245 0.78104 0.0
C1677 C 0.43282 0.53459 0.79798 0.0
C1678 C 0.38243 0.56984 0.76961 0.0
C1679 C 0.37909 0.558 0.75418 0.0
C1680 C 0.35228 0.52872 0.75001 0.0
C1681 C 0.32815 0.51221 0.76139 0.0
C1682 C 0.33148 0.52407 0.77679 0.0
H1683 H 0.45413 0.52294 0.8065 0.0
H1684 H 0.42295 0.51028 0.7904 0.0
H1685 H 0.44811 0.55633 0.79062 0.0
H1686 H 0.4035 0.59221 0.77265 0.0
H1687 H 0.39792 0.57124 0.74557 0.0
H1688 H 0.74134 0.13992 0.63082 0.0
H1689 H 0.74817 0.14417 0.60269 0.0
H1690 H 0.63604 0.08806 0.59707 0.0
H1691 H 0.62843 0.08538 0.62521 0.0
H1692 H 0.75391 0.08443 0.58403 0.0
H1693 H 0.62699 0.17257 0.56541 0.0
H1694 H 0.64203 0.16942 0.58538 0.0
H1695 H 0.61274 0.13129 0.57687 0.0
C1696 C 0.71777 0.12942 0.62355 0.0
C1697 C 0.68433 0.11249 0.6301 0.0
C1698 C 0.72172 0.13172 0.6075 0.0
C1699 C 0.69247 0.11675 0.59774 0.0
C1700 C 0.65853 0.10073 0.60432 0.0
H1701 H 0.747 0.03822 0.50417 0.0
H1702 H 0.72824 0.04125 0.53153 0.0
C1703 C 0.6543 0.09902 0.6204 0.0
C1704 C 0.69932 0.11456 0.58081 0.0
H1705 H 0.66017 0.13689 0.54558 0.0
C1706 C 0.73352 0.09618 0.57563 0.0
C1707 C 0.67285 0.13009 0.56986 0.0
C1708 C 0.63681 0.1523 0.57466 0.0
C1709 C 0.74202 0.09282 0.55983 0.0
C1710 C 0.71481 0.10691 0.54885 0.0
C1711 C 0.6807 0.12554 0.55401 0.0
C1712 C 0.72219 0.10423 0.53198 0.0
C1713 C 0.78062 0.07517 0.55512 0.0
C1714 C 0.72287 0.13832 0.52296 0.0
C1715 C 0.73264 0.13648 0.50729 0.0
C1716 C 0.74219 0.10058 0.50043 0.0
C1717 C 0.74011 0.06628 0.50928 0.0
C1718 C 0.72971 0.06805 0.5249 0.0
H1719 H 0.80229 0.07644 0.56469 0.0
H1720 H 0.77617 0.04398 0.55209 0.0
H1721 H 0.79311 0.0904 0.54491 0.0
H1722 H 0.71697 0.16651 0.52815 0.0
H1723 H 0.73399 0.16335 0.50069 0.0
H1724 H 0.15014 0.38184 0.37337 0.0
H1725 H 0.14752 0.38603 0.34505 0.0
H1726 H 0.15825 0.51143 0.34782 0.0
H1727 H 0.1604 0.50747 0.37609 0.0
H1728 H 0.10323 0.48458 0.32557 0.0
H1729 H 0.2477 0.41152 0.32028 0.0
H1730 H 0.21095 0.38514 0.33085 0.0
H1731 H 0.22964 0.4303 0.33844 0.0
C1732 C 0.15128 0.41031 0.36791 0.0
C1733 C 0.15569 0.44435 0.37683 0.0
C1734 C 0.15004 0.41262 0.35178 0.0
C1735 C 0.15337 0.44897 0.3444 0.0
C1736 C 0.15579 0.48311 0.35334 0.0
H1737 H 0.23062 0.5251 0.25564 0.0
H1738 H 0.22235 0.50627 0.2828 0.0
C1739 C 0.15701 0.48082 0.36945 0.0
C1740 C 0.15645 0.4516 0.32739 0.0
H1741 H 0.21703 0.43089 0.29713 0.0
C1742 C 0.12786 0.47254 0.31929 0.0
C1743 C 0.18896 0.43621 0.31936 0.0
C1744 C 0.2213 0.41478 0.32764 0.0
C1745 C 0.13117 0.47901 0.30332 0.0
C1746 C 0.1637 0.46367 0.2953 0.0
C1747 C 0.19201 0.44226 0.30336 0.0
C1748 C 0.17019 0.47195 0.27873 0.0
C1749 C 0.10069 0.50347 0.29527 0.0
C1750 C 0.14419 0.45793 0.26748 0.0
C1751 C 0.14888 0.4686 0.25199 0.0
C1752 C 0.17972 0.49332 0.24759 0.0
C1753 C 0.20662 0.50601 0.25877 0.0
C1754 C 0.20193 0.49531 0.27424 0.0
H1755 H 0.08171 0.51921 0.30362 0.0
H1756 H 0.11467 0.52519 0.28749 0.0
H1757 H 0.08188 0.48424 0.28808 0.0
H1758 H 0.11987 0.43939 0.27072 0.0
H1759 H 0.12782 0.45838 0.24354 0.0
H1760 H 0.62301 0.60713 0.39362 0.0
H1761 H 0.62535 0.61365 0.42188 0.0
H1762 H 0.75011 0.63057 0.41965 0.0
H1763 H 0.74785 0.62464 0.39148 0.0
H1764 H 0.66582 0.56424 0.44099 0.0
H1765 H 0.71683 0.71621 0.44951 0.0
H1766 H 0.69689 0.69914 0.43136 0.0
H1767 H 0.74711 0.68971 0.43623 0.0
C1768 C 0.65077 0.61306 0.39917 0.0
C1769 C 0.68526 0.61548 0.39044 0.0
C1770 C 0.65207 0.61671 0.41528 0.0
C1771 C 0.68782 0.6231 0.42282 0.0
C1772 C 0.72211 0.62656 0.41404 0.0
H1773 H 0.7778 0.55414 0.50984 0.0
H1774 H 0.75402 0.56021 0.48325 0.0
C1775 C 0.72083 0.62292 0.39796 0.0
C1776 C 0.69012 0.6223 0.4399 0.0
H1777 H 0.72672 0.67209 0.4709 0.0
C1778 C 0.6785 0.58809 0.44759 0.0
C1779 C 0.70622 0.6536 0.44849 0.0
C1780 C 0.7171 0.69189 0.44099 0.0
C1781 C 0.68454 0.58351 0.46353 0.0
C1782 C 0.7032 0.61372 0.4719 0.0
C1783 C 0.71282 0.64879 0.46439 0.0
C1784 C 0.71532 0.60859 0.48818 0.0
C1785 C 0.6715 0.54614 0.47121 0.0
C1786 C 0.70177 0.63409 0.49969 0.0
C1787 C 0.71544 0.63075 0.51488 0.0
C1788 C 0.74309 0.60207 0.51869 0.0
C1789 C 0.75628 0.57631 0.5072 0.0
C1790 C 0.74258 0.57962 0.49205 0.0
H1791 H 0.64775 0.53166 0.46456 0.0
H1792 H 0.69651 0.52563 0.47179 0.0
H1793 H 0.66109 0.55163 0.48319 0.0
H1794 H 0.68095 0.6568 0.49689 0.0
H1795 H 0.70497 0.65104 0.52355 0.0
H1796 H 0.14433 0.88624 0.64335 0.0
H1797 H 0.14401 0.89266 0.67161 0.0
H1798 H 0.15802 0.01746 0.66718 0.0
H1799 H 0.15737 0.01129 0.63902 0.0
H1800 H 0.20487 0.91962 0.68836 0.0
H1801 H 0.07546 0.01127 0.70022 0.0
H1802 H 0.08278 0.98709 0.68188 0.0
H1803 H 0.10663 0.03292 0.68592 0.0
C1804 C 0.14625 0.91511 0.64844 0.0
C1805 C 0.15073 0.94831 0.63906 0.0
C1806 C 0.14623 0.91872 0.66456 0.0
C1807 C 0.15057 0.95557 0.6715 0.0
C1808 C 0.15368 0.98885 0.66209 0.0
H1809 H 0.21309 0.05386 0.75901 0.0
H1810 H 0.20313 0.03718 0.73171 0.0
C1811 C 0.15348 0.98528 0.646 0.0
C1812 C 0.15584 0.95902 0.68846 0.0
H1813 H 0.12445 1.00927 0.72021 0.0
C1814 C 0.18689 0.93872 0.69539 0.0
C1815 C 0.13236 0.98396 0.69758 0.0
C1816 C 0.09721 1.00472 0.69104 0.0
C1817 C 0.19606 0.94398 0.71108 0.0
C1818 C 0.17354 0.97009 0.72 0.0
C1819 C 0.14186 0.98955 0.71322 0.0
C1820 C 0.18287 0.97845 0.73634 0.0
C1821 C 0.23051 0.92272 0.71793 0.0
C1822 C 0.17533 0.95062 0.74786 0.0
C1823 C 0.18092 0.96008 0.76344 0.0
C1824 C 0.19415 0.99747 0.76765 0.0
C1825 C 0.20303 0.02478 0.75605 0.0
C1826 C 0.19722 0.01538 0.7405 0.0
H1827 H 0.24802 0.9074 0.70898 0.0
H1828 H 0.24973 0.94352 0.72422 0.0
H1829 H 0.21993 0.90078 0.72641 0.0
H1830 H 0.16394 0.92208 0.74482 0.0
H1831 H 0.17368 0.93862 0.7722 0.0
H1832 H 0.7513 0.4343 0.88967 0.0
H1833 H 0.74508 0.43467 0.91781 0.0
H1834 H 0.86301 0.39173 0.92212 0.0
H1835 H 0.86983 0.39259 0.89385 0.0
H1836 H 0.75029 0.37835 0.93918 0.0
H1837 H 0.86638 0.48935 0.94858 0.0
H1838 H 0.84718 0.47813 0.92965 0.0
H1839 H 0.88268 0.44655 0.93848 0.0
C1840 C 0.77578 0.42463 0.89662 0.0
C1841 C 0.81112 0.41365 0.88969 0.0
C1842 C 0.77222 0.42491 0.91267 0.0
C1843 C 0.80387 0.41404 0.92202 0.0
C1844 C 0.83862 0.40121 0.91509 0.0
H1845 H 0.77659 0.36837 0.01991 0.0
H1846 H 0.7912 0.36406 0.99231 0.0
C1847 C 0.84235 0.40132 0.89899 0.0
C1848 C 0.80022 0.41668 0.93901 0.0
H1849 H 0.83841 0.46096 0.97103 0.0
C1850 C 0.76957 0.39636 0.94616 0.0
C1851 C 0.82502 0.44083 0.94799 0.0
C1852 C 0.85693 0.46528 0.94079 0.0
C1853 C 0.763 0.39944 0.96209 0.0
C1854 C 0.7886 0.42251 0.97116 0.0
C1855 C 0.81916 0.443 0.96402 0.0
C1856 C 0.78372 0.4259 0.98806 0.0
C1857 C 0.72806 0.37881 0.96897 0.0
C1858 C 0.77677 0.46245 0.99491 0.0
C1859 C 0.76911 0.46508 0.01076 0.0
C1860 C 0.76816 0.43114 0.01984 0.0
C1861 C 0.77673 0.39489 0.01307 0.0
C1862 C 0.78486 0.39235 0.99733 0.0
H1863 H 0.70566 0.3721 0.96004 0.0
H1864 H 0.7376 0.35075 0.97414 0.0
H1865 H 0.71429 0.3967 0.97819 0.0
H1866 H 0.77608 0.4887 0.98791 0.0
H1867 H 0.76261 0.49333 0.01579 0.0
H1868 H 0.4185 0.01457 0.26542 0.0
H1869 H 0.42055 0.03452 0.23825 0.0
H1870 H 0.29679 0.05792 0.23945 0.0
H1871 H 0.29444 0.03673 0.26652 0.0
H1872 H 0.31537 0.01374 0.21541 0.0
H1873 H 0.41709 0.13942 0.21742 0.0
H1874 H 0.4378 0.09648 0.22598 0.0
H1875 H 0.3955 0.11876 0.23463 0.0
C1876 C 0.39186 0.02448 0.25992 0.0
C1877 C 0.3563 0.02414 0.26799 0.0
C1878 C 0.39312 0.03619 0.24445 0.0
C1879 C 0.35896 0.04837 0.23689 0.0
C1880 C 0.32355 0.04885 0.24509 0.0
H1881 H 0.34728 0.1397 0.14268 0.0
H1882 H 0.34901 0.13354 0.17096 0.0
C1883 C 0.32221 0.03677 0.26052 0.0
C1884 C 0.3595 0.05712 0.2201 0.0
H1885 H 0.4055 0.11126 0.19234 0.0
C1886 C 0.33481 0.03536 0.2104 0.0
C1887 C 0.38455 0.08564 0.21358 0.0
C1888 C 0.40992 0.11169 0.22347 0.0
C1889 C 0.33519 0.04055 0.19432 0.0
C1890 C 0.36179 0.06747 0.18773 0.0
C1891 C 0.38565 0.09015 0.19743 0.0
C1892 C 0.36493 0.07238 0.17077 0.0
C1893 C 0.3068 0.01736 0.18458 0.0
C1894 C 0.37476 0.04044 0.16137 0.0
C1895 C 0.37352 0.04381 0.14528 0.0
C1896 C 0.36302 0.07935 0.13837 0.0
C1897 C 0.35549 0.11198 0.14776 0.0
C1898 C 0.35642 0.1085 0.16388 0.0
H1899 H 0.28153 1.00691 0.19151 0.0
H1900 H 0.29563 0.03503 0.17476 0.0
H1901 H 0.32186 0.99135 0.1798 0.0
H1902 H 0.38232 0.01258 0.16648 0.0
H1903 H 0.37971 0.01832 0.13827 0.0
H1904 H 0.26204 0.41306 0.62871 0.0
H1905 H 0.25559 0.41433 0.60051 0.0
H1906 H 0.37892 0.43813 0.59622 0.0
H1907 H 0.38568 0.43578 0.62444 0.0
H1908 H 0.27033 0.47632 0.58181 0.0
H1909 H 0.36374 0.3507 0.56516 0.0
H1910 H 0.3477 0.3587 0.5848 0.0
H1911 H 0.38778 0.38646 0.57704 0.0
C1912 C 0.28786 0.41785 0.62172 0.0
C1913 C 0.32437 0.42407 0.62867 0.0
C1914 C 0.28414 0.41875 0.60565 0.0
C1915 C 0.31682 0.42603 0.59628 0.0
C1916 C 0.35348 0.43168 0.60321 0.0
H1917 H 0.28645 0.49476 0.49877 0.0
H1918 H 0.30474 0.49606 0.52629 0.0
C1919 C 0.35729 0.43041 0.61931 0.0
C1920 C 0.31186 0.42958 0.57933 0.0
H1921 H 0.33929 0.38985 0.5448 0.0
C1922 C 0.28545 0.45748 0.57369 0.0
C1923 C 0.33158 0.40487 0.56881 0.0
C1924 C 0.35903 0.37324 0.57422 0.0
C1925 C 0.27755 0.46085 0.55783 0.0
C1926 C 0.29741 0.43627 0.5473 0.0
C1927 C 0.32441 0.40889 0.55291 0.0
C1928 C 0.28804 0.43597 0.53059 0.0
C1929 C 0.2469 0.48956 0.55256 0.0
C1930 C 0.27363 0.40157 0.52386 0.0
C1931 C 0.26371 0.40068 0.50823 0.0
C1932 C 0.26793 0.43422 0.49904 0.0
C1933 C 0.28273 0.46863 0.50568 0.0
C1934 C 0.29297 0.46943 0.52137 0.0
H1935 H 0.22837 0.49975 0.56231 0.0
H1936 H 0.26145 0.51548 0.54742 0.0
H1937 H 0.22772 0.47635 0.54359 0.0
H1938 H 0.26958 0.37546 0.53077 0.0
H1939 H 0.25237 0.37375 0.50339 0.0
H1940 H 0.82867 0.13918 0.37613 0.0
H1941 H 0.82382 0.13517 0.34789 0.0
H1942 H 0.85926 0.0143 0.34963 0.0
H1943 H 0.86234 0.01775 0.3779 0.0
H1944 H 0.87285 0.12021 0.32536 0.0
H1945 H 0.7597 1.00496 0.32578 0.0
H1946 H 0.77464 0.03019 0.34313 0.0
H1947 H 0.80251 0.9894 0.33597 0.0
C1948 C 0.8357 0.11188 0.37044 0.0
C1949 C 0.84557 0.07865 0.3791 0.0
C1950 C 0.83281 0.10958 0.35434 0.0
C1951 C 0.84007 0.07413 0.3467 0.0
C1952 C 0.85217 0.04156 0.35533 0.0
H1953 H 0.89958 0.034 0.25245 0.0
H1954 H 0.89634 0.05243 0.27964 0.0
C1955 C 0.85437 0.04365 0.37144 0.0
C1956 C 0.83497 0.07109 0.32973 0.0
H1957 H 0.79307 0.01488 0.30166 0.0
C1958 C 0.85503 0.09747 0.32017 0.0
C1959 C 0.81074 0.04222 0.32295 0.0
C1960 C 0.78533 0.01542 0.33251 0.0
C1961 C 0.85307 0.09453 0.304 0.0
C1962 C 0.8316 0.06349 0.29725 0.0
C1963 C 0.81 0.03834 0.30681 0.0
C1964 C 0.83316 0.05487 0.28046 0.0
C1965 C 0.87396 0.12483 0.29437 0.0
C1966 C 0.79868 0.04881 0.27193 0.0
C1967 C 0.80051 0.03716 0.25643 0.0
C1968 C 0.83682 0.03178 0.24925 0.0
C1969 C 0.8712 0.03843 0.25769 0.0
C1970 C 0.86938 0.04936 0.2732 0.0
H1971 H 0.87555 0.15326 0.30055 0.0
H1972 H 0.90437 0.11507 0.29222 0.0
H1973 H 0.85929 0.12945 0.28306 0.0
H1974 H 0.7704 0.05255 0.27734 0.0
H1975 H 0.77363 0.03207 0.25012 0.0
H1976 H 0.13578 0.60613 0.12505 0.0
H1977 H 0.13623 0.60723 0.09665 0.0
H1978 H 0.26218 0.60916 0.09697 0.0
H1979 H 0.26194 0.60826 0.12531 0.0
H1980 H 0.2249 0.66203 0.07525 0.0
H1981 H 0.17104 0.50861 0.07161 0.0
H1982 H 0.1427 0.54207 0.08306 0.0
H1983 H 0.19099 0.52898 0.0892 0.0
C1984 C 0.16351 0.60737 0.11903 0.0
C1985 C 0.19886 0.60696 0.12728 0.0
C1986 C 0.1637 0.60777 0.10286 0.0
C1987 C 0.19923 0.60776 0.09481 0.0
C1988 C 0.23449 0.60906 0.10305 0.0
H1989 H 0.28187 0.54303 1.00598 0.0
H1990 H 0.26239 0.54823 0.03318 0.0
C1991 C 0.23432 0.60855 0.11919 0.0
C1992 C 0.20009 0.6046 0.07779 0.0
H1993 H 0.18529 0.54037 0.04812 0.0
C1994 C 0.2158 0.63568 0.06925 0.0
C1995 C 0.18854 0.56992 0.07014 0.0
C1996 C 0.17259 0.53528 0.07892 0.0
C1997 C 0.22098 0.63273 0.05321 0.0
C1998 C 0.20981 0.59791 0.04558 0.0
C1999 C 0.19344 0.56709 0.05407 0.0
C2000 C 0.21802 0.5919 0.029 0.0
C2001 C 0.23983 0.66618 0.0446 0.0
C2002 C 0.19861 0.61392 0.0177 0.0
C2003 C 0.20958 0.61089 1.00218 0.0
C2004 C 0.24011 0.58586 0.99783 0.0
C2005 C 0.25826 0.56255 1.00907 0.0
C2006 C 0.24719 0.56548 0.02457 0.0
H2007 H 0.25218 0.68848 0.05258 0.0
H2008 H 0.26353 0.65528 0.03698 0.0
H2009 H 0.2177 0.68056 0.03716 0.0
H2010 H 0.17576 0.63416 0.02096 0.0
H2011 H 0.19514 0.62912 0.99369 0.0
H2012 H 0.66136 1.00727 0.87669 0.0
H2013 H 0.6605 1.00804 0.84835 0.0
H2014 H 0.67918 0.88349 0.84759 0.0
H2015 H 0.67994 0.88249 0.87599 0.0
H2016 H 0.73335 0.93045 0.82949 0.0
H2017 H 0.57801 0.96471 0.81707 0.0
H2018 H 0.60058 0.99536 0.83143 0.0
H2019 H 0.59395 0.94421 0.83528 0.0
C2020 C 0.66455 0.97997 0.87047 0.0
C2021 C 0.67058 0.94481 0.87846 0.0
C2022 C 0.66395 0.98043 0.85432 0.0
C2023 C 0.66946 0.94577 0.84594 0.0
C2024 C 0.67464 0.91046 0.8539 0.0
H2025 H 0.65442 0.93894 0.74496 0.0
H2026 H 0.65098 0.91953 0.77225 0.0
C2027 C 0.67493 0.90993 0.87007 0.0
C2028 C 0.67275 0.94713 0.82891 0.0
H2029 H 0.62307 0.97271 0.79625 0.0
C2030 C 0.70915 0.93919 0.82217 0.0
C2031 C 0.64103 0.95831 0.81946 0.0
C2032 C 0.60105 0.96584 0.82612 0.0
C2033 C 0.71508 0.94372 0.8062 0.0
C2034 C 0.68382 0.95662 0.79686 0.0
C2035 C 0.64701 0.96299 0.80351 0.0
C2036 C 0.68913 0.96572 0.78029 0.0
C2037 C 0.75478 0.93523 0.79946 0.0
C2038 C 0.712 0.99785 0.77586 0.0
C2039 C 0.71382 1.0091 0.76034 0.0
C2040 C 0.69285 0.98829 0.74906 0.0
C2041 C 0.67101 0.95533 0.75345 0.0
C2042 C 0.66895 0.94428 0.76899 0.0
H2043 H 0.77278 0.91711 0.80738 0.0
H2044 H 0.75202 0.91994 0.78817 0.0
H2045 H 0.77041 0.96319 0.79744 0.0
H2046 H 0.72732 0.01505 0.78447 0.0
H2047 H 0.73068 0.03475 0.75724 0.0
loop_
_geom_bond_atom_site_label_1
_geom_bond_atom_site_label_2
_geom_bond_distance
_geom_bond_site_symmetry_2
_ccdc_geom_bond_type
Tb0 O3 2.453 . S
Tb0 O4 2.596 . S
Tb0 O5 2.374 . S
Tb0 O13 2.343 . S
Tb0 O15 2.353 . S
Tb0 O17 2.427 . S
Tb0 O18 2.513 . S
C1 O5 1.251 . S
C1 O7 1.263 . S
Tb2 O4 2.343 . S
Tb2 O7 2.353 . S
Tb2 O10 2.427 . S
Tb2 O11 2.513 . S
Tb2 O12 2.453 . S
Tb2 O13 2.596 . S
Tb2 O14 2.374 . S
O3 Tb0 2.453 . S
O3 C19 1.245 . S
O4 Tb0 2.596 . S
O4 Tb2 2.343 . S
O4 C19 1.259 . S
O5 Tb0 2.374 . S
O5 C1 1.251 . S
C6 O10 1.275 . S
C6 O11 1.246 . S
O7 C1 1.263 . S
O7 Tb2 2.353 . S
C8 O12 1.245 . S
C8 O13 1.259 . S
C9 O14 1.250 . S
C9 O15 1.263 . S
O10 Tb2 2.427 . S
O10 C6 1.275 . S
O11 Tb2 2.513 . S
O11 C6 1.246 . S
O12 Tb2 2.453 . S
O12 C8 1.245 . S
O13 Tb0 2.343 . S
O13 Tb2 2.596 . S
O13 C8 1.259 . S
O14 Tb2 2.374 . S
O14 C9 1.250 . S
O15 Tb0 2.353 . S
O15 C9 1.263 . S
C16 O17 1.275 . S
C16 O18 1.246 . S
O17 Tb0 2.427 . S
O17 C16 1.275 . S
O18 Tb0 2.513 . S
O18 C16 1.246 . S
C19 O3 1.245 . S
C19 O4 1.259 . S
Tb20 O23 2.453 . S
Tb20 O24 2.596 . S
Tb20 O25 2.374 . S
Tb20 O33 2.343 . S
Tb20 O35 2.353 . S
Tb20 O37 2.427 . S
Tb20 O38 2.513 . S
C21 O25 1.251 . S
C21 O27 1.263 . S
Tb22 O24 2.343 . S
Tb22 O27 2.353 . S
Tb22 O30 2.427 . S
Tb22 O31 2.513 . S
Tb22 O32 2.453 . S
Tb22 O33 2.596 . S
Tb22 O34 2.374 . S
O23 Tb20 2.453 . S
O23 C39 1.245 . S
O24 Tb20 2.596 . S
O24 Tb22 2.343 . S
O24 C39 1.259 . S
O25 Tb20 2.374 . S
O25 C21 1.251 . S
C26 O30 1.275 . S
C26 O31 1.246 . S
O27 C21 1.263 . S
O27 Tb22 2.353 . S
C28 O32 1.245 . S
C28 O33 1.259 . S
C29 O34 1.250 . S
C29 O35 1.263 . S
O30 Tb22 2.427 . S
O30 C26 1.275 . S
O31 Tb22 2.513 . S
O31 C26 1.246 . S
O32 Tb22 2.453 . S
O32 C28 1.245 . S
O33 Tb20 2.343 . S
O33 Tb22 2.596 . S
O33 C28 1.259 . S
O34 Tb22 2.374 . S
O34 C29 1.250 . S
O35 Tb20 2.353 . S
O35 C29 1.263 . S
C36 O37 1.275 . S
C36 O38 1.246 . S
O37 Tb20 2.427 . S
O37 C36 1.275 . S
O38 Tb20 2.513 . S
O38 C36 1.246 . S
C39 O23 1.245 . S
C39 O24 1.259 . S
Tb40 O43 2.453 . S
Tb40 O44 2.596 . S
Tb40 O45 2.374 . S
Tb40 O53 2.343 . S
Tb40 O55 2.353 . S
Tb40 O57 2.427 . S
Tb40 O58 2.513 . S
C41 O45 1.251 . S
C41 O47 1.263 . S
Tb42 O44 2.343 . S
Tb42 O47 2.353 . S
Tb42 O50 2.427 . S
Tb42 O51 2.513 . S
Tb42 O52 2.453 . S
Tb42 O53 2.596 . S
Tb42 O54 2.374 . S
O43 Tb40 2.453 . S
O43 C59 1.245 . S
O44 Tb40 2.596 . S
O44 Tb42 2.343 . S
O44 C59 1.259 . S
O45 Tb40 2.374 . S
O45 C41 1.251 . S
C46 O50 1.275 . S
C46 O51 1.246 . S
O47 C41 1.263 . S
O47 Tb42 2.353 . S
C48 O52 1.245 . S
C48 O53 1.259 . S
C49 O54 1.250 . S
C49 O55 1.263 . S
O50 Tb42 2.427 . S
O50 C46 1.275 . S
O51 Tb42 2.513 . S
O51 C46 1.246 . S
O52 Tb42 2.453 . S
O52 C48 1.245 . S
O53 Tb40 2.343 . S
O53 Tb42 2.596 . S
O53 C48 1.259 . S
O54 Tb42 2.374 . S
O54 C49 1.250 . S
O55 Tb40 2.353 . S
O55 C49 1.263 . S
C56 O57 1.275 . S
C56 O58 1.246 . S
O57 Tb40 2.427 . S
O57 C56 1.275 . S
O58 Tb40 2.513 . S
O58 C56 1.246 . S
C59 O43 1.245 . S
C59 O44 1.259 . S
Tb60 O63 2.453 . S
Tb60 O64 2.596 . S
Tb60 O65 2.374 . S
Tb60 O73 2.343 . S
Tb60 O75 2.353 . S
Tb60 O77 2.427 . S
Tb60 O78 2.513 . S
C61 O65 1.251 . S
C61 O67 1.263 . S
Tb62 O64 2.343 . S
Tb62 O67 2.353 . S
Tb62 O70 2.427 . S
Tb62 O71 2.513 . S
Tb62 O72 2.453 . S
Tb62 O73 2.596 . S
Tb62 O74 2.374 . S
O63 Tb60 2.453 . S
O63 C79 1.245 . S
O64 Tb60 2.596 . S
O64 Tb62 2.343 . S
O64 C79 1.259 . S
O65 Tb60 2.374 . S
O65 C61 1.251 . S
C66 O70 1.275 . S
C66 O71 1.246 . S
O67 C61 1.263 . S
O67 Tb62 2.353 . S
C68 O72 1.245 . S
C68 O73 1.259 . S
C69 O74 1.250 . S
C69 O75 1.263 . S
O70 Tb62 2.427 . S
O70 C66 1.275 . S
O71 Tb62 2.513 . S
O71 C66 1.246 . S
O72 Tb62 2.453 . S
O72 C68 1.245 . S
O73 Tb60 2.343 . S
O73 Tb62 2.596 . S
O73 C68 1.259 . S
O74 Tb62 2.374 . S
O74 C69 1.250 . S
O75 Tb60 2.353 . S
O75 C69 1.263 . S
C76 O77 1.275 . S
C76 O78 1.246 . S
O77 Tb60 2.427 . S
O77 C76 1.275 . S
O78 Tb60 2.513 . S
O78 C76 1.246 . S
C79 O63 1.245 . S
C79 O64 1.259 . S
Tb80 O83 2.453 . S
Tb80 O84 2.596 . S
Tb80 O85 2.374 . S
Tb80 O93 2.343 . S
Tb80 O95 2.353 . S
Tb80 O97 2.427 . S
Tb80 O98 2.513 . S
C81 O85 1.251 . S
C81 O87 1.263 . S
Tb82 O84 2.343 . S
Tb82 O87 2.353 . S
Tb82 O90 2.427 . S
Tb82 O91 2.513 . S
Tb82 O92 2.453 . S
Tb82 O93 2.596 . S
Tb82 O94 2.374 . S
O83 Tb80 2.453 . S
O83 C99 1.245 . S
O84 Tb80 2.596 . S
O84 Tb82 2.343 . S
O84 C99 1.259 . S
O85 Tb80 2.374 . S
O85 C81 1.251 . S
C86 O90 1.275 . S
C86 O91 1.246 . S
O87 C81 1.263 . S
O87 Tb82 2.353 . S
C88 O92 1.245 . S
C88 O93 1.259 . S
C89 O94 1.250 . S
C89 O95 1.263 . S
O90 Tb82 2.427 . S
O90 C86 1.275 . S
O91 Tb82 2.513 . S
O91 C86 1.246 . S
O92 Tb82 2.453 . S
O92 C88 1.245 . S
O93 Tb80 2.343 . S
O93 Tb82 2.596 . S
O93 C88 1.259 . S
O94 Tb82 2.374 . S
O94 C89 1.250 . S
O95 Tb80 2.353 . S
O95 C89 1.263 . S
C96 O97 1.275 . S
C96 O98 1.246 . S
O97 Tb80 2.427 . S
O97 C96 1.275 . S
O98 Tb80 2.513 . S
O98 C96 1.246 . S
C99 O83 1.245 . S
C99 O84 1.259 . S
Tb100 O103 2.453 . S
Tb100 O104 2.596 . S
Tb100 O105 2.374 . S
Tb100 O113 2.343 . S
Tb100 O115 2.353 . S
Tb100 O117 2.427 . S
Tb100 O118 2.513 . S
C101 O105 1.251 . S
C101 O107 1.263 . S
Tb102 O104 2.343 . S
Tb102 O107 2.353 . S
Tb102 O110 2.427 . S
Tb102 O111 2.513 . S
Tb102 O112 2.453 . S
Tb102 O113 2.596 . S
Tb102 O114 2.374 . S
O103 Tb100 2.453 . S
O103 C119 1.245 . S
O104 Tb100 2.596 . S
O104 Tb102 2.343 . S
O104 C119 1.259 . S
O105 Tb100 2.374 . S
O105 C101 1.251 . S
C106 O110 1.275 . S
C106 O111 1.246 . S
O107 C101 1.263 . S
O107 Tb102 2.353 . S
C108 O112 1.245 . S
C108 O113 1.259 . S
C109 O114 1.250 . S
C109 O115 1.263 . S
O110 Tb102 2.427 . S
O110 C106 1.275 . S
O111 Tb102 2.513 . S
O111 C106 1.246 . S
O112 Tb102 2.453 . S
O112 C108 1.245 . S
O113 Tb100 2.343 . S
O113 Tb102 2.596 . S
O113 C108 1.259 . S
O114 Tb102 2.374 . S
O114 C109 1.250 . S
O115 Tb100 2.353 . S
O115 C109 1.263 . S
C116 O117 1.275 . S
C116 O118 1.246 . S
O117 Tb100 2.427 . S
O117 C116 1.275 . S
O118 Tb100 2.513 . S
O118 C116 1.246 . S
C119 O103 1.245 . S
C119 O104 1.259 . S
Tb120 O123 2.453 . S
Tb120 O124 2.596 . S
Tb120 O125 2.374 . S
Tb120 O133 2.343 . S
Tb120 O135 2.353 . S
Tb120 O137 2.427 . S
Tb120 O138 2.513 . S
C121 O125 1.251 . S
C121 O127 1.263 . S
Tb122 O124 2.343 . S
Tb122 O127 2.353 . S
Tb122 O130 2.427 . S
Tb122 O131 2.513 . S
Tb122 O132 2.453 . S
Tb122 O133 2.596 . S
Tb122 O134 2.374 . S
O123 Tb120 2.453 . S
O123 C139 1.245 . S
O124 Tb120 2.596 . S
O124 Tb122 2.343 . S
O124 C139 1.259 . S
O125 Tb120 2.374 . S
O125 C121 1.251 . S
C126 O130 1.275 . S
C126 O131 1.246 . S
O127 C121 1.263 . S
O127 Tb122 2.353 . S
C128 O132 1.245 . S
C128 O133 1.259 . S
C129 O134 1.250 . S
C129 O135 1.263 . S
O130 Tb122 2.427 . S
O130 C126 1.275 . S
O131 Tb122 2.513 . S
O131 C126 1.246 . S
O132 Tb122 2.453 . S
O132 C128 1.245 . S
O133 Tb120 2.343 . S
O133 Tb122 2.596 . S
O133 C128 1.259 . S
O134 Tb122 2.374 . S
O134 C129 1.250 . S
O135 Tb120 2.353 . S
O135 C129 1.263 . S
C136 O137 1.275 . S
C136 O138 1.246 . S
O137 Tb120 2.427 . S
O137 C136 1.275 . S
O138 Tb120 2.513 . S
O138 C136 1.246 . S
C139 O123 1.245 . S
C139 O124 1.259 . S
Tb140 O143 2.453 . S
Tb140 O144 2.596 . S
Tb140 O145 2.374 . S
Tb140 O153 2.343 . S
Tb140 O155 2.353 . S
Tb140 O157 2.427 . S
Tb140 O158 2.513 . S
C141 O145 1.251 . S
C141 O147 1.263 . S
Tb142 O144 2.343 . S
Tb142 O147 2.353 . S
Tb142 O150 2.427 . S
Tb142 O151 2.513 . S
Tb142 O152 2.453 . S
Tb142 O153 2.596 . S
Tb142 O154 2.374 . S
O143 Tb140 2.453 . S
O143 C159 1.245 . S
O144 Tb140 2.596 . S
O144 Tb142 2.343 . S
O144 C159 1.259 . S
O145 Tb140 2.374 . S
O145 C141 1.251 . S
C146 O150 1.275 . S
C146 O151 1.246 . S
O147 C141 1.263 . S
O147 Tb142 2.353 . S
C148 O152 1.245 . S
C148 O153 1.259 . S
C149 O154 1.250 . S
C149 O155 1.263 . S
O150 Tb142 2.427 . S
O150 C146 1.275 . S
O151 Tb142 2.513 . S
O151 C146 1.246 . S
O152 Tb142 2.453 . S
O152 C148 1.245 . S
O153 Tb140 2.343 . S
O153 Tb142 2.596 . S
O153 C148 1.259 . S
O154 Tb142 2.374 . S
O154 C149 1.250 . S
O155 Tb140 2.353 . S
O155 C149 1.263 . S
C156 O157 1.275 . S
C156 O158 1.246 . S
O157 Tb140 2.427 . S
O157 C156 1.275 . S
O158 Tb140 2.513 . S
O158 C156 1.246 . S
C159 O143 1.245 . S
C159 O144 1.259 . S
Tb160 O163 2.453 . S
Tb160 O164 2.596 . S
Tb160 O165 2.374 . S
Tb160 O173 2.343 . S
Tb160 O175 2.353 . S
Tb160 O177 2.427 . S
Tb160 O178 2.513 . S
C161 O165 1.251 . S
C161 O167 1.263 . S
Tb162 O164 2.343 . S
Tb162 O167 2.353 . S
Tb162 O170 2.427 . S
Tb162 O171 2.513 . S
Tb162 O172 2.453 . S
Tb162 O173 2.596 . S
Tb162 O174 2.374 . S
O163 Tb160 2.453 . S
O163 C179 1.245 . S
O164 Tb160 2.596 . S
O164 Tb162 2.343 . S
O164 C179 1.259 . S
O165 Tb160 2.374 . S
O165 C161 1.251 . S
C166 O170 1.275 . S
C166 O171 1.246 . S
O167 C161 1.263 . S
O167 Tb162 2.353 . S
C168 O172 1.245 . S
C168 O173 1.259 . S
C169 O174 1.250 . S
C169 O175 1.263 . S
O170 Tb162 2.427 . S
O170 C166 1.275 . S
O171 Tb162 2.513 . S
O171 C166 1.246 . S
O172 Tb162 2.453 . S
O172 C168 1.245 . S
O173 Tb160 2.343 . S
O173 Tb162 2.596 . S
O173 C168 1.259 . S
O174 Tb162 2.374 . S
O174 C169 1.250 . S
O175 Tb160 2.353 . S
O175 C169 1.263 . S
C176 O177 1.275 . S
C176 O178 1.246 . S
O177 Tb160 2.427 . S
O177 C176 1.275 . S
O178 Tb160 2.513 . S
O178 C176 1.246 . S
C179 O163 1.245 . S
C179 O164 1.259 . S
Tb180 O183 2.453 . S
Tb180 O184 2.596 . S
Tb180 O185 2.374 . S
Tb180 O193 2.343 . S
Tb180 O195 2.353 . S
Tb180 O197 2.427 . S
Tb180 O198 2.513 . S
C181 O185 1.251 . S
C181 O187 1.263 . S
Tb182 O184 2.343 . S
Tb182 O187 2.353 . S
Tb182 O190 2.427 . S
Tb182 O191 2.513 . S
Tb182 O192 2.453 . S
Tb182 O193 2.596 . S
Tb182 O194 2.374 1_545 S
O183 Tb180 2.453 . S
O183 C199 1.245 . S
O184 Tb180 2.596 . S
O184 Tb182 2.343 . S
O184 C199 1.259 . S
O185 Tb180 2.374 . S
O185 C181 1.251 . S
C186 O190 1.275 . S
C186 O191 1.246 . S
O187 C181 1.263 . S
O187 Tb182 2.353 . S
C188 O192 1.245 . S
C188 O193 1.259 . S
C189 O194 1.250 . S
C189 O195 1.263 1_565 S
O190 Tb182 2.427 . S
O190 C186 1.275 . S
O191 Tb182 2.513 . S
O191 C186 1.246 . S
O192 Tb182 2.453 . S
O192 C188 1.245 . S
O193 Tb180 2.343 . S
O193 Tb182 2.596 . S
O193 C188 1.259 . S
O194 Tb182 2.374 1_565 S
O194 C189 1.250 . S
O195 Tb180 2.353 . S
O195 C189 1.263 1_545 S
C196 O197 1.275 . S
C196 O198 1.246 . S
O197 Tb180 2.427 . S
O197 C196 1.275 . S
O198 Tb180 2.513 . S
O198 C196 1.246 . S
C199 O183 1.245 . S
C199 O184 1.259 . S
Tb200 O203 2.453 . S
Tb200 O204 2.596 . S
Tb200 O205 2.374 . S
Tb200 O213 2.343 . S
Tb200 O215 2.353 . S
Tb200 O217 2.427 . S
Tb200 O218 2.513 . S
C201 O205 1.251 . S
C201 O207 1.263 . S
Tb202 O204 2.343 . S
Tb202 O207 2.353 . S
Tb202 O210 2.427 . S
Tb202 O211 2.513 . S
Tb202 O212 2.453 . S
Tb202 O213 2.596 . S
Tb202 O214 2.374 . S
O203 Tb200 2.453 . S
O203 C219 1.245 . S
O204 Tb200 2.596 . S
O204 Tb202 2.343 . S
O204 C219 1.259 . S
O205 Tb200 2.374 . S
O205 C201 1.251 . S
C206 O210 1.275 . S
C206 O211 1.246 . S
O207 C201 1.263 . S
O207 Tb202 2.353 . S
C208 O212 1.245 . S
C208 O213 1.259 . S
C209 O214 1.250 . S
C209 O215 1.263 . S
O210 Tb202 2.427 . S
O210 C206 1.275 . S
O211 Tb202 2.513 . S
O211 C206 1.246 . S
O212 Tb202 2.453 . S
O212 C208 1.245 . S
O213 Tb200 2.343 . S
O213 Tb202 2.596 . S
O213 C208 1.259 . S
O214 Tb202 2.374 . S
O214 C209 1.250 . S
O215 Tb200 2.353 . S
O215 C209 1.263 . S
C216 O217 1.275 . S
C216 O218 1.246 . S
O217 Tb200 2.427 . S
O217 C216 1.275 . S
O218 Tb200 2.513 . S
O218 C216 1.246 . S
C219 O203 1.245 . S
C219 O204 1.259 . S
Tb220 O223 2.453 . S
Tb220 O224 2.596 . S
Tb220 O225 2.374 . S
Tb220 O233 2.343 . S
Tb220 O235 2.353 . S
Tb220 O237 2.427 . S
Tb220 O238 2.513 . S
C221 O225 1.251 . S
C221 O227 1.263 . S
Tb222 O224 2.343 . S
Tb222 O227 2.353 . S
Tb222 O230 2.427 . S
Tb222 O231 2.513 . S
Tb222 O232 2.453 . S
Tb222 O233 2.596 . S
Tb222 O234 2.374 1_565 S
O223 Tb220 2.453 . S
O223 C239 1.245 . S
O224 Tb220 2.596 . S
O224 Tb222 2.343 . S
O224 C239 1.259 . S
O225 Tb220 2.374 . S
O225 C221 1.251 . S
C226 O230 1.275 . S
C226 O231 1.246 . S
O227 C221 1.263 . S
O227 Tb222 2.353 . S
C228 O232 1.245 . S
C228 O233 1.259 . S
C229 O234 1.250 . S
C229 O235 1.263 1_545 S
O230 Tb222 2.427 . S
O230 C226 1.275 . S
O231 Tb222 2.513 . S
O231 C226 1.246 . S
O232 Tb222 2.453 . S
O232 C228 1.245 . S
O233 Tb220 2.343 . S
O233 Tb222 2.596 . S
O233 C228 1.259 . S
O234 Tb222 2.374 1_545 S
O234 C229 1.250 . S
O235 Tb220 2.353 . S
O235 C229 1.263 1_565 S
C236 O237 1.275 . S
C236 O238 1.246 . S
O237 Tb220 2.427 . S
O237 C236 1.275 . S
O238 Tb220 2.513 . S
O238 C236 1.246 . S
C239 O223 1.245 . S
C239 O224 1.259 . S
Tb240 O243 2.453 . S
Tb240 O244 2.596 . S
Tb240 O245 2.374 . S
Tb240 O253 2.343 . S
Tb240 O255 2.353 . S
Tb240 O257 2.427 . S
Tb240 O258 2.513 . S
C241 O245 1.251 . S
C241 O247 1.263 . S
Tb242 O244 2.343 . S
Tb242 O247 2.353 . S
Tb242 O250 2.427 . S
Tb242 O251 2.513 . S
Tb242 O252 2.453 . S
Tb242 O253 2.596 . S
Tb242 O254 2.374 . S
O243 Tb240 2.453 . S
O243 C259 1.245 . S
O244 Tb240 2.596 . S
O244 Tb242 2.343 . S
O244 C259 1.259 . S
O245 Tb240 2.374 . S
O245 C241 1.251 . S
C246 O250 1.275 . S
C246 O251 1.246 . S
O247 C241 1.263 . S
O247 Tb242 2.353 . S
C248 O252 1.245 . S
C248 O253 1.259 . S
C249 O254 1.250 . S
C249 O255 1.263 . S
O250 Tb242 2.427 . S
O250 C246 1.275 . S
O251 Tb242 2.513 . S
O251 C246 1.246 . S
O252 Tb242 2.453 . S
O252 C248 1.245 . S
O253 Tb240 2.343 . S
O253 Tb242 2.596 . S
O253 C248 1.259 . S
O254 Tb242 2.374 . S
O254 C249 1.250 . S
O255 Tb240 2.353 . S
O255 C249 1.263 . S
C256 O257 1.275 . S
C256 O258 1.246 . S
O257 Tb240 2.427 . S
O257 C256 1.275 . S
O258 Tb240 2.513 . S
O258 C256 1.246 . S
C259 O243 1.245 . S
C259 O244 1.259 . S
Tb260 O263 2.453 . S
Tb260 O264 2.596 . S
Tb260 O265 2.374 1_565 S
Tb260 O273 2.343 . S
Tb260 O275 2.353 . S
Tb260 O277 2.427 . S
Tb260 O278 2.513 . S
C261 O265 1.251 . S
C261 O267 1.263 1_545 S
Tb262 O264 2.343 . S
Tb262 O267 2.353 . S
Tb262 O270 2.427 . S
Tb262 O271 2.513 . S
Tb262 O272 2.453 . S
Tb262 O273 2.596 . S
Tb262 O274 2.374 . S
O263 Tb260 2.453 . S
O263 C279 1.245 . S
O264 Tb260 2.596 . S
O264 Tb262 2.343 . S
O264 C279 1.259 . S
O265 Tb260 2.374 1_545 S
O265 C261 1.251 . S
C266 O270 1.275 . S
C266 O271 1.246 . S
O267 C261 1.263 1_565 S
O267 Tb262 2.353 . S
C268 O272 1.245 . S
C268 O273 1.259 . S
C269 O274 1.250 . S
C269 O275 1.263 . S
O270 Tb262 2.427 . S
O270 C266 1.275 . S
O271 Tb262 2.513 . S
O271 C266 1.246 . S
O272 Tb262 2.453 . S
O272 C268 1.245 . S
O273 Tb260 2.343 . S
O273 Tb262 2.596 . S
O273 C268 1.259 . S
O274 Tb262 2.374 . S
O274 C269 1.250 . S
O275 Tb260 2.353 . S
O275 C269 1.263 . S
C276 O277 1.275 . S
C276 O278 1.246 . S
O277 Tb260 2.427 . S
O277 C276 1.275 . S
O278 Tb260 2.513 . S
O278 C276 1.246 . S
C279 O263 1.245 . S
C279 O264 1.259 . S
Tb280 O283 2.453 . S
Tb280 O284 2.596 . S
Tb280 O285 2.374 . S
Tb280 O293 2.343 . S
Tb280 O295 2.353 . S
Tb280 O297 2.427 . S
Tb280 O298 2.513 . S
C281 O285 1.251 . S
C281 O287 1.263 . S
Tb282 O284 2.343 . S
Tb282 O287 2.353 . S
Tb282 O290 2.427 . S
Tb282 O291 2.513 . S
Tb282 O292 2.453 . S
Tb282 O293 2.596 . S
Tb282 O294 2.374 . S
O283 Tb280 2.453 . S
O283 C299 1.245 . S
O284 Tb280 2.596 . S
O284 Tb282 2.343 . S
O284 C299 1.259 . S
O285 Tb280 2.374 . S
O285 C281 1.251 . S
C286 O290 1.275 . S
C286 O291 1.246 . S
O287 C281 1.263 . S
O287 Tb282 2.353 . S
C288 O292 1.245 . S
C288 O293 1.259 . S
C289 O294 1.250 . S
C289 O295 1.263 . S
O290 Tb282 2.427 . S
O290 C286 1.275 . S
O291 Tb282 2.513 . S
O291 C286 1.246 . S
O292 Tb282 2.453 . S
O292 C288 1.245 . S
O293 Tb280 2.343 . S
O293 Tb282 2.596 . S
O293 C288 1.259 . S
O294 Tb282 2.374 . S
O294 C289 1.250 . S
O295 Tb280 2.353 . S
O295 C289 1.263 . S
C296 O297 1.275 . S
C296 O298 1.246 . S
O297 Tb280 2.427 . S
O297 C296 1.275 . S
O298 Tb280 2.513 . S
O298 C296 1.246 . S
C299 O283 1.245 . S
C299 O284 1.259 . S
Tb300 O303 2.453 . S
Tb300 O304 2.596 . S
Tb300 O305 2.374 1_545 S
Tb300 O313 2.343 . S
Tb300 O315 2.353 . S
Tb300 O317 2.427 . S
Tb300 O318 2.513 . S
C301 O305 1.251 . S
C301 O307 1.263 1_565 S
Tb302 O304 2.343 . S
Tb302 O307 2.353 . S
Tb302 O310 2.427 . S
Tb302 O311 2.513 . S
Tb302 O312 2.453 . S
Tb302 O313 2.596 . S
Tb302 O314 2.374 . S
O303 Tb300 2.453 . S
O303 C319 1.245 . S
O304 Tb300 2.596 . S
O304 Tb302 2.343 . S
O304 C319 1.259 . S
O305 Tb300 2.374 1_565 S
O305 C301 1.251 . S
C306 O310 1.275 . S
C306 O311 1.246 . S
O307 C301 1.263 1_545 S
O307 Tb302 2.353 . S
C308 O312 1.245 . S
C308 O313 1.259 . S
C309 O314 1.250 . S
C309 O315 1.263 . S
O310 Tb302 2.427 . S
O310 C306 1.275 . S
O311 Tb302 2.513 . S
O311 C306 1.246 . S
O312 Tb302 2.453 . S
O312 C308 1.245 . S
O313 Tb300 2.343 . S
O313 Tb302 2.596 . S
O313 C308 1.259 . S
O314 Tb302 2.374 . S
O314 C309 1.250 . S
O315 Tb300 2.353 . S
O315 C309 1.263 . S
C316 O317 1.275 . S
C316 O318 1.246 . S
O317 Tb300 2.427 . S
O317 C316 1.275 . S
O318 Tb300 2.513 . S
O318 C316 1.246 . S
C319 O303 1.245 . S
C319 O304 1.259 . S
H320 C328 0.929 . S
H321 C330 0.930 . S
H322 C332 0.930 . S
H323 C335 0.929 . S
H324 C338 0.930 . S
H325 C340 0.960 . S
H326 C340 0.960 . S
H327 C340 0.960 . S
C328 H320 0.929 . S
C328 C329 1.377 . S
C328 C330 1.384 . S
C329 C328 1.377 . S
C329 C335 1.390 . S
C330 H321 0.930 . S
C330 C328 1.384 . S
C330 C331 1.372 . S
C331 C330 1.372 . S
C331 C332 1.400 . S
C331 C336 1.490 . S
C332 H322 0.930 . S
C332 C331 1.400 . S
C332 C335 1.386 . S
H333 C349 0.930 . S
H334 C350 0.931 . S
C335 H323 0.929 . S
C335 C329 1.390 . S
C335 C332 1.386 . S
C336 C331 1.490 . S
C336 C338 1.395 . S
C336 C339 1.403 . S
H337 C343 0.930 . S
C338 H324 0.930 . S
C338 C336 1.395 . S
C338 C341 1.403 . S
C339 C336 1.403 . S
C339 C340 1.524 . S
C339 C343 1.400 . S
C340 H325 0.960 . S
C340 H326 0.960 . S
C340 H327 0.960 . S
C340 C339 1.524 . S
C341 C338 1.403 . S
C341 C342 1.392 . S
C341 C345 1.495 . S
C342 C341 1.392 . S
C342 C343 1.385 . S
C342 C344 1.478 . S
C343 H337 0.930 . S
C343 C339 1.400 . S
C343 C342 1.385 . S
C344 C342 1.478 . S
C344 C346 1.381 . S
C344 C350 1.383 . S
C345 C341 1.495 . S
C345 H351 0.959 . S
C345 H352 0.961 . S
C345 H353 0.960 . S
C346 C344 1.381 . S
C346 C347 1.394 . S
C346 H354 0.930 . S
C347 C346 1.394 . S
C347 C348 1.383 . S
C347 H355 0.929 . S
C348 C347 1.383 . S
C348 C349 1.377 . S
C349 H333 0.930 . S
C349 C348 1.377 . S
C349 C350 1.379 . S
C350 H334 0.931 . S
C350 C344 1.383 . S
C350 C349 1.379 . S
H351 C345 0.959 . S
H352 C345 0.961 . S
H353 C345 0.960 . S
H354 C346 0.930 . S
H355 C347 0.929 . S
H356 C364 0.929 . S
H357 C366 0.930 . S
H358 C368 0.930 . S
H359 C371 0.929 . S
H360 C374 0.930 . S
H361 C376 0.960 . S
H362 C376 0.960 . S
H363 C376 0.960 . S
C364 H356 0.929 . S
C364 C365 1.377 . S
C364 C366 1.384 . S
C365 C364 1.377 . S
C365 C371 1.390 . S
C366 H357 0.930 . S
C366 C364 1.384 . S
C366 C367 1.372 . S
C367 C366 1.372 . S
C367 C368 1.400 . S
C367 C372 1.490 . S
C368 H358 0.930 . S
C368 C367 1.400 . S
C368 C371 1.386 . S
H369 C385 0.930 . S
H370 C386 0.931 . S
C371 H359 0.929 . S
C371 C365 1.390 . S
C371 C368 1.386 . S
C372 C367 1.490 . S
C372 C374 1.395 . S
C372 C375 1.403 . S
H373 C379 0.930 . S
C374 H360 0.930 . S
C374 C372 1.395 . S
C374 C377 1.403 . S
C375 C372 1.403 . S
C375 C376 1.524 . S
C375 C379 1.400 . S
C376 H361 0.960 . S
C376 H362 0.960 . S
C376 H363 0.960 . S
C376 C375 1.524 . S
C377 C374 1.403 . S
C377 C378 1.392 . S
C377 C381 1.495 . S
C378 C377 1.392 . S
C378 C379 1.385 . S
C378 C380 1.478 . S
C379 H373 0.930 . S
C379 C375 1.400 . S
C379 C378 1.385 . S
C380 C378 1.478 . S
C380 C382 1.381 . S
C380 C386 1.383 . S
C381 C377 1.495 . S
C381 H387 0.959 . S
C381 H388 0.961 . S
C381 H389 0.960 . S
C382 C380 1.381 . S
C382 C383 1.394 . S
C382 H390 0.930 . S
C383 C382 1.394 . S
C383 C384 1.383 . S
C383 H391 0.929 . S
C384 C383 1.383 . S
C384 C385 1.377 . S
C385 H369 0.930 . S
C385 C384 1.377 . S
C385 C386 1.379 . S
C386 H370 0.931 . S
C386 C380 1.383 . S
C386 C385 1.379 . S
H387 C381 0.959 . S
H388 C381 0.961 . S
H389 C381 0.960 . S
H390 C382 0.930 . S
H391 C383 0.929 . S
H392 C400 0.929 . S
H393 C402 0.930 . S
H394 C404 0.930 . S
H395 C407 0.929 . S
H396 C410 0.930 . S
H397 C412 0.960 1_655 S
H398 C412 0.960 . S
H399 C412 0.960 . S
C400 H392 0.929 . S
C400 C401 1.377 . S
C400 C402 1.384 . S
C401 C400 1.377 . S
C401 C407 1.390 . S
C402 H393 0.930 . S
C402 C400 1.384 . S
C402 C403 1.372 . S
C403 C402 1.372 . S
C403 C404 1.400 . S
C403 C408 1.490 . S
C404 H394 0.930 . S
C404 C403 1.400 . S
C404 C407 1.386 . S
H405 C421 0.930 . S
H406 C422 0.931 . S
C407 H395 0.929 . S
C407 C401 1.390 . S
C407 C404 1.386 . S
C408 C403 1.490 . S
C408 C410 1.395 . S
C408 C411 1.403 . S
H409 C415 0.930 . S
C410 H396 0.930 . S
C410 C408 1.395 . S
C410 C413 1.403 . S
C411 C408 1.403 . S
C411 C412 1.524 . S
C411 C415 1.400 1_455 S
C412 H397 0.960 1_455 S
C412 H398 0.960 . S
C412 H399 0.960 . S
C412 C411 1.524 . S
C413 C410 1.403 . S
C413 C414 1.392 1_455 S
C413 C417 1.495 . S
C414 C413 1.392 1_655 S
C414 C415 1.385 . S
C414 C416 1.478 . S
C415 H409 0.930 . S
C415 C411 1.400 1_655 S
C415 C414 1.385 . S
C416 C414 1.478 . S
C416 C418 1.381 . S
C416 C422 1.383 . S
C417 C413 1.495 . S
C417 H423 0.959 . S
C417 H424 0.961 1_455 S
C417 H425 0.958 1_455 S
C418 C416 1.381 . S
C418 C419 1.394 . S
C418 H426 0.930 . S
C419 C418 1.394 . S
C419 C420 1.383 . S
C419 H427 0.929 . S
C420 C419 1.383 . S
C420 C421 1.377 . S
C421 H405 0.930 . S
C421 C420 1.377 . S
C421 C422 1.379 . S
C422 H406 0.931 . S
C422 C416 1.383 . S
C422 C421 1.379 . S
H423 C417 0.959 . S
H424 C417 0.961 1_655 S
H425 C417 0.958 1_655 S
H426 C418 0.930 . S
H427 C419 0.929 . S
H428 C436 0.929 . S
H429 C438 0.930 . S
H430 C440 0.930 . S
H431 C443 0.929 . S
H432 C446 0.930 . S
H433 C448 0.949 1_655 S
H434 C448 0.960 . S
H435 C448 0.960 . S
C436 H428 0.929 . S
C436 C437 1.377 . S
C436 C438 1.384 . S
C437 C436 1.377 . S
C437 C443 1.390 . S
C438 H429 0.930 . S
C438 C436 1.384 . S
C438 C439 1.372 . S
C439 C438 1.372 . S
C439 C440 1.400 . S
C439 C444 1.490 . S
C440 H430 0.930 . S
C440 C439 1.400 . S
C440 C443 1.386 . S
H441 C457 0.930 . S
H442 C458 0.931 . S
C443 H431 0.929 . S
C443 C437 1.390 . S
C443 C440 1.386 . S
C444 C439 1.490 . S
C444 C446 1.395 . S
C444 C447 1.403 . S
H445 C451 0.930 . S
C446 H432 0.930 . S
C446 C444 1.395 . S
C446 C449 1.403 1_455 S
C447 C444 1.403 . S
C447 C448 1.524 . S
C447 C451 1.400 1_455 S
C448 H433 0.949 1_455 S
C448 H434 0.960 . S
C448 H435 0.960 . S
C448 C447 1.524 . S
C449 C446 1.403 1_655 S
C449 C450 1.392 . S
C449 C453 1.495 . S
C450 C449 1.392 . S
C450 C451 1.385 . S
C450 C452 1.478 . S
C451 H445 0.930 . S
C451 C447 1.400 1_655 S
C451 C450 1.385 . S
C452 C450 1.478 . S
C452 C454 1.381 . S
C452 C458 1.383 . S
C453 C449 1.495 . S
C453 H459 0.959 1_655 S
C453 H460 0.961 . S
C453 H461 0.968 . S
C454 C452 1.381 . S
C454 C455 1.394 . S
C454 H462 0.930 . S
C455 C454 1.394 . S
C455 C456 1.383 . S
C455 H463 0.929 . S
C456 C455 1.383 . S
C456 C457 1.377 . S
C457 H441 0.930 . S
C457 C456 1.377 . S
C457 C458 1.379 . S
C458 H442 0.931 . S
C458 C452 1.383 . S
C458 C457 1.379 . S
H459 C453 0.959 1_455 S
H460 C453 0.961 . S
H461 C453 0.968 . S
H462 C454 0.930 . S
H463 C455 0.929 . S
H464 C472 0.929 . S
H465 C474 0.930 . S
H466 C476 0.930 . S
H467 C479 0.929 . S
H468 C482 0.930 . S
H469 C484 0.960 . S
H470 C484 0.960 . S
H471 C484 0.960 . S
C472 H464 0.929 . S
C472 C473 1.377 . S
C472 C474 1.384 . S
C473 C472 1.377 . S
C473 C479 1.390 . S
C474 H465 0.930 . S
C474 C472 1.384 . S
C474 C475 1.372 . S
C475 C474 1.372 . S
C475 C476 1.400 . S
C475 C480 1.490 . S
C476 H466 0.930 . S
C476 C475 1.400 . S
C476 C479 1.386 . S
H477 C493 0.930 . S
H478 C494 0.931 . S
C479 H467 0.929 . S
C479 C473 1.390 . S
C479 C476 1.386 . S
C480 C475 1.490 . S
C480 C482 1.395 . S
C480 C483 1.403 . S
H481 C487 0.930 . S
C482 H468 0.930 . S
C482 C480 1.395 . S
C482 C485 1.403 . S
C483 C480 1.403 . S
C483 C484 1.524 . S
C483 C487 1.400 . S
C484 H469 0.960 . S
C484 H470 0.960 . S
C484 H471 0.960 . S
C484 C483 1.524 . S
C485 C482 1.403 . S
C485 C486 1.392 . S
C485 C489 1.495 . S
C486 C485 1.392 . S
C486 C487 1.385 . S
C486 C488 1.478 . S
C487 H481 0.930 . S
C487 C483 1.400 . S
C487 C486 1.385 . S
C488 C486 1.478 . S
C488 C490 1.381 . S
C488 C494 1.383 . S
C489 C485 1.495 . S
C489 H495 0.959 . S
C489 H496 0.961 . S
C489 H497 0.960 . S
C490 C488 1.381 . S
C490 C491 1.394 . S
C490 H498 0.930 . S
C491 C490 1.394 . S
C491 C492 1.383 . S
C491 H499 0.929 . S
C492 C491 1.383 . S
C492 C493 1.377 . S
C493 H477 0.930 . S
C493 C492 1.377 . S
C493 C494 1.379 . S
C494 H478 0.931 . S
C494 C488 1.383 . S
C494 C493 1.379 . S
H495 C489 0.959 . S
H496 C489 0.961 . S
H497 C489 0.960 . S
H498 C490 0.930 . S
H499 C491 0.929 . S
H500 C508 0.929 . S
H501 C510 0.930 . S
H502 C512 0.930 . S
H503 C515 0.929 . S
H504 C518 0.930 . S
H505 C520 0.960 . S
H506 C520 0.960 . S
H507 C520 0.960 . S
C508 H500 0.929 . S
C508 C509 1.377 . S
C508 C510 1.384 . S
C509 C508 1.377 . S
C509 C515 1.390 . S
C510 H501 0.930 . S
C510 C508 1.384 . S
C510 C511 1.372 . S
C511 C510 1.372 . S
C511 C512 1.400 . S
C511 C516 1.490 . S
C512 H502 0.930 . S
C512 C511 1.400 . S
C512 C515 1.386 . S
H513 C529 0.930 . S
H514 C530 0.931 . S
C515 H503 0.929 . S
C515 C509 1.390 . S
C515 C512 1.386 . S
C516 C511 1.490 . S
C516 C518 1.395 . S
C516 C519 1.403 . S
H517 C523 0.930 . S
C518 H504 0.930 . S
C518 C516 1.395 . S
C518 C521 1.403 . S
C519 C516 1.403 . S
C519 C520 1.524 . S
C519 C523 1.400 . S
C520 H505 0.960 . S
C520 H506 0.960 . S
C520 H507 0.960 . S
C520 C519 1.524 . S
C521 C518 1.403 . S
C521 C522 1.392 . S
C521 C525 1.495 . S
C522 C521 1.392 . S
C522 C523 1.385 . S
C522 C524 1.478 . S
C523 H517 0.930 . S
C523 C519 1.400 . S
C523 C522 1.385 . S
C524 C522 1.478 . S
C524 C526 1.381 . S
C524 C530 1.383 . S
C525 C521 1.495 . S
C525 H531 0.959 . S
C525 H532 0.961 . S
C525 H533 0.960 . S
C526 C524 1.381 . S
C526 C527 1.394 . S
C526 H534 0.930 . S
C527 C526 1.394 . S
C527 C528 1.383 . S
C527 H535 0.929 . S
C528 C527 1.383 . S
C528 C529 1.377 . S
C529 H513 0.930 . S
C529 C528 1.377 . S
C529 C530 1.379 . S
C530 H514 0.931 . S
C530 C524 1.383 . S
C530 C529 1.379 . S
H531 C525 0.959 . S
H532 C525 0.961 . S
H533 C525 0.960 . S
H534 C526 0.930 . S
H535 C527 0.929 . S
H536 C544 0.929 . S
H537 C546 0.930 . S
H538 C548 0.930 . S
H539 C551 0.929 . S
H540 C554 0.930 . S
H541 C556 0.973 . S
H542 C556 0.960 . S
H543 C556 0.948 1_455 S
C544 H536 0.929 . S
C544 C545 1.377 . S
C544 C546 1.384 . S
C545 C544 1.377 . S
C545 C551 1.390 . S
C546 H537 0.930 . S
C546 C544 1.384 . S
C546 C547 1.372 . S
C547 C546 1.372 . S
C547 C548 1.400 . S
C547 C552 1.490 . S
C548 H538 0.930 . S
C548 C547 1.400 . S
C548 C551 1.386 . S
H549 C565 0.930 . S
H550 C566 0.931 . S
C551 H539 0.929 . S
C551 C545 1.390 . S
C551 C548 1.386 . S
C552 C547 1.490 . S
C552 C554 1.395 . S
C552 C555 1.403 . S
H553 C559 0.930 . S
C554 H540 0.930 . S
C554 C552 1.395 . S
C554 C557 1.398 1_455 S
C555 C552 1.403 . S
C555 C556 1.523 1_455 S
C555 C559 1.400 1_455 S
C556 H541 0.973 . S
C556 H542 0.960 . S
C556 H543 0.948 1_655 S
C556 C555 1.523 1_655 S
C557 C554 1.398 1_655 S
C557 C558 1.397 . S
C557 C561 1.495 1_655 S
C558 C557 1.397 . S
C558 C559 1.385 . S
C558 C560 1.478 . S
C559 H553 0.930 . S
C559 C555 1.400 1_655 S
C559 C558 1.385 . S
C560 C558 1.478 . S
C560 C562 1.381 . S
C560 C566 1.383 . S
C561 C557 1.495 1_455 S
C561 H567 0.965 . S
C561 H568 0.961 1_455 S
C561 H569 0.954 1_455 S
C562 C560 1.381 . S
C562 C563 1.394 . S
C562 H570 0.930 . S
C563 C562 1.394 . S
C563 C564 1.383 . S
C563 H571 0.929 . S
C564 C563 1.383 . S
C564 C565 1.377 . S
C565 H549 0.930 . S
C565 C564 1.377 . S
C565 C566 1.379 . S
C566 H550 0.931 . S
C566 C560 1.383 . S
C566 C565 1.379 . S
H567 C561 0.965 . S
H568 C561 0.961 1_655 S
H569 C561 0.954 1_655 S
H570 C562 0.930 . S
H571 C563 0.929 . S
H572 C580 0.929 . S
H573 C582 0.930 . S
H574 C584 0.930 . S
H575 C587 0.929 . S
H576 C590 0.930 . S
H577 C592 0.960 . S
H578 C592 0.960 . S
H579 C592 0.960 . S
C580 H572 0.929 . S
C580 C581 1.377 . S
C580 C582 1.384 . S
C581 C580 1.377 . S
C581 C587 1.390 . S
C582 H573 0.930 . S
C582 C580 1.384 . S
C582 C583 1.372 . S
C583 C582 1.372 . S
C583 C584 1.400 . S
C583 C588 1.490 . S
C584 H574 0.930 . S
C584 C583 1.400 . S
C584 C587 1.386 . S
H585 C601 0.930 . S
H586 C602 0.931 . S
C587 H575 0.929 . S
C587 C581 1.390 . S
C587 C584 1.386 . S
C588 C583 1.490 . S
C588 C590 1.395 . S
C588 C591 1.403 1_455 S
H589 C595 0.930 . S
C590 H576 0.930 . S
C590 C588 1.395 . S
C590 C593 1.403 . S
C591 C588 1.403 1_655 S
C591 C592 1.524 . S
C591 C595 1.400 . S
C592 H577 0.960 . S
C592 H578 0.960 . S
C592 H579 0.960 . S
C592 C591 1.524 . S
C593 C590 1.403 . S
C593 C594 1.392 1_455 S
C593 C597 1.495 . S
C594 C593 1.392 1_655 S
C594 C595 1.385 . S
C594 C596 1.478 . S
C595 H589 0.930 . S
C595 C591 1.400 . S
C595 C594 1.385 . S
C596 C594 1.478 . S
C596 C598 1.381 . S
C596 C602 1.383 . S
C597 C593 1.495 . S
C597 H603 0.959 . S
C597 H604 0.961 . S
C597 H605 0.960 . S
C598 C596 1.381 . S
C598 C599 1.394 . S
C598 H606 0.930 . S
C599 C598 1.394 . S
C599 C600 1.383 . S
C599 H607 0.929 . S
C600 C599 1.383 . S
C600 C601 1.377 . S
C601 H585 0.930 . S
C601 C600 1.377 . S
C601 C602 1.379 . S
C602 H586 0.931 . S
C602 C596 1.383 . S
C602 C601 1.379 . S
H603 C597 0.959 . S
H604 C597 0.961 . S
H605 C597 0.960 . S
H606 C598 0.930 . S
H607 C599 0.929 . S
H608 C616 0.929 . S
H609 C618 0.930 . S
H610 C620 0.930 . S
H611 C623 0.929 . S
H612 C626 0.929 . S
H613 C628 0.960 . S
H614 C628 0.960 . S
H615 C628 0.960 . S
C616 H608 0.929 . S
C616 C617 1.377 . S
C616 C618 1.384 . S
C617 C616 1.377 . S
C617 C623 1.390 . S
C618 H609 0.930 . S
C618 C616 1.384 . S
C618 C619 1.372 . S
C619 C618 1.372 . S
C619 C620 1.400 . S
C619 C624 1.490 . S
C620 H610 0.930 . S
C620 C619 1.400 . S
C620 C623 1.386 . S
H621 C637 0.930 . S
H622 C638 0.931 . S
C623 H611 0.929 . S
C623 C617 1.390 . S
C623 C620 1.386 . S
C624 C619 1.490 . S
C624 C626 1.375 1_554 S
C624 C627 1.403 1_545 S
H625 C631 0.930 . S
C626 H612 0.929 . S
C626 C624 1.375 1_556 S
C626 C629 1.425 . S
C627 C624 1.403 1_565 S
C627 C628 1.524 . S
C627 C631 1.400 1_554 S
C628 H613 0.960 . S
C628 H614 0.960 . S
C628 H615 0.960 . S
C628 C627 1.524 . S
C629 C626 1.425 . S
C629 C630 1.392 1_545 S
C629 C633 1.495 . S
C630 C629 1.392 1_565 S
C630 C631 1.385 . S
C630 C632 1.478 . S
C631 H625 0.930 . S
C631 C627 1.400 1_556 S
C631 C630 1.385 . S
C632 C630 1.478 . S
C632 C634 1.381 . S
C632 C638 1.383 . S
C633 C629 1.495 . S
C633 H639 0.959 . S
C633 H640 0.961 . S
C633 H641 0.960 . S
C634 C632 1.381 . S
C634 C635 1.394 . S
C634 H642 0.930 . S
C635 C634 1.394 . S
C635 C636 1.383 . S
C635 H643 0.929 . S
C636 C635 1.383 . S
C636 C637 1.377 . S
C637 H621 0.930 . S
C637 C636 1.377 . S
C637 C638 1.379 . S
C638 H622 0.931 . S
C638 C632 1.383 . S
C638 C637 1.379 . S
H639 C633 0.959 . S
H640 C633 0.961 . S
H641 C633 0.960 . S
H642 C634 0.930 . S
H643 C635 0.929 . S
H644 C652 0.929 . S
H645 C654 0.930 . S
H646 C656 0.930 . S
H647 C659 0.929 . S
H648 C662 0.930 . S
H649 C664 0.960 . S
H650 C664 0.960 . S
H651 C664 0.960 . S
C652 H644 0.929 . S
C652 C653 1.377 . S
C652 C654 1.384 . S
C653 C652 1.377 . S
C653 C659 1.390 . S
C654 H645 0.930 . S
C654 C652 1.384 . S
C654 C655 1.372 . S
C655 C654 1.372 . S
C655 C656 1.400 . S
C655 C660 1.490 . S
C656 H646 0.930 . S
C656 C655 1.400 . S
C656 C659 1.386 . S
H657 C673 0.930 . S
H658 C674 0.931 . S
C659 H647 0.929 . S
C659 C653 1.390 . S
C659 C656 1.386 . S
C660 C655 1.490 . S
C660 C662 1.395 . S
C660 C663 1.403 . S
H661 C667 0.930 . S
C662 H648 0.930 . S
C662 C660 1.395 . S
C662 C665 1.403 . S
C663 C660 1.403 . S
C663 C664 1.524 . S
C663 C667 1.400 . S
C664 H649 0.960 . S
C664 H650 0.960 . S
C664 H651 0.960 . S
C664 C663 1.524 . S
C665 C662 1.403 . S
C665 C666 1.392 . S
C665 C669 1.495 . S
C666 C665 1.392 . S
C666 C667 1.385 . S
C666 C668 1.478 . S
C667 H661 0.930 . S
C667 C663 1.400 . S
C667 C666 1.385 . S
C668 C666 1.478 . S
C668 C670 1.381 . S
C668 C674 1.383 . S
C669 C665 1.495 . S
C669 H675 0.959 . S
C669 H676 0.961 . S
C669 H677 0.960 . S
C670 C668 1.381 . S
C670 C671 1.394 . S
C670 H678 0.930 . S
C671 C670 1.394 . S
C671 C672 1.383 . S
C671 H679 0.929 . S
C672 C671 1.383 . S
C672 C673 1.377 . S
C673 H657 0.930 . S
C673 C672 1.377 . S
C673 C674 1.379 . S
C674 H658 0.931 . S
C674 C668 1.383 . S
C674 C673 1.379 . S
H675 C669 0.959 . S
H676 C669 0.961 . S
H677 C669 0.960 . S
H678 C670 0.930 . S
H679 C671 0.929 . S
H680 C688 0.929 1_545 S
H681 C690 0.930 . S
H682 C692 0.930 . S
H683 C695 0.929 . S
H684 C698 0.930 . S
H685 C700 0.960 . S
H686 C700 0.960 . S
H687 C700 0.960 . S
C688 H680 0.929 1_565 S
C688 C689 1.377 . S
C688 C690 1.384 1_565 S
C689 C688 1.377 . S
C689 C695 1.390 . S
C690 H681 0.930 . S
C690 C688 1.384 1_545 S
C690 C691 1.372 1_545 S
C691 C690 1.372 1_565 S
C691 C692 1.400 . S
C691 C696 1.490 . S
C692 H682 0.930 . S
C692 C691 1.400 . S
C692 C695 1.386 . S
H693 C709 0.930 1_565 S
H694 C710 0.931 1_565 S
C695 H683 0.929 . S
C695 C689 1.390 . S
C695 C692 1.386 . S
C696 C691 1.490 . S
C696 C698 1.395 1_565 S
C696 C699 1.403 1_455 S
H697 C703 0.930 . S
C698 H684 0.930 . S
C698 C696 1.395 1_545 S
C698 C701 1.403 . S
C699 C696 1.403 1_655 S
C699 C700 1.524 . S
C699 C703 1.400 . S
C700 H685 0.960 . S
C700 H686 0.960 . S
C700 H687 0.960 . S
C700 C699 1.524 . S
C701 C698 1.403 . S
C701 C702 1.392 1_455 S
C701 C705 1.495 . S
C702 C701 1.392 1_655 S
C702 C703 1.385 1_545 S
C702 C704 1.478 . S
C703 H697 0.930 . S
C703 C699 1.400 . S
C703 C702 1.385 1_565 S
C704 C702 1.478 . S
C704 C706 1.381 . S
C704 C710 1.383 . S
C705 C701 1.495 . S
C705 H711 0.959 . S
C705 H712 0.961 . S
C705 H713 0.960 . S
C706 C704 1.381 . S
C706 C707 1.394 . S
C706 H714 0.930 . S
C707 C706 1.394 . S
C707 C708 1.383 . S
C707 H715 0.929 . S
C708 C707 1.383 . S
C708 C709 1.377 . S
C709 H693 0.930 1_545 S
C709 C708 1.377 . S
C709 C710 1.379 . S
C710 H694 0.931 1_545 S
C710 C704 1.383 . S
C710 C709 1.379 . S
H711 C705 0.959 . S
H712 C705 0.961 . S
H713 C705 0.960 . S
H714 C706 0.930 . S
H715 C707 0.929 . S
H716 C724 0.929 . S
H717 C726 0.930 . S
H718 C728 0.930 . S
H719 C731 0.929 . S
H720 C734 0.930 . S
H721 C736 0.960 . S
H722 C736 0.960 . S
H723 C736 0.960 . S
C724 H716 0.929 . S
C724 C725 1.377 . S
C724 C726 1.384 . S
C725 C724 1.377 . S
C725 C731 1.390 . S
C726 H717 0.930 . S
C726 C724 1.384 . S
C726 C727 1.372 . S
C727 C726 1.372 . S
C727 C728 1.400 . S
C727 C732 1.490 . S
C728 H718 0.930 . S
C728 C727 1.400 . S
C728 C731 1.386 . S
H729 C745 0.930 . S
H730 C746 0.931 . S
C731 H719 0.929 . S
C731 C725 1.390 . S
C731 C728 1.386 . S
C732 C727 1.490 . S
C732 C734 1.395 . S
C732 C735 1.403 . S
H733 C739 0.930 . S
C734 H720 0.930 . S
C734 C732 1.395 . S
C734 C737 1.403 . S
C735 C732 1.403 . S
C735 C736 1.524 . S
C735 C739 1.400 . S
C736 H721 0.960 . S
C736 H722 0.960 . S
C736 H723 0.960 . S
C736 C735 1.524 . S
C737 C734 1.403 . S
C737 C738 1.392 . S
C737 C741 1.495 . S
C738 C737 1.392 . S
C738 C739 1.385 . S
C738 C740 1.478 . S
C739 H733 0.930 . S
C739 C735 1.400 . S
C739 C738 1.385 . S
C740 C738 1.478 . S
C740 C742 1.381 . S
C740 C746 1.383 . S
C741 C737 1.495 . S
C741 H747 0.959 . S
C741 H748 0.961 . S
C741 H749 0.960 . S
C742 C740 1.381 . S
C742 C743 1.394 . S
C742 H750 0.930 . S
C743 C742 1.394 . S
C743 C744 1.383 . S
C743 H751 0.929 . S
C744 C743 1.383 . S
C744 C745 1.377 . S
C745 H729 0.930 . S
C745 C744 1.377 . S
C745 C746 1.379 . S
C746 H730 0.931 . S
C746 C740 1.383 . S
C746 C745 1.379 . S
H747 C741 0.959 . S
H748 C741 0.961 . S
H749 C741 0.960 . S
H750 C742 0.930 . S
H751 C743 0.929 . S
H752 C760 0.929 . S
H753 C762 0.930 . S
H754 C764 0.930 . S
H755 C767 0.929 . S
H756 C770 0.930 . S
H757 C772 0.960 . S
H758 C772 0.960 . S
H759 C772 0.960 . S
C760 H752 0.929 . S
C760 C761 1.377 . S
C760 C762 1.384 . S
C761 C760 1.377 . S
C761 C767 1.390 . S
C762 H753 0.930 . S
C762 C760 1.384 . S
C762 C763 1.372 . S
C763 C762 1.372 . S
C763 C764 1.400 . S
C763 C768 1.490 . S
C764 H754 0.930 . S
C764 C763 1.400 . S
C764 C767 1.386 . S
H765 C781 0.930 . S
H766 C782 0.931 . S
C767 H755 0.929 . S
C767 C761 1.390 . S
C767 C764 1.386 . S
C768 C763 1.490 . S
C768 C770 1.395 . S
C768 C771 1.403 . S
H769 C775 0.930 . S
C770 H756 0.930 . S
C770 C768 1.395 . S
C770 C773 1.403 . S
C771 C768 1.403 . S
C771 C772 1.524 . S
C771 C775 1.400 . S
C772 H757 0.960 . S
C772 H758 0.960 . S
C772 H759 0.960 . S
C772 C771 1.524 . S
C773 C770 1.403 . S
C773 C774 1.392 . S
C773 C777 1.495 . S
C774 C773 1.392 . S
C774 C775 1.385 . S
C774 C776 1.478 . S
C775 H769 0.930 . S
C775 C771 1.400 . S
C775 C774 1.385 . S
C776 C774 1.478 . S
C776 C778 1.381 . S
C776 C782 1.383 . S
C777 C773 1.495 . S
C777 H783 0.959 . S
C777 H784 0.961 . S
C777 H785 0.960 . S
C778 C776 1.381 . S
C778 C779 1.394 . S
C778 H786 0.930 . S
C779 C778 1.394 . S
C779 C780 1.383 . S
C779 H787 0.929 . S
C780 C779 1.383 . S
C780 C781 1.377 . S
C781 H765 0.930 . S
C781 C780 1.377 . S
C781 C782 1.379 . S
C782 H766 0.931 . S
C782 C776 1.383 . S
C782 C781 1.379 . S
H783 C777 0.959 . S
H784 C777 0.961 . S
H785 C777 0.960 . S
H786 C778 0.930 . S
H787 C779 0.929 . S
H788 C796 0.929 . S
H789 C798 0.930 . S
H790 C800 0.930 . S
H791 C803 0.929 . S
H792 C806 0.930 . S
H793 C808 0.960 . S
H794 C808 0.960 . S
H795 C808 0.960 . S
C796 H788 0.929 . S
C796 C797 1.377 . S
C796 C798 1.384 . S
C797 C796 1.377 . S
C797 C803 1.390 . S
C798 H789 0.930 . S
C798 C796 1.384 . S
C798 C799 1.372 . S
C799 C798 1.372 . S
C799 C800 1.400 . S
C799 C804 1.490 . S
C800 H790 0.930 . S
C800 C799 1.400 . S
C800 C803 1.386 . S
H801 C817 0.930 . S
H802 C818 0.931 . S
C803 H791 0.929 . S
C803 C797 1.390 . S
C803 C800 1.386 . S
C804 C799 1.490 . S
C804 C806 1.395 . S
C804 C807 1.403 . S
H805 C811 0.930 . S
C806 H792 0.930 . S
C806 C804 1.395 . S
C806 C809 1.403 . S
C807 C804 1.403 . S
C807 C808 1.524 . S
C807 C811 1.400 . S
C808 H793 0.960 . S
C808 H794 0.960 . S
C808 H795 0.960 . S
C808 C807 1.524 . S
C809 C806 1.403 . S
C809 C810 1.392 . S
C809 C813 1.495 . S
C810 C809 1.392 . S
C810 C811 1.385 . S
C810 C812 1.478 . S
C811 H805 0.930 . S
C811 C807 1.400 . S
C811 C810 1.385 . S
C812 C810 1.478 . S
C812 C814 1.381 . S
C812 C818 1.383 . S
C813 C809 1.495 . S
C813 H819 0.959 . S
C813 H820 0.961 . S
C813 H821 0.960 . S
C814 C812 1.381 . S
C814 C815 1.394 . S
C814 H822 0.930 . S
C815 C814 1.394 . S
C815 C816 1.383 . S
C815 H823 0.929 . S
C816 C815 1.383 . S
C816 C817 1.377 . S
C817 H801 0.930 . S
C817 C816 1.377 . S
C817 C818 1.379 . S
C818 H802 0.931 . S
C818 C812 1.383 . S
C818 C817 1.379 . S
H819 C813 0.959 . S
H820 C813 0.961 . S
H821 C813 0.960 . S
H822 C814 0.930 . S
H823 C815 0.929 . S
H824 C832 0.929 . S
H825 C834 0.930 . S
H826 C836 0.930 . S
H827 C839 0.929 . S
H828 C842 0.930 . S
H829 C844 0.960 . S
H830 C844 0.960 . S
H831 C844 0.960 . S
C832 H824 0.929 . S
C832 C833 1.377 . S
C832 C834 1.384 . S
C833 C832 1.377 . S
C833 C839 1.390 . S
C834 H825 0.930 . S
C834 C832 1.384 . S
C834 C835 1.372 . S
C835 C834 1.372 . S
C835 C836 1.400 . S
C835 C840 1.490 . S
C836 H826 0.930 . S
C836 C835 1.400 . S
C836 C839 1.386 . S
H837 C853 0.930 . S
H838 C854 0.931 . S
C839 H827 0.929 . S
C839 C833 1.390 . S
C839 C836 1.386 . S
C840 C835 1.490 . S
C840 C842 1.395 1_455 S
C840 C843 1.403 . S
H841 C847 0.930 . S
C842 H828 0.930 . S
C842 C840 1.395 1_655 S
C842 C845 1.403 . S
C843 C840 1.403 . S
C843 C844 1.524 . S
C843 C847 1.400 1_455 S
C844 H829 0.960 . S
C844 H830 0.960 . S
C844 H831 0.960 . S
C844 C843 1.524 . S
C845 C842 1.403 . S
C845 C846 1.392 . S
C845 C849 1.495 . S
C846 C845 1.392 . S
C846 C847 1.385 . S
C846 C848 1.478 . S
C847 H841 0.930 . S
C847 C843 1.400 1_655 S
C847 C846 1.385 . S
C848 C846 1.478 . S
C848 C850 1.381 . S
C848 C854 1.383 . S
C849 C845 1.495 . S
C849 H855 0.959 . S
C849 H856 0.961 . S
C849 H857 0.960 . S
C850 C848 1.381 . S
C850 C851 1.394 . S
C850 H858 0.930 . S
C851 C850 1.394 . S
C851 C852 1.383 . S
C851 H859 0.929 . S
C852 C851 1.383 . S
C852 C853 1.377 . S
C853 H837 0.930 . S
C853 C852 1.377 . S
C853 C854 1.379 . S
C854 H838 0.931 . S
C854 C848 1.383 . S
C854 C853 1.379 . S
H855 C849 0.959 . S
H856 C849 0.961 . S
H857 C849 0.960 . S
H858 C850 0.930 . S
H859 C851 0.929 . S
H860 C868 0.929 . S
H861 C870 0.930 . S
H862 C872 0.930 . S
H863 C875 0.929 . S
H864 C878 0.930 . S
H865 C880 0.960 . S
H866 C880 0.960 . S
H867 C880 0.960 . S
C868 H860 0.929 . S
C868 C869 1.377 . S
C868 C870 1.384 . S
C869 C868 1.377 . S
C869 C875 1.390 . S
C870 H861 0.930 . S
C870 C868 1.384 . S
C870 C871 1.372 . S
C871 C870 1.372 . S
C871 C872 1.400 . S
C871 C876 1.490 . S
C872 H862 0.930 . S
C872 C871 1.400 . S
C872 C875 1.386 . S
H873 C889 0.930 . S
H874 C890 0.931 . S
C875 H863 0.929 . S
C875 C869 1.390 . S
C875 C872 1.386 . S
C876 C871 1.490 . S
C876 C878 1.363 1_554 S
C876 C879 1.403 . S
H877 C883 0.930 . S
C878 H864 0.930 . S
C878 C876 1.363 1_556 S
C878 C881 1.436 . S
C879 C876 1.403 . S
C879 C880 1.524 . S
C879 C883 1.395 1_554 S
C880 H865 0.960 . S
C880 H866 0.960 . S
C880 H867 0.960 . S
C880 C879 1.524 . S
C881 C878 1.436 . S
C881 C882 1.392 . S
C881 C885 1.495 . S
C882 C881 1.392 . S
C882 C883 1.390 . S
C882 C884 1.478 . S
C883 H877 0.930 . S
C883 C879 1.395 1_556 S
C883 C882 1.390 . S
C884 C882 1.478 . S
C884 C886 1.381 . S
C884 C890 1.383 . S
C885 C881 1.495 . S
C885 H891 0.959 . S
C885 H892 0.961 . S
C885 H893 0.960 . S
C886 C884 1.381 . S
C886 C887 1.394 . S
C886 H894 0.930 . S
C887 C886 1.394 . S
C887 C888 1.383 . S
C887 H895 0.929 . S
C888 C887 1.383 . S
C888 C889 1.377 . S
C889 H873 0.930 . S
C889 C888 1.377 . S
C889 C890 1.379 . S
C890 H874 0.931 . S
C890 C884 1.383 . S
C890 C889 1.379 . S
H891 C885 0.959 . S
H892 C885 0.961 . S
H893 C885 0.960 . S
H894 C886 0.930 . S
H895 C887 0.929 . S
H896 C904 0.929 . S
H897 C906 0.930 . S
H898 C908 0.930 . S
H899 C911 0.929 . S
H900 C914 0.930 . S
H901 C916 0.960 . S
H902 C916 0.960 . S
H903 C916 0.960 . S
C904 H896 0.929 . S
C904 C905 1.377 . S
C904 C906 1.384 . S
C905 C904 1.377 . S
C905 C911 1.390 . S
C906 H897 0.930 . S
C906 C904 1.384 . S
C906 C907 1.372 . S
C907 C906 1.372 . S
C907 C908 1.400 . S
C907 C912 1.490 . S
C908 H898 0.930 . S
C908 C907 1.400 . S
C908 C911 1.386 . S
H909 C925 0.930 . S
H910 C926 0.931 . S
C911 H899 0.929 . S
C911 C905 1.390 . S
C911 C908 1.386 . S
C912 C907 1.490 . S
C912 C914 1.395 . S
C912 C915 1.403 . S
H913 C919 0.930 . S
C914 H900 0.930 . S
C914 C912 1.395 . S
C914 C917 1.403 . S
C915 C912 1.403 . S
C915 C916 1.524 . S
C915 C919 1.400 . S
C916 H901 0.960 . S
C916 H902 0.960 . S
C916 H903 0.960 . S
C916 C915 1.524 . S
C917 C914 1.403 . S
C917 C918 1.392 . S
C917 C921 1.495 . S
C918 C917 1.392 . S
C918 C919 1.385 . S
C918 C920 1.478 . S
C919 H913 0.930 . S
C919 C915 1.400 . S
C919 C918 1.385 . S
C920 C918 1.478 . S
C920 C922 1.381 . S
C920 C926 1.383 . S
C921 C917 1.495 . S
C921 H927 0.959 . S
C921 H928 0.961 . S
C921 H929 0.960 . S
C922 C920 1.381 . S
C922 C923 1.394 . S
C922 H930 0.930 . S
C923 C922 1.394 . S
C923 C924 1.383 . S
C923 H931 0.929 . S
C924 C923 1.383 . S
C924 C925 1.377 . S
C925 H909 0.930 . S
C925 C924 1.377 . S
C925 C926 1.379 . S
C926 H910 0.931 . S
C926 C920 1.383 . S
C926 C925 1.379 . S
H927 C921 0.959 . S
H928 C921 0.961 . S
H929 C921 0.960 . S
H930 C922 0.930 . S
H931 C923 0.929 . S
H932 C940 0.929 . S
H933 C942 0.930 . S
H934 C944 0.930 . S
H935 C947 0.929 . S
H936 C950 0.930 . S
H937 C952 0.960 . S
H938 C952 0.960 . S
H939 C952 0.960 . S
C940 H932 0.929 . S
C940 C941 1.377 . S
C940 C942 1.384 . S
C941 C940 1.377 . S
C941 C947 1.390 . S
C942 H933 0.930 . S
C942 C940 1.384 . S
C942 C943 1.372 . S
C943 C942 1.372 . S
C943 C944 1.400 . S
C943 C948 1.490 . S
C944 H934 0.930 . S
C944 C943 1.400 . S
C944 C947 1.386 . S
H945 C961 0.930 . S
H946 C962 0.931 . S
C947 H935 0.929 . S
C947 C941 1.390 . S
C947 C944 1.386 . S
C948 C943 1.490 . S
C948 C950 1.395 . S
C948 C951 1.403 . S
H949 C955 0.930 . S
C950 H936 0.930 . S
C950 C948 1.395 . S
C950 C953 1.403 . S
C951 C948 1.403 . S
C951 C952 1.524 . S
C951 C955 1.400 . S
C952 H937 0.960 . S
C952 H938 0.960 . S
C952 H939 0.960 . S
C952 C951 1.524 . S
C953 C950 1.403 . S
C953 C954 1.392 . S
C953 C957 1.495 . S
C954 C953 1.392 . S
C954 C955 1.385 . S
C954 C956 1.478 . S
C955 H949 0.930 . S
C955 C951 1.400 . S
C955 C954 1.385 . S
C956 C954 1.478 . S
C956 C958 1.381 . S
C956 C962 1.383 . S
C957 C953 1.495 . S
C957 H963 0.959 . S
C957 H964 0.961 . S
C957 H965 0.960 . S
C958 C956 1.381 . S
C958 C959 1.394 . S
C958 H966 0.930 . S
C959 C958 1.394 . S
C959 C960 1.383 . S
C959 H967 0.929 . S
C960 C959 1.383 . S
C960 C961 1.377 . S
C961 H945 0.930 . S
C961 C960 1.377 . S
C961 C962 1.379 . S
C962 H946 0.931 . S
C962 C956 1.383 . S
C962 C961 1.379 . S
H963 C957 0.959 . S
H964 C957 0.961 . S
H965 C957 0.960 . S
H966 C958 0.930 . S
H967 C959 0.929 . S
H968 C976 0.929 . S
H969 C978 0.930 . S
H970 C980 0.930 . S
H971 C983 0.929 . S
H972 C986 0.930 . S
H973 C988 0.960 . S
H974 C988 0.960 . S
H975 C988 0.960 . S
C976 H968 0.929 . S
C976 C977 1.377 . S
C976 C978 1.384 . S
C977 C976 1.377 . S
C977 C983 1.390 . S
C978 H969 0.930 . S
C978 C976 1.384 . S
C978 C979 1.372 . S
C979 C978 1.372 . S
C979 C980 1.400 . S
C979 C984 1.490 . S
C980 H970 0.930 . S
C980 C979 1.400 . S
C980 C983 1.386 . S
H981 C997 0.930 . S
H982 C998 0.931 . S
C983 H971 0.929 . S
C983 C977 1.390 . S
C983 C980 1.386 . S
C984 C979 1.490 . S
C984 C986 1.395 . S
C984 C987 1.403 . S
H985 C991 0.930 . S
C986 H972 0.930 . S
C986 C984 1.395 . S
C986 C989 1.403 . S
C987 C984 1.403 . S
C987 C988 1.524 . S
C987 C991 1.400 . S
C988 H973 0.960 . S
C988 H974 0.960 . S
C988 H975 0.960 . S
C988 C987 1.524 . S
C989 C986 1.403 . S
C989 C990 1.392 . S
C989 C993 1.495 . S
C990 C989 1.392 . S
C990 C991 1.385 . S
C990 C992 1.478 . S
C991 H985 0.930 . S
C991 C987 1.400 . S
C991 C990 1.385 . S
C992 C990 1.478 . S
C992 C994 1.381 . S
C992 C998 1.383 . S
C993 C989 1.495 . S
C993 H999 0.959 . S
C993 H1000 0.961 . S
C993 H1001 0.960 . S
C994 C992 1.381 . S
C994 C995 1.394 . S
C994 H1002 0.930 . S
C995 C994 1.394 . S
C995 C996 1.383 . S
C995 H1003 0.929 . S
C996 C995 1.383 . S
C996 C997 1.377 . S
C997 H981 0.930 . S
C997 C996 1.377 . S
C997 C998 1.379 . S
C998 H982 0.931 . S
C998 C992 1.383 . S
C998 C997 1.379 . S
H999 C993 0.959 . S
H1000 C993 0.961 . S
H1001 C993 0.960 . S
H1002 C994 0.930 . S
H1003 C995 0.929 . S
H1004 C1012 0.929 . S
H1005 C1014 0.930 . S
H1006 C1016 0.943 . S
H1007 C1019 0.929 . S
H1008 C1022 0.930 . S
H1009 C1024 0.960 . S
H1010 C1024 0.960 . S
H1011 C1024 0.960 . S
C1012 H1004 0.929 . S
C1012 C1013 1.377 . S
C1012 C1014 1.384 . S
C1013 C1012 1.377 . S
C1013 C1019 1.390 . S
C1014 H1005 0.930 . S
C1014 C1012 1.384 . S
C1014 C1015 1.372 1_655 S
C1015 C1014 1.372 1_455 S
C1015 C1016 1.400 1_455 S
C1015 C1020 1.490 . S
C1016 H1006 0.943 . S
C1016 C1015 1.400 1_655 S
C1016 C1019 1.386 . S
H1017 C1033 0.930 . S
H1018 C1034 0.931 . S
C1019 H1007 0.929 . S
C1019 C1013 1.390 . S
C1019 C1016 1.386 . S
C1020 C1015 1.490 . S
C1020 C1022 1.395 . S
C1020 C1023 1.403 . S
H1021 C1027 0.930 . S
C1022 H1008 0.930 . S
C1022 C1020 1.395 . S
C1022 C1025 1.403 . S
C1023 C1020 1.403 . S
C1023 C1024 1.524 . S
C1023 C1027 1.400 . S
C1024 H1009 0.960 . S
C1024 H1010 0.960 . S
C1024 H1011 0.960 . S
C1024 C1023 1.524 . S
C1025 C1022 1.403 . S
C1025 C1026 1.392 . S
C1025 C1029 1.495 . S
C1026 C1025 1.392 . S
C1026 C1027 1.385 . S
C1026 C1028 1.478 . S
C1027 H1021 0.930 . S
C1027 C1023 1.400 . S
C1027 C1026 1.385 . S
C1028 C1026 1.478 . S
C1028 C1030 1.381 . S
C1028 C1034 1.383 . S
C1029 C1025 1.495 . S
C1029 H1035 0.959 . S
C1029 H1036 0.961 . S
C1029 H1037 0.960 . S
C1030 C1028 1.381 . S
C1030 C1031 1.394 . S
C1030 H1038 0.930 . S
C1031 C1030 1.394 . S
C1031 C1032 1.383 . S
C1031 H1039 0.929 . S
C1032 C1031 1.383 . S
C1032 C1033 1.377 . S
C1033 H1017 0.930 . S
C1033 C1032 1.377 . S
C1033 C1034 1.379 . S
C1034 H1018 0.931 . S
C1034 C1028 1.383 . S
C1034 C1033 1.379 . S
H1035 C1029 0.959 . S
H1036 C1029 0.961 . S
H1037 C1029 0.960 . S
H1038 C1030 0.930 . S
H1039 C1031 0.929 . S
H1040 C1048 0.929 . S
H1041 C1050 0.930 . S
H1042 C1052 0.930 . S
H1043 C1055 0.929 . S
H1044 C1058 0.930 . S
H1045 C1060 0.960 . S
H1046 C1060 0.960 . S
H1047 C1060 0.960 . S
C1048 H1040 0.929 . S
C1048 C1049 1.377 . S
C1048 C1050 1.384 . S
C1049 C1048 1.377 . S
C1049 C1055 1.390 . S
C1050 H1041 0.930 . S
C1050 C1048 1.384 . S
C1050 C1051 1.372 . S
C1051 C1050 1.372 . S
C1051 C1052 1.400 . S
C1051 C1056 1.490 . S
C1052 H1042 0.930 . S
C1052 C1051 1.400 . S
C1052 C1055 1.386 . S
H1053 C1069 0.930 . S
H1054 C1070 0.931 . S
C1055 H1043 0.929 . S
C1055 C1049 1.390 . S
C1055 C1052 1.386 . S
C1056 C1051 1.490 . S
C1056 C1058 1.395 . S
C1056 C1059 1.403 . S
H1057 C1063 0.930 . S
C1058 H1044 0.930 . S
C1058 C1056 1.395 . S
C1058 C1061 1.403 . S
C1059 C1056 1.403 . S
C1059 C1060 1.524 . S
C1059 C1063 1.400 . S
C1060 H1045 0.960 . S
C1060 H1046 0.960 . S
C1060 H1047 0.960 . S
C1060 C1059 1.524 . S
C1061 C1058 1.403 . S
C1061 C1062 1.392 . S
C1061 C1065 1.495 . S
C1062 C1061 1.392 . S
C1062 C1063 1.385 . S
C1062 C1064 1.478 . S
C1063 H1057 0.930 . S
C1063 C1059 1.400 . S
C1063 C1062 1.385 . S
C1064 C1062 1.478 . S
C1064 C1066 1.381 . S
C1064 C1070 1.383 . S
C1065 C1061 1.495 . S
C1065 H1071 0.959 . S
C1065 H1072 0.961 . S
C1065 H1073 0.960 . S
C1066 C1064 1.381 . S
C1066 C1067 1.394 . S
C1066 H1074 0.930 . S
C1067 C1066 1.394 . S
C1067 C1068 1.383 . S
C1067 H1075 0.929 . S
C1068 C1067 1.383 . S
C1068 C1069 1.377 . S
C1069 H1053 0.930 . S
C1069 C1068 1.377 . S
C1069 C1070 1.379 . S
C1070 H1054 0.931 . S
C1070 C1064 1.383 . S
C1070 C1069 1.379 . S
H1071 C1065 0.959 . S
H1072 C1065 0.961 . S
H1073 C1065 0.960 . S
H1074 C1066 0.930 . S
H1075 C1067 0.929 . S
H1076 C1084 0.929 . S
H1077 C1086 0.930 . S
H1078 C1088 0.930 . S
H1079 C1091 0.929 . S
H1080 C1094 0.930 . S
H1081 C1096 0.960 . S
H1082 C1096 0.960 . S
H1083 C1096 0.960 . S
C1084 H1076 0.929 . S
C1084 C1085 1.377 . S
C1084 C1086 1.384 . S
C1085 C1084 1.377 . S
C1085 C1091 1.390 . S
C1086 H1077 0.930 . S
C1086 C1084 1.384 . S
C1086 C1087 1.372 . S
C1087 C1086 1.372 . S
C1087 C1088 1.400 . S
C1087 C1092 1.490 . S
C1088 H1078 0.930 . S
C1088 C1087 1.400 . S
C1088 C1091 1.386 . S
H1089 C1105 0.930 . S
H1090 C1106 0.931 . S
C1091 H1079 0.929 . S
C1091 C1085 1.390 . S
C1091 C1088 1.386 . S
C1092 C1087 1.490 . S
C1092 C1094 1.395 . S
C1092 C1095 1.403 . S
H1093 C1099 0.930 . S
C1094 H1080 0.930 . S
C1094 C1092 1.395 . S
C1094 C1097 1.403 . S
C1095 C1092 1.403 . S
C1095 C1096 1.524 . S
C1095 C1099 1.400 . S
C1096 H1081 0.960 . S
C1096 H1082 0.960 . S
C1096 H1083 0.960 . S
C1096 C1095 1.524 . S
C1097 C1094 1.403 . S
C1097 C1098 1.392 . S
C1097 C1101 1.495 . S
C1098 C1097 1.392 . S
C1098 C1099 1.385 . S
C1098 C1100 1.478 . S
C1099 H1093 0.930 . S
C1099 C1095 1.400 . S
C1099 C1098 1.385 . S
C1100 C1098 1.478 . S
C1100 C1102 1.381 . S
C1100 C1106 1.383 . S
C1101 C1097 1.495 . S
C1101 H1107 0.959 . S
C1101 H1108 0.961 . S
C1101 H1109 0.960 . S
C1102 C1100 1.381 . S
C1102 C1103 1.394 . S
C1102 H1110 0.930 . S
C1103 C1102 1.394 . S
C1103 C1104 1.383 . S
C1103 H1111 0.929 . S
C1104 C1103 1.383 . S
C1104 C1105 1.377 . S
C1105 H1089 0.930 . S
C1105 C1104 1.377 . S
C1105 C1106 1.379 . S
C1106 H1090 0.931 . S
C1106 C1100 1.383 . S
C1106 C1105 1.379 . S
H1107 C1101 0.959 . S
H1108 C1101 0.961 . S
H1109 C1101 0.960 . S
H1110 C1102 0.930 . S
H1111 C1103 0.929 . S
H1112 C1120 0.929 . S
H1113 C1122 0.930 . S
H1114 C1124 0.930 . S
H1115 C1127 0.929 . S
H1116 C1130 0.930 . S
H1117 C1132 0.960 . S
H1118 C1132 0.960 . S
H1119 C1132 0.960 . S
C1120 H1112 0.929 . S
C1120 C1121 1.377 . S
C1120 C1122 1.384 . S
C1121 C1120 1.377 . S
C1121 C1127 1.390 . S
C1122 H1113 0.930 . S
C1122 C1120 1.384 . S
C1122 C1123 1.372 . S
C1123 C1122 1.372 . S
C1123 C1124 1.400 . S
C1123 C1128 1.490 . S
C1124 H1114 0.930 . S
C1124 C1123 1.400 . S
C1124 C1127 1.386 . S
H1125 C1141 0.930 . S
H1126 C1142 0.931 . S
C1127 H1115 0.929 . S
C1127 C1121 1.390 . S
C1127 C1124 1.386 . S
C1128 C1123 1.490 . S
C1128 C1130 1.395 . S
C1128 C1131 1.403 . S
H1129 C1135 0.930 . S
C1130 H1116 0.930 . S
C1130 C1128 1.395 . S
C1130 C1133 1.403 . S
C1131 C1128 1.403 . S
C1131 C1132 1.524 . S
C1131 C1135 1.400 . S
C1132 H1117 0.960 . S
C1132 H1118 0.960 . S
C1132 H1119 0.960 . S
C1132 C1131 1.524 . S
C1133 C1130 1.403 . S
C1133 C1134 1.392 . S
C1133 C1137 1.495 . S
C1134 C1133 1.392 . S
C1134 C1135 1.385 . S
C1134 C1136 1.478 . S
C1135 H1129 0.930 . S
C1135 C1131 1.400 . S
C1135 C1134 1.385 . S
C1136 C1134 1.478 . S
C1136 C1138 1.381 . S
C1136 C1142 1.383 . S
C1137 C1133 1.495 . S
C1137 H1143 0.959 . S
C1137 H1144 0.961 . S
C1137 H1145 0.960 . S
C1138 C1136 1.381 . S
C1138 C1139 1.394 . S
C1138 H1146 0.930 . S
C1139 C1138 1.394 . S
C1139 C1140 1.383 . S
C1139 H1147 0.929 . S
C1140 C1139 1.383 . S
C1140 C1141 1.377 . S
C1141 H1125 0.930 . S
C1141 C1140 1.377 . S
C1141 C1142 1.379 . S
C1142 H1126 0.931 . S
C1142 C1136 1.383 . S
C1142 C1141 1.379 . S
H1143 C1137 0.959 . S
H1144 C1137 0.961 . S
H1145 C1137 0.960 . S
H1146 C1138 0.930 . S
H1147 C1139 0.929 . S
H1148 C1156 0.929 . S
H1149 C1158 0.930 . S
H1150 C1160 0.930 . S
H1151 C1163 0.929 . S
H1152 C1166 0.930 . S
H1153 C1168 0.960 . S
H1154 C1168 0.960 . S
H1155 C1168 0.960 . S
C1156 H1148 0.929 . S
C1156 C1157 1.377 . S
C1156 C1158 1.384 . S
C1157 C1156 1.377 . S
C1157 C1163 1.390 . S
C1158 H1149 0.930 . S
C1158 C1156 1.384 . S
C1158 C1159 1.372 . S
C1159 C1158 1.372 . S
C1159 C1160 1.400 . S
C1159 C1164 1.490 . S
C1160 H1150 0.930 . S
C1160 C1159 1.400 . S
C1160 C1163 1.386 . S
H1161 C1177 0.930 . S
H1162 C1178 0.931 . S
C1163 H1151 0.929 . S
C1163 C1157 1.390 . S
C1163 C1160 1.386 . S
C1164 C1159 1.490 . S
C1164 C1166 1.395 . S
C1164 C1167 1.403 . S
H1165 C1171 0.930 . S
C1166 H1152 0.930 . S
C1166 C1164 1.395 . S
C1166 C1169 1.403 . S
C1167 C1164 1.403 . S
C1167 C1168 1.524 . S
C1167 C1171 1.400 . S
C1168 H1153 0.960 . S
C1168 H1154 0.960 . S
C1168 H1155 0.960 . S
C1168 C1167 1.524 . S
C1169 C1166 1.403 . S
C1169 C1170 1.392 . S
C1169 C1173 1.495 . S
C1170 C1169 1.392 . S
C1170 C1171 1.385 . S
C1170 C1172 1.478 1_655 S
C1171 H1165 0.930 . S
C1171 C1167 1.400 . S
C1171 C1170 1.385 . S
C1172 C1170 1.478 1_455 S
C1172 C1174 1.381 . S
C1172 C1178 1.383 . S
C1173 C1169 1.495 . S
C1173 H1179 0.959 . S
C1173 H1180 0.961 1_655 S
C1173 H1181 0.960 . S
C1174 C1172 1.381 . S
C1174 C1175 1.394 . S
C1174 H1182 0.930 1_455 S
C1175 C1174 1.394 . S
C1175 C1176 1.383 . S
C1175 H1183 0.929 . S
C1176 C1175 1.383 . S
C1176 C1177 1.377 . S
C1177 H1161 0.930 . S
C1177 C1176 1.377 . S
C1177 C1178 1.379 . S
C1178 H1162 0.931 . S
C1178 C1172 1.383 . S
C1178 C1177 1.379 . S
H1179 C1173 0.959 . S
H1180 C1173 0.961 1_455 S
H1181 C1173 0.960 . S
H1182 C1174 0.930 1_655 S
H1183 C1175 0.929 . S
H1184 C1192 0.929 . S
H1185 C1194 0.930 . S
H1186 C1196 0.930 . S
H1187 C1199 0.929 . S
H1188 C1202 0.930 . S
H1189 C1204 0.960 . S
H1190 C1204 0.960 . S
H1191 C1204 0.960 . S
C1192 H1184 0.929 . S
C1192 C1193 1.377 . S
C1192 C1194 1.384 . S
C1193 C1192 1.377 . S
C1193 C1199 1.390 . S
C1194 H1185 0.930 . S
C1194 C1192 1.384 . S
C1194 C1195 1.372 . S
C1195 C1194 1.372 . S
C1195 C1196 1.400 . S
C1195 C1200 1.490 . S
C1196 H1186 0.930 . S
C1196 C1195 1.400 . S
C1196 C1199 1.386 . S
H1197 C1213 0.930 . S
H1198 C1214 0.931 . S
C1199 H1187 0.929 . S
C1199 C1193 1.390 . S
C1199 C1196 1.386 . S
C1200 C1195 1.490 . S
C1200 C1202 1.395 . S
C1200 C1203 1.403 . S
H1201 C1207 0.930 . S
C1202 H1188 0.930 . S
C1202 C1200 1.395 . S
C1202 C1205 1.403 . S
C1203 C1200 1.403 . S
C1203 C1204 1.524 . S
C1203 C1207 1.400 . S
C1204 H1189 0.960 . S
C1204 H1190 0.960 . S
C1204 H1191 0.960 . S
C1204 C1203 1.524 . S
C1205 C1202 1.403 . S
C1205 C1206 1.392 . S
C1205 C1209 1.495 . S
C1206 C1205 1.392 . S
C1206 C1207 1.385 . S
C1206 C1208 1.478 . S
C1207 H1201 0.930 . S
C1207 C1203 1.400 . S
C1207 C1206 1.385 . S
C1208 C1206 1.478 . S
C1208 C1210 1.381 . S
C1208 C1214 1.383 . S
C1209 C1205 1.495 . S
C1209 H1215 0.959 . S
C1209 H1216 0.961 . S
C1209 H1217 0.960 . S
C1210 C1208 1.381 . S
C1210 C1211 1.394 . S
C1210 H1218 0.930 . S
C1211 C1210 1.394 . S
C1211 C1212 1.383 . S
C1211 H1219 0.929 . S
C1212 C1211 1.383 . S
C1212 C1213 1.377 . S
C1213 H1197 0.930 . S
C1213 C1212 1.377 . S
C1213 C1214 1.379 . S
C1214 H1198 0.931 . S
C1214 C1208 1.383 . S
C1214 C1213 1.379 . S
H1215 C1209 0.959 . S
H1216 C1209 0.961 . S
H1217 C1209 0.960 . S
H1218 C1210 0.930 . S
H1219 C1211 0.929 . S
H1220 C1228 0.929 . S
H1221 C1230 0.940 . S
H1222 C1232 0.930 . S
H1223 C1235 0.929 . S
H1224 C1238 0.938 . S
H1225 C1240 0.960 . S
H1226 C1240 0.960 . S
H1227 C1240 0.960 . S
C1228 H1220 0.929 . S
C1228 C1229 1.377 . S
C1228 C1230 1.384 . S
C1229 C1228 1.377 . S
C1229 C1235 1.390 . S
C1230 H1221 0.940 . S
C1230 C1228 1.384 . S
C1230 C1231 1.372 . S
C1231 C1230 1.372 . S
C1231 C1232 1.400 . S
C1231 C1236 1.490 . S
C1232 H1222 0.930 . S
C1232 C1231 1.400 . S
C1232 C1235 1.386 . S
H1233 C1249 0.930 . S
H1234 C1250 0.931 . S
C1235 H1223 0.929 . S
C1235 C1229 1.390 . S
C1235 C1232 1.386 . S
C1236 C1231 1.490 . S
C1236 C1238 1.395 . S
C1236 C1239 1.403 . S
H1237 C1243 0.930 . S
C1238 H1224 0.938 . S
C1238 C1236 1.395 . S
C1238 C1241 1.403 . S
C1239 C1236 1.403 . S
C1239 C1240 1.524 . S
C1239 C1243 1.400 . S
C1240 H1225 0.960 . S
C1240 H1226 0.960 . S
C1240 H1227 0.960 . S
C1240 C1239 1.524 . S
C1241 C1238 1.403 . S
C1241 C1242 1.392 . S
C1241 C1245 1.495 1_565 S
C1242 C1241 1.392 . S
C1242 C1243 1.385 . S
C1242 C1244 1.464 1_655 S
C1243 H1237 0.930 . S
C1243 C1239 1.400 . S
C1243 C1242 1.385 . S
C1244 C1242 1.464 1_455 S
C1244 C1246 1.383 1_565 S
C1244 C1250 1.395 . S
C1245 C1241 1.495 1_545 S
C1245 H1251 0.959 . S
C1245 H1252 0.961 1_655 S
C1245 H1253 0.960 . S
C1246 C1244 1.383 1_545 S
C1246 C1247 1.394 . S
C1246 H1254 0.930 1_455 S
C1247 C1246 1.394 . S
C1247 C1248 1.383 . S
C1247 H1255 0.929 . S
C1248 C1247 1.383 . S
C1248 C1249 1.377 1_545 S
C1249 H1233 0.930 . S
C1249 C1248 1.377 1_565 S
C1249 C1250 1.379 . S
C1250 H1234 0.931 . S
C1250 C1244 1.395 . S
C1250 C1249 1.379 . S
H1251 C1245 0.959 . S
H1252 C1245 0.961 1_455 S
H1253 C1245 0.960 . S
H1254 C1246 0.930 1_655 S
H1255 C1247 0.929 . S
H1256 C1264 0.929 . S
H1257 C1266 0.930 . S
H1258 C1268 0.930 . S
H1259 C1271 0.929 . S
H1260 C1274 0.930 . S
H1261 C1276 0.960 . S
H1262 C1276 0.960 . S
H1263 C1276 0.960 . S
C1264 H1256 0.929 . S
C1264 C1265 1.377 . S
C1264 C1266 1.384 . S
C1265 C1264 1.377 . S
C1265 C1271 1.390 . S
C1266 H1257 0.930 . S
C1266 C1264 1.384 . S
C1266 C1267 1.372 . S
C1267 C1266 1.372 . S
C1267 C1268 1.400 . S
C1267 C1272 1.490 . S
C1268 H1258 0.930 . S
C1268 C1267 1.400 . S
C1268 C1271 1.386 . S
H1269 C1285 0.930 . S
H1270 C1286 0.931 . S
C1271 H1259 0.929 . S
C1271 C1265 1.390 . S
C1271 C1268 1.386 . S
C1272 C1267 1.490 . S
C1272 C1274 1.395 . S
C1272 C1275 1.403 . S
H1273 C1279 0.930 . S
C1274 H1260 0.930 . S
C1274 C1272 1.395 . S
C1274 C1277 1.403 . S
C1275 C1272 1.403 . S
C1275 C1276 1.524 . S
C1275 C1279 1.400 . S
C1276 H1261 0.960 . S
C1276 H1262 0.960 . S
C1276 H1263 0.960 . S
C1276 C1275 1.524 . S
C1277 C1274 1.403 . S
C1277 C1278 1.392 . S
C1277 C1281 1.495 . S
C1278 C1277 1.392 . S
C1278 C1279 1.385 . S
C1278 C1280 1.478 . S
C1279 H1273 0.930 . S
C1279 C1275 1.400 . S
C1279 C1278 1.385 . S
C1280 C1278 1.478 . S
C1280 C1282 1.381 . S
C1280 C1286 1.383 . S
C1281 C1277 1.495 . S
C1281 H1287 0.959 . S
C1281 H1288 0.961 . S
C1281 H1289 0.960 . S
C1282 C1280 1.381 . S
C1282 C1283 1.394 . S
C1282 H1290 0.930 . S
C1283 C1282 1.394 . S
C1283 C1284 1.383 . S
C1283 H1291 0.929 . S
C1284 C1283 1.383 . S
C1284 C1285 1.377 . S
C1285 H1269 0.930 . S
C1285 C1284 1.377 . S
C1285 C1286 1.379 . S
C1286 H1270 0.931 . S
C1286 C1280 1.383 . S
C1286 C1285 1.379 . S
H1287 C1281 0.959 . S
H1288 C1281 0.961 . S
H1289 C1281 0.960 . S
H1290 C1282 0.930 . S
H1291 C1283 0.929 . S
H1292 C1300 0.929 . S
H1293 C1302 0.930 . S
H1294 C1304 0.930 . S
H1295 C1307 0.929 . S
H1296 C1310 0.930 . S
H1297 C1312 0.968 . S
H1298 C1312 0.969 . S
H1299 C1312 0.950 1_545 S
C1300 H1292 0.929 . S
C1300 C1301 1.377 . S
C1300 C1302 1.384 . S
C1301 C1300 1.377 . S
C1301 C1307 1.390 . S
C1302 H1293 0.930 . S
C1302 C1300 1.384 . S
C1302 C1303 1.372 . S
C1303 C1302 1.372 . S
C1303 C1304 1.400 . S
C1303 C1308 1.490 . S
C1304 H1294 0.930 . S
C1304 C1303 1.400 . S
C1304 C1307 1.386 . S
H1305 C1321 0.930 . S
H1306 C1322 0.931 . S
C1307 H1295 0.929 . S
C1307 C1301 1.390 . S
C1307 C1304 1.386 . S
C1308 C1303 1.490 . S
C1308 C1310 1.395 . S
C1308 C1311 1.403 . S
H1309 C1315 0.930 1_565 S
C1310 H1296 0.930 . S
C1310 C1308 1.395 . S
C1310 C1313 1.403 . S
C1311 C1308 1.403 . S
C1311 C1312 1.517 1_545 S
C1311 C1315 1.400 . S
C1312 H1297 0.968 . S
C1312 H1298 0.969 . S
C1312 H1299 0.950 1_565 S
C1312 C1311 1.517 1_565 S
C1313 C1310 1.403 . S
C1313 C1314 1.392 . S
C1313 C1317 1.495 . S
C1314 C1313 1.392 . S
C1314 C1315 1.385 . S
C1314 C1316 1.478 . S
C1315 H1309 0.930 1_545 S
C1315 C1311 1.400 . S
C1315 C1314 1.385 . S
C1316 C1314 1.478 . S
C1316 C1318 1.381 1_545 S
C1316 C1322 1.383 . S
C1317 C1313 1.495 . S
C1317 H1323 0.959 . S
C1317 H1324 0.961 . S
C1317 H1325 0.960 . S
C1318 C1316 1.381 1_565 S
C1318 C1319 1.394 . S
C1318 H1326 0.930 . S
C1319 C1318 1.394 . S
C1319 C1320 1.383 . S
C1319 H1327 0.929 . S
C1320 C1319 1.383 . S
C1320 C1321 1.377 1_565 S
C1321 H1305 0.930 . S
C1321 C1320 1.377 1_545 S
C1321 C1322 1.379 . S
C1322 H1306 0.931 . S
C1322 C1316 1.383 . S
C1322 C1321 1.379 . S
H1323 C1317 0.959 . S
H1324 C1317 0.961 . S
H1325 C1317 0.960 . S
H1326 C1318 0.930 . S
H1327 C1319 0.929 . S
H1328 C1336 0.929 . S
H1329 C1338 0.930 . S
H1330 C1340 0.930 . S
H1331 C1343 0.929 . S
H1332 C1346 0.930 . S
H1333 C1348 0.960 . S
H1334 C1348 0.960 . S
H1335 C1348 0.960 . S
C1336 H1328 0.929 . S
C1336 C1337 1.377 . S
C1336 C1338 1.384 . S
C1337 C1336 1.377 . S
C1337 C1343 1.390 . S
C1338 H1329 0.930 . S
C1338 C1336 1.384 . S
C1338 C1339 1.372 . S
C1339 C1338 1.372 . S
C1339 C1340 1.400 . S
C1339 C1344 1.490 . S
C1340 H1330 0.930 . S
C1340 C1339 1.400 . S
C1340 C1343 1.386 . S
H1341 C1357 0.930 . S
H1342 C1358 0.931 . S
C1343 H1331 0.929 . S
C1343 C1337 1.390 . S
C1343 C1340 1.386 . S
C1344 C1339 1.490 . S
C1344 C1346 1.395 . S
C1344 C1347 1.403 . S
H1345 C1351 0.930 . S
C1346 H1332 0.930 . S
C1346 C1344 1.395 . S
C1346 C1349 1.403 . S
C1347 C1344 1.403 . S
C1347 C1348 1.524 . S
C1347 C1351 1.400 . S
C1348 H1333 0.960 . S
C1348 H1334 0.960 . S
C1348 H1335 0.960 . S
C1348 C1347 1.524 . S
C1349 C1346 1.403 . S
C1349 C1350 1.392 . S
C1349 C1353 1.495 . S
C1350 C1349 1.392 . S
C1350 C1351 1.385 . S
C1350 C1352 1.478 . S
C1351 H1345 0.930 . S
C1351 C1347 1.400 . S
C1351 C1350 1.385 . S
C1352 C1350 1.478 . S
C1352 C1354 1.381 . S
C1352 C1358 1.383 . S
C1353 C1349 1.495 . S
C1353 H1359 0.959 . S
C1353 H1360 0.961 . S
C1353 H1361 0.960 . S
C1354 C1352 1.381 . S
C1354 C1355 1.394 . S
C1354 H1362 0.930 . S
C1355 C1354 1.394 . S
C1355 C1356 1.383 . S
C1355 H1363 0.929 . S
C1356 C1355 1.383 . S
C1356 C1357 1.377 . S
C1357 H1341 0.930 . S
C1357 C1356 1.377 . S
C1357 C1358 1.379 . S
C1358 H1342 0.931 . S
C1358 C1352 1.383 . S
C1358 C1357 1.379 . S
H1359 C1353 0.959 . S
H1360 C1353 0.961 . S
H1361 C1353 0.960 . S
H1362 C1354 0.930 . S
H1363 C1355 0.929 . S
H1364 C1372 0.929 . S
H1365 C1374 0.927 1_565 S
H1366 C1376 0.930 . S
H1367 C1379 0.929 . S
H1368 C1382 0.930 . S
H1369 C1384 0.960 . S
H1370 C1384 0.960 . S
H1371 C1384 0.960 . S
C1372 H1364 0.929 . S
C1372 C1373 1.377 . S
C1372 C1374 1.379 1_565 S
C1373 C1372 1.377 . S
C1373 C1379 1.390 1_565 S
C1374 H1365 0.927 1_545 S
C1374 C1372 1.379 1_545 S
C1374 C1375 1.381 1_655 S
C1375 C1374 1.381 1_455 S
C1375 C1376 1.400 . S
C1375 C1380 1.490 . S
C1376 H1366 0.930 . S
C1376 C1375 1.400 . S
C1376 C1379 1.386 1_455 S
H1377 C1393 0.930 . S
H1378 C1394 0.931 . S
C1379 H1367 0.929 . S
C1379 C1373 1.390 1_545 S
C1379 C1376 1.386 1_655 S
C1380 C1375 1.490 . S
C1380 C1382 1.395 . S
C1380 C1383 1.403 . S
H1381 C1387 0.930 . S
C1382 H1368 0.930 . S
C1382 C1380 1.395 . S
C1382 C1385 1.403 . S
C1383 C1380 1.403 . S
C1383 C1384 1.524 1_545 S
C1383 C1387 1.400 . S
C1384 H1369 0.960 . S
C1384 H1370 0.960 . S
C1384 H1371 0.960 . S
C1384 C1383 1.524 1_565 S
C1385 C1382 1.403 . S
C1385 C1386 1.392 . S
C1385 C1389 1.495 . S
C1386 C1385 1.392 . S
C1386 C1387 1.385 . S
C1386 C1388 1.478 . S
C1387 H1381 0.930 . S
C1387 C1383 1.400 . S
C1387 C1386 1.385 . S
C1388 C1386 1.478 . S
C1388 C1390 1.381 . S
C1388 C1394 1.383 . S
C1389 C1385 1.495 . S
C1389 H1395 0.959 . S
C1389 H1396 0.961 . S
C1389 H1397 0.960 . S
C1390 C1388 1.381 . S
C1390 C1391 1.394 . S
C1390 H1398 0.930 . S
C1391 C1390 1.394 . S
C1391 C1392 1.383 . S
C1391 H1399 0.929 . S
C1392 C1391 1.383 . S
C1392 C1393 1.377 . S
C1393 H1377 0.930 . S
C1393 C1392 1.377 . S
C1393 C1394 1.379 . S
C1394 H1378 0.931 . S
C1394 C1388 1.383 . S
C1394 C1393 1.379 . S
H1395 C1389 0.959 . S
H1396 C1389 0.961 . S
H1397 C1389 0.960 . S
H1398 C1390 0.930 . S
H1399 C1391 0.929 . S
H1400 C1408 0.929 . S
H1401 C1410 0.930 . S
H1402 C1412 0.930 . S
H1403 C1415 0.929 . S
H1404 C1418 0.930 . S
H1405 C1420 0.960 . S
H1406 C1420 0.960 . S
H1407 C1420 0.960 . S
C1408 H1400 0.929 . S
C1408 C1409 1.377 . S
C1408 C1410 1.384 . S
C1409 C1408 1.377 . S
C1409 C1415 1.390 . S
C1410 H1401 0.930 . S
C1410 C1408 1.384 . S
C1410 C1411 1.372 . S
C1411 C1410 1.372 . S
C1411 C1412 1.400 . S
C1411 C1416 1.490 . S
C1412 H1402 0.930 . S
C1412 C1411 1.400 . S
C1412 C1415 1.386 . S
H1413 C1429 0.930 . S
H1414 C1430 0.931 . S
C1415 H1403 0.929 . S
C1415 C1409 1.390 . S
C1415 C1412 1.386 . S
C1416 C1411 1.490 . S
C1416 C1418 1.395 . S
C1416 C1419 1.403 . S
H1417 C1423 0.930 . S
C1418 H1404 0.930 . S
C1418 C1416 1.395 . S
C1418 C1421 1.403 . S
C1419 C1416 1.403 . S
C1419 C1420 1.524 . S
C1419 C1423 1.400 . S
C1420 H1405 0.960 . S
C1420 H1406 0.960 . S
C1420 H1407 0.960 . S
C1420 C1419 1.524 . S
C1421 C1418 1.403 . S
C1421 C1422 1.392 . S
C1421 C1425 1.495 . S
C1422 C1421 1.392 . S
C1422 C1423 1.385 . S
C1422 C1424 1.478 . S
C1423 H1417 0.930 . S
C1423 C1419 1.400 . S
C1423 C1422 1.385 . S
C1424 C1422 1.478 . S
C1424 C1426 1.381 . S
C1424 C1430 1.383 . S
C1425 C1421 1.495 . S
C1425 H1431 0.959 . S
C1425 H1432 0.961 . S
C1425 H1433 0.960 . S
C1426 C1424 1.381 . S
C1426 C1427 1.394 . S
C1426 H1434 0.930 . S
C1427 C1426 1.394 . S
C1427 C1428 1.383 . S
C1427 H1435 0.929 . S
C1428 C1427 1.383 . S
C1428 C1429 1.377 . S
C1429 H1413 0.930 . S
C1429 C1428 1.377 . S
C1429 C1430 1.379 . S
C1430 H1414 0.931 . S
C1430 C1424 1.383 . S
C1430 C1429 1.379 . S
H1431 C1425 0.959 . S
H1432 C1425 0.961 . S
H1433 C1425 0.960 . S
H1434 C1426 0.930 . S
H1435 C1427 0.929 . S
H1436 C1444 0.929 . S
H1437 C1446 0.930 . S
H1438 C1448 0.930 . S
H1439 C1451 0.929 . S
H1440 C1454 0.930 . S
H1441 C1456 0.960 . S
H1442 C1456 0.960 . S
H1443 C1456 0.960 . S
C1444 H1436 0.929 . S
C1444 C1445 1.377 1_565 S
C1444 C1446 1.384 . S
C1445 C1444 1.377 1_545 S
C1445 C1451 1.390 . S
C1446 H1437 0.930 . S
C1446 C1444 1.384 . S
C1446 C1447 1.372 . S
C1447 C1446 1.372 . S
C1447 C1448 1.400 1_565 S
C1447 C1452 1.490 . S
C1448 H1438 0.930 . S
C1448 C1447 1.400 1_545 S
C1448 C1451 1.386 . S
H1449 C1465 0.930 . S
H1450 C1466 0.931 . S
C1451 H1439 0.929 . S
C1451 C1445 1.390 . S
C1451 C1448 1.386 . S
C1452 C1447 1.490 . S
C1452 C1454 1.395 . S
C1452 C1455 1.403 . S
H1453 C1459 0.930 . S
C1454 H1440 0.930 . S
C1454 C1452 1.395 . S
C1454 C1457 1.403 . S
C1455 C1452 1.403 . S
C1455 C1456 1.524 . S
C1455 C1459 1.400 . S
C1456 H1441 0.960 . S
C1456 H1442 0.960 . S
C1456 H1443 0.960 . S
C1456 C1455 1.524 . S
C1457 C1454 1.403 . S
C1457 C1458 1.392 . S
C1457 C1461 1.495 . S
C1458 C1457 1.392 . S
C1458 C1459 1.385 . S
C1458 C1460 1.478 . S
C1459 H1453 0.930 . S
C1459 C1455 1.400 . S
C1459 C1458 1.385 . S
C1460 C1458 1.478 . S
C1460 C1462 1.381 . S
C1460 C1466 1.383 . S
C1461 C1457 1.495 . S
C1461 H1467 0.959 1_565 S
C1461 H1468 0.961 1_565 S
C1461 H1469 0.960 . S
C1462 C1460 1.381 . S
C1462 C1463 1.394 . S
C1462 H1470 0.930 . S
C1463 C1462 1.394 . S
C1463 C1464 1.383 . S
C1463 H1471 0.929 . S
C1464 C1463 1.383 . S
C1464 C1465 1.377 . S
C1465 H1449 0.930 . S
C1465 C1464 1.377 . S
C1465 C1466 1.379 . S
C1466 H1450 0.931 . S
C1466 C1460 1.383 . S
C1466 C1465 1.379 . S
H1467 C1461 0.959 1_545 S
H1468 C1461 0.961 1_545 S
H1469 C1461 0.960 . S
H1470 C1462 0.930 . S
H1471 C1463 0.929 . S
H1472 C1480 0.929 . S
H1473 C1482 0.930 . S
H1474 C1484 0.930 . S
H1475 C1487 0.929 . S
H1476 C1490 0.930 . S
H1477 C1492 0.960 . S
H1478 C1492 0.960 . S
H1479 C1492 0.960 . S
C1480 H1472 0.929 . S
C1480 C1481 1.377 . S
C1480 C1482 1.384 1_554 S
C1481 C1480 1.377 . S
C1481 C1487 1.390 1_554 S
C1482 H1473 0.930 . S
C1482 C1480 1.384 1_556 S
C1482 C1483 1.372 . S
C1483 C1482 1.372 . S
C1483 C1484 1.400 . S
C1483 C1488 1.490 . S
C1484 H1474 0.930 . S
C1484 C1483 1.400 . S
C1484 C1487 1.386 . S
H1485 C1501 0.930 . S
H1486 C1502 0.931 . S
C1487 H1475 0.929 . S
C1487 C1481 1.390 1_556 S
C1487 C1484 1.386 . S
C1488 C1483 1.490 . S
C1488 C1490 1.395 . S
C1488 C1491 1.403 . S
H1489 C1495 0.930 . S
C1490 H1476 0.930 . S
C1490 C1488 1.395 . S
C1490 C1493 1.403 . S
C1491 C1488 1.403 . S
C1491 C1492 1.524 . S
C1491 C1495 1.400 . S
C1492 H1477 0.960 . S
C1492 H1478 0.960 . S
C1492 H1479 0.960 . S
C1492 C1491 1.524 . S
C1493 C1490 1.403 . S
C1493 C1494 1.392 . S
C1493 C1497 1.495 . S
C1494 C1493 1.392 . S
C1494 C1495 1.385 . S
C1494 C1496 1.478 . S
C1495 H1489 0.930 . S
C1495 C1491 1.400 . S
C1495 C1494 1.385 . S
C1496 C1494 1.478 . S
C1496 C1498 1.381 . S
C1496 C1502 1.383 . S
C1497 C1493 1.495 . S
C1497 H1503 0.959 . S
C1497 H1504 0.961 . S
C1497 H1505 0.960 . S
C1498 C1496 1.381 . S
C1498 C1499 1.394 . S
C1498 H1506 0.930 . S
C1499 C1498 1.394 . S
C1499 C1500 1.383 . S
C1499 H1507 0.929 . S
C1500 C1499 1.383 . S
C1500 C1501 1.377 . S
C1501 H1485 0.930 . S
C1501 C1500 1.377 . S
C1501 C1502 1.379 . S
C1502 H1486 0.931 . S
C1502 C1496 1.383 . S
C1502 C1501 1.379 . S
H1503 C1497 0.959 . S
H1504 C1497 0.961 . S
H1505 C1497 0.960 . S
H1506 C1498 0.930 . S
H1507 C1499 0.929 . S
H1508 C1516 0.929 . S
H1509 C1518 0.930 . S
H1510 C1520 0.930 . S
H1511 C1523 0.929 . S
H1512 C1526 0.930 . S
H1513 C1528 0.960 . S
H1514 C1528 0.960 . S
H1515 C1528 0.960 . S
C1516 H1508 0.929 . S
C1516 C1517 1.377 . S
C1516 C1518 1.384 . S
C1517 C1516 1.377 . S
C1517 C1523 1.390 . S
C1518 H1509 0.930 . S
C1518 C1516 1.384 . S
C1518 C1519 1.372 . S
C1519 C1518 1.372 . S
C1519 C1520 1.400 . S
C1519 C1524 1.490 . S
C1520 H1510 0.930 . S
C1520 C1519 1.400 . S
C1520 C1523 1.386 . S
H1521 C1537 0.930 . S
H1522 C1538 0.931 . S
C1523 H1511 0.929 . S
C1523 C1517 1.390 . S
C1523 C1520 1.386 . S
C1524 C1519 1.490 . S
C1524 C1526 1.395 . S
C1524 C1527 1.403 . S
H1525 C1531 0.930 . S
C1526 H1512 0.930 . S
C1526 C1524 1.395 . S
C1526 C1529 1.403 . S
C1527 C1524 1.403 . S
C1527 C1528 1.524 . S
C1527 C1531 1.400 . S
C1528 H1513 0.960 . S
C1528 H1514 0.960 . S
C1528 H1515 0.960 . S
C1528 C1527 1.524 . S
C1529 C1526 1.403 . S
C1529 C1530 1.392 . S
C1529 C1533 1.495 . S
C1530 C1529 1.392 . S
C1530 C1531 1.385 . S
C1530 C1532 1.478 . S
C1531 H1525 0.930 . S
C1531 C1527 1.400 . S
C1531 C1530 1.385 . S
C1532 C1530 1.478 . S
C1532 C1534 1.381 . S
C1532 C1538 1.383 . S
C1533 C1529 1.495 . S
C1533 H1539 0.959 . S
C1533 H1540 0.961 . S
C1533 H1541 0.960 . S
C1534 C1532 1.381 . S
C1534 C1535 1.394 . S
C1534 H1542 0.930 . S
C1535 C1534 1.394 . S
C1535 C1536 1.383 . S
C1535 H1543 0.929 . S
C1536 C1535 1.383 . S
C1536 C1537 1.377 . S
C1537 H1521 0.930 . S
C1537 C1536 1.377 . S
C1537 C1538 1.379 . S
C1538 H1522 0.931 . S
C1538 C1532 1.383 . S
C1538 C1537 1.379 . S
H1539 C1533 0.959 . S
H1540 C1533 0.961 . S
H1541 C1533 0.960 . S
H1542 C1534 0.930 . S
H1543 C1535 0.929 . S
H1544 C1552 0.929 . S
H1545 C1554 0.930 . S
H1546 C1556 0.930 . S
H1547 C1559 0.929 . S
H1548 C1562 0.930 . S
H1549 C1564 0.960 . S
H1550 C1564 0.960 . S
H1551 C1564 0.960 . S
C1552 H1544 0.929 . S
C1552 C1553 1.377 . S
C1552 C1554 1.384 . S
C1553 C1552 1.377 . S
C1553 C1559 1.390 . S
C1554 H1545 0.930 . S
C1554 C1552 1.384 . S
C1554 C1555 1.372 . S
C1555 C1554 1.372 . S
C1555 C1556 1.400 . S
C1555 C1560 1.490 . S
C1556 H1546 0.930 . S
C1556 C1555 1.400 . S
C1556 C1559 1.386 . S
H1557 C1573 0.930 . S
H1558 C1574 0.931 . S
C1559 H1547 0.929 . S
C1559 C1553 1.390 . S
C1559 C1556 1.386 . S
C1560 C1555 1.490 . S
C1560 C1562 1.395 . S
C1560 C1563 1.403 . S
H1561 C1567 0.930 . S
C1562 H1548 0.930 . S
C1562 C1560 1.395 . S
C1562 C1565 1.403 . S
C1563 C1560 1.403 . S
C1563 C1564 1.524 . S
C1563 C1567 1.400 . S
C1564 H1549 0.960 . S
C1564 H1550 0.960 . S
C1564 H1551 0.960 . S
C1564 C1563 1.524 . S
C1565 C1562 1.403 . S
C1565 C1566 1.392 . S
C1565 C1569 1.495 . S
C1566 C1565 1.392 . S
C1566 C1567 1.385 . S
C1566 C1568 1.478 . S
C1567 H1561 0.930 . S
C1567 C1563 1.400 . S
C1567 C1566 1.385 . S
C1568 C1566 1.478 . S
C1568 C1570 1.381 . S
C1568 C1574 1.383 . S
C1569 C1565 1.495 . S
C1569 H1575 0.959 . S
C1569 H1576 0.961 . S
C1569 H1577 0.960 . S
C1570 C1568 1.381 . S
C1570 C1571 1.394 . S
C1570 H1578 0.930 . S
C1571 C1570 1.394 . S
C1571 C1572 1.383 . S
C1571 H1579 0.929 . S
C1572 C1571 1.383 . S
C1572 C1573 1.377 . S
C1573 H1557 0.930 . S
C1573 C1572 1.377 . S
C1573 C1574 1.379 . S
C1574 H1558 0.931 . S
C1574 C1568 1.383 . S
C1574 C1573 1.379 . S
H1575 C1569 0.959 . S
H1576 C1569 0.961 . S
H1577 C1569 0.960 . S
H1578 C1570 0.930 . S
H1579 C1571 0.929 . S
H1580 C1588 0.929 . S
H1581 C1590 0.930 . S
H1582 C1592 0.930 . S
H1583 C1595 0.929 . S
H1584 C1598 0.930 . S
H1585 C1600 0.960 . S
H1586 C1600 0.960 . S
H1587 C1600 0.960 . S
C1588 H1580 0.929 . S
C1588 C1589 1.377 . S
C1588 C1590 1.384 . S
C1589 C1588 1.377 . S
C1589 C1595 1.390 . S
C1590 H1581 0.930 . S
C1590 C1588 1.384 . S
C1590 C1591 1.372 . S
C1591 C1590 1.372 . S
C1591 C1592 1.400 . S
C1591 C1596 1.490 . S
C1592 H1582 0.930 . S
C1592 C1591 1.400 . S
C1592 C1595 1.386 . S
H1593 C1609 0.930 . S
H1594 C1610 0.931 . S
C1595 H1583 0.929 . S
C1595 C1589 1.390 . S
C1595 C1592 1.386 . S
C1596 C1591 1.490 . S
C1596 C1598 1.395 . S
C1596 C1599 1.403 . S
H1597 C1603 0.930 . S
C1598 H1584 0.930 . S
C1598 C1596 1.395 . S
C1598 C1601 1.403 . S
C1599 C1596 1.403 . S
C1599 C1600 1.524 . S
C1599 C1603 1.400 . S
C1600 H1585 0.960 . S
C1600 H1586 0.960 . S
C1600 H1587 0.960 . S
C1600 C1599 1.524 . S
C1601 C1598 1.403 . S
C1601 C1602 1.392 . S
C1601 C1605 1.495 . S
C1602 C1601 1.392 . S
C1602 C1603 1.385 . S
C1602 C1604 1.478 . S
C1603 H1597 0.930 . S
C1603 C1599 1.400 . S
C1603 C1602 1.385 . S
C1604 C1602 1.478 . S
C1604 C1606 1.381 . S
C1604 C1610 1.383 . S
C1605 C1601 1.495 . S
C1605 H1611 0.959 . S
C1605 H1612 0.961 . S
C1605 H1613 0.960 . S
C1606 C1604 1.381 . S
C1606 C1607 1.394 . S
C1606 H1614 0.930 . S
C1607 C1606 1.394 . S
C1607 C1608 1.383 . S
C1607 H1615 0.929 . S
C1608 C1607 1.383 . S
C1608 C1609 1.377 . S
C1609 H1593 0.930 . S
C1609 C1608 1.377 . S
C1609 C1610 1.379 . S
C1610 H1594 0.931 . S
C1610 C1604 1.383 . S
C1610 C1609 1.379 . S
H1611 C1605 0.959 . S
H1612 C1605 0.961 . S
H1613 C1605 0.960 . S
H1614 C1606 0.930 . S
H1615 C1607 0.929 . S
H1616 C1624 0.929 . S
H1617 C1626 0.930 . S
H1618 C1628 0.930 . S
H1619 C1631 0.929 . S
H1620 C1634 0.930 . S
H1621 C1636 0.960 . S
H1622 C1636 0.960 . S
H1623 C1636 0.960 . S
C1624 H1616 0.929 . S
C1624 C1625 1.377 . S
C1624 C1626 1.384 . S
C1625 C1624 1.377 . S
C1625 C1631 1.390 . S
C1626 H1617 0.930 . S
C1626 C1624 1.384 . S
C1626 C1627 1.372 . S
C1627 C1626 1.372 . S
C1627 C1628 1.400 . S
C1627 C1632 1.490 . S
C1628 H1618 0.930 . S
C1628 C1627 1.400 . S
C1628 C1631 1.386 . S
H1629 C1645 0.948 . S
H1630 C1646 0.931 . S
C1631 H1619 0.929 . S
C1631 C1625 1.390 . S
C1631 C1628 1.386 . S
C1632 C1627 1.490 . S
C1632 C1634 1.395 . S
C1632 C1635 1.403 . S
H1633 C1639 0.930 . S
C1634 H1620 0.930 . S
C1634 C1632 1.395 . S
C1634 C1637 1.403 . S
C1635 C1632 1.403 . S
C1635 C1636 1.524 . S
C1635 C1639 1.400 . S
C1636 H1621 0.960 . S
C1636 H1622 0.960 . S
C1636 H1623 0.960 . S
C1636 C1635 1.524 . S
C1637 C1634 1.403 . S
C1637 C1638 1.392 . S
C1637 C1641 1.495 . S
C1638 C1637 1.392 . S
C1638 C1639 1.385 . S
C1638 C1640 1.478 . S
C1639 H1633 0.930 . S
C1639 C1635 1.400 . S
C1639 C1638 1.385 . S
C1640 C1638 1.478 . S
C1640 C1642 1.381 . S
C1640 C1646 1.383 . S
C1641 C1637 1.495 . S
C1641 H1647 0.959 . S
C1641 H1648 0.961 . S
C1641 H1649 0.960 . S
C1642 C1640 1.381 . S
C1642 C1643 1.394 1_554 S
C1642 H1650 0.930 . S
C1643 C1642 1.394 1_556 S
C1643 C1644 1.383 . S
C1643 H1651 0.929 . S
C1644 C1643 1.383 . S
C1644 C1645 1.377 1_556 S
C1645 H1629 0.948 . S
C1645 C1644 1.377 1_554 S
C1645 C1646 1.379 . S
C1646 H1630 0.931 . S
C1646 C1640 1.383 . S
C1646 C1645 1.379 . S
H1647 C1641 0.959 . S
H1648 C1641 0.961 . S
H1649 C1641 0.960 . S
H1650 C1642 0.930 . S
H1651 C1643 0.929 . S
H1652 C1660 0.929 . S
H1653 C1662 0.930 . S
H1654 C1664 0.930 . S
H1655 C1667 0.929 . S
H1656 C1670 0.930 . S
H1657 C1672 0.960 . S
H1658 C1672 0.960 . S
H1659 C1672 0.960 . S
C1660 H1652 0.929 . S
C1660 C1661 1.377 . S
C1660 C1662 1.384 . S
C1661 C1660 1.377 . S
C1661 C1667 1.390 . S
C1662 H1653 0.930 . S
C1662 C1660 1.384 . S
C1662 C1663 1.372 . S
C1663 C1662 1.372 . S
C1663 C1664 1.400 . S
C1663 C1668 1.490 . S
C1664 H1654 0.930 . S
C1664 C1663 1.400 . S
C1664 C1667 1.386 . S
H1665 C1681 0.930 . S
H1666 C1682 0.931 . S
C1667 H1655 0.929 . S
C1667 C1661 1.390 . S
C1667 C1664 1.386 . S
C1668 C1663 1.490 . S
C1668 C1670 1.395 . S
C1668 C1671 1.403 . S
H1669 C1675 0.930 . S
C1670 H1656 0.930 . S
C1670 C1668 1.395 . S
C1670 C1673 1.403 . S
C1671 C1668 1.403 . S
C1671 C1672 1.524 . S
C1671 C1675 1.400 . S
C1672 H1657 0.960 . S
C1672 H1658 0.960 . S
C1672 H1659 0.960 . S
C1672 C1671 1.524 . S
C1673 C1670 1.403 . S
C1673 C1674 1.392 . S
C1673 C1677 1.495 . S
C1674 C1673 1.392 . S
C1674 C1675 1.385 . S
C1674 C1676 1.478 . S
C1675 H1669 0.930 . S
C1675 C1671 1.400 . S
C1675 C1674 1.385 . S
C1676 C1674 1.478 . S
C1676 C1678 1.381 . S
C1676 C1682 1.383 . S
C1677 C1673 1.495 . S
C1677 H1683 0.959 . S
C1677 H1684 0.961 . S
C1677 H1685 0.960 . S
C1678 C1676 1.381 . S
C1678 C1679 1.394 . S
C1678 H1686 0.930 . S
C1679 C1678 1.394 . S
C1679 C1680 1.383 . S
C1679 H1687 0.929 . S
C1680 C1679 1.383 . S
C1680 C1681 1.377 . S
C1681 H1665 0.930 . S
C1681 C1680 1.377 . S
C1681 C1682 1.379 . S
C1682 H1666 0.931 . S
C1682 C1676 1.383 . S
C1682 C1681 1.379 . S
H1683 C1677 0.959 . S
H1684 C1677 0.961 . S
H1685 C1677 0.960 . S
H1686 C1678 0.930 . S
H1687 C1679 0.929 . S
H1688 C1696 0.929 . S
H1689 C1698 0.930 . S
H1690 C1700 0.930 . S
H1691 C1703 0.929 . S
H1692 C1706 0.930 . S
H1693 C1708 0.960 . S
H1694 C1708 0.960 . S
H1695 C1708 0.960 . S
C1696 H1688 0.929 . S
C1696 C1697 1.377 . S
C1696 C1698 1.384 . S
C1697 C1696 1.377 . S
C1697 C1703 1.390 . S
C1698 H1689 0.930 . S
C1698 C1696 1.384 . S
C1698 C1699 1.372 . S
C1699 C1698 1.372 . S
C1699 C1700 1.400 . S
C1699 C1704 1.490 . S
C1700 H1690 0.930 . S
C1700 C1699 1.400 . S
C1700 C1703 1.386 . S
H1701 C1717 0.930 . S
H1702 C1718 0.931 . S
C1703 H1691 0.929 . S
C1703 C1697 1.390 . S
C1703 C1700 1.386 . S
C1704 C1699 1.490 . S
C1704 C1706 1.395 . S
C1704 C1707 1.403 . S
H1705 C1711 0.930 . S
C1706 H1692 0.930 . S
C1706 C1704 1.395 . S
C1706 C1709 1.403 . S
C1707 C1704 1.403 . S
C1707 C1708 1.524 . S
C1707 C1711 1.400 . S
C1708 H1693 0.960 . S
C1708 H1694 0.960 . S
C1708 H1695 0.960 . S
C1708 C1707 1.524 . S
C1709 C1706 1.403 . S
C1709 C1710 1.392 . S
C1709 C1713 1.495 . S
C1710 C1709 1.392 . S
C1710 C1711 1.385 . S
C1710 C1712 1.478 . S
C1711 H1705 0.930 . S
C1711 C1707 1.400 . S
C1711 C1710 1.385 . S
C1712 C1710 1.478 . S
C1712 C1714 1.381 . S
C1712 C1718 1.383 . S
C1713 C1709 1.495 . S
C1713 H1719 0.959 . S
C1713 H1720 0.961 . S
C1713 H1721 0.960 . S
C1714 C1712 1.381 . S
C1714 C1715 1.394 . S
C1714 H1722 0.930 . S
C1715 C1714 1.394 . S
C1715 C1716 1.383 . S
C1715 H1723 0.929 . S
C1716 C1715 1.383 . S
C1716 C1717 1.377 . S
C1717 H1701 0.930 . S
C1717 C1716 1.377 . S
C1717 C1718 1.379 . S
C1718 H1702 0.931 . S
C1718 C1712 1.383 . S
C1718 C1717 1.379 . S
H1719 C1713 0.959 . S
H1720 C1713 0.961 . S
H1721 C1713 0.960 . S
H1722 C1714 0.930 . S
H1723 C1715 0.929 . S
H1724 C1732 0.929 . S
H1725 C1734 0.930 . S
H1726 C1736 0.930 . S
H1727 C1739 0.929 . S
H1728 C1742 0.930 . S
H1729 C1744 0.960 . S
H1730 C1744 0.960 . S
H1731 C1744 0.960 . S
C1732 H1724 0.929 . S
C1732 C1733 1.377 . S
C1732 C1734 1.384 . S
C1733 C1732 1.377 . S
C1733 C1739 1.390 . S
C1734 H1725 0.930 . S
C1734 C1732 1.384 . S
C1734 C1735 1.372 . S
C1735 C1734 1.372 . S
C1735 C1736 1.400 . S
C1735 C1740 1.490 . S
C1736 H1726 0.930 . S
C1736 C1735 1.400 . S
C1736 C1739 1.386 . S
H1737 C1753 0.930 . S
H1738 C1754 0.931 . S
C1739 H1727 0.929 . S
C1739 C1733 1.390 . S
C1739 C1736 1.386 . S
C1740 C1735 1.490 . S
C1740 C1742 1.395 . S
C1740 C1743 1.403 . S
H1741 C1747 0.930 . S
C1742 H1728 0.930 . S
C1742 C1740 1.395 . S
C1742 C1745 1.403 . S
C1743 C1740 1.403 . S
C1743 C1744 1.524 . S
C1743 C1747 1.400 . S
C1744 H1729 0.960 . S
C1744 H1730 0.960 . S
C1744 H1731 0.960 . S
C1744 C1743 1.524 . S
C1745 C1742 1.403 . S
C1745 C1746 1.392 . S
C1745 C1749 1.495 . S
C1746 C1745 1.392 . S
C1746 C1747 1.385 . S
C1746 C1748 1.478 . S
C1747 H1741 0.930 . S
C1747 C1743 1.400 . S
C1747 C1746 1.385 . S
C1748 C1746 1.478 . S
C1748 C1750 1.381 . S
C1748 C1754 1.383 . S
C1749 C1745 1.495 . S
C1749 H1755 0.959 . S
C1749 H1756 0.961 . S
C1749 H1757 0.960 . S
C1750 C1748 1.381 . S
C1750 C1751 1.394 . S
C1750 H1758 0.930 . S
C1751 C1750 1.394 . S
C1751 C1752 1.383 . S
C1751 H1759 0.929 . S
C1752 C1751 1.383 . S
C1752 C1753 1.377 . S
C1753 H1737 0.930 . S
C1753 C1752 1.377 . S
C1753 C1754 1.379 . S
C1754 H1738 0.931 . S
C1754 C1748 1.383 . S
C1754 C1753 1.379 . S
H1755 C1749 0.959 . S
H1756 C1749 0.961 . S
H1757 C1749 0.960 . S
H1758 C1750 0.930 . S
H1759 C1751 0.929 . S
H1760 C1768 0.929 . S
H1761 C1770 0.930 . S
H1762 C1772 0.930 . S
H1763 C1775 0.929 . S
H1764 C1778 0.930 . S
H1765 C1780 0.960 . S
H1766 C1780 0.960 . S
H1767 C1780 0.960 . S
C1768 H1760 0.929 . S
C1768 C1769 1.377 . S
C1768 C1770 1.384 . S
C1769 C1768 1.377 . S
C1769 C1775 1.390 . S
C1770 H1761 0.930 . S
C1770 C1768 1.384 . S
C1770 C1771 1.372 . S
C1771 C1770 1.372 . S
C1771 C1772 1.400 . S
C1771 C1776 1.490 . S
C1772 H1762 0.930 . S
C1772 C1771 1.400 . S
C1772 C1775 1.386 . S
H1773 C1789 0.930 . S
H1774 C1790 0.931 . S
C1775 H1763 0.929 . S
C1775 C1769 1.390 . S
C1775 C1772 1.386 . S
C1776 C1771 1.490 . S
C1776 C1778 1.395 . S
C1776 C1779 1.403 . S
H1777 C1783 0.930 . S
C1778 H1764 0.930 . S
C1778 C1776 1.395 . S
C1778 C1781 1.403 . S
C1779 C1776 1.403 . S
C1779 C1780 1.524 . S
C1779 C1783 1.400 . S
C1780 H1765 0.960 . S
C1780 H1766 0.960 . S
C1780 H1767 0.960 . S
C1780 C1779 1.524 . S
C1781 C1778 1.403 . S
C1781 C1782 1.392 . S
C1781 C1785 1.495 . S
C1782 C1781 1.392 . S
C1782 C1783 1.385 . S
C1782 C1784 1.478 . S
C1783 H1777 0.930 . S
C1783 C1779 1.400 . S
C1783 C1782 1.385 . S
C1784 C1782 1.478 . S
C1784 C1786 1.381 . S
C1784 C1790 1.383 . S
C1785 C1781 1.495 . S
C1785 H1791 0.959 . S
C1785 H1792 0.961 . S
C1785 H1793 0.960 . S
C1786 C1784 1.381 . S
C1786 C1787 1.394 . S
C1786 H1794 0.930 . S
C1787 C1786 1.394 . S
C1787 C1788 1.383 . S
C1787 H1795 0.929 . S
C1788 C1787 1.383 . S
C1788 C1789 1.377 . S
C1789 H1773 0.930 . S
C1789 C1788 1.377 . S
C1789 C1790 1.379 . S
C1790 H1774 0.931 . S
C1790 C1784 1.383 . S
C1790 C1789 1.379 . S
H1791 C1785 0.959 . S
H1792 C1785 0.961 . S
H1793 C1785 0.960 . S
H1794 C1786 0.930 . S
H1795 C1787 0.929 . S
H1796 C1804 0.929 . S
H1797 C1806 0.930 . S
H1798 C1808 0.930 . S
H1799 C1811 0.929 . S
H1800 C1814 0.930 . S
H1801 C1816 0.960 . S
H1802 C1816 0.955 1_565 S
H1803 C1816 0.960 . S
C1804 H1796 0.929 . S
C1804 C1805 1.377 . S
C1804 C1806 1.384 . S
C1805 C1804 1.377 . S
C1805 C1811 1.390 . S
C1806 H1797 0.930 . S
C1806 C1804 1.384 . S
C1806 C1807 1.372 . S
C1807 C1806 1.372 . S
C1807 C1808 1.400 . S
C1807 C1812 1.490 . S
C1808 H1798 0.930 . S
C1808 C1807 1.400 . S
C1808 C1811 1.386 . S
H1809 C1825 0.930 . S
H1810 C1826 0.931 . S
C1811 H1799 0.929 . S
C1811 C1805 1.390 . S
C1811 C1808 1.386 . S
C1812 C1807 1.490 . S
C1812 C1814 1.395 . S
C1812 C1815 1.403 . S
H1813 C1819 0.930 1_545 S
C1814 H1800 0.930 . S
C1814 C1812 1.395 . S
C1814 C1817 1.403 . S
C1815 C1812 1.403 . S
C1815 C1816 1.524 1_565 S
C1815 C1819 1.400 . S
C1816 H1801 0.960 . S
C1816 H1802 0.955 1_545 S
C1816 H1803 0.960 . S
C1816 C1815 1.524 1_545 S
C1817 C1814 1.403 . S
C1817 C1818 1.392 . S
C1817 C1821 1.495 . S
C1818 C1817 1.392 . S
C1818 C1819 1.385 . S
C1818 C1820 1.478 . S
C1819 H1813 0.930 1_565 S
C1819 C1815 1.400 . S
C1819 C1818 1.385 . S
C1820 C1818 1.478 . S
C1820 C1822 1.381 . S
C1820 C1826 1.383 1_565 S
C1821 C1817 1.495 . S
C1821 H1827 0.959 . S
C1821 H1828 0.961 . S
C1821 H1829 0.960 . S
C1822 C1820 1.381 . S
C1822 C1823 1.394 . S
C1822 H1830 0.930 . S
C1823 C1822 1.394 . S
C1823 C1824 1.383 1_565 S
C1823 H1831 0.929 . S
C1824 C1823 1.383 1_545 S
C1824 C1825 1.377 . S
C1825 H1809 0.930 . S
C1825 C1824 1.377 . S
C1825 C1826 1.379 . S
C1826 H1810 0.931 . S
C1826 C1820 1.383 1_545 S
C1826 C1825 1.379 . S
H1827 C1821 0.959 . S
H1828 C1821 0.961 . S
H1829 C1821 0.960 . S
H1830 C1822 0.930 . S
H1831 C1823 0.929 . S
H1832 C1840 0.929 . S
H1833 C1842 0.930 . S
H1834 C1844 0.930 . S
H1835 C1847 0.929 . S
H1836 C1850 0.930 . S
H1837 C1852 0.960 . S
H1838 C1852 0.960 . S
H1839 C1852 0.960 . S
C1840 H1832 0.929 . S
C1840 C1841 1.377 . S
C1840 C1842 1.384 . S
C1841 C1840 1.377 . S
C1841 C1847 1.390 . S
C1842 H1833 0.930 . S
C1842 C1840 1.384 . S
C1842 C1843 1.372 . S
C1843 C1842 1.372 . S
C1843 C1844 1.400 . S
C1843 C1848 1.490 . S
C1844 H1834 0.930 . S
C1844 C1843 1.400 . S
C1844 C1847 1.386 . S
H1845 C1861 0.930 . S
H1846 C1862 0.931 . S
C1847 H1835 0.929 . S
C1847 C1841 1.390 . S
C1847 C1844 1.386 . S
C1848 C1843 1.490 . S
C1848 C1850 1.395 . S
C1848 C1851 1.403 . S
H1849 C1855 0.930 . S
C1850 H1836 0.930 . S
C1850 C1848 1.395 . S
C1850 C1853 1.403 . S
C1851 C1848 1.403 . S
C1851 C1852 1.524 . S
C1851 C1855 1.400 . S
C1852 H1837 0.960 . S
C1852 H1838 0.960 . S
C1852 H1839 0.960 . S
C1852 C1851 1.524 . S
C1853 C1850 1.403 . S
C1853 C1854 1.392 . S
C1853 C1857 1.495 . S
C1854 C1853 1.392 . S
C1854 C1855 1.385 . S
C1854 C1856 1.478 . S
C1855 H1849 0.930 . S
C1855 C1851 1.400 . S
C1855 C1854 1.385 . S
C1856 C1854 1.478 . S
C1856 C1858 1.381 . S
C1856 C1862 1.383 . S
C1857 C1853 1.495 . S
C1857 H1863 0.959 . S
C1857 H1864 0.961 . S
C1857 H1865 0.960 . S
C1858 C1856 1.381 . S
C1858 C1859 1.344 1_556 S
C1858 H1866 0.930 . S
C1859 C1858 1.344 1_554 S
C1859 C1860 1.400 . S
C1859 H1867 0.965 . S
C1860 C1859 1.400 . S
C1860 C1861 1.377 1_554 S
C1861 H1845 0.930 . S
C1861 C1860 1.377 1_556 S
C1861 C1862 1.379 . S
C1862 H1846 0.931 . S
C1862 C1856 1.383 . S
C1862 C1861 1.379 . S
H1863 C1857 0.959 . S
H1864 C1857 0.961 . S
H1865 C1857 0.960 . S
H1866 C1858 0.930 . S
H1867 C1859 0.965 . S
H1868 C1876 0.929 . S
H1869 C1878 0.930 . S
H1870 C1880 0.930 . S
H1871 C1883 0.929 . S
H1872 C1886 0.930 1_565 S
H1873 C1888 0.960 . S
H1874 C1888 0.960 . S
H1875 C1888 0.960 . S
C1876 H1868 0.929 . S
C1876 C1877 1.377 . S
C1876 C1878 1.384 . S
C1877 C1876 1.377 . S
C1877 C1883 1.390 1_565 S
C1878 H1869 0.930 . S
C1878 C1876 1.384 . S
C1878 C1879 1.372 1_565 S
C1879 C1878 1.372 1_545 S
C1879 C1880 1.400 . S
C1879 C1884 1.490 . S
C1880 H1870 0.930 . S
C1880 C1879 1.400 . S
C1880 C1883 1.386 . S
H1881 C1897 0.930 . S
H1882 C1898 0.931 . S
C1883 H1871 0.929 . S
C1883 C1877 1.390 1_545 S
C1883 C1880 1.386 . S
C1884 C1879 1.490 . S
C1884 C1886 1.395 . S
C1884 C1887 1.403 . S
H1885 C1891 0.930 . S
C1886 H1872 0.930 1_545 S
C1886 C1884 1.395 . S
C1886 C1889 1.403 . S
C1887 C1884 1.403 . S
C1887 C1888 1.524 . S
C1887 C1891 1.400 . S
C1888 H1873 0.960 . S
C1888 H1874 0.960 . S
C1888 H1875 0.960 . S
C1888 C1887 1.524 . S
C1889 C1886 1.403 . S
C1889 C1890 1.392 . S
C1889 C1893 1.495 1_545 S
C1890 C1889 1.392 . S
C1890 C1891 1.385 . S
C1890 C1892 1.478 . S
C1891 H1885 0.930 . S
C1891 C1887 1.400 . S
C1891 C1890 1.385 . S
C1892 C1890 1.478 . S
C1892 C1894 1.381 . S
C1892 C1898 1.383 . S
C1893 C1889 1.495 1_565 S
C1893 H1899 0.959 . S
C1893 H1900 0.961 1_565 S
C1893 H1901 0.960 . S
C1894 C1892 1.381 . S
C1894 C1895 1.394 . S
C1894 H1902 0.930 . S
C1895 C1894 1.394 . S
C1895 C1896 1.383 . S
C1895 H1903 0.929 . S
C1896 C1895 1.383 . S
C1896 C1897 1.377 . S
C1897 H1881 0.930 . S
C1897 C1896 1.377 . S
C1897 C1898 1.379 . S
C1898 H1882 0.931 . S
C1898 C1892 1.383 . S
C1898 C1897 1.379 . S
H1899 C1893 0.959 . S
H1900 C1893 0.961 1_545 S
H1901 C1893 0.960 . S
H1902 C1894 0.930 . S
H1903 C1895 0.929 . S
H1904 C1912 0.929 . S
H1905 C1914 0.930 . S
H1906 C1916 0.930 . S
H1907 C1919 0.929 . S
H1908 C1922 0.930 . S
H1909 C1924 0.960 . S
H1910 C1924 0.960 . S
H1911 C1924 0.960 . S
C1912 H1904 0.929 . S
C1912 C1913 1.377 . S
C1912 C1914 1.384 . S
C1913 C1912 1.377 . S
C1913 C1919 1.390 . S
C1914 H1905 0.930 . S
C1914 C1912 1.384 . S
C1914 C1915 1.372 . S
C1915 C1914 1.372 . S
C1915 C1916 1.400 . S
C1915 C1920 1.490 . S
C1916 H1906 0.930 . S
C1916 C1915 1.400 . S
C1916 C1919 1.386 . S
H1917 C1933 0.930 . S
H1918 C1934 0.931 . S
C1919 H1907 0.929 . S
C1919 C1913 1.390 . S
C1919 C1916 1.386 . S
C1920 C1915 1.490 . S
C1920 C1922 1.395 . S
C1920 C1923 1.403 . S
H1921 C1927 0.930 . S
C1922 H1908 0.930 . S
C1922 C1920 1.395 . S
C1922 C1925 1.403 . S
C1923 C1920 1.403 . S
C1923 C1924 1.524 . S
C1923 C1927 1.400 . S
C1924 H1909 0.960 . S
C1924 H1910 0.960 . S
C1924 H1911 0.960 . S
C1924 C1923 1.524 . S
C1925 C1922 1.403 . S
C1925 C1926 1.392 . S
C1925 C1929 1.495 . S
C1926 C1925 1.392 . S
C1926 C1927 1.385 . S
C1926 C1928 1.478 . S
C1927 H1921 0.930 . S
C1927 C1923 1.400 . S
C1927 C1926 1.385 . S
C1928 C1926 1.478 . S
C1928 C1930 1.381 . S
C1928 C1934 1.383 . S
C1929 C1925 1.495 . S
C1929 H1935 0.959 . S
C1929 H1936 0.961 . S
C1929 H1937 0.960 . S
C1930 C1928 1.381 . S
C1930 C1931 1.394 . S
C1930 H1938 0.930 . S
C1931 C1930 1.394 . S
C1931 C1932 1.383 . S
C1931 H1939 0.929 . S
C1932 C1931 1.383 . S
C1932 C1933 1.377 . S
C1933 H1917 0.930 . S
C1933 C1932 1.377 . S
C1933 C1934 1.379 . S
C1934 H1918 0.931 . S
C1934 C1928 1.383 . S
C1934 C1933 1.379 . S
H1935 C1929 0.959 . S
H1936 C1929 0.961 . S
H1937 C1929 0.960 . S
H1938 C1930 0.930 . S
H1939 C1931 0.929 . S
H1940 C1948 0.929 . S
H1941 C1950 0.930 . S
H1942 C1952 0.930 . S
H1943 C1955 0.929 . S
H1944 C1958 0.930 . S
H1945 C1960 0.960 1_565 S
H1946 C1960 0.960 . S
H1947 C1960 0.960 . S
C1948 H1940 0.929 . S
C1948 C1949 1.377 . S
C1948 C1950 1.384 . S
C1949 C1948 1.377 . S
C1949 C1955 1.390 . S
C1950 H1941 0.930 . S
C1950 C1948 1.384 . S
C1950 C1951 1.372 . S
C1951 C1950 1.372 . S
C1951 C1952 1.400 . S
C1951 C1956 1.490 . S
C1952 H1942 0.930 . S
C1952 C1951 1.400 . S
C1952 C1955 1.386 . S
H1953 C1969 0.930 . S
H1954 C1970 0.931 . S
C1955 H1943 0.929 . S
C1955 C1949 1.390 . S
C1955 C1952 1.386 . S
C1956 C1951 1.490 . S
C1956 C1958 1.395 . S
C1956 C1959 1.403 . S
H1957 C1963 0.930 1_565 S
C1958 H1944 0.930 . S
C1958 C1956 1.395 . S
C1958 C1961 1.403 . S
C1959 C1956 1.403 . S
C1959 C1960 1.524 . S
C1959 C1963 1.400 . S
C1960 H1945 0.960 1_545 S
C1960 H1946 0.960 . S
C1960 H1947 0.960 . S
C1960 C1959 1.524 . S
C1961 C1958 1.403 . S
C1961 C1962 1.392 . S
C1961 C1965 1.495 . S
C1962 C1961 1.392 . S
C1962 C1963 1.385 . S
C1962 C1964 1.478 . S
C1963 H1957 0.930 1_545 S
C1963 C1959 1.400 . S
C1963 C1962 1.385 . S
C1964 C1962 1.478 . S
C1964 C1966 1.381 . S
C1964 C1970 1.383 1_545 S
C1965 C1961 1.495 . S
C1965 H1971 0.959 . S
C1965 H1972 0.961 . S
C1965 H1973 0.960 . S
C1966 C1964 1.381 . S
C1966 C1967 1.394 . S
C1966 H1974 0.930 . S
C1967 C1966 1.394 . S
C1967 C1968 1.383 1_545 S
C1967 H1975 0.929 . S
C1968 C1967 1.383 1_565 S
C1968 C1969 1.377 . S
C1969 H1953 0.930 . S
C1969 C1968 1.377 . S
C1969 C1970 1.379 . S
C1970 H1954 0.931 . S
C1970 C1964 1.383 1_565 S
C1970 C1969 1.379 . S
H1971 C1965 0.959 . S
H1972 C1965 0.961 . S
H1973 C1965 0.960 . S
H1974 C1966 0.930 . S
H1975 C1967 0.929 . S
H1976 C1984 0.929 . S
H1977 C1986 0.930 . S
H1978 C1988 0.930 . S
H1979 C1991 0.929 . S
H1980 C1994 0.930 . S
H1981 C1996 0.960 . S
H1982 C1996 0.960 . S
H1983 C1996 0.960 . S
C1984 H1976 0.929 . S
C1984 C1985 1.377 . S
C1984 C1986 1.384 . S
C1985 C1984 1.377 . S
C1985 C1991 1.390 . S
C1986 H1977 0.930 . S
C1986 C1984 1.384 . S
C1986 C1987 1.372 . S
C1987 C1986 1.372 . S
C1987 C1988 1.400 . S
C1987 C1992 1.490 . S
C1988 H1978 0.930 . S
C1988 C1987 1.400 . S
C1988 C1991 1.386 . S
H1989 C2005 0.930 . S
H1990 C2006 0.931 . S
C1991 H1979 0.929 . S
C1991 C1985 1.390 . S
C1991 C1988 1.386 . S
C1992 C1987 1.490 . S
C1992 C1994 1.395 . S
C1992 C1995 1.403 . S
H1993 C1999 0.930 . S
C1994 H1980 0.930 . S
C1994 C1992 1.395 . S
C1994 C1997 1.403 . S
C1995 C1992 1.403 . S
C1995 C1996 1.524 . S
C1995 C1999 1.400 . S
C1996 H1981 0.960 . S
C1996 H1982 0.960 . S
C1996 H1983 0.960 . S
C1996 C1995 1.524 . S
C1997 C1994 1.403 . S
C1997 C1998 1.392 . S
C1997 C2001 1.495 . S
C1998 C1997 1.392 . S
C1998 C1999 1.385 . S
C1998 C2000 1.478 . S
C1999 H1993 0.930 . S
C1999 C1995 1.400 . S
C1999 C1998 1.385 . S
C2000 C1998 1.478 . S
C2000 C2002 1.381 . S
C2000 C2006 1.383 . S
C2001 C1997 1.495 . S
C2001 H2007 0.959 . S
C2001 H2008 0.961 . S
C2001 H2009 0.960 . S
C2002 C2000 1.381 . S
C2002 C2003 1.394 1_554 S
C2002 H2010 0.930 . S
C2003 C2002 1.394 1_556 S
C2003 C2004 1.383 . S
C2003 H2011 0.929 . S
C2004 C2003 1.383 . S
C2004 C2005 1.377 1_556 S
C2005 H1989 0.930 . S
C2005 C2004 1.377 1_554 S
C2005 C2006 1.379 . S
C2006 H1990 0.931 . S
C2006 C2000 1.383 . S
C2006 C2005 1.379 . S
H2007 C2001 0.959 . S
H2008 C2001 0.961 . S
H2009 C2001 0.960 . S
H2010 C2002 0.930 . S
H2011 C2003 0.929 . S
H2012 C2020 0.929 . S
H2013 C2022 0.930 . S
H2014 C2024 0.930 . S
H2015 C2027 0.929 . S
H2016 C2030 0.930 . S
H2017 C2032 0.960 1_545 S
H2018 C2032 0.960 1_545 S
H2019 C2032 0.960 . S
C2020 H2012 0.929 . S
C2020 C2021 1.377 . S
C2020 C2022 1.384 . S
C2021 C2020 1.377 . S
C2021 C2027 1.390 . S
C2022 H2013 0.930 . S
C2022 C2020 1.384 . S
C2022 C2023 1.372 . S
C2023 C2022 1.372 . S
C2023 C2024 1.400 . S
C2023 C2028 1.490 . S
C2024 H2014 0.930 . S
C2024 C2023 1.400 . S
C2024 C2027 1.386 . S
H2025 C2041 0.929 1_545 S
H2026 C2042 0.931 . S
C2027 H2015 0.929 . S
C2027 C2021 1.390 . S
C2027 C2024 1.386 . S
C2028 C2023 1.490 . S
C2028 C2030 1.395 . S
C2028 C2031 1.403 . S
H2029 C2035 0.930 1_545 S
C2030 H2016 0.930 . S
C2030 C2028 1.395 . S
C2030 C2033 1.403 . S
C2031 C2028 1.403 . S
C2031 C2032 1.524 . S
C2031 C2035 1.400 . S
C2032 H2017 0.960 1_565 S
C2032 H2018 0.960 1_565 S
C2032 H2019 0.960 . S
C2032 C2031 1.524 . S
C2033 C2030 1.403 . S
C2033 C2034 1.392 . S
C2033 C2037 1.495 . S
C2034 C2033 1.392 . S
C2034 C2035 1.385 . S
C2034 C2036 1.478 . S
C2035 H2029 0.930 1_565 S
C2035 C2031 1.400 . S
C2035 C2034 1.385 . S
C2036 C2034 1.478 . S
C2036 C2038 1.381 . S
C2036 C2042 1.383 . S
C2037 C2033 1.495 . S
C2037 H2043 0.959 . S
C2037 H2044 0.961 . S
C2037 H2045 0.960 . S
C2038 C2036 1.381 . S
C2038 C2039 1.394 1_565 S
C2038 H2046 0.930 . S
C2039 C2038 1.394 1_545 S
C2039 C2040 1.383 . S
C2039 H2047 0.929 . S
C2040 C2039 1.383 . S
C2040 C2041 1.377 1_545 S
C2041 H2025 0.929 1_565 S
C2041 C2040 1.377 1_565 S
C2041 C2042 1.379 . S
C2042 H2026 0.931 . S
C2042 C2036 1.383 . S
C2042 C2041 1.379 . S
H2043 C2037 0.959 . S
H2044 C2037 0.961 . S
H2045 C2037 0.960 . S
H2046 C2038 0.930 . S
H2047 C2039 0.929 . S
C329 C1 0.389 . S
C348 C201 0.372 . S
C365 C21 0.387 . S
C384 C221 0.362 . S
C401 C41 0.386 . S
C420 C161 0.356 . S
C437 C181 0.377 . S
C456 C61 0.456 . S
C473 C89 0.394 . S
C492 C289 0.282 . S
C509 C309 0.379 . S
C528 C109 0.392 . S
C545 C249 0.383 . S
C564 C129 0.373 . S
C581 C149 0.396 . S
C600 C269 0.277 . S
C617 C19 2.384 . S
C636 C88 2.373 . S
C653 C39 2.379 . S
C672 C268 2.382 . S
C689 C59 2.378 . S
C708 C128 2.362 . S
C725 C79 2.384 . S
C744 C308 2.369 . S
C761 C108 2.385 . S
C780 C199 2.391 . S
C797 C239 2.384 . S
C816 C148 2.374 . S
C833 C248 2.379 . S
C852 C179 2.381 . S
C869 C219 2.378 . S
C888 C288 2.366 . S
C905 C8 1.138 . S
C924 C141 1.233 . S
C941 C28 1.139 . S
C960 C241 1.234 . S
C977 C48 1.152 . S
C996 C101 1.225 . S
C1013 C68 1.141 . S
C1032 C281 1.238 . S
C1049 C69 1.234 . S
C1068 C99 1.161 . S
C1085 C119 1.148 . S
C1104 C169 1.229 . S
C1121 C139 1.155 . S
C1140 C29 1.231 . S
C1157 C209 1.234 . S
C1176 C159 1.177 . S
C1193 C168 1.149 . S
C1212 C301 1.242 . S
C1229 C81 1.235 . S
C1248 C188 1.175 . S
C1265 C261 1.237 . S
C1284 C208 1.103 . S
C1301 C121 1.237 . S
C1320 C228 1.188 . S
C1337 C259 1.159 . S
C1356 C229 1.226 . S
C1373 C279 1.150 . S
C1392 C9 1.237 . S
C1409 C189 1.236 . S
C1428 C299 1.170 . S
C1445 C319 1.150 . S
C1464 C49 1.228 . S
C1481 C6 1.777 . S
C1500 C196 1.737 . S
C1517 C216 1.726 . S
C1536 C26 1.761 . S
C1553 C46 1.773 . S
C1572 C236 1.705 . S
C1589 C176 1.729 . S
C1608 C66 1.788 . S
C1625 C266 1.725 . S
C1644 C96 1.754 . S
C1661 C286 1.729 . S
C1680 C116 1.791 . S
C1697 C306 1.726 . S
C1716 C136 1.793 . S
C1733 C246 1.728 . S
C1752 C156 1.792 . S
C1769 C36 1.727 . S
C1788 C166 1.765 . S
C1805 C56 1.723 . S
C1824 C186 1.753 . S
C1841 C76 1.732 . S
C1860 C206 1.792 . S
C1877 C226 1.775 . S
C1896 C16 1.708 . S
C1913 C106 1.726 . S
C1932 C256 1.792 . S
C1949 C126 1.730 . S
C1968 C276 1.755 . S
C1985 C146 1.732 . S
C2004 C296 1.765 . S
C2021 C86 1.723 . S
C2040 C316 1.757 . S
