# Generated by pormake.
# Topology umu, (4)-cn, num edge types: 1
# Building blocks:
#     Node 0, Type 0, BuildingBlock: CEKHIL_clean_sbu_0, # of connection points: 4
#     Node 1, Type 0, BuildingBlock: CEKHIL_clean_sbu_0, # of connection points: 4
#     Node 2, Type 0, BuildingBlock: CEKHIL_clean_sbu_0, # of connection points: 4
#     Node 3, Type 0, BuildingBlock: CEKHIL_clean_sbu_0, # of connection points: 4
#     Node 4, Type 0, BuildingBlock: CEKHIL_clean_sbu_0, # of connection points: 4
#     Node 5, Type 0, BuildingBlock: CEKHIL_clean_sbu_0, # of connection points: 4
#     Node 6, Type 0, BuildingBlock: CEKHIL_clean_sbu_0, # of connection points: 4
#     Node 7, Type 0, BuildingBlock: CEKHIL_clean_sbu_0, # of connection points: 4
#     Node 8, Type 0, BuildingBlock: CEKHIL_clean_sbu_0, # of connection points: 4
#     Node 9, Type 0, BuildingBlock: CEKHIL_clean_sbu_0, # of connection points: 4
#     Node 10, Type 0, BuildingBlock: CEKHIL_clean_sbu_0, # of connection points: 4
#     Node 11, Type 0, BuildingBlock: CEKHIL_clean_sbu_0, # of connection points: 4
#     Node 12, Type 0, BuildingBlock: CEKHIL_clean_sbu_0, # of connection points: 4
#     Node 13, Type 0, BuildingBlock: CEKHIL_clean_sbu_0, # of connection points: 4
#     Node 14, Type 0, BuildingBlock: CEKHIL_clean_sbu_0, # of connection points: 4
#     Node 15, Type 0, BuildingBlock: CEKHIL_clean_sbu_0, # of connection points: 4
#     Node 16, Type 0, BuildingBlock: CEKHIL_clean_sbu_0, # of connection points: 4
#     Node 17, Type 0, BuildingBlock: CEKHIL_clean_sbu_0, # of connection points: 4
#     Node 18, Type 0, BuildingBlock: CEKHIL_clean_sbu_0, # of connection points: 4
#     Node 19, Type 0, BuildingBlock: CEKHIL_clean_sbu_0, # of connection points: 4
#     Node 20, Type 0, BuildingBlock: CEKHIL_clean_sbu_0, # of connection points: 4
#     Node 21, Type 0, BuildingBlock: CEKHIL_clean_sbu_0, # of connection points: 4
#     Node 22, Type 0, BuildingBlock: CEKHIL_clean_sbu_0, # of connection points: 4
#     Node 23, Type 0, BuildingBlock: CEKHIL_clean_sbu_0, # of connection points: 4
#     Node 24, Type 0, BuildingBlock: CEKHIL_clean_sbu_0, # of connection points: 4
#     Node 25, Type 0, BuildingBlock: CEKHIL_clean_sbu_0, # of connection points: 4
#     Node 26, Type 0, BuildingBlock: CEKHIL_clean_sbu_0, # of connection points: 4
#     Node 27, Type 0, BuildingBlock: CEKHIL_clean_sbu_0, # of connection points: 4
#     Node 28, Type 0, BuildingBlock: CEKHIL_clean_sbu_0, # of connection points: 4
#     Node 29, Type 0, BuildingBlock: CEKHIL_clean_sbu_0, # of connection points: 4
#     Node 30, Type 0, BuildingBlock: CEKHIL_clean_sbu_0, # of connection points: 4
#     Node 31, Type 0, BuildingBlock: CEKHIL_clean_sbu_0, # of connection points: 4
#     Edge 32, Type (0, 0), BuildingBlock: KIFKEQ_clean_linker_1, # of connection points: 2
#     Edge 33, Type (0, 0), BuildingBlock: KIFKEQ_clean_linker_1, # of connection points: 2
#     Edge 34, Type (0, 0), BuildingBlock: KIFKEQ_clean_linker_1, # of connection points: 2
#     Edge 35, Type (0, 0), BuildingBlock: KIFKEQ_clean_linker_1, # of connection points: 2
#     Edge 36, Type (0, 0), BuildingBlock: KIFKEQ_clean_linker_1, # of connection points: 2
#     Edge 37, Type (0, 0), BuildingBlock: KIFKEQ_clean_linker_1, # of connection points: 2
#     Edge 38, Type (0, 0), BuildingBlock: KIFKEQ_clean_linker_1, # of connection points: 2
#     Edge 39, Type (0, 0), BuildingBlock: KIFKEQ_clean_linker_1, # of connection points: 2
#     Edge 40, Type (0, 0), BuildingBlock: KIFKEQ_clean_linker_1, # of connection points: 2
#     Edge 41, Type (0, 0), BuildingBlock: KIFKEQ_clean_linker_1, # of connection points: 2
#     Edge 42, Type (0, 0), BuildingBlock: KIFKEQ_clean_linker_1, # of connection points: 2
#     Edge 43, Type (0, 0), BuildingBlock: KIFKEQ_clean_linker_1, # of connection points: 2
#     Edge 44, Type (0, 0), BuildingBlock: KIFKEQ_clean_linker_1, # of connection points: 2
#     Edge 45, Type (0, 0), BuildingBlock: KIFKEQ_clean_linker_1, # of connection points: 2
#     Edge 46, Type (0, 0), BuildingBlock: KIFKEQ_clean_linker_1, # of connection points: 2
#     Edge 47, Type (0, 0), BuildingBlock: KIFKEQ_clean_linker_1, # of connection points: 2
#     Edge 48, Type (0, 0), BuildingBlock: KIFKEQ_clean_linker_1, # of connection points: 2
#     Edge 49, Type (0, 0), BuildingBlock: KIFKEQ_clean_linker_1, # of connection points: 2
#     Edge 50, Type (0, 0), BuildingBlock: KIFKEQ_clean_linker_1, # of connection points: 2
#     Edge 51, Type (0, 0), BuildingBlock: KIFKEQ_clean_linker_1, # of connection points: 2
#     Edge 52, Type (0, 0), BuildingBlock: KIFKEQ_clean_linker_1, # of connection points: 2
#     Edge 53, Type (0, 0), BuildingBlock: KIFKEQ_clean_linker_1, # of connection points: 2
#     Edge 54, Type (0, 0), BuildingBlock: KIFKEQ_clean_linker_1, # of connection points: 2
#     Edge 55, Type (0, 0), BuildingBlock: KIFKEQ_clean_linker_1, # of connection points: 2
#     Edge 56, Type (0, 0), BuildingBlock: KIFKEQ_clean_linker_1, # of connection points: 2
#     Edge 57, Type (0, 0), BuildingBlock: KIFKEQ_clean_linker_1, # of connection points: 2
#     Edge 58, Type (0, 0), BuildingBlock: KIFKEQ_clean_linker_1, # of connection points: 2
#     Edge 59, Type (0, 0), BuildingBlock: KIFKEQ_clean_linker_1, # of connection points: 2
#     Edge 60, Type (0, 0), BuildingBlock: KIFKEQ_clean_linker_1, # of connection points: 2
#     Edge 61, Type (0, 0), BuildingBlock: KIFKEQ_clean_linker_1, # of connection points: 2
#     Edge 62, Type (0, 0), BuildingBlock: KIFKEQ_clean_linker_1, # of connection points: 2
#     Edge 63, Type (0, 0), BuildingBlock: KIFKEQ_clean_linker_1, # of connection points: 2
#     Edge 64, Type (0, 0), BuildingBlock: KIFKEQ_clean_linker_1, # of connection points: 2
#     Edge 65, Type (0, 0), BuildingBlock: KIFKEQ_clean_linker_1, # of connection points: 2
#     Edge 66, Type (0, 0), BuildingBlock: KIFKEQ_clean_linker_1, # of connection points: 2
#     Edge 67, Type (0, 0), BuildingBlock: KIFKEQ_clean_linker_1, # of connection points: 2
#     Edge 68, Type (0, 0), BuildingBlock: KIFKEQ_clean_linker_1, # of connection points: 2
#     Edge 69, Type (0, 0), BuildingBlock: KIFKEQ_clean_linker_1, # of connection points: 2
#     Edge 70, Type (0, 0), BuildingBlock: KIFKEQ_clean_linker_1, # of connection points: 2
#     Edge 71, Type (0, 0), BuildingBlock: KIFKEQ_clean_linker_1, # of connection points: 2
#     Edge 72, Type (0, 0), BuildingBlock: KIFKEQ_clean_linker_1, # of connection points: 2
#     Edge 73, Type (0, 0), BuildingBlock: KIFKEQ_clean_linker_1, # of connection points: 2
#     Edge 74, Type (0, 0), BuildingBlock: KIFKEQ_clean_linker_1, # of connection points: 2
#     Edge 75, Type (0, 0), BuildingBlock: KIFKEQ_clean_linker_1, # of connection points: 2
#     Edge 76, Type (0, 0), BuildingBlock: KIFKEQ_clean_linker_1, # of connection points: 2
#     Edge 77, Type (0, 0), BuildingBlock: KIFKEQ_clean_linker_1, # of connection points: 2
#     Edge 78, Type (0, 0), BuildingBlock: KIFKEQ_clean_linker_1, # of connection points: 2
#     Edge 79, Type (0, 0), BuildingBlock: KIFKEQ_clean_linker_1, # of connection points: 2
#     Edge 80, Type (0, 0), BuildingBlock: KIFKEQ_clean_linker_1, # of connection points: 2
#     Edge 81, Type (0, 0), BuildingBlock: KIFKEQ_clean_linker_1, # of connection points: 2
#     Edge 82, Type (0, 0), BuildingBlock: KIFKEQ_clean_linker_1, # of connection points: 2
#     Edge 83, Type (0, 0), BuildingBlock: KIFKEQ_clean_linker_1, # of connection points: 2
#     Edge 84, Type (0, 0), BuildingBlock: KIFKEQ_clean_linker_1, # of connection points: 2
#     Edge 85, Type (0, 0), BuildingBlock: KIFKEQ_clean_linker_1, # of connection points: 2
#     Edge 86, Type (0, 0), BuildingBlock: KIFKEQ_clean_linker_1, # of connection points: 2
#     Edge 87, Type (0, 0), BuildingBlock: KIFKEQ_clean_linker_1, # of connection points: 2
#     Edge 88, Type (0, 0), BuildingBlock: KIFKEQ_clean_linker_1, # of connection points: 2
#     Edge 89, Type (0, 0), BuildingBlock: KIFKEQ_clean_linker_1, # of connection points: 2
#     Edge 90, Type (0, 0), BuildingBlock: KIFKEQ_clean_linker_1, # of connection points: 2
#     Edge 91, Type (0, 0), BuildingBlock: KIFKEQ_clean_linker_1, # of connection points: 2
#     Edge 92, Type (0, 0), BuildingBlock: KIFKEQ_clean_linker_1, # of connection points: 2
#     Edge 93, Type (0, 0), BuildingBlock: KIFKEQ_clean_linker_1, # of connection points: 2
#     Edge 94, Type (0, 0), BuildingBlock: KIFKEQ_clean_linker_1, # of connection points: 2
#     Edge 95, Type (0, 0), BuildingBlock: KIFKEQ_clean_linker_1, # of connection points: 2
# Relax obj value: 0.132
# Max RMSD: 0.097
# Mean RMSD: 0.097
data_MOF--net-umu--node1-CEKHIL_clean_sbu_0--edge1-KIFKEQ_clean_linker_1
_symmetry_space_group_name_H-M    P1
_symmetry_Int_Tables_number       1
_symmetry_cell_setting            triclinic
loop_
_symmetry_equiv_pos_as_xyz
'x, y, z'
_cell_length_a     81.695912
_cell_length_b     81.689018
_cell_length_c     26.333408
_cell_angle_alpha  89.978675
_cell_angle_beta   89.925049
_cell_angle_gamma 90.128954
loop_
_atom_site_label
_atom_site_type_symbol
_atom_site_fract_x
_atom_site_fract_y
_atom_site_fract_z
_atom_type_partial_charge
Co0 Co 0.22043 0.1716 0.08716 0.0
O1 O 0.21513 0.14907 0.07075 0.0
O2 O 0.19913 0.17021 0.05488 0.0
C3 C 0.23035 0.16704 0.16616 0.0
O4 O 0.22112 0.19644 0.09913 0.0
Co5 Co 0.2564 0.1827 0.11049 0.0
O6 O 0.2459 0.20364 0.12943 0.0
C7 C 0.24681 0.17252 0.00781 0.0
C8 C 0.20158 0.15453 0.05133 0.0
C9 C 0.23114 0.20701 0.11818 0.0
O10 O 0.23153 0.17397 0.01914 0.0
O11 O 0.25832 0.17372 0.04044 0.0
O12 O 0.21458 0.16796 0.15934 0.0
O13 O 0.23903 0.16745 0.12559 0.0
Co14 Co 0.11513 0.97093 0.33669 0.0
O15 O 0.1372 0.96629 0.31399 0.0
O16 O 0.11647 0.94898 0.30871 0.0
C17 C 0.12243 0.98289 0.41094 0.0
O18 O 0.0908 0.97069 0.35644 0.0
Co19 Co 0.10234 1.00613 0.36082 0.0
O20 O 0.08423 0.99432 0.39505 0.0
C21 C 0.10708 0.99522 0.2543 0.0
C22 C 0.13183 0.95204 0.29964 0.0
C23 C 0.08085 0.97967 0.3823 0.0
O24 O 0.10988 0.98034 0.26802 0.0
O25 O 0.10486 1.00706 0.28541 0.0
O26 O 0.12147 0.96698 0.40812 0.0
O27 O 0.11981 0.99056 0.36928 0.0
Co28 Co 0.3133 0.86411 0.58418 0.0
O29 O 0.32086 0.88599 0.5691 0.0
O30 O 0.3351 0.86357 0.55406 0.0
C31 C 0.30306 0.86977 0.66217 0.0
O32 O 0.30981 0.83949 0.59593 0.0
Co33 Co 0.27617 0.85723 0.60365 0.0
O34 O 0.28417 0.83535 0.62456 0.0
C35 C 0.28802 0.86505 0.50071 0.0
C36 C 0.33405 0.87944 0.55073 0.0
C37 C 0.29849 0.83012 0.61417 0.0
O38 O 0.30297 0.86283 0.51465 0.0
O39 O 0.27593 0.86502 0.53167 0.0
O40 O 0.31863 0.86672 0.65705 0.0
O41 O 0.2949 0.87046 0.62067 0.0
Co42 Co 0.41751 0.06019 0.83646 0.0
O43 O 0.39546 0.06737 0.82241 0.0
O44 O 0.41768 0.08214 0.80799 0.0
C45 C 0.41236 0.04905 0.91367 0.0
O46 O 0.4422 0.05736 0.8471 0.0
Co47 Co 0.42561 0.02316 0.85333 0.0
O48 O 0.44737 0.03169 0.87354 0.0
C49 C 0.41627 0.03544 0.75228 0.0
C50 C 0.40184 0.08079 0.80474 0.0
C51 C 0.45204 0.04628 0.86396 0.0
O52 O 0.41876 0.05034 0.76634 0.0
O53 O 0.41664 0.02326 0.78283 0.0
O54 O 0.41484 0.06478 0.90991 0.0
O55 O 0.41182 0.04133 0.87138 0.0
Co56 Co 0.22605 0.86174 0.05788 0.0
O57 O 0.21914 0.88381 0.07324 0.0
O58 O 0.20523 0.86156 0.09383 0.0
C59 C 0.23393 0.8665 0.97701 0.0
O60 O 0.22882 0.83703 0.04719 0.0
Co61 Co 0.26243 0.85429 0.02952 0.0
O62 O 0.25378 0.83215 0.01439 0.0
C63 C 0.2536 0.86254 0.13482 0.0
C64 C 0.20642 0.87745 0.09538 0.0
C65 C 0.2396 0.82728 0.02803 0.0
O66 O 0.23828 0.86085 0.12436 0.0
O67 O 0.26491 0.862 0.10119 0.0
O68 O 0.21854 0.86387 0.98698 0.0
O69 O 0.24344 0.86752 0.01564 0.0
Co70 Co 0.42596 0.97328 0.31309 0.0
O71 O 0.40382 0.96584 0.32545 0.0
O72 O 0.42601 0.95232 0.34819 0.0
C73 C 0.42231 0.98158 0.23197 0.0
O74 O 0.4508 0.97671 0.3058 0.0
Co75 Co 0.43275 1.01024 0.28816 0.0
O76 O 0.45572 1.00282 0.28269 0.0
C77 C 0.42201 1.00034 0.38991 0.0
C78 C 0.4101 0.95319 0.34803 0.0
C79 C 0.46066 0.98841 0.29307 0.0
O80 O 0.42556 0.98531 0.38002 0.0
O81 O 0.4222 1.01166 0.35637 0.0
O82 O 0.42475 0.96612 0.24136 0.0
O83 O 0.42064 0.99075 0.2711 0.0
Co84 Co 0.30819 0.17081 0.56336 0.0
O85 O 0.31472 0.14886 0.58118 0.0
O86 O 0.33007 0.17085 0.59251 0.0
C87 C 0.29721 0.16424 0.48712 0.0
O88 O 0.3059 0.19544 0.54876 0.0
Co89 Co 0.27141 0.17946 0.543 0.0
O90 O 0.28042 0.20082 0.52107 0.0
C91 C 0.28302 0.17104 0.64569 0.0
C92 C 0.32828 0.15511 0.59807 0.0
C93 C 0.29505 0.20533 0.53069 0.0
O94 O 0.29804 0.17338 0.63257 0.0
O95 O 0.27109 0.17114 0.61425 0.0
O96 O 0.31296 0.16662 0.49067 0.0
O97 O 0.28934 0.16491 0.5291 0.0
Co98 Co 0.11175 0.05878 0.81182 0.0
O99 O 0.13398 0.06493 0.82896 0.0
O100 O 0.11219 0.08002 0.84495 0.0
C101 C 0.11692 0.04942 0.73235 0.0
O102 O 0.08695 0.05704 0.79892 0.0
Co103 Co 0.10263 0.02237 0.7871 0.0
O104 O 0.08081 0.03161 0.7721 0.0
C105 C 0.1111 0.03207 0.89104 0.0
C106 C 0.12795 0.07821 0.84864 0.0
C107 C 0.07668 0.04628 0.78219 0.0
O108 O 0.10954 0.04735 0.87963 0.0
O109 O 0.11077 0.02062 0.858 0.0
O110 O 0.11532 0.06509 0.73989 0.0
O111 O 0.11686 0.04058 0.77258 0.0
Co112 Co 0.81249 0.86697 0.06851 0.0
O113 O 0.81871 0.88893 0.08765 0.0
O114 O 0.83407 0.86704 0.09983 0.0
C115 C 0.80258 0.87336 -0.00908 0.0
O116 O 0.81042 0.84242 0.05326 0.0
Co117 Co 0.77599 0.85825 0.04336 0.0
O118 O 0.78547 0.83716 0.02093 0.0
C119 C 0.78624 0.86568 0.14826 0.0
C120 C 0.83212 0.88274 0.10564 0.0
C121 C 0.79991 0.83264 0.03272 0.0
O122 O 0.80148 0.86416 0.13645 0.0
O123 O 0.77464 0.86544 0.11564 0.0
O124 O 0.81826 0.87108 -0.00339 0.0
O125 O 0.7941 0.87285 0.0318 0.0
Co126 Co 0.92054 0.0623 0.8176 0.0
O127 O 0.89858 0.06797 0.83853 0.0
O128 O 0.92039 0.08338 0.8519 0.0
C129 C 0.91352 0.05344 0.73914 0.0
O130 O 0.94504 0.06108 0.80103 0.0
Co131 Co 0.93036 0.02686 0.78501 0.0
O132 O 0.95035 0.03779 0.75865 0.0
C133 C 0.92534 0.03501 0.89371 0.0
C134 C 0.9047 0.08131 0.85753 0.0
C135 C 0.9547 0.0518 0.77519 0.0
O136 O 0.92417 0.05043 0.88377 0.0
O137 O 0.9265 0.02395 0.85945 0.0
O138 O 0.91583 0.06903 0.74696 0.0
O139 O 0.91469 0.04428 0.77847 0.0
Co140 Co 0.72254 0.16983 0.5682 0.0
O141 O 0.71641 0.14747 0.58394 0.0
O142 O 0.70076 0.16903 0.59776 0.0
C143 C 0.73349 0.16519 0.49049 0.0
O144 O 0.72418 0.19465 0.55587 0.0
Co145 Co 0.75923 0.17945 0.55131 0.0
O146 O 0.74995 0.20097 0.53246 0.0
C147 C 0.74756 0.16933 0.6514 0.0
C148 C 0.70277 0.15329 0.6018 0.0
C149 C 0.73507 0.20495 0.53998 0.0
O150 O 0.73264 0.17192 0.63784 0.0
O151 O 0.75961 0.16967 0.62046 0.0
O152 O 0.71766 0.16645 0.49528 0.0
O153 O 0.74152 0.16512 0.53228 0.0
Co154 Co 0.61769 0.97264 0.31687 0.0
O155 O 0.63965 0.96575 0.33375 0.0
O156 O 0.61743 0.95077 0.34583 0.0
C157 C 0.62378 0.98366 0.23999 0.0
O158 O 0.59309 0.97508 0.30377 0.0
Co159 Co 0.60894 1.00937 0.2966 0.0
O160 O 0.5879 1.00013 0.27218 0.0
C161 C 0.61684 0.9978 0.39996 0.0
C162 C 0.6332 0.95227 0.35083 0.0
C163 C 0.58336 0.98566 0.28368 0.0
O164 O 0.61537 0.98272 0.38633 0.0
O165 O 0.61639 1.00983 0.36883 0.0
O166 O 0.62139 0.96791 0.2439 0.0
O167 O 0.62353 0.99151 0.28205 0.0
Co168 Co 0.81088 0.17444 0.09036 0.0
O169 O 0.81622 0.15212 0.07225 0.0
O170 O 0.83257 0.17334 0.06014 0.0
C171 C 0.79995 0.16823 0.16713 0.0
O172 O 0.81019 0.19919 0.1048 0.0
Co173 Co 0.77522 0.18597 0.11537 0.0
O174 O 0.78626 0.20577 0.14188 0.0
C175 C 0.78497 0.17647 0.01103 0.0
C176 C 0.83007 0.15769 0.05508 0.0
C177 C 0.80076 0.2094 0.12805 0.0
O178 O 0.80032 0.17748 0.02197 0.0
O179 O 0.77354 0.17795 0.04398 0.0
O180 O 0.81578 0.16983 0.16274 0.0
O181 O 0.79189 0.1697 0.12579 0.0
Co182 Co 0.60938 0.06052 0.84051 0.0
O183 O 0.63193 0.06574 0.82384 0.0
O184 O 0.61082 0.08173 0.80762 0.0
C185 C 0.614 0.05079 0.91982 0.0
O186 O 0.58451 0.06 0.85241 0.0
Co187 Co 0.59791 0.02478 0.86542 0.0
O188 O 0.57711 0.03553 0.88466 0.0
C189 C 0.60822 0.03392 0.76202 0.0
C190 C 0.62649 0.07927 0.80409 0.0
C191 C 0.57384 0.05022 0.87219 0.0
O192 O 0.607 0.04926 0.7728 0.0
O193 O 0.60673 0.02253 0.79507 0.0
O194 O 0.61307 0.06654 0.91249 0.0
O195 O 0.61344 0.04198 0.87956 0.0
Co196 Co 0.72514 0.86067 0.59315 0.0
O197 O 0.71859 0.88273 0.5767 0.0
O198 O 0.70336 0.8608 0.56314 0.0
C199 C 0.73581 0.86673 0.67018 0.0
O200 O 0.72754 0.83598 0.60626 0.0
Co201 Co 0.76197 0.85225 0.61394 0.0
O202 O 0.75296 0.83078 0.63487 0.0
C203 C 0.75059 0.86116 0.51141 0.0
C204 C 0.70513 0.87658 0.55877 0.0
C205 C 0.73842 0.82615 0.62453 0.0
O206 O 0.73554 0.85868 0.52407 0.0
O207 O 0.76244 0.86092 0.5431 0.0
O208 O 0.72009 0.86426 0.66601 0.0
O209 O 0.74381 0.86643 0.62842 0.0
Co210 Co 0.92576 0.97558 0.34217 0.0
O211 O 0.9038 0.9712 0.3186 0.0
O212 O 0.92416 0.95347 0.31498 0.0
C213 C 0.91835 0.98768 0.41613 0.0
O214 O 0.95 0.97541 0.363 0.0
Co215 Co 0.938 1.01125 0.36376 0.0
O216 O 0.95697 1.00003 0.3946 0.0
C217 C 0.93354 0.99955 0.25821 0.0
C218 C 0.90895 0.95683 0.30489 0.0
C219 C 0.96027 0.9851 0.3851 0.0
O220 O 0.93139 0.98467 0.27312 0.0
O221 O 0.93508 1.0117 0.28853 0.0
O222 O 0.91916 0.97178 0.41349 0.0
O223 O 0.92098 0.99528 0.37427 0.0
Co224 Co 0.72275 0.66959 0.58775 0.0
O225 O 0.71658 0.64754 0.56898 0.0
O226 O 0.70089 0.66928 0.55871 0.0
C227 C 0.73381 0.66302 0.66402 0.0
O228 O 0.7244 0.69415 0.60312 0.0
Co229 Co 0.75906 0.6796 0.60997 0.0
O230 O 0.74898 0.6998 0.6375 0.0
C231 C 0.74807 0.67205 0.50553 0.0
C232 C 0.70287 0.6536 0.55266 0.0
C233 C 0.73448 0.70397 0.62542 0.0
O234 O 0.73289 0.67285 0.51869 0.0
O235 O 0.75996 0.6728 0.5371 0.0
O236 O 0.71802 0.66499 0.66023 0.0
O237 O 0.74174 0.66409 0.62218 0.0
Co238 Co 0.61082 0.47209 0.83759 0.0
O239 O 0.63298 0.46753 0.81607 0.0
O240 O 0.6123 0.45021 0.80874 0.0
C241 C 0.6176 0.48351 0.91291 0.0
O242 O 0.58632 0.47215 0.85551 0.0
Co243 Co 0.59864 0.50758 0.86191 0.0
O244 O 0.57993 0.49597 0.89351 0.0
C245 C 0.60426 0.49694 0.75564 0.0
C246 C 0.6277 0.45338 0.80058 0.0
C247 C 0.57633 0.4814 0.88035 0.0
O248 O 0.60625 0.48191 0.76906 0.0
O249 O 0.60223 0.50875 0.78696 0.0
O250 O 0.61646 0.46764 0.90925 0.0
O251 O 0.61551 0.49145 0.87146 0.0
Co252 Co 0.80997 0.36572 0.09086 0.0
O253 O 0.81637 0.3876 0.07095 0.0
O254 O 0.83112 0.36547 0.05668 0.0
C255 C 0.80111 0.37247 0.16968 0.0
O256 O 0.8078 0.34118 0.10661 0.0
Co257 Co 0.77382 0.35738 0.12104 0.0
O258 O 0.78328 0.33616 0.14236 0.0
C259 C 0.78276 0.36305 0.01361 0.0
C260 C 0.82948 0.38123 0.05143 0.0
C261 C 0.79747 0.33147 0.12844 0.0
O262 O 0.79817 0.3628 0.02416 0.0
O263 O 0.7715 0.36268 0.04744 0.0
O264 O 0.81665 0.36985 0.16201 0.0
O265 O 0.7921 0.37195 0.12995 0.0
Co266 Co 0.91912 0.56204 0.33644 0.0
O267 O 0.89691 0.5675 0.31716 0.0
O268 O 0.91827 0.58375 0.30651 0.0
C269 C 0.9127 0.55098 0.413 0.0
O270 O 0.94374 0.5613 0.35195 0.0
Co271 Co 0.93039 0.52628 0.3608 0.0
O272 O 0.95021 0.5372 0.38808 0.0
C273 C 0.92222 0.53641 0.25586 0.0
C274 C 0.90267 0.58131 0.30029 0.0
C275 C 0.95388 0.55177 0.37497 0.0
O276 O 0.92267 0.5517 0.26791 0.0
O277 O 0.92343 0.52478 0.28823 0.0
O278 O 0.91426 0.56682 0.40879 0.0
O279 O 0.91416 0.54298 0.37148 0.0
Co280 Co 0.72239 0.3609 0.56692 0.0
O281 O 0.7181 0.38315 0.58846 0.0
O282 O 0.70035 0.36278 0.59407 0.0
C283 C 0.73461 0.36753 0.49227 0.0
O284 O 0.72188 0.33645 0.54898 0.0
Co285 Co 0.75758 0.34763 0.54482 0.0
O286 O 0.74574 0.32911 0.51305 0.0
C287 C 0.74636 0.35336 0.65062 0.0
C288 C 0.70372 0.37809 0.60272 0.0
C289 C 0.73096 0.32606 0.52526 0.0
O290 O 0.73152 0.35595 0.6362 0.0
O291 O 0.75831 0.35097 0.61998 0.0
O292 O 0.71868 0.36681 0.49499 0.0
O293 O 0.74217 0.36512 0.53423 0.0
Co294 Co 0.92329 0.4735 0.81296 0.0
O295 O 0.90074 0.4682 0.82922 0.0
O296 O 0.92179 0.45198 0.84401 0.0
C297 C 0.91868 0.48395 0.73451 0.0
O298 O 0.94815 0.47413 0.80094 0.0
Co299 Co 0.9347 0.50946 0.79123 0.0
O300 O 0.95538 0.49884 0.7701 0.0
C301 C 0.92451 0.49936 0.89373 0.0
C302 C 0.90612 0.45448 0.84775 0.0
C303 C 0.95874 0.48408 0.78153 0.0
O304 O 0.92577 0.48413 0.88162 0.0
O305 O 0.92585 0.51105 0.86167 0.0
O306 O 0.91957 0.46814 0.74048 0.0
O307 O 0.91922 0.49237 0.77555 0.0
Co308 Co 0.81092 0.67556 0.06323 0.0
O309 O 0.81552 0.65296 0.08071 0.0
O310 O 0.8322 0.67374 0.09525 0.0
C311 C 0.80075 0.67077 0.98458 0.0
O312 O 0.81114 0.70035 0.05018 0.0
Co313 Co 0.77556 0.68799 0.039 0.0
O314 O 0.78699 0.70821 0.01712 0.0
C315 C 0.78466 0.67802 0.14267 0.0
C316 C 0.8293 0.65815 0.09952 0.0
C317 C 0.80177 0.71114 0.0295 0.0
O318 O 0.8 0.67861 0.13127 0.0
O319 O 0.77322 0.67972 0.10996 0.0
O320 O 0.81655 0.67133 -0.00876 0.0
O321 O 0.79211 0.6718 0.02515 0.0
Co322 Co 0.61216 0.55947 0.31296 0.0
O323 O 0.63406 0.56631 0.33041 0.0
O324 O 0.61184 0.58088 0.34553 0.0
C325 C 0.61857 0.55008 0.23464 0.0
O326 O 0.58754 0.55671 0.2993 0.0
Co327 Co 0.60441 0.52286 0.28642 0.0
O328 O 0.58282 0.5317 0.26652 0.0
C329 C 0.61126 0.53284 0.39214 0.0
C330 C 0.62766 0.57947 0.34949 0.0
C331 C 0.57791 0.54592 0.27937 0.0
O332 O 0.61006 0.54814 0.3807 0.0
O333 O 0.61105 0.52136 0.35911 0.0
O334 O 0.6157 0.56563 0.24098 0.0
O335 O 0.61841 0.54143 0.27517 0.0
Co336 Co 0.31195 0.36207 0.56507 0.0
O337 O 0.31838 0.38424 0.5812 0.0
O338 O 0.33347 0.36242 0.59677 0.0
C339 C 0.30215 0.3677 0.4866 0.0
O340 O 0.30982 0.33735 0.55286 0.0
Co341 Co 0.27566 0.35289 0.54135 0.0
O342 O 0.2855 0.33223 0.51606 0.0
C343 C 0.28583 0.361 0.64612 0.0
C344 C 0.33172 0.37822 0.60025 0.0
C345 C 0.29972 0.3277 0.52999 0.0
O346 O 0.30106 0.3601 0.6336 0.0
O347 O 0.2741 0.35995 0.61404 0.0
O348 O 0.31777 0.36523 0.49276 0.0
O349 O 0.29354 0.36764 0.52735 0.0
Co350 Co 0.42088 0.56173 0.31257 0.0
O351 O 0.39878 0.56833 0.32939 0.0
O352 O 0.42093 0.58259 0.34824 0.0
C353 C 0.41556 0.55375 0.23204 0.0
O354 O 0.4456 0.55947 0.30066 0.0
Co355 Co 0.42947 0.52583 0.28227 0.0
O356 O 0.45054 0.53569 0.26046 0.0
C357 C 0.42268 0.53409 0.38956 0.0
C358 C 0.40508 0.5812 0.35081 0.0
C359 C 0.45523 0.5496 0.27686 0.0
O360 O 0.42245 0.5495 0.37895 0.0
O361 O 0.42412 0.52287 0.35592 0.0
O362 O 0.41815 0.56916 0.24175 0.0
O363 O 0.41514 0.54419 0.27072 0.0
Co364 Co 0.22318 0.67076 0.06596 0.0
O365 O 0.21739 0.64875 0.08617 0.0
O366 O 0.20136 0.67028 0.09573 0.0
C367 C 0.23392 0.66405 0.98938 0.0
O368 O 0.22461 0.69528 0.04968 0.0
Co369 Co 0.25938 0.68085 0.04153 0.0
O370 O 0.24905 0.70092 0.01406 0.0
C371 C 0.24882 0.67369 0.14685 0.0
C372 C 0.20365 0.65468 0.10271 0.0
C373 C 0.23458 0.70507 0.02673 0.0
O374 O 0.23358 0.67434 0.1344 0.0
O375 O 0.26056 0.67441 0.11467 0.0
O376 O 0.21815 0.66595 -0.00609 0.0
O377 O 0.24206 0.66526 0.03073 0.0
Co378 Co 0.11511 0.47364 0.81614 0.0
O379 O 0.13711 0.46661 0.83126 0.0
O380 O 0.11491 0.45187 0.84615 0.0
C381 C 0.12062 0.48415 0.7385 0.0
O382 O 0.09045 0.47648 0.8046 0.0
Co383 Co 0.10729 0.51062 0.79599 0.0
O384 O 0.0855 0.50201 0.77645 0.0
C385 C 0.11597 0.49905 0.89839 0.0
C386 C 0.13075 0.45327 0.84955 0.0
C387 C 0.08071 0.48753 0.78699 0.0
O388 O 0.11361 0.48403 0.88532 0.0
O389 O 0.11582 0.511 0.86697 0.0
O390 O 0.118 0.46846 0.74321 0.0
O391 O 0.12098 0.4922 0.78017 0.0
Co392 Co 0.31141 0.67297 0.59013 0.0
O393 O 0.31716 0.65079 0.57168 0.0
O394 O 0.33301 0.67232 0.55889 0.0
C395 C 0.30104 0.6666 0.66756 0.0
O396 O 0.31013 0.69764 0.60456 0.0
Co397 Co 0.27545 0.68328 0.61598 0.0
O398 O 0.28597 0.7036 0.64121 0.0
C399 C 0.2853 0.67545 0.51046 0.0
C400 C 0.33079 0.65662 0.55375 0.0
C401 C 0.30036 0.70765 0.62727 0.0
O402 O 0.30062 0.67598 0.52204 0.0
O403 O 0.27376 0.67651 0.54324 0.0
O404 O 0.31679 0.66865 0.66232 0.0
O405 O 0.2927 0.66767 0.62658 0.0
Co406 Co 0.11045 0.56118 0.33961 0.0
O407 O 0.13256 0.56692 0.32068 0.0
O408 O 0.11109 0.58282 0.30833 0.0
C409 C 0.1168 0.55099 0.417 0.0
O410 O 0.08576 0.55954 0.35469 0.0
Co411 Co 0.101 0.5248 0.36459 0.0
O412 O 0.08006 0.5346 0.38667 0.0
C413 C 0.1097 0.53501 0.26039 0.0
C414 C 0.12674 0.58048 0.30258 0.0
C415 C 0.07577 0.54912 0.375 0.0
O416 O 0.10769 0.55024 0.27159 0.0
O417 O 0.10921 0.52349 0.29332 0.0
O418 O 0.11471 0.56672 0.4117 0.0
O419 O 0.11593 0.54264 0.37601 0.0
Co420 Co 0.22435 0.36324 0.09198 0.0
O421 O 0.21757 0.38533 0.07638 0.0
O422 O 0.20324 0.36314 0.05808 0.0
C423 C 0.23303 0.36811 0.17198 0.0
O424 O 0.22679 0.33858 0.10296 0.0
Co425 Co 0.26073 0.35505 0.11754 0.0
O426 O 0.25178 0.33311 0.13428 0.0
C427 C 0.25123 0.36314 0.01265 0.0
C428 C 0.20461 0.37899 0.05564 0.0
C429 C 0.23741 0.32859 0.12151 0.0
O430 O 0.23596 0.3619 0.02445 0.0
O431 O 0.26279 0.36244 0.04533 0.0
O432 O 0.21752 0.36566 0.16348 0.0
O433 O 0.24222 0.36887 0.13248 0.0
Co434 Co 0.42047 0.47452 0.83997 0.0
O435 O 0.3985 0.46787 0.82189 0.0
O436 O 0.42058 0.45288 0.80918 0.0
C437 C 0.41415 0.48458 0.9177 0.0
O438 O 0.44504 0.47667 0.85458 0.0
Co439 Co 0.42943 0.51088 0.86349 0.0
O440 O 0.45032 0.50146 0.88782 0.0
C441 C 0.42369 0.50029 0.75757 0.0
C442 C 0.40482 0.45447 0.8041 0.0
C443 C 0.45482 0.48704 0.87572 0.0
O444 O 0.42315 0.48513 0.77109 0.0
O445 O 0.42483 0.51216 0.78911 0.0
O446 O 0.41666 0.46894 0.91209 0.0
O447 O 0.41448 0.49309 0.87674 0.0
H448 H 0.11851 0.10541 0.90252 0.0
H449 H 0.16126 0.07789 0.85844 0.0
H450 H 0.13573 0.12383 0.95252 0.0
H451 H 0.17851 0.09648 0.90705 0.0
H452 H 0.20338 0.12128 0.04038 0.0
H453 H 0.1854 0.10337 -0.00818 0.0
H454 H 0.15598 0.14502 0.94898 0.0
H455 H 0.17378 0.16288 -0.00111 0.0
C456 C 0.1316 0.10339 0.90302 0.0
C457 C 0.13848 0.09013 0.87647 0.0
C458 C 0.14152 0.114 0.9316 0.0
C459 C 0.15859 0.11166 0.93433 0.0
C460 C 0.16543 0.09855 0.90689 0.0
C461 C 0.15552 0.08792 0.87853 0.0
C462 C 0.19301 0.12662 0.02091 0.0
C463 C 0.19005 0.14354 0.02368 0.0
C464 C 0.18275 0.11634 -0.00744 0.0
C465 C 0.16923 0.12268 0.96588 0.0
C466 C 0.16613 0.13961 0.96931 0.0
C467 C 0.17639 0.14989 -0.00215 0.0
H468 H 0.16457 0.95482 0.28036 0.0
H469 H 0.1233 0.92275 0.25551 0.0
H470 H 0.18198 0.93643 0.23178 0.0
H471 H 0.14063 0.90449 0.2054 0.0
H472 H 0.18087 0.86779 0.15681 0.0
H473 H 0.16277 0.88519 0.20742 0.0
H474 H 0.18691 0.92814 0.14717 0.0
H475 H 0.20517 0.91079 0.09809 0.0
C476 C 0.15919 0.94383 0.26449 0.0
C477 C 0.14252 0.9403 0.27188 0.0
C478 C 0.16917 0.93331 0.23614 0.0
C479 C 0.16275 0.91897 0.21397 0.0
C480 C 0.14609 0.9153 0.22214 0.0
C481 C 0.13611 0.92582 0.25076 0.0
C482 C 0.18223 0.88095 0.15422 0.0
C483 C 0.19452 0.88787 0.12345 0.0
C484 C 0.17181 0.89096 0.18316 0.0
C485 C 0.1734 0.90815 0.18196 0.0
C486 C 0.18549 0.91499 0.15016 0.0
C487 C 0.19591 0.90502 0.12153 0.0
H488 H 0.37677 0.95276 0.35386 0.0
H489 H 0.41949 0.92643 0.40464 0.0
H490 H 0.35934 0.93446 0.40287 0.0
H491 H 0.40195 0.90813 0.45468 0.0
H492 H 0.33418 0.91259 0.53963 0.0
H493 H 0.35298 0.92947 0.49075 0.0
H494 H 0.38081 0.88652 0.45032 0.0
H495 H 0.36196 0.86951 0.5003 0.0
C496 C 0.38247 0.94301 0.37535 0.0
C497 C 0.39957 0.94112 0.3753 0.0
C498 C 0.37245 0.93256 0.40389 0.0
C499 C 0.37919 0.91988 0.43339 0.0
C500 C 0.39629 0.91769 0.43229 0.0
C501 C 0.40636 0.92821 0.40368 0.0
C502 C 0.34436 0.90669 0.52069 0.0
C503 C 0.3465 0.88965 0.5239 0.0
C504 C 0.3551 0.9164 0.49219 0.0
C505 C 0.36834 0.90939 0.46587 0.0
C506 C 0.3708 0.89237 0.47021 0.0
C507 C 0.35997 0.8826 0.4988 0.0
H508 H 0.41184 0.10803 0.75138 0.0
H509 H 0.36858 0.08134 0.79701 0.0
H510 H 0.39487 0.12647 0.70048 0.0
H511 H 0.35168 0.09985 0.74745 0.0
H512 H 0.32783 0.12199 0.60968 0.0
H513 H 0.34602 0.10505 0.66009 0.0
H514 H 0.37406 0.14787 0.70174 0.0
H515 H 0.35591 0.16489 0.64994 0.0
C516 C 0.3987 0.10624 0.75117 0.0
C517 C 0.39159 0.09314 0.77814 0.0
C518 C 0.38896 0.11683 0.72204 0.0
C519 C 0.37188 0.11456 0.71917 0.0
C520 C 0.3648 0.10179 0.74765 0.0
C521 C 0.3745 0.09122 0.77655 0.0
C522 C 0.33793 0.12783 0.62922 0.0
C523 C 0.34036 0.14483 0.62578 0.0
C524 C 0.34832 0.1181 0.65862 0.0
C525 C 0.36142 0.12507 0.68578 0.0
C526 C 0.36415 0.14205 0.68123 0.0
C527 C 0.35373 0.15182 0.65159 0.0
H528 H 0.82588 0.91152 0.15297 0.0
H529 H 0.86481 0.87714 0.12471 0.0
H530 H 0.84425 0.92838 0.20258 0.0
H531 H 0.88381 0.89467 0.17168 0.0
H532 H 0.91143 0.92336 0.29492 0.0
H533 H 0.89319 0.90502 0.24806 0.0
H534 H 0.86483 0.94684 0.19925 0.0
H535 H 0.88229 0.9647 0.24873 0.0
C536 C 0.83851 0.90772 0.15663 0.0
C537 C 0.8439 0.89306 0.13446 0.0
C538 C 0.84919 0.9175 0.18493 0.0
C539 C 0.86579 0.91321 0.19094 0.0
C540 C 0.87116 0.89843 0.16871 0.0
C541 C 0.8603 0.8884 0.14128 0.0
C542 C 0.90119 0.92853 0.27442 0.0
C543 C 0.89817 0.94545 0.27616 0.0
C544 C 0.89076 0.91803 0.24706 0.0
C545 C 0.87725 0.92426 0.21983 0.0
C546 C 0.87464 0.94131 0.22079 0.0
C547 C 0.88479 0.95168 0.24902 0.0
H548 H 0.87149 0.08079 0.86785 0.0
H549 H 0.91421 0.10864 0.91116 0.0
H550 H 0.85419 0.09947 0.91553 0.0
H551 H 0.89689 0.12718 0.96048 0.0
H552 H 0.82871 0.12444 0.04597 0.0
H553 H 0.84716 0.10651 -0.00038 0.0
H554 H 0.87652 0.14829 0.95604 0.0
H555 H 0.85822 0.16621 0.00401 0.0
C556 C 0.87722 0.0909 0.88772 0.0
C557 C 0.89426 0.09318 0.88565 0.0
C558 C 0.86728 0.10158 0.91553 0.0
C559 C 0.87407 0.11483 0.94253 0.0
C560 C 0.89115 0.11723 0.93991 0.0
C561 C 0.90111 0.10655 0.91178 0.0
C562 C 0.83915 0.12982 0.02679 0.0
C563 C 0.84194 0.14679 0.02872 0.0
C564 C 0.8497 0.11952 -0.00026 0.0
C565 C 0.86332 0.12589 0.97337 0.0
C566 C 0.86629 0.14287 0.97612 0.0
C567 C 0.85574 0.15318 0.0035 0.0
H568 H 0.70345 0.11999 0.61208 0.0
H569 H 0.67506 0.16242 0.65367 0.0
H570 H 0.68488 0.10257 0.66043 0.0
H571 H 0.65669 0.14507 0.70346 0.0
H572 H 0.65979 0.07767 0.79363 0.0
H573 H 0.67767 0.09569 0.74484 0.0
H574 H 0.63586 0.12462 0.70036 0.0
H575 H 0.61806 0.10681 0.75054 0.0
C576 C 0.69321 0.12562 0.63151 0.0
C577 C 0.69076 0.14263 0.62883 0.0
C578 C 0.68261 0.11562 0.65975 0.0
C579 C 0.66927 0.12234 0.68649 0.0
C580 C 0.66668 0.13936 0.68308 0.0
C581 C 0.67727 0.14936 0.65459 0.0
C582 C 0.65442 0.08794 0.77373 0.0
C583 C 0.63747 0.09078 0.77616 0.0
C584 C 0.66467 0.09823 0.74525 0.0
C585 C 0.65828 0.11163 0.71806 0.0
C586 C 0.64132 0.11458 0.72109 0.0
C587 C 0.63107 0.1043 0.74979 0.0
H588 H 0.62286 0.92459 0.40123 0.0
H589 H 0.66634 0.95212 0.36321 0.0
H590 H 0.63936 0.90588 0.45257 0.0
H591 H 0.68281 0.93333 0.4132 0.0
H592 H 0.67803 0.8672 0.50354 0.0
H593 H 0.66029 0.88465 0.45173 0.0
H594 H 0.68761 0.92717 0.50033 0.0
H595 H 0.7054 0.90981 0.55072 0.0
C596 C 0.63596 0.92653 0.40326 0.0
C597 C 0.64325 0.93992 0.37821 0.0
C598 C 0.64544 0.91577 0.43263 0.0
C599 C 0.66244 0.91815 0.4377 0.0
C600 C 0.66973 0.93127 0.41129 0.0
C601 C 0.66028 0.94201 0.38213 0.0
C602 C 0.68013 0.88029 0.50343 0.0
C603 C 0.6932 0.88707 0.53116 0.0
C604 C 0.66994 0.89032 0.47377 0.0
C605 C 0.6726 0.90736 0.47115 0.0
C606 C 0.68538 0.9141 0.50027 0.0
C607 C 0.69553 0.90412 0.52966 0.0
H608 H 0.67458 0.66311 0.50429 0.0
H609 H 0.70368 0.62053 0.53924 0.0
H610 H 0.65593 0.64602 0.45432 0.0
H611 H 0.68496 0.60348 0.49071 0.0
H612 H 0.66091 0.58015 0.35533 0.0
H613 H 0.67817 0.59849 0.40433 0.0
H614 H 0.63533 0.62438 0.45686 0.0
H615 H 0.61795 0.6061 0.40635 0.0
C616 C 0.6769 0.65008 0.50183 0.0
C617 C 0.69069 0.64322 0.52562 0.0
C618 C 0.66616 0.64027 0.47328 0.0
C619 C 0.66899 0.62335 0.46784 0.0
C620 C 0.68255 0.61649 0.49294 0.0
C621 C 0.69325 0.62627 0.52123 0.0
C622 C 0.65512 0.58981 0.37703 0.0
C623 C 0.63801 0.59159 0.37698 0.0
C624 C 0.66505 0.60028 0.40559 0.0
C625 C 0.6582 0.61283 0.43535 0.0
C626 C 0.64107 0.61492 0.43428 0.0
C627 C 0.63109 0.60442 0.40541 0.0
H628 H 0.62394 0.42027 0.7851 0.0
H629 H 0.65588 0.46089 0.75068 0.0
H630 H 0.64206 0.40191 0.73829 0.0
H631 H 0.67337 0.44302 0.70123 0.0
H632 H 0.71105 0.40605 0.6541 0.0
H633 H 0.6929 0.42339 0.70319 0.0
H634 H 0.65188 0.39261 0.66153 0.0
H635 H 0.67049 0.37464 0.61514 0.0
C636 C 0.63479 0.42529 0.76721 0.0
C637 C 0.63856 0.44201 0.77215 0.0
C638 C 0.64517 0.41478 0.73983 0.0
C639 C 0.65942 0.42079 0.71572 0.0
C640 C 0.6629 0.43765 0.72015 0.0
C641 C 0.65275 0.44802 0.74838 0.0
C642 C 0.69814 0.40302 0.65529 0.0
C643 C 0.69222 0.38901 0.63043 0.0
C644 C 0.68761 0.41307 0.68331 0.0
C645 C 0.67069 0.40967 0.68642 0.0
C646 C 0.66478 0.39563 0.66107 0.0
C647 C 0.67544 0.38535 0.63391 0.0
H648 H 0.91434 0.42648 0.89955 0.0
H649 H 0.87284 0.45611 0.85754 0.0
H650 H 0.89636 0.40854 0.94875 0.0
H651 H 0.8548 0.43798 0.90515 0.0
H652 H 0.82907 0.41435 0.03855 0.0
H653 H 0.84766 0.43129 0.98909 0.0
H654 H 0.87526 0.38829 0.94706 0.0
H655 H 0.8568 0.37135 -0.00179 0.0
C656 C 0.90134 0.42906 0.90029 0.0
C657 C 0.89506 0.4428 0.87465 0.0
C658 C 0.89099 0.41871 0.9284 0.0
C659 C 0.87405 0.42179 0.93155 0.0
C660 C 0.86778 0.43534 0.90476 0.0
C661 C 0.87813 0.4457 0.87694 0.0
C662 C 0.83915 0.40848 0.01903 0.0
C663 C 0.84141 0.39146 0.02251 0.0
C664 C 0.84978 0.41821 0.9901 0.0
C665 C 0.86297 0.41124 0.96336 0.0
C666 C 0.86536 0.39419 0.96736 0.0
C667 C 0.85473 0.38443 -0.00341 0.0
H668 H 0.82739 0.62481 0.10864 0.0
H669 H 0.85685 0.66627 0.15339 0.0
H670 H 0.84529 0.60666 0.15649 0.0
H671 H 0.87448 0.64823 0.2028 0.0
H672 H 0.86945 0.58023 0.28797 0.0
H673 H 0.85218 0.59887 0.23986 0.0
H674 H 0.89477 0.62756 0.19953 0.0
H675 H 0.91195 0.60915 0.24927 0.0
C676 C 0.83769 0.63007 0.12876 0.0
C677 C 0.84067 0.64701 0.12703 0.0
C678 C 0.84792 0.61966 0.15669 0.0
C679 C 0.86137 0.62589 0.18411 0.0
C680 C 0.86442 0.64287 0.18183 0.0
C681 C 0.85424 0.65326 0.15359 0.0
C682 C 0.87513 0.59058 0.26913 0.0
C683 C 0.8921 0.59319 0.27266 0.0
C684 C 0.86522 0.60123 0.24101 0.0
C685 C 0.87199 0.61476 0.21519 0.0
C686 C 0.889 0.61745 0.21924 0.0
C687 C 0.8989 0.60683 0.24768 0.0
H688 H 0.35897 0.36917 0.65505 0.0
H689 H 0.3313 0.41148 0.608 0.0
H690 H 0.37696 0.38685 0.7054 0.0
H691 H 0.34936 0.42909 0.65694 0.0
H692 H 0.37167 0.45456 0.79205 0.0
H693 H 0.35485 0.43574 0.74311 0.0
H694 H 0.39791 0.40801 0.70289 0.0
H695 H 0.41477 0.42676 0.75322 0.0
C696 C 0.35684 0.38225 0.65493 0.0
C697 C 0.34363 0.38887 0.62758 0.0
C698 C 0.36719 0.39241 0.68373 0.0
C699 C 0.36456 0.40945 0.68589 0.0
C700 C 0.35159 0.41603 0.65731 0.0
C701 C 0.34128 0.40591 0.62876 0.0
C702 C 0.37758 0.4444 0.77309 0.0
C703 C 0.3946 0.44223 0.77658 0.0
C704 C 0.36792 0.43364 0.74455 0.0
C705 C 0.37498 0.42039 0.7183 0.0
C706 C 0.39199 0.41798 0.72274 0.0
C707 C 0.40169 0.42877 0.75151 0.0
H708 H 0.35907 0.66549 0.50356 0.0
H709 H 0.32925 0.6235 0.54114 0.0
H710 H 0.37729 0.64792 0.45384 0.0
H711 H 0.34754 0.60596 0.4928 0.0
H712 H 0.41476 0.60791 0.40715 0.0
H713 H 0.39751 0.62632 0.45722 0.0
H714 H 0.35456 0.59996 0.4073 0.0
H715 H 0.37176 0.58144 0.35858 0.0
C716 C 0.35649 0.65249 0.50169 0.0
C717 C 0.34264 0.64594 0.52628 0.0
C718 C 0.36698 0.64238 0.47327 0.0
C719 C 0.36387 0.62546 0.46871 0.0
C720 C 0.3502 0.61894 0.49435 0.0
C721 C 0.33974 0.62901 0.52256 0.0
C722 C 0.40162 0.60611 0.40673 0.0
C723 C 0.39467 0.59314 0.3789 0.0
C724 C 0.3917 0.61672 0.43533 0.0
C725 C 0.37457 0.61462 0.43687 0.0
C726 C 0.36768 0.60182 0.4081 0.0
C727 C 0.37757 0.59123 0.37969 0.0
H728 H 0.15465 0.57301 0.25216 0.0
H729 H 0.12278 0.61359 0.28582 0.0
H730 H 0.1721 0.59075 0.20224 0.0
H731 H 0.14101 0.63195 0.23873 0.0
H732 H 0.17054 0.65924 0.11659 0.0
H733 H 0.15148 0.64167 0.16333 0.0
H734 H 0.19175 0.60998 0.2043 0.0
H735 H 0.21022 0.6268 0.15467 0.0
C736 C 0.15154 0.58588 0.24963 0.0
C737 C 0.1374 0.5919 0.27341 0.0
C738 C 0.16169 0.59619 0.22116 0.0
C739 C 0.15834 0.61306 0.21665 0.0
C740 C 0.14406 0.61908 0.24048 0.0
C741 C 0.13362 0.60858 0.26799 0.0
C742 C 0.17519 0.6484 0.1353 0.0
C743 C 0.19184 0.64428 0.13128 0.0
C744 C 0.16429 0.63835 0.16262 0.0
C745 C 0.16984 0.62411 0.18768 0.0
C746 C 0.18667 0.62039 0.18444 0.0
C747 C 0.1974 0.63016 0.15614 0.0
H748 H 0.12096 0.42581 0.90235 0.0
H749 H 0.16396 0.45324 0.8586 0.0
H750 H 0.13809 0.40743 0.95305 0.0
H751 H 0.181 0.43484 0.90808 0.0
H752 H 0.20475 0.41223 0.04585 0.0
H753 H 0.18649 0.42926 -0.00423 0.0
H754 H 0.15932 0.38631 0.9501 0.0
H755 H 0.17753 0.36921 0.00134 0.0
C756 C 0.13407 0.4278 0.90299 0.0
C757 C 0.14106 0.44105 0.87653 0.0
C758 C 0.1439 0.41724 0.932 0.0
C759 C 0.16094 0.41973 0.93528 0.0
C760 C 0.16791 0.43272 0.90748 0.0
C761 C 0.15812 0.44322 0.87865 0.0
C762 C 0.19483 0.40638 0.02546 0.0
C763 C 0.19266 0.38933 0.02761 0.0
C764 C 0.1844 0.41616 -0.00371 0.0
C765 C 0.17149 0.40918 0.96823 0.0
C766 C 0.16905 0.39214 0.97137 0.0
C767 C 0.17953 0.38232 0.00066 0.0
H768 H 0.22857 0.17715 0.92177 0.0
H769 H 0.27625 0.16161 0.97408 0.0
H770 H 0.23802 0.17489 0.83408 0.0
H771 H 0.28551 0.15909 0.88685 0.0
H772 H 0.30087 0.17972 0.72953 0.0
H773 H 0.29193 0.17823 0.81802 0.0
H774 H 0.24693 0.15485 0.77093 0.0
H775 H 0.25564 0.15661 0.68296 0.0
C776 C 0.24096 0.17306 0.91455 0.0
C777 C 0.25172 0.16979 0.95472 0.0
C778 C 0.24636 0.17171 0.86445 0.0
C779 C 0.26256 0.16696 0.85384 0.0
C780 C 0.27308 0.16309 0.894 0.0
C781 C 0.26773 0.1645 0.94391 0.0
C782 C 0.28918 0.1741 0.73827 0.0
C783 C 0.27884 0.16854 0.69943 0.0
C784 C 0.28406 0.17321 0.7888 0.0
C785 C 0.26862 0.16662 0.80109 0.0
C786 C 0.2587 0.16033 0.76239 0.0
C787 C 0.26374 0.1613 0.71208 0.0
H788 H 0.09028 0.01963 0.20838 0.0
H789 H 0.12467 0.98067 0.17869 0.0
H790 H 0.09274 0.02886 0.12096 0.0
H791 H 0.12766 0.99029 0.09134 0.0
H792 H 0.11351 1.00096 0.92706 0.0
H793 H 0.11289 0.99189 0.01414 0.0
H794 H 0.1117 0.04221 0.06481 0.0
H795 H 0.11166 0.05145 0.97653 0.0
C796 C 0.09837 1.01304 0.18299 0.0
C797 C 0.10727 0.99943 0.20009 0.0
C798 C 0.09994 0.01845 0.13312 0.0
C799 C 0.11058 1.01048 0.09943 0.0
C800 C 0.11926 0.99663 0.1163 0.0
C801 C 0.11751 0.99107 0.16617 0.0
C802 C 0.11319 1.01019 0.95654 0.0
C803 C 0.1124 0.02698 0.94469 0.0
C804 C 0.11298 1.00493 0.00669 0.0
C805 C 0.11214 1.01629 0.04641 0.0
C806 C 0.11203 0.03313 0.03486 0.0
C807 C 0.11212 0.03844 0.98438 0.0
H808 H 0.28369 0.87164 0.16992 0.0
H809 H 0.23505 0.85841 0.22067 0.0
H810 H 0.29258 0.87407 0.25761 0.0
H811 H 0.24412 0.86043 0.30853 0.0
H812 H 0.26076 0.87882 0.46025 0.0
H813 H 0.25277 0.87987 0.37155 0.0
H814 H 0.29823 0.85653 0.32931 0.0
H815 H 0.30647 0.8559 0.41843 0.0
C816 C 0.27488 0.86921 0.19978 0.0
C817 C 0.25866 0.86474 0.18826 0.0
C818 C 0.28003 0.87054 0.25006 0.0
C819 C 0.2691 0.86737 0.29002 0.0
C820 C 0.2528 0.86317 0.27858 0.0
C821 C 0.24761 0.86193 0.22821 0.0
C822 C 0.26912 0.874 0.43203 0.0
C823 C 0.28417 0.86709 0.44635 0.0
C824 C 0.26448 0.87453 0.38121 0.0
C825 C 0.27473 0.86806 0.34348 0.0
C826 C 0.29009 0.86172 0.3575 0.0
C827 C 0.29481 0.86131 0.40852 0.0
H828 H 0.40188 1.00827 0.71321 0.0
H829 H 0.42465 0.05398 0.66941 0.0
H830 H 0.40068 0.99995 0.62477 0.0
H831 H 0.42371 0.04546 0.58052 0.0
H832 H 0.40988 0.02961 0.42211 0.0
H833 H 0.40574 0.03872 0.50894 0.0
H834 H 0.42164 0.99152 0.56393 0.0
H835 H 0.42555 0.98222 0.47682 0.0
C836 C 0.40656 1.01659 0.6846 0.0
C837 C 0.41363 0.03167 0.69823 0.0
C838 C 0.40591 1.01178 0.63399 0.0
C839 C 0.41235 0.02191 0.59593 0.0
C840 C 0.41859 0.03741 0.60915 0.0
C841 C 0.41917 0.04229 0.65997 0.0
C842 C 0.41242 0.0211 0.45265 0.0
C843 C 0.41825 1.00522 0.44258 0.0
C844 C 0.41008 0.02638 0.50238 0.0
C845 C 0.41349 1.01591 0.54313 0.0
C846 C 0.41876 0.99983 0.53316 0.0
C847 C 0.42107 0.99452 0.4833 0.0
H848 H 0.80461 0.85912 0.23282 0.0
H849 H 0.75691 0.876 0.18488 0.0
H850 H 0.79537 0.85959 0.32099 0.0
H851 H 0.74787 0.87674 0.27265 0.0
H852 H 0.73261 0.85377 0.42656 0.0
H853 H 0.74144 0.85647 0.33823 0.0
H854 H 0.78686 0.87843 0.38793 0.0
H855 H 0.77827 0.87546 0.47566 0.0
C856 C 0.79226 0.86313 0.24112 0.0
C857 C 0.78144 0.86731 0.20193 0.0
C858 C 0.78698 0.86344 0.29152 0.0
C859 C 0.77084 0.86807 0.30347 0.0
C860 C 0.76025 0.87281 0.26441 0.0
C861 C 0.76548 0.87244 0.21418 0.0
C862 C 0.74439 0.8593 0.41847 0.0
C863 C 0.75485 0.86415 0.45792 0.0
C864 C 0.74944 0.86089 0.36802 0.0
C865 C 0.76494 0.86747 0.35641 0.0
C866 C 0.77503 0.87297 0.39585 0.0
C867 C 0.77006 0.8713 0.44606 0.0
H868 H 0.93073 1.00402 0.92827 0.0
H869 H 0.92121 0.05336 0.98013 0.0
H870 H 0.93298 0.99483 0.01544 0.0
H871 H 0.92309 0.04394 0.06788 0.0
H872 H 0.94704 0.02608 0.21238 0.0
H873 H 0.94453 0.03432 0.12422 0.0
H874 H 0.91706 0.99025 0.09216 0.0
H875 H 0.91987 0.98177 0.18081 0.0
C876 C 0.92896 1.01291 0.95824 0.0
C877 C 0.92589 0.02949 0.94712 0.0
C878 C 0.93016 1.00757 0.00828 0.0
C879 C 0.92828 0.01865 0.04845 0.0
C880 C 0.92487 0.03517 0.03756 0.0
C881 C 0.92372 0.04055 0.98734 0.0
C882 C 0.94054 0.01807 0.18649 0.0
C883 C 0.93355 1.00332 0.20351 0.0
C884 C 0.93899 0.02288 0.13608 0.0
C885 C 0.93035 1.01309 0.10152 0.0
C886 C 0.92383 0.99803 0.118 0.0
C887 C 0.92547 0.99315 0.16863 0.0
H888 H 0.75538 0.16517 0.98037 0.0
H889 H 0.80282 0.18 0.92319 0.0
H890 H 0.74579 0.16089 0.89438 0.0
H891 H 0.79299 0.17598 0.83638 0.0
H892 H 0.77465 0.15477 0.68963 0.0
H893 H 0.78374 0.15452 0.77744 0.0
H894 H 0.73901 0.17864 0.8227 0.0
H895 H 0.72974 0.17867 0.73455 0.0
C896 C 0.76377 0.1676 0.94937 0.0
C897 C 0.77981 0.17318 0.95847 0.0
C898 C 0.75822 0.16515 0.90013 0.0
C899 C 0.76857 0.16826 0.85882 0.0
C900 C 0.78479 0.17336 0.86773 0.0
C901 C 0.7904 0.17575 0.91727 0.0
C902 C 0.76666 0.15988 0.7184 0.0
C903 C 0.75159 0.16699 0.70529 0.0
C904 C 0.77193 0.15979 0.76856 0.0
C905 C 0.76223 0.16682 0.8066 0.0
C906 C 0.74672 0.17309 0.79401 0.0
C907 C 0.7414 0.17312 0.74366 0.0
H908 H 0.6049 0.05207 0.675 0.0
H909 H 0.61897 1.00422 0.72992 0.0
H910 H 0.60877 0.04265 0.58784 0.0
H911 H 0.62322 0.99503 0.64335 0.0
H912 H 0.62999 0.02542 0.44003 0.0
H913 H 0.62969 0.03407 0.52827 0.0
H914 H 0.60644 0.98845 0.57048 0.0
H915 H 0.60713 0.97959 0.48196 0.0
C916 C 0.60897 0.03963 0.66851 0.0
C917 C 0.61141 0.02884 0.70924 0.0
C918 C 0.61127 0.03425 0.61868 0.0
C919 C 0.6162 0.01805 0.60885 0.0
C920 C 0.61911 1.00746 0.6497 0.0
C921 C 0.6167 1.01278 0.69931 0.0
C922 C 0.62494 1.01717 0.46822 0.0
C923 C 0.61839 1.0019 0.45413 0.0
C924 C 0.6247 0.02218 0.51868 0.0
C925 C 0.61781 1.01207 0.55611 0.0
C926 C 0.61192 0.99648 0.54243 0.0
C927 C 0.61228 0.99139 0.49181 0.0
H928 H 0.73 0.68118 0.4227 0.0
H929 H 0.77616 0.65967 0.46663 0.0
H930 H 0.73905 0.68148 0.33424 0.0
H931 H 0.78498 0.65954 0.37857 0.0
H932 H 0.75502 0.66742 0.17603 0.0
H933 H 0.74581 0.66418 0.26307 0.0
H934 H 0.79339 0.67966 0.31668 0.0
H935 H 0.80282 0.68246 0.22907 0.0
C936 C 0.74194 0.67628 0.41332 0.0
C937 C 0.75246 0.67062 0.4515 0.0
C938 C 0.74713 0.67641 0.36276 0.0
C939 C 0.76283 0.67072 0.34962 0.0
C940 C 0.773 0.66438 0.38766 0.0
C941 C 0.76789 0.66439 0.43805 0.0
C942 C 0.76356 0.67012 0.20635 0.0
C943 C 0.77962 0.67536 0.19576 0.0
C944 C 0.75823 0.66832 0.25623 0.0
C945 C 0.7688 0.67181 0.29668 0.0
C946 C 0.785 0.67671 0.2862 0.0
C947 C 0.79039 0.67839 0.23612 0.0
H948 H 0.6116 0.50174 0.42904 0.0
H949 H 0.61294 0.55241 0.47697 0.0
H950 H 0.61055 0.49301 0.51647 0.0
H951 H 0.6125 0.54348 0.5655 0.0
H952 H 0.58936 0.52246 0.70921 0.0
H953 H 0.59269 0.53145 0.62184 0.0
H954 H 0.62539 0.49087 0.59372 0.0
H955 H 0.62153 0.48153 0.68102 0.0
C956 C 0.6119 0.51106 0.45825 0.0
C957 C 0.61214 0.52783 0.4459 0.0
C958 C 0.61143 0.50599 0.50857 0.0
C959 C 0.61135 0.51753 0.54791 0.0
C960 C 0.61224 0.5343 0.53584 0.0
C961 C 0.61258 0.53942 0.48521 0.0
C962 C 0.59717 0.51541 0.68419 0.0
C963 C 0.60514 0.50128 0.70162 0.0
C964 C 0.59923 0.52067 0.63435 0.0
C965 C 0.60946 0.51201 0.60107 0.0
C966 C 0.6173 0.49773 0.61838 0.0
C967 C 0.61506 0.49233 0.6682 0.0
H968 H 0.7717 0.33836 0.6979 0.0
H969 H 0.73037 0.37007 0.72562 0.0
H970 H 0.78048 0.34172 0.78537 0.0
H971 H 0.73945 0.37385 0.81319 0.0
H972 H 0.75144 0.36167 0.97855 0.0
H973 H 0.74226 0.35934 0.89168 0.0
H974 H 0.79236 0.36241 0.8395 0.0
H975 H 0.80175 0.36423 0.92734 0.0
C976 C 0.76448 0.34604 0.72283 0.0
C977 C 0.75037 0.35399 0.70503 0.0
C978 C 0.76962 0.34811 0.77277 0.0
C979 C 0.76083 0.35827 0.80594 0.0
C980 C 0.74644 0.36587 0.78856 0.0
C981 C 0.74119 0.36367 0.73855 0.0
C982 C 0.76058 0.36193 0.94874 0.0
C983 C 0.77739 0.36298 0.96005 0.0
C984 C 0.75525 0.36071 0.89877 0.0
C985 C 0.76656 0.3606 0.85874 0.0
C986 C 0.78336 0.36216 0.86973 0.0
C987 C 0.78874 0.36331 0.91997 0.0
H988 H 0.91111 0.50729 0.22036 0.0
H989 H 0.92896 0.55454 0.17067 0.0
H990 H 0.90976 0.4981 0.1329 0.0
H991 H 0.92801 0.54512 0.08266 0.0
H992 H 0.91173 0.52785 0.92836 0.0
H993 H 0.90935 0.53696 0.01578 0.0
H994 H 0.92913 0.4908 0.06716 0.0
H995 H 0.93112 0.48146 0.97927 0.0
C996 C 0.91479 0.51572 0.19067 0.0
C997 C 0.92034 0.53159 0.20233 0.0
C998 C 0.91407 0.5104 0.14059 0.0
C999 C 0.91897 0.52079 0.10103 0.0
C1000 C 0.92403 0.53687 0.11244 0.0
C1001 C 0.92463 0.54226 0.16274 0.0
C1002 C 0.91551 0.51959 0.95832 0.0
C1003 C 0.92181 0.50401 0.94706 0.0
C1004 C 0.91421 0.52487 0.00835 0.0
C1005 C 0.91925 0.51471 0.04821 0.0
C1006 C 0.92503 0.49887 0.03714 0.0
C1007 C 0.92621 0.49352 0.98691 0.0
H1008 H 0.30442 0.35445 0.7303 0.0
H1009 H 0.25703 0.37241 0.68371 0.0
H1010 H 0.29588 0.35613 0.81899 0.0
H1011 H 0.24872 0.37463 0.77196 0.0
H1012 H 0.23265 0.35642 0.92873 0.0
H1013 H 0.24141 0.35694 0.84028 0.0
H1014 H 0.28907 0.37457 0.88629 0.0
H1015 H 0.28051 0.37352 0.97465 0.0
C1016 C 0.29228 0.35896 0.73902 0.0
C1017 C 0.28134 0.3631 0.70004 0.0
C1018 C 0.28739 0.36 0.78982 0.0
C1019 C 0.27154 0.36539 0.80255 0.0
C1020 C 0.26086 0.37007 0.76348 0.0
C1021 C 0.26567 0.36886 0.71287 0.0
C1022 C 0.24495 0.36053 0.9199 0.0
C1023 C 0.25592 0.36479 0.9587 0.0
C1024 C 0.24997 0.36089 0.86918 0.0
C1025 C 0.26599 0.36571 0.85622 0.0
C1026 C 0.27677 0.37047 0.89501 0.0
C1027 C 0.27181 0.36996 0.94566 0.0
H1028 H 0.42952 0.50393 0.42854 0.0
H1029 H 0.41345 0.55235 0.47204 0.0
H1030 H 0.42894 0.49541 0.51681 0.0
H1031 H 0.41235 0.54361 0.56051 0.0
H1032 H 0.43263 0.52917 0.71442 0.0
H1033 H 0.43134 0.53696 0.62587 0.0
H1034 H 0.41168 0.48932 0.5882 0.0
H1035 H 0.41345 0.48126 0.67751 0.0
C1036 C 0.42567 0.51272 0.45688 0.0
C1037 C 0.42165 0.52888 0.44325 0.0
C1038 C 0.42523 0.50778 0.50754 0.0
C1039 C 0.42065 0.51882 0.54578 0.0
C1040 C 0.41623 0.53487 0.53204 0.0
C1041 C 0.41681 0.53988 0.48133 0.0
C1042 C 0.42799 0.52032 0.6874 0.0
C1043 C 0.4231 0.50459 0.70308 0.0
C1044 C 0.42713 0.52486 0.63655 0.0
C1045 C 0.42124 0.51385 0.59996 0.0
C1046 C 0.41641 0.49805 0.61545 0.0
C1047 C 0.4174 0.49343 0.66655 0.0
H1048 H 0.25588 0.66502 0.47511 0.0
H1049 H 0.30349 0.68181 0.42511 0.0
H1050 H 0.2468 0.66335 0.38761 0.0
H1051 H 0.29419 0.68056 0.3371 0.0
H1052 H 0.27742 0.66209 0.18434 0.0
H1053 H 0.28627 0.66132 0.27218 0.0
H1054 H 0.23983 0.68164 0.31908 0.0
H1055 H 0.23073 0.68197 0.23072 0.0
C1056 C 0.2644 0.66843 0.44537 0.0
C1057 C 0.28038 0.67368 0.45696 0.0
C1058 C 0.25915 0.66754 0.39524 0.0
C1059 C 0.2697 0.67197 0.35554 0.0
C1060 C 0.28581 0.67691 0.36696 0.0
C1061 C 0.29114 0.67768 0.41728 0.0
C1062 C 0.26905 0.66636 0.21338 0.0
C1063 C 0.25343 0.67226 0.20068 0.0
C1064 C 0.27418 0.66599 0.26368 0.0
C1065 C 0.26385 0.67161 0.30244 0.0
C1066 C 0.24803 0.6771 0.28998 0.0
C1067 C 0.24282 0.67734 0.23948 0.0
H1068 H 0.10516 0.55312 0.17372 0.0
H1069 H 0.12142 0.50581 0.22741 0.0
H1070 H 0.10874 0.54383 0.08622 0.0
H1071 H 0.12527 0.49677 0.14062 0.0
H1072 H 0.10722 0.48085 0.98143 0.0
H1073 H 0.10735 0.48982 0.06983 0.0
H1074 H 0.12981 0.53557 0.0251 0.0
H1075 H 0.12942 0.52679 0.93696 0.0
C1076 C 0.10964 0.54085 0.16689 0.0
C1077 C 0.11275 0.53014 0.20738 0.0
C1078 C 0.11177 0.53554 0.11691 0.0
C1079 C 0.11715 0.51951 0.10678 0.0
C1080 C 0.12079 0.50905 0.14732 0.0
C1081 C 0.1186 0.51429 0.19704 0.0
C1082 C 0.1124 0.49271 0.99064 0.0
C1083 C 0.11807 0.50322 0.95232 0.0
C1084 C 0.11249 0.49784 0.04118 0.0
C1085 C 0.11838 0.5135 0.05409 0.0
C1086 C 0.12485 0.52361 0.01603 0.0
C1087 C 0.12468 0.51853 0.96565 0.0
H1088 H 0.21556 0.22717 0.05065 0.0
H1089 H 0.23607 0.22562 0.20135 0.0
H1090 H 0.21417 0.25713 0.05558 0.0
H1091 H 0.234 0.25527 0.20756 0.0
H1092 H 0.25573 0.3047 0.16579 0.0
H1093 H 0.25046 0.27562 0.1688 0.0
H1094 H 0.20425 0.2828 0.09237 0.0
H1095 H 0.20979 0.31227 0.08806 0.0
C1096 C 0.21917 0.23322 0.08551 0.0
C1097 C 0.22608 0.22418 0.12543 0.0
C1098 C 0.2184 0.25037 0.0884 0.0
C1099 C 0.22437 0.25867 0.13152 0.0
C1100 C 0.22978 0.24936 0.17317 0.0
C1101 C 0.23082 0.23235 0.16989 0.0
C1102 C 0.24436 0.3002 0.14984 0.0
C1103 C 0.23323 0.31092 0.1265 0.0
C1104 C 0.24124 0.28344 0.15203 0.0
C1105 C 0.22683 0.27679 0.13126 0.0
C1106 C 0.2155 0.28748 0.10855 0.0
C1107 C 0.21864 0.30439 0.10635 0.0
H1108 H 0.06033 0.96405 0.31642 0.0
H1109 H 0.06306 0.98314 0.46877 0.0
H1110 H 0.03065 0.96154 0.3244 0.0
H1111 H 0.0336 0.97962 0.47848 0.0
H1112 H 0.98309 1.00041 0.44345 0.0
H1113 H 1.01197 0.99486 0.44872 0.0
H1114 H 1.00552 0.95146 0.35683 0.0
H1115 H 0.97627 0.95756 0.34968 0.0
C1116 C 0.05462 0.96708 0.35237 0.0
C1117 C 0.06392 0.97397 0.39178 0.0
C1118 C 0.03757 0.96562 0.35708 0.0
C1119 C 0.02953 0.97077 0.40171 0.0
C1120 C 0.0392 0.97608 0.44285 0.0
C1121 C 0.05613 0.97793 0.43763 0.0
C1122 C 0.9877 0.98953 0.4248 0.0
C1123 C 0.97729 0.97957 0.39556 0.0
C1124 C 1.00439 0.98621 0.4283 0.0
C1125 C 1.0113 0.97269 0.40314 0.0
C1126 C 1.00074 0.96213 0.37616 0.0
C1127 C 0.98392 0.96553 0.37245 0.0
H1128 H 0.27782 0.80749 0.65528 0.0
H1129 H 0.32614 0.81215 0.58968 0.0
H1130 H 0.28144 0.77832 0.66263 0.0
H1131 H 0.33001 0.78251 0.59869 0.0
H1132 H 0.31847 0.7268 0.56244 0.0
H1133 H 0.32056 0.75671 0.56356 0.0
H1134 H 0.29507 0.75765 0.70744 0.0
H1135 H 0.29232 0.728 0.70479 0.0
C1136 C 0.28937 0.80234 0.64295 0.0
C1137 C 0.30166 0.81231 0.62169 0.0
C1138 C 0.29152 0.78549 0.6477 0.0
C1139 C 0.3061 0.77794 0.63179 0.0
C1140 C 0.31858 0.78787 0.61113 0.0
C1141 C 0.3164 0.80488 0.60623 0.0
C1142 C 0.31365 0.73342 0.59477 0.0
C1143 C 0.30501 0.7251 0.63317 0.0
C1144 C 0.31485 0.75059 0.59548 0.0
C1145 C 0.30762 0.75971 0.63498 0.0
C1146 C 0.3003 0.75114 0.67552 0.0
C1147 C 0.29884 0.73411 0.6743 0.0
H1148 H 0.47518 0.02716 0.90854 0.0
H1149 H 0.46918 0.07397 0.83437 0.0
H1150 H 0.50428 0.03182 0.91449 0.0
H1151 H 0.49873 0.07888 0.84164 0.0
H1152 H 0.55462 0.06677 0.80411 0.0
H1153 H 0.52467 0.06877 0.80636 0.0
H1154 H 0.52452 0.04747 0.95661 0.0
H1155 H 0.55416 0.0448 0.95302 0.0
C1156 C 0.48003 0.03859 0.89398 0.0
C1157 C 0.46973 0.05015 0.87078 0.0
C1158 C 0.49681 0.04135 0.89789 0.0
C1159 C 0.50394 0.05582 0.87902 0.0
C1160 C 0.49367 0.06757 0.85643 0.0
C1161 C 0.47672 0.0648 0.85253 0.0
C1162 C 0.54814 0.06294 0.83803 0.0
C1163 C 0.55663 0.05544 0.87813 0.0
C1164 C 0.53099 0.06407 0.83939 0.0
C1165 C 0.52211 0.05789 0.88116 0.0
C1166 C 0.53087 0.05187 0.92315 0.0
C1167 C 0.54788 0.05047 0.92136 0.0
H1168 H 0.25928 0.80377 0.98761 0.0
H1169 H 0.21172 0.81024 0.05682 0.0
H1170 H 0.25471 0.77467 0.98305 0.0
H1171 H 0.20687 0.78067 0.05061 0.0
H1172 H 0.21728 0.72503 0.09078 0.0
H1173 H 0.21584 0.75494 0.08701 0.0
H1174 H 0.24006 0.75405 0.941 0.0
H1175 H 0.24222 0.7244 0.94633 0.0
C1176 C 0.24769 0.79904 0.00135 0.0
C1177 C 0.2359 0.80948 0.02276 0.0
C1178 C 0.24499 0.78222 -0.00181 0.0
C1179 C 0.23032 0.7752 0.01587 0.0
C1180 C 0.21835 0.78561 0.03679 0.0
C1181 C 0.22109 0.80259 0.04012 0.0
C1182 C 0.22194 0.73126 0.05742 0.0
C1183 C 0.23008 0.72244 0.01918 0.0
C1184 C 0.22111 0.74842 0.05519 0.0
C1185 C 0.22822 0.75702 0.01429 0.0
C1186 C 0.23496 0.74794 0.97392 0.0
C1187 C 0.23607 0.73091 0.97666 0.0
H1188 H 0.48433 1.01107 0.27461 0.0
H1189 H 0.47802 0.95943 0.30548 0.0
H1190 H 0.51348 1.00738 0.26859 0.0
H1191 H 0.50782 0.95568 0.29835 0.0
H1192 H 0.56431 0.96498 0.34141 0.0
H1193 H 0.53431 0.96322 0.34118 0.0
H1194 H 0.53288 0.99541 0.21112 0.0
H1195 H 0.56255 0.9976 0.21257 0.0
C1196 C 0.48911 0.99882 0.27975 0.0
C1197 C 0.47865 0.98552 0.29016 0.0
C1198 C 0.50595 0.99669 0.27586 0.0
C1199 C 0.51304 0.98118 0.28189 0.0
C1200 C 0.50273 0.9678 0.29329 0.0
C1201 C 0.48567 0.96995 0.29725 0.0
C1202 C 0.55755 0.97138 0.31218 0.0
C1203 C 0.56575 0.98167 0.27757 0.0
C1204 C 0.54037 0.97036 0.31201 0.0
C1205 C 0.53116 0.9795 0.27692 0.0
C1206 C 0.53954 0.9886 0.23966 0.0
C1207 C 0.55658 0.9898 0.24028 0.0
H1208 H 0.276 0.22849 0.48591 0.0
H1209 H 0.32282 0.22249 0.55973 0.0
H1210 H 0.2803 0.25763 0.48172 0.0
H1211 H 0.32748 0.25211 0.55371 0.0
H1212 H 0.31642 0.3074 0.5947 0.0
H1213 H 0.31808 0.27751 0.58986 0.0
H1214 H 0.29458 0.27888 0.44291 0.0
H1215 H 0.29215 0.30848 0.44941 0.0
C1216 C 0.2874 0.23334 0.50059 0.0
C1217 C 0.29902 0.22301 0.52344 0.0
C1218 C 0.28996 0.25019 0.49768 0.0
C1219 C 0.30432 0.25738 0.51701 0.0
C1220 C 0.31621 0.24706 0.53874 0.0
C1221 C 0.31361 0.23004 0.54184 0.0
C1222 C 0.31191 0.30127 0.56103 0.0
C1223 C 0.30392 0.31021 0.5228 0.0
C1224 C 0.31288 0.28412 0.55812 0.0
C1225 C 0.3061 0.27564 0.51652 0.0
C1226 C 0.29942 0.28486 0.47638 0.0
C1227 C 0.29815 0.30187 0.47982 0.0
H1228 H 0.97437 0.04551 0.69437 0.0
H1229 H 0.97449 0.06804 0.84249 0.0
H1230 H 1.00403 0.04795 0.69026 0.0
H1231 H 1.0044 0.06974 0.83978 0.0
H1232 H 0.05995 0.07417 0.81266 0.0
H1233 H 0.03043 0.07937 0.80538 0.0
H1234 H 0.0243 0.03259 0.73118 0.0
H1235 H 0.05326 0.02772 0.7368 0.0
C1236 C 0.98076 0.05119 0.72582 0.0
C1237 C 0.97214 0.0564 0.76896 0.0
C1238 C 0.9978 0.05247 0.72373 0.0
C1239 C 1.00673 0.0586 0.76533 0.0
C1240 C 0.99799 0.06496 0.80701 0.0
C1241 C 0.98083 0.06397 0.80864 0.0
C1242 C 0.05228 0.06515 0.79414 0.0
C1243 C 0.05907 0.05051 0.77545 0.0
C1244 C 0.03534 0.06808 0.79025 0.0
C1245 C 0.0249 0.05647 0.76727 0.0
C1246 C 0.03186 0.04204 0.74799 0.0
C1247 C 0.0486 0.03915 0.75178 0.0
H1248 H 0.81761 0.73058 0.09839 0.0
H1249 H 0.79829 0.73013 0.94614 0.0
H1250 H 0.82047 0.76041 0.09413 0.0
H1251 H 0.80199 0.75966 0.94037 0.0
H1252 H 0.78222 0.80989 0.98084 0.0
H1253 H 0.78657 0.78078 0.97587 0.0
H1254 H 0.83145 0.7858 0.06123 0.0
H1255 H 0.82672 0.81536 0.06781 0.0
C1256 C 0.81458 0.73682 0.06335 0.0
C1257 C 0.80756 0.72815 0.02279 0.0
C1258 C 0.81622 0.75393 0.0608 0.0
C1259 C 0.81107 0.76257 0.01732 0.0
C1260 C 0.80557 0.75354 0.9751 0.0
C1261 C 0.8036 0.73659 0.9781 0.0
C1262 C 0.79313 0.80493 -0.00171 0.0
C1263 C 0.80404 0.81507 0.02506 0.0
C1264 C 0.79574 0.78812 -0.00506 0.0
C1265 C 0.80945 0.7808 0.01784 0.0
C1266 C 0.8207 0.79096 0.04342 0.0
C1267 C 0.81805 0.80793 0.04687 0.0
H1268 H 0.70696 0.22172 0.56796 0.0
H1269 H 0.75341 0.22792 0.49148 0.0
H1270 H 0.7015 0.25108 0.55722 0.0
H1271 H 0.74827 0.25676 0.48233 0.0
H1272 H 0.73614 0.30643 0.44371 0.0
H1273 H 0.73293 0.2768 0.44017 0.0
H1274 H 0.71109 0.27726 0.58975 0.0
H1275 H 0.71351 0.30712 0.59173 0.0
C1276 C 0.71592 0.22925 0.54853 0.0
C1277 C 0.73066 0.2224 0.53087 0.0
C1278 C 0.71283 0.24609 0.54261 0.0
C1279 C 0.72437 0.25637 0.51854 0.0
C1280 C 0.73887 0.24931 0.49998 0.0
C1281 C 0.74193 0.23266 0.50587 0.0
C1282 C 0.73018 0.30023 0.47509 0.0
C1283 C 0.72522 0.30903 0.51814 0.0
C1284 C 0.72848 0.28322 0.47339 0.0
C1285 C 0.72223 0.27452 0.51537 0.0
C1286 C 0.71596 0.28349 0.55671 0.0
C1287 C 0.71735 0.30062 0.5579 0.0
H1288 H 0.7793 0.3083 0.17728 0.0
H1289 H 0.82443 0.3143 0.09348 0.0
H1290 H 0.78362 0.27916 0.18086 0.0
H1291 H 0.82914 0.28471 0.09874 0.0
H1292 H 0.81674 0.22936 0.06046 0.0
H1293 H 0.81888 0.25924 0.06495 0.0
H1294 H 0.79877 0.25801 0.21685 0.0
H1295 H 0.79584 0.22842 0.21085 0.0
C1296 C 0.79034 0.30345 0.16025 0.0
C1297 C 0.80147 0.31378 0.13489 0.0
C1298 C 0.79293 0.28661 0.16278 0.0
C1299 C 0.80683 0.27942 0.14049 0.0
C1300 C 0.81823 0.28975 0.11608 0.0
C1301 C 0.8156 0.30675 0.11338 0.0
C1302 C 0.81316 0.23551 0.09517 0.0
C1303 C 0.80594 0.22663 0.13508 0.0
C1304 C 0.81439 0.25265 0.09783 0.0
C1305 C 0.8086 0.26118 0.1408 0.0
C1306 C 0.80282 0.252 0.18243 0.0
C1307 C 0.80129 0.235 0.17931 0.0
H1308 H 0.71699 0.72399 0.56213 0.0
H1309 H 0.74213 0.72316 0.706 0.0
H1310 H 0.71511 0.75386 0.56697 0.0
H1311 H 0.73947 0.75275 0.71258 0.0
H1312 H 0.75784 0.80297 0.66755 0.0
H1313 H 0.75357 0.77387 0.67226 0.0
H1314 H 0.7059 0.77933 0.60339 0.0
H1315 H 0.71051 0.80895 0.59683 0.0
C1316 C 0.72162 0.73017 0.59558 0.0
C1317 C 0.72993 0.72132 0.63334 0.0
C1318 C 0.72052 0.7473 0.59847 0.0
C1319 C 0.72751 0.75585 0.63959 0.0
C1320 C 0.73446 0.74671 0.67945 0.0
C1321 C 0.73586 0.72971 0.676 0.0
C1322 C 0.74634 0.79813 0.65364 0.0
C1323 C 0.73457 0.80844 0.63154 0.0
C1324 C 0.7438 0.78129 0.65688 0.0
C1325 C 0.7293 0.77409 0.63867 0.0
C1326 C 0.71726 0.7844 0.61754 0.0
C1327 C 0.71986 0.8014 0.61409 0.0
H1328 H 0.5564 0.46486 0.81449 0.0
H1329 H 0.55737 0.4869 0.96323 0.0
H1330 H 0.52653 0.46322 0.81868 0.0
H1331 H 0.52772 0.48451 0.9689 0.0
H1332 H 0.47143 0.45928 0.84493 0.0
H1333 H 0.50079 0.45378 0.85276 0.0
H1334 H 0.50711 0.49998 0.93033 0.0
H1335 H 0.47812 0.50514 0.9241 0.0
C1336 C 0.55026 0.46875 0.8489 0.0
C1337 C 0.55916 0.47618 0.8883 0.0
C1338 C 0.53311 0.46783 0.85136 0.0
C1339 C 0.52459 0.47413 0.89362 0.0
C1340 C 0.53376 0.48004 0.93501 0.0
C1341 C 0.55079 0.48126 0.9321 0.0
C1342 C 0.47909 0.46812 0.86434 0.0
C1343 C 0.47234 0.4827 0.88369 0.0
C1344 C 0.49595 0.46501 0.86855 0.0
C1345 C 0.50642 0.47638 0.89238 0.0
C1346 C 0.49951 0.49071 0.91271 0.0
C1347 C 0.48278 0.49378 0.90863 0.0
H1348 H 0.97387 0.56787 0.30794 0.0
H1349 H 0.97279 0.54691 0.45818 0.0
H1350 H 1.00367 0.57044 0.31312 0.0
H1351 H 1.00229 0.55041 0.4651 0.0
H1352 H 0.05289 0.53153 0.42672 0.0
H1353 H 0.02381 0.53577 0.43091 0.0
H1354 H 0.02897 0.58078 0.34591 0.0
H1355 H 0.05857 0.57607 0.33982 0.0
C1356 C 0.97997 0.56436 0.34277 0.0
C1357 C 0.97108 0.55699 0.38241 0.0
C1358 C 0.99707 0.56586 0.34587 0.0
C1359 C 1.00557 0.56025 0.38907 0.0
C1360 C 0.99634 0.55432 0.43046 0.0
C1361 C 0.97937 0.55246 0.42682 0.0
C1362 C 0.04798 0.54246 0.40915 0.0
C1363 C 0.05819 0.55338 0.38253 0.0
C1364 C 0.03115 0.54501 0.41209 0.0
C1365 C 0.02385 0.5587 0.38904 0.0
C1366 C 0.03409 0.57001 0.36378 0.0
C1367 C 0.05109 0.56739 0.36063 0.0
H1368 H 0.97807 0.46687 0.84774 0.0
H1369 H 0.97834 0.49042 0.70117 0.0
H1370 H 1.00802 0.46485 0.84485 0.0
H1371 H 1.00796 0.48774 0.69685 0.0
H1372 H 0.05751 0.50717 0.74494 0.0
H1373 H 0.02838 0.50278 0.73971 0.0
H1374 H 0.03385 0.45507 0.80843 0.0
H1375 H 0.06347 0.45972 0.81513 0.0
C1376 C 0.9845 0.47106 0.81415 0.0
C1377 C 0.97596 0.47898 0.77494 0.0
C1378 C 1.00166 0.46992 0.81242 0.0
C1379 C 1.01049 0.47652 0.77116 0.0
C1380 C 1.00166 0.48301 0.72997 0.0
C1381 C 0.98466 0.48441 0.73215 0.0
C1382 C 0.05266 0.49565 0.75872 0.0
C1383 C 0.06296 0.48382 0.78058 0.0
C1384 C 0.03584 0.49304 0.75523 0.0
C1385 C 0.02867 0.47847 0.7731 0.0
C1386 C 0.03894 0.46646 0.79442 0.0
C1387 C 0.05592 0.46909 0.79798 0.0
H1388 H 0.47498 0.54202 0.19753 0.0
H1389 H 0.47523 0.56614 0.34322 0.0
H1390 H 0.50462 0.54438 0.19288 0.0
H1391 H 0.50517 0.56781 0.34002 0.0
H1392 H 0.56044 0.57337 0.30924 0.0
H1393 H 0.53075 0.57754 0.30391 0.0
H1394 H 0.52557 0.53004 0.23352 0.0
H1395 H 0.55475 0.52618 0.23709 0.0
C1396 C 0.48142 0.54796 0.22845 0.0
C1397 C 0.47282 0.5537 0.271 0.0
C1398 C 0.49844 0.5492 0.22604 0.0
C1399 C 0.50743 0.55587 0.26672 0.0
C1400 C 0.49872 0.56261 0.30793 0.0
C1401 C 0.48155 0.56163 0.30988 0.0
C1402 C 0.55294 0.56395 0.29197 0.0
C1403 C 0.5601 0.54944 0.27355 0.0
C1404 C 0.5359 0.56629 0.28923 0.0
C1405 C 0.52567 0.5542 0.26789 0.0
C1406 C 0.53295 0.53985 0.24905 0.0
C1407 C 0.54983 0.53756 0.25157 0.0
H1408 H 0.2574 0.18414 0.19243 0.0
H1409 H 0.22239 0.14948 0.25182 0.0
H1410 H 0.27349 0.18207 0.2684 0.0
H1411 H 0.23924 0.1465 0.32832 0.0
H1412 H 0.26468 0.15912 0.47807 0.0
H1413 H 0.24813 0.15937 0.40244 0.0
H1414 H 0.29178 0.16498 0.31088 0.0
H1415 H 0.30847 0.16569 0.38808 0.0
C1416 C 0.25307 0.17606 0.22186 0.0
C1417 C 0.23852 0.16707 0.21611 0.0
C1418 C 0.26254 0.17464 0.26542 0.0
C1419 C 0.25798 0.16384 0.30431 0.0
C1420 C 0.24315 0.15504 0.29927 0.0
C1421 C 0.23341 0.15677 0.25565 0.0
C1422 C 0.27085 0.16044 0.44187 0.0
C1423 C 0.28793 0.16271 0.43916 0.0
C1424 C 0.26127 0.16037 0.39823 0.0
C1425 C 0.26849 0.16234 0.35033 0.0
C1426 C 0.28572 0.16383 0.34729 0.0
C1427 C 0.29535 0.1641 0.39137 0.0
H1428 H 0.12247 0.97177 0.51011 0.0
H1429 H 0.12582 1.01569 0.41922 0.0
H1430 H 0.12237 0.98861 0.58708 0.0
H1431 H 0.12496 0.03237 0.49494 0.0
H1432 H 0.13415 0.05837 0.64684 0.0
H1433 H 0.13782 0.04186 0.56971 0.0
H1434 H 0.10368 1.00604 0.62859 0.0
H1435 H 0.10072 0.02197 0.7049 0.0
C1436 C 0.12326 0.98496 0.50658 0.0
C1437 C 0.12394 0.99236 0.45862 0.0
C1438 C 0.12306 0.99466 0.55054 0.0
C1439 C 0.12341 1.01193 0.54727 0.0
C1440 C 0.12479 0.01918 0.49922 0.0
C1441 C 0.12512 1.00954 0.45562 0.0
C1442 C 0.12732 0.04708 0.64264 0.0
C1443 C 0.1172 0.04145 0.68202 0.0
C1444 C 0.12945 0.03755 0.5987 0.0
C1445 C 0.12131 0.02236 0.5933 0.0
C1446 C 0.11063 0.01729 0.63194 0.0
C1447 C 0.10873 0.02662 0.67571 0.0
H1448 H 0.24367 0.84082 0.91893 0.0
H1449 H 0.24141 0.8935 0.92283 0.0
H1450 H 0.26168 0.84216 0.84435 0.0
H1451 H 0.25917 0.89496 0.848 0.0
H1452 H 0.27669 0.88826 0.68187 0.0
H1453 H 0.25893 0.88744 0.75608 0.0
H1454 H 0.29101 0.85217 0.82643 0.0
H1455 H 0.30902 0.8531 0.75135 0.0
C1456 C 0.24668 0.85266 0.90287 0.0
C1457 C 0.24093 0.86707 0.92565 0.0
C1458 C 0.25718 0.85344 0.8608 0.0
C1459 C 0.26199 0.86867 0.84069 0.0
C1460 C 0.25564 0.88305 0.86248 0.0
C1461 C 0.24535 0.88224 0.90488 0.0
C1462 C 0.28012 0.88053 0.71356 0.0
C1463 C 0.29427 0.87081 0.71107 0.0
C1464 C 0.26992 0.88005 0.75603 0.0
C1465 C 0.27348 0.86965 0.7969 0.0
C1466 C 0.28788 0.86018 0.79514 0.0
C1467 C 0.2983 0.86086 0.75265 0.0
H1468 H 0.4197 0.05949 0.01108 0.0
H1469 H 0.4055 1.01691 0.92432 0.0
H1470 H 0.42202 0.04229 0.0871 0.0
H1471 H 0.40855 0.99982 -0.00156 0.0
H1472 H 0.40165 0.97522 0.15316 0.0
H1473 H 0.39788 0.9922 0.07746 0.0
H1474 H 0.43931 0.02196 0.12192 0.0
H1475 H 0.44242 1.00545 0.19788 0.0
C1476 C 0.41701 0.04654 0.00829 0.0
C1477 C 0.41252 0.03959 0.96165 0.0
C1478 C 0.41851 0.03661 0.05161 0.0
C1479 C 0.41563 0.01956 0.04893 0.0
C1480 C 0.4107 1.01284 0.00241 0.0
C1481 C 0.40909 0.0227 0.9596 0.0
C1482 C 0.41014 0.98515 0.14582 0.0
C1483 C 0.42241 0.98895 0.181 0.0
C1484 C 0.40796 0.99499 0.1027 0.0
C1485 C 0.41814 1.00869 0.09381 0.0
C1486 C 0.43092 1.01187 0.12808 0.0
C1487 C 0.4329 1.00222 0.17132 0.0
H1488 H 0.81298 0.86269 0.8968 0.0
H1489 H 0.77231 0.88513 0.97497 0.0
H1490 H 0.79627 0.86082 0.81957 0.0
H1491 H 0.75584 0.88348 0.89854 0.0
H1492 H 0.72531 0.86116 0.76881 0.0
H1493 H 0.74209 0.8629 0.84608 0.0
H1494 H 0.7836 0.87828 0.75596 0.0
H1495 H 0.76717 0.87638 0.67993 0.0
C1496 C 0.80062 0.86747 0.89717 0.0
C1497 C 0.79395 0.87403 0.94177 0.0
C1498 C 0.79101 0.86635 0.85319 0.0
C1499 C 0.77462 0.87181 0.85321 0.0
C1500 C 0.76823 0.8788 0.89753 0.0
C1501 C 0.77777 0.8799 0.94117 0.0
C1502 C 0.73798 0.86499 0.76583 0.0
C1503 C 0.7449 0.86855 0.71835 0.0
C1504 C 0.7476 0.86598 0.80988 0.0
C1505 C 0.76426 0.87057 0.80699 0.0
C1506 C 0.77098 0.87436 0.75949 0.0
C1507 C 0.76145 0.87337 0.71588 0.0
H1508 H 0.89812 0.02508 0.71946 0.0
H1509 H 0.92538 0.06379 0.64633 0.0
H1510 H 0.89838 1.00925 0.64145 0.0
H1511 H 0.92605 0.04768 0.5677 0.0
H1512 H 0.91217 0.02007 0.42369 0.0
H1513 H 0.90976 0.03668 0.49962 0.0
H1514 H 0.91762 0.99372 0.59219 0.0
H1515 H 0.91966 0.97689 0.51539 0.0
C1516 C 0.90407 0.03027 0.68633 0.0
C1517 C 0.91174 0.04567 0.68886 0.0
C1518 C 0.90437 0.02109 0.64176 0.0
C1519 C 0.91248 0.027 0.59849 0.0
C1520 C 0.91961 0.04277 0.60031 0.0
C1521 C 0.9192 0.05206 0.64515 0.0
C1522 C 0.91334 1.0141 0.46024 0.0
C1523 C 0.91614 0.99714 0.46356 0.0
C1524 C 0.91207 0.0237 0.50383 0.0
C1525 C 0.91361 1.01662 0.55208 0.0
C1526 C 0.9162 0.99957 0.55556 0.0
C1527 C 0.9174 0.9899 0.51168 0.0
H1528 H 0.8118 0.16522 0.26529 0.0
H1529 H 0.76711 0.16693 0.1778 0.0
H1530 H 0.79547 0.16289 0.34318 0.0
H1531 H 0.75108 0.16567 0.25423 0.0
H1532 H 0.72451 0.15177 0.39883 0.0
H1533 H 0.74124 0.15033 0.32163 0.0
H1534 H 0.779 0.17883 0.39553 0.0
H1535 H 0.76293 0.17932 0.47191 0.0
C1536 C 0.79857 0.16519 0.2627 0.0
C1537 C 0.79082 0.16646 0.21542 0.0
C1538 C 0.78916 0.16396 0.30722 0.0
C1539 C 0.77185 0.16419 0.30522 0.0
C1540 C 0.76427 0.16517 0.25765 0.0
C1541 C 0.77359 0.16615 0.21356 0.0
C1542 C 0.73635 0.15776 0.39813 0.0
C1543 C 0.74236 0.16563 0.44156 0.0
C1544 C 0.74599 0.15695 0.35402 0.0
C1545 C 0.76166 0.16433 0.3523 0.0
C1546 C 0.76732 0.17255 0.39556 0.0
C1547 C 0.7579 0.17303 0.43955 0.0
H1548 H 0.62912 1.01613 0.22959 0.0
H1549 H 0.61935 0.9726 0.14152 0.0
H1550 H 0.62669 0.03284 0.15454 0.0
H1551 H 0.61785 0.98942 0.06462 0.0
H1552 H 0.5968 0.02418 0.94981 0.0
H1553 H 0.60024 1.00798 0.02563 0.0
H1554 H 0.63745 0.04176 0.07774 0.0
H1555 H 0.63311 0.05862 0.00195 0.0
C1556 C 0.62665 1.01005 0.19386 0.0
C1557 C 0.62418 0.99299 0.19172 0.0
C1558 C 0.62543 0.01972 0.15046 0.0
C1559 C 0.62193 1.01263 0.10322 0.0
C1560 C 0.62018 0.99541 0.10055 0.0
C1561 C 0.62121 0.98569 0.14445 0.0
C1562 C 0.6055 0.02836 0.97773 0.0
C1563 C 0.61458 0.04277 0.97004 0.0
C1564 C 0.6077 0.01886 0.02109 0.0
C1565 C 0.61938 0.02325 0.05768 0.0
C1566 C 0.62823 0.03798 0.05068 0.0
C1567 C 0.62573 0.04773 0.00742 0.0
H1568 H 0.77376 0.68752 0.95618 0.0
H1569 H 0.80862 0.65211 0.90132 0.0
H1570 H 0.75754 0.68425 0.88046 0.0
H1571 H 0.79175 0.648 0.82542 0.0
H1572 H 0.76629 0.65797 0.674 0.0
H1573 H 0.78286 0.65958 0.74953 0.0
H1574 H 0.73921 0.66653 0.84007 0.0
H1575 H 0.72252 0.66583 0.76283 0.0
C1576 C 0.77801 0.67901 0.92777 0.0
C1577 C 0.79255 0.67014 0.93468 0.0
C1578 C 0.7685 0.67693 0.88442 0.0
C1579 C 0.77303 0.6656 0.84698 0.0
C1580 C 0.78786 0.65694 0.85323 0.0
C1581 C 0.79761 0.65931 0.89654 0.0
C1582 C 0.76013 0.65983 0.70998 0.0
C1583 C 0.74305 0.66204 0.71227 0.0
C1584 C 0.76971 0.66057 0.75361 0.0
C1585 C 0.76251 0.66334 0.80116 0.0
C1586 C 0.74527 0.66477 0.80391 0.0
C1587 C 0.73564 0.6642 0.75982 0.0
H1588 H 0.63247 0.52075 0.21871 0.0
H1589 H 0.6081 0.56011 0.13981 0.0
H1590 H 0.63269 0.50451 0.14173 0.0
H1591 H 0.6081 0.54358 0.06187 0.0
H1592 H 0.62567 0.51536 0.92238 0.0
H1593 H 0.62646 0.53197 -0.00142 0.0
H1594 H 0.61351 0.4896 0.08851 0.0
H1595 H 0.61297 0.47274 0.01138 0.0
C1596 C 0.6272 0.52598 0.18463 0.0
C1597 C 0.62021 0.54171 0.18524 0.0
C1598 C 0.6272 0.51656 0.14062 0.0
C1599 C 0.6202 0.5226 0.09587 0.0
C1600 C 0.61366 0.53859 0.09582 0.0
C1601 C 0.61369 0.5481 0.14023 0.0
C1602 C 0.62304 0.50951 0.95842 0.0
C1603 C 0.61923 0.49271 0.96093 0.0
C1604 C 0.62336 0.51911 0.00207 0.0
C1605 C 0.61989 0.5122 0.04955 0.0
C1606 C 0.61637 0.49528 0.0524 0.0
C1607 C 0.61607 0.4856 0.0084 0.0
H1608 H 0.72389 0.36622 0.39279 0.0
H1609 H 0.76715 0.37294 0.48462 0.0
H1610 H 0.74084 0.36797 0.31603 0.0
H1611 H 0.78386 0.37505 0.40882 0.0
H1612 H 0.81104 0.35991 0.26203 0.0
H1613 H 0.7947 0.35889 0.3403 0.0
H1614 H 0.75674 0.38716 0.26734 0.0
H1615 H 0.77278 0.3878 0.18973 0.0
C1616 C 0.73694 0.36821 0.39656 0.0
C1617 C 0.74415 0.36939 0.44472 0.0
C1618 C 0.74668 0.36926 0.3527 0.0
C1619 C 0.76379 0.37158 0.35624 0.0
C1620 C 0.77085 0.37295 0.40453 0.0
C1621 C 0.76118 0.37185 0.44807 0.0
C1622 C 0.79935 0.36613 0.2633 0.0
C1623 C 0.79317 0.3739 0.2199 0.0
C1624 C 0.78993 0.36552 0.30794 0.0
C1625 C 0.77424 0.37274 0.30988 0.0
C1626 C 0.76851 0.38109 0.26693 0.0
C1627 C 0.77782 0.38161 0.22259 0.0
H1628 H 0.90146 0.47561 0.64874 0.0
H1629 H 0.93446 0.51195 0.70917 0.0
H1630 H 0.89775 0.49251 0.5727 0.0
H1631 H 0.93166 0.52822 0.63337 0.0
H1632 H 0.91402 0.56247 0.51204 0.0
H1633 H 0.91424 0.54585 0.58961 0.0
H1634 H 0.91004 0.50191 0.49889 0.0
H1635 H 0.90885 0.51833 0.42309 0.0
C1636 C 0.90822 0.48698 0.64523 0.0
C1637 C 0.91825 0.49242 0.68493 0.0
C1638 C 0.90609 0.49674 0.6018 0.0
C1639 C 0.91423 0.51196 0.59694 0.0
C1640 C 0.92474 0.51693 0.63612 0.0
C1641 C 0.92656 0.5074 0.67957 0.0
C1642 C 0.91291 0.54929 0.50905 0.0
C1643 C 0.91161 0.54177 0.46139 0.0
C1644 C 0.91319 0.5397 0.55336 0.0
C1645 C 0.91235 0.52241 0.55072 0.0
C1646 C 0.91052 0.51509 0.50294 0.0
C1647 C 0.91004 0.52461 0.45914 0.0
H1648 H 0.24364 0.39477 0.22249 0.0
H1649 H 0.24065 0.34219 0.23224 0.0
H1650 H 0.26161 0.3953 0.29683 0.0
H1651 H 0.25891 0.34258 0.30634 0.0
H1652 H 0.30717 0.3502 0.39853 0.0
H1653 H 0.28936 0.35024 0.32302 0.0
H1654 H 0.26014 0.38855 0.39018 0.0
H1655 H 0.27766 0.38833 0.46496 0.0
C1656 C 0.24651 0.38337 0.24156 0.0
C1657 C 0.24049 0.36849 0.22272 0.0
C1658 C 0.25691 0.38363 0.28368 0.0
C1659 C 0.26182 0.36896 0.30706 0.0
C1660 C 0.25551 0.35406 0.28869 0.0
C1661 C 0.24487 0.35384 0.24695 0.0
C1662 C 0.29717 0.35885 0.39634 0.0
C1663 C 0.29385 0.36937 0.43716 0.0
C1664 C 0.28684 0.35872 0.35365 0.0
C1665 C 0.27328 0.36933 0.35092 0.0
C1666 C 0.27049 0.38029 0.391 0.0
C1667 C 0.28055 0.38019 0.43373 0.0
H1668 H 0.39317 0.50876 0.94024 0.0
H1669 H 0.43247 0.4803 0.00423 0.0
H1670 H 0.39328 0.5266 0.01454 0.0
H1671 H 0.43284 0.49848 0.0789 0.0
H1672 H 0.44072 0.5479 0.16661 0.0
H1673 H 0.4399 0.52976 0.09216 0.0
H1674 H 0.38762 0.5246 0.11023 0.0
H1675 H 0.38859 0.54231 0.18518 0.0
C1676 C 0.40163 0.50616 0.97084 0.0
C1677 C 0.41265 0.49304 0.96696 0.0
C1678 C 0.40174 0.51641 0.01321 0.0
C1679 C 0.41316 0.51404 0.05226 0.0
C1680 C 0.424 0.50067 0.04904 0.0
C1681 C 0.42364 0.49014 0.00686 0.0
C1682 C 0.42904 0.54318 0.15373 0.0
C1683 C 0.41465 0.54672 0.18072 0.0
C1684 C 0.4286 0.53262 0.11175 0.0
C1685 C 0.41372 0.52562 0.09578 0.0
C1686 C 0.39925 0.52981 0.1216 0.0
C1687 C 0.39976 0.54008 0.16406 0.0
H1688 H 0.26507 0.65402 0.97729 0.0
H1689 H 0.22347 0.67152 0.89226 0.0
H1690 H 0.28167 0.65417 0.90091 0.0
H1691 H 0.24032 0.67192 0.81501 0.0
H1692 H 0.27048 0.65493 0.67978 0.0
H1693 H 0.25406 0.65378 0.75633 0.0
H1694 H 0.29466 0.67319 0.84258 0.0
H1695 H 0.31139 0.67409 0.76498 0.0
C1696 C 0.25944 0.65789 0.94206 0.0
C1697 C 0.24293 0.66279 0.94077 0.0
C1698 C 0.26905 0.65811 0.89832 0.0
C1699 C 0.26245 0.66324 0.85191 0.0
C1700 C 0.24578 0.66779 0.85019 0.0
C1701 C 0.23609 0.66754 0.89427 0.0
C1702 C 0.276 0.65891 0.7151 0.0
C1703 C 0.29225 0.66466 0.71635 0.0
C1704 C 0.26648 0.65837 0.75896 0.0
C1705 C 0.2729 0.6636 0.80552 0.0
C1706 C 0.28935 0.66898 0.80726 0.0
C1707 C 0.29897 0.66948 0.76299 0.0
H1708 H 0.10937 0.56151 0.51425 0.0
H1709 H 0.12809 0.52037 0.42925 0.0
H1710 H 0.11014 0.54486 0.592 0.0
H1711 H 0.12904 0.50403 0.50588 0.0
H1712 H 0.11152 0.47381 0.64262 0.0
H1713 H 0.11047 0.49065 0.56542 0.0
H1714 H 0.12978 0.53186 0.64908 0.0
H1715 H 0.13066 0.51529 0.72534 0.0
C1716 C 0.11383 0.54905 0.51232 0.0
C1717 C 0.11859 0.54224 0.46575 0.0
C1718 C 0.11424 0.53949 0.55663 0.0
C1719 C 0.11944 0.52301 0.55489 0.0
C1720 C 0.12458 0.51648 0.50841 0.0
C1721 C 0.12416 0.52595 0.46453 0.0
C1722 C 0.11566 0.4864 0.64416 0.0
C1723 C 0.12113 0.49321 0.68996 0.0
C1724 C 0.11504 0.49607 0.60014 0.0
C1725 C 0.11989 0.51267 0.60133 0.0
C1726 C 0.12562 0.51928 0.64704 0.0
C1727 C 0.12625 0.50968 0.69068 0.0
loop_
_geom_bond_atom_site_label_1
_geom_bond_atom_site_label_2
_geom_bond_distance
_geom_bond_site_symmetry_2
_ccdc_geom_bond_type
Co0 O1 2.216 . S
Co0 O2 2.091 . S
Co0 O4 2.004 . S
Co0 O10 2.021 1_554 S
Co0 O12 2.137 . S
Co0 O13 2.244 . S
O1 Co0 2.216 . S
O1 C8 1.247 . S
O2 Co0 2.091 . S
O2 C8 1.261 . S
C3 O12 1.247 . S
C3 O13 1.272 . S
O4 Co0 2.004 . S
O4 C9 1.259 . S
Co5 O6 2.061 . S
Co5 O11 2.052 . S
Co5 O13 2.135 . S
O6 Co5 2.061 . S
O6 C9 1.235 . S
C7 O10 1.238 . S
C7 O11 1.241 1_556 S
C8 O1 1.247 . S
C8 O2 1.261 . S
C9 O4 1.259 . S
C9 O6 1.235 . S
O10 Co0 2.021 1_556 S
O10 C7 1.238 . S
O11 Co5 2.052 . S
O11 C7 1.241 1_554 S
O12 Co0 2.137 . S
O12 C3 1.247 . S
O13 Co0 2.244 . S
O13 C3 1.272 . S
O13 Co5 2.135 . S
Co14 O15 2.216 . S
Co14 O16 2.091 . S
Co14 O18 2.004 . S
Co14 O24 2.021 . S
Co14 O26 2.137 . S
Co14 O27 2.244 . S
O15 Co14 2.216 . S
O15 C22 1.247 . S
O16 Co14 2.091 . S
O16 C22 1.261 . S
C17 O26 1.247 . S
C17 O27 1.272 . S
O18 Co14 2.004 . S
O18 C23 1.259 . S
Co19 O20 2.061 . S
Co19 O25 2.052 . S
Co19 O27 2.135 . S
O20 Co19 2.061 . S
O20 C23 1.235 . S
C21 O24 1.238 . S
C21 O25 1.241 . S
C22 O15 1.247 . S
C22 O16 1.261 . S
C23 O18 1.259 . S
C23 O20 1.235 . S
O24 Co14 2.021 . S
O24 C21 1.238 . S
O25 Co19 2.052 . S
O25 C21 1.241 . S
O26 Co14 2.137 . S
O26 C17 1.247 . S
O27 Co14 2.244 . S
O27 C17 1.272 . S
O27 Co19 2.135 . S
Co28 O29 2.216 . S
Co28 O30 2.091 . S
Co28 O32 2.004 . S
Co28 O38 2.021 . S
Co28 O40 2.137 . S
Co28 O41 2.244 . S
O29 Co28 2.216 . S
O29 C36 1.247 . S
O30 Co28 2.091 . S
O30 C36 1.261 . S
C31 O40 1.247 . S
C31 O41 1.272 . S
O32 Co28 2.004 . S
O32 C37 1.259 . S
Co33 O34 2.061 . S
Co33 O39 2.052 . S
Co33 O41 2.135 . S
O34 Co33 2.061 . S
O34 C37 1.235 . S
C35 O38 1.238 . S
C35 O39 1.241 . S
C36 O29 1.247 . S
C36 O30 1.261 . S
C37 O32 1.259 . S
C37 O34 1.235 . S
O38 Co28 2.021 . S
O38 C35 1.238 . S
O39 Co33 2.052 . S
O39 C35 1.241 . S
O40 Co28 2.137 . S
O40 C31 1.247 . S
O41 Co28 2.244 . S
O41 C31 1.272 . S
O41 Co33 2.135 . S
Co42 O43 2.216 . S
Co42 O44 2.091 . S
Co42 O46 2.004 . S
Co42 O52 2.021 . S
Co42 O54 2.137 . S
Co42 O55 2.244 . S
O43 Co42 2.216 . S
O43 C50 1.247 . S
O44 Co42 2.091 . S
O44 C50 1.261 . S
C45 O54 1.247 . S
C45 O55 1.272 . S
O46 Co42 2.004 . S
O46 C51 1.259 . S
Co47 O48 2.061 . S
Co47 O53 2.052 . S
Co47 O55 2.135 . S
O48 Co47 2.061 . S
O48 C51 1.235 . S
C49 O52 1.238 . S
C49 O53 1.241 . S
C50 O43 1.247 . S
C50 O44 1.261 . S
C51 O46 1.259 . S
C51 O48 1.235 . S
O52 Co42 2.021 . S
O52 C49 1.238 . S
O53 Co47 2.052 . S
O53 C49 1.241 . S
O54 Co42 2.137 . S
O54 C45 1.247 . S
O55 Co42 2.244 . S
O55 C45 1.272 . S
O55 Co47 2.135 . S
Co56 O57 2.216 . S
Co56 O58 2.091 . S
Co56 O60 2.004 . S
Co56 O66 2.021 . S
Co56 O68 2.137 . S
Co56 O69 2.244 . S
O57 Co56 2.216 . S
O57 C64 1.247 . S
O58 Co56 2.091 . S
O58 C64 1.261 . S
C59 O68 1.247 . S
C59 O69 1.272 . S
O60 Co56 2.004 . S
O60 C65 1.259 . S
Co61 O62 2.061 . S
Co61 O67 2.052 . S
Co61 O69 2.135 . S
O62 Co61 2.061 . S
O62 C65 1.235 . S
C63 O66 1.238 . S
C63 O67 1.241 . S
C64 O57 1.247 . S
C64 O58 1.261 . S
C65 O60 1.259 . S
C65 O62 1.235 . S
O66 Co56 2.021 . S
O66 C63 1.238 . S
O67 Co61 2.052 . S
O67 C63 1.241 . S
O68 Co56 2.137 . S
O68 C59 1.247 . S
O69 Co56 2.244 . S
O69 C59 1.272 . S
O69 Co61 2.135 . S
Co70 O71 2.216 . S
Co70 O72 2.091 . S
Co70 O74 2.004 . S
Co70 O80 2.021 . S
Co70 O82 2.137 . S
Co70 O83 2.244 . S
O71 Co70 2.216 . S
O71 C78 1.247 . S
O72 Co70 2.091 . S
O72 C78 1.261 . S
C73 O82 1.247 . S
C73 O83 1.272 . S
O74 Co70 2.004 . S
O74 C79 1.259 . S
Co75 O76 2.061 . S
Co75 O81 2.052 . S
Co75 O83 2.135 . S
O76 Co75 2.061 . S
O76 C79 1.235 . S
C77 O80 1.238 . S
C77 O81 1.241 . S
C78 O71 1.247 . S
C78 O72 1.261 . S
C79 O74 1.259 . S
C79 O76 1.235 . S
O80 Co70 2.021 . S
O80 C77 1.238 . S
O81 Co75 2.052 . S
O81 C77 1.241 . S
O82 Co70 2.137 . S
O82 C73 1.247 . S
O83 Co70 2.244 . S
O83 C73 1.272 . S
O83 Co75 2.135 . S
Co84 O85 2.216 . S
Co84 O86 2.091 . S
Co84 O88 2.004 . S
Co84 O94 2.021 . S
Co84 O96 2.137 . S
Co84 O97 2.244 . S
O85 Co84 2.216 . S
O85 C92 1.247 . S
O86 Co84 2.091 . S
O86 C92 1.261 . S
C87 O96 1.247 . S
C87 O97 1.272 . S
O88 Co84 2.004 . S
O88 C93 1.259 . S
Co89 O90 2.061 . S
Co89 O95 2.052 . S
Co89 O97 2.135 . S
O90 Co89 2.061 . S
O90 C93 1.235 . S
C91 O94 1.238 . S
C91 O95 1.241 . S
C92 O85 1.247 . S
C92 O86 1.261 . S
C93 O88 1.259 . S
C93 O90 1.235 . S
O94 Co84 2.021 . S
O94 C91 1.238 . S
O95 Co89 2.052 . S
O95 C91 1.241 . S
O96 Co84 2.137 . S
O96 C87 1.247 . S
O97 Co84 2.244 . S
O97 C87 1.272 . S
O97 Co89 2.135 . S
Co98 O99 2.216 . S
Co98 O100 2.091 . S
Co98 O102 2.004 . S
Co98 O108 2.021 . S
Co98 O110 2.137 . S
Co98 O111 2.244 . S
O99 Co98 2.216 . S
O99 C106 1.247 . S
O100 Co98 2.091 . S
O100 C106 1.261 . S
C101 O110 1.247 . S
C101 O111 1.272 . S
O102 Co98 2.004 . S
O102 C107 1.259 . S
Co103 O104 2.061 . S
Co103 O109 2.052 . S
Co103 O111 2.135 . S
O104 Co103 2.061 . S
O104 C107 1.235 . S
C105 O108 1.238 . S
C105 O109 1.241 . S
C106 O99 1.247 . S
C106 O100 1.261 . S
C107 O102 1.259 . S
C107 O104 1.235 . S
O108 Co98 2.021 . S
O108 C105 1.238 . S
O109 Co103 2.052 . S
O109 C105 1.241 . S
O110 Co98 2.137 . S
O110 C101 1.247 . S
O111 Co98 2.244 . S
O111 C101 1.272 . S
O111 Co103 2.135 . S
Co112 O113 2.216 . S
Co112 O114 2.091 . S
Co112 O116 2.004 . S
Co112 O122 2.021 . S
Co112 O124 2.137 . S
Co112 O125 2.244 . S
O113 Co112 2.216 . S
O113 C120 1.247 . S
O114 Co112 2.091 . S
O114 C120 1.261 . S
C115 O124 1.247 . S
C115 O125 1.272 . S
O116 Co112 2.004 . S
O116 C121 1.259 . S
Co117 O118 2.061 . S
Co117 O123 2.052 . S
Co117 O125 2.135 . S
O118 Co117 2.061 . S
O118 C121 1.235 . S
C119 O122 1.238 . S
C119 O123 1.241 . S
C120 O113 1.247 . S
C120 O114 1.261 . S
C121 O116 1.259 . S
C121 O118 1.235 . S
O122 Co112 2.021 . S
O122 C119 1.238 . S
O123 Co117 2.052 . S
O123 C119 1.241 . S
O124 Co112 2.137 . S
O124 C115 1.247 . S
O125 Co112 2.244 . S
O125 C115 1.272 . S
O125 Co117 2.135 . S
Co126 O127 2.216 . S
Co126 O128 2.091 . S
Co126 O130 2.004 . S
Co126 O136 2.021 . S
Co126 O138 2.137 . S
Co126 O139 2.244 . S
O127 Co126 2.216 . S
O127 C134 1.247 . S
O128 Co126 2.091 . S
O128 C134 1.261 . S
C129 O138 1.247 . S
C129 O139 1.272 . S
O130 Co126 2.004 . S
O130 C135 1.259 . S
Co131 O132 2.061 . S
Co131 O137 2.052 . S
Co131 O139 2.135 . S
O132 Co131 2.061 . S
O132 C135 1.235 . S
C133 O136 1.238 . S
C133 O137 1.241 . S
C134 O127 1.247 . S
C134 O128 1.261 . S
C135 O130 1.259 . S
C135 O132 1.235 . S
O136 Co126 2.021 . S
O136 C133 1.238 . S
O137 Co131 2.052 . S
O137 C133 1.241 . S
O138 Co126 2.137 . S
O138 C129 1.247 . S
O139 Co126 2.244 . S
O139 C129 1.272 . S
O139 Co131 2.135 . S
Co140 O141 2.216 . S
Co140 O142 2.091 . S
Co140 O144 2.004 . S
Co140 O150 2.021 . S
Co140 O152 2.137 . S
Co140 O153 2.244 . S
O141 Co140 2.216 . S
O141 C148 1.247 . S
O142 Co140 2.091 . S
O142 C148 1.261 . S
C143 O152 1.247 . S
C143 O153 1.272 . S
O144 Co140 2.004 . S
O144 C149 1.259 . S
Co145 O146 2.061 . S
Co145 O151 2.052 . S
Co145 O153 2.135 . S
O146 Co145 2.061 . S
O146 C149 1.235 . S
C147 O150 1.238 . S
C147 O151 1.241 . S
C148 O141 1.247 . S
C148 O142 1.261 . S
C149 O144 1.259 . S
C149 O146 1.235 . S
O150 Co140 2.021 . S
O150 C147 1.238 . S
O151 Co145 2.052 . S
O151 C147 1.241 . S
O152 Co140 2.137 . S
O152 C143 1.247 . S
O153 Co140 2.244 . S
O153 C143 1.272 . S
O153 Co145 2.135 . S
Co154 O155 2.216 . S
Co154 O156 2.091 . S
Co154 O158 2.004 . S
Co154 O164 2.021 . S
Co154 O166 2.137 . S
Co154 O167 2.244 . S
O155 Co154 2.216 . S
O155 C162 1.247 . S
O156 Co154 2.091 . S
O156 C162 1.261 . S
C157 O166 1.247 . S
C157 O167 1.272 . S
O158 Co154 2.004 . S
O158 C163 1.259 . S
Co159 O160 2.061 . S
Co159 O165 2.052 . S
Co159 O167 2.135 . S
O160 Co159 2.061 . S
O160 C163 1.235 . S
C161 O164 1.238 . S
C161 O165 1.241 . S
C162 O155 1.247 . S
C162 O156 1.261 . S
C163 O158 1.259 . S
C163 O160 1.235 . S
O164 Co154 2.021 . S
O164 C161 1.238 . S
O165 Co159 2.052 . S
O165 C161 1.241 . S
O166 Co154 2.137 . S
O166 C157 1.247 . S
O167 Co154 2.244 . S
O167 C157 1.272 . S
O167 Co159 2.135 . S
Co168 O169 2.216 . S
Co168 O170 2.091 . S
Co168 O172 2.004 . S
Co168 O178 2.021 1_554 S
Co168 O180 2.137 . S
Co168 O181 2.244 . S
O169 Co168 2.216 . S
O169 C176 1.247 . S
O170 Co168 2.091 . S
O170 C176 1.261 . S
C171 O180 1.247 . S
C171 O181 1.272 . S
O172 Co168 2.004 . S
O172 C177 1.259 . S
Co173 O174 2.061 . S
Co173 O179 2.052 . S
Co173 O181 2.135 . S
O174 Co173 2.061 . S
O174 C177 1.235 . S
C175 O178 1.238 . S
C175 O179 1.241 1_556 S
C176 O169 1.247 . S
C176 O170 1.261 . S
C177 O172 1.259 . S
C177 O174 1.235 . S
O178 Co168 2.021 1_556 S
O178 C175 1.238 . S
O179 Co173 2.052 . S
O179 C175 1.241 1_554 S
O180 Co168 2.137 . S
O180 C171 1.247 . S
O181 Co168 2.244 . S
O181 C171 1.272 . S
O181 Co173 2.135 . S
Co182 O183 2.216 . S
Co182 O184 2.091 . S
Co182 O186 2.004 . S
Co182 O192 2.021 . S
Co182 O194 2.137 . S
Co182 O195 2.244 . S
O183 Co182 2.216 . S
O183 C190 1.247 . S
O184 Co182 2.091 . S
O184 C190 1.261 . S
C185 O194 1.247 . S
C185 O195 1.272 . S
O186 Co182 2.004 . S
O186 C191 1.259 . S
Co187 O188 2.061 . S
Co187 O193 2.052 . S
Co187 O195 2.135 . S
O188 Co187 2.061 . S
O188 C191 1.235 . S
C189 O192 1.238 . S
C189 O193 1.241 . S
C190 O183 1.247 . S
C190 O184 1.261 . S
C191 O186 1.259 . S
C191 O188 1.235 . S
O192 Co182 2.021 . S
O192 C189 1.238 . S
O193 Co187 2.052 . S
O193 C189 1.241 . S
O194 Co182 2.137 . S
O194 C185 1.247 . S
O195 Co182 2.244 . S
O195 C185 1.272 . S
O195 Co187 2.135 . S
Co196 O197 2.216 . S
Co196 O198 2.091 . S
Co196 O200 2.004 . S
Co196 O206 2.021 . S
Co196 O208 2.137 . S
Co196 O209 2.244 . S
O197 Co196 2.216 . S
O197 C204 1.247 . S
O198 Co196 2.091 . S
O198 C204 1.261 . S
C199 O208 1.247 . S
C199 O209 1.272 . S
O200 Co196 2.004 . S
O200 C205 1.259 . S
Co201 O202 2.061 . S
Co201 O207 2.052 . S
Co201 O209 2.135 . S
O202 Co201 2.061 . S
O202 C205 1.235 . S
C203 O206 1.238 . S
C203 O207 1.241 . S
C204 O197 1.247 . S
C204 O198 1.261 . S
C205 O200 1.259 . S
C205 O202 1.235 . S
O206 Co196 2.021 . S
O206 C203 1.238 . S
O207 Co201 2.052 . S
O207 C203 1.241 . S
O208 Co196 2.137 . S
O208 C199 1.247 . S
O209 Co196 2.244 . S
O209 C199 1.272 . S
O209 Co201 2.135 . S
Co210 O211 2.216 . S
Co210 O212 2.091 . S
Co210 O214 2.004 . S
Co210 O220 2.021 . S
Co210 O222 2.137 . S
Co210 O223 2.244 . S
O211 Co210 2.216 . S
O211 C218 1.247 . S
O212 Co210 2.091 . S
O212 C218 1.261 . S
C213 O222 1.247 . S
C213 O223 1.272 . S
O214 Co210 2.004 . S
O214 C219 1.259 . S
Co215 O216 2.061 . S
Co215 O221 2.052 . S
Co215 O223 2.135 . S
O216 Co215 2.061 . S
O216 C219 1.235 . S
C217 O220 1.238 . S
C217 O221 1.241 . S
C218 O211 1.247 . S
C218 O212 1.261 . S
C219 O214 1.259 . S
C219 O216 1.235 . S
O220 Co210 2.021 . S
O220 C217 1.238 . S
O221 Co215 2.052 . S
O221 C217 1.241 . S
O222 Co210 2.137 . S
O222 C213 1.247 . S
O223 Co210 2.244 . S
O223 C213 1.272 . S
O223 Co215 2.135 . S
Co224 O225 2.216 . S
Co224 O226 2.091 . S
Co224 O228 2.004 . S
Co224 O234 2.021 . S
Co224 O236 2.137 . S
Co224 O237 2.244 . S
O225 Co224 2.216 . S
O225 C232 1.247 . S
O226 Co224 2.091 . S
O226 C232 1.261 . S
C227 O236 1.247 . S
C227 O237 1.272 . S
O228 Co224 2.004 . S
O228 C233 1.259 . S
Co229 O230 2.061 . S
Co229 O235 2.052 . S
Co229 O237 2.135 . S
O230 Co229 2.061 . S
O230 C233 1.235 . S
C231 O234 1.238 . S
C231 O235 1.241 . S
C232 O225 1.247 . S
C232 O226 1.261 . S
C233 O228 1.259 . S
C233 O230 1.235 . S
O234 Co224 2.021 . S
O234 C231 1.238 . S
O235 Co229 2.052 . S
O235 C231 1.241 . S
O236 Co224 2.137 . S
O236 C227 1.247 . S
O237 Co224 2.244 . S
O237 C227 1.272 . S
O237 Co229 2.135 . S
Co238 O239 2.216 . S
Co238 O240 2.091 . S
Co238 O242 2.004 . S
Co238 O248 2.021 . S
Co238 O250 2.137 . S
Co238 O251 2.244 . S
O239 Co238 2.216 . S
O239 C246 1.247 . S
O240 Co238 2.091 . S
O240 C246 1.261 . S
C241 O250 1.247 . S
C241 O251 1.272 . S
O242 Co238 2.004 . S
O242 C247 1.259 . S
Co243 O244 2.061 . S
Co243 O249 2.052 . S
Co243 O251 2.135 . S
O244 Co243 2.061 . S
O244 C247 1.235 . S
C245 O248 1.238 . S
C245 O249 1.241 . S
C246 O239 1.247 . S
C246 O240 1.261 . S
C247 O242 1.259 . S
C247 O244 1.235 . S
O248 Co238 2.021 . S
O248 C245 1.238 . S
O249 Co243 2.052 . S
O249 C245 1.241 . S
O250 Co238 2.137 . S
O250 C241 1.247 . S
O251 Co238 2.244 . S
O251 C241 1.272 . S
O251 Co243 2.135 . S
Co252 O253 2.216 . S
Co252 O254 2.091 . S
Co252 O256 2.004 . S
Co252 O262 2.021 1_554 S
Co252 O264 2.137 . S
Co252 O265 2.244 . S
O253 Co252 2.216 . S
O253 C260 1.247 . S
O254 Co252 2.091 . S
O254 C260 1.261 . S
C255 O264 1.247 . S
C255 O265 1.272 . S
O256 Co252 2.004 . S
O256 C261 1.259 . S
Co257 O258 2.061 . S
Co257 O263 2.052 . S
Co257 O265 2.135 . S
O258 Co257 2.061 . S
O258 C261 1.235 . S
C259 O262 1.238 . S
C259 O263 1.241 1_556 S
C260 O253 1.247 . S
C260 O254 1.261 . S
C261 O256 1.259 . S
C261 O258 1.235 . S
O262 Co252 2.021 1_556 S
O262 C259 1.238 . S
O263 Co257 2.052 . S
O263 C259 1.241 1_554 S
O264 Co252 2.137 . S
O264 C255 1.247 . S
O265 Co252 2.244 . S
O265 C255 1.272 . S
O265 Co257 2.135 . S
Co266 O267 2.216 . S
Co266 O268 2.091 . S
Co266 O270 2.004 . S
Co266 O276 2.021 . S
Co266 O278 2.137 . S
Co266 O279 2.244 . S
O267 Co266 2.216 . S
O267 C274 1.247 . S
O268 Co266 2.091 . S
O268 C274 1.261 . S
C269 O278 1.247 . S
C269 O279 1.272 . S
O270 Co266 2.004 . S
O270 C275 1.259 . S
Co271 O272 2.061 . S
Co271 O277 2.052 . S
Co271 O279 2.135 . S
O272 Co271 2.061 . S
O272 C275 1.235 . S
C273 O276 1.238 . S
C273 O277 1.241 . S
C274 O267 1.247 . S
C274 O268 1.261 . S
C275 O270 1.259 . S
C275 O272 1.235 . S
O276 Co266 2.021 . S
O276 C273 1.238 . S
O277 Co271 2.052 . S
O277 C273 1.241 . S
O278 Co266 2.137 . S
O278 C269 1.247 . S
O279 Co266 2.244 . S
O279 C269 1.272 . S
O279 Co271 2.135 . S
Co280 O281 2.216 . S
Co280 O282 2.091 . S
Co280 O284 2.004 . S
Co280 O290 2.021 . S
Co280 O292 2.137 . S
Co280 O293 2.244 . S
O281 Co280 2.216 . S
O281 C288 1.247 . S
O282 Co280 2.091 . S
O282 C288 1.261 . S
C283 O292 1.247 . S
C283 O293 1.272 . S
O284 Co280 2.004 . S
O284 C289 1.259 . S
Co285 O286 2.061 . S
Co285 O291 2.052 . S
Co285 O293 2.135 . S
O286 Co285 2.061 . S
O286 C289 1.235 . S
C287 O290 1.238 . S
C287 O291 1.241 . S
C288 O281 1.247 . S
C288 O282 1.261 . S
C289 O284 1.259 . S
C289 O286 1.235 . S
O290 Co280 2.021 . S
O290 C287 1.238 . S
O291 Co285 2.052 . S
O291 C287 1.241 . S
O292 Co280 2.137 . S
O292 C283 1.247 . S
O293 Co280 2.244 . S
O293 C283 1.272 . S
O293 Co285 2.135 . S
Co294 O295 2.216 . S
Co294 O296 2.091 . S
Co294 O298 2.004 . S
Co294 O304 2.021 . S
Co294 O306 2.137 . S
Co294 O307 2.244 . S
O295 Co294 2.216 . S
O295 C302 1.247 . S
O296 Co294 2.091 . S
O296 C302 1.261 . S
C297 O306 1.247 . S
C297 O307 1.272 . S
O298 Co294 2.004 . S
O298 C303 1.259 . S
Co299 O300 2.061 . S
Co299 O305 2.052 . S
Co299 O307 2.135 . S
O300 Co299 2.061 . S
O300 C303 1.235 . S
C301 O304 1.238 . S
C301 O305 1.241 . S
C302 O295 1.247 . S
C302 O296 1.261 . S
C303 O298 1.259 . S
C303 O300 1.235 . S
O304 Co294 2.021 . S
O304 C301 1.238 . S
O305 Co299 2.052 . S
O305 C301 1.241 . S
O306 Co294 2.137 . S
O306 C297 1.247 . S
O307 Co294 2.244 . S
O307 C297 1.272 . S
O307 Co299 2.135 . S
Co308 O309 2.216 . S
Co308 O310 2.091 . S
Co308 O312 2.004 . S
Co308 O318 2.021 . S
Co308 O320 2.137 . S
Co308 O321 2.244 . S
O309 Co308 2.216 . S
O309 C316 1.247 . S
O310 Co308 2.091 . S
O310 C316 1.261 . S
C311 O320 1.247 . S
C311 O321 1.272 . S
O312 Co308 2.004 . S
O312 C317 1.259 . S
Co313 O314 2.061 . S
Co313 O319 2.052 . S
Co313 O321 2.135 . S
O314 Co313 2.061 . S
O314 C317 1.235 . S
C315 O318 1.238 . S
C315 O319 1.241 . S
C316 O309 1.247 . S
C316 O310 1.261 . S
C317 O312 1.259 . S
C317 O314 1.235 . S
O318 Co308 2.021 . S
O318 C315 1.238 . S
O319 Co313 2.052 . S
O319 C315 1.241 . S
O320 Co308 2.137 . S
O320 C311 1.247 . S
O321 Co308 2.244 . S
O321 C311 1.272 . S
O321 Co313 2.135 . S
Co322 O323 2.216 . S
Co322 O324 2.091 . S
Co322 O326 2.004 . S
Co322 O332 2.021 . S
Co322 O334 2.137 . S
Co322 O335 2.244 . S
O323 Co322 2.216 . S
O323 C330 1.247 . S
O324 Co322 2.091 . S
O324 C330 1.261 . S
C325 O334 1.247 . S
C325 O335 1.272 . S
O326 Co322 2.004 . S
O326 C331 1.259 . S
Co327 O328 2.061 . S
Co327 O333 2.052 . S
Co327 O335 2.135 . S
O328 Co327 2.061 . S
O328 C331 1.235 . S
C329 O332 1.238 . S
C329 O333 1.241 . S
C330 O323 1.247 . S
C330 O324 1.261 . S
C331 O326 1.259 . S
C331 O328 1.235 . S
O332 Co322 2.021 . S
O332 C329 1.238 . S
O333 Co327 2.052 . S
O333 C329 1.241 . S
O334 Co322 2.137 . S
O334 C325 1.247 . S
O335 Co322 2.244 . S
O335 C325 1.272 . S
O335 Co327 2.135 . S
Co336 O337 2.216 . S
Co336 O338 2.091 . S
Co336 O340 2.004 . S
Co336 O346 2.021 . S
Co336 O348 2.137 . S
Co336 O349 2.244 . S
O337 Co336 2.216 . S
O337 C344 1.247 . S
O338 Co336 2.091 . S
O338 C344 1.261 . S
C339 O348 1.247 . S
C339 O349 1.272 . S
O340 Co336 2.004 . S
O340 C345 1.259 . S
Co341 O342 2.061 . S
Co341 O347 2.052 . S
Co341 O349 2.135 . S
O342 Co341 2.061 . S
O342 C345 1.235 . S
C343 O346 1.238 . S
C343 O347 1.241 . S
C344 O337 1.247 . S
C344 O338 1.261 . S
C345 O340 1.259 . S
C345 O342 1.235 . S
O346 Co336 2.021 . S
O346 C343 1.238 . S
O347 Co341 2.052 . S
O347 C343 1.241 . S
O348 Co336 2.137 . S
O348 C339 1.247 . S
O349 Co336 2.244 . S
O349 C339 1.272 . S
O349 Co341 2.135 . S
Co350 O351 2.216 . S
Co350 O352 2.091 . S
Co350 O354 2.004 . S
Co350 O360 2.021 . S
Co350 O362 2.137 . S
Co350 O363 2.244 . S
O351 Co350 2.216 . S
O351 C358 1.247 . S
O352 Co350 2.091 . S
O352 C358 1.261 . S
C353 O362 1.247 . S
C353 O363 1.272 . S
O354 Co350 2.004 . S
O354 C359 1.259 . S
Co355 O356 2.061 . S
Co355 O361 2.052 . S
Co355 O363 2.135 . S
O356 Co355 2.061 . S
O356 C359 1.235 . S
C357 O360 1.238 . S
C357 O361 1.241 . S
C358 O351 1.247 . S
C358 O352 1.261 . S
C359 O354 1.259 . S
C359 O356 1.235 . S
O360 Co350 2.021 . S
O360 C357 1.238 . S
O361 Co355 2.052 . S
O361 C357 1.241 . S
O362 Co350 2.137 . S
O362 C353 1.247 . S
O363 Co350 2.244 . S
O363 C353 1.272 . S
O363 Co355 2.135 . S
Co364 O365 2.216 . S
Co364 O366 2.091 . S
Co364 O368 2.004 . S
Co364 O374 2.021 . S
Co364 O376 2.137 . S
Co364 O377 2.244 . S
O365 Co364 2.216 . S
O365 C372 1.247 . S
O366 Co364 2.091 . S
O366 C372 1.261 . S
C367 O376 1.247 . S
C367 O377 1.272 . S
O368 Co364 2.004 . S
O368 C373 1.259 . S
Co369 O370 2.061 . S
Co369 O375 2.052 . S
Co369 O377 2.135 . S
O370 Co369 2.061 . S
O370 C373 1.235 . S
C371 O374 1.238 . S
C371 O375 1.241 . S
C372 O365 1.247 . S
C372 O366 1.261 . S
C373 O368 1.259 . S
C373 O370 1.235 . S
O374 Co364 2.021 . S
O374 C371 1.238 . S
O375 Co369 2.052 . S
O375 C371 1.241 . S
O376 Co364 2.137 . S
O376 C367 1.247 . S
O377 Co364 2.244 . S
O377 C367 1.272 . S
O377 Co369 2.135 . S
Co378 O379 2.216 . S
Co378 O380 2.091 . S
Co378 O382 2.004 . S
Co378 O388 2.021 . S
Co378 O390 2.137 . S
Co378 O391 2.244 . S
O379 Co378 2.216 . S
O379 C386 1.247 . S
O380 Co378 2.091 . S
O380 C386 1.261 . S
C381 O390 1.247 . S
C381 O391 1.272 . S
O382 Co378 2.004 . S
O382 C387 1.259 . S
Co383 O384 2.061 . S
Co383 O389 2.052 . S
Co383 O391 2.135 . S
O384 Co383 2.061 . S
O384 C387 1.235 . S
C385 O388 1.238 . S
C385 O389 1.241 . S
C386 O379 1.247 . S
C386 O380 1.261 . S
C387 O382 1.259 . S
C387 O384 1.235 . S
O388 Co378 2.021 . S
O388 C385 1.238 . S
O389 Co383 2.052 . S
O389 C385 1.241 . S
O390 Co378 2.137 . S
O390 C381 1.247 . S
O391 Co378 2.244 . S
O391 C381 1.272 . S
O391 Co383 2.135 . S
Co392 O393 2.216 . S
Co392 O394 2.091 . S
Co392 O396 2.004 . S
Co392 O402 2.021 . S
Co392 O404 2.137 . S
Co392 O405 2.244 . S
O393 Co392 2.216 . S
O393 C400 1.247 . S
O394 Co392 2.091 . S
O394 C400 1.261 . S
C395 O404 1.247 . S
C395 O405 1.272 . S
O396 Co392 2.004 . S
O396 C401 1.259 . S
Co397 O398 2.061 . S
Co397 O403 2.052 . S
Co397 O405 2.135 . S
O398 Co397 2.061 . S
O398 C401 1.235 . S
C399 O402 1.238 . S
C399 O403 1.241 . S
C400 O393 1.247 . S
C400 O394 1.261 . S
C401 O396 1.259 . S
C401 O398 1.235 . S
O402 Co392 2.021 . S
O402 C399 1.238 . S
O403 Co397 2.052 . S
O403 C399 1.241 . S
O404 Co392 2.137 . S
O404 C395 1.247 . S
O405 Co392 2.244 . S
O405 C395 1.272 . S
O405 Co397 2.135 . S
Co406 O407 2.216 . S
Co406 O408 2.091 . S
Co406 O410 2.004 . S
Co406 O416 2.021 . S
Co406 O418 2.137 . S
Co406 O419 2.244 . S
O407 Co406 2.216 . S
O407 C414 1.247 . S
O408 Co406 2.091 . S
O408 C414 1.261 . S
C409 O418 1.247 . S
C409 O419 1.272 . S
O410 Co406 2.004 . S
O410 C415 1.259 . S
Co411 O412 2.061 . S
Co411 O417 2.052 . S
Co411 O419 2.135 . S
O412 Co411 2.061 . S
O412 C415 1.235 . S
C413 O416 1.238 . S
C413 O417 1.241 . S
C414 O407 1.247 . S
C414 O408 1.261 . S
C415 O410 1.259 . S
C415 O412 1.235 . S
O416 Co406 2.021 . S
O416 C413 1.238 . S
O417 Co411 2.052 . S
O417 C413 1.241 . S
O418 Co406 2.137 . S
O418 C409 1.247 . S
O419 Co406 2.244 . S
O419 C409 1.272 . S
O419 Co411 2.135 . S
Co420 O421 2.216 . S
Co420 O422 2.091 . S
Co420 O424 2.004 . S
Co420 O430 2.021 1_554 S
Co420 O432 2.137 . S
Co420 O433 2.244 . S
O421 Co420 2.216 . S
O421 C428 1.247 . S
O422 Co420 2.091 . S
O422 C428 1.261 . S
C423 O432 1.247 . S
C423 O433 1.272 . S
O424 Co420 2.004 . S
O424 C429 1.259 . S
Co425 O426 2.061 . S
Co425 O431 2.052 . S
Co425 O433 2.135 . S
O426 Co425 2.061 . S
O426 C429 1.235 . S
C427 O430 1.238 . S
C427 O431 1.241 1_556 S
C428 O421 1.247 . S
C428 O422 1.261 . S
C429 O424 1.259 . S
C429 O426 1.235 . S
O430 Co420 2.021 1_556 S
O430 C427 1.238 . S
O431 Co425 2.052 . S
O431 C427 1.241 1_554 S
O432 Co420 2.137 . S
O432 C423 1.247 . S
O433 Co420 2.244 . S
O433 C423 1.272 . S
O433 Co425 2.135 . S
Co434 O435 2.216 . S
Co434 O436 2.091 . S
Co434 O438 2.004 . S
Co434 O444 2.021 . S
Co434 O446 2.137 . S
Co434 O447 2.244 . S
O435 Co434 2.216 . S
O435 C442 1.247 . S
O436 Co434 2.091 . S
O436 C442 1.261 . S
C437 O446 1.247 . S
C437 O447 1.272 . S
O438 Co434 2.004 . S
O438 C443 1.259 . S
Co439 O440 2.061 . S
Co439 O445 2.052 . S
Co439 O447 2.135 . S
O440 Co439 2.061 . S
O440 C443 1.235 . S
C441 O444 1.238 . S
C441 O445 1.241 . S
C442 O435 1.247 . S
C442 O436 1.261 . S
C443 O438 1.259 . S
C443 O440 1.235 . S
O444 Co434 2.021 . S
O444 C441 1.238 . S
O445 Co439 2.052 . S
O445 C441 1.241 . S
O446 Co434 2.137 . S
O446 C437 1.247 . S
O447 Co434 2.244 . S
O447 C437 1.272 . S
O447 Co439 2.135 . S
H448 C456 0.950 . S
H449 C461 0.950 . S
H450 C458 0.950 . S
H451 C460 0.950 . S
H452 C462 0.950 . S
H453 C464 0.950 . S
H454 C466 0.950 . S
H455 C467 0.950 . S
C456 H448 0.950 . S
C456 C457 1.386 . S
C456 C458 1.391 . S
C457 C456 1.386 . S
C457 C461 1.393 . S
C458 H450 0.950 . S
C458 C456 1.391 . S
C458 C459 1.400 . S
C459 C458 1.400 . S
C459 C460 1.398 . S
C459 C465 1.491 . S
C460 H451 0.950 . S
C460 C459 1.398 . S
C460 C461 1.391 . S
C461 H449 0.950 . S
C461 C457 1.393 . S
C461 C460 1.391 . S
C462 H452 0.950 . S
C462 C463 1.386 . S
C462 C464 1.391 . S
C463 C462 1.386 . S
C463 C467 1.393 1_554 S
C464 H453 0.950 . S
C464 C462 1.391 . S
C464 C465 1.400 1_554 S
C465 C459 1.491 . S
C465 C464 1.400 1_556 S
C465 C466 1.398 . S
C466 H454 0.950 . S
C466 C465 1.398 . S
C466 C467 1.391 . S
C467 H455 0.950 . S
C467 C463 1.393 1_556 S
C467 C466 1.391 . S
H468 C476 0.950 . S
H469 C481 0.950 . S
H470 C478 0.950 . S
H471 C480 0.950 . S
H472 C482 0.950 . S
H473 C484 0.950 . S
H474 C486 0.950 . S
H475 C487 0.950 . S
C476 H468 0.950 . S
C476 C477 1.386 . S
C476 C478 1.391 . S
C477 C476 1.386 . S
C477 C481 1.393 . S
C478 H470 0.950 . S
C478 C476 1.391 . S
C478 C479 1.400 . S
C479 C478 1.400 . S
C479 C480 1.398 . S
C479 C485 1.491 . S
C480 H471 0.950 . S
C480 C479 1.398 . S
C480 C481 1.391 . S
C481 H469 0.950 . S
C481 C477 1.393 . S
C481 C480 1.391 . S
C482 H472 0.950 . S
C482 C483 1.386 . S
C482 C484 1.391 . S
C483 C482 1.386 . S
C483 C487 1.393 . S
C484 H473 0.950 . S
C484 C482 1.391 . S
C484 C485 1.400 . S
C485 C479 1.491 . S
C485 C484 1.400 . S
C485 C486 1.398 . S
C486 H474 0.950 . S
C486 C485 1.398 . S
C486 C487 1.391 . S
C487 H475 0.950 . S
C487 C483 1.393 . S
C487 C486 1.391 . S
H488 C496 0.950 . S
H489 C501 0.950 . S
H490 C498 0.950 . S
H491 C500 0.950 . S
H492 C502 0.950 . S
H493 C504 0.950 . S
H494 C506 0.950 . S
H495 C507 0.950 . S
C496 H488 0.950 . S
C496 C497 1.386 . S
C496 C498 1.391 . S
C497 C496 1.386 . S
C497 C501 1.393 . S
C498 H490 0.950 . S
C498 C496 1.391 . S
C498 C499 1.400 . S
C499 C498 1.400 . S
C499 C500 1.398 . S
C499 C505 1.491 . S
C500 H491 0.950 . S
C500 C499 1.398 . S
C500 C501 1.391 . S
C501 H489 0.950 . S
C501 C497 1.393 . S
C501 C500 1.391 . S
C502 H492 0.950 . S
C502 C503 1.386 . S
C502 C504 1.391 . S
C503 C502 1.386 . S
C503 C507 1.393 . S
C504 H493 0.950 . S
C504 C502 1.391 . S
C504 C505 1.400 . S
C505 C499 1.491 . S
C505 C504 1.400 . S
C505 C506 1.398 . S
C506 H494 0.950 . S
C506 C505 1.398 . S
C506 C507 1.391 . S
C507 H495 0.950 . S
C507 C503 1.393 . S
C507 C506 1.391 . S
H508 C516 0.950 . S
H509 C521 0.950 . S
H510 C518 0.950 . S
H511 C520 0.950 . S
H512 C522 0.950 . S
H513 C524 0.950 . S
H514 C526 0.950 . S
H515 C527 0.950 . S
C516 H508 0.950 . S
C516 C517 1.386 . S
C516 C518 1.391 . S
C517 C516 1.386 . S
C517 C521 1.393 . S
C518 H510 0.950 . S
C518 C516 1.391 . S
C518 C519 1.400 . S
C519 C518 1.400 . S
C519 C520 1.398 . S
C519 C525 1.491 . S
C520 H511 0.950 . S
C520 C519 1.398 . S
C520 C521 1.391 . S
C521 H509 0.950 . S
C521 C517 1.393 . S
C521 C520 1.391 . S
C522 H512 0.950 . S
C522 C523 1.386 . S
C522 C524 1.391 . S
C523 C522 1.386 . S
C523 C527 1.393 . S
C524 H513 0.950 . S
C524 C522 1.391 . S
C524 C525 1.400 . S
C525 C519 1.491 . S
C525 C524 1.400 . S
C525 C526 1.398 . S
C526 H514 0.950 . S
C526 C525 1.398 . S
C526 C527 1.391 . S
C527 H515 0.950 . S
C527 C523 1.393 . S
C527 C526 1.391 . S
H528 C536 0.950 . S
H529 C541 0.950 . S
H530 C538 0.950 . S
H531 C540 0.950 . S
H532 C542 0.950 . S
H533 C544 0.950 . S
H534 C546 0.950 . S
H535 C547 0.950 . S
C536 H528 0.950 . S
C536 C537 1.386 . S
C536 C538 1.391 . S
C537 C536 1.386 . S
C537 C541 1.393 . S
C538 H530 0.950 . S
C538 C536 1.391 . S
C538 C539 1.400 . S
C539 C538 1.400 . S
C539 C540 1.398 . S
C539 C545 1.491 . S
C540 H531 0.950 . S
C540 C539 1.398 . S
C540 C541 1.391 . S
C541 H529 0.950 . S
C541 C537 1.393 . S
C541 C540 1.391 . S
C542 H532 0.950 . S
C542 C543 1.386 . S
C542 C544 1.391 . S
C543 C542 1.386 . S
C543 C547 1.393 . S
C544 H533 0.950 . S
C544 C542 1.391 . S
C544 C545 1.400 . S
C545 C539 1.491 . S
C545 C544 1.400 . S
C545 C546 1.398 . S
C546 H534 0.950 . S
C546 C545 1.398 . S
C546 C547 1.391 . S
C547 H535 0.950 . S
C547 C543 1.393 . S
C547 C546 1.391 . S
H548 C556 0.950 . S
H549 C561 0.950 . S
H550 C558 0.950 . S
H551 C560 0.950 1_554 S
H552 C562 0.950 . S
H553 C564 0.950 . S
H554 C566 0.950 . S
H555 C567 0.950 . S
C556 H548 0.950 . S
C556 C557 1.386 . S
C556 C558 1.391 . S
C557 C556 1.386 . S
C557 C561 1.393 . S
C558 H550 0.950 . S
C558 C556 1.391 . S
C558 C559 1.400 . S
C559 C558 1.400 . S
C559 C560 1.398 . S
C559 C565 1.491 . S
C560 H551 0.950 1_556 S
C560 C559 1.398 . S
C560 C561 1.391 . S
C561 H549 0.950 . S
C561 C557 1.393 . S
C561 C560 1.391 . S
C562 H552 0.950 . S
C562 C563 1.386 . S
C562 C564 1.391 . S
C563 C562 1.386 . S
C563 C567 1.393 1_554 S
C564 H553 0.950 . S
C564 C562 1.391 . S
C564 C565 1.400 1_554 S
C565 C559 1.491 . S
C565 C564 1.400 1_556 S
C565 C566 1.398 . S
C566 H554 0.950 . S
C566 C565 1.398 . S
C566 C567 1.391 . S
C567 H555 0.950 . S
C567 C563 1.393 1_556 S
C567 C566 1.391 . S
H568 C576 0.950 . S
H569 C581 0.950 . S
H570 C578 0.950 . S
H571 C580 0.950 . S
H572 C582 0.950 . S
H573 C584 0.950 . S
H574 C586 0.950 . S
H575 C587 0.950 . S
C576 H568 0.950 . S
C576 C577 1.386 . S
C576 C578 1.391 . S
C577 C576 1.386 . S
C577 C581 1.393 . S
C578 H570 0.950 . S
C578 C576 1.391 . S
C578 C579 1.400 . S
C579 C578 1.400 . S
C579 C580 1.398 . S
C579 C585 1.491 . S
C580 H571 0.950 . S
C580 C579 1.398 . S
C580 C581 1.391 . S
C581 H569 0.950 . S
C581 C577 1.393 . S
C581 C580 1.391 . S
C582 H572 0.950 . S
C582 C583 1.386 . S
C582 C584 1.391 . S
C583 C582 1.386 . S
C583 C587 1.393 . S
C584 H573 0.950 . S
C584 C582 1.391 . S
C584 C585 1.400 . S
C585 C579 1.491 . S
C585 C584 1.400 . S
C585 C586 1.398 . S
C586 H574 0.950 . S
C586 C585 1.398 . S
C586 C587 1.391 . S
C587 H575 0.950 . S
C587 C583 1.393 . S
C587 C586 1.391 . S
H588 C596 0.950 . S
H589 C601 0.950 . S
H590 C598 0.950 . S
H591 C600 0.950 . S
H592 C602 0.950 . S
H593 C604 0.950 . S
H594 C606 0.950 . S
H595 C607 0.950 . S
C596 H588 0.950 . S
C596 C597 1.386 . S
C596 C598 1.391 . S
C597 C596 1.386 . S
C597 C601 1.393 . S
C598 H590 0.950 . S
C598 C596 1.391 . S
C598 C599 1.400 . S
C599 C598 1.400 . S
C599 C600 1.398 . S
C599 C605 1.491 . S
C600 H591 0.950 . S
C600 C599 1.398 . S
C600 C601 1.391 . S
C601 H589 0.950 . S
C601 C597 1.393 . S
C601 C600 1.391 . S
C602 H592 0.950 . S
C602 C603 1.386 . S
C602 C604 1.391 . S
C603 C602 1.386 . S
C603 C607 1.393 . S
C604 H593 0.950 . S
C604 C602 1.391 . S
C604 C605 1.400 . S
C605 C599 1.491 . S
C605 C604 1.400 . S
C605 C606 1.398 . S
C606 H594 0.950 . S
C606 C605 1.398 . S
C606 C607 1.391 . S
C607 H595 0.950 . S
C607 C603 1.393 . S
C607 C606 1.391 . S
H608 C616 0.950 . S
H609 C621 0.950 . S
H610 C618 0.950 . S
H611 C620 0.950 . S
H612 C622 0.950 . S
H613 C624 0.950 . S
H614 C626 0.950 . S
H615 C627 0.950 . S
C616 H608 0.950 . S
C616 C617 1.386 . S
C616 C618 1.391 . S
C617 C616 1.386 . S
C617 C621 1.393 . S
C618 H610 0.950 . S
C618 C616 1.391 . S
C618 C619 1.400 . S
C619 C618 1.400 . S
C619 C620 1.398 . S
C619 C625 1.491 . S
C620 H611 0.950 . S
C620 C619 1.398 . S
C620 C621 1.391 . S
C621 H609 0.950 . S
C621 C617 1.393 . S
C621 C620 1.391 . S
C622 H612 0.950 . S
C622 C623 1.386 . S
C622 C624 1.391 . S
C623 C622 1.386 . S
C623 C627 1.393 . S
C624 H613 0.950 . S
C624 C622 1.391 . S
C624 C625 1.400 . S
C625 C619 1.491 . S
C625 C624 1.400 . S
C625 C626 1.398 . S
C626 H614 0.950 . S
C626 C625 1.398 . S
C626 C627 1.391 . S
C627 H615 0.950 . S
C627 C623 1.393 . S
C627 C626 1.391 . S
H628 C636 0.950 . S
H629 C641 0.950 . S
H630 C638 0.950 . S
H631 C640 0.950 . S
H632 C642 0.950 . S
H633 C644 0.950 . S
H634 C646 0.950 . S
H635 C647 0.950 . S
C636 H628 0.950 . S
C636 C637 1.386 . S
C636 C638 1.391 . S
C637 C636 1.386 . S
C637 C641 1.393 . S
C638 H630 0.950 . S
C638 C636 1.391 . S
C638 C639 1.400 . S
C639 C638 1.400 . S
C639 C640 1.398 . S
C639 C645 1.491 . S
C640 H631 0.950 . S
C640 C639 1.398 . S
C640 C641 1.391 . S
C641 H629 0.950 . S
C641 C637 1.393 . S
C641 C640 1.391 . S
C642 H632 0.950 . S
C642 C643 1.386 . S
C642 C644 1.391 . S
C643 C642 1.386 . S
C643 C647 1.393 . S
C644 H633 0.950 . S
C644 C642 1.391 . S
C644 C645 1.400 . S
C645 C639 1.491 . S
C645 C644 1.400 . S
C645 C646 1.398 . S
C646 H634 0.950 . S
C646 C645 1.398 . S
C646 C647 1.391 . S
C647 H635 0.950 . S
C647 C643 1.393 . S
C647 C646 1.391 . S
H648 C656 0.950 . S
H649 C661 0.950 . S
H650 C658 0.950 . S
H651 C660 0.950 . S
H652 C662 0.950 . S
H653 C664 0.950 . S
H654 C666 0.950 . S
H655 C667 0.950 . S
C656 H648 0.950 . S
C656 C657 1.386 . S
C656 C658 1.391 . S
C657 C656 1.386 . S
C657 C661 1.393 . S
C658 H650 0.950 . S
C658 C656 1.391 . S
C658 C659 1.400 . S
C659 C658 1.400 . S
C659 C660 1.398 . S
C659 C665 1.491 . S
C660 H651 0.950 . S
C660 C659 1.398 . S
C660 C661 1.391 . S
C661 H649 0.950 . S
C661 C657 1.393 . S
C661 C660 1.391 . S
C662 H652 0.950 . S
C662 C663 1.386 . S
C662 C664 1.391 1_554 S
C663 C662 1.386 . S
C663 C667 1.393 . S
C664 H653 0.950 . S
C664 C662 1.391 1_556 S
C664 C665 1.400 . S
C665 C659 1.491 . S
C665 C664 1.400 . S
C665 C666 1.401 . S
C666 H654 0.950 . S
C666 C665 1.401 . S
C666 C667 1.388 1_556 S
C667 H655 0.950 . S
C667 C663 1.393 . S
C667 C666 1.388 1_554 S
H668 C676 0.950 . S
H669 C681 0.950 . S
H670 C678 0.950 . S
H671 C680 0.950 . S
H672 C682 0.950 . S
H673 C684 0.950 . S
H674 C686 0.950 . S
H675 C687 0.950 . S
C676 H668 0.950 . S
C676 C677 1.386 . S
C676 C678 1.391 . S
C677 C676 1.386 . S
C677 C681 1.393 . S
C678 H670 0.950 . S
C678 C676 1.391 . S
C678 C679 1.400 . S
C679 C678 1.400 . S
C679 C680 1.398 . S
C679 C685 1.491 . S
C680 H671 0.950 . S
C680 C679 1.398 . S
C680 C681 1.391 . S
C681 H669 0.950 . S
C681 C677 1.393 . S
C681 C680 1.391 . S
C682 H672 0.950 . S
C682 C683 1.386 . S
C682 C684 1.391 . S
C683 C682 1.386 . S
C683 C687 1.393 . S
C684 H673 0.950 . S
C684 C682 1.391 . S
C684 C685 1.400 . S
C685 C679 1.491 . S
C685 C684 1.400 . S
C685 C686 1.398 . S
C686 H674 0.950 . S
C686 C685 1.398 . S
C686 C687 1.391 . S
C687 H675 0.950 . S
C687 C683 1.393 . S
C687 C686 1.391 . S
H688 C696 0.950 . S
H689 C701 0.950 . S
H690 C698 0.950 . S
H691 C700 0.950 . S
H692 C702 0.950 . S
H693 C704 0.950 . S
H694 C706 0.950 . S
H695 C707 0.950 . S
C696 H688 0.950 . S
C696 C697 1.386 . S
C696 C698 1.391 . S
C697 C696 1.386 . S
C697 C701 1.393 . S
C698 H690 0.950 . S
C698 C696 1.391 . S
C698 C699 1.400 . S
C699 C698 1.400 . S
C699 C700 1.398 . S
C699 C705 1.491 . S
C700 H691 0.950 . S
C700 C699 1.398 . S
C700 C701 1.391 . S
C701 H689 0.950 . S
C701 C697 1.393 . S
C701 C700 1.391 . S
C702 H692 0.950 . S
C702 C703 1.386 . S
C702 C704 1.391 . S
C703 C702 1.386 . S
C703 C707 1.393 . S
C704 H693 0.950 . S
C704 C702 1.391 . S
C704 C705 1.400 . S
C705 C699 1.491 . S
C705 C704 1.400 . S
C705 C706 1.398 . S
C706 H694 0.950 . S
C706 C705 1.398 . S
C706 C707 1.391 . S
C707 H695 0.950 . S
C707 C703 1.393 . S
C707 C706 1.391 . S
H708 C716 0.950 . S
H709 C721 0.950 . S
H710 C718 0.950 . S
H711 C720 0.950 . S
H712 C722 0.950 . S
H713 C724 0.950 . S
H714 C726 0.950 . S
H715 C727 0.950 . S
C716 H708 0.950 . S
C716 C717 1.386 . S
C716 C718 1.391 . S
C717 C716 1.386 . S
C717 C721 1.393 . S
C718 H710 0.950 . S
C718 C716 1.391 . S
C718 C719 1.400 . S
C719 C718 1.400 . S
C719 C720 1.398 . S
C719 C725 1.491 . S
C720 H711 0.950 . S
C720 C719 1.398 . S
C720 C721 1.391 . S
C721 H709 0.950 . S
C721 C717 1.393 . S
C721 C720 1.391 . S
C722 H712 0.950 . S
C722 C723 1.386 . S
C722 C724 1.391 . S
C723 C722 1.386 . S
C723 C727 1.393 . S
C724 H713 0.950 . S
C724 C722 1.391 . S
C724 C725 1.400 . S
C725 C719 1.491 . S
C725 C724 1.400 . S
C725 C726 1.398 . S
C726 H714 0.950 . S
C726 C725 1.398 . S
C726 C727 1.391 . S
C727 H715 0.950 . S
C727 C723 1.393 . S
C727 C726 1.391 . S
H728 C736 0.950 . S
H729 C741 0.950 . S
H730 C738 0.950 . S
H731 C740 0.950 . S
H732 C742 0.950 . S
H733 C744 0.950 . S
H734 C746 0.950 . S
H735 C747 0.950 . S
C736 H728 0.950 . S
C736 C737 1.386 . S
C736 C738 1.391 . S
C737 C736 1.386 . S
C737 C741 1.393 . S
C738 H730 0.950 . S
C738 C736 1.391 . S
C738 C739 1.400 . S
C739 C738 1.400 . S
C739 C740 1.398 . S
C739 C745 1.491 . S
C740 H731 0.950 . S
C740 C739 1.398 . S
C740 C741 1.391 . S
C741 H729 0.950 . S
C741 C737 1.393 . S
C741 C740 1.391 . S
C742 H732 0.950 . S
C742 C743 1.386 . S
C742 C744 1.391 . S
C743 C742 1.386 . S
C743 C747 1.393 . S
C744 H733 0.950 . S
C744 C742 1.391 . S
C744 C745 1.400 . S
C745 C739 1.491 . S
C745 C744 1.400 . S
C745 C746 1.398 . S
C746 H734 0.950 . S
C746 C745 1.398 . S
C746 C747 1.391 . S
C747 H735 0.950 . S
C747 C743 1.393 . S
C747 C746 1.391 . S
H748 C756 0.950 . S
H749 C761 0.950 . S
H750 C758 0.950 . S
H751 C760 0.950 . S
H752 C762 0.950 . S
H753 C764 0.950 . S
H754 C766 0.950 . S
H755 C767 0.950 . S
C756 H748 0.950 . S
C756 C757 1.386 . S
C756 C758 1.391 . S
C757 C756 1.386 . S
C757 C761 1.393 . S
C758 H750 0.950 . S
C758 C756 1.391 . S
C758 C759 1.400 . S
C759 C758 1.400 . S
C759 C760 1.398 . S
C759 C765 1.491 . S
C760 H751 0.950 . S
C760 C759 1.398 . S
C760 C761 1.391 . S
C761 H749 0.950 . S
C761 C757 1.393 . S
C761 C760 1.391 . S
C762 H752 0.950 . S
C762 C763 1.386 . S
C762 C764 1.392 1_554 S
C763 C762 1.386 . S
C763 C767 1.393 . S
C764 H753 0.950 . S
C764 C762 1.392 1_556 S
C764 C765 1.400 . S
C765 C759 1.491 . S
C765 C764 1.400 . S
C765 C766 1.398 . S
C766 H754 0.950 . S
C766 C765 1.398 . S
C766 C767 1.391 1_556 S
C767 H755 0.950 . S
C767 C763 1.393 . S
C767 C766 1.391 1_554 S
H768 C776 0.950 . S
H769 C781 0.950 . S
H770 C778 0.950 . S
H771 C780 0.950 . S
H772 C782 0.950 . S
H773 C784 0.950 . S
H774 C786 0.950 . S
H775 C787 0.950 . S
C776 H768 0.950 . S
C776 C777 1.386 . S
C776 C778 1.391 . S
C777 C776 1.386 . S
C777 C781 1.393 . S
C778 H770 0.950 . S
C778 C776 1.391 . S
C778 C779 1.400 . S
C779 C778 1.400 . S
C779 C780 1.398 . S
C779 C785 1.491 . S
C780 H771 0.950 . S
C780 C779 1.398 . S
C780 C781 1.391 . S
C781 H769 0.950 . S
C781 C777 1.393 . S
C781 C780 1.391 . S
C782 H772 0.950 . S
C782 C783 1.386 . S
C782 C784 1.391 . S
C783 C782 1.386 . S
C783 C787 1.393 . S
C784 H773 0.950 . S
C784 C782 1.391 . S
C784 C785 1.400 . S
C785 C779 1.491 . S
C785 C784 1.400 . S
C785 C786 1.398 . S
C786 H774 0.950 . S
C786 C785 1.398 . S
C786 C787 1.391 . S
C787 H775 0.950 . S
C787 C783 1.393 . S
C787 C786 1.391 . S
H788 C796 0.950 . S
H789 C801 0.950 . S
H790 C798 0.975 . S
H791 C800 0.950 . S
H792 C802 0.950 . S
H793 C804 0.981 . S
H794 C806 0.950 . S
H795 C807 0.950 . S
C796 H788 0.950 . S
C796 C797 1.386 . S
C796 C798 1.377 1_565 S
C797 C796 1.386 . S
C797 C801 1.393 . S
C798 H790 0.975 . S
C798 C796 1.377 1_545 S
C798 C799 1.392 1_545 S
C799 C798 1.392 1_565 S
C799 C800 1.398 . S
C799 C805 1.491 1_565 S
C800 H791 0.950 . S
C800 C799 1.398 . S
C800 C801 1.391 . S
C801 H789 0.950 . S
C801 C797 1.393 . S
C801 C800 1.391 . S
C802 H792 0.950 . S
C802 C803 1.386 . S
C802 C804 1.373 1_546 S
C803 C802 1.386 . S
C803 C807 1.393 . S
C804 H793 0.981 . S
C804 C802 1.373 1_564 S
C804 C805 1.390 1_565 S
C805 C799 1.491 1_545 S
C805 C804 1.390 1_545 S
C805 C806 1.398 . S
C806 H794 0.950 . S
C806 C805 1.398 . S
C806 C807 1.391 1_554 S
C807 H795 0.950 . S
C807 C803 1.393 . S
C807 C806 1.391 1_556 S
H808 C816 0.950 . S
H809 C821 0.950 . S
H810 C818 0.950 . S
H811 C820 0.950 . S
H812 C822 0.950 . S
H813 C824 0.950 . S
H814 C826 0.950 . S
H815 C827 0.950 . S
C816 H808 0.950 . S
C816 C817 1.386 . S
C816 C818 1.391 . S
C817 C816 1.386 . S
C817 C821 1.393 . S
C818 H810 0.950 . S
C818 C816 1.391 . S
C818 C819 1.400 . S
C819 C818 1.400 . S
C819 C820 1.398 . S
C819 C825 1.491 . S
C820 H811 0.950 . S
C820 C819 1.398 . S
C820 C821 1.391 . S
C821 H809 0.950 . S
C821 C817 1.393 . S
C821 C820 1.391 . S
C822 H812 0.950 . S
C822 C823 1.386 . S
C822 C824 1.391 . S
C823 C822 1.386 . S
C823 C827 1.393 . S
C824 H813 0.950 . S
C824 C822 1.391 . S
C824 C825 1.400 . S
C825 C819 1.491 . S
C825 C824 1.400 . S
C825 C826 1.398 . S
C826 H814 0.950 . S
C826 C825 1.398 . S
C826 C827 1.391 . S
C827 H815 0.950 . S
C827 C823 1.393 . S
C827 C826 1.391 . S
H828 C836 0.948 1_565 S
H829 C841 0.950 . S
H830 C838 0.950 . S
H831 C840 0.950 . S
H832 C842 0.943 1_545 S
H833 C844 0.950 . S
H834 C846 0.950 . S
H835 C847 0.950 . S
C836 H828 0.948 1_545 S
C836 C837 1.388 . S
C836 C838 1.390 1_545 S
C837 C836 1.388 . S
C837 C841 1.393 . S
C838 H830 0.950 . S
C838 C836 1.390 1_565 S
C838 C839 1.400 1_565 S
C839 C838 1.400 1_545 S
C839 C840 1.398 . S
C839 C845 1.491 1_545 S
C840 H831 0.950 . S
C840 C839 1.398 . S
C840 C841 1.391 . S
C841 H829 0.950 . S
C841 C837 1.393 . S
C841 C840 1.391 . S
C842 H832 0.943 1_565 S
C842 C843 1.397 . S
C842 C844 1.387 1_565 S
C843 C842 1.397 . S
C843 C847 1.393 . S
C844 H833 0.950 . S
C844 C842 1.387 1_545 S
C844 C845 1.400 1_545 S
C845 C839 1.491 1_565 S
C845 C844 1.400 1_565 S
C845 C846 1.398 . S
C846 H834 0.950 . S
C846 C845 1.398 . S
C846 C847 1.391 . S
C847 H835 0.950 . S
C847 C843 1.393 . S
C847 C846 1.391 . S
H848 C856 0.950 . S
H849 C861 0.950 . S
H850 C858 0.950 . S
H851 C860 0.950 . S
H852 C862 0.950 . S
H853 C864 0.950 . S
H854 C866 0.950 . S
H855 C867 0.950 . S
C856 H848 0.950 . S
C856 C857 1.386 . S
C856 C858 1.391 . S
C857 C856 1.386 . S
C857 C861 1.393 . S
C858 H850 0.950 . S
C858 C856 1.391 . S
C858 C859 1.400 . S
C859 C858 1.400 . S
C859 C860 1.398 . S
C859 C865 1.491 . S
C860 H851 0.950 . S
C860 C859 1.398 . S
C860 C861 1.391 . S
C861 H849 0.950 . S
C861 C857 1.393 . S
C861 C860 1.391 . S
C862 H852 0.950 . S
C862 C863 1.386 . S
C862 C864 1.391 . S
C863 C862 1.386 . S
C863 C867 1.393 . S
C864 H853 0.950 . S
C864 C862 1.391 . S
C864 C865 1.400 . S
C865 C859 1.491 . S
C865 C864 1.400 . S
C865 C866 1.398 . S
C866 H854 0.950 . S
C866 C865 1.398 . S
C866 C867 1.391 . S
C867 H855 0.950 . S
C867 C863 1.393 . S
C867 C866 1.391 . S
H868 C876 0.950 . S
H869 C881 0.950 . S
H870 C878 0.950 1_565 S
H871 C880 0.950 . S
H872 C882 0.950 . S
H873 C884 0.950 1_545 S
H874 C886 0.950 . S
H875 C887 0.950 . S
C876 H868 0.950 . S
C876 C877 1.386 . S
C876 C878 1.391 1_556 S
C877 C876 1.386 . S
C877 C881 1.393 . S
C878 H870 0.950 1_545 S
C878 C876 1.391 1_554 S
C878 C879 1.400 . S
C879 C878 1.400 . S
C879 C880 1.398 . S
C879 C885 1.491 1_545 S
C880 H871 0.950 . S
C880 C879 1.398 . S
C880 C881 1.391 1_554 S
C881 H869 0.950 . S
C881 C877 1.393 . S
C881 C880 1.391 1_556 S
C882 H872 0.950 . S
C882 C883 1.386 . S
C882 C884 1.391 . S
C883 C882 1.386 . S
C883 C887 1.393 . S
C884 H873 0.950 1_565 S
C884 C882 1.391 . S
C884 C885 1.400 . S
C885 C879 1.491 1_565 S
C885 C884 1.400 . S
C885 C886 1.398 . S
C886 H874 0.950 . S
C886 C885 1.398 . S
C886 C887 1.391 . S
C887 H875 0.950 . S
C887 C883 1.393 . S
C887 C886 1.391 . S
H888 C896 0.950 . S
H889 C901 0.950 . S
H890 C898 0.950 . S
H891 C900 0.950 . S
H892 C902 0.950 . S
H893 C904 0.950 . S
H894 C906 0.950 . S
H895 C907 0.950 . S
C896 H888 0.950 . S
C896 C897 1.386 . S
C896 C898 1.391 . S
C897 C896 1.386 . S
C897 C901 1.393 . S
C898 H890 0.950 . S
C898 C896 1.391 . S
C898 C899 1.400 . S
C899 C898 1.400 . S
C899 C900 1.398 . S
C899 C905 1.491 . S
C900 H891 0.950 . S
C900 C899 1.398 . S
C900 C901 1.391 . S
C901 H889 0.950 . S
C901 C897 1.393 . S
C901 C900 1.391 . S
C902 H892 0.950 . S
C902 C903 1.386 . S
C902 C904 1.391 . S
C903 C902 1.386 . S
C903 C907 1.393 . S
C904 H893 0.950 . S
C904 C902 1.391 . S
C904 C905 1.400 . S
C905 C899 1.491 . S
C905 C904 1.400 . S
C905 C906 1.398 . S
C906 H894 0.950 . S
C906 C905 1.398 . S
C906 C907 1.391 . S
C907 H895 0.950 . S
C907 C903 1.393 . S
C907 C906 1.391 . S
H908 C916 0.950 . S
H909 C921 0.950 . S
H910 C918 0.950 . S
H911 C920 0.950 . S
H912 C922 0.950 . S
H913 C924 0.950 . S
H914 C926 0.950 . S
H915 C927 0.950 . S
C916 H908 0.950 . S
C916 C917 1.386 . S
C916 C918 1.391 . S
C917 C916 1.386 . S
C917 C921 1.393 . S
C918 H910 0.950 . S
C918 C916 1.391 . S
C918 C919 1.400 . S
C919 C918 1.400 . S
C919 C920 1.398 . S
C919 C925 1.491 1_545 S
C920 H911 0.950 . S
C920 C919 1.398 . S
C920 C921 1.391 . S
C921 H909 0.950 . S
C921 C917 1.393 . S
C921 C920 1.391 . S
C922 H912 0.950 . S
C922 C923 1.386 . S
C922 C924 1.391 . S
C923 C922 1.386 . S
C923 C927 1.393 . S
C924 H913 0.950 . S
C924 C922 1.391 . S
C924 C925 1.400 . S
C925 C919 1.491 1_565 S
C925 C924 1.400 . S
C925 C926 1.398 . S
C926 H914 0.950 . S
C926 C925 1.398 . S
C926 C927 1.391 . S
C927 H915 0.950 . S
C927 C923 1.393 . S
C927 C926 1.391 . S
H928 C936 0.950 . S
H929 C941 0.950 . S
H930 C938 0.950 . S
H931 C940 0.950 . S
H932 C942 0.950 . S
H933 C944 0.950 . S
H934 C946 0.950 . S
H935 C947 0.950 . S
C936 H928 0.950 . S
C936 C937 1.386 . S
C936 C938 1.391 . S
C937 C936 1.386 . S
C937 C941 1.393 . S
C938 H930 0.950 . S
C938 C936 1.391 . S
C938 C939 1.400 . S
C939 C938 1.400 . S
C939 C940 1.398 . S
C939 C945 1.491 . S
C940 H931 0.950 . S
C940 C939 1.398 . S
C940 C941 1.391 . S
C941 H929 0.950 . S
C941 C937 1.393 . S
C941 C940 1.391 . S
C942 H932 0.950 . S
C942 C943 1.386 . S
C942 C944 1.391 . S
C943 C942 1.386 . S
C943 C947 1.393 . S
C944 H933 0.950 . S
C944 C942 1.391 . S
C944 C945 1.400 . S
C945 C939 1.491 . S
C945 C944 1.400 . S
C945 C946 1.398 . S
C946 H934 0.950 . S
C946 C945 1.398 . S
C946 C947 1.391 . S
C947 H935 0.950 . S
C947 C943 1.393 . S
C947 C946 1.391 . S
H948 C956 0.950 . S
H949 C961 0.950 . S
H950 C958 0.950 . S
H951 C960 0.950 . S
H952 C962 0.950 . S
H953 C964 0.950 . S
H954 C966 0.950 . S
H955 C967 0.950 . S
C956 H948 0.950 . S
C956 C957 1.386 . S
C956 C958 1.391 . S
C957 C956 1.386 . S
C957 C961 1.393 . S
C958 H950 0.950 . S
C958 C956 1.391 . S
C958 C959 1.400 . S
C959 C958 1.400 . S
C959 C960 1.398 . S
C959 C965 1.491 . S
C960 H951 0.950 . S
C960 C959 1.398 . S
C960 C961 1.391 . S
C961 H949 0.950 . S
C961 C957 1.393 . S
C961 C960 1.391 . S
C962 H952 0.950 . S
C962 C963 1.386 . S
C962 C964 1.391 . S
C963 C962 1.386 . S
C963 C967 1.393 . S
C964 H953 0.950 . S
C964 C962 1.391 . S
C964 C965 1.400 . S
C965 C959 1.491 . S
C965 C964 1.400 . S
C965 C966 1.398 . S
C966 H954 0.950 . S
C966 C965 1.398 . S
C966 C967 1.391 . S
C967 H955 0.950 . S
C967 C963 1.393 . S
C967 C966 1.391 . S
H968 C976 0.950 . S
H969 C981 0.950 . S
H970 C978 0.950 . S
H971 C980 0.950 . S
H972 C982 0.950 . S
H973 C984 0.950 . S
H974 C986 0.950 . S
H975 C987 0.950 . S
C976 H968 0.950 . S
C976 C977 1.386 . S
C976 C978 1.391 . S
C977 C976 1.386 . S
C977 C981 1.393 . S
C978 H970 0.950 . S
C978 C976 1.391 . S
C978 C979 1.400 . S
C979 C978 1.400 . S
C979 C980 1.398 . S
C979 C985 1.491 . S
C980 H971 0.950 . S
C980 C979 1.398 . S
C980 C981 1.391 . S
C981 H969 0.950 . S
C981 C977 1.393 . S
C981 C980 1.391 . S
C982 H972 0.950 . S
C982 C983 1.386 . S
C982 C984 1.391 . S
C983 C982 1.386 . S
C983 C987 1.393 . S
C984 H973 0.950 . S
C984 C982 1.391 . S
C984 C985 1.400 . S
C985 C979 1.491 . S
C985 C984 1.400 . S
C985 C986 1.398 . S
C986 H974 0.950 . S
C986 C985 1.398 . S
C986 C987 1.391 . S
C987 H975 0.950 . S
C987 C983 1.393 . S
C987 C986 1.391 . S
H988 C996 0.950 . S
H989 C1001 0.950 . S
H990 C998 0.950 . S
H991 C1000 0.950 . S
H992 C1002 0.950 . S
H993 C1004 0.950 . S
H994 C1006 0.950 . S
H995 C1007 0.950 . S
C996 H988 0.950 . S
C996 C997 1.386 . S
C996 C998 1.391 . S
C997 C996 1.386 . S
C997 C1001 1.393 . S
C998 H990 0.950 . S
C998 C996 1.391 . S
C998 C999 1.400 . S
C999 C998 1.400 . S
C999 C1000 1.398 . S
C999 C1005 1.491 . S
C1000 H991 0.950 . S
C1000 C999 1.398 . S
C1000 C1001 1.391 . S
C1001 H989 0.950 . S
C1001 C997 1.393 . S
C1001 C1000 1.391 . S
C1002 H992 0.950 . S
C1002 C1003 1.386 . S
C1002 C1004 1.391 1_556 S
C1003 C1002 1.386 . S
C1003 C1007 1.393 . S
C1004 H993 0.950 . S
C1004 C1002 1.391 1_554 S
C1004 C1005 1.400 . S
C1005 C999 1.491 . S
C1005 C1004 1.400 . S
C1005 C1006 1.398 . S
C1006 H994 0.950 . S
C1006 C1005 1.398 . S
C1006 C1007 1.391 1_554 S
C1007 H995 0.950 . S
C1007 C1003 1.393 . S
C1007 C1006 1.391 1_556 S
H1008 C1016 0.950 . S
H1009 C1021 0.950 . S
H1010 C1018 0.950 . S
H1011 C1020 0.950 . S
H1012 C1022 0.950 . S
H1013 C1024 0.950 . S
H1014 C1026 0.950 . S
H1015 C1027 0.950 . S
C1016 H1008 0.950 . S
C1016 C1017 1.386 . S
C1016 C1018 1.391 . S
C1017 C1016 1.386 . S
C1017 C1021 1.393 . S
C1018 H1010 0.950 . S
C1018 C1016 1.391 . S
C1018 C1019 1.400 . S
C1019 C1018 1.400 . S
C1019 C1020 1.398 . S
C1019 C1025 1.491 . S
C1020 H1011 0.950 . S
C1020 C1019 1.398 . S
C1020 C1021 1.391 . S
C1021 H1009 0.950 . S
C1021 C1017 1.393 . S
C1021 C1020 1.391 . S
C1022 H1012 0.950 . S
C1022 C1023 1.386 . S
C1022 C1024 1.391 . S
C1023 C1022 1.386 . S
C1023 C1027 1.393 . S
C1024 H1013 0.950 . S
C1024 C1022 1.391 . S
C1024 C1025 1.400 . S
C1025 C1019 1.491 . S
C1025 C1024 1.400 . S
C1025 C1026 1.398 . S
C1026 H1014 0.950 . S
C1026 C1025 1.398 . S
C1026 C1027 1.391 . S
C1027 H1015 0.950 . S
C1027 C1023 1.393 . S
C1027 C1026 1.391 . S
H1028 C1036 0.950 . S
H1029 C1041 0.950 . S
H1030 C1038 0.950 . S
H1031 C1040 0.950 . S
H1032 C1042 0.950 . S
H1033 C1044 0.950 . S
H1034 C1046 0.950 . S
H1035 C1047 0.950 . S
C1036 H1028 0.950 . S
C1036 C1037 1.386 . S
C1036 C1038 1.391 . S
C1037 C1036 1.386 . S
C1037 C1041 1.393 . S
C1038 H1030 0.950 . S
C1038 C1036 1.391 . S
C1038 C1039 1.400 . S
C1039 C1038 1.400 . S
C1039 C1040 1.398 . S
C1039 C1045 1.491 . S
C1040 H1031 0.950 . S
C1040 C1039 1.398 . S
C1040 C1041 1.391 . S
C1041 H1029 0.950 . S
C1041 C1037 1.393 . S
C1041 C1040 1.391 . S
C1042 H1032 0.950 . S
C1042 C1043 1.386 . S
C1042 C1044 1.391 . S
C1043 C1042 1.386 . S
C1043 C1047 1.393 . S
C1044 H1033 0.950 . S
C1044 C1042 1.391 . S
C1044 C1045 1.400 . S
C1045 C1039 1.491 . S
C1045 C1044 1.400 . S
C1045 C1046 1.398 . S
C1046 H1034 0.950 . S
C1046 C1045 1.398 . S
C1046 C1047 1.391 . S
C1047 H1035 0.950 . S
C1047 C1043 1.393 . S
C1047 C1046 1.391 . S
H1048 C1056 0.950 . S
H1049 C1061 0.950 . S
H1050 C1058 0.950 . S
H1051 C1060 0.950 . S
H1052 C1062 0.950 . S
H1053 C1064 0.950 . S
H1054 C1066 0.950 . S
H1055 C1067 0.950 . S
C1056 H1048 0.950 . S
C1056 C1057 1.386 . S
C1056 C1058 1.391 . S
C1057 C1056 1.386 . S
C1057 C1061 1.393 . S
C1058 H1050 0.950 . S
C1058 C1056 1.391 . S
C1058 C1059 1.400 . S
C1059 C1058 1.400 . S
C1059 C1060 1.398 . S
C1059 C1065 1.491 . S
C1060 H1051 0.950 . S
C1060 C1059 1.398 . S
C1060 C1061 1.391 . S
C1061 H1049 0.950 . S
C1061 C1057 1.393 . S
C1061 C1060 1.391 . S
C1062 H1052 0.950 . S
C1062 C1063 1.386 . S
C1062 C1064 1.391 . S
C1063 C1062 1.386 . S
C1063 C1067 1.393 . S
C1064 H1053 0.950 . S
C1064 C1062 1.391 . S
C1064 C1065 1.400 . S
C1065 C1059 1.491 . S
C1065 C1064 1.400 . S
C1065 C1066 1.398 . S
C1066 H1054 0.950 . S
C1066 C1065 1.398 . S
C1066 C1067 1.391 . S
C1067 H1055 0.950 . S
C1067 C1063 1.393 . S
C1067 C1066 1.391 . S
H1068 C1076 0.950 . S
H1069 C1081 0.950 . S
H1070 C1078 0.950 . S
H1071 C1080 0.950 . S
H1072 C1082 0.950 . S
H1073 C1084 0.950 . S
H1074 C1086 0.950 . S
H1075 C1087 0.950 . S
C1076 H1068 0.950 . S
C1076 C1077 1.386 . S
C1076 C1078 1.391 . S
C1077 C1076 1.386 . S
C1077 C1081 1.393 . S
C1078 H1070 0.950 . S
C1078 C1076 1.391 . S
C1078 C1079 1.400 . S
C1079 C1078 1.400 . S
C1079 C1080 1.398 . S
C1079 C1085 1.491 . S
C1080 H1071 0.950 . S
C1080 C1079 1.398 . S
C1080 C1081 1.391 . S
C1081 H1069 0.950 . S
C1081 C1077 1.393 . S
C1081 C1080 1.391 . S
C1082 H1072 0.950 . S
C1082 C1083 1.386 . S
C1082 C1084 1.391 1_556 S
C1083 C1082 1.386 . S
C1083 C1087 1.393 . S
C1084 H1073 0.950 . S
C1084 C1082 1.391 1_554 S
C1084 C1085 1.400 . S
C1085 C1079 1.491 . S
C1085 C1084 1.400 . S
C1085 C1086 1.398 . S
C1086 H1074 0.950 . S
C1086 C1085 1.398 . S
C1086 C1087 1.391 1_554 S
C1087 H1075 0.950 . S
C1087 C1083 1.393 . S
C1087 C1086 1.391 1_556 S
H1088 C1096 0.950 . S
H1089 C1101 0.950 . S
H1090 C1098 0.950 . S
H1091 C1100 0.950 . S
H1092 C1102 0.950 . S
H1093 C1104 0.950 . S
H1094 C1106 0.950 . S
H1095 C1107 0.950 . S
C1096 H1088 0.950 . S
C1096 C1097 1.386 . S
C1096 C1098 1.391 . S
C1097 C1096 1.386 . S
C1097 C1101 1.393 . S
C1098 H1090 0.950 . S
C1098 C1096 1.391 . S
C1098 C1099 1.400 . S
C1099 C1098 1.400 . S
C1099 C1100 1.398 . S
C1099 C1105 1.491 . S
C1100 H1091 0.950 . S
C1100 C1099 1.398 . S
C1100 C1101 1.391 . S
C1101 H1089 0.950 . S
C1101 C1097 1.393 . S
C1101 C1100 1.391 . S
C1102 H1092 0.950 . S
C1102 C1103 1.386 . S
C1102 C1104 1.391 . S
C1103 C1102 1.386 . S
C1103 C1107 1.393 . S
C1104 H1093 0.950 . S
C1104 C1102 1.391 . S
C1104 C1105 1.400 . S
C1105 C1099 1.491 . S
C1105 C1104 1.400 . S
C1105 C1106 1.398 . S
C1106 H1094 0.950 . S
C1106 C1105 1.398 . S
C1106 C1107 1.391 . S
C1107 H1095 0.950 . S
C1107 C1103 1.393 . S
C1107 C1106 1.391 . S
H1108 C1116 0.950 . S
H1109 C1121 0.950 . S
H1110 C1118 0.950 . S
H1111 C1120 0.950 . S
H1112 C1122 0.950 . S
H1113 C1124 0.950 . S
H1114 C1126 0.950 . S
H1115 C1127 0.950 . S
C1116 H1108 0.950 . S
C1116 C1117 1.386 . S
C1116 C1118 1.391 . S
C1117 C1116 1.386 . S
C1117 C1121 1.393 . S
C1118 H1110 0.950 . S
C1118 C1116 1.391 . S
C1118 C1119 1.400 . S
C1119 C1118 1.400 . S
C1119 C1120 1.398 . S
C1119 C1125 1.491 1_455 S
C1120 H1111 0.950 . S
C1120 C1119 1.398 . S
C1120 C1121 1.391 . S
C1121 H1109 0.950 . S
C1121 C1117 1.393 . S
C1121 C1120 1.391 . S
C1122 H1112 0.950 . S
C1122 C1123 1.386 . S
C1122 C1124 1.391 . S
C1123 C1122 1.386 . S
C1123 C1127 1.393 . S
C1124 H1113 0.950 . S
C1124 C1122 1.391 . S
C1124 C1125 1.400 . S
C1125 C1119 1.491 1_655 S
C1125 C1124 1.400 . S
C1125 C1126 1.398 . S
C1126 H1114 0.950 . S
C1126 C1125 1.398 . S
C1126 C1127 1.391 . S
C1127 H1115 0.950 . S
C1127 C1123 1.393 . S
C1127 C1126 1.391 . S
H1128 C1136 0.950 . S
H1129 C1141 0.950 . S
H1130 C1138 0.950 . S
H1131 C1140 0.950 . S
H1132 C1142 0.950 . S
H1133 C1144 0.950 . S
H1134 C1146 0.950 . S
H1135 C1147 0.950 . S
C1136 H1128 0.950 . S
C1136 C1137 1.386 . S
C1136 C1138 1.391 . S
C1137 C1136 1.386 . S
C1137 C1141 1.393 . S
C1138 H1130 0.950 . S
C1138 C1136 1.391 . S
C1138 C1139 1.400 . S
C1139 C1138 1.400 . S
C1139 C1140 1.398 . S
C1139 C1145 1.491 . S
C1140 H1131 0.950 . S
C1140 C1139 1.398 . S
C1140 C1141 1.391 . S
C1141 H1129 0.950 . S
C1141 C1137 1.393 . S
C1141 C1140 1.391 . S
C1142 H1132 0.950 . S
C1142 C1143 1.386 . S
C1142 C1144 1.391 . S
C1143 C1142 1.386 . S
C1143 C1147 1.393 . S
C1144 H1133 0.950 . S
C1144 C1142 1.391 . S
C1144 C1145 1.400 . S
C1145 C1139 1.491 . S
C1145 C1144 1.400 . S
C1145 C1146 1.398 . S
C1146 H1134 0.950 . S
C1146 C1145 1.398 . S
C1146 C1147 1.391 . S
C1147 H1135 0.950 . S
C1147 C1143 1.393 . S
C1147 C1146 1.391 . S
H1148 C1156 0.950 . S
H1149 C1161 0.950 . S
H1150 C1158 0.950 . S
H1151 C1160 0.950 . S
H1152 C1162 0.950 . S
H1153 C1164 0.950 . S
H1154 C1166 0.950 . S
H1155 C1167 0.950 . S
C1156 H1148 0.950 . S
C1156 C1157 1.386 . S
C1156 C1158 1.391 . S
C1157 C1156 1.386 . S
C1157 C1161 1.393 . S
C1158 H1150 0.950 . S
C1158 C1156 1.391 . S
C1158 C1159 1.400 . S
C1159 C1158 1.400 . S
C1159 C1160 1.398 . S
C1159 C1165 1.491 . S
C1160 H1151 0.950 . S
C1160 C1159 1.398 . S
C1160 C1161 1.391 . S
C1161 H1149 0.950 . S
C1161 C1157 1.393 . S
C1161 C1160 1.391 . S
C1162 H1152 0.950 . S
C1162 C1163 1.386 . S
C1162 C1164 1.391 . S
C1163 C1162 1.386 . S
C1163 C1167 1.393 . S
C1164 H1153 0.950 . S
C1164 C1162 1.391 . S
C1164 C1165 1.400 . S
C1165 C1159 1.491 . S
C1165 C1164 1.400 . S
C1165 C1166 1.398 . S
C1166 H1154 0.950 . S
C1166 C1165 1.398 . S
C1166 C1167 1.391 . S
C1167 H1155 0.950 . S
C1167 C1163 1.393 . S
C1167 C1166 1.391 . S
H1168 C1176 0.950 . S
H1169 C1181 0.950 . S
H1170 C1178 0.950 . S
H1171 C1180 0.950 . S
H1172 C1182 0.950 . S
H1173 C1184 0.950 . S
H1174 C1186 0.950 . S
H1175 C1187 0.950 . S
C1176 H1168 0.950 . S
C1176 C1177 1.386 . S
C1176 C1178 1.391 . S
C1177 C1176 1.386 . S
C1177 C1181 1.393 . S
C1178 H1170 0.950 . S
C1178 C1176 1.391 . S
C1178 C1179 1.400 . S
C1179 C1178 1.400 . S
C1179 C1180 1.398 . S
C1179 C1185 1.491 . S
C1180 H1171 0.950 . S
C1180 C1179 1.398 . S
C1180 C1181 1.391 . S
C1181 H1169 0.950 . S
C1181 C1177 1.393 . S
C1181 C1180 1.391 . S
C1182 H1172 0.950 . S
C1182 C1183 1.386 . S
C1182 C1184 1.391 . S
C1183 C1182 1.386 . S
C1183 C1187 1.393 . S
C1184 H1173 0.950 . S
C1184 C1182 1.391 . S
C1184 C1185 1.400 . S
C1185 C1179 1.491 . S
C1185 C1184 1.400 . S
C1185 C1186 1.398 . S
C1186 H1174 0.950 . S
C1186 C1185 1.398 . S
C1186 C1187 1.391 . S
C1187 H1175 0.950 . S
C1187 C1183 1.393 . S
C1187 C1186 1.391 . S
H1188 C1196 0.950 . S
H1189 C1201 0.950 . S
H1190 C1198 0.950 . S
H1191 C1200 0.950 . S
H1192 C1202 0.950 . S
H1193 C1204 0.950 . S
H1194 C1206 0.950 . S
H1195 C1207 0.950 . S
C1196 H1188 0.950 . S
C1196 C1197 1.386 . S
C1196 C1198 1.391 . S
C1197 C1196 1.386 . S
C1197 C1201 1.393 . S
C1198 H1190 0.950 . S
C1198 C1196 1.391 . S
C1198 C1199 1.400 . S
C1199 C1198 1.400 . S
C1199 C1200 1.398 . S
C1199 C1205 1.491 . S
C1200 H1191 0.950 . S
C1200 C1199 1.398 . S
C1200 C1201 1.391 . S
C1201 H1189 0.950 . S
C1201 C1197 1.393 . S
C1201 C1200 1.391 . S
C1202 H1192 0.950 . S
C1202 C1203 1.386 . S
C1202 C1204 1.391 . S
C1203 C1202 1.386 . S
C1203 C1207 1.393 . S
C1204 H1193 0.950 . S
C1204 C1202 1.391 . S
C1204 C1205 1.400 . S
C1205 C1199 1.491 . S
C1205 C1204 1.400 . S
C1205 C1206 1.398 . S
C1206 H1194 0.950 . S
C1206 C1205 1.398 . S
C1206 C1207 1.391 . S
C1207 H1195 0.950 . S
C1207 C1203 1.393 . S
C1207 C1206 1.391 . S
H1208 C1216 0.950 . S
H1209 C1221 0.950 . S
H1210 C1218 0.950 . S
H1211 C1220 0.950 . S
H1212 C1222 0.950 . S
H1213 C1224 0.950 . S
H1214 C1226 0.950 . S
H1215 C1227 0.950 . S
C1216 H1208 0.950 . S
C1216 C1217 1.386 . S
C1216 C1218 1.391 . S
C1217 C1216 1.386 . S
C1217 C1221 1.393 . S
C1218 H1210 0.950 . S
C1218 C1216 1.391 . S
C1218 C1219 1.400 . S
C1219 C1218 1.400 . S
C1219 C1220 1.398 . S
C1219 C1225 1.491 . S
C1220 H1211 0.950 . S
C1220 C1219 1.398 . S
C1220 C1221 1.391 . S
C1221 H1209 0.950 . S
C1221 C1217 1.393 . S
C1221 C1220 1.391 . S
C1222 H1212 0.950 . S
C1222 C1223 1.386 . S
C1222 C1224 1.391 . S
C1223 C1222 1.386 . S
C1223 C1227 1.393 . S
C1224 H1213 0.950 . S
C1224 C1222 1.391 . S
C1224 C1225 1.400 . S
C1225 C1219 1.491 . S
C1225 C1224 1.400 . S
C1225 C1226 1.398 . S
C1226 H1214 0.950 . S
C1226 C1225 1.398 . S
C1226 C1227 1.391 . S
C1227 H1215 0.950 . S
C1227 C1223 1.393 . S
C1227 C1226 1.391 . S
H1228 C1236 0.950 . S
H1229 C1241 0.950 . S
H1230 C1238 0.950 . S
H1231 C1240 0.950 . S
H1232 C1242 0.950 . S
H1233 C1244 0.950 . S
H1234 C1246 0.950 . S
H1235 C1247 0.950 . S
C1236 H1228 0.950 . S
C1236 C1237 1.386 . S
C1236 C1238 1.391 . S
C1237 C1236 1.386 . S
C1237 C1241 1.393 . S
C1238 H1230 0.950 . S
C1238 C1236 1.391 . S
C1238 C1239 1.400 . S
C1239 C1238 1.400 . S
C1239 C1240 1.398 . S
C1239 C1245 1.491 1_655 S
C1240 H1231 0.950 . S
C1240 C1239 1.398 . S
C1240 C1241 1.391 . S
C1241 H1229 0.950 . S
C1241 C1237 1.393 . S
C1241 C1240 1.391 . S
C1242 H1232 0.950 . S
C1242 C1243 1.386 . S
C1242 C1244 1.391 . S
C1243 C1242 1.386 . S
C1243 C1247 1.393 . S
C1244 H1233 0.950 . S
C1244 C1242 1.391 . S
C1244 C1245 1.400 . S
C1245 C1239 1.491 1_455 S
C1245 C1244 1.400 . S
C1245 C1246 1.398 . S
C1246 H1234 0.950 . S
C1246 C1245 1.398 . S
C1246 C1247 1.391 . S
C1247 H1235 0.950 . S
C1247 C1243 1.393 . S
C1247 C1246 1.391 . S
H1248 C1256 0.950 . S
H1249 C1261 0.950 . S
H1250 C1258 0.950 . S
H1251 C1260 0.950 . S
H1252 C1262 0.950 . S
H1253 C1264 0.950 . S
H1254 C1266 0.950 . S
H1255 C1267 0.950 . S
C1256 H1248 0.950 . S
C1256 C1257 1.386 . S
C1256 C1258 1.391 . S
C1257 C1256 1.386 . S
C1257 C1261 1.393 . S
C1258 H1250 0.950 . S
C1258 C1256 1.391 . S
C1258 C1259 1.400 . S
C1259 C1258 1.400 . S
C1259 C1260 1.398 . S
C1259 C1265 1.491 . S
C1260 H1251 0.950 . S
C1260 C1259 1.398 . S
C1260 C1261 1.391 . S
C1261 H1249 0.950 . S
C1261 C1257 1.393 . S
C1261 C1260 1.391 . S
C1262 H1252 0.950 . S
C1262 C1263 1.386 . S
C1262 C1264 1.391 . S
C1263 C1262 1.386 . S
C1263 C1267 1.393 . S
C1264 H1253 0.950 . S
C1264 C1262 1.391 . S
C1264 C1265 1.400 . S
C1265 C1259 1.491 . S
C1265 C1264 1.400 . S
C1265 C1266 1.398 . S
C1266 H1254 0.950 . S
C1266 C1265 1.398 . S
C1266 C1267 1.391 . S
C1267 H1255 0.950 . S
C1267 C1263 1.393 . S
C1267 C1266 1.391 . S
H1268 C1276 0.950 . S
H1269 C1281 0.950 . S
H1270 C1278 0.950 . S
H1271 C1280 0.950 . S
H1272 C1282 0.950 . S
H1273 C1284 0.950 . S
H1274 C1286 0.950 . S
H1275 C1287 0.950 . S
C1276 H1268 0.950 . S
C1276 C1277 1.386 . S
C1276 C1278 1.391 . S
C1277 C1276 1.386 . S
C1277 C1281 1.393 . S
C1278 H1270 0.950 . S
C1278 C1276 1.391 . S
C1278 C1279 1.400 . S
C1279 C1278 1.400 . S
C1279 C1280 1.398 . S
C1279 C1285 1.491 . S
C1280 H1271 0.950 . S
C1280 C1279 1.398 . S
C1280 C1281 1.391 . S
C1281 H1269 0.950 . S
C1281 C1277 1.393 . S
C1281 C1280 1.391 . S
C1282 H1272 0.950 . S
C1282 C1283 1.386 . S
C1282 C1284 1.391 . S
C1283 C1282 1.386 . S
C1283 C1287 1.393 . S
C1284 H1273 0.950 . S
C1284 C1282 1.391 . S
C1284 C1285 1.400 . S
C1285 C1279 1.491 . S
C1285 C1284 1.400 . S
C1285 C1286 1.398 . S
C1286 H1274 0.950 . S
C1286 C1285 1.398 . S
C1286 C1287 1.391 . S
C1287 H1275 0.950 . S
C1287 C1283 1.393 . S
C1287 C1286 1.391 . S
H1288 C1296 0.950 . S
H1289 C1301 0.950 . S
H1290 C1298 0.950 . S
H1291 C1300 0.950 . S
H1292 C1302 0.950 . S
H1293 C1304 0.950 . S
H1294 C1306 0.950 . S
H1295 C1307 0.950 . S
C1296 H1288 0.950 . S
C1296 C1297 1.386 . S
C1296 C1298 1.391 . S
C1297 C1296 1.386 . S
C1297 C1301 1.393 . S
C1298 H1290 0.950 . S
C1298 C1296 1.391 . S
C1298 C1299 1.400 . S
C1299 C1298 1.400 . S
C1299 C1300 1.398 . S
C1299 C1305 1.491 . S
C1300 H1291 0.950 . S
C1300 C1299 1.398 . S
C1300 C1301 1.391 . S
C1301 H1289 0.950 . S
C1301 C1297 1.393 . S
C1301 C1300 1.391 . S
C1302 H1292 0.950 . S
C1302 C1303 1.386 . S
C1302 C1304 1.391 . S
C1303 C1302 1.386 . S
C1303 C1307 1.393 . S
C1304 H1293 0.950 . S
C1304 C1302 1.391 . S
C1304 C1305 1.400 . S
C1305 C1299 1.491 . S
C1305 C1304 1.400 . S
C1305 C1306 1.398 . S
C1306 H1294 0.950 . S
C1306 C1305 1.398 . S
C1306 C1307 1.391 . S
C1307 H1295 0.950 . S
C1307 C1303 1.393 . S
C1307 C1306 1.391 . S
H1308 C1316 0.950 . S
H1309 C1321 0.950 . S
H1310 C1318 0.950 . S
H1311 C1320 0.950 . S
H1312 C1322 0.950 . S
H1313 C1324 0.950 . S
H1314 C1326 0.950 . S
H1315 C1327 0.950 . S
C1316 H1308 0.950 . S
C1316 C1317 1.386 . S
C1316 C1318 1.391 . S
C1317 C1316 1.386 . S
C1317 C1321 1.393 . S
C1318 H1310 0.950 . S
C1318 C1316 1.391 . S
C1318 C1319 1.400 . S
C1319 C1318 1.400 . S
C1319 C1320 1.398 . S
C1319 C1325 1.491 . S
C1320 H1311 0.950 . S
C1320 C1319 1.398 . S
C1320 C1321 1.391 . S
C1321 H1309 0.950 . S
C1321 C1317 1.393 . S
C1321 C1320 1.391 . S
C1322 H1312 0.950 . S
C1322 C1323 1.386 . S
C1322 C1324 1.391 . S
C1323 C1322 1.386 . S
C1323 C1327 1.393 . S
C1324 H1313 0.950 . S
C1324 C1322 1.391 . S
C1324 C1325 1.400 . S
C1325 C1319 1.491 . S
C1325 C1324 1.400 . S
C1325 C1326 1.398 . S
C1326 H1314 0.950 . S
C1326 C1325 1.398 . S
C1326 C1327 1.391 . S
C1327 H1315 0.950 . S
C1327 C1323 1.393 . S
C1327 C1326 1.391 . S
H1328 C1336 0.950 . S
H1329 C1341 0.950 . S
H1330 C1338 0.950 . S
H1331 C1340 0.950 . S
H1332 C1342 0.950 . S
H1333 C1344 0.950 . S
H1334 C1346 0.950 . S
H1335 C1347 0.950 . S
C1336 H1328 0.950 . S
C1336 C1337 1.386 . S
C1336 C1338 1.391 . S
C1337 C1336 1.386 . S
C1337 C1341 1.393 . S
C1338 H1330 0.950 . S
C1338 C1336 1.391 . S
C1338 C1339 1.400 . S
C1339 C1338 1.400 . S
C1339 C1340 1.398 . S
C1339 C1345 1.491 . S
C1340 H1331 0.950 . S
C1340 C1339 1.398 . S
C1340 C1341 1.391 . S
C1341 H1329 0.950 . S
C1341 C1337 1.393 . S
C1341 C1340 1.391 . S
C1342 H1332 0.950 . S
C1342 C1343 1.386 . S
C1342 C1344 1.391 . S
C1343 C1342 1.386 . S
C1343 C1347 1.393 . S
C1344 H1333 0.950 . S
C1344 C1342 1.391 . S
C1344 C1345 1.400 . S
C1345 C1339 1.491 . S
C1345 C1344 1.400 . S
C1345 C1346 1.398 . S
C1346 H1334 0.950 . S
C1346 C1345 1.398 . S
C1346 C1347 1.391 . S
C1347 H1335 0.950 . S
C1347 C1343 1.393 . S
C1347 C1346 1.391 . S
H1348 C1356 0.950 . S
H1349 C1361 0.950 . S
H1350 C1358 0.950 . S
H1351 C1360 0.950 . S
H1352 C1362 0.950 . S
H1353 C1364 0.950 . S
H1354 C1366 0.950 . S
H1355 C1367 0.950 . S
C1356 H1348 0.950 . S
C1356 C1357 1.386 . S
C1356 C1358 1.391 . S
C1357 C1356 1.386 . S
C1357 C1361 1.393 . S
C1358 H1350 0.950 . S
C1358 C1356 1.391 . S
C1358 C1359 1.400 . S
C1359 C1358 1.400 . S
C1359 C1360 1.398 . S
C1359 C1365 1.491 1_655 S
C1360 H1351 0.950 . S
C1360 C1359 1.398 . S
C1360 C1361 1.391 . S
C1361 H1349 0.950 . S
C1361 C1357 1.393 . S
C1361 C1360 1.391 . S
C1362 H1352 0.950 . S
C1362 C1363 1.386 . S
C1362 C1364 1.391 . S
C1363 C1362 1.386 . S
C1363 C1367 1.393 . S
C1364 H1353 0.950 . S
C1364 C1362 1.391 . S
C1364 C1365 1.400 . S
C1365 C1359 1.491 1_455 S
C1365 C1364 1.400 . S
C1365 C1366 1.398 . S
C1366 H1354 0.950 . S
C1366 C1365 1.398 . S
C1366 C1367 1.391 . S
C1367 H1355 0.950 . S
C1367 C1363 1.393 . S
C1367 C1366 1.391 . S
H1368 C1376 0.950 . S
H1369 C1381 0.950 . S
H1370 C1378 0.950 . S
H1371 C1380 0.950 . S
H1372 C1382 0.950 . S
H1373 C1384 0.950 . S
H1374 C1386 0.950 . S
H1375 C1387 0.950 . S
C1376 H1368 0.950 . S
C1376 C1377 1.386 . S
C1376 C1378 1.391 . S
C1377 C1376 1.386 . S
C1377 C1381 1.393 . S
C1378 H1370 0.950 . S
C1378 C1376 1.391 . S
C1378 C1379 1.400 . S
C1379 C1378 1.400 . S
C1379 C1380 1.398 . S
C1379 C1385 1.491 1_655 S
C1380 H1371 0.950 . S
C1380 C1379 1.398 . S
C1380 C1381 1.391 . S
C1381 H1369 0.950 . S
C1381 C1377 1.393 . S
C1381 C1380 1.391 . S
C1382 H1372 0.950 . S
C1382 C1383 1.386 . S
C1382 C1384 1.391 . S
C1383 C1382 1.386 . S
C1383 C1387 1.393 . S
C1384 H1373 0.950 . S
C1384 C1382 1.391 . S
C1384 C1385 1.400 . S
C1385 C1379 1.491 1_455 S
C1385 C1384 1.400 . S
C1385 C1386 1.398 . S
C1386 H1374 0.950 . S
C1386 C1385 1.398 . S
C1386 C1387 1.391 . S
C1387 H1375 0.950 . S
C1387 C1383 1.393 . S
C1387 C1386 1.391 . S
H1388 C1396 0.950 . S
H1389 C1401 0.950 . S
H1390 C1398 0.950 . S
H1391 C1400 0.950 . S
H1392 C1402 0.950 . S
H1393 C1404 0.950 . S
H1394 C1406 0.950 . S
H1395 C1407 0.950 . S
C1396 H1388 0.950 . S
C1396 C1397 1.386 . S
C1396 C1398 1.391 . S
C1397 C1396 1.386 . S
C1397 C1401 1.393 . S
C1398 H1390 0.950 . S
C1398 C1396 1.391 . S
C1398 C1399 1.400 . S
C1399 C1398 1.400 . S
C1399 C1400 1.398 . S
C1399 C1405 1.491 . S
C1400 H1391 0.950 . S
C1400 C1399 1.398 . S
C1400 C1401 1.391 . S
C1401 H1389 0.950 . S
C1401 C1397 1.393 . S
C1401 C1400 1.391 . S
C1402 H1392 0.950 . S
C1402 C1403 1.386 . S
C1402 C1404 1.391 . S
C1403 C1402 1.386 . S
C1403 C1407 1.393 . S
C1404 H1393 0.950 . S
C1404 C1402 1.391 . S
C1404 C1405 1.400 . S
C1405 C1399 1.491 . S
C1405 C1404 1.400 . S
C1405 C1406 1.398 . S
C1406 H1394 0.950 . S
C1406 C1405 1.398 . S
C1406 C1407 1.391 . S
C1407 H1395 0.950 . S
C1407 C1403 1.393 . S
C1407 C1406 1.391 . S
H1408 C1416 0.950 . S
H1409 C1421 0.950 . S
H1410 C1418 0.950 . S
H1411 C1420 0.950 . S
H1412 C1422 0.950 . S
H1413 C1424 0.950 . S
H1414 C1426 0.950 . S
H1415 C1427 0.950 . S
C1416 H1408 0.950 . S
C1416 C1417 1.386 . S
C1416 C1418 1.391 . S
C1417 C1416 1.386 . S
C1417 C1421 1.393 . S
C1418 H1410 0.950 . S
C1418 C1416 1.391 . S
C1418 C1419 1.400 . S
C1419 C1418 1.400 . S
C1419 C1420 1.398 . S
C1419 C1425 1.491 . S
C1420 H1411 0.950 . S
C1420 C1419 1.398 . S
C1420 C1421 1.391 . S
C1421 H1409 0.950 . S
C1421 C1417 1.393 . S
C1421 C1420 1.391 . S
C1422 H1412 0.950 . S
C1422 C1423 1.386 . S
C1422 C1424 1.391 . S
C1423 C1422 1.386 . S
C1423 C1427 1.393 . S
C1424 H1413 0.950 . S
C1424 C1422 1.391 . S
C1424 C1425 1.400 . S
C1425 C1419 1.491 . S
C1425 C1424 1.400 . S
C1425 C1426 1.398 . S
C1426 H1414 0.950 . S
C1426 C1425 1.398 . S
C1426 C1427 1.391 . S
C1427 H1415 0.950 . S
C1427 C1423 1.393 . S
C1427 C1426 1.391 . S
H1428 C1436 0.950 . S
H1429 C1441 0.962 . S
H1430 C1438 0.950 . S
H1431 C1440 0.950 . S
H1432 C1442 0.950 . S
H1433 C1444 0.950 . S
H1434 C1446 0.950 . S
H1435 C1447 0.958 . S
C1436 H1428 0.950 . S
C1436 C1437 1.386 . S
C1436 C1438 1.391 . S
C1437 C1436 1.386 . S
C1437 C1441 1.393 . S
C1438 H1430 0.950 . S
C1438 C1436 1.391 . S
C1438 C1439 1.400 . S
C1439 C1438 1.400 . S
C1439 C1440 1.398 1_565 S
C1439 C1445 1.491 1_565 S
C1440 H1431 0.950 . S
C1440 C1439 1.398 1_545 S
C1440 C1441 1.391 1_545 S
C1441 H1429 0.962 . S
C1441 C1437 1.393 . S
C1441 C1440 1.391 1_565 S
C1442 H1432 0.950 . S
C1442 C1443 1.386 . S
C1442 C1444 1.391 . S
C1443 C1442 1.386 . S
C1443 C1447 1.393 . S
C1444 H1433 0.950 . S
C1444 C1442 1.391 . S
C1444 C1445 1.400 . S
C1445 C1439 1.491 1_545 S
C1445 C1444 1.400 . S
C1445 C1446 1.398 1_545 S
C1446 H1434 0.950 . S
C1446 C1445 1.398 1_565 S
C1446 C1447 1.391 1_565 S
C1447 H1435 0.958 . S
C1447 C1443 1.393 . S
C1447 C1446 1.391 1_545 S
H1448 C1456 0.950 . S
H1449 C1461 0.950 . S
H1450 C1458 0.950 . S
H1451 C1460 0.950 . S
H1452 C1462 0.950 . S
H1453 C1464 0.950 . S
H1454 C1466 0.950 . S
H1455 C1467 0.950 . S
C1456 H1448 0.950 . S
C1456 C1457 1.386 . S
C1456 C1458 1.391 . S
C1457 C1456 1.386 . S
C1457 C1461 1.393 . S
C1458 H1450 0.950 . S
C1458 C1456 1.391 . S
C1458 C1459 1.400 . S
C1459 C1458 1.400 . S
C1459 C1460 1.398 . S
C1459 C1465 1.491 . S
C1460 H1451 0.950 . S
C1460 C1459 1.398 . S
C1460 C1461 1.391 . S
C1461 H1449 0.950 . S
C1461 C1457 1.393 . S
C1461 C1460 1.391 . S
C1462 H1452 0.950 . S
C1462 C1463 1.386 . S
C1462 C1464 1.391 . S
C1463 C1462 1.386 . S
C1463 C1467 1.393 . S
C1464 H1453 0.950 . S
C1464 C1462 1.391 . S
C1464 C1465 1.400 . S
C1465 C1459 1.491 . S
C1465 C1464 1.400 . S
C1465 C1466 1.398 . S
C1466 H1454 0.950 . S
C1466 C1465 1.398 . S
C1466 C1467 1.391 . S
C1467 H1455 0.950 . S
C1467 C1463 1.393 . S
C1467 C1466 1.391 . S
H1468 C1476 0.950 1_556 S
H1469 C1481 0.928 1_565 S
H1470 C1478 0.950 . S
H1471 C1480 0.950 . S
H1472 C1482 0.950 . S
H1473 C1484 0.950 . S
H1474 C1486 0.950 . S
H1475 C1487 0.932 1_545 S
C1476 H1468 0.950 1_554 S
C1476 C1477 1.386 1_554 S
C1476 C1478 1.391 . S
C1477 C1476 1.386 1_556 S
C1477 C1481 1.393 . S
C1478 H1470 0.950 . S
C1478 C1476 1.391 . S
C1478 C1479 1.400 . S
C1479 C1478 1.400 . S
C1479 C1480 1.398 1_545 S
C1479 C1485 1.491 1_545 S
C1480 H1471 0.950 . S
C1480 C1479 1.398 1_565 S
C1480 C1481 1.391 1_564 S
C1481 H1469 0.928 1_545 S
C1481 C1477 1.393 . S
C1481 C1480 1.391 1_546 S
C1482 H1472 0.950 . S
C1482 C1483 1.386 . S
C1482 C1484 1.391 . S
C1483 C1482 1.386 . S
C1483 C1487 1.393 . S
C1484 H1473 0.950 . S
C1484 C1482 1.391 . S
C1484 C1485 1.400 . S
C1485 C1479 1.491 1_565 S
C1485 C1484 1.400 . S
C1485 C1486 1.398 1_565 S
C1486 H1474 0.950 . S
C1486 C1485 1.398 1_545 S
C1486 C1487 1.391 1_545 S
C1487 H1475 0.932 1_565 S
C1487 C1483 1.393 . S
C1487 C1486 1.391 1_565 S
H1488 C1496 0.950 . S
H1489 C1501 0.950 . S
H1490 C1498 0.950 . S
H1491 C1500 0.950 . S
H1492 C1502 0.950 . S
H1493 C1504 0.950 . S
H1494 C1506 0.950 . S
H1495 C1507 0.950 . S
C1496 H1488 0.950 . S
C1496 C1497 1.386 . S
C1496 C1498 1.391 . S
C1497 C1496 1.386 . S
C1497 C1501 1.393 . S
C1498 H1490 0.950 . S
C1498 C1496 1.391 . S
C1498 C1499 1.400 . S
C1499 C1498 1.400 . S
C1499 C1500 1.398 . S
C1499 C1505 1.491 . S
C1500 H1491 0.950 . S
C1500 C1499 1.398 . S
C1500 C1501 1.391 . S
C1501 H1489 0.950 . S
C1501 C1497 1.393 . S
C1501 C1500 1.391 . S
C1502 H1492 0.950 . S
C1502 C1503 1.386 . S
C1502 C1504 1.391 . S
C1503 C1502 1.386 . S
C1503 C1507 1.393 . S
C1504 H1493 0.950 . S
C1504 C1502 1.391 . S
C1504 C1505 1.400 . S
C1505 C1499 1.491 . S
C1505 C1504 1.400 . S
C1505 C1506 1.398 . S
C1506 H1494 0.950 . S
C1506 C1505 1.398 . S
C1506 C1507 1.391 . S
C1507 H1495 0.950 . S
C1507 C1503 1.393 . S
C1507 C1506 1.391 . S
H1508 C1516 0.950 . S
H1509 C1521 0.950 . S
H1510 C1518 0.950 . S
H1511 C1520 0.950 . S
H1512 C1522 0.950 . S
H1513 C1524 0.950 . S
H1514 C1526 0.950 . S
H1515 C1527 0.950 . S
C1516 H1508 0.950 . S
C1516 C1517 1.386 . S
C1516 C1518 1.391 . S
C1517 C1516 1.386 . S
C1517 C1521 1.393 . S
C1518 H1510 0.950 . S
C1518 C1516 1.391 . S
C1518 C1519 1.400 . S
C1519 C1518 1.400 . S
C1519 C1520 1.398 . S
C1519 C1525 1.491 1_545 S
C1520 H1511 0.950 . S
C1520 C1519 1.398 . S
C1520 C1521 1.391 . S
C1521 H1509 0.950 . S
C1521 C1517 1.393 . S
C1521 C1520 1.391 . S
C1522 H1512 0.950 . S
C1522 C1523 1.386 . S
C1522 C1524 1.391 . S
C1523 C1522 1.386 . S
C1523 C1527 1.393 . S
C1524 H1513 0.950 . S
C1524 C1522 1.391 . S
C1524 C1525 1.400 . S
C1525 C1519 1.491 1_565 S
C1525 C1524 1.400 . S
C1525 C1526 1.398 . S
C1526 H1514 0.950 . S
C1526 C1525 1.398 . S
C1526 C1527 1.391 . S
C1527 H1515 0.950 . S
C1527 C1523 1.393 . S
C1527 C1526 1.391 . S
H1528 C1536 0.950 . S
H1529 C1541 0.950 . S
H1530 C1538 0.950 . S
H1531 C1540 0.950 . S
H1532 C1542 0.950 . S
H1533 C1544 0.950 . S
H1534 C1546 0.950 . S
H1535 C1547 0.950 . S
C1536 H1528 0.950 . S
C1536 C1537 1.386 . S
C1536 C1538 1.391 . S
C1537 C1536 1.386 . S
C1537 C1541 1.393 . S
C1538 H1530 0.950 . S
C1538 C1536 1.391 . S
C1538 C1539 1.400 . S
C1539 C1538 1.400 . S
C1539 C1540 1.398 . S
C1539 C1545 1.491 . S
C1540 H1531 0.950 . S
C1540 C1539 1.398 . S
C1540 C1541 1.391 . S
C1541 H1529 0.950 . S
C1541 C1537 1.393 . S
C1541 C1540 1.391 . S
C1542 H1532 0.950 . S
C1542 C1543 1.386 . S
C1542 C1544 1.391 . S
C1543 C1542 1.386 . S
C1543 C1547 1.393 . S
C1544 H1533 0.950 . S
C1544 C1542 1.391 . S
C1544 C1545 1.400 . S
C1545 C1539 1.491 . S
C1545 C1544 1.400 . S
C1545 C1546 1.398 . S
C1546 H1534 0.950 . S
C1546 C1545 1.398 . S
C1546 C1547 1.391 . S
C1547 H1535 0.950 . S
C1547 C1543 1.393 . S
C1547 C1546 1.391 . S
H1548 C1556 0.942 1_545 S
H1549 C1561 0.950 . S
H1550 C1558 0.950 . S
H1551 C1560 0.950 . S
H1552 C1562 0.938 1_565 S
H1553 C1564 0.950 . S
H1554 C1566 0.950 . S
H1555 C1567 0.950 1_556 S
C1556 H1548 0.942 1_565 S
C1556 C1557 1.386 . S
C1556 C1558 1.391 1_565 S
C1557 C1556 1.386 . S
C1557 C1561 1.393 . S
C1558 H1550 0.950 . S
C1558 C1556 1.391 1_545 S
C1558 C1559 1.400 1_545 S
C1559 C1558 1.400 1_565 S
C1559 C1560 1.398 . S
C1559 C1565 1.491 1_565 S
C1560 H1551 0.950 . S
C1560 C1559 1.398 . S
C1560 C1561 1.391 . S
C1561 H1549 0.950 . S
C1561 C1557 1.393 . S
C1561 C1560 1.391 . S
C1562 H1552 0.938 1_545 S
C1562 C1563 1.386 . S
C1562 C1564 1.391 1_546 S
C1563 C1562 1.386 . S
C1563 C1567 1.393 1_556 S
C1564 H1553 0.950 . S
C1564 C1562 1.391 1_564 S
C1564 C1565 1.400 1_565 S
C1565 C1559 1.491 1_545 S
C1565 C1564 1.400 1_545 S
C1565 C1566 1.398 . S
C1566 H1554 0.950 . S
C1566 C1565 1.398 . S
C1566 C1567 1.391 . S
C1567 H1555 0.950 1_554 S
C1567 C1563 1.393 1_554 S
C1567 C1566 1.391 . S
H1568 C1576 0.950 . S
H1569 C1581 0.950 . S
H1570 C1578 0.950 . S
H1571 C1580 0.950 . S
H1572 C1582 0.950 . S
H1573 C1584 0.950 . S
H1574 C1586 0.950 . S
H1575 C1587 0.950 . S
C1576 H1568 0.950 . S
C1576 C1577 1.386 . S
C1576 C1578 1.391 . S
C1577 C1576 1.386 . S
C1577 C1581 1.393 . S
C1578 H1570 0.950 . S
C1578 C1576 1.391 . S
C1578 C1579 1.400 . S
C1579 C1578 1.400 . S
C1579 C1580 1.398 . S
C1579 C1585 1.491 . S
C1580 H1571 0.950 . S
C1580 C1579 1.398 . S
C1580 C1581 1.391 . S
C1581 H1569 0.950 . S
C1581 C1577 1.393 . S
C1581 C1580 1.391 . S
C1582 H1572 0.950 . S
C1582 C1583 1.386 . S
C1582 C1584 1.391 . S
C1583 C1582 1.386 . S
C1583 C1587 1.393 . S
C1584 H1573 0.950 . S
C1584 C1582 1.391 . S
C1584 C1585 1.400 . S
C1585 C1579 1.491 . S
C1585 C1584 1.400 . S
C1585 C1586 1.398 . S
C1586 H1574 0.950 . S
C1586 C1585 1.398 . S
C1586 C1587 1.391 . S
C1587 H1575 0.950 . S
C1587 C1583 1.393 . S
C1587 C1586 1.391 . S
H1588 C1596 0.950 . S
H1589 C1601 0.950 . S
H1590 C1598 0.950 . S
H1591 C1600 0.950 . S
H1592 C1602 0.950 . S
H1593 C1604 0.950 . S
H1594 C1606 0.950 . S
H1595 C1607 0.950 . S
C1596 H1588 0.950 . S
C1596 C1597 1.386 . S
C1596 C1598 1.391 . S
C1597 C1596 1.386 . S
C1597 C1601 1.393 . S
C1598 H1590 0.950 . S
C1598 C1596 1.391 . S
C1598 C1599 1.400 . S
C1599 C1598 1.400 . S
C1599 C1600 1.398 . S
C1599 C1605 1.491 . S
C1600 H1591 0.950 . S
C1600 C1599 1.398 . S
C1600 C1601 1.391 . S
C1601 H1589 0.950 . S
C1601 C1597 1.393 . S
C1601 C1600 1.391 . S
C1602 H1592 0.950 . S
C1602 C1603 1.386 . S
C1602 C1604 1.391 1_556 S
C1603 C1602 1.386 . S
C1603 C1607 1.393 . S
C1604 H1593 0.950 . S
C1604 C1602 1.391 1_554 S
C1604 C1605 1.400 . S
C1605 C1599 1.491 . S
C1605 C1604 1.400 . S
C1605 C1606 1.398 . S
C1606 H1594 0.950 . S
C1606 C1605 1.398 . S
C1606 C1607 1.391 1_554 S
C1607 H1595 0.950 . S
C1607 C1603 1.393 . S
C1607 C1606 1.391 1_556 S
H1608 C1616 0.950 . S
H1609 C1621 0.950 . S
H1610 C1618 0.950 . S
H1611 C1620 0.950 . S
H1612 C1622 0.950 . S
H1613 C1624 0.950 . S
H1614 C1626 0.950 . S
H1615 C1627 0.950 . S
C1616 H1608 0.950 . S
C1616 C1617 1.386 . S
C1616 C1618 1.391 . S
C1617 C1616 1.386 . S
C1617 C1621 1.393 . S
C1618 H1610 0.950 . S
C1618 C1616 1.391 . S
C1618 C1619 1.400 . S
C1619 C1618 1.400 . S
C1619 C1620 1.398 . S
C1619 C1625 1.491 . S
C1620 H1611 0.950 . S
C1620 C1619 1.398 . S
C1620 C1621 1.391 . S
C1621 H1609 0.950 . S
C1621 C1617 1.393 . S
C1621 C1620 1.391 . S
C1622 H1612 0.950 . S
C1622 C1623 1.386 . S
C1622 C1624 1.391 . S
C1623 C1622 1.386 . S
C1623 C1627 1.393 . S
C1624 H1613 0.950 . S
C1624 C1622 1.391 . S
C1624 C1625 1.400 . S
C1625 C1619 1.491 . S
C1625 C1624 1.400 . S
C1625 C1626 1.398 . S
C1626 H1614 0.950 . S
C1626 C1625 1.398 . S
C1626 C1627 1.391 . S
C1627 H1615 0.950 . S
C1627 C1623 1.393 . S
C1627 C1626 1.391 . S
H1628 C1636 0.950 . S
H1629 C1641 0.950 . S
H1630 C1638 0.950 . S
H1631 C1640 0.950 . S
H1632 C1642 0.950 . S
H1633 C1644 0.950 . S
H1634 C1646 0.950 . S
H1635 C1647 0.950 . S
C1636 H1628 0.950 . S
C1636 C1637 1.386 . S
C1636 C1638 1.391 . S
C1637 C1636 1.386 . S
C1637 C1641 1.393 . S
C1638 H1630 0.950 . S
C1638 C1636 1.391 . S
C1638 C1639 1.400 . S
C1639 C1638 1.400 . S
C1639 C1640 1.398 . S
C1639 C1645 1.491 . S
C1640 H1631 0.950 . S
C1640 C1639 1.398 . S
C1640 C1641 1.391 . S
C1641 H1629 0.950 . S
C1641 C1637 1.393 . S
C1641 C1640 1.391 . S
C1642 H1632 0.950 . S
C1642 C1643 1.386 . S
C1642 C1644 1.391 . S
C1643 C1642 1.386 . S
C1643 C1647 1.393 . S
C1644 H1633 0.950 . S
C1644 C1642 1.391 . S
C1644 C1645 1.400 . S
C1645 C1639 1.491 . S
C1645 C1644 1.400 . S
C1645 C1646 1.398 . S
C1646 H1634 0.950 . S
C1646 C1645 1.398 . S
C1646 C1647 1.391 . S
C1647 H1635 0.950 . S
C1647 C1643 1.393 . S
C1647 C1646 1.391 . S
H1648 C1656 0.950 . S
H1649 C1661 0.950 . S
H1650 C1658 0.950 . S
H1651 C1660 0.950 . S
H1652 C1662 0.950 . S
H1653 C1664 0.950 . S
H1654 C1666 0.950 . S
H1655 C1667 0.950 . S
C1656 H1648 0.950 . S
C1656 C1657 1.386 . S
C1656 C1658 1.391 . S
C1657 C1656 1.386 . S
C1657 C1661 1.393 . S
C1658 H1650 0.950 . S
C1658 C1656 1.391 . S
C1658 C1659 1.400 . S
C1659 C1658 1.400 . S
C1659 C1660 1.398 . S
C1659 C1665 1.491 . S
C1660 H1651 0.950 . S
C1660 C1659 1.398 . S
C1660 C1661 1.391 . S
C1661 H1649 0.950 . S
C1661 C1657 1.393 . S
C1661 C1660 1.391 . S
C1662 H1652 0.950 . S
C1662 C1663 1.386 . S
C1662 C1664 1.391 . S
C1663 C1662 1.386 . S
C1663 C1667 1.393 . S
C1664 H1653 0.950 . S
C1664 C1662 1.391 . S
C1664 C1665 1.400 . S
C1665 C1659 1.491 . S
C1665 C1664 1.400 . S
C1665 C1666 1.398 . S
C1666 H1654 0.950 . S
C1666 C1665 1.398 . S
C1666 C1667 1.391 . S
C1667 H1655 0.950 . S
C1667 C1663 1.393 . S
C1667 C1666 1.391 . S
H1668 C1676 0.950 . S
H1669 C1681 0.950 . S
H1670 C1678 0.950 . S
H1671 C1680 0.950 . S
H1672 C1682 0.950 . S
H1673 C1684 0.950 . S
H1674 C1686 0.950 . S
H1675 C1687 0.950 . S
C1676 H1668 0.950 . S
C1676 C1677 1.386 . S
C1676 C1678 1.391 1_556 S
C1677 C1676 1.386 . S
C1677 C1681 1.393 . S
C1678 H1670 0.950 . S
C1678 C1676 1.391 1_554 S
C1678 C1679 1.400 . S
C1679 C1678 1.400 . S
C1679 C1680 1.398 . S
C1679 C1685 1.491 . S
C1680 H1671 0.950 . S
C1680 C1679 1.398 . S
C1680 C1681 1.391 1_554 S
C1681 H1669 0.950 . S
C1681 C1677 1.393 . S
C1681 C1680 1.391 1_556 S
C1682 H1672 0.950 . S
C1682 C1683 1.386 . S
C1682 C1684 1.391 . S
C1683 C1682 1.386 . S
C1683 C1687 1.393 . S
C1684 H1673 0.950 . S
C1684 C1682 1.391 . S
C1684 C1685 1.400 . S
C1685 C1679 1.491 . S
C1685 C1684 1.400 . S
C1685 C1686 1.398 . S
C1686 H1674 0.950 . S
C1686 C1685 1.398 . S
C1686 C1687 1.391 . S
C1687 H1675 0.950 . S
C1687 C1683 1.393 . S
C1687 C1686 1.391 . S
H1688 C1696 0.950 . S
H1689 C1701 0.950 . S
H1690 C1698 0.950 . S
H1691 C1700 0.950 . S
H1692 C1702 0.950 . S
H1693 C1704 0.950 . S
H1694 C1706 0.950 . S
H1695 C1707 0.950 . S
C1696 H1688 0.950 . S
C1696 C1697 1.386 . S
C1696 C1698 1.391 . S
C1697 C1696 1.386 . S
C1697 C1701 1.393 . S
C1698 H1690 0.950 . S
C1698 C1696 1.391 . S
C1698 C1699 1.400 . S
C1699 C1698 1.400 . S
C1699 C1700 1.398 . S
C1699 C1705 1.491 . S
C1700 H1691 0.950 . S
C1700 C1699 1.398 . S
C1700 C1701 1.391 . S
C1701 H1689 0.950 . S
C1701 C1697 1.393 . S
C1701 C1700 1.391 . S
C1702 H1692 0.950 . S
C1702 C1703 1.386 . S
C1702 C1704 1.391 . S
C1703 C1702 1.386 . S
C1703 C1707 1.393 . S
C1704 H1693 0.950 . S
C1704 C1702 1.391 . S
C1704 C1705 1.400 . S
C1705 C1699 1.491 . S
C1705 C1704 1.400 . S
C1705 C1706 1.398 . S
C1706 H1694 0.950 . S
C1706 C1705 1.398 . S
C1706 C1707 1.391 . S
C1707 H1695 0.950 . S
C1707 C1703 1.393 . S
C1707 C1706 1.391 . S
H1708 C1716 0.950 . S
H1709 C1721 0.950 . S
H1710 C1718 0.950 . S
H1711 C1720 0.950 . S
H1712 C1722 0.950 . S
H1713 C1724 0.950 . S
H1714 C1726 0.950 . S
H1715 C1727 0.950 . S
C1716 H1708 0.950 . S
C1716 C1717 1.386 . S
C1716 C1718 1.391 . S
C1717 C1716 1.386 . S
C1717 C1721 1.393 . S
C1718 H1710 0.950 . S
C1718 C1716 1.391 . S
C1718 C1719 1.400 . S
C1719 C1718 1.400 . S
C1719 C1720 1.398 . S
C1719 C1725 1.491 . S
C1720 H1711 0.950 . S
C1720 C1719 1.398 . S
C1720 C1721 1.391 . S
C1721 H1709 0.950 . S
C1721 C1717 1.393 . S
C1721 C1720 1.391 . S
C1722 H1712 0.950 . S
C1722 C1723 1.386 . S
C1722 C1724 1.391 . S
C1723 C1722 1.386 . S
C1723 C1727 1.393 . S
C1724 H1713 0.950 . S
C1724 C1722 1.391 . S
C1724 C1725 1.400 . S
C1725 C1719 1.491 . S
C1725 C1724 1.400 . S
C1725 C1726 1.398 . S
C1726 H1714 0.950 . S
C1726 C1725 1.398 . S
C1726 C1727 1.391 . S
C1727 H1715 0.950 . S
C1727 C1723 1.393 . S
C1727 C1726 1.391 . S
C457 C106 1.551 . S
C463 C8 1.552 . S
C477 C22 1.566 . S
C483 C64 1.566 . S
C497 C78 1.556 . S
C503 C36 1.559 . S
C517 C50 1.556 . S
C523 C92 1.553 . S
C537 C120 1.555 . S
C543 C218 1.559 . S
C557 C134 1.561 . S
C563 C176 1.557 . S
C577 C148 1.559 . S
C583 C190 1.555 . S
C597 C162 1.558 . S
C603 C204 1.562 . S
C617 C232 1.551 . S
C623 C330 1.552 . S
C637 C246 1.554 . S
C643 C288 1.557 . S
C657 C302 1.553 . S
C663 C260 1.551 . S
C677 C316 1.557 . S
C683 C274 1.561 . S
C697 C344 1.566 . S
C703 C442 1.566 . S
C717 C400 1.558 . S
C723 C358 1.562 . S
C737 C414 1.554 . S
C743 C372 1.558 . S
C757 C386 1.566 . S
C763 C428 1.565 . S
C777 C7 0.564 . S
C783 C91 0.600 . S
C797 C21 0.586 . S
C803 C105 0.563 . S
C817 C63 0.590 . S
C823 C35 0.562 . S
C837 C49 0.604 . S
C843 C77 0.570 . S
C857 C119 0.589 . S
C863 C203 0.562 . S
C877 C133 0.590 . S
C883 C217 0.599 . S
C897 C175 0.566 . S
C903 C147 0.602 . S
C917 C189 0.600 . S
C923 C161 0.590 . S
C937 C231 0.576 . S
C943 C315 0.569 . S
C957 C329 0.602 . S
C963 C245 0.586 . S
C977 C287 0.583 . S
C983 C259 0.564 . S
C997 C273 0.591 . S
C1003 C301 0.562 . S
C1017 C343 0.604 . S
C1023 C427 0.570 . S
C1037 C357 0.588 . S
C1043 C441 0.601 . S
C1057 C399 0.568 . S
C1063 C371 0.604 . S
C1077 C413 0.584 . S
C1083 C385 0.564 . S
C1097 C9 1.527 . S
C1103 C429 1.517 . S
C1117 C23 1.530 . S
C1123 C219 1.514 . S
C1137 C37 1.514 . S
C1143 C401 1.530 . S
C1157 C51 1.515 . S
C1163 C191 1.529 . S
C1177 C65 1.515 . S
C1183 C373 1.529 . S
C1197 C79 1.524 . S
C1203 C163 1.520 . S
C1217 C93 1.514 . S
C1223 C345 1.530 . S
C1237 C135 1.526 . S
C1243 C107 1.518 . S
C1257 C317 1.523 . S
C1263 C121 1.521 . S
C1277 C149 1.517 . S
C1283 C289 1.527 . S
C1297 C261 1.521 . S
C1303 C177 1.523 . S
C1317 C233 1.528 . S
C1323 C205 1.516 . S
C1337 C247 1.529 . S
C1343 C443 1.515 . S
C1357 C275 1.528 . S
C1363 C415 1.516 . S
C1377 C303 1.517 . S
C1383 C387 1.527 . S
C1397 C359 1.519 . S
C1403 C331 1.525 . S
C1417 C3 1.604 . S
C1423 C87 1.610 . S
C1437 C17 1.610 . S
C1443 C101 1.603 . S
C1457 C59 1.605 1_556 S
C1463 C31 1.608 . S
C1477 C45 1.610 . S
C1483 C73 1.603 . S
C1497 C115 1.603 1_556 S
C1503 C199 1.610 . S
C1517 C129 1.606 . S
C1523 C213 1.607 . S
C1537 C171 1.604 . S
C1543 C143 1.610 . S
C1557 C157 1.610 . S
C1563 C185 1.604 . S
C1577 C311 1.605 1_556 S
C1583 C227 1.608 . S
C1597 C325 1.606 . S
C1603 C241 1.607 . S
C1617 C283 1.610 . S
C1623 C255 1.603 . S
C1637 C297 1.609 . S
C1643 C269 1.604 . S
C1657 C423 1.605 . S
C1663 C339 1.609 . S
C1677 C437 1.607 . S
C1683 C353 1.606 . S
C1697 C367 1.611 1_556 S
C1703 C395 1.603 . S
C1717 C409 1.603 . S
C1723 C381 1.610 . S
