# Generated by pormake.
# Topology pcl, (4)-cn, num edge types: 1
# Building blocks:
#     Node 0, Type 0, BuildingBlock: KUFVIS_clean_sbu_0, # of connection points: 4
#     Node 1, Type 0, BuildingBlock: KUFVIS_clean_sbu_0, # of connection points: 4
#     Node 2, Type 0, BuildingBlock: KUFVIS_clean_sbu_0, # of connection points: 4
#     Node 3, Type 0, BuildingBlock: KUFVIS_clean_sbu_0, # of connection points: 4
#     Node 4, Type 0, BuildingBlock: KUFVIS_clean_sbu_0, # of connection points: 4
#     Node 5, Type 0, BuildingBlock: KUFVIS_clean_sbu_0, # of connection points: 4
#     Node 6, Type 0, BuildingBlock: KUFVIS_clean_sbu_0, # of connection points: 4
#     Node 7, Type 0, BuildingBlock: KUFVIS_clean_sbu_0, # of connection points: 4
#     Node 8, Type 0, BuildingBlock: KUFVIS_clean_sbu_0, # of connection points: 4
#     Node 9, Type 0, BuildingBlock: KUFVIS_clean_sbu_0, # of connection points: 4
#     Node 10, Type 0, BuildingBlock: KUFVIS_clean_sbu_0, # of connection points: 4
#     Node 11, Type 0, BuildingBlock: KUFVIS_clean_sbu_0, # of connection points: 4
#     Node 12, Type 0, BuildingBlock: KUFVIS_clean_sbu_0, # of connection points: 4
#     Node 13, Type 0, BuildingBlock: KUFVIS_clean_sbu_0, # of connection points: 4
#     Node 14, Type 0, BuildingBlock: KUFVIS_clean_sbu_0, # of connection points: 4
#     Node 15, Type 0, BuildingBlock: KUFVIS_clean_sbu_0, # of connection points: 4
#     Edge 16, Type (0, 0), BuildingBlock: MIFKUJ_clean_linker_0, # of connection points: 2
#     Edge 17, Type (0, 0), BuildingBlock: MIFKUJ_clean_linker_0, # of connection points: 2
#     Edge 18, Type (0, 0), BuildingBlock: MIFKUJ_clean_linker_0, # of connection points: 2
#     Edge 19, Type (0, 0), BuildingBlock: MIFKUJ_clean_linker_0, # of connection points: 2
#     Edge 20, Type (0, 0), BuildingBlock: MIFKUJ_clean_linker_0, # of connection points: 2
#     Edge 21, Type (0, 0), BuildingBlock: MIFKUJ_clean_linker_0, # of connection points: 2
#     Edge 22, Type (0, 0), BuildingBlock: MIFKUJ_clean_linker_0, # of connection points: 2
#     Edge 23, Type (0, 0), BuildingBlock: MIFKUJ_clean_linker_0, # of connection points: 2
#     Edge 24, Type (0, 0), BuildingBlock: MIFKUJ_clean_linker_0, # of connection points: 2
#     Edge 25, Type (0, 0), BuildingBlock: MIFKUJ_clean_linker_0, # of connection points: 2
#     Edge 26, Type (0, 0), BuildingBlock: MIFKUJ_clean_linker_0, # of connection points: 2
#     Edge 27, Type (0, 0), BuildingBlock: MIFKUJ_clean_linker_0, # of connection points: 2
#     Edge 28, Type (0, 0), BuildingBlock: MIFKUJ_clean_linker_0, # of connection points: 2
#     Edge 29, Type (0, 0), BuildingBlock: MIFKUJ_clean_linker_0, # of connection points: 2
#     Edge 30, Type (0, 0), BuildingBlock: MIFKUJ_clean_linker_0, # of connection points: 2
#     Edge 31, Type (0, 0), BuildingBlock: MIFKUJ_clean_linker_0, # of connection points: 2
#     Edge 32, Type (0, 0), BuildingBlock: MIFKUJ_clean_linker_0, # of connection points: 2
#     Edge 33, Type (0, 0), BuildingBlock: MIFKUJ_clean_linker_0, # of connection points: 2
#     Edge 34, Type (0, 0), BuildingBlock: MIFKUJ_clean_linker_0, # of connection points: 2
#     Edge 35, Type (0, 0), BuildingBlock: MIFKUJ_clean_linker_0, # of connection points: 2
#     Edge 36, Type (0, 0), BuildingBlock: MIFKUJ_clean_linker_0, # of connection points: 2
#     Edge 37, Type (0, 0), BuildingBlock: MIFKUJ_clean_linker_0, # of connection points: 2
#     Edge 38, Type (0, 0), BuildingBlock: MIFKUJ_clean_linker_0, # of connection points: 2
#     Edge 39, Type (0, 0), BuildingBlock: MIFKUJ_clean_linker_0, # of connection points: 2
#     Edge 40, Type (0, 0), BuildingBlock: MIFKUJ_clean_linker_0, # of connection points: 2
#     Edge 41, Type (0, 0), BuildingBlock: MIFKUJ_clean_linker_0, # of connection points: 2
#     Edge 42, Type (0, 0), BuildingBlock: MIFKUJ_clean_linker_0, # of connection points: 2
#     Edge 43, Type (0, 0), BuildingBlock: MIFKUJ_clean_linker_0, # of connection points: 2
#     Edge 44, Type (0, 0), BuildingBlock: MIFKUJ_clean_linker_0, # of connection points: 2
#     Edge 45, Type (0, 0), BuildingBlock: MIFKUJ_clean_linker_0, # of connection points: 2
#     Edge 46, Type (0, 0), BuildingBlock: MIFKUJ_clean_linker_0, # of connection points: 2
#     Edge 47, Type (0, 0), BuildingBlock: MIFKUJ_clean_linker_0, # of connection points: 2
# Relax obj value: 0.080
# Max RMSD: 0.060
# Mean RMSD: 0.059
data_MOF--net-pcl--node1-KUFVIS_clean_sbu_0--edge1-MIFKUJ_clean_linker_0
_symmetry_space_group_name_H-M    P1
_symmetry_Int_Tables_number       1
_symmetry_cell_setting            triclinic
loop_
_symmetry_equiv_pos_as_xyz
'x, y, z'
_cell_length_a     67.974009
_cell_length_b     55.168665
_cell_length_c     54.701559
_cell_angle_alpha  89.935439
_cell_angle_beta   90.053559
_cell_angle_gamma 89.99135
loop_
_atom_site_label
_atom_site_type_symbol
_atom_site_fract_x
_atom_site_fract_y
_atom_site_fract_z
_atom_type_partial_charge
Mn0 Mn 0.15447 0.33971 0.07736 0.0
Mn1 Mn 0.1955 0.36711 0.09836 0.0
C2 C 0.16725 0.32905 0.1152 0.0
C3 C 0.12017 0.3388 0.07354 0.0
C4 C 0.1963 0.32724 0.06023 0.0
O5 O 0.15628 0.36985 0.05594 0.0
O6 O 0.18359 0.38688 0.07179 0.0
C7 C 0.17694 0.41055 0.12023 0.0
N8 N 0.18854 0.39053 0.12255 0.0
C9 C 0.1952 0.39963 0.16476 0.0
C10 C 0.18342 0.42042 0.16279 0.0
C11 C 0.1742 0.42585 0.14044 0.0
C12 C 0.19742 0.38509 0.14398 0.0
H13 H 0.16982 0.4148 0.10309 0.0
C14 C 0.16904 0.38678 0.0569 0.0
O15 O 0.13141 0.3273 0.05823 0.0
O16 O 0.12888 0.35099 0.09064 0.0
N17 N 0.20847 0.35026 0.12431 0.0
C18 C 0.21828 0.32874 0.12356 0.0
C19 C 0.22797 0.32037 0.1446 0.0
C20 C 0.22757 0.33429 0.16606 0.0
C21 C 0.2173 0.35631 0.16644 0.0
C22 C 0.20806 0.36383 0.14487 0.0
H23 H 0.21873 0.31806 0.10704 0.0
O24 O 0.1558 0.31433 0.10337 0.0
O25 O 0.17085 0.34967 0.1045 0.0
O26 O 0.17771 0.32378 0.05919 0.0
O27 O 0.20423 0.34309 0.07408 0.0
C28 C 0.21572 0.371 0.18741 0.0
C29 C 0.20458 0.39256 0.18661 0.0
H30 H 0.18121 0.43222 0.17836 0.0
H31 H 0.165 0.44178 0.13882 0.0
H32 H 0.23583 0.3033 0.14424 0.0
H33 H 0.23524 0.32794 0.1821 0.0
H34 H 0.22286 0.3658 0.2043 0.0
H35 H 0.20321 0.40349 0.20296 0.0
Mn36 Mn 0.86249 0.66528 0.58091 0.0
Mn37 Mn 0.82237 0.64176 0.60843 0.0
C38 C 0.85348 0.67818 0.61965 0.0
C39 C 0.89628 0.66296 0.573 0.0
C40 C 0.82007 0.67976 0.56819 0.0
O41 O 0.85729 0.63462 0.56113 0.0
O42 O 0.83147 0.61967 0.58209 0.0
C43 C 0.84097 0.5986 0.63095 0.0
N44 N 0.8306 0.61961 0.63333 0.0
C45 C 0.82831 0.61436 0.67691 0.0
C46 C 0.8389 0.59263 0.67491 0.0
C47 C 0.84526 0.58473 0.65183 0.0
C48 C 0.8244 0.62736 0.65544 0.0
H49 H 0.84595 0.59246 0.61327 0.0
C50 C 0.84443 0.61821 0.56515 0.0
O51 O 0.88461 0.67516 0.55872 0.0
O52 O 0.88829 0.65206 0.59147 0.0
N53 N 0.81222 0.66102 0.63464 0.0
C54 C 0.8026 0.68266 0.63351 0.0
C55 C 0.7954 0.69317 0.6551 0.0
C56 C 0.79806 0.68126 0.67757 0.0
C57 C 0.80783 0.65888 0.67824 0.0
C58 C 0.81453 0.64919 0.65611 0.0
H59 H 0.8005 0.6919 0.6163 0.0
O60 O 0.86472 0.69157 0.60606 0.0
O61 O 0.848 0.65769 0.61019 0.0
O62 O 0.83862 0.68227 0.56507 0.0
O63 O 0.81264 0.66485 0.58354 0.0
C64 C 0.81136 0.64593 0.70001 0.0
C65 C 0.82166 0.62374 0.69937 0.0
H66 H 0.8423 0.58193 0.69098 0.0
H67 H 0.85346 0.56801 0.65013 0.0
H68 H 0.78787 0.71044 0.65444 0.0
H69 H 0.79261 0.6895 0.69421 0.0
H70 H 0.80634 0.65295 0.71736 0.0
H71 H 0.82446 0.6141 0.71629 0.0
Mn72 Mn 0.14902 0.66624 0.92479 0.0
Mn73 Mn 0.19034 0.64133 0.90166 0.0
C74 C 0.15935 0.67587 0.88545 0.0
C75 C 0.11492 0.66435 0.93091 0.0
C76 C 0.19072 0.68189 0.93924 0.0
O77 O 0.15367 0.63707 0.94718 0.0
O78 O 0.18012 0.62073 0.92856 0.0
C79 C 0.17372 0.59641 0.88036 0.0
N80 N 0.18393 0.61748 0.87761 0.0
C81 C 0.19079 0.60848 0.83544 0.0
C82 C 0.18037 0.58668 0.83782 0.0
C83 C 0.17171 0.58069 0.86034 0.0
C84 C 0.19212 0.62356 0.85595 0.0
H85 H 0.1672 0.59162 0.89771 0.0
C86 C 0.16663 0.62041 0.9449 0.0
O87 O 0.1261 0.67749 0.94491 0.0
O88 O 0.12361 0.65216 0.91381 0.0
N89 N 0.20151 0.65935 0.87518 0.0
C90 C 0.20998 0.68173 0.87551 0.0
C91 C 0.21864 0.69089 0.85412 0.0
C92 C 0.21875 0.67681 0.83273 0.0
C93 C 0.21007 0.65376 0.8329 0.0
C94 C 0.20147 0.6457 0.85467 0.0
H95 H 0.21012 0.69252 0.89196 0.0
O96 O 0.14769 0.69036 0.89723 0.0
O97 O 0.16463 0.65646 0.89713 0.0
O98 O 0.17209 0.68477 0.94073 0.0
O99 O 0.1987 0.66584 0.92568 0.0
C100 C 0.20956 0.63849 0.81229 0.0
C101 C 0.19983 0.61592 0.81351 0.0
H102 H 0.17885 0.57445 0.82245 0.0
H103 H 0.16359 0.56394 0.86228 0.0
H104 H 0.22531 0.7087 0.85414 0.0
H105 H 0.22549 0.68391 0.81628 0.0
H106 H 0.21625 0.64414 0.79523 0.0
H107 H 0.19917 0.60458 0.79737 0.0
Mn108 Mn 0.85439 0.342 0.42398 0.0
Mn109 Mn 0.81255 0.37073 0.40807 0.0
C110 C 0.84083 0.33658 0.38523 0.0
C111 C 0.88883 0.34153 0.4268 0.0
C112 C 0.81326 0.32675 0.44144 0.0
O113 O 0.85256 0.36921 0.4492 0.0
O114 O 0.82514 0.38807 0.43576 0.0
C115 C 0.82963 0.41658 0.38953 0.0
N116 N 0.81827 0.39655 0.38596 0.0
C117 C 0.80809 0.41069 0.34638 0.0
C118 C 0.81953 0.43158 0.34964 0.0
C119 C 0.8306 0.43434 0.37115 0.0
C120 C 0.80821 0.39325 0.36493 0.0
H121 H 0.83783 0.41899 0.40627 0.0
C122 C 0.83989 0.3863 0.45025 0.0
O123 O 0.87801 0.32778 0.44064 0.0
O124 O 0.87962 0.35558 0.41161 0.0
N125 N 0.79899 0.35602 0.38129 0.0
C126 C 0.78963 0.33419 0.38036 0.0
C127 C 0.77892 0.3279 0.35935 0.0
C128 C 0.77758 0.34431 0.33977 0.0
C129 C 0.78718 0.36676 0.34129 0.0
C130 C 0.79799 0.37181 0.36245 0.0
H131 H 0.79036 0.32167 0.39552 0.0
O132 O 0.85273 0.32052 0.39437 0.0
O133 O 0.83726 0.35512 0.39907 0.0
O134 O 0.83184 0.32315 0.44079 0.0
O135 O 0.80491 0.34427 0.43028 0.0
C136 C 0.78613 0.38453 0.32285 0.0
C137 C 0.79642 0.40658 0.32556 0.0
H138 H 0.82007 0.44548 0.33566 0.0
H139 H 0.83972 0.45021 0.37359 0.0
H140 H 0.77153 0.31055 0.35836 0.0
H141 H 0.76911 0.33953 0.3237 0.0
H142 H 0.77732 0.3815 0.30665 0.0
H143 H 0.7951 0.42045 0.31173 0.0
Mn144 Mn 0.86181 0.66102 0.91795 0.0
Mn145 Mn 0.87821 0.622 0.87483 0.0
C146 C 0.86248 0.67264 0.87719 0.0
C147 C 0.83629 0.67712 0.94174 0.0
C148 C 0.9055 0.6497 0.90869 0.0
O149 O 0.86078 0.62836 0.93561 0.0
O150 O 0.87095 0.60413 0.90496 0.0
C151 C 0.84091 0.59585 0.86556 0.0
N152 N 0.85644 0.60897 0.85707 0.0
C153 C 0.84495 0.60559 0.81558 0.0
C154 C 0.82887 0.59195 0.82386 0.0
C155 C 0.82682 0.58712 0.84896 0.0
C156 C 0.85852 0.61379 0.83298 0.0
H157 H 0.83931 0.59207 0.88483 0.0
C158 C 0.86495 0.60751 0.92688 0.0
O159 O 0.85458 0.67893 0.94838 0.0
O160 O 0.83281 0.66531 0.92171 0.0
N161 N 0.88585 0.63646 0.84452 0.0
C162 C 0.90167 0.65086 0.83973 0.0
C163 C 0.90572 0.65761 0.81551 0.0
C164 C 0.8936 0.64927 0.7965 0.0
C165 C 0.87745 0.63442 0.80184 0.0
C166 C 0.87424 0.62811 0.8263 0.0
H167 H 0.91113 0.65713 0.85427 0.0
O168 O 0.86233 0.6888 0.89439 0.0
O169 O 0.86219 0.65012 0.88428 0.0
O170 O 0.89216 0.66123 0.92036 0.0
O171 O 0.90167 0.63467 0.89161 0.0
C172 C 0.8642 0.62599 0.78393 0.0
C173 C 0.84792 0.61166 0.79081 0.0
H174 H 0.81794 0.58523 0.81113 0.0
H175 H 0.81441 0.57667 0.85549 0.0
H176 H 0.91818 0.66914 0.81148 0.0
H177 H 0.8968 0.65444 0.77788 0.0
H178 H 0.86623 0.63075 0.76487 0.0
H179 H 0.83767 0.60559 0.77693 0.0
Mn180 Mn 0.14257 0.34325 0.41205 0.0
Mn181 Mn 0.12597 0.38723 0.37415 0.0
C182 C 0.14124 0.33641 0.37016 0.0
C183 C 0.16814 0.32441 0.43384 0.0
C184 C 0.09867 0.3549 0.40305 0.0
O185 O 0.14414 0.37328 0.43369 0.0
O186 O 0.13157 0.40026 0.40711 0.0
C187 C 0.16303 0.41542 0.37209 0.0
N188 N 0.1481 0.40367 0.36044 0.0
C189 C 0.16047 0.41562 0.32104 0.0
C190 C 0.17596 0.42789 0.33261 0.0
C191 C 0.17729 0.42769 0.35824 0.0
C192 C 0.14681 0.40353 0.33581 0.0
H193 H 0.164 0.4155 0.39179 0.0
C194 C 0.13838 0.39455 0.42811 0.0
O195 O 0.14985 0.32186 0.4402 0.0
O196 O 0.17156 0.33816 0.41507 0.0
N197 N 0.11975 0.37824 0.34136 0.0
C198 C 0.10414 0.36512 0.33309 0.0
C199 C 0.10042 0.36398 0.30788 0.0
C200 C 0.11268 0.37651 0.29152 0.0
C201 C 0.12881 0.38959 0.30041 0.0
C202 C 0.13159 0.39041 0.32572 0.0
H203 H 0.09443 0.35593 0.34566 0.0
O204 O 0.14148 0.3185 0.38554 0.0
O205 O 0.1421 0.35807 0.37964 0.0
O206 O 0.11211 0.34329 0.41459 0.0
O207 O 0.10238 0.37117 0.38709 0.0
C208 C 0.14215 0.40198 0.28516 0.0
C209 C 0.15808 0.41482 0.29547 0.0
H210 H 0.18693 0.43747 0.32199 0.0
H211 H 0.18919 0.43711 0.36731 0.0
H212 H 0.08791 0.35387 0.30115 0.0
H213 H 0.10942 0.37637 0.2722 0.0
H214 H 0.1404 0.40157 0.26548 0.0
H215 H 0.16837 0.42405 0.28356 0.0
Mn216 Mn 0.86708 0.33823 0.08419 0.0
Mn217 Mn 0.88268 0.38245 0.1223 0.0
C218 C 0.86702 0.33223 0.12627 0.0
C219 C 0.84201 0.31944 0.06166 0.0
C220 C 0.91057 0.35066 0.09336 0.0
O221 O 0.86634 0.36834 0.06234 0.0
O222 O 0.87622 0.39624 0.08984 0.0
C223 C 0.84537 0.40983 0.12642 0.0
N224 N 0.86041 0.39749 0.13721 0.0
C225 C 0.84818 0.4068 0.17736 0.0
C226 C 0.83254 0.4196 0.1667 0.0
C227 C 0.83108 0.421 0.1411 0.0
C228 C 0.86175 0.39563 0.16179 0.0
H229 H 0.84436 0.41124 0.10676 0.0
C230 C 0.8705 0.3901 0.06843 0.0
O231 O 0.86043 0.31662 0.05607 0.0
O232 O 0.83816 0.33351 0.08002 0.0
N233 N 0.88951 0.37202 0.15456 0.0
C234 C 0.90565 0.3593 0.16196 0.0
C235 C 0.90925 0.35615 0.18705 0.0
C236 C 0.89651 0.36663 0.20426 0.0
C237 C 0.88027 0.38014 0.1962 0.0
C238 C 0.87727 0.38236 0.17098 0.0
H239 H 0.91569 0.35157 0.14882 0.0
O240 O 0.86704 0.31384 0.11151 0.0
O241 O 0.86688 0.35345 0.11601 0.0
O242 O 0.89742 0.33781 0.08281 0.0
O243 O 0.9065 0.36772 0.10828 0.0
C244 C 0.86713 0.39181 0.2122 0.0
C245 C 0.85099 0.40495 0.20281 0.0
H246 H 0.82161 0.42849 0.17797 0.0
H247 H 0.81908 0.4309 0.13273 0.0
H248 H 0.9219 0.34585 0.19311 0.0
H249 H 0.89939 0.3643 0.2236 0.0
H250 H 0.86924 0.3906 0.23177 0.0
H251 H 0.84083 0.41358 0.21533 0.0
Mn252 Mn 0.14956 0.66299 0.58137 0.0
Mn253 Mn 0.13568 0.6121 0.61123 0.0
C254 C 0.14888 0.66226 0.6239 0.0
C255 C 0.17416 0.68583 0.56206 0.0
C256 C 0.10661 0.64669 0.58747 0.0
O257 O 0.1512 0.63717 0.55477 0.0
O258 O 0.14323 0.60435 0.57723 0.0
C259 C 0.17389 0.58646 0.61152 0.0
N260 N 0.1584 0.59614 0.62393 0.0
C261 C 0.16981 0.57915 0.66181 0.0
C262 C 0.18591 0.56901 0.64949 0.0
C263 C 0.18805 0.57289 0.62426 0.0
C264 C 0.15653 0.59318 0.64831 0.0
H265 H 0.1753 0.58883 0.59202 0.0
C266 C 0.14849 0.61445 0.55728 0.0
O267 O 0.15566 0.68897 0.55702 0.0
O268 O 0.17833 0.66948 0.57832 0.0
N269 N 0.12799 0.61625 0.64456 0.0
C270 C 0.111 0.62595 0.65347 0.0
C271 C 0.10676 0.62392 0.6785 0.0
C272 C 0.1196 0.61106 0.69392 0.0
C273 C 0.13658 0.60041 0.68415 0.0
C274 C 0.14038 0.60373 0.65923 0.0
H275 H 0.10079 0.63522 0.64157 0.0
O276 O 0.14863 0.68267 0.6121 0.0
O277 O 0.15012 0.64284 0.61055 0.0
O278 O 0.11921 0.66211 0.57973 0.0
O279 O 0.11138 0.62749 0.59914 0.0
C280 C 0.14942 0.58574 0.69792 0.0
C281 C 0.16605 0.57519 0.68677 0.0
H282 H 0.19661 0.55807 0.65918 0.0
H283 H 0.20036 0.56502 0.61456 0.0
H284 H 0.09346 0.63188 0.68582 0.0
H285 H 0.11608 0.60911 0.71313 0.0
H286 H 0.14642 0.58207 0.717 0.0
H287 H 0.17566 0.56361 0.69739 0.0
Mn288 Mn 0.64929 0.83849 0.07942 0.0
Mn289 Mn 0.69053 0.86287 0.10353 0.0
C290 C 0.65922 0.82789 0.11854 0.0
C291 C 0.6153 0.8407 0.07263 0.0
C292 C 0.69118 0.82207 0.06629 0.0
O293 O 0.65416 0.86774 0.05746 0.0
O294 O 0.6812 0.88303 0.07564 0.0
C295 C 0.67333 0.90824 0.12297 0.0
N296 N 0.6837 0.88742 0.12662 0.0
C297 C 0.68979 0.89776 0.16868 0.0
C298 C 0.67926 0.91938 0.16534 0.0
C299 C 0.67091 0.92457 0.14242 0.0
C300 C 0.69159 0.88211 0.14867 0.0
H301 H 0.66698 0.91237 0.10535 0.0
C302 C 0.66763 0.88375 0.05937 0.0
O303 O 0.62657 0.8276 0.05873 0.0
O304 O 0.62382 0.85259 0.09009 0.0
N305 N 0.70118 0.84567 0.13091 0.0
C306 C 0.70965 0.82329 0.13155 0.0
C307 C 0.71802 0.81488 0.15347 0.0
C308 C 0.7179 0.82971 0.17433 0.0
C309 C 0.70926 0.85276 0.17315 0.0
C310 C 0.70097 0.86006 0.1509 0.0
H311 H 0.70996 0.81193 0.1155 0.0
O312 O 0.64758 0.81384 0.1062 0.0
O313 O 0.66465 0.84776 0.10765 0.0
O314 O 0.67254 0.82008 0.06367 0.0
O315 O 0.69916 0.83757 0.08051 0.0
C316 C 0.70841 0.86871 0.19323 0.0
C317 C 0.69846 0.89106 0.19109 0.0
H318 H 0.67741 0.93205 0.18027 0.0
H319 H 0.66271 0.94117 0.13972 0.0
H320 H 0.72464 0.79705 0.15424 0.0
H321 H 0.72439 0.82317 0.19119 0.0
H322 H 0.71508 0.86382 0.21053 0.0
H323 H 0.6975 0.90289 0.20684 0.0
Mn324 Mn 0.35523 0.16551 0.5769 0.0
Mn325 Mn 0.31338 0.1379 0.59455 0.0
C326 C 0.34264 0.17153 0.6161 0.0
C327 C 0.38963 0.16504 0.57307 0.0
C328 C 0.314 0.18143 0.56052 0.0
O329 O 0.35239 0.13813 0.55189 0.0
O330 O 0.3253 0.11993 0.56696 0.0
C331 C 0.32957 0.09155 0.61303 0.0
N332 N 0.31894 0.11214 0.61679 0.0
C333 C 0.30808 0.09806 0.65607 0.0
C334 C 0.31881 0.07663 0.65265 0.0
C335 C 0.32987 0.07355 0.63119 0.0
C336 C 0.30892 0.11572 0.63778 0.0
H337 H 0.33763 0.08882 0.59625 0.0
C338 C 0.33964 0.12109 0.55182 0.0
O339 O 0.37878 0.17906 0.55953 0.0
O340 O 0.38049 0.15128 0.58855 0.0
N341 N 0.30053 0.15327 0.62145 0.0
C342 C 0.29171 0.17543 0.62241 0.0
C343 C 0.28117 0.18208 0.64343 0.0
C344 C 0.27937 0.16563 0.66292 0.0
C345 C 0.2884 0.14283 0.66135 0.0
C346 C 0.29921 0.13752 0.64029 0.0
H347 H 0.29273 0.18794 0.60727 0.0
O348 O 0.35457 0.18722 0.60645 0.0
O349 O 0.33849 0.15299 0.60253 0.0
O350 O 0.33262 0.18479 0.56057 0.0
O351 O 0.30576 0.16419 0.57218 0.0
C352 C 0.28667 0.1249 0.67955 0.0
C353 C 0.29626 0.1024 0.67668 0.0
H354 H 0.31876 0.0625 0.66642 0.0
H355 H 0.33837 0.0572 0.62855 0.0
H356 H 0.27421 0.19969 0.64445 0.0
H357 H 0.27093 0.17063 0.67893 0.0
H358 H 0.27777 0.12812 0.69564 0.0
H359 H 0.29422 0.08834 0.69018 0.0
Mn360 Mn 0.65284 0.16273 0.92398 0.0
Mn361 Mn 0.69275 0.13996 0.89547 0.0
C362 C 0.66164 0.17683 0.88568 0.0
C363 C 0.61908 0.16038 0.93188 0.0
C364 C 0.6953 0.17621 0.93721 0.0
O365 O 0.65804 0.13132 0.94249 0.0
O366 O 0.6836 0.11654 0.92082 0.0
C367 C 0.67392 0.0983 0.87065 0.0
N368 N 0.68448 0.11925 0.86941 0.0
C369 C 0.68627 0.11674 0.82554 0.0
C370 C 0.67555 0.09505 0.82638 0.0
C371 C 0.66933 0.08581 0.84903 0.0
C372 C 0.69055 0.12829 0.8477 0.0
H373 H 0.66897 0.09123 0.88801 0.0
C374 C 0.67067 0.11482 0.9378 0.0
O375 O 0.63085 0.17184 0.94663 0.0
O376 O 0.627 0.15012 0.91301 0.0
N377 N 0.70278 0.1607 0.87029 0.0
C378 C 0.71199 0.18253 0.87252 0.0
C379 C 0.71866 0.19457 0.85146 0.0
C380 C 0.71583 0.18403 0.82835 0.0
C381 C 0.70645 0.16147 0.82653 0.0
C382 C 0.70032 0.15019 0.84818 0.0
H383 H 0.71412 0.19079 0.8902 0.0
O384 O 0.65061 0.18992 0.89982 0.0
O385 O 0.66715 0.15605 0.89451 0.0
O386 O 0.67678 0.17903 0.94026 0.0
O387 O 0.70259 0.16163 0.92147 0.0
C388 C 0.7026 0.14996 0.80405 0.0
C389 C 0.69249 0.12764 0.80354 0.0
H390 H 0.67183 0.08547 0.80973 0.0
H391 H 0.66094 0.06916 0.84982 0.0
H392 H 0.72586 0.21199 0.85302 0.0
H393 H 0.72078 0.1935 0.81213 0.0
H394 H 0.70711 0.15828 0.78702 0.0
H395 H 0.68934 0.11916 0.78612 0.0
Mn396 Mn 0.36328 0.84116 0.42243 0.0
Mn397 Mn 0.32323 0.86337 0.39371 0.0
C398 C 0.35424 0.82633 0.38441 0.0
C399 C 0.39714 0.84405 0.42978 0.0
C400 C 0.32105 0.82832 0.43672 0.0
O401 O 0.35795 0.87284 0.44049 0.0
O402 O 0.33312 0.88768 0.41756 0.0
C403 C 0.3417 0.90383 0.36652 0.0
N404 N 0.33104 0.88292 0.36653 0.0
C405 C 0.32795 0.88392 0.3227 0.0
C406 C 0.33878 0.90554 0.32225 0.0
C407 C 0.34571 0.91551 0.34425 0.0
C408 C 0.32429 0.87318 0.34546 0.0
H409 H 0.34716 0.9115 0.38336 0.0
C410 C 0.34587 0.88968 0.43475 0.0
O411 O 0.38564 0.83266 0.44491 0.0
O412 O 0.3889 0.85393 0.4109 0.0
N413 N 0.31261 0.84167 0.36979 0.0
C414 C 0.30346 0.81995 0.37324 0.0
C415 C 0.29619 0.8072 0.35295 0.0
C416 C 0.29834 0.81692 0.32935 0.0
C417 C 0.30769 0.83937 0.32628 0.0
C418 C 0.31448 0.85136 0.3472 0.0
H419 H 0.30179 0.81235 0.39131 0.0
O420 O 0.3655 0.81359 0.39864 0.0
O421 O 0.34871 0.84715 0.39296 0.0
O422 O 0.33956 0.82493 0.43923 0.0
O423 O 0.31373 0.84293 0.42097 0.0
C424 C 0.31087 0.85009 0.30323 0.0
C425 C 0.32103 0.87231 0.30143 0.0
H426 H 0.34204 0.9145 0.30509 0.0
H427 H 0.35417 0.93213 0.34404 0.0
H428 H 0.28901 0.78987 0.35548 0.0
H429 H 0.2929 0.80691 0.31372 0.0
H430 H 0.30578 0.84125 0.28676 0.0
H431 H 0.32366 0.88016 0.28356 0.0
Mn432 Mn 0.36724 0.162 0.91716 0.0
Mn433 Mn 0.38227 0.11926 0.87724 0.0
C434 C 0.36822 0.17034 0.87542 0.0
C435 C 0.342 0.18018 0.93978 0.0
C436 C 0.41031 0.1476 0.90976 0.0
O437 O 0.36563 0.13069 0.93731 0.0
O438 O 0.37327 0.1038 0.90786 0.0
C439 C 0.34407 0.09523 0.86798 0.0
N440 N 0.36028 0.107 0.85942 0.0
C441 C 0.35027 0.10076 0.81775 0.0
C442 C 0.33348 0.08851 0.82607 0.0
C443 C 0.33029 0.08591 0.85131 0.0
C444 C 0.36321 0.11018 0.83521 0.0
H445 H 0.34175 0.09286 0.88736 0.0
C446 C 0.36783 0.10896 0.92963 0.0
O447 O 0.36033 0.18228 0.94616 0.0
O448 O 0.33834 0.16715 0.92059 0.0
N449 N 0.39131 0.13151 0.84651 0.0
C450 C 0.40821 0.14384 0.84148 0.0
C451 C 0.41334 0.14845 0.81705 0.0
C452 C 0.40133 0.1398 0.79805 0.0
C453 C 0.38426 0.12667 0.80368 0.0
C454 C 0.37972 0.12301 0.82836 0.0
H455 H 0.41771 0.15009 0.85599 0.0
O456 O 0.36817 0.18789 0.89118 0.0
O457 O 0.36745 0.14867 0.88456 0.0
O458 O 0.39745 0.16142 0.91953 0.0
O459 O 0.40599 0.13107 0.89433 0.0
C460 C 0.37174 0.11674 0.78578 0.0
C461 C 0.35476 0.10378 0.79282 0.0
H462 H 0.32296 0.08102 0.81325 0.0
H463 H 0.31737 0.0765 0.8579 0.0
H464 H 0.42662 0.15844 0.81286 0.0
H465 H 0.40541 0.14322 0.77923 0.0
H466 H 0.37498 0.1191 0.76655 0.0
H467 H 0.34515 0.09637 0.77895 0.0
Mn468 Mn 0.64966 0.84367 0.4197 0.0
Mn469 Mn 0.63519 0.88884 0.38221 0.0
C470 C 0.64756 0.83694 0.37766 0.0
C471 C 0.67479 0.82388 0.44133 0.0
C472 C 0.60717 0.86063 0.415 0.0
O473 O 0.6521 0.87411 0.44101 0.0
O474 O 0.64678 0.90269 0.41227 0.0
C475 C 0.67371 0.91061 0.37002 0.0
N476 N 0.65658 0.90006 0.3627 0.0
C477 C 0.66366 0.90836 0.3205 0.0
C478 C 0.68128 0.91959 0.32756 0.0
C479 C 0.68646 0.9204 0.35241 0.0
C480 C 0.65187 0.89823 0.33878 0.0
H481 H 0.67749 0.91174 0.38915 0.0
C482 C 0.65169 0.89619 0.43389 0.0
O483 O 0.65649 0.82223 0.44789 0.0
O484 O 0.67853 0.83738 0.42245 0.0
N485 N 0.62365 0.87834 0.35212 0.0
C486 C 0.60559 0.8682 0.34841 0.0
C487 C 0.59852 0.86531 0.32446 0.0
C488 C 0.60973 0.8737 0.30463 0.0
C489 C 0.62789 0.88496 0.30895 0.0
C490 C 0.63442 0.88676 0.33317 0.0
H491 H 0.59664 0.8623 0.36357 0.0
O492 O 0.64783 0.81887 0.39285 0.0
O493 O 0.64907 0.85824 0.38749 0.0
O494 O 0.61956 0.84498 0.42267 0.0
O495 O 0.61191 0.87829 0.40106 0.0
C496 C 0.63939 0.89532 0.29027 0.0
C497 C 0.65708 0.90737 0.29611 0.0
H498 H 0.69091 0.92772 0.3141 0.0
H499 H 0.70006 0.92895 0.35801 0.0
H500 H 0.58433 0.85697 0.32133 0.0
H501 H 0.60408 0.8718 0.28621 0.0
H502 H 0.63459 0.89455 0.2714 0.0
H503 H 0.66546 0.91597 0.2817 0.0
Mn504 Mn 0.36298 0.84121 0.08656 0.0
Mn505 Mn 0.37865 0.8809 0.1293 0.0
C506 C 0.36477 0.82934 0.1272 0.0
C507 C 0.33726 0.82505 0.06313 0.0
C508 C 0.40602 0.85555 0.09344 0.0
O509 O 0.36128 0.87404 0.06924 0.0
O510 O 0.36811 0.89895 0.10079 0.0
C511 C 0.34051 0.90268 0.14341 0.0
N512 N 0.35739 0.89094 0.14973 0.0
C513 C 0.34858 0.89149 0.19233 0.0
C514 C 0.33113 0.9037 0.1863 0.0
C515 C 0.32706 0.90923 0.16172 0.0
C516 C 0.36139 0.88537 0.17329 0.0
H517 H 0.33737 0.90698 0.12454 0.0
C518 C 0.36288 0.89518 0.07861 0.0
O519 O 0.35547 0.82347 0.0561 0.0
O520 O 0.334 0.83649 0.08343 0.0
N521 N 0.38921 0.86603 0.15805 0.0
C522 C 0.4062 0.85315 0.16061 0.0
C523 C 0.41238 0.84603 0.18402 0.0
C524 C 0.40113 0.85238 0.20454 0.0
C525 C 0.38366 0.86555 0.20149 0.0
C526 C 0.37836 0.87239 0.17772 0.0
H527 H 0.41504 0.84847 0.14493 0.0
O528 O 0.36433 0.81322 0.10996 0.0
O529 O 0.36385 0.85181 0.12016 0.0
O530 O 0.39315 0.84179 0.08359 0.0
O531 O 0.4018 0.87133 0.1097 0.0
C532 C 0.37119 0.87198 0.22102 0.0
C533 C 0.35361 0.88482 0.21643 0.0
H534 H 0.3207 0.90875 0.20036 0.0
H535 H 0.31359 0.91856 0.15692 0.0
H536 H 0.42585 0.8358 0.18626 0.0
H537 H 0.40609 0.84701 0.22253 0.0
H538 H 0.37482 0.86682 0.23959 0.0
H539 H 0.34399 0.88929 0.23154 0.0
Mn540 Mn 0.64291 0.16429 0.58829 0.0
Mn541 Mn 0.62707 0.12504 0.63147 0.0
C542 C 0.642 0.17599 0.62903 0.0
C543 C 0.66857 0.18027 0.56453 0.0
C544 C 0.59956 0.15132 0.59641 0.0
O545 O 0.64422 0.13143 0.57098 0.0
O546 O 0.63616 0.10689 0.60238 0.0
C547 C 0.6649 0.10131 0.64365 0.0
N548 N 0.64863 0.11382 0.65083 0.0
C549 C 0.65881 0.1125 0.69296 0.0
C550 C 0.67564 0.09952 0.68604 0.0
C551 C 0.67872 0.09397 0.66126 0.0
C552 C 0.64558 0.11937 0.67458 0.0
H553 H 0.66728 0.09698 0.62462 0.0
C554 C 0.64167 0.11037 0.58027 0.0
O555 O 0.65031 0.18209 0.55775 0.0
O556 O 0.67192 0.16864 0.58472 0.0
N557 N 0.61787 0.14007 0.6608 0.0
C558 C 0.60139 0.1537 0.66422 0.0
C559 C 0.59622 0.16095 0.68794 0.0
C560 C 0.60794 0.15394 0.70788 0.0
C561 C 0.62488 0.13998 0.70392 0.0
C562 C 0.62917 0.13308 0.67989 0.0
H563 H 0.5922 0.15891 0.64899 0.0
O564 O 0.6422 0.19219 0.61182 0.0
O565 O 0.64242 0.15356 0.62189 0.0
O566 O 0.61262 0.16422 0.58575 0.0
O567 O 0.60368 0.13582 0.61301 0.0
C568 C 0.63778 0.13283 0.7228 0.0
C569 C 0.65478 0.11922 0.7173 0.0
H570 H 0.68635 0.09386 0.69956 0.0
H571 H 0.69171 0.08402 0.65577 0.0
H572 H 0.58317 0.17178 0.69088 0.0
H573 H 0.60376 0.15942 0.72612 0.0
H574 H 0.63493 0.138 0.74155 0.0
H575 H 0.66474 0.11417 0.73192 0.0
H576 H 0.09699 0.3146 0.04026 0.0
H577 H 0.06092 0.31179 0.03994 0.0
H578 H 0.05828 0.35749 0.10379 0.0
H579 H 0.09405 0.36023 0.10432 0.0
H580 H 0.03515 0.31827 0.10896 0.0
H581 H 0.04736 0.37915 0.04693 0.0
H582 H 0.06159 0.39473 0.00855 0.0
H583 H 0.03179 0.33907 0.96808 0.0
H584 H 0.01759 0.32296 0.0063 0.0
H585 H 0.94216 0.36966 0.11741 0.0
H586 H 0.97686 0.3622 0.11018 0.0
H587 H 0.96238 0.31333 0.05142 0.0
H588 H 0.92716 0.32074 0.05851 0.0
H589 H 0.99335 0.34621 0.04005 0.0
H590 H 0.97745 0.28909 0.10226 0.0
H591 H 0.96264 0.27503 0.14088 0.0
H592 H 0.99925 0.3242 0.18125 0.0
H593 H 0.01408 0.33884 0.14284 0.0
C594 C 0.08868 0.32412 0.05414 0.0
C595 C 0.09839 0.33763 0.07232 0.0
C596 C 0.06808 0.32254 0.05391 0.0
C597 C 0.05688 0.33446 0.07184 0.0
C598 C 0.0666 0.34804 0.08985 0.0
C599 C 0.08708 0.34966 0.09006 0.0
C600 C 0.03504 0.33274 0.07237 0.0
C601 C 0.02603 0.32445 0.0939 0.0
C602 C 0.02309 0.34001 0.05244 0.0
C603 C 0.03163 0.34966 0.02949 0.0
C604 C 0.04399 0.3701 0.02987 0.0
C605 C 0.05202 0.37905 0.00814 0.0
C606 C 0.04765 0.36784 0.9859 0.0
C607 C 0.0352 0.3477 0.98533 0.0
C608 C 0.02715 0.33865 0.00702 0.0
C609 C 0.94619 0.35729 0.1029 0.0
C610 C 0.93174 0.34574 0.0886 0.0
C611 C 0.96613 0.353 0.09886 0.0
C612 C 0.97222 0.33703 0.08044 0.0
C613 C 0.95796 0.32567 0.06579 0.0
C614 C 0.93786 0.32985 0.06995 0.0
C615 C 0.99358 0.33249 0.07692 0.0
C616 C 1.00248 0.33955 0.05489 0.0
C617 C 0.00549 0.32412 0.09641 0.0
C618 C 0.9968 0.31516 0.11963 0.0
C619 C 0.98226 0.29702 0.11936 0.0
C620 C 0.97387 0.28893 0.14122 0.0
C621 C 0.97998 0.29874 0.1635 0.0
C622 C 0.99453 0.31662 0.16397 0.0
C623 C 1.00296 0.32479 0.14216 0.0
H624 H 0.97345 0.29247 0.1804 0.0
H625 H 0.05387 0.37481 0.96909 0.0
H626 H 0.92164 0.62949 0.59111 0.0
H627 H 0.95747 0.62985 0.58938 0.0
H628 H 0.95587 0.69517 0.546 0.0
H629 H 0.91969 0.69437 0.54694 0.0
H630 H 0.98558 0.66514 0.53122 0.0
H631 H 0.96339 0.69786 0.60762 0.0
H632 H 0.94356 0.69749 0.64533 0.0
H633 H 0.97289 0.63267 0.66911 0.0
H634 H 0.9926 0.63234 0.63129 0.0
H635 H 0.08862 0.68374 0.56165 0.0
H636 H 0.05317 0.69017 0.5557 0.0
H637 H 0.04097 0.62563 0.59757 0.0
H638 H 0.07592 0.6192 0.60377 0.0
H639 H 0.0184 0.66229 0.61224 0.0
H640 H 0.03752 0.62654 0.53515 0.0
H641 H 0.0563 0.62426 0.49667 0.0
H642 H 0.03296 0.69316 0.47437 0.0
H643 H 0.01424 0.696 0.51291 0.0
C644 C 0.92888 0.6438 0.58095 0.0
C645 C 0.91786 0.66207 0.56941 0.0
C646 C 0.94939 0.64403 0.58004 0.0
C647 C 0.95942 0.6629 0.56812 0.0
C648 C 0.94847 0.68053 0.55547 0.0
C649 C 0.92781 0.68008 0.55604 0.0
C650 C 0.98123 0.66467 0.57022 0.0
C651 C 0.99278 0.66496 0.54893 0.0
C652 C 0.99067 0.66426 0.59332 0.0
C653 C 0.97939 0.66501 0.61654 0.0
C654 C 0.96558 0.6835 0.62087 0.0
C655 C 0.95434 0.68339 0.64225 0.0
C656 C 0.95695 0.66504 0.65958 0.0
C657 C 0.97088 0.64685 0.65565 0.0
C658 C 0.9821 0.64681 0.63425 0.0
C659 C 0.07838 0.67091 0.56955 0.0
C660 C 0.08524 0.65096 0.58321 0.0
C661 C 0.05812 0.67456 0.56605 0.0
C662 C 0.04438 0.65833 0.57613 0.0
C663 C 0.05124 0.63845 0.58968 0.0
C664 C 0.07134 0.63478 0.59314 0.0
C665 C 0.02279 0.66191 0.57327 0.0
C666 C 0.01125 0.66282 0.59451 0.0
C667 C 0.01344 0.66331 0.55016 0.0
C668 C 0.02469 0.66163 0.52703 0.0
C669 C 0.03654 0.64131 0.52214 0.0
C670 C 0.04715 0.63989 0.5003 0.0
C671 C 0.04588 0.6586 0.48312 0.0
C672 C 0.03396 0.67872 0.48772 0.0
C673 C 0.02335 0.68024 0.50955 0.0
H674 H 0.05409 0.65746 0.46622 0.0
H675 H 0.94817 0.66484 0.67604 0.0
H676 H 0.93748 0.63015 0.88594 0.0
H677 H 0.97199 0.63482 0.89625 0.0
H678 H 0.95668 0.68243 0.95571 0.0
H679 H 0.92164 0.67798 0.94537 0.0
H680 H 0.98912 0.69893 0.9287 0.0
H681 H 0.96986 0.62628 0.96918 0.0
H682 H 0.95395 0.5863 0.9731 0.0
H683 H 0.99205 0.55751 0.91771 0.0
H684 H 0.008 0.59741 0.91318 0.0
H685 H 0.09156 0.6898 0.96303 0.0
H686 H 0.05548 0.68921 0.96566 0.0
H687 H 0.05329 0.63708 0.907 0.0
H688 H 0.08906 0.63734 0.90451 0.0
H689 H 0.02862 0.62451 0.94254 0.0
H690 H 0.04408 0.69822 0.89791 0.0
H691 H 0.05953 0.73833 0.89263 0.0
H692 H 0.0285 0.76501 0.95543 0.0
H693 H 0.01304 0.72493 0.96124 0.0
C694 C 0.94127 0.64164 0.90127 0.0
C695 C 0.92661 0.6535 0.91496 0.0
C696 C 0.96111 0.64425 0.90717 0.0
C697 C 0.96694 0.65864 0.927 0.0
C698 C 0.9525 0.6711 0.9404 0.0
C699 C 0.93248 0.66849 0.9345 0.0
C700 C 0.98817 0.6602 0.93347 0.0
C701 C 0.99771 0.68274 0.93229 0.0
C702 C 0.99944 0.63905 0.93789 0.0
C703 C 0.99007 0.6149 0.94077 0.0
C704 C 0.97478 0.61146 0.95774 0.0
C705 C 0.96576 0.58881 0.96007 0.0
C706 C 0.97197 0.56939 0.94564 0.0
C707 C 0.98726 0.57257 0.92888 0.0
C708 C 0.99631 0.59519 0.92645 0.0
C709 C 0.08336 0.67813 0.9508 0.0
C710 C 0.0932 0.66365 0.93353 0.0
C711 C 0.06274 0.67789 0.95225 0.0
C712 C 0.05162 0.66323 0.93639 0.0
C713 C 0.0615 0.6485 0.91947 0.0
C714 C 0.082 0.64873 0.91802 0.0
C715 C 0.0297 0.66313 0.93692 0.0
C716 C 0.02001 0.64079 0.93945 0.0
C717 C 0.01835 0.68445 0.93371 0.0
C718 C 0.0276 0.70852 0.93019 0.0
C719 C 0.04068 0.71259 0.9107 0.0
C720 C 0.04941 0.73532 0.9076 0.0
C721 C 0.04505 0.75418 0.92374 0.0
C722 C 0.0319 0.75037 0.94298 0.0
C723 C 0.02314 0.72765 0.94618 0.0
H724 H 0.05183 0.77177 0.9213 0.0
H725 H 0.96496 0.55187 0.94746 0.0
H726 H 0.06683 0.37181 0.37793 0.0
H727 H 0.03223 0.36661 0.38734 0.0
H728 H 0.04719 0.32187 0.4493 0.0
H729 H 0.08236 0.32688 0.43989 0.0
H730 H 0.01469 0.30415 0.42205 0.0
H731 H 0.03414 0.37802 0.46022 0.0
H732 H 0.05032 0.41795 0.46263 0.0
H733 H 0.01263 0.445 0.40578 0.0
H734 H 0.99643 0.40512 0.40274 0.0
H735 H 0.91275 0.31521 0.45757 0.0
H736 H 0.94885 0.31495 0.45869 0.0
H737 H 0.95019 0.36642 0.39928 0.0
H738 H 0.91435 0.36711 0.39839 0.0
H739 H 0.97556 0.37925 0.4333 0.0
H740 H 0.95934 0.3044 0.39149 0.0
H741 H 0.94375 0.26421 0.38758 0.0
H742 H 0.97542 0.23906 0.45066 0.0
H743 H 0.99102 0.27921 0.45511 0.0
C744 C 0.06294 0.36077 0.39358 0.0
C745 C 0.07754 0.35 0.40832 0.0
C746 C 0.04305 0.35785 0.39894 0.0
C747 C 0.0371 0.34423 0.41927 0.0
C748 C 0.05147 0.3326 0.43359 0.0
C749 C 0.07156 0.33551 0.4282 0.0
C750 C 0.01581 0.34298 0.42553 0.0
C751 C 0.00616 0.3205 0.42505 0.0
C752 C 1.00464 0.36434 0.42915 0.0
C753 C 0.01414 0.38851 0.43117 0.0
C754 C 0.02937 0.39244 0.44813 0.0
C755 C 0.03854 0.41507 0.44962 0.0
C756 C 0.03252 0.43399 0.43435 0.0
C757 C 0.01728 0.43033 0.4176 0.0
C758 C 0.00808 0.40772 0.41601 0.0
C759 C 0.92076 0.32648 0.44478 0.0
C760 C 0.91065 0.34117 0.42788 0.0
C761 C 0.94141 0.32623 0.44537 0.0
C762 C 0.95231 0.34052 0.42894 0.0
C763 C 0.94217 0.35528 0.4122 0.0
C764 C 0.92163 0.3556 0.41167 0.0
C765 C 0.97426 0.34048 0.42899 0.0
C766 C 0.98407 0.36281 0.43072 0.0
C767 C 0.98551 0.31898 0.42649 0.0
C768 C 0.97615 0.29487 0.4238 0.0
C769 C 0.96285 0.29035 0.40464 0.0
C770 C 0.95404 0.26757 0.40231 0.0
C771 C 0.95854 0.24912 0.41891 0.0
C772 C 0.97191 0.25338 0.43785 0.0
C773 C 0.98075 0.27614 0.44027 0.0
H774 H 0.95171 0.2315 0.41708 0.0
H775 H 0.03964 0.4515 0.43551 0.0
H776 H 0.43696 0.88345 0.10842 0.0
H777 H 0.47156 0.87906 0.09825 0.0
H778 H 0.45803 0.81773 0.05243 0.0
H779 H 0.42304 0.82183 0.06273 0.0
H780 H 0.48997 0.80904 0.08168 0.0
H781 H 0.47029 0.87078 0.02623 0.0
H782 H 0.45425 0.90867 0.013 0.0
H783 H 0.492 0.94964 0.06047 0.0
H784 H 0.50808 0.91195 0.07427 0.0
H785 H 0.59173 0.81156 0.04423 0.0
H786 H 0.55564 0.81235 0.04144 0.0
H787 H 0.55406 0.87291 0.09118 0.0
H788 H 0.58987 0.87219 0.0941 0.0
H789 H 0.529 0.87921 0.05219 0.0
H790 H 0.54495 0.8169 0.11155 0.0
H791 H 0.56071 0.77902 0.1254 0.0
H792 H 0.52977 0.73919 0.07001 0.0
H793 H 0.51401 0.77692 0.05562 0.0
C794 C 0.44119 0.86905 0.09606 0.0
C795 C 0.42707 0.85305 0.08634 0.0
C796 C 0.46106 0.86664 0.09017 0.0
C797 C 0.46741 0.84828 0.0743 0.0
C798 C 0.45346 0.83212 0.06462 0.0
C799 C 0.43345 0.83455 0.07047 0.0
C800 C 0.48873 0.84585 0.06859 0.0
C801 C 0.49844 0.82419 0.07468 0.0
C802 C 0.49986 0.86571 0.05975 0.0
C803 C 0.49032 0.88849 0.0514 0.0
C804 C 0.47509 0.88784 0.03398 0.0
C805 C 0.466 0.90929 0.02636 0.0
C806 C 0.47208 0.93154 0.03592 0.0
C807 C 0.4873 0.93239 0.05308 0.0
C808 C 0.49643 0.91098 0.06079 0.0
C809 C 0.58367 0.82514 0.0544 0.0
C810 C 0.59365 0.84176 0.06946 0.0
C811 C 0.56306 0.82552 0.05287 0.0
C812 C 0.55214 0.84261 0.06622 0.0
C813 C 0.56216 0.85959 0.08069 0.0
C814 C 0.58265 0.85908 0.08241 0.0
C815 C 0.53026 0.84266 0.0659 0.0
C816 C 0.52046 0.8639 0.0587 0.0
C817 C 0.51907 0.82242 0.07367 0.0
C818 C 0.52851 0.79976 0.08231 0.0
C819 C 0.54165 0.80009 0.10218 0.0
C820 C 0.55055 0.77865 0.11016 0.0
C821 C 0.5463 0.75672 0.09853 0.0
C822 C 0.53309 0.75619 0.07895 0.0
C823 C 0.52416 0.7776 0.07089 0.0
H824 H 0.5532 0.74014 0.10474 0.0
H825 H 0.46502 0.94813 0.02999 0.0
H826 H 0.5685 0.1241 0.61218 0.0
H827 H 0.53385 0.12883 0.60246 0.0
H828 H 0.54732 0.18985 0.5561 0.0
H829 H 0.58244 0.18535 0.5659 0.0
H830 H 0.51521 0.19854 0.58598 0.0
H831 H 0.53495 0.13748 0.53002 0.0
H832 H 0.55115 0.09984 0.51649 0.0
H833 H 0.51386 0.05816 0.56388 0.0
H834 H 0.49762 0.09559 0.57799 0.0
H835 H 0.41368 0.19575 0.54706 0.0
H836 H 0.4498 0.19564 0.54575 0.0
H837 H 0.45086 0.13379 0.59401 0.0
H838 H 0.41497 0.13378 0.5954 0.0
H839 H 0.47643 0.12839 0.55602 0.0
H840 H 0.45993 0.19013 0.61542 0.0
H841 H 0.44408 0.22784 0.62943 0.0
H842 H 0.47548 0.26833 0.5749 0.0
H843 H 0.49133 0.23076 0.56035 0.0
C844 C 0.56426 0.13854 0.59982 0.0
C845 C 0.57842 0.15429 0.58976 0.0
C846 C 0.54434 0.14115 0.5942 0.0
C847 C 0.53795 0.15949 0.57829 0.0
C848 C 0.55192 0.17548 0.56834 0.0
C849 C 0.572 0.17282 0.57389 0.0
C850 C 0.51659 0.16187 0.57265 0.0
C851 C 0.50678 0.1834 0.5789 0.0
C852 C 0.50551 0.14202 0.56371 0.0
C853 C 0.51515 0.11939 0.55518 0.0
C854 C 0.53029 0.12031 0.5377 0.0
C855 C 0.53947 0.099 0.5299 0.0
C856 C 0.53356 0.07663 0.53935 0.0
C857 C 0.51842 0.07551 0.55658 0.0
C858 C 0.50921 0.09677 0.56446 0.0
C859 C 0.42163 0.18208 0.55731 0.0
C860 C 0.41143 0.16481 0.57139 0.0
C861 C 0.44227 0.18209 0.55661 0.0
C862 C 0.45307 0.16478 0.5699 0.0
C863 C 0.44287 0.1473 0.58358 0.0
C864 C 0.42232 0.14738 0.58442 0.0
C865 C 0.475 0.16481 0.56998 0.0
C866 C 0.4849 0.14369 0.56268 0.0
C867 C 0.48613 0.18505 0.57788 0.0
C868 C 0.47661 0.20761 0.5866 0.0
C869 C 0.46331 0.20704 0.60627 0.0
C870 C 0.45436 0.22839 0.61434 0.0
C871 C 0.45872 0.25046 0.603 0.0
C872 C 0.47208 0.25122 0.58362 0.0
C873 C 0.48106 0.22991 0.57546 0.0
H874 H 0.45178 0.26697 0.60928 0.0
H875 H 0.54069 0.06015 0.5333 0.0
H876 H 0.59648 0.18657 0.96418 0.0
H877 H 0.5604 0.18611 0.96787 0.0
H878 H 0.55714 0.132 0.91117 0.0
H879 H 0.59282 0.13234 0.90742 0.0
H880 H 0.53205 0.19657 0.9321 0.0
H881 H 0.52127 0.09231 0.92404 0.0
H882 H 0.53828 0.05485 0.9367 0.0
H883 H 0.56574 0.09289 0.99605 0.0
H884 H 0.54867 0.13048 0.98401 0.0
H885 H 0.4417 0.12242 0.89174 0.0
H886 H 0.47624 0.12669 0.90228 0.0
H887 H 0.46186 0.18333 0.95351 0.0
H888 H 0.42694 0.17938 0.94284 0.0
H889 H 0.49521 0.11993 0.94453 0.0
H890 H 0.50209 0.22304 0.95508 0.0
H891 H 0.48583 0.26057 0.94104 0.0
H892 H 0.467 0.22464 0.87547 0.0
H893 H 0.48335 0.18702 0.88898 0.0
C894 C 0.58804 0.17443 0.9527 0.0
C895 C 0.59751 0.15946 0.93555 0.0
C896 C 0.56746 0.17427 0.95475 0.0
C897 C 0.5561 0.15886 0.93995 0.0
C898 C 0.5656 0.14379 0.92302 0.0
C899 C 0.58603 0.14407 0.92085 0.0
C900 C 0.53427 0.15871 0.94134 0.0
C901 C 0.52393 0.17996 0.93541 0.0
C902 C 0.52371 0.13696 0.94532 0.0
C903 C 0.53376 0.11428 0.953 0.0
C904 C 0.53083 0.09266 0.93989 0.0
C905 C 0.54051 0.0714 0.94694 0.0
C906 C 0.55312 0.07151 0.96713 0.0
C907 C 0.55602 0.09285 0.98037 0.0
C908 C 0.54636 0.11415 0.97342 0.0
C909 C 0.44574 0.13584 0.90528 0.0
C910 C 0.43141 0.15057 0.91641 0.0
C911 C 0.46558 0.13818 0.91135 0.0
C912 C 0.4717 0.15535 0.92865 0.0
C913 C 0.45751 0.17009 0.93994 0.0
C914 C 0.43754 0.16777 0.93384 0.0
C915 C 0.49302 0.15758 0.93445 0.0
C916 C 0.50326 0.13668 0.94176 0.0
C917 C 0.50346 0.17962 0.93165 0.0
C918 C 0.49371 0.20215 0.92322 0.0
C919 C 0.4945 0.22318 0.93765 0.0
C920 C 0.48527 0.24446 0.92979 0.0
C921 C 0.47531 0.24496 0.90743 0.0
C922 C 0.47463 0.2242 0.89284 0.0
C923 C 0.48386 0.20289 0.90061 0.0
H924 H 0.46817 0.26145 0.90138 0.0
H925 H 0.56062 0.05504 0.97254 0.0
H926 H 0.42061 0.8172 0.46069 0.0
H927 H 0.45674 0.817 0.46233 0.0
H928 H 0.45842 0.87337 0.40761 0.0
H929 H 0.42266 0.87318 0.40547 0.0
H930 H 0.48302 0.83937 0.39574 0.0
H931 H 0.4685 0.88338 0.46992 0.0
H932 H 0.45354 0.8893 0.51053 0.0
H933 H 0.48447 0.82705 0.5379 0.0
H934 H 0.49943 0.82057 0.49734 0.0
H935 H 0.57662 0.88961 0.40082 0.0
H936 H 0.54167 0.88362 0.408 0.0
H937 H 0.55416 0.81963 0.45055 0.0
H938 H 0.58953 0.82543 0.44346 0.0
H939 H 0.52338 0.85098 0.47045 0.0
H940 H 0.54049 0.81032 0.39601 0.0
H941 H 0.55649 0.8073 0.35569 0.0
H942 H 0.52066 0.86562 0.32875 0.0
H943 H 0.5047 0.86931 0.36906 0.0
C944 C 0.42873 0.8297 0.44923 0.0
C945 C 0.41879 0.84514 0.43289 0.0
C946 C 0.44938 0.8296 0.4502 0.0
C947 C 0.46038 0.8452 0.43509 0.0
C948 C 0.45034 0.86103 0.41931 0.0
C949 C 0.42984 0.86096 0.41817 0.0
C950 C 0.4823 0.84471 0.43477 0.0
C951 C 0.49178 0.84206 0.41211 0.0
C952 C 0.49388 0.84745 0.45617 0.0
C953 C 0.48489 0.85132 0.48053 0.0
C954 C 0.47198 0.87083 0.48454 0.0
C955 C 0.46352 0.87431 0.50756 0.0
C956 C 0.468 0.85851 0.52676 0.0
C957 C 0.48098 0.83924 0.523 0.0
C958 C 0.48946 0.83566 0.50001 0.0
C959 C 0.57209 0.87433 0.41192 0.0
C960 C 0.586 0.85786 0.42136 0.0
C961 C 0.55203 0.87095 0.416 0.0
C962 C 0.54531 0.85105 0.42958 0.0
C963 C 0.55907 0.8351 0.43998 0.0
C964 C 0.57927 0.8384 0.43582 0.0
C965 C 0.52384 0.84641 0.43139 0.0
C966 C 0.51453 0.84797 0.45422 0.0
C967 C 0.51233 0.84284 0.41014 0.0
C968 C 0.52148 0.84018 0.38563 0.0
C969 C 0.53609 0.82259 0.38153 0.0
C970 C 0.54516 0.82076 0.35868 0.0
C971 C 0.53962 0.83628 0.33969 0.0
C972 C 0.52495 0.85361 0.34349 0.0
C973 C 0.51587 0.85556 0.36633 0.0
H974 H 0.54668 0.83487 0.32202 0.0
H975 H 0.46144 0.86124 0.54457 0.0
H976 H 0.16209 0.36137 0.15176 0.0
H977 H 0.16294 0.35372 0.19573 0.0
H978 H 0.17619 0.27854 0.18214 0.0
H979 H 0.17717 0.28676 0.13798 0.0
H980 H 0.13488 0.30942 0.211 0.0
H981 H 0.20023 0.27473 0.21322 0.0
H982 H 0.23605 0.27108 0.20742 0.0
H983 H 0.24473 0.33927 0.24362 0.0
H984 H 0.20886 0.34358 0.24905 0.0
H985 H 0.12456 0.29999 0.34385 0.0
H986 H 0.1314 0.28887 0.30154 0.0
H987 H 0.16997 0.35059 0.29466 0.0
H988 H 0.16539 0.35933 0.33803 0.0
H989 H 0.18612 0.31319 0.27532 0.0
H990 H 0.11528 0.34789 0.24162 0.0
H991 H 0.07924 0.34822 0.24771 0.0
H992 H 0.08131 0.27412 0.2717 0.0
H993 H 0.11728 0.27349 0.2654 0.0
C994 C 0.16647 0.34361 0.1582 0.0
C995 C 0.17061 0.32498 0.14155 0.0
C996 C 0.16673 0.33916 0.18331 0.0
C997 C 0.1703 0.31573 0.19229 0.0
C998 C 0.17431 0.29696 0.17573 0.0
C999 C 0.17463 0.30161 0.15052 0.0
C1000 C 0.16594 0.31069 0.21832 0.0
C1001 C 0.1461 0.30974 0.22515 0.0
C1002 C 0.18055 0.31088 0.23665 0.0
C1003 C 0.20182 0.30976 0.23094 0.0
C1004 C 0.20971 0.2893 0.21925 0.0
C1005 C 0.23005 0.28696 0.21631 0.0
C1006 C 0.24268 0.30488 0.22523 0.0
C1007 C 0.23495 0.32535 0.2368 0.0
C1008 C 0.21461 0.32779 0.23971 0.0
C1009 C 0.13425 0.31135 0.33309 0.0
C1010 C 0.14356 0.33145 0.34377 0.0
C1011 C 0.13781 0.30529 0.30863 0.0
C1012 C 0.15029 0.31962 0.29412 0.0
C1013 C 0.15987 0.33946 0.3051 0.0
C1014 C 0.15696 0.34485 0.32979 0.0
C1015 C 0.15492 0.31335 0.26818 0.0
C1016 C 0.17484 0.31231 0.26129 0.0
C1017 C 0.14036 0.31077 0.24975 0.0
C1018 C 0.11903 0.31125 0.2548 0.0
C1019 C 0.10803 0.33196 0.24891 0.0
C1020 C 0.08762 0.33208 0.25203 0.0
C1021 C 0.07803 0.31136 0.26061 0.0
C1022 C 0.0888 0.29034 0.26557 0.0
C1023 C 0.10919 0.29013 0.26227 0.0
H1024 H 0.06223 0.31148 0.26306 0.0
H1025 H 0.25842 0.30299 0.22305 0.0
H1026 H 0.83971 0.71878 0.64259 0.0
H1027 H 0.83893 0.7264 0.68703 0.0
H1028 H 0.86532 0.65642 0.69986 0.0
H1029 H 0.86573 0.64867 0.6558 0.0
H1030 H 0.82087 0.69697 0.72644 0.0
H1031 H 0.90263 0.6681 0.73883 0.0
H1032 H 0.93466 0.67391 0.71863 0.0
H1033 H 0.91283 0.73799 0.68317 0.0
H1034 H 0.88087 0.73294 0.70384 0.0
H1035 H 0.83515 0.65496 0.84596 0.0
H1036 H 0.8314 0.66417 0.80264 0.0
H1037 H 0.87668 0.71887 0.80852 0.0
H1038 H 0.88141 0.70803 0.85163 0.0
H1039 H 0.88432 0.69707 0.7713 0.0
H1040 H 0.82403 0.73144 0.79595 0.0
H1041 H 0.79236 0.73473 0.81766 0.0
H1042 H 0.77049 0.67267 0.7789 0.0
H1043 H 0.80213 0.66879 0.75729 0.0
C1044 C 0.84515 0.70505 0.65505 0.0
C1045 C 0.85227 0.6829 0.64605 0.0
C1046 C 0.84467 0.70936 0.68029 0.0
C1047 C 0.852 0.69192 0.69665 0.0
C1048 C 0.85956 0.67007 0.68752 0.0
C1049 C 0.8597 0.66561 0.66244 0.0
C1050 C 0.85239 0.69636 0.72332 0.0
C1051 C 0.83468 0.69707 0.73638 0.0
C1052 C 0.8704 0.6976 0.73609 0.0
C1053 C 0.88938 0.70015 0.72299 0.0
C1054 C 0.90472 0.68353 0.72694 0.0
C1055 C 0.92286 0.68669 0.71536 0.0
C1056 C 0.9258 0.70635 0.69966 0.0
C1057 C 0.91055 0.72278 0.69536 0.0
C1058 C 0.89242 0.71977 0.70701 0.0
C1059 C 0.8444 0.66878 0.83784 0.0
C1060 C 0.85923 0.67994 0.85161 0.0
C1061 C 0.84193 0.67453 0.81317 0.0
C1062 C 0.85369 0.69237 0.80201 0.0
C1063 C 0.86758 0.70479 0.81643 0.0
C1064 C 0.87028 0.69868 0.84106 0.0
C1065 C 0.85268 0.69637 0.77502 0.0
C1066 C 0.87037 0.69716 0.76171 0.0
C1067 C 0.83458 0.69756 0.76209 0.0
C1068 C 0.81545 0.69986 0.77494 0.0
C1069 C 0.81248 0.71845 0.79211 0.0
C1070 C 0.79454 0.72041 0.80442 0.0
C1071 C 0.77941 0.70394 0.79965 0.0
C1072 C 0.78219 0.68547 0.78253 0.0
C1073 C 0.80011 0.68343 0.77019 0.0
H1074 H 0.76554 0.70547 0.80921 0.0
H1075 H 0.9399 0.70889 0.69088 0.0
H1076 H 0.17081 0.71436 0.85694 0.0
H1077 H 0.17214 0.71561 0.81189 0.0
H1078 H 0.15026 0.64217 0.80928 0.0
H1079 H 0.14946 0.64084 0.85377 0.0
H1080 H 0.17987 0.64637 0.78072 0.0
H1081 H 0.12153 0.69397 0.79551 0.0
H1082 H 0.10297 0.7285 0.81247 0.0
H1083 H 0.14001 0.77819 0.7733 0.0
H1084 H 0.15894 0.74393 0.75635 0.0
H1085 H 0.12302 0.677 0.65863 0.0
H1086 H 0.12849 0.67959 0.70259 0.0
H1087 H 0.18863 0.65655 0.69167 0.0
H1088 H 0.18176 0.64973 0.64873 0.0
H1089 H 0.14617 0.7059 0.72782 0.0
H1090 H 0.2107 0.65511 0.72727 0.0
H1091 H 0.23128 0.61889 0.72035 0.0
H1092 H 0.18307 0.57317 0.74131 0.0
H1093 H 0.16197 0.60917 0.74687 0.0
C1094 C 0.16639 0.69857 0.84656 0.0
C1095 C 0.16059 0.67727 0.85863 0.0
C1096 C 0.16699 0.69932 0.82091 0.0
C1097 C 0.16124 0.67899 0.80712 0.0
C1098 C 0.15492 0.65803 0.81941 0.0
C1099 C 0.15456 0.65721 0.84484 0.0
C1100 C 0.16243 0.67861 0.77995 0.0
C1101 C 0.17258 0.65944 0.76912 0.0
C1102 C 0.15315 0.69585 0.76474 0.0
C1103 C 0.14179 0.71642 0.77491 0.0
C1104 C 0.12581 0.71227 0.79068 0.0
C1105 C 0.11521 0.73178 0.80026 0.0
C1106 C 0.12035 0.75552 0.79403 0.0
C1107 C 0.13607 0.75979 0.77815 0.0
C1108 C 0.14674 0.74034 0.76855 0.0
C1109 C 0.13712 0.67149 0.66603 0.0
C1110 C 0.1517 0.66223 0.65061 0.0
C1111 C 0.14047 0.67334 0.69119 0.0
C1112 C 0.15904 0.66781 0.70141 0.0
C1113 C 0.17382 0.65941 0.68547 0.0
C1114 C 0.17002 0.65599 0.66053 0.0
C1115 C 0.16261 0.67225 0.72824 0.0
C1116 C 0.15363 0.69268 0.7392 0.0
C1117 C 0.17307 0.65605 0.74378 0.0
C1118 C 0.18433 0.63468 0.73557 0.0
C1119 C 0.20425 0.63725 0.72921 0.0
C1120 C 0.21604 0.61679 0.72566 0.0
C1121 C 0.20833 0.59367 0.72972 0.0
C1122 C 0.18886 0.59103 0.73739 0.0
C1123 C 0.17686 0.61142 0.74019 0.0
H1124 H 0.21754 0.57785 0.72737 0.0
H1125 H 0.11212 0.77061 0.80146 0.0
H1126 H 0.88769 0.3088 0.16218 0.0
H1127 H 0.87953 0.30714 0.20579 0.0
H1128 H 0.82435 0.34327 0.19066 0.0
H1129 H 0.83385 0.34753 0.14796 0.0
H1130 H 0.83597 0.36281 0.22533 0.0
H1131 H 0.83196 0.27837 0.21142 0.0
H1132 H 0.84234 0.23783 0.19753 0.0
H1133 H 0.89145 0.23977 0.24691 0.0
H1134 H 0.88151 0.28046 0.26089 0.0
H1135 H 0.82395 0.30176 0.35655 0.0
H1136 H 0.82272 0.30088 0.31175 0.0
H1137 H 0.85215 0.3702 0.30961 0.0
H1138 H 0.85133 0.37211 0.35395 0.0
H1139 H 0.84984 0.29608 0.28314 0.0
H1140 H 0.85493 0.39368 0.2732 0.0
H1141 H 0.84074 0.43478 0.27301 0.0
H1142 H 0.78324 0.40487 0.26097 0.0
H1143 H 0.79707 0.36351 0.26229 0.0
C1144 C 0.87388 0.31638 0.16841 0.0
C1145 C 0.86165 0.32895 0.1521 0.0
C1146 C 0.869 0.31506 0.19328 0.0
C1147 C 0.85118 0.32494 0.20192 0.0
C1148 C 0.83837 0.33589 0.18492 0.0
C1149 C 0.84372 0.33827 0.16043 0.0
C1150 C 0.84662 0.32626 0.22869 0.0
C1151 C 0.83915 0.34811 0.23782 0.0
C1152 C 0.85004 0.30703 0.24536 0.0
C1153 C 0.85607 0.28255 0.23706 0.0
C1154 C 0.84504 0.27021 0.21921 0.0
C1155 C 0.85084 0.2472 0.21133 0.0
C1156 C 0.86757 0.23625 0.22129 0.0
C1157 C 0.87851 0.24828 0.2392 0.0
C1158 C 0.87278 0.2713 0.24713 0.0
C1159 C 0.82942 0.31717 0.34632 0.0
C1160 C 0.83736 0.33721 0.35858 0.0
C1161 C 0.82885 0.31667 0.3207 0.0
C1162 C 0.837 0.33573 0.30678 0.0
C1163 C 0.84476 0.35583 0.31931 0.0
C1164 C 0.84461 0.35675 0.34487 0.0
C1165 C 0.83964 0.33302 0.27971 0.0
C1166 C 0.8468 0.31079 0.27054 0.0
C1167 C 0.83564 0.35182 0.26274 0.0
C1168 C 0.82689 0.37547 0.26907 0.0
C1169 C 0.83914 0.39584 0.27168 0.0
C1170 C 0.83121 0.41919 0.27107 0.0
C1171 C 0.81111 0.42245 0.26693 0.0
C1172 C 0.79882 0.40232 0.2642 0.0
C1173 C 0.80664 0.3789 0.26543 0.0
H1174 H 0.80502 0.44056 0.26598 0.0
H1175 H 0.87203 0.21843 0.21517 0.0
H1176 H 0.68278 0.83815 0.35532 0.0
H1177 H 0.69042 0.82697 0.31371 0.0
H1178 H 0.62835 0.81771 0.29883 0.0
H1179 H 0.62166 0.82309 0.34217 0.0
H1180 H 0.64157 0.79028 0.27256 0.0
H1181 H 0.67634 0.87986 0.26179 0.0
H1182 H 0.70248 0.9084 0.27463 0.0
H1183 H 0.74061 0.84843 0.29064 0.0
H1184 H 0.71462 0.81983 0.27776 0.0
H1185 H 0.66823 0.7861 0.14301 0.0
H1186 H 0.66995 0.78039 0.18769 0.0
H1187 H 0.65527 0.85579 0.19795 0.0
H1188 H 0.65309 0.86124 0.1537 0.0
H1189 H 0.68806 0.84014 0.22472 0.0
H1190 H 0.648 0.75139 0.24078 0.0
H1191 H 0.62355 0.72489 0.22078 0.0
H1192 H 0.59719 0.78681 0.18616 0.0
H1193 H 0.62129 0.81366 0.20622 0.0
C1194 C 0.67084 0.83376 0.34294 0.0
C1195 C 0.65148 0.83269 0.35154 0.0
C1196 C 0.67517 0.828 0.31863 0.0
C1197 C 0.6601 0.82274 0.30174 0.0
C1198 C 0.64063 0.82157 0.31082 0.0
C1199 C 0.63655 0.82537 0.3356 0.0
C1200 C 0.66402 0.81811 0.27495 0.0
C1201 C 0.65171 0.80159 0.26239 0.0
C1202 C 0.67814 0.83115 0.26083 0.0
C1203 C 0.693 0.84788 0.27091 0.0
C1204 C 0.68999 0.87294 0.26921 0.0
C1205 C 0.70487 0.88907 0.27604 0.0
C1206 C 0.72299 0.88023 0.28418 0.0
C1207 C 0.72642 0.85526 0.28489 0.0
C1208 C 0.71163 0.83913 0.27776 0.0
C1209 C 0.66551 0.80138 0.15494 0.0
C1210 C 0.66133 0.82434 0.14509 0.0
C1211 C 0.6664 0.7981 0.18035 0.0
C1212 C 0.66283 0.8177 0.19609 0.0
C1213 C 0.65825 0.84047 0.18613 0.0
C1214 C 0.65723 0.84366 0.16089 0.0
C1215 C 0.66411 0.81515 0.22302 0.0
C1216 C 0.67782 0.82945 0.23531 0.0
C1217 C 0.65131 0.80032 0.2367 0.0
C1218 C 0.63662 0.78444 0.22473 0.0
C1219 C 0.63696 0.75932 0.22892 0.0
C1220 C 0.62316 0.74425 0.21759 0.0
C1221 C 0.60888 0.75415 0.20212 0.0
C1222 C 0.60831 0.77915 0.19805 0.0
C1223 C 0.62206 0.79429 0.20936 0.0
H1224 H 0.59822 0.74246 0.19336 0.0
H1225 H 0.7345 0.89273 0.28947 0.0
H1226 H 0.39027 0.19357 0.8406 0.0
H1227 H 0.38261 0.19701 0.7969 0.0
H1228 H 0.32569 0.16455 0.81019 0.0
H1229 H 0.33456 0.15843 0.85287 0.0
H1230 H 0.33723 0.14446 0.77576 0.0
H1231 H 0.33643 0.22892 0.79051 0.0
H1232 H 0.34831 0.26863 0.80499 0.0
H1233 H 0.39773 0.26413 0.75637 0.0
H1234 H 0.38628 0.22424 0.74182 0.0
H1235 H 0.32699 0.20682 0.64533 0.0
H1236 H 0.32637 0.20743 0.69019 0.0
H1237 H 0.35483 0.1375 0.69128 0.0
H1238 H 0.35329 0.1358 0.647 0.0
H1239 H 0.35419 0.21082 0.71885 0.0
H1240 H 0.35664 0.11379 0.72641 0.0
H1241 H 0.34207 0.07293 0.7257 0.0
H1242 H 0.28521 0.10322 0.74088 0.0
H1243 H 0.29931 0.14442 0.73995 0.0
C1244 C 0.37618 0.18718 0.83394 0.0
C1245 C 0.36323 0.17504 0.84968 0.0
C1246 C 0.3716 0.18954 0.80903 0.0
C1247 C 0.35346 0.18113 0.79984 0.0
C1248 C 0.33996 0.17077 0.81636 0.0
C1249 C 0.34496 0.16733 0.84083 0.0
C1250 C 0.34924 0.18038 0.77296 0.0
C1251 C 0.34112 0.15905 0.76346 0.0
C1252 C 0.35364 0.19951 0.75655 0.0
C1253 C 0.36057 0.22349 0.76522 0.0
C1254 C 0.3499 0.23632 0.78303 0.0
C1255 C 0.35655 0.25888 0.79123 0.0
C1256 C 0.37379 0.26887 0.78165 0.0
C1257 C 0.38439 0.25636 0.76379 0.0
C1258 C 0.37782 0.23379 0.75554 0.0
C1259 C 0.33237 0.19123 0.65536 0.0
C1260 C 0.33977 0.17105 0.64284 0.0
C1261 C 0.33214 0.19157 0.681 0.0
C1262 C 0.34009 0.17217 0.69464 0.0
C1263 C 0.34747 0.15205 0.68183 0.0
C1264 C 0.34694 0.15128 0.6563 0.0
C1265 C 0.34274 0.17439 0.72175 0.0
C1266 C 0.35054 0.19616 0.73126 0.0
C1267 C 0.33795 0.15565 0.73844 0.0
C1268 C 0.32885 0.1323 0.7317 0.0
C1269 C 0.34085 0.11184 0.72816 0.0
C1270 C 0.33272 0.08858 0.72838 0.0
C1271 C 0.31273 0.08546 0.73328 0.0
C1272 C 0.3007 0.10566 0.73706 0.0
C1273 C 0.30867 0.129 0.73604 0.0
H1274 H 0.30653 0.06741 0.73402 0.0
H1275 H 0.37891 0.28633 0.78802 0.0
H1276 H 0.67343 0.21821 0.86231 0.0
H1277 H 0.67177 0.22643 0.81801 0.0
H1278 H 0.6476 0.15508 0.80621 0.0
H1279 H 0.64913 0.14702 0.85011 0.0
H1280 H 0.68838 0.20174 0.77711 0.0
H1281 H 0.61153 0.15884 0.76886 0.0
H1282 H 0.58132 0.15475 0.79344 0.0
H1283 H 0.59486 0.22108 0.83086 0.0
H1284 H 0.62497 0.22575 0.80613 0.0
H1285 H 0.67091 0.15937 0.65844 0.0
H1286 H 0.676 0.16823 0.70164 0.0
H1287 H 0.62798 0.21951 0.69954 0.0
H1288 H 0.62228 0.20946 0.65634 0.0
H1289 H 0.62323 0.19429 0.73686 0.0
H1290 H 0.67895 0.23638 0.7079 0.0
H1291 H 0.70908 0.24366 0.68393 0.0
H1292 H 0.73803 0.18519 0.72132 0.0
H1293 H 0.70798 0.1773 0.74523 0.0
C1294 C 0.66795 0.20433 0.85009 0.0
C1295 C 0.66191 0.18178 0.8593 0.0
C1296 C 0.66705 0.20897 0.82491 0.0
C1297 C 0.65954 0.19136 0.8089 0.0
C1298 C 0.65337 0.16894 0.81826 0.0
C1299 C 0.65439 0.16428 0.84326 0.0
C1300 C 0.65735 0.19632 0.78243 0.0
C1301 C 0.67418 0.20019 0.76818 0.0
C1302 C 0.63874 0.19511 0.77102 0.0
C1303 C 0.62041 0.1927 0.78551 0.0
C1304 C 0.60791 0.17272 0.78205 0.0
C1305 C 0.59085 0.17025 0.7961 0.0
C1306 C 0.58616 0.18767 0.81368 0.0
C1307 C 0.5985 0.20761 0.81723 0.0
C1308 C 0.61556 0.21017 0.8032 0.0
C1309 C 0.66143 0.17248 0.66731 0.0
C1310 C 0.64572 0.18303 0.65455 0.0
C1311 C 0.66458 0.17794 0.6919 0.0
C1312 C 0.65249 0.19473 0.70402 0.0
C1313 C 0.63745 0.20637 0.69073 0.0
C1314 C 0.63419 0.20069 0.6661 0.0
C1315 C 0.65445 0.19826 0.73093 0.0
C1316 C 0.63751 0.19602 0.74547 0.0
C1317 C 0.67296 0.20142 0.74253 0.0
C1318 C 0.69117 0.20622 0.72834 0.0
C1319 C 0.69171 0.225 0.71094 0.0
C1320 C 0.70878 0.22923 0.69735 0.0
C1321 C 0.72545 0.21489 0.70109 0.0
C1322 C 0.72511 0.19631 0.71846 0.0
C1323 C 0.70807 0.19197 0.73207 0.0
H1324 H 0.73865 0.21819 0.69054 0.0
H1325 H 0.57297 0.18569 0.82457 0.0
H1326 H 0.38667 0.79672 0.15293 0.0
H1327 H 0.3831 0.7859 0.19628 0.0
H1328 H 0.33359 0.8347 0.2019 0.0
H1329 H 0.33663 0.84435 0.15854 0.0
H1330 H 0.38852 0.81083 0.23363 0.0
H1331 H 0.30366 0.82334 0.24642 0.0
H1332 H 0.27312 0.81381 0.22408 0.0
H1333 H 0.30281 0.75689 0.18538 0.0
H1334 H 0.33345 0.76582 0.20781 0.0
H1335 H 0.36628 0.85582 0.34837 0.0
H1336 H 0.36669 0.8478 0.30451 0.0
H1337 H 0.34292 0.77637 0.31731 0.0
H1338 H 0.3422 0.78469 0.36163 0.0
H1339 H 0.32529 0.79961 0.27743 0.0
H1340 H 0.39044 0.77849 0.30256 0.0
H1341 H 0.42132 0.78429 0.32559 0.0
H1342 H 0.4313 0.85168 0.28824 0.0
H1343 H 0.40031 0.84645 0.26539 0.0
C1344 C 0.37491 0.80479 0.16351 0.0
C1345 C 0.36236 0.82201 0.15287 0.0
C1346 C 0.37286 0.79866 0.18822 0.0
C1347 C 0.35802 0.80938 0.20253 0.0
C1348 C 0.34491 0.82571 0.19136 0.0
C1349 C 0.34688 0.83164 0.16668 0.0
C1350 C 0.35726 0.80538 0.22947 0.0
C1351 C 0.37466 0.8083 0.24303 0.0
C1352 C 0.33936 0.80106 0.24205 0.0
C1353 C 0.32087 0.79529 0.22882 0.0
C1354 C 0.30363 0.80863 0.23335 0.0
C1355 C 0.28631 0.80338 0.2206 0.0
C1356 C 0.28603 0.78477 0.20331 0.0
C1357 C 0.30306 0.77133 0.19876 0.0
C1358 C 0.32041 0.77649 0.21147 0.0
C1359 C 0.36091 0.83853 0.34177 0.0
C1360 C 0.3537 0.82109 0.35811 0.0
C1361 C 0.36132 0.83387 0.31678 0.0
C1362 C 0.35494 0.81144 0.30767 0.0
C1363 C 0.34783 0.79382 0.324 0.0
C1364 C 0.34747 0.79852 0.34919 0.0
C1365 C 0.35629 0.80663 0.28109 0.0
C1366 C 0.33908 0.80198 0.26775 0.0
C1367 C 0.37439 0.80885 0.26863 0.0
C1368 C 0.39318 0.81195 0.28207 0.0
C1369 C 0.39925 0.79453 0.29927 0.0
C1370 C 0.41674 0.79774 0.31233 0.0
C1371 C 0.4283 0.8183 0.30832 0.0
C1372 C 0.42239 0.83569 0.29124 0.0
C1373 C 0.4049 0.83257 0.27815 0.0
H1374 H 0.44183 0.82078 0.31848 0.0
H1375 H 0.27262 0.78076 0.19343 0.0
H1376 H 0.3023 0.17402 0.9346 0.0
H1377 H 0.27597 0.19643 0.95496 0.0
H1378 H 0.31919 0.23811 0.9946 0.0
H1379 H 0.34555 0.21515 0.97492 0.0
H1380 H 0.29032 0.2276 0.02383 0.0
H1381 H 0.29421 0.26011 0.94227 0.0
H1382 H 0.29415 0.25835 0.89722 0.0
H1383 H 0.23561 0.2291 0.89807 0.0
H1384 H 0.23543 0.2304 0.94316 0.0
H1385 H 0.23634 0.33028 0.0572 0.0
H1386 H 0.25886 0.3032 0.0362 0.0
H1387 H 0.20994 0.26117 0.00943 0.0
H1388 H 0.18698 0.28847 0.03043 0.0
H1389 H 0.23928 0.269 0.97405 0.0
H1390 H 0.23513 0.24034 0.05665 0.0
H1391 H 0.23557 0.2451 0.10146 0.0
H1392 H 0.2955 0.26948 0.09836 0.0
H1393 H 0.29531 0.26528 0.05347 0.0
C1394 C 0.30619 0.18787 0.94777 0.0
C1395 C 0.32603 0.19289 0.95306 0.0
C1396 C 0.29111 0.20079 0.9593 0.0
C1397 C 0.29553 0.21934 0.97602 0.0
C1398 C 0.31534 0.22395 0.98175 0.0
C1399 C 0.33043 0.21083 0.97045 0.0
C1400 C 0.27961 0.23419 0.98733 0.0
C1401 C 0.27929 0.23679 0.01287 0.0
C1402 C 0.26484 0.2458 0.97319 0.0
C1403 C 0.26489 0.2451 0.94609 0.0
C1404 C 0.28138 0.25314 0.93285 0.0
C1405 C 0.28138 0.25225 0.90731 0.0
C1406 C 0.26491 0.24355 0.89479 0.0
C1407 C 0.24838 0.23579 0.90779 0.0
C1408 C 0.24831 0.23661 0.93334 0.0
C1409 C 0.23021 0.31541 0.04677 0.0
C1410 C 0.20973 0.31153 0.04572 0.0
C1411 C 0.2432 0.29986 0.03481 0.0
C1412 C 0.23613 0.27992 0.02158 0.0
C1413 C 0.21571 0.27639 0.01966 0.0
C1414 C 0.20261 0.29201 0.0317 0.0
C1415 C 0.25026 0.26262 0.01038 0.0
C1416 C 0.25022 0.25956 0.98494 0.0
C1417 C 0.26482 0.25076 0.02457 0.0
C1418 C 0.26516 0.25264 0.05165 0.0
C1419 C 0.24837 0.24683 0.0655 0.0
C1420 C 0.24858 0.24943 0.09092 0.0
C1421 C 0.26554 0.25763 0.10274 0.0
C1422 C 0.28237 0.26315 0.08918 0.0
C1423 C 0.28223 0.26063 0.06374 0.0
H1424 H 0.26565 0.25968 0.12242 0.0
H1425 H 0.26494 0.24288 0.87502 0.0
H1426 H 0.78009 0.68272 0.57308 0.0
H1427 H 0.75714 0.70775 0.55015 0.0
H1428 H 0.80502 0.73678 0.50755 0.0
H1429 H 0.82838 0.71194 0.53088 0.0
H1430 H 0.77993 0.77214 0.52039 0.0
H1431 H 0.77363 0.69427 0.48338 0.0
H1432 H 0.76898 0.64997 0.48211 0.0
H1433 H 0.71186 0.65769 0.51462 0.0
H1434 H 0.71627 0.70204 0.51642 0.0
H1435 H 0.71437 0.8244 0.43195 0.0
H1436 H 0.74016 0.80078 0.45224 0.0
H1437 H 0.69681 0.76909 0.5001 0.0
H1438 H 0.67094 0.79249 0.47978 0.0
H1439 H 0.72114 0.73501 0.48183 0.0
H1440 H 0.72843 0.81302 0.52027 0.0
H1441 H 0.73331 0.8573 0.52115 0.0
H1442 H 0.7889 0.84915 0.48486 0.0
H1443 H 0.78422 0.80481 0.48346 0.0
C1444 C 0.78587 0.69431 0.55879 0.0
C1445 C 0.80619 0.69509 0.55378 0.0
C1446 C 0.77263 0.70861 0.5456 0.0
C1447 C 0.77925 0.72389 0.5268 0.0
C1448 C 0.79953 0.72505 0.5219 0.0
C1449 C 0.81287 0.71077 0.53522 0.0
C1450 C 0.76488 0.73869 0.51254 0.0
C1451 C 0.76726 0.76397 0.51159 0.0
C1452 C 0.74812 0.72815 0.50138 0.0
C1453 C 0.74535 0.70148 0.50021 0.0
C1454 C 0.76013 0.68651 0.49042 0.0
C1455 C 0.75753 0.66139 0.48958 0.0
C1456 C 0.74016 0.65102 0.49832 0.0
C1457 C 0.72532 0.66575 0.50787 0.0
C1458 C 0.72785 0.69089 0.50878 0.0
C1459 C 0.71033 0.81251 0.44689 0.0
C1460 C 0.69058 0.81037 0.45426 0.0
C1461 C 0.72512 0.79906 0.45853 0.0
C1462 C 0.72048 0.78325 0.47784 0.0
C1463 C 0.70077 0.78114 0.48525 0.0
C1464 C 0.68599 0.79461 0.47366 0.0
C1465 C 0.73603 0.76846 0.49001 0.0
C1466 C 0.73387 0.74316 0.49051 0.0
C1467 C 0.75301 0.77899 0.50063 0.0
C1468 C 0.75588 0.80562 0.50153 0.0
C1469 C 0.74162 0.82068 0.5123 0.0
C1470 C 0.74436 0.84579 0.51293 0.0
C1471 C 0.76138 0.85604 0.503 0.0
C1472 C 0.77571 0.84119 0.4925 0.0
C1473 C 0.77303 0.81607 0.4918 0.0
H1474 H 0.76348 0.87548 0.50351 0.0
H1475 H 0.73817 0.63156 0.49766 0.0
H1476 H 0.29767 0.82966 0.07075 0.0
H1477 H 0.271 0.80846 0.04972 0.0
H1478 H 0.3134 0.77196 0.00409 0.0
H1479 H 0.34009 0.7937 0.02455 0.0
H1480 H 0.28316 0.78441 0.97753 0.0
H1481 H 0.29103 0.74441 0.05514 0.0
H1482 H 0.29281 0.74194 0.10011 0.0
H1483 H 0.23373 0.76897 0.10554 0.0
H1484 H 0.23169 0.7719 0.06059 0.0
H1485 H 0.23089 0.68227 0.9383 0.0
H1486 H 0.25328 0.70927 0.9596 0.0
H1487 H 0.20415 0.7458 0.99306 0.0
H1488 H 0.1813 0.71849 0.97174 0.0
H1489 H 0.2351 0.73652 0.02582 0.0
H1490 H 0.22698 0.77247 0.94669 0.0
H1491 H 0.22586 0.77234 0.90164 0.0
H1492 H 0.28647 0.7506 0.89905 0.0
H1493 H 0.28788 0.75021 0.94411 0.0
C1494 C 0.30131 0.81724 0.05612 0.0
C1495 C 0.32103 0.81329 0.0494 0.0
C1496 C 0.28603 0.805 0.04419 0.0
C1497 C 0.29014 0.78821 0.02557 0.0
C1498 C 0.3098 0.78475 0.01841 0.0
C1499 C 0.32508 0.79718 0.03016 0.0
C1500 C 0.27407 0.77397 0.01376 0.0
C1501 C 0.27278 0.7738 0.98813 0.0
C1502 C 0.26013 0.76052 0.02751 0.0
C1503 C 0.26129 0.75863 0.05452 0.0
C1504 C 0.27847 0.74999 0.06594 0.0
C1505 C 0.27952 0.74849 0.09142 0.0
C1506 C 0.26342 0.75537 0.10568 0.0
C1507 C 0.24621 0.76369 0.09448 0.0
C1508 C 0.24509 0.76526 0.069 0.0
C1509 C 0.22468 0.69594 0.95021 0.0
C1510 C 0.20416 0.69818 0.95315 0.0
C1511 C 0.23759 0.71148 0.96233 0.0
C1512 C 0.23042 0.7298 0.97766 0.0
C1513 C 0.21 0.73185 0.9812 0.0
C1514 C 0.19697 0.71625 0.96896 0.0
C1515 C 0.24445 0.74674 0.98968 0.0
C1516 C 0.24536 0.74739 0.01529 0.0
C1517 C 0.25816 0.76045 0.97593 0.0
C1518 C 0.25749 0.76117 0.9488 0.0
C1519 C 0.24004 0.76754 0.93652 0.0
C1520 C 0.23936 0.76756 0.91098 0.0
C1521 C 0.25607 0.76142 0.89749 0.0
C1522 C 0.27353 0.75534 0.90952 0.0
C1523 C 0.27429 0.75525 0.93507 0.0
H1524 H 0.2555 0.76142 0.87771 0.0
H1525 H 0.26426 0.7542 0.12541 0.0
H1526 H 0.70819 0.17611 0.57241 0.0
H1527 H 0.73479 0.19749 0.55142 0.0
H1528 H 0.6923 0.23313 0.50504 0.0
H1529 H 0.66569 0.21125 0.52553 0.0
H1530 H 0.72291 0.22085 0.47888 0.0
H1531 H 0.71403 0.26133 0.55594 0.0
H1532 H 0.71188 0.26414 0.60085 0.0
H1533 H 0.77122 0.23822 0.60738 0.0
H1534 H 0.77363 0.23495 0.56249 0.0
H1535 H 0.77314 0.32511 0.44074 0.0
H1536 H 0.7514 0.29701 0.46165 0.0
H1537 H 0.80142 0.26104 0.49384 0.0
H1538 H 0.82363 0.28937 0.47274 0.0
H1539 H 0.77002 0.27004 0.52727 0.0
H1540 H 0.77919 0.23381 0.44867 0.0
H1541 H 0.78062 0.23349 0.40364 0.0
H1542 H 0.71969 0.25375 0.4 0.0
H1543 H 0.71797 0.25457 0.44503 0.0
C1544 C 0.70451 0.18837 0.55762 0.0
C1545 C 0.68478 0.19205 0.55072 0.0
C1546 C 0.71975 0.20071 0.54571 0.0
C1547 C 0.7156 0.21732 0.52689 0.0
C1548 C 0.69594 0.22048 0.51953 0.0
C1549 C 0.6807 0.20798 0.53129 0.0
C1550 C 0.73162 0.23172 0.51512 0.0
C1551 C 0.73309 0.23172 0.4895 0.0
C1552 C 0.7453 0.24554 0.5289 0.0
C1553 C 0.74393 0.24763 0.55588 0.0
C1554 C 0.72657 0.25606 0.56696 0.0
C1555 C 0.72531 0.25776 0.59241 0.0
C1556 C 0.74138 0.25128 0.60697 0.0
C1557 C 0.75877 0.24318 0.59609 0.0
C1558 C 0.76009 0.24141 0.57064 0.0
C1559 C 0.77968 0.31133 0.45227 0.0
C1560 C 0.80026 0.30957 0.45494 0.0
C1561 C 0.76714 0.29516 0.46417 0.0
C1562 C 0.77475 0.27674 0.4791 0.0
C1563 C 0.79523 0.27508 0.48231 0.0
C1564 C 0.80791 0.29124 0.47019 0.0
C1565 C 0.76105 0.25938 0.49113 0.0
C1566 C 0.75999 0.25888 0.51674 0.0
C1567 C 0.74762 0.24529 0.47736 0.0
C1568 C 0.74849 0.2444 0.45025 0.0
C1569 C 0.76613 0.23834 0.43827 0.0
C1570 C 0.76698 0.23806 0.41274 0.0
C1571 C 0.75027 0.24364 0.39896 0.0
C1572 C 0.73263 0.24944 0.4107 0.0
C1573 C 0.7317 0.24979 0.43623 0.0
H1574 H 0.75097 0.24343 0.3792 0.0
H1575 H 0.74038 0.2526 0.62667 0.0
H1576 H 0.73088 0.81719 0.07208 0.0
H1577 H 0.75334 0.7911 0.04984 0.0
H1578 H 0.70507 0.76321 0.00709 0.0
H1579 H 0.68213 0.78924 0.02977 0.0
H1580 H 0.73011 0.72713 0.02055 0.0
H1581 H 0.73652 0.80436 0.98239 0.0
H1582 H 0.74105 0.84866 0.98036 0.0
H1583 H 0.7981 0.84165 0.01339 0.0
H1584 H 0.7938 0.79732 0.01594 0.0
H1585 H 0.7967 0.6753 0.93265 0.0
H1586 H 0.77056 0.69806 0.9531 0.0
H1587 H 0.81334 0.72963 0.00185 0.0
H1588 H 0.83957 0.707 0.98143 0.0
H1589 H 0.78919 0.76374 0.98216 0.0
H1590 H 0.78162 0.68615 0.02164 0.0
H1591 H 0.77669 0.64188 0.02303 0.0
H1592 H 0.72135 0.64973 0.98593 0.0
H1593 H 0.72608 0.69404 0.98403 0.0
C1594 C 0.72489 0.80561 0.05793 0.0
C1595 C 0.7046 0.80559 0.05261 0.0
C1596 C 0.73785 0.79068 0.04515 0.0
C1597 C 0.73101 0.77548 0.02645 0.0
C1598 C 0.71072 0.77489 0.02136 0.0
C1599 C 0.69763 0.78984 0.0343 0.0
C1600 C 0.74525 0.76045 0.01234 0.0
C1601 C 0.74285 0.73517 0.01178 0.0
C1602 C 0.76205 0.77085 0.00117 0.0
C1603 C 0.76477 0.79752 0.99952 0.0
C1604 C 0.74998 0.81227 0.98938 0.0
C1605 C 0.75251 0.83739 0.98811 0.0
C1606 C 0.76984 0.84797 0.99678 0.0
C1607 C 0.78468 0.83344 0.00669 0.0
C1608 C 0.78222 0.80831 0.00802 0.0
C1609 C 0.80053 0.68689 0.94789 0.0
C1610 C 0.82024 0.68932 0.95541 0.0
C1611 C 0.78555 0.69986 0.95961 0.0
C1612 C 0.78995 0.71551 0.97909 0.0
C1613 C 0.80958 0.71769 0.98685 0.0
C1614 C 0.82456 0.70465 0.97522 0.0
C1615 C 0.77428 0.73039 0.99079 0.0
C1616 C 0.7764 0.7557 0.99081 0.0
C1617 C 0.75719 0.72 0.00127 0.0
C1618 C 0.75431 0.69338 0.00246 0.0
C1619 C 0.76848 0.67842 0.01359 0.0
C1620 C 0.76571 0.65332 0.01451 0.0
C1621 C 0.74875 0.64299 0.00451 0.0
C1622 C 0.7345 0.65775 0.99363 0.0
C1623 C 0.73721 0.68286 0.99265 0.0
H1624 H 0.74663 0.62356 0.00524 0.0
H1625 H 0.77177 0.86742 0.99579 0.0
H1626 H 0.3237 0.21632 0.52607 0.0
H1627 H 0.30096 0.24229 0.50286 0.0
H1628 H 0.25184 0.21062 0.54121 0.0
H1629 H 0.2741 0.18458 0.56381 0.0
H1630 H 0.24386 0.21228 0.4947 0.0
H1631 H 0.27018 0.26876 0.5538 0.0
H1632 H 0.29652 0.29136 0.57482 0.0
H1633 H 0.31397 0.32352 0.50668 0.0
H1634 H 0.28786 0.30085 0.48521 0.0
H1635 H 0.16527 0.29258 0.47212 0.0
H1636 H 0.19185 0.27014 0.49211 0.0
H1637 H 0.23423 0.3046 0.44487 0.0
H1638 H 0.20772 0.32729 0.4249 0.0
H1639 H 0.24774 0.30201 0.49186 0.0
H1640 H 0.21981 0.24735 0.43341 0.0
H1641 H 0.19322 0.22491 0.41274 0.0
H1642 H 0.17873 0.18916 0.48012 0.0
H1643 H 0.20507 0.21165 0.50129 0.0
C1644 C 0.30806 0.21499 0.52959 0.0
C1645 C 0.30081 0.19819 0.54676 0.0
C1646 C 0.29506 0.2299 0.51636 0.0
C1647 C 0.27461 0.2285 0.52028 0.0
C1648 C 0.26748 0.21199 0.53764 0.0
C1649 C 0.28034 0.19707 0.55064 0.0
C1650 C 0.26033 0.24363 0.5062 0.0
C1651 C 0.24466 0.23191 0.49431 0.0
C1652 C 0.26158 0.26924 0.50497 0.0
C1653 C 0.27723 0.2829 0.51787 0.0
C1654 C 0.27973 0.2805 0.54328 0.0
C1655 C 0.2946 0.29335 0.55527 0.0
C1656 C 0.30695 0.30881 0.54208 0.0
C1657 C 0.30442 0.3115 0.51687 0.0
C1658 C 0.28958 0.29867 0.50478 0.0
C1659 C 0.18025 0.29549 0.46604 0.0
C1660 C 0.18433 0.31164 0.44681 0.0
C1661 C 0.19544 0.28257 0.47744 0.0
C1662 C 0.21505 0.28542 0.4698 0.0
C1663 C 0.21924 0.30204 0.45106 0.0
C1664 C 0.20404 0.31494 0.43961 0.0
C1665 C 0.23105 0.27062 0.48102 0.0
C1666 C 0.24705 0.28236 0.49219 0.0
C1667 C 0.23011 0.24499 0.48168 0.0
C1668 C 0.21431 0.23135 0.46898 0.0
C1669 C 0.21086 0.23484 0.44386 0.0
C1670 C 0.19585 0.22208 0.43205 0.0
C1671 C 0.18427 0.20566 0.44512 0.0
C1672 C 0.18771 0.2019 0.47002 0.0
C1673 C 0.20269 0.21463 0.48194 0.0
H1674 H 0.17265 0.1958 0.43594 0.0
H1675 H 0.31845 0.31874 0.5514 0.0
H1676 H 0.80226 0.32292 0.0688 0.0
H1677 H 0.77619 0.30034 0.04806 0.0
H1678 H 0.81963 0.26379 0.00404 0.0
H1679 H 0.84577 0.28667 0.02439 0.0
H1680 H 0.78895 0.27631 0.97667 0.0
H1681 H 0.79779 0.23622 0.05402 0.0
H1682 H 0.79973 0.23352 0.09896 0.0
H1683 H 0.74015 0.25873 0.10478 0.0
H1684 H 0.73795 0.26189 0.05986 0.0
H1685 H 0.73551 0.1756 0.93521 0.0
H1686 H 0.75865 0.20136 0.95697 0.0
H1687 H 0.7106 0.23692 0.99376 0.0
H1688 H 0.68709 0.2109 0.97209 0.0
H1689 H 0.74174 0.22711 0.02491 0.0
H1690 H 0.73254 0.26454 0.94679 0.0
H1691 H 0.73075 0.26543 0.90178 0.0
H1692 H 0.7914 0.24412 0.89732 0.0
H1693 H 0.79346 0.24269 0.94233 0.0
C1694 C 0.80628 0.31015 0.05462 0.0
C1695 C 0.82612 0.30653 0.04833 0.0
C1696 C 0.79134 0.29715 0.04286 0.0
C1697 C 0.79592 0.28005 0.02471 0.0
C1698 C 0.8157 0.27682 0.018 0.0
C1699 C 0.83065 0.28989 0.0297 0.0
C1700 C 0.78017 0.26535 0.01285 0.0
C1701 C 0.77877 0.26538 0.98724 0.0
C1702 C 0.76651 0.2515 0.02659 0.0
C1703 C 0.76778 0.24955 0.05359 0.0
C1704 C 0.78516 0.24137 0.06489 0.0
C1705 C 0.7863 0.23973 0.09036 0.0
C1706 C 0.7701 0.24602 0.10472 0.0
C1707 C 0.7527 0.25391 0.09363 0.0
C1708 C 0.75149 0.25561 0.06817 0.0
C1709 C 0.72973 0.18877 0.94799 0.0
C1710 C 0.70931 0.19118 0.95173 0.0
C1711 C 0.74306 0.2036 0.96037 0.0
C1712 C 0.73638 0.22135 0.97672 0.0
C1713 C 0.71608 0.22341 0.98113 0.0
C1714 C 0.70266 0.20853 0.96869 0.0
C1715 C 0.75071 0.23789 0.98878 0.0
C1716 C 0.75183 0.23821 0.01439 0.0
C1717 C 0.76417 0.25199 0.97504 0.0
C1718 C 0.76311 0.25333 0.94795 0.0
C1719 C 0.74547 0.2599 0.93622 0.0
C1720 C 0.7444 0.26051 0.9107 0.0
C1721 C 0.76094 0.25479 0.8967 0.0
C1722 C 0.7786 0.24853 0.90819 0.0
C1723 C 0.77972 0.24784 0.93371 0.0
H1724 H 0.76008 0.25524 0.87694 0.0
H1725 H 0.77101 0.24473 0.12443 0.0
H1726 H 0.21399 0.68179 0.56811 0.0
H1727 H 0.23985 0.70511 0.54784 0.0
H1728 H 0.19586 0.74562 0.50823 0.0
H1729 H 0.1699 0.72203 0.52814 0.0
H1730 H 0.22511 0.73299 0.47853 0.0
H1731 H 0.22054 0.7698 0.55796 0.0
H1732 H 0.22042 0.77045 0.60304 0.0
H1733 H 0.27931 0.74229 0.60421 0.0
H1734 H 0.27968 0.74117 0.55911 0.0
H1735 H 0.28091 0.83167 0.4373 0.0
H1736 H 0.25756 0.80681 0.45978 0.0
H1737 H 0.3054 0.76727 0.49287 0.0
H1738 H 0.32913 0.7924 0.47048 0.0
H1739 H 0.2758 0.7775 0.52594 0.0
H1740 H 0.28081 0.74276 0.44615 0.0
H1741 H 0.28105 0.74359 0.40108 0.0
H1742 H 0.22117 0.76839 0.40056 0.0
H1743 H 0.22069 0.76814 0.44566 0.0
C1744 C 0.2098 0.69568 0.5551 0.0
C1745 C 0.18985 0.7001 0.54981 0.0
C1746 C 0.22463 0.70909 0.54359 0.0
C1747 C 0.21985 0.72737 0.52669 0.0
C1748 C 0.19994 0.73164 0.5212 0.0
C1749 C 0.1851 0.71819 0.53267 0.0
C1750 C 0.23557 0.74194 0.51459 0.0
C1751 C 0.23604 0.74292 0.48893 0.0
C1752 C 0.25023 0.75442 0.52807 0.0
C1753 C 0.25006 0.75516 0.55517 0.0
C1754 C 0.23341 0.76357 0.56784 0.0
C1755 C 0.2333 0.76406 0.59339 0.0
C1756 C 0.24982 0.75635 0.60648 0.0
C1757 C 0.26651 0.74821 0.59404 0.0
C1758 C 0.26668 0.74767 0.56849 0.0
C1759 C 0.28661 0.81782 0.44943 0.0
C1760 C 0.30701 0.81401 0.45188 0.0
C1761 C 0.27316 0.80352 0.46223 0.0
C1762 C 0.27969 0.78489 0.47771 0.0
C1763 C 0.30001 0.78148 0.48093 0.0
C1764 C 0.31356 0.79585 0.46808 0.0
C1765 C 0.26514 0.76875 0.48996 0.0
C1766 C 0.26492 0.76743 0.51558 0.0
C1767 C 0.25068 0.75598 0.47646 0.0
C1768 C 0.25077 0.75562 0.44931 0.0
C1769 C 0.26773 0.74853 0.43643 0.0
C1770 C 0.26791 0.74889 0.41088 0.0
C1771 C 0.25115 0.75608 0.39797 0.0
C1772 C 0.23415 0.76284 0.41059 0.0
C1773 C 0.23391 0.76258 0.43615 0.0
H1774 H 0.25132 0.75638 0.37818 0.0
H1775 H 0.24971 0.75674 0.62626 0.0
H1776 H 0.19559 0.58747 0.95369 0.0
H1777 H 0.19242 0.54786 0.97287 0.0
H1778 H 0.13168 0.56287 0.98973 0.0
H1779 H 0.13476 0.60301 0.9706 0.0
H1780 H 0.15087 0.5371 0.027 0.0
H1781 H 0.14092 0.53033 0.9412 0.0
H1782 H 0.14834 0.53756 0.89771 0.0
H1783 H 0.20296 0.49917 0.90529 0.0
H1784 H 0.19603 0.49207 0.94898 0.0
H1785 H 0.13457 0.40891 0.04415 0.0
H1786 H 0.13078 0.44862 0.02427 0.0
H1787 H 0.19366 0.45334 0.01524 0.0
H1788 H 0.19759 0.41414 0.03575 0.0
H1789 H 0.16823 0.4684 0.97249 0.0
H1790 H 0.17942 0.48054 0.05952 0.0
H1791 H 0.17177 0.47321 0.10294 0.0
H1792 H 0.11339 0.50101 0.09211 0.0
H1793 H 0.12062 0.5081 0.04844 0.0
C1794 C 0.1816 0.58259 0.96176 0.0
C1795 C 0.16535 0.59834 0.96033 0.0
C1796 C 0.17981 0.55987 0.97268 0.0
C1797 C 0.1617 0.5522 0.98221 0.0
C1798 C 0.14575 0.5684 0.98231 0.0
C1799 C 0.14756 0.59133 0.97143 0.0
C1800 C 0.15941 0.52673 0.99055 0.0
C1801 C 0.15428 0.52207 0.01495 0.0
C1802 C 0.16395 0.50708 0.97485 0.0
C1803 C 0.16801 0.51081 0.94843 0.0
C1804 C 0.15457 0.52355 0.93364 0.0
C1805 C 0.15869 0.52763 0.90895 0.0
C1806 C 0.17613 0.51887 0.89875 0.0
C1807 C 0.18946 0.50595 0.91322 0.0
C1808 C 0.18543 0.50187 0.93795 0.0
C1809 C 0.14752 0.41822 0.03746 0.0
C1810 C 0.16638 0.40851 0.04146 0.0
C1811 C 0.14534 0.44089 0.02623 0.0
C1812 C 0.16196 0.45385 0.0184 0.0
C1813 C 0.18068 0.44355 0.02114 0.0
C1814 C 0.1829 0.42122 0.03287 0.0
C1815 C 0.16011 0.47891 0.00896 0.0
C1816 C 0.16448 0.48344 0.98436 0.0
C1817 C 0.15473 0.49838 0.02439 0.0
C1818 C 0.15047 0.49455 0.05068 0.0
C1819 C 0.16489 0.48487 0.06634 0.0
C1820 C 0.16065 0.48079 0.091 0.0
C1821 C 0.14208 0.48655 0.10026 0.0
C1822 C 0.12775 0.4965 0.08489 0.0
C1823 C 0.13191 0.50056 0.06019 0.0
H1824 H 0.13881 0.48337 0.11936 0.0
H1825 H 0.17931 0.52207 0.87963 0.0
H1826 H 0.81573 0.58393 0.56091 0.0
H1827 H 0.81842 0.54377 0.54281 0.0
H1828 H 0.87784 0.55949 0.52023 0.0
H1829 H 0.87516 0.60015 0.53801 0.0
H1830 H 0.85833 0.53401 0.48551 0.0
H1831 H 0.86964 0.5262 0.57098 0.0
H1832 H 0.86269 0.53282 0.61469 0.0
H1833 H 0.80853 0.49336 0.60788 0.0
H1834 H 0.81495 0.48691 0.56399 0.0
H1835 H 0.87469 0.40735 0.46348 0.0
H1836 H 0.8789 0.44589 0.48538 0.0
H1837 H 0.81629 0.44973 0.49718 0.0
H1838 H 0.81193 0.41171 0.47476 0.0
H1839 H 0.8424 0.46417 0.53935 0.0
H1840 H 0.82825 0.48061 0.45345 0.0
H1841 H 0.83383 0.47539 0.40932 0.0
H1842 H 0.89392 0.49795 0.41798 0.0
H1843 H 0.88858 0.50339 0.46232 0.0
C1844 C 0.82934 0.57902 0.55188 0.0
C1845 C 0.8453 0.59523 0.55113 0.0
C1846 C 0.83088 0.55596 0.54164 0.0
C1847 C 0.84851 0.54837 0.53073 0.0
C1848 C 0.86416 0.56489 0.52876 0.0
C1849 C 0.86258 0.58815 0.53888 0.0
C1850 C 0.85057 0.52297 0.52205 0.0
C1851 C 0.85528 0.51876 0.49746 0.0
C1852 C 0.8464 0.50298 0.53755 0.0
C1853 C 0.84273 0.5062 0.56412 0.0
C1854 C 0.8562 0.51902 0.57876 0.0
C1855 C 0.85235 0.52276 0.60357 0.0
C1856 C 0.83517 0.51355 0.61404 0.0
C1857 C 0.82183 0.5005 0.59974 0.0
C1858 C 0.82557 0.49678 0.57489 0.0
C1859 C 0.86191 0.41611 0.47131 0.0
C1860 C 0.84299 0.40657 0.46747 0.0
C1861 C 0.86432 0.43814 0.48369 0.0
C1862 C 0.84789 0.45061 0.49283 0.0
C1863 C 0.82914 0.44031 0.49035 0.0
C1864 C 0.82668 0.41864 0.47753 0.0
C1865 C 0.84985 0.47544 0.50286 0.0
C1866 C 0.84587 0.47948 0.52766 0.0
C1867 C 0.85478 0.49527 0.48767 0.0
C1868 C 0.85809 0.49212 0.46114 0.0
C1869 C 0.84268 0.48427 0.44595 0.0
C1870 C 0.8458 0.48131 0.4209 0.0
C1871 C 0.86428 0.48615 0.41083 0.0
C1872 C 0.87964 0.49413 0.42581 0.0
C1873 C 0.87656 0.49723 0.45089 0.0
H1874 H 0.86667 0.48381 0.39141 0.0
H1875 H 0.8322 0.5165 0.63325 0.0
H1876 H 0.89412 0.42916 0.06371 0.0
H1877 H 0.88873 0.46505 0.03863 0.0
H1878 H 0.83627 0.43268 0.00846 0.0
H1879 H 0.84212 0.396 0.0331 0.0
H1880 H 0.85434 0.4577 0.97436 0.0
H1881 H 0.83325 0.47475 0.05445 0.0
H1882 H 0.83511 0.47583 0.09944 0.0
H1883 H 0.88436 0.5244 0.09552 0.0
H1884 H 0.88306 0.52323 0.05048 0.0
H1885 H 0.84035 0.60005 0.96617 0.0
H1886 H 0.83611 0.56226 0.98946 0.0
H1887 H 0.88177 0.52859 0.94651 0.0
H1888 H 0.88547 0.56559 0.92282 0.0
H1889 H 0.85779 0.53645 0.01802 0.0
H1890 H 0.87441 0.47053 0.93676 0.0
H1891 H 0.8689 0.46908 0.89222 0.0
H1892 H 0.82032 0.51832 0.89931 0.0
H1893 H 0.82531 0.51976 0.94393 0.0
C1894 C 0.88157 0.42954 0.05149 0.0
C1895 C 0.86844 0.40992 0.05047 0.0
C1896 C 0.87842 0.45015 0.03729 0.0
C1897 C 0.86175 0.45192 0.02224 0.0
C1898 C 0.84912 0.43182 0.02015 0.0
C1899 C 0.8525 0.41087 0.03413 0.0
C1900 C 0.85754 0.4751 0.00933 0.0
C1901 C 0.85497 0.4749 0.9839 0.0
C1902 C 0.8575 0.49757 0.0219 0.0
C1903 C 0.8581 0.49881 0.04904 0.0
C1904 C 0.84453 0.48558 0.06317 0.0
C1905 C 0.8455 0.4862 0.08869 0.0
C1906 C 0.85985 0.50017 0.10033 0.0
C1907 C 0.87324 0.51359 0.08647 0.0
C1908 C 0.87239 0.51298 0.06094 0.0
C1909 C 0.84945 0.58454 0.96178 0.0
C1910 C 0.86305 0.58568 0.94247 0.0
C1911 C 0.84701 0.56296 0.97505 0.0
C1912 C 0.85825 0.54231 0.96932 0.0
C1913 C 0.87241 0.54391 0.95075 0.0
C1914 C 0.87461 0.56519 0.93731 0.0
C1915 C 0.85569 0.5191 0.98286 0.0
C1916 C 0.85688 0.51927 0.00847 0.0
C1917 C 0.85373 0.49661 0.97052 0.0
C1918 C 0.85032 0.49535 0.94372 0.0
C1919 C 0.86245 0.4809 0.92885 0.0
C1920 C 0.85944 0.48011 0.90358 0.0
C1921 C 0.84429 0.49364 0.89294 0.0
C1922 C 0.83208 0.5079 0.90756 0.0
C1923 C 0.835 0.50871 0.93285 0.0
H1924 H 0.84202 0.49304 0.87336 0.0
H1925 H 0.86058 0.5006 0.12009 0.0
H1926 H 0.11175 0.42971 0.43673 0.0
H1927 H 0.11705 0.4676 0.45869 0.0
H1928 H 0.17491 0.44336 0.48009 0.0
H1929 H 0.16935 0.40479 0.45853 0.0
H1930 H 0.15704 0.47104 0.5161 0.0
H1931 H 0.17075 0.47827 0.43096 0.0
H1932 H 0.1641 0.47301 0.38698 0.0
H1933 H 0.11303 0.51843 0.39284 0.0
H1934 H 0.1192 0.52368 0.43697 0.0
H1935 H 0.18216 0.59097 0.54625 0.0
H1936 H 0.18462 0.55406 0.52148 0.0
H1937 H 0.12412 0.56273 0.49921 0.0
H1938 H 0.12169 0.5996 0.52404 0.0
H1939 H 0.1485 0.54288 0.46224 0.0
H1940 H 0.13363 0.53165 0.54851 0.0
H1941 H 0.14095 0.53744 0.59229 0.0
H1942 H 0.19571 0.4996 0.58373 0.0
H1943 H 0.1889 0.49405 0.53974 0.0
C1944 C 0.12541 0.43221 0.44664 0.0
C1945 C 0.14021 0.41449 0.44584 0.0
C1946 C 0.12847 0.4539 0.45906 0.0
C1947 C 0.14659 0.45856 0.47041 0.0
C1948 C 0.16089 0.44016 0.47126 0.0
C1949 C 0.15769 0.41815 0.45906 0.0
C1950 C 0.15088 0.48334 0.4795 0.0
C1951 C 0.15555 0.48671 0.50424 0.0
C1952 C 0.14888 0.50383 0.46401 0.0
C1953 C 0.14539 0.50126 0.43732 0.0
C1954 C 0.15805 0.48706 0.4229 0.0
C1955 C 0.15436 0.48406 0.39794 0.0
C1956 C 0.13813 0.49533 0.38713 0.0
C1957 C 0.12559 0.5097 0.40124 0.0
C1958 C 0.1292 0.51273 0.42623 0.0
C1959 C 0.16971 0.58551 0.53518 0.0
C1960 C 0.15182 0.59811 0.53665 0.0
C1961 C 0.17106 0.56437 0.52123 0.0
C1962 C 0.15447 0.55552 0.50882 0.0
C1963 C 0.1371 0.56931 0.50861 0.0
C1964 C 0.13573 0.59039 0.52265 0.0
C1965 C 0.15426 0.53056 0.49888 0.0
C1966 C 0.15032 0.52717 0.47398 0.0
C1967 C 0.1571 0.5101 0.51419 0.0
C1968 C 0.16085 0.51264 0.54079 0.0
C1969 C 0.14728 0.52467 0.55593 0.0
C1970 C 0.15134 0.52792 0.58078 0.0
C1971 C 0.1688 0.51892 0.59077 0.0
C1972 C 0.18221 0.50658 0.57595 0.0
C1973 C 0.17826 0.50339 0.55106 0.0
H1974 H 0.17192 0.52146 0.61001 0.0
H1975 H 0.13528 0.49295 0.36781 0.0
H1976 H 0.63828 0.09356 0.95821 0.0
H1977 H 0.63615 0.05354 0.97723 0.0
H1978 H 0.69877 0.04413 0.96804 0.0
H1979 H 0.70072 0.08354 0.94778 0.0
H1980 H 0.68256 0.00485 0.9561 0.0
H1981 H 0.67466 0.05685 0.0258 0.0
H1982 H 0.65991 0.08978 0.05014 0.0
H1983 H 0.60401 0.05357 0.04843 0.0
H1984 H 0.61839 0.02054 0.02384 0.0
H1985 H 0.69834 0.91243 0.04556 0.0
H1986 H 0.69695 0.9506 0.02285 0.0
H1987 H 0.63415 0.94293 0.01507 0.0
H1988 H 0.63543 0.90435 0.03747 0.0
H1989 H 0.64808 0.98942 0.03446 0.0
H1990 H 0.65851 0.9355 0.96675 0.0
H1991 H 0.67524 0.90255 0.94456 0.0
H1992 H 0.72916 0.94307 0.9453 0.0
H1993 H 0.71282 0.97613 0.96782 0.0
C1994 C 0.65162 0.08306 0.96052 0.0
C1995 C 0.66969 0.09174 0.95161 0.0
C1996 C 0.65041 0.06016 0.97148 0.0
C1997 C 0.66734 0.04578 0.97444 0.0
C1998 C 0.68546 0.05473 0.96594 0.0
C1999 C 0.68659 0.07734 0.95447 0.0
C2000 C 0.6662 0.02112 0.98562 0.0
C2001 C 0.67521 1.00164 0.9734 0.0
C2002 C 0.65621 0.01658 0.00792 0.0
C2003 C 0.64755 0.03636 0.02277 0.0
C2004 C 0.65919 0.056 0.03048 0.0
C2005 C 0.65091 0.07466 0.04434 0.0
C2006 C 0.63103 0.0738 0.05077 0.0
C2007 C 0.6194 0.05423 0.04341 0.0
C2008 C 0.62761 0.03552 0.02953 0.0
C2009 C 0.68425 0.91867 0.03873 0.0
C2010 C 0.66699 0.90534 0.04325 0.0
C2011 C 0.6835 0.94048 0.02576 0.0
C2012 C 0.66545 0.94957 0.01733 0.0
C2013 C 0.64821 0.93618 0.02145 0.0
C2014 C 0.649 0.91408 0.03407 0.0
C2015 C 0.66467 0.97355 0.00508 0.0
C2016 C 0.65531 0.99279 0.01711 0.0
C2017 C 0.67464 0.97799 0.98287 0.0
C2018 C 0.68447 0.9582 0.96917 0.0
C2019 C 0.67397 0.9373 0.96236 0.0
C2020 C 0.68338 0.91862 0.94969 0.0
C2021 C 0.70326 0.92069 0.94357 0.0
C2022 C 0.71376 0.94148 0.95006 0.0
C2023 C 0.70443 0.96021 0.96276 0.0
H2024 H 0.71052 0.9062 0.93376 0.0
H2025 H 0.62464 0.08827 0.06149 0.0
H2026 H 0.32557 0.93122 0.42432 0.0
H2027 H 0.32896 0.97086 0.4433 0.0
H2028 H 0.37278 0.94235 0.4926 0.0
H2029 H 0.36948 0.90228 0.47369 0.0
H2030 H 0.34575 0.97083 0.51603 0.0
H2031 H 0.38732 0.97716 0.44642 0.0
H2032 H 0.39612 0.97326 0.40289 0.0
H2033 H 0.3509 0.02418 0.38361 0.0
H2034 H 0.34161 0.02811 0.42701 0.0
H2035 H 0.37284 0.10696 0.52663 0.0
H2036 H 0.37796 0.06813 0.5056 0.0
H2037 H 0.3175 0.04873 0.51909 0.0
H2038 H 0.31223 0.08709 0.53994 0.0
H2039 H 0.35999 0.04387 0.46595 0.0
H2040 H 0.31638 0.99076 0.53957 0.0
H2041 H 0.30844 0.99377 0.58344 0.0
H2042 H 0.36079 0.03563 0.59558 0.0
H2043 H 0.3692 0.03255 0.55186 0.0
C2044 C 0.3359 0.9332 0.43927 0.0
C2045 C 0.34727 0.91343 0.44743 0.0
C2046 C 0.33791 0.956 0.44998 0.0
C2047 C 0.35134 0.95966 0.46909 0.0
C2048 C 0.36241 0.93993 0.47775 0.0
C2049 C 0.36049 0.91704 0.46692 0.0
C2050 C 0.35336 0.98405 0.48025 0.0
C2051 C 0.34901 0.98677 0.50513 0.0
C2052 C 0.35796 0.00481 0.46608 0.0
C2053 C 0.3637 0.00282 0.43998 0.0
C2054 C 0.37917 0.98742 0.43289 0.0
C2055 C 0.38425 0.98522 0.40824 0.0
C2056 C 0.37405 0.99844 0.39049 0.0
C2057 C 0.35879 0.01395 0.39738 0.0
C2058 C 0.35363 0.0162 0.42201 0.0
C2059 C 0.36054 0.09464 0.52464 0.0
C2060 C 0.34219 0.10006 0.53523 0.0
C2061 C 0.36351 0.07244 0.5127 0.0
C2062 C 0.34822 0.05537 0.51128 0.0
C2063 C 0.32961 0.06144 0.52041 0.0
C2064 C 0.32663 0.08347 0.53228 0.0
C2065 C 0.35166 0.03066 0.50149 0.0
C2066 C 0.35701 0.02789 0.4769 0.0
C2067 C 0.34815 0.00979 0.51597 0.0
C2068 C 0.34335 0.01154 0.54238 0.0
C2069 C 0.32625 1.0005 0.55162 0.0
C2070 C 0.32165 0.00224 0.57646 0.0
C2071 C 0.33408 0.0149 0.59228 0.0
C2072 C 0.35114 0.02587 0.5833 0.0
C2073 C 0.35582 0.02415 0.55848 0.0
H2074 H 0.33051 0.01614 0.61151 0.0
H2075 H 0.378 0.99669 0.37141 0.0
H2076 H 0.35572 0.94141 0.09386 0.0
H2077 H 0.35345 0.97796 0.06897 0.0
H2078 H 0.35993 0.9351 0.00358 0.0
H2079 H 0.36233 0.89821 0.02846 0.0
H2080 H 0.38545 0.97354 0.00516 0.0
H2081 H 0.31641 0.9607 0.01672 0.0
H2082 H 0.2861 0.9534 0.04032 0.0
H2083 H 0.2945 0.02042 0.07877 0.0
H2084 H 0.32504 0.02796 0.05564 0.0
H2085 H 0.3655 0.0613 0.91717 0.0
H2086 H 0.36212 0.02645 0.94385 0.0
H2087 H 0.35845 0.07354 0.00653 0.0
H2088 H 0.36183 0.10912 0.97966 0.0
H2089 H 0.33148 0.0341 0.00773 0.0
H2090 H 0.40037 0.04704 0.99631 0.0
H2091 H 0.4307 0.05449 0.9728 0.0
H2092 H 0.42278 0.9872 0.93465 0.0
H2093 H 0.39221 0.97953 0.95767 0.0
C2094 C 0.35647 0.93964 0.07416 0.0
C2095 C 0.35933 0.91684 0.06315 0.0
C2096 C 0.35505 0.9606 0.05996 0.0
C2097 C 0.35644 0.95926 0.03443 0.0
C2098 C 0.35879 0.93651 0.02329 0.0
C2099 C 0.36007 0.91544 0.03751 0.0
C2100 C 0.35677 0.9818 0.0196 0.0
C2101 C 0.37351 0.98659 0.00543 0.0
C2102 C 0.3415 0.99924 0.02068 0.0
C2103 C 0.32313 0.99478 0.03461 0.0
C2104 C 0.31189 0.97378 0.03036 0.0
C2105 C 0.29465 0.96962 0.04362 0.0
C2106 C 0.28841 0.9864 0.06108 0.0
C2107 C 0.29937 0.00742 0.06527 0.0
C2108 C 0.31664 0.01166 0.05206 0.0
C2109 C 0.36395 0.06448 0.93661 0.0
C2110 C 0.36425 0.08814 0.94628 0.0
C2111 C 0.36199 0.04441 0.95184 0.0
C2112 C 0.36037 0.04738 0.97718 0.0
C2113 C 0.3598 0.07091 0.98698 0.0
C2114 C 0.36177 0.09118 0.97163 0.0
C2115 C 0.36005 0.02562 0.99312 0.0
C2116 C 0.3434 0.02103 0.00753 0.0
C2117 C 0.37544 0.00834 0.99237 0.0
C2118 C 0.39389 0.01281 0.97857 0.0
C2119 C 0.405 0.03392 0.98277 0.0
C2120 C 0.42225 0.03817 0.96955 0.0
C2121 C 0.42864 0.02136 0.9522 0.0
C2122 C 0.41781 1.00023 0.94808 0.0
C2123 C 0.40052 0.9959 0.96122 0.0
H2124 H 0.442 0.02468 0.94199 0.0
H2125 H 0.27505 0.98315 0.07133 0.0
H2126 H 0.63487 0.06325 0.59296 0.0
H2127 H 0.64017 0.02704 0.56871 0.0
H2128 H 0.66183 0.07072 0.5091 0.0
H2129 H 0.65619 0.10752 0.53325 0.0
H2130 H 0.63648 0.03689 0.4933 0.0
H2131 H 0.69331 0.03706 0.54506 0.0
H2132 H 0.71113 0.03943 0.58426 0.0
H2133 H 0.68133 0.97558 0.60964 0.0
H2134 H 0.6631 0.97302 0.57071 0.0
H2135 H 0.66832 0.93956 0.42321 0.0
H2136 H 0.67057 0.9751 0.44939 0.0
H2137 H 0.6468 0.93396 0.50962 0.0
H2138 H 0.64501 0.89781 0.48343 0.0
H2139 H 0.67474 0.96683 0.52484 0.0
H2140 H 0.61668 0.96795 0.47465 0.0
H2141 H 0.59829 0.96543 0.43585 0.0
H2142 H 0.62992 0.02696 0.40813 0.0
H2143 H 0.64871 0.02962 0.44665 0.0
C2144 C 0.64084 0.06534 0.57473 0.0
C2145 C 0.64515 0.08845 0.56512 0.0
C2146 C 0.64397 0.04448 0.56092 0.0
C2147 C 0.65173 0.04608 0.53725 0.0
C2148 C 0.65593 0.06906 0.52742 0.0
C2149 C 0.65271 0.09008 0.54124 0.0
C2150 C 0.65474 0.02371 0.52263 0.0
C2151 C 0.64516 0.02177 0.5 0.0
C2152 C 0.66559 0.00366 0.5317 0.0
C2153 C 0.67673 0.00496 0.55502 0.0
C2154 C 0.69046 0.02361 0.55905 0.0
C2155 C 0.70065 0.02497 0.58122 0.0
C2156 C 0.69734 0.00769 0.59945 0.0
C2157 C 0.68387 0.98896 0.59551 0.0
C2158 C 0.67363 0.98752 0.57338 0.0
C2159 C 0.66391 0.93788 0.44216 0.0
C2160 C 0.65625 0.91596 0.45121 0.0
C2161 C 0.66515 0.95827 0.45708 0.0
C2162 C 0.65836 0.95736 0.48125 0.0
C2163 C 0.65199 0.93508 0.49093 0.0
C2164 C 0.651 0.91445 0.476 0.0
C2165 C 0.65653 0.98011 0.49556 0.0
C2166 C 0.66622 0.98206 0.51811 0.0
C2167 C 0.64572 1.00019 0.4865 0.0
C2168 C 0.63422 0.99885 0.46345 0.0
C2169 C 0.6198 0.98085 0.46022 0.0
C2170 C 0.6093 0.97941 0.43829 0.0
C2171 C 0.61297 0.99599 0.41952 0.0
C2172 C 0.62711 0.01411 0.42268 0.0
C2173 C 0.63768 0.01561 0.44456 0.0
H2174 H 0.60483 0.99484 0.40254 0.0
H2175 H 0.70523 0.00879 0.6166 0.0
loop_
_geom_bond_atom_site_label_1
_geom_bond_atom_site_label_2
_geom_bond_distance
_geom_bond_site_symmetry_2
_ccdc_geom_bond_type
Mn0 O5 2.095 . S
Mn0 O15 2.162 . S
Mn0 O16 2.297 . S
Mn0 O24 2.385 . S
Mn0 O25 2.209 . S
Mn0 O26 2.094 . S
Mn1 O6 2.121 . S
Mn1 N8 2.257 . S
Mn1 N17 2.282 . S
Mn1 O25 2.215 . S
Mn1 O27 2.117 . S
C2 O24 1.234 . S
C2 O25 1.283 . S
C3 O15 1.281 . S
C3 O16 1.236 . S
C4 O26 1.240 . S
C4 O27 1.264 . S
O5 Mn0 2.095 . S
O5 C14 1.250 . S
O6 Mn1 2.121 . S
O6 C14 1.258 . S
C7 N8 1.326 . S
C7 C11 1.460 . S
C7 H13 0.929 . S
N8 Mn1 2.257 . S
N8 C7 1.326 . S
N8 C12 1.362 . S
C9 C10 1.258 . S
C9 C12 1.431 . S
C9 C29 1.449 . S
C10 C9 1.258 . S
C10 C11 1.477 . S
C10 H30 0.931 . S
C11 C7 1.460 . S
C11 C10 1.477 . S
C11 H31 0.930 . S
C12 N8 1.362 . S
C12 C9 1.431 . S
C12 C22 1.476 . S
H13 C7 0.929 . S
C14 O5 1.250 . S
C14 O6 1.258 . S
O15 Mn0 2.162 . S
O15 C3 1.281 . S
O16 Mn0 2.297 . S
O16 C3 1.236 . S
N17 Mn1 2.282 . S
N17 C18 1.328 . S
N17 C22 1.318 . S
C18 N17 1.328 . S
C18 C19 1.457 . S
C18 H23 0.929 . S
C19 C18 1.457 . S
C19 C20 1.291 . S
C19 H32 0.931 . S
C20 C19 1.291 . S
C20 C21 1.373 . S
C20 H33 0.929 . S
C21 C20 1.373 . S
C21 C22 1.396 . S
C21 C28 1.403 . S
C22 C12 1.476 . S
C22 N17 1.318 . S
C22 C21 1.396 . S
H23 C18 0.929 . S
O24 Mn0 2.385 . S
O24 C2 1.234 . S
O25 Mn0 2.209 . S
O25 Mn1 2.215 . S
O25 C2 1.283 . S
O26 Mn0 2.094 . S
O26 C4 1.240 . S
O27 Mn1 2.117 . S
O27 C4 1.264 . S
C28 C21 1.403 . S
C28 C29 1.399 . S
C28 H34 0.929 . S
C29 C9 1.449 . S
C29 C28 1.399 . S
C29 H35 0.930 . S
H30 C10 0.931 . S
H31 C11 0.930 . S
H32 C19 0.931 . S
H33 C20 0.929 . S
H34 C28 0.929 . S
H35 C29 0.930 . S
Mn36 O41 2.095 . S
Mn36 O51 2.162 . S
Mn36 O52 2.297 . S
Mn36 O60 2.385 . S
Mn36 O61 2.209 . S
Mn36 O62 2.094 . S
Mn37 O42 2.121 . S
Mn37 N44 2.257 . S
Mn37 N53 2.282 . S
Mn37 O61 2.215 . S
Mn37 O63 2.117 . S
C38 O60 1.234 . S
C38 O61 1.283 . S
C39 O51 1.281 . S
C39 O52 1.236 . S
C40 O62 1.240 . S
C40 O63 1.264 . S
O41 Mn36 2.095 . S
O41 C50 1.250 . S
O42 Mn37 2.121 . S
O42 C50 1.258 . S
C43 N44 1.326 . S
C43 C47 1.460 . S
C43 H49 0.929 . S
N44 Mn37 2.257 . S
N44 C43 1.326 . S
N44 C48 1.362 . S
C45 C46 1.258 . S
C45 C48 1.431 . S
C45 C65 1.449 . S
C46 C45 1.258 . S
C46 C47 1.477 . S
C46 H66 0.931 . S
C47 C43 1.460 . S
C47 C46 1.477 . S
C47 H67 0.930 . S
C48 N44 1.362 . S
C48 C45 1.431 . S
C48 C58 1.476 . S
H49 C43 0.929 . S
C50 O41 1.250 . S
C50 O42 1.258 . S
O51 Mn36 2.162 . S
O51 C39 1.281 . S
O52 Mn36 2.297 . S
O52 C39 1.236 . S
N53 Mn37 2.282 . S
N53 C54 1.328 . S
N53 C58 1.318 . S
C54 N53 1.328 . S
C54 C55 1.457 . S
C54 H59 0.929 . S
C55 C54 1.457 . S
C55 C56 1.291 . S
C55 H68 0.931 . S
C56 C55 1.291 . S
C56 C57 1.373 . S
C56 H69 0.929 . S
C57 C56 1.373 . S
C57 C58 1.396 . S
C57 C64 1.403 . S
C58 C48 1.476 . S
C58 N53 1.318 . S
C58 C57 1.396 . S
H59 C54 0.929 . S
O60 Mn36 2.385 . S
O60 C38 1.234 . S
O61 Mn36 2.209 . S
O61 Mn37 2.215 . S
O61 C38 1.283 . S
O62 Mn36 2.094 . S
O62 C40 1.240 . S
O63 Mn37 2.117 . S
O63 C40 1.264 . S
C64 C57 1.403 . S
C64 C65 1.399 . S
C64 H70 0.929 . S
C65 C45 1.449 . S
C65 C64 1.399 . S
C65 H71 0.930 . S
H66 C46 0.931 . S
H67 C47 0.930 . S
H68 C55 0.931 . S
H69 C56 0.929 . S
H70 C64 0.929 . S
H71 C65 0.930 . S
Mn72 O77 2.095 . S
Mn72 O87 2.162 . S
Mn72 O88 2.297 . S
Mn72 O96 2.385 . S
Mn72 O97 2.209 . S
Mn72 O98 2.094 . S
Mn73 O78 2.121 . S
Mn73 N80 2.257 . S
Mn73 N89 2.282 . S
Mn73 O97 2.215 . S
Mn73 O99 2.117 . S
C74 O96 1.234 . S
C74 O97 1.283 . S
C75 O87 1.281 . S
C75 O88 1.236 . S
C76 O98 1.240 . S
C76 O99 1.264 . S
O77 Mn72 2.095 . S
O77 C86 1.250 . S
O78 Mn73 2.121 . S
O78 C86 1.258 . S
C79 N80 1.326 . S
C79 C83 1.460 . S
C79 H85 0.929 . S
N80 Mn73 2.257 . S
N80 C79 1.326 . S
N80 C84 1.362 . S
C81 C82 1.258 . S
C81 C84 1.431 . S
C81 C101 1.449 . S
C82 C81 1.258 . S
C82 C83 1.477 . S
C82 H102 0.931 . S
C83 C79 1.460 . S
C83 C82 1.477 . S
C83 H103 0.930 . S
C84 N80 1.362 . S
C84 C81 1.431 . S
C84 C94 1.476 . S
H85 C79 0.929 . S
C86 O77 1.250 . S
C86 O78 1.258 . S
O87 Mn72 2.162 . S
O87 C75 1.281 . S
O88 Mn72 2.297 . S
O88 C75 1.236 . S
N89 Mn73 2.282 . S
N89 C90 1.328 . S
N89 C94 1.318 . S
C90 N89 1.328 . S
C90 C91 1.457 . S
C90 H95 0.929 . S
C91 C90 1.457 . S
C91 C92 1.291 . S
C91 H104 0.931 . S
C92 C91 1.291 . S
C92 C93 1.373 . S
C92 H105 0.929 . S
C93 C92 1.373 . S
C93 C94 1.396 . S
C93 C100 1.403 . S
C94 C84 1.476 . S
C94 N89 1.318 . S
C94 C93 1.396 . S
H95 C90 0.929 . S
O96 Mn72 2.385 . S
O96 C74 1.234 . S
O97 Mn72 2.209 . S
O97 Mn73 2.215 . S
O97 C74 1.283 . S
O98 Mn72 2.094 . S
O98 C76 1.240 . S
O99 Mn73 2.117 . S
O99 C76 1.264 . S
C100 C93 1.403 . S
C100 C101 1.399 . S
C100 H106 0.929 . S
C101 C81 1.449 . S
C101 C100 1.399 . S
C101 H107 0.930 . S
H102 C82 0.931 . S
H103 C83 0.930 . S
H104 C91 0.931 . S
H105 C92 0.929 . S
H106 C100 0.929 . S
H107 C101 0.930 . S
Mn108 O113 2.095 . S
Mn108 O123 2.162 . S
Mn108 O124 2.297 . S
Mn108 O132 2.385 . S
Mn108 O133 2.209 . S
Mn108 O134 2.094 . S
Mn109 O114 2.121 . S
Mn109 N116 2.257 . S
Mn109 N125 2.282 . S
Mn109 O133 2.215 . S
Mn109 O135 2.117 . S
C110 O132 1.234 . S
C110 O133 1.283 . S
C111 O123 1.281 . S
C111 O124 1.236 . S
C112 O134 1.240 . S
C112 O135 1.264 . S
O113 Mn108 2.095 . S
O113 C122 1.250 . S
O114 Mn109 2.121 . S
O114 C122 1.258 . S
C115 N116 1.326 . S
C115 C119 1.460 . S
C115 H121 0.929 . S
N116 Mn109 2.257 . S
N116 C115 1.326 . S
N116 C120 1.362 . S
C117 C118 1.258 . S
C117 C120 1.431 . S
C117 C137 1.449 . S
C118 C117 1.258 . S
C118 C119 1.477 . S
C118 H138 0.931 . S
C119 C115 1.460 . S
C119 C118 1.477 . S
C119 H139 0.930 . S
C120 N116 1.362 . S
C120 C117 1.431 . S
C120 C130 1.476 . S
H121 C115 0.929 . S
C122 O113 1.250 . S
C122 O114 1.258 . S
O123 Mn108 2.162 . S
O123 C111 1.281 . S
O124 Mn108 2.297 . S
O124 C111 1.236 . S
N125 Mn109 2.282 . S
N125 C126 1.328 . S
N125 C130 1.318 . S
C126 N125 1.328 . S
C126 C127 1.457 . S
C126 H131 0.929 . S
C127 C126 1.457 . S
C127 C128 1.291 . S
C127 H140 0.931 . S
C128 C127 1.291 . S
C128 C129 1.373 . S
C128 H141 0.929 . S
C129 C128 1.373 . S
C129 C130 1.396 . S
C129 C136 1.403 . S
C130 C120 1.476 . S
C130 N125 1.318 . S
C130 C129 1.396 . S
H131 C126 0.929 . S
O132 Mn108 2.385 . S
O132 C110 1.234 . S
O133 Mn108 2.209 . S
O133 Mn109 2.215 . S
O133 C110 1.283 . S
O134 Mn108 2.094 . S
O134 C112 1.240 . S
O135 Mn109 2.117 . S
O135 C112 1.264 . S
C136 C129 1.403 . S
C136 C137 1.399 . S
C136 H142 0.929 . S
C137 C117 1.449 . S
C137 C136 1.399 . S
C137 H143 0.930 . S
H138 C118 0.931 . S
H139 C119 0.930 . S
H140 C127 0.931 . S
H141 C128 0.929 . S
H142 C136 0.929 . S
H143 C137 0.930 . S
Mn144 O149 2.095 . S
Mn144 O159 2.162 . S
Mn144 O160 2.297 . S
Mn144 O168 2.385 . S
Mn144 O169 2.209 . S
Mn144 O170 2.094 . S
Mn145 O150 2.121 . S
Mn145 N152 2.257 . S
Mn145 N161 2.282 . S
Mn145 O169 2.215 . S
Mn145 O171 2.117 . S
C146 O168 1.234 . S
C146 O169 1.283 . S
C147 O159 1.281 . S
C147 O160 1.236 . S
C148 O170 1.240 . S
C148 O171 1.264 . S
O149 Mn144 2.095 . S
O149 C158 1.250 . S
O150 Mn145 2.121 . S
O150 C158 1.258 . S
C151 N152 1.326 . S
C151 C155 1.460 . S
C151 H157 0.929 . S
N152 Mn145 2.257 . S
N152 C151 1.326 . S
N152 C156 1.362 . S
C153 C154 1.258 . S
C153 C156 1.431 . S
C153 C173 1.449 . S
C154 C153 1.258 . S
C154 C155 1.477 . S
C154 H174 0.931 . S
C155 C151 1.460 . S
C155 C154 1.477 . S
C155 H175 0.930 . S
C156 N152 1.362 . S
C156 C153 1.431 . S
C156 C166 1.476 . S
H157 C151 0.929 . S
C158 O149 1.250 . S
C158 O150 1.258 . S
O159 Mn144 2.162 . S
O159 C147 1.281 . S
O160 Mn144 2.297 . S
O160 C147 1.236 . S
N161 Mn145 2.282 . S
N161 C162 1.328 . S
N161 C166 1.318 . S
C162 N161 1.328 . S
C162 C163 1.457 . S
C162 H167 0.929 . S
C163 C162 1.457 . S
C163 C164 1.291 . S
C163 H176 0.931 . S
C164 C163 1.291 . S
C164 C165 1.373 . S
C164 H177 0.929 . S
C165 C164 1.373 . S
C165 C166 1.396 . S
C165 C172 1.403 . S
C166 C156 1.476 . S
C166 N161 1.318 . S
C166 C165 1.396 . S
H167 C162 0.929 . S
O168 Mn144 2.385 . S
O168 C146 1.234 . S
O169 Mn144 2.209 . S
O169 Mn145 2.215 . S
O169 C146 1.283 . S
O170 Mn144 2.094 . S
O170 C148 1.240 . S
O171 Mn145 2.117 . S
O171 C148 1.264 . S
C172 C165 1.403 . S
C172 C173 1.399 . S
C172 H178 0.929 . S
C173 C153 1.449 . S
C173 C172 1.399 . S
C173 H179 0.930 . S
H174 C154 0.931 . S
H175 C155 0.930 . S
H176 C163 0.931 . S
H177 C164 0.929 . S
H178 C172 0.929 . S
H179 C173 0.930 . S
Mn180 O185 2.095 . S
Mn180 O195 2.162 . S
Mn180 O196 2.297 . S
Mn180 O204 2.385 . S
Mn180 O205 2.209 . S
Mn180 O206 2.094 . S
Mn181 O186 2.121 . S
Mn181 N188 2.257 . S
Mn181 N197 2.282 . S
Mn181 O205 2.215 . S
Mn181 O207 2.117 . S
C182 O204 1.234 . S
C182 O205 1.283 . S
C183 O195 1.281 . S
C183 O196 1.236 . S
C184 O206 1.240 . S
C184 O207 1.264 . S
O185 Mn180 2.095 . S
O185 C194 1.250 . S
O186 Mn181 2.121 . S
O186 C194 1.258 . S
C187 N188 1.326 . S
C187 C191 1.460 . S
C187 H193 0.929 . S
N188 Mn181 2.257 . S
N188 C187 1.326 . S
N188 C192 1.362 . S
C189 C190 1.258 . S
C189 C192 1.431 . S
C189 C209 1.449 . S
C190 C189 1.258 . S
C190 C191 1.477 . S
C190 H210 0.931 . S
C191 C187 1.460 . S
C191 C190 1.477 . S
C191 H211 0.930 . S
C192 N188 1.362 . S
C192 C189 1.431 . S
C192 C202 1.476 . S
H193 C187 0.929 . S
C194 O185 1.250 . S
C194 O186 1.258 . S
O195 Mn180 2.162 . S
O195 C183 1.281 . S
O196 Mn180 2.297 . S
O196 C183 1.236 . S
N197 Mn181 2.282 . S
N197 C198 1.328 . S
N197 C202 1.318 . S
C198 N197 1.328 . S
C198 C199 1.457 . S
C198 H203 0.929 . S
C199 C198 1.457 . S
C199 C200 1.291 . S
C199 H212 0.931 . S
C200 C199 1.291 . S
C200 C201 1.373 . S
C200 H213 0.929 . S
C201 C200 1.373 . S
C201 C202 1.396 . S
C201 C208 1.403 . S
C202 C192 1.476 . S
C202 N197 1.318 . S
C202 C201 1.396 . S
H203 C198 0.929 . S
O204 Mn180 2.385 . S
O204 C182 1.234 . S
O205 Mn180 2.209 . S
O205 Mn181 2.215 . S
O205 C182 1.283 . S
O206 Mn180 2.094 . S
O206 C184 1.240 . S
O207 Mn181 2.117 . S
O207 C184 1.264 . S
C208 C201 1.403 . S
C208 C209 1.399 . S
C208 H214 0.929 . S
C209 C189 1.449 . S
C209 C208 1.399 . S
C209 H215 0.930 . S
H210 C190 0.931 . S
H211 C191 0.930 . S
H212 C199 0.931 . S
H213 C200 0.929 . S
H214 C208 0.929 . S
H215 C209 0.930 . S
Mn216 O221 2.095 . S
Mn216 O231 2.162 . S
Mn216 O232 2.297 . S
Mn216 O240 2.385 . S
Mn216 O241 2.209 . S
Mn216 O242 2.094 . S
Mn217 O222 2.121 . S
Mn217 N224 2.257 . S
Mn217 N233 2.282 . S
Mn217 O241 2.215 . S
Mn217 O243 2.117 . S
C218 O240 1.234 . S
C218 O241 1.283 . S
C219 O231 1.281 . S
C219 O232 1.236 . S
C220 O242 1.240 . S
C220 O243 1.264 . S
O221 Mn216 2.095 . S
O221 C230 1.250 . S
O222 Mn217 2.121 . S
O222 C230 1.258 . S
C223 N224 1.326 . S
C223 C227 1.460 . S
C223 H229 0.929 . S
N224 Mn217 2.257 . S
N224 C223 1.326 . S
N224 C228 1.362 . S
C225 C226 1.258 . S
C225 C228 1.431 . S
C225 C245 1.449 . S
C226 C225 1.258 . S
C226 C227 1.477 . S
C226 H246 0.931 . S
C227 C223 1.460 . S
C227 C226 1.477 . S
C227 H247 0.930 . S
C228 N224 1.362 . S
C228 C225 1.431 . S
C228 C238 1.476 . S
H229 C223 0.929 . S
C230 O221 1.250 . S
C230 O222 1.258 . S
O231 Mn216 2.162 . S
O231 C219 1.281 . S
O232 Mn216 2.297 . S
O232 C219 1.236 . S
N233 Mn217 2.282 . S
N233 C234 1.328 . S
N233 C238 1.318 . S
C234 N233 1.328 . S
C234 C235 1.457 . S
C234 H239 0.929 . S
C235 C234 1.457 . S
C235 C236 1.291 . S
C235 H248 0.931 . S
C236 C235 1.291 . S
C236 C237 1.373 . S
C236 H249 0.929 . S
C237 C236 1.373 . S
C237 C238 1.396 . S
C237 C244 1.403 . S
C238 C228 1.476 . S
C238 N233 1.318 . S
C238 C237 1.396 . S
H239 C234 0.929 . S
O240 Mn216 2.385 . S
O240 C218 1.234 . S
O241 Mn216 2.209 . S
O241 Mn217 2.215 . S
O241 C218 1.283 . S
O242 Mn216 2.094 . S
O242 C220 1.240 . S
O243 Mn217 2.117 . S
O243 C220 1.264 . S
C244 C237 1.403 . S
C244 C245 1.399 . S
C244 H250 0.929 . S
C245 C225 1.449 . S
C245 C244 1.399 . S
C245 H251 0.930 . S
H246 C226 0.931 . S
H247 C227 0.930 . S
H248 C235 0.931 . S
H249 C236 0.929 . S
H250 C244 0.929 . S
H251 C245 0.930 . S
Mn252 O257 2.095 . S
Mn252 O267 2.162 . S
Mn252 O268 2.297 . S
Mn252 O276 2.385 . S
Mn252 O277 2.209 . S
Mn252 O278 2.094 . S
Mn253 O258 2.121 . S
Mn253 N260 2.257 . S
Mn253 N269 2.282 . S
Mn253 O277 2.215 . S
Mn253 O279 2.117 . S
C254 O276 1.234 . S
C254 O277 1.283 . S
C255 O267 1.281 . S
C255 O268 1.236 . S
C256 O278 1.240 . S
C256 O279 1.264 . S
O257 Mn252 2.095 . S
O257 C266 1.250 . S
O258 Mn253 2.121 . S
O258 C266 1.258 . S
C259 N260 1.326 . S
C259 C263 1.460 . S
C259 H265 0.929 . S
N260 Mn253 2.257 . S
N260 C259 1.326 . S
N260 C264 1.362 . S
C261 C262 1.258 . S
C261 C264 1.431 . S
C261 C281 1.449 . S
C262 C261 1.258 . S
C262 C263 1.477 . S
C262 H282 0.931 . S
C263 C259 1.460 . S
C263 C262 1.477 . S
C263 H283 0.930 . S
C264 N260 1.362 . S
C264 C261 1.431 . S
C264 C274 1.476 . S
H265 C259 0.929 . S
C266 O257 1.250 . S
C266 O258 1.258 . S
O267 Mn252 2.162 . S
O267 C255 1.281 . S
O268 Mn252 2.297 . S
O268 C255 1.236 . S
N269 Mn253 2.282 . S
N269 C270 1.328 . S
N269 C274 1.318 . S
C270 N269 1.328 . S
C270 C271 1.457 . S
C270 H275 0.929 . S
C271 C270 1.457 . S
C271 C272 1.291 . S
C271 H284 0.931 . S
C272 C271 1.291 . S
C272 C273 1.373 . S
C272 H285 0.929 . S
C273 C272 1.373 . S
C273 C274 1.396 . S
C273 C280 1.403 . S
C274 C264 1.476 . S
C274 N269 1.318 . S
C274 C273 1.396 . S
H275 C270 0.929 . S
O276 Mn252 2.385 . S
O276 C254 1.234 . S
O277 Mn252 2.209 . S
O277 Mn253 2.215 . S
O277 C254 1.283 . S
O278 Mn252 2.094 . S
O278 C256 1.240 . S
O279 Mn253 2.117 . S
O279 C256 1.264 . S
C280 C273 1.403 . S
C280 C281 1.399 . S
C280 H286 0.929 . S
C281 C261 1.449 . S
C281 C280 1.399 . S
C281 H287 0.930 . S
H282 C262 0.931 . S
H283 C263 0.930 . S
H284 C271 0.931 . S
H285 C272 0.929 . S
H286 C280 0.929 . S
H287 C281 0.930 . S
Mn288 O293 2.095 . S
Mn288 O303 2.162 . S
Mn288 O304 2.297 . S
Mn288 O312 2.385 . S
Mn288 O313 2.209 . S
Mn288 O314 2.094 . S
Mn289 O294 2.121 . S
Mn289 N296 2.257 . S
Mn289 N305 2.282 . S
Mn289 O313 2.215 . S
Mn289 O315 2.117 . S
C290 O312 1.234 . S
C290 O313 1.283 . S
C291 O303 1.281 . S
C291 O304 1.236 . S
C292 O314 1.240 . S
C292 O315 1.264 . S
O293 Mn288 2.095 . S
O293 C302 1.250 . S
O294 Mn289 2.121 . S
O294 C302 1.258 . S
C295 N296 1.326 . S
C295 C299 1.460 . S
C295 H301 0.929 . S
N296 Mn289 2.257 . S
N296 C295 1.326 . S
N296 C300 1.362 . S
C297 C298 1.258 . S
C297 C300 1.431 . S
C297 C317 1.449 . S
C298 C297 1.258 . S
C298 C299 1.477 . S
C298 H318 0.931 . S
C299 C295 1.460 . S
C299 C298 1.477 . S
C299 H319 0.930 . S
C300 N296 1.362 . S
C300 C297 1.431 . S
C300 C310 1.476 . S
H301 C295 0.929 . S
C302 O293 1.250 . S
C302 O294 1.258 . S
O303 Mn288 2.162 . S
O303 C291 1.281 . S
O304 Mn288 2.297 . S
O304 C291 1.236 . S
N305 Mn289 2.282 . S
N305 C306 1.328 . S
N305 C310 1.318 . S
C306 N305 1.328 . S
C306 C307 1.457 . S
C306 H311 0.929 . S
C307 C306 1.457 . S
C307 C308 1.291 . S
C307 H320 0.931 . S
C308 C307 1.291 . S
C308 C309 1.373 . S
C308 H321 0.929 . S
C309 C308 1.373 . S
C309 C310 1.396 . S
C309 C316 1.403 . S
C310 C300 1.476 . S
C310 N305 1.318 . S
C310 C309 1.396 . S
H311 C306 0.929 . S
O312 Mn288 2.385 . S
O312 C290 1.234 . S
O313 Mn288 2.209 . S
O313 Mn289 2.215 . S
O313 C290 1.283 . S
O314 Mn288 2.094 . S
O314 C292 1.240 . S
O315 Mn289 2.117 . S
O315 C292 1.264 . S
C316 C309 1.403 . S
C316 C317 1.399 . S
C316 H322 0.929 . S
C317 C297 1.449 . S
C317 C316 1.399 . S
C317 H323 0.930 . S
H318 C298 0.931 . S
H319 C299 0.930 . S
H320 C307 0.931 . S
H321 C308 0.929 . S
H322 C316 0.929 . S
H323 C317 0.930 . S
Mn324 O329 2.095 . S
Mn324 O339 2.162 . S
Mn324 O340 2.297 . S
Mn324 O348 2.385 . S
Mn324 O349 2.209 . S
Mn324 O350 2.094 . S
Mn325 O330 2.121 . S
Mn325 N332 2.257 . S
Mn325 N341 2.282 . S
Mn325 O349 2.215 . S
Mn325 O351 2.117 . S
C326 O348 1.234 . S
C326 O349 1.283 . S
C327 O339 1.281 . S
C327 O340 1.236 . S
C328 O350 1.240 . S
C328 O351 1.264 . S
O329 Mn324 2.095 . S
O329 C338 1.250 . S
O330 Mn325 2.121 . S
O330 C338 1.258 . S
C331 N332 1.326 . S
C331 C335 1.460 . S
C331 H337 0.929 . S
N332 Mn325 2.257 . S
N332 C331 1.326 . S
N332 C336 1.362 . S
C333 C334 1.258 . S
C333 C336 1.431 . S
C333 C353 1.449 . S
C334 C333 1.258 . S
C334 C335 1.477 . S
C334 H354 0.931 . S
C335 C331 1.460 . S
C335 C334 1.477 . S
C335 H355 0.930 . S
C336 N332 1.362 . S
C336 C333 1.431 . S
C336 C346 1.476 . S
H337 C331 0.929 . S
C338 O329 1.250 . S
C338 O330 1.258 . S
O339 Mn324 2.162 . S
O339 C327 1.281 . S
O340 Mn324 2.297 . S
O340 C327 1.236 . S
N341 Mn325 2.282 . S
N341 C342 1.328 . S
N341 C346 1.318 . S
C342 N341 1.328 . S
C342 C343 1.457 . S
C342 H347 0.929 . S
C343 C342 1.457 . S
C343 C344 1.291 . S
C343 H356 0.931 . S
C344 C343 1.291 . S
C344 C345 1.373 . S
C344 H357 0.929 . S
C345 C344 1.373 . S
C345 C346 1.396 . S
C345 C352 1.403 . S
C346 C336 1.476 . S
C346 N341 1.318 . S
C346 C345 1.396 . S
H347 C342 0.929 . S
O348 Mn324 2.385 . S
O348 C326 1.234 . S
O349 Mn324 2.209 . S
O349 Mn325 2.215 . S
O349 C326 1.283 . S
O350 Mn324 2.094 . S
O350 C328 1.240 . S
O351 Mn325 2.117 . S
O351 C328 1.264 . S
C352 C345 1.403 . S
C352 C353 1.399 . S
C352 H358 0.929 . S
C353 C333 1.449 . S
C353 C352 1.399 . S
C353 H359 0.930 . S
H354 C334 0.931 . S
H355 C335 0.930 . S
H356 C343 0.931 . S
H357 C344 0.929 . S
H358 C352 0.929 . S
H359 C353 0.930 . S
Mn360 O365 2.095 . S
Mn360 O375 2.162 . S
Mn360 O376 2.297 . S
Mn360 O384 2.385 . S
Mn360 O385 2.209 . S
Mn360 O386 2.094 . S
Mn361 O366 2.121 . S
Mn361 N368 2.257 . S
Mn361 N377 2.282 . S
Mn361 O385 2.215 . S
Mn361 O387 2.117 . S
C362 O384 1.234 . S
C362 O385 1.283 . S
C363 O375 1.281 . S
C363 O376 1.236 . S
C364 O386 1.240 . S
C364 O387 1.264 . S
O365 Mn360 2.095 . S
O365 C374 1.250 . S
O366 Mn361 2.121 . S
O366 C374 1.258 . S
C367 N368 1.326 . S
C367 C371 1.460 . S
C367 H373 0.929 . S
N368 Mn361 2.257 . S
N368 C367 1.326 . S
N368 C372 1.362 . S
C369 C370 1.258 . S
C369 C372 1.431 . S
C369 C389 1.449 . S
C370 C369 1.258 . S
C370 C371 1.477 . S
C370 H390 0.931 . S
C371 C367 1.460 . S
C371 C370 1.477 . S
C371 H391 0.930 . S
C372 N368 1.362 . S
C372 C369 1.431 . S
C372 C382 1.476 . S
H373 C367 0.929 . S
C374 O365 1.250 . S
C374 O366 1.258 . S
O375 Mn360 2.162 . S
O375 C363 1.281 . S
O376 Mn360 2.297 . S
O376 C363 1.236 . S
N377 Mn361 2.282 . S
N377 C378 1.328 . S
N377 C382 1.318 . S
C378 N377 1.328 . S
C378 C379 1.457 . S
C378 H383 0.929 . S
C379 C378 1.457 . S
C379 C380 1.291 . S
C379 H392 0.931 . S
C380 C379 1.291 . S
C380 C381 1.373 . S
C380 H393 0.929 . S
C381 C380 1.373 . S
C381 C382 1.396 . S
C381 C388 1.403 . S
C382 C372 1.476 . S
C382 N377 1.318 . S
C382 C381 1.396 . S
H383 C378 0.929 . S
O384 Mn360 2.385 . S
O384 C362 1.234 . S
O385 Mn360 2.209 . S
O385 Mn361 2.215 . S
O385 C362 1.283 . S
O386 Mn360 2.094 . S
O386 C364 1.240 . S
O387 Mn361 2.117 . S
O387 C364 1.264 . S
C388 C381 1.403 . S
C388 C389 1.399 . S
C388 H394 0.929 . S
C389 C369 1.449 . S
C389 C388 1.399 . S
C389 H395 0.930 . S
H390 C370 0.931 . S
H391 C371 0.930 . S
H392 C379 0.931 . S
H393 C380 0.929 . S
H394 C388 0.929 . S
H395 C389 0.930 . S
Mn396 O401 2.095 . S
Mn396 O411 2.162 . S
Mn396 O412 2.297 . S
Mn396 O420 2.385 . S
Mn396 O421 2.209 . S
Mn396 O422 2.094 . S
Mn397 O402 2.121 . S
Mn397 N404 2.257 . S
Mn397 N413 2.282 . S
Mn397 O421 2.215 . S
Mn397 O423 2.117 . S
C398 O420 1.234 . S
C398 O421 1.283 . S
C399 O411 1.281 . S
C399 O412 1.236 . S
C400 O422 1.240 . S
C400 O423 1.264 . S
O401 Mn396 2.095 . S
O401 C410 1.250 . S
O402 Mn397 2.121 . S
O402 C410 1.258 . S
C403 N404 1.326 . S
C403 C407 1.460 . S
C403 H409 0.929 . S
N404 Mn397 2.257 . S
N404 C403 1.326 . S
N404 C408 1.362 . S
C405 C406 1.258 . S
C405 C408 1.431 . S
C405 C425 1.449 . S
C406 C405 1.258 . S
C406 C407 1.477 . S
C406 H426 0.931 . S
C407 C403 1.460 . S
C407 C406 1.477 . S
C407 H427 0.930 . S
C408 N404 1.362 . S
C408 C405 1.431 . S
C408 C418 1.476 . S
H409 C403 0.929 . S
C410 O401 1.250 . S
C410 O402 1.258 . S
O411 Mn396 2.162 . S
O411 C399 1.281 . S
O412 Mn396 2.297 . S
O412 C399 1.236 . S
N413 Mn397 2.282 . S
N413 C414 1.328 . S
N413 C418 1.318 . S
C414 N413 1.328 . S
C414 C415 1.457 . S
C414 H419 0.929 . S
C415 C414 1.457 . S
C415 C416 1.291 . S
C415 H428 0.931 . S
C416 C415 1.291 . S
C416 C417 1.373 . S
C416 H429 0.929 . S
C417 C416 1.373 . S
C417 C418 1.396 . S
C417 C424 1.403 . S
C418 C408 1.476 . S
C418 N413 1.318 . S
C418 C417 1.396 . S
H419 C414 0.929 . S
O420 Mn396 2.385 . S
O420 C398 1.234 . S
O421 Mn396 2.209 . S
O421 Mn397 2.215 . S
O421 C398 1.283 . S
O422 Mn396 2.094 . S
O422 C400 1.240 . S
O423 Mn397 2.117 . S
O423 C400 1.264 . S
C424 C417 1.403 . S
C424 C425 1.399 . S
C424 H430 0.929 . S
C425 C405 1.449 . S
C425 C424 1.399 . S
C425 H431 0.930 . S
H426 C406 0.931 . S
H427 C407 0.930 . S
H428 C415 0.931 . S
H429 C416 0.929 . S
H430 C424 0.929 . S
H431 C425 0.930 . S
Mn432 O437 2.095 . S
Mn432 O447 2.162 . S
Mn432 O448 2.297 . S
Mn432 O456 2.385 . S
Mn432 O457 2.209 . S
Mn432 O458 2.094 . S
Mn433 O438 2.121 . S
Mn433 N440 2.257 . S
Mn433 N449 2.282 . S
Mn433 O457 2.215 . S
Mn433 O459 2.117 . S
C434 O456 1.234 . S
C434 O457 1.283 . S
C435 O447 1.281 . S
C435 O448 1.236 . S
C436 O458 1.240 . S
C436 O459 1.264 . S
O437 Mn432 2.095 . S
O437 C446 1.250 . S
O438 Mn433 2.121 . S
O438 C446 1.258 . S
C439 N440 1.326 . S
C439 C443 1.460 . S
C439 H445 0.929 . S
N440 Mn433 2.257 . S
N440 C439 1.326 . S
N440 C444 1.362 . S
C441 C442 1.258 . S
C441 C444 1.431 . S
C441 C461 1.449 . S
C442 C441 1.258 . S
C442 C443 1.477 . S
C442 H462 0.931 . S
C443 C439 1.460 . S
C443 C442 1.477 . S
C443 H463 0.930 . S
C444 N440 1.362 . S
C444 C441 1.431 . S
C444 C454 1.476 . S
H445 C439 0.929 . S
C446 O437 1.250 . S
C446 O438 1.258 . S
O447 Mn432 2.162 . S
O447 C435 1.281 . S
O448 Mn432 2.297 . S
O448 C435 1.236 . S
N449 Mn433 2.282 . S
N449 C450 1.328 . S
N449 C454 1.318 . S
C450 N449 1.328 . S
C450 C451 1.457 . S
C450 H455 0.929 . S
C451 C450 1.457 . S
C451 C452 1.291 . S
C451 H464 0.931 . S
C452 C451 1.291 . S
C452 C453 1.373 . S
C452 H465 0.929 . S
C453 C452 1.373 . S
C453 C454 1.396 . S
C453 C460 1.403 . S
C454 C444 1.476 . S
C454 N449 1.318 . S
C454 C453 1.396 . S
H455 C450 0.929 . S
O456 Mn432 2.385 . S
O456 C434 1.234 . S
O457 Mn432 2.209 . S
O457 Mn433 2.215 . S
O457 C434 1.283 . S
O458 Mn432 2.094 . S
O458 C436 1.240 . S
O459 Mn433 2.117 . S
O459 C436 1.264 . S
C460 C453 1.403 . S
C460 C461 1.399 . S
C460 H466 0.929 . S
C461 C441 1.449 . S
C461 C460 1.399 . S
C461 H467 0.930 . S
H462 C442 0.931 . S
H463 C443 0.930 . S
H464 C451 0.931 . S
H465 C452 0.929 . S
H466 C460 0.929 . S
H467 C461 0.930 . S
Mn468 O473 2.095 . S
Mn468 O483 2.162 . S
Mn468 O484 2.297 . S
Mn468 O492 2.385 . S
Mn468 O493 2.209 . S
Mn468 O494 2.094 . S
Mn469 O474 2.121 . S
Mn469 N476 2.257 . S
Mn469 N485 2.282 . S
Mn469 O493 2.215 . S
Mn469 O495 2.117 . S
C470 O492 1.234 . S
C470 O493 1.283 . S
C471 O483 1.281 . S
C471 O484 1.236 . S
C472 O494 1.240 . S
C472 O495 1.264 . S
O473 Mn468 2.095 . S
O473 C482 1.250 . S
O474 Mn469 2.121 . S
O474 C482 1.258 . S
C475 N476 1.326 . S
C475 C479 1.460 . S
C475 H481 0.929 . S
N476 Mn469 2.257 . S
N476 C475 1.326 . S
N476 C480 1.362 . S
C477 C478 1.258 . S
C477 C480 1.431 . S
C477 C497 1.449 . S
C478 C477 1.258 . S
C478 C479 1.477 . S
C478 H498 0.931 . S
C479 C475 1.460 . S
C479 C478 1.477 . S
C479 H499 0.930 . S
C480 N476 1.362 . S
C480 C477 1.431 . S
C480 C490 1.476 . S
H481 C475 0.929 . S
C482 O473 1.250 . S
C482 O474 1.258 . S
O483 Mn468 2.162 . S
O483 C471 1.281 . S
O484 Mn468 2.297 . S
O484 C471 1.236 . S
N485 Mn469 2.282 . S
N485 C486 1.328 . S
N485 C490 1.318 . S
C486 N485 1.328 . S
C486 C487 1.457 . S
C486 H491 0.929 . S
C487 C486 1.457 . S
C487 C488 1.291 . S
C487 H500 0.931 . S
C488 C487 1.291 . S
C488 C489 1.373 . S
C488 H501 0.929 . S
C489 C488 1.373 . S
C489 C490 1.396 . S
C489 C496 1.403 . S
C490 C480 1.476 . S
C490 N485 1.318 . S
C490 C489 1.396 . S
H491 C486 0.929 . S
O492 Mn468 2.385 . S
O492 C470 1.234 . S
O493 Mn468 2.209 . S
O493 Mn469 2.215 . S
O493 C470 1.283 . S
O494 Mn468 2.094 . S
O494 C472 1.240 . S
O495 Mn469 2.117 . S
O495 C472 1.264 . S
C496 C489 1.403 . S
C496 C497 1.399 . S
C496 H502 0.929 . S
C497 C477 1.449 . S
C497 C496 1.399 . S
C497 H503 0.930 . S
H498 C478 0.931 . S
H499 C479 0.930 . S
H500 C487 0.931 . S
H501 C488 0.929 . S
H502 C496 0.929 . S
H503 C497 0.930 . S
Mn504 O509 2.095 . S
Mn504 O519 2.162 . S
Mn504 O520 2.297 . S
Mn504 O528 2.385 . S
Mn504 O529 2.209 . S
Mn504 O530 2.094 . S
Mn505 O510 2.121 . S
Mn505 N512 2.257 . S
Mn505 N521 2.282 . S
Mn505 O529 2.215 . S
Mn505 O531 2.117 . S
C506 O528 1.234 . S
C506 O529 1.283 . S
C507 O519 1.281 . S
C507 O520 1.236 . S
C508 O530 1.240 . S
C508 O531 1.264 . S
O509 Mn504 2.095 . S
O509 C518 1.250 . S
O510 Mn505 2.121 . S
O510 C518 1.258 . S
C511 N512 1.326 . S
C511 C515 1.460 . S
C511 H517 0.929 . S
N512 Mn505 2.257 . S
N512 C511 1.326 . S
N512 C516 1.362 . S
C513 C514 1.258 . S
C513 C516 1.431 . S
C513 C533 1.449 . S
C514 C513 1.258 . S
C514 C515 1.477 . S
C514 H534 0.931 . S
C515 C511 1.460 . S
C515 C514 1.477 . S
C515 H535 0.930 . S
C516 N512 1.362 . S
C516 C513 1.431 . S
C516 C526 1.476 . S
H517 C511 0.929 . S
C518 O509 1.250 . S
C518 O510 1.258 . S
O519 Mn504 2.162 . S
O519 C507 1.281 . S
O520 Mn504 2.297 . S
O520 C507 1.236 . S
N521 Mn505 2.282 . S
N521 C522 1.328 . S
N521 C526 1.318 . S
C522 N521 1.328 . S
C522 C523 1.457 . S
C522 H527 0.929 . S
C523 C522 1.457 . S
C523 C524 1.291 . S
C523 H536 0.931 . S
C524 C523 1.291 . S
C524 C525 1.373 . S
C524 H537 0.929 . S
C525 C524 1.373 . S
C525 C526 1.396 . S
C525 C532 1.403 . S
C526 C516 1.476 . S
C526 N521 1.318 . S
C526 C525 1.396 . S
H527 C522 0.929 . S
O528 Mn504 2.385 . S
O528 C506 1.234 . S
O529 Mn504 2.209 . S
O529 Mn505 2.215 . S
O529 C506 1.283 . S
O530 Mn504 2.094 . S
O530 C508 1.240 . S
O531 Mn505 2.117 . S
O531 C508 1.264 . S
C532 C525 1.403 . S
C532 C533 1.399 . S
C532 H538 0.929 . S
C533 C513 1.449 . S
C533 C532 1.399 . S
C533 H539 0.930 . S
H534 C514 0.931 . S
H535 C515 0.930 . S
H536 C523 0.931 . S
H537 C524 0.929 . S
H538 C532 0.929 . S
H539 C533 0.930 . S
Mn540 O545 2.095 . S
Mn540 O555 2.162 . S
Mn540 O556 2.297 . S
Mn540 O564 2.385 . S
Mn540 O565 2.209 . S
Mn540 O566 2.094 . S
Mn541 O546 2.121 . S
Mn541 N548 2.257 . S
Mn541 N557 2.282 . S
Mn541 O565 2.215 . S
Mn541 O567 2.117 . S
C542 O564 1.234 . S
C542 O565 1.283 . S
C543 O555 1.281 . S
C543 O556 1.236 . S
C544 O566 1.240 . S
C544 O567 1.264 . S
O545 Mn540 2.095 . S
O545 C554 1.250 . S
O546 Mn541 2.121 . S
O546 C554 1.258 . S
C547 N548 1.326 . S
C547 C551 1.460 . S
C547 H553 0.929 . S
N548 Mn541 2.257 . S
N548 C547 1.326 . S
N548 C552 1.362 . S
C549 C550 1.258 . S
C549 C552 1.431 . S
C549 C569 1.449 . S
C550 C549 1.258 . S
C550 C551 1.477 . S
C550 H570 0.931 . S
C551 C547 1.460 . S
C551 C550 1.477 . S
C551 H571 0.930 . S
C552 N548 1.362 . S
C552 C549 1.431 . S
C552 C562 1.476 . S
H553 C547 0.929 . S
C554 O545 1.250 . S
C554 O546 1.258 . S
O555 Mn540 2.162 . S
O555 C543 1.281 . S
O556 Mn540 2.297 . S
O556 C543 1.236 . S
N557 Mn541 2.282 . S
N557 C558 1.328 . S
N557 C562 1.318 . S
C558 N557 1.328 . S
C558 C559 1.457 . S
C558 H563 0.929 . S
C559 C558 1.457 . S
C559 C560 1.291 . S
C559 H572 0.931 . S
C560 C559 1.291 . S
C560 C561 1.373 . S
C560 H573 0.929 . S
C561 C560 1.373 . S
C561 C562 1.396 . S
C561 C568 1.403 . S
C562 C552 1.476 . S
C562 N557 1.318 . S
C562 C561 1.396 . S
H563 C558 0.929 . S
O564 Mn540 2.385 . S
O564 C542 1.234 . S
O565 Mn540 2.209 . S
O565 Mn541 2.215 . S
O565 C542 1.283 . S
O566 Mn540 2.094 . S
O566 C544 1.240 . S
O567 Mn541 2.117 . S
O567 C544 1.264 . S
C568 C561 1.403 . S
C568 C569 1.399 . S
C568 H574 0.929 . S
C569 C549 1.449 . S
C569 C568 1.399 . S
C569 H575 0.930 . S
H570 C550 0.931 . S
H571 C551 0.930 . S
H572 C559 0.931 . S
H573 C560 0.929 . S
H574 C568 0.929 . S
H575 C569 0.930 . S
H576 C594 0.951 . S
H577 C596 0.951 . S
H578 C598 0.950 . S
H579 C599 0.950 . S
H580 C601 0.950 . S
H581 C604 0.950 . S
H582 C605 0.950 . S
H583 C607 0.950 1_556 S
H584 C608 0.950 . S
H585 C609 0.951 . S
H586 C611 0.951 . S
H587 C613 0.950 . S
H588 C614 0.950 . S
H589 C616 0.950 . S
H590 C619 0.950 . S
H591 C620 0.950 . S
H592 C622 0.950 . S
H593 C623 0.984 . S
C594 H576 0.951 . S
C594 C595 1.366 . S
C594 C596 1.388 . S
C595 C594 1.366 . S
C595 C599 1.385 . S
C596 H577 0.951 . S
C596 C594 1.388 . S
C596 C597 1.366 . S
C597 C596 1.366 . S
C597 C598 1.414 . S
C597 C600 1.499 . S
C598 H578 0.950 . S
C598 C597 1.414 . S
C598 C599 1.374 . S
C599 H579 0.950 . S
C599 C595 1.385 . S
C599 C598 1.374 . S
C600 C597 1.499 . S
C600 C601 1.373 . S
C600 C602 1.389 . S
C601 H580 0.950 . S
C601 C600 1.373 . S
C601 C617 1.377 1_455 S
C602 C600 1.389 . S
C602 C603 1.524 . S
C602 C616 1.377 1_455 S
C603 C602 1.524 . S
C603 C604 1.397 . S
C603 C608 1.363 . S
C604 H581 0.950 . S
C604 C603 1.397 . S
C604 C605 1.334 . S
C605 H582 0.950 . S
C605 C604 1.334 . S
C605 C606 1.287 . S
C606 C605 1.287 . S
C606 C607 1.524 . S
C606 H625 0.913 . S
C607 H583 0.950 1_554 S
C607 C606 1.524 . S
C607 C608 1.415 . S
C608 H584 0.950 . S
C608 C603 1.363 . S
C608 C607 1.415 . S
C609 H585 0.951 . S
C609 C610 1.366 . S
C609 C611 1.388 . S
C610 C609 1.366 . S
C610 C614 1.385 . S
C611 H586 0.951 . S
C611 C609 1.388 . S
C611 C612 1.366 . S
C612 C611 1.366 . S
C612 C613 1.414 . S
C612 C615 1.499 . S
C613 H587 0.950 . S
C613 C612 1.414 . S
C613 C614 1.374 . S
C614 H588 0.950 . S
C614 C610 1.385 . S
C614 C613 1.374 . S
C615 C612 1.499 . S
C615 C616 1.373 . S
C615 C617 1.389 . S
C616 H589 0.950 . S
C616 C602 1.377 1_655 S
C616 C615 1.373 . S
C617 C601 1.377 1_655 S
C617 C615 1.389 . S
C617 C618 1.524 . S
C618 C617 1.524 . S
C618 C619 1.397 . S
C618 C623 1.363 . S
C619 H590 0.950 . S
C619 C618 1.397 . S
C619 C620 1.334 . S
C620 H591 0.950 . S
C620 C619 1.334 . S
C620 C621 1.287 . S
C621 C620 1.287 . S
C621 C622 1.524 . S
C621 H624 0.999 . S
C622 H592 0.950 . S
C622 C621 1.524 . S
C622 C623 1.415 . S
C623 H593 0.984 . S
C623 C618 1.363 . S
C623 C622 1.415 . S
H624 C621 0.999 . S
H625 C606 0.913 . S
H626 C644 0.951 . S
H627 C646 0.951 . S
H628 C648 0.950 . S
H629 C649 0.950 . S
H630 C651 0.950 . S
H631 C654 0.950 . S
H632 C655 0.950 . S
H633 C657 0.950 . S
H634 C658 0.950 . S
H635 C659 0.951 . S
H636 C661 0.951 . S
H637 C663 0.950 . S
H638 C664 0.950 . S
H639 C666 0.950 . S
H640 C669 0.950 . S
H641 C670 0.950 . S
H642 C672 0.950 . S
H643 C673 0.968 . S
C644 H626 0.951 . S
C644 C645 1.366 . S
C644 C646 1.388 . S
C645 C644 1.366 . S
C645 C649 1.385 . S
C646 H627 0.951 . S
C646 C644 1.388 . S
C646 C647 1.366 . S
C647 C646 1.366 . S
C647 C648 1.414 . S
C647 C650 1.499 . S
C648 H628 0.950 . S
C648 C647 1.414 . S
C648 C649 1.374 . S
C649 H629 0.950 . S
C649 C645 1.385 . S
C649 C648 1.374 . S
C650 C647 1.499 . S
C650 C651 1.373 . S
C650 C652 1.389 . S
C651 H630 0.950 . S
C651 C650 1.373 . S
C651 C667 1.377 1_655 S
C652 C650 1.389 . S
C652 C653 1.524 . S
C652 C666 1.377 1_655 S
C653 C652 1.524 . S
C653 C654 1.397 . S
C653 C658 1.363 . S
C654 H631 0.950 . S
C654 C653 1.397 . S
C654 C655 1.334 . S
C655 H632 0.950 . S
C655 C654 1.334 . S
C655 C656 1.287 . S
C656 C655 1.287 . S
C656 C657 1.524 . S
C656 H675 0.913 . S
C657 H633 0.950 . S
C657 C656 1.524 . S
C657 C658 1.415 . S
C658 H634 0.950 . S
C658 C653 1.363 . S
C658 C657 1.415 . S
C659 H635 0.951 . S
C659 C660 1.366 . S
C659 C661 1.388 . S
C660 C659 1.366 . S
C660 C664 1.385 . S
C661 H636 0.951 . S
C661 C659 1.388 . S
C661 C662 1.366 . S
C662 C661 1.366 . S
C662 C663 1.414 . S
C662 C665 1.499 . S
C663 H637 0.950 . S
C663 C662 1.414 . S
C663 C664 1.374 . S
C664 H638 0.950 . S
C664 C660 1.385 . S
C664 C663 1.374 . S
C665 C662 1.499 . S
C665 C666 1.373 . S
C665 C667 1.389 . S
C666 H639 0.950 . S
C666 C652 1.377 1_455 S
C666 C665 1.373 . S
C667 C651 1.377 1_455 S
C667 C665 1.389 . S
C667 C668 1.524 . S
C668 C667 1.524 . S
C668 C669 1.397 . S
C668 C673 1.363 . S
C669 H640 0.950 . S
C669 C668 1.397 . S
C669 C670 1.334 . S
C670 H641 0.950 . S
C670 C669 1.334 . S
C670 C671 1.287 . S
C671 C670 1.287 . S
C671 C672 1.524 . S
C671 H674 0.999 . S
C672 H642 0.950 . S
C672 C671 1.524 . S
C672 C673 1.415 . S
C673 H643 0.968 . S
C673 C668 1.363 . S
C673 C672 1.415 . S
H674 C671 0.999 . S
H675 C656 0.913 . S
H676 C694 0.951 . S
H677 C696 0.951 . S
H678 C698 0.950 . S
H679 C699 0.950 . S
H680 C701 0.950 . S
H681 C704 0.950 . S
H682 C705 0.950 . S
H683 C707 0.950 . S
H684 C708 0.950 . S
H685 C709 0.951 . S
H686 C711 0.951 . S
H687 C713 0.950 . S
H688 C714 0.950 . S
H689 C716 0.950 . S
H690 C719 0.950 . S
H691 C720 0.950 . S
H692 C722 0.950 . S
H693 C723 0.950 . S
C694 H676 0.951 . S
C694 C695 1.366 . S
C694 C696 1.388 . S
C695 C694 1.366 . S
C695 C699 1.385 . S
C696 H677 0.951 . S
C696 C694 1.388 . S
C696 C697 1.366 . S
C697 C696 1.366 . S
C697 C698 1.414 . S
C697 C700 1.499 . S
C698 H678 0.950 . S
C698 C697 1.414 . S
C698 C699 1.374 . S
C699 H679 0.950 . S
C699 C695 1.385 . S
C699 C698 1.374 . S
C700 C697 1.499 . S
C700 C701 1.373 . S
C700 C702 1.389 . S
C701 H680 0.950 . S
C701 C700 1.373 . S
C701 C717 1.377 1_655 S
C702 C700 1.389 . S
C702 C703 1.524 . S
C702 C716 1.377 1_655 S
C703 C702 1.524 . S
C703 C704 1.397 . S
C703 C708 1.363 . S
C704 H681 0.950 . S
C704 C703 1.397 . S
C704 C705 1.334 . S
C705 H682 0.950 . S
C705 C704 1.334 . S
C705 C706 1.287 . S
C706 C705 1.287 . S
C706 C707 1.524 . S
C706 H725 0.913 . S
C707 H683 0.950 . S
C707 C706 1.524 . S
C707 C708 1.415 . S
C708 H684 0.950 . S
C708 C703 1.363 . S
C708 C707 1.415 . S
C709 H685 0.951 . S
C709 C710 1.366 . S
C709 C711 1.388 . S
C710 C709 1.366 . S
C710 C714 1.385 . S
C711 H686 0.951 . S
C711 C709 1.388 . S
C711 C712 1.366 . S
C712 C711 1.366 . S
C712 C713 1.414 . S
C712 C715 1.499 . S
C713 H687 0.950 . S
C713 C712 1.414 . S
C713 C714 1.374 . S
C714 H688 0.950 . S
C714 C710 1.385 . S
C714 C713 1.374 . S
C715 C712 1.499 . S
C715 C716 1.373 . S
C715 C717 1.389 . S
C716 H689 0.950 . S
C716 C702 1.377 1_455 S
C716 C715 1.373 . S
C717 C701 1.377 1_455 S
C717 C715 1.389 . S
C717 C718 1.524 . S
C718 C717 1.524 . S
C718 C719 1.397 . S
C718 C723 1.363 . S
C719 H690 0.950 . S
C719 C718 1.397 . S
C719 C720 1.334 . S
C720 H691 0.950 . S
C720 C719 1.334 . S
C720 C721 1.287 . S
C721 C720 1.287 . S
C721 C722 1.524 . S
C721 H724 0.999 . S
C722 H692 0.950 . S
C722 C721 1.524 . S
C722 C723 1.415 . S
C723 H693 0.950 . S
C723 C718 1.363 . S
C723 C722 1.415 . S
H724 C721 0.999 . S
H725 C706 0.913 . S
H726 C744 0.951 . S
H727 C746 0.951 . S
H728 C748 0.950 . S
H729 C749 0.950 . S
H730 C751 0.950 . S
H731 C754 0.950 . S
H732 C755 0.950 . S
H733 C757 0.950 . S
H734 C758 0.950 . S
H735 C759 0.951 . S
H736 C761 0.951 . S
H737 C763 0.950 . S
H738 C764 0.950 . S
H739 C766 0.950 . S
H740 C769 0.950 . S
H741 C770 0.950 . S
H742 C772 0.950 . S
H743 C773 0.950 . S
C744 H726 0.951 . S
C744 C745 1.366 . S
C744 C746 1.388 . S
C745 C744 1.366 . S
C745 C749 1.385 . S
C746 H727 0.951 . S
C746 C744 1.388 . S
C746 C747 1.366 . S
C747 C746 1.366 . S
C747 C748 1.414 . S
C747 C750 1.499 . S
C748 H728 0.950 . S
C748 C747 1.414 . S
C748 C749 1.374 . S
C749 H729 0.950 . S
C749 C745 1.385 . S
C749 C748 1.374 . S
C750 C747 1.499 . S
C750 C751 1.373 . S
C750 C752 1.389 . S
C751 H730 0.950 . S
C751 C750 1.373 . S
C751 C767 1.377 1_455 S
C752 C750 1.389 . S
C752 C753 1.524 . S
C752 C766 1.377 1_455 S
C753 C752 1.524 . S
C753 C754 1.397 . S
C753 C758 1.363 . S
C754 H731 0.950 . S
C754 C753 1.397 . S
C754 C755 1.334 . S
C755 H732 0.950 . S
C755 C754 1.334 . S
C755 C756 1.287 . S
C756 C755 1.287 . S
C756 C757 1.524 . S
C756 H775 0.913 . S
C757 H733 0.950 . S
C757 C756 1.524 . S
C757 C758 1.415 . S
C758 H734 0.950 . S
C758 C753 1.363 . S
C758 C757 1.415 . S
C759 H735 0.951 . S
C759 C760 1.366 . S
C759 C761 1.388 . S
C760 C759 1.366 . S
C760 C764 1.385 . S
C761 H736 0.951 . S
C761 C759 1.388 . S
C761 C762 1.366 . S
C762 C761 1.366 . S
C762 C763 1.414 . S
C762 C765 1.499 . S
C763 H737 0.950 . S
C763 C762 1.414 . S
C763 C764 1.374 . S
C764 H738 0.950 . S
C764 C760 1.385 . S
C764 C763 1.374 . S
C765 C762 1.499 . S
C765 C766 1.373 . S
C765 C767 1.389 . S
C766 H739 0.950 . S
C766 C752 1.377 1_655 S
C766 C765 1.373 . S
C767 C751 1.377 1_655 S
C767 C765 1.389 . S
C767 C768 1.524 . S
C768 C767 1.524 . S
C768 C769 1.397 . S
C768 C773 1.363 . S
C769 H740 0.950 . S
C769 C768 1.397 . S
C769 C770 1.334 . S
C770 H741 0.950 . S
C770 C769 1.334 . S
C770 C771 1.287 . S
C771 C770 1.287 . S
C771 C772 1.524 . S
C771 H774 0.999 . S
C772 H742 0.950 . S
C772 C771 1.524 . S
C772 C773 1.415 . S
C773 H743 0.950 . S
C773 C768 1.363 . S
C773 C772 1.415 . S
H774 C771 0.999 . S
H775 C756 0.913 . S
H776 C794 0.951 . S
H777 C796 0.951 . S
H778 C798 0.950 . S
H779 C799 0.950 . S
H780 C801 0.950 . S
H781 C804 0.950 . S
H782 C805 0.950 . S
H783 C807 0.950 . S
H784 C808 0.950 . S
H785 C809 0.951 . S
H786 C811 0.951 . S
H787 C813 0.950 . S
H788 C814 0.950 . S
H789 C816 0.950 . S
H790 C819 0.950 . S
H791 C820 0.950 . S
H792 C822 0.950 . S
H793 C823 0.950 . S
C794 H776 0.951 . S
C794 C795 1.366 . S
C794 C796 1.388 . S
C795 C794 1.366 . S
C795 C799 1.385 . S
C796 H777 0.951 . S
C796 C794 1.388 . S
C796 C797 1.366 . S
C797 C796 1.366 . S
C797 C798 1.414 . S
C797 C800 1.499 . S
C798 H778 0.950 . S
C798 C797 1.414 . S
C798 C799 1.374 . S
C799 H779 0.950 . S
C799 C795 1.385 . S
C799 C798 1.374 . S
C800 C797 1.499 . S
C800 C801 1.373 . S
C800 C802 1.389 . S
C801 H780 0.950 . S
C801 C800 1.373 . S
C801 C817 1.377 . S
C802 C800 1.389 . S
C802 C803 1.524 . S
C802 C816 1.377 . S
C803 C802 1.524 . S
C803 C804 1.397 . S
C803 C808 1.363 . S
C804 H781 0.950 . S
C804 C803 1.397 . S
C804 C805 1.334 . S
C805 H782 0.950 . S
C805 C804 1.334 . S
C805 C806 1.287 . S
C806 C805 1.287 . S
C806 C807 1.524 . S
C806 H825 0.913 . S
C807 H783 0.950 . S
C807 C806 1.524 . S
C807 C808 1.415 . S
C808 H784 0.950 . S
C808 C803 1.363 . S
C808 C807 1.415 . S
C809 H785 0.951 . S
C809 C810 1.366 . S
C809 C811 1.388 . S
C810 C809 1.366 . S
C810 C814 1.385 . S
C811 H786 0.951 . S
C811 C809 1.388 . S
C811 C812 1.366 . S
C812 C811 1.366 . S
C812 C813 1.414 . S
C812 C815 1.499 . S
C813 H787 0.950 . S
C813 C812 1.414 . S
C813 C814 1.374 . S
C814 H788 0.950 . S
C814 C810 1.385 . S
C814 C813 1.374 . S
C815 C812 1.499 . S
C815 C816 1.373 . S
C815 C817 1.389 . S
C816 H789 0.950 . S
C816 C802 1.377 . S
C816 C815 1.373 . S
C817 C801 1.377 . S
C817 C815 1.389 . S
C817 C818 1.524 . S
C818 C817 1.524 . S
C818 C819 1.397 . S
C818 C823 1.363 . S
C819 H790 0.950 . S
C819 C818 1.397 . S
C819 C820 1.334 . S
C820 H791 0.950 . S
C820 C819 1.334 . S
C820 C821 1.287 . S
C821 C820 1.287 . S
C821 C822 1.524 . S
C821 H824 0.999 . S
C822 H792 0.950 . S
C822 C821 1.524 . S
C822 C823 1.415 . S
C823 H793 0.950 . S
C823 C818 1.363 . S
C823 C822 1.415 . S
H824 C821 0.999 . S
H825 C806 0.913 . S
H826 C844 0.951 . S
H827 C846 0.951 . S
H828 C848 0.950 . S
H829 C849 0.950 . S
H830 C851 0.950 . S
H831 C854 0.950 . S
H832 C855 0.950 . S
H833 C857 0.950 . S
H834 C858 0.950 . S
H835 C859 0.951 . S
H836 C861 0.951 . S
H837 C863 0.950 . S
H838 C864 0.950 . S
H839 C866 0.950 . S
H840 C869 0.950 . S
H841 C870 0.950 . S
H842 C872 0.950 . S
H843 C873 0.950 . S
C844 H826 0.951 . S
C844 C845 1.366 . S
C844 C846 1.388 . S
C845 C844 1.366 . S
C845 C849 1.385 . S
C846 H827 0.951 . S
C846 C844 1.388 . S
C846 C847 1.366 . S
C847 C846 1.366 . S
C847 C848 1.414 . S
C847 C850 1.499 . S
C848 H828 0.950 . S
C848 C847 1.414 . S
C848 C849 1.374 . S
C849 H829 0.950 . S
C849 C845 1.385 . S
C849 C848 1.374 . S
C850 C847 1.499 . S
C850 C851 1.373 . S
C850 C852 1.389 . S
C851 H830 0.950 . S
C851 C850 1.373 . S
C851 C867 1.377 . S
C852 C850 1.389 . S
C852 C853 1.524 . S
C852 C866 1.377 . S
C853 C852 1.524 . S
C853 C854 1.397 . S
C853 C858 1.363 . S
C854 H831 0.950 . S
C854 C853 1.397 . S
C854 C855 1.334 . S
C855 H832 0.950 . S
C855 C854 1.334 . S
C855 C856 1.287 . S
C856 C855 1.287 . S
C856 C857 1.524 . S
C856 H875 0.913 . S
C857 H833 0.950 . S
C857 C856 1.524 . S
C857 C858 1.415 . S
C858 H834 0.950 . S
C858 C853 1.363 . S
C858 C857 1.415 . S
C859 H835 0.951 . S
C859 C860 1.366 . S
C859 C861 1.388 . S
C860 C859 1.366 . S
C860 C864 1.385 . S
C861 H836 0.951 . S
C861 C859 1.388 . S
C861 C862 1.366 . S
C862 C861 1.366 . S
C862 C863 1.414 . S
C862 C865 1.499 . S
C863 H837 0.950 . S
C863 C862 1.414 . S
C863 C864 1.374 . S
C864 H838 0.950 . S
C864 C860 1.385 . S
C864 C863 1.374 . S
C865 C862 1.499 . S
C865 C866 1.373 . S
C865 C867 1.389 . S
C866 H839 0.950 . S
C866 C852 1.377 . S
C866 C865 1.373 . S
C867 C851 1.377 . S
C867 C865 1.389 . S
C867 C868 1.524 . S
C868 C867 1.524 . S
C868 C869 1.397 . S
C868 C873 1.363 . S
C869 H840 0.950 . S
C869 C868 1.397 . S
C869 C870 1.334 . S
C870 H841 0.950 . S
C870 C869 1.334 . S
C870 C871 1.287 . S
C871 C870 1.287 . S
C871 C872 1.524 . S
C871 H874 0.999 . S
C872 H842 0.950 . S
C872 C871 1.524 . S
C872 C873 1.415 . S
C873 H843 0.950 . S
C873 C868 1.363 . S
C873 C872 1.415 . S
H874 C871 0.999 . S
H875 C856 0.913 . S
H876 C894 0.951 . S
H877 C896 0.951 . S
H878 C898 0.950 . S
H879 C899 0.950 . S
H880 C901 0.950 . S
H881 C904 0.950 . S
H882 C905 0.950 . S
H883 C907 0.950 . S
H884 C908 0.950 . S
H885 C909 0.951 . S
H886 C911 0.951 . S
H887 C913 0.950 . S
H888 C914 0.950 . S
H889 C916 0.950 . S
H890 C919 0.950 . S
H891 C920 0.950 . S
H892 C922 0.950 . S
H893 C923 0.950 . S
C894 H876 0.951 . S
C894 C895 1.366 . S
C894 C896 1.388 . S
C895 C894 1.366 . S
C895 C899 1.385 . S
C896 H877 0.951 . S
C896 C894 1.388 . S
C896 C897 1.366 . S
C897 C896 1.366 . S
C897 C898 1.414 . S
C897 C900 1.499 . S
C898 H878 0.950 . S
C898 C897 1.414 . S
C898 C899 1.374 . S
C899 H879 0.950 . S
C899 C895 1.385 . S
C899 C898 1.374 . S
C900 C897 1.499 . S
C900 C901 1.373 . S
C900 C902 1.389 . S
C901 H880 0.950 . S
C901 C900 1.373 . S
C901 C917 1.377 . S
C902 C900 1.389 . S
C902 C903 1.524 . S
C902 C916 1.377 . S
C903 C902 1.524 . S
C903 C904 1.397 . S
C903 C908 1.363 . S
C904 H881 0.950 . S
C904 C903 1.397 . S
C904 C905 1.334 . S
C905 H882 0.950 . S
C905 C904 1.334 . S
C905 C906 1.287 . S
C906 C905 1.287 . S
C906 C907 1.524 . S
C906 H925 0.913 . S
C907 H883 0.950 . S
C907 C906 1.524 . S
C907 C908 1.415 . S
C908 H884 0.950 . S
C908 C903 1.363 . S
C908 C907 1.415 . S
C909 H885 0.951 . S
C909 C910 1.366 . S
C909 C911 1.388 . S
C910 C909 1.366 . S
C910 C914 1.385 . S
C911 H886 0.951 . S
C911 C909 1.388 . S
C911 C912 1.366 . S
C912 C911 1.366 . S
C912 C913 1.414 . S
C912 C915 1.499 . S
C913 H887 0.950 . S
C913 C912 1.414 . S
C913 C914 1.374 . S
C914 H888 0.950 . S
C914 C910 1.385 . S
C914 C913 1.374 . S
C915 C912 1.499 . S
C915 C916 1.373 . S
C915 C917 1.389 . S
C916 H889 0.950 . S
C916 C902 1.377 . S
C916 C915 1.373 . S
C917 C901 1.377 . S
C917 C915 1.389 . S
C917 C918 1.524 . S
C918 C917 1.524 . S
C918 C919 1.397 . S
C918 C923 1.363 . S
C919 H890 0.950 . S
C919 C918 1.397 . S
C919 C920 1.334 . S
C920 H891 0.950 . S
C920 C919 1.334 . S
C920 C921 1.287 . S
C921 C920 1.287 . S
C921 C922 1.524 . S
C921 H924 0.999 . S
C922 H892 0.950 . S
C922 C921 1.524 . S
C922 C923 1.415 . S
C923 H893 0.950 . S
C923 C918 1.363 . S
C923 C922 1.415 . S
H924 C921 0.999 . S
H925 C906 0.913 . S
H926 C944 0.951 . S
H927 C946 0.951 . S
H928 C948 0.950 . S
H929 C949 0.950 . S
H930 C951 0.950 . S
H931 C954 0.950 . S
H932 C955 0.950 . S
H933 C957 0.950 . S
H934 C958 0.950 . S
H935 C959 0.951 . S
H936 C961 0.951 . S
H937 C963 0.950 . S
H938 C964 0.950 . S
H939 C966 0.950 . S
H940 C969 0.950 . S
H941 C970 0.950 . S
H942 C972 0.950 . S
H943 C973 0.950 . S
C944 H926 0.951 . S
C944 C945 1.366 . S
C944 C946 1.388 . S
C945 C944 1.366 . S
C945 C949 1.385 . S
C946 H927 0.951 . S
C946 C944 1.388 . S
C946 C947 1.366 . S
C947 C946 1.366 . S
C947 C948 1.414 . S
C947 C950 1.499 . S
C948 H928 0.950 . S
C948 C947 1.414 . S
C948 C949 1.374 . S
C949 H929 0.950 . S
C949 C945 1.385 . S
C949 C948 1.374 . S
C950 C947 1.499 . S
C950 C951 1.373 . S
C950 C952 1.389 . S
C951 H930 0.950 . S
C951 C950 1.373 . S
C951 C967 1.377 . S
C952 C950 1.389 . S
C952 C953 1.524 . S
C952 C966 1.377 . S
C953 C952 1.524 . S
C953 C954 1.397 . S
C953 C958 1.363 . S
C954 H931 0.950 . S
C954 C953 1.397 . S
C954 C955 1.334 . S
C955 H932 0.950 . S
C955 C954 1.334 . S
C955 C956 1.287 . S
C956 C955 1.287 . S
C956 C957 1.524 . S
C956 H975 0.913 . S
C957 H933 0.950 . S
C957 C956 1.524 . S
C957 C958 1.415 . S
C958 H934 0.950 . S
C958 C953 1.363 . S
C958 C957 1.415 . S
C959 H935 0.951 . S
C959 C960 1.366 . S
C959 C961 1.388 . S
C960 C959 1.366 . S
C960 C964 1.385 . S
C961 H936 0.951 . S
C961 C959 1.388 . S
C961 C962 1.366 . S
C962 C961 1.366 . S
C962 C963 1.414 . S
C962 C965 1.499 . S
C963 H937 0.950 . S
C963 C962 1.414 . S
C963 C964 1.374 . S
C964 H938 0.950 . S
C964 C960 1.385 . S
C964 C963 1.374 . S
C965 C962 1.499 . S
C965 C966 1.373 . S
C965 C967 1.389 . S
C966 H939 0.950 . S
C966 C952 1.377 . S
C966 C965 1.373 . S
C967 C951 1.377 . S
C967 C965 1.389 . S
C967 C968 1.524 . S
C968 C967 1.524 . S
C968 C969 1.397 . S
C968 C973 1.363 . S
C969 H940 0.950 . S
C969 C968 1.397 . S
C969 C970 1.334 . S
C970 H941 0.950 . S
C970 C969 1.334 . S
C970 C971 1.287 . S
C971 C970 1.287 . S
C971 C972 1.524 . S
C971 H974 0.999 . S
C972 H942 0.950 . S
C972 C971 1.524 . S
C972 C973 1.415 . S
C973 H943 0.950 . S
C973 C968 1.363 . S
C973 C972 1.415 . S
H974 C971 0.999 . S
H975 C956 0.913 . S
H976 C994 0.951 . S
H977 C996 0.951 . S
H978 C998 0.950 . S
H979 C999 0.950 . S
H980 C1001 0.950 . S
H981 C1004 0.950 . S
H982 C1005 0.950 . S
H983 C1007 0.950 . S
H984 C1008 0.950 . S
H985 C1009 0.951 . S
H986 C1011 0.951 . S
H987 C1013 0.950 . S
H988 C1014 0.950 . S
H989 C1016 0.950 . S
H990 C1019 0.950 . S
H991 C1020 0.950 . S
H992 C1022 0.950 . S
H993 C1023 0.950 . S
C994 H976 0.951 . S
C994 C995 1.366 . S
C994 C996 1.388 . S
C995 C994 1.366 . S
C995 C999 1.385 . S
C996 H977 0.951 . S
C996 C994 1.388 . S
C996 C997 1.366 . S
C997 C996 1.366 . S
C997 C998 1.414 . S
C997 C1000 1.499 . S
C998 H978 0.950 . S
C998 C997 1.414 . S
C998 C999 1.374 . S
C999 H979 0.950 . S
C999 C995 1.385 . S
C999 C998 1.374 . S
C1000 C997 1.499 . S
C1000 C1001 1.373 . S
C1000 C1002 1.389 . S
C1001 H980 0.950 . S
C1001 C1000 1.373 . S
C1001 C1017 1.377 . S
C1002 C1000 1.389 . S
C1002 C1003 1.524 . S
C1002 C1016 1.377 . S
C1003 C1002 1.524 . S
C1003 C1004 1.397 . S
C1003 C1008 1.363 . S
C1004 H981 0.950 . S
C1004 C1003 1.397 . S
C1004 C1005 1.334 . S
C1005 H982 0.950 . S
C1005 C1004 1.334 . S
C1005 C1006 1.287 . S
C1006 C1005 1.287 . S
C1006 C1007 1.524 . S
C1006 H1025 0.913 . S
C1007 H983 0.950 . S
C1007 C1006 1.524 . S
C1007 C1008 1.415 . S
C1008 H984 0.950 . S
C1008 C1003 1.363 . S
C1008 C1007 1.415 . S
C1009 H985 0.951 . S
C1009 C1010 1.366 . S
C1009 C1011 1.388 . S
C1010 C1009 1.366 . S
C1010 C1014 1.385 . S
C1011 H986 0.951 . S
C1011 C1009 1.388 . S
C1011 C1012 1.366 . S
C1012 C1011 1.366 . S
C1012 C1013 1.414 . S
C1012 C1015 1.499 . S
C1013 H987 0.950 . S
C1013 C1012 1.414 . S
C1013 C1014 1.374 . S
C1014 H988 0.950 . S
C1014 C1010 1.385 . S
C1014 C1013 1.374 . S
C1015 C1012 1.499 . S
C1015 C1016 1.373 . S
C1015 C1017 1.389 . S
C1016 H989 0.950 . S
C1016 C1002 1.377 . S
C1016 C1015 1.373 . S
C1017 C1001 1.377 . S
C1017 C1015 1.389 . S
C1017 C1018 1.524 . S
C1018 C1017 1.524 . S
C1018 C1019 1.397 . S
C1018 C1023 1.363 . S
C1019 H990 0.950 . S
C1019 C1018 1.397 . S
C1019 C1020 1.334 . S
C1020 H991 0.950 . S
C1020 C1019 1.334 . S
C1020 C1021 1.287 . S
C1021 C1020 1.287 . S
C1021 C1022 1.524 . S
C1021 H1024 0.999 . S
C1022 H992 0.950 . S
C1022 C1021 1.524 . S
C1022 C1023 1.415 . S
C1023 H993 0.950 . S
C1023 C1018 1.363 . S
C1023 C1022 1.415 . S
H1024 C1021 0.999 . S
H1025 C1006 0.913 . S
H1026 C1044 0.951 . S
H1027 C1046 0.951 . S
H1028 C1048 0.950 . S
H1029 C1049 0.950 . S
H1030 C1051 0.950 . S
H1031 C1054 0.950 . S
H1032 C1055 0.950 . S
H1033 C1057 0.950 . S
H1034 C1058 0.950 . S
H1035 C1059 0.951 . S
H1036 C1061 0.951 . S
H1037 C1063 0.950 . S
H1038 C1064 0.950 . S
H1039 C1066 0.950 . S
H1040 C1069 0.950 . S
H1041 C1070 0.950 . S
H1042 C1072 0.950 . S
H1043 C1073 0.950 . S
C1044 H1026 0.951 . S
C1044 C1045 1.366 . S
C1044 C1046 1.388 . S
C1045 C1044 1.366 . S
C1045 C1049 1.385 . S
C1046 H1027 0.951 . S
C1046 C1044 1.388 . S
C1046 C1047 1.366 . S
C1047 C1046 1.366 . S
C1047 C1048 1.414 . S
C1047 C1050 1.499 . S
C1048 H1028 0.950 . S
C1048 C1047 1.414 . S
C1048 C1049 1.374 . S
C1049 H1029 0.950 . S
C1049 C1045 1.385 . S
C1049 C1048 1.374 . S
C1050 C1047 1.499 . S
C1050 C1051 1.373 . S
C1050 C1052 1.389 . S
C1051 H1030 0.950 . S
C1051 C1050 1.373 . S
C1051 C1067 1.377 . S
C1052 C1050 1.389 . S
C1052 C1053 1.524 . S
C1052 C1066 1.377 . S
C1053 C1052 1.524 . S
C1053 C1054 1.397 . S
C1053 C1058 1.363 . S
C1054 H1031 0.950 . S
C1054 C1053 1.397 . S
C1054 C1055 1.334 . S
C1055 H1032 0.950 . S
C1055 C1054 1.334 . S
C1055 C1056 1.287 . S
C1056 C1055 1.287 . S
C1056 C1057 1.524 . S
C1056 H1075 0.913 . S
C1057 H1033 0.950 . S
C1057 C1056 1.524 . S
C1057 C1058 1.415 . S
C1058 H1034 0.950 . S
C1058 C1053 1.363 . S
C1058 C1057 1.415 . S
C1059 H1035 0.951 . S
C1059 C1060 1.366 . S
C1059 C1061 1.388 . S
C1060 C1059 1.366 . S
C1060 C1064 1.385 . S
C1061 H1036 0.951 . S
C1061 C1059 1.388 . S
C1061 C1062 1.366 . S
C1062 C1061 1.366 . S
C1062 C1063 1.414 . S
C1062 C1065 1.499 . S
C1063 H1037 0.950 . S
C1063 C1062 1.414 . S
C1063 C1064 1.374 . S
C1064 H1038 0.950 . S
C1064 C1060 1.385 . S
C1064 C1063 1.374 . S
C1065 C1062 1.499 . S
C1065 C1066 1.373 . S
C1065 C1067 1.389 . S
C1066 H1039 0.950 . S
C1066 C1052 1.377 . S
C1066 C1065 1.373 . S
C1067 C1051 1.377 . S
C1067 C1065 1.389 . S
C1067 C1068 1.524 . S
C1068 C1067 1.524 . S
C1068 C1069 1.397 . S
C1068 C1073 1.363 . S
C1069 H1040 0.950 . S
C1069 C1068 1.397 . S
C1069 C1070 1.334 . S
C1070 H1041 0.950 . S
C1070 C1069 1.334 . S
C1070 C1071 1.287 . S
C1071 C1070 1.287 . S
C1071 C1072 1.524 . S
C1071 H1074 0.999 . S
C1072 H1042 0.950 . S
C1072 C1071 1.524 . S
C1072 C1073 1.415 . S
C1073 H1043 0.950 . S
C1073 C1068 1.363 . S
C1073 C1072 1.415 . S
H1074 C1071 0.999 . S
H1075 C1056 0.913 . S
H1076 C1094 0.951 . S
H1077 C1096 0.951 . S
H1078 C1098 0.950 . S
H1079 C1099 0.950 . S
H1080 C1101 0.950 . S
H1081 C1104 0.950 . S
H1082 C1105 0.950 . S
H1083 C1107 0.950 . S
H1084 C1108 0.950 . S
H1085 C1109 0.951 . S
H1086 C1111 0.951 . S
H1087 C1113 0.950 . S
H1088 C1114 0.950 . S
H1089 C1116 0.950 . S
H1090 C1119 0.950 . S
H1091 C1120 0.950 . S
H1092 C1122 0.950 . S
H1093 C1123 0.950 . S
C1094 H1076 0.951 . S
C1094 C1095 1.366 . S
C1094 C1096 1.388 . S
C1095 C1094 1.366 . S
C1095 C1099 1.385 . S
C1096 H1077 0.951 . S
C1096 C1094 1.388 . S
C1096 C1097 1.366 . S
C1097 C1096 1.366 . S
C1097 C1098 1.414 . S
C1097 C1100 1.499 . S
C1098 H1078 0.950 . S
C1098 C1097 1.414 . S
C1098 C1099 1.374 . S
C1099 H1079 0.950 . S
C1099 C1095 1.385 . S
C1099 C1098 1.374 . S
C1100 C1097 1.499 . S
C1100 C1101 1.373 . S
C1100 C1102 1.389 . S
C1101 H1080 0.950 . S
C1101 C1100 1.373 . S
C1101 C1117 1.377 . S
C1102 C1100 1.389 . S
C1102 C1103 1.524 . S
C1102 C1116 1.377 . S
C1103 C1102 1.524 . S
C1103 C1104 1.397 . S
C1103 C1108 1.363 . S
C1104 H1081 0.950 . S
C1104 C1103 1.397 . S
C1104 C1105 1.334 . S
C1105 H1082 0.950 . S
C1105 C1104 1.334 . S
C1105 C1106 1.287 . S
C1106 C1105 1.287 . S
C1106 C1107 1.524 . S
C1106 H1125 0.913 . S
C1107 H1083 0.950 . S
C1107 C1106 1.524 . S
C1107 C1108 1.415 . S
C1108 H1084 0.950 . S
C1108 C1103 1.363 . S
C1108 C1107 1.415 . S
C1109 H1085 0.951 . S
C1109 C1110 1.366 . S
C1109 C1111 1.388 . S
C1110 C1109 1.366 . S
C1110 C1114 1.385 . S
C1111 H1086 0.951 . S
C1111 C1109 1.388 . S
C1111 C1112 1.366 . S
C1112 C1111 1.366 . S
C1112 C1113 1.414 . S
C1112 C1115 1.499 . S
C1113 H1087 0.950 . S
C1113 C1112 1.414 . S
C1113 C1114 1.374 . S
C1114 H1088 0.950 . S
C1114 C1110 1.385 . S
C1114 C1113 1.374 . S
C1115 C1112 1.499 . S
C1115 C1116 1.373 . S
C1115 C1117 1.389 . S
C1116 H1089 0.950 . S
C1116 C1102 1.377 . S
C1116 C1115 1.373 . S
C1117 C1101 1.377 . S
C1117 C1115 1.389 . S
C1117 C1118 1.524 . S
C1118 C1117 1.524 . S
C1118 C1119 1.397 . S
C1118 C1123 1.363 . S
C1119 H1090 0.950 . S
C1119 C1118 1.397 . S
C1119 C1120 1.334 . S
C1120 H1091 0.950 . S
C1120 C1119 1.334 . S
C1120 C1121 1.287 . S
C1121 C1120 1.287 . S
C1121 C1122 1.524 . S
C1121 H1124 0.999 . S
C1122 H1092 0.950 . S
C1122 C1121 1.524 . S
C1122 C1123 1.415 . S
C1123 H1093 0.950 . S
C1123 C1118 1.363 . S
C1123 C1122 1.415 . S
H1124 C1121 0.999 . S
H1125 C1106 0.913 . S
H1126 C1144 0.951 . S
H1127 C1146 0.951 . S
H1128 C1148 0.950 . S
H1129 C1149 0.950 . S
H1130 C1151 0.950 . S
H1131 C1154 0.950 . S
H1132 C1155 0.950 . S
H1133 C1157 0.950 . S
H1134 C1158 0.950 . S
H1135 C1159 0.951 . S
H1136 C1161 0.951 . S
H1137 C1163 0.950 . S
H1138 C1164 0.950 . S
H1139 C1166 0.950 . S
H1140 C1169 0.950 . S
H1141 C1170 0.950 . S
H1142 C1172 0.950 . S
H1143 C1173 0.950 . S
C1144 H1126 0.951 . S
C1144 C1145 1.366 . S
C1144 C1146 1.388 . S
C1145 C1144 1.366 . S
C1145 C1149 1.385 . S
C1146 H1127 0.951 . S
C1146 C1144 1.388 . S
C1146 C1147 1.366 . S
C1147 C1146 1.366 . S
C1147 C1148 1.414 . S
C1147 C1150 1.499 . S
C1148 H1128 0.950 . S
C1148 C1147 1.414 . S
C1148 C1149 1.374 . S
C1149 H1129 0.950 . S
C1149 C1145 1.385 . S
C1149 C1148 1.374 . S
C1150 C1147 1.499 . S
C1150 C1151 1.373 . S
C1150 C1152 1.389 . S
C1151 H1130 0.950 . S
C1151 C1150 1.373 . S
C1151 C1167 1.377 . S
C1152 C1150 1.389 . S
C1152 C1153 1.524 . S
C1152 C1166 1.377 . S
C1153 C1152 1.524 . S
C1153 C1154 1.397 . S
C1153 C1158 1.363 . S
C1154 H1131 0.950 . S
C1154 C1153 1.397 . S
C1154 C1155 1.334 . S
C1155 H1132 0.950 . S
C1155 C1154 1.334 . S
C1155 C1156 1.287 . S
C1156 C1155 1.287 . S
C1156 C1157 1.524 . S
C1156 H1175 0.913 . S
C1157 H1133 0.950 . S
C1157 C1156 1.524 . S
C1157 C1158 1.415 . S
C1158 H1134 0.950 . S
C1158 C1153 1.363 . S
C1158 C1157 1.415 . S
C1159 H1135 0.951 . S
C1159 C1160 1.366 . S
C1159 C1161 1.388 . S
C1160 C1159 1.366 . S
C1160 C1164 1.385 . S
C1161 H1136 0.951 . S
C1161 C1159 1.388 . S
C1161 C1162 1.366 . S
C1162 C1161 1.366 . S
C1162 C1163 1.414 . S
C1162 C1165 1.499 . S
C1163 H1137 0.950 . S
C1163 C1162 1.414 . S
C1163 C1164 1.374 . S
C1164 H1138 0.950 . S
C1164 C1160 1.385 . S
C1164 C1163 1.374 . S
C1165 C1162 1.499 . S
C1165 C1166 1.373 . S
C1165 C1167 1.389 . S
C1166 H1139 0.950 . S
C1166 C1152 1.377 . S
C1166 C1165 1.373 . S
C1167 C1151 1.377 . S
C1167 C1165 1.389 . S
C1167 C1168 1.524 . S
C1168 C1167 1.524 . S
C1168 C1169 1.397 . S
C1168 C1173 1.363 . S
C1169 H1140 0.950 . S
C1169 C1168 1.397 . S
C1169 C1170 1.334 . S
C1170 H1141 0.950 . S
C1170 C1169 1.334 . S
C1170 C1171 1.287 . S
C1171 C1170 1.287 . S
C1171 C1172 1.524 . S
C1171 H1174 0.999 . S
C1172 H1142 0.950 . S
C1172 C1171 1.524 . S
C1172 C1173 1.415 . S
C1173 H1143 0.950 . S
C1173 C1168 1.363 . S
C1173 C1172 1.415 . S
H1174 C1171 0.999 . S
H1175 C1156 0.913 . S
H1176 C1194 0.951 . S
H1177 C1196 0.951 . S
H1178 C1198 0.950 . S
H1179 C1199 0.950 . S
H1180 C1201 0.950 . S
H1181 C1204 0.950 . S
H1182 C1205 0.950 . S
H1183 C1207 0.950 . S
H1184 C1208 0.950 . S
H1185 C1209 0.951 . S
H1186 C1211 0.951 . S
H1187 C1213 0.950 . S
H1188 C1214 0.950 . S
H1189 C1216 0.950 . S
H1190 C1219 0.950 . S
H1191 C1220 0.950 . S
H1192 C1222 0.950 . S
H1193 C1223 0.950 . S
C1194 H1176 0.951 . S
C1194 C1195 1.366 . S
C1194 C1196 1.388 . S
C1195 C1194 1.366 . S
C1195 C1199 1.385 . S
C1196 H1177 0.951 . S
C1196 C1194 1.388 . S
C1196 C1197 1.366 . S
C1197 C1196 1.366 . S
C1197 C1198 1.414 . S
C1197 C1200 1.499 . S
C1198 H1178 0.950 . S
C1198 C1197 1.414 . S
C1198 C1199 1.374 . S
C1199 H1179 0.950 . S
C1199 C1195 1.385 . S
C1199 C1198 1.374 . S
C1200 C1197 1.499 . S
C1200 C1201 1.373 . S
C1200 C1202 1.389 . S
C1201 H1180 0.950 . S
C1201 C1200 1.373 . S
C1201 C1217 1.377 . S
C1202 C1200 1.389 . S
C1202 C1203 1.524 . S
C1202 C1216 1.377 . S
C1203 C1202 1.524 . S
C1203 C1204 1.397 . S
C1203 C1208 1.363 . S
C1204 H1181 0.950 . S
C1204 C1203 1.397 . S
C1204 C1205 1.334 . S
C1205 H1182 0.950 . S
C1205 C1204 1.334 . S
C1205 C1206 1.287 . S
C1206 C1205 1.287 . S
C1206 C1207 1.524 . S
C1206 H1225 0.913 . S
C1207 H1183 0.950 . S
C1207 C1206 1.524 . S
C1207 C1208 1.415 . S
C1208 H1184 0.950 . S
C1208 C1203 1.363 . S
C1208 C1207 1.415 . S
C1209 H1185 0.951 . S
C1209 C1210 1.366 . S
C1209 C1211 1.388 . S
C1210 C1209 1.366 . S
C1210 C1214 1.385 . S
C1211 H1186 0.951 . S
C1211 C1209 1.388 . S
C1211 C1212 1.366 . S
C1212 C1211 1.366 . S
C1212 C1213 1.414 . S
C1212 C1215 1.499 . S
C1213 H1187 0.950 . S
C1213 C1212 1.414 . S
C1213 C1214 1.374 . S
C1214 H1188 0.950 . S
C1214 C1210 1.385 . S
C1214 C1213 1.374 . S
C1215 C1212 1.499 . S
C1215 C1216 1.373 . S
C1215 C1217 1.389 . S
C1216 H1189 0.950 . S
C1216 C1202 1.377 . S
C1216 C1215 1.373 . S
C1217 C1201 1.377 . S
C1217 C1215 1.389 . S
C1217 C1218 1.524 . S
C1218 C1217 1.524 . S
C1218 C1219 1.397 . S
C1218 C1223 1.363 . S
C1219 H1190 0.950 . S
C1219 C1218 1.397 . S
C1219 C1220 1.334 . S
C1220 H1191 0.950 . S
C1220 C1219 1.334 . S
C1220 C1221 1.287 . S
C1221 C1220 1.287 . S
C1221 C1222 1.524 . S
C1221 H1224 0.999 . S
C1222 H1192 0.950 . S
C1222 C1221 1.524 . S
C1222 C1223 1.415 . S
C1223 H1193 0.950 . S
C1223 C1218 1.363 . S
C1223 C1222 1.415 . S
H1224 C1221 0.999 . S
H1225 C1206 0.913 . S
H1226 C1244 0.951 . S
H1227 C1246 0.951 . S
H1228 C1248 0.950 . S
H1229 C1249 0.950 . S
H1230 C1251 0.950 . S
H1231 C1254 0.950 . S
H1232 C1255 0.950 . S
H1233 C1257 0.950 . S
H1234 C1258 0.950 . S
H1235 C1259 0.951 . S
H1236 C1261 0.951 . S
H1237 C1263 0.950 . S
H1238 C1264 0.950 . S
H1239 C1266 0.950 . S
H1240 C1269 0.950 . S
H1241 C1270 0.950 . S
H1242 C1272 0.950 . S
H1243 C1273 0.950 . S
C1244 H1226 0.951 . S
C1244 C1245 1.366 . S
C1244 C1246 1.388 . S
C1245 C1244 1.366 . S
C1245 C1249 1.385 . S
C1246 H1227 0.951 . S
C1246 C1244 1.388 . S
C1246 C1247 1.366 . S
C1247 C1246 1.366 . S
C1247 C1248 1.414 . S
C1247 C1250 1.499 . S
C1248 H1228 0.950 . S
C1248 C1247 1.414 . S
C1248 C1249 1.374 . S
C1249 H1229 0.950 . S
C1249 C1245 1.385 . S
C1249 C1248 1.374 . S
C1250 C1247 1.499 . S
C1250 C1251 1.373 . S
C1250 C1252 1.389 . S
C1251 H1230 0.950 . S
C1251 C1250 1.373 . S
C1251 C1267 1.377 . S
C1252 C1250 1.389 . S
C1252 C1253 1.524 . S
C1252 C1266 1.377 . S
C1253 C1252 1.524 . S
C1253 C1254 1.397 . S
C1253 C1258 1.363 . S
C1254 H1231 0.950 . S
C1254 C1253 1.397 . S
C1254 C1255 1.334 . S
C1255 H1232 0.950 . S
C1255 C1254 1.334 . S
C1255 C1256 1.287 . S
C1256 C1255 1.287 . S
C1256 C1257 1.524 . S
C1256 H1275 0.913 . S
C1257 H1233 0.950 . S
C1257 C1256 1.524 . S
C1257 C1258 1.415 . S
C1258 H1234 0.950 . S
C1258 C1253 1.363 . S
C1258 C1257 1.415 . S
C1259 H1235 0.951 . S
C1259 C1260 1.366 . S
C1259 C1261 1.388 . S
C1260 C1259 1.366 . S
C1260 C1264 1.385 . S
C1261 H1236 0.951 . S
C1261 C1259 1.388 . S
C1261 C1262 1.366 . S
C1262 C1261 1.366 . S
C1262 C1263 1.414 . S
C1262 C1265 1.499 . S
C1263 H1237 0.950 . S
C1263 C1262 1.414 . S
C1263 C1264 1.374 . S
C1264 H1238 0.950 . S
C1264 C1260 1.385 . S
C1264 C1263 1.374 . S
C1265 C1262 1.499 . S
C1265 C1266 1.373 . S
C1265 C1267 1.389 . S
C1266 H1239 0.950 . S
C1266 C1252 1.377 . S
C1266 C1265 1.373 . S
C1267 C1251 1.377 . S
C1267 C1265 1.389 . S
C1267 C1268 1.524 . S
C1268 C1267 1.524 . S
C1268 C1269 1.397 . S
C1268 C1273 1.363 . S
C1269 H1240 0.950 . S
C1269 C1268 1.397 . S
C1269 C1270 1.334 . S
C1270 H1241 0.950 . S
C1270 C1269 1.334 . S
C1270 C1271 1.287 . S
C1271 C1270 1.287 . S
C1271 C1272 1.524 . S
C1271 H1274 0.999 . S
C1272 H1242 0.950 . S
C1272 C1271 1.524 . S
C1272 C1273 1.415 . S
C1273 H1243 0.950 . S
C1273 C1268 1.363 . S
C1273 C1272 1.415 . S
H1274 C1271 0.999 . S
H1275 C1256 0.913 . S
H1276 C1294 0.951 . S
H1277 C1296 0.951 . S
H1278 C1298 0.950 . S
H1279 C1299 0.950 . S
H1280 C1301 0.950 . S
H1281 C1304 0.950 . S
H1282 C1305 0.950 . S
H1283 C1307 0.950 . S
H1284 C1308 0.950 . S
H1285 C1309 0.951 . S
H1286 C1311 0.951 . S
H1287 C1313 0.950 . S
H1288 C1314 0.950 . S
H1289 C1316 0.950 . S
H1290 C1319 0.950 . S
H1291 C1320 0.950 . S
H1292 C1322 0.950 . S
H1293 C1323 0.950 . S
C1294 H1276 0.951 . S
C1294 C1295 1.366 . S
C1294 C1296 1.388 . S
C1295 C1294 1.366 . S
C1295 C1299 1.385 . S
C1296 H1277 0.951 . S
C1296 C1294 1.388 . S
C1296 C1297 1.366 . S
C1297 C1296 1.366 . S
C1297 C1298 1.414 . S
C1297 C1300 1.499 . S
C1298 H1278 0.950 . S
C1298 C1297 1.414 . S
C1298 C1299 1.374 . S
C1299 H1279 0.950 . S
C1299 C1295 1.385 . S
C1299 C1298 1.374 . S
C1300 C1297 1.499 . S
C1300 C1301 1.373 . S
C1300 C1302 1.389 . S
C1301 H1280 0.950 . S
C1301 C1300 1.373 . S
C1301 C1317 1.377 . S
C1302 C1300 1.389 . S
C1302 C1303 1.524 . S
C1302 C1316 1.377 . S
C1303 C1302 1.524 . S
C1303 C1304 1.397 . S
C1303 C1308 1.363 . S
C1304 H1281 0.950 . S
C1304 C1303 1.397 . S
C1304 C1305 1.334 . S
C1305 H1282 0.950 . S
C1305 C1304 1.334 . S
C1305 C1306 1.287 . S
C1306 C1305 1.287 . S
C1306 C1307 1.524 . S
C1306 H1325 0.913 . S
C1307 H1283 0.950 . S
C1307 C1306 1.524 . S
C1307 C1308 1.415 . S
C1308 H1284 0.950 . S
C1308 C1303 1.363 . S
C1308 C1307 1.415 . S
C1309 H1285 0.951 . S
C1309 C1310 1.366 . S
C1309 C1311 1.388 . S
C1310 C1309 1.366 . S
C1310 C1314 1.385 . S
C1311 H1286 0.951 . S
C1311 C1309 1.388 . S
C1311 C1312 1.366 . S
C1312 C1311 1.366 . S
C1312 C1313 1.414 . S
C1312 C1315 1.499 . S
C1313 H1287 0.950 . S
C1313 C1312 1.414 . S
C1313 C1314 1.374 . S
C1314 H1288 0.950 . S
C1314 C1310 1.385 . S
C1314 C1313 1.374 . S
C1315 C1312 1.499 . S
C1315 C1316 1.373 . S
C1315 C1317 1.389 . S
C1316 H1289 0.950 . S
C1316 C1302 1.377 . S
C1316 C1315 1.373 . S
C1317 C1301 1.377 . S
C1317 C1315 1.389 . S
C1317 C1318 1.524 . S
C1318 C1317 1.524 . S
C1318 C1319 1.397 . S
C1318 C1323 1.363 . S
C1319 H1290 0.950 . S
C1319 C1318 1.397 . S
C1319 C1320 1.334 . S
C1320 H1291 0.950 . S
C1320 C1319 1.334 . S
C1320 C1321 1.287 . S
C1321 C1320 1.287 . S
C1321 C1322 1.524 . S
C1321 H1324 0.999 . S
C1322 H1292 0.950 . S
C1322 C1321 1.524 . S
C1322 C1323 1.415 . S
C1323 H1293 0.950 . S
C1323 C1318 1.363 . S
C1323 C1322 1.415 . S
H1324 C1321 0.999 . S
H1325 C1306 0.913 . S
H1326 C1344 0.951 . S
H1327 C1346 0.951 . S
H1328 C1348 0.950 . S
H1329 C1349 0.950 . S
H1330 C1351 0.950 . S
H1331 C1354 0.950 . S
H1332 C1355 0.950 . S
H1333 C1357 0.950 . S
H1334 C1358 0.950 . S
H1335 C1359 0.951 . S
H1336 C1361 0.951 . S
H1337 C1363 0.950 . S
H1338 C1364 0.950 . S
H1339 C1366 0.950 . S
H1340 C1369 0.950 . S
H1341 C1370 0.950 . S
H1342 C1372 0.950 . S
H1343 C1373 0.950 . S
C1344 H1326 0.951 . S
C1344 C1345 1.366 . S
C1344 C1346 1.388 . S
C1345 C1344 1.366 . S
C1345 C1349 1.385 . S
C1346 H1327 0.951 . S
C1346 C1344 1.388 . S
C1346 C1347 1.366 . S
C1347 C1346 1.366 . S
C1347 C1348 1.414 . S
C1347 C1350 1.499 . S
C1348 H1328 0.950 . S
C1348 C1347 1.414 . S
C1348 C1349 1.374 . S
C1349 H1329 0.950 . S
C1349 C1345 1.385 . S
C1349 C1348 1.374 . S
C1350 C1347 1.499 . S
C1350 C1351 1.373 . S
C1350 C1352 1.389 . S
C1351 H1330 0.950 . S
C1351 C1350 1.373 . S
C1351 C1367 1.377 . S
C1352 C1350 1.389 . S
C1352 C1353 1.524 . S
C1352 C1366 1.377 . S
C1353 C1352 1.524 . S
C1353 C1354 1.397 . S
C1353 C1358 1.363 . S
C1354 H1331 0.950 . S
C1354 C1353 1.397 . S
C1354 C1355 1.334 . S
C1355 H1332 0.950 . S
C1355 C1354 1.334 . S
C1355 C1356 1.287 . S
C1356 C1355 1.287 . S
C1356 C1357 1.524 . S
C1356 H1375 0.913 . S
C1357 H1333 0.950 . S
C1357 C1356 1.524 . S
C1357 C1358 1.415 . S
C1358 H1334 0.950 . S
C1358 C1353 1.363 . S
C1358 C1357 1.415 . S
C1359 H1335 0.951 . S
C1359 C1360 1.366 . S
C1359 C1361 1.388 . S
C1360 C1359 1.366 . S
C1360 C1364 1.385 . S
C1361 H1336 0.951 . S
C1361 C1359 1.388 . S
C1361 C1362 1.366 . S
C1362 C1361 1.366 . S
C1362 C1363 1.414 . S
C1362 C1365 1.499 . S
C1363 H1337 0.950 . S
C1363 C1362 1.414 . S
C1363 C1364 1.374 . S
C1364 H1338 0.950 . S
C1364 C1360 1.385 . S
C1364 C1363 1.374 . S
C1365 C1362 1.499 . S
C1365 C1366 1.373 . S
C1365 C1367 1.389 . S
C1366 H1339 0.950 . S
C1366 C1352 1.377 . S
C1366 C1365 1.373 . S
C1367 C1351 1.377 . S
C1367 C1365 1.389 . S
C1367 C1368 1.524 . S
C1368 C1367 1.524 . S
C1368 C1369 1.397 . S
C1368 C1373 1.363 . S
C1369 H1340 0.950 . S
C1369 C1368 1.397 . S
C1369 C1370 1.334 . S
C1370 H1341 0.950 . S
C1370 C1369 1.334 . S
C1370 C1371 1.287 . S
C1371 C1370 1.287 . S
C1371 C1372 1.524 . S
C1371 H1374 0.999 . S
C1372 H1342 0.950 . S
C1372 C1371 1.524 . S
C1372 C1373 1.415 . S
C1373 H1343 0.950 . S
C1373 C1368 1.363 . S
C1373 C1372 1.415 . S
H1374 C1371 0.999 . S
H1375 C1356 0.913 . S
H1376 C1394 0.951 . S
H1377 C1396 0.951 . S
H1378 C1398 0.950 . S
H1379 C1399 0.950 . S
H1380 C1401 0.950 . S
H1381 C1404 0.950 . S
H1382 C1405 0.950 . S
H1383 C1407 0.950 . S
H1384 C1408 0.950 . S
H1385 C1409 0.951 . S
H1386 C1411 0.951 . S
H1387 C1413 0.950 . S
H1388 C1414 0.950 . S
H1389 C1416 0.950 . S
H1390 C1419 0.950 . S
H1391 C1420 0.950 . S
H1392 C1422 0.950 . S
H1393 C1423 0.950 . S
C1394 H1376 0.951 . S
C1394 C1395 1.366 . S
C1394 C1396 1.388 . S
C1395 C1394 1.366 . S
C1395 C1399 1.385 . S
C1396 H1377 0.951 . S
C1396 C1394 1.388 . S
C1396 C1397 1.366 . S
C1397 C1396 1.366 . S
C1397 C1398 1.414 . S
C1397 C1400 1.499 . S
C1398 H1378 0.950 . S
C1398 C1397 1.414 . S
C1398 C1399 1.374 . S
C1399 H1379 0.950 . S
C1399 C1395 1.385 . S
C1399 C1398 1.374 . S
C1400 C1397 1.499 . S
C1400 C1401 1.373 1_556 S
C1400 C1402 1.389 . S
C1401 H1380 0.950 . S
C1401 C1400 1.373 1_554 S
C1401 C1417 1.377 . S
C1402 C1400 1.389 . S
C1402 C1403 1.524 . S
C1402 C1416 1.377 . S
C1403 C1402 1.524 . S
C1403 C1404 1.397 . S
C1403 C1408 1.363 . S
C1404 H1381 0.950 . S
C1404 C1403 1.397 . S
C1404 C1405 1.334 . S
C1405 H1382 0.950 . S
C1405 C1404 1.334 . S
C1405 C1406 1.287 . S
C1406 C1405 1.287 . S
C1406 C1407 1.524 . S
C1406 H1425 0.913 . S
C1407 H1383 0.950 . S
C1407 C1406 1.524 . S
C1407 C1408 1.415 . S
C1408 H1384 0.950 . S
C1408 C1403 1.363 . S
C1408 C1407 1.415 . S
C1409 H1385 0.951 . S
C1409 C1410 1.366 . S
C1409 C1411 1.388 . S
C1410 C1409 1.366 . S
C1410 C1414 1.385 . S
C1411 H1386 0.951 . S
C1411 C1409 1.388 . S
C1411 C1412 1.366 . S
C1412 C1411 1.366 . S
C1412 C1413 1.414 . S
C1412 C1415 1.499 . S
C1413 H1387 0.950 . S
C1413 C1412 1.414 . S
C1413 C1414 1.374 . S
C1414 H1388 0.950 . S
C1414 C1410 1.385 . S
C1414 C1413 1.374 . S
C1415 C1412 1.499 . S
C1415 C1416 1.373 1_554 S
C1415 C1417 1.389 . S
C1416 H1389 0.950 . S
C1416 C1402 1.377 . S
C1416 C1415 1.373 1_556 S
C1417 C1401 1.377 . S
C1417 C1415 1.389 . S
C1417 C1418 1.524 . S
C1418 C1417 1.524 . S
C1418 C1419 1.397 . S
C1418 C1423 1.363 . S
C1419 H1390 0.950 . S
C1419 C1418 1.397 . S
C1419 C1420 1.334 . S
C1420 H1391 0.950 . S
C1420 C1419 1.334 . S
C1420 C1421 1.287 . S
C1421 C1420 1.287 . S
C1421 C1422 1.524 . S
C1421 H1424 0.999 . S
C1422 H1392 0.950 . S
C1422 C1421 1.524 . S
C1422 C1423 1.415 . S
C1423 H1393 0.950 . S
C1423 C1418 1.363 . S
C1423 C1422 1.415 . S
H1424 C1421 0.999 . S
H1425 C1406 0.913 . S
H1426 C1444 0.951 . S
H1427 C1446 0.951 . S
H1428 C1448 0.950 . S
H1429 C1449 0.950 . S
H1430 C1451 0.950 . S
H1431 C1454 0.950 . S
H1432 C1455 0.950 . S
H1433 C1457 0.950 . S
H1434 C1458 0.950 . S
H1435 C1459 0.951 . S
H1436 C1461 0.951 . S
H1437 C1463 0.950 . S
H1438 C1464 0.950 . S
H1439 C1466 0.950 . S
H1440 C1469 0.950 . S
H1441 C1470 0.950 . S
H1442 C1472 0.950 . S
H1443 C1473 0.950 . S
C1444 H1426 0.951 . S
C1444 C1445 1.366 . S
C1444 C1446 1.388 . S
C1445 C1444 1.366 . S
C1445 C1449 1.385 . S
C1446 H1427 0.951 . S
C1446 C1444 1.388 . S
C1446 C1447 1.366 . S
C1447 C1446 1.366 . S
C1447 C1448 1.414 . S
C1447 C1450 1.499 . S
C1448 H1428 0.950 . S
C1448 C1447 1.414 . S
C1448 C1449 1.374 . S
C1449 H1429 0.950 . S
C1449 C1445 1.385 . S
C1449 C1448 1.374 . S
C1450 C1447 1.499 . S
C1450 C1451 1.373 . S
C1450 C1452 1.389 . S
C1451 H1430 0.950 . S
C1451 C1450 1.373 . S
C1451 C1467 1.377 . S
C1452 C1450 1.389 . S
C1452 C1453 1.524 . S
C1452 C1466 1.377 . S
C1453 C1452 1.524 . S
C1453 C1454 1.397 . S
C1453 C1458 1.363 . S
C1454 H1431 0.950 . S
C1454 C1453 1.397 . S
C1454 C1455 1.334 . S
C1455 H1432 0.950 . S
C1455 C1454 1.334 . S
C1455 C1456 1.287 . S
C1456 C1455 1.287 . S
C1456 C1457 1.524 . S
C1456 H1475 0.913 . S
C1457 H1433 0.950 . S
C1457 C1456 1.524 . S
C1457 C1458 1.415 . S
C1458 H1434 0.950 . S
C1458 C1453 1.363 . S
C1458 C1457 1.415 . S
C1459 H1435 0.951 . S
C1459 C1460 1.366 . S
C1459 C1461 1.388 . S
C1460 C1459 1.366 . S
C1460 C1464 1.385 . S
C1461 H1436 0.951 . S
C1461 C1459 1.388 . S
C1461 C1462 1.366 . S
C1462 C1461 1.366 . S
C1462 C1463 1.414 . S
C1462 C1465 1.499 . S
C1463 H1437 0.950 . S
C1463 C1462 1.414 . S
C1463 C1464 1.374 . S
C1464 H1438 0.950 . S
C1464 C1460 1.385 . S
C1464 C1463 1.374 . S
C1465 C1462 1.499 . S
C1465 C1466 1.373 . S
C1465 C1467 1.389 . S
C1466 H1439 0.950 . S
C1466 C1452 1.377 . S
C1466 C1465 1.373 . S
C1467 C1451 1.377 . S
C1467 C1465 1.389 . S
C1467 C1468 1.524 . S
C1468 C1467 1.524 . S
C1468 C1469 1.397 . S
C1468 C1473 1.363 . S
C1469 H1440 0.950 . S
C1469 C1468 1.397 . S
C1469 C1470 1.334 . S
C1470 H1441 0.950 . S
C1470 C1469 1.334 . S
C1470 C1471 1.287 . S
C1471 C1470 1.287 . S
C1471 C1472 1.524 . S
C1471 H1474 0.999 . S
C1472 H1442 0.950 . S
C1472 C1471 1.524 . S
C1472 C1473 1.415 . S
C1473 H1443 0.950 . S
C1473 C1468 1.363 . S
C1473 C1472 1.415 . S
H1474 C1471 0.999 . S
H1475 C1456 0.913 . S
H1476 C1494 0.951 . S
H1477 C1496 0.951 . S
H1478 C1498 0.950 . S
H1479 C1499 0.950 . S
H1480 C1501 0.950 . S
H1481 C1504 0.950 . S
H1482 C1505 0.950 . S
H1483 C1507 0.950 . S
H1484 C1508 0.950 . S
H1485 C1509 0.951 . S
H1486 C1511 0.951 . S
H1487 C1513 0.950 . S
H1488 C1514 0.950 . S
H1489 C1516 0.950 . S
H1490 C1519 0.950 . S
H1491 C1520 0.950 . S
H1492 C1522 0.950 . S
H1493 C1523 0.950 . S
C1494 H1476 0.951 . S
C1494 C1495 1.366 . S
C1494 C1496 1.388 . S
C1495 C1494 1.366 . S
C1495 C1499 1.385 . S
C1496 H1477 0.951 . S
C1496 C1494 1.388 . S
C1496 C1497 1.366 . S
C1497 C1496 1.366 . S
C1497 C1498 1.414 . S
C1497 C1500 1.499 . S
C1498 H1478 0.950 . S
C1498 C1497 1.414 . S
C1498 C1499 1.374 . S
C1499 H1479 0.950 . S
C1499 C1495 1.385 . S
C1499 C1498 1.374 . S
C1500 C1497 1.499 . S
C1500 C1501 1.373 1_554 S
C1500 C1502 1.389 . S
C1501 H1480 0.950 . S
C1501 C1500 1.373 1_556 S
C1501 C1517 1.377 . S
C1502 C1500 1.389 . S
C1502 C1503 1.524 . S
C1502 C1516 1.377 . S
C1503 C1502 1.524 . S
C1503 C1504 1.397 . S
C1503 C1508 1.363 . S
C1504 H1481 0.950 . S
C1504 C1503 1.397 . S
C1504 C1505 1.334 . S
C1505 H1482 0.950 . S
C1505 C1504 1.334 . S
C1505 C1506 1.287 . S
C1506 C1505 1.287 . S
C1506 C1507 1.524 . S
C1506 H1525 0.913 . S
C1507 H1483 0.950 . S
C1507 C1506 1.524 . S
C1507 C1508 1.415 . S
C1508 H1484 0.950 . S
C1508 C1503 1.363 . S
C1508 C1507 1.415 . S
C1509 H1485 0.951 . S
C1509 C1510 1.366 . S
C1509 C1511 1.388 . S
C1510 C1509 1.366 . S
C1510 C1514 1.385 . S
C1511 H1486 0.951 . S
C1511 C1509 1.388 . S
C1511 C1512 1.366 . S
C1512 C1511 1.366 . S
C1512 C1513 1.414 . S
C1512 C1515 1.499 . S
C1513 H1487 0.950 . S
C1513 C1512 1.414 . S
C1513 C1514 1.374 . S
C1514 H1488 0.950 . S
C1514 C1510 1.385 . S
C1514 C1513 1.374 . S
C1515 C1512 1.499 . S
C1515 C1516 1.373 1_556 S
C1515 C1517 1.389 . S
C1516 H1489 0.950 . S
C1516 C1502 1.377 . S
C1516 C1515 1.373 1_554 S
C1517 C1501 1.377 . S
C1517 C1515 1.389 . S
C1517 C1518 1.524 . S
C1518 C1517 1.524 . S
C1518 C1519 1.397 . S
C1518 C1523 1.363 . S
C1519 H1490 0.950 . S
C1519 C1518 1.397 . S
C1519 C1520 1.334 . S
C1520 H1491 0.950 . S
C1520 C1519 1.334 . S
C1520 C1521 1.287 . S
C1521 C1520 1.287 . S
C1521 C1522 1.524 . S
C1521 H1524 0.999 . S
C1522 H1492 0.950 . S
C1522 C1521 1.524 . S
C1522 C1523 1.415 . S
C1523 H1493 0.950 . S
C1523 C1518 1.363 . S
C1523 C1522 1.415 . S
H1524 C1521 0.999 . S
H1525 C1506 0.913 . S
H1526 C1544 0.951 . S
H1527 C1546 0.951 . S
H1528 C1548 0.950 . S
H1529 C1549 0.950 . S
H1530 C1551 0.950 . S
H1531 C1554 0.950 . S
H1532 C1555 0.950 . S
H1533 C1557 0.950 . S
H1534 C1558 0.950 . S
H1535 C1559 0.951 . S
H1536 C1561 0.951 . S
H1537 C1563 0.950 . S
H1538 C1564 0.950 . S
H1539 C1566 0.950 . S
H1540 C1569 0.950 . S
H1541 C1570 0.950 . S
H1542 C1572 0.950 . S
H1543 C1573 0.950 . S
C1544 H1526 0.951 . S
C1544 C1545 1.366 . S
C1544 C1546 1.388 . S
C1545 C1544 1.366 . S
C1545 C1549 1.385 . S
C1546 H1527 0.951 . S
C1546 C1544 1.388 . S
C1546 C1547 1.366 . S
C1547 C1546 1.366 . S
C1547 C1548 1.414 . S
C1547 C1550 1.499 . S
C1548 H1528 0.950 . S
C1548 C1547 1.414 . S
C1548 C1549 1.374 . S
C1549 H1529 0.950 . S
C1549 C1545 1.385 . S
C1549 C1548 1.374 . S
C1550 C1547 1.499 . S
C1550 C1551 1.373 . S
C1550 C1552 1.389 . S
C1551 H1530 0.950 . S
C1551 C1550 1.373 . S
C1551 C1567 1.377 . S
C1552 C1550 1.389 . S
C1552 C1553 1.524 . S
C1552 C1566 1.377 . S
C1553 C1552 1.524 . S
C1553 C1554 1.397 . S
C1553 C1558 1.363 . S
C1554 H1531 0.950 . S
C1554 C1553 1.397 . S
C1554 C1555 1.334 . S
C1555 H1532 0.950 . S
C1555 C1554 1.334 . S
C1555 C1556 1.287 . S
C1556 C1555 1.287 . S
C1556 C1557 1.524 . S
C1556 H1575 0.913 . S
C1557 H1533 0.950 . S
C1557 C1556 1.524 . S
C1557 C1558 1.415 . S
C1558 H1534 0.950 . S
C1558 C1553 1.363 . S
C1558 C1557 1.415 . S
C1559 H1535 0.951 . S
C1559 C1560 1.366 . S
C1559 C1561 1.388 . S
C1560 C1559 1.366 . S
C1560 C1564 1.385 . S
C1561 H1536 0.951 . S
C1561 C1559 1.388 . S
C1561 C1562 1.366 . S
C1562 C1561 1.366 . S
C1562 C1563 1.414 . S
C1562 C1565 1.499 . S
C1563 H1537 0.950 . S
C1563 C1562 1.414 . S
C1563 C1564 1.374 . S
C1564 H1538 0.950 . S
C1564 C1560 1.385 . S
C1564 C1563 1.374 . S
C1565 C1562 1.499 . S
C1565 C1566 1.373 . S
C1565 C1567 1.389 . S
C1566 H1539 0.950 . S
C1566 C1552 1.377 . S
C1566 C1565 1.373 . S
C1567 C1551 1.377 . S
C1567 C1565 1.389 . S
C1567 C1568 1.524 . S
C1568 C1567 1.524 . S
C1568 C1569 1.397 . S
C1568 C1573 1.363 . S
C1569 H1540 0.950 . S
C1569 C1568 1.397 . S
C1569 C1570 1.334 . S
C1570 H1541 0.950 . S
C1570 C1569 1.334 . S
C1570 C1571 1.287 . S
C1571 C1570 1.287 . S
C1571 C1572 1.524 . S
C1571 H1574 0.999 . S
C1572 H1542 0.950 . S
C1572 C1571 1.524 . S
C1572 C1573 1.415 . S
C1573 H1543 0.950 . S
C1573 C1568 1.363 . S
C1573 C1572 1.415 . S
H1574 C1571 0.999 . S
H1575 C1556 0.913 . S
H1576 C1594 0.951 . S
H1577 C1596 0.951 . S
H1578 C1598 0.950 1_556 S
H1579 C1599 0.950 . S
H1580 C1601 0.950 . S
H1581 C1604 0.950 . S
H1582 C1605 0.950 . S
H1583 C1607 0.950 . S
H1584 C1608 0.950 . S
H1585 C1609 0.951 . S
H1586 C1611 0.951 . S
H1587 C1613 0.950 1_554 S
H1588 C1614 0.950 . S
H1589 C1616 0.950 . S
H1590 C1619 0.950 . S
H1591 C1620 0.950 . S
H1592 C1622 0.950 . S
H1593 C1623 0.950 . S
C1594 H1576 0.951 . S
C1594 C1595 1.366 . S
C1594 C1596 1.388 . S
C1595 C1594 1.366 . S
C1595 C1599 1.385 . S
C1596 H1577 0.951 . S
C1596 C1594 1.388 . S
C1596 C1597 1.366 . S
C1597 C1596 1.366 . S
C1597 C1598 1.414 . S
C1597 C1600 1.499 . S
C1598 H1578 0.950 1_554 S
C1598 C1597 1.414 . S
C1598 C1599 1.374 . S
C1599 H1579 0.950 . S
C1599 C1595 1.385 . S
C1599 C1598 1.374 . S
C1600 C1597 1.499 . S
C1600 C1601 1.373 1_554 S
C1600 C1602 1.389 . S
C1601 H1580 0.950 . S
C1601 C1600 1.373 1_556 S
C1601 C1617 1.377 . S
C1602 C1600 1.389 . S
C1602 C1603 1.524 . S
C1602 C1616 1.377 . S
C1603 C1602 1.524 . S
C1603 C1604 1.397 . S
C1603 C1608 1.363 . S
C1604 H1581 0.950 . S
C1604 C1603 1.397 . S
C1604 C1605 1.334 . S
C1605 H1582 0.950 . S
C1605 C1604 1.334 . S
C1605 C1606 1.287 . S
C1606 C1605 1.287 . S
C1606 C1607 1.524 . S
C1606 H1625 0.913 . S
C1607 H1583 0.950 . S
C1607 C1606 1.524 . S
C1607 C1608 1.415 . S
C1608 H1584 0.950 . S
C1608 C1603 1.363 . S
C1608 C1607 1.415 . S
C1609 H1585 0.951 . S
C1609 C1610 1.366 . S
C1609 C1611 1.388 . S
C1610 C1609 1.366 . S
C1610 C1614 1.385 . S
C1611 H1586 0.951 . S
C1611 C1609 1.388 . S
C1611 C1612 1.366 . S
C1612 C1611 1.366 . S
C1612 C1613 1.414 . S
C1612 C1615 1.499 . S
C1613 H1587 0.950 1_556 S
C1613 C1612 1.414 . S
C1613 C1614 1.374 . S
C1614 H1588 0.950 . S
C1614 C1610 1.385 . S
C1614 C1613 1.374 . S
C1615 C1612 1.499 . S
C1615 C1616 1.373 1_556 S
C1615 C1617 1.389 . S
C1616 H1589 0.950 . S
C1616 C1602 1.377 . S
C1616 C1615 1.373 1_554 S
C1617 C1601 1.377 . S
C1617 C1615 1.389 . S
C1617 C1618 1.524 . S
C1618 C1617 1.524 . S
C1618 C1619 1.397 . S
C1618 C1623 1.363 . S
C1619 H1590 0.950 . S
C1619 C1618 1.397 . S
C1619 C1620 1.334 . S
C1620 H1591 0.950 . S
C1620 C1619 1.334 . S
C1620 C1621 1.287 . S
C1621 C1620 1.287 . S
C1621 C1622 1.524 . S
C1621 H1624 0.999 . S
C1622 H1592 0.950 . S
C1622 C1621 1.524 . S
C1622 C1623 1.415 . S
C1623 H1593 0.950 . S
C1623 C1618 1.363 . S
C1623 C1622 1.415 . S
H1624 C1621 0.999 . S
H1625 C1606 0.913 . S
H1626 C1644 0.951 . S
H1627 C1646 0.951 . S
H1628 C1648 0.950 . S
H1629 C1649 0.950 . S
H1630 C1651 0.950 . S
H1631 C1654 0.950 . S
H1632 C1655 0.950 . S
H1633 C1657 0.950 . S
H1634 C1658 0.950 . S
H1635 C1659 0.951 . S
H1636 C1661 0.951 . S
H1637 C1663 0.950 . S
H1638 C1664 0.950 . S
H1639 C1666 0.950 . S
H1640 C1669 0.950 . S
H1641 C1670 0.950 . S
H1642 C1672 0.950 . S
H1643 C1673 0.950 . S
C1644 H1626 0.951 . S
C1644 C1645 1.366 . S
C1644 C1646 1.388 . S
C1645 C1644 1.366 . S
C1645 C1649 1.385 . S
C1646 H1627 0.951 . S
C1646 C1644 1.388 . S
C1646 C1647 1.366 . S
C1647 C1646 1.366 . S
C1647 C1648 1.414 . S
C1647 C1650 1.499 . S
C1648 H1628 0.950 . S
C1648 C1647 1.414 . S
C1648 C1649 1.374 . S
C1649 H1629 0.950 . S
C1649 C1645 1.385 . S
C1649 C1648 1.374 . S
C1650 C1647 1.499 . S
C1650 C1651 1.373 . S
C1650 C1652 1.389 . S
C1651 H1630 0.950 . S
C1651 C1650 1.373 . S
C1651 C1667 1.377 . S
C1652 C1650 1.389 . S
C1652 C1653 1.524 . S
C1652 C1666 1.377 . S
C1653 C1652 1.524 . S
C1653 C1654 1.397 . S
C1653 C1658 1.363 . S
C1654 H1631 0.950 . S
C1654 C1653 1.397 . S
C1654 C1655 1.334 . S
C1655 H1632 0.950 . S
C1655 C1654 1.334 . S
C1655 C1656 1.287 . S
C1656 C1655 1.287 . S
C1656 C1657 1.524 . S
C1656 H1675 0.913 . S
C1657 H1633 0.950 . S
C1657 C1656 1.524 . S
C1657 C1658 1.415 . S
C1658 H1634 0.950 . S
C1658 C1653 1.363 . S
C1658 C1657 1.415 . S
C1659 H1635 0.951 . S
C1659 C1660 1.366 . S
C1659 C1661 1.388 . S
C1660 C1659 1.366 . S
C1660 C1664 1.385 . S
C1661 H1636 0.951 . S
C1661 C1659 1.388 . S
C1661 C1662 1.366 . S
C1662 C1661 1.366 . S
C1662 C1663 1.414 . S
C1662 C1665 1.499 . S
C1663 H1637 0.950 . S
C1663 C1662 1.414 . S
C1663 C1664 1.374 . S
C1664 H1638 0.950 . S
C1664 C1660 1.385 . S
C1664 C1663 1.374 . S
C1665 C1662 1.499 . S
C1665 C1666 1.373 . S
C1665 C1667 1.389 . S
C1666 H1639 0.950 . S
C1666 C1652 1.377 . S
C1666 C1665 1.373 . S
C1667 C1651 1.377 . S
C1667 C1665 1.389 . S
C1667 C1668 1.524 . S
C1668 C1667 1.524 . S
C1668 C1669 1.397 . S
C1668 C1673 1.363 . S
C1669 H1640 0.950 . S
C1669 C1668 1.397 . S
C1669 C1670 1.334 . S
C1670 H1641 0.950 . S
C1670 C1669 1.334 . S
C1670 C1671 1.287 . S
C1671 C1670 1.287 . S
C1671 C1672 1.524 . S
C1671 H1674 0.999 . S
C1672 H1642 0.950 . S
C1672 C1671 1.524 . S
C1672 C1673 1.415 . S
C1673 H1643 0.950 . S
C1673 C1668 1.363 . S
C1673 C1672 1.415 . S
H1674 C1671 0.999 . S
H1675 C1656 0.913 . S
H1676 C1694 0.951 . S
H1677 C1696 0.951 . S
H1678 C1698 0.955 . S
H1679 C1699 0.950 . S
H1680 C1701 0.950 . S
H1681 C1704 0.950 . S
H1682 C1705 0.950 . S
H1683 C1707 0.950 . S
H1684 C1708 0.950 . S
H1685 C1709 0.951 . S
H1686 C1711 0.951 . S
H1687 C1713 0.985 . S
H1688 C1714 0.950 . S
H1689 C1716 0.950 . S
H1690 C1719 0.950 . S
H1691 C1720 0.950 . S
H1692 C1722 0.950 . S
H1693 C1723 0.950 . S
C1694 H1676 0.951 . S
C1694 C1695 1.366 . S
C1694 C1696 1.388 . S
C1695 C1694 1.366 . S
C1695 C1699 1.385 . S
C1696 H1677 0.951 . S
C1696 C1694 1.388 . S
C1696 C1697 1.366 . S
C1697 C1696 1.366 . S
C1697 C1698 1.414 . S
C1697 C1700 1.499 . S
C1698 H1678 0.955 . S
C1698 C1697 1.414 . S
C1698 C1699 1.374 . S
C1699 H1679 0.950 . S
C1699 C1695 1.385 . S
C1699 C1698 1.374 . S
C1700 C1697 1.499 . S
C1700 C1701 1.373 1_554 S
C1700 C1702 1.389 . S
C1701 H1680 0.950 . S
C1701 C1700 1.373 1_556 S
C1701 C1717 1.377 . S
C1702 C1700 1.389 . S
C1702 C1703 1.524 . S
C1702 C1716 1.377 . S
C1703 C1702 1.524 . S
C1703 C1704 1.397 . S
C1703 C1708 1.363 . S
C1704 H1681 0.950 . S
C1704 C1703 1.397 . S
C1704 C1705 1.334 . S
C1705 H1682 0.950 . S
C1705 C1704 1.334 . S
C1705 C1706 1.287 . S
C1706 C1705 1.287 . S
C1706 C1707 1.524 . S
C1706 H1725 0.913 . S
C1707 H1683 0.950 . S
C1707 C1706 1.524 . S
C1707 C1708 1.415 . S
C1708 H1684 0.950 . S
C1708 C1703 1.363 . S
C1708 C1707 1.415 . S
C1709 H1685 0.951 . S
C1709 C1710 1.366 . S
C1709 C1711 1.388 . S
C1710 C1709 1.366 . S
C1710 C1714 1.385 . S
C1711 H1686 0.951 . S
C1711 C1709 1.388 . S
C1711 C1712 1.366 . S
C1712 C1711 1.366 . S
C1712 C1713 1.414 . S
C1712 C1715 1.499 . S
C1713 H1687 0.985 . S
C1713 C1712 1.414 . S
C1713 C1714 1.374 . S
C1714 H1688 0.950 . S
C1714 C1710 1.385 . S
C1714 C1713 1.374 . S
C1715 C1712 1.499 . S
C1715 C1716 1.373 1_556 S
C1715 C1717 1.389 . S
C1716 H1689 0.950 . S
C1716 C1702 1.377 . S
C1716 C1715 1.373 1_554 S
C1717 C1701 1.377 . S
C1717 C1715 1.389 . S
C1717 C1718 1.524 . S
C1718 C1717 1.524 . S
C1718 C1719 1.397 . S
C1718 C1723 1.363 . S
C1719 H1690 0.950 . S
C1719 C1718 1.397 . S
C1719 C1720 1.334 . S
C1720 H1691 0.950 . S
C1720 C1719 1.334 . S
C1720 C1721 1.287 . S
C1721 C1720 1.287 . S
C1721 C1722 1.524 . S
C1721 H1724 0.999 . S
C1722 H1692 0.950 . S
C1722 C1721 1.524 . S
C1722 C1723 1.415 . S
C1723 H1693 0.950 . S
C1723 C1718 1.363 . S
C1723 C1722 1.415 . S
H1724 C1721 0.999 . S
H1725 C1706 0.913 . S
H1726 C1744 0.951 . S
H1727 C1746 0.951 . S
H1728 C1748 0.950 . S
H1729 C1749 0.950 . S
H1730 C1751 0.950 . S
H1731 C1754 0.950 . S
H1732 C1755 0.950 . S
H1733 C1757 0.950 . S
H1734 C1758 0.950 . S
H1735 C1759 0.951 . S
H1736 C1761 0.951 . S
H1737 C1763 0.950 . S
H1738 C1764 0.950 . S
H1739 C1766 0.950 . S
H1740 C1769 0.950 . S
H1741 C1770 0.950 . S
H1742 C1772 0.950 . S
H1743 C1773 0.950 . S
C1744 H1726 0.951 . S
C1744 C1745 1.366 . S
C1744 C1746 1.388 . S
C1745 C1744 1.366 . S
C1745 C1749 1.385 . S
C1746 H1727 0.951 . S
C1746 C1744 1.388 . S
C1746 C1747 1.366 . S
C1747 C1746 1.366 . S
C1747 C1748 1.414 . S
C1747 C1750 1.499 . S
C1748 H1728 0.950 . S
C1748 C1747 1.414 . S
C1748 C1749 1.374 . S
C1749 H1729 0.950 . S
C1749 C1745 1.385 . S
C1749 C1748 1.374 . S
C1750 C1747 1.499 . S
C1750 C1751 1.373 . S
C1750 C1752 1.389 . S
C1751 H1730 0.950 . S
C1751 C1750 1.373 . S
C1751 C1767 1.377 . S
C1752 C1750 1.389 . S
C1752 C1753 1.524 . S
C1752 C1766 1.377 . S
C1753 C1752 1.524 . S
C1753 C1754 1.397 . S
C1753 C1758 1.363 . S
C1754 H1731 0.950 . S
C1754 C1753 1.397 . S
C1754 C1755 1.334 . S
C1755 H1732 0.950 . S
C1755 C1754 1.334 . S
C1755 C1756 1.287 . S
C1756 C1755 1.287 . S
C1756 C1757 1.524 . S
C1756 H1775 0.913 . S
C1757 H1733 0.950 . S
C1757 C1756 1.524 . S
C1757 C1758 1.415 . S
C1758 H1734 0.950 . S
C1758 C1753 1.363 . S
C1758 C1757 1.415 . S
C1759 H1735 0.951 . S
C1759 C1760 1.366 . S
C1759 C1761 1.388 . S
C1760 C1759 1.366 . S
C1760 C1764 1.385 . S
C1761 H1736 0.951 . S
C1761 C1759 1.388 . S
C1761 C1762 1.366 . S
C1762 C1761 1.366 . S
C1762 C1763 1.414 . S
C1762 C1765 1.499 . S
C1763 H1737 0.950 . S
C1763 C1762 1.414 . S
C1763 C1764 1.374 . S
C1764 H1738 0.950 . S
C1764 C1760 1.385 . S
C1764 C1763 1.374 . S
C1765 C1762 1.499 . S
C1765 C1766 1.373 . S
C1765 C1767 1.389 . S
C1766 H1739 0.950 . S
C1766 C1752 1.377 . S
C1766 C1765 1.373 . S
C1767 C1751 1.377 . S
C1767 C1765 1.389 . S
C1767 C1768 1.524 . S
C1768 C1767 1.524 . S
C1768 C1769 1.397 . S
C1768 C1773 1.363 . S
C1769 H1740 0.950 . S
C1769 C1768 1.397 . S
C1769 C1770 1.334 . S
C1770 H1741 0.950 . S
C1770 C1769 1.334 . S
C1770 C1771 1.287 . S
C1771 C1770 1.287 . S
C1771 C1772 1.524 . S
C1771 H1774 0.999 . S
C1772 H1742 0.950 . S
C1772 C1771 1.524 . S
C1772 C1773 1.415 . S
C1773 H1743 0.950 . S
C1773 C1768 1.363 . S
C1773 C1772 1.415 . S
H1774 C1771 0.999 . S
H1775 C1756 0.913 . S
H1776 C1794 0.951 . S
H1777 C1796 0.951 . S
H1778 C1798 0.950 1_554 S
H1779 C1799 0.950 . S
H1780 C1801 0.950 . S
H1781 C1804 0.950 . S
H1782 C1805 0.950 . S
H1783 C1807 0.950 . S
H1784 C1808 0.950 . S
H1785 C1809 0.951 . S
H1786 C1811 0.951 . S
H1787 C1813 0.950 1_556 S
H1788 C1814 0.950 . S
H1789 C1816 0.950 . S
H1790 C1819 0.950 . S
H1791 C1820 0.950 . S
H1792 C1822 0.950 . S
H1793 C1823 0.950 . S
C1794 H1776 0.951 . S
C1794 C1795 1.366 . S
C1794 C1796 1.388 . S
C1795 C1794 1.366 . S
C1795 C1799 1.385 . S
C1796 H1777 0.951 . S
C1796 C1794 1.388 . S
C1796 C1797 1.366 . S
C1797 C1796 1.366 . S
C1797 C1798 1.414 . S
C1797 C1800 1.499 . S
C1798 H1778 0.950 1_556 S
C1798 C1797 1.414 . S
C1798 C1799 1.374 . S
C1799 H1779 0.950 . S
C1799 C1795 1.385 . S
C1799 C1798 1.374 . S
C1800 C1797 1.499 . S
C1800 C1801 1.373 1_556 S
C1800 C1802 1.389 . S
C1801 H1780 0.950 . S
C1801 C1800 1.373 1_554 S
C1801 C1817 1.377 . S
C1802 C1800 1.389 . S
C1802 C1803 1.524 . S
C1802 C1816 1.377 . S
C1803 C1802 1.524 . S
C1803 C1804 1.397 . S
C1803 C1808 1.363 . S
C1804 H1781 0.950 . S
C1804 C1803 1.397 . S
C1804 C1805 1.334 . S
C1805 H1782 0.950 . S
C1805 C1804 1.334 . S
C1805 C1806 1.287 . S
C1806 C1805 1.287 . S
C1806 C1807 1.524 . S
C1806 H1825 0.913 . S
C1807 H1783 0.950 . S
C1807 C1806 1.524 . S
C1807 C1808 1.415 . S
C1808 H1784 0.950 . S
C1808 C1803 1.363 . S
C1808 C1807 1.415 . S
C1809 H1785 0.951 . S
C1809 C1810 1.366 . S
C1809 C1811 1.388 . S
C1810 C1809 1.366 . S
C1810 C1814 1.385 . S
C1811 H1786 0.951 . S
C1811 C1809 1.388 . S
C1811 C1812 1.366 . S
C1812 C1811 1.366 . S
C1812 C1813 1.414 . S
C1812 C1815 1.499 . S
C1813 H1787 0.950 1_554 S
C1813 C1812 1.414 . S
C1813 C1814 1.374 . S
C1814 H1788 0.950 . S
C1814 C1810 1.385 . S
C1814 C1813 1.374 . S
C1815 C1812 1.499 . S
C1815 C1816 1.373 1_554 S
C1815 C1817 1.389 . S
C1816 H1789 0.950 . S
C1816 C1802 1.377 . S
C1816 C1815 1.373 1_556 S
C1817 C1801 1.377 . S
C1817 C1815 1.389 . S
C1817 C1818 1.524 . S
C1818 C1817 1.524 . S
C1818 C1819 1.397 . S
C1818 C1823 1.363 . S
C1819 H1790 0.950 . S
C1819 C1818 1.397 . S
C1819 C1820 1.334 . S
C1820 H1791 0.950 . S
C1820 C1819 1.334 . S
C1820 C1821 1.287 . S
C1821 C1820 1.287 . S
C1821 C1822 1.524 . S
C1821 H1824 0.999 . S
C1822 H1792 0.950 . S
C1822 C1821 1.524 . S
C1822 C1823 1.415 . S
C1823 H1793 0.950 . S
C1823 C1818 1.363 . S
C1823 C1822 1.415 . S
H1824 C1821 0.999 . S
H1825 C1806 0.913 . S
H1826 C1844 0.951 . S
H1827 C1846 0.951 . S
H1828 C1848 0.950 . S
H1829 C1849 0.950 . S
H1830 C1851 0.950 . S
H1831 C1854 0.950 . S
H1832 C1855 0.950 . S
H1833 C1857 0.950 . S
H1834 C1858 0.950 . S
H1835 C1859 0.951 . S
H1836 C1861 0.951 . S
H1837 C1863 0.950 . S
H1838 C1864 0.950 . S
H1839 C1866 0.950 . S
H1840 C1869 0.950 . S
H1841 C1870 0.950 . S
H1842 C1872 0.950 . S
H1843 C1873 0.950 . S
C1844 H1826 0.951 . S
C1844 C1845 1.366 . S
C1844 C1846 1.388 . S
C1845 C1844 1.366 . S
C1845 C1849 1.385 . S
C1846 H1827 0.951 . S
C1846 C1844 1.388 . S
C1846 C1847 1.366 . S
C1847 C1846 1.366 . S
C1847 C1848 1.414 . S
C1847 C1850 1.499 . S
C1848 H1828 0.950 . S
C1848 C1847 1.414 . S
C1848 C1849 1.374 . S
C1849 H1829 0.950 . S
C1849 C1845 1.385 . S
C1849 C1848 1.374 . S
C1850 C1847 1.499 . S
C1850 C1851 1.373 . S
C1850 C1852 1.389 . S
C1851 H1830 0.950 . S
C1851 C1850 1.373 . S
C1851 C1867 1.377 . S
C1852 C1850 1.389 . S
C1852 C1853 1.524 . S
C1852 C1866 1.377 . S
C1853 C1852 1.524 . S
C1853 C1854 1.397 . S
C1853 C1858 1.363 . S
C1854 H1831 0.950 . S
C1854 C1853 1.397 . S
C1854 C1855 1.334 . S
C1855 H1832 0.950 . S
C1855 C1854 1.334 . S
C1855 C1856 1.287 . S
C1856 C1855 1.287 . S
C1856 C1857 1.524 . S
C1856 H1875 0.913 . S
C1857 H1833 0.950 . S
C1857 C1856 1.524 . S
C1857 C1858 1.415 . S
C1858 H1834 0.950 . S
C1858 C1853 1.363 . S
C1858 C1857 1.415 . S
C1859 H1835 0.951 . S
C1859 C1860 1.366 . S
C1859 C1861 1.388 . S
C1860 C1859 1.366 . S
C1860 C1864 1.385 . S
C1861 H1836 0.951 . S
C1861 C1859 1.388 . S
C1861 C1862 1.366 . S
C1862 C1861 1.366 . S
C1862 C1863 1.414 . S
C1862 C1865 1.499 . S
C1863 H1837 0.950 . S
C1863 C1862 1.414 . S
C1863 C1864 1.374 . S
C1864 H1838 0.950 . S
C1864 C1860 1.385 . S
C1864 C1863 1.374 . S
C1865 C1862 1.499 . S
C1865 C1866 1.373 . S
C1865 C1867 1.389 . S
C1866 H1839 0.950 . S
C1866 C1852 1.377 . S
C1866 C1865 1.373 . S
C1867 C1851 1.377 . S
C1867 C1865 1.389 . S
C1867 C1868 1.524 . S
C1868 C1867 1.524 . S
C1868 C1869 1.397 . S
C1868 C1873 1.363 . S
C1869 H1840 0.950 . S
C1869 C1868 1.397 . S
C1869 C1870 1.334 . S
C1870 H1841 0.950 . S
C1870 C1869 1.334 . S
C1870 C1871 1.287 . S
C1871 C1870 1.287 . S
C1871 C1872 1.524 . S
C1871 H1874 0.999 . S
C1872 H1842 0.950 . S
C1872 C1871 1.524 . S
C1872 C1873 1.415 . S
C1873 H1843 0.950 . S
C1873 C1868 1.363 . S
C1873 C1872 1.415 . S
H1874 C1871 0.999 . S
H1875 C1856 0.913 . S
H1876 C1894 0.951 . S
H1877 C1896 0.951 . S
H1878 C1898 0.950 . S
H1879 C1899 0.950 . S
H1880 C1901 0.950 . S
H1881 C1904 0.950 . S
H1882 C1905 0.950 . S
H1883 C1907 0.950 . S
H1884 C1908 0.950 . S
H1885 C1909 0.951 . S
H1886 C1911 0.951 . S
H1887 C1913 0.950 . S
H1888 C1914 0.950 . S
H1889 C1916 0.950 . S
H1890 C1919 0.950 . S
H1891 C1920 0.950 . S
H1892 C1922 0.950 . S
H1893 C1923 0.950 . S
C1894 H1876 0.951 . S
C1894 C1895 1.366 . S
C1894 C1896 1.388 . S
C1895 C1894 1.366 . S
C1895 C1899 1.385 . S
C1896 H1877 0.951 . S
C1896 C1894 1.388 . S
C1896 C1897 1.366 . S
C1897 C1896 1.366 . S
C1897 C1898 1.414 . S
C1897 C1900 1.499 . S
C1898 H1878 0.950 . S
C1898 C1897 1.414 . S
C1898 C1899 1.374 . S
C1899 H1879 0.950 . S
C1899 C1895 1.385 . S
C1899 C1898 1.374 . S
C1900 C1897 1.499 . S
C1900 C1901 1.373 1_554 S
C1900 C1902 1.389 . S
C1901 H1880 0.950 . S
C1901 C1900 1.373 1_556 S
C1901 C1917 1.377 . S
C1902 C1900 1.389 . S
C1902 C1903 1.524 . S
C1902 C1916 1.377 . S
C1903 C1902 1.524 . S
C1903 C1904 1.397 . S
C1903 C1908 1.363 . S
C1904 H1881 0.950 . S
C1904 C1903 1.397 . S
C1904 C1905 1.334 . S
C1905 H1882 0.950 . S
C1905 C1904 1.334 . S
C1905 C1906 1.287 . S
C1906 C1905 1.287 . S
C1906 C1907 1.524 . S
C1906 H1925 0.913 . S
C1907 H1883 0.950 . S
C1907 C1906 1.524 . S
C1907 C1908 1.415 . S
C1908 H1884 0.950 . S
C1908 C1903 1.363 . S
C1908 C1907 1.415 . S
C1909 H1885 0.951 . S
C1909 C1910 1.366 . S
C1909 C1911 1.388 . S
C1910 C1909 1.366 . S
C1910 C1914 1.385 . S
C1911 H1886 0.951 . S
C1911 C1909 1.388 . S
C1911 C1912 1.366 . S
C1912 C1911 1.366 . S
C1912 C1913 1.414 . S
C1912 C1915 1.499 . S
C1913 H1887 0.950 . S
C1913 C1912 1.414 . S
C1913 C1914 1.374 . S
C1914 H1888 0.950 . S
C1914 C1910 1.385 . S
C1914 C1913 1.374 . S
C1915 C1912 1.499 . S
C1915 C1916 1.373 1_556 S
C1915 C1917 1.389 . S
C1916 H1889 0.950 . S
C1916 C1902 1.377 . S
C1916 C1915 1.373 1_554 S
C1917 C1901 1.377 . S
C1917 C1915 1.389 . S
C1917 C1918 1.524 . S
C1918 C1917 1.524 . S
C1918 C1919 1.397 . S
C1918 C1923 1.363 . S
C1919 H1890 0.950 . S
C1919 C1918 1.397 . S
C1919 C1920 1.334 . S
C1920 H1891 0.950 . S
C1920 C1919 1.334 . S
C1920 C1921 1.287 . S
C1921 C1920 1.287 . S
C1921 C1922 1.524 . S
C1921 H1924 0.999 . S
C1922 H1892 0.950 . S
C1922 C1921 1.524 . S
C1922 C1923 1.415 . S
C1923 H1893 0.950 . S
C1923 C1918 1.363 . S
C1923 C1922 1.415 . S
H1924 C1921 0.999 . S
H1925 C1906 0.913 . S
H1926 C1944 0.951 . S
H1927 C1946 0.951 . S
H1928 C1948 0.950 . S
H1929 C1949 0.950 . S
H1930 C1951 0.950 . S
H1931 C1954 0.950 . S
H1932 C1955 0.950 . S
H1933 C1957 0.950 . S
H1934 C1958 0.950 . S
H1935 C1959 0.951 . S
H1936 C1961 0.951 . S
H1937 C1963 0.950 . S
H1938 C1964 0.950 . S
H1939 C1966 0.950 . S
H1940 C1969 0.950 . S
H1941 C1970 0.950 . S
H1942 C1972 0.950 . S
H1943 C1973 0.950 . S
C1944 H1926 0.951 . S
C1944 C1945 1.366 . S
C1944 C1946 1.388 . S
C1945 C1944 1.366 . S
C1945 C1949 1.385 . S
C1946 H1927 0.951 . S
C1946 C1944 1.388 . S
C1946 C1947 1.366 . S
C1947 C1946 1.366 . S
C1947 C1948 1.414 . S
C1947 C1950 1.499 . S
C1948 H1928 0.950 . S
C1948 C1947 1.414 . S
C1948 C1949 1.374 . S
C1949 H1929 0.950 . S
C1949 C1945 1.385 . S
C1949 C1948 1.374 . S
C1950 C1947 1.499 . S
C1950 C1951 1.373 . S
C1950 C1952 1.389 . S
C1951 H1930 0.950 . S
C1951 C1950 1.373 . S
C1951 C1967 1.377 . S
C1952 C1950 1.389 . S
C1952 C1953 1.524 . S
C1952 C1966 1.377 . S
C1953 C1952 1.524 . S
C1953 C1954 1.397 . S
C1953 C1958 1.363 . S
C1954 H1931 0.950 . S
C1954 C1953 1.397 . S
C1954 C1955 1.334 . S
C1955 H1932 0.950 . S
C1955 C1954 1.334 . S
C1955 C1956 1.287 . S
C1956 C1955 1.287 . S
C1956 C1957 1.524 . S
C1956 H1975 0.913 . S
C1957 H1933 0.950 . S
C1957 C1956 1.524 . S
C1957 C1958 1.415 . S
C1958 H1934 0.950 . S
C1958 C1953 1.363 . S
C1958 C1957 1.415 . S
C1959 H1935 0.951 . S
C1959 C1960 1.366 . S
C1959 C1961 1.388 . S
C1960 C1959 1.366 . S
C1960 C1964 1.385 . S
C1961 H1936 0.951 . S
C1961 C1959 1.388 . S
C1961 C1962 1.366 . S
C1962 C1961 1.366 . S
C1962 C1963 1.414 . S
C1962 C1965 1.499 . S
C1963 H1937 0.950 . S
C1963 C1962 1.414 . S
C1963 C1964 1.374 . S
C1964 H1938 0.950 . S
C1964 C1960 1.385 . S
C1964 C1963 1.374 . S
C1965 C1962 1.499 . S
C1965 C1966 1.373 . S
C1965 C1967 1.389 . S
C1966 H1939 0.950 . S
C1966 C1952 1.377 . S
C1966 C1965 1.373 . S
C1967 C1951 1.377 . S
C1967 C1965 1.389 . S
C1967 C1968 1.524 . S
C1968 C1967 1.524 . S
C1968 C1969 1.397 . S
C1968 C1973 1.363 . S
C1969 H1940 0.950 . S
C1969 C1968 1.397 . S
C1969 C1970 1.334 . S
C1970 H1941 0.950 . S
C1970 C1969 1.334 . S
C1970 C1971 1.287 . S
C1971 C1970 1.287 . S
C1971 C1972 1.524 . S
C1971 H1974 0.999 . S
C1972 H1942 0.950 . S
C1972 C1971 1.524 . S
C1972 C1973 1.415 . S
C1973 H1943 0.950 . S
C1973 C1968 1.363 . S
C1973 C1972 1.415 . S
H1974 C1971 0.999 . S
H1975 C1956 0.913 . S
H1976 C1994 0.951 . S
H1977 C1996 0.951 . S
H1978 C1998 0.950 . S
H1979 C1999 0.950 . S
H1980 C2001 0.950 . S
H1981 C2004 0.950 . S
H1982 C2005 0.950 . S
H1983 C2007 0.950 . S
H1984 C2008 0.950 . S
H1985 C2009 0.951 . S
H1986 C2011 0.951 . S
H1987 C2013 0.950 . S
H1988 C2014 0.950 . S
H1989 C2016 0.950 . S
H1990 C2019 0.950 . S
H1991 C2020 0.950 . S
H1992 C2022 0.950 . S
H1993 C2023 0.950 . S
C1994 H1976 0.951 . S
C1994 C1995 1.366 . S
C1994 C1996 1.388 . S
C1995 C1994 1.366 . S
C1995 C1999 1.385 . S
C1996 H1977 0.951 . S
C1996 C1994 1.388 . S
C1996 C1997 1.366 . S
C1997 C1996 1.366 . S
C1997 C1998 1.414 . S
C1997 C2000 1.499 . S
C1998 H1978 0.950 . S
C1998 C1997 1.414 . S
C1998 C1999 1.374 . S
C1999 H1979 0.950 . S
C1999 C1995 1.385 . S
C1999 C1998 1.374 . S
C2000 C1997 1.499 . S
C2000 C2001 1.373 . S
C2000 C2002 1.389 1_556 S
C2001 H1980 0.950 . S
C2001 C2000 1.373 . S
C2001 C2017 1.377 1_545 S
C2002 C2000 1.389 1_554 S
C2002 C2003 1.524 . S
C2002 C2016 1.377 1_545 S
C2003 C2002 1.524 . S
C2003 C2004 1.397 . S
C2003 C2008 1.363 . S
C2004 H1981 0.950 . S
C2004 C2003 1.397 . S
C2004 C2005 1.334 . S
C2005 H1982 0.950 . S
C2005 C2004 1.334 . S
C2005 C2006 1.287 . S
C2006 C2005 1.287 . S
C2006 C2007 1.524 . S
C2006 H2025 0.913 . S
C2007 H1983 0.950 . S
C2007 C2006 1.524 . S
C2007 C2008 1.415 . S
C2008 H1984 0.950 . S
C2008 C2003 1.363 . S
C2008 C2007 1.415 . S
C2009 H1985 0.951 . S
C2009 C2010 1.366 . S
C2009 C2011 1.388 . S
C2010 C2009 1.366 . S
C2010 C2014 1.385 . S
C2011 H1986 0.951 . S
C2011 C2009 1.388 . S
C2011 C2012 1.366 . S
C2012 C2011 1.366 . S
C2012 C2013 1.414 . S
C2012 C2015 1.499 . S
C2013 H1987 0.950 . S
C2013 C2012 1.414 . S
C2013 C2014 1.374 . S
C2014 H1988 0.950 . S
C2014 C2010 1.385 . S
C2014 C2013 1.374 . S
C2015 C2012 1.499 . S
C2015 C2016 1.373 . S
C2015 C2017 1.389 1_554 S
C2016 H1989 0.950 . S
C2016 C2002 1.377 1_565 S
C2016 C2015 1.373 . S
C2017 C2001 1.377 1_565 S
C2017 C2015 1.389 1_556 S
C2017 C2018 1.524 . S
C2018 C2017 1.524 . S
C2018 C2019 1.397 . S
C2018 C2023 1.363 . S
C2019 H1990 0.950 . S
C2019 C2018 1.397 . S
C2019 C2020 1.334 . S
C2020 H1991 0.950 . S
C2020 C2019 1.334 . S
C2020 C2021 1.287 . S
C2021 C2020 1.287 . S
C2021 C2022 1.524 . S
C2021 H2024 0.999 . S
C2022 H1992 0.950 . S
C2022 C2021 1.524 . S
C2022 C2023 1.415 . S
C2023 H1993 0.950 . S
C2023 C2018 1.363 . S
C2023 C2022 1.415 . S
H2024 C2021 0.999 . S
H2025 C2006 0.913 . S
H2026 C2044 0.951 . S
H2027 C2046 0.951 . S
H2028 C2048 0.950 . S
H2029 C2049 0.950 . S
H2030 C2051 0.950 . S
H2031 C2054 0.950 . S
H2032 C2055 0.950 . S
H2033 C2057 0.950 . S
H2034 C2058 0.950 . S
H2035 C2059 0.951 . S
H2036 C2061 0.951 . S
H2037 C2063 0.950 . S
H2038 C2064 0.950 . S
H2039 C2066 0.950 . S
H2040 C2069 0.950 . S
H2041 C2070 0.950 . S
H2042 C2072 0.950 . S
H2043 C2073 0.950 . S
C2044 H2026 0.951 . S
C2044 C2045 1.366 . S
C2044 C2046 1.388 . S
C2045 C2044 1.366 . S
C2045 C2049 1.385 . S
C2046 H2027 0.951 . S
C2046 C2044 1.388 . S
C2046 C2047 1.366 . S
C2047 C2046 1.366 . S
C2047 C2048 1.414 . S
C2047 C2050 1.499 . S
C2048 H2028 0.950 . S
C2048 C2047 1.414 . S
C2048 C2049 1.374 . S
C2049 H2029 0.950 . S
C2049 C2045 1.385 . S
C2049 C2048 1.374 . S
C2050 C2047 1.499 . S
C2050 C2051 1.373 . S
C2050 C2052 1.389 . S
C2051 H2030 0.950 . S
C2051 C2050 1.373 . S
C2051 C2067 1.377 1_565 S
C2052 C2050 1.389 . S
C2052 C2053 1.524 . S
C2052 C2066 1.377 1_565 S
C2053 C2052 1.524 . S
C2053 C2054 1.397 . S
C2053 C2058 1.363 1_565 S
C2054 H2031 0.950 . S
C2054 C2053 1.397 . S
C2054 C2055 1.334 . S
C2055 H2032 0.950 . S
C2055 C2054 1.334 . S
C2055 C2056 1.287 . S
C2056 C2055 1.287 . S
C2056 C2057 1.524 1_565 S
C2056 H2075 0.913 . S
C2057 H2033 0.950 . S
C2057 C2056 1.524 1_545 S
C2057 C2058 1.415 . S
C2058 H2034 0.950 . S
C2058 C2053 1.363 1_545 S
C2058 C2057 1.415 . S
C2059 H2035 0.951 . S
C2059 C2060 1.366 . S
C2059 C2061 1.388 . S
C2060 C2059 1.366 . S
C2060 C2064 1.385 . S
C2061 H2036 0.951 . S
C2061 C2059 1.388 . S
C2061 C2062 1.366 . S
C2062 C2061 1.366 . S
C2062 C2063 1.414 . S
C2062 C2065 1.499 . S
C2063 H2037 0.950 . S
C2063 C2062 1.414 . S
C2063 C2064 1.374 . S
C2064 H2038 0.950 . S
C2064 C2060 1.385 . S
C2064 C2063 1.374 . S
C2065 C2062 1.499 . S
C2065 C2066 1.373 . S
C2065 C2067 1.389 . S
C2066 H2039 0.950 . S
C2066 C2052 1.377 1_545 S
C2066 C2065 1.373 . S
C2067 C2051 1.377 1_545 S
C2067 C2065 1.389 . S
C2067 C2068 1.524 . S
C2068 C2067 1.524 . S
C2068 C2069 1.397 . S
C2068 C2073 1.363 1_545 S
C2069 H2040 0.950 . S
C2069 C2068 1.397 . S
C2069 C2070 1.334 . S
C2070 H2041 0.950 . S
C2070 C2069 1.334 . S
C2070 C2071 1.287 . S
C2071 C2070 1.287 . S
C2071 C2072 1.524 1_545 S
C2071 H2074 0.999 . S
C2072 H2042 0.950 . S
C2072 C2071 1.524 1_565 S
C2072 C2073 1.415 . S
C2073 H2043 0.950 . S
C2073 C2068 1.363 1_565 S
C2073 C2072 1.415 . S
H2074 C2071 0.999 . S
H2075 C2056 0.913 . S
H2076 C2094 0.951 . S
H2077 C2096 0.951 . S
H2078 C2098 0.950 1_556 S
H2079 C2099 0.950 . S
H2080 C2101 0.950 . S
H2081 C2104 0.950 . S
H2082 C2105 0.950 . S
H2083 C2107 0.950 1_545 S
H2084 C2108 0.931 1_545 S
H2085 C2109 0.951 . S
H2086 C2111 0.951 . S
H2087 C2113 0.950 1_554 S
H2088 C2114 0.950 . S
H2089 C2116 0.950 . S
H2090 C2119 0.950 . S
H2091 C2120 0.950 . S
H2092 C2122 0.950 1_565 S
H2093 C2123 0.931 1_565 S
C2094 H2076 0.951 . S
C2094 C2095 1.366 . S
C2094 C2096 1.388 . S
C2095 C2094 1.366 . S
C2095 C2099 1.385 . S
C2096 H2077 0.951 . S
C2096 C2094 1.388 . S
C2096 C2097 1.366 . S
C2097 C2096 1.366 . S
C2097 C2098 1.414 . S
C2097 C2100 1.499 . S
C2098 H2078 0.950 1_554 S
C2098 C2097 1.414 . S
C2098 C2099 1.374 . S
C2099 H2079 0.950 . S
C2099 C2095 1.385 . S
C2099 C2098 1.374 . S
C2100 C2097 1.499 . S
C2100 C2101 1.373 1_554 S
C2100 C2102 1.389 . S
C2101 H2080 0.950 . S
C2101 C2100 1.373 1_556 S
C2101 C2117 1.377 1_565 S
C2102 C2100 1.389 . S
C2102 C2103 1.524 . S
C2102 C2116 1.377 1_565 S
C2103 C2102 1.524 . S
C2103 C2104 1.397 . S
C2103 C2108 1.377 . S
C2104 H2081 0.950 . S
C2104 C2103 1.397 . S
C2104 C2105 1.334 . S
C2105 H2082 0.950 . S
C2105 C2104 1.334 . S
C2105 C2106 1.287 . S
C2106 C2105 1.287 . S
C2106 C2107 1.524 . S
C2106 H2125 0.913 . S
C2107 H2083 0.950 1_565 S
C2107 C2106 1.524 . S
C2107 C2108 1.421 . S
C2108 H2084 0.931 1_565 S
C2108 C2103 1.377 . S
C2108 C2107 1.421 . S
C2109 H2085 0.951 . S
C2109 C2110 1.366 . S
C2109 C2111 1.388 . S
C2110 C2109 1.366 . S
C2110 C2114 1.385 . S
C2111 H2086 0.951 . S
C2111 C2109 1.388 . S
C2111 C2112 1.366 . S
C2112 C2111 1.366 . S
C2112 C2113 1.414 . S
C2112 C2115 1.499 . S
C2113 H2087 0.950 1_556 S
C2113 C2112 1.414 . S
C2113 C2114 1.374 . S
C2114 H2088 0.950 . S
C2114 C2110 1.385 . S
C2114 C2113 1.374 . S
C2115 C2112 1.499 . S
C2115 C2116 1.373 1_556 S
C2115 C2117 1.389 . S
C2116 H2089 0.950 . S
C2116 C2102 1.377 1_545 S
C2116 C2115 1.373 1_554 S
C2117 C2101 1.377 1_545 S
C2117 C2115 1.389 . S
C2117 C2118 1.524 . S
C2118 C2117 1.524 . S
C2118 C2119 1.397 . S
C2118 C2123 1.377 . S
C2119 H2090 0.950 . S
C2119 C2118 1.397 . S
C2119 C2120 1.334 . S
C2120 H2091 0.950 . S
C2120 C2119 1.334 . S
C2120 C2121 1.287 . S
C2121 C2120 1.287 . S
C2121 C2122 1.524 . S
C2121 H2124 0.999 . S
C2122 H2092 0.950 1_545 S
C2122 C2121 1.524 . S
C2122 C2123 1.421 . S
C2123 H2093 0.931 1_545 S
C2123 C2118 1.377 . S
C2123 C2122 1.421 . S
H2124 C2121 0.999 . S
H2125 C2106 0.913 . S
H2126 C2144 0.951 . S
H2127 C2146 0.951 . S
H2128 C2148 0.950 . S
H2129 C2149 0.950 . S
H2130 C2151 0.950 . S
H2131 C2154 0.950 . S
H2132 C2155 0.950 . S
H2133 C2157 0.950 . S
H2134 C2158 0.950 . S
H2135 C2159 0.951 . S
H2136 C2161 0.951 . S
H2137 C2163 0.950 . S
H2138 C2164 0.950 . S
H2139 C2166 0.950 . S
H2140 C2169 0.950 . S
H2141 C2170 0.950 . S
H2142 C2172 0.950 . S
H2143 C2173 0.950 . S
C2144 H2126 0.951 . S
C2144 C2145 1.366 . S
C2144 C2146 1.388 . S
C2145 C2144 1.366 . S
C2145 C2149 1.385 . S
C2146 H2127 0.951 . S
C2146 C2144 1.388 . S
C2146 C2147 1.366 . S
C2147 C2146 1.366 . S
C2147 C2148 1.414 . S
C2147 C2150 1.499 . S
C2148 H2128 0.950 . S
C2148 C2147 1.414 . S
C2148 C2149 1.374 . S
C2149 H2129 0.950 . S
C2149 C2145 1.385 . S
C2149 C2148 1.374 . S
C2150 C2147 1.499 . S
C2150 C2151 1.373 . S
C2150 C2152 1.389 . S
C2151 H2130 0.950 . S
C2151 C2150 1.373 . S
C2151 C2167 1.377 1_545 S
C2152 C2150 1.389 . S
C2152 C2153 1.524 . S
C2152 C2166 1.377 1_545 S
C2153 C2152 1.524 . S
C2153 C2154 1.397 . S
C2153 C2158 1.363 1_545 S
C2154 H2131 0.950 . S
C2154 C2153 1.397 . S
C2154 C2155 1.334 . S
C2155 H2132 0.950 . S
C2155 C2154 1.334 . S
C2155 C2156 1.287 . S
C2156 C2155 1.287 . S
C2156 C2157 1.524 1_545 S
C2156 H2175 0.913 . S
C2157 H2133 0.950 . S
C2157 C2156 1.524 1_565 S
C2157 C2158 1.415 . S
C2158 H2134 0.950 . S
C2158 C2153 1.363 1_565 S
C2158 C2157 1.415 . S
C2159 H2135 0.951 . S
C2159 C2160 1.366 . S
C2159 C2161 1.388 . S
C2160 C2159 1.366 . S
C2160 C2164 1.385 . S
C2161 H2136 0.951 . S
C2161 C2159 1.388 . S
C2161 C2162 1.366 . S
C2162 C2161 1.366 . S
C2162 C2163 1.414 . S
C2162 C2165 1.499 . S
C2163 H2137 0.950 . S
C2163 C2162 1.414 . S
C2163 C2164 1.374 . S
C2164 H2138 0.950 . S
C2164 C2160 1.385 . S
C2164 C2163 1.374 . S
C2165 C2162 1.499 . S
C2165 C2166 1.373 . S
C2165 C2167 1.389 . S
C2166 H2139 0.950 . S
C2166 C2152 1.377 1_565 S
C2166 C2165 1.373 . S
C2167 C2151 1.377 1_565 S
C2167 C2165 1.389 . S
C2167 C2168 1.524 . S
C2168 C2167 1.524 . S
C2168 C2169 1.397 . S
C2168 C2173 1.363 1_565 S
C2169 H2140 0.950 . S
C2169 C2168 1.397 . S
C2169 C2170 1.334 . S
C2170 H2141 0.950 . S
C2170 C2169 1.334 . S
C2170 C2171 1.287 . S
C2171 C2170 1.287 . S
C2171 C2172 1.524 1_565 S
C2171 H2174 0.999 . S
C2172 H2142 0.950 . S
C2172 C2171 1.524 1_545 S
C2172 C2173 1.415 . S
C2173 H2143 0.950 . S
C2173 C2168 1.363 1_545 S
C2173 C2172 1.415 . S
H2174 C2171 0.999 . S
H2175 C2156 0.913 . S
C595 C3 1.407 . S
C610 C220 1.391 . S
C645 C39 1.407 . S
C660 C256 1.391 . S
C695 C148 1.392 . S
C710 C75 1.407 . S
C745 C184 1.392 . S
C760 C111 1.407 . S
C795 C508 1.391 . S
C810 C291 1.407 . S
C845 C544 1.391 . S
C860 C327 1.407 . S
C895 C363 1.407 . S
C910 C436 1.391 . S
C945 C399 1.407 . S
C960 C472 1.391 . S
C995 C2 1.421 . S
C1010 C182 1.422 . S
C1045 C38 1.421 . S
C1060 C146 1.421 . S
C1095 C74 1.421 . S
C1110 C254 1.422 . S
C1145 C218 1.422 . S
C1160 C110 1.420 . S
C1195 C470 1.422 . S
C1210 C290 1.421 . S
C1245 C434 1.422 . S
C1260 C326 1.420 . S
C1295 C362 1.421 . S
C1310 C542 1.422 . S
C1345 C506 1.422 . S
C1360 C398 1.421 . S
C1395 C435 1.271 . S
C1410 C4 1.272 . S
C1445 C40 1.272 . S
C1460 C471 1.272 . S
C1495 C507 1.271 . S
C1510 C76 1.271 . S
C1545 C543 1.271 . S
C1560 C112 1.271 . S
C1595 C292 1.272 . S
C1610 C147 1.272 . S
C1645 C328 1.271 . S
C1660 C183 1.272 . S
C1695 C219 1.271 . S
C1710 C364 1.271 . S
C1745 C255 1.271 . S
C1760 C400 1.271 . S
C1795 C86 1.394 . S
C1810 C14 1.395 . S
C1845 C50 1.394 . S
C1860 C122 1.394 . S
C1895 C230 1.398 . S
C1910 C158 1.398 . S
C1945 C194 1.398 . S
C1960 C266 1.397 . S
C1995 C374 1.394 . S
C2010 C302 1.394 . S
C2045 C410 1.394 . S
C2060 C338 1.395 . S
C2095 C518 1.397 . S
C2110 C446 1.398 . S
C2145 C554 1.397 . S
C2160 C482 1.398 . S
