# Generated by pormake.
# Topology qtz-x, (6)-cn, num edge types: 1
# Building blocks:
#     Node 0, Type 0, BuildingBlock: NUHQIS_clean_sbu_0, # of connection points: 6
#     Node 1, Type 0, BuildingBlock: NUHQIS_clean_sbu_0, # of connection points: 6
#     Node 2, Type 0, BuildingBlock: NUHQIS_clean_sbu_0, # of connection points: 6
#     Edge 3, Type (0, 0), BuildingBlock: TEMPAE_clean_linker_10, # of connection points: 2
#     Edge 4, Type (0, 0), BuildingBlock: TEMPAE_clean_linker_10, # of connection points: 2
#     Edge 5, Type (0, 0), BuildingBlock: TEMPAE_clean_linker_10, # of connection points: 2
#     Edge 6, Type (0, 0), BuildingBlock: TEMPAE_clean_linker_10, # of connection points: 2
#     Edge 7, Type (0, 0), BuildingBlock: TEMPAE_clean_linker_10, # of connection points: 2
#     Edge 8, Type (0, 0), BuildingBlock: TEMPAE_clean_linker_10, # of connection points: 2
#     Edge 9, Type (0, 0), BuildingBlock: TEMPAE_clean_linker_10, # of connection points: 2
#     Edge 10, Type (0, 0), BuildingBlock: TEMPAE_clean_linker_10, # of connection points: 2
#     Edge 11, Type (0, 0), BuildingBlock: TEMPAE_clean_linker_10, # of connection points: 2
# Relax obj value: 0.238
# Max RMSD: 0.262
# Mean RMSD: 0.245
data_MOF--net-qtz-x--node1-NUHQIS_clean_sbu_0--edge1-TEMPAE_clean_linker_10
_symmetry_space_group_name_H-M    P1
_symmetry_Int_Tables_number       1
_symmetry_cell_setting            triclinic
loop_
_symmetry_equiv_pos_as_xyz
'x, y, z'
_cell_length_a     15.401151
_cell_length_b     15.4557
_cell_length_c     53.397944
_cell_angle_alpha  68.059717
_cell_angle_beta   114.39606
_cell_angle_gamma 120.94779
loop_
_atom_site_label
_atom_site_type_symbol
_atom_site_fract_x
_atom_site_fract_y
_atom_site_fract_z
_atom_type_partial_charge
Tb0 Tb 1.01701 0.57831 0.20459 0.0
Eu1 Eu 0.25228 0.71584 0.19381 0.0
C2 C 0.12362 0.81946 0.19536 0.0
C3 C 1.03903 0.66416 0.14223 0.0
C4 C 0.83522 0.43522 0.24927 0.0
C5 C 0.79474 0.46075 0.28495 0.0
C6 C 0.80484 0.4894 0.2577 0.0
C7 C 0.85254 0.35015 0.26856 0.0
C8 C 0.84287 0.32191 0.29571 0.0
C9 C 0.8149 0.37733 0.30441 0.0
C10 C 0.85216 0.46844 0.22097 0.0
O11 O 0.04329 0.48411 0.18927 0.0
O12 O 0.22052 0.54766 0.20894 0.0
O13 O 0.27705 0.71688 0.23812 0.0
O14 O 0.13401 0.56408 0.24486 0.0
C15 C 0.13133 0.47372 0.19881 0.0
O16 O 0.38925 0.7171 0.19045 0.0
O17 O 0.38662 0.86143 0.18511 0.0
O18 O 0.17809 0.82437 0.18102 0.0
O19 O 0.07549 0.73218 0.21125 0.0
O20 O 0.97925 0.6336 0.15869 0.0
O21 O 0.13921 0.68266 0.15203 0.0
C22 C 0.22326 0.63878 0.25484 0.0
O23 O 0.88081 0.56606 0.20908 0.0
O24 O 0.90572 0.43155 0.21791 0.0
C25 C 0.46334 0.85398 0.15567 0.0
C26 C 0.50371 0.90865 0.10344 0.0
C27 C 0.52626 0.82988 0.12493 0.0
C28 C 0.50709 0.80353 0.15077 0.0
C29 C 0.44321 0.93459 0.13455 0.0
C30 C 0.46356 -0.03816 0.10877 0.0
C31 C 0.43314 0.81688 0.18205 0.0
H32 H 0.77346 0.50541 0.29097 0.0
H33 H 0.79034 0.55491 0.24337 0.0
H34 H 0.87483 0.30558 0.26283 0.0
H35 H 0.85696 0.25603 0.30991 0.0
H36 H 0.55561 0.78593 0.12157 0.0
H37 H 0.52353 0.74122 0.16666 0.0
H38 H 0.4099 -0.02453 0.13767 0.0
H39 H 0.447 0.02413 0.09295 0.0
Tb40 Tb 0.86736 0.15412 0.56818 0.0
Eu41 Eu 0.72592 0.91889 0.55627 0.0
C42 C 0.97136 0.03142 0.566 0.0
C43 C 0.7787 0.11992 0.5058 0.0
C44 C 0.99882 0.36322 0.60597 0.0
C45 C 0.10075 0.4913 0.63509 0.0
C46 C 0.07729 0.46114 0.61054 0.0
C47 C 0.94341 0.29588 0.62601 0.0
C48 C 0.96662 0.32582 0.65048 0.0
C49 C 0.04613 0.42359 0.65543 0.0
C50 C 0.97825 0.32866 0.58116 0.0
O51 O 0.71517 0.09742 0.5748 0.0
O52 O 0.61706 -0.0059 0.54276 0.0
O53 O 0.735 0.90116 0.60106 0.0
O54 O 0.88239 0.05188 0.60963 0.0
C55 C 0.62387 0.0466 0.55843 0.0
O56 O 0.57769 0.78038 0.55043 0.0
O57 O 0.71586 0.78872 0.54636 0.0
O58 O 0.89652 0.94641 0.5751 0.0
O59 O 0.9606 0.11781 0.55577 0.0
O60 O 0.80602 0.18038 0.52236 0.0
O61 O 0.75925 0.02195 0.51537 0.0
C62 C 0.81105 -0.03844 0.61846 0.0
O63 O 1.01523 0.26279 0.58617 0.0
O64 O 0.8816 0.30027 0.56497 0.0
C65 C 0.55569 0.71465 0.51382 0.0
C66 C 0.46532 0.67664 0.45888 0.0
C67 C 0.48276 0.59958 0.48219 0.0
C68 C 0.52785 0.6186 0.50946 0.0
C69 C 0.53625 0.79081 0.49072 0.0
C70 C 0.49157 0.77207 0.46354 0.0
C71 C 0.61391 0.73973 0.54184 0.0
H72 H 0.16296 0.56672 0.63838 0.0
H73 H 0.12132 0.51361 0.59533 0.0
H74 H 0.88272 0.21972 0.62283 0.0
H75 H 0.9218 0.27246 0.66545 0.0
H76 H 0.46243 0.52493 0.47933 0.0
H77 H 0.54301 0.55921 0.52704 0.0
H78 H 0.55832 0.86593 0.49365 0.0
H79 H 0.48088 0.83369 0.4461 0.0
Tb80 Tb 0.76669 0.81504 0.86987 0.0
Eu81 Eu 0.90943 0.68871 0.88638 0.0
C82 C 1.00884 0.92755 0.88143 0.0
C83 C 0.81425 0.78561 0.82209 0.0
C84 C 0.63299 0.9372 0.87876 0.0
C85 C 0.69509 0.00177 0.92098 0.0
C86 C 0.71608 -0.01554 0.90063 0.0
C87 C 0.52918 0.91115 0.87699 0.0
C88 C 0.5081 0.92726 0.89755 0.0
C89 C 0.59074 -0.02938 0.92004 0.0
C90 C 0.65154 0.9015 0.86023 0.0
O91 O 0.6668 0.66172 0.86085 0.0
O92 O 0.75825 0.5787 0.89731 0.0
O93 O 0.93004 0.71383 0.92783 0.0
O94 O 0.79125 0.75581 0.9152 0.0
C95 C 0.66896 0.57928 0.88002 0.0
O96 O 0.91789 0.55175 0.88681 0.0
O97 O 0.06109 0.68103 0.90185 0.0
O98 O 1.00362 0.85649 0.87251 0.0
O99 O 0.92893 0.91459 0.88786 0.0
O100 O 0.80102 0.84654 0.8307 0.0
O101 O 0.83415 0.70726 0.83952 0.0
C102 C 0.86659 0.7301 0.93436 0.0
O103 O 0.7448 0.95088 0.85605 0.0
O104 O 0.61878 0.80201 0.86533 0.0
C105 C 0.06508 0.59718 0.87372 0.0
C106 C 0.1095 0.58229 0.82991 0.0
C107 C 0.10957 0.5083 0.85511 0.0
C108 C 0.08729 0.51562 0.87696 0.0
C109 C 0.07036 0.67387 0.84901 0.0
C110 C 0.0922 0.66631 0.82722 0.0
C111 C 1.02074 0.59476 0.89373 0.0
H112 H 0.75996 0.03393 0.93835 0.0
H113 H 0.79675 0.00366 0.90276 0.0
H114 H 0.46396 0.87369 0.86046 0.0
H115 H 0.42702 0.90263 0.89643 0.0
H116 H 0.12068 0.44198 0.85719 0.0
H117 H 0.08197 0.45502 0.8957 0.0
H118 H 0.05189 0.73661 0.84595 0.0
H119 H 0.0905 0.72328 0.80775 0.0
C120 C 0.08695 0.91697 0.21523 0.0
C121 C 0.12187 0.915 0.19506 0.0
C122 C 0.08806 0.00764 0.21583 0.0
C123 C 0.12367 0.09842 0.19555 0.0
C124 C 0.15756 0.09658 0.17487 0.0
C125 C 0.15688 0.00513 0.17498 0.0
C126 C 0.05221 0.00659 0.23838 0.0
C127 C 0.19474 0.19133 0.15266 0.0
C128 C 1.03907 0.30706 0.18263 0.0
C129 C 0.12979 0.3781 0.19788 0.0
C130 C 1.03635 0.21636 0.18144 0.0
C131 C 0.12611 0.19542 0.19612 0.0
C132 C 0.21787 0.2667 0.21159 0.0
C133 C 0.21881 0.3574 0.21215 0.0
C134 C 0.93738 0.14293 0.16446 0.0
C135 C 0.31485 0.24675 0.22774 0.0
H136 H 0.06022 0.84792 0.23091 0.0
H137 H 0.18347 0.00424 0.15923 0.0
H138 H 0.11711 0.06429 0.25111 0.0
H139 H 0.98541 0.02859 0.22863 0.0
H140 H 1.02703 0.9298 0.25264 0.0
H141 H 0.21622 0.17659 0.13767 0.0
H142 H 0.13212 0.21894 0.14068 0.0
H143 H 0.26445 0.25441 0.16273 0.0
H144 H 0.97008 0.3226 0.17139 0.0
H145 H 0.28915 0.41163 0.22403 0.0
H146 H 0.90556 0.06669 0.17832 0.0
H147 H 0.95575 0.13083 0.14835 0.0
H148 H 0.87517 0.17153 0.15375 0.0
H149 H 0.29498 0.1733 0.24348 0.0
H150 H 0.3797 0.30964 0.2388 0.0
H151 H 0.34369 0.23837 0.21325 0.0
C152 C 0.43001 0.00012 0.53984 0.0
C153 C 0.52686 0.04188 0.55952 0.0
C154 C 0.33755 -0.00599 0.54107 0.0
C155 C 0.3419 0.0295 0.56267 0.0
C156 C 0.43916 0.07041 0.58281 0.0
C157 C 0.53047 0.07666 0.5809 0.0
C158 C 0.23549 0.95091 0.51904 0.0
C159 C 0.44694 0.10823 0.6063 0.0
C160 C 0.13465 0.11553 0.55061 0.0
C161 C 0.06599 0.02977 0.56547 0.0
C162 C 0.22387 0.11578 0.54932 0.0
C163 C 0.24589 0.02852 0.56347 0.0
C164 C 0.17725 0.94168 0.57862 0.0
C165 C 0.0877 0.94312 0.57931 0.0
C166 C 0.2946 0.20964 0.53277 0.0
C167 C 0.19875 0.84758 0.59421 0.0
H168 H 0.4265 -0.02706 0.52329 0.0
H169 H 0.6047 0.10808 0.59639 0.0
H170 H 0.17488 0.88511 0.52921 0.0
H171 H 0.20535 0.01066 0.50706 0.0
H172 H 0.24483 0.92436 0.50402 0.0
H173 H 0.5275 0.13355 0.621 0.0
H174 H 0.42508 0.17398 0.59742 0.0
H175 H 0.39068 0.04628 0.61839 0.0
H176 H 0.1183 0.18264 0.53968 0.0
H177 H 1.03516 0.87665 0.59087 0.0
H178 H 0.30124 0.18738 0.51637 0.0
H179 H 0.3751 0.24297 0.54686 0.0
H180 H 0.26512 0.27031 0.52244 0.0
H181 H 0.20124 0.81485 0.57936 0.0
H182 H 0.13812 0.78669 0.60515 0.0
H183 H 0.27699 0.86945 0.60999 0.0
C184 C 0.11284 0.10461 0.89153 0.0
C185 C 0.10648 0.02309 0.88416 0.0
C186 C 0.20456 0.19709 0.89303 0.0
C187 C 0.29122 0.20722 0.88715 0.0
C188 C 0.28643 0.12405 0.88059 0.0
C189 C 0.19394 0.03288 0.87917 0.0
C190 C 0.20898 0.28344 0.90108 0.0
C191 C 0.37785 0.13232 0.87429 0.0
C192 C 0.48151 0.4705 0.85898 0.0
C193 C 0.57077 0.48659 0.88216 0.0
C194 C 0.3888 0.38024 0.86055 0.0
C195 C 0.38512 0.30654 0.88613 0.0
C196 C 0.47342 0.3248 0.90998 0.0
C197 C 0.56614 0.41418 0.90758 0.0
C198 C 0.29544 0.36301 0.83475 0.0
C199 C 0.47098 0.2491 0.93778 0.0
H200 H 0.04587 0.09677 0.8958 0.0
H201 H 0.19004 -0.03039 0.87382 0.0
H202 H 0.26392 0.29235 0.92238 0.0
H203 H 0.23986 0.35772 0.88645 0.0
H204 H 0.13053 0.2686 0.90124 0.0
H205 H 0.36085 0.06028 0.86944 0.0
H206 H 0.39713 0.19653 0.85609 0.0
H207 H 0.44886 0.15 0.89252 0.0
H208 H 0.48502 0.52705 0.83939 0.0
H209 H 0.63483 0.42763 0.92569 0.0
H210 H 0.23095 0.36625 0.83819 0.0
H211 H 0.26488 0.28574 0.83058 0.0
H212 H 0.31589 0.42175 0.81584 0.0
H213 H 0.39605 0.22043 0.94263 0.0
H214 H 0.53755 0.28399 0.9553 0.0
H215 H 0.47604 0.18159 0.9367 0.0
C216 C 0.50061 0.8808 0.95794 0.0
C217 C 0.56808 -0.02773 0.94418 0.0
C218 C 0.48782 0.87656 0.98295 0.0
C219 C 0.54239 -0.0334 0.99416 0.0
C220 C 0.60699 0.06044 0.97963 0.0
C221 C 0.62008 0.06187 0.95494 0.0
C222 C 0.42009 0.77446 0.99808 0.0
C223 C 0.66535 0.15841 0.99068 0.0
C224 C 0.44522 -0.04445 0.05063 0.0
C225 C 0.51821 0.93184 0.07533 0.0
C226 C 0.45433 -0.02901 1.02402 0.0
C227 C 0.53699 -0.03973 1.02201 0.0
C228 C 0.61186 0.93806 0.04677 0.0
C229 C 0.60236 0.92553 0.07306 0.0
C230 C 0.37414 -0.0035 0.99807 0.0
C231 C 0.7002 0.92424 0.04553 0.0
H232 H 0.46159 0.81116 0.94982 0.0
H233 H 0.67204 0.13267 0.94421 0.0
H234 H 0.46976 0.75016 1.01874 0.0
H235 H 0.3597 0.78206 1.00223 0.0
H236 H 0.37959 0.71275 0.98595 0.0
H237 H 0.69572 0.22753 0.97453 0.0
H238 H 0.61357 0.16807 0.99796 0.0
H239 H 0.73324 0.15434 1.00898 0.0
H240 H 0.37899 -0.04078 0.05202 0.0
H241 H 0.66051 0.9095 0.09192 0.0
H242 H 0.32636 0.93206 0.98671 0.0
H243 H 0.41469 0.06582 0.98357 0.0
H244 H 0.32009 0.01079 1.00313 0.0
H245 H 0.66699 0.85982 1.03492 0.0
H246 H 0.75217 0.90754 0.06673 0.0
H247 H 0.74894 -0.00527 1.03296 0.0
C248 C 0.82391 0.27042 0.46557 0.0
C249 C 0.77465 0.16368 0.47553 0.0
C250 C 0.8283 0.31117 0.43748 0.0
C251 C 0.78129 0.24375 0.41879 0.0
C252 C 0.72819 0.13627 0.42849 0.0
C253 C 0.72603 0.09766 0.45669 0.0
C254 C 0.88642 0.4261 0.42806 0.0
C255 C 0.67598 0.06151 0.40928 0.0
C256 C 0.72521 0.34544 0.33936 0.0
C257 C 0.80821 0.34819 0.3338 0.0
C258 C 0.71626 0.31342 0.36694 0.0
C259 C 0.79265 0.28437 0.38958 0.0
C260 C 0.87805 0.2897 0.38416 0.0
C261 C 0.88428 0.32074 0.35642 0.0
C262 C 0.62365 0.30822 0.37178 0.0
C263 C 0.96213 0.26084 0.40761 0.0
H264 H 0.86209 0.3221 0.47994 0.0
H265 H 0.68709 0.01514 0.46404 0.0
H266 H 0.95636 0.44311 0.42251 0.0
H267 H 0.83526 0.45566 0.40891 0.0
H268 H 0.91318 0.46865 0.44457 0.0
H269 H 0.63246 -0.019 0.41957 0.0
H270 H 0.62014 0.08424 0.39002 0.0
H271 H 0.73643 0.06359 0.40259 0.0
H272 H 0.66546 0.36552 0.32204 0.0
H273 H 0.9491 0.32341 0.35243 0.0
H274 H 0.65157 0.35341 0.38772 0.0
H275 H 0.57415 0.22716 0.38015 0.0
H276 H 0.5738 0.33797 0.3522 0.0
H277 H 0.99635 0.30517 0.42423 0.0
H278 H 1.02683 0.27544 0.40012 0.0
H279 H 0.9267 0.17787 0.41742 0.0
C280 C 0.7728 0.87872 0.7717 0.0
C281 C 0.81067 0.80767 0.79207 0.0
C282 C 0.7719 0.90199 0.74346 0.0
C283 C 0.81117 0.85426 0.73536 0.0
C284 C 0.8495 0.78249 0.75582 0.0
C285 C 0.84819 0.75968 0.7838 0.0
C286 C 0.72899 -0.02211 0.72229 0.0
C287 C 0.89365 0.73099 0.74827 0.0
C288 C 0.72826 0.84582 0.65799 0.0
C289 C 0.81388 0.93023 0.64872 0.0
C290 C 0.72635 0.82033 0.68604 0.0
C291 C 0.81266 0.87977 0.70553 0.0
C292 C 0.90005 -0.03594 0.69643 0.0
C293 C 0.89934 -0.01144 0.66819 0.0
C294 C 0.63092 0.73086 0.69471 0.0
C295 C 0.99405 0.02918 0.71647 0.0
H296 H 0.74344 0.91614 0.77777 0.0
H297 H 0.87839 0.70522 0.79931 0.0
H298 H 0.79178 0.04542 0.71321 0.0
H299 H 0.66468 0.94164 0.7047 0.0
H300 H 0.69806 0.00568 0.73171 0.0
H301 H 0.91645 0.67405 0.76634 0.0
H302 H 0.83494 0.69099 0.73079 0.0
H303 H 0.96414 0.7901 0.74092 0.0
H304 H 0.66127 0.80078 0.64316 0.0
H305 H 0.96579 0.0542 0.66133 0.0
H306 H 0.59509 0.75818 0.70268 0.0
H307 H 0.6546 0.67299 0.7121 0.0
H308 H 0.57014 0.69239 0.67708 0.0
H309 H 0.96948 0.06753 0.72447 0.0
H310 H 0.05748 0.08946 0.70641 0.0
H311 H 1.02671 -0.02037 0.73489 0.0
C312 C 0.93488 0.66254 0.9856 0.0
C313 C 0.87913 0.71764 0.96451 0.0
C314 C 0.94879 0.65133 1.01418 0.0
C315 C 0.90766 0.6979 1.02205 0.0
C316 C 0.85005 0.75258 1.00086 0.0
C317 C 0.83579 0.76109 0.97237 0.0
C318 C 1.00957 0.59124 1.03602 0.0
C319 C 0.80642 0.80499 1.00826 0.0
C320 C 0.89723 0.60887 0.09832 0.0
C321 C 0.99551 0.67962 0.11126 0.0
C322 C 0.86544 0.61551 0.06905 0.0
C323 C 0.93274 0.69593 0.05242 0.0
C324 C 1.02922 0.77081 0.06534 0.0
C325 C 0.0597 0.76109 0.09453 0.0
C326 C 0.76285 0.53319 0.05619 0.0
C327 C 0.10283 0.85888 0.04853 0.0
H328 H 0.9677 0.62776 0.97978 0.0
H329 H 0.79278 0.80409 0.95626 0.0
H330 H 0.08447 0.6439 0.04829 0.0
H331 H 0.96369 0.53205 0.051 0.0
H332 H 1.02849 0.5524 1.0265 0.0
H333 H 0.75813 0.83922 0.98939 0.0
H334 H 0.75722 0.74934 1.02276 0.0
H335 H 0.87229 0.86717 1.01938 0.0
H336 H 0.84801 0.54526 0.11123 0.0
H337 H 0.13558 0.81638 0.10447 0.0
H338 H 0.77942 0.48583 0.049 0.0
H339 H 0.71546 0.5686 1.03748 0.0
H340 H 0.71519 0.48151 0.07132 0.0
H341 H 0.13567 0.82852 1.04052 0.0
H342 H 0.16955 0.91603 0.06123 0.0
H343 H 0.05936 0.89902 1.03004 0.0
C344 C 0.20504 0.55316 0.30373 0.0
C345 C 0.26196 0.63577 0.2855 0.0
C346 C 0.23674 0.55269 0.33249 0.0
C347 C 0.32683 0.63734 0.34325 0.0
C348 C 0.38579 0.72001 0.32509 0.0
C349 C 0.35283 0.71811 0.29647 0.0
C350 C 0.1718 0.46292 0.35112 0.0
C351 C 0.48232 0.81177 0.33577 0.0
C352 C 0.35071 0.69667 0.40935 0.0
C353 C 0.42427 0.65994 0.42968 0.0
C354 C 0.31699 0.68817 0.38126 0.0
C355 C 0.35756 0.64155 0.37327 0.0
C356 C 0.4297 0.60188 0.3938 0.0
C357 C 0.46231 0.61166 0.42175 0.0
C358 C 0.23936 0.73079 0.36003 0.0
C359 C 0.47402 0.55093 0.38612 0.0
H360 H 0.13447 0.48927 0.2955 0.0
H361 H 0.39726 0.78245 0.28259 0.0
H362 H 0.22311 0.43664 0.37099 0.0
H363 H 0.12721 0.48756 0.35673 0.0
H364 H 0.11484 0.39664 0.34059 0.0
H365 H 0.52165 0.86797 0.31917 0.0
H366 H 0.45992 0.85181 0.34386 0.0
H367 H 0.53988 0.78591 0.35351 0.0
H368 H 0.31974 0.73265 0.41539 0.0
H369 H 0.52005 0.58413 0.43723 0.0
H370 H 0.16855 0.66924 0.34962 0.0
H371 H 0.27528 0.79235 0.34341 0.0
H372 H 0.21405 0.76327 0.36972 0.0
H373 H 0.40895 0.48658 0.37569 0.0
H374 H 0.52601 0.5203 0.40474 0.0
H375 H 0.52003 0.60725 0.37092 0.0
C376 C 0.20483 0.58592 0.80103 0.0
C377 C 0.11058 0.56382 0.80497 0.0
C378 C 0.20439 0.56959 0.77676 0.0
C379 C 0.10726 0.52904 0.75644 0.0
C380 C 1.01212 0.50699 0.76052 0.0
C381 C 1.01512 0.5249 0.78475 0.0
C382 C 0.3076 0.59725 0.77263 0.0
C383 C 0.90696 0.4637 0.73942 0.0
C384 C 0.08951 0.55355 0.68123 0.0
C385 C 0.07116 0.45414 0.68175 0.0
C386 C 0.10598 0.58065 0.70569 0.0
C387 C 0.10347 0.50637 0.7312 0.0
C388 C 0.08846 0.40705 0.73205 0.0
C389 C 0.07306 0.38236 0.70737 0.0
C390 C 0.12167 0.68733 0.70396 0.0
C391 C 0.08565 0.32582 0.75887 0.0
H392 H 0.27851 0.61673 0.81676 0.0
H393 H 0.94255 0.50788 0.78808 0.0
H394 H 0.30352 0.53216 0.7673 0.0
H395 H 0.32351 0.66376 0.75474 0.0
H396 H 0.37477 0.61813 0.79159 0.0
H397 H 0.90774 0.51593 0.71846 0.0
H398 H 0.89202 0.38813 0.73728 0.0
H399 H 0.84072 0.45298 0.74551 0.0
H400 H 0.08742 0.60921 0.66149 0.0
H401 H 0.06133 0.30614 0.70807 0.0
H402 H 0.19173 0.72275 0.72078 0.0
H403 H 0.05243 0.68222 0.70723 0.0
H404 H 0.13184 0.73901 0.6833 0.0
H405 H 0.15979 0.35513 0.77549 0.0
H406 H 0.07535 0.25299 0.75612 0.0
H407 H 1.01998 0.30844 0.76639 0.0
loop_
_geom_bond_atom_site_label_1
_geom_bond_atom_site_label_2
_geom_bond_distance
_geom_bond_site_symmetry_2
_ccdc_geom_bond_type
Tb0 C10 2.825 . S
Tb0 O11 2.347 . S
Tb0 O14 2.366 1_655 S
Tb0 O19 2.418 . S
Tb0 O20 2.384 . S
Tb0 O23 2.479 . S
Tb0 O24 2.471 . S
Eu1 O12 2.418 . S
Eu1 O13 2.384 . S
Eu1 O16 2.479 . S
Eu1 O17 2.471 . S
Eu1 O18 2.347 . S
Eu1 O21 2.366 1_455 S
Eu1 C31 2.825 . S
C2 O18 1.259 1_655 S
C2 O19 1.265 . S
C3 O20 1.255 . S
C3 O21 1.265 . S
C4 C6 1.380 . S
C4 C7 1.374 . S
C4 C10 1.507 . S
C5 C6 1.384 . S
C5 C9 1.387 . S
C5 H32 0.930 . S
C6 C4 1.380 . S
C6 C5 1.384 . S
C6 H33 0.931 . S
C7 C4 1.374 . S
C7 C8 1.390 . S
C7 H34 0.930 . S
C8 C7 1.390 . S
C8 C9 1.391 . S
C8 H35 0.930 . S
C9 C5 1.387 . S
C9 C8 1.391 . S
C10 Tb0 2.825 . S
C10 C4 1.507 . S
C10 O23 1.238 . S
C10 O24 1.247 . S
O11 Tb0 2.347 . S
O11 C15 1.259 1_655 S
O12 Eu1 2.418 . S
O12 C15 1.265 . S
O13 Eu1 2.384 . S
O13 C22 1.255 . S
O14 Tb0 2.366 1_455 S
O14 C22 1.265 . S
C15 O11 1.259 1_455 S
C15 O12 1.265 . S
O16 Eu1 2.479 . S
O16 C31 1.238 . S
O17 Eu1 2.471 . S
O17 C31 1.247 . S
O18 Eu1 2.347 . S
O18 C2 1.259 1_455 S
O19 Tb0 2.418 . S
O19 C2 1.265 . S
O20 Tb0 2.384 . S
O20 C3 1.255 . S
O21 Eu1 2.366 1_655 S
O21 C3 1.265 . S
C22 O13 1.255 . S
C22 O14 1.265 . S
O23 Tb0 2.479 . S
O23 C10 1.238 . S
O24 Tb0 2.471 . S
O24 C10 1.247 . S
C25 C28 1.380 . S
C25 C29 1.374 . S
C25 C31 1.507 . S
C26 C27 1.387 . S
C26 C30 1.391 1_565 S
C27 C26 1.387 . S
C27 C28 1.384 . S
C27 H36 0.930 . S
C28 C25 1.380 . S
C28 C27 1.384 . S
C28 H37 0.931 . S
C29 C25 1.374 . S
C29 C30 1.390 1_565 S
C29 H38 0.930 . S
C30 C26 1.391 1_545 S
C30 C29 1.390 1_545 S
C30 H39 0.930 . S
C31 Eu1 2.825 . S
C31 O16 1.238 . S
C31 O17 1.247 . S
C31 C25 1.507 . S
H32 C5 0.930 . S
H33 C6 0.931 . S
H34 C7 0.930 . S
H35 C8 0.930 . S
H36 C27 0.930 . S
H37 C28 0.931 . S
H38 C29 0.930 . S
H39 C30 0.930 . S
Tb40 C50 2.825 . S
Tb40 O51 2.347 . S
Tb40 O54 2.366 . S
Tb40 O59 2.418 . S
Tb40 O60 2.384 . S
Tb40 O63 2.479 . S
Tb40 O64 2.471 . S
Eu41 O52 2.418 . S
Eu41 O53 2.384 . S
Eu41 O56 2.479 . S
Eu41 O57 2.471 . S
Eu41 O58 2.347 . S
Eu41 O61 2.371 . S
Eu41 C71 2.825 . S
C42 O58 1.259 1_545 S
C42 O59 1.265 . S
C43 O60 1.255 . S
C43 O61 1.259 1_545 S
C44 C46 1.380 1_655 S
C44 C47 1.374 . S
C44 C50 1.507 . S
C45 C46 1.384 . S
C45 C49 1.387 1_455 S
C45 H72 0.930 . S
C46 C44 1.380 1_455 S
C46 C45 1.384 . S
C46 H73 0.931 . S
C47 C44 1.374 . S
C47 C48 1.390 . S
C47 H74 0.930 . S
C48 C47 1.390 . S
C48 C49 1.391 . S
C48 H75 0.930 . S
C49 C45 1.387 1_655 S
C49 C48 1.391 . S
C50 Tb40 2.825 . S
C50 C44 1.507 . S
C50 O63 1.238 . S
C50 O64 1.247 . S
O51 Tb40 2.347 . S
O51 C55 1.259 1_545 S
O52 Eu41 2.418 . S
O52 C55 1.265 . S
O53 Eu41 2.384 . S
O53 C62 1.255 . S
O54 Tb40 2.366 . S
O54 C62 1.265 1_545 S
C55 O51 1.259 1_565 S
C55 O52 1.265 . S
O56 Eu41 2.479 . S
O56 C71 1.238 . S
O57 Eu41 2.471 . S
O57 C71 1.247 . S
O58 Eu41 2.347 . S
O58 C42 1.259 1_565 S
O59 Tb40 2.418 . S
O59 C42 1.265 . S
O60 Tb40 2.384 . S
O60 C43 1.255 . S
O61 Eu41 2.371 . S
O61 C43 1.259 1_565 S
C62 O53 1.255 . S
C62 O54 1.265 1_565 S
O63 Tb40 2.479 . S
O63 C50 1.238 . S
O64 Tb40 2.471 . S
O64 C50 1.247 . S
C65 C68 1.380 . S
C65 C69 1.374 . S
C65 C71 1.507 . S
C66 C67 1.387 . S
C66 C70 1.391 . S
C67 C66 1.387 . S
C67 C68 1.384 . S
C67 H76 0.930 . S
C68 C65 1.380 . S
C68 C67 1.384 . S
C68 H77 0.931 . S
C69 C65 1.374 . S
C69 C70 1.390 . S
C69 H78 0.930 . S
C70 C66 1.391 . S
C70 C69 1.390 . S
C70 H79 0.930 . S
C71 Eu41 2.825 . S
C71 O56 1.238 . S
C71 O57 1.247 . S
C71 C65 1.507 . S
H72 C45 0.930 . S
H73 C46 0.931 . S
H74 C47 0.930 . S
H75 C48 0.930 . S
H76 C67 0.930 . S
H77 C68 0.931 . S
H78 C69 0.930 . S
H79 C70 0.930 . S
Tb80 C90 2.825 . S
Tb80 O91 2.347 1_545 S
Tb80 O94 2.366 1_545 S
Tb80 O99 2.418 1_655 S
Tb80 O100 2.384 . S
Tb80 O103 2.479 . S
Tb80 O104 2.471 1_545 S
Eu81 O92 2.418 . S
Eu81 O93 2.384 . S
Eu81 O96 2.479 . S
Eu81 O97 2.471 1_655 S
Eu81 O98 2.347 1_655 S
Eu81 O101 2.366 . S
Eu81 C111 2.825 1_655 S
C82 O98 1.259 1_545 S
C82 O99 1.265 . S
C83 O100 1.255 1_565 S
C83 O101 1.265 . S
C84 C86 1.380 . S
C84 C87 1.374 1_545 S
C84 C90 1.507 . S
C85 C86 1.384 . S
C85 C89 1.387 . S
C85 H112 0.930 . S
C86 C84 1.380 . S
C86 C85 1.384 . S
C86 H113 0.931 . S
C87 C84 1.374 1_565 S
C87 C88 1.390 . S
C87 H114 0.930 . S
C88 C87 1.390 . S
C88 C89 1.391 1_565 S
C88 H115 0.930 . S
C89 C85 1.387 . S
C89 C88 1.391 1_545 S
C90 Tb80 2.825 . S
C90 C84 1.507 . S
C90 O103 1.238 . S
C90 O104 1.247 1_545 S
O91 Tb80 2.347 1_565 S
O91 C95 1.259 . S
O92 Eu81 2.418 . S
O92 C95 1.265 . S
O93 Eu81 2.384 . S
O93 C102 1.255 . S
O94 Tb80 2.366 1_565 S
O94 C102 1.265 . S
C95 O91 1.259 . S
C95 O92 1.265 . S
O96 Eu81 2.479 . S
O96 C111 1.238 1_655 S
O97 Eu81 2.471 1_455 S
O97 C111 1.247 . S
O98 Eu81 2.347 1_455 S
O98 C82 1.259 1_565 S
O99 Tb80 2.418 1_455 S
O99 C82 1.265 . S
O100 Tb80 2.384 . S
O100 C83 1.255 1_545 S
O101 Eu81 2.366 . S
O101 C83 1.265 . S
C102 O93 1.255 . S
C102 O94 1.265 . S
O103 Tb80 2.479 . S
O103 C90 1.238 . S
O104 Tb80 2.471 1_565 S
O104 C90 1.247 1_565 S
C105 C108 1.380 . S
C105 C109 1.374 . S
C105 C111 1.507 . S
C106 C107 1.387 . S
C106 C110 1.391 . S
C107 C106 1.387 . S
C107 C108 1.384 . S
C107 H116 0.930 . S
C108 C105 1.380 . S
C108 C107 1.384 . S
C108 H117 0.931 1_455 S
C109 C105 1.374 . S
C109 C110 1.390 . S
C109 H118 0.930 . S
C110 C106 1.391 . S
C110 C109 1.390 . S
C110 H119 0.930 . S
C111 Eu81 2.825 1_455 S
C111 O96 1.238 1_455 S
C111 O97 1.247 . S
C111 C105 1.507 . S
H112 C85 0.930 . S
H113 C86 0.931 . S
H114 C87 0.930 . S
H115 C88 0.930 . S
H116 C107 0.930 . S
H117 C108 0.931 1_655 S
H118 C109 0.930 . S
H119 C110 0.930 . S
C120 C121 1.391 1_655 S
C120 C122 1.394 1_565 S
C120 H136 0.931 . S
C121 C120 1.391 1_455 S
C121 C125 1.376 1_565 S
C122 C120 1.394 1_545 S
C122 C123 1.369 1_655 S
C122 C126 1.531 . S
C123 C122 1.369 1_455 S
C123 C124 1.410 . S
C123 C131 1.503 . S
C124 C123 1.410 . S
C124 C125 1.392 . S
C124 C127 1.511 . S
C125 C121 1.376 1_545 S
C125 C124 1.392 . S
C125 H137 0.929 . S
C126 C122 1.531 . S
C126 H138 0.960 . S
C126 H139 0.962 . S
C126 H140 0.960 1_545 S
C127 C124 1.511 . S
C127 H141 0.961 . S
C127 H142 0.961 . S
C127 H143 0.961 . S
C128 C129 1.370 . S
C128 C130 1.363 . S
C128 H144 0.931 . S
C129 C128 1.370 . S
C129 C133 1.408 1_655 S
C130 C128 1.363 . S
C130 C131 1.370 1_655 S
C130 C134 1.524 . S
C131 C123 1.503 . S
C131 C130 1.370 1_455 S
C131 C132 1.403 . S
C132 C131 1.403 . S
C132 C133 1.404 . S
C132 C135 1.539 . S
C133 C129 1.408 1_455 S
C133 C132 1.404 . S
C133 H145 0.930 . S
C134 C130 1.524 . S
C134 H146 0.956 . S
C134 H147 0.961 1_655 S
C134 H148 0.961 . S
C135 C132 1.539 . S
C135 H149 0.958 1_455 S
C135 H150 0.961 . S
C135 H151 0.960 . S
H136 C120 0.931 . S
H137 C125 0.929 . S
H138 C126 0.960 . S
H139 C126 0.962 . S
H140 C126 0.960 1_565 S
H141 C127 0.961 . S
H142 C127 0.961 . S
H143 C127 0.961 . S
H144 C128 0.931 . S
H145 C133 0.930 . S
H146 C134 0.956 . S
H147 C134 0.961 1_455 S
H148 C134 0.961 . S
H149 C135 0.958 1_655 S
H150 C135 0.961 . S
H151 C135 0.960 . S
C152 C153 1.391 . S
C152 C154 1.394 . S
C152 H168 0.931 . S
C153 C152 1.391 . S
C153 C157 1.376 1_545 S
C154 C152 1.394 . S
C154 C155 1.369 1_545 S
C154 C158 1.531 . S
C155 C154 1.369 1_565 S
C155 C156 1.410 . S
C155 C163 1.503 . S
C156 C155 1.410 . S
C156 C157 1.392 . S
C156 C159 1.511 . S
C157 C153 1.376 1_565 S
C157 C156 1.392 . S
C157 H169 0.929 . S
C158 C154 1.531 . S
C158 H170 0.960 . S
C158 H171 0.962 . S
C158 H172 0.960 . S
C159 C156 1.511 . S
C159 H173 0.961 . S
C159 H174 0.961 . S
C159 H175 0.961 . S
C160 C161 1.370 1_545 S
C160 C162 1.363 . S
C160 H176 0.931 . S
C161 C160 1.370 1_565 S
C161 C165 1.405 . S
C162 C160 1.363 . S
C162 C163 1.370 1_545 S
C162 C166 1.524 . S
C163 C155 1.503 . S
C163 C162 1.370 1_565 S
C163 C164 1.403 . S
C164 C163 1.403 . S
C164 C165 1.413 . S
C164 C167 1.539 . S
C165 C161 1.405 . S
C165 C164 1.413 . S
C165 H177 0.924 1_455 S
C166 C162 1.524 . S
C166 H178 0.956 . S
C166 H179 0.961 . S
C166 H180 0.961 . S
C167 C164 1.539 . S
C167 H181 0.958 . S
C167 H182 0.961 1_455 S
C167 H183 0.960 . S
H168 C152 0.931 . S
H169 C157 0.929 . S
H170 C158 0.960 . S
H171 C158 0.962 . S
H172 C158 0.960 . S
H173 C159 0.961 . S
H174 C159 0.961 . S
H175 C159 0.961 . S
H176 C160 0.931 . S
H177 C165 0.924 1_655 S
H178 C166 0.956 . S
H179 C166 0.961 . S
H180 C166 0.961 . S
H181 C167 0.958 . S
H182 C167 0.961 1_655 S
H183 C167 0.960 . S
C184 C185 1.391 . S
C184 C186 1.394 . S
C184 H200 0.931 . S
C185 C184 1.391 . S
C185 C189 1.376 . S
C186 C184 1.394 . S
C186 C187 1.369 . S
C186 C190 1.531 . S
C187 C186 1.369 . S
C187 C188 1.410 . S
C187 C195 1.503 . S
C188 C187 1.410 . S
C188 C189 1.392 . S
C188 C191 1.511 . S
C189 C185 1.376 . S
C189 C188 1.392 . S
C189 H201 0.929 . S
C190 C186 1.531 . S
C190 H202 0.960 . S
C190 H203 0.962 . S
C190 H204 0.960 . S
C191 C188 1.511 . S
C191 H205 0.961 . S
C191 H206 0.961 . S
C191 H207 0.961 . S
C192 C193 1.370 . S
C192 C194 1.363 . S
C192 H208 0.931 . S
C193 C192 1.370 . S
C193 C197 1.408 . S
C194 C192 1.363 . S
C194 C195 1.370 . S
C194 C198 1.524 . S
C195 C187 1.503 . S
C195 C194 1.370 . S
C195 C196 1.403 . S
C196 C195 1.403 . S
C196 C197 1.404 . S
C196 C199 1.539 . S
C197 C193 1.408 . S
C197 C196 1.404 . S
C197 H209 0.930 . S
C198 C194 1.524 . S
C198 H210 0.956 . S
C198 H211 0.961 . S
C198 H212 0.961 . S
C199 C196 1.539 . S
C199 H213 0.958 . S
C199 H214 0.961 . S
C199 H215 0.960 . S
H200 C184 0.931 . S
H201 C189 0.929 . S
H202 C190 0.960 . S
H203 C190 0.962 . S
H204 C190 0.960 . S
H205 C191 0.961 . S
H206 C191 0.961 . S
H207 C191 0.961 . S
H208 C192 0.931 . S
H209 C197 0.930 . S
H210 C198 0.956 . S
H211 C198 0.961 . S
H212 C198 0.961 . S
H213 C199 0.958 . S
H214 C199 0.961 . S
H215 C199 0.960 . S
C216 C217 1.391 1_565 S
C216 C218 1.394 . S
C216 H232 0.931 . S
C217 C216 1.391 1_545 S
C217 C221 1.376 . S
C218 C216 1.394 . S
C218 C219 1.369 1_565 S
C218 C222 1.531 . S
C219 C218 1.369 1_545 S
C219 C220 1.410 . S
C219 C227 1.503 . S
C220 C219 1.410 . S
C220 C221 1.392 . S
C220 C223 1.511 . S
C221 C217 1.376 . S
C221 C220 1.392 . S
C221 H233 0.929 . S
C222 C218 1.531 . S
C222 H234 0.953 1_556 S
C222 H235 0.962 . S
C222 H236 0.960 . S
C223 C220 1.511 . S
C223 H237 0.961 . S
C223 H238 0.961 . S
C223 H239 0.961 . S
C224 C225 1.370 1_556 S
C224 C226 1.363 . S
C224 H240 0.931 1_545 S
C225 C224 1.370 1_554 S
C225 C229 1.408 . S
C226 C224 1.363 . S
C226 C227 1.370 . S
C226 C230 1.524 . S
C227 C219 1.503 . S
C227 C226 1.370 . S
C227 C228 1.403 1_556 S
C228 C227 1.403 1_554 S
C228 C229 1.404 . S
C228 C231 1.539 . S
C229 C225 1.408 . S
C229 C228 1.404 . S
C229 H241 0.930 . S
C230 C226 1.524 . S
C230 H242 0.956 1_545 S
C230 H243 0.961 . S
C230 H244 0.961 1_545 S
C231 C228 1.539 . S
C231 H245 0.958 . S
C231 H246 0.961 . S
C231 H247 0.960 . S
H232 C216 0.931 . S
H233 C221 0.929 . S
H234 C222 0.953 1_554 S
H235 C222 0.962 . S
H236 C222 0.960 . S
H237 C223 0.961 . S
H238 C223 0.961 . S
H239 C223 0.961 . S
H240 C224 0.931 1_565 S
H241 C229 0.930 . S
H242 C230 0.956 1_565 S
H243 C230 0.961 . S
H244 C230 0.961 1_565 S
H245 C231 0.958 . S
H246 C231 0.961 . S
H247 C231 0.960 . S
C248 C249 1.391 . S
C248 C250 1.394 . S
C248 H264 0.931 . S
C249 C248 1.391 . S
C249 C253 1.376 . S
C250 C248 1.394 . S
C250 C251 1.369 . S
C250 C254 1.531 . S
C251 C250 1.369 . S
C251 C252 1.410 . S
C251 C259 1.503 . S
C252 C251 1.410 . S
C252 C253 1.392 . S
C252 C255 1.511 . S
C253 C249 1.376 . S
C253 C252 1.392 . S
C253 H265 0.929 . S
C254 C250 1.531 . S
C254 H266 0.960 . S
C254 H267 0.962 . S
C254 H268 0.960 . S
C255 C252 1.511 . S
C255 H269 0.961 1_545 S
C255 H270 0.961 . S
C255 H271 0.961 . S
C256 C257 1.370 . S
C256 C258 1.363 . S
C256 H272 0.931 . S
C257 C256 1.370 . S
C257 C261 1.408 . S
C258 C256 1.363 . S
C258 C259 1.370 . S
C258 C262 1.524 . S
C259 C251 1.503 . S
C259 C258 1.370 . S
C259 C260 1.403 . S
C260 C259 1.403 . S
C260 C261 1.404 . S
C260 C263 1.539 . S
C261 C257 1.408 . S
C261 C260 1.404 . S
C261 H273 0.930 . S
C262 C258 1.524 . S
C262 H274 0.956 . S
C262 H275 0.961 . S
C262 H276 0.961 . S
C263 C260 1.539 . S
C263 H277 0.958 . S
C263 H278 0.961 . S
C263 H279 0.960 . S
H264 C248 0.931 . S
H265 C253 0.929 . S
H266 C254 0.960 . S
H267 C254 0.962 . S
H268 C254 0.960 . S
H269 C255 0.961 1_565 S
H270 C255 0.961 . S
H271 C255 0.961 . S
H272 C256 0.931 . S
H273 C261 0.930 . S
H274 C262 0.956 . S
H275 C262 0.961 . S
H276 C262 0.961 . S
H277 C263 0.958 . S
H278 C263 0.961 . S
H279 C263 0.960 . S
C280 C281 1.391 1_545 S
C280 C282 1.394 . S
C280 H296 0.931 . S
C281 C280 1.391 1_565 S
C281 C285 1.376 . S
C282 C280 1.394 . S
C282 C283 1.369 1_545 S
C282 C286 1.531 . S
C283 C282 1.369 1_565 S
C283 C284 1.410 . S
C283 C291 1.503 . S
C284 C283 1.410 . S
C284 C285 1.392 . S
C284 C287 1.511 . S
C285 C281 1.376 . S
C285 C284 1.392 . S
C285 H297 0.929 . S
C286 C282 1.531 . S
C286 H298 0.960 . S
C286 H299 0.962 . S
C286 H300 0.960 1_655 S
C287 C284 1.511 . S
C287 H301 0.961 . S
C287 H302 0.961 . S
C287 H303 0.961 . S
C288 C289 1.370 . S
C288 C290 1.363 . S
C288 H304 0.931 . S
C289 C288 1.370 . S
C289 C293 1.408 . S
C290 C288 1.363 . S
C290 C291 1.370 . S
C290 C294 1.524 . S
C291 C283 1.503 . S
C291 C290 1.370 . S
C291 C292 1.403 . S
C292 C291 1.403 . S
C292 C293 1.404 . S
C292 C295 1.539 . S
C293 C289 1.408 . S
C293 C292 1.404 . S
C293 H305 0.930 . S
C294 C290 1.524 . S
C294 H306 0.956 1_565 S
C294 H307 0.961 . S
C294 H308 0.961 . S
C295 C292 1.539 . S
C295 H309 0.958 1_655 S
C295 H310 0.961 . S
C295 H311 0.960 . S
H296 C280 0.931 . S
H297 C285 0.929 . S
H298 C286 0.960 . S
H299 C286 0.962 . S
H300 C286 0.960 1_455 S
H301 C287 0.961 . S
H302 C287 0.961 . S
H303 C287 0.961 . S
H304 C288 0.931 . S
H305 C293 0.930 . S
H306 C294 0.956 1_545 S
H307 C294 0.961 . S
H308 C294 0.961 . S
H309 C295 0.958 1_455 S
H310 C295 0.961 . S
H311 C295 0.960 . S
C312 C313 1.391 1_455 S
C312 C314 1.394 . S
C312 H328 0.931 . S
C313 C312 1.391 1_655 S
C313 C317 1.376 . S
C314 C312 1.394 . S
C314 C315 1.369 1_455 S
C314 C318 1.531 . S
C315 C314 1.369 1_655 S
C315 C316 1.410 . S
C315 C323 1.503 1_556 S
C316 C315 1.410 . S
C316 C317 1.392 . S
C316 C319 1.511 . S
C317 C313 1.376 . S
C317 C316 1.392 . S
C317 H329 0.929 . S
C318 C314 1.531 . S
C318 H330 0.960 1_556 S
C318 H331 0.962 . S
C318 H332 0.960 . S
C319 C316 1.511 . S
C319 H333 0.961 . S
C319 H334 0.961 . S
C319 H335 0.961 . S
C320 C321 1.370 . S
C320 C322 1.363 . S
C320 H336 0.931 . S
C321 C320 1.370 . S
C321 C325 1.408 . S
C322 C320 1.363 . S
C322 C323 1.370 . S
C322 C326 1.524 1_554 S
C323 C315 1.503 1_554 S
C323 C322 1.370 . S
C323 C324 1.403 . S
C324 C323 1.403 . S
C324 C325 1.404 . S
C324 C327 1.539 1_655 S
C325 C321 1.408 . S
C325 C324 1.404 . S
C325 H337 0.930 1_655 S
C326 C322 1.524 1_556 S
C326 H338 0.956 . S
C326 H339 0.961 . S
C326 H340 0.961 . S
C327 C324 1.539 1_455 S
C327 H341 0.958 . S
C327 H342 0.961 . S
C327 H343 0.978 . S
H328 C312 0.931 . S
H329 C317 0.929 . S
H330 C318 0.960 1_554 S
H331 C318 0.962 . S
H332 C318 0.960 . S
H333 C319 0.961 . S
H334 C319 0.961 . S
H335 C319 0.961 . S
H336 C320 0.931 . S
H337 C325 0.930 1_455 S
H338 C326 0.956 . S
H339 C326 0.961 . S
H340 C326 0.961 . S
H341 C327 0.958 . S
H342 C327 0.961 . S
H343 C327 0.978 . S
C344 C345 1.391 . S
C344 C346 1.394 . S
C344 H360 0.931 . S
C345 C344 1.391 . S
C345 C349 1.376 . S
C346 C344 1.394 . S
C346 C347 1.369 . S
C346 C350 1.531 . S
C347 C346 1.369 . S
C347 C348 1.410 . S
C347 C355 1.503 . S
C348 C347 1.410 . S
C348 C349 1.392 . S
C348 C351 1.511 . S
C349 C345 1.376 . S
C349 C348 1.392 . S
C349 H361 0.929 . S
C350 C346 1.531 . S
C350 H362 0.960 . S
C350 H363 0.962 . S
C350 H364 0.960 . S
C351 C348 1.511 . S
C351 H365 0.961 . S
C351 H366 0.961 . S
C351 H367 0.961 . S
C352 C353 1.370 . S
C352 C354 1.363 . S
C352 H368 0.931 . S
C353 C352 1.370 . S
C353 C357 1.408 . S
C354 C352 1.363 . S
C354 C355 1.370 . S
C354 C358 1.524 . S
C355 C347 1.503 . S
C355 C354 1.370 . S
C355 C356 1.403 . S
C356 C355 1.403 . S
C356 C357 1.404 . S
C356 C359 1.539 . S
C357 C353 1.408 . S
C357 C356 1.404 . S
C357 H369 0.930 . S
C358 C354 1.524 . S
C358 H370 0.956 . S
C358 H371 0.961 . S
C358 H372 0.961 . S
C359 C356 1.539 . S
C359 H373 0.958 . S
C359 H374 0.961 . S
C359 H375 0.960 . S
H360 C344 0.931 . S
H361 C349 0.929 . S
H362 C350 0.960 . S
H363 C350 0.962 . S
H364 C350 0.960 . S
H365 C351 0.961 . S
H366 C351 0.961 . S
H367 C351 0.961 . S
H368 C352 0.931 . S
H369 C357 0.930 . S
H370 C358 0.956 . S
H371 C358 0.961 . S
H372 C358 0.961 . S
H373 C359 0.958 . S
H374 C359 0.961 . S
H375 C359 0.960 . S
C376 C377 1.391 . S
C376 C378 1.394 . S
C376 H392 0.931 . S
C377 C376 1.391 . S
C377 C381 1.376 . S
C378 C376 1.394 . S
C378 C379 1.369 . S
C378 C382 1.531 . S
C379 C378 1.369 . S
C379 C380 1.410 . S
C379 C387 1.503 . S
C380 C379 1.410 . S
C380 C381 1.392 . S
C380 C383 1.511 1_455 S
C381 C377 1.376 . S
C381 C380 1.392 . S
C381 H393 0.929 . S
C382 C378 1.531 . S
C382 H394 0.960 . S
C382 H395 0.962 . S
C382 H396 0.960 . S
C383 C380 1.511 1_655 S
C383 H397 0.961 . S
C383 H398 0.961 . S
C383 H399 0.961 . S
C384 C385 1.370 1_455 S
C384 C386 1.363 . S
C384 H400 0.931 . S
C385 C384 1.370 1_655 S
C385 C389 1.408 . S
C386 C384 1.363 . S
C386 C387 1.370 . S
C386 C390 1.524 . S
C387 C379 1.503 . S
C387 C386 1.370 . S
C387 C388 1.403 1_455 S
C388 C387 1.403 1_655 S
C388 C389 1.404 . S
C388 C391 1.539 . S
C389 C385 1.408 . S
C389 C388 1.404 . S
C389 H401 0.930 . S
C390 C386 1.524 . S
C390 H402 0.956 . S
C390 H403 0.961 . S
C390 H404 0.961 . S
C391 C388 1.539 . S
C391 H405 0.958 . S
C391 H406 0.961 . S
C391 H407 0.960 . S
H392 C376 0.931 . S
H393 C381 0.929 . S
H394 C382 0.960 . S
H395 C382 0.962 . S
H396 C382 0.960 . S
H397 C383 0.961 . S
H398 C383 0.961 . S
H399 C383 0.961 . S
H400 C384 0.931 . S
H401 C389 0.930 . S
H402 C390 0.956 . S
H403 C390 0.961 . S
H404 C390 0.961 . S
H405 C391 0.958 . S
H406 C391 0.961 . S
H407 C391 0.960 . S
C121 C2 1.543 1_455 S
C129 C15 1.575 1_655 S
C153 C55 1.633 1_545 S
C161 C42 1.652 1_465 S
C185 C82 1.358 . S
C193 C95 1.360 . S
C217 C89 0.992 . S
C225 C26 0.954 1_545 S
C249 C43 1.882 . S
C257 C9 1.834 . S
C281 C83 2.401 . S
C289 C62 2.390 . S
C313 C102 2.349 . S
C321 C3 2.299 . S
C345 C22 1.845 . S
C353 C66 1.766 . S
C377 C106 0.953 . S
C385 C49 1.054 . S
