# Generated by pormake.
# Topology mon, (4)-cn, num edge types: 1
# Building blocks:
#     Node 0, Type 0, BuildingBlock: QUQFOY_clean_sbu_3, # of connection points: 4
#     Node 1, Type 0, BuildingBlock: QUQFOY_clean_sbu_3, # of connection points: 4
#     Node 2, Type 0, BuildingBlock: QUQFOY_clean_sbu_3, # of connection points: 4
#     Node 3, Type 0, BuildingBlock: QUQFOY_clean_sbu_3, # of connection points: 4
#     Node 4, Type 0, BuildingBlock: QUQFOY_clean_sbu_3, # of connection points: 4
#     Node 5, Type 0, BuildingBlock: QUQFOY_clean_sbu_3, # of connection points: 4
#     Node 6, Type 0, BuildingBlock: QUQFOY_clean_sbu_3, # of connection points: 4
#     Node 7, Type 0, BuildingBlock: QUQFOY_clean_sbu_3, # of connection points: 4
#     Node 8, Type 0, BuildingBlock: QUQFOY_clean_sbu_3, # of connection points: 4
#     Node 9, Type 0, BuildingBlock: QUQFOY_clean_sbu_3, # of connection points: 4
#     Node 10, Type 0, BuildingBlock: QUQFOY_clean_sbu_3, # of connection points: 4
#     Node 11, Type 0, BuildingBlock: QUQFOY_clean_sbu_3, # of connection points: 4
#     Node 12, Type 0, BuildingBlock: QUQFOY_clean_sbu_3, # of connection points: 4
#     Node 13, Type 0, BuildingBlock: QUQFOY_clean_sbu_3, # of connection points: 4
#     Node 14, Type 0, BuildingBlock: QUQFOY_clean_sbu_3, # of connection points: 4
#     Node 15, Type 0, BuildingBlock: QUQFOY_clean_sbu_3, # of connection points: 4
#     Edge 16, Type (0, 0), BuildingBlock: KIFKEQ_clean_linker_1, # of connection points: 2
#     Edge 17, Type (0, 0), BuildingBlock: KIFKEQ_clean_linker_1, # of connection points: 2
#     Edge 18, Type (0, 0), BuildingBlock: KIFKEQ_clean_linker_1, # of connection points: 2
#     Edge 19, Type (0, 0), BuildingBlock: KIFKEQ_clean_linker_1, # of connection points: 2
#     Edge 20, Type (0, 0), BuildingBlock: KIFKEQ_clean_linker_1, # of connection points: 2
#     Edge 21, Type (0, 0), BuildingBlock: KIFKEQ_clean_linker_1, # of connection points: 2
#     Edge 22, Type (0, 0), BuildingBlock: KIFKEQ_clean_linker_1, # of connection points: 2
#     Edge 23, Type (0, 0), BuildingBlock: KIFKEQ_clean_linker_1, # of connection points: 2
#     Edge 24, Type (0, 0), BuildingBlock: KIFKEQ_clean_linker_1, # of connection points: 2
#     Edge 25, Type (0, 0), BuildingBlock: KIFKEQ_clean_linker_1, # of connection points: 2
#     Edge 26, Type (0, 0), BuildingBlock: KIFKEQ_clean_linker_1, # of connection points: 2
#     Edge 27, Type (0, 0), BuildingBlock: KIFKEQ_clean_linker_1, # of connection points: 2
#     Edge 28, Type (0, 0), BuildingBlock: KIFKEQ_clean_linker_1, # of connection points: 2
#     Edge 29, Type (0, 0), BuildingBlock: KIFKEQ_clean_linker_1, # of connection points: 2
#     Edge 30, Type (0, 0), BuildingBlock: KIFKEQ_clean_linker_1, # of connection points: 2
#     Edge 31, Type (0, 0), BuildingBlock: KIFKEQ_clean_linker_1, # of connection points: 2
#     Edge 32, Type (0, 0), BuildingBlock: KIFKEQ_clean_linker_1, # of connection points: 2
#     Edge 33, Type (0, 0), BuildingBlock: KIFKEQ_clean_linker_1, # of connection points: 2
#     Edge 34, Type (0, 0), BuildingBlock: KIFKEQ_clean_linker_1, # of connection points: 2
#     Edge 35, Type (0, 0), BuildingBlock: KIFKEQ_clean_linker_1, # of connection points: 2
#     Edge 36, Type (0, 0), BuildingBlock: KIFKEQ_clean_linker_1, # of connection points: 2
#     Edge 37, Type (0, 0), BuildingBlock: KIFKEQ_clean_linker_1, # of connection points: 2
#     Edge 38, Type (0, 0), BuildingBlock: KIFKEQ_clean_linker_1, # of connection points: 2
#     Edge 39, Type (0, 0), BuildingBlock: KIFKEQ_clean_linker_1, # of connection points: 2
#     Edge 40, Type (0, 0), BuildingBlock: KIFKEQ_clean_linker_1, # of connection points: 2
#     Edge 41, Type (0, 0), BuildingBlock: KIFKEQ_clean_linker_1, # of connection points: 2
#     Edge 42, Type (0, 0), BuildingBlock: KIFKEQ_clean_linker_1, # of connection points: 2
#     Edge 43, Type (0, 0), BuildingBlock: KIFKEQ_clean_linker_1, # of connection points: 2
#     Edge 44, Type (0, 0), BuildingBlock: KIFKEQ_clean_linker_1, # of connection points: 2
#     Edge 45, Type (0, 0), BuildingBlock: KIFKEQ_clean_linker_1, # of connection points: 2
#     Edge 46, Type (0, 0), BuildingBlock: KIFKEQ_clean_linker_1, # of connection points: 2
#     Edge 47, Type (0, 0), BuildingBlock: KIFKEQ_clean_linker_1, # of connection points: 2
# Relax obj value: 0.180
# Max RMSD: 0.173
# Mean RMSD: 0.173
data_MOF--net-mon--node1-QUQFOY_clean_sbu_3--edge1-KIFKEQ_clean_linker_1
_symmetry_space_group_name_H-M    P1
_symmetry_Int_Tables_number       1
_symmetry_cell_setting            triclinic
loop_
_symmetry_equiv_pos_as_xyz
'x, y, z'
_cell_length_a     35.324727
_cell_length_b     35.26249
_cell_length_c     87.657885
_cell_angle_alpha  89.971761
_cell_angle_beta   90.023057
_cell_angle_gamma 89.971306
loop_
_atom_site_label
_atom_site_type_symbol
_atom_site_fract_x
_atom_site_fract_y
_atom_site_fract_z
_atom_type_partial_charge
C0 C 0.08735 0.9837 0.59133 0.0
O1 O 0.08754 0.96227 0.57969 0.0
Cd2 Cd 0.03543 0.95592 0.56277 0.0
O3 O 0.06011 0.00661 0.59386 0.0
Cd4 Cd 0.00262 0.03107 0.58065 0.0
C5 C 0.96202 0.94706 0.58903 0.0
O6 O 0.02563 0.01976 0.55564 0.0
O7 O 0.96666 0.03464 0.55615 0.0
O8 O 0.02776 0.09343 0.58567 0.0
C9 C -0.00445 0.02606 0.54829 0.0
O10 O 0.98396 0.9322 0.57914 0.0
C11 C -0.00242 0.10688 0.59137 0.0
O12 O 0.9633 0.9824 0.59194 0.0
O13 O 0.96932 0.08468 0.59228 0.0
C14 C 0.27155 0.82771 0.82163 0.0
O15 O 0.29189 0.81874 0.81025 0.0
Cd16 Cd 0.29299 0.7556 0.80024 0.0
O17 O 0.24826 0.80408 0.82735 0.0
Cd18 Cd 0.22128 0.74029 0.82342 0.0
C19 C 0.30586 0.70553 0.83415 0.0
O20 O 0.22854 0.73952 0.79645 0.0
O21 O 0.21617 0.68481 0.80611 0.0
O22 O 0.16056 0.77057 0.8262 0.0
C23 C 0.22233 0.70464 0.79431 0.0
O24 O 0.31816 0.71645 0.82118 0.0
C25 C 0.14755 0.74727 0.83591 0.0
O26 O 0.27198 0.71239 0.83829 0.0
O27 O 0.16915 0.72021 0.83996 0.0
C28 C 0.3909 0.01739 0.08758 0.0
O29 O 0.39683 0.04141 0.07704 0.0
Cd30 Cd 0.45008 0.04359 0.0605 0.0
O31 O 0.41399 0.99019 0.08999 0.0
Cd32 Cd 0.47306 0.96421 0.07866 0.0
C33 C 0.51978 0.04504 0.08823 0.0
O34 O 0.45444 0.97926 0.05342 0.0
O35 O 0.51161 0.9589 0.05477 0.0
O36 O 0.44635 0.90161 0.08254 0.0
C37 C 0.48458 0.97077 0.04652 0.0
O38 O 0.50257 0.06157 0.07731 0.0
C39 C 0.47545 0.88781 0.089 0.0
O40 O 0.51293 0.01054 0.09154 0.0
O41 O 0.50348 0.9099 0.09088 0.0
C42 C 0.24324 0.15703 0.32529 0.0
O43 O 0.22587 0.16303 0.31284 0.0
Cd44 Cd 0.22841 0.22374 0.30075 0.0
O45 O 0.26505 0.18213 0.33093 0.0
Cd46 Cd 0.29305 0.2447 0.32544 0.0
C47 C 0.20697 0.28106 0.33184 0.0
O48 O 0.29409 0.23764 0.29853 0.0
O49 O 0.29976 0.29547 0.30587 0.0
O50 O 0.35191 0.21479 0.33199 0.0
C51 C 0.299 0.27198 0.29492 0.0
O52 O 0.19765 0.26768 0.31885 0.0
C53 C 0.36366 0.24092 0.34073 0.0
O54 O 0.23968 0.27501 0.33744 0.0
O55 O 0.3422 0.26956 0.34249 0.0
C56 C 0.09757 0.00632 0.39435 0.0
O57 O 0.09642 0.02893 0.40562 0.0
Cd58 Cd 0.04307 0.03595 0.42202 0.0
O59 O 0.07088 0.98286 0.3918 0.0
Cd60 Cd 0.01222 0.95946 0.40408 0.0
C61 C 0.97251 0.04331 0.39448 0.0
O62 O 0.03226 0.97257 0.42933 0.0
O63 O 0.97346 0.95737 0.42791 0.0
O64 O 0.0381 0.89698 0.40012 0.0
C65 C 0.00137 0.96684 0.43618 0.0
O66 O 0.99201 0.05835 0.40513 0.0
C67 C 0.00869 0.88318 0.39392 0.0
O68 O 0.97556 0.00818 0.39134 0.0
O69 O 0.98046 0.90522 0.39228 0.0
C70 C 0.23175 0.82638 0.659 0.0
O71 O 0.21485 0.81931 0.67145 0.0
Cd72 Cd 0.21852 0.75752 0.68246 0.0
O73 O 0.2539 0.80202 0.65304 0.0
Cd74 Cd 0.28338 0.73976 0.65834 0.0
C75 C 0.19903 0.70108 0.65094 0.0
O76 O 0.28462 0.74489 0.68562 0.0
O77 O 0.29136 0.68801 0.67699 0.0
O78 O 0.3425 0.77032 0.65236 0.0
C79 C 0.29138 0.71029 0.68833 0.0
O80 O 0.18828 0.71522 0.66361 0.0
C81 C 0.35436 0.74493 0.64329 0.0
O82 O 0.23237 0.70668 0.64594 0.0
O83 O 0.33283 0.7166 0.64105 0.0
C84 C 0.40815 0.9862 0.89006 0.0
O85 O 0.40611 0.96534 0.90183 0.0
Cd86 Cd 0.4567 0.95892 0.91951 0.0
O87 O 0.43629 0.00815 0.88786 0.0
Cd88 Cd 0.49291 0.03166 0.90182 0.0
C89 C 0.53229 0.94676 0.89454 0.0
O90 O 0.46665 0.02293 0.92665 0.0
O91 O 0.52614 0.0355 0.9268 0.0
O92 O 0.46923 0.09266 0.89357 0.0
C93 C 0.49629 0.02875 0.93435 0.0
O94 O 0.5093 0.93285 0.90426 0.0
C95 C 0.50143 0.10636 0.89033 0.0
O96 O 0.53183 0.98194 0.89131 0.0
O97 O 0.53005 0.08505 0.89228 0.0
C98 C 0.25289 0.15942 0.16148 0.0
O99 O 0.27181 0.16719 0.17339 0.0
Cd100 Cd 0.2681 0.22741 0.18551 0.0
O101 O 0.22956 0.18336 0.15593 0.0
Cd102 Cd 0.20166 0.24663 0.16108 0.0
C103 C 0.28707 0.28527 0.15437 0.0
O104 O 0.20185 0.23893 0.18792 0.0
O105 O 0.19298 0.29661 0.18091 0.0
O106 O 0.14267 0.21674 0.15448 0.0
C107 C 0.19528 0.27283 0.19173 0.0
O108 O 0.29759 0.27089 0.16703 0.0
C109 C 0.13106 0.2428 0.14567 0.0
O110 O 0.25389 0.27962 0.14919 0.0
O111 O 0.15258 0.27136 0.14392 0.0
C112 C 0.73487 0.32311 0.16044 0.0
O113 O 0.7173 0.31465 0.1726 0.0
Cd114 Cd 0.72219 0.25279 0.18344 0.0
O115 O 0.75768 0.29959 0.15432 0.0
Cd116 Cd 0.78678 0.23673 0.15895 0.0
C117 C 0.7025 0.19743 0.15171 0.0
O118 O 0.78863 0.24252 0.18595 0.0
O119 O 0.79471 0.18508 0.17821 0.0
O120 O 0.84521 0.26789 0.15246 0.0
C121 C 0.79488 0.20825 0.18928 0.0
O122 O 0.6926 0.20925 0.16487 0.0
C123 C 0.85752 0.24204 0.14371 0.0
O124 O 0.73495 0.20535 0.14629 0.0
O125 O 0.83654 0.21312 0.14187 0.0
C126 C 0.75155 0.65768 0.6574 0.0
O127 O 0.77095 0.66547 0.66918 0.0
Cd128 Cd 0.76737 0.72542 0.68138 0.0
O129 O 0.72778 0.68151 0.65209 0.0
Cd130 Cd 0.70017 0.74458 0.65802 0.0
C131 C 0.7846 0.78401 0.6504 0.0
O132 O 0.70101 0.73517 0.68482 0.0
O133 O 0.6928 0.7934 0.67845 0.0
O134 O 0.64071 0.71525 0.65154 0.0
C135 C 0.69433 0.76877 0.68897 0.0
O136 O 0.79604 0.76946 0.66289 0.0
C137 C 0.62863 0.74213 0.64324 0.0
O138 O 0.75109 0.77828 0.6456 0.0
O139 O 0.65014 0.77076 0.64169 0.0
C140 C 0.75659 0.3272 0.32459 0.0
O141 O 0.77486 0.32085 0.31239 0.0
Cd142 Cd 0.77365 0.25974 0.30066 0.0
O143 O 0.73473 0.30209 0.3302 0.0
Cd144 Cd 0.70799 0.23888 0.32478 0.0
C145 C 0.79404 0.20334 0.33213 0.0
O146 O 0.70806 0.24595 0.29786 0.0
O147 O 0.70197 0.18808 0.30512 0.0
O148 O 0.64861 0.26819 0.33105 0.0
C149 C 0.70308 0.21167 0.2942 0.0
O150 O 0.80401 0.21649 0.31918 0.0
C151 C 0.63701 0.24204 0.33982 0.0
O152 O 0.76096 0.20922 0.33736 0.0
O153 O 0.6587 0.21361 0.34166 0.0
C154 C 0.748 0.6574 0.83034 0.0
O155 O 0.72879 0.66019 0.81816 0.0
Cd156 Cd 0.72536 0.71835 0.80454 0.0
O157 O 0.76969 0.68423 0.83466 0.0
Cd158 Cd 0.79544 0.74572 0.82556 0.0
C159 C 0.71052 0.78113 0.83469 0.0
O160 O 0.78959 0.73274 0.79909 0.0
O161 O 0.79671 0.79195 0.80406 0.0
O162 O 0.85652 0.7182 0.83058 0.0
C163 C 0.79326 0.76614 0.79409 0.0
O164 O 0.69793 0.76329 0.82309 0.0
C165 C 0.86985 0.74644 0.83775 0.0
O166 O 0.74522 0.77894 0.83851 0.0
O167 O 0.84823 0.775 0.83939 0.0
C168 C 0.59293 0.48449 0.0948 0.0
O169 O 0.59312 0.4613 0.08372 0.0
Cd170 Cd 0.54142 0.45065 0.06696 0.0
O171 O 0.56549 0.50743 0.0969 0.0
Cd172 Cd 0.5074 0.5292 0.08327 0.0
C173 C 0.46823 0.44554 0.09358 0.0
O174 O 0.52938 0.51285 0.05864 0.0
O175 O 0.47069 0.52887 0.0589 0.0
O176 O 0.53131 0.59293 0.08622 0.0
C177 C 0.49903 0.51757 0.05129 0.0
O178 O 0.49032 0.42961 0.08402 0.0
C179 C 0.50113 0.60662 0.09182 0.0
O180 O 0.469 0.48128 0.09571 0.0
O181 O 0.47355 0.58392 0.09371 0.0
C182 C 0.89272 0.51444 0.58503 0.0
O183 O 0.89851 0.53702 0.57398 0.0
Cd184 Cd 0.95392 0.53805 0.55876 0.0
O185 O 0.91665 0.48857 0.58832 0.0
Cd186 Cd 0.97699 0.46187 0.57834 0.0
C187 C 0.0209 0.5441 0.58753 0.0
O188 O 0.95993 0.47289 0.55263 0.0
O189 O 0.01758 0.45451 0.55512 0.0
O190 O 0.94903 0.40037 0.58302 0.0
C191 C 0.9907 0.46389 0.5463 0.0
O192 O 0.00292 0.55967 0.57659 0.0
C193 C 0.97735 0.38668 0.59003 0.0
O194 O 0.01612 0.50923 0.59076 0.0
O195 O 0.00575 0.40834 0.59183 0.0
C196 C 0.59988 0.50995 0.90059 0.0
O197 O 0.59642 0.53067 0.91235 0.0
Cd198 Cd 0.54143 0.53066 0.92802 0.0
O199 O 0.57462 0.48571 0.89701 0.0
Cd200 Cd 0.51527 0.45853 0.90746 0.0
C201 C 0.47292 0.54236 0.90014 0.0
O202 O 0.53555 0.46484 0.93317 0.0
O203 O 0.4769 0.44982 0.93114 0.0
O204 O 0.54249 0.39934 0.89867 0.0
C205 C 0.505 0.45623 0.93976 0.0
O206 O 0.49059 0.55597 0.91158 0.0
C207 C 0.51144 0.38544 0.89401 0.0
O208 O 0.47804 0.5082 0.89595 0.0
O209 O 0.482 0.40584 0.89543 0.0
C210 C 0.90036 0.47976 0.39261 0.0
O211 O 0.90155 0.45669 0.40374 0.0
Cd212 Cd 0.95486 0.44811 0.42003 0.0
O213 O 0.92723 0.50303 0.39007 0.0
Cd214 Cd 0.98652 0.52563 0.40218 0.0
C215 C 0.02535 0.44147 0.39236 0.0
O216 O 0.9669 0.5111 0.42722 0.0
O217 O 0.02546 0.5273 0.42604 0.0
O218 O 0.96058 0.58819 0.39869 0.0
C219 C -0.00226 0.51652 0.43414 0.0
O220 O 0.00562 0.42638 0.40293 0.0
C221 C 0.98984 0.60228 0.39249 0.0
O222 O 0.02271 0.47671 0.3893 0.0
O223 O 0.01803 0.58033 0.39059 0.0
H224 H 0.05297 0.16017 0.58934 0.0
H225 H 0.93654 0.14478 0.60313 0.0
H226 H 0.04683 0.22808 0.59296 0.0
H227 H 0.93066 0.21305 0.60722 0.0
H228 H 0.03382 0.349 0.60512 0.0
H229 H 0.03801 0.28089 0.60985 0.0
H230 H 0.9271 0.2658 0.5899 0.0
H231 H 0.92249 0.33365 0.58563 0.0
C232 C 0.02625 0.17124 0.59346 0.0
C233 C -0.00495 0.14722 0.59573 0.0
C234 C 0.02282 0.21022 0.59567 0.0
C235 C 0.98816 0.22607 0.60029 0.0
C236 C 0.95757 0.20176 0.60343 0.0
C237 C 0.96097 0.16267 0.60115 0.0
C238 C 0.01009 0.33115 0.60201 0.0
C239 C 0.97806 0.34655 0.59481 0.0
C240 C 0.01253 0.29215 0.60467 0.0
C241 C 0.98307 0.26784 0.6001 0.0
C242 C 0.95015 0.28366 0.59371 0.0
C243 C 0.94765 0.3226 0.59114 0.0
H244 H 0.91035 0.80596 0.84942 0.0
H245 H 0.91918 0.68732 0.83759 0.0
H246 H 0.9786 0.808 0.85402 0.0
H247 H 0.987 0.68952 0.84188 0.0
H248 H 0.0979 0.80455 0.83034 0.0
H249 H 0.03047 0.80539 0.83562 0.0
H250 H 0.04037 0.69821 0.85922 0.0
H251 H 0.10817 0.69701 0.85365 0.0
C252 C 0.92673 0.7802 0.84807 0.0
C253 C 0.9096 0.74666 0.84289 0.0
C254 C 0.96576 0.78139 0.85066 0.0
C255 C 0.98821 0.74902 0.84818 0.0
C256 C 0.97052 0.71486 0.84405 0.0
C257 C 0.93165 0.71371 0.84143 0.0
C258 C 0.08586 0.78144 0.83688 0.0
C259 C 0.10816 0.75036 0.84134 0.0
C260 C 0.04722 0.78213 0.84005 0.0
C261 C 0.03004 0.75172 0.84774 0.0
C262 C 0.05281 0.72181 0.85311 0.0
C263 C 0.09158 0.72116 0.84995 0.0
H264 H 0.43971 0.64495 0.10301 0.0
H265 H 0.55507 0.66081 0.08791 0.0
H266 H 0.43273 0.71351 0.10586 0.0
H267 H 0.54783 0.729 0.09035 0.0
H268 H 0.4217 0.83369 0.08425 0.0
H269 H 0.42779 0.76568 0.08807 0.0
H270 H 0.53928 0.78216 0.10728 0.0
H271 H 0.53357 0.85033 0.10306 0.0
C272 C 0.46365 0.66303 0.10044 0.0
C273 C 0.49781 0.64754 0.09511 0.0
C274 C 0.45961 0.70228 0.102 0.0
C275 C 0.48964 0.72674 0.09825 0.0
C276 C 0.52428 0.71101 0.09354 0.0
C277 C 0.52834 0.67187 0.09202 0.0
C278 C 0.44733 0.82288 0.08947 0.0
C279 C 0.47736 0.8473 0.09318 0.0
C280 C 0.4507 0.78387 0.09177 0.0
C281 C 0.48413 0.76845 0.09788 0.0
C282 C 0.5134 0.79312 0.10232 0.0
C283 C 0.51008 0.83217 0.09996 0.0
H284 H 0.5878 0.30114 0.33874 0.0
H285 H 0.59981 0.18691 0.35596 0.0
H286 H 0.52113 0.30034 0.34512 0.0
H287 H 0.53272 0.18643 0.36278 0.0
H288 H 0.41239 0.1814 0.33985 0.0
H289 H 0.47937 0.18221 0.34571 0.0
H290 H 0.46896 0.29675 0.36278 0.0
H291 H 0.40156 0.29625 0.35647 0.0
C292 C 0.57635 0.27615 0.34425 0.0
C293 C 0.59876 0.24373 0.3465 0.0
C294 C 0.53812 0.27586 0.3481 0.0
C295 C 0.52147 0.24313 0.3543 0.0
C296 C 0.54466 0.21184 0.35779 0.0
C297 C 0.58304 0.21213 0.35391 0.0
C298 C 0.42417 0.20653 0.34515 0.0
C299 C 0.40199 0.23912 0.34734 0.0
C300 C 0.46259 0.20684 0.34869 0.0
C301 C 0.47964 0.23976 0.35453 0.0
C302 C 0.4567 0.27119 0.35804 0.0
C303 C 0.41814 0.27089 0.35446 0.0
H304 H 0.06391 0.83014 0.39753 0.0
H305 H 0.9497 0.84481 0.38082 0.0
H306 H 0.05893 0.7622 0.39365 0.0
H307 H 0.94506 0.77655 0.3765 0.0
H308 H 0.9346 0.65502 0.39663 0.0
H309 H 0.93955 0.72319 0.39348 0.0
H310 H 0.0533 0.71003 0.37608 0.0
H311 H 0.04869 0.64149 0.37969 0.0
C312 C 0.03795 0.81891 0.39275 0.0
C313 C 0.00699 0.84274 0.38968 0.0
C314 C 0.03522 0.77993 0.39039 0.0
C315 C 0.00151 0.7639 0.38484 0.0
C316 C 0.97121 0.788 0.38101 0.0
C317 C 0.9739 0.82708 0.38343 0.0
C318 C 0.96052 0.66657 0.39195 0.0
C319 C 0.99147 0.64296 0.38861 0.0
C320 C 0.96324 0.7057 0.39 0.0
C321 C -0.00309 0.7221 0.38461 0.0
C322 C 0.02718 0.69827 0.38049 0.0
C323 C 0.0245 0.65904 0.38249 0.0
H324 H 0.40366 0.80383 0.64527 0.0
H325 H 0.39207 0.6908 0.62683 0.0
H326 H 0.47068 0.80304 0.63941 0.0
H327 H 0.45948 0.69034 0.62057 0.0
H328 H 0.57915 0.68321 0.64395 0.0
H329 H 0.51213 0.68492 0.6381 0.0
H330 H 0.52347 0.80015 0.62188 0.0
H331 H 0.59089 0.7987 0.62814 0.0
C332 C 0.41528 0.77915 0.6396 0.0
C333 C 0.39284 0.74702 0.63684 0.0
C334 C 0.45372 0.77886 0.63607 0.0
C335 C 0.47054 0.74642 0.62969 0.0
C336 C 0.44739 0.71551 0.62571 0.0
C337 C 0.40882 0.7158 0.62926 0.0
C338 C 0.56756 0.70869 0.63886 0.0
C339 C 0.59004 0.74113 0.63684 0.0
C340 C 0.52912 0.70953 0.63533 0.0
C341 C 0.51235 0.74285 0.62968 0.0
C342 C 0.53552 0.77427 0.62644 0.0
C343 C 0.57409 0.77342 0.63 0.0
H344 H 0.44972 0.33953 0.89343 0.0
H345 H 0.56866 0.34276 0.88222 0.0
H346 H 0.44858 0.27183 0.88859 0.0
H347 H 0.56726 0.2752 0.87638 0.0
H348 H 0.56309 0.15163 0.89378 0.0
H349 H 0.56568 0.22 0.89074 0.0
H350 H 0.45153 0.21939 0.87276 0.0
H351 H 0.44838 0.15111 0.8768 0.0
C352 C 0.47538 0.32586 0.88948 0.0
C353 C 0.5094 0.34615 0.88843 0.0
C354 C 0.47474 0.28698 0.88657 0.0
C355 C 0.50799 0.26771 0.88225 0.0
C356 C 0.54137 0.2888 0.88009 0.0
C357 C 0.54216 0.32756 0.88333 0.0
C358 C 0.53883 0.1661 0.88894 0.0
C359 C 0.50535 0.14631 0.88576 0.0
C360 C 0.54033 0.20537 0.88707 0.0
C361 C 0.50858 0.22553 0.88168 0.0
C362 C 0.47613 0.20506 0.87735 0.0
C363 C 0.47438 0.1659 0.87955 0.0
H364 H 0.08224 0.18338 0.14646 0.0
H365 H 0.09372 0.29792 0.12954 0.0
H366 H 0.01565 0.18389 0.13989 0.0
H367 H 0.02673 0.29813 0.12255 0.0
H368 H 0.89631 0.18736 0.12795 0.0
H369 H 0.96387 0.18744 0.12198 0.0
H370 H 0.97291 0.3017 0.13945 0.0
H371 H 0.90574 0.30194 0.14499 0.0
C372 C 0.0707 0.20838 0.14098 0.0
C373 C 0.09294 0.24095 0.13886 0.0
C374 C 0.03252 0.20852 0.13703 0.0
C375 C 0.01573 0.24124 0.13085 0.0
C376 C 0.03876 0.27271 0.12752 0.0
C377 C 0.0771 0.27257 0.13149 0.0
C378 C 0.91261 0.2128 0.13012 0.0
C379 C 0.896 0.24432 0.13726 0.0
C380 C 0.95128 0.21282 0.12674 0.0
C381 C 0.97388 0.24434 0.13046 0.0
C382 C 0.9564 0.27703 0.13632 0.0
C383 C 0.91786 0.27702 0.13967 0.0
H384 H 0.94098 0.95356 0.45525 0.0
H385 H 0.05282 0.0031 0.45375 0.0
H386 H 0.93686 0.96883 0.48253 0.0
H387 H 0.04828 0.01914 0.48052 0.0
H388 H 0.05133 -0.00306 0.53071 0.0
H389 H 0.04959 0.98256 0.50374 0.0
H390 H 0.93414 0.02267 0.50123 0.0
H391 H 0.93552 0.03633 0.52869 0.0
C392 C 0.96448 0.96786 0.46071 0.0
C393 C -0.00258 0.97662 0.45245 0.0
C394 C 0.96203 0.97682 0.47625 0.0
C395 C 0.99246 -0.00526 0.48368 0.0
C396 C 0.02473 0.00453 0.47522 0.0
C397 C 0.02728 -0.00461 0.45984 0.0
C398 C 0.02551 0.00284 0.52446 0.0
C399 C -0.00636 0.01809 0.5318 0.0
C400 C 0.02458 -0.0053 0.50896 0.0
C401 C 0.99189 0.00194 0.50032 0.0
C402 C 0.95967 0.01668 0.50764 0.0
C403 C 0.96054 0.02472 0.5233 0.0
H404 H 0.2942 0.68913 0.78652 0.0
H405 H 0.17925 0.68347 0.77013 0.0
H406 H 0.31769 0.67754 0.76068 0.0
H407 H 0.20261 0.67144 0.74422 0.0
H408 H 0.25891 0.64508 0.69885 0.0
H409 H 0.24554 0.62958 0.72564 0.0
H410 H 0.30735 0.72917 0.73979 0.0
H411 H 0.31971 0.74505 0.7132 0.0
C412 C 0.27406 0.68393 0.77743 0.0
C413 C 0.23508 0.68718 0.78011 0.0
C414 C 0.28744 0.67732 0.76271 0.0
C415 C 0.26193 0.67381 0.75052 0.0
C416 C 0.2228 0.67363 0.75349 0.0
C417 C 0.20942 0.68058 0.76823 0.0
C418 C 0.27048 0.66293 0.70775 0.0
C419 C 0.29019 0.6963 0.70409 0.0
C420 C 0.26272 0.65416 0.72301 0.0
C421 C 0.27553 0.67813 0.7347 0.0
C422 C 0.29758 0.70995 0.73099 0.0
C423 C 0.3045 0.71916 0.71581 0.0
H424 H 0.43595 0.01106 0.02904 0.0
H425 H 0.54364 0.95293 0.02738 0.0
H426 H 0.4416 0.02702 0.00229 0.0
H427 H 0.54881 0.96819 0.00013 0.0
H428 H 0.55614 0.03515 0.95421 0.0
H429 H 0.55583 0.02181 0.98168 0.0
H430 H 0.43749 0.99156 0.97889 0.0
H431 H 0.43751 0.00566 0.95185 0.0
C432 C 0.4608 0.00145 0.02292 0.0
C433 C 0.48918 0.98034 0.03026 0.0
C434 C 0.46397 0.01054 0.00755 0.0
C435 C 0.49538 -0.00158 -0.00095 0.0
C436 C 0.52434 0.97804 0.00643 0.0
C437 C 0.52129 0.96909 0.02196 0.0
C438 C 0.53009 0.02586 0.95955 0.0
C439 C 0.49678 0.02174 0.95093 0.0
C440 C 0.52999 0.01796 0.97521 0.0
C441 C 0.49658 0.00591 0.98244 0.0
C442 C 0.46351 0.00151 0.97372 0.0
C443 C 0.46356 0.00948 0.95819 0.0
H444 H 0.1806 0.23188 0.21689 0.0
H445 H 0.2278 0.33869 0.20207 0.0
H446 H 0.20845 0.24095 0.24203 0.0
H447 H 0.25612 0.34763 0.22747 0.0
H448 H 0.26519 0.3376 0.28491 0.0
H449 H 0.23656 0.34694 0.25959 0.0
H450 H 0.28573 0.24142 0.24447 0.0
H451 H 0.31394 0.23196 0.26952 0.0
C452 C 0.19599 0.25785 0.21918 0.0
C453 C 0.20248 0.28435 0.20756 0.0
C454 C 0.21204 0.26293 0.2335 0.0
C455 C 0.235 0.29453 0.23644 0.0
C456 C 0.23858 0.323 0.22535 0.0
C457 C 0.22227 0.31795 0.21091 0.0
C458 C 0.27094 0.31719 0.27597 0.0
C459 C 0.2913 0.28378 0.27914 0.0
C460 C 0.25446 0.32248 0.26158 0.0
C461 C 0.25841 0.29443 0.25034 0.0
C462 C 0.28185 0.26306 0.25311 0.0
C463 C 0.2981 0.25775 0.26738 0.0
H464 H 0.75992 0.14411 0.20001 0.0
H465 H 0.81747 0.24616 0.21424 0.0
H466 H 0.73544 0.13574 0.22607 0.0
H467 H 0.79348 0.23761 0.24005 0.0
H468 H 0.68994 0.2533 0.26903 0.0
H469 H 0.71597 0.24269 0.2437 0.0
H470 H 0.75975 0.13414 0.25807 0.0
H471 H 0.73338 0.14469 0.28372 0.0
C472 C 0.76861 0.16375 0.20884 0.0
C473 C 0.79015 0.19604 0.20518 0.0
C474 C 0.75451 0.15903 0.22367 0.0
C475 C 0.76211 0.18648 0.23484 0.0
C476 C 0.78691 0.21641 0.2315 0.0
C477 C 0.80072 0.22121 0.21679 0.0
C478 C 0.70424 0.22671 0.26671 0.0
C479 C 0.71011 0.20005 0.27834 0.0
C480 C 0.71923 0.22074 0.25227 0.0
C481 C 0.74044 0.18802 0.24917 0.0
C482 C 0.74358 0.15963 0.26032 0.0
C483 C 0.7284 0.16563 0.2749 0.0
H484 H 0.67379 0.72722 0.71328 0.0
H485 H 0.72886 0.83197 0.70073 0.0
H486 H 0.69802 0.73337 0.73915 0.0
H487 H 0.75395 0.83781 0.72678 0.0
H488 H 0.76662 0.83298 0.7819 0.0
H489 H 0.73793 0.84096 0.75653 0.0
H490 H 0.76826 0.72565 0.74534 0.0
H491 H 0.79635 0.71759 0.77041 0.0
C492 C 0.69025 0.75211 0.71621 0.0
C493 C 0.69986 0.77888 0.70506 0.0
C494 C 0.70433 0.7555 0.73095 0.0
C495 C 0.72867 0.78549 0.73476 0.0
C496 C 0.73538 0.81434 0.72404 0.0
C497 C 0.72093 0.81108 0.70921 0.0
C498 C 0.76782 0.80972 0.77385 0.0
C499 C 0.78317 0.77446 0.77814 0.0
C500 C 0.75131 0.81426 0.75941 0.0
C501 C 0.75001 0.78356 0.74923 0.0
C502 C 0.76794 0.74941 0.75317 0.0
C503 C 0.78426 0.74489 0.76747 0.0
H504 H 0.56112 0.47282 0.95961 0.0
H505 H 0.44095 0.45027 0.95748 0.0
H506 H 0.55621 0.485 0.98665 0.0
H507 H 0.43617 0.46161 0.98504 0.0
H508 H 0.44339 0.53387 0.0304 0.0
H509 H 0.44188 0.51496 0.00348 0.0
H510 H 0.54529 0.45138 0.00995 0.0
H511 H 0.54756 0.47128 0.03638 0.0
C512 C 0.53364 0.46999 0.96497 0.0
C513 C 0.50141 0.46058 0.95641 0.0
C514 C 0.53087 0.47675 0.98053 0.0
C515 C 0.49584 0.47398 0.98802 0.0
C516 C 0.46349 0.46416 0.97953 0.0
C517 C 0.46627 0.45742 0.96382 0.0
C518 C 0.46562 0.51575 0.02601 0.0
C519 C 0.49595 0.50465 0.03536 0.0
C520 C 0.46462 0.50469 0.01067 0.0
C521 C 0.49377 0.48212 0.00457 0.0
C522 C 0.52293 0.46954 0.01421 0.0
C523 C 0.52419 0.48093 0.02938 0.0
H524 H 0.93694 0.48589 0.52628 0.0
H525 H 0.05512 0.45454 0.52895 0.0
H526 H 0.94317 0.49645 0.49916 0.0
H527 H 0.06118 0.46466 0.50129 0.0
H528 H 0.05469 0.5345 0.4543 0.0
H529 H 0.05695 0.51879 0.48162 0.0
H530 H 0.9529 0.45552 0.47694 0.0
H531 H 0.95003 0.47188 0.45015 0.0
C532 C 0.96429 0.48099 0.52104 0.0
C533 C -0.00449 0.46915 0.52974 0.0
C534 C 0.96779 0.4869 0.50546 0.0
C535 C 0.00254 0.48091 0.49809 0.0
C536 C 0.03409 0.46949 0.50673 0.0
C537 C 0.03056 0.4635 0.52248 0.0
C538 C 0.03255 0.51705 0.45917 0.0
C539 C 0.0018 0.50508 0.45022 0.0
C540 C 0.03397 0.50787 0.47472 0.0
C541 C 0.00476 0.48648 0.4814 0.0
C542 C 0.97533 0.4728 0.47217 0.0
C543 C 0.97371 0.48221 0.45681 0.0
H544 H 0.20026 0.89185 0.67002 0.0
H545 H 0.24238 0.8397 0.62881 0.0
H546 H 0.17543 0.94466 0.65508 0.0
H547 H 0.21577 0.8905 0.61385 0.0
H548 H 0.16274 0.97514 0.58649 0.0
H549 H 0.20891 0.95074 0.60469 0.0
H550 H 0.12281 0.95166 0.63985 0.0
H551 H 0.07818 0.97901 0.62191 0.0
C552 C 0.20453 0.89191 0.65778 0.0
C553 C 0.2226 0.86135 0.65054 0.0
C554 C 0.19014 0.92206 0.6492 0.0
C555 C 0.19274 0.92173 0.63317 0.0
C556 C 0.21341 0.89238 0.62613 0.0
C557 C 0.22847 0.8628 0.63473 0.0
C558 C 0.15436 0.97132 0.59828 0.0
C559 C 0.11699 0.97828 0.60284 0.0
C560 C 0.1806 0.95699 0.60869 0.0
C561 C 0.16941 0.94782 0.62366 0.0
C562 C 0.13282 0.95833 0.6285 0.0
C563 C 0.10697 0.97386 0.61819 0.0
H564 H 0.3047 0.89199 0.81024 0.0
H565 H 0.25424 0.84508 0.85095 0.0
H566 H 0.32732 0.94617 0.82491 0.0
H567 H 0.27877 0.89703 0.86575 0.0
H568 H 0.4207 0.97992 0.85974 0.0
H569 H 0.37745 0.95341 0.84114 0.0
H570 H 0.28717 0.95694 0.87455 0.0
H571 H 0.33197 0.9803 0.8935 0.0
C572 C 0.29806 0.89354 0.82229 0.0
C573 C 0.27846 0.86395 0.82953 0.0
C574 C 0.31122 0.92445 0.83074 0.0
C575 C 0.30595 0.92576 0.84666 0.0
C576 C 0.28336 0.89764 0.85355 0.0
C577 C 0.26946 0.86736 0.84505 0.0
C578 C 0.39134 0.97589 0.86293 0.0
C579 C 0.37969 0.98118 0.87805 0.0
C580 C 0.36626 0.96087 0.85223 0.0
C581 C 0.32879 0.95178 0.8564 0.0
C582 C 0.31613 0.96198 0.87107 0.0
C583 C 0.3416 0.97573 0.88191 0.0
H584 H 0.3319 0.06592 0.08362 0.0
H585 H 0.37704 0.9831 0.11513 0.0
H586 H 0.28766 0.08716 0.1028 0.0
H587 H 0.33158 0.00383 0.1344 0.0
H588 H 0.31071 0.10958 0.16639 0.0
H589 H 0.33336 0.06164 0.14885 0.0
H590 H 0.23585 0.08036 0.11999 0.0
H591 H 0.2138 0.1296 0.13735 0.0
C592 C 0.33167 0.05151 0.09454 0.0
C593 C 0.35869 0.02361 0.09801 0.0
C594 C 0.30586 0.06339 0.10553 0.0
C595 C 0.30642 0.04758 0.12025 0.0
C596 C 0.33094 0.01702 0.12324 0.0
C597 C 0.35689 0.00509 0.11219 0.0
C598 C 0.29356 0.10287 0.15651 0.0
C599 C 0.26114 0.12423 0.15299 0.0
C600 C 0.30638 0.07499 0.14649 0.0
C601 C 0.28683 0.06774 0.13282 0.0
C602 C 0.25202 0.08601 0.13024 0.0
C603 C 0.2394 0.1142 0.14019 0.0
H604 H 0.17251 0.01674 0.39991 0.0
H605 H 0.0906 0.00697 0.36365 0.0
H606 H 0.2198 0.03876 0.38171 0.0
H607 H 0.13615 0.03213 0.34566 0.0
H608 H 0.25378 0.14668 0.35564 0.0
H609 H 0.22747 0.09721 0.3713 0.0
H610 H 0.18905 0.03827 0.33082 0.0
H611 H 0.21339 0.08993 0.31514 0.0
C612 C 0.16494 0.01883 0.38796 0.0
C613 C 0.12799 0.01088 0.38314 0.0
C614 C 0.19182 0.03179 0.37754 0.0
C615 C 0.18162 0.0387 0.36224 0.0
C616 C 0.14546 0.02721 0.35725 0.0
C617 C 0.11905 0.01297 0.36759 0.0
C618 C 0.24037 0.12282 0.35004 0.0
C619 C 0.23476 0.12264 0.33421 0.0
C620 C 0.22549 0.09396 0.35906 0.0
C621 C 0.2053 0.06372 0.35243 0.0
C622 C 0.20326 0.06165 0.3364 0.0
C623 C 0.2174 0.09112 0.32738 0.0
H624 H 0.94077 0.02678 0.36687 0.0
H625 H 0.9458 0.11396 0.40148 0.0
H626 H 0.89853 0.06657 0.35169 0.0
H627 H 0.9033 0.15353 0.38627 0.0
H628 H 0.7899 0.18668 0.36247 0.0
H629 H 0.83385 0.1486 0.37754 0.0
H630 H 0.9031 0.1308 0.33761 0.0
H631 H 0.8593 0.16917 0.32246 0.0
C632 C 0.93279 0.05435 0.37126 0.0
C633 C 0.94656 0.06721 0.38539 0.0
C634 C 0.90885 0.07718 0.36251 0.0
C635 C 0.89779 0.11305 0.36782 0.0
C636 C 0.9113 0.12586 0.38198 0.0
C637 C 0.93569 0.10327 0.39063 0.0
C638 C 0.81452 0.17471 0.35689 0.0
C639 C 0.82111 0.18085 0.34126 0.0
C640 C 0.83974 0.15312 0.36555 0.0
C641 C 0.87175 0.13681 0.35871 0.0
C642 C 0.87843 0.14291 0.34311 0.0
C643 C 0.85349 0.16499 0.33448 0.0
H644 H 0.55013 0.02549 0.11586 0.0
H645 H 0.55174 0.11358 0.08153 0.0
H646 H 0.59451 0.06208 0.13134 0.0
H647 H 0.59612 0.14995 0.09704 0.0
H648 H 0.7078 0.18013 0.12145 0.0
H649 H 0.664 0.14265 0.10615 0.0
H650 H 0.59342 0.12518 0.14573 0.0
H651 H 0.63719 0.16281 0.16113 0.0
C652 C 0.56005 0.05254 0.11158 0.0
C653 C 0.54743 0.06663 0.09746 0.0
C654 C 0.58523 0.07355 0.1205 0.0
C655 C 0.59865 0.1088 0.11537 0.0
C656 C 0.5864 0.1227 0.10119 0.0
C657 C 0.56088 0.10194 0.09236 0.0
C658 C 0.68299 0.16828 0.12692 0.0
C659 C 0.67595 0.17448 0.14251 0.0
C660 C 0.65785 0.14699 0.11813 0.0
C661 C 0.62538 0.13109 0.12477 0.0
C662 C 0.61844 0.13692 0.14037 0.0
C663 C 0.64337 0.15862 0.14915 0.0
H664 H 0.7292 0.83485 0.85579 0.0
H665 H 0.6331 0.78049 0.83446 0.0
H666 H 0.68637 0.87406 0.87089 0.0
H667 H 0.59035 0.81973 0.84968 0.0
H668 H 0.53013 0.86942 0.89228 0.0
H669 H 0.57355 0.82846 0.87812 0.0
H670 H 0.63863 0.92646 0.86461 0.0
H671 H 0.59532 0.96747 0.87864 0.0
C672 C 0.69896 0.83118 0.85435 0.0
C673 C 0.68452 0.80464 0.8439 0.0
C674 C 0.67451 0.85373 0.86295 0.0
C675 C 0.63515 0.84985 0.86142 0.0
C676 C 0.62063 0.82302 0.85114 0.0
C677 C 0.64509 0.80079 0.84237 0.0
C678 C 0.55382 0.88219 0.88636 0.0
C679 C 0.55929 0.92167 0.88656 0.0
C680 C 0.57847 0.85878 0.87819 0.0
C681 C 0.60933 0.87438 0.87029 0.0
C682 C 0.61519 0.91373 0.87071 0.0
C683 C 0.59029 0.93717 0.87868 0.0
H684 H 0.76594 0.83495 0.6282 0.0
H685 H 0.86182 0.78668 0.65196 0.0
H686 H 0.80877 0.87424 0.61307 0.0
H687 H 0.90457 0.82577 0.63665 0.0
H688 H 0.96498 0.8702 0.59278 0.0
H689 H 0.92191 0.83044 0.60764 0.0
H690 H 0.85573 0.92917 0.61932 0.0
H691 H 0.89892 0.96911 0.60464 0.0
C692 C 0.79614 0.83265 0.63016 0.0
C693 C 0.81054 0.80777 0.64128 0.0
C694 C 0.82056 0.85524 0.62155 0.0
C695 C 0.85985 0.8529 0.62372 0.0
C696 C 0.87435 0.82784 0.63472 0.0
C697 C 0.84989 0.80569 0.64352 0.0
C698 C 0.94116 0.8834 0.59846 0.0
C699 C 0.93532 0.92277 0.59755 0.0
C700 C 0.91672 0.86069 0.60703 0.0
C701 C 0.88565 0.87685 0.6146 0.0
C702 C 0.87942 0.91607 0.6135 0.0
C703 C 0.9042 0.93888 0.60516 0.0
H704 H 0.70345 0.38743 0.17249 0.0
H705 H 0.7465 0.33973 0.13058 0.0
H706 H 0.6797 0.44222 0.15845 0.0
H707 H 0.72097 0.39256 0.11645 0.0
H708 H 0.5832 0.47943 0.12531 0.0
H709 H 0.62765 0.4514 0.14313 0.0
H710 H 0.71469 0.45382 0.10836 0.0
H711 H 0.66868 0.47887 0.09023 0.0
C712 C 0.70814 0.38888 0.16029 0.0
C713 C 0.72614 0.35901 0.15257 0.0
C714 C 0.6944 0.42019 0.15222 0.0
C715 C 0.69758 0.42174 0.13622 0.0
C716 C 0.71819 0.39302 0.12874 0.0
C717 C 0.7326 0.36226 0.13684 0.0
C718 C 0.61219 0.47504 0.12168 0.0
C719 C 0.62251 0.48045 0.10641 0.0
C720 C 0.63793 0.45906 0.13192 0.0
C721 C 0.67467 0.44904 0.12709 0.0
C722 C 0.68624 0.45961 0.11232 0.0
C723 C 0.66012 0.47439 0.10196 0.0
H724 H 0.78471 0.39461 0.31401 0.0
H725 H 0.74531 0.33854 0.35483 0.0
H726 H 0.80781 0.44739 0.32937 0.0
H727 H 0.77047 0.38917 0.3702 0.0
H728 H 0.82544 0.46995 0.3984 0.0
H729 H 0.7778 0.4479 0.38035 0.0
H730 H 0.86073 0.45464 0.34405 0.0
H731 H 0.9066 0.47983 0.36189 0.0
C732 C 0.78065 0.39382 0.32626 0.0
C733 C 0.76401 0.36216 0.33328 0.0
C734 C 0.79406 0.42394 0.33509 0.0
C735 C 0.79208 0.42238 0.35113 0.0
C736 C 0.77243 0.39202 0.35794 0.0
C737 C 0.75822 0.3625 0.3491 0.0
C738 C 0.83275 0.46794 0.38642 0.0
C739 C 0.86963 0.47582 0.38149 0.0
C740 C 0.80567 0.45496 0.37608 0.0
C741 C 0.81562 0.44793 0.36078 0.0
C742 C 0.85161 0.45959 0.35566 0.0
C743 C 0.87822 0.47386 0.36592 0.0
H744 H 0.87593 0.48005 0.61229 0.0
H745 H 0.83452 0.5636 0.58025 0.0
H746 H 0.82902 0.5011 0.63089 0.0
H747 H 0.78894 0.58526 0.59882 0.0
H748 H 0.7137 0.62931 0.63264 0.0
H749 H 0.73595 0.57987 0.61541 0.0
H750 H 0.83072 0.55839 0.64543 0.0
H751 H 0.80784 0.60646 0.66281 0.0
C752 C 0.85634 0.50232 0.60909 0.0
C753 C 0.85964 0.52094 0.59498 0.0
C754 C 0.82953 0.51442 0.61976 0.0
C755 C 0.80572 0.54535 0.61648 0.0
C756 C 0.80659 0.56124 0.60177 0.0
C757 C 0.83319 0.54911 0.59114 0.0
C758 C 0.73871 0.61327 0.63574 0.0
C759 C 0.75969 0.62257 0.64884 0.0
C760 C 0.75146 0.58496 0.62587 0.0
C761 C 0.78561 0.56582 0.62884 0.0
C762 C 0.80425 0.5724 0.64276 0.0
C763 C 0.79132 0.60039 0.65269 0.0
H764 H 0.72643 0.58575 0.82245 0.0
H765 H 0.75361 0.65623 0.86118 0.0
H766 H 0.70235 0.53687 0.83955 0.0
H767 H 0.72723 0.60926 0.87818 0.0
H768 H 0.59934 0.50594 0.86973 0.0
H769 H 0.64641 0.53164 0.85254 0.0
H770 H 0.72077 0.55313 0.89088 0.0
H771 H 0.67185 0.53003 0.90813 0.0
C772 C 0.72769 0.59049 0.83466 0.0
C773 C 0.74119 0.62494 0.84052 0.0
C774 C 0.71363 0.56266 0.84447 0.0
C775 C 0.71169 0.56933 0.86028 0.0
C776 C 0.72833 0.6026 0.86614 0.0
C777 C 0.74331 0.62989 0.85636 0.0
C778 C 0.6261 0.51544 0.87441 0.0
C779 C 0.63176 0.5169 0.89021 0.0
C780 C 0.65342 0.52997 0.86453 0.0
C781 C 0.68736 0.54541 0.87028 0.0
C782 C 0.69451 0.54283 0.88605 0.0
C783 C 0.66666 0.52936 0.89595 0.0
H784 H 0.44398 0.52808 0.87191 0.0
H785 H 0.44431 0.6121 0.90783 0.0
H786 H 0.40403 0.56913 0.85642 0.0
H787 H 0.40394 0.65316 0.89222 0.0
H788 H 0.29554 0.68966 0.86443 0.0
H789 H 0.33607 0.65117 0.88093 0.0
H790 H 0.41335 0.6335 0.84347 0.0
H791 H 0.37316 0.67199 0.82696 0.0
C792 C 0.43537 0.55521 0.87655 0.0
C793 C 0.44737 0.56686 0.89111 0.0
C794 C 0.41271 0.57879 0.86762 0.0
C795 C 0.40117 0.61433 0.87311 0.0
C796 C 0.41243 0.62579 0.88777 0.0
C797 C 0.43559 0.60237 0.89665 0.0
C798 C 0.32126 0.6777 0.85973 0.0
C799 C 0.33106 0.68372 0.84437 0.0
C800 C 0.3445 0.65588 0.8692 0.0
C801 C 0.37764 0.63929 0.86342 0.0
C802 C 0.38771 0.64571 0.84814 0.0
C803 C 0.36478 0.66789 0.83873 0.0
H804 H 0.07937 0.51896 0.60521 0.0
H805 H 0.02148 0.62102 0.59092 0.0
H806 H 0.12246 0.55706 0.62077 0.0
H807 H 0.06426 0.65888 0.60671 0.0
H808 H 0.12171 0.70111 0.65203 0.0
H809 H 0.07824 0.66299 0.63658 0.0
H810 H 0.17333 0.61002 0.6142 0.0
H811 H 0.21683 0.64844 0.62937 0.0
C812 C 0.0758 0.54947 0.60542 0.0
C813 C 0.04714 0.56705 0.59683 0.0
C814 C 0.10049 0.5712 0.61427 0.0
C815 C 0.09648 0.61076 0.61491 0.0
C816 C 0.06768 0.62835 0.60644 0.0
C817 C 0.04343 0.60672 0.59736 0.0
C818 C 0.1333 0.68129 0.64382 0.0
C819 C 0.17263 0.67776 0.64188 0.0
C820 C 0.10847 0.65969 0.63497 0.0
C821 C 0.12259 0.63369 0.62426 0.0
C822 C 0.16185 0.62978 0.62245 0.0
C823 C 0.18665 0.65187 0.63108 0.0
H824 H 0.05817 0.45809 0.36494 0.0
H825 H 0.05137 0.37065 0.39943 0.0
H826 H 0.10122 0.41838 0.3501 0.0
H827 H 0.09461 0.3312 0.38458 0.0
H828 H 0.20937 0.29829 0.36214 0.0
H829 H 0.16455 0.33659 0.37665 0.0
H830 H 0.09786 0.35404 0.33597 0.0
H831 H 0.14256 0.31544 0.32138 0.0
C832 C 0.0659 0.43047 0.36936 0.0
C833 C 0.05145 0.41753 0.38337 0.0
C834 C 0.09031 0.4077 0.36082 0.0
C835 C 0.10114 0.37182 0.36623 0.0
C836 C 0.08683 0.35889 0.38023 0.0
C837 C 0.062 0.38141 0.38868 0.0
C838 C 0.18515 0.31025 0.35628 0.0
C839 C 0.1795 0.30389 0.34061 0.0
C840 C 0.15943 0.33196 0.36461 0.0
C841 C 0.12785 0.34819 0.35741 0.0
C842 C 0.12217 0.34198 0.34175 0.0
C843 C 0.14762 0.31977 0.33344 0.0
H844 H 0.40477 0.46884 0.1087 0.0
H845 H 0.4716 0.36921 0.09863 0.0
H846 H 0.36087 0.4299 0.12349 0.0
H847 H 0.42783 0.3305 0.11358 0.0
H848 H 0.36409 0.28818 0.15704 0.0
H849 H 0.4081 0.32705 0.14224 0.0
H850 H 0.31438 0.37477 0.11711 0.0
H851 H 0.2703 0.33572 0.13174 0.0
C852 C 0.41013 0.43869 0.10967 0.0
C853 C 0.44159 0.42206 0.10249 0.0
C854 C 0.38493 0.41644 0.11807 0.0
C855 C 0.39109 0.37731 0.11965 0.0
C856 C 0.42266 0.36069 0.11259 0.0
C857 C 0.44752 0.38281 0.10398 0.0
C858 C 0.35288 0.30698 0.14837 0.0
C859 C 0.31375 0.30889 0.14554 0.0
C860 C 0.37806 0.32903 0.13987 0.0
C861 C 0.36452 0.35382 0.12858 0.0
C862 C 0.32544 0.35602 0.12584 0.0
C863 C 0.3003 0.33354 0.13415 0.0
loop_
_geom_bond_atom_site_label_1
_geom_bond_atom_site_label_2
_geom_bond_distance
_geom_bond_site_symmetry_2
_ccdc_geom_bond_type
C0 O1 1.306 . S
C0 O3 1.160 1_565 S
O1 C0 1.306 . S
O1 Cd2 2.228 . S
Cd2 O1 2.228 . S
Cd2 O6 2.273 1_565 S
Cd2 O10 2.277 1_455 S
O3 C0 1.160 1_545 S
O3 Cd4 2.203 1_455 S
Cd4 O3 2.203 1_655 S
Cd4 O6 2.411 1_655 S
Cd4 O7 2.333 . S
Cd4 O8 2.352 1_655 S
Cd4 O12 2.277 . S
Cd4 O13 2.356 . S
C5 O10 1.209 . S
C5 O12 1.226 1_565 S
O6 Cd2 2.273 1_545 S
O6 Cd4 2.411 1_455 S
O6 C9 1.320 1_455 S
O7 Cd4 2.333 . S
O7 C9 1.214 . S
O8 Cd4 2.352 1_455 S
O8 C11 1.258 . S
C9 O6 1.320 1_655 S
C9 O7 1.214 . S
O10 Cd2 2.277 1_655 S
O10 C5 1.209 . S
C11 O8 1.258 . S
C11 O13 1.282 1_455 S
O12 Cd4 2.277 . S
O12 C5 1.226 1_545 S
O13 Cd4 2.356 . S
O13 C11 1.282 1_655 S
C14 O15 1.306 . S
C14 O17 1.160 . S
O15 C14 1.306 . S
O15 Cd16 2.228 . S
Cd16 O15 2.228 . S
Cd16 O20 2.273 . S
Cd16 O24 2.277 . S
O17 C14 1.160 . S
O17 Cd18 2.203 . S
Cd18 O17 2.203 . S
Cd18 O20 2.411 . S
Cd18 O21 2.333 . S
Cd18 O22 2.352 . S
Cd18 O26 2.277 . S
Cd18 O27 2.356 . S
C19 O24 1.209 . S
C19 O26 1.226 . S
O20 Cd16 2.273 . S
O20 Cd18 2.411 . S
O20 C23 1.320 . S
O21 Cd18 2.333 . S
O21 C23 1.214 . S
O22 Cd18 2.352 . S
O22 C25 1.258 . S
C23 O20 1.320 . S
C23 O21 1.214 . S
O24 Cd16 2.277 . S
O24 C19 1.209 . S
C25 O22 1.258 . S
C25 O27 1.282 . S
O26 Cd18 2.277 . S
O26 C19 1.226 . S
O27 Cd18 2.356 . S
O27 C25 1.282 . S
C28 O29 1.306 . S
C28 O31 1.160 1_545 S
O29 C28 1.306 . S
O29 Cd30 2.228 . S
Cd30 O29 2.228 . S
Cd30 O34 2.273 1_545 S
Cd30 O38 2.277 . S
O31 C28 1.160 1_565 S
O31 Cd32 2.203 . S
Cd32 O31 2.203 . S
Cd32 O34 2.411 . S
Cd32 O35 2.333 . S
Cd32 O36 2.352 . S
Cd32 O40 2.277 . S
Cd32 O41 2.356 . S
C33 O38 1.209 . S
C33 O40 1.226 1_545 S
O34 Cd30 2.273 1_565 S
O34 Cd32 2.411 . S
O34 C37 1.320 . S
O35 Cd32 2.333 . S
O35 C37 1.214 . S
O36 Cd32 2.352 . S
O36 C39 1.258 . S
C37 O34 1.320 . S
C37 O35 1.214 . S
O38 Cd30 2.277 . S
O38 C33 1.209 . S
C39 O36 1.258 . S
C39 O41 1.282 . S
O40 Cd32 2.277 . S
O40 C33 1.226 1_565 S
O41 Cd32 2.356 . S
O41 C39 1.282 . S
C42 O43 1.306 . S
C42 O45 1.160 . S
O43 C42 1.306 . S
O43 Cd44 2.228 . S
Cd44 O43 2.228 . S
Cd44 O48 2.273 . S
Cd44 O52 2.277 . S
O45 C42 1.160 . S
O45 Cd46 2.203 . S
Cd46 O45 2.203 . S
Cd46 O48 2.411 . S
Cd46 O49 2.333 . S
Cd46 O50 2.352 . S
Cd46 O54 2.277 . S
Cd46 O55 2.356 . S
C47 O52 1.209 . S
C47 O54 1.226 . S
O48 Cd44 2.273 . S
O48 Cd46 2.411 . S
O48 C51 1.320 . S
O49 Cd46 2.333 . S
O49 C51 1.214 . S
O50 Cd46 2.352 . S
O50 C53 1.258 . S
C51 O48 1.320 . S
C51 O49 1.214 . S
O52 Cd44 2.277 . S
O52 C47 1.209 . S
C53 O50 1.258 . S
C53 O55 1.282 . S
O54 Cd46 2.277 . S
O54 C47 1.226 . S
O55 Cd46 2.356 . S
O55 C53 1.282 . S
C56 O57 1.306 . S
C56 O59 1.160 1_545 S
O57 C56 1.306 . S
O57 Cd58 2.228 . S
Cd58 O57 2.228 . S
Cd58 O62 2.273 1_545 S
Cd58 O66 2.277 1_455 S
O59 C56 1.160 1_565 S
O59 Cd60 2.203 1_455 S
Cd60 O59 2.203 1_655 S
Cd60 O62 2.411 1_655 S
Cd60 O63 2.333 . S
Cd60 O64 2.352 1_655 S
Cd60 O68 2.277 . S
Cd60 O69 2.356 . S
C61 O66 1.209 . S
C61 O68 1.226 1_545 S
O62 Cd58 2.273 1_565 S
O62 Cd60 2.411 1_455 S
O62 C65 1.320 1_455 S
O63 Cd60 2.333 . S
O63 C65 1.214 . S
O64 Cd60 2.352 1_455 S
O64 C67 1.258 . S
C65 O62 1.320 1_655 S
C65 O63 1.214 . S
O66 Cd58 2.277 1_655 S
O66 C61 1.209 . S
C67 O64 1.258 . S
C67 O69 1.282 1_455 S
O68 Cd60 2.277 . S
O68 C61 1.226 1_565 S
O69 Cd60 2.356 . S
O69 C67 1.282 1_655 S
C70 O71 1.306 . S
C70 O73 1.160 . S
O71 C70 1.306 . S
O71 Cd72 2.228 . S
Cd72 O71 2.228 . S
Cd72 O76 2.273 . S
Cd72 O80 2.277 . S
O73 C70 1.160 . S
O73 Cd74 2.203 . S
Cd74 O73 2.203 . S
Cd74 O76 2.411 . S
Cd74 O77 2.333 . S
Cd74 O78 2.352 . S
Cd74 O82 2.277 . S
Cd74 O83 2.356 . S
C75 O80 1.209 . S
C75 O82 1.226 . S
O76 Cd72 2.273 . S
O76 Cd74 2.411 . S
O76 C79 1.320 . S
O77 Cd74 2.333 . S
O77 C79 1.214 . S
O78 Cd74 2.352 . S
O78 C81 1.258 . S
C79 O76 1.320 . S
C79 O77 1.214 . S
O80 Cd72 2.277 . S
O80 C75 1.209 . S
C81 O78 1.258 . S
C81 O83 1.282 . S
O82 Cd74 2.277 . S
O82 C75 1.226 . S
O83 Cd74 2.356 . S
O83 C81 1.282 . S
C84 O85 1.306 . S
C84 O87 1.160 1_565 S
O85 C84 1.306 . S
O85 Cd86 2.228 . S
Cd86 O85 2.228 . S
Cd86 O90 2.273 1_565 S
Cd86 O94 2.277 . S
O87 C84 1.160 1_545 S
O87 Cd88 2.203 . S
Cd88 O87 2.203 . S
Cd88 O90 2.411 . S
Cd88 O91 2.333 . S
Cd88 O92 2.352 . S
Cd88 O96 2.277 . S
Cd88 O97 2.356 . S
C89 O94 1.209 . S
C89 O96 1.226 1_565 S
O90 Cd86 2.273 1_545 S
O90 Cd88 2.411 . S
O90 C93 1.320 . S
O91 Cd88 2.333 . S
O91 C93 1.214 . S
O92 Cd88 2.352 . S
O92 C95 1.258 . S
C93 O90 1.320 . S
C93 O91 1.214 . S
O94 Cd86 2.277 . S
O94 C89 1.209 . S
C95 O92 1.258 . S
C95 O97 1.282 . S
O96 Cd88 2.277 . S
O96 C89 1.226 1_545 S
O97 Cd88 2.356 . S
O97 C95 1.282 . S
C98 O99 1.306 . S
C98 O101 1.160 . S
O99 C98 1.306 . S
O99 Cd100 2.228 . S
Cd100 O99 2.228 . S
Cd100 O104 2.273 . S
Cd100 O108 2.277 . S
O101 C98 1.160 . S
O101 Cd102 2.203 . S
Cd102 O101 2.203 . S
Cd102 O104 2.411 . S
Cd102 O105 2.333 . S
Cd102 O106 2.352 . S
Cd102 O110 2.277 . S
Cd102 O111 2.356 . S
C103 O108 1.209 . S
C103 O110 1.226 . S
O104 Cd100 2.273 . S
O104 Cd102 2.411 . S
O104 C107 1.320 . S
O105 Cd102 2.333 . S
O105 C107 1.214 . S
O106 Cd102 2.352 . S
O106 C109 1.258 . S
C107 O104 1.320 . S
C107 O105 1.214 . S
O108 Cd100 2.277 . S
O108 C103 1.209 . S
C109 O106 1.258 . S
C109 O111 1.282 . S
O110 Cd102 2.277 . S
O110 C103 1.226 . S
O111 Cd102 2.356 . S
O111 C109 1.282 . S
C112 O113 1.306 . S
C112 O115 1.160 . S
O113 C112 1.306 . S
O113 Cd114 2.228 . S
Cd114 O113 2.228 . S
Cd114 O118 2.273 . S
Cd114 O122 2.277 . S
O115 C112 1.160 . S
O115 Cd116 2.203 . S
Cd116 O115 2.203 . S
Cd116 O118 2.411 . S
Cd116 O119 2.333 . S
Cd116 O120 2.352 . S
Cd116 O124 2.277 . S
Cd116 O125 2.356 . S
C117 O122 1.209 . S
C117 O124 1.226 . S
O118 Cd114 2.273 . S
O118 Cd116 2.411 . S
O118 C121 1.320 . S
O119 Cd116 2.333 . S
O119 C121 1.214 . S
O120 Cd116 2.352 . S
O120 C123 1.258 . S
C121 O118 1.320 . S
C121 O119 1.214 . S
O122 Cd114 2.277 . S
O122 C117 1.209 . S
C123 O120 1.258 . S
C123 O125 1.282 . S
O124 Cd116 2.277 . S
O124 C117 1.226 . S
O125 Cd116 2.356 . S
O125 C123 1.282 . S
C126 O127 1.306 . S
C126 O129 1.160 . S
O127 C126 1.306 . S
O127 Cd128 2.228 . S
Cd128 O127 2.228 . S
Cd128 O132 2.273 . S
Cd128 O136 2.277 . S
O129 C126 1.160 . S
O129 Cd130 2.203 . S
Cd130 O129 2.203 . S
Cd130 O132 2.411 . S
Cd130 O133 2.333 . S
Cd130 O134 2.352 . S
Cd130 O138 2.277 . S
Cd130 O139 2.356 . S
C131 O136 1.209 . S
C131 O138 1.226 . S
O132 Cd128 2.273 . S
O132 Cd130 2.411 . S
O132 C135 1.320 . S
O133 Cd130 2.333 . S
O133 C135 1.214 . S
O134 Cd130 2.352 . S
O134 C137 1.258 . S
C135 O132 1.320 . S
C135 O133 1.214 . S
O136 Cd128 2.277 . S
O136 C131 1.209 . S
C137 O134 1.258 . S
C137 O139 1.282 . S
O138 Cd130 2.277 . S
O138 C131 1.226 . S
O139 Cd130 2.356 . S
O139 C137 1.282 . S
C140 O141 1.306 . S
C140 O143 1.160 . S
O141 C140 1.306 . S
O141 Cd142 2.228 . S
Cd142 O141 2.228 . S
Cd142 O146 2.273 . S
Cd142 O150 2.277 . S
O143 C140 1.160 . S
O143 Cd144 2.203 . S
Cd144 O143 2.203 . S
Cd144 O146 2.411 . S
Cd144 O147 2.333 . S
Cd144 O148 2.352 . S
Cd144 O152 2.277 . S
Cd144 O153 2.356 . S
C145 O150 1.209 . S
C145 O152 1.226 . S
O146 Cd142 2.273 . S
O146 Cd144 2.411 . S
O146 C149 1.320 . S
O147 Cd144 2.333 . S
O147 C149 1.214 . S
O148 Cd144 2.352 . S
O148 C151 1.258 . S
C149 O146 1.320 . S
C149 O147 1.214 . S
O150 Cd142 2.277 . S
O150 C145 1.209 . S
C151 O148 1.258 . S
C151 O153 1.282 . S
O152 Cd144 2.277 . S
O152 C145 1.226 . S
O153 Cd144 2.356 . S
O153 C151 1.282 . S
C154 O155 1.306 . S
C154 O157 1.160 . S
O155 C154 1.306 . S
O155 Cd156 2.228 . S
Cd156 O155 2.228 . S
Cd156 O160 2.273 . S
Cd156 O164 2.277 . S
O157 C154 1.160 . S
O157 Cd158 2.203 . S
Cd158 O157 2.203 . S
Cd158 O160 2.411 . S
Cd158 O161 2.333 . S
Cd158 O162 2.352 . S
Cd158 O166 2.277 . S
Cd158 O167 2.356 . S
C159 O164 1.209 . S
C159 O166 1.226 . S
O160 Cd156 2.273 . S
O160 Cd158 2.411 . S
O160 C163 1.320 . S
O161 Cd158 2.333 . S
O161 C163 1.214 . S
O162 Cd158 2.352 . S
O162 C165 1.258 . S
C163 O160 1.320 . S
C163 O161 1.214 . S
O164 Cd156 2.277 . S
O164 C159 1.209 . S
C165 O162 1.258 . S
C165 O167 1.282 . S
O166 Cd158 2.277 . S
O166 C159 1.226 . S
O167 Cd158 2.356 . S
O167 C165 1.282 . S
C168 O169 1.306 . S
C168 O171 1.160 . S
O169 C168 1.306 . S
O169 Cd170 2.228 . S
Cd170 O169 2.228 . S
Cd170 O174 2.273 . S
Cd170 O178 2.277 . S
O171 C168 1.160 . S
O171 Cd172 2.203 . S
Cd172 O171 2.203 . S
Cd172 O174 2.411 . S
Cd172 O175 2.333 . S
Cd172 O176 2.352 . S
Cd172 O180 2.277 . S
Cd172 O181 2.356 . S
C173 O178 1.209 . S
C173 O180 1.226 . S
O174 Cd170 2.273 . S
O174 Cd172 2.411 . S
O174 C177 1.320 . S
O175 Cd172 2.333 . S
O175 C177 1.214 . S
O176 Cd172 2.352 . S
O176 C179 1.258 . S
C177 O174 1.320 . S
C177 O175 1.214 . S
O178 Cd170 2.277 . S
O178 C173 1.209 . S
C179 O176 1.258 . S
C179 O181 1.282 . S
O180 Cd172 2.277 . S
O180 C173 1.226 . S
O181 Cd172 2.356 . S
O181 C179 1.282 . S
C182 O183 1.306 . S
C182 O185 1.160 . S
O183 C182 1.306 . S
O183 Cd184 2.228 . S
Cd184 O183 2.228 . S
Cd184 O188 2.273 . S
Cd184 O192 2.277 1_655 S
O185 C182 1.160 . S
O185 Cd186 2.203 1_655 S
Cd186 O185 2.203 1_455 S
Cd186 O188 2.411 1_455 S
Cd186 O189 2.333 . S
Cd186 O190 2.352 1_455 S
Cd186 O194 2.277 . S
Cd186 O195 2.356 . S
C187 O192 1.209 . S
C187 O194 1.226 . S
O188 Cd184 2.273 . S
O188 Cd186 2.411 1_655 S
O188 C191 1.320 1_655 S
O189 Cd186 2.333 . S
O189 C191 1.214 . S
O190 Cd186 2.352 1_655 S
O190 C193 1.258 . S
C191 O188 1.320 1_455 S
C191 O189 1.214 . S
O192 Cd184 2.277 1_455 S
O192 C187 1.209 . S
C193 O190 1.258 . S
C193 O195 1.282 1_655 S
O194 Cd186 2.277 . S
O194 C187 1.226 . S
O195 Cd186 2.356 . S
O195 C193 1.282 1_455 S
C196 O197 1.306 . S
C196 O199 1.160 . S
O197 C196 1.306 . S
O197 Cd198 2.228 . S
Cd198 O197 2.228 . S
Cd198 O202 2.273 . S
Cd198 O206 2.277 . S
O199 C196 1.160 . S
O199 Cd200 2.203 . S
Cd200 O199 2.203 . S
Cd200 O202 2.411 . S
Cd200 O203 2.333 . S
Cd200 O204 2.352 . S
Cd200 O208 2.277 . S
Cd200 O209 2.356 . S
C201 O206 1.209 . S
C201 O208 1.226 . S
O202 Cd198 2.273 . S
O202 Cd200 2.411 . S
O202 C205 1.320 . S
O203 Cd200 2.333 . S
O203 C205 1.214 . S
O204 Cd200 2.352 . S
O204 C207 1.258 . S
C205 O202 1.320 . S
C205 O203 1.214 . S
O206 Cd198 2.277 . S
O206 C201 1.209 . S
C207 O204 1.258 . S
C207 O209 1.282 . S
O208 Cd200 2.277 . S
O208 C201 1.226 . S
O209 Cd200 2.356 . S
O209 C207 1.282 . S
C210 O211 1.306 . S
C210 O213 1.160 . S
O211 C210 1.306 . S
O211 Cd212 2.228 . S
Cd212 O211 2.228 . S
Cd212 O216 2.273 . S
Cd212 O220 2.277 1_655 S
O213 C210 1.160 . S
O213 Cd214 2.203 1_655 S
Cd214 O213 2.203 1_455 S
Cd214 O216 2.411 1_455 S
Cd214 O217 2.333 . S
Cd214 O218 2.352 1_455 S
Cd214 O222 2.277 . S
Cd214 O223 2.356 . S
C215 O220 1.209 . S
C215 O222 1.226 . S
O216 Cd212 2.273 . S
O216 Cd214 2.411 1_655 S
O216 C219 1.320 1_655 S
O217 Cd214 2.333 . S
O217 C219 1.214 . S
O218 Cd214 2.352 1_655 S
O218 C221 1.258 . S
C219 O216 1.320 1_455 S
C219 O217 1.214 . S
O220 Cd212 2.277 1_455 S
O220 C215 1.209 . S
C221 O218 1.258 . S
C221 O223 1.282 1_655 S
O222 Cd214 2.277 . S
O222 C215 1.226 . S
O223 Cd214 2.356 . S
O223 C221 1.282 1_455 S
H224 C232 0.943 1_655 S
H225 C237 0.950 . S
H226 C234 0.950 . S
H227 C236 0.950 . S
H228 C238 0.950 . S
H229 C240 0.950 . S
H230 C242 0.950 . S
H231 C243 0.950 . S
C232 H224 0.943 1_455 S
C232 C233 1.395 . S
C232 C234 1.389 1_455 S
C233 C232 1.395 . S
C233 C237 1.393 . S
C234 H226 0.950 . S
C234 C232 1.389 1_655 S
C234 C235 1.400 1_655 S
C235 C234 1.400 1_455 S
C235 C236 1.398 . S
C235 C241 1.491 . S
C236 H227 0.950 . S
C236 C235 1.398 . S
C236 C237 1.391 . S
C237 H225 0.950 . S
C237 C233 1.393 . S
C237 C236 1.391 . S
C238 H228 0.950 . S
C238 C239 1.386 1_455 S
C238 C240 1.391 . S
C239 C238 1.386 1_655 S
C239 C243 1.393 . S
C240 H229 0.950 . S
C240 C238 1.391 . S
C240 C241 1.400 . S
C241 C235 1.491 . S
C241 C240 1.400 . S
C241 C242 1.398 1_455 S
C242 H230 0.950 . S
C242 C241 1.398 1_655 S
C242 C243 1.391 . S
C243 H231 0.950 . S
C243 C239 1.393 . S
C243 C242 1.391 . S
H244 C252 0.950 . S
H245 C257 0.950 . S
H246 C254 0.950 . S
H247 C256 0.950 . S
H248 C258 0.950 . S
H249 C260 0.950 . S
H250 C262 0.950 . S
H251 C263 0.950 . S
C252 H244 0.950 . S
C252 C253 1.386 . S
C252 C254 1.391 . S
C253 C252 1.386 . S
C253 C257 1.393 . S
C254 H246 0.950 . S
C254 C252 1.391 . S
C254 C255 1.400 . S
C255 C254 1.400 . S
C255 C256 1.398 . S
C255 C261 1.491 1_655 S
C256 H247 0.950 . S
C256 C255 1.398 . S
C256 C257 1.391 . S
C257 H245 0.950 . S
C257 C253 1.393 . S
C257 C256 1.391 . S
C258 H248 0.950 . S
C258 C259 1.386 . S
C258 C260 1.391 . S
C259 C258 1.386 . S
C259 C263 1.393 . S
C260 H249 0.950 . S
C260 C258 1.391 . S
C260 C261 1.400 . S
C261 C255 1.491 1_455 S
C261 C260 1.400 . S
C261 C262 1.398 . S
C262 H250 0.950 . S
C262 C261 1.398 . S
C262 C263 1.391 . S
C263 H251 0.950 . S
C263 C259 1.393 . S
C263 C262 1.391 . S
H264 C272 0.950 . S
H265 C277 0.950 . S
H266 C274 0.950 . S
H267 C276 0.950 . S
H268 C278 0.950 . S
H269 C280 0.950 . S
H270 C282 0.950 . S
H271 C283 0.950 . S
C272 H264 0.950 . S
C272 C273 1.386 . S
C272 C274 1.391 . S
C273 C272 1.386 . S
C273 C277 1.393 . S
C274 H266 0.950 . S
C274 C272 1.391 . S
C274 C275 1.400 . S
C275 C274 1.400 . S
C275 C276 1.398 . S
C275 C281 1.491 . S
C276 H267 0.950 . S
C276 C275 1.398 . S
C276 C277 1.391 . S
C277 H265 0.950 . S
C277 C273 1.393 . S
C277 C276 1.391 . S
C278 H268 0.950 . S
C278 C279 1.386 . S
C278 C280 1.391 . S
C279 C278 1.386 . S
C279 C283 1.393 . S
C280 H269 0.950 . S
C280 C278 1.391 . S
C280 C281 1.400 . S
C281 C275 1.491 . S
C281 C280 1.400 . S
C281 C282 1.398 . S
C282 H270 0.950 . S
C282 C281 1.398 . S
C282 C283 1.391 . S
C283 H271 0.950 . S
C283 C279 1.393 . S
C283 C282 1.391 . S
H284 C292 0.950 . S
H285 C297 0.950 . S
H286 C294 0.950 . S
H287 C296 0.950 . S
H288 C298 0.950 . S
H289 C300 0.950 . S
H290 C302 0.950 . S
H291 C303 0.950 . S
C292 H284 0.950 . S
C292 C293 1.386 . S
C292 C294 1.391 . S
C293 C292 1.386 . S
C293 C297 1.393 . S
C294 H286 0.950 . S
C294 C292 1.391 . S
C294 C295 1.400 . S
C295 C294 1.400 . S
C295 C296 1.398 . S
C295 C301 1.491 . S
C296 H287 0.950 . S
C296 C295 1.398 . S
C296 C297 1.391 . S
C297 H285 0.950 . S
C297 C293 1.393 . S
C297 C296 1.391 . S
C298 H288 0.950 . S
C298 C299 1.386 . S
C298 C300 1.391 . S
C299 C298 1.386 . S
C299 C303 1.393 . S
C300 H289 0.950 . S
C300 C298 1.391 . S
C300 C301 1.400 . S
C301 C295 1.491 . S
C301 C300 1.400 . S
C301 C302 1.398 . S
C302 H290 0.950 . S
C302 C301 1.398 . S
C302 C303 1.391 . S
C303 H291 0.950 . S
C303 C299 1.393 . S
C303 C302 1.391 . S
H304 C312 0.950 . S
H305 C317 0.950 . S
H306 C314 0.950 . S
H307 C316 0.950 . S
H308 C318 0.950 . S
H309 C320 0.950 . S
H310 C322 0.950 . S
H311 C323 0.950 . S
C312 H304 0.950 . S
C312 C313 1.386 . S
C312 C314 1.391 . S
C313 C312 1.386 . S
C313 C317 1.393 1_455 S
C314 H306 0.950 . S
C314 C312 1.391 . S
C314 C315 1.400 . S
C315 C314 1.400 . S
C315 C316 1.398 1_455 S
C315 C321 1.491 . S
C316 H307 0.950 . S
C316 C315 1.398 1_655 S
C316 C317 1.391 . S
C317 H305 0.950 . S
C317 C313 1.393 1_655 S
C317 C316 1.391 . S
C318 H308 0.950 . S
C318 C319 1.386 . S
C318 C320 1.391 . S
C319 C318 1.386 . S
C319 C323 1.393 1_655 S
C320 H309 0.950 . S
C320 C318 1.391 . S
C320 C321 1.400 1_655 S
C321 C315 1.491 . S
C321 C320 1.400 1_455 S
C321 C322 1.398 . S
C322 H310 0.950 . S
C322 C321 1.398 . S
C322 C323 1.391 . S
C323 H311 0.950 . S
C323 C319 1.393 1_455 S
C323 C322 1.391 . S
H324 C332 0.950 . S
H325 C337 0.950 . S
H326 C334 0.950 . S
H327 C336 0.950 . S
H328 C338 0.950 . S
H329 C340 0.950 . S
H330 C342 0.950 . S
H331 C343 0.950 . S
C332 H324 0.950 . S
C332 C333 1.386 . S
C332 C334 1.391 . S
C333 C332 1.386 . S
C333 C337 1.393 . S
C334 H326 0.950 . S
C334 C332 1.391 . S
C334 C335 1.400 . S
C335 C334 1.400 . S
C335 C336 1.398 . S
C335 C341 1.491 . S
C336 H327 0.950 . S
C336 C335 1.398 . S
C336 C337 1.391 . S
C337 H325 0.950 . S
C337 C333 1.393 . S
C337 C336 1.391 . S
C338 H328 0.950 . S
C338 C339 1.386 . S
C338 C340 1.391 . S
C339 C338 1.386 . S
C339 C343 1.393 . S
C340 H329 0.950 . S
C340 C338 1.391 . S
C340 C341 1.400 . S
C341 C335 1.491 . S
C341 C340 1.400 . S
C341 C342 1.398 . S
C342 H330 0.950 . S
C342 C341 1.398 . S
C342 C343 1.391 . S
C343 H331 0.950 . S
C343 C339 1.393 . S
C343 C342 1.391 . S
H344 C352 0.950 . S
H345 C357 0.950 . S
H346 C354 0.950 . S
H347 C356 0.950 . S
H348 C358 0.950 . S
H349 C360 0.950 . S
H350 C362 0.950 . S
H351 C363 0.950 . S
C352 H344 0.950 . S
C352 C353 1.386 . S
C352 C354 1.391 . S
C353 C352 1.386 . S
C353 C357 1.393 . S
C354 H346 0.950 . S
C354 C352 1.391 . S
C354 C355 1.400 . S
C355 C354 1.400 . S
C355 C356 1.398 . S
C355 C361 1.491 . S
C356 H347 0.950 . S
C356 C355 1.398 . S
C356 C357 1.391 . S
C357 H345 0.950 . S
C357 C353 1.393 . S
C357 C356 1.391 . S
C358 H348 0.950 . S
C358 C359 1.386 . S
C358 C360 1.391 . S
C359 C358 1.386 . S
C359 C363 1.393 . S
C360 H349 0.950 . S
C360 C358 1.391 . S
C360 C361 1.400 . S
C361 C355 1.491 . S
C361 C360 1.400 . S
C361 C362 1.398 . S
C362 H350 0.950 . S
C362 C361 1.398 . S
C362 C363 1.391 . S
C363 H351 0.950 . S
C363 C359 1.393 . S
C363 C362 1.391 . S
H364 C372 0.950 . S
H365 C377 0.950 . S
H366 C374 0.950 . S
H367 C376 0.950 . S
H368 C378 0.950 . S
H369 C380 0.950 . S
H370 C382 0.950 . S
H371 C383 0.950 . S
C372 H364 0.950 . S
C372 C373 1.386 . S
C372 C374 1.391 . S
C373 C372 1.386 . S
C373 C377 1.393 . S
C374 H366 0.950 . S
C374 C372 1.391 . S
C374 C375 1.400 . S
C375 C374 1.400 . S
C375 C376 1.398 . S
C375 C381 1.491 1_455 S
C376 H367 0.950 . S
C376 C375 1.398 . S
C376 C377 1.391 . S
C377 H365 0.950 . S
C377 C373 1.393 . S
C377 C376 1.391 . S
C378 H368 0.950 . S
C378 C379 1.386 . S
C378 C380 1.391 . S
C379 C378 1.386 . S
C379 C383 1.393 . S
C380 H369 0.950 . S
C380 C378 1.391 . S
C380 C381 1.400 . S
C381 C375 1.491 1_655 S
C381 C380 1.400 . S
C381 C382 1.398 . S
C382 H370 0.950 . S
C382 C381 1.398 . S
C382 C383 1.391 . S
C383 H371 0.950 . S
C383 C379 1.393 . S
C383 C382 1.391 . S
H384 C392 0.950 . S
H385 C397 0.950 . S
H386 C394 0.950 . S
H387 C396 0.950 . S
H388 C398 0.950 . S
H389 C400 0.950 . S
H390 C402 0.950 . S
H391 C403 0.950 . S
C392 H384 0.950 . S
C392 C393 1.386 . S
C392 C394 1.391 . S
C393 C392 1.386 . S
C393 C397 1.393 1_655 S
C394 H386 0.950 . S
C394 C392 1.391 . S
C394 C395 1.400 . S
C395 C394 1.400 . S
C395 C396 1.398 1_655 S
C395 C401 1.491 1_565 S
C396 H387 0.950 . S
C396 C395 1.398 1_455 S
C396 C397 1.391 . S
C397 H385 0.950 . S
C397 C393 1.393 1_455 S
C397 C396 1.391 . S
C398 H388 0.950 . S
C398 C399 1.386 1_455 S
C398 C400 1.391 . S
C399 C398 1.386 1_655 S
C399 C403 1.393 . S
C400 H389 0.950 . S
C400 C398 1.391 . S
C400 C401 1.400 1_455 S
C401 C395 1.491 1_545 S
C401 C400 1.400 1_655 S
C401 C402 1.398 . S
C402 H390 0.950 . S
C402 C401 1.398 . S
C402 C403 1.391 . S
C403 H391 0.950 . S
C403 C399 1.393 . S
C403 C402 1.391 . S
H404 C412 0.950 . S
H405 C417 0.950 . S
H406 C414 0.950 . S
H407 C416 0.950 . S
H408 C418 0.950 . S
H409 C420 0.950 . S
H410 C422 0.950 . S
H411 C423 0.950 . S
C412 H404 0.950 . S
C412 C413 1.386 . S
C412 C414 1.391 . S
C413 C412 1.386 . S
C413 C417 1.393 . S
C414 H406 0.950 . S
C414 C412 1.391 . S
C414 C415 1.400 . S
C415 C414 1.400 . S
C415 C416 1.398 . S
C415 C421 1.491 . S
C416 H407 0.950 . S
C416 C415 1.398 . S
C416 C417 1.391 . S
C417 H405 0.950 . S
C417 C413 1.393 . S
C417 C416 1.391 . S
C418 H408 0.950 . S
C418 C419 1.386 . S
C418 C420 1.391 . S
C419 C418 1.386 . S
C419 C423 1.393 . S
C420 H409 0.950 . S
C420 C418 1.391 . S
C420 C421 1.400 . S
C421 C415 1.491 . S
C421 C420 1.400 . S
C421 C422 1.398 . S
C422 H410 0.950 . S
C422 C421 1.398 . S
C422 C423 1.391 . S
C423 H411 0.950 . S
C423 C419 1.393 . S
C423 C422 1.391 . S
H424 C432 0.950 . S
H425 C437 0.950 . S
H426 C434 0.950 . S
H427 C436 0.950 . S
H428 C438 0.950 . S
H429 C440 0.950 . S
H430 C442 0.950 . S
H431 C443 0.950 . S
C432 H424 0.950 . S
C432 C433 1.386 1_545 S
C432 C434 1.391 . S
C433 C432 1.386 1_565 S
C433 C437 1.393 . S
C434 H426 0.950 . S
C434 C432 1.391 . S
C434 C435 1.400 1_545 S
C435 C434 1.400 1_565 S
C435 C436 1.398 . S
C435 C441 1.491 1_564 S
C436 H427 0.950 . S
C436 C435 1.398 . S
C436 C437 1.391 . S
C437 H425 0.950 . S
C437 C433 1.393 . S
C437 C436 1.391 . S
C438 H428 0.950 . S
C438 C439 1.386 1_565 S
C438 C440 1.391 . S
C439 C438 1.386 1_545 S
C439 C443 1.393 . S
C440 H429 0.950 . S
C440 C438 1.391 . S
C440 C441 1.400 1_565 S
C441 C435 1.491 1_546 S
C441 C440 1.400 1_545 S
C441 C442 1.398 . S
C442 H430 0.950 . S
C442 C441 1.398 . S
C442 C443 1.391 . S
C443 H431 0.950 . S
C443 C439 1.393 . S
C443 C442 1.391 . S
H444 C452 0.950 . S
H445 C457 0.950 . S
H446 C454 0.950 . S
H447 C456 0.950 . S
H448 C458 0.950 . S
H449 C460 0.950 . S
H450 C462 0.950 . S
H451 C463 0.950 . S
C452 H444 0.950 . S
C452 C453 1.386 . S
C452 C454 1.391 . S
C453 C452 1.386 . S
C453 C457 1.393 . S
C454 H446 0.950 . S
C454 C452 1.391 . S
C454 C455 1.400 . S
C455 C454 1.400 . S
C455 C456 1.398 . S
C455 C461 1.491 . S
C456 H447 0.950 . S
C456 C455 1.398 . S
C456 C457 1.391 . S
C457 H445 0.950 . S
C457 C453 1.393 . S
C457 C456 1.391 . S
C458 H448 0.950 . S
C458 C459 1.386 . S
C458 C460 1.391 . S
C459 C458 1.386 . S
C459 C463 1.393 . S
C460 H449 0.950 . S
C460 C458 1.391 . S
C460 C461 1.400 . S
C461 C455 1.491 . S
C461 C460 1.400 . S
C461 C462 1.398 . S
C462 H450 0.950 . S
C462 C461 1.398 . S
C462 C463 1.391 . S
C463 H451 0.950 . S
C463 C459 1.393 . S
C463 C462 1.391 . S
H464 C472 0.950 . S
H465 C477 0.950 . S
H466 C474 0.950 . S
H467 C476 0.950 . S
H468 C478 0.950 . S
H469 C480 0.950 . S
H470 C482 0.950 . S
H471 C483 0.950 . S
C472 H464 0.950 . S
C472 C473 1.386 . S
C472 C474 1.391 . S
C473 C472 1.386 . S
C473 C477 1.393 . S
C474 H466 0.950 . S
C474 C472 1.391 . S
C474 C475 1.400 . S
C475 C474 1.400 . S
C475 C476 1.398 . S
C475 C481 1.491 . S
C476 H467 0.950 . S
C476 C475 1.398 . S
C476 C477 1.391 . S
C477 H465 0.950 . S
C477 C473 1.393 . S
C477 C476 1.391 . S
C478 H468 0.950 . S
C478 C479 1.386 . S
C478 C480 1.391 . S
C479 C478 1.386 . S
C479 C483 1.393 . S
C480 H469 0.950 . S
C480 C478 1.391 . S
C480 C481 1.400 . S
C481 C475 1.491 . S
C481 C480 1.400 . S
C481 C482 1.398 . S
C482 H470 0.950 . S
C482 C481 1.398 . S
C482 C483 1.391 . S
C483 H471 0.950 . S
C483 C479 1.393 . S
C483 C482 1.391 . S
H484 C492 0.950 . S
H485 C497 0.950 . S
H486 C494 0.950 . S
H487 C496 0.950 . S
H488 C498 0.950 . S
H489 C500 0.950 . S
H490 C502 0.950 . S
H491 C503 0.950 . S
C492 H484 0.950 . S
C492 C493 1.386 . S
C492 C494 1.391 . S
C493 C492 1.386 . S
C493 C497 1.393 . S
C494 H486 0.950 . S
C494 C492 1.391 . S
C494 C495 1.400 . S
C495 C494 1.400 . S
C495 C496 1.398 . S
C495 C501 1.491 . S
C496 H487 0.950 . S
C496 C495 1.398 . S
C496 C497 1.391 . S
C497 H485 0.950 . S
C497 C493 1.393 . S
C497 C496 1.391 . S
C498 H488 0.950 . S
C498 C499 1.386 . S
C498 C500 1.391 . S
C499 C498 1.386 . S
C499 C503 1.393 . S
C500 H489 0.950 . S
C500 C498 1.391 . S
C500 C501 1.400 . S
C501 C495 1.491 . S
C501 C500 1.400 . S
C501 C502 1.398 . S
C502 H490 0.950 . S
C502 C501 1.398 . S
C502 C503 1.391 . S
C503 H491 0.950 . S
C503 C499 1.393 . S
C503 C502 1.391 . S
H504 C512 0.950 . S
H505 C517 0.950 . S
H506 C514 0.950 . S
H507 C516 0.950 . S
H508 C518 0.950 . S
H509 C520 0.950 . S
H510 C522 0.950 . S
H511 C523 0.950 . S
C512 H504 0.950 . S
C512 C513 1.386 . S
C512 C514 1.391 . S
C513 C512 1.386 . S
C513 C517 1.393 . S
C514 H506 0.950 . S
C514 C512 1.391 . S
C514 C515 1.400 . S
C515 C514 1.400 . S
C515 C516 1.398 . S
C515 C521 1.491 1_556 S
C516 H507 0.950 . S
C516 C515 1.398 . S
C516 C517 1.391 . S
C517 H505 0.950 . S
C517 C513 1.393 . S
C517 C516 1.391 . S
C518 H508 0.950 . S
C518 C519 1.386 . S
C518 C520 1.391 . S
C519 C518 1.386 . S
C519 C523 1.393 . S
C520 H509 0.950 . S
C520 C518 1.391 . S
C520 C521 1.400 . S
C521 C515 1.491 1_554 S
C521 C520 1.400 . S
C521 C522 1.398 . S
C522 H510 0.950 . S
C522 C521 1.398 . S
C522 C523 1.391 . S
C523 H511 0.950 . S
C523 C519 1.393 . S
C523 C522 1.391 . S
H524 C532 0.950 . S
H525 C537 0.950 . S
H526 C534 0.950 . S
H527 C536 0.950 . S
H528 C538 0.950 . S
H529 C540 0.950 . S
H530 C542 0.950 . S
H531 C543 0.950 . S
C532 H524 0.950 . S
C532 C533 1.386 1_655 S
C532 C534 1.391 . S
C533 C532 1.386 1_455 S
C533 C537 1.393 . S
C534 H526 0.950 . S
C534 C532 1.391 . S
C534 C535 1.400 1_655 S
C535 C534 1.400 1_455 S
C535 C536 1.398 . S
C535 C541 1.491 . S
C536 H527 0.950 . S
C536 C535 1.398 . S
C536 C537 1.391 . S
C537 H525 0.950 . S
C537 C533 1.393 . S
C537 C536 1.391 . S
C538 H528 0.950 . S
C538 C539 1.386 . S
C538 C540 1.391 . S
C539 C538 1.386 . S
C539 C543 1.393 1_455 S
C540 H529 0.950 . S
C540 C538 1.391 . S
C540 C541 1.400 . S
C541 C535 1.491 . S
C541 C540 1.400 . S
C541 C542 1.398 1_455 S
C542 H530 0.950 . S
C542 C541 1.398 1_655 S
C542 C543 1.391 . S
C543 H531 0.950 . S
C543 C539 1.393 1_655 S
C543 C542 1.391 . S
H544 C552 0.950 . S
H545 C557 0.950 . S
H546 C554 0.950 . S
H547 C556 0.950 . S
H548 C558 0.950 . S
H549 C560 0.950 . S
H550 C562 0.950 . S
H551 C563 0.950 . S
C552 H544 0.950 . S
C552 C553 1.386 . S
C552 C554 1.391 . S
C553 C552 1.386 . S
C553 C557 1.393 . S
C554 H546 0.950 . S
C554 C552 1.391 . S
C554 C555 1.400 . S
C555 C554 1.400 . S
C555 C556 1.398 . S
C555 C561 1.491 . S
C556 H547 0.950 . S
C556 C555 1.398 . S
C556 C557 1.391 . S
C557 H545 0.950 . S
C557 C553 1.393 . S
C557 C556 1.391 . S
C558 H548 0.950 . S
C558 C559 1.386 . S
C558 C560 1.391 . S
C559 C558 1.386 . S
C559 C563 1.393 . S
C560 H549 0.950 . S
C560 C558 1.391 . S
C560 C561 1.400 . S
C561 C555 1.491 . S
C561 C560 1.400 . S
C561 C562 1.398 . S
C562 H550 0.950 . S
C562 C561 1.398 . S
C562 C563 1.391 . S
C563 H551 0.950 . S
C563 C559 1.393 . S
C563 C562 1.391 . S
H564 C572 0.950 . S
H565 C577 0.950 . S
H566 C574 0.950 . S
H567 C576 0.950 . S
H568 C578 0.950 . S
H569 C580 0.950 . S
H570 C582 0.950 . S
H571 C583 0.950 1_545 S
C572 H564 0.950 . S
C572 C573 1.386 . S
C572 C574 1.391 . S
C573 C572 1.386 . S
C573 C577 1.393 . S
C574 H566 0.950 . S
C574 C572 1.391 . S
C574 C575 1.400 . S
C575 C574 1.400 . S
C575 C576 1.398 . S
C575 C581 1.491 . S
C576 H567 0.950 . S
C576 C575 1.398 . S
C576 C577 1.391 . S
C577 H565 0.950 . S
C577 C573 1.393 . S
C577 C576 1.391 . S
C578 H568 0.950 . S
C578 C579 1.386 . S
C578 C580 1.391 . S
C579 C578 1.386 . S
C579 C583 1.393 . S
C580 H569 0.950 . S
C580 C578 1.391 . S
C580 C581 1.400 . S
C581 C575 1.491 . S
C581 C580 1.400 . S
C581 C582 1.398 . S
C582 H570 0.950 . S
C582 C581 1.398 . S
C582 C583 1.391 . S
C583 H571 0.950 1_565 S
C583 C579 1.393 . S
C583 C582 1.391 . S
H584 C592 0.950 . S
H585 C597 0.950 1_565 S
H586 C594 0.950 . S
H587 C596 0.950 . S
H588 C598 0.950 . S
H589 C600 0.950 . S
H590 C602 0.950 . S
H591 C603 0.950 . S
C592 H584 0.950 . S
C592 C593 1.386 . S
C592 C594 1.391 . S
C593 C592 1.386 . S
C593 C597 1.393 . S
C594 H586 0.950 . S
C594 C592 1.391 . S
C594 C595 1.400 . S
C595 C594 1.400 . S
C595 C596 1.398 . S
C595 C601 1.491 . S
C596 H587 0.950 . S
C596 C595 1.398 . S
C596 C597 1.391 . S
C597 H585 0.950 1_545 S
C597 C593 1.393 . S
C597 C596 1.391 . S
C598 H588 0.950 . S
C598 C599 1.386 . S
C598 C600 1.391 . S
C599 C598 1.386 . S
C599 C603 1.393 . S
C600 H589 0.950 . S
C600 C598 1.391 . S
C600 C601 1.400 . S
C601 C595 1.491 . S
C601 C600 1.400 . S
C601 C602 1.398 . S
C602 H590 0.950 . S
C602 C601 1.398 . S
C602 C603 1.391 . S
C603 H591 0.950 . S
C603 C599 1.393 . S
C603 C602 1.391 . S
H604 C612 0.950 1_565 S
H605 C617 0.950 . S
H606 C614 0.950 . S
H607 C616 0.950 . S
H608 C618 0.950 . S
H609 C620 0.950 . S
H610 C622 0.950 . S
H611 C623 0.950 . S
C612 H604 0.950 1_545 S
C612 C613 1.386 . S
C612 C614 1.391 . S
C613 C612 1.386 . S
C613 C617 1.393 . S
C614 H606 0.950 . S
C614 C612 1.391 . S
C614 C615 1.400 . S
C615 C614 1.400 . S
C615 C616 1.398 . S
C615 C621 1.491 . S
C616 H607 0.950 . S
C616 C615 1.398 . S
C616 C617 1.391 . S
C617 H605 0.950 . S
C617 C613 1.393 . S
C617 C616 1.391 . S
C618 H608 0.950 . S
C618 C619 1.386 . S
C618 C620 1.391 . S
C619 C618 1.386 . S
C619 C623 1.393 . S
C620 H609 0.950 . S
C620 C618 1.391 . S
C620 C621 1.400 . S
C621 C615 1.491 . S
C621 C620 1.400 . S
C621 C622 1.398 . S
C622 H610 0.950 . S
C622 C621 1.398 . S
C622 C623 1.391 . S
C623 H611 0.950 . S
C623 C619 1.393 . S
C623 C622 1.391 . S
H624 C632 0.950 . S
H625 C637 0.950 . S
H626 C634 0.950 . S
H627 C636 0.950 . S
H628 C638 0.950 . S
H629 C640 0.950 . S
H630 C642 0.950 . S
H631 C643 0.950 . S
C632 H624 0.950 . S
C632 C633 1.386 . S
C632 C634 1.391 . S
C633 C632 1.386 . S
C633 C637 1.393 . S
C634 H626 0.950 . S
C634 C632 1.391 . S
C634 C635 1.400 . S
C635 C634 1.400 . S
C635 C636 1.398 . S
C635 C641 1.491 . S
C636 H627 0.950 . S
C636 C635 1.398 . S
C636 C637 1.391 . S
C637 H625 0.950 . S
C637 C633 1.393 . S
C637 C636 1.391 . S
C638 H628 0.950 . S
C638 C639 1.386 . S
C638 C640 1.391 . S
C639 C638 1.386 . S
C639 C643 1.393 . S
C640 H629 0.950 . S
C640 C638 1.391 . S
C640 C641 1.400 . S
C641 C635 1.491 . S
C641 C640 1.400 . S
C641 C642 1.398 . S
C642 H630 0.950 . S
C642 C641 1.398 . S
C642 C643 1.391 . S
C643 H631 0.950 . S
C643 C639 1.393 . S
C643 C642 1.391 . S
H644 C652 0.950 . S
H645 C657 0.950 . S
H646 C654 0.950 . S
H647 C656 0.950 . S
H648 C658 0.950 . S
H649 C660 0.950 . S
H650 C662 0.950 . S
H651 C663 0.950 . S
C652 H644 0.950 . S
C652 C653 1.386 . S
C652 C654 1.391 . S
C653 C652 1.386 . S
C653 C657 1.393 . S
C654 H646 0.950 . S
C654 C652 1.391 . S
C654 C655 1.400 . S
C655 C654 1.400 . S
C655 C656 1.398 . S
C655 C661 1.491 . S
C656 H647 0.950 . S
C656 C655 1.398 . S
C656 C657 1.391 . S
C657 H645 0.950 . S
C657 C653 1.393 . S
C657 C656 1.391 . S
C658 H648 0.950 . S
C658 C659 1.386 . S
C658 C660 1.391 . S
C659 C658 1.386 . S
C659 C663 1.393 . S
C660 H649 0.950 . S
C660 C658 1.391 . S
C660 C661 1.400 . S
C661 C655 1.491 . S
C661 C660 1.400 . S
C661 C662 1.398 . S
C662 H650 0.950 . S
C662 C661 1.398 . S
C662 C663 1.391 . S
C663 H651 0.950 . S
C663 C659 1.393 . S
C663 C662 1.391 . S
H664 C672 0.950 . S
H665 C677 0.950 . S
H666 C674 0.950 . S
H667 C676 0.950 . S
H668 C678 0.950 . S
H669 C680 0.950 . S
H670 C682 0.950 . S
H671 C683 0.953 . S
C672 H664 0.950 . S
C672 C673 1.386 . S
C672 C674 1.391 . S
C673 C672 1.386 . S
C673 C677 1.393 . S
C674 H666 0.950 . S
C674 C672 1.391 . S
C674 C675 1.400 . S
C675 C674 1.400 . S
C675 C676 1.398 . S
C675 C681 1.491 . S
C676 H667 0.950 . S
C676 C675 1.398 . S
C676 C677 1.391 . S
C677 H665 0.950 . S
C677 C673 1.393 . S
C677 C676 1.391 . S
C678 H668 0.950 . S
C678 C679 1.386 . S
C678 C680 1.391 . S
C679 C678 1.386 . S
C679 C683 1.393 . S
C680 H669 0.950 . S
C680 C678 1.391 . S
C680 C681 1.400 . S
C681 C675 1.491 . S
C681 C680 1.400 . S
C681 C682 1.398 . S
C682 H670 0.950 . S
C682 C681 1.398 . S
C682 C683 1.391 . S
C683 H671 0.953 . S
C683 C679 1.393 . S
C683 C682 1.391 . S
H684 C692 0.950 . S
H685 C697 0.950 . S
H686 C694 0.950 . S
H687 C696 0.950 . S
H688 C698 0.950 . S
H689 C700 0.950 . S
H690 C702 0.950 . S
H691 C703 0.950 . S
C692 H684 0.950 . S
C692 C693 1.386 . S
C692 C694 1.391 . S
C693 C692 1.386 . S
C693 C697 1.393 . S
C694 H686 0.950 . S
C694 C692 1.391 . S
C694 C695 1.400 . S
C695 C694 1.400 . S
C695 C696 1.398 . S
C695 C701 1.491 . S
C696 H687 0.950 . S
C696 C695 1.398 . S
C696 C697 1.391 . S
C697 H685 0.950 . S
C697 C693 1.393 . S
C697 C696 1.391 . S
C698 H688 0.950 . S
C698 C699 1.386 . S
C698 C700 1.391 . S
C699 C698 1.386 . S
C699 C703 1.393 . S
C700 H689 0.950 . S
C700 C698 1.391 . S
C700 C701 1.400 . S
C701 C695 1.491 . S
C701 C700 1.400 . S
C701 C702 1.398 . S
C702 H690 0.950 . S
C702 C701 1.398 . S
C702 C703 1.391 . S
C703 H691 0.950 . S
C703 C699 1.393 . S
C703 C702 1.391 . S
H704 C712 0.950 . S
H705 C717 0.950 . S
H706 C714 0.950 . S
H707 C716 0.950 . S
H708 C718 0.950 . S
H709 C720 0.950 . S
H710 C722 0.950 . S
H711 C723 0.950 . S
C712 H704 0.950 . S
C712 C713 1.386 . S
C712 C714 1.391 . S
C713 C712 1.386 . S
C713 C717 1.393 . S
C714 H706 0.950 . S
C714 C712 1.391 . S
C714 C715 1.400 . S
C715 C714 1.400 . S
C715 C716 1.398 . S
C715 C721 1.491 . S
C716 H707 0.950 . S
C716 C715 1.398 . S
C716 C717 1.391 . S
C717 H705 0.950 . S
C717 C713 1.393 . S
C717 C716 1.391 . S
C718 H708 0.950 . S
C718 C719 1.386 . S
C718 C720 1.391 . S
C719 C718 1.386 . S
C719 C723 1.393 . S
C720 H709 0.950 . S
C720 C718 1.391 . S
C720 C721 1.400 . S
C721 C715 1.491 . S
C721 C720 1.400 . S
C721 C722 1.398 . S
C722 H710 0.950 . S
C722 C721 1.398 . S
C722 C723 1.391 . S
C723 H711 0.950 . S
C723 C719 1.393 . S
C723 C722 1.391 . S
H724 C732 0.950 . S
H725 C737 0.950 . S
H726 C734 0.950 . S
H727 C736 0.950 . S
H728 C738 0.950 . S
H729 C740 0.950 . S
H730 C742 0.950 . S
H731 C743 0.950 . S
C732 H724 0.950 . S
C732 C733 1.386 . S
C732 C734 1.391 . S
C733 C732 1.386 . S
C733 C737 1.393 . S
C734 H726 0.950 . S
C734 C732 1.391 . S
C734 C735 1.400 . S
C735 C734 1.400 . S
C735 C736 1.398 . S
C735 C741 1.491 . S
C736 H727 0.950 . S
C736 C735 1.398 . S
C736 C737 1.391 . S
C737 H725 0.950 . S
C737 C733 1.393 . S
C737 C736 1.391 . S
C738 H728 0.950 . S
C738 C739 1.386 . S
C738 C740 1.391 . S
C739 C738 1.386 . S
C739 C743 1.393 . S
C740 H729 0.950 . S
C740 C738 1.391 . S
C740 C741 1.400 . S
C741 C735 1.491 . S
C741 C740 1.400 . S
C741 C742 1.398 . S
C742 H730 0.950 . S
C742 C741 1.398 . S
C742 C743 1.391 . S
C743 H731 0.950 . S
C743 C739 1.393 . S
C743 C742 1.391 . S
H744 C752 0.950 . S
H745 C757 0.950 . S
H746 C754 0.950 . S
H747 C756 0.950 . S
H748 C758 0.950 . S
H749 C760 0.950 . S
H750 C762 0.950 . S
H751 C763 0.950 . S
C752 H744 0.950 . S
C752 C753 1.386 . S
C752 C754 1.391 . S
C753 C752 1.386 . S
C753 C757 1.393 . S
C754 H746 0.950 . S
C754 C752 1.391 . S
C754 C755 1.400 . S
C755 C754 1.400 . S
C755 C756 1.398 . S
C755 C761 1.491 . S
C756 H747 0.950 . S
C756 C755 1.398 . S
C756 C757 1.391 . S
C757 H745 0.950 . S
C757 C753 1.393 . S
C757 C756 1.391 . S
C758 H748 0.950 . S
C758 C759 1.386 . S
C758 C760 1.391 . S
C759 C758 1.386 . S
C759 C763 1.393 . S
C760 H749 0.950 . S
C760 C758 1.391 . S
C760 C761 1.400 . S
C761 C755 1.491 . S
C761 C760 1.400 . S
C761 C762 1.398 . S
C762 H750 0.950 . S
C762 C761 1.398 . S
C762 C763 1.391 . S
C763 H751 0.950 . S
C763 C759 1.393 . S
C763 C762 1.391 . S
H764 C772 0.950 . S
H765 C777 0.950 . S
H766 C774 0.950 . S
H767 C776 0.950 . S
H768 C778 0.950 . S
H769 C780 0.950 . S
H770 C782 0.950 . S
H771 C783 0.950 . S
C772 H764 0.950 . S
C772 C773 1.386 . S
C772 C774 1.391 . S
C773 C772 1.386 . S
C773 C777 1.393 . S
C774 H766 0.950 . S
C774 C772 1.391 . S
C774 C775 1.400 . S
C775 C774 1.400 . S
C775 C776 1.398 . S
C775 C781 1.491 . S
C776 H767 0.950 . S
C776 C775 1.398 . S
C776 C777 1.391 . S
C777 H765 0.950 . S
C777 C773 1.393 . S
C777 C776 1.391 . S
C778 H768 0.950 . S
C778 C779 1.386 . S
C778 C780 1.391 . S
C779 C778 1.386 . S
C779 C783 1.393 . S
C780 H769 0.950 . S
C780 C778 1.391 . S
C780 C781 1.400 . S
C781 C775 1.491 . S
C781 C780 1.400 . S
C781 C782 1.398 . S
C782 H770 0.950 . S
C782 C781 1.398 . S
C782 C783 1.391 . S
C783 H771 0.950 . S
C783 C779 1.393 . S
C783 C782 1.391 . S
H784 C792 0.950 . S
H785 C797 0.950 . S
H786 C794 0.950 . S
H787 C796 0.950 . S
H788 C798 0.950 . S
H789 C800 0.950 . S
H790 C802 0.950 . S
H791 C803 0.950 . S
C792 H784 0.950 . S
C792 C793 1.386 . S
C792 C794 1.391 . S
C793 C792 1.386 . S
C793 C797 1.393 . S
C794 H786 0.950 . S
C794 C792 1.391 . S
C794 C795 1.400 . S
C795 C794 1.400 . S
C795 C796 1.398 . S
C795 C801 1.491 . S
C796 H787 0.950 . S
C796 C795 1.398 . S
C796 C797 1.391 . S
C797 H785 0.950 . S
C797 C793 1.393 . S
C797 C796 1.391 . S
C798 H788 0.950 . S
C798 C799 1.386 . S
C798 C800 1.391 . S
C799 C798 1.386 . S
C799 C803 1.393 . S
C800 H789 0.950 . S
C800 C798 1.391 . S
C800 C801 1.400 . S
C801 C795 1.491 . S
C801 C800 1.400 . S
C801 C802 1.398 . S
C802 H790 0.950 . S
C802 C801 1.398 . S
C802 C803 1.391 . S
C803 H791 0.950 . S
C803 C799 1.393 . S
C803 C802 1.391 . S
H804 C812 0.950 . S
H805 C817 0.950 . S
H806 C814 0.950 . S
H807 C816 0.950 . S
H808 C818 0.950 . S
H809 C820 0.950 . S
H810 C822 0.950 . S
H811 C823 0.950 . S
C812 H804 0.950 . S
C812 C813 1.386 . S
C812 C814 1.391 . S
C813 C812 1.386 . S
C813 C817 1.393 . S
C814 H806 0.950 . S
C814 C812 1.391 . S
C814 C815 1.400 . S
C815 C814 1.400 . S
C815 C816 1.398 . S
C815 C821 1.491 . S
C816 H807 0.950 . S
C816 C815 1.398 . S
C816 C817 1.391 . S
C817 H805 0.950 . S
C817 C813 1.393 . S
C817 C816 1.391 . S
C818 H808 0.950 . S
C818 C819 1.386 . S
C818 C820 1.391 . S
C819 C818 1.386 . S
C819 C823 1.393 . S
C820 H809 0.950 . S
C820 C818 1.391 . S
C820 C821 1.400 . S
C821 C815 1.491 . S
C821 C820 1.400 . S
C821 C822 1.398 . S
C822 H810 0.950 . S
C822 C821 1.398 . S
C822 C823 1.391 . S
C823 H811 0.950 . S
C823 C819 1.393 . S
C823 C822 1.391 . S
H824 C832 0.950 . S
H825 C837 0.950 . S
H826 C834 0.950 . S
H827 C836 0.950 . S
H828 C838 0.950 . S
H829 C840 0.950 . S
H830 C842 0.950 . S
H831 C843 0.950 . S
C832 H824 0.950 . S
C832 C833 1.386 . S
C832 C834 1.391 . S
C833 C832 1.386 . S
C833 C837 1.393 . S
C834 H826 0.950 . S
C834 C832 1.391 . S
C834 C835 1.400 . S
C835 C834 1.400 . S
C835 C836 1.398 . S
C835 C841 1.491 . S
C836 H827 0.950 . S
C836 C835 1.398 . S
C836 C837 1.391 . S
C837 H825 0.950 . S
C837 C833 1.393 . S
C837 C836 1.391 . S
C838 H828 0.950 . S
C838 C839 1.386 . S
C838 C840 1.391 . S
C839 C838 1.386 . S
C839 C843 1.393 . S
C840 H829 0.950 . S
C840 C838 1.391 . S
C840 C841 1.400 . S
C841 C835 1.491 . S
C841 C840 1.400 . S
C841 C842 1.398 . S
C842 H830 0.950 . S
C842 C841 1.398 . S
C842 C843 1.391 . S
C843 H831 0.950 . S
C843 C839 1.393 . S
C843 C842 1.391 . S
H844 C852 0.950 . S
H845 C857 0.950 . S
H846 C854 0.950 . S
H847 C856 0.950 . S
H848 C858 0.950 . S
H849 C860 0.950 . S
H850 C862 0.950 . S
H851 C863 0.950 . S
C852 H844 0.950 . S
C852 C853 1.386 . S
C852 C854 1.391 . S
C853 C852 1.386 . S
C853 C857 1.393 . S
C854 H846 0.950 . S
C854 C852 1.391 . S
C854 C855 1.400 . S
C855 C854 1.400 . S
C855 C856 1.398 . S
C855 C861 1.491 . S
C856 H847 0.950 . S
C856 C855 1.398 . S
C856 C857 1.391 . S
C857 H845 0.950 . S
C857 C853 1.393 . S
C857 C856 1.391 . S
C858 H848 0.950 . S
C858 C859 1.386 . S
C858 C860 1.391 . S
C859 C858 1.386 . S
C859 C863 1.393 . S
C860 H849 0.950 . S
C860 C858 1.391 . S
C860 C861 1.400 . S
C861 C855 1.491 . S
C861 C860 1.400 . S
C861 C862 1.398 . S
C862 H850 0.950 . S
C862 C861 1.398 . S
C862 C863 1.391 . S
C863 H851 0.950 . S
C863 C859 1.393 . S
C863 C862 1.391 . S
C233 C11 1.232 . S
C239 C193 1.229 . S
C253 C165 1.251 . S
C259 C25 1.249 . S
C273 C179 1.251 . S
C279 C39 1.251 . S
C293 C151 1.230 . S
C299 C53 1.233 . S
C313 C67 1.244 . S
C319 C221 1.249 . S
C333 C81 1.230 . S
C339 C137 1.235 . S
C353 C207 1.251 . S
C359 C95 1.248 . S
C373 C109 1.229 . S
C379 C123 1.231 . S
C393 C65 1.641 . S
C399 C9 1.642 . S
C413 C23 1.645 . S
C419 C79 1.642 . S
C433 C37 1.645 . S
C439 C93 1.643 . S
C453 C107 1.642 . S
C459 C51 1.645 . S
C473 C121 1.643 . S
C479 C149 1.641 . S
C493 C135 1.645 . S
C499 C163 1.641 . S
C513 C205 1.644 . S
C519 C177 1.644 . S
C533 C191 1.643 . S
C539 C219 1.644 . S
C553 C70 1.419 . S
C559 C0 1.399 . S
C573 C14 1.425 . S
C579 C84 1.415 . S
C593 C28 1.409 . S
C599 C98 1.398 . S
C613 C56 1.422 . S
C619 C42 1.419 . S
C633 C61 1.228 . S
C639 C145 1.223 . S
C653 C33 1.232 . S
C659 C117 1.224 . S
C673 C159 1.230 . S
C679 C89 1.236 . S
C693 C131 1.236 . S
C699 C5 1.231 . S
C713 C112 1.420 . S
C719 C168 1.422 . S
C733 C140 1.422 . S
C739 C210 1.402 . S
C753 C182 1.397 . S
C759 C126 1.409 . S
C773 C154 1.411 . S
C779 C196 1.425 . S
C793 C201 1.235 . S
C799 C19 1.229 . S
C813 C187 1.227 . S
C819 C75 1.235 . S
C833 C215 1.228 . S
C839 C47 1.223 . S
C853 C173 1.229 . S
C859 C103 1.235 . S
