# Generated by pormake.
# Topology sra, (4)-cn, num edge types: 1
# Building blocks:
#     Node 0, Type 0, BuildingBlock: CEKHIL_clean_sbu_0, # of connection points: 4
#     Node 1, Type 0, BuildingBlock: CEKHIL_clean_sbu_0, # of connection points: 4
#     Node 2, Type 0, BuildingBlock: CEKHIL_clean_sbu_0, # of connection points: 4
#     Node 3, Type 0, BuildingBlock: CEKHIL_clean_sbu_0, # of connection points: 4
#     Node 4, Type 0, BuildingBlock: CEKHIL_clean_sbu_0, # of connection points: 4
#     Node 5, Type 0, BuildingBlock: CEKHIL_clean_sbu_0, # of connection points: 4
#     Node 6, Type 0, BuildingBlock: CEKHIL_clean_sbu_0, # of connection points: 4
#     Node 7, Type 0, BuildingBlock: CEKHIL_clean_sbu_0, # of connection points: 4
#     Edge 8, Type (0, 0), BuildingBlock: UVAHIK_clean_linker_0, # of connection points: 2
#     Edge 9, Type (0, 0), BuildingBlock: UVAHIK_clean_linker_0, # of connection points: 2
#     Edge 10, Type (0, 0), BuildingBlock: UVAHIK_clean_linker_0, # of connection points: 2
#     Edge 11, Type (0, 0), BuildingBlock: UVAHIK_clean_linker_0, # of connection points: 2
#     Edge 12, Type (0, 0), BuildingBlock: UVAHIK_clean_linker_0, # of connection points: 2
#     Edge 13, Type (0, 0), BuildingBlock: UVAHIK_clean_linker_0, # of connection points: 2
#     Edge 14, Type (0, 0), BuildingBlock: UVAHIK_clean_linker_0, # of connection points: 2
#     Edge 15, Type (0, 0), BuildingBlock: UVAHIK_clean_linker_0, # of connection points: 2
#     Edge 16, Type (0, 0), BuildingBlock: UVAHIK_clean_linker_0, # of connection points: 2
#     Edge 17, Type (0, 0), BuildingBlock: UVAHIK_clean_linker_0, # of connection points: 2
#     Edge 18, Type (0, 0), BuildingBlock: UVAHIK_clean_linker_0, # of connection points: 2
#     Edge 19, Type (0, 0), BuildingBlock: UVAHIK_clean_linker_0, # of connection points: 2
#     Edge 20, Type (0, 0), BuildingBlock: UVAHIK_clean_linker_0, # of connection points: 2
#     Edge 21, Type (0, 0), BuildingBlock: UVAHIK_clean_linker_0, # of connection points: 2
#     Edge 22, Type (0, 0), BuildingBlock: UVAHIK_clean_linker_0, # of connection points: 2
#     Edge 23, Type (0, 0), BuildingBlock: UVAHIK_clean_linker_0, # of connection points: 2
# Relax obj value: 0.033
# Max RMSD: 0.069
# Mean RMSD: 0.069
data_MOF--net-sra--node1-CEKHIL_clean_sbu_0--edge1-UVAHIK_clean_linker_0
_symmetry_space_group_name_H-M    P1
_symmetry_Int_Tables_number       1
_symmetry_cell_setting            triclinic
loop_
_symmetry_equiv_pos_as_xyz
'x, y, z'
_cell_length_a     35.328547
_cell_length_b     68.347007
_cell_length_c     40.260405
_cell_angle_alpha  90.073569
_cell_angle_beta   89.928418
_cell_angle_gamma 90.044885
loop_
_atom_site_label
_atom_site_type_symbol
_atom_site_fract_x
_atom_site_fract_y
_atom_site_fract_z
_atom_type_partial_charge
Co0 Co 0.01422 0.10445 0.15307 0.0
O1 O 0.0147 0.07692 0.14323 0.0
O2 O 0.99317 0.09972 0.10921 0.0
C3 C 0.07384 0.10599 0.17291 0.0
O4 O 0.0105 0.1344 0.15468 0.0
Co5 Co 0.02385 0.11801 0.22673 0.0
O6 O 0.02465 0.14441 0.20663 0.0
C7 C 0.95182 0.10057 0.20484 0.0
C8 C -0.00031 0.08126 0.11482 0.0
C9 C 0.01625 0.14797 0.17644 0.0
O10 O 0.96261 0.10156 0.17429 0.0
O11 O 0.97353 0.10465 0.22932 0.0
O12 O 0.06793 0.10665 0.14106 0.0
O13 O 0.04436 0.10263 0.19085 0.0
Co14 Co -0.0004 0.39864 0.15238 0.0
O15 O 0.00199 0.4263 0.14431 0.0
O16 O 0.0202 0.40367 0.10837 0.0
C17 C 0.9403 0.39866 0.17309 0.0
O18 O -0.00019 0.36861 0.15226 0.0
Co19 Co 0.98897 0.38372 0.22512 0.0
O20 O 0.97819 0.35867 0.20213 0.0
C21 C 0.06227 0.40013 0.20364 0.0
C22 C 0.01567 0.42215 0.11528 0.0
C23 C 0.98795 0.35513 0.1722 0.0
O24 O 0.05167 0.39961 0.17303 0.0
O25 O 0.04018 0.39616 0.22797 0.0
O26 O 0.94554 0.39834 0.14113 0.0
O27 O 0.97043 0.40068 0.19069 0.0
Co28 Co 0.0145 0.89836 0.84654 0.0
O29 O 0.01148 0.92618 0.85314 0.0
O30 O 0.99232 0.90412 0.88966 0.0
C31 C 0.07453 0.89818 0.82756 0.0
O32 O 0.01464 0.86834 0.84842 0.0
Co33 Co 0.0278 0.88168 0.77532 0.0
O34 O 0.03974 0.85754 0.80036 0.0
C35 C 0.95284 0.89738 0.79389 0.0
C36 C -0.00308 0.92248 0.88203 0.0
C37 C 0.02841 0.85458 0.83003 0.0
O38 O 0.96317 0.89867 0.82452 0.0
O39 O 0.97535 0.89239 0.77042 0.0
O40 O 0.068 0.89853 0.85934 0.0
O41 O 0.04511 0.8997 0.80888 0.0
Co42 Co -0.00016 0.60428 0.84452 0.0
O43 O -0.00048 0.57661 0.85313 0.0
O44 O 0.02059 0.59902 0.88826 0.0
C45 C 0.94037 0.60582 0.82443 0.0
O46 O 0.00337 0.63424 0.84432 0.0
Co47 Co 0.99037 0.61896 0.77151 0.0
O48 O 0.99008 0.64509 0.79273 0.0
C49 C 0.06238 0.60132 0.79283 0.0
C50 C 0.0142 0.58062 0.88184 0.0
C51 C -0.0019 0.64814 0.82317 0.0
O52 O 0.05156 0.60187 0.82341 0.0
O53 O 0.04066 0.60565 0.76851 0.0
O54 O 0.94603 0.6061 0.85634 0.0
O55 O 0.97002 0.60288 0.80651 0.0
Co56 Co 0.51456 0.60425 0.6518 0.0
O57 O 0.51195 0.57659 0.64358 0.0
O58 O 0.49267 0.59924 0.60826 0.0
C59 C 0.57444 0.60425 0.67101 0.0
O60 O 0.51433 0.6343 0.65192 0.0
Co61 Co 0.52717 0.61911 0.72433 0.0
O62 O 0.53702 0.64424 0.70141 0.0
C63 C 0.45325 0.60276 0.7045 0.0
C64 C 0.49738 0.58076 0.61493 0.0
C65 C 0.52649 0.6478 0.67173 0.0
O66 O 0.46312 0.60322 0.67368 0.0
O67 O 0.47593 0.60679 0.72834 0.0
O68 O 0.56821 0.60459 0.63919 0.0
O69 O 0.54488 0.60218 0.68938 0.0
Co70 Co 0.50006 0.89809 0.65361 0.0
O71 O 0.49925 0.92553 0.64335 0.0
O72 O 0.52013 0.90256 0.60923 0.0
C73 C 0.44085 0.89668 0.67449 0.0
O74 O 0.50382 0.86814 0.6559 0.0
Co75 Co 0.49192 0.8854 0.72783 0.0
O76 O 0.48995 0.85883 0.70825 0.0
C77 C 0.56279 0.90326 0.70427 0.0
C78 C 0.51359 0.92104 0.61471 0.0
C79 C 0.49797 0.85483 0.67808 0.0
O80 O 0.55205 0.90118 0.67389 0.0
O81 O 0.54122 0.89982 0.72916 0.0
O82 O 0.44613 0.89575 0.64256 0.0
O83 O 0.47066 0.90025 0.69181 0.0
Co84 Co 0.51465 0.3979 0.34665 0.0
O85 O 0.51111 0.42564 0.35412 0.0
O86 O 0.49239 0.4031 0.38992 0.0
C87 C 0.57459 0.39826 0.32756 0.0
O88 O 0.51542 0.36786 0.3477 0.0
Co89 Co 0.52824 0.38197 0.27497 0.0
O90 O 0.54032 0.35757 0.29925 0.0
C91 C 0.45303 0.39714 0.29402 0.0
C92 C 0.49668 0.42157 0.3829 0.0
C93 C 0.5292 0.3543 0.32887 0.0
O94 O 0.46329 0.39813 0.32469 0.0
O95 O 0.47566 0.39255 0.2704 0.0
O96 O 0.56818 0.39824 0.35936 0.0
O97 O 0.54509 0.39979 0.309 0.0
Co98 Co 0.50011 0.10375 0.34393 0.0
O99 O 0.49798 0.07607 0.35204 0.0
O100 O 0.52106 0.09777 0.38743 0.0
C101 C 0.44044 0.10655 0.32462 0.0
O102 O 0.5056 0.13365 0.34393 0.0
Co103 Co 0.49088 0.11853 0.27097 0.0
O104 O 0.4925 0.14462 0.29235 0.0
C105 C 0.56137 0.09916 0.29153 0.0
C106 C 0.51334 0.07956 0.38065 0.0
C107 C 0.50095 0.1476 0.32274 0.0
O108 O 0.55137 0.10046 0.32225 0.0
O109 O 0.53946 0.10362 0.26741 0.0
O110 O 0.44669 0.10654 0.35643 0.0
O111 O 0.46953 0.10306 0.30628 0.0
C112 C 0.96716 0.32062 0.18059 0.0
C113 C 0.98761 0.33429 0.16159 0.0
C114 C 0.97094 0.30062 0.1748 0.0
C115 C -0.00556 0.26102 0.12033 0.0
H116 H 0.03108 0.23643 0.20088 0.0
C117 C 0.02209 0.17634 0.13634 0.0
C118 C 0.01124 0.16882 0.16744 0.0
C119 C 0.02069 0.19662 0.13035 0.0
C120 C 0.02062 0.24298 0.17819 0.0
H121 H 0.02598 0.33758 0.11987 0.0
H122 H 0.0324 0.30217 0.10962 0.0
H123 H 0.02486 0.2718 0.19855 0.0
H124 H 0.98769 0.17634 0.21553 0.0
H125 H 0.98415 0.21114 0.20489 0.0
H126 H 0.98867 0.2319 0.10053 0.0
C127 C 0.0136 0.30723 0.12909 0.0
C128 C 0.01734 0.26326 0.17683 0.0
C129 C 0.00992 0.32744 0.13499 0.0
C130 C -0.00293 0.18172 0.19158 0.0
C131 C -0.00476 0.20173 0.18552 0.0
C132 C -0.0026 0.2405 0.12178 0.0
C133 C -0.00496 0.2937 0.14974 0.0
C134 C 0.0033 0.27246 0.1483 0.0
C135 C 0.00814 0.20958 0.1553 0.0
C136 C 0.0094 0.23125 0.1512 0.0
H137 H 0.94917 0.32531 0.2009 0.0
H138 H 0.956 0.29047 0.19081 0.0
H139 H 0.98357 0.26784 0.09803 0.0
H140 H 0.03306 0.16669 0.11727 0.0
H141 H 0.03067 0.2022 0.10674 0.0
C142 C 0.00311 0.82715 0.8659 0.0
C143 C 0.02895 0.83403 0.84193 0.0
C144 C -0.00048 0.80696 0.87193 0.0
C145 C 0.00323 0.76319 0.82452 0.0
H146 H 0.02118 0.73152 0.9028 0.0
C147 C 0.02147 0.68148 0.81061 0.0
C148 C 0.00377 0.66878 0.83313 0.0
C149 C 0.02389 0.70143 0.81718 0.0
C150 C 0.01548 0.74022 0.88091 0.0
H151 H 0.07367 0.8253 0.80798 0.0
H152 H 0.0671 0.79044 0.81831 0.0
H153 H 0.02655 0.76745 0.90627 0.0
H154 H 0.97619 0.66682 0.88107 0.0
H155 H 0.97948 0.70226 0.89238 0.0
H156 H 0.9921 0.73651 0.79891 0.0
C157 C 0.0494 0.80054 0.83212 0.0
C158 C 0.0186 0.76072 0.88293 0.0
C159 C 0.05302 0.82052 0.82616 0.0
C160 C 0.98994 0.67636 0.86328 0.0
C161 C 0.99187 0.69659 0.86972 0.0
C162 C -0.00023 0.74294 0.82258 0.0
C163 C 0.02177 0.79351 0.8541 0.0
C164 C 0.01355 0.77226 0.85441 0.0
C165 C 0.00797 0.70941 0.8462 0.0
C166 C 0.00713 0.73109 0.85037 0.0
H167 H 0.9842 0.83719 0.87846 0.0
H168 H 0.97794 0.80181 0.88895 0.0
H169 H -0.00132 0.77182 0.80232 0.0
H170 H 0.03309 0.676 0.78748 0.0
H171 H 0.03771 0.71071 0.79904 0.0
C172 C 0.5051 0.67524 0.63382 0.0
C173 C 0.52628 0.66868 0.66128 0.0
C174 C 0.50111 0.69539 0.62761 0.0
C175 C 0.48941 0.73903 0.67275 0.0
H176 H 0.53484 0.77156 0.60458 0.0
C177 C 0.50907 0.82026 0.69484 0.0
C178 C 0.50161 0.83377 0.6694 0.0
C179 C 0.51037 0.80027 0.6883 0.0
C180 C 0.52137 0.76264 0.62341 0.0
H181 H 0.56215 0.67822 0.70206 0.0
H182 H 0.55459 0.71295 0.69143 0.0
H183 H 0.5405 0.73567 0.60119 0.0
H184 H 0.49103 0.8368 0.61665 0.0
H185 H 0.49276 0.80141 0.60514 0.0
H186 H 0.47069 0.76553 0.69546 0.0
C187 C 0.541 0.70258 0.6749 0.0
C188 C 0.52464 0.74216 0.62144 0.0
C189 C 0.54513 0.68264 0.681 0.0
C190 C 0.49672 0.82675 0.6368 0.0
C191 C 0.49775 0.80651 0.63023 0.0
C192 C 0.48589 0.75931 0.6746 0.0
C193 C 0.51824 0.70916 0.64875 0.0
C194 C 0.50956 0.7303 0.64667 0.0
C195 C 0.50384 0.79303 0.65614 0.0
C196 C 0.50298 0.77144 0.65067 0.0
H197 H 0.49026 0.66491 0.61812 0.0
H198 H 0.48327 0.70022 0.60736 0.0
H199 H 0.47743 0.73014 0.6924 0.0
H200 H 0.51385 0.8251 0.72013 0.0
H201 H 0.51641 0.79043 0.70868 0.0
C202 C 0.50578 0.32669 0.36545 0.0
C203 C 0.53005 0.33363 0.34028 0.0
C204 C 0.50259 0.30649 0.37156 0.0
C205 C 0.50329 0.26262 0.32433 0.0
H206 H 0.52831 0.23113 0.40132 0.0
C207 C 0.52321 0.18109 0.30939 0.0
C208 C 0.50715 0.16823 0.33264 0.0
C209 C 0.52555 0.20105 0.31591 0.0
C210 C 0.52063 0.23977 0.37984 0.0
H211 H 0.57244 0.32491 0.30406 0.0
H212 H 0.56646 0.29005 0.3145 0.0
H213 H 0.5331 0.2671 0.4044 0.0
H214 H 0.48263 0.16609 0.38183 0.0
H215 H 0.48597 0.20152 0.39315 0.0
H216 H 0.49089 0.23582 0.2995 0.0
C217 C 0.54969 0.30012 0.32921 0.0
C218 C 0.5234 0.2603 0.38163 0.0
C219 C 0.55295 0.32012 0.3232 0.0
C220 C 0.49509 0.17571 0.36346 0.0
C221 C 0.49702 0.19595 0.3699 0.0
C222 C 0.50021 0.24233 0.32263 0.0
C223 C 0.52365 0.29306 0.3526 0.0
C224 C 0.51577 0.27178 0.35349 0.0
C225 C 0.51129 0.20889 0.34568 0.0
C226 C 0.5101 0.23057 0.3499 0.0
H227 H 0.4878 0.33672 0.37907 0.0
H228 H 0.48223 0.30132 0.38967 0.0
H229 H 0.49678 0.27119 0.30245 0.0
H230 H 0.53348 0.17572 0.2857 0.0
H231 H 0.53793 0.21044 0.29716 0.0
C232 C 0.39865 0.11088 0.27535 0.0
C233 C 0.40274 0.10993 0.31002 0.0
C234 C 0.36289 0.11277 0.26106 0.0
C235 C 0.26334 0.10208 0.27811 0.0
H236 H 0.24473 0.13476 0.20112 0.0
C237 C 0.11466 0.10968 0.22285 0.0
C238 C 0.11137 0.10901 0.18811 0.0
C239 C 0.15003 0.11152 0.23781 0.0
C240 C 0.24961 0.12544 0.22241 0.0
H241 H 0.37281 0.11081 0.35701 0.0
H242 H 0.31006 0.11416 0.33199 0.0
H243 H 0.30679 0.13538 0.22785 0.0
H244 H 0.1424 0.11012 0.1417 0.0
H245 H 0.20463 0.11303 0.16793 0.0
H246 H 0.20658 0.09184 0.27245 0.0
C247 C 0.33458 0.11325 0.31589 0.0
C248 C 0.28507 0.12583 0.23777 0.0
C249 C 0.37046 0.11144 0.33021 0.0
C250 C 0.14414 0.11062 0.16854 0.0
C251 C 0.1797 0.11238 0.18357 0.0
C252 C 0.22798 0.10164 0.26273 0.0
C253 C 0.33042 0.1137 0.28114 0.0
C254 C 0.29232 0.11412 0.26574 0.0
C255 C 0.18303 0.11259 0.21841 0.0
C256 C 0.22069 0.1133 0.2347 0.0
H257 H 0.42302 0.10977 0.25911 0.0
H258 H 0.3606 0.11286 0.23424 0.0
H259 H 0.26827 0.09259 0.29919 0.0
H260 H 0.08991 0.10862 0.23864 0.0
H261 H 0.15151 0.11202 0.26467 0.0
C262 C 0.64491 0.39485 0.3333 0.0
C263 C 0.61264 0.39583 0.31308 0.0
C264 C 0.68089 0.39324 0.31901 0.0
C265 C 0.73019 0.37983 0.24106 0.0
H266 H 0.80909 0.41404 0.27438 0.0
C267 C 0.86979 0.39477 0.16979 0.0
C268 C 0.90292 0.39617 0.18885 0.0
C269 C 0.83448 0.3932 0.18538 0.0
C270 C 0.78753 0.40419 0.26504 0.0
H271 H 0.59256 0.39555 0.26214 0.0
H272 H 0.65507 0.39286 0.23736 0.0
H273 H 0.74759 0.41356 0.3017 0.0
H274 H 0.92527 0.39648 0.23907 0.0
H275 H 0.86406 0.39347 0.26604 0.0
H276 H 0.77013 0.37062 0.20417 0.0
C277 C 0.65272 0.39313 0.26418 0.0
C278 C 0.75232 0.40391 0.28075 0.0
C279 C 0.6169 0.39481 0.27842 0.0
C280 C 0.90022 0.39556 0.22365 0.0
C281 C 0.86511 0.39395 0.23916 0.0
C282 C 0.76547 0.3801 0.22535 0.0
C283 C 0.68513 0.39248 0.28428 0.0
C284 C 0.72319 0.39183 0.2688 0.0
C285 C 0.8318 0.393 0.22026 0.0
C286 C 0.79446 0.39236 0.23709 0.0
H287 H 0.64242 0.39555 0.3601 0.0
H288 H 0.70538 0.39258 0.33513 0.0
H289 H 0.70839 0.3702 0.23153 0.0
H290 H 0.87108 0.3952 0.14292 0.0
H291 H 0.80926 0.39265 0.17014 0.0
C292 C 0.14475 0.89457 0.83375 0.0
C293 C 0.11262 0.89539 0.81333 0.0
C294 C 0.1808 0.89262 0.81973 0.0
C295 C 0.23061 0.87793 0.74271 0.0
H296 H 0.30955 0.91244 0.77504 0.0
C297 C 0.37058 0.89179 0.67138 0.0
C298 C 0.40363 0.89381 0.6904 0.0
C299 C 0.33529 0.89023 0.68699 0.0
C300 C 0.28801 0.90249 0.76601 0.0
H301 H 0.09288 0.89444 0.76232 0.0
H302 H 0.15556 0.89115 0.73798 0.0
H303 H 0.24783 0.91252 0.80197 0.0
H304 H 0.4259 0.8951 0.74058 0.0
H305 H 0.36469 0.89206 0.76764 0.0
H306 H 0.27078 0.86805 0.70651 0.0
C307 C 0.15301 0.89182 0.76477 0.0
C308 C 0.25265 0.90253 0.78148 0.0
C309 C 0.1171 0.89385 0.77874 0.0
C310 C 0.4009 0.89371 0.72521 0.0
C311 C 0.36578 0.89208 0.74075 0.0
C312 C 0.26605 0.87786 0.72724 0.0
C313 C 0.18529 0.89135 0.78507 0.0
C314 C 0.22348 0.89037 0.76986 0.0
C315 C 0.33251 0.89062 0.72186 0.0
C316 C 0.29507 0.89022 0.73863 0.0
H317 H 0.1421 0.89566 0.8605 0.0
H318 H 0.20517 0.89212 0.83601 0.0
H319 H 0.20878 0.86823 0.73344 0.0
H320 H 0.37189 0.89184 0.6445 0.0
H321 H 0.31012 0.88928 0.67173 0.0
C322 C 0.64471 0.60828 0.66566 0.0
C323 C 0.61232 0.60676 0.68572 0.0
C324 C 0.68053 0.60998 0.68015 0.0
C325 C 0.72888 0.62292 0.75866 0.0
H326 H 0.80936 0.59018 0.72406 0.0
C327 C 0.86987 0.60944 0.82853 0.0
C328 C 0.90286 0.60852 0.80912 0.0
C329 C 0.83435 0.61072 0.81332 0.0
C330 C 0.78735 0.59962 0.73376 0.0
H331 H 0.59188 0.60613 0.73658 0.0
H332 H 0.65414 0.609 0.7617 0.0
H333 H 0.74781 0.59007 0.69696 0.0
H334 H 0.92474 0.60894 0.75872 0.0
H335 H 0.86317 0.6115 0.73239 0.0
H336 H 0.76845 0.63234 0.79565 0.0
C337 C 0.65198 0.60908 0.73487 0.0
C338 C 0.7521 0.59957 0.71819 0.0
C339 C 0.61631 0.60731 0.72043 0.0
C340 C 0.89981 0.60947 0.77438 0.0
C341 C 0.86449 0.61081 0.75924 0.0
C342 C 0.7642 0.623 0.77422 0.0
C343 C 0.6845 0.61029 0.71493 0.0
C344 C 0.72244 0.61115 0.73054 0.0
C345 C 0.83132 0.61115 0.77846 0.0
C346 C 0.7938 0.61131 0.76197 0.0
H347 H 0.64243 0.60795 0.63884 0.0
H348 H 0.70512 0.61107 0.66416 0.0
H349 H 0.70663 0.63215 0.76853 0.0
H350 H 0.87142 0.60871 0.85537 0.0
H351 H 0.80926 0.61082 0.82879 0.0
C352 C 0.6127 0.91484 0.74348 0.0
C353 C 0.60257 0.9085 0.71145 0.0
C354 C 0.6506 0.91729 0.75205 0.0
C355 C 0.74808 0.92086 0.71872 0.0
H356 H 0.77465 0.89698 0.80291 0.0
C357 C 0.90054 0.89901 0.75211 0.0
C358 C 0.91294 0.90154 0.78505 0.0
C359 C 0.86292 0.90246 0.74354 0.0
C360 C 0.76769 0.90402 0.77962 0.0
H361 H 0.62427 0.90084 0.66273 0.0
H362 H 0.69076 0.90485 0.6779 0.0
H363 H 0.70858 0.89889 0.78647 0.0
H364 H 0.89542 0.91007 0.83468 0.0
H365 H 0.82959 0.91622 0.81957 0.0
H366 H 0.80745 0.92562 0.71167 0.0
C367 C 0.66924 0.90808 0.69629 0.0
C368 C 0.72979 0.90512 0.77016 0.0
C369 C 0.63116 0.90573 0.68761 0.0
C370 C 0.88682 0.90787 0.80913 0.0
C371 C 0.84908 0.91134 0.8005 0.0
C372 C 0.78606 0.91977 0.72821 0.0
C373 C 0.67935 0.91336 0.72889 0.0
C374 C 0.71956 0.91338 0.73948 0.0
C375 C 0.8367 0.90856 0.76763 0.0
C376 C 0.7963 0.91113 0.75861 0.0
H377 H 0.59134 0.91743 0.7623 0.0
H378 H 0.65744 0.92182 0.77713 0.0
H379 H 0.74104 0.92751 0.69513 0.0
H380 H 0.91976 0.89411 0.73285 0.0
H381 H 0.85419 0.89986 0.71813 0.0
C382 C 0.40399 0.5941 0.74655 0.0
C383 C 0.41361 0.59801 0.7133 0.0
C384 C 0.36642 0.59104 0.75572 0.0
C385 C 0.27093 0.57988 0.72349 0.0
H386 H 0.23807 0.60805 0.80211 0.0
C387 C 0.11474 0.59648 0.75179 0.0
C388 C 0.1023 0.59652 0.78502 0.0
C389 C 0.1528 0.59361 0.74413 0.0
C390 C 0.24687 0.59978 0.78048 0.0
H391 H 0.39131 0.60105 0.66339 0.0
H392 H 0.32535 0.59599 0.67959 0.0
H393 H 0.3044 0.60881 0.78603 0.0
H394 H 0.1201 0.5927 0.83617 0.0
H395 H 0.18676 0.58749 0.82267 0.0
H396 H 0.2131 0.57117 0.71766 0.0
C397 C 0.3471 0.5951 0.69846 0.0
C398 C 0.2849 0.60024 0.7712 0.0
C399 C 0.38485 0.59809 0.68921 0.0
C400 C 0.12872 0.5929 0.81034 0.0
C401 C 0.16693 0.59 0.80263 0.0
C402 C 0.23283 0.57939 0.73281 0.0
C403 C 0.33746 0.59189 0.73194 0.0
C404 C 0.2973 0.59047 0.74243 0.0
C405 C 0.17944 0.59064 0.76945 0.0
C406 C 0.22032 0.58954 0.7612 0.0
H407 H 0.42545 0.59363 0.76572 0.0
H408 H 0.36 0.5882 0.78159 0.0
H409 H 0.27973 0.57199 0.70146 0.0
H410 H 0.09527 0.59918 0.73155 0.0
H411 H 0.16153 0.59446 0.71837 0.0
C412 C 0.61027 0.08889 0.25017 0.0
C413 C 0.60068 0.09348 0.28319 0.0
C414 C 0.64786 0.08574 0.24112 0.0
C415 C 0.74404 0.07626 0.27348 0.0
H416 H 0.77534 0.10439 0.19443 0.0
C417 C 0.89929 0.09537 0.24563 0.0
C418 C 0.91198 0.09544 0.21247 0.0
C419 C 0.86134 0.09196 0.25311 0.0
C420 C 0.76702 0.09612 0.21618 0.0
H421 H 0.623 0.0974 0.33294 0.0
H422 H 0.68894 0.09213 0.31697 0.0
H423 H 0.70894 0.10401 0.21026 0.0
H424 H 0.89471 0.09117 0.16126 0.0
H425 H 0.82828 0.08499 0.17445 0.0
H426 H 0.80239 0.06871 0.27968 0.0
C427 C 0.66719 0.09081 0.29816 0.0
C428 C 0.72892 0.09593 0.22531 0.0
C429 C 0.62942 0.0939 0.3073 0.0
C430 C 0.8859 0.09136 0.18703 0.0
C431 C 0.84781 0.0879 0.19458 0.0
C432 C 0.7822 0.07642 0.26429 0.0
C433 C 0.67685 0.08717 0.26481 0.0
C434 C 0.71705 0.08619 0.25426 0.0
C435 C 0.83504 0.08844 0.22769 0.0
C436 C 0.79418 0.08659 0.23578 0.0
H437 H 0.5888 0.08814 0.23103 0.0
H438 H 0.65431 0.08255 0.21537 0.0
H439 H 0.73567 0.06843 0.29568 0.0
H440 H 0.91847 0.09844 0.26594 0.0
H441 H 0.85241 0.09277 0.27882 0.0
C442 C 0.11213 0.40969 0.24438 0.0
C443 C 0.10216 0.40467 0.21166 0.0
C444 C 0.14995 0.41212 0.25322 0.0
C445 C 0.24684 0.41868 0.22012 0.0
H446 H 0.27552 0.39287 0.30209 0.0
C447 C 0.40094 0.39924 0.25211 0.0
C448 C 0.41301 0.40104 0.28528 0.0
C449 C 0.36314 0.4022 0.24367 0.0
C450 C 0.26793 0.40044 0.27945 0.0
H451 H 0.12403 0.39914 0.16218 0.0
H452 H 0.19044 0.40306 0.17782 0.0
H453 H 0.20935 0.39368 0.28568 0.0
H454 H 0.39472 0.40787 0.33546 0.0
H455 H 0.32854 0.41315 0.32057 0.0
H456 H 0.30573 0.42508 0.21366 0.0
C457 C 0.16883 0.4053 0.19653 0.0
C458 C 0.22998 0.4009 0.27 0.0
C459 C 0.13081 0.40298 0.1876 0.0
C460 C 0.38639 0.40624 0.30972 0.0
C461 C 0.34846 0.40921 0.30122 0.0
C462 C 0.28488 0.41821 0.22958 0.0
C463 C 0.17879 0.40946 0.22964 0.0
C464 C 0.21902 0.40989 0.24011 0.0
C465 C 0.3364 0.40706 0.26812 0.0
C466 C 0.29585 0.40891 0.2592 0.0
H467 H 0.09073 0.41143 0.26344 0.0
H468 H 0.15664 0.41577 0.27874 0.0
H469 H 0.23922 0.42592 0.19717 0.0
H470 H 0.42056 0.39524 0.23257 0.0
H471 H 0.35468 0.40014 0.21804 0.0
C472 C 0.98381 0.07018 0.05682 0.0
C473 C 0.99131 0.06571 0.09021 0.0
C474 C 0.97867 0.05516 0.03348 0.0
C475 C 0.95646 0.00236 0.02503 0.0
H476 H 0.01532 0.00581 0.94398 0.0
C477 C 0.98378 0.93537 0.93947 0.0
C478 C 0.98789 0.93866 0.90523 0.0
C479 C 0.97941 0.95115 0.96144 0.0
C480 C -0.00195 0.00469 0.96613 0.0
H481 H -0.00208 0.04201 0.12554 0.0
H482 H 0.98868 0.01597 0.08505 0.0
H483 H 0.01524 0.03311 0.98278 0.0
H484 H 0.98842 0.96095 0.86696 0.0
H485 H 0.97953 0.98826 0.90486 0.0
H486 H 0.93927 0.97392 0.00844 0.0
C487 C 0.98677 0.03101 0.0768 0.0
C488 C -0.0019 0.02039 0.98843 0.0
C489 C 0.99233 0.04597 0.09997 0.0
C490 C 0.9858 0.95793 0.89327 0.0
C491 C 0.98099 0.97364 0.91509 0.0
C492 C 0.95613 0.98669 0.00256 0.0
C493 C 0.98042 0.0354 0.0432 0.0
C494 C 0.97768 0.01933 0.01832 0.0
C495 C 0.97865 0.97055 0.94957 0.0
C496 C 0.97725 0.98755 0.97293 0.0
H497 H 0.98283 0.08525 0.04856 0.0
H498 H 0.97354 0.059 0.00778 0.0
H499 H 0.94012 0.00118 0.04772 0.0
H500 H 0.98541 0.92067 0.94941 0.0
H501 H 0.97804 0.94816 0.98781 0.0
C502 C 0.02059 0.54515 0.89572 0.0
C503 C 0.02211 0.56481 0.906 0.0
C504 C 0.0255 0.52999 0.91855 0.0
C505 C 0.01322 0.51904 0.00674 0.0
H506 H 0.07092 0.47223 0.98657 0.0
C507 C 0.02662 0.4574 0.10269 0.0
C508 C 0.02407 0.438 0.09132 0.0
C509 C 0.03099 0.47285 0.08037 0.0
C510 C 0.05436 0.4851 0.99247 0.0
H511 H 0.03087 0.58398 0.94819 0.0
H512 H 0.03908 0.5574 0.98832 0.0
H513 H 0.0706 0.49947 0.9473 0.0
H514 H 0.02524 0.41951 0.04762 0.0
H515 H 0.0319 0.4466 0.0083 0.0
H516 H -0.00411 0.50463 0.05125 0.0
C517 C 0.03402 0.55377 0.96251 0.0
C518 C 0.05432 0.50074 0.97001 0.0
C519 C 0.02951 0.56899 0.93954 0.0
C520 C 0.02723 0.43432 0.05711 0.0
C521 C 0.03118 0.44986 0.03462 0.0
C522 C 0.01299 0.50337 0.02902 0.0
C523 C 0.03168 0.53409 0.9523 0.0
C524 C 0.03364 0.51787 0.97686 0.0
C525 C 0.0324 0.46938 0.04596 0.0
C526 C 0.03351 0.48616 0.02222 0.0
H527 H 0.01506 0.54143 0.87002 0.0
H528 H 0.02317 0.51502 0.90992 0.0
H529 H -0.00357 0.53186 0.01247 0.0
H530 H 0.02477 0.46073 0.12896 0.0
H531 H 0.03286 0.48758 0.09018 0.0
C532 C 0.48039 0.43337 0.44039 0.0
C533 C 0.48755 0.43742 0.40676 0.0
C534 C 0.47555 0.44867 0.46322 0.0
C535 C 0.45531 0.50185 0.4705 0.0
H536 H 0.51423 0.49802 0.55133 0.0
C537 C 0.48463 0.5685 0.55696 0.0
C538 C 0.48811 0.5649 0.59116 0.0
C539 C 0.48 0.5529 0.5346 0.0
C540 C 0.49699 0.49927 0.52922 0.0
H541 H 0.49361 0.46067 0.37048 0.0
H542 H 0.48504 0.48722 0.41015 0.0
H543 H 0.513 0.47067 0.51276 0.0
H544 H 0.48717 0.54233 0.62894 0.0
H545 H 0.47786 0.5154 0.59042 0.0
H546 H 0.43938 0.53053 0.48697 0.0
C547 C 0.4831 0.47229 0.41896 0.0
C548 C 0.49634 0.48352 0.50706 0.0
C549 C 0.48826 0.45703 0.39625 0.0
C550 C 0.48511 0.54557 0.60267 0.0
C551 C 0.48004 0.53008 0.5805 0.0
C552 C 0.45572 0.5176 0.49285 0.0
C553 C 0.4774 0.46832 0.45282 0.0
C554 C 0.47574 0.48465 0.47732 0.0
C555 C 0.47838 0.53343 0.54608 0.0
C556 C 0.47675 0.51656 0.52246 0.0
H557 H 0.47963 0.41842 0.44924 0.0
H558 H 0.4708 0.44514 0.48911 0.0
H559 H 0.43891 0.50312 0.4479 0.0
H560 H 0.48695 0.58325 0.54737 0.0
H561 H 0.47909 0.55607 0.50828 0.0
C562 C 0.52093 0.95626 0.59959 0.0
C563 C 0.52107 0.9365 0.58976 0.0
C564 C 0.52542 0.97118 0.57625 0.0
C565 C 0.50918 0.982 0.48869 0.0
H566 H 0.57096 0.02784 0.5059 0.0
C567 C 0.5202 0.04392 0.3925 0.0
C568 C 0.52069 0.06331 0.40411 0.0
C569 C 0.52444 0.02826 0.41442 0.0
C570 C 0.55322 0.01526 0.50083 0.0
H571 H 0.52678 0.91691 0.54773 0.0
H572 H 0.53414 0.94313 0.50662 0.0
H573 H 0.57133 1.00062 0.54513 0.0
H574 H 0.52681 0.08152 0.44782 0.0
H575 H 0.5331 0.05413 0.48648 0.0
H576 H 0.4899 0.99674 0.44515 0.0
C577 C 0.53059 0.94699 0.53254 0.0
C578 C 0.55361 0.99961 0.52325 0.0
C579 C 0.52658 0.93198 0.55605 0.0
C580 C 0.52644 0.06673 0.43813 0.0
C581 C 0.53021 0.05099 0.46024 0.0
C582 C 0.50847 0.9977 0.46645 0.0
C583 C 0.52975 0.96676 0.54239 0.0
C584 C 0.53144 0.98284 0.51751 0.0
C585 C 0.52874 0.03151 0.44871 0.0
C586 C 0.53038 0.01461 0.47223 0.0
H587 H 0.51686 0.96025 0.6254 0.0
H588 H 0.52425 0.98624 0.58463 0.0
H589 H 0.49128 0.96944 0.48384 0.0
H590 H 0.51629 0.04078 0.36635 0.0
H591 H 0.52415 0.01355 0.40438 0.0
loop_
_geom_bond_atom_site_label_1
_geom_bond_atom_site_label_2
_geom_bond_distance
_geom_bond_site_symmetry_2
_ccdc_geom_bond_type
Co0 O1 2.216 . S
Co0 O2 2.091 . S
Co0 O4 2.004 . S
Co0 O10 2.021 1_455 S
Co0 O12 2.137 . S
Co0 O13 2.244 . S
O1 Co0 2.216 . S
O1 C8 1.247 . S
O2 Co0 2.091 . S
O2 C8 1.261 . S
C3 O12 1.247 . S
C3 O13 1.272 . S
O4 Co0 2.004 . S
O4 C9 1.259 . S
Co5 O6 2.061 . S
Co5 O11 2.052 1_455 S
Co5 O13 2.135 . S
O6 Co5 2.061 . S
O6 C9 1.235 . S
C7 O10 1.238 . S
C7 O11 1.241 . S
C8 O1 1.247 . S
C8 O2 1.261 . S
C9 O4 1.259 . S
C9 O6 1.235 . S
O10 Co0 2.021 1_655 S
O10 C7 1.238 . S
O11 Co5 2.052 1_655 S
O11 C7 1.241 . S
O12 Co0 2.137 . S
O12 C3 1.247 . S
O13 Co0 2.244 . S
O13 C3 1.272 . S
O13 Co5 2.135 . S
Co14 O15 2.216 . S
Co14 O16 2.091 . S
Co14 O18 2.004 . S
Co14 O24 2.021 . S
Co14 O26 2.137 1_455 S
Co14 O27 2.244 1_455 S
O15 Co14 2.216 . S
O15 C22 1.247 . S
O16 Co14 2.091 . S
O16 C22 1.261 . S
C17 O26 1.247 . S
C17 O27 1.272 . S
O18 Co14 2.004 . S
O18 C23 1.259 . S
Co19 O20 2.061 . S
Co19 O25 2.052 . S
Co19 O27 2.135 1_455 S
O20 Co19 2.061 . S
O20 C23 1.235 . S
C21 O24 1.238 . S
C21 O25 1.241 . S
C22 O15 1.247 . S
C22 O16 1.261 . S
C23 O18 1.259 . S
C23 O20 1.235 . S
O24 Co14 2.021 . S
O24 C21 1.238 . S
O25 Co19 2.052 . S
O25 C21 1.241 . S
O26 Co14 2.137 1_655 S
O26 C17 1.247 . S
O27 Co14 2.244 1_655 S
O27 C17 1.272 . S
O27 Co19 2.135 1_655 S
Co28 O29 2.216 . S
Co28 O30 2.091 . S
Co28 O32 2.004 . S
Co28 O38 2.021 1_455 S
Co28 O40 2.137 . S
Co28 O41 2.244 . S
O29 Co28 2.216 . S
O29 C36 1.247 . S
O30 Co28 2.091 . S
O30 C36 1.261 . S
C31 O40 1.247 . S
C31 O41 1.272 . S
O32 Co28 2.004 . S
O32 C37 1.259 . S
Co33 O34 2.061 . S
Co33 O39 2.052 1_455 S
Co33 O41 2.135 . S
O34 Co33 2.061 . S
O34 C37 1.235 . S
C35 O38 1.238 . S
C35 O39 1.241 . S
C36 O29 1.247 . S
C36 O30 1.261 . S
C37 O32 1.259 . S
C37 O34 1.235 . S
O38 Co28 2.021 1_655 S
O38 C35 1.238 . S
O39 Co33 2.052 1_655 S
O39 C35 1.241 . S
O40 Co28 2.137 . S
O40 C31 1.247 . S
O41 Co28 2.244 . S
O41 C31 1.272 . S
O41 Co33 2.135 . S
Co42 O43 2.216 . S
Co42 O44 2.091 . S
Co42 O46 2.004 . S
Co42 O52 2.021 . S
Co42 O54 2.137 1_455 S
Co42 O55 2.244 1_455 S
O43 Co42 2.216 . S
O43 C50 1.247 . S
O44 Co42 2.091 . S
O44 C50 1.261 . S
C45 O54 1.247 . S
C45 O55 1.272 . S
O46 Co42 2.004 . S
O46 C51 1.259 . S
Co47 O48 2.061 . S
Co47 O53 2.052 . S
Co47 O55 2.135 1_455 S
O48 Co47 2.061 . S
O48 C51 1.235 . S
C49 O52 1.238 . S
C49 O53 1.241 . S
C50 O43 1.247 . S
C50 O44 1.261 . S
C51 O46 1.259 . S
C51 O48 1.235 . S
O52 Co42 2.021 . S
O52 C49 1.238 . S
O53 Co47 2.052 . S
O53 C49 1.241 . S
O54 Co42 2.137 1_655 S
O54 C45 1.247 . S
O55 Co42 2.244 1_655 S
O55 C45 1.272 . S
O55 Co47 2.135 1_655 S
Co56 O57 2.216 . S
Co56 O58 2.091 . S
Co56 O60 2.004 . S
Co56 O66 2.021 . S
Co56 O68 2.137 . S
Co56 O69 2.244 . S
O57 Co56 2.216 . S
O57 C64 1.247 . S
O58 Co56 2.091 . S
O58 C64 1.261 . S
C59 O68 1.247 . S
C59 O69 1.272 . S
O60 Co56 2.004 . S
O60 C65 1.259 . S
Co61 O62 2.061 . S
Co61 O67 2.052 . S
Co61 O69 2.135 . S
O62 Co61 2.061 . S
O62 C65 1.235 . S
C63 O66 1.238 . S
C63 O67 1.241 . S
C64 O57 1.247 . S
C64 O58 1.261 . S
C65 O60 1.259 . S
C65 O62 1.235 . S
O66 Co56 2.021 . S
O66 C63 1.238 . S
O67 Co61 2.052 . S
O67 C63 1.241 . S
O68 Co56 2.137 . S
O68 C59 1.247 . S
O69 Co56 2.244 . S
O69 C59 1.272 . S
O69 Co61 2.135 . S
Co70 O71 2.216 . S
Co70 O72 2.091 . S
Co70 O74 2.004 . S
Co70 O80 2.021 . S
Co70 O82 2.137 . S
Co70 O83 2.244 . S
O71 Co70 2.216 . S
O71 C78 1.247 . S
O72 Co70 2.091 . S
O72 C78 1.261 . S
C73 O82 1.247 . S
C73 O83 1.272 . S
O74 Co70 2.004 . S
O74 C79 1.259 . S
Co75 O76 2.061 . S
Co75 O81 2.052 . S
Co75 O83 2.135 . S
O76 Co75 2.061 . S
O76 C79 1.235 . S
C77 O80 1.238 . S
C77 O81 1.241 . S
C78 O71 1.247 . S
C78 O72 1.261 . S
C79 O74 1.259 . S
C79 O76 1.235 . S
O80 Co70 2.021 . S
O80 C77 1.238 . S
O81 Co75 2.052 . S
O81 C77 1.241 . S
O82 Co70 2.137 . S
O82 C73 1.247 . S
O83 Co70 2.244 . S
O83 C73 1.272 . S
O83 Co75 2.135 . S
Co84 O85 2.216 . S
Co84 O86 2.091 . S
Co84 O88 2.004 . S
Co84 O94 2.021 . S
Co84 O96 2.137 . S
Co84 O97 2.244 . S
O85 Co84 2.216 . S
O85 C92 1.247 . S
O86 Co84 2.091 . S
O86 C92 1.261 . S
C87 O96 1.247 . S
C87 O97 1.272 . S
O88 Co84 2.004 . S
O88 C93 1.259 . S
Co89 O90 2.061 . S
Co89 O95 2.052 . S
Co89 O97 2.135 . S
O90 Co89 2.061 . S
O90 C93 1.235 . S
C91 O94 1.238 . S
C91 O95 1.241 . S
C92 O85 1.247 . S
C92 O86 1.261 . S
C93 O88 1.259 . S
C93 O90 1.235 . S
O94 Co84 2.021 . S
O94 C91 1.238 . S
O95 Co89 2.052 . S
O95 C91 1.241 . S
O96 Co84 2.137 . S
O96 C87 1.247 . S
O97 Co84 2.244 . S
O97 C87 1.272 . S
O97 Co89 2.135 . S
Co98 O99 2.216 . S
Co98 O100 2.091 . S
Co98 O102 2.004 . S
Co98 O108 2.021 . S
Co98 O110 2.137 . S
Co98 O111 2.244 . S
O99 Co98 2.216 . S
O99 C106 1.247 . S
O100 Co98 2.091 . S
O100 C106 1.261 . S
C101 O110 1.247 . S
C101 O111 1.272 . S
O102 Co98 2.004 . S
O102 C107 1.259 . S
Co103 O104 2.061 . S
Co103 O109 2.052 . S
Co103 O111 2.135 . S
O104 Co103 2.061 . S
O104 C107 1.235 . S
C105 O108 1.238 . S
C105 O109 1.241 . S
C106 O99 1.247 . S
C106 O100 1.261 . S
C107 O102 1.259 . S
C107 O104 1.235 . S
O108 Co98 2.021 . S
O108 C105 1.238 . S
O109 Co103 2.052 . S
O109 C105 1.241 . S
O110 Co98 2.137 . S
O110 C101 1.247 . S
O111 Co98 2.244 . S
O111 C101 1.272 . S
O111 Co103 2.135 . S
C112 C113 1.349 1_655 S
C112 C114 1.327 . S
C112 H137 0.950 . S
C113 C112 1.349 1_455 S
C113 C129 1.349 . S
C114 C112 1.327 . S
C114 C133 1.429 1_655 S
C114 H138 0.950 . S
C115 C132 1.574 . S
C115 C134 1.368 . S
C115 H139 0.949 . S
H116 C120 0.949 . S
C117 C118 1.349 . S
C117 C119 1.327 . S
C117 H140 0.950 . S
C118 C117 1.349 . S
C118 C130 1.349 1_455 S
C119 C117 1.327 . S
C119 C135 1.429 . S
C119 H141 0.950 . S
C120 H116 0.949 . S
C120 C128 1.574 . S
C120 C136 1.368 1_655 S
H121 C129 0.950 . S
H122 C127 0.950 . S
H123 C128 0.949 . S
H124 C130 0.950 . S
H125 C131 0.950 . S
H126 C132 0.949 . S
C127 H122 0.950 . S
C127 C129 1.327 . S
C127 C133 1.429 . S
C128 C120 1.574 . S
C128 H123 0.949 . S
C128 C134 1.368 1_655 S
C129 C113 1.349 . S
C129 H121 0.950 . S
C129 C127 1.327 . S
C130 C118 1.349 1_655 S
C130 H124 0.950 . S
C130 C131 1.327 . S
C131 H125 0.950 . S
C131 C130 1.327 . S
C131 C135 1.429 1_655 S
C132 C115 1.574 . S
C132 H126 0.949 . S
C132 C136 1.368 . S
C133 C114 1.429 1_455 S
C133 C127 1.429 . S
C133 C134 1.523 . S
C134 C115 1.368 . S
C134 C128 1.368 1_455 S
C134 C133 1.523 . S
C135 C119 1.429 . S
C135 C131 1.429 1_455 S
C135 C136 1.523 . S
C136 C120 1.368 1_455 S
C136 C132 1.368 . S
C136 C135 1.523 . S
H137 C112 0.950 . S
H138 C114 0.950 . S
H139 C115 0.949 . S
H140 C117 0.950 . S
H141 C119 0.950 . S
C142 C143 1.349 1_655 S
C142 C144 1.327 . S
C142 H167 0.950 . S
C143 C142 1.349 1_455 S
C143 C159 1.349 . S
C144 C142 1.327 . S
C144 C163 1.429 1_655 S
C144 H168 0.950 . S
C145 C162 1.574 . S
C145 C164 1.368 . S
C145 H169 0.949 . S
H146 C150 0.949 . S
C147 C148 1.349 . S
C147 C149 1.327 . S
C147 H170 0.950 . S
C148 C147 1.349 . S
C148 C160 1.349 1_455 S
C149 C147 1.327 . S
C149 C165 1.429 . S
C149 H171 0.950 . S
C150 H146 0.949 . S
C150 C158 1.574 . S
C150 C166 1.368 1_655 S
H151 C159 0.950 . S
H152 C157 0.950 . S
H153 C158 0.949 . S
H154 C160 0.950 . S
H155 C161 0.950 . S
H156 C162 0.949 . S
C157 H152 0.950 . S
C157 C159 1.327 . S
C157 C163 1.429 . S
C158 C150 1.574 . S
C158 H153 0.949 . S
C158 C164 1.368 1_655 S
C159 C143 1.349 . S
C159 H151 0.950 . S
C159 C157 1.327 . S
C160 C148 1.349 1_655 S
C160 H154 0.950 . S
C160 C161 1.327 . S
C161 H155 0.950 . S
C161 C160 1.327 . S
C161 C165 1.429 1_655 S
C162 C145 1.574 . S
C162 H156 0.949 . S
C162 C166 1.368 . S
C163 C144 1.429 1_455 S
C163 C157 1.429 . S
C163 C164 1.523 . S
C164 C145 1.368 . S
C164 C158 1.368 1_455 S
C164 C163 1.523 . S
C165 C149 1.429 . S
C165 C161 1.429 1_455 S
C165 C166 1.523 . S
C166 C150 1.368 1_455 S
C166 C162 1.368 . S
C166 C165 1.523 . S
H167 C142 0.950 . S
H168 C144 0.950 . S
H169 C145 0.949 . S
H170 C147 0.950 . S
H171 C149 0.950 . S
C172 C173 1.349 . S
C172 C174 1.327 . S
C172 H197 0.950 . S
C173 C172 1.349 . S
C173 C189 1.349 . S
C174 C172 1.327 . S
C174 C193 1.429 . S
C174 H198 0.950 . S
C175 C192 1.574 . S
C175 C194 1.368 . S
C175 H199 0.949 . S
H176 C180 0.949 . S
C177 C178 1.349 . S
C177 C179 1.327 . S
C177 H200 0.950 . S
C178 C177 1.349 . S
C178 C190 1.349 . S
C179 C177 1.327 . S
C179 C195 1.429 . S
C179 H201 0.950 . S
C180 H176 0.949 . S
C180 C188 1.574 . S
C180 C196 1.368 . S
H181 C189 0.950 . S
H182 C187 0.950 . S
H183 C188 0.949 . S
H184 C190 0.950 . S
H185 C191 0.950 . S
H186 C192 0.949 . S
C187 H182 0.950 . S
C187 C189 1.327 . S
C187 C193 1.429 . S
C188 C180 1.574 . S
C188 H183 0.949 . S
C188 C194 1.368 . S
C189 C173 1.349 . S
C189 H181 0.950 . S
C189 C187 1.327 . S
C190 C178 1.349 . S
C190 H184 0.950 . S
C190 C191 1.327 . S
C191 H185 0.950 . S
C191 C190 1.327 . S
C191 C195 1.429 . S
C192 C175 1.574 . S
C192 H186 0.949 . S
C192 C196 1.368 . S
C193 C174 1.429 . S
C193 C187 1.429 . S
C193 C194 1.523 . S
C194 C175 1.368 . S
C194 C188 1.368 . S
C194 C193 1.523 . S
C195 C179 1.429 . S
C195 C191 1.429 . S
C195 C196 1.523 . S
C196 C180 1.368 . S
C196 C192 1.368 . S
C196 C195 1.523 . S
H197 C172 0.950 . S
H198 C174 0.950 . S
H199 C175 0.949 . S
H200 C177 0.950 . S
H201 C179 0.950 . S
C202 C203 1.349 . S
C202 C204 1.327 . S
C202 H227 0.950 . S
C203 C202 1.349 . S
C203 C219 1.349 . S
C204 C202 1.327 . S
C204 C223 1.429 . S
C204 H228 0.950 . S
C205 C222 1.574 . S
C205 C224 1.368 . S
C205 H229 0.949 . S
H206 C210 0.949 . S
C207 C208 1.349 . S
C207 C209 1.327 . S
C207 H230 0.950 . S
C208 C207 1.349 . S
C208 C220 1.349 . S
C209 C207 1.327 . S
C209 C225 1.429 . S
C209 H231 0.950 . S
C210 H206 0.949 . S
C210 C218 1.574 . S
C210 C226 1.368 . S
H211 C219 0.950 . S
H212 C217 0.950 . S
H213 C218 0.949 . S
H214 C220 0.950 . S
H215 C221 0.950 . S
H216 C222 0.949 . S
C217 H212 0.950 . S
C217 C219 1.327 . S
C217 C223 1.429 . S
C218 C210 1.574 . S
C218 H213 0.949 . S
C218 C224 1.368 . S
C219 C203 1.349 . S
C219 H211 0.950 . S
C219 C217 1.327 . S
C220 C208 1.349 . S
C220 H214 0.950 . S
C220 C221 1.327 . S
C221 H215 0.950 . S
C221 C220 1.327 . S
C221 C225 1.429 . S
C222 C205 1.574 . S
C222 H216 0.949 . S
C222 C226 1.368 . S
C223 C204 1.429 . S
C223 C217 1.429 . S
C223 C224 1.523 . S
C224 C205 1.368 . S
C224 C218 1.368 . S
C224 C223 1.523 . S
C225 C209 1.429 . S
C225 C221 1.429 . S
C225 C226 1.523 . S
C226 C210 1.368 . S
C226 C222 1.368 . S
C226 C225 1.523 . S
H227 C202 0.950 . S
H228 C204 0.950 . S
H229 C205 0.949 . S
H230 C207 0.950 . S
H231 C209 0.950 . S
C232 C233 1.349 . S
C232 C234 1.327 . S
C232 H257 0.950 . S
C233 C232 1.349 . S
C233 C249 1.349 . S
C234 C232 1.327 . S
C234 C253 1.429 . S
C234 H258 0.950 . S
C235 C252 1.574 . S
C235 C254 1.368 . S
C235 H259 0.949 . S
H236 C240 0.949 . S
C237 C238 1.349 . S
C237 C239 1.327 . S
C237 H260 0.950 . S
C238 C237 1.349 . S
C238 C250 1.349 . S
C239 C237 1.327 . S
C239 C255 1.429 . S
C239 H261 0.950 . S
C240 H236 0.949 . S
C240 C248 1.574 . S
C240 C256 1.368 . S
H241 C249 0.950 . S
H242 C247 0.950 . S
H243 C248 0.949 . S
H244 C250 0.950 . S
H245 C251 0.950 . S
H246 C252 0.949 . S
C247 H242 0.950 . S
C247 C249 1.327 . S
C247 C253 1.429 . S
C248 C240 1.574 . S
C248 H243 0.949 . S
C248 C254 1.368 . S
C249 C233 1.349 . S
C249 H241 0.950 . S
C249 C247 1.327 . S
C250 C238 1.349 . S
C250 H244 0.950 . S
C250 C251 1.327 . S
C251 H245 0.950 . S
C251 C250 1.327 . S
C251 C255 1.429 . S
C252 C235 1.574 . S
C252 H246 0.949 . S
C252 C256 1.368 . S
C253 C234 1.429 . S
C253 C247 1.429 . S
C253 C254 1.523 . S
C254 C235 1.368 . S
C254 C248 1.368 . S
C254 C253 1.523 . S
C255 C239 1.429 . S
C255 C251 1.429 . S
C255 C256 1.523 . S
C256 C240 1.368 . S
C256 C252 1.368 . S
C256 C255 1.523 . S
H257 C232 0.950 . S
H258 C234 0.950 . S
H259 C235 0.949 . S
H260 C237 0.950 . S
H261 C239 0.950 . S
C262 C263 1.349 . S
C262 C264 1.327 . S
C262 H287 0.950 . S
C263 C262 1.349 . S
C263 C279 1.349 . S
C264 C262 1.327 . S
C264 C283 1.429 . S
C264 H288 0.950 . S
C265 C282 1.574 . S
C265 C284 1.368 . S
C265 H289 0.949 . S
H266 C270 0.949 . S
C267 C268 1.349 . S
C267 C269 1.327 . S
C267 H290 0.950 . S
C268 C267 1.349 . S
C268 C280 1.349 . S
C269 C267 1.327 . S
C269 C285 1.429 . S
C269 H291 0.950 . S
C270 H266 0.949 . S
C270 C278 1.574 . S
C270 C286 1.368 . S
H271 C279 0.950 . S
H272 C277 0.950 . S
H273 C278 0.949 . S
H274 C280 0.950 . S
H275 C281 0.950 . S
H276 C282 0.949 . S
C277 H272 0.950 . S
C277 C279 1.327 . S
C277 C283 1.429 . S
C278 C270 1.574 . S
C278 H273 0.949 . S
C278 C284 1.368 . S
C279 C263 1.349 . S
C279 H271 0.950 . S
C279 C277 1.327 . S
C280 C268 1.349 . S
C280 H274 0.950 . S
C280 C281 1.327 . S
C281 H275 0.950 . S
C281 C280 1.327 . S
C281 C285 1.429 . S
C282 C265 1.574 . S
C282 H276 0.949 . S
C282 C286 1.368 . S
C283 C264 1.429 . S
C283 C277 1.429 . S
C283 C284 1.523 . S
C284 C265 1.368 . S
C284 C278 1.368 . S
C284 C283 1.523 . S
C285 C269 1.429 . S
C285 C281 1.429 . S
C285 C286 1.523 . S
C286 C270 1.368 . S
C286 C282 1.368 . S
C286 C285 1.523 . S
H287 C262 0.950 . S
H288 C264 0.950 . S
H289 C265 0.949 . S
H290 C267 0.950 . S
H291 C269 0.950 . S
C292 C293 1.349 . S
C292 C294 1.327 . S
C292 H317 0.950 . S
C293 C292 1.349 . S
C293 C309 1.349 . S
C294 C292 1.327 . S
C294 C313 1.429 . S
C294 H318 0.950 . S
C295 C312 1.574 . S
C295 C314 1.368 . S
C295 H319 0.949 . S
H296 C300 0.949 . S
C297 C298 1.349 . S
C297 C299 1.327 . S
C297 H320 0.950 . S
C298 C297 1.349 . S
C298 C310 1.349 . S
C299 C297 1.327 . S
C299 C315 1.429 . S
C299 H321 0.950 . S
C300 H296 0.949 . S
C300 C308 1.574 . S
C300 C316 1.368 . S
H301 C309 0.950 . S
H302 C307 0.950 . S
H303 C308 0.949 . S
H304 C310 0.950 . S
H305 C311 0.950 . S
H306 C312 0.949 . S
C307 H302 0.950 . S
C307 C309 1.327 . S
C307 C313 1.429 . S
C308 C300 1.574 . S
C308 H303 0.949 . S
C308 C314 1.368 . S
C309 C293 1.349 . S
C309 H301 0.950 . S
C309 C307 1.327 . S
C310 C298 1.349 . S
C310 H304 0.950 . S
C310 C311 1.327 . S
C311 H305 0.950 . S
C311 C310 1.327 . S
C311 C315 1.429 . S
C312 C295 1.574 . S
C312 H306 0.949 . S
C312 C316 1.368 . S
C313 C294 1.429 . S
C313 C307 1.429 . S
C313 C314 1.523 . S
C314 C295 1.368 . S
C314 C308 1.368 . S
C314 C313 1.523 . S
C315 C299 1.429 . S
C315 C311 1.429 . S
C315 C316 1.523 . S
C316 C300 1.368 . S
C316 C312 1.368 . S
C316 C315 1.523 . S
H317 C292 0.950 . S
H318 C294 0.950 . S
H319 C295 0.949 . S
H320 C297 0.950 . S
H321 C299 0.950 . S
C322 C323 1.349 . S
C322 C324 1.327 . S
C322 H347 0.950 . S
C323 C322 1.349 . S
C323 C339 1.349 . S
C324 C322 1.327 . S
C324 C343 1.429 . S
C324 H348 0.950 . S
C325 C342 1.574 . S
C325 C344 1.368 . S
C325 H349 0.949 . S
H326 C330 0.949 . S
C327 C328 1.349 . S
C327 C329 1.327 . S
C327 H350 0.950 . S
C328 C327 1.349 . S
C328 C340 1.349 . S
C329 C327 1.327 . S
C329 C345 1.429 . S
C329 H351 0.950 . S
C330 H326 0.949 . S
C330 C338 1.574 . S
C330 C346 1.368 . S
H331 C339 0.950 . S
H332 C337 0.950 . S
H333 C338 0.949 . S
H334 C340 0.950 . S
H335 C341 0.950 . S
H336 C342 0.949 . S
C337 H332 0.950 . S
C337 C339 1.327 . S
C337 C343 1.429 . S
C338 C330 1.574 . S
C338 H333 0.949 . S
C338 C344 1.368 . S
C339 C323 1.349 . S
C339 H331 0.950 . S
C339 C337 1.327 . S
C340 C328 1.349 . S
C340 H334 0.950 . S
C340 C341 1.327 . S
C341 H335 0.950 . S
C341 C340 1.327 . S
C341 C345 1.429 . S
C342 C325 1.574 . S
C342 H336 0.949 . S
C342 C346 1.368 . S
C343 C324 1.429 . S
C343 C337 1.429 . S
C343 C344 1.523 . S
C344 C325 1.368 . S
C344 C338 1.368 . S
C344 C343 1.523 . S
C345 C329 1.429 . S
C345 C341 1.429 . S
C345 C346 1.523 . S
C346 C330 1.368 . S
C346 C342 1.368 . S
C346 C345 1.523 . S
H347 C322 0.950 . S
H348 C324 0.950 . S
H349 C325 0.949 . S
H350 C327 0.950 . S
H351 C329 0.950 . S
C352 C353 1.349 . S
C352 C354 1.327 . S
C352 H377 0.950 . S
C353 C352 1.349 . S
C353 C369 1.349 . S
C354 C352 1.327 . S
C354 C373 1.429 . S
C354 H378 0.950 . S
C355 C372 1.574 . S
C355 C374 1.368 . S
C355 H379 0.949 . S
H356 C360 0.949 . S
C357 C358 1.349 . S
C357 C359 1.327 . S
C357 H380 0.950 . S
C358 C357 1.349 . S
C358 C370 1.349 . S
C359 C357 1.327 . S
C359 C375 1.429 . S
C359 H381 0.950 . S
C360 H356 0.949 . S
C360 C368 1.574 . S
C360 C376 1.368 . S
H361 C369 0.950 . S
H362 C367 0.950 . S
H363 C368 0.949 . S
H364 C370 0.950 . S
H365 C371 0.950 . S
H366 C372 0.949 . S
C367 H362 0.950 . S
C367 C369 1.327 . S
C367 C373 1.429 . S
C368 C360 1.574 . S
C368 H363 0.949 . S
C368 C374 1.368 . S
C369 C353 1.349 . S
C369 H361 0.950 . S
C369 C367 1.327 . S
C370 C358 1.349 . S
C370 H364 0.950 . S
C370 C371 1.327 . S
C371 H365 0.950 . S
C371 C370 1.327 . S
C371 C375 1.429 . S
C372 C355 1.574 . S
C372 H366 0.949 . S
C372 C376 1.368 . S
C373 C354 1.429 . S
C373 C367 1.429 . S
C373 C374 1.523 . S
C374 C355 1.368 . S
C374 C368 1.368 . S
C374 C373 1.523 . S
C375 C359 1.429 . S
C375 C371 1.429 . S
C375 C376 1.523 . S
C376 C360 1.368 . S
C376 C372 1.368 . S
C376 C375 1.523 . S
H377 C352 0.950 . S
H378 C354 0.950 . S
H379 C355 0.949 . S
H380 C357 0.950 . S
H381 C359 0.950 . S
C382 C383 1.349 . S
C382 C384 1.327 . S
C382 H407 0.950 . S
C383 C382 1.349 . S
C383 C399 1.349 . S
C384 C382 1.327 . S
C384 C403 1.429 . S
C384 H408 0.950 . S
C385 C402 1.574 . S
C385 C404 1.368 . S
C385 H409 0.949 . S
H386 C390 0.949 . S
C387 C388 1.349 . S
C387 C389 1.327 . S
C387 H410 0.950 . S
C388 C387 1.349 . S
C388 C400 1.349 . S
C389 C387 1.327 . S
C389 C405 1.429 . S
C389 H411 0.950 . S
C390 H386 0.949 . S
C390 C398 1.574 . S
C390 C406 1.368 . S
H391 C399 0.950 . S
H392 C397 0.950 . S
H393 C398 0.949 . S
H394 C400 0.950 . S
H395 C401 0.950 . S
H396 C402 0.949 . S
C397 H392 0.950 . S
C397 C399 1.327 . S
C397 C403 1.429 . S
C398 C390 1.574 . S
C398 H393 0.949 . S
C398 C404 1.368 . S
C399 C383 1.349 . S
C399 H391 0.950 . S
C399 C397 1.327 . S
C400 C388 1.349 . S
C400 H394 0.950 . S
C400 C401 1.327 . S
C401 H395 0.950 . S
C401 C400 1.327 . S
C401 C405 1.429 . S
C402 C385 1.574 . S
C402 H396 0.949 . S
C402 C406 1.368 . S
C403 C384 1.429 . S
C403 C397 1.429 . S
C403 C404 1.523 . S
C404 C385 1.368 . S
C404 C398 1.368 . S
C404 C403 1.523 . S
C405 C389 1.429 . S
C405 C401 1.429 . S
C405 C406 1.523 . S
C406 C390 1.368 . S
C406 C402 1.368 . S
C406 C405 1.523 . S
H407 C382 0.950 . S
H408 C384 0.950 . S
H409 C385 0.949 . S
H410 C387 0.950 . S
H411 C389 0.950 . S
C412 C413 1.349 . S
C412 C414 1.327 . S
C412 H437 0.950 . S
C413 C412 1.349 . S
C413 C429 1.349 . S
C414 C412 1.327 . S
C414 C433 1.429 . S
C414 H438 0.950 . S
C415 C432 1.574 . S
C415 C434 1.368 . S
C415 H439 0.949 . S
H416 C420 0.949 . S
C417 C418 1.349 . S
C417 C419 1.327 . S
C417 H440 0.950 . S
C418 C417 1.349 . S
C418 C430 1.349 . S
C419 C417 1.327 . S
C419 C435 1.429 . S
C419 H441 0.950 . S
C420 H416 0.949 . S
C420 C428 1.574 . S
C420 C436 1.368 . S
H421 C429 0.950 . S
H422 C427 0.950 . S
H423 C428 0.949 . S
H424 C430 0.950 . S
H425 C431 0.950 . S
H426 C432 0.949 . S
C427 H422 0.950 . S
C427 C429 1.327 . S
C427 C433 1.429 . S
C428 C420 1.574 . S
C428 H423 0.949 . S
C428 C434 1.368 . S
C429 C413 1.349 . S
C429 H421 0.950 . S
C429 C427 1.327 . S
C430 C418 1.349 . S
C430 H424 0.950 . S
C430 C431 1.327 . S
C431 H425 0.950 . S
C431 C430 1.327 . S
C431 C435 1.429 . S
C432 C415 1.574 . S
C432 H426 0.949 . S
C432 C436 1.368 . S
C433 C414 1.429 . S
C433 C427 1.429 . S
C433 C434 1.523 . S
C434 C415 1.368 . S
C434 C428 1.368 . S
C434 C433 1.523 . S
C435 C419 1.429 . S
C435 C431 1.429 . S
C435 C436 1.523 . S
C436 C420 1.368 . S
C436 C432 1.368 . S
C436 C435 1.523 . S
H437 C412 0.950 . S
H438 C414 0.950 . S
H439 C415 0.949 . S
H440 C417 0.950 . S
H441 C419 0.950 . S
C442 C443 1.349 . S
C442 C444 1.327 . S
C442 H467 0.950 . S
C443 C442 1.349 . S
C443 C459 1.349 . S
C444 C442 1.327 . S
C444 C463 1.429 . S
C444 H468 0.950 . S
C445 C462 1.574 . S
C445 C464 1.368 . S
C445 H469 0.949 . S
H446 C450 0.949 . S
C447 C448 1.349 . S
C447 C449 1.327 . S
C447 H470 0.950 . S
C448 C447 1.349 . S
C448 C460 1.349 . S
C449 C447 1.327 . S
C449 C465 1.429 . S
C449 H471 0.950 . S
C450 H446 0.949 . S
C450 C458 1.574 . S
C450 C466 1.368 . S
H451 C459 0.950 . S
H452 C457 0.950 . S
H453 C458 0.949 . S
H454 C460 0.950 . S
H455 C461 0.950 . S
H456 C462 0.949 . S
C457 H452 0.950 . S
C457 C459 1.327 . S
C457 C463 1.429 . S
C458 C450 1.574 . S
C458 H453 0.949 . S
C458 C464 1.368 . S
C459 C443 1.349 . S
C459 H451 0.950 . S
C459 C457 1.327 . S
C460 C448 1.349 . S
C460 H454 0.950 . S
C460 C461 1.327 . S
C461 H455 0.950 . S
C461 C460 1.327 . S
C461 C465 1.429 . S
C462 C445 1.574 . S
C462 H456 0.949 . S
C462 C466 1.368 . S
C463 C444 1.429 . S
C463 C457 1.429 . S
C463 C464 1.523 . S
C464 C445 1.368 . S
C464 C458 1.368 . S
C464 C463 1.523 . S
C465 C449 1.429 . S
C465 C461 1.429 . S
C465 C466 1.523 . S
C466 C450 1.368 . S
C466 C462 1.368 . S
C466 C465 1.523 . S
H467 C442 0.950 . S
H468 C444 0.950 . S
H469 C445 0.949 . S
H470 C447 0.950 . S
H471 C449 0.950 . S
C472 C473 1.349 . S
C472 C474 1.327 . S
C472 H497 0.950 . S
C473 C472 1.349 . S
C473 C489 1.349 1_455 S
C474 C472 1.327 . S
C474 C493 1.429 . S
C474 H498 0.950 . S
C475 C492 1.533 1_545 S
C475 C494 1.406 1_655 S
C475 H499 0.954 . S
H476 C480 0.954 . S
C477 C478 1.349 1_655 S
C477 C479 1.327 . S
C477 H500 0.950 . S
C478 C477 1.349 1_455 S
C478 C490 1.349 . S
C479 C477 1.327 . S
C479 C495 1.429 1_655 S
C479 H501 0.950 . S
C480 H476 0.954 . S
C480 C488 1.533 1_565 S
C480 C496 1.406 . S
H481 C489 0.950 . S
H482 C487 0.950 . S
H483 C488 0.949 . S
H484 C490 0.950 . S
H485 C491 0.950 . S
H486 C492 0.949 . S
C487 H482 0.950 . S
C487 C489 1.327 . S
C487 C493 1.429 1_655 S
C488 C480 1.533 1_545 S
C488 H483 0.949 . S
C488 C494 1.368 1_556 S
C489 C473 1.349 1_655 S
C489 H481 0.950 . S
C489 C487 1.327 . S
C490 C478 1.349 . S
C490 H484 0.950 . S
C490 C491 1.327 . S
C491 H485 0.950 . S
C491 C490 1.327 . S
C491 C495 1.429 . S
C492 C475 1.533 1_565 S
C492 H486 0.949 . S
C492 C496 1.368 1_654 S
C493 C474 1.429 . S
C493 C487 1.429 1_455 S
C493 C494 1.523 . S
C494 C475 1.406 1_455 S
C494 C488 1.368 1_554 S
C494 C493 1.523 . S
C495 C479 1.429 1_455 S
C495 C491 1.429 . S
C495 C496 1.523 . S
C496 C480 1.406 . S
C496 C492 1.368 1_456 S
C496 C495 1.523 . S
H497 C472 0.950 . S
H498 C474 0.950 . S
H499 C475 0.954 . S
H500 C477 0.950 . S
H501 C479 0.950 . S
C502 C503 1.349 . S
C502 C504 1.327 . S
C502 H527 0.950 . S
C503 C502 1.349 . S
C503 C519 1.349 1_455 S
C504 C502 1.327 . S
C504 C523 1.429 . S
C504 H528 0.950 . S
C505 C522 1.567 1_556 S
C505 C524 1.374 1_655 S
C505 H529 0.949 . S
H506 C510 0.949 . S
C507 C508 1.349 1_655 S
C507 C509 1.327 . S
C507 H530 0.950 . S
C508 C507 1.349 1_455 S
C508 C520 1.349 . S
C509 C507 1.327 . S
C509 C525 1.429 1_655 S
C509 H531 0.950 . S
C510 H506 0.949 . S
C510 C518 1.567 1_554 S
C510 C526 1.374 . S
H511 C519 0.950 . S
H512 C517 0.950 . S
H513 C518 0.949 . S
H514 C520 0.950 . S
H515 C521 0.950 . S
H516 C522 0.949 . S
C517 H512 0.950 . S
C517 C519 1.327 . S
C517 C523 1.429 1_655 S
C518 C510 1.567 1_556 S
C518 H513 0.949 . S
C518 C524 1.368 . S
C519 C503 1.349 1_655 S
C519 H511 0.950 . S
C519 C517 1.327 . S
C520 C508 1.349 . S
C520 H514 0.950 . S
C520 C521 1.327 . S
C521 H515 0.950 . S
C521 C520 1.327 . S
C521 C525 1.429 . S
C522 C505 1.567 1_554 S
C522 H516 0.949 . S
C522 C526 1.368 1_655 S
C523 C504 1.429 . S
C523 C517 1.429 1_455 S
C523 C524 1.523 . S
C524 C505 1.374 1_455 S
C524 C518 1.368 . S
C524 C523 1.523 . S
C525 C509 1.429 1_455 S
C525 C521 1.429 . S
C525 C526 1.523 . S
C526 C510 1.374 . S
C526 C522 1.368 1_455 S
C526 C525 1.523 . S
H527 C502 0.950 . S
H528 C504 0.950 . S
H529 C505 0.949 . S
H530 C507 0.950 . S
H531 C509 0.950 . S
C532 C533 1.349 . S
C532 C534 1.327 . S
C532 H557 0.950 . S
C533 C532 1.349 . S
C533 C549 1.349 . S
C534 C532 1.327 . S
C534 C553 1.429 . S
C534 H558 0.950 . S
C535 C552 1.574 . S
C535 C554 1.368 . S
C535 H559 0.949 . S
H536 C540 0.949 . S
C537 C538 1.349 . S
C537 C539 1.327 . S
C537 H560 0.950 . S
C538 C537 1.349 . S
C538 C550 1.349 . S
C539 C537 1.327 . S
C539 C555 1.429 . S
C539 H561 0.950 . S
C540 H536 0.949 . S
C540 C548 1.574 . S
C540 C556 1.368 . S
H541 C549 0.950 . S
H542 C547 0.950 . S
H543 C548 0.949 . S
H544 C550 0.950 . S
H545 C551 0.950 . S
H546 C552 0.949 . S
C547 H542 0.950 . S
C547 C549 1.327 . S
C547 C553 1.429 . S
C548 C540 1.574 . S
C548 H543 0.949 . S
C548 C554 1.368 . S
C549 C533 1.349 . S
C549 H541 0.950 . S
C549 C547 1.327 . S
C550 C538 1.349 . S
C550 H544 0.950 . S
C550 C551 1.327 . S
C551 H545 0.950 . S
C551 C550 1.327 . S
C551 C555 1.429 . S
C552 C535 1.574 . S
C552 H546 0.949 . S
C552 C556 1.368 . S
C553 C534 1.429 . S
C553 C547 1.429 . S
C553 C554 1.523 . S
C554 C535 1.368 . S
C554 C548 1.368 . S
C554 C553 1.523 . S
C555 C539 1.429 . S
C555 C551 1.429 . S
C555 C556 1.523 . S
C556 C540 1.368 . S
C556 C552 1.368 . S
C556 C555 1.523 . S
H557 C532 0.950 . S
H558 C534 0.950 . S
H559 C535 0.949 . S
H560 C537 0.950 . S
H561 C539 0.950 . S
C562 C563 1.349 . S
C562 C564 1.327 . S
C562 H587 0.950 . S
C563 C562 1.349 . S
C563 C579 1.349 . S
C564 C562 1.327 . S
C564 C583 1.429 . S
C564 H588 0.950 . S
C565 C582 1.574 . S
C565 C584 1.368 . S
C565 H589 0.949 . S
H566 C570 0.949 . S
C567 C568 1.349 . S
C567 C569 1.327 . S
C567 H590 0.950 . S
C568 C567 1.349 . S
C568 C580 1.349 . S
C569 C567 1.327 . S
C569 C585 1.429 . S
C569 H591 0.950 . S
C570 H566 0.949 . S
C570 C578 1.574 . S
C570 C586 1.368 . S
H571 C579 0.950 . S
H572 C577 0.950 . S
H573 C578 0.949 . S
H574 C580 0.950 . S
H575 C581 0.950 . S
H576 C582 0.949 . S
C577 H572 0.950 . S
C577 C579 1.327 . S
C577 C583 1.429 . S
C578 C570 1.574 . S
C578 H573 0.949 . S
C578 C584 1.368 1_545 S
C579 C563 1.349 . S
C579 H571 0.950 . S
C579 C577 1.327 . S
C580 C568 1.349 . S
C580 H574 0.950 . S
C580 C581 1.327 . S
C581 H575 0.950 . S
C581 C580 1.327 . S
C581 C585 1.429 . S
C582 C565 1.574 . S
C582 H576 0.949 . S
C582 C586 1.368 1_565 S
C583 C564 1.429 . S
C583 C577 1.429 . S
C583 C584 1.523 . S
C584 C565 1.368 . S
C584 C578 1.368 1_565 S
C584 C583 1.523 . S
C585 C569 1.429 . S
C585 C581 1.429 . S
C585 C586 1.523 . S
C586 C570 1.368 . S
C586 C582 1.368 1_545 S
C586 C585 1.523 . S
H587 C562 0.950 . S
H588 C564 0.950 . S
H589 C565 0.949 . S
H590 C567 0.950 . S
H591 C569 0.950 . S
C113 C23 1.393 . S
C118 C9 1.393 . S
C143 C37 1.393 . S
C148 C51 1.393 . S
C173 C65 1.393 . S
C178 C79 1.393 . S
C203 C93 1.393 . S
C208 C107 1.393 . S
C233 C101 1.422 . S
C238 C3 1.422 . S
C263 C87 1.422 . S
C268 C17 1.422 . S
C293 C31 1.422 . S
C298 C73 1.422 . S
C323 C59 1.422 . S
C328 C45 1.422 . S
C353 C77 1.328 . S
C358 C35 1.328 . S
C383 C63 1.328 . S
C388 C49 1.328 . S
C413 C105 1.328 . S
C418 C7 1.328 . S
C443 C21 1.328 . S
C448 C91 1.328 . S
C473 C8 1.333 . S
C478 C36 1.333 . S
C503 C50 1.332 . S
C508 C22 1.332 . S
C533 C92 1.333 . S
C538 C64 1.333 . S
C563 C78 1.333 . S
C568 C106 1.333 . S
