# Generated by pormake.
# Topology gme, (4)-cn, num edge types: 1
# Building blocks:
#     Node 0, Type 0, BuildingBlock: AZAVOO_clean_sbu_0, # of connection points: 4
#     Node 1, Type 0, BuildingBlock: AZAVOO_clean_sbu_0, # of connection points: 4
#     Node 2, Type 0, BuildingBlock: AZAVOO_clean_sbu_0, # of connection points: 4
#     Node 3, Type 0, BuildingBlock: AZAVOO_clean_sbu_0, # of connection points: 4
#     Node 4, Type 0, BuildingBlock: AZAVOO_clean_sbu_0, # of connection points: 4
#     Node 5, Type 0, BuildingBlock: AZAVOO_clean_sbu_0, # of connection points: 4
#     Node 6, Type 0, BuildingBlock: AZAVOO_clean_sbu_0, # of connection points: 4
#     Node 7, Type 0, BuildingBlock: AZAVOO_clean_sbu_0, # of connection points: 4
#     Node 8, Type 0, BuildingBlock: AZAVOO_clean_sbu_0, # of connection points: 4
#     Node 9, Type 0, BuildingBlock: AZAVOO_clean_sbu_0, # of connection points: 4
#     Node 10, Type 0, BuildingBlock: AZAVOO_clean_sbu_0, # of connection points: 4
#     Node 11, Type 0, BuildingBlock: AZAVOO_clean_sbu_0, # of connection points: 4
#     Node 12, Type 0, BuildingBlock: AZAVOO_clean_sbu_0, # of connection points: 4
#     Node 13, Type 0, BuildingBlock: AZAVOO_clean_sbu_0, # of connection points: 4
#     Node 14, Type 0, BuildingBlock: AZAVOO_clean_sbu_0, # of connection points: 4
#     Node 15, Type 0, BuildingBlock: AZAVOO_clean_sbu_0, # of connection points: 4
#     Node 16, Type 0, BuildingBlock: AZAVOO_clean_sbu_0, # of connection points: 4
#     Node 17, Type 0, BuildingBlock: AZAVOO_clean_sbu_0, # of connection points: 4
#     Node 18, Type 0, BuildingBlock: AZAVOO_clean_sbu_0, # of connection points: 4
#     Node 19, Type 0, BuildingBlock: AZAVOO_clean_sbu_0, # of connection points: 4
#     Node 20, Type 0, BuildingBlock: AZAVOO_clean_sbu_0, # of connection points: 4
#     Node 21, Type 0, BuildingBlock: AZAVOO_clean_sbu_0, # of connection points: 4
#     Node 22, Type 0, BuildingBlock: AZAVOO_clean_sbu_0, # of connection points: 4
#     Node 23, Type 0, BuildingBlock: AZAVOO_clean_sbu_0, # of connection points: 4
#     Edge 24, Type (0, 0), BuildingBlock: UVAHIK_clean_linker_0, # of connection points: 2
#     Edge 25, Type (0, 0), BuildingBlock: UVAHIK_clean_linker_0, # of connection points: 2
#     Edge 26, Type (0, 0), BuildingBlock: UVAHIK_clean_linker_0, # of connection points: 2
#     Edge 27, Type (0, 0), BuildingBlock: UVAHIK_clean_linker_0, # of connection points: 2
#     Edge 28, Type (0, 0), BuildingBlock: UVAHIK_clean_linker_0, # of connection points: 2
#     Edge 29, Type (0, 0), BuildingBlock: UVAHIK_clean_linker_0, # of connection points: 2
#     Edge 30, Type (0, 0), BuildingBlock: UVAHIK_clean_linker_0, # of connection points: 2
#     Edge 31, Type (0, 0), BuildingBlock: UVAHIK_clean_linker_0, # of connection points: 2
#     Edge 32, Type (0, 0), BuildingBlock: UVAHIK_clean_linker_0, # of connection points: 2
#     Edge 33, Type (0, 0), BuildingBlock: UVAHIK_clean_linker_0, # of connection points: 2
#     Edge 34, Type (0, 0), BuildingBlock: UVAHIK_clean_linker_0, # of connection points: 2
#     Edge 35, Type (0, 0), BuildingBlock: UVAHIK_clean_linker_0, # of connection points: 2
#     Edge 36, Type (0, 0), BuildingBlock: UVAHIK_clean_linker_0, # of connection points: 2
#     Edge 37, Type (0, 0), BuildingBlock: UVAHIK_clean_linker_0, # of connection points: 2
#     Edge 38, Type (0, 0), BuildingBlock: UVAHIK_clean_linker_0, # of connection points: 2
#     Edge 39, Type (0, 0), BuildingBlock: UVAHIK_clean_linker_0, # of connection points: 2
#     Edge 40, Type (0, 0), BuildingBlock: UVAHIK_clean_linker_0, # of connection points: 2
#     Edge 41, Type (0, 0), BuildingBlock: UVAHIK_clean_linker_0, # of connection points: 2
#     Edge 42, Type (0, 0), BuildingBlock: UVAHIK_clean_linker_0, # of connection points: 2
#     Edge 43, Type (0, 0), BuildingBlock: UVAHIK_clean_linker_0, # of connection points: 2
#     Edge 44, Type (0, 0), BuildingBlock: UVAHIK_clean_linker_0, # of connection points: 2
#     Edge 45, Type (0, 0), BuildingBlock: UVAHIK_clean_linker_0, # of connection points: 2
#     Edge 46, Type (0, 0), BuildingBlock: UVAHIK_clean_linker_0, # of connection points: 2
#     Edge 47, Type (0, 0), BuildingBlock: UVAHIK_clean_linker_0, # of connection points: 2
#     Edge 48, Type (0, 0), BuildingBlock: UVAHIK_clean_linker_0, # of connection points: 2
#     Edge 49, Type (0, 0), BuildingBlock: UVAHIK_clean_linker_0, # of connection points: 2
#     Edge 50, Type (0, 0), BuildingBlock: UVAHIK_clean_linker_0, # of connection points: 2
#     Edge 51, Type (0, 0), BuildingBlock: UVAHIK_clean_linker_0, # of connection points: 2
#     Edge 52, Type (0, 0), BuildingBlock: UVAHIK_clean_linker_0, # of connection points: 2
#     Edge 53, Type (0, 0), BuildingBlock: UVAHIK_clean_linker_0, # of connection points: 2
#     Edge 54, Type (0, 0), BuildingBlock: UVAHIK_clean_linker_0, # of connection points: 2
#     Edge 55, Type (0, 0), BuildingBlock: UVAHIK_clean_linker_0, # of connection points: 2
#     Edge 56, Type (0, 0), BuildingBlock: UVAHIK_clean_linker_0, # of connection points: 2
#     Edge 57, Type (0, 0), BuildingBlock: UVAHIK_clean_linker_0, # of connection points: 2
#     Edge 58, Type (0, 0), BuildingBlock: UVAHIK_clean_linker_0, # of connection points: 2
#     Edge 59, Type (0, 0), BuildingBlock: UVAHIK_clean_linker_0, # of connection points: 2
#     Edge 60, Type (0, 0), BuildingBlock: UVAHIK_clean_linker_0, # of connection points: 2
#     Edge 61, Type (0, 0), BuildingBlock: UVAHIK_clean_linker_0, # of connection points: 2
#     Edge 62, Type (0, 0), BuildingBlock: UVAHIK_clean_linker_0, # of connection points: 2
#     Edge 63, Type (0, 0), BuildingBlock: UVAHIK_clean_linker_0, # of connection points: 2
#     Edge 64, Type (0, 0), BuildingBlock: UVAHIK_clean_linker_0, # of connection points: 2
#     Edge 65, Type (0, 0), BuildingBlock: UVAHIK_clean_linker_0, # of connection points: 2
#     Edge 66, Type (0, 0), BuildingBlock: UVAHIK_clean_linker_0, # of connection points: 2
#     Edge 67, Type (0, 0), BuildingBlock: UVAHIK_clean_linker_0, # of connection points: 2
#     Edge 68, Type (0, 0), BuildingBlock: UVAHIK_clean_linker_0, # of connection points: 2
#     Edge 69, Type (0, 0), BuildingBlock: UVAHIK_clean_linker_0, # of connection points: 2
#     Edge 70, Type (0, 0), BuildingBlock: UVAHIK_clean_linker_0, # of connection points: 2
#     Edge 71, Type (0, 0), BuildingBlock: UVAHIK_clean_linker_0, # of connection points: 2
# Relax obj value: 0.171
# Max RMSD: 0.158
# Mean RMSD: 0.158
data_MOF--net-gme--node1-AZAVOO_clean_sbu_0--edge1-UVAHIK_clean_linker_0
_symmetry_space_group_name_H-M    P1
_symmetry_Int_Tables_number       1
_symmetry_cell_setting            triclinic
loop_
_symmetry_equiv_pos_as_xyz
'x, y, z'
_cell_length_a     82.976345
_cell_length_b     83.028267
_cell_length_c     61.446321
_cell_angle_alpha  90.036311
_cell_angle_beta   89.976811
_cell_angle_gamma 119.97607
loop_
_atom_site_label
_atom_site_type_symbol
_atom_site_fract_x
_atom_site_fract_y
_atom_site_fract_z
_atom_type_partial_charge
Mg0 Mg 0.43574 0.11737 0.08948 0.0
O1 O 0.46465 0.12126 0.09682 0.0
O2 O 0.47864 0.14436 0.12092 0.0
Mg3 Mg 0.45943 0.15596 0.1278 0.0
C4 C 0.4785 0.13172 0.10895 0.0
C5 C 0.43407 0.08408 0.06502 0.0
O6 O 0.43932 0.08188 0.08444 0.0
O7 O 0.44894 0.14279 0.06746 0.0
O8 O 0.46282 0.16551 0.09208 0.0
O9 O 0.42401 0.09834 0.11776 0.0
O10 O 0.43549 0.12874 0.11959 0.0
C11 C 0.45883 0.15996 0.07238 0.0
C12 C 0.42876 0.113 0.12948 0.0
O13 O 0.43211 0.09809 0.06149 0.0
Mg14 Mg 0.31832 0.43187 0.58557 0.0
O15 O 0.3441 0.46066 0.59124 0.0
O16 O 0.33589 0.47588 0.61469 0.0
Mg17 Mg 0.30516 0.45778 0.62268 0.0
C18 C 0.34801 0.47498 0.60276 0.0
C19 C 0.33024 0.40995 0.55798 0.0
O20 O 0.319 0.39821 0.57268 0.0
O21 O 0.30598 0.44455 0.56288 0.0
O22 O 0.29811 0.45967 0.5869 0.0
O23 O 0.32599 0.42103 0.61441 0.0
O24 O 0.30758 0.43315 0.61577 0.0
C25 C 0.29902 0.45481 0.5674 0.0
C26 C 0.31659 0.42654 0.62594 0.0
O27 O 0.333 0.42643 0.55796 0.0
Mg28 Mg 0.88179 0.31897 0.08671 0.0
O29 O 0.87805 0.34461 0.08878 0.0
O30 O 0.85351 0.33698 0.11024 0.0
Mg31 Mg 0.8414 0.30698 0.12121 0.0
C32 C 0.86684 0.34866 0.0983 0.0
C33 C 0.91683 0.33029 0.06141 0.0
O34 O 0.91718 0.31995 0.07738 0.0
O35 O 0.85748 0.30515 0.06296 0.0
O36 O 0.83373 0.29809 0.08557 0.0
O37 O 0.8993 0.32831 0.11649 0.0
O38 O 0.86882 0.30962 0.11677 0.0
C39 C 0.8401 0.29817 0.0666 0.0
C40 C 0.88404 0.31923 0.12749 0.0
O41 O 0.90283 0.33254 0.05966 0.0
Mg42 Mg 0.56145 0.87971 0.59067 0.0
O43 O 0.53185 0.8747 0.59616 0.0
O44 O 0.51714 0.85044 0.61858 0.0
Mg45 Mg 0.53656 0.83924 0.62613 0.0
C46 C 0.5175 0.86342 0.6071 0.0
C47 C 0.56333 0.91355 0.5672 0.0
O48 O 0.55669 0.91473 0.58618 0.0
O49 O 0.55009 0.8554 0.56701 0.0
O50 O 0.53529 0.8315 0.58995 0.0
O51 O 0.57115 0.89744 0.62021 0.0
O52 O 0.56037 0.86712 0.62034 0.0
C53 C 0.54026 0.838 0.57072 0.0
C54 C 0.56613 0.88233 0.63113 0.0
O55 O 0.56611 0.90006 0.56362 0.0
Mg56 Mg 0.67893 0.56608 0.08914 0.0
O57 O 0.65367 0.53657 0.09267 0.0
O58 O 0.66308 0.51976 0.11163 0.0
Mg59 Mg 0.69369 0.53798 0.1199 0.0
C60 C 0.65051 0.52134 0.1015 0.0
C61 C 0.66387 0.58838 0.06702 0.0
O62 O 0.67337 0.59886 0.08358 0.0
O63 O 0.69134 0.55601 0.06309 0.0
O64 O 0.69985 0.53907 0.08331 0.0
O65 O 0.67135 0.57395 0.12032 0.0
O66 O 0.69032 0.56255 0.11774 0.0
C67 C 0.69838 0.5455 0.065 0.0
C68 C 0.68114 0.56783 0.12986 0.0
O69 O 0.66344 0.57304 0.06403 0.0
Mg70 Mg 0.11569 0.67573 0.59007 0.0
O71 O 0.11864 0.64988 0.59533 0.0
O72 O 0.14307 0.65822 0.61721 0.0
Mg73 Mg 0.15636 0.68911 0.62454 0.0
C74 C 0.12945 0.646 0.60608 0.0
C75 C 0.08024 0.66292 0.56496 0.0
O76 O 0.07986 0.67375 0.58033 0.0
O77 O 0.13957 0.6873 0.56579 0.0
O78 O 0.16361 0.69532 0.58823 0.0
O79 O 0.09861 0.66889 0.62006 0.0
O80 O 0.12918 0.68697 0.61951 0.0
C81 C 0.15695 0.69411 0.56915 0.0
C82 C 0.11404 0.67837 0.63065 0.0
O83 O 0.09429 0.66072 0.56367 0.0
Mg84 Mg 0.88468 0.56488 0.405 0.0
O85 O 0.87873 0.5347 0.40275 0.0
O86 O 0.8534 0.51885 0.38212 0.0
Mg87 Mg 0.84274 0.53824 0.37218 0.0
C88 C 0.86666 0.51968 0.39351 0.0
C89 C 0.91913 0.56791 0.42842 0.0
O90 O 0.9197 0.56002 0.41011 0.0
O91 O 0.86128 0.55605 0.42967 0.0
O92 O 0.83645 0.54012 0.40825 0.0
O93 O 0.90129 0.5719 0.37455 0.0
O94 O 0.87111 0.56186 0.3755 0.0
C95 C 0.84371 0.54642 0.4269 0.0
C96 C 0.88585 0.56651 0.36416 0.0
O97 O 0.90586 0.57111 0.43162 0.0
Mg98 Mg 0.31694 0.88868 0.90424 0.0
O99 O 0.34091 0.88252 0.89987 0.0
O100 O 0.33046 0.85729 0.87882 0.0
Mg101 Mg 0.29999 0.84668 0.87109 0.0
C102 C 0.3434 0.87046 0.88978 0.0
C103 C 0.33401 0.9256 0.92692 0.0
O104 O 0.32464 0.92702 0.91051 0.0
O105 O 0.30342 0.86544 0.92929 0.0
O106 O 0.29364 0.84065 0.90756 0.0
O107 O 0.32535 0.9051 0.87367 0.0
O108 O 0.30494 0.87503 0.87509 0.0
C109 C 0.29541 0.84789 0.9264 0.0
C110 C 0.31473 0.8897 0.86352 0.0
O111 O 0.33352 0.91023 0.92996 0.0
Mg112 Mg 0.43279 0.31733 0.39882 0.0
O113 O 0.46275 0.34183 0.39589 0.0
O114 O 0.47842 0.33293 0.37408 0.0
Mg115 Mg 0.459 0.30294 0.36383 0.0
C116 C 0.47764 0.3451 0.38603 0.0
C117 C 0.43007 0.34834 0.42334 0.0
O118 O 0.43787 0.35693 0.40507 0.0
O119 O 0.44262 0.30284 0.4223 0.0
O120 O 0.45808 0.29429 0.3996 0.0
O121 O 0.42462 0.32692 0.36931 0.0
O122 O 0.43516 0.30717 0.36873 0.0
C123 C 0.45224 0.29502 0.41864 0.0
C124 C 0.42987 0.31712 0.35815 0.0
O125 O 0.42692 0.33186 0.42626 0.0
Mg126 Mg 0.11236 0.4369 0.90035 0.0
O127 O 0.11309 0.46487 0.89726 0.0
O128 O 0.13525 0.48252 0.87329 0.0
Mg129 Mg 0.14981 0.4667 0.86275 0.0
C130 C 0.12216 0.47986 0.88633 0.0
C131 C 0.07805 0.4302 0.92617 0.0
O132 O 0.07598 0.43695 0.90772 0.0
O133 O 0.13791 0.45061 0.92218 0.0
O134 O 0.15992 0.46785 0.89792 0.0
O135 O 0.09324 0.42527 0.87199 0.0
O136 O 0.12393 0.44067 0.86937 0.0
C137 C 0.15484 0.462 0.91735 0.0
C138 C 0.10795 0.43267 0.85987 0.0
O139 O 0.09253 0.4289 0.92898 0.0
Mg140 Mg 0.67349 0.10849 0.40425 0.0
O141 O 0.64829 0.11257 0.399 0.0
O142 O 0.65725 0.13666 0.37644 0.0
Mg143 Mg 0.68794 0.14861 0.36857 0.0
C144 C 0.64484 0.12355 0.38799 0.0
C145 C 0.65971 0.07339 0.42982 0.0
O146 O 0.67014 0.0725 0.41429 0.0
O147 O 0.68635 0.13291 0.4278 0.0
O148 O 0.69496 0.15657 0.40462 0.0
O149 O 0.66562 0.09071 0.37475 0.0
O150 O 0.68474 0.1211 0.37446 0.0
C151 C 0.69379 0.15027 0.42388 0.0
C152 C 0.67556 0.1058 0.36376 0.0
O153 O 0.65818 0.08783 0.43119 0.0
Mg154 Mg 0.56217 0.67959 0.90183 0.0
O155 O 0.53335 0.65345 0.89855 0.0
O156 O 0.51563 0.66082 0.87818 0.0
Mg157 Mg 0.53313 0.69115 0.86799 0.0
C158 C 0.51792 0.64917 0.88935 0.0
C159 C 0.56803 0.6502 0.92566 0.0
O160 O 0.56144 0.64181 0.90694 0.0
O161 O 0.55062 0.69211 0.9259 0.0
O162 O 0.53372 0.69933 0.90388 0.0
O163 O 0.57148 0.67163 0.87196 0.0
O164 O 0.55851 0.6893 0.87209 0.0
C165 C 0.53998 0.69887 0.92274 0.0
C166 C 0.56491 0.68046 0.86115 0.0
O167 O 0.56956 0.66601 0.92896 0.0
Mg168 Mg 0.55794 0.88101 0.90573 0.0
O169 O 0.52839 0.87635 0.90122 0.0
O170 O 0.51288 0.85159 0.87966 0.0
Mg171 Mg 0.53182 0.83995 0.87145 0.0
C172 C 0.51369 0.8649 0.89093 0.0
C173 C 0.57911 0.91717 0.92947 0.0
O174 O 0.58993 0.91806 0.91334 0.0
O175 O 0.54713 0.8572 0.93009 0.0
O176 O 0.53176 0.83297 0.90768 0.0
O177 O 0.56695 0.89805 0.87563 0.0
O178 O 0.55603 0.86772 0.87623 0.0
C179 C 0.53723 0.83974 0.92672 0.0
C180 C 0.56173 0.88274 0.86507 0.0
O181 O 0.56361 0.90233 0.932 0.0
Mg182 Mg 0.67846 0.56172 0.40415 0.0
O183 O 0.65409 0.53164 0.40158 0.0
O184 O 0.66387 0.51571 0.38153 0.0
Mg185 Mg 0.69416 0.5349 0.37233 0.0
C186 C 0.65124 0.51661 0.39243 0.0
C187 C 0.66309 0.58332 0.42654 0.0
O188 O 0.67244 0.59361 0.4098 0.0
O189 O 0.69249 0.55288 0.42952 0.0
O190 O 0.70176 0.53696 0.40862 0.0
O191 O 0.66944 0.56869 0.37336 0.0
O192 O 0.68958 0.55867 0.37501 0.0
C193 C 0.7005 0.54328 0.42714 0.0
C194 C 0.67966 0.56332 0.36333 0.0
O195 O 0.66291 0.56813 0.42982 0.0
Mg196 Mg 0.11509 0.68409 0.90534 0.0
O197 O 0.11722 0.65758 0.90413 0.0
O198 O 0.14269 0.66396 0.88505 0.0
Mg199 Mg 0.15622 0.69401 0.87348 0.0
C200 C 0.12837 0.65278 0.89606 0.0
C201 C 0.07876 0.67223 0.92914 0.0
O202 O 0.07765 0.68124 0.91216 0.0
O203 O 0.13859 0.69708 0.93007 0.0
O204 O 0.16311 0.70343 0.90916 0.0
O205 O 0.0985 0.67534 0.87502 0.0
O206 O 0.12916 0.69283 0.87575 0.0
C207 C 0.15603 0.70365 0.92756 0.0
C208 C 0.11411 0.68371 0.86454 0.0
O209 O 0.09339 0.6712 0.9318 0.0
Mg210 Mg 0.42842 0.10872 0.40397 0.0
O211 O 0.45769 0.11275 0.39864 0.0
O212 O 0.47303 0.13703 0.3764 0.0
Mg213 Mg 0.45447 0.14926 0.36892 0.0
C214 C 0.47219 0.12377 0.38775 0.0
C215 C 0.40743 0.07286 0.42864 0.0
O216 O 0.3962 0.07165 0.41285 0.0
O217 O 0.44002 0.13286 0.42798 0.0
O218 O 0.45537 0.15671 0.40511 0.0
O219 O 0.41863 0.09138 0.37405 0.0
O220 O 0.43001 0.12179 0.37443 0.0
C221 C 0.45014 0.15024 0.42429 0.0
C222 C 0.42394 0.10666 0.36339 0.0
O223 O 0.42303 0.08769 0.43049 0.0
Mg224 Mg 0.31806 0.43318 0.90008 0.0
O225 O 0.3443 0.46149 0.89479 0.0
O226 O 0.33829 0.47742 0.86993 0.0
Mg227 Mg 0.30746 0.46015 0.86154 0.0
C228 C 0.34942 0.47584 0.88292 0.0
C229 C 0.32519 0.41225 0.93706 0.0
O230 O 0.30844 0.39941 0.93097 0.0
O231 O 0.30607 0.44682 0.92184 0.0
O232 O 0.30005 0.46279 0.897 0.0
O233 O 0.32563 0.4217 0.87166 0.0
O234 O 0.30798 0.43464 0.86956 0.0
C235 C 0.3001 0.4578 0.91668 0.0
C236 C 0.31665 0.42749 0.85979 0.0
O237 O 0.33257 0.42815 0.92815 0.0
Mg238 Mg 0.87981 0.3172 0.40192 0.0
O239 O 0.87517 0.34227 0.40014 0.0
O240 O 0.85063 0.33426 0.37855 0.0
Mg241 Mg 0.83931 0.30439 0.36737 0.0
C242 C 0.86375 0.34604 0.39064 0.0
C243 C 0.9152 0.32986 0.42666 0.0
O244 O 0.91599 0.32019 0.41017 0.0
O245 O 0.85553 0.30268 0.42553 0.0
O246 O 0.83166 0.29518 0.40296 0.0
O247 O 0.89746 0.32724 0.37237 0.0
O248 O 0.86711 0.30786 0.37169 0.0
C249 C 0.83812 0.29531 0.4219 0.0
C250 C 0.88235 0.31794 0.36117 0.0
O251 O 0.90067 0.33111 0.42909 0.0
Mg252 Mg 0.10929 0.42799 0.58604 0.0
O253 O 0.11419 0.45737 0.59259 0.0
O254 O 0.13699 0.47103 0.6171 0.0
Mg255 Mg 0.14789 0.4513 0.6244 0.0
C256 C 0.1247 0.47117 0.60475 0.0
C257 C 0.07668 0.42736 0.56126 0.0
O258 O 0.07504 0.43346 0.58039 0.0
O259 O 0.13476 0.44003 0.56403 0.0
O260 O 0.15739 0.45403 0.58874 0.0
O261 O 0.0902 0.41763 0.61444 0.0
O262 O 0.12042 0.42777 0.6163 0.0
C263 C 0.15193 0.44978 0.56904 0.0
C264 C 0.10479 0.42206 0.62616 0.0
O265 O 0.09019 0.42454 0.55793 0.0
Mg266 Mg 0.67613 0.11033 0.08958 0.0
O267 O 0.65223 0.11617 0.09628 0.0
O268 O 0.66261 0.13992 0.11964 0.0
Mg269 Mg 0.69314 0.15005 0.12654 0.0
C270 C 0.64968 0.12743 0.10796 0.0
C271 C 0.64337 0.07759 0.06565 0.0
O272 O 0.63591 0.07614 0.08493 0.0
O273 O 0.68967 0.13517 0.06675 0.0
O274 O 0.69965 0.15862 0.09056 0.0
O275 O 0.66783 0.09186 0.11847 0.0
O276 O 0.68814 0.12199 0.11944 0.0
C277 C 0.6978 0.15251 0.07108 0.0
C278 C 0.6784 0.10659 0.12979 0.0
O279 O 0.65973 0.09089 0.06205 0.0
Mg280 Mg 0.56228 0.67796 0.58659 0.0
O281 O 0.53355 0.65212 0.59217 0.0
O282 O 0.51753 0.66014 0.61459 0.0
Mg283 Mg 0.53514 0.69107 0.6218 0.0
C284 C 0.51895 0.64805 0.60319 0.0
C285 C 0.56654 0.64722 0.56362 0.0
O286 O 0.5605 0.6396 0.58282 0.0
O287 O 0.54962 0.6895 0.56277 0.0
O288 O 0.53362 0.69726 0.58559 0.0
O289 O 0.5729 0.67118 0.61635 0.0
O290 O 0.56024 0.68912 0.61615 0.0
C291 C 0.53894 0.69614 0.5664 0.0
C292 C 0.56693 0.68057 0.62711 0.0
O293 O 0.56822 0.66301 0.55969 0.0
Mg294 Mg 0.88332 0.56569 0.08953 0.0
O295 O 0.87932 0.53616 0.09122 0.0
O296 O 0.85436 0.51904 0.11199 0.0
Mg297 Mg 0.84196 0.53681 0.12232 0.0
C298 C 0.86791 0.5208 0.10039 0.0
C299 C 0.91873 0.57157 0.06594 0.0
O300 O 0.92009 0.56426 0.08432 0.0
O301 O 0.85974 0.55573 0.06503 0.0
O302 O 0.8352 0.53802 0.08623 0.0
O303 O 0.9001 0.57335 0.11982 0.0
O304 O 0.86961 0.5616 0.11912 0.0
C305 C 0.84234 0.54486 0.06771 0.0
C306 C 0.88458 0.567 0.13033 0.0
O307 O 0.90461 0.57339 0.06272 0.0
Mg308 Mg 0.31677 0.87969 0.5893 0.0
O309 O 0.34142 0.87488 0.59528 0.0
O310 O 0.3319 0.85099 0.61828 0.0
Mg311 Mg 0.30129 0.8399 0.62582 0.0
C312 C 0.3445 0.86379 0.60658 0.0
C313 C 0.34851 0.91333 0.56529 0.0
O314 O 0.35632 0.91496 0.58438 0.0
O315 O 0.30384 0.85496 0.56624 0.0
O316 O 0.29476 0.83148 0.58981 0.0
O317 O 0.32473 0.89795 0.61838 0.0
O318 O 0.30527 0.86762 0.61918 0.0
C319 C 0.29628 0.83763 0.5704 0.0
C320 C 0.31464 0.88304 0.62963 0.0
O321 O 0.33237 0.8996 0.56182 0.0
Mg322 Mg 0.43435 0.31984 0.08397 0.0
O323 O 0.46248 0.34595 0.09139 0.0
O324 O 0.47741 0.33834 0.116 0.0
Mg325 Mg 0.46044 0.3071 0.1215 0.0
C326 C 0.47629 0.35027 0.104 0.0
C327 C 0.42927 0.3502 0.06299 0.0
O328 O 0.43385 0.35599 0.08315 0.0
O329 O 0.44885 0.30951 0.0611 0.0
O330 O 0.46421 0.30221 0.08543 0.0
O331 O 0.42188 0.3254 0.11305 0.0
O332 O 0.4352 0.30809 0.11369 0.0
C333 C 0.45985 0.30344 0.06578 0.0
C334 C 0.4277 0.3161 0.12419 0.0
O335 O 0.42907 0.33542 0.05712 0.0
C336 C 0.42867 0.12332 0.32804 0.0
C337 C 0.42421 0.10692 0.33937 0.0
C338 C 0.42906 0.12364 0.30533 0.0
C339 C 0.41162 0.09328 0.25715 0.0
H340 H 0.45161 0.13576 0.22765 0.0
C341 C 0.42309 0.09518 0.16417 0.0
C342 C 0.42781 0.11191 0.15347 0.0
C343 C 0.42251 0.09426 0.18688 0.0
C344 C 0.44024 0.12389 0.23565 0.0
H345 H 0.4165 0.07795 0.3358 0.0
H346 H 0.41731 0.07856 0.2961 0.0
H347 H 0.45091 0.1347 0.26728 0.0
H348 H 0.43513 0.14068 0.15816 0.0
H349 H 0.43407 0.13907 0.19773 0.0
H350 H 0.40094 0.0825 0.22546 0.0
C351 C 0.42035 0.09112 0.30479 0.0
C352 C 0.43985 0.12328 0.25834 0.0
C353 C 0.41998 0.0908 0.32753 0.0
C354 C 0.43172 0.12765 0.16591 0.0
C355 C 0.43115 0.12675 0.18859 0.0
C356 C 0.41202 0.09389 0.23442 0.0
C357 C 0.42495 0.10757 0.29346 0.0
C358 C 0.42549 0.10801 0.26934 0.0
C359 C 0.42663 0.11007 0.19933 0.0
C360 C 0.42629 0.10924 0.22344 0.0
H361 H 0.43174 0.13591 0.33667 0.0
H362 H 0.43234 0.13645 0.29707 0.0
H363 H 0.40025 0.08144 0.26516 0.0
H364 H 0.42002 0.08281 0.15503 0.0
H365 H 0.41915 0.08126 0.19469 0.0
C366 C 0.30613 0.43146 0.66224 0.0
C367 C 0.31729 0.42654 0.64995 0.0
C368 C 0.30697 0.43174 0.68492 0.0
C369 C 0.32025 0.41312 0.73156 0.0
H370 H 0.32003 0.45371 0.76258 0.0
C371 C 0.32922 0.42219 0.82509 0.0
C372 C 0.31741 0.42722 0.83579 0.0
C373 C 0.33005 0.42227 0.80235 0.0
C374 C 0.31994 0.4422 0.75415 0.0
H375 H 0.33795 0.41785 0.65179 0.0
H376 H 0.33945 0.4184 0.69148 0.0
H377 H 0.31991 0.45354 0.72293 0.0
H378 H 0.29684 0.43575 0.83107 0.0
H379 H 0.29826 0.43584 0.79157 0.0
H380 H 0.32013 0.40172 0.76285 0.0
C381 C 0.32998 0.42194 0.68353 0.0
C382 C 0.31987 0.4421 0.73146 0.0
C383 C 0.32917 0.4217 0.66081 0.0
C384 C 0.30631 0.4321 0.82335 0.0
C385 C 0.30715 0.4322 0.80069 0.0
C386 C 0.32031 0.41321 0.7543 0.0
C387 C 0.31894 0.42705 0.69581 0.0
C388 C 0.31982 0.42747 0.71991 0.0
C389 C 0.31909 0.42738 0.78993 0.0
C390 C 0.31995 0.42766 0.76583 0.0
H391 H 0.29664 0.435 0.65438 0.0
H392 H 0.29805 0.43541 0.69394 0.0
H393 H 0.32003 0.40156 0.7231 0.0
H394 H 0.33795 0.41836 0.83425 0.0
H395 H 0.33948 0.41862 0.79451 0.0
C396 C 0.86761 0.30948 0.1633 0.0
C397 C 0.88396 0.32061 0.15144 0.0
C398 C 0.86761 0.3105 0.18597 0.0
C399 C 0.89893 0.32395 0.23315 0.0
H400 H 0.85722 0.32208 0.26396 0.0
C401 C 0.89896 0.33207 0.32631 0.0
C402 C 0.88251 0.31959 0.33724 0.0
C403 C 0.89928 0.33331 0.30364 0.0
C404 C 0.86889 0.32247 0.25558 0.0
H405 H 0.91311 0.34167 0.15402 0.0
H406 H 0.91307 0.34353 0.19364 0.0
H407 H 0.85758 0.32235 0.22425 0.0
H408 H 0.8535 0.29862 0.33296 0.0
H409 H 0.85409 0.30075 0.2934 0.0
H410 H 0.91018 0.3239 0.26445 0.0
C411 C 0.9003 0.33388 0.1854 0.0
C412 C 0.8691 0.32262 0.23285 0.0
C413 C 0.9003 0.33286 0.16271 0.0
C414 C 0.86635 0.3085 0.32505 0.0
C415 C 0.86667 0.30976 0.30238 0.0
C416 C 0.89873 0.3238 0.25587 0.0
C417 C 0.88397 0.32265 0.19728 0.0
C418 C 0.88406 0.32324 0.2214 0.0
C419 C 0.88316 0.32211 0.29143 0.0
C420 C 0.88365 0.32294 0.26732 0.0
H421 H 0.85484 0.29974 0.15512 0.0
H422 H 0.85487 0.30145 0.19467 0.0
H423 H 0.91052 0.32414 0.2248 0.0
H424 H 0.91164 0.34085 0.33525 0.0
H425 H 0.91215 0.34312 0.29568 0.0
C426 C 0.5614 0.86615 0.66686 0.0
C427 C 0.5657 0.88234 0.65515 0.0
C428 C 0.56077 0.86609 0.68957 0.0
C429 C 0.55556 0.89108 0.73618 0.0
H430 H 0.57673 0.86621 0.76896 0.0
C431 C 0.56583 0.89855 0.82923 0.0
C432 C 0.56151 0.88241 0.84106 0.0
C433 C 0.56599 0.89838 0.80652 0.0
C434 C 0.57057 0.87303 0.76002 0.0
H435 H 0.57293 0.91123 0.65804 0.0
H436 H 0.57206 0.91118 0.6977 0.0
H437 H 0.5779 0.86634 0.72931 0.0
H438 H 0.55401 0.85343 0.83835 0.0
H439 H 0.55407 0.85308 0.79869 0.0
H440 H 0.54829 0.89782 0.76692 0.0
C441 C 0.56889 0.89845 0.68932 0.0
C442 C 0.57124 0.87311 0.73732 0.0
C443 C 0.56951 0.89851 0.6666 0.0
C444 C 0.55729 0.86607 0.82971 0.0
C445 C 0.55748 0.86591 0.80699 0.0
C446 C 0.5549 0.89101 0.75889 0.0
C447 C 0.56448 0.88223 0.70104 0.0
C448 C 0.56375 0.88214 0.72515 0.0
C449 C 0.56188 0.88207 0.79516 0.0
C450 C 0.56241 0.882 0.77105 0.0
H451 H 0.55854 0.8535 0.65854 0.0
H452 H 0.55716 0.85333 0.69813 0.0
H453 H 0.54941 0.89792 0.72725 0.0
H454 H 0.56919 0.91138 0.83751 0.0
H455 H 0.56965 0.91111 0.79785 0.0
C456 C 0.66699 0.56529 0.32719 0.0
C457 C 0.67923 0.56178 0.33937 0.0
C458 C 0.66684 0.56433 0.30452 0.0
C459 C 0.69611 0.56744 0.258 0.0
H460 H 0.64956 0.54629 0.22621 0.0
C461 C 0.69244 0.56058 0.16424 0.0
C462 C 0.68072 0.56582 0.15375 0.0
C463 C 0.69204 0.5588 0.18688 0.0
C464 C 0.66267 0.55235 0.23487 0.0
H465 H 0.7009 0.55448 0.33733 0.0
H466 H 0.70047 0.55257 0.2977 0.0
H467 H 0.64915 0.54526 0.26588 0.0
H468 H 0.65941 0.57332 0.15874 0.0
H469 H 0.65884 0.57037 0.19819 0.0
H470 H 0.70963 0.5747 0.22697 0.0
C471 C 0.69109 0.55621 0.30571 0.0
C472 C 0.66244 0.55177 0.25757 0.0
C473 C 0.69123 0.55717 0.32842 0.0
C474 C 0.66858 0.56922 0.16633 0.0
C475 C 0.66815 0.56739 0.18892 0.0
C476 C 0.69634 0.56801 0.23528 0.0
C477 C 0.67894 0.55986 0.29352 0.0
C478 C 0.67916 0.55949 0.26939 0.0
C479 C 0.67989 0.56219 0.19944 0.0
C480 C 0.67963 0.56066 0.22349 0.0
H481 H 0.6576 0.56894 0.33515 0.0
H482 H 0.65751 0.56749 0.29558 0.0
H483 H 0.70924 0.57372 0.26664 0.0
H484 H 0.70202 0.55797 0.15502 0.0
H485 H 0.70115 0.55464 0.19453 0.0
C486 C 0.13096 0.68957 0.66607 0.0
C487 C 0.11435 0.67838 0.65468 0.0
C488 C 0.13117 0.68967 0.6888 0.0
C489 C 0.10044 0.67954 0.73615 0.0
H490 H 0.14062 0.67908 0.76787 0.0
C491 C 0.09814 0.67074 0.82908 0.0
C492 C 0.11457 0.68223 0.84063 0.0
C493 C 0.09834 0.6698 0.80642 0.0
C494 C 0.12941 0.6794 0.75923 0.0
H495 H 0.08492 0.65846 0.65817 0.0
H496 H 0.08531 0.65858 0.69783 0.0
H497 H 0.14052 0.67837 0.72814 0.0
H498 H 0.14414 0.70166 0.83748 0.0
H499 H 0.14446 0.70012 0.79785 0.0
H500 H 0.08936 0.68068 0.76716 0.0
C501 C 0.09814 0.66741 0.68919 0.0
C502 C 0.12935 0.67899 0.7365 0.0
C503 C 0.09794 0.66728 0.66647 0.0
C504 C 0.13127 0.69258 0.82906 0.0
C505 C 0.13147 0.69165 0.80636 0.0
C506 C 0.10051 0.67997 0.75885 0.0
C507 C 0.11474 0.67864 0.7006 0.0
C508 C 0.11485 0.67903 0.72473 0.0
C509 C 0.11496 0.68036 0.79479 0.0
C510 C 0.11497 0.67987 0.77065 0.0
H511 H 0.1438 0.69843 0.65747 0.0
H512 H 0.14412 0.69866 0.69713 0.0
H513 H 0.08925 0.67991 0.72754 0.0
H514 H 0.08506 0.66251 0.83753 0.0
H515 H 0.08545 0.66074 0.798 0.0
C516 C 0.86739 0.55994 0.16568 0.0
C517 C 0.88397 0.56523 0.15427 0.0
C518 C 0.86696 0.55879 0.18836 0.0
C519 C 0.87358 0.56984 0.23601 0.0
H520 H 0.89939 0.54861 0.26674 0.0
C521 C 0.90089 0.5685 0.32819 0.0
C522 C 0.88503 0.56494 0.34019 0.0
C523 C 0.90023 0.56746 0.30549 0.0
C524 C 0.89226 0.55473 0.25839 0.0
H525 H 0.91307 0.5733 0.15765 0.0
H526 H 0.91235 0.57143 0.19726 0.0
H527 H 0.89916 0.54865 0.22702 0.0
H528 H 0.85601 0.55745 0.33777 0.0
H529 H 0.85477 0.5553 0.29824 0.0
H530 H 0.86686 0.57613 0.2673 0.0
C531 C 0.89963 0.56797 0.18866 0.0
C532 C 0.89212 0.55474 0.23565 0.0
C533 C 0.90007 0.56916 0.16598 0.0
C534 C 0.86846 0.56017 0.32903 0.0
C535 C 0.86778 0.5591 0.30635 0.0
C536 C 0.87375 0.56986 0.25872 0.0
C537 C 0.8831 0.5629 0.2001 0.0
C538 C 0.88284 0.56237 0.22423 0.0
C539 C 0.88369 0.56284 0.29431 0.0
C540 C 0.88315 0.56237 0.27017 0.0
H541 H 0.85476 0.5569 0.15715 0.0
H542 H 0.85397 0.55466 0.19672 0.0
H543 H 0.86656 0.57609 0.22767 0.0
H544 H 0.91388 0.57226 0.33631 0.0
H545 H 0.91279 0.57065 0.29668 0.0
C546 C 0.32718 0.90444 0.82733 0.0
C547 C 0.31479 0.88878 0.83953 0.0
C548 C 0.32726 0.90362 0.80464 0.0
C549 C 0.2981 0.87727 0.75796 0.0
H550 H 0.34501 0.90044 0.72676 0.0
C551 C 0.30262 0.86763 0.66564 0.0
C552 C 0.31478 0.88352 0.65364 0.0
C553 C 0.30271 0.86811 0.68836 0.0
C554 C 0.3318 0.89407 0.73524 0.0
H555 H 0.29262 0.86004 0.83748 0.0
H556 H 0.29296 0.85854 0.7979 0.0
H557 H 0.345 0.90152 0.76642 0.0
H558 H 0.33651 0.91242 0.65602 0.0
H559 H 0.33655 0.9133 0.69569 0.0
H560 H 0.2849 0.86983 0.72678 0.0
C561 C 0.30251 0.87149 0.80587 0.0
C562 C 0.33179 0.89469 0.75794 0.0
C563 C 0.30243 0.87231 0.82857 0.0
C564 C 0.32701 0.89992 0.66481 0.0
C565 C 0.32712 0.9004 0.68753 0.0
C566 C 0.29811 0.87664 0.73526 0.0
C567 C 0.31492 0.88714 0.79366 0.0
C568 C 0.31494 0.88633 0.76955 0.0
C569 C 0.31495 0.8845 0.69954 0.0
C570 C 0.31496 0.88505 0.72366 0.0
H571 H 0.33683 0.91736 0.83529 0.0
H572 H 0.33681 0.916 0.79568 0.0
H573 H 0.28488 0.87095 0.76642 0.0
H574 H 0.29294 0.85481 0.65753 0.0
H575 H 0.2933 0.85559 0.69717 0.0
C576 C 0.426 0.32992 0.32295 0.0
C577 C 0.43042 0.31788 0.33414 0.0
C578 C 0.42602 0.33027 0.30022 0.0
C579 C 0.44415 0.31795 0.25209 0.0
H580 H 0.40343 0.31876 0.22211 0.0
C581 C 0.43231 0.30474 0.16001 0.0
C582 C 0.42746 0.31618 0.1482 0.0
C583 C 0.4327 0.30524 0.18271 0.0
C584 C 0.41501 0.31875 0.23024 0.0
H585 H 0.43825 0.29671 0.33027 0.0
H586 H 0.43828 0.29734 0.29065 0.0
H587 H 0.40443 0.31943 0.26179 0.0
H588 H 0.41899 0.33695 0.1509 0.0
H589 H 0.4198 0.33792 0.19059 0.0
H590 H 0.45472 0.31725 0.22057 0.0
C591 C 0.43504 0.30668 0.29944 0.0
C592 C 0.41558 0.31914 0.25295 0.0
C593 C 0.43498 0.30629 0.32215 0.0
C594 C 0.42274 0.32794 0.15956 0.0
C595 C 0.42315 0.32845 0.18228 0.0
C596 C 0.44359 0.31758 0.22938 0.0
C597 C 0.43048 0.31861 0.28823 0.0
C598 C 0.43012 0.31866 0.26411 0.0
C599 C 0.42824 0.31718 0.1941 0.0
C600 C 0.42897 0.31789 0.21821 0.0
H601 H 0.42246 0.33904 0.33172 0.0
H602 H 0.42266 0.33977 0.29204 0.0
H603 H 0.45568 0.31786 0.26023 0.0
H604 H 0.43575 0.29533 0.15175 0.0
H605 H 0.43634 0.29615 0.19135 0.0
C606 C 0.08958 0.42348 0.66065 0.0
C607 C 0.104 0.42238 0.65009 0.0
C608 C 0.08941 0.4247 0.68333 0.0
C609 C 0.12051 0.43595 0.73142 0.0
H610 H 0.07392 0.41361 0.76314 0.0
C611 C 0.09205 0.41667 0.82557 0.0
C612 C 0.10639 0.43229 0.83601 0.0
C613 C 0.09116 0.41571 0.80287 0.0
C614 C 0.08708 0.41976 0.75459 0.0
H615 H 0.12919 0.42106 0.65483 0.0
H616 H 0.12847 0.42229 0.69433 0.0
H617 H 0.07357 0.41034 0.72383 0.0
H618 H 0.13029 0.45965 0.83109 0.0
H619 H 0.12841 0.45842 0.79162 0.0
H620 H 0.13408 0.44445 0.76217 0.0
C621 C 0.11765 0.42295 0.68523 0.0
C622 C 0.08688 0.41814 0.73195 0.0
C623 C 0.118 0.42208 0.66257 0.0
C624 C 0.1194 0.44724 0.82345 0.0
C625 C 0.11831 0.44648 0.80078 0.0
C626 C 0.12073 0.43729 0.75405 0.0
C627 C 0.10349 0.42452 0.69592 0.0
C628 C 0.1036 0.42621 0.72005 0.0
C629 C 0.10439 0.43056 0.79015 0.0
C630 C 0.10403 0.42926 0.76597 0.0
H631 H 0.07869 0.42388 0.65138 0.0
H632 H 0.07845 0.4262 0.6909 0.0
H633 H 0.13368 0.44267 0.72286 0.0
H634 H 0.08186 0.40493 0.83496 0.0
H635 H 0.08039 0.40312 0.79535 0.0
C636 C 0.66368 0.08925 0.32829 0.0
C637 C 0.67561 0.1056 0.33974 0.0
C638 C 0.66389 0.089 0.30556 0.0
C639 C 0.6935 0.1135 0.25854 0.0
H640 H 0.64714 0.08935 0.22629 0.0
C641 C 0.69054 0.12182 0.16585 0.0
C642 C 0.67825 0.10602 0.1538 0.0
C643 C 0.69023 0.12139 0.18856 0.0
C644 C 0.6602 0.09594 0.23506 0.0
H645 H 0.69719 0.13447 0.33637 0.0
H646 H 0.6974 0.13408 0.29673 0.0
H647 H 0.64648 0.08933 0.26598 0.0
H648 H 0.65615 0.07726 0.15609 0.0
H649 H 0.65578 0.07643 0.19576 0.0
H650 H 0.70724 0.12011 0.22767 0.0
C651 C 0.68799 0.12143 0.30532 0.0
C652 C 0.65982 0.09595 0.25778 0.0
C653 C 0.68775 0.12169 0.32803 0.0
C654 C 0.66576 0.0897 0.16492 0.0
C655 C 0.66546 0.08926 0.18764 0.0
C656 C 0.69389 0.11346 0.23583 0.0
C657 C 0.67609 0.10508 0.29385 0.0
C658 C 0.67647 0.1048 0.26975 0.0
C659 C 0.67766 0.10511 0.19971 0.0
C660 C 0.67724 0.10476 0.22384 0.0
H661 H 0.65419 0.07661 0.33686 0.0
H662 H 0.65469 0.07615 0.29717 0.0
H663 H 0.70656 0.12017 0.26733 0.0
H664 H 0.70044 0.13456 0.15779 0.0
H665 H 0.69967 0.1339 0.19737 0.0
C666 C 0.57149 0.66899 0.66287 0.0
C667 C 0.56654 0.68039 0.65114 0.0
C668 C 0.57097 0.66873 0.68559 0.0
C669 C 0.57147 0.69632 0.73292 0.0
H670 H 0.55187 0.64949 0.76377 0.0
C671 C 0.55848 0.69063 0.82546 0.0
C672 C 0.56413 0.67977 0.83714 0.0
C673 C 0.55828 0.69037 0.80274 0.0
C674 C 0.55753 0.66269 0.75538 0.0
H675 H 0.5574 0.70064 0.65405 0.0
H676 H 0.55619 0.69995 0.69363 0.0
H677 H 0.55267 0.64978 0.72407 0.0
H678 H 0.57388 0.66 0.83419 0.0
H679 H 0.57367 0.65966 0.79453 0.0
H680 H 0.57635 0.70924 0.76422 0.0
C681 C 0.56063 0.69133 0.68529 0.0
C682 C 0.55801 0.66286 0.73266 0.0
C683 C 0.56116 0.6916 0.66259 0.0
C684 C 0.56942 0.66851 0.82565 0.0
C685 C 0.56919 0.66822 0.80293 0.0
C686 C 0.57097 0.69615 0.75563 0.0
C687 C 0.56552 0.67989 0.69705 0.0
C688 C 0.565 0.67968 0.72118 0.0
C689 C 0.56372 0.67923 0.79123 0.0
C690 C 0.56401 0.67934 0.76711 0.0
H691 H 0.57575 0.66024 0.65451 0.0
H692 H 0.57505 0.65995 0.6942 0.0
H693 H 0.57721 0.70954 0.72457 0.0
H694 H 0.55439 0.69951 0.83383 0.0
H695 H 0.5538 0.69885 0.79417 0.0
C696 C 0.45418 0.17083 0.03605 0.0
C697 C 0.46473 0.17421 0.05514 0.0
C698 C 0.45748 0.18555 0.02218 0.0
C699 C 0.4886 0.23673 0.01358 0.0
H700 H 0.44216 0.23714 0.0158 0.0
C701 C 0.4817 0.29338 0.05229 0.0
C702 C 0.46614 0.29542 0.04855 0.0
C703 C 0.48495 0.28151 0.03935 0.0
C704 C 0.45525 0.23734 0.0142 0.0
H705 H 0.48835 0.19508 0.07332 0.0
H706 H 0.49407 0.22058 0.04938 0.0
H707 H 0.44172 0.20789 0.01784 0.0
H708 H 0.44312 0.28855 0.02664 0.0
H709 H 0.44873 0.26762 0.00398 0.0
H710 H 0.50217 0.26643 0.01182 0.0
C711 C 0.48323 0.20672 0.04496 0.0
C712 C 0.45499 0.22043 0.0154 0.0
C713 C 0.4798 0.19211 0.0589 0.0
C714 C 0.45513 0.28709 0.03004 0.0
C715 C 0.45831 0.27505 0.0171 0.0
C716 C 0.48886 0.25367 0.01229 0.0
C717 C 0.47154 0.20379 0.02705 0.0
C718 C 0.47172 0.2201 0.01686 0.0
C719 C 0.47261 0.2713 0.02244 0.0
C720 C 0.47225 0.25422 0.0144 0.0
H721 H 0.44253 0.15712 0.03267 0.0
H722 H 0.44832 0.18286 0.00841 0.0
H723 H 0.5017 0.23684 0.01411 0.0
H724 H 0.49062 0.29989 0.06624 0.0
H725 H 0.49607 0.27899 0.04409 0.0
C726 C 0.18402 0.47072 0.55545 0.0
C727 C 0.16629 0.45528 0.552 0.0
C728 C 0.19884 0.4739 0.542 0.0
C729 C 0.21366 0.44522 0.51547 0.0
H730 H 0.25913 0.49276 0.51059 0.0
C731 C 0.28172 0.4481 0.53205 0.0
C732 C 0.28987 0.45977 0.55014 0.0
C733 C 0.26914 0.45023 0.51887 0.0
C734 C 0.24653 0.47934 0.51143 0.0
H735 H 0.14968 0.43207 0.53053 0.0
H736 H 0.17582 0.43742 0.50712 0.0
H737 H 0.22916 0.49163 0.51131 0.0
H738 H 0.29322 0.48421 0.56694 0.0
H739 H 0.27142 0.48789 0.54428 0.0
H740 H 0.23092 0.43304 0.5177 0.0
C741 C 0.1782 0.44707 0.52026 0.0
C742 C 0.22937 0.47869 0.51182 0.0
C743 C 0.16326 0.44402 0.53363 0.0
C744 C 0.28691 0.47483 0.55332 0.0
C745 C 0.27453 0.47706 0.54009 0.0
C746 C 0.23079 0.44587 0.51511 0.0
C747 C 0.19631 0.46157 0.52491 0.0
C748 C 0.2129 0.46176 0.51556 0.0
C749 C 0.2647 0.46417 0.52348 0.0
C750 C 0.24745 0.46307 0.51482 0.0
H751 H 0.1867 0.47977 0.56933 0.0
H752 H 0.21258 0.4851 0.54624 0.0
H753 H 0.20126 0.43193 0.51831 0.0
H754 H 0.28386 0.43644 0.52912 0.0
H755 H 0.26194 0.44022 0.50604 0.0
C756 C 0.83031 0.27923 0.03229 0.0
C757 C 0.8265 0.28838 0.04905 0.0
C758 C 0.81587 0.26629 0.01907 0.0
C759 C 0.76437 0.24431 0.00942 0.0
H760 H 0.76541 0.19891 0.02048 0.0
C761 C 0.70969 0.18425 0.05595 0.0
C762 C 0.70684 0.16621 0.05346 0.0
C763 C 0.72156 0.19844 0.04194 0.0
C764 C 0.76485 0.21132 0.01649 0.0
H765 H 0.8053 0.29306 0.06328 0.0
H766 H 0.78031 0.27063 0.04064 0.0
H767 H 0.79429 0.2282 0.01925 0.0
H768 H 0.71275 0.14842 0.03317 0.0
H769 H 0.73402 0.17348 0.00887 0.0
H770 H 0.73466 0.2274 0.00898 0.0
C771 C 0.79424 0.27322 0.03748 0.0
C772 C 0.78152 0.22824 0.01576 0.0
C773 C 0.80857 0.28597 0.05073 0.0
C774 C 0.71478 0.16224 0.0355 0.0
C775 C 0.72694 0.17656 0.02161 0.0
C776 C 0.74767 0.22737 0.01029 0.0
C777 C 0.79748 0.26246 0.02231 0.0
C778 C 0.78135 0.24504 0.01396 0.0
C779 C 0.73106 0.19496 0.0253 0.0
C780 C 0.74773 0.21092 0.0155 0.0
H781 H 0.84407 0.28094 0.03052 0.0
H782 H 0.81886 0.25839 0.00734 0.0
H783 H 0.76383 0.25698 0.00736 0.0
H784 H 0.70356 0.18763 0.06952 0.0
H785 H 0.72453 0.21245 0.04541 0.0
C786 C 0.51853 0.70712 0.5506 0.0
C787 C 0.53402 0.70471 0.54844 0.0
C788 C 0.51625 0.71913 0.53678 0.0
C789 C 0.54759 0.76311 0.51281 0.0
H790 H 0.5014 0.7638 0.50754 0.0
C791 C 0.54736 0.82881 0.53464 0.0
C792 C 0.53549 0.82463 0.55267 0.0
C793 C 0.54497 0.8147 0.52022 0.0
C794 C 0.51448 0.76388 0.50843 0.0
H795 H 0.5581 0.71119 0.52853 0.0
H796 H 0.55425 0.73249 0.50443 0.0
H797 H 0.50097 0.73421 0.50615 0.0
H798 H 0.51058 0.80312 0.56828 0.0
H799 H 0.50641 0.77868 0.54341 0.0
H800 H 0.5609 0.79248 0.51716 0.0
C801 C 0.54392 0.72515 0.51692 0.0
C802 C 0.51423 0.74693 0.50765 0.0
C803 C 0.5461 0.71294 0.53069 0.0
C804 C 0.5201 0.80666 0.55471 0.0
C805 C 0.51758 0.79269 0.54022 0.0
C806 C 0.54783 0.78003 0.51356 0.0
C807 C 0.52954 0.72914 0.5206 0.0
C808 C 0.53058 0.74628 0.51171 0.0
C809 C 0.53053 0.79631 0.52349 0.0
C810 C 0.53108 0.78039 0.51323 0.0
H811 H 0.50883 0.70072 0.56394 0.0
H812 H 0.50506 0.72188 0.54026 0.0
H813 H 0.56049 0.76321 0.51588 0.0
H814 H 0.55928 0.8426 0.53261 0.0
H815 H 0.55509 0.81793 0.5074 0.0
C816 C 0.70158 0.52344 0.04075 0.0
C817 C 0.70681 0.54182 0.04608 0.0
C818 C 0.71316 0.51969 0.02783 0.0
C819 C 0.76087 0.5425 0.00223 0.0
H820 H 0.76508 0.50733 0.03974 0.0
C821 C 0.82876 0.5557 0.03924 0.0
C822 C 0.82956 0.54103 0.04943 0.0
C823 C 0.81332 0.5521 0.02657 0.0
C824 C 0.76413 0.51682 0.02845 0.0
H825 H 0.72701 0.57075 0.04059 0.0
H826 H 0.74785 0.56436 0.01919 0.0
H827 H 0.73642 0.50749 0.03849 0.0
H828 H 0.81655 0.51115 0.05223 0.0
H829 H 0.7902 0.50469 0.0289 0.0
H830 H 0.78935 0.55259 0.99347 0.0
C831 C 0.73462 0.55272 0.02415 0.0
C832 C 0.74743 0.51691 0.02771 0.0
C833 C 0.72273 0.55646 0.03654 0.0
C834 C 0.816 0.52267 0.04469 0.0
C835 C 0.80088 0.51903 0.03146 0.0
C836 C 0.7777 0.54238 0.00293 0.0
C837 C 0.73057 0.53426 0.02094 0.0
C838 C 0.74591 0.53048 0.01566 0.0
C839 C 0.79862 0.53372 0.02363 0.0
C840 C 0.77985 0.53027 0.01711 0.0
H841 H 0.68923 0.51196 0.04787 0.0
H842 H 0.70928 0.50532 0.02504 0.0
H843 H 0.76003 0.55282 0.9923 0.0
H844 H 0.83912 0.56999 0.04276 0.0
H845 H 0.81218 0.56384 0.02094 0.0
C846 C 0.28532 0.80609 0.55513 0.0
C847 C 0.28767 0.82394 0.55267 0.0
C848 C 0.27386 0.79182 0.54096 0.0
C849 C 0.23062 0.77817 0.51477 0.0
H850 H 0.23239 0.73268 0.50791 0.0
C851 C 0.16603 0.7107 0.53328 0.0
C852 C 0.17023 0.70273 0.55099 0.0
C853 C 0.1802 0.72295 0.51928 0.0
C854 C 0.23164 0.74529 0.50927 0.0
H855 H 0.28141 0.84137 0.53221 0.0
H856 H 0.2609 0.81617 0.50759 0.0
H857 H 0.2613 0.76253 0.50872 0.0
H858 H 0.19183 0.69922 0.5662 0.0
H859 H 0.21637 0.72045 0.54215 0.0
H860 H 0.20121 0.76102 0.51757 0.0
C861 C 0.268 0.81328 0.52047 0.0
C862 C 0.24819 0.76239 0.50971 0.0
C863 C 0.27973 0.82768 0.53455 0.0
C864 C 0.18826 0.70543 0.55291 0.0
C865 C 0.20232 0.71747 0.53886 0.0
C866 C 0.21409 0.7611 0.51439 0.0
C867 C 0.26429 0.79501 0.52416 0.0
C868 C 0.24786 0.77881 0.51427 0.0
C869 C 0.1987 0.72724 0.52269 0.0
C870 C 0.21455 0.74441 0.5135 0.0
H871 H 0.29149 0.80288 0.56879 0.0
H872 H 0.27122 0.77792 0.54447 0.0
H873 H 0.22981 0.79055 0.5182 0.0
H874 H 0.15219 0.70874 0.53131 0.0
H875 H 0.17693 0.73008 0.5068 0.0
C876 C 0.83574 0.5571 0.46134 0.0
C877 C 0.83105 0.54343 0.44525 0.0
C878 C 0.82208 0.55614 0.47556 0.0
C879 C 0.77173 0.52675 0.49049 0.0
H880 H 0.77009 0.57118 0.47534 0.0
C881 C 0.71314 0.52541 0.44579 0.0
C882 C 0.7102 0.54064 0.44572 0.0
C883 C 0.72587 0.52489 0.46013 0.0
C884 C 0.77031 0.55883 0.48055 0.0
H885 H 0.80918 0.51698 0.43307 0.0
H886 H 0.78552 0.51522 0.45765 0.0
H887 H 0.79956 0.57189 0.47512 0.0
H888 H 0.71671 0.56631 0.46211 0.0
H889 H 0.73938 0.5656 0.48704 0.0
H890 H 0.74211 0.51326 0.49383 0.0
C891 C 0.79958 0.52674 0.45946 0.0
C892 C 0.78733 0.55924 0.48041 0.0
C893 C 0.8131 0.52785 0.44513 0.0
C894 C 0.71882 0.55445 0.46174 0.0
C895 C 0.7318 0.55406 0.47598 0.0
C896 C 0.75469 0.52634 0.49064 0.0
C897 C 0.80364 0.54135 0.47406 0.0
C898 C 0.78796 0.5428 0.48357 0.0
C899 C 0.73612 0.53972 0.47456 0.0
C900 C 0.75366 0.54198 0.48385 0.0
H901 H 0.84954 0.56924 0.46183 0.0
H902 H 0.82564 0.56754 0.48672 0.0
H903 H 0.77188 0.51398 0.49356 0.0
H904 H 0.70648 0.51444 0.4338 0.0
H905 H 0.7289 0.51369 0.45838 0.0
C906 C 0.18704 0.71645 0.94526 0.0
C907 C 0.16886 0.71352 0.94577 0.0
C908 C 0.20058 0.7292 0.95932 0.0
C909 C 0.21133 0.77357 0.9807 0.0
H910 H 0.25811 0.77529 0.992 0.0
C911 C 0.27769 0.83952 0.96153 0.0
C912 C 0.28651 0.83516 0.9449 0.0
C913 C 0.2654 0.82563 0.97579 0.0
C914 C 0.2451 0.77509 0.9894 0.0
H915 H 0.15005 0.72007 0.96301 0.0
H916 H 0.17389 0.74268 0.98749 0.0
H917 H 0.2292 0.74543 0.9921 0.0
H918 H 0.29135 0.81372 0.93181 0.0
H919 H 0.27016 0.78967 0.95645 0.0
H920 H 0.22725 0.80289 0.97594 0.0
C921 C 0.17766 0.73514 0.97612 0.0
C922 C 0.22855 0.75799 0.98944 0.0
C923 C 0.16401 0.72218 0.96212 0.0
C924 C 0.28451 0.81737 0.94431 0.0
C925 C 0.2725 0.80362 0.95867 0.0
C926 C 0.22786 0.79064 0.98067 0.0
C927 C 0.19629 0.73946 0.9741 0.0
C928 C 0.21173 0.75694 0.98329 0.0
C929 C 0.26199 0.8073 0.97377 0.0
C930 C 0.24504 0.79136 0.98322 0.0
H931 H 0.19112 0.70975 0.93305 0.0
H932 H 0.21477 0.73221 0.95712 0.0
H933 H 0.19865 0.77334 0.976 0.0
H934 H 0.27908 0.85319 0.96238 0.0
H935 H 0.2576 0.8289 0.98737 0.0
C936 C 0.4702 0.18152 0.44037 0.0
C937 C 0.4545 0.16373 0.4421 0.0
C938 C 0.47207 0.19594 0.45367 0.0
C939 C 0.44029 0.20943 0.47451 0.0
H940 H 0.4866 0.25573 0.48241 0.0
C941 C 0.44295 0.27696 0.45356 0.0
C942 C 0.45573 0.2852 0.43643 0.0
C943 C 0.44428 0.26439 0.4676 0.0
C944 C 0.47348 0.24288 0.48073 0.0
H945 H 0.42948 0.14649 0.46071 0.0
H946 H 0.43259 0.1719 0.48388 0.0
H947 H 0.4864 0.22626 0.48433 0.0
H948 H 0.48105 0.28846 0.42205 0.0
H949 H 0.48339 0.26672 0.44631 0.0
H950 H 0.42764 0.22598 0.46896 0.0
C951 C 0.44344 0.17468 0.47217 0.0
C952 C 0.47336 0.22601 0.48183 0.0
C953 C 0.44168 0.16013 0.45895 0.0
C954 C 0.47085 0.28211 0.43493 0.0
C955 C 0.47231 0.2698 0.44907 0.0
C956 C 0.4404 0.22627 0.47346 0.0
C957 C 0.45814 0.19294 0.46884 0.0
C958 C 0.45704 0.20923 0.47697 0.0
C959 C 0.45855 0.26009 0.46488 0.0
C960 C 0.45726 0.2432 0.47484 0.0
H961 H 0.48042 0.18461 0.42769 0.0
H962 H 0.48352 0.2098 0.45048 0.0
H963 H 0.42744 0.1968 0.47074 0.0
H964 H 0.4312 0.27918 0.45515 0.0
H965 H 0.43353 0.25719 0.47971 0.0
C966 C 0.28224 0.45225 0.95146 0.0
C967 C 0.29109 0.46355 0.93331 0.0
C968 C 0.26998 0.45533 0.96409 0.0
C969 C 0.2501 0.48692 0.97054 0.0
H970 H 0.20315 0.44094 0.96489 0.0
C971 C 0.18742 0.48218 0.93023 0.0
C972 C 0.16952 0.46705 0.93394 0.0
C973 C 0.20243 0.48455 0.94278 0.0
C974 C 0.21604 0.45388 0.96736 0.0
H975 H 0.29592 0.48821 0.91578 0.0
H976 H 0.27467 0.49353 0.93753 0.0
H977 H 0.23186 0.44013 0.96476 0.0
H978 H 0.15295 0.44372 0.9553 0.0
H979 H 0.17932 0.44779 0.97722 0.0
H980 H 0.23417 0.50075 0.97128 0.0
C981 C 0.27701 0.48228 0.94216 0.0
C982 C 0.23262 0.4534 0.96729 0.0
C983 C 0.28907 0.47911 0.92947 0.0
C984 C 0.16662 0.45543 0.95191 0.0
C985 C 0.18173 0.45773 0.96443 0.0
C986 C 0.2335 0.48739 0.97063 0.0
C987 C 0.26656 0.46986 0.95889 0.0
C988 C 0.24985 0.47002 0.9673 0.0
C989 C 0.19993 0.47176 0.95928 0.0
C990 C 0.21638 0.47098 0.96746 0.0
H991 H 0.28363 0.44021 0.9549 0.0
H992 H 0.26228 0.44565 0.97703 0.0
H993 H 0.26318 0.49992 0.9711 0.0
H994 H 0.19006 0.49155 0.9167 0.0
H995 H 0.21622 0.49545 0.93819 0.0
C996 C 0.70579 0.18184 0.43957 0.0
C997 C 0.70319 0.16386 0.44154 0.0
C998 C 0.71839 0.19614 0.45298 0.0
C999 C 0.76307 0.2089 0.47481 0.0
H1000 H 0.76347 0.25529 0.48395 0.0
C1001 C 0.82875 0.27635 0.45617 0.0
C1002 C 0.82464 0.28532 0.43949 0.0
C1003 C 0.81456 0.26355 0.46976 0.0
C1004 C 0.76363 0.24241 0.48189 0.0
H1005 H 0.71022 0.14624 0.46054 0.0
H1006 H 0.73264 0.17145 0.48384 0.0
H1007 H 0.73398 0.22598 0.48454 0.0
H1008 H 0.80313 0.28967 0.42559 0.0
H1009 H 0.77856 0.26752 0.44899 0.0
H1010 H 0.79239 0.22529 0.47007 0.0
C1011 C 0.72488 0.17444 0.47191 0.0
C1012 C 0.74675 0.22563 0.48226 0.0
C1013 C 0.71203 0.16002 0.45861 0.0
C1014 C 0.80663 0.28275 0.4381 0.0
C1015 C 0.79257 0.27018 0.45177 0.0
C1016 C 0.77993 0.22566 0.47441 0.0
C1017 C 0.72886 0.19282 0.46848 0.0
C1018 C 0.74619 0.20887 0.47704 0.0
C1019 C 0.79614 0.25973 0.46703 0.0
C1020 C 0.78019 0.24266 0.47625 0.0
H1021 H 0.69897 0.18513 0.42671 0.0
H1022 H 0.72116 0.21011 0.44972 0.0
H1023 H 0.76319 0.19626 0.47077 0.0
H1024 H 0.84257 0.27817 0.45768 0.0
H1025 H 0.81777 0.25582 0.48149 0.0
C1026 C 0.54858 0.71639 0.95805 0.0
C1027 C 0.53588 0.70795 0.94089 0.0
C1028 C 0.5467 0.72851 0.97233 0.0
C1029 C 0.51631 0.74876 0.98544 0.0
H1030 H 0.56167 0.7954 0.97511 0.0
C1031 C 0.5179 0.80854 0.94333 0.0
C1032 C 0.53329 0.82656 0.94477 0.0
C1033 C 0.51641 0.79453 0.95708 0.0
C1034 C 0.549 0.78263 0.97898 0.0
H1035 H 0.5101 0.70369 0.9268 0.0
H1036 H 0.50683 0.72468 0.95141 0.0
H1037 H 0.56235 0.76667 0.97391 0.0
H1038 H 0.55809 0.84463 0.96331 0.0
H1039 H 0.55564 0.81995 0.98727 0.0
H1040 H 0.50269 0.76478 0.98848 0.0
C1041 C 0.51827 0.72213 0.95403 0.0
C1042 C 0.54939 0.76603 0.97827 0.0
C1043 C 0.52026 0.71024 0.93968 0.0
C1044 C 0.54614 0.8308 0.96175 0.0
C1045 C 0.54475 0.81667 0.97543 0.0
C1046 C 0.51592 0.76539 0.98618 0.0
C1047 C 0.53197 0.73216 0.96979 0.0
C1048 C 0.53277 0.74887 0.9797 0.0
C1049 C 0.53039 0.79818 0.97245 0.0
C1050 C 0.53198 0.78234 0.98114 0.0
H1051 H 0.5607 0.71476 0.95946 0.0
H1052 H 0.5574 0.73593 0.98442 0.0
H1053 H 0.50337 0.73574 0.98718 0.0
H1054 H 0.50764 0.80495 0.93058 0.0
H1055 H 0.50521 0.78048 0.95414 0.0
C1056 C 0.35518 0.9406 0.95885 0.0
C1057 C 0.34544 0.9419 0.94086 0.0
C1058 C 0.36614 0.95624 0.97171 0.0
C1059 C 0.37221 0.0022 0.98556 0.0
H1060 H 0.42049 0.01271 0.00694 0.0
C1061 C 0.42054 0.07074 0.02862 0.0
C1062 C 0.4279 0.06916 0.04858 0.0
C1063 C 0.41229 0.05566 0.01437 0.0
C1064 C 0.40699 0.00988 0.00115 0.0
H1065 H 0.33973 0.96063 0.92208 0.0
H1066 H 0.35896 0.98781 0.94423 0.0
H1067 H 0.40194 0.98502 0.98469 0.0
H1068 H 0.43343 0.05094 0.06861 0.0
H1069 H 0.4189 0.02457 0.0437 0.0
H1070 H 0.37717 0.02695 0.00196 0.0
C1071 C 0.3579 0.9747 0.94869 0.0
C1072 C 0.39635 0.99401 0.9885 0.0
C1073 C 0.34694 0.95911 0.93593 0.0
C1074 C 0.4278 0.05256 0.0534 0.0
C1075 C 0.41955 0.03748 0.0391 0.0
C1076 C 0.38284 0.01804 -0.00191 0.0
C1077 C 0.36756 0.97344 0.96678 0.0
C1078 C 0.37886 0.99005 0.98052 0.0
C1079 C 0.41125 0.03872 0.01974 0.0
C1080 C 0.40036 0.02208 0.00596 0.0
H1081 H 0.3543 0.92751 0.96305 0.0
H1082 H 0.37326 0.95479 0.98568 0.0
H1083 H 0.35863 -0.00066 0.98005 0.0
H1084 H 0.42056 0.08339 0.02432 0.0
H1085 H 0.4063 0.05712 -0.00065 0.0
C1086 C 0.42516 0.37444 0.4351 0.0
C1087 C 0.42266 0.35663 0.43883 0.0
C1088 C 0.41618 0.38131 0.44821 0.0
C1089 C 0.37442 0.36438 0.48156 0.0
H1090 H 0.39767 0.41468 0.50417 0.0
C1091 C 0.33823 0.38648 0.5445 0.0
C1092 C 0.34037 0.40432 0.54288 0.0
C1093 C 0.34842 0.38129 0.53112 0.0
C1094 C 0.39092 0.40068 0.49769 0.0
H1095 H 0.40958 0.33246 0.45994 0.0
H1096 H 0.39397 0.34447 0.48278 0.0
H1097 H 0.41611 0.40479 0.48289 0.0
H1098 H 0.35465 0.43062 0.52568 0.0
H1099 H 0.37228 0.42139 0.50194 0.0
H1100 H 0.34923 0.36022 0.49605 0.0
C1101 C 0.40266 0.353 0.46953 0.0
C1102 C 0.4015 0.39501 0.48561 0.0
C1103 C 0.4117 0.34618 0.45653 0.0
C1104 C 0.35273 0.41678 0.52733 0.0
C1105 C 0.36292 0.41154 0.51385 0.0
C1106 C 0.36385 0.37006 0.49348 0.0
C1107 C 0.40447 0.37043 0.4652 0.0
C1108 C 0.39338 0.37674 0.47767 0.0
C1109 C 0.36093 0.39376 0.5157 0.0
C1110 C 0.37201 0.38819 0.50191 0.0
H1111 H 0.43357 0.38286 0.42163 0.0
H1112 H 0.41778 0.39478 0.4445 0.0
H1113 H 0.36771 0.35033 0.47521 0.0
H1114 H 0.3289 0.37657 0.55638 0.0
H1115 H 0.34678 0.36759 0.53321 0.0
C1116 C 0.06331 0.41206 0.9601 0.0
C1117 C 0.06277 0.42234 0.94224 0.0
C1118 C 0.04796 0.40296 0.97389 0.0
C1119 C 0.00434 0.40102 0.99079 0.0
H1120 H 0.98849 0.34958 0.0042 0.0
C1121 C 0.93325 0.35193 0.03035 0.0
C1122 C 0.93309 0.3402 0.04693 0.0
C1123 C 0.94912 0.36207 0.01755 0.0
C1124 C 0.99284 0.36399 0.00081 0.0
H1125 H 0.04605 0.43184 0.92542 0.0
H1126 H 0.01929 0.41594 0.94948 0.0
H1127 H 0.01677 0.36798 0.98314 0.0
H1128 H 0.94934 0.32971 0.06288 0.0
H1129 H 0.97699 0.34752 0.04078 0.0
H1130 H 0.98041 0.39703 0.0085 0.0
C1131 C 0.03157 0.41495 0.95284 0.0
C1132 C 0.00906 0.37453 0.98879 0.0
C1133 C 0.04688 0.42398 0.939 0.0
C1134 C 0.94898 0.33858 0.0502 0.0
C1135 C 0.96482 0.34873 0.03745 0.0
C1136 C 0.98814 0.39049 0.00289 0.0
C1137 C 0.03182 0.40405 0.97017 0.0
C1138 C 0.01497 0.39315 0.98363 0.0
C1139 C 0.96513 0.36069 0.02109 0.0
C1140 C 0.9822 0.37184 0.00801 0.0
H1141 H 0.07538 0.41059 0.96308 0.0
H1142 H 0.04862 0.39486 0.98732 0.0
H1143 H 0.00866 0.4154 0.98721 0.0
H1144 H 0.9212 0.35343 0.0274 0.0
H1145 H 0.94883 0.37096 0.00485 0.0
C1146 C 0.63825 0.05812 0.46145 0.0
C1147 C 0.64933 0.05743 0.44457 0.0
C1148 C 0.62811 0.0427 0.47491 0.0
C1149 C 0.62613 -0.0008 0.49258 0.0
H1150 H 0.57538 0.9841 0.50902 0.0
C1151 C 0.57914 0.92871 0.53237 0.0
C1152 C 0.56991 0.92898 0.55142 0.0
C1153 C 0.58753 0.94426 0.51885 0.0
C1154 C 0.58958 0.98825 0.50465 0.0
H1155 H 0.65838 0.04002 0.4285 0.0
H1156 H 0.64057 0.01317 0.45164 0.0
H1157 H 0.59321 0.01207 0.48696 0.0
H1158 H 0.5613 0.94536 0.57057 0.0
H1159 H 0.576 0.97256 0.54683 0.0
H1160 H 0.62249 0.97536 0.51003 0.0
C1161 C 0.63994 0.02568 0.4548 0.0
C1162 C 0.59981 0.00428 0.49211 0.0
C1163 C 0.65009 0.04107 0.44145 0.0
C1164 C 0.56839 0.94475 0.55605 0.0
C1165 C 0.57674 0.9603 0.54244 0.0
C1166 C 0.6159 0.98318 0.50496 0.0
C1167 C 0.62886 0.02631 0.4717 0.0
C1168 C 0.61815 0.00982 0.4858 0.0
C1169 C 0.58681 0.96036 0.52404 0.0
C1170 C 0.59748 0.97746 0.51097 0.0
H1171 H 0.6374 0.07055 0.46426 0.0
H1172 H 0.61984 0.04366 0.48794 0.0
H1173 H 0.64036 0.0033 0.4884 0.0
H1174 H 0.58044 0.91673 0.52823 0.0
H1175 H 0.59493 0.94382 0.50453 0.0
C1176 C 0.64341 0.5832 0.03472 0.0
C1177 C 0.65348 0.5942 0.05259 0.0
C1178 C 0.63339 0.58868 0.02135 0.0
C1179 C 0.63042 0.62995 0.00553 0.0
H1180 H 0.58115 0.59368 0.98516 0.0
C1181 C 0.58389 0.65207 0.96093 0.0
C1182 C 0.57532 0.64226 0.94178 0.0
C1183 C 0.59235 0.64546 0.97519 0.0
C1184 C 0.59494 0.60392 0.99061 0.0
H1185 H 0.66088 0.61949 0.07052 0.0
H1186 H 0.64326 0.6289 0.04738 0.0
H1187 H 0.59846 0.58368 0.00831 0.0
H1188 H 0.56822 0.61743 0.92302 0.0
H1189 H 0.58307 0.60594 0.94792 0.0
H1190 H 0.62695 0.65018 0.98788 0.0
C1191 C 0.64331 0.6162 0.04349 0.0
C1192 C 0.60487 0.5982 0.00381 0.0
C1193 C 0.65334 0.61075 0.05681 0.0
C1194 C 0.57475 0.62534 0.93761 0.0
C1195 C 0.58318 0.61871 0.95192 0.0
C1196 C 0.6205 0.63566 0.99241 0.0
C1197 C 0.63324 0.60524 0.0256 0.0
C1198 C 0.62271 0.61117 0.01142 0.0
C1199 C 0.59236 0.62889 0.97063 0.0
C1200 C 0.60265 0.62272 0.98485 0.0
H1201 H 0.64327 0.57038 0.03103 0.0
H1202 H 0.62594 0.58005 0.00753 0.0
H1203 H 0.64427 0.64022 0.01081 0.0
H1204 H 0.58447 0.6651 0.9647 0.0
H1205 H 0.59906 0.65344 0.98968 0.0
C1206 C 0.0483 0.65465 0.55295 0.0
C1207 C 0.06417 0.65291 0.55022 0.0
C1208 C 0.03282 0.64485 0.53959 0.0
C1209 C 0.00993 0.60407 0.50339 0.0
H1210 H 0.98292 0.62831 0.48373 0.0
C1211 C 0.95021 0.57268 0.43977 0.0
C1212 C 0.93484 0.57503 0.44389 0.0
C1213 C 0.96591 0.58116 0.45317 0.0
C1214 C 0.9902 0.62129 0.48929 0.0
H1215 H 0.07632 0.63964 0.53119 0.0
H1216 H 0.04929 0.62269 0.50754 0.0
H1217 H 0.011 0.64567 0.50539 0.0
H1218 H 0.92352 0.58735 0.4659 0.0
H1219 H 0.95085 0.60203 0.48925 0.0
H1220 H 0.98909 0.57971 0.48703 0.0
C1221 C 0.04876 0.63145 0.52026 0.0
C1222 C 0.00629 0.63124 0.50168 0.0
C1223 C 0.06428 0.64125 0.53371 0.0
C1224 C 0.93517 0.58537 0.46217 0.0
C1225 C 0.95087 0.59388 0.47548 0.0
C1226 C 0.99383 0.59413 0.49087 0.0
C1227 C 0.03285 0.63314 0.52309 0.0
C1228 C 0.01624 0.6227 0.50906 0.0
C1229 C 0.96653 0.59218 0.47086 0.0
C1230 C 0.98373 0.60261 0.48389 0.0
H1231 H 0.04771 0.66343 0.5656 0.0
H1232 H 0.02068 0.64623 0.54244 0.0
H1233 H 0.01717 0.59705 0.50903 0.0
H1234 H 0.95036 0.56475 0.42585 0.0
H1235 H 0.97781 0.57966 0.44919 0.0
C1236 C 0.60103 0.95026 0.93902 0.0
C1237 C 0.58461 0.93352 0.94354 0.0
C1238 C 0.60621 0.96597 0.9518 0.0
C1239 C 0.58803 0.98699 0.99053 0.0
H1240 H 0.64024 0.01785 0.00505 0.0
C1241 C 0.61707 0.04649 0.05448 0.0
C1242 C 0.63406 0.06251 0.0495 0.0
C1243 C 0.60964 0.03114 0.04052 0.0
C1244 C 0.62564 0.00951 0.00089 0.0
H1245 H 0.56073 0.9201 0.96503 0.0
H1246 H 0.57002 0.94756 0.98771 0.0
H1247 H 0.63018 0.98981 0.98363 0.0
H1248 H 0.65591 0.0755 0.02527 0.0
H1249 H 0.64289 0.04878 0.00093 0.0
H1250 H 0.58358 0.00672 0.00821 0.0
C1251 C 0.57871 0.94856 0.97404 0.0
C1252 C 0.61987 0.99343 0.98864 0.0
C1253 C 0.57347 0.93281 0.96116 0.0
C1254 C 0.6429 0.0633 0.0297 0.0
C1255 C 0.63551 0.04797 0.01581 0.0
C1256 C 0.59382 0.00309 0.00293 0.0
C1257 C 0.59517 0.9653 0.9695 0.0
C1258 C 0.60103 0.98205 0.98317 0.0
C1259 C 0.6191 0.03156 0.02138 0.0
C1260 C 0.61272 0.01457 0.00807 0.0
H1261 H 0.60985 0.95134 0.92546 0.0
H1262 H 0.61879 0.97872 0.94762 0.0
H1263 H 0.57344 0.9786 0.98639 0.0
H1264 H 0.60987 0.04549 0.06956 0.0
H1265 H 0.59699 0.01866 0.04524 0.0
C1266 C 0.64256 0.57842 0.45875 0.0
C1267 C 0.65248 0.58912 0.44064 0.0
C1268 C 0.6323 0.5839 0.47173 0.0
C1269 C 0.62847 0.62509 0.48569 0.0
H1270 H 0.57948 0.58884 0.50683 0.0
C1271 C 0.58149 0.64769 0.52812 0.0
C1272 C 0.57335 0.63861 0.54776 0.0
C1273 C 0.58982 0.64066 0.51424 0.0
C1274 C 0.59319 0.59908 0.50114 0.0
H1275 H 0.65931 0.61386 0.42184 0.0
H1276 H 0.6413 0.62324 0.44426 0.0
H1277 H 0.59714 0.57859 0.48461 0.0
H1278 H 0.56671 0.61453 0.56775 0.0
H1279 H 0.58133 0.6023 0.5435 0.0
H1280 H 0.62457 0.64557 0.50216 0.0
C1281 C 0.64166 0.6108 0.44868 0.0
C1282 C 0.60332 0.59323 0.48849 0.0
C1283 C 0.65192 0.60536 0.43576 0.0
C1284 C 0.57293 0.62189 0.55276 0.0
C1285 C 0.58123 0.61483 0.53884 0.0
C1286 C 0.61834 0.63094 0.49825 0.0
C1287 C 0.63176 0.60017 0.46683 0.0
C1288 C 0.62105 0.6062 0.48059 0.0
C1289 C 0.59012 0.62438 0.51969 0.0
C1290 C 0.60058 0.61801 0.50605 0.0
H1291 H 0.64272 0.56583 0.46292 0.0
H1292 H 0.62498 0.57553 0.48576 0.0
H1293 H 0.64223 0.63539 0.48021 0.0
H1294 H 0.58192 0.66052 0.5237 0.0
H1295 H 0.59628 0.64813 0.49939 0.0
C1296 C 0.95072 0.57905 0.0547 0.0
C1297 C 0.93436 0.57957 0.05035 0.0
C1298 C 0.9662 0.58829 0.04111 0.0
C1299 C 0.98731 0.62742 0.003 0.0
H1300 H 0.01823 0.60666 0.98622 0.0
C1301 C 0.04616 0.66255 0.93999 0.0
C1302 C 0.06274 0.66238 0.94395 0.0
C1303 C 0.03063 0.65242 0.95322 0.0
C1304 C 0.00986 0.61273 0.99101 0.0
H1305 H 0.92111 0.58947 0.02779 0.0
H1306 H 0.94806 0.60546 0.00402 0.0
H1307 H 0.99041 0.58815 0.00815 0.0
H1308 H 0.07619 0.65176 0.96519 0.0
H1309 H 0.04911 0.63428 0.98851 0.0
H1310 H 0.00675 0.65202 0.98603 0.0
C1311 C 0.94902 0.59817 0.01814 0.0
C1312 C 0.99391 0.60211 0.0035 0.0
C1313 C 0.93355 0.58891 0.03168 0.0
C1314 C 0.06359 0.65213 0.96167 0.0
C1315 C 0.04804 0.64201 0.97493 0.0
C1316 C 0.00325 0.63804 0.99057 0.0
C1317 C 0.96561 0.59825 0.02294 0.0
C1318 C 0.98245 0.60934 0.00954 0.0
C1319 C 0.03136 0.64194 0.97074 0.0
C1320 C 0.01467 0.63079 0.98438 0.0
H1321 H 0.95178 0.57195 0.06894 0.0
H1322 H 0.97884 0.5882 0.04527 0.0
H1323 H 0.97893 0.63349 0.00777 0.0
H1324 H 0.04503 0.67026 0.92643 0.0
H1325 H 0.01791 0.65248 0.94941 0.0
C1326 C 0.37403 0.94482 0.55397 0.0
C1327 C 0.3571 0.92862 0.5493 0.0
C1328 C 0.38081 0.96026 0.54021 0.0
C1329 C 0.36334 0.98163 0.50212 0.0
H1330 H 0.41498 0.01266 0.48527 0.0
C1331 C 0.38564 0.04004 0.43948 0.0
C1332 C 0.40227 0.05681 0.44311 0.0
C1333 C 0.38086 0.02459 0.45255 0.0
C1334 C 0.40055 0.00426 0.49009 0.0
H1335 H 0.33462 0.91548 0.52584 0.0
H1336 H 0.34651 0.94236 0.50187 0.0
H1337 H 0.40575 0.98477 0.50714 0.0
H1338 H 0.42689 0.07059 0.46343 0.0
H1339 H 0.41832 0.04359 0.48663 0.0
H1340 H 0.35807 0.00108 0.48545 0.0
C1341 C 0.35436 0.94323 0.51634 0.0
C1342 C 0.39528 0.98827 0.50251 0.0
C1343 C 0.34762 0.9278 0.53002 0.0
C1344 C 0.41398 0.05785 0.46023 0.0
C1345 C 0.40915 0.04236 0.4734 0.0
C1346 C 0.3686 0.9976 0.48985 0.0
C1347 C 0.37075 0.95976 0.5216 0.0
C1348 C 0.37659 0.97673 0.50846 0.0
C1349 C 0.39253 0.02556 0.46968 0.0
C1350 C 0.38723 0.00901 0.48351 0.0
H1351 H 0.3817 0.94586 0.56865 0.0
H1352 H 0.39347 0.97284 0.54467 0.0
H1353 H 0.3489 0.97322 0.5069 0.0
H1354 H 0.37636 0.03873 0.42634 0.0
H1355 H 0.36812 0.01178 0.44901 0.0
C1356 C 0.41689 0.35324 0.02696 0.0
C1357 C 0.42197 0.35927 0.04853 0.0
C1358 C 0.40799 0.36042 0.01422 0.0
C1359 C 0.39659 0.39843 0.01159 0.0
H1360 H 0.35526 0.36277 0.9765 0.0
C1361 C 0.35547 0.41989 0.95428 0.0
C1362 C 0.33629 0.40758 0.95182 0.0
C1363 C 0.36642 0.41472 0.96632 0.0
C1364 C 0.36662 0.37287 0.98641 0.0
H1365 H 0.42237 0.37807 0.07336 0.0
H1366 H 0.40653 0.3902 0.05142 0.0
H1367 H 0.37418 0.35285 0.99621 0.0
H1368 H 0.31339 0.38052 0.96088 0.0
H1369 H 0.3324 0.3717 0.98247 0.0
H1370 H 0.38853 0.41826 0.00252 0.0
C1371 C 0.40965 0.38018 0.04414 0.0
C1372 C 0.3777 0.36726 -0.00259 0.0
C1373 C 0.41866 0.37313 0.05679 0.0
C1374 C 0.32816 0.39026 0.96235 0.0
C1375 C 0.33909 0.38515 0.97456 0.0
C1376 C 0.38541 0.40401 0.00073 0.0
C1377 C 0.40389 0.37367 0.02284 0.0
C1378 C 0.39278 0.37995 0.0102 0.0
C1379 C 0.35841 0.39719 0.97635 0.0
C1380 C 0.37024 0.39127 0.98807 0.0
H1381 H 0.41938 0.34267 0.02008 0.0
H1382 H 0.40409 0.35538 -0.00229 0.0
H1383 H 0.40821 0.40863 0.0211 0.0
H1384 H 0.36219 0.43332 0.9463 0.0
H1385 H 0.38127 0.42426 0.96714 0.0
C1386 C 0.04562 0.42239 0.54966 0.0
C1387 C 0.06155 0.42112 0.54509 0.0
C1388 C 0.03019 0.41407 0.53586 0.0
C1389 C 0.008 0.37524 0.49781 0.0
H1390 H 0.97746 0.39665 0.48193 0.0
C1391 C 0.94795 0.33973 0.43677 0.0
C1392 C 0.93152 0.34014 0.44097 0.0
C1393 C 0.96376 0.35011 0.44945 0.0
C1394 C 0.98574 0.39041 0.48648 0.0
H1395 H 0.07427 0.41122 0.52175 0.0
H1396 H 0.04739 0.39683 0.49765 0.0
H1397 H 0.00584 0.41501 0.50314 0.0
H1398 H 0.91869 0.35157 0.46197 0.0
H1399 H 0.94631 0.36949 0.48446 0.0
H1400 H 0.9879 0.35059 0.48151 0.0
C1401 C 0.04672 0.40396 0.51209 0.0
C1402 C 0.002 0.40095 0.49852 0.0
C1403 C 0.06215 0.4123 0.52583 0.0
C1404 C 0.93116 0.35099 0.45832 0.0
C1405 C 0.94701 0.36136 0.47109 0.0
C1406 C 0.99175 0.36471 0.48589 0.0
C1407 C 0.03042 0.40433 0.51728 0.0
C1408 C 0.01334 0.39348 0.50418 0.0
C1409 C 0.9635 0.36108 0.46672 0.0
C1410 C 0.98047 0.37219 0.47998 0.0
H1411 H 0.04475 0.42916 0.56432 0.0
H1412 H 0.01779 0.41453 0.54028 0.0
H1413 H 0.01624 0.36897 0.50237 0.0
H1414 H 0.94874 0.33161 0.42344 0.0
H1415 H 0.97632 0.3498 0.44545 0.0
C1416 C 0.49615 0.11641 0.0952 0.0
C1417 C 0.49516 0.12954 0.10881 0.0
C1418 C 0.51229 0.11506 0.09453 0.0
C1419 C 0.5625 0.14281 0.10577 0.0
H1420 H 0.56119 0.09546 0.10577 0.0
C1421 C 0.62816 0.13833 0.12095 0.0
C1422 C 0.63127 0.12628 0.10781 0.0
C1423 C 0.61112 0.13782 0.12043 0.0
C1424 C 0.56175 0.10878 0.1055 0.0
H1425 H 0.51024 0.15113 0.13285 0.0
H1426 H 0.53816 0.14865 0.13176 0.0
H1427 H 0.53202 0.09612 0.10605 0.0
H1428 H 0.61867 0.10395 0.0841 0.0
H1429 H 0.58886 0.1032 0.08311 0.0
H1430 H 0.59211 0.15552 0.10529 0.0
C1431 C 0.5266 0.13963 0.12134 0.0
C1432 C 0.54507 0.10915 0.10566 0.0
C1433 C 0.51052 0.14097 0.12203 0.0
C1434 C 0.61676 0.11345 0.09441 0.0
C1435 C 0.59965 0.11295 0.0939 0.0
C1436 C 0.5791 0.14244 0.10559 0.0
C1437 C 0.52777 0.12684 0.1074 0.0
C1438 C 0.5453 0.12619 0.10611 0.0
C1439 C 0.59674 0.12529 0.10674 0.0
C1440 C 0.57894 0.12544 0.10576 0.0
H1441 H 0.48456 0.10736 0.08482 0.0
H1442 H 0.51282 0.10512 0.08356 0.0
H1443 H 0.56313 0.15616 0.1056 0.0
H1444 H 0.63893 0.14829 0.13162 0.0
H1445 H 0.60919 0.14726 0.13085 0.0
C1446 C 0.48796 0.62353 0.61703 0.0
C1447 C 0.50313 0.62872 0.60296 0.0
C1448 C 0.47292 0.60543 0.61691 0.0
C1449 C 0.44798 0.56422 0.58262 0.0
H1450 H 0.42505 0.54075 0.63741 0.0
C1451 C 0.38074 0.49183 0.58814 0.0
C1452 C 0.36719 0.4911 0.60253 0.0
C1453 C 0.39875 0.50726 0.58802 0.0
C1454 C 0.43127 0.54714 0.62197 0.0
H1455 H 0.51436 0.61883 0.5777 0.0
H1456 H 0.48788 0.58708 0.57744 0.0
H1457 H 0.4542 0.57029 0.63751 0.0
H1458 H 0.36206 0.50603 0.62815 0.0
H1459 H 0.39322 0.53276 0.62781 0.0
H1460 H 0.42471 0.54123 0.56711 0.0
C1461 C 0.48772 0.59715 0.58853 0.0
C1462 C 0.44795 0.56404 0.62204 0.0
C1463 C 0.5029 0.6153 0.58875 0.0
C1464 C 0.3721 0.50607 0.61684 0.0
C1465 C 0.39004 0.52137 0.61679 0.0
C1466 C 0.43122 0.54726 0.58256 0.0
C1467 C 0.47261 0.59204 0.60266 0.0
C1468 C 0.45623 0.573 0.60239 0.0
C1469 C 0.40358 0.52216 0.6024 0.0
C1470 C 0.42246 0.53881 0.60226 0.0
H1471 H 0.48763 0.63346 0.6282 0.0
H1472 H 0.46135 0.602 0.62774 0.0
H1473 H 0.45399 0.57086 0.56723 0.0
H1474 H 0.37743 0.48054 0.5769 0.0
H1475 H 0.40893 0.50747 0.5768 0.0
C1476 C 0.88466 0.38169 0.08474 0.0
C1477 C 0.86893 0.3673 0.09515 0.0
C1478 C 0.88629 0.39919 0.08182 0.0
C1479 C 0.85779 0.42177 0.07934 0.0
H1480 H 0.90226 0.46669 0.09769 0.0
C1481 C 0.85584 0.48673 0.10424 0.0
C1482 C 0.86994 0.50422 0.09706 0.0
C1483 C 0.85721 0.47089 0.10077 0.0
C1484 C 0.88989 0.45431 0.09213 0.0
H1485 H 0.84262 0.36008 0.11063 0.0
H1486 H 0.8455 0.39036 0.10553 0.0
H1487 H 0.902 0.43703 0.09724 0.0
H1488 H 0.89672 0.51877 0.0808 0.0
H1489 H 0.89915 0.49084 0.07491 0.0
H1490 H 0.84545 0.43879 0.07484 0.0
C1491 C 0.85649 0.38813 0.09946 0.0
C1492 C 0.88974 0.43736 0.09187 0.0
C1493 C 0.85493 0.37079 0.10253 0.0
C1494 C 0.8856 0.5055 0.0865 0.0
C1495 C 0.88703 0.48955 0.08317 0.0
C1496 C 0.85794 0.43862 0.07959 0.0
C1497 C 0.87212 0.40249 0.08902 0.0
C1498 C 0.87346 0.42085 0.08615 0.0
C1499 C 0.87273 0.47207 0.0901 0.0
C1500 C 0.87377 0.45495 0.08667 0.0
H1501 H 0.89571 0.37947 0.0789 0.0
H1502 H 0.89849 0.41004 0.07371 0.0
H1503 H 0.84519 0.40932 0.07439 0.0
H1504 H 0.84359 0.48518 0.11246 0.0
H1505 H 0.84613 0.45766 0.10667 0.0
C1506 C 0.36645 0.85284 0.61757 0.0
C1507 C 0.3631 0.86539 0.6058 0.0
C1508 C 0.38364 0.85373 0.61635 0.0
C1509 C 0.43297 0.88432 0.60301 0.0
H1510 H 0.4326 0.83755 0.5982 0.0
C1511 C 0.49995 0.87888 0.59349 0.0
C1512 C 0.50054 0.86507 0.60617 0.0
C1513 C 0.48361 0.87986 0.59222 0.0
C1514 C 0.43294 0.85072 0.5997 0.0
H1515 H 0.37546 0.88902 0.58383 0.0
H1516 H 0.40561 0.89051 0.5817 0.0
H1517 H 0.40332 0.83763 0.59814 0.0
H1518 H 0.48449 0.84175 0.62783 0.0
H1519 H 0.45625 0.84357 0.62571 0.0
H1520 H 0.4627 0.89735 0.6048 0.0
C1521 C 0.39484 0.88002 0.59191 0.0
C1522 C 0.41617 0.85077 0.59966 0.0
C1523 C 0.37755 0.87911 0.59307 0.0
C1524 C 0.48455 0.85249 0.61778 0.0
C1525 C 0.46828 0.85345 0.61647 0.0
C1526 C 0.44982 0.88428 0.60305 0.0
C1527 C 0.39797 0.86718 0.60335 0.0
C1528 C 0.41596 0.86751 0.60173 0.0
C1529 C 0.46755 0.867 0.60352 0.0
C1530 C 0.44993 0.86742 0.60181 0.0
H1531 H 0.35573 0.84216 0.62765 0.0
H1532 H 0.38574 0.84386 0.62569 0.0
H1533 H 0.43323 0.89743 0.60472 0.0
H1534 H 0.51203 0.88881 0.58436 0.0
H1535 H 0.48343 0.89041 0.58204 0.0
C1536 C 0.61582 0.50658 0.09801 0.0
C1537 C 0.63173 0.50482 0.10014 0.0
C1538 C 0.59806 0.49077 0.0983 0.0
C1539 C 0.56202 0.45432 0.08973 0.0
H1540 H 0.55585 0.4137 0.12647 0.0
C1541 C 0.497 0.38067 0.08563 0.0
C1542 C 0.49183 0.36962 0.10444 0.0
C1543 C 0.51299 0.39827 0.08559 0.0
C1544 C 0.55711 0.42496 0.1164 0.0
H1545 H 0.64162 0.48518 0.10298 0.0
H1546 H 0.61092 0.45775 0.10253 0.0
H1547 H 0.58547 0.44213 0.12557 0.0
H1548 H 0.49837 0.36873 0.13838 0.0
H1549 H 0.52558 0.39969 0.13875 0.0
H1550 H 0.53328 0.43728 0.08133 0.0
C1551 C 0.61195 0.47125 0.1016 0.0
C1552 C 0.57433 0.44123 0.11554 0.0
C1553 C 0.6296 0.48699 0.1017 0.0
C1554 C 0.50226 0.37685 0.12354 0.0
C1555 C 0.51795 0.39456 0.12366 0.0
C1556 C 0.54463 0.43808 0.09086 0.0
C1557 C 0.59591 0.47291 0.1004 0.0
C1558 C 0.57714 0.45602 0.10193 0.0
C1559 C 0.5239 0.4053 0.10452 0.0
C1560 C 0.542 0.4231 0.10406 0.0
H1561 H 0.61708 0.52018 0.09683 0.0
H1562 H 0.58604 0.49261 0.0975 0.0
H1563 H 0.56368 0.46538 0.07898 0.0
H1564 H 0.48918 0.37538 0.07067 0.0
H1565 H 0.51717 0.40599 0.07048 0.0
C1566 C 0.13337 0.50279 0.61874 0.0
C1567 C 0.12257 0.48785 0.60468 0.0
C1568 C 0.13149 0.51856 0.61883 0.0
C1569 C 0.11641 0.54516 0.58532 0.0
H1570 H 0.11842 0.56899 0.64036 0.0
C1571 C 0.11275 0.61312 0.592 0.0
C1572 C 0.12617 0.62674 0.60581 0.0
C1573 C 0.10999 0.59505 0.59177 0.0
C1574 C 0.1179 0.56253 0.62485 0.0
H1575 H 0.10123 0.47784 0.57968 0.0
H1576 H 0.09796 0.50551 0.5799 0.0
H1577 H 0.11772 0.5393 0.64011 0.0
H1578 H 0.14709 0.63194 0.63032 0.0
H1579 H 0.1423 0.60063 0.62983 0.0
H1580 H 0.11694 0.56864 0.57009 0.0
C1581 C 0.10796 0.50496 0.59075 0.0
C1582 C 0.11751 0.54554 0.62471 0.0
C1583 C 0.1098 0.48909 0.5907 0.0
C1584 C 0.13663 0.62184 0.61947 0.0
C1585 C 0.13379 0.60383 0.61933 0.0
C1586 C 0.11678 0.56219 0.58547 0.0
C1587 C 0.11877 0.51984 0.60488 0.0
C1588 C 0.11719 0.53687 0.60494 0.0
C1589 C 0.12046 0.59023 0.60549 0.0
C1590 C 0.11797 0.57125 0.60524 0.0
H1591 H 0.14338 0.50237 0.6297 0.0
H1592 H 0.14026 0.52992 0.62964 0.0
H1593 H 0.11628 0.53887 0.56982 0.0
H1594 H 0.10446 0.61643 0.58126 0.0
H1595 H 0.09956 0.58481 0.58101 0.0
C1596 C 0.85347 0.48554 0.38805 0.0
C1597 C 0.86776 0.50253 0.39622 0.0
C1598 C 0.85418 0.46924 0.39063 0.0
C1599 C 0.88602 0.45136 0.39906 0.0
H1600 H 0.84033 0.40589 0.41287 0.0
C1601 C 0.88071 0.37881 0.40509 0.0
C1602 C 0.86545 0.36451 0.39391 0.0
C1603 C 0.88203 0.39616 0.4081 0.0
C1604 C 0.85319 0.41847 0.40896 0.0
H1605 H 0.89414 0.51567 0.41343 0.0
H1606 H 0.89538 0.487 0.41786 0.0
H1607 H 0.84083 0.43547 0.41341 0.0
H1608 H 0.83965 0.35731 0.37717 0.0
H1609 H 0.84202 0.38737 0.38239 0.0
H1610 H 0.89824 0.43417 0.39414 0.0
C1611 C 0.88364 0.48643 0.40944 0.0
C1612 C 0.85348 0.43539 0.40926 0.0
C1613 C 0.88288 0.50281 0.40696 0.0
C1614 C 0.85159 0.36795 0.38587 0.0
C1615 C 0.85286 0.38516 0.38901 0.0
C1616 C 0.88574 0.43436 0.39877 0.0
C1617 C 0.86922 0.46947 0.4014 0.0
C1618 C 0.86974 0.45196 0.40374 0.0
C1619 C 0.86804 0.39944 0.4002 0.0
C1620 C 0.86916 0.4177 0.40314 0.0
H1621 H 0.84162 0.48476 0.37965 0.0
H1622 H 0.84302 0.45645 0.3839 0.0
H1623 H 0.89874 0.4639 0.39464 0.0
H1624 H 0.89164 0.37664 0.41146 0.0
H1625 H 0.89387 0.40692 0.41683 0.0
C1626 C 0.49696 0.88131 0.9042 0.0
C1627 C 0.49689 0.86682 0.89223 0.0
C1628 C 0.48087 0.88273 0.90561 0.0
C1629 C 0.42991 0.85439 0.89993 0.0
H1630 H 0.43157 0.9015 0.8916 0.0
C1631 C 0.36438 0.8579 0.88055 0.0
C1632 C 0.36168 0.87139 0.89113 0.0
C1633 C 0.38128 0.85821 0.88223 0.0
C1634 C 0.43093 0.8883 0.89426 0.0
H1635 H 0.47986 0.84261 0.87214 0.0
H1636 H 0.45205 0.84518 0.87452 0.0
H1637 H 0.46055 0.90048 0.89189 0.0
H1638 H 0.37488 0.89604 0.91151 0.0
H1639 H 0.40452 0.89653 0.91445 0.0
H1640 H 0.40038 0.84214 0.90203 0.0
C1641 C 0.46442 0.85529 0.88306 0.0
C1642 C 0.4475 0.88772 0.89442 0.0
C1643 C 0.48045 0.85391 0.8816 0.0
C1644 C 0.37647 0.88542 0.90318 0.0
C1645 C 0.39347 0.88575 0.9048 0.0
C1646 C 0.41341 0.85498 0.89976 0.0
C1647 C 0.46439 0.86962 0.89519 0.0
C1648 C 0.44711 0.87068 0.89683 0.0
C1649 C 0.39596 0.87203 0.89452 0.0
C1650 C 0.4137 0.87186 0.8965 0.0
H1651 H 0.50939 0.89151 0.91258 0.0
H1652 H 0.48122 0.89387 0.91515 0.0
H1653 H 0.42918 0.84112 0.90232 0.0
H1654 H 0.35338 0.84694 0.87102 0.0
H1655 H 0.38288 0.84765 0.87377 0.0
C1656 C 0.51169 0.36643 0.38014 0.0
C1657 C 0.49473 0.3634 0.38884 0.0
C1658 C 0.52798 0.38341 0.38312 0.0
C1659 C 0.5459 0.43277 0.39432 0.0
H1660 H 0.59114 0.432 0.408 0.0
C1661 C 0.61791 0.49985 0.4051 0.0
C1662 C 0.63279 0.49957 0.39446 0.0
C1663 C 0.60055 0.48361 0.40679 0.0
C1664 C 0.57865 0.43246 0.40409 0.0
H1665 H 0.48159 0.37604 0.40728 0.0
H1666 H 0.51021 0.40586 0.41238 0.0
H1667 H 0.56161 0.40293 0.40655 0.0
H1668 H 0.64099 0.48193 0.37723 0.0
H1669 H 0.6109 0.45389 0.38007 0.0
H1670 H 0.56311 0.46235 0.39139 0.0
C1671 C 0.51077 0.39498 0.40326 0.0
C1672 C 0.56174 0.41581 0.40326 0.0
C1673 C 0.49442 0.37789 0.4004 0.0
C1674 C 0.62991 0.48271 0.3856 0.0
C1675 C 0.61266 0.46655 0.38736 0.0
C1676 C 0.56289 0.44949 0.39511 0.0
C1677 C 0.52774 0.39783 0.3948 0.0
C1678 C 0.54526 0.41574 0.39787 0.0
C1679 C 0.59779 0.46678 0.39801 0.0
C1680 C 0.57949 0.44944 0.3995 0.0
H1681 H 0.51249 0.35564 0.37111 0.0
H1682 H 0.54078 0.38529 0.37607 0.0
H1683 H 0.53342 0.43312 0.39004 0.0
H1684 H 0.61963 0.51259 0.4121 0.0
H1685 H 0.58936 0.48418 0.41518 0.0
C1686 C 0.11065 0.49713 0.90901 0.0
C1687 C 0.11779 0.49492 0.88919 0.0
C1688 C 0.10811 0.51241 0.91223 0.0
C1689 C 0.12147 0.55454 0.91628 0.0
H1690 H 0.09582 0.569 0.87469 0.0
C1691 C 0.13928 0.62981 0.89929 0.0
C1692 C 0.12455 0.63357 0.89924 0.0
C1693 C 0.13576 0.61159 0.90129 0.0
C1694 C 0.10281 0.56499 0.88658 0.0
H1695 H 0.12695 0.50632 0.85685 0.0
H1696 H 0.12202 0.53268 0.86231 0.0
H1697 H 0.0937 0.53855 0.87136 0.0
H1698 H 0.0946 0.62128 0.90141 0.0
H1699 H 0.0884 0.58918 0.90411 0.0
H1700 H 0.13153 0.58144 0.93067 0.0
C1701 C 0.11861 0.52274 0.8754 0.0
C1702 C 0.10166 0.54767 0.88462 0.0
C1703 C 0.12155 0.50776 0.87234 0.0
C1704 C 0.10621 0.61876 0.90149 0.0
C1705 C 0.10265 0.60045 0.90297 0.0
C1706 C 0.12293 0.572 0.91796 0.0
C1707 C 0.11221 0.52539 0.89548 0.0
C1708 C 0.11125 0.54246 0.89924 0.0
C1709 C 0.11742 0.59676 0.90283 0.0
C1710 C 0.11387 0.57747 0.90289 0.0
H1711 H 0.10767 0.48745 0.92228 0.0
H1712 H 0.10317 0.51422 0.92785 0.0
H1713 H 0.1291 0.55085 0.92763 0.0
H1714 H 0.15356 0.64096 0.8977 0.0
H1715 H 0.14734 0.60903 0.90095 0.0
C1716 C 0.61189 0.10771 0.40193 0.0
C1717 C 0.62585 0.12104 0.38836 0.0
C1718 C 0.59402 0.10553 0.40207 0.0
C1719 C 0.56265 0.11509 0.36885 0.0
H1720 H 0.53823 0.11271 0.42355 0.0
C1721 C 0.504 0.13216 0.37471 0.0
C1722 C 0.4886 0.12115 0.38808 0.0
C1723 C 0.51954 0.12987 0.37483 0.0
C1724 C 0.54473 0.11306 0.40814 0.0
H1725 H 0.63188 0.1425 0.36431 0.0
H1726 H 0.60096 0.13874 0.36469 0.0
H1727 H 0.5677 0.11271 0.42363 0.0
H1728 H 0.47754 0.09907 0.41216 0.0
H1729 H 0.50484 0.09511 0.41235 0.0
H1730 H 0.53996 0.11581 0.35335 0.0
C1731 C 0.60371 0.12983 0.37503 0.0
C1732 C 0.5616 0.11306 0.40819 0.0
C1733 C 0.62152 0.13207 0.37495 0.0
C1734 C 0.48916 0.10778 0.40165 0.0
C1735 C 0.50481 0.10555 0.40184 0.0
C1736 C 0.54585 0.11509 0.3688 0.0
C1737 C 0.58975 0.11652 0.38853 0.0
C1738 C 0.57094 0.11451 0.38855 0.0
C1739 C 0.52013 0.11654 0.38835 0.0
C1740 C 0.53691 0.11451 0.38846 0.0
H1741 H 0.61475 0.09899 0.41247 0.0
H1742 H 0.58351 0.0951 0.41258 0.0
H1743 H 0.56931 0.1158 0.35343 0.0
H1744 H 0.50412 0.14262 0.36407 0.0
H1745 H 0.53124 0.13878 0.36453 0.0
C1746 C 0.48378 0.62689 0.89073 0.0
C1747 C 0.50207 0.63009 0.89165 0.0
C1748 C 0.46868 0.60886 0.89231 0.0
C1749 C 0.45348 0.5619 0.87831 0.0
H1750 H 0.41396 0.5489 0.9204 0.0
C1751 C 0.37876 0.4945 0.90419 0.0
C1752 C 0.36871 0.49145 0.88474 0.0
C1753 C 0.39648 0.5101 0.90643 0.0
C1754 C 0.42499 0.55229 0.90873 0.0
H1755 H 0.51894 0.617 0.89496 0.0
H1756 H 0.4923 0.58521 0.89689 0.0
H1757 H 0.44245 0.57929 0.92257 0.0
H1758 H 0.36959 0.50181 0.85212 0.0
H1759 H 0.4008 0.52879 0.8559 0.0
H1760 H 0.43556 0.53531 0.86371 0.0
C1761 C 0.48981 0.59679 0.89532 0.0
C1762 C 0.44119 0.56963 0.90992 0.0
C1763 C 0.50497 0.61491 0.89428 0.0
C1764 C 0.37698 0.50388 0.86732 0.0
C1765 C 0.39485 0.51922 0.86942 0.0
C1766 C 0.4371 0.5447 0.87682 0.0
C1767 C 0.47157 0.59367 0.89436 0.0
C1768 C 0.45544 0.57464 0.89457 0.0
C1769 C 0.4046 0.52262 0.8891 0.0
C1770 C 0.42265 0.53988 0.89187 0.0
H1771 H 0.48114 0.63834 0.88884 0.0
H1772 H 0.4547 0.60673 0.89139 0.0
H1773 H 0.46427 0.56557 0.86621 0.0
H1774 H 0.3727 0.48518 0.9179 0.0
H1775 H 0.40379 0.51248 0.92176 0.0
loop_
_geom_bond_atom_site_label_1
_geom_bond_atom_site_label_2
_geom_bond_distance
_geom_bond_site_symmetry_2
_ccdc_geom_bond_type
Mg0 O1 2.028 . S
Mg0 O7 1.986 . S
Mg0 O9 2.114 . S
Mg0 O10 2.251 . S
Mg0 O13 2.010 . S
O1 Mg0 2.028 . S
O1 C4 1.250 . S
O2 Mg3 2.028 . S
O2 C4 1.248 . S
Mg3 O2 2.028 . S
Mg3 O8 2.032 . S
Mg3 O10 2.079 . S
C4 O1 1.250 . S
C4 O2 1.248 . S
C5 O6 1.264 . S
C5 O13 1.249 . S
O6 C5 1.264 . S
O7 Mg0 1.986 . S
O7 C11 1.246 . S
O8 Mg3 2.032 . S
O8 C11 1.259 . S
O9 Mg0 2.114 . S
O9 C12 1.252 . S
O10 Mg0 2.251 . S
O10 Mg3 2.079 . S
O10 C12 1.273 . S
C11 O7 1.246 . S
C11 O8 1.259 . S
C12 O9 1.252 . S
C12 O10 1.273 . S
O13 Mg0 2.010 . S
O13 C5 1.249 . S
Mg14 O15 2.028 . S
Mg14 O21 1.986 . S
Mg14 O23 2.114 . S
Mg14 O24 2.251 . S
Mg14 O27 2.010 . S
O15 Mg14 2.028 . S
O15 C18 1.250 . S
O16 Mg17 2.028 . S
O16 C18 1.248 . S
Mg17 O16 2.028 . S
Mg17 O22 2.032 . S
Mg17 O24 2.079 . S
C18 O15 1.250 . S
C18 O16 1.248 . S
C19 O20 1.264 . S
C19 O27 1.249 . S
O20 C19 1.264 . S
O21 Mg14 1.986 . S
O21 C25 1.246 . S
O22 Mg17 2.032 . S
O22 C25 1.259 . S
O23 Mg14 2.114 . S
O23 C26 1.252 . S
O24 Mg14 2.251 . S
O24 Mg17 2.079 . S
O24 C26 1.273 . S
C25 O21 1.246 . S
C25 O22 1.259 . S
C26 O23 1.252 . S
C26 O24 1.273 . S
O27 Mg14 2.010 . S
O27 C19 1.249 . S
Mg28 O29 2.028 . S
Mg28 O35 1.986 . S
Mg28 O37 2.114 . S
Mg28 O38 2.251 . S
Mg28 O41 2.010 . S
O29 Mg28 2.028 . S
O29 C32 1.250 . S
O30 Mg31 2.028 . S
O30 C32 1.248 . S
Mg31 O30 2.028 . S
Mg31 O36 2.032 . S
Mg31 O38 2.079 . S
C32 O29 1.250 . S
C32 O30 1.248 . S
C33 O34 1.264 . S
C33 O41 1.249 . S
O34 C33 1.264 . S
O35 Mg28 1.986 . S
O35 C39 1.246 . S
O36 Mg31 2.032 . S
O36 C39 1.259 . S
O37 Mg28 2.114 . S
O37 C40 1.252 . S
O38 Mg28 2.251 . S
O38 Mg31 2.079 . S
O38 C40 1.273 . S
C39 O35 1.246 . S
C39 O36 1.259 . S
C40 O37 1.252 . S
C40 O38 1.273 . S
O41 Mg28 2.010 . S
O41 C33 1.249 . S
Mg42 O43 2.028 . S
Mg42 O49 1.986 . S
Mg42 O51 2.114 . S
Mg42 O52 2.251 . S
Mg42 O55 2.010 . S
O43 Mg42 2.028 . S
O43 C46 1.250 . S
O44 Mg45 2.028 . S
O44 C46 1.248 . S
Mg45 O44 2.028 . S
Mg45 O50 2.032 . S
Mg45 O52 2.079 . S
C46 O43 1.250 . S
C46 O44 1.248 . S
C47 O48 1.264 . S
C47 O55 1.249 . S
O48 C47 1.264 . S
O49 Mg42 1.986 . S
O49 C53 1.246 . S
O50 Mg45 2.032 . S
O50 C53 1.259 . S
O51 Mg42 2.114 . S
O51 C54 1.252 . S
O52 Mg42 2.251 . S
O52 Mg45 2.079 . S
O52 C54 1.273 . S
C53 O49 1.246 . S
C53 O50 1.259 . S
C54 O51 1.252 . S
C54 O52 1.273 . S
O55 Mg42 2.010 . S
O55 C47 1.249 . S
Mg56 O57 2.028 . S
Mg56 O63 1.986 . S
Mg56 O65 2.114 . S
Mg56 O66 2.251 . S
Mg56 O69 2.010 . S
O57 Mg56 2.028 . S
O57 C60 1.250 . S
O58 Mg59 2.028 . S
O58 C60 1.248 . S
Mg59 O58 2.028 . S
Mg59 O64 2.032 . S
Mg59 O66 2.079 . S
C60 O57 1.250 . S
C60 O58 1.248 . S
C61 O62 1.264 . S
C61 O69 1.249 . S
O62 C61 1.264 . S
O63 Mg56 1.986 . S
O63 C67 1.246 . S
O64 Mg59 2.032 . S
O64 C67 1.259 . S
O65 Mg56 2.114 . S
O65 C68 1.252 . S
O66 Mg56 2.251 . S
O66 Mg59 2.079 . S
O66 C68 1.273 . S
C67 O63 1.246 . S
C67 O64 1.259 . S
C68 O65 1.252 . S
C68 O66 1.273 . S
O69 Mg56 2.010 . S
O69 C61 1.249 . S
Mg70 O71 2.028 . S
Mg70 O77 1.986 . S
Mg70 O79 2.114 . S
Mg70 O80 2.251 . S
Mg70 O83 2.010 . S
O71 Mg70 2.028 . S
O71 C74 1.250 . S
O72 Mg73 2.028 . S
O72 C74 1.248 . S
Mg73 O72 2.028 . S
Mg73 O78 2.032 . S
Mg73 O80 2.079 . S
C74 O71 1.250 . S
C74 O72 1.248 . S
C75 O76 1.264 . S
C75 O83 1.249 . S
O76 C75 1.264 . S
O77 Mg70 1.986 . S
O77 C81 1.246 . S
O78 Mg73 2.032 . S
O78 C81 1.259 . S
O79 Mg70 2.114 . S
O79 C82 1.252 . S
O80 Mg70 2.251 . S
O80 Mg73 2.079 . S
O80 C82 1.273 . S
C81 O77 1.246 . S
C81 O78 1.259 . S
C82 O79 1.252 . S
C82 O80 1.273 . S
O83 Mg70 2.010 . S
O83 C75 1.249 . S
Mg84 O85 2.028 . S
Mg84 O91 1.986 . S
Mg84 O93 2.114 . S
Mg84 O94 2.251 . S
Mg84 O97 2.010 . S
O85 Mg84 2.028 . S
O85 C88 1.250 . S
O86 Mg87 2.028 . S
O86 C88 1.248 . S
Mg87 O86 2.028 . S
Mg87 O92 2.032 . S
Mg87 O94 2.079 . S
C88 O85 1.250 . S
C88 O86 1.248 . S
C89 O90 1.264 . S
C89 O97 1.249 . S
O90 C89 1.264 . S
O91 Mg84 1.986 . S
O91 C95 1.246 . S
O92 Mg87 2.032 . S
O92 C95 1.259 . S
O93 Mg84 2.114 . S
O93 C96 1.252 . S
O94 Mg84 2.251 . S
O94 Mg87 2.079 . S
O94 C96 1.273 . S
C95 O91 1.246 . S
C95 O92 1.259 . S
C96 O93 1.252 . S
C96 O94 1.273 . S
O97 Mg84 2.010 . S
O97 C89 1.249 . S
Mg98 O99 2.028 . S
Mg98 O105 1.986 . S
Mg98 O107 2.114 . S
Mg98 O108 2.251 . S
Mg98 O111 2.010 . S
O99 Mg98 2.028 . S
O99 C102 1.250 . S
O100 Mg101 2.028 . S
O100 C102 1.248 . S
Mg101 O100 2.028 . S
Mg101 O106 2.032 . S
Mg101 O108 2.079 . S
C102 O99 1.250 . S
C102 O100 1.248 . S
C103 O104 1.264 . S
C103 O111 1.249 . S
O104 C103 1.264 . S
O105 Mg98 1.986 . S
O105 C109 1.246 . S
O106 Mg101 2.032 . S
O106 C109 1.259 . S
O107 Mg98 2.114 . S
O107 C110 1.252 . S
O108 Mg98 2.251 . S
O108 Mg101 2.079 . S
O108 C110 1.273 . S
C109 O105 1.246 . S
C109 O106 1.259 . S
C110 O107 1.252 . S
C110 O108 1.273 . S
O111 Mg98 2.010 . S
O111 C103 1.249 . S
Mg112 O113 2.028 . S
Mg112 O119 1.986 . S
Mg112 O121 2.114 . S
Mg112 O122 2.251 . S
Mg112 O125 2.010 . S
O113 Mg112 2.028 . S
O113 C116 1.250 . S
O114 Mg115 2.028 . S
O114 C116 1.248 . S
Mg115 O114 2.028 . S
Mg115 O120 2.032 . S
Mg115 O122 2.079 . S
C116 O113 1.250 . S
C116 O114 1.248 . S
C117 O118 1.264 . S
C117 O125 1.249 . S
O118 C117 1.264 . S
O119 Mg112 1.986 . S
O119 C123 1.246 . S
O120 Mg115 2.032 . S
O120 C123 1.259 . S
O121 Mg112 2.114 . S
O121 C124 1.252 . S
O122 Mg112 2.251 . S
O122 Mg115 2.079 . S
O122 C124 1.273 . S
C123 O119 1.246 . S
C123 O120 1.259 . S
C124 O121 1.252 . S
C124 O122 1.273 . S
O125 Mg112 2.010 . S
O125 C117 1.249 . S
Mg126 O127 2.028 . S
Mg126 O133 1.986 . S
Mg126 O135 2.114 . S
Mg126 O136 2.251 . S
Mg126 O139 2.010 . S
O127 Mg126 2.028 . S
O127 C130 1.250 . S
O128 Mg129 2.028 . S
O128 C130 1.248 . S
Mg129 O128 2.028 . S
Mg129 O134 2.032 . S
Mg129 O136 2.079 . S
C130 O127 1.250 . S
C130 O128 1.248 . S
C131 O132 1.264 . S
C131 O139 1.249 . S
O132 C131 1.264 . S
O133 Mg126 1.986 . S
O133 C137 1.246 . S
O134 Mg129 2.032 . S
O134 C137 1.259 . S
O135 Mg126 2.114 . S
O135 C138 1.252 . S
O136 Mg126 2.251 . S
O136 Mg129 2.079 . S
O136 C138 1.273 . S
C137 O133 1.246 . S
C137 O134 1.259 . S
C138 O135 1.252 . S
C138 O136 1.273 . S
O139 Mg126 2.010 . S
O139 C131 1.249 . S
Mg140 O141 2.028 . S
Mg140 O147 1.986 . S
Mg140 O149 2.114 . S
Mg140 O150 2.251 . S
Mg140 O153 2.010 . S
O141 Mg140 2.028 . S
O141 C144 1.250 . S
O142 Mg143 2.028 . S
O142 C144 1.248 . S
Mg143 O142 2.028 . S
Mg143 O148 2.032 . S
Mg143 O150 2.079 . S
C144 O141 1.250 . S
C144 O142 1.248 . S
C145 O146 1.264 . S
C145 O153 1.249 . S
O146 C145 1.264 . S
O147 Mg140 1.986 . S
O147 C151 1.246 . S
O148 Mg143 2.032 . S
O148 C151 1.259 . S
O149 Mg140 2.114 . S
O149 C152 1.252 . S
O150 Mg140 2.251 . S
O150 Mg143 2.079 . S
O150 C152 1.273 . S
C151 O147 1.246 . S
C151 O148 1.259 . S
C152 O149 1.252 . S
C152 O150 1.273 . S
O153 Mg140 2.010 . S
O153 C145 1.249 . S
Mg154 O155 2.028 . S
Mg154 O161 1.986 . S
Mg154 O163 2.114 . S
Mg154 O164 2.251 . S
Mg154 O167 2.010 . S
O155 Mg154 2.028 . S
O155 C158 1.250 . S
O156 Mg157 2.028 . S
O156 C158 1.248 . S
Mg157 O156 2.028 . S
Mg157 O162 2.032 . S
Mg157 O164 2.079 . S
C158 O155 1.250 . S
C158 O156 1.248 . S
C159 O160 1.264 . S
C159 O167 1.249 . S
O160 C159 1.264 . S
O161 Mg154 1.986 . S
O161 C165 1.246 . S
O162 Mg157 2.032 . S
O162 C165 1.259 . S
O163 Mg154 2.114 . S
O163 C166 1.252 . S
O164 Mg154 2.251 . S
O164 Mg157 2.079 . S
O164 C166 1.273 . S
C165 O161 1.246 . S
C165 O162 1.259 . S
C166 O163 1.252 . S
C166 O164 1.273 . S
O167 Mg154 2.010 . S
O167 C159 1.249 . S
Mg168 O169 2.028 . S
Mg168 O175 1.986 . S
Mg168 O177 2.114 . S
Mg168 O178 2.251 . S
Mg168 O181 2.010 . S
O169 Mg168 2.028 . S
O169 C172 1.250 . S
O170 Mg171 2.028 . S
O170 C172 1.248 . S
Mg171 O170 2.028 . S
Mg171 O176 2.032 . S
Mg171 O178 2.079 . S
C172 O169 1.250 . S
C172 O170 1.248 . S
C173 O174 1.264 . S
C173 O181 1.249 . S
O174 C173 1.264 . S
O175 Mg168 1.986 . S
O175 C179 1.246 . S
O176 Mg171 2.032 . S
O176 C179 1.259 . S
O177 Mg168 2.114 . S
O177 C180 1.252 . S
O178 Mg168 2.251 . S
O178 Mg171 2.079 . S
O178 C180 1.273 . S
C179 O175 1.246 . S
C179 O176 1.259 . S
C180 O177 1.252 . S
C180 O178 1.273 . S
O181 Mg168 2.010 . S
O181 C173 1.249 . S
Mg182 O183 2.028 . S
Mg182 O189 1.986 . S
Mg182 O191 2.114 . S
Mg182 O192 2.251 . S
Mg182 O195 2.010 . S
O183 Mg182 2.028 . S
O183 C186 1.250 . S
O184 Mg185 2.028 . S
O184 C186 1.248 . S
Mg185 O184 2.028 . S
Mg185 O190 2.032 . S
Mg185 O192 2.079 . S
C186 O183 1.250 . S
C186 O184 1.248 . S
C187 O188 1.264 . S
C187 O195 1.249 . S
O188 C187 1.264 . S
O189 Mg182 1.986 . S
O189 C193 1.246 . S
O190 Mg185 2.032 . S
O190 C193 1.259 . S
O191 Mg182 2.114 . S
O191 C194 1.252 . S
O192 Mg182 2.251 . S
O192 Mg185 2.079 . S
O192 C194 1.273 . S
C193 O189 1.246 . S
C193 O190 1.259 . S
C194 O191 1.252 . S
C194 O192 1.273 . S
O195 Mg182 2.010 . S
O195 C187 1.249 . S
Mg196 O197 2.028 . S
Mg196 O203 1.986 . S
Mg196 O205 2.114 . S
Mg196 O206 2.251 . S
Mg196 O209 2.010 . S
O197 Mg196 2.028 . S
O197 C200 1.250 . S
O198 Mg199 2.028 . S
O198 C200 1.248 . S
Mg199 O198 2.028 . S
Mg199 O204 2.032 . S
Mg199 O206 2.079 . S
C200 O197 1.250 . S
C200 O198 1.248 . S
C201 O202 1.264 . S
C201 O209 1.249 . S
O202 C201 1.264 . S
O203 Mg196 1.986 . S
O203 C207 1.246 . S
O204 Mg199 2.032 . S
O204 C207 1.259 . S
O205 Mg196 2.114 . S
O205 C208 1.252 . S
O206 Mg196 2.251 . S
O206 Mg199 2.079 . S
O206 C208 1.273 . S
C207 O203 1.246 . S
C207 O204 1.259 . S
C208 O205 1.252 . S
C208 O206 1.273 . S
O209 Mg196 2.010 . S
O209 C201 1.249 . S
Mg210 O211 2.028 . S
Mg210 O217 1.986 . S
Mg210 O219 2.114 . S
Mg210 O220 2.251 . S
Mg210 O223 2.010 . S
O211 Mg210 2.028 . S
O211 C214 1.250 . S
O212 Mg213 2.028 . S
O212 C214 1.248 . S
Mg213 O212 2.028 . S
Mg213 O218 2.032 . S
Mg213 O220 2.079 . S
C214 O211 1.250 . S
C214 O212 1.248 . S
C215 O216 1.264 . S
C215 O223 1.249 . S
O216 C215 1.264 . S
O217 Mg210 1.986 . S
O217 C221 1.246 . S
O218 Mg213 2.032 . S
O218 C221 1.259 . S
O219 Mg210 2.114 . S
O219 C222 1.252 . S
O220 Mg210 2.251 . S
O220 Mg213 2.079 . S
O220 C222 1.273 . S
C221 O217 1.246 . S
C221 O218 1.259 . S
C222 O219 1.252 . S
C222 O220 1.273 . S
O223 Mg210 2.010 . S
O223 C215 1.249 . S
Mg224 O225 2.028 . S
Mg224 O231 1.986 . S
Mg224 O233 2.114 . S
Mg224 O234 2.251 . S
Mg224 O237 2.010 . S
O225 Mg224 2.028 . S
O225 C228 1.250 . S
O226 Mg227 2.028 . S
O226 C228 1.248 . S
Mg227 O226 2.028 . S
Mg227 O232 2.032 . S
Mg227 O234 2.079 . S
C228 O225 1.250 . S
C228 O226 1.248 . S
C229 O230 1.264 . S
C229 O237 1.249 . S
O230 C229 1.264 . S
O231 Mg224 1.986 . S
O231 C235 1.246 . S
O232 Mg227 2.032 . S
O232 C235 1.259 . S
O233 Mg224 2.114 . S
O233 C236 1.252 . S
O234 Mg224 2.251 . S
O234 Mg227 2.079 . S
O234 C236 1.273 . S
C235 O231 1.246 . S
C235 O232 1.259 . S
C236 O233 1.252 . S
C236 O234 1.273 . S
O237 Mg224 2.010 . S
O237 C229 1.249 . S
Mg238 O239 2.028 . S
Mg238 O245 1.986 . S
Mg238 O247 2.114 . S
Mg238 O248 2.251 . S
Mg238 O251 2.010 . S
O239 Mg238 2.028 . S
O239 C242 1.250 . S
O240 Mg241 2.028 . S
O240 C242 1.248 . S
Mg241 O240 2.028 . S
Mg241 O246 2.032 . S
Mg241 O248 2.079 . S
C242 O239 1.250 . S
C242 O240 1.248 . S
C243 O244 1.264 . S
C243 O251 1.249 . S
O244 C243 1.264 . S
O245 Mg238 1.986 . S
O245 C249 1.246 . S
O246 Mg241 2.032 . S
O246 C249 1.259 . S
O247 Mg238 2.114 . S
O247 C250 1.252 . S
O248 Mg238 2.251 . S
O248 Mg241 2.079 . S
O248 C250 1.273 . S
C249 O245 1.246 . S
C249 O246 1.259 . S
C250 O247 1.252 . S
C250 O248 1.273 . S
O251 Mg238 2.010 . S
O251 C243 1.249 . S
Mg252 O253 2.028 . S
Mg252 O259 1.986 . S
Mg252 O261 2.114 . S
Mg252 O262 2.251 . S
Mg252 O265 2.010 . S
O253 Mg252 2.028 . S
O253 C256 1.250 . S
O254 Mg255 2.028 . S
O254 C256 1.248 . S
Mg255 O254 2.028 . S
Mg255 O260 2.032 . S
Mg255 O262 2.079 . S
C256 O253 1.250 . S
C256 O254 1.248 . S
C257 O258 1.264 . S
C257 O265 1.249 . S
O258 C257 1.264 . S
O259 Mg252 1.986 . S
O259 C263 1.246 . S
O260 Mg255 2.032 . S
O260 C263 1.259 . S
O261 Mg252 2.114 . S
O261 C264 1.252 . S
O262 Mg252 2.251 . S
O262 Mg255 2.079 . S
O262 C264 1.273 . S
C263 O259 1.246 . S
C263 O260 1.259 . S
C264 O261 1.252 . S
C264 O262 1.273 . S
O265 Mg252 2.010 . S
O265 C257 1.249 . S
Mg266 O267 2.028 . S
Mg266 O273 1.986 . S
Mg266 O275 2.114 . S
Mg266 O276 2.251 . S
Mg266 O279 2.010 . S
O267 Mg266 2.028 . S
O267 C270 1.250 . S
O268 Mg269 2.028 . S
O268 C270 1.248 . S
Mg269 O268 2.028 . S
Mg269 O274 2.032 . S
Mg269 O276 2.079 . S
C270 O267 1.250 . S
C270 O268 1.248 . S
C271 O272 1.264 . S
C271 O279 1.249 . S
O272 C271 1.264 . S
O273 Mg266 1.986 . S
O273 C277 1.246 . S
O274 Mg269 2.032 . S
O274 C277 1.259 . S
O275 Mg266 2.114 . S
O275 C278 1.252 . S
O276 Mg266 2.251 . S
O276 Mg269 2.079 . S
O276 C278 1.273 . S
C277 O273 1.246 . S
C277 O274 1.259 . S
C278 O275 1.252 . S
C278 O276 1.273 . S
O279 Mg266 2.010 . S
O279 C271 1.249 . S
Mg280 O281 2.028 . S
Mg280 O287 1.986 . S
Mg280 O289 2.114 . S
Mg280 O290 2.251 . S
Mg280 O293 2.010 . S
O281 Mg280 2.028 . S
O281 C284 1.250 . S
O282 Mg283 2.028 . S
O282 C284 1.248 . S
Mg283 O282 2.028 . S
Mg283 O288 2.032 . S
Mg283 O290 2.079 . S
C284 O281 1.250 . S
C284 O282 1.248 . S
C285 O286 1.264 . S
C285 O293 1.249 . S
O286 C285 1.264 . S
O287 Mg280 1.986 . S
O287 C291 1.246 . S
O288 Mg283 2.032 . S
O288 C291 1.259 . S
O289 Mg280 2.114 . S
O289 C292 1.252 . S
O290 Mg280 2.251 . S
O290 Mg283 2.079 . S
O290 C292 1.273 . S
C291 O287 1.246 . S
C291 O288 1.259 . S
C292 O289 1.252 . S
C292 O290 1.273 . S
O293 Mg280 2.010 . S
O293 C285 1.249 . S
Mg294 O295 2.028 . S
Mg294 O301 1.986 . S
Mg294 O303 2.114 . S
Mg294 O304 2.251 . S
Mg294 O307 2.010 . S
O295 Mg294 2.028 . S
O295 C298 1.250 . S
O296 Mg297 2.028 . S
O296 C298 1.248 . S
Mg297 O296 2.028 . S
Mg297 O302 2.032 . S
Mg297 O304 2.079 . S
C298 O295 1.250 . S
C298 O296 1.248 . S
C299 O300 1.264 . S
C299 O307 1.249 . S
O300 C299 1.264 . S
O301 Mg294 1.986 . S
O301 C305 1.246 . S
O302 Mg297 2.032 . S
O302 C305 1.259 . S
O303 Mg294 2.114 . S
O303 C306 1.252 . S
O304 Mg294 2.251 . S
O304 Mg297 2.079 . S
O304 C306 1.273 . S
C305 O301 1.246 . S
C305 O302 1.259 . S
C306 O303 1.252 . S
C306 O304 1.273 . S
O307 Mg294 2.010 . S
O307 C299 1.249 . S
Mg308 O309 2.028 . S
Mg308 O315 1.986 . S
Mg308 O317 2.114 . S
Mg308 O318 2.251 . S
Mg308 O321 2.010 . S
O309 Mg308 2.028 . S
O309 C312 1.250 . S
O310 Mg311 2.028 . S
O310 C312 1.248 . S
Mg311 O310 2.028 . S
Mg311 O316 2.032 . S
Mg311 O318 2.079 . S
C312 O309 1.250 . S
C312 O310 1.248 . S
C313 O314 1.264 . S
C313 O321 1.249 . S
O314 C313 1.264 . S
O315 Mg308 1.986 . S
O315 C319 1.246 . S
O316 Mg311 2.032 . S
O316 C319 1.259 . S
O317 Mg308 2.114 . S
O317 C320 1.252 . S
O318 Mg308 2.251 . S
O318 Mg311 2.079 . S
O318 C320 1.273 . S
C319 O315 1.246 . S
C319 O316 1.259 . S
C320 O317 1.252 . S
C320 O318 1.273 . S
O321 Mg308 2.010 . S
O321 C313 1.249 . S
Mg322 O323 2.028 . S
Mg322 O329 1.986 . S
Mg322 O331 2.114 . S
Mg322 O332 2.251 . S
Mg322 O335 2.010 . S
O323 Mg322 2.028 . S
O323 C326 1.250 . S
O324 Mg325 2.028 . S
O324 C326 1.248 . S
Mg325 O324 2.028 . S
Mg325 O330 2.032 . S
Mg325 O332 2.079 . S
C326 O323 1.250 . S
C326 O324 1.248 . S
C327 O328 1.264 . S
C327 O335 1.249 . S
O328 C327 1.264 . S
O329 Mg322 1.986 . S
O329 C333 1.246 . S
O330 Mg325 2.032 . S
O330 C333 1.259 . S
O331 Mg322 2.114 . S
O331 C334 1.252 . S
O332 Mg322 2.251 . S
O332 Mg325 2.079 . S
O332 C334 1.273 . S
C333 O329 1.246 . S
C333 O330 1.259 . S
C334 O331 1.252 . S
C334 O332 1.273 . S
O335 Mg322 2.010 . S
O335 C327 1.249 . S
C336 C337 1.349 . S
C336 C338 1.327 . S
C336 H361 0.950 . S
C337 C336 1.349 . S
C337 C353 1.349 . S
C338 C336 1.327 . S
C338 C357 1.429 . S
C338 H362 0.950 . S
C339 C356 1.574 . S
C339 C358 1.368 . S
C339 H363 0.949 . S
H340 C344 0.949 . S
C341 C342 1.349 . S
C341 C343 1.327 . S
C341 H364 0.950 . S
C342 C341 1.349 . S
C342 C354 1.349 . S
C343 C341 1.327 . S
C343 C359 1.429 . S
C343 H365 0.950 . S
C344 H340 0.949 . S
C344 C352 1.574 . S
C344 C360 1.368 . S
H345 C353 0.950 . S
H346 C351 0.950 . S
H347 C352 0.949 . S
H348 C354 0.950 . S
H349 C355 0.950 . S
H350 C356 0.949 . S
C351 H346 0.950 . S
C351 C353 1.327 . S
C351 C357 1.429 . S
C352 C344 1.574 . S
C352 H347 0.949 . S
C352 C358 1.368 . S
C353 C337 1.349 . S
C353 H345 0.950 . S
C353 C351 1.327 . S
C354 C342 1.349 . S
C354 H348 0.950 . S
C354 C355 1.327 . S
C355 H349 0.950 . S
C355 C354 1.327 . S
C355 C359 1.429 . S
C356 C339 1.574 . S
C356 H350 0.949 . S
C356 C360 1.368 . S
C357 C338 1.429 . S
C357 C351 1.429 . S
C357 C358 1.523 . S
C358 C339 1.368 . S
C358 C352 1.368 . S
C358 C357 1.523 . S
C359 C343 1.429 . S
C359 C355 1.429 . S
C359 C360 1.523 . S
C360 C344 1.368 . S
C360 C356 1.368 . S
C360 C359 1.523 . S
H361 C336 0.950 . S
H362 C338 0.950 . S
H363 C339 0.949 . S
H364 C341 0.950 . S
H365 C343 0.950 . S
C366 C367 1.349 . S
C366 C368 1.327 . S
C366 H391 0.950 . S
C367 C366 1.349 . S
C367 C383 1.349 . S
C368 C366 1.327 . S
C368 C387 1.429 . S
C368 H392 0.950 . S
C369 C386 1.574 . S
C369 C388 1.368 . S
C369 H393 0.949 . S
H370 C374 0.949 . S
C371 C372 1.349 . S
C371 C373 1.327 . S
C371 H394 0.950 . S
C372 C371 1.349 . S
C372 C384 1.349 . S
C373 C371 1.327 . S
C373 C389 1.429 . S
C373 H395 0.950 . S
C374 H370 0.949 . S
C374 C382 1.574 . S
C374 C390 1.368 . S
H375 C383 0.950 . S
H376 C381 0.950 . S
H377 C382 0.949 . S
H378 C384 0.950 . S
H379 C385 0.950 . S
H380 C386 0.949 . S
C381 H376 0.950 . S
C381 C383 1.327 . S
C381 C387 1.429 . S
C382 C374 1.574 . S
C382 H377 0.949 . S
C382 C388 1.368 . S
C383 C367 1.349 . S
C383 H375 0.950 . S
C383 C381 1.327 . S
C384 C372 1.349 . S
C384 H378 0.950 . S
C384 C385 1.327 . S
C385 H379 0.950 . S
C385 C384 1.327 . S
C385 C389 1.429 . S
C386 C369 1.574 . S
C386 H380 0.949 . S
C386 C390 1.368 . S
C387 C368 1.429 . S
C387 C381 1.429 . S
C387 C388 1.523 . S
C388 C369 1.368 . S
C388 C382 1.368 . S
C388 C387 1.523 . S
C389 C373 1.429 . S
C389 C385 1.429 . S
C389 C390 1.523 . S
C390 C374 1.368 . S
C390 C386 1.368 . S
C390 C389 1.523 . S
H391 C366 0.950 . S
H392 C368 0.950 . S
H393 C369 0.949 . S
H394 C371 0.950 . S
H395 C373 0.950 . S
C396 C397 1.349 . S
C396 C398 1.327 . S
C396 H421 0.950 . S
C397 C396 1.349 . S
C397 C413 1.349 . S
C398 C396 1.327 . S
C398 C417 1.429 . S
C398 H422 0.950 . S
C399 C416 1.574 . S
C399 C418 1.368 . S
C399 H423 0.949 . S
H400 C404 0.949 . S
C401 C402 1.349 . S
C401 C403 1.327 . S
C401 H424 0.950 . S
C402 C401 1.349 . S
C402 C414 1.349 . S
C403 C401 1.327 . S
C403 C419 1.429 . S
C403 H425 0.950 . S
C404 H400 0.949 . S
C404 C412 1.574 . S
C404 C420 1.368 . S
H405 C413 0.950 . S
H406 C411 0.950 . S
H407 C412 0.949 . S
H408 C414 0.950 . S
H409 C415 0.950 . S
H410 C416 0.949 . S
C411 H406 0.950 . S
C411 C413 1.327 . S
C411 C417 1.429 . S
C412 C404 1.574 . S
C412 H407 0.949 . S
C412 C418 1.368 . S
C413 C397 1.349 . S
C413 H405 0.950 . S
C413 C411 1.327 . S
C414 C402 1.349 . S
C414 H408 0.950 . S
C414 C415 1.327 . S
C415 H409 0.950 . S
C415 C414 1.327 . S
C415 C419 1.429 . S
C416 C399 1.574 . S
C416 H410 0.949 . S
C416 C420 1.368 . S
C417 C398 1.429 . S
C417 C411 1.429 . S
C417 C418 1.523 . S
C418 C399 1.368 . S
C418 C412 1.368 . S
C418 C417 1.523 . S
C419 C403 1.429 . S
C419 C415 1.429 . S
C419 C420 1.523 . S
C420 C404 1.368 . S
C420 C416 1.368 . S
C420 C419 1.523 . S
H421 C396 0.950 . S
H422 C398 0.950 . S
H423 C399 0.949 . S
H424 C401 0.950 . S
H425 C403 0.950 . S
C426 C427 1.349 . S
C426 C428 1.327 . S
C426 H451 0.950 . S
C427 C426 1.349 . S
C427 C443 1.349 . S
C428 C426 1.327 . S
C428 C447 1.429 . S
C428 H452 0.950 . S
C429 C446 1.574 . S
C429 C448 1.368 . S
C429 H453 0.949 . S
H430 C434 0.949 . S
C431 C432 1.349 . S
C431 C433 1.327 . S
C431 H454 0.950 . S
C432 C431 1.349 . S
C432 C444 1.349 . S
C433 C431 1.327 . S
C433 C449 1.429 . S
C433 H455 0.950 . S
C434 H430 0.949 . S
C434 C442 1.574 . S
C434 C450 1.368 . S
H435 C443 0.950 . S
H436 C441 0.950 . S
H437 C442 0.949 . S
H438 C444 0.950 . S
H439 C445 0.950 . S
H440 C446 0.949 . S
C441 H436 0.950 . S
C441 C443 1.327 . S
C441 C447 1.429 . S
C442 C434 1.574 . S
C442 H437 0.949 . S
C442 C448 1.368 . S
C443 C427 1.349 . S
C443 H435 0.950 . S
C443 C441 1.327 . S
C444 C432 1.349 . S
C444 H438 0.950 . S
C444 C445 1.327 . S
C445 H439 0.950 . S
C445 C444 1.327 . S
C445 C449 1.429 . S
C446 C429 1.574 . S
C446 H440 0.949 . S
C446 C450 1.368 . S
C447 C428 1.429 . S
C447 C441 1.429 . S
C447 C448 1.523 . S
C448 C429 1.368 . S
C448 C442 1.368 . S
C448 C447 1.523 . S
C449 C433 1.429 . S
C449 C445 1.429 . S
C449 C450 1.523 . S
C450 C434 1.368 . S
C450 C446 1.368 . S
C450 C449 1.523 . S
H451 C426 0.950 . S
H452 C428 0.950 . S
H453 C429 0.949 . S
H454 C431 0.950 . S
H455 C433 0.950 . S
C456 C457 1.349 . S
C456 C458 1.327 . S
C456 H481 0.950 . S
C457 C456 1.349 . S
C457 C473 1.349 . S
C458 C456 1.327 . S
C458 C477 1.429 . S
C458 H482 0.950 . S
C459 C476 1.574 . S
C459 C478 1.368 . S
C459 H483 0.949 . S
H460 C464 0.949 . S
C461 C462 1.349 . S
C461 C463 1.327 . S
C461 H484 0.950 . S
C462 C461 1.349 . S
C462 C474 1.349 . S
C463 C461 1.327 . S
C463 C479 1.429 . S
C463 H485 0.950 . S
C464 H460 0.949 . S
C464 C472 1.574 . S
C464 C480 1.368 . S
H465 C473 0.950 . S
H466 C471 0.950 . S
H467 C472 0.949 . S
H468 C474 0.950 . S
H469 C475 0.950 . S
H470 C476 0.949 . S
C471 H466 0.950 . S
C471 C473 1.327 . S
C471 C477 1.429 . S
C472 C464 1.574 . S
C472 H467 0.949 . S
C472 C478 1.368 . S
C473 C457 1.349 . S
C473 H465 0.950 . S
C473 C471 1.327 . S
C474 C462 1.349 . S
C474 H468 0.950 . S
C474 C475 1.327 . S
C475 H469 0.950 . S
C475 C474 1.327 . S
C475 C479 1.429 . S
C476 C459 1.574 . S
C476 H470 0.949 . S
C476 C480 1.368 . S
C477 C458 1.429 . S
C477 C471 1.429 . S
C477 C478 1.523 . S
C478 C459 1.368 . S
C478 C472 1.368 . S
C478 C477 1.523 . S
C479 C463 1.429 . S
C479 C475 1.429 . S
C479 C480 1.523 . S
C480 C464 1.368 . S
C480 C476 1.368 . S
C480 C479 1.523 . S
H481 C456 0.950 . S
H482 C458 0.950 . S
H483 C459 0.949 . S
H484 C461 0.950 . S
H485 C463 0.950 . S
C486 C487 1.349 . S
C486 C488 1.327 . S
C486 H511 0.950 . S
C487 C486 1.349 . S
C487 C503 1.349 . S
C488 C486 1.327 . S
C488 C507 1.429 . S
C488 H512 0.950 . S
C489 C506 1.574 . S
C489 C508 1.368 . S
C489 H513 0.949 . S
H490 C494 0.949 . S
C491 C492 1.349 . S
C491 C493 1.327 . S
C491 H514 0.950 . S
C492 C491 1.349 . S
C492 C504 1.349 . S
C493 C491 1.327 . S
C493 C509 1.429 . S
C493 H515 0.950 . S
C494 H490 0.949 . S
C494 C502 1.574 . S
C494 C510 1.368 . S
H495 C503 0.950 . S
H496 C501 0.950 . S
H497 C502 0.949 . S
H498 C504 0.950 . S
H499 C505 0.950 . S
H500 C506 0.949 . S
C501 H496 0.950 . S
C501 C503 1.327 . S
C501 C507 1.429 . S
C502 C494 1.574 . S
C502 H497 0.949 . S
C502 C508 1.368 . S
C503 C487 1.349 . S
C503 H495 0.950 . S
C503 C501 1.327 . S
C504 C492 1.349 . S
C504 H498 0.950 . S
C504 C505 1.327 . S
C505 H499 0.950 . S
C505 C504 1.327 . S
C505 C509 1.429 . S
C506 C489 1.574 . S
C506 H500 0.949 . S
C506 C510 1.368 . S
C507 C488 1.429 . S
C507 C501 1.429 . S
C507 C508 1.523 . S
C508 C489 1.368 . S
C508 C502 1.368 . S
C508 C507 1.523 . S
C509 C493 1.429 . S
C509 C505 1.429 . S
C509 C510 1.523 . S
C510 C494 1.368 . S
C510 C506 1.368 . S
C510 C509 1.523 . S
H511 C486 0.950 . S
H512 C488 0.950 . S
H513 C489 0.949 . S
H514 C491 0.950 . S
H515 C493 0.950 . S
C516 C517 1.349 . S
C516 C518 1.327 . S
C516 H541 0.950 . S
C517 C516 1.349 . S
C517 C533 1.349 . S
C518 C516 1.327 . S
C518 C537 1.429 . S
C518 H542 0.950 . S
C519 C536 1.574 . S
C519 C538 1.368 . S
C519 H543 0.949 . S
H520 C524 0.949 . S
C521 C522 1.349 . S
C521 C523 1.327 . S
C521 H544 0.950 . S
C522 C521 1.349 . S
C522 C534 1.349 . S
C523 C521 1.327 . S
C523 C539 1.429 . S
C523 H545 0.950 . S
C524 H520 0.949 . S
C524 C532 1.574 . S
C524 C540 1.368 . S
H525 C533 0.950 . S
H526 C531 0.950 . S
H527 C532 0.949 . S
H528 C534 0.950 . S
H529 C535 0.950 . S
H530 C536 0.949 . S
C531 H526 0.950 . S
C531 C533 1.327 . S
C531 C537 1.429 . S
C532 C524 1.574 . S
C532 H527 0.949 . S
C532 C538 1.368 . S
C533 C517 1.349 . S
C533 H525 0.950 . S
C533 C531 1.327 . S
C534 C522 1.349 . S
C534 H528 0.950 . S
C534 C535 1.327 . S
C535 H529 0.950 . S
C535 C534 1.327 . S
C535 C539 1.429 . S
C536 C519 1.574 . S
C536 H530 0.949 . S
C536 C540 1.368 . S
C537 C518 1.429 . S
C537 C531 1.429 . S
C537 C538 1.523 . S
C538 C519 1.368 . S
C538 C532 1.368 . S
C538 C537 1.523 . S
C539 C523 1.429 . S
C539 C535 1.429 . S
C539 C540 1.523 . S
C540 C524 1.368 . S
C540 C536 1.368 . S
C540 C539 1.523 . S
H541 C516 0.950 . S
H542 C518 0.950 . S
H543 C519 0.949 . S
H544 C521 0.950 . S
H545 C523 0.950 . S
C546 C547 1.349 . S
C546 C548 1.327 . S
C546 H571 0.950 . S
C547 C546 1.349 . S
C547 C563 1.349 . S
C548 C546 1.327 . S
C548 C567 1.429 . S
C548 H572 0.950 . S
C549 C566 1.574 . S
C549 C568 1.368 . S
C549 H573 0.949 . S
H550 C554 0.949 . S
C551 C552 1.349 . S
C551 C553 1.327 . S
C551 H574 0.950 . S
C552 C551 1.349 . S
C552 C564 1.349 . S
C553 C551 1.327 . S
C553 C569 1.429 . S
C553 H575 0.950 . S
C554 H550 0.949 . S
C554 C562 1.574 . S
C554 C570 1.368 . S
H555 C563 0.950 . S
H556 C561 0.950 . S
H557 C562 0.949 . S
H558 C564 0.950 . S
H559 C565 0.950 . S
H560 C566 0.949 . S
C561 H556 0.950 . S
C561 C563 1.327 . S
C561 C567 1.429 . S
C562 C554 1.574 . S
C562 H557 0.949 . S
C562 C568 1.368 . S
C563 C547 1.349 . S
C563 H555 0.950 . S
C563 C561 1.327 . S
C564 C552 1.349 . S
C564 H558 0.950 . S
C564 C565 1.327 . S
C565 H559 0.950 . S
C565 C564 1.327 . S
C565 C569 1.429 . S
C566 C549 1.574 . S
C566 H560 0.949 . S
C566 C570 1.368 . S
C567 C548 1.429 . S
C567 C561 1.429 . S
C567 C568 1.523 . S
C568 C549 1.368 . S
C568 C562 1.368 . S
C568 C567 1.523 . S
C569 C553 1.429 . S
C569 C565 1.429 . S
C569 C570 1.523 . S
C570 C554 1.368 . S
C570 C566 1.368 . S
C570 C569 1.523 . S
H571 C546 0.950 . S
H572 C548 0.950 . S
H573 C549 0.949 . S
H574 C551 0.950 . S
H575 C553 0.950 . S
C576 C577 1.349 . S
C576 C578 1.327 . S
C576 H601 0.950 . S
C577 C576 1.349 . S
C577 C593 1.349 . S
C578 C576 1.327 . S
C578 C597 1.429 . S
C578 H602 0.950 . S
C579 C596 1.574 . S
C579 C598 1.368 . S
C579 H603 0.949 . S
H580 C584 0.949 . S
C581 C582 1.349 . S
C581 C583 1.327 . S
C581 H604 0.950 . S
C582 C581 1.349 . S
C582 C594 1.349 . S
C583 C581 1.327 . S
C583 C599 1.429 . S
C583 H605 0.950 . S
C584 H580 0.949 . S
C584 C592 1.574 . S
C584 C600 1.368 . S
H585 C593 0.950 . S
H586 C591 0.950 . S
H587 C592 0.949 . S
H588 C594 0.950 . S
H589 C595 0.950 . S
H590 C596 0.949 . S
C591 H586 0.950 . S
C591 C593 1.327 . S
C591 C597 1.429 . S
C592 C584 1.574 . S
C592 H587 0.949 . S
C592 C598 1.368 . S
C593 C577 1.349 . S
C593 H585 0.950 . S
C593 C591 1.327 . S
C594 C582 1.349 . S
C594 H588 0.950 . S
C594 C595 1.327 . S
C595 H589 0.950 . S
C595 C594 1.327 . S
C595 C599 1.429 . S
C596 C579 1.574 . S
C596 H590 0.949 . S
C596 C600 1.368 . S
C597 C578 1.429 . S
C597 C591 1.429 . S
C597 C598 1.523 . S
C598 C579 1.368 . S
C598 C592 1.368 . S
C598 C597 1.523 . S
C599 C583 1.429 . S
C599 C595 1.429 . S
C599 C600 1.523 . S
C600 C584 1.368 . S
C600 C596 1.368 . S
C600 C599 1.523 . S
H601 C576 0.950 . S
H602 C578 0.950 . S
H603 C579 0.949 . S
H604 C581 0.950 . S
H605 C583 0.950 . S
C606 C607 1.349 . S
C606 C608 1.327 . S
C606 H631 0.950 . S
C607 C606 1.349 . S
C607 C623 1.349 . S
C608 C606 1.327 . S
C608 C627 1.429 . S
C608 H632 0.950 . S
C609 C626 1.574 . S
C609 C628 1.368 . S
C609 H633 0.949 . S
H610 C614 0.949 . S
C611 C612 1.349 . S
C611 C613 1.327 . S
C611 H634 0.950 . S
C612 C611 1.349 . S
C612 C624 1.349 . S
C613 C611 1.327 . S
C613 C629 1.429 . S
C613 H635 0.950 . S
C614 H610 0.949 . S
C614 C622 1.574 . S
C614 C630 1.368 . S
H615 C623 0.950 . S
H616 C621 0.950 . S
H617 C622 0.949 . S
H618 C624 0.950 . S
H619 C625 0.950 . S
H620 C626 0.949 . S
C621 H616 0.950 . S
C621 C623 1.327 . S
C621 C627 1.429 . S
C622 C614 1.574 . S
C622 H617 0.949 . S
C622 C628 1.368 . S
C623 C607 1.349 . S
C623 H615 0.950 . S
C623 C621 1.327 . S
C624 C612 1.349 . S
C624 H618 0.950 . S
C624 C625 1.327 . S
C625 H619 0.950 . S
C625 C624 1.327 . S
C625 C629 1.429 . S
C626 C609 1.574 . S
C626 H620 0.949 . S
C626 C630 1.368 . S
C627 C608 1.429 . S
C627 C621 1.429 . S
C627 C628 1.523 . S
C628 C609 1.368 . S
C628 C622 1.368 . S
C628 C627 1.523 . S
C629 C613 1.429 . S
C629 C625 1.429 . S
C629 C630 1.523 . S
C630 C614 1.368 . S
C630 C626 1.368 . S
C630 C629 1.523 . S
H631 C606 0.950 . S
H632 C608 0.950 . S
H633 C609 0.949 . S
H634 C611 0.950 . S
H635 C613 0.950 . S
C636 C637 1.349 . S
C636 C638 1.327 . S
C636 H661 0.950 . S
C637 C636 1.349 . S
C637 C653 1.349 . S
C638 C636 1.327 . S
C638 C657 1.429 . S
C638 H662 0.950 . S
C639 C656 1.574 . S
C639 C658 1.368 . S
C639 H663 0.949 . S
H640 C644 0.949 . S
C641 C642 1.349 . S
C641 C643 1.327 . S
C641 H664 0.950 . S
C642 C641 1.349 . S
C642 C654 1.349 . S
C643 C641 1.327 . S
C643 C659 1.429 . S
C643 H665 0.950 . S
C644 H640 0.949 . S
C644 C652 1.574 . S
C644 C660 1.368 . S
H645 C653 0.950 . S
H646 C651 0.950 . S
H647 C652 0.949 . S
H648 C654 0.950 . S
H649 C655 0.950 . S
H650 C656 0.949 . S
C651 H646 0.950 . S
C651 C653 1.327 . S
C651 C657 1.429 . S
C652 C644 1.574 . S
C652 H647 0.949 . S
C652 C658 1.368 . S
C653 C637 1.349 . S
C653 H645 0.950 . S
C653 C651 1.327 . S
C654 C642 1.349 . S
C654 H648 0.950 . S
C654 C655 1.327 . S
C655 H649 0.950 . S
C655 C654 1.327 . S
C655 C659 1.429 . S
C656 C639 1.574 . S
C656 H650 0.949 . S
C656 C660 1.368 . S
C657 C638 1.429 . S
C657 C651 1.429 . S
C657 C658 1.523 . S
C658 C639 1.368 . S
C658 C652 1.368 . S
C658 C657 1.523 . S
C659 C643 1.429 . S
C659 C655 1.429 . S
C659 C660 1.523 . S
C660 C644 1.368 . S
C660 C656 1.368 . S
C660 C659 1.523 . S
H661 C636 0.950 . S
H662 C638 0.950 . S
H663 C639 0.949 . S
H664 C641 0.950 . S
H665 C643 0.950 . S
C666 C667 1.349 . S
C666 C668 1.327 . S
C666 H691 0.950 . S
C667 C666 1.349 . S
C667 C683 1.349 . S
C668 C666 1.327 . S
C668 C687 1.429 . S
C668 H692 0.950 . S
C669 C686 1.574 . S
C669 C688 1.368 . S
C669 H693 0.949 . S
H670 C674 0.949 . S
C671 C672 1.349 . S
C671 C673 1.327 . S
C671 H694 0.950 . S
C672 C671 1.349 . S
C672 C684 1.349 . S
C673 C671 1.327 . S
C673 C689 1.429 . S
C673 H695 0.950 . S
C674 H670 0.949 . S
C674 C682 1.574 . S
C674 C690 1.368 . S
H675 C683 0.950 . S
H676 C681 0.950 . S
H677 C682 0.949 . S
H678 C684 0.950 . S
H679 C685 0.950 . S
H680 C686 0.949 . S
C681 H676 0.950 . S
C681 C683 1.327 . S
C681 C687 1.429 . S
C682 C674 1.574 . S
C682 H677 0.949 . S
C682 C688 1.368 . S
C683 C667 1.349 . S
C683 H675 0.950 . S
C683 C681 1.327 . S
C684 C672 1.349 . S
C684 H678 0.950 . S
C684 C685 1.327 . S
C685 H679 0.950 . S
C685 C684 1.327 . S
C685 C689 1.429 . S
C686 C669 1.574 . S
C686 H680 0.949 . S
C686 C690 1.368 . S
C687 C668 1.429 . S
C687 C681 1.429 . S
C687 C688 1.523 . S
C688 C669 1.368 . S
C688 C682 1.368 . S
C688 C687 1.523 . S
C689 C673 1.429 . S
C689 C685 1.429 . S
C689 C690 1.523 . S
C690 C674 1.368 . S
C690 C686 1.368 . S
C690 C689 1.523 . S
H691 C666 0.950 . S
H692 C668 0.950 . S
H693 C669 0.949 . S
H694 C671 0.950 . S
H695 C673 0.950 . S
C696 C697 1.349 . S
C696 C698 1.327 . S
C696 H721 0.950 . S
C697 C696 1.349 . S
C697 C713 1.349 . S
C698 C696 1.327 . S
C698 C717 1.429 . S
C698 H722 0.950 . S
C699 C716 1.574 . S
C699 C718 1.368 . S
C699 H723 0.949 . S
H700 C704 0.949 . S
C701 C702 1.349 . S
C701 C703 1.327 . S
C701 H724 0.950 . S
C702 C701 1.349 . S
C702 C714 1.349 . S
C703 C701 1.327 . S
C703 C719 1.429 . S
C703 H725 0.950 . S
C704 H700 0.949 . S
C704 C712 1.574 . S
C704 C720 1.368 . S
H705 C713 0.950 . S
H706 C711 0.950 . S
H707 C712 0.949 . S
H708 C714 0.950 . S
H709 C715 0.950 . S
H710 C716 0.949 . S
C711 H706 0.950 . S
C711 C713 1.327 . S
C711 C717 1.429 . S
C712 C704 1.574 . S
C712 H707 0.949 . S
C712 C718 1.368 . S
C713 C697 1.349 . S
C713 H705 0.950 . S
C713 C711 1.327 . S
C714 C702 1.349 . S
C714 H708 0.950 . S
C714 C715 1.327 . S
C715 H709 0.950 . S
C715 C714 1.327 . S
C715 C719 1.429 . S
C716 C699 1.574 . S
C716 H710 0.949 . S
C716 C720 1.368 . S
C717 C698 1.429 . S
C717 C711 1.429 . S
C717 C718 1.523 . S
C718 C699 1.368 . S
C718 C712 1.368 . S
C718 C717 1.523 . S
C719 C703 1.429 . S
C719 C715 1.429 . S
C719 C720 1.523 . S
C720 C704 1.368 . S
C720 C716 1.368 . S
C720 C719 1.523 . S
H721 C696 0.950 . S
H722 C698 0.950 . S
H723 C699 0.949 . S
H724 C701 0.950 . S
H725 C703 0.950 . S
C726 C727 1.349 . S
C726 C728 1.327 . S
C726 H751 0.950 . S
C727 C726 1.349 . S
C727 C743 1.349 . S
C728 C726 1.327 . S
C728 C747 1.429 . S
C728 H752 0.950 . S
C729 C746 1.574 . S
C729 C748 1.368 . S
C729 H753 0.949 . S
H730 C734 0.949 . S
C731 C732 1.349 . S
C731 C733 1.327 . S
C731 H754 0.950 . S
C732 C731 1.349 . S
C732 C744 1.349 . S
C733 C731 1.327 . S
C733 C749 1.429 . S
C733 H755 0.950 . S
C734 H730 0.949 . S
C734 C742 1.574 . S
C734 C750 1.368 . S
H735 C743 0.950 . S
H736 C741 0.950 . S
H737 C742 0.949 . S
H738 C744 0.950 . S
H739 C745 0.950 . S
H740 C746 0.949 . S
C741 H736 0.950 . S
C741 C743 1.327 . S
C741 C747 1.429 . S
C742 C734 1.574 . S
C742 H737 0.949 . S
C742 C748 1.368 . S
C743 C727 1.349 . S
C743 H735 0.950 . S
C743 C741 1.327 . S
C744 C732 1.349 . S
C744 H738 0.950 . S
C744 C745 1.327 . S
C745 H739 0.950 . S
C745 C744 1.327 . S
C745 C749 1.429 . S
C746 C729 1.574 . S
C746 H740 0.949 . S
C746 C750 1.368 . S
C747 C728 1.429 . S
C747 C741 1.429 . S
C747 C748 1.523 . S
C748 C729 1.368 . S
C748 C742 1.368 . S
C748 C747 1.523 . S
C749 C733 1.429 . S
C749 C745 1.429 . S
C749 C750 1.523 . S
C750 C734 1.368 . S
C750 C746 1.368 . S
C750 C749 1.523 . S
H751 C726 0.950 . S
H752 C728 0.950 . S
H753 C729 0.949 . S
H754 C731 0.950 . S
H755 C733 0.950 . S
C756 C757 1.349 . S
C756 C758 1.327 . S
C756 H781 0.950 . S
C757 C756 1.349 . S
C757 C773 1.349 . S
C758 C756 1.327 . S
C758 C777 1.429 . S
C758 H782 0.950 . S
C759 C776 1.574 . S
C759 C778 1.368 . S
C759 H783 0.949 . S
H760 C764 0.949 . S
C761 C762 1.349 . S
C761 C763 1.327 . S
C761 H784 0.950 . S
C762 C761 1.349 . S
C762 C774 1.349 . S
C763 C761 1.327 . S
C763 C779 1.429 . S
C763 H785 0.950 . S
C764 H760 0.949 . S
C764 C772 1.574 . S
C764 C780 1.368 . S
H765 C773 0.950 . S
H766 C771 0.950 . S
H767 C772 0.949 . S
H768 C774 0.950 . S
H769 C775 0.950 . S
H770 C776 0.949 . S
C771 H766 0.950 . S
C771 C773 1.327 . S
C771 C777 1.429 . S
C772 C764 1.574 . S
C772 H767 0.949 . S
C772 C778 1.368 . S
C773 C757 1.349 . S
C773 H765 0.950 . S
C773 C771 1.327 . S
C774 C762 1.349 . S
C774 H768 0.950 . S
C774 C775 1.327 . S
C775 H769 0.950 . S
C775 C774 1.327 . S
C775 C779 1.429 . S
C776 C759 1.574 . S
C776 H770 0.949 . S
C776 C780 1.368 . S
C777 C758 1.429 . S
C777 C771 1.429 . S
C777 C778 1.523 . S
C778 C759 1.368 . S
C778 C772 1.368 . S
C778 C777 1.523 . S
C779 C763 1.429 . S
C779 C775 1.429 . S
C779 C780 1.523 . S
C780 C764 1.368 . S
C780 C776 1.368 . S
C780 C779 1.523 . S
H781 C756 0.950 . S
H782 C758 0.950 . S
H783 C759 0.949 . S
H784 C761 0.950 . S
H785 C763 0.950 . S
C786 C787 1.349 . S
C786 C788 1.327 . S
C786 H811 0.950 . S
C787 C786 1.349 . S
C787 C803 1.349 . S
C788 C786 1.327 . S
C788 C807 1.429 . S
C788 H812 0.950 . S
C789 C806 1.574 . S
C789 C808 1.368 . S
C789 H813 0.949 . S
H790 C794 0.949 . S
C791 C792 1.349 . S
C791 C793 1.327 . S
C791 H814 0.950 . S
C792 C791 1.349 . S
C792 C804 1.349 . S
C793 C791 1.327 . S
C793 C809 1.429 . S
C793 H815 0.950 . S
C794 H790 0.949 . S
C794 C802 1.574 . S
C794 C810 1.368 . S
H795 C803 0.950 . S
H796 C801 0.950 . S
H797 C802 0.949 . S
H798 C804 0.950 . S
H799 C805 0.950 . S
H800 C806 0.949 . S
C801 H796 0.950 . S
C801 C803 1.327 . S
C801 C807 1.429 . S
C802 C794 1.574 . S
C802 H797 0.949 . S
C802 C808 1.368 . S
C803 C787 1.349 . S
C803 H795 0.950 . S
C803 C801 1.327 . S
C804 C792 1.349 . S
C804 H798 0.950 . S
C804 C805 1.327 . S
C805 H799 0.950 . S
C805 C804 1.327 . S
C805 C809 1.429 . S
C806 C789 1.574 . S
C806 H800 0.949 . S
C806 C810 1.368 . S
C807 C788 1.429 . S
C807 C801 1.429 . S
C807 C808 1.523 . S
C808 C789 1.368 . S
C808 C802 1.368 . S
C808 C807 1.523 . S
C809 C793 1.429 . S
C809 C805 1.429 . S
C809 C810 1.523 . S
C810 C794 1.368 . S
C810 C806 1.368 . S
C810 C809 1.523 . S
H811 C786 0.950 . S
H812 C788 0.950 . S
H813 C789 0.949 . S
H814 C791 0.950 . S
H815 C793 0.950 . S
C816 C817 1.349 . S
C816 C818 1.327 . S
C816 H841 0.950 . S
C817 C816 1.349 . S
C817 C833 1.349 . S
C818 C816 1.327 . S
C818 C837 1.429 . S
C818 H842 0.950 . S
C819 C836 1.574 . S
C819 C838 1.368 . S
C819 H843 0.949 . S
H820 C824 0.949 . S
C821 C822 1.349 . S
C821 C823 1.327 . S
C821 H844 0.950 . S
C822 C821 1.349 . S
C822 C834 1.349 . S
C823 C821 1.327 . S
C823 C839 1.429 . S
C823 H845 0.950 . S
C824 H820 0.949 . S
C824 C832 1.574 . S
C824 C840 1.368 . S
H825 C833 0.950 . S
H826 C831 0.950 . S
H827 C832 0.949 . S
H828 C834 0.950 . S
H829 C835 0.950 . S
H830 C836 0.949 . S
C831 H826 0.950 . S
C831 C833 1.327 . S
C831 C837 1.429 . S
C832 C824 1.574 . S
C832 H827 0.949 . S
C832 C838 1.368 . S
C833 C817 1.349 . S
C833 H825 0.950 . S
C833 C831 1.327 . S
C834 C822 1.349 . S
C834 H828 0.950 . S
C834 C835 1.327 . S
C835 H829 0.950 . S
C835 C834 1.327 . S
C835 C839 1.429 . S
C836 C819 1.574 . S
C836 H830 0.949 . S
C836 C840 1.368 . S
C837 C818 1.429 . S
C837 C831 1.429 . S
C837 C838 1.523 . S
C838 C819 1.368 . S
C838 C832 1.368 . S
C838 C837 1.523 . S
C839 C823 1.429 . S
C839 C835 1.429 . S
C839 C840 1.523 . S
C840 C824 1.368 . S
C840 C836 1.368 . S
C840 C839 1.523 . S
H841 C816 0.950 . S
H842 C818 0.950 . S
H843 C819 0.949 . S
H844 C821 0.950 . S
H845 C823 0.950 . S
C846 C847 1.349 . S
C846 C848 1.327 . S
C846 H871 0.950 . S
C847 C846 1.349 . S
C847 C863 1.349 . S
C848 C846 1.327 . S
C848 C867 1.429 . S
C848 H872 0.950 . S
C849 C866 1.574 . S
C849 C868 1.368 . S
C849 H873 0.949 . S
H850 C854 0.949 . S
C851 C852 1.349 . S
C851 C853 1.327 . S
C851 H874 0.950 . S
C852 C851 1.349 . S
C852 C864 1.349 . S
C853 C851 1.327 . S
C853 C869 1.429 . S
C853 H875 0.950 . S
C854 H850 0.949 . S
C854 C862 1.574 . S
C854 C870 1.368 . S
H855 C863 0.950 . S
H856 C861 0.950 . S
H857 C862 0.949 . S
H858 C864 0.950 . S
H859 C865 0.950 . S
H860 C866 0.949 . S
C861 H856 0.950 . S
C861 C863 1.327 . S
C861 C867 1.429 . S
C862 C854 1.574 . S
C862 H857 0.949 . S
C862 C868 1.368 . S
C863 C847 1.349 . S
C863 H855 0.950 . S
C863 C861 1.327 . S
C864 C852 1.349 . S
C864 H858 0.950 . S
C864 C865 1.327 . S
C865 H859 0.950 . S
C865 C864 1.327 . S
C865 C869 1.429 . S
C866 C849 1.574 . S
C866 H860 0.949 . S
C866 C870 1.368 . S
C867 C848 1.429 . S
C867 C861 1.429 . S
C867 C868 1.523 . S
C868 C849 1.368 . S
C868 C862 1.368 . S
C868 C867 1.523 . S
C869 C853 1.429 . S
C869 C865 1.429 . S
C869 C870 1.523 . S
C870 C854 1.368 . S
C870 C866 1.368 . S
C870 C869 1.523 . S
H871 C846 0.950 . S
H872 C848 0.950 . S
H873 C849 0.949 . S
H874 C851 0.950 . S
H875 C853 0.950 . S
C876 C877 1.349 . S
C876 C878 1.327 . S
C876 H901 0.950 . S
C877 C876 1.349 . S
C877 C893 1.349 . S
C878 C876 1.327 . S
C878 C897 1.429 . S
C878 H902 0.950 . S
C879 C896 1.574 . S
C879 C898 1.368 . S
C879 H903 0.949 . S
H880 C884 0.949 . S
C881 C882 1.349 . S
C881 C883 1.327 . S
C881 H904 0.950 . S
C882 C881 1.349 . S
C882 C894 1.349 . S
C883 C881 1.327 . S
C883 C899 1.429 . S
C883 H905 0.950 . S
C884 H880 0.949 . S
C884 C892 1.574 . S
C884 C900 1.368 . S
H885 C893 0.950 . S
H886 C891 0.950 . S
H887 C892 0.949 . S
H888 C894 0.950 . S
H889 C895 0.950 . S
H890 C896 0.949 . S
C891 H886 0.950 . S
C891 C893 1.327 . S
C891 C897 1.429 . S
C892 C884 1.574 . S
C892 H887 0.949 . S
C892 C898 1.368 . S
C893 C877 1.349 . S
C893 H885 0.950 . S
C893 C891 1.327 . S
C894 C882 1.349 . S
C894 H888 0.950 . S
C894 C895 1.327 . S
C895 H889 0.950 . S
C895 C894 1.327 . S
C895 C899 1.429 . S
C896 C879 1.574 . S
C896 H890 0.949 . S
C896 C900 1.368 . S
C897 C878 1.429 . S
C897 C891 1.429 . S
C897 C898 1.523 . S
C898 C879 1.368 . S
C898 C892 1.368 . S
C898 C897 1.523 . S
C899 C883 1.429 . S
C899 C895 1.429 . S
C899 C900 1.523 . S
C900 C884 1.368 . S
C900 C896 1.368 . S
C900 C899 1.523 . S
H901 C876 0.950 . S
H902 C878 0.950 . S
H903 C879 0.949 . S
H904 C881 0.950 . S
H905 C883 0.950 . S
C906 C907 1.349 . S
C906 C908 1.327 . S
C906 H931 0.950 . S
C907 C906 1.349 . S
C907 C923 1.349 . S
C908 C906 1.327 . S
C908 C927 1.429 . S
C908 H932 0.950 . S
C909 C926 1.574 . S
C909 C928 1.368 . S
C909 H933 0.949 . S
H910 C914 0.949 . S
C911 C912 1.349 . S
C911 C913 1.327 . S
C911 H934 0.950 . S
C912 C911 1.349 . S
C912 C924 1.349 . S
C913 C911 1.327 . S
C913 C929 1.429 . S
C913 H935 0.950 . S
C914 H910 0.949 . S
C914 C922 1.574 . S
C914 C930 1.368 . S
H915 C923 0.950 . S
H916 C921 0.950 . S
H917 C922 0.949 . S
H918 C924 0.950 . S
H919 C925 0.950 . S
H920 C926 0.949 . S
C921 H916 0.950 . S
C921 C923 1.327 . S
C921 C927 1.429 . S
C922 C914 1.574 . S
C922 H917 0.949 . S
C922 C928 1.368 . S
C923 C907 1.349 . S
C923 H915 0.950 . S
C923 C921 1.327 . S
C924 C912 1.349 . S
C924 H918 0.950 . S
C924 C925 1.327 . S
C925 H919 0.950 . S
C925 C924 1.327 . S
C925 C929 1.429 . S
C926 C909 1.574 . S
C926 H920 0.949 . S
C926 C930 1.368 . S
C927 C908 1.429 . S
C927 C921 1.429 . S
C927 C928 1.523 . S
C928 C909 1.368 . S
C928 C922 1.368 . S
C928 C927 1.523 . S
C929 C913 1.429 . S
C929 C925 1.429 . S
C929 C930 1.523 . S
C930 C914 1.368 . S
C930 C926 1.368 . S
C930 C929 1.523 . S
H931 C906 0.950 . S
H932 C908 0.950 . S
H933 C909 0.949 . S
H934 C911 0.950 . S
H935 C913 0.950 . S
C936 C937 1.349 . S
C936 C938 1.327 . S
C936 H961 0.950 . S
C937 C936 1.349 . S
C937 C953 1.349 . S
C938 C936 1.327 . S
C938 C957 1.429 . S
C938 H962 0.950 . S
C939 C956 1.574 . S
C939 C958 1.368 . S
C939 H963 0.949 . S
H940 C944 0.949 . S
C941 C942 1.349 . S
C941 C943 1.327 . S
C941 H964 0.950 . S
C942 C941 1.349 . S
C942 C954 1.349 . S
C943 C941 1.327 . S
C943 C959 1.429 . S
C943 H965 0.950 . S
C944 H940 0.949 . S
C944 C952 1.574 . S
C944 C960 1.368 . S
H945 C953 0.950 . S
H946 C951 0.950 . S
H947 C952 0.949 . S
H948 C954 0.950 . S
H949 C955 0.950 . S
H950 C956 0.949 . S
C951 H946 0.950 . S
C951 C953 1.327 . S
C951 C957 1.429 . S
C952 C944 1.574 . S
C952 H947 0.949 . S
C952 C958 1.368 . S
C953 C937 1.349 . S
C953 H945 0.950 . S
C953 C951 1.327 . S
C954 C942 1.349 . S
C954 H948 0.950 . S
C954 C955 1.327 . S
C955 H949 0.950 . S
C955 C954 1.327 . S
C955 C959 1.429 . S
C956 C939 1.574 . S
C956 H950 0.949 . S
C956 C960 1.368 . S
C957 C938 1.429 . S
C957 C951 1.429 . S
C957 C958 1.523 . S
C958 C939 1.368 . S
C958 C952 1.368 . S
C958 C957 1.523 . S
C959 C943 1.429 . S
C959 C955 1.429 . S
C959 C960 1.523 . S
C960 C944 1.368 . S
C960 C956 1.368 . S
C960 C959 1.523 . S
H961 C936 0.950 . S
H962 C938 0.950 . S
H963 C939 0.949 . S
H964 C941 0.950 . S
H965 C943 0.950 . S
C966 C967 1.349 . S
C966 C968 1.327 . S
C966 H991 0.950 . S
C967 C966 1.349 . S
C967 C983 1.349 . S
C968 C966 1.327 . S
C968 C987 1.429 . S
C968 H992 0.950 . S
C969 C986 1.574 . S
C969 C988 1.368 . S
C969 H993 0.949 . S
H970 C974 0.949 . S
C971 C972 1.349 . S
C971 C973 1.327 . S
C971 H994 0.950 . S
C972 C971 1.349 . S
C972 C984 1.349 . S
C973 C971 1.327 . S
C973 C989 1.429 . S
C973 H995 0.950 . S
C974 H970 0.949 . S
C974 C982 1.574 . S
C974 C990 1.368 . S
H975 C983 0.950 . S
H976 C981 0.950 . S
H977 C982 0.949 . S
H978 C984 0.950 . S
H979 C985 0.950 . S
H980 C986 0.949 . S
C981 H976 0.950 . S
C981 C983 1.327 . S
C981 C987 1.429 . S
C982 C974 1.574 . S
C982 H977 0.949 . S
C982 C988 1.368 . S
C983 C967 1.349 . S
C983 H975 0.950 . S
C983 C981 1.327 . S
C984 C972 1.349 . S
C984 H978 0.950 . S
C984 C985 1.327 . S
C985 H979 0.950 . S
C985 C984 1.327 . S
C985 C989 1.429 . S
C986 C969 1.574 . S
C986 H980 0.949 . S
C986 C990 1.368 . S
C987 C968 1.429 . S
C987 C981 1.429 . S
C987 C988 1.523 . S
C988 C969 1.368 . S
C988 C982 1.368 . S
C988 C987 1.523 . S
C989 C973 1.429 . S
C989 C985 1.429 . S
C989 C990 1.523 . S
C990 C974 1.368 . S
C990 C986 1.368 . S
C990 C989 1.523 . S
H991 C966 0.950 . S
H992 C968 0.950 . S
H993 C969 0.949 . S
H994 C971 0.950 . S
H995 C973 0.950 . S
C996 C997 1.349 . S
C996 C998 1.327 . S
C996 H1021 0.950 . S
C997 C996 1.349 . S
C997 C1013 1.349 . S
C998 C996 1.327 . S
C998 C1017 1.429 . S
C998 H1022 0.950 . S
C999 C1016 1.574 . S
C999 C1018 1.368 . S
C999 H1023 0.949 . S
H1000 C1004 0.949 . S
C1001 C1002 1.349 . S
C1001 C1003 1.327 . S
C1001 H1024 0.950 . S
C1002 C1001 1.349 . S
C1002 C1014 1.349 . S
C1003 C1001 1.327 . S
C1003 C1019 1.429 . S
C1003 H1025 0.950 . S
C1004 H1000 0.949 . S
C1004 C1012 1.574 . S
C1004 C1020 1.368 . S
H1005 C1013 0.950 . S
H1006 C1011 0.950 . S
H1007 C1012 0.949 . S
H1008 C1014 0.950 . S
H1009 C1015 0.950 . S
H1010 C1016 0.949 . S
C1011 H1006 0.950 . S
C1011 C1013 1.327 . S
C1011 C1017 1.429 . S
C1012 C1004 1.574 . S
C1012 H1007 0.949 . S
C1012 C1018 1.368 . S
C1013 C997 1.349 . S
C1013 H1005 0.950 . S
C1013 C1011 1.327 . S
C1014 C1002 1.349 . S
C1014 H1008 0.950 . S
C1014 C1015 1.327 . S
C1015 H1009 0.950 . S
C1015 C1014 1.327 . S
C1015 C1019 1.429 . S
C1016 C999 1.574 . S
C1016 H1010 0.949 . S
C1016 C1020 1.368 . S
C1017 C998 1.429 . S
C1017 C1011 1.429 . S
C1017 C1018 1.523 . S
C1018 C999 1.368 . S
C1018 C1012 1.368 . S
C1018 C1017 1.523 . S
C1019 C1003 1.429 . S
C1019 C1015 1.429 . S
C1019 C1020 1.523 . S
C1020 C1004 1.368 . S
C1020 C1016 1.368 . S
C1020 C1019 1.523 . S
H1021 C996 0.950 . S
H1022 C998 0.950 . S
H1023 C999 0.949 . S
H1024 C1001 0.950 . S
H1025 C1003 0.950 . S
C1026 C1027 1.349 . S
C1026 C1028 1.327 . S
C1026 H1051 0.950 . S
C1027 C1026 1.349 . S
C1027 C1043 1.349 . S
C1028 C1026 1.327 . S
C1028 C1047 1.429 . S
C1028 H1052 0.950 . S
C1029 C1046 1.574 . S
C1029 C1048 1.368 . S
C1029 H1053 0.949 . S
H1030 C1034 0.949 . S
C1031 C1032 1.349 . S
C1031 C1033 1.327 . S
C1031 H1054 0.950 . S
C1032 C1031 1.349 . S
C1032 C1044 1.349 . S
C1033 C1031 1.327 . S
C1033 C1049 1.429 . S
C1033 H1055 0.950 . S
C1034 H1030 0.949 . S
C1034 C1042 1.574 . S
C1034 C1050 1.368 . S
H1035 C1043 0.950 . S
H1036 C1041 0.950 . S
H1037 C1042 0.949 . S
H1038 C1044 0.950 . S
H1039 C1045 0.950 . S
H1040 C1046 0.949 . S
C1041 H1036 0.950 . S
C1041 C1043 1.327 . S
C1041 C1047 1.429 . S
C1042 C1034 1.574 . S
C1042 H1037 0.949 . S
C1042 C1048 1.368 . S
C1043 C1027 1.349 . S
C1043 H1035 0.950 . S
C1043 C1041 1.327 . S
C1044 C1032 1.349 . S
C1044 H1038 0.950 . S
C1044 C1045 1.327 . S
C1045 H1039 0.950 . S
C1045 C1044 1.327 . S
C1045 C1049 1.429 . S
C1046 C1029 1.574 . S
C1046 H1040 0.949 . S
C1046 C1050 1.368 . S
C1047 C1028 1.429 . S
C1047 C1041 1.429 . S
C1047 C1048 1.523 . S
C1048 C1029 1.368 . S
C1048 C1042 1.368 . S
C1048 C1047 1.523 . S
C1049 C1033 1.429 . S
C1049 C1045 1.429 . S
C1049 C1050 1.523 . S
C1050 C1034 1.368 . S
C1050 C1046 1.368 . S
C1050 C1049 1.523 . S
H1051 C1026 0.950 . S
H1052 C1028 0.950 . S
H1053 C1029 0.949 . S
H1054 C1031 0.950 . S
H1055 C1033 0.950 . S
C1056 C1057 1.349 . S
C1056 C1058 1.327 . S
C1056 H1081 0.950 . S
C1057 C1056 1.349 . S
C1057 C1073 1.349 . S
C1058 C1056 1.327 . S
C1058 C1077 1.429 . S
C1058 H1082 0.950 . S
C1059 C1076 1.574 1_565 S
C1059 C1078 1.368 . S
C1059 H1083 0.949 . S
H1060 C1064 0.949 . S
C1061 C1062 1.349 . S
C1061 C1063 1.327 . S
C1061 H1084 0.950 . S
C1062 C1061 1.349 . S
C1062 C1074 1.349 . S
C1063 C1061 1.327 . S
C1063 C1079 1.429 . S
C1063 H1085 0.950 . S
C1064 H1060 0.949 . S
C1064 C1072 1.574 1_545 S
C1064 C1080 1.368 . S
H1065 C1073 0.950 . S
H1066 C1071 0.950 . S
H1067 C1072 0.949 . S
H1068 C1074 0.950 . S
H1069 C1075 0.950 . S
H1070 C1076 0.949 . S
C1071 H1066 0.950 . S
C1071 C1073 1.327 . S
C1071 C1077 1.429 . S
C1072 C1064 1.574 1_565 S
C1072 H1067 0.949 . S
C1072 C1078 1.368 1_554 S
C1073 C1057 1.349 . S
C1073 H1065 0.950 . S
C1073 C1071 1.327 . S
C1074 C1062 1.349 . S
C1074 H1068 0.950 . S
C1074 C1075 1.327 . S
C1075 H1069 0.950 . S
C1075 C1074 1.327 . S
C1075 C1079 1.429 . S
C1076 C1059 1.574 1_545 S
C1076 H1070 0.949 . S
C1076 C1080 1.368 1_556 S
C1077 C1058 1.429 . S
C1077 C1071 1.429 . S
C1077 C1078 1.523 . S
C1078 C1059 1.368 . S
C1078 C1072 1.368 1_556 S
C1078 C1077 1.523 . S
C1079 C1063 1.429 . S
C1079 C1075 1.429 . S
C1079 C1080 1.523 . S
C1080 C1064 1.368 . S
C1080 C1076 1.368 1_554 S
C1080 C1079 1.523 . S
H1081 C1056 0.950 . S
H1082 C1058 0.950 . S
H1083 C1059 0.949 . S
H1084 C1061 0.950 . S
H1085 C1063 0.950 . S
C1086 C1087 1.349 . S
C1086 C1088 1.327 . S
C1086 H1111 0.950 . S
C1087 C1086 1.349 . S
C1087 C1103 1.349 . S
C1088 C1086 1.327 . S
C1088 C1107 1.429 . S
C1088 H1112 0.950 . S
C1089 C1106 1.574 . S
C1089 C1108 1.368 . S
C1089 H1113 0.949 . S
H1090 C1094 0.949 . S
C1091 C1092 1.349 . S
C1091 C1093 1.327 . S
C1091 H1114 0.950 . S
C1092 C1091 1.349 . S
C1092 C1104 1.349 . S
C1093 C1091 1.327 . S
C1093 C1109 1.429 . S
C1093 H1115 0.950 . S
C1094 H1090 0.949 . S
C1094 C1102 1.574 . S
C1094 C1110 1.368 . S
H1095 C1103 0.950 . S
H1096 C1101 0.950 . S
H1097 C1102 0.949 . S
H1098 C1104 0.950 . S
H1099 C1105 0.950 . S
H1100 C1106 0.949 . S
C1101 H1096 0.950 . S
C1101 C1103 1.327 . S
C1101 C1107 1.429 . S
C1102 C1094 1.574 . S
C1102 H1097 0.949 . S
C1102 C1108 1.368 . S
C1103 C1087 1.349 . S
C1103 H1095 0.950 . S
C1103 C1101 1.327 . S
C1104 C1092 1.349 . S
C1104 H1098 0.950 . S
C1104 C1105 1.327 . S
C1105 H1099 0.950 . S
C1105 C1104 1.327 . S
C1105 C1109 1.429 . S
C1106 C1089 1.574 . S
C1106 H1100 0.949 . S
C1106 C1110 1.368 . S
C1107 C1088 1.429 . S
C1107 C1101 1.429 . S
C1107 C1108 1.523 . S
C1108 C1089 1.368 . S
C1108 C1102 1.368 . S
C1108 C1107 1.523 . S
C1109 C1093 1.429 . S
C1109 C1105 1.429 . S
C1109 C1110 1.523 . S
C1110 C1094 1.368 . S
C1110 C1106 1.368 . S
C1110 C1109 1.523 . S
H1111 C1086 0.950 . S
H1112 C1088 0.950 . S
H1113 C1089 0.949 . S
H1114 C1091 0.950 . S
H1115 C1093 0.950 . S
C1116 C1117 1.349 . S
C1116 C1118 1.327 . S
C1116 H1141 0.950 . S
C1117 C1116 1.349 . S
C1117 C1133 1.349 . S
C1118 C1116 1.327 . S
C1118 C1137 1.429 . S
C1118 H1142 0.950 . S
C1119 C1136 1.573 1_455 S
C1119 C1138 1.369 . S
C1119 H1143 0.956 . S
H1120 C1124 0.956 . S
C1121 C1122 1.349 . S
C1121 C1123 1.327 . S
C1121 H1144 0.950 . S
C1122 C1121 1.349 . S
C1122 C1134 1.349 . S
C1123 C1121 1.327 . S
C1123 C1139 1.429 . S
C1123 H1145 0.950 . S
C1124 H1120 0.956 . S
C1124 C1132 1.573 1_655 S
C1124 C1140 1.369 . S
H1125 C1133 0.950 . S
H1126 C1131 0.950 . S
H1127 C1132 0.949 . S
H1128 C1134 0.950 . S
H1129 C1135 0.950 . S
H1130 C1136 0.949 . S
C1131 H1126 0.950 . S
C1131 C1133 1.327 . S
C1131 C1137 1.429 . S
C1132 C1124 1.573 1_455 S
C1132 H1127 0.949 . S
C1132 C1138 1.368 1_554 S
C1133 C1117 1.349 . S
C1133 H1125 0.950 . S
C1133 C1131 1.327 . S
C1134 C1122 1.349 . S
C1134 H1128 0.950 . S
C1134 C1135 1.327 . S
C1135 H1129 0.950 . S
C1135 C1134 1.327 . S
C1135 C1139 1.429 . S
C1136 C1119 1.573 1_655 S
C1136 H1130 0.949 . S
C1136 C1140 1.368 1_556 S
C1137 C1118 1.429 . S
C1137 C1131 1.429 . S
C1137 C1138 1.523 . S
C1138 C1119 1.369 . S
C1138 C1132 1.368 1_556 S
C1138 C1137 1.523 . S
C1139 C1123 1.429 . S
C1139 C1135 1.429 . S
C1139 C1140 1.523 . S
C1140 C1124 1.369 . S
C1140 C1136 1.368 1_554 S
C1140 C1139 1.523 . S
H1141 C1116 0.950 . S
H1142 C1118 0.950 . S
H1143 C1119 0.956 . S
H1144 C1121 0.950 . S
H1145 C1123 0.950 . S
C1146 C1147 1.349 . S
C1146 C1148 1.327 . S
C1146 H1171 0.950 . S
C1147 C1146 1.349 . S
C1147 C1163 1.349 . S
C1148 C1146 1.327 . S
C1148 C1167 1.429 . S
C1148 H1172 0.950 . S
C1149 C1166 1.544 1_545 S
C1149 C1168 1.408 . S
C1149 H1173 0.942 . S
H1150 C1154 0.941 . S
C1151 C1152 1.349 . S
C1151 C1153 1.327 . S
C1151 H1174 0.950 . S
C1152 C1151 1.349 . S
C1152 C1164 1.349 . S
C1153 C1151 1.327 . S
C1153 C1169 1.429 . S
C1153 H1175 0.950 . S
C1154 H1150 0.941 . S
C1154 C1162 1.544 1_565 S
C1154 C1170 1.408 . S
H1155 C1163 0.950 . S
H1156 C1161 0.950 . S
H1157 C1162 0.949 . S
H1158 C1164 0.950 . S
H1159 C1165 0.950 . S
H1160 C1166 0.949 . S
C1161 H1156 0.950 . S
C1161 C1163 1.327 . S
C1161 C1167 1.429 . S
C1162 C1154 1.544 1_545 S
C1162 H1157 0.949 . S
C1162 C1168 1.368 . S
C1163 C1147 1.349 . S
C1163 H1155 0.950 . S
C1163 C1161 1.327 . S
C1164 C1152 1.349 . S
C1164 H1158 0.950 . S
C1164 C1165 1.327 . S
C1165 H1159 0.950 . S
C1165 C1164 1.327 . S
C1165 C1169 1.429 . S
C1166 C1149 1.544 1_565 S
C1166 H1160 0.949 . S
C1166 C1170 1.368 . S
C1167 C1148 1.429 . S
C1167 C1161 1.429 . S
C1167 C1168 1.523 . S
C1168 C1149 1.408 . S
C1168 C1162 1.368 . S
C1168 C1167 1.523 . S
C1169 C1153 1.429 . S
C1169 C1165 1.429 . S
C1169 C1170 1.523 . S
C1170 C1154 1.408 . S
C1170 C1166 1.368 . S
C1170 C1169 1.523 . S
H1171 C1146 0.950 . S
H1172 C1148 0.950 . S
H1173 C1149 0.942 . S
H1174 C1151 0.950 . S
H1175 C1153 0.950 . S
C1176 C1177 1.349 . S
C1176 C1178 1.327 . S
C1176 H1201 0.950 . S
C1177 C1176 1.349 . S
C1177 C1193 1.349 . S
C1178 C1176 1.327 . S
C1178 C1197 1.429 . S
C1178 H1202 0.950 . S
C1179 C1196 1.574 . S
C1179 C1198 1.368 . S
C1179 H1203 0.949 . S
H1180 C1184 0.949 . S
C1181 C1182 1.349 . S
C1181 C1183 1.327 . S
C1181 H1204 0.950 . S
C1182 C1181 1.349 . S
C1182 C1194 1.349 . S
C1183 C1181 1.327 . S
C1183 C1199 1.429 . S
C1183 H1205 0.950 . S
C1184 H1180 0.949 . S
C1184 C1192 1.574 . S
C1184 C1200 1.368 . S
H1185 C1193 0.950 . S
H1186 C1191 0.950 . S
H1187 C1192 0.949 . S
H1188 C1194 0.950 . S
H1189 C1195 0.950 . S
H1190 C1196 0.949 . S
C1191 H1186 0.950 . S
C1191 C1193 1.327 . S
C1191 C1197 1.429 . S
C1192 C1184 1.574 . S
C1192 H1187 0.949 . S
C1192 C1198 1.368 1_556 S
C1193 C1177 1.349 . S
C1193 H1185 0.950 . S
C1193 C1191 1.327 . S
C1194 C1182 1.349 . S
C1194 H1188 0.950 . S
C1194 C1195 1.327 . S
C1195 H1189 0.950 . S
C1195 C1194 1.327 . S
C1195 C1199 1.429 . S
C1196 C1179 1.574 . S
C1196 H1190 0.949 . S
C1196 C1200 1.368 1_554 S
C1197 C1178 1.429 . S
C1197 C1191 1.429 . S
C1197 C1198 1.523 . S
C1198 C1179 1.368 . S
C1198 C1192 1.368 1_554 S
C1198 C1197 1.523 . S
C1199 C1183 1.429 . S
C1199 C1195 1.429 . S
C1199 C1200 1.523 . S
C1200 C1184 1.368 . S
C1200 C1196 1.368 1_556 S
C1200 C1199 1.523 . S
H1201 C1176 0.950 . S
H1202 C1178 0.950 . S
H1203 C1179 0.949 . S
H1204 C1181 0.950 . S
H1205 C1183 0.950 . S
C1206 C1207 1.349 . S
C1206 C1208 1.327 . S
C1206 H1231 0.950 . S
C1207 C1206 1.349 . S
C1207 C1223 1.349 . S
C1208 C1206 1.327 . S
C1208 C1227 1.429 . S
C1208 H1232 0.950 . S
C1209 C1226 1.573 . S
C1209 C1228 1.368 . S
C1209 H1233 0.949 . S
H1210 C1214 0.949 . S
C1211 C1212 1.349 . S
C1211 C1213 1.327 . S
C1211 H1234 0.950 . S
C1212 C1211 1.349 . S
C1212 C1224 1.349 . S
C1213 C1211 1.327 . S
C1213 C1229 1.429 . S
C1213 H1235 0.950 . S
C1214 H1210 0.949 . S
C1214 C1222 1.573 . S
C1214 C1230 1.368 . S
H1215 C1223 0.950 . S
H1216 C1221 0.950 . S
H1217 C1222 0.950 1_455 S
H1218 C1224 0.950 . S
H1219 C1225 0.950 . S
H1220 C1226 0.950 1_655 S
C1221 H1216 0.950 . S
C1221 C1223 1.327 . S
C1221 C1227 1.429 . S
C1222 C1214 1.573 . S
C1222 H1217 0.950 1_655 S
C1222 C1228 1.369 1_655 S
C1223 C1207 1.349 . S
C1223 H1215 0.950 . S
C1223 C1221 1.327 . S
C1224 C1212 1.349 . S
C1224 H1218 0.950 . S
C1224 C1225 1.327 . S
C1225 H1219 0.950 . S
C1225 C1224 1.327 . S
C1225 C1229 1.429 . S
C1226 C1209 1.573 . S
C1226 H1220 0.950 1_455 S
C1226 C1230 1.370 1_455 S
C1227 C1208 1.429 . S
C1227 C1221 1.429 . S
C1227 C1228 1.523 . S
C1228 C1209 1.368 . S
C1228 C1222 1.369 1_455 S
C1228 C1227 1.523 . S
C1229 C1213 1.429 . S
C1229 C1225 1.429 . S
C1229 C1230 1.523 . S
C1230 C1214 1.368 . S
C1230 C1226 1.370 1_655 S
C1230 C1229 1.523 . S
H1231 C1206 0.950 . S
H1232 C1208 0.950 . S
H1233 C1209 0.949 . S
H1234 C1211 0.950 . S
H1235 C1213 0.950 . S
C1236 C1237 1.349 . S
C1236 C1238 1.327 . S
C1236 H1261 0.950 . S
C1237 C1236 1.349 . S
C1237 C1253 1.349 . S
C1238 C1236 1.327 . S
C1238 C1257 1.429 . S
C1238 H1262 0.950 . S
C1239 C1256 1.574 . S
C1239 C1258 1.368 1_554 S
C1239 H1263 0.949 . S
H1240 C1244 0.949 . S
C1241 C1242 1.349 . S
C1241 C1243 1.327 . S
C1241 H1264 0.950 . S
C1242 C1241 1.349 . S
C1242 C1254 1.349 . S
C1243 C1241 1.327 . S
C1243 C1259 1.429 . S
C1243 H1265 0.950 . S
C1244 H1240 0.949 . S
C1244 C1252 1.574 . S
C1244 C1260 1.368 1_556 S
H1245 C1253 0.950 . S
H1246 C1251 0.950 . S
H1247 C1252 0.949 . S
H1248 C1254 0.950 . S
H1249 C1255 0.950 . S
H1250 C1256 0.949 . S
C1251 H1246 0.950 . S
C1251 C1253 1.327 . S
C1251 C1257 1.429 . S
C1252 C1244 1.574 . S
C1252 H1247 0.949 . S
C1252 C1258 1.368 1_545 S
C1253 C1237 1.349 . S
C1253 H1245 0.950 . S
C1253 C1251 1.327 . S
C1254 C1242 1.349 . S
C1254 H1248 0.950 . S
C1254 C1255 1.327 . S
C1255 H1249 0.950 . S
C1255 C1254 1.327 . S
C1255 C1259 1.429 . S
C1256 C1239 1.574 . S
C1256 H1250 0.949 . S
C1256 C1260 1.368 1_565 S
C1257 C1238 1.429 . S
C1257 C1251 1.429 . S
C1257 C1258 1.523 . S
C1258 C1239 1.368 1_556 S
C1258 C1252 1.368 1_565 S
C1258 C1257 1.523 . S
C1259 C1243 1.429 . S
C1259 C1255 1.429 . S
C1259 C1260 1.523 . S
C1260 C1244 1.368 1_554 S
C1260 C1256 1.368 1_545 S
C1260 C1259 1.523 . S
H1261 C1236 0.950 . S
H1262 C1238 0.950 . S
H1263 C1239 0.949 . S
H1264 C1241 0.950 . S
H1265 C1243 0.950 . S
C1266 C1267 1.349 . S
C1266 C1268 1.327 . S
C1266 H1291 0.950 . S
C1267 C1266 1.349 . S
C1267 C1283 1.349 . S
C1268 C1266 1.327 . S
C1268 C1287 1.429 . S
C1268 H1292 0.950 . S
C1269 C1286 1.574 . S
C1269 C1288 1.368 . S
C1269 H1293 0.949 . S
H1270 C1274 0.949 . S
C1271 C1272 1.349 . S
C1271 C1273 1.327 . S
C1271 H1294 0.950 . S
C1272 C1271 1.349 . S
C1272 C1284 1.349 . S
C1273 C1271 1.327 . S
C1273 C1289 1.429 . S
C1273 H1295 0.950 . S
C1274 H1270 0.949 . S
C1274 C1282 1.574 . S
C1274 C1290 1.368 . S
H1275 C1283 0.950 . S
H1276 C1281 0.950 . S
H1277 C1282 0.949 . S
H1278 C1284 0.950 . S
H1279 C1285 0.950 . S
H1280 C1286 0.949 . S
C1281 H1276 0.950 . S
C1281 C1283 1.327 . S
C1281 C1287 1.429 . S
C1282 C1274 1.574 . S
C1282 H1277 0.949 . S
C1282 C1288 1.368 . S
C1283 C1267 1.349 . S
C1283 H1275 0.950 . S
C1283 C1281 1.327 . S
C1284 C1272 1.349 . S
C1284 H1278 0.950 . S
C1284 C1285 1.327 . S
C1285 H1279 0.950 . S
C1285 C1284 1.327 . S
C1285 C1289 1.429 . S
C1286 C1269 1.574 . S
C1286 H1280 0.949 . S
C1286 C1290 1.368 . S
C1287 C1268 1.429 . S
C1287 C1281 1.429 . S
C1287 C1288 1.523 . S
C1288 C1269 1.368 . S
C1288 C1282 1.368 . S
C1288 C1287 1.523 . S
C1289 C1273 1.429 . S
C1289 C1285 1.429 . S
C1289 C1290 1.523 . S
C1290 C1274 1.368 . S
C1290 C1286 1.368 . S
C1290 C1289 1.523 . S
H1291 C1266 0.950 . S
H1292 C1268 0.950 . S
H1293 C1269 0.949 . S
H1294 C1271 0.950 . S
H1295 C1273 0.950 . S
C1296 C1297 1.349 . S
C1296 C1298 1.327 . S
C1296 H1321 0.950 . S
C1297 C1296 1.349 . S
C1297 C1313 1.349 . S
C1298 C1296 1.327 . S
C1298 C1317 1.429 . S
C1298 H1322 0.950 . S
C1299 C1316 1.574 . S
C1299 C1318 1.368 1_556 S
C1299 H1323 0.949 . S
H1300 C1304 0.949 . S
C1301 C1302 1.349 . S
C1301 C1303 1.327 . S
C1301 H1324 0.950 . S
C1302 C1301 1.349 . S
C1302 C1314 1.349 . S
C1303 C1301 1.327 . S
C1303 C1319 1.429 . S
C1303 H1325 0.950 . S
C1304 H1300 0.949 . S
C1304 C1312 1.574 . S
C1304 C1320 1.368 1_554 S
H1305 C1313 0.950 . S
H1306 C1311 0.950 . S
H1307 C1312 0.949 . S
H1308 C1314 0.950 . S
H1309 C1315 0.950 . S
H1310 C1316 0.949 . S
C1311 H1306 0.950 . S
C1311 C1313 1.327 . S
C1311 C1317 1.429 . S
C1312 C1304 1.574 . S
C1312 H1307 0.949 . S
C1312 C1318 1.368 1_455 S
C1313 C1297 1.349 . S
C1313 H1305 0.950 . S
C1313 C1311 1.327 . S
C1314 C1302 1.349 . S
C1314 H1308 0.950 . S
C1314 C1315 1.327 . S
C1315 H1309 0.950 . S
C1315 C1314 1.327 . S
C1315 C1319 1.429 . S
C1316 C1299 1.574 . S
C1316 H1310 0.949 . S
C1316 C1320 1.368 1_655 S
C1317 C1298 1.429 . S
C1317 C1311 1.429 . S
C1317 C1318 1.523 . S
C1318 C1299 1.368 1_554 S
C1318 C1312 1.368 1_655 S
C1318 C1317 1.523 . S
C1319 C1303 1.429 . S
C1319 C1315 1.429 . S
C1319 C1320 1.523 . S
C1320 C1304 1.368 1_556 S
C1320 C1316 1.368 1_455 S
C1320 C1319 1.523 . S
H1321 C1296 0.950 . S
H1322 C1298 0.950 . S
H1323 C1299 0.949 . S
H1324 C1301 0.950 . S
H1325 C1303 0.950 . S
C1326 C1327 1.349 . S
C1326 C1328 1.327 . S
C1326 H1351 0.950 . S
C1327 C1326 1.349 . S
C1327 C1343 1.349 . S
C1328 C1326 1.327 . S
C1328 C1347 1.429 . S
C1328 H1352 0.950 . S
C1329 C1346 1.586 . S
C1329 C1348 1.368 . S
C1329 H1353 0.949 . S
H1330 C1334 0.949 . S
C1331 C1332 1.349 . S
C1331 C1333 1.327 . S
C1331 H1354 0.950 . S
C1332 C1331 1.349 . S
C1332 C1344 1.349 . S
C1333 C1331 1.327 . S
C1333 C1349 1.429 . S
C1333 H1355 0.950 . S
C1334 H1330 0.949 . S
C1334 C1342 1.587 . S
C1334 C1350 1.368 . S
H1335 C1343 0.950 . S
H1336 C1341 0.950 . S
H1337 C1342 0.947 . S
H1338 C1344 0.950 . S
H1339 C1345 0.950 . S
H1340 C1346 0.947 . S
C1341 H1336 0.950 . S
C1341 C1343 1.327 . S
C1341 C1347 1.429 . S
C1342 C1334 1.587 . S
C1342 H1337 0.947 . S
C1342 C1348 1.359 1_545 S
C1343 C1327 1.349 . S
C1343 H1335 0.950 . S
C1343 C1341 1.327 . S
C1344 C1332 1.349 . S
C1344 H1338 0.950 . S
C1344 C1345 1.327 . S
C1345 H1339 0.950 . S
C1345 C1344 1.327 . S
C1345 C1349 1.429 . S
C1346 C1329 1.586 . S
C1346 H1340 0.947 . S
C1346 C1350 1.360 1_565 S
C1347 C1328 1.429 . S
C1347 C1341 1.429 . S
C1347 C1348 1.523 . S
C1348 C1329 1.368 . S
C1348 C1342 1.359 1_565 S
C1348 C1347 1.523 . S
C1349 C1333 1.429 . S
C1349 C1345 1.429 . S
C1349 C1350 1.523 . S
C1350 C1334 1.368 . S
C1350 C1346 1.360 1_545 S
C1350 C1349 1.523 . S
H1351 C1326 0.950 . S
H1352 C1328 0.950 . S
H1353 C1329 0.949 . S
H1354 C1331 0.950 . S
H1355 C1333 0.950 . S
C1356 C1357 1.349 . S
C1356 C1358 1.327 . S
C1356 H1381 0.950 . S
C1357 C1356 1.349 . S
C1357 C1373 1.349 . S
C1358 C1356 1.327 . S
C1358 C1377 1.429 . S
C1358 H1382 0.950 . S
C1359 C1376 1.574 1_554 S
C1359 C1378 1.368 . S
C1359 H1383 0.949 . S
H1360 C1364 0.949 . S
C1361 C1362 1.349 . S
C1361 C1363 1.327 . S
C1361 H1384 0.950 . S
C1362 C1361 1.349 . S
C1362 C1374 1.349 . S
C1363 C1361 1.327 . S
C1363 C1379 1.429 . S
C1363 H1385 0.950 . S
C1364 H1360 0.949 . S
C1364 C1372 1.574 1_556 S
C1364 C1380 1.368 . S
H1365 C1373 0.950 . S
H1366 C1371 0.950 . S
H1367 C1372 0.949 . S
H1368 C1374 0.950 . S
H1369 C1375 0.950 . S
H1370 C1376 0.949 . S
C1371 H1366 0.950 . S
C1371 C1373 1.327 . S
C1371 C1377 1.429 . S
C1372 C1364 1.574 1_554 S
C1372 H1367 0.949 . S
C1372 C1378 1.368 . S
C1373 C1357 1.349 . S
C1373 H1365 0.950 . S
C1373 C1371 1.327 . S
C1374 C1362 1.349 . S
C1374 H1368 0.950 . S
C1374 C1375 1.327 . S
C1375 H1369 0.950 . S
C1375 C1374 1.327 . S
C1375 C1379 1.429 . S
C1376 C1359 1.574 1_556 S
C1376 H1370 0.949 . S
C1376 C1380 1.368 . S
C1377 C1358 1.429 . S
C1377 C1371 1.429 . S
C1377 C1378 1.523 . S
C1378 C1359 1.368 . S
C1378 C1372 1.368 . S
C1378 C1377 1.523 . S
C1379 C1363 1.429 . S
C1379 C1375 1.429 . S
C1379 C1380 1.523 . S
C1380 C1364 1.368 . S
C1380 C1376 1.368 . S
C1380 C1379 1.523 . S
H1381 C1356 0.950 . S
H1382 C1358 0.950 . S
H1383 C1359 0.949 . S
H1384 C1361 0.950 . S
H1385 C1363 0.950 . S
C1386 C1387 1.349 . S
C1386 C1388 1.327 . S
C1386 H1411 0.950 . S
C1387 C1386 1.349 . S
C1387 C1403 1.349 . S
C1388 C1386 1.327 . S
C1388 C1407 1.429 . S
C1388 H1412 0.950 . S
C1389 C1406 1.574 . S
C1389 C1408 1.368 . S
C1389 H1413 0.949 . S
H1390 C1394 0.949 . S
C1391 C1392 1.349 . S
C1391 C1393 1.327 . S
C1391 H1414 0.950 . S
C1392 C1391 1.349 . S
C1392 C1404 1.349 . S
C1393 C1391 1.327 . S
C1393 C1409 1.429 . S
C1393 H1415 0.950 . S
C1394 H1390 0.949 . S
C1394 C1402 1.574 . S
C1394 C1410 1.368 . S
H1395 C1403 0.950 . S
H1396 C1401 0.950 . S
H1397 C1402 0.949 . S
H1398 C1404 0.950 . S
H1399 C1405 0.950 . S
H1400 C1406 0.949 . S
C1401 H1396 0.950 . S
C1401 C1403 1.327 . S
C1401 C1407 1.429 . S
C1402 C1394 1.574 . S
C1402 H1397 0.949 . S
C1402 C1408 1.368 1_655 S
C1403 C1387 1.349 . S
C1403 H1395 0.950 . S
C1403 C1401 1.327 . S
C1404 C1392 1.349 . S
C1404 H1398 0.950 . S
C1404 C1405 1.327 . S
C1405 H1399 0.950 . S
C1405 C1404 1.327 . S
C1405 C1409 1.429 . S
C1406 C1389 1.574 . S
C1406 H1400 0.949 . S
C1406 C1410 1.368 1_455 S
C1407 C1388 1.429 . S
C1407 C1401 1.429 . S
C1407 C1408 1.523 . S
C1408 C1389 1.368 . S
C1408 C1402 1.368 1_455 S
C1408 C1407 1.523 . S
C1409 C1393 1.429 . S
C1409 C1405 1.429 . S
C1409 C1410 1.523 . S
C1410 C1394 1.368 . S
C1410 C1406 1.368 1_655 S
C1410 C1409 1.523 . S
H1411 C1386 0.950 . S
H1412 C1388 0.950 . S
H1413 C1389 0.949 . S
H1414 C1391 0.950 . S
H1415 C1393 0.950 . S
C1416 C1417 1.349 . S
C1416 C1418 1.327 . S
C1416 H1441 0.950 . S
C1417 C1416 1.349 . S
C1417 C1433 1.349 . S
C1418 C1416 1.327 . S
C1418 C1437 1.429 . S
C1418 H1442 0.950 . S
C1419 C1436 1.574 . S
C1419 C1438 1.368 . S
C1419 H1443 0.949 . S
H1420 C1424 0.949 . S
C1421 C1422 1.349 . S
C1421 C1423 1.327 . S
C1421 H1444 0.950 . S
C1422 C1421 1.349 . S
C1422 C1434 1.349 . S
C1423 C1421 1.327 . S
C1423 C1439 1.429 . S
C1423 H1445 0.950 . S
C1424 H1420 0.949 . S
C1424 C1432 1.574 . S
C1424 C1440 1.368 . S
H1425 C1433 0.950 . S
H1426 C1431 0.950 . S
H1427 C1432 0.949 . S
H1428 C1434 0.950 . S
H1429 C1435 0.950 . S
H1430 C1436 0.949 . S
C1431 H1426 0.950 . S
C1431 C1433 1.327 . S
C1431 C1437 1.429 . S
C1432 C1424 1.574 . S
C1432 H1427 0.949 . S
C1432 C1438 1.368 . S
C1433 C1417 1.349 . S
C1433 H1425 0.950 . S
C1433 C1431 1.327 . S
C1434 C1422 1.349 . S
C1434 H1428 0.950 . S
C1434 C1435 1.327 . S
C1435 H1429 0.950 . S
C1435 C1434 1.327 . S
C1435 C1439 1.429 . S
C1436 C1419 1.574 . S
C1436 H1430 0.949 . S
C1436 C1440 1.368 . S
C1437 C1418 1.429 . S
C1437 C1431 1.429 . S
C1437 C1438 1.523 . S
C1438 C1419 1.368 . S
C1438 C1432 1.368 . S
C1438 C1437 1.523 . S
C1439 C1423 1.429 . S
C1439 C1435 1.429 . S
C1439 C1440 1.523 . S
C1440 C1424 1.368 . S
C1440 C1436 1.368 . S
C1440 C1439 1.523 . S
H1441 C1416 0.950 . S
H1442 C1418 0.950 . S
H1443 C1419 0.949 . S
H1444 C1421 0.950 . S
H1445 C1423 0.950 . S
C1446 C1447 1.349 . S
C1446 C1448 1.327 . S
C1446 H1471 0.950 . S
C1447 C1446 1.349 . S
C1447 C1463 1.349 . S
C1448 C1446 1.327 . S
C1448 C1467 1.429 . S
C1448 H1472 0.950 . S
C1449 C1466 1.574 . S
C1449 C1468 1.368 . S
C1449 H1473 0.949 . S
H1450 C1454 0.949 . S
C1451 C1452 1.349 . S
C1451 C1453 1.327 . S
C1451 H1474 0.950 . S
C1452 C1451 1.349 . S
C1452 C1464 1.349 . S
C1453 C1451 1.327 . S
C1453 C1469 1.429 . S
C1453 H1475 0.950 . S
C1454 H1450 0.949 . S
C1454 C1462 1.574 . S
C1454 C1470 1.368 . S
H1455 C1463 0.950 . S
H1456 C1461 0.950 . S
H1457 C1462 0.949 . S
H1458 C1464 0.950 . S
H1459 C1465 0.950 . S
H1460 C1466 0.949 . S
C1461 H1456 0.950 . S
C1461 C1463 1.327 . S
C1461 C1467 1.429 . S
C1462 C1454 1.574 . S
C1462 H1457 0.949 . S
C1462 C1468 1.368 . S
C1463 C1447 1.349 . S
C1463 H1455 0.950 . S
C1463 C1461 1.327 . S
C1464 C1452 1.349 . S
C1464 H1458 0.950 . S
C1464 C1465 1.327 . S
C1465 H1459 0.950 . S
C1465 C1464 1.327 . S
C1465 C1469 1.429 . S
C1466 C1449 1.574 . S
C1466 H1460 0.949 . S
C1466 C1470 1.368 . S
C1467 C1448 1.429 . S
C1467 C1461 1.429 . S
C1467 C1468 1.523 . S
C1468 C1449 1.368 . S
C1468 C1462 1.368 . S
C1468 C1467 1.523 . S
C1469 C1453 1.429 . S
C1469 C1465 1.429 . S
C1469 C1470 1.523 . S
C1470 C1454 1.368 . S
C1470 C1466 1.368 . S
C1470 C1469 1.523 . S
H1471 C1446 0.950 . S
H1472 C1448 0.950 . S
H1473 C1449 0.949 . S
H1474 C1451 0.950 . S
H1475 C1453 0.950 . S
C1476 C1477 1.349 . S
C1476 C1478 1.327 . S
C1476 H1501 0.950 . S
C1477 C1476 1.349 . S
C1477 C1493 1.349 . S
C1478 C1476 1.327 . S
C1478 C1497 1.429 . S
C1478 H1502 0.950 . S
C1479 C1496 1.574 . S
C1479 C1498 1.368 . S
C1479 H1503 0.949 . S
H1480 C1484 0.949 . S
C1481 C1482 1.349 . S
C1481 C1483 1.327 . S
C1481 H1504 0.950 . S
C1482 C1481 1.349 . S
C1482 C1494 1.349 . S
C1483 C1481 1.327 . S
C1483 C1499 1.429 . S
C1483 H1505 0.950 . S
C1484 H1480 0.949 . S
C1484 C1492 1.574 . S
C1484 C1500 1.368 . S
H1485 C1493 0.950 . S
H1486 C1491 0.950 . S
H1487 C1492 0.949 . S
H1488 C1494 0.950 . S
H1489 C1495 0.950 . S
H1490 C1496 0.949 . S
C1491 H1486 0.950 . S
C1491 C1493 1.327 . S
C1491 C1497 1.429 . S
C1492 C1484 1.574 . S
C1492 H1487 0.949 . S
C1492 C1498 1.368 . S
C1493 C1477 1.349 . S
C1493 H1485 0.950 . S
C1493 C1491 1.327 . S
C1494 C1482 1.349 . S
C1494 H1488 0.950 . S
C1494 C1495 1.327 . S
C1495 H1489 0.950 . S
C1495 C1494 1.327 . S
C1495 C1499 1.429 . S
C1496 C1479 1.574 . S
C1496 H1490 0.949 . S
C1496 C1500 1.368 . S
C1497 C1478 1.429 . S
C1497 C1491 1.429 . S
C1497 C1498 1.523 . S
C1498 C1479 1.368 . S
C1498 C1492 1.368 . S
C1498 C1497 1.523 . S
C1499 C1483 1.429 . S
C1499 C1495 1.429 . S
C1499 C1500 1.523 . S
C1500 C1484 1.368 . S
C1500 C1496 1.368 . S
C1500 C1499 1.523 . S
H1501 C1476 0.950 . S
H1502 C1478 0.950 . S
H1503 C1479 0.949 . S
H1504 C1481 0.950 . S
H1505 C1483 0.950 . S
C1506 C1507 1.349 . S
C1506 C1508 1.327 . S
C1506 H1531 0.950 . S
C1507 C1506 1.349 . S
C1507 C1523 1.349 . S
C1508 C1506 1.327 . S
C1508 C1527 1.429 . S
C1508 H1532 0.950 . S
C1509 C1526 1.574 . S
C1509 C1528 1.368 . S
C1509 H1533 0.949 . S
H1510 C1514 0.949 . S
C1511 C1512 1.349 . S
C1511 C1513 1.327 . S
C1511 H1534 0.950 . S
C1512 C1511 1.349 . S
C1512 C1524 1.349 . S
C1513 C1511 1.327 . S
C1513 C1529 1.429 . S
C1513 H1535 0.950 . S
C1514 H1510 0.949 . S
C1514 C1522 1.574 . S
C1514 C1530 1.368 . S
H1515 C1523 0.950 . S
H1516 C1521 0.950 . S
H1517 C1522 0.949 . S
H1518 C1524 0.950 . S
H1519 C1525 0.950 . S
H1520 C1526 0.949 . S
C1521 H1516 0.950 . S
C1521 C1523 1.327 . S
C1521 C1527 1.429 . S
C1522 C1514 1.574 . S
C1522 H1517 0.949 . S
C1522 C1528 1.368 . S
C1523 C1507 1.349 . S
C1523 H1515 0.950 . S
C1523 C1521 1.327 . S
C1524 C1512 1.349 . S
C1524 H1518 0.950 . S
C1524 C1525 1.327 . S
C1525 H1519 0.950 . S
C1525 C1524 1.327 . S
C1525 C1529 1.429 . S
C1526 C1509 1.574 . S
C1526 H1520 0.949 . S
C1526 C1530 1.368 . S
C1527 C1508 1.429 . S
C1527 C1521 1.429 . S
C1527 C1528 1.523 . S
C1528 C1509 1.368 . S
C1528 C1522 1.368 . S
C1528 C1527 1.523 . S
C1529 C1513 1.429 . S
C1529 C1525 1.429 . S
C1529 C1530 1.523 . S
C1530 C1514 1.368 . S
C1530 C1526 1.368 . S
C1530 C1529 1.523 . S
H1531 C1506 0.950 . S
H1532 C1508 0.950 . S
H1533 C1509 0.949 . S
H1534 C1511 0.950 . S
H1535 C1513 0.950 . S
C1536 C1537 1.349 . S
C1536 C1538 1.327 . S
C1536 H1561 0.950 . S
C1537 C1536 1.349 . S
C1537 C1553 1.349 . S
C1538 C1536 1.327 . S
C1538 C1557 1.429 . S
C1538 H1562 0.950 . S
C1539 C1556 1.574 . S
C1539 C1558 1.368 . S
C1539 H1563 0.949 . S
H1540 C1544 0.949 . S
C1541 C1542 1.349 . S
C1541 C1543 1.327 . S
C1541 H1564 0.950 . S
C1542 C1541 1.349 . S
C1542 C1554 1.349 . S
C1543 C1541 1.327 . S
C1543 C1559 1.429 . S
C1543 H1565 0.950 . S
C1544 H1540 0.949 . S
C1544 C1552 1.574 . S
C1544 C1560 1.368 . S
H1545 C1553 0.950 . S
H1546 C1551 0.950 . S
H1547 C1552 0.949 . S
H1548 C1554 0.950 . S
H1549 C1555 0.950 . S
H1550 C1556 0.949 . S
C1551 H1546 0.950 . S
C1551 C1553 1.327 . S
C1551 C1557 1.429 . S
C1552 C1544 1.574 . S
C1552 H1547 0.949 . S
C1552 C1558 1.368 . S
C1553 C1537 1.349 . S
C1553 H1545 0.950 . S
C1553 C1551 1.327 . S
C1554 C1542 1.349 . S
C1554 H1548 0.950 . S
C1554 C1555 1.327 . S
C1555 H1549 0.950 . S
C1555 C1554 1.327 . S
C1555 C1559 1.429 . S
C1556 C1539 1.574 . S
C1556 H1550 0.949 . S
C1556 C1560 1.368 . S
C1557 C1538 1.429 . S
C1557 C1551 1.429 . S
C1557 C1558 1.523 . S
C1558 C1539 1.368 . S
C1558 C1552 1.368 . S
C1558 C1557 1.523 . S
C1559 C1543 1.429 . S
C1559 C1555 1.429 . S
C1559 C1560 1.523 . S
C1560 C1544 1.368 . S
C1560 C1556 1.368 . S
C1560 C1559 1.523 . S
H1561 C1536 0.950 . S
H1562 C1538 0.950 . S
H1563 C1539 0.949 . S
H1564 C1541 0.950 . S
H1565 C1543 0.950 . S
C1566 C1567 1.349 . S
C1566 C1568 1.327 . S
C1566 H1591 0.950 . S
C1567 C1566 1.349 . S
C1567 C1583 1.349 . S
C1568 C1566 1.327 . S
C1568 C1587 1.429 . S
C1568 H1592 0.950 . S
C1569 C1586 1.574 . S
C1569 C1588 1.368 . S
C1569 H1593 0.949 . S
H1570 C1574 0.949 . S
C1571 C1572 1.349 . S
C1571 C1573 1.327 . S
C1571 H1594 0.950 . S
C1572 C1571 1.349 . S
C1572 C1584 1.349 . S
C1573 C1571 1.327 . S
C1573 C1589 1.429 . S
C1573 H1595 0.950 . S
C1574 H1570 0.949 . S
C1574 C1582 1.574 . S
C1574 C1590 1.368 . S
H1575 C1583 0.950 . S
H1576 C1581 0.950 . S
H1577 C1582 0.949 . S
H1578 C1584 0.950 . S
H1579 C1585 0.950 . S
H1580 C1586 0.949 . S
C1581 H1576 0.950 . S
C1581 C1583 1.327 . S
C1581 C1587 1.429 . S
C1582 C1574 1.574 . S
C1582 H1577 0.949 . S
C1582 C1588 1.368 . S
C1583 C1567 1.349 . S
C1583 H1575 0.950 . S
C1583 C1581 1.327 . S
C1584 C1572 1.349 . S
C1584 H1578 0.950 . S
C1584 C1585 1.327 . S
C1585 H1579 0.950 . S
C1585 C1584 1.327 . S
C1585 C1589 1.429 . S
C1586 C1569 1.574 . S
C1586 H1580 0.949 . S
C1586 C1590 1.368 . S
C1587 C1568 1.429 . S
C1587 C1581 1.429 . S
C1587 C1588 1.523 . S
C1588 C1569 1.368 . S
C1588 C1582 1.368 . S
C1588 C1587 1.523 . S
C1589 C1573 1.429 . S
C1589 C1585 1.429 . S
C1589 C1590 1.523 . S
C1590 C1574 1.368 . S
C1590 C1586 1.368 . S
C1590 C1589 1.523 . S
H1591 C1566 0.950 . S
H1592 C1568 0.950 . S
H1593 C1569 0.949 . S
H1594 C1571 0.950 . S
H1595 C1573 0.950 . S
C1596 C1597 1.349 . S
C1596 C1598 1.327 . S
C1596 H1621 0.950 . S
C1597 C1596 1.349 . S
C1597 C1613 1.349 . S
C1598 C1596 1.327 . S
C1598 C1617 1.429 . S
C1598 H1622 0.950 . S
C1599 C1616 1.574 . S
C1599 C1618 1.368 . S
C1599 H1623 0.949 . S
H1600 C1604 0.949 . S
C1601 C1602 1.349 . S
C1601 C1603 1.327 . S
C1601 H1624 0.950 . S
C1602 C1601 1.349 . S
C1602 C1614 1.349 . S
C1603 C1601 1.327 . S
C1603 C1619 1.429 . S
C1603 H1625 0.950 . S
C1604 H1600 0.949 . S
C1604 C1612 1.574 . S
C1604 C1620 1.368 . S
H1605 C1613 0.950 . S
H1606 C1611 0.950 . S
H1607 C1612 0.949 . S
H1608 C1614 0.950 . S
H1609 C1615 0.950 . S
H1610 C1616 0.949 . S
C1611 H1606 0.950 . S
C1611 C1613 1.327 . S
C1611 C1617 1.429 . S
C1612 C1604 1.574 . S
C1612 H1607 0.949 . S
C1612 C1618 1.368 . S
C1613 C1597 1.349 . S
C1613 H1605 0.950 . S
C1613 C1611 1.327 . S
C1614 C1602 1.349 . S
C1614 H1608 0.950 . S
C1614 C1615 1.327 . S
C1615 H1609 0.950 . S
C1615 C1614 1.327 . S
C1615 C1619 1.429 . S
C1616 C1599 1.574 . S
C1616 H1610 0.949 . S
C1616 C1620 1.368 . S
C1617 C1598 1.429 . S
C1617 C1611 1.429 . S
C1617 C1618 1.523 . S
C1618 C1599 1.368 . S
C1618 C1612 1.368 . S
C1618 C1617 1.523 . S
C1619 C1603 1.429 . S
C1619 C1615 1.429 . S
C1619 C1620 1.523 . S
C1620 C1604 1.368 . S
C1620 C1616 1.368 . S
C1620 C1619 1.523 . S
H1621 C1596 0.950 . S
H1622 C1598 0.950 . S
H1623 C1599 0.949 . S
H1624 C1601 0.950 . S
H1625 C1603 0.950 . S
C1626 C1627 1.349 . S
C1626 C1628 1.327 . S
C1626 H1651 0.950 . S
C1627 C1626 1.349 . S
C1627 C1643 1.349 . S
C1628 C1626 1.327 . S
C1628 C1647 1.429 . S
C1628 H1652 0.950 . S
C1629 C1646 1.574 . S
C1629 C1648 1.368 . S
C1629 H1653 0.949 . S
H1630 C1634 0.949 . S
C1631 C1632 1.349 . S
C1631 C1633 1.327 . S
C1631 H1654 0.950 . S
C1632 C1631 1.349 . S
C1632 C1644 1.349 . S
C1633 C1631 1.327 . S
C1633 C1649 1.429 . S
C1633 H1655 0.950 . S
C1634 H1630 0.949 . S
C1634 C1642 1.574 . S
C1634 C1650 1.368 . S
H1635 C1643 0.950 . S
H1636 C1641 0.950 . S
H1637 C1642 0.949 . S
H1638 C1644 0.950 . S
H1639 C1645 0.950 . S
H1640 C1646 0.949 . S
C1641 H1636 0.950 . S
C1641 C1643 1.327 . S
C1641 C1647 1.429 . S
C1642 C1634 1.574 . S
C1642 H1637 0.949 . S
C1642 C1648 1.368 . S
C1643 C1627 1.349 . S
C1643 H1635 0.950 . S
C1643 C1641 1.327 . S
C1644 C1632 1.349 . S
C1644 H1638 0.950 . S
C1644 C1645 1.327 . S
C1645 H1639 0.950 . S
C1645 C1644 1.327 . S
C1645 C1649 1.429 . S
C1646 C1629 1.574 . S
C1646 H1640 0.949 . S
C1646 C1650 1.368 . S
C1647 C1628 1.429 . S
C1647 C1641 1.429 . S
C1647 C1648 1.523 . S
C1648 C1629 1.368 . S
C1648 C1642 1.368 . S
C1648 C1647 1.523 . S
C1649 C1633 1.429 . S
C1649 C1645 1.429 . S
C1649 C1650 1.523 . S
C1650 C1634 1.368 . S
C1650 C1646 1.368 . S
C1650 C1649 1.523 . S
H1651 C1626 0.950 . S
H1652 C1628 0.950 . S
H1653 C1629 0.949 . S
H1654 C1631 0.950 . S
H1655 C1633 0.950 . S
C1656 C1657 1.349 . S
C1656 C1658 1.327 . S
C1656 H1681 0.950 . S
C1657 C1656 1.349 . S
C1657 C1673 1.349 . S
C1658 C1656 1.327 . S
C1658 C1677 1.429 . S
C1658 H1682 0.950 . S
C1659 C1676 1.574 . S
C1659 C1678 1.368 . S
C1659 H1683 0.949 . S
H1660 C1664 0.949 . S
C1661 C1662 1.349 . S
C1661 C1663 1.327 . S
C1661 H1684 0.950 . S
C1662 C1661 1.349 . S
C1662 C1674 1.349 . S
C1663 C1661 1.327 . S
C1663 C1679 1.429 . S
C1663 H1685 0.950 . S
C1664 H1660 0.949 . S
C1664 C1672 1.574 . S
C1664 C1680 1.368 . S
H1665 C1673 0.950 . S
H1666 C1671 0.950 . S
H1667 C1672 0.949 . S
H1668 C1674 0.950 . S
H1669 C1675 0.950 . S
H1670 C1676 0.949 . S
C1671 H1666 0.950 . S
C1671 C1673 1.327 . S
C1671 C1677 1.429 . S
C1672 C1664 1.574 . S
C1672 H1667 0.949 . S
C1672 C1678 1.368 . S
C1673 C1657 1.349 . S
C1673 H1665 0.950 . S
C1673 C1671 1.327 . S
C1674 C1662 1.349 . S
C1674 H1668 0.950 . S
C1674 C1675 1.327 . S
C1675 H1669 0.950 . S
C1675 C1674 1.327 . S
C1675 C1679 1.429 . S
C1676 C1659 1.574 . S
C1676 H1670 0.949 . S
C1676 C1680 1.368 . S
C1677 C1658 1.429 . S
C1677 C1671 1.429 . S
C1677 C1678 1.523 . S
C1678 C1659 1.368 . S
C1678 C1672 1.368 . S
C1678 C1677 1.523 . S
C1679 C1663 1.429 . S
C1679 C1675 1.429 . S
C1679 C1680 1.523 . S
C1680 C1664 1.368 . S
C1680 C1676 1.368 . S
C1680 C1679 1.523 . S
H1681 C1656 0.950 . S
H1682 C1658 0.950 . S
H1683 C1659 0.949 . S
H1684 C1661 0.950 . S
H1685 C1663 0.950 . S
C1686 C1687 1.349 . S
C1686 C1688 1.327 . S
C1686 H1711 0.950 . S
C1687 C1686 1.349 . S
C1687 C1703 1.349 . S
C1688 C1686 1.327 . S
C1688 C1707 1.429 . S
C1688 H1712 0.950 . S
C1689 C1706 1.574 . S
C1689 C1708 1.368 . S
C1689 H1713 0.949 . S
H1690 C1694 0.949 . S
C1691 C1692 1.349 . S
C1691 C1693 1.327 . S
C1691 H1714 0.950 . S
C1692 C1691 1.349 . S
C1692 C1704 1.349 . S
C1693 C1691 1.327 . S
C1693 C1709 1.429 . S
C1693 H1715 0.950 . S
C1694 H1690 0.949 . S
C1694 C1702 1.574 . S
C1694 C1710 1.368 . S
H1695 C1703 0.950 . S
H1696 C1701 0.950 . S
H1697 C1702 0.949 . S
H1698 C1704 0.950 . S
H1699 C1705 0.950 . S
H1700 C1706 0.949 . S
C1701 H1696 0.950 . S
C1701 C1703 1.327 . S
C1701 C1707 1.429 . S
C1702 C1694 1.574 . S
C1702 H1697 0.949 . S
C1702 C1708 1.368 . S
C1703 C1687 1.349 . S
C1703 H1695 0.950 . S
C1703 C1701 1.327 . S
C1704 C1692 1.349 . S
C1704 H1698 0.950 . S
C1704 C1705 1.327 . S
C1705 H1699 0.950 . S
C1705 C1704 1.327 . S
C1705 C1709 1.429 . S
C1706 C1689 1.574 . S
C1706 H1700 0.949 . S
C1706 C1710 1.368 . S
C1707 C1688 1.429 . S
C1707 C1701 1.429 . S
C1707 C1708 1.523 . S
C1708 C1689 1.368 . S
C1708 C1702 1.368 . S
C1708 C1707 1.523 . S
C1709 C1693 1.429 . S
C1709 C1705 1.429 . S
C1709 C1710 1.523 . S
C1710 C1694 1.368 . S
C1710 C1706 1.368 . S
C1710 C1709 1.523 . S
H1711 C1686 0.950 . S
H1712 C1688 0.950 . S
H1713 C1689 0.949 . S
H1714 C1691 0.950 . S
H1715 C1693 0.950 . S
C1716 C1717 1.349 . S
C1716 C1718 1.327 . S
C1716 H1741 0.950 . S
C1717 C1716 1.349 . S
C1717 C1733 1.349 . S
C1718 C1716 1.327 . S
C1718 C1737 1.429 . S
C1718 H1742 0.950 . S
C1719 C1736 1.574 . S
C1719 C1738 1.368 . S
C1719 H1743 0.949 . S
H1720 C1724 0.949 . S
C1721 C1722 1.349 . S
C1721 C1723 1.327 . S
C1721 H1744 0.950 . S
C1722 C1721 1.349 . S
C1722 C1734 1.349 . S
C1723 C1721 1.327 . S
C1723 C1739 1.429 . S
C1723 H1745 0.950 . S
C1724 H1720 0.949 . S
C1724 C1732 1.574 . S
C1724 C1740 1.368 . S
H1725 C1733 0.950 . S
H1726 C1731 0.950 . S
H1727 C1732 0.949 . S
H1728 C1734 0.950 . S
H1729 C1735 0.950 . S
H1730 C1736 0.949 . S
C1731 H1726 0.950 . S
C1731 C1733 1.327 . S
C1731 C1737 1.429 . S
C1732 C1724 1.574 . S
C1732 H1727 0.949 . S
C1732 C1738 1.368 . S
C1733 C1717 1.349 . S
C1733 H1725 0.950 . S
C1733 C1731 1.327 . S
C1734 C1722 1.349 . S
C1734 H1728 0.950 . S
C1734 C1735 1.327 . S
C1735 H1729 0.950 . S
C1735 C1734 1.327 . S
C1735 C1739 1.429 . S
C1736 C1719 1.574 . S
C1736 H1730 0.949 . S
C1736 C1740 1.368 . S
C1737 C1718 1.429 . S
C1737 C1731 1.429 . S
C1737 C1738 1.523 . S
C1738 C1719 1.368 . S
C1738 C1732 1.368 . S
C1738 C1737 1.523 . S
C1739 C1723 1.429 . S
C1739 C1735 1.429 . S
C1739 C1740 1.523 . S
C1740 C1724 1.368 . S
C1740 C1736 1.368 . S
C1740 C1739 1.523 . S
H1741 C1716 0.950 . S
H1742 C1718 0.950 . S
H1743 C1719 0.949 . S
H1744 C1721 0.950 . S
H1745 C1723 0.950 . S
C1746 C1747 1.349 . S
C1746 C1748 1.327 . S
C1746 H1771 0.950 . S
C1747 C1746 1.349 . S
C1747 C1763 1.349 . S
C1748 C1746 1.327 . S
C1748 C1767 1.429 . S
C1748 H1772 0.950 . S
C1749 C1766 1.574 . S
C1749 C1768 1.368 . S
C1749 H1773 0.949 . S
H1750 C1754 0.949 . S
C1751 C1752 1.349 . S
C1751 C1753 1.327 . S
C1751 H1774 0.950 . S
C1752 C1751 1.349 . S
C1752 C1764 1.349 . S
C1753 C1751 1.327 . S
C1753 C1769 1.429 . S
C1753 H1775 0.950 . S
C1754 H1750 0.949 . S
C1754 C1762 1.574 . S
C1754 C1770 1.368 . S
H1755 C1763 0.950 . S
H1756 C1761 0.950 . S
H1757 C1762 0.949 . S
H1758 C1764 0.950 . S
H1759 C1765 0.950 . S
H1760 C1766 0.949 . S
C1761 H1756 0.950 . S
C1761 C1763 1.327 . S
C1761 C1767 1.429 . S
C1762 C1754 1.574 . S
C1762 H1757 0.949 . S
C1762 C1768 1.368 . S
C1763 C1747 1.349 . S
C1763 H1755 0.950 . S
C1763 C1761 1.327 . S
C1764 C1752 1.349 . S
C1764 H1758 0.950 . S
C1764 C1765 1.327 . S
C1765 H1759 0.950 . S
C1765 C1764 1.327 . S
C1765 C1769 1.429 . S
C1766 C1749 1.574 . S
C1766 H1760 0.949 . S
C1766 C1770 1.368 . S
C1767 C1748 1.429 . S
C1767 C1761 1.429 . S
C1767 C1768 1.523 . S
C1768 C1749 1.368 . S
C1768 C1762 1.368 . S
C1768 C1767 1.523 . S
C1769 C1753 1.429 . S
C1769 C1765 1.429 . S
C1769 C1770 1.523 . S
C1770 C1754 1.368 . S
C1770 C1766 1.368 . S
C1770 C1769 1.523 . S
H1771 C1746 0.950 . S
H1772 C1748 0.950 . S
H1773 C1749 0.949 . S
H1774 C1751 0.950 . S
H1775 C1753 0.950 . S
C337 C222 1.372 . S
C342 C12 1.372 . S
C367 C26 1.372 . S
C372 C236 1.372 . S
C397 C40 1.372 . S
C402 C250 1.372 . S
C427 C54 1.372 . S
C432 C180 1.372 . S
C457 C194 1.372 . S
C462 C68 1.372 . S
C487 C82 1.372 . S
C492 C208 1.372 . S
C517 C306 1.372 . S
C522 C96 1.372 . S
C547 C110 1.372 . S
C552 C320 1.372 . S
C577 C124 1.372 . S
C582 C334 1.372 . S
C607 C264 1.372 . S
C612 C138 1.372 . S
C637 C152 1.372 . S
C642 C278 1.372 . S
C667 C292 1.372 . S
C672 C166 1.372 . S
C697 C11 1.014 . S
C702 C333 1.014 . S
C727 C263 1.014 . S
C732 C25 1.014 . S
C757 C39 1.014 . S
C762 C277 1.014 . S
C787 C291 1.014 . S
C792 C53 1.014 . S
C817 C67 1.013 . S
C822 C305 1.013 . S
C847 C319 1.014 . S
C852 C81 1.014 . S
C877 C95 1.014 . S
C882 C193 1.014 . S
C907 C207 1.014 . S
C912 C109 1.014 . S
C937 C221 1.013 . S
C942 C123 1.013 . S
C967 C235 1.014 . S
C972 C137 1.014 . S
C997 C151 1.014 . S
C1002 C249 1.014 . S
C1027 C165 1.014 . S
C1032 C179 1.014 . S
C1057 C103 0.956 . S
C1062 C5 0.956 . S
C1087 C117 0.956 . S
C1092 C19 0.956 . S
C1117 C131 0.956 . S
C1122 C33 0.956 . S
C1147 C145 0.956 . S
C1152 C47 0.956 . S
C1177 C61 0.956 . S
C1182 C159 0.956 . S
C1207 C75 0.956 . S
C1212 C89 0.956 . S
C1237 C173 0.956 . S
C1242 C271 0.956 . S
C1267 C187 0.955 . S
C1272 C285 0.955 . S
C1297 C299 0.956 . S
C1302 C201 0.956 . S
C1327 C313 0.956 . S
C1332 C215 0.956 . S
C1357 C327 0.955 . S
C1362 C229 0.955 . S
C1387 C257 0.956 . S
C1392 C243 0.956 . S
C1417 C4 1.319 . S
C1422 C270 1.319 . S
C1447 C284 1.319 . S
C1452 C18 1.319 . S
C1477 C32 1.319 . S
C1482 C298 1.319 . S
C1507 C312 1.319 . S
C1512 C46 1.319 . S
C1537 C60 1.319 . S
C1542 C326 1.319 . S
C1567 C256 1.319 . S
C1572 C74 1.319 . S
C1597 C88 1.319 . S
C1602 C242 1.319 . S
C1627 C172 1.319 . S
C1632 C102 1.319 . S
C1657 C116 1.319 . S
C1662 C186 1.319 . S
C1687 C130 1.319 . S
C1692 C200 1.319 . S
C1717 C144 1.319 . S
C1722 C214 1.319 . S
C1747 C158 1.319 . S
C1752 C228 1.319 . S
