# Generated by pormake.
# Topology umx, (4)-cn, num edge types: 1
# Building blocks:
#     Node 0, Type 0, BuildingBlock: CEKHIL_clean_sbu_0, # of connection points: 4
#     Node 1, Type 0, BuildingBlock: CEKHIL_clean_sbu_0, # of connection points: 4
#     Node 2, Type 0, BuildingBlock: CEKHIL_clean_sbu_0, # of connection points: 4
#     Node 3, Type 0, BuildingBlock: CEKHIL_clean_sbu_0, # of connection points: 4
#     Node 4, Type 0, BuildingBlock: CEKHIL_clean_sbu_0, # of connection points: 4
#     Node 5, Type 0, BuildingBlock: CEKHIL_clean_sbu_0, # of connection points: 4
#     Node 6, Type 0, BuildingBlock: CEKHIL_clean_sbu_0, # of connection points: 4
#     Node 7, Type 0, BuildingBlock: CEKHIL_clean_sbu_0, # of connection points: 4
#     Edge 8, Type (0, 0), BuildingBlock: XUDNAN_clean_linker_2, # of connection points: 2
#     Edge 9, Type (0, 0), BuildingBlock: XUDNAN_clean_linker_2, # of connection points: 2
#     Edge 10, Type (0, 0), BuildingBlock: XUDNAN_clean_linker_2, # of connection points: 2
#     Edge 11, Type (0, 0), BuildingBlock: XUDNAN_clean_linker_2, # of connection points: 2
#     Edge 12, Type (0, 0), BuildingBlock: XUDNAN_clean_linker_2, # of connection points: 2
#     Edge 13, Type (0, 0), BuildingBlock: XUDNAN_clean_linker_2, # of connection points: 2
#     Edge 14, Type (0, 0), BuildingBlock: XUDNAN_clean_linker_2, # of connection points: 2
#     Edge 15, Type (0, 0), BuildingBlock: XUDNAN_clean_linker_2, # of connection points: 2
#     Edge 16, Type (0, 0), BuildingBlock: XUDNAN_clean_linker_2, # of connection points: 2
#     Edge 17, Type (0, 0), BuildingBlock: XUDNAN_clean_linker_2, # of connection points: 2
#     Edge 18, Type (0, 0), BuildingBlock: XUDNAN_clean_linker_2, # of connection points: 2
#     Edge 19, Type (0, 0), BuildingBlock: XUDNAN_clean_linker_2, # of connection points: 2
#     Edge 20, Type (0, 0), BuildingBlock: XUDNAN_clean_linker_2, # of connection points: 2
#     Edge 21, Type (0, 0), BuildingBlock: XUDNAN_clean_linker_2, # of connection points: 2
#     Edge 22, Type (0, 0), BuildingBlock: XUDNAN_clean_linker_2, # of connection points: 2
#     Edge 23, Type (0, 0), BuildingBlock: XUDNAN_clean_linker_2, # of connection points: 2
# Relax obj value: 0.076
# Max RMSD: 0.187
# Mean RMSD: 0.187
data_MOF--net-umx--node1-CEKHIL_clean_sbu_0--edge1-XUDNAN_clean_linker_2
_symmetry_space_group_name_H-M    P1
_symmetry_Int_Tables_number       1
_symmetry_cell_setting            triclinic
loop_
_symmetry_equiv_pos_as_xyz
'x, y, z'
_cell_length_a     39.124904
_cell_length_b     39.091831
_cell_length_c     27.749012
_cell_angle_alpha  89.966078
_cell_angle_beta   90.037315
_cell_angle_gamma 90.039628
loop_
_atom_site_label
_atom_site_type_symbol
_atom_site_fract_x
_atom_site_fract_y
_atom_site_fract_z
_atom_type_partial_charge
Co0 Co 0.18739 0.4397 0.01162 0.0
O1 O 0.22954 0.41547 0.00584 0.0
O2 O 0.1821 0.39344 0.0366 0.0
C3 C 0.18814 0.45941 0.9357 0.0
O4 O 0.13882 0.45727 0.02162 0.0
Co5 Co 0.18617 0.51747 0.00413 0.0
O6 O 0.13646 0.51134 0.99454 0.0
C7 C 0.20905 0.48622 0.09466 0.0
C8 C 0.21395 0.38936 0.02427 0.0
C9 C 0.12194 0.4842 0.00941 0.0
O10 O 0.20192 0.45685 0.0766 0.0
O11 O 0.2058 0.51422 0.07116 0.0
O12 O 0.17625 0.42932 0.94588 0.0
O13 O 0.20162 0.4763 0.97123 0.0
Co14 Co 0.55607 0.19308 0.51114 0.0
O15 O 0.58213 0.23369 0.50213 0.0
O16 O 0.60388 0.18521 0.52912 0.0
C17 C 0.52998 0.19548 0.43886 0.0
O18 O 0.53487 0.14571 0.52232 0.0
Co19 Co 0.47718 0.20252 0.51468 0.0
O20 O 0.47811 0.15209 0.51048 0.0
C21 C 0.51764 0.21764 0.60136 0.0
C22 C 0.60879 0.21693 0.51614 0.0
C23 C 0.50429 0.13347 0.51829 0.0
O24 O 0.54471 0.2075 0.57925 0.0
O25 O 0.48828 0.21947 0.58114 0.0
O26 O 0.56025 0.1823 0.44299 0.0
O27 O 0.51816 0.20996 0.47728 0.0
Co28 Co 0.80786 0.5573 0.00026 0.0
O29 O 0.76447 0.5791 0.99461 0.0
O30 O 0.80835 0.60093 0.03433 0.0
C31 C 0.81217 0.54578 0.92066 0.0
O32 O 0.85695 0.54149 0.01138 0.0
Co33 Co 0.81218 0.48059 0.97503 0.0
O34 O 0.86192 0.48787 0.98216 0.0
C35 C 0.78659 0.50078 0.07085 0.0
C36 C 0.77721 0.60455 0.01836 0.0
C37 C 0.87464 0.51474 0.00086 0.0
O38 O 0.79255 0.5323 0.06032 0.0
O39 O 0.79049 0.47642 0.04049 0.0
O40 O 0.82105 0.57523 0.93793 0.0
O41 O 0.79818 0.52496 0.95123 0.0
Co42 Co 0.44297 0.81398 0.51158 0.0
O43 O 0.4217 0.76996 0.50744 0.0
O44 O 0.39444 0.81784 0.52573 0.0
C45 C 0.47155 0.80944 0.44201 0.0
O46 O 0.45654 0.86419 0.51751 0.0
Co47 Co 0.52083 0.82061 0.52006 0.0
O48 O 0.51315 0.86981 0.50678 0.0
C49 C 0.48119 0.79968 0.60508 0.0
C50 C 0.39319 0.785 0.51805 0.0
C51 C 0.48351 0.88272 0.51184 0.0
O52 O 0.45358 0.80551 0.58136 0.0
O53 O 0.51095 0.80204 0.58625 0.0
O54 O 0.43995 0.81941 0.44257 0.0
O55 O 0.48431 0.79973 0.48281 0.0
Co56 Co 0.1913 0.55512 0.52422 0.0
O57 O 0.2352 0.5767 0.52638 0.0
O58 O 0.18803 0.60167 0.49994 0.0
C59 C 0.19471 0.53374 0.59939 0.0
O60 O 0.14126 0.54084 0.5186 0.0
Co61 Co 0.18441 0.4763 0.53471 0.0
O62 O 0.13493 0.48606 0.54184 0.0
C63 C 0.20955 0.50637 0.44336 0.0
C64 C 0.22051 0.60396 0.50975 0.0
C65 C 0.12245 0.51476 0.52904 0.0
O66 O 0.20147 0.53661 0.45785 0.0
O67 O 0.20748 0.47979 0.47025 0.0
O68 O 0.18465 0.56503 0.59263 0.0
O69 O 0.2042 0.51743 0.5613 0.0
Co70 Co 0.44143 0.18913 0.0237 0.0
O71 O 0.41942 0.23249 0.02644 0.0
O72 O 0.39761 0.18712 0.99015 0.0
C73 C 0.45347 0.18769 0.10304 0.0
O74 O 0.45758 0.13976 0.01613 0.0
Co75 Co 0.51832 0.18638 0.04804 0.0
O76 O 0.51116 0.13635 0.04595 0.0
C77 C 0.49702 0.2108 0.95226 0.0
C78 C 0.39396 0.21882 0.00379 0.0
C79 C 0.48434 0.12267 0.02849 0.0
O80 O 0.46594 0.20296 0.9627 0.0
O81 O 0.5215 0.20856 0.98276 0.0
O82 O 0.42392 0.17805 0.08702 0.0
O83 O 0.47398 0.20078 0.07135 0.0
Co84 Co 0.81235 0.4397 0.51376 0.0
O85 O 0.77137 0.41335 0.51807 0.0
O86 O 0.82148 0.39231 0.49575 0.0
C87 C 0.80702 0.46552 0.58584 0.0
O88 O 0.86015 0.46072 0.50693 0.0
Co89 Co 0.8037 0.51873 0.50942 0.0
O90 O 0.85409 0.51796 0.51423 0.0
C91 C 0.79025 0.47837 0.42221 0.0
C92 C 0.78913 0.38721 0.50435 0.0
C93 C 0.87256 0.49131 0.5095 0.0
O94 O 0.80087 0.45153 0.4446 0.0
O95 O 0.78724 0.50759 0.44259 0.0
O96 O 0.81982 0.43501 0.58279 0.0
O97 O 0.79439 0.47772 0.54629 0.0
Co98 Co 0.55622 0.80807 0.02954 0.0
O99 O 0.58048 0.76563 0.02658 0.0
O100 O 0.6003 0.81511 -0.00095 0.0
C101 C 0.54174 0.80204 0.10728 0.0
O102 O 0.53877 0.85706 0.02738 0.0
Co103 Co 0.47909 0.81083 0.05325 0.0
O104 O 0.48639 0.8608 0.06005 0.0
C105 C 0.50194 0.79109 0.95519 0.0
C106 C 0.60529 0.7827 0.00713 0.0
C107 C 0.513 0.8746 0.04215 0.0
O108 O 0.53324 0.79786 0.96617 0.0
O109 O 0.47745 0.79235 0.98574 0.0
O110 O 0.57121 0.81483 0.09572 0.0
O111 O 0.52267 0.79179 0.07215 0.0
H112 H 0.20009 0.53804 0.16047 0.0
H113 H 0.24132 0.43565 0.14429 0.0
H114 H 0.25296 0.43329 0.23146 0.0
H115 H 0.25826 0.56583 0.26134 0.0
H116 H 0.22441 0.58893 0.29095 0.0
H117 H 0.2247 0.58522 0.22617 0.0
H118 H 0.1637 0.5594 0.2286 0.0
H119 H 0.16329 0.56287 0.29321 0.0
H120 H 0.15569 0.52203 0.26502 0.0
H121 H 0.25338 0.43854 0.32007 0.0
H122 H 0.24201 0.45078 0.40548 0.0
H123 H 0.19979 0.54967 0.36611 0.0
C124 C 0.21258 0.51562 0.17512 0.0
C125 C 0.22007 0.48714 0.1456 0.0
C126 C 0.23545 0.45779 0.16625 0.0
C127 C 0.24233 0.45627 0.21568 0.0
C128 C 0.23374 0.48432 0.24407 0.0
C129 C 0.21935 0.51354 0.22467 0.0
C130 C 0.20931 0.53853 0.26401 0.0
C131 C 0.23044 0.57159 0.26039 0.0
C132 C 0.17071 0.54613 0.26261 0.0
C133 C 0.21899 0.51815 0.30847 0.0
C134 C 0.23362 0.48723 0.29598 0.0
C135 C 0.24248 0.46289 0.33039 0.0
C136 C 0.23574 0.47005 0.37886 0.0
C137 C 0.22007 0.50124 0.39261 0.0
C138 C 0.21228 0.52585 0.35687 0.0
H139 H 0.46659 0.21382 0.66858 0.0
H140 H 0.57455 0.2366 0.65253 0.0
H141 H 0.57965 0.24328 0.74085 0.0
H142 H 0.4492 0.27049 0.77206 0.0
H143 H 0.42091 0.23991 0.79988 0.0
H144 H 0.42485 0.24135 0.7352 0.0
H145 H 0.44069 0.177 0.73427 0.0
H146 H 0.43689 0.17537 0.79882 0.0
H147 H 0.47609 0.16218 0.77026 0.0
H148 H 0.57397 0.24266 0.8312 0.0
H149 H 0.55863 0.23297 0.91632 0.0
H150 H 0.45454 0.20921 0.87322 0.0
C151 C 0.49112 0.22112 0.68349 0.0
C152 C 0.52011 0.22512 0.6536 0.0
C153 C 0.55197 0.23361 0.67471 0.0
C154 C 0.55508 0.23756 0.72482 0.0
C155 C 0.52613 0.23278 0.75334 0.0
C156 C 0.49476 0.2247 0.73342 0.0
C157 C 0.46835 0.21778 0.77214 0.0
C158 C 0.4391 0.24395 0.76967 0.0
C159 C 0.45472 0.1809 0.76865 0.0
C160 C 0.48985 0.22278 0.817 0.0
C161 C 0.52301 0.23176 0.80541 0.0
C162 C 0.54799 0.23598 0.84071 0.0
C163 C 0.539 0.23036 0.88904 0.0
C164 C 0.50532 0.22041 0.90175 0.0
C165 C 0.4804 0.21718 0.86503 0.0
H166 H 0.78763 0.53011 0.35509 0.0
H167 H 0.77684 0.42012 0.37062 0.0
H168 H 0.76841 0.41484 0.28275 0.0
H169 H 0.72596 0.54113 0.2553 0.0
H170 H 0.75192 0.57304 0.22594 0.0
H171 H 0.75315 0.5687 0.29059 0.0
H172 H 0.81884 0.56065 0.28729 0.0
H173 H 0.81782 0.565 0.22277 0.0
H174 H 0.83656 0.52748 0.24975 0.0
H175 H 0.76543 0.42093 0.19278 0.0
H176 H 0.77093 0.43738 0.10742 0.0
H177 H 0.78476 0.54343 0.14999 0.0
C178 C 0.78276 0.50498 0.34019 0.0
C179 C 0.78264 0.47554 0.36992 0.0
C180 C 0.77699 0.44305 0.34869 0.0
C181 C 0.77201 0.43981 0.2988 0.0
C182 C 0.77278 0.46927 0.27048 0.0
C183 C 0.77806 0.50124 0.29038 0.0
C184 C 0.7805 0.52847 0.25157 0.0
C185 C 0.75113 0.55436 0.25613 0.0
C186 C 0.81551 0.54644 0.25293 0.0
C187 C 0.77655 0.50672 0.20668 0.0
C188 C 0.77163 0.47272 0.21844 0.0
C189 C 0.76894 0.44753 0.18315 0.0
C190 C 0.7721 0.45718 0.13463 0.0
C191 C 0.77818 0.49177 0.12163 0.0
C192 C 0.77972 0.51684 0.1584 0.0
H193 H 0.54519 0.78843 0.87686 0.0
H194 H 0.43836 0.77887 0.91767 0.0
H195 H 0.42233 0.77438 0.83228 0.0
H196 H 0.53309 0.841 0.77865 0.0
H197 H 0.56527 0.82185 0.74084 0.0
H198 H 0.56927 0.81959 0.80532 0.0
H199 H 0.57321 0.75349 0.80086 0.0
H200 H 0.56945 0.75554 0.73616 0.0
H201 H 0.54005 0.72975 0.77055 0.0
H202 H 0.41685 0.77775 0.74328 0.0
H203 H 0.42254 0.78715 0.65595 0.0
H204 H 0.53285 0.79398 0.67203 0.0
C205 C 0.51849 0.78461 0.86797 0.0
C206 C 0.49311 0.784 0.9042 0.0
C207 C 0.4584 0.77932 0.8908 0.0
C208 C 0.44898 0.77668 0.84229 0.0
C209 C 0.47451 0.7783 0.80752 0.0
C210 C 0.5086 0.78176 0.81964 0.0
C211 C 0.5307 0.78498 0.77503 0.0
C212 C 0.55074 0.81887 0.77498 0.0
C213 C 0.55478 0.7541 0.77038 0.0
C214 C 0.50349 0.78448 0.73617 0.0
C215 C 0.47133 0.78006 0.7557 0.0
C216 C 0.44194 0.78068 0.72742 0.0
C217 C 0.44548 0.78619 0.67781 0.0
C218 C 0.47817 0.79125 0.65695 0.0
C219 C 0.50753 0.78986 0.68665 0.0
H220 H 0.80577 0.43815 0.67593 0.0
H221 H 0.80777 0.53484 0.59925 0.0
H222 H 0.81044 0.56571 0.67715 0.0
H223 H 0.75087 0.46767 0.7727 0.0
H224 H 0.7719 0.44207 0.81789 0.0
H225 H 0.77083 0.42781 0.75619 0.0
H226 H 0.83691 0.42335 0.75607 0.0
H227 H 0.83821 0.43782 0.81765 0.0
H228 H 0.86214 0.46027 0.77202 0.0
H229 H 0.8161 0.58541 0.76266 0.0
H230 H 0.81779 0.5938 0.85054 0.0
H231 H 0.80764 0.48428 0.87233 0.0
C232 C 0.80677 0.46584 0.67562 0.0
C233 C 0.80686 0.48427 0.63181 0.0
C234 C 0.80766 0.5204 0.63257 0.0
C235 C 0.80931 0.53805 0.67654 0.0
C236 C 0.80947 0.51908 0.71917 0.0
C237 C 0.80763 0.48382 0.71912 0.0
C238 C 0.80688 0.4696 0.76996 0.0
C239 C 0.77311 0.45067 0.77975 0.0
C240 C 0.83789 0.44639 0.77947 0.0
C241 C 0.80913 0.5024 0.79876 0.0
C242 C 0.81096 0.53057 0.76865 0.0
C243 C 0.81433 0.5636 0.78657 0.0
C244 C 0.81543 0.56803 0.83658 0.0
C245 C 0.81268 0.53966 0.8682 0.0
C246 C 0.80953 0.50641 0.84897 0.0
H247 H 0.55123 0.84474 0.18394 0.0
H248 H 0.5102 0.74593 0.14281 0.0
H249 H 0.49464 0.73442 0.22759 0.0
H250 H 0.58324 0.82162 0.30384 0.0
H251 H 0.56943 0.86116 0.33094 0.0
H252 H 0.58125 0.86014 0.26818 0.0
H253 H 0.52223 0.88526 0.2447 0.0
H254 H 0.51041 0.88665 0.30732 0.0
H255 H 0.48387 0.86405 0.26479 0.0
H256 H 0.48193 0.73423 0.31491 0.0
H257 H 0.46526 0.74858 0.39846 0.0
H258 H 0.51028 0.84921 0.38257 0.0
C259 C 0.53936 0.82057 0.19317 0.0
C260 C 0.53212 0.79598 0.15749 0.0
C261 C 0.51585 0.76496 0.17005 0.0
C262 C 0.50725 0.75811 0.21801 0.0
C263 C 0.51466 0.78284 0.25257 0.0
C264 C 0.52975 0.81372 0.24074 0.0
C265 C 0.53133 0.83738 0.28389 0.0
C266 C 0.56853 0.84554 0.29751 0.0
C267 C 0.51072 0.87027 0.27461 0.0
C268 C 0.51443 0.81508 0.32163 0.0
C269 C 0.50577 0.78343 0.30294 0.0
C270 C 0.48881 0.75876 0.33015 0.0
C271 C 0.4796 0.76701 0.3774 0.0
C272 C 0.48713 0.79963 0.39642 0.0
C273 C 0.50506 0.82384 0.36867 0.0
H274 H 0.17473 0.51913 0.88629 0.0
H275 H 0.21744 0.41728 0.87193 0.0
H276 H 0.22584 0.42665 0.78502 0.0
H277 H 0.12747 0.51657 0.77757 0.0
H278 H 0.13418 0.56075 0.76153 0.0
H279 H 0.1347 0.54806 0.82392 0.0
H280 H 0.1951 0.57429 0.83416 0.0
H281 H 0.19463 0.58738 0.77187 0.0
H282 H 0.22903 0.56117 0.79432 0.0
H283 H 0.22595 0.44435 0.70052 0.0
H284 H 0.21952 0.47073 0.62059 0.0
H285 H 0.17568 0.56135 0.68673 0.0
C286 C 0.1865 0.49928 0.86475 0.0
C287 C 0.19568 0.4676 0.88534 0.0
C288 C 0.21029 0.4417 0.8564 0.0
C289 C 0.21522 0.44679 0.80716 0.0
C290 C 0.20515 0.47785 0.78742 0.0
C291 C 0.1912 0.50379 0.81502 0.0
C292 C 0.18069 0.53377 0.78359 0.0
C293 C 0.14196 0.54015 0.78686 0.0
C294 C 0.20109 0.56606 0.79677 0.0
C295 C 0.19068 0.52035 0.73426 0.0
C296 C 0.20483 0.48808 0.73762 0.0
C297 C 0.21518 0.46974 0.69727 0.0
C298 C 0.21126 0.48489 0.65203 0.0
C299 C 0.19713 0.51805 0.64751 0.0
C300 C 0.18664 0.53598 0.68919 0.0
H301 H 0.55418 0.17368 0.35203 0.0
H302 H 0.46477 0.21752 0.4209 0.0
H303 H 0.43531 0.21929 0.34201 0.0
H304 H 0.55119 0.22348 0.24565 0.0
H305 H 0.56464 0.18941 0.20623 0.0
H306 H 0.57793 0.18954 0.26836 0.0
H307 H 0.55229 0.12896 0.28001 0.0
H308 H 0.53909 0.12854 0.21779 0.0
H309 H 0.50813 0.12137 0.2648 0.0
H310 H 0.41575 0.21594 0.25636 0.0
H311 H 0.4079 0.21025 0.16844 0.0
H312 H 0.51144 0.17208 0.15435 0.0
C313 C 0.52828 0.18341 0.35062 0.0
C314 C 0.51162 0.19538 0.3925 0.0
C315 C 0.47789 0.20817 0.38919 0.0
C316 C 0.461 0.20923 0.34462 0.0
C317 C 0.47832 0.19752 0.30393 0.0
C318 C 0.51122 0.18491 0.30647 0.0
C319 C 0.52446 0.17482 0.25716 0.0
C320 C 0.55644 0.19557 0.24357 0.0
C321 C 0.53139 0.13613 0.25482 0.0
C322 C 0.49412 0.18452 0.22623 0.0
C323 C 0.46757 0.19694 0.25414 0.0
C324 C 0.43638 0.20642 0.23414 0.0
C325 C 0.43216 0.20305 0.18432 0.0
C326 C 0.4592 0.19099 0.15506 0.0
C327 C 0.49064 0.1818 0.17613 0.0
H328 H 0.93014 0.54333 0.95644 0.0
H329 H 0.89923 0.47894 0.07578 0.0
H330 H 0.95975 0.46522 0.09276 0.0
H331 H 0.99477 0.48936 0.91435 0.0
H332 H 0.02415 0.52273 0.89721 0.0
H333 H 0.97889 0.53098 0.89756 0.0
H334 H 0.98782 0.58218 0.95549 0.0
H335 H 0.03321 0.57449 0.95459 0.0
H336 H 0.01069 0.57582 0.0112 0.0
H337 H 0.02232 0.45315 0.09071 0.0
H338 H 0.08442 0.44859 0.07558 0.0
H339 H 0.07526 0.52179 0.95864 0.0
C340 C 0.93641 0.52735 0.9871 0.0
C341 C 0.91049 0.51267 0.01562 0.0
C342 C 0.91911 0.49081 0.05432 0.0
C343 C 0.95328 0.48277 0.06401 0.0
C344 C 0.97839 0.49679 0.03445 0.0
C345 C 0.97051 0.51901 -0.0028 0.0
C346 C 0.0023 0.52898 0.96935 0.0
C347 C 0.99986 0.51731 0.9165 0.0
C348 C 0.00889 0.56767 0.9729 0.0
C349 C 0.02909 0.50872 0.99656 0.0
C350 C 0.01471 0.49011 0.0337 0.0
C351 C 0.03402 0.46798 0.0622 0.0
C352 C 0.06916 0.46532 0.0531 0.0
C353 C 0.08457 0.48497 0.01619 0.0
C354 C 0.06417 0.50679 0.9875 0.0
H355 H 0.53176 0.9313 0.4878 0.0
H356 H 0.42835 0.9196 0.54256 0.0
H357 H 0.42417 0.98204 0.55249 0.0
H358 H 0.55768 0.99944 0.56552 0.0
H359 H 0.58165 0.02207 0.5201 0.0
H360 H 0.57689 0.97631 0.51631 0.0
H361 H 0.5514 0.9821 0.43053 0.0
H362 H 0.55644 0.02785 0.43382 0.0
H363 H 0.5151 0.00965 0.4209 0.0
H364 H 0.43109 0.04452 0.55851 0.0
H365 H 0.44685 0.10523 0.55471 0.0
H366 H 0.54592 0.07824 0.49534 0.0
C367 C 0.50819 0.94186 0.50177 0.0
C368 C 0.4804 0.92044 0.51461 0.0
C369 C 0.44994 0.93537 0.53236 0.0
C370 C 0.44737 0.97082 0.53835 0.0
C371 C 0.47536 0.99106 0.52611 0.0
C372 C 0.50506 0.97731 0.50766 0.0
C373 C 0.531 0.00516 0.49647 0.0
C374 C 0.56374 1.00045 0.5264 0.0
C375 C 0.53895 0.00625 0.4422 0.0
C376 C 0.51134 0.03666 0.51223 0.0
C377 C 0.47932 0.02769 0.52919 0.0
C378 C 0.45601 0.05191 0.54517 0.0
C379 C 0.46527 0.08636 0.54281 0.0
C380 C 0.4976 0.09649 0.52461 0.0
C381 C 0.52121 0.07122 0.50986 0.0
H382 H 0.07279 0.47099 0.5633 0.0
H383 H 0.08711 0.56399 0.47983 0.0
H384 H 0.02518 0.56615 0.46393 0.0
H385 H 0.00801 0.4332 0.49034 0.0
H386 H 0.98345 0.41659 0.5401 0.0
H387 H 0.02894 0.4223 0.54618 0.0
H388 H 0.01964 0.46043 0.62133 0.0
H389 H 0.97414 0.45451 0.61583 0.0
H390 H 0.99185 0.49707 0.61715 0.0
H391 H 0.96276 0.55815 0.45565 0.0
H392 H 0.90186 0.54264 0.45959 0.0
H393 H 0.92659 0.45448 0.54809 0.0
C394 C 0.0629 0.49189 0.5418 0.0
C395 C 0.08492 0.5173 0.52266 0.0
C396 C 0.07085 0.54433 0.49506 0.0
C397 C 0.0357 0.54569 0.48561 0.0
C398 C 0.01489 0.51999 0.50433 0.0
C399 C 0.02777 0.49381 0.53232 0.0
C400 C 0.99947 0.46989 0.54884 0.0
C401 C 0.00533 0.43333 0.53023 0.0
C402 C 0.99608 0.47052 0.60406 0.0
C403 C 0.96877 0.48635 0.52481 0.0
C404 C 0.97843 0.5153 0.49953 0.0
C405 C 0.95485 0.53557 0.4753 0.0
C406 C 0.92035 0.52652 0.47775 0.0
C407 C 0.90961 0.49731 0.50397 0.0
C408 C 0.93421 0.47661 0.5272 0.0
H409 H 0.4766 0.92399 0.09058 0.0
H410 H 0.54848 0.90927 0.97324 0.0
H411 H 0.54474 0.97062 0.95334 0.0
H412 H 0.42311 0.98666 0.03374 0.0
H413 H 0.41745 0.01209 0.08731 0.0
H414 H 0.42499 0.96677 0.09232 0.0
H415 H 0.47723 0.97798 0.14756 0.0
H416 H 0.46951 0.02329 0.14336 0.0
H417 H 0.5107 0.0062 0.12717 0.0
H418 H 0.53328 0.03283 0.94551 0.0
H419 H 0.5197 0.09413 0.95611 0.0
H420 H 0.45623 0.06961 0.07926 0.0
C421 C 0.49156 0.93374 0.06075 0.0
C422 C 0.51274 0.91186 0.03332 0.0
C423 C 0.53226 0.92559 0.99493 0.0
C424 C 0.53009 0.96034 0.98308 0.0
C425 C 0.50858 0.98108 0.01029 0.0
C426 C 0.49012 0.96853 0.04886 0.0
C427 C 0.47038 0.99683 0.07376 0.0
C428 C 0.43168 0.99018 0.07163 0.0
C429 C 0.4827 0.00134 0.12605 0.0
C430 C 0.48036 0.02717 0.04276 0.0
C431 C 0.50224 0.01735 0.00615 0.0
C432 C 0.51601 0.04083 0.97378 0.0
C433 C 0.50802 0.07544 0.97982 0.0
C434 C 0.48641 0.08609 0.0177 0.0
C435 C 0.47202 0.06173 0.0492 0.0
H436 H 0.27933 0.38128 0.05061 0.0
H437 H 0.19036 0.3247 0.00306 0.0
H438 H 0.22645 0.27289 0.99179 0.0
H439 H 0.33647 0.34964 0.96892 0.0
H440 H 0.37232 0.34769 0.00966 0.0
H441 H 0.33878 0.37825 0.01978 0.0
H442 H 0.32882 0.35438 0.10591 0.0
H443 H 0.36308 0.32436 0.09663 0.0
H444 H 0.32136 0.30924 0.1141 0.0
H445 H 0.27556 0.22879 0.97838 0.0
H446 H 0.33016 0.19632 0.9731 0.0
H447 H 0.38447 0.28491 0.02801 0.0
C448 C 0.26727 0.35769 0.03911 0.0
C449 C 0.23223 0.35665 0.02803 0.0
C450 C 0.2172 0.3256 0.01257 0.0
C451 C 0.23756 0.29626 0.00565 0.0
C452 C 0.2726 0.29859 0.01503 0.0
C453 C 0.28701 0.32848 0.03246 0.0
C454 C 0.32514 0.32542 0.0385 0.0
C455 C 0.34427 0.35181 0.00734 0.0
C456 C 0.33518 0.32852 0.09195 0.0
C457 C 0.33041 0.28956 0.02013 0.0
C458 C 0.30004 0.27409 0.00703 0.0
C459 C 0.29939 0.2407 0.98891 0.0
C460 C 0.33049 0.22256 0.98556 0.0
C461 C 0.36157 0.23809 -3e-05 0.0
C462 C 0.36125 0.27218 0.01656 0.0
H463 H 0.72619 0.37719 0.46951 0.0
H464 H 0.81254 0.32292 0.53 0.0
H465 H 0.77708 0.27008 0.53571 0.0
H466 H 0.66496 0.34405 0.54345 0.0
H467 H 0.63189 0.34191 0.49831 0.0
H468 H 0.66552 0.37296 0.49279 0.0
H469 H 0.68093 0.3497 0.408 0.0
H470 H 0.64685 0.31887 0.41284 0.0
H471 H 0.6898 0.30477 0.40041 0.0
H472 H 0.7276 0.22495 0.54347 0.0
H473 H 0.67239 0.19314 0.54713 0.0
H474 H 0.62154 0.27992 0.48115 0.0
C475 C 0.73794 0.35391 0.48275 0.0
C476 C 0.77197 0.35386 0.49907 0.0
C477 C 0.78653 0.32315 0.5166 0.0
C478 C 0.7665 0.29318 0.52023 0.0
C479 C 0.73232 0.29451 0.50544 0.0
C480 C 0.71857 0.32415 0.4862 0.0
C481 C 0.68104 0.32042 0.47535 0.0
C482 C 0.65962 0.34636 0.50421 0.0
C483 C 0.67427 0.32361 0.42092 0.0
C484 C 0.67522 0.2844 0.49279 0.0
C485 C 0.70483 0.26941 0.50979 0.0
C486 C 0.70444 0.23645 0.52962 0.0
C487 C 0.67302 0.2186 0.53177 0.0
C488 C 0.64261 0.23402 0.51458 0.0
C489 C 0.64417 0.26721 0.49472 0.0
H490 H 0.71404 0.61595 0.98234 0.0
H491 H 0.79648 0.66646 0.05911 0.0
H492 H 0.7639 0.72105 0.05589 0.0
H493 H 0.69386 0.68671 0.90305 0.0
H494 H 0.64873 0.67744 0.9039 0.0
H495 H 0.67928 0.64332 0.91094 0.0
H496 H 0.651 0.62544 0.99173 0.0
H497 H 0.62003 0.65895 0.98433 0.0
H498 H 0.64544 0.65697 0.03848 0.0
H499 H 0.72029 0.77005 0.04455 0.0
H500 H 0.66806 0.80564 0.03584 0.0
H501 H 0.61611 0.72093 0.96712 0.0
C502 C 0.72544 0.63836 -0.00128 0.0
C503 C 0.75778 0.63693 0.02117 0.0
C504 C 0.77162 0.66698 0.04194 0.0
C505 C 0.75345 0.6981 0.03983 0.0
C506 C 0.72179 0.6986 0.01641 0.0
C507 C 0.70796 0.66929 0.99656 0.0
C508 C 0.67315 0.67562 0.97489 0.0
C509 C 0.67381 0.67046 0.91994 0.0
C510 C 0.64581 0.65292 -0.00118 0.0
C511 C 0.66856 0.71283 0.98747 0.0
C512 C 0.69714 0.7261 0.01022 0.0
C513 C 0.69799 0.75992 0.02639 0.0
C514 C 0.66841 0.78005 0.02089 0.0
C515 C 0.63848 0.76593 0.00028 0.0
C516 C 0.63896 0.73233 0.98231 0.0
H517 H 0.38742 0.71718 0.53465 0.0
H518 H 0.32714 0.80749 0.5034 0.0
H519 H 0.27512 0.77121 0.49649 0.0
H520 H 0.34749 0.66108 0.45423 0.0
H521 H 0.34957 0.62457 0.49384 0.0
H522 H 0.38102 0.65799 0.49862 0.0
H523 H 0.36634 0.66611 0.58905 0.0
H524 H 0.3352 0.63232 0.58475 0.0
H525 H 0.32266 0.67388 0.60652 0.0
H526 H 0.23019 0.72278 0.4885 0.0
H527 H 0.19676 0.66871 0.48742 0.0
H528 H 0.28847 0.61227 0.52478 0.0
C529 C 0.36322 0.72944 0.5268 0.0
C530 C 0.36118 0.76504 0.51941 0.0
C531 C 0.32908 0.7802 0.50951 0.0
C532 C 0.29953 0.75977 0.50525 0.0
C533 C 0.30266 0.72445 0.51164 0.0
C534 C 0.33373 0.70964 0.52297 0.0
C535 C 0.33085 0.67134 0.52834 0.0
C536 C 0.35357 0.65267 0.49155 0.0
C537 C 0.33925 0.66027 0.58024 0.0
C538 C 0.29342 0.66655 0.51716 0.0
C539 C 0.27734 0.69729 0.50765 0.0
C540 C 0.24259 0.69864 0.49618 0.0
C541 C 0.22384 0.66784 0.49536 0.0
C542 C 0.24 0.63629 0.50597 0.0
C543 C 0.27528 0.6359 0.51646 0.0
loop_
_geom_bond_atom_site_label_1
_geom_bond_atom_site_label_2
_geom_bond_distance
_geom_bond_site_symmetry_2
_ccdc_geom_bond_type
Co0 O1 2.216 . S
Co0 O2 2.091 . S
Co0 O4 2.004 . S
Co0 O10 2.021 . S
Co0 O12 2.137 1_554 S
Co0 O13 2.244 1_554 S
O1 Co0 2.216 . S
O1 C8 1.247 . S
O2 Co0 2.091 . S
O2 C8 1.261 . S
C3 O12 1.247 . S
C3 O13 1.272 . S
O4 Co0 2.004 . S
O4 C9 1.259 . S
Co5 O6 2.061 . S
Co5 O11 2.052 . S
Co5 O13 2.135 1_554 S
O6 Co5 2.061 . S
O6 C9 1.235 . S
C7 O10 1.238 . S
C7 O11 1.241 . S
C8 O1 1.247 . S
C8 O2 1.261 . S
C9 O4 1.259 . S
C9 O6 1.235 . S
O10 Co0 2.021 . S
O10 C7 1.238 . S
O11 Co5 2.052 . S
O11 C7 1.241 . S
O12 Co0 2.137 1_556 S
O12 C3 1.247 . S
O13 Co0 2.244 1_556 S
O13 C3 1.272 . S
O13 Co5 2.135 1_556 S
Co14 O15 2.216 . S
Co14 O16 2.091 . S
Co14 O18 2.004 . S
Co14 O24 2.021 . S
Co14 O26 2.137 . S
Co14 O27 2.244 . S
O15 Co14 2.216 . S
O15 C22 1.247 . S
O16 Co14 2.091 . S
O16 C22 1.261 . S
C17 O26 1.247 . S
C17 O27 1.272 . S
O18 Co14 2.004 . S
O18 C23 1.259 . S
Co19 O20 2.061 . S
Co19 O25 2.052 . S
Co19 O27 2.135 . S
O20 Co19 2.061 . S
O20 C23 1.235 . S
C21 O24 1.238 . S
C21 O25 1.241 . S
C22 O15 1.247 . S
C22 O16 1.261 . S
C23 O18 1.259 . S
C23 O20 1.235 . S
O24 Co14 2.021 . S
O24 C21 1.238 . S
O25 Co19 2.052 . S
O25 C21 1.241 . S
O26 Co14 2.137 . S
O26 C17 1.247 . S
O27 Co14 2.244 . S
O27 C17 1.272 . S
O27 Co19 2.135 . S
Co28 O29 2.216 . S
Co28 O30 2.091 . S
Co28 O32 2.004 . S
Co28 O38 2.021 . S
Co28 O40 2.137 1_554 S
Co28 O41 2.244 1_554 S
O29 Co28 2.216 . S
O29 C36 1.247 . S
O30 Co28 2.091 . S
O30 C36 1.261 . S
C31 O40 1.247 . S
C31 O41 1.272 . S
O32 Co28 2.004 . S
O32 C37 1.259 . S
Co33 O34 2.061 . S
Co33 O39 2.052 . S
Co33 O41 2.135 1_554 S
O34 Co33 2.061 . S
O34 C37 1.235 . S
C35 O38 1.238 . S
C35 O39 1.241 . S
C36 O29 1.247 . S
C36 O30 1.261 . S
C37 O32 1.259 . S
C37 O34 1.235 . S
O38 Co28 2.021 . S
O38 C35 1.238 . S
O39 Co33 2.052 . S
O39 C35 1.241 . S
O40 Co28 2.137 1_556 S
O40 C31 1.247 . S
O41 Co28 2.244 1_556 S
O41 C31 1.272 . S
O41 Co33 2.135 1_556 S
Co42 O43 2.216 . S
Co42 O44 2.091 . S
Co42 O46 2.004 . S
Co42 O52 2.021 . S
Co42 O54 2.137 . S
Co42 O55 2.244 . S
O43 Co42 2.216 . S
O43 C50 1.247 . S
O44 Co42 2.091 . S
O44 C50 1.261 . S
C45 O54 1.247 . S
C45 O55 1.272 . S
O46 Co42 2.004 . S
O46 C51 1.259 . S
Co47 O48 2.061 . S
Co47 O53 2.052 . S
Co47 O55 2.135 . S
O48 Co47 2.061 . S
O48 C51 1.235 . S
C49 O52 1.238 . S
C49 O53 1.241 . S
C50 O43 1.247 . S
C50 O44 1.261 . S
C51 O46 1.259 . S
C51 O48 1.235 . S
O52 Co42 2.021 . S
O52 C49 1.238 . S
O53 Co47 2.052 . S
O53 C49 1.241 . S
O54 Co42 2.137 . S
O54 C45 1.247 . S
O55 Co42 2.244 . S
O55 C45 1.272 . S
O55 Co47 2.135 . S
Co56 O57 2.216 . S
Co56 O58 2.091 . S
Co56 O60 2.004 . S
Co56 O66 2.021 . S
Co56 O68 2.137 . S
Co56 O69 2.244 . S
O57 Co56 2.216 . S
O57 C64 1.247 . S
O58 Co56 2.091 . S
O58 C64 1.261 . S
C59 O68 1.247 . S
C59 O69 1.272 . S
O60 Co56 2.004 . S
O60 C65 1.259 . S
Co61 O62 2.061 . S
Co61 O67 2.052 . S
Co61 O69 2.135 . S
O62 Co61 2.061 . S
O62 C65 1.235 . S
C63 O66 1.238 . S
C63 O67 1.241 . S
C64 O57 1.247 . S
C64 O58 1.261 . S
C65 O60 1.259 . S
C65 O62 1.235 . S
O66 Co56 2.021 . S
O66 C63 1.238 . S
O67 Co61 2.052 . S
O67 C63 1.241 . S
O68 Co56 2.137 . S
O68 C59 1.247 . S
O69 Co56 2.244 . S
O69 C59 1.272 . S
O69 Co61 2.135 . S
Co70 O71 2.216 . S
Co70 O72 2.091 . S
Co70 O74 2.004 . S
Co70 O80 2.021 1_554 S
Co70 O82 2.137 . S
Co70 O83 2.244 . S
O71 Co70 2.216 . S
O71 C78 1.247 . S
O72 Co70 2.091 . S
O72 C78 1.261 . S
C73 O82 1.247 . S
C73 O83 1.272 . S
O74 Co70 2.004 . S
O74 C79 1.259 . S
Co75 O76 2.061 . S
Co75 O81 2.052 1_554 S
Co75 O83 2.135 . S
O76 Co75 2.061 . S
O76 C79 1.235 . S
C77 O80 1.238 . S
C77 O81 1.241 . S
C78 O71 1.247 . S
C78 O72 1.261 . S
C79 O74 1.259 . S
C79 O76 1.235 . S
O80 Co70 2.021 1_556 S
O80 C77 1.238 . S
O81 Co75 2.052 1_556 S
O81 C77 1.241 . S
O82 Co70 2.137 . S
O82 C73 1.247 . S
O83 Co70 2.244 . S
O83 C73 1.272 . S
O83 Co75 2.135 . S
Co84 O85 2.216 . S
Co84 O86 2.091 . S
Co84 O88 2.004 . S
Co84 O94 2.021 . S
Co84 O96 2.137 . S
Co84 O97 2.244 . S
O85 Co84 2.216 . S
O85 C92 1.247 . S
O86 Co84 2.091 . S
O86 C92 1.261 . S
C87 O96 1.247 . S
C87 O97 1.272 . S
O88 Co84 2.004 . S
O88 C93 1.259 . S
Co89 O90 2.061 . S
Co89 O95 2.052 . S
Co89 O97 2.135 . S
O90 Co89 2.061 . S
O90 C93 1.235 . S
C91 O94 1.238 . S
C91 O95 1.241 . S
C92 O85 1.247 . S
C92 O86 1.261 . S
C93 O88 1.259 . S
C93 O90 1.235 . S
O94 Co84 2.021 . S
O94 C91 1.238 . S
O95 Co89 2.052 . S
O95 C91 1.241 . S
O96 Co84 2.137 . S
O96 C87 1.247 . S
O97 Co84 2.244 . S
O97 C87 1.272 . S
O97 Co89 2.135 . S
Co98 O99 2.216 . S
Co98 O100 2.091 . S
Co98 O102 2.004 . S
Co98 O108 2.021 1_554 S
Co98 O110 2.137 . S
Co98 O111 2.244 . S
O99 Co98 2.216 . S
O99 C106 1.247 . S
O100 Co98 2.091 . S
O100 C106 1.261 . S
C101 O110 1.247 . S
C101 O111 1.272 . S
O102 Co98 2.004 . S
O102 C107 1.259 . S
Co103 O104 2.061 . S
Co103 O109 2.052 1_554 S
Co103 O111 2.135 . S
O104 Co103 2.061 . S
O104 C107 1.235 . S
C105 O108 1.238 . S
C105 O109 1.241 . S
C106 O99 1.247 . S
C106 O100 1.261 . S
C107 O102 1.259 . S
C107 O104 1.235 . S
O108 Co98 2.021 1_556 S
O108 C105 1.238 . S
O109 Co103 2.052 1_556 S
O109 C105 1.241 . S
O110 Co98 2.137 . S
O110 C101 1.247 . S
O111 Co98 2.244 . S
O111 C101 1.272 . S
O111 Co103 2.135 . S
H112 C124 0.930 . S
H113 C126 0.930 . S
H114 C127 0.930 . S
H115 C131 0.959 . S
H116 C131 0.959 . S
H117 C131 0.961 . S
H118 C132 0.960 . S
H119 C132 0.961 . S
H120 C132 0.959 . S
H121 C135 0.929 . S
H122 C136 0.931 . S
H123 C138 0.930 . S
C124 H112 0.930 . S
C124 C125 1.399 . S
C124 C129 1.399 . S
C125 C124 1.399 . S
C125 C126 1.376 . S
C126 H113 0.930 . S
C126 C125 1.376 . S
C126 C127 1.388 . S
C127 H114 0.930 . S
C127 C126 1.388 . S
C127 C128 1.390 . S
C128 C127 1.390 . S
C128 C129 1.394 . S
C128 C134 1.465 . S
C129 C124 1.399 . S
C129 C128 1.394 . S
C129 C130 1.516 . S
C130 C129 1.516 . S
C130 C131 1.502 . S
C130 C132 1.561 . S
C130 C133 1.526 . S
C131 H115 0.959 . S
C131 H116 0.959 . S
C131 H117 0.961 . S
C131 C130 1.502 . S
C132 H118 0.960 . S
C132 H119 0.961 . S
C132 H120 0.959 . S
C132 C130 1.561 . S
C133 C130 1.526 . S
C133 C134 1.396 . S
C133 C138 1.390 . S
C134 C128 1.465 . S
C134 C133 1.396 . S
C134 C135 1.399 . S
C135 H121 0.929 . S
C135 C134 1.399 . S
C135 C136 1.385 . S
C136 H122 0.931 . S
C136 C135 1.385 . S
C136 C137 1.389 . S
C137 C136 1.389 . S
C137 C138 1.387 . S
C138 H123 0.930 . S
C138 C133 1.390 . S
C138 C137 1.387 . S
H139 C151 0.930 . S
H140 C153 0.930 . S
H141 C154 0.930 . S
H142 C158 0.959 . S
H143 C158 0.959 . S
H144 C158 0.961 . S
H145 C159 0.960 . S
H146 C159 0.961 . S
H147 C159 0.959 . S
H148 C162 0.929 . S
H149 C163 0.931 . S
H150 C165 0.930 . S
C151 H139 0.930 . S
C151 C152 1.399 . S
C151 C156 1.399 . S
C152 C151 1.399 . S
C152 C153 1.376 . S
C153 H140 0.930 . S
C153 C152 1.376 . S
C153 C154 1.388 . S
C154 H141 0.930 . S
C154 C153 1.388 . S
C154 C155 1.390 . S
C155 C154 1.390 . S
C155 C156 1.394 . S
C155 C161 1.465 . S
C156 C151 1.399 . S
C156 C155 1.394 . S
C156 C157 1.516 . S
C157 C156 1.516 . S
C157 C158 1.502 . S
C157 C159 1.561 . S
C157 C160 1.526 . S
C158 H142 0.959 . S
C158 H143 0.959 . S
C158 H144 0.961 . S
C158 C157 1.502 . S
C159 H145 0.960 . S
C159 H146 0.961 . S
C159 H147 0.959 . S
C159 C157 1.561 . S
C160 C157 1.526 . S
C160 C161 1.396 . S
C160 C165 1.390 . S
C161 C155 1.465 . S
C161 C160 1.396 . S
C161 C162 1.399 . S
C162 H148 0.929 . S
C162 C161 1.399 . S
C162 C163 1.385 . S
C163 H149 0.931 . S
C163 C162 1.385 . S
C163 C164 1.389 . S
C164 C163 1.389 . S
C164 C165 1.387 . S
C165 H150 0.930 . S
C165 C160 1.390 . S
C165 C164 1.387 . S
H166 C178 0.930 . S
H167 C180 0.930 . S
H168 C181 0.930 . S
H169 C185 0.959 . S
H170 C185 0.959 . S
H171 C185 0.961 . S
H172 C186 0.960 . S
H173 C186 0.961 . S
H174 C186 0.959 . S
H175 C189 0.929 . S
H176 C190 0.931 . S
H177 C192 0.930 . S
C178 H166 0.930 . S
C178 C179 1.399 . S
C178 C183 1.399 . S
C179 C178 1.399 . S
C179 C180 1.376 . S
C180 H167 0.930 . S
C180 C179 1.376 . S
C180 C181 1.388 . S
C181 H168 0.930 . S
C181 C180 1.388 . S
C181 C182 1.390 . S
C182 C181 1.390 . S
C182 C183 1.394 . S
C182 C188 1.465 . S
C183 C178 1.399 . S
C183 C182 1.394 . S
C183 C184 1.516 . S
C184 C183 1.516 . S
C184 C185 1.502 . S
C184 C186 1.561 . S
C184 C187 1.526 . S
C185 H169 0.959 . S
C185 H170 0.959 . S
C185 H171 0.961 . S
C185 C184 1.502 . S
C186 H172 0.960 . S
C186 H173 0.961 . S
C186 H174 0.959 . S
C186 C184 1.561 . S
C187 C184 1.526 . S
C187 C188 1.396 . S
C187 C192 1.390 . S
C188 C182 1.465 . S
C188 C187 1.396 . S
C188 C189 1.399 . S
C189 H175 0.929 . S
C189 C188 1.399 . S
C189 C190 1.385 . S
C190 H176 0.931 . S
C190 C189 1.385 . S
C190 C191 1.389 . S
C191 C190 1.389 . S
C191 C192 1.387 . S
C192 H177 0.930 . S
C192 C187 1.390 . S
C192 C191 1.387 . S
H193 C205 0.930 . S
H194 C207 0.930 . S
H195 C208 0.930 . S
H196 C212 0.959 . S
H197 C212 0.959 . S
H198 C212 0.961 . S
H199 C213 0.960 . S
H200 C213 0.961 . S
H201 C213 0.959 . S
H202 C216 0.929 . S
H203 C217 0.931 . S
H204 C219 0.930 . S
C205 H193 0.930 . S
C205 C206 1.399 . S
C205 C210 1.399 . S
C206 C205 1.399 . S
C206 C207 1.376 . S
C207 H194 0.930 . S
C207 C206 1.376 . S
C207 C208 1.388 . S
C208 H195 0.930 . S
C208 C207 1.388 . S
C208 C209 1.390 . S
C209 C208 1.390 . S
C209 C210 1.394 . S
C209 C215 1.465 . S
C210 C205 1.399 . S
C210 C209 1.394 . S
C210 C211 1.516 . S
C211 C210 1.516 . S
C211 C212 1.502 . S
C211 C213 1.561 . S
C211 C214 1.526 . S
C212 H196 0.959 . S
C212 H197 0.959 . S
C212 H198 0.961 . S
C212 C211 1.502 . S
C213 H199 0.960 . S
C213 H200 0.961 . S
C213 H201 0.959 . S
C213 C211 1.561 . S
C214 C211 1.526 . S
C214 C215 1.396 . S
C214 C219 1.390 . S
C215 C209 1.465 . S
C215 C214 1.396 . S
C215 C216 1.399 . S
C216 H202 0.929 . S
C216 C215 1.399 . S
C216 C217 1.385 . S
C217 H203 0.931 . S
C217 C216 1.385 . S
C217 C218 1.389 . S
C218 C217 1.389 . S
C218 C219 1.387 . S
C219 H204 0.930 . S
C219 C214 1.390 . S
C219 C218 1.387 . S
H220 C232 0.930 . S
H221 C234 0.930 . S
H222 C235 0.930 . S
H223 C239 0.959 . S
H224 C239 0.959 . S
H225 C239 0.961 . S
H226 C240 0.960 . S
H227 C240 0.961 . S
H228 C240 0.959 . S
H229 C243 0.929 . S
H230 C244 0.931 . S
H231 C246 0.930 . S
C232 H220 0.930 . S
C232 C233 1.399 . S
C232 C237 1.399 . S
C233 C232 1.399 . S
C233 C234 1.376 . S
C234 H221 0.930 . S
C234 C233 1.376 . S
C234 C235 1.388 . S
C235 H222 0.930 . S
C235 C234 1.388 . S
C235 C236 1.390 . S
C236 C235 1.390 . S
C236 C237 1.394 . S
C236 C242 1.465 . S
C237 C232 1.399 . S
C237 C236 1.394 . S
C237 C238 1.516 . S
C238 C237 1.516 . S
C238 C239 1.502 . S
C238 C240 1.561 . S
C238 C241 1.526 . S
C239 H223 0.959 . S
C239 H224 0.959 . S
C239 H225 0.961 . S
C239 C238 1.502 . S
C240 H226 0.960 . S
C240 H227 0.961 . S
C240 H228 0.959 . S
C240 C238 1.561 . S
C241 C238 1.526 . S
C241 C242 1.396 . S
C241 C246 1.390 . S
C242 C236 1.465 . S
C242 C241 1.396 . S
C242 C243 1.399 . S
C243 H229 0.929 . S
C243 C242 1.399 . S
C243 C244 1.385 . S
C244 H230 0.931 . S
C244 C243 1.385 . S
C244 C245 1.389 . S
C245 C244 1.389 . S
C245 C246 1.387 . S
C246 H231 0.930 . S
C246 C241 1.390 . S
C246 C245 1.387 . S
H247 C259 0.930 . S
H248 C261 0.930 . S
H249 C262 0.930 . S
H250 C266 0.959 . S
H251 C266 0.959 . S
H252 C266 0.961 . S
H253 C267 0.960 . S
H254 C267 0.961 . S
H255 C267 0.959 . S
H256 C270 0.929 . S
H257 C271 0.931 . S
H258 C273 0.930 . S
C259 H247 0.930 . S
C259 C260 1.399 . S
C259 C264 1.399 . S
C260 C259 1.399 . S
C260 C261 1.376 . S
C261 H248 0.930 . S
C261 C260 1.376 . S
C261 C262 1.388 . S
C262 H249 0.930 . S
C262 C261 1.388 . S
C262 C263 1.390 . S
C263 C262 1.390 . S
C263 C264 1.394 . S
C263 C269 1.465 . S
C264 C259 1.399 . S
C264 C263 1.394 . S
C264 C265 1.516 . S
C265 C264 1.516 . S
C265 C266 1.502 . S
C265 C267 1.561 . S
C265 C268 1.526 . S
C266 H250 0.959 . S
C266 H251 0.959 . S
C266 H252 0.961 . S
C266 C265 1.502 . S
C267 H253 0.960 . S
C267 H254 0.961 . S
C267 H255 0.959 . S
C267 C265 1.561 . S
C268 C265 1.526 . S
C268 C269 1.396 . S
C268 C273 1.390 . S
C269 C263 1.465 . S
C269 C268 1.396 . S
C269 C270 1.399 . S
C270 H256 0.929 . S
C270 C269 1.399 . S
C270 C271 1.385 . S
C271 H257 0.931 . S
C271 C270 1.385 . S
C271 C272 1.389 . S
C272 C271 1.389 . S
C272 C273 1.387 . S
C273 H258 0.930 . S
C273 C268 1.390 . S
C273 C272 1.387 . S
H274 C286 0.930 . S
H275 C288 0.930 . S
H276 C289 0.930 . S
H277 C293 0.959 . S
H278 C293 0.959 . S
H279 C293 0.961 . S
H280 C294 0.960 . S
H281 C294 0.961 . S
H282 C294 0.959 . S
H283 C297 0.929 . S
H284 C298 0.931 . S
H285 C300 0.930 . S
C286 H274 0.930 . S
C286 C287 1.399 . S
C286 C291 1.399 . S
C287 C286 1.399 . S
C287 C288 1.376 . S
C288 H275 0.930 . S
C288 C287 1.376 . S
C288 C289 1.388 . S
C289 H276 0.930 . S
C289 C288 1.388 . S
C289 C290 1.390 . S
C290 C289 1.390 . S
C290 C291 1.394 . S
C290 C296 1.465 . S
C291 C286 1.399 . S
C291 C290 1.394 . S
C291 C292 1.516 . S
C292 C291 1.516 . S
C292 C293 1.502 . S
C292 C294 1.561 . S
C292 C295 1.526 . S
C293 H277 0.959 . S
C293 H278 0.959 . S
C293 H279 0.961 . S
C293 C292 1.502 . S
C294 H280 0.960 . S
C294 H281 0.961 . S
C294 H282 0.959 . S
C294 C292 1.561 . S
C295 C292 1.526 . S
C295 C296 1.396 . S
C295 C300 1.390 . S
C296 C290 1.465 . S
C296 C295 1.396 . S
C296 C297 1.399 . S
C297 H283 0.929 . S
C297 C296 1.399 . S
C297 C298 1.385 . S
C298 H284 0.931 . S
C298 C297 1.385 . S
C298 C299 1.389 . S
C299 C298 1.389 . S
C299 C300 1.387 . S
C300 H285 0.930 . S
C300 C295 1.390 . S
C300 C299 1.387 . S
H301 C313 0.930 . S
H302 C315 0.930 . S
H303 C316 0.930 . S
H304 C320 0.959 . S
H305 C320 0.959 . S
H306 C320 0.961 . S
H307 C321 0.960 . S
H308 C321 0.961 . S
H309 C321 0.959 . S
H310 C324 0.929 . S
H311 C325 0.931 . S
H312 C327 0.930 . S
C313 H301 0.930 . S
C313 C314 1.399 . S
C313 C318 1.399 . S
C314 C313 1.399 . S
C314 C315 1.376 . S
C315 H302 0.930 . S
C315 C314 1.376 . S
C315 C316 1.388 . S
C316 H303 0.930 . S
C316 C315 1.388 . S
C316 C317 1.390 . S
C317 C316 1.390 . S
C317 C318 1.394 . S
C317 C323 1.465 . S
C318 C313 1.399 . S
C318 C317 1.394 . S
C318 C319 1.516 . S
C319 C318 1.516 . S
C319 C320 1.502 . S
C319 C321 1.561 . S
C319 C322 1.526 . S
C320 H304 0.959 . S
C320 H305 0.959 . S
C320 H306 0.961 . S
C320 C319 1.502 . S
C321 H307 0.960 . S
C321 H308 0.961 . S
C321 H309 0.959 . S
C321 C319 1.561 . S
C322 C319 1.526 . S
C322 C323 1.396 . S
C322 C327 1.390 . S
C323 C317 1.465 . S
C323 C322 1.396 . S
C323 C324 1.399 . S
C324 H310 0.929 . S
C324 C323 1.399 . S
C324 C325 1.385 . S
C325 H311 0.931 . S
C325 C324 1.385 . S
C325 C326 1.389 . S
C326 C325 1.389 . S
C326 C327 1.387 . S
C327 H312 0.930 . S
C327 C322 1.390 . S
C327 C326 1.387 . S
H328 C340 0.930 . S
H329 C342 0.930 . S
H330 C343 0.930 . S
H331 C347 0.959 1_655 S
H332 C347 0.959 . S
H333 C347 0.961 1_655 S
H334 C348 0.960 . S
H335 C348 0.961 . S
H336 C348 0.959 . S
H337 C351 0.929 . S
H338 C352 0.931 . S
H339 C354 0.930 . S
C340 H328 0.930 . S
C340 C341 1.399 1_556 S
C340 C345 1.399 . S
C341 C340 1.399 1_554 S
C341 C342 1.376 . S
C342 H329 0.930 . S
C342 C341 1.376 . S
C342 C343 1.388 . S
C343 H330 0.930 . S
C343 C342 1.388 . S
C343 C344 1.390 . S
C344 C343 1.390 . S
C344 C345 1.394 1_554 S
C344 C350 1.465 1_655 S
C345 C340 1.399 . S
C345 C344 1.394 1_556 S
C345 C346 1.516 1_655 S
C346 C345 1.516 1_455 S
C346 C347 1.502 . S
C346 C348 1.561 . S
C346 C349 1.526 . S
C347 H331 0.959 1_455 S
C347 H332 0.959 . S
C347 H333 0.961 1_455 S
C347 C346 1.502 . S
C348 H334 0.960 . S
C348 H335 0.961 . S
C348 H336 0.959 . S
C348 C346 1.561 . S
C349 C346 1.526 . S
C349 C350 1.396 1_556 S
C349 C354 1.390 . S
C350 C344 1.465 1_455 S
C350 C349 1.396 1_554 S
C350 C351 1.399 . S
C351 H337 0.929 . S
C351 C350 1.399 . S
C351 C352 1.385 . S
C352 H338 0.931 . S
C352 C351 1.385 . S
C352 C353 1.389 . S
C353 C352 1.389 . S
C353 C354 1.387 1_554 S
C354 H339 0.930 . S
C354 C349 1.390 . S
C354 C353 1.387 1_556 S
H355 C367 0.930 . S
H356 C369 0.930 . S
H357 C370 0.930 . S
H358 C374 0.959 . S
H359 C374 0.959 . S
H360 C374 0.961 . S
H361 C375 0.960 . S
H362 C375 0.961 1_545 S
H363 C375 0.959 1_545 S
H364 C378 0.929 . S
H365 C379 0.931 . S
H366 C381 0.930 . S
C367 H355 0.930 . S
C367 C368 1.399 . S
C367 C372 1.399 . S
C368 C367 1.399 . S
C368 C369 1.376 . S
C369 H356 0.930 . S
C369 C368 1.376 . S
C369 C370 1.388 . S
C370 H357 0.930 . S
C370 C369 1.388 . S
C370 C371 1.390 . S
C371 C370 1.390 . S
C371 C372 1.394 . S
C371 C377 1.465 1_565 S
C372 C367 1.399 . S
C372 C371 1.394 . S
C372 C373 1.516 . S
C373 C372 1.516 . S
C373 C374 1.502 . S
C373 C375 1.561 . S
C373 C376 1.526 1_565 S
C374 H358 0.959 . S
C374 H359 0.959 . S
C374 H360 0.961 . S
C374 C373 1.502 . S
C375 H361 0.960 . S
C375 H362 0.961 1_565 S
C375 H363 0.959 1_565 S
C375 C373 1.561 . S
C376 C373 1.526 1_545 S
C376 C377 1.396 . S
C376 C381 1.390 . S
C377 C371 1.465 1_545 S
C377 C376 1.396 . S
C377 C378 1.399 . S
C378 H364 0.929 . S
C378 C377 1.399 . S
C378 C379 1.385 . S
C379 H365 0.931 . S
C379 C378 1.385 . S
C379 C380 1.389 . S
C380 C379 1.389 . S
C380 C381 1.387 . S
C381 H366 0.930 . S
C381 C376 1.390 . S
C381 C380 1.387 . S
H382 C394 0.930 . S
H383 C396 0.930 . S
H384 C397 0.930 . S
H385 C401 0.959 . S
H386 C401 0.959 1_655 S
H387 C401 0.961 . S
H388 C402 0.960 1_455 S
H389 C402 0.961 . S
H390 C402 0.959 . S
H391 C405 0.929 . S
H392 C406 0.931 . S
H393 C408 0.930 . S
C394 H382 0.930 . S
C394 C395 1.399 . S
C394 C399 1.399 . S
C395 C394 1.399 . S
C395 C396 1.376 . S
C396 H383 0.930 . S
C396 C395 1.376 . S
C396 C397 1.388 . S
C397 H384 0.930 . S
C397 C396 1.388 . S
C397 C398 1.390 . S
C398 C397 1.390 . S
C398 C399 1.394 . S
C398 C404 1.465 1_455 S
C399 C394 1.399 . S
C399 C398 1.394 . S
C399 C400 1.516 . S
C400 C399 1.516 . S
C400 C401 1.502 . S
C400 C402 1.561 1_455 S
C400 C403 1.526 1_455 S
C401 H385 0.959 . S
C401 H386 0.959 1_455 S
C401 H387 0.961 . S
C401 C400 1.502 . S
C402 H388 0.960 1_655 S
C402 H389 0.961 . S
C402 H390 0.959 . S
C402 C400 1.561 1_655 S
C403 C400 1.526 1_655 S
C403 C404 1.396 . S
C403 C408 1.390 . S
C404 C398 1.465 1_655 S
C404 C403 1.396 . S
C404 C405 1.399 . S
C405 H391 0.929 . S
C405 C404 1.399 . S
C405 C406 1.385 . S
C406 H392 0.931 . S
C406 C405 1.385 . S
C406 C407 1.389 . S
C407 C406 1.389 . S
C407 C408 1.387 . S
C408 H393 0.930 . S
C408 C403 1.390 . S
C408 C407 1.387 . S
H409 C421 0.930 . S
H410 C423 0.930 . S
H411 C424 0.930 . S
H412 C428 0.959 . S
H413 C428 0.959 1_545 S
H414 C428 0.961 . S
H415 C429 0.960 1_565 S
H416 C429 0.961 . S
H417 C429 0.959 . S
H418 C432 0.929 . S
H419 C433 0.931 . S
H420 C435 0.930 . S
C421 H409 0.930 . S
C421 C422 1.399 . S
C421 C426 1.399 . S
C422 C421 1.399 . S
C422 C423 1.376 1_554 S
C423 H410 0.930 . S
C423 C422 1.376 1_556 S
C423 C424 1.388 . S
C424 H411 0.930 . S
C424 C423 1.388 . S
C424 C425 1.390 1_556 S
C425 C424 1.390 1_554 S
C425 C426 1.394 . S
C425 C431 1.465 1_565 S
C426 C421 1.399 . S
C426 C425 1.394 . S
C426 C427 1.516 . S
C427 C426 1.516 . S
C427 C428 1.502 . S
C427 C429 1.561 1_565 S
C427 C430 1.526 1_565 S
C428 H412 0.959 . S
C428 H413 0.959 1_565 S
C428 H414 0.961 . S
C428 C427 1.502 . S
C429 H415 0.960 1_545 S
C429 H416 0.961 . S
C429 H417 0.959 . S
C429 C427 1.561 1_545 S
C430 C427 1.526 1_545 S
C430 C431 1.396 . S
C430 C435 1.390 . S
C431 C425 1.465 1_545 S
C431 C430 1.396 . S
C431 C432 1.399 1_554 S
C432 H418 0.929 . S
C432 C431 1.399 1_556 S
C432 C433 1.385 . S
C433 H419 0.931 . S
C433 C432 1.385 . S
C433 C434 1.389 1_556 S
C434 C433 1.389 1_554 S
C434 C435 1.387 . S
C435 H420 0.930 . S
C435 C430 1.390 . S
C435 C434 1.387 . S
H436 C448 0.930 . S
H437 C450 0.930 . S
H438 C451 0.930 . S
H439 C455 0.959 . S
H440 C455 0.959 . S
H441 C455 0.961 . S
H442 C456 0.960 . S
H443 C456 0.961 . S
H444 C456 0.959 . S
H445 C459 0.929 . S
H446 C460 0.931 . S
H447 C462 0.930 . S
C448 H436 0.930 . S
C448 C449 1.399 . S
C448 C453 1.399 . S
C449 C448 1.399 . S
C449 C450 1.376 1_554 S
C450 H437 0.930 . S
C450 C449 1.376 1_556 S
C450 C451 1.388 . S
C451 H438 0.930 . S
C451 C450 1.388 . S
C451 C452 1.390 . S
C452 C451 1.390 . S
C452 C453 1.394 1_556 S
C452 C458 1.465 . S
C453 C448 1.399 . S
C453 C452 1.394 1_554 S
C453 C454 1.516 . S
C454 C453 1.516 . S
C454 C455 1.502 . S
C454 C456 1.561 . S
C454 C457 1.526 . S
C455 H439 0.959 . S
C455 H440 0.959 . S
C455 H441 0.961 . S
C455 C454 1.502 . S
C456 H442 0.960 . S
C456 H443 0.961 . S
C456 H444 0.959 . S
C456 C454 1.561 . S
C457 C454 1.526 . S
C457 C458 1.396 1_554 S
C457 C462 1.390 . S
C458 C452 1.465 . S
C458 C457 1.396 1_556 S
C458 C459 1.399 . S
C459 H445 0.929 . S
C459 C458 1.399 . S
C459 C460 1.385 . S
C460 H446 0.931 . S
C460 C459 1.385 . S
C460 C461 1.389 1_556 S
C461 C460 1.389 1_554 S
C461 C462 1.387 . S
C462 H447 0.930 . S
C462 C457 1.390 . S
C462 C461 1.387 . S
H463 C475 0.930 . S
H464 C477 0.930 . S
H465 C478 0.930 . S
H466 C482 0.959 . S
H467 C482 0.959 . S
H468 C482 0.961 . S
H469 C483 0.960 . S
H470 C483 0.961 . S
H471 C483 0.959 . S
H472 C486 0.929 . S
H473 C487 0.931 . S
H474 C489 0.930 . S
C475 H463 0.930 . S
C475 C476 1.399 . S
C475 C480 1.399 . S
C476 C475 1.399 . S
C476 C477 1.376 . S
C477 H464 0.930 . S
C477 C476 1.376 . S
C477 C478 1.388 . S
C478 H465 0.930 . S
C478 C477 1.388 . S
C478 C479 1.390 . S
C479 C478 1.390 . S
C479 C480 1.394 . S
C479 C485 1.465 . S
C480 C475 1.399 . S
C480 C479 1.394 . S
C480 C481 1.516 . S
C481 C480 1.516 . S
C481 C482 1.502 . S
C481 C483 1.561 . S
C481 C484 1.526 . S
C482 H466 0.959 . S
C482 H467 0.959 . S
C482 H468 0.961 . S
C482 C481 1.502 . S
C483 H469 0.960 . S
C483 H470 0.961 . S
C483 H471 0.959 . S
C483 C481 1.561 . S
C484 C481 1.526 . S
C484 C485 1.396 . S
C484 C489 1.390 . S
C485 C479 1.465 . S
C485 C484 1.396 . S
C485 C486 1.399 . S
C486 H472 0.929 . S
C486 C485 1.399 . S
C486 C487 1.385 . S
C487 H473 0.931 . S
C487 C486 1.385 . S
C487 C488 1.389 . S
C488 C487 1.389 . S
C488 C489 1.387 . S
C489 H474 0.930 . S
C489 C484 1.390 . S
C489 C488 1.387 . S
H490 C502 0.930 . S
H491 C504 0.930 . S
H492 C505 0.930 . S
H493 C509 0.959 . S
H494 C509 0.959 . S
H495 C509 0.961 . S
H496 C510 0.960 . S
H497 C510 0.961 . S
H498 C510 0.959 . S
H499 C513 0.929 . S
H500 C514 0.931 . S
H501 C516 0.930 . S
C502 H490 0.930 . S
C502 C503 1.399 1_556 S
C502 C507 1.399 . S
C503 C502 1.399 1_554 S
C503 C504 1.376 . S
C504 H491 0.930 . S
C504 C503 1.376 . S
C504 C505 1.388 . S
C505 H492 0.930 . S
C505 C504 1.388 . S
C505 C506 1.390 . S
C506 C505 1.390 . S
C506 C507 1.394 1_554 S
C506 C512 1.465 . S
C507 C502 1.399 . S
C507 C506 1.394 1_556 S
C507 C508 1.516 . S
C508 C507 1.516 . S
C508 C509 1.502 . S
C508 C510 1.561 . S
C508 C511 1.526 . S
C509 H493 0.959 . S
C509 H494 0.959 . S
C509 H495 0.961 . S
C509 C508 1.502 . S
C510 H496 0.960 . S
C510 H497 0.961 . S
C510 H498 0.959 . S
C510 C508 1.561 . S
C511 C508 1.526 . S
C511 C512 1.396 1_556 S
C511 C516 1.390 . S
C512 C506 1.465 . S
C512 C511 1.396 1_554 S
C512 C513 1.399 . S
C513 H499 0.929 . S
C513 C512 1.399 . S
C513 C514 1.385 . S
C514 H500 0.931 . S
C514 C513 1.385 . S
C514 C515 1.389 . S
C515 C514 1.389 . S
C515 C516 1.387 1_554 S
C516 H501 0.930 . S
C516 C511 1.390 . S
C516 C515 1.387 1_556 S
H517 C529 0.930 . S
H518 C531 0.930 . S
H519 C532 0.930 . S
H520 C536 0.959 . S
H521 C536 0.959 . S
H522 C536 0.961 . S
H523 C537 0.960 . S
H524 C537 0.961 . S
H525 C537 0.959 . S
H526 C540 0.929 . S
H527 C541 0.931 . S
H528 C543 0.930 . S
C529 H517 0.930 . S
C529 C530 1.399 . S
C529 C534 1.399 . S
C530 C529 1.399 . S
C530 C531 1.376 . S
C531 H518 0.930 . S
C531 C530 1.376 . S
C531 C532 1.388 . S
C532 H519 0.930 . S
C532 C531 1.388 . S
C532 C533 1.390 . S
C533 C532 1.390 . S
C533 C534 1.394 . S
C533 C539 1.465 . S
C534 C529 1.399 . S
C534 C533 1.394 . S
C534 C535 1.516 . S
C535 C534 1.516 . S
C535 C536 1.502 . S
C535 C537 1.561 . S
C535 C538 1.526 . S
C536 H520 0.959 . S
C536 H521 0.959 . S
C536 H522 0.961 . S
C536 C535 1.502 . S
C537 H523 0.960 . S
C537 H524 0.961 . S
C537 H525 0.959 . S
C537 C535 1.561 . S
C538 C535 1.526 . S
C538 C539 1.396 . S
C538 C543 1.390 . S
C539 C533 1.465 . S
C539 C538 1.396 . S
C539 C540 1.399 . S
C540 H526 0.929 . S
C540 C539 1.399 . S
C540 C541 1.385 . S
C541 H527 0.931 . S
C541 C540 1.385 . S
C541 C542 1.389 . S
C542 C541 1.389 . S
C542 C543 1.387 . S
C543 H528 0.930 . S
C543 C538 1.390 . S
C543 C542 1.387 . S
C125 C7 1.291 . S
C137 C63 1.298 . S
C152 C21 1.326 . S
C164 C77 1.332 . S
C179 C91 1.292 . S
C191 C35 1.299 . S
C206 C105 1.291 . S
C218 C49 1.287 . S
C233 C87 1.217 . S
C245 C31 1.160 . S
C260 C101 1.245 . S
C272 C45 1.202 . S
C287 C3 1.189 . S
C299 C59 1.248 . S
C314 C17 1.246 . S
C326 C73 1.199 . S
C341 C37 1.349 . S
C353 C9 1.358 . S
C368 C51 1.384 . S
C380 C23 1.314 . S
C395 C65 1.374 . S
C407 C93 1.331 . S
C422 C107 1.377 . S
C434 C79 1.326 . S
C449 C8 1.350 . S
C461 C78 1.360 . S
C476 C92 1.351 . S
C488 C22 1.360 . S
C503 C36 1.357 . S
C515 C106 1.346 . S
C530 C50 1.351 . S
C542 C64 1.360 . S
