# Generated by pormake.
# Topology svb, (7)-cn, num edge types: 1
# Building blocks:
#     Node 0, Type 0, BuildingBlock: NUHQUE_clean_sbu_2, # of connection points: 7
#     Node 1, Type 0, BuildingBlock: NUHQUE_clean_sbu_2, # of connection points: 7
#     Node 2, Type 0, BuildingBlock: NUHQUE_clean_sbu_2, # of connection points: 7
#     Node 3, Type 0, BuildingBlock: NUHQUE_clean_sbu_2, # of connection points: 7
#     Node 4, Type 0, BuildingBlock: NUHQUE_clean_sbu_2, # of connection points: 7
#     Node 5, Type 0, BuildingBlock: NUHQUE_clean_sbu_2, # of connection points: 7
#     Node 6, Type 0, BuildingBlock: NUHQUE_clean_sbu_2, # of connection points: 7
#     Node 7, Type 0, BuildingBlock: NUHQUE_clean_sbu_2, # of connection points: 7
#     Node 8, Type 0, BuildingBlock: NUHQUE_clean_sbu_2, # of connection points: 7
#     Node 9, Type 0, BuildingBlock: NUHQUE_clean_sbu_2, # of connection points: 7
#     Node 10, Type 0, BuildingBlock: NUHQUE_clean_sbu_2, # of connection points: 7
#     Node 11, Type 0, BuildingBlock: NUHQUE_clean_sbu_2, # of connection points: 7
#     Node 12, Type 0, BuildingBlock: NUHQUE_clean_sbu_2, # of connection points: 7
#     Node 13, Type 0, BuildingBlock: NUHQUE_clean_sbu_2, # of connection points: 7
#     Node 14, Type 0, BuildingBlock: NUHQUE_clean_sbu_2, # of connection points: 7
#     Node 15, Type 0, BuildingBlock: NUHQUE_clean_sbu_2, # of connection points: 7
#     Edge 16, Type (0, 0), BuildingBlock: OJICUG_clean_linker_0, # of connection points: 2
#     Edge 17, Type (0, 0), BuildingBlock: OJICUG_clean_linker_0, # of connection points: 2
#     Edge 18, Type (0, 0), BuildingBlock: OJICUG_clean_linker_0, # of connection points: 2
#     Edge 19, Type (0, 0), BuildingBlock: OJICUG_clean_linker_0, # of connection points: 2
#     Edge 20, Type (0, 0), BuildingBlock: OJICUG_clean_linker_0, # of connection points: 2
#     Edge 21, Type (0, 0), BuildingBlock: OJICUG_clean_linker_0, # of connection points: 2
#     Edge 22, Type (0, 0), BuildingBlock: OJICUG_clean_linker_0, # of connection points: 2
#     Edge 23, Type (0, 0), BuildingBlock: OJICUG_clean_linker_0, # of connection points: 2
#     Edge 24, Type (0, 0), BuildingBlock: OJICUG_clean_linker_0, # of connection points: 2
#     Edge 25, Type (0, 0), BuildingBlock: OJICUG_clean_linker_0, # of connection points: 2
#     Edge 26, Type (0, 0), BuildingBlock: OJICUG_clean_linker_0, # of connection points: 2
#     Edge 27, Type (0, 0), BuildingBlock: OJICUG_clean_linker_0, # of connection points: 2
#     Edge 28, Type (0, 0), BuildingBlock: OJICUG_clean_linker_0, # of connection points: 2
#     Edge 29, Type (0, 0), BuildingBlock: OJICUG_clean_linker_0, # of connection points: 2
#     Edge 30, Type (0, 0), BuildingBlock: OJICUG_clean_linker_0, # of connection points: 2
#     Edge 31, Type (0, 0), BuildingBlock: OJICUG_clean_linker_0, # of connection points: 2
#     Edge 32, Type (0, 0), BuildingBlock: OJICUG_clean_linker_0, # of connection points: 2
#     Edge 33, Type (0, 0), BuildingBlock: OJICUG_clean_linker_0, # of connection points: 2
#     Edge 34, Type (0, 0), BuildingBlock: OJICUG_clean_linker_0, # of connection points: 2
#     Edge 35, Type (0, 0), BuildingBlock: OJICUG_clean_linker_0, # of connection points: 2
#     Edge 36, Type (0, 0), BuildingBlock: OJICUG_clean_linker_0, # of connection points: 2
#     Edge 37, Type (0, 0), BuildingBlock: OJICUG_clean_linker_0, # of connection points: 2
#     Edge 38, Type (0, 0), BuildingBlock: OJICUG_clean_linker_0, # of connection points: 2
#     Edge 39, Type (0, 0), BuildingBlock: OJICUG_clean_linker_0, # of connection points: 2
#     Edge 40, Type (0, 0), BuildingBlock: OJICUG_clean_linker_0, # of connection points: 2
#     Edge 41, Type (0, 0), BuildingBlock: OJICUG_clean_linker_0, # of connection points: 2
#     Edge 42, Type (0, 0), BuildingBlock: OJICUG_clean_linker_0, # of connection points: 2
#     Edge 43, Type (0, 0), BuildingBlock: OJICUG_clean_linker_0, # of connection points: 2
#     Edge 44, Type (0, 0), BuildingBlock: OJICUG_clean_linker_0, # of connection points: 2
#     Edge 45, Type (0, 0), BuildingBlock: OJICUG_clean_linker_0, # of connection points: 2
#     Edge 46, Type (0, 0), BuildingBlock: OJICUG_clean_linker_0, # of connection points: 2
#     Edge 47, Type (0, 0), BuildingBlock: OJICUG_clean_linker_0, # of connection points: 2
#     Edge 48, Type (0, 0), BuildingBlock: OJICUG_clean_linker_0, # of connection points: 2
#     Edge 49, Type (0, 0), BuildingBlock: OJICUG_clean_linker_0, # of connection points: 2
#     Edge 50, Type (0, 0), BuildingBlock: OJICUG_clean_linker_0, # of connection points: 2
#     Edge 51, Type (0, 0), BuildingBlock: OJICUG_clean_linker_0, # of connection points: 2
#     Edge 52, Type (0, 0), BuildingBlock: OJICUG_clean_linker_0, # of connection points: 2
#     Edge 53, Type (0, 0), BuildingBlock: OJICUG_clean_linker_0, # of connection points: 2
#     Edge 54, Type (0, 0), BuildingBlock: OJICUG_clean_linker_0, # of connection points: 2
#     Edge 55, Type (0, 0), BuildingBlock: OJICUG_clean_linker_0, # of connection points: 2
#     Edge 56, Type (0, 0), BuildingBlock: OJICUG_clean_linker_0, # of connection points: 2
#     Edge 57, Type (0, 0), BuildingBlock: OJICUG_clean_linker_0, # of connection points: 2
#     Edge 58, Type (0, 0), BuildingBlock: OJICUG_clean_linker_0, # of connection points: 2
#     Edge 59, Type (0, 0), BuildingBlock: OJICUG_clean_linker_0, # of connection points: 2
#     Edge 60, Type (0, 0), BuildingBlock: OJICUG_clean_linker_0, # of connection points: 2
#     Edge 61, Type (0, 0), BuildingBlock: OJICUG_clean_linker_0, # of connection points: 2
#     Edge 62, Type (0, 0), BuildingBlock: OJICUG_clean_linker_0, # of connection points: 2
#     Edge 63, Type (0, 0), BuildingBlock: OJICUG_clean_linker_0, # of connection points: 2
#     Edge 64, Type (0, 0), BuildingBlock: OJICUG_clean_linker_0, # of connection points: 2
#     Edge 65, Type (0, 0), BuildingBlock: OJICUG_clean_linker_0, # of connection points: 2
#     Edge 66, Type (0, 0), BuildingBlock: OJICUG_clean_linker_0, # of connection points: 2
#     Edge 67, Type (0, 0), BuildingBlock: OJICUG_clean_linker_0, # of connection points: 2
#     Edge 68, Type (0, 0), BuildingBlock: OJICUG_clean_linker_0, # of connection points: 2
#     Edge 69, Type (0, 0), BuildingBlock: OJICUG_clean_linker_0, # of connection points: 2
#     Edge 70, Type (0, 0), BuildingBlock: OJICUG_clean_linker_0, # of connection points: 2
#     Edge 71, Type (0, 0), BuildingBlock: OJICUG_clean_linker_0, # of connection points: 2
# Relax obj value: 0.395
# Max RMSD: 0.313
# Mean RMSD: 0.302
data_MOF--net-svb--node1-NUHQUE_clean_sbu_2--edge1-OJICUG_clean_linker_0
_symmetry_space_group_name_H-M    P1
_symmetry_Int_Tables_number       1
_symmetry_cell_setting            triclinic
loop_
_symmetry_equiv_pos_as_xyz
'x, y, z'
_cell_length_a     47.559481
_cell_length_b     47.005458
_cell_length_c     19.432635
_cell_angle_alpha  95.951192
_cell_angle_beta   93.589224
_cell_angle_gamma 89.862014
loop_
_atom_site_label
_atom_site_type_symbol
_atom_site_fract_x
_atom_site_fract_y
_atom_site_fract_z
_atom_type_partial_charge
O0 O 0.02295 0.36478 0.25931 0.0
Tb1 Tb 0.05694 0.35422 0.18877 0.0
Eu2 Eu 0.11682 0.35073 0.08324 0.0
C3 C 0.02811 0.36805 0.32736 0.0
O4 O 0.05443 0.36803 0.35213 0.0
C5 C 0.11273 0.33217 0.23774 0.0
O6 O 0.12696 0.32036 0.98824 0.0
C7 C 0.15394 0.39182 0.10487 0.0
C8 C 0.12283 0.29249 0.98564 0.0
O9 O 0.11385 0.28215 0.04064 0.0
C10 C 0.05118 0.37267 0.03544 0.0
C11 C 0.17561 0.41529 0.11676 0.0
C12 C 0.17018 0.44052 0.15987 0.0
C13 C 0.19073 0.4622 0.17466 0.0
C14 C 0.21729 0.45788 0.14685 0.0
C15 C 0.22332 0.43358 0.10063 0.0
C16 C 0.20202 0.4123 0.08657 0.0
O17 O 0.09724 0.3554 0.24815 0.0
O18 O 0.11868 0.32317 0.17353 0.0
O19 O 0.04361 0.31149 0.20426 0.0
O20 O 0.06306 0.318 0.11163 0.0
C21 C 0.05259 0.2991 0.14703 0.0
O22 O 0.07634 0.36192 1.02155 0.0
O23 O 0.04256 0.37708 0.09956 0.0
O24 O 0.15894 0.36706 0.06978 0.0
O25 O 0.12835 0.3944 0.12741 0.0
H26 H 0.14985 0.44334 0.18182 0.0
H27 H 0.23347 0.47369 0.16296 0.0
H28 H 0.2057 0.39345 0.0515 0.0
O29 O 0.91455 0.78864 0.55046 0.0
Tb30 Tb 0.93373 0.81994 0.49165 0.0
Eu31 Eu 0.94874 0.87378 0.40027 0.0
C32 C 0.91314 0.79394 0.61803 0.0
O33 O 0.92091 0.81929 0.64775 0.0
C34 C 0.96425 0.8723 0.56183 0.0
O35 O 0.97801 0.88375 0.31458 0.0
C36 C 0.90289 0.90376 0.41286 0.0
C37 C 1.00366 0.87246 0.31213 0.0
O38 O 1.01275 0.85823 0.36379 0.0
C39 C 0.9218 0.81273 0.33157 0.0
C40 C 0.87714 0.92242 0.41661 0.0
C41 C 0.85393 0.91777 0.45726 0.0
C42 C 0.83096 0.93739 0.46097 0.0
C43 C 0.83231 0.96152 0.42297 0.0
C44 C 0.85512 0.96671 0.3826 0.0
C45 C 0.8767 0.94627 0.37865 0.0
O46 O 0.93932 0.85971 0.55962 0.0
O47 O 0.97533 0.87597 0.50267 0.0
O48 O 0.97077 0.79585 0.52123 0.0
O49 O 0.97226 0.82143 0.43762 0.0
C50 C 0.98651 0.80475 0.47557 0.0
O51 O 0.94026 0.83338 0.32863 0.0
O52 O 0.91064 0.80873 0.39065 0.0
O53 O 0.92647 0.91347 0.39115 0.0
O54 O 0.90408 0.87707 0.42801 0.0
H55 H 0.8541 0.89946 0.4868 0.0
H56 H 0.81513 0.9764 0.42477 0.0
H57 H 0.89352 0.94849 0.34476 0.0
O58 O 0.40526 0.72611 0.48646 0.0
Tb59 Tb 0.42428 0.69746 0.55853 0.0
Eu60 Eu 0.43819 0.64566 0.67656 0.0
C61 C 0.40458 0.72021 0.41841 0.0
O62 O 0.4124 0.69473 0.39244 0.0
C63 C 0.45663 0.64433 0.52273 0.0
O64 O 0.46693 0.63679 0.77079 0.0
C65 C 0.39826 0.60839 0.6434 0.0
C66 C 0.48137 0.65858 0.80366 0.0
O67 O 0.47781 0.68373 0.78097 0.0
C68 C 0.40643 0.70751 0.71327 0.0
C69 C 0.37168 0.5954 0.66098 0.0
C70 C 0.34654 0.60037 0.62179 0.0
C71 C 0.32186 0.58518 0.63059 0.0
C72 C 0.3222 0.56602 0.68109 0.0
C73 C 0.34734 0.55915 0.71673 0.0
C74 C 0.37199 0.57438 0.70771 0.0
O75 O 0.43123 0.65466 0.50967 0.0
O76 O 0.46655 0.6448 0.58776 0.0
O77 O 0.46221 0.71866 0.5327 0.0
O78 O 0.46114 0.70235 0.63066 0.0
C79 C 0.47662 0.7148 0.58987 0.0
O80 O 0.42268 0.68661 0.73284 0.0
O81 O 0.39924 0.71062 0.64736 0.0
O82 O 0.42168 0.60286 0.67931 0.0
O83 O 0.39732 0.63445 0.62417 0.0
H84 H 0.34662 0.61473 0.5816 0.0
H85 H 0.3029 0.5551 0.68989 0.0
H86 H 0.39166 0.56868 0.73386 0.0
O87 O 0.55069 0.13096 0.75038 0.0
Tb88 Tb 0.57407 0.15375 0.84116 0.0
Eu89 Eu 0.62385 0.17642 0.98123 0.0
C90 C 0.55323 0.13845 0.68719 0.0
O91 O 0.57411 0.15546 0.67716 0.0
C92 C 0.62072 0.19738 0.82848 0.0
O93 O 0.63327 0.20529 0.08471 0.0
C94 C 0.65692 0.13307 0.95334 0.0
C95 C 0.62386 0.23206 0.09211 0.0
O96 O 0.61068 0.24172 0.03782 0.0
C97 C 0.56433 0.14374 0.99557 0.0
C98 C 0.67638 0.1083 0.93812 0.0
C99 C 0.66878 0.08462 0.88879 0.0
C100 C 0.68808 0.06208 0.87452 0.0
C101 C 0.71482 0.06358 0.90912 0.0
C102 C 0.72272 0.08644 0.95889 0.0
C103 C 0.70339 0.10873 0.97273 0.0
O104 O 0.61261 0.171 0.80546 0.0
O105 O 0.62219 0.20579 0.8957 0.0
O106 O 0.53823 0.1793 0.81347 0.0
O107 O 0.56389 0.19245 0.90471 0.0
C108 C 0.54131 0.19782 0.86747 0.0
O109 O 0.58259 0.16385 1.02063 0.0
O110 O 0.56471 0.13099 0.93103 0.0
O111 O 0.66491 0.15611 0.99444 0.0
O112 O 0.63053 0.13337 0.9285 0.0
H113 H 0.64817 0.08377 0.86155 0.0
H114 H 0.72972 0.04663 0.89646 0.0
H115 H 0.70926 0.12629 1.01153 0.0
O116 O 0.04318 0.65063 0.26016 0.0
Tb117 Tb 0.07305 0.66746 0.34497 0.0
Eu118 Eu 0.12346 0.67938 0.47861 0.0
C119 C 0.04958 0.64738 0.19468 0.0
O120 O 0.07571 0.65155 0.17984 0.0
C121 C 0.12606 0.6987 0.32705 0.0
O122 O 0.13326 0.70746 0.58245 0.0
C123 C 0.15441 0.63484 0.44966 0.0
C124 C 0.12549 0.73472 0.58899 0.0
O125 O 0.11454 0.74524 0.5333 0.0
C126 C 0.06203 0.65005 0.4924 0.0
C127 C 0.17295 0.60957 0.43463 0.0
C128 C 0.16595 0.58698 0.3819 0.0
C129 C 0.18549 0.56475 0.36648 0.0
C130 C 0.21174 0.5655 0.4036 0.0
C131 C 0.21876 0.58741 0.45651 0.0
C132 C 0.19922 0.60914 0.4717 0.0
O133 O 0.11436 0.67348 0.30737 0.0
O134 O 0.12703 0.70844 0.39345 0.0
O135 O 0.05327 0.7077 0.32417 0.0
O136 O 0.07266 0.70349 0.42422 0.0
C137 C 0.05981 0.72075 0.38527 0.0
O138 O 0.08242 0.66727 0.52062 0.0
O139 O 0.0595 0.64173 0.42493 0.0
O140 O 0.16287 0.65689 0.49367 0.0
O141 O 0.12837 0.63651 0.42306 0.0
H142 H 0.14588 0.58696 0.35232 0.0
H143 H 0.22692 0.54885 0.39058 0.0
H144 H 0.20451 0.62584 0.51321 0.0
O145 O 0.53593 0.86343 0.81315 0.0
Tb146 Tb 0.56815 0.84757 0.74171 0.0
Eu147 Eu 0.62714 0.8406 0.63629 0.0
C148 C 0.53997 0.86239 0.88081 0.0
O149 O 0.56449 0.85361 0.90523 0.0
C150 C 0.62132 0.81702 0.7878 0.0
O151 O 0.63457 0.80837 0.54276 0.0
C152 C 0.66731 0.87942 0.65919 0.0
C153 C 0.62421 0.78209 0.53752 0.0
O154 O 0.61132 0.7739 0.58999 0.0
C155 C 0.56327 0.86698 0.5889 0.0
C156 C 0.68406 0.90621 0.65167 0.0
C157 C 0.67688 0.93218 0.69003 0.0
C158 C 0.69411 0.95667 0.69348 0.0
C159 C 0.7192 0.95484 0.65855 0.0
C160 C 0.72706 0.92994 0.61652 0.0
C161 C 0.70911 0.90547 0.61443 0.0
O162 O 0.60717 0.84084 0.8039 0.0
O163 O 0.62749 0.81038 0.72242 0.0
O164 O 0.54759 0.80727 0.75088 0.0
O165 O 0.57081 0.81167 0.66225 0.0
C166 C 0.55631 0.79431 0.69391 0.0
O167 O 0.58768 0.85462 0.57436 0.0
O168 O 0.55551 0.8722 0.6537 0.0
O169 O 0.66941 0.85603 0.6163 0.0
O170 O 0.643 0.88135 0.6886 0.0
H171 H 0.65804 0.93324 0.71875 0.0
H172 H 0.73315 0.97311 0.66714 0.0
H173 H 0.71465 0.88573 0.58476 0.0
O174 O 0.39873 0.29843 0.08078 0.0
Tb175 Tb 0.42505 0.3065 0.99661 0.0
Eu176 Eu 0.4477 0.37426 0.89427 0.0
C177 C 0.4111 0.29688 0.14301 0.0
O178 O 0.43573 0.30933 0.15771 0.0
C179 C 0.46979 0.3565 0.03677 0.0
O180 O 0.47645 0.38378 0.80649 0.0
C181 C 0.40013 0.40128 0.90215 0.0
C182 C 0.50215 0.37259 0.80242 0.0
O183 O 0.51159 0.35777 0.85269 0.0
C184 C 0.42235 0.31106 0.83984 0.0
C185 C 0.37337 0.41809 0.90383 0.0
C186 C 0.35041 0.41269 0.94497 0.0
C187 C 0.3266 0.4313 0.94698 0.0
C188 C 0.32594 0.45398 0.90494 0.0
C189 C 0.34871 0.45974 0.86684 0.0
C190 C 0.37204 0.44191 0.86598 0.0
O191 O 0.46363 0.33198 1.00018 0.0
O192 O 0.46945 0.37891 1.00174 0.0
O193 O 0.45564 0.27607 1.0292 0.0
O194 O 0.42814 0.2644 0.94066 0.0
C195 C 0.44905 0.25616 0.97979 0.0
O196 O 0.44336 0.3294 0.84025 0.0
O197 O 0.40595 0.31156 0.8927 0.0
O198 O 0.42324 0.41233 0.88142 0.0
O199 O 0.40243 0.37453 0.91598 0.0
H200 H 0.3516 0.39513 0.97695 0.0
H201 H 0.30787 0.46807 0.90331 0.0
H202 H 0.38935 0.44688 0.83539 0.0
O203 O 0.90401 0.22607 0.9529 0.0
Tb204 Tb 0.92569 0.19648 1.01893 0.0
Eu205 Eu 0.94707 0.14569 0.13346 0.0
C206 C 0.89836 0.22019 0.88546 0.0
O207 O 0.90338 0.19435 0.85641 0.0
C208 C 0.95998 0.14573 0.97305 0.0
O209 O 0.97706 0.14131 0.22913 0.0
C210 C 0.90703 0.10745 0.11549 0.0
C211 C 1.0029 0.15205 0.23497 0.0
O212 O 1.01236 0.16302 0.18135 0.0
C213 C 0.91047 0.20361 0.17489 0.0
C214 C 0.88105 0.095 0.13985 0.0
C215 C 0.85528 0.09821 0.10146 0.0
C216 C 0.83107 0.08325 0.11503 0.0
C217 C 0.83269 0.06535 0.16847 0.0
C218 C 0.85783 0.06176 0.20878 0.0
C219 C 0.88209 0.07692 0.19391 0.0
O220 O 0.93367 0.15465 0.96627 0.0
O221 O 0.97204 0.1451 0.03631 0.0
O222 O 0.96264 0.21933 0.99288 0.0
O223 O 0.963 0.20184 0.08952 0.0
C224 C 0.9777 0.21523 0.04899 0.0
O225 O 0.93109 0.1862 0.1914 0.0
O226 O 0.90083 0.20538 0.10995 0.0
O227 O 0.9317 0.10299 0.14723 0.0
O228 O 0.90507 0.13261 0.0914 0.0
H229 H 0.85441 0.11119 0.05841 0.0
H230 H 0.81406 0.05339 0.17678 0.0
H231 H 0.90186 0.07434 0.22319 0.0
O232 O 0.97897 0.65186 0.7495 0.0
Tb233 Tb 0.95156 0.67178 0.82744 0.0
Eu234 Eu 0.90118 0.68665 0.95467 0.0
C235 C 0.97318 0.65205 0.68217 0.0
O236 O 0.94857 0.66152 0.66033 0.0
C237 C 0.90039 0.70652 0.80347 0.0
O238 O 0.89346 0.71573 0.05392 0.0
C239 C 0.86441 0.64633 0.91975 0.0
C240 C 0.91537 0.72989 0.08555 0.0
O241 O 0.9399 0.72569 0.05898 0.0
C242 C 0.96137 0.65293 0.97882 0.0
C243 C 0.85067 0.61933 0.93248 0.0
C244 C 0.85191 0.59555 0.88254 0.0
C245 C 0.83482 0.57144 0.88543 0.0
C246 C 0.81642 0.5714 0.93915 0.0
C247 C 0.81464 0.59495 0.98964 0.0
C248 C 0.8326 0.61855 0.98683 0.0
O249 O 0.90947 0.68038 0.78561 0.0
O250 O 0.9008 0.71594 0.86989 0.0
O251 O 0.97295 0.71002 0.80344 0.0
O252 O 0.95752 0.7088 0.9036 0.0
C253 C 0.96966 0.7245 0.86293 0.0
O254 O 0.94145 0.67005 1.00312 0.0
O255 O 0.96406 0.64576 0.91166 0.0
O256 O 0.859 0.6699 0.95951 0.0
O257 O 0.89014 0.64526 0.89826 0.0
H258 H 0.86504 0.59649 0.83918 0.0
H259 H 0.80262 0.5532 0.93962 0.0
H260 H 0.83176 0.63688 1.02522 0.0
O261 O 0.11318 0.25387 0.50747 0.0
Tb262 Tb 0.10294 0.22149 0.57781 0.0
Eu263 Eu 0.08747 0.15713 0.65913 0.0
C264 C 0.11762 0.24767 0.44095 0.0
O265 O 0.11946 0.22069 0.41649 0.0
C266 C 0.07092 0.16866 0.49885 0.0
O267 O 0.05803 0.14646 0.74215 0.0
C268 C 0.12752 0.11914 0.64605 0.0
C269 C 0.03072 0.15195 0.73859 0.0
O270 O 0.01961 0.16234 0.68293 0.0
C271 C 0.12053 0.21578 0.73026 0.0
C272 C 0.15257 0.10464 0.6774 0.0
C273 C 0.17951 0.11038 0.65524 0.0
C274 C 0.2037 0.0957 0.67825 0.0
C275 C 0.20042 0.07565 0.72632 0.0
C276 C 0.17374 0.06795 0.74576 0.0
C277 C 0.14978 0.08256 0.72104 0.0
O278 O 0.09398 0.18461 0.50072 0.0
O279 O 0.06168 0.15995 0.55628 0.0
O280 O 0.07548 0.25622 0.61262 0.0
O281 O 0.06265 0.21338 0.61948 0.0
C282 C 0.05616 0.24008 0.63254 0.0
O283 O 0.10073 0.19623 0.73244 0.0
O284 O 0.13096 0.22107 0.67109 0.0
O285 O 0.10221 0.11332 0.66473 0.0
O286 O 0.13025 0.14583 0.63201 0.0
H287 H 0.18121 0.12536 0.61699 0.0
H288 H 0.21866 0.06477 0.74687 0.0
H289 H 0.12912 0.07655 0.7353 0.0
O290 O 0.61679 0.28192 0.57285 0.0
Tb291 Tb 0.60075 0.31447 0.5069 0.0
Eu292 Eu 0.59133 0.37418 0.40683 0.0
C293 C 0.61619 0.28648 0.64093 0.0
O294 O 0.60848 0.31181 0.6681 0.0
C295 C 0.57455 0.36931 0.56448 0.0
O296 O 0.55718 0.37904 0.32025 0.0
C297 C 0.62692 0.41733 0.42319 0.0
C298 C 0.54632 0.35594 0.28356 0.0
O299 O 0.55517 0.33088 0.29946 0.0
C300 C 0.61918 0.30962 0.35074 0.0
C301 C 0.652 0.43413 0.4054 0.0
C302 C 0.67907 0.42845 0.43506 0.0
C303 C 0.70254 0.44624 0.42871 0.0
C304 C 0.69849 0.46992 0.38956 0.0
C305 C 0.67176 0.47624 0.35877 0.0
C306 C 0.64865 0.45827 0.3674 0.0
O307 O 0.59874 0.35553 0.56962 0.0
O308 O 0.56445 0.37444 0.50184 0.0
O309 O 0.56152 0.29555 0.53067 0.0
O310 O 0.56268 0.31669 0.43932 0.0
C311 C 0.54675 0.30341 0.47756 0.0
O312 O 0.60859 0.33524 0.34135 0.0
O313 O 0.62265 0.30019 0.41287 0.0
O314 O 0.60299 0.41751 0.38537 0.0
O315 O 0.63093 0.39337 0.45223 0.0
H316 H 0.68177 0.41023 0.46461 0.0
H317 H 0.71599 0.48408 0.38434 0.0
H318 H 0.628 0.46338 0.34533 0.0
O319 O 0.40495 0.79194 1.00356 0.0
Tb320 Tb 0.42149 0.82216 0.09019 0.0
Eu321 Eu 0.43141 0.8748 0.23269 0.0
C322 C 0.40387 0.79788 0.93849 0.0
O323 O 0.41034 0.82384 0.92538 0.0
C324 C 0.45195 0.87624 0.07842 0.0
O325 O 0.4595 0.88356 0.33576 0.0
C326 C 0.38553 0.90444 0.21587 0.0
C327 C 0.48627 0.875 0.33912 0.0
O328 O 0.49642 0.86366 0.2812 0.0
C329 C 0.4046 0.81095 0.23892 0.0
C330 C 0.35948 0.92245 0.20871 0.0
C331 C 0.33719 0.91628 0.15634 0.0
C332 C 0.31397 0.93536 0.15049 0.0
C333 C 0.31336 0.95985 0.19863 0.0
C334 C 0.33495 0.96623 0.25038 0.0
C335 C 0.35767 0.94736 0.25509 0.0
O336 O 0.42704 0.86464 0.05949 0.0
O337 O 0.4603 0.87889 0.14505 0.0
O338 O 0.46134 0.80284 0.06237 0.0
O339 O 0.45713 0.82181 0.16538 0.0
C340 C 0.47425 0.80932 0.12282 0.0
O341 O 0.42116 0.83193 0.26808 0.0
O342 O 0.39642 0.80838 0.17196 0.0
O343 O 0.40749 0.91357 0.25717 0.0
O344 O 0.3884 0.87863 0.18369 0.0
H345 H 0.33836 0.89749 0.11936 0.0
H346 H 0.29597 0.97463 0.19457 0.0
H347 H 0.37412 0.9521 0.29578 0.0
O348 O 0.89182 0.28039 0.47034 0.0
Tb349 Tb 0.90468 0.31021 0.56146 0.0
Eu350 Eu 0.9196 0.36947 0.68178 0.0
C351 C 0.8893 0.28744 0.40615 0.0
O352 O 0.89004 0.31454 0.39549 0.0
C353 C 0.94232 0.36002 0.52732 0.0
O354 O 0.9476 0.38079 0.7829 0.0
C355 C 0.87747 0.40344 0.65919 0.0
C356 C 0.97527 0.37671 0.78473 0.0
O357 O 0.98655 0.36862 0.72589 0.0
C358 C 0.88631 0.31158 0.70864 0.0
C359 C 0.85379 0.42408 0.64885 0.0
C360 C 0.83066 0.41844 0.59907 0.0
C361 C 0.80924 0.43924 0.59143 0.0
C362 C 0.81128 0.46534 0.6335 0.0
C363 C 0.83353 0.47103 0.68395 0.0
C364 C 0.85461 0.45036 0.69082 0.0
O365 O 0.91866 0.34589 0.50771 0.0
O366 O 0.94934 0.36722 0.59385 0.0
O367 O 0.93014 0.27285 0.57726 0.0
O368 O 0.94351 0.31343 0.62711 0.0
C369 C 0.94896 0.2863 0.61959 0.0
O370 O 0.90643 0.33026 0.73006 0.0
O371 O 0.8757 0.3094 0.64363 0.0
O372 O 0.90035 0.41128 0.69839 0.0
O373 O 0.87725 0.37652 0.63226 0.0
H374 H 0.82929 0.3982 0.5669 0.0
H375 H 0.79506 0.48128 0.6271 0.0
H376 H 0.87147 0.45451 0.73069 0.0
O377 O 0.47877 0.15158 0.25203 0.0
Tb378 Tb 0.451 0.16982 0.33256 0.0
Eu379 Eu 0.40066 0.18255 0.46961 0.0
C380 C 0.47432 0.15421 0.18496 0.0
O381 O 0.45088 0.16622 0.16331 0.0
C382 C 0.39955 0.2058 0.31936 0.0
O383 O 0.39743 0.21405 0.56689 0.0
C384 C 0.35713 0.14845 0.45016 0.0
C385 C 0.42048 0.2233 0.60382 0.0
O386 O 0.44488 0.21382 0.58332 0.0
C387 C 0.46123 0.14627 0.48082 0.0
C388 C 0.34234 0.1223 0.46665 0.0
C389 C 0.34575 0.0962 0.42535 0.0
C390 C 0.32921 0.07215 0.43338 0.0
C391 C 0.30949 0.07435 0.48441 0.0
C392 C 0.30519 0.10013 0.52588 0.0
C393 C 0.32176 0.12413 0.51649 0.0
O394 O 0.40839 0.18005 0.29622 0.0
O395 O 0.40002 0.21317 0.38691 0.0
O396 O 0.47082 0.20983 0.31561 0.0
O397 O 0.45787 0.20391 0.41622 0.0
C398 C 0.46858 0.22174 0.37834 0.0
O399 O 0.44065 0.16141 0.5094 0.0
O400 O 0.4639 0.14181 0.41277 0.0
O401 O 0.35875 0.17084 0.4968 0.0
O402 O 0.37937 0.14548 0.41288 0.0
H403 H 0.36032 0.09498 0.38448 0.0
H404 H 0.29667 0.05589 0.49033 0.0
H405 H 0.3183 0.1443 0.54702 0.0
O406 O 0.53497 0.65827 0.26151 0.0
Tb407 Tb 0.5668 0.67709 0.20358 0.0
Eu408 Eu 0.62022 0.69284 0.11457 0.0
C409 C 0.54134 0.65003 0.32328 0.0
O410 O 0.56788 0.65031 0.34652 0.0
C411 C 0.61713 0.70825 0.27609 0.0
O412 O 0.63237 0.72776 0.04411 0.0
C413 C 0.64913 0.64714 0.13694 0.0
C414 C 0.62811 0.72494 0.97523 0.0
O415 O 0.62098 0.69958 0.94433 0.0
C416 C 0.56176 0.66371 0.04306 0.0
C417 C 0.66644 0.62094 0.14899 0.0
C418 C 0.65805 0.59876 0.18882 0.0
C419 C 0.67676 0.57579 0.20184 0.0
C420 C 0.70402 0.5765 0.17788 0.0
C421 C 0.71248 0.59781 0.13787 0.0
C422 C 0.69322 0.61932 0.12264 0.0
O423 O 0.60481 0.68292 0.2721 0.0
O424 O 0.6203 0.71997 0.21825 0.0
O425 O 0.5437 0.71524 0.23816 0.0
O426 O 0.56882 0.71577 0.15156 0.0
C427 C 0.55284 0.73078 0.19278 0.0
O428 O 0.58243 0.68212 0.04047 0.0
O429 O 0.5567 0.65313 0.1017 0.0
O430 O 0.6592 0.66859 0.10661 0.0
O431 O 0.62255 0.64994 0.15161 0.0
H432 H 0.6373 0.59925 0.20889 0.0
H433 H 0.71888 0.56016 0.19127 0.0
H434 H 0.69912 0.63518 0.08956 0.0
O435 O 0.11712 0.77962 0.06771 0.0
Tb436 Tb 0.10243 0.81365 1.00515 0.0
Eu437 Eu 0.09211 0.87174 0.91737 0.0
C438 C 0.12514 0.78527 0.13394 0.0
O439 O 0.12701 0.81213 0.16031 0.0
C440 C 0.07486 0.86601 0.07238 0.0
O441 O 0.06275 0.88341 0.82589 0.0
C442 C 0.13488 0.90654 0.95123 0.0
C443 C 0.03602 0.87504 0.81924 0.0
O444 O 0.02605 0.86225 0.8696 0.0
C445 C 0.11833 0.80974 0.84998 0.0
C446 C 0.16056 0.92302 0.93655 0.0
C447 C 0.18721 0.9183 0.97111 0.0
C448 C 0.21095 0.93598 0.96431 0.0
C449 C 0.2071 0.95804 0.92011 0.0
C450 C 0.18048 0.96474 0.88992 0.0
C451 C 0.15758 0.94661 0.8972 0.0
O452 O 0.0991 0.85229 0.07648 0.0
O453 O 0.06444 0.87116 1.01018 0.0
O454 O 0.06229 0.79384 1.01798 0.0
O455 O 0.06612 0.81856 0.93334 0.0
C456 C 0.04906 0.8039 0.96535 0.0
O457 O 0.10343 0.83323 0.84232 0.0
O458 O 0.126 0.80212 0.91235 0.0
O459 O 0.10997 0.91456 0.92664 0.0
O460 O 0.13629 0.87887 0.95723 0.0
H461 H 0.18892 0.90165 1.00562 0.0
H462 H 0.2249 0.9707 0.90924 0.0
H463 H 0.137 0.95174 0.87485 0.0
C464 C 0.01437 0.23111 0.13959 0.0
C465 C 1.00485 0.22865 0.06954 0.0
H466 H 0.03869 0.25609 0.21988 0.0
C467 C 0.01853 0.24366 1.02255 0.0
H468 H 1.00429 0.21941 0.17649 0.0
C469 C 0.03844 0.26448 0.04737 0.0
C470 C 0.04409 0.27037 0.11906 0.0
H471 H 1.01181 0.24145 0.96793 0.0
H472 H 0.04642 0.27826 1.01159 0.0
C473 C 0.03404 0.25204 0.1644 0.0
C474 C 0.04628 0.75476 0.48207 0.0
C475 C 0.04915 0.74851 0.41076 0.0
H476 H 0.02336 0.7787 0.55946 0.0
C477 C 0.03712 0.76639 0.36381 0.0
H478 H 0.0557 0.74126 0.51908 0.0
C479 C 0.01907 0.78806 0.3871 0.0
C480 C 1.0128 0.79134 0.457 0.0
H481 H 0.03958 0.762 0.30866 0.0
H482 H 1.00758 0.79974 0.34922 0.0
C483 C 0.02786 0.77609 0.50518 0.0
C484 C 0.53453 0.74825 0.70647 0.0
C485 C 0.54514 0.76698 0.66299 0.0
H486 H 0.50425 0.71598 0.71567 0.0
C487 C 0.53863 0.76289 0.59133 0.0
H488 H 0.5398 0.75095 0.76186 0.0
C489 C 0.51784 0.7432 0.56512 0.0
C490 C 0.5041 0.7275 0.6107 0.0
H491 H 0.54695 0.77713 0.55705 0.0
H492 H 0.5107 0.74231 0.51088 0.0
C493 C 0.51415 0.72834 0.68013 0.0
C494 C 0.46871 0.22615 0.88398 0.0
C495 C 0.46987 0.23595 0.95467 0.0
H496 H 0.4916 0.20759 0.79967 0.0
C497 C 0.49451 0.23285 0.99655 0.0
H498 H 0.44992 0.22877 0.85071 0.0
C499 C 0.51844 0.22172 0.9671 0.0
C500 C 0.51768 0.21318 0.89583 0.0
H501 H 0.49574 0.24052 0.05123 0.0
H502 H 0.53738 0.21961 1.00016 0.0
C503 C 0.49264 0.21488 0.85455 0.0
C504 C 0.98347 0.76242 0.95562 0.0
C505 C 0.98229 0.75234 0.88515 0.0
H506 H 1.0064 0.78799 0.0374 0.0
C507 C 0.9975 0.76634 0.83906 0.0
H508 H 0.9714 0.75236 0.99161 0.0
C509 C 0.01716 0.78724 0.8651 0.0
C510 C 0.02168 0.79351 0.93702 0.0
H511 H 0.9963 0.75923 0.7841 0.0
H512 H 0.03108 0.79561 0.82991 0.0
C513 C 1.00336 0.78287 0.98173 0.0
C514 C 1.00525 0.23225 0.63708 0.0
C515 C 0.02864 0.25041 0.65126 0.0
H516 H 0.96065 0.22992 0.61604 0.0
C517 C 0.02496 0.27965 0.67048 0.0
H518 H 1.0078 0.20961 0.622 0.0
C519 C 0.99808 0.29122 0.66731 0.0
C520 C 0.97503 0.27356 0.64403 0.0
H521 H 0.04292 0.29385 0.68234 0.0
H522 H 0.99574 0.31418 0.67657 0.0
C523 C 0.9784 0.24386 0.63316 0.0
C524 C 0.49146 0.26697 0.3591 0.0
C525 C 0.48043 0.24944 0.40489 0.0
H526 H 0.52131 0.2995 0.34785 0.0
C527 C 0.48505 0.25621 0.47657 0.0
H528 H 0.48739 0.26247 0.30354 0.0
C529 C 0.50447 0.27733 0.50183 0.0
C530 C 0.51905 0.29166 0.45525 0.0
H531 H 0.47618 0.24326 0.51268 0.0
H532 H 0.51028 0.28016 0.55695 0.0
C533 C 0.51069 0.28829 0.38446 0.0
C534 C 0.5269 0.774 0.23203 0.0
C535 C 0.5413 0.75842 0.18004 0.0
H536 H 0.49402 0.80381 0.25378 0.0
C537 C 0.5391 0.76598 0.11203 0.0
H538 H 0.52887 0.76863 0.28504 0.0
C539 C 0.51884 0.78566 0.09385 0.0
C540 C 0.50143 0.79802 0.14413 0.0
H541 H 0.55046 0.75432 0.07151 0.0
H542 H 0.51496 0.78902 0.03973 0.0
C543 C 0.5071 0.79409 0.21414 0.0
C544 C 0.29221 0.45556 1.02663 0.0
C545 C 0.30274 0.42982 0.99452 0.0
H546 H 0.25939 0.47747 0.07782 0.0
C547 C 0.28802 0.40445 1.00199 0.0
H548 H 0.30301 0.47562 1.02367 0.0
C549 C 0.26282 0.40525 0.03766 0.0
C550 C 0.25135 0.43149 0.06607 0.0
H551 H 0.29536 0.38416 0.9782 0.0
H552 H 0.25228 0.38521 0.04192 0.0
C553 C 0.26692 0.4565 0.05969 0.0
C554 C 0.83233 1.00944 0.32964 0.0
C555 C 0.85652 0.99311 0.34382 0.0
H556 H 0.8143 0.04501 0.28443 0.0
C557 C 0.88215 1.00238 0.31974 0.0
H558 H 0.81191 1.00407 0.34589 0.0
C559 C 0.88293 0.02499 0.27798 0.0
C560 C 0.85841 0.04029 0.26151 0.0
H561 H 0.90195 0.99218 0.33187 0.0
H562 H 0.90276 0.02971 0.25715 0.0
C563 C 0.83351 0.03302 0.29157 0.0
C564 C 0.26113 0.61266 0.5196 0.0
C565 C 0.24618 0.58714 0.49751 0.0
H566 H 0.29677 0.6322 0.57958 0.0
C567 C 0.25716 0.56119 0.51676 0.0
H568 H 0.25351 0.63298 0.50458 0.0
C569 C 0.28207 0.56074 0.55809 0.0
C570 C 0.29645 0.58628 0.58259 0.0
H571 H 0.24618 0.54117 0.50138 0.0
H572 H 0.28992 0.54025 0.57149 0.0
C573 C 0.28605 0.61223 0.56187 0.0
C574 C 0.67825 0.98416 0.80412 0.0
C575 C 0.68712 0.98416 0.73626 0.0
H576 H 0.67114 1.00903 0.90083 0.0
C577 C 0.69165 0.01088 0.71158 0.0
H578 H 0.67482 0.96414 0.8254 0.0
C579 C 0.68914 0.03661 0.75464 0.0
C580 C 0.68189 0.03644 0.82357 0.0
H581 H 0.69824 0.01186 0.65952 0.0
H582 H 0.69461 0.05657 0.73538 0.0
C583 C 0.67593 1.00993 0.84733 0.0
C584 C 0.77864 0.62222 0.06018 0.0
C585 C 0.79158 0.59608 0.03889 0.0
H586 H 0.74512 0.64349 0.11168 0.0
C587 C 0.78012 0.5708 0.05888 0.0
H588 H 0.7864 0.64231 0.04623 0.0
C589 C 0.75492 0.57132 0.09222 0.0
C590 C 0.74108 0.59732 0.1097 0.0
H591 H 0.78993 0.55027 0.04648 0.0
H592 H 0.74586 0.55107 0.10135 0.0
C593 C 0.75418 0.62284 0.09636 0.0
C594 C 0.19182 0.01681 0.88126 0.0
C595 C 0.17659 0.99188 0.85514 0.0
H596 H 0.20242 0.06019 0.86843 0.0
C597 C 0.15784 0.99348 0.79639 0.0
H598 H 0.20579 0.017 0.9275 0.0
C599 C 0.15546 0.01877 0.76326 0.0
C600 C 0.1718 0.04308 0.78779 0.0
H601 H 0.14572 0.9749 0.77442 0.0
H602 H 0.14185 0.01884 0.71644 0.0
C603 C 0.1896 0.04185 0.84796 0.0
C604 C 0.75652 0.44719 0.43883 0.0
C605 C 0.73069 0.4409 0.46631 0.0
H606 H 0.80168 0.45086 0.45588 0.0
C607 C 0.732 0.43047 0.53207 0.0
H608 H 0.75674 0.45496 0.38834 0.0
C609 C 0.75787 0.42748 0.56979 0.0
C610 C 0.78343 0.43467 0.54325 0.0
H611 H 0.7129 0.42592 0.55644 0.0
H612 H 0.75777 0.42104 0.62172 0.0
C613 C 0.78245 0.44429 0.47693 0.0
C614 C 0.35841 1.00924 0.31967 0.0
C615 C 0.33387 0.99312 0.29843 0.0
H616 H 0.37638 0.04643 0.37948 0.0
C617 C 0.30799 1.00335 0.32186 0.0
H618 H 0.37869 1.00234 0.30187 0.0
C619 C 0.30656 0.02907 0.36424 0.0
C620 C 0.33107 0.04508 0.38628 0.0
H621 H 0.28866 0.99147 0.30763 0.0
H622 H 0.28603 0.03647 0.37919 0.0
C623 C 0.35704 0.03483 0.36333 0.0
C624 C 0.791 0.95868 0.53105 0.0
C625 C 0.80551 0.93415 0.50436 0.0
H626 H 0.75528 0.97695 0.57718 0.0
C627 C 0.79411 0.90745 0.51656 0.0
H628 H 0.79894 0.97991 0.52674 0.0
C629 C 0.76904 0.90566 0.55258 0.0
C630 C 0.75406 0.93051 0.57681 0.0
H631 H 0.80424 0.88783 0.49736 0.0
H632 H 0.76156 0.88471 0.56124 0.0
C633 C 0.76569 0.95691 0.56355 0.0
C634 C 0.36486 0.50919 0.85478 0.0
C635 C 0.34852 0.48516 0.82908 0.0
H636 H 0.37689 0.55197 0.8401 0.0
C637 C 0.33219 0.48528 0.76689 0.0
H638 H 0.37763 0.50924 0.90296 0.0
C639 C 0.33216 0.50922 0.7304 0.0
C640 C 0.34802 0.53377 0.7563 0.0
H641 H 0.31974 0.4667 0.74618 0.0
H642 H 0.3199 0.50832 0.68134 0.0
C643 C 0.36453 0.53345 0.81876 0.0
C644 C 0.76686 0.1114 1.01555 0.0
C645 C 0.75092 0.08618 0.99746 0.0
H646 H 0.80473 0.13036 0.06673 0.0
C647 C 0.76223 0.0602 1.01615 0.0
H648 H 0.75904 0.13176 1.00124 0.0
C649 C 0.78854 0.05934 0.05167 0.0
C650 C 0.8042 0.08451 0.07145 0.0
H651 H 0.75058 0.04035 1.00432 0.0
H652 H 0.7965 0.03877 0.06423 0.0
C653 C 0.79323 0.11057 0.05219 0.0
C654 C 0.1931 0.541 0.2479 0.0
C655 C 0.18021 0.54063 0.31089 0.0
H656 H 0.20602 0.51702 0.15543 0.0
C657 C 0.1686 0.5147 0.32632 0.0
H658 H 0.20283 0.56048 0.23537 0.0
C659 C 0.17078 0.48949 0.28093 0.0
C660 C 0.18502 0.48952 0.21941 0.0
H661 H 0.1593 0.51357 0.37545 0.0
H662 H 0.1627 0.46968 0.29599 0.0
C663 C 0.19534 0.5159 0.2027 0.0
C664 C 0.27564 0.07751 0.60843 0.0
C665 C 0.28188 0.10156 0.5747 0.0
H666 H 0.24633 0.05587 0.66217 0.0
C667 C 0.2637 0.12523 0.58192 0.0
H668 H 0.28942 0.0591 0.60604 0.0
C669 C 0.23912 0.12406 0.6183 0.0
C670 C 0.23171 0.09896 0.64729 0.0
H671 H 0.26773 0.14421 0.55688 0.0
H672 H 0.22567 0.14267 0.62202 0.0
C673 C 0.25082 0.07595 0.64253 0.0
C674 C 0.66091 0.52886 0.34626 0.0
C675 C 0.66853 0.50141 0.31662 0.0
H676 H 0.65682 0.5739 0.33344 0.0
C677 C 0.67538 0.49854 0.24701 0.0
H678 H 0.65568 0.53186 0.39996 0.0
C679 C 0.67575 0.52242 0.20894 0.0
C680 C 0.66948 0.55021 0.23902 0.0
H681 H 0.68141 0.47786 0.22255 0.0
H682 H 0.68226 0.51931 0.15625 0.0
C683 C 0.66133 0.55295 0.30794 0.0
C684 C 0.2572 0.95755 1.02014 0.0
C685 C 0.23903 0.93358 1.00655 0.0
H686 H 0.29505 0.97603 0.07012 0.0
C687 C 0.24793 0.90841 0.03611 0.0
H688 H 0.25173 0.97794 1.00209 0.0
C689 C 0.27317 0.90786 0.07931 0.0
C690 C 0.2905 0.93234 0.09365 0.0
H691 H 0.23523 0.88917 1.02714 0.0
H692 H 0.27843 0.88871 0.10379 0.0
C693 C 0.28242 0.9567 0.06098 0.0
C694 C 0.85981 0.53622 0.80363 0.0
C695 C 0.83463 0.54691 0.8303 0.0
H696 H 0.87926 0.50434 0.73556 0.0
C697 C 0.80908 0.53341 0.80539 0.0
H698 H 0.87984 0.5461 0.82163 0.0
C699 C 0.80878 0.50915 0.75752 0.0
C700 C 0.83398 0.49793 0.73205 0.0
H701 H 0.78917 0.54143 0.82333 0.0
H702 H 0.78875 0.49879 0.74192 0.0
C703 C 0.85948 0.51205 0.75492 0.0
C704 C 0.13271 0.26438 0.79578 0.0
C705 C 0.12666 0.23505 0.79582 0.0
H706 H 0.13614 0.3057 0.85531 0.0
C707 C 0.12187 0.2248 0.85965 0.0
H708 H 0.13611 0.27313 0.74755 0.0
C709 C 0.12172 0.24332 0.92089 0.0
C710 C 0.12626 0.27287 0.92073 0.0
H711 H 0.11714 0.2024 0.86199 0.0
H712 H 0.1171 0.23444 0.9682 0.0
C713 C 0.13248 0.2831 0.85756 0.0
C714 C 0.02926 0.88101 0.13005 0.0
C715 C 0.05707 0.87026 0.13474 0.0
H716 H 0.99069 0.89047 0.18108 0.0
C717 C 0.06714 0.86188 0.19926 0.0
H718 H 0.0205 0.88761 0.08146 0.0
C719 C 0.05002 0.86341 0.25612 0.0
C720 C 0.02204 0.87356 0.25139 0.0
H721 H 0.08826 0.85352 0.20576 0.0
H722 H 0.05877 0.85612 0.30399 0.0
C723 C 1.01205 0.8827 0.18744 0.0
C724 C 0.39729 0.737 0.29905 0.0
C725 C 0.39928 0.74328 0.37178 0.0
H726 H 0.39665 0.75342 0.19966 0.0
C727 C 0.39903 0.77214 0.39927 0.0
H728 H 0.39733 0.71502 0.27594 0.0
C729 C 0.39885 0.79407 0.35555 0.0
C730 C 0.39847 0.78784 0.28301 0.0
H731 H 0.4005 0.77789 0.45482 0.0
H732 H 0.4002 0.81603 0.37884 0.0
C733 C 0.39668 0.75903 0.25516 0.0
C734 C 0.5126 0.13698 0.51131 0.0
C735 C 0.48443 0.13722 0.52968 0.0
H736 H 0.55636 0.13727 0.54654 0.0
C737 C 0.47931 0.13375 0.59907 0.0
H738 H 0.51748 0.14 0.45885 0.0
C739 C 0.50167 0.13165 0.64928 0.0
C740 C 0.52983 0.13364 0.6319 0.0
H741 H 0.45794 0.13401 0.61539 0.0
H742 H 0.49683 0.13052 0.70266 0.0
C743 C 0.53496 0.13555 0.56184 0.0
C744 C 0.13179 0.7615 0.78499 0.0
C745 C 0.12397 0.79055 0.78469 0.0
H746 H 0.13851 0.72098 0.72459 0.0
C747 C 0.11872 0.80083 0.71952 0.0
H748 H 0.13581 0.75254 0.83377 0.0
C749 C 0.12019 0.78285 0.65746 0.0
C750 C 0.127 0.75362 0.65721 0.0
H751 H 0.11271 0.82291 0.71608 0.0
H752 H 0.11532 0.79197 0.60919 0.0
C753 C 0.13327 0.74329 0.72215 0.0
C754 C 0.50277 0.87713 0.04888 0.0
C755 C 0.47402 0.87623 1.02634 0.0
H756 H 0.54562 0.87345 1.0215 0.0
C757 C 0.46712 0.87272 0.95428 0.0
H758 H 0.50916 0.87964 0.10365 0.0
C759 C 0.48837 0.86939 0.90648 0.0
C760 C 0.51705 0.8691 0.92959 0.0
H761 H 0.44528 0.87196 0.9348 0.0
H762 H 0.48229 0.86603 0.8516 0.0
C763 C 0.52384 0.87344 1.00145 0.0
C764 C 0.39551 0.24677 0.1584 0.0
C765 C 0.40269 0.27474 0.18742 0.0
H766 H 0.38942 0.2028 0.17679 0.0
C767 C 0.40696 0.27993 0.25971 0.0
H768 H 0.39283 0.24191 0.10265 0.0
C769 C 0.40457 0.25778 0.302 0.0
C770 C 0.39871 0.22945 0.27321 0.0
H771 H 0.41306 0.30106 0.28354 0.0
H772 H 0.40872 0.26274 0.35737 0.0
C773 C 0.39387 0.22429 0.20078 0.0
C774 C 0.04845 0.16471 0.30538 0.0
C775 C 0.02073 0.15388 0.30209 0.0
H776 H 0.08586 0.17725 0.36815 0.0
C777 C 1.01017 0.14643 0.36403 0.0
H778 H 0.05752 0.17064 0.25912 0.0
C779 C 0.02661 0.15042 0.42741 0.0
C780 C 0.05409 0.16198 0.43079 0.0
H781 H 0.98895 0.13812 0.36391 0.0
H782 H 0.01745 0.14508 0.47409 0.0
C783 C 0.06481 0.16863 0.36842 0.0
C784 C 0.93407 0.79475 0.2115 0.0
C785 C 0.91701 0.79217 0.2673 0.0
H786 H 0.94669 0.77761 0.11232 0.0
C787 C 0.89735 0.76943 0.2607 0.0
H788 H 0.94953 0.81175 0.21352 0.0
C789 C 0.89543 0.7496 0.20036 0.0
C790 C 0.91353 0.7519 0.14637 0.0
H791 H 0.88385 0.76667 0.30239 0.0
H792 H 0.88068 0.73194 0.1972 0.0
C793 C 0.93251 0.77497 0.15278 0.0
C794 C 0.98327 0.15196 0.79031 0.0
C795 C 1.01265 0.14798 0.79766 0.0
H796 H 0.94384 0.1537 0.83815 0.0
C797 C 0.02433 0.14141 0.86255 0.0
H798 H 0.97335 0.15697 0.74135 0.0
C799 C 1.00723 0.13975 0.91879 0.0
C800 C 0.97791 0.14442 0.91172 0.0
H801 H 0.04681 0.13823 0.87047 0.0
H802 H 0.01715 0.13542 0.9683 0.0
C803 C 0.96622 0.15008 0.84618 0.0
C804 C 0.62552 0.2486 0.80434 0.0
C805 C 0.62332 0.21949 0.77889 0.0
H806 H 0.62514 0.29213 0.78141 0.0
C807 C 0.62135 0.21243 0.70641 0.0
H808 H 0.62715 0.25508 0.85958 0.0
C809 C 0.62034 0.23401 0.66096 0.0
C810 C 0.62111 0.26312 0.68699 0.0
H811 H 0.61989 0.1903 0.68473 0.0
H812 H 0.61787 0.22788 0.60564 0.0
C813 C 0.6243 0.27001 0.75925 0.0
C814 C 0.53444 0.87089 0.4006 0.0
C815 C 0.50539 0.87645 0.40547 0.0
H816 H 0.57471 0.86423 0.45176 0.0
C817 C 0.49573 0.88123 0.47309 0.0
H818 H 0.54316 0.86718 0.3503 0.0
C819 C 0.51436 0.87945 0.53299 0.0
C820 C 0.54331 0.87295 0.52736 0.0
H821 H 0.47362 0.88544 0.47976 0.0
H822 H 0.50584 0.88226 0.58362 0.0
C823 C 0.55284 0.86923 0.4597 0.0
C824 C 0.90308 0.21655 0.30104 0.0
C825 C 0.90017 0.22372 0.23236 0.0
H826 H 0.90139 0.23059 0.40913 0.0
C827 C 0.89063 0.25129 0.22105 0.0
H828 H 0.91029 0.19548 0.31176 0.0
C829 C 0.88585 0.27169 0.27735 0.0
C830 C 0.89007 0.26486 0.34621 0.0
H831 H 0.88834 0.25761 0.16896 0.0
H832 H 0.87979 0.29313 0.26692 0.0
C833 C 0.89789 0.23673 0.35707 0.0
C834 C 0.54641 0.13885 0.11267 0.0
C835 C 0.5407 0.1392 0.04069 0.0
H836 H 0.53027 0.1426 0.214 0.0
C837 C 0.51248 0.14191 1.01607 0.0
H838 H 0.56796 0.1374 0.13361 0.0
C839 C 0.49082 0.14569 0.06256 0.0
C840 C 0.49671 0.14645 0.13493 0.0
H841 H 0.50738 0.14318 0.96135 0.0
H842 H 0.46954 0.14907 0.04185 0.0
C843 C 0.52475 0.14204 0.15895 0.0
C844 C 0.62375 0.77841 0.95604 0.0
C845 C 0.62944 0.74978 0.93102 0.0
H846 H 0.6164 0.82184 0.93182 0.0
C847 C 0.63371 0.74429 0.85962 0.0
H848 H 0.61991 0.78368 1.01021 0.0
C849 C 0.63205 0.76614 0.81493 0.0
C850 C 0.62549 0.79461 0.83896 0.0
H851 H 0.63798 0.72271 0.83758 0.0
H852 H 0.6351 0.76037 0.76051 0.0
C853 C 0.62155 0.80038 0.91071 0.0
C854 C 0.97099 0.87152 0.6921 0.0
C855 C 0.98213 0.87647 0.62898 0.0
H856 H 0.97889 0.86725 0.80036 0.0
C857 C 1.01112 0.88316 0.63021 0.0
H858 H 0.94884 0.86672 0.694 0.0
C859 C 0.02853 0.88382 0.69202 0.0
C860 C 0.0175 0.87765 0.75444 0.0
H861 H 0.02065 0.88707 0.58287 0.0
H862 H 0.0508 0.88822 0.6903 0.0
C863 C 0.98836 0.87194 0.75352 0.0
C864 C 0.61249 0.71646 0.40556 0.0
C865 C 0.62179 0.72598 0.34452 0.0
H866 H 0.60592 0.72646 0.51346 0.0
C867 C 0.63349 0.7537 0.34863 0.0
H868 H 0.60328 0.69538 0.40474 0.0
C869 C 0.63511 0.77163 0.41141 0.0
C870 C 0.62495 0.76242 0.47187 0.0
H871 H 0.64086 0.76187 0.30283 0.0
H872 H 0.64368 0.79299 0.41205 0.0
C873 C 0.61397 0.73442 0.46816 0.0
C874 C 0.52722 0.38029 0.61897 0.0
C875 C 0.55614 0.37313 0.62609 0.0
H876 H 0.4876 0.38613 0.66762 0.0
C877 C 0.56697 0.36797 0.69278 0.0
H878 H 0.51783 0.38444 0.56881 0.0
C879 C 0.54956 0.36862 0.7491 0.0
C880 C 0.52052 0.37494 0.74192 0.0
H881 H 0.58904 0.36302 0.7016 0.0
H882 H 0.55901 0.36381 0.79871 0.0
C883 C 0.50975 0.3813 0.67593 0.0
C884 C 0.89057 0.27225 0.86947 0.0
C885 C 0.88984 0.24345 0.84131 0.0
H886 H 0.88946 0.31627 0.84962 0.0
C887 C 0.88335 0.23743 0.7694 0.0
H888 H 0.8954 0.27784 0.92441 0.0
C889 C 0.87946 0.25964 0.72637 0.0
C890 C 0.88224 0.28841 0.75414 0.0
H891 H 0.8825 0.21552 0.74576 0.0
H892 H 0.87628 0.25422 0.67089 0.0
C893 C 0.88701 0.29436 0.82648 0.0
C894 C 0.99839 0.64409 0.1535 0.0
C895 C 0.02686 0.64317 0.13792 0.0
H896 H 0.95543 0.64732 0.11535 0.0
C897 C 0.03322 0.64096 0.06764 0.0
H898 H 0.99259 0.64562 0.20677 0.0
C899 C 1.01172 0.64161 1.01472 0.0
C900 C 0.98342 0.64475 1.031 0.0
H901 H 0.05491 0.64006 0.05359 0.0
H902 H 0.01746 0.64161 0.96165 0.0
C903 C 0.97701 0.64501 0.10086 0.0
C904 C 0.63117 0.26043 0.2874 0.0
C905 C 0.62469 0.28981 0.28594 0.0
H906 H 0.63635 0.21917 0.2288 0.0
C907 C 0.6202 0.29967 0.22 0.0
H908 H 0.63456 0.25168 0.33663 0.0
C909 C 0.62098 0.28104 0.15862 0.0
C910 C 0.62644 0.25156 0.15965 0.0
H911 H 0.6151 0.32188 0.21537 0.0
H912 H 0.61661 0.28987 0.10977 0.0
C913 C 0.63216 0.24164 0.22526 0.0
C914 C 0.99053 0.37466 0.49604 0.0
C915 C 0.96304 0.36505 0.47454 0.0
H916 H 0.03218 0.3832 0.46725 0.0
C917 C 0.95655 0.35841 0.40281 0.0
H918 H 0.99653 0.37996 0.55054 0.0
C919 C 0.97718 0.36051 0.35445 0.0
C920 C 1.00495 0.36902 0.37655 0.0
H921 H 0.93568 0.35097 0.38399 0.0
H922 H 0.97162 0.35448 0.30001 0.0
C923 C 1.01112 0.37648 0.44798 0.0
C924 C 0.89787 0.75747 0.77654 0.0
C925 C 0.89962 0.72824 0.75259 0.0
H926 H 0.90068 0.80077 0.7533 0.0
C927 C 0.90316 0.72072 0.68162 0.0
H928 H 0.89502 0.76427 0.83062 0.0
C929 C 0.90626 0.74197 0.63665 0.0
C930 C 0.90603 0.77115 0.6619 0.0
H931 H 0.90434 0.69847 0.6612 0.0
H932 H 0.90996 0.73552 0.58285 0.0
C933 C 0.90118 0.77855 0.73204 0.0
C934 C 0.51878 0.63986 0.97392 0.0
C935 C 0.54218 0.65857 0.97931 0.0
H936 H 0.48118 0.62446 0.91307 0.0
C937 C 0.54603 0.67484 0.92362 0.0
H938 H 0.51503 0.62704 1.01563 0.0
C939 C 0.52673 0.67367 0.86643 0.0
C940 C 0.50295 0.65583 0.86161 0.0
H941 H 0.56354 0.68959 0.92484 0.0
H942 H 0.53021 0.68737 0.82618 0.0
C943 C 0.49945 0.6383 0.91512 0.0
C944 C 0.39562 0.2729 0.75809 0.0
C945 C 0.4209 0.2871 0.78269 0.0
H946 H 0.37529 0.2419 0.68123 0.0
C947 C 0.4456 0.27936 0.74918 0.0
H948 H 0.37622 0.27838 0.78255 0.0
C949 C 0.44515 0.25857 0.69235 0.0
C950 C 0.41991 0.24488 0.66601 0.0
H951 H 0.46557 0.28951 0.76676 0.0
H952 H 0.46476 0.25362 0.66827 0.0
C953 C 0.39508 0.25216 0.69981 0.0
C954 C 0.5056 0.63538 0.48504 0.0
C955 C 0.47718 0.64137 0.4676 0.0
H956 H 0.54788 0.63319 0.45351 0.0
C957 C 0.46959 0.64714 0.39929 0.0
H958 H 0.51231 0.63057 0.53684 0.0
C959 C 0.49022 0.64871 0.3511 0.0
C960 C 0.51885 0.64439 0.37011 0.0
H961 H 0.4479 0.65142 0.38367 0.0
H962 H 0.48382 0.65436 0.29981 0.0
C963 C 0.52611 0.6369 0.43707 0.0
C964 C 0.13778 0.74792 0.2975 0.0
C965 C 0.12984 0.71949 0.27502 0.0
H966 H 0.14272 0.79062 0.2712 0.0
C967 C 0.12287 0.71228 0.20381 0.0
H968 H 0.14342 0.75439 0.35172 0.0
C969 C 0.1224 0.7333 0.15715 0.0
C970 C 0.12897 0.76202 0.18058 0.0
H971 H 0.11684 0.69062 0.18436 0.0
H972 H 0.11595 0.72721 0.10321 0.0
C973 C 0.13732 0.76883 0.25109 0.0
C974 C 1.00189 0.38102 0.97826 0.0
C975 C 0.03132 0.3777 0.97369 0.0
H976 H 0.96105 0.38341 0.92345 0.0
C977 C 0.04164 0.37622 0.90696 0.0
H978 H 0.99289 0.38202 1.02827 0.0
C979 C 0.02347 0.37691 0.84728 0.0
C980 C 0.99402 0.37914 0.85111 0.0
H981 H 0.06398 0.37375 0.90023 0.0
H982 H 0.0327 0.37502 0.79746 0.0
C983 C 0.98352 0.38174 0.91789 0.0
C984 C 0.39693 0.759 0.75573 0.0
C985 C 0.3994 0.73022 0.76899 0.0
H986 H 0.39654 0.80296 0.79867 0.0
C987 C 0.3999 0.72391 0.83839 0.0
H988 H 0.39678 0.76469 0.70311 0.0
C989 C 0.39964 0.74579 0.89317 0.0
C990 C 0.39925 0.77467 0.88024 0.0
H991 H 0.40178 0.70199 0.85064 0.0
H992 H 0.40124 0.74004 0.94581 0.0
C993 C 0.39703 0.78097 0.81071 0.0
C994 C 0.02407 0.64466 0.65637 0.0
C995 C 0.99564 0.64589 0.63228 0.0
H996 H 0.06727 0.64469 0.63093 0.0
C997 C 0.98928 0.64412 0.56008 0.0
H998 H 0.02985 0.64593 0.71141 0.0
C999 C 1.01087 0.64288 0.51356 0.0
C1000 C 0.03931 0.64383 0.53827 0.0
H1001 H 0.96762 0.6449 0.53955 0.0
H1002 H 1.00527 0.64317 0.45874 0.0
C1003 C 0.04558 0.6439 0.61008 0.0
C1004 C 0.1099 0.31943 0.36205 0.0
C1005 C 0.1163 0.31174 0.29262 0.0
H1006 H 0.1055 0.30572 0.46341 0.0
C1007 C 0.12463 0.2833 0.27446 0.0
H1008 H 0.1036 0.34109 0.37846 0.0
C1009 C 0.12567 0.26308 0.32296 0.0
C1010 C 0.11865 0.27045 0.39191 0.0
H1011 H 0.12969 0.27627 0.22185 0.0
H1012 H 0.13158 0.24136 0.30574 0.0
C1013 C 0.11113 0.29911 0.41102 0.0
C1014 C 0.49653 0.33132 0.12831 0.0
C1015 C 0.48797 0.35703 0.10264 0.0
H1016 H 0.52098 0.31088 0.2046 0.0
C1017 C 0.49805 0.38294 0.13893 0.0
H1018 H 0.48959 0.31095 0.10197 0.0
C1019 C 0.5166 0.38298 0.19848 0.0
C1020 C 0.52545 0.35709 0.2231 0.0
H1021 H 0.49192 0.40321 0.12078 0.0
H1022 H 0.52431 0.4032 0.2245 0.0
C1023 C 0.51482 0.33134 0.18749 0.0
loop_
_geom_bond_atom_site_label_1
_geom_bond_atom_site_label_2
_geom_bond_distance
_geom_bond_site_symmetry_2
_ccdc_geom_bond_type
O0 Tb1 2.292 . S
O0 C3 1.255 . S
Tb1 O0 2.292 . S
Tb1 O17 2.326 . S
Tb1 O19 2.500 . S
Tb1 O20 2.473 . S
Tb1 O23 2.324 . S
Eu2 O6 2.292 1_554 S
Eu2 C7 2.852 . S
Eu2 O18 2.324 . S
Eu2 O22 2.326 . S
Eu2 O24 2.500 . S
Eu2 O25 2.473 . S
C3 O0 1.255 . S
C3 O4 1.247 . S
O4 C3 1.247 . S
C5 O17 1.242 . S
C5 O18 1.258 . S
O6 Eu2 2.292 1_556 S
O6 C8 1.255 . S
C7 Eu2 2.852 . S
C7 C11 1.503 . S
C7 O24 1.273 . S
C7 O25 1.257 . S
C8 O6 1.255 . S
C8 O9 1.247 . S
O9 C8 1.247 . S
C10 O22 1.242 1_556 S
C10 O23 1.258 1_556 S
C11 C7 1.503 . S
C11 C12 1.379 . S
C11 C16 1.392 . S
C12 C11 1.379 . S
C12 C13 1.404 . S
C12 H26 0.929 . S
C13 C12 1.404 . S
C13 C14 1.389 . S
C14 C13 1.389 . S
C14 C15 1.399 . S
C14 H27 0.931 . S
C15 C14 1.399 . S
C15 C16 1.390 . S
C16 C11 1.392 . S
C16 C15 1.390 . S
C16 H28 0.916 1_554 S
O17 Tb1 2.326 . S
O17 C5 1.242 . S
O18 Eu2 2.324 . S
O18 C5 1.258 . S
O19 Tb1 2.500 . S
O19 C21 1.273 . S
O20 Tb1 2.473 . S
O20 C21 1.257 . S
C21 O19 1.273 . S
C21 O20 1.257 . S
O22 Eu2 2.326 . S
O22 C10 1.242 1_554 S
O23 Tb1 2.324 . S
O23 C10 1.258 1_554 S
O24 Eu2 2.500 . S
O24 C7 1.273 . S
O25 Eu2 2.473 . S
O25 C7 1.257 . S
H26 C12 0.929 . S
H27 C14 0.931 . S
H28 C16 0.916 1_556 S
O29 Tb30 2.292 . S
O29 C32 1.255 . S
Tb30 O29 2.292 . S
Tb30 O46 2.326 . S
Tb30 O48 2.500 . S
Tb30 O49 2.473 . S
Tb30 O52 2.324 . S
Eu31 O35 2.292 . S
Eu31 C36 2.852 . S
Eu31 O47 2.324 . S
Eu31 O51 2.326 . S
Eu31 O53 2.500 . S
Eu31 O54 2.473 . S
C32 O29 1.255 . S
C32 O33 1.247 . S
O33 C32 1.247 . S
C34 O46 1.242 . S
C34 O47 1.258 . S
O35 Eu31 2.292 . S
O35 C37 1.255 . S
C36 Eu31 2.852 . S
C36 C40 1.503 . S
C36 O53 1.273 . S
C36 O54 1.257 . S
C37 O35 1.255 . S
C37 O38 1.247 . S
O38 C37 1.247 . S
C39 O51 1.242 . S
C39 O52 1.258 . S
C40 C36 1.503 . S
C40 C41 1.379 . S
C40 C45 1.392 . S
C41 C40 1.379 . S
C41 C42 1.404 . S
C41 H55 0.929 . S
C42 C41 1.404 . S
C42 C43 1.389 . S
C43 C42 1.389 . S
C43 C44 1.399 . S
C43 H56 0.931 . S
C44 C43 1.399 . S
C44 C45 1.390 . S
C45 C40 1.392 . S
C45 C44 1.390 . S
C45 H57 0.929 . S
O46 Tb30 2.326 . S
O46 C34 1.242 . S
O47 Eu31 2.324 . S
O47 C34 1.258 . S
O48 Tb30 2.500 . S
O48 C50 1.273 . S
O49 Tb30 2.473 . S
O49 C50 1.257 . S
C50 O48 1.273 . S
C50 O49 1.257 . S
O51 Eu31 2.326 . S
O51 C39 1.242 . S
O52 Tb30 2.324 . S
O52 C39 1.258 . S
O53 Eu31 2.500 . S
O53 C36 1.273 . S
O54 Eu31 2.473 . S
O54 C36 1.257 . S
H55 C41 0.929 . S
H56 C43 0.931 . S
H57 C45 0.929 . S
O58 Tb59 2.292 . S
O58 C61 1.255 . S
Tb59 O58 2.292 . S
Tb59 O75 2.326 . S
Tb59 O77 2.500 . S
Tb59 O78 2.473 . S
Tb59 O81 2.324 . S
Eu60 O64 2.292 . S
Eu60 C65 2.852 . S
Eu60 O76 2.324 . S
Eu60 O80 2.326 . S
Eu60 O82 2.500 . S
Eu60 O83 2.473 . S
C61 O58 1.255 . S
C61 O62 1.247 . S
O62 C61 1.247 . S
C63 O75 1.242 . S
C63 O76 1.258 . S
O64 Eu60 2.292 . S
O64 C66 1.255 . S
C65 Eu60 2.852 . S
C65 C69 1.503 . S
C65 O82 1.273 . S
C65 O83 1.257 . S
C66 O64 1.255 . S
C66 O67 1.247 . S
O67 C66 1.247 . S
C68 O80 1.242 . S
C68 O81 1.258 . S
C69 C65 1.503 . S
C69 C70 1.379 . S
C69 C74 1.392 . S
C70 C69 1.379 . S
C70 C71 1.404 . S
C70 H84 0.929 . S
C71 C70 1.404 . S
C71 C72 1.389 . S
C72 C71 1.389 . S
C72 C73 1.399 . S
C72 H85 0.931 . S
C73 C72 1.399 . S
C73 C74 1.390 . S
C74 C69 1.392 . S
C74 C73 1.390 . S
C74 H86 0.929 . S
O75 Tb59 2.326 . S
O75 C63 1.242 . S
O76 Eu60 2.324 . S
O76 C63 1.258 . S
O77 Tb59 2.500 . S
O77 C79 1.273 . S
O78 Tb59 2.473 . S
O78 C79 1.257 . S
C79 O77 1.273 . S
C79 O78 1.257 . S
O80 Eu60 2.326 . S
O80 C68 1.242 . S
O81 Tb59 2.324 . S
O81 C68 1.258 . S
O82 Eu60 2.500 . S
O82 C65 1.273 . S
O83 Eu60 2.473 . S
O83 C65 1.257 . S
H84 C70 0.929 . S
H85 C72 0.931 . S
H86 C74 0.929 . S
O87 Tb88 2.292 . S
O87 C90 1.255 . S
Tb88 O87 2.292 . S
Tb88 O104 2.326 . S
Tb88 O106 2.500 . S
Tb88 O107 2.473 . S
Tb88 O110 2.324 . S
Eu89 O93 2.292 1_556 S
Eu89 C94 2.852 . S
Eu89 O105 2.324 . S
Eu89 O109 2.326 . S
Eu89 O111 2.500 . S
Eu89 O112 2.473 . S
C90 O87 1.255 . S
C90 O91 1.247 . S
O91 C90 1.247 . S
C92 O104 1.242 . S
C92 O105 1.258 . S
O93 Eu89 2.292 1_554 S
O93 C95 1.255 . S
C94 Eu89 2.852 . S
C94 C98 1.503 . S
C94 O111 1.273 . S
C94 O112 1.257 . S
C95 O93 1.255 . S
C95 O96 1.247 . S
O96 C95 1.247 . S
C97 O109 1.242 . S
C97 O110 1.258 . S
C98 C94 1.503 . S
C98 C99 1.379 . S
C98 C103 1.392 . S
C99 C98 1.379 . S
C99 C100 1.404 . S
C99 H113 0.929 . S
C100 C99 1.404 . S
C100 C101 1.389 . S
C101 C100 1.389 . S
C101 C102 1.399 . S
C101 H114 0.931 . S
C102 C101 1.399 . S
C102 C103 1.390 . S
C103 C98 1.392 . S
C103 C102 1.390 . S
C103 H115 0.929 1_556 S
O104 Tb88 2.326 . S
O104 C92 1.242 . S
O105 Eu89 2.324 . S
O105 C92 1.258 . S
O106 Tb88 2.500 . S
O106 C108 1.273 . S
O107 Tb88 2.473 . S
O107 C108 1.257 . S
C108 O106 1.273 . S
C108 O107 1.257 . S
O109 Eu89 2.326 . S
O109 C97 1.242 . S
O110 Tb88 2.324 . S
O110 C97 1.258 . S
O111 Eu89 2.500 . S
O111 C94 1.273 . S
O112 Eu89 2.473 . S
O112 C94 1.257 . S
H113 C99 0.929 . S
H114 C101 0.931 . S
H115 C103 0.929 1_554 S
O116 Tb117 2.292 . S
O116 C119 1.255 . S
Tb117 O116 2.292 . S
Tb117 O133 2.326 . S
Tb117 O135 2.493 1_455 S
Tb117 O136 2.473 . S
Tb117 O139 2.324 . S
Eu118 O122 2.292 . S
Eu118 C123 2.852 . S
Eu118 O134 2.324 . S
Eu118 O138 2.326 . S
Eu118 O140 2.500 . S
Eu118 O141 2.473 . S
C119 O116 1.255 . S
C119 O120 1.247 . S
O120 C119 1.247 . S
C121 O133 1.242 . S
C121 O134 1.258 . S
O122 Eu118 2.292 . S
O122 C124 1.255 . S
C123 Eu118 2.852 . S
C123 C127 1.503 . S
C123 O140 1.273 . S
C123 O141 1.257 . S
C124 O122 1.255 . S
C124 O125 1.247 . S
O125 C124 1.247 . S
C126 O138 1.242 . S
C126 O139 1.258 . S
C127 C123 1.503 . S
C127 C128 1.379 . S
C127 C132 1.392 . S
C128 C127 1.379 . S
C128 C129 1.404 . S
C128 H142 0.929 . S
C129 C128 1.404 . S
C129 C130 1.389 . S
C130 C129 1.389 . S
C130 C131 1.399 . S
C130 H143 0.931 . S
C131 C130 1.399 . S
C131 C132 1.390 . S
C132 C127 1.392 . S
C132 C131 1.390 . S
C132 H144 0.929 . S
O133 Tb117 2.326 . S
O133 C121 1.242 . S
O134 Eu118 2.324 . S
O134 C121 1.258 . S
O135 Tb117 2.493 1_655 S
O135 C137 1.271 1_655 S
O136 Tb117 2.473 . S
O136 C137 1.257 . S
C137 O135 1.271 1_455 S
C137 O136 1.257 . S
O138 Eu118 2.326 . S
O138 C126 1.242 . S
O139 Tb117 2.324 . S
O139 C126 1.258 . S
O140 Eu118 2.500 . S
O140 C123 1.273 . S
O141 Eu118 2.473 . S
O141 C123 1.257 . S
H142 C128 0.929 . S
H143 C130 0.931 . S
H144 C132 0.929 . S
O145 Tb146 2.292 . S
O145 C148 1.255 . S
Tb146 O145 2.292 . S
Tb146 O162 2.326 . S
Tb146 O164 2.500 . S
Tb146 O165 2.473 . S
Tb146 O168 2.324 . S
Eu147 O151 2.292 . S
Eu147 C152 2.852 . S
Eu147 O163 2.324 . S
Eu147 O167 2.326 . S
Eu147 O169 2.500 . S
Eu147 O170 2.473 . S
C148 O145 1.255 . S
C148 O149 1.247 . S
O149 C148 1.247 . S
C150 O162 1.242 . S
C150 O163 1.258 . S
O151 Eu147 2.292 . S
O151 C153 1.255 . S
C152 Eu147 2.852 . S
C152 C156 1.503 . S
C152 O169 1.273 . S
C152 O170 1.257 . S
C153 O151 1.255 . S
C153 O154 1.247 . S
O154 C153 1.247 . S
C155 O167 1.242 . S
C155 O168 1.258 . S
C156 C152 1.503 . S
C156 C157 1.379 . S
C156 C161 1.392 . S
C157 C156 1.379 . S
C157 C158 1.404 . S
C157 H171 0.929 . S
C158 C157 1.404 . S
C158 C159 1.389 . S
C159 C158 1.389 . S
C159 C160 1.399 . S
C159 H172 0.931 . S
C160 C159 1.399 . S
C160 C161 1.390 . S
C161 C156 1.392 . S
C161 C160 1.390 . S
C161 H173 0.929 . S
O162 Tb146 2.326 . S
O162 C150 1.242 . S
O163 Eu147 2.324 . S
O163 C150 1.258 . S
O164 Tb146 2.500 . S
O164 C166 1.273 . S
O165 Tb146 2.473 . S
O165 C166 1.257 . S
C166 O164 1.273 . S
C166 O165 1.257 . S
O167 Eu147 2.326 . S
O167 C155 1.242 . S
O168 Tb146 2.324 . S
O168 C155 1.258 . S
O169 Eu147 2.500 . S
O169 C152 1.273 . S
O170 Eu147 2.473 . S
O170 C152 1.257 . S
H171 C157 0.929 . S
H172 C159 0.931 . S
H173 C161 0.929 . S
O174 Tb175 2.292 1_554 S
O174 C177 1.255 . S
Tb175 O174 2.292 1_556 S
Tb175 O191 2.326 . S
Tb175 O193 2.500 . S
Tb175 O194 2.473 . S
Tb175 O197 2.324 . S
Eu176 O180 2.292 . S
Eu176 C181 2.852 . S
Eu176 O192 2.324 . S
Eu176 O196 2.326 . S
Eu176 O198 2.500 . S
Eu176 O199 2.473 . S
C177 O174 1.255 . S
C177 O178 1.247 . S
O178 C177 1.247 . S
C179 O191 1.242 1_554 S
C179 O192 1.258 1_554 S
O180 Eu176 2.292 . S
O180 C182 1.255 . S
C181 Eu176 2.852 . S
C181 C185 1.503 . S
C181 O198 1.273 . S
C181 O199 1.257 . S
C182 O180 1.255 . S
C182 O183 1.247 . S
O183 C182 1.247 . S
C184 O196 1.242 . S
C184 O197 1.258 . S
C185 C181 1.503 . S
C185 C186 1.379 . S
C185 C190 1.392 . S
C186 C185 1.379 . S
C186 C187 1.404 . S
C186 H200 0.929 . S
C187 C186 1.404 . S
C187 C188 1.389 . S
C188 C187 1.389 . S
C188 C189 1.399 . S
C188 H201 0.931 . S
C189 C188 1.399 . S
C189 C190 1.390 . S
C190 C185 1.392 . S
C190 C189 1.390 . S
C190 H202 0.929 . S
O191 Tb175 2.326 . S
O191 C179 1.242 1_556 S
O192 Eu176 2.324 . S
O192 C179 1.258 1_556 S
O193 Tb175 2.500 . S
O193 C195 1.273 . S
O194 Tb175 2.473 . S
O194 C195 1.257 . S
C195 O193 1.273 . S
C195 O194 1.257 . S
O196 Eu176 2.326 . S
O196 C184 1.242 . S
O197 Tb175 2.324 . S
O197 C184 1.258 . S
O198 Eu176 2.500 . S
O198 C181 1.273 . S
O199 Eu176 2.473 . S
O199 C181 1.257 . S
H200 C186 0.929 . S
H201 C188 0.931 . S
H202 C190 0.929 . S
O203 Tb204 2.292 1_556 S
O203 C206 1.255 . S
Tb204 O203 2.292 1_554 S
Tb204 O220 2.326 . S
Tb204 O222 2.500 . S
Tb204 O223 2.473 . S
Tb204 O226 2.324 . S
Eu205 O209 2.292 . S
Eu205 C210 2.852 . S
Eu205 O221 2.324 . S
Eu205 O225 2.326 . S
Eu205 O227 2.500 . S
Eu205 O228 2.473 . S
C206 O203 1.255 . S
C206 O207 1.247 . S
O207 C206 1.247 . S
C208 O220 1.242 1_556 S
C208 O221 1.258 1_556 S
O209 Eu205 2.292 . S
O209 C211 1.255 . S
C210 Eu205 2.852 . S
C210 C214 1.503 . S
C210 O227 1.273 . S
C210 O228 1.257 . S
C211 O209 1.255 . S
C211 O212 1.247 . S
O212 C211 1.247 . S
C213 O225 1.242 . S
C213 O226 1.258 . S
C214 C210 1.503 . S
C214 C215 1.379 . S
C214 C219 1.392 . S
C215 C214 1.379 . S
C215 C216 1.404 . S
C215 H229 0.929 . S
C216 C215 1.404 . S
C216 C217 1.389 . S
C217 C216 1.389 . S
C217 C218 1.399 . S
C217 H230 0.931 . S
C218 C217 1.399 . S
C218 C219 1.390 . S
C219 C214 1.392 . S
C219 C218 1.390 . S
C219 H231 0.929 . S
O220 Tb204 2.326 . S
O220 C208 1.242 1_554 S
O221 Eu205 2.324 . S
O221 C208 1.258 1_554 S
O222 Tb204 2.500 . S
O222 C224 1.273 . S
O223 Tb204 2.473 . S
O223 C224 1.257 . S
C224 O222 1.273 . S
C224 O223 1.257 . S
O225 Eu205 2.326 . S
O225 C213 1.242 . S
O226 Tb204 2.324 . S
O226 C213 1.258 . S
O227 Eu205 2.500 . S
O227 C210 1.273 . S
O228 Eu205 2.473 . S
O228 C210 1.257 . S
H229 C215 0.929 . S
H230 C217 0.931 . S
H231 C219 0.929 . S
O232 Tb233 2.292 . S
O232 C235 1.255 . S
Tb233 O232 2.292 . S
Tb233 O249 2.326 . S
Tb233 O251 2.500 1_655 S
Tb233 O252 2.473 . S
Tb233 O255 2.324 . S
Eu234 O238 2.292 1_556 S
Eu234 C239 2.852 . S
Eu234 O250 2.324 . S
Eu234 O254 2.326 . S
Eu234 O256 2.500 . S
Eu234 O257 2.473 . S
C235 O232 1.255 . S
C235 O236 1.247 . S
O236 C235 1.247 . S
C237 O249 1.242 . S
C237 O250 1.258 . S
O238 Eu234 2.292 1_554 S
O238 C240 1.255 . S
C239 Eu234 2.852 . S
C239 C243 1.503 . S
C239 O256 1.273 . S
C239 O257 1.257 . S
C240 O238 1.255 . S
C240 O241 1.247 . S
O241 C240 1.247 . S
C242 O254 1.242 . S
C242 O255 1.258 . S
C243 C239 1.503 . S
C243 C244 1.379 . S
C243 C248 1.392 . S
C244 C243 1.379 . S
C244 C245 1.404 . S
C244 H258 0.929 . S
C245 C244 1.404 . S
C245 C246 1.389 . S
C246 C245 1.389 . S
C246 C247 1.399 . S
C246 H259 0.931 . S
C247 C246 1.399 . S
C247 C248 1.390 . S
C248 C243 1.392 . S
C248 C247 1.390 . S
C248 H260 0.929 . S
O249 Tb233 2.326 . S
O249 C237 1.242 . S
O250 Eu234 2.324 . S
O250 C237 1.258 . S
O251 Tb233 2.500 1_455 S
O251 C253 1.273 1_455 S
O252 Tb233 2.473 . S
O252 C253 1.257 . S
C253 O251 1.273 1_655 S
C253 O252 1.257 . S
O254 Eu234 2.326 . S
O254 C242 1.242 . S
O255 Tb233 2.324 . S
O255 C242 1.258 . S
O256 Eu234 2.500 . S
O256 C239 1.273 . S
O257 Eu234 2.473 . S
O257 C239 1.257 . S
H258 C244 0.929 . S
H259 C246 0.931 . S
H260 C248 0.929 . S
O261 Tb262 2.292 . S
O261 C264 1.255 . S
Tb262 O261 2.292 . S
Tb262 O278 2.326 . S
Tb262 O280 2.500 . S
Tb262 O281 2.473 . S
Tb262 O284 2.324 . S
Eu263 O267 2.292 . S
Eu263 C268 2.852 . S
Eu263 O279 2.324 . S
Eu263 O283 2.326 . S
Eu263 O285 2.500 . S
Eu263 O286 2.473 . S
C264 O261 1.255 . S
C264 O265 1.247 . S
O265 C264 1.247 . S
C266 O278 1.242 . S
C266 O279 1.258 . S
O267 Eu263 2.292 . S
O267 C269 1.255 . S
C268 Eu263 2.852 . S
C268 C272 1.503 . S
C268 O285 1.273 . S
C268 O286 1.257 . S
C269 O267 1.255 . S
C269 O270 1.247 . S
O270 C269 1.247 . S
C271 O283 1.242 . S
C271 O284 1.258 . S
C272 C268 1.503 . S
C272 C273 1.379 . S
C272 C277 1.392 . S
C273 C272 1.379 . S
C273 C274 1.404 . S
C273 H287 0.929 . S
C274 C273 1.404 . S
C274 C275 1.389 . S
C275 C274 1.389 . S
C275 C276 1.399 . S
C275 H288 0.931 . S
C276 C275 1.399 . S
C276 C277 1.390 . S
C277 C272 1.392 . S
C277 C276 1.390 . S
C277 H289 0.929 . S
O278 Tb262 2.326 . S
O278 C266 1.242 . S
O279 Eu263 2.324 . S
O279 C266 1.258 . S
O280 Tb262 2.500 . S
O280 C282 1.273 . S
O281 Tb262 2.473 . S
O281 C282 1.257 . S
C282 O280 1.273 . S
C282 O281 1.257 . S
O283 Eu263 2.326 . S
O283 C271 1.242 . S
O284 Tb262 2.324 . S
O284 C271 1.258 . S
O285 Eu263 2.500 . S
O285 C268 1.273 . S
O286 Eu263 2.473 . S
O286 C268 1.257 . S
H287 C273 0.929 . S
H288 C275 0.931 . S
H289 C277 0.929 . S
O290 Tb291 2.292 . S
O290 C293 1.255 . S
Tb291 O290 2.292 . S
Tb291 O307 2.326 . S
Tb291 O309 2.500 . S
Tb291 O310 2.473 . S
Tb291 O313 2.324 . S
Eu292 O296 2.292 . S
Eu292 C297 2.852 . S
Eu292 O308 2.324 . S
Eu292 O312 2.326 . S
Eu292 O314 2.500 . S
Eu292 O315 2.473 . S
C293 O290 1.255 . S
C293 O294 1.247 . S
O294 C293 1.247 . S
C295 O307 1.242 . S
C295 O308 1.258 . S
O296 Eu292 2.292 . S
O296 C298 1.255 . S
C297 Eu292 2.852 . S
C297 C301 1.503 . S
C297 O314 1.273 . S
C297 O315 1.257 . S
C298 O296 1.255 . S
C298 O299 1.247 . S
O299 C298 1.247 . S
C300 O312 1.242 . S
C300 O313 1.258 . S
C301 C297 1.503 . S
C301 C302 1.379 . S
C301 C306 1.392 . S
C302 C301 1.379 . S
C302 C303 1.404 . S
C302 H316 0.929 . S
C303 C302 1.404 . S
C303 C304 1.389 . S
C304 C303 1.389 . S
C304 C305 1.399 . S
C304 H317 0.931 . S
C305 C304 1.399 . S
C305 C306 1.390 . S
C306 C301 1.392 . S
C306 C305 1.390 . S
C306 H318 0.929 . S
O307 Tb291 2.326 . S
O307 C295 1.242 . S
O308 Eu292 2.324 . S
O308 C295 1.258 . S
O309 Tb291 2.500 . S
O309 C311 1.273 . S
O310 Tb291 2.473 . S
O310 C311 1.257 . S
C311 O309 1.273 . S
C311 O310 1.257 . S
O312 Eu292 2.326 . S
O312 C300 1.242 . S
O313 Tb291 2.324 . S
O313 C300 1.258 . S
O314 Eu292 2.500 . S
O314 C297 1.273 . S
O315 Eu292 2.473 . S
O315 C297 1.257 . S
H316 C302 0.929 . S
H317 C304 0.931 . S
H318 C306 0.929 . S
O319 Tb320 2.292 1_556 S
O319 C322 1.255 . S
Tb320 O319 2.292 1_554 S
Tb320 O336 2.326 . S
Tb320 O338 2.500 . S
Tb320 O339 2.473 . S
Tb320 O342 2.324 . S
Eu321 O325 2.292 . S
Eu321 C326 2.852 . S
Eu321 O337 2.324 . S
Eu321 O341 2.326 . S
Eu321 O343 2.500 . S
Eu321 O344 2.473 . S
C322 O319 1.255 . S
C322 O323 1.247 . S
O323 C322 1.247 . S
C324 O336 1.242 . S
C324 O337 1.258 . S
O325 Eu321 2.292 . S
O325 C327 1.255 . S
C326 Eu321 2.852 . S
C326 C330 1.503 . S
C326 O343 1.273 . S
C326 O344 1.257 . S
C327 O325 1.255 . S
C327 O328 1.247 . S
O328 C327 1.247 . S
C329 O341 1.242 . S
C329 O342 1.258 . S
C330 C326 1.503 . S
C330 C331 1.379 . S
C330 C335 1.392 . S
C331 C330 1.379 . S
C331 C332 1.404 . S
C331 H345 0.929 . S
C332 C331 1.404 . S
C332 C333 1.389 . S
C333 C332 1.389 . S
C333 C334 1.399 . S
C333 H346 0.931 . S
C334 C333 1.399 . S
C334 C335 1.390 . S
C335 C330 1.392 . S
C335 C334 1.390 . S
C335 H347 0.929 . S
O336 Tb320 2.326 . S
O336 C324 1.242 . S
O337 Eu321 2.324 . S
O337 C324 1.258 . S
O338 Tb320 2.500 . S
O338 C340 1.273 . S
O339 Tb320 2.473 . S
O339 C340 1.257 . S
C340 O338 1.273 . S
C340 O339 1.257 . S
O341 Eu321 2.326 . S
O341 C329 1.242 . S
O342 Tb320 2.324 . S
O342 C329 1.258 . S
O343 Eu321 2.500 . S
O343 C326 1.273 . S
O344 Eu321 2.473 . S
O344 C326 1.257 . S
H345 C331 0.929 . S
H346 C333 0.931 . S
H347 C335 0.929 . S
O348 Tb349 2.292 . S
O348 C351 1.255 . S
Tb349 O348 2.292 . S
Tb349 O365 2.326 . S
Tb349 O367 2.500 . S
Tb349 O368 2.473 . S
Tb349 O371 2.324 . S
Eu350 O354 2.292 . S
Eu350 C355 2.852 . S
Eu350 O366 2.324 . S
Eu350 O370 2.326 . S
Eu350 O372 2.500 . S
Eu350 O373 2.473 . S
C351 O348 1.255 . S
C351 O352 1.247 . S
O352 C351 1.247 . S
C353 O365 1.242 . S
C353 O366 1.258 . S
O354 Eu350 2.292 . S
O354 C356 1.255 . S
C355 Eu350 2.852 . S
C355 C359 1.503 . S
C355 O372 1.273 . S
C355 O373 1.257 . S
C356 O354 1.255 . S
C356 O357 1.247 . S
O357 C356 1.247 . S
C358 O370 1.242 . S
C358 O371 1.258 . S
C359 C355 1.503 . S
C359 C360 1.379 . S
C359 C364 1.392 . S
C360 C359 1.379 . S
C360 C361 1.404 . S
C360 H374 0.929 . S
C361 C360 1.404 . S
C361 C362 1.389 . S
C362 C361 1.389 . S
C362 C363 1.399 . S
C362 H375 0.931 . S
C363 C362 1.399 . S
C363 C364 1.390 . S
C364 C359 1.392 . S
C364 C363 1.390 . S
C364 H376 0.929 . S
O365 Tb349 2.326 . S
O365 C353 1.242 . S
O366 Eu350 2.324 . S
O366 C353 1.258 . S
O367 Tb349 2.500 . S
O367 C369 1.273 . S
O368 Tb349 2.473 . S
O368 C369 1.257 . S
C369 O367 1.273 . S
C369 O368 1.257 . S
O370 Eu350 2.326 . S
O370 C358 1.242 . S
O371 Tb349 2.324 . S
O371 C358 1.258 . S
O372 Eu350 2.500 . S
O372 C355 1.273 . S
O373 Eu350 2.473 . S
O373 C355 1.257 . S
H374 C360 0.929 . S
H375 C362 0.931 . S
H376 C364 0.929 . S
O377 Tb378 2.292 . S
O377 C380 1.255 . S
Tb378 O377 2.292 . S
Tb378 O394 2.326 . S
Tb378 O396 2.500 . S
Tb378 O397 2.473 . S
Tb378 O400 2.324 . S
Eu379 O383 2.292 . S
Eu379 C384 2.852 . S
Eu379 O395 2.324 . S
Eu379 O399 2.326 . S
Eu379 O401 2.500 . S
Eu379 O402 2.473 . S
C380 O377 1.255 . S
C380 O381 1.247 . S
O381 C380 1.247 . S
C382 O394 1.242 . S
C382 O395 1.258 . S
O383 Eu379 2.292 . S
O383 C385 1.255 . S
C384 Eu379 2.852 . S
C384 C388 1.503 . S
C384 O401 1.273 . S
C384 O402 1.257 . S
C385 O383 1.255 . S
C385 O386 1.247 . S
O386 C385 1.247 . S
C387 O399 1.242 . S
C387 O400 1.258 . S
C388 C384 1.503 . S
C388 C389 1.379 . S
C388 C393 1.392 . S
C389 C388 1.379 . S
C389 C390 1.404 . S
C389 H403 0.929 . S
C390 C389 1.404 . S
C390 C391 1.389 . S
C391 C390 1.389 . S
C391 C392 1.399 . S
C391 H404 0.931 . S
C392 C391 1.399 . S
C392 C393 1.390 . S
C393 C388 1.392 . S
C393 C392 1.390 . S
C393 H405 0.929 . S
O394 Tb378 2.326 . S
O394 C382 1.242 . S
O395 Eu379 2.324 . S
O395 C382 1.258 . S
O396 Tb378 2.500 . S
O396 C398 1.273 . S
O397 Tb378 2.473 . S
O397 C398 1.257 . S
C398 O396 1.273 . S
C398 O397 1.257 . S
O399 Eu379 2.326 . S
O399 C387 1.242 . S
O400 Tb378 2.324 . S
O400 C387 1.258 . S
O401 Eu379 2.500 . S
O401 C384 1.273 . S
O402 Eu379 2.473 . S
O402 C384 1.257 . S
H403 C389 0.929 . S
H404 C391 0.931 . S
H405 C393 0.929 . S
O406 Tb407 2.292 . S
O406 C409 1.255 . S
Tb407 O406 2.292 . S
Tb407 O423 2.326 . S
Tb407 O425 2.500 . S
Tb407 O426 2.473 . S
Tb407 O429 2.324 . S
Eu408 O412 2.292 1_554 S
Eu408 C413 2.852 . S
Eu408 O424 2.324 . S
Eu408 O428 2.326 . S
Eu408 O430 2.500 . S
Eu408 O431 2.473 . S
C409 O406 1.255 . S
C409 O410 1.247 . S
O410 C409 1.247 . S
C411 O423 1.242 . S
C411 O424 1.258 . S
O412 Eu408 2.292 1_556 S
O412 C414 1.255 . S
C413 Eu408 2.852 . S
C413 C417 1.503 . S
C413 O430 1.273 . S
C413 O431 1.257 . S
C414 O412 1.255 . S
C414 O415 1.247 . S
O415 C414 1.247 . S
C416 O428 1.242 . S
C416 O429 1.258 . S
C417 C413 1.503 . S
C417 C418 1.379 . S
C417 C422 1.392 . S
C418 C417 1.379 . S
C418 C419 1.404 . S
C418 H432 0.929 . S
C419 C418 1.404 . S
C419 C420 1.389 . S
C420 C419 1.389 . S
C420 C421 1.399 . S
C420 H433 0.931 . S
C421 C420 1.399 . S
C421 C422 1.390 . S
C422 C417 1.392 . S
C422 C421 1.390 . S
C422 H434 0.929 1_554 S
O423 Tb407 2.326 . S
O423 C411 1.242 . S
O424 Eu408 2.324 . S
O424 C411 1.258 . S
O425 Tb407 2.500 . S
O425 C427 1.273 . S
O426 Tb407 2.473 . S
O426 C427 1.257 . S
C427 O425 1.273 . S
C427 O426 1.257 . S
O428 Eu408 2.326 . S
O428 C416 1.242 . S
O429 Tb407 2.324 . S
O429 C416 1.258 . S
O430 Eu408 2.500 . S
O430 C413 1.273 . S
O431 Eu408 2.473 . S
O431 C413 1.257 . S
H432 C418 0.929 . S
H433 C420 0.931 . S
H434 C422 0.929 1_556 S
O435 Tb436 2.292 1_554 S
O435 C438 1.255 . S
Tb436 O435 2.292 1_556 S
Tb436 O452 2.326 . S
Tb436 O454 2.500 . S
Tb436 O455 2.473 . S
Tb436 O458 2.324 . S
Eu437 O441 2.292 . S
Eu437 C442 2.852 . S
Eu437 O453 2.324 . S
Eu437 O457 2.326 . S
Eu437 O459 2.500 . S
Eu437 O460 2.473 . S
C438 O435 1.255 . S
C438 O439 1.247 . S
O439 C438 1.247 . S
C440 O452 1.242 1_554 S
C440 O453 1.258 1_554 S
O441 Eu437 2.292 . S
O441 C443 1.255 . S
C442 Eu437 2.852 . S
C442 C446 1.503 . S
C442 O459 1.273 . S
C442 O460 1.257 . S
C443 O441 1.255 . S
C443 O444 1.247 . S
O444 C443 1.247 . S
C445 O457 1.242 . S
C445 O458 1.258 . S
C446 C442 1.503 . S
C446 C447 1.379 . S
C446 C451 1.392 . S
C447 C446 1.379 . S
C447 C448 1.404 . S
C447 H461 0.929 . S
C448 C447 1.404 . S
C448 C449 1.389 . S
C449 C448 1.389 . S
C449 C450 1.399 . S
C449 H462 0.931 . S
C450 C449 1.399 . S
C450 C451 1.390 . S
C451 C446 1.392 . S
C451 C450 1.390 . S
C451 H463 0.929 . S
O452 Tb436 2.326 . S
O452 C440 1.242 1_556 S
O453 Eu437 2.324 . S
O453 C440 1.258 1_556 S
O454 Tb436 2.500 . S
O454 C456 1.273 . S
O455 Tb436 2.473 . S
O455 C456 1.257 . S
C456 O454 1.273 . S
C456 O455 1.257 . S
O457 Eu437 2.326 . S
O457 C445 1.242 . S
O458 Tb436 2.324 . S
O458 C445 1.258 . S
O459 Eu437 2.500 . S
O459 C442 1.273 . S
O460 Eu437 2.473 . S
O460 C442 1.257 . S
H461 C447 0.929 . S
H462 C449 0.931 . S
H463 C451 0.929 . S
C464 C465 1.387 . S
C464 H468 0.950 . S
C464 C473 1.390 . S
C465 C464 1.387 . S
C465 C467 1.387 . S
H466 C473 0.950 . S
C467 C465 1.387 . S
C467 C469 1.390 1_655 S
C467 H471 0.947 1_654 S
H468 C464 0.950 . S
C469 C467 1.390 1_455 S
C469 C470 1.387 . S
C469 H472 0.950 . S
C470 C469 1.387 . S
C470 C473 1.387 1_455 S
H471 C467 0.947 1_456 S
H472 C469 0.950 . S
C473 C464 1.390 . S
C473 H466 0.950 . S
C473 C470 1.387 1_655 S
C474 C475 1.387 . S
C474 H478 0.950 . S
C474 C483 1.390 1_455 S
C475 C474 1.387 . S
C475 C477 1.387 1_455 S
H476 C483 0.950 . S
C477 C475 1.387 1_655 S
C477 C479 1.390 . S
C477 H481 0.950 . S
H478 C474 0.950 . S
C479 C477 1.390 . S
C479 C480 1.387 . S
C479 H482 0.950 . S
C480 C479 1.387 . S
C480 C483 1.387 . S
H481 C477 0.950 . S
H482 C479 0.950 . S
C483 C474 1.390 1_655 S
C483 H476 0.950 . S
C483 C480 1.387 . S
C484 C485 1.387 . S
C484 H488 0.950 . S
C484 C493 1.390 . S
C485 C484 1.387 . S
C485 C487 1.387 . S
H486 C493 0.950 . S
C487 C485 1.387 . S
C487 C489 1.390 . S
C487 H491 0.950 . S
H488 C484 0.950 . S
C489 C487 1.390 . S
C489 C490 1.387 . S
C489 H492 0.950 . S
C490 C489 1.387 . S
C490 C493 1.387 . S
H491 C487 0.950 . S
H492 C489 0.950 . S
C493 C484 1.390 . S
C493 H486 0.950 . S
C493 C490 1.387 . S
C494 C495 1.387 . S
C494 H498 0.950 . S
C494 C503 1.390 . S
C495 C494 1.387 . S
C495 C497 1.387 . S
H496 C503 0.950 . S
C497 C495 1.387 . S
C497 C499 1.390 . S
C497 H501 0.950 . S
H498 C494 0.950 . S
C499 C497 1.390 . S
C499 C500 1.387 . S
C499 H502 0.950 . S
C500 C499 1.387 . S
C500 C503 1.387 . S
H501 C497 0.950 . S
H502 C499 0.950 . S
C503 C494 1.390 . S
C503 H496 0.950 . S
C503 C500 1.387 . S
C504 C505 1.387 . S
C504 H508 0.950 . S
C504 C513 1.388 . S
C505 C504 1.387 . S
C505 C507 1.387 1_655 S
H506 C513 0.948 1_554 S
C507 C505 1.387 1_455 S
C507 C509 1.390 . S
C507 H511 0.950 . S
H508 C504 0.950 . S
C509 C507 1.390 . S
C509 C510 1.387 . S
C509 H512 0.950 . S
C510 C509 1.387 . S
C510 C513 1.391 1_455 S
H511 C507 0.950 . S
H512 C509 0.950 . S
C513 C504 1.388 . S
C513 H506 0.948 1_556 S
C513 C510 1.391 1_655 S
C514 C515 1.387 . S
C514 H518 0.950 . S
C514 C523 1.390 1_455 S
C515 C514 1.387 . S
C515 C517 1.387 . S
H516 C523 0.950 . S
C517 C515 1.387 . S
C517 C519 1.390 1_455 S
C517 H521 0.950 . S
H518 C514 0.950 . S
C519 C517 1.390 1_655 S
C519 C520 1.387 . S
C519 H522 0.950 . S
C520 C519 1.387 . S
C520 C523 1.387 . S
H521 C517 0.950 . S
H522 C519 0.950 . S
C523 C514 1.390 1_655 S
C523 H516 0.950 . S
C523 C520 1.387 . S
C524 C525 1.387 . S
C524 H528 0.950 . S
C524 C533 1.390 . S
C525 C524 1.387 . S
C525 C527 1.387 . S
H526 C533 0.950 . S
C527 C525 1.387 . S
C527 C529 1.390 . S
C527 H531 0.950 . S
H528 C524 0.950 . S
C529 C527 1.390 . S
C529 C530 1.387 . S
C529 H532 0.950 . S
C530 C529 1.387 . S
C530 C533 1.387 . S
H531 C527 0.950 . S
H532 C529 0.950 . S
C533 C524 1.390 . S
C533 H526 0.950 . S
C533 C530 1.387 . S
C534 C535 1.387 . S
C534 H538 0.950 . S
C534 C543 1.390 . S
C535 C534 1.387 . S
C535 C537 1.387 . S
H536 C543 0.950 . S
C537 C535 1.387 . S
C537 C539 1.390 . S
C537 H541 0.950 . S
H538 C534 0.950 . S
C539 C537 1.390 . S
C539 C540 1.387 . S
C539 H542 0.950 . S
C540 C539 1.387 . S
C540 C543 1.387 . S
H541 C537 0.950 . S
H542 C539 0.950 . S
C543 C534 1.390 . S
C543 H536 0.950 . S
C543 C540 1.387 . S
C544 C545 1.387 . S
C544 H548 0.950 . S
C544 C553 1.390 . S
C545 C544 1.387 . S
C545 C547 1.387 . S
H546 C553 0.950 . S
C547 C545 1.387 . S
C547 C549 1.390 1_556 S
C547 H551 0.947 1_556 S
H548 C544 0.950 . S
C549 C547 1.390 1_554 S
C549 C550 1.387 1_554 S
C549 H552 0.950 . S
C550 C549 1.387 1_556 S
C550 C553 1.387 . S
H551 C547 0.947 1_554 S
H552 C549 0.950 . S
C553 C544 1.390 . S
C553 H546 0.950 . S
C553 C550 1.387 . S
C554 C555 1.387 . S
C554 H558 0.950 . S
C554 C563 1.390 1_565 S
C555 C554 1.387 . S
C555 C557 1.387 . S
H556 C563 0.950 . S
C557 C555 1.387 . S
C557 C559 1.390 1_565 S
C557 H561 0.950 . S
H558 C554 0.950 . S
C559 C557 1.390 1_545 S
C559 C560 1.387 . S
C559 H562 0.950 . S
C560 C559 1.387 . S
C560 C563 1.387 . S
H561 C557 0.950 . S
H562 C559 0.950 . S
C563 C554 1.390 1_545 S
C563 H556 0.950 . S
C563 C560 1.387 . S
C564 C565 1.387 . S
C564 H568 0.950 . S
C564 C573 1.390 . S
C565 C564 1.387 . S
C565 C567 1.387 . S
H566 C573 0.950 . S
C567 C565 1.387 . S
C567 C569 1.390 . S
C567 H571 0.950 . S
H568 C564 0.950 . S
C569 C567 1.390 . S
C569 C570 1.387 . S
C569 H572 0.950 . S
C570 C569 1.387 . S
C570 C573 1.387 . S
H571 C567 0.950 . S
H572 C569 0.950 . S
C573 C564 1.390 . S
C573 H566 0.950 . S
C573 C570 1.387 . S
C574 C575 1.387 . S
C574 H578 0.950 . S
C574 C583 1.390 1_565 S
C575 C574 1.387 . S
C575 C577 1.386 . S
H576 C583 0.950 . S
C577 C575 1.386 . S
C577 C579 1.391 1_565 S
C577 H581 0.950 . S
H578 C574 0.950 . S
C579 C577 1.391 1_545 S
C579 C580 1.387 . S
C579 H582 0.950 . S
C580 C579 1.387 . S
C580 C583 1.387 . S
H581 C577 0.950 . S
H582 C579 0.950 . S
C583 C574 1.390 1_545 S
C583 H576 0.950 . S
C583 C580 1.387 . S
C584 C585 1.387 1_554 S
C584 H588 0.950 . S
C584 C593 1.390 . S
C585 C584 1.387 1_556 S
C585 C587 1.387 . S
H586 C593 0.950 . S
C587 C585 1.387 . S
C587 C589 1.390 . S
C587 H591 0.950 . S
H588 C584 0.950 . S
C589 C587 1.390 . S
C589 C590 1.387 . S
C589 H592 0.950 . S
C590 C589 1.387 . S
C590 C593 1.387 1_556 S
H591 C587 0.950 . S
H592 C589 0.950 . S
C593 C584 1.390 . S
C593 H586 0.950 . S
C593 C590 1.387 1_554 S
C594 C595 1.387 . S
C594 H598 0.950 . S
C594 C603 1.390 1_565 S
C595 C594 1.387 . S
C595 C597 1.387 . S
H596 C603 0.950 . S
C597 C595 1.387 . S
C597 C599 1.355 1_565 S
C597 H601 0.950 . S
H598 C594 0.950 . S
C599 C597 1.355 1_545 S
C599 C600 1.415 . S
C599 H602 0.959 . S
C600 C599 1.415 . S
C600 C603 1.387 . S
H601 C597 0.950 . S
H602 C599 0.959 . S
C603 C594 1.390 1_545 S
C603 H596 0.950 . S
C603 C600 1.387 . S
C604 C605 1.387 . S
C604 H608 0.950 . S
C604 C613 1.390 . S
C605 C604 1.387 . S
C605 C607 1.387 . S
H606 C613 0.950 . S
C607 C605 1.387 . S
C607 C609 1.390 . S
C607 H611 0.950 . S
H608 C604 0.950 . S
C609 C607 1.390 . S
C609 C610 1.387 . S
C609 H612 0.950 . S
C610 C609 1.387 . S
C610 C613 1.387 . S
H611 C607 0.950 . S
H612 C609 0.950 . S
C613 C604 1.390 . S
C613 H606 0.950 . S
C613 C610 1.387 . S
C614 C615 1.387 . S
C614 H618 0.950 . S
C614 C623 1.390 1_565 S
C615 C614 1.387 . S
C615 C617 1.387 . S
H616 C623 0.950 . S
C617 C615 1.387 . S
C617 C619 1.390 1_565 S
C617 H621 0.950 . S
H618 C614 0.950 . S
C619 C617 1.390 1_545 S
C619 C620 1.387 . S
C619 H622 0.950 . S
C620 C619 1.387 . S
C620 C623 1.387 . S
H621 C617 0.950 . S
H622 C619 0.950 . S
C623 C614 1.390 1_545 S
C623 H616 0.950 . S
C623 C620 1.387 . S
C624 C625 1.387 . S
C624 H628 0.950 . S
C624 C633 1.390 . S
C625 C624 1.387 . S
C625 C627 1.387 . S
H626 C633 0.950 . S
C627 C625 1.387 . S
C627 C629 1.390 . S
C627 H631 0.950 . S
H628 C624 0.950 . S
C629 C627 1.390 . S
C629 C630 1.387 . S
C629 H632 0.950 . S
C630 C629 1.387 . S
C630 C633 1.387 . S
H631 C627 0.950 . S
H632 C629 0.950 . S
C633 C624 1.390 . S
C633 H626 0.950 . S
C633 C630 1.387 . S
C634 C635 1.387 . S
C634 H638 0.950 . S
C634 C643 1.390 . S
C635 C634 1.387 . S
C635 C637 1.387 . S
H636 C643 0.950 . S
C637 C635 1.387 . S
C637 C639 1.390 . S
C637 H641 0.950 . S
H638 C634 0.950 . S
C639 C637 1.390 . S
C639 C640 1.387 . S
C639 H642 0.950 . S
C640 C639 1.387 . S
C640 C643 1.387 . S
H641 C637 0.950 . S
H642 C639 0.950 . S
C643 C634 1.390 . S
C643 H636 0.950 . S
C643 C640 1.387 . S
C644 C645 1.387 . S
C644 H648 0.950 . S
C644 C653 1.390 . S
C645 C644 1.387 . S
C645 C647 1.387 . S
H646 C653 0.950 . S
C647 C645 1.387 . S
C647 C649 1.390 . S
C647 H651 0.950 . S
H648 C644 0.950 . S
C649 C647 1.390 . S
C649 C650 1.387 . S
C649 H652 0.950 . S
C650 C649 1.387 . S
C650 C653 1.387 . S
H651 C647 0.950 . S
H652 C649 0.950 . S
C653 C644 1.390 . S
C653 H646 0.950 . S
C653 C650 1.387 . S
C654 C655 1.387 . S
C654 H658 0.950 . S
C654 C663 1.390 . S
C655 C654 1.387 . S
C655 C657 1.387 . S
H656 C663 0.950 . S
C657 C655 1.387 . S
C657 C659 1.390 . S
C657 H661 0.950 . S
H658 C654 0.950 . S
C659 C657 1.390 . S
C659 C660 1.387 . S
C659 H662 0.950 . S
C660 C659 1.387 . S
C660 C663 1.387 . S
H661 C657 0.950 . S
H662 C659 0.950 . S
C663 C654 1.390 . S
C663 H656 0.950 . S
C663 C660 1.387 . S
C664 C665 1.387 . S
C664 H668 0.950 . S
C664 C673 1.390 . S
C665 C664 1.387 . S
C665 C667 1.387 . S
H666 C673 0.950 . S
C667 C665 1.387 . S
C667 C669 1.390 . S
C667 H671 0.950 . S
H668 C664 0.950 . S
C669 C667 1.390 . S
C669 C670 1.387 . S
C669 H672 0.950 . S
C670 C669 1.387 . S
C670 C673 1.387 . S
H671 C667 0.950 . S
H672 C669 0.950 . S
C673 C664 1.390 . S
C673 H666 0.950 . S
C673 C670 1.387 . S
C674 C675 1.387 . S
C674 H678 0.950 . S
C674 C683 1.390 . S
C675 C674 1.387 . S
C675 C677 1.387 . S
H676 C683 0.950 . S
C677 C675 1.387 . S
C677 C679 1.390 . S
C677 H681 0.950 . S
H678 C674 0.950 . S
C679 C677 1.390 . S
C679 C680 1.387 . S
C679 H682 0.950 . S
C680 C679 1.387 . S
C680 C683 1.387 . S
H681 C677 0.950 . S
H682 C679 0.950 . S
C683 C674 1.390 . S
C683 H676 0.950 . S
C683 C680 1.387 . S
C684 C685 1.387 . S
C684 H688 0.950 . S
C684 C693 1.390 . S
C685 C684 1.387 . S
C685 C687 1.387 . S
H686 C693 0.950 . S
C687 C685 1.387 . S
C687 C689 1.390 . S
C687 H691 0.950 1_554 S
H688 C684 0.950 . S
C689 C687 1.390 . S
C689 C690 1.387 . S
C689 H692 0.950 . S
C690 C689 1.387 . S
C690 C693 1.387 . S
H691 C687 0.950 1_556 S
H692 C689 0.950 . S
C693 C684 1.390 . S
C693 H686 0.950 . S
C693 C690 1.387 . S
C694 C695 1.387 . S
C694 H698 0.950 . S
C694 C703 1.390 . S
C695 C694 1.387 . S
C695 C697 1.387 . S
H696 C703 0.950 . S
C697 C695 1.387 . S
C697 C699 1.390 . S
C697 H701 0.950 . S
H698 C694 0.950 . S
C699 C697 1.390 . S
C699 C700 1.387 . S
C699 H702 0.950 . S
C700 C699 1.387 . S
C700 C703 1.387 . S
H701 C697 0.950 . S
H702 C699 0.950 . S
C703 C694 1.390 . S
C703 H696 0.950 . S
C703 C700 1.387 . S
C704 C705 1.387 . S
C704 H708 0.950 . S
C704 C713 1.390 . S
C705 C704 1.387 . S
C705 C707 1.387 . S
H706 C713 0.950 . S
C707 C705 1.387 . S
C707 C709 1.390 . S
C707 H711 0.950 . S
H708 C704 0.950 . S
C709 C707 1.390 . S
C709 C710 1.387 . S
C709 H712 0.950 . S
C710 C709 1.387 . S
C710 C713 1.387 . S
H711 C707 0.950 . S
H712 C709 0.950 . S
C713 C704 1.390 . S
C713 H706 0.950 . S
C713 C710 1.387 . S
C714 C715 1.387 . S
C714 H718 0.950 . S
C714 C723 1.390 . S
C715 C714 1.387 . S
C715 C717 1.387 . S
H716 C723 0.950 1_655 S
C717 C715 1.387 . S
C717 C719 1.390 1_455 S
C717 H721 0.950 . S
H718 C714 0.950 . S
C719 C717 1.390 1_655 S
C719 C720 1.387 . S
C719 H722 0.950 . S
C720 C719 1.387 . S
C720 C723 1.387 1_655 S
H721 C717 0.950 . S
H722 C719 0.950 . S
C723 C714 1.390 . S
C723 H716 0.950 1_455 S
C723 C720 1.387 1_455 S
C724 C725 1.387 . S
C724 H728 0.950 . S
C724 C733 1.390 . S
C725 C724 1.387 . S
C725 C727 1.387 . S
H726 C733 0.950 . S
C727 C725 1.387 . S
C727 C729 1.390 . S
C727 H731 0.950 . S
H728 C724 0.950 . S
C729 C727 1.390 . S
C729 C730 1.387 . S
C729 H732 0.950 . S
C730 C729 1.387 . S
C730 C733 1.387 . S
H731 C727 0.950 . S
H732 C729 0.950 . S
C733 C724 1.390 . S
C733 H726 0.950 . S
C733 C730 1.387 . S
C734 C735 1.387 . S
C734 H738 0.950 . S
C734 C743 1.390 . S
C735 C734 1.387 . S
C735 C737 1.387 . S
H736 C743 0.950 . S
C737 C735 1.387 . S
C737 C739 1.390 . S
C737 H741 0.950 . S
H738 C734 0.950 . S
C739 C737 1.390 . S
C739 C740 1.387 . S
C739 H742 0.950 . S
C740 C739 1.387 . S
C740 C743 1.387 . S
H741 C737 0.950 . S
H742 C739 0.950 . S
C743 C734 1.390 . S
C743 H736 0.950 . S
C743 C740 1.387 . S
C744 C745 1.387 . S
C744 H748 0.950 . S
C744 C753 1.390 . S
C745 C744 1.387 . S
C745 C747 1.387 . S
H746 C753 0.950 . S
C747 C745 1.387 . S
C747 C749 1.390 . S
C747 H751 0.950 . S
H748 C744 0.950 . S
C749 C747 1.390 . S
C749 C750 1.387 . S
C749 H752 0.950 . S
C750 C749 1.387 . S
C750 C753 1.387 . S
H751 C747 0.950 . S
H752 C749 0.950 . S
C753 C744 1.390 . S
C753 H746 0.950 . S
C753 C750 1.387 . S
C754 C755 1.387 . S
C754 H758 0.950 1_556 S
C754 C763 1.390 . S
C755 C754 1.387 . S
C755 C757 1.387 . S
H756 C763 0.950 . S
C757 C755 1.387 . S
C757 C759 1.390 . S
C757 H761 0.950 . S
H758 C754 0.950 1_554 S
C759 C757 1.390 . S
C759 C760 1.387 . S
C759 H762 0.950 . S
C760 C759 1.387 . S
C760 C763 1.387 . S
H761 C757 0.950 . S
H762 C759 0.950 . S
C763 C754 1.390 . S
C763 H756 0.950 . S
C763 C760 1.387 . S
C764 C765 1.387 . S
C764 H768 0.950 . S
C764 C773 1.390 . S
C765 C764 1.387 . S
C765 C767 1.387 . S
H766 C773 0.950 . S
C767 C765 1.387 . S
C767 C769 1.390 . S
C767 H771 0.950 . S
H768 C764 0.950 . S
C769 C767 1.390 . S
C769 C770 1.387 . S
C769 H772 0.950 . S
C770 C769 1.387 . S
C770 C773 1.387 . S
H771 C767 0.950 . S
H772 C769 0.950 . S
C773 C764 1.390 . S
C773 H766 0.950 . S
C773 C770 1.387 . S
C774 C775 1.387 . S
C774 H778 0.950 . S
C774 C783 1.390 1_655 S
C775 C774 1.387 . S
C775 C777 1.387 . S
H776 C783 0.950 . S
C777 C775 1.387 . S
C777 C779 1.390 1_655 S
C777 H781 0.950 . S
H778 C774 0.950 . S
C779 C777 1.390 1_455 S
C779 C780 1.387 . S
C779 H782 0.950 . S
C780 C779 1.387 . S
C780 C783 1.387 . S
H781 C777 0.950 . S
H782 C779 0.950 . S
C783 C774 1.390 1_455 S
C783 H776 0.950 . S
C783 C780 1.387 . S
C784 C785 1.387 . S
C784 H788 0.950 . S
C784 C793 1.390 . S
C785 C784 1.387 . S
C785 C787 1.387 . S
H786 C793 0.950 . S
C787 C785 1.387 . S
C787 C789 1.390 . S
C787 H791 0.950 . S
H788 C784 0.950 . S
C789 C787 1.390 . S
C789 C790 1.387 . S
C789 H792 0.950 . S
C790 C789 1.387 . S
C790 C793 1.387 . S
H791 C787 0.950 . S
H792 C789 0.950 . S
C793 C784 1.390 . S
C793 H786 0.950 . S
C793 C790 1.387 . S
C794 C795 1.387 . S
C794 H798 0.950 . S
C794 C803 1.390 1_455 S
C795 C794 1.387 . S
C795 C797 1.387 1_455 S
H796 C803 0.950 . S
C797 C795 1.387 1_655 S
C797 C799 1.390 . S
C797 H801 0.942 1_655 S
H798 C794 0.950 . S
C799 C797 1.390 . S
C799 C800 1.387 . S
C799 H802 0.950 . S
C800 C799 1.387 . S
C800 C803 1.387 . S
H801 C797 0.942 1_455 S
H802 C799 0.950 . S
C803 C794 1.390 1_655 S
C803 H796 0.950 . S
C803 C800 1.387 . S
C804 C805 1.387 . S
C804 H808 0.950 . S
C804 C813 1.390 . S
C805 C804 1.387 . S
C805 C807 1.387 . S
H806 C813 0.950 . S
C807 C805 1.387 . S
C807 C809 1.390 . S
C807 H811 0.950 . S
H808 C804 0.950 . S
C809 C807 1.390 . S
C809 C810 1.387 . S
C809 H812 0.950 . S
C810 C809 1.387 . S
C810 C813 1.387 . S
H811 C807 0.950 . S
H812 C809 0.950 . S
C813 C804 1.390 . S
C813 H806 0.950 . S
C813 C810 1.387 . S
C814 C815 1.387 . S
C814 H818 0.950 . S
C814 C823 1.390 . S
C815 C814 1.387 . S
C815 C817 1.387 . S
H816 C823 0.950 . S
C817 C815 1.387 . S
C817 C819 1.390 . S
C817 H821 0.950 . S
H818 C814 0.950 . S
C819 C817 1.390 . S
C819 C820 1.387 . S
C819 H822 0.950 . S
C820 C819 1.387 . S
C820 C823 1.387 . S
H821 C817 0.950 . S
H822 C819 0.950 . S
C823 C814 1.390 . S
C823 H816 0.950 . S
C823 C820 1.387 . S
C824 C825 1.387 . S
C824 H828 0.950 . S
C824 C833 1.390 . S
C825 C824 1.387 . S
C825 C827 1.387 . S
H826 C833 0.950 . S
C827 C825 1.387 . S
C827 C829 1.390 . S
C827 H831 0.950 . S
H828 C824 0.950 . S
C829 C827 1.390 . S
C829 C830 1.387 . S
C829 H832 0.950 . S
C830 C829 1.387 . S
C830 C833 1.387 . S
H831 C827 0.950 . S
H832 C829 0.950 . S
C833 C824 1.390 . S
C833 H826 0.950 . S
C833 C830 1.387 . S
C834 C835 1.387 . S
C834 H838 0.950 . S
C834 C843 1.390 . S
C835 C834 1.387 . S
C835 C837 1.387 . S
H836 C843 0.950 . S
C837 C835 1.387 . S
C837 C839 1.390 . S
C837 H841 0.950 1_554 S
H838 C834 0.950 . S
C839 C837 1.390 . S
C839 C840 1.387 . S
C839 H842 0.950 . S
C840 C839 1.387 . S
C840 C843 1.387 . S
H841 C837 0.950 1_556 S
H842 C839 0.950 . S
C843 C834 1.390 . S
C843 H836 0.950 . S
C843 C840 1.387 . S
C844 C845 1.387 . S
C844 H848 0.950 . S
C844 C853 1.390 . S
C845 C844 1.387 . S
C845 C847 1.387 . S
H846 C853 0.950 . S
C847 C845 1.387 . S
C847 C849 1.390 . S
C847 H851 0.950 . S
H848 C844 0.950 . S
C849 C847 1.390 . S
C849 C850 1.387 . S
C849 H852 0.950 . S
C850 C849 1.387 . S
C850 C853 1.387 . S
H851 C847 0.950 . S
H852 C849 0.950 . S
C853 C844 1.390 . S
C853 H846 0.950 . S
C853 C850 1.387 . S
C854 C855 1.387 . S
C854 H858 0.950 . S
C854 C863 1.390 . S
C855 C854 1.387 . S
C855 C857 1.379 1_655 S
H856 C863 0.950 . S
C857 C855 1.379 1_455 S
C857 C859 1.396 . S
C857 H861 0.952 . S
H858 C854 0.950 . S
C859 C857 1.396 . S
C859 C860 1.387 . S
C859 H862 0.950 . S
C860 C859 1.387 . S
C860 C863 1.387 1_455 S
H861 C857 0.952 . S
H862 C859 0.950 . S
C863 C854 1.390 . S
C863 H856 0.950 . S
C863 C860 1.387 1_655 S
C864 C865 1.387 . S
C864 H868 0.950 . S
C864 C873 1.390 . S
C865 C864 1.387 . S
C865 C867 1.387 . S
H866 C873 0.950 . S
C867 C865 1.387 . S
C867 C869 1.390 . S
C867 H871 0.950 . S
H868 C864 0.950 . S
C869 C867 1.390 . S
C869 C870 1.387 . S
C869 H872 0.950 . S
C870 C869 1.387 . S
C870 C873 1.387 . S
H871 C867 0.950 . S
H872 C869 0.950 . S
C873 C864 1.390 . S
C873 H866 0.950 . S
C873 C870 1.387 . S
C874 C875 1.387 . S
C874 H878 0.950 . S
C874 C883 1.390 . S
C875 C874 1.387 . S
C875 C877 1.387 . S
H876 C883 0.950 . S
C877 C875 1.387 . S
C877 C879 1.390 . S
C877 H881 0.950 . S
H878 C874 0.950 . S
C879 C877 1.390 . S
C879 C880 1.387 . S
C879 H882 0.950 . S
C880 C879 1.387 . S
C880 C883 1.387 . S
H881 C877 0.950 . S
H882 C879 0.950 . S
C883 C874 1.390 . S
C883 H876 0.950 . S
C883 C880 1.387 . S
C884 C885 1.387 . S
C884 H888 0.950 . S
C884 C893 1.390 . S
C885 C884 1.387 . S
C885 C887 1.387 . S
H886 C893 0.950 . S
C887 C885 1.387 . S
C887 C889 1.390 . S
C887 H891 0.950 . S
H888 C884 0.950 . S
C889 C887 1.390 . S
C889 C890 1.387 . S
C889 H892 0.950 . S
C890 C889 1.387 . S
C890 C893 1.387 . S
H891 C887 0.950 . S
H892 C889 0.950 . S
C893 C884 1.390 . S
C893 H886 0.950 . S
C893 C890 1.387 . S
C894 C895 1.387 1_655 S
C894 H898 0.950 . S
C894 C903 1.390 . S
C895 C894 1.387 1_455 S
C895 C897 1.387 . S
H896 C903 0.950 . S
C897 C895 1.387 . S
C897 C899 1.390 1_455 S
C897 H901 0.950 . S
H898 C894 0.950 . S
C899 C897 1.390 1_655 S
C899 C900 1.387 . S
C899 H902 0.950 1_554 S
C900 C899 1.387 . S
C900 C903 1.387 . S
H901 C897 0.950 . S
H902 C899 0.950 1_556 S
C903 C894 1.390 . S
C903 H896 0.950 . S
C903 C900 1.387 . S
C904 C905 1.387 . S
C904 H908 0.950 . S
C904 C913 1.390 . S
C905 C904 1.387 . S
C905 C907 1.387 . S
H906 C913 0.950 . S
C907 C905 1.387 . S
C907 C909 1.390 . S
C907 H911 0.950 . S
H908 C904 0.950 . S
C909 C907 1.390 . S
C909 C910 1.387 . S
C909 H912 0.950 . S
C910 C909 1.387 . S
C910 C913 1.387 . S
H911 C907 0.950 . S
H912 C909 0.950 . S
C913 C904 1.390 . S
C913 H906 0.950 . S
C913 C910 1.387 . S
C914 C915 1.387 . S
C914 H918 0.950 . S
C914 C923 1.390 1_655 S
C915 C914 1.387 . S
C915 C917 1.387 . S
H916 C923 0.950 . S
C917 C915 1.387 . S
C917 C919 1.390 1_655 S
C917 H921 0.950 . S
H918 C914 0.950 . S
C919 C917 1.390 1_455 S
C919 C920 1.387 . S
C919 H922 0.950 . S
C920 C919 1.387 . S
C920 C923 1.387 . S
H921 C917 0.950 . S
H922 C919 0.950 . S
C923 C914 1.390 1_455 S
C923 H916 0.950 . S
C923 C920 1.387 . S
C924 C925 1.387 . S
C924 H928 0.950 . S
C924 C933 1.390 . S
C925 C924 1.387 . S
C925 C927 1.387 . S
H926 C933 0.950 . S
C927 C925 1.387 . S
C927 C929 1.390 . S
C927 H931 0.950 . S
H928 C924 0.950 . S
C929 C927 1.390 . S
C929 C930 1.387 . S
C929 H932 0.950 . S
C930 C929 1.387 . S
C930 C933 1.387 . S
H931 C927 0.950 . S
H932 C929 0.950 . S
C933 C924 1.390 . S
C933 H926 0.950 . S
C933 C930 1.387 . S
C934 C935 1.387 . S
C934 H938 0.950 . S
C934 C943 1.390 . S
C935 C934 1.387 . S
C935 C937 1.387 . S
H936 C943 0.950 . S
C937 C935 1.387 . S
C937 C939 1.390 . S
C937 H941 0.950 . S
H938 C934 0.950 . S
C939 C937 1.390 . S
C939 C940 1.387 . S
C939 H942 0.950 . S
C940 C939 1.387 . S
C940 C943 1.387 . S
H941 C937 0.950 . S
H942 C939 0.950 . S
C943 C934 1.390 . S
C943 H936 0.950 . S
C943 C940 1.387 . S
C944 C945 1.387 . S
C944 H948 0.950 . S
C944 C953 1.390 . S
C945 C944 1.387 . S
C945 C947 1.387 . S
H946 C953 0.950 . S
C947 C945 1.387 . S
C947 C949 1.390 . S
C947 H951 0.950 . S
H948 C944 0.950 . S
C949 C947 1.390 . S
C949 C950 1.387 . S
C949 H952 0.950 . S
C950 C949 1.387 . S
C950 C953 1.387 . S
H951 C947 0.950 . S
H952 C949 0.950 . S
C953 C944 1.390 . S
C953 H946 0.950 . S
C953 C950 1.387 . S
C954 C955 1.387 . S
C954 H958 0.950 . S
C954 C963 1.390 . S
C955 C954 1.387 . S
C955 C957 1.387 . S
H956 C963 0.950 . S
C957 C955 1.387 . S
C957 C959 1.390 . S
C957 H961 0.950 . S
H958 C954 0.950 . S
C959 C957 1.390 . S
C959 C960 1.387 . S
C959 H962 0.950 . S
C960 C959 1.387 . S
C960 C963 1.387 . S
H961 C957 0.950 . S
H962 C959 0.950 . S
C963 C954 1.390 . S
C963 H956 0.950 . S
C963 C960 1.387 . S
C964 C965 1.387 . S
C964 H968 0.950 . S
C964 C973 1.390 . S
C965 C964 1.387 . S
C965 C967 1.387 . S
H966 C973 0.950 . S
C967 C965 1.387 . S
C967 C969 1.390 . S
C967 H971 0.950 . S
H968 C964 0.950 . S
C969 C967 1.390 . S
C969 C970 1.387 . S
C969 H972 0.950 . S
C970 C969 1.387 . S
C970 C973 1.387 . S
H971 C967 0.950 . S
H972 C969 0.950 . S
C973 C964 1.390 . S
C973 H966 0.950 . S
C973 C970 1.387 . S
C974 C975 1.387 . S
C974 H978 0.950 . S
C974 C983 1.390 . S
C975 C974 1.387 . S
C975 C977 1.387 . S
H976 C983 0.950 1_655 S
C977 C975 1.387 . S
C977 C979 1.390 . S
C977 H981 0.950 . S
H978 C974 0.950 . S
C979 C977 1.390 . S
C979 C980 1.404 . S
C979 H982 0.950 . S
C980 C979 1.404 . S
C980 C983 1.389 . S
H981 C977 0.950 . S
H982 C979 0.950 . S
C983 C974 1.390 . S
C983 H976 0.950 1_455 S
C983 C980 1.389 . S
C984 C985 1.387 . S
C984 H988 0.950 . S
C984 C993 1.390 . S
C985 C984 1.387 . S
C985 C987 1.387 . S
H986 C993 0.950 . S
C987 C985 1.387 . S
C987 C989 1.390 . S
C987 H991 0.950 . S
H988 C984 0.950 . S
C989 C987 1.390 . S
C989 C990 1.387 . S
C989 H992 0.950 . S
C990 C989 1.387 . S
C990 C993 1.387 . S
H991 C987 0.950 . S
H992 C989 0.950 . S
C993 C984 1.390 . S
C993 H986 0.950 . S
C993 C990 1.387 . S
C994 C995 1.387 1_455 S
C994 H998 0.950 . S
C994 C1003 1.390 . S
C995 C994 1.387 1_655 S
C995 C997 1.387 1_655 S
H996 C1003 0.950 . S
C997 C995 1.387 1_455 S
C997 C999 1.390 . S
C997 H1001 0.950 1_455 S
H998 C994 0.950 . S
C999 C997 1.390 . S
C999 C1000 1.387 . S
C999 H1002 0.950 . S
C1000 C999 1.387 . S
C1000 C1003 1.387 . S
H1001 C997 0.950 1_655 S
H1002 C999 0.950 . S
C1003 C994 1.390 . S
C1003 H996 0.950 . S
C1003 C1000 1.387 . S
C1004 C1005 1.387 . S
C1004 H1008 0.950 . S
C1004 C1013 1.390 . S
C1005 C1004 1.387 . S
C1005 C1007 1.387 . S
H1006 C1013 0.950 . S
C1007 C1005 1.387 . S
C1007 C1009 1.390 . S
C1007 H1011 0.950 . S
H1008 C1004 0.950 . S
C1009 C1007 1.390 . S
C1009 C1010 1.387 . S
C1009 H1012 0.950 . S
C1010 C1009 1.387 . S
C1010 C1013 1.387 . S
H1011 C1007 0.950 . S
H1012 C1009 0.950 . S
C1013 C1004 1.390 . S
C1013 H1006 0.950 . S
C1013 C1010 1.387 . S
C1014 C1015 1.387 . S
C1014 H1018 0.950 . S
C1014 C1023 1.390 . S
C1015 C1014 1.387 . S
C1015 C1017 1.387 . S
H1016 C1023 0.950 . S
C1017 C1015 1.387 . S
C1017 C1019 1.390 . S
C1017 H1021 0.950 . S
H1018 C1014 0.950 . S
C1019 C1017 1.390 . S
C1019 C1020 1.387 . S
C1019 H1022 0.950 . S
C1020 C1019 1.387 . S
C1020 C1023 1.387 . S
H1021 C1017 0.950 . S
H1022 C1019 0.950 . S
C1023 C1014 1.390 . S
C1023 H1016 0.950 . S
C1023 C1020 1.387 . S
C465 C224 0.470 . S
C470 C21 0.643 . S
C475 C137 0.526 . S
C480 C50 0.596 . S
C485 C166 0.511 . S
C490 C79 0.573 . S
C495 C195 0.623 . S
C500 C108 0.551 . S
C505 C253 0.575 . S
C510 C456 0.599 . S
C515 C282 0.221 . S
C520 C369 0.229 . S
C525 C398 0.474 . S
C530 C311 0.496 . S
C535 C427 0.527 . S
C540 C340 0.595 . S
C545 C187 2.424 . S
C550 C15 2.356 1_556 S
C555 C44 2.742 . S
C560 C218 2.721 . S
C565 C131 2.304 . S
C570 C71 2.391 . S
C575 C158 2.382 . S
C580 C100 2.358 . S
C585 C247 2.541 . S
C590 C421 2.516 1_556 S
C595 C450 2.695 . S
C600 C276 2.713 . S
C605 C303 2.363 . S
C610 C361 2.336 . S
C615 C334 2.299 . S
C620 C390 2.375 . S
C625 C42 2.690 . S
C630 C160 2.614 . S
C635 C189 2.489 . S
C640 C73 2.505 . S
C645 C102 2.143 1_554 S
C650 C216 2.229 . S
C655 C129 2.577 . S
C660 C13 2.597 . S
C665 C392 2.419 . S
C670 C274 2.498 . S
C675 C305 2.726 . S
C680 C419 2.779 . S
C685 C448 2.361 1_554 S
C690 C332 2.339 . S
C695 C245 2.357 . S
C700 C363 2.294 . S
C705 C271 1.689 . S
C710 C8 1.590 . S
C715 C440 1.727 . S
C720 C37 1.566 . S
C725 C61 2.200 . S
C730 C329 2.046 . S
C735 C387 1.581 . S
C740 C90 1.724 . S
C745 C445 1.697 . S
C750 C124 1.601 . S
C755 C324 1.896 1_556 S
C760 C148 1.928 . S
C765 C177 2.036 . S
C770 C382 2.006 . S
C775 C211 1.283 . S
C780 C266 1.394 . S
C785 C39 1.610 . S
C790 C240 1.554 . S
C795 C269 1.756 . S
C800 C208 1.924 . S
C805 C92 2.054 . S
C810 C293 2.080 . S
C815 C327 1.524 . S
C820 C155 1.604 . S
C825 C213 1.475 . S
C830 C351 1.600 . S
C835 C97 2.020 1_554 S
C840 C380 2.181 . S
C845 C414 1.732 . S
C850 C150 1.927 . S
C855 C34 1.625 . S
C860 C443 1.484 . S
C865 C411 1.499 . S
C870 C153 1.332 . S
C875 C295 1.804 . S
C880 C182 1.651 . S
C885 C206 2.304 . S
C890 C358 2.172 . S
C895 C119 1.851 . S
C900 C242 1.702 1_554 S
C905 C300 1.567 . S
C910 C95 1.465 . S
C915 C353 1.757 . S
C920 C3 1.797 . S
C925 C237 1.935 . S
C930 C32 1.966 . S
C935 C416 1.578 1_556 S
C940 C66 1.580 . S
C945 C184 1.444 . S
C950 C385 1.386 . S
C955 C63 1.818 . S
C960 C409 1.859 . S
C965 C121 1.935 . S
C970 C438 1.961 . S
C975 C10 1.801 . S
C980 C356 1.703 1_455 S
C985 C68 1.640 . S
C990 C322 1.770 . S
C995 C235 2.055 . S
C1000 C126 1.891 . S
C1005 C5 1.836 . S
C1010 C264 1.865 . S
C1015 C179 1.468 . S
C1020 C298 1.336 . S
