# Generated by pormake.
# Topology wmi, (6)-cn, num edge types: 1
# Building blocks:
#     Node 0, Type 0, BuildingBlock: LEVNOQ01_clean_sbu_1, # of connection points: 6
#     Node 1, Type 0, BuildingBlock: LEVNOQ01_clean_sbu_1, # of connection points: 6
#     Node 2, Type 0, BuildingBlock: LEVNOQ01_clean_sbu_1, # of connection points: 6
#     Node 3, Type 0, BuildingBlock: LEVNOQ01_clean_sbu_1, # of connection points: 6
#     Node 4, Type 0, BuildingBlock: LEVNOQ01_clean_sbu_1, # of connection points: 6
#     Node 5, Type 0, BuildingBlock: LEVNOQ01_clean_sbu_1, # of connection points: 6
#     Node 6, Type 0, BuildingBlock: LEVNOQ01_clean_sbu_1, # of connection points: 6
#     Node 7, Type 0, BuildingBlock: LEVNOQ01_clean_sbu_1, # of connection points: 6
#     Node 8, Type 0, BuildingBlock: LEVNOQ01_clean_sbu_1, # of connection points: 6
#     Node 9, Type 0, BuildingBlock: LEVNOQ01_clean_sbu_1, # of connection points: 6
#     Node 10, Type 0, BuildingBlock: LEVNOQ01_clean_sbu_1, # of connection points: 6
#     Node 11, Type 0, BuildingBlock: LEVNOQ01_clean_sbu_1, # of connection points: 6
#     Node 12, Type 0, BuildingBlock: LEVNOQ01_clean_sbu_1, # of connection points: 6
#     Node 13, Type 0, BuildingBlock: LEVNOQ01_clean_sbu_1, # of connection points: 6
#     Node 14, Type 0, BuildingBlock: LEVNOQ01_clean_sbu_1, # of connection points: 6
#     Node 15, Type 0, BuildingBlock: LEVNOQ01_clean_sbu_1, # of connection points: 6
#     Node 16, Type 0, BuildingBlock: LEVNOQ01_clean_sbu_1, # of connection points: 6
#     Node 17, Type 0, BuildingBlock: LEVNOQ01_clean_sbu_1, # of connection points: 6
#     Edge 18, Type (0, 0), None
#     Edge 19, Type (0, 0), None
#     Edge 20, Type (0, 0), None
#     Edge 21, Type (0, 0), None
#     Edge 22, Type (0, 0), None
#     Edge 23, Type (0, 0), None
#     Edge 24, Type (0, 0), None
#     Edge 25, Type (0, 0), None
#     Edge 26, Type (0, 0), None
#     Edge 27, Type (0, 0), None
#     Edge 28, Type (0, 0), None
#     Edge 29, Type (0, 0), None
#     Edge 30, Type (0, 0), None
#     Edge 31, Type (0, 0), None
#     Edge 32, Type (0, 0), None
#     Edge 33, Type (0, 0), None
#     Edge 34, Type (0, 0), None
#     Edge 35, Type (0, 0), None
#     Edge 36, Type (0, 0), None
#     Edge 37, Type (0, 0), None
#     Edge 38, Type (0, 0), None
#     Edge 39, Type (0, 0), None
#     Edge 40, Type (0, 0), None
#     Edge 41, Type (0, 0), None
#     Edge 42, Type (0, 0), None
#     Edge 43, Type (0, 0), None
#     Edge 44, Type (0, 0), None
#     Edge 45, Type (0, 0), None
#     Edge 46, Type (0, 0), None
#     Edge 47, Type (0, 0), None
#     Edge 48, Type (0, 0), None
#     Edge 49, Type (0, 0), None
#     Edge 50, Type (0, 0), None
#     Edge 51, Type (0, 0), None
#     Edge 52, Type (0, 0), None
#     Edge 53, Type (0, 0), None
#     Edge 54, Type (0, 0), None
#     Edge 55, Type (0, 0), None
#     Edge 56, Type (0, 0), None
#     Edge 57, Type (0, 0), None
#     Edge 58, Type (0, 0), None
#     Edge 59, Type (0, 0), None
#     Edge 60, Type (0, 0), None
#     Edge 61, Type (0, 0), None
#     Edge 62, Type (0, 0), None
#     Edge 63, Type (0, 0), None
#     Edge 64, Type (0, 0), None
#     Edge 65, Type (0, 0), None
#     Edge 66, Type (0, 0), None
#     Edge 67, Type (0, 0), None
#     Edge 68, Type (0, 0), None
#     Edge 69, Type (0, 0), None
#     Edge 70, Type (0, 0), None
#     Edge 71, Type (0, 0), None
# Relax obj value: 0.143
# Max RMSD: 0.185
# Mean RMSD: 0.185
data_MOF--net-wmi--node1-LEVNOQ01_clean_sbu_1--edge1-none
_symmetry_space_group_name_H-M    P1
_symmetry_Int_Tables_number       1
_symmetry_cell_setting            triclinic
loop_
_symmetry_equiv_pos_as_xyz
'x, y, z'
_cell_length_a     15.150537
_cell_length_b     15.154351
_cell_length_c     45.126471
_cell_angle_alpha  90.001943
_cell_angle_beta   90.000836
_cell_angle_gamma 119.99577
loop_
_atom_site_label
_atom_site_type_symbol
_atom_site_fract_x
_atom_site_fract_y
_atom_site_fract_z
_atom_type_partial_charge
O0 O 0.20419 0.83405 0.00751 0.0
Mg1 Mg 0.35281 0.85877 0.00047 0.0
O2 O 0.28321 0.83659 0.04721 0.0
Mg3 Mg 0.4421 -0.01433 0.04137 0.0
O4 O 0.45593 -0.00037 -0.0131 0.0
O5 O 0.37388 0.85747 -0.0422 0.0
O6 O 0.60853 0.12656 0.04329 0.0
O7 O 0.39091 0.10952 0.04556 0.0
Mg8 Mg 0.52523 0.08792 0.10753 0.0
O9 O 0.41141 0.96376 0.09015 0.0
O10 O 0.65299 0.08963 0.08571 0.0
O11 O 0.48455 0.18938 0.08619 0.0
O12 O 0.40627 -0.01703 0.13729 0.0
C13 C 0.48579 0.80177 0.03209 0.0
C14 C 0.20184 0.79488 0.0322 0.0
C15 C 0.43416 0.95401 -0.03918 0.0
C16 C 0.67865 0.14081 0.06172 0.0
C17 C 0.42874 0.18446 0.06425 0.0
C18 C 0.35766 0.93448 0.11402 0.0
O19 O 0.40445 0.76284 0.0172 0.0
O20 O 0.52223 0.89059 0.04248 0.0
O21 O 0.1163 0.37087 0.00735 0.0
Mg22 Mg 0.09176 0.49495 0.00052 0.0
O23 O 0.11406 0.44705 0.04715 0.0
Mg24 Mg -0.03504 0.45704 0.04137 0.0
O25 O -0.04898 0.45748 -0.01311 0.0
O26 O 0.09349 0.51817 -0.04211 0.0
O27 O 0.82403 0.48252 0.04337 0.0
O28 O 0.84112 0.28202 0.04547 0.0
Mg29 Mg 0.86284 0.43758 0.10754 0.0
O30 O -0.01298 0.44798 0.09014 0.0
O31 O 0.86089 0.56363 0.08584 0.0
O32 O 0.7614 0.29555 0.08618 0.0
O33 O -0.03207 0.42375 0.13729 0.0
C34 C 0.14885 0.68449 0.03231 0.0
C35 C 0.15564 0.40746 0.03204 0.0
C36 C -0.00311 0.48179 -0.03915 0.0
C37 C 0.80976 0.53827 0.06184 0.0
C38 C 0.76625 0.24481 0.06418 0.0
C39 C 0.01643 0.42368 0.11402 0.0
O40 O 0.1879 0.64215 0.01746 0.0
O41 O 0.05987 0.63214 0.04259 0.0
O42 O 0.57969 0.74612 0.00727 0.0
Mg43 Mg 0.45588 0.59735 0.00045 0.0
O44 O 0.50357 0.66757 0.0471 0.0
Mg45 Mg 0.49362 0.50849 0.04135 0.0
O46 O 0.49361 0.49423 -0.01313 0.0
O47 O 0.43298 0.57592 -0.04218 0.0
O48 O 0.46812 0.34209 0.04336 0.0
O49 O 0.66864 0.55964 0.04554 0.0
Mg50 Mg 0.51273 0.42571 0.10755 0.0
O51 O 0.50241 0.53949 0.09013 0.0
O52 O 0.38679 0.29763 0.08581 0.0
O53 O 0.65491 0.46636 0.08625 0.0
O54 O 0.52643 0.54457 0.13729 0.0
C55 C 0.26606 0.46478 0.03212 0.0
C56 C 0.54317 0.74873 0.03199 0.0
C57 C 0.46945 0.51579 -0.03919 0.0
C58 C 0.41227 0.27203 0.06181 0.0
C59 C 0.70578 0.52198 0.06427 0.0
C60 C 0.52669 0.59319 0.11401 0.0
O61 O 0.30843 0.54607 0.01722 0.0
O62 O 0.31844 0.42832 0.0425 0.0
O63 O 0.81764 0.22186 0.88743 0.0
Mg64 Mg 0.8425 0.3706 0.89419 0.0
O65 O 0.8199 0.30014 0.8476 0.0
Mg66 Mg -0.03098 0.45924 0.85332 0.0
O67 O -0.0167 0.47373 0.90781 0.0
O68 O 0.84085 0.39208 0.93682 0.0
O69 O 0.10995 0.62562 0.85127 0.0
O70 O 0.09291 0.40808 0.84918 0.0
Mg71 Mg 0.07085 0.54172 0.78711 0.0
O72 O 0.94671 0.42799 0.80455 0.0
O73 O 0.07315 0.66994 0.8088 0.0
O74 O 0.1724 0.50115 0.80843 0.0
O75 O -0.03439 0.42286 0.75739 0.0
C76 C 0.78515 0.50296 0.86248 0.0
C77 C 0.77831 0.21904 0.86273 0.0
C78 C 0.93746 0.45219 0.93385 0.0
C79 C 0.12428 0.69565 0.8328 0.0
C80 C 0.16769 0.44566 0.83044 0.0
C81 C 0.91721 0.37429 0.78067 0.0
O82 O 0.74622 0.42167 0.87737 0.0
O83 O 0.87404 0.53944 0.85214 0.0
O84 O 0.72956 0.59687 0.88731 0.0
Mg85 Mg 0.58095 0.47277 0.89417 0.0
O86 O 0.6509 0.52069 0.8475 0.0
Mg87 Mg 0.49184 0.51068 0.85331 0.0
O88 O 0.47768 0.5103 0.90778 0.0
O89 O 0.55946 0.44969 0.93681 0.0
O90 O 0.32536 0.48513 0.85135 0.0
O91 O 0.54303 0.6857 0.84922 0.0
Mg92 Mg 0.409 0.53022 0.78716 0.0
O93 O 0.52278 0.51977 0.80454 0.0
O94 O 0.2811 0.40404 0.80886 0.0
O95 O 0.44959 0.6722 0.80856 0.0
O96 O 0.52799 0.54426 0.7574 0.0
C97 C 0.44829 0.28319 0.86238 0.0
C98 C 0.73212 0.56035 0.86258 0.0
C99 C 0.49924 0.48606 0.93383 0.0
C100 C 0.25537 0.42934 0.83288 0.0
C101 C 0.5053 0.72293 0.83054 0.0
C102 C 0.57654 0.54422 0.78067 0.0
O103 O 0.52969 0.32552 0.87723 0.0
O104 O 0.4117 0.33558 0.8521 0.0
O105 O 0.35403 0.13377 0.8872 0.0
Mg106 Mg 0.47786 0.10892 0.89424 0.0
O107 O 0.43055 0.13115 0.84747 0.0
Mg108 Mg 0.44035 -0.01796 0.85332 0.0
O109 O 0.44009 -0.03197 0.90779 0.0
O110 O 0.50024 0.11019 0.9369 0.0
O111 O 0.46588 0.84116 0.85142 0.0
O112 O 0.26533 0.85818 0.84908 0.0
Mg113 Mg 0.4215 0.87987 0.78715 0.0
O114 O 0.43176 0.00398 0.80453 0.0
O115 O 0.54747 0.87811 0.80901 0.0
O116 O 0.27926 0.77841 0.80845 0.0
O117 O 0.4076 -0.01513 0.75739 0.0
C118 C 0.66788 0.16591 0.86265 0.0
C119 C 0.39082 0.17279 0.86249 0.0
C120 C 0.46399 0.01366 0.93387 0.0
C121 C 0.52185 0.82698 0.83301 0.0
C122 C 0.22829 0.78329 0.83038 0.0
C123 C 0.40731 0.03326 0.78066 0.0
O124 O 0.62546 0.20484 0.87753 0.0
O125 O 0.61555 0.07711 0.85225 0.0
O126 O 0.87106 0.16768 0.34082 0.0
Mg127 Mg 0.01967 0.19227 0.33384 0.0
O128 O -0.05008 0.17011 0.38055 0.0
Mg129 Mg 0.10889 0.3192 0.3747 0.0
O130 O 0.12284 0.33307 0.32024 0.0
O131 O 0.04085 0.1908 0.29118 0.0
O132 O 0.27532 0.46009 0.37663 0.0
O133 O 0.05768 0.44304 0.37886 0.0
Mg134 Mg 0.19196 0.42155 0.44085 0.0
O135 O 0.07815 0.29737 0.42348 0.0
O136 O 0.31971 0.42315 0.41906 0.0
O137 O 0.15131 0.52297 0.41949 0.0
O138 O 0.07298 0.31665 0.47061 0.0
C139 C 0.15252 0.13528 0.36552 0.0
C140 C 0.8686 0.12845 0.36551 0.0
C141 C 0.10111 0.28735 0.29417 0.0
C142 C 0.34542 0.47433 0.39508 0.0
C143 C 0.0955 0.518 0.39753 0.0
C144 C 0.02439 0.26811 0.44735 0.0
O145 O 0.07114 0.0963 0.35065 0.0
O146 O 0.18904 0.22418 0.37585 0.0
O147 O 0.78312 0.7045 0.34063 0.0
Mg148 Mg 0.7584 0.82846 0.33384 0.0
O149 O 0.78082 0.78057 0.38045 0.0
Mg150 Mg 0.63171 0.79055 0.3747 0.0
O151 O 0.6176 0.79087 0.32023 0.0
O152 O 0.76002 0.85157 0.29121 0.0
O153 O 0.49078 0.81602 0.37674 0.0
O154 O 0.50787 0.61553 0.37881 0.0
Mg155 Mg 0.52972 0.77107 0.4409 0.0
O156 O 0.6539 0.7815 0.42348 0.0
O157 O 0.52759 0.89707 0.41921 0.0
O158 O 0.42825 0.62903 0.41954 0.0
O159 O 0.63489 0.7573 0.47063 0.0
C160 C 0.81558 0.01806 0.3656 0.0
C161 C 0.82243 0.74103 0.36533 0.0
C162 C 0.66342 0.81512 0.29418 0.0
C163 C 0.47648 0.87173 0.39521 0.0
C164 C 0.43304 0.5783 0.39754 0.0
C165 C 0.68337 0.75724 0.44735 0.0
O166 O 0.85457 -0.02427 0.35071 0.0
O167 O 0.72666 0.96568 0.37592 0.0
O168 O 0.24656 0.07981 0.3407 0.0
Mg169 Mg 0.12274 0.9311 0.33379 0.0
O170 O 0.17026 0.00103 0.38048 0.0
Mg171 Mg 0.16038 0.84202 0.37469 0.0
O172 O 0.16046 0.82795 0.32022 0.0
O173 O 0.10003 0.90978 0.29115 0.0
O174 O 0.13489 0.67563 0.37666 0.0
O175 O 0.3354 0.89316 0.37891 0.0
Mg176 Mg 0.17934 0.75902 0.44088 0.0
O177 O 0.16906 0.87283 0.42348 0.0
O178 O 0.05342 0.63109 0.41909 0.0
O179 O 0.32157 0.79972 0.4196 0.0
O180 O 0.19309 0.87788 0.47063 0.0
C181 C 0.93284 0.79835 0.36542 0.0
C182 C 0.20993 0.08227 0.36541 0.0
C183 C 0.13638 0.84957 0.29415 0.0
C184 C 0.07898 0.60554 0.39509 0.0
C185 C 0.37249 0.85542 0.39764 0.0
C186 C 0.1934 0.92653 0.44736 0.0
O187 O -0.02477 0.87967 0.35054 0.0
O188 O -0.01479 0.76188 0.3758 0.0
O189 O 0.48426 0.55501 0.22071 0.0
Mg190 Mg 0.50898 0.70368 0.22753 0.0
O191 O 0.48655 0.63341 0.1809 0.0
Mg192 Mg 0.63565 0.79248 0.18666 0.0
O193 O 0.64976 0.80688 0.24114 0.0
O194 O 0.50735 0.72517 0.27016 0.0
O195 O 0.77656 0.95886 0.18464 0.0
O196 O 0.75955 0.74134 0.18252 0.0
Mg197 Mg 0.7376 0.87512 0.12046 0.0
O198 O 0.61349 0.76136 0.13789 0.0
O199 O 0.7397 0.00319 0.14219 0.0
O200 O 0.83912 0.83452 0.14179 0.0
O201 O 0.63242 0.75626 0.09072 0.0
C202 C 0.45175 0.83613 0.19579 0.0
C203 C 0.44495 0.55226 0.19601 0.0
C204 C 0.60394 0.78536 0.26718 0.0
C205 C 0.79085 0.02891 0.16618 0.0
C206 C 0.83437 0.77897 0.16379 0.0
C207 C 0.58408 0.70768 0.114 0.0
O208 O 0.41277 0.7548 0.21066 0.0
O209 O 0.54067 0.87266 0.18547 0.0
O210 O 0.39628 0.93012 0.22063 0.0
Mg211 Mg 0.24765 0.80612 0.22753 0.0
O212 O 0.3175 0.85389 0.18083 0.0
Mg213 Mg 0.1585 0.84395 0.18665 0.0
O214 O 0.14446 0.8438 0.24112 0.0
O215 O 0.2263 0.78332 0.27018 0.0
O216 O -0.00796 0.81841 0.18469 0.0
O217 O 0.20967 0.01897 0.18252 0.0
Mg218 Mg 0.07562 0.86335 0.12048 0.0
O219 O 0.1894 0.85294 0.13787 0.0
O220 O 0.94771 0.73726 0.14221 0.0
O221 O 0.11623 0.00539 0.14185 0.0
O222 O 0.1946 0.87731 0.09072 0.0
C223 C 0.11487 0.61641 0.1958 0.0
C224 C 0.39876 0.89355 0.1959 0.0
C225 C 0.1661 0.8197 0.26718 0.0
C226 C 0.92202 0.76261 0.16623 0.0
C227 C 0.17193 0.05616 0.16383 0.0
C228 C 0.24315 0.87739 0.114 0.0
O229 O 0.19623 0.65874 0.21068 0.0
O230 O 0.07837 0.66881 0.18547 0.0
O231 O 0.02076 0.46695 0.22063 0.0
Mg232 Mg 0.1446 0.44206 0.22756 0.0
O233 O 0.09708 0.46438 0.18085 0.0
Mg234 Mg 0.10698 0.31528 0.18667 0.0
O235 O 0.10689 0.30122 0.24114 0.0
O236 O 0.16726 0.44347 0.27021 0.0
O237 O 0.13252 0.17439 0.18472 0.0
O238 O 0.93195 0.1914 0.18246 0.0
Mg239 Mg 0.08794 0.21316 0.12048 0.0
O240 O 0.09822 0.33725 0.13788 0.0
O241 O 0.21394 0.21129 0.14228 0.0
O242 O 0.94576 0.11169 0.1418 0.0
O243 O 0.07406 0.31818 0.09073 0.0
C244 C 0.33452 0.49915 0.19593 0.0
C245 C 0.05742 0.506 0.19591 0.0
C246 C 0.13093 0.34692 0.2672 0.0
C247 C 0.18842 0.1602 0.16628 0.0
C248 C 0.89485 0.11654 0.16375 0.0
C249 C 0.07378 0.36652 0.11401 0.0
O250 O 0.29212 0.53808 0.21081 0.0
O251 O 0.28218 0.41032 0.18555 0.0
O252 O 0.53736 0.50069 0.67423 0.0
Mg253 Mg 0.68591 0.52525 0.66714 0.0
O254 O 0.61648 0.50325 0.71391 0.0
Mg255 Mg 0.77535 0.65232 0.70804 0.0
O256 O 0.78911 0.66611 0.65358 0.0
O257 O 0.70701 0.52397 0.62447 0.0
O258 O 0.94178 0.79319 0.70992 0.0
O259 O 0.72418 0.77618 0.71222 0.0
Mg260 Mg 0.85863 0.7547 0.77418 0.0
O261 O 0.74478 0.63057 0.75682 0.0
O262 O -0.01376 0.7562 0.75233 0.0
O263 O 0.81793 0.85613 0.75283 0.0
O264 O 0.73966 0.64982 0.80396 0.0
C265 C 0.81896 0.46839 0.69879 0.0
C266 C 0.53506 0.46154 0.69892 0.0
C267 C 0.76736 0.62049 0.6275 0.0
C268 C 0.01191 0.8074 0.72835 0.0
C269 C 0.76205 0.85115 0.73089 0.0
C270 C 0.69104 0.60138 0.78069 0.0
O271 O 0.73759 0.4294 0.68392 0.0
O272 O 0.85546 0.55725 0.70915 0.0
O273 O 0.4495 0.03762 0.67393 0.0
Mg274 Mg 0.42491 0.1617 0.6672 0.0
O275 O 0.4473 0.11361 0.71378 0.0
Mg276 Mg 0.2982 0.12368 0.70803 0.0
O277 O 0.2842 0.12428 0.65355 0.0
O278 O 0.42676 0.18518 0.62459 0.0
O279 O 0.15727 0.14917 0.71007 0.0
O280 O 0.17435 0.94865 0.7121 0.0
Mg281 Mg 0.19612 0.10403 0.77422 0.0
O282 O 0.32028 0.11445 0.7568 0.0
O283 O 0.19407 0.23012 0.75257 0.0
O284 O 0.09468 0.96206 0.75283 0.0
O285 O 0.30124 0.0902 0.80396 0.0
C286 C 0.4821 0.35115 0.69903 0.0
C287 C 0.48886 0.07409 0.69863 0.0
C288 C 0.33014 0.14872 0.62753 0.0
C289 C 0.14298 0.20485 0.72857 0.0
C290 C 0.0995 0.91138 0.73082 0.0
C291 C 0.3497 0.09015 0.78067 0.0
O292 O 0.52115 0.30882 0.68418 0.0
O293 O 0.39309 0.29878 0.70929 0.0
O294 O 0.91296 0.41288 0.67397 0.0
Mg295 Mg 0.78925 0.26409 0.6671 0.0
O296 O 0.83677 0.33418 0.71378 0.0
Mg297 Mg 0.8269 0.17517 0.70802 0.0
O298 O 0.82711 0.16105 0.65354 0.0
O299 O 0.76663 0.24281 0.62446 0.0
O300 O 0.80141 0.00878 0.71002 0.0
O301 O 0.00192 0.22629 0.71225 0.0
Mg302 Mg 0.84586 0.09231 0.77423 0.0
O303 O 0.83558 0.20609 0.7568 0.0
O304 O 0.72001 0.96425 0.75246 0.0
O305 O -0.0119 0.13298 0.75296 0.0
O306 O 0.85952 0.21118 0.80397 0.0
C307 C 0.59929 0.13139 0.69869 0.0
C308 C 0.87638 0.41538 0.69869 0.0
C309 C 0.8031 0.1827 0.62747 0.0
C310 C 0.74554 0.9387 0.72846 0.0
C311 C 0.03901 0.18861 0.73099 0.0
C312 C 0.85989 0.25979 0.78068 0.0
O313 O 0.64167 0.21263 0.68378 0.0
O314 O 0.65168 0.09501 0.70913 0.0
O315 O 0.15124 0.8887 0.55412 0.0
Mg316 Mg 0.17597 0.03742 0.56083 0.0
O317 O 0.15341 -0.03316 0.51427 0.0
Mg318 Mg 0.30254 0.12601 0.52 0.0
O319 O 0.31671 0.1406 0.57448 0.0
O320 O 0.17416 0.05901 0.60345 0.0
O321 O 0.44346 0.2924 0.51794 0.0
O322 O 0.42643 0.07484 0.51589 0.0
Mg323 Mg 0.40446 0.20844 0.45379 0.0
O324 O 0.28034 0.09472 0.47123 0.0
O325 O 0.40665 0.33663 0.47546 0.0
O326 O 0.50598 0.1679 0.47514 0.0
O327 O 0.29928 0.08956 0.42406 0.0
C328 C 0.11865 0.16967 0.52906 0.0
C329 C 0.11186 0.88578 0.52942 0.0
C330 C 0.27078 0.11911 0.60051 0.0
C331 C 0.45777 0.3624 0.49946 0.0
C332 C 0.50124 0.11242 0.49715 0.0
C333 C 0.2509 0.04102 0.44735 0.0
O334 O 0.07966 0.08833 0.54393 0.0
O335 O 0.2076 0.20622 0.51877 0.0
O336 O 0.06324 0.26372 0.55389 0.0
Mg337 Mg 0.91468 0.13962 0.56085 0.0
O338 O -0.01564 0.18739 0.51412 0.0
Mg339 Mg 0.82537 0.17745 0.51997 0.0
O340 O 0.81139 0.17716 0.57444 0.0
O341 O 0.89331 0.11676 0.60349 0.0
O342 O 0.65891 0.1519 0.51806 0.0
O343 O 0.87653 0.35246 0.51585 0.0
Mg344 Mg 0.74233 0.19683 0.45382 0.0
O345 O 0.85614 0.18645 0.4712 0.0
O346 O 0.61456 0.07068 0.47559 0.0
O347 O 0.78297 0.33886 0.47521 0.0
O348 O 0.86132 0.21089 0.42405 0.0
C349 C 0.78184 0.94996 0.52909 0.0
C350 C 0.06565 0.22709 0.52917 0.0
C351 C 0.83301 0.15302 0.6005 0.0
C352 C 0.58888 0.09605 0.4996 0.0
C353 C 0.83874 0.38965 0.49718 0.0
C354 C 0.90988 0.21096 0.44733 0.0
O355 O 0.86326 -0.0077 0.54394 0.0
O356 O 0.74525 0.00234 0.5188 0.0
O357 O 0.68765 0.80058 0.55394 0.0
Mg358 Mg 0.81137 0.77555 0.56093 0.0
O359 O 0.76402 0.79789 0.51418 0.0
Mg360 Mg 0.77383 0.64878 0.52 0.0
O361 O 0.77348 0.6346 0.57447 0.0
O362 O 0.83367 0.77672 0.60359 0.0
O363 O 0.79936 0.5079 0.51805 0.0
O364 O 0.59881 0.52491 0.51575 0.0
Mg365 Mg 0.75494 0.54676 0.4538 0.0
O366 O 0.76521 0.67084 0.47121 0.0
O367 O 0.88086 0.5448 0.47563 0.0
O368 O 0.61271 0.44525 0.47509 0.0
O369 O 0.74112 0.65184 0.42405 0.0
C370 C 0.00142 0.83263 0.52936 0.0
C371 C 0.72436 0.83956 0.52922 0.0
C372 C 0.79733 0.68018 0.60055 0.0
C373 C 0.85528 0.4937 0.49963 0.0
C374 C 0.56176 0.45007 0.49703 0.0
C375 C 0.74078 0.70013 0.44734 0.0
O376 O -0.04098 0.8715 0.54428 0.0
O377 O -0.05094 0.74389 0.51892 0.0
loop_
_geom_bond_atom_site_label_1
_geom_bond_atom_site_label_2
_geom_bond_distance
_geom_bond_site_symmetry_2
_ccdc_geom_bond_type
O0 Mg1 1.990 . S
O0 C14 1.253 . S
Mg1 O0 1.990 . S
Mg1 O4 2.180 . S
Mg1 O5 2.117 1_554 S
Mg1 O19 2.030 . S
O2 Mg3 2.072 1_565 S
O2 C14 1.260 . S
Mg3 O2 2.072 1_545 S
Mg3 O4 2.099 1_545 S
Mg3 O6 2.079 . S
Mg3 O7 2.072 . S
Mg3 O9 2.099 . S
Mg3 O20 2.079 1_545 S
O4 Mg1 2.180 . S
O4 Mg3 2.099 1_565 S
O4 C15 1.283 . S
O5 Mg1 2.117 1_556 S
O5 C15 1.256 1_556 S
O6 Mg3 2.079 . S
O6 C16 1.264 . S
O7 Mg3 2.072 . S
O7 C17 1.260 . S
Mg8 O9 2.180 . S
Mg8 O10 2.030 . S
Mg8 O11 1.990 . S
Mg8 O12 2.117 . S
O9 Mg3 2.099 . S
O9 Mg8 2.180 . S
O9 C18 1.279 . S
O10 Mg8 2.030 . S
O10 C16 1.248 . S
O11 Mg8 1.990 . S
O11 C17 1.253 . S
O12 Mg8 2.117 . S
O12 C18 1.250 . S
C13 O19 1.248 . S
C13 O20 1.264 . S
C14 O0 1.253 . S
C14 O2 1.260 . S
C15 O4 1.283 . S
C15 O5 1.256 1_554 S
C16 O6 1.264 . S
C16 O10 1.248 . S
C17 O7 1.260 . S
C17 O11 1.253 . S
C18 O9 1.279 . S
C18 O12 1.250 . S
O19 Mg1 2.030 . S
O19 C13 1.248 . S
O20 Mg3 2.079 1_565 S
O20 C13 1.264 . S
O21 Mg22 1.990 . S
O21 C35 1.253 . S
Mg22 O21 1.990 . S
Mg22 O25 2.180 . S
Mg22 O26 2.117 1_554 S
Mg22 O40 2.030 . S
O23 Mg24 2.072 . S
O23 C35 1.260 . S
Mg24 O23 2.072 . S
Mg24 O25 2.099 . S
Mg24 O27 2.079 1_455 S
Mg24 O28 2.072 1_455 S
Mg24 O30 2.099 . S
Mg24 O41 2.079 . S
O25 Mg22 2.180 . S
O25 Mg24 2.099 . S
O25 C36 1.279 . S
O26 Mg22 2.117 1_556 S
O26 C36 1.250 1_556 S
O27 Mg24 2.079 1_655 S
O27 C37 1.264 . S
O28 Mg24 2.072 1_655 S
O28 C38 1.260 . S
Mg29 O30 2.180 1_655 S
Mg29 O31 2.030 . S
Mg29 O32 1.990 . S
Mg29 O33 2.117 . S
O30 Mg24 2.099 . S
O30 Mg29 2.180 1_455 S
O30 C39 1.279 . S
O31 Mg29 2.030 . S
O31 C37 1.248 . S
O32 Mg29 1.990 . S
O32 C38 1.253 . S
O33 Mg29 2.117 . S
O33 C39 1.250 1_655 S
C34 O40 1.248 . S
C34 O41 1.264 . S
C35 O21 1.253 . S
C35 O23 1.260 . S
C36 O25 1.279 . S
C36 O26 1.250 1_554 S
C37 O27 1.264 . S
C37 O31 1.248 . S
C38 O28 1.260 . S
C38 O32 1.253 . S
C39 O30 1.279 . S
C39 O33 1.250 1_455 S
O40 Mg22 2.030 . S
O40 C34 1.248 . S
O41 Mg24 2.079 . S
O41 C34 1.264 . S
O42 Mg43 1.990 . S
O42 C56 1.253 . S
Mg43 O42 1.990 . S
Mg43 O46 2.180 . S
Mg43 O47 2.117 1_554 S
Mg43 O61 2.030 . S
O44 Mg45 2.072 . S
O44 C56 1.260 . S
Mg45 O44 2.072 . S
Mg45 O46 2.099 . S
Mg45 O48 2.079 . S
Mg45 O49 2.072 . S
Mg45 O51 2.099 . S
Mg45 O62 2.079 . S
O46 Mg43 2.180 . S
O46 Mg45 2.099 . S
O46 C57 1.279 . S
O47 Mg43 2.117 1_556 S
O47 C57 1.250 1_556 S
O48 Mg45 2.079 . S
O48 C58 1.264 . S
O49 Mg45 2.072 . S
O49 C59 1.260 . S
Mg50 O51 2.180 . S
Mg50 O52 2.030 . S
Mg50 O53 1.990 . S
Mg50 O54 2.117 . S
O51 Mg45 2.099 . S
O51 Mg50 2.180 . S
O51 C60 1.279 . S
O52 Mg50 2.030 . S
O52 C58 1.248 . S
O53 Mg50 1.990 . S
O53 C59 1.253 . S
O54 Mg50 2.117 . S
O54 C60 1.250 . S
C55 O61 1.248 . S
C55 O62 1.264 . S
C56 O42 1.253 . S
C56 O44 1.260 . S
C57 O46 1.279 . S
C57 O47 1.250 1_554 S
C58 O48 1.264 . S
C58 O52 1.248 . S
C59 O49 1.260 . S
C59 O53 1.253 . S
C60 O51 1.279 . S
C60 O54 1.250 . S
O61 Mg43 2.030 . S
O61 C55 1.248 . S
O62 Mg45 2.079 . S
O62 C55 1.264 . S
O63 Mg64 1.990 . S
O63 C77 1.253 . S
Mg64 O63 1.990 . S
Mg64 O67 2.180 . S
Mg64 O68 2.117 1_556 S
Mg64 O82 2.030 . S
O65 Mg66 2.072 1_655 S
O65 C77 1.260 . S
Mg66 O65 2.072 1_455 S
Mg66 O67 2.099 1_455 S
Mg66 O69 2.079 . S
Mg66 O70 2.072 . S
Mg66 O72 2.099 . S
Mg66 O83 2.079 1_455 S
O67 Mg64 2.180 . S
O67 Mg66 2.099 1_655 S
O67 C78 1.283 . S
O68 Mg64 2.117 1_554 S
O68 C78 1.256 1_554 S
O69 Mg66 2.079 . S
O69 C79 1.264 . S
O70 Mg66 2.072 . S
O70 C80 1.260 . S
Mg71 O72 2.180 . S
Mg71 O73 2.030 . S
Mg71 O74 1.990 . S
Mg71 O75 2.117 . S
O72 Mg66 2.099 . S
O72 Mg71 2.180 . S
O72 C81 1.279 . S
O73 Mg71 2.030 . S
O73 C79 1.248 . S
O74 Mg71 1.990 . S
O74 C80 1.253 . S
O75 Mg71 2.117 . S
O75 C81 1.250 . S
C76 O82 1.248 . S
C76 O83 1.264 . S
C77 O63 1.253 . S
C77 O65 1.260 . S
C78 O67 1.283 . S
C78 O68 1.256 1_556 S
C79 O69 1.264 . S
C79 O73 1.248 . S
C80 O70 1.260 . S
C80 O74 1.253 . S
C81 O72 1.279 . S
C81 O75 1.250 . S
O82 Mg64 2.030 . S
O82 C76 1.248 . S
O83 Mg66 2.079 1_655 S
O83 C76 1.264 . S
O84 Mg85 1.990 . S
O84 C98 1.253 . S
Mg85 O84 1.990 . S
Mg85 O88 2.180 . S
Mg85 O89 2.117 1_556 S
Mg85 O103 2.030 . S
O86 Mg87 2.072 . S
O86 C98 1.260 . S
Mg87 O86 2.072 . S
Mg87 O88 2.099 . S
Mg87 O90 2.079 . S
Mg87 O91 2.072 . S
Mg87 O93 2.099 . S
Mg87 O104 2.079 . S
O88 Mg85 2.180 . S
O88 Mg87 2.099 . S
O88 C99 1.279 . S
O89 Mg85 2.117 1_554 S
O89 C99 1.250 1_554 S
O90 Mg87 2.079 . S
O90 C100 1.264 . S
O91 Mg87 2.072 . S
O91 C101 1.260 . S
Mg92 O93 2.180 . S
Mg92 O94 2.030 . S
Mg92 O95 1.990 . S
Mg92 O96 2.117 . S
O93 Mg87 2.099 . S
O93 Mg92 2.180 . S
O93 C102 1.279 . S
O94 Mg92 2.030 . S
O94 C100 1.248 . S
O95 Mg92 1.990 . S
O95 C101 1.253 . S
O96 Mg92 2.117 . S
O96 C102 1.250 . S
C97 O103 1.248 . S
C97 O104 1.264 . S
C98 O84 1.253 . S
C98 O86 1.260 . S
C99 O88 1.279 . S
C99 O89 1.250 1_556 S
C100 O90 1.264 . S
C100 O94 1.248 . S
C101 O91 1.260 . S
C101 O95 1.253 . S
C102 O93 1.279 . S
C102 O96 1.250 . S
O103 Mg85 2.030 . S
O103 C97 1.248 . S
O104 Mg87 2.079 . S
O104 C97 1.264 . S
O105 Mg106 1.990 . S
O105 C119 1.253 . S
Mg106 O105 1.990 . S
Mg106 O109 2.180 . S
Mg106 O110 2.117 1_556 S
Mg106 O124 2.030 . S
O107 Mg108 2.072 . S
O107 C119 1.260 . S
Mg108 O107 2.072 . S
Mg108 O109 2.099 . S
Mg108 O111 2.079 1_545 S
Mg108 O112 2.072 1_545 S
Mg108 O114 2.099 . S
Mg108 O125 2.079 . S
O109 Mg106 2.180 . S
O109 Mg108 2.099 . S
O109 C120 1.279 . S
O110 Mg106 2.117 1_554 S
O110 C120 1.250 1_554 S
O111 Mg108 2.079 1_565 S
O111 C121 1.264 . S
O112 Mg108 2.072 1_565 S
O112 C122 1.260 . S
Mg113 O114 2.180 1_565 S
Mg113 O115 2.030 . S
Mg113 O116 1.990 . S
Mg113 O117 2.117 . S
O114 Mg108 2.099 . S
O114 Mg113 2.180 1_545 S
O114 C123 1.279 . S
O115 Mg113 2.030 . S
O115 C121 1.248 . S
O116 Mg113 1.990 . S
O116 C122 1.253 . S
O117 Mg113 2.117 . S
O117 C123 1.250 1_565 S
C118 O124 1.248 . S
C118 O125 1.264 . S
C119 O105 1.253 . S
C119 O107 1.260 . S
C120 O109 1.279 . S
C120 O110 1.250 1_556 S
C121 O111 1.264 . S
C121 O115 1.248 . S
C122 O112 1.260 . S
C122 O116 1.253 . S
C123 O114 1.279 . S
C123 O117 1.250 1_545 S
O124 Mg106 2.030 . S
O124 C118 1.248 . S
O125 Mg108 2.079 . S
O125 C118 1.264 . S
O126 Mg127 1.990 1_655 S
O126 C140 1.253 . S
Mg127 O126 1.990 1_455 S
Mg127 O130 2.180 . S
Mg127 O131 2.117 . S
Mg127 O145 2.030 . S
O128 Mg129 2.072 . S
O128 C140 1.260 1_455 S
Mg129 O128 2.072 . S
Mg129 O130 2.099 . S
Mg129 O132 2.079 . S
Mg129 O133 2.072 . S
Mg129 O135 2.099 . S
Mg129 O146 2.079 . S
O130 Mg127 2.180 . S
O130 Mg129 2.099 . S
O130 C141 1.279 . S
O131 Mg127 2.117 . S
O131 C141 1.250 . S
O132 Mg129 2.079 . S
O132 C142 1.264 . S
O133 Mg129 2.072 . S
O133 C143 1.260 . S
Mg134 O135 2.180 . S
Mg134 O136 2.030 . S
Mg134 O137 1.990 . S
Mg134 O138 2.117 . S
O135 Mg129 2.099 . S
O135 Mg134 2.180 . S
O135 C144 1.279 . S
O136 Mg134 2.030 . S
O136 C142 1.248 . S
O137 Mg134 1.990 . S
O137 C143 1.253 . S
O138 Mg134 2.117 . S
O138 C144 1.250 . S
C139 O145 1.248 . S
C139 O146 1.264 . S
C140 O126 1.253 . S
C140 O128 1.260 1_655 S
C141 O130 1.279 . S
C141 O131 1.250 . S
C142 O132 1.264 . S
C142 O136 1.248 . S
C143 O133 1.260 . S
C143 O137 1.253 . S
C144 O135 1.279 . S
C144 O138 1.250 . S
O145 Mg127 2.030 . S
O145 C139 1.248 . S
O146 Mg129 2.079 . S
O146 C139 1.264 . S
O147 Mg148 1.990 . S
O147 C161 1.253 . S
Mg148 O147 1.990 . S
Mg148 O151 2.180 . S
Mg148 O152 2.117 . S
Mg148 O166 2.030 1_565 S
O149 Mg150 2.072 . S
O149 C161 1.260 . S
Mg150 O149 2.072 . S
Mg150 O151 2.099 . S
Mg150 O153 2.079 . S
Mg150 O154 2.072 . S
Mg150 O156 2.099 . S
Mg150 O167 2.079 1_565 S
O151 Mg148 2.180 . S
O151 Mg150 2.099 . S
O151 C162 1.279 . S
O152 Mg148 2.117 . S
O152 C162 1.250 . S
O153 Mg150 2.079 . S
O153 C163 1.264 . S
O154 Mg150 2.072 . S
O154 C164 1.260 . S
Mg155 O156 2.180 . S
Mg155 O157 2.030 . S
Mg155 O158 1.990 . S
Mg155 O159 2.117 . S
O156 Mg150 2.099 . S
O156 Mg155 2.180 . S
O156 C165 1.279 . S
O157 Mg155 2.030 . S
O157 C163 1.248 . S
O158 Mg155 1.990 . S
O158 C164 1.253 . S
O159 Mg155 2.117 . S
O159 C165 1.250 . S
C160 O166 1.248 . S
C160 O167 1.264 . S
C161 O147 1.253 . S
C161 O149 1.260 . S
C162 O151 1.279 . S
C162 O152 1.250 . S
C163 O153 1.264 . S
C163 O157 1.248 . S
C164 O154 1.260 . S
C164 O158 1.253 . S
C165 O156 1.279 . S
C165 O159 1.250 . S
O166 Mg148 2.030 1_545 S
O166 C160 1.248 . S
O167 Mg150 2.079 1_545 S
O167 C160 1.264 . S
O168 Mg169 1.990 1_545 S
O168 C182 1.253 . S
Mg169 O168 1.990 1_565 S
Mg169 O172 2.180 . S
Mg169 O173 2.117 . S
Mg169 O187 2.030 1_455 S
O170 Mg171 2.072 1_545 S
O170 C182 1.260 . S
Mg171 O170 2.072 1_565 S
Mg171 O172 2.099 . S
Mg171 O174 2.079 . S
Mg171 O175 2.072 . S
Mg171 O177 2.099 . S
Mg171 O188 2.079 . S
O172 Mg169 2.180 . S
O172 Mg171 2.099 . S
O172 C183 1.279 . S
O173 Mg169 2.117 . S
O173 C183 1.250 . S
O174 Mg171 2.079 . S
O174 C184 1.264 . S
O175 Mg171 2.072 . S
O175 C185 1.260 . S
Mg176 O177 2.180 . S
Mg176 O178 2.030 . S
Mg176 O179 1.990 . S
Mg176 O180 2.117 . S
O177 Mg171 2.099 . S
O177 Mg176 2.180 . S
O177 C186 1.279 . S
O178 Mg176 2.030 . S
O178 C184 1.248 . S
O179 Mg176 1.990 . S
O179 C185 1.253 . S
O180 Mg176 2.117 . S
O180 C186 1.250 . S
C181 O187 1.248 . S
C181 O188 1.264 1_655 S
C182 O168 1.253 . S
C182 O170 1.260 . S
C183 O172 1.279 . S
C183 O173 1.250 . S
C184 O174 1.264 . S
C184 O178 1.248 . S
C185 O175 1.260 . S
C185 O179 1.253 . S
C186 O177 1.279 . S
C186 O180 1.250 . S
O187 Mg169 2.030 1_655 S
O187 C181 1.248 . S
O188 Mg171 2.079 . S
O188 C181 1.264 1_455 S
O189 Mg190 1.990 . S
O189 C203 1.253 . S
Mg190 O189 1.990 . S
Mg190 O193 2.180 . S
Mg190 O194 2.117 . S
Mg190 O208 2.030 . S
O191 Mg192 2.072 . S
O191 C203 1.260 . S
Mg192 O191 2.072 . S
Mg192 O193 2.099 . S
Mg192 O195 2.079 1_565 S
Mg192 O196 2.072 . S
Mg192 O198 2.099 . S
Mg192 O209 2.079 . S
O193 Mg190 2.180 . S
O193 Mg192 2.099 . S
O193 C204 1.279 . S
O194 Mg190 2.117 . S
O194 C204 1.250 . S
O195 Mg192 2.079 1_545 S
O195 C205 1.264 . S
O196 Mg192 2.072 . S
O196 C206 1.260 . S
Mg197 O198 2.180 . S
Mg197 O199 2.030 1_565 S
Mg197 O200 1.990 . S
Mg197 O201 2.117 . S
O198 Mg192 2.099 . S
O198 Mg197 2.180 . S
O198 C207 1.279 . S
O199 Mg197 2.030 1_545 S
O199 C205 1.248 . S
O200 Mg197 1.990 . S
O200 C206 1.253 . S
O201 Mg197 2.117 . S
O201 C207 1.250 . S
C202 O208 1.248 . S
C202 O209 1.264 . S
C203 O189 1.253 . S
C203 O191 1.260 . S
C204 O193 1.279 . S
C204 O194 1.250 . S
C205 O195 1.264 . S
C205 O199 1.248 . S
C206 O196 1.260 . S
C206 O200 1.253 . S
C207 O198 1.279 . S
C207 O201 1.250 . S
O208 Mg190 2.030 . S
O208 C202 1.248 . S
O209 Mg192 2.079 . S
O209 C202 1.264 . S
O210 Mg211 1.990 . S
O210 C224 1.253 . S
Mg211 O210 1.990 . S
Mg211 O214 2.180 . S
Mg211 O215 2.117 . S
Mg211 O229 2.030 . S
O212 Mg213 2.072 . S
O212 C224 1.260 . S
Mg213 O212 2.072 . S
Mg213 O214 2.099 . S
Mg213 O216 2.079 . S
Mg213 O217 2.072 1_565 S
Mg213 O219 2.099 . S
Mg213 O230 2.079 . S
O214 Mg211 2.180 . S
O214 Mg213 2.099 . S
O214 C225 1.279 . S
O215 Mg211 2.117 . S
O215 C225 1.250 . S
O216 Mg213 2.079 . S
O216 C226 1.264 1_455 S
O217 Mg213 2.072 1_545 S
O217 C227 1.260 . S
Mg218 O219 2.180 . S
Mg218 O220 2.030 . S
Mg218 O221 1.990 1_565 S
Mg218 O222 2.117 . S
O219 Mg213 2.099 . S
O219 Mg218 2.180 . S
O219 C228 1.279 . S
O220 Mg218 2.030 . S
O220 C226 1.248 1_455 S
O221 Mg218 1.990 1_545 S
O221 C227 1.253 . S
O222 Mg218 2.117 . S
O222 C228 1.250 . S
C223 O229 1.248 . S
C223 O230 1.264 . S
C224 O210 1.253 . S
C224 O212 1.260 . S
C225 O214 1.279 . S
C225 O215 1.250 . S
C226 O216 1.264 1_655 S
C226 O220 1.248 1_655 S
C227 O217 1.260 . S
C227 O221 1.253 . S
C228 O219 1.279 . S
C228 O222 1.250 . S
O229 Mg211 2.030 . S
O229 C223 1.248 . S
O230 Mg213 2.079 . S
O230 C223 1.264 . S
O231 Mg232 1.990 . S
O231 C245 1.253 . S
Mg232 O231 1.990 . S
Mg232 O235 2.180 . S
Mg232 O236 2.117 . S
Mg232 O250 2.030 . S
O233 Mg234 2.072 . S
O233 C245 1.260 . S
Mg234 O233 2.072 . S
Mg234 O235 2.099 . S
Mg234 O237 2.079 . S
Mg234 O238 2.072 . S
Mg234 O240 2.099 . S
Mg234 O251 2.079 . S
O235 Mg232 2.180 . S
O235 Mg234 2.099 . S
O235 C246 1.279 . S
O236 Mg232 2.117 . S
O236 C246 1.250 . S
O237 Mg234 2.079 . S
O237 C247 1.264 . S
O238 Mg234 2.072 . S
O238 C248 1.260 1_455 S
Mg239 O240 2.180 . S
Mg239 O241 2.030 . S
Mg239 O242 1.990 1_455 S
Mg239 O243 2.117 . S
O240 Mg234 2.099 . S
O240 Mg239 2.180 . S
O240 C249 1.279 . S
O241 Mg239 2.030 . S
O241 C247 1.248 . S
O242 Mg239 1.990 1_655 S
O242 C248 1.253 . S
O243 Mg239 2.117 . S
O243 C249 1.250 . S
C244 O250 1.248 . S
C244 O251 1.264 . S
C245 O231 1.253 . S
C245 O233 1.260 . S
C246 O235 1.279 . S
C246 O236 1.250 . S
C247 O237 1.264 . S
C247 O241 1.248 . S
C248 O238 1.260 1_655 S
C248 O242 1.253 . S
C249 O240 1.279 . S
C249 O243 1.250 . S
O250 Mg232 2.030 . S
O250 C244 1.248 . S
O251 Mg234 2.079 . S
O251 C244 1.264 . S
O252 Mg253 1.990 . S
O252 C266 1.253 . S
Mg253 O252 1.990 . S
Mg253 O256 2.180 . S
Mg253 O257 2.117 . S
Mg253 O271 2.030 . S
O254 Mg255 2.072 . S
O254 C266 1.260 . S
Mg255 O254 2.072 . S
Mg255 O256 2.099 . S
Mg255 O258 2.079 1_655 S
Mg255 O259 2.072 . S
Mg255 O261 2.099 . S
Mg255 O272 2.079 . S
O256 Mg253 2.180 . S
O256 Mg255 2.099 . S
O256 C267 1.279 . S
O257 Mg253 2.117 . S
O257 C267 1.250 . S
O258 Mg255 2.079 1_455 S
O258 C268 1.264 . S
O259 Mg255 2.072 . S
O259 C269 1.260 . S
Mg260 O261 2.180 . S
Mg260 O262 2.030 1_655 S
Mg260 O263 1.990 . S
Mg260 O264 2.117 . S
O261 Mg255 2.099 . S
O261 Mg260 2.180 . S
O261 C270 1.279 . S
O262 Mg260 2.030 1_455 S
O262 C268 1.248 . S
O263 Mg260 1.990 . S
O263 C269 1.253 . S
O264 Mg260 2.117 . S
O264 C270 1.250 . S
C265 O271 1.248 . S
C265 O272 1.264 . S
C266 O252 1.253 . S
C266 O254 1.260 . S
C267 O256 1.279 . S
C267 O257 1.250 . S
C268 O258 1.264 . S
C268 O262 1.248 . S
C269 O259 1.260 . S
C269 O263 1.253 . S
C270 O261 1.279 . S
C270 O264 1.250 . S
O271 Mg253 2.030 . S
O271 C265 1.248 . S
O272 Mg255 2.079 . S
O272 C265 1.264 . S
O273 Mg274 1.990 . S
O273 C287 1.253 . S
Mg274 O273 1.990 . S
Mg274 O277 2.180 . S
Mg274 O278 2.117 . S
Mg274 O292 2.030 . S
O275 Mg276 2.072 . S
O275 C287 1.260 . S
Mg276 O275 2.072 . S
Mg276 O277 2.099 . S
Mg276 O279 2.079 . S
Mg276 O280 2.072 . S
Mg276 O282 2.099 . S
Mg276 O293 2.079 . S
O277 Mg274 2.180 . S
O277 Mg276 2.099 . S
O277 C288 1.279 . S
O278 Mg274 2.117 . S
O278 C288 1.250 . S
O279 Mg276 2.079 . S
O279 C289 1.264 . S
O280 Mg276 2.072 . S
O280 C290 1.260 1_545 S
Mg281 O282 2.180 . S
Mg281 O283 2.030 . S
Mg281 O284 1.990 1_545 S
Mg281 O285 2.117 . S
O282 Mg276 2.099 . S
O282 Mg281 2.180 . S
O282 C291 1.279 . S
O283 Mg281 2.030 . S
O283 C289 1.248 . S
O284 Mg281 1.990 1_565 S
O284 C290 1.253 . S
O285 Mg281 2.117 . S
O285 C291 1.250 . S
C286 O292 1.248 . S
C286 O293 1.264 . S
C287 O273 1.253 . S
C287 O275 1.260 . S
C288 O277 1.279 . S
C288 O278 1.250 . S
C289 O279 1.264 . S
C289 O283 1.248 . S
C290 O280 1.260 1_565 S
C290 O284 1.253 . S
C291 O282 1.279 . S
C291 O285 1.250 . S
O292 Mg274 2.030 . S
O292 C286 1.248 . S
O293 Mg276 2.079 . S
O293 C286 1.264 . S
O294 Mg295 1.990 . S
O294 C308 1.253 . S
Mg295 O294 1.990 . S
Mg295 O298 2.180 . S
Mg295 O299 2.117 . S
Mg295 O313 2.030 . S
O296 Mg297 2.072 . S
O296 C308 1.260 . S
Mg297 O296 2.072 . S
Mg297 O298 2.099 . S
Mg297 O300 2.079 . S
Mg297 O301 2.072 1_655 S
Mg297 O303 2.099 . S
Mg297 O314 2.079 . S
O298 Mg295 2.180 . S
O298 Mg297 2.099 . S
O298 C309 1.279 . S
O299 Mg295 2.117 . S
O299 C309 1.250 . S
O300 Mg297 2.079 . S
O300 C310 1.264 1_545 S
O301 Mg297 2.072 1_455 S
O301 C311 1.260 . S
Mg302 O303 2.180 . S
Mg302 O304 2.030 . S
Mg302 O305 1.990 1_655 S
Mg302 O306 2.117 . S
O303 Mg297 2.099 . S
O303 Mg302 2.180 . S
O303 C312 1.279 . S
O304 Mg302 2.030 . S
O304 C310 1.248 1_545 S
O305 Mg302 1.990 1_455 S
O305 C311 1.253 . S
O306 Mg302 2.117 . S
O306 C312 1.250 . S
C307 O313 1.248 . S
C307 O314 1.264 . S
C308 O294 1.253 . S
C308 O296 1.260 . S
C309 O298 1.279 . S
C309 O299 1.250 . S
C310 O300 1.264 1_565 S
C310 O304 1.248 1_565 S
C311 O301 1.260 . S
C311 O305 1.253 . S
C312 O303 1.279 . S
C312 O306 1.250 . S
O313 Mg295 2.030 . S
O313 C307 1.248 . S
O314 Mg297 2.079 . S
O314 C307 1.264 . S
O315 Mg316 1.990 1_565 S
O315 C329 1.253 . S
Mg316 O315 1.990 1_545 S
Mg316 O319 2.180 . S
Mg316 O320 2.117 . S
Mg316 O334 2.030 . S
O317 Mg318 2.072 . S
O317 C329 1.260 1_545 S
Mg318 O317 2.072 . S
Mg318 O319 2.099 . S
Mg318 O321 2.079 . S
Mg318 O322 2.072 . S
Mg318 O324 2.099 . S
Mg318 O335 2.079 . S
O319 Mg316 2.180 . S
O319 Mg318 2.099 . S
O319 C330 1.279 . S
O320 Mg316 2.117 . S
O320 C330 1.250 . S
O321 Mg318 2.079 . S
O321 C331 1.264 . S
O322 Mg318 2.072 . S
O322 C332 1.260 . S
Mg323 O324 2.180 . S
Mg323 O325 2.030 . S
Mg323 O326 1.990 . S
Mg323 O327 2.117 . S
O324 Mg318 2.099 . S
O324 Mg323 2.180 . S
O324 C333 1.279 . S
O325 Mg323 2.030 . S
O325 C331 1.248 . S
O326 Mg323 1.990 . S
O326 C332 1.253 . S
O327 Mg323 2.117 . S
O327 C333 1.250 . S
C328 O334 1.248 . S
C328 O335 1.264 . S
C329 O315 1.253 . S
C329 O317 1.260 1_565 S
C330 O319 1.279 . S
C330 O320 1.250 . S
C331 O321 1.264 . S
C331 O325 1.248 . S
C332 O322 1.260 . S
C332 O326 1.253 . S
C333 O324 1.279 . S
C333 O327 1.250 . S
O334 Mg316 2.030 . S
O334 C328 1.248 . S
O335 Mg318 2.079 . S
O335 C328 1.264 . S
O336 Mg337 1.990 1_455 S
O336 C350 1.253 . S
Mg337 O336 1.990 1_655 S
Mg337 O340 2.180 . S
Mg337 O341 2.117 . S
Mg337 O355 2.030 1_545 S
O338 Mg339 2.072 1_455 S
O338 C350 1.260 . S
Mg339 O338 2.072 1_655 S
Mg339 O340 2.099 . S
Mg339 O342 2.079 . S
Mg339 O343 2.072 . S
Mg339 O345 2.099 . S
Mg339 O356 2.079 . S
O340 Mg337 2.180 . S
O340 Mg339 2.099 . S
O340 C351 1.279 . S
O341 Mg337 2.117 . S
O341 C351 1.250 . S
O342 Mg339 2.079 . S
O342 C352 1.264 . S
O343 Mg339 2.072 . S
O343 C353 1.260 . S
Mg344 O345 2.180 . S
Mg344 O346 2.030 . S
Mg344 O347 1.990 . S
Mg344 O348 2.117 . S
O345 Mg339 2.099 . S
O345 Mg344 2.180 . S
O345 C354 1.279 . S
O346 Mg344 2.030 . S
O346 C352 1.248 . S
O347 Mg344 1.990 . S
O347 C353 1.253 . S
O348 Mg344 2.117 . S
O348 C354 1.250 . S
C349 O355 1.248 . S
C349 O356 1.264 1_565 S
C350 O336 1.253 . S
C350 O338 1.260 . S
C351 O340 1.279 . S
C351 O341 1.250 . S
C352 O342 1.264 . S
C352 O346 1.248 . S
C353 O343 1.260 . S
C353 O347 1.253 . S
C354 O345 1.279 . S
C354 O348 1.250 . S
O355 Mg337 2.030 1_565 S
O355 C349 1.248 . S
O356 Mg339 2.079 . S
O356 C349 1.264 1_545 S
O357 Mg358 1.990 . S
O357 C371 1.253 . S
Mg358 O357 1.990 . S
Mg358 O361 2.180 . S
Mg358 O362 2.117 . S
Mg358 O376 2.030 1_655 S
O359 Mg360 2.072 . S
O359 C371 1.260 . S
Mg360 O359 2.072 . S
Mg360 O361 2.099 . S
Mg360 O363 2.079 . S
Mg360 O364 2.072 . S
Mg360 O366 2.099 . S
Mg360 O377 2.079 1_655 S
O361 Mg358 2.180 . S
O361 Mg360 2.099 . S
O361 C372 1.279 . S
O362 Mg358 2.117 . S
O362 C372 1.250 . S
O363 Mg360 2.079 . S
O363 C373 1.264 . S
O364 Mg360 2.072 . S
O364 C374 1.260 . S
Mg365 O366 2.180 . S
Mg365 O367 2.030 . S
Mg365 O368 1.990 . S
Mg365 O369 2.117 . S
O366 Mg360 2.099 . S
O366 Mg365 2.180 . S
O366 C375 1.279 . S
O367 Mg365 2.030 . S
O367 C373 1.248 . S
O368 Mg365 1.990 . S
O368 C374 1.253 . S
O369 Mg365 2.117 . S
O369 C375 1.250 . S
C370 O376 1.248 . S
C370 O377 1.264 . S
C371 O357 1.253 . S
C371 O359 1.260 . S
C372 O361 1.279 . S
C372 O362 1.250 . S
C373 O363 1.264 . S
C373 O367 1.248 . S
C374 O364 1.260 . S
C374 O368 1.253 . S
C375 O366 1.279 . S
C375 O369 1.250 . S
O376 Mg358 2.030 1_455 S
O376 C370 1.248 . S
O377 Mg360 2.079 1_455 S
O377 C370 1.264 . S
C13 C56 0.895 . S
C14 C34 0.895 . S
C35 C55 0.895 . S
C76 C98 0.895 . S
C119 C97 0.895 . S
C118 C77 0.895 . S
C182 C139 0.895 . S
C140 C160 0.895 . S
C181 C161 0.895 . S
C224 C202 0.895 . S
C223 C245 0.895 . S
C203 C244 0.895 . S
C265 C308 0.895 . S
C266 C286 0.895 . S
C287 C307 0.895 . S
C350 C328 0.895 . S
C371 C349 0.895 . S
C329 C370 0.895 . S
C15 C120 0.865 1_564 S
C78 C36 0.865 1_656 S
C99 C57 0.870 1_556 S
C141 C246 0.870 . S
C162 C204 0.870 . S
C225 C183 0.870 . S
C267 C372 0.870 . S
C330 C288 0.870 . S
C351 C309 0.870 . S
C228 C18 2.219 1_565 S
C39 C249 2.220 . S
C207 C60 2.220 . S
C81 C312 2.219 1_455 S
C102 C270 2.220 . S
C291 C123 2.220 . S
C354 C144 2.219 1_655 S
C165 C375 2.220 . S
C186 C333 2.219 1_565 S
C58 C17 1.420 . S
C16 C38 1.419 . S
C59 C37 1.420 . S
C100 C80 1.420 . S
C121 C101 1.420 . S
C122 C79 1.419 . S
C184 C143 1.420 . S
C164 C142 1.419 . S
C163 C185 1.420 . S
C206 C226 1.419 . S
C227 C247 1.420 . S
C205 C248 1.420 . S
C269 C310 1.419 . S
C290 C268 1.420 . S
C289 C311 1.420 . S
C332 C352 1.420 . S
C353 C373 1.420 . S
C331 C374 1.419 . S
