# Generated by pormake.
# Topology sra, (4)-cn, num edge types: 1
# Building blocks:
#     Node 0, Type 0, BuildingBlock: QUQFOY_clean_sbu_3, # of connection points: 4
#     Node 1, Type 0, BuildingBlock: QUQFOY_clean_sbu_3, # of connection points: 4
#     Node 2, Type 0, BuildingBlock: QUQFOY_clean_sbu_3, # of connection points: 4
#     Node 3, Type 0, BuildingBlock: QUQFOY_clean_sbu_3, # of connection points: 4
#     Node 4, Type 0, BuildingBlock: QUQFOY_clean_sbu_3, # of connection points: 4
#     Node 5, Type 0, BuildingBlock: QUQFOY_clean_sbu_3, # of connection points: 4
#     Node 6, Type 0, BuildingBlock: QUQFOY_clean_sbu_3, # of connection points: 4
#     Node 7, Type 0, BuildingBlock: QUQFOY_clean_sbu_3, # of connection points: 4
#     Edge 8, Type (0, 0), BuildingBlock: XIVTED_clean_linker_0, # of connection points: 2
#     Edge 9, Type (0, 0), BuildingBlock: XIVTED_clean_linker_0, # of connection points: 2
#     Edge 10, Type (0, 0), BuildingBlock: XIVTED_clean_linker_0, # of connection points: 2
#     Edge 11, Type (0, 0), BuildingBlock: XIVTED_clean_linker_0, # of connection points: 2
#     Edge 12, Type (0, 0), BuildingBlock: XIVTED_clean_linker_0, # of connection points: 2
#     Edge 13, Type (0, 0), BuildingBlock: XIVTED_clean_linker_0, # of connection points: 2
#     Edge 14, Type (0, 0), BuildingBlock: XIVTED_clean_linker_0, # of connection points: 2
#     Edge 15, Type (0, 0), BuildingBlock: XIVTED_clean_linker_0, # of connection points: 2
#     Edge 16, Type (0, 0), BuildingBlock: XIVTED_clean_linker_0, # of connection points: 2
#     Edge 17, Type (0, 0), BuildingBlock: XIVTED_clean_linker_0, # of connection points: 2
#     Edge 18, Type (0, 0), BuildingBlock: XIVTED_clean_linker_0, # of connection points: 2
#     Edge 19, Type (0, 0), BuildingBlock: XIVTED_clean_linker_0, # of connection points: 2
#     Edge 20, Type (0, 0), BuildingBlock: XIVTED_clean_linker_0, # of connection points: 2
#     Edge 21, Type (0, 0), BuildingBlock: XIVTED_clean_linker_0, # of connection points: 2
#     Edge 22, Type (0, 0), BuildingBlock: XIVTED_clean_linker_0, # of connection points: 2
#     Edge 23, Type (0, 0), BuildingBlock: XIVTED_clean_linker_0, # of connection points: 2
# Relax obj value: 0.028
# Max RMSD: 0.061
# Mean RMSD: 0.061
data_MOF--net-sra--node1-QUQFOY_clean_sbu_3--edge1-XIVTED_clean_linker_0
_symmetry_space_group_name_H-M    P1
_symmetry_Int_Tables_number       1
_symmetry_cell_setting            triclinic
loop_
_symmetry_equiv_pos_as_xyz
'x, y, z'
_cell_length_a     28.828252
_cell_length_b     55.886173
_cell_length_c     34.796949
_cell_angle_alpha  89.987356
_cell_angle_beta   89.767024
_cell_angle_gamma 89.483459
loop_
_atom_site_label
_atom_site_type_symbol
_atom_site_fract_x
_atom_site_fract_y
_atom_site_fract_z
_atom_type_partial_charge
C0 C 0.08086 0.07967 0.202 0.0
O1 O 0.05226 0.08295 0.22936 0.0
Cd2 Cd 0.97207 0.09207 0.21798 0.0
O3 O 0.0668 0.07887 0.16738 0.0
Cd4 Cd -0.00606 0.07937 0.13012 0.0
C5 C -0.01571 0.13774 0.14989 0.0
O6 O 0.93967 0.0629 0.17683 0.0
O7 O 0.90987 0.08338 0.13023 0.0
O8 O 0.01637 0.04038 0.10707 0.0
C9 C 0.90363 0.07038 0.15964 0.0
O10 O 0.97284 0.12982 0.18294 0.0
C11 C 0.01267 0.04489 0.07152 0.0
O12 O -0.00222 0.12345 0.12338 0.0
O13 O 0.00138 0.06622 0.06234 0.0
C14 C 0.91985 0.37771 0.2031 0.0
O15 O 0.9469 0.37349 0.23106 0.0
Cd16 Cd 0.02564 0.36097 0.22108 0.0
O17 O 0.93518 0.37786 0.16869 0.0
Cd18 Cd 0.00742 0.37488 0.13017 0.0
C19 C 0.00524 0.31622 0.1526 0.0
O20 O 0.05908 0.38932 0.17901 0.0
O21 O 0.09263 0.3737 0.12937 0.0
O22 O -0.01584 0.41373 0.10709 0.0
C23 C 0.09649 0.38384 0.16181 0.0
O24 O 0.01504 0.3237 0.18619 0.0
C25 C -0.01206 0.40916 0.07154 0.0
O26 O -0.00053 0.33082 0.12475 0.0
O27 O -0.00011 0.3879 0.06243 0.0
C28 C 0.08213 0.87379 0.75493 0.0
O29 O 0.05483 0.86989 0.72711 0.0
Cd30 Cd 0.97661 0.8578 0.73806 0.0
O31 O 0.06692 0.87451 0.78936 0.0
Cd32 Cd -0.00605 0.87355 0.82728 0.0
C33 C -0.00121 0.81457 0.80886 0.0
O34 O 0.94152 0.88723 0.77786 0.0
O35 O 0.90897 0.87171 0.82782 0.0
O36 O 0.01527 0.91296 0.84865 0.0
C37 C 0.90447 0.88174 0.79532 0.0
O38 O -0.01084 0.82121 0.77475 0.0
C39 C 0.01152 0.9089 0.88437 0.0
O40 O 0.00323 0.8298 0.83591 0.0
O41 O 0.00059 0.88773 0.89427 0.0
C42 C 0.91884 0.58412 0.75314 0.0
O43 O 0.94754 0.58833 0.72625 0.0
Cd44 Cd 0.02876 0.59441 0.73709 0.0
O45 O 0.93284 0.58101 0.78746 0.0
Cd46 Cd 0.00587 0.57824 0.82437 0.0
C47 C 0.02187 0.63716 0.80984 0.0
O48 O 0.05725 0.5623 0.77471 0.0
O49 O 0.09059 0.57622 0.82527 0.0
O50 O -0.02004 0.53965 0.84662 0.0
C51 C 0.09455 0.56607 0.79281 0.0
O52 O 0.03256 0.63047 0.7759 0.0
C53 C -0.01562 0.54385 0.88221 0.0
O54 O 0.00699 0.6222 0.83464 0.0
O55 O -0.00268 0.56478 0.89156 0.0
C56 C 0.57775 0.58906 0.69842 0.0
O57 O 0.54949 0.59759 0.72307 0.0
Cd58 Cd 0.46838 0.6043 0.71006 0.0
O59 O 0.56364 0.58269 0.66536 0.0
Cd60 Cd 0.49111 0.58018 0.62832 0.0
C61 C 0.47915 0.64055 0.63051 0.0
O62 O 0.4403 0.56879 0.681 0.0
O63 O 0.40623 0.57892 0.62822 0.0
O64 O 0.51508 0.54016 0.60917 0.0
C65 C 0.40291 0.57089 0.66222 0.0
O66 O 0.46494 0.63773 0.66491 0.0
C67 C 0.51106 0.54361 0.5733 0.0
O68 O 0.49475 0.62295 0.61086 0.0
O69 O 0.49895 0.56452 0.56263 0.0
C70 C 0.42199 0.86664 0.69767 0.0
O71 O 0.44891 0.85733 0.72243 0.0
Cd72 Cd 0.52947 0.84876 0.70938 0.0
O73 O 0.43727 0.87262 0.66471 0.0
Cd74 Cd 0.50999 0.87341 0.6276 0.0
C75 C 0.51751 0.81291 0.62962 0.0
O76 O 0.56069 0.88365 0.68042 0.0
O77 O 0.59512 0.8733 0.62774 0.0
O78 O 0.48827 0.91386 0.60947 0.0
C79 C 0.59832 0.88087 0.66199 0.0
O80 O 0.53119 0.81544 0.66412 0.0
C81 C 0.49216 0.91073 0.5735 0.0
O82 O 0.50348 0.83076 0.60986 0.0
O83 O 0.50346 0.88981 0.56222 0.0
C84 C 0.57869 0.37759 0.25349 0.0
O85 O 0.55166 0.37373 0.22547 0.0
Cd86 Cd 0.4731 0.36151 0.23529 0.0
O87 O 0.56344 0.37748 0.28792 0.0
Cd88 Cd 0.49157 0.37442 0.32671 0.0
C89 C 0.49441 0.31603 0.30274 0.0
O90 O 0.43949 0.38952 0.27833 0.0
O91 O 0.40638 0.37381 0.32783 0.0
O92 O 0.51537 0.41269 0.35056 0.0
C93 C 0.40223 0.3841 0.29551 0.0
O94 O 0.48427 0.3239 0.26939 0.0
C95 C 0.51115 0.40797 0.38603 0.0
O96 O 0.50027 0.33033 0.33091 0.0
O97 O 0.49867 0.38684 0.39477 0.0
C98 C 0.42265 0.07954 0.25298 0.0
O99 O 0.45128 0.08242 0.2256 0.0
Cd100 Cd 0.53127 0.09115 0.23719 0.0
O101 O 0.43663 0.07895 0.28764 0.0
Cd102 Cd 0.50912 0.0792 0.32537 0.0
C103 C 0.51788 0.13732 0.30453 0.0
O104 O 0.5635 0.06198 0.27903 0.0
O105 O 0.59325 0.08229 0.32549 0.0
O106 O 0.48517 0.04085 0.34883 0.0
C107 C 0.59952 0.06916 0.29618 0.0
O108 O 0.52953 0.12914 0.27163 0.0
C109 C 0.48932 0.04535 0.38433 0.0
O110 O 0.50469 0.12326 0.33129 0.0
O111 O 0.50174 0.06644 0.39333 0.0
H112 H 0.97709 0.28524 0.20716 0.0
H113 H 0.02252 0.16489 0.09095 0.0
H114 H 0.01659 0.28794 0.08749 0.0
H115 H 0.94139 0.17068 0.19518 0.0
H116 H 0.02393 0.209 0.08719 0.0
H117 H 0.96818 0.24238 0.20222 0.0
C118 C -0.01609 0.27676 0.17968 0.0
C119 C -0.00211 0.29021 0.14774 0.0
C120 C 0.00549 0.20046 0.11055 0.0
C121 C -0.01222 0.24059 0.14181 0.0
C122 C 0.00468 0.17534 0.11274 0.0
C123 C -0.01752 0.16402 0.14379 0.0
C124 C -0.01589 0.21412 0.1397 0.0
C125 C 0.95973 0.17846 0.17109 0.0
C126 C -0.02145 0.25219 0.1768 0.0
C127 C 0.00568 0.27818 0.11279 0.0
N128 N 0.9615 0.20259 0.16853 0.0
N129 N 0.00102 0.25389 0.11079 0.0
H130 H 0.04005 0.78426 0.75911 0.0
H131 H 0.97612 0.66381 0.86585 0.0
H132 H -0.02076 0.78645 0.87251 0.0
H133 H 0.07622 0.66945 0.7738 0.0
H134 H 0.97568 0.70784 0.87157 0.0
H135 H 0.05164 0.74147 0.76551 0.0
C136 C 0.02923 0.77566 0.78554 0.0
C137 C 0.00838 0.78887 0.81521 0.0
C138 C -0.0018 0.69929 0.85061 0.0
C139 C 0.02123 0.73944 0.82278 0.0
C140 C -0.00147 0.67422 0.84737 0.0
C141 C 0.02558 0.66299 0.8188 0.0
C142 C 0.02504 0.71296 0.82503 0.0
C143 C 0.05404 0.67731 0.79568 0.0
C144 C 0.03608 0.75117 0.78931 0.0
C145 C -0.0045 0.77682 0.849 0.0
N146 N 0.05261 0.70143 0.79906 0.0
N147 N 0.00151 0.75259 0.85172 0.0
H148 H 0.41269 0.67519 0.63571 0.0
H149 H 0.58421 0.77836 0.63149 0.0
H150 H 0.55088 0.66184 0.5926 0.0
H151 H 0.44366 0.79172 0.59507 0.0
H152 H 0.57401 0.73564 0.6182 0.0
H153 H 0.42208 0.7179 0.62191 0.0
C154 C 0.44461 0.68125 0.62253 0.0
C155 C 0.48109 0.66511 0.61523 0.0
C156 C 0.54579 0.748 0.61219 0.0
C157 C 0.49257 0.7138 0.60062 0.0
C158 C 0.55156 0.77229 0.61982 0.0
C159 C 0.51472 0.78843 0.61424 0.0
C160 C 0.50232 0.73974 0.60033 0.0
C161 C 0.47294 0.77977 0.59943 0.0
C162 C 0.4499 0.70554 0.61459 0.0
C163 C 0.52189 0.67378 0.59838 0.0
N164 N 0.46741 0.75585 0.5939 0.0
N165 N 0.52705 0.6977 0.59253 0.0
H166 H 0.51941 0.28494 0.24689 0.0
H167 H 0.48188 0.16469 0.36448 0.0
H168 H 0.48626 0.28761 0.3679 0.0
H169 H 0.55699 0.1701 0.25723 0.0
H170 H 0.47963 0.2088 0.36813 0.0
H171 H 0.52863 0.24199 0.25122 0.0
C172 C 0.51403 0.27645 0.27453 0.0
C173 C 0.50177 0.28992 0.30704 0.0
C174 C 0.49692 0.20017 0.3441 0.0
C175 C 0.51231 0.24021 0.31227 0.0
C176 C 0.4982 0.17506 0.34197 0.0
C177 C 0.51901 0.16362 0.31019 0.0
C178 C 0.51641 0.21372 0.31416 0.0
C179 C 0.53982 0.17796 0.28197 0.0
C180 C 0.51958 0.25182 0.27704 0.0
C181 C 0.49581 0.27785 0.34215 0.0
N182 N 0.53763 0.2021 0.28452 0.0
N183 N 0.50068 0.25352 0.34382 0.0
H184 H 0.37981 0.07847 0.18276 0.0
H185 H 0.12377 0.07891 0.27218 0.0
H186 H 0.35115 0.07584 0.30462 0.0
H187 H 0.15241 0.0754 0.15037 0.0
H188 H 0.20701 0.07704 0.28465 0.0
H189 H 0.29663 0.07662 0.17028 0.0
C190 C 0.35608 0.07741 0.2069 0.0
C191 C 0.37254 0.07741 0.24481 0.0
C192 C 0.19507 0.07657 0.2552 0.0
C193 C 0.27721 0.07537 0.23071 0.0
C194 C 0.14751 0.07765 0.24805 0.0
C195 C 0.13103 0.07741 0.21015 0.0
C196 C 0.22643 0.07536 0.22424 0.0
C197 C 0.16349 0.07569 0.18005 0.0
C198 C 0.30856 0.07634 0.19975 0.0
C199 C 0.3401 0.07595 0.27492 0.0
N200 N 0.20962 0.07485 0.18775 0.0
N201 N 0.29401 0.0751 0.26722 0.0
H202 H 0.64728 0.38398 0.3066 0.0
H203 H 0.85108 0.38453 0.15005 0.0
H204 H 0.62423 0.37971 0.18422 0.0
H205 H 0.87421 0.37945 0.27237 0.0
H206 H 0.76785 0.38776 0.16216 0.0
H207 H 0.73037 0.3873 0.29452 0.0
C208 C 0.65961 0.38389 0.27715 0.0
C209 C 0.6287 0.38135 0.24637 0.0
C210 C 0.79116 0.38606 0.18635 0.0
C211 C 0.72391 0.38511 0.2324 0.0
C212 C 0.83874 0.38426 0.17949 0.0
C213 C 0.86972 0.38151 0.21024 0.0
C214 C 0.77437 0.38516 0.22424 0.0
C215 C 0.85164 0.38138 0.24776 0.0
C216 C 0.70711 0.38576 0.2703 0.0
C217 C 0.64676 0.38147 0.20885 0.0
N218 N 0.80512 0.38305 0.25368 0.0
N219 N 0.69321 0.38319 0.20293 0.0
H220 H 0.15241 0.87474 0.80759 0.0
H221 H 0.35307 0.88098 0.64884 0.0
H222 H 0.12652 0.87796 0.68552 0.0
H223 H 0.37745 0.86053 0.76682 0.0
H224 H 0.27064 0.88548 0.66335 0.0
H225 H 0.23571 0.87527 0.79449 0.0
C226 C 0.16418 0.87578 0.77804 0.0
C227 C 0.1324 0.87615 0.74757 0.0
C228 C 0.29404 0.88006 0.68607 0.0
C229 C 0.22767 0.87672 0.73247 0.0
C230 C 0.34117 0.87753 0.67787 0.0
C231 C 0.37224 0.87022 0.70663 0.0
C232 C 0.2778 0.87541 0.72337 0.0
C233 C 0.35472 0.86605 0.7437 0.0
C234 C 0.21175 0.87597 0.77062 0.0
C235 C 0.14973 0.87749 0.70989 0.0
N236 N 0.30862 0.86868 0.75101 0.0
N237 N 0.19621 0.87766 0.70341 0.0
H238 H 0.61999 0.59536 0.76818 0.0
H239 H 0.8766 0.58355 0.68275 0.0
H240 H 0.64938 0.57818 0.6495 0.0
H241 H 0.84659 0.58309 0.80445 0.0
H242 H 0.7934 0.58362 0.66974 0.0
H243 H 0.70305 0.59298 0.78189 0.0
C244 C 0.64385 0.59104 0.74503 0.0
C245 C 0.62767 0.587 0.70762 0.0
C246 C 0.80504 0.58339 0.69928 0.0
C247 C 0.7227 0.58438 0.72308 0.0
C248 C 0.85254 0.58341 0.70674 0.0
C249 C 0.86862 0.58335 0.74475 0.0
C250 C 0.77334 0.58356 0.73003 0.0
C251 C 0.83579 0.5831 0.77469 0.0
C252 C 0.69124 0.58963 0.7529 0.0
C253 C 0.66022 0.58141 0.67878 0.0
N254 N 0.78971 0.58336 0.76669 0.0
N255 N 0.70617 0.58039 0.68707 0.0
H256 H 0.68441 0.88079 0.62871 0.0
H257 H 0.8188 0.87638 0.82796 0.0
H258 H 0.6151 0.88682 0.73853 0.0
H259 H 0.88647 0.89241 0.72021 0.0
H260 H 0.74374 0.87832 0.79553 0.0
H261 H 0.75919 0.88321 0.66144 0.0
C262 C 0.68496 0.88272 0.65968 0.0
C263 C 0.64359 0.88352 0.68098 0.0
C264 C 0.77501 0.88158 0.77906 0.0
C265 C 0.72876 0.88611 0.71854 0.0
C266 C 0.81782 0.88041 0.79752 0.0
C267 C 0.85884 0.88416 0.77669 0.0
C268 C 0.77334 0.88621 0.73942 0.0
C269 C 0.85563 0.88941 0.73734 0.0
C270 C 0.72758 0.88417 0.67832 0.0
C271 C 0.64621 0.88613 0.72102 0.0
N272 N 0.8136 0.89008 0.71988 0.0
N273 N 0.68812 0.88713 0.73855 0.0
H274 H 0.31754 0.57027 0.62817 0.0
H275 H 0.17968 0.56827 0.8266 0.0
H276 H 0.38485 0.56242 0.7381 0.0
H277 H 0.11357 0.55668 0.71718 0.0
H278 H 0.25527 0.56646 0.79468 0.0
H279 H 0.24228 0.56577 0.66 0.0
C280 C 0.31647 0.56748 0.65896 0.0
C281 C 0.35743 0.56686 0.68057 0.0
C282 C 0.22426 0.56408 0.77769 0.0
C283 C 0.27162 0.56184 0.71714 0.0
C284 C 0.18112 0.56515 0.79589 0.0
C285 C 0.14035 0.56275 0.77445 0.0
C286 C 0.22661 0.56091 0.7377 0.0
C287 C 0.14419 0.55864 0.73477 0.0
C288 C 0.27355 0.56484 0.67709 0.0
C289 C 0.3541 0.56308 0.72035 0.0
N290 N 0.18659 0.5581 0.71758 0.0
N291 N 0.3119 0.56093 0.73741 0.0
H292 H 0.63472 0.03193 0.25398 0.0
H293 H 0.83448 0.10369 0.15853 0.0
H294 H 0.66768 0.10236 0.29597 0.0
H295 H 0.86902 0.03359 0.20249 0.0
H296 H 0.76034 0.10218 0.19322 0.0
H297 H 0.71009 0.03062 0.22015 0.0
C298 C 0.65793 0.047 0.25618 0.0
C299 C 0.6454 0.06722 0.27784 0.0
C300 C 0.78414 0.0871 0.19491 0.0
C301 C 0.72975 0.06612 0.23867 0.0
C302 C 0.82611 0.08785 0.17503 0.0
C303 C 0.85767 0.06871 0.17781 0.0
C304 C 0.77326 0.06682 0.21668 0.0
C305 C 0.84547 0.04869 0.19986 0.0
C306 C 0.70063 0.04621 0.23706 0.0
C307 C 0.67638 0.08637 0.27983 0.0
N308 N 0.8038 0.04813 0.21832 0.0
N309 N 0.71692 0.08552 0.25992 0.0
H310 H 0.1826 0.38002 0.12912 0.0
H311 H 0.31628 0.38037 0.32821 0.0
H312 H 0.11344 0.3934 0.23736 0.0
H313 H 0.38497 0.3936 0.21991 0.0
H314 H 0.24137 0.38254 0.29548 0.0
H315 H 0.25745 0.38237 0.16182 0.0
C316 C 0.18321 0.38355 0.15972 0.0
C317 C 0.14186 0.38646 0.18062 0.0
C318 C 0.27285 0.38515 0.27897 0.0
C319 C 0.22705 0.38894 0.21814 0.0
C320 C 0.31554 0.38384 0.29759 0.0
C321 C 0.35678 0.38675 0.27669 0.0
C322 C 0.27152 0.38902 0.23912 0.0
C323 C 0.35394 0.39129 0.2371 0.0
C324 C 0.22586 0.38497 0.17831 0.0
C325 C 0.14455 0.39107 0.22018 0.0
N326 N 0.312 0.39205 0.21949 0.0
N327 N 0.18646 0.39195 0.23776 0.0
H328 H 0.00941 0.04799 -0.00736 0.0
H329 H 0.0112 0.90615 0.96321 0.0
H330 H 0.02878 -0.00244 0.08532 0.0
H331 H 0.02456 0.95629 0.86951 0.0
H332 H 0.01616 0.93951 0.00861 0.0
H333 H 0.01363 0.01472 0.94678 0.0
C334 C 0.01489 0.02998 0.0033 0.0
C335 C 0.01859 0.02555 0.04284 0.0
C336 C 0.01833 0.94317 -0.0219 0.0
C337 C 0.02297 -0.01256 -0.00926 0.0
C338 C 0.01546 0.92413 0.95221 0.0
C339 C 0.01735 0.92844 0.91255 0.0
C340 C 0.02263 0.96669 0.96419 0.0
C341 C 0.02291 0.95213 0.89987 0.0
C342 C 0.0173 0.011 -0.02284 0.0
C343 C 0.02565 0.00184 0.05509 0.0
N344 N 0.02501 0.97036 0.92557 0.0
N345 N 0.02725 -0.01631 0.0292 0.0
H346 H -0.01379 0.54713 0.96094 0.0
H347 H -0.0106 0.40564 -0.00734 0.0
H348 H 0.96864 0.49655 0.86851 0.0
H349 H 0.97142 0.45651 0.085 0.0
H350 H -0.01685 0.43861 0.94639 0.0
H351 H -0.018 0.51409 0.00701 0.0
C352 C -0.01892 0.52912 0.95037 0.0
C353 C -0.02209 0.52459 0.91085 0.0
C354 C -0.01978 0.44249 -0.0232 0.0
C355 C 0.97363 0.48669 0.96326 0.0
C356 C -0.01617 0.42369 0.00317 0.0
C357 C -0.0189 0.42833 0.04273 0.0
C358 C 0.97436 0.46609 -0.00986 0.0
C359 C 0.97383 0.45207 0.05477 0.0
C360 C -0.02132 0.51026 -0.02335 0.0
C361 C 0.97129 0.50088 0.89874 0.0
N362 N 0.97109 0.47005 0.02864 0.0
N363 N 0.96979 0.4828 0.9248 0.0
H364 H 0.50531 0.40458 0.46487 0.0
H365 H 0.51405 0.54604 0.49473 0.0
H366 H 0.53182 0.45473 0.37315 0.0
H367 H 0.52239 0.49599 0.589 0.0
H368 H 0.51943 0.51256 0.44968 0.0
H369 H 0.51058 0.43753 0.51122 0.0
C370 C 0.5126 0.42244 0.45453 0.0
C371 C 0.51789 0.42692 0.4151 0.0
C372 C 0.52045 0.5089 0.48023 0.0
C373 C 0.5235 0.46463 0.46772 0.0
C374 C 0.51732 0.52802 0.50594 0.0
C375 C 0.51765 0.52379 0.54564 0.0
C376 C 0.52335 0.48535 0.49432 0.0
C377 C 0.52201 0.50006 0.55858 0.0
C378 C 0.51562 0.44123 0.48095 0.0
C379 C 0.52732 0.45042 0.40326 0.0
N380 N 0.52429 0.48171 0.533 0.0
N381 N 0.52943 0.46838 0.42939 0.0
H382 H 0.48104 0.95817 0.59058 0.0
H383 H 0.4672 -0.00113 0.37081 0.0
H384 H 0.48911 0.90919 0.49483 0.0
H385 H 0.49672 0.04796 0.46315 0.0
H386 H 0.46292 0.96634 0.41718 0.0
H387 H 0.47513 -0.00843 0.54539 0.0
C388 C 0.48123 0.95442 0.56004 0.0
C389 C 0.48578 0.93085 0.54641 0.0
C390 C 0.47014 -0.01578 0.42737 0.0
C391 C 0.4789 0.969 0.49467 0.0
C392 C 0.47244 0.00288 0.40094 0.0
C393 C 0.48267 0.02619 0.4131 0.0
C394 C 0.47789 -0.01116 0.46641 0.0
C395 C 0.48894 0.03025 0.45252 0.0
C396 C 0.478 0.97351 0.53431 0.0
C397 C 0.48587 0.92707 0.50658 0.0
N398 N 0.48661 0.01171 0.47782 0.0
N399 N 0.48252 0.94595 0.48211 0.0
loop_
_geom_bond_atom_site_label_1
_geom_bond_atom_site_label_2
_geom_bond_distance
_geom_bond_site_symmetry_2
_ccdc_geom_bond_type
C0 O1 1.306 . S
C0 O3 1.160 . S
O1 C0 1.306 . S
O1 Cd2 2.228 . S
Cd2 O1 2.228 . S
Cd2 O6 2.273 1_455 S
Cd2 O10 2.277 . S
O3 C0 1.160 . S
O3 Cd4 2.203 . S
Cd4 O3 2.203 . S
Cd4 O6 2.411 1_455 S
Cd4 O7 2.333 1_455 S
Cd4 O8 2.352 . S
Cd4 O12 2.277 . S
Cd4 O13 2.356 . S
C5 O10 1.209 . S
C5 O12 1.226 . S
O6 Cd2 2.273 1_655 S
O6 Cd4 2.411 1_655 S
O6 C9 1.320 . S
O7 Cd4 2.333 1_655 S
O7 C9 1.214 . S
O8 Cd4 2.352 . S
O8 C11 1.258 . S
C9 O6 1.320 . S
C9 O7 1.214 . S
O10 Cd2 2.277 . S
O10 C5 1.209 . S
C11 O8 1.258 . S
C11 O13 1.282 . S
O12 Cd4 2.277 . S
O12 C5 1.226 . S
O13 Cd4 2.356 . S
O13 C11 1.282 . S
C14 O15 1.306 . S
C14 O17 1.160 . S
O15 C14 1.306 . S
O15 Cd16 2.228 1_655 S
Cd16 O15 2.228 1_455 S
Cd16 O20 2.273 . S
Cd16 O24 2.277 . S
O17 C14 1.160 . S
O17 Cd18 2.203 1_655 S
Cd18 O17 2.203 1_455 S
Cd18 O20 2.411 . S
Cd18 O21 2.333 . S
Cd18 O22 2.352 . S
Cd18 O26 2.277 . S
Cd18 O27 2.356 . S
C19 O24 1.209 . S
C19 O26 1.226 . S
O20 Cd16 2.273 . S
O20 Cd18 2.411 . S
O20 C23 1.320 . S
O21 Cd18 2.333 . S
O21 C23 1.214 . S
O22 Cd18 2.352 . S
O22 C25 1.258 . S
C23 O20 1.320 . S
C23 O21 1.214 . S
O24 Cd16 2.277 . S
O24 C19 1.209 . S
C25 O22 1.258 . S
C25 O27 1.282 . S
O26 Cd18 2.277 . S
O26 C19 1.226 . S
O27 Cd18 2.356 . S
O27 C25 1.282 . S
C28 O29 1.306 . S
C28 O31 1.160 . S
O29 C28 1.306 . S
O29 Cd30 2.228 . S
Cd30 O29 2.228 . S
Cd30 O34 2.273 1_455 S
Cd30 O38 2.277 . S
O31 C28 1.160 . S
O31 Cd32 2.203 . S
Cd32 O31 2.203 . S
Cd32 O34 2.411 1_455 S
Cd32 O35 2.333 1_455 S
Cd32 O36 2.352 . S
Cd32 O40 2.277 . S
Cd32 O41 2.356 . S
C33 O38 1.209 . S
C33 O40 1.226 . S
O34 Cd30 2.273 1_655 S
O34 Cd32 2.411 1_655 S
O34 C37 1.320 . S
O35 Cd32 2.333 1_655 S
O35 C37 1.214 . S
O36 Cd32 2.352 . S
O36 C39 1.258 . S
C37 O34 1.320 . S
C37 O35 1.214 . S
O38 Cd30 2.277 . S
O38 C33 1.209 . S
C39 O36 1.258 . S
C39 O41 1.282 . S
O40 Cd32 2.277 . S
O40 C33 1.226 . S
O41 Cd32 2.356 . S
O41 C39 1.282 . S
C42 O43 1.306 . S
C42 O45 1.160 . S
O43 C42 1.306 . S
O43 Cd44 2.228 1_655 S
Cd44 O43 2.228 1_455 S
Cd44 O48 2.273 . S
Cd44 O52 2.277 . S
O45 C42 1.160 . S
O45 Cd46 2.203 1_655 S
Cd46 O45 2.203 1_455 S
Cd46 O48 2.411 . S
Cd46 O49 2.333 . S
Cd46 O50 2.352 . S
Cd46 O54 2.277 . S
Cd46 O55 2.356 . S
C47 O52 1.209 . S
C47 O54 1.226 . S
O48 Cd44 2.273 . S
O48 Cd46 2.411 . S
O48 C51 1.320 . S
O49 Cd46 2.333 . S
O49 C51 1.214 . S
O50 Cd46 2.352 . S
O50 C53 1.258 . S
C51 O48 1.320 . S
C51 O49 1.214 . S
O52 Cd44 2.277 . S
O52 C47 1.209 . S
C53 O50 1.258 . S
C53 O55 1.282 . S
O54 Cd46 2.277 . S
O54 C47 1.226 . S
O55 Cd46 2.356 . S
O55 C53 1.282 . S
C56 O57 1.306 . S
C56 O59 1.160 . S
O57 C56 1.306 . S
O57 Cd58 2.228 . S
Cd58 O57 2.228 . S
Cd58 O62 2.273 . S
Cd58 O66 2.277 . S
O59 C56 1.160 . S
O59 Cd60 2.203 . S
Cd60 O59 2.203 . S
Cd60 O62 2.411 . S
Cd60 O63 2.333 . S
Cd60 O64 2.352 . S
Cd60 O68 2.277 . S
Cd60 O69 2.356 . S
C61 O66 1.209 . S
C61 O68 1.226 . S
O62 Cd58 2.273 . S
O62 Cd60 2.411 . S
O62 C65 1.320 . S
O63 Cd60 2.333 . S
O63 C65 1.214 . S
O64 Cd60 2.352 . S
O64 C67 1.258 . S
C65 O62 1.320 . S
C65 O63 1.214 . S
O66 Cd58 2.277 . S
O66 C61 1.209 . S
C67 O64 1.258 . S
C67 O69 1.282 . S
O68 Cd60 2.277 . S
O68 C61 1.226 . S
O69 Cd60 2.356 . S
O69 C67 1.282 . S
C70 O71 1.306 . S
C70 O73 1.160 . S
O71 C70 1.306 . S
O71 Cd72 2.228 . S
Cd72 O71 2.228 . S
Cd72 O76 2.273 . S
Cd72 O80 2.277 . S
O73 C70 1.160 . S
O73 Cd74 2.203 . S
Cd74 O73 2.203 . S
Cd74 O76 2.411 . S
Cd74 O77 2.333 . S
Cd74 O78 2.352 . S
Cd74 O82 2.277 . S
Cd74 O83 2.356 . S
C75 O80 1.209 . S
C75 O82 1.226 . S
O76 Cd72 2.273 . S
O76 Cd74 2.411 . S
O76 C79 1.320 . S
O77 Cd74 2.333 . S
O77 C79 1.214 . S
O78 Cd74 2.352 . S
O78 C81 1.258 . S
C79 O76 1.320 . S
C79 O77 1.214 . S
O80 Cd72 2.277 . S
O80 C75 1.209 . S
C81 O78 1.258 . S
C81 O83 1.282 . S
O82 Cd74 2.277 . S
O82 C75 1.226 . S
O83 Cd74 2.356 . S
O83 C81 1.282 . S
C84 O85 1.306 . S
C84 O87 1.160 . S
O85 C84 1.306 . S
O85 Cd86 2.228 . S
Cd86 O85 2.228 . S
Cd86 O90 2.273 . S
Cd86 O94 2.277 . S
O87 C84 1.160 . S
O87 Cd88 2.203 . S
Cd88 O87 2.203 . S
Cd88 O90 2.411 . S
Cd88 O91 2.333 . S
Cd88 O92 2.352 . S
Cd88 O96 2.277 . S
Cd88 O97 2.356 . S
C89 O94 1.209 . S
C89 O96 1.226 . S
O90 Cd86 2.273 . S
O90 Cd88 2.411 . S
O90 C93 1.320 . S
O91 Cd88 2.333 . S
O91 C93 1.214 . S
O92 Cd88 2.352 . S
O92 C95 1.258 . S
C93 O90 1.320 . S
C93 O91 1.214 . S
O94 Cd86 2.277 . S
O94 C89 1.209 . S
C95 O92 1.258 . S
C95 O97 1.282 . S
O96 Cd88 2.277 . S
O96 C89 1.226 . S
O97 Cd88 2.356 . S
O97 C95 1.282 . S
C98 O99 1.306 . S
C98 O101 1.160 . S
O99 C98 1.306 . S
O99 Cd100 2.228 . S
Cd100 O99 2.228 . S
Cd100 O104 2.273 . S
Cd100 O108 2.277 . S
O101 C98 1.160 . S
O101 Cd102 2.203 . S
Cd102 O101 2.203 . S
Cd102 O104 2.411 . S
Cd102 O105 2.333 . S
Cd102 O106 2.352 . S
Cd102 O110 2.277 . S
Cd102 O111 2.356 . S
C103 O108 1.209 . S
C103 O110 1.226 . S
O104 Cd100 2.273 . S
O104 Cd102 2.411 . S
O104 C107 1.320 . S
O105 Cd102 2.333 . S
O105 C107 1.214 . S
O106 Cd102 2.352 . S
O106 C109 1.258 . S
C107 O104 1.320 . S
C107 O105 1.214 . S
O108 Cd100 2.277 . S
O108 C103 1.209 . S
C109 O106 1.258 . S
C109 O111 1.282 . S
O110 Cd102 2.277 . S
O110 C103 1.226 . S
O111 Cd102 2.356 . S
O111 C109 1.282 . S
H112 C118 0.930 1_655 S
H113 C122 0.930 . S
H114 C127 0.929 . S
H115 C125 0.932 . S
H116 C120 0.929 . S
H117 C126 0.929 1_655 S
C118 H112 0.930 1_455 S
C118 C119 1.367 . S
C118 C126 1.378 . S
C119 C118 1.367 . S
C119 C127 1.433 . S
C120 H116 0.929 . S
C120 C122 1.378 . S
C120 C124 1.350 . S
C121 C124 1.463 . S
C121 C126 1.350 . S
C121 N129 1.427 . S
C122 H113 0.930 . S
C122 C120 1.378 . S
C122 C123 1.367 . S
C123 C122 1.367 . S
C123 C125 1.431 1_455 S
C124 C120 1.350 . S
C124 C121 1.463 . S
C124 N128 1.432 . S
C125 H115 0.932 . S
C125 C123 1.431 1_655 S
C125 N128 1.383 1_655 S
C126 H117 0.929 1_455 S
C126 C118 1.378 . S
C126 C121 1.350 . S
C127 H114 0.929 . S
C127 C119 1.433 . S
C127 N129 1.384 . S
N128 C124 1.432 . S
N128 C125 1.383 1_455 S
N129 C121 1.427 . S
N129 C127 1.384 . S
H130 C136 0.930 . S
H131 C140 0.930 . S
H132 C145 0.929 . S
H133 C143 0.929 . S
H134 C138 0.929 . S
H135 C144 0.929 . S
C136 H130 0.930 . S
C136 C137 1.367 . S
C136 C144 1.378 . S
C137 C136 1.367 . S
C137 C145 1.433 . S
C138 H134 0.929 . S
C138 C140 1.378 . S
C138 C142 1.350 . S
C139 C142 1.463 . S
C139 C144 1.350 . S
C139 N147 1.427 . S
C140 H131 0.930 . S
C140 C138 1.378 . S
C140 C141 1.367 . S
C141 C140 1.367 . S
C141 C143 1.433 . S
C142 C138 1.350 . S
C142 C139 1.463 . S
C142 N146 1.427 . S
C143 H133 0.929 . S
C143 C141 1.433 . S
C143 N146 1.384 . S
C144 H135 0.929 . S
C144 C136 1.378 . S
C144 C139 1.350 . S
C145 H132 0.929 . S
C145 C137 1.433 . S
C145 N147 1.384 . S
N146 C142 1.427 . S
N146 C143 1.384 . S
N147 C139 1.427 . S
N147 C145 1.384 . S
H148 C154 0.930 . S
H149 C158 0.930 . S
H150 C163 0.929 . S
H151 C161 0.929 . S
H152 C156 0.929 . S
H153 C162 0.929 . S
C154 H148 0.930 . S
C154 C155 1.367 . S
C154 C162 1.378 . S
C155 C154 1.367 . S
C155 C163 1.433 . S
C156 H152 0.929 . S
C156 C158 1.378 . S
C156 C160 1.350 . S
C157 C160 1.463 . S
C157 C162 1.350 . S
C157 N165 1.427 . S
C158 H149 0.930 . S
C158 C156 1.378 . S
C158 C159 1.367 . S
C159 C158 1.367 . S
C159 C161 1.433 . S
C160 C156 1.350 . S
C160 C157 1.463 . S
C160 N164 1.427 . S
C161 H151 0.929 . S
C161 C159 1.433 . S
C161 N164 1.384 . S
C162 H153 0.929 . S
C162 C154 1.378 . S
C162 C157 1.350 . S
C163 H150 0.929 . S
C163 C155 1.433 . S
C163 N165 1.384 . S
N164 C160 1.427 . S
N164 C161 1.384 . S
N165 C157 1.427 . S
N165 C163 1.384 . S
H166 C172 0.930 . S
H167 C176 0.930 . S
H168 C181 0.929 . S
H169 C179 0.929 . S
H170 C174 0.929 . S
H171 C180 0.929 . S
C172 H166 0.930 . S
C172 C173 1.367 . S
C172 C180 1.378 . S
C173 C172 1.367 . S
C173 C181 1.433 . S
C174 H170 0.929 . S
C174 C176 1.378 . S
C174 C178 1.350 . S
C175 C178 1.463 . S
C175 C180 1.350 . S
C175 N183 1.427 . S
C176 H167 0.930 . S
C176 C174 1.378 . S
C176 C177 1.367 . S
C177 C176 1.367 . S
C177 C179 1.433 . S
C178 C174 1.350 . S
C178 C175 1.463 . S
C178 N182 1.427 . S
C179 H169 0.929 . S
C179 C177 1.433 . S
C179 N182 1.384 . S
C180 H171 0.929 . S
C180 C172 1.378 . S
C180 C175 1.350 . S
C181 H168 0.929 . S
C181 C173 1.433 . S
C181 N183 1.384 . S
N182 C178 1.427 . S
N182 C179 1.384 . S
N183 C175 1.427 . S
N183 C181 1.384 . S
H184 C190 0.930 . S
H185 C194 0.930 . S
H186 C199 0.929 . S
H187 C197 0.929 . S
H188 C192 0.929 . S
H189 C198 0.929 . S
C190 H184 0.930 . S
C190 C191 1.367 . S
C190 C198 1.378 . S
C191 C190 1.367 . S
C191 C199 1.433 . S
C192 H188 0.929 . S
C192 C194 1.378 . S
C192 C196 1.350 . S
C193 C196 1.463 . S
C193 C198 1.350 . S
C193 N201 1.427 . S
C194 H185 0.930 . S
C194 C192 1.378 . S
C194 C195 1.367 . S
C195 C194 1.367 . S
C195 C197 1.433 . S
C196 C192 1.350 . S
C196 C193 1.463 . S
C196 N200 1.427 . S
C197 H187 0.929 . S
C197 C195 1.433 . S
C197 N200 1.384 . S
C198 H189 0.929 . S
C198 C190 1.378 . S
C198 C193 1.350 . S
C199 H186 0.929 . S
C199 C191 1.433 . S
C199 N201 1.384 . S
N200 C196 1.427 . S
N200 C197 1.384 . S
N201 C193 1.427 . S
N201 C199 1.384 . S
H202 C208 0.930 . S
H203 C212 0.930 . S
H204 C217 0.929 . S
H205 C215 0.929 . S
H206 C210 0.929 . S
H207 C216 0.929 . S
C208 H202 0.930 . S
C208 C209 1.367 . S
C208 C216 1.378 . S
C209 C208 1.367 . S
C209 C217 1.433 . S
C210 H206 0.929 . S
C210 C212 1.378 . S
C210 C214 1.350 . S
C211 C214 1.463 . S
C211 C216 1.350 . S
C211 N219 1.427 . S
C212 H203 0.930 . S
C212 C210 1.378 . S
C212 C213 1.367 . S
C213 C212 1.367 . S
C213 C215 1.433 . S
C214 C210 1.350 . S
C214 C211 1.463 . S
C214 N218 1.427 . S
C215 H205 0.929 . S
C215 C213 1.433 . S
C215 N218 1.384 . S
C216 H207 0.929 . S
C216 C208 1.378 . S
C216 C211 1.350 . S
C217 H204 0.929 . S
C217 C209 1.433 . S
C217 N219 1.384 . S
N218 C214 1.427 . S
N218 C215 1.384 . S
N219 C211 1.427 . S
N219 C217 1.384 . S
H220 C226 0.930 . S
H221 C230 0.930 . S
H222 C235 0.929 . S
H223 C233 0.929 . S
H224 C228 0.929 . S
H225 C234 0.929 . S
C226 H220 0.930 . S
C226 C227 1.367 . S
C226 C234 1.378 . S
C227 C226 1.367 . S
C227 C235 1.433 . S
C228 H224 0.929 . S
C228 C230 1.378 . S
C228 C232 1.350 . S
C229 C232 1.463 . S
C229 C234 1.350 . S
C229 N237 1.427 . S
C230 H221 0.930 . S
C230 C228 1.378 . S
C230 C231 1.367 . S
C231 C230 1.367 . S
C231 C233 1.433 . S
C232 C228 1.350 . S
C232 C229 1.463 . S
C232 N236 1.427 . S
C233 H223 0.929 . S
C233 C231 1.433 . S
C233 N236 1.384 . S
C234 H225 0.929 . S
C234 C226 1.378 . S
C234 C229 1.350 . S
C235 H222 0.929 . S
C235 C227 1.433 . S
C235 N237 1.384 . S
N236 C232 1.427 . S
N236 C233 1.384 . S
N237 C229 1.427 . S
N237 C235 1.384 . S
H238 C244 0.930 . S
H239 C248 0.930 . S
H240 C253 0.929 . S
H241 C251 0.929 . S
H242 C246 0.929 . S
H243 C252 0.929 . S
C244 H238 0.930 . S
C244 C245 1.367 . S
C244 C252 1.378 . S
C245 C244 1.367 . S
C245 C253 1.433 . S
C246 H242 0.929 . S
C246 C248 1.378 . S
C246 C250 1.350 . S
C247 C250 1.463 . S
C247 C252 1.350 . S
C247 N255 1.427 . S
C248 H239 0.930 . S
C248 C246 1.378 . S
C248 C249 1.367 . S
C249 C248 1.367 . S
C249 C251 1.433 . S
C250 C246 1.350 . S
C250 C247 1.463 . S
C250 N254 1.427 . S
C251 H241 0.929 . S
C251 C249 1.433 . S
C251 N254 1.384 . S
C252 H243 0.929 . S
C252 C244 1.378 . S
C252 C247 1.350 . S
C253 H240 0.929 . S
C253 C245 1.433 . S
C253 N255 1.384 . S
N254 C250 1.427 . S
N254 C251 1.384 . S
N255 C247 1.427 . S
N255 C253 1.384 . S
H256 C262 0.930 . S
H257 C266 0.930 . S
H258 C271 0.929 . S
H259 C269 0.929 . S
H260 C264 0.929 . S
H261 C270 0.929 . S
C262 H256 0.930 . S
C262 C263 1.367 . S
C262 C270 1.378 . S
C263 C262 1.367 . S
C263 C271 1.433 . S
C264 H260 0.929 . S
C264 C266 1.378 . S
C264 C268 1.350 . S
C265 C268 1.463 . S
C265 C270 1.350 . S
C265 N273 1.427 . S
C266 H257 0.930 . S
C266 C264 1.378 . S
C266 C267 1.367 . S
C267 C266 1.367 . S
C267 C269 1.433 . S
C268 C264 1.350 . S
C268 C265 1.463 . S
C268 N272 1.427 . S
C269 H259 0.929 . S
C269 C267 1.433 . S
C269 N272 1.384 . S
C270 H261 0.929 . S
C270 C262 1.378 . S
C270 C265 1.350 . S
C271 H258 0.929 . S
C271 C263 1.433 . S
C271 N273 1.384 . S
N272 C268 1.427 . S
N272 C269 1.384 . S
N273 C265 1.427 . S
N273 C271 1.384 . S
H274 C280 0.930 . S
H275 C284 0.930 . S
H276 C289 0.929 . S
H277 C287 0.929 . S
H278 C282 0.929 . S
H279 C288 0.929 . S
C280 H274 0.930 . S
C280 C281 1.367 . S
C280 C288 1.378 . S
C281 C280 1.367 . S
C281 C289 1.433 . S
C282 H278 0.929 . S
C282 C284 1.378 . S
C282 C286 1.350 . S
C283 C286 1.463 . S
C283 C288 1.350 . S
C283 N291 1.427 . S
C284 H275 0.930 . S
C284 C282 1.378 . S
C284 C285 1.367 . S
C285 C284 1.367 . S
C285 C287 1.433 . S
C286 C282 1.350 . S
C286 C283 1.463 . S
C286 N290 1.427 . S
C287 H277 0.929 . S
C287 C285 1.433 . S
C287 N290 1.384 . S
C288 H279 0.929 . S
C288 C280 1.378 . S
C288 C283 1.350 . S
C289 H276 0.929 . S
C289 C281 1.433 . S
C289 N291 1.384 . S
N290 C286 1.427 . S
N290 C287 1.384 . S
N291 C283 1.427 . S
N291 C289 1.384 . S
H292 C298 0.930 . S
H293 C302 0.930 . S
H294 C307 0.929 . S
H295 C305 0.929 . S
H296 C300 0.929 . S
H297 C306 0.929 . S
C298 H292 0.930 . S
C298 C299 1.367 . S
C298 C306 1.378 . S
C299 C298 1.367 . S
C299 C307 1.433 . S
C300 H296 0.929 . S
C300 C302 1.378 . S
C300 C304 1.350 . S
C301 C304 1.463 . S
C301 C306 1.350 . S
C301 N309 1.427 . S
C302 H293 0.930 . S
C302 C300 1.378 . S
C302 C303 1.367 . S
C303 C302 1.367 . S
C303 C305 1.433 . S
C304 C300 1.350 . S
C304 C301 1.463 . S
C304 N308 1.427 . S
C305 H295 0.929 . S
C305 C303 1.433 . S
C305 N308 1.384 . S
C306 H297 0.929 . S
C306 C298 1.378 . S
C306 C301 1.350 . S
C307 H294 0.929 . S
C307 C299 1.433 . S
C307 N309 1.384 . S
N308 C304 1.427 . S
N308 C305 1.384 . S
N309 C301 1.427 . S
N309 C307 1.384 . S
H310 C316 0.930 . S
H311 C320 0.930 . S
H312 C325 0.929 . S
H313 C323 0.929 . S
H314 C318 0.929 . S
H315 C324 0.929 . S
C316 H310 0.930 . S
C316 C317 1.367 . S
C316 C324 1.378 . S
C317 C316 1.367 . S
C317 C325 1.433 . S
C318 H314 0.929 . S
C318 C320 1.378 . S
C318 C322 1.350 . S
C319 C322 1.463 . S
C319 C324 1.350 . S
C319 N327 1.427 . S
C320 H311 0.930 . S
C320 C318 1.378 . S
C320 C321 1.367 . S
C321 C320 1.367 . S
C321 C323 1.433 . S
C322 C318 1.350 . S
C322 C319 1.463 . S
C322 N326 1.427 . S
C323 H313 0.929 . S
C323 C321 1.433 . S
C323 N326 1.384 . S
C324 H315 0.929 . S
C324 C316 1.378 . S
C324 C319 1.350 . S
C325 H312 0.929 . S
C325 C317 1.433 . S
C325 N327 1.384 . S
N326 C322 1.427 . S
N326 C323 1.384 . S
N327 C319 1.427 . S
N327 C325 1.384 . S
H328 C334 0.930 . S
H329 C338 0.930 . S
H330 C343 0.929 . S
H331 C341 0.929 . S
H332 C336 0.929 1_554 S
H333 C342 0.929 1_556 S
C334 H328 0.930 . S
C334 C335 1.367 . S
C334 C342 1.378 . S
C335 C334 1.367 . S
C335 C343 1.433 . S
C336 H332 0.929 1_556 S
C336 C338 1.378 . S
C336 C340 1.350 . S
C337 C340 1.463 1_544 S
C337 C342 1.350 . S
C337 N345 1.427 . S
C338 H329 0.930 . S
C338 C336 1.378 . S
C338 C339 1.367 . S
C339 C338 1.367 . S
C339 C341 1.433 . S
C340 C336 1.350 . S
C340 C337 1.463 1_566 S
C340 N344 1.427 . S
C341 H331 0.929 . S
C341 C339 1.433 . S
C341 N344 1.384 . S
C342 H333 0.929 1_554 S
C342 C334 1.378 . S
C342 C337 1.350 . S
C343 H330 0.929 . S
C343 C335 1.433 . S
C343 N345 1.384 . S
N344 C340 1.427 . S
N344 C341 1.384 . S
N345 C337 1.427 . S
N345 C343 1.384 . S
H346 C352 0.930 . S
H347 C356 0.930 . S
H348 C361 0.929 . S
H349 C359 0.929 . S
H350 C354 0.929 1_556 S
H351 C360 0.929 1_554 S
C352 H346 0.930 . S
C352 C353 1.367 1_655 S
C352 C360 1.378 . S
C353 C352 1.367 1_455 S
C353 C361 1.433 . S
C354 H350 0.929 1_554 S
C354 C356 1.378 . S
C354 C358 1.350 . S
C355 C358 1.463 1_556 S
C355 C360 1.350 1_455 S
C355 N363 1.427 . S
C356 H347 0.930 . S
C356 C354 1.378 . S
C356 C357 1.367 . S
C357 C356 1.367 . S
C357 C359 1.433 1_455 S
C358 C354 1.350 . S
C358 C355 1.463 1_554 S
C358 N362 1.427 1_455 S
C359 H349 0.929 . S
C359 C357 1.433 1_655 S
C359 N362 1.384 . S
C360 H351 0.929 1_556 S
C360 C352 1.378 . S
C360 C355 1.350 1_655 S
C361 H348 0.929 . S
C361 C353 1.433 . S
C361 N363 1.384 . S
N362 C358 1.427 1_655 S
N362 C359 1.384 . S
N363 C355 1.427 . S
N363 C361 1.384 . S
H364 C370 0.930 . S
H365 C374 0.930 . S
H366 C379 0.929 . S
H367 C377 0.929 . S
H368 C372 0.929 . S
H369 C378 0.929 . S
C370 H364 0.930 . S
C370 C371 1.367 . S
C370 C378 1.378 . S
C371 C370 1.367 . S
C371 C379 1.433 . S
C372 H368 0.929 . S
C372 C374 1.378 . S
C372 C376 1.350 . S
C373 C376 1.463 . S
C373 C378 1.350 . S
C373 N381 1.427 . S
C374 H365 0.930 . S
C374 C372 1.378 . S
C374 C375 1.367 . S
C375 C374 1.367 . S
C375 C377 1.433 . S
C376 C372 1.350 . S
C376 C373 1.463 . S
C376 N380 1.427 . S
C377 H367 0.929 . S
C377 C375 1.433 . S
C377 N380 1.384 . S
C378 H369 0.929 . S
C378 C370 1.378 . S
C378 C373 1.350 . S
C379 H366 0.929 . S
C379 C371 1.433 . S
C379 N381 1.384 . S
N380 C376 1.427 . S
N380 C377 1.384 . S
N381 C373 1.427 . S
N381 C379 1.384 . S
H382 C388 0.930 . S
H383 C392 0.930 . S
H384 C397 0.929 . S
H385 C395 0.929 . S
H386 C390 0.929 1_565 S
H387 C396 0.929 1_545 S
C388 H382 0.930 . S
C388 C389 1.367 . S
C388 C396 1.378 . S
C389 C388 1.367 . S
C389 C397 1.433 . S
C390 H386 0.929 1_545 S
C390 C392 1.378 . S
C390 C394 1.350 . S
C391 C394 1.463 1_565 S
C391 C396 1.350 . S
C391 N399 1.427 . S
C392 H383 0.930 . S
C392 C390 1.378 . S
C392 C393 1.367 . S
C393 C392 1.367 . S
C393 C395 1.433 . S
C394 C390 1.350 . S
C394 C391 1.463 1_545 S
C394 N398 1.427 . S
C395 H385 0.929 . S
C395 C393 1.433 . S
C395 N398 1.384 . S
C396 H387 0.929 1_565 S
C396 C388 1.378 . S
C396 C391 1.350 . S
C397 H384 0.929 . S
C397 C389 1.433 . S
C397 N399 1.384 . S
N398 C394 1.427 . S
N398 C395 1.384 . S
N399 C391 1.427 . S
N399 C397 1.384 . S
C119 C19 1.441 . S
C123 C5 1.444 . S
C137 C33 1.441 . S
C141 C47 1.444 . S
C155 C61 1.443 . S
C159 C75 1.442 . S
C173 C89 1.441 . S
C177 C103 1.444 . S
C191 C98 1.416 . S
C195 C0 1.420 . S
C209 C84 1.422 . S
C213 C14 1.417 . S
C227 C28 1.422 . S
C231 C70 1.416 . S
C245 C56 1.418 . S
C249 C42 1.418 . S
C263 C79 1.414 . S
C267 C37 1.416 . S
C281 C65 1.413 . S
C285 C51 1.414 . S
C299 C107 1.418 . S
C303 C9 1.416 . S
C317 C23 1.413 . S
C321 C93 1.414 . S
C335 C11 1.384 . S
C339 C39 1.384 . S
C353 C53 1.385 . S
C357 C25 1.384 . S
C371 C95 1.384 . S
C375 C67 1.384 . S
C389 C81 1.386 . S
C393 C109 1.387 . S
