# Generated by pormake.
# Topology uom, (4)-cn, num edge types: 1
# Building blocks:
#     Node 0, Type 0, BuildingBlock: KOZSID_clean_sbu_0, # of connection points: 4
#     Node 1, Type 0, BuildingBlock: KOZSID_clean_sbu_0, # of connection points: 4
#     Node 2, Type 0, BuildingBlock: KOZSID_clean_sbu_0, # of connection points: 4
#     Node 3, Type 0, BuildingBlock: KOZSID_clean_sbu_0, # of connection points: 4
#     Node 4, Type 0, BuildingBlock: KOZSID_clean_sbu_0, # of connection points: 4
#     Node 5, Type 0, BuildingBlock: KOZSID_clean_sbu_0, # of connection points: 4
#     Edge 6, Type (0, 0), BuildingBlock: XIVTED_clean_linker_0, # of connection points: 2
#     Edge 7, Type (0, 0), BuildingBlock: XIVTED_clean_linker_0, # of connection points: 2
#     Edge 8, Type (0, 0), BuildingBlock: XIVTED_clean_linker_0, # of connection points: 2
#     Edge 9, Type (0, 0), BuildingBlock: XIVTED_clean_linker_0, # of connection points: 2
#     Edge 10, Type (0, 0), BuildingBlock: XIVTED_clean_linker_0, # of connection points: 2
#     Edge 11, Type (0, 0), BuildingBlock: XIVTED_clean_linker_0, # of connection points: 2
#     Edge 12, Type (0, 0), BuildingBlock: XIVTED_clean_linker_0, # of connection points: 2
#     Edge 13, Type (0, 0), BuildingBlock: XIVTED_clean_linker_0, # of connection points: 2
#     Edge 14, Type (0, 0), BuildingBlock: XIVTED_clean_linker_0, # of connection points: 2
#     Edge 15, Type (0, 0), BuildingBlock: XIVTED_clean_linker_0, # of connection points: 2
#     Edge 16, Type (0, 0), BuildingBlock: XIVTED_clean_linker_0, # of connection points: 2
#     Edge 17, Type (0, 0), BuildingBlock: XIVTED_clean_linker_0, # of connection points: 2
# Relax obj value: 0.150
# Max RMSD: 0.172
# Mean RMSD: 0.172
data_MOF--net-uom--node1-KOZSID_clean_sbu_0--edge1-XIVTED_clean_linker_0
_symmetry_space_group_name_H-M    P1
_symmetry_Int_Tables_number       1
_symmetry_cell_setting            triclinic
loop_
_symmetry_equiv_pos_as_xyz
'x, y, z'
_cell_length_a     38.324092
_cell_length_b     38.212457
_cell_length_c     42.062916
_cell_angle_alpha  90.018675
_cell_angle_beta   90.01228
_cell_angle_gamma 120.00681
loop_
_atom_site_label
_atom_site_type_symbol
_atom_site_fract_x
_atom_site_fract_y
_atom_site_fract_z
_atom_type_partial_charge
C0 C 0.34404 0.13228 0.10876 0.0
C1 C 0.33331 0.1093 0.1364 0.0
C2 C 0.33119 0.07334 0.12888 0.0
C3 C 0.33997 0.0758 0.09706 0.0
N4 N 0.34704 0.11096 0.08409 0.0
Co5 Co 0.35728 0.12524 0.03833 0.0
N6 N 0.33537 0.06805 0.02546 0.0
C7 C 0.33079 0.03787 0.04463 0.0
C8 C 0.31381 0.00126 0.02929 0.0
C9 C 0.30756 0.00904 0.99858 0.0
C10 C 0.32139 0.05022 0.99678 0.0
N11 N 0.36695 0.13945 0.99263 0.0
C12 C 0.35 0.11588 0.96665 0.0
C13 C 0.36543 0.13811 0.93897 0.0
C14 C 0.39293 0.17685 0.94815 0.0
C15 C 0.39287 0.17615 0.98082 0.0
N16 N 0.37986 0.18246 0.05103 0.0
C17 C 0.40509 0.21464 0.03333 0.0
C18 C 0.4175 0.25066 0.04872 0.0
C19 C 0.39908 0.2404 0.07793 0.0
C20 C 0.37609 0.19849 0.0787 0.0
N21 N 0.41054 0.13118 0.04225 0.0
C22 C 0.48427 0.13465 0.04965 0.0
C23 C 0.46161 0.11837 0.02202 0.0
C24 C 0.42461 0.11656 0.0189 0.0
C25 C 0.47001 0.15003 0.07322 0.0
C26 C 0.43325 0.14851 0.06886 0.0
N27 N 0.30427 0.11906 0.03449 0.0
C28 C 0.26097 0.1433 0.01627 0.0
C29 C 0.22731 0.10794 0.02731 0.0
C30 C 0.23311 0.07841 0.04205 0.0
C31 C 0.27178 0.08481 0.04578 0.0
C32 C 0.29924 0.14813 0.0199 0.0
H33 H 0.2753 0.06175 0.0575 0.0
H34 H 0.32474 0.17527 0.01085 0.0
H35 H 0.40702 0.1026 0.99786 0.0
H36 H 0.4229 0.16073 0.08728 0.0
C37 C 0.33425 0.04347 0.07767 0.0
C38 C 0.35386 0.17493 0.10688 0.0
C39 C 0.32231 0.07192 0.96753 0.0
C40 C 0.41093 0.20993 1.00099 0.0
H41 H 0.32719 0.11716 0.15959 0.0
H42 H 0.32221 0.04767 0.14444 0.0
H43 H 0.30481 0.97199 0.03958 0.0
H44 H 0.29388 0.98675 0.97992 0.0
H45 H 0.3579 0.12735 0.91475 0.0
H46 H 0.4098 0.2027 0.93281 0.0
H47 H 0.43664 0.28082 0.03951 0.0
H48 H 0.40263 0.2614 0.09662 0.0
H49 H 0.47184 0.106 1.00343 0.0
H50 H 0.48713 0.16307 0.09479 0.0
H51 H 0.25794 0.1672 1.00516 0.0
H52 H 0.208 0.05025 0.05041 0.0
C53 C 0.31733 0.37518 0.43349 0.0
C54 C 0.33331 0.37045 0.46168 0.0
C55 C 0.36597 0.36654 0.45352 0.0
C56 C 0.36817 0.36917 0.42091 0.0
N57 N 0.33883 0.3743 0.40822 0.0
Co58 Co 0.3307 0.3793 0.36231 0.0
N59 N 0.3626 0.35366 0.35011 0.0
C60 C 0.39015 0.35149 0.36857 0.0
C61 C 0.40864 0.33327 0.35341 0.0
C62 C 0.39171 0.32362 0.3236 0.0
C63 C 0.36349 0.33627 0.32226 0.0
N64 N 0.322 0.38362 0.31633 0.0
C65 C 0.32441 0.36224 0.29145 0.0
C66 C 0.31216 0.37246 0.26357 0.0
C67 C 0.30334 0.4021 0.27126 0.0
C68 C 0.3099 0.40799 0.30339 0.0
N69 N 0.29942 0.40562 0.37466 0.0
C70 C 0.29092 0.42871 0.35569 0.0
C71 C 0.26796 0.44215 0.37067 0.0
C72 C 0.26183 0.42661 0.40091 0.0
C73 C 0.28164 0.40461 0.40277 0.0
N74 N 0.37986 0.43193 0.36129 0.0
C75 C 0.45539 0.50154 0.36355 0.0
C76 C 0.44374 0.47631 0.33693 0.0
C77 C 0.40598 0.4415 0.33636 0.0
C78 C 0.42791 0.49249 0.38836 0.0
C79 C 0.38993 0.45784 0.38651 0.0
N80 N 0.28226 0.32681 0.36337 0.0
C81 C 0.21285 0.28315 0.34968 0.0
C82 C 0.21479 0.25032 0.36216 0.0
C83 C 0.2505 0.25636 0.37588 0.0
C84 C 0.2838 0.29498 0.3766 0.0
C85 C 0.24723 0.32131 0.35026 0.0
H86 H 0.311 0.299 0.38748 0.0
H87 H 0.24568 0.34621 0.33976 0.0
H88 H 0.39863 0.42153 0.31626 0.0
H89 H 0.36928 0.45124 0.40601 0.0
C90 C 0.39227 0.36009 0.40126 0.0
C91 C 0.28425 0.38413 0.43154 0.0
C92 C 0.34032 0.33411 0.2936 0.0
C93 C 0.29729 0.42943 0.32282 0.0
H94 H 0.32273 0.37027 0.48556 0.0
H95 H 0.38486 0.36096 0.46943 0.0
H96 H 0.43067 0.32642 0.36318 0.0
H97 H 0.39948 0.30921 0.30496 0.0
H98 H 0.30917 0.35971 0.24013 0.0
H99 H 0.2913 0.41594 0.25558 0.0
H100 H 0.25519 0.4592 0.36036 0.0
H101 H 0.24435 0.43065 0.41922 0.0
H102 H 0.46437 0.48243 0.31734 0.0
H103 H 0.43593 0.51174 0.40916 0.0
H104 H 0.18537 0.27915 0.33897 0.0
H105 H 0.25257 0.23141 0.38607 0.0
C106 C 0.0565 0.30458 0.77144 0.0
C107 C 0.07843 0.30436 0.79773 0.0
C108 C 0.11613 0.31513 0.78722 0.0
C109 C 0.11529 0.32116 0.75525 0.0
N110 N 0.07963 0.31557 0.74467 0.0
Co111 Co 0.06594 0.31872 0.69911 0.0
N112 N 0.12363 0.34348 0.68543 0.0
C113 C 0.15395 0.34556 0.70311 0.0
C114 C 0.19029 0.36306 0.68773 0.0
C115 C 0.18259 0.37216 0.65814 0.0
C116 C 0.14174 0.35963 0.65713 0.0
N117 N 0.05243 0.32201 0.65357 0.0
C118 C 0.07668 0.33989 0.62797 0.0
C119 C 0.05417 0.33406 0.6006 0.0
C120 C 0.01459 0.31106 0.60907 0.0
C121 C 0.01507 0.30426 0.64103 0.0
N122 N 0.00827 0.29349 0.71277 0.0
C123 C 0.97613 0.27925 0.69321 0.0
C124 C 0.94014 0.26426 0.70892 0.0
C125 C 0.94987 0.26845 0.74047 0.0
C126 C 0.99141 0.28536 0.74228 0.0
N127 N 0.0735 0.37243 0.70674 0.0
C128 C 0.08675 0.45109 0.71265 0.0
C129 C 0.05068 0.4201 0.69991 0.0
C130 C 0.04492 0.38135 0.69682 0.0
C131 C 0.11531 0.44132 0.72376 0.0
C132 C 0.10789 0.40177 0.72088 0.0
N133 N 0.05846 0.26516 0.69135 0.0
C134 C 0.03934 0.19895 0.71063 0.0
C135 C 0.05779 0.1927 0.6844 0.0
C136 C 0.07383 0.22178 0.6605 0.0
C137 C 0.07399 0.25792 0.66451 0.0
C138 C 0.0396 0.23526 0.71346 0.0
H139 H 0.08841 0.28046 0.64648 0.0
H140 H 0.026 0.2395 0.73426 0.0
H141 H 0.01752 0.35893 0.68583 0.0
H142 H 0.1305 0.39531 0.72944 0.0
C143 C 0.14797 0.33399 0.73485 0.0
C144 C 0.01265 0.28852 0.77227 0.0
C145 C 0.12079 0.35861 0.62763 0.0
C146 C 0.98119 0.28427 0.66039 0.0
H147 H 0.06819 0.29575 0.82189 0.0
H148 H 0.14109 0.31787 0.80121 0.0
H149 H 0.21901 0.36868 0.69697 0.0
H150 H 0.20443 0.38533 0.63917 0.0
H151 H 0.06532 0.34451 0.57683 0.0
H152 H 0.98854 0.30075 0.59377 0.0
H153 H 0.9104 0.25224 0.69867 0.0
H154 H 0.92865 0.25909 0.75997 0.0
H155 H 0.02703 0.42566 0.69191 0.0
H156 H 0.14372 0.46414 0.73372 0.0
H157 H 0.02635 0.17665 0.72942 0.0
H158 H 0.08853 0.21779 0.63994 0.0
C159 C 0.85189 0.07633 0.1121 0.0
C160 C 0.86665 0.10102 0.13875 0.0
C161 C 0.87281 0.13831 0.13008 0.0
C162 C 0.86231 0.1348 0.09857 0.0
N163 N 0.85026 0.09768 0.08689 0.0
Co164 Co 0.83602 0.08094 0.0419 0.0
N165 N 0.86414 0.13766 0.02688 0.0
C166 C 0.87275 0.17015 0.04484 0.0
C167 C 0.89042 0.20548 0.02775 0.0
C168 C 0.89287 0.19439 0.99716 0.0
C169 C 0.87682 0.15275 0.99733 0.0
N170 N 0.82237 0.06424 0.99682 0.0
C171 C 0.8403 0.08493 0.96978 0.0
C172 C 0.8232 0.0604 0.94333 0.0
C173 C 0.79283 0.02393 0.95429 0.0
C174 C 0.7933 0.02774 0.98676 0.0
N175 N 0.80731 0.02435 0.05714 0.0
C176 C 0.77855 0.99254 0.04105 0.0
C177 C 0.76344 0.95706 0.05784 0.0
C178 C 0.78397 0.96736 0.08621 0.0
C179 C 0.8108 0.00867 0.08509 0.0
N180 N 0.78686 0.08351 0.04653 0.0
C181 C 0.72116 0.09513 0.05467 0.0
C182 C 0.74288 0.10583 0.02616 0.0
C183 C 0.77564 0.10005 0.02267 0.0
C184 C 0.73183 0.0766 0.07852 0.0
C185 C 0.76468 0.07082 0.07388 0.0
N186 N 0.88495 0.07867 0.03703 0.0
C187 C 0.91881 0.04442 0.01801 0.0
C188 C 0.95574 0.07781 0.02628 0.0
C189 C 0.95677 0.1113 0.04055 0.0
C190 C 0.92089 0.11094 0.04605 0.0
C191 C 0.88364 0.0456 0.02335 0.0
H192 H 0.92221 0.13691 0.05728 0.0
H193 H 0.85547 0.02 0.01607 0.0
H194 H 0.79247 0.10993 1.00083 0.0
H195 H 0.77278 0.05707 0.09271 0.0
C196 C 0.87061 0.16699 0.07807 0.0
C197 C 0.83725 0.03243 0.11161 0.0
C198 C 0.87145 0.12827 0.96874 0.0
C199 C 0.77275 0.99601 0.0085 0.0
H200 H 0.87289 0.09347 0.16201 0.0
H201 H 0.88553 0.16531 0.1446 0.0
H202 H 0.90156 0.23583 0.03663 0.0
H203 H 0.90484 0.21465 0.97705 0.0
H204 H 0.83175 0.06758 0.91869 0.0
H205 H 0.77412 0.99717 0.94031 0.0
H206 H 0.74148 0.92701 0.04989 0.0
H207 H 0.77965 0.94681 0.10548 0.0
H208 H 0.73497 0.11903 1.00665 0.0
H209 H 0.71578 0.06772 0.10091 0.0
H210 H 0.91725 0.018 1.00706 0.0
H211 H 0.98502 0.1373 0.04773 0.0
C212 C 0.88216 0.83786 0.44076 0.0
C213 C 0.8645 0.8409 0.46862 0.0
C214 C 0.83188 0.84452 0.45979 0.0
C215 C 0.83136 0.84341 0.42712 0.0
N216 N 0.86166 0.83943 0.41501 0.0
Co217 Co 0.87238 0.83703 0.3692 0.0
N218 N 0.84036 0.86252 0.35673 0.0
C219 C 0.81165 0.86326 0.3747 0.0
C220 C 0.79274 0.88093 0.35941 0.0
C221 C 0.81051 0.89168 0.32999 0.0
C222 C 0.83965 0.88021 0.32897 0.0
N223 N 0.88385 0.83535 0.32335 0.0
C224 C 0.88161 0.85709 0.29865 0.0
C225 C 0.89582 0.84867 0.27096 0.0
C226 C 0.90558 0.81967 0.27846 0.0
C227 C 0.8976 0.81238 0.31032 0.0
N228 N 0.90369 0.81081 0.38186 0.0
C229 C 0.91398 0.78929 0.36264 0.0
C230 C 0.93694 0.77601 0.37782 0.0
C231 C 0.94124 0.79003 0.40845 0.0
C232 C 0.92035 0.81097 0.41036 0.0
N233 N 0.8237 0.78416 0.36575 0.0
C234 C 0.7462 0.71661 0.36556 0.0
C235 C 0.76091 0.74218 0.33908 0.0
C236 C 0.79935 0.77585 0.33979 0.0
C237 C 0.77266 0.7236 0.39098 0.0
C238 C 0.81153 0.75725 0.39037 0.0
N239 N 0.92021 0.88978 0.3726 0.0
C240 C 0.98972 0.93518 0.36058 0.0
C241 C 0.98681 0.9674 0.37361 0.0
C242 C 0.95018 0.95957 0.38702 0.0
C243 C 0.91744 0.92056 0.38654 0.0
C244 C 0.95597 0.89662 0.36016 0.0
H245 H 0.88954 0.91549 0.39677 0.0
H246 H 0.9586 0.8725 0.34932 0.0
H247 H 0.80841 0.79624 0.31989 0.0
H248 H 0.83093 0.76268 0.41059 0.0
C249 C 0.80801 0.85304 0.40712 0.0
C250 C 0.91593 0.82989 0.43946 0.0
C251 C 0.86351 0.88337 0.30047 0.0
C252 C 0.90964 0.7904 0.32964 0.0
H253 H 0.874 0.84021 0.49274 0.0
H254 H 0.81195 0.849 0.47533 0.0
H255 H 0.76961 0.88642 0.3688 0.0
H256 H 0.80247 0.90581 0.31131 0.0
H257 H 0.8992 0.86206 0.24773 0.0
H258 H 0.91887 0.80699 0.26285 0.0
H259 H 0.95107 0.76029 0.36742 0.0
H260 H 0.95845 0.78587 0.42692 0.0
H261 H 0.74238 0.73721 0.31826 0.0
H262 H 0.76296 0.70456 0.4119 0.0
H263 H 0.01768 0.93969 0.35052 0.0
H264 H 0.94627 0.98351 0.39699 0.0
C265 C 0.14582 0.8763 0.77304 0.0
C266 C 0.12596 0.86258 0.80188 0.0
C267 C 0.0888 0.82987 0.79515 0.0
C268 C 0.08803 0.82531 0.76271 0.0
N269 N 0.12233 0.85323 0.74875 0.0
Co270 Co 0.13394 0.85739 0.70261 0.0
N271 N 0.07592 0.82536 0.69168 0.0
C272 C 0.04634 0.80033 0.7115 0.0
C273 C 0.00898 0.7829 0.6975 0.0
C274 C 0.01564 0.79776 0.66701 0.0
C275 C 0.05693 0.82335 0.66396 0.0
N276 N 0.14537 0.86198 0.6564 0.0
C277 C 0.12083 0.85738 0.63155 0.0
C278 C 0.14115 0.86357 0.60296 0.0
C279 C 0.17967 0.8724 0.6104 0.0
C280 C 0.18076 0.871 0.64303 0.0
N281 N 0.1919 0.88894 0.71361 0.0
C282 C 0.22253 0.89524 0.69434 0.0
C283 C 0.25952 0.91938 0.70811 0.0
C284 C 0.2515 0.92852 0.73786 0.0
C285 C 0.20985 0.90912 0.74077 0.0
N286 N 0.13632 0.80772 0.70429 0.0
C287 C 0.13216 0.73283 0.70893 0.0
C288 C 0.11665 0.74254 0.68233 0.0
C289 C 0.11861 0.77978 0.68066 0.0
C290 C 0.15172 0.76236 0.73244 0.0
C291 C 0.1538 0.79977 0.72951 0.0
N292 N 0.13126 0.90644 0.70072 0.0
C293 C 0.15617 0.97311 0.67996 0.0
C294 C 0.12174 0.97267 0.6912 0.0
C295 C 0.09309 0.93961 0.7085 0.0
C296 C 0.0987 0.90689 0.71337 0.0
C297 C 0.16025 0.93936 0.68481 0.0
H298 H 0.07611 0.88145 0.72653 0.0
H299 H 0.18617 0.93938 0.67491 0.0
H300 H 0.10488 0.78552 0.66048 0.0
H301 H 0.16853 0.82184 0.74808 0.0
C302 C 0.0539 0.80055 0.74421 0.0
C303 C 0.188 0.90883 0.76977 0.0
C304 C 0.07756 0.8438 0.63429 0.0
C305 C 0.2155 0.88516 0.66191 0.0
H306 H 0.13727 0.8747 0.82529 0.0
H307 H 0.06473 0.81253 0.81183 0.0
H308 H 0.98011 0.76341 0.70856 0.0
H309 H 0.99261 0.7907 0.64927 0.0
H310 H 0.12931 0.86167 0.57927 0.0
H311 H 0.20432 0.88052 0.59401 0.0
H312 H 0.28884 0.93082 0.69726 0.0
H313 H 0.27386 0.94763 0.75513 0.0
H314 H 0.10245 0.72134 0.663 0.0
H315 H 0.16419 0.75632 0.75343 0.0
H316 H 0.17894 -0.00131 0.66673 0.0
H317 H 0.06651 0.93903 0.71797 0.0
H318 H 0.31594 0.21944 0.10909 0.0
H319 H 0.31282 0.25288 0.29158 0.0
H320 H 0.38402 0.18262 0.16788 0.0
H321 H 0.3701 0.35946 0.23286 0.0
H322 H 0.3154 0.21285 0.24652 0.0
H323 H 0.31198 0.2585 0.15428 0.0
C324 C 0.32934 0.21892 0.13163 0.0
C325 C 0.34918 0.19659 0.13495 0.0
C326 C 0.32675 0.24492 0.24354 0.0
C327 C 0.34412 0.24048 0.18662 0.0
C328 C 0.32524 0.2677 0.26908 0.0
C329 C 0.33997 0.30936 0.2657 0.0
C330 C 0.34231 0.26374 0.2142 0.0
C331 C 0.35662 0.32719 0.23617 0.0
C332 C 0.32716 0.24123 0.15725 0.0
C333 C 0.36686 0.1978 0.16457 0.0
N334 N 0.35679 0.30422 0.21142 0.0
N335 N 0.36343 0.21886 0.18938 0.0
H336 H 0.22342 0.31504 0.45763 0.0
H337 H 0.17763 0.42881 0.59897 0.0
H338 H 0.2896 0.44401 0.47086 0.0
H339 H 0.11384 0.29961 0.58701 0.0
H340 H 0.21725 0.43546 0.55101 0.0
H341 H 0.18196 0.30877 0.50424 0.0
C342 C 0.22911 0.342 0.47043 0.0
C343 C 0.25953 0.38009 0.46027 0.0
C344 C 0.19439 0.40564 0.55868 0.0
C345 C 0.2124 0.37339 0.51364 0.0
C346 C 0.17168 0.40194 0.58592 0.0
C347 C 0.14227 0.36368 0.59672 0.0
C348 C 0.18775 0.37078 0.54213 0.0
C349 C 0.136 0.32968 0.57925 0.0
C350 C 0.20545 0.3385 0.49697 0.0
C351 C 0.26603 0.41414 0.47776 0.0
N352 N 0.15855 0.33401 0.55294 0.0
N353 N 0.24263 0.41002 0.50349 0.0
H354 H 0.95209 0.1765 0.95816 0.0
H355 H 0.95795 0.20734 0.77569 0.0
H356 H 0.83734 0.13144 0.91148 0.0
H357 H 0.01439 0.31467 0.83373 0.0
H358 H 0.92194 0.16766 0.82289 0.0
H359 H 0.98554 0.21688 0.91045 0.0
C360 C 0.93403 0.17442 0.93765 0.0
C361 C 0.89193 0.14948 0.9385 0.0
C362 C 0.94214 0.19992 0.82514 0.0
C363 C 0.93001 0.19514 0.88398 0.0
C364 C 0.9625 0.22262 0.7983 0.0
C365 C 0.98902 0.26451 0.80072 0.0
C366 C 0.94943 0.21889 0.85487 0.0
C367 C 0.99429 0.28251 0.83082 0.0
C368 C 0.95309 0.19759 0.91064 0.0
C369 C 0.86992 0.14868 0.91145 0.0
N370 N 0.97522 0.25952 0.85684 0.0
N371 N 0.88924 0.1707 0.88512 0.0
H372 H 0.86847 0.98181 0.11193 0.0
H373 H 0.88626 0.96351 0.29669 0.0
H374 H 0.81505 0.03143 0.17439 0.0
H375 H 0.83386 0.85483 0.24021 0.0
H376 H 0.87978 0.00017 0.2509 0.0
H377 H 0.87517 0.9449 0.15746 0.0
C378 C 0.85878 0.98546 0.13528 0.0
C379 C 0.84253 0.01095 0.13952 0.0
C380 C 0.87029 0.96841 0.24855 0.0
C381 C 0.85072 0.96946 0.19158 0.0
C382 C 0.87408 0.94755 0.27452 0.0
C383 C 0.86177 0.9063 0.27204 0.0
C384 C 0.85493 0.94814 0.21961 0.0
C385 C 0.84535 0.88693 0.24288 0.0
C386 C 0.86252 0.96438 0.16112 0.0
C387 C 0.82955 0.01376 0.17022 0.0
N388 N 0.84296 0.90809 0.21769 0.0
N389 N 0.83452 0.99385 0.19514 0.0
H390 H 0.02625 0.77705 0.59939 0.0
H391 H 0.97239 0.89814 0.47013 0.0
H392 H 0.0759 0.90594 0.60301 0.0
H393 H 0.9116 0.76837 0.47611 0.0
H394 H 0.01212 0.90248 0.51755 0.0
H395 H 0.98635 0.77386 0.55273 0.0
C396 C 0.02854 0.80467 0.59035 0.0
C397 C 0.05381 0.84171 0.60535 0.0
C398 C 0.99014 0.87304 0.5085 0.0
C399 C 0.00864 0.83853 0.55154 0.0
C400 C 0.96749 0.8706 0.48148 0.0
C401 C 0.93925 0.83287 0.46892 0.0
C402 C 0.98445 0.83741 0.52313 0.0
C403 C 0.93364 0.79806 0.4847 0.0
C404 C 0.00581 0.80289 0.5637 0.0
C405 C 0.05641 0.87674 0.59228 0.0
N406 N 0.95615 0.80116 0.51077 0.0
N407 N 0.03407 0.87432 0.5662 0.0
H408 H 0.26024 0.07026 0.93407 0.0
H409 H 0.24679 0.90738 0.80618 0.0
H410 H 0.34177 0.02356 0.93233 0.0
H411 H 0.17668 0.96663 0.79863 0.0
H412 H 0.2805 0.94833 0.85327 0.0
H413 H 0.22809 0.03192 0.88529 0.0
C414 C 0.27124 0.05182 0.92338 0.0
C415 C 0.3031 0.04937 0.93752 0.0
C416 C 0.25801 0.95273 0.84123 0.0
C417 C 0.26671 0.0055 0.88173 0.0
C418 C 0.23895 0.92949 0.81423 0.0
C419 C 0.20968 0.93442 0.79802 0.0
C420 C 0.24732 0.98075 0.85258 0.0
C421 C 0.19957 0.96243 0.81017 0.0
C422 C 0.25296 0.02996 0.89557 0.0
C423 C 0.3167 0.02556 0.92253 0.0
N424 N 0.21833 0.98454 0.83666 0.0
N425 N 0.29831 0.00439 0.89565 0.0
H426 H 0.19618 0.13029 0.97757 0.0
H427 H 0.97436 0.0224 0.04787 0.0
H428 H 0.1649 0.07146 0.06936 0.0
H429 H 0.02166 0.1326 0.99357 0.0
H430 H 0.04017 0.02651 0.04445 0.0
H431 H 0.12774 0.11942 0.97312 0.0
C432 C 0.17509 0.11521 0.99678 0.0
C433 C 0.18629 0.10172 0.02388 0.0
C434 C 0.03587 0.04947 0.033 0.0
C435 C 0.10825 0.08811 0.01827 0.0
C436 C -0.00147 0.04702 0.03479 0.0
C437 C 0.99324 0.07742 0.02118 0.0
C438 C 0.06755 0.08221 0.01714 0.0
C439 C 0.02515 0.10892 1.00459 0.0
C440 C 0.13611 0.10877 0.99404 0.0
C441 C 0.15745 0.08163 0.04773 0.0
N442 N 0.06128 0.11063 1.00306 0.0
N443 N 0.11965 0.07529 0.0443 0.0
H444 H 0.00994 0.02747 0.41815 0.0
H445 H 0.20922 0.18576 0.33105 0.0
H446 H 0.04164 0.00289 0.32547 0.0
H447 H 0.14243 0.22293 0.39109 0.0
H448 H 0.15276 0.11605 0.33296 0.0
H449 H 0.06395 0.09756 0.41339 0.0
C450 C 0.0281 0.03675 0.39676 0.0
C451 C 0.02108 0.00923 0.37209 0.0
C452 C 0.15037 0.13955 0.34545 0.0
C453 C 0.08323 0.08896 0.36696 0.0
C454 C 0.18238 0.17904 0.34438 0.0
C455 C 0.17992 0.20953 0.36088 0.0
C456 C 0.11636 0.13073 0.36374 0.0
C457 C 0.14495 0.1999 0.37796 0.0
C458 C 0.05889 0.07669 0.39414 0.0
C459 C 0.0463 0.02281 0.34531 0.0
N460 N 0.11448 0.16102 0.37927 0.0
N461 N 0.07643 0.06178 0.3435 0.0
H462 H 0.0958 0.17502 0.72999 0.0
H463 H 0.06127 0.97152 0.6572 0.0
H464 H 0.03951 0.13609 0.63802 0.0
H465 H 0.1672 0.04949 0.71213 0.0
H466 H 0.04629 0.02676 0.65271 0.0
H467 H 0.11469 0.12276 0.72821 0.0
C468 C 0.08701 0.15497 0.70963 0.0
C469 C 0.06581 0.15916 0.68424 0.0
C470 C 0.07308 0.03183 0.66532 0.0
C471 C 0.08754 0.10024 0.6819 0.0
C472 C 0.0815 0.00056 0.66792 0.0
C473 C 0.1153 0.00652 0.68512 0.0
C474 C 0.0982 0.06853 0.68073 0.0
C475 C 0.1409 0.04422 0.69867 0.0
C476 C 0.09821 0.12569 0.70844 0.0
C477 C 0.05571 0.13328 0.65804 0.0
N478 N 0.13147 0.07387 0.6966 0.0
N479 N 0.06642 0.10441 0.65761 0.0
H480 H 0.64835 0.04886 0.08471 0.0
H481 H 0.5503 0.16863 0.01166 0.0
H482 H 0.71888 0.16216 0.03531 0.0
H483 H 0.50276 0.09863 0.0973 0.0
H484 H 0.61071 0.16256 0.01701 0.0
H485 H 0.59251 0.06266 0.08776 0.0
C486 C 0.6523 0.07679 0.07485 0.0
C487 C 0.6881 0.10406 0.05922 0.0
C488 C 0.58727 0.14894 0.03485 0.0
C489 C 0.62438 0.11948 0.06217 0.0
C490 C 0.55293 0.1523 0.03172 0.0
C491 C 0.52197 0.13413 0.05412 0.0
C492 C 0.59002 0.12646 0.06013 0.0
C493 C 0.52638 0.1132 0.07972 0.0
C494 C 0.62044 0.08456 0.07655 0.0
C495 C 0.69142 0.13967 0.0467 0.0
N496 N 0.55969 0.10941 0.08185 0.0
N497 N 0.65976 0.14609 0.04806 0.0
H498 H 0.71173 0.64124 0.39392 0.0
H499 H 0.49444 0.56394 0.32206 0.0
H500 H 0.68131 0.71964 0.3415 0.0
H501 H 0.51061 0.51549 0.4098 0.0
H502 H 0.56541 0.61729 0.32406 0.0
H503 H 0.63996 0.59027 0.39588 0.0
C504 C 0.69018 0.6479 0.38291 0.0
C505 C 0.70293 0.68477 0.36713 0.0
C506 C 0.55331 0.59518 0.34301 0.0
C507 C 0.62107 0.62631 0.36885 0.0
C508 C 0.513 0.56487 0.34184 0.0
C509 C 0.49694 0.53573 0.36591 0.0
C510 C 0.57783 0.59565 0.36801 0.0
C511 C 0.52202 0.53786 0.39101 0.0
C512 C 0.64927 0.61875 0.38401 0.0
C513 C 0.67337 0.69134 0.35306 0.0
N514 N 0.56151 0.56713 0.39127 0.0
N515 N 0.63397 0.6623 0.35402 0.0
H516 H 0.18377 0.70989 0.73528 0.0
H517 H 0.0638 0.48821 0.66847 0.0
H518 H 0.06688 0.66129 0.69081 0.0
H519 H 0.12903 0.51111 0.75704 0.0
H520 H 0.07484 0.55653 0.66987 0.0
H521 H 0.1734 0.64115 0.73825 0.0
C522 C 0.15592 0.68495 0.72632 0.0
C523 C 0.12645 0.69161 0.71226 0.0
C524 C 0.08659 0.54646 0.68903 0.0
C525 C 0.11512 0.61362 0.71498 0.0
C526 C 0.08007 0.50732 0.68844 0.0
C527 C 0.09479 0.49336 0.71302 0.0
C528 C 0.10876 0.57236 0.71397 0.0
C529 C 0.11724 0.52048 0.7375 0.0
C530 C 0.15018 0.64587 0.72795 0.0
C531 C 0.09108 0.65803 0.70086 0.0
N532 N 0.12367 0.55887 0.73733 0.0
N533 N 0.08664 0.62062 0.70215 0.0
loop_
_geom_bond_atom_site_label_1
_geom_bond_atom_site_label_2
_geom_bond_distance
_geom_bond_site_symmetry_2
_ccdc_geom_bond_type
C0 C1 1.443 . S
C0 N4 1.376 . S
C0 C38 1.389 . S
C1 C0 1.443 . S
C1 C2 1.340 . S
C1 H41 0.951 . S
C2 C1 1.340 . S
C2 C3 1.439 . S
C2 H42 0.950 . S
C3 C2 1.439 . S
C3 N4 1.374 . S
C3 C37 1.395 . S
N4 C0 1.376 . S
N4 C3 1.374 . S
N4 Co5 2.008 . S
Co5 N4 2.008 . S
Co5 N6 1.995 . S
Co5 N11 2.008 1_554 S
Co5 N16 1.995 . S
Co5 N21 2.282 . S
Co5 N27 2.282 . S
N6 Co5 1.995 . S
N6 C7 1.376 . S
N6 C10 1.383 1_554 S
C7 N6 1.376 . S
C7 C8 1.446 . S
C7 C37 1.391 . S
C8 C7 1.446 . S
C8 C9 1.339 1_554 S
C8 H43 0.949 . S
C9 C8 1.339 1_556 S
C9 C10 1.439 . S
C9 H44 0.950 . S
C10 N6 1.383 1_556 S
C10 C9 1.439 . S
C10 C39 1.392 . S
N11 Co5 2.008 1_556 S
N11 C12 1.376 . S
N11 C15 1.374 . S
C12 N11 1.376 . S
C12 C13 1.443 . S
C12 C39 1.389 . S
C13 C12 1.443 . S
C13 C14 1.340 . S
C13 H45 0.951 . S
C14 C13 1.340 . S
C14 C15 1.439 . S
C14 H46 0.950 . S
C15 N11 1.374 . S
C15 C14 1.439 . S
C15 C40 1.395 . S
N16 Co5 1.995 . S
N16 C17 1.376 . S
N16 C20 1.383 . S
C17 N16 1.376 . S
C17 C18 1.446 . S
C17 C40 1.391 1_554 S
C18 C17 1.446 . S
C18 C19 1.339 . S
C18 H47 0.949 . S
C19 C18 1.339 . S
C19 C20 1.439 . S
C19 H48 0.950 . S
C20 N16 1.383 . S
C20 C19 1.439 . S
C20 C38 1.392 . S
N21 Co5 2.282 . S
N21 C24 1.332 . S
N21 C26 1.332 . S
C22 C23 1.386 . S
C22 C25 1.388 . S
C23 C22 1.386 . S
C23 C24 1.382 . S
C23 H49 0.950 . S
C24 N21 1.332 . S
C24 C23 1.382 . S
C24 H35 0.952 . S
C25 C22 1.388 . S
C25 C26 1.382 . S
C25 H50 0.950 . S
C26 N21 1.332 . S
C26 C25 1.382 . S
C26 H36 0.948 . S
N27 Co5 2.282 . S
N27 C31 1.332 . S
N27 C32 1.332 . S
C28 C29 1.388 . S
C28 C32 1.382 . S
C28 H51 0.950 . S
C29 C28 1.388 . S
C29 C30 1.386 . S
C30 C29 1.386 . S
C30 C31 1.382 . S
C30 H52 0.950 . S
C31 N27 1.332 . S
C31 C30 1.382 . S
C31 H33 0.952 . S
C32 N27 1.332 . S
C32 C28 1.382 . S
C32 H34 0.948 . S
H33 C31 0.952 . S
H34 C32 0.948 . S
H35 C24 0.952 . S
H36 C26 0.948 . S
C37 C3 1.395 . S
C37 C7 1.391 . S
C38 C0 1.389 . S
C38 C20 1.392 . S
C39 C10 1.392 . S
C39 C12 1.389 . S
C40 C15 1.395 . S
C40 C17 1.391 1_556 S
H41 C1 0.951 . S
H42 C2 0.950 . S
H43 C8 0.949 . S
H44 C9 0.950 . S
H45 C13 0.951 . S
H46 C14 0.950 . S
H47 C18 0.949 . S
H48 C19 0.950 . S
H49 C23 0.950 . S
H50 C25 0.950 . S
H51 C28 0.950 . S
H52 C30 0.950 . S
C53 C54 1.443 . S
C53 N57 1.376 . S
C53 C91 1.389 . S
C54 C53 1.443 . S
C54 C55 1.340 . S
C54 H94 0.951 . S
C55 C54 1.340 . S
C55 C56 1.439 . S
C55 H95 0.950 . S
C56 C55 1.439 . S
C56 N57 1.374 . S
C56 C90 1.395 . S
N57 C53 1.376 . S
N57 C56 1.374 . S
N57 Co58 2.008 . S
Co58 N57 2.008 . S
Co58 N59 1.995 . S
Co58 N64 2.008 . S
Co58 N69 1.995 . S
Co58 N74 2.282 . S
Co58 N80 2.282 . S
N59 Co58 1.995 . S
N59 C60 1.376 . S
N59 C63 1.383 . S
C60 N59 1.376 . S
C60 C61 1.446 . S
C60 C90 1.391 . S
C61 C60 1.446 . S
C61 C62 1.339 . S
C61 H96 0.949 . S
C62 C61 1.339 . S
C62 C63 1.439 . S
C62 H97 0.950 . S
C63 N59 1.383 . S
C63 C62 1.439 . S
C63 C92 1.392 . S
N64 Co58 2.008 . S
N64 C65 1.376 . S
N64 C68 1.374 . S
C65 N64 1.376 . S
C65 C66 1.443 . S
C65 C92 1.389 . S
C66 C65 1.443 . S
C66 C67 1.340 . S
C66 H98 0.951 . S
C67 C66 1.340 . S
C67 C68 1.439 . S
C67 H99 0.950 . S
C68 N64 1.374 . S
C68 C67 1.439 . S
C68 C93 1.395 . S
N69 Co58 1.995 . S
N69 C70 1.376 . S
N69 C73 1.383 . S
C70 N69 1.376 . S
C70 C71 1.446 . S
C70 C93 1.391 . S
C71 C70 1.446 . S
C71 C72 1.339 . S
C71 H100 0.949 . S
C72 C71 1.339 . S
C72 C73 1.439 . S
C72 H101 0.950 . S
C73 N69 1.383 . S
C73 C72 1.439 . S
C73 C91 1.392 . S
N74 Co58 2.282 . S
N74 C77 1.332 . S
N74 C79 1.332 . S
C75 C76 1.386 . S
C75 C78 1.388 . S
C76 C75 1.386 . S
C76 C77 1.382 . S
C76 H102 0.950 . S
C77 N74 1.332 . S
C77 C76 1.382 . S
C77 H88 0.952 . S
C78 C75 1.388 . S
C78 C79 1.382 . S
C78 H103 0.950 . S
C79 N74 1.332 . S
C79 C78 1.382 . S
C79 H89 0.948 . S
N80 Co58 2.282 . S
N80 C84 1.332 . S
N80 C85 1.332 . S
C81 C82 1.388 . S
C81 C85 1.382 . S
C81 H104 0.950 . S
C82 C81 1.388 . S
C82 C83 1.386 . S
C83 C82 1.386 . S
C83 C84 1.382 . S
C83 H105 0.950 . S
C84 N80 1.332 . S
C84 C83 1.382 . S
C84 H86 0.952 . S
C85 N80 1.332 . S
C85 C81 1.382 . S
C85 H87 0.948 . S
H86 C84 0.952 . S
H87 C85 0.948 . S
H88 C77 0.952 . S
H89 C79 0.948 . S
C90 C56 1.395 . S
C90 C60 1.391 . S
C91 C53 1.389 . S
C91 C73 1.392 . S
C92 C63 1.392 . S
C92 C65 1.389 . S
C93 C68 1.395 . S
C93 C70 1.391 . S
H94 C54 0.951 . S
H95 C55 0.950 . S
H96 C61 0.949 . S
H97 C62 0.950 . S
H98 C66 0.951 . S
H99 C67 0.950 . S
H100 C71 0.949 . S
H101 C72 0.950 . S
H102 C76 0.950 . S
H103 C78 0.950 . S
H104 C81 0.950 . S
H105 C83 0.950 . S
C106 C107 1.443 . S
C106 N110 1.376 . S
C106 C144 1.389 1_455 S
C107 C106 1.443 . S
C107 C108 1.340 . S
C107 H147 0.951 . S
C108 C107 1.340 . S
C108 C109 1.439 . S
C108 H148 0.950 . S
C109 C108 1.439 . S
C109 N110 1.374 . S
C109 C143 1.395 . S
N110 C106 1.376 . S
N110 C109 1.374 . S
N110 Co111 2.008 . S
Co111 N110 2.008 . S
Co111 N112 1.995 . S
Co111 N117 2.008 . S
Co111 N122 1.995 1_455 S
Co111 N127 2.282 . S
Co111 N133 2.282 . S
N112 Co111 1.995 . S
N112 C113 1.376 . S
N112 C116 1.383 . S
C113 N112 1.376 . S
C113 C114 1.446 . S
C113 C143 1.391 . S
C114 C113 1.446 . S
C114 C115 1.339 . S
C114 H149 0.949 . S
C115 C114 1.339 . S
C115 C116 1.439 . S
C115 H150 0.950 . S
C116 N112 1.383 . S
C116 C115 1.439 . S
C116 C145 1.392 . S
N117 Co111 2.008 . S
N117 C118 1.376 . S
N117 C121 1.374 1_455 S
C118 N117 1.376 . S
C118 C119 1.443 . S
C118 C145 1.389 . S
C119 C118 1.443 . S
C119 C120 1.340 1_455 S
C119 H151 0.951 . S
C120 C119 1.340 1_655 S
C120 C121 1.439 . S
C120 H152 0.950 . S
C121 N117 1.374 1_655 S
C121 C120 1.439 . S
C121 C146 1.395 . S
N122 Co111 1.995 1_655 S
N122 C123 1.376 . S
N122 C126 1.383 . S
C123 N122 1.376 . S
C123 C124 1.446 . S
C123 C146 1.391 . S
C124 C123 1.446 . S
C124 C125 1.339 . S
C124 H153 0.949 . S
C125 C124 1.339 . S
C125 C126 1.439 . S
C125 H154 0.950 . S
C126 N122 1.383 . S
C126 C125 1.439 . S
C126 C144 1.392 . S
N127 Co111 2.282 . S
N127 C130 1.332 1_455 S
N127 C132 1.332 . S
C128 C129 1.386 1_455 S
C128 C131 1.388 . S
C129 C128 1.386 1_655 S
C129 C130 1.382 . S
C129 H155 0.950 . S
C130 N127 1.332 1_655 S
C130 C129 1.382 . S
C130 H141 0.952 . S
C131 C128 1.388 . S
C131 C132 1.382 . S
C131 H156 0.950 . S
C132 N127 1.332 . S
C132 C131 1.382 . S
C132 H142 0.948 . S
N133 Co111 2.282 . S
N133 C137 1.332 . S
N133 C138 1.332 1_455 S
C134 C135 1.388 1_655 S
C134 C138 1.382 . S
C134 H157 0.950 . S
C135 C134 1.388 1_455 S
C135 C136 1.386 . S
C136 C135 1.386 . S
C136 C137 1.382 . S
C136 H158 0.950 . S
C137 N133 1.332 . S
C137 C136 1.382 . S
C137 H139 0.952 . S
C138 N133 1.332 1_655 S
C138 C134 1.382 . S
C138 H140 0.948 . S
H139 C137 0.952 . S
H140 C138 0.948 . S
H141 C130 0.952 . S
H142 C132 0.948 . S
C143 C109 1.395 . S
C143 C113 1.391 . S
C144 C106 1.389 1_655 S
C144 C126 1.392 . S
C145 C116 1.392 . S
C145 C118 1.389 . S
C146 C121 1.395 . S
C146 C123 1.391 . S
H147 C107 0.951 . S
H148 C108 0.950 . S
H149 C114 0.949 . S
H150 C115 0.950 . S
H151 C119 0.951 . S
H152 C120 0.950 . S
H153 C124 0.949 . S
H154 C125 0.950 . S
H155 C129 0.950 . S
H156 C131 0.950 . S
H157 C134 0.950 . S
H158 C136 0.950 . S
C159 C160 1.443 . S
C159 N163 1.376 . S
C159 C197 1.389 1_545 S
C160 C159 1.443 . S
C160 C161 1.340 . S
C160 H200 0.951 . S
C161 C160 1.340 . S
C161 C162 1.439 . S
C161 H201 0.950 . S
C162 C161 1.439 . S
C162 N163 1.374 . S
C162 C196 1.395 . S
N163 C159 1.376 . S
N163 C162 1.374 . S
N163 Co164 2.008 . S
Co164 N163 2.008 . S
Co164 N165 1.995 . S
Co164 N170 2.008 1_554 S
Co164 N175 1.995 1_545 S
Co164 N180 2.282 . S
Co164 N186 2.282 . S
N165 Co164 1.995 . S
N165 C166 1.376 . S
N165 C169 1.383 1_554 S
C166 N165 1.376 . S
C166 C167 1.446 . S
C166 C196 1.391 . S
C167 C166 1.446 . S
C167 C168 1.339 1_554 S
C167 H202 0.949 . S
C168 C167 1.339 1_556 S
C168 C169 1.439 . S
C168 H203 0.950 . S
C169 N165 1.383 1_556 S
C169 C168 1.439 . S
C169 C198 1.392 . S
N170 Co164 2.008 1_556 S
N170 C171 1.376 . S
N170 C174 1.374 1_545 S
C171 N170 1.376 . S
C171 C172 1.443 . S
C171 C198 1.389 . S
C172 C171 1.443 . S
C172 C173 1.340 1_545 S
C172 H204 0.951 . S
C173 C172 1.340 1_565 S
C173 C174 1.439 . S
C173 H205 0.950 . S
C174 N170 1.374 1_565 S
C174 C173 1.439 . S
C174 C199 1.395 . S
N175 Co164 1.995 1_565 S
N175 C176 1.376 . S
N175 C179 1.383 . S
C176 N175 1.376 . S
C176 C177 1.446 . S
C176 C199 1.391 1_554 S
C177 C176 1.446 . S
C177 C178 1.339 . S
C177 H206 0.949 . S
C178 C177 1.339 . S
C178 C179 1.439 . S
C178 H207 0.950 . S
C179 N175 1.383 . S
C179 C178 1.439 . S
C179 C197 1.392 . S
N180 Co164 2.282 . S
N180 C183 1.332 1_545 S
N180 C185 1.332 . S
C181 C182 1.386 1_545 S
C181 C184 1.388 . S
C182 C181 1.386 1_565 S
C182 C183 1.382 . S
C182 H208 0.950 . S
C183 N180 1.332 1_565 S
C183 C182 1.382 . S
C183 H194 0.952 . S
C184 C181 1.388 . S
C184 C185 1.382 . S
C184 H209 0.950 . S
C185 N180 1.332 . S
C185 C184 1.382 . S
C185 H195 0.948 . S
N186 Co164 2.282 . S
N186 C190 1.332 . S
N186 C191 1.332 1_545 S
C187 C188 1.388 1_565 S
C187 C191 1.382 . S
C187 H210 0.950 . S
C188 C187 1.388 1_545 S
C188 C189 1.386 . S
C189 C188 1.386 . S
C189 C190 1.382 . S
C189 H211 0.950 . S
C190 N186 1.332 . S
C190 C189 1.382 . S
C190 H192 0.952 . S
C191 N186 1.332 1_565 S
C191 C187 1.382 . S
C191 H193 0.948 . S
H192 C190 0.952 . S
H193 C191 0.948 . S
H194 C183 0.952 . S
H195 C185 0.948 . S
C196 C162 1.395 . S
C196 C166 1.391 . S
C197 C159 1.389 1_565 S
C197 C179 1.392 . S
C198 C169 1.392 . S
C198 C171 1.389 . S
C199 C174 1.395 . S
C199 C176 1.391 1_556 S
H200 C160 0.951 . S
H201 C161 0.950 . S
H202 C167 0.949 . S
H203 C168 0.950 . S
H204 C172 0.951 . S
H205 C173 0.950 . S
H206 C177 0.949 . S
H207 C178 0.950 . S
H208 C182 0.950 . S
H209 C184 0.950 . S
H210 C187 0.950 . S
H211 C189 0.950 . S
C212 C213 1.443 . S
C212 N216 1.376 . S
C212 C250 1.389 . S
C213 C212 1.443 . S
C213 C214 1.340 . S
C213 H253 0.951 . S
C214 C213 1.340 . S
C214 C215 1.439 . S
C214 H254 0.950 . S
C215 C214 1.439 . S
C215 N216 1.374 . S
C215 C249 1.395 . S
N216 C212 1.376 . S
N216 C215 1.374 . S
N216 Co217 2.008 . S
Co217 N216 2.008 . S
Co217 N218 1.995 . S
Co217 N223 2.008 . S
Co217 N228 1.995 . S
Co217 N233 2.282 . S
Co217 N239 2.282 . S
N218 Co217 1.995 . S
N218 C219 1.376 . S
N218 C222 1.383 . S
C219 N218 1.376 . S
C219 C220 1.446 . S
C219 C249 1.391 . S
C220 C219 1.446 . S
C220 C221 1.339 . S
C220 H255 0.949 . S
C221 C220 1.339 . S
C221 C222 1.439 . S
C221 H256 0.950 . S
C222 N218 1.383 . S
C222 C221 1.439 . S
C222 C251 1.392 . S
N223 Co217 2.008 . S
N223 C224 1.376 . S
N223 C227 1.374 . S
C224 N223 1.376 . S
C224 C225 1.443 . S
C224 C251 1.389 . S
C225 C224 1.443 . S
C225 C226 1.340 . S
C225 H257 0.951 . S
C226 C225 1.340 . S
C226 C227 1.439 . S
C226 H258 0.950 . S
C227 N223 1.374 . S
C227 C226 1.439 . S
C227 C252 1.395 . S
N228 Co217 1.995 . S
N228 C229 1.376 . S
N228 C232 1.383 . S
C229 N228 1.376 . S
C229 C230 1.446 . S
C229 C252 1.391 . S
C230 C229 1.446 . S
C230 C231 1.339 . S
C230 H259 0.949 . S
C231 C230 1.339 . S
C231 C232 1.439 . S
C231 H260 0.950 . S
C232 N228 1.383 . S
C232 C231 1.439 . S
C232 C250 1.392 . S
N233 Co217 2.282 . S
N233 C236 1.332 . S
N233 C238 1.332 . S
C234 C235 1.386 . S
C234 C237 1.388 . S
C235 C234 1.386 . S
C235 C236 1.382 . S
C235 H261 0.950 . S
C236 N233 1.332 . S
C236 C235 1.382 . S
C236 H247 0.952 . S
C237 C234 1.388 . S
C237 C238 1.382 . S
C237 H262 0.950 . S
C238 N233 1.332 . S
C238 C237 1.382 . S
C238 H248 0.948 . S
N239 Co217 2.282 . S
N239 C243 1.332 . S
N239 C244 1.332 . S
C240 C241 1.388 . S
C240 C244 1.382 1_455 S
C240 H263 0.950 . S
C241 C240 1.388 . S
C241 C242 1.386 1_455 S
C242 C241 1.386 1_655 S
C242 C243 1.382 . S
C242 H264 0.950 . S
C243 N239 1.332 . S
C243 C242 1.382 . S
C243 H245 0.952 . S
C244 N239 1.332 . S
C244 C240 1.382 1_655 S
C244 H246 0.948 . S
H245 C243 0.952 . S
H246 C244 0.948 . S
H247 C236 0.952 . S
H248 C238 0.948 . S
C249 C215 1.395 . S
C249 C219 1.391 . S
C250 C212 1.389 . S
C250 C232 1.392 . S
C251 C222 1.392 . S
C251 C224 1.389 . S
C252 C227 1.395 . S
C252 C229 1.391 . S
H253 C213 0.951 . S
H254 C214 0.950 . S
H255 C220 0.949 . S
H256 C221 0.950 . S
H257 C225 0.951 . S
H258 C226 0.950 . S
H259 C230 0.949 . S
H260 C231 0.950 . S
H261 C235 0.950 . S
H262 C237 0.950 . S
H263 C240 0.950 . S
H264 C242 0.950 . S
C265 C266 1.443 . S
C265 N269 1.376 . S
C265 C303 1.389 . S
C266 C265 1.443 . S
C266 C267 1.340 . S
C266 H306 0.951 . S
C267 C266 1.340 . S
C267 C268 1.439 . S
C267 H307 0.950 . S
C268 C267 1.439 . S
C268 N269 1.374 . S
C268 C302 1.395 . S
N269 C265 1.376 . S
N269 C268 1.374 . S
N269 Co270 2.008 . S
Co270 N269 2.008 . S
Co270 N271 1.995 . S
Co270 N276 2.008 . S
Co270 N281 1.995 . S
Co270 N286 2.282 . S
Co270 N292 2.282 . S
N271 Co270 1.995 . S
N271 C272 1.376 . S
N271 C275 1.383 . S
C272 N271 1.376 . S
C272 C273 1.446 . S
C272 C302 1.391 . S
C273 C272 1.446 . S
C273 C274 1.339 . S
C273 H308 0.949 . S
C274 C273 1.339 . S
C274 C275 1.439 . S
C274 H309 0.950 . S
C275 N271 1.383 . S
C275 C274 1.439 . S
C275 C304 1.392 . S
N276 Co270 2.008 . S
N276 C277 1.376 . S
N276 C280 1.374 . S
C277 N276 1.376 . S
C277 C278 1.443 . S
C277 C304 1.389 . S
C278 C277 1.443 . S
C278 C279 1.340 . S
C278 H310 0.951 . S
C279 C278 1.340 . S
C279 C280 1.439 . S
C279 H311 0.950 . S
C280 N276 1.374 . S
C280 C279 1.439 . S
C280 C305 1.395 . S
N281 Co270 1.995 . S
N281 C282 1.376 . S
N281 C285 1.383 . S
C282 N281 1.376 . S
C282 C283 1.446 . S
C282 C305 1.391 . S
C283 C282 1.446 . S
C283 C284 1.339 . S
C283 H312 0.949 . S
C284 C283 1.339 . S
C284 C285 1.439 . S
C284 H313 0.950 . S
C285 N281 1.383 . S
C285 C284 1.439 . S
C285 C303 1.392 . S
N286 Co270 2.282 . S
N286 C289 1.332 . S
N286 C291 1.332 . S
C287 C288 1.386 . S
C287 C290 1.388 . S
C288 C287 1.386 . S
C288 C289 1.382 . S
C288 H314 0.950 . S
C289 N286 1.332 . S
C289 C288 1.382 . S
C289 H300 0.952 . S
C290 C287 1.388 . S
C290 C291 1.382 . S
C290 H315 0.950 . S
C291 N286 1.332 . S
C291 C290 1.382 . S
C291 H301 0.948 . S
N292 Co270 2.282 . S
N292 C296 1.332 . S
N292 C297 1.332 . S
C293 C294 1.388 . S
C293 C297 1.382 1_545 S
C293 H316 0.950 . S
C294 C293 1.388 . S
C294 C295 1.386 1_545 S
C295 C294 1.386 1_565 S
C295 C296 1.382 . S
C295 H317 0.950 . S
C296 N292 1.332 . S
C296 C295 1.382 . S
C296 H298 0.952 . S
C297 N292 1.332 . S
C297 C293 1.382 1_565 S
C297 H299 0.948 . S
H298 C296 0.952 . S
H299 C297 0.948 . S
H300 C289 0.952 . S
H301 C291 0.948 . S
C302 C268 1.395 . S
C302 C272 1.391 . S
C303 C265 1.389 . S
C303 C285 1.392 . S
C304 C275 1.392 . S
C304 C277 1.389 . S
C305 C280 1.395 . S
C305 C282 1.391 . S
H306 C266 0.951 . S
H307 C267 0.950 . S
H308 C273 0.949 . S
H309 C274 0.950 . S
H310 C278 0.951 . S
H311 C279 0.950 . S
H312 C283 0.949 . S
H313 C284 0.950 . S
H314 C288 0.950 . S
H315 C290 0.950 . S
H316 C293 0.950 . S
H317 C295 0.950 . S
H318 C324 0.930 . S
H319 C328 0.930 . S
H320 C333 0.929 . S
H321 C331 0.929 . S
H322 C326 0.929 . S
H323 C332 0.929 . S
C324 H318 0.930 . S
C324 C325 1.367 . S
C324 C332 1.378 . S
C325 C324 1.367 . S
C325 C333 1.433 . S
C326 H322 0.929 . S
C326 C328 1.378 . S
C326 C330 1.350 . S
C327 C330 1.463 . S
C327 C332 1.350 . S
C327 N335 1.427 . S
C328 H319 0.930 . S
C328 C326 1.378 . S
C328 C329 1.367 . S
C329 C328 1.367 . S
C329 C331 1.433 . S
C330 C326 1.350 . S
C330 C327 1.463 . S
C330 N334 1.427 . S
C331 H321 0.929 . S
C331 C329 1.433 . S
C331 N334 1.384 . S
C332 H323 0.929 . S
C332 C324 1.378 . S
C332 C327 1.350 . S
C333 H320 0.929 . S
C333 C325 1.433 . S
C333 N335 1.384 . S
N334 C330 1.427 . S
N334 C331 1.384 . S
N335 C327 1.427 . S
N335 C333 1.384 . S
H336 C342 0.930 . S
H337 C346 0.930 . S
H338 C351 0.929 . S
H339 C349 0.929 . S
H340 C344 0.929 . S
H341 C350 0.929 . S
C342 H336 0.930 . S
C342 C343 1.367 . S
C342 C350 1.378 . S
C343 C342 1.367 . S
C343 C351 1.433 . S
C344 H340 0.929 . S
C344 C346 1.378 . S
C344 C348 1.350 . S
C345 C348 1.463 . S
C345 C350 1.350 . S
C345 N353 1.427 . S
C346 H337 0.930 . S
C346 C344 1.378 . S
C346 C347 1.367 . S
C347 C346 1.367 . S
C347 C349 1.433 . S
C348 C344 1.350 . S
C348 C345 1.463 . S
C348 N352 1.427 . S
C349 H339 0.929 . S
C349 C347 1.433 . S
C349 N352 1.384 . S
C350 H341 0.929 . S
C350 C342 1.378 . S
C350 C345 1.350 . S
C351 H338 0.929 . S
C351 C343 1.433 . S
C351 N353 1.384 . S
N352 C348 1.427 . S
N352 C349 1.384 . S
N353 C345 1.427 . S
N353 C351 1.384 . S
H354 C360 0.930 . S
H355 C364 0.930 . S
H356 C369 0.929 . S
H357 C367 0.929 . S
H358 C362 0.929 . S
H359 C368 0.929 . S
C360 H354 0.930 . S
C360 C361 1.367 . S
C360 C368 1.378 . S
C361 C360 1.367 . S
C361 C369 1.433 . S
C362 H358 0.929 . S
C362 C364 1.378 . S
C362 C366 1.350 . S
C363 C366 1.463 . S
C363 C368 1.350 . S
C363 N371 1.427 . S
C364 H355 0.930 . S
C364 C362 1.378 . S
C364 C365 1.367 . S
C365 C364 1.367 . S
C365 C367 1.433 . S
C366 C362 1.350 . S
C366 C363 1.463 . S
C366 N370 1.427 . S
C367 H357 0.929 . S
C367 C365 1.433 . S
C367 N370 1.384 . S
C368 H359 0.929 . S
C368 C360 1.378 . S
C368 C363 1.350 . S
C369 H356 0.929 . S
C369 C361 1.433 . S
C369 N371 1.384 . S
N370 C366 1.427 . S
N370 C367 1.384 . S
N371 C363 1.427 . S
N371 C369 1.384 . S
H372 C378 0.930 . S
H373 C382 0.930 . S
H374 C387 0.929 . S
H375 C385 0.929 . S
H376 C380 0.929 . S
H377 C386 0.929 . S
C378 H372 0.930 . S
C378 C379 1.367 . S
C378 C386 1.378 . S
C379 C378 1.367 . S
C379 C387 1.433 . S
C380 H376 0.929 . S
C380 C382 1.378 . S
C380 C384 1.350 . S
C381 C384 1.463 . S
C381 C386 1.350 . S
C381 N389 1.427 . S
C382 H373 0.930 . S
C382 C380 1.378 . S
C382 C383 1.367 . S
C383 C382 1.367 . S
C383 C385 1.433 . S
C384 C380 1.350 . S
C384 C381 1.463 . S
C384 N388 1.427 . S
C385 H375 0.929 . S
C385 C383 1.433 . S
C385 N388 1.384 . S
C386 H377 0.929 . S
C386 C378 1.378 . S
C386 C381 1.350 . S
C387 H374 0.929 . S
C387 C379 1.433 . S
C387 N389 1.384 . S
N388 C384 1.427 . S
N388 C385 1.384 . S
N389 C381 1.427 . S
N389 C387 1.384 . S
H390 C396 0.930 . S
H391 C400 0.936 . S
H392 C405 0.929 . S
H393 C403 0.929 . S
H394 C398 0.929 . S
H395 C404 0.929 . S
C396 H390 0.930 . S
C396 C397 1.367 . S
C396 C404 1.378 . S
C397 C396 1.367 . S
C397 C405 1.433 . S
C398 H394 0.929 . S
C398 C400 1.386 . S
C398 C402 1.350 . S
C399 C402 1.463 . S
C399 C404 1.350 . S
C399 N407 1.427 . S
C400 H391 0.936 . S
C400 C398 1.386 . S
C400 C401 1.364 1_455 S
C401 C400 1.364 1_655 S
C401 C403 1.433 . S
C402 C398 1.350 . S
C402 C399 1.463 . S
C402 N406 1.427 1_455 S
C403 H393 0.929 . S
C403 C401 1.433 . S
C403 N406 1.384 . S
C404 H395 0.929 . S
C404 C396 1.378 . S
C404 C399 1.350 . S
C405 H392 0.929 . S
C405 C397 1.433 . S
C405 N407 1.384 . S
N406 C402 1.427 1_655 S
N406 C403 1.384 . S
N407 C399 1.427 . S
N407 C405 1.384 . S
H408 C414 0.930 . S
H409 C418 0.930 . S
H410 C423 0.929 . S
H411 C421 0.929 . S
H412 C416 0.929 . S
H413 C422 0.929 . S
C414 H408 0.930 . S
C414 C415 1.367 . S
C414 C422 1.378 . S
C415 C414 1.367 . S
C415 C423 1.433 . S
C416 H412 0.929 . S
C416 C418 1.378 . S
C416 C420 1.350 1_565 S
C417 C420 1.463 . S
C417 C422 1.350 . S
C417 N425 1.427 . S
C418 H409 0.930 . S
C418 C416 1.378 . S
C418 C419 1.367 . S
C419 C418 1.367 . S
C419 C421 1.433 1_565 S
C420 C416 1.350 1_545 S
C420 C417 1.463 . S
C420 N424 1.427 . S
C421 H411 0.929 . S
C421 C419 1.433 1_545 S
C421 N424 1.384 . S
C422 H413 0.929 . S
C422 C414 1.378 . S
C422 C417 1.350 . S
C423 H410 0.929 . S
C423 C415 1.433 . S
C423 N425 1.384 . S
N424 C420 1.427 . S
N424 C421 1.384 . S
N425 C417 1.427 . S
N425 C423 1.384 . S
H426 C432 0.930 . S
H427 C436 0.930 . S
H428 C441 0.929 . S
H429 C439 0.930 1_655 S
H430 C434 0.929 . S
H431 C440 0.929 . S
C432 H426 0.930 . S
C432 C433 1.367 . S
C432 C440 1.378 . S
C433 C432 1.367 . S
C433 C441 1.433 . S
C434 H430 0.929 . S
C434 C436 1.378 . S
C434 C438 1.350 . S
C435 C438 1.463 . S
C435 C440 1.350 . S
C435 N443 1.427 . S
C436 H427 0.930 . S
C436 C434 1.378 . S
C436 C437 1.374 . S
C437 C436 1.374 . S
C437 C439 1.433 . S
C438 C434 1.350 . S
C438 C435 1.463 . S
C438 N442 1.427 . S
C439 H429 0.930 1_455 S
C439 C437 1.433 . S
C439 N442 1.384 . S
C440 H431 0.929 . S
C440 C432 1.378 . S
C440 C435 1.350 . S
C441 H428 0.929 . S
C441 C433 1.433 . S
C441 N443 1.384 . S
N442 C438 1.427 . S
N442 C439 1.384 . S
N443 C435 1.427 . S
N443 C441 1.384 . S
H444 C450 0.930 1_565 S
H445 C454 0.930 . S
H446 C459 0.929 . S
H447 C457 0.929 . S
H448 C452 0.929 . S
H449 C458 0.929 . S
C450 H444 0.930 1_545 S
C450 C451 1.367 1_545 S
C450 C458 1.378 . S
C451 C450 1.367 1_565 S
C451 C459 1.433 1_565 S
C452 H448 0.929 . S
C452 C454 1.378 . S
C452 C456 1.350 . S
C453 C456 1.463 . S
C453 C458 1.350 . S
C453 N461 1.427 . S
C454 H445 0.930 . S
C454 C452 1.378 . S
C454 C455 1.367 . S
C455 C454 1.367 . S
C455 C457 1.433 . S
C456 C452 1.350 . S
C456 C453 1.463 . S
C456 N460 1.427 . S
C457 H447 0.929 . S
C457 C455 1.433 . S
C457 N460 1.384 . S
C458 H449 0.929 . S
C458 C450 1.378 . S
C458 C453 1.350 . S
C459 H446 0.929 . S
C459 C451 1.433 1_545 S
C459 N461 1.384 . S
N460 C456 1.427 . S
N460 C457 1.384 . S
N461 C453 1.427 . S
N461 C459 1.384 . S
H462 C468 0.930 . S
H463 C472 0.930 . S
H464 C477 0.929 1_655 S
H465 C475 0.929 . S
H466 C470 0.929 . S
H467 C476 0.929 . S
C468 H462 0.930 . S
C468 C469 1.367 . S
C468 C476 1.378 . S
C469 C468 1.367 . S
C469 C477 1.433 . S
C470 H466 0.929 . S
C470 C472 1.378 . S
C470 C474 1.350 . S
C471 C474 1.463 . S
C471 C476 1.350 . S
C471 N479 1.427 . S
C472 H463 0.930 . S
C472 C470 1.378 . S
C472 C473 1.367 . S
C473 C472 1.367 . S
C473 C475 1.433 . S
C474 C470 1.350 . S
C474 C471 1.463 . S
C474 N478 1.427 . S
C475 H465 0.929 . S
C475 C473 1.433 . S
C475 N478 1.384 . S
C476 H467 0.929 . S
C476 C468 1.378 . S
C476 C471 1.350 . S
C477 H464 0.929 1_455 S
C477 C469 1.433 . S
C477 N479 1.384 . S
N478 C474 1.427 . S
N478 C475 1.384 . S
N479 C471 1.427 . S
N479 C477 1.384 . S
H480 C486 0.930 . S
H481 C490 0.930 . S
H482 C495 0.929 . S
H483 C493 0.929 . S
H484 C488 0.929 . S
H485 C494 0.929 . S
C486 H480 0.930 . S
C486 C487 1.367 . S
C486 C494 1.378 . S
C487 C486 1.367 . S
C487 C495 1.433 1_554 S
C488 H484 0.929 . S
C488 C490 1.378 . S
C488 C492 1.350 1_556 S
C489 C492 1.463 . S
C489 C494 1.350 . S
C489 N497 1.427 1_554 S
C490 H481 0.930 . S
C490 C488 1.378 . S
C490 C491 1.367 1_556 S
C491 C490 1.367 1_554 S
C491 C493 1.433 . S
C492 C488 1.350 1_554 S
C492 C489 1.463 . S
C492 N496 1.427 . S
C493 H483 0.929 . S
C493 C491 1.433 . S
C493 N496 1.384 . S
C494 H485 0.929 . S
C494 C486 1.378 . S
C494 C489 1.350 . S
C495 H482 0.929 . S
C495 C487 1.433 1_556 S
C495 N497 1.384 . S
N496 C492 1.427 . S
N496 C493 1.384 . S
N497 C489 1.427 1_556 S
N497 C495 1.384 . S
H498 C504 0.930 . S
H499 C508 0.930 . S
H500 C513 0.929 . S
H501 C511 0.929 . S
H502 C506 0.929 . S
H503 C512 0.929 . S
C504 H498 0.930 . S
C504 C505 1.367 . S
C504 C512 1.378 . S
C505 C504 1.367 . S
C505 C513 1.433 . S
C506 H502 0.929 . S
C506 C508 1.378 . S
C506 C510 1.350 . S
C507 C510 1.463 . S
C507 C512 1.350 . S
C507 N515 1.427 . S
C508 H499 0.930 . S
C508 C506 1.378 . S
C508 C509 1.367 . S
C509 C508 1.367 . S
C509 C511 1.433 . S
C510 C506 1.350 . S
C510 C507 1.463 . S
C510 N514 1.427 . S
C511 H501 0.929 . S
C511 C509 1.433 . S
C511 N514 1.384 . S
C512 H503 0.929 . S
C512 C504 1.378 . S
C512 C507 1.350 . S
C513 H500 0.929 . S
C513 C505 1.433 . S
C513 N515 1.384 . S
N514 C510 1.427 . S
N514 C511 1.384 . S
N515 C507 1.427 . S
N515 C513 1.384 . S
H516 C522 0.930 . S
H517 C526 0.930 . S
H518 C531 0.929 . S
H519 C529 0.929 . S
H520 C524 0.929 . S
H521 C530 0.929 . S
C522 H516 0.930 . S
C522 C523 1.367 . S
C522 C530 1.378 . S
C523 C522 1.367 . S
C523 C531 1.433 . S
C524 H520 0.929 . S
C524 C526 1.378 . S
C524 C528 1.350 . S
C525 C528 1.463 . S
C525 C530 1.350 . S
C525 N533 1.427 . S
C526 H517 0.930 . S
C526 C524 1.378 . S
C526 C527 1.367 . S
C527 C526 1.367 . S
C527 C529 1.433 . S
C528 C524 1.350 . S
C528 C525 1.463 . S
C528 N532 1.427 . S
C529 H519 0.929 . S
C529 C527 1.433 . S
C529 N532 1.384 . S
C530 H521 0.929 . S
C530 C522 1.378 . S
C530 C525 1.350 . S
C531 H518 0.929 . S
C531 C523 1.433 . S
C531 N533 1.384 . S
N532 C528 1.427 . S
N532 C529 1.384 . S
N533 C525 1.427 . S
N533 C531 1.384 . S
C325 C38 1.927 . S
C329 C92 1.869 . S
C343 C91 1.927 . S
C347 C145 1.877 . S
C361 C198 1.869 . S
C365 C144 1.927 . S
C379 C197 1.927 . S
C383 C251 1.870 . S
C397 C304 1.878 . S
C401 C250 1.927 . S
C415 C39 1.872 . S
C419 C303 1.930 . S
C433 C29 1.569 . S
C437 C188 1.563 1_455 S
C451 C241 1.558 . S
C455 C82 1.557 . S
C469 C135 1.558 . S
C473 C294 1.557 . S
C487 C181 1.927 . S
C491 C22 1.930 . S
C505 C234 1.930 . S
C509 C75 1.933 . S
C523 C287 1.931 . S
C527 C128 1.934 . S
