# Generated by pormake.
# Topology uoz, (4)-cn, num edge types: 1
# Building blocks:
#     Node 0, Type 0, BuildingBlock: UXUYUI_clean_sbu_0, # of connection points: 4
#     Node 1, Type 0, BuildingBlock: UXUYUI_clean_sbu_0, # of connection points: 4
#     Node 2, Type 0, BuildingBlock: UXUYUI_clean_sbu_0, # of connection points: 4
#     Node 3, Type 0, BuildingBlock: UXUYUI_clean_sbu_0, # of connection points: 4
#     Node 4, Type 0, BuildingBlock: UXUYUI_clean_sbu_0, # of connection points: 4
#     Node 5, Type 0, BuildingBlock: UXUYUI_clean_sbu_0, # of connection points: 4
#     Node 6, Type 0, BuildingBlock: UXUYUI_clean_sbu_0, # of connection points: 4
#     Node 7, Type 0, BuildingBlock: UXUYUI_clean_sbu_0, # of connection points: 4
#     Node 8, Type 0, BuildingBlock: UXUYUI_clean_sbu_0, # of connection points: 4
#     Node 9, Type 0, BuildingBlock: UXUYUI_clean_sbu_0, # of connection points: 4
#     Node 10, Type 0, BuildingBlock: UXUYUI_clean_sbu_0, # of connection points: 4
#     Node 11, Type 0, BuildingBlock: UXUYUI_clean_sbu_0, # of connection points: 4
#     Node 12, Type 0, BuildingBlock: UXUYUI_clean_sbu_0, # of connection points: 4
#     Node 13, Type 0, BuildingBlock: UXUYUI_clean_sbu_0, # of connection points: 4
#     Node 14, Type 0, BuildingBlock: UXUYUI_clean_sbu_0, # of connection points: 4
#     Node 15, Type 0, BuildingBlock: UXUYUI_clean_sbu_0, # of connection points: 4
#     Edge 16, Type (0, 0), BuildingBlock: UVAHIK_clean_linker_0, # of connection points: 2
#     Edge 17, Type (0, 0), BuildingBlock: UVAHIK_clean_linker_0, # of connection points: 2
#     Edge 18, Type (0, 0), BuildingBlock: UVAHIK_clean_linker_0, # of connection points: 2
#     Edge 19, Type (0, 0), BuildingBlock: UVAHIK_clean_linker_0, # of connection points: 2
#     Edge 20, Type (0, 0), BuildingBlock: UVAHIK_clean_linker_0, # of connection points: 2
#     Edge 21, Type (0, 0), BuildingBlock: UVAHIK_clean_linker_0, # of connection points: 2
#     Edge 22, Type (0, 0), BuildingBlock: UVAHIK_clean_linker_0, # of connection points: 2
#     Edge 23, Type (0, 0), BuildingBlock: UVAHIK_clean_linker_0, # of connection points: 2
#     Edge 24, Type (0, 0), BuildingBlock: UVAHIK_clean_linker_0, # of connection points: 2
#     Edge 25, Type (0, 0), BuildingBlock: UVAHIK_clean_linker_0, # of connection points: 2
#     Edge 26, Type (0, 0), BuildingBlock: UVAHIK_clean_linker_0, # of connection points: 2
#     Edge 27, Type (0, 0), BuildingBlock: UVAHIK_clean_linker_0, # of connection points: 2
#     Edge 28, Type (0, 0), BuildingBlock: UVAHIK_clean_linker_0, # of connection points: 2
#     Edge 29, Type (0, 0), BuildingBlock: UVAHIK_clean_linker_0, # of connection points: 2
#     Edge 30, Type (0, 0), BuildingBlock: UVAHIK_clean_linker_0, # of connection points: 2
#     Edge 31, Type (0, 0), BuildingBlock: UVAHIK_clean_linker_0, # of connection points: 2
#     Edge 32, Type (0, 0), BuildingBlock: UVAHIK_clean_linker_0, # of connection points: 2
#     Edge 33, Type (0, 0), BuildingBlock: UVAHIK_clean_linker_0, # of connection points: 2
#     Edge 34, Type (0, 0), BuildingBlock: UVAHIK_clean_linker_0, # of connection points: 2
#     Edge 35, Type (0, 0), BuildingBlock: UVAHIK_clean_linker_0, # of connection points: 2
#     Edge 36, Type (0, 0), BuildingBlock: UVAHIK_clean_linker_0, # of connection points: 2
#     Edge 37, Type (0, 0), BuildingBlock: UVAHIK_clean_linker_0, # of connection points: 2
#     Edge 38, Type (0, 0), BuildingBlock: UVAHIK_clean_linker_0, # of connection points: 2
#     Edge 39, Type (0, 0), BuildingBlock: UVAHIK_clean_linker_0, # of connection points: 2
#     Edge 40, Type (0, 0), BuildingBlock: UVAHIK_clean_linker_0, # of connection points: 2
#     Edge 41, Type (0, 0), BuildingBlock: UVAHIK_clean_linker_0, # of connection points: 2
#     Edge 42, Type (0, 0), BuildingBlock: UVAHIK_clean_linker_0, # of connection points: 2
#     Edge 43, Type (0, 0), BuildingBlock: UVAHIK_clean_linker_0, # of connection points: 2
#     Edge 44, Type (0, 0), BuildingBlock: UVAHIK_clean_linker_0, # of connection points: 2
#     Edge 45, Type (0, 0), BuildingBlock: UVAHIK_clean_linker_0, # of connection points: 2
#     Edge 46, Type (0, 0), BuildingBlock: UVAHIK_clean_linker_0, # of connection points: 2
#     Edge 47, Type (0, 0), BuildingBlock: UVAHIK_clean_linker_0, # of connection points: 2
# Relax obj value: 0.206
# Max RMSD: 0.135
# Mean RMSD: 0.135
data_MOF--net-uoz--node1-UXUYUI_clean_sbu_0--edge1-UVAHIK_clean_linker_0
_symmetry_space_group_name_H-M    P1
_symmetry_Int_Tables_number       1
_symmetry_cell_setting            triclinic
loop_
_symmetry_equiv_pos_as_xyz
'x, y, z'
_cell_length_a     103.60632
_cell_length_b     103.4023
_cell_length_c     39.719815
_cell_angle_alpha  90.008008
_cell_angle_beta   89.991107
_cell_angle_gamma 90.010136
loop_
_atom_site_label
_atom_site_type_symbol
_atom_site_fract_x
_atom_site_fract_y
_atom_site_fract_z
_atom_type_partial_charge
Li0 Li 0.98995 0.59369 0.31501 0.0
Li1 Li 0.01416 0.59155 0.31735 0.0
Li2 Li 0.00141 0.57658 0.28714 0.0
Li3 Li 0.00126 0.57529 0.34685 0.0
C4 C 0.00533 0.59637 0.24575 0.0
N5 N 0.01038 0.598 0.17759 0.0
C6 C 0.01741 0.59276 0.2332 0.0
C7 C 0.99582 0.60083 0.22366 0.0
C8 C 0.01977 0.59365 0.19865 0.0
C9 C 0.99857 0.60158 0.18927 0.0
C10 C 0.0046 0.60392 0.37809 0.0
C11 C 0.01315 0.61073 0.43178 0.0
N12 N 0.01028 0.62321 0.424 0.0
C13 C 0.00155 0.61679 0.37092 0.0
C14 C 0.01028 0.60084 0.40902 0.0
C15 C 0.00457 0.62641 0.39431 0.0
C16 C 0.96373 0.60222 0.3175 0.0
N17 N 0.97613 0.60547 0.31022 0.0
C18 C 0.96928 0.62464 0.2821 0.0
C19 C 0.97907 0.6166 0.2938 0.0
C20 C 0.95633 0.6211 0.28697 0.0
C21 C 0.95358 0.60997 0.30601 0.0
H22 H 0.9617 0.59324 0.33042 0.0
H23 H 0.98903 0.61886 0.28812 0.0
C24 C 0.04084 0.59671 0.30487 0.0
N25 N 0.02927 0.60203 0.31333 0.0
C26 C 0.05097 0.60453 0.29385 0.0
C27 C 0.03726 0.62321 0.30125 0.0
C28 C 0.02738 0.61502 0.31204 0.0
C29 C 0.04911 0.61794 0.29103 0.0
H30 H 0.042 0.58634 0.30432 0.0
H31 H 0.01793 0.61897 0.31698 0.0
C32 C 0.97906 0.56532 0.30104 0.0
N33 N 0.9656 0.54591 0.26854 0.0
C34 C 0.98364 0.55261 0.30164 0.0
C35 C 0.96759 0.56814 0.28404 0.0
C36 C 0.97672 0.54294 0.285 0.0
C37 C 0.96093 0.55819 0.26775 0.0
C38 C 0.02668 0.5687 0.3355 0.0
C39 C 0.03351 0.55741 0.32784 0.0
C40 C 0.03036 0.57612 0.36326 0.0
C41 C 0.0439 0.55375 0.34813 0.0
C42 C 0.04081 0.57216 0.38293 0.0
N43 N 0.0473 0.56114 0.37504 0.0
C44 C 0.01049 0.55836 0.23995 0.0
C45 C 0.99089 0.56862 0.22465 0.0
C46 C 0.01037 0.55112 0.21033 0.0
N47 N 0.0008 0.56682 0.24658 0.0
C48 C 0.9903 0.5615 0.19491 0.0
C49 C 0.00012 0.5526 0.18753 0.0
H50 H 0.01832 0.55726 0.25765 0.0
H51 H 0.98344 0.57561 0.23025 0.0
C52 C 0.99457 0.56758 0.41377 0.0
N53 N 0.00011 0.56394 0.38422 0.0
C54 C 0.99349 0.55872 0.44025 0.0
C55 C 0.00379 0.54263 0.40519 0.0
C56 C 0.00472 0.55177 0.37959 0.0
C57 C 0.99804 0.54601 0.43593 0.0
H58 H 0.99088 0.5773 0.41661 0.0
H59 H 0.00902 0.54909 0.35583 0.0
O60 O 0.00277 0.59533 0.27943 0.0
O61 O 0.00152 0.59433 0.35568 0.0
O62 O 0.98582 0.57495 0.31681 0.0
O63 O 0.01629 0.57223 0.31623 0.0
H64 H 0.0248 0.58909 0.24986 0.0
H65 H 0.98637 0.60352 0.23287 0.0
H66 H 0.02905 0.59082 0.18857 0.0
H67 H 0.99129 0.60496 0.17186 0.0
H68 H 0.01761 0.60848 0.4557 0.0
H69 H 0.99694 0.61934 0.34746 0.0
H70 H 0.01241 0.5909 0.41552 0.0
H71 H 0.00235 0.63642 0.38891 0.0
H72 H 0.97184 0.63327 0.26816 0.0
H73 H 0.94373 0.60687 0.31022 0.0
H74 H 0.05996 0.60008 0.28616 0.0
H75 H 0.03531 0.63346 0.29872 0.0
H76 H 0.99257 0.55027 0.31426 0.0
H77 H 0.96396 0.57793 0.28295 0.0
H78 H 0.98021 0.53308 0.28506 0.0
H79 H 0.95208 0.56026 0.25435 0.0
H80 H 0.03075 0.55146 0.30663 0.0
H81 H 0.02535 0.58495 0.36919 0.0
H82 H 0.04924 0.54502 0.34254 0.0
H83 H 0.04377 0.57786 0.40441 0.0
H84 H 0.01808 0.54429 0.20557 0.0
H85 H 0.98234 0.56303 0.17771 0.0
H86 H 0.98891 0.56168 0.46352 0.0
H87 H 0.00761 0.53301 0.40097 0.0
Li88 Li 0.67082 0.74738 0.59884 0.0
Li89 Li 0.65385 0.76005 0.56911 0.0
Li90 Li 0.6557 0.7363 0.56214 0.0
Li91 Li 0.67189 0.75064 0.53929 0.0
C92 C 0.64866 0.73754 0.62946 0.0
N93 N 0.643 0.72027 0.68044 0.0
C94 C 0.63859 0.74011 0.65189 0.0
C95 C 0.65585 0.72617 0.63293 0.0
C96 C 0.63588 0.73126 0.67751 0.0
C97 C 0.65283 0.71757 0.65887 0.0
C98 C 0.68156 0.77221 0.56223 0.0
C99 C 0.68816 0.78853 0.5224 0.0
N100 N 0.70044 0.78774 0.53431 0.0
C101 C 0.69422 0.77164 0.57426 0.0
C102 C 0.67847 0.78079 0.53627 0.0
C103 C 0.70363 0.77954 0.55976 0.0
C104 C 0.69355 0.74191 0.63175 0.0
N105 N 0.68132 0.74609 0.63749 0.0
C106 C 0.68597 0.74943 0.69574 0.0
C107 C 0.67733 0.74973 0.66869 0.0
C108 C 0.69879 0.74553 0.69026 0.0
C109 C 0.7025 0.74159 0.65787 0.0
H110 H 0.69642 0.73915 0.60658 0.0
H111 H 0.66755 0.7531 0.67239 0.0
C112 C 0.6299 0.77124 0.55778 0.0
N113 N 0.64202 0.77389 0.56881 0.0
C114 C 0.62155 0.7813 0.54933 0.0
C115 C 0.63802 0.79658 0.56612 0.0
C116 C 0.64609 0.78621 0.57406 0.0
C117 C 0.62573 0.79419 0.55243 0.0
H118 H 0.62706 0.76132 0.55334 0.0
H119 H 0.65584 0.78799 0.58268 0.0
C120 C 0.67896 0.7244 0.54425 0.0
N121 N 0.68738 0.70432 0.50396 0.0
C122 C 0.67482 0.7235 0.51085 0.0
C123 C 0.68742 0.71512 0.55714 0.0
C124 C 0.67918 0.71328 0.49089 0.0
C125 C 0.69156 0.70503 0.53637 0.0
C126 C 0.6485 0.75248 0.49696 0.0
C127 C 0.64498 0.74246 0.47517 0.0
C128 C 0.64657 0.76532 0.48705 0.0
C129 C 0.63968 0.74545 0.44378 0.0
C130 C 0.64123 0.76791 0.45547 0.0
N131 N 0.63793 0.758 0.43467 0.0
C132 C 0.63318 0.72452 0.54251 0.0
C133 C 0.6498 0.70927 0.55281 0.0
C134 C 0.62527 0.71491 0.52916 0.0
N135 N 0.64533 0.72163 0.55288 0.0
C136 C 0.6422 0.69932 0.53959 0.0
C137 C 0.62992 0.70219 0.52654 0.0
H138 H 0.62988 0.73444 0.5431 0.0
H139 H 0.65943 0.70718 0.56167 0.0
C140 C 0.69646 0.74981 0.51122 0.0
N141 N 0.68406 0.75292 0.50366 0.0
C142 C 0.7061 0.75088 0.4869 0.0
C143 C 0.69002 0.75831 0.44731 0.0
C144 C 0.68071 0.75719 0.4725 0.0
C145 C 0.70292 0.75509 0.45431 0.0
H146 H 0.69885 0.74647 0.53627 0.0
H147 H 0.67086 0.75964 0.46692 0.0
O148 O 0.65141 0.74616 0.60433 0.0
O149 O 0.67228 0.76429 0.57548 0.0
O150 O 0.67485 0.73431 0.5644 0.0
O151 O 0.65349 0.74972 0.52808 0.0
H152 H 0.63294 0.74887 0.64952 0.0
H153 H 0.66368 0.724 0.61588 0.0
H154 H 0.62812 0.73313 0.69506 0.0
H155 H 0.65832 0.70874 0.66186 0.0
H156 H 0.68592 0.79513 0.50211 0.0
H157 H 0.69678 0.76509 0.5944 0.0
H158 H 0.66873 0.78136 0.52667 0.0
H159 H 0.71349 0.77914 0.56868 0.0
H160 H 0.68278 0.7526 0.72037 0.0
H161 H 0.71226 0.73838 0.65274 0.0
H162 H 0.61226 0.77896 0.53844 0.0
H163 H 0.64156 0.80636 0.56943 0.0
H164 H 0.66837 0.73064 0.50042 0.0
H165 H 0.69071 0.71568 0.58296 0.0
H166 H 0.67605 0.71247 0.46499 0.0
H167 H 0.69808 0.69776 0.54603 0.0
H168 H 0.6463 0.73246 0.48234 0.0
H169 H 0.64925 0.77323 0.50337 0.0
H170 H 0.63693 0.73778 0.4267 0.0
H171 H 0.63973 0.77779 0.4475 0.0
H172 H 0.61576 0.71749 0.52009 0.0
H173 H 0.64614 0.68963 0.53808 0.0
H174 H 0.71594 0.74849 0.49362 0.0
H175 H 0.68707 0.76143 0.42245 0.0
Li176 Li 0.50122 0.42515 0.8004 0.0
Li177 Li 0.50094 0.42012 0.85728 0.0
Li178 Li 0.51207 0.40557 0.81818 0.0
Li179 Li 0.48711 0.40766 0.82034 0.0
C180 C 0.52324 0.43443 0.82138 0.0
N181 N 0.53626 0.45668 0.80294 0.0
C182 C 0.51863 0.44655 0.83131 0.0
C183 C 0.53453 0.43364 0.80221 0.0
C184 C 0.52532 0.45768 0.8217 0.0
C185 C 0.54096 0.44499 0.79311 0.0
C186 C 0.47781 0.43275 0.85061 0.0
C187 C 0.45899 0.43324 0.88639 0.0
N188 N 0.46117 0.44598 0.89272 0.0
C189 C 0.47977 0.44589 0.8572 0.0
C190 C 0.46728 0.42639 0.86512 0.0
C191 C 0.47129 0.45239 0.87868 0.0
C192 C 0.49188 0.44697 0.76579 0.0
N193 N 0.50178 0.43838 0.76701 0.0
C194 C 0.51206 0.44859 0.72022 0.0
C195 C 0.5117 0.43892 0.74465 0.0
C196 C 0.502 0.45767 0.71846 0.0
C197 C 0.49179 0.45675 0.74162 0.0
H198 H 0.48396 0.44614 0.78335 0.0
H199 H 0.51933 0.43182 0.74568 0.0
C200 C 0.51351 0.43353 0.90945 0.0
N201 N 0.50221 0.42757 0.90157 0.0
C202 C 0.51435 0.44143 0.93781 0.0
C203 C 0.49232 0.43588 0.95145 0.0
C204 C 0.49195 0.42802 0.9229 0.0
C205 C 0.50347 0.44315 0.95841 0.0
H206 H 0.52174 0.4326 0.89297 0.0
H207 H 0.48326 0.42276 0.91707 0.0
C208 C 0.499 0.40917 0.7477 0.0
N209 N 0.49842 0.4131 0.67895 0.0
C210 C 0.48775 0.41368 0.73225 0.0
C211 C 0.50993 0.40657 0.72821 0.0
C212 C 0.48767 0.41564 0.69745 0.0
C213 C 0.50944 0.40864 0.69347 0.0
C214 C 0.49891 0.39781 0.88793 0.0
C215 C 0.51029 0.3974 0.90676 0.0
C216 C 0.48706 0.39553 0.90361 0.0
C217 C 0.5096 0.39485 0.94126 0.0
C218 C 0.48678 0.393 0.93816 0.0
N219 N 0.49796 0.39273 0.95611 0.0
C220 C 0.53787 0.39622 0.81029 0.0
C221 C 0.52086 0.38245 0.79276 0.0
C222 C 0.547 0.38795 0.79587 0.0
N223 N 0.52509 0.39352 0.80746 0.0
C224 C 0.52963 0.37384 0.77844 0.0
C225 C 0.54288 0.37676 0.77879 0.0
H226 H 0.54095 0.40502 0.82254 0.0
H227 H 0.5106 0.38059 0.79095 0.0
C228 C 0.46166 0.40454 0.79668 0.0
N229 N 0.47199 0.3983 0.81008 0.0
C230 C 0.45135 0.3975 0.78342 0.0
C231 C 0.46244 0.37776 0.79865 0.0
C232 C 0.47249 0.3852 0.8118 0.0
C233 C 0.45181 0.38391 0.78351 0.0
H234 H 0.46167 0.41499 0.79507 0.0
H235 H 0.481 0.38053 0.82191 0.0
O236 O 0.5167 0.42344 0.83034 0.0
O237 O 0.48596 0.42624 0.82944 0.0
O238 O 0.49936 0.40743 0.7818 0.0
O239 O 0.49936 0.40054 0.85433 0.0
H240 H 0.50995 0.44735 0.84621 0.0
H241 H 0.53816 0.4244 0.79377 0.0
H242 H 0.52182 0.46711 0.82913 0.0
H243 H 0.54965 0.44452 0.77806 0.0
H244 H 0.45087 0.4284 0.89801 0.0
H245 H 0.48773 0.45104 0.84581 0.0
H246 H 0.46565 0.41621 0.86062 0.0
H247 H 0.47274 0.46253 0.88414 0.0
H248 H 0.52018 0.44897 0.70309 0.0
H249 H 0.48369 0.46336 0.74074 0.0
H250 H 0.52329 0.4465 0.94286 0.0
H251 H 0.48371 0.4368 0.96673 0.0
H252 H 0.47925 0.41582 0.74703 0.0
H253 H 0.51873 0.40314 0.73982 0.0
H254 H 0.47906 0.41921 0.68516 0.0
H255 H 0.51785 0.40673 0.67808 0.0
H256 H 0.51954 0.39917 0.89489 0.0
H257 H 0.47817 0.39584 0.88929 0.0
H258 H 0.51832 0.39458 0.95624 0.0
H259 H 0.47767 0.39128 0.95071 0.0
H260 H 0.5571 0.39063 0.79675 0.0
H261 H 0.526 0.36518 0.76641 0.0
H262 H 0.4433 0.40264 0.77239 0.0
H263 H 0.46334 0.36733 0.7988 0.0
Li264 Li 0.82942 0.24913 0.10343 0.0
Li265 Li 0.84496 0.23821 0.06604 0.0
Li266 Li 0.8447 0.26222 0.06894 0.0
Li267 Li 0.82703 0.25055 0.04341 0.0
C268 C 0.85299 0.25571 0.13434 0.0
N269 N 0.86138 0.2686 0.19122 0.0
C270 C 0.8613 0.2496 0.157 0.0
C271 C 0.84898 0.26841 0.14054 0.0
C272 C 0.86541 0.25626 0.18566 0.0
C273 C 0.85333 0.27476 0.16943 0.0
C274 C 0.82255 0.22379 0.05514 0.0
C275 C 0.82181 0.21076 0.00481 0.0
N276 N 0.81524 0.20148 0.02196 0.0
C277 C 0.81575 0.21415 0.07224 0.0
C278 C 0.82558 0.22211 0.02115 0.0
C279 C 0.81215 0.20292 0.05503 0.0
C280 C 0.80729 0.24225 0.13623 0.0
N281 N 0.81905 0.24748 0.14281 0.0
C282 C 0.8132 0.25084 0.2004 0.0
C283 C 0.82224 0.25156 0.1743 0.0
C284 C 0.80081 0.24587 0.19396 0.0
C285 C 0.79801 0.24132 0.16148 0.0
H286 H 0.80498 0.23911 0.11097 0.0
H287 H 0.83164 0.2556 0.17921 0.0
C288 C 0.86729 0.22757 0.04109 0.0
N289 N 0.85622 0.22419 0.05713 0.0
C290 C 0.87517 0.2181 0.02696 0.0
C291 C 0.86072 0.20175 0.04874 0.0
C292 C 0.85301 0.21158 0.06222 0.0
C293 C 0.8717 0.20504 0.02984 0.0
H294 H 0.86962 0.23768 0.03765 0.0
H295 H 0.84421 0.20915 0.07537 0.0
C296 C 0.81601 0.27181 0.06307 0.0
N297 N 0.79556 0.28471 0.03364 0.0
C298 C 0.81809 0.27988 0.03535 0.0
C299 C 0.80355 0.27041 0.07601 0.0
C300 C 0.80763 0.28629 0.02078 0.0
C301 C 0.79333 0.27699 0.06074 0.0
C302 C 0.84909 0.25311 0.99715 0.0
C303 C 0.85044 0.26576 0.98512 0.0
C304 C 0.85218 0.24273 0.97606 0.0
C305 C 0.85477 0.26779 0.95224 0.0
C306 C 0.85647 0.24516 0.94333 0.0
N307 N 0.85766 0.25754 0.93219 0.0
C308 C 0.86806 0.27393 0.05509 0.0
C309 C 0.85107 0.28896 0.06343 0.0
C310 C 0.87606 0.28365 0.04265 0.0
N311 N 0.85571 0.27667 0.06397 0.0
C312 C 0.85874 0.29901 0.05108 0.0
C313 C 0.87124 0.29628 0.03924 0.0
H314 H 0.8714 0.26401 0.05555 0.0
H315 H 0.84117 0.29082 0.07053 0.0
C316 C 0.80243 0.24568 0.01688 0.0
N317 N 0.81411 0.25086 0.00904 0.0
C318 C 0.79252 0.24551 0.9931 0.0
C319 C 0.80676 0.25623 0.95382 0.0
C320 C 0.81638 0.25617 0.97831 0.0
C321 C 0.79465 0.2508 0.96103 0.0
H322 H 0.80082 0.2417 0.04171 0.0
H323 H 0.82559 0.26048 0.97274 0.0
O324 O 0.84911 0.24936 0.10587 0.0
O325 O 0.82617 0.2348 0.07175 0.0
O326 O 0.82608 0.26515 0.07707 0.0
O327 O 0.84517 0.25092 0.02964 0.0
H328 H 0.86454 0.2398 0.15245 0.0
H329 H 0.84247 0.27328 0.1235 0.0
H330 H 0.87183 0.25164 0.20345 0.0
H331 H 0.85028 0.28456 0.17459 0.0
H332 H 0.8241 0.20935 0.97849 0.0
H333 H 0.81333 0.2153 0.09859 0.0
H334 H 0.83069 0.22953 0.00748 0.0
H335 H 0.80691 0.19536 0.06798 0.0
H336 H 0.81576 0.25453 0.22503 0.0
H337 H 0.78868 0.2372 0.15549 0.0
H338 H 0.88369 0.22099 0.013 0.0
H339 H 0.85775 0.19176 0.05151 0.0
H340 H 0.82765 0.28099 0.02481 0.0
H341 H 0.80176 0.26426 0.0975 0.0
H342 H 0.80909 0.29246 -0.00087 0.0
H343 H 0.78363 0.27594 0.07039 0.0
H344 H 0.84801 0.27395 0.00074 0.0
H345 H 0.85134 0.23286 0.98481 0.0
H346 H 0.8558 0.27753 0.94265 0.0
H347 H 0.85888 0.2372 0.9268 0.0
H348 H 0.8857 0.28119 0.03432 0.0
H349 H 0.85463 0.3086 0.04874 0.0
H350 H 0.78326 0.2414 -0.00013 0.0
H351 H 0.80886 0.26033 0.92933 0.0
Li352 Li -0.00046 0.42095 0.78334 0.0
Li353 Li 0.99622 0.42668 0.84287 0.0
Li354 Li 0.00803 0.40703 0.8278 0.0
Li355 Li 0.98498 0.40827 0.8209 0.0
C356 C 0.02512 0.42692 0.82786 0.0
N357 N 0.05038 0.42952 0.84943 0.0
C358 C 0.02781 0.43198 0.85976 0.0
C359 C 0.03534 0.42329 0.80685 0.0
C360 C 0.04062 0.43319 0.87022 0.0
C361 C 0.04802 0.42465 0.81824 0.0
C362 C 0.97733 0.43808 0.81121 0.0
C363 C 0.96333 0.45188 0.8439 0.0
N364 N 0.96626 0.46197 0.82329 0.0
C365 C 0.98018 0.44859 0.79034 0.0
C366 C 0.9688 0.43973 0.83817 0.0
C367 C 0.97448 0.46058 0.79686 0.0
C368 C 0.99216 0.42818 0.71743 0.0
N369 N 0.00169 0.42888 0.74087 0.0
C370 C 0.01242 0.44546 0.70992 0.0
C371 C 0.01185 0.43705 0.73728 0.0
C372 C 0.00233 0.44556 0.6863 0.0
C373 C 0.99231 0.43647 0.68964 0.0
H374 H 0.98404 0.42178 0.72147 0.0
H375 H 0.01915 0.43756 0.75666 0.0
C376 C 0.99142 0.43932 0.90474 0.0
N377 N 0.99556 0.44098 0.8726 0.0
C378 C 0.99103 0.44979 0.9268 0.0
C379 C -0.00055 0.46342 0.88241 0.0
C380 C -0.00043 0.45269 0.86112 0.0
C381 C 0.99513 0.46201 0.91571 0.0
H382 H 0.98857 0.42985 0.91338 0.0
H383 H 0.00295 0.45365 0.83547 0.0
C384 C 0.00449 0.39419 0.7652 0.0
N385 N 0.01805 0.37898 0.72022 0.0
C386 C 0.0007 0.3814 0.75933 0.0
C387 C 0.01508 0.39926 0.74794 0.0
C388 C 0.00771 0.37386 0.73657 0.0
C389 C 0.02184 0.39142 0.72537 0.0
C390 C 0.98842 0.40124 0.88399 0.0
C391 C 0.99302 0.3887 0.88937 0.0
C392 C 0.97682 0.4051 0.89896 0.0
C393 C 0.98591 0.38022 0.90954 0.0
C394 C 0.96998 0.39632 0.91883 0.0
N395 N 0.97462 0.38416 0.92368 0.0
C396 C 0.02605 0.40006 0.87496 0.0
C397 C 0.02642 0.38561 0.82874 0.0
C398 C 0.03536 0.39282 0.89174 0.0
N399 N 0.0218 0.39643 0.84401 0.0
C400 C 0.03557 0.37787 0.84503 0.0
C401 C 0.04008 0.38137 0.87721 0.0
H402 H 0.0219 0.40843 0.8871 0.0
H403 H 0.02275 0.38268 0.80452 0.0
C404 C 0.958 0.40403 0.82875 0.0
N405 N 0.96967 0.39826 0.82443 0.0
C406 C 0.94741 0.39674 0.83937 0.0
C407 C 0.96084 0.37762 0.83823 0.0
C408 C 0.97116 0.38527 0.82773 0.0
C409 C 0.94889 0.38343 0.84533 0.0
H410 H 0.95708 0.41435 0.8257 0.0
H411 H 0.9806 0.381 0.8246 0.0
O412 O 0.0126 0.42557 0.81722 0.0
O413 O 0.98302 0.42632 0.80567 0.0
O414 O 0.99772 0.40167 0.78744 0.0
O415 O 0.9951 0.40961 0.86367 0.0
H416 H 0.02011 0.43472 0.87664 0.0
H417 H 0.03355 0.41946 0.78201 0.0
H418 H 0.04281 0.437 0.89494 0.0
H419 H 0.056 0.42183 0.80225 0.0
H420 H 0.9568 0.45331 0.86484 0.0
H421 H 0.98681 0.44757 0.76952 0.0
H422 H 0.96664 0.4318 0.85496 0.0
H423 H 0.97665 0.46879 0.78097 0.0
H424 H 0.02041 0.45217 0.70802 0.0
H425 H 0.98428 0.43632 0.67221 0.0
H426 H 0.98786 0.44828 0.95249 0.0
H427 H 0.00265 0.4727 0.87295 0.0
H428 H 0.99246 0.37734 0.77227 0.0
H429 H 0.01804 0.40914 0.75185 0.0
H430 H 0.00492 0.36394 0.73189 0.0
H431 H 0.03009 0.39523 0.71192 0.0
H432 H 0.00188 0.38545 0.87776 0.0
H433 H 0.97298 0.41468 0.89467 0.0
H434 H 0.98933 0.37047 0.91376 0.0
H435 H 0.96092 0.39914 0.93023 0.0
H436 H 0.03865 0.39613 0.91613 0.0
H437 H 0.03871 0.36903 0.83295 0.0
H438 H 0.9383 0.40155 0.84408 0.0
H439 H 0.96246 0.36743 0.84289 0.0
Li440 Li 0.84193 0.73635 0.07288 0.0
Li441 Li 0.8255 0.75008 0.09686 0.0
Li442 Li 0.8258 0.74792 0.03739 0.0
Li443 Li 0.84315 0.76041 0.0674 0.0
C444 C 0.81504 0.72681 0.09074 0.0
N445 N 0.79875 0.71322 0.133 0.0
C446 C 0.81932 0.72282 0.12246 0.0
C447 C 0.80253 0.72372 0.08033 0.0
C448 C 0.81093 0.71602 0.14352 0.0
C449 C 0.79443 0.71688 0.1021 0.0
C450 C 0.84992 0.7505 0.13796 0.0
C451 C 0.85933 0.7634 0.18227 0.0
N452 N 0.86236 0.75242 0.19936 0.0
C453 C 0.85313 0.73935 0.15602 0.0
C454 C 0.85303 0.76264 0.15124 0.0
C455 C 0.85941 0.74052 0.18699 0.0
C456 C 0.86532 0.7243 0.08456 0.0
N457 N 0.85255 0.72181 0.08037 0.0
C458 C 0.85532 0.70008 0.09931 0.0
C459 C 0.84751 0.7099 0.08631 0.0
C460 C 0.86839 0.70263 0.10612 0.0
C461 C 0.87347 0.71478 0.09738 0.0
H462 H 0.86899 0.73392 0.07977 0.0
H463 H 0.83731 0.70821 0.08269 0.0
C464 C 0.80099 0.75272 0.12637 0.0
N465 N 0.81376 0.75183 0.13388 0.0
C466 C 0.79185 0.75375 0.15202 0.0
C467 C 0.80915 0.75268 0.19274 0.0
C468 C 0.81795 0.7518 0.16631 0.0
C469 C 0.79593 0.75366 0.18569 0.0
H470 H 0.7979 0.75252 0.10037 0.0
H471 H 0.82808 0.75096 0.17189 0.0
C472 C 0.84857 0.73899 0.00491 0.0
N473 N 0.85507 0.72292 0.95198 0.0
C474 C 0.85809 0.74272 0.98198 0.0
C475 C 0.84239 0.72706 0.00105 0.0
C476 C 0.86123 0.73447 0.95534 0.0
C477 C 0.8458 0.71908 0.97409 0.0
C478 C 0.81678 0.77327 0.07806 0.0
C479 C 0.80478 0.77637 0.06417 0.0
C480 C 0.82076 0.7793 0.10779 0.0
C481 C 0.79686 0.7853 0.0806 0.0
C482 C 0.81256 0.78817 0.12349 0.0
N483 N 0.80087 0.79095 0.1097 0.0
C484 C 0.80201 0.74745 0.00731 0.0
C485 C 0.8188 0.74681 0.96683 0.0
C486 C 0.79269 0.74701 0.9821 0.0
N487 N 0.81476 0.74727 -0.00062 0.0
C488 C 0.80978 0.74624 0.94069 0.0
C489 C 0.7965 0.7463 0.94821 0.0
H490 H 0.7991 0.74808 0.0334 0.0
H491 H 0.82899 0.7469 0.96106 0.0
C492 C 0.86722 0.77129 0.07773 0.0
N493 N 0.85489 0.77432 0.06925 0.0
C494 C 0.87562 0.78092 0.08886 0.0
C495 C 0.85877 0.79672 0.07966 0.0
C496 C 0.85067 0.78676 0.06878 0.0
C497 C 0.87124 0.79374 0.09122 0.0
H498 H 0.87021 0.76126 0.07828 0.0
H499 H 0.84077 0.78885 0.06218 0.0
O500 O 0.82304 0.73377 0.07014 0.0
O501 O 0.84389 0.74953 0.10736 0.0
O502 O 0.84546 0.74696 0.03116 0.0
O503 O 0.82458 0.76436 0.06269 0.0
H504 H 0.82895 0.72515 0.13094 0.0
H505 H 0.7991 0.72654 0.0557 0.0
H506 H 0.81408 0.713 0.16825 0.0
H507 H 0.7847 0.71448 0.09442 0.0
H508 H 0.86181 0.77274 0.19275 0.0
H509 H 0.8508 0.72986 0.14637 0.0
H510 H 0.85067 0.7714 0.13779 0.0
H511 H 0.86194 0.73196 0.20118 0.0
H512 H 0.85099 0.69088 0.10578 0.0
H513 H 0.88354 0.71707 0.1016 0.0
H514 H 0.78171 0.75433 0.14561 0.0
H515 H 0.81267 0.75266 0.21842 0.0
H516 H 0.863 0.75191 0.98472 0.0
H517 H 0.83502 0.72398 0.01856 0.0
H518 H 0.86856 0.73724 0.93735 0.0
H519 H 0.84108 0.70984 0.97074 0.0
H520 H 0.8016 0.77195 0.04095 0.0
H521 H 0.82999 0.77701 0.11888 0.0
H522 H 0.78752 0.78775 0.07021 0.0
H523 H 0.81548 0.79281 0.14668 0.0
H524 H 0.7826 0.7474 0.98914 0.0
H525 H 0.81317 0.74564 0.91496 0.0
H526 H 0.88522 0.77826 0.09718 0.0
H527 H 0.855 0.80647 0.0813 0.0
Li528 Li 0.48462 0.59142 0.32102 0.0
Li529 Li 0.50867 0.59208 0.31986 0.0
Li530 Li 0.49574 0.57527 0.29201 0.0
Li531 Li 0.49695 0.5747 0.35112 0.0
C532 C 0.49002 0.60381 0.26534 0.0
N533 N 0.47666 0.62375 0.23489 0.0
C534 C 0.49528 0.61625 0.26451 0.0
C535 C 0.47809 0.60145 0.25013 0.0
C536 C 0.48834 0.62622 0.24913 0.0
C537 C 0.47145 0.61168 0.23504 0.0
C538 C 0.49764 0.59522 0.39204 0.0
C539 C 0.51018 0.59574 0.44312 0.0
N540 N 0.49914 0.59725 0.46123 0.0
C541 C 0.48641 0.5968 0.41109 0.0
C542 C 0.50963 0.5947 0.40808 0.0
C543 C 0.48737 0.59781 0.44608 0.0
C544 C 0.45839 0.59686 0.33256 0.0
N545 N 0.47018 0.6023 0.32762 0.0
C546 C 0.46245 0.62283 0.34627 0.0
C547 C 0.47233 0.61505 0.33361 0.0
C548 C 0.45036 0.61733 0.35339 0.0
C549 C 0.44827 0.60425 0.34546 0.0
H550 H 0.45707 0.58661 0.3284 0.0
H551 H 0.48193 0.61899 0.33052 0.0
C552 C 0.53531 0.59828 0.32619 0.0
N553 N 0.52309 0.60306 0.32532 0.0
C554 C 0.54544 0.60594 0.33807 0.0
C555 C 0.53025 0.62336 0.34693 0.0
C556 C 0.52043 0.61538 0.33497 0.0
C557 C 0.54289 0.61854 0.34955 0.0
H558 H 0.53709 0.5883 0.31969 0.0
H559 H 0.51055 0.61874 0.33517 0.0
C560 C 0.47464 0.56248 0.31187 0.0
N561 N 0.46159 0.54138 0.28603 0.0
C562 C 0.47637 0.55023 0.32605 0.0
C563 C 0.46611 0.56403 0.28493 0.0
C564 C 0.46973 0.53968 0.31254 0.0
C565 C 0.45966 0.55324 0.2721 0.0
C566 C 0.52017 0.56684 0.30001 0.0
C567 C 0.5243 0.55433 0.30783 0.0
C568 C 0.52451 0.5728 0.27052 0.0
C569 C 0.53266 0.54794 0.28581 0.0
C570 C 0.53287 0.56609 0.24916 0.0
N571 N 0.53673 0.5539 0.25718 0.0
C572 C 0.49337 0.56754 0.22262 0.0
C573 C 0.49716 0.55089 0.26242 0.0
C574 C 0.49311 0.55848 0.19643 0.0
N575 N 0.49534 0.56357 0.25484 0.0
C576 C 0.49693 0.54156 0.23723 0.0
C577 C 0.49483 0.54528 0.20372 0.0
H578 H 0.49199 0.5777 0.21729 0.0
H579 H 0.49882 0.54801 0.28819 0.0
C580 C 0.48676 0.56343 0.40944 0.0
N581 N 0.49768 0.56488 0.3909 0.0
C582 C 0.48698 0.5561 0.43889 0.0
C583 C 0.50969 0.552 0.42956 0.0
C584 C 0.50905 0.55949 0.40043 0.0
C585 C 0.49853 0.55016 0.44913 0.0
H586 H 0.47789 0.56795 0.40123 0.0
H587 H 0.51759 0.56096 0.38525 0.0
O588 O 0.49658 0.59395 0.28064 0.0
O589 O 0.49687 0.59389 0.35788 0.0
O590 O 0.48116 0.5729 0.32456 0.0
O591 O 0.51175 0.57316 0.32081 0.0
H592 H 0.50461 0.61819 0.27554 0.0
H593 H 0.47398 0.59185 0.25016 0.0
H594 H 0.49226 0.63591 0.24848 0.0
H595 H 0.46215 0.61001 0.22341 0.0
H596 H 0.51938 0.5953 0.45592 0.0
H597 H 0.47705 0.59715 0.39901 0.0
H598 H 0.51839 0.59339 0.39365 0.0
H599 H 0.47877 0.59899 0.46119 0.0
H600 H 0.46452 0.63282 0.35253 0.0
H601 H 0.43906 0.59968 0.35049 0.0
H602 H 0.555 0.60177 0.34017 0.0
H603 H 0.52788 0.63305 0.35526 0.0
H604 H 0.48293 0.54883 0.34691 0.0
H605 H 0.46451 0.57346 0.27395 0.0
H606 H 0.47107 0.53012 0.32306 0.0
H607 H 0.4531 0.55429 0.25108 0.0
H608 H 0.52095 0.54955 0.33043 0.0
H609 H 0.52136 0.58247 0.26407 0.0
H610 H 0.53589 0.53823 0.29144 0.0
H611 H 0.53626 0.57055 0.22618 0.0
H612 H 0.49143 0.56173 0.17089 0.0
H613 H 0.49856 0.53154 0.24393 0.0
H614 H 0.4782 0.55513 0.45348 0.0
H615 H 0.51877 0.54749 0.43625 0.0
Li616 Li 0.65744 0.26021 0.57209 0.0
Li617 Li 0.67353 0.24707 0.59999 0.0
Li618 Li 0.67352 0.2484 0.54005 0.0
Li619 Li 0.65629 0.23624 0.57021 0.0
C620 C 0.67986 0.27328 0.59075 0.0
N621 N 0.6866 0.2947 0.62847 0.0
C622 C 0.6749 0.27491 0.6232 0.0
C623 C 0.68829 0.28253 0.57752 0.0
C624 C 0.67842 0.2858 0.64186 0.0
C625 C 0.69157 0.2933 0.59697 0.0
C626 C 0.64927 0.24582 0.63937 0.0
C627 C 0.64148 0.23136 0.68254 0.0
N628 N 0.63722 0.2417 0.70054 0.0
C629 C 0.64474 0.25629 0.65825 0.0
C630 C 0.64757 0.23324 0.65155 0.0
C631 C 0.6387 0.25401 0.68914 0.0
C632 C 0.63404 0.27197 0.58424 0.0
N633 N 0.64649 0.27482 0.57647 0.0
C634 C 0.64263 0.29735 0.58515 0.0
C635 C 0.65079 0.28725 0.57553 0.0
C636 C 0.62991 0.29459 0.59506 0.0
C637 C 0.62552 0.28177 0.59355 0.0
H638 H 0.63093 0.26199 0.58478 0.0
H639 H 0.66064 0.28932 0.56856 0.0
C640 C 0.69707 0.25082 0.63252 0.0
N641 N 0.68496 0.24619 0.6377 0.0
C642 C 0.70604 0.25093 0.65866 0.0
C643 C 0.69002 0.24117 0.6949 0.0
C644 C 0.68135 0.2413 0.66804 0.0
C645 C 0.70251 0.24615 0.69043 0.0
H646 H 0.69976 0.25446 0.60797 0.0
H647 H 0.67178 0.23748 0.67155 0.0
C648 C 0.65176 0.25656 0.50456 0.0
N649 N 0.64665 0.27192 0.44923 0.0
C650 C 0.64223 0.25294 0.48153 0.0
C651 C 0.65869 0.268 0.49949 0.0
C652 C 0.63979 0.26083 0.4537 0.0
C653 C 0.65596 0.27563 0.47136 0.0
C654 C 0.68434 0.22542 0.58316 0.0
C655 C 0.69726 0.22698 0.57389 0.0
C656 C 0.68114 0.21701 0.60939 0.0
C657 C 0.7068 0.22017 0.59131 0.0
C658 C 0.69096 0.21038 0.62621 0.0
N659 N 0.70348 0.21209 0.61691 0.0
C660 C 0.69619 0.25439 0.50671 0.0
C661 C 0.68127 0.24292 0.47265 0.0
C662 C 0.70533 0.25424 0.48099 0.0
N663 N 0.68452 0.24868 0.50221 0.0
C664 C 0.69012 0.24259 0.44608 0.0
C665 C 0.70241 0.24815 0.45032 0.0
H666 H 0.6985 0.2588 0.53065 0.0
H667 H 0.67192 0.23837 0.46996 0.0
C668 C 0.63224 0.22511 0.57982 0.0
N669 N 0.64465 0.22223 0.57185 0.0
C670 C 0.62366 0.21529 0.58859 0.0
C671 C 0.64061 0.19966 0.57867 0.0
C672 C 0.64889 0.20982 0.57019 0.0
C673 C 0.62792 0.20238 0.58905 0.0
H674 H 0.62925 0.23512 0.58143 0.0
H675 H 0.65886 0.20785 0.56391 0.0
O676 O 0.67659 0.2627 0.57188 0.0
O677 O 0.65493 0.24787 0.60865 0.0
O678 O 0.65424 0.24889 0.53187 0.0
O679 O 0.67491 0.23231 0.56707 0.0
H680 H 0.66846 0.26782 0.63394 0.0
H681 H 0.6922 0.28143 0.55242 0.0
H682 H 0.67464 0.28717 0.66701 0.0
H683 H 0.69805 0.30055 0.58702 0.0
H684 H 0.64016 0.22169 0.69229 0.0
H685 H 0.64583 0.26609 0.64916 0.0
H686 H 0.65104 0.22501 0.63746 0.0
H687 H 0.63518 0.26203 0.70401 0.0
H688 H 0.64629 0.30716 0.58564 0.0
H689 H 0.61581 0.27924 0.60125 0.0
H690 H 0.71565 0.25464 0.654 0.0
H691 H 0.6869 0.23745 0.71905 0.0
H692 H 0.63679 0.24411 0.48513 0.0
H693 H 0.6661 0.27098 0.51698 0.0
H694 H 0.63245 0.25814 0.43565 0.0
H695 H 0.66125 0.2845 0.46711 0.0
H696 H 0.69991 0.23346 0.55368 0.0
H697 H 0.6712 0.21574 0.617 0.0
H698 H 0.71685 0.22133 0.58454 0.0
H699 H 0.68863 0.20391 0.64673 0.0
H700 H 0.71461 0.25879 0.48514 0.0
H701 H 0.68754 0.23773 0.42291 0.0
H702 H 0.61405 0.21789 0.59689 0.0
H703 H 0.64424 0.18984 0.57821 0.0
Li704 Li 0.32693 0.25187 0.59713 0.0
Li705 Li 0.34357 0.23863 0.57225 0.0
Li706 Li 0.34453 0.26278 0.56882 0.0
Li707 Li 0.32735 0.25045 0.53757 0.0
C708 C 0.35128 0.2519 0.63857 0.0
N709 N 0.36366 0.25286 0.70019 0.0
C710 C 0.35451 0.24047 0.65539 0.0
C711 C 0.35435 0.26382 0.65317 0.0
C712 C 0.36076 0.24116 0.68649 0.0
C713 C 0.36061 0.2641 0.68431 0.0
C714 C 0.31659 0.22866 0.58877 0.0
C715 C 0.29595 0.21848 0.5982 0.0
N716 N 0.29998 0.21464 0.62921 0.0
C717 C 0.32057 0.22447 0.62057 0.0
C718 C 0.30421 0.22555 0.57734 0.0
C719 C 0.31203 0.21745 0.6407 0.0
C720 C 0.30233 0.2539 0.62633 0.0
N721 N 0.31509 0.25307 0.63408 0.0
C722 C 0.31024 0.25302 0.69287 0.0
C723 C 0.31916 0.25267 0.66661 0.0
C724 C 0.29702 0.25388 0.68557 0.0
C725 C 0.29308 0.25441 0.65181 0.0
H726 H 0.29933 0.254 0.60026 0.0
H727 H 0.32928 0.2519 0.67235 0.0
C728 C 0.36732 0.22694 0.58022 0.0
N729 N 0.35452 0.22425 0.57856 0.0
C730 C 0.37592 0.2177 0.59245 0.0
C731 C 0.35805 0.20287 0.59921 0.0
C732 C 0.34981 0.21237 0.58647 0.0
C733 C 0.37124 0.20567 0.60353 0.0
H734 H 0.37073 0.23653 0.57389 0.0
H735 H 0.33957 0.21051 0.58481 0.0
C736 C 0.31812 0.27527 0.58036 0.0
N737 N 0.30223 0.29252 0.6136 0.0
C738 C 0.30608 0.27848 0.56689 0.0
C739 C 0.32215 0.28097 0.61048 0.0
C740 C 0.29817 0.28719 0.58413 0.0
C741 C 0.31396 0.28962 0.62698 0.0
C742 C 0.35029 0.24224 0.50459 0.0
C743 C 0.35974 0.24643 0.48203 0.0
C744 C 0.34435 0.23023 0.49972 0.0
C745 C 0.36305 0.23858 0.45473 0.0
C746 C 0.34793 0.22267 0.47212 0.0
N747 N 0.35712 0.22696 0.45038 0.0
C748 C 0.36849 0.27361 0.58055 0.0
C749 C 0.35201 0.28918 0.57188 0.0
C750 C 0.37691 0.28315 0.59206 0.0
N751 N 0.35619 0.27672 0.57195 0.0
C752 C 0.36014 0.29906 0.58308 0.0
C753 C 0.37259 0.29599 0.5946 0.0
H754 H 0.37144 0.26357 0.58076 0.0
H755 H 0.34212 0.29134 0.56521 0.0
C756 C 0.3036 0.25023 0.50736 0.0
N757 N 0.31634 0.25013 0.49944 0.0
C758 C 0.29428 0.24993 0.48212 0.0
C759 C 0.31137 0.24952 0.4407 0.0
C760 C 0.32039 0.24994 0.46687 0.0
C761 C 0.29809 0.24946 0.44821 0.0
H762 H 0.30068 0.25062 0.53348 0.0
H763 H 0.33057 0.25009 0.4611 0.0
O764 O 0.34529 0.25142 0.60784 0.0
O765 O 0.32473 0.23583 0.56904 0.0
O766 O 0.32591 0.26656 0.56419 0.0
O767 O 0.34702 0.24981 0.5315 0.0
H768 H 0.35223 0.23115 0.64467 0.0
H769 H 0.35198 0.27279 0.64067 0.0
H770 H 0.36331 0.23238 0.69974 0.0
H771 H 0.36306 0.27326 0.69583 0.0
H772 H 0.28633 0.21605 0.58973 0.0
H773 H 0.33009 0.22682 0.62984 0.0
H774 H 0.30101 0.2285 0.55262 0.0
H775 H 0.31495 0.21428 0.6655 0.0
H776 H 0.31365 0.25268 0.71863 0.0
H777 H 0.28295 0.25491 0.64519 0.0
H778 H 0.38604 0.22018 0.59457 0.0
H779 H 0.35399 0.19377 0.60751 0.0
H780 H 0.30286 0.27431 0.54339 0.0
H781 H 0.33142 0.27859 0.62123 0.0
H782 H 0.2888 0.28972 0.57408 0.0
H783 H 0.31692 0.29401 0.65047 0.0
H784 H 0.36447 0.25568 0.48556 0.0
H785 H 0.33704 0.22679 0.51695 0.0
H786 H 0.37034 0.24172 0.43701 0.0
H787 H 0.34339 0.21337 0.46799 0.0
H788 H 0.38648 0.28042 0.60038 0.0
H789 H 0.35644 0.30883 0.58486 0.0
H790 H 0.28419 0.25023 0.48918 0.0
H791 H 0.31476 0.24911 0.41494 0.0
Li792 Li 0.15947 0.76271 0.07689 0.0
Li793 Li 0.17556 0.74904 0.1003 0.0
Li794 Li 0.17314 0.75025 0.04077 0.0
Li795 Li 0.15661 0.73948 0.07496 0.0
C796 C 0.18117 0.77515 0.05312 0.0
N797 N 0.1869 0.79689 0.0155 0.0
C798 C 0.1921 0.78252 0.0606 0.0
C799 C 0.17314 0.77883 0.0265 0.0
C800 C 0.19483 0.79348 0.0413 0.0
C801 C 0.17621 0.78985 0.00778 0.0
C802 C 0.15581 0.75727 0.14432 0.0
C803 C 0.14327 0.76186 0.19406 0.0
N804 N 0.15197 0.77109 0.20301 0.0
C805 C 0.16463 0.7668 0.15403 0.0
C806 C 0.14504 0.75476 0.16448 0.0
C807 C 0.16252 0.77368 0.18378 0.0
C808 C 0.13703 0.77736 0.0806 0.0
N809 N 0.15002 0.77807 0.08482 0.0
C810 C 0.14815 0.79869 0.11143 0.0
C811 C 0.15571 0.78857 0.09912 0.0
C812 C 0.13465 0.79797 0.10881 0.0
C813 C 0.12911 0.7873 0.09229 0.0
H814 H 0.1328 0.76875 0.06975 0.0
H815 H 0.16605 0.78877 0.10269 0.0
C816 C 0.19995 0.75183 0.1292 0.0
N817 N 0.18792 0.74712 0.13497 0.0
C818 C 0.2094 0.75095 0.15407 0.0
C819 C 0.19395 0.74009 0.18999 0.0
C820 C 0.18474 0.74136 0.1646 0.0
C821 C 0.20642 0.74502 0.18489 0.0
H822 H 0.20216 0.75632 0.10529 0.0
H823 H 0.17505 0.73779 0.16854 0.0
C824 C 0.14922 0.7458 0.00992 0.0
N825 N 0.1399 0.733 0.95389 0.0
C826 C 0.15401 0.73359 0.00142 0.0
C827 C 0.13968 0.75149 0.98994 0.0
C828 C 0.14918 0.72728 0.973 0.0
C829 C 0.1351 0.74487 0.9617 0.0
C830 C 0.18098 0.72453 0.08473 0.0
C831 C 0.19307 0.72025 0.07386 0.0
C832 C 0.17531 0.7189 0.1131 0.0
C833 C 0.19932 0.71043 0.09167 0.0
C834 C 0.18186 0.7091 0.13022 0.0
N835 N 0.19364 0.70511 0.11926 0.0
C836 C 0.1959 0.74763 0.00686 0.0
C837 C 0.17882 0.7529 0.96958 0.0
C838 C 0.2047 0.74747 0.9804 0.0
N839 N 0.18323 0.75012 0.00101 0.0
C840 C 0.18735 0.75297 0.94227 0.0
C841 C 0.20046 0.75013 0.94758 0.0
H842 H 0.19917 0.74597 0.03234 0.0
H843 H 0.16875 0.75521 0.96572 0.0
C844 C 0.13277 0.73024 0.0939 0.0
N845 N 0.1441 0.72632 0.08016 0.0
C846 C 0.12393 0.72115 0.10574 0.0
C847 C 0.13827 0.70414 0.08712 0.0
C848 C 0.1468 0.71359 0.07533 0.0
C849 C 0.12688 0.70791 0.10374 0.0
H850 H 0.13091 0.74045 0.09725 0.0
H851 H 0.15591 0.71076 0.06426 0.0
O852 O 0.17849 0.76436 0.07183 0.0
O853 O 0.15754 0.75053 0.11501 0.0
O854 O 0.15376 0.75227 0.03753 0.0
O855 O 0.17478 0.73429 0.06796 0.0
H856 H 0.19841 0.7798 0.08113 0.0
H857 H 0.16463 0.7733 0.02026 0.0
H858 H 0.20326 0.79928 0.04682 0.0
H859 H 0.17008 0.79281 0.98711 0.0
H860 H 0.13497 0.76003 0.20988 0.0
H861 H 0.17297 0.76896 0.13863 0.0
H862 H 0.13812 0.74743 0.15731 0.0
H863 H 0.16924 0.78111 0.19152 0.0
H864 H 0.15277 0.80678 0.12385 0.0
H865 H 0.11874 0.78629 0.09018 0.0
H866 H 0.21896 0.75478 0.14924 0.0
H867 H 0.19128 0.73558 0.21359 0.0
H868 H 0.16141 0.72902 0.01641 0.0
H869 H 0.13588 0.76094 0.99619 0.0
H870 H 0.15281 0.71783 0.96611 0.0
H871 H 0.12773 0.74916 0.946 0.0
H872 H 0.19758 0.72439 0.05182 0.0
H873 H 0.16604 0.72222 0.12219 0.0
H874 H 0.20869 0.70703 0.08355 0.0
H875 H 0.17761 0.70472 0.15234 0.0
H876 H 0.21478 0.74554 0.98566 0.0
H877 H 0.18375 0.75514 0.9173 0.0
H878 H 0.11513 0.72449 0.11761 0.0
H879 H 0.14098 0.69406 0.08512 0.0
Li880 Li 0.17195 0.24844 0.09968 0.0
Li881 Li 0.15471 0.26021 0.06826 0.0
Li882 Li 0.15676 0.23634 0.06533 0.0
Li883 Li 0.17281 0.25016 0.03979 0.0
C884 C 0.14994 0.23927 0.13248 0.0
N885 N 0.14452 0.22339 0.18659 0.0
C886 C 0.14003 0.24248 0.15482 0.0
C887 C 0.15709 0.22797 0.13761 0.0
C888 C 0.13744 0.23433 0.18205 0.0
C889 C 0.1542 0.22007 0.16512 0.0
C890 C 0.18183 0.27262 0.05769 0.0
C891 C 0.18693 0.28846 0.01517 0.0
N892 N 0.19956 0.28795 0.02443 0.0
C893 C 0.19484 0.27233 0.06697 0.0
C894 C 0.17781 0.28081 0.03176 0.0
C895 C 0.20366 0.28013 0.04979 0.0
C896 C 0.19497 0.24441 0.13238 0.0
N897 N 0.18262 0.24818 0.13816 0.0
C898 C 0.18729 0.25208 0.19618 0.0
C899 C 0.17859 0.25192 0.16925 0.0
C900 C 0.20021 0.24853 0.19067 0.0
C901 C 0.20399 0.24456 0.15836 0.0
H902 H 0.19786 0.24151 0.10732 0.0
H903 H 0.1687 0.25495 0.17301 0.0
C904 C 0.13074 0.27052 0.05378 0.0
N905 N 0.14252 0.27372 0.06618 0.0
C906 C 0.12189 0.28015 0.04553 0.0
C907 C 0.1371 0.29616 0.06549 0.0
C908 C 0.14576 0.28619 0.07286 0.0
C909 C 0.1251 0.29323 0.05066 0.0
H910 H 0.12853 0.26051 0.04846 0.0
H911 H 0.15524 0.28842 0.08268 0.0
C912 C 0.18006 0.22403 0.04957 0.0
N913 N 0.1885 0.20276 0.01368 0.0
C914 C 0.17619 0.22226 0.01619 0.0
C915 C 0.18826 0.21501 0.06467 0.0
C916 C 0.18055 0.21145 0.99847 0.0
C917 C 0.19241 0.20431 0.04612 0.0
C918 C 0.1493 0.25026 0.99753 0.0
C919 C 0.14605 0.23935 0.9785 0.0
C920 C 0.1469 0.26259 0.98448 0.0
C921 C 0.14061 0.24096 0.9466 0.0
C922 C 0.14144 0.2638 0.95248 0.0
N923 N 0.13844 0.25305 0.93436 0.0
C924 C 0.13385 0.22451 0.05079 0.0
C925 C 0.1505 0.20915 0.05955 0.0
C926 C 0.1254 0.21484 0.04039 0.0
N927 N 0.14621 0.22158 0.05914 0.0
C928 C 0.14236 0.19913 0.04917 0.0
C929 C 0.12972 0.20198 0.03865 0.0
H930 H 0.13076 0.23451 0.05067 0.0
H931 H 0.16031 0.20703 0.06682 0.0
C932 C 0.19721 0.24832 0.01072 0.0
N933 N 0.18484 0.25173 0.00358 0.0
C934 C 0.20671 0.24897 0.98592 0.0
C935 C 0.19059 0.25666 0.94679 0.0
C936 C 0.18142 0.25594 0.97243 0.0
C937 C 0.20343 0.2531 0.95333 0.0
H938 H 0.19969 0.24511 0.03582 0.0
H939 H 0.17162 0.25872 0.96729 0.0
O940 O 0.15257 0.24721 0.10578 0.0
O941 O 0.17312 0.26476 0.07349 0.0
O942 O 0.17593 0.23452 0.06756 0.0
O943 O 0.1544 0.24885 0.02915 0.0
H944 H 0.13441 0.25119 0.15116 0.0
H945 H 0.16479 0.22531 0.12064 0.0
H946 H 0.1298 0.23669 0.19956 0.0
H947 H 0.15966 0.21131 0.16941 0.0
H948 H 0.18397 0.29478 0.99488 0.0
H949 H 0.19811 0.26605 0.087 0.0
H950 H 0.16779 0.28116 0.02428 0.0
H951 H 0.21377 0.27993 0.05654 0.0
H952 H 0.18405 0.25526 0.22075 0.0
H953 H 0.21383 0.24161 0.15322 0.0
H954 H 0.11292 0.27735 0.03363 0.0
H955 H 0.13992 0.30605 0.07055 0.0
H956 H 0.16996 0.22919 0.00405 0.0
H957 H 0.19135 0.21626 0.09051 0.0
H958 H 0.17763 0.20996 0.97261 0.0
H959 H 0.19874 0.19723 0.05751 0.0
H960 H 0.14767 0.22971 0.98823 0.0
H961 H 0.14933 0.27115 0.99873 0.0
H962 H 0.13808 0.2326 0.93162 0.0
H963 H 0.13959 0.27328 0.94206 0.0
H964 H 0.11581 0.21752 0.03213 0.0
H965 H 0.14599 0.18931 0.04864 0.0
H966 H 0.21653 0.24635 0.99231 0.0
H967 H 0.18757 0.25975 0.92197 0.0
Li968 Li 0.34463 0.73538 0.57537 0.0
Li969 Li 0.32844 0.74925 0.60481 0.0
Li970 Li 0.32752 0.74637 0.54526 0.0
Li971 Li 0.34467 0.75928 0.56922 0.0
C972 C 0.31572 0.72591 0.56713 0.0
N973 N 0.2952 0.71295 0.53813 0.0
C974 C 0.30306 0.72895 0.57636 0.0
C975 C 0.31794 0.71622 0.54327 0.0
C976 C 0.29282 0.72231 0.56138 0.0
C977 C 0.30744 0.70979 0.52888 0.0
C978 C 0.35123 0.75709 0.63668 0.0
C979 C 0.34835 0.77699 0.6675 0.0
N980 N 0.35818 0.77357 0.68836 0.0
C981 C 0.3613 0.75378 0.6584 0.0
C982 C 0.34469 0.7688 0.64122 0.0
C983 C 0.36467 0.76223 0.68439 0.0
C984 C 0.36807 0.72301 0.56595 0.0
N985 N 0.3556 0.7208 0.57482 0.0
C986 C 0.35823 0.69808 0.56688 0.0
C987 C 0.35071 0.70863 0.57677 0.0
C988 C 0.37088 0.70016 0.55523 0.0
C989 C 0.37595 0.71276 0.55612 0.0
H990 H 0.37157 0.73285 0.56409 0.0
H991 H 0.34074 0.70719 0.58388 0.0
C992 C 0.30656 0.75743 0.63862 0.0
N993 N 0.31796 0.75122 0.64339 0.0
C994 C 0.29771 0.75849 0.66489 0.0
C995 C 0.31269 0.74708 0.70092 0.0
C996 C 0.32124 0.74618 0.67378 0.0
C997 C 0.30065 0.75316 0.69652 0.0
H998 H 0.30417 0.76121 0.614 0.0
H999 H 0.3304 0.74127 0.67675 0.0
C1000 C 0.35057 0.74265 0.5034 0.0
N1001 N 0.36055 0.73612 0.44108 0.0
C1002 C 0.35476 0.7523 0.48127 0.0
C1003 C 0.35159 0.72967 0.49387 0.0
C1004 C 0.35973 0.74881 0.44986 0.0
C1005 C 0.35662 0.72657 0.46226 0.0
C1006 C 0.3229 0.77332 0.55112 0.0
C1007 C 0.32721 0.77397 0.51784 0.0
C1008 C 0.31565 0.7835 0.56446 0.0
C1009 C 0.32422 0.78482 0.49842 0.0
C1010 C 0.31286 0.79419 0.54424 0.0
N1011 N 0.31717 0.79463 0.51191 0.0
C1012 C 0.30425 0.75155 0.51152 0.0
C1013 C 0.318 0.73732 0.48151 0.0
C1014 C 0.29513 0.7511 0.48574 0.0
N1015 N 0.31554 0.74492 0.50871 0.0
C1016 C 0.30906 0.73642 0.45539 0.0
C1017 C 0.29754 0.74349 0.45721 0.0
H1018 H 0.30231 0.75719 0.53388 0.0
H1019 H 0.32678 0.7318 0.48021 0.0
C1020 C 0.36783 0.76993 0.54873 0.0
N1021 N 0.3561 0.77328 0.56123 0.0
C1022 C 0.37627 0.7794 0.53701 0.0
C1023 C 0.3607 0.7957 0.55301 0.0
C1024 C 0.35257 0.78588 0.5646 0.0
C1025 C 0.3726 0.79247 0.53825 0.0
H1026 H 0.37037 0.75982 0.54645 0.0
H1027 H 0.34329 0.78832 0.57523 0.0
O1028 O 0.32585 0.73257 0.58082 0.0
O1029 O 0.34785 0.74889 0.61113 0.0
O1030 O 0.34603 0.74589 0.5347 0.0
O1031 O 0.32578 0.76285 0.57082 0.0
H1032 H 0.30115 0.73644 0.59467 0.0
H1033 H 0.32765 0.71385 0.53543 0.0
H1034 H 0.28297 0.72462 0.56817 0.0
H1035 H 0.30902 0.70235 0.51019 0.0
H1036 H 0.34337 0.78607 0.67131 0.0
H1037 H 0.36646 0.74476 0.65518 0.0
H1038 H 0.33686 0.77155 0.62474 0.0
H1039 H 0.37245 0.75979 0.7014 0.0
H1040 H 0.35403 0.68849 0.56685 0.0
H1041 H 0.38559 0.71479 0.54697 0.0
H1042 H 0.28849 0.76304 0.66006 0.0
H1043 H 0.31544 0.74298 0.72495 0.0
H1044 H 0.35424 0.7624 0.48825 0.0
H1045 H 0.34834 0.72205 0.51042 0.0
H1046 H 0.36297 0.75619 0.4325 0.0
H1047 H 0.35739 0.71656 0.45455 0.0
H1048 H 0.33272 0.76615 0.50706 0.0
H1049 H 0.31227 0.78316 0.59024 0.0
H1050 H 0.3275 0.78543 0.47261 0.0
H1051 H 0.30728 0.80215 0.55426 0.0
H1052 H 0.28624 0.75652 0.48821 0.0
H1053 H 0.31122 0.73041 0.43375 0.0
H1054 H 0.3853 0.77647 0.52557 0.0
H1055 H 0.3576 0.80567 0.5549 0.0
Li1056 Li 0.51109 0.09294 0.81862 0.0
Li1057 Li 0.48678 0.09415 0.82267 0.0
Li1058 Li 0.49959 0.07877 0.85745 0.0
Li1059 Li 0.49752 0.07533 0.79851 0.0
C1060 C 0.50745 0.10222 0.88489 0.0
N1061 N 0.52215 0.11019 0.93908 0.0
C1062 C 0.50225 0.11068 0.90872 0.0
C1063 C 0.52013 0.09782 0.88858 0.0
C1064 C 0.50984 0.1146 0.93595 0.0
C1065 C 0.5274 0.10195 0.91616 0.0
C1066 C 0.49653 0.09235 0.74893 0.0
C1067 C 0.48299 0.09107 0.69971 0.0
N1068 N 0.49364 0.08901 0.68039 0.0
C1069 C 0.50735 0.0903 0.72861 0.0
C1070 C 0.48425 0.09279 0.73444 0.0
C1071 C 0.50568 0.0886 0.69399 0.0
C1072 C 0.5361 0.09776 0.79346 0.0
N1073 N 0.52545 0.10323 0.80742 0.0
C1074 C 0.53318 0.12441 0.79487 0.0
C1075 C 0.52393 0.11626 0.809 0.0
C1076 C 0.54403 0.11906 0.77885 0.0
C1077 C 0.54564 0.10556 0.7791 0.0
H1078 H 0.53684 0.08735 0.79184 0.0
H1079 H 0.51522 0.12027 0.81981 0.0
C1080 C 0.46066 0.10353 0.8271 0.0
N1081 N 0.47306 0.10599 0.81784 0.0
C1082 C 0.45078 0.11194 0.81723 0.0
C1083 C 0.46682 0.12564 0.791 0.0
C1084 C 0.47631 0.11691 0.80088 0.0
C1085 C 0.45383 0.12303 0.7984 0.0
H1086 H 0.45839 0.09482 0.84095 0.0
H1087 H 0.48626 0.11855 0.7938 0.0
C1088 C 0.51972 0.06313 0.83379 0.0
N1089 N 0.53202 0.04054 0.8524 0.0
C1090 C 0.51303 0.05141 0.83352 0.0
C1091 C 0.53272 0.06335 0.84313 0.0
C1092 C 0.5194 0.04009 0.84311 0.0
C1093 C 0.53876 0.05183 0.85257 0.0
C1094 C 0.47417 0.0665 0.82635 0.0
C1095 C 0.47559 0.05408 0.83974 0.0
C1096 C 0.4631 0.06951 0.80781 0.0
C1097 C 0.46604 0.04481 0.8338 0.0
C1098 C 0.45378 0.05998 0.80238 0.0
N1099 N 0.45543 0.04792 0.81537 0.0
C1100 C 0.48862 0.06671 0.91368 0.0
C1101 C 0.51148 0.06655 0.9139 0.0
C1102 C 0.48829 0.05837 0.94128 0.0
N1103 N 0.50009 0.07021 0.89984 0.0
C1104 C 0.51162 0.05816 0.94139 0.0
C1105 C 0.4999 0.05363 0.95477 0.0
H1106 H 0.4797 0.06995 0.90233 0.0
H1107 H 0.52049 0.06969 0.90296 0.0
C1108 C 0.50797 0.05778 0.75165 0.0
N1109 N 0.49668 0.06308 0.76239 0.0
C1110 C 0.50809 0.04912 0.72473 0.0
C1111 C 0.485 0.05176 0.71968 0.0
C1112 C 0.48536 0.06045 0.74649 0.0
C1113 C 0.49647 0.04595 0.70861 0.0
H1114 H 0.51694 0.06043 0.76368 0.0
H1115 H 0.47665 0.06536 0.7538 0.0
O1116 O 0.50011 0.09825 0.85822 0.0
O1117 O 0.49793 0.09364 0.78297 0.0
O1118 O 0.51364 0.07437 0.82487 0.0
O1119 O 0.48328 0.07582 0.83251 0.0
H1120 H 0.49244 0.11416 0.9062 0.0
H1121 H 0.5243 0.09124 0.87044 0.0
H1122 H 0.50594 0.12114 0.95461 0.0
H1123 H 0.53721 0.0986 0.91936 0.0
H1124 H 0.47354 0.09131 0.68814 0.0
H1125 H 0.51691 0.08987 0.73954 0.0
H1126 H 0.47578 0.09428 0.7499 0.0
H1127 H 0.51395 0.08692 0.67796 0.0
H1128 H 0.53166 0.13477 0.79547 0.0
H1129 H 0.55377 0.10106 0.76664 0.0
H1130 H 0.44087 0.10967 0.82359 0.0
H1131 H 0.46955 0.13401 0.77621 0.0
H1132 H 0.50306 0.05104 0.82565 0.0
H1133 H 0.53806 0.07235 0.84343 0.0
H1134 H 0.51431 0.03095 0.84307 0.0
H1135 H 0.5488 0.05186 0.86008 0.0
H1136 H 0.48389 0.05161 0.85489 0.0
H1137 H 0.46188 0.079 0.79687 0.0
H1138 H 0.46705 0.03516 0.84397 0.0
H1139 H 0.44525 0.06215 0.78774 0.0
H1140 H 0.47904 0.05539 0.95131 0.0
H1141 H 0.52081 0.05476 0.95087 0.0
H1142 H 0.51715 0.04489 0.71677 0.0
H1143 H 0.4759 0.04985 0.70722 0.0
Li1144 Li 0.99881 0.92223 0.29892 0.0
Li1145 Li 0.9973 0.91828 0.35782 0.0
Li1146 Li 0.00899 0.90272 0.3209 0.0
Li1147 Li 0.98473 0.90511 0.31899 0.0
C1148 C 0.02331 0.92913 0.3245 0.0
N1149 N 0.0437 0.94567 0.31147 0.0
C1150 C 0.02351 0.94155 0.33849 0.0
C1151 C 0.0336 0.92509 0.30428 0.0
C1152 C 0.03387 0.94977 0.33149 0.0
C1153 C 0.04377 0.9336 0.29786 0.0
C1154 C 0.97829 0.93548 0.33644 0.0
C1155 C 0.96072 0.94858 0.35702 0.0
N1156 N 0.96862 0.95909 0.35701 0.0
C1157 C 0.98619 0.94642 0.33641 0.0
C1158 C 0.96542 0.93656 0.34663 0.0
C1159 C 0.98114 0.95827 0.34697 0.0
C1160 C 0.98867 0.94064 0.25372 0.0
N1161 N -0.0002 0.93473 0.26338 0.0
C1162 C 0.01149 0.94547 0.21971 0.0
C1163 C 0.01103 0.93681 0.24655 0.0
C1164 C 0.0002 0.95186 0.2096 0.0
C1165 C 0.98865 0.94932 0.22683 0.0
H1166 H 0.97973 0.93843 0.26647 0.0
H1167 H 0.01956 0.93144 0.25299 0.0
C1168 C 0.00902 0.93018 0.4136 0.0
N1169 N 0.99743 0.92659 0.40055 0.0
C1170 C 0.00955 0.93862 0.441 0.0
C1171 C 0.98622 0.93874 0.44245 0.0
C1172 C 0.98615 0.93024 0.41522 0.0
C1173 C 0.99803 0.94336 0.45494 0.0
H1174 H 0.01785 0.92703 0.40162 0.0
H1175 H 0.97707 0.92706 0.40484 0.0
C1176 C 0.99789 0.90575 0.24809 0.0
N1177 N 0.99904 0.90973 0.17942 0.0
C1178 C 0.98664 0.90845 0.23001 0.0
C1179 C 0.00971 0.90499 0.23127 0.0
C1180 C 0.98743 0.91046 0.19529 0.0
C1181 C 0.01009 0.90704 0.19652 0.0
C1182 C 0.98873 0.89489 0.38431 0.0
C1183 C 0.9939 0.88606 0.40726 0.0
C1184 C 0.97626 0.89967 0.3892 0.0
C1185 C 0.98648 0.88216 0.43483 0.0
C1186 C 0.96915 0.89555 0.41709 0.0
N1187 N 0.97436 0.88695 0.43914 0.0
C1188 C 0.03464 0.89208 0.32433 0.0
C1189 C 0.0189 0.88065 0.2928 0.0
C1190 C 0.04441 0.88408 0.3118 0.0
N1191 N 0.02228 0.89051 0.31357 0.0
C1192 C 0.0283 0.8724 0.27993 0.0
C1193 C 0.04132 0.87437 0.28833 0.0
H1194 H 0.03702 0.89999 0.34104 0.0
H1195 H 0.00897 0.87961 0.2849 0.0
C1196 C 0.95892 0.90209 0.29787 0.0
N1197 N 0.96964 0.89576 0.30865 0.0
C1198 C 0.9485 0.89513 0.28487 0.0
C1199 C 0.96027 0.87533 0.29532 0.0
C1200 C 0.97044 0.88266 0.30816 0.0
C1201 C 0.94922 0.88158 0.28275 0.0
H1202 H 0.95871 0.91254 0.298 0.0
H1203 H 0.97922 0.87796 0.31635 0.0
O1204 O 0.0134 0.9208 0.33171 0.0
O1205 O 0.9831 0.92371 0.32688 0.0
O1206 O 0.99736 0.90414 0.28221 0.0
O1207 O 0.99591 0.89882 0.35728 0.0
H1208 H 0.01584 0.9448 0.35485 0.0
H1209 H 0.03355 0.91562 0.29279 0.0
H1210 H 0.03412 0.9594 0.34211 0.0
H1211 H 0.05171 0.93063 0.28193 0.0
H1212 H 0.95081 0.94955 0.36519 0.0
H1213 H 0.99608 0.94577 0.3281 0.0
H1214 H 0.95917 0.92817 0.34693 0.0
H1215 H 0.98718 0.9668 0.34713 0.0
H1216 H 0.02051 0.94687 0.20639 0.0
H1217 H 0.97972 0.954 0.21965 0.0
H1218 H 0.01885 0.94196 0.4499 0.0
H1219 H 0.97714 0.942 0.45295 0.0
H1220 H 0.97743 0.90914 0.24273 0.0
H1221 H 0.01852 0.90302 0.24498 0.0
H1222 H 0.97882 0.91265 0.18099 0.0
H1223 H 0.01918 0.90657 0.18319 0.0
H1224 H 0.00355 0.88227 0.4038 0.0
H1225 H 0.97212 0.90656 0.37179 0.0
H1226 H 0.99036 0.87533 0.45282 0.0
H1227 H 0.9595 0.8992 0.42122 0.0
H1228 H 0.05432 0.88594 0.31895 0.0
H1229 H 0.02543 0.86483 0.26263 0.0
H1230 H 0.94013 0.90033 0.27576 0.0
H1231 H 0.96135 0.86493 0.29369 0.0
Li1232 Li 0.5002 0.92206 0.28815 0.0
Li1233 Li 0.49679 0.92448 0.34867 0.0
Li1234 Li 0.51075 0.90647 0.32643 0.0
Li1235 Li 0.4874 0.90595 0.32123 0.0
C1236 C 0.52433 0.93183 0.31533 0.0
N1237 N 0.54693 0.9447 0.29936 0.0
C1238 C 0.5261 0.94469 0.32514 0.0
C1239 C 0.53422 0.92543 0.29811 0.0
C1240 C 0.53754 0.95106 0.31661 0.0
C1241 C 0.54553 0.93212 0.29009 0.0
C1242 C 0.47553 0.9345 0.32086 0.0
C1243 C 0.46056 0.94459 0.35932 0.0
N1244 N 0.45983 0.95503 0.3386 0.0
C1245 C 0.47449 0.94527 0.29976 0.0
C1246 C 0.46838 0.9341 0.3507 0.0
C1247 C 0.46655 0.95557 0.30922 0.0
C1248 C 0.49925 0.92825 0.21723 0.0
N1249 N 0.50174 0.9325 0.24899 0.0
C1250 C 0.50595 0.95382 0.22881 0.0
C1251 C 0.50493 0.94502 0.25512 0.0
C1252 C 0.50357 0.94977 0.19567 0.0
C1253 C 0.50015 0.93678 0.18997 0.0
H1254 H 0.49648 0.91829 0.21312 0.0
H1255 H 0.50622 0.94828 0.28071 0.0
C1256 C 0.49533 0.93296 0.41594 0.0
N1257 N 0.49546 0.93695 0.38337 0.0
C1258 C 0.49471 0.94199 0.44196 0.0
C1259 C 0.49456 0.95908 0.40036 0.0
C1260 C 0.49509 0.94971 0.37515 0.0
C1261 C 0.4944 0.95524 0.43425 0.0
H1262 H 0.4959 0.92277 0.42174 0.0
H1263 H 0.49529 0.95259 0.34899 0.0
C1264 C 0.50769 0.89611 0.26142 0.0
N1265 N 0.52224 0.88303 0.21398 0.0
C1266 C 0.50527 0.88305 0.2547 0.0
C1267 C 0.51737 0.90254 0.24354 0.0
C1268 C 0.51277 0.8766 0.23077 0.0
C1269 C 0.52465 0.89576 0.21978 0.0
C1270 C 0.49218 0.89708 0.38307 0.0
C1271 C 0.49731 0.88459 0.38439 0.0
C1272 C 0.48109 0.89998 0.40167 0.0
C1273 C 0.49116 0.87517 0.40384 0.0
C1274 C 0.47519 0.89029 0.42074 0.0
N1275 N 0.4803 0.87818 0.42141 0.0
C1276 C 0.53382 0.90264 0.3598 0.0
C1277 C 0.52719 0.88417 0.32899 0.0
C1278 C 0.54386 0.89571 0.37457 0.0
N1279 N 0.52565 0.89677 0.33787 0.0
C1280 C 0.53703 0.8768 0.34353 0.0
C1281 C 0.54532 0.88249 0.36737 0.0
H1282 H 0.5322 0.9126 0.36691 0.0
H1283 H 0.52032 0.8796 0.31239 0.0
C1284 C 0.46129 0.89878 0.33215 0.0
N1285 N 0.47321 0.89434 0.32374 0.0
C1286 C 0.45183 0.89018 0.34344 0.0
C1287 C 0.46677 0.87257 0.3344 0.0
C1288 C 0.47594 0.88149 0.32348 0.0
C1289 C 0.45472 0.87694 0.34596 0.0
H1290 H 0.4594 0.90904 0.33233 0.0
H1291 H 0.48558 0.87827 0.31744 0.0
O1292 O 0.5132 0.92543 0.32376 0.0
O1293 O 0.48337 0.92438 0.31213 0.0
O1294 O 0.50041 0.90256 0.28482 0.0
O1295 O 0.49789 0.90635 0.36341 0.0
H1296 H 0.5187 0.94976 0.33901 0.0
H1297 H 0.53332 0.91535 0.29148 0.0
H1298 H 0.53896 0.96105 0.32378 0.0
H1299 H 0.55323 0.92727 0.27668 0.0
H1300 H 0.4551 0.94445 0.38253 0.0
H1301 H 0.47967 0.94565 0.27618 0.0
H1302 H 0.46901 0.92586 0.3673 0.0
H1303 H 0.46572 0.96398 0.29317 0.0
H1304 H 0.5082 0.96381 0.23453 0.0
H1305 H 0.49821 0.93327 0.16479 0.0
H1306 H 0.49479 0.93867 0.46782 0.0
H1307 H 0.49425 0.9692 0.39344 0.0
H1308 H 0.49772 0.87792 0.26787 0.0
H1309 H 0.51916 0.9127 0.24763 0.0
H1310 H 0.51105 0.86648 0.22552 0.0
H1311 H 0.53219 0.90064 0.20586 0.0
H1312 H 0.50586 0.88213 0.37023 0.0
H1313 H 0.47699 0.90958 0.40117 0.0
H1314 H 0.49498 0.86544 0.40483 0.0
H1315 H 0.46654 0.89238 0.43496 0.0
H1316 H 0.55013 0.90057 0.39231 0.0
H1317 H 0.53764 0.8666 0.3376 0.0
H1318 H 0.44271 0.894 0.35227 0.0
H1319 H 0.46934 0.86242 0.33546 0.0
Li1320 Li 0.01209 0.09113 0.82299 0.0
Li1321 Li 0.98887 0.08977 0.82581 0.0
Li1322 Li 0.00311 0.07257 0.84898 0.0
Li1323 Li 0.00092 0.07499 0.78773 0.0
C1324 C 0.00589 0.10039 0.88319 0.0
N1325 N 0.01615 0.12062 0.92004 0.0
C1326 C -0.00024 0.11243 0.88351 0.0
C1327 C 0.01716 0.09861 0.90203 0.0
C1328 C 0.00511 0.12254 0.90223 0.0
C1329 C 0.02223 0.10897 0.92033 0.0
C1330 C 0.992 0.09779 0.75848 0.0
C1331 C 0.97238 0.09548 0.72635 0.0
N1332 N 0.97693 0.10417 0.70355 0.0
C1333 C 0.99647 0.10672 0.73479 0.0
C1334 C 0.97986 0.09213 0.75428 0.0
C1335 C 0.98871 0.10982 0.70717 0.0
C1336 C 0.03786 0.09872 0.83464 0.0
N1337 N 0.02592 0.10309 0.82628 0.0
C1338 C 0.03229 0.12492 0.83643 0.0
C1339 C 0.02314 0.11593 0.82561 0.0
C1340 C 0.0444 0.1206 0.84773 0.0
C1341 C 0.04732 0.10737 0.84549 0.0
H1342 H 0.0398 0.08847 0.83487 0.0
H1343 H 0.01353 0.1191 0.8189 0.0
C1344 C 0.96505 0.09399 0.85723 0.0
N1345 N 0.97334 0.09907 0.83431 0.0
C1346 C 0.95453 0.10114 0.86861 0.0
C1347 C 0.96121 0.11872 0.83252 0.0
C1348 C 0.97152 0.11111 0.82141 0.0
C1349 C 0.9527 0.11385 0.85707 0.0
H1350 H 0.96692 0.08461 0.86795 0.0
H1351 H 0.97847 0.1151 0.80396 0.0
C1352 C 0.02489 0.06305 0.82457 0.0
N1353 N 0.04018 0.04272 0.84594 0.0
C1354 C 0.02657 0.05218 0.80411 0.0
C1355 C 0.03124 0.06368 0.85559 0.0
C1356 C 0.03428 0.04198 0.81542 0.0
C1357 C 0.03885 0.05327 0.86605 0.0
C1358 C 0.97667 0.0636 0.82504 0.0
C1359 C 0.97288 0.05978 0.85733 0.0
C1360 C 0.96933 0.05979 0.79721 0.0
C1361 C 0.96174 0.05233 0.86127 0.0
C1362 C 0.95825 0.05233 0.80221 0.0
N1363 N 0.95471 0.04879 0.83386 0.0
C1364 C 0.0055 0.06352 0.91561 0.0
C1365 C 0.00319 0.0472 0.87404 0.0
C1366 C 0.00593 0.05423 0.941 0.0
N1367 N 0.00419 0.05984 0.88297 0.0
C1368 C 0.00348 0.03758 0.89864 0.0
C1369 C 0.00485 0.04108 0.93261 0.0
H1370 H 0.00601 0.07366 0.92196 0.0
H1371 H 0.00206 0.04462 0.84781 0.0
C1372 C 0.0026 0.06893 0.71668 0.0
N1373 N 0.00019 0.06469 0.74848 0.0
C1374 C 0.00278 0.06013 0.68987 0.0
C1375 C 0.99792 0.04297 0.72926 0.0
C1376 C 0.99768 0.05205 0.75504 0.0
C1377 C 0.00066 0.04694 0.69629 0.0
H1378 H 0.00467 0.07904 0.71223 0.0
H1379 H 0.99591 0.04898 0.78065 0.0
O1380 O 0.00095 0.09045 0.86433 0.0
O1381 O -0.00042 0.09459 0.78541 0.0
O1382 O 0.01723 0.07307 0.81408 0.0
O1383 O 0.98772 0.07069 0.82056 0.0
H1384 H 0.99105 0.11402 0.86923 0.0
H1385 H 0.02205 0.08939 0.90218 0.0
H1386 H 0.00051 0.13193 0.90249 0.0
H1387 H 0.03102 0.10775 0.93468 0.0
H1388 H 0.96296 0.09117 0.72282 0.0
H1389 H 0.00586 0.11118 0.7377 0.0
H1390 H 0.9762 0.08532 0.7725 0.0
H1391 H 0.99205 0.1167 0.68861 0.0
H1392 H 0.02973 0.13507 0.83737 0.0
H1393 H 0.05649 0.10361 0.85414 0.0
H1394 H 0.94814 0.09688 0.88711 0.0
H1395 H 0.96036 0.12853 0.82328 0.0
H1396 H 0.0221 0.05164 0.77961 0.0
H1397 H 0.03014 0.07202 0.87169 0.0
H1398 H 0.0356 0.03349 0.79987 0.0
H1399 H 0.04367 0.05359 0.89019 0.0
H1400 H 0.97837 0.06268 0.87921 0.0
H1401 H 0.97216 0.06251 0.77197 0.0
H1402 H 0.95867 0.04937 0.88614 0.0
H1403 H 0.95248 0.04934 0.78089 0.0
H1404 H 0.00678 0.05731 0.96697 0.0
H1405 H 0.00269 0.02753 0.8912 0.0
H1406 H 0.00495 0.06351 0.66469 0.0
H1407 H 0.9961 0.0329 0.73511 0.0
C1408 C 0.11657 0.68588 0.10816 0.0
C1409 C 0.11879 0.69825 0.12172 0.0
C1410 C 0.10961 0.67663 0.1264 0.0
C1411 C 0.09956 0.66868 0.21349 0.0
H1412 H 0.07441 0.64667 0.1695 0.0
C1413 C 0.06159 0.63868 0.286 0.0
C1414 C 0.05885 0.62619 0.27404 0.0
C1415 C 0.0698 0.64687 0.26797 0.0
C1416 C 0.08152 0.65263 0.18207 0.0
H1417 H 0.11548 0.71051 0.16528 0.0
H1418 H 0.10305 0.69461 0.19635 0.0
H1419 H 0.08673 0.66218 0.13623 0.0
H1420 H 0.06269 0.61245 0.23396 0.0
H1421 H 0.07715 0.62668 0.2028 0.0
H1422 H 0.09419 0.65927 0.25942 0.0
C1423 C 0.10682 0.69197 0.17186 0.0
C1424 C 0.08858 0.66151 0.163 0.0
C1425 C 0.11378 0.70118 0.15374 0.0
C1426 C 0.06474 0.62196 0.2441 0.0
C1427 C 0.07289 0.63016 0.22601 0.0
C1428 C 0.09247 0.65984 0.23256 0.0
C1429 C 0.10476 0.67955 0.15861 0.0
C1430 C 0.0976 0.66972 0.17854 0.0
C1431 C 0.07537 0.64277 0.23749 0.0
C1432 C 0.08331 0.65178 0.2171 0.0
H1433 H 0.12024 0.68333 0.08351 0.0
H1434 H 0.10825 0.66712 0.11555 0.0
H1435 H 0.10662 0.67468 0.22615 0.0
H1436 H 0.05724 0.64218 0.30905 0.0
H1437 H 0.07146 0.65657 0.27734 0.0
C1438 C 0.56134 0.86422 0.3714 0.0
C1439 C 0.55466 0.87449 0.38672 0.0
C1440 C 0.5695 0.85629 0.39037 0.0
C1441 C 0.57563 0.84614 0.4783 0.0
H1442 H 0.60749 0.83274 0.4409 0.0
C1443 C 0.60429 0.80462 0.54045 0.0
C1444 C 0.61783 0.80488 0.53829 0.0
C1445 C 0.59685 0.81386 0.52367 0.0
C1446 C 0.59871 0.83652 0.45192 0.0
H1447 H 0.55138 0.88442 0.43416 0.0
H1448 H 0.56593 0.87097 0.46671 0.0
H1449 H 0.59439 0.84758 0.40782 0.0
H1450 H 0.63415 0.81533 0.5174 0.0
H1451 H 0.62121 0.83169 0.48931 0.0
H1452 H 0.58009 0.83531 0.52269 0.0
C1453 C 0.56471 0.86889 0.44018 0.0
C1454 C 0.5911 0.84489 0.43273 0.0
C1455 C 0.55651 0.87675 0.42132 0.0
C1456 C 0.62376 0.81491 0.52001 0.0
C1457 C 0.61633 0.82418 0.5034 0.0
C1458 C 0.58327 0.83783 0.49755 0.0
C1459 C 0.57119 0.85846 0.42506 0.0
C1460 C 0.57944 0.84975 0.44563 0.0
C1461 C 0.60278 0.82363 0.50446 0.0
C1462 C 0.59487 0.83286 0.48455 0.0
H1463 H 0.56022 0.86227 0.34478 0.0
H1464 H 0.57425 0.84827 0.37796 0.0
H1465 H 0.56663 0.84956 0.48889 0.0
H1466 H 0.59941 0.79712 0.55461 0.0
H1467 H 0.58644 0.81308 0.52487 0.0
C1468 C 0.43685 0.38043 0.73459 0.0
C1469 C 0.44182 0.37618 0.76564 0.0
C1470 C 0.4283 0.3727 0.7163 0.0
C1471 C 0.4068 0.34405 0.72328 0.0
H1472 H 0.41239 0.34166 0.6269 0.0
C1473 C 0.38629 0.30256 0.6434 0.0
C1474 C 0.38047 0.30576 0.61255 0.0
C1475 C 0.3931 0.31183 0.66168 0.0
C1476 C 0.41062 0.34235 0.65371 0.0
H1477 H 0.44127 0.36066 0.80234 0.0
H1478 H 0.42668 0.34702 0.77 0.0
H1479 H 0.42525 0.35672 0.66021 0.0
H1480 H 0.37731 0.32116 0.57649 0.0
H1481 H 0.38939 0.33744 0.60847 0.0
H1482 H 0.39242 0.3294 0.71679 0.0
C1483 C 0.42925 0.35641 0.75996 0.0
C1484 C 0.41795 0.351 0.67283 0.0
C1485 C 0.43775 0.36417 0.77834 0.0
C1486 C 0.38171 0.31844 0.60019 0.0
C1487 C 0.38865 0.32771 0.61839 0.0
C1488 C 0.39955 0.33534 0.7042 0.0
C1489 C 0.42455 0.36051 0.72849 0.0
C1490 C 0.41622 0.35186 0.70792 0.0
C1491 C 0.3943 0.32452 0.64947 0.0
C1492 C 0.40148 0.3343 0.66929 0.0
H1493 H 0.43988 0.38955 0.72379 0.0
H1494 H 0.42472 0.37625 0.6924 0.0
H1495 H 0.40504 0.34464 0.75012 0.0
H1496 H 0.38533 0.29292 0.65385 0.0
H1497 H 0.39747 0.30905 0.68537 0.0
C1498 C 0.88297 0.18357 0.02684 0.0
C1499 C 0.87901 0.19506 0.01114 0.0
C1500 C 0.89003 0.17434 0.00887 0.0
C1501 C 0.91016 0.17088 0.93198 0.0
H1502 H 0.90568 0.13422 0.94886 0.0
C1503 C 0.93613 0.13167 0.8535 0.0
C1504 C 0.94268 0.12228 0.8726 0.0
C1505 C 0.92738 0.14011 0.86889 0.0
C1506 C 0.90702 0.14443 0.94395 0.0
H1507 H 0.87879 0.20569 0.96412 0.0
H1508 H 0.89079 0.1895 0.93257 0.0
H1509 H 0.89224 0.14983 0.97883 0.0
H1510 H 0.94508 0.11448 0.92305 0.0
H1511 H 0.92961 0.12892 0.94942 0.0
H1512 H 0.92488 0.16543 0.8969 0.0
C1513 C 0.88887 0.18775 0.95898 0.0
C1514 C 0.89939 0.15339 0.96124 0.0
C1515 C 0.88197 0.19702 0.97702 0.0
C1516 C 0.94003 0.12136 0.90729 0.0
C1517 C 0.93119 0.12968 0.92253 0.0
C1518 C 0.91768 0.16192 0.91445 0.0
C1519 C 0.89312 0.17634 0.97473 0.0
C1520 C 0.90094 0.16674 0.95569 0.0
C1521 C 0.9249 0.13923 0.90359 0.0
C1522 C 0.91627 0.14863 0.92049 0.0
H1523 H 0.88083 0.18187 0.05316 0.0
H1524 H 0.89329 0.16575 0.02197 0.0
H1525 H 0.91181 0.18107 0.92748 0.0
H1526 H 0.93779 0.13255 0.82668 0.0
H1527 H 0.92256 0.14733 0.85366 0.0
C1528 C 0.05867 0.36562 0.87958 0.0
C1529 C 0.04917 0.37292 0.89627 0.0
C1530 C 0.06698 0.35754 0.89767 0.0
C1531 C 0.07055 0.34171 0.98163 0.0
H1532 H 0.10551 0.33608 0.95031 0.0
C1533 C 0.10292 0.30191 0.03797 0.0
C1534 C 0.11639 0.30364 0.03817 0.0
C1535 C 0.09486 0.31096 0.02255 0.0
C1536 C 0.09586 0.33769 0.95985 0.0
H1537 H 0.04096 0.37721 0.94541 0.0
H1538 H 0.05591 0.36396 0.97681 0.0
H1539 H 0.09156 0.35085 0.91996 0.0
H1540 H 0.13182 0.31668 0.02327 0.0
H1541 H 0.11774 0.33281 0.99854 0.0
H1542 H 0.07504 0.32909 0.02249 0.0
C1543 C 0.05675 0.36413 0.94964 0.0
C1544 C 0.08774 0.346 0.94196 0.0
C1545 C 0.0483 0.37199 0.93155 0.0
C1546 C 0.1215 0.31502 0.02401 0.0
C1547 C 0.11341 0.32419 0.00914 0.0
C1548 C 0.07874 0.3336 -0.00013 0.0
C1549 C 0.06615 0.3567 0.93299 0.0
C1550 C 0.07493 0.34805 0.95242 0.0
C1551 C 0.1 0.32215 0.00748 0.0
C1552 C 0.09147 0.33136 0.98907 0.0
H1553 H 0.05976 0.36616 0.85252 0.0
H1554 H 0.07395 0.35184 0.88381 0.0
H1555 H 0.06071 0.34284 0.9903 0.0
H1556 H 0.09857 0.29342 0.04918 0.0
H1557 H 0.08462 0.30893 0.02159 0.0
C1558 C 0.9354 0.86174 0.27683 0.0
C1559 C 0.93905 0.87404 0.26513 0.0
C1560 C 0.92684 0.8541 0.2583 0.0
C1561 C 0.91508 0.84961 0.17151 0.0
H1562 H 0.89044 0.82673 0.21453 0.0
C1563 C 0.87994 0.81634 0.09735 0.0
C1564 C 0.879 0.80358 0.10929 0.0
C1565 C 0.88662 0.82571 0.1159 0.0
C1566 C 0.89733 0.83303 0.20219 0.0
H1567 H 0.93627 0.88807 0.22514 0.0
H1568 H 0.92106 0.87491 0.1934 0.0
H1569 H 0.90271 0.84201 0.24862 0.0
H1570 H 0.88418 0.79068 0.15019 0.0
H1571 H 0.89593 0.80693 0.1822 0.0
H1572 H 0.9097 0.84054 0.12507 0.0
C1573 C 0.92499 0.87108 0.21662 0.0
C1574 C 0.90436 0.84177 0.22171 0.0
C1575 C 0.93357 0.8787 0.2351 0.0
C1576 C 0.88492 0.80037 0.14002 0.0
C1577 C 0.89149 0.80972 0.15861 0.0
C1578 C 0.90798 0.84091 0.15196 0.0
C1579 C 0.9217 0.8586 0.22769 0.0
C1580 C 0.91347 0.85003 0.20668 0.0
C1581 C 0.89233 0.8225 0.1469 0.0
C1582 C 0.89919 0.83238 0.16718 0.0
H1583 H 0.93932 0.85792 0.30005 0.0
H1584 H 0.92461 0.84449 0.26745 0.0
H1585 H 0.92214 0.8557 0.15915 0.0
H1586 H 0.87547 0.81908 0.07375 0.0
H1587 H 0.88708 0.83551 0.10634 0.0
C1588 C 0.39148 0.68811 0.54404 0.0
C1589 C 0.37818 0.68966 0.53841 0.0
C1590 C 0.39859 0.67922 0.52506 0.0
C1591 C 0.39845 0.66355 0.44261 0.0
H1592 H 0.42447 0.64106 0.48123 0.0
C1593 C 0.43791 0.63776 0.36411 0.0
C1594 C 0.44054 0.62481 0.3723 0.0
C1595 C 0.4295 0.64509 0.38399 0.0
C1596 C 0.41717 0.64722 0.47012 0.0
H1597 H 0.36187 0.683 0.50888 0.0
H1598 H 0.37428 0.66745 0.47591 0.0
H1599 H 0.41127 0.65458 0.51817 0.0
H1600 H 0.43637 0.60936 0.40761 0.0
H1601 H 0.42167 0.62214 0.44218 0.0
H1602 H 0.40444 0.65629 0.39454 0.0
C1603 C 0.3792 0.67311 0.49495 0.0
C1604 C 0.4097 0.65502 0.49123 0.0
C1605 C 0.37207 0.6819 0.51411 0.0
C1606 C 0.43441 0.61927 0.40039 0.0
C1607 C 0.42611 0.62662 0.42042 0.0
C1608 C 0.40601 0.65585 0.42148 0.0
C1609 C 0.39256 0.67183 0.49985 0.0
C1610 C 0.40027 0.66327 0.47768 0.0
C1611 C 0.42369 0.63964 0.41265 0.0
C1612 C 0.41546 0.64762 0.43502 0.0
H1613 H 0.39642 0.69395 0.56265 0.0
H1614 H 0.40889 0.67848 0.52926 0.0
H1615 H 0.39134 0.66992 0.43144 0.0
H1616 H 0.44248 0.64227 0.34257 0.0
H1617 H 0.42786 0.65513 0.37752 0.0
C1618 C 0.60613 0.19223 0.59785 0.0
C1619 C 0.61953 0.19209 0.60336 0.0
C1620 C 0.59807 0.1836 0.61489 0.0
C1621 C 0.59737 0.15314 0.66317 0.0
H1622 H 0.56759 0.16864 0.7064 0.0
C1623 C 0.56639 0.12553 0.76087 0.0
C1624 C 0.55298 0.12742 0.75947 0.0
C1625 C 0.57468 0.13317 0.74143 0.0
C1626 C 0.57576 0.1641 0.69416 0.0
H1627 H 0.63499 0.18244 0.63038 0.0
H1628 H 0.62094 0.16724 0.65957 0.0
H1629 H 0.58152 0.18188 0.67112 0.0
H1630 H 0.53771 0.13857 0.73599 0.0
H1631 H 0.55207 0.15175 0.70193 0.0
H1632 H 0.59155 0.13532 0.68603 0.0
C1633 C 0.61669 0.17401 0.64197 0.0
C1634 C 0.58374 0.1717 0.67392 0.0
C1635 C 0.62474 0.1827 0.62511 0.0
C1636 C 0.54802 0.13707 0.73819 0.0
C1637 C 0.55627 0.14463 0.71864 0.0
C1638 C 0.58932 0.1455 0.68326 0.0
C1639 C 0.60325 0.17458 0.63763 0.0
C1640 C 0.59462 0.16631 0.65821 0.0
C1641 C 0.5697 0.14279 0.72 0.0
C1642 C 0.57841 0.15089 0.69899 0.0
H1643 H 0.60182 0.19919 0.58085 0.0
H1644 H 0.58776 0.18409 0.61062 0.0
H1645 H 0.60566 0.14872 0.65118 0.0
H1646 H 0.57048 0.1182 0.77718 0.0
H1647 H 0.58499 0.13162 0.74344 0.0
C1648 C 0.93599 0.36305 0.85221 0.0
C1649 C 0.93853 0.37586 0.86197 0.0
C1650 C 0.92732 0.35546 0.87048 0.0
C1651 C 0.91358 0.35253 0.95542 0.0
H1652 H 0.89097 0.32756 0.91276 0.0
C1653 C 0.87902 0.31912 0.03068 0.0
C1654 C 0.87865 0.30614 0.0202 0.0
C1655 C 0.8855 0.32841 0.01141 0.0
C1656 C 0.89729 0.33444 0.92503 0.0
H1657 H 0.93375 0.39084 0.89816 0.0
H1658 H 0.9184 0.37766 0.92959 0.0
H1659 H 0.90331 0.34257 0.87805 0.0
H1660 H 0.88463 0.29278 0.98103 0.0
H1661 H 0.89612 0.30886 0.94798 0.0
H1662 H 0.90769 0.34426 0.00239 0.0
C1663 C 0.92322 0.37345 0.90801 0.0
C1664 C 0.90435 0.34304 0.90515 0.0
C1665 C 0.93188 0.38105 0.88972 0.0
C1666 C 0.88492 0.30265 0.99014 0.0
C1667 C 0.89133 0.31191 0.9709 0.0
C1668 C 0.9065 0.34393 0.97531 0.0
C1669 C 0.92101 0.3605 0.89896 0.0
C1670 C 0.91272 0.35206 0.92009 0.0
C1671 C 0.89164 0.3249 0.98117 0.0
C1672 C 0.89844 0.33466 0.9603 0.0
H1673 H 0.94091 0.35881 0.83082 0.0
H1674 H 0.92592 0.34548 0.863 0.0
H1675 H 0.92007 0.35925 0.9677 0.0
H1676 H 0.8743 0.32209 0.05375 0.0
H1677 H 0.88553 0.33836 0.01988 0.0
C1678 C 0.43333 0.12579 0.76592 0.0
C1679 C 0.44361 0.13133 0.78391 0.0
C1680 C 0.42482 0.13361 0.74771 0.0
C1681 C 0.42385 0.16579 0.70764 0.0
H1682 H 0.38734 0.15858 0.69717 0.0
C1683 C 0.38886 0.2016 0.64536 0.0
C1684 C 0.37978 0.19666 0.62236 0.0
C1685 C 0.39648 0.19329 0.66457 0.0
C1686 C 0.39755 0.16061 0.69962 0.0
H1687 H 0.45256 0.14936 0.7989 0.0
H1688 H 0.43753 0.16305 0.76791 0.0
H1689 H 0.40043 0.14494 0.73408 0.0
H1690 H 0.37171 0.17904 0.60143 0.0
H1691 H 0.38497 0.16449 0.63551 0.0
H1692 H 0.42095 0.18153 0.67354 0.0
C1693 C 0.43625 0.15266 0.76694 0.0
C1694 C 0.40504 0.15282 0.72076 0.0
C1695 C 0.44481 0.14485 0.78488 0.0
C1696 C 0.37853 0.18317 0.61908 0.0
C1697 C 0.3861 0.17484 0.63858 0.0
C1698 C 0.41636 0.1736 0.68674 0.0
C1699 C 0.42639 0.14712 0.74733 0.0
C1700 C 0.41827 0.15538 0.72517 0.0
C1701 C 0.39514 0.17983 0.66152 0.0
C1702 C 0.40312 0.17114 0.68263 0.0
H1703 H 0.43228 0.11538 0.76445 0.0
H1704 H 0.4174 0.12901 0.73269 0.0
H1705 H 0.43407 0.16784 0.70973 0.0
H1706 H 0.38987 0.21191 0.6493 0.0
H1707 H 0.40321 0.19742 0.68246 0.0
C1708 C 0.5658 0.62638 0.35497 0.0
C1709 C 0.55303 0.62618 0.36692 0.0
C1710 C 0.57533 0.63334 0.37218 0.0
C1711 C 0.58259 0.64789 0.45531 0.0
H1712 H 0.60607 0.66967 0.40474 0.0
C1713 C 0.62141 0.67951 0.52028 0.0
C1714 C 0.62231 0.69226 0.50827 0.0
C1715 C 0.61416 0.67029 0.50273 0.0
C1716 C 0.59957 0.66363 0.41922 0.0
H1717 H 0.54033 0.63286 0.40675 0.0
H1718 H 0.5568 0.6452 0.43613 0.0
H1719 H 0.59092 0.65576 0.3748 0.0
H1720 H 0.61668 0.70522 0.46788 0.0
H1721 H 0.60385 0.68929 0.43785 0.0
H1722 H 0.59088 0.65613 0.49973 0.0
C1723 C 0.55951 0.63991 0.41368 0.0
C1724 C 0.59099 0.65556 0.40206 0.0
C1725 C 0.55002 0.633 0.39651 0.0
C1726 C 0.616 0.69554 0.47813 0.0
C1727 C 0.6088 0.68635 0.46062 0.0
C1728 C 0.59117 0.65595 0.47247 0.0
C1729 C 0.57228 0.64015 0.40178 0.0
C1730 C 0.58222 0.64779 0.41992 0.0
C1731 C 0.60775 0.67363 0.47274 0.0
C1732 C 0.59958 0.66411 0.45461 0.0
H1733 H 0.56841 0.62124 0.33221 0.0
H1734 H 0.5851 0.63328 0.36249 0.0
H1735 H 0.57609 0.64186 0.4698 0.0
H1736 H 0.62615 0.67671 0.54345 0.0
H1737 H 0.6136 0.66054 0.51258 0.0
C1738 C 0.12894 0.81145 0.159 0.0
C1739 C 0.1263 0.80761 0.12576 0.0
C1740 C 0.12035 0.81944 0.17642 0.0
C1741 C 0.08604 0.82882 0.17629 0.0
H1742 H 0.09718 0.8554 0.23881 0.0
C1743 C 0.05038 0.86449 0.23594 0.0
C1744 C 0.05157 0.86698 0.2706 0.0
C1745 C 0.05988 0.85758 0.21879 0.0
C1746 C 0.09395 0.84792 0.22168 0.0
H1747 H 0.11294 0.80962 0.08414 0.0
H1748 H 0.09803 0.82375 0.1143 0.0
H1749 H 0.11326 0.84324 0.20673 0.0
H1750 H 0.06383 0.86434 0.31431 0.0
H1751 H 0.08054 0.85225 0.28411 0.0
H1752 H 0.06676 0.83351 0.19105 0.0
C1753 C 0.10658 0.82034 0.12721 0.0
C1754 C 0.10314 0.84097 0.20328 0.0
C1755 C 0.11513 0.8123 0.10987 0.0
C1756 C 0.06265 0.86261 0.2876 0.0
C1757 C 0.07221 0.85571 0.27033 0.0
C1758 C 0.07688 0.83579 0.19453 0.0
C1759 C 0.10896 0.82379 0.16092 0.0
C1760 C 0.09928 0.83137 0.18026 0.0
C1761 C 0.07085 0.85304 0.23579 0.0
C1762 C 0.08072 0.84544 0.21731 0.0
H1763 H 0.13737 0.80783 0.17208 0.0
H1764 H 0.1224 0.82178 0.20245 0.0
H1765 H 0.08274 0.82129 0.15941 0.0
H1766 H 0.04217 0.86803 0.22182 0.0
H1767 H 0.05868 0.85592 0.19204 0.0
C1768 C 0.9341 0.63101 0.2857 0.0
C1769 C 0.9459 0.62838 0.26966 0.0
C1770 C 0.92438 0.63783 0.2688 0.0
C1771 C 0.91386 0.64762 0.18315 0.0
H1772 H 0.89628 0.67538 0.23001 0.0
C1773 C 0.87552 0.6798 0.1181 0.0
C1774 C 0.87641 0.69312 0.12476 0.0
C1775 C 0.88282 0.67094 0.13668 0.0
C1776 C 0.90113 0.66768 0.21655 0.0
H1777 H 0.95657 0.63043 0.22292 0.0
H1778 H 0.93988 0.64255 0.19399 0.0
H1779 H 0.91126 0.66155 0.2607 0.0
H1780 H 0.88547 0.70754 0.15672 0.0
H1781 H 0.89845 0.69219 0.18823 0.0
H1782 H 0.90417 0.65408 0.13868 0.0
C1783 C 0.93803 0.63929 0.21945 0.0
C1784 C 0.90959 0.65965 0.23424 0.0
C1785 C 0.9477 0.63252 0.23627 0.0
C1786 C 0.88472 0.69737 0.15047 0.0
C1787 C 0.892 0.68854 0.16897 0.0
C1788 C 0.90542 0.65566 0.16544 0.0
C1789 C 0.92626 0.64205 0.23548 0.0
C1790 C 0.91626 0.6497 0.21759 0.0
C1791 C 0.89113 0.67522 0.16238 0.0
C1792 C 0.89916 0.66594 0.18179 0.0
H1793 H 0.93244 0.62795 0.31141 0.0
H1794 H 0.91538 0.63973 0.28176 0.0
H1795 H 0.9187 0.6399 0.1697 0.0
H1796 H 0.86923 0.67623 0.09839 0.0
H1797 H 0.88187 0.66073 0.13112 0.0
C1798 C 0.04866 0.13837 0.88895 0.0
C1799 C 0.0534 0.12956 0.86503 0.0
C1800 C 0.05713 0.14601 0.9077 0.0
C1801 C 0.09089 0.14727 0.9369 0.0
H1802 H 0.08236 0.18288 0.95792 0.0
C1803 C 0.12646 0.18318 -0.00032 0.0
C1804 C 0.12136 0.19193 0.02329 0.0
C1805 C 0.11833 0.17489 0.98175 0.0
C1806 C 0.0848 0.1729 0.95263 0.0
H1807 H 0.07072 0.12208 0.84136 0.0
H1808 H 0.08554 0.13556 0.87391 0.0
H1809 H 0.06801 0.1703 0.92208 0.0
H1810 H 0.10382 0.19825 0.04813 0.0
H1811 H 0.08962 0.18376 0.01687 0.0
H1812 H 0.10775 0.14995 0.96734 0.0
C1813 C 0.07527 0.1364 0.87853 0.0
C1814 C 0.07659 0.1657 0.93203 0.0
C1815 C 0.06679 0.12873 0.8598 0.0
C1816 C 0.10802 0.19178 0.0297 0.0
C1817 C 0.09989 0.18351 0.01175 0.0
C1818 C 0.09913 0.1545 0.95746 0.0
C1819 C 0.07054 0.14503 0.90296 0.0
C1820 C 0.0795 0.15279 0.92401 0.0
C1821 C 0.10492 0.17519 0.98703 0.0
C1822 C 0.09614 0.16737 0.96566 0.0
H1823 H 0.03842 0.13904 0.89411 0.0
H1824 H 0.05316 0.1524 0.92667 0.0
H1825 H 0.09331 0.13729 0.93163 0.0
H1826 H 0.13668 0.18317 0.99384 0.0
H1827 H 0.12248 0.16866 0.96269 0.0
C1828 C 0.6263 0.31275 0.63551 0.0
C1829 C 0.62157 0.30476 0.60971 0.0
C1830 C 0.61805 0.32125 0.65238 0.0
C1831 C 0.58328 0.32598 0.67014 0.0
H1832 H 0.59473 0.35906 0.70522 0.0
C1833 C 0.54853 0.36315 0.72859 0.0
C1834 C 0.55217 0.3686 0.75964 0.0
C1835 C 0.55718 0.35564 0.71013 0.0
C1836 C 0.59146 0.3498 0.69576 0.0
H1837 H 0.60474 0.29984 0.58007 0.0
H1838 H 0.5904 0.315 0.60866 0.0
H1839 H 0.60946 0.346 0.67129 0.0
H1840 H 0.5679 0.37039 0.79545 0.0
H1841 H 0.58314 0.35746 0.76261 0.0
H1842 H 0.5652 0.32993 0.69413 0.0
C1843 C 0.60037 0.31443 0.61668 0.0
C1844 C 0.59988 0.3423 0.67636 0.0
C1845 C 0.60858 0.30581 0.60011 0.0
C1846 C 0.56479 0.36646 0.77152 0.0
C1847 C 0.57352 0.35905 0.75278 0.0
C1848 C 0.57483 0.33354 0.68917 0.0
C1849 C 0.60492 0.32204 0.64357 0.0
C1850 C 0.5959 0.33028 0.66334 0.0
C1851 C 0.56976 0.35352 0.722 0.0
C1852 C 0.57884 0.3455 0.7022 0.0
H1853 H 0.63624 0.31199 0.64371 0.0
H1854 H 0.62188 0.32681 0.67321 0.0
H1855 H 0.57995 0.31666 0.66128 0.0
H1856 H 0.53903 0.36486 0.71811 0.0
H1857 H 0.5541 0.35165 0.68622 0.0
C1858 C 0.37514 0.81191 0.50114 0.0
C1859 C 0.38075 0.80247 0.52197 0.0
C1860 C 0.38288 0.82043 0.48275 0.0
C1861 C 0.41567 0.82282 0.44756 0.0
H1862 H 0.40695 0.85893 0.43421 0.0
C1863 C 0.45084 0.85889 0.38667 0.0
C1864 C 0.44584 0.86799 0.36383 0.0
C1865 C 0.44261 0.85095 0.40522 0.0
C1866 C 0.40942 0.84882 0.43738 0.0
H1867 H 0.39885 0.79501 0.54124 0.0
H1868 H 0.41238 0.80995 0.50941 0.0
H1869 H 0.39324 0.8454 0.46978 0.0
H1870 H 0.42824 0.87578 0.34236 0.0
H1871 H 0.4138 0.86185 0.37493 0.0
H1872 H 0.43185 0.82622 0.4153 0.0
C1873 C 0.40199 0.81058 0.50669 0.0
C1874 C 0.40159 0.84108 0.4578 0.0
C1875 C 0.39426 0.80205 0.52501 0.0
C1876 C 0.43238 0.86892 0.35989 0.0
C1877 C 0.42412 0.86097 0.37858 0.0
C1878 C 0.42349 0.83054 0.42721 0.0
C1879 C 0.39641 0.81969 0.48483 0.0
C1880 C 0.40468 0.82801 0.46328 0.0
C1881 C 0.42916 0.85193 0.40153 0.0
C1882 C 0.4205 0.84364 0.42204 0.0
H1883 H 0.36477 0.81236 0.49791 0.0
H1884 H 0.37828 0.82725 0.46591 0.0
H1885 H 0.41817 0.81272 0.45062 0.0
H1886 H 0.46113 0.85814 0.39101 0.0
H1887 H 0.44678 0.84426 0.42314 0.0
C1888 C 0.98807 0.53863 0.14692 0.0
C1889 C -0.00041 0.54478 0.15641 0.0
C1890 C 0.98764 0.5309 0.11815 0.0
C1891 C 0.00885 0.51233 0.06134 0.0
H1892 H 0.97823 0.51102 0.00525 0.0
C1893 C 0.00624 0.48107 0.94149 0.0
C1894 C 0.9953 0.47309 0.93924 0.0
C1895 C 0.00677 0.49096 0.96539 0.0
C1896 C 0.98683 0.51129 0.02077 0.0
H1897 H 0.01959 0.54801 0.14284 0.0
H1898 H 0.01882 0.53466 0.09219 0.0
H1899 H 0.97927 0.52637 0.05188 0.0
H1900 H 0.97616 0.46947 0.95918 0.0
H1901 H 0.97709 0.48676 0.00101 0.0
H1902 H 0.01638 0.49722 0.03021 0.0
C1903 C 0.01018 0.53557 0.10736 0.0
C1904 C 0.98741 0.52003 0.04751 0.0
C1905 C 0.01063 0.54323 0.1363 0.0
C1906 C 0.98475 0.47542 0.96061 0.0
C1907 C 0.98524 0.48538 0.9843 0.0
C1908 C 0.0083 0.50367 0.03445 0.0
C1909 C 0.99871 0.52923 0.09812 0.0
C1910 C 0.99837 0.52054 0.06838 0.0
C1911 C 0.99633 0.49311 0.98724 0.0
C1912 C 0.99722 0.50295 0.01417 0.0
H1913 H 0.97946 0.53955 0.16223 0.0
H1914 H 0.97871 0.52597 0.11213 0.0
H1915 H 0.01735 0.51231 0.07721 0.0
H1916 H 0.01454 0.47942 0.92547 0.0
H1917 H 0.0154 0.49685 0.967 0.0
C1918 C 0.7874 0.74596 0.24102 0.0
C1919 C 0.78644 0.75439 0.21343 0.0
C1920 C 0.77849 0.74663 0.2673 0.0
C1921 C 0.74588 0.75875 0.28824 0.0
H1922 H 0.7575 0.7534 0.38003 0.0
C1923 C 0.71272 0.76588 0.40373 0.0
C1924 C 0.7129 0.75583 0.42758 0.0
C1925 C 0.72187 0.7663 0.37793 0.0
C1926 C 0.75412 0.75485 0.35449 0.0
H1927 H 0.77554 0.7702 0.19173 0.0
H1928 H 0.76006 0.77155 0.23797 0.0
H1929 H 0.77314 0.75315 0.33418 0.0
H1930 H 0.72285 0.7383 0.44283 0.0
H1931 H 0.73895 0.73921 0.3982 0.0
H1932 H 0.72685 0.76056 0.30879 0.0
C1933 C 0.76754 0.76425 0.23901 0.0
C1934 C 0.76306 0.75466 0.32821 0.0
C1935 C 0.7764 0.7635 0.21258 0.0
C1936 C 0.72256 0.74631 0.42528 0.0
C1937 C 0.73176 0.7468 0.39967 0.0
C1938 C 0.73695 0.75905 0.31458 0.0
C1939 C 0.76848 0.75581 0.26669 0.0
C1940 C 0.75903 0.75649 0.29473 0.0
C1941 C 0.73145 0.75675 0.37564 0.0
C1942 C 0.74098 0.75698 0.3479 0.0
H1943 H 0.79494 0.73871 0.24204 0.0
H1944 H 0.77935 0.73981 0.28786 0.0
H1945 H 0.74241 0.76001 0.26273 0.0
H1946 H 0.70556 0.77349 0.40509 0.0
H1947 H 0.72152 0.77416 0.35993 0.0
C1948 C 0.50969 0.5418 0.50091 0.0
C1949 C 0.49887 0.5418 0.4795 0.0
C1950 C 0.51022 0.53349 0.52859 0.0
C1951 C 0.49006 0.5142 0.58567 0.0
H1952 H 0.52098 0.49356 0.59787 0.0
C1953 C 0.49772 0.4805 0.69997 0.0
C1954 C 0.50208 0.46795 0.69238 0.0
C1955 C 0.49761 0.49009 0.67525 0.0
C1956 C 0.51229 0.49927 0.59473 0.0
H1957 H 0.48013 0.53306 0.47054 0.0
H1958 H 0.48098 0.51876 0.51919 0.0
H1959 H 0.52008 0.5095 0.55251 0.0
H1960 H 0.50964 0.45565 0.6527 0.0
H1961 H 0.50965 0.47249 0.60979 0.0
H1962 H 0.48221 0.50383 0.6276 0.0
C1963 C 0.489 0.52526 0.51462 0.0
C1964 C 0.51182 0.50845 0.56901 0.0
C1965 C 0.4885 0.53348 0.48681 0.0
C1966 C 0.50643 0.46526 0.65958 0.0
C1967 C 0.50642 0.47489 0.63497 0.0
C1968 C 0.49058 0.5051 0.61159 0.0
C1969 C 0.4999 0.52511 0.53559 0.0
C1970 C 0.50065 0.5159 0.56403 0.0
C1971 C 0.50196 0.48737 0.64253 0.0
C1972 C 0.50165 0.49745 0.61612 0.0
H1973 H 0.51774 0.54824 0.49635 0.0
H1974 H 0.51867 0.53366 0.54461 0.0
H1975 H 0.48137 0.51989 0.5825 0.0
H1976 H 0.4945 0.48295 0.72511 0.0
H1977 H 0.49425 0.49969 0.68181 0.0
C1978 C 0.77676 0.23948 0.93039 0.0
C1979 C 0.7844 0.25056 0.93501 0.0
C1980 C 0.76753 0.23905 0.90477 0.0
C1981 C 0.75976 0.25387 0.82322 0.0
H1982 H 0.72585 0.23899 0.83773 0.0
C1983 C 0.71942 0.25756 0.72424 0.0
C1984 C 0.71176 0.24654 0.71885 0.0
C1985 C 0.72811 0.258 0.75104 0.0
C1986 C 0.73534 0.24304 0.8332 0.0
H1987 H 0.78803 0.27007 0.91728 0.0
H1988 H 0.77195 0.2693 0.87253 0.0
H1989 H 0.74123 0.23995 0.88425 0.0
H1990 H 0.70727 0.2273 0.73712 0.0
H1991 H 0.72251 0.22804 0.78394 0.0
H1992 H 0.75395 0.2569 0.7722 0.0
C1993 C 0.77325 0.26087 0.88833 0.0
C1994 C 0.74412 0.2436 0.85984 0.0
C1995 C 0.78245 0.2613 0.91394 0.0
C1996 C 0.71294 0.23598 0.7409 0.0
C1997 C 0.72165 0.23642 0.76771 0.0
C1998 C 0.751 0.25329 0.79661 0.0
C1999 C 0.76578 0.24969 0.88326 0.0
C2000 C 0.75641 0.24906 0.85513 0.0
C2001 C 0.72934 0.24743 0.77303 0.0
C2002 C 0.73868 0.2479 0.80131 0.0
H2003 H 0.77815 0.23099 0.94596 0.0
H2004 H 0.76201 0.23025 0.90124 0.0
H2005 H 0.76925 0.25792 0.81867 0.0
H2006 H 0.71856 0.26593 0.70801 0.0
H2007 H 0.73373 0.26671 0.75481 0.0
C2008 C 0.21325 0.26352 0.90227 0.0
C2009 C 0.21328 0.25351 0.9262 0.0
C2010 C 0.22232 0.2637 0.87626 0.0
C2011 C 0.24492 0.24238 0.83011 0.0
H2012 H 0.25988 0.27483 0.80048 0.0
C2013 C 0.28836 0.24511 0.73969 0.0
C2014 C 0.2874 0.25399 0.71306 0.0
C2015 C 0.27924 0.24512 0.76556 0.0
C2016 C 0.25569 0.26571 0.80834 0.0
H2017 H 0.22291 0.23582 0.94149 0.0
H2018 H 0.239 0.2364 0.89697 0.0
H2019 H 0.24426 0.27477 0.84647 0.0
H2020 H 0.27628 0.26991 0.69266 0.0
H2021 H 0.26032 0.26996 0.73807 0.0
H2022 H 0.25654 0.23333 0.79228 0.0
C2023 C 0.23181 0.24399 0.89789 0.0
C2024 C 0.24673 0.26567 0.83461 0.0
C2025 C 0.22269 0.24376 0.92374 0.0
C2026 C 0.27718 0.26292 0.71282 0.0
C2027 C 0.26813 0.26301 0.73888 0.0
C2028 C 0.25396 0.24241 0.80406 0.0
C2029 C 0.23169 0.25392 0.87371 0.0
C2030 C 0.24124 0.254 0.84581 0.0
C2031 C 0.26906 0.25408 0.76543 0.0
C2032 C 0.25942 0.25408 0.79292 0.0
H2033 H 0.20625 0.27127 0.90366 0.0
H2034 H 0.22186 0.27142 0.85788 0.0
H2035 H 0.2407 0.23324 0.83765 0.0
H2036 H 0.29608 0.23805 0.74031 0.0
H2037 H 0.28023 0.23819 0.78586 0.0
C2038 C 0.28416 0.73123 0.41564 0.0
C2039 C 0.28818 0.7431 0.42922 0.0
C2040 C 0.27542 0.73092 0.38888 0.0
C2041 C 0.26409 0.74988 0.31772 0.0
H2042 H 0.23303 0.72905 0.32291 0.0
C2043 C 0.22314 0.75532 0.22127 0.0
C2044 C 0.21617 0.74426 0.2119 0.0
C2045 C 0.23215 0.75474 0.24732 0.0
C2046 C 0.24176 0.73475 0.32074 0.0
H2047 H 0.2864 0.76393 0.42554 0.0
H2048 H 0.27125 0.7634 0.37833 0.0
H2049 H 0.24847 0.72868 0.36928 0.0
H2050 H 0.21327 0.72387 0.22173 0.0
H2051 H 0.22933 0.72269 0.26661 0.0
H2052 H 0.25765 0.75578 0.26903 0.0
C2053 C 0.2748 0.75436 0.38852 0.0
C2054 C 0.25055 0.73457 0.34739 0.0
C2055 C 0.28337 0.75466 0.41559 0.0
C2056 C 0.21846 0.73256 0.22877 0.0
C2057 C 0.2276 0.73192 0.25454 0.0
C2058 C 0.25541 0.74993 0.29087 0.0
C2059 C 0.27075 0.74249 0.37495 0.0
C2060 C 0.26171 0.74224 0.34623 0.0
C2061 C 0.23452 0.74303 0.26426 0.0
C2062 C 0.24405 0.74249 0.2922 0.0
H2063 H 0.2877 0.72219 0.42589 0.0
H2064 H 0.27246 0.72166 0.37871 0.0
H2065 H 0.27273 0.75575 0.3161 0.0
H2066 H 0.22141 0.7645 0.20891 0.0
H2067 H 0.23707 0.76355 0.25455 0.0
C2068 C 0.50251 0.97574 0.46019 0.0
C2069 C 0.49423 0.96499 0.46151 0.0
C2070 C 0.50267 0.98473 0.48642 0.0
C2071 C 0.48327 0.99736 0.55621 0.0
H2072 H 0.51623 0.00817 0.59295 0.0
C2073 C 0.48689 0.027 0.67852 0.0
C2074 C 0.49629 0.03676 0.68008 0.0
C2075 C 0.48665 0.01835 0.65155 0.0
C2076 C 0.50695 0.0054 0.58269 0.0
H2077 H 0.47946 0.95532 0.49084 0.0
H2078 H 0.47972 0.97106 0.53675 0.0
H2079 H 0.51566 0.99305 0.54587 0.0
H2080 H 0.5127 0.04528 0.65453 0.0
H2081 H 0.51217 0.03032 0.60704 0.0
H2082 H 0.47453 0.00979 0.59266 0.0
C2083 C 0.48607 0.97253 0.51541 0.0
C2084 C 0.50664 0.99672 0.55578 0.0
C2085 C 0.486 0.96348 0.48932 0.0
C2086 C 0.50545 0.03773 0.65414 0.0
C2087 C 0.50515 0.02915 0.62701 0.0
C2088 C 0.48358 0.00612 0.58295 0.0
C2089 C 0.49447 0.98319 0.51431 0.0
C2090 C 0.49479 0.99258 0.54239 0.0
C2091 C 0.49575 0.01935 0.6254 0.0
C2092 C 0.49543 0.0102 0.59661 0.0
H2093 H 0.50903 0.97708 0.43916 0.0
H2094 H 0.50916 0.99291 0.48483 0.0
H2095 H 0.47401 0.99444 0.54606 0.0
H2096 H 0.47982 0.02594 0.69843 0.0
H2097 H 0.47943 0.01078 0.65144 0.0
C2098 C 0.01373 0.03174 0.98589 0.0
C2099 C 0.00479 0.03113 0.95935 0.0
C2100 C 0.01336 0.02265 0.01183 0.0
C2101 C 0.99136 0.0005 0.05491 0.0
H2102 H 0.0228 0.98498 0.08911 0.0
C2103 C 0.99089 0.96032 0.15577 0.0
C2104 C 0.00047 0.96088 0.18073 0.0
C2105 C 0.99138 0.96861 0.12804 0.0
C2106 C 0.01395 0.98934 0.08011 0.0
H2107 H 0.9885 0.02054 0.939 0.0
H2108 H 0.98788 0.00459 0.98438 0.0
H2109 H 0.02387 -0.00014 0.04158 0.0
H2110 H 0.01789 0.97071 0.19677 0.0
H2111 H 0.01866 0.98533 0.14869 0.0
H2112 H 0.98144 0.99018 0.09373 0.0
C2113 C 0.99513 0.01213 0.98511 0.0
C2114 C 0.01457 0.99783 0.05285 0.0
C2115 C 0.99557 0.02117 0.95903 0.0
C2116 C 0.01048 0.96996 0.17765 0.0
C2117 C 0.01093 0.9783 0.15006 0.0
C2118 C 0.99074 0.99206 0.08231 0.0
C2119 C 0.00399 0.01283 0.01184 0.0
C2120 C 0.00329 0.00352 0.04007 0.0
C2121 C 0.00143 0.97767 0.12483 0.0
C2122 C 0.00204 0.98643 0.09531 0.0
H2123 H 0.021 0.03926 0.9866 0.0
H2124 H 0.02023 0.02347 0.03226 0.0
H2125 H 0.98253 0.00489 0.04583 0.0
H2126 H 0.98317 0.95328 0.15731 0.0
H2127 H 0.98402 0.96775 0.10882 0.0
C2128 C 0.9976 0.45312 0.62733 0.0
C2129 C 0.00171 0.45585 0.6603 0.0
C2130 C 0.99668 0.46302 0.60343 0.0
C2131 C 0.00837 0.49608 0.58533 0.0
H2132 H 0.97922 0.49728 0.52422 0.0
C2133 C -9e-05 0.53936 0.49654 0.0
C2134 C 0.99685 0.53623 0.46306 0.0
C2135 C -0.00028 0.52982 0.52149 0.0
C2136 C 0.98746 0.49702 0.54098 0.0
H2137 H 0.00769 0.47116 0.69425 0.0
H2138 H 0.00612 0.48834 0.65271 0.0
H2139 H 0.98075 0.47983 0.56542 0.0
H2140 H 0.9906 0.52082 0.42978 0.0
H2141 H 0.99043 0.50418 0.47315 0.0
H2142 H 0.01511 0.51322 0.56085 0.0
C2143 C 0.00388 0.47854 0.64505 0.0
C2144 C 0.98836 0.48701 0.5645 0.0
C2145 C 0.00481 0.46867 0.66886 0.0
C2146 C 0.99318 0.52349 0.45528 0.0
C2147 C 0.99295 0.51398 0.4802 0.0
C2148 C 0.00746 0.50609 0.56186 0.0
C2149 C -0.00019 0.47584 0.61206 0.0
C2150 C 0.99884 0.48642 0.5869 0.0
C2151 C 0.9964 0.51699 0.51349 0.0
C2152 C 0.99702 0.50666 0.53935 0.0
H2153 H 0.99521 0.44333 0.61994 0.0
H2154 H 0.99366 0.46061 0.5781 0.0
H2155 H 0.01667 0.4958 0.60189 0.0
H2156 H 0.00282 0.54908 0.50325 0.0
H2157 H 0.00227 0.53247 0.54702 0.0
C2158 C 0.77513 0.73875 0.92574 0.0
C2159 C 0.78663 0.74577 0.92108 0.0
C2160 C 0.76557 0.7387 0.90101 0.0
C2161 C 0.75429 0.75711 0.82661 0.0
H2162 H 0.7344 0.72605 0.80911 0.0
C2163 C 0.72065 0.75142 0.71195 0.0
C2164 C 0.70844 0.74594 0.71773 0.0
C2165 C 0.72993 0.75161 0.73739 0.0
C2166 C 0.73979 0.73482 0.814 0.0
H2167 H 0.79709 0.75812 0.88638 0.0
H2168 H 0.78062 0.75764 0.84269 0.0
H2169 H 0.75147 0.72564 0.85136 0.0
H2170 H 0.69631 0.73644 0.75464 0.0
H2171 H 0.71263 0.73671 0.79929 0.0
H2172 H 0.74275 0.76618 0.78865 0.0
C2173 C 0.77888 0.75239 0.86585 0.0
C2174 C 0.74957 0.73461 0.83822 0.0
C2175 C 0.78842 0.75252 0.89072 0.0
C2176 C 0.70563 0.74076 0.74959 0.0
C2177 C 0.71498 0.74083 0.77499 0.0
C2178 C 0.7446 0.75728 0.80219 0.0
C2179 C 0.76728 0.74557 0.87081 0.0
C2180 C 0.75695 0.74575 0.84483 0.0
C2181 C 0.72723 0.74624 0.76908 0.0
C2182 C 0.73726 0.74614 0.79563 0.0
H2183 H 0.7735 0.73327 0.94858 0.0
H2184 H 0.75672 0.73345 0.90588 0.0
H2185 H 0.7596 0.76594 0.83149 0.0
H2186 H 0.72302 0.7556 0.68771 0.0
H2187 H 0.73931 0.75577 0.73208 0.0
C2188 C 0.48845 0.52343 0.18231 0.0
C2189 C 0.49466 0.53533 0.17683 0.0
C2190 C 0.48918 0.51358 0.15838 0.0
C2191 C 0.49636 0.50693 0.06914 0.0
H2192 H 0.50343 0.47227 0.10171 0.0
C2193 C 0.50915 0.46532 0.97898 0.0
C2194 C 0.50338 0.45323 0.98505 0.0
C2195 C 0.50828 0.47524 0.00268 0.0
C2196 C 0.50131 0.48186 0.09223 0.0
H2197 H 0.50622 0.54637 0.14156 0.0
H2198 H 0.50746 0.52914 0.09955 0.0
H2199 H 0.50109 0.48999 0.14176 0.0
H2200 H 0.49245 0.44201 0.0213 0.0
H2201 H 0.49073 0.45943 0.06252 0.0
H2202 H 0.49653 0.49881 0.01962 0.0
C2203 C 0.50196 0.52747 0.12234 0.0
C2204 C 0.49997 0.49201 0.11517 0.0
C2205 C 0.50124 0.53734 0.14635 0.0
C2206 C 0.49692 0.45123 0.01573 0.0
C2207 C 0.49603 0.46118 0.03947 0.0
C2208 C 0.49767 0.49677 0.0462 0.0
C2209 C 0.49611 0.51541 0.12836 0.0
C2210 C 0.49747 0.50465 0.10388 0.0
C2211 C 0.50158 0.47335 0.03302 0.0
C2212 C 0.50018 0.48412 0.05748 0.0
H2213 H 0.48309 0.52168 0.20529 0.0
H2214 H 0.48434 0.5045 0.16343 0.0
H2215 H 0.49427 0.51653 0.0597 0.0
H2216 H 0.51404 0.46729 0.95542 0.0
H2217 H 0.51282 0.48443 0.99713 0.0
C2218 C 0.79368 0.24263 0.25393 0.0
C2219 C 0.79069 0.24583 0.22044 0.0
C2220 C 0.78407 0.24264 0.27866 0.0
C2221 C 0.75159 0.25573 0.29698 0.0
H2222 H 0.75067 0.22859 0.36429 0.0
C2223 C 0.709 0.24969 0.38959 0.0
C2224 C 0.71228 0.24736 0.42337 0.0
C2225 C 0.71845 0.24922 0.36447 0.0
C2226 C 0.75087 0.23629 0.34581 0.0
H2227 H 0.77528 0.25181 0.18686 0.0
H2228 H 0.75852 0.2515 0.22968 0.0
H2229 H 0.76753 0.22844 0.3214 0.0
H2230 H 0.72795 0.24235 0.45717 0.0
H2231 H 0.74442 0.24167 0.41343 0.0
H2232 H 0.7349 0.26356 0.32136 0.0
C2233 C 0.7683 0.2491 0.23696 0.0
C2234 C 0.76054 0.23623 0.3213 0.0
C2235 C 0.77789 0.2491 0.2123 0.0
C2236 C 0.72515 0.24436 0.43142 0.0
C2237 C 0.73456 0.24382 0.40633 0.0
C2238 C 0.7419 0.25578 0.32143 0.0
C2239 C 0.77127 0.24588 0.27044 0.0
C2240 C 0.76102 0.24596 0.29662 0.0
C2241 C 0.73134 0.24631 0.3726 0.0
C2242 C 0.74145 0.24608 0.34615 0.0
H2243 H 0.80343 0.23998 0.26098 0.0
H2244 H 0.78671 0.24025 0.3043 0.0
H2245 H 0.7518 0.26349 0.27867 0.0
H2246 H 0.69918 0.25209 0.38266 0.0
H2247 H 0.71565 0.25106 0.33864 0.0
C2248 C 0.27678 0.24187 0.42547 0.0
C2249 C 0.28821 0.24901 0.42107 0.0
C2250 C 0.26722 0.24187 0.40074 0.0
C2251 C 0.25578 0.2605 0.32687 0.0
H2252 H 0.23616 0.22933 0.30862 0.0
C2253 C 0.22197 0.25486 0.21235 0.0
C2254 C 0.20985 0.24917 0.21814 0.0
C2255 C 0.23128 0.25513 0.23772 0.0
C2256 C 0.24147 0.23813 0.31371 0.0
H2257 H 0.29858 0.26163 0.38681 0.0
H2258 H 0.28211 0.26123 0.34308 0.0
H2259 H 0.25327 0.22889 0.35072 0.0
H2260 H 0.19792 0.2394 0.25501 0.0
H2261 H 0.21429 0.2398 0.29951 0.0
H2262 H 0.2441 0.26962 0.28925 0.0
C2263 C 0.28041 0.25585 0.36606 0.0
C2264 C 0.25127 0.23791 0.33785 0.0
C2265 C 0.28995 0.25594 0.39095 0.0
C2266 C 0.20716 0.24389 0.24995 0.0
C2267 C 0.21655 0.24403 0.27526 0.0
C2268 C 0.24606 0.26068 0.30252 0.0
C2269 C 0.26888 0.2489 0.37077 0.0
C2270 C 0.25855 0.24909 0.34477 0.0
C2271 C 0.22871 0.24962 0.26933 0.0
C2272 C 0.23881 0.24951 0.29572 0.0
H2273 H 0.27519 0.23626 0.44811 0.0
H2274 H 0.25842 0.23651 0.40542 0.0
H2275 H 0.261 0.26936 0.33197 0.0
H2276 H 0.22425 0.25911 0.18814 0.0
H2277 H 0.24059 0.25942 0.23238 0.0
C2278 C 0.2828 0.7642 0.72838 0.0
C2279 C 0.29091 0.75341 0.72402 0.0
C2280 C 0.27293 0.76401 0.75234 0.0
C2281 C 0.25304 0.74112 0.80183 0.0
H2282 H 0.24402 0.77177 0.85298 0.0
C2283 C 0.21896 0.74016 0.91658 0.0
C2284 C 0.20984 0.75015 0.91943 0.0
C2285 C 0.22839 0.74054 0.89152 0.0
C2286 C 0.24634 0.76318 0.83857 0.0
H2287 H 0.29512 0.73407 0.74212 0.0
H2288 H 0.27826 0.73394 0.78474 0.0
H2289 H 0.26191 0.77261 0.81309 0.0
H2290 H 0.2033 0.76828 0.89807 0.0
H2291 H 0.21986 0.76896 0.85407 0.0
H2292 H 0.2376 0.73165 0.82785 0.0
C2293 C 0.27934 0.74244 0.76907 0.0
C2294 C 0.25659 0.76365 0.81572 0.0
C2295 C 0.28915 0.74259 0.74496 0.0
C2296 C 0.21017 0.76042 0.89629 0.0
C2297 C 0.2197 0.76086 0.87136 0.0
C2298 C 0.24287 0.74063 0.82485 0.0
C2299 C 0.27098 0.75306 0.77272 0.0
C2300 C 0.2601 0.75261 0.79713 0.0
C2301 C 0.22896 0.75097 0.86891 0.0
C2302 C 0.23943 0.75164 0.84352 0.0
H2303 H 0.28399 0.77277 0.71302 0.0
H2304 H 0.26663 0.77233 0.75427 0.0
H2305 H 0.25528 0.73252 0.78744 0.0
H2306 H 0.21887 0.73208 0.93395 0.0
H2307 H 0.23546 0.73283 0.89039 0.0
C2308 C 0.51383 0.96881 0.16734 0.0
C2309 C 0.50413 0.9593 0.16778 0.0
C2310 C 0.51363 0.97867 0.14339 0.0
C2311 C 0.50017 0.98829 0.06134 0.0
H2312 H 0.50563 0.0231 0.09491 0.0
C2313 C 0.49083 0.03314 0.9789 0.0
C2314 C 0.4998 0.04332 0.98084 0.0
C2315 C 0.49125 0.02293 0.00185 0.0
C2316 C 0.50424 0.01343 0.08503 0.0
H2317 H 0.48686 0.95245 0.14266 0.0
H2318 H 0.48658 0.96965 0.10051 0.0
H2319 H 0.50703 0.00482 0.13344 0.0
H2320 H 0.51607 0.05087 0.00906 0.0
H2321 H 0.517 0.03289 0.04862 0.0
H2322 H 0.49747 0.99687 0.01287 0.0
C2323 C 0.49435 0.96942 0.11871 0.0
C2324 C 0.50504 0.00296 0.10711 0.0
C2325 C 0.49453 0.95956 0.14279 0.0
C2326 C 0.50908 0.04314 0.00666 0.0
C2327 C 0.50953 0.03288 0.02956 0.0
C2328 C 0.49943 0.99876 0.0392 0.0
C2329 C 0.50376 0.97923 0.11922 0.0
C2330 C 0.50302 0.99028 0.09551 0.0
C2331 C 0.50069 0.0226 0.02722 0.0
C2332 C 0.50144 0.01146 0.05079 0.0
H2333 H 0.52151 0.96873 0.18585 0.0
H2334 H 0.52116 0.98594 0.14396 0.0
H2335 H 0.4987 0.97861 0.05163 0.0
H2336 H 0.48366 0.03286 0.95907 0.0
H2337 H 0.48418 0.01526 -0.00038 0.0
C2338 C 0.99486 0.03859 0.63896 0.0
C2339 C 0.00165 0.03715 0.66928 0.0
C2340 C 0.99497 0.02869 0.61492 0.0
C2341 C 0.00107 0.99347 0.60795 0.0
H2342 H 0.00071 0.00033 0.51201 0.0
C2343 C 0.00696 0.95339 0.50759 0.0
C2344 C 0.99831 0.95383 0.48039 0.0
C2345 C 0.00755 0.96361 0.53056 0.0
C2346 C 0.00072 0.99829 0.53876 0.0
H2347 H 0.01449 0.02467 0.69753 0.0
H2348 H 0.015 0.00759 0.65537 0.0
H2349 H 0.00184 0.01836 0.55159 0.0
H2350 H 0.98363 0.96536 0.45561 0.0
H2351 H 0.98463 0.98318 0.49581 0.0
H2352 H 0.0001 0.9734 0.59503 0.0
C2353 C 0.00921 0.01611 0.65048 0.0
C2354 C 0.00134 0.00861 0.56143 0.0
C2355 C 0.00898 0.02591 0.67456 0.0
C2356 C 0.99026 0.96467 0.47662 0.0
C2357 C 0.99094 0.97494 0.49936 0.0
C2358 C 0.00057 0.98317 0.58529 0.0
C2359 C 0.00199 0.01724 0.62067 0.0
C2360 C 0.0015 0.00633 0.59632 0.0
C2361 C -0.00039 0.97453 0.5265 0.0
C2362 C 0.00035 0.98547 0.55049 0.0
H2363 H 0.98908 0.04715 0.63441 0.0
H2364 H 0.98921 0.02985 0.59237 0.0
H2365 H 0.0009 0.99135 0.63464 0.0
H2366 H 0.01325 0.94513 0.51109 0.0
H2367 H 0.01437 0.96308 0.55117 0.0
loop_
_geom_bond_atom_site_label_1
_geom_bond_atom_site_label_2
_geom_bond_distance
_geom_bond_site_symmetry_2
_ccdc_geom_bond_type
Li0 N17 1.990 . S
Li0 O60 1.919 1_655 S
Li0 O61 1.992 . S
Li0 O62 1.961 . S
Li1 N25 1.990 . S
Li1 O60 2.005 . S
Li1 O61 1.933 1_455 S
Li1 O63 1.961 . S
Li2 N47 1.992 . S
Li2 O60 1.958 1_655 S
Li2 O62 1.983 . S
Li2 O63 1.941 1_655 S
Li3 N53 1.994 . S
Li3 O61 1.958 1_455 S
Li3 O62 1.926 1_455 S
Li3 O63 1.998 . S
C4 C6 1.348 . S
C4 C7 1.356 1_455 S
C4 O60 1.324 . S
N5 C8 1.314 1_655 S
N5 C9 1.279 . S
C6 C4 1.348 . S
C6 C8 1.353 . S
C6 H64 0.929 . S
C7 C4 1.356 1_655 S
C7 C9 1.358 . S
C7 H65 0.930 . S
C8 N5 1.314 1_455 S
C8 C6 1.353 . S
C8 H66 0.930 . S
C9 N5 1.279 . S
C9 C7 1.358 . S
C9 H67 0.930 . S
C10 C13 1.348 1_455 S
C10 C14 1.356 . S
C10 O61 1.324 1_455 S
C11 N12 1.279 . S
C11 C14 1.358 . S
C11 H68 0.930 . S
N12 C11 1.279 . S
N12 C15 1.314 1_455 S
C13 C10 1.348 1_655 S
C13 C15 1.353 . S
C13 H69 0.929 . S
C14 C10 1.356 . S
C14 C11 1.358 . S
C14 H70 0.930 . S
C15 N12 1.314 1_655 S
C15 C13 1.353 . S
C15 H71 0.930 . S
C16 N17 1.314 . S
C16 C21 1.353 . S
C16 H22 0.930 . S
N17 Li0 1.990 . S
N17 C16 1.314 . S
N17 C19 1.279 . S
C18 C19 1.358 . S
C18 C20 1.356 . S
C18 H72 0.930 . S
C19 N17 1.279 . S
C19 C18 1.358 . S
C19 H23 0.930 . S
C20 C18 1.356 . S
C20 C21 1.348 . S
C21 C16 1.353 . S
C21 C20 1.348 . S
C21 H73 0.929 . S
H22 C16 0.930 . S
H23 C19 0.930 . S
C24 N25 1.314 . S
C24 C26 1.353 . S
C24 H30 0.930 . S
N25 Li1 1.990 . S
N25 C24 1.314 . S
N25 C28 1.279 . S
C26 C24 1.353 . S
C26 C29 1.348 . S
C26 H74 0.929 . S
C27 C28 1.358 . S
C27 C29 1.356 . S
C27 H75 0.930 . S
C28 N25 1.279 . S
C28 C27 1.358 . S
C28 H31 0.930 . S
C29 C26 1.348 . S
C29 C27 1.356 . S
H30 C24 0.930 . S
H31 C28 0.930 . S
C32 C34 1.348 . S
C32 C35 1.356 . S
C32 O62 1.325 . S
N33 C36 1.314 . S
N33 C37 1.279 . S
C34 C32 1.348 . S
C34 C36 1.353 . S
C34 H76 0.929 . S
C35 C32 1.356 . S
C35 C37 1.358 . S
C35 H77 0.930 . S
C36 N33 1.314 . S
C36 C34 1.353 . S
C36 H78 0.930 . S
C37 N33 1.279 . S
C37 C35 1.358 . S
C37 H79 0.930 . S
C38 C39 1.348 . S
C38 C40 1.356 . S
C38 O63 1.325 . S
C39 C38 1.348 . S
C39 C41 1.353 . S
C39 H80 0.929 . S
C40 C38 1.356 . S
C40 C42 1.358 . S
C40 H81 0.930 . S
C41 C39 1.353 . S
C41 N43 1.314 . S
C41 H82 0.930 . S
C42 C40 1.358 . S
C42 N43 1.279 . S
C42 H83 0.930 . S
N43 C41 1.314 . S
N43 C42 1.279 . S
C44 C46 1.353 . S
C44 N47 1.314 1_455 S
C44 H50 0.930 . S
C45 N47 1.279 . S
C45 C48 1.358 . S
C45 H51 0.930 . S
C46 C44 1.353 . S
C46 C49 1.348 . S
C46 H84 0.929 . S
N47 Li2 1.992 . S
N47 C44 1.314 1_655 S
N47 C45 1.279 . S
C48 C45 1.358 . S
C48 C49 1.356 1_655 S
C48 H85 0.930 . S
C49 C46 1.348 . S
C49 C48 1.356 1_455 S
H50 C44 0.930 . S
H51 C45 0.930 . S
C52 N53 1.314 1_655 S
C52 C54 1.353 . S
C52 H58 0.930 . S
N53 Li3 1.994 . S
N53 C52 1.314 1_455 S
N53 C56 1.279 . S
C54 C52 1.353 . S
C54 C57 1.348 1_655 S
C54 H86 0.929 . S
C55 C56 1.358 . S
C55 C57 1.356 . S
C55 H87 0.930 . S
C56 N53 1.279 . S
C56 C55 1.358 . S
C56 H59 0.930 . S
C57 C54 1.348 1_455 S
C57 C55 1.356 . S
H58 C52 0.930 . S
H59 C56 0.930 . S
O60 Li0 1.919 1_455 S
O60 Li1 2.005 . S
O60 Li2 1.958 1_455 S
O60 C4 1.324 . S
O61 Li0 1.992 . S
O61 Li1 1.933 1_655 S
O61 Li3 1.958 1_655 S
O61 C10 1.324 1_655 S
O62 Li0 1.961 . S
O62 Li2 1.983 . S
O62 Li3 1.926 1_655 S
O62 C32 1.325 . S
O63 Li1 1.961 . S
O63 Li2 1.941 1_455 S
O63 Li3 1.998 . S
O63 C38 1.325 . S
H64 C6 0.929 . S
H65 C7 0.930 . S
H66 C8 0.930 . S
H67 C9 0.930 . S
H68 C11 0.930 . S
H69 C13 0.929 . S
H70 C14 0.930 . S
H71 C15 0.930 . S
H72 C18 0.930 . S
H73 C21 0.929 . S
H74 C26 0.929 . S
H75 C27 0.930 . S
H76 C34 0.929 . S
H77 C35 0.930 . S
H78 C36 0.930 . S
H79 C37 0.930 . S
H80 C39 0.929 . S
H81 C40 0.930 . S
H82 C41 0.930 . S
H83 C42 0.930 . S
H84 C46 0.929 . S
H85 C48 0.930 . S
H86 C54 0.929 . S
H87 C55 0.930 . S
Li88 N105 1.990 . S
Li88 O148 1.956 . S
Li88 O149 1.970 . S
Li88 O150 1.961 . S
Li89 N113 1.990 . S
Li89 O148 1.970 . S
Li89 O149 1.956 . S
Li89 O151 1.961 . S
Li90 N135 1.990 . S
Li90 O148 1.961 . S
Li90 O150 1.956 . S
Li90 O151 1.970 . S
Li91 N141 1.990 . S
Li91 O149 1.961 . S
Li91 O150 1.970 . S
Li91 O151 1.956 . S
C92 C94 1.348 . S
C92 C95 1.356 . S
C92 O148 1.325 . S
N93 C96 1.314 . S
N93 C97 1.279 . S
C94 C92 1.348 . S
C94 C96 1.353 . S
C94 H152 0.929 . S
C95 C92 1.356 . S
C95 C97 1.358 . S
C95 H153 0.930 . S
C96 N93 1.314 . S
C96 C94 1.353 . S
C96 H154 0.930 . S
C97 N93 1.279 . S
C97 C95 1.358 . S
C97 H155 0.930 . S
C98 C101 1.348 . S
C98 C102 1.356 . S
C98 O149 1.325 . S
C99 N100 1.279 . S
C99 C102 1.358 . S
C99 H156 0.930 . S
N100 C99 1.279 . S
N100 C103 1.314 . S
C101 C98 1.348 . S
C101 C103 1.353 . S
C101 H157 0.929 . S
C102 C98 1.356 . S
C102 C99 1.358 . S
C102 H158 0.930 . S
C103 N100 1.314 . S
C103 C101 1.353 . S
C103 H159 0.930 . S
C104 N105 1.314 . S
C104 C109 1.353 . S
C104 H110 0.930 . S
N105 Li88 1.990 . S
N105 C104 1.314 . S
N105 C107 1.279 . S
C106 C107 1.358 . S
C106 C108 1.356 . S
C106 H160 0.930 . S
C107 N105 1.279 . S
C107 C106 1.358 . S
C107 H111 0.930 . S
C108 C106 1.356 . S
C108 C109 1.348 . S
C109 C104 1.353 . S
C109 C108 1.348 . S
C109 H161 0.929 . S
H110 C104 0.930 . S
H111 C107 0.930 . S
C112 N113 1.314 . S
C112 C114 1.353 . S
C112 H118 0.930 . S
N113 Li89 1.990 . S
N113 C112 1.314 . S
N113 C116 1.279 . S
C114 C112 1.353 . S
C114 C117 1.348 . S
C114 H162 0.929 . S
C115 C116 1.358 . S
C115 C117 1.356 . S
C115 H163 0.930 . S
C116 N113 1.279 . S
C116 C115 1.358 . S
C116 H119 0.930 . S
C117 C114 1.348 . S
C117 C115 1.356 . S
H118 C112 0.930 . S
H119 C116 0.930 . S
C120 C122 1.348 . S
C120 C123 1.356 . S
C120 O150 1.325 . S
N121 C124 1.314 . S
N121 C125 1.279 . S
C122 C120 1.348 . S
C122 C124 1.353 . S
C122 H164 0.929 . S
C123 C120 1.356 . S
C123 C125 1.358 . S
C123 H165 0.930 . S
C124 N121 1.314 . S
C124 C122 1.353 . S
C124 H166 0.930 . S
C125 N121 1.279 . S
C125 C123 1.358 . S
C125 H167 0.930 . S
C126 C127 1.348 . S
C126 C128 1.356 . S
C126 O151 1.325 . S
C127 C126 1.348 . S
C127 C129 1.353 . S
C127 H168 0.929 . S
C128 C126 1.356 . S
C128 C130 1.358 . S
C128 H169 0.930 . S
C129 C127 1.353 . S
C129 N131 1.314 . S
C129 H170 0.930 . S
C130 C128 1.358 . S
C130 N131 1.279 . S
C130 H171 0.930 . S
N131 C129 1.314 . S
N131 C130 1.279 . S
C132 C134 1.353 . S
C132 N135 1.314 . S
C132 H138 0.930 . S
C133 N135 1.279 . S
C133 C136 1.358 . S
C133 H139 0.930 . S
C134 C132 1.353 . S
C134 C137 1.348 . S
C134 H172 0.929 . S
N135 Li90 1.990 . S
N135 C132 1.314 . S
N135 C133 1.279 . S
C136 C133 1.358 . S
C136 C137 1.356 . S
C136 H173 0.930 . S
C137 C134 1.348 . S
C137 C136 1.356 . S
H138 C132 0.930 . S
H139 C133 0.930 . S
C140 N141 1.314 . S
C140 C142 1.353 . S
C140 H146 0.930 . S
N141 Li91 1.990 . S
N141 C140 1.314 . S
N141 C144 1.279 . S
C142 C140 1.353 . S
C142 C145 1.348 . S
C142 H174 0.929 . S
C143 C144 1.358 . S
C143 C145 1.356 . S
C143 H175 0.930 . S
C144 N141 1.279 . S
C144 C143 1.358 . S
C144 H147 0.930 . S
C145 C142 1.348 . S
C145 C143 1.356 . S
H146 C140 0.930 . S
H147 C144 0.930 . S
O148 Li88 1.956 . S
O148 Li89 1.970 . S
O148 Li90 1.961 . S
O148 C92 1.325 . S
O149 Li88 1.970 . S
O149 Li89 1.956 . S
O149 Li91 1.961 . S
O149 C98 1.325 . S
O150 Li88 1.961 . S
O150 Li90 1.956 . S
O150 Li91 1.970 . S
O150 C120 1.325 . S
O151 Li89 1.961 . S
O151 Li90 1.970 . S
O151 Li91 1.956 . S
O151 C126 1.325 . S
H152 C94 0.929 . S
H153 C95 0.930 . S
H154 C96 0.930 . S
H155 C97 0.930 . S
H156 C99 0.930 . S
H157 C101 0.929 . S
H158 C102 0.930 . S
H159 C103 0.930 . S
H160 C106 0.930 . S
H161 C109 0.929 . S
H162 C114 0.929 . S
H163 C115 0.930 . S
H164 C122 0.929 . S
H165 C123 0.930 . S
H166 C124 0.930 . S
H167 C125 0.930 . S
H168 C127 0.929 . S
H169 C128 0.930 . S
H170 C129 0.930 . S
H171 C130 0.930 . S
H172 C134 0.929 . S
H173 C136 0.930 . S
H174 C142 0.929 . S
H175 C143 0.930 . S
Li176 N193 1.990 . S
Li176 O236 1.956 . S
Li176 O237 1.970 . S
Li176 O238 1.961 . S
Li177 N201 1.990 . S
Li177 O236 1.970 . S
Li177 O237 1.956 . S
Li177 O239 1.961 . S
Li178 N223 1.990 . S
Li178 O236 1.961 . S
Li178 O238 1.956 . S
Li178 O239 1.970 . S
Li179 N229 1.990 . S
Li179 O237 1.961 . S
Li179 O238 1.970 . S
Li179 O239 1.956 . S
C180 C182 1.348 . S
C180 C183 1.356 . S
C180 O236 1.325 . S
N181 C184 1.314 . S
N181 C185 1.279 . S
C182 C180 1.348 . S
C182 C184 1.353 . S
C182 H240 0.929 . S
C183 C180 1.356 . S
C183 C185 1.358 . S
C183 H241 0.930 . S
C184 N181 1.314 . S
C184 C182 1.353 . S
C184 H242 0.930 . S
C185 N181 1.279 . S
C185 C183 1.358 . S
C185 H243 0.930 . S
C186 C189 1.348 . S
C186 C190 1.356 . S
C186 O237 1.325 . S
C187 N188 1.279 . S
C187 C190 1.358 . S
C187 H244 0.930 . S
N188 C187 1.279 . S
N188 C191 1.314 . S
C189 C186 1.348 . S
C189 C191 1.353 . S
C189 H245 0.929 . S
C190 C186 1.356 . S
C190 C187 1.358 . S
C190 H246 0.930 . S
C191 N188 1.314 . S
C191 C189 1.353 . S
C191 H247 0.930 . S
C192 N193 1.314 . S
C192 C197 1.353 . S
C192 H198 0.930 . S
N193 Li176 1.990 . S
N193 C192 1.314 . S
N193 C195 1.279 . S
C194 C195 1.358 . S
C194 C196 1.356 . S
C194 H248 0.930 . S
C195 N193 1.279 . S
C195 C194 1.358 . S
C195 H199 0.930 . S
C196 C194 1.356 . S
C196 C197 1.348 . S
C197 C192 1.353 . S
C197 C196 1.348 . S
C197 H249 0.929 . S
H198 C192 0.930 . S
H199 C195 0.930 . S
C200 N201 1.314 . S
C200 C202 1.353 . S
C200 H206 0.930 . S
N201 Li177 1.990 . S
N201 C200 1.314 . S
N201 C204 1.279 . S
C202 C200 1.353 . S
C202 C205 1.348 . S
C202 H250 0.929 . S
C203 C204 1.358 . S
C203 C205 1.356 . S
C203 H251 0.930 . S
C204 N201 1.279 . S
C204 C203 1.358 . S
C204 H207 0.930 . S
C205 C202 1.348 . S
C205 C203 1.356 . S
H206 C200 0.930 . S
H207 C204 0.930 . S
C208 C210 1.348 . S
C208 C211 1.356 . S
C208 O238 1.325 . S
N209 C212 1.314 . S
N209 C213 1.279 . S
C210 C208 1.348 . S
C210 C212 1.353 . S
C210 H252 0.929 . S
C211 C208 1.356 . S
C211 C213 1.358 . S
C211 H253 0.930 . S
C212 N209 1.314 . S
C212 C210 1.353 . S
C212 H254 0.930 . S
C213 N209 1.279 . S
C213 C211 1.358 . S
C213 H255 0.930 . S
C214 C215 1.348 . S
C214 C216 1.356 . S
C214 O239 1.325 . S
C215 C214 1.348 . S
C215 C217 1.353 . S
C215 H256 0.929 . S
C216 C214 1.356 . S
C216 C218 1.358 . S
C216 H257 0.930 . S
C217 C215 1.353 . S
C217 N219 1.314 . S
C217 H258 0.930 . S
C218 C216 1.358 . S
C218 N219 1.279 . S
C218 H259 0.930 . S
N219 C217 1.314 . S
N219 C218 1.279 . S
C220 C222 1.353 . S
C220 N223 1.314 . S
C220 H226 0.930 . S
C221 N223 1.279 . S
C221 C224 1.358 . S
C221 H227 0.930 . S
C222 C220 1.353 . S
C222 C225 1.348 . S
C222 H260 0.929 . S
N223 Li178 1.990 . S
N223 C220 1.314 . S
N223 C221 1.279 . S
C224 C221 1.358 . S
C224 C225 1.356 . S
C224 H261 0.930 . S
C225 C222 1.348 . S
C225 C224 1.356 . S
H226 C220 0.930 . S
H227 C221 0.930 . S
C228 N229 1.314 . S
C228 C230 1.353 . S
C228 H234 0.930 . S
N229 Li179 1.990 . S
N229 C228 1.314 . S
N229 C232 1.279 . S
C230 C228 1.353 . S
C230 C233 1.348 . S
C230 H262 0.929 . S
C231 C232 1.358 . S
C231 C233 1.356 . S
C231 H263 0.930 . S
C232 N229 1.279 . S
C232 C231 1.358 . S
C232 H235 0.930 . S
C233 C230 1.348 . S
C233 C231 1.356 . S
H234 C228 0.930 . S
H235 C232 0.930 . S
O236 Li176 1.956 . S
O236 Li177 1.970 . S
O236 Li178 1.961 . S
O236 C180 1.325 . S
O237 Li176 1.970 . S
O237 Li177 1.956 . S
O237 Li179 1.961 . S
O237 C186 1.325 . S
O238 Li176 1.961 . S
O238 Li178 1.956 . S
O238 Li179 1.970 . S
O238 C208 1.325 . S
O239 Li177 1.961 . S
O239 Li178 1.970 . S
O239 Li179 1.956 . S
O239 C214 1.325 . S
H240 C182 0.929 . S
H241 C183 0.930 . S
H242 C184 0.930 . S
H243 C185 0.930 . S
H244 C187 0.930 . S
H245 C189 0.929 . S
H246 C190 0.930 . S
H247 C191 0.930 . S
H248 C194 0.930 . S
H249 C197 0.929 . S
H250 C202 0.929 . S
H251 C203 0.930 . S
H252 C210 0.929 . S
H253 C211 0.930 . S
H254 C212 0.930 . S
H255 C213 0.930 . S
H256 C215 0.929 . S
H257 C216 0.930 . S
H258 C217 0.930 . S
H259 C218 0.930 . S
H260 C222 0.929 . S
H261 C224 0.930 . S
H262 C230 0.929 . S
H263 C231 0.930 . S
Li264 N281 1.990 . S
Li264 O324 1.956 . S
Li264 O325 1.970 . S
Li264 O326 1.961 . S
Li265 N289 1.990 . S
Li265 O324 1.970 . S
Li265 O325 1.956 . S
Li265 O327 1.961 1_554 S
Li266 N311 1.990 . S
Li266 O324 1.961 . S
Li266 O326 1.956 . S
Li266 O327 1.970 1_554 S
Li267 N317 1.990 . S
Li267 O325 1.961 1_556 S
Li267 O326 1.970 1_556 S
Li267 O327 1.956 . S
C268 C270 1.348 . S
C268 C271 1.356 . S
C268 O324 1.325 . S
N269 C272 1.314 . S
N269 C273 1.279 . S
C270 C268 1.348 . S
C270 C272 1.353 . S
C270 H328 0.929 . S
C271 C268 1.356 . S
C271 C273 1.358 . S
C271 H329 0.930 . S
C272 N269 1.314 . S
C272 C270 1.353 . S
C272 H330 0.930 . S
C273 N269 1.279 . S
C273 C271 1.358 . S
C273 H331 0.930 . S
C274 C277 1.348 . S
C274 C278 1.356 . S
C274 O325 1.325 . S
C275 N276 1.279 . S
C275 C278 1.358 . S
C275 H332 0.930 1_554 S
N276 C275 1.279 . S
N276 C279 1.314 . S
C277 C274 1.348 . S
C277 C279 1.353 . S
C277 H333 0.929 . S
C278 C274 1.356 . S
C278 C275 1.358 . S
C278 H334 0.930 1_554 S
C279 N276 1.314 . S
C279 C277 1.353 . S
C279 H335 0.930 . S
C280 N281 1.314 . S
C280 C285 1.353 . S
C280 H286 0.930 . S
N281 Li264 1.990 . S
N281 C280 1.314 . S
N281 C283 1.279 . S
C282 C283 1.358 . S
C282 C284 1.356 . S
C282 H336 0.930 . S
C283 N281 1.279 . S
C283 C282 1.358 . S
C283 H287 0.930 . S
C284 C282 1.356 . S
C284 C285 1.348 . S
C285 C280 1.353 . S
C285 C284 1.348 . S
C285 H337 0.929 . S
H286 C280 0.930 . S
H287 C283 0.930 . S
C288 N289 1.314 1_556 S
C288 C290 1.353 . S
C288 H294 0.930 . S
N289 Li265 1.990 . S
N289 C288 1.314 1_554 S
N289 C292 1.279 . S
C290 C288 1.353 . S
C290 C293 1.348 1_556 S
C290 H338 0.929 . S
C291 C292 1.358 . S
C291 C293 1.356 . S
C291 H339 0.930 . S
C292 N289 1.279 . S
C292 C291 1.358 . S
C292 H295 0.930 . S
C293 C290 1.348 1_554 S
C293 C291 1.356 . S
H294 C288 0.930 . S
H295 C292 0.930 . S
C296 C298 1.348 . S
C296 C299 1.356 . S
C296 O326 1.325 . S
N297 C300 1.314 . S
N297 C301 1.279 . S
C298 C296 1.348 . S
C298 C300 1.353 . S
C298 H340 0.929 1_554 S
C299 C296 1.356 . S
C299 C301 1.358 . S
C299 H341 0.930 . S
C300 N297 1.314 . S
C300 C298 1.353 . S
C300 H342 0.930 1_554 S
C301 N297 1.279 . S
C301 C299 1.358 . S
C301 H343 0.930 . S
C302 C303 1.348 . S
C302 C304 1.356 . S
C302 O327 1.325 . S
C303 C302 1.348 . S
C303 C305 1.353 . S
C303 H344 0.929 . S
C304 C302 1.356 . S
C304 C306 1.358 . S
C304 H345 0.930 . S
C305 C303 1.353 . S
C305 N307 1.314 . S
C305 H346 0.930 . S
C306 C304 1.358 . S
C306 N307 1.279 . S
C306 H347 0.930 . S
N307 C305 1.314 . S
N307 C306 1.279 . S
C308 C310 1.353 . S
C308 N311 1.314 . S
C308 H314 0.930 . S
C309 N311 1.279 . S
C309 C312 1.358 . S
C309 H315 0.930 . S
C310 C308 1.353 . S
C310 C313 1.348 . S
C310 H348 0.929 . S
N311 Li266 1.990 . S
N311 C308 1.314 . S
N311 C309 1.279 . S
C312 C309 1.358 . S
C312 C313 1.356 . S
C312 H349 0.930 . S
C313 C310 1.348 . S
C313 C312 1.356 . S
H314 C308 0.930 . S
H315 C309 0.930 . S
C316 N317 1.314 . S
C316 C318 1.353 . S
C316 H322 0.930 . S
N317 Li267 1.990 . S
N317 C316 1.314 . S
N317 C320 1.279 . S
C318 C316 1.353 . S
C318 C321 1.348 . S
C318 H350 0.929 . S
C319 C320 1.358 . S
C319 C321 1.356 . S
C319 H351 0.930 . S
C320 N317 1.279 . S
C320 C319 1.358 . S
C320 H323 0.930 . S
C321 C318 1.348 . S
C321 C319 1.356 . S
H322 C316 0.930 . S
H323 C320 0.930 . S
O324 Li264 1.956 . S
O324 Li265 1.970 . S
O324 Li266 1.961 . S
O324 C268 1.325 . S
O325 Li264 1.970 . S
O325 Li265 1.956 . S
O325 Li267 1.961 1_554 S
O325 C274 1.325 . S
O326 Li264 1.961 . S
O326 Li266 1.956 . S
O326 Li267 1.970 1_554 S
O326 C296 1.325 . S
O327 Li265 1.961 1_556 S
O327 Li266 1.970 1_556 S
O327 Li267 1.956 . S
O327 C302 1.325 . S
H328 C270 0.929 . S
H329 C271 0.930 . S
H330 C272 0.930 . S
H331 C273 0.930 . S
H332 C275 0.930 1_556 S
H333 C277 0.929 . S
H334 C278 0.930 1_556 S
H335 C279 0.930 . S
H336 C282 0.930 . S
H337 C285 0.929 . S
H338 C290 0.929 . S
H339 C291 0.930 . S
H340 C298 0.929 1_556 S
H341 C299 0.930 . S
H342 C300 0.930 1_556 S
H343 C301 0.930 . S
H344 C303 0.929 . S
H345 C304 0.930 . S
H346 C305 0.930 . S
H347 C306 0.930 . S
H348 C310 0.929 . S
H349 C312 0.930 . S
H350 C318 0.929 . S
H351 C319 0.930 . S
Li352 N369 1.994 . S
Li352 O412 1.998 . S
Li352 O413 1.926 1_455 S
Li352 O414 1.958 1_455 S
Li353 N377 1.992 . S
Li353 O412 1.941 1_655 S
Li353 O413 1.983 . S
Li353 O415 1.958 1_655 S
Li354 N399 1.990 . S
Li354 O412 1.961 . S
Li354 O414 1.933 1_455 S
Li354 O415 2.005 . S
Li355 N405 1.990 . S
Li355 O413 1.961 . S
Li355 O414 1.992 . S
Li355 O415 1.919 1_655 S
C356 C358 1.348 . S
C356 C359 1.356 . S
C356 O412 1.325 . S
N357 C360 1.314 . S
N357 C361 1.279 . S
C358 C356 1.348 . S
C358 C360 1.353 . S
C358 H416 0.929 . S
C359 C356 1.356 . S
C359 C361 1.358 . S
C359 H417 0.930 . S
C360 N357 1.314 . S
C360 C358 1.353 . S
C360 H418 0.930 . S
C361 N357 1.279 . S
C361 C359 1.358 . S
C361 H419 0.930 . S
C362 C365 1.348 . S
C362 C366 1.356 . S
C362 O413 1.325 . S
C363 N364 1.279 . S
C363 C366 1.358 . S
C363 H420 0.930 . S
N364 C363 1.279 . S
N364 C367 1.314 . S
C365 C362 1.348 . S
C365 C367 1.353 . S
C365 H421 0.929 . S
C366 C362 1.356 . S
C366 C363 1.358 . S
C366 H422 0.930 . S
C367 N364 1.314 . S
C367 C365 1.353 . S
C367 H423 0.930 . S
C368 N369 1.314 1_655 S
C368 C373 1.353 . S
C368 H374 0.930 . S
N369 Li352 1.994 . S
N369 C368 1.314 1_455 S
N369 C371 1.279 . S
C370 C371 1.358 . S
C370 C372 1.356 . S
C370 H424 0.930 . S
C371 N369 1.279 . S
C371 C370 1.358 . S
C371 H375 0.930 . S
C372 C370 1.356 . S
C372 C373 1.348 1_455 S
C373 C368 1.353 . S
C373 C372 1.348 1_655 S
C373 H425 0.929 . S
H374 C368 0.930 . S
H375 C371 0.930 . S
C376 N377 1.314 1_455 S
C376 C378 1.353 . S
C376 H382 0.930 . S
N377 Li353 1.992 . S
N377 C376 1.314 1_655 S
N377 C380 1.279 . S
C378 C376 1.353 . S
C378 C381 1.348 . S
C378 H426 0.929 1_556 S
C379 C380 1.358 . S
C379 C381 1.356 1_655 S
C379 H427 0.930 . S
C380 N377 1.279 . S
C380 C379 1.358 . S
C380 H383 0.930 . S
C381 C378 1.348 . S
C381 C379 1.356 1_455 S
H382 C376 0.930 . S
H383 C380 0.930 . S
C384 C386 1.348 1_455 S
C384 C387 1.356 . S
C384 O414 1.324 1_455 S
N385 C388 1.314 1_455 S
N385 C389 1.279 . S
C386 C384 1.348 1_655 S
C386 C388 1.353 . S
C386 H428 0.929 . S
C387 C384 1.356 . S
C387 C389 1.358 . S
C387 H429 0.930 . S
C388 N385 1.314 1_655 S
C388 C386 1.353 . S
C388 H430 0.930 . S
C389 N385 1.279 . S
C389 C387 1.358 . S
C389 H431 0.930 . S
C390 C391 1.348 . S
C390 C392 1.356 1_455 S
C390 O415 1.324 . S
C391 C390 1.348 . S
C391 C393 1.353 . S
C391 H432 0.929 . S
C392 C390 1.356 1_655 S
C392 C394 1.358 . S
C392 H433 0.930 . S
C393 C391 1.353 . S
C393 N395 1.314 1_456 S
C393 H434 0.930 . S
C394 C392 1.358 . S
C394 N395 1.279 1_556 S
C394 H435 0.930 1_556 S
N395 C393 1.314 1_654 S
N395 C394 1.279 1_554 S
C396 C398 1.353 . S
C396 N399 1.314 . S
C396 H402 0.930 . S
C397 N399 1.279 . S
C397 C400 1.358 . S
C397 H403 0.930 . S
C398 C396 1.353 . S
C398 C401 1.348 . S
C398 H436 0.929 . S
N399 Li354 1.990 . S
N399 C396 1.314 . S
N399 C397 1.279 . S
C400 C397 1.358 . S
C400 C401 1.356 . S
C400 H437 0.930 . S
C401 C398 1.348 . S
C401 C400 1.356 . S
H402 C396 0.930 . S
H403 C397 0.930 . S
C404 N405 1.314 . S
C404 C406 1.353 . S
C404 H410 0.930 . S
N405 Li355 1.990 . S
N405 C404 1.314 . S
N405 C408 1.279 . S
C406 C404 1.353 . S
C406 C409 1.348 . S
C406 H438 0.929 . S
C407 C408 1.358 . S
C407 C409 1.356 . S
C407 H439 0.930 . S
C408 N405 1.279 . S
C408 C407 1.358 . S
C408 H411 0.930 . S
C409 C406 1.348 . S
C409 C407 1.356 . S
H410 C404 0.930 . S
H411 C408 0.930 . S
O412 Li352 1.998 . S
O412 Li353 1.941 1_455 S
O412 Li354 1.961 . S
O412 C356 1.325 . S
O413 Li352 1.926 1_655 S
O413 Li353 1.983 . S
O413 Li355 1.961 . S
O413 C362 1.325 . S
O414 Li352 1.958 1_655 S
O414 Li354 1.933 1_655 S
O414 Li355 1.992 . S
O414 C384 1.324 1_655 S
O415 Li353 1.958 1_455 S
O415 Li354 2.005 . S
O415 Li355 1.919 1_455 S
O415 C390 1.324 . S
H416 C358 0.929 . S
H417 C359 0.930 . S
H418 C360 0.930 . S
H419 C361 0.930 . S
H420 C363 0.930 . S
H421 C365 0.929 . S
H422 C366 0.930 . S
H423 C367 0.930 . S
H424 C370 0.930 . S
H425 C373 0.929 . S
H426 C378 0.929 1_554 S
H427 C379 0.930 . S
H428 C386 0.929 . S
H429 C387 0.930 . S
H430 C388 0.930 . S
H431 C389 0.930 . S
H432 C391 0.929 . S
H433 C392 0.930 . S
H434 C393 0.930 . S
H435 C394 0.930 1_554 S
H436 C398 0.929 . S
H437 C400 0.930 . S
H438 C406 0.929 . S
H439 C407 0.930 . S
Li440 N457 1.990 . S
Li440 O500 1.956 . S
Li440 O501 1.970 . S
Li440 O502 1.961 . S
Li441 N465 1.990 . S
Li441 O500 1.970 . S
Li441 O501 1.956 . S
Li441 O503 1.961 . S
Li442 N487 1.990 . S
Li442 O500 1.961 . S
Li442 O502 1.956 . S
Li442 O503 1.970 . S
Li443 N493 1.990 . S
Li443 O501 1.961 . S
Li443 O502 1.970 . S
Li443 O503 1.956 . S
C444 C446 1.348 . S
C444 C447 1.356 . S
C444 O500 1.325 . S
N445 C448 1.314 . S
N445 C449 1.279 . S
C446 C444 1.348 . S
C446 C448 1.353 . S
C446 H504 0.929 . S
C447 C444 1.356 . S
C447 C449 1.358 . S
C447 H505 0.930 . S
C448 N445 1.314 . S
C448 C446 1.353 . S
C448 H506 0.930 . S
C449 N445 1.279 . S
C449 C447 1.358 . S
C449 H507 0.930 . S
C450 C453 1.348 . S
C450 C454 1.356 . S
C450 O501 1.325 . S
C451 N452 1.279 . S
C451 C454 1.358 . S
C451 H508 0.930 . S
N452 C451 1.279 . S
N452 C455 1.314 . S
C453 C450 1.348 . S
C453 C455 1.353 . S
C453 H509 0.929 . S
C454 C450 1.356 . S
C454 C451 1.358 . S
C454 H510 0.930 . S
C455 N452 1.314 . S
C455 C453 1.353 . S
C455 H511 0.930 . S
C456 N457 1.314 . S
C456 C461 1.353 . S
C456 H462 0.930 . S
N457 Li440 1.990 . S
N457 C456 1.314 . S
N457 C459 1.279 . S
C458 C459 1.358 . S
C458 C460 1.356 . S
C458 H512 0.930 . S
C459 N457 1.279 . S
C459 C458 1.358 . S
C459 H463 0.930 . S
C460 C458 1.356 . S
C460 C461 1.348 . S
C461 C456 1.353 . S
C461 C460 1.348 . S
C461 H513 0.929 . S
H462 C456 0.930 . S
H463 C459 0.930 . S
C464 N465 1.314 . S
C464 C466 1.353 . S
C464 H470 0.930 . S
N465 Li441 1.990 . S
N465 C464 1.314 . S
N465 C468 1.279 . S
C466 C464 1.353 . S
C466 C469 1.348 . S
C466 H514 0.929 . S
C467 C468 1.358 . S
C467 C469 1.356 . S
C467 H515 0.930 . S
C468 N465 1.279 . S
C468 C467 1.358 . S
C468 H471 0.930 . S
C469 C466 1.348 . S
C469 C467 1.356 . S
H470 C464 0.930 . S
H471 C468 0.930 . S
C472 C474 1.348 . S
C472 C475 1.356 . S
C472 O502 1.325 . S
N473 C476 1.314 . S
N473 C477 1.279 . S
C474 C472 1.348 . S
C474 C476 1.353 . S
C474 H516 0.929 . S
C475 C472 1.356 . S
C475 C477 1.358 . S
C475 H517 0.930 . S
C476 N473 1.314 . S
C476 C474 1.353 . S
C476 H518 0.930 . S
C477 N473 1.279 . S
C477 C475 1.358 . S
C477 H519 0.930 . S
C478 C479 1.348 . S
C478 C480 1.356 . S
C478 O503 1.325 . S
C479 C478 1.348 . S
C479 C481 1.353 . S
C479 H520 0.929 . S
C480 C478 1.356 . S
C480 C482 1.358 . S
C480 H521 0.930 . S
C481 C479 1.353 . S
C481 N483 1.314 . S
C481 H522 0.930 . S
C482 C480 1.358 . S
C482 N483 1.279 . S
C482 H523 0.930 . S
N483 C481 1.314 . S
N483 C482 1.279 . S
C484 C486 1.353 . S
C484 N487 1.314 . S
C484 H490 0.930 . S
C485 N487 1.279 . S
C485 C488 1.358 1_554 S
C485 H491 0.930 . S
C486 C484 1.353 . S
C486 C489 1.348 1_554 S
C486 H524 0.929 . S
N487 Li442 1.990 . S
N487 C484 1.314 . S
N487 C485 1.279 . S
C488 C485 1.358 1_556 S
C488 C489 1.356 . S
C488 H525 0.930 . S
C489 C486 1.348 1_556 S
C489 C488 1.356 . S
H490 C484 0.930 . S
H491 C485 0.930 . S
C492 N493 1.314 . S
C492 C494 1.353 . S
C492 H498 0.930 . S
N493 Li443 1.990 . S
N493 C492 1.314 . S
N493 C496 1.279 . S
C494 C492 1.353 . S
C494 C497 1.348 . S
C494 H526 0.929 . S
C495 C496 1.358 . S
C495 C497 1.356 . S
C495 H527 0.930 . S
C496 N493 1.279 . S
C496 C495 1.358 . S
C496 H499 0.930 . S
C497 C494 1.348 . S
C497 C495 1.356 . S
H498 C492 0.930 . S
H499 C496 0.930 . S
O500 Li440 1.956 . S
O500 Li441 1.970 . S
O500 Li442 1.961 . S
O500 C444 1.325 . S
O501 Li440 1.970 . S
O501 Li441 1.956 . S
O501 Li443 1.961 . S
O501 C450 1.325 . S
O502 Li440 1.961 . S
O502 Li442 1.956 . S
O502 Li443 1.970 . S
O502 C472 1.325 . S
O503 Li441 1.961 . S
O503 Li442 1.970 . S
O503 Li443 1.956 . S
O503 C478 1.325 . S
H504 C446 0.929 . S
H505 C447 0.930 . S
H506 C448 0.930 . S
H507 C449 0.930 . S
H508 C451 0.930 . S
H509 C453 0.929 . S
H510 C454 0.930 . S
H511 C455 0.930 . S
H512 C458 0.930 . S
H513 C461 0.929 . S
H514 C466 0.929 . S
H515 C467 0.930 . S
H516 C474 0.929 . S
H517 C475 0.930 . S
H518 C476 0.930 . S
H519 C477 0.930 . S
H520 C479 0.929 . S
H521 C480 0.930 . S
H522 C481 0.930 . S
H523 C482 0.930 . S
H524 C486 0.929 . S
H525 C488 0.930 . S
H526 C494 0.929 . S
H527 C495 0.930 . S
Li528 N545 1.990 . S
Li528 O588 1.956 . S
Li528 O589 1.970 . S
Li528 O590 1.961 . S
Li529 N553 1.990 . S
Li529 O588 1.970 . S
Li529 O589 1.956 . S
Li529 O591 1.961 . S
Li530 N575 1.990 . S
Li530 O588 1.961 . S
Li530 O590 1.956 . S
Li530 O591 1.970 . S
Li531 N581 1.990 . S
Li531 O589 1.961 . S
Li531 O590 1.970 . S
Li531 O591 1.956 . S
C532 C534 1.348 . S
C532 C535 1.356 . S
C532 O588 1.325 . S
N533 C536 1.314 . S
N533 C537 1.279 . S
C534 C532 1.348 . S
C534 C536 1.353 . S
C534 H592 0.929 . S
C535 C532 1.356 . S
C535 C537 1.358 . S
C535 H593 0.930 . S
C536 N533 1.314 . S
C536 C534 1.353 . S
C536 H594 0.930 . S
C537 N533 1.279 . S
C537 C535 1.358 . S
C537 H595 0.930 . S
C538 C541 1.348 . S
C538 C542 1.356 . S
C538 O589 1.325 . S
C539 N540 1.279 . S
C539 C542 1.358 . S
C539 H596 0.930 . S
N540 C539 1.279 . S
N540 C543 1.314 . S
C541 C538 1.348 . S
C541 C543 1.353 . S
C541 H597 0.929 . S
C542 C538 1.356 . S
C542 C539 1.358 . S
C542 H598 0.930 . S
C543 N540 1.314 . S
C543 C541 1.353 . S
C543 H599 0.930 . S
C544 N545 1.314 . S
C544 C549 1.353 . S
C544 H550 0.930 . S
N545 Li528 1.990 . S
N545 C544 1.314 . S
N545 C547 1.279 . S
C546 C547 1.358 . S
C546 C548 1.356 . S
C546 H600 0.930 . S
C547 N545 1.279 . S
C547 C546 1.358 . S
C547 H551 0.930 . S
C548 C546 1.356 . S
C548 C549 1.348 . S
C549 C544 1.353 . S
C549 C548 1.348 . S
C549 H601 0.929 . S
H550 C544 0.930 . S
H551 C547 0.930 . S
C552 N553 1.314 . S
C552 C554 1.353 . S
C552 H558 0.930 . S
N553 Li529 1.990 . S
N553 C552 1.314 . S
N553 C556 1.279 . S
C554 C552 1.353 . S
C554 C557 1.348 . S
C554 H602 0.929 . S
C555 C556 1.358 . S
C555 C557 1.356 . S
C555 H603 0.930 . S
C556 N553 1.279 . S
C556 C555 1.358 . S
C556 H559 0.930 . S
C557 C554 1.348 . S
C557 C555 1.356 . S
H558 C552 0.930 . S
H559 C556 0.930 . S
C560 C562 1.348 . S
C560 C563 1.356 . S
C560 O590 1.325 . S
N561 C564 1.314 . S
N561 C565 1.279 . S
C562 C560 1.348 . S
C562 C564 1.353 . S
C562 H604 0.929 . S
C563 C560 1.356 . S
C563 C565 1.358 . S
C563 H605 0.930 . S
C564 N561 1.314 . S
C564 C562 1.353 . S
C564 H606 0.930 . S
C565 N561 1.279 . S
C565 C563 1.358 . S
C565 H607 0.930 . S
C566 C567 1.348 . S
C566 C568 1.356 . S
C566 O591 1.325 . S
C567 C566 1.348 . S
C567 C569 1.353 . S
C567 H608 0.929 . S
C568 C566 1.356 . S
C568 C570 1.358 . S
C568 H609 0.930 . S
C569 C567 1.353 . S
C569 N571 1.314 . S
C569 H610 0.930 . S
C570 C568 1.358 . S
C570 N571 1.279 . S
C570 H611 0.930 . S
N571 C569 1.314 . S
N571 C570 1.279 . S
C572 C574 1.353 . S
C572 N575 1.314 . S
C572 H578 0.930 . S
C573 N575 1.279 . S
C573 C576 1.358 . S
C573 H579 0.930 . S
C574 C572 1.353 . S
C574 C577 1.348 . S
C574 H612 0.929 . S
N575 Li530 1.990 . S
N575 C572 1.314 . S
N575 C573 1.279 . S
C576 C573 1.358 . S
C576 C577 1.356 . S
C576 H613 0.930 . S
C577 C574 1.348 . S
C577 C576 1.356 . S
H578 C572 0.930 . S
H579 C573 0.930 . S
C580 N581 1.314 . S
C580 C582 1.353 . S
C580 H586 0.930 . S
N581 Li531 1.990 . S
N581 C580 1.314 . S
N581 C584 1.279 . S
C582 C580 1.353 . S
C582 C585 1.348 . S
C582 H614 0.929 . S
C583 C584 1.358 . S
C583 C585 1.356 . S
C583 H615 0.930 . S
C584 N581 1.279 . S
C584 C583 1.358 . S
C584 H587 0.930 . S
C585 C582 1.348 . S
C585 C583 1.356 . S
H586 C580 0.930 . S
H587 C584 0.930 . S
O588 Li528 1.956 . S
O588 Li529 1.970 . S
O588 Li530 1.961 . S
O588 C532 1.325 . S
O589 Li528 1.970 . S
O589 Li529 1.956 . S
O589 Li531 1.961 . S
O589 C538 1.325 . S
O590 Li528 1.961 . S
O590 Li530 1.956 . S
O590 Li531 1.970 . S
O590 C560 1.325 . S
O591 Li529 1.961 . S
O591 Li530 1.970 . S
O591 Li531 1.956 . S
O591 C566 1.325 . S
H592 C534 0.929 . S
H593 C535 0.930 . S
H594 C536 0.930 . S
H595 C537 0.930 . S
H596 C539 0.930 . S
H597 C541 0.929 . S
H598 C542 0.930 . S
H599 C543 0.930 . S
H600 C546 0.930 . S
H601 C549 0.929 . S
H602 C554 0.929 . S
H603 C555 0.930 . S
H604 C562 0.929 . S
H605 C563 0.930 . S
H606 C564 0.930 . S
H607 C565 0.930 . S
H608 C567 0.929 . S
H609 C568 0.930 . S
H610 C569 0.930 . S
H611 C570 0.930 . S
H612 C574 0.929 . S
H613 C576 0.930 . S
H614 C582 0.929 . S
H615 C583 0.930 . S
Li616 N633 1.990 . S
Li616 O676 1.956 . S
Li616 O677 1.970 . S
Li616 O678 1.961 . S
Li617 N641 1.990 . S
Li617 O676 1.970 . S
Li617 O677 1.956 . S
Li617 O679 1.961 . S
Li618 N663 1.990 . S
Li618 O676 1.961 . S
Li618 O678 1.956 . S
Li618 O679 1.970 . S
Li619 N669 1.990 . S
Li619 O677 1.961 . S
Li619 O678 1.970 . S
Li619 O679 1.956 . S
C620 C622 1.348 . S
C620 C623 1.356 . S
C620 O676 1.325 . S
N621 C624 1.314 . S
N621 C625 1.279 . S
C622 C620 1.348 . S
C622 C624 1.353 . S
C622 H680 0.929 . S
C623 C620 1.356 . S
C623 C625 1.358 . S
C623 H681 0.930 . S
C624 N621 1.314 . S
C624 C622 1.353 . S
C624 H682 0.930 . S
C625 N621 1.279 . S
C625 C623 1.358 . S
C625 H683 0.930 . S
C626 C629 1.348 . S
C626 C630 1.356 . S
C626 O677 1.325 . S
C627 N628 1.279 . S
C627 C630 1.358 . S
C627 H684 0.930 . S
N628 C627 1.279 . S
N628 C631 1.314 . S
C629 C626 1.348 . S
C629 C631 1.353 . S
C629 H685 0.929 . S
C630 C626 1.356 . S
C630 C627 1.358 . S
C630 H686 0.930 . S
C631 N628 1.314 . S
C631 C629 1.353 . S
C631 H687 0.930 . S
C632 N633 1.314 . S
C632 C637 1.353 . S
C632 H638 0.930 . S
N633 Li616 1.990 . S
N633 C632 1.314 . S
N633 C635 1.279 . S
C634 C635 1.358 . S
C634 C636 1.356 . S
C634 H688 0.930 . S
C635 N633 1.279 . S
C635 C634 1.358 . S
C635 H639 0.930 . S
C636 C634 1.356 . S
C636 C637 1.348 . S
C637 C632 1.353 . S
C637 C636 1.348 . S
C637 H689 0.929 . S
H638 C632 0.930 . S
H639 C635 0.930 . S
C640 N641 1.314 . S
C640 C642 1.353 . S
C640 H646 0.930 . S
N641 Li617 1.990 . S
N641 C640 1.314 . S
N641 C644 1.279 . S
C642 C640 1.353 . S
C642 C645 1.348 . S
C642 H690 0.929 . S
C643 C644 1.358 . S
C643 C645 1.356 . S
C643 H691 0.930 . S
C644 N641 1.279 . S
C644 C643 1.358 . S
C644 H647 0.930 . S
C645 C642 1.348 . S
C645 C643 1.356 . S
H646 C640 0.930 . S
H647 C644 0.930 . S
C648 C650 1.348 . S
C648 C651 1.356 . S
C648 O678 1.325 . S
N649 C652 1.314 . S
N649 C653 1.279 . S
C650 C648 1.348 . S
C650 C652 1.353 . S
C650 H692 0.929 . S
C651 C648 1.356 . S
C651 C653 1.358 . S
C651 H693 0.930 . S
C652 N649 1.314 . S
C652 C650 1.353 . S
C652 H694 0.930 . S
C653 N649 1.279 . S
C653 C651 1.358 . S
C653 H695 0.930 . S
C654 C655 1.348 . S
C654 C656 1.356 . S
C654 O679 1.325 . S
C655 C654 1.348 . S
C655 C657 1.353 . S
C655 H696 0.929 . S
C656 C654 1.356 . S
C656 C658 1.358 . S
C656 H697 0.930 . S
C657 C655 1.353 . S
C657 N659 1.314 . S
C657 H698 0.930 . S
C658 C656 1.358 . S
C658 N659 1.279 . S
C658 H699 0.930 . S
N659 C657 1.314 . S
N659 C658 1.279 . S
C660 C662 1.353 . S
C660 N663 1.314 . S
C660 H666 0.930 . S
C661 N663 1.279 . S
C661 C664 1.358 . S
C661 H667 0.930 . S
C662 C660 1.353 . S
C662 C665 1.348 . S
C662 H700 0.929 . S
N663 Li618 1.990 . S
N663 C660 1.314 . S
N663 C661 1.279 . S
C664 C661 1.358 . S
C664 C665 1.356 . S
C664 H701 0.930 . S
C665 C662 1.348 . S
C665 C664 1.356 . S
H666 C660 0.930 . S
H667 C661 0.930 . S
C668 N669 1.314 . S
C668 C670 1.353 . S
C668 H674 0.930 . S
N669 Li619 1.990 . S
N669 C668 1.314 . S
N669 C672 1.279 . S
C670 C668 1.353 . S
C670 C673 1.348 . S
C670 H702 0.929 . S
C671 C672 1.358 . S
C671 C673 1.356 . S
C671 H703 0.930 . S
C672 N669 1.279 . S
C672 C671 1.358 . S
C672 H675 0.930 . S
C673 C670 1.348 . S
C673 C671 1.356 . S
H674 C668 0.930 . S
H675 C672 0.930 . S
O676 Li616 1.956 . S
O676 Li617 1.970 . S
O676 Li618 1.961 . S
O676 C620 1.325 . S
O677 Li616 1.970 . S
O677 Li617 1.956 . S
O677 Li619 1.961 . S
O677 C626 1.325 . S
O678 Li616 1.961 . S
O678 Li618 1.956 . S
O678 Li619 1.970 . S
O678 C648 1.325 . S
O679 Li617 1.961 . S
O679 Li618 1.970 . S
O679 Li619 1.956 . S
O679 C654 1.325 . S
H680 C622 0.929 . S
H681 C623 0.930 . S
H682 C624 0.930 . S
H683 C625 0.930 . S
H684 C627 0.930 . S
H685 C629 0.929 . S
H686 C630 0.930 . S
H687 C631 0.930 . S
H688 C634 0.930 . S
H689 C637 0.929 . S
H690 C642 0.929 . S
H691 C643 0.930 . S
H692 C650 0.929 . S
H693 C651 0.930 . S
H694 C652 0.930 . S
H695 C653 0.930 . S
H696 C655 0.929 . S
H697 C656 0.930 . S
H698 C657 0.930 . S
H699 C658 0.930 . S
H700 C662 0.929 . S
H701 C664 0.930 . S
H702 C670 0.929 . S
H703 C671 0.930 . S
Li704 N721 1.990 . S
Li704 O764 1.956 . S
Li704 O765 1.970 . S
Li704 O766 1.961 . S
Li705 N729 1.990 . S
Li705 O764 1.970 . S
Li705 O765 1.956 . S
Li705 O767 1.961 . S
Li706 N751 1.990 . S
Li706 O764 1.961 . S
Li706 O766 1.956 . S
Li706 O767 1.970 . S
Li707 N757 1.990 . S
Li707 O765 1.961 . S
Li707 O766 1.970 . S
Li707 O767 1.956 . S
C708 C710 1.348 . S
C708 C711 1.356 . S
C708 O764 1.325 . S
N709 C712 1.314 . S
N709 C713 1.279 . S
C710 C708 1.348 . S
C710 C712 1.353 . S
C710 H768 0.929 . S
C711 C708 1.356 . S
C711 C713 1.358 . S
C711 H769 0.930 . S
C712 N709 1.314 . S
C712 C710 1.353 . S
C712 H770 0.930 . S
C713 N709 1.279 . S
C713 C711 1.358 . S
C713 H771 0.930 . S
C714 C717 1.348 . S
C714 C718 1.356 . S
C714 O765 1.325 . S
C715 N716 1.279 . S
C715 C718 1.358 . S
C715 H772 0.930 . S
N716 C715 1.279 . S
N716 C719 1.314 . S
C717 C714 1.348 . S
C717 C719 1.353 . S
C717 H773 0.929 . S
C718 C714 1.356 . S
C718 C715 1.358 . S
C718 H774 0.930 . S
C719 N716 1.314 . S
C719 C717 1.353 . S
C719 H775 0.930 . S
C720 N721 1.314 . S
C720 C725 1.353 . S
C720 H726 0.930 . S
N721 Li704 1.990 . S
N721 C720 1.314 . S
N721 C723 1.279 . S
C722 C723 1.358 . S
C722 C724 1.356 . S
C722 H776 0.930 . S
C723 N721 1.279 . S
C723 C722 1.358 . S
C723 H727 0.930 . S
C724 C722 1.356 . S
C724 C725 1.348 . S
C725 C720 1.353 . S
C725 C724 1.348 . S
C725 H777 0.929 . S
H726 C720 0.930 . S
H727 C723 0.930 . S
C728 N729 1.314 . S
C728 C730 1.353 . S
C728 H734 0.930 . S
N729 Li705 1.990 . S
N729 C728 1.314 . S
N729 C732 1.279 . S
C730 C728 1.353 . S
C730 C733 1.348 . S
C730 H778 0.929 . S
C731 C732 1.358 . S
C731 C733 1.356 . S
C731 H779 0.930 . S
C732 N729 1.279 . S
C732 C731 1.358 . S
C732 H735 0.930 . S
C733 C730 1.348 . S
C733 C731 1.356 . S
H734 C728 0.930 . S
H735 C732 0.930 . S
C736 C738 1.348 . S
C736 C739 1.356 . S
C736 O766 1.325 . S
N737 C740 1.314 . S
N737 C741 1.279 . S
C738 C736 1.348 . S
C738 C740 1.353 . S
C738 H780 0.929 . S
C739 C736 1.356 . S
C739 C741 1.358 . S
C739 H781 0.930 . S
C740 N737 1.314 . S
C740 C738 1.353 . S
C740 H782 0.930 . S
C741 N737 1.279 . S
C741 C739 1.358 . S
C741 H783 0.930 . S
C742 C743 1.348 . S
C742 C744 1.356 . S
C742 O767 1.325 . S
C743 C742 1.348 . S
C743 C745 1.353 . S
C743 H784 0.929 . S
C744 C742 1.356 . S
C744 C746 1.358 . S
C744 H785 0.930 . S
C745 C743 1.353 . S
C745 N747 1.314 . S
C745 H786 0.930 . S
C746 C744 1.358 . S
C746 N747 1.279 . S
C746 H787 0.930 . S
N747 C745 1.314 . S
N747 C746 1.279 . S
C748 C750 1.353 . S
C748 N751 1.314 . S
C748 H754 0.930 . S
C749 N751 1.279 . S
C749 C752 1.358 . S
C749 H755 0.930 . S
C750 C748 1.353 . S
C750 C753 1.348 . S
C750 H788 0.929 . S
N751 Li706 1.990 . S
N751 C748 1.314 . S
N751 C749 1.279 . S
C752 C749 1.358 . S
C752 C753 1.356 . S
C752 H789 0.930 . S
C753 C750 1.348 . S
C753 C752 1.356 . S
H754 C748 0.930 . S
H755 C749 0.930 . S
C756 N757 1.314 . S
C756 C758 1.353 . S
C756 H762 0.930 . S
N757 Li707 1.990 . S
N757 C756 1.314 . S
N757 C760 1.279 . S
C758 C756 1.353 . S
C758 C761 1.348 . S
C758 H790 0.929 . S
C759 C760 1.358 . S
C759 C761 1.356 . S
C759 H791 0.930 . S
C760 N757 1.279 . S
C760 C759 1.358 . S
C760 H763 0.930 . S
C761 C758 1.348 . S
C761 C759 1.356 . S
H762 C756 0.930 . S
H763 C760 0.930 . S
O764 Li704 1.956 . S
O764 Li705 1.970 . S
O764 Li706 1.961 . S
O764 C708 1.325 . S
O765 Li704 1.970 . S
O765 Li705 1.956 . S
O765 Li707 1.961 . S
O765 C714 1.325 . S
O766 Li704 1.961 . S
O766 Li706 1.956 . S
O766 Li707 1.970 . S
O766 C736 1.325 . S
O767 Li705 1.961 . S
O767 Li706 1.970 . S
O767 Li707 1.956 . S
O767 C742 1.325 . S
H768 C710 0.929 . S
H769 C711 0.930 . S
H770 C712 0.930 . S
H771 C713 0.930 . S
H772 C715 0.930 . S
H773 C717 0.929 . S
H774 C718 0.930 . S
H775 C719 0.930 . S
H776 C722 0.930 . S
H777 C725 0.929 . S
H778 C730 0.929 . S
H779 C731 0.930 . S
H780 C738 0.929 . S
H781 C739 0.930 . S
H782 C740 0.930 . S
H783 C741 0.930 . S
H784 C743 0.929 . S
H785 C744 0.930 . S
H786 C745 0.930 . S
H787 C746 0.930 . S
H788 C750 0.929 . S
H789 C752 0.930 . S
H790 C758 0.929 . S
H791 C759 0.930 . S
Li792 N809 1.990 . S
Li792 O852 1.956 . S
Li792 O853 1.970 . S
Li792 O854 1.961 . S
Li793 N817 1.990 . S
Li793 O852 1.970 . S
Li793 O853 1.956 . S
Li793 O855 1.961 . S
Li794 N839 1.990 . S
Li794 O852 1.961 . S
Li794 O854 1.956 . S
Li794 O855 1.970 . S
Li795 N845 1.990 . S
Li795 O853 1.961 . S
Li795 O854 1.970 . S
Li795 O855 1.956 . S
C796 C798 1.348 . S
C796 C799 1.356 . S
C796 O852 1.325 . S
N797 C800 1.314 . S
N797 C801 1.279 . S
C798 C796 1.348 . S
C798 C800 1.353 . S
C798 H856 0.929 . S
C799 C796 1.356 . S
C799 C801 1.358 . S
C799 H857 0.930 . S
C800 N797 1.314 . S
C800 C798 1.353 . S
C800 H858 0.930 . S
C801 N797 1.279 . S
C801 C799 1.358 . S
C801 H859 0.930 . S
C802 C805 1.348 . S
C802 C806 1.356 . S
C802 O853 1.325 . S
C803 N804 1.279 . S
C803 C806 1.358 . S
C803 H860 0.930 . S
N804 C803 1.279 . S
N804 C807 1.314 . S
C805 C802 1.348 . S
C805 C807 1.353 . S
C805 H861 0.929 . S
C806 C802 1.356 . S
C806 C803 1.358 . S
C806 H862 0.930 . S
C807 N804 1.314 . S
C807 C805 1.353 . S
C807 H863 0.930 . S
C808 N809 1.314 . S
C808 C813 1.353 . S
C808 H814 0.930 . S
N809 Li792 1.990 . S
N809 C808 1.314 . S
N809 C811 1.279 . S
C810 C811 1.358 . S
C810 C812 1.356 . S
C810 H864 0.930 . S
C811 N809 1.279 . S
C811 C810 1.358 . S
C811 H815 0.930 . S
C812 C810 1.356 . S
C812 C813 1.348 . S
C813 C808 1.353 . S
C813 C812 1.348 . S
C813 H865 0.929 . S
H814 C808 0.930 . S
H815 C811 0.930 . S
C816 N817 1.314 . S
C816 C818 1.353 . S
C816 H822 0.930 . S
N817 Li793 1.990 . S
N817 C816 1.314 . S
N817 C820 1.279 . S
C818 C816 1.353 . S
C818 C821 1.348 . S
C818 H866 0.929 . S
C819 C820 1.358 . S
C819 C821 1.356 . S
C819 H867 0.930 . S
C820 N817 1.279 . S
C820 C819 1.358 . S
C820 H823 0.930 . S
C821 C818 1.348 . S
C821 C819 1.356 . S
H822 C816 0.930 . S
H823 C820 0.930 . S
C824 C826 1.348 . S
C824 C827 1.356 . S
C824 O854 1.325 . S
N825 C828 1.314 . S
N825 C829 1.279 . S
C826 C824 1.348 . S
C826 C828 1.353 . S
C826 H868 0.929 . S
C827 C824 1.356 . S
C827 C829 1.358 . S
C827 H869 0.930 . S
C828 N825 1.314 . S
C828 C826 1.353 . S
C828 H870 0.930 . S
C829 N825 1.279 . S
C829 C827 1.358 . S
C829 H871 0.930 . S
C830 C831 1.348 . S
C830 C832 1.356 . S
C830 O855 1.325 . S
C831 C830 1.348 . S
C831 C833 1.353 . S
C831 H872 0.929 . S
C832 C830 1.356 . S
C832 C834 1.358 . S
C832 H873 0.930 . S
C833 C831 1.353 . S
C833 N835 1.314 . S
C833 H874 0.930 . S
C834 C832 1.358 . S
C834 N835 1.279 . S
C834 H875 0.930 . S
N835 C833 1.314 . S
N835 C834 1.279 . S
C836 C838 1.353 . S
C836 N839 1.314 . S
C836 H842 0.930 . S
C837 N839 1.279 . S
C837 C840 1.358 1_554 S
C837 H843 0.930 . S
C838 C836 1.353 . S
C838 C841 1.348 1_554 S
C838 H876 0.929 . S
N839 Li794 1.990 . S
N839 C836 1.314 . S
N839 C837 1.279 . S
C840 C837 1.358 1_556 S
C840 C841 1.356 . S
C840 H877 0.930 . S
C841 C838 1.348 1_556 S
C841 C840 1.356 . S
H842 C836 0.930 . S
H843 C837 0.930 . S
C844 N845 1.314 . S
C844 C846 1.353 . S
C844 H850 0.930 . S
N845 Li795 1.990 . S
N845 C844 1.314 . S
N845 C848 1.279 . S
C846 C844 1.353 . S
C846 C849 1.348 . S
C846 H878 0.929 . S
C847 C848 1.358 . S
C847 C849 1.356 . S
C847 H879 0.930 . S
C848 N845 1.279 . S
C848 C847 1.358 . S
C848 H851 0.930 . S
C849 C846 1.348 . S
C849 C847 1.356 . S
H850 C844 0.930 . S
H851 C848 0.930 . S
O852 Li792 1.956 . S
O852 Li793 1.970 . S
O852 Li794 1.961 . S
O852 C796 1.325 . S
O853 Li792 1.970 . S
O853 Li793 1.956 . S
O853 Li795 1.961 . S
O853 C802 1.325 . S
O854 Li792 1.961 . S
O854 Li794 1.956 . S
O854 Li795 1.970 . S
O854 C824 1.325 . S
O855 Li793 1.961 . S
O855 Li794 1.970 . S
O855 Li795 1.956 . S
O855 C830 1.325 . S
H856 C798 0.929 . S
H857 C799 0.930 . S
H858 C800 0.930 . S
H859 C801 0.930 . S
H860 C803 0.930 . S
H861 C805 0.929 . S
H862 C806 0.930 . S
H863 C807 0.930 . S
H864 C810 0.930 . S
H865 C813 0.929 . S
H866 C818 0.929 . S
H867 C819 0.930 . S
H868 C826 0.929 . S
H869 C827 0.930 . S
H870 C828 0.930 . S
H871 C829 0.930 . S
H872 C831 0.929 . S
H873 C832 0.930 . S
H874 C833 0.930 . S
H875 C834 0.930 . S
H876 C838 0.929 . S
H877 C840 0.930 . S
H878 C846 0.929 . S
H879 C847 0.930 . S
Li880 N897 1.990 . S
Li880 O940 1.956 . S
Li880 O941 1.970 . S
Li880 O942 1.961 . S
Li881 N905 1.990 . S
Li881 O940 1.970 . S
Li881 O941 1.956 . S
Li881 O943 1.961 1_554 S
Li882 N927 1.990 . S
Li882 O940 1.961 . S
Li882 O942 1.956 . S
Li882 O943 1.970 1_554 S
Li883 N933 1.990 . S
Li883 O941 1.961 1_556 S
Li883 O942 1.970 1_556 S
Li883 O943 1.956 . S
C884 C886 1.348 . S
C884 C887 1.356 . S
C884 O940 1.325 . S
N885 C888 1.314 . S
N885 C889 1.279 . S
C886 C884 1.348 . S
C886 C888 1.353 . S
C886 H944 0.929 . S
C887 C884 1.356 . S
C887 C889 1.358 . S
C887 H945 0.930 . S
C888 N885 1.314 . S
C888 C886 1.353 . S
C888 H946 0.930 . S
C889 N885 1.279 . S
C889 C887 1.358 . S
C889 H947 0.930 . S
C890 C893 1.348 . S
C890 C894 1.356 . S
C890 O941 1.325 . S
C891 N892 1.279 . S
C891 C894 1.358 . S
C891 H948 0.930 1_554 S
N892 C891 1.279 . S
N892 C895 1.314 . S
C893 C890 1.348 . S
C893 C895 1.353 . S
C893 H949 0.929 . S
C894 C890 1.356 . S
C894 C891 1.358 . S
C894 H950 0.930 1_554 S
C895 N892 1.314 . S
C895 C893 1.353 . S
C895 H951 0.930 . S
C896 N897 1.314 . S
C896 C901 1.353 . S
C896 H902 0.930 . S
N897 Li880 1.990 . S
N897 C896 1.314 . S
N897 C899 1.279 . S
C898 C899 1.358 . S
C898 C900 1.356 . S
C898 H952 0.930 . S
C899 N897 1.279 . S
C899 C898 1.358 . S
C899 H903 0.930 . S
C900 C898 1.356 . S
C900 C901 1.348 . S
C901 C896 1.353 . S
C901 C900 1.348 . S
C901 H953 0.929 . S
H902 C896 0.930 . S
H903 C899 0.930 . S
C904 N905 1.314 1_556 S
C904 C906 1.353 . S
C904 H910 0.930 . S
N905 Li881 1.990 . S
N905 C904 1.314 1_554 S
N905 C908 1.279 . S
C906 C904 1.353 . S
C906 C909 1.348 1_556 S
C906 H954 0.929 . S
C907 C908 1.358 . S
C907 C909 1.356 . S
C907 H955 0.930 . S
C908 N905 1.279 . S
C908 C907 1.358 . S
C908 H911 0.930 . S
C909 C906 1.348 1_554 S
C909 C907 1.356 . S
H910 C904 0.930 . S
H911 C908 0.930 . S
C912 C914 1.348 . S
C912 C915 1.356 . S
C912 O942 1.325 . S
N913 C916 1.314 . S
N913 C917 1.279 . S
C914 C912 1.348 . S
C914 C916 1.353 . S
C914 H956 0.929 1_554 S
C915 C912 1.356 . S
C915 C917 1.358 . S
C915 H957 0.930 . S
C916 N913 1.314 . S
C916 C914 1.353 . S
C916 H958 0.930 1_554 S
C917 N913 1.279 . S
C917 C915 1.358 . S
C917 H959 0.930 . S
C918 C919 1.348 . S
C918 C920 1.356 . S
C918 O943 1.325 . S
C919 C918 1.348 . S
C919 C921 1.353 . S
C919 H960 0.929 . S
C920 C918 1.356 . S
C920 C922 1.358 . S
C920 H961 0.930 . S
C921 C919 1.353 . S
C921 N923 1.314 . S
C921 H962 0.930 . S
C922 C920 1.358 . S
C922 N923 1.279 . S
C922 H963 0.930 . S
N923 C921 1.314 . S
N923 C922 1.279 . S
C924 C926 1.353 . S
C924 N927 1.314 . S
C924 H930 0.930 . S
C925 N927 1.279 . S
C925 C928 1.358 . S
C925 H931 0.930 . S
C926 C924 1.353 . S
C926 C929 1.348 . S
C926 H964 0.929 . S
N927 Li882 1.990 . S
N927 C924 1.314 . S
N927 C925 1.279 . S
C928 C925 1.358 . S
C928 C929 1.356 . S
C928 H965 0.930 . S
C929 C926 1.348 . S
C929 C928 1.356 . S
H930 C924 0.930 . S
H931 C925 0.930 . S
C932 N933 1.314 . S
C932 C934 1.353 . S
C932 H938 0.930 . S
N933 Li883 1.990 . S
N933 C932 1.314 . S
N933 C936 1.279 . S
C934 C932 1.353 . S
C934 C937 1.348 . S
C934 H966 0.929 . S
C935 C936 1.358 . S
C935 C937 1.356 . S
C935 H967 0.930 . S
C936 N933 1.279 . S
C936 C935 1.358 . S
C936 H939 0.930 . S
C937 C934 1.348 . S
C937 C935 1.356 . S
H938 C932 0.930 . S
H939 C936 0.930 . S
O940 Li880 1.956 . S
O940 Li881 1.970 . S
O940 Li882 1.961 . S
O940 C884 1.325 . S
O941 Li880 1.970 . S
O941 Li881 1.956 . S
O941 Li883 1.961 1_554 S
O941 C890 1.325 . S
O942 Li880 1.961 . S
O942 Li882 1.956 . S
O942 Li883 1.970 1_554 S
O942 C912 1.325 . S
O943 Li881 1.961 1_556 S
O943 Li882 1.970 1_556 S
O943 Li883 1.956 . S
O943 C918 1.325 . S
H944 C886 0.929 . S
H945 C887 0.930 . S
H946 C888 0.930 . S
H947 C889 0.930 . S
H948 C891 0.930 1_556 S
H949 C893 0.929 . S
H950 C894 0.930 1_556 S
H951 C895 0.930 . S
H952 C898 0.930 . S
H953 C901 0.929 . S
H954 C906 0.929 . S
H955 C907 0.930 . S
H956 C914 0.929 1_556 S
H957 C915 0.930 . S
H958 C916 0.930 1_556 S
H959 C917 0.930 . S
H960 C919 0.929 . S
H961 C920 0.930 . S
H962 C921 0.930 . S
H963 C922 0.930 . S
H964 C926 0.929 . S
H965 C928 0.930 . S
H966 C934 0.929 . S
H967 C935 0.930 . S
Li968 N985 1.990 . S
Li968 O1028 1.956 . S
Li968 O1029 1.970 . S
Li968 O1030 1.961 . S
Li969 N993 1.990 . S
Li969 O1028 1.970 . S
Li969 O1029 1.956 . S
Li969 O1031 1.961 . S
Li970 N1015 1.990 . S
Li970 O1028 1.961 . S
Li970 O1030 1.956 . S
Li970 O1031 1.970 . S
Li971 N1021 1.990 . S
Li971 O1029 1.961 . S
Li971 O1030 1.970 . S
Li971 O1031 1.956 . S
C972 C974 1.348 . S
C972 C975 1.356 . S
C972 O1028 1.325 . S
N973 C976 1.314 . S
N973 C977 1.279 . S
C974 C972 1.348 . S
C974 C976 1.353 . S
C974 H1032 0.929 . S
C975 C972 1.356 . S
C975 C977 1.358 . S
C975 H1033 0.930 . S
C976 N973 1.314 . S
C976 C974 1.353 . S
C976 H1034 0.930 . S
C977 N973 1.279 . S
C977 C975 1.358 . S
C977 H1035 0.930 . S
C978 C981 1.348 . S
C978 C982 1.356 . S
C978 O1029 1.325 . S
C979 N980 1.279 . S
C979 C982 1.358 . S
C979 H1036 0.930 . S
N980 C979 1.279 . S
N980 C983 1.314 . S
C981 C978 1.348 . S
C981 C983 1.353 . S
C981 H1037 0.929 . S
C982 C978 1.356 . S
C982 C979 1.358 . S
C982 H1038 0.930 . S
C983 N980 1.314 . S
C983 C981 1.353 . S
C983 H1039 0.930 . S
C984 N985 1.314 . S
C984 C989 1.353 . S
C984 H990 0.930 . S
N985 Li968 1.990 . S
N985 C984 1.314 . S
N985 C987 1.279 . S
C986 C987 1.358 . S
C986 C988 1.356 . S
C986 H1040 0.930 . S
C987 N985 1.279 . S
C987 C986 1.358 . S
C987 H991 0.930 . S
C988 C986 1.356 . S
C988 C989 1.348 . S
C989 C984 1.353 . S
C989 C988 1.348 . S
C989 H1041 0.929 . S
H990 C984 0.930 . S
H991 C987 0.930 . S
C992 N993 1.314 . S
C992 C994 1.353 . S
C992 H998 0.930 . S
N993 Li969 1.990 . S
N993 C992 1.314 . S
N993 C996 1.279 . S
C994 C992 1.353 . S
C994 C997 1.348 . S
C994 H1042 0.929 . S
C995 C996 1.358 . S
C995 C997 1.356 . S
C995 H1043 0.930 . S
C996 N993 1.279 . S
C996 C995 1.358 . S
C996 H999 0.930 . S
C997 C994 1.348 . S
C997 C995 1.356 . S
H998 C992 0.930 . S
H999 C996 0.930 . S
C1000 C1002 1.348 . S
C1000 C1003 1.356 . S
C1000 O1030 1.325 . S
N1001 C1004 1.314 . S
N1001 C1005 1.279 . S
C1002 C1000 1.348 . S
C1002 C1004 1.353 . S
C1002 H1044 0.929 . S
C1003 C1000 1.356 . S
C1003 C1005 1.358 . S
C1003 H1045 0.930 . S
C1004 N1001 1.314 . S
C1004 C1002 1.353 . S
C1004 H1046 0.930 . S
C1005 N1001 1.279 . S
C1005 C1003 1.358 . S
C1005 H1047 0.930 . S
C1006 C1007 1.348 . S
C1006 C1008 1.356 . S
C1006 O1031 1.325 . S
C1007 C1006 1.348 . S
C1007 C1009 1.353 . S
C1007 H1048 0.929 . S
C1008 C1006 1.356 . S
C1008 C1010 1.358 . S
C1008 H1049 0.930 . S
C1009 C1007 1.353 . S
C1009 N1011 1.314 . S
C1009 H1050 0.930 . S
C1010 C1008 1.358 . S
C1010 N1011 1.279 . S
C1010 H1051 0.930 . S
N1011 C1009 1.314 . S
N1011 C1010 1.279 . S
C1012 C1014 1.353 . S
C1012 N1015 1.314 . S
C1012 H1018 0.930 . S
C1013 N1015 1.279 . S
C1013 C1016 1.358 . S
C1013 H1019 0.930 . S
C1014 C1012 1.353 . S
C1014 C1017 1.348 . S
C1014 H1052 0.929 . S
N1015 Li970 1.990 . S
N1015 C1012 1.314 . S
N1015 C1013 1.279 . S
C1016 C1013 1.358 . S
C1016 C1017 1.356 . S
C1016 H1053 0.930 . S
C1017 C1014 1.348 . S
C1017 C1016 1.356 . S
H1018 C1012 0.930 . S
H1019 C1013 0.930 . S
C1020 N1021 1.314 . S
C1020 C1022 1.353 . S
C1020 H1026 0.930 . S
N1021 Li971 1.990 . S
N1021 C1020 1.314 . S
N1021 C1024 1.279 . S
C1022 C1020 1.353 . S
C1022 C1025 1.348 . S
C1022 H1054 0.929 . S
C1023 C1024 1.358 . S
C1023 C1025 1.356 . S
C1023 H1055 0.930 . S
C1024 N1021 1.279 . S
C1024 C1023 1.358 . S
C1024 H1027 0.930 . S
C1025 C1022 1.348 . S
C1025 C1023 1.356 . S
H1026 C1020 0.930 . S
H1027 C1024 0.930 . S
O1028 Li968 1.956 . S
O1028 Li969 1.970 . S
O1028 Li970 1.961 . S
O1028 C972 1.325 . S
O1029 Li968 1.970 . S
O1029 Li969 1.956 . S
O1029 Li971 1.961 . S
O1029 C978 1.325 . S
O1030 Li968 1.961 . S
O1030 Li970 1.956 . S
O1030 Li971 1.970 . S
O1030 C1000 1.325 . S
O1031 Li969 1.961 . S
O1031 Li970 1.970 . S
O1031 Li971 1.956 . S
O1031 C1006 1.325 . S
H1032 C974 0.929 . S
H1033 C975 0.930 . S
H1034 C976 0.930 . S
H1035 C977 0.930 . S
H1036 C979 0.930 . S
H1037 C981 0.929 . S
H1038 C982 0.930 . S
H1039 C983 0.930 . S
H1040 C986 0.930 . S
H1041 C989 0.929 . S
H1042 C994 0.929 . S
H1043 C995 0.930 . S
H1044 C1002 0.929 . S
H1045 C1003 0.930 . S
H1046 C1004 0.930 . S
H1047 C1005 0.930 . S
H1048 C1007 0.929 . S
H1049 C1008 0.930 . S
H1050 C1009 0.930 . S
H1051 C1010 0.930 . S
H1052 C1014 0.929 . S
H1053 C1016 0.930 . S
H1054 C1022 0.929 . S
H1055 C1023 0.930 . S
Li1056 N1073 1.990 . S
Li1056 O1116 1.956 . S
Li1056 O1117 1.970 . S
Li1056 O1118 1.961 . S
Li1057 N1081 1.990 . S
Li1057 O1116 1.970 . S
Li1057 O1117 1.956 . S
Li1057 O1119 1.961 . S
Li1058 N1103 1.990 . S
Li1058 O1116 1.961 . S
Li1058 O1118 1.956 . S
Li1058 O1119 1.970 . S
Li1059 N1109 1.990 . S
Li1059 O1117 1.961 . S
Li1059 O1118 1.970 . S
Li1059 O1119 1.956 . S
C1060 C1062 1.348 . S
C1060 C1063 1.356 . S
C1060 O1116 1.325 . S
N1061 C1064 1.314 . S
N1061 C1065 1.279 . S
C1062 C1060 1.348 . S
C1062 C1064 1.353 . S
C1062 H1120 0.929 . S
C1063 C1060 1.356 . S
C1063 C1065 1.358 . S
C1063 H1121 0.930 . S
C1064 N1061 1.314 . S
C1064 C1062 1.353 . S
C1064 H1122 0.930 . S
C1065 N1061 1.279 . S
C1065 C1063 1.358 . S
C1065 H1123 0.930 . S
C1066 C1069 1.348 . S
C1066 C1070 1.356 . S
C1066 O1117 1.325 . S
C1067 N1068 1.279 . S
C1067 C1070 1.358 . S
C1067 H1124 0.930 . S
N1068 C1067 1.279 . S
N1068 C1071 1.314 . S
C1069 C1066 1.348 . S
C1069 C1071 1.353 . S
C1069 H1125 0.929 . S
C1070 C1066 1.356 . S
C1070 C1067 1.358 . S
C1070 H1126 0.930 . S
C1071 N1068 1.314 . S
C1071 C1069 1.353 . S
C1071 H1127 0.930 . S
C1072 N1073 1.314 . S
C1072 C1077 1.353 . S
C1072 H1078 0.930 . S
N1073 Li1056 1.990 . S
N1073 C1072 1.314 . S
N1073 C1075 1.279 . S
C1074 C1075 1.358 . S
C1074 C1076 1.356 . S
C1074 H1128 0.930 . S
C1075 N1073 1.279 . S
C1075 C1074 1.358 . S
C1075 H1079 0.930 . S
C1076 C1074 1.356 . S
C1076 C1077 1.348 . S
C1077 C1072 1.353 . S
C1077 C1076 1.348 . S
C1077 H1129 0.929 . S
H1078 C1072 0.930 . S
H1079 C1075 0.930 . S
C1080 N1081 1.314 . S
C1080 C1082 1.353 . S
C1080 H1086 0.930 . S
N1081 Li1057 1.990 . S
N1081 C1080 1.314 . S
N1081 C1084 1.279 . S
C1082 C1080 1.353 . S
C1082 C1085 1.348 . S
C1082 H1130 0.929 . S
C1083 C1084 1.358 . S
C1083 C1085 1.356 . S
C1083 H1131 0.930 . S
C1084 N1081 1.279 . S
C1084 C1083 1.358 . S
C1084 H1087 0.930 . S
C1085 C1082 1.348 . S
C1085 C1083 1.356 . S
H1086 C1080 0.930 . S
H1087 C1084 0.930 . S
C1088 C1090 1.348 . S
C1088 C1091 1.356 . S
C1088 O1118 1.325 . S
N1089 C1092 1.314 . S
N1089 C1093 1.279 . S
C1090 C1088 1.348 . S
C1090 C1092 1.353 . S
C1090 H1132 0.929 . S
C1091 C1088 1.356 . S
C1091 C1093 1.358 . S
C1091 H1133 0.930 . S
C1092 N1089 1.314 . S
C1092 C1090 1.353 . S
C1092 H1134 0.930 . S
C1093 N1089 1.279 . S
C1093 C1091 1.358 . S
C1093 H1135 0.930 . S
C1094 C1095 1.348 . S
C1094 C1096 1.356 . S
C1094 O1119 1.325 . S
C1095 C1094 1.348 . S
C1095 C1097 1.353 . S
C1095 H1136 0.929 . S
C1096 C1094 1.356 . S
C1096 C1098 1.358 . S
C1096 H1137 0.930 . S
C1097 C1095 1.353 . S
C1097 N1099 1.314 . S
C1097 H1138 0.930 . S
C1098 C1096 1.358 . S
C1098 N1099 1.279 . S
C1098 H1139 0.930 . S
N1099 C1097 1.314 . S
N1099 C1098 1.279 . S
C1100 C1102 1.353 . S
C1100 N1103 1.314 . S
C1100 H1106 0.930 . S
C1101 N1103 1.279 . S
C1101 C1104 1.358 . S
C1101 H1107 0.930 . S
C1102 C1100 1.353 . S
C1102 C1105 1.348 . S
C1102 H1140 0.929 . S
N1103 Li1058 1.990 . S
N1103 C1100 1.314 . S
N1103 C1101 1.279 . S
C1104 C1101 1.358 . S
C1104 C1105 1.356 . S
C1104 H1141 0.930 . S
C1105 C1102 1.348 . S
C1105 C1104 1.356 . S
H1106 C1100 0.930 . S
H1107 C1101 0.930 . S
C1108 N1109 1.314 . S
C1108 C1110 1.353 . S
C1108 H1114 0.930 . S
N1109 Li1059 1.990 . S
N1109 C1108 1.314 . S
N1109 C1112 1.279 . S
C1110 C1108 1.353 . S
C1110 C1113 1.348 . S
C1110 H1142 0.929 . S
C1111 C1112 1.358 . S
C1111 C1113 1.356 . S
C1111 H1143 0.930 . S
C1112 N1109 1.279 . S
C1112 C1111 1.358 . S
C1112 H1115 0.930 . S
C1113 C1110 1.348 . S
C1113 C1111 1.356 . S
H1114 C1108 0.930 . S
H1115 C1112 0.930 . S
O1116 Li1056 1.956 . S
O1116 Li1057 1.970 . S
O1116 Li1058 1.961 . S
O1116 C1060 1.325 . S
O1117 Li1056 1.970 . S
O1117 Li1057 1.956 . S
O1117 Li1059 1.961 . S
O1117 C1066 1.325 . S
O1118 Li1056 1.961 . S
O1118 Li1058 1.956 . S
O1118 Li1059 1.970 . S
O1118 C1088 1.325 . S
O1119 Li1057 1.961 . S
O1119 Li1058 1.970 . S
O1119 Li1059 1.956 . S
O1119 C1094 1.325 . S
H1120 C1062 0.929 . S
H1121 C1063 0.930 . S
H1122 C1064 0.930 . S
H1123 C1065 0.930 . S
H1124 C1067 0.930 . S
H1125 C1069 0.929 . S
H1126 C1070 0.930 . S
H1127 C1071 0.930 . S
H1128 C1074 0.930 . S
H1129 C1077 0.929 . S
H1130 C1082 0.929 . S
H1131 C1083 0.930 . S
H1132 C1090 0.929 . S
H1133 C1091 0.930 . S
H1134 C1092 0.930 . S
H1135 C1093 0.930 . S
H1136 C1095 0.929 . S
H1137 C1096 0.930 . S
H1138 C1097 0.930 . S
H1139 C1098 0.930 . S
H1140 C1102 0.929 . S
H1141 C1104 0.930 . S
H1142 C1110 0.929 . S
H1143 C1111 0.930 . S
Li1144 N1161 1.994 . S
Li1144 O1204 1.998 . S
Li1144 O1205 1.926 1_455 S
Li1144 O1206 1.958 1_455 S
Li1145 N1169 1.993 . S
Li1145 O1204 1.941 1_655 S
Li1145 O1205 1.984 . S
Li1145 O1207 1.958 1_655 S
Li1146 N1191 1.990 . S
Li1146 O1204 1.961 . S
Li1146 O1206 1.933 1_455 S
Li1146 O1207 2.005 . S
Li1147 N1197 1.990 . S
Li1147 O1205 1.961 . S
Li1147 O1206 1.992 . S
Li1147 O1207 1.919 1_655 S
C1148 C1150 1.348 . S
C1148 C1151 1.356 . S
C1148 O1204 1.325 . S
N1149 C1152 1.314 . S
N1149 C1153 1.279 . S
C1150 C1148 1.348 . S
C1150 C1152 1.353 . S
C1150 H1208 0.929 . S
C1151 C1148 1.356 . S
C1151 C1153 1.358 . S
C1151 H1209 0.930 . S
C1152 N1149 1.314 . S
C1152 C1150 1.353 . S
C1152 H1210 0.930 . S
C1153 N1149 1.279 . S
C1153 C1151 1.358 . S
C1153 H1211 0.930 . S
C1154 C1157 1.348 . S
C1154 C1158 1.356 . S
C1154 O1205 1.325 . S
C1155 N1156 1.279 . S
C1155 C1158 1.358 . S
C1155 H1212 0.930 . S
N1156 C1155 1.279 . S
N1156 C1159 1.314 . S
C1157 C1154 1.348 . S
C1157 C1159 1.353 . S
C1157 H1213 0.929 . S
C1158 C1154 1.356 . S
C1158 C1155 1.358 . S
C1158 H1214 0.930 . S
C1159 N1156 1.314 . S
C1159 C1157 1.353 . S
C1159 H1215 0.930 . S
C1160 N1161 1.314 1_655 S
C1160 C1165 1.353 . S
C1160 H1166 0.930 . S
N1161 Li1144 1.994 . S
N1161 C1160 1.314 1_455 S
N1161 C1163 1.279 . S
C1162 C1163 1.358 . S
C1162 C1164 1.356 . S
C1162 H1216 0.930 . S
C1163 N1161 1.279 . S
C1163 C1162 1.358 . S
C1163 H1167 0.930 . S
C1164 C1162 1.356 . S
C1164 C1165 1.348 1_455 S
C1165 C1160 1.353 . S
C1165 C1164 1.348 1_655 S
C1165 H1217 0.929 . S
H1166 C1160 0.930 . S
H1167 C1163 0.930 . S
C1168 N1169 1.314 1_455 S
C1168 C1170 1.353 . S
C1168 H1174 0.930 . S
N1169 Li1145 1.993 . S
N1169 C1168 1.314 1_655 S
N1169 C1172 1.279 . S
C1170 C1168 1.353 . S
C1170 C1173 1.348 . S
C1170 H1218 0.929 . S
C1171 C1172 1.358 . S
C1171 C1173 1.356 1_655 S
C1171 H1219 0.930 . S
C1172 N1169 1.279 . S
C1172 C1171 1.358 . S
C1172 H1175 0.930 . S
C1173 C1170 1.348 . S
C1173 C1171 1.356 1_455 S
H1174 C1168 0.930 . S
H1175 C1172 0.930 . S
C1176 C1178 1.348 1_455 S
C1176 C1179 1.356 . S
C1176 O1206 1.324 1_455 S
N1177 C1180 1.314 1_455 S
N1177 C1181 1.279 . S
C1178 C1176 1.348 1_655 S
C1178 C1180 1.353 . S
C1178 H1220 0.929 . S
C1179 C1176 1.356 . S
C1179 C1181 1.358 . S
C1179 H1221 0.930 . S
C1180 N1177 1.314 1_655 S
C1180 C1178 1.353 . S
C1180 H1222 0.930 . S
C1181 N1177 1.279 . S
C1181 C1179 1.358 . S
C1181 H1223 0.930 . S
C1182 C1183 1.348 . S
C1182 C1184 1.356 1_455 S
C1182 O1207 1.324 . S
C1183 C1182 1.348 . S
C1183 C1185 1.353 . S
C1183 H1224 0.929 . S
C1184 C1182 1.356 1_655 S
C1184 C1186 1.358 . S
C1184 H1225 0.930 . S
C1185 C1183 1.353 . S
C1185 N1187 1.314 1_455 S
C1185 H1226 0.930 . S
C1186 C1184 1.358 . S
C1186 N1187 1.279 . S
C1186 H1227 0.930 . S
N1187 C1185 1.314 1_655 S
N1187 C1186 1.279 . S
C1188 C1190 1.353 . S
C1188 N1191 1.314 . S
C1188 H1194 0.930 . S
C1189 N1191 1.279 . S
C1189 C1192 1.358 . S
C1189 H1195 0.930 . S
C1190 C1188 1.353 . S
C1190 C1193 1.348 . S
C1190 H1228 0.929 . S
N1191 Li1146 1.990 . S
N1191 C1188 1.314 . S
N1191 C1189 1.279 . S
C1192 C1189 1.358 . S
C1192 C1193 1.356 . S
C1192 H1229 0.930 . S
C1193 C1190 1.348 . S
C1193 C1192 1.356 . S
H1194 C1188 0.930 . S
H1195 C1189 0.930 . S
C1196 N1197 1.314 . S
C1196 C1198 1.353 . S
C1196 H1202 0.930 . S
N1197 Li1147 1.990 . S
N1197 C1196 1.314 . S
N1197 C1200 1.279 . S
C1198 C1196 1.353 . S
C1198 C1201 1.348 . S
C1198 H1230 0.929 . S
C1199 C1200 1.358 . S
C1199 C1201 1.356 . S
C1199 H1231 0.930 . S
C1200 N1197 1.279 . S
C1200 C1199 1.358 . S
C1200 H1203 0.930 . S
C1201 C1198 1.348 . S
C1201 C1199 1.356 . S
H1202 C1196 0.930 . S
H1203 C1200 0.930 . S
O1204 Li1144 1.998 . S
O1204 Li1145 1.941 1_455 S
O1204 Li1146 1.961 . S
O1204 C1148 1.325 . S
O1205 Li1144 1.926 1_655 S
O1205 Li1145 1.984 . S
O1205 Li1147 1.961 . S
O1205 C1154 1.325 . S
O1206 Li1144 1.958 1_655 S
O1206 Li1146 1.933 1_655 S
O1206 Li1147 1.992 . S
O1206 C1176 1.324 1_655 S
O1207 Li1145 1.958 1_455 S
O1207 Li1146 2.005 . S
O1207 Li1147 1.919 1_455 S
O1207 C1182 1.324 . S
H1208 C1150 0.929 . S
H1209 C1151 0.930 . S
H1210 C1152 0.930 . S
H1211 C1153 0.930 . S
H1212 C1155 0.930 . S
H1213 C1157 0.929 . S
H1214 C1158 0.930 . S
H1215 C1159 0.930 . S
H1216 C1162 0.930 . S
H1217 C1165 0.929 . S
H1218 C1170 0.929 . S
H1219 C1171 0.930 . S
H1220 C1178 0.929 . S
H1221 C1179 0.930 . S
H1222 C1180 0.930 . S
H1223 C1181 0.930 . S
H1224 C1183 0.929 . S
H1225 C1184 0.930 . S
H1226 C1185 0.930 . S
H1227 C1186 0.930 . S
H1228 C1190 0.929 . S
H1229 C1192 0.930 . S
H1230 C1198 0.929 . S
H1231 C1199 0.930 . S
Li1232 N1249 1.990 . S
Li1232 O1292 1.956 . S
Li1232 O1293 1.970 . S
Li1232 O1294 1.961 . S
Li1233 N1257 1.990 . S
Li1233 O1292 1.970 . S
Li1233 O1293 1.956 . S
Li1233 O1295 1.961 . S
Li1234 N1279 1.990 . S
Li1234 O1292 1.961 . S
Li1234 O1294 1.956 . S
Li1234 O1295 1.970 . S
Li1235 N1285 1.990 . S
Li1235 O1293 1.961 . S
Li1235 O1294 1.970 . S
Li1235 O1295 1.956 . S
C1236 C1238 1.348 . S
C1236 C1239 1.356 . S
C1236 O1292 1.325 . S
N1237 C1240 1.314 . S
N1237 C1241 1.279 . S
C1238 C1236 1.348 . S
C1238 C1240 1.353 . S
C1238 H1296 0.929 . S
C1239 C1236 1.356 . S
C1239 C1241 1.358 . S
C1239 H1297 0.930 . S
C1240 N1237 1.314 . S
C1240 C1238 1.353 . S
C1240 H1298 0.930 . S
C1241 N1237 1.279 . S
C1241 C1239 1.358 . S
C1241 H1299 0.930 . S
C1242 C1245 1.348 . S
C1242 C1246 1.356 . S
C1242 O1293 1.325 . S
C1243 N1244 1.279 . S
C1243 C1246 1.358 . S
C1243 H1300 0.930 . S
N1244 C1243 1.279 . S
N1244 C1247 1.314 . S
C1245 C1242 1.348 . S
C1245 C1247 1.353 . S
C1245 H1301 0.929 . S
C1246 C1242 1.356 . S
C1246 C1243 1.358 . S
C1246 H1302 0.930 . S
C1247 N1244 1.314 . S
C1247 C1245 1.353 . S
C1247 H1303 0.930 . S
C1248 N1249 1.314 . S
C1248 C1253 1.353 . S
C1248 H1254 0.930 . S
N1249 Li1232 1.990 . S
N1249 C1248 1.314 . S
N1249 C1251 1.279 . S
C1250 C1251 1.358 . S
C1250 C1252 1.356 . S
C1250 H1304 0.930 . S
C1251 N1249 1.279 . S
C1251 C1250 1.358 . S
C1251 H1255 0.930 . S
C1252 C1250 1.356 . S
C1252 C1253 1.348 . S
C1253 C1248 1.353 . S
C1253 C1252 1.348 . S
C1253 H1305 0.929 . S
H1254 C1248 0.930 . S
H1255 C1251 0.930 . S
C1256 N1257 1.314 . S
C1256 C1258 1.353 . S
C1256 H1262 0.930 . S
N1257 Li1233 1.990 . S
N1257 C1256 1.314 . S
N1257 C1260 1.279 . S
C1258 C1256 1.353 . S
C1258 C1261 1.348 . S
C1258 H1306 0.929 . S
C1259 C1260 1.358 . S
C1259 C1261 1.356 . S
C1259 H1307 0.930 . S
C1260 N1257 1.279 . S
C1260 C1259 1.358 . S
C1260 H1263 0.930 . S
C1261 C1258 1.348 . S
C1261 C1259 1.356 . S
H1262 C1256 0.930 . S
H1263 C1260 0.930 . S
C1264 C1266 1.348 . S
C1264 C1267 1.356 . S
C1264 O1294 1.325 . S
N1265 C1268 1.314 . S
N1265 C1269 1.279 . S
C1266 C1264 1.348 . S
C1266 C1268 1.353 . S
C1266 H1308 0.929 . S
C1267 C1264 1.356 . S
C1267 C1269 1.358 . S
C1267 H1309 0.930 . S
C1268 N1265 1.314 . S
C1268 C1266 1.353 . S
C1268 H1310 0.930 . S
C1269 N1265 1.279 . S
C1269 C1267 1.358 . S
C1269 H1311 0.930 . S
C1270 C1271 1.348 . S
C1270 C1272 1.356 . S
C1270 O1295 1.325 . S
C1271 C1270 1.348 . S
C1271 C1273 1.353 . S
C1271 H1312 0.929 . S
C1272 C1270 1.356 . S
C1272 C1274 1.358 . S
C1272 H1313 0.930 . S
C1273 C1271 1.353 . S
C1273 N1275 1.314 . S
C1273 H1314 0.930 . S
C1274 C1272 1.358 . S
C1274 N1275 1.279 . S
C1274 H1315 0.930 . S
N1275 C1273 1.314 . S
N1275 C1274 1.279 . S
C1276 C1278 1.353 . S
C1276 N1279 1.314 . S
C1276 H1282 0.930 . S
C1277 N1279 1.279 . S
C1277 C1280 1.358 . S
C1277 H1283 0.930 . S
C1278 C1276 1.353 . S
C1278 C1281 1.348 . S
C1278 H1316 0.929 . S
N1279 Li1234 1.990 . S
N1279 C1276 1.314 . S
N1279 C1277 1.279 . S
C1280 C1277 1.358 . S
C1280 C1281 1.356 . S
C1280 H1317 0.930 . S
C1281 C1278 1.348 . S
C1281 C1280 1.356 . S
H1282 C1276 0.930 . S
H1283 C1277 0.930 . S
C1284 N1285 1.314 . S
C1284 C1286 1.353 . S
C1284 H1290 0.930 . S
N1285 Li1235 1.990 . S
N1285 C1284 1.314 . S
N1285 C1288 1.279 . S
C1286 C1284 1.353 . S
C1286 C1289 1.348 . S
C1286 H1318 0.929 . S
C1287 C1288 1.358 . S
C1287 C1289 1.356 . S
C1287 H1319 0.930 . S
C1288 N1285 1.279 . S
C1288 C1287 1.358 . S
C1288 H1291 0.930 . S
C1289 C1286 1.348 . S
C1289 C1287 1.356 . S
H1290 C1284 0.930 . S
H1291 C1288 0.930 . S
O1292 Li1232 1.956 . S
O1292 Li1233 1.970 . S
O1292 Li1234 1.961 . S
O1292 C1236 1.325 . S
O1293 Li1232 1.970 . S
O1293 Li1233 1.956 . S
O1293 Li1235 1.961 . S
O1293 C1242 1.325 . S
O1294 Li1232 1.961 . S
O1294 Li1234 1.956 . S
O1294 Li1235 1.970 . S
O1294 C1264 1.325 . S
O1295 Li1233 1.961 . S
O1295 Li1234 1.970 . S
O1295 Li1235 1.956 . S
O1295 C1270 1.325 . S
H1296 C1238 0.929 . S
H1297 C1239 0.930 . S
H1298 C1240 0.930 . S
H1299 C1241 0.930 . S
H1300 C1243 0.930 . S
H1301 C1245 0.929 . S
H1302 C1246 0.930 . S
H1303 C1247 0.930 . S
H1304 C1250 0.930 . S
H1305 C1253 0.929 . S
H1306 C1258 0.929 . S
H1307 C1259 0.930 . S
H1308 C1266 0.929 . S
H1309 C1267 0.930 . S
H1310 C1268 0.930 . S
H1311 C1269 0.930 . S
H1312 C1271 0.929 . S
H1313 C1272 0.930 . S
H1314 C1273 0.930 . S
H1315 C1274 0.930 . S
H1316 C1278 0.929 . S
H1317 C1280 0.930 . S
H1318 C1286 0.929 . S
H1319 C1287 0.930 . S
Li1320 N1337 1.990 . S
Li1320 O1380 1.933 1_455 S
Li1320 O1381 2.005 . S
Li1320 O1382 1.961 . S
Li1321 N1345 1.990 . S
Li1321 O1380 1.992 . S
Li1321 O1381 1.919 1_655 S
Li1321 O1383 1.961 . S
Li1322 N1367 1.994 . S
Li1322 O1380 1.958 1_455 S
Li1322 O1382 1.998 . S
Li1322 O1383 1.926 1_455 S
Li1323 N1373 1.993 . S
Li1323 O1381 1.958 1_655 S
Li1323 O1382 1.941 1_655 S
Li1323 O1383 1.984 . S
C1324 C1326 1.348 1_455 S
C1324 C1327 1.356 . S
C1324 O1380 1.324 1_455 S
N1325 C1328 1.314 1_454 S
N1325 C1329 1.279 1_554 S
C1326 C1324 1.348 1_655 S
C1326 C1328 1.353 . S
C1326 H1384 0.929 . S
C1327 C1324 1.356 . S
C1327 C1329 1.358 . S
C1327 H1385 0.930 . S
C1328 N1325 1.314 1_656 S
C1328 C1326 1.353 . S
C1328 H1386 0.930 . S
C1329 N1325 1.279 1_556 S
C1329 C1327 1.358 . S
C1329 H1387 0.930 1_556 S
C1330 C1333 1.348 . S
C1330 C1334 1.356 1_455 S
C1330 O1381 1.324 . S
C1331 N1332 1.279 . S
C1331 C1334 1.358 . S
C1331 H1388 0.930 . S
N1332 C1331 1.279 . S
N1332 C1335 1.314 1_655 S
C1333 C1330 1.348 . S
C1333 C1335 1.353 . S
C1333 H1389 0.929 . S
C1334 C1330 1.356 1_655 S
C1334 C1331 1.358 . S
C1334 H1390 0.930 . S
C1335 N1332 1.314 1_455 S
C1335 C1333 1.353 . S
C1335 H1391 0.930 . S
C1336 N1337 1.314 . S
C1336 C1341 1.353 . S
C1336 H1342 0.930 . S
N1337 Li1320 1.990 . S
N1337 C1336 1.314 . S
N1337 C1339 1.279 . S
C1338 C1339 1.358 . S
C1338 C1340 1.356 . S
C1338 H1392 0.930 . S
C1339 N1337 1.279 . S
C1339 C1338 1.358 . S
C1339 H1343 0.930 . S
C1340 C1338 1.356 . S
C1340 C1341 1.348 . S
C1341 C1336 1.353 . S
C1341 C1340 1.348 . S
C1341 H1393 0.929 . S
H1342 C1336 0.930 . S
H1343 C1339 0.930 . S
C1344 N1345 1.314 . S
C1344 C1346 1.353 . S
C1344 H1350 0.930 . S
N1345 Li1321 1.990 . S
N1345 C1344 1.314 . S
N1345 C1348 1.279 . S
C1346 C1344 1.353 . S
C1346 C1349 1.348 . S
C1346 H1394 0.929 . S
C1347 C1348 1.358 . S
C1347 C1349 1.356 . S
C1347 H1395 0.930 . S
C1348 N1345 1.279 . S
C1348 C1347 1.358 . S
C1348 H1351 0.930 . S
C1349 C1346 1.348 . S
C1349 C1347 1.356 . S
H1350 C1344 0.930 . S
H1351 C1348 0.930 . S
C1352 C1354 1.348 . S
C1352 C1355 1.356 . S
C1352 O1382 1.325 . S
N1353 C1356 1.314 . S
N1353 C1357 1.279 . S
C1354 C1352 1.348 . S
C1354 C1356 1.353 . S
C1354 H1396 0.929 . S
C1355 C1352 1.356 . S
C1355 C1357 1.358 . S
C1355 H1397 0.930 . S
C1356 N1353 1.314 . S
C1356 C1354 1.353 . S
C1356 H1398 0.930 . S
C1357 N1353 1.279 . S
C1357 C1355 1.358 . S
C1357 H1399 0.930 . S
C1358 C1359 1.348 . S
C1358 C1360 1.356 . S
C1358 O1383 1.325 . S
C1359 C1358 1.348 . S
C1359 C1361 1.353 . S
C1359 H1400 0.929 . S
C1360 C1358 1.356 . S
C1360 C1362 1.358 . S
C1360 H1401 0.930 . S
C1361 C1359 1.353 . S
C1361 N1363 1.314 . S
C1361 H1402 0.930 . S
C1362 C1360 1.358 . S
C1362 N1363 1.279 . S
C1362 H1403 0.930 . S
N1363 C1361 1.314 . S
N1363 C1362 1.279 . S
C1364 C1366 1.353 . S
C1364 N1367 1.314 1_655 S
C1364 H1370 0.930 . S
C1365 N1367 1.279 . S
C1365 C1368 1.358 . S
C1365 H1371 0.930 . S
C1366 C1364 1.353 . S
C1366 C1369 1.348 1_655 S
C1366 H1404 0.929 1_556 S
N1367 Li1322 1.994 . S
N1367 C1364 1.314 1_455 S
N1367 C1365 1.279 . S
C1368 C1365 1.358 . S
C1368 C1369 1.356 . S
C1368 H1405 0.930 . S
C1369 C1366 1.348 1_455 S
C1369 C1368 1.356 . S
H1370 C1364 0.930 . S
H1371 C1365 0.930 . S
C1372 N1373 1.314 1_455 S
C1372 C1374 1.353 . S
C1372 H1378 0.930 . S
N1373 Li1323 1.993 . S
N1373 C1372 1.314 1_655 S
N1373 C1376 1.279 . S
C1374 C1372 1.353 . S
C1374 C1377 1.348 . S
C1374 H1406 0.929 . S
C1375 C1376 1.358 . S
C1375 C1377 1.356 1_655 S
C1375 H1407 0.930 . S
C1376 N1373 1.279 . S
C1376 C1375 1.358 . S
C1376 H1379 0.930 . S
C1377 C1374 1.348 . S
C1377 C1375 1.356 1_455 S
H1378 C1372 0.930 . S
H1379 C1376 0.930 . S
O1380 Li1320 1.933 1_655 S
O1380 Li1321 1.992 . S
O1380 Li1322 1.958 1_655 S
O1380 C1324 1.324 1_655 S
O1381 Li1320 2.005 . S
O1381 Li1321 1.919 1_455 S
O1381 Li1323 1.958 1_455 S
O1381 C1330 1.324 . S
O1382 Li1320 1.961 . S
O1382 Li1322 1.998 . S
O1382 Li1323 1.941 1_455 S
O1382 C1352 1.325 . S
O1383 Li1321 1.961 . S
O1383 Li1322 1.926 1_655 S
O1383 Li1323 1.984 . S
O1383 C1358 1.325 . S
H1384 C1326 0.929 . S
H1385 C1327 0.930 . S
H1386 C1328 0.930 . S
H1387 C1329 0.930 1_554 S
H1388 C1331 0.930 . S
H1389 C1333 0.929 . S
H1390 C1334 0.930 . S
H1391 C1335 0.930 . S
H1392 C1338 0.930 . S
H1393 C1341 0.929 . S
H1394 C1346 0.929 . S
H1395 C1347 0.930 . S
H1396 C1354 0.929 . S
H1397 C1355 0.930 . S
H1398 C1356 0.930 . S
H1399 C1357 0.930 . S
H1400 C1359 0.929 . S
H1401 C1360 0.930 . S
H1402 C1361 0.930 . S
H1403 C1362 0.930 . S
H1404 C1366 0.929 1_554 S
H1405 C1368 0.930 . S
H1406 C1374 0.929 . S
H1407 C1375 0.930 . S
C1408 C1409 1.349 . S
C1408 C1410 1.327 . S
C1408 H1433 0.950 . S
C1409 C1408 1.349 . S
C1409 C1425 1.349 . S
C1410 C1408 1.327 . S
C1410 C1429 1.429 . S
C1410 H1434 0.950 . S
C1411 C1428 1.574 . S
C1411 C1430 1.368 . S
C1411 H1435 0.949 . S
H1412 C1416 0.949 . S
C1413 C1414 1.349 . S
C1413 C1415 1.327 . S
C1413 H1436 0.950 . S
C1414 C1413 1.349 . S
C1414 C1426 1.349 . S
C1415 C1413 1.327 . S
C1415 C1431 1.429 . S
C1415 H1437 0.950 . S
C1416 H1412 0.949 . S
C1416 C1424 1.574 . S
C1416 C1432 1.368 . S
H1417 C1425 0.950 . S
H1418 C1423 0.950 . S
H1419 C1424 0.949 . S
H1420 C1426 0.950 . S
H1421 C1427 0.950 . S
H1422 C1428 0.949 . S
C1423 H1418 0.950 . S
C1423 C1425 1.327 . S
C1423 C1429 1.429 . S
C1424 C1416 1.574 . S
C1424 H1419 0.949 . S
C1424 C1430 1.368 . S
C1425 C1409 1.349 . S
C1425 H1417 0.950 . S
C1425 C1423 1.327 . S
C1426 C1414 1.349 . S
C1426 H1420 0.950 . S
C1426 C1427 1.327 . S
C1427 H1421 0.950 . S
C1427 C1426 1.327 . S
C1427 C1431 1.429 . S
C1428 C1411 1.574 . S
C1428 H1422 0.949 . S
C1428 C1432 1.368 . S
C1429 C1410 1.429 . S
C1429 C1423 1.429 . S
C1429 C1430 1.523 . S
C1430 C1411 1.368 . S
C1430 C1424 1.368 . S
C1430 C1429 1.523 . S
C1431 C1415 1.429 . S
C1431 C1427 1.429 . S
C1431 C1432 1.523 . S
C1432 C1416 1.368 . S
C1432 C1428 1.368 . S
C1432 C1431 1.523 . S
H1433 C1408 0.950 . S
H1434 C1410 0.950 . S
H1435 C1411 0.949 . S
H1436 C1413 0.950 . S
H1437 C1415 0.950 . S
C1438 C1439 1.349 . S
C1438 C1440 1.327 . S
C1438 H1463 0.950 . S
C1439 C1438 1.349 . S
C1439 C1455 1.349 . S
C1440 C1438 1.327 . S
C1440 C1459 1.429 . S
C1440 H1464 0.950 . S
C1441 C1458 1.574 . S
C1441 C1460 1.368 . S
C1441 H1465 0.949 . S
H1442 C1446 0.949 . S
C1443 C1444 1.349 . S
C1443 C1445 1.327 . S
C1443 H1466 0.950 . S
C1444 C1443 1.349 . S
C1444 C1456 1.349 . S
C1445 C1443 1.327 . S
C1445 C1461 1.429 . S
C1445 H1467 0.950 . S
C1446 H1442 0.949 . S
C1446 C1454 1.574 . S
C1446 C1462 1.368 . S
H1447 C1455 0.950 . S
H1448 C1453 0.950 . S
H1449 C1454 0.949 . S
H1450 C1456 0.950 . S
H1451 C1457 0.950 . S
H1452 C1458 0.949 . S
C1453 H1448 0.950 . S
C1453 C1455 1.327 . S
C1453 C1459 1.429 . S
C1454 C1446 1.574 . S
C1454 H1449 0.949 . S
C1454 C1460 1.368 . S
C1455 C1439 1.349 . S
C1455 H1447 0.950 . S
C1455 C1453 1.327 . S
C1456 C1444 1.349 . S
C1456 H1450 0.950 . S
C1456 C1457 1.327 . S
C1457 H1451 0.950 . S
C1457 C1456 1.327 . S
C1457 C1461 1.429 . S
C1458 C1441 1.574 . S
C1458 H1452 0.949 . S
C1458 C1462 1.368 . S
C1459 C1440 1.429 . S
C1459 C1453 1.429 . S
C1459 C1460 1.523 . S
C1460 C1441 1.368 . S
C1460 C1454 1.368 . S
C1460 C1459 1.523 . S
C1461 C1445 1.429 . S
C1461 C1457 1.429 . S
C1461 C1462 1.523 . S
C1462 C1446 1.368 . S
C1462 C1458 1.368 . S
C1462 C1461 1.523 . S
H1463 C1438 0.950 . S
H1464 C1440 0.950 . S
H1465 C1441 0.949 . S
H1466 C1443 0.950 . S
H1467 C1445 0.950 . S
C1468 C1469 1.349 . S
C1468 C1470 1.327 . S
C1468 H1493 0.950 . S
C1469 C1468 1.349 . S
C1469 C1485 1.349 . S
C1470 C1468 1.327 . S
C1470 C1489 1.429 . S
C1470 H1494 0.950 . S
C1471 C1488 1.574 . S
C1471 C1490 1.368 . S
C1471 H1495 0.949 . S
H1472 C1476 0.949 . S
C1473 C1474 1.349 . S
C1473 C1475 1.327 . S
C1473 H1496 0.950 . S
C1474 C1473 1.349 . S
C1474 C1486 1.349 . S
C1475 C1473 1.327 . S
C1475 C1491 1.429 . S
C1475 H1497 0.950 . S
C1476 H1472 0.949 . S
C1476 C1484 1.574 . S
C1476 C1492 1.368 . S
H1477 C1485 0.950 . S
H1478 C1483 0.950 . S
H1479 C1484 0.949 . S
H1480 C1486 0.950 . S
H1481 C1487 0.950 . S
H1482 C1488 0.949 . S
C1483 H1478 0.950 . S
C1483 C1485 1.327 . S
C1483 C1489 1.429 . S
C1484 C1476 1.574 . S
C1484 H1479 0.949 . S
C1484 C1490 1.368 . S
C1485 C1469 1.349 . S
C1485 H1477 0.950 . S
C1485 C1483 1.327 . S
C1486 C1474 1.349 . S
C1486 H1480 0.950 . S
C1486 C1487 1.327 . S
C1487 H1481 0.950 . S
C1487 C1486 1.327 . S
C1487 C1491 1.429 . S
C1488 C1471 1.574 . S
C1488 H1482 0.949 . S
C1488 C1492 1.368 . S
C1489 C1470 1.429 . S
C1489 C1483 1.429 . S
C1489 C1490 1.523 . S
C1490 C1471 1.368 . S
C1490 C1484 1.368 . S
C1490 C1489 1.523 . S
C1491 C1475 1.429 . S
C1491 C1487 1.429 . S
C1491 C1492 1.523 . S
C1492 C1476 1.368 . S
C1492 C1488 1.368 . S
C1492 C1491 1.523 . S
H1493 C1468 0.950 . S
H1494 C1470 0.950 . S
H1495 C1471 0.949 . S
H1496 C1473 0.950 . S
H1497 C1475 0.950 . S
C1498 C1499 1.349 1_554 S
C1498 C1500 1.327 . S
C1498 H1523 0.950 . S
C1499 C1498 1.349 1_556 S
C1499 C1515 1.349 . S
C1500 C1498 1.327 . S
C1500 C1519 1.429 1_554 S
C1500 H1524 0.950 . S
C1501 C1518 1.574 . S
C1501 C1520 1.368 . S
C1501 H1525 0.949 . S
H1502 C1506 0.949 . S
C1503 C1504 1.349 . S
C1503 C1505 1.327 . S
C1503 H1526 0.950 . S
C1504 C1503 1.349 . S
C1504 C1516 1.349 . S
C1505 C1503 1.327 . S
C1505 C1521 1.429 . S
C1505 H1527 0.950 . S
C1506 H1502 0.949 . S
C1506 C1514 1.574 . S
C1506 C1522 1.368 . S
H1507 C1515 0.950 . S
H1508 C1513 0.950 . S
H1509 C1514 0.949 . S
H1510 C1516 0.950 . S
H1511 C1517 0.950 . S
H1512 C1518 0.949 . S
C1513 H1508 0.950 . S
C1513 C1515 1.327 . S
C1513 C1519 1.429 . S
C1514 C1506 1.574 . S
C1514 H1509 0.949 . S
C1514 C1520 1.368 . S
C1515 C1499 1.349 . S
C1515 H1507 0.950 . S
C1515 C1513 1.327 . S
C1516 C1504 1.349 . S
C1516 H1510 0.950 . S
C1516 C1517 1.327 . S
C1517 H1511 0.950 . S
C1517 C1516 1.327 . S
C1517 C1521 1.429 . S
C1518 C1501 1.574 . S
C1518 H1512 0.949 . S
C1518 C1522 1.368 . S
C1519 C1500 1.429 1_556 S
C1519 C1513 1.429 . S
C1519 C1520 1.523 . S
C1520 C1501 1.368 . S
C1520 C1514 1.368 . S
C1520 C1519 1.523 . S
C1521 C1505 1.429 . S
C1521 C1517 1.429 . S
C1521 C1522 1.523 . S
C1522 C1506 1.368 . S
C1522 C1518 1.368 . S
C1522 C1521 1.523 . S
H1523 C1498 0.950 . S
H1524 C1500 0.950 . S
H1525 C1501 0.949 . S
H1526 C1503 0.950 . S
H1527 C1505 0.950 . S
C1528 C1529 1.349 . S
C1528 C1530 1.327 . S
C1528 H1553 0.950 . S
C1529 C1528 1.349 . S
C1529 C1545 1.349 . S
C1530 C1528 1.327 . S
C1530 C1549 1.429 . S
C1530 H1554 0.950 . S
C1531 C1548 1.574 . S
C1531 C1550 1.368 . S
C1531 H1555 0.949 . S
H1532 C1536 0.949 . S
C1533 C1534 1.349 1_554 S
C1533 C1535 1.327 . S
C1533 H1556 0.950 . S
C1534 C1533 1.349 1_556 S
C1534 C1546 1.349 . S
C1535 C1533 1.327 . S
C1535 C1551 1.429 1_554 S
C1535 H1557 0.950 . S
C1536 H1532 0.949 . S
C1536 C1544 1.574 . S
C1536 C1552 1.368 . S
H1537 C1545 0.950 . S
H1538 C1543 0.950 . S
H1539 C1544 0.949 . S
H1540 C1546 0.950 . S
H1541 C1547 0.950 . S
H1542 C1548 0.949 1_554 S
C1543 H1538 0.950 . S
C1543 C1545 1.327 . S
C1543 C1549 1.429 . S
C1544 C1536 1.574 . S
C1544 H1539 0.949 . S
C1544 C1550 1.368 . S
C1545 C1529 1.349 . S
C1545 H1537 0.950 . S
C1545 C1543 1.327 . S
C1546 C1534 1.349 . S
C1546 H1540 0.950 . S
C1546 C1547 1.327 . S
C1547 H1541 0.950 . S
C1547 C1546 1.327 . S
C1547 C1551 1.429 . S
C1548 C1531 1.574 . S
C1548 H1542 0.949 1_556 S
C1548 C1552 1.368 . S
C1549 C1530 1.429 . S
C1549 C1543 1.429 . S
C1549 C1550 1.523 . S
C1550 C1531 1.368 . S
C1550 C1544 1.368 . S
C1550 C1549 1.523 . S
C1551 C1535 1.429 1_556 S
C1551 C1547 1.429 . S
C1551 C1552 1.523 . S
C1552 C1536 1.368 . S
C1552 C1548 1.368 . S
C1552 C1551 1.523 . S
H1553 C1528 0.950 . S
H1554 C1530 0.950 . S
H1555 C1531 0.949 . S
H1556 C1533 0.950 . S
H1557 C1535 0.950 . S
C1558 C1559 1.349 . S
C1558 C1560 1.327 . S
C1558 H1583 0.950 . S
C1559 C1558 1.349 . S
C1559 C1575 1.349 . S
C1560 C1558 1.327 . S
C1560 C1579 1.429 . S
C1560 H1584 0.950 . S
C1561 C1578 1.574 . S
C1561 C1580 1.368 . S
C1561 H1585 0.949 . S
H1562 C1566 0.949 . S
C1563 C1564 1.349 . S
C1563 C1565 1.327 . S
C1563 H1586 0.950 . S
C1564 C1563 1.349 . S
C1564 C1576 1.349 . S
C1565 C1563 1.327 . S
C1565 C1581 1.429 . S
C1565 H1587 0.950 . S
C1566 H1562 0.949 . S
C1566 C1574 1.574 . S
C1566 C1582 1.368 . S
H1567 C1575 0.950 . S
H1568 C1573 0.950 . S
H1569 C1574 0.949 . S
H1570 C1576 0.950 . S
H1571 C1577 0.950 . S
H1572 C1578 0.949 . S
C1573 H1568 0.950 . S
C1573 C1575 1.327 . S
C1573 C1579 1.429 . S
C1574 C1566 1.574 . S
C1574 H1569 0.949 . S
C1574 C1580 1.368 . S
C1575 C1559 1.349 . S
C1575 H1567 0.950 . S
C1575 C1573 1.327 . S
C1576 C1564 1.349 . S
C1576 H1570 0.950 . S
C1576 C1577 1.327 . S
C1577 H1571 0.950 . S
C1577 C1576 1.327 . S
C1577 C1581 1.429 . S
C1578 C1561 1.574 . S
C1578 H1572 0.949 . S
C1578 C1582 1.368 . S
C1579 C1560 1.429 . S
C1579 C1573 1.429 . S
C1579 C1580 1.523 . S
C1580 C1561 1.368 . S
C1580 C1574 1.368 . S
C1580 C1579 1.523 . S
C1581 C1565 1.429 . S
C1581 C1577 1.429 . S
C1581 C1582 1.523 . S
C1582 C1566 1.368 . S
C1582 C1578 1.368 . S
C1582 C1581 1.523 . S
H1583 C1558 0.950 . S
H1584 C1560 0.950 . S
H1585 C1561 0.949 . S
H1586 C1563 0.950 . S
H1587 C1565 0.950 . S
C1588 C1589 1.349 . S
C1588 C1590 1.327 . S
C1588 H1613 0.950 . S
C1589 C1588 1.349 . S
C1589 C1605 1.349 . S
C1590 C1588 1.327 . S
C1590 C1609 1.429 . S
C1590 H1614 0.950 . S
C1591 C1608 1.574 . S
C1591 C1610 1.368 . S
C1591 H1615 0.949 . S
H1592 C1596 0.949 . S
C1593 C1594 1.349 . S
C1593 C1595 1.327 . S
C1593 H1616 0.950 . S
C1594 C1593 1.349 . S
C1594 C1606 1.349 . S
C1595 C1593 1.327 . S
C1595 C1611 1.429 . S
C1595 H1617 0.950 . S
C1596 H1592 0.949 . S
C1596 C1604 1.574 . S
C1596 C1612 1.368 . S
H1597 C1605 0.950 . S
H1598 C1603 0.950 . S
H1599 C1604 0.949 . S
H1600 C1606 0.950 . S
H1601 C1607 0.950 . S
H1602 C1608 0.949 . S
C1603 H1598 0.950 . S
C1603 C1605 1.327 . S
C1603 C1609 1.429 . S
C1604 C1596 1.574 . S
C1604 H1599 0.949 . S
C1604 C1610 1.368 . S
C1605 C1589 1.349 . S
C1605 H1597 0.950 . S
C1605 C1603 1.327 . S
C1606 C1594 1.349 . S
C1606 H1600 0.950 . S
C1606 C1607 1.327 . S
C1607 H1601 0.950 . S
C1607 C1606 1.327 . S
C1607 C1611 1.429 . S
C1608 C1591 1.574 . S
C1608 H1602 0.949 . S
C1608 C1612 1.368 . S
C1609 C1590 1.429 . S
C1609 C1603 1.429 . S
C1609 C1610 1.523 . S
C1610 C1591 1.368 . S
C1610 C1604 1.368 . S
C1610 C1609 1.523 . S
C1611 C1595 1.429 . S
C1611 C1607 1.429 . S
C1611 C1612 1.523 . S
C1612 C1596 1.368 . S
C1612 C1608 1.368 . S
C1612 C1611 1.523 . S
H1613 C1588 0.950 . S
H1614 C1590 0.950 . S
H1615 C1591 0.949 . S
H1616 C1593 0.950 . S
H1617 C1595 0.950 . S
C1618 C1619 1.349 . S
C1618 C1620 1.327 . S
C1618 H1643 0.950 . S
C1619 C1618 1.349 . S
C1619 C1635 1.349 . S
C1620 C1618 1.327 . S
C1620 C1639 1.429 . S
C1620 H1644 0.950 . S
C1621 C1638 1.574 . S
C1621 C1640 1.368 . S
C1621 H1645 0.949 . S
H1622 C1626 0.949 . S
C1623 C1624 1.349 . S
C1623 C1625 1.327 . S
C1623 H1646 0.950 . S
C1624 C1623 1.349 . S
C1624 C1636 1.349 . S
C1625 C1623 1.327 . S
C1625 C1641 1.429 . S
C1625 H1647 0.950 . S
C1626 H1622 0.949 . S
C1626 C1634 1.574 . S
C1626 C1642 1.368 . S
H1627 C1635 0.950 . S
H1628 C1633 0.950 . S
H1629 C1634 0.949 . S
H1630 C1636 0.950 . S
H1631 C1637 0.950 . S
H1632 C1638 0.949 . S
C1633 H1628 0.950 . S
C1633 C1635 1.327 . S
C1633 C1639 1.429 . S
C1634 C1626 1.574 . S
C1634 H1629 0.949 . S
C1634 C1640 1.368 . S
C1635 C1619 1.349 . S
C1635 H1627 0.950 . S
C1635 C1633 1.327 . S
C1636 C1624 1.349 . S
C1636 H1630 0.950 . S
C1636 C1637 1.327 . S
C1637 H1631 0.950 . S
C1637 C1636 1.327 . S
C1637 C1641 1.429 . S
C1638 C1621 1.574 . S
C1638 H1632 0.949 . S
C1638 C1642 1.368 . S
C1639 C1620 1.429 . S
C1639 C1633 1.429 . S
C1639 C1640 1.523 . S
C1640 C1621 1.368 . S
C1640 C1634 1.368 . S
C1640 C1639 1.523 . S
C1641 C1625 1.429 . S
C1641 C1637 1.429 . S
C1641 C1642 1.523 . S
C1642 C1626 1.368 . S
C1642 C1638 1.368 . S
C1642 C1641 1.523 . S
H1643 C1618 0.950 . S
H1644 C1620 0.950 . S
H1645 C1621 0.949 . S
H1646 C1623 0.950 . S
H1647 C1625 0.950 . S
C1648 C1649 1.349 . S
C1648 C1650 1.327 . S
C1648 H1673 0.950 . S
C1649 C1648 1.349 . S
C1649 C1665 1.349 . S
C1650 C1648 1.327 . S
C1650 C1669 1.429 . S
C1650 H1674 0.950 . S
C1651 C1668 1.574 . S
C1651 C1670 1.368 . S
C1651 H1675 0.949 . S
H1652 C1656 0.949 . S
C1653 C1654 1.349 1_554 S
C1653 C1655 1.337 . S
C1653 H1676 0.950 . S
C1654 C1653 1.349 1_556 S
C1654 C1666 1.349 . S
C1655 C1653 1.337 . S
C1655 C1671 1.405 1_554 S
C1655 H1677 0.964 . S
C1656 H1652 0.949 . S
C1656 C1664 1.574 . S
C1656 C1672 1.368 . S
H1657 C1665 0.950 . S
H1658 C1663 0.950 . S
H1659 C1664 0.949 . S
H1660 C1666 0.950 . S
H1661 C1667 0.950 . S
H1662 C1668 0.949 . S
C1663 H1658 0.950 . S
C1663 C1665 1.327 . S
C1663 C1669 1.429 . S
C1664 C1656 1.574 . S
C1664 H1659 0.949 . S
C1664 C1670 1.368 . S
C1665 C1649 1.349 . S
C1665 H1657 0.950 . S
C1665 C1663 1.327 . S
C1666 C1654 1.349 . S
C1666 H1660 0.950 . S
C1666 C1667 1.327 . S
C1667 H1661 0.950 . S
C1667 C1666 1.327 . S
C1667 C1671 1.429 . S
C1668 C1651 1.574 . S
C1668 H1662 0.949 . S
C1668 C1672 1.368 . S
C1669 C1650 1.429 . S
C1669 C1663 1.429 . S
C1669 C1670 1.523 . S
C1670 C1651 1.368 . S
C1670 C1664 1.368 . S
C1670 C1669 1.523 . S
C1671 C1655 1.405 1_556 S
C1671 C1667 1.429 . S
C1671 C1672 1.523 . S
C1672 C1656 1.368 . S
C1672 C1668 1.368 . S
C1672 C1671 1.523 . S
H1673 C1648 0.950 . S
H1674 C1650 0.950 . S
H1675 C1651 0.949 . S
H1676 C1653 0.950 . S
H1677 C1655 0.964 . S
C1678 C1679 1.349 . S
C1678 C1680 1.327 . S
C1678 H1703 0.950 . S
C1679 C1678 1.349 . S
C1679 C1695 1.349 . S
C1680 C1678 1.327 . S
C1680 C1699 1.429 . S
C1680 H1704 0.950 . S
C1681 C1698 1.574 . S
C1681 C1700 1.368 . S
C1681 H1705 0.949 . S
H1682 C1686 0.949 . S
C1683 C1684 1.349 . S
C1683 C1685 1.327 . S
C1683 H1706 0.950 . S
C1684 C1683 1.349 . S
C1684 C1696 1.349 . S
C1685 C1683 1.327 . S
C1685 C1701 1.429 . S
C1685 H1707 0.950 . S
C1686 H1682 0.949 . S
C1686 C1694 1.574 . S
C1686 C1702 1.368 . S
H1687 C1695 0.950 . S
H1688 C1693 0.950 . S
H1689 C1694 0.949 . S
H1690 C1696 0.950 . S
H1691 C1697 0.950 . S
H1692 C1698 0.949 . S
C1693 H1688 0.950 . S
C1693 C1695 1.327 . S
C1693 C1699 1.429 . S
C1694 C1686 1.574 . S
C1694 H1689 0.949 . S
C1694 C1700 1.368 . S
C1695 C1679 1.349 . S
C1695 H1687 0.950 . S
C1695 C1693 1.327 . S
C1696 C1684 1.349 . S
C1696 H1690 0.950 . S
C1696 C1697 1.327 . S
C1697 H1691 0.950 . S
C1697 C1696 1.327 . S
C1697 C1701 1.429 . S
C1698 C1681 1.574 . S
C1698 H1692 0.949 . S
C1698 C1702 1.368 . S
C1699 C1680 1.429 . S
C1699 C1693 1.429 . S
C1699 C1700 1.523 . S
C1700 C1681 1.368 . S
C1700 C1694 1.368 . S
C1700 C1699 1.523 . S
C1701 C1685 1.429 . S
C1701 C1697 1.429 . S
C1701 C1702 1.523 . S
C1702 C1686 1.368 . S
C1702 C1698 1.368 . S
C1702 C1701 1.523 . S
H1703 C1678 0.950 . S
H1704 C1680 0.950 . S
H1705 C1681 0.949 . S
H1706 C1683 0.950 . S
H1707 C1685 0.950 . S
C1708 C1709 1.349 . S
C1708 C1710 1.327 . S
C1708 H1733 0.950 . S
C1709 C1708 1.349 . S
C1709 C1725 1.349 . S
C1710 C1708 1.327 . S
C1710 C1729 1.429 . S
C1710 H1734 0.950 . S
C1711 C1728 1.574 . S
C1711 C1730 1.368 . S
C1711 H1735 0.949 . S
H1712 C1716 0.949 . S
C1713 C1714 1.349 . S
C1713 C1715 1.327 . S
C1713 H1736 0.950 . S
C1714 C1713 1.349 . S
C1714 C1726 1.349 . S
C1715 C1713 1.327 . S
C1715 C1731 1.429 . S
C1715 H1737 0.950 . S
C1716 H1712 0.949 . S
C1716 C1724 1.574 . S
C1716 C1732 1.368 . S
H1717 C1725 0.950 . S
H1718 C1723 0.950 . S
H1719 C1724 0.949 . S
H1720 C1726 0.950 . S
H1721 C1727 0.950 . S
H1722 C1728 0.949 . S
C1723 H1718 0.950 . S
C1723 C1725 1.327 . S
C1723 C1729 1.429 . S
C1724 C1716 1.574 . S
C1724 H1719 0.949 . S
C1724 C1730 1.368 . S
C1725 C1709 1.349 . S
C1725 H1717 0.950 . S
C1725 C1723 1.327 . S
C1726 C1714 1.349 . S
C1726 H1720 0.950 . S
C1726 C1727 1.327 . S
C1727 H1721 0.950 . S
C1727 C1726 1.327 . S
C1727 C1731 1.429 . S
C1728 C1711 1.574 . S
C1728 H1722 0.949 . S
C1728 C1732 1.368 . S
C1729 C1710 1.429 . S
C1729 C1723 1.429 . S
C1729 C1730 1.523 . S
C1730 C1711 1.368 . S
C1730 C1724 1.368 . S
C1730 C1729 1.523 . S
C1731 C1715 1.429 . S
C1731 C1727 1.429 . S
C1731 C1732 1.523 . S
C1732 C1716 1.368 . S
C1732 C1728 1.368 . S
C1732 C1731 1.523 . S
H1733 C1708 0.950 . S
H1734 C1710 0.950 . S
H1735 C1711 0.949 . S
H1736 C1713 0.950 . S
H1737 C1715 0.950 . S
C1738 C1739 1.349 . S
C1738 C1740 1.327 . S
C1738 H1763 0.950 . S
C1739 C1738 1.349 . S
C1739 C1755 1.349 . S
C1740 C1738 1.327 . S
C1740 C1759 1.429 . S
C1740 H1764 0.950 . S
C1741 C1758 1.574 . S
C1741 C1760 1.368 . S
C1741 H1765 0.949 . S
H1742 C1746 0.949 . S
C1743 C1744 1.349 . S
C1743 C1745 1.327 . S
C1743 H1766 0.950 . S
C1744 C1743 1.349 . S
C1744 C1756 1.349 . S
C1745 C1743 1.327 . S
C1745 C1761 1.429 . S
C1745 H1767 0.950 . S
C1746 H1742 0.949 . S
C1746 C1754 1.574 . S
C1746 C1762 1.368 . S
H1747 C1755 0.950 . S
H1748 C1753 0.950 . S
H1749 C1754 0.949 . S
H1750 C1756 0.950 . S
H1751 C1757 0.950 . S
H1752 C1758 0.949 . S
C1753 H1748 0.950 . S
C1753 C1755 1.327 . S
C1753 C1759 1.429 . S
C1754 C1746 1.574 . S
C1754 H1749 0.949 . S
C1754 C1760 1.368 . S
C1755 C1739 1.349 . S
C1755 H1747 0.950 . S
C1755 C1753 1.327 . S
C1756 C1744 1.349 . S
C1756 H1750 0.950 . S
C1756 C1757 1.327 . S
C1757 H1751 0.950 . S
C1757 C1756 1.327 . S
C1757 C1761 1.429 . S
C1758 C1741 1.574 . S
C1758 H1752 0.949 . S
C1758 C1762 1.368 . S
C1759 C1740 1.429 . S
C1759 C1753 1.429 . S
C1759 C1760 1.523 . S
C1760 C1741 1.368 . S
C1760 C1754 1.368 . S
C1760 C1759 1.523 . S
C1761 C1745 1.429 . S
C1761 C1757 1.429 . S
C1761 C1762 1.523 . S
C1762 C1746 1.368 . S
C1762 C1758 1.368 . S
C1762 C1761 1.523 . S
H1763 C1738 0.950 . S
H1764 C1740 0.950 . S
H1765 C1741 0.949 . S
H1766 C1743 0.950 . S
H1767 C1745 0.950 . S
C1768 C1769 1.349 . S
C1768 C1770 1.327 . S
C1768 H1793 0.950 . S
C1769 C1768 1.349 . S
C1769 C1785 1.349 . S
C1770 C1768 1.327 . S
C1770 C1789 1.429 . S
C1770 H1794 0.950 . S
C1771 C1788 1.574 . S
C1771 C1790 1.368 . S
C1771 H1795 0.949 . S
H1772 C1776 0.949 . S
C1773 C1774 1.349 . S
C1773 C1775 1.327 . S
C1773 H1796 0.950 . S
C1774 C1773 1.349 . S
C1774 C1786 1.349 . S
C1775 C1773 1.327 . S
C1775 C1791 1.429 . S
C1775 H1797 0.950 . S
C1776 H1772 0.949 . S
C1776 C1784 1.574 . S
C1776 C1792 1.368 . S
H1777 C1785 0.950 . S
H1778 C1783 0.950 . S
H1779 C1784 0.949 . S
H1780 C1786 0.950 . S
H1781 C1787 0.950 . S
H1782 C1788 0.949 . S
C1783 H1778 0.950 . S
C1783 C1785 1.327 . S
C1783 C1789 1.429 . S
C1784 C1776 1.574 . S
C1784 H1779 0.949 . S
C1784 C1790 1.368 . S
C1785 C1769 1.349 . S
C1785 H1777 0.950 . S
C1785 C1783 1.327 . S
C1786 C1774 1.349 . S
C1786 H1780 0.950 . S
C1786 C1787 1.327 . S
C1787 H1781 0.950 . S
C1787 C1786 1.327 . S
C1787 C1791 1.429 . S
C1788 C1771 1.574 . S
C1788 H1782 0.949 . S
C1788 C1792 1.368 . S
C1789 C1770 1.429 . S
C1789 C1783 1.429 . S
C1789 C1790 1.523 . S
C1790 C1771 1.368 . S
C1790 C1784 1.368 . S
C1790 C1789 1.523 . S
C1791 C1775 1.429 . S
C1791 C1787 1.429 . S
C1791 C1792 1.523 . S
C1792 C1776 1.368 . S
C1792 C1788 1.368 . S
C1792 C1791 1.523 . S
H1793 C1768 0.950 . S
H1794 C1770 0.950 . S
H1795 C1771 0.949 . S
H1796 C1773 0.950 . S
H1797 C1775 0.950 . S
C1798 C1799 1.349 . S
C1798 C1800 1.327 . S
C1798 H1823 0.950 . S
C1799 C1798 1.349 . S
C1799 C1815 1.349 . S
C1800 C1798 1.327 . S
C1800 C1819 1.429 . S
C1800 H1824 0.950 . S
C1801 C1818 1.574 . S
C1801 C1820 1.368 . S
C1801 H1825 0.949 . S
H1802 C1806 0.949 1_554 S
C1803 C1804 1.349 . S
C1803 C1805 1.327 . S
C1803 H1826 0.950 . S
C1804 C1803 1.349 . S
C1804 C1816 1.349 1_556 S
C1805 C1803 1.327 . S
C1805 C1821 1.429 . S
C1805 H1827 0.950 . S
C1806 H1802 0.949 1_556 S
C1806 C1814 1.574 . S
C1806 C1822 1.368 . S
H1807 C1815 0.950 . S
H1808 C1813 0.950 . S
H1809 C1814 0.949 . S
H1810 C1816 0.950 . S
H1811 C1817 0.950 . S
H1812 C1818 0.949 . S
C1813 H1808 0.950 . S
C1813 C1815 1.327 . S
C1813 C1819 1.429 . S
C1814 C1806 1.574 . S
C1814 H1809 0.949 . S
C1814 C1820 1.368 . S
C1815 C1799 1.349 . S
C1815 H1807 0.950 . S
C1815 C1813 1.327 . S
C1816 C1804 1.349 1_554 S
C1816 H1810 0.950 . S
C1816 C1817 1.327 . S
C1817 H1811 0.950 . S
C1817 C1816 1.327 . S
C1817 C1821 1.429 1_554 S
C1818 C1801 1.574 . S
C1818 H1812 0.949 . S
C1818 C1822 1.368 . S
C1819 C1800 1.429 . S
C1819 C1813 1.429 . S
C1819 C1820 1.523 . S
C1820 C1801 1.368 . S
C1820 C1814 1.368 . S
C1820 C1819 1.523 . S
C1821 C1805 1.429 . S
C1821 C1817 1.429 1_556 S
C1821 C1822 1.523 . S
C1822 C1806 1.368 . S
C1822 C1818 1.368 . S
C1822 C1821 1.523 . S
H1823 C1798 0.950 . S
H1824 C1800 0.950 . S
H1825 C1801 0.949 . S
H1826 C1803 0.950 . S
H1827 C1805 0.950 . S
C1828 C1829 1.349 . S
C1828 C1830 1.327 . S
C1828 H1853 0.950 . S
C1829 C1828 1.349 . S
C1829 C1845 1.349 . S
C1830 C1828 1.327 . S
C1830 C1849 1.429 . S
C1830 H1854 0.950 . S
C1831 C1848 1.574 . S
C1831 C1850 1.368 . S
C1831 H1855 0.949 . S
H1832 C1836 0.949 . S
C1833 C1834 1.349 . S
C1833 C1835 1.327 . S
C1833 H1856 0.950 . S
C1834 C1833 1.349 . S
C1834 C1846 1.349 . S
C1835 C1833 1.327 . S
C1835 C1851 1.429 . S
C1835 H1857 0.950 . S
C1836 H1832 0.949 . S
C1836 C1844 1.574 . S
C1836 C1852 1.368 . S
H1837 C1845 0.950 . S
H1838 C1843 0.950 . S
H1839 C1844 0.949 . S
H1840 C1846 0.950 . S
H1841 C1847 0.950 . S
H1842 C1848 0.949 . S
C1843 H1838 0.950 . S
C1843 C1845 1.327 . S
C1843 C1849 1.429 . S
C1844 C1836 1.574 . S
C1844 H1839 0.949 . S
C1844 C1850 1.368 . S
C1845 C1829 1.349 . S
C1845 H1837 0.950 . S
C1845 C1843 1.327 . S
C1846 C1834 1.349 . S
C1846 H1840 0.950 . S
C1846 C1847 1.327 . S
C1847 H1841 0.950 . S
C1847 C1846 1.327 . S
C1847 C1851 1.429 . S
C1848 C1831 1.574 . S
C1848 H1842 0.949 . S
C1848 C1852 1.368 . S
C1849 C1830 1.429 . S
C1849 C1843 1.429 . S
C1849 C1850 1.523 . S
C1850 C1831 1.368 . S
C1850 C1844 1.368 . S
C1850 C1849 1.523 . S
C1851 C1835 1.429 . S
C1851 C1847 1.429 . S
C1851 C1852 1.523 . S
C1852 C1836 1.368 . S
C1852 C1848 1.368 . S
C1852 C1851 1.523 . S
H1853 C1828 0.950 . S
H1854 C1830 0.950 . S
H1855 C1831 0.949 . S
H1856 C1833 0.950 . S
H1857 C1835 0.950 . S
C1858 C1859 1.349 . S
C1858 C1860 1.327 . S
C1858 H1883 0.950 . S
C1859 C1858 1.349 . S
C1859 C1875 1.349 . S
C1860 C1858 1.327 . S
C1860 C1879 1.429 . S
C1860 H1884 0.950 . S
C1861 C1878 1.574 . S
C1861 C1880 1.368 . S
C1861 H1885 0.949 . S
H1862 C1866 0.949 . S
C1863 C1864 1.349 . S
C1863 C1865 1.327 . S
C1863 H1886 0.950 . S
C1864 C1863 1.349 . S
C1864 C1876 1.349 . S
C1865 C1863 1.327 . S
C1865 C1881 1.429 . S
C1865 H1887 0.950 . S
C1866 H1862 0.949 . S
C1866 C1874 1.574 . S
C1866 C1882 1.368 . S
H1867 C1875 0.950 . S
H1868 C1873 0.950 . S
H1869 C1874 0.949 . S
H1870 C1876 0.950 . S
H1871 C1877 0.950 . S
H1872 C1878 0.949 . S
C1873 H1868 0.950 . S
C1873 C1875 1.327 . S
C1873 C1879 1.429 . S
C1874 C1866 1.574 . S
C1874 H1869 0.949 . S
C1874 C1880 1.368 . S
C1875 C1859 1.349 . S
C1875 H1867 0.950 . S
C1875 C1873 1.327 . S
C1876 C1864 1.349 . S
C1876 H1870 0.950 . S
C1876 C1877 1.327 . S
C1877 H1871 0.950 . S
C1877 C1876 1.327 . S
C1877 C1881 1.429 . S
C1878 C1861 1.574 . S
C1878 H1872 0.949 . S
C1878 C1882 1.368 . S
C1879 C1860 1.429 . S
C1879 C1873 1.429 . S
C1879 C1880 1.523 . S
C1880 C1861 1.368 . S
C1880 C1874 1.368 . S
C1880 C1879 1.523 . S
C1881 C1865 1.429 . S
C1881 C1877 1.429 . S
C1881 C1882 1.523 . S
C1882 C1866 1.368 . S
C1882 C1878 1.368 . S
C1882 C1881 1.523 . S
H1883 C1858 0.950 . S
H1884 C1860 0.950 . S
H1885 C1861 0.949 . S
H1886 C1863 0.950 . S
H1887 C1865 0.950 . S
C1888 C1889 1.336 1_655 S
C1888 C1890 1.327 . S
C1888 H1913 0.950 . S
C1889 C1888 1.336 1_455 S
C1889 C1905 1.363 . S
C1890 C1888 1.327 . S
C1890 C1909 1.416 1_655 S
C1890 H1914 0.950 . S
C1891 C1908 1.574 . S
C1891 C1910 1.383 . S
C1891 H1915 0.949 . S
H1892 C1896 0.949 . S
C1893 C1894 1.363 . S
C1893 C1895 1.327 . S
C1893 H1916 0.950 . S
C1894 C1893 1.363 . S
C1894 C1906 1.335 1_455 S
C1895 C1893 1.327 . S
C1895 C1911 1.442 1_556 S
C1895 H1917 0.950 . S
C1896 H1892 0.949 . S
C1896 C1904 1.574 . S
C1896 C1912 1.354 1_655 S
H1897 C1905 0.950 . S
H1898 C1903 0.950 . S
H1899 C1904 0.949 . S
H1900 C1906 0.950 . S
H1901 C1907 0.950 . S
H1902 C1908 0.949 . S
C1903 H1898 0.950 . S
C1903 C1905 1.327 . S
C1903 C1909 1.442 . S
C1904 C1896 1.574 . S
C1904 H1899 0.949 . S
C1904 C1910 1.354 1_655 S
C1905 C1889 1.363 . S
C1905 H1897 0.950 . S
C1905 C1903 1.327 . S
C1906 C1894 1.335 1_655 S
C1906 H1900 0.950 . S
C1906 C1907 1.327 1_556 S
C1907 H1901 0.950 . S
C1907 C1906 1.327 1_554 S
C1907 C1911 1.416 1_655 S
C1908 C1891 1.574 . S
C1908 H1902 0.949 . S
C1908 C1912 1.383 . S
C1909 C1890 1.416 1_455 S
C1909 C1903 1.442 . S
C1909 C1910 1.523 . S
C1910 C1891 1.383 . S
C1910 C1904 1.354 1_455 S
C1910 C1909 1.523 . S
C1911 C1895 1.442 1_554 S
C1911 C1907 1.416 1_455 S
C1911 C1912 1.523 . S
C1912 C1896 1.354 1_455 S
C1912 C1908 1.383 . S
C1912 C1911 1.523 . S
H1913 C1888 0.950 . S
H1914 C1890 0.950 . S
H1915 C1891 0.949 . S
H1916 C1893 0.950 . S
H1917 C1895 0.950 . S
C1918 C1919 1.349 . S
C1918 C1920 1.327 . S
C1918 H1943 0.950 . S
C1919 C1918 1.349 . S
C1919 C1935 1.349 . S
C1920 C1918 1.327 . S
C1920 C1939 1.429 . S
C1920 H1944 0.950 . S
C1921 C1938 1.574 . S
C1921 C1940 1.368 . S
C1921 H1945 0.949 . S
H1922 C1926 0.949 . S
C1923 C1924 1.349 . S
C1923 C1925 1.327 . S
C1923 H1946 0.950 . S
C1924 C1923 1.349 . S
C1924 C1936 1.349 . S
C1925 C1923 1.327 . S
C1925 C1941 1.429 . S
C1925 H1947 0.950 . S
C1926 H1922 0.949 . S
C1926 C1934 1.574 . S
C1926 C1942 1.368 . S
H1927 C1935 0.950 . S
H1928 C1933 0.950 . S
H1929 C1934 0.949 . S
H1930 C1936 0.950 . S
H1931 C1937 0.950 . S
H1932 C1938 0.949 . S
C1933 H1928 0.950 . S
C1933 C1935 1.327 . S
C1933 C1939 1.429 . S
C1934 C1926 1.574 . S
C1934 H1929 0.949 . S
C1934 C1940 1.368 . S
C1935 C1919 1.349 . S
C1935 H1927 0.950 . S
C1935 C1933 1.327 . S
C1936 C1924 1.349 . S
C1936 H1930 0.950 . S
C1936 C1937 1.327 . S
C1937 H1931 0.950 . S
C1937 C1936 1.327 . S
C1937 C1941 1.429 . S
C1938 C1921 1.574 . S
C1938 H1932 0.949 . S
C1938 C1942 1.368 . S
C1939 C1920 1.429 . S
C1939 C1933 1.429 . S
C1939 C1940 1.523 . S
C1940 C1921 1.368 . S
C1940 C1934 1.368 . S
C1940 C1939 1.523 . S
C1941 C1925 1.429 . S
C1941 C1937 1.429 . S
C1941 C1942 1.523 . S
C1942 C1926 1.368 . S
C1942 C1938 1.368 . S
C1942 C1941 1.523 . S
H1943 C1918 0.950 . S
H1944 C1920 0.950 . S
H1945 C1921 0.949 . S
H1946 C1923 0.950 . S
H1947 C1925 0.950 . S
C1948 C1949 1.349 . S
C1948 C1950 1.327 . S
C1948 H1973 0.950 . S
C1949 C1948 1.349 . S
C1949 C1965 1.349 . S
C1950 C1948 1.327 . S
C1950 C1969 1.429 . S
C1950 H1974 0.950 . S
C1951 C1968 1.574 . S
C1951 C1970 1.368 . S
C1951 H1975 0.949 . S
H1952 C1956 0.949 . S
C1953 C1954 1.349 . S
C1953 C1955 1.327 . S
C1953 H1976 0.950 . S
C1954 C1953 1.349 . S
C1954 C1966 1.349 . S
C1955 C1953 1.327 . S
C1955 C1971 1.429 . S
C1955 H1977 0.950 . S
C1956 H1952 0.949 . S
C1956 C1964 1.574 . S
C1956 C1972 1.368 . S
H1957 C1965 0.950 . S
H1958 C1963 0.950 . S
H1959 C1964 0.949 . S
H1960 C1966 0.950 . S
H1961 C1967 0.950 . S
H1962 C1968 0.949 . S
C1963 H1958 0.950 . S
C1963 C1965 1.327 . S
C1963 C1969 1.429 . S
C1964 C1956 1.574 . S
C1964 H1959 0.949 . S
C1964 C1970 1.368 . S
C1965 C1949 1.349 . S
C1965 H1957 0.950 . S
C1965 C1963 1.327 . S
C1966 C1954 1.349 . S
C1966 H1960 0.950 . S
C1966 C1967 1.327 . S
C1967 H1961 0.950 . S
C1967 C1966 1.327 . S
C1967 C1971 1.429 . S
C1968 C1951 1.574 . S
C1968 H1962 0.949 . S
C1968 C1972 1.368 . S
C1969 C1950 1.429 . S
C1969 C1963 1.429 . S
C1969 C1970 1.523 . S
C1970 C1951 1.368 . S
C1970 C1964 1.368 . S
C1970 C1969 1.523 . S
C1971 C1955 1.429 . S
C1971 C1967 1.429 . S
C1971 C1972 1.523 . S
C1972 C1956 1.368 . S
C1972 C1968 1.368 . S
C1972 C1971 1.523 . S
H1973 C1948 0.950 . S
H1974 C1950 0.950 . S
H1975 C1951 0.949 . S
H1976 C1953 0.950 . S
H1977 C1955 0.950 . S
C1978 C1979 1.349 . S
C1978 C1980 1.327 . S
C1978 H2003 0.950 . S
C1979 C1978 1.349 . S
C1979 C1995 1.349 . S
C1980 C1978 1.327 . S
C1980 C1999 1.429 . S
C1980 H2004 0.950 . S
C1981 C1998 1.574 . S
C1981 C2000 1.368 . S
C1981 H2005 0.949 . S
H1982 C1986 0.949 . S
C1983 C1984 1.349 . S
C1983 C1985 1.327 . S
C1983 H2006 0.950 . S
C1984 C1983 1.349 . S
C1984 C1996 1.349 . S
C1985 C1983 1.327 . S
C1985 C2001 1.429 . S
C1985 H2007 0.950 . S
C1986 H1982 0.949 . S
C1986 C1994 1.574 . S
C1986 C2002 1.368 . S
H1987 C1995 0.950 . S
H1988 C1993 0.950 . S
H1989 C1994 0.949 . S
H1990 C1996 0.950 . S
H1991 C1997 0.950 . S
H1992 C1998 0.949 . S
C1993 H1988 0.950 . S
C1993 C1995 1.327 . S
C1993 C1999 1.429 . S
C1994 C1986 1.574 . S
C1994 H1989 0.949 . S
C1994 C2000 1.368 . S
C1995 C1979 1.349 . S
C1995 H1987 0.950 . S
C1995 C1993 1.327 . S
C1996 C1984 1.349 . S
C1996 H1990 0.950 . S
C1996 C1997 1.327 . S
C1997 H1991 0.950 . S
C1997 C1996 1.327 . S
C1997 C2001 1.429 . S
C1998 C1981 1.574 . S
C1998 H1992 0.949 . S
C1998 C2002 1.368 . S
C1999 C1980 1.429 . S
C1999 C1993 1.429 . S
C1999 C2000 1.523 . S
C2000 C1981 1.368 . S
C2000 C1994 1.368 . S
C2000 C1999 1.523 . S
C2001 C1985 1.429 . S
C2001 C1997 1.429 . S
C2001 C2002 1.523 . S
C2002 C1986 1.368 . S
C2002 C1998 1.368 . S
C2002 C2001 1.523 . S
H2003 C1978 0.950 . S
H2004 C1980 0.950 . S
H2005 C1981 0.949 . S
H2006 C1983 0.950 . S
H2007 C1985 0.950 . S
C2008 C2009 1.349 . S
C2008 C2010 1.327 . S
C2008 H2033 0.950 . S
C2009 C2008 1.349 . S
C2009 C2025 1.349 . S
C2010 C2008 1.327 . S
C2010 C2029 1.429 . S
C2010 H2034 0.950 . S
C2011 C2028 1.574 . S
C2011 C2030 1.368 . S
C2011 H2035 0.949 . S
H2012 C2016 0.949 . S
C2013 C2014 1.349 . S
C2013 C2015 1.327 . S
C2013 H2036 0.950 . S
C2014 C2013 1.349 . S
C2014 C2026 1.349 . S
C2015 C2013 1.327 . S
C2015 C2031 1.429 . S
C2015 H2037 0.950 . S
C2016 H2012 0.949 . S
C2016 C2024 1.574 . S
C2016 C2032 1.368 . S
H2017 C2025 0.950 . S
H2018 C2023 0.950 . S
H2019 C2024 0.949 . S
H2020 C2026 0.950 . S
H2021 C2027 0.950 . S
H2022 C2028 0.949 . S
C2023 H2018 0.950 . S
C2023 C2025 1.327 . S
C2023 C2029 1.429 . S
C2024 C2016 1.574 . S
C2024 H2019 0.949 . S
C2024 C2030 1.368 . S
C2025 C2009 1.349 . S
C2025 H2017 0.950 . S
C2025 C2023 1.327 . S
C2026 C2014 1.349 . S
C2026 H2020 0.950 . S
C2026 C2027 1.327 . S
C2027 H2021 0.950 . S
C2027 C2026 1.327 . S
C2027 C2031 1.429 . S
C2028 C2011 1.574 . S
C2028 H2022 0.949 . S
C2028 C2032 1.368 . S
C2029 C2010 1.429 . S
C2029 C2023 1.429 . S
C2029 C2030 1.523 . S
C2030 C2011 1.368 . S
C2030 C2024 1.368 . S
C2030 C2029 1.523 . S
C2031 C2015 1.429 . S
C2031 C2027 1.429 . S
C2031 C2032 1.523 . S
C2032 C2016 1.368 . S
C2032 C2028 1.368 . S
C2032 C2031 1.523 . S
H2033 C2008 0.950 . S
H2034 C2010 0.950 . S
H2035 C2011 0.949 . S
H2036 C2013 0.950 . S
H2037 C2015 0.950 . S
C2038 C2039 1.349 . S
C2038 C2040 1.327 . S
C2038 H2063 0.950 . S
C2039 C2038 1.349 . S
C2039 C2055 1.349 . S
C2040 C2038 1.327 . S
C2040 C2059 1.429 . S
C2040 H2064 0.950 . S
C2041 C2058 1.574 . S
C2041 C2060 1.368 . S
C2041 H2065 0.949 . S
H2042 C2046 0.949 . S
C2043 C2044 1.349 . S
C2043 C2045 1.327 . S
C2043 H2066 0.950 . S
C2044 C2043 1.349 . S
C2044 C2056 1.349 . S
C2045 C2043 1.327 . S
C2045 C2061 1.429 . S
C2045 H2067 0.950 . S
C2046 H2042 0.949 . S
C2046 C2054 1.574 . S
C2046 C2062 1.368 . S
H2047 C2055 0.950 . S
H2048 C2053 0.950 . S
H2049 C2054 0.949 . S
H2050 C2056 0.950 . S
H2051 C2057 0.950 . S
H2052 C2058 0.949 . S
C2053 H2048 0.950 . S
C2053 C2055 1.327 . S
C2053 C2059 1.429 . S
C2054 C2046 1.574 . S
C2054 H2049 0.949 . S
C2054 C2060 1.368 . S
C2055 C2039 1.349 . S
C2055 H2047 0.950 . S
C2055 C2053 1.327 . S
C2056 C2044 1.349 . S
C2056 H2050 0.950 . S
C2056 C2057 1.327 . S
C2057 H2051 0.950 . S
C2057 C2056 1.327 . S
C2057 C2061 1.429 . S
C2058 C2041 1.574 . S
C2058 H2052 0.949 . S
C2058 C2062 1.368 . S
C2059 C2040 1.429 . S
C2059 C2053 1.429 . S
C2059 C2060 1.523 . S
C2060 C2041 1.368 . S
C2060 C2054 1.368 . S
C2060 C2059 1.523 . S
C2061 C2045 1.429 . S
C2061 C2057 1.429 . S
C2061 C2062 1.523 . S
C2062 C2046 1.368 . S
C2062 C2058 1.368 . S
C2062 C2061 1.523 . S
H2063 C2038 0.950 . S
H2064 C2040 0.950 . S
H2065 C2041 0.949 . S
H2066 C2043 0.950 . S
H2067 C2045 0.950 . S
C2068 C2069 1.349 . S
C2068 C2070 1.327 . S
C2068 H2093 0.950 . S
C2069 C2068 1.349 . S
C2069 C2085 1.349 . S
C2070 C2068 1.327 . S
C2070 C2089 1.429 . S
C2070 H2094 0.950 . S
C2071 C2088 1.574 . S
C2071 C2090 1.368 . S
C2071 H2095 0.949 . S
H2072 C2076 0.949 . S
C2073 C2074 1.349 . S
C2073 C2075 1.327 . S
C2073 H2096 0.950 . S
C2074 C2073 1.349 . S
C2074 C2086 1.349 . S
C2075 C2073 1.327 . S
C2075 C2091 1.429 . S
C2075 H2097 0.950 . S
C2076 H2072 0.949 . S
C2076 C2084 1.574 . S
C2076 C2092 1.368 . S
H2077 C2085 0.950 . S
H2078 C2083 0.950 . S
H2079 C2084 0.949 . S
H2080 C2086 0.950 . S
H2081 C2087 0.950 . S
H2082 C2088 0.949 . S
C2083 H2078 0.950 . S
C2083 C2085 1.327 . S
C2083 C2089 1.429 . S
C2084 C2076 1.574 . S
C2084 H2079 0.949 . S
C2084 C2090 1.368 1_545 S
C2085 C2069 1.349 . S
C2085 H2077 0.950 . S
C2085 C2083 1.327 . S
C2086 C2074 1.349 . S
C2086 H2080 0.950 . S
C2086 C2087 1.327 . S
C2087 H2081 0.950 . S
C2087 C2086 1.327 . S
C2087 C2091 1.429 . S
C2088 C2071 1.574 . S
C2088 H2082 0.949 . S
C2088 C2092 1.368 1_565 S
C2089 C2070 1.429 . S
C2089 C2083 1.429 . S
C2089 C2090 1.523 . S
C2090 C2071 1.368 . S
C2090 C2084 1.368 1_565 S
C2090 C2089 1.523 . S
C2091 C2075 1.429 . S
C2091 C2087 1.429 . S
C2091 C2092 1.523 . S
C2092 C2076 1.368 . S
C2092 C2088 1.368 1_545 S
C2092 C2091 1.523 . S
H2093 C2068 0.950 . S
H2094 C2070 0.950 . S
H2095 C2071 0.949 . S
H2096 C2073 0.950 . S
H2097 C2075 0.950 . S
C2098 C2099 1.344 1_455 S
C2098 C2100 1.327 1_556 S
C2098 H2123 0.950 . S
C2099 C2098 1.344 1_655 S
C2099 C2115 1.354 . S
C2100 C2098 1.327 1_554 S
C2100 C2119 1.424 1_455 S
C2100 H2124 0.950 . S
C2101 C2118 1.574 . S
C2101 C2120 1.373 1_565 S
C2101 H2125 0.949 . S
H2102 C2106 0.949 . S
C2103 C2104 1.354 . S
C2103 C2105 1.327 . S
C2103 H2126 0.950 . S
C2104 C2103 1.354 . S
C2104 C2116 1.344 1_655 S
C2105 C2103 1.327 . S
C2105 C2121 1.433 . S
C2105 H2127 0.950 . S
C2106 H2102 0.949 . S
C2106 C2114 1.574 . S
C2106 C2122 1.363 1_445 S
H2107 C2115 0.950 . S
H2108 C2113 0.950 . S
H2109 C2114 0.949 . S
H2110 C2116 0.950 . S
H2111 C2117 0.950 . S
H2112 C2118 0.949 . S
C2113 H2108 0.950 . S
C2113 C2115 1.327 . S
C2113 C2119 1.433 1_556 S
C2114 C2106 1.574 . S
C2114 H2109 0.949 . S
C2114 C2120 1.363 1_455 S
C2115 C2099 1.354 . S
C2115 H2107 0.950 . S
C2115 C2113 1.327 . S
C2116 C2104 1.344 1_455 S
C2116 H2110 0.950 . S
C2116 C2117 1.327 . S
C2117 H2111 0.950 . S
C2117 C2116 1.327 . S
C2117 C2121 1.424 1_455 S
C2118 C2101 1.574 . S
C2118 H2112 0.949 . S
C2118 C2122 1.373 . S
C2119 C2100 1.424 1_655 S
C2119 C2113 1.433 1_554 S
C2119 C2120 1.523 . S
C2120 C2101 1.373 1_545 S
C2120 C2114 1.363 1_655 S
C2120 C2119 1.523 . S
C2121 C2105 1.433 . S
C2121 C2117 1.424 1_655 S
C2121 C2122 1.523 . S
C2122 C2106 1.363 1_665 S
C2122 C2118 1.373 . S
C2122 C2121 1.523 . S
H2123 C2098 0.950 . S
H2124 C2100 0.950 . S
H2125 C2101 0.949 . S
H2126 C2103 0.950 . S
H2127 C2105 0.950 . S
C2128 C2129 1.352 . S
C2128 C2130 1.327 . S
C2128 H2153 0.950 . S
C2129 C2128 1.352 . S
C2129 C2145 1.346 1_655 S
C2130 C2128 1.327 . S
C2130 C2149 1.432 . S
C2130 H2154 0.950 . S
C2131 C2148 1.574 . S
C2131 C2150 1.365 1_455 S
C2131 H2155 0.949 . S
H2132 C2136 0.949 . S
C2133 C2134 1.346 1_455 S
C2133 C2135 1.327 . S
C2133 H2156 0.950 . S
C2134 C2133 1.346 1_655 S
C2134 C2146 1.352 . S
C2135 C2133 1.327 . S
C2135 C2151 1.426 1_455 S
C2135 H2157 0.950 . S
C2136 H2132 0.949 . S
C2136 C2144 1.574 . S
C2136 C2152 1.372 . S
H2137 C2145 0.950 . S
H2138 C2143 0.950 . S
H2139 C2144 0.949 . S
H2140 C2146 0.950 . S
H2141 C2147 0.950 . S
H2142 C2148 0.949 . S
C2143 H2138 0.950 . S
C2143 C2145 1.327 . S
C2143 C2149 1.426 1_455 S
C2144 C2136 1.574 . S
C2144 H2139 0.949 . S
C2144 C2150 1.372 . S
C2145 C2129 1.346 1_455 S
C2145 H2137 0.950 . S
C2145 C2143 1.327 . S
C2146 C2134 1.352 . S
C2146 H2140 0.950 . S
C2146 C2147 1.327 . S
C2147 H2141 0.950 . S
C2147 C2146 1.327 . S
C2147 C2151 1.432 . S
C2148 C2131 1.574 . S
C2148 H2142 0.949 . S
C2148 C2152 1.365 1_455 S
C2149 C2130 1.432 . S
C2149 C2143 1.426 1_655 S
C2149 C2150 1.523 . S
C2150 C2131 1.365 1_655 S
C2150 C2144 1.372 . S
C2150 C2149 1.523 . S
C2151 C2135 1.426 1_655 S
C2151 C2147 1.432 . S
C2151 C2152 1.523 . S
C2152 C2136 1.372 . S
C2152 C2148 1.365 1_655 S
C2152 C2151 1.523 . S
H2153 C2128 0.950 . S
H2154 C2130 0.950 . S
H2155 C2131 0.949 . S
H2156 C2133 0.950 . S
H2157 C2135 0.950 . S
C2158 C2159 1.349 . S
C2158 C2160 1.327 . S
C2158 H2183 0.950 . S
C2159 C2158 1.349 . S
C2159 C2175 1.349 . S
C2160 C2158 1.327 . S
C2160 C2179 1.429 . S
C2160 H2184 0.950 . S
C2161 C2178 1.574 . S
C2161 C2180 1.368 . S
C2161 H2185 0.949 . S
H2162 C2166 0.949 . S
C2163 C2164 1.349 . S
C2163 C2165 1.327 . S
C2163 H2186 0.950 . S
C2164 C2163 1.349 . S
C2164 C2176 1.349 . S
C2165 C2163 1.327 . S
C2165 C2181 1.429 . S
C2165 H2187 0.950 . S
C2166 H2162 0.949 . S
C2166 C2174 1.574 . S
C2166 C2182 1.368 . S
H2167 C2175 0.950 . S
H2168 C2173 0.950 . S
H2169 C2174 0.949 . S
H2170 C2176 0.950 . S
H2171 C2177 0.950 . S
H2172 C2178 0.949 . S
C2173 H2168 0.950 . S
C2173 C2175 1.327 . S
C2173 C2179 1.429 . S
C2174 C2166 1.574 . S
C2174 H2169 0.949 . S
C2174 C2180 1.368 . S
C2175 C2159 1.349 . S
C2175 H2167 0.950 . S
C2175 C2173 1.327 . S
C2176 C2164 1.349 . S
C2176 H2170 0.950 . S
C2176 C2177 1.327 . S
C2177 H2171 0.950 . S
C2177 C2176 1.327 . S
C2177 C2181 1.429 . S
C2178 C2161 1.574 . S
C2178 H2172 0.949 . S
C2178 C2182 1.368 . S
C2179 C2160 1.429 . S
C2179 C2173 1.429 . S
C2179 C2180 1.523 . S
C2180 C2161 1.368 . S
C2180 C2174 1.368 . S
C2180 C2179 1.523 . S
C2181 C2165 1.429 . S
C2181 C2177 1.429 . S
C2181 C2182 1.523 . S
C2182 C2166 1.368 . S
C2182 C2178 1.368 . S
C2182 C2181 1.523 . S
H2183 C2158 0.950 . S
H2184 C2160 0.950 . S
H2185 C2161 0.949 . S
H2186 C2163 0.950 . S
H2187 C2165 0.950 . S
C2188 C2189 1.349 . S
C2188 C2190 1.327 . S
C2188 H2213 0.950 . S
C2189 C2188 1.349 . S
C2189 C2205 1.349 . S
C2190 C2188 1.327 . S
C2190 C2209 1.429 . S
C2190 H2214 0.950 . S
C2191 C2208 1.574 . S
C2191 C2210 1.368 . S
C2191 H2215 0.949 . S
H2192 C2196 0.949 . S
C2193 C2194 1.349 . S
C2193 C2195 1.327 . S
C2193 H2216 0.950 . S
C2194 C2193 1.349 . S
C2194 C2206 1.349 . S
C2195 C2193 1.327 . S
C2195 C2211 1.429 1_556 S
C2195 H2217 0.950 1_556 S
C2196 H2192 0.949 . S
C2196 C2204 1.574 . S
C2196 C2212 1.368 . S
H2197 C2205 0.950 . S
H2198 C2203 0.950 . S
H2199 C2204 0.949 . S
H2200 C2206 0.950 . S
H2201 C2207 0.950 . S
H2202 C2208 0.949 . S
C2203 H2198 0.950 . S
C2203 C2205 1.327 . S
C2203 C2209 1.429 . S
C2204 C2196 1.574 . S
C2204 H2199 0.949 . S
C2204 C2210 1.368 . S
C2205 C2189 1.349 . S
C2205 H2197 0.950 . S
C2205 C2203 1.327 . S
C2206 C2194 1.349 . S
C2206 H2200 0.950 . S
C2206 C2207 1.327 1_556 S
C2207 H2201 0.950 . S
C2207 C2206 1.327 1_554 S
C2207 C2211 1.429 . S
C2208 C2191 1.574 . S
C2208 H2202 0.949 . S
C2208 C2212 1.368 . S
C2209 C2190 1.429 . S
C2209 C2203 1.429 . S
C2209 C2210 1.523 . S
C2210 C2191 1.368 . S
C2210 C2204 1.368 . S
C2210 C2209 1.523 . S
C2211 C2195 1.429 1_554 S
C2211 C2207 1.429 . S
C2211 C2212 1.523 . S
C2212 C2196 1.368 . S
C2212 C2208 1.368 . S
C2212 C2211 1.523 . S
H2213 C2188 0.950 . S
H2214 C2190 0.950 . S
H2215 C2191 0.949 . S
H2216 C2193 0.950 . S
H2217 C2195 0.950 1_554 S
C2218 C2219 1.349 . S
C2218 C2220 1.327 . S
C2218 H2243 0.950 . S
C2219 C2218 1.349 . S
C2219 C2235 1.349 . S
C2220 C2218 1.327 . S
C2220 C2239 1.429 . S
C2220 H2244 0.950 . S
C2221 C2238 1.574 . S
C2221 C2240 1.368 . S
C2221 H2245 0.949 . S
H2222 C2226 0.949 . S
C2223 C2224 1.349 . S
C2223 C2225 1.327 . S
C2223 H2246 0.950 . S
C2224 C2223 1.349 . S
C2224 C2236 1.349 . S
C2225 C2223 1.327 . S
C2225 C2241 1.429 . S
C2225 H2247 0.950 . S
C2226 H2222 0.949 . S
C2226 C2234 1.574 . S
C2226 C2242 1.368 . S
H2227 C2235 0.950 . S
H2228 C2233 0.950 . S
H2229 C2234 0.949 . S
H2230 C2236 0.950 . S
H2231 C2237 0.950 . S
H2232 C2238 0.949 . S
C2233 H2228 0.950 . S
C2233 C2235 1.327 . S
C2233 C2239 1.429 . S
C2234 C2226 1.574 . S
C2234 H2229 0.949 . S
C2234 C2240 1.368 . S
C2235 C2219 1.349 . S
C2235 H2227 0.950 . S
C2235 C2233 1.327 . S
C2236 C2224 1.349 . S
C2236 H2230 0.950 . S
C2236 C2237 1.327 . S
C2237 H2231 0.950 . S
C2237 C2236 1.327 . S
C2237 C2241 1.429 . S
C2238 C2221 1.574 . S
C2238 H2232 0.949 . S
C2238 C2242 1.368 . S
C2239 C2220 1.429 . S
C2239 C2233 1.429 . S
C2239 C2240 1.523 . S
C2240 C2221 1.368 . S
C2240 C2234 1.368 . S
C2240 C2239 1.523 . S
C2241 C2225 1.429 . S
C2241 C2237 1.429 . S
C2241 C2242 1.523 . S
C2242 C2226 1.368 . S
C2242 C2238 1.368 . S
C2242 C2241 1.523 . S
H2243 C2218 0.950 . S
H2244 C2220 0.950 . S
H2245 C2221 0.949 . S
H2246 C2223 0.950 . S
H2247 C2225 0.950 . S
C2248 C2249 1.349 . S
C2248 C2250 1.327 . S
C2248 H2273 0.950 . S
C2249 C2248 1.349 . S
C2249 C2265 1.349 . S
C2250 C2248 1.327 . S
C2250 C2269 1.429 . S
C2250 H2274 0.950 . S
C2251 C2268 1.574 . S
C2251 C2270 1.368 . S
C2251 H2275 0.949 . S
H2252 C2256 0.949 . S
C2253 C2254 1.349 . S
C2253 C2255 1.327 . S
C2253 H2276 0.950 . S
C2254 C2253 1.349 . S
C2254 C2266 1.349 . S
C2255 C2253 1.327 . S
C2255 C2271 1.429 . S
C2255 H2277 0.950 . S
C2256 H2252 0.949 . S
C2256 C2264 1.574 . S
C2256 C2272 1.368 . S
H2257 C2265 0.950 . S
H2258 C2263 0.950 . S
H2259 C2264 0.949 . S
H2260 C2266 0.950 . S
H2261 C2267 0.950 . S
H2262 C2268 0.949 . S
C2263 H2258 0.950 . S
C2263 C2265 1.327 . S
C2263 C2269 1.429 . S
C2264 C2256 1.574 . S
C2264 H2259 0.949 . S
C2264 C2270 1.368 . S
C2265 C2249 1.349 . S
C2265 H2257 0.950 . S
C2265 C2263 1.327 . S
C2266 C2254 1.349 . S
C2266 H2260 0.950 . S
C2266 C2267 1.327 . S
C2267 H2261 0.950 . S
C2267 C2266 1.327 . S
C2267 C2271 1.429 . S
C2268 C2251 1.574 . S
C2268 H2262 0.949 . S
C2268 C2272 1.368 . S
C2269 C2250 1.429 . S
C2269 C2263 1.429 . S
C2269 C2270 1.523 . S
C2270 C2251 1.368 . S
C2270 C2264 1.368 . S
C2270 C2269 1.523 . S
C2271 C2255 1.429 . S
C2271 C2267 1.429 . S
C2271 C2272 1.523 . S
C2272 C2256 1.368 . S
C2272 C2268 1.368 . S
C2272 C2271 1.523 . S
H2273 C2248 0.950 . S
H2274 C2250 0.950 . S
H2275 C2251 0.949 . S
H2276 C2253 0.950 . S
H2277 C2255 0.950 . S
C2278 C2279 1.349 . S
C2278 C2280 1.327 . S
C2278 H2303 0.950 . S
C2279 C2278 1.349 . S
C2279 C2295 1.349 . S
C2280 C2278 1.327 . S
C2280 C2299 1.429 . S
C2280 H2304 0.950 . S
C2281 C2298 1.574 . S
C2281 C2300 1.368 . S
C2281 H2305 0.949 . S
H2282 C2286 0.949 . S
C2283 C2284 1.349 . S
C2283 C2285 1.327 . S
C2283 H2306 0.950 . S
C2284 C2283 1.349 . S
C2284 C2296 1.349 . S
C2285 C2283 1.327 . S
C2285 C2301 1.429 . S
C2285 H2307 0.950 . S
C2286 H2282 0.949 . S
C2286 C2294 1.574 . S
C2286 C2302 1.368 . S
H2287 C2295 0.950 . S
H2288 C2293 0.950 . S
H2289 C2294 0.949 . S
H2290 C2296 0.950 . S
H2291 C2297 0.950 . S
H2292 C2298 0.949 . S
C2293 H2288 0.950 . S
C2293 C2295 1.327 . S
C2293 C2299 1.429 . S
C2294 C2286 1.574 . S
C2294 H2289 0.949 . S
C2294 C2300 1.368 . S
C2295 C2279 1.349 . S
C2295 H2287 0.950 . S
C2295 C2293 1.327 . S
C2296 C2284 1.349 . S
C2296 H2290 0.950 . S
C2296 C2297 1.327 . S
C2297 H2291 0.950 . S
C2297 C2296 1.327 . S
C2297 C2301 1.429 . S
C2298 C2281 1.574 . S
C2298 H2292 0.949 . S
C2298 C2302 1.368 . S
C2299 C2280 1.429 . S
C2299 C2293 1.429 . S
C2299 C2300 1.523 . S
C2300 C2281 1.368 . S
C2300 C2294 1.368 . S
C2300 C2299 1.523 . S
C2301 C2285 1.429 . S
C2301 C2297 1.429 . S
C2301 C2302 1.523 . S
C2302 C2286 1.368 . S
C2302 C2298 1.368 . S
C2302 C2301 1.523 . S
H2303 C2278 0.950 . S
H2304 C2280 0.950 . S
H2305 C2281 0.949 . S
H2306 C2283 0.950 . S
H2307 C2285 0.950 . S
C2308 C2309 1.349 . S
C2308 C2310 1.327 . S
C2308 H2333 0.950 . S
C2309 C2308 1.349 . S
C2309 C2325 1.349 . S
C2310 C2308 1.327 . S
C2310 C2329 1.429 . S
C2310 H2334 0.950 . S
C2311 C2328 1.574 . S
C2311 C2330 1.368 . S
C2311 H2335 0.949 . S
H2312 C2316 0.949 . S
C2313 C2314 1.349 . S
C2313 C2315 1.327 . S
C2313 H2336 0.950 . S
C2314 C2313 1.349 . S
C2314 C2326 1.349 . S
C2315 C2313 1.327 . S
C2315 C2331 1.429 1_556 S
C2315 H2337 0.950 . S
C2316 H2312 0.949 . S
C2316 C2324 1.574 . S
C2316 C2332 1.368 . S
H2317 C2325 0.950 . S
H2318 C2323 0.950 . S
H2319 C2324 0.949 . S
H2320 C2326 0.950 . S
H2321 C2327 0.950 . S
H2322 C2328 0.949 . S
C2323 H2318 0.950 . S
C2323 C2325 1.327 . S
C2323 C2329 1.429 . S
C2324 C2316 1.574 . S
C2324 H2319 0.949 . S
C2324 C2330 1.368 1_545 S
C2325 C2309 1.349 . S
C2325 H2317 0.950 . S
C2325 C2323 1.327 . S
C2326 C2314 1.349 . S
C2326 H2320 0.950 . S
C2326 C2327 1.327 1_556 S
C2327 H2321 0.950 . S
C2327 C2326 1.327 1_554 S
C2327 C2331 1.429 . S
C2328 C2311 1.574 . S
C2328 H2322 0.949 . S
C2328 C2332 1.368 1_565 S
C2329 C2310 1.429 . S
C2329 C2323 1.429 . S
C2329 C2330 1.523 . S
C2330 C2311 1.368 . S
C2330 C2324 1.368 1_565 S
C2330 C2329 1.523 . S
C2331 C2315 1.429 1_554 S
C2331 C2327 1.429 . S
C2331 C2332 1.523 . S
C2332 C2316 1.368 . S
C2332 C2328 1.368 1_545 S
C2332 C2331 1.523 . S
H2333 C2308 0.950 . S
H2334 C2310 0.950 . S
H2335 C2311 0.949 . S
H2336 C2313 0.950 . S
H2337 C2315 0.950 . S
C2338 C2339 1.356 . S
C2338 C2340 1.327 . S
C2338 H2363 0.950 . S
C2339 C2338 1.356 . S
C2339 C2355 1.342 1_455 S
C2340 C2338 1.327 . S
C2340 C2359 1.436 . S
C2340 H2364 0.950 . S
C2341 C2358 1.574 . S
C2341 C2360 1.361 1_665 S
C2341 H2365 0.949 . S
H2342 C2346 0.949 . S
C2343 C2344 1.342 1_655 S
C2343 C2345 1.327 . S
C2343 H2366 0.950 . S
C2344 C2343 1.342 1_455 S
C2344 C2356 1.356 . S
C2345 C2343 1.327 . S
C2345 C2361 1.422 1_655 S
C2345 H2367 0.950 . S
C2346 H2342 0.949 . S
C2346 C2354 1.574 . S
C2346 C2362 1.376 1_545 S
H2347 C2355 0.950 . S
H2348 C2353 0.950 . S
H2349 C2354 0.949 . S
H2350 C2356 0.950 . S
H2351 C2357 0.950 . S
H2352 C2358 0.949 . S
C2353 H2348 0.950 . S
C2353 C2355 1.327 . S
C2353 C2359 1.422 1_655 S
C2354 C2346 1.574 . S
C2354 H2349 0.949 . S
C2354 C2360 1.376 . S
C2355 C2339 1.342 1_655 S
C2355 H2347 0.950 . S
C2355 C2353 1.327 . S
C2356 C2344 1.356 . S
C2356 H2350 0.950 . S
C2356 C2357 1.327 . S
C2357 H2351 0.950 . S
C2357 C2356 1.327 . S
C2357 C2361 1.436 . S
C2358 C2341 1.574 . S
C2358 H2352 0.949 . S
C2358 C2362 1.361 1_655 S
C2359 C2340 1.436 . S
C2359 C2353 1.422 1_455 S
C2359 C2360 1.523 . S
C2360 C2341 1.361 1_445 S
C2360 C2354 1.376 . S
C2360 C2359 1.523 . S
C2361 C2345 1.422 1_455 S
C2361 C2357 1.436 . S
C2361 C2362 1.523 . S
C2362 C2346 1.376 1_565 S
C2362 C2358 1.361 1_455 S
C2362 C2361 1.523 . S
H2363 C2338 0.950 . S
H2364 C2340 0.950 . S
H2365 C2341 0.949 . S
H2366 C2343 0.950 . S
H2367 C2345 0.950 . S
C1409 C849 1.509 . S
C1414 C29 1.507 . S
C1439 C1281 1.514 . S
C1444 C117 1.510 . S
C1469 C233 1.514 . S
C1474 C753 1.509 . S
C1499 C293 1.509 1_556 S
C1504 C1349 1.519 . S
C1529 C401 1.513 . S
C1534 C909 1.504 1_556 S
C1559 C1201 1.513 . S
C1564 C497 1.514 . S
C1589 C988 1.509 . S
C1594 C548 1.513 . S
C1619 C673 1.509 . S
C1624 C1076 1.513 . S
C1649 C409 1.508 . S
C1654 C313 1.521 1_556 S
C1679 C1085 1.508 . S
C1684 C733 1.516 . S
C1709 C557 1.508 . S
C1714 C137 1.516 . S
C1739 C812 1.516 . S
C1744 C1193 1.502 . S
C1769 C20 1.508 . S
C1774 C460 1.520 . S
C1799 C1340 1.508 . S
C1804 C929 1.511 1_556 S
C1829 C636 1.516 . S
C1834 C225 1.508 . S
C1859 C1025 1.515 . S
C1864 C1289 1.508 . S
C1889 C49 1.218 . S
C1894 C381 1.218 . S
C1919 C469 1.211 . S
C1924 C145 1.211 . S
C1949 C585 1.219 . S
C1954 C196 1.219 . S
C1979 C321 1.210 . S
C1984 C645 1.210 . S
C2009 C937 1.210 . S
C2014 C724 1.210 . S
C2039 C1017 1.211 . S
C2044 C821 1.211 . S
C2069 C1261 1.219 . S
C2074 C1113 1.219 . S
C2099 C1369 1.219 1_655 S
C2104 C1164 1.219 1_655 S
C2129 C372 2.064 1_655 S
C2134 C57 2.064 1_655 S
C2159 C489 2.074 . S
C2164 C108 2.074 . S
C2189 C577 2.064 . S
C2194 C205 2.064 . S
C2219 C284 2.074 . S
C2224 C665 2.074 . S
C2249 C761 2.074 . S
C2254 C900 2.074 . S
C2279 C997 2.074 . S
C2284 C841 2.074 . S
C2309 C1252 2.064 . S
C2314 C1105 2.064 . S
C2339 C1377 2.064 . S
C2344 C1173 2.064 . S
