# Generated by pormake.
# Topology smm, (6)-cn, num edge types: 1
# Building blocks:
#     Node 0, Type 0, BuildingBlock: UKALOJ_clean_sbu_0, # of connection points: 6
#     Node 1, Type 0, BuildingBlock: UKALOJ_clean_sbu_0, # of connection points: 6
#     Node 2, Type 0, BuildingBlock: UKALOJ_clean_sbu_0, # of connection points: 6
#     Node 3, Type 0, BuildingBlock: UKALOJ_clean_sbu_0, # of connection points: 6
#     Node 4, Type 0, BuildingBlock: UKALOJ_clean_sbu_0, # of connection points: 6
#     Node 5, Type 0, BuildingBlock: UKALOJ_clean_sbu_0, # of connection points: 6
#     Node 6, Type 0, BuildingBlock: UKALOJ_clean_sbu_0, # of connection points: 6
#     Node 7, Type 0, BuildingBlock: UKALOJ_clean_sbu_0, # of connection points: 6
#     Node 8, Type 0, BuildingBlock: UKALOJ_clean_sbu_0, # of connection points: 6
#     Edge 9, Type (0, 0), None
#     Edge 10, Type (0, 0), None
#     Edge 11, Type (0, 0), None
#     Edge 12, Type (0, 0), None
#     Edge 13, Type (0, 0), None
#     Edge 14, Type (0, 0), None
#     Edge 15, Type (0, 0), None
#     Edge 16, Type (0, 0), None
#     Edge 17, Type (0, 0), None
#     Edge 18, Type (0, 0), None
#     Edge 19, Type (0, 0), None
#     Edge 20, Type (0, 0), None
#     Edge 21, Type (0, 0), None
#     Edge 22, Type (0, 0), None
#     Edge 23, Type (0, 0), None
#     Edge 24, Type (0, 0), None
#     Edge 25, Type (0, 0), None
#     Edge 26, Type (0, 0), None
#     Edge 27, Type (0, 0), None
#     Edge 28, Type (0, 0), None
#     Edge 29, Type (0, 0), None
#     Edge 30, Type (0, 0), None
#     Edge 31, Type (0, 0), None
#     Edge 32, Type (0, 0), None
#     Edge 33, Type (0, 0), None
#     Edge 34, Type (0, 0), None
#     Edge 35, Type (0, 0), None
# Relax obj value: 0.504
# Max RMSD: 0.329
# Mean RMSD: 0.316
data_MOF--net-smm--node1-UKALOJ_clean_sbu_0--edge1-none
_symmetry_space_group_name_H-M    P1
_symmetry_Int_Tables_number       1
_symmetry_cell_setting            triclinic
loop_
_symmetry_equiv_pos_as_xyz
'x, y, z'
_cell_length_a     22.074951
_cell_length_b     20.921633
_cell_length_c     11.362869
_cell_angle_alpha  95.09715
_cell_angle_beta   92.689513
_cell_angle_gamma 120.74813
loop_
_atom_site_label
_atom_site_type_symbol
_atom_site_fract_x
_atom_site_fract_y
_atom_site_fract_z
_atom_type_partial_charge
Zn0 Zn 0.01059 0.24471 0.12251 0.0
O1 O 0.91425 0.11 0.11194 0.0
C2 C 0.06018 0.15922 0.05624 0.0
Zn3 Zn 0.93089 0.17752 0.91701 0.0
C4 C 0.86858 0.0572 0.02778 0.0
O5 O 0.86365 0.07068 0.92208 0.0
C6 C 0.05871 0.34966 0.94545 0.0
O7 O 0.8731 0.1975 0.08338 0.0
O8 O 0.95659 0.28911 0.20081 0.0
N9 N 0.96985 0.16206 0.75994 0.0
C10 C 0.97006 0.1953 0.66359 0.0
C11 C 0.05353 0.17238 0.65518 0.0
N12 N 0.02179 0.14774 0.75417 0.0
N13 N 0.02223 0.20314 0.59802 0.0
C14 C 0.00373 0.21672 0.38889 0.0
C15 C 0.10717 0.29414 0.47569 0.0
N16 N 0.04275 0.25768 0.30553 0.0
N17 N 0.10708 0.30605 0.3603 0.0
N18 N 0.04232 0.23911 0.49511 0.0
H19 H 0.89407 0.15188 0.31471 0.0
H20 H 0.91271 0.1202 0.44409 0.0
H21 H 0.94438 0.10617 0.30826 0.0
C22 C 0.93429 0.14509 0.36289 0.0
C23 C 0.92966 0.23346 0.64813 0.0
H24 H 0.88835 0.21654 0.7104 0.0
H25 H 0.90515 0.22102 0.55528 0.0
H26 H 0.96813 0.29452 0.66679 0.0
O27 O 0.00392 0.28852 0.90405 0.0
O28 O 0.08302 0.35737 0.05537 0.0
C29 C 0.89271 0.24159 0.18221 0.0
O30 O 0.09041 0.22318 0.11092 0.0
O31 O 0.00594 0.13926 0.98475 0.0
Zn32 Zn 0.79042 0.86528 0.15865 0.0
O33 O 0.70274 0.82098 0.96805 0.0
C34 C 0.73301 0.71361 0.14198 0.0
Zn35 Zn 0.79834 0.79841 0.90338 0.0
C36 C 0.68395 0.79914 0.85314 0.0
O37 O 0.72075 0.7824 0.79399 0.0
C38 C 0.92505 0.87264 0.03077 0.0
O39 O 0.82482 0.92554 0.9753 0.0
O40 O 0.8025 0.96472 0.14617 0.0
N41 N 0.86261 0.8543 0.77912 0.0
C42 C 0.86162 0.90198 0.70723 0.0
C43 C 0.93397 0.87111 0.64643 0.0
N44 N 0.90852 0.83621 0.74205 0.0
N45 N 0.9061 0.91351 0.62418 0.0
C46 C 0.8449 0.87506 0.42267 0.0
C47 C 0.92211 0.99167 0.46608 0.0
N48 N 0.84694 0.90734 0.32421 0.0
N49 N 0.89448 0.97971 0.35217 0.0
N50 N 0.89307 0.92607 0.50937 0.0
H51 H 0.74078 0.77786 0.38704 0.0
H52 H 0.78215 0.78985 0.53334 0.0
H53 H 0.81322 0.76021 0.41093 0.0
C54 C 0.79183 0.79619 0.43929 0.0
C55 C 0.80752 0.92523 0.69849 0.0
H56 H 0.78666 0.92882 0.78296 0.0
H57 H 0.76217 0.88417 0.63306 0.0
H58 H 0.83112 0.9806 0.66546 0.0
O59 O 0.88407 0.80466 0.99414 0.0
O60 O 0.90153 0.90694 0.09358 0.0
C61 C 0.82709 0.97844 0.04804 0.0
O62 O 0.78779 0.76822 0.19364 0.0
O63 O 0.71817 0.7176 0.03329 0.0
Zn64 Zn 0.13969 0.02905 0.93302 0.0
O65 O 0.26188 0.09342 0.9934 0.0
C66 C 0.18275 0.92518 0.9095 0.0
Zn67 Zn 0.1356 0.00438 0.09698 0.0
C68 C 0.27525 0.11968 0.10503 0.0
O69 O 0.22327 0.10672 0.15837 0.0
C70 C -0.0013 0.91095 1.00027 0.0
O71 O 0.07735 0.0638 0.12899 0.0
O72 O 0.13648 0.12307 0.98519 0.0
N73 N 0.14577 0.98591 0.26437 0.0
C74 C 0.1108 0.99306 0.35274 0.0
C75 C 0.20851 0.01109 0.43113 0.0
N76 N 0.20638 -0.00359 0.31279 0.0
N77 N 0.14963 0.0107 0.45809 0.0
C78 C 0.17357 0.04751 0.67619 0.0
C79 C 0.07719 0.03211 0.59621 0.0
N80 N 0.1367 0.05135 0.76453 0.0
N81 N 0.07714 0.04266 0.7147 0.0
N82 N 0.13646 0.03327 0.57003 0.0
H83 H 0.26442 0.06735 0.7872 0.0
H84 H 0.28012 0.08856 0.63811 0.0
H85 H 0.23066 0.99282 0.6638 0.0
C86 C 0.24157 0.04958 0.69381 0.0
C87 C 0.03873 0.98147 0.33516 0.0
H88 H 0.01435 0.95747 0.2434 0.0
H89 H 0.04204 0.03598 0.35717 0.0
H90 H 0.00505 0.9409 0.39414 0.0
O91 O 0.04267 0.90275 0.06161 0.0
O92 O 0.02175 0.96115 0.92913 0.0
C93 C 0.09368 0.11455 0.0602 0.0
O94 O 0.13783 0.93425 0.85521 0.0
O95 O 0.19911 0.95133 1.02137 0.0
Zn96 Zn 0.57415 0.50133 0.21844 0.0
O97 O 0.67395 0.48584 0.27721 0.0
C98 C 0.53688 0.39019 0.33896 0.0
Zn99 Zn 0.6868 0.57196 0.47892 0.0
C100 C 0.73056 0.50001 0.34163 0.0
O101 O 0.7571 0.55103 0.42681 0.0
C102 C 0.56096 0.57205 0.51414 0.0
O103 O 0.70582 0.64098 0.31458 0.0
O104 O 0.62666 0.60244 0.16243 0.0
N105 N 0.68179 0.51598 0.61858 0.0
C106 C 0.67354 0.52692 0.73329 0.0
C107 C 0.65037 0.41449 0.6965 0.0
N108 N 0.66902 0.44663 0.59677 0.0
N109 N 0.65401 0.46421 0.78378 0.0
C110 C 0.63734 0.4747 0.99332 0.0
C111 C 0.54332 0.41474 0.87177 0.0
N112 N 0.58241 0.46314 0.05445 0.0
N113 N 0.52407 0.42549 0.9788 0.0
N114 N 0.61378 0.44411 0.87999 0.0
H115 H 0.72735 0.5624 0.11069 0.0
H116 H 0.74906 0.53694 0.96999 0.0
H117 H 0.72524 0.47524 0.08035 0.0
C118 C 0.71404 0.51542 0.04156 0.0
C119 C 0.67878 0.59641 0.79325 0.0
H120 H 0.70866 0.64433 0.74284 0.0
H121 H 0.70628 0.61055 0.88399 0.0
H122 H 0.62479 0.58625 0.80139 0.0
O123 O 0.62367 0.60112 0.55688 0.0
O124 O 0.54427 0.54128 0.40378 0.0
C125 C 0.68637 0.65048 0.2114 0.0
O126 O 0.51413 0.39999 0.24414 0.0
O127 O 0.58892 0.44574 0.40846 0.0
Zn128 Zn 0.43398 0.19321 0.44231 0.0
O129 O 0.3679 0.18779 0.2683 0.0
C130 C 0.40069 0.0491 0.47371 0.0
Zn131 Zn 0.45305 0.12045 0.22827 0.0
C132 C 0.33701 0.13255 0.1861 0.0
O133 O 0.34416 0.07806 0.20224 0.0
C134 C 0.58244 0.19418 0.30759 0.0
O135 O 0.49381 0.25888 0.27981 0.0
O136 O 0.48582 0.30021 0.46132 0.0
N137 N 0.45241 0.14417 0.06246 0.0
C138 C 0.4901 0.20231 1.00201 0.0
C139 C 0.40982 0.11221 0.87881 0.0
N140 N 0.40287 0.08851 0.98534 0.0
N141 N 0.46285 0.18376 0.88841 0.0
C142 C 0.46099 0.22068 0.69793 0.0
C143 C 0.54229 0.19915 0.74438 0.0
N144 N 0.48154 0.20392 0.59793 0.0
N145 N 0.53383 0.19261 0.62519 0.0
N146 N 0.49709 0.2169 0.79208 0.0
H147 H 0.36767 0.21407 0.6156 0.0
H148 H 0.42315 0.29592 0.72095 0.0
H149 H 0.36854 0.20838 0.77504 0.0
C150 C 0.40099 0.23464 0.7024 0.0
C151 C 0.55137 0.27758 0.05186 0.0
H152 H 0.53073 0.31408 0.08022 0.0
H153 H 0.58768 0.30403 0.9837 0.0
H154 H 0.58019 0.27366 0.12938 0.0
O155 O 0.55065 0.14708 0.21835 0.0
O156 O 0.54692 0.20726 0.38348 0.0
C157 C 0.50589 0.31323 0.36132 0.0
O158 O 0.36551 0.07888 0.45236 0.0
O159 O 0.4528 0.06806 0.41217 0.0
Zn160 Zn 0.79381 0.33632 0.42588 0.0
O161 O 0.85783 0.27715 0.37279 0.0
C162 C 0.93837 0.44692 0.45283 0.0
Zn163 Zn 0.80377 0.35671 0.26101 0.0
C164 C 0.84316 0.25024 0.26062 0.0
O165 O 0.79833 0.25778 0.20478 0.0
C166 C 0.75485 0.44656 0.34452 0.0
O167 O 0.68656 0.29282 0.23538 0.0
O168 O 0.69981 0.23675 0.37832 0.0
N169 N 0.81514 0.37403 0.09421 0.0
C170 C 0.77355 0.32969 0.99548 0.0
C171 C 0.85778 0.43028 0.94253 0.0
N172 N 0.8671 0.43665 0.06186 0.0
N173 N 0.79941 0.36394 0.90114 0.0
C174 C 0.81138 0.3387 0.69297 0.0
C175 C 0.70657 0.30396 0.73382 0.0
N176 N 0.76984 0.31371 0.58985 0.0
N177 N 0.70448 0.29187 0.61509 0.0
N178 N 0.77341 0.33406 0.78273 0.0
H179 H 0.89955 0.34271 0.62477 0.0
H180 H 0.89878 0.34059 0.78413 0.0
H181 H 0.9194 0.4255 0.72593 0.0
C182 C 0.88738 0.36347 0.7073 0.0
C183 C 0.70957 0.25181 0.98678 0.0
H184 H 0.66163 0.25346 0.95973 0.0
H185 H 0.70159 0.22591 0.06895 0.0
H186 H 0.71376 0.2147 0.91572 0.0
O187 O 0.80377 0.45487 0.28384 0.0
O188 O 0.73754 0.40069 0.42258 0.0
C189 C 0.65917 0.24368 0.30727 0.0
O190 O 0.88514 0.43589 0.50248 0.0
O191 O 0.92606 0.41935 0.34105 0.0
Zn192 Zn 0.35886 0.9213 0.81448 0.0
O193 O 0.2609 0.78464 0.76151 0.0
C194 C 0.41187 0.84316 0.74549 0.0
Zn195 Zn 0.26443 0.84609 0.58717 0.0
C196 C 0.2183 0.72946 0.6793 0.0
O197 O 0.2114 0.74034 0.57518 0.0
C198 C 0.37262 0.99067 0.56033 0.0
O199 O 0.20439 0.85625 0.7486 0.0
O200 O 0.29169 0.96291 0.82712 0.0
N201 N 0.30227 0.83234 0.44142 0.0
C202 C 0.2674 0.81769 0.33496 0.0
C203 C 0.37 0.83763 0.30989 0.0
N204 N 0.36562 0.84257 0.42757 0.0
N205 N 0.30882 0.82215 0.25003 0.0
C206 C 0.32743 0.84326 0.04321 0.0
C207 C 0.30954 0.91957 0.15149 0.0
N208 N 0.33649 0.89785 0.979 0.0
N209 N 0.32611 0.94528 0.04726 0.0
N210 N 0.30847 0.85493 0.1491 0.0
H211 H 0.32073 0.75648 0.91659 0.0
H212 H 0.32027 0.73968 0.06966 0.0
H213 H 0.40112 0.80792 1.0166 0.0
C214 C 0.34284 0.78302 1.00892 0.0
C215 C 0.19666 0.81076 0.31564 0.0
H216 H 0.16001 0.77195 0.37419 0.0
H217 H 0.17387 0.79022 0.22132 0.0
H218 H 0.20289 0.86635 0.34082 0.0
O219 O 0.30777 0.9581 0.56795 0.0
O220 O 0.40713 0.97443 0.63333 0.0
C221 C 0.22923 0.9107 0.83232 0.0
O222 O 0.42985 0.8912 0.83365 0.0
O223 O 0.36235 0.83196 0.66619 0.0
Zn224 Zn 0.10142 0.54328 0.8051 0.0
O225 O 0.03199 0.52145 0.61961 0.0
C226 C 0.08173 0.41001 0.86391 0.0
Zn227 Zn 0.12435 0.46042 0.59184 0.0
C228 C 0.00264 0.46519 0.53773 0.0
O229 O 0.01487 0.41401 0.55421 0.0
C230 C 0.25493 0.54024 0.68568 0.0
O231 O 0.16269 0.59561 0.63317 0.0
O232 O 0.14779 0.64689 0.80019 0.0
N233 N 0.12615 0.48049 0.42277 0.0
C234 C 0.16367 0.53924 0.36317 0.0
C235 C 0.07441 0.45508 0.24536 0.0
N236 N 0.07168 0.42806 0.34844 0.0
N237 N 0.13044 0.52509 0.25422 0.0
C238 C 0.11395 0.55859 0.06318 0.0
C239 C 0.21783 0.58371 0.11852 0.0
N240 N 0.14852 0.56902 0.96734 0.0
N241 N 0.21389 0.58656 1.00078 0.0
N242 N 0.15561 0.5661 0.15922 0.0
H243 H 0.02066 0.55226 0.98296 0.0
H244 H 0.02589 0.55384 0.14394 0.0
H245 H 0.00544 0.47061 0.04792 0.0
C246 C 0.03694 0.5328 0.05941 0.0
C247 C 0.23375 0.60837 0.40601 0.0
H248 H 0.23318 0.65868 0.38387 0.0
H249 H 0.27539 0.60574 0.35873 0.0
H250 H 0.24805 0.61398 0.50162 0.0
O251 O 0.22368 0.49199 0.59697 0.0
O252 O 0.21859 0.55558 0.75794 0.0
C253 C 0.17338 0.65365 0.70393 0.0
O254 O 0.04133 0.43401 0.84393 0.0
O255 O 0.12256 0.41798 0.78282 0.0
Zn256 Zn 0.47402 0.67611 0.7832 0.0
O257 O 0.42595 0.7455 0.82034 0.0
C258 C 0.3326 0.58886 0.68476 0.0
Zn259 Zn 0.47741 0.69875 0.6144 0.0
C260 C 0.4401 0.79289 0.7453 0.0
O261 O 0.47676 0.79426 0.66354 0.0
C262 C 0.51457 0.58982 0.58743 0.0
O263 O 0.59891 0.76028 0.67388 0.0
O264 O 0.56789 0.77281 0.84732 0.0
N265 N 0.47841 0.72372 0.44748 0.0
C266 C 0.51373 0.71541 0.35999 0.0
C267 C 0.42332 0.71282 0.27851 0.0
N268 N 0.42279 0.72311 0.39697 0.0
N269 N 0.47875 0.70572 0.25365 0.0
C270 C 0.44944 0.65809 0.03822 0.0
C271 C 0.55335 0.69132 0.11302 0.0
N272 N 0.48553 0.65494 0.94885 0.0
N273 N 0.5496 0.67392 0.99526 0.0
N274 N 0.49152 0.68292 0.14185 0.0
H275 H 0.35803 0.66213 0.98339 0.0
H276 H 0.34857 0.61063 0.10919 0.0
H277 H 0.34596 0.57075 0.96305 0.0
C278 C 0.37108 0.62413 0.02393 0.0
C279 C 0.58166 0.71617 0.37816 0.0
H280 H 0.59897 0.72158 0.4726 0.0
H281 H 0.62365 0.76433 0.33935 0.0
H282 H 0.57551 0.66435 0.33099 0.0
O283 O 0.47295 0.60286 0.53188 0.0
O284 O 0.52885 0.61352 0.70049 0.0
C285 C 0.61648 0.78363 0.78664 0.0
O286 O 0.37363 0.58055 0.75395 0.0
O287 O 0.35968 0.63386 0.6063 0.0
loop_
_geom_bond_atom_site_label_1
_geom_bond_atom_site_label_2
_geom_bond_distance
_geom_bond_site_symmetry_2
_ccdc_geom_bond_type
Zn0 O1 2.055 1_455 S
Zn0 O8 2.046 1_455 S
Zn0 N16 2.036 . S
Zn0 O28 2.053 . S
Zn0 O30 2.066 . S
O1 Zn0 2.055 1_655 S
O1 C4 1.259 . S
C2 O30 1.256 . S
C2 O31 1.244 1_554 S
Zn3 O5 2.046 . S
Zn3 O7 2.055 . S
Zn3 N9 2.036 . S
Zn3 O27 2.066 1_655 S
Zn3 O31 2.053 1_655 S
C4 O1 1.259 . S
C4 O5 1.254 1_554 S
O5 Zn3 2.046 . S
O5 C4 1.254 1_556 S
C6 O27 1.256 . S
C6 O28 1.244 1_556 S
O7 Zn3 2.055 . S
O7 C29 1.259 1_556 S
O8 Zn0 2.046 1_655 S
O8 C29 1.254 . S
N9 Zn3 2.036 . S
N9 C10 1.298 . S
N9 N12 1.398 . S
C10 N9 1.298 . S
C10 N13 1.367 . S
C10 C23 1.481 . S
C11 N12 1.299 . S
C11 N13 1.379 . S
N12 N9 1.398 . S
N12 C11 1.299 . S
N13 C10 1.367 . S
N13 C11 1.379 . S
C14 N16 1.298 . S
C14 N18 1.367 . S
C14 C22 1.481 . S
C15 N17 1.299 . S
C15 N18 1.379 . S
N16 Zn0 2.036 . S
N16 C14 1.298 . S
N16 N17 1.398 . S
N17 C15 1.299 . S
N17 N16 1.398 . S
N18 C14 1.367 . S
N18 C15 1.379 . S
H19 C22 0.980 1_655 S
H20 C22 0.981 . S
H21 C22 0.981 . S
C22 C14 1.481 . S
C22 H19 0.980 1_455 S
C22 H20 0.981 . S
C22 H21 0.981 . S
C23 C10 1.481 . S
C23 H24 0.980 . S
C23 H25 0.981 . S
C23 H26 0.981 . S
H24 C23 0.980 . S
H25 C23 0.981 . S
H26 C23 0.981 . S
O27 Zn3 2.066 1_455 S
O27 C6 1.256 . S
O28 Zn0 2.053 . S
O28 C6 1.244 1_554 S
C29 O7 1.259 1_554 S
C29 O8 1.254 . S
O30 Zn0 2.066 . S
O30 C2 1.256 . S
O31 C2 1.244 1_556 S
O31 Zn3 2.053 1_455 S
Zn32 O33 2.055 . S
Zn32 O40 2.046 . S
Zn32 N48 2.036 . S
Zn32 O60 2.053 . S
Zn32 O62 2.066 . S
O33 Zn32 2.055 . S
O33 C36 1.259 1_554 S
C34 O62 1.256 . S
C34 O63 1.244 1_554 S
Zn35 O37 2.046 . S
Zn35 O39 2.055 . S
Zn35 N41 2.036 . S
Zn35 O59 2.066 . S
Zn35 O63 2.053 . S
C36 O33 1.259 1_556 S
C36 O37 1.254 . S
O37 Zn35 2.046 . S
O37 C36 1.254 . S
C38 O59 1.256 1_554 S
C38 O60 1.244 . S
O39 Zn35 2.055 . S
O39 C61 1.259 . S
O40 Zn32 2.046 . S
O40 C61 1.254 1_554 S
N41 Zn35 2.036 . S
N41 C42 1.298 . S
N41 N44 1.398 . S
C42 N41 1.298 . S
C42 N45 1.367 . S
C42 C55 1.481 . S
C43 N44 1.299 . S
C43 N45 1.379 . S
N44 N41 1.398 . S
N44 C43 1.299 . S
N45 C42 1.367 . S
N45 C43 1.379 . S
C46 N48 1.298 . S
C46 N50 1.367 . S
C46 C54 1.481 . S
C47 N49 1.299 . S
C47 N50 1.379 . S
N48 Zn32 2.036 . S
N48 C46 1.298 . S
N48 N49 1.398 . S
N49 C47 1.299 . S
N49 N48 1.398 . S
N50 C46 1.367 . S
N50 C47 1.379 . S
H51 C54 0.980 . S
H52 C54 0.981 . S
H53 C54 0.981 . S
C54 C46 1.481 . S
C54 H51 0.980 . S
C54 H52 0.981 . S
C54 H53 0.981 . S
C55 C42 1.481 . S
C55 H56 0.980 . S
C55 H57 0.981 . S
C55 H58 0.981 . S
H56 C55 0.980 . S
H57 C55 0.981 . S
H58 C55 0.981 . S
O59 Zn35 2.066 . S
O59 C38 1.256 1_556 S
O60 Zn32 2.053 . S
O60 C38 1.244 . S
C61 O39 1.259 . S
C61 O40 1.254 1_556 S
O62 Zn32 2.066 . S
O62 C34 1.256 . S
O63 C34 1.244 1_556 S
O63 Zn35 2.053 . S
Zn64 O65 2.055 . S
Zn64 O72 2.046 . S
Zn64 N80 2.036 . S
Zn64 O92 2.053 1_545 S
Zn64 O94 2.066 1_545 S
O65 Zn64 2.055 . S
O65 C68 1.259 1_556 S
C66 O94 1.256 . S
C66 O95 1.244 1_556 S
Zn67 O69 2.046 . S
Zn67 O71 2.055 . S
Zn67 N73 2.036 1_545 S
Zn67 O91 2.066 1_545 S
Zn67 O95 2.053 1_545 S
C68 O65 1.259 1_554 S
C68 O69 1.254 . S
O69 Zn67 2.046 . S
O69 C68 1.254 . S
C70 O91 1.256 1_556 S
C70 O92 1.244 . S
O71 Zn67 2.055 . S
O71 C93 1.259 . S
O72 Zn64 2.046 . S
O72 C93 1.254 1_556 S
N73 Zn67 2.036 1_565 S
N73 C74 1.298 . S
N73 N76 1.398 . S
C74 N73 1.298 . S
C74 N77 1.367 . S
C74 C87 1.481 1_565 S
C75 N76 1.299 . S
C75 N77 1.379 . S
N76 N73 1.398 . S
N76 C75 1.299 . S
N77 C74 1.367 . S
N77 C75 1.379 . S
C78 N80 1.298 . S
C78 N82 1.367 . S
C78 C86 1.481 . S
C79 N81 1.299 . S
C79 N82 1.379 . S
N80 Zn64 2.036 . S
N80 C78 1.298 . S
N80 N81 1.398 . S
N81 C79 1.299 . S
N81 N80 1.398 . S
N82 C78 1.367 . S
N82 C79 1.379 . S
H83 C86 0.980 . S
H84 C86 0.981 . S
H85 C86 0.981 . S
C86 C78 1.481 . S
C86 H83 0.980 . S
C86 H84 0.981 . S
C86 H85 0.981 . S
C87 C74 1.481 1_545 S
C87 H88 0.980 . S
C87 H89 0.981 . S
C87 H90 0.981 1_545 S
H88 C87 0.980 . S
H89 C87 0.981 . S
H90 C87 0.981 1_565 S
O91 Zn67 2.066 1_565 S
O91 C70 1.256 1_554 S
O92 Zn64 2.053 1_565 S
O92 C70 1.244 . S
C93 O71 1.259 . S
C93 O72 1.254 1_554 S
O94 Zn64 2.066 1_565 S
O94 C66 1.256 . S
O95 C66 1.244 1_554 S
O95 Zn67 2.053 1_565 S
Zn96 O97 2.055 . S
Zn96 O104 2.046 . S
Zn96 N112 2.036 . S
Zn96 O124 2.053 . S
Zn96 O126 2.066 . S
O97 Zn96 2.055 . S
O97 C100 1.259 . S
C98 O126 1.256 . S
C98 O127 1.244 . S
Zn99 O101 2.046 . S
Zn99 O103 2.055 . S
Zn99 N105 2.036 . S
Zn99 O123 2.066 . S
Zn99 O127 2.053 . S
C100 O97 1.259 . S
C100 O101 1.254 . S
O101 Zn99 2.046 . S
O101 C100 1.254 . S
C102 O123 1.256 . S
C102 O124 1.244 . S
O103 Zn99 2.055 . S
O103 C125 1.259 . S
O104 Zn96 2.046 . S
O104 C125 1.254 . S
N105 Zn99 2.036 . S
N105 C106 1.298 . S
N105 N108 1.398 . S
C106 N105 1.298 . S
C106 N109 1.367 . S
C106 C119 1.481 . S
C107 N108 1.299 . S
C107 N109 1.379 . S
N108 N105 1.398 . S
N108 C107 1.299 . S
N109 C106 1.367 . S
N109 C107 1.379 . S
C110 N112 1.298 1_556 S
C110 N114 1.367 . S
C110 C118 1.481 . S
C111 N113 1.299 . S
C111 N114 1.379 . S
N112 Zn96 2.036 . S
N112 C110 1.298 1_554 S
N112 N113 1.398 1_554 S
N113 C111 1.299 . S
N113 N112 1.398 1_556 S
N114 C110 1.367 . S
N114 C111 1.379 . S
H115 C118 0.980 1_554 S
H116 C118 0.981 . S
H117 C118 0.981 . S
C118 C110 1.481 . S
C118 H115 0.980 1_556 S
C118 H116 0.981 . S
C118 H117 0.981 . S
C119 C106 1.481 . S
C119 H120 0.980 . S
C119 H121 0.981 . S
C119 H122 0.981 . S
H120 C119 0.980 . S
H121 C119 0.981 . S
H122 C119 0.981 . S
O123 Zn99 2.066 . S
O123 C102 1.256 . S
O124 Zn96 2.053 . S
O124 C102 1.244 . S
C125 O103 1.259 . S
C125 O104 1.254 . S
O126 Zn96 2.066 . S
O126 C98 1.256 . S
O127 C98 1.244 . S
O127 Zn99 2.053 . S
Zn128 O129 2.055 . S
Zn128 O136 2.046 . S
Zn128 N144 2.036 . S
Zn128 O156 2.053 . S
Zn128 O158 2.066 . S
O129 Zn128 2.055 . S
O129 C132 1.259 . S
C130 O158 1.256 . S
C130 O159 1.244 . S
Zn131 O133 2.046 . S
Zn131 O135 2.055 . S
Zn131 N137 2.038 . S
Zn131 O155 2.066 . S
Zn131 O159 2.053 . S
C132 O129 1.259 . S
C132 O133 1.254 . S
O133 Zn131 2.046 . S
O133 C132 1.254 . S
C134 O155 1.256 . S
C134 O156 1.244 . S
O135 Zn131 2.055 . S
O135 C157 1.259 . S
O136 Zn128 2.046 . S
O136 C157 1.254 . S
N137 Zn131 2.038 . S
N137 C138 1.297 1_554 S
N137 N140 1.398 1_554 S
C138 N137 1.297 1_556 S
C138 N141 1.367 . S
C138 C151 1.481 . S
C139 N140 1.299 . S
C139 N141 1.379 . S
N140 N137 1.398 1_556 S
N140 C139 1.299 . S
N141 C138 1.367 . S
N141 C139 1.379 . S
C142 N144 1.298 . S
C142 N146 1.367 . S
C142 C150 1.481 . S
C143 N145 1.299 . S
C143 N146 1.379 . S
N144 Zn128 2.036 . S
N144 C142 1.298 . S
N144 N145 1.398 . S
N145 C143 1.299 . S
N145 N144 1.398 . S
N146 C142 1.367 . S
N146 C143 1.379 . S
H147 C150 0.980 . S
H148 C150 0.981 . S
H149 C150 0.981 . S
C150 C142 1.481 . S
C150 H147 0.980 . S
C150 H148 0.981 . S
C150 H149 0.981 . S
C151 C138 1.481 . S
C151 H152 0.980 . S
C151 H153 0.981 . S
C151 H154 0.981 . S
H152 C151 0.980 . S
H153 C151 0.981 . S
H154 C151 0.981 . S
O155 Zn131 2.066 . S
O155 C134 1.256 . S
O156 Zn128 2.053 . S
O156 C134 1.244 . S
C157 O135 1.259 . S
C157 O136 1.254 . S
O158 Zn128 2.066 . S
O158 C130 1.256 . S
O159 C130 1.244 . S
O159 Zn131 2.053 . S
Zn160 O161 2.055 . S
Zn160 O168 2.046 . S
Zn160 N176 2.036 . S
Zn160 O188 2.053 . S
Zn160 O190 2.066 . S
O161 Zn160 2.055 . S
O161 C164 1.259 . S
C162 O190 1.256 . S
C162 O191 1.244 . S
Zn163 O165 2.046 . S
Zn163 O167 2.055 . S
Zn163 N169 2.036 . S
Zn163 O187 2.066 . S
Zn163 O191 2.053 . S
C164 O161 1.259 . S
C164 O165 1.254 . S
O165 Zn163 2.046 . S
O165 C164 1.254 . S
C166 O187 1.256 . S
C166 O188 1.244 . S
O167 Zn163 2.055 . S
O167 C189 1.259 . S
O168 Zn160 2.046 . S
O168 C189 1.254 . S
N169 Zn163 2.036 . S
N169 C170 1.298 1_554 S
N169 N172 1.398 . S
C170 N169 1.298 1_556 S
C170 N173 1.367 . S
C170 C183 1.481 . S
C171 N172 1.299 1_556 S
C171 N173 1.379 . S
N172 N169 1.398 . S
N172 C171 1.299 1_554 S
N173 C170 1.367 . S
N173 C171 1.379 . S
C174 N176 1.298 . S
C174 N178 1.367 . S
C174 C182 1.481 . S
C175 N177 1.299 . S
C175 N178 1.379 . S
N176 Zn160 2.036 . S
N176 C174 1.298 . S
N176 N177 1.398 . S
N177 C175 1.299 . S
N177 N176 1.398 . S
N178 C174 1.367 . S
N178 C175 1.379 . S
H179 C182 0.980 . S
H180 C182 0.981 . S
H181 C182 0.981 . S
C182 C174 1.481 . S
C182 H179 0.980 . S
C182 H180 0.981 . S
C182 H181 0.981 . S
C183 C170 1.481 . S
C183 H184 0.978 1_556 S
C183 H185 0.981 . S
C183 H186 0.981 . S
H184 C183 0.978 1_554 S
H185 C183 0.981 . S
H186 C183 0.981 . S
O187 Zn163 2.066 . S
O187 C166 1.256 . S
O188 Zn160 2.053 . S
O188 C166 1.244 . S
C189 O167 1.259 . S
C189 O168 1.254 . S
O190 Zn160 2.066 . S
O190 C162 1.256 . S
O191 C162 1.244 . S
O191 Zn163 2.053 . S
Zn192 O193 2.055 . S
Zn192 O200 2.046 . S
Zn192 N208 2.036 . S
Zn192 O220 2.053 . S
Zn192 O222 2.066 . S
O193 Zn192 2.055 . S
O193 C196 1.259 . S
C194 O222 1.256 . S
C194 O223 1.244 . S
Zn195 O197 2.046 . S
Zn195 O199 2.055 . S
Zn195 N201 2.036 . S
Zn195 O219 2.066 . S
Zn195 O223 2.053 . S
C196 O193 1.259 . S
C196 O197 1.254 . S
O197 Zn195 2.046 . S
O197 C196 1.254 . S
C198 O219 1.256 1_545 S
C198 O220 1.244 1_545 S
O199 Zn195 2.055 . S
O199 C221 1.259 . S
O200 Zn192 2.046 . S
O200 C221 1.254 . S
N201 Zn195 2.036 . S
N201 C202 1.298 . S
N201 N204 1.398 . S
C202 N201 1.298 . S
C202 N205 1.367 . S
C202 C215 1.481 . S
C203 N204 1.299 . S
C203 N205 1.379 . S
N204 N201 1.398 . S
N204 C203 1.299 . S
N205 C202 1.367 . S
N205 C203 1.379 . S
C206 N208 1.298 1_554 S
C206 N210 1.367 . S
C206 C214 1.481 . S
C207 N209 1.299 . S
C207 N210 1.379 1_545 S
N208 Zn192 2.036 . S
N208 C206 1.298 1_556 S
N208 N209 1.398 1_566 S
N209 C207 1.299 . S
N209 N208 1.398 1_544 S
N210 C206 1.367 . S
N210 C207 1.379 1_565 S
H211 C214 0.980 1_556 S
H212 C214 0.981 . S
H213 C214 0.981 . S
C214 C206 1.481 . S
C214 H211 0.980 1_554 S
C214 H212 0.981 . S
C214 H213 0.981 . S
C215 C202 1.481 . S
C215 H216 0.980 . S
C215 H217 0.981 . S
C215 H218 0.981 . S
H216 C215 0.980 . S
H217 C215 0.981 . S
H218 C215 0.981 . S
O219 Zn195 2.066 . S
O219 C198 1.256 1_565 S
O220 Zn192 2.053 . S
O220 C198 1.244 1_565 S
C221 O199 1.259 . S
C221 O200 1.254 . S
O222 Zn192 2.066 . S
O222 C194 1.256 . S
O223 C194 1.244 . S
O223 Zn195 2.053 . S
Zn224 O225 2.055 . S
Zn224 O232 2.046 . S
Zn224 N240 2.036 . S
Zn224 O252 2.053 . S
Zn224 O254 2.066 . S
O225 Zn224 2.055 . S
O225 C228 1.259 . S
C226 O254 1.256 . S
C226 O255 1.244 . S
Zn227 O229 2.046 . S
Zn227 O231 2.055 . S
Zn227 N233 2.036 . S
Zn227 O251 2.066 . S
Zn227 O255 2.053 . S
C228 O225 1.259 . S
C228 O229 1.254 . S
O229 Zn227 2.046 . S
O229 C228 1.254 . S
C230 O251 1.256 . S
C230 O252 1.244 . S
O231 Zn227 2.055 . S
O231 C253 1.259 . S
O232 Zn224 2.046 . S
O232 C253 1.254 . S
N233 Zn227 2.036 . S
N233 C234 1.298 . S
N233 N236 1.398 . S
C234 N233 1.298 . S
C234 N237 1.367 . S
C234 C247 1.481 . S
C235 N236 1.299 . S
C235 N237 1.379 . S
N236 N233 1.398 . S
N236 C235 1.299 . S
N237 C234 1.367 . S
N237 C235 1.379 . S
C238 N240 1.298 1_554 S
C238 N242 1.367 . S
C238 C246 1.481 . S
C239 N241 1.299 . S
C239 N242 1.379 . S
N240 Zn224 2.036 . S
N240 C238 1.298 1_556 S
N240 N241 1.398 1_556 S
N241 C239 1.299 . S
N241 N240 1.398 1_554 S
N242 C238 1.367 . S
N242 C239 1.379 . S
H243 C246 0.980 1_556 S
H244 C246 0.981 1_655 S
H245 C246 0.981 . S
C246 C238 1.481 . S
C246 H243 0.980 1_554 S
C246 H244 0.981 1_455 S
C246 H245 0.981 . S
C247 C234 1.481 . S
C247 H248 0.980 . S
C247 H249 0.981 . S
C247 H250 0.981 . S
H248 C247 0.980 . S
H249 C247 0.981 . S
H250 C247 0.981 . S
O251 Zn227 2.066 . S
O251 C230 1.256 . S
O252 Zn224 2.053 . S
O252 C230 1.244 . S
C253 O231 1.259 . S
C253 O232 1.254 . S
O254 Zn224 2.066 . S
O254 C226 1.256 . S
O255 C226 1.244 . S
O255 Zn227 2.053 . S
Zn256 O257 2.055 . S
Zn256 O264 2.046 . S
Zn256 N272 2.036 . S
Zn256 O284 2.053 . S
Zn256 O286 2.066 . S
O257 Zn256 2.055 . S
O257 C260 1.259 . S
C258 O286 1.256 . S
C258 O287 1.244 . S
Zn259 O261 2.046 . S
Zn259 O263 2.055 . S
Zn259 N265 2.036 . S
Zn259 O283 2.066 . S
Zn259 O287 2.053 . S
C260 O257 1.259 . S
C260 O261 1.254 . S
O261 Zn259 2.046 . S
O261 C260 1.254 . S
C262 O283 1.256 . S
C262 O284 1.244 . S
O263 Zn259 2.055 . S
O263 C285 1.259 . S
O264 Zn256 2.046 . S
O264 C285 1.254 . S
N265 Zn259 2.036 . S
N265 C266 1.298 . S
N265 N268 1.398 . S
C266 N265 1.298 . S
C266 N269 1.367 . S
C266 C279 1.481 . S
C267 N268 1.299 . S
C267 N269 1.379 . S
N268 N265 1.398 . S
N268 C267 1.299 . S
N269 C266 1.367 . S
N269 C267 1.379 . S
C270 N272 1.298 1_554 S
C270 N274 1.367 . S
C270 C278 1.481 . S
C271 N273 1.299 . S
C271 N274 1.379 . S
N272 Zn256 2.036 . S
N272 C270 1.298 1_556 S
N272 N273 1.398 1_556 S
N273 C271 1.299 . S
N273 N272 1.398 1_554 S
N274 C270 1.367 . S
N274 C271 1.379 . S
H275 C278 0.980 . S
H276 C278 0.981 . S
H277 C278 0.981 . S
C278 C270 1.481 . S
C278 H275 0.980 . S
C278 H276 0.981 . S
C278 H277 0.981 . S
C279 C266 1.481 . S
C279 H280 0.980 . S
C279 H281 0.981 . S
C279 H282 0.981 . S
H280 C279 0.980 . S
H281 C279 0.981 . S
H282 C279 0.981 . S
O283 Zn259 2.066 . S
O283 C262 1.256 . S
O284 Zn256 2.053 . S
O284 C262 1.244 . S
C285 O263 1.259 . S
C285 O264 1.254 . S
O286 Zn256 2.066 . S
O286 C258 1.256 . S
O287 C258 1.244 . S
O287 Zn259 2.053 . S
C6 C226 3.033 . S
C36 C285 3.035 . S
C66 C221 3.053 . S
C132 C68 2.630 . S
C164 C29 2.841 . S
C34 C125 2.962 . S
C228 C162 3.110 1_455 S
C262 C102 3.182 . S
C130 C198 3.442 . S
C93 C2 1.450 . S
C61 C4 1.523 1_566 S
C38 C70 1.543 1_654 S
C100 C166 1.546 . S
C98 C157 1.588 . S
C134 C189 1.565 . S
C260 C194 1.703 . S
C253 C196 1.525 . S
C258 C230 1.567 . S
N13 N18 2.936 1_655 S
N45 N50 2.481 . S
N82 N77 2.259 1_545 S
N109 N114 2.818 . S
N146 N141 2.663 . S
N178 N173 2.482 . S
N205 N210 3.037 . S
N242 N237 2.829 . S
N269 N274 2.334 . S
