# Generated by pormake.
# Topology lhb, (8)-cn, num edge types: 1
# Building blocks:
#     Node 0, Type 0, BuildingBlock: AJUNOK_clean_sbu_0, # of connection points: 8
#     Node 1, Type 0, BuildingBlock: AJUNOK_clean_sbu_0, # of connection points: 8
#     Node 2, Type 0, BuildingBlock: AJUNOK_clean_sbu_0, # of connection points: 8
#     Node 3, Type 0, BuildingBlock: AJUNOK_clean_sbu_0, # of connection points: 8
#     Node 4, Type 0, BuildingBlock: AJUNOK_clean_sbu_0, # of connection points: 8
#     Node 5, Type 0, BuildingBlock: AJUNOK_clean_sbu_0, # of connection points: 8
#     Node 6, Type 0, BuildingBlock: AJUNOK_clean_sbu_0, # of connection points: 8
#     Node 7, Type 0, BuildingBlock: AJUNOK_clean_sbu_0, # of connection points: 8
#     Edge 8, Type (0, 0), BuildingBlock: OJICUG_clean_linker_0, # of connection points: 2
#     Edge 9, Type (0, 0), BuildingBlock: OJICUG_clean_linker_0, # of connection points: 2
#     Edge 10, Type (0, 0), BuildingBlock: OJICUG_clean_linker_0, # of connection points: 2
#     Edge 11, Type (0, 0), BuildingBlock: OJICUG_clean_linker_0, # of connection points: 2
#     Edge 12, Type (0, 0), BuildingBlock: OJICUG_clean_linker_0, # of connection points: 2
#     Edge 13, Type (0, 0), BuildingBlock: OJICUG_clean_linker_0, # of connection points: 2
#     Edge 14, Type (0, 0), BuildingBlock: OJICUG_clean_linker_0, # of connection points: 2
#     Edge 15, Type (0, 0), BuildingBlock: OJICUG_clean_linker_0, # of connection points: 2
#     Edge 16, Type (0, 0), BuildingBlock: OJICUG_clean_linker_0, # of connection points: 2
#     Edge 17, Type (0, 0), BuildingBlock: OJICUG_clean_linker_0, # of connection points: 2
#     Edge 18, Type (0, 0), BuildingBlock: OJICUG_clean_linker_0, # of connection points: 2
#     Edge 19, Type (0, 0), BuildingBlock: OJICUG_clean_linker_0, # of connection points: 2
#     Edge 20, Type (0, 0), BuildingBlock: OJICUG_clean_linker_0, # of connection points: 2
#     Edge 21, Type (0, 0), BuildingBlock: OJICUG_clean_linker_0, # of connection points: 2
#     Edge 22, Type (0, 0), BuildingBlock: OJICUG_clean_linker_0, # of connection points: 2
#     Edge 23, Type (0, 0), BuildingBlock: OJICUG_clean_linker_0, # of connection points: 2
#     Edge 24, Type (0, 0), BuildingBlock: OJICUG_clean_linker_0, # of connection points: 2
#     Edge 25, Type (0, 0), BuildingBlock: OJICUG_clean_linker_0, # of connection points: 2
#     Edge 26, Type (0, 0), BuildingBlock: OJICUG_clean_linker_0, # of connection points: 2
#     Edge 27, Type (0, 0), BuildingBlock: OJICUG_clean_linker_0, # of connection points: 2
#     Edge 28, Type (0, 0), BuildingBlock: OJICUG_clean_linker_0, # of connection points: 2
#     Edge 29, Type (0, 0), BuildingBlock: OJICUG_clean_linker_0, # of connection points: 2
#     Edge 30, Type (0, 0), BuildingBlock: OJICUG_clean_linker_0, # of connection points: 2
#     Edge 31, Type (0, 0), BuildingBlock: OJICUG_clean_linker_0, # of connection points: 2
#     Edge 32, Type (0, 0), BuildingBlock: OJICUG_clean_linker_0, # of connection points: 2
#     Edge 33, Type (0, 0), BuildingBlock: OJICUG_clean_linker_0, # of connection points: 2
#     Edge 34, Type (0, 0), BuildingBlock: OJICUG_clean_linker_0, # of connection points: 2
#     Edge 35, Type (0, 0), BuildingBlock: OJICUG_clean_linker_0, # of connection points: 2
#     Edge 36, Type (0, 0), BuildingBlock: OJICUG_clean_linker_0, # of connection points: 2
#     Edge 37, Type (0, 0), BuildingBlock: OJICUG_clean_linker_0, # of connection points: 2
#     Edge 38, Type (0, 0), BuildingBlock: OJICUG_clean_linker_0, # of connection points: 2
#     Edge 39, Type (0, 0), BuildingBlock: OJICUG_clean_linker_0, # of connection points: 2
# Relax obj value: 0.059
# Max RMSD: 0.150
# Mean RMSD: 0.150
data_MOF--net-lhb--node1-AJUNOK_clean_sbu_0--edge1-OJICUG_clean_linker_0
_symmetry_space_group_name_H-M    P1
_symmetry_Int_Tables_number       1
_symmetry_cell_setting            triclinic
loop_
_symmetry_equiv_pos_as_xyz
'x, y, z'
_cell_length_a     29.597501
_cell_length_b     10.1041
_cell_length_c     60.635919
_cell_angle_alpha  90.085883
_cell_angle_beta   90.228905
_cell_angle_gamma 90.006436
loop_
_atom_site_label
_atom_site_type_symbol
_atom_site_fract_x
_atom_site_fract_y
_atom_site_fract_z
_atom_type_partial_charge
Cd0 Cd 0.0217 -0.03727 0.01813 0.0
Cd1 Cd 0.86886 0.88346 0.0181 0.0
C2 C 0.01677 0.79386 0.97363 0.0
N3 N 0.00352 0.91275 0.98186 0.0
C4 C -0.01346 -0.0081 0.94567 0.0
C5 C 0.00217 0.87218 0.93664 0.0
C6 C 0.01591 0.77087 0.951 0.0
C7 C -0.01234 0.01035 0.96851 0.0
H8 H 0.03098 0.71976 0.98443 0.0
H9 H -0.02177 0.10488 0.97552 0.0
C10 C 0.91799 0.15125 0.02467 0.0
C11 C 0.87095 0.92223 0.07052 0.0
C12 C 0.85858 0.90166 0.09241 0.0
C13 C 0.83582 0.78473 0.0983 0.0
C14 C 0.82781 0.68871 0.08199 0.0
C15 C 0.84059 0.71369 0.06029 0.0
N16 N 0.86103 0.82979 0.05497 0.0
H17 H 0.88662 0.01445 0.06578 0.0
H18 H 0.83253 0.64246 0.04758 0.0
C19 C 0.8673 0.03742 0.97327 0.0
N20 N 0.88079 0.91734 0.98087 0.0
C21 C 0.88387 0.83138 0.94416 0.0
C22 C 0.86703 0.95209 0.93614 0.0
C23 C 0.86046 0.05726 0.95085 0.0
C24 C 0.8902 0.81556 0.96691 0.0
H25 H 0.85848 0.11516 0.98468 0.0
H26 H 0.89965 0.72004 0.97352 0.0
C27 C -0.02662 0.6974 0.02446 0.0
C28 C 0.10296 0.08201 1.00481 0.0
N29 N 0.0389 -0.01422 0.05537 0.0
C30 C 0.08107 0.94698 0.0615 0.0
C31 C 0.09703 -0.02724 0.08273 0.0
C32 C 0.06925 0.0389 0.09789 0.0
C33 C 0.02521 0.07415 0.09129 0.0
C34 C 0.01067 0.04677 0.06979 0.0
C35 C 0.78102 0.79477 1.00872 0.0
O36 O -0.05361 0.05847 0.02217 0.0
O37 O 0.87653 0.12006 0.02513 0.0
O38 O -0.0546 0.79141 0.02175 0.0
O39 O 0.015 0.72706 0.02532 0.0
O40 O 0.06788 0.15172 1.00828 0.0
O41 O 0.09942 0.95764 1.00723 0.0
O42 O 0.81452 0.71629 1.0071 0.0
O43 O 0.78904 0.91325 1.0146 0.0
H44 H 0.1029 0.89939 0.04964 0.0
H45 H -0.02265 0.07717 0.06448 0.0
H46 H -0.02468 0.07212 0.93517 0.0
H47 H 0.0292 0.67825 0.94478 0.0
H48 H 0.865 -0.02081 0.10437 0.0
H49 H 0.81104 0.5964 0.08586 0.0
H50 H 0.88912 0.74814 0.93319 0.0
H51 H 0.84763 0.15174 0.94516 0.0
H52 H 0.13132 0.94497 0.08696 0.0
H53 H 0.00235 0.12327 0.10254 0.0
Cd54 Cd 0.27922 0.19428 0.26693 0.0
Cd55 Cd 0.12551 0.2714 0.26837 0.0
C56 C 0.26223 0.35154 0.22229 0.0
N57 N 0.25662 0.22856 0.23086 0.0
C58 C 0.24503 0.13726 0.19494 0.0
C59 C 0.25316 0.26215 0.18556 0.0
C60 C 0.26021 0.37088 0.1996 0.0
C61 C 0.24702 0.12256 0.21783 0.0
H62 H 0.27147 0.4332 0.23289 0.0
H63 H 0.24365 0.02544 0.22514 0.0
C64 C 0.1759 0.00724 0.27616 0.0
C65 C 0.06638 0.21836 0.31082 0.0
C66 C 0.04825 0.23535 0.33183 0.0
C67 C 0.07082 0.31572 0.34724 0.0
C68 C 0.11218 0.37386 0.34119 0.0
C69 C 0.12902 0.35449 0.31994 0.0
N70 N 0.10567 0.27909 0.30525 0.0
H71 H 0.0483 0.16031 0.29867 0.0
H72 H 0.15998 0.40254 0.31496 0.0
C73 C 0.12655 0.08823 0.2248 0.0
N74 N 0.1361 0.21349 0.23159 0.0
C75 C 0.13967 0.28802 0.19424 0.0
C76 C 0.12818 0.16049 0.18679 0.0
C77 C 0.1229 0.05919 0.2024 0.0
C78 C 0.14345 0.31246 0.21687 0.0
H79 H 0.11894 0.01214 0.23668 0.0
H80 H 0.15 0.41177 0.22276 0.0
C81 C 0.23022 0.46056 0.27555 0.0
C82 C 0.3622 0.0932 0.2519 0.0
N83 N 0.30004 0.15052 0.3032 0.0
C84 C 0.34375 0.17903 0.30827 0.0
C85 C 0.36157 0.14583 0.32881 0.0
C86 C 0.33402 0.08397 0.3445 0.0
C87 C 0.28866 0.05757 0.33895 0.0
C88 C 0.27229 0.0915 0.31804 0.0
C89 C 0.04288 0.39252 0.25716 0.0
O90 O 0.20386 0.09996 0.27255 0.0
O91 O 0.13437 0.03753 0.27692 0.0
O92 O 0.20134 0.36906 0.27254 0.0
O93 O 0.27169 0.4287 0.27536 0.0
O94 O 0.32891 0.01683 0.25569 0.0
O95 O 0.35593 0.21676 0.25438 0.0
O96 O 0.07748 0.46317 0.26138 0.0
O97 O 0.04775 0.26777 0.25766 0.0
H98 H 0.36515 0.22596 0.29622 0.0
H99 H 0.23768 0.06962 0.31363 0.0
H100 H 0.23907 0.05116 0.18467 0.0
H101 H 0.26755 0.46831 0.19312 0.0
H102 H 0.01613 0.18969 0.33566 0.0
H103 H 0.13112 0.43467 0.35268 0.0
H104 H 0.14444 0.3687 0.18275 0.0
H105 H 0.11307 -0.0398 0.19747 0.0
H106 H 0.39681 0.1668 0.33219 0.0
H107 H 0.26592 0.01223 0.35066 0.0
Cd108 Cd 0.62128 0.75813 0.2678 0.0
Cd109 Cd 0.77445 0.67828 0.26913 0.0
C110 C 0.62733 0.592 0.22299 0.0
N111 N 0.63894 0.71218 0.23135 0.0
C112 C 0.64936 0.79904 0.19512 0.0
C113 C 0.63452 0.67848 0.18603 0.0
C114 C 0.62536 0.5725 0.20028 0.0
C115 C 0.65113 0.81402 0.21803 0.0
H116 H 0.61607 0.51409 0.23382 0.0
H117 H 0.65924 0.90935 0.22517 0.0
C118 C 0.72505 0.94604 0.27584 0.0
C119 C 0.76845 0.68554 0.3217 0.0
C120 C 0.77999 0.65516 0.34343 0.0
C121 C 0.80542 0.54058 0.34796 0.0
C122 C 0.81694 0.45641 0.33044 0.0
C123 C 0.80489 0.491 0.30897 0.0
N124 N 0.78169 0.60477 0.30503 0.0
H125 H 0.75078 0.77659 0.318 0.0
H126 H 0.81568 0.42944 0.29541 0.0
C127 C 0.76848 0.82774 0.22392 0.0
N128 N 0.7583 0.70666 0.23222 0.0
C129 C 0.7548 0.61367 0.19603 0.0
C130 C 0.76906 0.73523 0.18727 0.0
C131 C 0.77366 0.84458 0.20135 0.0
C132 C 0.74991 0.60115 0.21887 0.0
H133 H 0.77625 0.90888 0.2349 0.0
H134 H 0.74298 0.50532 0.22604 0.0
C135 C 0.66988 0.49274 0.2747 0.0
C136 C 0.53971 0.87499 0.2539 0.0
N137 N 0.60191 0.77849 0.30474 0.0
C138 C 0.55952 0.7386 0.31013 0.0
C139 C 0.54255 0.76209 0.33119 0.0
C140 C 0.56955 0.82697 0.34693 0.0
C141 C 0.61379 0.86364 0.34107 0.0
C142 C 0.62935 0.83863 0.31972 0.0
C143 C 0.86258 0.59561 0.25868 0.0
O144 O 0.69658 0.85369 0.27291 0.0
O145 O 0.76648 0.91436 0.27678 0.0
O146 O 0.69788 0.58683 0.27224 0.0
O147 O 0.62825 0.5223 0.27507 0.0
O148 O 0.57394 0.94669 0.25837 0.0
O149 O 0.54432 0.75051 0.25565 0.0
O150 O 0.82893 0.51874 0.25592 0.0
O151 O 0.85472 0.71091 0.26616 0.0
H152 H 0.53834 0.69165 0.29785 0.0
H153 H 0.66286 0.86991 0.31498 0.0
H154 H 0.65716 0.8828 0.18469 0.0
H155 H 0.61299 0.4787 0.19405 0.0
H156 H 0.7709 0.72396 0.35638 0.0
H157 H 0.83593 0.36632 0.33321 0.0
H158 H 0.75111 0.52717 0.18561 0.0
H159 H 0.78427 0.94002 0.1951 0.0
H160 H 0.50815 0.73324 0.33485 0.0
H161 H 0.63609 0.91179 0.35279 0.0
Cd162 Cd 0.01915 0.50133 0.5181 0.0
Cd163 Cd 0.86729 0.42343 0.51868 0.0
C164 C 0.02152 0.32826 0.47389 0.0
N165 N 0.00561 0.44597 0.48145 0.0
C166 C -0.00924 0.51869 0.44464 0.0
C167 C 0.00882 0.39996 0.43636 0.0
C168 C 0.02297 0.30254 0.45135 0.0
C169 C -0.01039 0.53994 0.46743 0.0
H170 H 0.03594 0.25733 0.4852 0.0
H171 H -0.02188 0.63387 0.4739 0.0
C172 C 0.91557 0.69157 0.52508 0.0
C173 C 0.87367 0.43704 0.57116 0.0
C174 C 0.86232 0.40951 0.59298 0.0
C175 C 0.8372 0.29509 0.5979 0.0
C176 C 0.82591 0.20799 0.58068 0.0
C177 C 0.83785 0.23969 0.5591 0.0
N178 N 0.8606 0.35359 0.55478 0.0
H179 H 0.89098 0.52809 0.56716 0.0
H180 H 0.82726 0.17595 0.54573 0.0
C181 C 0.87178 0.5691 0.47332 0.0
N182 N 0.88311 0.44924 0.48177 0.0
C183 C 0.88669 0.35454 0.44572 0.0
C184 C 0.87141 0.47474 0.43683 0.0
C185 C 0.86605 0.58437 0.45073 0.0
C186 C 0.89204 0.3435 0.46858 0.0
H187 H 0.86347 0.65018 0.48417 0.0
H188 H 0.8998 0.24852 0.47588 0.0
C189 C -0.02879 0.23697 0.52428 0.0
C190 C 0.10098 0.62968 0.50842 0.0
N191 N 0.03199 0.49251 0.55572 0.0
C192 C 0.06948 0.42683 0.56266 0.0
C193 C 0.08193 0.42908 0.58486 0.0
C194 C 0.05557 0.50018 0.60001 0.0
C195 C 0.0163 0.56419 0.5924 0.0
C196 C 0.00511 0.5592 0.57004 0.0
C197 C 0.77944 0.34276 0.50789 0.0
O198 O 0.94413 0.59937 0.52239 0.0
O199 O 0.87421 0.65967 0.52583 0.0
O200 O 0.94358 0.33197 0.5218 0.0
O201 O 0.01291 0.26516 0.52463 0.0
O202 O 0.06552 0.69715 0.51213 0.0
O203 O 0.09755 0.50463 0.50919 0.0
O204 O 0.81274 0.2642 0.50565 0.0
O205 O 0.78757 0.45832 0.51519 0.0
H206 H 0.09027 0.37511 0.55082 0.0
H207 H -0.02423 0.61174 0.56402 0.0
H208 H -0.02078 0.59603 0.43363 0.0
H209 H 0.03813 0.21101 0.44575 0.0
H210 H 0.87125 0.48049 0.60566 0.0
H211 H 0.80715 0.11792 0.58376 0.0
H212 H 0.89092 0.268 0.43537 0.0
H213 H 0.85442 0.67854 0.44434 0.0
H214 H 0.11209 0.3769 0.59006 0.0
H215 H -0.0047 0.6216 0.60344 0.0
Cd216 Cd 0.11883 0.76375 0.76873 0.0
Cd217 Cd 0.27372 0.68619 0.7673 0.0
C218 C 0.09589 0.56495 0.72975 0.0
N219 N 0.12254 0.67205 0.7337 0.0
C220 C 0.13826 0.69415 0.6953 0.0
C221 C 0.10923 0.58728 0.69068 0.0
C222 C 0.08908 0.51997 0.7083 0.0
C223 C 0.14421 0.73583 0.71711 0.0
H224 H 0.07781 0.51875 0.74315 0.0
H225 H 0.16419 0.82295 0.72072 0.0
C226 C 0.22357 0.95256 0.7744 0.0
C227 C 0.28432 0.7306 0.81964 0.0
C228 C 0.30056 0.70764 0.84093 0.0
C229 C 0.32088 0.58563 0.84599 0.0
C230 C 0.32287 0.48762 0.82961 0.0
C231 C 0.3064 0.51499 0.80854 0.0
N232 N 0.28814 0.63533 0.80392 0.0
H233 H 0.27011 0.8259 0.81547 0.0
H234 H 0.3099 0.44187 0.79566 0.0
C235 C 0.27292 0.84551 0.72273 0.0
N236 N 0.26012 0.72482 0.73032 0.0
C237 C 0.25731 0.6384 0.69365 0.0
C238 C 0.27379 0.75945 0.68564 0.0
C239 C 0.27967 0.86531 0.70031 0.0
C240 C 0.25108 0.62265 0.71636 0.0
H241 H 0.28156 0.92365 0.73413 0.0
H242 H 0.24227 0.52668 0.72297 0.0
C243 C 0.17005 0.49997 0.77576 0.0
C244 C 0.04098 0.90482 0.75615 0.0
N245 N 0.09646 0.76235 0.80515 0.0
C246 C 0.056 0.70632 0.81008 0.0
C247 C 0.03757 0.72143 0.83107 0.0
C248 C 0.06107 0.7952 0.84706 0.0
C249 C 0.1036 0.84802 0.84166 0.0
C250 C 0.1207 0.83064 0.82044 0.0
C251 C 0.35972 0.59315 0.75579 0.0
O252 O 0.19477 0.86032 0.77199 0.0
O253 O 0.26503 0.92108 0.77445 0.0
O254 O 0.1979 0.59334 0.7724 0.0
O255 O 0.12863 0.53021 0.77729 0.0
O256 O 0.07751 -0.03256 0.75995 0.0
O257 O 0.04185 0.77995 0.758 0.0
O258 O 0.32546 0.51703 0.75479 0.0
O259 O 0.3533 0.71181 0.76203 0.0
H260 H 0.03731 0.6538 0.79745 0.0
H261 H 0.15264 0.87486 0.81595 0.0
H262 H 0.15406 0.74967 0.68215 0.0
H263 H 0.06676 0.43663 0.70546 0.0
H264 H 0.29773 0.78503 0.85323 0.0
H265 H 0.33856 0.39268 0.8328 0.0
H266 H 0.25262 0.55447 0.68275 0.0
H267 H 0.29211 -0.03982 0.69465 0.0
H268 H 0.00461 0.67984 0.83448 0.0
H269 H 0.12324 0.90341 0.85362 0.0
Cd270 Cd 0.62302 0.28307 0.76782 0.0
Cd271 Cd 0.77638 0.20323 0.76878 0.0
C272 C 0.62448 0.10906 0.7238 0.0
N273 N 0.63824 0.22965 0.73119 0.0
C274 C 0.65078 0.30261 0.69422 0.0
C275 C 0.63469 0.18076 0.68614 0.0
C276 C 0.62294 0.08193 0.70131 0.0
C277 C 0.65219 0.32522 0.71699 0.0
H278 H 0.61164 0.0365 0.73521 0.0
H279 H 0.66198 0.42129 0.72329 0.0
C280 C 0.72708 0.47142 0.77478 0.0
C281 C 0.76852 0.19437 0.82149 0.0
C282 C 0.77914 0.15788 0.84309 0.0
C283 C 0.80599 0.04515 0.84698 0.0
C284 C 0.82005 -0.03073 0.82886 0.0
C285 C 0.80895 0.00996 0.80757 0.0
N286 N 0.78408 0.12146 0.80431 0.0
H287 H 0.74945 0.2838 0.81836 0.0
H288 H 0.8215 0.95449 0.79365 0.0
C289 C 0.77073 0.34286 0.72297 0.0
N290 N 0.75939 0.22411 0.73181 0.0
C291 C 0.75524 0.12528 0.69605 0.0
C292 C 0.77077 0.24406 0.68679 0.0
C293 C 0.77635 0.35532 0.70034 0.0
C294 C 0.75007 0.11703 0.71894 0.0
H295 H 0.77924 0.42505 0.7336 0.0
H296 H 0.74229 0.02299 0.72654 0.0
C297 C 0.67197 0.01831 0.77451 0.0
C298 C 0.53932 0.38935 0.75523 0.0
N299 N 0.60873 0.32027 0.80518 0.0
C300 C 0.62172 0.23183 0.82084 0.0
C301 C 0.60768 0.2477 0.84267 0.0
C302 C 0.58018 0.35604 0.84844 0.0
C303 C 0.56861 0.44767 0.83199 0.0
C304 C 0.58305 0.42736 0.8104 0.0
C305 C 0.86423 0.12507 0.75737 0.0
O306 O 0.69855 0.37885 0.77218 0.0
O307 O 0.76848 0.4397 0.7758 0.0
O308 O 0.69985 0.11278 0.77214 0.0
O309 O 0.63036 0.04766 0.77523 0.0
O310 O 0.57438 0.46252 0.75558 0.0
O311 O 0.54413 0.26851 0.76046 0.0
O312 O 0.83052 0.04885 0.75434 0.0
O313 O 0.85668 0.23821 0.7658 0.0
H314 H 0.64188 0.14694 0.8163 0.0
H315 H 0.57284 0.49613 0.79772 0.0
H316 H 0.66043 0.38118 0.68306 0.0
H317 H 0.6094 -0.01225 0.69586 0.0
H318 H 0.76804 0.22061 0.85651 0.0
H319 H 0.84014 0.88067 0.83105 0.0
H320 H 0.75081 0.03752 0.68599 0.0
H321 H 0.78809 0.44853 0.69366 0.0
H322 H 0.61715 0.17363 0.85472 0.0
H323 H 0.54834 0.53407 0.83567 0.0
Cd324 Cd 0.51786 0.02322 0.51815 0.0
Cd325 Cd 0.36569 0.94478 0.51668 0.0
C326 C 0.51405 0.84933 0.47358 0.0
N327 N 0.50477 -0.02712 0.48123 0.0
C328 C 0.4989 0.05562 0.44443 0.0
C329 C 0.51021 0.93009 0.43609 0.0
C330 C 0.51646 0.82538 0.45099 0.0
C331 C 0.49638 0.07491 0.46722 0.0
H332 H 0.52248 0.77081 0.48491 0.0
H333 H 0.49009 0.17278 0.47378 0.0
C334 C 0.41382 0.21294 0.52364 0.0
C335 C 0.37314 -0.03358 0.56928 0.0
C336 C 0.36243 0.94014 0.59123 0.0
C337 C 0.33821 0.8247 0.59653 0.0
C338 C 0.32727 0.73541 0.57958 0.0
C339 C 0.33839 0.76604 0.55788 0.0
N340 N 0.36024 0.88082 0.55316 0.0
H341 H 0.38983 0.05795 0.56498 0.0
H342 H 0.32789 0.70052 0.54475 0.0
C343 C 0.37969 0.08614 0.47073 0.0
N344 N 0.38525 -0.03506 0.47998 0.0
C345 C 0.39516 0.8658 0.44455 0.0
C346 C 0.38745 -0.01089 0.43451 0.0
C347 C 0.38103 0.10074 0.44795 0.0
C348 C 0.39388 0.85587 0.46754 0.0
H349 H 0.37145 0.17038 0.48092 0.0
H350 H 0.39732 0.76031 0.47538 0.0
C351 C 0.46937 0.75905 0.52467 0.0
C352 C 0.59937 0.14371 0.50622 0.0
N353 N 0.53734 0.03701 0.55522 0.0
C354 C 0.57819 -0.01462 0.56082 0.0
C355 C 0.59615 0.00635 0.58183 0.0
C356 C 0.5718 0.08134 0.59726 0.0
C357 C 0.52893 0.12993 0.5912 0.0
C358 C 0.51227 0.10671 0.56993 0.0
C359 C 0.27825 0.85382 0.50673 0.0
O360 O 0.44242 0.12029 0.52144 0.0
O361 O 0.37232 0.18172 0.52342 0.0
O362 O 0.44173 0.85342 0.52156 0.0
O363 O 0.51095 0.78816 0.52586 0.0
O364 O 0.56519 0.2145 0.51101 0.0
O365 O 0.59454 0.01894 0.50666 0.0
O366 O 0.31254 0.77927 0.50442 0.0
O367 O 0.28514 -0.02832 0.51328 0.0
H368 H 0.59756 0.93157 0.54867 0.0
H369 H 0.48001 0.14742 0.56497 0.0
H370 H 0.49348 0.13881 0.43349 0.0
H371 H 0.5262 0.72775 0.44535 0.0
H372 H 0.37111 0.01259 0.60372 0.0
H373 H 0.30929 0.64435 0.58296 0.0
H374 H 0.40048 0.77759 0.43473 0.0
H375 H 0.37405 0.19712 0.44093 0.0
H376 H 0.62943 -0.03194 0.58567 0.0
H377 H 0.50866 0.18631 0.60269 0.0
Cd378 Cd 0.51199 0.51742 0.01958 0.0
Cd379 Cd 0.35875 0.43949 0.01713 0.0
C380 C 0.51678 0.3471 0.97571 0.0
N381 N 0.50201 0.46786 0.98244 0.0
C382 C 0.49797 0.54325 0.94513 0.0
C383 C 0.51589 0.42192 0.93792 0.0
C384 C 0.52362 0.32159 0.95342 0.0
C385 C 0.49155 0.56467 0.96772 0.0
H386 H 0.52646 0.2733 0.98767 0.0
H387 H 0.48102 0.66095 0.9736 0.0
C388 C 0.40704 0.70542 0.02442 0.0
C389 C 0.29637 0.45101 0.05917 0.0
C390 C 0.27926 0.42446 0.08007 0.0
C391 C 0.30675 0.36178 0.09581 0.0
C392 C 0.35155 0.33024 0.09011 0.0
C393 C 0.36721 0.35799 0.06891 0.0
N394 N 0.33933 0.41595 0.05392 0.0
H395 H 0.27487 0.4965 0.0469 0.0
H396 H 0.40119 0.33063 0.0643 0.0
C397 C 0.36848 0.6005 0.97225 0.0
N398 N 0.3789 0.48062 0.981 0.0
C399 C 0.39348 0.39173 0.94523 0.0
C400 C 0.38036 0.51247 0.93566 0.0
C401 C 0.36944 0.61908 0.94953 0.0
C402 C 0.39238 0.37778 0.96814 0.0
H403 H 0.35623 0.67917 0.9827 0.0
H404 H 0.39959 0.28283 0.97559 0.0
C405 C 0.4619 0.25175 0.02605 0.0
C406 C 0.59836 0.61127 1.00891 0.0
N407 N 0.52633 0.5652 0.05652 0.0
C408 C 0.5235 0.46859 0.07203 0.0
C409 C 0.54121 0.48956 0.09314 0.0
C410 C 0.56203 0.61094 0.09824 0.0
C411 C 0.56266 0.71063 0.08216 0.0
C412 C 0.54471 0.6853 0.06129 0.0
C413 C 0.27746 0.32097 1.00336 0.0
O414 O 0.43543 0.61199 0.02217 0.0
O415 O 0.36543 0.6752 0.02435 0.0
O416 O 0.43376 0.3445 0.02284 0.0
O417 O 0.50332 0.28263 0.02727 0.0
O418 O 0.56441 0.68858 1.00796 0.0
O419 O 0.59133 0.49202 1.01454 0.0
O420 O 0.31222 0.25101 1.0075 0.0
O421 O 0.28146 0.44576 1.00501 0.0
H422 H 0.50921 0.37343 0.0678 0.0
H423 H 0.54752 0.75961 0.0486 0.0
H424 H 0.49181 0.62323 0.93363 0.0
H425 H 0.53719 0.22656 0.94846 0.0
H426 H 0.24446 0.44951 0.08363 0.0
H427 H 0.37424 0.28419 0.10187 0.0
H428 H 0.40249 0.30752 0.93509 0.0
H429 H 0.35823 0.71298 0.94288 0.0
H430 H 0.53938 0.41083 0.1052 0.0
H431 H 0.57868 0.80518 0.08534 0.0
C432 C 0.0757 0.19518 0.13001 0.0
C433 C 0.08651 0.07298 0.12025 0.0
H434 H 0.0805 0.31877 0.15858 0.0
C435 C 0.11407 -0.01608 0.13199 0.0
H436 H 0.05531 0.26717 0.12127 0.0
C437 C 0.1293 0.01471 0.15322 0.0
C438 C 0.1172 0.135 0.16325 0.0
H439 H 0.12296 0.88875 0.12501 0.0
H440 H 0.14994 0.94323 0.16195 0.0
C441 C 0.09085 0.22581 0.15126 0.0
C442 C 0.84504 0.8095 0.13911 0.0
C443 C 0.81903 0.76603 0.1211 0.0
H444 H 0.84943 0.83317 0.17404 0.0
C445 C 0.77635 0.70897 0.12505 0.0
H446 H 0.87837 0.85118 0.13672 0.0
C447 C 0.75988 0.69756 0.14656 0.0
C448 C 0.78559 0.74451 0.16439 0.0
H449 H 0.75521 0.67593 0.1115 0.0
H450 H 0.72681 0.65474 0.14923 0.0
C451 C 0.82845 0.79925 0.16048 0.0
C452 C 0.03782 0.48735 0.40049 0.0
C453 C 0.01851 0.38308 0.41252 0.0
H454 H 0.06915 0.54815 0.37044 0.0
C455 C 0.01362 0.2588 0.40234 0.0
H456 H 0.04249 0.58402 0.40789 0.0
C457 C 0.02979 0.23748 0.38102 0.0
C458 C 0.05107 0.34015 0.36937 0.0
H459 H -0.00157 0.17687 0.41111 0.0
H460 H 0.02703 0.13921 0.37399 0.0
C461 C 0.05389 0.46614 0.37915 0.0
C462 C 0.86574 0.46505 0.3745 0.0
C463 C 0.82168 0.51323 0.37067 0.0
H464 H 0.91624 0.41463 0.39867 0.0
C465 C 0.7939 0.54129 0.38878 0.0
H466 H 0.8882 0.44377 0.36089 0.0
C467 C 0.81024 0.52664 0.41018 0.0
C468 C 0.85456 0.48254 0.41398 0.0
H469 H 0.75954 0.57557 0.38644 0.0
H470 H 0.78819 0.55039 0.42386 0.0
C471 C 0.88198 0.44901 0.39604 0.0
C472 C 0.03777 0.5099 0.64037 0.0
C473 C 0.06992 0.51266 0.62341 0.0
H474 H 0.02494 0.53245 0.6748 0.0
C475 C 0.11566 0.53297 0.62889 0.0
H476 H 0.00238 0.49279 0.63674 0.0
C477 C 0.12871 0.55355 0.65081 0.0
C478 C 0.09635 0.55461 0.66765 0.0
H479 H 0.14127 0.53679 0.6162 0.0
H480 H 0.16404 0.56956 0.65458 0.0
C481 C 0.05082 0.5309 0.66223 0.0
C482 C 0.76053 0.21094 0.64605 0.0
C483 C 0.78771 0.24849 0.66397 0.0
H484 H 0.75459 0.19871 0.61091 0.0
C485 C 0.83199 0.29262 0.66017 0.0
H486 H 0.72634 0.17635 0.64867 0.0
C487 C 0.84847 0.30335 0.63878 0.0
C488 C 0.82089 0.27127 0.62067 0.0
H489 H 0.85392 0.3193 0.67383 0.0
H490 H 0.88277 0.3378 0.63645 0.0
C491 C 0.7769 0.22303 0.62452 0.0
C492 C 0.01872 0.71675 0.88041 0.0
C493 C 0.04123 0.81871 0.86916 0.0
H494 H -0.01257 0.65483 0.91046 0.0
C495 C 0.04577 0.94282 0.87942 0.0
H496 H 0.01456 0.62006 0.87294 0.0
C497 C 0.03053 -0.03761 0.90092 0.0
C498 C 0.01035 0.85828 0.91264 0.0
H499 H 0.06198 0.02434 0.87099 0.0
H500 H 0.03674 0.05722 0.90871 0.0
C501 C 0.00341 0.7364 0.90193 0.0
C502 C 0.86508 -0.03612 0.87377 0.0
C503 C 0.82096 0.01097 0.86969 0.0
H504 H 0.91431 0.90746 0.89815 0.0
C505 C 0.79182 0.0306 0.88761 0.0
H506 H 0.88865 0.94909 0.86037 0.0
C507 C 0.80687 0.00885 0.9091 0.0
C508 C 0.85122 -0.03429 0.91316 0.0
H509 H 0.75739 0.06369 0.88508 0.0
H510 H 0.78383 0.02656 0.92263 0.0
C511 C 0.87998 0.94058 0.89535 0.0
C512 C 0.63174 0.03766 0.65227 0.0
C513 C 0.62441 0.16109 0.66237 0.0
H514 H 0.62025 0.91481 0.62405 0.0
C515 C 0.60218 0.26071 0.65035 0.0
H516 H 0.64913 -0.0407 0.66104 0.0
C517 C 0.58581 0.23551 0.62911 0.0
C518 C 0.59134 0.11018 0.61938 0.0
H519 H 0.59557 0.35646 0.65771 0.0
H520 H 0.56832 0.3139 0.62041 0.0
C521 C 0.61538 0.01245 0.63103 0.0
C522 C 0.34973 0.83565 0.63745 0.0
C523 C 0.32231 0.80151 0.61938 0.0
H524 H 0.35571 0.84827 0.67254 0.0
C525 C 0.27885 0.74985 0.6233 0.0
H526 H 0.38361 0.87334 0.63505 0.0
C527 C 0.26303 0.7345 0.64483 0.0
C528 C 0.29016 0.77178 0.66277 0.0
H529 H 0.25654 0.72448 0.60973 0.0
H530 H 0.22928 0.69686 0.64744 0.0
C531 C 0.33377 0.82128 0.6589 0.0
C532 C 0.57497 0.3543 0.91093 0.0
C533 C 0.53144 0.40424 0.91493 0.0
H534 H 0.62483 0.30317 0.88704 0.0
C535 C 0.50392 0.43912 0.89698 0.0
H536 H 0.59727 0.32912 0.92451 0.0
C537 C 0.51954 0.42269 0.87539 0.0
C538 C 0.56325 0.37279 0.87136 0.0
H539 H 0.47019 0.47729 0.89963 0.0
H540 H 0.4971 0.44764 0.86188 0.0
C541 C 0.59074 0.33919 0.88944 0.0
C542 C 0.34831 0.42193 0.90053 0.0
C543 C 0.3717 0.5233 0.91165 0.0
H544 H 0.31326 0.36307 0.87119 0.0
C545 C 0.38141 0.64118 0.90035 0.0
H546 H 0.3397 0.33068 0.90887 0.0
C547 C 0.36582 0.66019 0.87883 0.0
C548 C 0.34038 0.56148 0.86815 0.0
H549 H 0.39999 0.72018 0.90838 0.0
H550 H 0.37311 0.75297 0.87066 0.0
C551 C 0.33285 0.44079 0.87899 0.0
C552 C 0.61022 0.53203 0.12971 0.0
C553 C 0.58397 0.63235 0.11999 0.0
H554 H 0.64833 0.46967 0.15794 0.0
C555 C 0.57862 0.75286 0.13126 0.0
H556 H 0.61591 0.4393 0.12118 0.0
C557 C 0.59733 0.77043 0.15224 0.0
C558 C 0.62189 0.66795 0.16239 0.0
H559 H 0.55846 0.83184 0.12424 0.0
H560 H 0.5905 0.86191 0.16094 0.0
C561 C 0.62904 0.54972 0.15067 0.0
C562 C 0.24599 0.39248 0.15055 0.0
C563 C 0.26039 0.27747 0.16152 0.0
H564 H 0.25011 0.51091 0.12147 0.0
C565 C 0.287 0.18519 0.15005 0.0
H566 H 0.22503 0.46469 0.15888 0.0
C567 C 0.301 0.21091 0.12853 0.0
C568 C 0.28882 0.32959 0.11801 0.0
H569 H 0.299 0.0961 0.15807 0.0
H570 H 0.32213 0.13882 0.12029 0.0
C571 C 0.26017 0.41852 0.12906 0.0
C572 C 0.54661 0.00418 0.40098 0.0
C573 C 0.5205 0.91049 0.41237 0.0
H574 H 0.58226 0.05182 0.37143 0.0
C575 C 0.50843 0.79237 0.40159 0.0
H576 H 0.55689 0.09566 0.40887 0.0
C577 C 0.52379 0.76598 0.38027 0.0
C578 C 0.55143 0.85742 0.36921 0.0
H579 H 0.48793 0.71887 0.40985 0.0
H580 H 0.51513 0.67202 0.37276 0.0
C581 C 0.56187 -0.02202 0.37965 0.0
C582 C 0.35268 0.90997 0.39921 0.0
C583 C 0.38052 0.00082 0.41039 0.0
H584 H 0.31646 0.86419 0.36955 0.0
C585 C 0.39641 0.11245 0.39904 0.0
H586 H 0.33964 0.82339 0.40755 0.0
C587 C 0.38228 0.13749 0.37747 0.0
C588 C 0.35225 0.05074 0.36668 0.0
H589 H 0.41833 0.18338 0.40716 0.0
H590 H 0.39337 0.22807 0.36966 0.0
C591 C 0.33871 0.93464 0.37756 0.0
C592 C 0.9134 0.52426 0.02249 0.0
C593 C -0.04124 0.55829 0.02599 0.0
H594 H 0.86482 0.36872 0.01951 0.0
C595 C -0.00946 0.45741 0.02987 0.0
H596 H 0.88848 0.5997 0.01911 0.0
C597 C -0.02277 0.32486 0.02984 0.0
C598 C 0.93194 0.29093 0.02601 0.0
H599 H 0.02586 0.48056 0.03262 0.0
H600 H 0.00238 0.24909 0.03272 0.0
C601 C 0.90001 0.39193 0.02264 0.0
C602 C 0.24927 0.70134 0.27689 0.0
C603 C 0.21667 0.60027 0.27792 0.0
H604 H 0.26182 0.90976 0.27585 0.0
C605 C 0.17103 0.6345 0.28013 0.0
H606 H 0.28485 0.67812 0.27534 0.0
C607 C 0.15791 0.76711 0.28025 0.0
C608 C 0.19032 0.86811 0.27824 0.0
H609 H 0.14542 0.55878 0.28145 0.0
H610 H 0.12226 0.79018 0.28139 0.0
C611 C 0.23617 0.83404 0.27708 0.0
C612 C 0.74315 0.18668 0.27345 0.0
C613 C 0.71121 0.08596 0.27694 0.0
H614 H 0.75469 0.39419 0.2694 0.0
C615 C 0.66591 0.12029 0.28051 0.0
H616 H 0.7783 0.16311 0.27043 0.0
C617 C 0.65267 0.25292 0.2803 0.0
C618 C 0.68448 0.35354 0.27636 0.0
H619 H 0.6407 0.04475 0.28337 0.0
H620 H 0.61738 0.27633 0.28292 0.0
C621 C 0.72979 0.31908 0.27297 0.0
C622 C -0.02581 0.86559 0.53108 0.0
C623 C 0.92927 0.83135 0.52643 0.0
H624 H 0.02266 0.02132 0.53426 0.0
C625 C 0.89762 0.93197 0.52219 0.0
H626 H -0.00105 0.7901 0.53482 0.0
C627 C 0.91108 0.06429 0.52188 0.0
C628 C -0.04379 0.09842 0.52603 0.0
H629 H 0.86271 0.90833 0.51846 0.0
H630 H 0.88648 0.13947 0.5178 0.0
C631 C -0.01241 -0.00203 0.53088 0.0
C632 C 0.16593 0.12777 0.78191 0.0
C633 C 0.21019 0.09245 0.77624 0.0
H634 H 0.11853 0.28518 0.78647 0.0
C635 C 0.24177 0.19244 0.77162 0.0
H636 H 0.14124 0.05275 0.78593 0.0
C637 C 0.2289 0.32512 0.77194 0.0
C638 C 0.18447 0.36063 0.77716 0.0
H639 H 0.27617 0.16812 0.7671 0.0
H640 H 0.25335 0.39965 0.76748 0.0
C641 C 0.15314 0.26081 0.78237 0.0
C642 C 0.66778 0.6454 0.7787 0.0
C643 C 0.71326 0.61139 0.77579 0.0
H644 H 0.6191 0.80089 0.78101 0.0
C645 C 0.74539 0.71243 0.773 0.0
H646 H 0.64242 0.56954 0.78073 0.0
C647 C 0.73204 0.84491 0.77272 0.0
C648 C 0.68658 0.879 0.77573 0.0
H649 H 0.78071 0.68914 0.77043 0.0
H650 H 0.75709 0.92041 0.76966 0.0
C651 C 0.65455 0.77793 0.77883 0.0
C652 C 0.40962 0.58598 0.5212 0.0
C653 C 0.45454 0.61999 0.52587 0.0
H654 H 0.36134 0.43052 0.51704 0.0
C655 C 0.48587 0.51906 0.53051 0.0
H656 H 0.38516 0.66142 0.51712 0.0
C657 C 0.47255 0.38652 0.53012 0.0
C658 C 0.42768 0.35264 0.52521 0.0
H659 H 0.52086 0.54216 0.53413 0.0
H660 H 0.49735 0.31073 0.5336 0.0
C661 C 0.39617 0.45368 0.52104 0.0
C662 C 0.38913 0.94535 0.02956 0.0
C663 C 0.42128 0.84472 0.02632 0.0
H664 H 0.37696 0.15367 0.03228 0.0
C665 C 0.46683 0.87908 0.02388 0.0
H666 H 0.35365 0.92192 0.0315 0.0
C667 C 0.4801 0.01138 0.02442 0.0
C668 C 0.44787 0.11216 0.02713 0.0
H669 H 0.49202 0.80384 0.02101 0.0
H670 H 0.51549 0.03473 0.02208 0.0
C671 C 0.40234 0.07801 0.02993 0.0
C672 C 0.2287 0.12181 0.99885 0.0
C673 C 0.23306 0.26001 0.99941 0.0
H674 H 0.18371 0.95678 0.99985 0.0
C675 C 0.19404 0.3392 0.99874 0.0
H676 H 0.25822 0.05842 0.99919 0.0
C677 C 0.15134 0.28107 0.99924 0.0
C678 C 0.14707 0.14295 1.00031 0.0
H679 H 0.19641 0.44618 0.99902 0.0
H680 H 0.12185 0.34447 0.99984 0.0
C681 C 0.18602 0.06371 0.99925 0.0
C682 C 0.69849 0.83975 1.00567 0.0
C683 C 0.73438 0.74872 1.00553 0.0
H684 H 0.62684 0.86727 1.00655 0.0
C685 C 0.72503 0.61292 1.00404 0.0
H686 H 0.7048 0.94522 1.00662 0.0
C687 C 0.68048 0.56848 1.0041 0.0
C688 C 0.64463 0.65919 1.00547 0.0
H689 H 0.75208 0.54068 1.00381 0.0
H690 H 0.6742 0.46285 1.00384 0.0
C691 C 0.65389 0.7953 1.00554 0.0
C692 C -0.00998 0.58478 0.25872 0.0
C693 C -0.00219 0.45079 0.25396 0.0
H694 H 0.94069 0.73622 0.26392 0.0
C695 C -0.03885 0.3689 0.24834 0.0
H696 H 0.01769 0.65014 0.26306 0.0
C697 C 0.91719 0.41791 0.24883 0.0
C698 C 0.90911 0.54962 0.255 0.0
H699 H -0.03379 0.26534 0.24441 0.0
H700 H 0.88949 0.35103 0.24526 0.0
C701 C -0.05405 0.63382 0.25928 0.0
C702 C 0.22563 0.66806 0.49871 0.0
C703 C 0.2322 0.80202 0.50389 0.0
H704 H 0.17864 0.50876 0.49593 0.0
C705 C 0.19456 0.88258 0.50824 0.0
H706 H 0.25399 0.60382 0.49514 0.0
C707 C 0.15125 0.82804 0.50868 0.0
C708 C 0.14513 0.69223 0.50484 0.0
H709 H 0.19868 -0.01349 0.51218 0.0
H710 H 0.12295 0.89092 0.51295 0.0
C711 C 0.18248 0.6136 0.49921 0.0
C712 C 0.6964 0.38348 0.50817 0.0
C713 C 0.73291 0.29854 0.50384 0.0
H714 H 0.62483 0.40092 0.51208 0.0
C715 C 0.72448 0.16762 0.49732 0.0
H716 H 0.70197 0.48544 0.51302 0.0
C717 C 0.68045 0.11958 0.49674 0.0
C718 C 0.64417 0.20175 0.50265 0.0
H719 H 0.75197 0.10046 0.49363 0.0
H720 H 0.67507 0.01636 0.49264 0.0
C721 C 0.65226 0.33539 0.50756 0.0
C722 C 0.91756 0.95122 0.74483 0.0
C723 C 0.91049 0.07917 0.7531 0.0
H724 H -0.03496 0.79653 0.73896 0.0
C725 C -0.0521 0.1573 0.75911 0.0
H726 H 0.88944 0.88944 0.73977 0.0
C727 C -0.00856 0.10407 0.75854 0.0
C728 C -0.00215 -0.02789 0.75206 0.0
H729 H 0.94338 0.25693 0.76535 0.0
H730 H 0.0195 0.16315 0.76451 0.0
C731 C -0.03914 0.8981 0.74434 0.0
C732 C 0.48664 0.58075 0.75224 0.0
C733 C 0.49403 0.44377 0.75127 0.0
H734 H 0.43778 0.73595 0.75438 0.0
C735 C 0.45701 0.35781 0.74896 0.0
H736 H 0.51463 0.64913 0.75396 0.0
C737 C 0.4131 0.4073 0.74914 0.0
C738 C 0.40559 0.54343 0.75178 0.0
H739 H 0.46184 0.25169 0.74796 0.0
H740 H 0.38514 0.33825 0.74833 0.0
C741 C 0.44267 0.63025 0.75256 0.0
C742 C 0.45748 0.8499 0.24626 0.0
C743 C 0.49518 0.93292 0.24905 0.0
H744 H 0.38548 0.8361 0.24473 0.0
C745 C 0.48899 0.07058 0.24942 0.0
H746 H 0.46126 0.74331 0.24567 0.0
C747 C 0.4455 0.12375 0.24873 0.0
C748 C 0.40763 0.03991 0.24778 0.0
H749 H 0.51749 0.13691 0.25137 0.0
H750 H 0.44155 0.22996 0.25025 0.0
C751 C 0.41405 0.90295 0.24568 0.0
loop_
_geom_bond_atom_site_label_1
_geom_bond_atom_site_label_2
_geom_bond_distance
_geom_bond_site_symmetry_2
_ccdc_geom_bond_type
Cd0 N3 2.306 1_554 S
Cd0 N29 2.332 . S
Cd0 O36 2.267 . S
Cd0 O39 2.273 1_545 S
Cd0 O40 2.415 1_554 S
Cd0 O41 2.331 1_545 S
Cd1 N16 2.332 . S
Cd1 N20 2.306 1_554 S
Cd1 O37 2.273 1_565 S
Cd1 O38 2.267 . S
Cd1 O42 2.415 1_554 S
Cd1 O43 2.331 1_565 S
C2 N3 1.332 1_565 S
C2 C6 1.381 . S
C2 H8 0.931 . S
N3 Cd0 2.306 1_556 S
N3 C2 1.332 1_545 S
N3 C7 1.328 . S
C4 C5 1.396 . S
C4 C7 1.378 . S
C4 H46 0.931 . S
C5 C4 1.396 . S
C5 C6 1.382 1_545 S
C6 C2 1.381 . S
C6 C5 1.382 1_565 S
C6 H47 0.930 . S
C7 N3 1.328 . S
C7 C4 1.378 . S
C7 H9 0.930 . S
H8 C2 0.931 . S
H9 C7 0.930 . S
C10 O36 1.238 1_655 S
C10 O37 1.253 . S
C11 C12 1.379 . S
C11 N16 1.337 1_545 S
C11 H17 0.929 . S
C12 C11 1.379 . S
C12 C13 1.380 1_545 S
C12 H48 0.929 . S
C13 C12 1.380 1_565 S
C13 C14 1.399 . S
C14 C13 1.399 . S
C14 C15 1.376 . S
C14 H49 0.931 . S
C15 C14 1.376 . S
C15 N16 1.338 . S
C15 H18 0.930 . S
N16 Cd1 2.332 . S
N16 C11 1.337 1_565 S
N16 C15 1.338 . S
H17 C11 0.929 . S
H18 C15 0.930 . S
C19 N20 1.332 1_545 S
C19 C23 1.381 . S
C19 H25 0.931 . S
N20 Cd1 2.306 1_556 S
N20 C19 1.332 1_565 S
N20 C24 1.328 . S
C21 C22 1.396 . S
C21 C24 1.378 . S
C21 H50 0.931 . S
C22 C21 1.396 . S
C22 C23 1.382 1_565 S
C23 C19 1.381 . S
C23 C22 1.382 1_545 S
C23 H51 0.930 . S
C24 N20 1.328 . S
C24 C21 1.378 . S
C24 H26 0.930 . S
H25 C19 0.931 . S
H26 C24 0.930 . S
C27 O38 1.238 1_455 S
C27 O39 1.253 . S
C28 O40 1.240 . S
C28 O41 1.229 1_546 S
N29 Cd0 2.332 . S
N29 C30 1.337 1_545 S
N29 C34 1.338 . S
C30 N29 1.337 1_565 S
C30 C31 1.379 . S
C30 H44 0.929 . S
C31 C30 1.379 . S
C31 C32 1.380 1_565 S
C31 H52 0.929 . S
C32 C31 1.380 1_545 S
C32 C33 1.399 . S
C33 C32 1.399 . S
C33 C34 1.376 . S
C33 H53 0.931 . S
C34 N29 1.338 . S
C34 C33 1.376 . S
C34 H45 0.930 . S
C35 O42 1.240 . S
C35 O43 1.229 1_566 S
O36 Cd0 2.267 . S
O36 C10 1.238 1_455 S
O37 Cd1 2.273 1_545 S
O37 C10 1.253 . S
O38 Cd1 2.267 . S
O38 C27 1.238 1_655 S
O39 Cd0 2.273 1_565 S
O39 C27 1.253 . S
O40 Cd0 2.415 1_556 S
O40 C28 1.240 . S
O41 Cd0 2.331 1_565 S
O41 C28 1.229 1_564 S
O42 Cd1 2.415 1_556 S
O42 C35 1.240 . S
O43 Cd1 2.331 1_545 S
O43 C35 1.229 1_544 S
H44 C30 0.929 . S
H45 C34 0.930 . S
H46 C4 0.931 . S
H47 C6 0.930 . S
H48 C12 0.929 . S
H49 C14 0.931 . S
H50 C21 0.931 . S
H51 C23 0.930 . S
H52 C31 0.929 . S
H53 C33 0.931 . S
Cd54 N57 2.334 . S
Cd54 N83 2.304 . S
Cd54 O90 2.268 . S
Cd54 O93 2.273 . S
Cd54 O94 2.417 . S
Cd54 O95 2.330 . S
Cd55 N70 2.304 . S
Cd55 N74 2.334 . S
Cd55 O91 2.273 . S
Cd55 O92 2.268 . S
Cd55 O96 2.417 . S
Cd55 O97 2.330 . S
C56 N57 1.332 . S
C56 C60 1.381 . S
C56 H62 0.931 . S
N57 Cd54 2.334 . S
N57 C56 1.332 . S
N57 C61 1.328 . S
C58 C59 1.396 . S
C58 C61 1.378 . S
C58 H100 0.931 . S
C59 C58 1.396 . S
C59 C60 1.382 . S
C60 C56 1.381 . S
C60 C59 1.382 . S
C60 H101 0.930 . S
C61 N57 1.328 . S
C61 C58 1.378 . S
C61 H63 0.930 . S
H62 C56 0.931 . S
H63 C61 0.930 . S
C64 O90 1.238 1_565 S
C64 O91 1.253 1_565 S
C65 C66 1.379 . S
C65 N70 1.337 . S
C65 H71 0.929 . S
C66 C65 1.379 . S
C66 C67 1.380 . S
C66 H102 0.929 . S
C67 C66 1.380 . S
C67 C68 1.399 . S
C68 C67 1.399 . S
C68 C69 1.376 . S
C68 H103 0.931 . S
C69 C68 1.376 . S
C69 N70 1.338 . S
C69 H72 0.930 . S
N70 Cd55 2.304 . S
N70 C65 1.337 . S
N70 C69 1.338 . S
H71 C65 0.929 . S
H72 C69 0.930 . S
C73 N74 1.332 . S
C73 C77 1.381 . S
C73 H79 0.931 . S
N74 Cd55 2.334 . S
N74 C73 1.332 . S
N74 C78 1.328 . S
C75 C76 1.396 . S
C75 C78 1.378 . S
C75 H104 0.931 . S
C76 C75 1.396 . S
C76 C77 1.382 . S
C77 C73 1.381 . S
C77 C76 1.382 . S
C77 H105 0.930 . S
C78 N74 1.328 . S
C78 C75 1.378 . S
C78 H80 0.930 . S
H79 C73 0.931 . S
H80 C78 0.930 . S
C81 O92 1.238 . S
C81 O93 1.253 . S
C82 O94 1.239 . S
C82 O95 1.230 . S
N83 Cd54 2.304 . S
N83 C84 1.337 . S
N83 C88 1.338 . S
C84 N83 1.337 . S
C84 C85 1.379 . S
C84 H98 0.929 . S
C85 C84 1.379 . S
C85 C86 1.380 . S
C85 H106 0.929 . S
C86 C85 1.380 . S
C86 C87 1.399 . S
C87 C86 1.399 . S
C87 C88 1.376 . S
C87 H107 0.931 . S
C88 N83 1.338 . S
C88 C87 1.376 . S
C88 H99 0.930 . S
C89 O96 1.239 . S
C89 O97 1.230 . S
O90 Cd54 2.268 . S
O90 C64 1.238 1_545 S
O91 Cd55 2.273 . S
O91 C64 1.253 1_545 S
O92 Cd55 2.268 . S
O92 C81 1.238 . S
O93 Cd54 2.273 . S
O93 C81 1.253 . S
O94 Cd54 2.417 . S
O94 C82 1.239 . S
O95 Cd54 2.330 . S
O95 C82 1.230 . S
O96 Cd55 2.417 . S
O96 C89 1.239 . S
O97 Cd55 2.330 . S
O97 C89 1.230 . S
H98 C84 0.929 . S
H99 C88 0.930 . S
H100 C58 0.931 . S
H101 C60 0.930 . S
H102 C66 0.929 . S
H103 C68 0.931 . S
H104 C75 0.931 . S
H105 C77 0.930 . S
H106 C85 0.929 . S
H107 C87 0.931 . S
Cd108 N111 2.334 . S
Cd108 N137 2.304 . S
Cd108 O144 2.268 . S
Cd108 O147 2.273 . S
Cd108 O148 2.417 . S
Cd108 O149 2.330 . S
Cd109 N124 2.304 . S
Cd109 N128 2.334 . S
Cd109 O145 2.273 . S
Cd109 O146 2.268 . S
Cd109 O150 2.417 . S
Cd109 O151 2.330 . S
C110 N111 1.332 . S
C110 C114 1.381 . S
C110 H116 0.931 . S
N111 Cd108 2.334 . S
N111 C110 1.332 . S
N111 C115 1.328 . S
C112 C113 1.396 . S
C112 C115 1.378 . S
C112 H154 0.931 . S
C113 C112 1.396 . S
C113 C114 1.382 . S
C114 C110 1.381 . S
C114 C113 1.382 . S
C114 H155 0.930 . S
C115 N111 1.328 . S
C115 C112 1.378 . S
C115 H117 0.930 . S
H116 C110 0.931 . S
H117 C115 0.930 . S
C118 O144 1.238 1_545 S
C118 O145 1.253 1_545 S
C119 C120 1.379 . S
C119 N124 1.337 . S
C119 H125 0.929 . S
C120 C119 1.379 . S
C120 C121 1.380 . S
C120 H156 0.929 . S
C121 C120 1.380 . S
C121 C122 1.399 . S
C122 C121 1.399 . S
C122 C123 1.376 . S
C122 H157 0.931 . S
C123 C122 1.376 . S
C123 N124 1.338 . S
C123 H126 0.930 . S
N124 Cd109 2.304 . S
N124 C119 1.337 . S
N124 C123 1.338 . S
H125 C119 0.929 . S
H126 C123 0.930 . S
C127 N128 1.332 . S
C127 C131 1.381 . S
C127 H133 0.931 . S
N128 Cd109 2.334 . S
N128 C127 1.332 . S
N128 C132 1.328 . S
C129 C130 1.396 . S
C129 C132 1.378 . S
C129 H158 0.931 . S
C130 C129 1.396 . S
C130 C131 1.382 . S
C131 C127 1.381 . S
C131 C130 1.382 . S
C131 H159 0.930 . S
C132 N128 1.328 . S
C132 C129 1.378 . S
C132 H134 0.930 . S
H133 C127 0.931 . S
H134 C132 0.930 . S
C135 O146 1.238 . S
C135 O147 1.253 . S
C136 O148 1.239 . S
C136 O149 1.230 . S
N137 Cd108 2.304 . S
N137 C138 1.337 . S
N137 C142 1.338 . S
C138 N137 1.337 . S
C138 C139 1.379 . S
C138 H152 0.929 . S
C139 C138 1.379 . S
C139 C140 1.380 . S
C139 H160 0.929 . S
C140 C139 1.380 . S
C140 C141 1.399 . S
C141 C140 1.399 . S
C141 C142 1.376 . S
C141 H161 0.931 . S
C142 N137 1.338 . S
C142 C141 1.376 . S
C142 H153 0.930 . S
C143 O150 1.239 . S
C143 O151 1.230 . S
O144 Cd108 2.268 . S
O144 C118 1.238 1_565 S
O145 Cd109 2.273 . S
O145 C118 1.253 1_565 S
O146 Cd109 2.268 . S
O146 C135 1.238 . S
O147 Cd108 2.273 . S
O147 C135 1.253 . S
O148 Cd108 2.417 . S
O148 C136 1.239 . S
O149 Cd108 2.330 . S
O149 C136 1.230 . S
O150 Cd109 2.417 . S
O150 C143 1.239 . S
O151 Cd109 2.330 . S
O151 C143 1.230 . S
H152 C138 0.929 . S
H153 C142 0.930 . S
H154 C112 0.931 . S
H155 C114 0.930 . S
H156 C120 0.929 . S
H157 C122 0.931 . S
H158 C129 0.931 . S
H159 C131 0.930 . S
H160 C139 0.929 . S
H161 C141 0.931 . S
Cd162 N165 2.334 . S
Cd162 N191 2.304 . S
Cd162 O198 2.268 . S
Cd162 O201 2.273 . S
Cd162 O202 2.417 . S
Cd162 O203 2.330 . S
Cd163 N178 2.304 . S
Cd163 N182 2.334 . S
Cd163 O199 2.273 . S
Cd163 O200 2.268 . S
Cd163 O204 2.417 . S
Cd163 O205 2.330 . S
C164 N165 1.332 . S
C164 C168 1.381 . S
C164 H170 0.931 . S
N165 Cd162 2.334 . S
N165 C164 1.332 . S
N165 C169 1.328 . S
C166 C167 1.396 . S
C166 C169 1.378 . S
C166 H208 0.931 . S
C167 C166 1.396 . S
C167 C168 1.382 . S
C168 C164 1.381 . S
C168 C167 1.382 . S
C168 H209 0.930 . S
C169 N165 1.328 . S
C169 C166 1.378 . S
C169 H171 0.930 . S
H170 C164 0.931 . S
H171 C169 0.930 . S
C172 O198 1.238 1_655 S
C172 O199 1.253 . S
C173 C174 1.379 . S
C173 N178 1.337 . S
C173 H179 0.929 . S
C174 C173 1.379 . S
C174 C175 1.380 . S
C174 H210 0.929 . S
C175 C174 1.380 . S
C175 C176 1.399 . S
C176 C175 1.399 . S
C176 C177 1.376 . S
C176 H211 0.931 . S
C177 C176 1.376 . S
C177 N178 1.338 . S
C177 H180 0.930 . S
N178 Cd163 2.304 . S
N178 C173 1.337 . S
N178 C177 1.338 . S
H179 C173 0.929 . S
H180 C177 0.930 . S
C181 N182 1.332 . S
C181 C185 1.381 . S
C181 H187 0.931 . S
N182 Cd163 2.334 . S
N182 C181 1.332 . S
N182 C186 1.328 . S
C183 C184 1.396 . S
C183 C186 1.378 . S
C183 H212 0.931 . S
C184 C183 1.396 . S
C184 C185 1.382 . S
C185 C181 1.381 . S
C185 C184 1.382 . S
C185 H213 0.930 . S
C186 N182 1.328 . S
C186 C183 1.378 . S
C186 H188 0.930 . S
H187 C181 0.931 . S
H188 C186 0.930 . S
C189 O200 1.238 1_455 S
C189 O201 1.253 . S
C190 O202 1.239 . S
C190 O203 1.230 . S
N191 Cd162 2.304 . S
N191 C192 1.337 . S
N191 C196 1.338 . S
C192 N191 1.337 . S
C192 C193 1.379 . S
C192 H206 0.929 . S
C193 C192 1.379 . S
C193 C194 1.380 . S
C193 H214 0.929 . S
C194 C193 1.380 . S
C194 C195 1.399 . S
C195 C194 1.399 . S
C195 C196 1.376 . S
C195 H215 0.931 . S
C196 N191 1.338 . S
C196 C195 1.376 . S
C196 H207 0.930 . S
C197 O204 1.239 . S
C197 O205 1.230 . S
O198 Cd162 2.268 . S
O198 C172 1.238 1_455 S
O199 Cd163 2.273 . S
O199 C172 1.253 . S
O200 Cd163 2.268 . S
O200 C189 1.238 1_655 S
O201 Cd162 2.273 . S
O201 C189 1.253 . S
O202 Cd162 2.417 . S
O202 C190 1.239 . S
O203 Cd162 2.330 . S
O203 C190 1.230 . S
O204 Cd163 2.417 . S
O204 C197 1.239 . S
O205 Cd163 2.330 . S
O205 C197 1.230 . S
H206 C192 0.929 . S
H207 C196 0.930 . S
H208 C166 0.931 . S
H209 C168 0.930 . S
H210 C174 0.929 . S
H211 C176 0.931 . S
H212 C183 0.931 . S
H213 C185 0.930 . S
H214 C193 0.929 . S
H215 C195 0.931 . S
Cd216 N219 2.334 . S
Cd216 N245 2.304 . S
Cd216 O252 2.268 . S
Cd216 O255 2.273 . S
Cd216 O256 2.417 . S
Cd216 O257 2.330 . S
Cd217 N232 2.304 . S
Cd217 N236 2.334 . S
Cd217 O253 2.273 . S
Cd217 O254 2.268 . S
Cd217 O258 2.417 . S
Cd217 O259 2.330 . S
C218 N219 1.332 . S
C218 C222 1.381 . S
C218 H224 0.931 . S
N219 Cd216 2.334 . S
N219 C218 1.332 . S
N219 C223 1.328 . S
C220 C221 1.396 . S
C220 C223 1.378 . S
C220 H262 0.931 . S
C221 C220 1.396 . S
C221 C222 1.382 . S
C222 C218 1.381 . S
C222 C221 1.382 . S
C222 H263 0.930 . S
C223 N219 1.328 . S
C223 C220 1.378 . S
C223 H225 0.930 . S
H224 C218 0.931 . S
H225 C223 0.930 . S
C226 O252 1.238 1_545 S
C226 O253 1.253 1_545 S
C227 C228 1.379 . S
C227 N232 1.337 . S
C227 H233 0.929 . S
C228 C227 1.379 . S
C228 C229 1.380 . S
C228 H264 0.929 . S
C229 C228 1.380 . S
C229 C230 1.399 . S
C230 C229 1.399 . S
C230 C231 1.376 . S
C230 H265 0.931 . S
C231 C230 1.376 . S
C231 N232 1.338 . S
C231 H234 0.930 . S
N232 Cd217 2.304 . S
N232 C227 1.337 . S
N232 C231 1.338 . S
H233 C227 0.929 . S
H234 C231 0.930 . S
C235 N236 1.332 . S
C235 C239 1.381 . S
C235 H241 0.931 . S
N236 Cd217 2.334 . S
N236 C235 1.332 . S
N236 C240 1.328 . S
C237 C238 1.396 . S
C237 C240 1.378 . S
C237 H266 0.931 . S
C238 C237 1.396 . S
C238 C239 1.382 . S
C239 C235 1.381 . S
C239 C238 1.382 . S
C239 H267 0.930 . S
C240 N236 1.328 . S
C240 C237 1.378 . S
C240 H242 0.930 . S
H241 C235 0.931 . S
H242 C240 0.930 . S
C243 O254 1.238 . S
C243 O255 1.253 . S
C244 O256 1.239 . S
C244 O257 1.230 . S
N245 Cd216 2.304 . S
N245 C246 1.337 . S
N245 C250 1.338 . S
C246 N245 1.337 . S
C246 C247 1.379 . S
C246 H260 0.929 . S
C247 C246 1.379 . S
C247 C248 1.380 . S
C247 H268 0.929 . S
C248 C247 1.380 . S
C248 C249 1.399 . S
C249 C248 1.399 . S
C249 C250 1.376 . S
C249 H269 0.931 . S
C250 N245 1.338 . S
C250 C249 1.376 . S
C250 H261 0.930 . S
C251 O258 1.239 . S
C251 O259 1.230 . S
O252 Cd216 2.268 . S
O252 C226 1.238 1_565 S
O253 Cd217 2.273 . S
O253 C226 1.253 1_565 S
O254 Cd217 2.268 . S
O254 C243 1.238 . S
O255 Cd216 2.273 . S
O255 C243 1.253 . S
O256 Cd216 2.417 . S
O256 C244 1.239 . S
O257 Cd216 2.330 . S
O257 C244 1.230 . S
O258 Cd217 2.417 . S
O258 C251 1.239 . S
O259 Cd217 2.330 . S
O259 C251 1.230 . S
H260 C246 0.929 . S
H261 C250 0.930 . S
H262 C220 0.931 . S
H263 C222 0.930 . S
H264 C228 0.929 . S
H265 C230 0.931 . S
H266 C237 0.931 . S
H267 C239 0.930 . S
H268 C247 0.929 . S
H269 C249 0.931 . S
Cd270 N273 2.334 . S
Cd270 N299 2.304 . S
Cd270 O306 2.268 . S
Cd270 O309 2.273 . S
Cd270 O310 2.417 . S
Cd270 O311 2.330 . S
Cd271 N286 2.304 . S
Cd271 N290 2.334 . S
Cd271 O307 2.273 . S
Cd271 O308 2.268 . S
Cd271 O312 2.417 . S
Cd271 O313 2.330 . S
C272 N273 1.332 . S
C272 C276 1.381 . S
C272 H278 0.931 . S
N273 Cd270 2.334 . S
N273 C272 1.332 . S
N273 C277 1.328 . S
C274 C275 1.396 . S
C274 C277 1.378 . S
C274 H316 0.931 . S
C275 C274 1.396 . S
C275 C276 1.382 . S
C276 C272 1.381 . S
C276 C275 1.382 . S
C276 H317 0.930 . S
C277 N273 1.328 . S
C277 C274 1.378 . S
C277 H279 0.930 . S
H278 C272 0.931 . S
H279 C277 0.930 . S
C280 O306 1.238 . S
C280 O307 1.253 . S
C281 C282 1.379 . S
C281 N286 1.337 . S
C281 H287 0.929 . S
C282 C281 1.379 . S
C282 C283 1.380 . S
C282 H318 0.929 . S
C283 C282 1.380 . S
C283 C284 1.399 . S
C284 C283 1.399 . S
C284 C285 1.376 . S
C284 H319 0.931 . S
C285 C284 1.376 . S
C285 N286 1.338 . S
C285 H288 0.930 . S
N286 Cd271 2.304 . S
N286 C281 1.337 . S
N286 C285 1.338 . S
H287 C281 0.929 . S
H288 C285 0.930 . S
C289 N290 1.332 . S
C289 C293 1.381 . S
C289 H295 0.931 . S
N290 Cd271 2.334 . S
N290 C289 1.332 . S
N290 C294 1.328 . S
C291 C292 1.396 . S
C291 C294 1.378 . S
C291 H320 0.931 . S
C292 C291 1.396 . S
C292 C293 1.382 . S
C293 C289 1.381 . S
C293 C292 1.382 . S
C293 H321 0.930 . S
C294 N290 1.328 . S
C294 C291 1.378 . S
C294 H296 0.930 . S
H295 C289 0.931 . S
H296 C294 0.930 . S
C297 O308 1.238 1_565 S
C297 O309 1.253 1_565 S
C298 O310 1.239 . S
C298 O311 1.230 . S
N299 Cd270 2.304 . S
N299 C300 1.337 . S
N299 C304 1.338 . S
C300 N299 1.337 . S
C300 C301 1.379 . S
C300 H314 0.929 . S
C301 C300 1.379 . S
C301 C302 1.380 . S
C301 H322 0.929 . S
C302 C301 1.380 . S
C302 C303 1.399 . S
C303 C302 1.399 . S
C303 C304 1.376 . S
C303 H323 0.931 . S
C304 N299 1.338 . S
C304 C303 1.376 . S
C304 H315 0.930 . S
C305 O312 1.239 . S
C305 O313 1.230 . S
O306 Cd270 2.268 . S
O306 C280 1.238 . S
O307 Cd271 2.273 . S
O307 C280 1.253 . S
O308 Cd271 2.268 . S
O308 C297 1.238 1_545 S
O309 Cd270 2.273 . S
O309 C297 1.253 1_545 S
O310 Cd270 2.417 . S
O310 C298 1.239 . S
O311 Cd270 2.330 . S
O311 C298 1.230 . S
O312 Cd271 2.417 . S
O312 C305 1.239 . S
O313 Cd271 2.330 . S
O313 C305 1.230 . S
H314 C300 0.929 . S
H315 C304 0.930 . S
H316 C274 0.931 . S
H317 C276 0.930 . S
H318 C282 0.929 . S
H319 C284 0.931 . S
H320 C291 0.931 . S
H321 C293 0.930 . S
H322 C301 0.929 . S
H323 C303 0.931 . S
Cd324 N327 2.334 . S
Cd324 N353 2.304 . S
Cd324 O360 2.268 . S
Cd324 O363 2.273 1_545 S
Cd324 O364 2.417 . S
Cd324 O365 2.330 1_545 S
Cd325 N340 2.304 . S
Cd325 N344 2.334 . S
Cd325 O361 2.273 1_565 S
Cd325 O362 2.268 . S
Cd325 O366 2.417 . S
Cd325 O367 2.330 1_565 S
C326 N327 1.332 1_565 S
C326 C330 1.381 . S
C326 H332 0.931 . S
N327 Cd324 2.334 . S
N327 C326 1.332 1_545 S
N327 C331 1.328 . S
C328 C329 1.396 . S
C328 C331 1.378 . S
C328 H370 0.931 . S
C329 C328 1.396 . S
C329 C330 1.382 1_545 S
C330 C326 1.381 . S
C330 C329 1.382 1_565 S
C330 H371 0.930 . S
C331 N327 1.328 . S
C331 C328 1.378 . S
C331 H333 0.930 . S
H332 C326 0.931 . S
H333 C331 0.930 . S
C334 O360 1.238 . S
C334 O361 1.253 . S
C335 C336 1.379 . S
C335 N340 1.337 1_545 S
C335 H341 0.929 . S
C336 C335 1.379 . S
C336 C337 1.380 1_545 S
C336 H372 0.929 . S
C337 C336 1.380 1_565 S
C337 C338 1.399 . S
C338 C337 1.399 . S
C338 C339 1.376 . S
C338 H373 0.931 . S
C339 C338 1.376 . S
C339 N340 1.338 . S
C339 H342 0.930 . S
N340 Cd325 2.304 . S
N340 C335 1.337 1_565 S
N340 C339 1.338 . S
H341 C335 0.929 . S
H342 C339 0.930 . S
C343 N344 1.332 1_545 S
C343 C347 1.381 . S
C343 H349 0.931 . S
N344 Cd325 2.334 . S
N344 C343 1.332 1_565 S
N344 C348 1.328 . S
C345 C346 1.396 . S
C345 C348 1.378 . S
C345 H374 0.931 . S
C346 C345 1.396 . S
C346 C347 1.382 1_565 S
C347 C343 1.381 . S
C347 C346 1.382 1_545 S
C347 H375 0.930 . S
C348 N344 1.328 . S
C348 C345 1.378 . S
C348 H350 0.930 . S
H349 C343 0.931 . S
H350 C348 0.930 . S
C351 O362 1.238 . S
C351 O363 1.253 . S
C352 O364 1.239 . S
C352 O365 1.230 1_545 S
N353 Cd324 2.304 . S
N353 C354 1.337 1_545 S
N353 C358 1.338 . S
C354 N353 1.337 1_565 S
C354 C355 1.379 . S
C354 H368 0.929 . S
C355 C354 1.379 . S
C355 C356 1.380 1_565 S
C355 H376 0.929 . S
C356 C355 1.380 1_545 S
C356 C357 1.399 . S
C357 C356 1.399 . S
C357 C358 1.376 . S
C357 H377 0.931 . S
C358 N353 1.338 . S
C358 C357 1.376 . S
C358 H369 0.930 . S
C359 O366 1.239 . S
C359 O367 1.230 1_565 S
O360 Cd324 2.268 . S
O360 C334 1.238 . S
O361 Cd325 2.273 1_545 S
O361 C334 1.253 . S
O362 Cd325 2.268 . S
O362 C351 1.238 . S
O363 Cd324 2.273 1_565 S
O363 C351 1.253 . S
O364 Cd324 2.417 . S
O364 C352 1.239 . S
O365 Cd324 2.330 1_565 S
O365 C352 1.230 1_565 S
O366 Cd325 2.417 . S
O366 C359 1.239 . S
O367 Cd325 2.330 1_545 S
O367 C359 1.230 1_545 S
H368 C354 0.929 . S
H369 C358 0.930 . S
H370 C328 0.931 . S
H371 C330 0.930 . S
H372 C336 0.929 . S
H373 C338 0.931 . S
H374 C345 0.931 . S
H375 C347 0.930 . S
H376 C355 0.929 . S
H377 C357 0.931 . S
Cd378 N381 2.306 1_554 S
Cd378 N407 2.332 . S
Cd378 O414 2.267 . S
Cd378 O417 2.273 . S
Cd378 O418 2.415 1_554 S
Cd378 O419 2.331 . S
Cd379 N394 2.332 . S
Cd379 N398 2.306 1_554 S
Cd379 O415 2.273 . S
Cd379 O416 2.267 . S
Cd379 O420 2.415 1_554 S
Cd379 O421 2.331 . S
C380 N381 1.332 . S
C380 C384 1.381 . S
C380 H386 0.931 . S
N381 Cd378 2.306 1_556 S
N381 C380 1.332 . S
N381 C385 1.328 . S
C382 C383 1.396 . S
C382 C385 1.378 . S
C382 H424 0.931 . S
C383 C382 1.396 . S
C383 C384 1.382 . S
C384 C380 1.381 . S
C384 C383 1.382 . S
C384 H425 0.930 . S
C385 N381 1.328 . S
C385 C382 1.378 . S
C385 H387 0.930 . S
H386 C380 0.931 . S
H387 C385 0.930 . S
C388 O414 1.238 . S
C388 O415 1.253 . S
C389 C390 1.379 . S
C389 N394 1.337 . S
C389 H395 0.929 . S
C390 C389 1.379 . S
C390 C391 1.380 . S
C390 H426 0.929 . S
C391 C390 1.380 . S
C391 C392 1.399 . S
C392 C391 1.399 . S
C392 C393 1.376 . S
C392 H427 0.931 . S
C393 C392 1.376 . S
C393 N394 1.338 . S
C393 H396 0.930 . S
N394 Cd379 2.332 . S
N394 C389 1.337 . S
N394 C393 1.338 . S
H395 C389 0.929 . S
H396 C393 0.930 . S
C397 N398 1.332 . S
C397 C401 1.381 . S
C397 H403 0.931 . S
N398 Cd379 2.306 1_556 S
N398 C397 1.332 . S
N398 C402 1.328 . S
C399 C400 1.396 . S
C399 C402 1.378 . S
C399 H428 0.931 . S
C400 C399 1.396 . S
C400 C401 1.382 . S
C401 C397 1.381 . S
C401 C400 1.382 . S
C401 H429 0.930 . S
C402 N398 1.328 . S
C402 C399 1.378 . S
C402 H404 0.930 . S
H403 C397 0.931 . S
H404 C402 0.930 . S
C405 O416 1.238 . S
C405 O417 1.253 . S
C406 O418 1.240 . S
C406 O419 1.229 1_556 S
N407 Cd378 2.332 . S
N407 C408 1.337 . S
N407 C412 1.338 . S
C408 N407 1.337 . S
C408 C409 1.379 . S
C408 H422 0.929 . S
C409 C408 1.379 . S
C409 C410 1.380 . S
C409 H430 0.929 . S
C410 C409 1.380 . S
C410 C411 1.399 . S
C411 C410 1.399 . S
C411 C412 1.376 . S
C411 H431 0.931 . S
C412 N407 1.338 . S
C412 C411 1.376 . S
C412 H423 0.930 . S
C413 O420 1.240 . S
C413 O421 1.229 1_556 S
O414 Cd378 2.267 . S
O414 C388 1.238 . S
O415 Cd379 2.273 . S
O415 C388 1.253 . S
O416 Cd379 2.267 . S
O416 C405 1.238 . S
O417 Cd378 2.273 . S
O417 C405 1.253 . S
O418 Cd378 2.415 1_556 S
O418 C406 1.240 . S
O419 Cd378 2.331 . S
O419 C406 1.229 1_554 S
O420 Cd379 2.415 1_556 S
O420 C413 1.240 . S
O421 Cd379 2.331 . S
O421 C413 1.229 1_554 S
H422 C408 0.929 . S
H423 C412 0.930 . S
H424 C382 0.931 . S
H425 C384 0.930 . S
H426 C390 0.929 . S
H427 C392 0.931 . S
H428 C399 0.931 . S
H429 C401 0.930 . S
H430 C409 0.929 . S
H431 C411 0.931 . S
C432 C433 1.387 . S
C432 H436 0.950 . S
C432 C441 1.390 . S
C433 C432 1.387 . S
C433 C435 1.387 1_545 S
H434 C441 0.950 . S
C435 C433 1.387 1_565 S
C435 C437 1.390 1_565 S
C435 H439 0.950 . S
H436 C432 0.950 . S
C437 C435 1.390 1_545 S
C437 C438 1.387 . S
C437 H440 0.950 1_545 S
C438 C437 1.387 . S
C438 C441 1.387 . S
H439 C435 0.950 . S
H440 C437 0.950 1_565 S
C441 C432 1.390 . S
C441 H434 0.950 . S
C441 C438 1.387 . S
C442 C443 1.387 . S
C442 H446 0.950 1_565 S
C442 C451 1.390 . S
C443 C442 1.387 . S
C443 C445 1.387 . S
H444 C451 0.950 . S
C445 C443 1.387 . S
C445 C447 1.390 . S
C445 H449 0.950 . S
H446 C442 0.950 1_545 S
C447 C445 1.390 . S
C447 C448 1.387 . S
C447 H450 0.950 . S
C448 C447 1.387 . S
C448 C451 1.387 . S
H449 C445 0.950 . S
H450 C447 0.950 . S
C451 C442 1.390 . S
C451 H444 0.950 . S
C451 C448 1.387 . S
C452 C453 1.387 . S
C452 H456 0.950 . S
C452 C461 1.390 . S
C453 C452 1.387 . S
C453 C455 1.387 . S
H454 C461 0.950 . S
C455 C453 1.387 . S
C455 C457 1.390 . S
C455 H459 0.950 . S
H456 C452 0.950 . S
C457 C455 1.390 . S
C457 C458 1.387 . S
C457 H460 0.950 . S
C458 C457 1.387 . S
C458 C461 1.387 . S
H459 C455 0.950 . S
H460 C457 0.950 . S
C461 C452 1.390 . S
C461 H454 0.950 . S
C461 C458 1.387 . S
C462 C463 1.387 . S
C462 H466 0.950 . S
C462 C471 1.390 . S
C463 C462 1.387 . S
C463 C465 1.387 . S
H464 C471 0.950 . S
C465 C463 1.387 . S
C465 C467 1.390 . S
C465 H469 0.950 . S
H466 C462 0.950 . S
C467 C465 1.390 . S
C467 C468 1.387 . S
C467 H470 0.950 . S
C468 C467 1.387 . S
C468 C471 1.387 . S
H469 C465 0.950 . S
H470 C467 0.950 . S
C471 C462 1.390 . S
C471 H464 0.950 . S
C471 C468 1.387 . S
C472 C473 1.387 . S
C472 H476 0.950 . S
C472 C481 1.390 . S
C473 C472 1.387 . S
C473 C475 1.387 . S
H474 C481 0.950 . S
C475 C473 1.387 . S
C475 C477 1.390 . S
C475 H479 0.950 . S
H476 C472 0.950 . S
C477 C475 1.390 . S
C477 C478 1.387 . S
C477 H480 0.950 . S
C478 C477 1.387 . S
C478 C481 1.387 . S
H479 C475 0.950 . S
H480 C477 0.950 . S
C481 C472 1.390 . S
C481 H474 0.950 . S
C481 C478 1.387 . S
C482 C483 1.387 . S
C482 H486 0.950 . S
C482 C491 1.390 . S
C483 C482 1.387 . S
C483 C485 1.387 . S
H484 C491 0.950 . S
C485 C483 1.387 . S
C485 C487 1.390 . S
C485 H489 0.950 . S
H486 C482 0.950 . S
C487 C485 1.390 . S
C487 C488 1.387 . S
C487 H490 0.950 . S
C488 C487 1.387 . S
C488 C491 1.387 . S
H489 C485 0.950 . S
H490 C487 0.950 . S
C491 C482 1.390 . S
C491 H484 0.950 . S
C491 C488 1.387 . S
C492 C493 1.387 . S
C492 H496 0.950 . S
C492 C501 1.390 . S
C493 C492 1.387 . S
C493 C495 1.387 . S
H494 C501 0.950 . S
C495 C493 1.387 . S
C495 C497 1.390 1_565 S
C495 H499 0.950 1_565 S
H496 C492 0.950 . S
C497 C495 1.390 1_545 S
C497 C498 1.387 1_545 S
C497 H500 0.950 . S
C498 C497 1.387 1_565 S
C498 C501 1.387 . S
H499 C495 0.950 1_545 S
H500 C497 0.950 . S
C501 C492 1.390 . S
C501 H494 0.950 . S
C501 C498 1.387 . S
C502 C503 1.387 . S
C502 H506 0.950 . S
C502 C511 1.390 1_545 S
C503 C502 1.387 . S
C503 C505 1.387 . S
H504 C511 0.950 . S
C505 C503 1.387 . S
C505 C507 1.390 . S
C505 H509 0.950 . S
H506 C502 0.950 . S
C507 C505 1.390 . S
C507 C508 1.387 . S
C507 H510 0.950 . S
C508 C507 1.387 . S
C508 C511 1.387 1_545 S
H509 C505 0.950 . S
H510 C507 0.950 . S
C511 C502 1.390 1_565 S
C511 H504 0.950 . S
C511 C508 1.387 1_565 S
C512 C513 1.387 . S
C512 H516 0.950 1_545 S
C512 C521 1.390 1_545 S
C513 C512 1.387 . S
C513 C515 1.387 . S
H514 C521 0.950 . S
C515 C513 1.387 . S
C515 C517 1.390 . S
C515 H519 0.950 . S
H516 C512 0.950 1_565 S
C517 C515 1.390 . S
C517 C518 1.387 . S
C517 H520 0.950 . S
C518 C517 1.387 . S
C518 C521 1.387 1_545 S
H519 C515 0.950 . S
H520 C517 0.950 . S
C521 C512 1.390 1_565 S
C521 H514 0.950 . S
C521 C518 1.387 1_565 S
C522 C523 1.387 . S
C522 H526 0.950 1_565 S
C522 C531 1.390 . S
C523 C522 1.387 . S
C523 C525 1.387 . S
H524 C531 0.950 . S
C525 C523 1.387 . S
C525 C527 1.390 . S
C525 H529 0.950 . S
H526 C522 0.950 1_545 S
C527 C525 1.390 . S
C527 C528 1.387 . S
C527 H530 0.950 . S
C528 C527 1.387 . S
C528 C531 1.387 . S
H529 C525 0.950 . S
H530 C527 0.950 . S
C531 C522 1.390 . S
C531 H524 0.950 . S
C531 C528 1.387 . S
C532 C533 1.387 . S
C532 H536 0.950 . S
C532 C541 1.390 . S
C533 C532 1.387 . S
C533 C535 1.387 . S
H534 C541 0.950 . S
C535 C533 1.387 . S
C535 C537 1.390 . S
C535 H539 0.950 . S
H536 C532 0.950 . S
C537 C535 1.390 . S
C537 C538 1.387 . S
C537 H540 0.950 . S
C538 C537 1.387 . S
C538 C541 1.387 . S
H539 C535 0.950 . S
H540 C537 0.950 . S
C541 C532 1.390 . S
C541 H534 0.950 . S
C541 C538 1.387 . S
C542 C543 1.387 . S
C542 H546 0.950 . S
C542 C551 1.390 . S
C543 C542 1.387 . S
C543 C545 1.387 . S
H544 C551 0.950 . S
C545 C543 1.387 . S
C545 C547 1.390 . S
C545 H549 0.950 . S
H546 C542 0.950 . S
C547 C545 1.390 . S
C547 C548 1.387 . S
C547 H550 0.950 . S
C548 C547 1.387 . S
C548 C551 1.387 . S
H549 C545 0.950 . S
H550 C547 0.950 . S
C551 C542 1.390 . S
C551 H544 0.950 . S
C551 C548 1.387 . S
C552 C553 1.387 . S
C552 H556 0.950 . S
C552 C561 1.390 . S
C553 C552 1.387 . S
C553 C555 1.387 . S
H554 C561 0.950 . S
C555 C553 1.387 . S
C555 C557 1.390 . S
C555 H559 0.950 . S
H556 C552 0.950 . S
C557 C555 1.390 . S
C557 C558 1.387 . S
C557 H560 0.950 . S
C558 C557 1.387 . S
C558 C561 1.387 . S
H559 C555 0.950 . S
H560 C557 0.950 . S
C561 C552 1.390 . S
C561 H554 0.950 . S
C561 C558 1.387 . S
C562 C563 1.387 . S
C562 H566 0.950 . S
C562 C571 1.390 . S
C563 C562 1.387 . S
C563 C565 1.387 . S
H564 C571 0.950 . S
C565 C563 1.387 . S
C565 C567 1.390 . S
C565 H569 0.950 . S
H566 C562 0.950 . S
C567 C565 1.390 . S
C567 C568 1.387 . S
C567 H570 0.950 . S
C568 C567 1.387 . S
C568 C571 1.387 . S
H569 C565 0.950 . S
H570 C567 0.950 . S
C571 C562 1.390 . S
C571 H564 0.950 . S
C571 C568 1.387 . S
C572 C573 1.387 1_545 S
C572 H576 0.950 . S
C572 C581 1.390 1_545 S
C573 C572 1.387 1_565 S
C573 C575 1.387 . S
H574 C581 0.950 1_545 S
C575 C573 1.387 . S
C575 C577 1.390 . S
C575 H579 0.950 . S
H576 C572 0.950 . S
C577 C575 1.390 . S
C577 C578 1.387 . S
C577 H580 0.950 . S
C578 C577 1.387 . S
C578 C581 1.387 . S
H579 C575 0.950 . S
H580 C577 0.950 . S
C581 C572 1.390 1_565 S
C581 H574 0.950 1_565 S
C581 C578 1.387 . S
C582 C583 1.387 1_565 S
C582 H586 0.950 . S
C582 C591 1.390 1_565 S
C583 C582 1.387 1_545 S
C583 C585 1.387 . S
H584 C591 0.950 1_565 S
C585 C583 1.387 . S
C585 C587 1.390 . S
C585 H589 0.950 . S
H586 C582 0.950 . S
C587 C585 1.390 . S
C587 C588 1.387 . S
C587 H590 0.950 . S
C588 C587 1.387 . S
C588 C591 1.387 . S
H589 C585 0.950 . S
H590 C587 0.950 . S
C591 C582 1.390 1_545 S
C591 H584 0.950 1_545 S
C591 C588 1.387 . S
C592 C593 1.406 . S
C592 H596 0.950 . S
C592 C601 1.390 1_455 S
C593 C592 1.406 . S
C593 C595 1.369 1_554 S
H594 C601 0.950 . S
C595 C593 1.369 1_556 S
C595 C597 1.390 1_455 S
C595 H599 0.950 . S
H596 C592 0.950 . S
C597 C595 1.390 1_655 S
C597 C598 1.369 1_556 S
C597 H600 0.950 . S
C598 C597 1.369 1_554 S
C598 C601 1.406 . S
H599 C595 0.950 . S
H600 C597 0.950 . S
C601 C592 1.390 1_655 S
C601 H594 0.950 . S
C601 C598 1.406 . S
C602 C603 1.387 . S
C602 H606 0.950 . S
C602 C611 1.390 . S
C603 C602 1.387 . S
C603 C605 1.387 . S
H604 C611 0.950 . S
C605 C603 1.387 . S
C605 C607 1.390 . S
C605 H609 0.950 . S
H606 C602 0.950 . S
C607 C605 1.390 . S
C607 C608 1.387 . S
C607 H610 0.950 . S
C608 C607 1.387 . S
C608 C611 1.387 . S
H609 C605 0.950 . S
H610 C607 0.950 . S
C611 C602 1.390 . S
C611 H604 0.950 . S
C611 C608 1.387 . S
C612 C613 1.387 . S
C612 H616 0.950 . S
C612 C621 1.390 . S
C613 C612 1.387 . S
C613 C615 1.387 . S
H614 C621 0.950 . S
C615 C613 1.387 . S
C615 C617 1.390 . S
C615 H619 0.950 . S
H616 C612 0.950 . S
C617 C615 1.390 . S
C617 C618 1.387 . S
C617 H620 0.950 . S
C618 C617 1.387 . S
C618 C621 1.387 . S
H619 C615 0.950 . S
H620 C617 0.950 . S
C621 C612 1.390 . S
C621 H614 0.950 . S
C621 C618 1.387 . S
C622 C623 1.387 . S
C622 H626 0.950 . S
C622 C631 1.390 1_665 S
C623 C622 1.387 . S
C623 C625 1.387 . S
H624 C631 0.950 . S
C625 C623 1.387 . S
C625 C627 1.390 1_665 S
C625 H629 0.950 . S
H626 C622 0.950 . S
C627 C625 1.390 1_445 S
C627 C628 1.387 . S
C627 H630 0.950 . S
C628 C627 1.387 . S
C628 C631 1.387 . S
H629 C625 0.950 . S
H630 C627 0.950 . S
C631 C622 1.390 1_445 S
C631 H624 0.950 . S
C631 C628 1.387 . S
C632 C633 1.387 . S
C632 H636 0.950 . S
C632 C641 1.390 . S
C633 C632 1.387 . S
C633 C635 1.387 . S
H634 C641 0.950 . S
C635 C633 1.387 . S
C635 C637 1.390 . S
C635 H639 0.950 . S
H636 C632 0.950 . S
C637 C635 1.390 . S
C637 C638 1.387 . S
C637 H640 0.950 . S
C638 C637 1.387 . S
C638 C641 1.387 . S
H639 C635 0.950 . S
H640 C637 0.950 . S
C641 C632 1.390 . S
C641 H634 0.950 . S
C641 C638 1.387 . S
C642 C643 1.387 . S
C642 H646 0.950 . S
C642 C651 1.390 . S
C643 C642 1.387 . S
C643 C645 1.387 . S
H644 C651 0.950 . S
C645 C643 1.387 . S
C645 C647 1.390 . S
C645 H649 0.950 . S
H646 C642 0.950 . S
C647 C645 1.390 . S
C647 C648 1.387 . S
C647 H650 0.950 . S
C648 C647 1.387 . S
C648 C651 1.387 . S
H649 C645 0.950 . S
H650 C647 0.950 . S
C651 C642 1.390 . S
C651 H644 0.950 . S
C651 C648 1.387 . S
C652 C653 1.387 . S
C652 H656 0.950 . S
C652 C661 1.390 . S
C653 C652 1.387 . S
C653 C655 1.387 . S
H654 C661 0.950 . S
C655 C653 1.387 . S
C655 C657 1.390 . S
C655 H659 0.950 . S
H656 C652 0.950 . S
C657 C655 1.390 . S
C657 C658 1.387 . S
C657 H660 0.950 . S
C658 C657 1.387 . S
C658 C661 1.387 . S
H659 C655 0.950 . S
H660 C657 0.950 . S
C661 C652 1.390 . S
C661 H654 0.950 . S
C661 C658 1.387 . S
C662 C663 1.369 1_556 S
C662 H666 0.950 . S
C662 C671 1.390 1_565 S
C663 C662 1.369 1_554 S
C663 C665 1.406 . S
H664 C671 0.950 . S
C665 C663 1.406 . S
C665 C667 1.390 1_565 S
C665 H669 0.950 . S
H666 C662 0.950 . S
C667 C665 1.390 1_545 S
C667 C668 1.406 . S
C667 H670 0.950 . S
C668 C667 1.406 . S
C668 C671 1.369 1_554 S
H669 C665 0.950 . S
H670 C667 0.950 . S
C671 C662 1.390 1_545 S
C671 H664 0.950 . S
C671 C668 1.369 1_556 S
C672 C673 1.390 1_554 S
C672 H676 0.950 . S
C672 C681 1.390 . S
C673 C672 1.390 1_556 S
C673 C675 1.385 . S
H674 C681 0.950 . S
C675 C673 1.385 . S
C675 C677 1.390 . S
C675 H679 0.950 . S
H676 C672 0.950 . S
C677 C675 1.390 . S
C677 C678 1.385 . S
C677 H680 0.950 . S
C678 C677 1.385 . S
C678 C681 1.390 1_556 S
H679 C675 0.950 . S
H680 C677 0.950 . S
C681 C672 1.390 . S
C681 H674 0.950 . S
C681 C678 1.390 1_554 S
C682 C683 1.385 . S
C682 H686 0.950 . S
C682 C691 1.390 . S
C683 C682 1.385 . S
C683 C685 1.390 1_556 S
H684 C691 0.950 . S
C685 C683 1.390 1_554 S
C685 C687 1.390 . S
C685 H689 0.950 . S
H686 C682 0.950 . S
C687 C685 1.390 . S
C687 C688 1.390 1_554 S
C687 H690 0.950 . S
C688 C687 1.390 1_556 S
C688 C691 1.385 . S
H689 C685 0.950 . S
H690 C687 0.950 . S
C691 C682 1.390 . S
C691 H684 0.950 . S
C691 C688 1.385 . S
C692 C693 1.387 . S
C692 H696 0.950 . S
C692 C701 1.390 1_455 S
C693 C692 1.387 . S
C693 C695 1.387 . S
H694 C701 0.950 . S
C695 C693 1.387 . S
C695 C697 1.390 1_455 S
C695 H699 0.950 . S
H696 C692 0.950 . S
C697 C695 1.390 1_655 S
C697 C698 1.387 . S
C697 H700 0.950 . S
C698 C697 1.387 . S
C698 C701 1.387 . S
H699 C695 0.950 . S
H700 C697 0.950 . S
C701 C692 1.390 1_655 S
C701 H694 0.950 . S
C701 C698 1.387 . S
C702 C703 1.387 . S
C702 H706 0.950 . S
C702 C711 1.390 . S
C703 C702 1.387 . S
C703 C705 1.387 . S
H704 C711 0.950 . S
C705 C703 1.387 . S
C705 C707 1.390 . S
C705 H709 0.950 . S
H706 C702 0.950 . S
C707 C705 1.390 . S
C707 C708 1.387 . S
C707 H710 0.950 . S
C708 C707 1.387 . S
C708 C711 1.387 . S
H709 C705 0.950 . S
H710 C707 0.950 . S
C711 C702 1.390 . S
C711 H704 0.950 . S
C711 C708 1.387 . S
C712 C713 1.387 . S
C712 H716 0.950 . S
C712 C721 1.390 . S
C713 C712 1.387 . S
C713 C715 1.387 . S
H714 C721 0.950 . S
C715 C713 1.387 . S
C715 C717 1.390 . S
C715 H719 0.950 . S
H716 C712 0.950 . S
C717 C715 1.390 . S
C717 C718 1.387 . S
C717 H720 0.950 . S
C718 C717 1.387 . S
C718 C721 1.387 . S
H719 C715 0.950 . S
H720 C717 0.950 . S
C721 C712 1.390 . S
C721 H714 0.950 . S
C721 C718 1.387 . S
C722 C723 1.387 . S
C722 H726 0.950 . S
C722 C731 1.390 1_645 S
C723 C722 1.387 . S
C723 C725 1.387 . S
H724 C731 0.950 . S
C725 C723 1.387 . S
C725 C727 1.390 1_645 S
C725 H729 0.950 . S
H726 C722 0.950 . S
C727 C725 1.390 1_465 S
C727 C728 1.387 . S
C727 H730 0.950 . S
C728 C727 1.387 . S
C728 C731 1.387 . S
H729 C725 0.950 . S
H730 C727 0.950 . S
C731 C722 1.390 1_465 S
C731 H724 0.950 . S
C731 C728 1.387 . S
C732 C733 1.387 . S
C732 H736 0.950 . S
C732 C741 1.390 . S
C733 C732 1.387 . S
C733 C735 1.387 . S
H734 C741 0.950 . S
C735 C733 1.387 . S
C735 C737 1.390 . S
C735 H739 0.950 . S
H736 C732 0.950 . S
C737 C735 1.390 . S
C737 C738 1.387 . S
C737 H740 0.950 . S
C738 C737 1.387 . S
C738 C741 1.387 . S
H739 C735 0.950 . S
H740 C737 0.950 . S
C741 C732 1.390 . S
C741 H734 0.950 . S
C741 C738 1.387 . S
C742 C743 1.387 . S
C742 H746 0.950 . S
C742 C751 1.390 1_565 S
C743 C742 1.387 . S
C743 C745 1.387 . S
H744 C751 0.950 . S
C745 C743 1.387 . S
C745 C747 1.390 1_565 S
C745 H749 0.950 . S
H746 C742 0.950 . S
C747 C745 1.390 1_545 S
C747 C748 1.387 . S
C747 H750 0.950 . S
C748 C747 1.387 . S
C748 C751 1.387 . S
H749 C745 0.950 . S
H750 C747 0.950 . S
C751 C742 1.390 1_545 S
C751 H744 0.950 . S
C751 C748 1.387 . S
C433 C32 1.923 . S
C438 C76 1.928 . S
C443 C13 1.924 . S
C448 C130 1.932 . S
C453 C167 1.932 . S
C458 C67 1.924 . S
C463 C121 1.924 . S
C468 C184 1.932 . S
C473 C194 1.922 . S
C478 C221 1.928 . S
C483 C292 1.930 . S
C488 C175 1.924 . S
C493 C248 1.923 . S
C498 C5 1.929 1_565 S
C503 C283 1.924 . S
C508 C22 1.932 1_545 S
C513 C275 1.932 . S
C518 C356 1.925 . S
C523 C337 1.924 . S
C528 C238 1.931 . S
C533 C383 1.930 . S
C538 C302 1.923 . S
C543 C400 1.932 . S
C548 C229 1.925 . S
C553 C410 1.925 . S
C558 C113 1.932 . S
C563 C59 1.932 . S
C568 C391 1.925 . S
C573 C329 1.932 1_565 S
C578 C140 1.925 . S
C583 C346 1.932 1_545 S
C588 C86 1.925 . S
C593 C27 0.817 . S
C598 C10 0.817 . S
C603 C81 0.817 . S
C608 C64 0.817 . S
C613 C118 0.817 . S
C618 C135 0.817 . S
C623 C172 0.816 . S
C628 C189 0.816 . S
C633 C226 0.817 . S
C638 C243 0.817 . S
C643 C280 0.816 . S
C648 C297 0.816 . S
C653 C351 0.816 . S
C658 C334 0.816 . S
C663 C388 0.816 . S
C668 C405 0.816 . S
C673 C413 1.081 . S
C678 C28 1.078 . S
C683 C35 1.085 . S
C688 C406 1.088 . S
C693 C89 1.081 . S
C698 C143 1.081 . S
C703 C359 1.085 . S
C708 C190 1.083 . S
C713 C197 1.085 . S
C718 C352 1.087 . S
C723 C305 1.085 . S
C728 C244 1.085 . S
C733 C298 1.081 . S
C738 C251 1.081 . S
C743 C136 1.081 . S
C748 C82 1.081 . S
