# Generated by pormake.
# Topology can, (4)-cn, num edge types: 1
# Building blocks:
#     Node 0, Type 0, BuildingBlock: QUQFOY_clean_sbu_1, # of connection points: 4
#     Node 1, Type 0, BuildingBlock: QUQFOY_clean_sbu_1, # of connection points: 4
#     Node 2, Type 0, BuildingBlock: QUQFOY_clean_sbu_1, # of connection points: 4
#     Node 3, Type 0, BuildingBlock: QUQFOY_clean_sbu_1, # of connection points: 4
#     Node 4, Type 0, BuildingBlock: QUQFOY_clean_sbu_1, # of connection points: 4
#     Node 5, Type 0, BuildingBlock: QUQFOY_clean_sbu_1, # of connection points: 4
#     Node 6, Type 0, BuildingBlock: QUQFOY_clean_sbu_1, # of connection points: 4
#     Node 7, Type 0, BuildingBlock: QUQFOY_clean_sbu_1, # of connection points: 4
#     Node 8, Type 0, BuildingBlock: QUQFOY_clean_sbu_1, # of connection points: 4
#     Node 9, Type 0, BuildingBlock: QUQFOY_clean_sbu_1, # of connection points: 4
#     Node 10, Type 0, BuildingBlock: QUQFOY_clean_sbu_1, # of connection points: 4
#     Node 11, Type 0, BuildingBlock: QUQFOY_clean_sbu_1, # of connection points: 4
#     Edge 12, Type (0, 0), BuildingBlock: KIFKEQ_clean_linker_1, # of connection points: 2
#     Edge 13, Type (0, 0), BuildingBlock: KIFKEQ_clean_linker_1, # of connection points: 2
#     Edge 14, Type (0, 0), BuildingBlock: KIFKEQ_clean_linker_1, # of connection points: 2
#     Edge 15, Type (0, 0), BuildingBlock: KIFKEQ_clean_linker_1, # of connection points: 2
#     Edge 16, Type (0, 0), BuildingBlock: KIFKEQ_clean_linker_1, # of connection points: 2
#     Edge 17, Type (0, 0), BuildingBlock: KIFKEQ_clean_linker_1, # of connection points: 2
#     Edge 18, Type (0, 0), BuildingBlock: KIFKEQ_clean_linker_1, # of connection points: 2
#     Edge 19, Type (0, 0), BuildingBlock: KIFKEQ_clean_linker_1, # of connection points: 2
#     Edge 20, Type (0, 0), BuildingBlock: KIFKEQ_clean_linker_1, # of connection points: 2
#     Edge 21, Type (0, 0), BuildingBlock: KIFKEQ_clean_linker_1, # of connection points: 2
#     Edge 22, Type (0, 0), BuildingBlock: KIFKEQ_clean_linker_1, # of connection points: 2
#     Edge 23, Type (0, 0), BuildingBlock: KIFKEQ_clean_linker_1, # of connection points: 2
#     Edge 24, Type (0, 0), BuildingBlock: KIFKEQ_clean_linker_1, # of connection points: 2
#     Edge 25, Type (0, 0), BuildingBlock: KIFKEQ_clean_linker_1, # of connection points: 2
#     Edge 26, Type (0, 0), BuildingBlock: KIFKEQ_clean_linker_1, # of connection points: 2
#     Edge 27, Type (0, 0), BuildingBlock: KIFKEQ_clean_linker_1, # of connection points: 2
#     Edge 28, Type (0, 0), BuildingBlock: KIFKEQ_clean_linker_1, # of connection points: 2
#     Edge 29, Type (0, 0), BuildingBlock: KIFKEQ_clean_linker_1, # of connection points: 2
#     Edge 30, Type (0, 0), BuildingBlock: KIFKEQ_clean_linker_1, # of connection points: 2
#     Edge 31, Type (0, 0), BuildingBlock: KIFKEQ_clean_linker_1, # of connection points: 2
#     Edge 32, Type (0, 0), BuildingBlock: KIFKEQ_clean_linker_1, # of connection points: 2
#     Edge 33, Type (0, 0), BuildingBlock: KIFKEQ_clean_linker_1, # of connection points: 2
#     Edge 34, Type (0, 0), BuildingBlock: KIFKEQ_clean_linker_1, # of connection points: 2
#     Edge 35, Type (0, 0), BuildingBlock: KIFKEQ_clean_linker_1, # of connection points: 2
# Relax obj value: 0.074
# Max RMSD: 0.097
# Mean RMSD: 0.097
data_MOF--net-can--node1-QUQFOY_clean_sbu_1--edge1-KIFKEQ_clean_linker_1
_symmetry_space_group_name_H-M    P1
_symmetry_Int_Tables_number       1
_symmetry_cell_setting            triclinic
loop_
_symmetry_equiv_pos_as_xyz
'x, y, z'
_cell_length_a     58.653514
_cell_length_b     58.619227
_cell_length_c     28.861667
_cell_angle_alpha  90.006008
_cell_angle_beta   89.997676
_cell_angle_gamma 119.90316
loop_
_atom_site_label
_atom_site_type_symbol
_atom_site_fract_x
_atom_site_fract_y
_atom_site_fract_z
_atom_type_partial_charge
O0 O 0.05812 0.38529 0.18425 0.0
Cd1 Cd 0.07904 0.40745 0.24021 0.0
Cd2 Cd 0.02967 0.38261 0.27738 0.0
O3 O 0.019 0.36132 0.21587 0.0
O4 O 0.11584 0.42081 0.21916 0.0
O5 O 0.09912 0.39558 0.28093 0.0
C6 C 0.11872 0.4082 0.25305 0.0
C7 C 0.01878 0.3629 0.35063 0.0
C8 C 0.03425 0.36725 0.18105 0.0
C9 C 0.05648 0.44155 0.26561 0.0
O10 O 0.03532 0.42036 0.27488 0.0
O11 O 0.07698 0.44087 0.25356 0.0
O12 O 0.00138 0.3637 0.32436 0.0
O13 O 0.04227 0.37217 0.33421 0.0
O14 O 0.67277 0.05981 0.68307 0.0
Cd15 Cd 0.67096 0.08017 0.73972 0.0
Cd16 Cd 0.64638 0.03069 0.77652 0.0
O17 O 0.65623 0.0203 0.71419 0.0
O18 O 0.69343 0.11758 0.7212 0.0
O19 O 0.70336 0.09959 0.77945 0.0
C20 C 0.70944 0.11988 0.75376 0.0
C21 C 0.65635 0.01987 0.84872 0.0
C22 C 0.66632 0.03572 0.67979 0.0
C23 C 0.61436 0.05747 0.76763 0.0
O24 O 0.6143 0.03619 0.77624 0.0
O25 O 0.63541 0.07782 0.75486 0.0
O26 O 0.63793 0.00238 0.82298 0.0
O27 O 0.67016 0.04342 0.83224 0.0
O28 O 0.61854 0.67493 0.18563 0.0
Cd29 Cd 0.59454 0.67193 0.24001 0.0
Cd30 Cd 0.61839 0.64655 0.27842 0.0
O31 O 0.64015 0.65717 0.21768 0.0
O32 O 0.58102 0.69534 0.21921 0.0
O33 O 0.60518 0.70305 0.28224 0.0
C34 C 0.59289 0.71031 0.25406 0.0
C35 C 0.63718 0.65673 0.35214 0.0
C36 C 0.63595 0.66814 0.18328 0.0
C37 C 0.56008 0.61465 0.26415 0.0
O38 O 0.58097 0.61442 0.27506 0.0
O39 O 0.56116 0.63591 0.25125 0.0
O40 O 0.63809 0.63905 0.32686 0.0
O41 O 0.62662 0.66959 0.33465 0.0
O42 O 0.94194 0.61471 0.68416 0.0
Cd43 Cd 0.9211 0.59256 0.74018 0.0
Cd44 Cd 0.97051 0.61752 0.77732 0.0
O45 O 0.98107 0.63875 0.71575 0.0
O46 O 0.88422 0.57906 0.71946 0.0
O47 O 0.90108 0.60442 0.78105 0.0
C48 C 0.88139 0.59169 0.75338 0.0
C49 C 0.98147 0.63728 0.85055 0.0
C50 C 0.96581 0.63279 0.68094 0.0
C51 C 0.94382 0.55859 0.76559 0.0
O52 O 0.96495 0.5798 0.77484 0.0
O53 O 0.92329 0.55921 0.75355 0.0
O54 O 0.99885 0.63651 0.82421 0.0
O55 O 0.95794 0.62796 0.83421 0.0
O56 O 0.32787 0.94016 0.18451 0.0
Cd57 Cd 0.32975 0.91983 0.24114 0.0
Cd58 Cd 0.35451 0.96934 0.27771 0.0
O59 O 0.34459 0.97973 0.21546 0.0
O60 O 0.30723 0.88243 0.22262 0.0
O61 O 0.29737 0.90043 0.28096 0.0
C62 C 0.29125 0.88015 0.25523 0.0
C63 C 0.34451 0.98008 0.34994 0.0
C64 C 0.33438 0.96426 0.18116 0.0
C65 C 0.38641 0.94245 0.26864 0.0
O66 O 0.38655 0.96378 0.27725 0.0
O67 O 0.36529 0.92212 0.25604 0.0
O68 O 0.36295 0.9976 0.32427 0.0
O69 O 0.33071 0.95655 0.33339 0.0
O70 O 0.38933 0.32919 0.68554 0.0
Cd71 Cd 0.41026 0.32958 0.74288 0.0
Cd72 Cd 0.38447 0.35325 0.77909 0.0
O73 O 0.36392 0.3428 0.7168 0.0
O74 O 0.4237 0.30593 0.7233 0.0
O75 O 0.39694 0.29724 0.78291 0.0
C76 C 0.41004 0.29021 0.75622 0.0
C77 C 0.36405 0.3441 0.85174 0.0
C78 C 0.37084 0.33441 0.68189 0.0
C79 C 0.44356 0.38572 0.77074 0.0
O80 O 0.42208 0.38551 0.77816 0.0
O81 O 0.44335 0.36472 0.75899 0.0
O82 O 0.36484 0.36224 0.82533 0.0
O83 O 0.37366 0.33005 0.83571 0.0
O84 O 0.61821 0.94365 0.35531 0.0
Cd85 Cd 0.59411 0.92146 0.30189 0.0
Cd86 Cd 0.61742 0.97035 0.26099 0.0
O87 O 0.63854 0.98279 0.32223 0.0
O88 O 0.58155 0.88498 0.32419 0.0
O89 O 0.60505 0.90093 0.26035 0.0
C90 C 0.59325 0.88168 0.28926 0.0
C91 C 0.63746 0.9814 0.18808 0.0
C92 C 0.63489 0.96807 0.35708 0.0
C93 C 0.55871 0.94263 0.27512 0.0
O94 O 0.57938 0.96348 0.26268 0.0
O95 O 0.56014 0.92303 0.29034 0.0
O96 O 0.63564 0.9985 0.21358 0.0
O97 O 0.62895 0.95812 0.20504 0.0
O98 O 0.67504 0.61701 0.85808 0.0
Cd99 Cd 0.67187 0.59299 0.80361 0.0
Cd100 Cd 0.64681 0.61713 0.76531 0.0
O101 O 0.65755 0.63889 0.82607 0.0
O102 O 0.69523 0.57937 0.8242 0.0
O103 O 0.70289 0.60358 0.76122 0.0
C104 C 0.71016 0.59126 0.78932 0.0
C105 C 0.65717 0.63596 0.69163 0.0
C106 C 0.66843 0.63457 0.86046 0.0
C107 C 0.61461 0.55879 0.77944 0.0
O108 O 0.61454 0.57978 0.7686 0.0
O109 O 0.63579 0.5597 0.79233 0.0
O110 O 0.63955 0.63701 0.71686 0.0
O111 O 0.66986 0.62523 0.70915 0.0
O112 O 0.06152 0.67139 0.35613 0.0
Cd113 Cd 0.0809 0.67071 0.29735 0.0
Cd114 Cd 0.03134 0.64739 0.26337 0.0
O115 O 0.02259 0.65908 0.32574 0.0
O116 O 0.11856 0.69279 0.31457 0.0
O117 O 0.09987 0.70379 0.25905 0.0
C118 C 0.12048 0.70937 0.28343 0.0
C119 C 0.02059 0.65692 0.19064 0.0
C120 C 0.03812 0.66702 0.36034 0.0
C121 C 0.05704 0.61423 0.27029 0.0
O122 O 0.03564 0.61442 0.26479 0.0
O123 O 0.0781 0.63537 0.27998 0.0
O124 O 0.00291 0.63928 0.21727 0.0
O125 O 0.04431 0.6703 0.20653 0.0
O126 O 0.38235 0.05579 0.8564 0.0
Cd127 Cd 0.40639 0.07792 0.80289 0.0
Cd128 Cd 0.3831 0.02902 0.76226 0.0
O129 O 0.36198 0.0166 0.82348 0.0
O130 O 0.41889 0.11436 0.82527 0.0
O131 O 0.39541 0.09843 0.76139 0.0
C132 C 0.40716 0.11765 0.79037 0.0
C133 C 0.36306 0.01809 0.68938 0.0
C134 C 0.36566 0.03137 0.85827 0.0
C135 C 0.44182 0.05679 0.77613 0.0
O136 O 0.42114 0.03591 0.76387 0.0
O137 O 0.44039 0.07641 0.79126 0.0
O138 O 0.36485 0.00094 0.71477 0.0
O139 O 0.37161 0.04136 0.70644 0.0
O140 O 0.32989 0.39007 0.35751 0.0
Cd141 Cd 0.33039 0.41105 0.30018 0.0
Cd142 Cd 0.35375 0.38501 0.26394 0.0
O143 O 0.34319 0.36442 0.3262 0.0
O144 O 0.30682 0.42459 0.31974 0.0
O145 O 0.2981 0.39782 0.26009 0.0
C146 C 0.2911 0.41094 0.28681 0.0
C147 C 0.34442 0.36457 0.19129 0.0
C148 C 0.33493 0.37145 0.36114 0.0
C149 C 0.3865 0.44413 0.2723 0.0
O150 O 0.38614 0.42256 0.26488 0.0
O151 O 0.36559 0.44406 0.28405 0.0
O152 O 0.36252 0.36524 0.21763 0.0
O153 O 0.33053 0.37433 0.20737 0.0
O154 O 0.93877 0.32872 0.85603 0.0
Cd155 Cd 0.91951 0.32947 0.79714 0.0
Cd156 Cd 0.96909 0.35282 0.76346 0.0
O157 O 0.97775 0.34104 0.82583 0.0
O158 O 0.88181 0.30734 0.81405 0.0
O159 O 0.90067 0.29647 0.75864 0.0
C160 C 0.88 0.29082 0.78286 0.0
C161 C 0.97984 0.34326 0.69074 0.0
C162 C 0.96215 0.33307 0.86035 0.0
C163 C 0.94343 0.386 0.77032 0.0
O164 O 0.96484 0.3858 0.76492 0.0
O165 O 0.92235 0.36485 0.77986 0.0
O166 O 0.99753 0.36088 0.71739 0.0
O167 O 0.95611 0.32992 0.70662 0.0
H168 H 0.98488 0.32676 0.15862 0.0
H169 H 0.06036 0.38108 0.0987 0.0
H170 H 0.967 0.31186 0.08104 0.0
H171 H 0.04238 0.36735 0.02188 0.0
H172 H 0.00876 0.33549 0.88391 0.0
H173 H 0.02561 0.33683 0.9618 0.0
H174 H 0.95396 0.32876 1.01985 0.0
H175 H 0.9368 0.32607 0.94266 0.0
C176 C 0.99771 0.33535 0.129 0.0
C177 C 0.02396 0.35532 0.13496 0.0
C178 C 0.98744 0.32696 0.08443 0.0
C179 C 0.00309 0.33862 0.04485 0.0
C180 C 0.0297 0.35759 0.05118 0.0
C181 C 0.04001 0.36568 0.09555 0.0
C182 C 0.99648 0.33355 0.91339 0.0
C183 C 0.97156 0.33095 0.90698 0.0
C184 C 0.00618 0.33448 0.95812 0.0
C185 C 0.99133 0.33324 0.99745 0.0
C186 C 0.96592 0.32941 0.99075 0.0
C187 C 0.95611 0.3281 0.9462 0.0
H188 H 0.65516 0.01882 0.38658 0.0
H189 H 0.64283 0.94292 0.42941 0.0
H190 H 0.66776 0.03517 0.46524 0.0
H191 H 0.65666 0.95953 0.50774 0.0
H192 H 0.63966 0.98485 0.6492 0.0
H193 H 0.63766 0.96935 0.57038 0.0
H194 H 0.69657 0.0478 0.52845 0.0
H195 H 0.69754 0.06346 0.60698 0.0
C196 C 0.65594 0.00587 0.41252 0.0
C197 C 0.6477 0.97951 0.40195 0.0
C198 C 0.66327 0.01525 0.45776 0.0
C199 C 0.6629 0.99858 0.4933 0.0
C200 C 0.65651 0.97275 0.4817 0.0
C201 C 0.64879 0.96327 0.43667 0.0
C202 C 0.6525 0.99867 0.62332 0.0
C203 C 0.6685 0.02542 0.63419 0.0
C204 C 0.65149 0.98978 0.578 0.0
C205 C 0.66676 0.00736 0.54262 0.0
C206 C 0.68404 0.0338 0.55438 0.0
C207 C 0.68475 0.04276 0.59952 0.0
H208 H 0.65859 0.63994 0.15267 0.0
H209 H 0.64216 0.70114 0.11171 0.0
H210 H 0.67174 0.63753 0.07377 0.0
H211 H 0.65651 0.69971 0.03312 0.0
H212 H 0.64067 0.65766 0.89115 0.0
H213 H 0.63857 0.67105 0.97002 0.0
H214 H 0.70027 0.65511 1.01047 0.0
H215 H 0.70139 0.64052 0.93192 0.0
C216 C 0.65858 0.65346 0.1271 0.0
C217 C 0.64903 0.67048 0.13827 0.0
C218 C 0.66623 0.65218 0.08171 0.0
C219 C 0.66488 0.66819 0.0466 0.0
C220 C 0.65716 0.68659 0.05881 0.0
C221 C 0.64914 0.68757 0.104 0.0
C222 C 0.65415 0.65754 0.91667 0.0
C223 C 0.67094 0.64773 0.90546 0.0
C224 C 0.65305 0.66533 0.96204 0.0
C225 C 0.66902 0.66386 0.99708 0.0
C226 C 0.68719 0.65586 0.98483 0.0
C227 C 0.68799 0.6477 0.93966 0.0
H228 H 0.99141 0.6644 0.38375 0.0
H229 H 0.06342 0.67411 0.44274 0.0
H230 H 0.97446 0.66301 0.46158 0.0
H231 H 0.04617 0.67137 0.51987 0.0
H232 H 0.01512 0.67337 0.65851 0.0
H233 H 0.03301 0.68825 0.58094 0.0
H234 H 0.95773 0.63253 0.52173 0.0
H235 H 0.93973 0.61882 0.59855 0.0
C236 C 0.00367 0.6664 0.41327 0.0
C237 C 0.02864 0.66909 0.40694 0.0
C238 C 0.99392 0.66544 0.45797 0.0
C239 C 0.00876 0.66675 0.49735 0.0
C240 C 0.03422 0.67067 0.49073 0.0
C241 C 0.04407 0.672 0.44621 0.0
C242 C 0.00231 0.66472 0.62888 0.0
C243 C 0.97609 0.64469 0.63484 0.0
C244 C 0.0126 0.67309 0.58432 0.0
C245 C 0.99698 0.66137 0.54473 0.0
C246 C 0.97038 0.64234 0.55104 0.0
C247 C 0.96006 0.63426 0.59541 0.0
H248 H 0.34531 0.98066 0.88801 0.0
H249 H 0.35778 0.05669 0.93041 0.0
H250 H 0.3327 0.96446 0.96674 0.0
H251 H 0.34395 0.04022 1.0088 0.0
H252 H 0.36109 0.01508 0.15035 0.0
H253 H 0.36301 0.03046 0.07148 0.0
H254 H 0.30389 0.952 0.02999 0.0
H255 H 0.30298 0.93646 0.10858 0.0
C256 C 0.34456 0.99367 0.91387 0.0
C257 C 0.35285 0.02002 0.90316 0.0
C258 C 0.33723 0.98437 0.95915 0.0
C259 C 0.33764 0.00112 0.99458 0.0
C260 C 0.34407 0.02694 0.98284 0.0
C261 C 0.35179 0.03634 0.93777 0.0
C262 C 0.34818 0.00123 0.12456 0.0
C263 C 0.33214 0.97451 0.13556 0.0
C264 C 0.34915 0.01006 0.07921 0.0
C265 C 0.33379 0.99243 0.04394 0.0
C266 C 0.31647 0.96603 0.05584 0.0
C267 C 0.3158 0.95714 0.10101 0.0
H268 H 0.32581 0.38795 0.44371 0.0
H269 H 0.34064 0.32897 0.38402 0.0
H270 H 0.32941 0.37381 0.52064 0.0
H271 H 0.34294 0.31375 0.46171 0.0
H272 H 0.3871 0.32494 0.59938 0.0
H273 H 0.37323 0.32885 0.52239 0.0
H274 H 0.31382 0.3434 0.58115 0.0
H275 H 0.32879 0.34077 0.65888 0.0
C276 C 0.32925 0.3715 0.44696 0.0
C277 C 0.33332 0.35985 0.40755 0.0
C278 C 0.33108 0.36318 0.49139 0.0
C279 C 0.33669 0.34271 0.49779 0.0
C280 C 0.33918 0.32997 0.45826 0.0
C281 C 0.3377 0.33856 0.41363 0.0
C282 C 0.37084 0.32866 0.59607 0.0
C283 C 0.35932 0.33293 0.63545 0.0
C284 C 0.36268 0.33067 0.55162 0.0
C285 C 0.34249 0.33668 0.54516 0.0
C286 C 0.32984 0.33934 0.58465 0.0
C287 C 0.33829 0.33767 0.6293 0.0
H288 H 0.02829 0.65476 0.89524 0.0
H289 H 0.94922 0.64014 0.91647 0.0
H290 H 0.0374 0.66382 0.97732 0.0
H291 H 0.9586 0.65005 0.99879 0.0
H292 H 0.97342 0.62882 0.14638 0.0
H293 H 0.96436 0.62868 0.06424 0.0
H294 H 0.04403 0.69166 0.042 0.0
H295 H 0.05333 0.69119 0.12435 0.0
C296 C 0.01298 0.65401 0.91728 0.0
C297 C 0.98793 0.64649 0.89925 0.0
C298 C 0.01828 0.65939 0.9645 0.0
C299 C 0.99871 0.65753 0.99503 0.0
C300 C 0.97403 0.65124 0.97654 0.0
C301 C 0.96868 0.64574 0.92924 0.0
C302 C 0.98894 0.64293 0.12415 0.0
C303 C 0.01419 0.65985 0.14198 0.0
C304 C 0.98367 0.64296 0.0769 0.0
C305 C 0.00349 0.66001 0.04614 0.0
C306 C 0.0284 0.6779 0.06443 0.0
C307 C 0.0337 0.67778 0.11176 0.0
H308 H 0.3723 0.02712 0.3947 0.0
H309 H 0.30941 0.94724 0.41511 0.0
H310 H 0.37173 0.03592 0.4768 0.0
H311 H 0.3083 0.95628 0.49744 0.0
H312 H 0.34558 0.97141 0.6442 0.0
H313 H 0.33636 0.96257 0.56211 0.0
H314 H 0.34961 0.04132 0.54199 0.0
H315 H 0.35961 0.05043 0.62436 0.0
C316 C 0.35793 0.01157 0.41655 0.0
C317 C 0.34109 0.98638 0.39835 0.0
C318 C 0.35749 0.01668 0.46375 0.0
C319 C 0.34012 0.99676 0.49403 0.0
C320 C 0.32226 0.97196 0.47533 0.0
C321 C 0.32276 0.96682 0.42804 0.0
C322 C 0.34617 0.98676 0.62247 0.0
C323 C 0.3536 0.01173 0.64084 0.0
C324 C 0.34068 0.98161 0.57528 0.0
C325 C 0.34239 0.00127 0.54515 0.0
C326 C 0.34852 0.02585 0.56399 0.0
C327 C 0.35408 0.03102 0.6113 0.0
H328 H 0.34576 0.37301 0.8958 0.0
H329 H 0.3615 0.30929 0.918 0.0
H330 H 0.33664 0.37324 0.97782 0.0
H331 H 0.35155 0.30894 1.00026 0.0
H332 H 0.37298 0.34591 0.14714 0.0
H333 H 0.37297 0.3366 0.06515 0.0
H334 H 0.30907 0.3521 0.04292 0.0
H335 H 0.30966 0.36223 0.12516 0.0
C336 C 0.34674 0.35864 0.91803 0.0
C337 C 0.35462 0.34129 0.9003 0.0
C338 C 0.34132 0.35865 0.96522 0.0
C339 C 0.34352 0.34124 0.996 0.0
C340 C 0.3501 0.32296 0.9778 0.0
C341 C 0.35563 0.32302 0.93053 0.0
C342 C 0.35864 0.34698 0.12496 0.0
C343 C 0.34148 0.35507 0.14274 0.0
C344 C 0.35852 0.34145 0.0778 0.0
C345 C 0.34115 0.34376 0.04708 0.0
C346 C 0.32305 0.35056 0.06533 0.0
C347 C 0.32325 0.35619 0.11259 0.0
H348 H 0.94707 0.30899 0.62449 0.0
H349 H 0.027 0.37134 0.64646 0.0
H350 H 0.95634 0.30852 0.54212 0.0
H351 H 0.03603 0.37148 0.5643 0.0
H352 H 0.05106 0.36002 0.41644 0.0
H353 H 0.04174 0.35011 0.49878 0.0
H354 H 0.96294 0.3364 0.47753 0.0
H355 H 0.972 0.34545 0.39545 0.0
C356 C 0.9667 0.32239 0.61188 0.0
C357 C 0.98622 0.34032 0.64208 0.0
C358 C 0.97198 0.32227 0.56454 0.0
C359 C 0.99688 0.34016 0.54623 0.0
C360 C 0.01672 0.3572 0.57698 0.0
C361 C 0.01147 0.35724 0.62425 0.0
C362 C 0.03161 0.35443 0.42926 0.0
C363 C 0.01235 0.3537 0.39934 0.0
C364 C 0.02631 0.34893 0.47657 0.0
C365 C 0.00163 0.34266 0.49512 0.0
C366 C 0.98205 0.34081 0.46465 0.0
C367 C 0.98732 0.3462 0.41743 0.0
H368 H 0.62859 0.97275 0.89326 0.0
H369 H 0.6913 0.05268 0.91413 0.0
H370 H 0.62904 0.96386 0.97534 0.0
H371 H 0.69229 0.04355 0.99644 0.0
H372 H 0.65484 0.02812 0.14308 0.0
H373 H 0.66413 0.03709 0.06103 0.0
H374 H 0.65111 0.95844 0.04058 0.0
H375 H 0.64104 0.94921 0.12291 0.0
C376 C 0.64289 0.9883 0.91521 0.0
C377 C 0.65972 0.01352 0.89713 0.0
C378 C 0.64327 0.98314 0.9624 0.0
C379 C 0.66056 0.00303 0.9928 0.0
C380 C 0.67839 0.02788 0.97423 0.0
C381 C 0.67796 0.03307 0.92695 0.0
C382 C 0.65431 0.01282 0.12129 0.0
C383 C 0.64693 0.98784 0.13956 0.0
C384 C 0.65984 0.01804 0.07411 0.0
C385 C 0.65821 0.99845 0.0439 0.0
C386 C 0.65213 0.97386 0.06265 0.0
C387 C 0.64653 0.96861 0.10993 0.0
H388 H 0.67542 0.64905 0.39015 0.0
H389 H 0.61782 0.67156 0.42463 0.0
H390 H 0.68587 0.64956 0.47192 0.0
H391 H 0.62646 0.67005 0.50648 0.0
H392 H 0.64998 0.67455 0.65371 0.0
H393 H 0.65072 0.68517 0.57197 0.0
H394 H 0.67049 0.62522 0.5373 0.0
H395 H 0.67178 0.61641 0.61913 0.0
C396 C 0.66505 0.65419 0.41539 0.0
C397 C 0.64581 0.66025 0.40108 0.0
C398 C 0.67078 0.65418 0.46247 0.0
C399 C 0.65678 0.6594 0.49664 0.0
C400 C 0.63811 0.66634 0.48181 0.0
C401 C 0.63297 0.66709 0.43464 0.0
C402 C 0.65502 0.66409 0.62846 0.0
C403 C 0.66081 0.64465 0.64272 0.0
C404 C 0.65514 0.66992 0.58139 0.0
C405 C 0.66021 0.65583 0.54719 0.0
C406 C 0.66689 0.63696 0.56199 0.0
C407 C 0.66751 0.63171 0.60914 0.0
H408 H 0.01669 0.56564 0.24545 0.0
H409 H 0.09799 0.60592 0.28926 0.0
H410 H 0.01685 0.52414 0.24384 0.0
H411 H 0.09791 0.5644 0.2889 0.0
H412 H 0.01771 0.45103 0.2957 0.0
H413 H 0.01812 0.49278 0.29614 0.0
H414 H 0.09643 0.53141 0.23791 0.0
H415 H 0.09632 0.48984 0.23866 0.0
C416 C 0.03459 0.56566 0.25477 0.0
C417 C 0.05732 0.58913 0.26747 0.0
C418 C 0.03462 0.54182 0.25418 0.0
C419 C 0.05736 0.54089 0.26645 0.0
C420 C 0.08015 0.56442 0.27867 0.0
C421 C 0.08016 0.58825 0.27907 0.0
C422 C 0.03506 0.46844 0.28316 0.0
C423 C 0.05699 0.46706 0.2672 0.0
C424 C 0.03522 0.49236 0.28307 0.0
C425 C 0.05726 0.51546 0.26686 0.0
C426 C 0.07925 0.51409 0.25118 0.0
C427 C 0.07914 0.4902 0.25145 0.0
H428 H 0.49003 0.09706 0.80327 0.0
H429 H 0.45198 0.01886 0.74428 0.0
H430 H 0.53198 0.09776 0.80271 0.0
H431 H 0.4939 0.01981 0.74294 0.0
H432 H 0.56599 0.01796 0.7948 0.0
H433 H 0.52484 0.01861 0.79733 0.0
H434 H 0.56511 0.09918 0.74959 0.0
H435 H 0.60647 0.09876 0.74789 0.0
C436 C 0.49062 0.0801 0.78989 0.0
C437 C 0.46759 0.05787 0.77399 0.0
C438 C 0.51469 0.08055 0.78941 0.0
C439 C 0.51626 0.05878 0.77305 0.0
C440 C 0.4933 0.03673 0.75655 0.0
C441 C 0.46927 0.03627 0.75703 0.0
C442 C 0.56614 0.03588 0.78502 0.0
C443 C 0.58955 0.05828 0.77099 0.0
C444 C 0.54249 0.03618 0.78619 0.0
C445 C 0.54165 0.05888 0.77332 0.0
C446 C 0.56513 0.08145 0.76008 0.0
C447 C 0.58882 0.08115 0.75892 0.0
H448 H 0.51193 0.60701 0.23767 0.0
H449 H 0.55006 0.56614 0.2936 0.0
H450 H 0.46998 0.56601 0.23784 0.0
H451 H 0.50801 0.52531 0.29476 0.0
H452 H 0.43452 0.45188 0.24494 0.0
H453 H 0.47612 0.49317 0.24215 0.0
H454 H 0.43717 0.53478 0.29046 0.0
H455 H 0.39542 0.49358 0.29223 0.0
C456 C 0.51136 0.58934 0.25029 0.0
C457 C 0.5344 0.58989 0.26555 0.0
C458 C 0.48726 0.56583 0.25057 0.0
C459 C 0.48562 0.54234 0.26619 0.0
C460 C 0.50863 0.54295 0.28178 0.0
C461 C 0.53273 0.56643 0.28141 0.0
C462 C 0.43478 0.46984 0.25477 0.0
C463 C 0.41161 0.46938 0.26887 0.0
C464 C 0.45869 0.4935 0.25347 0.0
C465 C 0.46003 0.51728 0.26634 0.0
C466 C 0.43679 0.51688 0.27984 0.0
C467 C 0.41286 0.49321 0.28104 0.0
H468 H 0.90405 0.51028 0.73861 0.0
H469 H 0.98265 0.5492 0.7957 0.0
H470 H 0.90401 0.46875 0.73789 0.0
H471 H 0.9823 0.50747 0.79619 0.0
H472 H 0.9838 0.4346 0.74561 0.0
H473 H 0.98363 0.47609 0.744 0.0
H474 H 0.90255 0.43581 0.78892 0.0
H475 H 0.90247 0.39429 0.78927 0.0
C476 C 0.92124 0.50995 0.75142 0.0
C477 C 0.94336 0.5331 0.76718 0.0
C478 C 0.92118 0.48608 0.75117 0.0
C479 C 0.94318 0.48475 0.76689 0.0
C480 C 0.9652 0.50786 0.7831 0.0
C481 C 0.96531 0.53177 0.78316 0.0
C482 C 0.96589 0.43457 0.75489 0.0
C483 C 0.94315 0.4111 0.76754 0.0
C484 C 0.96585 0.45841 0.75431 0.0
C485 C 0.94311 0.45933 0.76653 0.0
C486 C 0.92031 0.43579 0.77872 0.0
C487 C 0.92031 0.41197 0.77911 0.0
H488 H 0.43493 0.98194 0.29518 0.0
H489 H 0.39407 0.90103 0.24887 0.0
H490 H 0.47603 0.98118 0.29717 0.0
H491 H 0.43536 0.90049 0.25003 0.0
H492 H 0.51056 0.9025 0.3028 0.0
H493 H 0.46867 0.90194 0.30273 0.0
H494 H 0.50669 0.97973 0.24237 0.0
H495 H 0.54855 0.98055 0.24321 0.0
C496 C 0.43468 0.96398 0.28543 0.0
C497 C 0.41118 0.94158 0.27172 0.0
C498 C 0.4583 0.9636 0.28628 0.0
C499 C 0.45902 0.94084 0.27341 0.0
C500 C 0.43545 0.91827 0.26052 0.0
C501 C 0.41179 0.91863 0.25967 0.0
C502 C 0.50997 0.91946 0.28939 0.0
C503 C 0.53296 0.94161 0.27318 0.0
C504 C 0.48593 0.91908 0.28919 0.0
C505 C 0.48437 0.94085 0.27282 0.0
C506 C 0.50729 0.96282 0.25599 0.0
C507 C 0.53128 0.96321 0.25619 0.0
H508 H 0.60666 0.51046 0.80564 0.0
H509 H 0.56624 0.54911 0.75003 0.0
H510 H 0.56552 0.46862 0.8053 0.0
H511 H 0.52528 0.50718 0.7487 0.0
H512 H 0.45162 0.43385 0.7983 0.0
H513 H 0.49304 0.47533 0.80119 0.0
H514 H 0.53419 0.43597 0.75257 0.0
H515 H 0.49287 0.39435 0.75069 0.0
C516 C 0.58905 0.51003 0.79305 0.0
C517 C 0.58977 0.53319 0.77794 0.0
C518 C 0.56548 0.486 0.79267 0.0
C519 C 0.54207 0.48454 0.7771 0.0
C520 C 0.54285 0.50767 0.76165 0.0
C521 C 0.5664 0.5317 0.76211 0.0
C522 C 0.46951 0.434 0.78842 0.0
C523 C 0.46889 0.41075 0.7742 0.0
C524 C 0.49325 0.45783 0.78978 0.0
C525 C 0.51693 0.45902 0.77685 0.0
C526 C 0.51636 0.43571 0.76323 0.0
C527 C 0.49263 0.41185 0.76197 0.0
H528 H 0.15838 0.42409 0.19029 0.0
H529 H 0.13515 0.39123 0.3277 0.0
H530 H 0.19944 0.42347 0.19819 0.0
H531 H 0.17653 0.3908 0.3356 0.0
H532 H 0.26746 0.42794 0.34792 0.0
H533 H 0.22513 0.42594 0.34007 0.0
H534 H 0.21437 0.38948 0.2058 0.0
H535 H 0.25683 0.3913 0.21367 0.0
C536 C 0.16205 0.41676 0.22224 0.0
C537 C 0.14358 0.40781 0.2585 0.0
C538 C 0.18548 0.41623 0.22655 0.0
C539 C 0.19111 0.40705 0.26742 0.0
C540 C 0.1727 0.39812 0.30379 0.0
C541 C 0.14904 0.39831 0.29924 0.0
C542 C 0.25611 0.4195 0.31666 0.0
C543 C 0.26553 0.40987 0.28128 0.0
C544 C 0.23178 0.41818 0.3124 0.0
C545 C 0.21647 0.4075 0.27243 0.0
C546 C 0.22588 0.39793 0.2369 0.0
C547 C 0.25011 0.39893 0.24143 0.0
H548 H 0.87259 0.24494 0.74427 0.0
H549 H 0.83114 0.2804 0.80815 0.0
H550 H 0.83116 0.20294 0.73877 0.0
H551 H 0.7899 0.23872 0.80181 0.0
H552 H 0.72036 0.16836 0.72482 0.0
H553 H 0.76194 0.20968 0.73119 0.0
H554 H 0.79657 0.16934 0.80146 0.0
H555 H 0.75464 0.12783 0.79592 0.0
C556 C 0.85463 0.24382 0.75668 0.0
C557 C 0.85504 0.2659 0.77655 0.0
C558 C 0.83105 0.2198 0.75389 0.0
C559 C 0.80747 0.21771 0.77002 0.0
C560 C 0.80784 0.23991 0.78904 0.0
C561 C 0.83142 0.2637 0.79268 0.0
C562 C 0.73678 0.16831 0.74188 0.0
C563 C 0.73428 0.14492 0.76002 0.0
C564 C 0.76052 0.19194 0.74553 0.0
C565 C 0.78238 0.19257 0.7666 0.0
C566 C 0.77998 0.16923 0.78475 0.0
C567 C 0.756 0.14561 0.78192 0.0
H568 H 0.57575 0.73377 0.19276 0.0
H569 H 0.61058 0.74379 0.32855 0.0
H570 H 0.57667 0.77558 0.20111 0.0
H571 H 0.61142 0.78578 0.33684 0.0
H572 H 0.57735 0.84188 0.3519 0.0
H573 H 0.57799 0.80083 0.34381 0.0
H574 H 0.61057 0.82391 0.20636 0.0
H575 H 0.61 0.8652 0.21438 0.0
C576 C 0.58355 0.74487 0.22448 0.0
C577 C 0.59302 0.73543 0.2601 0.0
C578 C 0.58426 0.76891 0.22904 0.0
C579 C 0.59419 0.78395 0.26952 0.0
C580 C 0.60351 0.77448 0.30535 0.0
C581 C 0.60308 0.75051 0.30057 0.0
C582 C 0.58464 0.83824 0.31989 0.0
C583 C 0.59354 0.85675 0.28367 0.0
C584 C 0.58518 0.8148 0.31545 0.0
C585 C 0.59436 0.80921 0.27453 0.0
C586 C 0.60321 0.82766 0.23819 0.0
C587 C 0.60295 0.85129 0.24283 0.0
H588 H 0.84098 0.57456 0.69184 0.0
H589 H 0.86559 0.60967 0.82746 0.0
H590 H 0.79997 0.57524 0.70009 0.0
H591 H 0.82431 0.61022 0.83569 0.0
H592 H 0.73408 0.57488 0.85107 0.0
H593 H 0.77589 0.57588 0.84256 0.0
H594 H 0.78512 0.60912 0.70571 0.0
H595 H 0.74315 0.60825 0.71419 0.0
C596 C 0.83762 0.58239 0.72348 0.0
C597 C 0.85649 0.59199 0.75912 0.0
C598 C 0.81421 0.58294 0.72799 0.0
C599 C 0.809 0.59282 0.76845 0.0
C600 C 0.82778 0.60234 0.80423 0.0
C601 C 0.8514 0.60209 0.79948 0.0
C602 C 0.74496 0.58236 0.81907 0.0
C603 C 0.73527 0.59141 0.78319 0.0
C604 C 0.76901 0.58311 0.81442 0.0
C605 C 0.78377 0.59265 0.77358 0.0
C606 C 0.77404 0.60153 0.73749 0.0
C607 C 0.75008 0.60108 0.74237 0.0
H608 H 0.28028 0.83164 0.2263 0.0
H609 H 0.24606 0.87226 0.29733 0.0
H610 H 0.23865 0.79037 0.23252 0.0
H611 H 0.20408 0.8308 0.30272 0.0
H612 H 0.12805 0.75533 0.24497 0.0
H613 H 0.16955 0.7973 0.23978 0.0
H614 H 0.21054 0.7613 0.30303 0.0
H615 H 0.16925 0.71967 0.30907 0.0
C616 C 0.26386 0.83173 0.24332 0.0
C617 C 0.2664 0.85512 0.26147 0.0
C618 C 0.24009 0.80812 0.24688 0.0
C619 C 0.21823 0.80753 0.26788 0.0
C620 C 0.22067 0.83088 0.28606 0.0
C621 C 0.24468 0.85447 0.28332 0.0
C622 C 0.14597 0.75641 0.2575 0.0
C623 C 0.14547 0.73428 0.27734 0.0
C624 C 0.16959 0.7804 0.25488 0.0
C625 C 0.1931 0.78242 0.27116 0.0
C626 C 0.19265 0.76018 0.29016 0.0
C627 C 0.16904 0.73641 0.29362 0.0
H628 H 0.42771 0.26686 0.69579 0.0
H629 H 0.38973 0.25561 0.82883 0.0
H630 H 0.42573 0.22452 0.70373 0.0
H631 H 0.38788 0.21312 0.83677 0.0
H632 H 0.42191 0.15683 0.8539 0.0
H633 H 0.42138 0.19794 0.84588 0.0
H634 H 0.39101 0.17604 0.70686 0.0
H635 H 0.39141 0.13464 0.71485 0.0
C636 C 0.41897 0.25537 0.7268 0.0
C637 C 0.40897 0.26462 0.76182 0.0
C638 C 0.41767 0.23103 0.73111 0.0
C639 C 0.4066 0.21554 0.77077 0.0
C640 C 0.39665 0.22478 0.80593 0.0
C641 C 0.39766 0.24903 0.80135 0.0
C642 C 0.41511 0.16074 0.82157 0.0
C643 C 0.4068 0.14254 0.78489 0.0
C644 C 0.41463 0.1842 0.81718 0.0
C645 C 0.40611 0.19014 0.77582 0.0
C646 C 0.39782 0.17199 0.73905 0.0
C647 C 0.39798 0.14831 0.74365 0.0
loop_
_geom_bond_atom_site_label_1
_geom_bond_atom_site_label_2
_geom_bond_distance
_geom_bond_site_symmetry_2
_ccdc_geom_bond_type
O0 Cd1 2.223 . S
O0 C8 1.315 . S
Cd1 O0 2.223 . S
Cd1 O4 2.297 . S
Cd1 O5 2.439 . S
Cd1 O11 2.240 . S
Cd2 O3 2.240 . S
Cd2 O10 2.223 . S
Cd2 O12 2.297 1_455 S
Cd2 O13 2.439 . S
O3 Cd2 2.240 . S
O3 C8 1.279 . S
O4 Cd1 2.297 . S
O4 C6 1.247 . S
O5 Cd1 2.439 . S
O5 C6 1.208 . S
C6 O4 1.247 . S
C6 O5 1.208 . S
C7 O12 1.247 1_455 S
C7 O13 1.208 . S
C8 O0 1.315 . S
C8 O3 1.279 . S
C9 O10 1.315 . S
C9 O11 1.279 . S
O10 Cd2 2.223 . S
O10 C9 1.315 . S
O11 Cd1 2.240 . S
O11 C9 1.279 . S
O12 Cd2 2.297 1_655 S
O12 C7 1.247 1_655 S
O13 Cd2 2.439 . S
O13 C7 1.208 . S
O14 Cd15 2.223 . S
O14 C22 1.315 . S
Cd15 O14 2.223 . S
Cd15 O18 2.297 . S
Cd15 O19 2.439 . S
Cd15 O25 2.240 . S
Cd16 O17 2.240 . S
Cd16 O24 2.223 . S
Cd16 O26 2.297 1_545 S
Cd16 O27 2.439 . S
O17 Cd16 2.240 . S
O17 C22 1.279 . S
O18 Cd15 2.297 . S
O18 C20 1.247 . S
O19 Cd15 2.439 . S
O19 C20 1.208 . S
C20 O18 1.247 . S
C20 O19 1.208 . S
C21 O26 1.247 1_545 S
C21 O27 1.208 . S
C22 O14 1.315 . S
C22 O17 1.279 . S
C23 O24 1.315 . S
C23 O25 1.279 . S
O24 Cd16 2.223 . S
O24 C23 1.315 . S
O25 Cd15 2.240 . S
O25 C23 1.279 . S
O26 Cd16 2.297 1_565 S
O26 C21 1.247 1_565 S
O27 Cd16 2.439 . S
O27 C21 1.208 . S
O28 Cd29 2.223 . S
O28 C36 1.315 . S
Cd29 O28 2.223 . S
Cd29 O32 2.297 . S
Cd29 O33 2.439 . S
Cd29 O39 2.240 . S
Cd30 O31 2.240 . S
Cd30 O38 2.223 . S
Cd30 O40 2.297 . S
Cd30 O41 2.439 . S
O31 Cd30 2.240 . S
O31 C36 1.279 . S
O32 Cd29 2.297 . S
O32 C34 1.247 . S
O33 Cd29 2.439 . S
O33 C34 1.208 . S
C34 O32 1.247 . S
C34 O33 1.208 . S
C35 O40 1.247 . S
C35 O41 1.208 . S
C36 O28 1.315 . S
C36 O31 1.279 . S
C37 O38 1.315 . S
C37 O39 1.279 . S
O38 Cd30 2.223 . S
O38 C37 1.315 . S
O39 Cd29 2.240 . S
O39 C37 1.279 . S
O40 Cd30 2.297 . S
O40 C35 1.247 . S
O41 Cd30 2.439 . S
O41 C35 1.208 . S
O42 Cd43 2.223 . S
O42 C50 1.315 . S
Cd43 O42 2.223 . S
Cd43 O46 2.297 . S
Cd43 O47 2.439 . S
Cd43 O53 2.240 . S
Cd44 O45 2.240 . S
Cd44 O52 2.223 . S
Cd44 O54 2.297 1_655 S
Cd44 O55 2.439 . S
O45 Cd44 2.240 . S
O45 C50 1.279 . S
O46 Cd43 2.297 . S
O46 C48 1.247 . S
O47 Cd43 2.439 . S
O47 C48 1.208 . S
C48 O46 1.247 . S
C48 O47 1.208 . S
C49 O54 1.247 1_655 S
C49 O55 1.208 . S
C50 O42 1.315 . S
C50 O45 1.279 . S
C51 O52 1.315 . S
C51 O53 1.279 . S
O52 Cd44 2.223 . S
O52 C51 1.315 . S
O53 Cd43 2.240 . S
O53 C51 1.279 . S
O54 Cd44 2.297 1_455 S
O54 C49 1.247 1_455 S
O55 Cd44 2.439 . S
O55 C49 1.208 . S
O56 Cd57 2.223 . S
O56 C64 1.315 . S
Cd57 O56 2.223 . S
Cd57 O60 2.297 . S
Cd57 O61 2.439 . S
Cd57 O67 2.240 . S
Cd58 O59 2.240 . S
Cd58 O66 2.223 . S
Cd58 O68 2.297 1_565 S
Cd58 O69 2.439 . S
O59 Cd58 2.240 . S
O59 C64 1.279 . S
O60 Cd57 2.297 . S
O60 C62 1.247 . S
O61 Cd57 2.439 . S
O61 C62 1.208 . S
C62 O60 1.247 . S
C62 O61 1.208 . S
C63 O68 1.247 1_565 S
C63 O69 1.208 . S
C64 O56 1.315 . S
C64 O59 1.279 . S
C65 O66 1.315 . S
C65 O67 1.279 . S
O66 Cd58 2.223 . S
O66 C65 1.315 . S
O67 Cd57 2.240 . S
O67 C65 1.279 . S
O68 Cd58 2.297 1_545 S
O68 C63 1.247 1_545 S
O69 Cd58 2.439 . S
O69 C63 1.208 . S
O70 Cd71 2.223 . S
O70 C78 1.315 . S
Cd71 O70 2.223 . S
Cd71 O74 2.297 . S
Cd71 O75 2.439 . S
Cd71 O81 2.240 . S
Cd72 O73 2.240 . S
Cd72 O80 2.223 . S
Cd72 O82 2.297 . S
Cd72 O83 2.439 . S
O73 Cd72 2.240 . S
O73 C78 1.279 . S
O74 Cd71 2.297 . S
O74 C76 1.247 . S
O75 Cd71 2.439 . S
O75 C76 1.208 . S
C76 O74 1.247 . S
C76 O75 1.208 . S
C77 O82 1.247 . S
C77 O83 1.208 . S
C78 O70 1.315 . S
C78 O73 1.279 . S
C79 O80 1.315 . S
C79 O81 1.279 . S
O80 Cd72 2.223 . S
O80 C79 1.315 . S
O81 Cd71 2.240 . S
O81 C79 1.279 . S
O82 Cd72 2.297 . S
O82 C77 1.247 . S
O83 Cd72 2.439 . S
O83 C77 1.208 . S
O84 Cd85 2.223 . S
O84 C92 1.315 . S
Cd85 O84 2.223 . S
Cd85 O88 2.297 . S
Cd85 O89 2.439 . S
Cd85 O95 2.240 . S
Cd86 O87 2.240 . S
Cd86 O94 2.223 . S
Cd86 O96 2.297 1_565 S
Cd86 O97 2.439 . S
O87 Cd86 2.240 . S
O87 C92 1.279 . S
O88 Cd85 2.297 . S
O88 C90 1.247 . S
O89 Cd85 2.439 . S
O89 C90 1.208 . S
C90 O88 1.247 . S
C90 O89 1.208 . S
C91 O96 1.247 1_565 S
C91 O97 1.208 . S
C92 O84 1.315 . S
C92 O87 1.279 . S
C93 O94 1.315 . S
C93 O95 1.279 . S
O94 Cd86 2.223 . S
O94 C93 1.315 . S
O95 Cd85 2.240 . S
O95 C93 1.279 . S
O96 Cd86 2.297 1_545 S
O96 C91 1.247 1_545 S
O97 Cd86 2.439 . S
O97 C91 1.208 . S
O98 Cd99 2.223 . S
O98 C106 1.315 . S
Cd99 O98 2.223 . S
Cd99 O102 2.297 . S
Cd99 O103 2.439 . S
Cd99 O109 2.240 . S
Cd100 O101 2.240 . S
Cd100 O108 2.223 . S
Cd100 O110 2.297 . S
Cd100 O111 2.439 . S
O101 Cd100 2.240 . S
O101 C106 1.279 . S
O102 Cd99 2.297 . S
O102 C104 1.247 . S
O103 Cd99 2.439 . S
O103 C104 1.208 . S
C104 O102 1.247 . S
C104 O103 1.208 . S
C105 O110 1.247 . S
C105 O111 1.208 . S
C106 O98 1.315 . S
C106 O101 1.279 . S
C107 O108 1.315 . S
C107 O109 1.279 . S
O108 Cd100 2.223 . S
O108 C107 1.315 . S
O109 Cd99 2.240 . S
O109 C107 1.279 . S
O110 Cd100 2.297 . S
O110 C105 1.247 . S
O111 Cd100 2.439 . S
O111 C105 1.208 . S
O112 Cd113 2.223 . S
O112 C120 1.315 . S
Cd113 O112 2.223 . S
Cd113 O116 2.297 . S
Cd113 O117 2.439 . S
Cd113 O123 2.240 . S
Cd114 O115 2.240 . S
Cd114 O122 2.223 . S
Cd114 O124 2.297 1_455 S
Cd114 O125 2.439 . S
O115 Cd114 2.240 . S
O115 C120 1.279 . S
O116 Cd113 2.297 . S
O116 C118 1.247 . S
O117 Cd113 2.439 . S
O117 C118 1.208 . S
C118 O116 1.247 . S
C118 O117 1.208 . S
C119 O124 1.247 1_455 S
C119 O125 1.208 . S
C120 O112 1.315 . S
C120 O115 1.279 . S
C121 O122 1.315 . S
C121 O123 1.279 . S
O122 Cd114 2.223 . S
O122 C121 1.315 . S
O123 Cd113 2.240 . S
O123 C121 1.279 . S
O124 Cd114 2.297 1_655 S
O124 C119 1.247 1_655 S
O125 Cd114 2.439 . S
O125 C119 1.208 . S
O126 Cd127 2.223 . S
O126 C134 1.315 . S
Cd127 O126 2.223 . S
Cd127 O130 2.297 . S
Cd127 O131 2.439 . S
Cd127 O137 2.240 . S
Cd128 O129 2.240 . S
Cd128 O136 2.223 . S
Cd128 O138 2.297 1_545 S
Cd128 O139 2.439 . S
O129 Cd128 2.240 . S
O129 C134 1.279 . S
O130 Cd127 2.297 . S
O130 C132 1.247 . S
O131 Cd127 2.439 . S
O131 C132 1.208 . S
C132 O130 1.247 . S
C132 O131 1.208 . S
C133 O138 1.247 1_545 S
C133 O139 1.208 . S
C134 O126 1.315 . S
C134 O129 1.279 . S
C135 O136 1.315 . S
C135 O137 1.279 . S
O136 Cd128 2.223 . S
O136 C135 1.315 . S
O137 Cd127 2.240 . S
O137 C135 1.279 . S
O138 Cd128 2.297 1_565 S
O138 C133 1.247 1_565 S
O139 Cd128 2.439 . S
O139 C133 1.208 . S
O140 Cd141 2.223 . S
O140 C148 1.315 . S
Cd141 O140 2.223 . S
Cd141 O144 2.297 . S
Cd141 O145 2.439 . S
Cd141 O151 2.240 . S
Cd142 O143 2.240 . S
Cd142 O150 2.223 . S
Cd142 O152 2.297 . S
Cd142 O153 2.439 . S
O143 Cd142 2.240 . S
O143 C148 1.279 . S
O144 Cd141 2.297 . S
O144 C146 1.247 . S
O145 Cd141 2.439 . S
O145 C146 1.208 . S
C146 O144 1.247 . S
C146 O145 1.208 . S
C147 O152 1.247 . S
C147 O153 1.208 . S
C148 O140 1.315 . S
C148 O143 1.279 . S
C149 O150 1.315 . S
C149 O151 1.279 . S
O150 Cd142 2.223 . S
O150 C149 1.315 . S
O151 Cd141 2.240 . S
O151 C149 1.279 . S
O152 Cd142 2.297 . S
O152 C147 1.247 . S
O153 Cd142 2.439 . S
O153 C147 1.208 . S
O154 Cd155 2.223 . S
O154 C162 1.315 . S
Cd155 O154 2.223 . S
Cd155 O158 2.297 . S
Cd155 O159 2.439 . S
Cd155 O165 2.240 . S
Cd156 O157 2.240 . S
Cd156 O164 2.223 . S
Cd156 O166 2.297 1_655 S
Cd156 O167 2.439 . S
O157 Cd156 2.240 . S
O157 C162 1.279 . S
O158 Cd155 2.297 . S
O158 C160 1.247 . S
O159 Cd155 2.439 . S
O159 C160 1.208 . S
C160 O158 1.247 . S
C160 O159 1.208 . S
C161 O166 1.247 1_655 S
C161 O167 1.208 . S
C162 O154 1.315 . S
C162 O157 1.279 . S
C163 O164 1.315 . S
C163 O165 1.279 . S
O164 Cd156 2.223 . S
O164 C163 1.315 . S
O165 Cd155 2.240 . S
O165 C163 1.279 . S
O166 Cd156 2.297 1_455 S
O166 C161 1.247 1_455 S
O167 Cd156 2.439 . S
O167 C161 1.208 . S
H168 C176 0.950 . S
H169 C181 0.950 . S
H170 C178 0.950 . S
H171 C180 0.950 . S
H172 C182 0.950 . S
H173 C184 0.950 . S
H174 C186 0.950 . S
H175 C187 0.950 . S
C176 H168 0.950 . S
C176 C177 1.386 1_655 S
C176 C178 1.391 . S
C177 C176 1.386 1_455 S
C177 C181 1.393 . S
C178 H170 0.950 . S
C178 C176 1.391 . S
C178 C179 1.400 1_655 S
C179 C178 1.400 1_455 S
C179 C180 1.398 . S
C179 C185 1.491 1_454 S
C180 H171 0.950 . S
C180 C179 1.398 . S
C180 C181 1.391 . S
C181 H169 0.950 . S
C181 C177 1.393 . S
C181 C180 1.391 . S
C182 H172 0.950 . S
C182 C183 1.386 1_455 S
C182 C184 1.391 . S
C183 C182 1.386 1_655 S
C183 C187 1.393 . S
C184 H173 0.950 . S
C184 C182 1.391 . S
C184 C185 1.400 1_455 S
C185 C179 1.491 1_656 S
C185 C184 1.400 1_655 S
C185 C186 1.398 . S
C186 H174 0.950 . S
C186 C185 1.398 . S
C186 C187 1.391 . S
C187 H175 0.950 . S
C187 C183 1.393 . S
C187 C186 1.391 . S
H188 C196 0.950 . S
H189 C201 0.950 . S
H190 C198 0.950 1_545 S
H191 C200 0.950 . S
H192 C202 0.950 . S
H193 C204 0.950 1_565 S
H194 C206 0.950 . S
H195 C207 0.950 . S
C196 H188 0.950 . S
C196 C197 1.386 . S
C196 C198 1.391 . S
C197 C196 1.386 . S
C197 C201 1.393 . S
C198 H190 0.950 1_565 S
C198 C196 1.391 . S
C198 C199 1.400 . S
C199 C198 1.400 . S
C199 C200 1.398 . S
C199 C205 1.491 1_565 S
C200 H191 0.950 . S
C200 C199 1.398 . S
C200 C201 1.391 . S
C201 H189 0.950 . S
C201 C197 1.393 . S
C201 C200 1.391 . S
C202 H192 0.950 . S
C202 C203 1.386 . S
C202 C204 1.391 . S
C203 C202 1.386 . S
C203 C207 1.393 . S
C204 H193 0.950 1_545 S
C204 C202 1.391 . S
C204 C205 1.400 . S
C205 C199 1.491 1_545 S
C205 C204 1.400 . S
C205 C206 1.398 . S
C206 H194 0.950 . S
C206 C205 1.398 . S
C206 C207 1.391 . S
C207 H195 0.950 . S
C207 C203 1.393 . S
C207 C206 1.391 . S
H208 C216 0.950 . S
H209 C221 0.950 . S
H210 C218 0.950 . S
H211 C220 0.950 . S
H212 C222 0.950 . S
H213 C224 0.950 . S
H214 C226 0.950 . S
H215 C227 0.950 . S
C216 H208 0.950 . S
C216 C217 1.386 . S
C216 C218 1.391 . S
C217 C216 1.386 . S
C217 C221 1.393 . S
C218 H210 0.950 . S
C218 C216 1.391 . S
C218 C219 1.400 . S
C219 C218 1.400 . S
C219 C220 1.398 . S
C219 C225 1.491 1_554 S
C220 H211 0.950 . S
C220 C219 1.398 . S
C220 C221 1.391 . S
C221 H209 0.950 . S
C221 C217 1.393 . S
C221 C220 1.391 . S
C222 H212 0.950 . S
C222 C223 1.386 . S
C222 C224 1.391 . S
C223 C222 1.386 . S
C223 C227 1.393 . S
C224 H213 0.950 . S
C224 C222 1.391 . S
C224 C225 1.400 . S
C225 C219 1.491 1_556 S
C225 C224 1.400 . S
C225 C226 1.398 . S
C226 H214 0.950 . S
C226 C225 1.398 . S
C226 C227 1.391 . S
C227 H215 0.950 . S
C227 C223 1.393 . S
C227 C226 1.391 . S
H228 C236 0.950 . S
H229 C241 0.950 . S
H230 C238 0.950 . S
H231 C240 0.950 . S
H232 C242 0.950 . S
H233 C244 0.950 . S
H234 C246 0.950 . S
H235 C247 0.950 . S
C236 H228 0.950 . S
C236 C237 1.386 1_655 S
C236 C238 1.391 . S
C237 C236 1.386 1_455 S
C237 C241 1.393 . S
C238 H230 0.950 . S
C238 C236 1.391 . S
C238 C239 1.400 1_655 S
C239 C238 1.400 1_455 S
C239 C240 1.398 . S
C239 C245 1.491 1_455 S
C240 H231 0.950 . S
C240 C239 1.398 . S
C240 C241 1.391 . S
C241 H229 0.950 . S
C241 C237 1.393 . S
C241 C240 1.391 . S
C242 H232 0.950 . S
C242 C243 1.386 1_455 S
C242 C244 1.391 . S
C243 C242 1.386 1_655 S
C243 C247 1.393 . S
C244 H233 0.950 . S
C244 C242 1.391 . S
C244 C245 1.400 1_455 S
C245 C239 1.491 1_655 S
C245 C244 1.400 1_655 S
C245 C246 1.398 . S
C246 H234 0.950 . S
C246 C245 1.398 . S
C246 C247 1.391 . S
C247 H235 0.950 . S
C247 C243 1.393 . S
C247 C246 1.391 . S
H248 C256 0.950 . S
H249 C261 0.950 . S
H250 C258 0.950 1_565 S
H251 C260 0.950 . S
H252 C262 0.950 . S
H253 C264 0.950 1_545 S
H254 C266 0.950 . S
H255 C267 0.950 . S
C256 H248 0.950 . S
C256 C257 1.386 . S
C256 C258 1.391 . S
C257 C256 1.386 . S
C257 C261 1.393 . S
C258 H250 0.950 1_545 S
C258 C256 1.391 . S
C258 C259 1.400 . S
C259 C258 1.400 . S
C259 C260 1.398 . S
C259 C265 1.491 1_546 S
C260 H251 0.950 . S
C260 C259 1.398 . S
C260 C261 1.391 . S
C261 H249 0.950 . S
C261 C257 1.393 . S
C261 C260 1.391 . S
C262 H252 0.950 . S
C262 C263 1.386 . S
C262 C264 1.391 . S
C263 C262 1.386 . S
C263 C267 1.393 . S
C264 H253 0.950 1_565 S
C264 C262 1.391 . S
C264 C265 1.400 . S
C265 C259 1.491 1_564 S
C265 C264 1.400 . S
C265 C266 1.398 . S
C266 H254 0.950 . S
C266 C265 1.398 . S
C266 C267 1.391 . S
C267 H255 0.950 . S
C267 C263 1.393 . S
C267 C266 1.391 . S
H268 C276 0.950 . S
H269 C281 0.950 . S
H270 C278 0.950 . S
H271 C280 0.950 . S
H272 C282 0.950 . S
H273 C284 0.950 . S
H274 C286 0.950 . S
H275 C287 0.950 . S
C276 H268 0.950 . S
C276 C277 1.386 . S
C276 C278 1.391 . S
C277 C276 1.386 . S
C277 C281 1.393 . S
C278 H270 0.950 . S
C278 C276 1.391 . S
C278 C279 1.400 . S
C279 C278 1.400 . S
C279 C280 1.398 . S
C279 C285 1.491 . S
C280 H271 0.950 . S
C280 C279 1.398 . S
C280 C281 1.391 . S
C281 H269 0.950 . S
C281 C277 1.393 . S
C281 C280 1.391 . S
C282 H272 0.950 . S
C282 C283 1.386 . S
C282 C284 1.391 . S
C283 C282 1.386 . S
C283 C287 1.393 . S
C284 H273 0.950 . S
C284 C282 1.391 . S
C284 C285 1.400 . S
C285 C279 1.491 . S
C285 C284 1.400 . S
C285 C286 1.398 . S
C286 H274 0.950 . S
C286 C285 1.398 . S
C286 C287 1.391 . S
C287 H275 0.950 . S
C287 C283 1.393 . S
C287 C286 1.391 . S
H288 C296 0.950 . S
H289 C301 0.950 . S
H290 C298 0.950 . S
H291 C300 0.950 . S
H292 C302 0.950 . S
H293 C304 0.950 . S
H294 C306 0.950 . S
H295 C307 0.950 . S
C296 H288 0.950 . S
C296 C297 1.386 1_455 S
C296 C298 1.391 . S
C297 C296 1.386 1_655 S
C297 C301 1.393 . S
C298 H290 0.950 . S
C298 C296 1.391 . S
C298 C299 1.400 1_455 S
C299 C298 1.400 1_655 S
C299 C300 1.398 . S
C299 C305 1.491 1_656 S
C300 H291 0.950 . S
C300 C299 1.398 . S
C300 C301 1.391 . S
C301 H289 0.950 . S
C301 C297 1.393 . S
C301 C300 1.391 . S
C302 H292 0.950 . S
C302 C303 1.386 1_655 S
C302 C304 1.391 . S
C303 C302 1.386 1_455 S
C303 C307 1.393 . S
C304 H293 0.950 . S
C304 C302 1.391 . S
C304 C305 1.400 1_655 S
C305 C299 1.491 1_454 S
C305 C304 1.400 1_455 S
C305 C306 1.398 . S
C306 H294 0.950 . S
C306 C305 1.398 . S
C306 C307 1.391 . S
C307 H295 0.950 . S
C307 C303 1.393 . S
C307 C306 1.391 . S
H308 C316 0.950 . S
H309 C321 0.950 . S
H310 C318 0.950 . S
H311 C320 0.950 . S
H312 C322 0.950 . S
H313 C324 0.950 . S
H314 C326 0.950 . S
H315 C327 0.950 . S
C316 H308 0.950 . S
C316 C317 1.386 1_545 S
C316 C318 1.391 . S
C317 C316 1.386 1_565 S
C317 C321 1.393 . S
C318 H310 0.950 . S
C318 C316 1.391 . S
C318 C319 1.400 1_545 S
C319 C318 1.400 1_565 S
C319 C320 1.398 . S
C319 C325 1.491 1_565 S
C320 H311 0.950 . S
C320 C319 1.398 . S
C320 C321 1.391 . S
C321 H309 0.950 . S
C321 C317 1.393 . S
C321 C320 1.391 . S
C322 H312 0.950 . S
C322 C323 1.386 1_565 S
C322 C324 1.391 . S
C323 C322 1.386 1_545 S
C323 C327 1.393 . S
C324 H313 0.950 . S
C324 C322 1.391 . S
C324 C325 1.400 1_565 S
C325 C319 1.491 1_545 S
C325 C324 1.400 1_545 S
C325 C326 1.398 . S
C326 H314 0.950 . S
C326 C325 1.398 . S
C326 C327 1.391 . S
C327 H315 0.950 . S
C327 C323 1.393 . S
C327 C326 1.391 . S
H328 C336 0.950 . S
H329 C341 0.950 . S
H330 C338 0.950 . S
H331 C340 0.950 . S
H332 C342 0.950 . S
H333 C344 0.950 . S
H334 C346 0.950 . S
H335 C347 0.950 . S
C336 H328 0.950 . S
C336 C337 1.386 . S
C336 C338 1.391 . S
C337 C336 1.386 . S
C337 C341 1.393 . S
C338 H330 0.950 . S
C338 C336 1.391 . S
C338 C339 1.400 . S
C339 C338 1.400 . S
C339 C340 1.398 . S
C339 C345 1.491 1_556 S
C340 H331 0.950 . S
C340 C339 1.398 . S
C340 C341 1.391 . S
C341 H329 0.950 . S
C341 C337 1.393 . S
C341 C340 1.391 . S
C342 H332 0.950 . S
C342 C343 1.386 . S
C342 C344 1.391 . S
C343 C342 1.386 . S
C343 C347 1.393 . S
C344 H333 0.950 . S
C344 C342 1.391 . S
C344 C345 1.400 . S
C345 C339 1.491 1_554 S
C345 C344 1.400 . S
C345 C346 1.398 . S
C346 H334 0.950 . S
C346 C345 1.398 . S
C346 C347 1.391 . S
C347 H335 0.950 . S
C347 C343 1.393 . S
C347 C346 1.391 . S
H348 C356 0.950 . S
H349 C361 0.950 . S
H350 C358 0.950 . S
H351 C360 0.950 . S
H352 C362 0.950 . S
H353 C364 0.950 . S
H354 C366 0.950 . S
H355 C367 0.950 . S
C356 H348 0.950 . S
C356 C357 1.386 . S
C356 C358 1.391 . S
C357 C356 1.386 . S
C357 C361 1.393 1_655 S
C358 H350 0.950 . S
C358 C356 1.391 . S
C358 C359 1.400 . S
C359 C358 1.400 . S
C359 C360 1.398 1_655 S
C359 C365 1.491 1_655 S
C360 H351 0.950 . S
C360 C359 1.398 1_455 S
C360 C361 1.391 . S
C361 H349 0.950 . S
C361 C357 1.393 1_455 S
C361 C360 1.391 . S
C362 H352 0.950 . S
C362 C363 1.386 . S
C362 C364 1.391 . S
C363 C362 1.386 . S
C363 C367 1.393 1_455 S
C364 H353 0.950 . S
C364 C362 1.391 . S
C364 C365 1.400 . S
C365 C359 1.491 1_455 S
C365 C364 1.400 . S
C365 C366 1.398 1_455 S
C366 H354 0.950 . S
C366 C365 1.398 1_655 S
C366 C367 1.391 . S
C367 H355 0.950 . S
C367 C363 1.393 1_655 S
C367 C366 1.391 . S
H368 C376 0.950 . S
H369 C381 0.950 . S
H370 C378 0.950 . S
H371 C380 0.950 . S
H372 C382 0.950 . S
H373 C384 0.950 . S
H374 C386 0.950 . S
H375 C387 0.950 . S
C376 H368 0.950 . S
C376 C377 1.386 1_565 S
C376 C378 1.391 . S
C377 C376 1.386 1_545 S
C377 C381 1.393 . S
C378 H370 0.950 . S
C378 C376 1.391 . S
C378 C379 1.400 1_565 S
C379 C378 1.400 1_545 S
C379 C380 1.398 . S
C379 C385 1.491 1_546 S
C380 H371 0.950 . S
C380 C379 1.398 . S
C380 C381 1.391 . S
C381 H369 0.950 . S
C381 C377 1.393 . S
C381 C380 1.391 . S
C382 H372 0.950 . S
C382 C383 1.386 1_545 S
C382 C384 1.391 . S
C383 C382 1.386 1_565 S
C383 C387 1.393 . S
C384 H373 0.950 . S
C384 C382 1.391 . S
C384 C385 1.400 1_545 S
C385 C379 1.491 1_564 S
C385 C384 1.400 1_565 S
C385 C386 1.398 . S
C386 H374 0.950 . S
C386 C385 1.398 . S
C386 C387 1.391 . S
C387 H375 0.950 . S
C387 C383 1.393 . S
C387 C386 1.391 . S
H388 C396 0.950 . S
H389 C401 0.950 . S
H390 C398 0.950 . S
H391 C400 0.950 . S
H392 C402 0.950 . S
H393 C404 0.950 . S
H394 C406 0.950 . S
H395 C407 0.950 . S
C396 H388 0.950 . S
C396 C397 1.386 . S
C396 C398 1.391 . S
C397 C396 1.386 . S
C397 C401 1.393 . S
C398 H390 0.950 . S
C398 C396 1.391 . S
C398 C399 1.400 . S
C399 C398 1.400 . S
C399 C400 1.398 . S
C399 C405 1.491 . S
C400 H391 0.950 . S
C400 C399 1.398 . S
C400 C401 1.391 . S
C401 H389 0.950 . S
C401 C397 1.393 . S
C401 C400 1.391 . S
C402 H392 0.950 . S
C402 C403 1.386 . S
C402 C404 1.391 . S
C403 C402 1.386 . S
C403 C407 1.393 . S
C404 H393 0.950 . S
C404 C402 1.391 . S
C404 C405 1.400 . S
C405 C399 1.491 . S
C405 C404 1.400 . S
C405 C406 1.398 . S
C406 H394 0.950 . S
C406 C405 1.398 . S
C406 C407 1.391 . S
C407 H395 0.950 . S
C407 C403 1.393 . S
C407 C406 1.391 . S
H408 C416 0.950 . S
H409 C421 0.950 . S
H410 C418 0.950 . S
H411 C420 0.950 . S
H412 C422 0.950 . S
H413 C424 0.950 . S
H414 C426 0.950 . S
H415 C427 0.950 . S
C416 H408 0.950 . S
C416 C417 1.386 . S
C416 C418 1.391 . S
C417 C416 1.386 . S
C417 C421 1.393 . S
C418 H410 0.950 . S
C418 C416 1.391 . S
C418 C419 1.400 . S
C419 C418 1.400 . S
C419 C420 1.398 . S
C419 C425 1.491 . S
C420 H411 0.950 . S
C420 C419 1.398 . S
C420 C421 1.391 . S
C421 H409 0.950 . S
C421 C417 1.393 . S
C421 C420 1.391 . S
C422 H412 0.950 . S
C422 C423 1.386 . S
C422 C424 1.391 . S
C423 C422 1.386 . S
C423 C427 1.393 . S
C424 H413 0.950 . S
C424 C422 1.391 . S
C424 C425 1.400 . S
C425 C419 1.491 . S
C425 C424 1.400 . S
C425 C426 1.398 . S
C426 H414 0.950 . S
C426 C425 1.398 . S
C426 C427 1.391 . S
C427 H415 0.950 . S
C427 C423 1.393 . S
C427 C426 1.391 . S
H428 C436 0.950 . S
H429 C441 0.950 . S
H430 C438 0.950 . S
H431 C440 0.950 . S
H432 C442 0.950 . S
H433 C444 0.950 . S
H434 C446 0.950 . S
H435 C447 0.950 . S
C436 H428 0.950 . S
C436 C437 1.386 . S
C436 C438 1.391 . S
C437 C436 1.386 . S
C437 C441 1.393 . S
C438 H430 0.950 . S
C438 C436 1.391 . S
C438 C439 1.400 . S
C439 C438 1.400 . S
C439 C440 1.398 . S
C439 C445 1.491 . S
C440 H431 0.950 . S
C440 C439 1.398 . S
C440 C441 1.391 . S
C441 H429 0.950 . S
C441 C437 1.393 . S
C441 C440 1.391 . S
C442 H432 0.950 . S
C442 C443 1.386 . S
C442 C444 1.391 . S
C443 C442 1.386 . S
C443 C447 1.393 . S
C444 H433 0.950 . S
C444 C442 1.391 . S
C444 C445 1.400 . S
C445 C439 1.491 . S
C445 C444 1.400 . S
C445 C446 1.398 . S
C446 H434 0.950 . S
C446 C445 1.398 . S
C446 C447 1.391 . S
C447 H435 0.950 . S
C447 C443 1.393 . S
C447 C446 1.391 . S
H448 C456 0.950 . S
H449 C461 0.950 . S
H450 C458 0.950 . S
H451 C460 0.950 . S
H452 C462 0.950 . S
H453 C464 0.950 . S
H454 C466 0.950 . S
H455 C467 0.950 . S
C456 H448 0.950 . S
C456 C457 1.386 . S
C456 C458 1.391 . S
C457 C456 1.386 . S
C457 C461 1.393 . S
C458 H450 0.950 . S
C458 C456 1.391 . S
C458 C459 1.400 . S
C459 C458 1.400 . S
C459 C460 1.398 . S
C459 C465 1.491 . S
C460 H451 0.950 . S
C460 C459 1.398 . S
C460 C461 1.391 . S
C461 H449 0.950 . S
C461 C457 1.393 . S
C461 C460 1.391 . S
C462 H452 0.950 . S
C462 C463 1.386 . S
C462 C464 1.391 . S
C463 C462 1.386 . S
C463 C467 1.393 . S
C464 H453 0.950 . S
C464 C462 1.391 . S
C464 C465 1.400 . S
C465 C459 1.491 . S
C465 C464 1.400 . S
C465 C466 1.398 . S
C466 H454 0.950 . S
C466 C465 1.398 . S
C466 C467 1.391 . S
C467 H455 0.950 . S
C467 C463 1.393 . S
C467 C466 1.391 . S
H468 C476 0.950 . S
H469 C481 0.950 . S
H470 C478 0.950 . S
H471 C480 0.950 . S
H472 C482 0.950 . S
H473 C484 0.950 . S
H474 C486 0.950 . S
H475 C487 0.950 . S
C476 H468 0.950 . S
C476 C477 1.386 . S
C476 C478 1.391 . S
C477 C476 1.386 . S
C477 C481 1.393 . S
C478 H470 0.950 . S
C478 C476 1.391 . S
C478 C479 1.400 . S
C479 C478 1.400 . S
C479 C480 1.398 . S
C479 C485 1.491 . S
C480 H471 0.950 . S
C480 C479 1.398 . S
C480 C481 1.391 . S
C481 H469 0.950 . S
C481 C477 1.393 . S
C481 C480 1.391 . S
C482 H472 0.950 . S
C482 C483 1.386 . S
C482 C484 1.391 . S
C483 C482 1.386 . S
C483 C487 1.393 . S
C484 H473 0.950 . S
C484 C482 1.391 . S
C484 C485 1.400 . S
C485 C479 1.491 . S
C485 C484 1.400 . S
C485 C486 1.398 . S
C486 H474 0.950 . S
C486 C485 1.398 . S
C486 C487 1.391 . S
C487 H475 0.950 . S
C487 C483 1.393 . S
C487 C486 1.391 . S
H488 C496 0.950 . S
H489 C501 0.950 . S
H490 C498 0.950 . S
H491 C500 0.950 . S
H492 C502 0.950 . S
H493 C504 0.950 . S
H494 C506 0.950 . S
H495 C507 0.950 . S
C496 H488 0.950 . S
C496 C497 1.386 . S
C496 C498 1.391 . S
C497 C496 1.386 . S
C497 C501 1.393 . S
C498 H490 0.950 . S
C498 C496 1.391 . S
C498 C499 1.400 . S
C499 C498 1.400 . S
C499 C500 1.398 . S
C499 C505 1.491 . S
C500 H491 0.950 . S
C500 C499 1.398 . S
C500 C501 1.391 . S
C501 H489 0.950 . S
C501 C497 1.393 . S
C501 C500 1.391 . S
C502 H492 0.950 . S
C502 C503 1.386 . S
C502 C504 1.391 . S
C503 C502 1.386 . S
C503 C507 1.393 . S
C504 H493 0.950 . S
C504 C502 1.391 . S
C504 C505 1.400 . S
C505 C499 1.491 . S
C505 C504 1.400 . S
C505 C506 1.398 . S
C506 H494 0.950 . S
C506 C505 1.398 . S
C506 C507 1.391 . S
C507 H495 0.950 . S
C507 C503 1.393 . S
C507 C506 1.391 . S
H508 C516 0.950 . S
H509 C521 0.950 . S
H510 C518 0.950 . S
H511 C520 0.950 . S
H512 C522 0.950 . S
H513 C524 0.950 . S
H514 C526 0.950 . S
H515 C527 0.950 . S
C516 H508 0.950 . S
C516 C517 1.386 . S
C516 C518 1.391 . S
C517 C516 1.386 . S
C517 C521 1.393 . S
C518 H510 0.950 . S
C518 C516 1.391 . S
C518 C519 1.400 . S
C519 C518 1.400 . S
C519 C520 1.398 . S
C519 C525 1.491 . S
C520 H511 0.950 . S
C520 C519 1.398 . S
C520 C521 1.391 . S
C521 H509 0.950 . S
C521 C517 1.393 . S
C521 C520 1.391 . S
C522 H512 0.950 . S
C522 C523 1.386 . S
C522 C524 1.391 . S
C523 C522 1.386 . S
C523 C527 1.393 . S
C524 H513 0.950 . S
C524 C522 1.391 . S
C524 C525 1.400 . S
C525 C519 1.491 . S
C525 C524 1.400 . S
C525 C526 1.398 . S
C526 H514 0.950 . S
C526 C525 1.398 . S
C526 C527 1.391 . S
C527 H515 0.950 . S
C527 C523 1.393 . S
C527 C526 1.391 . S
H528 C536 0.950 . S
H529 C541 0.950 . S
H530 C538 0.950 . S
H531 C540 0.950 . S
H532 C542 0.950 . S
H533 C544 0.950 . S
H534 C546 0.950 . S
H535 C547 0.950 . S
C536 H528 0.950 . S
C536 C537 1.386 . S
C536 C538 1.391 . S
C537 C536 1.386 . S
C537 C541 1.393 . S
C538 H530 0.950 . S
C538 C536 1.391 . S
C538 C539 1.400 . S
C539 C538 1.400 . S
C539 C540 1.398 . S
C539 C545 1.491 . S
C540 H531 0.950 . S
C540 C539 1.398 . S
C540 C541 1.391 . S
C541 H529 0.950 . S
C541 C537 1.393 . S
C541 C540 1.391 . S
C542 H532 0.950 . S
C542 C543 1.386 . S
C542 C544 1.391 . S
C543 C542 1.386 . S
C543 C547 1.393 . S
C544 H533 0.950 . S
C544 C542 1.391 . S
C544 C545 1.400 . S
C545 C539 1.491 . S
C545 C544 1.400 . S
C545 C546 1.398 . S
C546 H534 0.950 . S
C546 C545 1.398 . S
C546 C547 1.391 . S
C547 H535 0.950 . S
C547 C543 1.393 . S
C547 C546 1.391 . S
H548 C556 0.950 . S
H549 C561 0.950 . S
H550 C558 0.950 . S
H551 C560 0.950 . S
H552 C562 0.950 . S
H553 C564 0.950 . S
H554 C566 0.950 . S
H555 C567 0.950 . S
C556 H548 0.950 . S
C556 C557 1.386 . S
C556 C558 1.391 . S
C557 C556 1.386 . S
C557 C561 1.393 . S
C558 H550 0.950 . S
C558 C556 1.391 . S
C558 C559 1.400 . S
C559 C558 1.400 . S
C559 C560 1.398 . S
C559 C565 1.491 . S
C560 H551 0.950 . S
C560 C559 1.398 . S
C560 C561 1.391 . S
C561 H549 0.950 . S
C561 C557 1.393 . S
C561 C560 1.391 . S
C562 H552 0.950 . S
C562 C563 1.386 . S
C562 C564 1.391 . S
C563 C562 1.386 . S
C563 C567 1.393 . S
C564 H553 0.950 . S
C564 C562 1.391 . S
C564 C565 1.400 . S
C565 C559 1.491 . S
C565 C564 1.400 . S
C565 C566 1.398 . S
C566 H554 0.950 . S
C566 C565 1.398 . S
C566 C567 1.391 . S
C567 H555 0.950 . S
C567 C563 1.393 . S
C567 C566 1.391 . S
H568 C576 0.950 . S
H569 C581 0.950 . S
H570 C578 0.950 . S
H571 C580 0.950 . S
H572 C582 0.950 . S
H573 C584 0.950 . S
H574 C586 0.950 . S
H575 C587 0.950 . S
C576 H568 0.950 . S
C576 C577 1.386 . S
C576 C578 1.391 . S
C577 C576 1.386 . S
C577 C581 1.393 . S
C578 H570 0.950 . S
C578 C576 1.391 . S
C578 C579 1.400 . S
C579 C578 1.400 . S
C579 C580 1.398 . S
C579 C585 1.491 . S
C580 H571 0.950 . S
C580 C579 1.398 . S
C580 C581 1.391 . S
C581 H569 0.950 . S
C581 C577 1.393 . S
C581 C580 1.391 . S
C582 H572 0.950 . S
C582 C583 1.386 . S
C582 C584 1.391 . S
C583 C582 1.386 . S
C583 C587 1.393 . S
C584 H573 0.950 . S
C584 C582 1.391 . S
C584 C585 1.400 . S
C585 C579 1.491 . S
C585 C584 1.400 . S
C585 C586 1.398 . S
C586 H574 0.950 . S
C586 C585 1.398 . S
C586 C587 1.391 . S
C587 H575 0.950 . S
C587 C583 1.393 . S
C587 C586 1.391 . S
H588 C596 0.950 . S
H589 C601 0.950 . S
H590 C598 0.950 . S
H591 C600 0.950 . S
H592 C602 0.950 . S
H593 C604 0.950 . S
H594 C606 0.950 . S
H595 C607 0.950 . S
C596 H588 0.950 . S
C596 C597 1.386 . S
C596 C598 1.391 . S
C597 C596 1.386 . S
C597 C601 1.393 . S
C598 H590 0.950 . S
C598 C596 1.391 . S
C598 C599 1.400 . S
C599 C598 1.400 . S
C599 C600 1.398 . S
C599 C605 1.491 . S
C600 H591 0.950 . S
C600 C599 1.398 . S
C600 C601 1.391 . S
C601 H589 0.950 . S
C601 C597 1.393 . S
C601 C600 1.391 . S
C602 H592 0.950 . S
C602 C603 1.386 . S
C602 C604 1.391 . S
C603 C602 1.386 . S
C603 C607 1.393 . S
C604 H593 0.950 . S
C604 C602 1.391 . S
C604 C605 1.400 . S
C605 C599 1.491 . S
C605 C604 1.400 . S
C605 C606 1.398 . S
C606 H594 0.950 . S
C606 C605 1.398 . S
C606 C607 1.391 . S
C607 H595 0.950 . S
C607 C603 1.393 . S
C607 C606 1.391 . S
H608 C616 0.950 . S
H609 C621 0.950 . S
H610 C618 0.950 . S
H611 C620 0.950 . S
H612 C622 0.950 . S
H613 C624 0.950 . S
H614 C626 0.950 . S
H615 C627 0.950 . S
C616 H608 0.950 . S
C616 C617 1.386 . S
C616 C618 1.391 . S
C617 C616 1.386 . S
C617 C621 1.393 . S
C618 H610 0.950 . S
C618 C616 1.391 . S
C618 C619 1.400 . S
C619 C618 1.400 . S
C619 C620 1.398 . S
C619 C625 1.491 . S
C620 H611 0.950 . S
C620 C619 1.398 . S
C620 C621 1.391 . S
C621 H609 0.950 . S
C621 C617 1.393 . S
C621 C620 1.391 . S
C622 H612 0.950 . S
C622 C623 1.386 . S
C622 C624 1.391 . S
C623 C622 1.386 . S
C623 C627 1.393 . S
C624 H613 0.950 . S
C624 C622 1.391 . S
C624 C625 1.400 . S
C625 C619 1.491 . S
C625 C624 1.400 . S
C625 C626 1.398 . S
C626 H614 0.950 . S
C626 C625 1.398 . S
C626 C627 1.391 . S
C627 H615 0.950 . S
C627 C623 1.393 . S
C627 C626 1.391 . S
H628 C636 0.950 . S
H629 C641 0.950 . S
H630 C638 0.950 . S
H631 C640 0.950 . S
H632 C642 0.950 . S
H633 C644 0.950 . S
H634 C646 0.950 . S
H635 C647 0.950 . S
C636 H628 0.950 . S
C636 C637 1.386 . S
C636 C638 1.391 . S
C637 C636 1.386 . S
C637 C641 1.393 . S
C638 H630 0.950 . S
C638 C636 1.391 . S
C638 C639 1.400 . S
C639 C638 1.400 . S
C639 C640 1.398 . S
C639 C645 1.491 . S
C640 H631 0.950 . S
C640 C639 1.398 . S
C640 C641 1.391 . S
C641 H629 0.950 . S
C641 C637 1.393 . S
C641 C640 1.391 . S
C642 H632 0.950 . S
C642 C643 1.386 . S
C642 C644 1.391 . S
C643 C642 1.386 . S
C643 C647 1.393 . S
C644 H633 0.950 . S
C644 C642 1.391 . S
C644 C645 1.400 . S
C645 C639 1.491 . S
C645 C644 1.400 . S
C645 C646 1.398 . S
C646 H634 0.950 . S
C646 C645 1.398 . S
C646 C647 1.391 . S
C647 H635 0.950 . S
C647 C643 1.393 . S
C647 C646 1.391 . S
C177 C8 1.862 . S
C183 C162 1.865 . S
C197 C92 1.860 . S
C203 C22 1.860 . S
C217 C36 1.859 . S
C223 C106 1.860 . S
C237 C120 1.868 . S
C243 C50 1.871 . S
C257 C134 1.860 . S
C263 C64 1.860 . S
C277 C148 1.864 . S
C283 C78 1.861 . S
C297 C49 0.969 . S
C303 C119 0.960 . S
C317 C63 0.972 . S
C323 C133 0.965 . S
C337 C77 0.966 . S
C343 C147 0.958 . S
C357 C161 0.956 . S
C363 C7 0.961 . S
C377 C21 0.970 . S
C383 C91 0.962 . S
C397 C35 0.961 . S
C403 C105 0.956 . S
C417 C121 1.778 . S
C423 C9 1.771 . S
C437 C135 1.781 . S
C443 C23 1.779 . S
C457 C37 1.774 . S
C463 C149 1.781 . S
C477 C51 1.781 . S
C483 C163 1.775 . S
C497 C65 1.769 . S
C503 C93 1.771 . S
C517 C107 1.778 . S
C523 C79 1.781 . S
C537 C6 1.701 . S
C543 C146 1.719 . S
C557 C160 1.717 . S
C563 C20 1.705 . S
C577 C34 1.703 . S
C583 C90 1.718 . S
C597 C48 1.700 . S
C603 C104 1.721 . S
C617 C62 1.710 . S
C623 C118 1.711 . S
C637 C76 1.702 . S
C643 C132 1.719 . S
