# Generated by pormake.
# Topology fcu, (12)-cn, num edge types: 1
# Building blocks:
#     Node 0, Type 0, BuildingBlock: ENOWUB_clean_sbu_0, # of connection points: 12
#     Node 1, Type 0, BuildingBlock: ENOWUB_clean_sbu_0, # of connection points: 12
#     Node 2, Type 0, BuildingBlock: ENOWUB_clean_sbu_0, # of connection points: 12
#     Node 3, Type 0, BuildingBlock: ENOWUB_clean_sbu_0, # of connection points: 12
#     Edge 4, Type (0, 0), BuildingBlock: EZIPEK_clean_linker_0, # of connection points: 2
#     Edge 5, Type (0, 0), BuildingBlock: EZIPEK_clean_linker_0, # of connection points: 2
#     Edge 6, Type (0, 0), BuildingBlock: EZIPEK_clean_linker_0, # of connection points: 2
#     Edge 7, Type (0, 0), BuildingBlock: EZIPEK_clean_linker_0, # of connection points: 2
#     Edge 8, Type (0, 0), BuildingBlock: EZIPEK_clean_linker_0, # of connection points: 2
#     Edge 9, Type (0, 0), BuildingBlock: EZIPEK_clean_linker_0, # of connection points: 2
#     Edge 10, Type (0, 0), BuildingBlock: EZIPEK_clean_linker_0, # of connection points: 2
#     Edge 11, Type (0, 0), BuildingBlock: EZIPEK_clean_linker_0, # of connection points: 2
#     Edge 12, Type (0, 0), BuildingBlock: EZIPEK_clean_linker_0, # of connection points: 2
#     Edge 13, Type (0, 0), BuildingBlock: EZIPEK_clean_linker_0, # of connection points: 2
#     Edge 14, Type (0, 0), BuildingBlock: EZIPEK_clean_linker_0, # of connection points: 2
#     Edge 15, Type (0, 0), BuildingBlock: EZIPEK_clean_linker_0, # of connection points: 2
#     Edge 16, Type (0, 0), BuildingBlock: EZIPEK_clean_linker_0, # of connection points: 2
#     Edge 17, Type (0, 0), BuildingBlock: EZIPEK_clean_linker_0, # of connection points: 2
#     Edge 18, Type (0, 0), BuildingBlock: EZIPEK_clean_linker_0, # of connection points: 2
#     Edge 19, Type (0, 0), BuildingBlock: EZIPEK_clean_linker_0, # of connection points: 2
#     Edge 20, Type (0, 0), BuildingBlock: EZIPEK_clean_linker_0, # of connection points: 2
#     Edge 21, Type (0, 0), BuildingBlock: EZIPEK_clean_linker_0, # of connection points: 2
#     Edge 22, Type (0, 0), BuildingBlock: EZIPEK_clean_linker_0, # of connection points: 2
#     Edge 23, Type (0, 0), BuildingBlock: EZIPEK_clean_linker_0, # of connection points: 2
#     Edge 24, Type (0, 0), BuildingBlock: EZIPEK_clean_linker_0, # of connection points: 2
#     Edge 25, Type (0, 0), BuildingBlock: EZIPEK_clean_linker_0, # of connection points: 2
#     Edge 26, Type (0, 0), BuildingBlock: EZIPEK_clean_linker_0, # of connection points: 2
#     Edge 27, Type (0, 0), BuildingBlock: EZIPEK_clean_linker_0, # of connection points: 2
# Relax obj value: 0.000
# Max RMSD: 0.000
# Mean RMSD: 0.000
data_MOF--net-fcu--node1-ENOWUB_clean_sbu_0--edge1-EZIPEK_clean_linker_0
_symmetry_space_group_name_H-M    P1
_symmetry_Int_Tables_number       1
_symmetry_cell_setting            triclinic
loop_
_symmetry_equiv_pos_as_xyz
'x, y, z'
_cell_length_a     21.477784
_cell_length_b     21.389825
_cell_length_c     21.542142
_cell_angle_alpha  89.932442
_cell_angle_beta   89.852734
_cell_angle_gamma 90.130684
loop_
_atom_site_label
_atom_site_type_symbol
_atom_site_fract_x
_atom_site_fract_y
_atom_site_fract_z
_atom_type_partial_charge
O0 O 0.1633 0.89566 0.96849 0.0
O1 O 0.05425 0.92126 0.03516 0.0
O2 O 0.03641 0.05706 0.9187 0.0
O3 O 0.04595 0.92974 0.90887 0.0
O4 O 0.04413 0.04772 0.04309 0.0
Zr5 Zr 0.10601 -0.00635 0.97277 0.0
Zr6 Zr -0.00879 0.97579 0.10451 0.0
Zr7 Zr -0.00864 0.85962 0.97167 0.0
O8 O 0.91913 0.03875 0.05319 0.0
O9 O 0.91988 0.92091 0.91886 0.0
O10 O 0.92863 0.91152 0.04357 0.0
Zr11 Zr 0.97263 0.10898 -0.01054 0.0
Zr12 Zr 0.97353 -0.007 0.85833 0.0
Zr13 Zr 0.85875 0.97443 -0.00985 0.0
O14 O 0.90983 0.04678 0.92719 0.0
O15 O 0.79896 0.06888 -0.00253 0.0
O16 O 0.81553 0.8712 0.97944 0.0
O17 O 0.14919 0.09778 0.97711 0.0
O18 O 0.96484 0.16725 0.89269 0.0
O19 O -0.00488 0.80105 0.0681 0.0
O20 O -0.01627 0.81899 0.86627 0.0
O21 O 0.97521 0.15279 0.09311 0.0
O22 O 0.89506 0.97106 0.16324 0.0
O23 O 0.06993 -0.0017 0.80021 0.0
O24 O 0.86988 -0.01278 0.81486 0.0
O25 O 0.09569 0.97617 0.14711 0.0
O26 O 0.8684 0.15059 -0.00721 0.0
O27 O 0.09345 0.81408 0.96614 0.0
O28 O 0.89602 0.80099 0.97194 0.0
O29 O 0.06873 0.16711 -0.00886 0.0
O30 O 0.1645 -0.00271 0.06809 0.0
O31 O 0.79999 0.9777 0.89519 0.0
O32 O 0.81484 0.96455 0.09314 0.0
O33 O 0.14955 0.00673 0.87065 0.0
C34 C 0.14878 0.8371 0.96646 0.0
O35 O -0.00415 0.07289 0.16135 0.0
O36 O -0.00772 0.87212 0.14798 0.0
C37 C 0.81313 0.12724 -0.00448 0.0
C38 C 0.83812 0.81586 0.97378 0.0
C39 C 0.12664 0.15289 -0.01467 0.0
C40 C 0.96028 0.15198 0.83492 0.0
C41 C -0.00661 0.81621 0.12601 0.0
C42 C 0.97423 0.84194 0.81159 0.0
C43 C -0.01319 0.13077 0.14764 0.0
C44 C 0.83719 0.96598 0.14852 0.0
C45 C 0.12763 0.00444 0.81518 0.0
C46 C 0.81447 0.98178 0.83735 0.0
C47 C 0.15069 -0.01277 0.12538 0.0
O48 O 0.96996 0.89997 0.79751 0.0
O49 O 0.96415 0.09563 0.81493 0.0
O50 O 0.17191 0.40779 0.48261 0.0
O51 O 0.05359 0.43211 0.54972 0.0
O52 O 0.03979 0.55192 0.41894 0.0
O53 O 0.05624 0.42636 0.42356 0.0
O54 O 0.0388 0.5584 0.54503 0.0
Zr55 Zr 0.10763 0.49993 0.48481 0.0
Zr56 Zr 0.98239 0.48951 0.60764 0.0
Zr57 Zr 7e-05 0.36027 0.48918 0.0
O58 O 0.91269 0.54228 0.54373 0.0
O59 O 0.93022 0.41049 0.4231 0.0
O60 O 0.92858 0.41598 0.54881 0.0
Zr61 Zr 0.96923 0.60831 0.47836 0.0
Zr62 Zr -0.01391 0.47879 0.35967 0.0
Zr63 Zr 0.861 0.46893 0.4828 0.0
O64 O 0.91505 0.53684 0.41745 0.0
O65 O 0.79725 0.56123 0.47421 0.0
O66 O 0.82267 0.3634 0.48803 0.0
O67 O 0.14725 0.60529 0.48348 0.0
O68 O 0.96507 0.65509 0.37596 0.0
O69 O 0.00736 0.31603 0.59229 0.0
O70 O 0.00589 0.30444 0.39199 0.0
O71 O 0.96474 0.66374 0.57526 0.0
O72 O 0.88343 0.4759 0.6587 0.0
O73 O 0.08528 0.49019 0.30848 0.0
O74 O 0.88705 0.47306 0.30716 0.0
O75 O 0.0814 0.49718 0.65963 0.0
O76 O 0.86307 0.6456 0.47992 0.0
O77 O 0.10659 0.32295 0.49083 0.0
O78 O 0.90652 0.29688 0.49025 0.0
O79 O 0.0633 0.67117 0.47509 0.0
O80 O 0.15795 0.50034 0.58495 0.0
O81 O 0.81158 0.46201 0.38221 0.0
O82 O 0.80904 0.46699 0.58271 0.0
O83 O 0.15742 0.50869 0.38488 0.0
C84 C 0.16076 0.34885 0.48708 0.0
O85 O 0.96925 0.59138 0.65408 0.0
O86 O -0.00474 0.39303 0.66404 0.0
C87 C 0.80866 0.62027 0.47645 0.0
C88 C 0.84771 0.30886 0.48979 0.0
C89 C 0.12209 0.65952 0.47811 0.0
C90 C 0.97423 0.63448 0.32046 0.0
C91 C 0.00616 0.33598 0.64871 0.0
C92 C 0.0013 0.3203 0.33448 0.0
C93 C 0.96479 0.64745 0.63272 0.0
C94 C 0.82718 0.46905 0.63963 0.0
C95 C 0.14044 0.50285 0.32793 0.0
C96 C 0.83037 0.46648 0.32553 0.0
C97 C 0.13848 0.49877 0.64148 0.0
O98 O -0.00581 0.37621 0.31341 0.0
O99 O 0.98331 0.57712 0.30502 0.0
O100 O 0.66224 0.96513 0.39248 0.0
O101 O 0.55807 0.04481 0.42906 0.0
O102 O 0.53305 0.90869 0.54274 0.0
O103 O 0.54163 0.92161 0.41729 0.0
O104 O 0.55004 0.03488 0.55515 0.0
Zr105 Zr 0.60635 0.96875 0.49022 0.0
Zr106 Zr 0.5001 0.10901 0.49401 0.0
Zr107 Zr 0.49042 -0.00244 0.35867 0.0
O108 O 0.42478 0.05076 0.54639 0.0
O109 O 0.41695 0.93633 0.41011 0.0
O110 O 0.43244 0.06322 0.42215 0.0
Zr111 Zr 0.47433 0.975 0.6054 0.0
Zr112 Zr 0.46811 0.86165 0.46976 0.0
Zr113 Zr 0.36003 0.0016 0.47511 0.0
O114 O 0.40847 0.92503 0.53528 0.0
O115 O 0.30189 0.0017 0.57086 0.0
O116 O 0.31374 0.00217 0.37319 0.0
O117 O 0.64937 0.96557 0.59482 0.0
O118 O 0.46974 0.86934 0.64603 0.0
O119 O 0.49733 0.10347 0.31942 0.0
O120 O 0.47874 0.90458 0.29722 0.0
O121 O 0.47681 0.07036 0.66546 0.0
O122 O 0.4084 0.17384 0.49195 0.0
O123 O 0.5619 0.799 0.46357 0.0
O124 O 0.36103 0.82483 0.46288 0.0
O125 O 0.60764 0.14386 0.50308 0.0
O126 O 0.37188 -0.01402 0.6497 0.0
O127 O 0.59355 -0.0124 0.31381 0.0
O128 O 0.39313 0.00504 0.30181 0.0
O129 O 0.56869 0.97083 0.66471 0.0
O130 O 0.67203 0.05969 0.48876 0.0
O131 O 0.29554 0.90948 0.46994 0.0
O132 O 0.32425 0.10907 0.47662 0.0
O133 O 0.64275 0.862 0.49357 0.0
C134 C 0.6479 0.97394 0.3351 0.0
O135 O 0.49179 0.15163 0.5972 0.0
O136 O 0.51275 0.17046 0.40096 0.0
C137 C 0.31679 -0.00438 0.62835 0.0
C138 C 0.33507 0.00379 0.31732 0.0
C139 C 0.62664 0.96695 0.6504 0.0
C140 C 0.46741 0.81405 0.62234 0.0
C141 C 0.50619 0.15818 0.34294 0.0
C142 C 0.47895 0.84589 0.30986 0.0
C143 C 0.48281 0.12869 0.65177 0.0
C144 C 0.34994 0.16305 0.48448 0.0
C145 C 0.61933 0.80887 0.47781 0.0
C146 C 0.30676 0.85063 0.46538 0.0
C147 C 0.66172 0.11824 0.49672 0.0
O148 O 0.47752 0.82196 0.36485 0.0
O149 O 0.46513 0.80052 0.56417 0.0
O150 O 0.64834 0.36998 0.97717 0.0
O151 O 0.54207 0.4206 0.04893 0.0
O152 O 0.55058 0.53734 0.91337 0.0
O153 O 0.53856 0.41206 0.92381 0.0
O154 O 0.55433 0.54807 0.0397 0.0
Zr155 Zr 0.60722 0.4739 0.98098 0.0
Zr156 Zr 0.487 0.49411 0.10602 0.0
Zr157 Zr 0.47155 0.36099 -0.00803 0.0
O158 O 0.42874 0.55854 0.04173 0.0
O159 O 0.41211 0.4236 0.92685 0.0
O160 O 0.41581 0.43174 0.05303 0.0
Zr161 Zr 0.49515 0.60919 0.97216 0.0
Zr162 Zr 0.47938 0.47566 0.85937 0.0
Zr163 Zr 0.35897 0.49683 -0.01276 0.0
O164 O 0.42402 0.54877 0.91715 0.0
O165 O 0.32028 0.60349 -0.01799 0.0
O166 O 0.29782 0.40264 -0.0058 0.0
O167 O 0.66892 0.56673 0.97191 0.0
O168 O 0.49085 0.65231 0.86793 0.0
O169 O 0.47491 0.31419 0.09296 0.0
O170 O 0.46852 0.30168 0.89699 0.0
O171 O 0.49275 0.66792 0.06767 0.0
O172 O 0.39131 0.5124 0.15998 0.0
O173 O 0.57839 0.46365 0.80657 0.0
O174 O 0.37751 0.48086 0.81231 0.0
O175 O 0.58453 0.49063 0.1587 0.0
O176 O 0.40248 0.67173 0.9706 0.0
O177 O 0.56749 0.30173 -0.00563 0.0
O178 O 0.36645 0.32035 -0.00442 0.0
O179 O 0.60048 0.64911 0.96734 0.0
O180 O 0.65826 0.47373 0.0832 0.0
O181 O 0.30435 0.49272 0.88951 0.0
O182 O 0.31225 0.50207 0.08997 0.0
O183 O 0.65573 0.46671 0.88011 0.0
C184 C 0.62546 0.31517 -0.01384 0.0
O185 O 0.49372 0.59816 0.14882 0.0
O186 O 0.48614 0.39505 0.16219 0.0
C187 C 0.3443 0.6585 0.97539 0.0
C188 C 0.31136 0.3441 -0.00444 0.0
C189 C 0.65536 0.62494 0.9674 0.0
C190 C 0.48681 0.62914 0.81284 0.0
C191 C 0.48273 0.33655 0.14767 0.0
C192 C 0.4673 0.31647 0.83913 0.0
C193 C 0.49272 0.65373 0.12576 0.0
C194 C 0.33362 0.50922 0.14547 0.0
C195 C 0.63578 0.46286 0.82395 0.0
C196 C 0.32133 0.48692 0.83244 0.0
C197 C 0.64055 0.4816 0.14021 0.0
O198 O 0.46895 0.37217 0.8165 0.0
O199 O 0.48422 0.57066 0.79911 0.0
C200 C 0.04211 0.2213 0.19532 0.0
C201 C -0.00661 0.17628 0.19814 0.0
C202 C 0.95023 0.2261 0.29036 0.0
C203 C 9e-05 0.26965 0.28892 0.0
N204 N 0.0988 0.30404 0.24749 0.0
N205 N 0.90891 0.12744 0.25479 0.0
C206 C 0.0476 0.26605 0.24342 0.0
C207 C 0.9501 0.17582 0.2479 0.0
N208 N 0.08302 0.22121 0.1466 0.0
N209 N 0.90112 0.23484 0.32996 0.0
H210 H 0.90534 0.09067 0.22346 0.0
H211 H 0.8815 0.12098 0.29424 0.0
H212 H 0.89898 0.27156 0.36156 0.0
H213 H 0.85996 0.20913 0.32786 0.0
H214 H 0.11417 0.25739 0.13729 0.0
H215 H 0.08428 0.18573 0.1136 0.0
H216 H 0.1385 0.29893 0.22017 0.0
H217 H 0.10383 0.33823 0.28159 0.0
C218 C 0.76903 0.91068 0.22425 0.0
C219 C 0.79191 0.96736 0.19917 0.0
C220 C 0.72842 0.02706 0.27153 0.0
C221 C 0.6988 0.97094 0.29001 0.0
N222 N 0.68314 0.85991 0.27669 0.0
N223 N 0.78535 0.0797 0.19014 0.0
C224 C 0.71688 0.91268 0.26444 0.0
C225 C 0.76939 0.02576 0.22028 0.0
N226 N 0.79771 0.85542 0.21062 0.0
N227 N 0.71868 0.08109 0.30382 0.0
H228 H 0.81573 0.0805 0.15231 0.0
H229 H 0.76485 0.12272 0.19988 0.0
H230 H 0.68967 0.08316 0.34265 0.0
H231 H 0.74379 0.12206 0.29564 0.0
H232 H 0.78624 0.8133 0.2322 0.0
H233 H 0.83683 0.85287 0.18191 0.0
H234 H 0.69081 0.81747 0.25426 0.0
H235 H 0.64414 0.85988 0.30568 0.0
C236 C 0.93841 0.72521 0.17402 0.0
C237 C -0.00925 0.76584 0.17206 0.0
C238 C 0.02897 0.72374 0.26995 0.0
C239 C 0.97862 0.68064 0.27029 0.0
N240 N 0.88925 0.63432 0.22023 0.0
N241 N 0.0914 0.7969 0.21088 0.0
C242 C 0.93473 0.67922 0.22126 0.0
C243 C 0.03758 0.76321 0.21804 0.0
N244 N 0.8905 0.73302 0.1331 0.0
N245 N 0.06843 0.72744 0.31944 0.0
H246 H 0.0991 0.82727 0.17379 0.0
H247 H 0.13058 0.79099 0.23864 0.0
H248 H 0.06763 0.69588 0.35614 0.0
H249 H 0.09976 0.76407 0.32591 0.0
H250 H 0.84809 0.70967 0.13665 0.0
H251 H 0.89096 0.76652 0.09802 0.0
H252 H 0.8609 0.62574 0.18203 0.0
H253 H 0.88186 0.60287 0.25647 0.0
C254 C 0.29129 0.95098 0.22385 0.0
C255 C 0.28885 0.00096 0.26699 0.0
C256 C 0.19603 0.04264 0.21603 0.0
C257 C 0.20086 -0.00548 0.17102 0.0
N258 N 0.26052 0.91161 0.12352 0.0
N259 N 0.2429 0.0974 0.30215 0.0
C260 C 0.25102 0.9516 0.17201 0.0
C261 C 0.2421 0.04753 0.26268 0.0
N262 N 0.32898 0.9007 0.23473 0.0
N263 N 0.14743 0.08387 0.21383 0.0
H264 H 0.27429 0.10107 0.33852 0.0
H265 H 0.21495 0.13672 0.29727 0.0
H266 H 0.11719 0.08678 0.17624 0.0
H267 H 0.13561 0.11419 0.24968 0.0
H268 H 0.32765 0.8598 0.20855 0.0
H269 H 0.35669 0.89682 0.27414 0.0
H270 H 0.30027 0.88415 0.11893 0.0
H271 H 0.23157 0.90969 0.08492 0.0
C272 C 0.91357 0.78396 0.7313 0.0
C273 C 0.97119 0.79802 0.76013 0.0
C274 C 0.02257 0.71317 0.70683 0.0
C275 C 0.96552 0.69819 0.67764 0.0
N276 N 0.85867 0.72294 0.65349 0.0
N277 N 0.08279 0.79458 0.75533 0.0
C278 C 0.91144 0.73502 0.68691 0.0
C279 C 0.02647 0.76806 0.74216 0.0
N280 N 0.86142 0.81692 0.74697 0.0
N281 N 0.07297 0.67478 0.70172 0.0
H282 H 0.08671 0.83736 0.7783 0.0
H283 H 0.12461 0.77822 0.73689 0.0
H284 H 0.07355 0.63494 0.67398 0.0
H285 H 0.11244 0.68041 0.72919 0.0
H286 H 0.81672 0.80561 0.73225 0.0
H287 H 0.86253 0.85476 0.77737 0.0
H288 H 0.81926 0.75108 0.65393 0.0
H289 H 0.85508 0.68568 0.6225 0.0
C290 C 0.21517 0.95052 0.76336 0.0
C291 C 0.1736 0.00188 0.76515 0.0
C292 C 0.22756 0.05122 0.67804 0.0
C293 C 0.26636 -0.00238 0.67393 0.0
N294 N 0.29075 0.8917 0.705 0.0
N295 N 0.13512 0.09866 0.7224 0.0
C296 C 0.25861 0.94611 0.71457 0.0
C297 C 0.17784 0.05132 0.72151 0.0
N298 N 0.21398 0.90612 0.80897 0.0
N299 N 0.24051 0.10315 0.64306 0.0
H300 H 0.10048 0.10253 0.75619 0.0
H301 H 0.13172 0.13247 0.68785 0.0
H302 H 0.27739 0.10551 0.61161 0.0
H303 H 0.21833 0.14597 0.64866 0.0
H304 H 0.25064 0.87526 0.81652 0.0
H305 H 0.17847 0.90251 0.84174 0.0
H306 H 0.28099 0.85014 0.72837 0.0
H307 H 0.32352 0.88579 0.66979 0.0
C308 C -0.00058 0.30693 0.76213 0.0
C309 C 0.00792 0.28845 0.69941 0.0
C310 C 0.9682 0.18505 0.72343 0.0
C311 C 0.9606 0.20224 0.78667 0.0
N312 N 0.94258 0.28807 0.85711 0.0
N313 N 0.03218 0.20059 0.63334 0.0
C314 C 0.9689 0.26571 0.80385 0.0
C315 C 0.00198 0.22465 0.68373 0.0
N316 N 0.02497 0.36144 0.78305 0.0
N317 N 0.93957 0.13329 0.69979 0.0
H318 H 0.06566 0.22611 0.60884 0.0
H319 H 0.03146 0.15304 0.62264 0.0
H320 H 0.90691 0.10759 0.72497 0.0
H321 H 0.941 0.12208 0.65268 0.0
H322 H 0.02458 0.37444 0.82966 0.0
H323 H 0.05445 0.3887 0.75553 0.0
H324 H 0.9434 0.33521 0.86925 0.0
H325 H 0.91166 0.26149 0.8837 0.0
C326 C 0.70462 0.02893 0.70899 0.0
C327 C 0.67089 0.97241 0.70185 0.0
C328 C 0.72598 0.92506 0.78872 0.0
C329 C 0.763 0.97991 0.79304 0.0
N330 N 0.78764 0.08523 0.76074 0.0
N331 N 0.63312 0.87669 0.74773 0.0
C332 C 0.75204 0.03247 0.75441 0.0
C333 C 0.67655 0.92338 0.74559 0.0
N334 N 0.68799 0.08032 0.67514 0.0
N335 N 0.74024 0.87328 0.82323 0.0
H336 H 0.59555 0.87453 0.71745 0.0
H337 H 0.63028 0.84416 0.78359 0.0
H338 H 0.77649 0.87204 0.85523 0.0
H339 H 0.71983 0.82963 0.81636 0.0
H340 H 0.70528 0.12511 0.68256 0.0
H341 H 0.65378 0.07899 0.64095 0.0
H342 H 0.78767 0.12237 0.72955 0.0
H343 H 0.81938 0.09148 0.79677 0.0
C344 C 0.25271 0.25874 0.04667 0.0
C345 C 0.25944 0.29992 -0.00429 0.0
C346 C 0.17263 0.24998 0.94198 0.0
C347 C 0.17116 0.20421 -0.01043 0.0
N348 N 0.21142 0.16097 0.0852 0.0
N349 N 0.23042 0.33344 0.89268 0.0
C350 C 0.21171 0.20733 0.0414 0.0
C351 C 0.22008 0.29589 0.94306 0.0
N352 N 0.28385 0.27037 0.1008 0.0
N353 N 0.1294 0.24891 0.89536 0.0
H354 H 0.26484 0.36774 0.89145 0.0
H355 H 0.20779 0.32805 0.85038 0.0
H356 H 0.09728 0.2128 0.88948 0.0
H357 H 0.12279 0.28554 0.86423 0.0
H358 H 0.27608 0.24584 0.14188 0.0
H359 H 0.31344 0.30869 0.10635 0.0
H360 H 0.245 0.15678 0.11972 0.0
H361 H 0.17936 0.12437 0.08531 0.0
C362 C 0.27732 0.7355 0.02927 0.0
C363 C 0.30091 0.71076 0.9732 0.0
C364 C 0.22412 0.76738 0.91308 0.0
C365 C 0.19994 0.79225 0.96889 0.0
N366 N 0.19378 0.79106 0.0806 0.0
N367 N 0.31169 0.71848 0.86224 0.0
C368 C 0.22415 0.77432 0.02734 0.0
C369 C 0.27889 0.73134 0.9151 0.0
N370 N 0.30809 0.72449 0.08356 0.0
N371 N 0.19196 0.77398 0.85902 0.0
H372 H 0.35271 0.69247 0.86256 0.0
H373 H 0.3013 0.73828 0.81928 0.0
H374 H 0.14944 0.79711 0.85722 0.0
H375 H 0.20441 0.7518 0.81781 0.0
H376 H 0.29711 0.74592 0.12553 0.0
H377 H 0.34875 0.69803 0.08504 0.0
H378 H 0.20479 0.77361 0.12433 0.0
H379 H 0.15447 0.81958 0.0805 0.0
C380 C 0.66923 0.21532 0.94614 0.0
C381 C 0.67048 0.26425 -0.00957 0.0
C382 C 0.75915 0.2169 0.04294 0.0
C383 C 0.76178 0.17161 -0.00456 0.0
N384 N 0.72637 0.13176 0.89667 0.0
N385 N 0.72235 0.31763 0.07499 0.0
C386 C 0.71829 0.17127 0.9459 0.0
C387 C 0.717 0.26676 0.03714 0.0
N388 N 0.6224 0.21199 0.90332 0.0
N389 N 0.79575 0.21135 0.09457 0.0
H390 H 0.68996 0.35359 0.07626 0.0
H391 H 0.76132 0.32612 0.10245 0.0
H392 H 0.82851 0.17595 0.10024 0.0
H393 H 0.78993 0.2386 0.13422 0.0
H394 H 0.61474 0.1733 0.87505 0.0
H395 H 0.58878 0.24657 0.89792 0.0
H396 H 0.70048 0.13404 0.85596 0.0
H397 H 0.76263 0.09968 0.89403 0.0
C398 C 0.76018 0.74964 0.02619 0.0
C399 C 0.79374 0.76476 0.97166 0.0
C400 C 0.73868 0.68434 0.9134 0.0
C401 C 0.70722 0.66825 0.96879 0.0
N402 N 0.70311 0.66942 0.08032 0.0
N403 N 0.82439 0.74064 0.86631 0.0
C404 C 0.72248 0.69603 0.02602 0.0
C405 C 0.78619 0.73007 0.91604 0.0
N406 N 0.76351 0.78668 0.07777 0.0
N407 N 0.72223 0.65683 0.8586 0.0
H408 H 0.85807 0.77572 0.86582 0.0
H409 H 0.82544 0.71222 0.82712 0.0
H410 H 0.68967 0.62068 0.85627 0.0
H411 H 0.73828 0.67176 0.81539 0.0
H412 H 0.73458 0.78081 0.11622 0.0
H413 H 0.79252 0.82561 0.08103 0.0
H414 H 0.71877 0.68416 0.12363 0.0
H415 H 0.67606 0.6289 0.08141 0.0
C416 C 0.72065 0.40877 0.7659 0.0
C417 C 0.68328 0.46259 0.77526 0.0
C418 C 0.74734 0.52213 0.7029 0.0
C419 C 0.77899 0.46653 0.68728 0.0
N420 N 0.79341 0.35526 0.69816 0.0
N421 N 0.65435 0.56778 0.74573 0.0
C422 C 0.765 0.40915 0.71708 0.0
C423 C 0.69435 0.51839 0.74141 0.0
N424 N 0.71469 0.35813 0.80428 0.0
N425 N 0.76974 0.57879 0.68353 0.0
H426 H 0.61598 0.56826 0.77539 0.0
H427 H 0.65685 0.60646 0.71637 0.0
H428 H 0.80935 0.58335 0.65573 0.0
H429 H 0.75223 0.62131 0.69934 0.0
H430 H 0.74506 0.32025 0.80358 0.0
H431 H 0.68183 0.35574 0.83993 0.0
H432 H 0.78028 0.31102 0.71372 0.0
H433 H 0.8274 0.35437 0.66346 0.0
C434 C 0.21018 0.55079 0.71472 0.0
C435 C 0.18556 0.49516 0.68976 0.0
C436 C 0.25447 0.43334 0.75468 0.0
C437 C 0.27247 0.48885 0.7856 0.0
N438 N 0.25398 0.59839 0.80583 0.0
N439 N 0.17324 0.38291 0.69567 0.0
C440 C 0.24595 0.54704 0.76926 0.0
C441 C 0.20413 0.43604 0.71275 0.0
N442 N 0.20147 0.60668 0.68538 0.0
N443 N 0.28585 0.37867 0.76419 0.0
H444 H 0.13675 0.383 0.6638 0.0
H445 H 0.18125 0.33961 0.71641 0.0
H446 H 0.32294 0.37469 0.7951 0.0
H447 H 0.2776 0.33843 0.73821 0.0
H448 H 0.22304 0.64792 0.6997 0.0
H449 H 0.17745 0.61056 0.64351 0.0
H450 H 0.22981 0.6399 0.79827 0.0
H451 H 0.28036 0.59767 0.84634 0.0
C452 C 0.23926 0.46382 0.28554 0.0
C453 C 0.18983 0.50688 0.28166 0.0
C454 C 0.2375 0.55652 0.19123 0.0
C455 C 0.28817 0.51407 0.19648 0.0
N456 N 0.34633 0.44328 0.26376 0.0
N457 N 0.14603 0.60168 0.23989 0.0
C458 C 0.29226 0.47293 0.24829 0.0
C459 C 0.18989 0.55548 0.23697 0.0
N460 N 0.23448 0.4121 0.32275 0.0
N461 N 0.23558 0.59838 0.14326 0.0
H462 H 0.11052 0.60208 0.27297 0.0
H463 H 0.14731 0.64208 0.21296 0.0
H464 H 0.27295 0.60569 0.11317 0.0
H465 H 0.19657 0.62492 0.13223 0.0
H466 H 0.26647 0.37552 0.32166 0.0
H467 H 0.19544 0.40253 0.35 0.0
H468 H 0.35233 0.42142 0.30663 0.0
H469 H 0.38713 0.4441 0.23799 0.0
C470 C 0.71015 0.41933 0.20831 0.0
C471 C 0.68746 0.47832 0.18956 0.0
C472 C 0.75136 0.52872 0.2687 0.0
C473 C 0.78207 0.47079 0.27816 0.0
N474 N 0.79629 0.36211 0.25184 0.0
N475 N 0.67956 0.58945 0.20639 0.0
C476 C 0.76339 0.4164 0.24622 0.0
C477 C 0.70598 0.53333 0.22118 0.0
N478 N 0.67727 0.36652 0.19502 0.0
N479 N 0.7645 0.57848 0.30625 0.0
H480 H 0.64218 0.5935 0.17591 0.0
H481 H 0.69543 0.63232 0.22283 0.0
H482 H 0.79893 0.57705 0.34021 0.0
H483 H 0.7392 0.61987 0.30662 0.0
H484 H 0.68844 0.32279 0.21325 0.0
H485 H 0.63511 0.36818 0.17123 0.0
H486 H 0.78688 0.32261 0.22512 0.0
H487 H 0.83599 0.35831 0.2794 0.0
C488 C 0.22097 0.7978 0.52353 0.0
C489 C 0.25286 0.80868 0.4668 0.0
C490 C 0.19862 0.7223 0.4177 0.0
C491 C 0.16474 0.71261 0.4735 0.0
N492 N 0.13469 0.74689 0.57599 0.0
N493 N 0.25607 0.79711 0.35588 0.0
C494 C 0.1727 0.75259 0.52526 0.0
C495 C 0.23692 0.77567 0.41252 0.0
N496 N 0.23854 0.82877 0.57609 0.0
N497 N 0.19544 0.68006 0.37025 0.0
H498 H 0.28149 0.83848 0.35094 0.0
H499 H 0.24107 0.77786 0.31406 0.0
H500 H 0.16668 0.64077 0.37146 0.0
H501 H 0.2245 0.68202 0.33146 0.0
H502 H 0.22224 0.81744 0.62025 0.0
H503 H 0.27255 0.86356 0.57602 0.0
H504 H 0.13391 0.77891 0.61235 0.0
H505 H 0.1005 0.71242 0.57982 0.0
C506 C 0.25445 0.30169 0.53642 0.0
C507 C 0.21446 0.30705 0.48445 0.0
C508 C 0.27753 0.23216 0.42774 0.0
C509 C 0.30859 0.21721 0.48348 0.0
N510 N 0.3259 0.23538 0.59271 0.0
N511 N 0.1849 0.2746 0.38112 0.0
C512 C 0.29746 0.25173 0.53839 0.0
C513 C 0.22516 0.27162 0.43006 0.0
N514 N 0.25192 0.34452 0.58323 0.0
N515 N 0.29981 0.21086 0.37237 0.0
H516 H 0.14645 0.30421 0.38031 0.0
H517 H 0.18753 0.24462 0.3431 0.0
H518 H 0.33881 0.18201 0.36925 0.0
H519 H 0.28343 0.22683 0.3297 0.0
H520 H 0.28433 0.3463 0.61907 0.0
H521 H 0.22123 0.38212 0.58282 0.0
H522 H 0.31386 0.25444 0.63558 0.0
H523 H 0.35849 0.19947 0.59569 0.0
C524 C 0.75894 0.71282 0.42851 0.0
C525 C 0.75557 0.66323 0.47189 0.0
C526 C 0.65439 0.70112 0.50826 0.0
C527 C 0.66329 0.75626 0.47243 0.0
N528 N 0.7278 0.81703 0.40203 0.0
N529 N 0.70333 0.6131 0.55838 0.0
C530 C 0.71659 0.76276 0.43357 0.0
C531 C 0.70377 0.65749 0.51267 0.0
N532 N 0.80135 0.71135 0.38096 0.0
N533 N 0.59958 0.69053 0.53898 0.0
H534 H 0.73845 0.58026 0.56413 0.0
H535 H 0.6707 0.61202 0.59421 0.0
H536 H 0.56333 0.72255 0.54106 0.0
H537 H 0.58808 0.64768 0.55904 0.0
H538 H 0.80078 0.74263 0.34384 0.0
H539 H 0.83299 0.67506 0.37461 0.0
H540 H 0.77039 0.82744 0.38108 0.0
H541 H 0.69596 0.85326 0.39931 0.0
C542 C 0.76478 0.15914 0.53308 0.0
C543 C 0.71508 0.16074 0.48989 0.0
C544 C 0.76185 0.25118 0.43839 0.0
C545 C 0.80473 0.25581 0.48817 0.0
N546 N 0.84179 0.21998 0.58791 0.0
N547 N 0.66733 0.20506 0.39842 0.0
C548 C 0.80536 0.21107 0.53665 0.0
C549 C 0.71401 0.20583 0.44152 0.0
N550 N 0.77414 0.10803 0.5699 0.0
N551 N 0.76812 0.28881 0.38731 0.0
H552 H 0.63588 0.16817 0.39434 0.0
H553 H 0.65848 0.2416 0.36775 0.0
H554 H 0.80272 0.32276 0.38308 0.0
H555 H 0.74273 0.283 0.34664 0.0
H556 H 0.81337 0.10261 0.59775 0.0
H557 H 0.74633 0.06821 0.56823 0.0
H558 H 0.838 0.19262 0.6278 0.0
H559 H 0.87147 0.25823 0.59326 0.0
C560 C 0.42023 0.22527 0.78507 0.0
C561 C 0.47182 0.26543 0.79455 0.0
C562 C 0.53258 0.21082 0.71573 0.0
C563 C 0.47955 0.17361 0.70279 0.0
N564 N 0.37112 0.14798 0.71908 0.0
N565 N 0.57611 0.29974 0.76944 0.0
C566 C 0.42297 0.18091 0.7363 0.0
C567 C 0.5278 0.25901 0.76014 0.0
N568 N 0.36869 0.23014 0.82226 0.0
N569 N 0.58804 0.19869 0.68681 0.0
H570 H 0.57725 0.33171 0.80588 0.0
H571 H 0.61401 0.30405 0.73956 0.0
H572 H 0.59286 0.16544 0.65193 0.0
H573 H 0.63035 0.21853 0.69967 0.0
H574 H 0.3322 0.19807 0.82243 0.0
H575 H 0.36364 0.26472 0.856 0.0
H576 H 0.32681 0.15575 0.73703 0.0
H577 H 0.37116 0.1155 0.6831 0.0
C578 C 0.41898 0.72907 0.68499 0.0
C579 C 0.47284 0.76179 0.66571 0.0
C580 C 0.53609 0.70754 0.74253 0.0
C581 C 0.48261 0.6734 0.761 0.0
N582 N 0.37668 0.64096 0.7412 0.0
N583 N 0.58479 0.76956 0.66191 0.0
C584 C 0.42513 0.68065 0.72938 0.0
C585 C 0.5322 0.74712 0.69008 0.0
N586 N 0.36187 0.74563 0.66245 0.0
N587 N 0.59009 0.70314 0.77568 0.0
H588 H 0.58352 0.79983 0.6239 0.0
H589 H 0.62945 0.75445 0.67312 0.0
H590 H 0.59489 0.6741 0.81424 0.0
H591 H 0.62898 0.7311 0.76739 0.0
H592 H 0.32004 0.72886 0.68062 0.0
H593 H 0.3561 0.77927 0.62785 0.0
H594 H 0.33717 0.63874 0.71342 0.0
H595 H 0.37783 0.60705 0.77589 0.0
C596 C 0.53255 0.75323 0.17034 0.0
C597 C 0.48688 0.70553 0.16968 0.0
C598 C 0.43235 0.75362 0.2568 0.0
C599 C 0.47805 0.8018 0.25744 0.0
N600 N 0.56234 0.85612 0.20414 0.0
N601 N 0.38589 0.66713 0.20149 0.0
C602 C 0.52496 0.80469 0.2107 0.0
C603 C 0.43465 0.70751 0.20996 0.0
N604 N 0.58515 0.74763 0.13492 0.0
N605 N 0.38638 0.75216 0.30081 0.0
H606 H 0.38503 0.63377 0.16639 0.0
H607 H 0.34351 0.6704 0.22479 0.0
H608 H 0.37771 0.78918 0.33088 0.0
H609 H 0.358 0.71349 0.30904 0.0
H610 H 0.62393 0.77646 0.13977 0.0
H611 H 0.59233 0.71088 0.10414 0.0
H612 H 0.59055 0.8637 0.16543 0.0
H613 H 0.56309 0.89369 0.23453 0.0
C614 C 0.55019 0.20787 0.24791 0.0
C615 C 0.50805 0.21046 0.29874 0.0
C616 C 0.44636 0.28913 0.24587 0.0
C617 C 0.49074 0.29107 0.19776 0.0
N618 N 0.5877 0.25571 0.15284 0.0
N619 N 0.42759 0.26795 0.35354 0.0
C620 C 0.54366 0.25135 0.1986 0.0
C621 C 0.46006 0.25581 0.3004 0.0
N622 N 0.5961 0.16367 0.24702 0.0
N623 N 0.38893 0.31494 0.23761 0.0
H624 H 0.43548 0.24536 0.39546 0.0
H625 H 0.39655 0.30523 0.35718 0.0
H626 H 0.37615 0.33744 0.19659 0.0
H627 H 0.35226 0.30782 0.26866 0.0
H628 H 0.62371 0.15385 0.2085 0.0
H629 H 0.60526 0.1348 0.28488 0.0
H630 H 0.63005 0.23223 0.15355 0.0
H631 H 0.58414 0.28663 0.11569 0.0
loop_
_geom_bond_atom_site_label_1
_geom_bond_atom_site_label_2
_geom_bond_distance
_geom_bond_site_symmetry_2
_ccdc_geom_bond_type
O0 Zr5 2.207 1_565 S
O0 C34 1.295 . S
O1 Zr5 2.133 1_565 S
O1 Zr6 2.133 1_565 S
O1 Zr7 2.133 . S
O2 Zr5 2.133 1_556 S
O2 Zr11 2.133 1_556 S
O2 Zr12 2.133 . S
O3 Zr5 2.133 1_566 S
O3 Zr7 2.133 1_556 S
O3 Zr12 2.133 1_565 S
O4 Zr5 2.133 . S
O4 Zr6 2.133 . S
O4 Zr11 2.133 . S
Zr5 O0 2.207 1_545 S
Zr5 O1 2.133 1_545 S
Zr5 O2 2.133 1_554 S
Zr5 O3 2.133 1_544 S
Zr5 O4 2.133 . S
Zr5 O17 2.207 . S
Zr5 O30 2.207 . S
Zr5 O33 2.207 1_554 S
Zr6 O1 2.133 1_545 S
Zr6 O4 2.133 . S
Zr6 O8 2.133 1_455 S
Zr6 O10 2.133 1_445 S
Zr6 O22 2.207 1_455 S
Zr6 O25 2.207 . S
Zr6 O35 2.207 . S
Zr6 O36 2.207 1_545 S
Zr7 O1 2.133 . S
Zr7 O3 2.133 1_554 S
Zr7 O9 2.133 1_454 S
Zr7 O10 2.133 1_455 S
Zr7 O19 2.207 . S
Zr7 O20 2.207 1_554 S
Zr7 O27 2.207 . S
Zr7 O28 2.207 1_455 S
O8 Zr6 2.133 1_655 S
O8 Zr11 2.133 1_655 S
O8 Zr13 2.133 . S
O9 Zr7 2.133 1_656 S
O9 Zr12 2.133 1_665 S
O9 Zr13 2.133 1_566 S
O10 Zr6 2.133 1_665 S
O10 Zr7 2.133 1_655 S
O10 Zr13 2.133 1_565 S
Zr11 O2 2.133 1_554 S
Zr11 O4 2.133 . S
Zr11 O8 2.133 1_455 S
Zr11 O14 2.133 1_454 S
Zr11 O18 2.207 1_554 S
Zr11 O21 2.207 . S
Zr11 O26 2.207 1_455 S
Zr11 O29 2.207 . S
Zr12 O2 2.133 . S
Zr12 O3 2.133 1_545 S
Zr12 O9 2.133 1_445 S
Zr12 O14 2.133 1_455 S
Zr12 O23 2.207 . S
Zr12 O24 2.207 1_455 S
Zr12 O48 2.207 1_545 S
Zr12 O49 2.207 . S
Zr13 O8 2.133 . S
Zr13 O9 2.133 1_544 S
Zr13 O10 2.133 1_545 S
Zr13 O14 2.133 1_554 S
Zr13 O15 2.207 . S
Zr13 O16 2.207 1_545 S
Zr13 O31 2.207 1_554 S
Zr13 O32 2.207 . S
O14 Zr11 2.133 1_656 S
O14 Zr12 2.133 1_655 S
O14 Zr13 2.133 1_556 S
O15 Zr13 2.207 . S
O15 C37 1.295 . S
O16 Zr13 2.207 1_565 S
O16 C38 1.295 . S
O17 Zr5 2.207 . S
O17 C39 1.295 . S
O18 Zr11 2.207 1_556 S
O18 C40 1.295 . S
O19 Zr7 2.207 . S
O19 C41 1.295 . S
O20 Zr7 2.207 1_556 S
O20 C42 1.295 . S
O21 Zr11 2.207 . S
O21 C43 1.295 . S
O22 Zr6 2.207 1_655 S
O22 C44 1.295 . S
O23 Zr12 2.207 . S
O23 C45 1.295 . S
O24 Zr12 2.207 1_655 S
O24 C46 1.295 . S
O25 Zr6 2.207 . S
O25 C47 1.295 . S
O26 Zr11 2.207 1_655 S
O26 C37 1.295 . S
O27 Zr7 2.207 . S
O27 C34 1.295 . S
O28 Zr7 2.207 1_655 S
O28 C38 1.295 . S
O29 Zr11 2.207 . S
O29 C39 1.295 . S
O30 Zr5 2.207 . S
O30 C47 1.295 . S
O31 Zr13 2.207 1_556 S
O31 C46 1.295 . S
O32 Zr13 2.207 . S
O32 C44 1.295 . S
O33 Zr5 2.207 1_556 S
O33 C45 1.295 . S
C34 O0 1.295 . S
C34 O27 1.295 . S
O35 Zr6 2.207 . S
O35 C43 1.295 . S
O36 Zr6 2.207 1_565 S
O36 C41 1.295 . S
C37 O15 1.295 . S
C37 O26 1.295 . S
C38 O16 1.295 . S
C38 O28 1.295 . S
C39 O17 1.295 . S
C39 O29 1.295 . S
C40 O18 1.295 . S
C40 O49 1.295 . S
C41 O19 1.295 . S
C41 O36 1.295 . S
C42 O20 1.295 . S
C42 O48 1.295 . S
C43 O21 1.295 . S
C43 O35 1.295 . S
C44 O22 1.295 . S
C44 O32 1.295 . S
C45 O23 1.295 . S
C45 O33 1.295 . S
C46 O24 1.295 . S
C46 O31 1.295 . S
C47 O25 1.295 . S
C47 O30 1.295 . S
O48 Zr12 2.207 1_565 S
O48 C42 1.295 . S
O49 Zr12 2.207 . S
O49 C40 1.295 . S
O50 Zr55 2.207 . S
O50 C84 1.295 . S
O51 Zr55 2.133 . S
O51 Zr56 2.133 . S
O51 Zr57 2.133 . S
O52 Zr55 2.133 . S
O52 Zr61 2.133 . S
O52 Zr62 2.133 . S
O53 Zr55 2.133 . S
O53 Zr57 2.133 . S
O53 Zr62 2.133 . S
O54 Zr55 2.133 . S
O54 Zr56 2.133 . S
O54 Zr61 2.133 . S
Zr55 O50 2.207 . S
Zr55 O51 2.133 . S
Zr55 O52 2.133 . S
Zr55 O53 2.133 . S
Zr55 O54 2.133 . S
Zr55 O67 2.207 . S
Zr55 O80 2.207 . S
Zr55 O83 2.207 . S
Zr56 O51 2.133 . S
Zr56 O54 2.133 . S
Zr56 O58 2.133 1_455 S
Zr56 O60 2.133 1_455 S
Zr56 O72 2.207 1_455 S
Zr56 O75 2.207 . S
Zr56 O85 2.207 . S
Zr56 O86 2.207 . S
Zr57 O51 2.133 . S
Zr57 O53 2.133 . S
Zr57 O59 2.133 1_455 S
Zr57 O60 2.133 1_455 S
Zr57 O69 2.207 . S
Zr57 O70 2.207 . S
Zr57 O77 2.207 . S
Zr57 O78 2.207 1_455 S
O58 Zr56 2.133 1_655 S
O58 Zr61 2.133 1_655 S
O58 Zr63 2.133 . S
O59 Zr57 2.133 1_655 S
O59 Zr62 2.133 1_655 S
O59 Zr63 2.133 . S
O60 Zr56 2.133 1_655 S
O60 Zr57 2.133 1_655 S
O60 Zr63 2.133 . S
Zr61 O52 2.133 . S
Zr61 O54 2.133 . S
Zr61 O58 2.133 1_455 S
Zr61 O64 2.133 1_455 S
Zr61 O68 2.207 . S
Zr61 O71 2.207 . S
Zr61 O76 2.207 1_455 S
Zr61 O79 2.207 . S
Zr62 O52 2.133 . S
Zr62 O53 2.133 . S
Zr62 O59 2.133 1_455 S
Zr62 O64 2.133 1_455 S
Zr62 O73 2.207 . S
Zr62 O74 2.207 1_455 S
Zr62 O98 2.207 . S
Zr62 O99 2.207 . S
Zr63 O58 2.133 . S
Zr63 O59 2.133 . S
Zr63 O60 2.133 . S
Zr63 O64 2.133 . S
Zr63 O65 2.207 . S
Zr63 O66 2.207 . S
Zr63 O81 2.207 . S
Zr63 O82 2.207 . S
O64 Zr61 2.133 1_655 S
O64 Zr62 2.133 1_655 S
O64 Zr63 2.133 . S
O65 Zr63 2.207 . S
O65 C87 1.295 . S
O66 Zr63 2.207 . S
O66 C88 1.295 . S
O67 Zr55 2.207 . S
O67 C89 1.295 . S
O68 Zr61 2.207 . S
O68 C90 1.295 . S
O69 Zr57 2.207 . S
O69 C91 1.295 . S
O70 Zr57 2.207 . S
O70 C92 1.295 . S
O71 Zr61 2.207 . S
O71 C93 1.295 . S
O72 Zr56 2.207 1_655 S
O72 C94 1.295 . S
O73 Zr62 2.207 . S
O73 C95 1.295 . S
O74 Zr62 2.207 1_655 S
O74 C96 1.295 . S
O75 Zr56 2.207 . S
O75 C97 1.295 . S
O76 Zr61 2.207 1_655 S
O76 C87 1.295 . S
O77 Zr57 2.207 . S
O77 C84 1.295 . S
O78 Zr57 2.207 1_655 S
O78 C88 1.295 . S
O79 Zr61 2.207 . S
O79 C89 1.295 . S
O80 Zr55 2.207 . S
O80 C97 1.295 . S
O81 Zr63 2.207 . S
O81 C96 1.295 . S
O82 Zr63 2.207 . S
O82 C94 1.295 . S
O83 Zr55 2.207 . S
O83 C95 1.295 . S
C84 O50 1.295 . S
C84 O77 1.295 . S
O85 Zr56 2.207 . S
O85 C93 1.295 . S
O86 Zr56 2.207 . S
O86 C91 1.295 . S
C87 O65 1.295 . S
C87 O76 1.295 . S
C88 O66 1.295 . S
C88 O78 1.295 . S
C89 O67 1.295 . S
C89 O79 1.295 . S
C90 O68 1.295 . S
C90 O99 1.295 . S
C91 O69 1.295 . S
C91 O86 1.295 . S
C92 O70 1.295 . S
C92 O98 1.295 . S
C93 O71 1.295 . S
C93 O85 1.295 . S
C94 O72 1.295 . S
C94 O82 1.295 . S
C95 O73 1.295 . S
C95 O83 1.295 . S
C96 O74 1.295 . S
C96 O81 1.295 . S
C97 O75 1.295 . S
C97 O80 1.295 . S
O98 Zr62 2.207 . S
O98 C92 1.295 . S
O99 Zr62 2.207 . S
O99 C90 1.295 . S
O100 Zr105 2.207 . S
O100 C134 1.295 . S
O101 Zr105 2.133 . S
O101 Zr106 2.133 . S
O101 Zr107 2.133 . S
O102 Zr105 2.133 1_565 S
O102 Zr111 2.133 1_565 S
O102 Zr112 2.133 . S
O103 Zr105 2.133 1_565 S
O103 Zr107 2.133 1_565 S
O103 Zr112 2.133 . S
O104 Zr105 2.133 . S
O104 Zr106 2.133 . S
O104 Zr111 2.133 . S
Zr105 O100 2.207 . S
Zr105 O101 2.133 . S
Zr105 O102 2.133 1_545 S
Zr105 O103 2.133 1_545 S
Zr105 O104 2.133 . S
Zr105 O117 2.207 . S
Zr105 O130 2.207 . S
Zr105 O133 2.207 1_545 S
Zr106 O101 2.133 . S
Zr106 O104 2.133 . S
Zr106 O108 2.133 . S
Zr106 O110 2.133 . S
Zr106 O122 2.207 . S
Zr106 O125 2.207 . S
Zr106 O135 2.207 . S
Zr106 O136 2.207 . S
Zr107 O101 2.133 . S
Zr107 O103 2.133 1_545 S
Zr107 O109 2.133 1_545 S
Zr107 O110 2.133 . S
Zr107 O119 2.207 . S
Zr107 O120 2.207 1_545 S
Zr107 O127 2.207 . S
Zr107 O128 2.207 . S
O108 Zr106 2.133 . S
O108 Zr111 2.133 . S
O108 Zr113 2.133 . S
O109 Zr107 2.133 1_565 S
O109 Zr112 2.133 . S
O109 Zr113 2.133 1_565 S
O110 Zr106 2.133 . S
O110 Zr107 2.133 . S
O110 Zr113 2.133 . S
Zr111 O102 2.133 1_545 S
Zr111 O104 2.133 . S
Zr111 O108 2.133 . S
Zr111 O114 2.133 1_545 S
Zr111 O118 2.207 1_545 S
Zr111 O121 2.207 . S
Zr111 O126 2.207 . S
Zr111 O129 2.207 . S
Zr112 O102 2.133 . S
Zr112 O103 2.133 . S
Zr112 O109 2.133 . S
Zr112 O114 2.133 . S
Zr112 O123 2.207 . S
Zr112 O124 2.207 . S
Zr112 O148 2.207 . S
Zr112 O149 2.207 . S
Zr113 O108 2.133 . S
Zr113 O109 2.133 1_545 S
Zr113 O110 2.133 . S
Zr113 O114 2.133 1_545 S
Zr113 O115 2.207 . S
Zr113 O116 2.207 . S
Zr113 O131 2.207 1_545 S
Zr113 O132 2.207 . S
O114 Zr111 2.133 1_565 S
O114 Zr112 2.133 . S
O114 Zr113 2.133 1_565 S
O115 Zr113 2.207 . S
O115 C137 1.295 . S
O116 Zr113 2.207 . S
O116 C138 1.295 . S
O117 Zr105 2.207 . S
O117 C139 1.295 . S
O118 Zr111 2.207 1_565 S
O118 C140 1.295 . S
O119 Zr107 2.207 . S
O119 C141 1.295 . S
O120 Zr107 2.207 1_565 S
O120 C142 1.295 . S
O121 Zr111 2.207 . S
O121 C143 1.295 . S
O122 Zr106 2.207 . S
O122 C144 1.295 . S
O123 Zr112 2.207 . S
O123 C145 1.295 . S
O124 Zr112 2.207 . S
O124 C146 1.295 . S
O125 Zr106 2.207 . S
O125 C147 1.295 . S
O126 Zr111 2.207 . S
O126 C137 1.295 . S
O127 Zr107 2.207 . S
O127 C134 1.295 . S
O128 Zr107 2.207 . S
O128 C138 1.295 . S
O129 Zr111 2.207 . S
O129 C139 1.295 . S
O130 Zr105 2.207 . S
O130 C147 1.295 . S
O131 Zr113 2.207 1_565 S
O131 C146 1.295 . S
O132 Zr113 2.207 . S
O132 C144 1.295 . S
O133 Zr105 2.207 1_565 S
O133 C145 1.295 . S
C134 O100 1.295 . S
C134 O127 1.295 . S
O135 Zr106 2.207 . S
O135 C143 1.295 . S
O136 Zr106 2.207 . S
O136 C141 1.295 . S
C137 O115 1.295 . S
C137 O126 1.295 . S
C138 O116 1.295 . S
C138 O128 1.295 . S
C139 O117 1.295 . S
C139 O129 1.295 . S
C140 O118 1.295 . S
C140 O149 1.295 . S
C141 O119 1.295 . S
C141 O136 1.295 . S
C142 O120 1.295 . S
C142 O148 1.295 . S
C143 O121 1.295 . S
C143 O135 1.295 . S
C144 O122 1.295 . S
C144 O132 1.295 . S
C145 O123 1.295 . S
C145 O133 1.295 . S
C146 O124 1.295 . S
C146 O131 1.295 . S
C147 O125 1.295 . S
C147 O130 1.295 . S
O148 Zr112 2.207 . S
O148 C142 1.295 . S
O149 Zr112 2.207 . S
O149 C140 1.295 . S
O150 Zr155 2.207 . S
O150 C184 1.295 . S
O151 Zr155 2.133 . S
O151 Zr156 2.133 . S
O151 Zr157 2.133 . S
O152 Zr155 2.133 1_556 S
O152 Zr161 2.133 1_556 S
O152 Zr162 2.133 . S
O153 Zr155 2.133 1_556 S
O153 Zr157 2.133 1_556 S
O153 Zr162 2.133 . S
O154 Zr155 2.133 . S
O154 Zr156 2.133 . S
O154 Zr161 2.133 . S
Zr155 O150 2.207 . S
Zr155 O151 2.133 . S
Zr155 O152 2.133 1_554 S
Zr155 O153 2.133 1_554 S
Zr155 O154 2.133 . S
Zr155 O167 2.207 . S
Zr155 O180 2.207 . S
Zr155 O183 2.207 1_554 S
Zr156 O151 2.133 . S
Zr156 O154 2.133 . S
Zr156 O158 2.133 . S
Zr156 O160 2.133 . S
Zr156 O172 2.207 . S
Zr156 O175 2.207 . S
Zr156 O185 2.207 . S
Zr156 O186 2.207 . S
Zr157 O151 2.133 . S
Zr157 O153 2.133 1_554 S
Zr157 O159 2.133 1_554 S
Zr157 O160 2.133 . S
Zr157 O169 2.207 . S
Zr157 O170 2.207 1_554 S
Zr157 O177 2.207 . S
Zr157 O178 2.207 . S
O158 Zr156 2.133 . S
O158 Zr161 2.133 . S
O158 Zr163 2.133 . S
O159 Zr157 2.133 1_556 S
O159 Zr162 2.133 . S
O159 Zr163 2.133 1_556 S
O160 Zr156 2.133 . S
O160 Zr157 2.133 . S
O160 Zr163 2.133 . S
Zr161 O152 2.133 1_554 S
Zr161 O154 2.133 . S
Zr161 O158 2.133 . S
Zr161 O164 2.133 1_554 S
Zr161 O168 2.207 1_554 S
Zr161 O171 2.207 . S
Zr161 O176 2.207 . S
Zr161 O179 2.207 . S
Zr162 O152 2.133 . S
Zr162 O153 2.133 . S
Zr162 O159 2.133 . S
Zr162 O164 2.133 . S
Zr162 O173 2.207 . S
Zr162 O174 2.207 . S
Zr162 O198 2.207 . S
Zr162 O199 2.207 . S
Zr163 O158 2.133 . S
Zr163 O159 2.133 1_554 S
Zr163 O160 2.133 . S
Zr163 O164 2.133 1_554 S
Zr163 O165 2.207 . S
Zr163 O166 2.207 . S
Zr163 O181 2.207 1_554 S
Zr163 O182 2.207 . S
O164 Zr161 2.133 1_556 S
O164 Zr162 2.133 . S
O164 Zr163 2.133 1_556 S
O165 Zr163 2.207 . S
O165 C187 1.295 . S
O166 Zr163 2.207 . S
O166 C188 1.295 . S
O167 Zr155 2.207 . S
O167 C189 1.295 . S
O168 Zr161 2.207 1_556 S
O168 C190 1.295 . S
O169 Zr157 2.207 . S
O169 C191 1.295 . S
O170 Zr157 2.207 1_556 S
O170 C192 1.295 . S
O171 Zr161 2.207 . S
O171 C193 1.295 . S
O172 Zr156 2.207 . S
O172 C194 1.295 . S
O173 Zr162 2.207 . S
O173 C195 1.295 . S
O174 Zr162 2.207 . S
O174 C196 1.295 . S
O175 Zr156 2.207 . S
O175 C197 1.295 . S
O176 Zr161 2.207 . S
O176 C187 1.295 . S
O177 Zr157 2.207 . S
O177 C184 1.295 . S
O178 Zr157 2.207 . S
O178 C188 1.295 . S
O179 Zr161 2.207 . S
O179 C189 1.295 . S
O180 Zr155 2.207 . S
O180 C197 1.295 . S
O181 Zr163 2.207 1_556 S
O181 C196 1.295 . S
O182 Zr163 2.207 . S
O182 C194 1.295 . S
O183 Zr155 2.207 1_556 S
O183 C195 1.295 . S
C184 O150 1.295 . S
C184 O177 1.295 . S
O185 Zr156 2.207 . S
O185 C193 1.295 . S
O186 Zr156 2.207 . S
O186 C191 1.295 . S
C187 O165 1.295 . S
C187 O176 1.295 . S
C188 O166 1.295 . S
C188 O178 1.295 . S
C189 O167 1.295 . S
C189 O179 1.295 . S
C190 O168 1.295 . S
C190 O199 1.295 . S
C191 O169 1.295 . S
C191 O186 1.295 . S
C192 O170 1.295 . S
C192 O198 1.295 . S
C193 O171 1.295 . S
C193 O185 1.295 . S
C194 O172 1.295 . S
C194 O182 1.295 . S
C195 O173 1.295 . S
C195 O183 1.295 . S
C196 O174 1.295 . S
C196 O181 1.295 . S
C197 O175 1.295 . S
C197 O180 1.295 . S
O198 Zr162 2.207 . S
O198 C192 1.295 . S
O199 Zr162 2.207 . S
O199 C190 1.295 . S
C200 C201 1.363 . S
C200 C206 1.379 . S
C200 N208 1.356 . S
C201 C200 1.363 . S
C201 C207 1.363 1_455 S
C202 C203 1.363 1_655 S
C202 C207 1.379 . S
C202 N209 1.356 . S
C203 C202 1.363 1_455 S
C203 C206 1.363 . S
N204 C206 1.356 . S
N204 H216 0.984 . S
N204 H217 0.985 . S
N205 C207 1.356 . S
N205 H210 0.984 . S
N205 H211 0.985 . S
C206 C200 1.379 . S
C206 C203 1.363 . S
C206 N204 1.356 . S
C207 C201 1.363 1_655 S
C207 C202 1.379 . S
C207 N205 1.356 . S
N208 C200 1.356 . S
N208 H214 0.984 . S
N208 H215 0.984 . S
N209 C202 1.356 . S
N209 H212 0.984 . S
N209 H213 0.985 . S
H210 N205 0.984 . S
H211 N205 0.985 . S
H212 N209 0.984 . S
H213 N209 0.985 . S
H214 N208 0.984 . S
H215 N208 0.984 . S
H216 N204 0.984 . S
H217 N204 0.985 . S
C218 C219 1.363 1_565 S
C218 C224 1.379 . S
C218 N226 1.356 . S
C219 C218 1.363 1_545 S
C219 C225 1.363 . S
C220 C221 1.363 . S
C220 C225 1.379 . S
C220 N227 1.356 . S
C221 C220 1.363 . S
C221 C224 1.363 1_545 S
N222 C224 1.356 . S
N222 H234 0.984 . S
N222 H235 0.985 . S
N223 C225 1.356 . S
N223 H228 0.984 . S
N223 H229 0.985 . S
C224 C218 1.379 . S
C224 C221 1.363 1_565 S
C224 N222 1.356 . S
C225 C219 1.363 . S
C225 C220 1.379 . S
C225 N223 1.356 . S
N226 C218 1.356 . S
N226 H232 0.984 . S
N226 H233 0.984 . S
N227 C220 1.356 . S
N227 H230 0.984 . S
N227 H231 0.985 . S
H228 N223 0.984 . S
H229 N223 0.985 . S
H230 N227 0.984 . S
H231 N227 0.985 . S
H232 N226 0.984 . S
H233 N226 0.984 . S
H234 N222 0.984 . S
H235 N222 0.985 . S
C236 C237 1.363 1_655 S
C236 C242 1.379 . S
C236 N244 1.356 . S
C237 C236 1.363 1_455 S
C237 C243 1.363 . S
C238 C239 1.363 . S
C238 C243 1.379 . S
C238 N245 1.356 . S
C239 C238 1.363 . S
C239 C242 1.363 1_455 S
N240 C242 1.356 . S
N240 H252 0.984 . S
N240 H253 0.985 . S
N241 C243 1.356 . S
N241 H246 0.984 . S
N241 H247 0.985 . S
C242 C236 1.379 . S
C242 C239 1.363 1_655 S
C242 N240 1.356 . S
C243 C237 1.363 . S
C243 C238 1.379 . S
C243 N241 1.356 . S
N244 C236 1.356 . S
N244 H250 0.984 . S
N244 H251 0.984 . S
N245 C238 1.356 . S
N245 H248 0.984 . S
N245 H249 0.985 . S
H246 N241 0.984 . S
H247 N241 0.985 . S
H248 N245 0.984 . S
H249 N245 0.985 . S
H250 N244 0.984 . S
H251 N244 0.984 . S
H252 N240 0.984 . S
H253 N240 0.985 . S
C254 C255 1.363 1_565 S
C254 C260 1.379 . S
C254 N262 1.356 . S
C255 C254 1.363 1_545 S
C255 C261 1.363 . S
C256 C257 1.363 . S
C256 C261 1.379 . S
C256 N263 1.356 . S
C257 C256 1.363 . S
C257 C260 1.363 1_545 S
N258 C260 1.356 . S
N258 H270 0.984 . S
N258 H271 0.985 . S
N259 C261 1.356 . S
N259 H264 0.984 . S
N259 H265 0.985 . S
C260 C254 1.379 . S
C260 C257 1.363 1_565 S
C260 N258 1.356 . S
C261 C255 1.363 . S
C261 C256 1.379 . S
C261 N259 1.356 . S
N262 C254 1.356 . S
N262 H268 0.984 . S
N262 H269 0.984 . S
N263 C256 1.356 . S
N263 H266 0.984 . S
N263 H267 0.985 . S
H264 N259 0.984 . S
H265 N259 0.985 . S
H266 N263 0.984 . S
H267 N263 0.985 . S
H268 N262 0.984 . S
H269 N262 0.984 . S
H270 N258 0.984 . S
H271 N258 0.985 . S
C272 C273 1.363 1_655 S
C272 C278 1.379 . S
C272 N280 1.356 . S
C273 C272 1.363 1_455 S
C273 C279 1.363 . S
C274 C275 1.363 . S
C274 C279 1.379 . S
C274 N281 1.356 . S
C275 C274 1.363 . S
C275 C278 1.363 1_455 S
N276 C278 1.356 . S
N276 H288 0.984 . S
N276 H289 0.985 . S
N277 C279 1.356 . S
N277 H282 0.984 . S
N277 H283 0.985 . S
C278 C272 1.379 . S
C278 C275 1.363 1_655 S
C278 N276 1.356 . S
C279 C273 1.363 . S
C279 C274 1.379 . S
C279 N277 1.356 . S
N280 C272 1.356 . S
N280 H286 0.984 . S
N280 H287 0.984 . S
N281 C274 1.356 . S
N281 H284 0.984 . S
N281 H285 0.985 . S
H282 N277 0.984 . S
H283 N277 0.985 . S
H284 N281 0.984 . S
H285 N281 0.985 . S
H286 N280 0.984 . S
H287 N280 0.984 . S
H288 N276 0.984 . S
H289 N276 0.985 . S
C290 C291 1.363 1_565 S
C290 C296 1.379 . S
C290 N298 1.356 . S
C291 C290 1.363 1_545 S
C291 C297 1.363 . S
C292 C293 1.363 . S
C292 C297 1.379 . S
C292 N299 1.356 . S
C293 C292 1.363 . S
C293 C296 1.363 1_545 S
N294 C296 1.356 . S
N294 H306 0.984 . S
N294 H307 0.985 . S
N295 C297 1.356 . S
N295 H300 0.984 . S
N295 H301 0.985 . S
C296 C290 1.379 . S
C296 C293 1.363 1_565 S
C296 N294 1.356 . S
C297 C291 1.363 . S
C297 C292 1.379 . S
C297 N295 1.356 . S
N298 C290 1.356 . S
N298 H304 0.984 . S
N298 H305 0.984 . S
N299 C292 1.356 . S
N299 H302 0.984 . S
N299 H303 0.985 . S
H300 N295 0.984 . S
H301 N295 0.985 . S
H302 N299 0.984 . S
H303 N299 0.985 . S
H304 N298 0.984 . S
H305 N298 0.984 . S
H306 N294 0.984 . S
H307 N294 0.985 . S
C308 C309 1.363 . S
C308 C314 1.379 . S
C308 N316 1.356 . S
C309 C308 1.363 . S
C309 C315 1.363 1_455 S
C310 C311 1.363 1_655 S
C310 C315 1.379 . S
C310 N317 1.356 . S
C311 C310 1.363 1_455 S
C311 C314 1.363 . S
N312 C314 1.356 . S
N312 H324 0.984 . S
N312 H325 0.985 . S
N313 C315 1.356 . S
N313 H318 0.984 . S
N313 H319 0.985 . S
C314 C308 1.379 . S
C314 C311 1.363 . S
C314 N312 1.356 . S
C315 C309 1.363 1_655 S
C315 C310 1.379 . S
C315 N313 1.356 . S
N316 C308 1.356 . S
N316 H322 0.984 . S
N316 H323 0.984 . S
N317 C310 1.356 . S
N317 H320 0.984 . S
N317 H321 0.985 . S
H318 N313 0.984 . S
H319 N313 0.985 . S
H320 N317 0.984 . S
H321 N317 0.985 . S
H322 N316 0.984 . S
H323 N316 0.984 . S
H324 N312 0.984 . S
H325 N312 0.985 . S
C326 C327 1.363 . S
C326 C332 1.379 . S
C326 N334 1.356 . S
C327 C326 1.363 . S
C327 C333 1.363 1_545 S
C328 C329 1.363 1_565 S
C328 C333 1.379 . S
C328 N335 1.356 . S
C329 C328 1.363 1_545 S
C329 C332 1.363 . S
N330 C332 1.356 . S
N330 H342 0.984 . S
N330 H343 0.985 . S
N331 C333 1.356 . S
N331 H336 0.984 . S
N331 H337 0.985 . S
C332 C326 1.379 . S
C332 C329 1.363 . S
C332 N330 1.356 . S
C333 C327 1.363 1_565 S
C333 C328 1.379 . S
C333 N331 1.356 . S
N334 C326 1.356 . S
N334 H340 0.984 . S
N334 H341 0.984 . S
N335 C328 1.356 . S
N335 H338 0.984 . S
N335 H339 0.985 . S
H336 N331 0.984 . S
H337 N331 0.985 . S
H338 N335 0.984 . S
H339 N335 0.985 . S
H340 N334 0.984 . S
H341 N334 0.984 . S
H342 N330 0.984 . S
H343 N330 0.985 . S
C344 C345 1.363 . S
C344 C350 1.379 . S
C344 N352 1.356 . S
C345 C344 1.363 . S
C345 C351 1.363 1_554 S
C346 C347 1.363 1_556 S
C346 C351 1.379 . S
C346 N353 1.356 . S
C347 C346 1.363 1_554 S
C347 C350 1.363 . S
N348 C350 1.356 . S
N348 H360 0.984 . S
N348 H361 0.985 . S
N349 C351 1.356 . S
N349 H354 0.984 . S
N349 H355 0.985 . S
C350 C344 1.379 . S
C350 C347 1.363 . S
C350 N348 1.356 . S
C351 C345 1.363 1_556 S
C351 C346 1.379 . S
C351 N349 1.356 . S
N352 C344 1.356 . S
N352 H358 0.984 . S
N352 H359 0.984 . S
N353 C346 1.356 . S
N353 H356 0.984 . S
N353 H357 0.985 . S
H354 N349 0.984 . S
H355 N349 0.985 . S
H356 N353 0.984 . S
H357 N353 0.985 . S
H358 N352 0.984 . S
H359 N352 0.984 . S
H360 N348 0.984 . S
H361 N348 0.985 . S
C362 C363 1.363 . S
C362 C368 1.379 . S
C362 N370 1.356 . S
C363 C362 1.363 . S
C363 C369 1.363 1_554 S
C364 C365 1.363 1_556 S
C364 C369 1.379 . S
C364 N371 1.356 . S
C365 C364 1.363 1_554 S
C365 C368 1.363 . S
N366 C368 1.356 . S
N366 H378 0.984 . S
N366 H379 0.985 . S
N367 C369 1.356 . S
N367 H372 0.984 . S
N367 H373 0.985 . S
C368 C362 1.379 . S
C368 C365 1.363 . S
C368 N366 1.356 . S
C369 C363 1.363 1_556 S
C369 C364 1.379 . S
C369 N367 1.356 . S
N370 C362 1.356 . S
N370 H376 0.984 . S
N370 H377 0.984 . S
N371 C364 1.356 . S
N371 H374 0.984 . S
N371 H375 0.985 . S
H372 N367 0.984 . S
H373 N367 0.985 . S
H374 N371 0.984 . S
H375 N371 0.985 . S
H376 N370 0.984 . S
H377 N370 0.984 . S
H378 N366 0.984 . S
H379 N366 0.985 . S
C380 C381 1.363 1_556 S
C380 C386 1.379 . S
C380 N388 1.356 . S
C381 C380 1.363 1_554 S
C381 C387 1.363 . S
C382 C383 1.363 . S
C382 C387 1.379 . S
C382 N389 1.356 . S
C383 C382 1.363 . S
C383 C386 1.363 1_554 S
N384 C386 1.356 . S
N384 H396 0.984 . S
N384 H397 0.985 . S
N385 C387 1.356 . S
N385 H390 0.984 . S
N385 H391 0.985 . S
C386 C380 1.379 . S
C386 C383 1.363 1_556 S
C386 N384 1.356 . S
C387 C381 1.363 . S
C387 C382 1.379 . S
C387 N385 1.356 . S
N388 C380 1.356 . S
N388 H394 0.984 . S
N388 H395 0.984 . S
N389 C382 1.356 . S
N389 H392 0.984 . S
N389 H393 0.985 . S
H390 N385 0.984 . S
H391 N385 0.985 . S
H392 N389 0.984 . S
H393 N389 0.985 . S
H394 N388 0.984 . S
H395 N388 0.984 . S
H396 N384 0.984 . S
H397 N384 0.985 . S
C398 C399 1.363 . S
C398 C404 1.379 . S
C398 N406 1.356 . S
C399 C398 1.363 . S
C399 C405 1.363 1_554 S
C400 C401 1.363 1_556 S
C400 C405 1.379 . S
C400 N407 1.356 . S
C401 C400 1.363 1_554 S
C401 C404 1.363 . S
N402 C404 1.356 . S
N402 H414 0.984 . S
N402 H415 0.985 . S
N403 C405 1.356 . S
N403 H408 0.984 . S
N403 H409 0.985 . S
C404 C398 1.379 . S
C404 C401 1.363 . S
C404 N402 1.356 . S
C405 C399 1.363 1_556 S
C405 C400 1.379 . S
C405 N403 1.356 . S
N406 C398 1.356 . S
N406 H412 0.984 . S
N406 H413 0.984 . S
N407 C400 1.356 . S
N407 H410 0.984 . S
N407 H411 0.985 . S
H408 N403 0.984 . S
H409 N403 0.985 . S
H410 N407 0.984 . S
H411 N407 0.985 . S
H412 N406 0.984 . S
H413 N406 0.984 . S
H414 N402 0.984 . S
H415 N402 0.985 . S
C416 C417 1.363 . S
C416 C422 1.379 . S
C416 N424 1.356 . S
C417 C416 1.363 . S
C417 C423 1.363 . S
C418 C419 1.363 . S
C418 C423 1.379 . S
C418 N425 1.356 . S
C419 C418 1.363 . S
C419 C422 1.363 . S
N420 C422 1.356 . S
N420 H432 0.984 . S
N420 H433 0.985 . S
N421 C423 1.356 . S
N421 H426 0.984 . S
N421 H427 0.985 . S
C422 C416 1.379 . S
C422 C419 1.363 . S
C422 N420 1.356 . S
C423 C417 1.363 . S
C423 C418 1.379 . S
C423 N421 1.356 . S
N424 C416 1.356 . S
N424 H430 0.984 . S
N424 H431 0.984 . S
N425 C418 1.356 . S
N425 H428 0.984 . S
N425 H429 0.985 . S
H426 N421 0.984 . S
H427 N421 0.985 . S
H428 N425 0.984 . S
H429 N425 0.985 . S
H430 N424 0.984 . S
H431 N424 0.984 . S
H432 N420 0.984 . S
H433 N420 0.985 . S
C434 C435 1.363 . S
C434 C440 1.379 . S
C434 N442 1.356 . S
C435 C434 1.363 . S
C435 C441 1.363 . S
C436 C437 1.363 . S
C436 C441 1.379 . S
C436 N443 1.356 . S
C437 C436 1.363 . S
C437 C440 1.363 . S
N438 C440 1.356 . S
N438 H450 0.984 . S
N438 H451 0.985 . S
N439 C441 1.356 . S
N439 H444 0.984 . S
N439 H445 0.985 . S
C440 C434 1.379 . S
C440 C437 1.363 . S
C440 N438 1.356 . S
C441 C435 1.363 . S
C441 C436 1.379 . S
C441 N439 1.356 . S
N442 C434 1.356 . S
N442 H448 0.984 . S
N442 H449 0.984 . S
N443 C436 1.356 . S
N443 H446 0.984 . S
N443 H447 0.985 . S
H444 N439 0.984 . S
H445 N439 0.985 . S
H446 N443 0.984 . S
H447 N443 0.985 . S
H448 N442 0.984 . S
H449 N442 0.984 . S
H450 N438 0.984 . S
H451 N438 0.985 . S
C452 C453 1.363 . S
C452 C458 1.379 . S
C452 N460 1.356 . S
C453 C452 1.363 . S
C453 C459 1.363 . S
C454 C455 1.363 . S
C454 C459 1.379 . S
C454 N461 1.356 . S
C455 C454 1.363 . S
C455 C458 1.363 . S
N456 C458 1.356 . S
N456 H468 0.984 . S
N456 H469 0.985 . S
N457 C459 1.356 . S
N457 H462 0.984 . S
N457 H463 0.985 . S
C458 C452 1.379 . S
C458 C455 1.363 . S
C458 N456 1.356 . S
C459 C453 1.363 . S
C459 C454 1.379 . S
C459 N457 1.356 . S
N460 C452 1.356 . S
N460 H466 0.984 . S
N460 H467 0.984 . S
N461 C454 1.356 . S
N461 H464 0.984 . S
N461 H465 0.985 . S
H462 N457 0.984 . S
H463 N457 0.985 . S
H464 N461 0.984 . S
H465 N461 0.985 . S
H466 N460 0.984 . S
H467 N460 0.984 . S
H468 N456 0.984 . S
H469 N456 0.985 . S
C470 C471 1.363 . S
C470 C476 1.379 . S
C470 N478 1.356 . S
C471 C470 1.363 . S
C471 C477 1.363 . S
C472 C473 1.363 . S
C472 C477 1.379 . S
C472 N479 1.356 . S
C473 C472 1.363 . S
C473 C476 1.363 . S
N474 C476 1.356 . S
N474 H486 0.984 . S
N474 H487 0.985 . S
N475 C477 1.356 . S
N475 H480 0.984 . S
N475 H481 0.985 . S
C476 C470 1.379 . S
C476 C473 1.363 . S
C476 N474 1.356 . S
C477 C471 1.363 . S
C477 C472 1.379 . S
C477 N475 1.356 . S
N478 C470 1.356 . S
N478 H484 0.984 . S
N478 H485 0.984 . S
N479 C472 1.356 . S
N479 H482 0.984 . S
N479 H483 0.985 . S
H480 N475 0.984 . S
H481 N475 0.985 . S
H482 N479 0.984 . S
H483 N479 0.985 . S
H484 N478 0.984 . S
H485 N478 0.984 . S
H486 N474 0.984 . S
H487 N474 0.985 . S
C488 C489 1.363 . S
C488 C494 1.379 . S
C488 N496 1.356 . S
C489 C488 1.363 . S
C489 C495 1.363 . S
C490 C491 1.363 . S
C490 C495 1.379 . S
C490 N497 1.356 . S
C491 C490 1.363 . S
C491 C494 1.363 . S
N492 C494 1.356 . S
N492 H504 0.984 . S
N492 H505 0.985 . S
N493 C495 1.356 . S
N493 H498 0.984 . S
N493 H499 0.985 . S
C494 C488 1.379 . S
C494 C491 1.363 . S
C494 N492 1.356 . S
C495 C489 1.363 . S
C495 C490 1.379 . S
C495 N493 1.356 . S
N496 C488 1.356 . S
N496 H502 0.984 . S
N496 H503 0.984 . S
N497 C490 1.356 . S
N497 H500 0.984 . S
N497 H501 0.985 . S
H498 N493 0.984 . S
H499 N493 0.985 . S
H500 N497 0.984 . S
H501 N497 0.985 . S
H502 N496 0.984 . S
H503 N496 0.984 . S
H504 N492 0.984 . S
H505 N492 0.985 . S
C506 C507 1.363 . S
C506 C512 1.379 . S
C506 N514 1.356 . S
C507 C506 1.363 . S
C507 C513 1.363 . S
C508 C509 1.363 . S
C508 C513 1.379 . S
C508 N515 1.356 . S
C509 C508 1.363 . S
C509 C512 1.363 . S
N510 C512 1.356 . S
N510 H522 0.984 . S
N510 H523 0.985 . S
N511 C513 1.356 . S
N511 H516 0.984 . S
N511 H517 0.985 . S
C512 C506 1.379 . S
C512 C509 1.363 . S
C512 N510 1.356 . S
C513 C507 1.363 . S
C513 C508 1.379 . S
C513 N511 1.356 . S
N514 C506 1.356 . S
N514 H520 0.984 . S
N514 H521 0.984 . S
N515 C508 1.356 . S
N515 H518 0.984 . S
N515 H519 0.985 . S
H516 N511 0.984 . S
H517 N511 0.985 . S
H518 N515 0.984 . S
H519 N515 0.985 . S
H520 N514 0.984 . S
H521 N514 0.984 . S
H522 N510 0.984 . S
H523 N510 0.985 . S
C524 C525 1.363 . S
C524 C530 1.379 . S
C524 N532 1.356 . S
C525 C524 1.363 . S
C525 C531 1.363 . S
C526 C527 1.363 . S
C526 C531 1.379 . S
C526 N533 1.356 . S
C527 C526 1.363 . S
C527 C530 1.363 . S
N528 C530 1.356 . S
N528 H540 0.984 . S
N528 H541 0.985 . S
N529 C531 1.356 . S
N529 H534 0.984 . S
N529 H535 0.985 . S
C530 C524 1.379 . S
C530 C527 1.363 . S
C530 N528 1.356 . S
C531 C525 1.363 . S
C531 C526 1.379 . S
C531 N529 1.356 . S
N532 C524 1.356 . S
N532 H538 0.984 . S
N532 H539 0.984 . S
N533 C526 1.356 . S
N533 H536 0.984 . S
N533 H537 0.985 . S
H534 N529 0.984 . S
H535 N529 0.985 . S
H536 N533 0.984 . S
H537 N533 0.985 . S
H538 N532 0.984 . S
H539 N532 0.984 . S
H540 N528 0.984 . S
H541 N528 0.985 . S
C542 C543 1.363 . S
C542 C548 1.379 . S
C542 N550 1.356 . S
C543 C542 1.363 . S
C543 C549 1.363 . S
C544 C545 1.363 . S
C544 C549 1.379 . S
C544 N551 1.356 . S
C545 C544 1.363 . S
C545 C548 1.363 . S
N546 C548 1.356 . S
N546 H558 0.984 . S
N546 H559 0.985 . S
N547 C549 1.356 . S
N547 H552 0.984 . S
N547 H553 0.985 . S
C548 C542 1.379 . S
C548 C545 1.363 . S
C548 N546 1.356 . S
C549 C543 1.363 . S
C549 C544 1.379 . S
C549 N547 1.356 . S
N550 C542 1.356 . S
N550 H556 0.984 . S
N550 H557 0.984 . S
N551 C544 1.356 . S
N551 H554 0.984 . S
N551 H555 0.985 . S
H552 N547 0.984 . S
H553 N547 0.985 . S
H554 N551 0.984 . S
H555 N551 0.985 . S
H556 N550 0.984 . S
H557 N550 0.984 . S
H558 N546 0.984 . S
H559 N546 0.985 . S
C560 C561 1.363 . S
C560 C566 1.379 . S
C560 N568 1.356 . S
C561 C560 1.363 . S
C561 C567 1.363 . S
C562 C563 1.363 . S
C562 C567 1.379 . S
C562 N569 1.356 . S
C563 C562 1.363 . S
C563 C566 1.363 . S
N564 C566 1.356 . S
N564 H576 0.984 . S
N564 H577 0.985 . S
N565 C567 1.356 . S
N565 H570 0.984 . S
N565 H571 0.985 . S
C566 C560 1.379 . S
C566 C563 1.363 . S
C566 N564 1.356 . S
C567 C561 1.363 . S
C567 C562 1.379 . S
C567 N565 1.356 . S
N568 C560 1.356 . S
N568 H574 0.984 . S
N568 H575 0.984 . S
N569 C562 1.356 . S
N569 H572 0.984 . S
N569 H573 0.985 . S
H570 N565 0.984 . S
H571 N565 0.985 . S
H572 N569 0.984 . S
H573 N569 0.985 . S
H574 N568 0.984 . S
H575 N568 0.984 . S
H576 N564 0.984 . S
H577 N564 0.985 . S
C578 C579 1.363 . S
C578 C584 1.379 . S
C578 N586 1.356 . S
C579 C578 1.363 . S
C579 C585 1.363 . S
C580 C581 1.363 . S
C580 C585 1.379 . S
C580 N587 1.356 . S
C581 C580 1.363 . S
C581 C584 1.363 . S
N582 C584 1.356 . S
N582 H594 0.984 . S
N582 H595 0.985 . S
N583 C585 1.356 . S
N583 H588 0.984 . S
N583 H589 0.985 . S
C584 C578 1.379 . S
C584 C581 1.363 . S
C584 N582 1.356 . S
C585 C579 1.363 . S
C585 C580 1.379 . S
C585 N583 1.356 . S
N586 C578 1.356 . S
N586 H592 0.984 . S
N586 H593 0.984 . S
N587 C580 1.356 . S
N587 H590 0.984 . S
N587 H591 0.985 . S
H588 N583 0.984 . S
H589 N583 0.985 . S
H590 N587 0.984 . S
H591 N587 0.985 . S
H592 N586 0.984 . S
H593 N586 0.984 . S
H594 N582 0.984 . S
H595 N582 0.985 . S
C596 C597 1.363 . S
C596 C602 1.379 . S
C596 N604 1.356 . S
C597 C596 1.363 . S
C597 C603 1.363 . S
C598 C599 1.363 . S
C598 C603 1.379 . S
C598 N605 1.356 . S
C599 C598 1.363 . S
C599 C602 1.363 . S
N600 C602 1.356 . S
N600 H612 0.984 . S
N600 H613 0.985 . S
N601 C603 1.356 . S
N601 H606 0.984 . S
N601 H607 0.985 . S
C602 C596 1.379 . S
C602 C599 1.363 . S
C602 N600 1.356 . S
C603 C597 1.363 . S
C603 C598 1.379 . S
C603 N601 1.356 . S
N604 C596 1.356 . S
N604 H610 0.984 . S
N604 H611 0.984 . S
N605 C598 1.356 . S
N605 H608 0.984 . S
N605 H609 0.985 . S
H606 N601 0.984 . S
H607 N601 0.985 . S
H608 N605 0.984 . S
H609 N605 0.985 . S
H610 N604 0.984 . S
H611 N604 0.984 . S
H612 N600 0.984 . S
H613 N600 0.985 . S
C614 C615 1.363 . S
C614 C620 1.379 . S
C614 N622 1.356 . S
C615 C614 1.363 . S
C615 C621 1.363 . S
C616 C617 1.363 . S
C616 C621 1.379 . S
C616 N623 1.356 . S
C617 C616 1.363 . S
C617 C620 1.363 . S
N618 C620 1.356 . S
N618 H630 0.984 . S
N618 H631 0.985 . S
N619 C621 1.356 . S
N619 H624 0.984 . S
N619 H625 0.985 . S
C620 C614 1.379 . S
C620 C617 1.363 . S
C620 N618 1.356 . S
C621 C615 1.363 . S
C621 C616 1.379 . S
C621 N619 1.356 . S
N622 C614 1.356 . S
N622 H628 0.984 . S
N622 H629 0.984 . S
N623 C616 1.356 . S
N623 H626 0.984 . S
N623 H627 0.985 . S
H624 N619 0.984 . S
H625 N619 0.985 . S
H626 N623 0.984 . S
H627 N623 0.985 . S
H628 N622 0.984 . S
H629 N622 0.984 . S
H630 N618 0.984 . S
H631 N618 0.985 . S
C201 C43 1.500 . S
C203 C92 1.497 . S
C219 C44 1.500 . S
C221 C134 1.500 . S
C237 C41 1.500 . S
C239 C90 1.500 . S
C255 C138 1.500 . S
C257 C47 1.497 . S
C273 C42 1.500 . S
C275 C93 1.503 . S
C291 C45 1.500 . S
C293 C137 1.500 . S
C309 C91 1.500 . S
C311 C40 1.500 . S
C327 C139 1.500 . S
C329 C46 1.503 . S
C345 C188 1.500 . S
C347 C39 1.497 . S
C363 C187 1.500 . S
C365 C34 1.500 . S
C381 C184 1.500 . S
C383 C37 1.500 . S
C399 C38 1.500 . S
C401 C189 1.503 . S
C417 C195 1.500 . S
C419 C94 1.503 . S
C435 C97 1.500 . S
C437 C196 1.500 . S
C453 C95 1.500 . S
C455 C194 1.497 . S
C471 C197 1.500 . S
C473 C96 1.500 . S
C489 C146 1.500 . S
C491 C89 1.500 . S
C507 C84 1.500 . S
C509 C144 1.497 . S
C525 C87 1.500 . S
C527 C145 1.503 . S
C543 C147 1.500 . S
C545 C88 1.500 . S
C561 C192 1.500 . S
C563 C143 1.500 . S
C579 C140 1.500 . S
C581 C190 1.503 . S
C597 C193 1.500 . S
C599 C142 1.500 . S
C615 C141 1.500 . S
C617 C191 1.497 . S
