# Generated by pormake.
# Topology yfb, (5)-cn, num edge types: 1
# Building blocks:
#     Node 0, Type 0, BuildingBlock: XOMCOT_clean_sbu_1, # of connection points: 5
#     Node 1, Type 0, BuildingBlock: XOMCOT_clean_sbu_1, # of connection points: 5
#     Node 2, Type 0, BuildingBlock: XOMCOT_clean_sbu_1, # of connection points: 5
#     Node 3, Type 0, BuildingBlock: XOMCOT_clean_sbu_1, # of connection points: 5
#     Node 4, Type 0, BuildingBlock: XOMCOT_clean_sbu_1, # of connection points: 5
#     Node 5, Type 0, BuildingBlock: XOMCOT_clean_sbu_1, # of connection points: 5
#     Node 6, Type 0, BuildingBlock: XOMCOT_clean_sbu_1, # of connection points: 5
#     Node 7, Type 0, BuildingBlock: XOMCOT_clean_sbu_1, # of connection points: 5
#     Node 8, Type 0, BuildingBlock: XOMCOT_clean_sbu_1, # of connection points: 5
#     Node 9, Type 0, BuildingBlock: XOMCOT_clean_sbu_1, # of connection points: 5
#     Node 10, Type 0, BuildingBlock: XOMCOT_clean_sbu_1, # of connection points: 5
#     Node 11, Type 0, BuildingBlock: XOMCOT_clean_sbu_1, # of connection points: 5
#     Node 12, Type 0, BuildingBlock: XOMCOT_clean_sbu_1, # of connection points: 5
#     Node 13, Type 0, BuildingBlock: XOMCOT_clean_sbu_1, # of connection points: 5
#     Node 14, Type 0, BuildingBlock: XOMCOT_clean_sbu_1, # of connection points: 5
#     Node 15, Type 0, BuildingBlock: XOMCOT_clean_sbu_1, # of connection points: 5
#     Edge 16, Type (0, 0), BuildingBlock: TEMPAE_clean_linker_10, # of connection points: 2
#     Edge 17, Type (0, 0), BuildingBlock: TEMPAE_clean_linker_10, # of connection points: 2
#     Edge 18, Type (0, 0), BuildingBlock: TEMPAE_clean_linker_10, # of connection points: 2
#     Edge 19, Type (0, 0), BuildingBlock: TEMPAE_clean_linker_10, # of connection points: 2
#     Edge 20, Type (0, 0), BuildingBlock: TEMPAE_clean_linker_10, # of connection points: 2
#     Edge 21, Type (0, 0), BuildingBlock: TEMPAE_clean_linker_10, # of connection points: 2
#     Edge 22, Type (0, 0), BuildingBlock: TEMPAE_clean_linker_10, # of connection points: 2
#     Edge 23, Type (0, 0), BuildingBlock: TEMPAE_clean_linker_10, # of connection points: 2
#     Edge 24, Type (0, 0), BuildingBlock: TEMPAE_clean_linker_10, # of connection points: 2
#     Edge 25, Type (0, 0), BuildingBlock: TEMPAE_clean_linker_10, # of connection points: 2
#     Edge 26, Type (0, 0), BuildingBlock: TEMPAE_clean_linker_10, # of connection points: 2
#     Edge 27, Type (0, 0), BuildingBlock: TEMPAE_clean_linker_10, # of connection points: 2
#     Edge 28, Type (0, 0), BuildingBlock: TEMPAE_clean_linker_10, # of connection points: 2
#     Edge 29, Type (0, 0), BuildingBlock: TEMPAE_clean_linker_10, # of connection points: 2
#     Edge 30, Type (0, 0), BuildingBlock: TEMPAE_clean_linker_10, # of connection points: 2
#     Edge 31, Type (0, 0), BuildingBlock: TEMPAE_clean_linker_10, # of connection points: 2
#     Edge 32, Type (0, 0), BuildingBlock: TEMPAE_clean_linker_10, # of connection points: 2
#     Edge 33, Type (0, 0), BuildingBlock: TEMPAE_clean_linker_10, # of connection points: 2
#     Edge 34, Type (0, 0), BuildingBlock: TEMPAE_clean_linker_10, # of connection points: 2
#     Edge 35, Type (0, 0), BuildingBlock: TEMPAE_clean_linker_10, # of connection points: 2
#     Edge 36, Type (0, 0), BuildingBlock: TEMPAE_clean_linker_10, # of connection points: 2
#     Edge 37, Type (0, 0), BuildingBlock: TEMPAE_clean_linker_10, # of connection points: 2
#     Edge 38, Type (0, 0), BuildingBlock: TEMPAE_clean_linker_10, # of connection points: 2
#     Edge 39, Type (0, 0), BuildingBlock: TEMPAE_clean_linker_10, # of connection points: 2
#     Edge 40, Type (0, 0), BuildingBlock: TEMPAE_clean_linker_10, # of connection points: 2
#     Edge 41, Type (0, 0), BuildingBlock: TEMPAE_clean_linker_10, # of connection points: 2
#     Edge 42, Type (0, 0), BuildingBlock: TEMPAE_clean_linker_10, # of connection points: 2
#     Edge 43, Type (0, 0), BuildingBlock: TEMPAE_clean_linker_10, # of connection points: 2
#     Edge 44, Type (0, 0), BuildingBlock: TEMPAE_clean_linker_10, # of connection points: 2
#     Edge 45, Type (0, 0), BuildingBlock: TEMPAE_clean_linker_10, # of connection points: 2
#     Edge 46, Type (0, 0), BuildingBlock: TEMPAE_clean_linker_10, # of connection points: 2
#     Edge 47, Type (0, 0), BuildingBlock: TEMPAE_clean_linker_10, # of connection points: 2
#     Edge 48, Type (0, 0), BuildingBlock: TEMPAE_clean_linker_10, # of connection points: 2
#     Edge 49, Type (0, 0), BuildingBlock: TEMPAE_clean_linker_10, # of connection points: 2
#     Edge 50, Type (0, 0), BuildingBlock: TEMPAE_clean_linker_10, # of connection points: 2
#     Edge 51, Type (0, 0), BuildingBlock: TEMPAE_clean_linker_10, # of connection points: 2
#     Edge 52, Type (0, 0), BuildingBlock: TEMPAE_clean_linker_10, # of connection points: 2
#     Edge 53, Type (0, 0), BuildingBlock: TEMPAE_clean_linker_10, # of connection points: 2
#     Edge 54, Type (0, 0), BuildingBlock: TEMPAE_clean_linker_10, # of connection points: 2
#     Edge 55, Type (0, 0), BuildingBlock: TEMPAE_clean_linker_10, # of connection points: 2
# Relax obj value: 0.749
# Max RMSD: 0.274
# Mean RMSD: 0.274
data_MOF--net-yfb--node1-XOMCOT_clean_sbu_1--edge1-TEMPAE_clean_linker_10
_symmetry_space_group_name_H-M    P1
_symmetry_Int_Tables_number       1
_symmetry_cell_setting            triclinic
loop_
_symmetry_equiv_pos_as_xyz
'x, y, z'
_cell_length_a     42.366585
_cell_length_b     42.380066
_cell_length_c     43.921904
_cell_angle_alpha  90.029029
_cell_angle_beta   90.131884
_cell_angle_gamma 90.001187
loop_
_atom_site_label
_atom_site_type_symbol
_atom_site_fract_x
_atom_site_fract_y
_atom_site_fract_z
_atom_type_partial_charge
C0 C 0.62626 0.03897 0.13086 0.0
C1 C 0.60037 0.02332 0.11882 0.0
N2 N 0.59927 0.02879 0.08861 0.0
N3 N 0.64199 0.05382 0.10829 0.0
C4 C 0.62438 0.04755 0.08314 0.0
H5 H 0.63156 0.04118 0.15484 0.0
Co6 Co 0.67298 0.0864 0.10815 0.0
C7 C 0.62774 0.12691 0.09844 0.0
O8 O 0.63643 0.11732 0.07126 0.0
N9 N 0.70176 0.12029 0.10562 0.0
C10 C 0.73339 0.15508 0.08327 0.0
C11 C 0.71999 0.12576 0.08103 0.0
C12 C 0.70405 0.14718 0.12229 0.0
N13 N 0.72328 0.16886 0.10912 0.0
O14 O 0.68617 0.0787 0.15101 0.0
H15 H 0.72183 0.1103 0.06154 0.0
H16 H 0.69048 0.15141 0.14273 0.0
O17 O 0.64151 0.11514 0.12151 0.0
C18 C 0.69471 0.05326 0.16448 0.0
O19 O 0.69273 0.02624 0.14989 0.0
N20 N 0.7046 0.05867 0.09276 0.0
C21 C 0.75548 0.03655 0.05826 0.0
C22 C 0.72468 0.03597 0.04656 0.0
C23 C 0.69975 0.04733 0.06406 0.0
C24 C 0.73415 0.05708 0.10537 0.0
C25 C 0.75963 0.04516 0.08886 0.0
H26 H 0.67753 0.05069 0.0528 0.0
H27 H 0.73924 0.06828 0.12688 0.0
H28 H 0.62808 0.05898 0.06149 0.0
H29 H 0.58301 0.01012 0.1316 0.0
H30 H 0.7476 0.16627 0.0659 0.0
H31 H 0.72017 0.03044 0.02288 0.0
H32 H 0.78293 0.04589 0.09903 0.0
C33 C 0.49421 0.63039 0.10832 0.0
C34 C 0.50704 0.60271 0.09716 0.0
N35 N 0.48526 0.58832 0.07959 0.0
N36 N 0.46433 0.63343 0.09808 0.0
C37 C 0.45948 0.60705 0.08115 0.0
H38 H 0.50673 0.64822 0.12116 0.0
Co39 Co 0.43944 0.67048 0.0985 0.0
C40 C 0.37479 0.65033 0.084 0.0
O41 O 0.37299 0.67452 0.06535 0.0
N42 N 0.41405 0.70795 0.09917 0.0
C43 C 0.38641 0.75064 0.08626 0.0
C44 C 0.41369 0.73375 0.0811 0.0
C45 C 0.38777 0.71117 0.1165 0.0
N46 N 0.36958 0.7359 0.10803 0.0
O47 O 0.43933 0.67192 0.14248 0.0
H48 H 0.43065 0.73909 0.06359 0.0
H49 H 0.38057 0.69365 0.13299 0.0
O50 O 0.4007 0.6446 0.09806 0.0
C51 C 0.45874 0.69356 0.15036 0.0
O52 O 0.47733 0.70513 0.12919 0.0
N53 N 0.44282 0.67171 0.0557 0.0
C54 C 0.45108 0.68813 0.99488 0.0
C55 C 0.43127 0.66288 1.00288 0.0
C56 C 0.42755 0.6549 0.03352 0.0
C57 C 0.46616 0.69216 0.04785 0.0
C58 C 0.4703 0.70127 0.0177 0.0
H59 H 0.41139 0.63615 0.03905 0.0
H60 H 0.47972 0.70369 0.06554 0.0
H61 H 0.43795 0.60226 0.06883 0.0
H62 H 0.53129 0.59509 0.09977 0.0
H63 H 0.37834 0.77054 0.0729 0.0
H64 H 0.41714 0.65084 0.9859 0.0
H65 H 0.48628 0.72058 0.01303 0.0
C66 C 0.87219 0.51374 0.1106 0.0
C67 C 0.89959 0.52509 0.09776 0.0
N68 N 0.91109 0.50307 0.0786 0.0
N69 N 0.86621 0.48463 0.09968 0.0
C70 C 0.89066 0.47859 0.0806 0.0
H71 H 0.85651 0.52687 0.12527 0.0
Co72 Co 0.82725 0.46351 0.10259 0.0
C73 C 0.8393 0.39811 0.08211 0.0
O74 O 0.81261 0.39901 0.06678 0.0
N75 N 0.78771 0.44218 0.10584 0.0
C76 C 0.73941 0.42301 0.09829 0.0
C77 C 0.75955 0.44778 0.09241 0.0
C78 C 0.78314 0.41492 0.1214 0.0
N79 N 0.75455 0.40193 0.11605 0.0
O80 O 0.83101 0.45956 0.14616 0.0
H81 H 0.75405 0.46764 0.07803 0.0
H82 H 0.80178 0.40312 0.13386 0.0
O83 O 0.84873 0.42266 0.09658 0.0
C84 C 0.81241 0.48018 0.15751 0.0
O85 O 0.80083 0.50167 0.13902 0.0
N86 N 0.82127 0.47074 0.06069 0.0
C87 C 0.795 0.48248 1.00401 0.0
C88 C 0.81877 0.45964 1.0073 0.0
C89 C 0.83227 0.45461 0.03595 0.0
C90 C 0.80307 0.49687 0.05654 0.0
C91 C 0.78935 0.50311 0.02833 0.0
H92 H 0.84993 0.43649 0.0382 0.0
H93 H 0.79653 0.51106 0.076 0.0
H94 H 0.89217 0.45772 0.06651 0.0
H95 H 0.90947 0.54838 0.10119 0.0
H96 H 0.71599 0.42004 0.08882 0.0
H97 H 0.82467 0.44377 0.98884 0.0
H98 H 0.77199 0.52178 0.02644 0.0
C99 C 0.03086 0.8903 0.12526 0.0
C100 C 0.02085 0.91912 0.11404 0.0
N101 N 0.04036 0.92787 0.09134 0.0
N102 N 0.05674 0.88096 0.1099 0.0
C103 C 0.06216 0.90464 0.08981 0.0
H104 H 0.01872 0.87615 0.14203 0.0
Co105 Co 0.07548 0.84062 0.10903 0.0
C106 C 0.1421 0.85159 0.09061 0.0
O107 O 0.14134 0.82622 0.07338 0.0
N108 N 0.09469 0.79989 0.10805 0.0
C109 C 0.11401 0.75401 0.09198 0.0
C110 C 0.08932 0.77503 0.08949 0.0
C111 C 0.12155 0.79209 0.12315 0.0
N112 N 0.13474 0.7652 0.11264 0.0
O113 O 0.08044 0.83978 0.15269 0.0
H114 H 0.07026 0.77321 0.07326 0.0
H115 H 0.13356 0.80817 0.13844 0.0
O116 O 0.1172 0.86054 0.10466 0.0
C117 C 0.05964 0.82062 0.16271 0.0
O118 O 0.03678 0.81222 0.14411 0.0
N119 N 0.06723 0.8391 0.06698 0.0
C120 C 0.05149 0.81695 0.00956 0.0
C121 C 0.07809 0.83635 0.01365 0.0
C122 C 0.08518 0.84789 0.04264 0.0
C123 C 0.03841 0.82572 0.06229 0.0
C124 C 0.02985 0.81462 0.03358 0.0
H125 H 0.10587 0.86234 0.04534 0.0
H126 H 0.02336 0.82081 0.08157 0.0
H127 H 0.08089 0.90414 0.07318 0.0
H128 H 0.99953 0.93146 0.12055 0.0
H129 H 0.11764 0.73343 0.0778 0.0
H130 H 0.09502 0.84003 0.99558 0.0
H131 H 0.00822 0.80123 0.03114 0.0
C132 C 0.63572 0.5018 0.40466 0.0
C133 C 0.60712 0.51206 0.41606 0.0
N134 N 0.5955 0.48949 0.43446 0.0
N135 N 0.6421 0.47277 0.41562 0.0
C136 C 0.61678 0.46576 0.43322 0.0
H137 H 0.65183 0.51562 0.39104 0.0
Co138 Co 0.68161 0.4522 0.41407 0.0
C139 C 0.66936 0.38474 0.42594 0.0
O140 O 0.69448 0.38456 0.44359 0.0
N141 N 0.7218 0.43167 0.41202 0.0
C142 C 0.76893 0.4109 0.42223 0.0
C143 C 0.74838 0.43515 0.42875 0.0
C144 C 0.72807 0.40649 0.39393 0.0
N145 N 0.75574 0.39228 0.40083 0.0
O146 O 0.68186 0.45313 0.37018 0.0
H147 H 0.75228 0.45281 0.446 0.0
H148 H 0.71107 0.39695 0.37798 0.0
O149 O 0.66032 0.41063 0.41356 0.0
C150 C 0.70191 0.47372 0.36146 0.0
O151 O 0.71309 0.49334 0.38202 0.0
N152 N 0.68331 0.45402 0.4571 0.0
C153 C 0.70182 0.45634 0.51762 0.0
C154 C 0.67799 0.43553 0.50835 0.0
C155 C 0.66877 0.43494 0.47789 0.0
C156 C 0.70167 0.47836 0.467 0.0
C157 C 0.71185 0.47966 0.49723 0.0
H158 H 0.65143 0.41773 0.4712 0.0
H159 H 0.71123 0.49485 0.45063 0.0
H160 H 0.61441 0.44426 0.44612 0.0
H161 H 0.59694 0.53527 0.41297 0.0
H162 H 0.79058 0.40586 0.43443 0.0
H163 H 0.66877 0.4179 0.52382 0.0
H164 H 0.7299 0.49654 0.50359 0.0
C165 C 0.02337 0.62176 0.39521 0.0
C166 C 0.01255 0.59389 0.40771 0.0
N167 N 0.0334 0.58421 0.42894 0.0
N168 N 0.05111 0.62968 0.40826 0.0
C169 C 0.05673 0.60601 0.42838 0.0
H170 H 0.01082 0.63617 0.3789 0.0
Co171 Co 0.07232 0.66881 0.4046 0.0
C172 C 0.13957 0.65565 0.41847 0.0
O173 O 0.14109 0.68238 0.43362 0.0
N174 N 0.09345 0.70831 0.40043 0.0
C175 C 0.11344 0.7564 0.40712 0.0
C176 C 0.08925 0.7362 0.41476 0.0
C177 C 0.11909 0.71319 0.3826 0.0
N178 N 0.13266 0.74159 0.38732 0.0
O179 O 0.07305 0.666 0.36095 0.0
H180 H 0.07084 0.74145 0.43088 0.0
H181 H 0.12966 0.69478 0.36892 0.0
O182 O 0.11325 0.64672 0.40689 0.0
C183 C 0.05219 0.68442 0.34976 0.0
O184 O 0.03044 0.69551 0.36819 0.0
N185 N 0.06915 0.67384 0.44719 0.0
C186 C 0.06376 0.69674 0.50609 0.0
C187 C 0.08609 0.67346 0.49923 0.0
C188 C 0.08811 0.66188 0.46961 0.0
C189 C 0.04404 0.69233 0.45475 0.0
C190 C 0.04112 0.70458 0.48412 0.0
H191 H 0.10588 0.64444 0.46489 0.0
H192 H 0.02797 0.7001 0.4371 0.0
H193 H 0.07707 0.60511 0.44316 0.0
H194 H 0.99008 0.58275 0.40292 0.0
H195 H 0.11748 0.77956 0.41677 0.0
H196 H 0.10332 0.66604 0.51603 0.0
H197 H 0.02326 0.72225 0.48866 0.0
C198 C 0.8951 0.03339 0.39228 0.0
C199 C 0.92107 0.01792 0.40435 0.0
N200 N 0.92199 0.0232 0.43462 0.0
N201 N 0.87913 0.04793 0.41489 0.0
C202 C 0.89665 0.04168 0.44008 0.0
H203 H 0.88981 0.03561 0.36831 0.0
Co204 Co 0.84728 0.07953 0.41557 0.0
C205 C 0.89191 0.12271 0.42454 0.0
O206 O 0.88648 0.11226 0.45219 0.0
N207 N 0.81745 0.11251 0.41873 0.0
C208 C 0.78492 0.14615 0.44161 0.0
C209 C 0.79774 0.1165 0.44254 0.0
C210 C 0.81627 0.14049 0.40373 0.0
N211 N 0.79704 0.16164 0.41755 0.0
O212 O 0.83445 0.07263 0.37254 0.0
H213 H 0.79441 0.09983 0.46083 0.0
H214 H 0.83124 0.14609 0.38457 0.0
O215 O 0.8777 0.10953 0.40245 0.0
C216 C 0.82685 0.04778 0.3576 0.0
O217 O 0.82929 0.02003 0.37076 0.0
N218 N 0.81655 0.05053 0.43039 0.0
C219 C 0.76537 0.02849 0.46449 0.0
C220 C 0.79592 0.02894 0.47686 0.0
C221 C 0.82107 0.0401 0.45946 0.0
C222 C 0.7874 0.04751 0.41715 0.0
C223 C 0.76191 0.03535 0.43341 0.0
H224 H 0.84298 0.04442 0.47102 0.0
H225 H 0.7823 0.05808 0.3954 0.0
H226 H 0.89255 0.05285 0.4618 0.0
H227 H 0.93854 1.00488 0.39154 0.0
H228 H 0.76905 0.15598 0.45839 0.0
H229 H 0.79997 0.02455 0.50083 0.0
H230 H 0.73891 0.03498 0.42263 0.0
C231 C 0.48413 0.88437 0.38851 0.0
C232 C 0.49642 0.91177 0.40096 0.0
N233 N 0.47589 0.92285 0.42178 0.0
N234 N 0.45582 0.87827 0.4012 0.0
C235 C 0.45138 0.90244 0.42103 0.0
H236 H 0.49594 0.86906 0.37247 0.0
Co237 Co 0.43101 0.84127 0.39814 0.0
C238 C 0.36421 0.86361 0.40079 0.0
O239 O 0.35548 0.83813 0.41552 0.0
N240 N 0.40615 0.80382 0.39515 0.0
C241 C 0.38032 0.75978 0.40659 0.0
C242 C 0.40564 0.77859 0.41385 0.0
C243 C 0.38225 0.79827 0.37523 0.0
N244 N 0.36481 0.77258 0.38272 0.0
O245 O 0.43535 0.83984 0.35444 0.0
H246 H 0.42123 0.77475 0.43291 0.0
H247 H 0.37597 0.81482 0.35752 0.0
O248 O 0.39327 0.86823 0.39435 0.0
C249 C 0.45499 0.81798 0.34788 0.0
O250 O 0.47198 0.80617 0.37023 0.0
N251 N 0.42933 0.83987 0.44092 0.0
C252 C 0.42909 0.81969 0.50107 0.0
C253 C 0.40695 0.84199 0.4909 0.0
C254 C 0.40747 0.85186 0.46059 0.0
C255 C 0.45404 0.82267 0.45179 0.0
C256 C 0.4542 0.81185 0.48173 0.0
H257 H 0.38976 0.86829 0.4532 0.0
H258 H 0.472 0.81452 0.43618 0.0
H259 H 0.43099 0.9046 0.43558 0.0
H260 H 0.5195 0.92163 0.39644 0.0
H261 H 0.37257 0.73978 0.4199 0.0
H262 H 0.38802 0.84994 0.50555 0.0
H263 H 0.47207 0.79495 0.48845 0.0
C264 C 0.38778 0.99373 0.90161 0.0
C265 C 0.41504 0.00643 0.91388 0.0
N266 N 0.42741 0.98565 0.93392 0.0
N267 N 0.38286 0.96495 0.9137 0.0
C268 C 0.40766 0.96056 0.93286 0.0
H269 H 0.37154 1.00568 0.8865 0.0
Co270 Co 0.34548 0.94083 0.91332 0.0
C271 C 0.36625 0.87592 0.92873 0.0
O272 O 0.34117 0.87181 0.94581 0.0
N273 N 0.30794 0.91601 0.91329 0.0
C274 C 0.26507 0.88989 0.92794 0.0
C275 C 0.28299 0.91666 0.93231 0.0
C276 C 0.30345 0.88956 0.89643 0.0
N277 N 0.27834 0.87229 0.90576 0.0
O278 O 0.34467 0.93889 0.86934 0.0
H279 H 0.27914 0.93401 0.9499 0.0
H280 H 0.32026 0.88178 0.87955 0.0
O281 O 0.37117 0.90225 0.91535 0.0
C282 C 0.32361 0.95867 0.86083 0.0
O283 O 0.31262 0.97829 0.88144 0.0
N284 N 0.34327 0.94643 0.95571 0.0
C285 C 0.31975 0.95889 0.01333 0.0
C286 C 0.34121 0.93401 0.00879 0.0
C287 C 0.35358 0.92876 0.97974 0.0
C288 C 0.32731 0.97378 0.96092 0.0
C289 C 0.31574 0.98081 0.98973 0.0
H290 H 0.37007 0.90973 0.97678 0.0
H291 H 0.32122 0.98889 0.94197 0.0
H292 H 0.40974 0.94037 0.94774 0.0
H293 H 0.42418 0.02979 0.90931 0.0
H294 H 0.24538 0.88287 0.94203 0.0
H295 H 0.3463 0.91708 0.02657 0.0
H296 H 0.30092 1.00142 0.99256 0.0
C297 C 0.51621 0.36764 0.9035 0.0
C298 C 0.50236 0.39411 0.91593 0.0
N299 N 0.52466 0.41084 0.93077 0.0
N300 N 0.54721 0.36743 0.91041 0.0
C301 C 0.55175 0.39446 0.92652 0.0
H302 H 0.50386 0.34838 0.89259 0.0
Co303 Co 0.57265 0.33098 0.90952 0.0
C304 C 0.63811 0.35282 0.91965 0.0
O305 O 0.64254 0.32833 0.93753 0.0
N306 N 0.5979 0.2937 0.90858 0.0
C307 C 0.62218 0.24887 0.92069 0.0
C308 C 0.59619 0.26752 0.92601 0.0
C309 C 0.62396 0.28902 0.89123 0.0
N310 N 0.6401 0.26281 0.89928 0.0
O311 O 0.57089 0.32867 0.86552 0.0
H312 H 0.57824 0.26264 0.94271 0.0
H313 H 0.63285 0.30643 0.87539 0.0
O314 O 0.6109 0.35754 0.90768 0.0
C315 C 0.5521 0.30643 0.85777 0.0
O316 O 0.53478 0.29353 0.87923 0.0
N317 N 0.57158 0.33087 0.95254 0.0
C318 C 0.56748 0.31636 0.01405 0.0
C319 C 0.5882 0.33991 1.00405 0.0
C320 C 0.58929 0.34749 0.97313 0.0
C321 C 0.54804 0.31168 0.96259 0.0
C322 C 0.54575 0.30372 0.99328 0.0
H323 H 0.60518 0.36587 0.96609 0.0
H324 H 0.5326 0.30039 0.94623 0.0
H325 H 0.57377 0.4005 0.93753 0.0
H326 H 0.47739 0.39954 0.91571 0.0
H327 H 0.62831 0.22759 0.93298 0.0
H328 H 0.60468 0.35094 0.01968 0.0
H329 H 0.52916 0.28561 1.00009 0.0
C330 C 0.12261 0.52995 0.89109 0.0
C331 C 0.09422 0.51913 0.90259 0.0
N332 N 0.0866 0.53676 0.92705 0.0
N333 N 0.13276 0.55449 0.90805 0.0
C334 C 0.11004 0.55823 0.92946 0.0
H335 H 0.1357 0.51953 0.87253 0.0
Co336 Co 0.17224 0.57507 0.90759 0.0
C337 C 0.15905 0.63985 0.93016 0.0
O338 O 0.18554 0.63976 0.94582 0.0
N339 N 0.21185 0.59636 0.90715 0.0
C340 C 0.25823 0.61713 0.92007 0.0
C341 C 0.23845 0.59152 0.92348 0.0
C342 C 0.21709 0.62409 0.89258 0.0
N343 N 0.24439 0.638 0.90111 0.0
O344 O 0.17002 0.58216 0.8643 0.0
H345 H 0.24254 0.57192 0.93865 0.0
H346 H 0.19928 0.63572 0.8789 0.0
O347 O 0.15066 0.61527 0.91526 0.0
C348 C 0.18871 0.56223 0.85207 0.0
O349 O 0.19848 0.5385 0.86887 0.0
N350 N 0.17702 0.56478 0.949 0.0
C351 C 0.20207 0.54547 1.00437 0.0
C352 C 0.18174 0.57162 1.00293 0.0
C353 C 0.16884 0.58057 0.97493 0.0
C354 C 0.19213 0.53649 0.95099 0.0
C355 C 0.20479 0.52624 0.97854 0.0
H356 H 0.15357 0.60084 0.97431 0.0
H357 H 0.19681 0.52319 0.93048 0.0
H358 H 0.11109 0.57582 0.94723 0.0
H359 H 0.08119 0.49873 0.89466 0.0
H360 H 0.28013 0.62093 0.93226 0.0
H361 H 0.17811 0.58674 0.02249 0.0
H362 H 0.21929 0.50519 0.97887 0.0
C363 C 1.00254 0.13876 0.90439 0.0
C364 C 0.01738 0.11357 0.91836 0.0
N365 N 0.99721 0.10055 0.93845 0.0
N366 N 0.9731 0.14175 0.91564 0.0
C367 C 0.97057 0.11798 0.93621 0.0
H368 H 0.01322 0.15483 0.88833 0.0
Co369 Co 0.94481 0.17579 0.91089 0.0
C370 C 0.88027 0.14485 0.91724 0.0
O371 O 0.86564 0.17142 0.92319 0.0
N372 N 0.91663 0.21042 0.90644 0.0
C373 C 0.88876 0.25366 0.91626 0.0
C374 C 0.91515 0.23655 0.92392 0.0
C375 C 0.89216 0.21363 0.88673 0.0
N376 N 0.87364 0.23882 0.89329 0.0
O377 O 0.94646 0.17308 0.86702 0.0
H378 H 0.93102 0.24209 0.94243 0.0
H379 H 0.88633 0.1959 0.86989 0.0
O380 O 0.91011 0.14482 0.91273 0.0
C381 C 0.96496 0.19487 0.8577 0.0
O382 O 0.98174 0.21006 0.87823 0.0
N383 N 0.94571 0.18146 0.95325 0.0
C384 C 0.94846 0.21239 0.00886 0.0
C385 C 0.92303 0.19235 1.00199 0.0
C386 C 0.92216 0.17683 0.97394 0.0
C387 C 0.97262 0.19687 0.96149 0.0
C388 C 0.97461 0.21244 0.98937 0.0
H389 H 0.90149 0.16339 0.96843 0.0
H390 H 0.99132 0.19988 0.94502 0.0
H391 H 0.95042 0.11499 0.95101 0.0
H392 H 0.04148 0.10604 0.91469 0.0
H393 H 0.88004 0.27392 0.92865 0.0
H394 H 0.90245 0.19133 0.01655 0.0
H395 H 0.99497 0.22712 0.99411 0.0
C396 C 0.38097 0.51089 0.61847 0.0
C397 C 0.40765 0.49832 0.60519 0.0
N398 N 0.421 0.52058 0.5875 0.0
N399 N 0.37734 0.541 0.60922 0.0
C400 C 0.4024 0.54631 0.59068 0.0
H401 H 0.36399 0.49799 0.6319 0.0
Co402 Co 0.33974 0.56453 0.61146 0.0
C403 C 0.35675 0.62821 0.58957 0.0
O404 O 0.33033 0.62983 0.57394 0.0
N405 N 0.30168 0.58841 0.6137 0.0
C406 C 0.25445 0.60994 0.60543 0.0
C407 C 0.27347 0.58421 0.59985 0.0
C408 C 0.29836 0.61611 0.62889 0.0
N409 N 0.27032 0.63017 0.62347 0.0
O410 O 0.34365 0.57015 0.65471 0.0
H411 H 0.26716 0.56452 0.58552 0.0
H412 H 0.31736 0.62719 0.64147 0.0
O413 O 0.36387 0.60337 0.60454 0.0
C414 C 0.32549 0.55053 0.66807 0.0
O415 O 0.31354 0.52736 0.65183 0.0
N416 N 0.33347 0.55614 0.5699 0.0
C417 C 0.30635 0.54313 0.51388 0.0
C418 C 0.33081 0.56537 0.51621 0.0
C419 C 0.34477 0.57099 0.54457 0.0
C420 C 0.31438 0.5305 0.5668 0.0
C421 C 0.30036 0.52356 0.53891 0.0
H422 H 0.36318 0.58842 0.54608 0.0
H423 H 0.30751 0.51734 0.58682 0.0
H424 H 0.40537 0.5676 0.57743 0.0
H425 H 0.41561 0.47413 0.60707 0.0
H426 H 0.23123 0.61402 0.59589 0.0
H427 H 0.33706 0.58031 0.49716 0.0
H428 H 0.28252 0.50528 0.53777 0.0
C429 C 0.99932 0.36742 0.60955 0.0
C430 C 0.01453 0.39321 0.59719 0.0
N431 N 0.99328 0.41062 0.58163 0.0
N432 N 0.96853 0.36843 0.60191 0.0
C433 C 0.96551 0.39532 0.58536 0.0
H434 H 0.01053 0.34787 0.62111 0.0
Co435 Co 0.94025 0.33423 0.60273 0.0
C436 C 0.8761 0.3639 0.60353 0.0
O437 O 0.86394 0.34136 0.58666 0.0
N438 N 0.91227 0.2991 0.60309 0.0
C439 C 0.88688 0.2557 0.58858 0.0
C440 C 0.91311 0.27411 0.58406 0.0
C441 C 0.88649 0.29377 0.62064 0.0
N442 N 0.86953 0.26859 0.61104 0.0
O443 O 0.94516 0.32891 0.64625 0.0
H444 H 0.93088 0.26991 0.56699 0.0
H445 H 0.87853 0.31 0.63804 0.0
O446 O 0.90559 0.36428 0.60965 0.0
C447 C 0.96173 0.30446 0.65221 0.0
O448 O 0.97615 0.29045 0.62943 0.0
N449 N 0.9376 0.33684 0.55994 0.0
C450 C 0.93574 0.32276 0.49821 0.0
C451 C 0.91433 0.34438 0.51066 0.0
C452 C 0.91609 0.35169 0.54165 0.0
C453 C 0.96129 0.31961 0.54725 0.0
C454 C 0.96076 0.31206 0.5164 0.0
H455 H 0.89952 0.36841 0.55058 0.0
H456 H 0.97908 0.30918 0.56182 0.0
H457 H 0.94399 0.40193 0.57372 0.0
H458 H 0.03965 0.39777 0.59817 0.0
H459 H 0.88027 0.23531 0.57515 0.0
H460 H 0.89522 0.3539 0.49705 0.0
H461 H 0.97788 0.29534 0.50773 0.0
C462 C 0.13359 0.98747 0.6216 0.0
C463 C 0.10708 1.00083 0.60849 0.0
N464 N 0.09365 0.97957 0.58955 0.0
N465 N 0.13698 0.95778 0.61117 0.0
C466 C 0.11205 0.95357 0.59212 0.0
H467 H 0.1503 0.99935 0.63629 0.0
Co468 Co 0.17262 0.93122 0.61401 0.0
C469 C 0.14577 0.86549 0.6143 0.0
O470 O 0.17095 0.85334 0.60149 0.0
N471 N 0.20871 0.90462 0.61646 0.0
C472 C 0.25106 0.87679 0.60359 0.0
C473 C 0.23288 0.90264 0.59662 0.0
C474 C 0.21429 0.88104 0.63665 0.0
N475 N 0.23887 0.86249 0.62834 0.0
O476 O 0.1751 0.93597 0.65767 0.0
H477 H 0.23609 0.91754 0.57696 0.0
H478 H 0.19838 0.87561 0.65515 0.0
O479 O 0.14356 0.89526 0.61847 0.0
C480 C 0.19805 0.95455 0.66371 0.0
O481 O 0.2104 0.9705 0.64099 0.0
N482 N 0.1731 0.92912 0.57136 0.0
C483 C 0.19117 0.93021 0.5107 0.0
C484 C 0.17172 0.90598 0.52167 0.0
C485 C 0.16263 0.906 0.55219 0.0
C486 C 0.1885 0.95479 0.5601 0.0
C487 C 0.19792 0.95582 0.52975 0.0
H488 H 0.14823 0.8869 0.56011 0.0
H489 H 0.19588 0.97334 0.57547 0.0
H490 H 0.10886 0.93255 0.57852 0.0
H491 H 0.09913 0.02483 0.61187 0.0
H492 H 0.26992 0.86764 0.58955 0.0
H493 H 0.16539 0.88617 0.5073 0.0
H494 H 0.21291 0.97498 0.52219 0.0
C495 C 0.50982 0.13519 0.6079 0.0
C496 C 0.49548 0.1095 0.59426 0.0
N497 N 0.51635 0.09583 0.57523 0.0
N498 N 0.5396 0.13785 0.59748 0.0
C499 C 0.54286 0.11337 0.57778 0.0
H500 H 0.49853 0.15198 0.62289 0.0
Co501 Co 0.56713 0.17263 0.60092 0.0
C502 C 0.63214 0.14346 0.59422 0.0
O503 O 0.64536 0.1701 0.58591 0.0
N504 N 0.59465 0.20796 0.60397 0.0
C505 C 0.62137 0.25168 0.59317 0.0
C506 C 0.59545 0.23367 0.58588 0.0
C507 C 0.61918 0.21218 0.62344 0.0
N508 N 0.63688 0.2378 0.61642 0.0
O509 O 0.566 0.1715 0.64494 0.0
H510 H 0.57938 0.23836 0.56733 0.0
H511 H 0.62556 0.19503 0.64063 0.0
O512 O 0.60254 0.14252 0.59984 0.0
C513 C 0.54786 0.19396 0.65346 0.0
O514 O 0.53075 0.20799 0.63243 0.0
N515 N 0.56553 0.17677 0.55846 0.0
C516 C 0.56071 0.20451 0.50151 0.0
C517 C 0.58613 0.18448 0.50831 0.0
C518 C 0.58805 0.17054 0.5371 0.0
C519 C 0.5385 0.19214 0.55052 0.0
C520 C 0.53551 0.2062 0.52203 0.0
H521 H 0.6086 0.1568 0.54239 0.0
H522 H 0.52055 0.19628 0.56753 0.0
H523 H 0.56336 0.11009 0.56348 0.0
H524 H 0.4712 0.10219 0.5972 0.0
H525 H 0.62952 0.27196 0.58046 0.0
H526 H 0.60594 0.1823 0.4929 0.0
H527 H 0.5153 0.22113 0.51742 0.0
C528 C 0.74003 0.03488 0.1963 0.0
C529 C 0.71375 0.05476 0.19298 0.0
C530 C 0.7592 0.03596 0.22246 0.0
C531 C 0.75143 0.0567 0.24662 0.0
C532 C 0.72484 0.07688 0.24344 0.0
C533 C 0.70669 0.07611 0.2164 0.0
C534 C 0.78778 0.01474 0.22425 0.0
C535 C 0.71506 0.09863 0.26893 0.0
C536 C 0.78232 0.03027 0.3242 0.0
C537 C 0.808 0.0506 0.32906 0.0
C538 C 0.7631 0.03291 0.29817 0.0
C539 C 0.77022 0.05578 0.27568 0.0
C540 C 0.79625 0.07636 0.2804 0.0
C541 C 0.81443 0.07394 0.30732 0.0
C542 C 0.7351 0.01112 0.29476 0.0
C543 C 0.80537 0.10038 0.25666 0.0
H544 H 0.74604 0.01875 0.17804 0.0
H545 H 0.68648 0.09159 0.21391 0.0
H546 H 0.80908 0.02878 0.23006 0.0
H547 H 0.78452 0.99705 0.24257 0.0
H548 H 0.79216 1.00202 0.20254 0.0
H549 H 0.69413 0.11311 0.26283 0.0
H550 H 0.70943 0.08455 0.28951 0.0
H551 H 0.73478 0.11465 0.27504 0.0
H552 H 0.77677 0.01259 0.3412 0.0
H553 H 0.83414 0.0898 0.31102 0.0
H554 H 0.73879 0.9951 0.27511 0.0
H555 H 0.71342 0.025 0.29008 0.0
H556 H 0.73115 0.99653 0.31541 0.0
H557 H 0.81125 0.0882 0.23503 0.0
H558 H 0.82598 0.11483 0.26381 0.0
H559 H 0.78524 0.11636 0.25187 0.0
C560 C 0.43358 0.80932 0.2946 0.0
C561 C 0.45466 0.8012 0.31802 0.0
C562 C 0.43202 0.79141 0.26749 0.0
C563 C 0.45171 0.76455 0.26386 0.0
C564 C 0.47283 0.75625 0.28752 0.0
C565 C 0.47421 0.77471 0.31402 0.0
C566 C 0.4095 0.80134 0.24263 0.0
C567 C 0.4942 0.72784 0.28483 0.0
C568 C 0.4351 0.70196 0.20278 0.0
C569 C 0.45707 0.71018 0.18028 0.0
C570 C 0.43264 0.71965 0.22997 0.0
C571 C 0.4523 0.7464 0.23457 0.0
C572 C 0.47429 0.75481 0.21181 0.0
C573 C 0.47657 0.73656 0.18526 0.0
C574 C 0.4092 0.70963 0.25389 0.0
C575 C 0.49564 0.78313 0.21551 0.0
H576 H 0.41815 0.82949 0.29753 0.0
H577 H 0.4905 0.76795 0.33192 0.0
H578 H 0.42292 0.80718 0.22171 0.0
H579 H 0.39338 0.78158 0.23686 0.0
H580 H 0.39514 0.82217 0.24922 0.0
H581 H 0.5079 0.72342 0.306 0.0
H582 H 0.48009 0.70648 0.2795 0.0
H583 H 0.51105 0.73133 0.26583 0.0
H584 H 0.41975 0.68185 0.1991 0.0
H585 H 0.49357 0.74341 0.16809 0.0
H586 H 0.39285 0.72935 0.25905 0.0
H587 H 0.42181 0.70375 0.27533 0.0
H588 H 0.39513 0.6888 0.24667 0.0
H589 H 0.48139 0.80453 0.22027 0.0
H590 H 0.51024 0.78756 0.19498 0.0
H591 H 0.51166 0.77954 0.23522 0.0
C592 C 0.70667 0.45228 0.30783 0.0
C593 C 0.71773 0.47192 0.33126 0.0
C594 C 0.72274 0.4504 0.27975 0.0
C595 C 0.75077 0.46815 0.27522 0.0
C596 C 0.76241 0.48724 0.29915 0.0
C597 C 0.74568 0.48911 0.3266 0.0
C598 C 0.70931 0.4301 0.25464 0.0
C599 C 0.79228 0.50637 0.29557 0.0
C600 C 0.80663 0.45252 0.20838 0.0
C601 C 0.79819 0.4769 0.18834 0.0
C602 C 0.79108 0.44886 0.2366 0.0
C603 C 0.76624 0.46973 0.24467 0.0
C604 C 0.75749 0.49405 0.22431 0.0
C605 C 0.77369 0.4975 0.19674 0.0
C606 C 0.80142 0.42293 0.25791 0.0
C607 C 0.73106 0.51674 0.23172 0.0
H608 H 0.68532 0.43867 0.3113 0.0
H609 H 0.75485 0.50403 0.3446 0.0
H610 H 0.70183 0.44526 0.23534 0.0
H611 H 0.72761 0.41374 0.2459 0.0
H612 H 0.68867 0.41607 0.26235 0.0
H613 H 0.79975 0.51773 0.31722 0.0
H614 H 0.81179 0.49114 0.28736 0.0
H615 H 0.78856 0.52509 0.27829 0.0
H616 H 0.82527 0.43631 0.20202 0.0
H617 H 0.76665 0.51632 0.18148 0.0
H618 H 0.78105 0.40763 0.26369 0.0
H619 H 0.81019 0.43334 0.27952 0.0
H620 H 0.82037 0.40805 0.24797 0.0
H621 H 0.70927 0.50351 0.23745 0.0
H622 H 0.72574 0.53302 0.21257 0.0
H623 H 0.73752 0.53107 0.25194 0.0
C624 C 0.08618 0.70192 0.30576 0.0
C625 C 0.05648 0.70017 0.3198 0.0
C626 C 0.09113 0.72158 0.28028 0.0
C627 C 0.06575 0.73972 0.26847 0.0
C628 C 0.0356 0.73729 0.28213 0.0
C629 C 0.03139 0.71763 0.30749 0.0
C630 C 0.12363 0.72345 0.2664 0.0
C631 C 0.00774 0.75585 0.27021 0.0
C632 C 0.07505 0.81251 0.21782 0.0
C633 C 0.06572 0.80031 0.18957 0.0
C634 C 0.07685 0.79273 0.24367 0.0
C635 C 0.06973 0.76007 0.2409 0.0
C636 C 0.0625 0.74751 0.21188 0.0
C637 C 0.06034 0.76776 0.18675 0.0
C638 C 0.08464 0.80707 0.27421 0.0
C639 C 0.0553 0.71288 0.20757 0.0
H640 H 0.10583 0.68887 0.31532 0.0
H641 H 0.00838 0.7165 0.31819 0.0
H642 H 0.12248 0.71767 0.24178 0.0
H643 H 0.1328 0.74788 0.26836 0.0
H644 H 0.14062 0.70719 0.27762 0.0
H645 H 0.98603 0.75187 0.28382 0.0
H646 H 0.01326 0.78144 0.27045 0.0
H647 H 1.0028 0.74913 0.24625 0.0
H648 H 0.07941 0.83761 0.22 0.0
H649 H 0.05383 0.75808 0.16475 0.0
H650 H 0.10288 0.79285 0.28607 0.0
H651 H 0.06323 0.807 0.28872 0.0
H652 H 0.0932 0.83175 0.27211 0.0
H653 H 0.07369 0.69817 0.21864 0.0
H654 H 0.05378 0.70623 0.18314 0.0
H655 H 0.03244 0.70716 0.21855 0.0
C656 C 0.31433 0.93373 0.80898 0.0
C657 C 0.30691 0.95662 0.83093 0.0
C658 C 0.29649 0.93109 0.78183 0.0
C659 C 0.2704 0.9515 0.77674 0.0
C660 C 0.26279 0.9744 0.79896 0.0
C661 C 0.28118 0.97683 0.82544 0.0
C662 C 0.30567 0.90666 0.75849 0.0
C663 C 0.23518 0.99657 0.79474 0.0
C664 C 0.24248 0.97255 0.69695 0.0
C665 C 0.21516 0.95404 0.69345 0.0
C666 C 0.26111 0.971 0.72337 0.0
C667 C 0.25217 0.95076 0.74745 0.0
C668 C 0.22454 0.93205 0.74427 0.0
C669 C 0.20645 0.93376 0.71724 0.0
C670 C 0.29033 0.99134 0.72557 0.0
C671 C 0.21393 0.91048 0.76957 0.0
H672 H 0.33392 0.91782 0.81305 0.0
H673 H 0.27493 0.99455 0.84217 0.0
H674 H 0.28538 0.89089 0.75366 0.0
H675 H 0.31199 0.91845 0.73679 0.0
H676 H 0.326 0.89207 0.76608 0.0
H677 H 0.23126 0.01186 0.81494 0.0
H678 H 0.23929 0.01193 0.77469 0.0
H679 H 0.2133 0.98294 0.79027 0.0
H680 H 0.24972 0.9882 0.67875 0.0
H681 H 0.18564 0.91912 0.7147 0.0
H682 H 0.31116 0.9766 0.73128 0.0
H683 H 0.2875 0.00886 0.74413 0.0
H684 H 0.29523 1.00423 0.70407 0.0
H685 H 0.23319 0.89393 0.77574 0.0
H686 H 0.19267 0.89659 0.76322 0.0
H687 H 0.20848 0.9246 0.79018 0.0
C688 C 0.53261 0.26553 0.82128 0.0
C689 C 0.55282 0.29117 0.82713 0.0
C690 C 0.53386 0.24867 0.79379 0.0
C691 C 0.55564 0.25768 0.77103 0.0
C692 C 0.57613 0.2836 0.7766 0.0
C693 C 0.57458 0.29997 0.80463 0.0
C694 C 0.51155 0.22128 0.78903 0.0
C695 C 0.59948 0.2942 0.75283 0.0
C696 C 0.57086 0.19822 0.70676 0.0
C697 C 0.54964 0.20866 0.68434 0.0
C698 C 0.57358 0.21418 0.73494 0.0
C699 C 0.55493 0.2414 0.7407 0.0
C700 C 0.53368 0.25202 0.71803 0.0
C701 C 0.53115 0.23549 0.69044 0.0
C702 C 0.59623 0.20184 0.75865 0.0
C703 C 0.51338 0.28089 0.72295 0.0
H704 H 0.51575 0.25827 0.83842 0.0
H705 H 0.59052 0.31947 0.80897 0.0
H706 H 0.49518 0.22657 0.76995 0.0
H707 H 0.52498 0.19978 0.78272 0.0
H708 H 0.49732 0.21606 0.80963 0.0
H709 H 0.6149 0.27422 0.74616 0.0
H710 H 0.58669 0.30195 0.73207 0.0
H711 H 0.61454 0.31395 0.76097 0.0
H712 H 0.58548 0.17777 0.70223 0.0
H713 H 0.51474 0.24404 0.67338 0.0
H714 H 0.58306 0.1951 0.77946 0.0
H715 H 0.61319 0.2206 0.76525 0.0
H716 H 0.60968 0.181 0.75048 0.0
H717 H 0.4993 0.28711 0.70244 0.0
H718 H 0.52835 0.3014 0.72915 0.0
H719 H 0.49691 0.27675 0.74214 0.0
C720 C 0.3059 0.58829 0.70816 0.0
C721 C 0.31098 0.55724 0.69813 0.0
C722 C 0.28608 0.59462 0.73323 0.0
C723 C 0.27129 0.56926 0.74875 0.0
C724 C 0.27763 0.53787 0.73948 0.0
C725 C 0.2972 0.53232 0.71432 0.0
C726 C 0.27991 0.62844 0.74212 0.0
C727 C 0.26304 0.51002 0.75566 0.0
C728 C 0.24136 0.57204 0.82987 0.0
C729 C 0.20854 0.57093 0.82568 0.0
C730 C 0.26204 0.57418 0.80508 0.0
C731 C 0.24967 0.57482 0.77515 0.0
C732 C 0.21642 0.57603 0.77087 0.0
C733 C 0.19613 0.57412 0.7963 0.0
C734 C 0.29716 0.57338 0.81091 0.0
C735 C 0.20229 0.57722 0.73936 0.0
H736 H 0.31608 0.60773 0.69554 0.0
H737 H 0.30097 0.50828 0.70667 0.0
H738 H 0.28074 0.63139 0.76721 0.0
H739 H 0.29718 0.64487 0.73162 0.0
H740 H 0.25591 0.63528 0.73441 0.0
H741 H 0.27076 0.48709 0.74593 0.0
H742 H 0.26946 0.5105 0.78016 0.0
H743 H 0.23693 0.5114 0.75415 0.0
H744 H 0.25098 0.56987 0.85268 0.0
H745 H 0.17078 0.57324 0.79305 0.0
H746 H 0.30932 0.59171 0.79724 0.0
H747 H 0.30672 0.55013 0.80384 0.0
H748 H 0.30296 0.57712 0.83533 0.0
H749 H 0.21415 0.5956 0.7255 0.0
H750 H 0.17655 0.58218 0.73988 0.0
H751 H 0.20606 0.55424 0.72781 0.0
C752 C 0.98737 0.22942 0.81718 0.0
C753 C 0.96428 0.20746 0.82601 0.0
C754 C 0.98567 0.24527 0.78917 0.0
C755 C 0.96032 0.23903 0.76903 0.0
C756 C 0.93721 0.21635 0.7774 0.0
C757 C 0.93943 0.20085 0.80581 0.0
C758 C 0.01095 0.26904 0.7813 0.0
C759 C 0.90995 0.2088 0.75647 0.0
C760 C 0.94478 0.30121 0.70744 0.0
C761 C 0.96132 0.28864 0.68258 0.0
C762 C 0.94359 0.28505 0.73555 0.0
C763 C 0.95903 0.25548 0.73882 0.0
C764 C 0.97536 0.24259 0.71366 0.0
C765 C 0.97644 0.25932 0.68609 0.0
C766 C 0.92617 0.29978 0.76188 0.0
C767 C 0.99205 0.21118 0.71593 0.0
H768 H 0.00672 0.23477 0.83253 0.0
H769 H 0.92128 0.18425 0.81253 0.0
H770 H 0.02321 0.26182 0.76013 0.0
H771 H 1.00008 0.29243 0.77697 0.0
H772 H 0.02881 0.27164 0.79969 0.0
H773 H 0.89414 0.19042 0.76607 0.0
H774 H 0.8959 0.23043 0.75214 0.0
H775 H 0.91895 0.20049 0.73416 0.0
H776 H 0.93279 0.32365 0.70496 0.0
H777 H 0.9891 0.24909 0.66708 0.0
H778 H 0.94291 0.30465 0.78078 0.0
H779 H 0.90815 0.28315 0.77069 0.0
H780 H 0.91433 0.32219 0.75542 0.0
H781 H 0.01148 0.21273 0.73285 0.0
H782 H 1.00214 0.20351 0.69381 0.0
H783 H 0.97546 0.19276 0.724 0.0
C784 C 0.46123 0.02156 0.96478 0.0
C785 C 0.45302 0.99088 0.95547 0.0
C786 C 0.485 0.02692 0.98671 0.0
C787 C 0.50126 1.00103 0.99986 0.0
C788 C 0.4933 0.97002 0.99044 0.0
C789 C 0.46937 0.96533 0.96849 0.0
C790 C 0.49253 0.06039 0.99602 0.0
C791 C 0.51008 0.9417 1.00359 0.0
C792 C 0.58198 0.01786 0.0356 0.0
C793 C 0.57491 0.02 0.0668 0.0
C794 C 0.55846 0.01124 0.01377 0.0
C795 C 0.52682 0.00654 0.02312 0.0
C796 C 0.51958 0.00801 0.05463 0.0
C797 C 0.54362 0.01463 0.07603 0.0
C798 C 0.56747 0.00972 0.98056 0.0
C799 C 0.48622 1.00324 0.0657 0.0
H800 H 0.4486 0.04153 0.95543 0.0
H801 H 0.46358 0.94156 0.96138 0.0
H802 H 0.48871 0.06333 0.02084 0.0
H803 H 0.51775 0.06559 0.99149 0.0
H804 H 0.47781 0.07797 0.98373 0.0
H805 H 0.50114 0.91913 0.99402 0.0
H806 H 0.53576 0.94339 0.99899 0.0
H807 H 0.5071 0.94121 0.02868 0.0
H808 H 0.60607 0.02138 0.02816 0.0
H809 H 0.5377 0.01646 0.09992 0.0
H810 H 0.55475 0.02834 0.9677 0.0
H811 H 0.56032 0.98667 0.97075 0.0
H812 H 0.59323 0.01291 0.97703 0.0
H813 H 0.47069 0.02186 0.05613 0.0
H814 H 0.48455 1.00397 0.09093 0.0
H815 H 0.47701 0.98021 0.0576 0.0
C816 C 0.54154 0.46096 0.95526 0.0
C817 C 0.51941 0.43655 0.95199 0.0
C818 C 0.53652 0.486 0.97594 0.0
C819 C 0.50909 0.48632 0.99447 0.0
C820 C 0.487 0.46135 0.9916 0.0
C821 C 0.49225 0.43708 0.97028 0.0
C822 C 0.56041 0.51235 0.97769 0.0
C823 C 0.45786 0.46012 0.01129 0.0
C824 C 0.50924 0.53646 0.0672 0.0
C825 C 0.4906 0.56238 0.05869 0.0
C826 C 0.51529 0.51152 0.0467 0.0
C827 C 0.50316 0.51282 0.01657 0.0
C828 C 0.48466 0.5392 1.00778 0.0
C829 C 0.47834 0.56338 0.02897 0.0
C830 C 0.53441 0.48359 0.05741 0.0
C831 C 0.47177 0.54209 0.97583 0.0
H832 H 0.56252 0.4607 0.9412 0.0
H833 H 0.47534 0.41801 0.9684 0.0
H834 H 0.54879 0.53521 0.97254 0.0
H835 H 0.57012 0.51405 1.00111 0.0
H836 H 0.58028 0.5089 0.96157 0.0
H837 H 0.44353 0.43859 1.00706 0.0
H838 H 0.46468 0.46069 0.03569 0.0
H839 H 0.44289 0.48111 1.00694 0.0
H840 H 0.51873 0.53555 0.09011 0.0
H841 H 0.46445 0.5836 0.022 0.0
H842 H 0.55587 0.481 0.0432 0.0
H843 H 0.52043 0.46161 0.05474 0.0
H844 H 0.54173 0.48584 0.08161 0.0
H845 H 0.49135 0.54067 0.95915 0.0
H846 H 0.45886 0.5646 0.97222 0.0
H847 H 0.45549 0.52222 0.97096 0.0
C848 C 0.06613 0.53612 0.97984 0.0
C849 C 0.06128 0.53123 0.94854 0.0
C850 C 0.04204 0.53034 1.00117 0.0
C851 C 0.01198 0.51992 0.99107 0.0
C852 C 0.00692 0.515 0.95947 0.0
C853 C 0.03169 0.52038 0.93867 0.0
C854 C 0.04881 0.53536 0.03459 0.0
C855 C 0.97516 0.50453 0.94756 0.0
C856 C 0.95545 0.48149 0.04814 0.0
C857 C 0.93646 0.50707 0.05684 0.0
C858 C 0.98015 0.48527 0.02692 0.0
C859 C 0.98565 0.51523 0.0135 0.0
C860 C 0.96618 0.54099 0.02188 0.0
C861 C 0.94211 0.53667 0.04353 0.0
C862 C 1.00061 0.45727 0.01914 0.0
C863 C 0.97065 0.57319 1.00783 0.0
H864 H 0.08908 0.54392 0.98775 0.0
H865 H 0.02775 0.51668 0.91456 0.0
H866 H 0.03323 0.55413 0.04371 0.0
H867 H 0.04363 0.51346 0.04748 0.0
H868 H 0.07374 0.54219 0.03888 0.0
H869 H 0.97502 0.50163 0.92242 0.0
H870 H 0.96834 0.48179 0.95815 0.0
H871 H 0.95689 0.52211 0.95388 0.0
H872 H 0.95131 0.45861 0.05838 0.0
H873 H 0.92721 0.55644 0.04962 0.0
H874 H 0.0256 0.46259 0.02476 0.0
H875 H 0.99944 0.45246 0.99434 0.0
H876 H 0.99341 0.43563 0.03158 0.0
H877 H 0.99458 0.58226 0.01323 0.0
H878 H 0.95297 0.59055 0.01605 0.0
H879 H 0.96882 0.57151 0.98267 0.0
C880 C 0.98045 0.05379 0.96824 0.0
C881 C 1.00382 0.0757 0.96023 0.0
C882 C 0.98662 0.02941 0.98929 0.0
C883 C 0.01661 0.02749 1.00367 0.0
C884 C 0.04015 0.04987 0.99594 0.0
C885 C 0.03362 0.07337 0.9741 0.0
C886 C 0.96066 0.00611 0.99619 0.0
C887 C 0.07218 0.04924 0.01103 0.0
C888 C 0.02177 0.98193 0.07886 0.0
C889 C 0.03554 0.95333 0.06974 0.0
C890 C 0.0159 0.00636 0.05778 0.0
C891 C 0.02351 1.00206 0.02661 0.0
C892 C 0.03718 0.97311 0.01726 0.0
C893 C 0.04326 0.94931 0.03888 0.0
C894 C 1.00121 0.03671 0.06878 0.0
C895 C 0.04442 0.96687 0.98417 0.0
H896 H 0.95744 0.0554 0.95758 0.0
H897 H 0.05165 0.09048 0.96839 0.0
H898 H 0.96993 0.98274 1.00319 0.0
H899 H 0.94595 0.01551 0.01499 0.0
H900 H 0.94515 1.00263 0.97607 0.0
H901 H 0.08769 0.06868 1.00307 0.0
H902 H 0.06946 0.05117 0.03609 0.0
H903 H 0.08406 0.02643 1.00633 0.0
H904 H 0.01574 0.98524 0.10261 0.0
H905 H 0.05317 0.92707 0.03139 0.0
H906 H 0.97766 0.03976 0.05807 0.0
H907 H 0.01596 0.05711 0.06183 0.0
H908 H 0.99836 0.03718 0.09391 0.0
H909 H 0.02236 0.96847 0.97056 0.0
H910 H 0.0551 0.94322 0.98051 0.0
H911 H 0.06086 0.98504 0.97534 0.0
C912 C 0.44836 0.48781 0.54903 0.0
C913 C 0.44608 0.51609 0.56555 0.0
C914 C 0.47204 0.4833 0.52699 0.0
C915 C 0.49463 0.50735 0.52169 0.0
C916 C 0.49257 0.5359 0.5385 0.0
C917 C 0.4681 0.54007 0.55988 0.0
C918 C 0.4727 0.45285 0.50915 0.0
C919 C 0.51647 0.5619 0.53418 0.0
C920 C 0.57303 0.4824 0.48598 0.0
C921 C 0.56972 0.49288 0.45582 0.0
C922 C 0.54904 0.4873 0.50764 0.0
C923 C 0.52057 0.50241 0.49888 0.0
C924 C 0.51689 0.51254 0.46828 0.0
C925 C 0.54165 0.50806 0.44728 0.0
C926 C 0.55443 0.47676 0.54006 0.0
C927 C 0.48672 0.52797 0.45766 0.0
H928 H 0.43108 0.4694 0.55287 0.0
H929 H 0.46647 0.5619 0.57263 0.0
H930 H 0.47152 0.45796 0.4844 0.0
H931 H 0.49521 0.44022 0.51342 0.0
H932 H 0.45283 0.43694 0.51519 0.0
H933 H 0.512 0.58238 0.54937 0.0
H934 H 0.54056 0.55276 0.53881 0.0
H935 H 0.51608 0.57019 0.51024 0.0
H936 H 0.59489 0.47119 0.49288 0.0
H937 H 0.53901 0.51615 0.42402 0.0
H938 H 0.5363 0.45919 0.54666 0.0
H939 H 0.552 0.49718 0.55571 0.0
H940 H 0.57814 0.4661 0.54341 0.0
H941 H 0.46637 0.51221 0.46228 0.0
H942 H 0.48712 0.53356 0.43296 0.0
H943 H 0.48268 0.55014 0.47052 0.0
C944 C 0.02832 0.43747 0.54453 0.0
C945 C 0.99973 0.43629 0.56066 0.0
C946 C 0.03435 0.46134 0.52298 0.0
C947 C 0.01148 0.48511 0.51754 0.0
C948 C 0.98272 0.4843 0.53404 0.0
C949 C 0.9771 0.45982 0.55512 0.0
C950 C 0.06506 0.4608 0.50561 0.0
C951 C 0.95784 0.50934 0.52942 0.0
C952 C 0.03926 0.56231 0.48105 0.0
C953 C 0.02905 0.5589 0.45077 0.0
C954 C 0.03351 0.53871 0.50297 0.0
C955 C 0.01759 0.5106 0.49446 0.0
C956 C 0.00769 0.50682 0.46379 0.0
C957 C 0.01324 0.53107 0.44247 0.0
C958 C 0.04406 0.54409 0.5354 0.0
C959 C 0.99123 0.47709 0.45345 0.0
H960 H 0.04573 0.41915 0.54812 0.0
H961 H 0.95504 0.4592 0.56753 0.0
H962 H 0.06021 0.45913 0.48082 0.0
H963 H 0.07821 0.48307 0.50949 0.0
H964 H 0.08038 0.44069 0.51236 0.0
H965 H 0.93712 0.50589 0.54452 0.0
H966 H 0.96804 0.53301 0.53391 0.0
H967 H 0.94961 0.50915 0.50543 0.0
H968 H 0.05099 0.58391 0.48784 0.0
H969 H 1.00544 0.52818 0.41913 0.0
H970 H 0.06071 0.52526 0.54247 0.0
H971 H 0.02343 0.54288 0.55087 0.0
H972 H 0.05581 0.56732 0.53848 0.0
H973 H 0.00627 0.45626 0.45836 0.0
H974 H 0.98568 0.47742 0.42872 0.0
H975 H 0.96891 0.47397 0.46626 0.0
C976 C 0.97744 0.00819 0.44723 0.0
C977 C 0.94628 0.01428 0.45648 0.0
C978 C 1.00142 1.00129 0.46861 0.0
C979 C 0.99428 1.00036 0.50015 0.0
C980 C 0.96277 1.00579 0.50955 0.0
C981 C 0.9393 0.01258 0.48773 0.0
C982 C 0.03462 0.99563 0.45747 0.0
C983 C 0.95388 1.00494 0.54281 0.0
C984 C 0.05118 0.95925 0.55542 0.0
C985 C 0.06812 0.98476 0.56785 0.0
C986 C 0.0273 0.96389 0.53341 0.0
C987 C 0.01986 0.99483 0.52341 0.0
C988 C 0.03669 0.02068 0.53597 0.0
C989 C 0.06048 0.01537 0.55789 0.0
C990 C 0.01 0.93559 0.52082 0.0
C991 C 0.02969 0.05409 0.52609 0.0
H992 H 0.98335 0.00962 0.42331 0.0
H993 H 0.91531 0.0166 0.49524 0.0
H994 H 0.05055 0.01417 0.46658 0.0
H995 H 0.04344 0.97262 0.46598 0.0
H996 H 0.03615 0.99577 0.43222 0.0
H997 H 0.9282 0.00866 0.5464 0.0
H998 H 0.96064 0.98191 0.5529 0.0
H999 H 0.967 0.02351 0.55537 0.0
H1000 H 0.05644 0.93552 0.56302 0.0
H1001 H 0.07351 0.03533 0.56673 0.0
H1002 H 0.0127 0.93466 0.49572 0.0
H1003 H 0.98439 0.93771 0.52565 0.0
H1004 H 0.01873 0.91305 0.53063 0.0
H1005 H 0.03347 0.05647 0.50121 0.0
H1006 H 0.04475 0.07166 0.53802 0.0
H1007 H 1.00458 0.0598 0.53061 0.0
C1008 C 0.49695 0.97577 0.43503 0.0
C1009 C 0.48114 0.94806 0.44354 0.0
C1010 C 0.50261 1.0002 0.45622 0.0
C1011 C 0.49296 0.99662 0.48694 0.0
C1012 C 0.4774 0.96843 0.49571 0.0
C1013 C 0.47136 0.94476 0.47391 0.0
C1014 C 0.51889 0.02991 0.4457 0.0
C1015 C 0.46779 0.96293 0.52835 0.0
C1016 C 0.53367 0.04814 0.54715 0.0
C1017 C 0.51039 0.07072 0.55355 0.0
C1018 C 0.52818 0.0236 0.52605 0.0
C1019 C 0.4991 0.02224 0.50995 0.0
C1020 C 0.47573 0.04536 0.51602 0.0
C1021 C 0.48147 0.06895 0.53799 0.0
C1022 C 0.55374 0.99938 0.52096 0.0
C1023 C 0.44476 0.04544 0.49897 0.0
H1024 H 0.50452 0.97848 0.41163 0.0
H1025 H 0.45971 0.92317 0.48083 0.0
H1026 H 0.50431 0.05083 0.45145 0.0
H1027 H 0.54178 0.03253 0.45773 0.0
H1028 H 0.52335 0.02985 0.42079 0.0
H1029 H 0.45646 0.93954 0.53166 0.0
H1030 H 0.48885 0.96444 0.54336 0.0
H1031 H 0.45108 0.98153 0.53578 0.0
H1032 H 0.55604 0.04938 0.5591 0.0
H1033 H 0.46358 0.08662 0.54245 0.0
H1034 H 0.56735 1.0058 0.50032 0.0
H1035 H 0.54369 0.97549 0.51737 0.0
H1036 H 0.57038 0.99833 0.54049 0.0
H1037 H 0.4492 0.04677 0.47411 0.0
H1038 H 0.42941 0.06554 0.50563 0.0
H1039 H 0.43183 0.02314 0.50329 0.0
C1040 C 0.54809 0.29007 0.06157 0.0
C1041 C 0.57325 0.29954 0.04301 0.0
C1042 C 0.55188 0.26526 0.08245 0.0
C1043 C 0.58096 0.24888 0.08347 0.0
C1044 C 0.60737 0.26096 0.06746 0.0
C1045 C 0.60326 0.28662 0.04786 0.0
C1046 C 0.52379 0.25464 0.10079 0.0
C1047 C 0.63891 0.24419 0.0677 0.0
C1048 C 0.61046 0.17671 0.12417 0.0
C1049 C 0.60692 0.15457 0.10069 0.0
C1050 C 0.59793 0.20728 0.12099 0.0
C1051 C 0.58224 0.21552 0.09364 0.0
C1052 C 0.57501 0.19181 0.07196 0.0
C1053 C 0.58731 0.16153 0.07594 0.0
C1054 C 0.60338 0.23141 0.14566 0.0
C1055 C 0.55796 0.19925 0.04254 0.0
H1056 H 0.52495 0.30046 0.05821 0.0
H1057 H 0.62278 0.29399 0.0336 0.0
H1058 H 0.50864 0.23912 0.08661 0.0
H1059 H 0.53102 0.24139 0.12145 0.0
H1060 H 0.50928 0.27525 0.10772 0.0
H1061 H 0.65676 0.2563 0.05339 0.0
H1062 H 0.64809 0.24257 0.09131 0.0
H1063 H 0.6362 0.21977 0.05895 0.0
H1064 H 0.62508 0.17108 0.14372 0.0
H1065 H 0.58383 0.14401 0.05822 0.0
H1066 H 0.58034 0.24088 0.1534 0.0
H1067 H 0.61708 0.25161 0.13664 0.0
H1068 H 0.61611 0.22134 0.16555 0.0
H1069 H 0.53548 0.21165 0.04725 0.0
H1070 H 0.5526 0.17769 0.02909 0.0
H1071 H 0.57274 0.21509 0.02836 0.0
C1072 C 0.25782 0.54002 0.02074 0.0
C1073 C 0.22604 0.54356 0.02903 0.0
C1074 C 0.28203 0.55004 0.04008 0.0
C1075 C 0.27421 0.56346 0.0686 0.0
C1076 C 0.2428 0.56148 0.0793 0.0
C1077 C 0.21879 0.55212 0.05909 0.0
C1078 C 0.31538 0.55072 0.02793 0.0
C1079 C 0.23405 0.57249 0.11081 0.0
C1080 C 0.34884 0.59962 0.10021 0.0
C1081 C 0.34698 0.62962 0.0869 0.0
C1082 C 0.32334 0.57846 0.09799 0.0
C1083 C 0.29607 0.58743 0.08139 0.0
C1084 C 0.29302 0.6189 0.07085 0.0
C1085 C 0.31836 0.63962 0.07413 0.0
C1086 C 0.3267 0.54607 0.11179 0.0
C1087 C 0.26426 0.63008 0.0534 0.0
H1088 H 0.26386 0.53314 0.99771 0.0
H1089 H 0.19432 0.55382 0.06608 0.0
H1090 H 0.32263 0.57551 0.02369 0.0
H1091 H 0.33194 0.54055 0.04482 0.0
H1092 H 0.31777 0.53732 1.00631 0.0
H1093 H 0.21382 0.55865 0.11972 0.0
H1094 H 0.25426 0.57032 0.12682 0.0
H1095 H 0.22672 0.5976 0.10998 0.0
H1096 H 0.37059 0.59208 0.11104 0.0
H1097 H 0.31627 0.6633 0.06501 0.0
H1098 H 0.34252 0.53153 0.09739 0.0
H1099 H 0.30368 0.53382 0.1141 0.0
H1100 H 0.33792 0.54781 0.13462 0.0
H1101 H 0.26106 0.6157 0.03249 0.0
H1102 H 0.26602 0.65526 0.04658 0.0
H1103 H 0.2428 0.62731 0.0675 0.0
C1104 C 0.92867 0.2336 0.0588 0.0
C1105 C 0.94396 0.2385 0.03092 0.0
C1106 C 0.91637 0.25919 0.07534 0.0
C1107 C 0.91868 0.29001 0.06311 0.0
C1108 C 0.93696 0.29529 0.03669 0.0
C1109 C 0.94957 0.26948 0.02107 0.0
C1110 C 0.89842 0.25288 0.10433 0.0
C1111 C 0.93986 0.3277 0.02262 0.0
C1112 C 0.84771 0.34341 0.06362 0.0
C1113 C 0.85853 0.36904 0.08093 0.0
C1114 C 0.86642 0.31667 0.05929 0.0
C1115 C 0.89661 0.31514 0.07312 0.0
C1116 C 0.90671 0.3398 0.09263 0.0
C1117 C 0.88766 0.36675 0.09604 0.0
C1118 C 0.85459 0.291 0.0382 0.0
C1119 C 0.93814 0.33848 0.10877 0.0
H1120 H 0.92467 0.20971 0.06673 0.0
H1121 H 0.9611 0.27355 0.99941 0.0
H1122 H 0.90209 0.27219 0.12104 0.0
H1123 H 0.87279 0.25157 0.09923 0.0
H1124 H 0.90568 0.23016 0.11483 0.0
H1125 H 0.95772 0.32834 1.00415 0.0
H1126 H 0.91671 0.33479 0.01289 0.0
H1127 H 0.94642 0.34543 0.04007 0.0
H1128 H 0.82496 0.34464 0.05235 0.0
H1129 H 0.89592 0.38623 0.10993 0.0
H1130 H 0.85524 0.2678 0.04981 0.0
H1131 H 0.87015 0.28942 0.01795 0.0
H1132 H 0.83005 0.29533 0.03026 0.0
H1133 H 0.94414 0.31398 0.11558 0.0
H1134 H 0.93828 0.35374 0.12934 0.0
H1135 H 0.9569 0.34703 0.09325 0.0
C1136 C 0.26437 0.96318 0.03148 0.0
C1137 C 0.29621 0.95716 0.03838 0.0
C1138 C 0.24019 0.95134 0.04973 0.0
C1139 C 0.24803 0.93317 0.07563 0.0
C1140 C 0.27979 0.93153 0.0855 0.0
C1141 C 0.30371 0.94334 0.06654 0.0
C1142 C 0.20652 0.9543 0.03859 0.0
C1143 C 0.28875 0.91431 0.11428 0.0
C1144 C 0.17331 0.89854 0.10846 0.0
C1145 C 0.17136 0.87046 0.09163 0.0
C1146 C 0.20005 0.91804 0.1063 0.0
C1147 C 0.22472 0.90953 0.08621 0.0
C1148 C 0.22385 0.87994 0.07118 0.0
C1149 C 0.19737 0.86067 0.07441 0.0
C1150 C 0.20075 0.94848 0.12408 0.0
C1151 C 0.24957 0.86972 0.04944 0.0
H1152 H 0.25793 0.9739 0.00997 0.0
H1153 H 0.32821 0.93962 0.07272 0.0
H1154 H 0.19834 0.93114 0.02975 0.0
H1155 H 0.19068 0.96117 0.05749 0.0
H1156 H 0.20412 0.97202 0.02009 0.0
H1157 H 0.3116 0.92303 0.12346 0.0
H1158 H 0.27025 0.91704 0.13195 0.0
H1159 H 0.29134 0.88877 0.10934 0.0
H1160 H 0.15362 0.90586 0.12251 0.0
H1161 H 0.19647 0.83855 0.06203 0.0
H1162 H 0.18748 0.96684 0.11143 0.0
H1163 H 0.2252 0.95705 0.12786 0.0
H1164 H 0.18905 0.94544 0.1465 0.0
H1165 H 0.25057 0.8862 0.02982 0.0
H1166 H 0.24571 0.8455 0.04049 0.0
H1167 H 0.27287 0.87034 0.06093 0.0
C1168 C 0.6204 0.35512 0.41043 0.0
C1169 C 0.65064 0.35546 0.42345 0.0
C1170 C 0.60107 0.32826 0.413 0.0
C1171 C 0.61205 0.30189 0.42976 0.0
C1172 C 0.64371 0.30111 0.44013 0.0
C1173 C 0.66268 0.32775 0.43645 0.0
C1174 C 0.5683 0.32904 0.39957 0.0
C1175 C 0.65679 0.27338 0.45778 0.0
C1176 C 0.56251 0.26102 0.4881 0.0
C1177 C 0.56479 0.22959 0.47844 0.0
C1178 C 0.57511 0.28553 0.47072 0.0
C1179 C 0.58958 0.27851 0.44248 0.0
C1180 C 0.58818 0.24738 0.43077 0.0
C1181 C 0.57646 0.223 0.44929 0.0
C1182 C 0.57637 0.31823 0.48448 0.0
C1183 C 0.60131 0.23923 0.39988 0.0
H1184 H 0.61127 0.37617 0.39951 0.0
H1185 H 0.68651 0.32737 0.44549 0.0
H1186 H 0.5602 0.30505 0.39305 0.0
H1187 H 0.55157 0.33866 0.41659 0.0
H1188 H 0.56741 0.34457 0.37921 0.0
H1189 H 0.68214 0.2764 0.46363 0.0
H1190 H 0.64334 0.27028 0.47924 0.0
H1191 H 0.65426 0.2514 0.44435 0.0
H1192 H 0.55377 0.26622 0.51074 0.0
H1193 H 0.57789 0.19872 0.44161 0.0
H1194 H 0.56718 0.33593 0.46818 0.0
H1195 H 0.60124 0.32453 0.48971 0.0
H1196 H 0.56247 0.31999 0.50584 0.0
H1197 H 0.60108 0.25987 0.38433 0.0
H1198 H 0.58755 0.21975 0.38932 0.0
H1199 H 0.62601 0.23094 0.40236 0.0
C1200 C 0.16544 0.60313 0.40931 0.0
C1201 C 0.16741 0.63471 0.41872 0.0
C1202 C 0.1904 0.5821 0.41512 0.0
C1203 C 0.21717 0.59286 0.43145 0.0
C1204 C 0.22057 0.62543 0.43786 0.0
C1205 C 0.19579 0.64598 0.43105 0.0
C1206 C 0.18699 0.548 0.40586 0.0
C1207 C 0.24896 0.63822 0.45478 0.0
C1208 C 0.25065 0.54861 0.4977 0.0
C1209 C 0.28248 0.54615 0.48932 0.0
C1210 C 0.2282 0.56086 0.47764 0.0
C1211 C 0.23766 0.57029 0.44812 0.0
C1212 C 0.2688 0.564 0.43816 0.0
C1213 C 0.29114 0.55251 0.45913 0.0
C1214 C 0.19534 0.56734 0.48952 0.0
C1215 C 0.27936 0.57174 0.40627 0.0
H1216 H 0.14391 0.59444 0.3989 0.0
H1217 H 0.19796 0.67065 0.43727 0.0
H1218 H 0.21029 0.53722 0.40087 0.0
H1219 H 0.17596 0.53451 0.42467 0.0
H1220 H 0.17156 0.54565 0.3855 0.0
H1221 H 0.24825 0.66431 0.45718 0.0
H1222 H 0.25013 0.6277 0.4779 0.0
H1223 H 0.27095 0.63178 0.44269 0.0
H1224 H 0.24374 0.54403 0.52103 0.0
H1225 H 0.31562 0.55014 0.45237 0.0
H1226 H 0.17731 0.55785 0.47367 0.0
H1227 H 0.19158 0.5932 0.49129 0.0
H1228 H 0.19133 0.55676 0.51233 0.0
H1229 H 0.25935 0.57149 0.38991 0.0
H1230 H 0.29757 0.55471 0.39849 0.0
H1231 H 0.2902 0.59556 0.40598 0.0
C1232 C 0.89934 0.17385 0.39687 0.0
C1233 C 0.90743 0.15361 0.42094 0.0
C1234 C 0.90632 0.20624 0.39847 0.0
C1235 C 0.92167 0.21827 0.42469 0.0
C1236 C 0.93311 0.19715 0.4472 0.0
C1237 C 0.92595 0.16506 0.4449 0.0
C1238 C 0.89463 0.22754 0.37337 0.0
C1239 C 0.94981 0.20872 0.47557 0.0
C1240 C 0.9519 0.29706 0.4493 0.0
C1241 C 0.92809 0.30529 0.46997 0.0
C1242 C 0.94812 0.27098 0.42989 0.0
C1243 C 0.92054 0.25236 0.43233 0.0
C1244 C 0.89478 0.26342 0.44982 0.0
C1245 C 0.89876 0.29011 0.46819 0.0
C1246 C 0.97507 0.2612 0.40963 0.0
C1247 C 0.86468 0.24455 0.45269 0.0
H1248 H 0.88547 0.16501 0.37795 0.0
H1249 H 0.9328 0.14927 0.46318 0.0
H1250 H 0.86909 0.23214 0.37664 0.0
H1251 H 0.90728 0.25047 0.37292 0.0
H1252 H 0.89733 0.21583 0.35089 0.0
H1253 H 0.95861 0.18901 0.48994 0.0
H1254 H 0.97014 0.22387 0.46944 0.0
H1255 H 0.93336 0.22317 0.48943 0.0
H1256 H 0.97439 0.30923 0.45019 0.0
H1257 H 0.88017 0.29653 0.48396 0.0
H1258 H 0.96616 0.25013 0.38837 0.0
H1259 H 0.98992 0.2436 0.42166 0.0
H1260 H 0.99021 0.28169 0.40371 0.0
H1261 H 0.85566 0.23797 0.42985 0.0
H1262 H 0.84599 0.25775 0.46497 0.0
H1263 H 0.86947 0.22239 0.46535 0.0
C1264 C 0.34292 0.91306 0.42122 0.0
C1265 C 0.34124 0.88928 0.39924 0.0
C1266 C 0.31529 0.92779 0.43148 0.0
C1267 C 0.28588 0.91877 0.41873 0.0
C1268 C 0.28525 0.89962 0.39238 0.0
C1269 C 0.313 0.88425 0.38339 0.0
C1270 C 0.31713 0.94886 0.45912 0.0
C1271 C 0.2546 0.8915 0.37675 0.0
C1272 C 0.22729 0.89764 0.47983 0.0
C1273 C 0.20999 0.92559 0.48276 0.0
C1274 C 0.2511 0.89481 0.45809 0.0
C1275 C 0.25729 0.92039 0.43814 0.0
C1276 C 0.2381 0.94771 0.43925 0.0
C1277 C 0.21496 0.95025 0.46202 0.0
C1278 C 0.27116 0.86526 0.4582 0.0
C1279 C 0.24282 0.97497 0.41768 0.0
H1280 H 0.36495 0.91703 0.43326 0.0
H1281 H 0.3119 0.866 0.36611 0.0
H1282 H 0.30143 0.96959 0.45639 0.0
H1283 H 0.30909 0.93554 0.47944 0.0
H1284 H 0.34158 0.95729 0.46339 0.0
H1285 H 0.25863 0.88418 0.35279 0.0
H1286 H 0.24311 0.87166 0.38892 0.0
H1287 H 0.23817 0.91191 0.37707 0.0
H1288 H 0.22387 0.87876 0.49615 0.0
H1289 H 0.20151 0.97189 0.46425 0.0
H1290 H 0.2959 0.87135 0.46414 0.0
H1291 H 0.27135 0.85431 0.4353 0.0
H1292 H 0.2626 0.84737 0.47473 0.0
H1293 H 0.25845 0.99272 0.42856 0.0
H1294 H 0.21997 0.98676 0.41267 0.0
H1295 H 0.25372 0.96743 0.39592 0.0
C1296 C 0.47074 0.72436 0.95377 0.0
C1297 C 0.4464 0.70565 0.96583 0.0
C1298 C 0.46368 0.75143 0.93664 0.0
C1299 C 0.43173 0.75938 0.93138 0.0
C1300 C 0.40788 0.73704 0.93793 0.0
C1301 C 0.41549 0.71036 0.95516 0.0
C1302 C 0.48999 0.77379 0.92848 0.0
C1303 C 0.37352 0.74392 0.93183 0.0
C1304 C 0.40021 0.83823 0.95555 0.0
C1305 C 0.3897 0.85063 0.92793 0.0
C1306 C 0.41674 0.80977 0.95654 0.0
C1307 C 0.42236 0.79305 0.92908 0.0
C1308 C 0.414 0.80683 0.9008 0.0
C1309 C 0.39763 0.83572 0.90055 0.0
C1310 C 0.42565 0.79638 0.98731 0.0
C1311 C 0.41988 0.79006 0.87107 0.0
H1312 H 0.49497 0.71996 0.96052 0.0
H1313 H 0.39635 0.69586 0.96356 0.0
H1314 H 0.48443 0.78714 0.90742 0.0
H1315 H 0.49325 0.79104 0.94726 0.0
H1316 H 0.51261 0.76094 0.92534 0.0
H1317 H 0.35942 0.72185 0.93043 0.0
H1318 H 0.36398 0.75844 0.95074 0.0
H1319 H 0.37049 0.75733 0.91042 0.0
H1320 H 0.39402 0.85008 0.97662 0.0
H1321 H 0.38914 0.84542 0.8792 0.0
H1322 H 0.45072 0.78889 0.98747 0.0
H1323 H 0.41098 0.7753 0.99222 0.0
H1324 H 0.42213 0.8137 1.006 0.0
H1325 H 0.44192 0.77596 0.87188 0.0
H1326 H 0.42132 0.80705 0.85187 0.0
H1327 H 0.40004 0.77368 0.86635 0.0
C1328 C 0.77984 0.471 0.94968 0.0
C1329 C 0.77113 0.47886 0.97953 0.0
C1330 C 0.75775 0.45758 0.92955 0.0
C1331 C 0.72699 0.45068 0.94018 0.0
C1332 C 0.71716 0.46237 0.96883 0.0
C1333 C 0.7393 0.47666 0.98799 0.0
C1334 C 0.76826 0.44804 0.8981 0.0
C1335 C 0.68448 0.45594 0.98112 0.0
C1336 C 0.65811 0.40678 0.90559 0.0
C1337 C 0.66347 0.37662 0.91767 0.0
C1338 C 0.68065 0.43086 0.90932 0.0
C1339 C 0.70844 0.42465 0.92631 0.0
C1340 C 0.71518 0.3934 0.93577 0.0
C1341 C 0.69282 0.36975 0.93085 0.0
C1342 C 0.6735 0.46322 0.89686 0.0
C1343 C 0.74452 0.38533 0.95387 0.0
H1344 H 0.80426 0.47337 0.94275 0.0
H1345 H 0.73229 0.48271 0.01099 0.0
H1346 H 0.7786 0.42402 0.89887 0.0
H1347 H 0.74814 0.4478 0.88185 0.0
H1348 H 0.78672 0.46435 0.8895 0.0
H1349 H 0.68006 0.46835 1.00299 0.0
H1350 H 0.6663 0.4635 0.9645 0.0
H1351 H 0.68149 0.43022 0.98495 0.0
H1352 H 0.63579 0.41207 0.8946 0.0
H1353 H 0.69761 0.34617 0.93926 0.0
H1354 H 0.69514 0.47772 0.89422 0.0
H1355 H 0.6571 0.47563 0.91246 0.0
H1356 H 0.66151 0.46131 0.87442 0.0
H1357 H 0.76594 0.39226 0.94111 0.0
H1358 H 0.74623 0.35974 0.9591 0.0
H1359 H 0.74458 0.39855 0.97571 0.0
C1360 C 0.04452 0.76164 0.9921 0.0
C1361 C 0.05133 0.79315 0.98467 0.0
C1362 C 0.05599 0.73682 0.97434 0.0
C1363 C 0.07446 0.74376 0.94844 0.0
C1364 C 0.07653 0.77521 0.93788 0.0
C1365 C 0.06507 0.79975 0.95631 0.0
C1366 C 0.05251 0.7035 0.98609 0.0
C1367 C 0.09416 0.78321 0.90913 0.0
C1368 C 0.14762 0.6936 0.9496 0.0
C1369 C 0.13867 0.66806 0.93127 0.0
C1370 C 0.12763 0.71943 0.95367 0.0
C1371 C 0.09804 0.72006 0.93854 0.0
C1372 C 0.08994 0.6956 0.918 0.0
C1373 C 0.11024 0.66958 0.91488 0.0
C1374 C 0.13746 0.74502 0.9758 0.0
C1375 C 0.05932 0.6959 0.90041 0.0
H1376 H 0.03371 0.75596 0.01374 0.0
H1377 H 0.06938 0.82403 0.94978 0.0
H1378 H 0.04644 0.68712 0.9673 0.0
H1379 H 0.07529 0.69561 0.99606 0.0
H1380 H 0.03404 0.70168 1.00391 0.0
H1381 H 0.08642 0.8063 0.89974 0.0
H1382 H 0.11979 0.78476 0.91417 0.0
H1383 H 0.09071 0.76465 0.89159 0.0
H1384 H 0.16985 0.69295 0.96185 0.0
H1385 H 0.10347 0.6502 0.90013 0.0
H1386 H 0.12069 0.74591 0.99516 0.0
H1387 H 0.13696 0.76838 0.96445 0.0
H1388 H 0.16159 0.7412 0.98507 0.0
H1389 H 0.04122 0.68249 0.91323 0.0
H1390 H 0.06224 0.68419 0.87795 0.0
H1391 H 0.05042 0.72023 0.89671 0.0
C1392 C 0.78184 0.01844 0.00989 0.0
C1393 C 0.78267 0.03644 0.03678 0.0
C1394 C 0.80144 0.02597 0.98514 0.0
C1395 C 0.82213 0.05204 0.98751 0.0
C1396 C 0.82615 0.06729 0.01594 0.0
C1397 C 0.80633 0.05938 0.04016 0.0
C1398 C 0.79776 0.00795 0.95575 0.0
C1399 C 0.84876 0.09461 0.01984 0.0
C1400 C 0.88076 0.08821 0.93379 0.0
C1401 C 0.86381 0.11522 0.92516 0.0
C1402 C 0.86626 0.06443 0.95109 0.0
C1403 C 0.83436 0.06806 0.95987 0.0
C1404 C 0.81613 0.09278 0.94711 0.0
C1405 C 0.8311 0.11599 0.92973 0.0
C1406 C 0.88615 0.03752 0.96266 0.0
C1407 C 0.78173 0.09718 0.95508 0.0
H1408 H 0.76435 0.99996 1.00734 0.0
H1409 H 0.80745 0.07356 0.06065 0.0
H1410 H 0.78021 0.02008 0.94107 0.0
H1411 H 0.82039 0.00676 0.94311 0.0
H1412 H 0.78913 0.98359 0.95996 0.0
H1413 H 0.85138 0.10173 0.04407 0.0
H1414 H 0.8724 0.08838 0.01088 0.0
H1415 H 0.84003 0.11527 1.00677 0.0
H1416 H 0.90586 0.08681 0.9294 0.0
H1417 H 0.81762 0.13629 0.92213 0.0
H1418 H 0.87168 0.01674 0.96905 0.0
H1419 H 0.8995 0.04545 0.98304 0.0
H1420 H 0.90355 0.03026 0.94512 0.0
H1421 H 0.76875 0.07457 0.95304 0.0
H1422 H 0.77007 0.11496 0.94024 0.0
H1423 H 0.77978 0.10524 0.97906 0.0
C1424 C 0.44682 0.78634 0.54535 0.0
C1425 C 0.42229 0.79951 0.52794 0.0
C1426 C 0.44143 0.75984 0.56385 0.0
C1427 C 0.41091 0.74633 0.56468 0.0
C1428 C 0.38545 0.76184 0.55005 0.0
C1429 C 0.39146 0.78826 0.53197 0.0
C1430 C 0.46903 0.74455 0.57978 0.0
C1431 C 0.35245 0.74831 0.54986 0.0
C1432 C 0.394 0.65968 0.55956 0.0
C1433 C 0.37885 0.6545 0.58727 0.0
C1434 C 0.408 0.68883 0.55324 0.0
C1435 C 0.40618 0.71337 0.57511 0.0
C1436 C 0.39347 0.70715 0.60429 0.0
C1437 C 0.37975 0.67756 0.61005 0.0
C1438 C 0.42159 0.69431 0.52192 0.0
C1439 C 0.39164 0.73263 0.62821 0.0
H1440 H 0.47063 0.79534 0.5429 0.0
H1441 H 0.37226 0.79793 0.51855 0.0
H1442 H 0.46177 0.73368 0.60164 0.0
H1443 H 0.47872 0.7256 0.56509 0.0
H1444 H 0.48819 0.76186 0.58425 0.0
H1445 H 0.33448 0.7669 0.54557 0.0
H1446 H 0.3506 0.73054 0.53137 0.0
H1447 H 0.34678 0.73639 0.57158 0.0
H1448 H 0.393 0.64166 0.54204 0.0
H1449 H 0.36765 0.67334 0.63139 0.0
H1450 H 0.44459 0.70669 0.52352 0.0
H1451 H 0.40532 0.70951 0.50858 0.0
H1452 H 0.42505 0.67189 0.50924 0.0
H1453 H 0.41551 0.74244 0.63256 0.0
H1454 H 0.38172 0.7238 0.64999 0.0
H1455 H 0.37669 0.75232 0.61988 0.0
C1456 C 0.73306 0.47171 0.56414 0.0
C1457 C 0.72173 0.44844 0.54423 0.0
C1458 C 0.75763 0.46495 0.58473 0.0
C1459 C 0.77191 0.43472 0.58417 0.0
C1460 C 0.75902 0.41066 0.56542 0.0
C1461 C 0.73381 0.41776 0.54614 0.0
C1462 C 0.76909 0.49079 0.60561 0.0
C1463 C 0.77352 0.37805 0.5635 0.0
C1464 C 0.85745 0.41595 0.58736 0.0
C1465 C 0.85648 0.39166 0.60881 0.0
C1466 C 0.83065 0.43446 0.58192 0.0
C1467 C 0.80286 0.42869 0.59897 0.0
C1468 C 0.80419 0.40852 0.62459 0.0
C1469 C 0.83082 0.38931 0.62866 0.0
C1470 C 0.8306 0.45637 0.55484 0.0
C1471 C 0.776 0.40399 0.645 0.0
H1472 H 0.72356 0.49543 0.56285 0.0
H1473 H 0.72538 0.3998 0.53051 0.0
H1474 H 0.7832 0.48156 0.62497 0.0
H1475 H 0.78377 0.50762 0.59249 0.0
H1476 H 0.74872 0.50427 0.61476 0.0
H1477 H 0.76102 0.36253 0.54702 0.0
H1478 H 0.7986 0.37979 0.55643 0.0
H1479 H 0.77292 0.3664 0.58606 0.0
H1480 H 0.87757 0.41774 0.57223 0.0
H1481 H 0.83031 0.37056 0.64546 0.0
H1482 H 0.8202 0.47945 0.5611 0.0
H1483 H 0.81592 0.44608 0.53636 0.0
H1484 H 0.85476 0.46043 0.54584 0.0
H1485 H 0.76205 0.42609 0.64683 0.0
H1486 H 0.78345 0.39638 0.66813 0.0
H1487 H 0.76046 0.38537 0.63545 0.0
C1488 C 0.04386 0.7262 0.55197 0.0
C1489 C 0.06867 0.71761 0.53261 0.0
C1490 C 0.04815 0.74969 0.57425 0.0
C1491 C 0.07746 0.76573 0.57602 0.0
C1492 C 0.10277 0.75634 0.55695 0.0
C1493 C 0.09812 0.73214 0.53588 0.0
C1494 C 0.02091 0.75779 0.59485 0.0
C1495 C 0.13447 0.77288 0.55752 0.0
C1496 C 0.09435 0.84987 0.59328 0.0
C1497 C 0.11776 0.84541 0.61533 0.0
C1498 C 0.07648 0.82417 0.58292 0.0
C1499 C 0.082 0.79391 0.59562 0.0
C1500 C 0.10094 0.79106 0.62203 0.0
C1501 C 0.11946 0.81679 0.63111 0.0
C1502 C 0.0558 0.82845 0.55523 0.0
C1503 C 0.1053 0.75973 0.63772 0.0
H1504 H 0.02103 0.71493 0.54938 0.0
H1505 H 0.11715 0.72586 0.52054 0.0
H1506 H 0.02875 0.76937 0.61624 0.0
H1507 H 1.00458 0.77394 0.5827 0.0
H1508 H 0.00733 0.73622 0.60072 0.0
H1509 H 0.15085 0.76375 0.53987 0.0
H1510 H 0.13134 0.79858 0.55378 0.0
H1511 H 0.14589 0.76969 0.58004 0.0
H1512 H 0.09305 0.87219 0.58127 0.0
H1513 H 0.13741 0.81359 0.64848 0.0
H1514 H 0.03323 0.81558 0.55804 0.0
H1515 H 0.06795 0.81857 0.53498 0.0
H1516 H 0.05056 0.85373 0.5508 0.0
H1517 H 0.08294 0.74607 0.63761 0.0
H1518 H 0.11344 0.76291 0.66159 0.0
H1519 H 0.12337 0.7457 0.62546 0.0
C1520 C 0.634 0.08593 0.58103 0.0
C1521 C 0.64981 0.11403 0.58836 0.0
C1522 C 0.64981 0.06146 0.56576 0.0
C1523 C 0.68193 0.06545 0.55785 0.0
C1524 C 0.69889 0.09169 0.5694 0.0
C1525 C 0.68257 0.11566 0.58459 0.0
C1526 C 0.63109 0.03323 0.55526 0.0
C1527 C 0.73341 0.09663 0.56228 0.0
C1528 C 0.73782 0.01371 0.51339 0.0
C1529 C 0.73756 0.02952 0.48525 0.0
C1530 C 0.71707 0.02257 0.53684 0.0
C1531 C 0.69575 0.04774 0.5319 0.0
C1532 C 0.6925 0.06069 0.50237 0.0
C1533 C 0.71348 0.05154 0.4795 0.0
C1534 C 0.72006 0.007 0.56756 0.0
C1535 C 0.66938 0.08701 0.49574 0.0
H1536 H 0.60882 0.08401 0.58476 0.0
H1537 H 0.69509 0.13693 0.59116 0.0
H1538 H 0.61864 0.03918 0.53376 0.0
H1539 H 0.64635 0.0124 0.55107 0.0
H1540 H 0.61292 0.02689 0.5724 0.0
H1541 H 0.74396 0.1158 0.57626 0.0
H1542 H 0.74699 0.07466 0.56624 0.0
H1543 H 0.73602 0.10302 0.5379 0.0
H1544 H 0.75563 0.99592 0.51783 0.0
H1545 H 0.71276 0.06416 0.45809 0.0
H1546 H 0.69691 1.00583 0.57929 0.0
H1547 H 0.73638 0.02096 0.58205 0.0
H1548 H 0.72983 0.98276 0.56548 0.0
H1549 H 0.64559 0.0809 0.5044 0.0
H1550 H 0.66745 0.09209 0.47099 0.0
H1551 H 0.67716 0.10888 0.50749 0.0
C1552 C 0.75862 0.35222 0.14557 0.0
C1553 C 0.74615 0.36921 0.12087 0.0
C1554 C 0.75401 0.3194 0.14819 0.0
C1555 C 0.73685 0.30306 0.12537 0.0
C1556 C 0.72322 0.32031 0.10105 0.0
C1557 C 0.72785 0.35306 0.09921 0.0
C1558 C 0.76833 0.30209 0.17487 0.0
C1559 C 0.70424 0.30411 0.07649 0.0
C1560 C 0.75539 0.21748 0.10667 0.0
C1561 C 0.72844 0.20162 0.11729 0.0
C1562 C 0.75892 0.25023 0.11015 0.0
C1563 C 0.73523 0.26777 0.12528 0.0
C1564 C 0.70897 0.25171 0.13789 0.0
C1565 C 0.70569 0.21889 0.1335 0.0
C1566 C 0.78726 0.26626 0.09612 0.0
C1567 C 0.68363 0.26934 0.15492 0.0
H1568 H 0.77247 0.36454 0.16259 0.0
H1569 H 0.71833 0.36574 0.07988 0.0
H1570 H 0.7505 0.28651 0.18561 0.0
H1571 H 0.78789 0.28683 0.16683 0.0
H1572 H 0.77778 0.31851 0.19238 0.0
H1573 H 0.69786 0.3203 0.05756 0.0
H1574 H 0.71749 0.2838 0.06695 0.0
H1575 H 0.68216 0.29489 0.08658 0.0
H1576 H 0.77348 0.20434 0.09476 0.0
H1577 H 0.68469 0.2071 0.1417 0.0
H1578 H 0.79955 0.28107 0.11327 0.0
H1579 H 0.77938 0.28214 0.0775 0.0
H1580 H 0.80445 0.2491 0.08662 0.0
H1581 H 0.69408 0.28744 0.17016 0.0
H1582 H 0.66884 0.2532 0.16878 0.0
H1583 H 0.66816 0.28174 0.1384 0.0
C1584 C 0.18442 0.76232 0.1423 0.0
C1585 C 0.16785 0.7572 0.11505 0.0
C1586 C 0.21738 0.75821 0.1439 0.0
C1587 C 0.23431 0.74922 0.11747 0.0
C1588 C 0.21761 0.74346 0.09004 0.0
C1589 C 0.18468 0.74738 0.08921 0.0
C1590 C 0.23417 0.76407 0.17371 0.0
C1591 C 0.23466 0.73423 0.0612 0.0
C1592 C 0.32163 0.76952 0.10921 0.0
C1593 C 0.33618 0.74015 0.11402 0.0
C1594 C 0.28863 0.77302 0.11109 0.0
C1595 C 0.26954 0.74653 0.11811 0.0
C1596 C 0.2841 0.71707 0.12401 0.0
C1597 C 0.31709 0.71426 0.12191 0.0
C1598 C 0.27409 0.80483 0.10444 0.0
C1599 C 0.26474 0.68813 0.13132 0.0
H1600 H 0.17155 0.76994 0.16229 0.0
H1601 H 0.17227 0.74409 0.06786 0.0
H1602 H 0.24851 0.74315 0.18002 0.0
H1603 H 0.25061 0.78427 0.17128 0.0
H1604 H 0.21748 0.76928 0.19253 0.0
H1605 H 0.21814 0.72919 0.04213 0.0
H1606 H 0.2507 0.75359 0.05419 0.0
H1607 H 0.24944 0.71303 0.06522 0.0
H1608 H 0.33605 0.78972 0.10337 0.0
H1609 H 0.32768 0.69129 0.1252 0.0
H1610 H 0.25922 0.8125 0.12383 0.0
H1611 H 0.25845 0.80308 0.08421 0.0
H1612 H 0.29216 0.82327 0.10006 0.0
H1613 H 0.24801 0.69326 0.15008 0.0
H1614 H 0.27969 0.6677 0.13795 0.0
H1615 H 0.25054 0.68127 0.11112 0.0
C1616 C 0.79569 0.34974 0.39776 0.0
C1617 C 0.76429 0.35981 0.39467 0.0
C1618 C 0.80355 0.31749 0.39742 0.0
C1619 C 0.77937 0.2946 0.39407 0.0
C1620 C 0.74793 0.30468 0.38894 0.0
C1621 C 0.74081 0.33704 0.38925 0.0
C1622 C 0.83743 0.30826 0.40315 0.0
C1623 C 0.72133 0.28124 0.38526 0.0
C1624 C 0.79814 0.20723 0.38196 0.0
C1625 C 0.79388 0.19507 0.4114 0.0
C1626 C 0.79419 0.23968 0.37595 0.0
C1627 C 0.78591 0.26048 0.39993 0.0
C1628 C 0.78252 0.24846 0.42979 0.0
C1629 C 0.78655 0.21609 0.43512 0.0
C1630 C 0.79851 0.25172 0.34393 0.0
C1631 C 0.77441 0.26981 0.45622 0.0
H1632 H 0.81406 0.36708 0.40164 0.0
H1633 H 0.71641 0.34423 0.3871 0.0
H1634 H 0.84113 0.30598 0.42805 0.0
H1635 H 0.84353 0.28544 0.39231 0.0
H1636 H 0.85392 0.32665 0.39471 0.0
H1637 H 0.69907 0.29268 0.37764 0.0
H1638 H 0.72783 0.26268 0.36859 0.0
H1639 H 0.71681 0.26944 0.40738 0.0
H1640 H 0.80394 0.19129 0.36352 0.0
H1641 H 0.78428 0.20736 0.45815 0.0
H1642 H 0.81674 0.27052 0.34365 0.0
H1643 H 0.77615 0.26237 0.33566 0.0
H1644 H 0.80568 0.23274 0.32792 0.0
H1645 H 0.7917 0.28942 0.45773 0.0
H1646 H 0.77424 0.25705 0.47831 0.0
H1647 H 0.75077 0.28046 0.45256 0.0
C1648 C 0.31389 0.78854 0.3587 0.0
C1649 C 0.33231 0.7659 0.37407 0.0
C1650 C 0.28101 0.785 0.35563 0.0
C1651 C 0.26591 0.75837 0.36844 0.0
C1652 C 0.28445 0.73433 0.38192 0.0
C1653 C 0.31734 0.73817 0.38416 0.0
C1654 C 0.26217 0.81058 0.34007 0.0
C1655 C 0.26936 0.70543 0.39582 0.0
C1656 C 0.18335 0.76672 0.4011 0.0
C1657 C 0.16496 0.7497 0.38014 0.0
C1658 C 0.21596 0.7706 0.3969 0.0
C1659 C 0.23075 0.75727 0.371 0.0
C1660 C 0.2121 0.74149 0.34892 0.0
C1661 C 0.17948 0.73775 0.35383 0.0
C1662 C 0.23484 0.78773 0.421 0.0
C1663 C 0.22671 0.72742 0.32071 0.0
H1664 H 0.32469 0.80987 0.35022 0.0
H1665 H 0.33107 0.71986 0.39506 0.0
H1666 H 0.24721 0.80021 0.32188 0.0
H1667 H 0.24609 0.82191 0.35669 0.0
H1668 H 0.27747 0.82903 0.32987 0.0
H1669 H 0.2871 0.6878 0.40343 0.0
H1670 H 0.25497 0.71251 0.41579 0.0
H1671 H 0.2532 0.69401 0.37925 0.0
H1672 H 0.1726 0.77567 0.4217 0.0
H1673 H 0.16539 0.72484 0.3374 0.0
H1674 H 0.24943 0.80647 0.41044 0.0
H1675 H 0.25119 0.77094 0.43232 0.0
H1676 H 0.21959 0.79868 0.43864 0.0
H1677 H 0.24365 0.74415 0.31024 0.0
H1678 H 0.20861 0.7209 0.30348 0.0
H1679 H 0.24005 0.70585 0.32696 0.0
C1680 C 0.24352 0.82508 0.90875 0.0
C1681 C 0.2719 0.83921 0.89927 0.0
C1682 C 0.23872 0.79227 0.90646 0.0
C1683 C 0.26265 0.7729 0.89392 0.0
C1684 C 0.29059 0.78707 0.88278 0.0
C1685 C 0.29492 0.81986 0.88564 0.0
C1686 C 0.20845 0.7782 0.91851 0.0
C1687 C 0.31631 0.76752 0.8683 0.0
C1688 C 0.26648 0.68778 0.92166 0.0
C1689 C 0.2518 0.6712 0.89782 0.0
C1690 C 0.27047 0.72068 0.92042 0.0
C1691 C 0.25953 0.7377 0.8947 0.0
C1692 C 0.24546 0.72107 0.87018 0.0
C1693 C 0.24171 0.68809 0.87207 0.0
C1694 C 0.28546 0.73734 0.9472 0.0
C1695 C 0.23374 0.7382 0.84225 0.0
H1696 H 0.22516 0.83952 0.91866 0.0
H1697 H 0.31699 0.82992 0.87809 0.0
H1698 H 0.19732 0.76288 0.90104 0.0
H1699 H 0.21371 0.76313 0.93855 0.0
H1700 H 0.19117 0.79655 0.92546 0.0
H1701 H 0.33838 0.78122 0.86491 0.0
H1702 H 0.32172 0.74646 0.88234 0.0
H1703 H 0.30811 0.75894 0.84577 0.0
H1704 H 0.27378 0.67523 0.94195 0.0
H1705 H 0.2305 0.67549 0.8535 0.0
H1706 H 0.26718 0.75106 0.9595 0.0
H1707 H 0.30367 0.75427 0.93936 0.0
H1708 H 0.29655 0.72057 0.96345 0.0
H1709 H 0.21496 0.75515 0.84871 0.0
H1710 H 0.22414 0.72179 0.82479 0.0
H1711 H 0.25321 0.75203 0.83195 0.0
C1712 C 0.82597 0.27266 0.8907 0.0
C1713 C 0.8408 0.24359 0.88494 0.0
C1714 C 0.79297 0.2759 0.889 0.0
C1715 C 0.77418 0.2496 0.88072 0.0
C1716 C 0.78909 0.22096 0.87243 0.0
C1717 C 0.82211 0.21825 0.87473 0.0
C1718 C 0.77812 0.3069 0.89813 0.0
C1719 C 0.77005 0.19242 0.8631 0.0
C1720 C 0.69273 0.24534 0.91664 0.0
C1721 C 0.6731 0.25674 0.89332 0.0
C1722 C 0.72546 0.24252 0.91258 0.0
C1723 C 0.73912 0.25097 0.88434 0.0
C1724 C 0.71938 0.26162 0.86034 0.0
C1725 C 0.68664 0.26464 0.86521 0.0
C1726 C 0.74555 0.23144 0.93896 0.0
C1727 C 0.73292 0.27034 0.82974 0.0
H1728 H 0.84005 0.29265 0.89787 0.0
H1729 H 0.83289 0.19561 0.87018 0.0
H1730 H 0.76063 0.31457 0.88082 0.0
H1731 H 0.76527 0.30387 0.91993 0.0
H1732 H 0.79592 0.3259 0.90113 0.0
H1733 H 0.78504 0.17379 0.85274 0.0
H1734 H 0.75825 0.18233 0.88341 0.0
H1735 H 0.75134 0.19911 0.84661 0.0
H1736 H 0.68268 0.23984 0.93865 0.0
H1737 H 0.6716 0.27341 0.84711 0.0
H1738 H 0.7625 0.25024 0.94549 0.0
H1739 H 0.75954 0.21046 0.9322 0.0
H1740 H 0.73123 0.22523 0.95925 0.0
H1741 H 0.74868 0.2911 0.8322 0.0
H1742 H 0.71425 0.27608 0.81282 0.0
H1743 H 0.74746 0.25065 0.82077 0.0
C1744 C 0.27233 0.67724 0.65681 0.0
C1745 C 0.26247 0.66271 0.6297 0.0
C1746 C 0.26743 0.70971 0.66178 0.0
C1747 C 0.25305 0.72827 0.63875 0.0
C1748 C 0.24233 0.71349 0.61167 0.0
C1749 C 0.24694 0.68093 0.60762 0.0
C1750 C 0.27837 0.72426 0.69133 0.0
C1751 C 0.22733 0.73232 0.58627 0.0
C1752 C 0.22027 0.81127 0.64936 0.0
C1753 C 0.24453 0.8299 0.63691 0.0
C1754 C 0.22342 0.7783 0.65198 0.0
C1755 C 0.25131 0.76342 0.64158 0.0
C1756 C 0.27658 0.78222 0.63086 0.0
C1757 C 0.27305 0.81513 0.62906 0.0
C1758 C 0.19608 0.75932 0.66415 0.0
C1759 C 0.30661 0.76737 0.61928 0.0
H1760 H 0.28414 0.66318 0.674 0.0
H1761 H 0.23971 0.66998 0.58644 0.0
H1762 H 0.29937 0.73925 0.68712 0.0
H1763 H 0.25968 0.73967 0.70092 0.0
H1764 H 0.28476 0.7061 0.70851 0.0
H1765 H 0.21931 0.71715 0.56712 0.0
H1766 H 0.20675 0.74574 0.59495 0.0
H1767 H 0.24456 0.74974 0.57737 0.0
H1768 H 0.19805 0.82203 0.65557 0.0
H1769 H 0.29224 0.8292 0.62014 0.0
H1770 H 0.20455 0.74045 0.67967 0.0
H1771 H 0.18354 0.74776 0.64495 0.0
H1772 H 0.17888 0.77434 0.67655 0.0
H1773 H 0.31755 0.7527 0.63733 0.0
H1774 H 0.32409 0.78519 0.61157 0.0
H1775 H 0.30099 0.75152 0.59992 0.0
C1776 C 0.8229 0.26976 0.64518 0.0
C1777 C 0.83645 0.26264 0.61686 0.0
C1778 C 0.7902 0.26624 0.65005 0.0
C1779 C 0.77053 0.25578 0.6259 0.0
C1780 C 0.78416 0.24842 0.59737 0.0
C1781 C 0.81679 0.25182 0.59327 0.0
C1782 C 0.77663 0.27405 0.68088 0.0
C1783 C 0.76414 0.23761 0.5708 0.0
C1784 C 0.68915 0.21928 0.63479 0.0
C1785 C 0.66939 0.24394 0.62497 0.0
C1786 C 0.72198 0.22346 0.63735 0.0
C1787 C 0.73559 0.25294 0.62977 0.0
C1788 C 0.71566 0.27854 0.62197 0.0
C1789 C 0.68286 0.27377 0.61986 0.0
C1790 C 0.74227 0.19558 0.64603 0.0
C1791 C 0.7291 0.3104 0.61364 0.0
H1792 H 0.8379 0.27815 0.66348 0.0
H1793 H 0.82674 0.24703 0.57107 0.0
H1794 H 0.76007 0.29421 0.67883 0.0
H1795 H 0.76293 0.25369 0.68967 0.0
H1796 H 0.79522 0.28025 0.69772 0.0
H1797 H 0.77842 0.23263 0.55016 0.0
H1798 H 0.75099 0.21592 0.57698 0.0
H1799 H 0.74646 0.256 0.56508 0.0
H1800 H 0.67937 0.19607 0.63874 0.0
H1801 H 0.66787 0.29317 0.61289 0.0
H1802 H 0.7606 0.20267 0.66277 0.0
H1803 H 0.7546 0.1866 0.62551 0.0
H1804 H 0.72812 0.17601 0.65583 0.0
H1805 H 0.74686 0.31808 0.63069 0.0
H1806 H 0.71051 0.32881 0.61186 0.0
H1807 H 0.74129 0.30869 0.59136 0.0
loop_
_geom_bond_atom_site_label_1
_geom_bond_atom_site_label_2
_geom_bond_distance
_geom_bond_site_symmetry_2
_ccdc_geom_bond_type
C0 C1 1.351 . S
C0 N3 1.368 . S
C0 H5 0.931 . S
C1 C0 1.351 . S
C1 N2 1.373 . S
C1 H29 0.930 1_545 S
N2 C1 1.373 . S
N2 C4 1.340 . S
N3 C0 1.368 . S
N3 C4 1.321 . S
N3 Co6 2.135 . S
C4 N2 1.340 . S
C4 N3 1.321 . S
C4 H28 0.930 . S
H5 C0 0.931 . S
Co6 N3 2.135 . S
Co6 N9 2.121 . S
Co6 O14 2.055 . S
Co6 O17 2.039 . S
Co6 N20 2.140 . S
C7 O8 1.227 . S
C7 O17 1.265 . S
O8 C7 1.227 . S
N9 Co6 2.121 . S
N9 C11 1.375 . S
N9 C12 1.313 . S
C10 C11 1.338 . S
C10 N13 1.377 . S
C10 H30 0.930 . S
C11 N9 1.375 . S
C11 C10 1.338 . S
C11 H15 0.931 . S
C12 N9 1.313 . S
C12 N13 1.344 . S
C12 H16 0.930 . S
N13 C10 1.377 . S
N13 C12 1.344 . S
O14 Co6 2.055 . S
O14 C18 1.253 . S
H15 C11 0.931 . S
H16 C12 0.930 . S
O17 Co6 2.039 . S
O17 C7 1.265 . S
C18 O14 1.253 . S
C18 O19 1.227 . S
O19 C18 1.227 . S
N20 Co6 2.140 . S
N20 C23 1.346 . S
N20 C24 1.345 . S
C21 C22 1.387 . S
C21 C25 1.391 . S
C22 C21 1.387 . S
C22 C23 1.369 . S
C22 H31 0.929 . S
C23 N20 1.346 . S
C23 C22 1.369 . S
C23 H26 0.928 . S
C24 N20 1.345 . S
C24 C25 1.371 . S
C24 H27 0.931 . S
C25 C21 1.391 . S
C25 C24 1.371 . S
C25 H32 0.930 . S
H26 C23 0.928 . S
H27 C24 0.931 . S
H28 C4 0.930 . S
H29 C1 0.930 1_565 S
H30 C10 0.930 . S
H31 C22 0.929 . S
H32 C25 0.930 . S
C33 C34 1.351 . S
C33 N36 1.368 . S
C33 H38 0.931 . S
C34 C33 1.351 . S
C34 N35 1.373 . S
C34 H62 0.930 . S
N35 C34 1.373 . S
N35 C37 1.340 . S
N36 C33 1.368 . S
N36 C37 1.321 . S
N36 Co39 2.135 . S
C37 N35 1.340 . S
C37 N36 1.321 . S
C37 H61 0.930 . S
H38 C33 0.931 . S
Co39 N36 2.135 . S
Co39 N42 2.121 . S
Co39 O47 2.055 . S
Co39 O50 2.039 . S
Co39 N53 2.140 . S
C40 O41 1.227 . S
C40 O50 1.265 . S
O41 C40 1.227 . S
N42 Co39 2.121 . S
N42 C44 1.375 . S
N42 C45 1.313 . S
C43 C44 1.338 . S
C43 N46 1.377 . S
C43 H63 0.930 . S
C44 N42 1.375 . S
C44 C43 1.338 . S
C44 H48 0.931 . S
C45 N42 1.313 . S
C45 N46 1.344 . S
C45 H49 0.930 . S
N46 C43 1.377 . S
N46 C45 1.344 . S
O47 Co39 2.055 . S
O47 C51 1.253 . S
H48 C44 0.931 . S
H49 C45 0.930 . S
O50 Co39 2.039 . S
O50 C40 1.265 . S
C51 O47 1.253 . S
C51 O52 1.227 . S
O52 C51 1.227 . S
N53 Co39 2.140 . S
N53 C56 1.346 . S
N53 C57 1.345 . S
C54 C55 1.387 . S
C54 C58 1.391 . S
C55 C54 1.387 . S
C55 C56 1.369 . S
C55 H64 0.929 . S
C56 N53 1.346 . S
C56 C55 1.369 . S
C56 H59 0.928 . S
C57 N53 1.345 . S
C57 C58 1.371 . S
C57 H60 0.931 . S
C58 C54 1.391 . S
C58 C57 1.371 . S
C58 H65 0.930 . S
H59 C56 0.928 . S
H60 C57 0.931 . S
H61 C37 0.930 . S
H62 C34 0.930 . S
H63 C43 0.930 . S
H64 C55 0.929 . S
H65 C58 0.930 . S
C66 C67 1.351 . S
C66 N69 1.368 . S
C66 H71 0.931 . S
C67 C66 1.351 . S
C67 N68 1.373 . S
C67 H95 0.930 . S
N68 C67 1.373 . S
N68 C70 1.340 . S
N69 C66 1.368 . S
N69 C70 1.321 . S
N69 Co72 2.135 . S
C70 N68 1.340 . S
C70 N69 1.321 . S
C70 H94 0.930 . S
H71 C66 0.931 . S
Co72 N69 2.135 . S
Co72 N75 2.121 . S
Co72 O80 2.055 . S
Co72 O83 2.039 . S
Co72 N86 2.140 . S
C73 O74 1.227 . S
C73 O83 1.265 . S
O74 C73 1.227 . S
N75 Co72 2.121 . S
N75 C77 1.375 . S
N75 C78 1.313 . S
C76 C77 1.338 . S
C76 N79 1.377 . S
C76 H96 0.930 . S
C77 N75 1.375 . S
C77 C76 1.338 . S
C77 H81 0.931 . S
C78 N75 1.313 . S
C78 N79 1.344 . S
C78 H82 0.930 . S
N79 C76 1.377 . S
N79 C78 1.344 . S
O80 Co72 2.055 . S
O80 C84 1.253 . S
H81 C77 0.931 . S
H82 C78 0.930 . S
O83 Co72 2.039 . S
O83 C73 1.265 . S
C84 O80 1.253 . S
C84 O85 1.227 . S
O85 C84 1.227 . S
N86 Co72 2.140 . S
N86 C89 1.346 . S
N86 C90 1.345 . S
C87 C88 1.387 . S
C87 C91 1.391 . S
C88 C87 1.387 . S
C88 C89 1.369 . S
C88 H97 0.929 . S
C89 N86 1.346 . S
C89 C88 1.369 . S
C89 H92 0.928 . S
C90 N86 1.345 . S
C90 C91 1.371 . S
C90 H93 0.931 . S
C91 C87 1.391 . S
C91 C90 1.371 . S
C91 H98 0.930 . S
H92 C89 0.928 . S
H93 C90 0.931 . S
H94 C70 0.930 . S
H95 C67 0.930 . S
H96 C76 0.930 . S
H97 C88 0.929 . S
H98 C91 0.930 . S
C99 C100 1.351 . S
C99 N102 1.368 . S
C99 H104 0.931 . S
C100 C99 1.351 . S
C100 N101 1.373 . S
C100 H128 0.930 1_455 S
N101 C100 1.373 . S
N101 C103 1.340 . S
N102 C99 1.368 . S
N102 C103 1.321 . S
N102 Co105 2.135 . S
C103 N101 1.340 . S
C103 N102 1.321 . S
C103 H127 0.930 . S
H104 C99 0.931 . S
Co105 N102 2.135 . S
Co105 N108 2.121 . S
Co105 O113 2.055 . S
Co105 O116 2.039 . S
Co105 N119 2.140 . S
C106 O107 1.227 . S
C106 O116 1.265 . S
O107 C106 1.227 . S
N108 Co105 2.121 . S
N108 C110 1.375 . S
N108 C111 1.313 . S
C109 C110 1.338 . S
C109 N112 1.377 . S
C109 H129 0.930 . S
C110 N108 1.375 . S
C110 C109 1.338 . S
C110 H114 0.931 . S
C111 N108 1.313 . S
C111 N112 1.344 . S
C111 H115 0.930 . S
N112 C109 1.377 . S
N112 C111 1.344 . S
O113 Co105 2.055 . S
O113 C117 1.253 . S
H114 C110 0.931 . S
H115 C111 0.930 . S
O116 Co105 2.039 . S
O116 C106 1.265 . S
C117 O113 1.253 . S
C117 O118 1.227 . S
O118 C117 1.227 . S
N119 Co105 2.140 . S
N119 C122 1.346 . S
N119 C123 1.345 . S
C120 C121 1.387 . S
C120 C124 1.391 . S
C121 C120 1.387 . S
C121 C122 1.369 . S
C121 H130 0.929 . S
C122 N119 1.346 . S
C122 C121 1.369 . S
C122 H125 0.928 . S
C123 N119 1.345 . S
C123 C124 1.371 . S
C123 H126 0.931 . S
C124 C120 1.391 . S
C124 C123 1.371 . S
C124 H131 0.930 . S
H125 C122 0.928 . S
H126 C123 0.931 . S
H127 C103 0.930 . S
H128 C100 0.930 1_655 S
H129 C109 0.930 . S
H130 C121 0.929 . S
H131 C124 0.930 . S
C132 C133 1.351 . S
C132 N135 1.368 . S
C132 H137 0.931 . S
C133 C132 1.351 . S
C133 N134 1.373 . S
C133 H161 0.930 . S
N134 C133 1.373 . S
N134 C136 1.340 . S
N135 C132 1.368 . S
N135 C136 1.321 . S
N135 Co138 2.135 . S
C136 N134 1.340 . S
C136 N135 1.321 . S
C136 H160 0.930 . S
H137 C132 0.931 . S
Co138 N135 2.135 . S
Co138 N141 2.121 . S
Co138 O146 2.055 . S
Co138 O149 2.039 . S
Co138 N152 2.140 . S
C139 O140 1.227 . S
C139 O149 1.265 . S
O140 C139 1.227 . S
N141 Co138 2.121 . S
N141 C143 1.375 . S
N141 C144 1.313 . S
C142 C143 1.338 . S
C142 N145 1.377 . S
C142 H162 0.930 . S
C143 N141 1.375 . S
C143 C142 1.338 . S
C143 H147 0.931 . S
C144 N141 1.313 . S
C144 N145 1.344 . S
C144 H148 0.930 . S
N145 C142 1.377 . S
N145 C144 1.344 . S
O146 Co138 2.055 . S
O146 C150 1.253 . S
H147 C143 0.931 . S
H148 C144 0.930 . S
O149 Co138 2.039 . S
O149 C139 1.265 . S
C150 O146 1.253 . S
C150 O151 1.227 . S
O151 C150 1.227 . S
N152 Co138 2.140 . S
N152 C155 1.346 . S
N152 C156 1.345 . S
C153 C154 1.387 . S
C153 C157 1.391 . S
C154 C153 1.387 . S
C154 C155 1.369 . S
C154 H163 0.929 . S
C155 N152 1.346 . S
C155 C154 1.369 . S
C155 H158 0.928 . S
C156 N152 1.345 . S
C156 C157 1.371 . S
C156 H159 0.931 . S
C157 C153 1.391 . S
C157 C156 1.371 . S
C157 H164 0.930 . S
H158 C155 0.928 . S
H159 C156 0.931 . S
H160 C136 0.930 . S
H161 C133 0.930 . S
H162 C142 0.930 . S
H163 C154 0.929 . S
H164 C157 0.930 . S
C165 C166 1.351 . S
C165 N168 1.368 . S
C165 H170 0.931 . S
C166 C165 1.351 . S
C166 N167 1.373 . S
C166 H194 0.930 1_455 S
N167 C166 1.373 . S
N167 C169 1.340 . S
N168 C165 1.368 . S
N168 C169 1.321 . S
N168 Co171 2.135 . S
C169 N167 1.340 . S
C169 N168 1.321 . S
C169 H193 0.930 . S
H170 C165 0.931 . S
Co171 N168 2.135 . S
Co171 N174 2.121 . S
Co171 O179 2.055 . S
Co171 O182 2.039 . S
Co171 N185 2.140 . S
C172 O173 1.227 . S
C172 O182 1.265 . S
O173 C172 1.227 . S
N174 Co171 2.121 . S
N174 C176 1.375 . S
N174 C177 1.313 . S
C175 C176 1.338 . S
C175 N178 1.377 . S
C175 H195 0.930 . S
C176 N174 1.375 . S
C176 C175 1.338 . S
C176 H180 0.931 . S
C177 N174 1.313 . S
C177 N178 1.344 . S
C177 H181 0.930 . S
N178 C175 1.377 . S
N178 C177 1.344 . S
O179 Co171 2.055 . S
O179 C183 1.253 . S
H180 C176 0.931 . S
H181 C177 0.930 . S
O182 Co171 2.039 . S
O182 C172 1.265 . S
C183 O179 1.253 . S
C183 O184 1.227 . S
O184 C183 1.227 . S
N185 Co171 2.140 . S
N185 C188 1.346 . S
N185 C189 1.345 . S
C186 C187 1.387 . S
C186 C190 1.391 . S
C187 C186 1.387 . S
C187 C188 1.369 . S
C187 H196 0.929 . S
C188 N185 1.346 . S
C188 C187 1.369 . S
C188 H191 0.928 . S
C189 N185 1.345 . S
C189 C190 1.371 . S
C189 H192 0.931 . S
C190 C186 1.391 . S
C190 C189 1.371 . S
C190 H197 0.930 . S
H191 C188 0.928 . S
H192 C189 0.931 . S
H193 C169 0.930 . S
H194 C166 0.930 1_655 S
H195 C175 0.930 . S
H196 C187 0.929 . S
H197 C190 0.930 . S
C198 C199 1.351 . S
C198 N201 1.368 . S
C198 H203 0.931 . S
C199 C198 1.351 . S
C199 N200 1.373 . S
C199 H227 0.930 1_545 S
N200 C199 1.373 . S
N200 C202 1.340 . S
N201 C198 1.368 . S
N201 C202 1.321 . S
N201 Co204 2.135 . S
C202 N200 1.340 . S
C202 N201 1.321 . S
C202 H226 0.930 . S
H203 C198 0.931 . S
Co204 N201 2.135 . S
Co204 N207 2.121 . S
Co204 O212 2.055 . S
Co204 O215 2.039 . S
Co204 N218 2.140 . S
C205 O206 1.227 . S
C205 O215 1.265 . S
O206 C205 1.227 . S
N207 Co204 2.121 . S
N207 C209 1.375 . S
N207 C210 1.313 . S
C208 C209 1.338 . S
C208 N211 1.377 . S
C208 H228 0.930 . S
C209 N207 1.375 . S
C209 C208 1.338 . S
C209 H213 0.931 . S
C210 N207 1.313 . S
C210 N211 1.344 . S
C210 H214 0.930 . S
N211 C208 1.377 . S
N211 C210 1.344 . S
O212 Co204 2.055 . S
O212 C216 1.253 . S
H213 C209 0.931 . S
H214 C210 0.930 . S
O215 Co204 2.039 . S
O215 C205 1.265 . S
C216 O212 1.253 . S
C216 O217 1.227 . S
O217 C216 1.227 . S
N218 Co204 2.140 . S
N218 C221 1.346 . S
N218 C222 1.345 . S
C219 C220 1.387 . S
C219 C223 1.391 . S
C220 C219 1.387 . S
C220 C221 1.369 . S
C220 H229 0.929 . S
C221 N218 1.346 . S
C221 C220 1.369 . S
C221 H224 0.928 . S
C222 N218 1.345 . S
C222 C223 1.371 . S
C222 H225 0.931 . S
C223 C219 1.391 . S
C223 C222 1.371 . S
C223 H230 0.930 . S
H224 C221 0.928 . S
H225 C222 0.931 . S
H226 C202 0.930 . S
H227 C199 0.930 1_565 S
H228 C208 0.930 . S
H229 C220 0.929 . S
H230 C223 0.930 . S
C231 C232 1.351 . S
C231 N234 1.368 . S
C231 H236 0.931 . S
C232 C231 1.351 . S
C232 N233 1.373 . S
C232 H260 0.930 . S
N233 C232 1.373 . S
N233 C235 1.340 . S
N234 C231 1.368 . S
N234 C235 1.321 . S
N234 Co237 2.135 . S
C235 N233 1.340 . S
C235 N234 1.321 . S
C235 H259 0.930 . S
H236 C231 0.931 . S
Co237 N234 2.135 . S
Co237 N240 2.121 . S
Co237 O245 2.055 . S
Co237 O248 2.039 . S
Co237 N251 2.140 . S
C238 O239 1.227 . S
C238 O248 1.265 . S
O239 C238 1.227 . S
N240 Co237 2.121 . S
N240 C242 1.375 . S
N240 C243 1.313 . S
C241 C242 1.338 . S
C241 N244 1.377 . S
C241 H261 0.930 . S
C242 N240 1.375 . S
C242 C241 1.338 . S
C242 H246 0.931 . S
C243 N240 1.313 . S
C243 N244 1.344 . S
C243 H247 0.930 . S
N244 C241 1.377 . S
N244 C243 1.344 . S
O245 Co237 2.055 . S
O245 C249 1.253 . S
H246 C242 0.931 . S
H247 C243 0.930 . S
O248 Co237 2.039 . S
O248 C238 1.265 . S
C249 O245 1.253 . S
C249 O250 1.227 . S
O250 C249 1.227 . S
N251 Co237 2.140 . S
N251 C254 1.346 . S
N251 C255 1.345 . S
C252 C253 1.387 . S
C252 C256 1.391 . S
C253 C252 1.387 . S
C253 C254 1.369 . S
C253 H262 0.929 . S
C254 N251 1.346 . S
C254 C253 1.369 . S
C254 H257 0.928 . S
C255 N251 1.345 . S
C255 C256 1.371 . S
C255 H258 0.931 . S
C256 C252 1.391 . S
C256 C255 1.371 . S
C256 H263 0.930 . S
H257 C254 0.928 . S
H258 C255 0.931 . S
H259 C235 0.930 . S
H260 C232 0.930 . S
H261 C241 0.930 . S
H262 C253 0.929 . S
H263 C256 0.930 . S
C264 C265 1.351 . S
C264 N267 1.368 . S
C264 H269 0.931 . S
C265 C264 1.351 . S
C265 N266 1.373 . S
C265 H293 0.930 1_565 S
N266 C265 1.373 . S
N266 C268 1.340 . S
N267 C264 1.368 . S
N267 C268 1.321 . S
N267 Co270 2.135 . S
C268 N266 1.340 . S
C268 N267 1.321 . S
C268 H292 0.930 . S
H269 C264 0.931 . S
Co270 N267 2.135 . S
Co270 N273 2.121 . S
Co270 O278 2.055 . S
Co270 O281 2.039 . S
Co270 N284 2.140 . S
C271 O272 1.227 . S
C271 O281 1.265 . S
O272 C271 1.227 . S
N273 Co270 2.121 . S
N273 C275 1.375 . S
N273 C276 1.313 . S
C274 C275 1.338 . S
C274 N277 1.377 . S
C274 H294 0.930 . S
C275 N273 1.375 . S
C275 C274 1.338 . S
C275 H279 0.931 . S
C276 N273 1.313 . S
C276 N277 1.344 . S
C276 H280 0.930 . S
N277 C274 1.377 . S
N277 C276 1.344 . S
O278 Co270 2.055 . S
O278 C282 1.253 . S
H279 C275 0.931 . S
H280 C276 0.930 . S
O281 Co270 2.039 . S
O281 C271 1.265 . S
C282 O278 1.253 . S
C282 O283 1.227 . S
O283 C282 1.227 . S
N284 Co270 2.140 . S
N284 C287 1.346 . S
N284 C288 1.345 . S
C285 C286 1.387 . S
C285 C289 1.391 . S
C286 C285 1.387 . S
C286 C287 1.369 . S
C286 H295 0.929 . S
C287 N284 1.346 . S
C287 C286 1.369 . S
C287 H290 0.928 . S
C288 N284 1.345 . S
C288 C289 1.371 . S
C288 H291 0.931 . S
C289 C285 1.391 . S
C289 C288 1.371 . S
C289 H296 0.930 . S
H290 C287 0.928 . S
H291 C288 0.931 . S
H292 C268 0.930 . S
H293 C265 0.930 1_545 S
H294 C274 0.930 . S
H295 C286 0.929 . S
H296 C289 0.930 . S
C297 C298 1.351 . S
C297 N300 1.368 . S
C297 H302 0.931 . S
C298 C297 1.351 . S
C298 N299 1.373 . S
C298 H326 0.930 . S
N299 C298 1.373 . S
N299 C301 1.340 . S
N300 C297 1.368 . S
N300 C301 1.321 . S
N300 Co303 2.135 . S
C301 N299 1.340 . S
C301 N300 1.321 . S
C301 H325 0.930 . S
H302 C297 0.931 . S
Co303 N300 2.135 . S
Co303 N306 2.121 . S
Co303 O311 2.055 . S
Co303 O314 2.039 . S
Co303 N317 2.140 . S
C304 O305 1.227 . S
C304 O314 1.265 . S
O305 C304 1.227 . S
N306 Co303 2.121 . S
N306 C308 1.375 . S
N306 C309 1.313 . S
C307 C308 1.338 . S
C307 N310 1.377 . S
C307 H327 0.930 . S
C308 N306 1.375 . S
C308 C307 1.338 . S
C308 H312 0.931 . S
C309 N306 1.313 . S
C309 N310 1.344 . S
C309 H313 0.930 . S
N310 C307 1.377 . S
N310 C309 1.344 . S
O311 Co303 2.055 . S
O311 C315 1.253 . S
H312 C308 0.931 . S
H313 C309 0.930 . S
O314 Co303 2.039 . S
O314 C304 1.265 . S
C315 O311 1.253 . S
C315 O316 1.227 . S
O316 C315 1.227 . S
N317 Co303 2.140 . S
N317 C320 1.346 . S
N317 C321 1.345 . S
C318 C319 1.387 . S
C318 C322 1.391 . S
C319 C318 1.387 . S
C319 C320 1.369 . S
C319 H328 0.929 . S
C320 N317 1.346 . S
C320 C319 1.369 . S
C320 H323 0.928 . S
C321 N317 1.345 . S
C321 C322 1.371 . S
C321 H324 0.931 . S
C322 C318 1.391 . S
C322 C321 1.371 . S
C322 H329 0.930 . S
H323 C320 0.928 . S
H324 C321 0.931 . S
H325 C301 0.930 . S
H326 C298 0.930 . S
H327 C307 0.930 . S
H328 C319 0.929 . S
H329 C322 0.930 . S
C330 C331 1.351 . S
C330 N333 1.368 . S
C330 H335 0.931 . S
C331 C330 1.351 . S
C331 N332 1.373 . S
C331 H359 0.930 . S
N332 C331 1.373 . S
N332 C334 1.340 . S
N333 C330 1.368 . S
N333 C334 1.321 . S
N333 Co336 2.135 . S
C334 N332 1.340 . S
C334 N333 1.321 . S
C334 H358 0.930 . S
H335 C330 0.931 . S
Co336 N333 2.135 . S
Co336 N339 2.121 . S
Co336 O344 2.055 . S
Co336 O347 2.039 . S
Co336 N350 2.140 . S
C337 O338 1.227 . S
C337 O347 1.265 . S
O338 C337 1.227 . S
N339 Co336 2.121 . S
N339 C341 1.375 . S
N339 C342 1.313 . S
C340 C341 1.338 . S
C340 N343 1.377 . S
C340 H360 0.930 . S
C341 N339 1.375 . S
C341 C340 1.338 . S
C341 H345 0.931 . S
C342 N339 1.313 . S
C342 N343 1.344 . S
C342 H346 0.930 . S
N343 C340 1.377 . S
N343 C342 1.344 . S
O344 Co336 2.055 . S
O344 C348 1.253 . S
H345 C341 0.931 . S
H346 C342 0.930 . S
O347 Co336 2.039 . S
O347 C337 1.265 . S
C348 O344 1.253 . S
C348 O349 1.227 . S
O349 C348 1.227 . S
N350 Co336 2.140 . S
N350 C353 1.346 . S
N350 C354 1.345 . S
C351 C352 1.387 . S
C351 C355 1.391 . S
C352 C351 1.387 . S
C352 C353 1.369 . S
C352 H361 0.929 . S
C353 N350 1.346 . S
C353 C352 1.369 . S
C353 H356 0.928 . S
C354 N350 1.345 . S
C354 C355 1.371 . S
C354 H357 0.931 . S
C355 C351 1.391 . S
C355 C354 1.371 . S
C355 H362 0.930 . S
H356 C353 0.928 . S
H357 C354 0.931 . S
H358 C334 0.930 . S
H359 C331 0.930 . S
H360 C340 0.930 . S
H361 C352 0.929 . S
H362 C355 0.930 . S
C363 C364 1.351 . S
C363 N366 1.368 . S
C363 H368 0.931 . S
C364 C363 1.351 . S
C364 N365 1.373 . S
C364 H392 0.930 1_655 S
N365 C364 1.373 . S
N365 C367 1.340 . S
N366 C363 1.368 . S
N366 C367 1.321 . S
N366 Co369 2.135 . S
C367 N365 1.340 . S
C367 N366 1.321 . S
C367 H391 0.930 . S
H368 C363 0.931 . S
Co369 N366 2.135 . S
Co369 N372 2.121 . S
Co369 O377 2.055 . S
Co369 O380 2.039 . S
Co369 N383 2.140 . S
C370 O371 1.227 . S
C370 O380 1.265 . S
O371 C370 1.227 . S
N372 Co369 2.121 . S
N372 C374 1.375 . S
N372 C375 1.313 . S
C373 C374 1.338 . S
C373 N376 1.377 . S
C373 H393 0.930 . S
C374 N372 1.375 . S
C374 C373 1.338 . S
C374 H378 0.931 . S
C375 N372 1.313 . S
C375 N376 1.344 . S
C375 H379 0.930 . S
N376 C373 1.377 . S
N376 C375 1.344 . S
O377 Co369 2.055 . S
O377 C381 1.253 . S
H378 C374 0.931 . S
H379 C375 0.930 . S
O380 Co369 2.039 . S
O380 C370 1.265 . S
C381 O377 1.253 . S
C381 O382 1.227 . S
O382 C381 1.227 . S
N383 Co369 2.140 . S
N383 C386 1.346 . S
N383 C387 1.345 . S
C384 C385 1.387 . S
C384 C388 1.391 . S
C385 C384 1.387 . S
C385 C386 1.369 . S
C385 H394 0.929 . S
C386 N383 1.346 . S
C386 C385 1.369 . S
C386 H389 0.928 . S
C387 N383 1.345 . S
C387 C388 1.371 . S
C387 H390 0.931 . S
C388 C384 1.391 . S
C388 C387 1.371 . S
C388 H395 0.930 . S
H389 C386 0.928 . S
H390 C387 0.931 . S
H391 C367 0.930 . S
H392 C364 0.930 1_455 S
H393 C373 0.930 . S
H394 C385 0.929 . S
H395 C388 0.930 . S
C396 C397 1.351 . S
C396 N399 1.368 . S
C396 H401 0.931 . S
C397 C396 1.351 . S
C397 N398 1.373 . S
C397 H425 0.930 . S
N398 C397 1.373 . S
N398 C400 1.340 . S
N399 C396 1.368 . S
N399 C400 1.321 . S
N399 Co402 2.135 . S
C400 N398 1.340 . S
C400 N399 1.321 . S
C400 H424 0.930 . S
H401 C396 0.931 . S
Co402 N399 2.135 . S
Co402 N405 2.121 . S
Co402 O410 2.055 . S
Co402 O413 2.039 . S
Co402 N416 2.140 . S
C403 O404 1.227 . S
C403 O413 1.265 . S
O404 C403 1.227 . S
N405 Co402 2.121 . S
N405 C407 1.375 . S
N405 C408 1.313 . S
C406 C407 1.338 . S
C406 N409 1.377 . S
C406 H426 0.930 . S
C407 N405 1.375 . S
C407 C406 1.338 . S
C407 H411 0.931 . S
C408 N405 1.313 . S
C408 N409 1.344 . S
C408 H412 0.930 . S
N409 C406 1.377 . S
N409 C408 1.344 . S
O410 Co402 2.055 . S
O410 C414 1.253 . S
H411 C407 0.931 . S
H412 C408 0.930 . S
O413 Co402 2.039 . S
O413 C403 1.265 . S
C414 O410 1.253 . S
C414 O415 1.227 . S
O415 C414 1.227 . S
N416 Co402 2.140 . S
N416 C419 1.346 . S
N416 C420 1.345 . S
C417 C418 1.387 . S
C417 C421 1.391 . S
C418 C417 1.387 . S
C418 C419 1.369 . S
C418 H427 0.929 . S
C419 N416 1.346 . S
C419 C418 1.369 . S
C419 H422 0.928 . S
C420 N416 1.345 . S
C420 C421 1.371 . S
C420 H423 0.931 . S
C421 C417 1.391 . S
C421 C420 1.371 . S
C421 H428 0.930 . S
H422 C419 0.928 . S
H423 C420 0.931 . S
H424 C400 0.930 . S
H425 C397 0.930 . S
H426 C406 0.930 . S
H427 C418 0.929 . S
H428 C421 0.930 . S
C429 C430 1.351 . S
C429 N432 1.368 . S
C429 H434 0.931 . S
C430 C429 1.351 . S
C430 N431 1.373 . S
C430 H458 0.930 1_655 S
N431 C430 1.373 . S
N431 C433 1.340 . S
N432 C429 1.368 . S
N432 C433 1.321 . S
N432 Co435 2.135 . S
C433 N431 1.340 . S
C433 N432 1.321 . S
C433 H457 0.930 . S
H434 C429 0.931 . S
Co435 N432 2.135 . S
Co435 N438 2.121 . S
Co435 O443 2.055 . S
Co435 O446 2.039 . S
Co435 N449 2.140 . S
C436 O437 1.227 . S
C436 O446 1.265 . S
O437 C436 1.227 . S
N438 Co435 2.121 . S
N438 C440 1.375 . S
N438 C441 1.313 . S
C439 C440 1.338 . S
C439 N442 1.377 . S
C439 H459 0.930 . S
C440 N438 1.375 . S
C440 C439 1.338 . S
C440 H444 0.931 . S
C441 N438 1.313 . S
C441 N442 1.344 . S
C441 H445 0.930 . S
N442 C439 1.377 . S
N442 C441 1.344 . S
O443 Co435 2.055 . S
O443 C447 1.253 . S
H444 C440 0.931 . S
H445 C441 0.930 . S
O446 Co435 2.039 . S
O446 C436 1.265 . S
C447 O443 1.253 . S
C447 O448 1.227 . S
O448 C447 1.227 . S
N449 Co435 2.140 . S
N449 C452 1.346 . S
N449 C453 1.345 . S
C450 C451 1.387 . S
C450 C454 1.391 . S
C451 C450 1.387 . S
C451 C452 1.369 . S
C451 H460 0.929 . S
C452 N449 1.346 . S
C452 C451 1.369 . S
C452 H455 0.928 . S
C453 N449 1.345 . S
C453 C454 1.371 . S
C453 H456 0.931 . S
C454 C450 1.391 . S
C454 C453 1.371 . S
C454 H461 0.930 . S
H455 C452 0.928 . S
H456 C453 0.931 . S
H457 C433 0.930 . S
H458 C430 0.930 1_455 S
H459 C439 0.930 . S
H460 C451 0.929 . S
H461 C454 0.930 . S
C462 C463 1.351 . S
C462 N465 1.368 . S
C462 H467 0.931 . S
C463 C462 1.351 . S
C463 N464 1.373 . S
C463 H491 0.930 1_565 S
N464 C463 1.373 . S
N464 C466 1.340 . S
N465 C462 1.368 . S
N465 C466 1.321 . S
N465 Co468 2.135 . S
C466 N464 1.340 . S
C466 N465 1.321 . S
C466 H490 0.930 . S
H467 C462 0.931 . S
Co468 N465 2.135 . S
Co468 N471 2.121 . S
Co468 O476 2.055 . S
Co468 O479 2.039 . S
Co468 N482 2.140 . S
C469 O470 1.227 . S
C469 O479 1.265 . S
O470 C469 1.227 . S
N471 Co468 2.121 . S
N471 C473 1.375 . S
N471 C474 1.313 . S
C472 C473 1.338 . S
C472 N475 1.377 . S
C472 H492 0.930 . S
C473 N471 1.375 . S
C473 C472 1.338 . S
C473 H477 0.931 . S
C474 N471 1.313 . S
C474 N475 1.344 . S
C474 H478 0.930 . S
N475 C472 1.377 . S
N475 C474 1.344 . S
O476 Co468 2.055 . S
O476 C480 1.253 . S
H477 C473 0.931 . S
H478 C474 0.930 . S
O479 Co468 2.039 . S
O479 C469 1.265 . S
C480 O476 1.253 . S
C480 O481 1.227 . S
O481 C480 1.227 . S
N482 Co468 2.140 . S
N482 C485 1.346 . S
N482 C486 1.345 . S
C483 C484 1.387 . S
C483 C487 1.391 . S
C484 C483 1.387 . S
C484 C485 1.369 . S
C484 H493 0.929 . S
C485 N482 1.346 . S
C485 C484 1.369 . S
C485 H488 0.928 . S
C486 N482 1.345 . S
C486 C487 1.371 . S
C486 H489 0.931 . S
C487 C483 1.391 . S
C487 C486 1.371 . S
C487 H494 0.930 . S
H488 C485 0.928 . S
H489 C486 0.931 . S
H490 C466 0.930 . S
H491 C463 0.930 1_545 S
H492 C472 0.930 . S
H493 C484 0.929 . S
H494 C487 0.930 . S
C495 C496 1.351 . S
C495 N498 1.368 . S
C495 H500 0.931 . S
C496 C495 1.351 . S
C496 N497 1.373 . S
C496 H524 0.930 . S
N497 C496 1.373 . S
N497 C499 1.340 . S
N498 C495 1.368 . S
N498 C499 1.321 . S
N498 Co501 2.135 . S
C499 N497 1.340 . S
C499 N498 1.321 . S
C499 H523 0.930 . S
H500 C495 0.931 . S
Co501 N498 2.135 . S
Co501 N504 2.121 . S
Co501 O509 2.055 . S
Co501 O512 2.039 . S
Co501 N515 2.140 . S
C502 O503 1.227 . S
C502 O512 1.265 . S
O503 C502 1.227 . S
N504 Co501 2.121 . S
N504 C506 1.375 . S
N504 C507 1.313 . S
C505 C506 1.338 . S
C505 N508 1.377 . S
C505 H525 0.930 . S
C506 N504 1.375 . S
C506 C505 1.338 . S
C506 H510 0.931 . S
C507 N504 1.313 . S
C507 N508 1.344 . S
C507 H511 0.930 . S
N508 C505 1.377 . S
N508 C507 1.344 . S
O509 Co501 2.055 . S
O509 C513 1.253 . S
H510 C506 0.931 . S
H511 C507 0.930 . S
O512 Co501 2.039 . S
O512 C502 1.265 . S
C513 O509 1.253 . S
C513 O514 1.227 . S
O514 C513 1.227 . S
N515 Co501 2.140 . S
N515 C518 1.346 . S
N515 C519 1.345 . S
C516 C517 1.387 . S
C516 C520 1.391 . S
C517 C516 1.387 . S
C517 C518 1.369 . S
C517 H526 0.929 . S
C518 N515 1.346 . S
C518 C517 1.369 . S
C518 H521 0.928 . S
C519 N515 1.345 . S
C519 C520 1.371 . S
C519 H522 0.931 . S
C520 C516 1.391 . S
C520 C519 1.371 . S
C520 H527 0.930 . S
H521 C518 0.928 . S
H522 C519 0.931 . S
H523 C499 0.930 . S
H524 C496 0.930 . S
H525 C505 0.930 . S
H526 C517 0.929 . S
H527 C520 0.930 . S
C528 C529 1.391 . S
C528 C530 1.394 . S
C528 H544 0.931 . S
C529 C528 1.391 . S
C529 C533 1.376 . S
C530 C528 1.394 . S
C530 C531 1.369 . S
C530 C534 1.531 . S
C531 C530 1.369 . S
C531 C532 1.410 . S
C531 C539 1.503 . S
C532 C531 1.410 . S
C532 C533 1.392 . S
C532 C535 1.511 . S
C533 C529 1.376 . S
C533 C532 1.392 . S
C533 H545 0.929 . S
C534 C530 1.531 . S
C534 H546 0.960 . S
C534 H547 0.962 . S
C534 H548 0.960 1_545 S
C535 C532 1.511 . S
C535 H549 0.961 . S
C535 H550 0.961 . S
C535 H551 0.961 . S
C536 C537 1.370 . S
C536 C538 1.363 . S
C536 H552 0.931 . S
C537 C536 1.370 . S
C537 C541 1.408 . S
C538 C536 1.363 . S
C538 C539 1.370 . S
C538 C542 1.524 . S
C539 C531 1.503 . S
C539 C538 1.370 . S
C539 C540 1.403 . S
C540 C539 1.403 . S
C540 C541 1.404 . S
C540 C543 1.539 . S
C541 C537 1.408 . S
C541 C540 1.404 . S
C541 H553 0.930 . S
C542 C538 1.524 . S
C542 H554 0.956 . S
C542 H555 0.961 . S
C542 H556 0.961 . S
C543 C540 1.539 . S
C543 H557 0.958 . S
C543 H558 0.961 . S
C543 H559 0.960 . S
H544 C528 0.931 . S
H545 C533 0.929 . S
H546 C534 0.960 . S
H547 C534 0.962 . S
H548 C534 0.960 1_565 S
H549 C535 0.961 . S
H550 C535 0.961 . S
H551 C535 0.961 . S
H552 C536 0.931 . S
H553 C541 0.930 . S
H554 C542 0.956 . S
H555 C542 0.961 . S
H556 C542 0.961 . S
H557 C543 0.958 . S
H558 C543 0.961 . S
H559 C543 0.960 . S
C560 C561 1.391 . S
C560 C562 1.394 . S
C560 H576 0.931 . S
C561 C560 1.391 . S
C561 C565 1.376 . S
C562 C560 1.394 . S
C562 C563 1.369 . S
C562 C566 1.531 . S
C563 C562 1.369 . S
C563 C564 1.410 . S
C563 C571 1.503 . S
C564 C563 1.410 . S
C564 C565 1.392 . S
C564 C567 1.511 . S
C565 C561 1.376 . S
C565 C564 1.392 . S
C565 H577 0.929 . S
C566 C562 1.531 . S
C566 H578 0.960 . S
C566 H579 0.962 . S
C566 H580 0.960 . S
C567 C564 1.511 . S
C567 H581 0.961 . S
C567 H582 0.961 . S
C567 H583 0.961 . S
C568 C569 1.370 . S
C568 C570 1.363 . S
C568 H584 0.931 . S
C569 C568 1.370 . S
C569 C573 1.408 . S
C570 C568 1.363 . S
C570 C571 1.370 . S
C570 C574 1.524 . S
C571 C563 1.503 . S
C571 C570 1.370 . S
C571 C572 1.403 . S
C572 C571 1.403 . S
C572 C573 1.404 . S
C572 C575 1.539 . S
C573 C569 1.408 . S
C573 C572 1.404 . S
C573 H585 0.930 . S
C574 C570 1.524 . S
C574 H586 0.956 . S
C574 H587 0.961 . S
C574 H588 0.961 . S
C575 C572 1.539 . S
C575 H589 0.958 . S
C575 H590 0.961 . S
C575 H591 0.960 . S
H576 C560 0.931 . S
H577 C565 0.929 . S
H578 C566 0.960 . S
H579 C566 0.962 . S
H580 C566 0.960 . S
H581 C567 0.961 . S
H582 C567 0.961 . S
H583 C567 0.961 . S
H584 C568 0.931 . S
H585 C573 0.930 . S
H586 C574 0.956 . S
H587 C574 0.961 . S
H588 C574 0.961 . S
H589 C575 0.958 . S
H590 C575 0.961 . S
H591 C575 0.960 . S
C592 C593 1.391 . S
C592 C594 1.394 . S
C592 H608 0.931 . S
C593 C592 1.391 . S
C593 C597 1.376 . S
C594 C592 1.394 . S
C594 C595 1.369 . S
C594 C598 1.531 . S
C595 C594 1.369 . S
C595 C596 1.410 . S
C595 C603 1.503 . S
C596 C595 1.410 . S
C596 C597 1.392 . S
C596 C599 1.511 . S
C597 C593 1.376 . S
C597 C596 1.392 . S
C597 H609 0.929 . S
C598 C594 1.531 . S
C598 H610 0.960 . S
C598 H611 0.962 . S
C598 H612 0.960 . S
C599 C596 1.511 . S
C599 H613 0.961 . S
C599 H614 0.961 . S
C599 H615 0.961 . S
C600 C601 1.370 . S
C600 C602 1.363 . S
C600 H616 0.931 . S
C601 C600 1.370 . S
C601 C605 1.408 . S
C602 C600 1.363 . S
C602 C603 1.370 . S
C602 C606 1.524 . S
C603 C595 1.503 . S
C603 C602 1.370 . S
C603 C604 1.403 . S
C604 C603 1.403 . S
C604 C605 1.404 . S
C604 C607 1.539 . S
C605 C601 1.408 . S
C605 C604 1.404 . S
C605 H617 0.930 . S
C606 C602 1.524 . S
C606 H618 0.956 . S
C606 H619 0.961 . S
C606 H620 0.961 . S
C607 C604 1.539 . S
C607 H621 0.958 . S
C607 H622 0.961 . S
C607 H623 0.960 . S
H608 C592 0.931 . S
H609 C597 0.929 . S
H610 C598 0.960 . S
H611 C598 0.962 . S
H612 C598 0.960 . S
H613 C599 0.961 . S
H614 C599 0.961 . S
H615 C599 0.961 . S
H616 C600 0.931 . S
H617 C605 0.930 . S
H618 C606 0.956 . S
H619 C606 0.961 . S
H620 C606 0.961 . S
H621 C607 0.958 . S
H622 C607 0.961 . S
H623 C607 0.960 . S
C624 C625 1.391 . S
C624 C626 1.394 . S
C624 H640 0.931 . S
C625 C624 1.391 . S
C625 C629 1.376 . S
C626 C624 1.394 . S
C626 C627 1.369 . S
C626 C630 1.531 . S
C627 C626 1.369 . S
C627 C628 1.410 . S
C627 C635 1.503 . S
C628 C627 1.410 . S
C628 C629 1.392 . S
C628 C631 1.511 . S
C629 C625 1.376 . S
C629 C628 1.392 . S
C629 H641 0.929 . S
C630 C626 1.531 . S
C630 H642 0.960 . S
C630 H643 0.962 . S
C630 H644 0.960 . S
C631 C628 1.511 . S
C631 H645 0.961 . S
C631 H646 0.961 . S
C631 H647 0.961 . S
C632 C633 1.370 . S
C632 C634 1.363 . S
C632 H648 0.931 . S
C633 C632 1.370 . S
C633 C637 1.408 . S
C634 C632 1.363 . S
C634 C635 1.370 . S
C634 C638 1.524 . S
C635 C627 1.503 . S
C635 C634 1.370 . S
C635 C636 1.403 . S
C636 C635 1.403 . S
C636 C637 1.404 . S
C636 C639 1.539 . S
C637 C633 1.408 . S
C637 C636 1.404 . S
C637 H649 0.930 . S
C638 C634 1.524 . S
C638 H650 0.956 . S
C638 H651 0.961 . S
C638 H652 0.961 . S
C639 C636 1.539 . S
C639 H653 0.958 . S
C639 H654 0.961 . S
C639 H655 0.960 . S
H640 C624 0.931 . S
H641 C629 0.929 . S
H642 C630 0.960 . S
H643 C630 0.962 . S
H644 C630 0.960 . S
H645 C631 0.961 . S
H646 C631 0.961 . S
H647 C631 0.961 . S
H648 C632 0.931 . S
H649 C637 0.930 . S
H650 C638 0.956 . S
H651 C638 0.961 . S
H652 C638 0.961 . S
H653 C639 0.958 . S
H654 C639 0.961 . S
H655 C639 0.960 . S
C656 C657 1.391 . S
C656 C658 1.394 . S
C656 H672 0.931 . S
C657 C656 1.391 . S
C657 C661 1.376 . S
C658 C656 1.394 . S
C658 C659 1.369 . S
C658 C662 1.531 . S
C659 C658 1.369 . S
C659 C660 1.410 . S
C659 C667 1.503 . S
C660 C659 1.410 . S
C660 C661 1.392 . S
C660 C663 1.511 . S
C661 C657 1.376 . S
C661 C660 1.392 . S
C661 H673 0.929 . S
C662 C658 1.531 . S
C662 H674 0.960 . S
C662 H675 0.962 . S
C662 H676 0.960 . S
C663 C660 1.511 . S
C663 H677 0.961 . S
C663 H678 0.961 . S
C663 H679 0.961 . S
C664 C665 1.370 . S
C664 C666 1.363 . S
C664 H680 0.931 . S
C665 C664 1.370 . S
C665 C669 1.408 . S
C666 C664 1.363 . S
C666 C667 1.370 . S
C666 C670 1.524 . S
C667 C659 1.503 . S
C667 C666 1.370 . S
C667 C668 1.403 . S
C668 C667 1.403 . S
C668 C669 1.404 . S
C668 C671 1.539 . S
C669 C665 1.408 . S
C669 C668 1.404 . S
C669 H681 0.930 . S
C670 C666 1.524 . S
C670 H682 0.956 . S
C670 H683 0.961 . S
C670 H684 0.988 . S
C671 C668 1.539 . S
C671 H685 0.958 . S
C671 H686 0.961 . S
C671 H687 0.960 . S
H672 C656 0.931 . S
H673 C661 0.929 . S
H674 C662 0.960 . S
H675 C662 0.962 . S
H676 C662 0.960 . S
H677 C663 0.961 . S
H678 C663 0.961 . S
H679 C663 0.961 . S
H680 C664 0.931 . S
H681 C669 0.930 . S
H682 C670 0.956 . S
H683 C670 0.961 . S
H684 C670 0.988 . S
H685 C671 0.958 . S
H686 C671 0.961 . S
H687 C671 0.960 . S
C688 C689 1.391 . S
C688 C690 1.394 . S
C688 H704 0.931 . S
C689 C688 1.391 . S
C689 C693 1.376 . S
C690 C688 1.394 . S
C690 C691 1.369 . S
C690 C694 1.531 . S
C691 C690 1.369 . S
C691 C692 1.410 . S
C691 C699 1.503 . S
C692 C691 1.410 . S
C692 C693 1.392 . S
C692 C695 1.511 . S
C693 C689 1.376 . S
C693 C692 1.392 . S
C693 H705 0.929 . S
C694 C690 1.531 . S
C694 H706 0.960 . S
C694 H707 0.962 . S
C694 H708 0.960 . S
C695 C692 1.511 . S
C695 H709 0.961 . S
C695 H710 0.961 . S
C695 H711 0.961 . S
C696 C697 1.370 . S
C696 C698 1.363 . S
C696 H712 0.931 . S
C697 C696 1.370 . S
C697 C701 1.408 . S
C698 C696 1.363 . S
C698 C699 1.370 . S
C698 C702 1.524 . S
C699 C691 1.503 . S
C699 C698 1.370 . S
C699 C700 1.403 . S
C700 C699 1.403 . S
C700 C701 1.404 . S
C700 C703 1.539 . S
C701 C697 1.408 . S
C701 C700 1.404 . S
C701 H713 0.930 . S
C702 C698 1.524 . S
C702 H714 0.956 . S
C702 H715 0.961 . S
C702 H716 0.961 . S
C703 C700 1.539 . S
C703 H717 0.958 . S
C703 H718 0.961 . S
C703 H719 0.960 . S
H704 C688 0.931 . S
H705 C693 0.929 . S
H706 C694 0.960 . S
H707 C694 0.962 . S
H708 C694 0.960 . S
H709 C695 0.961 . S
H710 C695 0.961 . S
H711 C695 0.961 . S
H712 C696 0.931 . S
H713 C701 0.930 . S
H714 C702 0.956 . S
H715 C702 0.961 . S
H716 C702 0.961 . S
H717 C703 0.958 . S
H718 C703 0.961 . S
H719 C703 0.960 . S
C720 C721 1.391 . S
C720 C722 1.394 . S
C720 H736 0.931 . S
C721 C720 1.391 . S
C721 C725 1.376 . S
C722 C720 1.394 . S
C722 C723 1.369 . S
C722 C726 1.531 . S
C723 C722 1.369 . S
C723 C724 1.410 . S
C723 C731 1.503 . S
C724 C723 1.410 . S
C724 C725 1.392 . S
C724 C727 1.511 . S
C725 C721 1.376 . S
C725 C724 1.392 . S
C725 H737 0.929 . S
C726 C722 1.531 . S
C726 H738 0.960 . S
C726 H739 0.962 . S
C726 H740 0.960 . S
C727 C724 1.511 . S
C727 H741 0.961 . S
C727 H742 0.961 . S
C727 H743 0.961 . S
C728 C729 1.370 . S
C728 C730 1.363 . S
C728 H744 0.931 . S
C729 C728 1.370 . S
C729 C733 1.408 . S
C730 C728 1.363 . S
C730 C731 1.370 . S
C730 C734 1.524 . S
C731 C723 1.503 . S
C731 C730 1.370 . S
C731 C732 1.403 . S
C732 C731 1.403 . S
C732 C733 1.404 . S
C732 C735 1.539 . S
C733 C729 1.408 . S
C733 C732 1.404 . S
C733 H745 0.930 . S
C734 C730 1.524 . S
C734 H746 0.956 . S
C734 H747 0.961 . S
C734 H748 0.961 . S
C735 C732 1.539 . S
C735 H749 0.958 . S
C735 H750 0.961 . S
C735 H751 0.960 . S
H736 C720 0.931 . S
H737 C725 0.929 . S
H738 C726 0.960 . S
H739 C726 0.962 . S
H740 C726 0.960 . S
H741 C727 0.961 . S
H742 C727 0.961 . S
H743 C727 0.961 . S
H744 C728 0.931 . S
H745 C733 0.930 . S
H746 C734 0.956 . S
H747 C734 0.961 . S
H748 C734 0.961 . S
H749 C735 0.958 . S
H750 C735 0.961 . S
H751 C735 0.960 . S
C752 C753 1.391 . S
C752 C754 1.394 . S
C752 H768 0.931 . S
C753 C752 1.391 . S
C753 C757 1.376 . S
C754 C752 1.394 . S
C754 C755 1.369 . S
C754 C758 1.531 . S
C755 C754 1.369 . S
C755 C756 1.410 . S
C755 C763 1.503 . S
C756 C755 1.410 . S
C756 C757 1.392 . S
C756 C759 1.511 . S
C757 C753 1.376 . S
C757 C756 1.392 . S
C757 H769 0.929 . S
C758 C754 1.531 . S
C758 H770 0.960 . S
C758 H771 0.962 . S
C758 H772 0.960 . S
C759 C756 1.511 . S
C759 H773 0.961 . S
C759 H774 0.961 . S
C759 H775 0.961 . S
C760 C761 1.370 . S
C760 C762 1.363 . S
C760 H776 0.931 . S
C761 C760 1.370 . S
C761 C765 1.408 . S
C762 C760 1.363 . S
C762 C763 1.370 . S
C762 C766 1.524 . S
C763 C755 1.503 . S
C763 C762 1.370 . S
C763 C764 1.403 . S
C764 C763 1.403 . S
C764 C765 1.404 . S
C764 C767 1.539 . S
C765 C761 1.408 . S
C765 C764 1.404 . S
C765 H777 0.930 . S
C766 C762 1.524 . S
C766 H778 0.956 . S
C766 H779 0.961 . S
C766 H780 0.961 . S
C767 C764 1.539 . S
C767 H781 0.958 . S
C767 H782 0.961 . S
C767 H783 0.960 . S
H768 C752 0.931 . S
H769 C757 0.929 . S
H770 C758 0.960 . S
H771 C758 0.962 . S
H772 C758 0.960 . S
H773 C759 0.961 . S
H774 C759 0.961 . S
H775 C759 0.961 . S
H776 C760 0.931 . S
H777 C765 0.930 . S
H778 C766 0.956 . S
H779 C766 0.961 . S
H780 C766 0.961 . S
H781 C767 0.958 . S
H782 C767 0.961 . S
H783 C767 0.960 . S
C784 C785 1.391 1_545 S
C784 C786 1.394 . S
C784 H800 0.931 . S
C785 C784 1.391 1_565 S
C785 C789 1.376 . S
C786 C784 1.394 . S
C786 C787 1.369 1_545 S
C786 C790 1.531 1_556 S
C787 C786 1.369 1_565 S
C787 C788 1.410 . S
C787 C795 1.503 1_556 S
C788 C787 1.410 . S
C788 C789 1.392 . S
C788 C791 1.511 . S
C789 C785 1.376 . S
C789 C788 1.392 . S
C789 H801 0.929 . S
C790 C786 1.531 1_554 S
C790 H802 0.960 . S
C790 H803 0.962 . S
C790 H804 0.960 . S
C791 C788 1.511 . S
C791 H805 0.961 . S
C791 H806 0.961 . S
C791 H807 0.961 . S
C792 C793 1.370 . S
C792 C794 1.363 . S
C792 H808 0.931 . S
C793 C792 1.370 . S
C793 C797 1.408 1_545 S
C794 C792 1.363 . S
C794 C795 1.370 1_545 S
C794 C798 1.524 1_554 S
C795 C787 1.503 1_554 S
C795 C794 1.370 1_565 S
C795 C796 1.403 . S
C796 C795 1.403 . S
C796 C797 1.404 . S
C796 C799 1.539 . S
C797 C793 1.408 1_565 S
C797 C796 1.404 . S
C797 H809 0.930 . S
C798 C794 1.524 1_556 S
C798 H810 0.956 . S
C798 H811 0.961 . S
C798 H812 0.961 . S
C799 C796 1.539 . S
C799 H813 0.958 . S
C799 H814 0.961 . S
C799 H815 0.960 . S
H800 C784 0.931 . S
H801 C789 0.929 . S
H802 C790 0.960 . S
H803 C790 0.962 . S
H804 C790 0.960 . S
H805 C791 0.961 . S
H806 C791 0.961 . S
H807 C791 0.961 . S
H808 C792 0.931 . S
H809 C797 0.930 . S
H810 C798 0.956 . S
H811 C798 0.961 . S
H812 C798 0.961 . S
H813 C799 0.958 . S
H814 C799 0.961 . S
H815 C799 0.960 . S
C816 C817 1.391 . S
C816 C818 1.394 . S
C816 H832 0.931 . S
C817 C816 1.391 . S
C817 C821 1.376 . S
C818 C816 1.394 . S
C818 C819 1.369 . S
C818 C822 1.531 . S
C819 C818 1.369 . S
C819 C820 1.410 . S
C819 C827 1.503 1_556 S
C820 C819 1.410 . S
C820 C821 1.392 . S
C820 C823 1.511 1_556 S
C821 C817 1.376 . S
C821 C820 1.392 . S
C821 H833 0.929 . S
C822 C818 1.531 . S
C822 H834 0.960 . S
C822 H835 0.962 . S
C822 H836 0.960 . S
C823 C820 1.511 1_554 S
C823 H837 0.961 . S
C823 H838 0.961 . S
C823 H839 0.961 . S
C824 C825 1.370 . S
C824 C826 1.363 . S
C824 H840 0.931 . S
C825 C824 1.370 . S
C825 C829 1.408 . S
C826 C824 1.363 . S
C826 C827 1.370 . S
C826 C830 1.524 . S
C827 C819 1.503 1_554 S
C827 C826 1.370 . S
C827 C828 1.403 . S
C828 C827 1.403 . S
C828 C829 1.404 . S
C828 C831 1.539 1_554 S
C829 C825 1.408 . S
C829 C828 1.404 . S
C829 H841 0.930 . S
C830 C826 1.524 . S
C830 H842 0.956 . S
C830 H843 0.961 . S
C830 H844 0.961 . S
C831 C828 1.539 1_556 S
C831 H845 0.958 . S
C831 H846 0.961 . S
C831 H847 0.960 . S
H832 C816 0.931 . S
H833 C821 0.929 . S
H834 C822 0.960 . S
H835 C822 0.962 . S
H836 C822 0.960 . S
H837 C823 0.961 . S
H838 C823 0.961 . S
H839 C823 0.961 . S
H840 C824 0.931 . S
H841 C829 0.930 . S
H842 C830 0.956 . S
H843 C830 0.961 . S
H844 C830 0.961 . S
H845 C831 0.958 . S
H846 C831 0.961 . S
H847 C831 0.960 . S
C848 C849 1.391 . S
C848 C850 1.394 . S
C848 H864 0.931 . S
C849 C848 1.391 . S
C849 C853 1.376 . S
C850 C848 1.394 . S
C850 C851 1.369 . S
C850 C854 1.531 1_556 S
C851 C850 1.369 . S
C851 C852 1.410 . S
C851 C859 1.503 1_456 S
C852 C851 1.410 . S
C852 C853 1.392 . S
C852 C855 1.511 1_455 S
C853 C849 1.376 . S
C853 C852 1.392 . S
C853 H865 0.929 . S
C854 C850 1.531 1_554 S
C854 H866 0.980 . S
C854 H867 0.962 . S
C854 H868 0.961 1_554 S
C855 C852 1.511 1_655 S
C855 H869 0.961 1_655 S
C855 H870 0.961 . S
C855 H871 0.961 . S
C856 C857 1.370 . S
C856 C858 1.363 . S
C856 H872 0.931 . S
C857 C856 1.370 . S
C857 C861 1.408 . S
C858 C856 1.363 . S
C858 C859 1.370 . S
C858 C862 1.524 1_655 S
C859 C851 1.503 1_654 S
C859 C858 1.370 . S
C859 C860 1.403 . S
C860 C859 1.403 . S
C860 C861 1.404 . S
C860 C863 1.539 1_554 S
C861 C857 1.408 . S
C861 C860 1.404 . S
C861 H873 0.930 . S
C862 C858 1.524 1_455 S
C862 H874 0.956 . S
C862 H875 0.961 . S
C862 H876 0.961 . S
C863 C860 1.539 1_556 S
C863 H877 0.958 . S
C863 H878 0.961 . S
C863 H879 0.960 . S
H864 C848 0.931 . S
H865 C853 0.929 . S
H866 C854 0.980 . S
H867 C854 0.962 . S
H868 C854 0.961 1_556 S
H869 C855 0.961 1_455 S
H870 C855 0.961 . S
H871 C855 0.961 . S
H872 C856 0.931 . S
H873 C861 0.930 . S
H874 C862 0.956 . S
H875 C862 0.961 . S
H876 C862 0.961 . S
H877 C863 0.958 . S
H878 C863 0.961 . S
H879 C863 0.960 . S
C880 C881 1.391 . S
C880 C882 1.394 . S
C880 H896 0.931 . S
C881 C880 1.391 . S
C881 C885 1.376 1_655 S
C882 C880 1.394 . S
C882 C883 1.369 1_655 S
C882 C886 1.531 1_545 S
C883 C882 1.369 1_455 S
C883 C884 1.410 . S
C883 C891 1.503 1_546 S
C884 C883 1.410 . S
C884 C885 1.392 . S
C884 C887 1.511 1_556 S
C885 C881 1.376 1_455 S
C885 C884 1.392 . S
C885 H897 0.929 . S
C886 C882 1.531 1_565 S
C886 H898 0.960 . S
C886 H899 0.962 . S
C886 H900 0.960 . S
C887 C884 1.511 1_554 S
C887 H901 0.961 . S
C887 H902 0.961 . S
C887 H903 0.961 . S
C888 C889 1.370 1_655 S
C888 C890 1.363 . S
C888 H904 0.931 . S
C889 C888 1.370 1_455 S
C889 C893 1.408 . S
C890 C888 1.363 . S
C890 C891 1.370 1_655 S
C890 C894 1.526 . S
C891 C883 1.503 1_564 S
C891 C890 1.370 1_455 S
C891 C892 1.403 . S
C892 C891 1.403 . S
C892 C893 1.404 . S
C892 C895 1.539 1_554 S
C893 C889 1.408 . S
C893 C892 1.404 . S
C893 H905 0.930 . S
C894 C890 1.526 . S
C894 H906 0.956 . S
C894 H907 0.957 1_565 S
C894 H908 0.962 . S
C895 C892 1.539 1_556 S
C895 H909 0.958 . S
C895 H910 0.961 1_556 S
C895 H911 0.960 . S
H896 C880 0.931 . S
H897 C885 0.929 . S
H898 C886 0.960 . S
H899 C886 0.962 . S
H900 C886 0.960 . S
H901 C887 0.961 . S
H902 C887 0.961 . S
H903 C887 0.961 . S
H904 C888 0.931 . S
H905 C893 0.930 . S
H906 C894 0.956 . S
H907 C894 0.957 1_545 S
H908 C894 0.962 . S
H909 C895 0.958 . S
H910 C895 0.961 1_554 S
H911 C895 0.960 . S
C912 C913 1.391 . S
C912 C914 1.394 . S
C912 H928 0.931 . S
C913 C912 1.391 . S
C913 C917 1.376 . S
C914 C912 1.394 . S
C914 C915 1.369 . S
C914 C918 1.531 . S
C915 C914 1.369 . S
C915 C916 1.410 . S
C915 C923 1.503 . S
C916 C915 1.410 . S
C916 C917 1.392 . S
C916 C919 1.511 . S
C917 C913 1.376 . S
C917 C916 1.392 . S
C917 H929 0.929 . S
C918 C914 1.531 . S
C918 H930 0.960 . S
C918 H931 0.962 . S
C918 H932 0.960 . S
C919 C916 1.511 . S
C919 H933 0.961 . S
C919 H934 0.961 . S
C919 H935 0.961 . S
C920 C921 1.370 . S
C920 C922 1.363 . S
C920 H936 0.931 . S
C921 C920 1.370 . S
C921 C925 1.408 . S
C922 C920 1.363 . S
C922 C923 1.370 . S
C922 C926 1.524 . S
C923 C915 1.503 . S
C923 C922 1.370 . S
C923 C924 1.403 . S
C924 C923 1.403 . S
C924 C925 1.404 . S
C924 C927 1.539 . S
C925 C921 1.408 . S
C925 C924 1.404 . S
C925 H937 0.930 . S
C926 C922 1.524 . S
C926 H938 0.956 . S
C926 H939 0.961 . S
C926 H940 0.961 . S
C927 C924 1.539 . S
C927 H941 0.958 . S
C927 H942 0.961 . S
C927 H943 0.960 . S
H928 C912 0.931 . S
H929 C917 0.929 . S
H930 C918 0.960 . S
H931 C918 0.962 . S
H932 C918 0.960 . S
H933 C919 0.961 . S
H934 C919 0.961 . S
H935 C919 0.961 . S
H936 C920 0.931 . S
H937 C925 0.930 . S
H938 C926 0.956 . S
H939 C926 0.961 . S
H940 C926 0.961 . S
H941 C927 0.958 . S
H942 C927 0.961 . S
H943 C927 0.960 . S
C944 C945 1.391 1_455 S
C944 C946 1.394 . S
C944 H960 0.931 . S
C945 C944 1.391 1_655 S
C945 C949 1.376 . S
C946 C944 1.394 . S
C946 C947 1.369 1_455 S
C946 C950 1.531 . S
C947 C946 1.369 1_655 S
C947 C948 1.410 . S
C947 C955 1.504 . S
C948 C947 1.410 . S
C948 C949 1.392 . S
C948 C951 1.511 . S
C949 C945 1.376 . S
C949 C948 1.392 . S
C949 H961 0.929 . S
C950 C946 1.531 . S
C950 H962 0.960 . S
C950 H963 0.962 . S
C950 H964 0.960 . S
C951 C948 1.511 . S
C951 H965 0.961 . S
C951 H966 0.961 . S
C951 H967 0.961 . S
C952 C953 1.370 . S
C952 C954 1.363 . S
C952 H968 0.931 . S
C953 C952 1.370 . S
C953 C957 1.408 1_455 S
C954 C952 1.363 . S
C954 C955 1.369 1_455 S
C954 C958 1.524 . S
C955 C947 1.504 . S
C955 C954 1.369 1_655 S
C955 C956 1.403 . S
C956 C955 1.403 . S
C956 C957 1.404 . S
C956 C959 1.539 . S
C957 C953 1.408 1_655 S
C957 C956 1.404 . S
C957 H969 0.930 . S
C958 C954 1.524 . S
C958 H970 0.956 . S
C958 H971 0.973 . S
C958 H972 0.961 . S
C959 C956 1.539 . S
C959 H973 0.958 . S
C959 H974 0.961 . S
C959 H975 0.960 . S
H960 C944 0.931 . S
H961 C949 0.929 . S
H962 C950 0.960 . S
H963 C950 0.962 . S
H964 C950 0.960 . S
H965 C951 0.961 . S
H966 C951 0.961 . S
H967 C951 0.961 . S
H968 C952 0.931 . S
H969 C957 0.930 . S
H970 C958 0.956 . S
H971 C958 0.973 . S
H972 C958 0.961 . S
H973 C959 0.958 . S
H974 C959 0.961 . S
H975 C959 0.960 . S
C976 C977 1.391 1_565 S
C976 C978 1.394 . S
C976 H992 0.931 . S
C977 C976 1.391 1_545 S
C977 C981 1.376 . S
C978 C976 1.394 . S
C978 C979 1.369 1_565 S
C978 C982 1.531 1_655 S
C979 C978 1.369 1_545 S
C979 C980 1.410 . S
C979 C987 1.503 1_655 S
C980 C979 1.410 . S
C980 C981 1.392 . S
C980 C983 1.511 . S
C981 C977 1.376 . S
C981 C980 1.392 . S
C981 H993 0.929 . S
C982 C978 1.531 1_455 S
C982 H994 0.960 . S
C982 H995 0.962 . S
C982 H996 0.960 . S
C983 C980 1.511 . S
C983 H997 0.961 . S
C983 H998 0.961 . S
C983 H999 0.961 . S
C984 C985 1.370 . S
C984 C986 1.363 . S
C984 H1000 0.931 . S
C985 C984 1.370 . S
C985 C989 1.408 1_565 S
C986 C984 1.363 . S
C986 C987 1.370 1_565 S
C986 C990 1.524 1_455 S
C987 C979 1.503 1_455 S
C987 C986 1.370 1_545 S
C987 C988 1.403 . S
C988 C987 1.403 . S
C988 C989 1.404 . S
C988 C991 1.539 . S
C989 C985 1.408 1_545 S
C989 C988 1.404 . S
C989 H1001 0.930 . S
C990 C986 1.524 1_655 S
C990 H1002 0.956 . S
C990 H1003 0.961 . S
C990 H1004 0.961 . S
C991 C988 1.539 . S
C991 H1005 0.958 . S
C991 H1006 0.961 . S
C991 H1007 0.960 . S
H992 C976 0.931 . S
H993 C981 0.929 . S
H994 C982 0.960 . S
H995 C982 0.962 . S
H996 C982 0.960 . S
H997 C983 0.961 . S
H998 C983 0.961 . S
H999 C983 0.961 . S
H1000 C984 0.931 . S
H1001 C989 0.930 . S
H1002 C990 0.956 . S
H1003 C990 0.961 . S
H1004 C990 0.961 . S
H1005 C991 0.958 . S
H1006 C991 0.961 . S
H1007 C991 0.960 . S
C1008 C1009 1.391 . S
C1008 C1010 1.394 . S
C1008 H1024 0.931 . S
C1009 C1008 1.391 . S
C1009 C1013 1.376 . S
C1010 C1008 1.394 . S
C1010 C1011 1.369 . S
C1010 C1014 1.531 1_565 S
C1011 C1010 1.369 . S
C1011 C1012 1.410 . S
C1011 C1019 1.503 1_565 S
C1012 C1011 1.410 . S
C1012 C1013 1.392 . S
C1012 C1015 1.511 . S
C1013 C1009 1.376 . S
C1013 C1012 1.392 . S
C1013 H1025 0.929 . S
C1014 C1010 1.531 1_545 S
C1014 H1026 0.960 . S
C1014 H1027 0.962 . S
C1014 H1028 0.960 . S
C1015 C1012 1.511 . S
C1015 H1029 0.961 . S
C1015 H1030 0.961 . S
C1015 H1031 0.961 . S
C1016 C1017 1.370 . S
C1016 C1018 1.363 . S
C1016 H1032 0.931 . S
C1017 C1016 1.370 . S
C1017 C1021 1.408 . S
C1018 C1016 1.363 . S
C1018 C1019 1.370 . S
C1018 C1022 1.524 1_545 S
C1019 C1011 1.503 1_545 S
C1019 C1018 1.370 . S
C1019 C1020 1.403 . S
C1020 C1019 1.403 . S
C1020 C1021 1.404 . S
C1020 C1023 1.539 . S
C1021 C1017 1.408 . S
C1021 C1020 1.404 . S
C1021 H1033 0.930 . S
C1022 C1018 1.524 1_565 S
C1022 H1034 0.956 . S
C1022 H1035 0.961 . S
C1022 H1036 0.961 . S
C1023 C1020 1.539 . S
C1023 H1037 0.958 . S
C1023 H1038 0.961 . S
C1023 H1039 0.960 . S
H1024 C1008 0.931 . S
H1025 C1013 0.929 . S
H1026 C1014 0.960 . S
H1027 C1014 0.962 . S
H1028 C1014 0.960 . S
H1029 C1015 0.961 . S
H1030 C1015 0.961 . S
H1031 C1015 0.961 . S
H1032 C1016 0.931 . S
H1033 C1021 0.930 . S
H1034 C1022 0.956 . S
H1035 C1022 0.961 . S
H1036 C1022 0.961 . S
H1037 C1023 0.958 . S
H1038 C1023 0.961 . S
H1039 C1023 0.960 . S
C1040 C1041 1.391 . S
C1040 C1042 1.394 . S
C1040 H1056 0.931 . S
C1041 C1040 1.391 . S
C1041 C1045 1.376 . S
C1042 C1040 1.394 . S
C1042 C1043 1.369 1_556 S
C1042 C1046 1.531 . S
C1043 C1042 1.369 1_554 S
C1043 C1044 1.410 . S
C1043 C1051 1.503 . S
C1044 C1043 1.410 . S
C1044 C1045 1.392 1_554 S
C1044 C1047 1.511 . S
C1045 C1041 1.376 . S
C1045 C1044 1.392 1_556 S
C1045 H1057 0.929 . S
C1046 C1042 1.531 . S
C1046 H1058 0.960 . S
C1046 H1059 0.962 . S
C1046 H1060 0.960 . S
C1047 C1044 1.511 . S
C1047 H1061 0.961 . S
C1047 H1062 0.961 . S
C1047 H1063 0.961 . S
C1048 C1049 1.370 . S
C1048 C1050 1.363 . S
C1048 H1064 0.931 . S
C1049 C1048 1.370 . S
C1049 C1053 1.408 . S
C1050 C1048 1.363 . S
C1050 C1051 1.370 . S
C1050 C1054 1.524 . S
C1051 C1043 1.503 . S
C1051 C1050 1.370 . S
C1051 C1052 1.403 . S
C1052 C1051 1.403 . S
C1052 C1053 1.404 . S
C1052 C1055 1.539 1_554 S
C1053 C1049 1.408 . S
C1053 C1052 1.404 . S
C1053 H1065 0.930 . S
C1054 C1050 1.524 . S
C1054 H1066 0.956 . S
C1054 H1067 0.961 . S
C1054 H1068 0.961 . S
C1055 C1052 1.539 1_556 S
C1055 H1069 0.958 . S
C1055 H1070 0.961 1_556 S
C1055 H1071 0.960 . S
H1056 C1040 0.931 . S
H1057 C1045 0.929 . S
H1058 C1046 0.960 . S
H1059 C1046 0.962 . S
H1060 C1046 0.960 . S
H1061 C1047 0.961 . S
H1062 C1047 0.961 . S
H1063 C1047 0.961 . S
H1064 C1048 0.931 . S
H1065 C1053 0.930 . S
H1066 C1054 0.956 . S
H1067 C1054 0.961 . S
H1068 C1054 0.961 . S
H1069 C1055 0.958 . S
H1070 C1055 0.961 1_554 S
H1071 C1055 0.960 . S
C1072 C1073 1.391 . S
C1072 C1074 1.394 . S
C1072 H1088 0.931 . S
C1073 C1072 1.391 . S
C1073 C1077 1.376 . S
C1074 C1072 1.394 . S
C1074 C1075 1.369 1_556 S
C1074 C1078 1.531 . S
C1075 C1074 1.369 1_554 S
C1075 C1076 1.410 . S
C1075 C1083 1.503 . S
C1076 C1075 1.410 . S
C1076 C1077 1.392 1_554 S
C1076 C1079 1.511 . S
C1077 C1073 1.376 . S
C1077 C1076 1.392 1_556 S
C1077 H1089 0.929 . S
C1078 C1074 1.531 . S
C1078 H1090 0.960 . S
C1078 H1091 0.962 . S
C1078 H1092 0.960 . S
C1079 C1076 1.511 . S
C1079 H1093 0.961 . S
C1079 H1094 0.961 . S
C1079 H1095 0.961 . S
C1080 C1081 1.370 . S
C1080 C1082 1.363 . S
C1080 H1096 0.931 . S
C1081 C1080 1.370 . S
C1081 C1085 1.408 . S
C1082 C1080 1.363 . S
C1082 C1083 1.370 . S
C1082 C1086 1.524 . S
C1083 C1075 1.503 . S
C1083 C1082 1.370 . S
C1083 C1084 1.403 . S
C1084 C1083 1.403 . S
C1084 C1085 1.404 . S
C1084 C1087 1.547 . S
C1085 C1081 1.408 . S
C1085 C1084 1.404 . S
C1085 H1097 0.930 . S
C1086 C1082 1.524 . S
C1086 H1098 0.956 . S
C1086 H1099 0.961 . S
C1086 H1100 0.961 . S
C1087 C1084 1.547 . S
C1087 H1101 0.948 1_554 S
C1087 H1102 0.966 . S
C1087 H1103 0.957 1_554 S
H1088 C1072 0.931 . S
H1089 C1077 0.929 . S
H1090 C1078 0.960 . S
H1091 C1078 0.962 . S
H1092 C1078 0.960 . S
H1093 C1079 0.961 . S
H1094 C1079 0.961 . S
H1095 C1079 0.961 . S
H1096 C1080 0.931 . S
H1097 C1085 0.930 . S
H1098 C1086 0.956 . S
H1099 C1086 0.961 . S
H1100 C1086 0.961 . S
H1101 C1087 0.948 1_556 S
H1102 C1087 0.966 . S
H1103 C1087 0.957 1_556 S
C1104 C1105 1.391 . S
C1104 C1106 1.394 1_556 S
C1104 H1120 0.931 . S
C1105 C1104 1.391 . S
C1105 C1109 1.376 . S
C1106 C1104 1.394 1_554 S
C1106 C1107 1.369 . S
C1106 C1110 1.531 . S
C1107 C1106 1.369 . S
C1107 C1108 1.410 1_554 S
C1107 C1115 1.503 . S
C1108 C1107 1.410 1_556 S
C1108 C1109 1.392 . S
C1108 C1111 1.511 . S
C1109 C1105 1.376 . S
C1109 C1108 1.392 . S
C1109 H1121 0.929 . S
C1110 C1106 1.531 . S
C1110 H1122 0.960 . S
C1110 H1123 0.962 . S
C1110 H1124 0.960 . S
C1111 C1108 1.511 . S
C1111 H1125 0.961 . S
C1111 H1126 0.961 . S
C1111 H1127 0.961 . S
C1112 C1113 1.370 . S
C1112 C1114 1.363 . S
C1112 H1128 0.931 . S
C1113 C1112 1.370 . S
C1113 C1117 1.408 . S
C1114 C1112 1.363 . S
C1114 C1115 1.370 . S
C1114 C1118 1.524 1_554 S
C1115 C1107 1.503 . S
C1115 C1114 1.370 . S
C1115 C1116 1.403 . S
C1116 C1115 1.403 . S
C1116 C1117 1.404 . S
C1116 C1119 1.539 . S
C1117 C1113 1.408 . S
C1117 C1116 1.404 . S
C1117 H1129 0.930 . S
C1118 C1114 1.524 1_556 S
C1118 H1130 0.954 1_556 S
C1118 H1131 0.961 . S
C1118 H1132 0.961 . S
C1119 C1116 1.539 . S
C1119 H1133 0.958 . S
C1119 H1134 0.961 . S
C1119 H1135 0.960 . S
H1120 C1104 0.931 . S
H1121 C1109 0.929 . S
H1122 C1110 0.960 . S
H1123 C1110 0.962 . S
H1124 C1110 0.960 . S
H1125 C1111 0.961 . S
H1126 C1111 0.961 . S
H1127 C1111 0.961 . S
H1128 C1112 0.931 . S
H1129 C1117 0.930 . S
H1130 C1118 0.954 1_554 S
H1131 C1118 0.961 . S
H1132 C1118 0.961 . S
H1133 C1119 0.958 . S
H1134 C1119 0.961 . S
H1135 C1119 0.960 . S
C1136 C1137 1.391 . S
C1136 C1138 1.394 . S
C1136 H1152 0.931 . S
C1137 C1136 1.391 . S
C1137 C1141 1.376 . S
C1138 C1136 1.394 . S
C1138 C1139 1.369 1_556 S
C1138 C1142 1.531 . S
C1139 C1138 1.369 1_554 S
C1139 C1140 1.410 . S
C1139 C1147 1.503 . S
C1140 C1139 1.410 . S
C1140 C1141 1.392 1_554 S
C1140 C1143 1.511 . S
C1141 C1137 1.376 . S
C1141 C1140 1.392 1_556 S
C1141 H1153 0.929 . S
C1142 C1138 1.531 . S
C1142 H1154 0.960 . S
C1142 H1155 0.962 . S
C1142 H1156 0.960 . S
C1143 C1140 1.511 . S
C1143 H1157 0.961 . S
C1143 H1158 0.961 . S
C1143 H1159 0.961 . S
C1144 C1145 1.370 . S
C1144 C1146 1.363 . S
C1144 H1160 0.931 . S
C1145 C1144 1.370 . S
C1145 C1149 1.408 . S
C1146 C1144 1.363 . S
C1146 C1147 1.370 . S
C1146 C1150 1.524 . S
C1147 C1139 1.503 . S
C1147 C1146 1.370 . S
C1147 C1148 1.403 . S
C1148 C1147 1.403 . S
C1148 C1149 1.404 . S
C1148 C1151 1.541 1_554 S
C1149 C1145 1.408 . S
C1149 C1148 1.404 . S
C1149 H1161 0.930 . S
C1150 C1146 1.524 . S
C1150 H1162 0.956 . S
C1150 H1163 0.961 . S
C1150 H1164 0.961 . S
C1151 C1148 1.541 1_556 S
C1151 H1165 0.956 . S
C1151 H1166 0.962 1_556 S
C1151 H1167 0.959 . S
H1152 C1136 0.931 . S
H1153 C1141 0.929 . S
H1154 C1142 0.960 . S
H1155 C1142 0.962 . S
H1156 C1142 0.960 . S
H1157 C1143 0.961 . S
H1158 C1143 0.961 . S
H1159 C1143 0.961 . S
H1160 C1144 0.931 . S
H1161 C1149 0.930 . S
H1162 C1150 0.956 . S
H1163 C1150 0.961 . S
H1164 C1150 0.961 . S
H1165 C1151 0.956 . S
H1166 C1151 0.962 1_554 S
H1167 C1151 0.959 . S
C1168 C1169 1.391 . S
C1168 C1170 1.394 . S
C1168 H1184 0.931 . S
C1169 C1168 1.391 . S
C1169 C1173 1.376 . S
C1170 C1168 1.394 . S
C1170 C1171 1.369 . S
C1170 C1174 1.531 . S
C1171 C1170 1.369 . S
C1171 C1172 1.410 . S
C1171 C1179 1.503 . S
C1172 C1171 1.410 . S
C1172 C1173 1.392 . S
C1172 C1175 1.511 . S
C1173 C1169 1.376 . S
C1173 C1172 1.392 . S
C1173 H1185 0.929 . S
C1174 C1170 1.531 . S
C1174 H1186 0.960 . S
C1174 H1187 0.962 . S
C1174 H1188 0.960 . S
C1175 C1172 1.511 . S
C1175 H1189 0.961 . S
C1175 H1190 0.961 . S
C1175 H1191 0.961 . S
C1176 C1177 1.370 . S
C1176 C1178 1.363 . S
C1176 H1192 0.931 . S
C1177 C1176 1.370 . S
C1177 C1181 1.408 . S
C1178 C1176 1.363 . S
C1178 C1179 1.370 . S
C1178 C1182 1.524 . S
C1179 C1171 1.503 . S
C1179 C1178 1.370 . S
C1179 C1180 1.403 . S
C1180 C1179 1.403 . S
C1180 C1181 1.404 . S
C1180 C1183 1.539 . S
C1181 C1177 1.408 . S
C1181 C1180 1.404 . S
C1181 H1193 0.930 . S
C1182 C1178 1.524 . S
C1182 H1194 0.956 . S
C1182 H1195 0.961 . S
C1182 H1196 0.961 . S
C1183 C1180 1.539 . S
C1183 H1197 0.958 . S
C1183 H1198 0.961 . S
C1183 H1199 0.960 . S
H1184 C1168 0.931 . S
H1185 C1173 0.929 . S
H1186 C1174 0.960 . S
H1187 C1174 0.962 . S
H1188 C1174 0.960 . S
H1189 C1175 0.961 . S
H1190 C1175 0.961 . S
H1191 C1175 0.961 . S
H1192 C1176 0.931 . S
H1193 C1181 0.930 . S
H1194 C1182 0.956 . S
H1195 C1182 0.961 . S
H1196 C1182 0.961 . S
H1197 C1183 0.958 . S
H1198 C1183 0.961 . S
H1199 C1183 0.960 . S
C1200 C1201 1.391 . S
C1200 C1202 1.394 . S
C1200 H1216 0.931 . S
C1201 C1200 1.391 . S
C1201 C1205 1.376 . S
C1202 C1200 1.394 . S
C1202 C1203 1.369 . S
C1202 C1206 1.531 . S
C1203 C1202 1.369 . S
C1203 C1204 1.410 . S
C1203 C1211 1.503 . S
C1204 C1203 1.410 . S
C1204 C1205 1.392 . S
C1204 C1207 1.511 . S
C1205 C1201 1.376 . S
C1205 C1204 1.392 . S
C1205 H1217 0.929 . S
C1206 C1202 1.531 . S
C1206 H1218 0.960 . S
C1206 H1219 0.962 . S
C1206 H1220 0.960 . S
C1207 C1204 1.511 . S
C1207 H1221 0.961 . S
C1207 H1222 0.961 . S
C1207 H1223 0.961 . S
C1208 C1209 1.370 . S
C1208 C1210 1.363 . S
C1208 H1224 0.931 . S
C1209 C1208 1.370 . S
C1209 C1213 1.408 . S
C1210 C1208 1.363 . S
C1210 C1211 1.370 . S
C1210 C1214 1.524 . S
C1211 C1203 1.503 . S
C1211 C1210 1.370 . S
C1211 C1212 1.403 . S
C1212 C1211 1.403 . S
C1212 C1213 1.404 . S
C1212 C1215 1.539 . S
C1213 C1209 1.408 . S
C1213 C1212 1.404 . S
C1213 H1225 0.930 . S
C1214 C1210 1.524 . S
C1214 H1226 0.956 . S
C1214 H1227 0.961 . S
C1214 H1228 0.961 . S
C1215 C1212 1.539 . S
C1215 H1229 0.958 . S
C1215 H1230 0.961 . S
C1215 H1231 0.960 . S
H1216 C1200 0.931 . S
H1217 C1205 0.929 . S
H1218 C1206 0.960 . S
H1219 C1206 0.962 . S
H1220 C1206 0.960 . S
H1221 C1207 0.961 . S
H1222 C1207 0.961 . S
H1223 C1207 0.961 . S
H1224 C1208 0.931 . S
H1225 C1213 0.930 . S
H1226 C1214 0.956 . S
H1227 C1214 0.961 . S
H1228 C1214 0.961 . S
H1229 C1215 0.958 . S
H1230 C1215 0.961 . S
H1231 C1215 0.960 . S
C1232 C1233 1.391 . S
C1232 C1234 1.394 . S
C1232 H1248 0.931 . S
C1233 C1232 1.391 . S
C1233 C1237 1.376 . S
C1234 C1232 1.394 . S
C1234 C1235 1.369 . S
C1234 C1238 1.531 . S
C1235 C1234 1.369 . S
C1235 C1236 1.410 . S
C1235 C1243 1.503 . S
C1236 C1235 1.410 . S
C1236 C1237 1.392 . S
C1236 C1239 1.511 . S
C1237 C1233 1.376 . S
C1237 C1236 1.392 . S
C1237 H1249 0.929 . S
C1238 C1234 1.531 . S
C1238 H1250 0.960 . S
C1238 H1251 0.962 . S
C1238 H1252 0.960 . S
C1239 C1236 1.511 . S
C1239 H1253 0.961 . S
C1239 H1254 0.961 . S
C1239 H1255 0.961 . S
C1240 C1241 1.370 . S
C1240 C1242 1.363 . S
C1240 H1256 0.931 . S
C1241 C1240 1.370 . S
C1241 C1245 1.408 . S
C1242 C1240 1.363 . S
C1242 C1243 1.370 . S
C1242 C1246 1.524 . S
C1243 C1235 1.503 . S
C1243 C1242 1.370 . S
C1243 C1244 1.403 . S
C1244 C1243 1.403 . S
C1244 C1245 1.404 . S
C1244 C1247 1.539 . S
C1245 C1241 1.408 . S
C1245 C1244 1.404 . S
C1245 H1257 0.930 . S
C1246 C1242 1.524 . S
C1246 H1258 0.956 . S
C1246 H1259 0.961 . S
C1246 H1260 0.961 . S
C1247 C1244 1.539 . S
C1247 H1261 0.958 . S
C1247 H1262 0.961 . S
C1247 H1263 0.960 . S
H1248 C1232 0.931 . S
H1249 C1237 0.929 . S
H1250 C1238 0.960 . S
H1251 C1238 0.962 . S
H1252 C1238 0.960 . S
H1253 C1239 0.961 . S
H1254 C1239 0.961 . S
H1255 C1239 0.961 . S
H1256 C1240 0.931 . S
H1257 C1245 0.930 . S
H1258 C1246 0.956 . S
H1259 C1246 0.961 . S
H1260 C1246 0.961 . S
H1261 C1247 0.958 . S
H1262 C1247 0.961 . S
H1263 C1247 0.960 . S
C1264 C1265 1.391 . S
C1264 C1266 1.394 . S
C1264 H1280 0.931 . S
C1265 C1264 1.391 . S
C1265 C1269 1.376 . S
C1266 C1264 1.394 . S
C1266 C1267 1.369 . S
C1266 C1270 1.531 . S
C1267 C1266 1.369 . S
C1267 C1268 1.410 . S
C1267 C1275 1.503 . S
C1268 C1267 1.410 . S
C1268 C1269 1.392 . S
C1268 C1271 1.511 . S
C1269 C1265 1.376 . S
C1269 C1268 1.392 . S
C1269 H1281 0.929 . S
C1270 C1266 1.531 . S
C1270 H1282 0.960 . S
C1270 H1283 0.962 . S
C1270 H1284 0.960 . S
C1271 C1268 1.511 . S
C1271 H1285 0.961 . S
C1271 H1286 0.961 . S
C1271 H1287 0.961 . S
C1272 C1273 1.370 . S
C1272 C1274 1.363 . S
C1272 H1288 0.931 . S
C1273 C1272 1.370 . S
C1273 C1277 1.408 . S
C1274 C1272 1.363 . S
C1274 C1275 1.370 . S
C1274 C1278 1.524 . S
C1275 C1267 1.503 . S
C1275 C1274 1.370 . S
C1275 C1276 1.403 . S
C1276 C1275 1.403 . S
C1276 C1277 1.404 . S
C1276 C1279 1.539 . S
C1277 C1273 1.408 . S
C1277 C1276 1.404 . S
C1277 H1289 0.930 . S
C1278 C1274 1.524 . S
C1278 H1290 0.956 . S
C1278 H1291 0.961 . S
C1278 H1292 0.961 . S
C1279 C1276 1.539 . S
C1279 H1293 0.958 . S
C1279 H1294 0.961 . S
C1279 H1295 0.960 . S
H1280 C1264 0.931 . S
H1281 C1269 0.929 . S
H1282 C1270 0.960 . S
H1283 C1270 0.962 . S
H1284 C1270 0.960 . S
H1285 C1271 0.961 . S
H1286 C1271 0.961 . S
H1287 C1271 0.961 . S
H1288 C1272 0.931 . S
H1289 C1277 0.930 . S
H1290 C1278 0.956 . S
H1291 C1278 0.961 . S
H1292 C1278 0.961 . S
H1293 C1279 0.958 . S
H1294 C1279 0.961 . S
H1295 C1279 0.960 . S
C1296 C1297 1.391 . S
C1296 C1298 1.394 . S
C1296 H1312 0.931 . S
C1297 C1296 1.391 . S
C1297 C1301 1.376 . S
C1298 C1296 1.394 . S
C1298 C1299 1.369 1_554 S
C1298 C1302 1.531 . S
C1299 C1298 1.369 1_556 S
C1299 C1300 1.410 . S
C1299 C1307 1.503 . S
C1300 C1299 1.410 . S
C1300 C1301 1.392 1_556 S
C1300 C1303 1.511 . S
C1301 C1297 1.376 . S
C1301 C1300 1.392 1_554 S
C1301 H1313 0.929 . S
C1302 C1298 1.531 . S
C1302 H1314 0.960 1_554 S
C1302 H1315 0.962 . S
C1302 H1316 0.960 . S
C1303 C1300 1.511 . S
C1303 H1317 0.961 . S
C1303 H1318 0.961 . S
C1303 H1319 0.961 . S
C1304 C1305 1.370 . S
C1304 C1306 1.363 . S
C1304 H1320 0.931 . S
C1305 C1304 1.370 . S
C1305 C1309 1.408 . S
C1306 C1304 1.363 . S
C1306 C1307 1.370 . S
C1306 C1310 1.524 1_556 S
C1307 C1299 1.503 . S
C1307 C1306 1.370 . S
C1307 C1308 1.403 . S
C1308 C1307 1.403 . S
C1308 C1309 1.404 . S
C1308 C1311 1.539 . S
C1309 C1305 1.408 . S
C1309 C1308 1.404 . S
C1309 H1321 0.930 . S
C1310 C1306 1.524 1_554 S
C1310 H1322 0.956 . S
C1310 H1323 0.961 . S
C1310 H1324 0.961 . S
C1311 C1308 1.539 . S
C1311 H1325 0.958 . S
C1311 H1326 0.961 . S
C1311 H1327 0.960 . S
H1312 C1296 0.931 . S
H1313 C1301 0.929 . S
H1314 C1302 0.960 1_556 S
H1315 C1302 0.962 . S
H1316 C1302 0.960 . S
H1317 C1303 0.961 . S
H1318 C1303 0.961 . S
H1319 C1303 0.961 . S
H1320 C1304 0.931 . S
H1321 C1309 0.930 . S
H1322 C1310 0.956 . S
H1323 C1310 0.961 . S
H1324 C1310 0.961 . S
H1325 C1311 0.958 . S
H1326 C1311 0.961 . S
H1327 C1311 0.960 . S
C1328 C1329 1.391 . S
C1328 C1330 1.394 1_554 S
C1328 H1344 0.931 1_554 S
C1329 C1328 1.391 . S
C1329 C1333 1.376 . S
C1330 C1328 1.394 1_556 S
C1330 C1331 1.369 . S
C1330 C1334 1.531 . S
C1331 C1330 1.369 . S
C1331 C1332 1.410 1_556 S
C1331 C1339 1.503 . S
C1332 C1331 1.410 1_554 S
C1332 C1333 1.392 . S
C1332 C1335 1.511 . S
C1333 C1329 1.376 . S
C1333 C1332 1.392 . S
C1333 H1345 0.929 . S
C1334 C1330 1.531 . S
C1334 H1346 0.960 . S
C1334 H1347 0.962 . S
C1334 H1348 0.960 . S
C1335 C1332 1.511 . S
C1335 H1349 0.961 . S
C1335 H1350 0.961 . S
C1335 H1351 0.961 . S
C1336 C1337 1.370 . S
C1336 C1338 1.363 . S
C1336 H1352 0.931 . S
C1337 C1336 1.370 . S
C1337 C1341 1.408 . S
C1338 C1336 1.363 . S
C1338 C1339 1.370 . S
C1338 C1342 1.524 . S
C1339 C1331 1.503 . S
C1339 C1338 1.370 . S
C1339 C1340 1.403 . S
C1340 C1339 1.403 . S
C1340 C1341 1.404 . S
C1340 C1343 1.539 . S
C1341 C1337 1.408 . S
C1341 C1340 1.404 . S
C1341 H1353 0.930 . S
C1342 C1338 1.524 . S
C1342 H1354 0.956 . S
C1342 H1355 0.961 . S
C1342 H1356 0.961 . S
C1343 C1340 1.539 . S
C1343 H1357 0.958 . S
C1343 H1358 0.961 1_556 S
C1343 H1359 0.960 1_556 S
H1344 C1328 0.931 1_556 S
H1345 C1333 0.929 . S
H1346 C1334 0.960 . S
H1347 C1334 0.962 . S
H1348 C1334 0.960 . S
H1349 C1335 0.961 . S
H1350 C1335 0.961 . S
H1351 C1335 0.961 . S
H1352 C1336 0.931 . S
H1353 C1341 0.930 . S
H1354 C1342 0.956 . S
H1355 C1342 0.961 . S
H1356 C1342 0.961 . S
H1357 C1343 0.958 . S
H1358 C1343 0.961 1_554 S
H1359 C1343 0.960 1_554 S
C1360 C1361 1.391 . S
C1360 C1362 1.394 . S
C1360 H1376 0.931 . S
C1361 C1360 1.391 . S
C1361 C1365 1.376 . S
C1362 C1360 1.394 . S
C1362 C1363 1.369 1_554 S
C1362 C1366 1.531 . S
C1363 C1362 1.369 1_556 S
C1363 C1364 1.410 . S
C1363 C1371 1.503 . S
C1364 C1363 1.410 . S
C1364 C1365 1.392 1_556 S
C1364 C1367 1.511 . S
C1365 C1361 1.376 . S
C1365 C1364 1.392 1_554 S
C1365 H1377 0.929 1_554 S
C1366 C1362 1.531 . S
C1366 H1378 0.960 . S
C1366 H1379 0.962 . S
C1366 H1380 0.960 . S
C1367 C1364 1.511 . S
C1367 H1381 0.961 . S
C1367 H1382 0.961 . S
C1367 H1383 0.961 . S
C1368 C1369 1.370 . S
C1368 C1370 1.363 . S
C1368 H1384 0.931 . S
C1369 C1368 1.370 . S
C1369 C1373 1.408 . S
C1370 C1368 1.363 . S
C1370 C1371 1.370 . S
C1370 C1374 1.524 . S
C1371 C1363 1.503 . S
C1371 C1370 1.370 . S
C1371 C1372 1.403 . S
C1372 C1371 1.403 . S
C1372 C1373 1.404 . S
C1372 C1375 1.539 . S
C1373 C1369 1.408 . S
C1373 C1372 1.404 . S
C1373 H1385 0.930 . S
C1374 C1370 1.524 . S
C1374 H1386 0.956 . S
C1374 H1387 0.961 . S
C1374 H1388 0.961 . S
C1375 C1372 1.539 . S
C1375 H1389 0.958 . S
C1375 H1390 0.961 . S
C1375 H1391 0.960 . S
H1376 C1360 0.931 . S
H1377 C1365 0.929 1_556 S
H1378 C1366 0.960 . S
H1379 C1366 0.962 . S
H1380 C1366 0.960 . S
H1381 C1367 0.961 . S
H1382 C1367 0.961 . S
H1383 C1367 0.961 . S
H1384 C1368 0.931 . S
H1385 C1373 0.930 . S
H1386 C1374 0.956 . S
H1387 C1374 0.961 . S
H1388 C1374 0.961 . S
H1389 C1375 0.958 . S
H1390 C1375 0.961 . S
H1391 C1375 0.960 . S
C1392 C1393 1.391 . S
C1392 C1394 1.394 1_554 S
C1392 H1408 0.931 . S
C1393 C1392 1.391 . S
C1393 C1397 1.376 . S
C1394 C1392 1.394 1_556 S
C1394 C1395 1.369 . S
C1394 C1398 1.531 . S
C1395 C1394 1.369 . S
C1395 C1396 1.410 1_556 S
C1395 C1403 1.503 . S
C1396 C1395 1.410 1_554 S
C1396 C1397 1.392 . S
C1396 C1399 1.511 . S
C1397 C1393 1.376 . S
C1397 C1396 1.392 . S
C1397 H1409 0.929 . S
C1398 C1394 1.531 . S
C1398 H1410 0.960 . S
C1398 H1411 0.962 . S
C1398 H1412 0.960 . S
C1399 C1396 1.511 . S
C1399 H1413 0.961 . S
C1399 H1414 0.961 . S
C1399 H1415 0.961 . S
C1400 C1401 1.370 . S
C1400 C1402 1.363 . S
C1400 H1416 0.931 . S
C1401 C1400 1.370 . S
C1401 C1405 1.408 . S
C1402 C1400 1.363 . S
C1402 C1403 1.370 . S
C1402 C1406 1.524 1_556 S
C1403 C1395 1.503 . S
C1403 C1402 1.370 . S
C1403 C1404 1.403 . S
C1404 C1403 1.403 . S
C1404 C1405 1.404 . S
C1404 C1407 1.539 . S
C1405 C1401 1.408 . S
C1405 C1404 1.404 . S
C1405 H1417 0.930 . S
C1406 C1402 1.524 1_554 S
C1406 H1418 0.956 . S
C1406 H1419 0.961 . S
C1406 H1420 0.961 . S
C1407 C1404 1.539 . S
C1407 H1421 0.958 . S
C1407 H1422 0.961 . S
C1407 H1423 0.960 . S
H1408 C1392 0.931 . S
H1409 C1397 0.929 . S
H1410 C1398 0.960 . S
H1411 C1398 0.962 . S
H1412 C1398 0.960 . S
H1413 C1399 0.961 . S
H1414 C1399 0.961 . S
H1415 C1399 0.961 . S
H1416 C1400 0.931 . S
H1417 C1405 0.930 . S
H1418 C1406 0.956 . S
H1419 C1406 0.961 . S
H1420 C1406 0.961 . S
H1421 C1407 0.958 . S
H1422 C1407 0.961 . S
H1423 C1407 0.960 . S
C1424 C1425 1.391 . S
C1424 C1426 1.394 . S
C1424 H1440 0.931 . S
C1425 C1424 1.391 . S
C1425 C1429 1.376 . S
C1426 C1424 1.394 . S
C1426 C1427 1.369 . S
C1426 C1430 1.531 . S
C1427 C1426 1.369 . S
C1427 C1428 1.410 . S
C1427 C1435 1.503 . S
C1428 C1427 1.410 . S
C1428 C1429 1.392 . S
C1428 C1431 1.511 . S
C1429 C1425 1.376 . S
C1429 C1428 1.392 . S
C1429 H1441 0.929 . S
C1430 C1426 1.531 . S
C1430 H1442 0.960 . S
C1430 H1443 0.962 . S
C1430 H1444 0.960 . S
C1431 C1428 1.511 . S
C1431 H1445 0.961 . S
C1431 H1446 0.961 . S
C1431 H1447 0.961 . S
C1432 C1433 1.370 . S
C1432 C1434 1.363 . S
C1432 H1448 0.931 . S
C1433 C1432 1.370 . S
C1433 C1437 1.408 . S
C1434 C1432 1.363 . S
C1434 C1435 1.370 . S
C1434 C1438 1.524 . S
C1435 C1427 1.503 . S
C1435 C1434 1.370 . S
C1435 C1436 1.403 . S
C1436 C1435 1.403 . S
C1436 C1437 1.404 . S
C1436 C1439 1.539 . S
C1437 C1433 1.408 . S
C1437 C1436 1.404 . S
C1437 H1449 0.930 . S
C1438 C1434 1.524 . S
C1438 H1450 0.956 . S
C1438 H1451 0.961 . S
C1438 H1452 0.961 . S
C1439 C1436 1.539 . S
C1439 H1453 0.958 . S
C1439 H1454 0.961 . S
C1439 H1455 0.960 . S
H1440 C1424 0.931 . S
H1441 C1429 0.929 . S
H1442 C1430 0.960 . S
H1443 C1430 0.962 . S
H1444 C1430 0.960 . S
H1445 C1431 0.961 . S
H1446 C1431 0.961 . S
H1447 C1431 0.961 . S
H1448 C1432 0.931 . S
H1449 C1437 0.930 . S
H1450 C1438 0.956 . S
H1451 C1438 0.961 . S
H1452 C1438 0.961 . S
H1453 C1439 0.958 . S
H1454 C1439 0.961 . S
H1455 C1439 0.960 . S
C1456 C1457 1.391 . S
C1456 C1458 1.394 . S
C1456 H1472 0.931 . S
C1457 C1456 1.391 . S
C1457 C1461 1.376 . S
C1458 C1456 1.394 . S
C1458 C1459 1.369 . S
C1458 C1462 1.531 . S
C1459 C1458 1.369 . S
C1459 C1460 1.410 . S
C1459 C1467 1.503 . S
C1460 C1459 1.410 . S
C1460 C1461 1.392 . S
C1460 C1463 1.511 . S
C1461 C1457 1.376 . S
C1461 C1460 1.392 . S
C1461 H1473 0.929 . S
C1462 C1458 1.531 . S
C1462 H1474 0.960 . S
C1462 H1475 0.962 . S
C1462 H1476 0.960 . S
C1463 C1460 1.511 . S
C1463 H1477 0.961 . S
C1463 H1478 0.961 . S
C1463 H1479 0.961 . S
C1464 C1465 1.370 . S
C1464 C1466 1.363 . S
C1464 H1480 0.931 . S
C1465 C1464 1.370 . S
C1465 C1469 1.408 . S
C1466 C1464 1.363 . S
C1466 C1467 1.370 . S
C1466 C1470 1.524 . S
C1467 C1459 1.503 . S
C1467 C1466 1.370 . S
C1467 C1468 1.403 . S
C1468 C1467 1.403 . S
C1468 C1469 1.404 . S
C1468 C1471 1.539 . S
C1469 C1465 1.408 . S
C1469 C1468 1.404 . S
C1469 H1481 0.930 . S
C1470 C1466 1.524 . S
C1470 H1482 0.956 . S
C1470 H1483 0.961 . S
C1470 H1484 0.961 . S
C1471 C1468 1.539 . S
C1471 H1485 0.958 . S
C1471 H1486 0.961 . S
C1471 H1487 0.960 . S
H1472 C1456 0.931 . S
H1473 C1461 0.929 . S
H1474 C1462 0.960 . S
H1475 C1462 0.962 . S
H1476 C1462 0.960 . S
H1477 C1463 0.961 . S
H1478 C1463 0.961 . S
H1479 C1463 0.961 . S
H1480 C1464 0.931 . S
H1481 C1469 0.930 . S
H1482 C1470 0.956 . S
H1483 C1470 0.961 . S
H1484 C1470 0.961 . S
H1485 C1471 0.958 . S
H1486 C1471 0.961 . S
H1487 C1471 0.960 . S
C1488 C1489 1.391 . S
C1488 C1490 1.394 . S
C1488 H1504 0.931 . S
C1489 C1488 1.391 . S
C1489 C1493 1.376 . S
C1490 C1488 1.394 . S
C1490 C1491 1.369 . S
C1490 C1494 1.531 . S
C1491 C1490 1.369 . S
C1491 C1492 1.410 . S
C1491 C1499 1.503 . S
C1492 C1491 1.410 . S
C1492 C1493 1.392 . S
C1492 C1495 1.511 . S
C1493 C1489 1.376 . S
C1493 C1492 1.392 . S
C1493 H1505 0.929 . S
C1494 C1490 1.531 . S
C1494 H1506 0.960 . S
C1494 H1507 0.962 . S
C1494 H1508 0.960 . S
C1495 C1492 1.511 . S
C1495 H1509 0.961 . S
C1495 H1510 0.961 . S
C1495 H1511 0.961 . S
C1496 C1497 1.370 . S
C1496 C1498 1.363 . S
C1496 H1512 0.931 . S
C1497 C1496 1.370 . S
C1497 C1501 1.408 . S
C1498 C1496 1.363 . S
C1498 C1499 1.370 . S
C1498 C1502 1.524 . S
C1499 C1491 1.503 . S
C1499 C1498 1.370 . S
C1499 C1500 1.403 . S
C1500 C1499 1.403 . S
C1500 C1501 1.404 . S
C1500 C1503 1.539 . S
C1501 C1497 1.408 . S
C1501 C1500 1.404 . S
C1501 H1513 0.930 . S
C1502 C1498 1.524 . S
C1502 H1514 0.956 . S
C1502 H1515 0.961 . S
C1502 H1516 0.961 . S
C1503 C1500 1.539 . S
C1503 H1517 0.958 . S
C1503 H1518 0.961 . S
C1503 H1519 0.960 . S
H1504 C1488 0.931 . S
H1505 C1493 0.929 . S
H1506 C1494 0.960 . S
H1507 C1494 0.962 . S
H1508 C1494 0.960 . S
H1509 C1495 0.961 . S
H1510 C1495 0.961 . S
H1511 C1495 0.961 . S
H1512 C1496 0.931 . S
H1513 C1501 0.930 . S
H1514 C1502 0.956 . S
H1515 C1502 0.961 . S
H1516 C1502 0.961 . S
H1517 C1503 0.958 . S
H1518 C1503 0.961 . S
H1519 C1503 0.960 . S
C1520 C1521 1.391 . S
C1520 C1522 1.394 . S
C1520 H1536 0.931 . S
C1521 C1520 1.391 . S
C1521 C1525 1.376 . S
C1522 C1520 1.394 . S
C1522 C1523 1.369 . S
C1522 C1526 1.531 . S
C1523 C1522 1.369 . S
C1523 C1524 1.410 . S
C1523 C1531 1.503 . S
C1524 C1523 1.410 . S
C1524 C1525 1.392 . S
C1524 C1527 1.511 . S
C1525 C1521 1.376 . S
C1525 C1524 1.392 . S
C1525 H1537 0.929 . S
C1526 C1522 1.531 . S
C1526 H1538 0.960 . S
C1526 H1539 0.962 . S
C1526 H1540 0.960 . S
C1527 C1524 1.511 . S
C1527 H1541 0.961 . S
C1527 H1542 0.961 . S
C1527 H1543 0.961 . S
C1528 C1529 1.370 . S
C1528 C1530 1.363 . S
C1528 H1544 0.931 . S
C1529 C1528 1.370 . S
C1529 C1533 1.408 . S
C1530 C1528 1.363 . S
C1530 C1531 1.370 . S
C1530 C1534 1.524 . S
C1531 C1523 1.503 . S
C1531 C1530 1.370 . S
C1531 C1532 1.403 . S
C1532 C1531 1.403 . S
C1532 C1533 1.404 . S
C1532 C1535 1.539 . S
C1533 C1529 1.408 . S
C1533 C1532 1.404 . S
C1533 H1545 0.930 . S
C1534 C1530 1.524 . S
C1534 H1546 0.956 . S
C1534 H1547 0.961 . S
C1534 H1548 0.961 . S
C1535 C1532 1.539 . S
C1535 H1549 0.958 . S
C1535 H1550 0.961 . S
C1535 H1551 0.960 . S
H1536 C1520 0.931 . S
H1537 C1525 0.929 . S
H1538 C1526 0.960 . S
H1539 C1526 0.962 . S
H1540 C1526 0.960 . S
H1541 C1527 0.961 . S
H1542 C1527 0.961 . S
H1543 C1527 0.961 . S
H1544 C1528 0.931 . S
H1545 C1533 0.930 . S
H1546 C1534 0.956 . S
H1547 C1534 0.961 . S
H1548 C1534 0.961 . S
H1549 C1535 0.958 . S
H1550 C1535 0.961 . S
H1551 C1535 0.960 . S
C1552 C1553 1.391 . S
C1552 C1554 1.394 . S
C1552 H1568 0.931 . S
C1553 C1552 1.391 . S
C1553 C1557 1.376 . S
C1554 C1552 1.394 . S
C1554 C1555 1.369 . S
C1554 C1558 1.531 . S
C1555 C1554 1.369 . S
C1555 C1556 1.410 . S
C1555 C1563 1.503 . S
C1556 C1555 1.410 . S
C1556 C1557 1.392 . S
C1556 C1559 1.511 . S
C1557 C1553 1.376 . S
C1557 C1556 1.392 . S
C1557 H1569 0.929 . S
C1558 C1554 1.531 . S
C1558 H1570 0.960 . S
C1558 H1571 0.962 . S
C1558 H1572 0.960 . S
C1559 C1556 1.511 . S
C1559 H1573 0.961 . S
C1559 H1574 0.961 . S
C1559 H1575 0.961 . S
C1560 C1561 1.370 . S
C1560 C1562 1.363 . S
C1560 H1576 0.931 . S
C1561 C1560 1.370 . S
C1561 C1565 1.408 . S
C1562 C1560 1.363 . S
C1562 C1563 1.370 . S
C1562 C1566 1.524 . S
C1563 C1555 1.503 . S
C1563 C1562 1.370 . S
C1563 C1564 1.403 . S
C1564 C1563 1.403 . S
C1564 C1565 1.404 . S
C1564 C1567 1.539 . S
C1565 C1561 1.408 . S
C1565 C1564 1.404 . S
C1565 H1577 0.930 . S
C1566 C1562 1.524 . S
C1566 H1578 0.956 . S
C1566 H1579 0.961 . S
C1566 H1580 0.961 . S
C1567 C1564 1.539 . S
C1567 H1581 0.958 . S
C1567 H1582 0.961 . S
C1567 H1583 0.960 . S
H1568 C1552 0.931 . S
H1569 C1557 0.929 . S
H1570 C1558 0.960 . S
H1571 C1558 0.962 . S
H1572 C1558 0.960 . S
H1573 C1559 0.961 . S
H1574 C1559 0.961 . S
H1575 C1559 0.961 . S
H1576 C1560 0.931 . S
H1577 C1565 0.930 . S
H1578 C1566 0.956 . S
H1579 C1566 0.961 . S
H1580 C1566 0.961 . S
H1581 C1567 0.958 . S
H1582 C1567 0.961 . S
H1583 C1567 0.960 . S
C1584 C1585 1.391 . S
C1584 C1586 1.394 . S
C1584 H1600 0.931 . S
C1585 C1584 1.391 . S
C1585 C1589 1.376 . S
C1586 C1584 1.394 . S
C1586 C1587 1.369 . S
C1586 C1590 1.531 . S
C1587 C1586 1.369 . S
C1587 C1588 1.410 . S
C1587 C1595 1.503 . S
C1588 C1587 1.410 . S
C1588 C1589 1.392 . S
C1588 C1591 1.511 . S
C1589 C1585 1.376 . S
C1589 C1588 1.392 . S
C1589 H1601 0.929 . S
C1590 C1586 1.531 . S
C1590 H1602 0.960 . S
C1590 H1603 0.962 . S
C1590 H1604 0.960 . S
C1591 C1588 1.511 . S
C1591 H1605 0.961 . S
C1591 H1606 0.961 . S
C1591 H1607 0.961 . S
C1592 C1593 1.370 . S
C1592 C1594 1.363 . S
C1592 H1608 0.931 . S
C1593 C1592 1.370 . S
C1593 C1597 1.408 . S
C1594 C1592 1.363 . S
C1594 C1595 1.370 . S
C1594 C1598 1.524 . S
C1595 C1587 1.503 . S
C1595 C1594 1.370 . S
C1595 C1596 1.403 . S
C1596 C1595 1.403 . S
C1596 C1597 1.404 . S
C1596 C1599 1.539 . S
C1597 C1593 1.408 . S
C1597 C1596 1.404 . S
C1597 H1609 0.930 . S
C1598 C1594 1.524 . S
C1598 H1610 0.956 . S
C1598 H1611 0.961 . S
C1598 H1612 0.961 . S
C1599 C1596 1.539 . S
C1599 H1613 0.958 . S
C1599 H1614 0.961 . S
C1599 H1615 0.960 . S
H1600 C1584 0.931 . S
H1601 C1589 0.929 . S
H1602 C1590 0.960 . S
H1603 C1590 0.962 . S
H1604 C1590 0.960 . S
H1605 C1591 0.961 . S
H1606 C1591 0.961 . S
H1607 C1591 0.961 . S
H1608 C1592 0.931 . S
H1609 C1597 0.930 . S
H1610 C1598 0.956 . S
H1611 C1598 0.961 . S
H1612 C1598 0.961 . S
H1613 C1599 0.958 . S
H1614 C1599 0.961 . S
H1615 C1599 0.960 . S
C1616 C1617 1.391 . S
C1616 C1618 1.394 . S
C1616 H1632 0.931 . S
C1617 C1616 1.391 . S
C1617 C1621 1.376 . S
C1618 C1616 1.394 . S
C1618 C1619 1.369 . S
C1618 C1622 1.531 . S
C1619 C1618 1.369 . S
C1619 C1620 1.410 . S
C1619 C1627 1.503 . S
C1620 C1619 1.410 . S
C1620 C1621 1.392 . S
C1620 C1623 1.511 . S
C1621 C1617 1.376 . S
C1621 C1620 1.392 . S
C1621 H1633 0.929 . S
C1622 C1618 1.531 . S
C1622 H1634 0.960 . S
C1622 H1635 0.962 . S
C1622 H1636 0.960 . S
C1623 C1620 1.511 . S
C1623 H1637 0.961 . S
C1623 H1638 0.961 . S
C1623 H1639 0.961 . S
C1624 C1625 1.370 . S
C1624 C1626 1.363 . S
C1624 H1640 0.931 . S
C1625 C1624 1.370 . S
C1625 C1629 1.408 . S
C1626 C1624 1.363 . S
C1626 C1627 1.370 . S
C1626 C1630 1.524 . S
C1627 C1619 1.503 . S
C1627 C1626 1.370 . S
C1627 C1628 1.403 . S
C1628 C1627 1.403 . S
C1628 C1629 1.404 . S
C1628 C1631 1.539 . S
C1629 C1625 1.408 . S
C1629 C1628 1.404 . S
C1629 H1641 0.930 . S
C1630 C1626 1.524 . S
C1630 H1642 0.956 . S
C1630 H1643 0.961 . S
C1630 H1644 0.961 . S
C1631 C1628 1.539 . S
C1631 H1645 0.958 . S
C1631 H1646 0.961 . S
C1631 H1647 0.960 . S
H1632 C1616 0.931 . S
H1633 C1621 0.929 . S
H1634 C1622 0.960 . S
H1635 C1622 0.962 . S
H1636 C1622 0.960 . S
H1637 C1623 0.961 . S
H1638 C1623 0.961 . S
H1639 C1623 0.961 . S
H1640 C1624 0.931 . S
H1641 C1629 0.930 . S
H1642 C1630 0.956 . S
H1643 C1630 0.961 . S
H1644 C1630 0.961 . S
H1645 C1631 0.958 . S
H1646 C1631 0.961 . S
H1647 C1631 0.960 . S
C1648 C1649 1.391 . S
C1648 C1650 1.394 . S
C1648 H1664 0.931 . S
C1649 C1648 1.391 . S
C1649 C1653 1.376 . S
C1650 C1648 1.394 . S
C1650 C1651 1.369 . S
C1650 C1654 1.531 . S
C1651 C1650 1.369 . S
C1651 C1652 1.410 . S
C1651 C1659 1.503 . S
C1652 C1651 1.410 . S
C1652 C1653 1.392 . S
C1652 C1655 1.511 . S
C1653 C1649 1.376 . S
C1653 C1652 1.392 . S
C1653 H1665 0.929 . S
C1654 C1650 1.531 . S
C1654 H1666 0.960 . S
C1654 H1667 0.962 . S
C1654 H1668 0.960 . S
C1655 C1652 1.511 . S
C1655 H1669 0.961 . S
C1655 H1670 0.961 . S
C1655 H1671 0.961 . S
C1656 C1657 1.370 . S
C1656 C1658 1.363 . S
C1656 H1672 0.931 . S
C1657 C1656 1.370 . S
C1657 C1661 1.408 . S
C1658 C1656 1.363 . S
C1658 C1659 1.370 . S
C1658 C1662 1.524 . S
C1659 C1651 1.503 . S
C1659 C1658 1.370 . S
C1659 C1660 1.403 . S
C1660 C1659 1.403 . S
C1660 C1661 1.404 . S
C1660 C1663 1.539 . S
C1661 C1657 1.408 . S
C1661 C1660 1.404 . S
C1661 H1673 0.930 . S
C1662 C1658 1.524 . S
C1662 H1674 0.956 . S
C1662 H1675 0.961 . S
C1662 H1676 0.961 . S
C1663 C1660 1.539 . S
C1663 H1677 0.958 . S
C1663 H1678 0.961 . S
C1663 H1679 0.960 . S
H1664 C1648 0.931 . S
H1665 C1653 0.929 . S
H1666 C1654 0.960 . S
H1667 C1654 0.962 . S
H1668 C1654 0.960 . S
H1669 C1655 0.961 . S
H1670 C1655 0.961 . S
H1671 C1655 0.961 . S
H1672 C1656 0.931 . S
H1673 C1661 0.930 . S
H1674 C1662 0.956 . S
H1675 C1662 0.961 . S
H1676 C1662 0.961 . S
H1677 C1663 0.958 . S
H1678 C1663 0.961 . S
H1679 C1663 0.960 . S
C1680 C1681 1.391 . S
C1680 C1682 1.394 . S
C1680 H1696 0.931 . S
C1681 C1680 1.391 . S
C1681 C1685 1.376 . S
C1682 C1680 1.394 . S
C1682 C1683 1.369 . S
C1682 C1686 1.531 . S
C1683 C1682 1.369 . S
C1683 C1684 1.410 . S
C1683 C1691 1.503 . S
C1684 C1683 1.410 . S
C1684 C1685 1.392 . S
C1684 C1687 1.511 . S
C1685 C1681 1.376 . S
C1685 C1684 1.392 . S
C1685 H1697 0.929 . S
C1686 C1682 1.531 . S
C1686 H1698 0.960 . S
C1686 H1699 0.962 . S
C1686 H1700 0.960 . S
C1687 C1684 1.511 . S
C1687 H1701 0.961 . S
C1687 H1702 0.961 . S
C1687 H1703 0.961 . S
C1688 C1689 1.370 . S
C1688 C1690 1.363 . S
C1688 H1704 0.931 . S
C1689 C1688 1.370 . S
C1689 C1693 1.408 . S
C1690 C1688 1.363 . S
C1690 C1691 1.370 . S
C1690 C1694 1.524 . S
C1691 C1683 1.503 . S
C1691 C1690 1.370 . S
C1691 C1692 1.403 . S
C1692 C1691 1.403 . S
C1692 C1693 1.404 . S
C1692 C1695 1.539 . S
C1693 C1689 1.408 . S
C1693 C1692 1.404 . S
C1693 H1705 0.930 . S
C1694 C1690 1.524 . S
C1694 H1706 0.956 . S
C1694 H1707 0.961 . S
C1694 H1708 0.961 . S
C1695 C1692 1.539 . S
C1695 H1709 0.958 . S
C1695 H1710 0.961 . S
C1695 H1711 0.960 . S
H1696 C1680 0.931 . S
H1697 C1685 0.929 . S
H1698 C1686 0.960 . S
H1699 C1686 0.962 . S
H1700 C1686 0.960 . S
H1701 C1687 0.961 . S
H1702 C1687 0.961 . S
H1703 C1687 0.961 . S
H1704 C1688 0.931 . S
H1705 C1693 0.930 . S
H1706 C1694 0.956 . S
H1707 C1694 0.961 . S
H1708 C1694 0.961 . S
H1709 C1695 0.958 . S
H1710 C1695 0.961 . S
H1711 C1695 0.960 . S
C1712 C1713 1.391 . S
C1712 C1714 1.394 . S
C1712 H1728 0.931 . S
C1713 C1712 1.391 . S
C1713 C1717 1.376 . S
C1714 C1712 1.394 . S
C1714 C1715 1.369 . S
C1714 C1718 1.531 . S
C1715 C1714 1.369 . S
C1715 C1716 1.410 . S
C1715 C1723 1.503 . S
C1716 C1715 1.410 . S
C1716 C1717 1.392 . S
C1716 C1719 1.511 . S
C1717 C1713 1.376 . S
C1717 C1716 1.392 . S
C1717 H1729 0.929 . S
C1718 C1714 1.531 . S
C1718 H1730 0.960 . S
C1718 H1731 0.962 . S
C1718 H1732 0.960 . S
C1719 C1716 1.511 . S
C1719 H1733 0.961 . S
C1719 H1734 0.961 . S
C1719 H1735 0.961 . S
C1720 C1721 1.370 . S
C1720 C1722 1.363 . S
C1720 H1736 0.931 . S
C1721 C1720 1.370 . S
C1721 C1725 1.408 . S
C1722 C1720 1.363 . S
C1722 C1723 1.370 . S
C1722 C1726 1.524 . S
C1723 C1715 1.503 . S
C1723 C1722 1.370 . S
C1723 C1724 1.403 . S
C1724 C1723 1.403 . S
C1724 C1725 1.404 . S
C1724 C1727 1.539 . S
C1725 C1721 1.408 . S
C1725 C1724 1.404 . S
C1725 H1737 0.930 . S
C1726 C1722 1.524 . S
C1726 H1738 0.956 . S
C1726 H1739 0.961 . S
C1726 H1740 0.961 . S
C1727 C1724 1.539 . S
C1727 H1741 0.958 . S
C1727 H1742 0.961 . S
C1727 H1743 0.960 . S
H1728 C1712 0.931 . S
H1729 C1717 0.929 . S
H1730 C1718 0.960 . S
H1731 C1718 0.962 . S
H1732 C1718 0.960 . S
H1733 C1719 0.961 . S
H1734 C1719 0.961 . S
H1735 C1719 0.961 . S
H1736 C1720 0.931 . S
H1737 C1725 0.930 . S
H1738 C1726 0.956 . S
H1739 C1726 0.961 . S
H1740 C1726 0.961 . S
H1741 C1727 0.958 . S
H1742 C1727 0.961 . S
H1743 C1727 0.960 . S
C1744 C1745 1.391 . S
C1744 C1746 1.394 . S
C1744 H1760 0.931 . S
C1745 C1744 1.391 . S
C1745 C1749 1.376 . S
C1746 C1744 1.394 . S
C1746 C1747 1.369 . S
C1746 C1750 1.531 . S
C1747 C1746 1.369 . S
C1747 C1748 1.410 . S
C1747 C1755 1.503 . S
C1748 C1747 1.410 . S
C1748 C1749 1.392 . S
C1748 C1751 1.511 . S
C1749 C1745 1.376 . S
C1749 C1748 1.392 . S
C1749 H1761 0.929 . S
C1750 C1746 1.531 . S
C1750 H1762 0.960 . S
C1750 H1763 0.962 . S
C1750 H1764 0.960 . S
C1751 C1748 1.511 . S
C1751 H1765 0.961 . S
C1751 H1766 0.961 . S
C1751 H1767 0.961 . S
C1752 C1753 1.370 . S
C1752 C1754 1.363 . S
C1752 H1768 0.931 . S
C1753 C1752 1.370 . S
C1753 C1757 1.408 . S
C1754 C1752 1.363 . S
C1754 C1755 1.370 . S
C1754 C1758 1.524 . S
C1755 C1747 1.503 . S
C1755 C1754 1.370 . S
C1755 C1756 1.403 . S
C1756 C1755 1.403 . S
C1756 C1757 1.404 . S
C1756 C1759 1.539 . S
C1757 C1753 1.408 . S
C1757 C1756 1.404 . S
C1757 H1769 0.930 . S
C1758 C1754 1.524 . S
C1758 H1770 0.956 . S
C1758 H1771 0.961 . S
C1758 H1772 0.961 . S
C1759 C1756 1.539 . S
C1759 H1773 0.958 . S
C1759 H1774 0.961 . S
C1759 H1775 0.960 . S
H1760 C1744 0.931 . S
H1761 C1749 0.929 . S
H1762 C1750 0.960 . S
H1763 C1750 0.962 . S
H1764 C1750 0.960 . S
H1765 C1751 0.961 . S
H1766 C1751 0.961 . S
H1767 C1751 0.961 . S
H1768 C1752 0.931 . S
H1769 C1757 0.930 . S
H1770 C1758 0.956 . S
H1771 C1758 0.961 . S
H1772 C1758 0.961 . S
H1773 C1759 0.958 . S
H1774 C1759 0.961 . S
H1775 C1759 0.960 . S
C1776 C1777 1.391 . S
C1776 C1778 1.394 . S
C1776 H1792 0.931 . S
C1777 C1776 1.391 . S
C1777 C1781 1.376 . S
C1778 C1776 1.394 . S
C1778 C1779 1.369 . S
C1778 C1782 1.531 . S
C1779 C1778 1.369 . S
C1779 C1780 1.410 . S
C1779 C1787 1.503 . S
C1780 C1779 1.410 . S
C1780 C1781 1.392 . S
C1780 C1783 1.511 . S
C1781 C1777 1.376 . S
C1781 C1780 1.392 . S
C1781 H1793 0.929 . S
C1782 C1778 1.531 . S
C1782 H1794 0.960 . S
C1782 H1795 0.962 . S
C1782 H1796 0.960 . S
C1783 C1780 1.511 . S
C1783 H1797 0.961 . S
C1783 H1798 0.961 . S
C1783 H1799 0.961 . S
C1784 C1785 1.370 . S
C1784 C1786 1.363 . S
C1784 H1800 0.931 . S
C1785 C1784 1.370 . S
C1785 C1789 1.408 . S
C1786 C1784 1.363 . S
C1786 C1787 1.370 . S
C1786 C1790 1.524 . S
C1787 C1779 1.503 . S
C1787 C1786 1.370 . S
C1787 C1788 1.403 . S
C1788 C1787 1.403 . S
C1788 C1789 1.404 . S
C1788 C1791 1.539 . S
C1789 C1785 1.408 . S
C1789 C1788 1.404 . S
C1789 H1801 0.930 . S
C1790 C1786 1.524 . S
C1790 H1802 0.956 . S
C1790 H1803 0.961 . S
C1790 H1804 0.961 . S
C1791 C1788 1.539 . S
C1791 H1805 0.958 . S
C1791 H1806 0.961 . S
C1791 H1807 0.960 . S
H1792 C1776 0.931 . S
H1793 C1781 0.929 . S
H1794 C1782 0.960 . S
H1795 C1782 0.962 . S
H1796 C1782 0.960 . S
H1797 C1783 0.961 . S
H1798 C1783 0.961 . S
H1799 C1783 0.961 . S
H1800 C1784 0.931 . S
H1801 C1789 0.930 . S
H1802 C1790 0.956 . S
H1803 C1790 0.961 . S
H1804 C1790 0.961 . S
H1805 C1791 0.958 . S
H1806 C1791 0.961 . S
H1807 C1791 0.960 . S
C529 C18 1.604 . S
C537 C216 1.663 . S
C561 C249 1.682 . S
C569 C51 1.640 . S
C593 C150 1.679 . S
C601 C84 1.643 . S
C625 C183 1.681 . S
C633 C117 1.642 . S
C657 C282 1.626 . S
C665 C480 1.646 . S
C689 C315 1.665 . S
C697 C513 1.632 . S
C721 C414 1.609 . S
C729 C348 1.664 . S
C753 C381 1.660 . S
C761 C447 1.633 . S
C785 N266 2.245 . S
C793 N2 2.266 . S
C817 N299 2.265 . S
C825 N35 2.256 . S
C849 N332 2.246 . S
C857 N68 2.265 . S
C881 N365 2.269 . S
C889 N101 2.255 . S
C913 N398 2.254 . S
C921 N134 2.263 . S
C945 N431 2.254 . S
C953 N167 2.263 . S
C977 N200 2.241 . S
C985 N464 2.268 . S
C1009 N233 2.241 . S
C1017 N497 2.268 . S
C1041 C318 0.573 . S
C1049 C7 0.609 . S
C1073 C351 0.571 . S
C1081 C40 0.610 . S
C1105 C384 0.733 . S
C1113 C73 0.657 . S
C1137 C285 0.571 . S
C1145 C106 0.609 . S
C1169 C139 0.692 . S
C1177 C516 0.678 . S
C1201 C172 0.675 . S
C1209 C417 0.656 . S
C1233 C205 0.596 . S
C1241 C450 0.618 . S
C1265 C238 0.692 . S
C1273 C483 0.684 . S
C1297 C54 0.725 . S
C1305 C271 0.657 . S
C1329 C87 0.569 . S
C1337 C304 0.608 . S
C1361 C120 0.736 . S
C1369 C337 0.651 . S
C1393 C21 0.625 . S
C1401 C370 0.633 . S
C1425 C252 0.672 . S
C1433 C403 0.646 . S
C1457 C153 0.664 . S
C1465 C436 0.644 . S
C1489 C186 0.627 . S
C1497 C469 0.634 . S
C1521 C502 0.573 . S
C1529 C219 0.619 . S
C1553 N79 0.708 . S
C1561 N13 0.601 . S
C1585 N112 0.707 . S
C1593 N46 0.596 . S
C1617 N145 0.524 . S
C1625 N211 0.553 . S
C1649 N244 0.674 . S
C1657 N178 0.635 . S
C1681 N277 0.653 . S
C1689 N343 0.642 . S
C1713 N376 0.622 . S
C1721 N310 0.639 . S
C1745 N409 0.582 . S
C1753 N475 0.632 . S
C1777 N442 0.569 . S
C1785 N508 0.628 . S
