# Generated by pormake.
# Topology mon, (4)-cn, num edge types: 1
# Building blocks:
#     Node 0, Type 0, BuildingBlock: AZAVOO_clean_sbu_0, # of connection points: 4
#     Node 1, Type 0, BuildingBlock: AZAVOO_clean_sbu_0, # of connection points: 4
#     Node 2, Type 0, BuildingBlock: AZAVOO_clean_sbu_0, # of connection points: 4
#     Node 3, Type 0, BuildingBlock: AZAVOO_clean_sbu_0, # of connection points: 4
#     Node 4, Type 0, BuildingBlock: AZAVOO_clean_sbu_0, # of connection points: 4
#     Node 5, Type 0, BuildingBlock: AZAVOO_clean_sbu_0, # of connection points: 4
#     Node 6, Type 0, BuildingBlock: AZAVOO_clean_sbu_0, # of connection points: 4
#     Node 7, Type 0, BuildingBlock: AZAVOO_clean_sbu_0, # of connection points: 4
#     Node 8, Type 0, BuildingBlock: AZAVOO_clean_sbu_0, # of connection points: 4
#     Node 9, Type 0, BuildingBlock: AZAVOO_clean_sbu_0, # of connection points: 4
#     Node 10, Type 0, BuildingBlock: AZAVOO_clean_sbu_0, # of connection points: 4
#     Node 11, Type 0, BuildingBlock: AZAVOO_clean_sbu_0, # of connection points: 4
#     Node 12, Type 0, BuildingBlock: AZAVOO_clean_sbu_0, # of connection points: 4
#     Node 13, Type 0, BuildingBlock: AZAVOO_clean_sbu_0, # of connection points: 4
#     Node 14, Type 0, BuildingBlock: AZAVOO_clean_sbu_0, # of connection points: 4
#     Node 15, Type 0, BuildingBlock: AZAVOO_clean_sbu_0, # of connection points: 4
#     Edge 16, Type (0, 0), BuildingBlock: CIFDUS_clean_linker_0, # of connection points: 2
#     Edge 17, Type (0, 0), BuildingBlock: CIFDUS_clean_linker_0, # of connection points: 2
#     Edge 18, Type (0, 0), BuildingBlock: CIFDUS_clean_linker_0, # of connection points: 2
#     Edge 19, Type (0, 0), BuildingBlock: CIFDUS_clean_linker_0, # of connection points: 2
#     Edge 20, Type (0, 0), BuildingBlock: CIFDUS_clean_linker_0, # of connection points: 2
#     Edge 21, Type (0, 0), BuildingBlock: CIFDUS_clean_linker_0, # of connection points: 2
#     Edge 22, Type (0, 0), BuildingBlock: CIFDUS_clean_linker_0, # of connection points: 2
#     Edge 23, Type (0, 0), BuildingBlock: CIFDUS_clean_linker_0, # of connection points: 2
#     Edge 24, Type (0, 0), BuildingBlock: CIFDUS_clean_linker_0, # of connection points: 2
#     Edge 25, Type (0, 0), BuildingBlock: CIFDUS_clean_linker_0, # of connection points: 2
#     Edge 26, Type (0, 0), BuildingBlock: CIFDUS_clean_linker_0, # of connection points: 2
#     Edge 27, Type (0, 0), BuildingBlock: CIFDUS_clean_linker_0, # of connection points: 2
#     Edge 28, Type (0, 0), BuildingBlock: CIFDUS_clean_linker_0, # of connection points: 2
#     Edge 29, Type (0, 0), BuildingBlock: CIFDUS_clean_linker_0, # of connection points: 2
#     Edge 30, Type (0, 0), BuildingBlock: CIFDUS_clean_linker_0, # of connection points: 2
#     Edge 31, Type (0, 0), BuildingBlock: CIFDUS_clean_linker_0, # of connection points: 2
#     Edge 32, Type (0, 0), BuildingBlock: CIFDUS_clean_linker_0, # of connection points: 2
#     Edge 33, Type (0, 0), BuildingBlock: CIFDUS_clean_linker_0, # of connection points: 2
#     Edge 34, Type (0, 0), BuildingBlock: CIFDUS_clean_linker_0, # of connection points: 2
#     Edge 35, Type (0, 0), BuildingBlock: CIFDUS_clean_linker_0, # of connection points: 2
#     Edge 36, Type (0, 0), BuildingBlock: CIFDUS_clean_linker_0, # of connection points: 2
#     Edge 37, Type (0, 0), BuildingBlock: CIFDUS_clean_linker_0, # of connection points: 2
#     Edge 38, Type (0, 0), BuildingBlock: CIFDUS_clean_linker_0, # of connection points: 2
#     Edge 39, Type (0, 0), BuildingBlock: CIFDUS_clean_linker_0, # of connection points: 2
#     Edge 40, Type (0, 0), BuildingBlock: CIFDUS_clean_linker_0, # of connection points: 2
#     Edge 41, Type (0, 0), BuildingBlock: CIFDUS_clean_linker_0, # of connection points: 2
#     Edge 42, Type (0, 0), BuildingBlock: CIFDUS_clean_linker_0, # of connection points: 2
#     Edge 43, Type (0, 0), BuildingBlock: CIFDUS_clean_linker_0, # of connection points: 2
#     Edge 44, Type (0, 0), BuildingBlock: CIFDUS_clean_linker_0, # of connection points: 2
#     Edge 45, Type (0, 0), BuildingBlock: CIFDUS_clean_linker_0, # of connection points: 2
#     Edge 46, Type (0, 0), BuildingBlock: CIFDUS_clean_linker_0, # of connection points: 2
#     Edge 47, Type (0, 0), BuildingBlock: CIFDUS_clean_linker_0, # of connection points: 2
# Relax obj value: 0.179
# Max RMSD: 0.148
# Mean RMSD: 0.148
data_MOF--net-mon--node1-AZAVOO_clean_sbu_0--edge1-CIFDUS_clean_linker_0
_symmetry_space_group_name_H-M    P1
_symmetry_Int_Tables_number       1
_symmetry_cell_setting            triclinic
loop_
_symmetry_equiv_pos_as_xyz
'x, y, z'
_cell_length_a     29.977201
_cell_length_b     29.89487
_cell_length_c     73.333234
_cell_angle_alpha  90.020472
_cell_angle_beta   90.282225
_cell_angle_gamma 89.650179
loop_
_atom_site_label
_atom_site_type_symbol
_atom_site_fract_x
_atom_site_fract_y
_atom_site_fract_z
_atom_type_partial_charge
Mg0 Mg 0.04536 0.03532 0.57342 0.0
O1 O 0.10331 -0.00424 0.58579 0.0
O2 O 0.16711 0.02666 0.57686 0.0
Mg3 Mg 0.1495 0.08487 0.55787 0.0
C4 C 0.14578 -0.00283 0.5858 0.0
C5 C 0.96407 0.0158 0.59961 0.0
O6 O 0.95662 0.05895 0.59788 0.0
O7 O 0.05617 0.09296 0.59337 0.0
O8 O 0.118 0.12315 0.58182 0.0
O9 O 0.04722 -0.0081 0.54903 0.0
O10 O 0.0839 0.05575 0.55129 0.0
C11 C 0.0862 0.12314 0.59338 0.0
C12 C 0.07407 0.02072 0.5419 0.0
O13 O -0.00197 -0.00166 0.59208 0.0
Mg14 Mg 0.24088 0.74641 0.82774 0.0
O15 O 0.26632 0.81313 0.83869 0.0
O16 O 0.22581 0.86856 0.82645 0.0
Mg17 Mg 0.17481 0.83732 0.80725 0.0
C18 C 0.25696 0.8546 0.83694 0.0
C19 C 0.30849 0.67875 0.84321 0.0
O20 O 0.30993 0.67106 0.82558 0.0
O21 O 0.17985 0.75096 0.84619 0.0
O22 O 0.14166 0.80571 0.83215 0.0
O23 O 0.28598 0.75178 0.80376 0.0
O24 O 0.21667 0.77727 0.8042 0.0
C25 C 0.14584 0.77677 0.84488 0.0
C26 C 0.25348 0.77222 0.7955 0.0
O27 O 0.28213 0.70888 0.84912 0.0
Mg28 Mg 0.50884 0.93921 0.07824 0.0
O29 O 0.44543 0.96811 0.09033 0.0
O30 O 0.38681 0.92906 0.08054 0.0
Mg31 Mg 0.41385 0.87565 0.06111 0.0
C32 C 0.40364 0.96063 0.08998 0.0
C33 C 0.58191 0.00171 0.09261 0.0
O34 O 0.58976 0.00153 0.075 0.0
O35 O 0.50579 0.87965 0.09717 0.0
O36 O 0.44971 0.84047 0.08504 0.0
O37 O 0.50147 0.98414 0.05449 0.0
O38 O 0.47427 0.91546 0.05551 0.0
C39 C 0.48093 0.84518 0.09683 0.0
C40 C 0.47923 0.95235 0.04669 0.0
O41 O 0.54975 0.97872 0.09869 0.0
Mg42 Mg 0.33009 0.2355 0.32739 0.0
O43 O 0.30214 0.16952 0.33824 0.0
O44 O 0.34333 0.11384 0.32666 0.0
Mg45 Mg 0.39577 0.14346 0.30795 0.0
C46 C 0.31158 0.12798 0.33668 0.0
C47 C 0.30429 0.30972 0.35544 0.0
O48 O 0.34694 0.31849 0.35366 0.0
O49 O 0.38966 0.22978 0.34681 0.0
O50 O 0.42831 0.17496 0.33318 0.0
O51 O 0.28636 0.23149 0.30294 0.0
O52 O 0.35486 0.20388 0.30423 0.0
C53 C 0.42363 0.20386 0.34589 0.0
C54 C 0.31868 0.21016 0.29507 0.0
O55 O 0.28805 0.27591 0.34733 0.0
Mg56 Mg 0.04673 0.9393 0.40671 0.0
O57 O 0.10411 0.97922 0.39485 0.0
O58 O 0.16818 0.94952 0.40488 0.0
Mg59 Mg 0.15143 0.89226 0.42423 0.0
C60 C 0.14659 0.97825 0.39542 0.0
C61 C 0.96737 -0.0043 0.39307 0.0
O62 O 0.96265 -0.00248 0.41085 0.0
O63 O 0.06107 0.88097 0.38753 0.0
O64 O 0.12289 0.85217 0.40019 0.0
O65 O 0.04608 0.98404 0.43092 0.0
O66 O 0.08479 0.92093 0.42943 0.0
C67 C 0.09191 0.85128 0.38815 0.0
C68 C 0.07358 0.95606 0.43849 0.0
O69 O -0.00058 0.97291 0.38649 0.0
Mg70 Mg 0.32523 0.74184 0.66006 0.0
O71 O 0.29923 0.80624 0.64654 0.0
O72 O 0.34089 0.86251 0.65704 0.0
Mg73 Mg 0.39037 0.83547 0.67808 0.0
C74 C 0.30965 0.84761 0.64689 0.0
C75 C 0.30423 0.66581 0.63182 0.0
O76 O 0.34744 0.65935 0.63348 0.0
O77 O 0.38733 0.7425 0.64224 0.0
O78 O 0.42651 0.79751 0.65526 0.0
O79 O 0.27896 0.75119 0.6834 0.0
O80 O 0.34776 0.77714 0.6827 0.0
C81 C 0.42241 0.76636 0.64343 0.0
C82 C 0.31077 0.77308 0.69133 0.0
O83 O 0.2859 0.69824 0.64021 0.0
Mg84 Mg 0.51837 0.03646 0.91289 0.0
O85 O 0.46133 -0.0013 0.89951 0.0
O86 O 0.39692 0.02955 0.90833 0.0
Mg87 Mg 0.41311 0.08529 0.92859 0.0
C88 C 0.41887 0.00075 0.89912 0.0
C89 C 0.59759 0.97858 0.89935 0.0
O90 O 0.60094 0.97283 0.91706 0.0
O91 O 0.50708 0.09583 0.89403 0.0
O92 O 0.44485 0.12603 0.90552 0.0
O93 O 0.51571 0.99037 0.93661 0.0
O94 O 0.47832 0.05426 0.93488 0.0
C95 C 0.47709 0.12637 0.89417 0.0
C96 C 0.48778 0.01838 0.94381 0.0
O97 O 0.56672 0.00365 0.89309 0.0
Mg98 Mg 0.25502 0.25378 0.1588 0.0
O99 O 0.28429 0.18963 0.14705 0.0
O100 O 0.24501 0.13128 0.1569 0.0
Mg101 Mg 0.19071 0.15865 0.17561 0.0
C102 C 0.27675 0.14774 0.14759 0.0
C103 C 0.32659 0.31922 0.14502 0.0
O104 O 0.33269 0.32141 0.16275 0.0
O105 O 0.19622 0.25058 0.13912 0.0
O106 O 0.15811 0.19363 0.15104 0.0
O107 O 0.29831 0.24614 0.18332 0.0
O108 O 0.22995 0.21924 0.18117 0.0
C109 C 0.16261 0.22456 0.13917 0.0
C110 C 0.26603 0.22377 0.19053 0.0
O111 O 0.29618 0.294 0.13875 0.0
Mg112 Mg 0.82643 0.2212 0.16046 0.0
O113 O 0.79689 0.28535 0.14877 0.0
O114 O 0.83626 0.34376 0.15865 0.0
Mg115 Mg 0.8909 0.31625 0.17739 0.0
C116 C 0.80438 0.32724 0.14931 0.0
C117 C 0.75512 0.15536 0.14646 0.0
O118 O 0.74974 0.15242 0.16419 0.0
O119 O 0.88468 0.22474 0.14079 0.0
O120 O 0.92302 0.28178 0.15269 0.0
O121 O 0.78352 0.22861 0.1849 0.0
O122 O 0.85194 0.25547 0.18296 0.0
C123 C 0.91817 0.25091 0.14078 0.0
C124 C 0.81594 0.25081 0.19223 0.0
O125 O 0.78496 0.1812 0.14028 0.0
Mg126 Mg 0.7698 0.74435 0.65945 0.0
O127 O 0.79105 0.67881 0.64582 0.0
O128 O 0.74982 0.62372 0.65739 0.0
Mg129 Mg 0.70358 0.65392 0.67877 0.0
C130 C 0.77998 0.63769 0.64662 0.0
C131 C 0.80802 0.82697 0.64151 0.0
O132 O 0.78365 0.8431 0.65486 0.0
O133 O 0.70586 0.74664 0.64265 0.0
O134 O 0.66676 0.69237 0.65605 0.0
O135 O 0.8194 0.73306 0.68145 0.0
O136 O 0.74932 0.7105 0.6827 0.0
C137 C 0.67047 0.72342 0.64417 0.0
C138 C 0.78819 0.71256 0.6902 0.0
O139 O 0.8082 0.785 0.63874 0.0
Mg140 Mg 0.74253 0.24082 0.32817 0.0
O141 O 0.7825 0.29902 0.33959 0.0
O142 O 0.75258 0.36275 0.32925 0.0
Mg143 Mg 0.69529 0.34482 0.31 0.0
C144 C 0.78143 0.34158 0.3388 0.0
C145 C 0.79879 0.16191 0.34217 0.0
O146 O 0.7997 0.15619 0.32441 0.0
O147 O 0.6848 0.25622 0.34731 0.0
O148 O 0.65567 0.31744 0.33425 0.0
O149 O 0.78658 0.23864 0.30396 0.0
O150 O 0.72376 0.27767 0.30518 0.0
C151 C 0.6551 0.28703 0.34651 0.0
C152 C 0.75854 0.26568 0.29615 0.0
O153 O 0.77652 0.19451 0.34865 0.0
Mg154 Mg 0.8194 0.74461 0.82793 0.0
O155 O 0.78404 0.68411 0.83967 0.0
O156 O 0.81267 0.62213 0.82719 0.0
Mg157 Mg 0.86537 0.64358 0.8067 0.0
C158 C 0.78574 0.64169 0.83804 0.0
C159 C 0.76694 0.82219 0.84458 0.0
O160 O 0.76557 0.83081 0.82702 0.0
O161 O 0.88127 0.72917 0.845 0.0
O162 O 0.90851 0.66928 0.83042 0.0
O163 O 0.7696 0.74722 0.80547 0.0
O164 O 0.83335 0.70977 0.804 0.0
C165 C 0.91091 0.69865 0.84306 0.0
C166 C 0.79596 0.72082 0.79651 0.0
O167 O 0.78866 0.78809 0.85008 0.0
Mg168 Mg 0.57355 0.53419 0.07767 0.0
O169 O 0.63695 0.50481 0.08982 0.0
O170 O 0.69564 0.54361 0.08021 0.0
Mg171 Mg 0.66867 0.5971 0.06069 0.0
C172 C 0.67876 0.51212 0.0896 0.0
C173 C 0.49999 0.4725 0.09184 0.0
O174 O 0.49159 0.47336 0.07424 0.0
O175 O 0.57748 0.59358 0.09668 0.0
O176 O 0.63348 0.63253 0.0846 0.0
O177 O 0.57989 0.4895 0.05381 0.0
O178 O 0.60779 0.55784 0.05498 0.0
C179 C 0.60251 0.62792 0.09638 0.0
C180 C 0.60209 0.5212 0.04603 0.0
O181 O 0.53269 0.49481 0.098 0.0
Mg182 Mg 0.04335 0.44708 0.57611 0.0
O183 O 0.98426 0.48555 0.5876 0.0
O184 O 0.92085 0.4542 0.57822 0.0
Mg185 Mg 0.94021 0.39594 0.55956 0.0
C186 C 0.94183 0.48398 0.58722 0.0
C187 C 0.12732 0.49507 0.59007 0.0
O188 O 0.14089 0.47916 0.57432 0.0
O189 O 0.03271 0.38918 0.59594 0.0
O190 O 0.97164 0.3583 0.58375 0.0
O191 O 0.04154 0.49009 0.5515 0.0
O192 O 0.00576 0.4258 0.55371 0.0
C193 C 0.00308 0.35858 0.5956 0.0
C194 C 0.0152 0.46075 0.54428 0.0
O195 O 0.08837 0.4855 0.59554 0.0
Mg196 Mg 0.54763 0.44984 0.91136 0.0
O197 O 0.61129 0.47609 0.89847 0.0
O198 O 0.66946 0.43589 0.90857 0.0
Mg199 Mg 0.64282 0.38431 0.92855 0.0
C200 C 0.65295 0.46719 0.89878 0.0
C201 C 0.47774 0.51839 0.89722 0.0
O202 O 0.47395 0.52316 0.91496 0.0
O203 O 0.54912 0.3888 0.89273 0.0
O204 O 0.60637 0.35037 0.90479 0.0
O205 O 0.55753 0.49536 0.93509 0.0
O206 O 0.58358 0.42612 0.93373 0.0
C207 C 0.57488 0.3546 0.89309 0.0
C208 C 0.58023 0.46316 0.94255 0.0
O209 O 0.50582 0.49018 0.89106 0.0
Mg210 Mg 0.03722 0.52608 0.40771 0.0
O211 O 0.97133 0.4988 0.39653 0.0
O212 O 0.91586 0.54069 0.40774 0.0
Mg213 Mg 0.94581 0.59351 0.42642 0.0
C214 C 0.92994 0.50854 0.39784 0.0
C215 C 0.11731 0.47655 0.39315 0.0
O216 O 0.13184 0.49796 0.40764 0.0
O217 O 0.03313 0.58538 0.38809 0.0
O218 O 0.9783 0.62477 0.40127 0.0
O219 O 0.0318 0.48284 0.43217 0.0
O220 O 0.00558 0.55203 0.43066 0.0
C221 C 0.00743 0.61962 0.38876 0.0
C222 C 0.01093 0.51577 0.43988 0.0
O223 O 0.07702 0.48245 0.38815 0.0
H224 H 0.00804 0.15649 0.60632 0.0
H225 H 0.14913 0.18335 0.60411 0.0
H226 H 0.13502 0.26222 0.61046 0.0
H227 H 0.08204 0.32453 0.60754 0.0
H228 H 0.94083 0.29793 0.60629 0.0
H229 H 0.95538 0.2184 0.61102 0.0
C230 C 0.03583 0.17923 0.60798 0.0
C231 C 0.07943 0.16441 0.60419 0.0
C232 C 0.02728 0.22501 0.61066 0.0
C233 C 0.11513 0.1942 0.60657 0.0
C234 C 0.10706 0.23942 0.61009 0.0
C235 C 0.05438 0.30164 0.60911 0.0
C236 C 0.01051 0.31683 0.60603 0.0
C237 C 0.06312 0.2556 0.61077 0.0
C238 C 0.97499 0.28682 0.60825 0.0
C239 C 0.98332 0.24125 0.6108 0.0
H240 H 0.94633 0.77274 0.85863 0.0
H241 H 0.97175 0.63228 0.84969 0.0
H242 H 0.05106 0.64342 0.85556 0.0
H243 H 0.11333 0.69606 0.85412 0.0
H244 H 0.08758 0.83753 0.85886 0.0
H245 H 0.00874 0.82316 0.86441 0.0
C246 C 0.96894 0.74427 0.85868 0.0
C247 C 0.95351 0.70205 0.85317 0.0
C248 C 0.01482 0.75139 0.86104 0.0
C249 C 0.9831 0.66536 0.85348 0.0
C250 C 0.02852 0.67175 0.85675 0.0
C251 C 0.09078 0.72351 0.85725 0.0
C252 C 0.10577 0.76775 0.85575 0.0
C253 C 0.04503 0.71512 0.85917 0.0
C254 C 0.07642 0.80319 0.85975 0.0
C255 C 0.03128 0.79499 0.86273 0.0
H256 H 0.52033 0.64734 0.10936 0.0
H257 H 0.65436 0.69859 0.10661 0.0
H258 H 0.62661 0.774 0.11271 0.0
H259 H 0.5637 0.82572 0.10946 0.0
H260 H 0.42956 0.7745 0.1072 0.0
H261 H 0.45761 0.69901 0.11301 0.0
C262 C 0.54369 0.6747 0.11082 0.0
C263 C 0.58913 0.66775 0.10699 0.0
C264 C 0.52717 0.7183 0.11305 0.0
C265 C 0.61906 0.70338 0.10912 0.0
C266 C 0.60315 0.74656 0.11248 0.0
C267 C 0.54042 0.79834 0.11097 0.0
C268 C 0.49479 0.80533 0.10735 0.0
C269 C 0.55706 0.75472 0.11302 0.0
C270 C 0.46497 0.76967 0.10955 0.0
C271 C 0.48105 0.72646 0.11274 0.0
H272 H 0.62234 0.21114 0.36144 0.0
H273 H 0.59378 0.3518 0.35481 0.0
H274 H 0.51477 0.33828 0.36013 0.0
H275 H 0.45385 0.28436 0.35701 0.0
H276 H 0.48295 0.14313 0.35942 0.0
H277 H 0.56117 0.15878 0.36602 0.0
C278 C 0.59915 0.23911 0.36193 0.0
C279 C 0.61357 0.28214 0.3571 0.0
C280 C 0.55343 0.23068 0.36388 0.0
C281 C 0.58323 0.31813 0.35804 0.0
C282 C 0.53795 0.31037 0.36095 0.0
C283 C 0.47695 0.25712 0.35984 0.0
C284 C 0.46315 0.21273 0.35732 0.0
C285 C 0.5224 0.2664 0.36241 0.0
C286 C 0.4932 0.17761 0.36103 0.0
C287 C 0.538 0.18657 0.36463 0.0
H288 H 0.0159 0.81853 0.37313 0.0
H289 H 0.15607 0.78925 0.37996 0.0
H290 H 0.14213 0.71001 0.37473 0.0
H291 H 0.08802 0.64927 0.37786 0.0
H292 H 0.94734 0.67911 0.37492 0.0
H293 H 0.96338 0.75737 0.36838 0.0
C294 C 0.04366 0.79512 0.37272 0.0
C295 C 0.08668 0.80944 0.3776 0.0
C296 C 0.03503 0.74928 0.37076 0.0
C297 C 0.12241 0.7788 0.37671 0.0
C298 C 0.11442 0.73338 0.37384 0.0
C299 C 0.06099 0.67251 0.37492 0.0
C300 C 0.01663 0.65894 0.3773 0.0
C301 C 0.07048 0.718 0.37232 0.0
C302 C 0.9818 0.68919 0.37344 0.0
C303 C -0.00903 0.73402 0.36986 0.0
H304 H 0.49094 0.81867 0.63272 0.0
H305 H 0.44567 0.682 0.63296 0.0
H306 H 0.52202 0.65553 0.6287 0.0
H307 H 0.60172 0.67125 0.63333 0.0
H308 H 0.647 0.8079 0.63393 0.0
H309 H 0.57076 0.83439 0.62895 0.0
C310 C 0.49767 0.78318 0.63114 0.0
C311 C 0.4631 0.75227 0.63371 0.0
C312 C 0.54179 0.76817 0.62919 0.0
C313 C 0.47184 0.70645 0.63124 0.0
C314 C 0.51562 0.69124 0.629 0.0
C315 C 0.59502 0.70674 0.6317 0.0
C316 C 0.62952 0.73766 0.63453 0.0
C317 C 0.55099 0.72174 0.62926 0.0
C318 C 0.62085 0.78348 0.632 0.0
C319 C 0.57716 0.79868 0.62933 0.0
H320 H 0.49231 0.3281 0.88291 0.0
H321 H 0.63116 0.29036 0.88017 0.0
H322 H 0.61057 0.21278 0.87443 0.0
H323 H 0.55478 0.15491 0.87944 0.0
H324 H 0.41654 0.19229 0.88607 0.0
H325 H 0.43486 0.2704 0.88045 0.0
C326 C 0.51798 0.30323 0.88025 0.0
C327 C 0.56311 0.3145 0.88244 0.0
C328 C 0.5059 0.25826 0.87809 0.0
C329 C 0.59613 0.28212 0.87888 0.0
C330 C 0.58436 0.2377 0.87574 0.0
C331 C 0.52836 0.17985 0.87896 0.0
C332 C 0.48467 0.16811 0.88384 0.0
C333 C 0.53952 0.225 0.87676 0.0
C334 C 0.45071 0.2007 0.88284 0.0
C335 C 0.4612 0.24547 0.87973 0.0
H336 H 0.09954 0.16802 0.1264 0.0
H337 H 0.13608 0.30727 0.12771 0.0
H338 H 0.05846 0.32902 0.1228 0.0
H339 H 0.98041 0.30811 0.12804 0.0
H340 H 0.94396 0.16878 0.12846 0.0
H341 H 0.02097 0.14739 0.12217 0.0
C342 C 0.09068 0.20306 0.12482 0.0
C343 C 0.12297 0.23603 0.12811 0.0
C344 C 0.04576 0.2153 0.1227 0.0
C345 C 0.11161 0.28126 0.12554 0.0
C346 C 0.06707 0.29375 0.12295 0.0
C347 C 0.98907 0.27317 0.126 0.0
C348 C 0.95714 0.23999 0.12939 0.0
C349 C 0.03369 0.26108 0.12304 0.0
C350 C 0.9682 0.19493 0.12622 0.0
C351 C 0.01239 0.18262 0.12282 0.0
H352 H 0.0846 0.03359 0.45717 0.0
H353 H 0.09229 0.89014 0.46273 0.0
H354 H 0.09849 0.89745 0.4958 0.0
H355 H 0.09031 0.94434 0.5232 0.0
H356 H 0.08703 0.0879 0.51772 0.0
H357 H 0.09138 0.081 0.48456 0.0
C358 C 0.08863 0.00407 0.46564 0.0
C359 C 0.0872 0.96143 0.45766 0.0
C360 C 0.09262 0.00854 0.48463 0.0
C361 C 0.09315 0.92334 0.46864 0.0
C362 C 0.09641 0.92746 0.48755 0.0
C363 C 0.09165 0.97404 0.51472 0.0
C364 C 0.08764 0.01646 0.52274 0.0
C365 C 0.09448 0.96982 0.49571 0.0
C366 C 0.09002 0.05485 0.51176 0.0
C367 C 0.09215 0.05093 0.49281 0.0
H368 H 0.32874 0.78714 0.77597 0.0
H369 H 0.18515 0.78605 0.77169 0.0
H370 H 0.18988 0.79218 0.7386 0.0
H371 H 0.23506 0.78649 0.7108 0.0
H372 H 0.37859 0.79016 0.71503 0.0
H373 H 0.37363 0.79534 0.74816 0.0
C374 C 0.29854 0.78913 0.76779 0.0
C375 C 0.25676 0.78525 0.77618 0.0
C376 C 0.30146 0.79281 0.74875 0.0
C377 C 0.21778 0.78866 0.76551 0.0
C378 C 0.22042 0.79195 0.74657 0.0
C379 C 0.26516 0.78943 0.71897 0.0
C380 C 0.30707 0.78706 0.71055 0.0
C381 C 0.26211 0.79233 0.73802 0.0
C382 C 0.34587 0.79164 0.72122 0.0
C383 C 0.34311 0.79428 0.74018 0.0
H384 H 0.45925 0.0278 0.02787 0.0
H385 H 0.47162 0.88469 0.02218 0.0
H386 H 0.46999 0.89185 0.98901 0.0
H387 H 0.47757 0.94002 0.96195 0.0
H388 H 0.46208 0.08288 0.96763 0.0
H389 H 0.45166 0.07461 0.00044 0.0
C390 C 0.46044 -0.00183 0.01933 0.0
C391 C 0.4664 0.95594 0.02735 0.0
C392 C 0.45947 0.00253 0.00029 0.0
C393 C 0.46721 0.91762 0.01626 0.0
C394 C 0.46664 0.92171 -0.00271 0.0
C395 C 0.47093 0.96916 0.97035 0.0
C396 C 0.4715 0.012 0.96253 0.0
C397 C 0.46475 0.96415 0.98919 0.0
C398 C 0.46207 0.04954 0.97341 0.0
C399 C 0.45636 0.04488 0.99219 0.0
H400 H 0.34065 0.20681 0.21053 0.0
H401 H 0.19691 0.20595 0.21314 0.0
H402 H 0.20036 0.19566 0.24612 0.0
H403 H 0.24421 0.19849 0.27451 0.0
H404 H 0.38795 0.19688 0.27188 0.0
H405 H 0.38454 0.19564 0.23863 0.0
C406 C 0.31016 0.20347 0.21831 0.0
C407 C 0.26866 0.20803 0.20954 0.0
C408 C 0.31236 0.19746 0.23726 0.0
C409 C 0.22931 0.20284 0.21964 0.0
C410 C 0.23122 0.1972 0.23851 0.0
C411 C 0.27473 0.19688 0.26663 0.0
C412 C 0.3162 0.19868 0.27556 0.0
C413 C 0.27254 0.19623 0.24753 0.0
C414 C 0.35556 0.1958 0.26528 0.0
C415 C 0.35368 0.1954 0.24626 0.0
H416 H 0.74187 0.27317 0.21136 0.0
H417 H 0.88499 0.26165 0.21582 0.0
H418 H 0.88057 0.27072 0.24885 0.0
H419 H 0.83494 0.27066 0.27666 0.0
H420 H 0.69215 0.28583 0.27217 0.0
H421 H 0.69751 0.28749 0.23896 0.0
C422 C 0.77208 0.27359 0.21957 0.0
C423 C 0.81355 0.26593 0.2113 0.0
C424 C 0.76933 0.27914 0.23853 0.0
C425 C 0.85262 0.26729 0.22194 0.0
C426 C 0.85012 0.2722 0.24083 0.0
C427 C 0.80518 0.27533 0.26838 0.0
C428 C 0.76321 0.27729 0.27675 0.0
C429 C 0.80852 0.27645 0.24932 0.0
C430 C 0.72486 0.28408 0.26599 0.0
C431 C 0.72784 0.2847 0.247 0.0
H432 H 0.72577 0.70537 0.71638 0.0
H433 H 0.86674 0.68951 0.70663 0.0
H434 H 0.88047 0.68247 0.73941 0.0
H435 H 0.85383 0.69326 0.77066 0.0
H436 H 0.71406 0.71854 0.78023 0.0
H437 H 0.69817 0.70897 0.74774 0.0
C438 C 0.75933 0.69916 0.72142 0.0
C439 C 0.79526 0.69819 0.7092 0.0
C440 C 0.76716 0.69754 0.74027 0.0
C441 C 0.83864 0.6906 0.71585 0.0
C442 C 0.84649 0.6868 0.73457 0.0
C443 C 0.81976 0.69565 0.76568 0.0
C444 C 0.78518 0.70696 0.77773 0.0
C445 C 0.81124 0.69213 0.74692 0.0
C446 C 0.74124 0.71025 0.77113 0.0
C447 C 0.73218 0.70486 0.75257 0.0
H448 H 0.59804 0.5393 0.96147 0.0
H449 H 0.60206 0.39534 0.96558 0.0
H450 H 0.6162 0.4006 -0.00173 0.0
H451 H 0.61518 0.44591 0.0262 0.0
H452 H 0.61328 0.58984 0.02218 0.0
H453 H 0.61164 0.58484 0.98894 0.0
C454 C 0.60291 0.50916 0.96949 0.0
C455 C 0.59804 0.46705 0.96125 0.0
C456 C 0.61114 0.51239 0.9883 0.0
C457 C 0.60527 0.4282 0.97166 0.0
C458 C 0.61316 0.43113 0.99038 0.0
C459 C 0.61554 0.47613 0.01801 0.0
C460 C 0.61345 0.5181 0.02655 0.0
C461 C 0.61434 0.47301 -0.00106 0.0
C462 C 0.61467 0.55709 0.01587 0.0
C463 C 0.61334 0.55427 -0.00313 0.0
H464 H 0.00492 0.53675 0.52449 0.0
H465 H -0.0063 0.39321 0.52119 0.0
H466 H 0.98589 0.39773 0.48808 0.0
H467 H -0.00639 0.44176 0.45993 0.0
H468 H 0.00162 0.58554 0.46328 0.0
H469 H -0.0015 0.58179 0.4965 0.0
C470 C -0.00017 0.50662 0.51652 0.0
C471 C 0.00072 0.46471 0.52514 0.0
C472 C -0.00484 0.50947 0.49752 0.0
C473 C -0.00666 0.42587 0.51479 0.0
C474 C 0.98915 0.42839 0.49586 0.0
C475 C -0.00631 0.47225 0.46796 0.0
C476 C -0.00132 0.51374 0.45927 0.0
C477 C -0.00826 0.46987 0.48704 0.0
C478 C -0.00199 0.55315 0.46971 0.0
C479 C -0.00347 0.55104 0.48871 0.0
H480 H 0.2263 0.83841 0.63253 0.0
H481 H 0.33795 0.92876 0.6349 0.0
H482 H 0.29774 0.98222 0.6157 0.0
H483 H 0.23055 0.00394 0.59863 0.0
H484 H 0.11721 0.91562 0.59755 0.0
H485 H 0.15839 0.86079 0.61583 0.0
C486 C 0.24187 0.86971 0.62877 0.0
C487 C 0.28506 0.87953 0.63511 0.0
C488 C 0.21825 0.90072 0.61799 0.0
C489 C 0.30464 0.92046 0.63028 0.0
C490 C 0.28172 0.95103 0.61927 0.0
C491 C 0.21494 0.97259 0.60231 0.0
C492 C 0.17098 0.96382 0.59668 0.0
C493 C 0.23847 0.94159 0.6131 0.0
C494 C 0.15101 0.92327 0.60176 0.0
C495 C 0.17454 0.89185 0.61218 0.0
H496 H 0.33928 0.84399 0.85189 0.0
H497 H 0.231 0.93898 0.84645 0.0
H498 H 0.27124 -0.00769 0.86553 0.0
H499 H 0.33678 0.0116 0.88405 0.0
H500 H 0.44662 0.91811 0.88821 0.0
H501 H 0.4061 0.86448 0.86935 0.0
C502 C 0.3245 0.87636 0.85489 0.0
C503 C 0.28217 0.88744 0.84785 0.0
C504 C 0.34803 0.90707 0.86566 0.0
C505 C 0.26365 0.92971 0.85166 0.0
C506 C 0.28654 0.96017 0.86262 0.0
C507 C 0.35174 0.97941 0.88087 0.0
C508 C 0.39442 0.96866 0.8876 0.0
C509 C 0.32864 0.94911 0.86975 0.0
C510 C 0.41377 0.92715 0.88315 0.0
C511 C 0.39063 0.89645 0.8724 0.0
H512 H 0.42236 0.04331 0.10273 0.0
H513 H 0.31839 0.94408 0.10122 0.0
H514 H 0.27018 -0.00709 0.11937 0.0
H515 H 0.25775 0.06392 0.1356 0.0
H516 H 0.361 0.16401 0.13576 0.0
H517 H 0.40943 0.1145 0.1182 0.0
C518 C 0.3892 0.03224 0.10642 0.0
C519 C 0.37405 0.99006 0.10073 0.0
C520 C 0.36158 0.06061 0.1166 0.0
C521 C 0.33079 0.97647 0.10541 0.0
C522 C 0.30327 0.0043 0.11582 0.0
C523 C 0.29093 0.07477 0.13185 0.0
C524 C 0.30585 0.11746 0.13703 0.0
C525 C 0.31836 0.04643 0.12149 0.0
C526 C 0.34868 0.13135 0.13189 0.0
C527 C 0.37643 0.10306 0.12188 0.0
H528 H 0.23035 0.9696 0.38218 0.0
H529 H 0.11835 0.06076 0.38428 0.0
H530 H 0.15972 0.1156 0.36646 0.0
H531 H 0.22787 0.13758 0.35031 0.0
H532 H 0.33811 0.04441 0.3469 0.0
H533 H 0.2972 0.99038 0.36516 0.0
C534 C 0.2151 0.00156 0.3788 0.0
C535 C 0.17155 0.01128 0.38463 0.0
C536 C 0.23868 0.03249 0.36827 0.0
C537 C 0.15188 0.05251 0.37991 0.0
C538 C 0.17551 0.08389 0.36976 0.0
C539 C 0.2429 0.10546 0.35359 0.0
C540 C 0.28597 0.09508 0.34731 0.0
C541 C 0.21894 0.07423 0.36387 0.0
C542 C 0.30489 0.05314 0.35149 0.0
C543 C 0.28161 0.02227 0.36198 0.0
H544 H 0.90342 0.05528 0.40323 0.0
H545 H 0.96339 -0.00552 0.35581 0.0
H546 H 0.9152 0.03938 0.33595 0.0
H547 H 0.8578 0.0974 0.33206 0.0
H548 H 0.79935 0.15976 0.37946 0.0
H549 H 0.84521 0.11252 0.39933 0.0
C550 C 0.90584 0.05163 0.38855 0.0
C551 C 0.93703 0.02158 0.38102 0.0
C552 C 0.87839 0.07788 0.37722 0.0
C553 C 0.93976 0.01743 0.36197 0.0
C554 C 0.91222 0.04309 0.3506 0.0
C555 C 0.85487 0.10054 0.34674 0.0
C556 C 0.8252 0.13213 0.35425 0.0
C557 C 0.88167 0.07365 0.35808 0.0
C558 C 0.82198 0.13581 0.37331 0.0
C559 C 0.8482 0.10881 0.38469 0.0
H560 H 0.65085 0.05586 0.08364 0.0
H561 H 0.57669 0.00678 0.12975 0.0
H562 H 0.62388 0.04987 0.15042 0.0
H563 H 0.68616 0.10126 0.15541 0.0
H564 H 0.75998 0.1508 0.10929 0.0
H565 H 0.71284 0.10764 0.08862 0.0
C566 C 0.64497 0.05455 0.09821 0.0
C567 C 0.61031 0.02807 0.10512 0.0
C568 C 0.67215 0.07945 0.11002 0.0
C569 C 0.60313 0.02687 0.12405 0.0
C570 C 0.63011 0.05149 0.13589 0.0
C571 C 0.69201 0.10262 0.14084 0.0
C572 C 0.72661 0.12918 0.13393 0.0
C573 C 0.66473 0.07785 0.12903 0.0
C574 C 0.7336 0.13063 0.11499 0.0
C575 C 0.70666 0.10595 0.10315 0.0
H576 H 0.7096 0.88977 0.83628 0.0
H577 H 0.76533 0.81659 0.88183 0.0
H578 H 0.71896 0.85978 0.90285 0.0
H579 H 0.66064 0.91632 0.90815 0.0
H580 H 0.60367 0.98786 0.8624 0.0
H581 H 0.65264 0.94722 0.8416 0.0
C582 C 0.71188 0.8834 0.85082 0.0
C583 C 0.74086 0.84992 0.85746 0.0
C584 C 0.68476 0.90791 0.86278 0.0
C585 C 0.74325 0.8421 0.87634 0.0
C586 C 0.7167 0.86674 0.88837 0.0
C587 C 0.65905 0.92321 0.89364 0.0
C588 C 0.62842 0.95502 0.88685 0.0
C589 C 0.68702 0.89942 0.88172 0.0
C590 C 0.6268 0.96344 0.868 0.0
C591 C 0.65481 0.94024 0.85609 0.0
H592 H 0.81249 0.91766 0.64333 0.0
H593 H 0.8719 0.80295 0.61688 0.0
H594 H 0.92583 0.85135 0.60193 0.0
H595 H 0.95724 0.9257 0.59697 0.0
H596 H 0.89704 0.04091 0.6227 0.0
H597 H 0.84236 -0.00735 0.63747 0.0
C598 C 0.83707 0.90324 0.63422 0.0
C599 C 0.83824 0.8567 0.63129 0.0
C600 C 0.86804 0.93125 0.62568 0.0
C601 C 0.87019 0.83863 0.61937 0.0
C602 C 0.90118 0.86626 0.61087 0.0
C603 C 0.93231 0.9403 0.60588 0.0
C604 C 0.93145 0.9868 0.60887 0.0
C605 C 0.90068 0.91252 0.61408 0.0
C606 C 0.8985 0.00521 0.62023 0.0
C607 C 0.86721 0.97765 0.62865 0.0
H608 H 0.82404 0.4102 0.13663 0.0
H609 H 0.71967 0.31136 0.13765 0.0
H610 H 0.6716 0.36021 0.11944 0.0
H611 H 0.65937 0.43039 0.10311 0.0
H612 H 0.76445 0.52829 0.10076 0.0
H613 H 0.81226 0.4802 0.11957 0.0
C614 C 0.79068 0.39951 0.13294 0.0
C615 C 0.77534 0.35736 0.13854 0.0
C616 C 0.76348 0.42742 0.12219 0.0
C617 C 0.73228 0.34363 0.13347 0.0
C618 C 0.70475 0.37153 0.12308 0.0
C619 C 0.69269 0.44133 0.10675 0.0
C620 C 0.70826 0.48293 0.10062 0.0
C621 C 0.72006 0.4134 0.11734 0.0
C622 C 0.75172 0.49634 0.10527 0.0
C623 C 0.77901 0.46894 0.11606 0.0
H624 H 0.7724 0.42583 0.35193 0.0
H625 H 0.86404 0.31409 0.34993 0.0
H626 H 0.91851 0.35613 0.36785 0.0
H627 H 0.93994 0.42462 0.38413 0.0
H628 H 0.8464 0.53466 0.38747 0.0
H629 H 0.79276 0.4932 0.36903 0.0
C630 C 0.80439 0.4108 0.35534 0.0
C631 C 0.81435 0.36711 0.34953 0.0
C632 C 0.83511 0.43475 0.36594 0.0
C633 C 0.85562 0.34772 0.35429 0.0
C634 C 0.88678 0.37172 0.3645 0.0
C635 C 0.90783 0.43951 0.3808 0.0
C636 C 0.89723 0.48267 0.3871 0.0
C637 C 0.87686 0.41525 0.37041 0.0
C638 C 0.85531 0.50138 0.38285 0.0
C639 C 0.82466 0.47778 0.37226 0.0
H640 H 0.85713 0.47775 0.60001 0.0
H641 H 0.97 0.56651 0.59768 0.0
H642 H 0.92909 0.62266 0.61515 0.0
H643 H 0.86204 0.64592 0.63168 0.0
H644 H 0.75065 0.55571 0.6356 0.0
H645 H 0.79017 0.5008 0.6169 0.0
C646 C 0.87263 0.50949 0.60325 0.0
C647 C 0.91645 0.51798 0.59754 0.0
C648 C 0.84925 0.54131 0.61361 0.0
C649 C 0.93634 0.55906 0.602 0.0
C650 C 0.91297 0.59124 0.61195 0.0
C651 C 0.8463 0.61437 0.62834 0.0
C652 C 0.80347 0.60495 0.63496 0.0
C653 C 0.86952 0.58263 0.61791 0.0
C654 C 0.78371 0.56368 0.63072 0.0
C655 C 0.80623 0.5323 0.62 0.0
H656 H 0.79938 0.55664 0.84962 0.0
H657 H 0.70499 0.66608 0.85173 0.0
H658 H 0.65509 0.62124 0.87046 0.0
H659 H 0.63857 0.55125 0.88632 0.0
H660 H 0.73476 0.44324 0.88574 0.0
H661 H 0.78386 0.48733 0.86634 0.0
C662 C 0.76777 0.57053 0.85412 0.0
C663 C 0.75569 0.6144 0.84924 0.0
C664 C 0.73973 0.54494 0.86518 0.0
C665 C 0.715 0.63235 0.85537 0.0
C666 C 0.68645 0.60675 0.86603 0.0
C667 C 0.67023 0.53732 0.8819 0.0
C668 C 0.68296 0.49404 0.88735 0.0
C669 C 0.69853 0.56306 0.87103 0.0
C670 C 0.72431 0.47659 0.88175 0.0
C671 C 0.75232 0.5017 0.87062 0.0
H672 H 0.41684 0.58247 0.90621 0.0
H673 H 0.475 0.51468 0.85998 0.0
H674 H 0.42783 0.55835 0.83931 0.0
H675 H 0.36992 0.61533 0.83435 0.0
H676 H 0.31191 0.68354 0.88049 0.0
H677 H 0.35928 0.64006 0.90121 0.0
C678 C 0.41925 0.5772 0.89161 0.0
C679 C 0.44941 0.54523 0.88468 0.0
C680 C 0.39205 0.60247 0.87979 0.0
C681 C 0.4521 0.53901 0.86571 0.0
C682 C 0.42511 0.56396 0.85387 0.0
C683 C 0.36756 0.62074 0.84893 0.0
C684 C 0.33729 0.65263 0.85584 0.0
C685 C 0.39493 0.59571 0.86076 0.0
C686 C 0.33486 0.65922 0.87479 0.0
C687 C 0.36194 0.63435 0.88665 0.0
H688 H 0.21491 0.51371 0.58475 0.0
H689 H 0.10191 0.5497 0.61807 0.0
H690 H 0.14612 0.60713 0.63328 0.0
H691 H 0.21661 0.6477 0.63693 0.0
H692 H 0.33066 0.60936 0.60472 0.0
H693 H 0.28616 0.55256 0.58913 0.0
C694 C 0.19999 0.53399 0.59539 0.0
C695 C 0.15514 0.52746 0.60022 0.0
C696 C 0.22567 0.5668 0.60416 0.0
C697 C 0.13642 0.55386 0.61412 0.0
C698 C 0.1616 0.5869 0.62277 0.0
C699 C 0.2316 0.62716 0.62638 0.0
C700 C 0.27671 0.63299 0.62183 0.0
C701 C 0.20615 0.59386 0.61782 0.0
C702 C 0.29594 0.60558 0.6084 0.0
C703 C 0.27055 0.57306 0.59952 0.0
H704 H 0.20603 0.46365 0.39851 0.0
H705 H 0.09404 0.41472 0.36729 0.0
H706 H 0.14159 0.35718 0.35364 0.0
H707 H 0.21497 0.32072 0.35063 0.0
H708 H 0.32744 0.37181 0.38093 0.0
H709 H 0.27949 0.42828 0.39507 0.0
C710 C 0.19199 0.44049 0.38868 0.0
C711 C 0.14651 0.44348 0.38396 0.0
C712 C 0.21952 0.40764 0.38085 0.0
C713 C 0.12896 0.41331 0.37112 0.0
C714 C 0.15608 0.38025 0.36338 0.0
C715 C 0.22889 0.34394 0.36047 0.0
C716 C 0.27462 0.34186 0.36485 0.0
C717 C 0.20135 0.37698 0.36821 0.0
C718 C 0.29232 0.37265 0.37738 0.0
C719 C 0.26496 0.405 0.38543 0.0
H720 H 0.42983 0.41986 0.08266 0.0
H721 H 0.50656 0.46582 0.12892 0.0
H722 H 0.45954 0.42256 0.1494 0.0
H723 H 0.3967 0.3719 0.15418 0.0
H724 H 0.32029 0.32547 0.1079 0.0
H725 H 0.36724 0.36882 0.08742 0.0
C726 C 0.4363 0.42046 0.09722 0.0
C727 C 0.47164 0.4461 0.10423 0.0
C728 C 0.40921 0.39546 0.10892 0.0
C729 C 0.47958 0.44639 0.12315 0.0
C730 C 0.4527 0.42167 0.13488 0.0
C731 C 0.39024 0.37126 0.13961 0.0
C732 C 0.35497 0.34551 0.1326 0.0
C733 C 0.41741 0.39614 0.12791 0.0
C734 C 0.3472 0.34499 0.11368 0.0
C735 C 0.37403 0.36978 0.10195 0.0
loop_
_geom_bond_atom_site_label_1
_geom_bond_atom_site_label_2
_geom_bond_distance
_geom_bond_site_symmetry_2
_ccdc_geom_bond_type
Mg0 O1 2.028 . S
Mg0 O7 1.986 . S
Mg0 O9 2.114 1_545 S
Mg0 O10 2.251 . S
Mg0 O13 2.010 . S
O1 Mg0 2.028 . S
O1 C4 1.250 . S
O2 Mg3 2.028 . S
O2 C4 1.248 . S
Mg3 O2 2.028 . S
Mg3 O8 2.032 . S
Mg3 O10 2.079 . S
C4 O1 1.250 . S
C4 O2 1.248 . S
C5 O6 1.264 . S
C5 O13 1.249 1_665 S
O6 C5 1.264 . S
O7 Mg0 1.986 . S
O7 C11 1.246 . S
O8 Mg3 2.032 . S
O8 C11 1.259 . S
O9 Mg0 2.114 1_565 S
O9 C12 1.252 1_565 S
O10 Mg0 2.251 . S
O10 Mg3 2.079 . S
O10 C12 1.273 . S
C11 O7 1.246 . S
C11 O8 1.259 . S
C12 O9 1.252 1_545 S
C12 O10 1.273 . S
O13 Mg0 2.010 . S
O13 C5 1.249 1_445 S
Mg14 O15 2.028 . S
Mg14 O21 1.986 . S
Mg14 O23 2.114 . S
Mg14 O24 2.251 . S
Mg14 O27 2.010 . S
O15 Mg14 2.028 . S
O15 C18 1.250 . S
O16 Mg17 2.028 . S
O16 C18 1.248 . S
Mg17 O16 2.028 . S
Mg17 O22 2.032 . S
Mg17 O24 2.079 . S
C18 O15 1.250 . S
C18 O16 1.248 . S
C19 O20 1.264 . S
C19 O27 1.249 . S
O20 C19 1.264 . S
O21 Mg14 1.986 . S
O21 C25 1.246 . S
O22 Mg17 2.032 . S
O22 C25 1.259 . S
O23 Mg14 2.114 . S
O23 C26 1.252 . S
O24 Mg14 2.251 . S
O24 Mg17 2.079 . S
O24 C26 1.273 . S
C25 O21 1.246 . S
C25 O22 1.259 . S
C26 O23 1.252 . S
C26 O24 1.273 . S
O27 Mg14 2.010 . S
O27 C19 1.249 . S
Mg28 O29 2.028 . S
Mg28 O35 1.986 . S
Mg28 O37 2.114 1_565 S
Mg28 O38 2.251 . S
Mg28 O41 2.010 . S
O29 Mg28 2.028 . S
O29 C32 1.250 . S
O30 Mg31 2.028 . S
O30 C32 1.248 . S
Mg31 O30 2.028 . S
Mg31 O36 2.032 . S
Mg31 O38 2.079 . S
C32 O29 1.250 . S
C32 O30 1.248 . S
C33 O34 1.264 . S
C33 O41 1.249 1_545 S
O34 C33 1.264 . S
O35 Mg28 1.986 . S
O35 C39 1.246 . S
O36 Mg31 2.032 . S
O36 C39 1.259 . S
O37 Mg28 2.114 1_545 S
O37 C40 1.252 1_545 S
O38 Mg28 2.251 . S
O38 Mg31 2.079 . S
O38 C40 1.273 . S
C39 O35 1.246 . S
C39 O36 1.259 . S
C40 O37 1.252 1_565 S
C40 O38 1.273 . S
O41 Mg28 2.010 . S
O41 C33 1.249 1_565 S
Mg42 O43 2.028 . S
Mg42 O49 1.986 . S
Mg42 O51 2.114 . S
Mg42 O52 2.251 . S
Mg42 O55 2.010 . S
O43 Mg42 2.028 . S
O43 C46 1.250 . S
O44 Mg45 2.028 . S
O44 C46 1.248 . S
Mg45 O44 2.028 . S
Mg45 O50 2.032 . S
Mg45 O52 2.079 . S
C46 O43 1.250 . S
C46 O44 1.248 . S
C47 O48 1.264 . S
C47 O55 1.249 . S
O48 C47 1.264 . S
O49 Mg42 1.986 . S
O49 C53 1.246 . S
O50 Mg45 2.032 . S
O50 C53 1.259 . S
O51 Mg42 2.114 . S
O51 C54 1.252 . S
O52 Mg42 2.251 . S
O52 Mg45 2.079 . S
O52 C54 1.273 . S
C53 O49 1.246 . S
C53 O50 1.259 . S
C54 O51 1.252 . S
C54 O52 1.273 . S
O55 Mg42 2.010 . S
O55 C47 1.249 . S
Mg56 O57 2.028 . S
Mg56 O63 1.986 . S
Mg56 O65 2.114 1_565 S
Mg56 O66 2.251 . S
Mg56 O69 2.010 . S
O57 Mg56 2.028 . S
O57 C60 1.250 . S
O58 Mg59 2.028 . S
O58 C60 1.248 . S
Mg59 O58 2.028 . S
Mg59 O64 2.032 . S
Mg59 O66 2.079 . S
C60 O57 1.250 . S
C60 O58 1.248 . S
C61 O62 1.264 . S
C61 O69 1.249 1_645 S
O62 C61 1.264 . S
O63 Mg56 1.986 . S
O63 C67 1.246 . S
O64 Mg59 2.032 . S
O64 C67 1.259 . S
O65 Mg56 2.114 1_545 S
O65 C68 1.252 1_545 S
O66 Mg56 2.251 . S
O66 Mg59 2.079 . S
O66 C68 1.273 . S
C67 O63 1.246 . S
C67 O64 1.259 . S
C68 O65 1.252 1_565 S
C68 O66 1.273 . S
O69 Mg56 2.010 . S
O69 C61 1.249 1_465 S
Mg70 O71 2.028 . S
Mg70 O77 1.986 . S
Mg70 O79 2.114 . S
Mg70 O80 2.251 . S
Mg70 O83 2.010 . S
O71 Mg70 2.028 . S
O71 C74 1.250 . S
O72 Mg73 2.028 . S
O72 C74 1.248 . S
Mg73 O72 2.028 . S
Mg73 O78 2.032 . S
Mg73 O80 2.079 . S
C74 O71 1.250 . S
C74 O72 1.248 . S
C75 O76 1.264 . S
C75 O83 1.249 . S
O76 C75 1.264 . S
O77 Mg70 1.986 . S
O77 C81 1.246 . S
O78 Mg73 2.032 . S
O78 C81 1.259 . S
O79 Mg70 2.114 . S
O79 C82 1.252 . S
O80 Mg70 2.251 . S
O80 Mg73 2.079 . S
O80 C82 1.273 . S
C81 O77 1.246 . S
C81 O78 1.259 . S
C82 O79 1.252 . S
C82 O80 1.273 . S
O83 Mg70 2.010 . S
O83 C75 1.249 . S
Mg84 O85 2.028 . S
Mg84 O91 1.986 . S
Mg84 O93 2.114 1_545 S
Mg84 O94 2.251 . S
Mg84 O97 2.010 . S
O85 Mg84 2.028 . S
O85 C88 1.250 . S
O86 Mg87 2.028 . S
O86 C88 1.248 . S
Mg87 O86 2.028 . S
Mg87 O92 2.032 . S
Mg87 O94 2.079 . S
C88 O85 1.250 . S
C88 O86 1.248 . S
C89 O90 1.264 . S
C89 O97 1.249 1_565 S
O90 C89 1.264 . S
O91 Mg84 1.986 . S
O91 C95 1.246 . S
O92 Mg87 2.032 . S
O92 C95 1.259 . S
O93 Mg84 2.114 1_565 S
O93 C96 1.252 1_565 S
O94 Mg84 2.251 . S
O94 Mg87 2.079 . S
O94 C96 1.273 . S
C95 O91 1.246 . S
C95 O92 1.259 . S
C96 O93 1.252 1_545 S
C96 O94 1.273 . S
O97 Mg84 2.010 . S
O97 C89 1.249 1_545 S
Mg98 O99 2.028 . S
Mg98 O105 1.986 . S
Mg98 O107 2.114 . S
Mg98 O108 2.251 . S
Mg98 O111 2.010 . S
O99 Mg98 2.028 . S
O99 C102 1.250 . S
O100 Mg101 2.028 . S
O100 C102 1.248 . S
Mg101 O100 2.028 . S
Mg101 O106 2.032 . S
Mg101 O108 2.079 . S
C102 O99 1.250 . S
C102 O100 1.248 . S
C103 O104 1.264 . S
C103 O111 1.249 . S
O104 C103 1.264 . S
O105 Mg98 1.986 . S
O105 C109 1.246 . S
O106 Mg101 2.032 . S
O106 C109 1.259 . S
O107 Mg98 2.114 . S
O107 C110 1.252 . S
O108 Mg98 2.251 . S
O108 Mg101 2.079 . S
O108 C110 1.273 . S
C109 O105 1.246 . S
C109 O106 1.259 . S
C110 O107 1.252 . S
C110 O108 1.273 . S
O111 Mg98 2.010 . S
O111 C103 1.249 . S
Mg112 O113 2.028 . S
Mg112 O119 1.986 . S
Mg112 O121 2.114 . S
Mg112 O122 2.251 . S
Mg112 O125 2.010 . S
O113 Mg112 2.028 . S
O113 C116 1.250 . S
O114 Mg115 2.028 . S
O114 C116 1.248 . S
Mg115 O114 2.028 . S
Mg115 O120 2.032 . S
Mg115 O122 2.079 . S
C116 O113 1.250 . S
C116 O114 1.248 . S
C117 O118 1.264 . S
C117 O125 1.249 . S
O118 C117 1.264 . S
O119 Mg112 1.986 . S
O119 C123 1.246 . S
O120 Mg115 2.032 . S
O120 C123 1.259 . S
O121 Mg112 2.114 . S
O121 C124 1.252 . S
O122 Mg112 2.251 . S
O122 Mg115 2.079 . S
O122 C124 1.273 . S
C123 O119 1.246 . S
C123 O120 1.259 . S
C124 O121 1.252 . S
C124 O122 1.273 . S
O125 Mg112 2.010 . S
O125 C117 1.249 . S
Mg126 O127 2.028 . S
Mg126 O133 1.986 . S
Mg126 O135 2.114 . S
Mg126 O136 2.251 . S
Mg126 O139 2.010 . S
O127 Mg126 2.028 . S
O127 C130 1.250 . S
O128 Mg129 2.028 . S
O128 C130 1.248 . S
Mg129 O128 2.028 . S
Mg129 O134 2.032 . S
Mg129 O136 2.079 . S
C130 O127 1.250 . S
C130 O128 1.248 . S
C131 O132 1.264 . S
C131 O139 1.249 . S
O132 C131 1.264 . S
O133 Mg126 1.986 . S
O133 C137 1.246 . S
O134 Mg129 2.032 . S
O134 C137 1.259 . S
O135 Mg126 2.114 . S
O135 C138 1.252 . S
O136 Mg126 2.251 . S
O136 Mg129 2.079 . S
O136 C138 1.273 . S
C137 O133 1.246 . S
C137 O134 1.259 . S
C138 O135 1.252 . S
C138 O136 1.273 . S
O139 Mg126 2.010 . S
O139 C131 1.249 . S
Mg140 O141 2.028 . S
Mg140 O147 1.986 . S
Mg140 O149 2.114 . S
Mg140 O150 2.251 . S
Mg140 O153 2.010 . S
O141 Mg140 2.028 . S
O141 C144 1.250 . S
O142 Mg143 2.028 . S
O142 C144 1.248 . S
Mg143 O142 2.028 . S
Mg143 O148 2.032 . S
Mg143 O150 2.079 . S
C144 O141 1.250 . S
C144 O142 1.248 . S
C145 O146 1.264 . S
C145 O153 1.249 . S
O146 C145 1.264 . S
O147 Mg140 1.986 . S
O147 C151 1.246 . S
O148 Mg143 2.032 . S
O148 C151 1.259 . S
O149 Mg140 2.114 . S
O149 C152 1.252 . S
O150 Mg140 2.251 . S
O150 Mg143 2.079 . S
O150 C152 1.273 . S
C151 O147 1.246 . S
C151 O148 1.259 . S
C152 O149 1.252 . S
C152 O150 1.273 . S
O153 Mg140 2.010 . S
O153 C145 1.249 . S
Mg154 O155 2.028 . S
Mg154 O161 1.986 . S
Mg154 O163 2.114 . S
Mg154 O164 2.251 . S
Mg154 O167 2.010 . S
O155 Mg154 2.028 . S
O155 C158 1.250 . S
O156 Mg157 2.028 . S
O156 C158 1.248 . S
Mg157 O156 2.028 . S
Mg157 O162 2.032 . S
Mg157 O164 2.079 . S
C158 O155 1.250 . S
C158 O156 1.248 . S
C159 O160 1.264 . S
C159 O167 1.249 . S
O160 C159 1.264 . S
O161 Mg154 1.986 . S
O161 C165 1.246 . S
O162 Mg157 2.032 . S
O162 C165 1.259 . S
O163 Mg154 2.114 . S
O163 C166 1.252 . S
O164 Mg154 2.251 . S
O164 Mg157 2.079 . S
O164 C166 1.273 . S
C165 O161 1.246 . S
C165 O162 1.259 . S
C166 O163 1.252 . S
C166 O164 1.273 . S
O167 Mg154 2.010 . S
O167 C159 1.249 . S
Mg168 O169 2.028 . S
Mg168 O175 1.986 . S
Mg168 O177 2.114 . S
Mg168 O178 2.251 . S
Mg168 O181 2.010 . S
O169 Mg168 2.028 . S
O169 C172 1.250 . S
O170 Mg171 2.028 . S
O170 C172 1.248 . S
Mg171 O170 2.028 . S
Mg171 O176 2.032 . S
Mg171 O178 2.079 . S
C172 O169 1.250 . S
C172 O170 1.248 . S
C173 O174 1.264 . S
C173 O181 1.249 . S
O174 C173 1.264 . S
O175 Mg168 1.986 . S
O175 C179 1.246 . S
O176 Mg171 2.032 . S
O176 C179 1.259 . S
O177 Mg168 2.114 . S
O177 C180 1.252 . S
O178 Mg168 2.251 . S
O178 Mg171 2.079 . S
O178 C180 1.273 . S
C179 O175 1.246 . S
C179 O176 1.259 . S
C180 O177 1.252 . S
C180 O178 1.273 . S
O181 Mg168 2.010 . S
O181 C173 1.249 . S
Mg182 O183 2.028 1_455 S
Mg182 O189 1.986 . S
Mg182 O191 2.114 . S
Mg182 O192 2.251 1_455 S
Mg182 O195 2.010 . S
O183 Mg182 2.028 1_655 S
O183 C186 1.250 . S
O184 Mg185 2.028 . S
O184 C186 1.248 . S
Mg185 O184 2.028 . S
Mg185 O190 2.032 . S
Mg185 O192 2.079 . S
C186 O183 1.250 . S
C186 O184 1.248 . S
C187 O188 1.264 . S
C187 O195 1.249 . S
O188 C187 1.264 . S
O189 Mg182 1.986 . S
O189 C193 1.246 . S
O190 Mg185 2.032 . S
O190 C193 1.259 1_655 S
O191 Mg182 2.114 . S
O191 C194 1.252 . S
O192 Mg182 2.251 1_655 S
O192 Mg185 2.079 . S
O192 C194 1.273 1_655 S
C193 O189 1.246 . S
C193 O190 1.259 1_455 S
C194 O191 1.252 . S
C194 O192 1.273 1_455 S
O195 Mg182 2.010 . S
O195 C187 1.249 . S
Mg196 O197 2.028 . S
Mg196 O203 1.986 . S
Mg196 O205 2.114 . S
Mg196 O206 2.251 . S
Mg196 O209 2.010 . S
O197 Mg196 2.028 . S
O197 C200 1.250 . S
O198 Mg199 2.028 . S
O198 C200 1.248 . S
Mg199 O198 2.028 . S
Mg199 O204 2.032 . S
Mg199 O206 2.079 . S
C200 O197 1.250 . S
C200 O198 1.248 . S
C201 O202 1.264 . S
C201 O209 1.249 . S
O202 C201 1.264 . S
O203 Mg196 1.986 . S
O203 C207 1.246 . S
O204 Mg199 2.032 . S
O204 C207 1.259 . S
O205 Mg196 2.114 . S
O205 C208 1.252 . S
O206 Mg196 2.251 . S
O206 Mg199 2.079 . S
O206 C208 1.273 . S
C207 O203 1.246 . S
C207 O204 1.259 . S
C208 O205 1.252 . S
C208 O206 1.273 . S
O209 Mg196 2.010 . S
O209 C201 1.249 . S
Mg210 O211 2.028 1_455 S
Mg210 O217 1.986 . S
Mg210 O219 2.114 . S
Mg210 O220 2.251 1_455 S
Mg210 O223 2.010 . S
O211 Mg210 2.028 1_655 S
O211 C214 1.250 . S
O212 Mg213 2.028 . S
O212 C214 1.248 . S
Mg213 O212 2.028 . S
Mg213 O218 2.032 . S
Mg213 O220 2.079 . S
C214 O211 1.250 . S
C214 O212 1.248 . S
C215 O216 1.264 . S
C215 O223 1.249 . S
O216 C215 1.264 . S
O217 Mg210 1.986 . S
O217 C221 1.246 . S
O218 Mg213 2.032 . S
O218 C221 1.259 1_655 S
O219 Mg210 2.114 . S
O219 C222 1.252 . S
O220 Mg210 2.251 1_655 S
O220 Mg213 2.079 . S
O220 C222 1.273 1_655 S
C221 O217 1.246 . S
C221 O218 1.259 1_455 S
C222 O219 1.252 . S
C222 O220 1.273 1_455 S
O223 Mg210 2.010 . S
O223 C215 1.249 . S
H224 C230 0.930 . S
H225 C233 0.930 . S
H226 C234 0.930 . S
H227 C235 0.930 . S
H228 C238 0.930 1_655 S
H229 C239 0.930 1_655 S
C230 H224 0.930 . S
C230 C231 1.355 . S
C230 C232 1.415 . S
C231 C230 1.355 . S
C231 C233 1.419 . S
C232 C230 1.415 . S
C232 C237 1.425 . S
C232 C239 1.409 . S
C233 H225 0.930 . S
C233 C231 1.419 . S
C233 C234 1.362 . S
C234 H226 0.930 . S
C234 C233 1.362 . S
C234 C237 1.409 . S
C235 H227 0.930 . S
C235 C236 1.355 . S
C235 C237 1.415 . S
C236 C235 1.355 . S
C236 C238 1.419 . S
C237 C232 1.425 . S
C237 C234 1.409 . S
C237 C235 1.415 . S
C238 H228 0.930 1_455 S
C238 C236 1.419 . S
C238 C239 1.362 . S
C239 H229 0.930 1_455 S
C239 C232 1.409 . S
C239 C238 1.362 . S
H240 C246 0.930 . S
H241 C249 0.930 . S
H242 C250 0.930 . S
H243 C251 0.930 . S
H244 C254 0.930 . S
H245 C255 0.930 . S
C246 H240 0.930 . S
C246 C247 1.355 . S
C246 C248 1.415 1_655 S
C247 C246 1.355 . S
C247 C249 1.419 . S
C248 C246 1.415 1_455 S
C248 C253 1.425 . S
C248 C255 1.409 . S
C249 H241 0.930 . S
C249 C247 1.419 . S
C249 C250 1.362 1_655 S
C250 H242 0.930 . S
C250 C249 1.362 1_455 S
C250 C253 1.409 . S
C251 H243 0.930 . S
C251 C252 1.355 . S
C251 C253 1.415 . S
C252 C251 1.355 . S
C252 C254 1.419 . S
C253 C248 1.425 . S
C253 C250 1.409 . S
C253 C251 1.415 . S
C254 H244 0.930 . S
C254 C252 1.419 . S
C254 C255 1.362 . S
C255 H245 0.930 . S
C255 C248 1.409 . S
C255 C254 1.362 . S
H256 C262 0.930 . S
H257 C265 0.930 . S
H258 C266 0.930 . S
H259 C267 0.930 . S
H260 C270 0.930 . S
H261 C271 0.930 . S
C262 H256 0.930 . S
C262 C263 1.355 . S
C262 C264 1.415 . S
C263 C262 1.355 . S
C263 C265 1.419 . S
C264 C262 1.415 . S
C264 C269 1.425 . S
C264 C271 1.409 . S
C265 H257 0.930 . S
C265 C263 1.419 . S
C265 C266 1.362 . S
C266 H258 0.930 . S
C266 C265 1.362 . S
C266 C269 1.409 . S
C267 H259 0.930 . S
C267 C268 1.355 . S
C267 C269 1.415 . S
C268 C267 1.355 . S
C268 C270 1.419 . S
C269 C264 1.425 . S
C269 C266 1.409 . S
C269 C267 1.415 . S
C270 H260 0.930 . S
C270 C268 1.419 . S
C270 C271 1.362 . S
C271 H261 0.930 . S
C271 C264 1.409 . S
C271 C270 1.362 . S
H272 C278 0.930 . S
H273 C281 0.930 . S
H274 C282 0.930 . S
H275 C283 0.930 . S
H276 C286 0.930 . S
H277 C287 0.930 . S
C278 H272 0.930 . S
C278 C279 1.355 . S
C278 C280 1.415 . S
C279 C278 1.355 . S
C279 C281 1.419 . S
C280 C278 1.415 . S
C280 C285 1.425 . S
C280 C287 1.409 . S
C281 H273 0.930 . S
C281 C279 1.419 . S
C281 C282 1.362 . S
C282 H274 0.930 . S
C282 C281 1.362 . S
C282 C285 1.409 . S
C283 H275 0.930 . S
C283 C284 1.355 . S
C283 C285 1.415 . S
C284 C283 1.355 . S
C284 C286 1.419 . S
C285 C280 1.425 . S
C285 C282 1.409 . S
C285 C283 1.415 . S
C286 H276 0.930 . S
C286 C284 1.419 . S
C286 C287 1.362 . S
C287 H277 0.930 . S
C287 C280 1.409 . S
C287 C286 1.362 . S
H288 C294 0.930 . S
H289 C297 0.930 . S
H290 C298 0.930 . S
H291 C299 0.930 . S
H292 C302 0.930 1_655 S
H293 C303 0.930 1_655 S
C294 H288 0.930 . S
C294 C295 1.355 . S
C294 C296 1.415 . S
C295 C294 1.355 . S
C295 C297 1.419 . S
C296 C294 1.415 . S
C296 C301 1.425 . S
C296 C303 1.409 . S
C297 H289 0.930 . S
C297 C295 1.419 . S
C297 C298 1.362 . S
C298 H290 0.930 . S
C298 C297 1.362 . S
C298 C301 1.409 . S
C299 H291 0.930 . S
C299 C300 1.355 . S
C299 C301 1.415 . S
C300 C299 1.355 . S
C300 C302 1.419 . S
C301 C296 1.425 . S
C301 C298 1.409 . S
C301 C299 1.415 . S
C302 H292 0.930 1_455 S
C302 C300 1.419 . S
C302 C303 1.362 . S
C303 H293 0.930 1_455 S
C303 C296 1.409 . S
C303 C302 1.362 . S
H304 C310 0.930 . S
H305 C313 0.930 . S
H306 C314 0.930 . S
H307 C315 0.930 . S
H308 C318 0.930 . S
H309 C319 0.930 . S
C310 H304 0.930 . S
C310 C311 1.355 . S
C310 C312 1.415 . S
C311 C310 1.355 . S
C311 C313 1.419 . S
C312 C310 1.415 . S
C312 C317 1.425 . S
C312 C319 1.409 . S
C313 H305 0.930 . S
C313 C311 1.419 . S
C313 C314 1.362 . S
C314 H306 0.930 . S
C314 C313 1.362 . S
C314 C317 1.409 . S
C315 H307 0.930 . S
C315 C316 1.355 . S
C315 C317 1.415 . S
C316 C315 1.355 . S
C316 C318 1.419 . S
C317 C312 1.425 . S
C317 C314 1.409 . S
C317 C315 1.415 . S
C318 H308 0.930 . S
C318 C316 1.419 . S
C318 C319 1.362 . S
C319 H309 0.930 . S
C319 C312 1.409 . S
C319 C318 1.362 . S
H320 C326 0.930 . S
H321 C329 0.930 . S
H322 C330 0.930 . S
H323 C331 0.930 . S
H324 C334 0.930 . S
H325 C335 0.930 . S
C326 H320 0.930 . S
C326 C327 1.355 . S
C326 C328 1.415 . S
C327 C326 1.355 . S
C327 C329 1.419 . S
C328 C326 1.415 . S
C328 C333 1.425 . S
C328 C335 1.409 . S
C329 H321 0.930 . S
C329 C327 1.419 . S
C329 C330 1.362 . S
C330 H322 0.930 . S
C330 C329 1.362 . S
C330 C333 1.409 . S
C331 H323 0.930 . S
C331 C332 1.355 . S
C331 C333 1.415 . S
C332 C331 1.355 . S
C332 C334 1.419 . S
C333 C328 1.425 . S
C333 C330 1.409 . S
C333 C331 1.415 . S
C334 H324 0.930 . S
C334 C332 1.419 . S
C334 C335 1.362 . S
C335 H325 0.930 . S
C335 C328 1.409 . S
C335 C334 1.362 . S
H336 C342 0.930 . S
H337 C345 0.930 . S
H338 C346 0.930 . S
H339 C347 0.930 1_655 S
H340 C350 0.930 . S
H341 C351 0.930 . S
C342 H336 0.930 . S
C342 C343 1.355 . S
C342 C344 1.415 . S
C343 C342 1.355 . S
C343 C345 1.419 . S
C344 C342 1.415 . S
C344 C349 1.425 . S
C344 C351 1.409 . S
C345 H337 0.930 . S
C345 C343 1.419 . S
C345 C346 1.362 . S
C346 H338 0.930 . S
C346 C345 1.362 . S
C346 C349 1.409 . S
C347 H339 0.930 1_455 S
C347 C348 1.355 1_455 S
C347 C349 1.415 . S
C348 C347 1.355 1_655 S
C348 C350 1.419 . S
C349 C344 1.425 . S
C349 C346 1.409 . S
C349 C347 1.415 . S
C350 H340 0.930 . S
C350 C348 1.419 . S
C350 C351 1.362 1_655 S
C351 H341 0.930 . S
C351 C344 1.409 . S
C351 C350 1.362 1_455 S
H352 C358 0.930 . S
H353 C361 0.930 . S
H354 C362 0.930 . S
H355 C363 0.930 . S
H356 C366 0.930 . S
H357 C367 0.930 . S
C358 H352 0.930 . S
C358 C359 1.355 1_545 S
C358 C360 1.415 . S
C359 C358 1.355 1_565 S
C359 C361 1.419 . S
C360 C358 1.415 . S
C360 C365 1.425 1_545 S
C360 C367 1.409 . S
C361 H353 0.930 . S
C361 C359 1.419 . S
C361 C362 1.362 . S
C362 H354 0.930 . S
C362 C361 1.362 . S
C362 C365 1.409 . S
C363 H355 0.930 . S
C363 C364 1.355 1_565 S
C363 C365 1.415 . S
C364 C363 1.355 1_545 S
C364 C366 1.419 . S
C365 C360 1.425 1_565 S
C365 C362 1.409 . S
C365 C363 1.415 . S
C366 H356 0.930 . S
C366 C364 1.419 . S
C366 C367 1.362 . S
C367 H357 0.930 . S
C367 C360 1.409 . S
C367 C366 1.362 . S
H368 C374 0.930 . S
H369 C377 0.930 . S
H370 C378 0.930 . S
H371 C379 0.930 . S
H372 C382 0.930 . S
H373 C383 0.930 . S
C374 H368 0.930 . S
C374 C375 1.355 . S
C374 C376 1.415 . S
C375 C374 1.355 . S
C375 C377 1.419 . S
C376 C374 1.415 . S
C376 C381 1.425 . S
C376 C383 1.409 . S
C377 H369 0.930 . S
C377 C375 1.419 . S
C377 C378 1.362 . S
C378 H370 0.930 . S
C378 C377 1.362 . S
C378 C381 1.409 . S
C379 H371 0.930 . S
C379 C380 1.355 . S
C379 C381 1.415 . S
C380 C379 1.355 . S
C380 C382 1.419 . S
C381 C376 1.425 . S
C381 C378 1.409 . S
C381 C379 1.415 . S
C382 H372 0.930 . S
C382 C380 1.419 . S
C382 C383 1.362 . S
C383 H373 0.930 . S
C383 C376 1.409 . S
C383 C382 1.362 . S
H384 C390 0.930 . S
H385 C393 0.930 . S
H386 C394 0.930 . S
H387 C395 0.930 . S
H388 C398 0.930 . S
H389 C399 0.930 . S
C390 H384 0.930 . S
C390 C391 1.355 1_545 S
C390 C392 1.415 . S
C391 C390 1.355 1_565 S
C391 C393 1.419 . S
C392 C390 1.415 . S
C392 C397 1.425 1_544 S
C392 C399 1.409 1_554 S
C393 H385 0.930 . S
C393 C391 1.419 . S
C393 C394 1.362 . S
C394 H386 0.930 . S
C394 C393 1.362 . S
C394 C397 1.409 1_554 S
C395 H387 0.930 . S
C395 C396 1.355 1_565 S
C395 C397 1.415 . S
C396 C395 1.355 1_545 S
C396 C398 1.419 . S
C397 C392 1.425 1_566 S
C397 C394 1.409 1_556 S
C397 C395 1.415 . S
C398 H388 0.930 . S
C398 C396 1.419 . S
C398 C399 1.362 . S
C399 H389 0.930 . S
C399 C392 1.409 1_556 S
C399 C398 1.362 . S
H400 C406 0.930 . S
H401 C409 0.930 . S
H402 C410 0.930 . S
H403 C411 0.930 . S
H404 C414 0.930 . S
H405 C415 0.930 . S
C406 H400 0.930 . S
C406 C407 1.355 . S
C406 C408 1.415 . S
C407 C406 1.355 . S
C407 C409 1.419 . S
C408 C406 1.415 . S
C408 C413 1.425 . S
C408 C415 1.409 . S
C409 H401 0.930 . S
C409 C407 1.419 . S
C409 C410 1.362 . S
C410 H402 0.930 . S
C410 C409 1.362 . S
C410 C413 1.409 . S
C411 H403 0.930 . S
C411 C412 1.355 . S
C411 C413 1.415 . S
C412 C411 1.355 . S
C412 C414 1.419 . S
C413 C408 1.425 . S
C413 C410 1.409 . S
C413 C411 1.415 . S
C414 H404 0.930 . S
C414 C412 1.419 . S
C414 C415 1.362 . S
C415 H405 0.930 . S
C415 C408 1.409 . S
C415 C414 1.362 . S
H416 C422 0.930 . S
H417 C425 0.930 . S
H418 C426 0.930 . S
H419 C427 0.930 . S
H420 C430 0.930 . S
H421 C431 0.930 . S
C422 H416 0.930 . S
C422 C423 1.355 . S
C422 C424 1.415 . S
C423 C422 1.355 . S
C423 C425 1.419 . S
C424 C422 1.415 . S
C424 C429 1.425 . S
C424 C431 1.409 . S
C425 H417 0.930 . S
C425 C423 1.419 . S
C425 C426 1.362 . S
C426 H418 0.930 . S
C426 C425 1.362 . S
C426 C429 1.409 . S
C427 H419 0.930 . S
C427 C428 1.355 . S
C427 C429 1.415 . S
C428 C427 1.355 . S
C428 C430 1.419 . S
C429 C424 1.425 . S
C429 C426 1.409 . S
C429 C427 1.415 . S
C430 H420 0.930 . S
C430 C428 1.419 . S
C430 C431 1.362 . S
C431 H421 0.930 . S
C431 C424 1.409 . S
C431 C430 1.362 . S
H432 C438 0.930 . S
H433 C441 0.930 . S
H434 C442 0.930 . S
H435 C443 0.930 . S
H436 C446 0.930 . S
H437 C447 0.930 . S
C438 H432 0.930 . S
C438 C439 1.355 . S
C438 C440 1.415 . S
C439 C438 1.355 . S
C439 C441 1.419 . S
C440 C438 1.415 . S
C440 C445 1.425 . S
C440 C447 1.409 . S
C441 H433 0.930 . S
C441 C439 1.419 . S
C441 C442 1.362 . S
C442 H434 0.930 . S
C442 C441 1.362 . S
C442 C445 1.409 . S
C443 H435 0.930 . S
C443 C444 1.355 . S
C443 C445 1.415 . S
C444 C443 1.355 . S
C444 C446 1.419 . S
C445 C440 1.425 . S
C445 C442 1.409 . S
C445 C443 1.415 . S
C446 H436 0.930 . S
C446 C444 1.419 . S
C446 C447 1.362 . S
C447 H437 0.930 . S
C447 C440 1.409 . S
C447 C446 1.362 . S
H448 C454 0.930 . S
H449 C457 0.930 . S
H450 C458 0.930 . S
H451 C459 0.930 . S
H452 C462 0.930 . S
H453 C463 0.930 . S
C454 H448 0.930 . S
C454 C455 1.355 . S
C454 C456 1.415 . S
C455 C454 1.355 . S
C455 C457 1.419 . S
C456 C454 1.415 . S
C456 C461 1.425 1_556 S
C456 C463 1.409 1_556 S
C457 H449 0.930 . S
C457 C455 1.419 . S
C457 C458 1.362 . S
C458 H450 0.930 . S
C458 C457 1.362 . S
C458 C461 1.409 1_556 S
C459 H451 0.930 . S
C459 C460 1.355 . S
C459 C461 1.415 . S
C460 C459 1.355 . S
C460 C462 1.419 . S
C461 C456 1.425 1_554 S
C461 C458 1.409 1_554 S
C461 C459 1.415 . S
C462 H452 0.930 . S
C462 C460 1.419 . S
C462 C463 1.362 . S
C463 H453 0.930 . S
C463 C456 1.409 1_554 S
C463 C462 1.362 . S
H464 C470 0.930 . S
H465 C473 0.930 . S
H466 C474 0.930 . S
H467 C475 0.930 . S
H468 C478 0.930 . S
H469 C479 0.930 . S
C470 H464 0.930 . S
C470 C471 1.355 . S
C470 C472 1.415 . S
C471 C470 1.355 . S
C471 C473 1.419 1_455 S
C472 C470 1.415 . S
C472 C477 1.425 1_455 S
C472 C479 1.409 . S
C473 H465 0.930 . S
C473 C471 1.419 1_655 S
C473 C474 1.362 . S
C474 H466 0.930 . S
C474 C473 1.362 . S
C474 C477 1.409 . S
C475 H467 0.930 . S
C475 C476 1.355 1_655 S
C475 C477 1.415 . S
C476 C475 1.355 1_455 S
C476 C478 1.419 . S
C477 C472 1.425 1_655 S
C477 C474 1.409 . S
C477 C475 1.415 . S
C478 H468 0.930 . S
C478 C476 1.419 . S
C478 C479 1.362 . S
C479 H469 0.930 . S
C479 C472 1.409 . S
C479 C478 1.362 . S
H480 C486 0.930 . S
H481 C489 0.930 . S
H482 C490 0.930 . S
H483 C491 0.930 1_545 S
H484 C494 0.930 . S
H485 C495 0.930 . S
C486 H480 0.930 . S
C486 C487 1.355 . S
C486 C488 1.415 . S
C487 C486 1.355 . S
C487 C489 1.419 . S
C488 C486 1.415 . S
C488 C493 1.425 . S
C488 C495 1.409 . S
C489 H481 0.930 . S
C489 C487 1.419 . S
C489 C490 1.362 . S
C490 H482 0.930 . S
C490 C489 1.362 . S
C490 C493 1.409 . S
C491 H483 0.930 1_565 S
C491 C492 1.355 . S
C491 C493 1.415 . S
C492 C491 1.355 . S
C492 C494 1.419 . S
C493 C488 1.425 . S
C493 C490 1.409 . S
C493 C491 1.415 . S
C494 H484 0.930 . S
C494 C492 1.419 . S
C494 C495 1.362 . S
C495 H485 0.930 . S
C495 C488 1.409 . S
C495 C494 1.362 . S
H496 C502 0.930 . S
H497 C505 0.930 . S
H498 C506 0.930 . S
H499 C507 0.930 1_545 S
H500 C510 0.930 . S
H501 C511 0.930 . S
C502 H496 0.930 . S
C502 C503 1.355 . S
C502 C504 1.415 . S
C503 C502 1.355 . S
C503 C505 1.419 . S
C504 C502 1.415 . S
C504 C509 1.425 . S
C504 C511 1.409 . S
C505 H497 0.930 . S
C505 C503 1.419 . S
C505 C506 1.362 . S
C506 H498 0.930 . S
C506 C505 1.362 . S
C506 C509 1.409 . S
C507 H499 0.930 1_565 S
C507 C508 1.355 . S
C507 C509 1.415 . S
C508 C507 1.355 . S
C508 C510 1.419 . S
C509 C504 1.425 . S
C509 C506 1.409 . S
C509 C507 1.415 . S
C510 H500 0.930 . S
C510 C508 1.419 . S
C510 C511 1.362 . S
C511 H501 0.930 . S
C511 C504 1.409 . S
C511 C510 1.362 . S
H512 C518 0.930 . S
H513 C521 0.930 1_565 S
H514 C522 0.930 . S
H515 C523 0.930 . S
H516 C526 0.930 . S
H517 C527 0.930 . S
C518 H512 0.930 . S
C518 C519 1.355 . S
C518 C520 1.415 . S
C519 C518 1.355 . S
C519 C521 1.419 . S
C520 C518 1.415 . S
C520 C525 1.425 . S
C520 C527 1.409 . S
C521 H513 0.930 1_545 S
C521 C519 1.419 . S
C521 C522 1.362 . S
C522 H514 0.930 . S
C522 C521 1.362 . S
C522 C525 1.409 . S
C523 H515 0.930 . S
C523 C524 1.355 . S
C523 C525 1.415 . S
C524 C523 1.355 . S
C524 C526 1.419 . S
C525 C520 1.425 . S
C525 C522 1.409 . S
C525 C523 1.415 . S
C526 H516 0.930 . S
C526 C524 1.419 . S
C526 C527 1.362 . S
C527 H517 0.930 . S
C527 C520 1.409 . S
C527 C526 1.362 . S
H528 C534 0.930 . S
H529 C537 0.930 . S
H530 C538 0.930 . S
H531 C539 0.930 . S
H532 C542 0.930 . S
H533 C543 0.930 . S
C534 H528 0.930 . S
C534 C535 1.355 . S
C534 C536 1.415 . S
C535 C534 1.355 . S
C535 C537 1.419 . S
C536 C534 1.415 . S
C536 C541 1.425 . S
C536 C543 1.409 . S
C537 H529 0.930 . S
C537 C535 1.419 . S
C537 C538 1.362 . S
C538 H530 0.930 . S
C538 C537 1.362 . S
C538 C541 1.409 . S
C539 H531 0.930 . S
C539 C540 1.355 . S
C539 C541 1.415 . S
C540 C539 1.355 . S
C540 C542 1.419 . S
C541 C536 1.425 . S
C541 C538 1.409 . S
C541 C539 1.415 . S
C542 H532 0.930 . S
C542 C540 1.419 . S
C542 C543 1.362 . S
C543 H533 0.930 . S
C543 C536 1.409 . S
C543 C542 1.362 . S
H544 C550 0.930 . S
H545 C553 0.930 1_455 S
H546 C554 0.930 . S
H547 C555 0.930 . S
H548 C558 0.930 . S
H549 C559 0.930 . S
C550 H544 0.930 . S
C550 C551 1.355 . S
C550 C552 1.415 . S
C551 C550 1.355 . S
C551 C553 1.419 . S
C552 C550 1.415 . S
C552 C557 1.425 . S
C552 C559 1.409 . S
C553 H545 0.930 1_655 S
C553 C551 1.419 . S
C553 C554 1.362 . S
C554 H546 0.930 . S
C554 C553 1.362 . S
C554 C557 1.409 . S
C555 H547 0.930 . S
C555 C556 1.355 . S
C555 C557 1.415 . S
C556 C555 1.355 . S
C556 C558 1.419 . S
C557 C552 1.425 . S
C557 C554 1.409 . S
C557 C555 1.415 . S
C558 H548 0.930 . S
C558 C556 1.419 . S
C558 C559 1.362 . S
C559 H549 0.930 . S
C559 C552 1.409 . S
C559 C558 1.362 . S
H560 C566 0.930 . S
H561 C569 0.930 . S
H562 C570 0.930 . S
H563 C571 0.930 . S
H564 C574 0.930 . S
H565 C575 0.930 . S
C566 H560 0.930 . S
C566 C567 1.355 . S
C566 C568 1.415 . S
C567 C566 1.355 . S
C567 C569 1.419 . S
C568 C566 1.415 . S
C568 C573 1.425 . S
C568 C575 1.409 . S
C569 H561 0.930 . S
C569 C567 1.419 . S
C569 C570 1.362 . S
C570 H562 0.930 . S
C570 C569 1.362 . S
C570 C573 1.409 . S
C571 H563 0.930 . S
C571 C572 1.355 . S
C571 C573 1.415 . S
C572 C571 1.355 . S
C572 C574 1.419 . S
C573 C568 1.425 . S
C573 C570 1.409 . S
C573 C571 1.415 . S
C574 H564 0.930 . S
C574 C572 1.419 . S
C574 C575 1.362 . S
C575 H565 0.930 . S
C575 C568 1.409 . S
C575 C574 1.362 . S
H576 C582 0.930 . S
H577 C585 0.930 . S
H578 C586 0.930 . S
H579 C587 0.930 . S
H580 C590 0.930 . S
H581 C591 0.930 . S
C582 H576 0.930 . S
C582 C583 1.355 . S
C582 C584 1.415 . S
C583 C582 1.355 . S
C583 C585 1.419 . S
C584 C582 1.415 . S
C584 C589 1.425 . S
C584 C591 1.409 . S
C585 H577 0.930 . S
C585 C583 1.419 . S
C585 C586 1.362 . S
C586 H578 0.930 . S
C586 C585 1.362 . S
C586 C589 1.409 . S
C587 H579 0.930 . S
C587 C588 1.355 . S
C587 C589 1.415 . S
C588 C587 1.355 . S
C588 C590 1.419 . S
C589 C584 1.425 . S
C589 C586 1.409 . S
C589 C587 1.415 . S
C590 H580 0.930 . S
C590 C588 1.419 . S
C590 C591 1.362 . S
C591 H581 0.930 . S
C591 C584 1.409 . S
C591 C590 1.362 . S
H592 C598 0.930 . S
H593 C601 0.930 . S
H594 C602 0.930 . S
H595 C603 0.930 . S
H596 C606 0.930 1_545 S
H597 C607 0.930 . S
C598 H592 0.930 . S
C598 C599 1.355 . S
C598 C600 1.415 . S
C599 C598 1.355 . S
C599 C601 1.419 . S
C600 C598 1.415 . S
C600 C605 1.425 . S
C600 C607 1.409 . S
C601 H593 0.930 . S
C601 C599 1.419 . S
C601 C602 1.362 . S
C602 H594 0.930 . S
C602 C601 1.362 . S
C602 C605 1.409 . S
C603 H595 0.930 . S
C603 C604 1.355 . S
C603 C605 1.415 . S
C604 C603 1.355 . S
C604 C606 1.419 . S
C605 C600 1.425 . S
C605 C602 1.409 . S
C605 C603 1.415 . S
C606 H596 0.930 1_565 S
C606 C604 1.419 . S
C606 C607 1.362 . S
C607 H597 0.930 . S
C607 C600 1.409 . S
C607 C606 1.362 . S
H608 C614 0.930 . S
H609 C617 0.930 . S
H610 C618 0.930 . S
H611 C619 0.930 . S
H612 C622 0.930 . S
H613 C623 0.930 . S
C614 H608 0.930 . S
C614 C615 1.355 . S
C614 C616 1.415 . S
C615 C614 1.355 . S
C615 C617 1.419 . S
C616 C614 1.415 . S
C616 C621 1.425 . S
C616 C623 1.409 . S
C617 H609 0.930 . S
C617 C615 1.419 . S
C617 C618 1.362 . S
C618 H610 0.930 . S
C618 C617 1.362 . S
C618 C621 1.409 . S
C619 H611 0.930 . S
C619 C620 1.355 . S
C619 C621 1.415 . S
C620 C619 1.355 . S
C620 C622 1.419 . S
C621 C616 1.425 . S
C621 C618 1.409 . S
C621 C619 1.415 . S
C622 H612 0.930 . S
C622 C620 1.419 . S
C622 C623 1.362 . S
C623 H613 0.930 . S
C623 C616 1.409 . S
C623 C622 1.362 . S
H624 C630 0.930 . S
H625 C633 0.930 . S
H626 C634 0.930 . S
H627 C635 0.930 . S
H628 C638 0.930 . S
H629 C639 0.930 . S
C630 H624 0.930 . S
C630 C631 1.355 . S
C630 C632 1.415 . S
C631 C630 1.355 . S
C631 C633 1.419 . S
C632 C630 1.415 . S
C632 C637 1.425 . S
C632 C639 1.409 . S
C633 H625 0.930 . S
C633 C631 1.419 . S
C633 C634 1.362 . S
C634 H626 0.930 . S
C634 C633 1.362 . S
C634 C637 1.409 . S
C635 H627 0.930 . S
C635 C636 1.355 . S
C635 C637 1.415 . S
C636 C635 1.355 . S
C636 C638 1.419 . S
C637 C632 1.425 . S
C637 C634 1.409 . S
C637 C635 1.415 . S
C638 H628 0.930 . S
C638 C636 1.419 . S
C638 C639 1.362 . S
C639 H629 0.930 . S
C639 C632 1.409 . S
C639 C638 1.362 . S
H640 C646 0.930 . S
H641 C649 0.930 . S
H642 C650 0.930 . S
H643 C651 0.930 . S
H644 C654 0.930 . S
H645 C655 0.930 . S
C646 H640 0.930 . S
C646 C647 1.355 . S
C646 C648 1.415 . S
C647 C646 1.355 . S
C647 C649 1.419 . S
C648 C646 1.415 . S
C648 C653 1.425 . S
C648 C655 1.409 . S
C649 H641 0.930 . S
C649 C647 1.419 . S
C649 C650 1.362 . S
C650 H642 0.930 . S
C650 C649 1.362 . S
C650 C653 1.409 . S
C651 H643 0.930 . S
C651 C652 1.355 . S
C651 C653 1.415 . S
C652 C651 1.355 . S
C652 C654 1.419 . S
C653 C648 1.425 . S
C653 C650 1.409 . S
C653 C651 1.415 . S
C654 H644 0.930 . S
C654 C652 1.419 . S
C654 C655 1.362 . S
C655 H645 0.930 . S
C655 C648 1.409 . S
C655 C654 1.362 . S
H656 C662 0.930 . S
H657 C665 0.930 . S
H658 C666 0.930 . S
H659 C667 0.930 . S
H660 C670 0.930 . S
H661 C671 0.930 . S
C662 H656 0.930 . S
C662 C663 1.355 . S
C662 C664 1.415 . S
C663 C662 1.355 . S
C663 C665 1.419 . S
C664 C662 1.415 . S
C664 C669 1.425 . S
C664 C671 1.409 . S
C665 H657 0.930 . S
C665 C663 1.419 . S
C665 C666 1.362 . S
C666 H658 0.930 . S
C666 C665 1.362 . S
C666 C669 1.409 . S
C667 H659 0.930 . S
C667 C668 1.355 . S
C667 C669 1.415 . S
C668 C667 1.355 . S
C668 C670 1.419 . S
C669 C664 1.425 . S
C669 C666 1.409 . S
C669 C667 1.415 . S
C670 H660 0.930 . S
C670 C668 1.419 . S
C670 C671 1.362 . S
C671 H661 0.930 . S
C671 C664 1.409 . S
C671 C670 1.362 . S
H672 C678 0.930 . S
H673 C681 0.930 . S
H674 C682 0.930 . S
H675 C683 0.930 . S
H676 C686 0.930 . S
H677 C687 0.930 . S
C678 H672 0.930 . S
C678 C679 1.355 . S
C678 C680 1.415 . S
C679 C678 1.355 . S
C679 C681 1.419 . S
C680 C678 1.415 . S
C680 C685 1.425 . S
C680 C687 1.409 . S
C681 H673 0.930 . S
C681 C679 1.419 . S
C681 C682 1.362 . S
C682 H674 0.930 . S
C682 C681 1.362 . S
C682 C685 1.409 . S
C683 H675 0.930 . S
C683 C684 1.355 . S
C683 C685 1.415 . S
C684 C683 1.355 . S
C684 C686 1.419 . S
C685 C680 1.425 . S
C685 C682 1.409 . S
C685 C683 1.415 . S
C686 H676 0.930 . S
C686 C684 1.419 . S
C686 C687 1.362 . S
C687 H677 0.930 . S
C687 C680 1.409 . S
C687 C686 1.362 . S
H688 C694 0.930 . S
H689 C697 0.930 . S
H690 C698 0.930 . S
H691 C699 0.930 . S
H692 C702 0.930 . S
H693 C703 0.930 . S
C694 H688 0.930 . S
C694 C695 1.355 . S
C694 C696 1.415 . S
C695 C694 1.355 . S
C695 C697 1.419 . S
C696 C694 1.415 . S
C696 C701 1.425 . S
C696 C703 1.409 . S
C697 H689 0.930 . S
C697 C695 1.419 . S
C697 C698 1.362 . S
C698 H690 0.930 . S
C698 C697 1.362 . S
C698 C701 1.409 . S
C699 H691 0.930 . S
C699 C700 1.355 . S
C699 C701 1.415 . S
C700 C699 1.355 . S
C700 C702 1.419 . S
C701 C696 1.425 . S
C701 C698 1.409 . S
C701 C699 1.415 . S
C702 H692 0.930 . S
C702 C700 1.419 . S
C702 C703 1.362 . S
C703 H693 0.930 . S
C703 C696 1.409 . S
C703 C702 1.362 . S
H704 C710 0.930 . S
H705 C713 0.930 . S
H706 C714 0.930 . S
H707 C715 0.930 . S
H708 C718 0.930 . S
H709 C719 0.930 . S
C710 H704 0.930 . S
C710 C711 1.355 . S
C710 C712 1.415 . S
C711 C710 1.355 . S
C711 C713 1.419 . S
C712 C710 1.415 . S
C712 C717 1.425 . S
C712 C719 1.409 . S
C713 H705 0.930 . S
C713 C711 1.419 . S
C713 C714 1.362 . S
C714 H706 0.930 . S
C714 C713 1.362 . S
C714 C717 1.409 . S
C715 H707 0.930 . S
C715 C716 1.355 . S
C715 C717 1.415 . S
C716 C715 1.355 . S
C716 C718 1.419 . S
C717 C712 1.425 . S
C717 C714 1.409 . S
C717 C715 1.415 . S
C718 H708 0.930 . S
C718 C716 1.419 . S
C718 C719 1.362 . S
C719 H709 0.930 . S
C719 C712 1.409 . S
C719 C718 1.362 . S
H720 C726 0.930 . S
H721 C729 0.930 . S
H722 C730 0.930 . S
H723 C731 0.930 . S
H724 C734 0.930 . S
H725 C735 0.930 . S
C726 H720 0.930 . S
C726 C727 1.355 . S
C726 C728 1.415 . S
C727 C726 1.355 . S
C727 C729 1.419 . S
C728 C726 1.415 . S
C728 C733 1.425 . S
C728 C735 1.409 . S
C729 H721 0.930 . S
C729 C727 1.419 . S
C729 C730 1.362 . S
C730 H722 0.930 . S
C730 C729 1.362 . S
C730 C733 1.409 . S
C731 H723 0.930 . S
C731 C732 1.355 . S
C731 C733 1.415 . S
C732 C731 1.355 . S
C732 C734 1.419 . S
C733 C728 1.425 . S
C733 C730 1.409 . S
C733 C731 1.415 . S
C734 H724 0.930 . S
C734 C732 1.419 . S
C734 C735 1.362 . S
C735 H725 0.930 . S
C735 C728 1.409 . S
C735 C734 1.362 . S
C231 C11 1.106 . S
C236 C193 1.166 . S
C247 C165 1.107 . S
C252 C25 1.163 . S
C263 C179 1.122 . S
C268 C39 1.139 . S
C279 C151 1.113 . S
C284 C53 1.151 . S
C295 C67 1.106 . S
C300 C221 1.165 . S
C311 C81 1.168 . S
C316 C137 1.120 . S
C327 C207 1.157 . S
C332 C95 1.110 . S
C343 C109 1.137 . S
C348 C123 1.157 . S
C359 C68 1.610 . S
C364 C12 1.595 . S
C375 C26 1.600 . S
C380 C82 1.607 . S
C391 C40 1.610 . S
C396 C96 1.596 . S
C407 C110 1.609 . S
C412 C54 1.597 . S
C423 C124 1.610 . S
C428 C152 1.596 . S
C439 C138 1.610 . S
C444 C166 1.593 . S
C455 C208 1.610 . S
C460 C180 1.595 . S
C471 C194 1.610 . S
C476 C222 1.593 . S
C487 C74 1.263 . S
C492 C4 1.276 1_565 S
C503 C18 1.272 . S
C508 C88 1.284 1_565 S
C519 C32 1.290 1_545 S
C524 C102 1.291 . S
C535 C60 1.285 1_545 S
C540 C46 1.273 . S
C551 C61 1.238 . S
C556 C145 1.212 . S
C567 C33 1.249 . S
C572 C117 1.186 . S
C583 C159 1.226 . S
C588 C89 1.228 . S
C599 C131 1.247 . S
C604 C5 1.142 . S
C615 C116 1.291 . S
C620 C172 1.284 . S
C631 C144 1.286 . S
C636 C214 1.274 . S
C647 C186 1.276 . S
C652 C130 1.263 . S
C663 C158 1.260 . S
C668 C200 1.250 . S
C679 C201 1.246 . S
C684 C19 1.197 . S
C695 C187 1.230 . S
C700 C75 1.114 . S
C711 C215 1.246 . S
C716 C47 1.139 . S
C727 C173 1.251 . S
C732 C103 1.163 . S
