# Generated by pormake.
# Topology unn, (4)-cn, num edge types: 1
# Building blocks:
#     Node 0, Type 0, BuildingBlock: ICAMEG_clean_sbu_1, # of connection points: 4
#     Node 1, Type 0, BuildingBlock: ICAMEG_clean_sbu_1, # of connection points: 4
#     Node 2, Type 0, BuildingBlock: ICAMEG_clean_sbu_1, # of connection points: 4
#     Node 3, Type 0, BuildingBlock: ICAMEG_clean_sbu_1, # of connection points: 4
#     Node 4, Type 0, BuildingBlock: ICAMEG_clean_sbu_1, # of connection points: 4
#     Node 5, Type 0, BuildingBlock: ICAMEG_clean_sbu_1, # of connection points: 4
#     Node 6, Type 0, BuildingBlock: ICAMEG_clean_sbu_1, # of connection points: 4
#     Node 7, Type 0, BuildingBlock: ICAMEG_clean_sbu_1, # of connection points: 4
#     Node 8, Type 0, BuildingBlock: ICAMEG_clean_sbu_1, # of connection points: 4
#     Node 9, Type 0, BuildingBlock: ICAMEG_clean_sbu_1, # of connection points: 4
#     Node 10, Type 0, BuildingBlock: ICAMEG_clean_sbu_1, # of connection points: 4
#     Node 11, Type 0, BuildingBlock: ICAMEG_clean_sbu_1, # of connection points: 4
#     Node 12, Type 0, BuildingBlock: ICAMEG_clean_sbu_1, # of connection points: 4
#     Node 13, Type 0, BuildingBlock: ICAMEG_clean_sbu_1, # of connection points: 4
#     Node 14, Type 0, BuildingBlock: ICAMEG_clean_sbu_1, # of connection points: 4
#     Node 15, Type 0, BuildingBlock: ICAMEG_clean_sbu_1, # of connection points: 4
#     Node 16, Type 0, BuildingBlock: ICAMEG_clean_sbu_1, # of connection points: 4
#     Node 17, Type 0, BuildingBlock: ICAMEG_clean_sbu_1, # of connection points: 4
#     Edge 18, Type (0, 0), None
#     Edge 19, Type (0, 0), None
#     Edge 20, Type (0, 0), None
#     Edge 21, Type (0, 0), None
#     Edge 22, Type (0, 0), None
#     Edge 23, Type (0, 0), None
#     Edge 24, Type (0, 0), None
#     Edge 25, Type (0, 0), None
#     Edge 26, Type (0, 0), None
#     Edge 27, Type (0, 0), None
#     Edge 28, Type (0, 0), None
#     Edge 29, Type (0, 0), None
#     Edge 30, Type (0, 0), None
#     Edge 31, Type (0, 0), None
#     Edge 32, Type (0, 0), None
#     Edge 33, Type (0, 0), None
#     Edge 34, Type (0, 0), None
#     Edge 35, Type (0, 0), None
#     Edge 36, Type (0, 0), None
#     Edge 37, Type (0, 0), None
#     Edge 38, Type (0, 0), None
#     Edge 39, Type (0, 0), None
#     Edge 40, Type (0, 0), None
#     Edge 41, Type (0, 0), None
#     Edge 42, Type (0, 0), None
#     Edge 43, Type (0, 0), None
#     Edge 44, Type (0, 0), None
#     Edge 45, Type (0, 0), None
#     Edge 46, Type (0, 0), None
#     Edge 47, Type (0, 0), None
#     Edge 48, Type (0, 0), None
#     Edge 49, Type (0, 0), None
#     Edge 50, Type (0, 0), None
#     Edge 51, Type (0, 0), None
#     Edge 52, Type (0, 0), None
#     Edge 53, Type (0, 0), None
# Relax obj value: 0.120
# Max RMSD: 0.225
# Mean RMSD: 0.165
data_MOF--net-unn--node1-ICAMEG_clean_sbu_1--edge1-none
_symmetry_space_group_name_H-M    P1
_symmetry_Int_Tables_number       1
_symmetry_cell_setting            triclinic
loop_
_symmetry_equiv_pos_as_xyz
'x, y, z'
_cell_length_a     25.207655
_cell_length_b     24.893656
_cell_length_c     20.181347
_cell_angle_alpha  90.879068
_cell_angle_beta   91.321825
_cell_angle_gamma 121.60106
loop_
_atom_site_label
_atom_site_type_symbol
_atom_site_fract_x
_atom_site_fract_y
_atom_site_fract_z
_atom_type_partial_charge
Co0 Co 0.92646 0.6217 0.22189 0.0
Co1 Co -0.01614 0.7757 0.21644 0.0
O2 O -0.0272 0.70573 0.26282 0.0
C3 C 0.90037 0.62466 0.35721 0.0
O4 O 0.87474 0.65451 0.3363 0.0
C5 C 0.12049 0.80834 0.27993 0.0
O6 O 0.08213 0.82712 0.26595 0.0
O7 O 0.01476 0.75346 0.14197 0.0
O8 O 0.94553 0.65167 0.12725 0.0
H9 H 0.95568 0.86998 0.0122 0.0
H10 H -0.03862 0.53257 0.26817 0.0
O11 O 0.91213 0.59401 0.31536 0.0
H12 H 0.1477 0.69741 0.1641 0.0
H13 H 0.72776 0.41769 0.20691 0.0
H14 H 0.93188 0.54931 0.10692 0.0
H15 H 0.06524 0.71413 0.19767 0.0
H16 H 0.8091 0.51671 0.2614 0.0
O17 O 0.07919 0.82532 0.26437 0.0
H18 H 0.93771 0.78443 0.0849 0.0
H19 H 0.05518 0.91562 0.23508 0.0
H20 H 0.84967 0.45721 0.04568 0.0
H21 H 0.04174 0.50945 0.23269 0.0
H22 H 0.74931 0.38364 0.10132 0.0
H23 H 0.13047 0.59054 0.16877 0.0
O24 O 0.84613 0.62131 0.21192 0.0
H25 H 0.00221 0.87929 0.43909 0.0
H26 H 0.89054 0.81031 0.22248 0.0
H27 H 0.86006 0.86162 0.30411 0.0
H28 H 0.91759 0.89773 0.41429 0.0
H29 H 0.02055 0.81277 0.36232 0.0
H30 H 0.07361 0.00388 0.1645 0.0
H31 H 0.02703 0.97912 0.04963 0.0
O32 O 0.88846 0.71762 0.17234 0.0
C33 C -0.01349 0.70515 0.10542 0.0
C34 C -0.02287 0.88037 0.06148 0.0
C35 C 0.04279 0.95575 0.14745 0.0
N36 N -0.00438 0.84555 0.1647 0.0
C37 C -0.03329 0.8323 0.10329 0.0
C38 C 0.03178 0.90617 0.18768 0.0
C39 C 0.01682 0.94229 0.08327 0.0
C40 C 0.00067 0.56642 0.24266 0.0
N41 N 0.00321 0.61992 0.22519 0.0
C42 C 0.04644 0.55431 0.22332 0.0
C43 C 0.09708 0.60007 0.18946 0.0
C44 C 0.10553 0.65939 0.18408 0.0
C45 C 0.05799 0.66855 0.20297 0.0
C46 C 0.77256 0.44605 0.1847 0.0
C47 C 0.8877 0.51994 0.12904 0.0
C48 C 0.81964 0.50068 0.2166 0.0
N49 N 0.87618 0.5368 0.18857 0.0
C50 C 0.84114 0.46674 0.09476 0.0
C51 C 0.78405 0.42839 0.12389 0.0
C52 C 0.84016 0.65877 0.17498 0.0
C53 C -0.02405 0.86143 0.39274 0.0
C54 C 0.91331 0.82252 0.27102 0.0
C55 C 0.89745 0.85379 0.31643 0.0
C56 C 0.9293 0.87356 0.37789 0.0
N57 N 0.95543 0.80583 0.28793 0.0
C58 C -0.01291 0.82529 0.348 0.0
Co59 Co 0.26625 0.35329 0.23514 0.0
Co60 Co 0.19696 0.19381 0.25964 0.0
O61 O 0.23981 0.266 0.20808 0.0
C62 C 0.25031 0.33082 0.09336 0.0
O63 O 0.28151 0.30304 0.1048 0.0
C64 C 0.30643 0.16902 0.18571 0.0
O65 O 0.35338 0.22499 0.20411 0.0
O66 O 0.26085 0.236 0.32997 0.0
O67 O 0.28473 0.33683 0.32904 0.0
H68 H 0.07938 0.09994 0.46351 0.0
H69 H 0.35792 0.44677 0.14081 0.0
O70 O 0.24274 0.36096 0.14041 0.0
H71 H 0.47099 0.37636 0.28085 0.0
H72 H 0.30792 0.5727 0.19461 0.0
H73 H 0.30703 0.43289 0.36423 0.0
H74 H 0.35805 0.31485 0.2709 0.0
H75 H 0.27831 0.46537 0.16328 0.0
O76 O 0.24934 0.15256 0.20784 0.0
H77 H 0.15548 0.18455 0.39498 0.0
H78 H 0.14177 0.05132 0.25181 0.0
H79 H 0.33694 0.53921 0.39532 0.0
H80 H 0.47186 0.50494 0.14124 0.0
H81 H 0.3355 0.61033 0.31181 0.0
H82 H 0.52827 0.47522 0.22099 0.0
O83 O 0.18253 0.33266 0.26227 0.0
H84 H 0.11225 0.09816 0.028 0.0
H85 H 0.11538 0.14854 0.21784 0.0
H86 H -0.02459 0.06349 0.16869 0.0
H87 H 0.00377 0.05948 0.05319 0.0
H88 H 0.19639 0.16252 0.1121 0.0
H89 H 0.06965 0.96451 0.32499 0.0
H90 H 0.03553 -0.01055 0.42796 0.0
O91 O 0.14747 0.23812 0.30512 0.0
C92 C 0.28176 0.28958 0.35789 0.0
C93 C 0.09253 0.08884 0.41706 0.0
C94 C 0.08634 0.0128 0.33785 0.0
N95 N 0.15141 0.12306 0.3179 0.0
C96 C 0.13526 0.13652 0.37745 0.0
C97 C 0.12796 0.06186 0.29801 0.0
C98 C 0.06766 0.02659 0.39677 0.0
C99 C 0.3821 0.42975 0.16997 0.0
N100 N 0.35076 0.38049 0.21128 0.0
C101 C 0.44697 0.46298 0.16976 0.0
C102 C 0.47893 0.4459 0.21318 0.0
C103 C 0.44663 0.39126 0.24848 0.0
C104 C 0.3821 0.35747 0.24437 0.0
C105 C 0.30742 0.54164 0.23185 0.0
C106 C 0.30659 0.4617 0.32553 0.0
C107 C 0.2912 0.48018 0.21435 0.0
N108 N 0.29216 0.44077 0.26049 0.0
C109 C 0.32246 0.52261 0.34462 0.0
C110 C 0.32253 0.56274 0.2976 0.0
C111 C 0.1472 0.29175 0.30255 0.0
C112 C 0.10148 0.10637 0.07688 0.0
C113 C 0.0685 0.11704 0.20757 0.0
C114 C 0.02361 0.08479 0.15684 0.0
C115 C 0.03972 0.08254 0.09189 0.0
N116 N 0.13144 0.14862 0.19014 0.0
C117 C 0.14823 0.14041 0.12507 0.0
Co118 Co 0.66137 0.0542 0.22525 0.0
Co119 Co 0.75137 -0.00718 0.21544 0.0
O120 O 0.6887 0.00043 0.25546 0.0
C121 C 0.68947 0.06771 0.36046 0.0
O122 O 0.74873 0.10528 0.35145 0.0
C123 C 0.66453 0.86869 0.31143 0.0
O124 O 0.62569 0.88757 0.32298 0.0
O125 O 0.69165 0.95784 0.12987 0.0
O126 O 0.66306 0.02988 0.12783 0.0
H127 H 0.86953 0.00053 0.01712 0.0
H128 H 0.55338 0.00971 0.3236 0.0
O129 O 0.65482 0.07183 0.31853 0.0
H130 H 0.46014 0.87241 0.12604 0.0
H131 H 0.49599 0.02421 0.13532 0.0
H132 H 0.71552 0.18386 0.15892 0.0
H133 H 0.57309 0.92176 0.15337 0.0
H134 H 0.54697 0.08024 0.23985 0.0
O135 O 0.70997 0.90118 0.2684 0.0
H136 H 0.80082 0.02072 0.08186 0.0
H137 H 0.83284 0.94049 0.25037 0.0
H138 H 0.67345 0.13904 0.04576 0.0
H139 H 0.44976 0.96948 0.29491 0.0
H140 H 0.56535 0.05822 0.03141 0.0
H141 H 0.39911 0.90194 0.19199 0.0
O142 O 0.75141 0.13058 0.21691 0.0
H143 H 0.76764 0.01358 0.48135 0.0
H144 H 0.83396 0.04508 0.27704 0.0
H145 H -0.01772 0.11401 0.43124 0.0
H146 H 0.88354 0.07104 0.51944 0.0
H147 H 0.7217 -0.01399 0.36115 0.0
H148 H 0.90365 0.92 0.1869 0.0
H149 H 0.91638 0.94508 0.0669 0.0
O150 O 0.79326 0.08218 0.16951 0.0
C151 C 0.66823 -0.01328 0.09802 0.0
C152 C 0.86321 -0.01124 0.06878 0.0
C153 C 0.8823 0.94354 0.16425 0.0
N154 N 0.81361 -0.01711 0.1708 0.0
C155 C 0.82467 0.00062 0.10629 0.0
C156 C 0.84379 0.95695 0.20063 0.0
C157 C 0.8902 0.95799 0.09734 0.0
C158 C 0.53656 0.98063 0.27911 0.0
N159 N 0.57447 0.98076 0.23145 0.0
C160 C 0.47423 0.95585 0.26376 0.0
C161 C 0.4472 0.91954 0.20617 0.0
C162 C 0.48256 0.90452 0.16793 0.0
C163 C 0.54676 0.93476 0.18235 0.0
C164 C 0.54515 0.0572 0.13632 0.0
C165 C 0.668 0.14733 0.1507 0.0
C166 C 0.57349 0.08624 0.19645 0.0
N167 N 0.63533 0.11208 0.20167 0.0
C168 C 0.64437 0.12349 0.08747 0.0
C169 C 0.58254 0.07559 0.08045 0.0
C170 C 0.79046 0.13263 0.17564 0.0
C171 C 0.80074 0.0284 0.44257 0.0
C172 C 0.88243 0.06848 0.29129 0.0
C173 C 0.93384 0.09047 0.41282 0.0
C174 C 0.87563 0.06369 0.46795 0.0
N175 N 0.80815 0.03254 0.29592 0.0
C176 C 0.77141 0.01439 0.36387 0.0
Co177 Co 0.93147 0.28085 0.70888 0.0
Co178 Co -0.01523 0.20404 0.71812 0.0
O179 O 0.00301 0.28396 0.7421 0.0
C180 C 0.93432 0.26958 0.85677 0.0
O181 O -0.00476 0.29979 0.85584 0.0
C182 C 0.12273 0.30345 0.77392 0.0
O183 O 0.08511 0.24381 0.75789 0.0
O184 O 0.01393 0.24021 0.6304 0.0
O185 O -0.03937 0.288 0.61442 0.0
H186 H 0.94724 0.03982 0.54432 0.0
H187 H 0.94762 0.37372 0.82241 0.0
O188 O 0.90164 0.26404 0.80436 0.0
H189 H 0.05356 0.50214 0.63216 0.0
H190 H 0.78529 0.29115 0.80871 0.0
H191 H 0.90117 0.34793 0.60475 0.0
H192 H 0.02622 0.39285 0.63319 0.0
H193 H 0.79138 0.21171 0.7398 0.0
O194 O 0.08137 0.24307 0.75631 0.0
H195 H 0.94493 0.13276 0.59173 0.0
H196 H 0.00863 0.10772 0.77473 0.0
H197 H 0.90059 0.43071 0.67083 0.0
H198 H -0.01939 0.48337 0.82425 0.0
H199 H 0.85307 0.40372 0.78234 0.0
H200 H 0.03035 0.54779 0.726 0.0
O201 O 0.88674 0.18541 0.68731 0.0
H202 H 0.01839 0.13523 0.93756 0.0
H203 H 0.92641 0.14958 0.7817 0.0
H204 H 0.84753 0.00954 0.83135 0.0
H205 H 0.92598 0.02948 0.91848 0.0
H206 H 0.03615 0.22227 0.8668 0.0
H207 H -0.00086 0.01026 0.73494 0.0
H208 H -0.0424 0.9709 0.61965 0.0
O209 O 0.89032 0.18168 0.68714 0.0
C210 C -0.00643 0.26611 0.5929 0.0
C211 C 0.95421 0.0518 0.59661 0.0
C212 C -0.01543 0.03492 0.70343 0.0
N213 N -0.03051 0.12147 0.68786 0.0
C214 C 0.95195 0.1027 0.62344 0.0
C215 C -0.01126 0.08981 0.72647 0.0
C216 C -0.035 0.01484 0.63835 0.0
C217 C -0.02556 0.40085 0.78184 0.0
N218 N -0.02022 0.37317 0.72521 0.0
C219 C -0.00663 0.46448 0.78365 0.0
C220 C 0.02075 0.50052 0.72874 0.0
C221 C 0.03368 0.47448 0.67532 0.0
C222 C 0.01562 0.41124 0.67576 0.0
C223 C 0.81058 0.30409 0.76387 0.0
C224 C 0.87308 0.33484 0.64764 0.0
C225 C 0.81316 0.25954 0.72378 0.0
N226 N 0.85824 0.28092 0.67825 0.0
C227 C 0.87446 0.3824 0.68607 0.0
C228 C 0.84676 0.36719 0.74771 0.0
C229 C 0.85795 0.16271 0.62926 0.0
C230 C -0.01592 0.1278 0.89973 0.0
C231 C 0.89584 0.10393 0.79608 0.0
C232 C 0.88879 0.05621 0.83775 0.0
C233 C 0.93245 0.06767 0.88803 0.0
N234 N 0.95173 0.16382 0.80408 0.0
C235 C -0.00621 0.17693 0.85954 0.0
Co236 Co 0.67916 0.61298 0.72967 0.0
Co237 Co 0.7455 0.76775 0.70121 0.0
O238 O 0.70471 0.69889 0.7535 0.0
C239 C 0.7031 0.64985 0.87363 0.0
O240 O 0.68322 0.68849 0.86455 0.0
C241 C 0.64659 0.789 0.79156 0.0
O242 O 0.61021 0.72815 0.79897 0.0
O243 O 0.67703 0.7215 0.63541 0.0
O244 O 0.67278 0.6294 0.62981 0.0
H245 H 0.81496 0.85491 0.47892 0.0
H246 H 0.59008 0.59024 0.84376 0.0
O247 O 0.69476 0.60858 0.82878 0.0
H248 H 0.46324 0.53692 0.63828 0.0
H249 H 0.65808 0.40708 0.79148 0.0
H250 H 0.61323 0.51533 0.62069 0.0
H251 H 0.56924 0.56801 0.63304 0.0
H252 H 0.68455 0.51474 0.81058 0.0
O253 O 0.69431 0.80835 0.75059 0.0
H254 H 0.77789 0.7738 0.56441 0.0
H255 H 0.79637 0.90713 0.71055 0.0
H256 H 0.59803 0.40869 0.59521 0.0
H257 H 0.48468 0.56444 0.84844 0.0
H258 H 0.62098 0.35599 0.68048 0.0
H259 H 0.41856 0.52892 0.7432 0.0
O260 O 0.76529 0.63369 0.71433 0.0
H261 H 0.83258 0.88068 0.92293 0.0
H262 H 0.88292 0.84703 0.69767 0.0
H263 H -0.03178 0.91858 0.77843 0.0
H264 H 0.94263 0.93793 0.89027 0.0
H265 H 0.75104 0.80297 0.84562 0.0
H266 H 0.82989 -0.01176 0.626 0.0
H267 H 0.83976 0.95946 0.50944 0.0
O268 O 0.79512 0.72096 0.65723 0.0
C269 C 0.66668 0.673 0.60287 0.0
C270 C 0.81163 0.86626 0.5299 0.0
C271 C 0.82069 0.9418 0.6126 0.0
N272 N 0.78474 0.83591 0.64151 0.0
C273 C 0.79113 0.82124 0.57812 0.0
C274 C 0.80156 0.89586 0.66009 0.0
C275 C 0.82556 0.92618 0.54736 0.0
C276 C 0.56604 0.58455 0.79764 0.0
N277 N 0.59181 0.58769 0.73796 0.0
C278 C 0.50394 0.56649 0.80102 0.0
C279 C 0.46708 0.54824 0.74318 0.0
C280 C 0.4923 0.55141 0.68307 0.0
C281 C 0.55441 0.57079 0.68124 0.0
C282 C 0.65205 0.43225 0.75189 0.0
C283 C 0.62789 0.49388 0.6557 0.0
C284 C 0.66574 0.49371 0.76261 0.0
N285 N 0.65435 0.52478 0.71437 0.0
C286 C 0.61864 0.43404 0.6414 0.0
C287 C 0.63123 0.40346 0.68986 0.0
C288 C 0.79721 0.66837 0.66767 0.0
C289 C 0.84431 0.87304 0.87387 0.0
C290 C 0.87225 0.85388 0.7473 0.0
C291 C 0.92024 0.8956 0.79199 0.0
C292 C 0.90599 0.90566 0.85536 0.0
N293 N 0.81225 0.81871 0.76695 0.0
C294 C 0.79801 0.82914 0.82922 0.0
Co295 Co 0.27945 0.9397 0.72732 0.0
Co296 Co 0.19908 0.0102 0.75679 0.0
O297 O 0.24599 -0.00951 0.7042 0.0
C298 C 0.24572 0.92903 0.58486 0.0
O299 O 0.21293 0.95443 0.59648 0.0
C300 C 0.30682 0.14846 0.68999 0.0
O301 O 0.35184 0.14073 0.71125 0.0
O302 O 0.26139 0.0389 0.82925 0.0
O303 O 0.28724 0.96637 0.82033 0.0
H304 H 0.0695 0.97875 0.95285 0.0
H305 H 0.33271 0.03873 0.62272 0.0
O306 O 0.27015 0.91346 0.63121 0.0
H307 H 0.50751 0.07013 0.7652 0.0
H308 H 0.44692 0.89994 0.6959 0.0
H309 H 0.28508 0.87259 0.8468 0.0
H310 H 0.40048 0.00844 0.80366 0.0
H311 H 0.35751 0.90305 0.65381 0.0
O312 O 0.2488 0.10613 0.70925 0.0
H313 H 0.14243 0.9658 0.88669 0.0
H314 H 0.15137 0.09609 0.7492 0.0
H315 H 0.38175 0.88467 0.89307 0.0
H316 H 0.43855 0.09839 0.58168 0.0
H317 H 0.46722 0.90838 0.81845 0.0
H318 H 0.52297 0.10272 0.65055 0.0
O319 O 0.19742 0.86245 0.75001 0.0
H320 H 0.10879 0.01187 0.52792 0.0
H321 H 0.1184 0.96148 0.71338 0.0
H322 H -0.02248 0.88937 0.66376 0.0
H323 H 0.00313 0.93003 0.55207 0.0
H324 H 0.19431 0.04587 0.61216 0.0
H325 H 0.0911 0.12288 0.82389 0.0
H326 H 0.04351 0.05812 0.92255 0.0
O327 O 0.1553 0.91294 0.79819 0.0
C328 C 0.27981 0.00501 0.85399 0.0
C329 C 0.08806 0.0058 0.90912 0.0
C330 C 0.09773 0.0846 0.83482 0.0
N331 N 0.15037 0.02987 0.81356 0.0
C332 C 0.1287 -0.00212 0.87063 0.0
C333 C 0.13417 0.07161 0.79449 0.0
C334 C 0.07285 0.04986 0.89135 0.0
C335 C 0.37042 0.04362 0.65335 0.0
N336 N 0.35997 0.01309 0.71166 0.0
C337 C 0.43029 0.07899 0.63063 0.0
C338 C 0.47867 0.08477 0.67022 0.0
C339 C 0.46902 0.06368 0.73441 0.0
C340 C 0.40844 0.02869 0.75533 0.0
C341 C 0.41273 0.89592 0.72972 0.0
C342 C 0.32073 0.87897 0.81349 0.0
C343 C 0.35965 0.89373 0.70548 0.0
N344 N 0.31817 0.89249 0.74863 0.0
C345 C 0.37532 0.88582 0.84019 0.0
C346 C 0.42301 0.8982 0.79807 0.0
C347 C 0.15976 0.86162 0.79217 0.0
C348 C 0.0999 -0.00804 0.57614 0.0
C349 C 0.07088 0.93848 0.70345 0.0
C350 C 0.02535 0.92231 0.65341 0.0
C351 C 0.03976 0.94589 0.59006 0.0
N352 N 0.13316 0.98106 0.68683 0.0
C353 C 0.14721 0.01101 0.62416 0.0
Co354 Co 0.59149 0.96721 0.54225 0.0
Co355 Co 0.66688 0.12339 0.53184 0.0
O356 O 0.64611 0.05135 0.57948 0.0
C357 C 0.56324 -0.01732 0.68159 0.0
O358 O 0.55583 0.02837 0.6633 0.0
C359 C 0.78562 0.14139 0.61322 0.0
O360 O 0.83262 0.14051 0.5877 0.0
O361 O 0.70058 0.09506 0.46747 0.0
O362 O 0.62198 -0.00396 0.44602 0.0
H363 H 0.62279 0.21483 0.34019 0.0
H364 H 0.68174 -0.00832 0.6551 0.0
O365 O 0.56608 0.94654 0.6378 0.0
H366 H 0.6652 0.82701 0.50247 0.0
H367 H 0.45802 0.75426 0.61385 0.0
H368 H 0.50125 0.89507 0.42764 0.0
H369 H 0.64482 0.90772 0.46206 0.0
H370 H 0.55949 0.84901 0.60481 0.0
O371 O 0.76055 0.16738 0.57731 0.0
H372 H 0.63463 0.13611 0.39539 0.0
H373 H 0.73817 0.26458 0.55504 0.0
H374 H 0.39562 0.79531 0.43623 0.0
H375 H 0.69546 0.90808 0.69871 0.0
H376 H 0.3726 0.73394 0.53617 0.0
H377 H 0.67523 0.81877 0.62317 0.0
O378 O 0.51964 0.97812 0.5212 0.0
H379 H 0.67324 0.1869 0.76051 0.0
H380 H 0.58965 0.18505 0.53871 0.0
H381 H 0.57585 0.24406 0.63135 0.0
H382 H 0.61241 0.24112 0.74388 0.0
H383 H 0.68629 0.13267 0.672 0.0
H384 H 0.72907 0.34696 0.4984 0.0
H385 H 0.66715 0.3204 0.39181 0.0
O386 O 0.57417 0.07364 0.48121 0.0
C387 C 0.66922 0.04972 0.4281 0.0
C388 C 0.64794 0.22659 0.38716 0.0
C389 C 0.70801 0.30072 0.47615 0.0
N390 N 0.68622 0.19516 0.47923 0.0
C391 C 0.65619 0.18222 0.41849 0.0
C392 C 0.71419 0.2544 0.50715 0.0
C393 C 0.67341 0.28608 0.41654 0.0
C394 C 0.67905 0.95621 0.62128 0.0
N395 N 0.65709 0.9506 0.55769 0.0
C396 C 0.68535 0.90818 0.64654 0.0
C397 C 0.67553 0.85889 0.60395 0.0
C398 C 0.6685 0.86285 0.53605 0.0
C399 C 0.65985 0.91028 0.51321 0.0
C400 C 0.4665 0.78531 0.57358 0.0
C401 C 0.49182 0.86291 0.46714 0.0
C402 C 0.52504 0.83784 0.5659 0.0
N403 N 0.53507 0.87951 0.51721 0.0
C404 C 0.43251 0.80893 0.4726 0.0
C405 C 0.41899 0.77354 0.52909 0.0
C406 C 0.52279 0.01708 0.47932 0.0
C407 C 0.65232 0.18653 0.71416 0.0
C408 C 0.60726 0.18552 0.58819 0.0
C409 C 0.59882 0.21842 0.63975 0.0
C410 C 0.61997 0.21714 0.70361 0.0
N411 N 0.63858 0.15519 0.60059 0.0
C412 C 0.66086 0.15574 0.66243 0.0
Co413 Co 0.95514 0.68645 0.55974 0.0
Co414 Co 0.87449 0.53566 0.59769 0.0
O415 O 0.92591 0.60075 0.54409 0.0
C416 C 0.93416 0.64406 0.4207 0.0
O417 O -0.02912 0.62269 0.43291 0.0
C418 C -0.03787 0.49717 0.51057 0.0
O419 O 0.00235 0.5566 0.49988 0.0
O420 O 0.94 0.57428 0.67239 0.0
O421 O -0.02948 0.67617 0.6595 0.0
H422 H 0.76771 0.44362 0.80798 0.0
H423 H 0.0431 0.7402 0.44146 0.0
O424 O 0.9318 0.68318 0.46189 0.0
H425 H 0.16897 0.73783 0.62862 0.0
H426 H 0.12638 0.87722 0.52227 0.0
H427 H 0.95503 0.76191 0.67059 0.0
H428 H 0.05644 0.66892 0.62749 0.0
H429 H 0.01945 0.80892 0.4798 0.0
O430 O 0.91579 0.48347 0.552 0.0
H431 H 0.8429 0.52831 0.73712 0.0
H432 H 0.79665 0.3964 0.57927 0.0
H433 H 0.06242 0.81128 0.71622 0.0
H434 H 0.15476 0.7998 0.4372 0.0
H435 H 0.14689 0.85994 0.64318 0.0
H436 H 0.21746 0.8101 0.53673 0.0
O437 O 0.87264 0.67707 0.58299 0.0
H438 H 0.80105 0.47701 0.36021 0.0
H439 H 0.7345 0.46945 0.58826 0.0
H440 H 0.65614 0.40778 0.49942 0.0
H441 H 0.6886 0.42018 0.38266 0.0
H442 H 0.87757 0.5198 0.45224 0.0
H443 H 0.71541 0.31221 0.64385 0.0
H444 H 0.70075 0.33608 0.76085 0.0
O445 O 0.83399 0.58947 0.63915 0.0
C446 C -0.03443 0.6313 0.69558 0.0
C447 C 0.77154 0.43363 0.75672 0.0
C448 C 0.7412 0.35937 0.66463 0.0
N449 N 0.82142 0.46724 0.65337 0.0
C450 C 0.81461 0.48086 0.71702 0.0
C451 C 0.78707 0.40713 0.62777 0.0
C452 C 0.73367 0.37274 0.72987 0.0
C453 C 0.06839 0.73538 0.48215 0.0
N454 N 0.03996 0.70506 0.53901 0.0
C455 C 0.13291 0.77123 0.47929 0.0
C456 C 0.16855 0.77596 0.53459 0.0
C457 C 0.14072 0.73682 0.58702 0.0
C458 C 0.07597 0.69929 0.5869 0.0
C459 C 0.08965 0.85214 0.55655 0.0
C460 C -0.00672 0.78849 0.639 0.0
C461 C 0.02829 0.81583 0.53234 0.0
N462 N -0.01481 0.77429 0.57344 0.0
C463 C 0.05321 0.81543 0.66534 0.0
C464 C 0.10174 0.84516 0.62304 0.0
C465 C 0.8369 0.64364 0.62818 0.0
C466 C 0.7859 0.47404 0.41007 0.0
C467 C 0.74952 0.46946 0.53861 0.0
C468 C 0.70469 0.43592 0.48811 0.0
C469 C 0.72296 0.44173 0.42289 0.0
N470 N 0.81144 0.49996 0.52595 0.0
C471 C 0.82946 0.50016 0.46265 0.0
Co472 Co 0.28768 0.28064 0.57197 0.0
Co473 Co 0.43493 0.35817 0.61726 0.0
O474 O 0.37307 0.33814 0.55305 0.0
C475 C 0.30984 0.29862 0.42393 0.0
O476 O 0.36823 0.34414 0.43338 0.0
C477 C 0.47517 0.48202 0.52487 0.0
O478 O 0.41713 0.46643 0.52227 0.0
O479 O 0.39362 0.39069 0.67613 0.0
O480 O 0.30158 0.3015 0.67208 0.0
H481 H 0.49379 0.28558 0.81363 0.0
H482 H 0.31388 0.39067 0.47865 0.0
O483 O 0.27527 0.26635 0.47184 0.0
H484 H 0.19125 0.39656 0.66085 0.0
H485 H 0.06969 0.20297 0.52713 0.0
H486 H 0.22034 0.19074 0.6746 0.0
H487 H 0.21246 0.31217 0.65259 0.0
H488 H 0.17481 0.24364 0.49216 0.0
O489 O 0.49045 0.45082 0.56727 0.0
H490 H 0.48895 0.28819 0.6957 0.0
H491 H 0.49643 0.40807 0.68501 0.0
H492 H 0.11887 0.15878 0.71379 0.0
H493 H 0.29954 0.47921 0.49019 0.0
H494 H 0.06047 0.18837 0.64663 0.0
H495 H 0.24065 0.48399 0.58495 0.0
O496 O 0.30078 0.20779 0.59072 0.0
H497 H 0.55166 0.36006 0.41485 0.0
H498 H 0.44621 0.23959 0.60861 0.0
H499 H 0.50673 0.20984 0.54387 0.0
H500 H 0.56343 0.27203 0.44826 0.0
H501 H 0.49093 0.38975 0.48145 0.0
H502 H 0.52571 0.47023 0.83009 0.0
H503 H 0.50517 0.37451 0.88138 0.0
O504 O 0.37946 0.26532 0.662 0.0
C505 C 0.34329 0.35175 0.70365 0.0
C506 C 0.49803 0.32634 0.79045 0.0
C507 C 0.51375 0.4301 0.79844 0.0
N508 N 0.49541 0.3798 0.69144 0.0
C509 C 0.49601 0.32863 0.72236 0.0
C510 C 0.51014 0.4341 0.7297 0.0
C511 C 0.50306 0.37558 0.82806 0.0
C512 C 0.2881 0.39119 0.51935 0.0
N513 N 0.26763 0.34666 0.56659 0.0
C514 C 0.27923 0.44177 0.5251 0.0
C515 C 0.24564 0.44437 0.57733 0.0
C516 C 0.21913 0.39584 0.62125 0.0
C517 C 0.23143 0.34786 0.61577 0.0
C518 C 0.10187 0.19683 0.55745 0.0
C519 C 0.18675 0.18973 0.64019 0.0
C520 C 0.16106 0.21852 0.53767 0.0
N521 N 0.20359 0.22067 0.58228 0.0
C522 C 0.12908 0.17011 0.66259 0.0
C523 C 0.09053 0.18005 0.62261 0.0
C524 C 0.32906 0.21025 0.64579 0.0
C525 C 0.53275 0.33705 0.46086 0.0
C526 C 0.47477 0.27169 0.57185 0.0
C527 C 0.50872 0.25337 0.53408 0.0
C528 C 0.5396 0.2876 0.47949 0.0
N529 N 0.47413 0.32517 0.55853 0.0
C530 C 0.49867 0.35428 0.50017 0.0
Co531 Co 0.70686 0.68085 0.07001 0.0
Co532 Co 0.62674 0.52945 0.08971 0.0
O533 O 0.65253 0.59739 0.03744 0.0
C534 C 0.7306 0.65456 0.93855 0.0
O535 O 0.73975 0.61051 0.95996 0.0
C536 C 0.50296 0.51116 0.00623 0.0
O537 O 0.51573 0.56692 0.02698 0.0
O538 O 0.59569 0.56303 0.15534 0.0
O539 O 0.67817 0.66014 0.16352 0.0
H540 H 0.62513 0.42421 0.30011 0.0
H541 H 0.61724 0.65143 0.95531 0.0
O542 O 0.73305 0.69647 0.97792 0.0
H543 H 0.59817 0.79173 0.11275 0.0
H544 H 0.73359 0.87786 0.03735 0.0
H545 H 0.77641 0.75452 0.1944 0.0
H546 H 0.63246 0.72214 0.15019 0.0
H547 H 0.75868 0.80123 -0.00236 0.0
O548 O 0.53621 0.48833 0.03277 0.0
H549 H 0.65996 0.51351 0.227 0.0
H550 H 0.537 0.39265 0.07252 0.0
H551 H 0.74611 0.82666 0.23695 0.0
H552 H 0.58685 0.72401 0.91392 0.0
H553 H 0.71024 0.87693 0.15559 0.0
H554 H 0.60043 0.80923 -0.00765 0.0
O555 O 0.77788 0.67133 0.09166 0.0
H556 H 0.61104 0.43161 0.871 0.0
H557 H 0.70752 0.47726 0.09363 0.0
H558 H 0.71893 0.40819 0.01602 0.0
H559 H 0.66217 0.37635 0.90688 0.0
H560 H 0.60477 0.50625 0.94467 0.0
H561 H 0.49607 0.3012 0.14728 0.0
H562 H 0.54147 0.31734 0.261 0.0
O563 O 0.72176 0.57905 0.14052 0.0
C564 C 0.62857 0.61458 0.18652 0.0
C565 C 0.60598 0.41635 0.25002 0.0
C566 C 0.5337 0.3473 0.1637 0.0
N567 N 0.60009 0.45764 0.14523 0.0
C568 C 0.62596 0.46678 0.20787 0.0
C569 C 0.55563 0.39884 0.1224 0.0
C570 C 0.55921 0.35631 0.22783 0.0
C571 C 0.61664 0.68515 -0.01151 0.0
N572 N 0.63848 0.69258 0.05203 0.0
C573 C 0.599 0.72543 0.96536 0.0
C574 C 0.60102 0.76959 0.00983 0.0
C575 C 0.60271 0.76136 0.07741 0.0
C576 C 0.62154 0.721 0.09825 0.0
C577 C 0.74351 0.85142 0.07233 0.0
C578 C 0.76835 0.7827 0.16019 0.0
C579 C 0.76008 0.80941 0.05043 0.0
N580 N 0.76028 0.76825 0.09421 0.0
C581 C 0.74911 0.8217 0.18446 0.0
C582 C 0.73167 0.85204 0.13921 0.0
C583 C 0.77585 0.63373 0.13418 0.0
C584 C 0.6295 0.43907 0.92013 0.0
C585 C 0.68631 0.46729 0.04445 0.0
C586 C 0.69015 0.42523 0.00224 0.0
C587 C 0.65866 0.40811 0.94101 0.0
N588 N 0.65271 0.49281 0.02494 0.0
C589 C 0.62756 0.48231 0.96215 0.0
Co590 Co 0.26911 0.00677 0.06441 0.0
Co591 Co 0.42191 0.08339 0.09034 0.0
O592 O 0.35029 0.03133 0.04183 0.0
C593 C 0.28614 0.00168 0.92454 0.0
O594 O 0.31281 0.97041 0.94217 0.0
C595 C 0.44755 0.97187 0.02048 0.0
O596 O 0.40076 0.92477 0.04952 0.0
O597 O 0.39111 0.02239 0.16358 0.0
O598 O 0.29198 0.0005 0.16043 0.0
H599 H 0.53056 0.20899 0.29676 0.0
H600 H 0.18503 0.89692 0.96148 0.0
O601 O 0.2564 0.0148 0.96681 0.0
H602 H 0.26503 0.80918 0.12239 0.0
H603 H 0.07732 0.8378 0.04243 0.0
H604 H 0.21001 0.0252 0.18182 0.0
H605 H 0.31564 0.92161 0.11123 0.0
H606 H 0.13281 0.94307 -0.00374 0.0
O607 O 0.45935 0.03083 0.03399 0.0
H608 H 0.44576 0.12125 0.23056 0.0
H609 H 0.56085 0.17129 0.06461 0.0
H610 H 0.17671 0.9248 0.22845 0.0
H611 H 0.13353 0.78252 0.97153 0.0
H612 H 0.12151 0.8273 0.15088 0.0
H613 H 0.1658 0.73934 0.06159 0.0
O614 O 0.28758 0.09445 0.08911 0.0
H615 H 0.47279 0.14293 0.85407 0.0
H616 H 0.48293 0.22279 0.08081 0.0
H617 H 0.55312 0.29643 -0.00217 0.0
H618 H 0.54829 0.25662 0.88343 0.0
H619 H 0.41908 0.06992 0.94296 0.0
H620 H 0.64507 0.26452 0.12899 0.0
H621 H 0.62841 0.284 0.24424 0.0
O622 O 0.37845 0.13013 0.14139 0.0
C623 C 0.33889 0.00327 0.19074 0.0
C624 C 0.53741 0.20081 0.24587 0.0
C625 C 0.60199 0.23147 0.15153 0.0
N626 N 0.49784 0.14032 0.14334 0.0
C627 C 0.48999 0.15033 0.20825 0.0
C628 C 0.55428 0.17889 0.1158 0.0
C629 C 0.593 0.24253 0.21664 0.0
C630 C 0.20207 0.87904 -0.00069 0.0
N631 N 0.24571 0.91807 0.04704 0.0
C632 C 0.17211 0.8138 0.00416 0.0
C633 C 0.19065 0.78906 0.05411 0.0
C634 C 0.24461 0.82844 0.09079 0.0
C635 C 0.2724 0.89303 0.08535 0.0
C636 C 0.1075 0.87802 0.07414 0.0
C637 C 0.18057 -0.01681 0.15159 0.0
C638 C 0.13747 0.93802 0.04847 0.0
N639 N 0.18582 -0.01544 0.0852 0.0
C640 C 0.16156 0.92567 0.17858 0.0
C641 C 0.12874 0.87197 0.13656 0.0
C642 C 0.32449 0.1278 0.1375 0.0
C643 C 0.47728 0.16095 0.90431 0.0
C644 C 0.48189 0.20533 0.03139 0.0
C645 C 0.52194 0.24694 -0.01521 0.0
C646 C 0.5191 0.22451 0.92056 0.0
N647 N 0.44945 0.14205 0.01817 0.0
C648 C 0.44496 0.1198 0.95466 0.0
Co649 Co 0.95042 0.26165 0.06278 0.0
Co650 Co 0.88788 0.34435 0.10187 0.0
O651 O 0.9212 0.31647 0.03984 0.0
C652 C 0.90707 0.24886 0.92146 0.0
O653 O 0.85827 0.25101 0.93752 0.0
C654 C -0.02766 0.46205 -0.00176 0.0
O655 O -0.02834 0.42147 0.95579 0.0
O656 O -0.04035 0.36956 0.16667 0.0
O657 O -0.04004 0.28198 0.16029 0.0
H658 H 0.90588 0.44946 0.31963 0.0
H659 H 0.01438 0.35654 0.95733 0.0
O660 O 0.93938 0.24059 0.96514 0.0
H661 H 0.16599 0.42702 0.14403 0.0
H662 H 0.11282 0.22748 0.00977 0.0
H663 H -0.04017 0.18874 0.17726 0.0
H664 H 0.06956 0.32662 0.14579 0.0
H665 H 0.02047 0.22676 0.98026 0.0
O666 O 0.94215 0.43992 0.05554 0.0
H667 H 0.93864 0.44516 0.20447 0.0
H668 H 0.75926 0.28727 0.16158 0.0
H669 H 0.06746 0.22337 0.21181 0.0
H670 H 0.1084 0.46218 0.95659 0.0
H671 H 0.14475 0.24467 0.13058 0.0
H672 H 0.17975 0.50072 0.0564 0.0
O673 O 0.86437 0.18885 0.08548 0.0
H674 H 0.77134 0.38405 0.91955 0.0
H675 H 0.7596 0.23037 0.07269 0.0
H676 H 0.66199 0.22378 0.03396 0.0
H677 H 0.66774 0.30278 0.9624 0.0
H678 H 0.86397 0.39329 0.96762 0.0
H679 H 0.72326 0.2998 0.26577 0.0
H680 H 0.79667 0.38216 0.34647 0.0
O681 O 0.83981 0.24976 0.14477 0.0
C682 C -0.03189 0.329 0.19373 0.0
C683 C 0.87294 0.41822 0.28138 0.0
C684 C 0.77018 0.33347 0.25199 0.0
N685 N 0.8513 0.36849 0.17242 0.0
C686 C 0.89123 0.41449 0.21714 0.0
C687 C 0.79147 0.32718 0.19107 0.0
C688 C 0.81145 0.37939 0.29746 0.0
C689 C 0.04757 0.37104 -0.00249 0.0
N690 N 0.03461 0.33414 0.05119 0.0
C691 C 0.10089 0.43133 -0.00277 0.0
C692 C 0.14217 0.4526 0.05182 0.0
C693 C 0.13294 0.41216 0.10261 0.0
C694 C 0.07815 0.35363 0.10223 0.0
C695 C 0.08147 0.22277 0.04765 0.0
C696 C -0.0059 0.19903 0.14039 0.0
C697 C 0.02468 0.21486 0.02976 0.0
N698 N -0.01548 0.2098 0.07682 0.0
C699 C 0.05438 0.21811 0.16097 0.0
C700 C 0.09863 0.23112 0.11433 0.0
C701 C 0.83335 0.1939 0.13296 0.0
C702 C 0.76796 0.35259 0.95794 0.0
C703 C 0.76188 0.26766 0.04612 0.0
C704 C 0.70703 0.2633 0.02378 0.0
C705 C 0.71044 0.30791 0.98177 0.0
N706 N 0.81777 0.32105 0.0381 0.0
C707 C 0.82137 0.35772 -0.01364 0.0
Co708 Co 0.2627 0.29613 0.89789 0.0
Co709 Co 0.32156 0.44743 0.86952 0.0
O710 O 0.2999 0.38133 0.9219 0.0
C711 C 0.22426 0.32292 0.02609 0.0
O712 O 0.20962 0.3624 0.00225 0.0
C713 C 0.44919 0.47603 0.95046 0.0
O714 O 0.44417 0.42625 0.92167 0.0
O715 O 0.35636 0.41745 0.79905 0.0
O716 O 0.29677 0.31306 0.80647 0.0
H717 H 0.30067 0.55236 0.66902 0.0
H718 H 0.34336 0.36353 0.01853 0.0
O719 O 0.22794 0.2833 -0.01158 0.0
H720 H 0.43893 0.25903 0.91569 0.0
H721 H 0.22143 0.11814 0.0098 0.0
H722 H 0.2654 0.20856 0.7888 0.0
H723 H 0.36734 0.27745 0.85261 0.0
H724 H 0.17417 0.17696 0.9687 0.0
O725 O 0.41131 0.49477 0.92801 0.0
H726 H 0.27821 0.46252 0.73728 0.0
H727 H 0.40686 0.58668 0.88709 0.0
H728 H 0.31773 0.15531 0.82818 0.0
H729 H 0.41686 0.34989 0.08544 0.0
H730 H 0.30631 0.12194 0.94395 0.0
H731 H 0.464 0.29625 0.03547 0.0
O732 O 0.18661 0.28866 0.85503 0.0
H733 H 0.33362 0.54892 0.08721 0.0
H734 H 0.23457 0.4937 0.86365 0.0
H735 H 0.23216 0.57608 0.93137 0.0
H736 H 0.28633 0.60739 0.04244 0.0
H737 H 0.3384 0.47078 0.01655 0.0
H738 H 0.43626 0.67733 0.81579 0.0
H739 H 0.38266 0.65946 0.70554 0.0
O740 O 0.22979 0.3891 0.82012 0.0
C741 C 0.33283 0.36181 0.77414 0.0
C742 C 0.32439 0.56 0.71649 0.0
C743 C 0.40018 0.63043 0.79944 0.0
N744 N 0.34181 0.51909 0.81596 0.0
C745 C 0.31104 0.5094 0.75611 0.0
C746 C 0.38405 0.57893 0.83906 0.0
C747 C 0.37013 0.6206 0.73771 0.0
C748 C 0.35788 0.33318 -0.00071 0.0
N749 N 0.33797 0.30523 0.93756 0.0
C750 C 0.40251 0.32898 0.03593 0.0
C751 C 0.4296 0.29909 0.00707 0.0
C752 C 0.41575 0.27872 0.94085 0.0
C753 C 0.37278 0.28675 0.90539 0.0
C754 C 0.23209 0.13846 0.96142 0.0
C755 C 0.25487 0.18856 0.83716 0.0
C756 C 0.20545 0.1717 0.93803 0.0
N757 N 0.2274 0.20634 0.88268 0.0
C758 C 0.28397 0.15705 0.85856 0.0
C759 C 0.27655 0.1369 0.92342 0.0
C760 C 0.1837 0.32869 0.81832 0.0
C761 C 0.31191 0.53754 0.03819 0.0
C762 C 0.25572 0.50555 0.9129 0.0
C763 C 0.25516 0.5528 0.95054 0.0
C764 C 0.28567 0.57049 0.01273 0.0
N765 N 0.28948 0.48029 0.93457 0.0
C766 C 0.31399 0.49277 -0.00203 0.0
Co767 Co 0.60333 0.01076 0.89621 0.0
Co768 Co 0.53858 0.85897 0.93424 0.0
O769 O 0.57656 0.92551 0.87745 0.0
C770 C 0.58152 0.98029 0.75102 0.0
O771 O 0.61047 0.95012 0.76101 0.0
C772 C 0.63041 0.83455 0.832 0.0
O773 O 0.66423 0.89434 0.81875 0.0
O774 O 0.61087 0.90819 0.00528 0.0
O775 O 0.63084 0.00727 -0.0062 0.0
H776 H 0.46276 0.7632 0.1527 0.0
H777 H 0.69686 0.09712 0.79476 0.0
O778 O 0.57594 0.0113 0.79943 0.0
H779 H 0.79813 0.02709 0.95382 0.0
H780 H 0.76194 0.23934 0.90626 0.0
H781 H 0.54102 0.07927 0.87086 0.0
H782 H 0.68704 0.96119 0.92443 0.0
H783 H 0.72098 0.13173 0.94606 0.0
O784 O 0.58584 0.81716 0.87714 0.0
H785 H 0.51858 0.84852 0.07435 0.0
H786 H 0.47636 0.71767 0.9177 0.0
H787 H 0.57919 0.1873 0.84067 0.0
H788 H 0.81108 0.15919 0.81283 0.0
H789 H 0.69014 0.26725 0.85383 0.0
H790 H 0.85873 0.13113 0.90554 0.0
O791 O 0.52007 -0.00892 0.93022 0.0
H792 H 0.43896 0.78104 0.70713 0.0
H793 H 0.39976 0.78445 0.94366 0.0
H794 H 0.31159 0.71823 0.86392 0.0
H795 H 0.33061 0.72057 0.7446 0.0
H796 H 0.52636 0.83593 0.78765 0.0
H797 H 0.42464 0.62949 -0.00586 0.0
H798 H 0.41485 0.65193 0.11232 0.0
O799 O 0.49189 0.90238 0.98312 0.0
C800 C 0.63567 0.96588 0.02797 0.0
C801 C 0.46408 0.7521 0.10105 0.0
C802 C 0.44237 0.67723 0.01184 0.0
N803 N 0.49733 0.78797 -0.00811 0.0
C804 C 0.49474 0.80053 0.05691 0.0
C805 C 0.47167 0.72716 0.96876 0.0
C806 C 0.43761 0.68989 0.07824 0.0
C807 C 0.71916 0.08019 0.82749 0.0
N808 N 0.68473 0.03122 0.86786 0.0
C809 C 0.78339 0.1172 0.83967 0.0
C810 C 0.81027 0.10152 0.89122 0.0
C811 C 0.77627 0.04327 0.91946 0.0
C812 C 0.71332 0.00667 0.9034 0.0
C813 C 0.71324 0.20445 0.90049 0.0
C814 C 0.58887 0.11458 0.88312 0.0
C815 C 0.6897 0.14376 0.9227 0.0
N816 N 0.62943 0.09833 0.9074 0.0
C817 C 0.6099 0.17598 0.8659 0.0
C818 C 0.67276 0.22063 0.8725 0.0
C819 C 0.4887 0.95367 0.97573 0.0
C820 C 0.43015 0.77937 0.7589 0.0
C821 C 0.4088 0.78262 0.89185 0.0
C822 C 0.35855 0.7461 0.84722 0.0
C823 C 0.36926 0.74634 0.78007 0.0
N824 N 0.4687 0.81407 0.87068 0.0
C825 C 0.47959 0.81127 0.80512 0.0
Co826 Co 0.00041 0.71743 0.89433 0.0
Co827 Co 0.08057 0.64862 0.8659 0.0
O828 O 0.03588 0.66928 0.9202 0.0
C829 C 0.01376 0.7096 0.04214 0.0
O830 O 0.05199 0.68931 0.03786 0.0
C831 C 0.00064 0.53152 0.97172 0.0
O832 O -0.00611 0.56994 0.01 0.0
O833 O 0.01055 0.61444 0.79562 0.0
O834 O -0.00167 0.69645 0.79512 0.0
H835 H 0.19079 0.6593 0.65763 0.0
H836 H 0.92564 0.61215 -0.00486 0.0
O837 O 0.00128 0.7341 -0.00678 0.0
H838 H 0.78801 0.56691 0.80006 0.0
H839 H 0.83724 0.75728 0.93915 0.0
H840 H -0.00988 0.78542 0.77959 0.0
H841 H 0.89213 0.6537 0.80058 0.0
H842 H 0.93215 0.76473 0.97559 0.0
O843 O 0.0326 0.55459 0.91577 0.0
H844 H 0.12947 0.68488 0.73125 0.0
H845 H 0.12963 0.56304 0.87581 0.0
H846 H 0.8867 0.75642 0.73852 0.0
H847 H 0.81853 0.52439 -0.00369 0.0
H848 H 0.80417 0.72685 0.81883 0.0
H849 H 0.7499 0.50046 0.89608 0.0
O850 O 0.08395 0.79627 0.8781 0.0
H851 H 0.20422 0.63783 0.06308 0.0
H852 H 0.21163 0.75838 0.8695 0.0
H853 H 0.30462 0.7966 0.9407 0.0
H854 H 0.30357 0.73413 0.0352 0.0
H855 H 0.11034 0.60737 -0.00052 0.0
H856 H 0.18844 0.5344 0.80235 0.0
H857 H 0.22063 0.58379 0.69331 0.0
O858 O 0.1212 0.74454 0.8222 0.0
C859 C -0.00666 0.64805 0.76564 0.0
C860 C 0.17781 0.63842 0.70562 0.0
C861 C 0.17665 0.56828 0.78702 0.0
N862 N 0.12649 0.62601 0.808 0.0
C863 C 0.14356 0.65306 0.7477 0.0
C864 C 0.14288 0.58434 0.8281 0.0
C865 C 0.19449 0.59583 0.72561 0.0
C866 C 0.89635 0.60444 0.95282 0.0
N867 N 0.91719 0.64208 0.89912 0.0
C868 C 0.83529 0.55327 0.95353 0.0
C869 C 0.79615 0.53988 0.89828 0.0
C870 C 0.8173 0.57721 0.8439 0.0
C871 C 0.87784 0.62738 0.84485 0.0
C872 C 0.8678 0.75732 0.90308 0.0
C873 C 0.9555 0.77653 0.81379 0.0
C874 C 0.92448 0.76637 0.92357 0.0
N875 N -0.03684 0.76611 0.87765 0.0
C876 C 0.89664 0.75908 0.79062 0.0
C877 C 0.85091 0.74429 0.83615 0.0
C878 C 0.11982 0.79727 0.83308 0.0
C879 C 0.20576 0.66535 0.02133 0.0
C880 C 0.20756 0.73333 0.91378 0.0
C881 C 0.26189 0.7543 0.95275 0.0
C882 C 0.26135 0.71921 0.00582 0.0
N883 N 0.15187 0.68162 0.93029 0.0
C884 C 0.15143 0.648 -0.01612 0.0
Co885 Co 0.26846 0.9769 0.38549 0.0
Co886 Co 0.32856 0.88763 0.35358 0.0
O887 O 0.31597 0.9406 0.40384 0.0
C888 C 0.27167 0.9424 0.52185 0.0
O889 O 0.33203 0.96651 0.51978 0.0
C890 C 0.46345 -0.00319 0.43108 0.0
O891 O 0.45233 0.04138 0.41798 0.0
O892 O 0.35245 0.94729 0.27809 0.0
O893 O 0.29356 -0.01006 0.29215 0.0
H894 H 0.27729 0.72466 0.17073 0.0
H895 H 0.30599 0.0592 0.51114 0.0
O896 O 0.24184 0.95271 0.47679 0.0
H897 H 0.44043 0.19118 0.33624 0.0
H898 H 0.20065 0.08947 0.50278 0.0
H899 H 0.26727 0.06411 0.28431 0.0
H900 H 0.3918 0.07728 0.32681 0.0
H901 H 0.16782 -0.01753 0.45793 0.0
O902 O 0.42398 0.93885 0.40425 0.0
H903 H 0.2645 0.80156 0.2333 0.0
H904 H 0.42645 0.85425 0.35035 0.0
H905 H 0.30286 0.16826 0.3284 0.0
H906 H 0.36255 0.17128 0.5264 0.0
H907 H 0.27572 0.17999 0.4422 0.0
H908 H 0.41906 0.23819 0.43244 0.0
O909 O 0.19168 0.89735 0.35289 0.0
H910 H 0.33671 0.815 0.58447 0.0
H911 H 0.2328 0.75164 0.36299 0.0
H912 H 0.20239 0.67172 0.44935 0.0
H913 H 0.25585 0.70309 0.5595 0.0
H914 H 0.36568 0.89298 0.49874 0.0
H915 H 0.43866 0.77386 0.29305 0.0
H916 H 0.36276 0.70751 0.20225 0.0
O917 O 0.23295 0.84297 0.31359 0.0
C918 C 0.32814 0.97836 0.25745 0.0
C919 C 0.30966 0.75204 0.21136 0.0
C920 C 0.39976 0.77918 0.28017 0.0
N921 N 0.34286 0.83079 0.29929 0.0
C922 C 0.30248 0.79591 0.24766 0.0
C923 C 0.39177 0.82362 0.31418 0.0
C924 C 0.35784 0.74267 0.22878 0.0
C925 C 0.33883 0.08585 0.47416 0.0
N926 N 0.34106 0.0588 0.41547 0.0
C927 C 0.37014 0.15099 0.48289 0.0
C928 C 0.40302 0.18868 0.43088 0.0
C929 C 0.41353 0.16189 0.3761 0.0
C930 C 0.38386 0.09646 0.37043 0.0
C931 C 0.21282 0.08262 0.45388 0.0
C932 C 0.24977 0.0677 0.33115 0.0
C933 C 0.19499 0.02305 0.42809 0.0
N934 N 0.22297 0.0185 0.37305 0.0
C935 C 0.26992 0.1278 0.3555 0.0
C936 C 0.25346 0.13485 0.41862 0.0
C937 C 0.18572 0.85187 0.31727 0.0
C938 C 0.31354 0.80084 0.53604 0.0
C939 C 0.25583 0.76589 0.41134 0.0
C940 C 0.23891 0.72024 0.45948 0.0
C941 C 0.26846 0.73786 0.52189 0.0
N942 N 0.30127 0.82748 0.42484 0.0
C943 C 0.32949 0.84512 0.48676 0.0
Co944 Co -0.0257 0.25455 0.38367 0.0
Co945 Co 0.06012 0.41247 0.37784 0.0
O946 O 0.00796 0.33909 0.42333 0.0
C947 C 0.00863 0.2688 0.52313 0.0
O948 O 0.06568 0.31029 0.50653 0.0
C949 C -0.0243 0.44771 0.47605 0.0
O950 O 0.94944 0.39215 0.50178 0.0
O951 O -0.00202 0.38068 0.30139 0.0
O952 O -0.01712 0.28409 0.28947 0.0
H953 H 0.19233 0.52382 0.18667 0.0
H954 H 0.90582 0.27611 0.4865 0.0
O955 O -0.03181 0.22987 0.47926 0.0
H956 H 0.78395 0.23189 0.27754 0.0
H957 H 0.82321 0.9558 0.38585 0.0
H958 H 0.02518 0.19193 0.30004 0.0
H959 H 0.87016 0.21242 0.2848 0.0
H960 H 0.84213 0.13025 0.40005 0.0
O961 O 0.01554 0.45995 0.42716 0.0
H962 H 0.11207 0.43165 0.24548 0.0
H963 H 0.11875 0.55261 0.40044 0.0
H964 H 0.95573 0.04506 0.32498 0.0
H965 H 0.82745 0.30376 0.47859 0.0
H966 H 0.92161 0.96268 0.33423 0.0
H967 H 0.76555 0.28076 0.37319 0.0
O968 O 0.06105 0.26777 0.37894 0.0
H969 H 0.14186 0.5223 0.59586 0.0
H970 H 0.19537 0.4671 0.38368 0.0
H971 H 0.27207 0.56219 0.44563 0.0
H972 H 0.24437 0.59432 0.55003 0.0
H973 H 0.06216 0.429 0.52784 0.0
H974 H 0.1991 0.64534 0.34158 0.0
H975 H 0.23958 0.62972 0.23788 0.0
O976 O 0.10451 0.36333 0.33484 0.0
C977 C -0.01541 0.33234 0.26533 0.0
C978 C 0.17714 0.52984 0.23422 0.0
C979 C 0.18067 0.59843 0.32147 0.0
N980 N 0.11231 0.48656 0.32739 0.0
C981 C 0.13138 0.4783 0.26737 0.0
C982 C 0.13422 0.54589 0.35329 0.0
C983 C 0.20352 0.58988 0.26288 0.0
C984 C 0.87892 0.26531 0.44075 0.0
N985 N 0.89424 0.24529 0.3854 0.0
C986 C 0.83336 0.28002 0.43692 0.0
C987 C 0.79945 0.26799 0.37774 0.0
C988 C 0.81078 0.24145 0.32331 0.0
C989 C 0.85921 0.23053 0.32789 0.0
C990 C 0.85892 0.0026 0.3698 0.0
C991 C -0.01513 0.15373 0.31914 0.0
C992 C 0.86894 0.1145 0.37403 0.0
N993 N 0.93532 0.16655 0.34878 0.0
C994 C -0.01508 0.0864 0.31356 0.0
C995 C 0.92519 0.01138 0.33766 0.0
C996 C 0.10259 0.30903 0.34189 0.0
C997 C 0.15255 0.51105 0.54831 0.0
C998 C 0.18327 0.47786 0.43094 0.0
C999 C 0.22702 0.53314 0.46521 0.0
C1000 C 0.2108 0.55136 0.52296 0.0
N1001 N 0.12283 0.44614 0.44927 0.0
C1002 C 0.10857 0.45779 0.51051 0.0
Co1003 Co 0.63206 0.60635 0.39528 0.0
Co1004 Co 0.56072 0.6808 0.43729 0.0
O1005 O 0.60825 0.66457 0.38572 0.0
C1006 C 0.61198 0.62148 0.25295 0.0
O1007 O 0.62304 0.67758 0.26903 0.0
C1008 C 0.65292 0.80807 0.35018 0.0
O1009 O 0.6903 0.78771 0.33812 0.0
O1010 O 0.62374 0.70306 0.51319 0.0
O1011 O 0.65104 0.62991 0.49361 0.0
H1012 H 0.43678 0.62037 0.63008 0.0
H1013 H 0.71976 0.64021 0.27981 0.0
O1014 O 0.60873 0.58336 0.29753 0.0
H1015 H 0.83319 0.77235 0.47653 0.0
H1016 H 0.79366 0.6119 0.49335 0.0
H1017 H 0.58138 0.46427 0.4097 0.0
H1018 H 0.72234 0.73666 0.45548 0.0
H1019 H 0.76043 0.5944 0.37427 0.0
O1020 O 0.60767 0.77623 0.39324 0.0
H1021 H 0.53937 0.6789 0.5824 0.0
H1022 H 0.46164 0.7133 0.41174 0.0
H1023 H 0.60063 0.47272 0.52692 0.0
H1024 H 0.83036 0.70334 0.28195 0.0
H1025 H 0.71153 0.5562 0.57493 0.0
H1026 H 0.88408 0.74493 0.39403 0.0
O1027 O 0.54736 0.53418 0.42963 0.0
H1028 H 0.49064 0.69874 0.2083 0.0
H1029 H 0.46111 0.55218 0.38296 0.0
H1030 H 0.42463 0.51178 0.27271 0.0
H1031 H 0.4408 0.5843 0.18092 0.0
H1032 H 0.52555 0.73834 0.32055 0.0
H1033 H 0.35814 0.64984 0.45376 0.0
H1034 H 0.34329 0.59878 0.56326 0.0
O1035 O 0.5177 0.5912 0.48313 0.0
C1036 C 0.64446 0.6673 0.53294 0.0
C1037 C 0.44157 0.6395 0.58145 0.0
C1038 C 0.39685 0.65343 0.48173 0.0
N1039 N 0.50627 0.69462 0.49078 0.0
C1040 C 0.50039 0.6751 0.55472 0.0
C1041 C 0.45648 0.69087 0.45824 0.0
C1042 C 0.38916 0.62681 0.54363 0.0
C1043 C 0.74263 0.67488 0.3194 0.0
N1044 N 0.71233 0.67688 0.37326 0.0
C1045 C 0.80649 0.70665 0.323 0.0
C1046 C 0.83717 0.7327 0.38414 0.0
C1047 C 0.80766 0.74581 0.43214 0.0
C1048 C 0.74489 0.72255 0.42156 0.0
C1049 C 0.74505 0.58443 0.47827 0.0
C1050 C 0.62703 0.49876 0.43031 0.0
C1051 C 0.72652 0.57781 0.41208 0.0
N1052 N 0.66461 0.55036 0.39656 0.0
C1053 C 0.63843 0.50429 0.49788 0.0
C1054 C 0.69851 0.55068 0.5231 0.0
C1055 C 0.51985 0.54011 0.48002 0.0
C1056 C 0.4845 0.66631 0.24635 0.0
C1057 C 0.46988 0.58568 0.34588 0.0
C1058 C 0.44874 0.56187 0.28169 0.0
C1059 C 0.4572 0.60247 0.23107 0.0
N1060 N 0.50184 0.64905 0.36005 0.0
C1061 C 0.5058 0.68874 0.31117 0.0
loop_
_geom_bond_atom_site_label_1
_geom_bond_atom_site_label_2
_geom_bond_distance
_geom_bond_site_symmetry_2
_ccdc_geom_bond_type
Co0 O2 2.143 1_655 S
Co0 O8 2.074 1_655 S
Co0 O11 2.093 . S
Co0 O24 2.097 . S
Co0 N41 2.151 1_655 S
Co0 N49 2.214 . S
Co1 O2 2.160 . S
Co1 O7 2.058 . S
Co1 O17 2.057 . S
Co1 O32 2.037 1_455 S
Co1 N36 2.145 . S
Co1 N57 2.257 . S
O2 Co0 2.143 1_455 S
O2 Co1 2.160 . S
C3 O4 1.278 . S
C3 O11 1.224 . S
O4 C3 1.278 . S
C5 O6 1.245 . S
C5 O17 1.232 . S
O6 C5 1.245 . S
O7 Co1 2.058 . S
O7 C33 1.269 . S
O8 Co0 2.074 1_455 S
O8 C33 1.257 . S
H9 C34 0.930 . S
H10 C40 0.930 . S
O11 Co0 2.093 . S
O11 C3 1.224 . S
H12 C44 0.929 . S
H13 C46 0.930 . S
H14 C47 0.930 . S
H15 C45 0.929 . S
H16 C48 0.928 . S
O17 Co1 2.057 . S
O17 C5 1.232 . S
H18 C37 0.929 1_655 S
H19 C38 0.929 . S
H20 C50 0.931 . S
H21 C42 0.929 . S
H22 C51 0.930 . S
H23 C43 0.931 . S
O24 Co0 2.097 . S
O24 C52 1.214 . S
H25 C53 0.929 . S
H26 C54 0.929 . S
H27 C55 0.930 . S
H28 C56 0.929 . S
H29 C58 0.930 . S
H30 C35 0.930 . S
H31 C39 0.930 . S
O32 Co1 2.037 1_655 S
O32 C52 1.234 . S
C33 O7 1.269 . S
C33 O8 1.257 . S
C34 H9 0.930 . S
C34 C37 1.388 . S
C34 C39 1.418 1_565 S
C35 H30 0.930 . S
C35 C38 1.404 . S
C35 C39 1.353 . S
N36 Co1 2.145 . S
N36 C37 1.397 . S
N36 C38 1.334 1_565 S
C37 H18 0.929 1_455 S
C37 C34 1.388 . S
C37 N36 1.397 . S
C38 H19 0.929 . S
C38 C35 1.404 . S
C38 N36 1.334 1_545 S
C39 H31 0.930 . S
C39 C34 1.418 1_545 S
C39 C35 1.353 . S
C40 H10 0.930 . S
C40 N41 1.330 . S
C40 C42 1.446 . S
N41 Co0 2.151 1_455 S
N41 C40 1.330 . S
N41 C45 1.418 . S
C42 H21 0.929 . S
C42 C40 1.446 . S
C42 C43 1.332 . S
C43 H23 0.931 . S
C43 C42 1.332 . S
C43 C44 1.267 . S
C44 H12 0.929 . S
C44 C43 1.267 . S
C44 C45 1.251 . S
C45 H15 0.929 . S
C45 N41 1.418 . S
C45 C44 1.251 . S
C46 H13 0.930 . S
C46 C48 1.406 . S
C46 C51 1.261 . S
C47 H14 0.930 . S
C47 N49 1.325 . S
C47 C50 1.357 . S
C48 H16 0.928 . S
C48 C46 1.406 . S
C48 N49 1.261 . S
N49 Co0 2.214 . S
N49 C47 1.325 . S
N49 C48 1.261 . S
C50 H20 0.931 . S
C50 C47 1.357 . S
C50 C51 1.312 . S
C51 H22 0.930 . S
C51 C46 1.261 . S
C51 C50 1.312 . S
C52 O24 1.214 . S
C52 O32 1.234 . S
C53 H25 0.929 . S
C53 C56 1.391 1_455 S
C53 C58 1.391 . S
C54 H26 0.929 . S
C54 C55 1.390 . S
C54 N57 1.391 1_655 S
C55 H27 0.930 . S
C55 C54 1.390 . S
C55 C56 1.392 . S
C56 H28 0.929 . S
C56 C53 1.391 1_655 S
C56 C55 1.392 . S
N57 Co1 2.257 . S
N57 C54 1.391 1_455 S
N57 C58 1.388 . S
C58 H29 0.930 . S
C58 C53 1.391 . S
C58 N57 1.388 . S
Co59 O61 2.143 . S
Co59 O67 2.074 . S
Co59 O70 2.093 . S
Co59 O83 2.097 . S
Co59 N100 2.151 . S
Co59 N108 2.214 . S
Co60 O61 2.160 . S
Co60 O66 2.058 . S
Co60 O76 2.057 . S
Co60 O91 2.037 . S
Co60 N95 2.145 . S
Co60 N116 2.257 . S
O61 Co59 2.143 . S
O61 Co60 2.160 . S
C62 O63 1.278 . S
C62 O70 1.224 . S
O63 C62 1.278 . S
C64 O65 1.245 . S
C64 O76 1.232 . S
O65 C64 1.245 . S
O66 Co60 2.058 . S
O66 C92 1.269 . S
O67 Co59 2.074 . S
O67 C92 1.257 . S
H68 C93 0.930 . S
H69 C99 0.930 . S
O70 Co59 2.093 . S
O70 C62 1.224 . S
H71 C103 0.929 . S
H72 C105 0.930 . S
H73 C106 0.930 . S
H74 C104 0.929 . S
H75 C107 0.928 . S
O76 Co60 2.057 . S
O76 C64 1.232 . S
H77 C96 0.929 . S
H78 C97 0.929 . S
H79 C109 0.931 . S
H80 C101 0.929 . S
H81 C110 0.930 . S
H82 C102 0.931 . S
O83 Co59 2.097 . S
O83 C111 1.214 . S
H84 C112 0.929 . S
H85 C113 0.929 . S
H86 C114 0.930 . S
H87 C115 0.929 1_655 S
H88 C117 0.930 . S
H89 C94 0.930 . S
H90 C98 0.930 1_655 S
O91 Co60 2.037 . S
O91 C111 1.234 . S
C92 O66 1.269 . S
C92 O67 1.257 . S
C93 H68 0.930 . S
C93 C96 1.388 . S
C93 C98 1.418 1_545 S
C94 H89 0.930 . S
C94 C97 1.404 . S
C94 C98 1.353 . S
N95 Co60 2.145 . S
N95 C96 1.397 . S
N95 C97 1.334 1_545 S
C96 H77 0.929 . S
C96 C93 1.388 . S
C96 N95 1.397 . S
C97 H78 0.929 . S
C97 C94 1.404 . S
C97 N95 1.334 1_565 S
C98 H90 0.930 1_455 S
C98 C93 1.418 1_565 S
C98 C94 1.353 . S
C99 H69 0.930 . S
C99 N100 1.330 . S
C99 C101 1.446 . S
N100 Co59 2.151 . S
N100 C99 1.330 . S
N100 C104 1.418 . S
C101 H80 0.929 . S
C101 C99 1.446 . S
C101 C102 1.332 . S
C102 H82 0.931 . S
C102 C101 1.332 . S
C102 C103 1.267 . S
C103 H71 0.929 . S
C103 C102 1.267 . S
C103 C104 1.251 . S
C104 H74 0.929 . S
C104 N100 1.418 . S
C104 C103 1.251 . S
C105 H72 0.930 . S
C105 C107 1.406 . S
C105 C110 1.261 . S
C106 H73 0.930 . S
C106 N108 1.325 . S
C106 C109 1.357 . S
C107 H75 0.928 . S
C107 C105 1.406 . S
C107 N108 1.261 . S
N108 Co59 2.214 . S
N108 C106 1.325 . S
N108 C107 1.261 . S
C109 H79 0.931 . S
C109 C106 1.357 . S
C109 C110 1.312 . S
C110 H81 0.930 . S
C110 C105 1.261 . S
C110 C109 1.312 . S
C111 O83 1.214 . S
C111 O91 1.234 . S
C112 H84 0.929 . S
C112 C115 1.391 . S
C112 C117 1.391 . S
C113 H85 0.929 . S
C113 C114 1.390 1_455 S
C113 N116 1.391 . S
C114 H86 0.930 . S
C114 C113 1.390 1_655 S
C114 C115 1.392 1_655 S
C115 H87 0.929 1_455 S
C115 C112 1.391 . S
C115 C114 1.392 1_455 S
N116 Co60 2.257 . S
N116 C113 1.391 . S
N116 C117 1.388 . S
C117 H88 0.930 . S
C117 C112 1.391 . S
C117 N116 1.388 . S
Co118 O120 2.143 . S
Co118 O126 2.074 . S
Co118 O129 2.093 . S
Co118 O142 2.097 . S
Co118 N159 2.151 . S
Co118 N167 2.214 . S
Co119 O120 2.160 . S
Co119 O125 2.058 1_545 S
Co119 O135 2.057 1_545 S
Co119 O150 2.037 . S
Co119 N154 2.145 1_545 S
Co119 N175 2.257 . S
O120 Co118 2.143 . S
O120 Co119 2.160 . S
C121 O122 1.278 . S
C121 O129 1.224 . S
O122 C121 1.278 . S
C123 O124 1.245 . S
C123 O135 1.232 . S
O124 C123 1.245 . S
O125 Co119 2.058 1_565 S
O125 C151 1.269 . S
O126 Co118 2.074 . S
O126 C151 1.257 1_545 S
H127 C152 0.930 . S
H128 C158 0.930 . S
O129 Co118 2.093 . S
O129 C121 1.224 . S
H130 C162 0.929 . S
H131 C164 0.930 . S
H132 C165 0.930 . S
H133 C163 0.929 1_545 S
H134 C166 0.928 . S
O135 Co119 2.057 1_565 S
O135 C123 1.232 . S
H136 C155 0.929 . S
H137 C156 0.929 . S
H138 C168 0.931 . S
H139 C160 0.929 . S
H140 C169 0.930 . S
H141 C161 0.931 . S
O142 Co118 2.097 . S
O142 C170 1.214 . S
H143 C171 0.929 . S
H144 C172 0.929 . S
H145 C173 0.930 . S
H146 C174 0.929 1_455 S
H147 C176 0.930 1_565 S
H148 C153 0.930 . S
H149 C157 0.930 1_455 S
O150 Co119 2.037 . S
O150 C170 1.234 . S
C151 O125 1.269 . S
C151 O126 1.257 1_565 S
C152 H127 0.930 . S
C152 C155 1.388 . S
C152 C157 1.418 1_545 S
C153 H148 0.930 . S
C153 C156 1.404 . S
C153 C157 1.353 . S
N154 Co119 2.145 1_565 S
N154 C155 1.397 1_565 S
N154 C156 1.334 . S
C155 H136 0.929 . S
C155 C152 1.388 . S
C155 N154 1.397 1_545 S
C156 H137 0.929 . S
C156 C153 1.404 . S
C156 N154 1.334 . S
C157 H149 0.930 1_655 S
C157 C152 1.418 1_565 S
C157 C153 1.353 . S
C158 H128 0.930 . S
C158 N159 1.330 1_565 S
C158 C160 1.446 . S
N159 Co118 2.151 . S
N159 C158 1.330 1_545 S
N159 C163 1.418 1_545 S
C160 H139 0.929 . S
C160 C158 1.446 . S
C160 C161 1.332 . S
C161 H141 0.931 . S
C161 C160 1.332 . S
C161 C162 1.267 . S
C162 H130 0.929 . S
C162 C161 1.267 . S
C162 C163 1.251 . S
C163 H133 0.929 1_565 S
C163 N159 1.418 1_565 S
C163 C162 1.251 . S
C164 H131 0.930 . S
C164 C166 1.406 . S
C164 C169 1.261 . S
C165 H132 0.930 . S
C165 N167 1.325 . S
C165 C168 1.357 . S
C166 H134 0.928 . S
C166 C164 1.406 . S
C166 N167 1.261 . S
N167 Co118 2.214 . S
N167 C165 1.325 . S
N167 C166 1.261 . S
C168 H138 0.931 . S
C168 C165 1.357 . S
C168 C169 1.312 . S
C169 H140 0.930 . S
C169 C164 1.261 . S
C169 C168 1.312 . S
C170 O142 1.214 . S
C170 O150 1.234 . S
C171 H143 0.929 . S
C171 C174 1.391 . S
C171 C176 1.391 . S
C172 H144 0.929 . S
C172 C173 1.390 1_655 S
C172 N175 1.391 . S
C173 H145 0.930 . S
C173 C172 1.390 1_455 S
C173 C174 1.392 1_455 S
C174 H146 0.929 1_655 S
C174 C171 1.391 . S
C174 C173 1.392 1_655 S
N175 Co119 2.257 . S
N175 C172 1.391 . S
N175 C176 1.388 . S
C176 H147 0.930 1_545 S
C176 C171 1.391 . S
C176 N175 1.388 . S
Co177 O179 2.143 1_655 S
Co177 O185 2.074 1_655 S
Co177 O188 2.093 . S
Co177 O201 2.097 . S
Co177 N218 2.151 1_655 S
Co177 N226 2.214 . S
Co178 O179 2.160 . S
Co178 O184 2.058 . S
Co178 O194 2.057 . S
Co178 O209 2.037 1_455 S
Co178 N213 2.145 . S
Co178 N234 2.257 . S
O179 Co177 2.143 1_455 S
O179 Co178 2.160 . S
C180 O181 1.278 . S
C180 O188 1.224 . S
O181 C180 1.278 . S
C182 O183 1.245 . S
C182 O194 1.232 . S
O183 C182 1.245 . S
O184 Co178 2.058 . S
O184 C210 1.269 . S
O185 Co177 2.074 1_455 S
O185 C210 1.257 . S
H186 C211 0.930 . S
H187 C217 0.930 . S
O188 Co177 2.093 . S
O188 C180 1.224 . S
H189 C221 0.929 . S
H190 C223 0.930 . S
H191 C224 0.930 . S
H192 C222 0.929 . S
H193 C225 0.928 . S
O194 Co178 2.057 . S
O194 C182 1.232 . S
H195 C214 0.929 1_655 S
H196 C215 0.929 . S
H197 C227 0.931 . S
H198 C219 0.929 . S
H199 C228 0.930 . S
H200 C220 0.931 . S
O201 Co177 2.097 . S
O201 C229 1.214 . S
H202 C230 0.929 . S
H203 C231 0.929 . S
H204 C232 0.930 . S
H205 C233 0.929 . S
H206 C235 0.930 . S
H207 C212 0.930 . S
H208 C216 0.930 1_565 S
O209 Co178 2.037 1_655 S
O209 C229 1.234 . S
C210 O184 1.269 . S
C210 O185 1.257 . S
C211 H186 0.930 . S
C211 C214 1.388 . S
C211 C216 1.418 . S
C212 H207 0.930 . S
C212 C215 1.404 . S
C212 C216 1.353 . S
N213 Co178 2.145 . S
N213 C214 1.397 . S
N213 C215 1.334 . S
C214 H195 0.929 1_455 S
C214 C211 1.388 . S
C214 N213 1.397 . S
C215 H196 0.929 . S
C215 C212 1.404 . S
C215 N213 1.334 . S
C216 H208 0.930 1_545 S
C216 C211 1.418 . S
C216 C212 1.353 . S
C217 H187 0.930 . S
C217 N218 1.330 . S
C217 C219 1.446 . S
N218 Co177 2.151 1_455 S
N218 C217 1.330 . S
N218 C222 1.418 . S
C219 H198 0.929 . S
C219 C217 1.446 . S
C219 C220 1.332 . S
C220 H200 0.931 . S
C220 C219 1.332 . S
C220 C221 1.267 . S
C221 H189 0.929 . S
C221 C220 1.267 . S
C221 C222 1.251 . S
C222 H192 0.929 . S
C222 N218 1.418 . S
C222 C221 1.251 . S
C223 H190 0.930 . S
C223 C225 1.406 . S
C223 C228 1.261 . S
C224 H191 0.930 . S
C224 N226 1.325 . S
C224 C227 1.357 . S
C225 H193 0.928 . S
C225 C223 1.406 . S
C225 N226 1.261 . S
N226 Co177 2.214 . S
N226 C224 1.325 . S
N226 C225 1.261 . S
C227 H197 0.931 . S
C227 C224 1.357 . S
C227 C228 1.312 . S
C228 H199 0.930 . S
C228 C223 1.261 . S
C228 C227 1.312 . S
C229 O201 1.214 . S
C229 O209 1.234 . S
C230 H202 0.929 . S
C230 C233 1.391 1_445 S
C230 C235 1.391 . S
C231 H203 0.929 . S
C231 C232 1.390 1_545 S
C231 N234 1.391 1_655 S
C232 H204 0.930 . S
C232 C231 1.390 1_565 S
C232 C233 1.392 . S
C233 H205 0.929 . S
C233 C230 1.391 1_665 S
C233 C232 1.392 . S
N234 Co178 2.257 . S
N234 C231 1.391 1_455 S
N234 C235 1.388 . S
C235 H206 0.930 . S
C235 C230 1.391 . S
C235 N234 1.388 . S
Co236 O238 2.143 . S
Co236 O244 2.074 . S
Co236 O247 2.093 . S
Co236 O260 2.097 . S
Co236 N277 2.151 . S
Co236 N285 2.214 . S
Co237 O238 2.160 . S
Co237 O243 2.058 . S
Co237 O253 2.057 . S
Co237 O268 2.037 . S
Co237 N272 2.145 . S
Co237 N293 2.257 . S
O238 Co236 2.143 . S
O238 Co237 2.160 . S
C239 O240 1.278 . S
C239 O247 1.224 . S
O240 C239 1.278 . S
C241 O242 1.245 . S
C241 O253 1.232 . S
O242 C241 1.245 . S
O243 Co237 2.058 . S
O243 C269 1.269 . S
O244 Co236 2.074 . S
O244 C269 1.257 . S
H245 C270 0.930 1_455 S
H246 C276 0.930 . S
O247 Co236 2.093 . S
O247 C239 1.224 . S
H248 C280 0.929 . S
H249 C282 0.930 . S
H250 C283 0.930 . S
H251 C281 0.929 . S
H252 C284 0.928 . S
O253 Co237 2.057 . S
O253 C241 1.232 . S
H254 C273 0.929 . S
H255 C274 0.929 . S
H256 C286 0.931 . S
H257 C278 0.929 . S
H258 C287 0.930 . S
H259 C279 0.931 . S
O260 Co236 2.097 . S
O260 C288 1.214 . S
H261 C289 0.929 . S
H262 C290 0.929 . S
H263 C291 0.930 . S
H264 C292 0.929 . S
H265 C294 0.930 . S
H266 C271 0.930 . S
H267 C275 0.930 . S
O268 Co237 2.037 . S
O268 C288 1.234 . S
C269 O243 1.269 . S
C269 O244 1.257 . S
C270 H245 0.930 1_655 S
C270 C273 1.388 . S
C270 C275 1.418 1_665 S
C271 H266 0.930 . S
C271 C274 1.404 1_545 S
C271 C275 1.353 1_655 S
N272 Co237 2.145 . S
N272 C273 1.397 . S
N272 C274 1.334 . S
C273 H254 0.929 . S
C273 C270 1.388 . S
C273 N272 1.397 . S
C274 H255 0.929 . S
C274 C271 1.404 1_565 S
C274 N272 1.334 . S
C275 H267 0.930 . S
C275 C270 1.418 1_445 S
C275 C271 1.353 1_455 S
C276 H246 0.930 . S
C276 N277 1.330 . S
C276 C278 1.446 . S
N277 Co236 2.151 . S
N277 C276 1.330 . S
N277 C281 1.418 . S
C278 H257 0.929 . S
C278 C276 1.446 . S
C278 C279 1.332 . S
C279 H259 0.931 . S
C279 C278 1.332 . S
C279 C280 1.267 . S
C280 H248 0.929 . S
C280 C279 1.267 . S
C280 C281 1.251 . S
C281 H251 0.929 . S
C281 N277 1.418 . S
C281 C280 1.251 . S
C282 H249 0.930 . S
C282 C284 1.406 . S
C282 C287 1.261 . S
C283 H250 0.930 . S
C283 N285 1.325 . S
C283 C286 1.357 . S
C284 H252 0.928 . S
C284 C282 1.406 . S
C284 N285 1.261 . S
N285 Co236 2.214 . S
N285 C283 1.325 . S
N285 C284 1.261 . S
C286 H256 0.931 . S
C286 C283 1.357 . S
C286 C287 1.312 . S
C287 H258 0.930 . S
C287 C282 1.261 . S
C287 C286 1.312 . S
C288 O260 1.214 . S
C288 O268 1.234 . S
C289 H261 0.929 . S
C289 C292 1.391 1_655 S
C289 C294 1.391 . S
C290 H262 0.929 . S
C290 C291 1.390 . S
C290 N293 1.391 1_455 S
C291 H263 0.930 . S
C291 C290 1.390 . S
C291 C292 1.392 . S
C292 H264 0.929 . S
C292 C289 1.391 1_455 S
C292 C291 1.392 . S
N293 Co237 2.257 . S
N293 C290 1.391 1_655 S
N293 C294 1.388 . S
C294 H265 0.930 . S
C294 C289 1.391 . S
C294 N293 1.388 . S
Co295 O297 2.143 1_565 S
Co295 O303 2.074 . S
Co295 O306 2.093 . S
Co295 O319 2.097 . S
Co295 N336 2.151 1_565 S
Co295 N344 2.214 . S
Co296 O297 2.160 . S
Co296 O302 2.058 . S
Co296 O312 2.057 . S
Co296 O327 2.037 1_545 S
Co296 N331 2.145 . S
Co296 N352 2.257 1_545 S
O297 Co295 2.143 1_545 S
O297 Co296 2.160 . S
C298 O299 1.278 . S
C298 O306 1.224 . S
O299 C298 1.278 . S
C300 O301 1.245 . S
C300 O312 1.232 . S
O301 C300 1.245 . S
O302 Co296 2.058 . S
O302 C328 1.269 . S
O303 Co295 2.074 . S
O303 C328 1.257 1_565 S
H304 C329 0.930 1_565 S
H305 C335 0.930 . S
O306 Co295 2.093 . S
O306 C298 1.224 . S
H307 C339 0.929 . S
H308 C341 0.930 . S
H309 C342 0.930 . S
H310 C340 0.929 . S
H311 C343 0.928 . S
O312 Co296 2.057 . S
O312 C300 1.232 . S
H313 C332 0.929 1_565 S
H314 C333 0.929 . S
H315 C345 0.931 . S
H316 C337 0.929 . S
H317 C346 0.930 . S
H318 C338 0.931 . S
O319 Co295 2.097 . S
O319 C347 1.214 . S
H320 C348 0.929 1_545 S
H321 C349 0.929 . S
H322 C350 0.930 . S
H323 C351 0.929 1_655 S
H324 C353 0.930 . S
H325 C330 0.930 . S
H326 C334 0.930 1_655 S
O327 Co296 2.037 1_565 S
O327 C347 1.234 . S
C328 O302 1.269 . S
C328 O303 1.257 1_545 S
C329 H304 0.930 1_545 S
C329 C332 1.388 . S
C329 C334 1.418 . S
C330 H325 0.930 . S
C330 C333 1.404 . S
C330 C334 1.353 . S
N331 Co296 2.145 . S
N331 C332 1.397 . S
N331 C333 1.334 . S
C332 H313 0.929 1_545 S
C332 C329 1.388 . S
C332 N331 1.397 . S
C333 H314 0.929 . S
C333 C330 1.404 . S
C333 N331 1.334 . S
C334 H326 0.930 1_455 S
C334 C329 1.418 . S
C334 C330 1.353 . S
C335 H305 0.930 . S
C335 N336 1.330 . S
C335 C337 1.446 . S
N336 Co295 2.151 1_545 S
N336 C335 1.330 . S
N336 C340 1.418 . S
C337 H316 0.929 . S
C337 C335 1.446 . S
C337 C338 1.332 . S
C338 H318 0.931 . S
C338 C337 1.332 . S
C338 C339 1.267 . S
C339 H307 0.929 . S
C339 C338 1.267 . S
C339 C340 1.251 . S
C340 H310 0.929 . S
C340 N336 1.418 . S
C340 C339 1.251 . S
C341 H308 0.930 . S
C341 C343 1.406 . S
C341 C346 1.261 . S
C342 H309 0.930 . S
C342 N344 1.325 . S
C342 C345 1.357 . S
C343 H311 0.928 . S
C343 C341 1.406 . S
C343 N344 1.261 . S
N344 Co295 2.214 . S
N344 C342 1.325 . S
N344 C343 1.261 . S
C345 H315 0.931 . S
C345 C342 1.357 . S
C345 C346 1.312 . S
C346 H317 0.930 . S
C346 C341 1.261 . S
C346 C345 1.312 . S
C347 O319 1.214 . S
C347 O327 1.234 . S
C348 H320 0.929 1_565 S
C348 C351 1.391 . S
C348 C353 1.391 1_565 S
C349 H321 0.929 . S
C349 C350 1.390 1_455 S
C349 N352 1.391 . S
C350 H322 0.930 . S
C350 C349 1.390 1_655 S
C350 C351 1.392 1_655 S
C351 H323 0.929 1_455 S
C351 C348 1.391 . S
C351 C350 1.392 1_455 S
N352 Co296 2.257 1_565 S
N352 C349 1.391 . S
N352 C353 1.388 1_565 S
C353 H324 0.930 . S
C353 C348 1.391 1_545 S
C353 N352 1.388 1_545 S
Co354 O356 2.143 . S
Co354 O362 2.074 . S
Co354 O365 2.093 . S
Co354 O378 2.097 . S
Co354 N395 2.151 . S
Co354 N403 2.214 1_545 S
Co355 O356 2.160 . S
Co355 O361 2.058 . S
Co355 O371 2.057 . S
Co355 O386 2.037 . S
Co355 N390 2.145 . S
Co355 N411 2.257 . S
O356 Co354 2.143 . S
O356 Co355 2.160 . S
C357 O358 1.278 . S
C357 O365 1.224 . S
O358 C357 1.278 . S
C359 O360 1.245 . S
C359 O371 1.232 . S
O360 C359 1.245 . S
O361 Co355 2.058 . S
O361 C387 1.269 . S
O362 Co354 2.074 . S
O362 C387 1.257 . S
H363 C388 0.930 . S
H364 C394 0.930 . S
O365 Co354 2.093 . S
O365 C357 1.224 . S
H366 C398 0.929 . S
H367 C400 0.930 . S
H368 C401 0.930 . S
H369 C399 0.929 . S
H370 C402 0.928 . S
O371 Co355 2.057 . S
O371 C359 1.232 . S
H372 C391 0.929 . S
H373 C392 0.929 . S
H374 C404 0.931 . S
H375 C396 0.929 . S
H376 C405 0.930 . S
H377 C397 0.931 . S
O378 Co354 2.097 . S
O378 C406 1.214 . S
H379 C407 0.929 . S
H380 C408 0.929 . S
H381 C409 0.930 . S
H382 C410 0.929 . S
H383 C412 0.930 . S
H384 C389 0.930 . S
H385 C393 0.930 . S
O386 Co355 2.037 . S
O386 C406 1.234 . S
C387 O361 1.269 . S
C387 O362 1.257 . S
C388 H363 0.930 . S
C388 C391 1.388 . S
C388 C393 1.418 . S
C389 H384 0.930 . S
C389 C392 1.404 . S
C389 C393 1.353 . S
N390 Co355 2.145 . S
N390 C391 1.397 . S
N390 C392 1.334 . S
C391 H372 0.929 . S
C391 C388 1.388 . S
C391 N390 1.397 . S
C392 H373 0.929 . S
C392 C389 1.404 . S
C392 N390 1.334 . S
C393 H385 0.930 . S
C393 C388 1.418 . S
C393 C389 1.353 . S
C394 H364 0.930 . S
C394 N395 1.330 . S
C394 C396 1.446 1_545 S
N395 Co354 2.151 . S
N395 C394 1.330 . S
N395 C399 1.418 1_545 S
C396 H375 0.929 . S
C396 C394 1.446 1_565 S
C396 C397 1.332 . S
C397 H377 0.931 . S
C397 C396 1.332 . S
C397 C398 1.267 . S
C398 H366 0.929 . S
C398 C397 1.267 . S
C398 C399 1.251 . S
C399 H369 0.929 . S
C399 N395 1.418 1_565 S
C399 C398 1.251 . S
C400 H367 0.930 . S
C400 C402 1.406 . S
C400 C405 1.261 . S
C401 H368 0.930 . S
C401 N403 1.325 . S
C401 C404 1.357 . S
C402 H370 0.928 . S
C402 C400 1.406 . S
C402 N403 1.261 . S
N403 Co354 2.214 1_565 S
N403 C401 1.325 . S
N403 C402 1.261 . S
C404 H374 0.931 . S
C404 C401 1.357 . S
C404 C405 1.312 . S
C405 H376 0.930 . S
C405 C400 1.261 . S
C405 C404 1.312 . S
C406 O378 1.214 . S
C406 O386 1.234 . S
C407 H379 0.929 . S
C407 C410 1.391 . S
C407 C412 1.391 . S
C408 H380 0.929 . S
C408 C409 1.390 . S
C408 N411 1.391 . S
C409 H381 0.930 . S
C409 C408 1.390 . S
C409 C410 1.392 . S
C410 H382 0.929 . S
C410 C407 1.391 . S
C410 C409 1.392 . S
N411 Co355 2.257 . S
N411 C408 1.391 . S
N411 C412 1.388 . S
C412 H383 0.930 . S
C412 C407 1.391 . S
C412 N411 1.388 . S
Co413 O415 2.143 . S
Co413 O421 2.074 . S
Co413 O424 2.093 . S
Co413 O437 2.097 . S
Co413 N454 2.151 1_655 S
Co413 N462 2.214 1_655 S
Co414 O415 2.160 . S
Co414 O420 2.058 . S
Co414 O430 2.057 . S
Co414 O445 2.037 . S
Co414 N449 2.145 . S
Co414 N470 2.257 . S
O415 Co413 2.143 . S
O415 Co414 2.160 . S
C416 O417 1.278 . S
C416 O424 1.224 . S
O417 C416 1.278 . S
C418 O419 1.243 1_655 S
C418 O430 1.232 . S
O419 C418 1.243 1_455 S
O420 Co414 2.058 . S
O420 C446 1.269 . S
O421 Co413 2.074 . S
O421 C446 1.257 . S
H422 C447 0.930 . S
H423 C453 0.930 . S
O424 Co413 2.093 . S
O424 C416 1.224 . S
H425 C457 0.929 . S
H426 C459 0.930 . S
H427 C460 0.930 . S
H428 C458 0.929 . S
H429 C461 0.928 . S
O430 Co414 2.057 . S
O430 C418 1.232 . S
H431 C450 0.929 . S
H432 C451 0.929 . S
H433 C463 0.931 . S
H434 C455 0.929 . S
H435 C464 0.930 . S
H436 C456 0.931 . S
O437 Co413 2.097 . S
O437 C465 1.214 . S
H438 C466 0.929 . S
H439 C467 0.929 . S
H440 C468 0.930 . S
H441 C469 0.929 . S
H442 C471 0.930 . S
H443 C448 0.930 . S
H444 C452 0.930 . S
O445 Co414 2.037 . S
O445 C465 1.234 . S
C446 O420 1.269 . S
C446 O421 1.257 . S
C447 H422 0.930 . S
C447 C450 1.388 . S
C447 C452 1.418 . S
C448 H443 0.930 . S
C448 C451 1.404 . S
C448 C452 1.353 . S
N449 Co414 2.145 . S
N449 C450 1.397 . S
N449 C451 1.334 . S
C450 H431 0.929 . S
C450 C447 1.388 . S
C450 N449 1.397 . S
C451 H432 0.929 . S
C451 C448 1.404 . S
C451 N449 1.334 . S
C452 H444 0.930 . S
C452 C447 1.418 . S
C452 C448 1.353 . S
C453 H423 0.930 . S
C453 N454 1.330 . S
C453 C455 1.446 . S
N454 Co413 2.151 1_455 S
N454 C453 1.330 . S
N454 C458 1.418 . S
C455 H434 0.929 . S
C455 C453 1.446 . S
C455 C456 1.332 . S
C456 H436 0.931 . S
C456 C455 1.332 . S
C456 C457 1.267 . S
C457 H425 0.929 . S
C457 C456 1.267 . S
C457 C458 1.251 . S
C458 H428 0.929 . S
C458 N454 1.418 . S
C458 C457 1.251 . S
C459 H426 0.930 . S
C459 C461 1.406 . S
C459 C464 1.261 . S
C460 H427 0.930 . S
C460 N462 1.325 1_655 S
C460 C463 1.357 . S
C461 H429 0.928 . S
C461 C459 1.406 . S
C461 N462 1.261 . S
N462 Co413 2.214 1_455 S
N462 C460 1.325 1_455 S
N462 C461 1.261 . S
C463 H433 0.931 . S
C463 C460 1.357 . S
C463 C464 1.312 1_655 S
C464 H435 0.930 . S
C464 C459 1.261 . S
C464 C463 1.312 1_455 S
C465 O437 1.214 . S
C465 O445 1.234 . S
C466 H438 0.929 . S
C466 C469 1.391 . S
C466 C471 1.391 . S
C467 H439 0.929 . S
C467 C468 1.390 . S
C467 N470 1.391 . S
C468 H440 0.930 . S
C468 C467 1.390 . S
C468 C469 1.392 . S
C469 H441 0.929 . S
C469 C466 1.391 . S
C469 C468 1.392 . S
N470 Co414 2.257 . S
N470 C467 1.391 . S
N470 C471 1.388 . S
C471 H442 0.930 . S
C471 C466 1.391 . S
C471 N470 1.388 . S
Co472 O474 2.143 . S
Co472 O480 2.074 . S
Co472 O483 2.093 . S
Co472 O496 2.097 . S
Co472 N513 2.151 . S
Co472 N521 2.214 . S
Co473 O474 2.160 . S
Co473 O479 2.058 . S
Co473 O489 2.057 . S
Co473 O504 2.037 . S
Co473 N508 2.145 . S
Co473 N529 2.257 . S
O474 Co472 2.143 . S
O474 Co473 2.160 . S
C475 O476 1.278 . S
C475 O483 1.224 . S
O476 C475 1.278 . S
C477 O478 1.245 . S
C477 O489 1.232 . S
O478 C477 1.245 . S
O479 Co473 2.058 . S
O479 C505 1.269 . S
O480 Co472 2.074 . S
O480 C505 1.257 . S
H481 C506 0.930 . S
H482 C512 0.930 . S
O483 Co472 2.093 . S
O483 C475 1.224 . S
H484 C516 0.929 . S
H485 C518 0.930 . S
H486 C519 0.930 . S
H487 C517 0.929 . S
H488 C520 0.928 . S
O489 Co473 2.057 . S
O489 C477 1.232 . S
H490 C509 0.929 . S
H491 C510 0.929 . S
H492 C522 0.931 . S
H493 C514 0.929 . S
H494 C523 0.930 . S
H495 C515 0.931 . S
O496 Co472 2.097 . S
O496 C524 1.214 . S
H497 C525 0.929 . S
H498 C526 0.929 . S
H499 C527 0.930 . S
H500 C528 0.929 . S
H501 C530 0.930 . S
H502 C507 0.930 . S
H503 C511 0.930 . S
O504 Co473 2.037 . S
O504 C524 1.234 . S
C505 O479 1.269 . S
C505 O480 1.257 . S
C506 H481 0.930 . S
C506 C509 1.388 . S
C506 C511 1.418 . S
C507 H502 0.930 . S
C507 C510 1.404 . S
C507 C511 1.353 . S
N508 Co473 2.145 . S
N508 C509 1.397 . S
N508 C510 1.334 . S
C509 H490 0.929 . S
C509 C506 1.388 . S
C509 N508 1.397 . S
C510 H491 0.929 . S
C510 C507 1.404 . S
C510 N508 1.334 . S
C511 H503 0.930 . S
C511 C506 1.418 . S
C511 C507 1.353 . S
C512 H482 0.930 . S
C512 N513 1.330 . S
C512 C514 1.446 . S
N513 Co472 2.151 . S
N513 C512 1.330 . S
N513 C517 1.418 . S
C514 H493 0.929 . S
C514 C512 1.446 . S
C514 C515 1.332 . S
C515 H495 0.931 . S
C515 C514 1.332 . S
C515 C516 1.267 . S
C516 H484 0.929 . S
C516 C515 1.267 . S
C516 C517 1.251 . S
C517 H487 0.929 . S
C517 N513 1.418 . S
C517 C516 1.251 . S
C518 H485 0.930 . S
C518 C520 1.406 . S
C518 C523 1.261 . S
C519 H486 0.930 . S
C519 N521 1.325 . S
C519 C522 1.357 . S
C520 H488 0.928 . S
C520 C518 1.406 . S
C520 N521 1.261 . S
N521 Co472 2.214 . S
N521 C519 1.325 . S
N521 C520 1.261 . S
C522 H492 0.931 . S
C522 C519 1.357 . S
C522 C523 1.312 . S
C523 H494 0.930 . S
C523 C518 1.261 . S
C523 C522 1.312 . S
C524 O496 1.214 . S
C524 O504 1.234 . S
C525 H497 0.929 . S
C525 C528 1.391 . S
C525 C530 1.391 . S
C526 H498 0.929 . S
C526 C527 1.390 . S
C526 N529 1.391 . S
C527 H499 0.930 . S
C527 C526 1.390 . S
C527 C528 1.392 . S
C528 H500 0.929 . S
C528 C525 1.391 . S
C528 C527 1.392 . S
N529 Co473 2.257 . S
N529 C526 1.391 . S
N529 C530 1.388 . S
C530 H501 0.930 . S
C530 C525 1.391 . S
C530 N529 1.388 . S
Co531 O533 2.143 . S
Co531 O539 2.074 . S
Co531 O542 2.093 1_554 S
Co531 O555 2.097 . S
Co531 N572 2.151 . S
Co531 N580 2.214 . S
Co532 O533 2.160 . S
Co532 O538 2.058 . S
Co532 O548 2.057 . S
Co532 O563 2.037 . S
Co532 N567 2.145 . S
Co532 N588 2.257 . S
O533 Co531 2.143 . S
O533 Co532 2.160 . S
C534 O535 1.278 . S
C534 O542 1.224 . S
O535 C534 1.278 . S
C536 O537 1.245 . S
C536 O548 1.232 . S
O537 C536 1.245 . S
O538 Co532 2.058 . S
O538 C564 1.269 . S
O539 Co531 2.074 . S
O539 C564 1.257 . S
H540 C565 0.930 . S
H541 C571 0.930 1_556 S
O542 Co531 2.093 1_556 S
O542 C534 1.224 . S
H543 C575 0.929 . S
H544 C577 0.930 . S
H545 C578 0.930 . S
H546 C576 0.929 . S
H547 C579 0.928 . S
O548 Co532 2.057 . S
O548 C536 1.232 . S
H549 C568 0.929 . S
H550 C569 0.929 . S
H551 C581 0.931 . S
H552 C573 0.929 . S
H553 C582 0.930 . S
H554 C574 0.931 . S
O555 Co531 2.097 . S
O555 C583 1.214 . S
H556 C584 0.929 . S
H557 C585 0.929 . S
H558 C586 0.930 . S
H559 C587 0.929 . S
H560 C589 0.930 . S
H561 C566 0.930 . S
H562 C570 0.930 . S
O563 Co532 2.037 . S
O563 C583 1.234 . S
C564 O538 1.269 . S
C564 O539 1.257 . S
C565 H540 0.930 . S
C565 C568 1.388 . S
C565 C570 1.418 . S
C566 H561 0.930 . S
C566 C569 1.404 . S
C566 C570 1.353 . S
N567 Co532 2.145 . S
N567 C568 1.397 . S
N567 C569 1.334 . S
C568 H549 0.929 . S
C568 C565 1.388 . S
C568 N567 1.397 . S
C569 H550 0.929 . S
C569 C566 1.404 . S
C569 N567 1.334 . S
C570 H562 0.930 . S
C570 C565 1.418 . S
C570 C566 1.353 . S
C571 H541 0.930 1_554 S
C571 N572 1.330 . S
C571 C573 1.446 1_554 S
N572 Co531 2.151 . S
N572 C571 1.330 . S
N572 C576 1.418 . S
C573 H552 0.929 . S
C573 C571 1.446 1_556 S
C573 C574 1.332 1_556 S
C574 H554 0.931 . S
C574 C573 1.332 1_554 S
C574 C575 1.267 . S
C575 H543 0.929 . S
C575 C574 1.267 . S
C575 C576 1.251 . S
C576 H546 0.929 . S
C576 N572 1.418 . S
C576 C575 1.251 . S
C577 H544 0.930 . S
C577 C579 1.406 . S
C577 C582 1.261 . S
C578 H545 0.930 . S
C578 N580 1.325 . S
C578 C581 1.357 . S
C579 H547 0.928 . S
C579 C577 1.406 . S
C579 N580 1.261 . S
N580 Co531 2.214 . S
N580 C578 1.325 . S
N580 C579 1.261 . S
C581 H551 0.931 . S
C581 C578 1.357 . S
C581 C582 1.312 . S
C582 H553 0.930 . S
C582 C577 1.261 . S
C582 C581 1.312 . S
C583 O555 1.214 . S
C583 O563 1.234 . S
C584 H556 0.929 . S
C584 C587 1.391 . S
C584 C589 1.391 . S
C585 H557 0.929 . S
C585 C586 1.390 . S
C585 N588 1.391 . S
C586 H558 0.930 . S
C586 C585 1.390 . S
C586 C587 1.392 1_554 S
C587 H559 0.929 . S
C587 C584 1.391 . S
C587 C586 1.392 1_556 S
N588 Co532 2.257 . S
N588 C585 1.391 . S
N588 C589 1.388 1_554 S
C589 H560 0.930 . S
C589 C584 1.391 . S
C589 N588 1.388 1_556 S
Co590 O592 2.143 . S
Co590 O598 2.074 . S
Co590 O601 2.093 1_554 S
Co590 O614 2.097 . S
Co590 N631 2.151 1_545 S
Co590 N639 2.214 1_545 S
Co591 O592 2.160 . S
Co591 O597 2.058 . S
Co591 O607 2.057 . S
Co591 O622 2.037 . S
Co591 N626 2.145 . S
Co591 N647 2.257 . S
O592 Co590 2.143 . S
O592 Co591 2.160 . S
C593 O594 1.278 . S
C593 O601 1.224 . S
O594 C593 1.278 . S
C595 O596 1.245 . S
C595 O607 1.232 . S
O596 C595 1.245 . S
O597 Co591 2.058 . S
O597 C623 1.269 . S
O598 Co590 2.074 . S
O598 C623 1.257 . S
H599 C624 0.930 . S
H600 C630 0.930 1_556 S
O601 Co590 2.093 1_556 S
O601 C593 1.224 . S
H602 C634 0.929 . S
H603 C636 0.930 . S
H604 C637 0.930 . S
H605 C635 0.929 . S
H606 C638 0.928 . S
O607 Co591 2.057 . S
O607 C595 1.232 . S
H608 C627 0.929 . S
H609 C628 0.929 . S
H610 C640 0.931 1_545 S
H611 C632 0.929 . S
H612 C641 0.930 . S
H613 C633 0.931 . S
O614 Co590 2.097 . S
O614 C642 1.214 . S
H615 C643 0.929 . S
H616 C644 0.929 . S
H617 C645 0.930 . S
H618 C646 0.929 . S
H619 C648 0.930 . S
H620 C625 0.930 . S
H621 C629 0.930 . S
O622 Co591 2.037 . S
O622 C642 1.234 . S
C623 O597 1.269 . S
C623 O598 1.257 . S
C624 H599 0.930 . S
C624 C627 1.388 . S
C624 C629 1.418 . S
C625 H620 0.930 . S
C625 C628 1.404 . S
C625 C629 1.353 . S
N626 Co591 2.145 . S
N626 C627 1.397 . S
N626 C628 1.334 . S
C627 H608 0.929 . S
C627 C624 1.388 . S
C627 N626 1.397 . S
C628 H609 0.929 . S
C628 C625 1.404 . S
C628 N626 1.334 . S
C629 H621 0.930 . S
C629 C624 1.418 . S
C629 C625 1.353 . S
C630 H600 0.930 1_554 S
C630 N631 1.330 . S
C630 C632 1.446 1_554 S
N631 Co590 2.151 1_565 S
N631 C630 1.330 . S
N631 C635 1.418 . S
C632 H611 0.929 . S
C632 C630 1.446 1_556 S
C632 C633 1.332 1_556 S
C633 H613 0.931 . S
C633 C632 1.332 1_554 S
C633 C634 1.267 . S
C634 H602 0.929 . S
C634 C633 1.267 . S
C634 C635 1.251 . S
C635 H605 0.929 . S
C635 N631 1.418 . S
C635 C634 1.251 . S
C636 H603 0.930 . S
C636 C638 1.406 . S
C636 C641 1.261 . S
C637 H604 0.930 . S
C637 N639 1.325 1_545 S
C637 C640 1.357 1_545 S
C638 H606 0.928 . S
C638 C636 1.406 . S
C638 N639 1.261 . S
N639 Co590 2.214 1_565 S
N639 C637 1.325 1_565 S
N639 C638 1.261 . S
C640 H610 0.931 1_565 S
C640 C637 1.357 1_565 S
C640 C641 1.312 . S
C641 H612 0.930 . S
C641 C636 1.261 . S
C641 C640 1.312 . S
C642 O614 1.214 . S
C642 O622 1.234 . S
C643 H615 0.929 . S
C643 C646 1.391 . S
C643 C648 1.391 . S
C644 H616 0.929 . S
C644 C645 1.390 . S
C644 N647 1.391 . S
C645 H617 0.930 . S
C645 C644 1.390 . S
C645 C646 1.392 1_554 S
C646 H618 0.929 . S
C646 C643 1.391 . S
C646 C645 1.392 1_556 S
N647 Co591 2.257 . S
N647 C644 1.391 . S
N647 C648 1.388 1_554 S
C648 H619 0.930 . S
C648 C643 1.391 . S
C648 N647 1.388 1_556 S
Co649 O651 2.143 . S
Co649 O657 2.074 . S
Co649 O660 2.093 1_554 S
Co649 O673 2.097 . S
Co649 N690 2.151 1_655 S
Co649 N698 2.214 1_655 S
Co650 O651 2.160 . S
Co650 O656 2.058 . S
Co650 O666 2.057 . S
Co650 O681 2.037 . S
Co650 N685 2.145 . S
Co650 N706 2.257 . S
O651 Co649 2.143 . S
O651 Co650 2.160 . S
C652 O653 1.278 . S
C652 O660 1.224 . S
O653 C652 1.278 . S
C654 O655 1.245 1_655 S
C654 O666 1.232 . S
O655 C654 1.245 1_455 S
O656 Co650 2.058 . S
O656 C682 1.269 . S
O657 Co649 2.074 . S
O657 C682 1.257 . S
H658 C683 0.930 . S
H659 C689 0.930 1_556 S
O660 Co649 2.093 1_556 S
O660 C652 1.224 . S
H661 C693 0.929 . S
H662 C695 0.930 . S
H663 C696 0.930 . S
H664 C694 0.929 . S
H665 C697 0.928 . S
O666 Co650 2.057 . S
O666 C654 1.232 . S
H667 C686 0.929 . S
H668 C687 0.929 . S
H669 C699 0.931 . S
H670 C691 0.929 . S
H671 C700 0.930 . S
H672 C692 0.931 . S
O673 Co649 2.097 . S
O673 C701 1.214 . S
H674 C702 0.929 . S
H675 C703 0.929 . S
H676 C704 0.930 1_554 S
H677 C705 0.929 . S
H678 C707 0.930 . S
H679 C684 0.930 . S
H680 C688 0.930 . S
O681 Co650 2.037 . S
O681 C701 1.234 . S
C682 O656 1.269 . S
C682 O657 1.257 . S
C683 H658 0.930 . S
C683 C686 1.388 . S
C683 C688 1.418 . S
C684 H679 0.930 . S
C684 C687 1.404 . S
C684 C688 1.353 . S
N685 Co650 2.145 . S
N685 C686 1.397 . S
N685 C687 1.334 . S
C686 H667 0.929 . S
C686 C683 1.388 . S
C686 N685 1.397 . S
C687 H668 0.929 . S
C687 C684 1.404 . S
C687 N685 1.334 . S
C688 H680 0.930 . S
C688 C683 1.418 . S
C688 C684 1.353 . S
C689 H659 0.930 1_554 S
C689 N690 1.330 . S
C689 C691 1.446 1_554 S
N690 Co649 2.151 1_455 S
N690 C689 1.330 . S
N690 C694 1.418 . S
C691 H670 0.929 . S
C691 C689 1.446 1_556 S
C691 C692 1.332 1_556 S
C692 H672 0.931 . S
C692 C691 1.332 1_554 S
C692 C693 1.267 . S
C693 H661 0.929 . S
C693 C692 1.267 . S
C693 C694 1.251 . S
C694 H664 0.929 . S
C694 N690 1.418 . S
C694 C693 1.251 . S
C695 H662 0.930 . S
C695 C697 1.406 . S
C695 C700 1.261 . S
C696 H663 0.930 . S
C696 N698 1.325 1_655 S
C696 C699 1.357 . S
C697 H665 0.928 . S
C697 C695 1.406 . S
C697 N698 1.261 . S
N698 Co649 2.214 1_455 S
N698 C696 1.325 1_455 S
N698 C697 1.261 . S
C699 H669 0.931 . S
C699 C696 1.357 . S
C699 C700 1.312 1_655 S
C700 H671 0.930 . S
C700 C695 1.261 . S
C700 C699 1.312 1_455 S
C701 O673 1.214 . S
C701 O681 1.234 . S
C702 H674 0.929 . S
C702 C705 1.391 . S
C702 C707 1.391 . S
C703 H675 0.929 . S
C703 C704 1.390 1_554 S
C703 N706 1.391 . S
C704 H676 0.930 1_556 S
C704 C703 1.390 1_556 S
C704 C705 1.392 . S
C705 H677 0.929 . S
C705 C702 1.391 . S
C705 C704 1.392 . S
N706 Co650 2.257 . S
N706 C703 1.391 . S
N706 C707 1.388 1_554 S
C707 H678 0.930 . S
C707 C702 1.391 . S
C707 N706 1.388 1_556 S
Co708 O710 2.143 . S
Co708 O716 2.074 . S
Co708 O719 2.093 1_556 S
Co708 O732 2.097 . S
Co708 N749 2.151 . S
Co708 N757 2.214 . S
Co709 O710 2.160 . S
Co709 O715 2.058 . S
Co709 O725 2.057 . S
Co709 O740 2.037 . S
Co709 N744 2.145 . S
Co709 N765 2.257 . S
O710 Co708 2.143 . S
O710 Co709 2.160 . S
C711 O712 1.278 . S
C711 O719 1.224 . S
O712 C711 1.278 . S
C713 O714 1.245 . S
C713 O725 1.232 . S
O714 C713 1.245 . S
O715 Co709 2.058 . S
O715 C741 1.269 . S
O716 Co708 2.074 . S
O716 C741 1.257 . S
H717 C742 0.930 . S
H718 C748 0.930 1_554 S
O719 Co708 2.093 1_554 S
O719 C711 1.224 . S
H720 C752 0.929 . S
H721 C754 0.930 . S
H722 C755 0.930 . S
H723 C753 0.929 . S
H724 C756 0.928 . S
O725 Co709 2.057 . S
O725 C713 1.232 . S
H726 C745 0.929 . S
H727 C746 0.929 . S
H728 C758 0.931 . S
H729 C750 0.929 . S
H730 C759 0.930 . S
H731 C751 0.931 . S
O732 Co708 2.097 . S
O732 C760 1.214 . S
H733 C761 0.929 . S
H734 C762 0.929 . S
H735 C763 0.929 1_556 S
H736 C764 0.929 . S
H737 C766 0.930 . S
H738 C743 0.930 . S
H739 C747 0.930 . S
O740 Co709 2.037 . S
O740 C760 1.234 . S
C741 O715 1.269 . S
C741 O716 1.257 . S
C742 H717 0.930 . S
C742 C745 1.388 . S
C742 C747 1.418 . S
C743 H738 0.930 . S
C743 C746 1.404 . S
C743 C747 1.353 . S
N744 Co709 2.145 . S
N744 C745 1.397 . S
N744 C746 1.334 . S
C745 H726 0.929 . S
C745 C742 1.388 . S
C745 N744 1.397 . S
C746 H727 0.929 . S
C746 C743 1.404 . S
C746 N744 1.334 . S
C747 H739 0.930 . S
C747 C742 1.418 . S
C747 C743 1.353 . S
C748 H718 0.930 1_556 S
C748 N749 1.330 . S
C748 C750 1.446 1_556 S
N749 Co708 2.151 . S
N749 C748 1.330 . S
N749 C753 1.418 . S
C750 H729 0.929 . S
C750 C748 1.446 1_554 S
C750 C751 1.332 1_554 S
C751 H731 0.931 . S
C751 C750 1.332 1_556 S
C751 C752 1.267 . S
C752 H720 0.929 . S
C752 C751 1.267 . S
C752 C753 1.251 . S
C753 H723 0.929 . S
C753 N749 1.418 . S
C753 C752 1.251 . S
C754 H721 0.930 . S
C754 C756 1.406 . S
C754 C759 1.261 . S
C755 H722 0.930 . S
C755 N757 1.325 . S
C755 C758 1.357 . S
C756 H724 0.928 . S
C756 C754 1.406 . S
C756 N757 1.261 . S
N757 Co708 2.214 . S
N757 C755 1.325 . S
N757 C756 1.261 . S
C758 H728 0.931 . S
C758 C755 1.357 . S
C758 C759 1.312 . S
C759 H730 0.930 . S
C759 C754 1.261 . S
C759 C758 1.312 . S
C760 O732 1.214 . S
C760 O740 1.234 . S
C761 H733 0.929 . S
C761 C764 1.391 . S
C761 C766 1.391 . S
C762 H734 0.929 . S
C762 C763 1.388 1_556 S
C762 N765 1.391 . S
C763 H735 0.929 1_554 S
C763 C762 1.388 1_554 S
C763 C764 1.394 . S
C764 H736 0.929 . S
C764 C761 1.391 . S
C764 C763 1.394 . S
N765 Co709 2.257 . S
N765 C762 1.391 . S
N765 C766 1.388 1_556 S
C766 H737 0.930 . S
C766 C761 1.391 . S
C766 N765 1.388 1_554 S
Co767 O769 2.143 1_545 S
Co767 O775 2.074 1_556 S
Co767 O778 2.093 . S
Co767 O791 2.099 1_545 S
Co767 N808 2.151 . S
Co767 N816 2.214 . S
Co768 O769 2.160 . S
Co768 O774 2.058 1_556 S
Co768 O784 2.057 . S
Co768 O799 2.037 . S
Co768 N803 2.145 1_556 S
Co768 N824 2.257 . S
O769 Co767 2.143 1_565 S
O769 Co768 2.160 . S
C770 O771 1.278 1_545 S
C770 O778 1.224 . S
O771 C770 1.278 1_565 S
C772 O773 1.245 . S
C772 O784 1.232 . S
O773 C772 1.245 . S
O774 Co768 2.058 1_554 S
O774 C800 1.269 . S
O775 Co767 2.074 1_554 S
O775 C800 1.257 1_545 S
H776 C801 0.930 . S
H777 C807 0.930 . S
O778 Co767 2.093 . S
O778 C770 1.224 . S
H779 C811 0.929 . S
H780 C813 0.930 . S
H781 C814 0.930 . S
H782 C812 0.929 1_554 S
H783 C815 0.928 . S
O784 Co768 2.057 . S
O784 C772 1.232 . S
H785 C804 0.929 . S
H786 C805 0.929 . S
H787 C817 0.931 . S
H788 C809 0.929 . S
H789 C818 0.930 . S
H790 C810 0.931 . S
O791 Co767 2.099 1_565 S
O791 C819 1.222 . S
H792 C820 0.929 . S
H793 C821 0.929 . S
H794 C822 0.930 . S
H795 C823 0.929 . S
H796 C825 0.930 . S
H797 C802 0.930 . S
H798 C806 0.930 . S
O799 Co768 2.037 . S
O799 C819 1.234 . S
C800 O774 1.269 . S
C800 O775 1.257 1_565 S
C801 H776 0.930 . S
C801 C804 1.388 . S
C801 C806 1.418 . S
C802 H797 0.930 . S
C802 C805 1.404 1_554 S
C802 C806 1.353 . S
N803 Co768 2.145 1_554 S
N803 C804 1.397 . S
N803 C805 1.334 1_554 S
C804 H785 0.929 . S
C804 C801 1.388 . S
C804 N803 1.397 . S
C805 H786 0.929 . S
C805 C802 1.404 1_556 S
C805 N803 1.334 1_556 S
C806 H798 0.930 . S
C806 C801 1.418 . S
C806 C802 1.353 . S
C807 H777 0.930 . S
C807 N808 1.330 . S
C807 C809 1.446 . S
N808 Co767 2.151 . S
N808 C807 1.330 . S
N808 C812 1.418 . S
C809 H788 0.929 . S
C809 C807 1.446 . S
C809 C810 1.332 . S
C810 H790 0.931 . S
C810 C809 1.332 . S
C810 C811 1.267 . S
C811 H779 0.929 . S
C811 C810 1.267 . S
C811 C812 1.251 . S
C812 H782 0.929 1_556 S
C812 N808 1.418 . S
C812 C811 1.251 . S
C813 H780 0.930 . S
C813 C815 1.406 . S
C813 C818 1.261 1_556 S
C814 H781 0.930 . S
C814 N816 1.325 1_554 S
C814 C817 1.357 . S
C815 H783 0.928 . S
C815 C813 1.406 . S
C815 N816 1.261 . S
N816 Co767 2.214 . S
N816 C814 1.325 1_556 S
N816 C815 1.261 . S
C817 H787 0.931 . S
C817 C814 1.357 . S
C817 C818 1.312 . S
C818 H789 0.930 . S
C818 C813 1.261 1_554 S
C818 C817 1.312 . S
C819 O791 1.222 . S
C819 O799 1.234 . S
C820 H792 0.929 . S
C820 C823 1.391 . S
C820 C825 1.391 . S
C821 H793 0.929 . S
C821 C822 1.390 . S
C821 N824 1.391 . S
C822 H794 0.930 . S
C822 C821 1.390 . S
C822 C823 1.392 . S
C823 H795 0.929 . S
C823 C820 1.391 . S
C823 C822 1.392 . S
N824 Co768 2.257 . S
N824 C821 1.391 . S
N824 C825 1.388 . S
C825 H796 0.930 . S
C825 C820 1.391 . S
C825 N824 1.388 . S
Co826 O828 2.143 . S
Co826 O834 2.074 . S
Co826 O837 2.093 1_556 S
Co826 O850 2.097 . S
Co826 N867 2.151 1_455 S
Co826 N875 2.214 . S
Co827 O828 2.160 . S
Co827 O833 2.058 . S
Co827 O843 2.057 . S
Co827 O858 2.037 . S
Co827 N862 2.145 . S
Co827 N883 2.257 . S
O828 Co826 2.143 . S
O828 Co827 2.160 . S
C829 O830 1.278 . S
C829 O837 1.224 . S
O830 C829 1.278 . S
C831 O832 1.245 . S
C831 O843 1.232 . S
O832 C831 1.245 . S
O833 Co827 2.058 . S
O833 C859 1.269 . S
O834 Co826 2.074 . S
O834 C859 1.257 . S
H835 C860 0.930 . S
H836 C866 0.930 1_554 S
O837 Co826 2.093 1_554 S
O837 C829 1.224 . S
H838 C870 0.929 . S
H839 C872 0.930 . S
H840 C873 0.930 . S
H841 C871 0.929 . S
H842 C874 0.928 . S
O843 Co827 2.057 . S
O843 C831 1.232 . S
H844 C863 0.929 . S
H845 C864 0.929 . S
H846 C876 0.931 . S
H847 C868 0.929 . S
H848 C877 0.930 . S
H849 C869 0.931 . S
O850 Co826 2.097 . S
O850 C878 1.214 . S
H851 C879 0.929 . S
H852 C880 0.929 . S
H853 C881 0.930 . S
H854 C882 0.929 . S
H855 C884 0.930 . S
H856 C861 0.930 . S
H857 C865 0.930 . S
O858 Co827 2.037 . S
O858 C878 1.234 . S
C859 O833 1.269 . S
C859 O834 1.257 . S
C860 H835 0.930 . S
C860 C863 1.388 . S
C860 C865 1.418 . S
C861 H856 0.930 . S
C861 C864 1.404 . S
C861 C865 1.353 . S
N862 Co827 2.145 . S
N862 C863 1.397 . S
N862 C864 1.334 . S
C863 H844 0.929 . S
C863 C860 1.388 . S
C863 N862 1.397 . S
C864 H845 0.929 . S
C864 C861 1.404 . S
C864 N862 1.334 . S
C865 H857 0.930 . S
C865 C860 1.418 . S
C865 C861 1.353 . S
C866 H836 0.930 1_556 S
C866 N867 1.330 . S
C866 C868 1.446 1_556 S
N867 Co826 2.151 1_655 S
N867 C866 1.330 . S
N867 C871 1.418 . S
C868 H847 0.929 . S
C868 C866 1.446 1_554 S
C868 C869 1.332 1_554 S
C869 H849 0.931 . S
C869 C868 1.332 1_556 S
C869 C870 1.267 . S
C870 H838 0.929 . S
C870 C869 1.267 . S
C870 C871 1.251 . S
C871 H841 0.929 . S
C871 N867 1.418 . S
C871 C870 1.251 . S
C872 H839 0.930 . S
C872 C874 1.406 . S
C872 C877 1.261 . S
C873 H840 0.930 . S
C873 N875 1.325 . S
C873 C876 1.357 . S
C874 H842 0.928 . S
C874 C872 1.406 . S
C874 N875 1.261 1_655 S
N875 Co826 2.214 . S
N875 C873 1.325 . S
N875 C874 1.261 1_455 S
C876 H846 0.931 . S
C876 C873 1.357 . S
C876 C877 1.312 1_455 S
C877 H848 0.930 . S
C877 C872 1.261 . S
C877 C876 1.312 1_655 S
C878 O850 1.214 . S
C878 O858 1.234 . S
C879 H851 0.929 . S
C879 C882 1.391 . S
C879 C884 1.391 . S
C880 H852 0.929 . S
C880 C881 1.390 . S
C880 N883 1.391 . S
C881 H853 0.930 . S
C881 C880 1.390 . S
C881 C882 1.392 1_556 S
C882 H854 0.929 . S
C882 C879 1.391 . S
C882 C881 1.392 1_554 S
N883 Co827 2.257 . S
N883 C880 1.391 . S
N883 C884 1.388 1_556 S
C884 H855 0.930 . S
C884 C879 1.391 . S
C884 N883 1.388 1_554 S
Co885 O887 2.143 . S
Co885 O893 2.074 . S
Co885 O896 2.093 . S
Co885 O909 2.097 . S
Co885 N926 2.151 1_565 S
Co885 N934 2.214 . S
Co886 O887 2.160 . S
Co886 O892 2.058 . S
Co886 O902 2.057 . S
Co886 O917 2.037 . S
Co886 N921 2.145 . S
Co886 N942 2.257 . S
O887 Co885 2.143 . S
O887 Co886 2.160 . S
C888 O889 1.278 . S
C888 O896 1.224 . S
O889 C888 1.278 . S
C890 O891 1.245 . S
C890 O902 1.232 . S
O891 C890 1.245 . S
O892 Co886 2.058 . S
O892 C918 1.269 . S
O893 Co885 2.074 . S
O893 C918 1.257 . S
H894 C919 0.930 . S
H895 C925 0.930 . S
O896 Co885 2.093 . S
O896 C888 1.224 . S
H897 C929 0.929 . S
H898 C931 0.930 . S
H899 C932 0.930 . S
H900 C930 0.929 . S
H901 C933 0.928 . S
O902 Co886 2.057 . S
O902 C890 1.232 . S
H903 C922 0.929 . S
H904 C923 0.929 . S
H905 C935 0.931 . S
H906 C927 0.929 . S
H907 C936 0.930 . S
H908 C928 0.931 . S
O909 Co885 2.097 . S
O909 C937 1.214 . S
H910 C938 0.929 . S
H911 C939 0.929 . S
H912 C940 0.930 . S
H913 C941 0.929 . S
H914 C943 0.930 . S
H915 C920 0.930 . S
H916 C924 0.930 . S
O917 Co886 2.037 . S
O917 C937 1.234 . S
C918 O892 1.269 . S
C918 O893 1.257 . S
C919 H894 0.930 . S
C919 C922 1.388 . S
C919 C924 1.418 . S
C920 H915 0.930 . S
C920 C923 1.404 . S
C920 C924 1.353 . S
N921 Co886 2.145 . S
N921 C922 1.397 . S
N921 C923 1.334 . S
C922 H903 0.929 . S
C922 C919 1.388 . S
C922 N921 1.397 . S
C923 H904 0.929 . S
C923 C920 1.404 . S
C923 N921 1.334 . S
C924 H916 0.930 . S
C924 C919 1.418 . S
C924 C920 1.353 . S
C925 H895 0.930 . S
C925 N926 1.330 . S
C925 C927 1.446 . S
N926 Co885 2.151 1_545 S
N926 C925 1.330 . S
N926 C930 1.418 . S
C927 H906 0.929 . S
C927 C925 1.446 . S
C927 C928 1.332 . S
C928 H908 0.931 . S
C928 C927 1.332 . S
C928 C929 1.267 . S
C929 H897 0.929 . S
C929 C928 1.267 . S
C929 C930 1.251 . S
C930 H900 0.929 . S
C930 N926 1.418 . S
C930 C929 1.251 . S
C931 H898 0.930 . S
C931 C933 1.406 . S
C931 C936 1.261 . S
C932 H899 0.930 . S
C932 N934 1.325 . S
C932 C935 1.357 . S
C933 H901 0.928 . S
C933 C931 1.406 . S
C933 N934 1.261 1_545 S
N934 Co885 2.214 . S
N934 C932 1.325 . S
N934 C933 1.261 1_565 S
C935 H905 0.931 . S
C935 C932 1.357 . S
C935 C936 1.312 1_565 S
C936 H907 0.930 . S
C936 C931 1.261 . S
C936 C935 1.312 1_545 S
C937 O909 1.214 . S
C937 O917 1.234 . S
C938 H910 0.929 . S
C938 C941 1.391 . S
C938 C943 1.391 . S
C939 H911 0.929 . S
C939 C940 1.390 . S
C939 N942 1.391 . S
C940 H912 0.930 . S
C940 C939 1.390 . S
C940 C941 1.392 . S
C941 H913 0.929 . S
C941 C938 1.391 . S
C941 C940 1.392 . S
N942 Co886 2.257 . S
N942 C939 1.391 . S
N942 C943 1.388 . S
C943 H914 0.930 . S
C943 C938 1.391 . S
C943 N942 1.388 . S
Co944 O946 2.143 . S
Co944 O952 2.074 . S
Co944 O955 2.093 . S
Co944 O968 2.097 . S
Co944 N985 2.151 1_455 S
Co944 N993 2.214 . S
Co945 O946 2.160 . S
Co945 O951 2.058 . S
Co945 O961 2.057 . S
Co945 O976 2.037 . S
Co945 N980 2.145 . S
Co945 N1001 2.257 . S
O946 Co944 2.143 . S
O946 Co945 2.160 . S
C947 O948 1.278 . S
C947 O955 1.224 . S
O948 C947 1.278 . S
C949 O950 1.245 . S
C949 O961 1.232 . S
O950 C949 1.245 . S
O951 Co945 2.058 . S
O951 C977 1.269 . S
O952 Co944 2.074 . S
O952 C977 1.257 . S
H953 C978 0.930 . S
H954 C984 0.930 . S
O955 Co944 2.093 . S
O955 C947 1.224 . S
H956 C988 0.929 . S
H957 C990 0.930 . S
H958 C991 0.930 . S
H959 C989 0.929 . S
H960 C992 0.928 . S
O961 Co945 2.057 . S
O961 C949 1.232 . S
H962 C981 0.929 . S
H963 C982 0.929 . S
H964 C994 0.931 . S
H965 C986 0.929 . S
H966 C995 0.930 . S
H967 C987 0.931 . S
O968 Co944 2.097 . S
O968 C996 1.214 . S
H969 C997 0.929 . S
H970 C998 0.929 . S
H971 C999 0.930 . S
H972 C1000 0.929 . S
H973 C1002 0.930 . S
H974 C979 0.930 . S
H975 C983 0.930 . S
O976 Co945 2.037 . S
O976 C996 1.234 . S
C977 O951 1.269 . S
C977 O952 1.257 . S
C978 H953 0.930 . S
C978 C981 1.388 . S
C978 C983 1.418 . S
C979 H974 0.930 . S
C979 C982 1.404 . S
C979 C983 1.353 . S
N980 Co945 2.145 . S
N980 C981 1.397 . S
N980 C982 1.334 . S
C981 H962 0.929 . S
C981 C978 1.388 . S
C981 N980 1.397 . S
C982 H963 0.929 . S
C982 C979 1.404 . S
C982 N980 1.334 . S
C983 H975 0.930 . S
C983 C978 1.418 . S
C983 C979 1.353 . S
C984 H954 0.930 . S
C984 N985 1.330 . S
C984 C986 1.446 . S
N985 Co944 2.151 1_655 S
N985 C984 1.330 . S
N985 C989 1.418 . S
C986 H965 0.929 . S
C986 C984 1.446 . S
C986 C987 1.332 . S
C987 H967 0.931 . S
C987 C986 1.332 . S
C987 C988 1.267 . S
C988 H956 0.929 . S
C988 C987 1.267 . S
C988 C989 1.251 . S
C989 H959 0.929 . S
C989 N985 1.418 . S
C989 C988 1.251 . S
C990 H957 0.930 . S
C990 C992 1.406 . S
C990 C995 1.261 . S
C991 H958 0.930 . S
C991 N993 1.325 . S
C991 C994 1.357 . S
C992 H960 0.928 . S
C992 C990 1.406 . S
C992 N993 1.261 1_655 S
N993 Co944 2.214 . S
N993 C991 1.325 . S
N993 C992 1.261 1_455 S
C994 H964 0.931 . S
C994 C991 1.357 . S
C994 C995 1.312 1_455 S
C995 H966 0.930 . S
C995 C990 1.261 . S
C995 C994 1.312 1_655 S
C996 O968 1.214 . S
C996 O976 1.234 . S
C997 H969 0.929 . S
C997 C1000 1.391 . S
C997 C1002 1.391 . S
C998 H970 0.929 . S
C998 C999 1.390 . S
C998 N1001 1.391 . S
C999 H971 0.930 . S
C999 C998 1.390 . S
C999 C1000 1.392 . S
C1000 H972 0.929 . S
C1000 C997 1.391 . S
C1000 C999 1.392 . S
N1001 Co945 2.257 . S
N1001 C998 1.391 . S
N1001 C1002 1.388 . S
C1002 H973 0.930 . S
C1002 C997 1.391 . S
C1002 N1001 1.388 . S
Co1003 O1005 2.143 . S
Co1003 O1011 2.074 . S
Co1003 O1014 2.093 . S
Co1003 O1027 2.097 . S
Co1003 N1044 2.151 . S
Co1003 N1052 2.214 . S
Co1004 O1005 2.160 . S
Co1004 O1010 2.058 . S
Co1004 O1020 2.057 . S
Co1004 O1035 2.037 . S
Co1004 N1039 2.145 . S
Co1004 N1060 2.257 . S
O1005 Co1003 2.143 . S
O1005 Co1004 2.160 . S
C1006 O1007 1.278 . S
C1006 O1014 1.224 . S
O1007 C1006 1.278 . S
C1008 O1009 1.245 . S
C1008 O1020 1.232 . S
O1009 C1008 1.245 . S
O1010 Co1004 2.058 . S
O1010 C1036 1.269 . S
O1011 Co1003 2.074 . S
O1011 C1036 1.257 . S
H1012 C1037 0.930 . S
H1013 C1043 0.930 . S
O1014 Co1003 2.093 . S
O1014 C1006 1.224 . S
H1015 C1047 0.929 . S
H1016 C1049 0.930 . S
H1017 C1050 0.930 . S
H1018 C1048 0.929 . S
H1019 C1051 0.928 . S
O1020 Co1004 2.057 . S
O1020 C1008 1.232 . S
H1021 C1040 0.929 . S
H1022 C1041 0.929 . S
H1023 C1053 0.931 . S
H1024 C1045 0.929 . S
H1025 C1054 0.930 . S
H1026 C1046 0.931 . S
O1027 Co1003 2.097 . S
O1027 C1055 1.214 . S
H1028 C1056 0.929 . S
H1029 C1057 0.929 . S
H1030 C1058 0.930 . S
H1031 C1059 0.929 . S
H1032 C1061 0.930 . S
H1033 C1038 0.930 . S
H1034 C1042 0.930 . S
O1035 Co1004 2.037 . S
O1035 C1055 1.234 . S
C1036 O1010 1.269 . S
C1036 O1011 1.257 . S
C1037 H1012 0.930 . S
C1037 C1040 1.388 . S
C1037 C1042 1.418 . S
C1038 H1033 0.930 . S
C1038 C1041 1.404 . S
C1038 C1042 1.353 . S
N1039 Co1004 2.145 . S
N1039 C1040 1.397 . S
N1039 C1041 1.334 . S
C1040 H1021 0.929 . S
C1040 C1037 1.388 . S
C1040 N1039 1.397 . S
C1041 H1022 0.929 . S
C1041 C1038 1.404 . S
C1041 N1039 1.334 . S
C1042 H1034 0.930 . S
C1042 C1037 1.418 . S
C1042 C1038 1.353 . S
C1043 H1013 0.930 . S
C1043 N1044 1.330 . S
C1043 C1045 1.446 . S
N1044 Co1003 2.151 . S
N1044 C1043 1.330 . S
N1044 C1048 1.418 . S
C1045 H1024 0.929 . S
C1045 C1043 1.446 . S
C1045 C1046 1.332 . S
C1046 H1026 0.931 . S
C1046 C1045 1.332 . S
C1046 C1047 1.267 . S
C1047 H1015 0.929 . S
C1047 C1046 1.267 . S
C1047 C1048 1.251 . S
C1048 H1018 0.929 . S
C1048 N1044 1.418 . S
C1048 C1047 1.251 . S
C1049 H1016 0.930 . S
C1049 C1051 1.406 . S
C1049 C1054 1.261 . S
C1050 H1017 0.930 . S
C1050 N1052 1.325 . S
C1050 C1053 1.357 . S
C1051 H1019 0.928 . S
C1051 C1049 1.406 . S
C1051 N1052 1.261 . S
N1052 Co1003 2.214 . S
N1052 C1050 1.325 . S
N1052 C1051 1.261 . S
C1053 H1023 0.931 . S
C1053 C1050 1.357 . S
C1053 C1054 1.312 . S
C1054 H1025 0.930 . S
C1054 C1049 1.261 . S
C1054 C1053 1.312 . S
C1055 O1027 1.214 . S
C1055 O1035 1.234 . S
C1056 H1028 0.929 . S
C1056 C1059 1.391 . S
C1056 C1061 1.391 . S
C1057 H1029 0.929 . S
C1057 C1058 1.390 . S
C1057 N1060 1.391 . S
C1058 H1030 0.930 . S
C1058 C1057 1.390 . S
C1058 C1059 1.392 . S
C1059 H1031 0.929 . S
C1059 C1056 1.391 . S
C1059 C1058 1.392 . S
N1060 Co1004 2.257 . S
N1060 C1057 1.391 . S
N1060 C1061 1.388 . S
C1061 H1032 0.930 . S
C1061 C1056 1.391 . S
C1061 N1060 1.388 . S
C33 C829 1.259 . S
C711 C62 1.230 . S
C151 C800 1.570 . S
C387 C121 1.214 . S
C416 C3 1.129 . S
C475 C92 1.440 . S
C180 C652 1.149 . S
C534 C239 0.997 . S
C593 C328 1.352 . S
C298 C888 1.280 . S
C210 C947 1.215 . S
C1036 C269 1.634 . S
C741 C505 1.336 . S
C357 C770 1.244 . S
C859 C446 1.668 1_455 S
C1006 C564 1.479 . S
C623 C918 1.368 1_545 S
C977 C682 1.729 1_455 S
C937 C5 3.737 . S
C111 C996 2.759 . S
C123 C1008 2.146 . S
C170 C701 1.986 . S
C583 C52 3.822 . S
C64 C642 2.857 . S
C359 C229 3.915 . S
C465 C288 2.682 . S
C300 C524 2.607 . S
C347 C878 2.576 . S
C182 C760 3.671 . S
C241 C772 2.946 . S
C477 C1055 2.143 . S
C406 C890 3.689 1_545 S
C949 C418 2.928 1_455 S
C713 C536 3.796 1_556 S
C819 C595 2.556 1_566 S
C831 C654 2.616 1_456 S
