# Generated by pormake.
# Topology wlu, (5)-cn, num edge types: 1
# Building blocks:
#     Node 0, Type 0, BuildingBlock: BEQFEK_clean_sbu_0, # of connection points: 5
#     Node 1, Type 0, BuildingBlock: BEQFEK_clean_sbu_0, # of connection points: 5
#     Node 2, Type 0, BuildingBlock: BEQFEK_clean_sbu_0, # of connection points: 5
#     Node 3, Type 0, BuildingBlock: BEQFEK_clean_sbu_0, # of connection points: 5
#     Node 4, Type 0, BuildingBlock: BEQFEK_clean_sbu_0, # of connection points: 5
#     Node 5, Type 0, BuildingBlock: BEQFEK_clean_sbu_0, # of connection points: 5
#     Node 6, Type 0, BuildingBlock: BEQFEK_clean_sbu_0, # of connection points: 5
#     Node 7, Type 0, BuildingBlock: BEQFEK_clean_sbu_0, # of connection points: 5
#     Node 8, Type 0, BuildingBlock: BEQFEK_clean_sbu_0, # of connection points: 5
#     Node 9, Type 0, BuildingBlock: BEQFEK_clean_sbu_0, # of connection points: 5
#     Node 10, Type 0, BuildingBlock: BEQFEK_clean_sbu_0, # of connection points: 5
#     Node 11, Type 0, BuildingBlock: BEQFEK_clean_sbu_0, # of connection points: 5
#     Node 12, Type 0, BuildingBlock: BEQFEK_clean_sbu_0, # of connection points: 5
#     Node 13, Type 0, BuildingBlock: BEQFEK_clean_sbu_0, # of connection points: 5
#     Node 14, Type 0, BuildingBlock: BEQFEK_clean_sbu_0, # of connection points: 5
#     Node 15, Type 0, BuildingBlock: BEQFEK_clean_sbu_0, # of connection points: 5
#     Node 16, Type 0, BuildingBlock: BEQFEK_clean_sbu_0, # of connection points: 5
#     Node 17, Type 0, BuildingBlock: BEQFEK_clean_sbu_0, # of connection points: 5
#     Node 18, Type 0, BuildingBlock: BEQFEK_clean_sbu_0, # of connection points: 5
#     Node 19, Type 0, BuildingBlock: BEQFEK_clean_sbu_0, # of connection points: 5
#     Node 20, Type 0, BuildingBlock: BEQFEK_clean_sbu_0, # of connection points: 5
#     Node 21, Type 0, BuildingBlock: BEQFEK_clean_sbu_0, # of connection points: 5
#     Node 22, Type 0, BuildingBlock: BEQFEK_clean_sbu_0, # of connection points: 5
#     Node 23, Type 0, BuildingBlock: BEQFEK_clean_sbu_0, # of connection points: 5
#     Node 24, Type 0, BuildingBlock: BEQFEK_clean_sbu_0, # of connection points: 5
#     Node 25, Type 0, BuildingBlock: BEQFEK_clean_sbu_0, # of connection points: 5
#     Node 26, Type 0, BuildingBlock: BEQFEK_clean_sbu_0, # of connection points: 5
#     Node 27, Type 0, BuildingBlock: BEQFEK_clean_sbu_0, # of connection points: 5
#     Node 28, Type 0, BuildingBlock: BEQFEK_clean_sbu_0, # of connection points: 5
#     Node 29, Type 0, BuildingBlock: BEQFEK_clean_sbu_0, # of connection points: 5
#     Node 30, Type 0, BuildingBlock: BEQFEK_clean_sbu_0, # of connection points: 5
#     Node 31, Type 0, BuildingBlock: BEQFEK_clean_sbu_0, # of connection points: 5
#     Node 32, Type 0, BuildingBlock: BEQFEK_clean_sbu_0, # of connection points: 5
#     Node 33, Type 0, BuildingBlock: BEQFEK_clean_sbu_0, # of connection points: 5
#     Node 34, Type 0, BuildingBlock: BEQFEK_clean_sbu_0, # of connection points: 5
#     Node 35, Type 0, BuildingBlock: BEQFEK_clean_sbu_0, # of connection points: 5
#     Edge 36, Type (0, 0), BuildingBlock: CIFDUS_clean_linker_0, # of connection points: 2
#     Edge 37, Type (0, 0), BuildingBlock: CIFDUS_clean_linker_0, # of connection points: 2
#     Edge 38, Type (0, 0), BuildingBlock: CIFDUS_clean_linker_0, # of connection points: 2
#     Edge 39, Type (0, 0), BuildingBlock: CIFDUS_clean_linker_0, # of connection points: 2
#     Edge 40, Type (0, 0), BuildingBlock: CIFDUS_clean_linker_0, # of connection points: 2
#     Edge 41, Type (0, 0), BuildingBlock: CIFDUS_clean_linker_0, # of connection points: 2
#     Edge 42, Type (0, 0), BuildingBlock: CIFDUS_clean_linker_0, # of connection points: 2
#     Edge 43, Type (0, 0), BuildingBlock: CIFDUS_clean_linker_0, # of connection points: 2
#     Edge 44, Type (0, 0), BuildingBlock: CIFDUS_clean_linker_0, # of connection points: 2
#     Edge 45, Type (0, 0), BuildingBlock: CIFDUS_clean_linker_0, # of connection points: 2
#     Edge 46, Type (0, 0), BuildingBlock: CIFDUS_clean_linker_0, # of connection points: 2
#     Edge 47, Type (0, 0), BuildingBlock: CIFDUS_clean_linker_0, # of connection points: 2
#     Edge 48, Type (0, 0), BuildingBlock: CIFDUS_clean_linker_0, # of connection points: 2
#     Edge 49, Type (0, 0), BuildingBlock: CIFDUS_clean_linker_0, # of connection points: 2
#     Edge 50, Type (0, 0), BuildingBlock: CIFDUS_clean_linker_0, # of connection points: 2
#     Edge 51, Type (0, 0), BuildingBlock: CIFDUS_clean_linker_0, # of connection points: 2
#     Edge 52, Type (0, 0), BuildingBlock: CIFDUS_clean_linker_0, # of connection points: 2
#     Edge 53, Type (0, 0), BuildingBlock: CIFDUS_clean_linker_0, # of connection points: 2
#     Edge 54, Type (0, 0), BuildingBlock: CIFDUS_clean_linker_0, # of connection points: 2
#     Edge 55, Type (0, 0), BuildingBlock: CIFDUS_clean_linker_0, # of connection points: 2
#     Edge 56, Type (0, 0), BuildingBlock: CIFDUS_clean_linker_0, # of connection points: 2
#     Edge 57, Type (0, 0), BuildingBlock: CIFDUS_clean_linker_0, # of connection points: 2
#     Edge 58, Type (0, 0), BuildingBlock: CIFDUS_clean_linker_0, # of connection points: 2
#     Edge 59, Type (0, 0), BuildingBlock: CIFDUS_clean_linker_0, # of connection points: 2
#     Edge 60, Type (0, 0), BuildingBlock: CIFDUS_clean_linker_0, # of connection points: 2
#     Edge 61, Type (0, 0), BuildingBlock: CIFDUS_clean_linker_0, # of connection points: 2
#     Edge 62, Type (0, 0), BuildingBlock: CIFDUS_clean_linker_0, # of connection points: 2
#     Edge 63, Type (0, 0), BuildingBlock: CIFDUS_clean_linker_0, # of connection points: 2
#     Edge 64, Type (0, 0), BuildingBlock: CIFDUS_clean_linker_0, # of connection points: 2
#     Edge 65, Type (0, 0), BuildingBlock: CIFDUS_clean_linker_0, # of connection points: 2
#     Edge 66, Type (0, 0), BuildingBlock: CIFDUS_clean_linker_0, # of connection points: 2
#     Edge 67, Type (0, 0), BuildingBlock: CIFDUS_clean_linker_0, # of connection points: 2
#     Edge 68, Type (0, 0), BuildingBlock: CIFDUS_clean_linker_0, # of connection points: 2
#     Edge 69, Type (0, 0), BuildingBlock: CIFDUS_clean_linker_0, # of connection points: 2
#     Edge 70, Type (0, 0), BuildingBlock: CIFDUS_clean_linker_0, # of connection points: 2
#     Edge 71, Type (0, 0), BuildingBlock: CIFDUS_clean_linker_0, # of connection points: 2
#     Edge 72, Type (0, 0), BuildingBlock: CIFDUS_clean_linker_0, # of connection points: 2
#     Edge 73, Type (0, 0), BuildingBlock: CIFDUS_clean_linker_0, # of connection points: 2
#     Edge 74, Type (0, 0), BuildingBlock: CIFDUS_clean_linker_0, # of connection points: 2
#     Edge 75, Type (0, 0), BuildingBlock: CIFDUS_clean_linker_0, # of connection points: 2
#     Edge 76, Type (0, 0), BuildingBlock: CIFDUS_clean_linker_0, # of connection points: 2
#     Edge 77, Type (0, 0), BuildingBlock: CIFDUS_clean_linker_0, # of connection points: 2
#     Edge 78, Type (0, 0), BuildingBlock: CIFDUS_clean_linker_0, # of connection points: 2
#     Edge 79, Type (0, 0), BuildingBlock: CIFDUS_clean_linker_0, # of connection points: 2
#     Edge 80, Type (0, 0), BuildingBlock: CIFDUS_clean_linker_0, # of connection points: 2
#     Edge 81, Type (0, 0), BuildingBlock: CIFDUS_clean_linker_0, # of connection points: 2
#     Edge 82, Type (0, 0), BuildingBlock: CIFDUS_clean_linker_0, # of connection points: 2
#     Edge 83, Type (0, 0), BuildingBlock: CIFDUS_clean_linker_0, # of connection points: 2
#     Edge 84, Type (0, 0), BuildingBlock: CIFDUS_clean_linker_0, # of connection points: 2
#     Edge 85, Type (0, 0), BuildingBlock: CIFDUS_clean_linker_0, # of connection points: 2
#     Edge 86, Type (0, 0), BuildingBlock: CIFDUS_clean_linker_0, # of connection points: 2
#     Edge 87, Type (0, 0), BuildingBlock: CIFDUS_clean_linker_0, # of connection points: 2
#     Edge 88, Type (0, 0), BuildingBlock: CIFDUS_clean_linker_0, # of connection points: 2
#     Edge 89, Type (0, 0), BuildingBlock: CIFDUS_clean_linker_0, # of connection points: 2
#     Edge 90, Type (0, 0), BuildingBlock: CIFDUS_clean_linker_0, # of connection points: 2
#     Edge 91, Type (0, 0), BuildingBlock: CIFDUS_clean_linker_0, # of connection points: 2
#     Edge 92, Type (0, 0), BuildingBlock: CIFDUS_clean_linker_0, # of connection points: 2
#     Edge 93, Type (0, 0), BuildingBlock: CIFDUS_clean_linker_0, # of connection points: 2
#     Edge 94, Type (0, 0), BuildingBlock: CIFDUS_clean_linker_0, # of connection points: 2
#     Edge 95, Type (0, 0), BuildingBlock: CIFDUS_clean_linker_0, # of connection points: 2
#     Edge 96, Type (0, 0), BuildingBlock: CIFDUS_clean_linker_0, # of connection points: 2
#     Edge 97, Type (0, 0), BuildingBlock: CIFDUS_clean_linker_0, # of connection points: 2
#     Edge 98, Type (0, 0), BuildingBlock: CIFDUS_clean_linker_0, # of connection points: 2
#     Edge 99, Type (0, 0), BuildingBlock: CIFDUS_clean_linker_0, # of connection points: 2
#     Edge 100, Type (0, 0), BuildingBlock: CIFDUS_clean_linker_0, # of connection points: 2
#     Edge 101, Type (0, 0), BuildingBlock: CIFDUS_clean_linker_0, # of connection points: 2
#     Edge 102, Type (0, 0), BuildingBlock: CIFDUS_clean_linker_0, # of connection points: 2
#     Edge 103, Type (0, 0), BuildingBlock: CIFDUS_clean_linker_0, # of connection points: 2
#     Edge 104, Type (0, 0), BuildingBlock: CIFDUS_clean_linker_0, # of connection points: 2
#     Edge 105, Type (0, 0), BuildingBlock: CIFDUS_clean_linker_0, # of connection points: 2
#     Edge 106, Type (0, 0), BuildingBlock: CIFDUS_clean_linker_0, # of connection points: 2
#     Edge 107, Type (0, 0), BuildingBlock: CIFDUS_clean_linker_0, # of connection points: 2
#     Edge 108, Type (0, 0), BuildingBlock: CIFDUS_clean_linker_0, # of connection points: 2
#     Edge 109, Type (0, 0), BuildingBlock: CIFDUS_clean_linker_0, # of connection points: 2
#     Edge 110, Type (0, 0), BuildingBlock: CIFDUS_clean_linker_0, # of connection points: 2
#     Edge 111, Type (0, 0), BuildingBlock: CIFDUS_clean_linker_0, # of connection points: 2
#     Edge 112, Type (0, 0), BuildingBlock: CIFDUS_clean_linker_0, # of connection points: 2
#     Edge 113, Type (0, 0), BuildingBlock: CIFDUS_clean_linker_0, # of connection points: 2
#     Edge 114, Type (0, 0), BuildingBlock: CIFDUS_clean_linker_0, # of connection points: 2
#     Edge 115, Type (0, 0), BuildingBlock: CIFDUS_clean_linker_0, # of connection points: 2
#     Edge 116, Type (0, 0), BuildingBlock: CIFDUS_clean_linker_0, # of connection points: 2
#     Edge 117, Type (0, 0), BuildingBlock: CIFDUS_clean_linker_0, # of connection points: 2
#     Edge 118, Type (0, 0), BuildingBlock: CIFDUS_clean_linker_0, # of connection points: 2
#     Edge 119, Type (0, 0), BuildingBlock: CIFDUS_clean_linker_0, # of connection points: 2
#     Edge 120, Type (0, 0), BuildingBlock: CIFDUS_clean_linker_0, # of connection points: 2
#     Edge 121, Type (0, 0), BuildingBlock: CIFDUS_clean_linker_0, # of connection points: 2
#     Edge 122, Type (0, 0), BuildingBlock: CIFDUS_clean_linker_0, # of connection points: 2
#     Edge 123, Type (0, 0), BuildingBlock: CIFDUS_clean_linker_0, # of connection points: 2
#     Edge 124, Type (0, 0), BuildingBlock: CIFDUS_clean_linker_0, # of connection points: 2
#     Edge 125, Type (0, 0), BuildingBlock: CIFDUS_clean_linker_0, # of connection points: 2
# Relax obj value: 0.084
# Max RMSD: 0.147
# Mean RMSD: 0.147
data_MOF--net-wlu--node1-BEQFEK_clean_sbu_0--edge1-CIFDUS_clean_linker_0
_symmetry_space_group_name_H-M    P1
_symmetry_Int_Tables_number       1
_symmetry_cell_setting            triclinic
loop_
_symmetry_equiv_pos_as_xyz
'x, y, z'
_cell_length_a     61.44242
_cell_length_b     61.450601
_cell_length_c     50.599334
_cell_angle_alpha  90.013769
_cell_angle_beta   89.976977
_cell_angle_gamma 119.9701
loop_
_atom_site_label
_atom_site_type_symbol
_atom_site_fract_x
_atom_site_fract_y
_atom_site_fract_z
_atom_type_partial_charge
Co0 Co 0.30431 0.21813 0.03816 0.0
Co1 Co 0.2722 0.1599 0.03173 0.0
C2 C 0.30916 0.19145 0.9906 0.0
O3 O 0.31472 0.21142 0.00341 0.0
O4 O 0.29344 0.16986 0.99954 0.0
C5 C 0.35053 0.26473 0.04559 0.0
O6 O 0.36156 0.25225 0.03767 0.0
C7 C 0.25458 0.10695 0.01927 0.0
C8 C 0.22211 0.08726 0.04623 0.0
C9 C 0.23569 0.08327 0.02691 0.0
N10 N 0.25244 0.12415 0.03369 0.0
N11 N 0.23296 0.11227 0.0497 0.0
C12 C 0.27294 0.11343 0.99707 0.0
H13 H 0.27003 0.12521 0.9825 0.0
H14 H 0.29235 0.12454 0.00487 0.0
H15 H 0.2707 0.09662 0.98656 0.0
C16 C 0.31873 0.20308 0.08809 0.0
N17 N 0.30559 0.19753 0.06536 0.0
N18 N 0.29275 0.17298 0.06241 0.0
C19 C 0.29794 0.16217 0.08285 0.0
C20 C 0.31464 0.18095 0.09978 0.0
C21 C 0.33384 0.22898 0.09932 0.0
H22 H 0.32484 0.24028 0.09463 0.0
H23 H 0.35297 0.2382 0.09067 0.0
H24 H 0.33558 0.22834 0.12111 0.0
O25 O 0.2704 0.21341 0.03463 0.0
O26 O 0.24778 0.17228 0.02823 0.0
H27 H 0.26866 0.12496 0.09165 0.0
H28 H 0.29975 0.1306 0.09936 0.0
C29 C 0.28853 0.1346 0.08503 0.0
H30 H 0.2893 0.12696 0.06541 0.0
H31 H 0.22699 0.12128 0.0629 0.0
O32 O 0.32672 0.25366 0.04674 0.0
C33 C 0.24948 0.19377 0.02996 0.0
Co34 Co 0.78016 0.0851 0.03689 0.0
Co35 Co 0.83789 0.11131 0.02548 0.0
C36 C 0.80364 0.11742 0.98872 0.0
O37 O 0.78449 0.10272 0.0025 0.0
O38 O 0.8257 0.12303 0.99569 0.0
C39 C 0.73463 0.08579 0.04741 0.0
O40 O 0.74702 0.10855 0.03744 0.0
C41 C 0.88975 0.14835 0.01034 0.0
C42 C 0.91153 0.13409 0.03159 0.0
C43 C 0.91402 0.15307 0.0149 0.0
N44 N 0.87373 0.12771 0.02404 0.0
N45 N 0.88686 0.11924 0.03659 0.0
C46 C 0.88148 0.16147 0.99133 0.0
H47 H 0.86916 0.14785 0.97617 0.0
H48 H 0.87037 0.16841 0.00204 0.0
H49 H 0.89739 0.1772 0.9809 0.0
C50 C 0.79934 0.11475 0.08682 0.0
N51 N 0.80295 0.10684 0.06318 0.0
N52 N 0.82718 0.11842 0.05803 0.0
C53 C 0.83967 0.13463 0.07784 0.0
C54 C 0.82246 0.13278 0.09681 0.0
C55 C 0.77409 0.10665 0.09866 0.0
H56 H 0.76164 0.08614 0.09597 0.0
H57 H 0.76562 0.11663 0.08852 0.0
H58 H 0.77538 0.11116 0.11999 0.0
O59 O 0.78453 0.05565 0.03063 0.0
O60 O 0.82514 0.07456 0.0208 0.0
H61 H 0.8769 0.14037 0.07878 0.0
H62 H 0.87366 0.1643 0.09584 0.0
C63 C 0.86753 0.15179 0.07832 0.0
H64 H 0.87352 0.16328 0.06003 0.0
H65 H 0.87895 0.10324 0.04851 0.0
O66 O 0.74524 0.07257 0.0487 0.0
C67 C 0.80388 0.05462 0.02353 0.0
Co68 Co 0.91199 0.69234 0.04816 0.0
Co69 Co 0.89293 0.72982 0.0334 0.0
C70 C 0.88794 0.69037 0.99561 0.0
O71 O 0.89889 0.68318 0.01191 0.0
O72 O 0.88303 0.7077 1.00134 0.0
C73 C 0.9115 0.64487 0.0566 0.0
O74 O 0.89234 0.63455 0.04026 0.0
C75 C 0.86015 0.75145 0.02141 0.0
C76 C 0.88514 0.79088 0.03343 0.0
C77 C 0.86155 0.77485 0.02301 0.0
N78 N 0.88189 0.75389 0.0304 0.0
N79 N 0.8967 0.77752 0.03746 0.0
C80 C 0.83839 0.72683 0.01302 0.0
H81 H 0.84049 0.71106 0.02072 0.0
H82 H 0.82048 0.72499 0.0202 0.0
H83 H 0.83786 0.72573 0.99112 0.0
C84 C 0.87802 0.68238 0.09326 0.0
N85 N 0.88881 0.69471 0.07075 0.0
N86 N 0.88083 0.71048 0.06522 0.0
C87 C 0.8647 0.70874 0.08438 0.0
C88 C 0.86244 0.6909 0.10279 0.0
C89 C 0.88121 0.66147 0.10411 0.0
H90 H 0.87601 0.64692 0.08867 0.0
H91 H 0.86928 0.65248 0.12166 0.0
H92 H 0.90122 0.66882 0.10936 0.0
O93 O 0.94359 0.72442 0.04583 0.0
O94 O 0.93038 0.75037 0.03322 0.0
H95 H 0.8444 0.72371 0.10544 0.0
H96 H 0.83703 0.71743 0.07078 0.0
C97 C 0.85238 0.72445 0.08557 0.0
H98 H 0.86622 0.74422 0.08068 0.0
H99 H 0.91474 0.78453 0.04516 0.0
O100 O 0.92148 0.6681 0.06211 0.0
C101 C 0.94815 0.74611 0.03865 0.0
Co102 Co 0.21099 0.29666 0.46448 0.0
Co103 Co 0.15264 0.2597 0.47014 0.0
C104 C 0.18414 0.29568 0.51337 0.0
O105 O 0.20395 0.30603 0.4993 0.0
O106 O 0.16365 0.27735 0.50484 0.0
C107 C 0.25785 0.3438 0.4591 0.0
O108 O 0.24622 0.35382 0.47155 0.0
C109 C 0.09842 0.2419 0.48095 0.0
C110 C 0.08065 0.20536 0.4603 0.0
C111 C 0.07518 0.22067 0.4757 0.0
N112 N 0.11656 0.23907 0.46915 0.0
N113 N 0.10569 0.21724 0.45674 0.0
C114 C 0.10343 0.26394 0.49784 0.0
H115 H 0.12325 0.27458 0.50405 0.0
H116 H 0.09943 0.27687 0.48626 0.0
H117 H 0.09116 0.25767 0.51558 0.0
C118 C 0.19391 0.3122 0.41719 0.0
N119 N 0.1892 0.29754 0.43865 0.0
N120 N 0.16474 0.2828 0.4412 0.0
C121 C 0.15315 0.28784 0.42143 0.0
C122 C 0.17132 0.30681 0.40574 0.0
C123 C 0.21962 0.33038 0.40708 0.0
H124 H 0.23195 0.32207 0.40857 0.0
H125 H 0.22769 0.34776 0.41914 0.0
H126 H 0.21906 0.33545 0.38614 0.0
O127 O 0.20748 0.26291 0.46744 0.0
O128 O 0.16633 0.23648 0.46854 0.0
H129 H 0.11735 0.25512 0.41523 0.0
H130 H 0.11993 0.28361 0.40174 0.0
C131 C 0.12526 0.27556 0.41846 0.0
H132 H 0.11705 0.27799 0.43698 0.0
H133 H 0.11545 0.21021 0.44621 0.0
O134 O 0.24635 0.32026 0.45483 0.0
C135 C 0.18883 0.24065 0.46861 0.0
Co136 Co 0.70122 0.91241 0.46607 0.0
Co137 Co 0.73576 0.88971 0.47844 0.0
C138 C 0.69314 0.8805 0.51377 0.0
O139 O 0.68654 0.89278 0.49874 0.0
O140 O 0.71212 0.87818 0.50857 0.0
C141 C 0.65427 0.90876 0.45294 0.0
O142 O 0.64476 0.88518 0.46008 0.0
C143 C 0.75154 0.85337 0.49309 0.0
C144 C 0.7874 0.86798 0.4714 0.0
C145 C 0.77091 0.84858 0.48768 0.0
N146 N 0.75616 0.87437 0.48017 0.0
N147 N 0.77771 0.88312 0.46743 0.0
C148 C 0.72981 0.83937 0.51152 0.0
H149 H 0.73026 0.85248 0.52686 0.0
H150 H 0.71196 0.83214 0.50038 0.0
H151 H 0.73036 0.82372 0.52173 0.0
C152 C 0.69505 0.88559 0.41556 0.0
N153 N 0.70491 0.89257 0.43994 0.0
N154 N 0.71822 0.88177 0.44551 0.0
C155 C 0.71656 0.86688 0.42507 0.0
C156 C 0.70181 0.86884 0.4054 0.0
C157 C 0.68082 0.89605 0.40154 0.0
H158 H 0.68813 0.91591 0.40729 0.0
H159 H 0.66068 0.88496 0.40701 0.0
H160 H 0.68242 0.89504 0.37978 0.0
O161 O 0.73391 0.94269 0.47402 0.0
O162 O 0.75843 0.92655 0.48261 0.0
H163 H 0.74795 0.86109 0.42178 0.0
H164 H 0.71885 0.83518 0.40969 0.0
C165 C 0.7274 0.84983 0.42521 0.0
H166 H 0.72417 0.84054 0.44472 0.0
H167 H 0.78565 0.89927 0.45574 0.0
O168 O 0.6779 0.92344 0.45395 0.0
C169 C 0.75515 0.94539 0.48051 0.0
Co170 Co 0.09081 0.78282 0.45849 0.0
Co171 Co 0.10457 0.83864 0.46982 0.0
C172 C 0.11772 0.80862 0.50732 0.0
O173 O 0.10923 0.78956 0.49216 0.0
O174 O 0.11651 0.82811 0.50123 0.0
C175 C 0.07442 0.73018 0.45874 0.0
O176 O 0.07173 0.73203 0.48426 0.0
C177 C 0.13291 0.89145 0.488 0.0
C178 C 0.11724 0.90939 0.46239 0.0
C179 C 0.13478 0.91445 0.48211 0.0
N180 N 0.11549 0.87382 0.47205 0.0
N181 N 0.106 0.88464 0.45705 0.0
C182 C 0.14545 0.88563 0.51007 0.0
H183 H 0.13099 0.86994 0.52201 0.0
H184 H 0.15828 0.87957 0.50172 0.0
H185 H 0.15595 0.90183 0.5235 0.0
C186 C 0.12122 0.80628 0.41128 0.0
N187 N 0.11028 0.8078 0.43367 0.0
N188 N 0.11655 0.83133 0.43804 0.0
C189 C 0.13187 0.84564 0.41834 0.0
C190 C 0.13516 0.83015 0.40065 0.0
C191 C 0.12014 0.78267 0.40177 0.0
H192 H 0.1242 0.77354 0.41845 0.0
H193 H 0.13382 0.78632 0.3857 0.0
H194 H 0.10089 0.76951 0.39454 0.0
O195 O 0.05816 0.78089 0.46495 0.0
O196 O 0.06738 0.82029 0.47134 0.0
H197 H 0.12745 0.87771 0.41377 0.0
H198 H 0.156 0.88162 0.39956 0.0
C199 C 0.14286 0.87348 0.41645 0.0
H200 H 0.15278 0.88244 0.43511 0.0
H201 H 0.09192 0.87514 0.44302 0.0
O202 O 0.08281 0.74969 0.44442 0.0
C203 C 0.05136 0.79696 0.46969 0.0
Co204 Co 0.69662 0.77958 0.96561 0.0
Co205 Co 0.73355 0.83702 0.9757 0.0
C206 C 0.69204 0.80457 0.01374 0.0
O207 O 0.68355 0.78519 0.99907 0.0
O208 O 0.71135 0.82525 0.00734 0.0
C209 C 0.65117 0.73122 0.95392 0.0
O210 O 0.6375 0.74101 0.96169 0.0
C211 C 0.7464 0.88893 0.98749 0.0
C212 C 0.78724 0.90997 0.98008 0.0
C213 C 0.7675 0.91299 0.98894 0.0
N214 N 0.75361 0.87286 0.97859 0.0
N215 N 0.77804 0.88558 0.97412 0.0
C216 C 0.71957 0.88094 0.99342 0.0
H217 H 0.70682 0.86271 0.98374 0.0
H218 H 0.715 0.89531 0.98645 0.0
H219 H 0.7164 0.87841 0.01507 0.0
C220 C 0.68612 0.79933 0.917 0.0
N221 N 0.69885 0.80272 0.93968 0.0
N222 N 0.71403 0.82694 0.9436 0.0
C223 C 0.71123 0.8397 0.92334 0.0
C224 C 0.69319 0.82255 0.90604 0.0
C225 C 0.66774 0.77428 0.90562 0.0
H226 H 0.67497 0.76109 0.90786 0.0
H227 H 0.64964 0.76668 0.91632 0.0
H228 H 0.66434 0.77578 0.88434 0.0
O229 O 0.72968 0.7824 0.97117 0.0
O230 O 0.75661 0.82285 0.97789 0.0
H231 H 0.74452 0.87576 0.92653 0.0
H232 H 0.72275 0.87395 0.90131 0.0
C233 C 0.72441 0.86772 0.9214 0.0
H234 H 0.7159 0.87499 0.9357 0.0
H235 H 0.7885 0.87753 0.96742 0.0
O236 O 0.67498 0.74445 0.95414 0.0
C237 C 0.75182 0.80021 0.97575 0.0
Co238 Co 0.2125 0.91409 0.96095 0.0
Co239 Co 0.15436 0.88839 0.97048 0.0
C240 C 0.18724 0.8812 0.00814 0.0
O241 O 0.20649 0.89553 0.99435 0.0
O242 O 0.16521 0.87572 1.00101 0.0
C243 C 0.25927 0.91525 0.94957 0.0
O244 O 0.24692 0.89096 0.95415 0.0
C245 C 0.10164 0.85896 0.98841 0.0
C246 C 0.08178 0.86631 0.9563 0.0
C247 C 0.07791 0.85363 0.98003 0.0
N248 N 0.11857 0.87359 0.97012 0.0
N249 N 0.10658 0.87816 0.95119 0.0
C250 C 0.10865 0.85301 0.01467 0.0
H251 H 0.1256 0.8698 0.02239 0.0
H252 H 0.1131 0.83771 0.0122 0.0
H253 H 0.09335 0.84727 0.02937 0.0
C254 C 0.1953 0.88868 0.9093 0.0
N255 N 0.19066 0.89416 0.9337 0.0
N256 N 0.16626 0.88181 0.93807 0.0
C257 C 0.15476 0.86699 0.91695 0.0
C258 C 0.17279 0.87118 0.89802 0.0
C259 C 0.22085 0.89963 0.89714 0.0
H260 H 0.22992 0.88899 0.90415 0.0
H261 H 0.21979 0.89834 0.87527 0.0
H262 H 0.23259 0.91959 0.903 0.0
O263 O 0.2084 0.94286 0.96825 0.0
O264 O 0.16754 0.92523 0.97598 0.0
H265 H 0.11783 0.8587 0.90618 0.0
H266 H 0.1234 0.83295 0.90175 0.0
C267 C 0.12717 0.84892 0.91489 0.0
H268 H 0.11909 0.84166 0.9347 0.0
H269 H 0.1154 0.88968 0.93493 0.0
O270 O 0.24799 0.92777 0.95121 0.0
C271 C 0.18935 0.94461 0.9746 0.0
Co272 Co 0.08685 0.30413 0.95796 0.0
Co273 Co 0.10867 0.26976 0.97548 0.0
C274 C 0.11006 0.30928 0.01116 0.0
O275 O 0.09907 0.31542 0.9939 0.0
O276 O 0.11586 0.29241 0.00659 0.0
C277 C 0.08771 0.35074 0.94809 0.0
O278 O 0.10662 0.36019 0.96477 0.0
C279 C 0.14601 0.25564 0.99128 0.0
C280 C 0.12418 0.21436 0.98721 0.0
C281 C 0.14751 0.23387 0.99495 0.0
N282 N 0.12298 0.249 0.98211 0.0
N283 N 0.11005 0.22432 0.97971 0.0
C284 C 0.1659 0.28246 0.99523 0.0
H285 H 0.16086 0.29516 0.98466 0.0
H286 H 0.1843 0.28564 0.98793 0.0
H287 H 0.16748 0.28709 0.01659 0.0
C288 C 0.12159 0.314 0.91341 0.0
N289 N 0.11145 0.30275 0.93657 0.0
N290 N 0.12037 0.28798 0.9432 0.0
C291 C 0.13619 0.28904 0.92405 0.0
C292 C 0.13746 0.30557 0.90452 0.0
C293 C 0.11724 0.33366 0.90104 0.0
H294 H 0.0971 0.32529 0.8958 0.0
H295 H 0.12201 0.34887 0.91556 0.0
H296 H 0.12896 0.34219 0.88326 0.0
O297 O 0.05623 0.27081 0.96122 0.0
O298 O 0.07189 0.24681 0.9739 0.0
H299 H 0.13536 0.25421 0.93122 0.0
H300 H 0.15436 0.27171 0.90324 0.0
C301 C 0.14847 0.27327 0.92356 0.0
H302 H 0.16532 0.28201 0.93643 0.0
H303 H 0.09146 0.21425 0.97318 0.0
O304 O 0.07685 0.32745 0.94253 0.0
C305 C 0.05325 0.24959 0.96821 0.0
Co306 Co 0.78403 0.69181 0.54261 0.0
Co307 Co 0.84234 0.72517 0.53566 0.0
C308 C 0.81069 0.68462 0.49706 0.0
O309 O 0.79083 0.67789 0.5105 0.0
O310 O 0.83187 0.70292 0.50405 0.0
C311 C 0.73666 0.64636 0.55155 0.0
O312 O 0.7483 0.63449 0.5436 0.0
C313 C 0.89555 0.74825 0.51945 0.0
C314 C 0.91422 0.77643 0.55106 0.0
C315 C 0.91886 0.76731 0.52798 0.0
N316 N 0.87808 0.74597 0.53702 0.0
N317 N 0.88937 0.76301 0.55571 0.0
C318 C 0.88939 0.73466 0.49355 0.0
H319 H 0.87341 0.73535 0.48423 0.0
H320 H 0.8836 0.71466 0.49705 0.0
H321 H 0.90547 0.74308 0.47965 0.0
C322 C 0.79963 0.68296 0.59495 0.0
N323 N 0.80505 0.69358 0.57079 0.0
N324 N 0.82959 0.70596 0.56744 0.0
C325 C 0.84046 0.70261 0.58909 0.0
C326 C 0.82181 0.68821 0.60724 0.0
C327 C 0.77364 0.66747 0.60582 0.0
H328 H 0.76229 0.67642 0.60112 0.0
H329 H 0.76466 0.64859 0.59659 0.0
H330 H 0.77382 0.66507 0.62753 0.0
O331 O 0.78841 0.72517 0.53466 0.0
O332 O 0.82977 0.74905 0.53147 0.0
H333 H 0.87662 0.73211 0.60079 0.0
H334 H 0.87179 0.70119 0.60646 0.0
C335 C 0.86807 0.71288 0.59249 0.0
H336 H 0.87697 0.71368 0.57318 0.0
H337 H 0.88 0.76585 0.57136 0.0
O338 O 0.7485 0.67021 0.55232 0.0
C339 C 0.8079 0.74647 0.53094 0.0
Co340 Co 0.30384 0.08327 0.53758 0.0
Co341 Co 0.26464 0.10103 0.52798 0.0
C342 C 0.30519 0.10854 0.48808 0.0
O343 O 0.31634 0.10061 0.50318 0.0
O344 O 0.28534 0.10858 0.49529 0.0
C345 C 0.34765 0.07643 0.54935 0.0
O346 O 0.3626 0.0973 0.53663 0.0
C347 C 0.25109 0.13981 0.51624 0.0
C348 C 0.21016 0.11907 0.52347 0.0
C349 C 0.22967 0.14213 0.51521 0.0
N350 N 0.2444 0.11653 0.52472 0.0
N351 N 0.21993 0.1043 0.52911 0.0
C352 C 0.27721 0.15872 0.50785 0.0
H353 H 0.28879 0.14978 0.50474 0.0
H354 H 0.28631 0.17299 0.52362 0.0
H355 H 0.27677 0.16838 0.4895 0.0
C356 C 0.31412 0.11476 0.58538 0.0
N357 N 0.30138 0.10468 0.56283 0.0
N358 N 0.28498 0.11222 0.55909 0.0
C359 C 0.28674 0.12734 0.57935 0.0
C360 C 0.30528 0.12946 0.59666 0.0
C361 C 0.33551 0.11168 0.59479 0.0
H362 H 0.34944 0.11694 0.57864 0.0
H363 H 0.34499 0.12352 0.61228 0.0
H364 H 0.32843 0.09167 0.59978 0.0
O365 O 0.27074 0.05284 0.53149 0.0
O366 O 0.24182 0.06417 0.52835 0.0
H367 H 0.27083 0.14513 0.60321 0.0
H368 H 0.27736 0.15537 0.56929 0.0
C369 C 0.27046 0.13887 0.58255 0.0
H370 H 0.25085 0.12513 0.57694 0.0
H371 H 0.20981 0.08568 0.53551 0.0
O372 O 0.32439 0.06915 0.55138 0.0
C373 C 0.24794 0.0472 0.52865 0.0
Co374 Co 0.90818 0.22234 0.53909 0.0
Co375 Co 0.88854 0.16541 0.52701 0.0
C376 C 0.87737 0.19728 0.49085 0.0
O377 O 0.88965 0.21674 0.50522 0.0
O378 O 0.87505 0.17617 0.49718 0.0
C379 C 0.93 0.27607 0.53933 0.0
O380 O 0.93442 0.27423 0.51426 0.0
C381 C 0.85299 0.11261 0.51424 0.0
C382 C 0.87546 0.09452 0.52304 0.0
C383 C 0.85231 0.08956 0.51324 0.0
N384 N 0.87544 0.13003 0.52386 0.0
N385 N 0.88875 0.11908 0.52912 0.0
C386 C 0.83259 0.11826 0.50755 0.0
H387 H 0.83595 0.13576 0.51753 0.0
H388 H 0.81401 0.10254 0.51368 0.0
H389 H 0.83249 0.1211 0.48591 0.0
C390 C 0.88147 0.20067 0.58928 0.0
N391 N 0.88879 0.19798 0.56501 0.0
N392 N 0.8799 0.17398 0.56014 0.0
C393 C 0.86612 0.16052 0.5811 0.0
C394 C 0.86655 0.17703 0.60033 0.0
C395 C 0.8903 0.22562 0.60224 0.0
H396 H 0.88097 0.23511 0.59277 0.0
H397 H 0.88635 0.22378 0.62376 0.0
H398 H 0.91086 0.23759 0.59939 0.0
O399 O 0.93931 0.22194 0.53122 0.0
O400 O 0.92595 0.18183 0.52254 0.0
H401 H 0.86537 0.12538 0.58223 0.0
H402 H 0.83928 0.12508 0.59931 0.0
C403 C 0.85188 0.13241 0.58193 0.0
H404 H 0.84033 0.12508 0.56386 0.0
H405 H 0.90706 0.12847 0.5365 0.0
O406 O 0.91839 0.25621 0.55307 0.0
C407 C 0.94371 0.20454 0.52457 0.0
Co408 Co 0.97773 0.55455 0.3701 0.0
Co409 Co 0.93529 0.49883 0.362 0.0
C410 C 0.97498 0.52904 0.32038 0.0
O411 O 0.98772 0.54803 0.33516 0.0
O412 O 0.95467 0.5101 0.32831 0.0
C413 C 0.01523 0.60737 0.36925 0.0
O414 O 0.01264 0.60542 0.34344 0.0
C415 C 0.91884 0.44606 0.35163 0.0
C416 C 0.87788 0.42762 0.35821 0.0
C417 C 0.89682 0.42285 0.35069 0.0
N418 N 0.91307 0.46349 0.35939 0.0
N419 N 0.88858 0.45235 0.36342 0.0
C420 C 0.94481 0.45214 0.34381 0.0
H421 H 0.95712 0.47253 0.34062 0.0
H422 H 0.95325 0.44661 0.35995 0.0
H423 H 0.9442 0.44173 0.32563 0.0
C424 C 0.98754 0.53228 0.41708 0.0
N425 N 0.97445 0.53018 0.39498 0.0
N426 N 0.95641 0.50675 0.39215 0.0
C427 C 0.95715 0.4932 0.41279 0.0
C428 C 0.97696 0.50895 0.42927 0.0
C429 C 0.0105 0.55598 0.42551 0.0
H430 H 0.00473 0.5688 0.43448 0.0
H431 H 0.0224 0.56549 0.40804 0.0
H432 H 0.02173 0.55225 0.44008 0.0
O433 O 0.94583 0.55532 0.36585 0.0
O434 O 0.91519 0.51558 0.36379 0.0
H435 H 0.91932 0.46226 0.4114 0.0
H436 H 0.93769 0.46121 0.43877 0.0
C437 C 0.93824 0.46618 0.4176 0.0
H438 H 0.94335 0.45421 0.40576 0.0
H439 H 0.87912 0.46171 0.36924 0.0
O440 O 0.00263 0.58806 0.38351 0.0
C441 C 0.92258 0.53897 0.36402 0.0
Co442 Co 0.44129 0.41392 0.37594 0.0
Co443 Co 0.49955 0.43788 0.36745 0.0
C444 C 0.46683 0.44486 0.32823 0.0
O445 O 0.44689 0.43161 0.3416 0.0
O446 O 0.48821 0.44897 0.33617 0.0
C447 C 0.39176 0.40839 0.38813 0.0
O448 O 0.40076 0.43206 0.38165 0.0
C449 C 0.55192 0.47603 0.35516 0.0
C450 C 0.57308 0.4604 0.37517 0.0
C451 C 0.57609 0.48046 0.35994 0.0
N452 N 0.5355 0.45451 0.3673 0.0
N453 N 0.54828 0.44526 0.37917 0.0
C454 C 0.54412 0.49036 0.3373 0.0
H455 H 0.53329 0.47813 0.32052 0.0
H456 H 0.5316 0.4954 0.34823 0.0
H457 H 0.56029 0.50746 0.329 0.0
C458 C 0.45891 0.44138 0.42686 0.0
N459 N 0.46327 0.4348 0.40286 0.0
N460 N 0.4877 0.44537 0.39917 0.0
C461 C 0.49961 0.45968 0.42043 0.0
C462 C 0.48174 0.45745 0.43868 0.0
C463 C 0.43336 0.4327 0.43816 0.0
H464 H 0.42469 0.44231 0.4277 0.0
H465 H 0.43418 0.4371 0.45952 0.0
H466 H 0.42134 0.41215 0.43527 0.0
O467 O 0.44609 0.38515 0.37035 0.0
O468 O 0.48692 0.40091 0.36387 0.0
H469 H 0.53515 0.46164 0.42412 0.0
H470 H 0.53306 0.48601 0.44186 0.0
C471 C 0.52753 0.47462 0.4235 0.0
H472 H 0.53585 0.48718 0.40619 0.0
H473 H 0.54003 0.4285 0.38986 0.0
O474 O 0.40574 0.39866 0.38682 0.0
C475 C 0.46472 0.38216 0.36558 0.0
Co476 Co 0.58472 0.02579 0.3777 0.0
Co477 Co 0.56146 0.05895 0.36156 0.0
C478 C 0.55987 0.01983 0.32511 0.0
O479 O 0.57153 0.01383 0.34177 0.0
O480 O 0.5541 0.03663 0.33026 0.0
C481 C 0.58915 0.98192 0.39258 0.0
O482 O 0.56679 0.96725 0.38244 0.0
C483 C 0.52685 0.07573 0.34227 0.0
C484 C 0.54007 0.11084 0.36504 0.0
C485 C 0.52237 0.09549 0.34661 0.0
N486 N 0.5461 0.07915 0.35775 0.0
N487 N 0.554 0.10024 0.37115 0.0
C488 C 0.51448 0.05489 0.32253 0.0
H489 H 0.52904 0.05495 0.30956 0.0
H490 H 0.50492 0.03661 0.33306 0.0
H491 H 0.50088 0.05689 0.30986 0.0
C492 C 0.55116 0.01519 0.42376 0.0
N493 N 0.56052 0.02626 0.40029 0.0
N494 N 0.55015 0.03966 0.39341 0.0
C495 C 0.53329 0.037 0.4121 0.0
C496 C 0.5334 0.02141 0.432 0.0
C497 C 0.56066 0.00072 0.43897 0.0
H498 H 0.55194 0.98134 0.43098 0.0
H499 H 0.55609 -0.00024 0.4603 0.0
H500 H 0.58132 0.00973 0.43678 0.0
O501 O 0.61405 0.05922 0.37457 0.0
O502 O 0.59844 0.08322 0.36233 0.0
H503 H 0.50067 0.03922 0.42433 0.0
H504 H 0.50922 0.04612 0.38996 0.0
C505 C 0.51666 0.04828 0.41032 0.0
H506 H 0.52783 0.06862 0.41489 0.0
H507 H 0.56885 0.10733 0.3846 0.0
O508 O 0.59841 0.00556 0.39231 0.0
C509 C 0.61714 0.08048 0.36793 0.0
Co510 Co 0.88109 0.63054 0.80218 0.0
Co511 Co 0.82346 0.59295 0.81199 0.0
C512 C 0.85438 0.63531 0.8494 0.0
O513 O 0.87418 0.64262 0.83557 0.0
O514 O 0.83338 0.61667 0.84246 0.0
C515 C 0.92837 0.67695 0.78926 0.0
O516 O 0.91745 0.68995 0.79559 0.0
C517 C 0.76974 0.57052 0.82734 0.0
C518 C 0.75179 0.53841 0.79977 0.0
C519 C 0.74653 0.55051 0.81975 0.0
N520 N 0.78771 0.57045 0.8121 0.0
N521 N 0.77681 0.55103 0.79589 0.0
C522 C 0.77522 0.58791 0.85026 0.0
H523 H 0.79087 0.58886 0.86203 0.0
H524 H 0.78113 0.60706 0.8428 0.0
H525 H 0.75878 0.58154 0.86353 0.0
C526 C 0.86161 0.63642 0.75096 0.0
N527 N 0.85803 0.62639 0.77532 0.0
N528 N 0.83378 0.61151 0.77943 0.0
C529 C 0.82118 0.61248 0.75797 0.0
C530 C 0.83847 0.62807 0.73927 0.0
C531 C 0.88674 0.65377 0.73904 0.0
H532 H 0.89453 0.67254 0.74832 0.0
H533 H 0.8854 0.65592 0.71743 0.0
H534 H 0.89977 0.64655 0.74279 0.0
O535 O 0.87954 0.59864 0.809 0.0
O536 O 0.83938 0.57133 0.81646 0.0
H537 H 0.78658 0.57894 0.75017 0.0
H538 H 0.78723 0.60714 0.73936 0.0
C539 C 0.79321 0.59883 0.75527 0.0
H540 H 0.78446 0.59942 0.77422 0.0
H541 H 0.78649 0.54642 0.7821 0.0
O542 O 0.91616 0.65314 0.79087 0.0
C543 C 0.8622 0.57656 0.81455 0.0
Co544 Co 0.36716 0.24973 0.79016 0.0
Co545 Co 0.39753 0.22285 0.80569 0.0
C546 C 0.3598 0.22327 0.84243 0.0
O547 O 0.35539 0.23639 0.82611 0.0
O548 O 0.37508 0.21554 0.83696 0.0
C549 C 0.33035 0.26593 0.7882 0.0
O550 O 0.32679 0.25971 0.81332 0.0
C551 C 0.41488 0.18698 0.82169 0.0
C552 C 0.45169 0.20487 0.80147 0.0
C553 C 0.43619 0.18487 0.81763 0.0
N554 N 0.41777 0.20725 0.80832 0.0
N555 N 0.43982 0.21776 0.79634 0.0
C556 C 0.39299 0.17109 0.83925 0.0
H557 H 0.38479 0.18213 0.84728 0.0
H558 H 0.37832 0.15531 0.82754 0.0
H559 H 0.39871 0.1633 0.85591 0.0
C560 C 0.35253 0.21435 0.74537 0.0
N561 N 0.36574 0.22449 0.76765 0.0
N562 N 0.37874 0.21346 0.77354 0.0
C563 C 0.37454 0.19613 0.75481 0.0
C564 C 0.35775 0.1961 0.73624 0.0
C565 C 0.33361 0.2206 0.73457 0.0
H566 H 0.3218 0.22101 0.75092 0.0
H567 H 0.32116 0.20672 0.71968 0.0
H568 H 0.34357 0.23956 0.72547 0.0
O569 O 0.40156 0.2786 0.79376 0.0
O570 O 0.42207 0.25944 0.80694 0.0
H571 H 0.3833 0.16966 0.7359 0.0
H572 H 0.38076 0.16778 0.77162 0.0
C573 C 0.38716 0.18066 0.75438 0.0
H574 H 0.40774 0.19319 0.75615 0.0
H575 H 0.44689 0.23395 0.78479 0.0
O576 O 0.34645 0.26312 0.77515 0.0
C577 C 0.42158 0.27946 0.80179 0.0
Co578 Co 0.74131 0.11928 0.79085 0.0
Co579 Co 0.76798 0.17589 0.80625 0.0
C580 C 0.76876 0.13885 0.84284 0.0
O581 O 0.75527 0.12146 0.82656 0.0
O582 O 0.7767 0.16187 0.8374 0.0
C583 C 0.74019 0.07313 0.77749 0.0
O584 O 0.76392 0.08459 0.78463 0.0
C585 C 0.79894 0.22802 0.82591 0.0
C586 C 0.78895 0.24844 0.79679 0.0
C587 C 0.80336 0.25181 0.81908 0.0
N588 N 0.78291 0.21148 0.80816 0.0
N589 N 0.7769 0.22381 0.79098 0.0
C590 C 0.80771 0.2206 0.85008 0.0
H591 H 0.79161 0.20411 0.85945 0.0
H592 H 0.82173 0.2151 0.84429 0.0
H593 H 0.81609 0.236 0.86481 0.0
C594 C 0.77365 0.14003 0.74332 0.0
N595 N 0.76539 0.14268 0.76714 0.0
N596 N 0.77728 0.16658 0.77378 0.0
C597 C 0.79394 0.17983 0.75453 0.0
C598 C 0.79215 0.16342 0.73461 0.0
C599 C 0.76268 0.11589 0.7282 0.0
H600 H 0.77211 0.10533 0.73436 0.0
H601 H 0.76553 0.11941 0.70662 0.0
H602 H 0.74229 0.1043 0.7323 0.0
O603 O 0.7123 0.12414 0.79442 0.0
O604 O 0.73124 0.16356 0.80827 0.0
H605 H 0.80235 0.21761 0.74848 0.0
H606 H 0.82849 0.21271 0.74271 0.0
C607 C 0.81195 0.20749 0.75556 0.0
H608 H 0.81835 0.2134 0.77615 0.0
H609 H 0.7644 0.21532 0.77532 0.0
O610 O 0.728 0.08477 0.77842 0.0
C611 C 0.7113 0.14308 0.80285 0.0
Co612 Co 0.3714 0.11838 0.29908 0.0
Co613 Co 0.40708 0.17663 0.30385 0.0
C614 C 0.3708 0.14619 0.34703 0.0
O615 O 0.36156 0.12605 0.3335 0.0
O616 O 0.38864 0.16688 0.33822 0.0
C617 C 0.3254 0.07021 0.29112 0.0
O618 O 0.31266 0.08167 0.2962 0.0
C619 C 0.43122 0.23003 0.31953 0.0
C620 C 0.45477 0.24894 0.28462 0.0
C621 C 0.44801 0.25355 0.30921 0.0
N622 N 0.42779 0.21245 0.30156 0.0
N623 N 0.44223 0.22389 0.28092 0.0
C624 C 0.42073 0.22402 0.34698 0.0
H625 H 0.42293 0.20848 0.3551 0.0
H626 H 0.40038 0.21777 0.34637 0.0
H627 H 0.43048 0.24037 0.36041 0.0
C628 C 0.3565 0.13364 0.24976 0.0
N629 N 0.37042 0.13909 0.27193 0.0
N630 N 0.384 0.16367 0.27461 0.0
C631 C 0.37827 0.17455 0.25463 0.0
C632 C 0.36069 0.15585 0.23823 0.0
C633 C 0.34087 0.10777 0.23864 0.0
H634 H 0.34931 0.09601 0.24353 0.0
H635 H 0.32168 0.09907 0.24707 0.0
H636 H 0.33932 0.10842 0.21683 0.0
O637 O 0.40502 0.12238 0.30232 0.0
O638 O 0.43083 0.1635 0.3038 0.0
H639 H 0.40572 0.21101 0.24114 0.0
H640 H 0.3742 0.20574 0.24151 0.0
C641 C 0.3878 0.20214 0.25232 0.0
H642 H 0.39116 0.21082 0.2722 0.0
H643 H 0.44352 0.21456 0.26429 0.0
O644 O 0.34924 0.08246 0.29136 0.0
C645 C 0.42709 0.14117 0.30382 0.0
Co646 Co 0.87942 0.25379 0.29026 0.0
Co647 Co 0.82215 0.22889 0.30363 0.0
C648 C 0.85859 0.22827 0.34239 0.0
O649 O 0.87662 0.24023 0.3262 0.0
O650 O 0.83596 0.22163 0.33628 0.0
C651 C 0.92825 0.25838 0.27915 0.0
O652 O 0.91976 0.23612 0.28991 0.0
C653 C 0.7698 0.19928 0.32336 0.0
C654 C 0.74942 0.20626 0.2915 0.0
C655 C 0.74591 0.19376 0.31526 0.0
N656 N 0.78644 0.2139 0.30487 0.0
N657 N 0.77415 0.21826 0.28612 0.0
C658 C 0.77718 0.19315 0.34931 0.0
H659 H 0.79425 0.20987 0.35693 0.0
H660 H 0.78163 0.17789 0.3464 0.0
H661 H 0.76209 0.18732 0.36427 0.0
C662 C 0.85924 0.21982 0.24391 0.0
N663 N 0.85607 0.22951 0.26653 0.0
N664 N 0.83202 0.21807 0.27253 0.0
C665 C 0.81919 0.20009 0.25424 0.0
C666 C 0.83601 0.20079 0.23536 0.0
C667 C 0.8843 0.22755 0.23178 0.0
H668 H 0.8958 0.24833 0.23122 0.0
H669 H 0.89415 0.22026 0.24411 0.0
H670 H 0.8826 0.22001 0.21153 0.0
O671 O 0.87475 0.28285 0.29381 0.0
O672 O 0.83428 0.26564 0.30327 0.0
H673 H 0.782 0.1928 0.24667 0.0
H674 H 0.78566 0.16588 0.24232 0.0
C675 C 0.79135 0.18277 0.25467 0.0
H676 H 0.78484 0.17693 0.27525 0.0
H677 H 0.78271 0.22954 0.26962 0.0
O678 O 0.91412 0.2679 0.27754 0.0
C679 C 0.85575 0.28491 0.29951 0.0
Co680 Co 0.74865 0.633 0.30143 0.0
Co681 Co 0.77084 0.59746 0.31113 0.0
C682 C 0.77963 0.63951 0.34866 0.0
O683 O 0.76831 0.6476 0.33402 0.0
O684 O 0.78106 0.62015 0.34248 0.0
C685 C 0.74278 0.67684 0.29104 0.0
O686 O 0.76424 0.6907 0.30328 0.0
C687 C 0.80733 0.58014 0.32336 0.0
C688 C 0.78594 0.54119 0.30846 0.0
C689 C 0.80802 0.55787 0.32123 0.0
N690 N 0.78576 0.57655 0.31243 0.0
N691 N 0.77325 0.55328 0.30342 0.0
C692 C 0.8261 0.60394 0.33673 0.0
H693 H 0.81808 0.61606 0.34121 0.0
H694 H 0.84234 0.61457 0.32333 0.0
H695 H 0.83296 0.59971 0.35524 0.0
C696 C 0.77855 0.64354 0.25227 0.0
N697 N 0.76942 0.63082 0.27504 0.0
N698 N 0.77904 0.61618 0.27907 0.0
C699 C 0.79457 0.61904 0.25885 0.0
C700 C 0.79481 0.63651 0.24116 0.0
C701 C 0.77402 0.66412 0.24317 0.0
H702 H 0.7806 0.6788 0.25866 0.0
H703 H 0.78409 0.67305 0.22462 0.0
H704 H 0.75358 0.6565 0.24029 0.0
O705 O 0.71895 0.59974 0.30957 0.0
O706 O 0.73432 0.5741 0.31365 0.0
H707 H 0.81791 0.60803 0.23703 0.0
H708 H 0.82341 0.61199 0.27233 0.0
C709 C 0.80885 0.60528 0.25666 0.0
H710 H 0.7959 0.58493 0.2598 0.0
H711 H 0.75569 0.54545 0.29432 0.0
O712 O 0.73414 0.65336 0.2886 0.0
C713 C 0.71579 0.5779 0.31351 0.0
Co714 Co 0.43968 0.01604 0.87172 0.0
Co715 Co 0.49504 0.05725 0.86012 0.0
C716 C 0.46485 0.01365 0.82309 0.0
O717 O 0.44588 0.00336 0.83839 0.0
O718 O 0.48432 0.03444 0.82888 0.0
C719 C 0.39303 0.96855 0.88116 0.0
O720 O 0.40163 0.95766 0.86529 0.0
C721 C 0.54731 0.07578 0.84604 0.0
C722 C 0.56416 0.11678 0.85115 0.0
C723 C 0.56954 0.09853 0.84253 0.0
N724 N 0.52982 0.08059 0.85575 0.0
N725 N 0.53999 0.1051 0.8589 0.0
C726 C 0.54245 0.04969 0.84129 0.0
H727 H 0.52631 0.03602 0.85341 0.0
H728 H 0.55932 0.04829 0.84616 0.0
H729 H 0.53756 0.04473 0.8202 0.0
C730 C 0.46346 0.00963 0.91961 0.0
N731 N 0.46475 0.02156 0.89686 0.0
N732 N 0.4882 0.03896 0.89239 0.0
C733 C 0.5026 0.03888 0.9125 0.0
C734 C 0.48738 0.02025 0.93045 0.0
C735 C 0.44014 0.98681 0.92909 0.0
H736 H 0.426 0.99215 0.93484 0.0
H737 H 0.43219 0.97301 0.91275 0.0
H738 H 0.44376 0.97765 0.94604 0.0
O739 O 0.43795 0.04704 0.86469 0.0
O740 O 0.47757 0.07674 0.85892 0.0
H741 H 0.5349 0.07552 0.90776 0.0
H742 H 0.53683 0.05781 0.93536 0.0
C743 C 0.53027 0.05657 0.91468 0.0
H744 H 0.54034 0.04977 0.90194 0.0
H745 H 0.53027 0.11388 0.86572 0.0
O746 O 0.4063 0.99192 0.88588 0.0
C747 C 0.45436 0.06988 0.86033 0.0
Co748 Co 0.97258 0.41805 0.87038 0.0
Co749 Co 0.93341 0.43669 0.86707 0.0
C750 C 0.96969 0.44504 0.82282 0.0
O751 O 0.98057 0.43539 0.83577 0.0
O752 O 0.95114 0.44631 0.83234 0.0
C753 C 0.01963 0.41612 0.87727 0.0
O754 O 0.0331 0.44021 0.87195 0.0
C755 C 0.90652 0.46399 0.8536 0.0
C756 C 0.88165 0.45547 0.88826 0.0
C757 C 0.8883 0.46843 0.86453 0.0
N758 N 0.91077 0.44955 0.87041 0.0
N759 N 0.89558 0.44428 0.8909 0.0
C760 C 0.9179 0.47108 0.82658 0.0
H761 H 0.91689 0.45443 0.81687 0.0
H762 H 0.93798 0.48573 0.82834 0.0
H763 H 0.90795 0.47801 0.81386 0.0
C764 C 0.98719 0.44898 0.91913 0.0
N765 N 0.97262 0.43923 0.89757 0.0
N766 N 0.95722 0.44826 0.89565 0.0
C767 C 0.9622 0.46475 0.91559 0.0
C768 C 0.98133 0.46569 0.9311 0.0
C769 C 0.00538 0.4414 0.92905 0.0
H770 H 0.99818 0.42122 0.92506 0.0
H771 H 0.02365 0.45269 0.91887 0.0
H772 H 0.00851 0.44475 0.95063 0.0
O773 O 0.93986 0.38718 0.86812 0.0
O774 O 0.91169 0.39957 0.86732 0.0
H775 H 0.93235 0.47002 0.92945 0.0
H776 H 0.96268 0.49808 0.92999 0.0
C777 C 0.95035 0.48077 0.91862 0.0
H778 H 0.94651 0.48604 0.89895 0.0
H779 H 0.89477 0.43303 0.90675 0.0
O780 O 0.99582 0.40534 0.87754 0.0
C781 C 0.91717 0.38216 0.86723 0.0
Co782 Co 0.57731 0.55135 0.87374 0.0
Co783 Co 0.55864 0.49462 0.86226 0.0
C784 C 0.54971 0.52692 0.82423 0.0
O785 O 0.56115 0.54635 0.83875 0.0
O786 O 0.5471 0.50584 0.83115 0.0
C787 C 0.57648 0.59787 0.88283 0.0
O788 O 0.55587 0.58797 0.86856 0.0
C789 C 0.52237 0.44283 0.84833 0.0
C790 C 0.54462 0.42387 0.853 0.0
C791 C 0.5214 0.41986 0.84448 0.0
N792 N 0.54507 0.45935 0.8581 0.0
N793 N 0.55824 0.44789 0.861 0.0
C794 C 0.50228 0.44938 0.84363 0.0
H795 H 0.5061 0.46625 0.85526 0.0
H796 H 0.48359 0.43346 0.84918 0.0
H797 H 0.5021 0.45381 0.8224 0.0
C798 C 0.54605 0.5292 0.92159 0.0
N799 N 0.5559 0.52685 0.8987 0.0
N800 N 0.54801 0.50293 0.8943 0.0
C801 C 0.53276 0.48927 0.91434 0.0
C802 C 0.53105 0.50549 0.93232 0.0
C803 C 0.54938 0.55357 0.93173 0.0
H804 H 0.56968 0.56709 0.9345 0.0
H805 H 0.54195 0.56146 0.91689 0.0
H806 H 0.53935 0.55136 0.9506 0.0
O807 O 0.60875 0.55054 0.86883 0.0
O808 O 0.59606 0.51053 0.86056 0.0
H809 H 0.53341 0.45489 0.90982 0.0
H810 H 0.51424 0.45492 0.93702 0.0
C811 C 0.52033 0.4613 0.91644 0.0
H812 H 0.50359 0.45264 0.90341 0.0
H813 H 0.57678 0.45667 0.8677 0.0
O814 O 0.5876 0.58542 0.8869 0.0
C815 C 0.61363 0.53321 0.86339 0.0
Co816 Co 0.64268 0.88982 0.70792 0.0
Co817 Co 0.60467 0.83255 0.70034 0.0
C818 C 0.64667 0.86301 0.66171 0.0
O819 O 0.65585 0.88284 0.67565 0.0
O820 O 0.6268 0.84304 0.66854 0.0
C821 C 0.68916 0.93718 0.71534 0.0
O822 O 0.70083 0.9267 0.70388 0.0
C823 C 0.5861 0.78011 0.68456 0.0
C824 C 0.5534 0.75923 0.71092 0.0
C825 C 0.56726 0.75607 0.69124 0.0
N826 N 0.58377 0.7967 0.69992 0.0
N827 N 0.56404 0.7841 0.71546 0.0
C828 C 0.60467 0.78746 0.66241 0.0
H829 H 0.6023 0.80029 0.64885 0.0
H830 H 0.62402 0.79761 0.67054 0.0
H831 H 0.60204 0.77113 0.65063 0.0
C832 C 0.65341 0.87164 0.75732 0.0
N833 N 0.64001 0.86761 0.73501 0.0
N834 N 0.6247 0.84333 0.73192 0.0
C835 C 0.62822 0.8311 0.75222 0.0
C836 C 0.64662 0.84871 0.76887 0.0
C837 C 0.67253 0.89701 0.76737 0.0
H838 H 0.66521 0.91018 0.76563 0.0
H839 H 0.68986 0.90426 0.75533 0.0
H840 H 0.67731 0.89622 0.78836 0.0
O841 O 0.61013 0.88782 0.70068 0.0
O842 O 0.58226 0.84725 0.69742 0.0
H843 H 0.59577 0.7954 0.75939 0.0
H844 H 0.62482 0.79743 0.76982 0.0
C845 C 0.61587 0.80315 0.75436 0.0
H846 H 0.61693 0.79514 0.73507 0.0
H847 H 0.55795 0.79247 0.72931 0.0
O848 O 0.6655 0.92464 0.7185 0.0
C849 C 0.58766 0.87015 0.69721 0.0
Co850 Co 0.10676 0.75402 0.7043 0.0
Co851 Co 0.16342 0.77136 0.69376 0.0
C852 C 0.13299 0.78536 0.6579 0.0
O853 O 0.1135 0.77512 0.67248 0.0
O854 O 0.15275 0.78459 0.66376 0.0
C855 C 0.06082 0.75518 0.7167 0.0
O856 O 0.07147 0.77741 0.70545 0.0
C857 C 0.21584 0.80834 0.68287 0.0
C858 C 0.2345 0.7857 0.68625 0.0
C859 C 0.239 0.80956 0.67973 0.0
N860 N 0.19878 0.78494 0.69042 0.0
N861 N 0.21005 0.77152 0.69253 0.0
C862 C 0.20964 0.82886 0.67978 0.0
H863 H 0.19232 0.82425 0.69097 0.0
H864 H 0.22538 0.84701 0.68691 0.0
H865 H 0.20613 0.83068 0.65861 0.0
C866 C 0.12793 0.77849 0.75565 0.0
N867 N 0.13064 0.77166 0.73114 0.0
N868 N 0.15457 0.77943 0.72684 0.0
C869 C 0.16784 0.79158 0.74856 0.0
C870 C 0.15132 0.79132 0.76741 0.0
C871 C 0.10344 0.77319 0.76749 0.0
H872 H 0.08963 0.75284 0.76586 0.0
H873 H 0.09612 0.78372 0.75638 0.0
H874 H 0.10551 0.77885 0.78858 0.0
O875 O 0.10692 0.72283 0.69437 0.0
O876 O 0.14721 0.73453 0.68945 0.0
H877 H 0.20131 0.78925 0.74465 0.0
H878 H 0.20173 0.80845 0.7721 0.0
C879 C 0.19564 0.80289 0.75134 0.0
H880 H 0.20521 0.81976 0.73856 0.0
H881 H 0.20093 0.75253 0.69768 0.0
O882 O 0.07257 0.74305 0.71769 0.0
C883 C 0.12412 0.71758 0.68944 0.0
Co884 Co 0.24693 0.36136 0.70328 0.0
Co885 Co 0.22549 0.39778 0.69641 0.0
C886 C 0.22082 0.36068 0.65429 0.0
O887 O 0.2305 0.35054 0.66838 0.0
O888 O 0.21872 0.37909 0.66263 0.0
C889 C 0.27355 0.33401 0.70131 0.0
O890 O 0.27976 0.34337 0.67735 0.0
C891 C 0.18624 0.40978 0.68379 0.0
C892 C 0.20258 0.44869 0.6986 0.0
C893 C 0.18185 0.42982 0.68565 0.0
N894 N 0.20849 0.41656 0.69521 0.0
N895 N 0.21811 0.43977 0.70414 0.0
C896 C 0.17133 0.38567 0.66895 0.0
H897 H 0.17106 0.37003 0.68021 0.0
H898 H 0.1519 0.38136 0.66486 0.0
H899 H 0.18068 0.38716 0.64974 0.0
C900 C 0.21409 0.34634 0.75027 0.0
N901 N 0.22399 0.36061 0.72857 0.0
N902 N 0.21479 0.37575 0.7259 0.0
C903 C 0.19882 0.37173 0.74602 0.0
C904 C 0.19786 0.35294 0.76215 0.0
C905 C 0.21904 0.3258 0.75843 0.0
H906 H 0.23842 0.33427 0.76638 0.0
H907 H 0.21768 0.31428 0.74096 0.0
H908 H 0.20555 0.31343 0.77367 0.0
O909 O 0.27695 0.39549 0.69991 0.0
O910 O 0.26192 0.42165 0.69807 0.0
H911 H 0.19914 0.40669 0.74772 0.0
H912 H 0.17712 0.38316 0.7702 0.0
C913 C 0.18563 0.38637 0.75023 0.0
H914 H 0.17068 0.38076 0.73512 0.0
H915 H 0.23551 0.44969 0.71352 0.0
O916 O 0.25936 0.33897 0.71518 0.0
C917 C 0.28038 0.41769 0.69844 0.0
Co918 Co 0.55028 0.96801 0.12746 0.0
Co919 Co 0.49366 0.92892 0.1382 0.0
C920 C 0.52525 0.96979 0.17716 0.0
O921 O 0.54482 0.97833 0.1627 0.0
O922 O 0.50423 0.95127 0.16995 0.0
C923 C 0.59996 0.01353 0.11638 0.0
O924 O 0.59322 0.02797 0.12888 0.0
C925 C 0.43998 0.9097 0.14905 0.0
C926 C 0.42373 0.86964 0.13857 0.0
C927 C 0.41743 0.88689 0.14828 0.0
N928 N 0.45848 0.90584 0.14041 0.0
N929 N 0.44863 0.88187 0.13421 0.0
C930 C 0.44413 0.93509 0.15637 0.0
H931 H 0.46173 0.95002 0.14725 0.0
H932 H 0.42803 0.93722 0.14989 0.0
H933 H 0.44605 0.93736 0.17814 0.0
C934 C 0.52818 0.97828 0.08049 0.0
N935 N 0.52595 0.96529 0.10272 0.0
N936 N 0.50217 0.94841 0.10649 0.0
C937 C 0.4885 0.94995 0.08645 0.0
C938 C 0.50453 0.96899 0.0693 0.0
C939 C 0.55224 0.00063 0.07172 0.0
H940 H 0.56566 0.99446 0.06562 0.0
H941 H 0.56057 0.01377 0.08854 0.0
H942 H 0.54947 0.01082 0.0552 0.0
O943 O 0.54958 0.93597 0.1316 0.0
O944 O 0.50995 0.90787 0.13981 0.0
H945 H 0.45541 0.91363 0.08898 0.0
H946 H 0.45463 0.93326 0.06285 0.0
C947 C 0.46075 0.93312 0.08345 0.0
H948 H 0.45086 0.93961 0.09686 0.0
H949 H 0.45896 0.87383 0.12708 0.0
O950 O 0.58469 0.99013 0.11424 0.0
C951 C 0.53274 0.91358 0.13673 0.0
Co952 Co 0.03592 0.5856 0.13028 0.0
Co953 Co 0.07309 0.56459 0.13389 0.0
C954 C 0.03687 0.55735 0.17765 0.0
O955 O 0.02673 0.56766 0.16452 0.0
O956 O 0.05515 0.55545 0.16842 0.0
C957 C 0.98914 0.5872 0.12305 0.0
O958 O 0.97654 0.56311 0.12862 0.0
C959 C 0.09123 0.52896 0.14304 0.0
C960 C 0.12852 0.54871 0.12394 0.0
C961 C 0.11285 0.52743 0.13855 0.0
N962 N 0.09436 0.55022 0.1319 0.0
N963 N 0.11664 0.56187 0.12046 0.0
C964 C 0.06738 0.51029 0.15638 0.0
H965 H 0.05148 0.51253 0.14944 0.0
H966 H 0.06322 0.49083 0.15231 0.0
H967 H 0.06932 0.51362 0.17802 0.0
C968 C 0.02157 0.55553 0.08066 0.0
N969 N 0.03552 0.56433 0.10277 0.0
N970 N 0.05031 0.55461 0.10476 0.0
C971 C 0.04587 0.53895 0.08417 0.0
C972 C 0.02736 0.53891 0.0683 0.0
C973 C 0.00409 0.56396 0.07054 0.0
H974 H 0.01165 0.58412 0.07501 0.0
H975 H 0.98553 0.5528 0.0802 0.0
H976 H 0.00144 0.56115 0.04886 0.0
O977 O 0.06944 0.61588 0.13392 0.0
O978 O 0.09602 0.6014 0.13394 0.0
H979 H 0.07861 0.53606 0.0771 0.0
H980 H 0.04998 0.50999 0.06408 0.0
C981 C 0.05824 0.52345 0.08069 0.0
H982 H 0.05618 0.51282 0.09909 0.0
H983 H 0.1239 0.57904 0.11062 0.0
O984 O 0.01301 0.59879 0.12282 0.0
C985 C 0.09174 0.61961 0.13479 0.0
Co986 Co 0.41197 0.44734 0.12707 0.0
Co987 Co 0.44 0.50372 0.14359 0.0
C988 C 0.43937 0.46453 0.17881 0.0
O989 O 0.42574 0.44739 0.16234 0.0
O990 O 0.44744 0.48766 0.17381 0.0
C991 C 0.40473 0.39816 0.11478 0.0
O992 O 0.42527 0.4049 0.12854 0.0
C993 C 0.48036 0.55467 0.15747 0.0
C994 C 0.46079 0.5762 0.15145 0.0
C995 C 0.48355 0.57877 0.15952 0.0
N996 N 0.45692 0.53903 0.14879 0.0
N997 N 0.44537 0.55202 0.14522 0.0
C998 C 0.49905 0.54631 0.16245 0.0
H999 H 0.50052 0.54412 0.18403 0.0
H1000 H 0.49287 0.52785 0.15292 0.0
H1001 H 0.51779 0.56037 0.1547 0.0
C1002 C 0.44604 0.46817 0.08084 0.0
N1003 N 0.43684 0.47104 0.10395 0.0
N1004 N 0.44833 0.495 0.11028 0.0
C1005 C 0.46497 0.50824 0.09102 0.0
C1006 C 0.46417 0.49167 0.07172 0.0
C1007 C 0.43928 0.4431 0.06936 0.0
H1008 H 0.41886 0.43245 0.06503 0.0
H1009 H 0.4435 0.4324 0.08408 0.0
H1010 H 0.44999 0.44458 0.0512 0.0
O1011 O 0.38381 0.45371 0.13229 0.0
O1012 O 0.40386 0.49313 0.14612 0.0
H1013 H 0.46976 0.5448 0.09819 0.0
H1014 H 0.48746 0.54336 0.07041 0.0
C1015 C 0.48075 0.53628 0.09067 0.0
H1016 H 0.49726 0.54215 0.10371 0.0
H1017 H 0.42685 0.54432 0.13871 0.0
O1018 O 0.39663 0.4134 0.11195 0.0
C1019 C 0.38353 0.47296 0.14104 0.0
Co1020 Co 0.02965 0.45195 0.62981 0.0
Co1021 Co 0.06937 0.50902 0.63758 0.0
C1022 C 0.03128 0.47731 0.67979 0.0
O1023 O 0.01977 0.45791 0.66518 0.0
O1024 O 0.05057 0.49727 0.67164 0.0
C1025 C 0.99262 0.39842 0.63037 0.0
O1026 O 0.99391 0.40021 0.65626 0.0
C1027 C 0.08739 0.56268 0.64866 0.0
C1028 C 0.12681 0.57999 0.6353 0.0
C1029 C 0.1097 0.58563 0.64671 0.0
N1030 N 0.09136 0.54458 0.63886 0.0
N1031 N 0.11492 0.55511 0.6308 0.0
C1032 C 0.06306 0.55761 0.66076 0.0
H1033 H 0.05092 0.53742 0.66522 0.0
H1034 H 0.05281 0.56297 0.64654 0.0
H1035 H 0.06653 0.5688 0.67909 0.0
C1036 C 0.01682 0.47279 0.58351 0.0
N1037 N 0.03076 0.47573 0.60519 0.0
N1038 N 0.04755 0.49964 0.60798 0.0
C1039 C 0.04524 0.51265 0.58776 0.0
C1040 C 0.02561 0.49605 0.57154 0.0
C1041 C 0.99455 0.44832 0.5755 0.0
H1042 H 0.00118 0.43641 0.56597 0.0
H1043 H 0.98345 0.43831 0.59324 0.0
H1044 H 0.98222 0.45109 0.56155 0.0
O1045 O 0.06273 0.45327 0.6332 0.0
O1046 O 0.09088 0.49391 0.63514 0.0
H1047 H 0.08221 0.5449 0.58724 0.0
H1048 H 0.06136 0.54563 0.56265 0.0
C1049 C 0.06259 0.54012 0.58323 0.0
H1050 H 0.05766 0.551 0.59706 0.0
H1051 H 0.123 0.54523 0.62259 0.0
O1052 O 0.00578 0.41787 0.61645 0.0
C1053 C 0.08545 0.47106 0.63462 0.0
Co1054 Co 0.55224 0.58977 0.62599 0.0
Co1055 Co 0.49497 0.5618 0.64054 0.0
C1056 C 0.53316 0.56081 0.67644 0.0
O1057 O 0.55081 0.57423 0.66041 0.0
O1058 O 0.51032 0.55387 0.67116 0.0
C1059 C 0.60019 0.59472 0.61328 0.0
O1060 O 0.59077 0.57214 0.62351 0.0
C1061 C 0.44413 0.52246 0.65678 0.0
C1062 C 0.42079 0.53648 0.6385 0.0
C1063 C 0.41946 0.51718 0.65383 0.0
N1064 N 0.45922 0.54379 0.64356 0.0
N1065 N 0.44514 0.55206 0.63274 0.0
C1066 C 0.45372 0.50913 0.67377 0.0
H1067 H 0.4652 0.5036 0.66158 0.0
H1068 H 0.43844 0.49245 0.68374 0.0
H1069 H 0.46613 0.52224 0.68923 0.0
C1070 C 0.53226 0.5598 0.57713 0.0
N1071 N 0.52907 0.56665 0.60147 0.0
N1072 N 0.50504 0.55428 0.60759 0.0
C1073 C 0.4922 0.53872 0.58742 0.0
C1074 C 0.50905 0.54185 0.56741 0.0
C1075 C 0.55724 0.56972 0.56387 0.0
H1076 H 0.5681 0.56239 0.57429 0.0
H1077 H 0.55541 0.56388 0.5429 0.0
H1078 H 0.56785 0.59052 0.56506 0.0
O1079 O 0.54576 0.61738 0.63269 0.0
O1080 O 0.50532 0.59819 0.64319 0.0
H1081 H 0.45526 0.53376 0.58715 0.0
H1082 H 0.45797 0.50993 0.56905 0.0
C1083 C 0.46429 0.52201 0.58691 0.0
H1084 H 0.45817 0.51005 0.60486 0.0
H1085 H 0.45221 0.56847 0.62155 0.0
O1086 O 0.58683 0.60516 0.61238 0.0
C1087 C 0.52636 0.61821 0.63986 0.0
Co1088 Co 0.41434 0.96197 0.62629 0.0
Co1089 Co 0.43717 0.92705 0.63842 0.0
C1090 C 0.44698 0.96975 0.67381 0.0
O1091 O 0.43435 0.97623 0.65909 0.0
O1092 O 0.44959 0.95097 0.66828 0.0
C1093 C 0.41818 0.00916 0.61222 0.0
O1094 O 0.44185 0.01851 0.61897 0.0
C1095 C 0.46838 0.90523 0.65582 0.0
C1096 C 0.45598 0.87354 0.62792 0.0
C1097 C 0.47226 0.88553 0.64875 0.0
N1098 N 0.45097 0.90508 0.63955 0.0
N1099 N 0.4435 0.88594 0.62311 0.0
C1100 C 0.47919 0.92251 0.67903 0.0
H1101 H 0.46391 0.92326 0.6899 0.0
H1102 H 0.49258 0.94172 0.67189 0.0
H1103 H 0.48883 0.91618 0.69294 0.0
C1104 C 0.44061 0.96743 0.57538 0.0
N1105 N 0.43385 0.95776 0.59989 0.0
N1106 N 0.44472 0.94449 0.60541 0.0
C1107 C 0.45948 0.94608 0.58486 0.0
C1108 C 0.45728 0.96059 0.5651 0.0
C1109 C 0.43012 0.98161 0.56136 0.0
H1110 H 0.41037 0.97454 0.56743 0.0
H1111 H 0.44144 0.00182 0.56649 0.0
H1112 H 0.43079 0.97971 0.53961 0.0
O1113 O 0.3839 0.92948 0.63486 0.0
O1114 O 0.40041 0.9053 0.64343 0.0
H1115 H 0.49284 0.94614 0.57123 0.0
H1116 H 0.48423 0.93646 0.60514 0.0
C1117 C 0.47684 0.9356 0.58495 0.0
H1118 H 0.46636 0.91569 0.5785 0.0
H1119 H 0.4299 0.88138 0.60852 0.0
O1120 O 0.4033 0.98559 0.61399 0.0
C1121 C 0.38146 0.90842 0.64171 0.0
Co1122 Co 0.11071 0.36337 0.20704 0.0
Co1123 Co 0.16852 0.39783 0.19905 0.0
C1124 C 0.13724 0.35878 0.15952 0.0
O1125 O 0.11718 0.35268 0.17238 0.0
O1126 O 0.15862 0.37554 0.16789 0.0
C1127 C 0.06419 0.31636 0.21429 0.0
O1128 O 0.07609 0.30556 0.20409 0.0
C1129 C 0.22042 0.41211 0.18732 0.0
C1130 C 0.24047 0.45283 0.19557 0.0
C1131 C 0.2439 0.4338 0.18526 0.0
N1132 N 0.20413 0.41834 0.1977 0.0
N1133 N 0.21626 0.44266 0.20282 0.0
C1134 C 0.21314 0.38569 0.18021 0.0
H1135 H 0.19596 0.37219 0.19111 0.0
H1136 H 0.22859 0.38192 0.18491 0.0
H1137 H 0.20893 0.38274 0.15876 0.0
C1138 C 0.12807 0.35062 0.25617 0.0
N1139 N 0.13267 0.36383 0.23362 0.0
N1140 N 0.15711 0.37835 0.23069 0.0
C1141 C 0.16883 0.37459 0.25131 0.0
C1142 C 0.15071 0.35666 0.26795 0.0
C1143 C 0.10242 0.33287 0.26673 0.0
H1144 H 0.08991 0.34085 0.26393 0.0
H1145 H 0.09451 0.3148 0.25591 0.0
H1146 H 0.10308 0.32914 0.28809 0.0
O1147 O 0.11378 0.39663 0.20331 0.0
O1148 O 0.15447 0.42085 0.19486 0.0
H1149 H 0.20556 0.40713 0.25017 0.0
H1150 H 0.20221 0.38354 0.27391 0.0
C1151 C 0.19673 0.38667 0.25401 0.0
H1152 H 0.2039 0.37862 0.23905 0.0
H1153 H 0.2078 0.45246 0.21032 0.0
O1154 O 0.07556 0.3401 0.21683 0.0
C1155 C 0.13253 0.41789 0.19758 0.0
Co1156 Co 0.63946 0.75308 0.20971 0.0
Co1157 Co 0.6047 0.776 0.19858 0.0
C1158 C 0.64703 0.78624 0.16264 0.0
O1159 O 0.65346 0.77334 0.177 0.0
O1160 O 0.62836 0.78896 0.16846 0.0
C1161 C 0.68624 0.75521 0.22352 0.0
O1162 O 0.69703 0.77899 0.2167 0.0
C1163 C 0.57903 0.80334 0.18072 0.0
C1164 C 0.55054 0.79312 0.21215 0.0
C1165 C 0.55939 0.80685 0.18902 0.0
N1166 N 0.58189 0.78867 0.19848 0.0
N1167 N 0.56459 0.7824 0.21701 0.0
C1168 C 0.59311 0.81144 0.15514 0.0
H1169 H 0.59508 0.79585 0.14676 0.0
H1170 H 0.61222 0.82755 0.15883 0.0
H1171 H 0.58333 0.81693 0.14045 0.0
C1172 C 0.64564 0.77914 0.26083 0.0
N1173 N 0.63557 0.7724 0.23649 0.0
N1174 N 0.62248 0.78353 0.2313 0.0
C1175 C 0.62466 0.79849 0.25187 0.0
C1176 C 0.63931 0.79609 0.27129 0.0
C1177 C 0.65982 0.76844 0.27448 0.0
H1178 H 0.65236 0.7486 0.26854 0.0
H1179 H 0.67994 0.77948 0.2689 0.0
H1180 H 0.65838 0.76932 0.29627 0.0
O1181 O 0.60711 0.72261 0.20146 0.0
O1182 O 0.5832 0.73943 0.19337 0.0
H1183 H 0.59556 0.80685 0.26032 0.0
H1184 H 0.62677 0.83302 0.26454 0.0
C1185 C 0.61485 0.81641 0.25203 0.0
H1186 H 0.6143 0.82277 0.23166 0.0
H1187 H 0.56232 0.77067 0.23294 0.0
O1188 O 0.66253 0.7415 0.22167 0.0
C1189 C 0.58613 0.72039 0.19486 0.0
Co1190 Co 0.25331 0.89243 0.20674 0.0
Co1191 Co 0.23117 0.83553 0.19234 0.0
C1192 C 0.22851 0.8718 0.15476 0.0
O1193 O 0.24013 0.89007 0.17072 0.0
O1194 O 0.2233 0.8496 0.16076 0.0
C1195 C 0.25459 0.9397 0.21512 0.0
O1196 O 0.23606 0.93127 0.19801 0.0
C1197 C 0.19258 0.78334 0.17944 0.0
C1198 C 0.21321 0.76317 0.18753 0.0
C1199 C 0.19027 0.75962 0.17884 0.0
N1200 N 0.21574 0.79994 0.1882 0.0
N1201 N 0.22792 0.78772 0.19304 0.0
C1202 C 0.17371 0.79044 0.17052 0.0
H1203 H 0.1827 0.81084 0.16675 0.0
H1204 H 0.15948 0.78576 0.18625 0.0
H1205 H 0.16396 0.77987 0.1524 0.0
C1206 C 0.21841 0.86997 0.25172 0.0
N1207 N 0.22896 0.86776 0.22931 0.0
N1208 N 0.22018 0.84382 0.2241 0.0
C1209 C 0.20402 0.82999 0.24345 0.0
C1210 C 0.20232 0.84612 0.26156 0.0
C1211 C 0.22226 0.89445 0.26217 0.0
H1212 H 0.21781 0.90408 0.24637 0.0
H1213 H 0.21005 0.89202 0.27932 0.0
H1214 H 0.24223 0.90658 0.26787 0.0
O1215 O 0.28366 0.88915 0.20449 0.0
O1216 O 0.26815 0.84932 0.19257 0.0
H1217 H 0.18489 0.79541 0.26577 0.0
H1218 H 0.1751 0.79346 0.23187 0.0
C1219 C 0.19149 0.80199 0.24536 0.0
H1220 H 0.20474 0.79561 0.23932 0.0
H1221 H 0.2464 0.79621 0.19987 0.0
O1222 O 0.2642 0.92621 0.22107 0.0
C1223 C 0.28677 0.8709 0.19788 0.0
H1224 H 0.35087 0.186 0.8779 0.0
H1225 H 0.34491 0.25258 0.86741 0.0
H1226 H 0.33008 0.24922 0.9126 0.0
H1227 H 0.31917 0.22789 0.95525 0.0
H1228 H 0.32127 0.15936 0.96563 0.0
H1229 H 0.33735 0.16297 0.92047 0.0
C1230 C 0.34619 0.19965 0.88553 0.0
C1231 C 0.34901 0.2195 0.8693 0.0
C1232 C 0.33718 0.19738 0.91156 0.0
C1233 C 0.34271 0.23698 0.87937 0.0
C1234 C 0.33438 0.2352 0.90529 0.0
C1235 C 0.32335 0.21386 0.94768 0.0
C1236 C 0.31947 0.19364 0.96377 0.0
C1237 C 0.33168 0.2156 0.92159 0.0
C1238 C 0.32431 0.1752 0.95357 0.0
C1239 C 0.33345 0.17725 0.92778 0.0
H1240 H 0.76635 0.09144 0.95398 0.0
H1241 H 0.83365 0.16289 0.96528 0.0
H1242 H 0.82881 0.17638 0.9211 0.0
H1243 H 0.80554 0.16727 0.87877 0.0
H1244 H 0.74043 0.09395 0.86698 0.0
H1245 H 0.74444 0.08174 0.9116 0.0
C1246 C 0.77978 0.11007 0.94685 0.0
C1247 C 0.80008 0.1263 0.96288 0.0
C1248 C 0.77742 0.11725 0.92119 0.0
C1249 C 0.81776 0.15015 0.95324 0.0
C1250 C 0.81503 0.15782 0.928 0.0
C1251 C 0.79233 0.14862 0.88599 0.0
C1252 C 0.77276 0.13158 0.86951 0.0
C1253 C 0.795 0.14144 0.91168 0.0
C1254 C 0.75583 0.1074 0.8791 0.0
C1255 C 0.75798 0.1004 0.90472 0.0
H1256 H 0.89383 0.65247 0.88205 0.0
H1257 H 0.81966 0.64301 0.8757 0.0
H1258 H 0.82365 0.66051 0.92029 0.0
H1259 H 0.84837 0.67764 0.96179 0.0
H1260 H 0.92052 0.6821 0.9683 0.0
H1261 H 0.91724 0.66745 0.92304 0.0
C1262 C 0.87864 0.65451 0.8903 0.0
C1263 C 0.85668 0.64688 0.87556 0.0
C1264 C 0.88067 0.66352 0.91611 0.0
C1265 C 0.83684 0.64897 0.88671 0.0
C1266 C 0.83911 0.65891 0.91218 0.0
C1267 C 0.86326 0.67534 0.95317 0.0
C1268 C 0.88462 0.68086 0.9683 0.0
C1269 C 0.86092 0.6661 0.92719 0.0
C1270 C 0.90379 0.67771 0.9571 0.0
C1271 C 0.90201 0.66946 0.93118 0.0
H1272 H 0.20834 0.34334 0.53156 0.0
H1273 H 0.16363 0.2663 0.55664 0.0
H1274 H 0.17093 0.27949 0.60302 0.0
H1275 H 0.19243 0.31299 0.63637 0.0
H1276 H 0.23363 0.39022 0.61106 0.0
H1277 H 0.22533 0.37705 0.56478 0.0
C1278 C 0.19999 0.32954 0.54725 0.0
C1279 C 0.1857 0.30395 0.54091 0.0
C1280 C 0.2038 0.3373 0.57373 0.0
C1281 C 0.17466 0.28614 0.56122 0.0
C1282 C 0.17895 0.29365 0.58767 0.0
C1283 C 0.19937 0.32682 0.62063 0.0
C1284 C 0.21383 0.35243 0.62684 0.0
C1285 C 0.19387 0.31915 0.59415 0.0
C1286 C 0.22247 0.37038 0.60653 0.0
C1287 C 0.2178 0.36287 0.58014 0.0
H1288 H 0.62389 0.84738 0.61444 0.0
H1289 H 0.69623 0.88118 0.65252 0.0
H1290 H 0.71682 0.88621 0.60968 0.0
H1291 H 0.71444 0.88452 0.56123 0.0
H1292 H 0.64278 0.85666 0.52283 0.0
H1293 H 0.6215 0.84548 0.56581 0.0
C1294 C 0.64411 0.85547 0.61325 0.0
C1295 C 0.65863 0.86377 0.63636 0.0
C1296 C 0.65583 0.85945 0.5885 0.0
C1297 C 0.68482 0.87468 0.63481 0.0
C1298 C 0.69654 0.87757 0.61039 0.0
C1299 C 0.69413 0.87559 0.56235 0.0
C1300 C 0.68006 0.87115 0.53911 0.0
C1301 C 0.68228 0.87051 0.58708 0.0
C1302 C 0.65385 0.86011 0.54062 0.0
C1303 C 0.64175 0.85381 0.56512 0.0
H1304 H 0.10725 0.82331 0.55345 0.0
H1305 H 0.14774 0.7894 0.51993 0.0
H1306 H 0.15902 0.7824 0.56428 0.0
H1307 H 0.15387 0.78229 0.61233 0.0
H1308 H 0.10839 0.81071 0.64574 0.0
H1309 H 0.1026 0.82374 0.60175 0.0
C1310 C 0.11892 0.8148 0.55596 0.0
C1311 C 0.12687 0.80701 0.53367 0.0
C1312 C 0.1242 0.80971 0.58145 0.0
C1313 C 0.1415 0.79554 0.53695 0.0
C1314 C 0.14788 0.79151 0.56224 0.0
C1315 C 0.14307 0.79175 0.60998 0.0
C1316 C 0.13169 0.79574 0.63212 0.0
C1317 C 0.13884 0.798 0.5846 0.0
C1318 C 0.1173 0.80751 0.62888 0.0
C1319 C 0.11398 0.81489 0.60378 0.0
H1320 H 0.71498 0.82072 0.06089 0.0
H1321 H 0.64213 0.78327 0.0238 0.0
H1322 H 0.6218 0.77743 0.06695 0.0
H1323 H 0.62478 0.78012 0.11541 0.0
H1324 H 0.69729 0.81189 0.15283 0.0
H1325 H 0.71795 0.82313 0.1095 0.0
C1326 C 0.69468 0.81158 0.06236 0.0
C1327 C 0.67997 0.80257 0.03941 0.0
C1328 C 0.68318 0.80726 0.08727 0.0
C1329 C 0.6537 0.79032 0.04135 0.0
C1330 C 0.64213 0.787 0.06595 0.0
C1331 C 0.64512 0.78991 0.11398 0.0
C1332 C 0.65963 0.79554 0.13706 0.0
C1333 C 0.65667 0.79502 0.08906 0.0
C1334 C 0.68589 0.8076 0.13518 0.0
C1335 C 0.69763 0.81391 0.11047 0.0
H1336 H 0.22458 0.91033 0.04095 0.0
H1337 H 0.15823 0.83726 0.03532 0.0
H1338 H 0.16527 0.82744 0.08055 0.0
H1339 H 0.19064 0.8402 0.12174 0.0
H1340 H 0.25446 0.91521 0.12753 0.0
H1341 H 0.24795 0.92385 0.08216 0.0
C1342 C 0.2118 0.89213 0.04953 0.0
C1343 C 0.19126 0.87429 0.0348 0.0
C1344 C 0.21541 0.88713 0.07561 0.0
C1345 C 0.17435 0.85111 0.04633 0.0
C1346 C 0.17835 0.84558 0.07213 0.0
C1347 C 0.20301 0.85843 0.11302 0.0
C1348 C 0.22304 0.87703 0.12789 0.0
C1349 C 0.19883 0.86351 0.08699 0.0
C1350 C 0.23882 0.90066 0.11653 0.0
C1351 C 0.23522 0.90558 0.09055 0.0
H1352 H 0.14443 0.31502 0.04894 0.0
H1353 H 0.08204 0.32698 0.03357 0.0
H1354 H 0.08406 0.34173 0.07856 0.0
H1355 H 0.10312 0.35107 0.12237 0.0
H1356 H 0.168 0.34349 0.13753 0.0
H1357 H 0.1654 0.32702 0.09269 0.0
C1358 C 0.13141 0.32099 0.05549 0.0
C1359 C 0.11313 0.31989 0.03797 0.0
C1360 C 0.13297 0.33001 0.08139 0.0
C1361 C 0.09645 0.32783 0.04659 0.0
C1362 C 0.09745 0.33613 0.07238 0.0
C1363 C 0.11653 0.34558 0.11587 0.0
C1364 C 0.13542 0.348 0.13314 0.0
C1365 C 0.1155 0.33717 0.08995 0.0
C1366 C 0.15317 0.34153 0.12445 0.0
C1367 C 0.15171 0.3322 0.09888 0.0
H1368 H 0.82137 0.70766 0.44997 0.0
H1369 H 0.79301 0.63524 0.48667 0.0
H1370 H 0.7835 0.61498 0.44312 0.0
H1371 H 0.77983 0.61771 0.39495 0.0
H1372 H 0.8027 0.68959 0.35903 0.0
H1373 H 0.81787 0.71041 0.40179 0.0
C1374 C 0.81358 0.68751 0.44825 0.0
C1375 C 0.80822 0.67287 0.47117 0.0
C1376 C 0.80693 0.67598 0.42334 0.0
C1377 C 0.79749 0.64675 0.46908 0.0
C1378 C 0.79196 0.63522 0.44426 0.0
C1379 C 0.78844 0.63796 0.39651 0.0
C1380 C 0.79028 0.65218 0.374 0.0
C1381 C 0.79608 0.6496 0.4213 0.0
C1382 C 0.80106 0.67833 0.3762 0.0
C1383 C 0.80973 0.6902 0.40059 0.0
H1384 H 0.35268 0.13977 0.47014 0.0
H1385 H 0.27622 0.09222 0.44453 0.0
H1386 H 0.2895 0.10027 0.39832 0.0
H1387 H 0.32321 0.11904 0.36522 0.0
H1388 H 0.39916 0.16984 0.39023 0.0
H1389 H 0.38582 0.16273 0.43658 0.0
C1390 C 0.33902 0.13137 0.45435 0.0
C1391 C 0.31362 0.11523 0.46053 0.0
C1392 C 0.34669 0.13672 0.42779 0.0
C1393 C 0.2959 0.10469 0.44008 0.0
C1394 C 0.30347 0.10924 0.41371 0.0
C1395 C 0.33673 0.12877 0.38086 0.0
C1396 C 0.36209 0.14476 0.37447 0.0
C1397 C 0.32884 0.12498 0.40733 0.0
C1398 C 0.37947 0.15752 0.39477 0.0
C1399 C 0.3719 0.15332 0.42124 0.0
H1400 H 0.90214 0.23517 0.45667 0.0
H1401 H 0.83341 0.16464 0.46594 0.0
H1402 H 0.82067 0.16813 0.42082 0.0
H1403 H 0.83002 0.1911 0.37806 0.0
H1404 H 0.90141 0.25917 0.36847 0.0
H1405 H 0.91224 0.25673 0.41415 0.0
C1406 C 0.88421 0.22075 0.4489 0.0
C1407 C 0.86849 0.19995 0.46462 0.0
C1408 C 0.87767 0.22231 0.42272 0.0
C1409 C 0.84566 0.18097 0.45416 0.0
C1410 C 0.83846 0.18292 0.42838 0.0
C1411 C 0.84795 0.20528 0.38604 0.0
C1412 C 0.86491 0.22522 0.36985 0.0
C1413 C 0.85445 0.20343 0.41234 0.0
C1414 C 0.88813 0.24346 0.38038 0.0
C1415 C 0.89431 0.2422 0.40658 0.0
H1416 H 0.02189 0.54549 0.30093 0.0
H1417 H 0.94448 0.51452 0.27774 0.0
H1418 H 0.95654 0.51959 0.23113 0.0
H1419 H 0.98951 0.53548 0.19705 0.0
H1420 H 0.06648 0.56286 0.21984 0.0
H1421 H 0.05426 0.55625 0.26648 0.0
C1422 C 0.00774 0.53967 0.28558 0.0
C1423 C 0.98244 0.52993 0.29257 0.0
C1424 C 0.01473 0.542 0.25883 0.0
C1425 C 0.9641 0.52207 0.27269 0.0
C1426 C 0.97097 0.52504 0.24608 0.0
C1427 C 0.0035 0.53967 0.21227 0.0
C1428 C 0.02883 0.54983 0.20518 0.0
C1429 C 0.99627 0.53535 0.23893 0.0
C1430 C 0.04682 0.55493 0.22493 0.0
C1431 C 0.03988 0.55132 0.25157 0.0
H1432 H 0.47425 0.49333 0.21613 0.0
H1433 H 0.41207 0.41868 0.20171 0.0
H1434 H 0.41414 0.40678 0.24706 0.0
H1435 H 0.43283 0.41753 0.29118 0.0
H1436 H 0.49731 0.49045 0.30535 0.0
H1437 H 0.49499 0.50322 0.25993 0.0
C1438 C 0.46131 0.47442 0.22289 0.0
C1439 C 0.443 0.45699 0.20551 0.0
C1440 C 0.46278 0.46749 0.24906 0.0
C1441 C 0.42647 0.43248 0.21453 0.0
C1442 C 0.42748 0.42566 0.24057 0.0
C1443 C 0.44618 0.4363 0.28434 0.0
C1444 C 0.46486 0.45324 0.30154 0.0
C1445 C 0.44534 0.44306 0.25806 0.0
C1446 C 0.48258 0.47725 0.29238 0.0
C1447 C 0.48131 0.48448 0.26645 0.0
H1448 H 0.56228 0.97964 0.21138 0.0
H1449 H 0.4933 0.98123 0.20342 0.0
H1450 H 0.49785 0.99729 0.2488 0.0
H1451 H 0.52194 0.01097 0.29077 0.0
H1452 H 0.58857 0.00483 0.29915 0.0
H1453 H 0.58436 0.99018 0.2537 0.0
C1454 C 0.54836 0.9837 0.21957 0.0
C1455 C 0.52778 0.97981 0.20412 0.0
C1456 C 0.5506 0.99186 0.2458 0.0
C1457 C 0.50943 0.98439 0.21503 0.0
C1458 C 0.51202 0.99348 0.24091 0.0
C1459 C 0.53541 0.00629 0.2826 0.0
C1460 C 0.55557 0.00904 0.29825 0.0
C1461 C 0.53256 0.99729 0.25651 0.0
C1462 C 0.57279 0.00269 0.28758 0.0
C1463 C 0.5705 0.99446 0.26153 0.0
H1464 H 0.44294 0.94768 0.72083 0.0
H1465 H 0.47022 0.01994 0.68398 0.0
H1466 H 0.4811 0.04039 0.72741 0.0
H1467 H 0.47946 0.03712 0.77598 0.0
H1468 H 0.44649 0.96415 0.81263 0.0
H1469 H 0.44125 0.94439 0.76925 0.0
C1470 C 0.45169 0.96795 0.72237 0.0
C1471 C 0.4561 0.98241 0.69942 0.0
C1472 C 0.45661 0.97931 0.74737 0.0
C1473 C 0.46683 0.00855 0.70151 0.0
C1474 C 0.47295 0.02018 0.72628 0.0
C1475 C 0.47147 0.01693 0.77438 0.0
C1476 C 0.46351 0.00203 0.79728 0.0
C1477 C 0.46745 0.00568 0.74936 0.0
C1478 C 0.45272 0.97588 0.79514 0.0
C1479 C 0.44973 0.96464 0.7704 0.0
H1480 H 0.98395 0.45753 0.69943 0.0
H1481 H 0.06188 0.49387 0.72236 0.0
H1482 H 0.04989 0.48786 0.76902 0.0
H1483 H 0.01702 0.46975 0.80323 0.0
H1484 H 0.93927 0.43708 0.78069 0.0
H1485 H 0.95128 0.4444 0.734 0.0
C1486 C 0.99822 0.46431 0.71473 0.0
C1487 C 0.02369 0.47586 0.70764 0.0
C1488 C 0.99121 0.46142 0.74152 0.0
C1489 C 0.04214 0.48493 0.72748 0.0
C1490 C 0.0353 0.48142 0.75412 0.0
C1491 C 0.0028 0.46456 0.78805 0.0
C1492 C 0.97734 0.45272 0.79522 0.0
C1493 C 0.00989 0.46934 0.76136 0.0
C1494 C 0.95902 0.4463 0.77553 0.0
C1495 C 0.96586 0.45033 0.74887 0.0
H1496 H 0.57678 0.56359 0.78964 0.0
H1497 H 0.50576 0.4954 0.79883 0.0
H1498 H 0.49398 0.49954 0.75348 0.0
H1499 H 0.50428 0.52301 0.71115 0.0
H1500 H 0.5774 0.58899 0.70171 0.0
H1501 H 0.58814 0.58507 0.74701 0.0
C1502 C 0.55864 0.54979 0.78173 0.0
C1503 C 0.54191 0.52954 0.7975 0.0
C1504 C 0.55254 0.55175 0.75551 0.0
C1505 C 0.51877 0.5113 0.78696 0.0
C1506 C 0.5121 0.51363 0.76108 0.0
C1507 C 0.52258 0.53639 0.71902 0.0
C1508 C 0.53995 0.55629 0.70309 0.0
C1509 C 0.5289 0.5338 0.74512 0.0
C1510 C 0.56372 0.57338 0.71345 0.0
C1511 C 0.56986 0.57129 0.73945 0.0
H1512 H 0.42333 0.36746 0.10208 0.0
H1513 H 0.35679 0.37421 0.09679 0.0
H1514 H 0.33471 0.33409 0.07382 0.0
H1515 H 0.33387 0.29691 0.05605 0.0
H1516 H 0.40013 0.28968 0.06018 0.0
H1517 H 0.42291 0.33043 0.08246 0.0
C1518 C 0.40397 0.36005 0.09599 0.0
C1519 C 0.39164 0.37366 0.10129 0.0
C1520 C 0.39142 0.33706 0.08242 0.0
C1521 C 0.36668 0.36406 0.09296 0.0
C1522 C 0.35403 0.34114 0.0798 0.0
C1523 C 0.35335 0.30427 0.0617 0.0
C1524 C 0.36527 0.29028 0.0566 0.0
C1525 C 0.36619 0.32749 0.0745 0.0
C1526 C 0.39056 0.30017 0.06381 0.0
C1527 C 0.40354 0.32337 0.07669 0.0
H1528 H 0.70251 0.0384 0.06361 0.0
H1529 H 0.71057 0.11216 0.05835 0.0
H1530 H 0.66989 0.09668 0.08014 0.0
H1531 H 0.63193 0.06192 0.10092 0.0
H1532 H 0.62416 0.98815 0.10444 0.0
H1533 H 0.66487 0.00398 0.08329 0.0
C1534 C 0.69539 0.05112 0.06717 0.0
C1535 C 0.70956 0.07638 0.0594 0.0
C1536 C 0.67205 0.04211 0.07954 0.0
C1537 C 0.69997 0.09257 0.06405 0.0
C1538 C 0.67676 0.08376 0.0766 0.0
C1539 C 0.63928 0.04941 0.09717 0.0
C1540 C 0.62509 0.02394 0.1043 0.0
C1541 C 0.66265 0.05856 0.08453 0.0
C1542 C 0.63467 0.00784 0.09906 0.0
C1543 C 0.65796 0.01685 0.08697 0.0
H1544 H 0.95365 0.66209 0.08611 0.0
H1545 H 0.892 0.59381 0.05454 0.0
H1546 H 0.90956 0.56947 0.0741 0.0
H1547 H 0.94359 0.56796 0.09874 0.0
H1548 H 0.00596 0.63696 0.12798 0.0
H1549 H 0.98681 0.66061 0.11097 0.0
C1550 C 0.94393 0.64186 0.08356 0.0
C1551 C 0.92157 0.62982 0.06881 0.0
C1552 C 0.95427 0.6281 0.09451 0.0
C1553 C 0.90931 0.60359 0.0657 0.0
C1554 C 0.91932 0.58965 0.07692 0.0
C1555 C 0.95275 0.58811 0.10165 0.0
C1556 C 0.9761 0.60071 0.11464 0.0
C1557 C 0.94192 0.60174 0.0912 0.0
C1558 C 0.988 0.62687 0.11797 0.0
C1559 C 0.9771 0.64041 0.10824 0.0
H1560 H 0.28672 0.32835 0.43414 0.0
H1561 H 0.2856 0.39527 0.45778 0.0
H1562 H 0.3265 0.42135 0.43676 0.0
H1563 H 0.36278 0.42503 0.41172 0.0
H1564 H 0.36358 0.35761 0.38947 0.0
H1565 H 0.32248 0.33188 0.40966 0.0
C1566 C 0.29539 0.34865 0.43478 0.0
C1567 C 0.28311 0.35981 0.44755 0.0
C1568 C 0.31881 0.36346 0.42272 0.0
C1569 C 0.29469 0.38616 0.44818 0.0
C1570 C 0.31804 0.4011 0.43607 0.0
C1571 C 0.3538 0.40471 0.4111 0.0
C1572 C 0.36616 0.39325 0.39903 0.0
C1573 C 0.33026 0.38994 0.42321 0.0
C1574 C 0.35449 0.3669 0.39868 0.0
C1575 C 0.33099 0.35215 0.41025 0.0
H1576 H 0.66762 0.9569 0.44273 0.0
H1577 H 0.60449 0.88141 0.43919 0.0
H1578 H 0.57848 0.89723 0.41999 0.0
H1579 H 0.57406 0.93277 0.40361 0.0
H1580 H 0.63783 0.00799 0.40824 0.0
H1581 H 0.66313 0.99191 0.42756 0.0
C1582 C 0.64816 0.94385 0.43779 0.0
C1583 C 0.63803 0.91804 0.44229 0.0
C1584 C 0.63341 0.95302 0.42688 0.0
C1585 C 0.61273 0.90142 0.43596 0.0
C1586 C 0.59787 0.91043 0.42492 0.0
C1587 C 0.59349 0.94559 0.40883 0.0
C1588 C 0.60399 0.97152 0.40439 0.0
C1589 C 0.60807 0.93623 0.42017 0.0
C1590 C 0.62918 0.98793 0.41143 0.0
C1591 C 0.64374 0.97879 0.42249 0.0
H1592 H 0.0222 0.61737 0.42183 0.0
H1593 H 0.0428 0.65314 0.34529 0.0
H1594 H 0.06468 0.69435 0.36648 0.0
H1595 H 0.07516 0.72017 0.4065 0.0
H1596 H 0.05342 0.68433 0.48293 0.0
H1597 H 0.03491 0.64312 0.46191 0.0
C1598 C 0.03164 0.63414 0.40973 0.0
C1599 C 0.03063 0.63216 0.38198 0.0
C1600 C 0.04387 0.65776 0.42201 0.0
C1601 C 0.04314 0.65411 0.36667 0.0
C1602 C 0.05562 0.67769 0.37878 0.0
C1603 C 0.06657 0.70337 0.41862 0.0
C1604 C 0.06547 0.70535 0.44626 0.0
C1605 C 0.05567 0.67974 0.4064 0.0
C1606 C 0.05441 0.68337 0.46163 0.0
C1607 C 0.04378 0.65978 0.44962 0.0
H1608 H 0.62057 0.62452 0.90868 0.0
H1609 H 0.55447 0.62724 0.88511 0.0
H1610 H 0.57104 0.66831 0.90639 0.0
H1611 H 0.60496 0.70391 0.93106 0.0
H1612 H 0.6714 0.70097 0.95265 0.0
H1613 H 0.65389 0.65939 0.93296 0.0
C1614 C 0.6097 0.63402 0.90819 0.0
C1615 C 0.58632 0.62282 0.8953 0.0
C1616 C 0.61938 0.65758 0.92022 0.0
C1617 C 0.57258 0.63549 0.89481 0.0
C1618 C 0.58201 0.65894 0.90704 0.0
C1619 C 0.61543 0.694 0.93165 0.0
C1620 C 0.63939 0.70543 0.94334 0.0
C1621 C 0.60544 0.67021 0.91976 0.0
C1622 C 0.65294 0.69258 0.94369 0.0
C1623 C 0.64297 0.66882 0.93243 0.0
H1624 H 0.28391 0.8945 0.92465 0.0
H1625 H 0.29337 0.96474 0.95381 0.0
H1626 H 0.33592 0.98706 0.93614 0.0
H1627 H 0.36952 0.98707 0.91089 0.0
H1628 H 0.36037 0.91763 0.87958 0.0
H1629 H 0.31855 0.8945 0.89965 0.0
C1630 C 0.29544 0.91464 0.92736 0.0
C1631 C 0.28557 0.92798 0.94049 0.0
C1632 C 0.3198 0.92749 0.91662 0.0
C1633 C 0.30054 0.95409 0.94365 0.0
C1634 C 0.32486 0.96688 0.93355 0.0
C1635 C 0.35849 0.96685 0.90849 0.0
C1636 C 0.36803 0.95411 0.89368 0.0
C1637 C 0.33452 0.95383 0.91972 0.0
C1638 C 0.35341 0.92791 0.8908 0.0
C1639 C 0.32952 0.91468 0.90228 0.0
H1640 H 0.04812 0.33634 0.91514 0.0
H1641 H 0.10911 0.40188 0.9518 0.0
H1642 H 0.09484 0.42849 0.93102 0.0
H1643 H 0.06355 0.43276 0.90416 0.0
H1644 H 0.00166 0.36651 0.8697 0.0
H1645 H 0.01795 0.34063 0.8876 0.0
C1646 C 0.05839 0.35646 0.91854 0.0
C1647 C 0.07956 0.36706 0.93512 0.0
C1648 C 0.04995 0.37156 0.90682 0.0
C1649 C 0.09265 0.39319 0.93925 0.0
C1650 C 0.08453 0.40844 0.92733 0.0
C1651 C 0.05394 0.41273 0.90025 0.0
C1652 C 0.03152 0.40152 0.88561 0.0
C1653 C 0.06305 0.3978 0.91126 0.0
C1654 C 0.01895 0.37551 0.88099 0.0
C1655 C 0.0282 0.36069 0.89126 0.0
H1656 H 0.62936 0.57447 0.60009 0.0
H1657 H 0.62796 0.64405 0.60011 0.0
H1658 H 0.66973 0.66582 0.58049 0.0
H1659 H 0.70666 0.66537 0.56377 0.0
H1660 H 0.70848 0.59606 0.56261 0.0
H1661 H 0.66638 0.57386 0.58205 0.0
C1662 C 0.63826 0.59441 0.59588 0.0
C1663 C 0.62563 0.60764 0.60167 0.0
C1664 C 0.66225 0.60683 0.58429 0.0
C1665 C 0.63727 0.63341 0.59584 0.0
C1666 C 0.66116 0.6459 0.58462 0.0
C1667 C 0.69787 0.64538 0.56769 0.0
C1668 C 0.71071 0.63241 0.56184 0.0
C1669 C 0.6738 0.63281 0.5788 0.0
C1670 C 0.69896 0.60648 0.56688 0.0
C1671 C 0.67494 0.5938 0.57809 0.0
H1672 H 0.37001 0.99687 0.60244 0.0
H1673 H 0.44631 0.05816 0.5963 0.0
H1674 H 0.43143 0.08444 0.57594 0.0
H1675 H 0.39655 0.08981 0.55938 0.0
H1676 H 0.32037 0.02836 0.56692 0.0
H1677 H 0.33545 0.00245 0.58712 0.0
C1678 C 0.38342 0.01599 0.59669 0.0
C1679 C 0.40923 0.02548 0.60084 0.0
C1680 C 0.37476 0.031 0.58514 0.0
C1681 C 0.42631 0.05037 0.5934 0.0
C1682 C 0.41783 0.0654 0.58168 0.0
C1683 C 0.38329 0.07073 0.56539 0.0
C1684 C 0.35738 0.06107 0.56153 0.0
C1685 C 0.39207 0.05588 0.57734 0.0
C1686 C 0.34042 0.03636 0.56967 0.0
C1687 C 0.34901 0.02146 0.58122 0.0
H1688 H 0.98763 0.38874 0.57761 0.0
H1689 H 0.96329 0.35257 0.65362 0.0
H1690 H 0.94039 0.31164 0.63196 0.0
H1691 H 0.92925 0.28602 0.59167 0.0
H1692 H 0.95463 0.32224 0.51581 0.0
H1693 H 0.97501 0.36332 0.53727 0.0
C1694 C 0.9772 0.37195 0.58949 0.0
C1695 C 0.97734 0.37376 0.61725 0.0
C1696 C 0.96431 0.34848 0.57694 0.0
C1697 C 0.96361 0.35176 0.63225 0.0
C1698 C 0.95053 0.32833 0.61988 0.0
C1699 C 0.93905 0.30289 0.57977 0.0
C1700 C 0.94051 0.301 0.55215 0.0
C1701 C 0.95104 0.32644 0.59226 0.0
C1702 C 0.95329 0.3231 0.53709 0.0
C1703 C 0.96499 0.34661 0.54936 0.0
H1704 H 0.955 0.72388 0.76759 0.0
H1705 H 0.95928 0.65746 0.78575 0.0
H1706 H 0.00052 0.67595 0.76515 0.0
H1707 H 0.03478 0.71016 0.74109 0.0
H1708 H 0.03104 0.77658 0.72158 0.0
H1709 H 0.99014 0.75886 0.74351 0.0
C1710 C 0.96509 0.7136 0.76723 0.0
C1711 C 0.95407 0.68933 0.7782 0.0
C1712 C 0.98878 0.72421 0.75494 0.0
C1713 C 0.96727 0.67612 0.77737 0.0
C1714 C 0.99087 0.68666 0.76557 0.0
C1715 C 0.02508 0.72084 0.74158 0.0
C1716 C 0.03595 0.74464 0.72962 0.0
C1717 C 0.00167 0.71055 0.7541 0.0
C1718 C 0.02306 0.75816 0.73054 0.0
C1719 C -0.0003 0.74806 0.74313 0.0
H1720 H 0.33285 0.2797 0.73672 0.0
H1721 H 0.2964 0.27668 0.81073 0.0
H1722 H 0.27468 0.29633 0.78993 0.0
H1723 H 0.26735 0.31582 0.75134 0.0
H1724 H 0.30436 0.31963 0.6775 0.0
H1725 H 0.32444 0.29802 0.69768 0.0
C1726 C 0.32011 0.28326 0.74831 0.0
C1727 C 0.31639 0.27686 0.7753 0.0
C1728 C 0.3078 0.29471 0.73629 0.0
C1729 C 0.29968 0.28149 0.78996 0.0
C1730 C 0.28726 0.29274 0.77808 0.0
C1731 C 0.27969 0.31182 0.73957 0.0
C1732 C 0.28443 0.31946 0.71296 0.0
C1733 C 0.29137 0.29964 0.75135 0.0
C1734 C 0.30044 0.31405 0.69803 0.0
C1735 C 0.31196 0.30172 0.70957 0.0
H1736 H 0.76177 0.04689 0.75811 0.0
H1737 H 0.6901 0.04125 0.77435 0.0
H1738 H 0.66832 0.99884 0.75657 0.0
H1739 H 0.66936 0.96381 0.73605 0.0
H1740 H 0.74032 0.96849 0.71839 0.0
H1741 H 0.7627 0.01099 0.73699 0.0
C1742 C 0.7414 0.03626 0.75788 0.0
C1743 C 0.72756 0.04715 0.76753 0.0
C1744 C 0.7289 0.01187 0.74726 0.0
C1745 C 0.70118 0.03332 0.76692 0.0
C1746 C 0.68869 0.00906 0.75678 0.0
C1747 C 0.68974 0.97403 0.73623 0.0
C1748 C 0.70316 0.963 0.72587 0.0
C1749 C 0.70235 0.99825 0.74679 0.0
C1750 C 0.72955 0.97661 0.7262 0.0
C1751 C 0.74234 0.00086 0.73688 0.0
H1752 H 0.28251 0.0459 0.26212 0.0
H1753 H 0.34067 0.03638 0.29859 0.0
H1754 H 0.32318 0.99467 0.27904 0.0
H1755 H 0.29315 0.96217 0.24968 0.0
H1756 H 0.23595 0.97186 0.211 0.0
H1757 H 0.25134 0.01232 0.23322 0.0
C1758 C 0.29102 0.03444 0.2661 0.0
C1759 C 0.31273 0.04403 0.28181 0.0
C1760 C 0.28129 0.01074 0.25413 0.0
C1761 C 0.32392 0.0293 0.28651 0.0
C1762 C 0.314 0.00552 0.27529 0.0
C1763 C 0.28395 0.97305 0.24611 0.0
C1764 C 0.26352 0.96406 0.22859 0.0
C1765 C 0.293 0.99627 0.25869 0.0
C1766 C 0.25183 0.97843 0.22428 0.0
C1767 C 0.26057 0.00153 0.23703 0.0
H1768 H 0.03377 0.33349 0.23084 0.0
H1769 H 0.03714 0.26537 0.22221 0.0
H1770 H 0.99547 0.24123 0.2424 0.0
H1771 H 0.95815 0.23977 0.26287 0.0
H1772 H 0.95541 0.30839 0.27001 0.0
H1773 H 0.99693 0.33207 0.25022 0.0
C1774 C 0.02543 0.31335 0.23331 0.0
C1775 C 0.03855 0.30126 0.22509 0.0
C1776 C 0.00164 0.2997 0.24482 0.0
C1777 C 0.02737 0.27512 0.2283 0.0
C1778 C 0.00361 0.26133 0.23994 0.0
C1779 C 0.96677 0.25992 0.26022 0.0
C1780 C 0.95379 0.27232 0.26796 0.0
C1781 C 0.99061 0.27346 0.2484 0.0
C1782 C 0.96499 0.29838 0.26414 0.0
C1783 C 0.98873 0.31196 0.25283 0.0
H1784 H 0.76046 0.72627 0.27925 0.0
H1785 H 0.69421 0.65276 0.27487 0.0
H1786 H 0.67125 0.67055 0.25329 0.0
H1787 H 0.66977 0.70659 0.23561 0.0
H1788 H 0.73572 0.78032 0.23874 0.0
H1789 H 0.75905 0.76277 0.26065 0.0
C1790 C 0.74096 0.71422 0.27369 0.0
C1791 C 0.72905 0.68826 0.27875 0.0
C1792 C 0.72786 0.72453 0.26091 0.0
C1793 C 0.70386 0.67281 0.27118 0.0
C1794 C 0.69068 0.68294 0.25882 0.0
C1795 C 0.68927 0.71889 0.24101 0.0
C1796 C 0.70096 0.74473 0.23557 0.0
C1797 C 0.7025 0.70872 0.25353 0.0
C1798 C 0.72628 0.76032 0.24262 0.0
C1799 C 0.73961 0.75032 0.25525 0.0
H1800 H 0.29236 0.15132 0.14257 0.0
H1801 H 0.36452 0.20546 0.11085 0.0
H1802 H 0.38523 0.20334 0.15124 0.0
H1803 H 0.38283 0.18576 0.19563 0.0
H1804 H 0.3107 0.1316 0.2274 0.0
H1805 H 0.28995 0.13385 0.18709 0.0
C1806 C 0.31262 0.16245 0.14452 0.0
C1807 C 0.32693 0.17852 0.1239 0.0
C1808 C 0.32438 0.16115 0.16784 0.0
C1809 C 0.35314 0.1931 0.12664 0.0
C1810 C 0.36498 0.19186 0.14968 0.0
C1811 C 0.36257 0.17468 0.19375 0.0
C1812 C 0.34829 0.15851 0.21432 0.0
C1813 C 0.3508 0.17603 0.17047 0.0
C1814 C 0.32207 0.144 0.21163 0.0
C1815 C 0.3102 0.14531 0.18863 0.0
H1816 H 0.81193 0.11809 0.14805 0.0
H1817 H 0.84312 0.18343 0.09788 0.0
H1818 H 0.8495 0.2103 0.13626 0.0
H1819 H 0.84578 0.21509 0.18416 0.0
H1820 H 0.81528 0.14994 0.23455 0.0
H1821 H 0.80842 0.12294 0.19612 0.0
C1822 C 0.82007 0.13822 0.14565 0.0
C1823 C 0.82709 0.14887 0.12033 0.0
C1824 C 0.82351 0.15346 0.16779 0.0
C1825 C 0.83778 0.17494 0.1173 0.0
C1826 C 0.84129 0.19024 0.13918 0.0
C1827 C 0.83761 0.19496 0.18661 0.0
C1828 C 0.83084 0.1844 0.21198 0.0
C1829 C 0.83416 0.17971 0.1645 0.0
C1830 C 0.82027 0.15835 0.21508 0.0
C1831 C 0.81654 0.14298 0.19316 0.0
H1832 H 0.78007 0.64087 0.19188 0.0
H1833 H 0.84547 0.65699 0.23786 0.0
H1834 H 0.8724 0.67636 0.1993 0.0
H1835 H 0.87726 0.68868 0.15246 0.0
H1836 H 0.81207 0.67295 0.10638 0.0
H1837 H 0.78512 0.65433 0.14521 0.0
C1838 C 0.80025 0.64875 0.19338 0.0
C1839 C 0.81085 0.64746 0.21752 0.0
C1840 C 0.81559 0.66023 0.17126 0.0
C1841 C 0.83693 0.65751 0.21932 0.0
C1842 C 0.85231 0.66876 0.19738 0.0
C1843 C 0.85714 0.68122 0.15105 0.0
C1844 C 0.84654 0.682 0.12673 0.0
C1845 C 0.84185 0.67023 0.17327 0.0
C1846 C 0.82056 0.67261 0.12502 0.0
C1847 C 0.80518 0.6618 0.14712 0.0
H1848 H 0.14827 0.28575 0.35945 0.0
H1849 H 0.18806 0.35652 0.40031 0.0
H1850 H 0.18637 0.37871 0.36084 0.0
H1851 H 0.17365 0.37789 0.31438 0.0
H1852 H 0.13417 0.30709 0.27351 0.0
H1853 H 0.13573 0.28494 0.31302 0.0
C1854 C 0.15624 0.30598 0.35968 0.0
C1855 C 0.16806 0.31956 0.38261 0.0
C1856 C 0.15552 0.31859 0.33681 0.0
C1857 C 0.17876 0.34579 0.38275 0.0
C1858 C 0.1779 0.35845 0.36021 0.0
C1859 C 0.16574 0.35767 0.31416 0.0
C1860 C 0.15402 0.34407 0.2912 0.0
C1861 C 0.1665 0.34508 0.33704 0.0
C1862 C 0.14339 0.31785 0.29108 0.0
C1863 C 0.14418 0.3052 0.31364 0.0
H1864 H 0.65496 0.84423 0.38476 0.0
H1865 H 0.73158 0.86412 0.36853 0.0
H1866 H 0.71897 0.8433 0.32543 0.0
H1867 H 0.6862 0.82026 0.29206 0.0
H1868 H 0.60972 0.80093 0.30813 0.0
H1869 H 0.62229 0.82148 0.35134 0.0
C1870 C 0.66889 0.84413 0.37167 0.0
C1871 C 0.69413 0.85563 0.3797 0.0
C1872 C 0.66156 0.8325 0.34687 0.0
C1873 C 0.71199 0.85511 0.36281 0.0
C1874 C 0.70482 0.84338 0.33815 0.0
C1875 C 0.6723 0.82042 0.30515 0.0
C1876 C 0.64708 0.80909 0.29708 0.0
C1877 C 0.67967 0.83209 0.32995 0.0
C1878 C 0.62928 0.80976 0.31392 0.0
C1879 C 0.63643 0.82134 0.33864 0.0
H1880 H 0.12055 0.81124 0.35162 0.0
H1881 H 0.18515 0.86379 0.39659 0.0
H1882 H 0.21194 0.87284 0.35753 0.0
H1883 H 0.21697 0.86494 0.31084 0.0
H1884 H 0.15226 0.8128 0.26568 0.0
H1885 H 0.12552 0.80366 0.30477 0.0
C1886 C 0.14049 0.82476 0.3527 0.0
C1887 C 0.15095 0.83707 0.37669 0.0
C1888 C 0.15571 0.82955 0.33032 0.0
C1889 C 0.17673 0.85448 0.37811 0.0
C1890 C 0.19203 0.85944 0.3559 0.0
C1891 C 0.19697 0.85169 0.30961 0.0
C1892 C 0.18649 0.83961 0.28552 0.0
C1893 C 0.18174 0.84698 0.33196 0.0
C1894 C 0.16069 0.82216 0.28414 0.0
C1895 C 0.14542 0.81711 0.30638 0.0
H1896 H 0.62464 0.82539 0.8148 0.0
H1897 H 0.6959 0.86344 0.77461 0.0
H1898 H 0.71715 0.85995 0.81395 0.0
H1899 H 0.71538 0.84604 0.8601 0.0
H1900 H 0.64415 0.80834 0.90038 0.0
H1901 H 0.62293 0.81182 0.86103 0.0
C1902 C 0.64476 0.83264 0.81472 0.0
C1903 C 0.65875 0.84453 0.79201 0.0
C1904 C 0.65686 0.83089 0.83754 0.0
C1905 C 0.68484 0.85418 0.79201 0.0
C1906 C 0.69698 0.85227 0.81448 0.0
C1907 C 0.6953 0.83898 0.86025 0.0
C1908 C 0.6813 0.82719 0.883 0.0
C1909 C 0.68322 0.84083 0.83745 0.0
C1910 C 0.65522 0.81762 0.88299 0.0
C1911 C 0.64309 0.81949 0.86051 0.0
H1912 H 0.1601 0.8233 0.88687 0.0
H1913 H 0.17841 0.89385 0.85073 0.0
H1914 H 0.17503 0.87577 0.80669 0.0
H1915 H 0.16628 0.83953 0.77853 0.0
H1916 H 0.14737 0.76879 0.81451 0.0
H1917 H 0.15181 0.78712 0.85866 0.0
C1918 C 0.16312 0.83451 0.86925 0.0
C1919 C 0.16925 0.85967 0.87171 0.0
C1920 C 0.16134 0.82402 0.84413 0.0
C1921 C 0.1735 0.87434 0.84901 0.0
C1922 C 0.17168 0.86406 0.82395 0.0
C1923 C 0.16354 0.82839 0.79615 0.0
C1924 C 0.15693 0.80312 0.79366 0.0
C1925 C 0.16567 0.83895 0.82127 0.0
C1926 C 0.15287 0.78845 0.8163 0.0
C1927 C 0.15521 0.79886 0.84141 0.0
H1928 H 0.21467 0.34825 0.81005 0.0
H1929 H 0.14758 0.33342 0.76815 0.0
H1930 H 0.12255 0.31558 0.80826 0.0
H1931 H 0.12004 0.30514 0.85542 0.0
H1932 H 0.18728 0.32164 0.89802 0.0
H1933 H 0.21198 0.33705 0.85727 0.0
C1934 C 0.19454 0.34095 0.80978 0.0
C1935 C 0.18288 0.34216 0.78639 0.0
C1936 C 0.18037 0.33083 0.8329 0.0
C1937 C 0.15688 0.33286 0.78611 0.0
C1938 C 0.1426 0.32256 0.80894 0.0
C1939 C 0.14012 0.31216 0.8557 0.0
C1940 C 0.15196 0.31257 0.87959 0.0
C1941 C 0.15418 0.32161 0.83246 0.0
C1942 C 0.17783 0.32115 0.87976 0.0
C1943 C 0.19194 0.33012 0.85656 0.0
H1944 H 0.82405 0.66172 0.72724 0.0
H1945 H 0.84407 0.61018 0.69249 0.0
H1946 H 0.84139 0.62473 0.6481 0.0
H1947 H 0.83428 0.65303 0.61931 0.0
H1948 H 0.81447 0.70473 0.65409 0.0
H1949 H 0.81632 0.68958 0.69841 0.0
C1950 C 0.82743 0.65352 0.70982 0.0
C1951 C 0.8339 0.63479 0.71276 0.0
C1952 C 0.82625 0.6623 0.68453 0.0
C1953 C 0.83873 0.62444 0.69037 0.0
C1954 C 0.83738 0.63287 0.66511 0.0
C1955 C 0.83059 0.66101 0.63671 0.0
C1956 C 0.82453 0.68004 0.63379 0.0
C1957 C 0.83142 0.65198 0.66197 0.0
C1958 C 0.8194 0.69017 0.65618 0.0
C1959 C 0.82033 0.68144 0.6814 0.0
H1960 H 0.35426 0.21094 0.68672 0.0
H1961 H 0.33705 0.1452 0.73266 0.0
H1962 H 0.31932 0.11869 0.6935 0.0
H1963 H 0.30845 0.11424 0.64606 0.0
H1964 H 0.32343 0.17967 0.60085 0.0
H1965 H 0.3416 0.20627 0.63995 0.0
C1966 C 0.34645 0.19078 0.68815 0.0
C1967 C 0.34719 0.18005 0.71244 0.0
C1968 C 0.33566 0.17563 0.66575 0.0
C1969 C 0.33716 0.15394 0.71404 0.0
C1970 C 0.32682 0.13877 0.69172 0.0
C1971 C 0.31567 0.13433 0.64491 0.0
C1972 C 0.31478 0.14511 0.62075 0.0
C1973 C 0.32597 0.1494 0.66747 0.0
C1974 C 0.3239 0.17105 0.61936 0.0
C1975 C 0.33438 0.18623 0.64164 0.0
H1976 H 0.83918 0.19655 0.62072 0.0
H1977 H 0.86518 0.14472 0.63838 0.0
H1978 H 0.84406 0.13555 0.68137 0.0
H1979 H 0.81861 0.14284 0.71427 0.0
H1980 H 0.79559 0.19717 0.69781 0.0
H1981 H 0.8158 0.20549 0.65435 0.0
C1982 C 0.84042 0.18343 0.63411 0.0
C1983 C 0.85354 0.17117 0.62631 0.0
C1984 C 0.829 0.17895 0.6591 0.0
C1985 C 0.85477 0.15402 0.64372 0.0
C1986 C 0.8429 0.14895 0.66839 0.0
C1987 C 0.81814 0.15653 0.70111 0.0
C1988 C 0.80569 0.1694 0.70906 0.0
C1989 C 0.83001 0.16136 0.67631 0.0
C1990 C 0.80527 0.18723 0.69208 0.0
C1991 C 0.81668 0.19186 0.66722 0.0
H1992 H 0.01576 0.47137 0.52474 0.0
H1993 H 0.01447 0.53323 0.56338 0.0
H1994 H 0.99909 0.54262 0.52277 0.0
H1995 H 0.9858 0.53301 0.47627 0.0
H1996 H 0.98623 0.47062 0.43791 0.0
H1997 H 0.00141 0.46107 0.47861 0.0
C1998 C 0.01188 0.48675 0.52428 0.0
C1999 C 0.01629 0.50166 0.54692 0.0
C2000 C 0.00269 0.49176 0.50101 0.0
C2001 C 0.01151 0.52173 0.54605 0.0
C2002 C 0.00257 0.52698 0.52292 0.0
C2003 C 0.98931 0.51738 0.47689 0.0
C2004 C 0.98505 0.50257 0.45422 0.0
C2005 C 0.99812 0.51213 0.50028 0.0
C2006 C 0.98926 0.48215 0.45524 0.0
C2007 C 0.99806 0.4768 0.47843 0.0
H2008 H 0.48924 0.49221 0.55737 0.0
H2009 H 0.51772 0.56408 0.51936 0.0
H2010 H 0.51257 0.54445 0.47593 0.0
H2011 H 0.50052 0.50675 0.4488 0.0
H2012 H 0.47138 0.43475 0.48661 0.0
H2013 H 0.47627 0.4543 0.53012 0.0
C2014 C 0.49402 0.50341 0.53948 0.0
C2015 C 0.50384 0.52945 0.54133 0.0
C2016 C 0.49111 0.49198 0.51466 0.0
C2017 C 0.51018 0.54396 0.51821 0.0
C2018 C 0.5073 0.53278 0.49346 0.0
C2019 C 0.49542 0.4955 0.46667 0.0
C2020 C 0.48579 0.46951 0.46481 0.0
C2021 C 0.498 0.50684 0.49145 0.0
C2022 C 0.47894 0.45487 0.48784 0.0
C2023 C 0.48165 0.46601 0.51261 0.0
H2024 H 0.50709 0.97454 0.45254 0.0
H2025 H 0.5276 0.05151 0.46746 0.0
H2026 H 0.50553 0.03943 0.5099 0.0
H2027 H 0.48178 0.00714 0.54347 0.0
H2028 H 0.46173 0.93024 0.52886 0.0
H2029 H 0.48289 0.94215 0.48591 0.0
C2030 C 0.50672 0.98862 0.46516 0.0
C2031 C 0.51887 0.01385 0.45697 0.0
C2032 C 0.49439 0.98158 0.48967 0.0
C2033 C 0.51809 0.03193 0.47327 0.0
C2034 C 0.50567 0.02506 0.49759 0.0
C2035 C 0.48186 0.99299 0.53073 0.0
C2036 C 0.47024 0.96787 0.53922 0.0
C2037 C 0.49391 -3e-05 0.50607 0.0
C2038 C 0.4708 0.94974 0.5228 0.0
C2039 C 0.48275 0.95652 0.49821 0.0
H2040 H 0.52622 0.97738 0.02089 0.0
H2041 H 0.46833 0.98194 0.06443 0.0
H2042 H 0.45845 0.99907 0.02551 0.0
H2043 H 0.46665 0.01315 0.97915 0.0
H2044 H 0.52459 0.00871 0.93561 0.0
H2045 H 0.53485 0.99208 0.97471 0.0
C2046 C 0.51153 0.98227 0.02181 0.0
C2047 C 0.49798 0.97842 0.0454 0.0
C2048 C 0.50628 0.99247 0.99951 0.0
C2049 C 0.4788 0.9845 0.04636 0.0
C2050 C 0.47331 0.99448 0.02421 0.0
C2051 C 0.48152 0.00852 0.97832 0.0
C2052 C 0.49484 0.01205 0.95463 0.0
C2053 C 0.48698 0.9986 1.00071 0.0
C2054 C 0.51426 0.00632 0.95375 0.0
C2055 C 0.51996 0.99662 0.976 0.0
H2056 H 0.95894 0.47057 0.97513 0.0
H2057 H 0.03135 0.49607 0.93935 0.0
H2058 H 0.05224 0.52072 0.97881 0.0
H2059 H 0.04984 0.53497 0.02374 0.0
H2060 H 0.97741 0.50906 0.05969 0.0
H2061 H 0.95654 0.48486 0.02 0.0
C2062 C 0.97927 0.48174 0.97598 0.0
C2063 C 0.99364 0.48154 0.95453 0.0
C2064 C 0.99111 0.49572 0.99879 0.0
C2065 C 0.01997 0.49582 0.95582 0.0
C2066 C 0.03189 0.50993 0.97833 0.0
C2067 C 0.02951 0.5238 0.02287 0.0
C2068 C 0.01514 0.52365 0.04451 0.0
C2069 C 0.01767 0.5099 1.00001 0.0
C2070 C 0.98881 0.50948 0.04313 0.0
C2071 C 0.97688 0.49563 0.0205 0.0
H2072 H 0.4491 0.47499 0.02162 0.0
H2073 H 0.51507 0.52108 0.06833 0.0
H2074 H 0.54172 0.52916 0.02941 0.0
H2075 H 0.54627 0.52244 0.98211 0.0
H2076 H 0.48052 0.47469 0.93594 0.0
H2077 H 0.45376 0.46698 0.97479 0.0
C2078 C 0.46934 0.4866 0.02328 0.0
C2079 C 0.48013 0.49737 0.0478 0.0
C2080 C 0.48455 0.49051 1.00101 0.0
C2081 C 0.50632 0.5128 0.04961 0.0
C2082 C 0.52156 0.51722 0.02743 0.0
C2083 C 0.52607 0.51028 0.98071 0.0
C2084 C 0.51526 0.49918 0.95633 0.0
C2085 C 0.5109 0.50606 0.00307 0.0
C2086 C 0.48917 0.48329 0.95461 0.0
C2087 C 0.4739 0.47905 0.97674 0.0
H2088 H 0.19072 0.04309 0.01382 0.0
H2089 H 0.26977 0.068 0.01969 0.0
H2090 H 0.26236 0.02778 0.00244 0.0
H2091 H 0.23367 0.98577 0.98622 0.0
H2092 H 0.15408 0.95912 0.98217 0.0
H2093 H 0.16141 -0.0001 0.99816 0.0
C2094 C 0.20624 0.0396 0.01127 0.0
C2095 C 0.23084 0.05862 0.0172 0.0
C2096 C 0.20176 0.01626 0.00165 0.0
C2097 C 0.25081 0.05389 0.01431 0.0
C2098 C 0.24656 0.03087 0.00466 0.0
C2099 C 0.21787 0.98885 0.98855 0.0
C2100 C 0.19337 0.96947 0.98279 0.0
C2101 C 0.22216 0.01201 0.99814 0.0
C2102 C 0.17313 0.97376 0.98637 0.0
C2103 C 0.17731 0.99704 0.99557 0.0
H2104 H 0.95374 0.14974 0.99728 0.0
H2105 H 0.92857 0.20285 0.0113 0.0
H2106 H 0.9685 0.23698 0.99493 0.0
H2107 H 0.01135 0.25204 0.97895 0.0
H2108 H 0.03797 0.19957 0.96849 0.0
H2109 H 0.9967 0.16484 0.98102 0.0
C2110 C 0.95702 0.16879 0.99657 0.0
C2111 C 0.93801 0.17369 0.00464 0.0
C2112 C 0.98027 0.1884 0.98781 0.0
C2113 C 0.94255 0.19847 0.00413 0.0
C2114 C 0.96548 0.21803 0.99505 0.0
C2115 C 0.00799 0.23296 0.97898 0.0
C2116 C 0.02762 0.22835 0.97266 0.0
C2117 C 0.9845 0.21323 0.98696 0.0
C2118 C 0.02313 0.20357 0.97325 0.0
C2119 C -0.00042 0.18373 0.98049 0.0
H2120 H 0.79257 0.82346 0.00801 0.0
H2121 H 0.7554 0.76205 0.953 0.0
H2122 H 0.78621 0.74893 0.96205 0.0
H2123 H 0.82327 0.75454 0.98608 0.0
H2124 H 0.85842 0.8139 0.04385 0.0
H2125 H 0.82921 0.82841 0.03284 0.0
C2126 C 0.79143 0.80739 0.99781 0.0
C2127 C 0.77185 0.79384 0.97977 0.0
C2128 C 0.80876 0.79946 0.00371 0.0
C2129 C 0.77033 0.7728 0.96699 0.0
C2130 C 0.78791 0.76525 0.97219 0.0
C2131 C 0.82423 0.77017 0.99686 0.0
C2132 C 0.8428 0.78262 0.01628 0.0
C2133 C 0.80702 0.77823 0.99079 0.0
C2134 C 0.84429 0.80376 0.02891 0.0
C2135 C 0.82755 0.81213 0.02266 0.0
H2136 H 0.96234 0.17318 0.51411 0.0
H2137 H 0.98386 0.25163 0.51808 0.0
H2138 H 0.02597 0.26352 0.50306 0.0
H2139 H 0.0561 0.2518 0.48682 0.0
H2140 H 0.03596 0.17375 0.485 0.0
H2141 H 0.9937 0.16161 0.50023 0.0
C2142 C 0.97628 0.19288 0.51187 0.0
C2143 C 0.96979 0.21141 0.51723 0.0
C2144 C 0.00068 0.19972 0.50329 0.0
C2145 C 0.98821 0.23688 0.51423 0.0
C2146 C 0.01235 0.24376 0.50551 0.0
C2147 C 0.04292 0.23221 0.49055 0.0
C2148 C 0.04965 0.21385 0.48538 0.0
C2149 C 0.01877 0.22535 0.49983 0.0
C2150 C 0.03146 0.18838 0.48892 0.0
C2151 C 0.00726 0.18138 0.49775 0.0
H2152 H 0.76511 0.74622 0.51709 0.0
H2153 H 0.84434 0.79608 0.53048 0.0
H2154 H 0.83975 0.83211 0.51862 0.0
H2155 H 0.81326 0.84941 0.50379 0.0
H2156 H 0.73466 0.79912 0.48816 0.0
H2157 H 0.73892 0.7633 0.50172 0.0
C2158 C 0.78136 0.76497 0.51762 0.0
C2159 C 0.805 0.76843 0.52476 0.0
C2160 C 0.77868 0.78554 0.51045 0.0
C2161 C 0.82591 0.79286 0.52504 0.0
C2162 C 0.82332 0.81349 0.51825 0.0
C2163 C 0.79709 0.83059 0.50348 0.0
C2164 C 0.77352 0.82694 0.49589 0.0
C2165 C 0.79981 0.81004 0.5108 0.0
C2166 C 0.75278 0.80248 0.49503 0.0
C2167 C 0.75526 0.78197 0.50248 0.0
H2168 H 0.19756 0.02738 0.51978 0.0
H2169 H 0.25541 0.00714 0.52513 0.0
H2170 H 0.22553 0.96441 0.5117 0.0
H2171 H 0.18395 0.93358 0.4953 0.0
H2172 H 0.12535 0.95261 0.49123 0.0
H2173 H 0.15476 0.99523 0.50651 0.0
C2174 C 0.20357 0.01357 0.51831 0.0
C2175 C 0.2288 0.02063 0.52334 0.0
C2176 C 0.18625 0.98887 0.51047 0.0
C2177 C 0.23618 0.00238 0.52134 0.0
C2178 C 0.21912 0.97788 0.51355 0.0
C2179 C 0.17733 0.94672 0.49865 0.0
C2180 C 0.15231 0.9397 0.49289 0.0
C2181 C 0.19422 0.97101 0.50772 0.0
C2182 C 0.14449 0.95751 0.49582 0.0
C2183 C 0.16127 0.98185 0.5046 0.0
H2184 H 0.76555 0.00779 0.03619 0.0
H2185 H 0.83634 0.04597 0.99465 0.0
H2186 H 0.83087 0.00572 0.98001 0.0
H2187 H 0.80558 0.95984 0.97789 0.0
H2188 H 0.73669 0.92155 0.02277 0.0
H2189 H 0.74161 0.96153 0.03653 0.0
C2190 C 0.77984 0.00732 0.02402 0.0
C2191 C 0.80127 0.02996 0.01647 0.0
C2192 C 0.77672 0.98404 0.0158 0.0
C2193 C 0.81969 0.02891 1.00087 0.0
C2194 C 0.81653 0.00587 0.99236 0.0
C2195 C 0.79155 0.96011 0.99067 0.0
C2196 C 0.77018 0.93733 0.99816 0.0
C2197 C 0.79502 0.98333 0.99952 0.0
C2198 C 0.75259 0.93837 0.01521 0.0
C2199 C 0.75564 0.96143 0.02361 0.0
H2200 H 0.96523 0.79295 0.01813 0.0
H2201 H 0.99053 0.74318 0.04705 0.0
H2202 H 0.03311 0.77254 0.03244 0.0
H2203 H 0.06221 0.81021 0.00768 0.0
H2204 H 0.03747 0.86042 0.97918 0.0
H2205 H 0.99543 0.83263 0.99681 0.0
C2206 C 0.98011 0.78867 0.02162 0.0
C2207 C 0.97454 0.76574 0.03349 0.0
C2208 C 0.00459 0.80552 0.01288 0.0
C2209 C 0.99415 0.76059 0.03786 0.0
C2210 C 0.01855 0.77733 0.02941 0.0
C2211 C 0.04792 0.81556 0.0061 0.0
C2212 C 0.05313 0.83764 0.99262 0.0
C2213 C 0.02386 0.79958 0.01639 0.0
C2214 C 0.03395 0.84357 0.9896 0.0
C2215 C 0.00993 0.82773 0.99972 0.0
H2216 H 0.24333 0.23372 0.04095 0.0
H2217 H 0.20582 0.15987 0.00566 0.0
H2218 H 0.17127 0.16608 0.99174 0.0
H2219 H 0.15283 0.19316 0.98767 0.0
H2220 H 0.18879 0.26567 0.02603 0.0
H2221 H 0.22301 0.25946 0.04 0.0
C2222 C 0.22752 0.2189 0.03036 0.0
C2223 C 0.22729 0.19643 0.0242 0.0
C2224 C 0.20767 0.22254 0.02246 0.0
C2225 C 0.20651 0.17733 0.01072 0.0
C2226 C 0.18679 0.18092 0.00261 0.0
C2227 C 0.16809 0.20769 0.99912 0.0
C2228 C 0.16849 0.23038 0.00463 0.0
C2229 C 0.18737 0.20359 0.00805 0.0
C2230 C 0.18832 0.24863 0.01998 0.0
C2231 C 0.20784 0.24489 0.02851 0.0
H2232 H 0.9376 0.74044 0.5041 0.0
H2233 H 0.95651 0.81581 0.52545 0.0
H2234 H 0.99877 0.83205 0.50748 0.0
H2235 H 0.0308 0.82455 0.48752 0.0
H2236 H 0.01179 0.74897 0.46635 0.0
H2237 H 0.96885 0.73324 0.4816 0.0
C2238 C 0.95074 0.76049 0.50415 0.0
C2239 C 0.94382 0.77697 0.5156 0.0
C2240 C 0.97498 0.76966 0.49379 0.0
C2241 C 0.96141 0.80278 0.51659 0.0
C2242 C 0.98553 0.81208 0.50627 0.0
C2243 C 0.01721 0.80468 0.4859 0.0
C2244 C 0.02462 0.78799 0.4759 0.0
C2245 C 0.9926 0.79566 0.49505 0.0
C2246 C 0.00669 0.76227 0.47403 0.0
C2247 C 0.98211 0.75321 0.48283 0.0
H2248 H 0.18924 0.13983 0.49111 0.0
H2249 H 0.26308 0.19285 0.52039 0.0
H2250 H 0.25785 0.2276 0.5057 0.0
H2251 H 0.23153 0.24315 0.48679 0.0
H2252 H 0.15627 0.1905 0.46086 0.0
H2253 H 0.1628 0.15545 0.47207 0.0
C2254 C 0.20424 0.159 0.49421 0.0
C2255 C 0.22684 0.16358 0.50616 0.0
C2256 C 0.20079 0.17901 0.4864 0.0
C2257 C 0.24595 0.18855 0.51024 0.0
C2258 C 0.24282 0.20855 0.50215 0.0
C2259 C 0.21665 0.22403 0.48322 0.0
C2260 C 0.19348 0.21947 0.47288 0.0
C2261 C 0.22029 0.204 0.49034 0.0
C2262 C 0.17428 0.19453 0.46878 0.0
C2263 C 0.17798 0.17449 0.47525 0.0
H2264 H 0.76086 0.99056 0.46576 0.0
H2265 H 0.79613 0.95709 0.51102 0.0
H2266 H 0.82883 0.99866 0.52535 0.0
H2267 H 0.84661 0.04427 0.52618 0.0
H2268 H 0.81366 0.07791 0.47739 0.0
H2269 H 0.78068 0.03661 0.46389 0.0
C2270 C 0.77575 0.99238 0.47869 0.0
C2271 C 0.77595 0.97073 0.48742 0.0
C2272 C 0.7947 0.01637 0.48664 0.0
C2273 C 0.79555 0.97343 0.50392 0.0
C2274 C 0.8142 0.99719 0.51224 0.0
C2275 C 0.83225 0.04268 0.51258 0.0
C2276 C 0.8322 0.06446 0.50395 0.0
C2277 C 0.81383 0.01877 0.5039 0.0
C2278 C 0.81363 0.06179 0.48584 0.0
C2279 C 0.79488 0.03802 0.4776 0.0
H2280 H 0.89767 0.32402 0.31911 0.0
H2281 H 0.82217 0.30177 0.29458 0.0
H2282 H 0.82852 0.34299 0.30779 0.0
H2283 H 0.85551 0.38497 0.32724 0.0
H2284 H 0.92899 0.40416 0.35641 0.0
H2285 H 0.92355 0.36463 0.34021 0.0
C2286 C 0.8827 0.3283 0.31628 0.0
C2287 C 0.85963 0.3101 0.30551 0.0
C2288 C 0.88618 0.35151 0.32475 0.0
C2289 C 0.84016 0.31562 0.30266 0.0
C2290 C 0.84378 0.33911 0.31028 0.0
C2291 C 0.87034 0.38051 0.33004 0.0
C2292 C 0.89312 0.39816 0.34201 0.0
C2293 C 0.86667 0.35713 0.32156 0.0
C2294 C 0.9119 0.3918 0.34595 0.0
C2295 C 0.90863 0.3689 0.33704 0.0
H2296 H 0.61571 0.47756 0.3412 0.0
H2297 H 0.59154 0.53061 0.36007 0.0
H2298 H 0.63198 0.56527 0.34538 0.0
H2299 H 0.6747 0.58059 0.32858 0.0
H2300 H 0.69984 0.52769 0.31236 0.0
H2301 H 0.65861 0.49292 0.32466 0.0
C2302 C 0.61932 0.49673 0.34196 0.0
C2303 C 0.60043 0.50149 0.35085 0.0
C2304 C 0.64282 0.51658 0.33406 0.0
C2305 C 0.60542 0.5264 0.35222 0.0
C2306 C 0.62864 0.54624 0.34413 0.0
C2307 C 0.6711 0.56144 0.32748 0.0
C2308 C 0.69033 0.55677 0.31948 0.0
C2309 C 0.64749 0.54155 0.33503 0.0
C2310 C 0.68541 0.53184 0.31848 0.0
C2311 C 0.66184 0.51193 0.32554 0.0
H2312 H 0.42465 0.09634 0.31155 0.0
H2313 H 0.4774 0.1759 0.30591 0.0
H2314 H 0.51182 0.16845 0.31723 0.0
H2315 H 0.52647 0.13954 0.33139 0.0
H2316 H 0.47296 0.06054 0.33955 0.0
H2317 H 0.4393 0.06755 0.32433 0.0
C2318 C 0.44369 0.11209 0.31249 0.0
C2319 C 0.44838 0.13667 0.30796 0.0
C2320 C 0.46326 0.10775 0.31946 0.0
C2321 C 0.47321 0.15679 0.30936 0.0
C2322 C 0.4929 0.15256 0.31589 0.0
C2323 C 0.50745 0.12387 0.32955 0.0
C2324 C 0.5023 0.09946 0.33583 0.0
C2325 C 0.48807 0.12816 0.32142 0.0
C2326 C 0.47757 0.07934 0.33382 0.0
C2327 C 0.45826 0.08339 0.32544 0.0
H2328 H 0.6322 0.502 0.852 0.0
H2329 H 0.65486 0.58021 0.86309 0.0
H2330 H 0.69782 0.59238 0.85111 0.0
H2331 H 0.72849 0.58121 0.83479 0.0
H2332 H 0.7067 0.50323 0.8249 0.0
H2333 H 0.66378 0.49068 0.83842 0.0
C2334 C 0.64656 0.52169 0.85204 0.0
C2335 C 0.64014 0.5401 0.85837 0.0
C2336 C 0.67139 0.52867 0.84508 0.0
C2337 C 0.65912 0.56555 0.85832 0.0
C2338 C 0.68376 0.5726 0.85138 0.0
C2339 C 0.71462 0.56144 0.83643 0.0
C2340 C 0.721 0.54317 0.82953 0.0
C2341 C 0.69006 0.55436 0.84445 0.0
C2342 C 0.70233 0.51767 0.83035 0.0
C2343 C 0.67779 0.51047 0.83812 0.0
H2344 H 0.405 0.13457 0.82728 0.0
H2345 H 0.48254 0.19363 0.83086 0.0
H2346 H 0.4949 0.16358 0.84552 0.0
H2347 H 0.48404 0.12045 0.85569 0.0
H2348 H 0.40648 0.06125 0.85302 0.0
H2349 H 0.39372 0.09164 0.8405 0.0
C2350 C 0.42448 0.14104 0.83201 0.0
C2351 C 0.44275 0.16643 0.82836 0.0
C2352 C 0.43149 0.12363 0.84057 0.0
C2353 C 0.46808 0.17419 0.83352 0.0
C2354 C 0.47518 0.15704 0.84196 0.0
C2355 C 0.46431 0.11416 0.85257 0.0
C2356 C 0.4463 0.08855 0.85514 0.0
C2357 C 0.45709 0.13168 0.84529 0.0
C2358 C 0.42079 0.08084 0.85117 0.0
C2359 C 0.41346 0.0982 0.84391 0.0
H2360 H 0.84992 0.26781 0.83925 0.0
H2361 H 0.79561 0.29135 0.82474 0.0
H2362 H 0.82534 0.33355 0.84066 0.0
H2363 H 0.86774 0.36436 0.85579 0.0
H2364 H 0.92192 0.34041 0.87002 0.0
H2365 H 0.8909 0.29753 0.85803 0.0
C2366 C 0.84427 0.2819 0.84042 0.0
C2367 C 0.82046 0.27636 0.83134 0.0
C2368 C 0.86146 0.30609 0.84947 0.0
C2369 C 0.81384 0.29519 0.83179 0.0
C2370 C 0.8308 0.31929 0.8409 0.0
C2371 C 0.87266 0.3497 0.85668 0.0
C2372 C 0.89721 0.3557 0.86356 0.0
C2373 C 0.85482 0.32507 0.84939 0.0
C2374 C 0.90323 0.33642 0.86459 0.0
C2375 C 0.88552 0.31186 0.85767 0.0
H2376 H 0.42008 0.26808 0.33784 0.0
H2377 H 0.49378 0.29592 0.30424 0.0
H2378 H 0.50648 0.33823 0.32031 0.0
H2379 H 0.49574 0.36759 0.34233 0.0
H2380 H 0.42177 0.33851 0.37622 0.0
H2381 H 0.41049 0.29627 0.36254 0.0
C2382 C 0.4392 0.28317 0.3348 0.0
C2383 C 0.45617 0.27872 0.32049 0.0
C2384 C 0.44635 0.30728 0.34418 0.0
C2385 C 0.48044 0.29885 0.31545 0.0
C2386 C 0.48772 0.32302 0.32467 0.0
C2387 C 0.47731 0.35195 0.34708 0.0
C2388 C 0.45961 0.35633 0.36012 0.0
C2389 C 0.47073 0.32752 0.33889 0.0
C2390 C 0.43575 0.33581 0.36601 0.0
C2391 C 0.4292 0.31157 0.35815 0.0
H2392 H 0.73147 0.15051 0.34265 0.0
H2393 H 0.70425 0.19854 0.3136 0.0
H2394 H 0.662 0.16867 0.32929 0.0
H2395 H 0.63234 0.1275 0.34856 0.0
H2396 H 0.6606 0.08047 0.37849 0.0
H2397 H 0.70309 0.11198 0.3662 0.0
C2398 C 0.71661 0.15502 0.34067 0.0
C2399 C 0.72117 0.177 0.32748 0.0
C2400 C 0.69246 0.13789 0.34985 0.0
C2401 C 0.70124 0.18177 0.32384 0.0
C2402 C 0.67708 0.16473 0.33282 0.0
C2403 C 0.64783 0.12431 0.35278 0.0
C2404 C 0.64314 0.10147 0.36413 0.0
C2405 C 0.67238 0.1425 0.34548 0.0
C2406 C 0.66352 0.09774 0.36955 0.0
C2407 C 0.6879 0.11574 0.36246 0.0
H2408 H 0.85918 0.58825 0.32736 0.0
H2409 H 0.79867 0.51205 0.33784 0.0
H2410 H 0.8284 0.49969 0.35354 0.0
H2411 H 0.87163 0.51011 0.36285 0.0
H2412 H 0.93198 0.58664 0.35384 0.0
H2413 H 0.90197 0.59946 0.3402 0.0
C2414 C 0.85225 0.56916 0.33387 0.0
C2415 C 0.82654 0.55128 0.33181 0.0
C2416 C 0.86943 0.56219 0.34327 0.0
C2417 C 0.81833 0.52627 0.33917 0.0
C2418 C 0.83531 0.51916 0.34827 0.0
C2419 C 0.87823 0.52966 0.3582 0.0
C2420 C 0.90407 0.54731 0.35923 0.0
C2421 C 0.86092 0.53692 0.35021 0.0
C2422 C 0.91222 0.5726 0.35325 0.0
C2423 C 0.89507 0.57996 0.34529 0.0
H2424 H 0.61522 0.13893 0.85211 0.0
H2425 H 0.57895 0.07092 0.8057 0.0
H2426 H 0.61938 0.07917 0.78898 0.0
H2427 H 0.6653 0.10504 0.78837 0.0
H2428 H 0.70157 0.17451 0.8324 0.0
H2429 H 0.66081 0.16676 0.84834 0.0
C2430 C 0.61611 0.12589 0.83831 0.0
C2431 C 0.59401 0.10366 0.83131 0.0
C2432 C 0.63946 0.13121 0.82796 0.0
C2433 C 0.59556 0.08735 0.81289 0.0
C2434 C 0.61876 0.09232 0.80281 0.0
C2435 C 0.6643 0.11863 0.80125 0.0
C2436 C 0.6865 0.14021 0.80934 0.0
C2437 C 0.64084 0.11403 0.81046 0.0
C2438 C 0.68481 0.15774 0.82582 0.0
C2439 C 0.66151 0.15324 0.83511 0.0
H2440 H 0.83353 0.52933 0.83563 0.0
H2441 H 0.90777 0.58081 0.80575 0.0
H2442 H 0.92201 0.5518 0.81793 0.0
H2443 H 0.91458 0.51333 0.83962 0.0
H2444 H 0.84076 0.46083 0.86902 0.0
H2445 H 0.82538 0.48895 0.85508 0.0
C2446 C 0.85272 0.53404 0.83152 0.0
C2447 C 0.86952 0.55735 0.81995 0.0
C2448 C 0.86101 0.51723 0.83874 0.0
C2449 C 0.89439 0.56314 0.81482 0.0
C2450 C 0.90264 0.54656 0.8218 0.0
C2451 C 0.89492 0.50761 0.84221 0.0
C2452 C 0.87867 0.48472 0.85465 0.0
C2453 C 0.88625 0.52374 0.83406 0.0
C2454 C 0.85358 0.47828 0.85919 0.0
C2455 C 0.84478 0.49433 0.8512 0.0
H2456 H 0.42927 0.32618 0.79028 0.0
H2457 H 0.46363 0.28816 0.82884 0.0
H2458 H 0.49723 0.32818 0.84536 0.0
H2459 H 0.51544 0.37352 0.85119 0.0
H2460 H 0.48296 0.4119 0.80976 0.0
H2461 H 0.44986 0.37222 0.79276 0.0
C2462 C 0.44424 0.32664 0.80206 0.0
C2463 C 0.44373 0.3041 0.80845 0.0
C2464 C 0.46357 0.34976 0.8116 0.0
C2465 C 0.46345 0.30515 0.82358 0.0
C2466 C 0.48264 0.32805 0.83321 0.0
C2467 C 0.50117 0.37332 0.83843 0.0
C2468 C 0.50125 0.39584 0.83301 0.0
C2469 C 0.48262 0.3504 0.82775 0.0
C2470 C 0.48282 0.39504 0.81587 0.0
C2471 C 0.46401 0.37223 0.80557 0.0
H2472 H 0.56982 0.66105 0.64954 0.0
H2473 H 0.48951 0.63054 0.64767 0.0
H2474 H 0.49506 0.67078 0.66325 0.0
H2475 H 0.52302 0.71451 0.6785 0.0
H2476 H 0.60285 0.74295 0.68295 0.0
H2477 H 0.5972 0.70357 0.66525 0.0
C2478 C 0.55347 0.66319 0.6522 0.0
C2479 C 0.52929 0.64285 0.64723 0.0
C2480 C 0.55675 0.68602 0.66172 0.0
C2481 C 0.50835 0.64593 0.65126 0.0
C2482 C 0.51151 0.6689 0.66025 0.0
C2483 C 0.5391 0.71199 0.6755 0.0
C2484 C 0.5634 0.73185 0.68112 0.0
C2485 C 0.53564 0.68902 0.66577 0.0
C2486 C 0.58408 0.72829 0.67772 0.0
C2487 C 0.58085 0.70571 0.66783 0.0
H2488 H 0.33557 0.90363 0.63183 0.0
H2489 H 0.37108 0.86641 0.66967 0.0
H2490 H 0.33035 0.83328 0.68526 0.0
H2491 H 0.28488 0.81523 0.68894 0.0
H2492 H 0.24891 0.85038 0.64786 0.0
H2493 H 0.2895 0.88409 0.63344 0.0
C2494 C 0.33439 0.88824 0.64343 0.0
C2495 C 0.35641 0.88761 0.64961 0.0
C2496 C 0.31083 0.86904 0.65219 0.0
C2497 C 0.35448 0.86738 0.66449 0.0
C2498 C 0.33118 0.84844 0.67355 0.0
C2499 C 0.28582 0.83026 0.67687 0.0
C2500 C 0.26365 0.83056 0.67057 0.0
C2501 C 0.30927 0.84916 0.66764 0.0
C2502 C 0.26542 0.85006 0.65446 0.0
C2503 C 0.28877 0.86926 0.64568 0.0
H2504 H 0.08163 0.42807 0.65423 0.0
H2505 H 0.13532 0.50156 0.62464 0.0
H2506 H 0.16982 0.49456 0.63662 0.0
H2507 H 0.18489 0.46882 0.6583 0.0
H2508 H 0.13152 0.39672 0.69079 0.0
H2509 H 0.09674 0.40176 0.67474 0.0
C2510 C 0.10086 0.44236 0.64997 0.0
C2511 C 0.10589 0.46529 0.63854 0.0
C2512 C 0.12066 0.43849 0.65756 0.0
C2513 C 0.13094 0.48376 0.63347 0.0
C2514 C 0.15069 0.47982 0.64039 0.0
C2515 C 0.16561 0.45416 0.66164 0.0
C2516 C 0.16071 0.43216 0.67504 0.0
C2517 C 0.14579 0.45749 0.65294 0.0
C2518 C 0.13572 0.4134 0.67961 0.0
C2519 C 0.11585 0.41641 0.67071 0.0
H2520 H 0.30153 0.84579 0.16523 0.0
H2521 H 0.33003 0.90714 0.22087 0.0
H2522 H 0.37309 0.91727 0.21107 0.0
H2523 H 0.40249 0.90909 0.18604 0.0
H2524 H 0.37382 0.84973 0.12791 0.0
H2525 H 0.33094 0.83812 0.13977 0.0
C2526 C 0.31714 0.86119 0.17545 0.0
C2527 C 0.3126 0.8756 0.19385 0.0
C2528 C 0.34182 0.86737 0.16915 0.0
C2529 C 0.33305 0.89574 0.20663 0.0
C2530 C 0.35767 0.90158 0.20099 0.0
C2531 C 0.38701 0.8941 0.17539 0.0
C2532 C 0.39156 0.88079 0.15556 0.0
C2533 C 0.3623 0.88775 0.18199 0.0
C2534 C 0.37096 0.86047 0.14311 0.0
C2535 C 0.34638 0.85378 0.14985 0.0
H2536 H 0.09596 0.49616 0.18212 0.0
H2537 H 0.14612 0.51657 0.11526 0.0
H2538 H 0.15858 0.4864 0.1291 0.0
H2539 H 0.15393 0.4528 0.15904 0.0
H2540 H 0.10041 0.42926 0.22286 0.0
H2541 H 0.09015 0.46174 0.21106 0.0
C2542 C 0.10896 0.49358 0.16998 0.0
C2543 C 0.11944 0.50826 0.14715 0.0
C2544 C 0.1156 0.47568 0.17766 0.0
C2545 C 0.1375 0.50543 0.13279 0.0
C2546 C 0.14468 0.48815 0.14067 0.0
C2547 C 0.14027 0.45505 0.17053 0.0
C2548 C 0.12811 0.43892 0.19193 0.0
C2549 C 0.13375 0.47306 0.16297 0.0
C2550 C 0.11006 0.4416 0.20637 0.0
C2551 C 0.10415 0.46008 0.19957 0.0
H2552 H 0.58015 0.67413 0.20559 0.0
H2553 H 0.54487 0.71091 0.1663 0.0
H2554 H 0.51096 0.67049 0.15128 0.0
H2555 H 0.49158 0.62511 0.14878 0.0
H2556 H 0.52435 0.58749 0.19122 0.0
H2557 H 0.55919 0.6278 0.20483 0.0
C2558 C 0.56501 0.67326 0.19378 0.0
C2559 C 0.5651 0.69554 0.18707 0.0
C2560 C 0.5453 0.64984 0.18539 0.0
C2561 C 0.54524 0.69409 0.17191 0.0
C2562 C 0.52587 0.67097 0.16318 0.0
C2563 C 0.50628 0.62555 0.16102 0.0
C2564 C 0.50547 0.603 0.16811 0.0
C2565 C 0.52577 0.64878 0.16974 0.0
C2566 C 0.52472 0.60424 0.18424 0.0
C2567 C 0.5446 0.62744 0.1925 0.0
H2568 H 0.1546 0.69733 0.68669 0.0
H2569 H 0.07764 0.6792 0.67584 0.0
H2570 H 0.06631 0.63694 0.66148 0.0
H2571 H 0.07866 0.60592 0.6501 0.0
H2572 H 0.15507 0.62316 0.66317 0.0
H2573 H 0.16634 0.66531 0.67773 0.0
C2574 C 0.13532 0.68411 0.6813 0.0
C2575 C 0.11704 0.69149 0.68229 0.0
C2576 C 0.12886 0.65976 0.67319 0.0
C2577 C 0.09211 0.67404 0.67536 0.0
C2578 C 0.08561 0.64986 0.66703 0.0
C2579 C 0.09756 0.61844 0.6569 0.0
C2580 C 0.11578 0.61097 0.65607 0.0
C2581 C 0.10386 0.64256 0.66574 0.0
C2582 C 0.14057 0.62829 0.66365 0.0
C2583 C 0.14706 0.65241 0.67209 0.0
H2584 H 0.32238 0.41592 0.68516 0.0
H2585 H 0.29614 0.46772 0.70279 0.0
H2586 H 0.33746 0.5031 0.69196 0.0
H2587 H 0.3802 0.51921 0.6748 0.0
H2588 H 0.40556 0.46738 0.65453 0.0
H2589 H 0.36555 0.43214 0.66935 0.0
C2590 C 0.32577 0.43496 0.68701 0.0
C2591 C 0.30614 0.43913 0.69473 0.0
C2592 C 0.34943 0.45521 0.68024 0.0
C2593 C 0.31086 0.46394 0.6968 0.0
C2594 C 0.33447 0.4842 0.69056 0.0
C2595 C 0.37699 0.50019 0.67388 0.0
C2596 C 0.39599 0.49592 0.66426 0.0
C2597 C 0.35374 0.48002 0.68181 0.0
C2598 C 0.39156 0.47121 0.6628 0.0
C2599 C 0.36857 0.45104 0.67097 0.0
H2600 H 0.53816 0.8384 0.68526 0.0
H2601 H 0.59299 0.91695 0.69542 0.0
H2602 H 0.56208 0.92854 0.68214 0.0
H2603 H 0.52036 0.91674 0.66498 0.0
H2604 H 0.4651 0.83848 0.65525 0.0
H2605 H 0.49544 0.82649 0.67046 0.0
C2606 C 0.5433 0.85804 0.68482 0.0
C2607 C 0.56797 0.87672 0.69125 0.0
C2608 C 0.52541 0.86469 0.67701 0.0
C2609 C 0.57422 0.9021 0.69052 0.0
C2610 C 0.55655 0.90881 0.68287 0.0
C2611 C 0.51469 0.89704 0.66696 0.0
C2612 C 0.49031 0.87851 0.65963 0.0
C2613 C 0.53219 0.89031 0.67578 0.0
C2614 C 0.48371 0.8531 0.66101 0.0
C2615 C 0.50103 0.84623 0.66973 0.0
H2616 H 0.29079 0.47235 0.1946 0.0
H2617 H 0.25101 0.40537 0.14705 0.0
H2618 H 0.29037 0.41182 0.12922 0.0
H2619 H 0.33646 0.43604 0.12753 0.0
H2620 H 0.37606 0.50501 0.17203 0.0
H2621 H 0.33638 0.49866 0.18969 0.0
C2622 C 0.29063 0.4591 0.18033 0.0
C2623 C 0.26777 0.43764 0.17341 0.0
C2624 C 0.3134 0.46352 0.16915 0.0
C2625 C 0.2681 0.42113 0.15433 0.0
C2626 C 0.29073 0.42511 0.14356 0.0
C2627 C 0.33641 0.44982 0.14089 0.0
C2628 C 0.35926 0.47085 0.14857 0.0
C2629 C 0.31351 0.4461 0.15101 0.0
C2630 C 0.35879 0.48864 0.16571 0.0
C2631 C 0.3361 0.48495 0.176 0.0
H2632 H 0.58629 0.85205 0.1644 0.0
H2633 H 0.51122 0.79752 0.18888 0.0
H2634 H 0.49568 0.82489 0.17312 0.0
H2635 H 0.504 0.86539 0.15457 0.0
H2636 H 0.57935 0.91939 0.12977 0.0
H2637 H 0.59394 0.89069 0.14257 0.0
C2638 C 0.56639 0.84572 0.16547 0.0
C2639 C 0.54985 0.82254 0.17727 0.0
C2640 C 0.55761 0.8615 0.15635 0.0
C2641 C 0.52431 0.81525 0.17971 0.0
C2642 C 0.51541 0.83087 0.17068 0.0
C2643 C 0.52353 0.87074 0.15162 0.0
C2644 C 0.54053 0.89463 0.14142 0.0
C2645 C 0.53196 0.8542 0.15926 0.0
C2646 C 0.56581 0.90121 0.13774 0.0
C2647 C 0.57425 0.88483 0.14511 0.0
H2648 H 0.08918 0.65991 0.15262 0.0
H2649 H 0.14184 0.63709 0.12707 0.0
H2650 H 0.17687 0.67884 0.13747 0.0
H2651 H 0.19251 0.7212 0.15553 0.0
H2652 H 0.13962 0.74249 0.18427 0.0
H2653 H 0.10479 0.70214 0.17057 0.0
C2654 C 0.10831 0.66413 0.14901 0.0
C2655 C 0.11288 0.64542 0.13901 0.0
C2656 C 0.12834 0.68795 0.15557 0.0
C2657 C 0.1378 0.65114 0.13478 0.0
C2658 C 0.15784 0.67499 0.14075 0.0
C2659 C 0.17335 0.71705 0.1587 0.0
C2660 C 0.16879 0.73526 0.17021 0.0
C2661 C 0.15332 0.69343 0.15149 0.0
C2662 C 0.14385 0.72944 0.17443 0.0
C2663 C 0.12382 0.70613 0.16693 0.0
loop_
_geom_bond_atom_site_label_1
_geom_bond_atom_site_label_2
_geom_bond_distance
_geom_bond_site_symmetry_2
_ccdc_geom_bond_type
Co0 O3 1.970 . S
Co0 N17 1.989 . S
Co0 O25 1.967 . S
Co0 O32 1.920 . S
Co1 O4 1.966 1_554 S
Co1 N10 2.022 . S
Co1 N18 1.993 . S
Co1 O26 1.941 . S
C2 O3 1.258 1_556 S
C2 O4 1.263 . S
O3 Co0 1.970 . S
O3 C2 1.258 1_554 S
O4 Co1 1.966 1_556 S
O4 C2 1.263 . S
C5 O6 1.235 . S
C5 O32 1.289 . S
O6 C5 1.235 . S
C7 C9 1.400 . S
C7 N10 1.351 . S
C7 C12 1.501 1_554 S
C8 C9 1.387 . S
C8 N11 1.341 . S
C9 C7 1.400 . S
C9 C8 1.387 . S
N10 Co1 2.022 . S
N10 C7 1.351 . S
N10 N11 1.365 . S
N11 C8 1.341 . S
N11 N10 1.365 . S
N11 H31 0.862 . S
C12 C7 1.501 1_556 S
C12 H13 0.961 . S
C12 H14 0.961 . S
C12 H15 0.960 . S
H13 C12 0.961 . S
H14 C12 0.961 . S
H15 C12 0.960 . S
C16 N17 1.342 . S
C16 C20 1.401 . S
C16 C21 1.499 . S
N17 Co0 1.989 . S
N17 C16 1.342 . S
N17 N18 1.388 . S
N18 Co1 1.993 . S
N18 N17 1.388 . S
N18 C19 1.346 . S
C19 N18 1.346 . S
C19 C20 1.396 . S
C19 C29 1.510 . S
C20 C16 1.401 . S
C20 C19 1.396 . S
C21 C16 1.499 . S
C21 H22 0.959 . S
C21 H23 0.960 . S
C21 H24 0.961 . S
H22 C21 0.959 . S
H23 C21 0.960 . S
H24 C21 0.961 . S
O25 Co0 1.967 . S
O25 C33 1.258 . S
O26 Co1 1.941 . S
O26 C33 1.266 . S
H27 C29 0.959 . S
H28 C29 0.961 . S
C29 C19 1.510 . S
C29 H27 0.959 . S
C29 H28 0.961 . S
C29 H30 0.960 . S
H30 C29 0.960 . S
H31 N11 0.862 . S
O32 Co0 1.920 . S
O32 C5 1.289 . S
C33 O25 1.258 . S
C33 O26 1.266 . S
Co34 O37 1.970 . S
Co34 N51 1.989 . S
Co34 O59 1.967 . S
Co34 O66 1.920 . S
Co35 O38 1.966 1_554 S
Co35 N44 2.022 . S
Co35 N52 1.993 . S
Co35 O60 1.941 . S
C36 O37 1.258 1_556 S
C36 O38 1.263 . S
O37 Co34 1.970 . S
O37 C36 1.258 1_554 S
O38 Co35 1.966 1_556 S
O38 C36 1.263 . S
C39 O40 1.235 . S
C39 O66 1.289 . S
O40 C39 1.235 . S
C41 C43 1.400 . S
C41 N44 1.351 . S
C41 C46 1.501 1_554 S
C42 C43 1.387 . S
C42 N45 1.341 . S
C43 C41 1.400 . S
C43 C42 1.387 . S
N44 Co35 2.022 . S
N44 C41 1.351 . S
N44 N45 1.365 . S
N45 C42 1.341 . S
N45 N44 1.365 . S
N45 H65 0.862 . S
C46 C41 1.501 1_556 S
C46 H47 0.961 . S
C46 H48 0.961 . S
C46 H49 0.960 . S
H47 C46 0.961 . S
H48 C46 0.961 . S
H49 C46 0.960 . S
C50 N51 1.342 . S
C50 C54 1.401 . S
C50 C55 1.499 . S
N51 Co34 1.989 . S
N51 C50 1.342 . S
N51 N52 1.388 . S
N52 Co35 1.993 . S
N52 N51 1.388 . S
N52 C53 1.346 . S
C53 N52 1.346 . S
C53 C54 1.396 . S
C53 C63 1.510 . S
C54 C50 1.401 . S
C54 C53 1.396 . S
C55 C50 1.499 . S
C55 H56 0.959 . S
C55 H57 0.960 . S
C55 H58 0.961 . S
H56 C55 0.959 . S
H57 C55 0.960 . S
H58 C55 0.961 . S
O59 Co34 1.967 . S
O59 C67 1.258 . S
O60 Co35 1.941 . S
O60 C67 1.266 . S
H61 C63 0.959 . S
H62 C63 0.961 . S
C63 C53 1.510 . S
C63 H61 0.959 . S
C63 H62 0.961 . S
C63 H64 0.960 . S
H64 C63 0.960 . S
H65 N45 0.862 . S
O66 Co34 1.920 . S
O66 C39 1.289 . S
C67 O59 1.258 . S
C67 O60 1.266 . S
Co68 O71 1.970 . S
Co68 N85 1.989 . S
Co68 O93 1.967 . S
Co68 O100 1.920 . S
Co69 O72 1.966 1_554 S
Co69 N78 2.022 . S
Co69 N86 1.993 . S
Co69 O94 1.941 . S
C70 O71 1.258 1_556 S
C70 O72 1.263 . S
O71 Co68 1.970 . S
O71 C70 1.258 1_554 S
O72 Co69 1.966 1_556 S
O72 C70 1.263 . S
C73 O74 1.235 . S
C73 O100 1.289 . S
O74 C73 1.235 . S
C75 C77 1.400 . S
C75 N78 1.351 . S
C75 C80 1.501 1_554 S
C76 C77 1.387 . S
C76 N79 1.341 . S
C77 C75 1.400 . S
C77 C76 1.387 . S
N78 Co69 2.022 . S
N78 C75 1.351 . S
N78 N79 1.365 . S
N79 C76 1.341 . S
N79 N78 1.365 . S
N79 H99 0.862 . S
C80 C75 1.501 1_556 S
C80 H81 0.961 . S
C80 H82 0.961 . S
C80 H83 0.960 . S
H81 C80 0.961 . S
H82 C80 0.961 . S
H83 C80 0.960 . S
C84 N85 1.342 . S
C84 C88 1.401 . S
C84 C89 1.499 . S
N85 Co68 1.989 . S
N85 C84 1.342 . S
N85 N86 1.388 . S
N86 Co69 1.993 . S
N86 N85 1.388 . S
N86 C87 1.346 . S
C87 N86 1.346 . S
C87 C88 1.396 . S
C87 C97 1.510 . S
C88 C84 1.401 . S
C88 C87 1.396 . S
C89 C84 1.499 . S
C89 H90 0.959 . S
C89 H91 0.960 . S
C89 H92 0.961 . S
H90 C89 0.959 . S
H91 C89 0.960 . S
H92 C89 0.961 . S
O93 Co68 1.967 . S
O93 C101 1.258 . S
O94 Co69 1.941 . S
O94 C101 1.266 . S
H95 C97 0.959 . S
H96 C97 0.961 . S
C97 C87 1.510 . S
C97 H95 0.959 . S
C97 H96 0.961 . S
C97 H98 0.960 . S
H98 C97 0.960 . S
H99 N79 0.862 . S
O100 Co68 1.920 . S
O100 C73 1.289 . S
C101 O93 1.258 . S
C101 O94 1.266 . S
Co102 O105 1.970 . S
Co102 N119 1.989 . S
Co102 O127 1.967 . S
Co102 O134 1.920 . S
Co103 O106 1.966 . S
Co103 N112 2.022 . S
Co103 N120 1.993 . S
Co103 O128 1.941 . S
C104 O105 1.258 . S
C104 O106 1.263 . S
O105 Co102 1.970 . S
O105 C104 1.258 . S
O106 Co103 1.966 . S
O106 C104 1.263 . S
C107 O108 1.235 . S
C107 O134 1.289 . S
O108 C107 1.235 . S
C109 C111 1.400 . S
C109 N112 1.351 . S
C109 C114 1.501 . S
C110 C111 1.387 . S
C110 N113 1.341 . S
C111 C109 1.400 . S
C111 C110 1.387 . S
N112 Co103 2.022 . S
N112 C109 1.351 . S
N112 N113 1.365 . S
N113 C110 1.341 . S
N113 N112 1.365 . S
N113 H133 0.862 . S
C114 C109 1.501 . S
C114 H115 0.961 . S
C114 H116 0.961 . S
C114 H117 0.960 . S
H115 C114 0.961 . S
H116 C114 0.961 . S
H117 C114 0.960 . S
C118 N119 1.342 . S
C118 C122 1.401 . S
C118 C123 1.499 . S
N119 Co102 1.989 . S
N119 C118 1.342 . S
N119 N120 1.388 . S
N120 Co103 1.993 . S
N120 N119 1.388 . S
N120 C121 1.346 . S
C121 N120 1.346 . S
C121 C122 1.396 . S
C121 C131 1.510 . S
C122 C118 1.401 . S
C122 C121 1.396 . S
C123 C118 1.499 . S
C123 H124 0.959 . S
C123 H125 0.960 . S
C123 H126 0.961 . S
H124 C123 0.959 . S
H125 C123 0.960 . S
H126 C123 0.961 . S
O127 Co102 1.967 . S
O127 C135 1.258 . S
O128 Co103 1.941 . S
O128 C135 1.266 . S
H129 C131 0.959 . S
H130 C131 0.961 . S
C131 C121 1.510 . S
C131 H129 0.959 . S
C131 H130 0.961 . S
C131 H132 0.960 . S
H132 C131 0.960 . S
H133 N113 0.862 . S
O134 Co102 1.920 . S
O134 C107 1.289 . S
C135 O127 1.258 . S
C135 O128 1.266 . S
Co136 O139 1.970 . S
Co136 N153 1.989 . S
Co136 O161 1.967 . S
Co136 O168 1.920 . S
Co137 O140 1.966 . S
Co137 N146 2.022 . S
Co137 N154 1.993 . S
Co137 O162 1.941 . S
C138 O139 1.258 . S
C138 O140 1.263 . S
O139 Co136 1.970 . S
O139 C138 1.258 . S
O140 Co137 1.966 . S
O140 C138 1.263 . S
C141 O142 1.235 . S
C141 O168 1.289 . S
O142 C141 1.235 . S
C143 C145 1.400 . S
C143 N146 1.351 . S
C143 C148 1.501 . S
C144 C145 1.387 . S
C144 N147 1.341 . S
C145 C143 1.400 . S
C145 C144 1.387 . S
N146 Co137 2.022 . S
N146 C143 1.351 . S
N146 N147 1.365 . S
N147 C144 1.341 . S
N147 N146 1.365 . S
N147 H167 0.862 . S
C148 C143 1.501 . S
C148 H149 0.961 . S
C148 H150 0.961 . S
C148 H151 0.960 . S
H149 C148 0.961 . S
H150 C148 0.961 . S
H151 C148 0.960 . S
C152 N153 1.342 . S
C152 C156 1.401 . S
C152 C157 1.499 . S
N153 Co136 1.989 . S
N153 C152 1.342 . S
N153 N154 1.388 . S
N154 Co137 1.993 . S
N154 N153 1.388 . S
N154 C155 1.346 . S
C155 N154 1.346 . S
C155 C156 1.396 . S
C155 C165 1.510 . S
C156 C152 1.401 . S
C156 C155 1.396 . S
C157 C152 1.499 . S
C157 H158 0.959 . S
C157 H159 0.960 . S
C157 H160 0.961 . S
H158 C157 0.959 . S
H159 C157 0.960 . S
H160 C157 0.961 . S
O161 Co136 1.967 . S
O161 C169 1.258 . S
O162 Co137 1.941 . S
O162 C169 1.266 . S
H163 C165 0.959 . S
H164 C165 0.961 . S
C165 C155 1.510 . S
C165 H163 0.959 . S
C165 H164 0.961 . S
C165 H166 0.960 . S
H166 C165 0.960 . S
H167 N147 0.862 . S
O168 Co136 1.920 . S
O168 C141 1.289 . S
C169 O161 1.258 . S
C169 O162 1.266 . S
Co170 O173 1.970 . S
Co170 N187 1.989 . S
Co170 O195 1.967 . S
Co170 O202 1.920 . S
Co171 O174 1.966 . S
Co171 N180 2.022 . S
Co171 N188 1.993 . S
Co171 O196 1.941 . S
C172 O173 1.258 . S
C172 O174 1.263 . S
O173 Co170 1.970 . S
O173 C172 1.258 . S
O174 Co171 1.966 . S
O174 C172 1.263 . S
C175 O176 1.235 . S
C175 O202 1.289 . S
O176 C175 1.235 . S
C177 C179 1.400 . S
C177 N180 1.351 . S
C177 C182 1.501 . S
C178 C179 1.387 . S
C178 N181 1.341 . S
C179 C177 1.400 . S
C179 C178 1.387 . S
N180 Co171 2.022 . S
N180 C177 1.351 . S
N180 N181 1.365 . S
N181 C178 1.341 . S
N181 N180 1.365 . S
N181 H201 0.862 . S
C182 C177 1.501 . S
C182 H183 0.961 . S
C182 H184 0.961 . S
C182 H185 0.960 . S
H183 C182 0.961 . S
H184 C182 0.961 . S
H185 C182 0.960 . S
C186 N187 1.342 . S
C186 C190 1.401 . S
C186 C191 1.499 . S
N187 Co170 1.989 . S
N187 C186 1.342 . S
N187 N188 1.388 . S
N188 Co171 1.993 . S
N188 N187 1.388 . S
N188 C189 1.346 . S
C189 N188 1.346 . S
C189 C190 1.396 . S
C189 C199 1.510 . S
C190 C186 1.401 . S
C190 C189 1.396 . S
C191 C186 1.499 . S
C191 H192 0.959 . S
C191 H193 0.960 . S
C191 H194 0.961 . S
H192 C191 0.959 . S
H193 C191 0.960 . S
H194 C191 0.961 . S
O195 Co170 1.967 . S
O195 C203 1.258 . S
O196 Co171 1.941 . S
O196 C203 1.266 . S
H197 C199 0.959 . S
H198 C199 0.961 . S
C199 C189 1.510 . S
C199 H197 0.959 . S
C199 H198 0.961 . S
C199 H200 0.960 . S
H200 C199 0.960 . S
H201 N181 0.862 . S
O202 Co170 1.920 . S
O202 C175 1.289 . S
C203 O195 1.258 . S
C203 O196 1.266 . S
Co204 O207 1.970 . S
Co204 N221 1.989 . S
Co204 O229 1.967 . S
Co204 O236 1.920 . S
Co205 O208 1.966 1_556 S
Co205 N214 2.022 . S
Co205 N222 1.993 . S
Co205 O230 1.941 . S
C206 O207 1.258 1_554 S
C206 O208 1.263 . S
O207 Co204 1.970 . S
O207 C206 1.258 1_556 S
O208 Co205 1.966 1_554 S
O208 C206 1.263 . S
C209 O210 1.235 . S
C209 O236 1.289 . S
O210 C209 1.235 . S
C211 C213 1.400 . S
C211 N214 1.351 . S
C211 C216 1.501 1_556 S
C212 C213 1.387 . S
C212 N215 1.341 . S
C213 C211 1.400 . S
C213 C212 1.387 . S
N214 Co205 2.022 . S
N214 C211 1.351 . S
N214 N215 1.365 . S
N215 C212 1.341 . S
N215 N214 1.365 . S
N215 H235 0.862 . S
C216 C211 1.501 1_554 S
C216 H217 0.961 . S
C216 H218 0.961 . S
C216 H219 0.960 . S
H217 C216 0.961 . S
H218 C216 0.961 . S
H219 C216 0.960 . S
C220 N221 1.342 . S
C220 C224 1.401 . S
C220 C225 1.499 . S
N221 Co204 1.989 . S
N221 C220 1.342 . S
N221 N222 1.388 . S
N222 Co205 1.993 . S
N222 N221 1.388 . S
N222 C223 1.346 . S
C223 N222 1.346 . S
C223 C224 1.396 . S
C223 C233 1.510 . S
C224 C220 1.401 . S
C224 C223 1.396 . S
C225 C220 1.499 . S
C225 H226 0.959 . S
C225 H227 0.960 . S
C225 H228 0.961 . S
H226 C225 0.959 . S
H227 C225 0.960 . S
H228 C225 0.961 . S
O229 Co204 1.967 . S
O229 C237 1.258 . S
O230 Co205 1.941 . S
O230 C237 1.266 . S
H231 C233 0.959 . S
H232 C233 0.961 . S
C233 C223 1.510 . S
C233 H231 0.959 . S
C233 H232 0.961 . S
C233 H234 0.960 . S
H234 C233 0.960 . S
H235 N215 0.862 . S
O236 Co204 1.920 . S
O236 C209 1.289 . S
C237 O229 1.258 . S
C237 O230 1.266 . S
Co238 O241 1.970 . S
Co238 N255 1.989 . S
Co238 O263 1.967 . S
Co238 O270 1.920 . S
Co239 O242 1.966 1_556 S
Co239 N248 2.022 . S
Co239 N256 1.993 . S
Co239 O264 1.941 . S
C240 O241 1.258 1_554 S
C240 O242 1.263 . S
O241 Co238 1.970 . S
O241 C240 1.258 1_556 S
O242 Co239 1.966 1_554 S
O242 C240 1.263 . S
C243 O244 1.235 . S
C243 O270 1.289 . S
O244 C243 1.235 . S
C245 C247 1.400 . S
C245 N248 1.351 . S
C245 C250 1.501 1_556 S
C246 C247 1.387 . S
C246 N249 1.341 . S
C247 C245 1.400 . S
C247 C246 1.387 . S
N248 Co239 2.022 . S
N248 C245 1.351 . S
N248 N249 1.365 . S
N249 C246 1.341 . S
N249 N248 1.365 . S
N249 H269 0.862 . S
C250 C245 1.501 1_554 S
C250 H251 0.961 . S
C250 H252 0.961 . S
C250 H253 0.960 . S
H251 C250 0.961 . S
H252 C250 0.961 . S
H253 C250 0.960 . S
C254 N255 1.342 . S
C254 C258 1.401 . S
C254 C259 1.499 . S
N255 Co238 1.989 . S
N255 C254 1.342 . S
N255 N256 1.388 . S
N256 Co239 1.993 . S
N256 N255 1.388 . S
N256 C257 1.346 . S
C257 N256 1.346 . S
C257 C258 1.396 . S
C257 C267 1.510 . S
C258 C254 1.401 . S
C258 C257 1.396 . S
C259 C254 1.499 . S
C259 H260 0.959 . S
C259 H261 0.960 . S
C259 H262 0.961 . S
H260 C259 0.959 . S
H261 C259 0.960 . S
H262 C259 0.961 . S
O263 Co238 1.967 . S
O263 C271 1.258 . S
O264 Co239 1.941 . S
O264 C271 1.266 . S
H265 C267 0.959 . S
H266 C267 0.961 . S
C267 C257 1.510 . S
C267 H265 0.959 . S
C267 H266 0.961 . S
C267 H268 0.960 . S
H268 C267 0.960 . S
H269 N249 0.862 . S
O270 Co238 1.920 . S
O270 C243 1.289 . S
C271 O263 1.258 . S
C271 O264 1.266 . S
Co272 O275 1.970 . S
Co272 N289 1.989 . S
Co272 O297 1.967 . S
Co272 O304 1.920 . S
Co273 O276 1.966 1_556 S
Co273 N282 2.022 . S
Co273 N290 1.993 . S
Co273 O298 1.941 . S
C274 O275 1.258 1_554 S
C274 O276 1.263 . S
O275 Co272 1.970 . S
O275 C274 1.258 1_556 S
O276 Co273 1.966 1_554 S
O276 C274 1.263 . S
C277 O278 1.235 . S
C277 O304 1.289 . S
O278 C277 1.235 . S
C279 C281 1.400 . S
C279 N282 1.351 . S
C279 C284 1.501 1_556 S
C280 C281 1.387 . S
C280 N283 1.341 . S
C281 C279 1.400 . S
C281 C280 1.387 . S
N282 Co273 2.022 . S
N282 C279 1.351 . S
N282 N283 1.365 . S
N283 C280 1.341 . S
N283 N282 1.365 . S
N283 H303 0.862 . S
C284 C279 1.501 1_554 S
C284 H285 0.961 . S
C284 H286 0.961 . S
C284 H287 0.960 . S
H285 C284 0.961 . S
H286 C284 0.961 . S
H287 C284 0.960 . S
C288 N289 1.342 . S
C288 C292 1.401 . S
C288 C293 1.499 . S
N289 Co272 1.989 . S
N289 C288 1.342 . S
N289 N290 1.388 . S
N290 Co273 1.993 . S
N290 N289 1.388 . S
N290 C291 1.346 . S
C291 N290 1.346 . S
C291 C292 1.396 . S
C291 C301 1.510 . S
C292 C288 1.401 . S
C292 C291 1.396 . S
C293 C288 1.499 . S
C293 H294 0.959 . S
C293 H295 0.960 . S
C293 H296 0.961 . S
H294 C293 0.959 . S
H295 C293 0.960 . S
H296 C293 0.961 . S
O297 Co272 1.967 . S
O297 C305 1.258 . S
O298 Co273 1.941 . S
O298 C305 1.266 . S
H299 C301 0.959 . S
H300 C301 0.961 . S
C301 C291 1.510 . S
C301 H299 0.959 . S
C301 H300 0.961 . S
C301 H302 0.960 . S
H302 C301 0.960 . S
H303 N283 0.862 . S
O304 Co272 1.920 . S
O304 C277 1.289 . S
C305 O297 1.258 . S
C305 O298 1.266 . S
Co306 O309 1.970 . S
Co306 N323 1.989 . S
Co306 O331 1.967 . S
Co306 O338 1.920 . S
Co307 O310 1.966 . S
Co307 N316 2.022 . S
Co307 N324 1.993 . S
Co307 O332 1.941 . S
C308 O309 1.258 . S
C308 O310 1.263 . S
O309 Co306 1.970 . S
O309 C308 1.258 . S
O310 Co307 1.966 . S
O310 C308 1.263 . S
C311 O312 1.235 . S
C311 O338 1.289 . S
O312 C311 1.235 . S
C313 C315 1.400 . S
C313 N316 1.351 . S
C313 C318 1.501 . S
C314 C315 1.387 . S
C314 N317 1.341 . S
C315 C313 1.400 . S
C315 C314 1.387 . S
N316 Co307 2.022 . S
N316 C313 1.351 . S
N316 N317 1.365 . S
N317 C314 1.341 . S
N317 N316 1.365 . S
N317 H337 0.862 . S
C318 C313 1.501 . S
C318 H319 0.961 . S
C318 H320 0.961 . S
C318 H321 0.960 . S
H319 C318 0.961 . S
H320 C318 0.961 . S
H321 C318 0.960 . S
C322 N323 1.342 . S
C322 C326 1.401 . S
C322 C327 1.499 . S
N323 Co306 1.989 . S
N323 C322 1.342 . S
N323 N324 1.388 . S
N324 Co307 1.993 . S
N324 N323 1.388 . S
N324 C325 1.346 . S
C325 N324 1.346 . S
C325 C326 1.396 . S
C325 C335 1.510 . S
C326 C322 1.401 . S
C326 C325 1.396 . S
C327 C322 1.499 . S
C327 H328 0.959 . S
C327 H329 0.960 . S
C327 H330 0.961 . S
H328 C327 0.959 . S
H329 C327 0.960 . S
H330 C327 0.961 . S
O331 Co306 1.967 . S
O331 C339 1.258 . S
O332 Co307 1.941 . S
O332 C339 1.266 . S
H333 C335 0.959 . S
H334 C335 0.961 . S
C335 C325 1.510 . S
C335 H333 0.959 . S
C335 H334 0.961 . S
C335 H336 0.960 . S
H336 C335 0.960 . S
H337 N317 0.862 . S
O338 Co306 1.920 . S
O338 C311 1.289 . S
C339 O331 1.258 . S
C339 O332 1.266 . S
Co340 O343 1.970 . S
Co340 N357 1.989 . S
Co340 O365 1.967 . S
Co340 O372 1.920 . S
Co341 O344 1.966 . S
Co341 N350 2.022 . S
Co341 N358 1.993 . S
Co341 O366 1.941 . S
C342 O343 1.258 . S
C342 O344 1.263 . S
O343 Co340 1.970 . S
O343 C342 1.258 . S
O344 Co341 1.966 . S
O344 C342 1.263 . S
C345 O346 1.235 . S
C345 O372 1.289 . S
O346 C345 1.235 . S
C347 C349 1.400 . S
C347 N350 1.351 . S
C347 C352 1.501 . S
C348 C349 1.387 . S
C348 N351 1.341 . S
C349 C347 1.400 . S
C349 C348 1.387 . S
N350 Co341 2.022 . S
N350 C347 1.351 . S
N350 N351 1.365 . S
N351 C348 1.341 . S
N351 N350 1.365 . S
N351 H371 0.862 . S
C352 C347 1.501 . S
C352 H353 0.961 . S
C352 H354 0.961 . S
C352 H355 0.960 . S
H353 C352 0.961 . S
H354 C352 0.961 . S
H355 C352 0.960 . S
C356 N357 1.342 . S
C356 C360 1.401 . S
C356 C361 1.499 . S
N357 Co340 1.989 . S
N357 C356 1.342 . S
N357 N358 1.388 . S
N358 Co341 1.993 . S
N358 N357 1.388 . S
N358 C359 1.346 . S
C359 N358 1.346 . S
C359 C360 1.396 . S
C359 C369 1.510 . S
C360 C356 1.401 . S
C360 C359 1.396 . S
C361 C356 1.499 . S
C361 H362 0.959 . S
C361 H363 0.960 . S
C361 H364 0.961 . S
H362 C361 0.959 . S
H363 C361 0.960 . S
H364 C361 0.961 . S
O365 Co340 1.967 . S
O365 C373 1.258 . S
O366 Co341 1.941 . S
O366 C373 1.266 . S
H367 C369 0.959 . S
H368 C369 0.961 . S
C369 C359 1.510 . S
C369 H367 0.959 . S
C369 H368 0.961 . S
C369 H370 0.960 . S
H370 C369 0.960 . S
H371 N351 0.862 . S
O372 Co340 1.920 . S
O372 C345 1.289 . S
C373 O365 1.258 . S
C373 O366 1.266 . S
Co374 O377 1.970 . S
Co374 N391 1.989 . S
Co374 O399 1.967 . S
Co374 O406 1.920 . S
Co375 O378 1.966 . S
Co375 N384 2.022 . S
Co375 N392 1.993 . S
Co375 O400 1.941 . S
C376 O377 1.258 . S
C376 O378 1.263 . S
O377 Co374 1.970 . S
O377 C376 1.258 . S
O378 Co375 1.966 . S
O378 C376 1.263 . S
C379 O380 1.235 . S
C379 O406 1.289 . S
O380 C379 1.235 . S
C381 C383 1.400 . S
C381 N384 1.351 . S
C381 C386 1.501 . S
C382 C383 1.387 . S
C382 N385 1.341 . S
C383 C381 1.400 . S
C383 C382 1.387 . S
N384 Co375 2.022 . S
N384 C381 1.351 . S
N384 N385 1.365 . S
N385 C382 1.341 . S
N385 N384 1.365 . S
N385 H405 0.862 . S
C386 C381 1.501 . S
C386 H387 0.961 . S
C386 H388 0.961 . S
C386 H389 0.960 . S
H387 C386 0.961 . S
H388 C386 0.961 . S
H389 C386 0.960 . S
C390 N391 1.342 . S
C390 C394 1.401 . S
C390 C395 1.499 . S
N391 Co374 1.989 . S
N391 C390 1.342 . S
N391 N392 1.388 . S
N392 Co375 1.993 . S
N392 N391 1.388 . S
N392 C393 1.346 . S
C393 N392 1.346 . S
C393 C394 1.396 . S
C393 C403 1.510 . S
C394 C390 1.401 . S
C394 C393 1.396 . S
C395 C390 1.499 . S
C395 H396 0.959 . S
C395 H397 0.960 . S
C395 H398 0.961 . S
H396 C395 0.959 . S
H397 C395 0.960 . S
H398 C395 0.961 . S
O399 Co374 1.967 . S
O399 C407 1.258 . S
O400 Co375 1.941 . S
O400 C407 1.266 . S
H401 C403 0.959 . S
H402 C403 0.961 . S
C403 C393 1.510 . S
C403 H401 0.959 . S
C403 H402 0.961 . S
C403 H404 0.960 . S
H404 C403 0.960 . S
H405 N385 0.862 . S
O406 Co374 1.920 . S
O406 C379 1.289 . S
C407 O399 1.258 . S
C407 O400 1.266 . S
Co408 O411 1.970 . S
Co408 N425 1.989 . S
Co408 O433 1.967 . S
Co408 O440 1.920 . S
Co409 O412 1.966 . S
Co409 N418 2.022 . S
Co409 N426 1.993 . S
Co409 O434 1.941 . S
C410 O411 1.258 . S
C410 O412 1.263 . S
O411 Co408 1.970 . S
O411 C410 1.258 . S
O412 Co409 1.966 . S
O412 C410 1.263 . S
C413 O414 1.235 . S
C413 O440 1.289 1_455 S
O414 C413 1.235 . S
C415 C417 1.400 . S
C415 N418 1.351 . S
C415 C420 1.501 . S
C416 C417 1.387 . S
C416 N419 1.341 . S
C417 C415 1.400 . S
C417 C416 1.387 . S
N418 Co409 2.022 . S
N418 C415 1.351 . S
N418 N419 1.365 . S
N419 C416 1.341 . S
N419 N418 1.365 . S
N419 H439 0.862 . S
C420 C415 1.501 . S
C420 H421 0.961 . S
C420 H422 0.961 . S
C420 H423 0.960 . S
H421 C420 0.961 . S
H422 C420 0.961 . S
H423 C420 0.960 . S
C424 N425 1.342 . S
C424 C428 1.401 . S
C424 C429 1.499 . S
N425 Co408 1.989 . S
N425 C424 1.342 . S
N425 N426 1.388 . S
N426 Co409 1.993 . S
N426 N425 1.388 . S
N426 C427 1.346 . S
C427 N426 1.346 . S
C427 C428 1.396 . S
C427 C437 1.510 . S
C428 C424 1.401 . S
C428 C427 1.396 . S
C429 C424 1.499 . S
C429 H430 0.959 . S
C429 H431 0.960 1_655 S
C429 H432 0.961 . S
H430 C429 0.959 . S
H431 C429 0.960 1_455 S
H432 C429 0.961 . S
O433 Co408 1.967 . S
O433 C441 1.258 . S
O434 Co409 1.941 . S
O434 C441 1.266 . S
H435 C437 0.959 . S
H436 C437 0.961 . S
C437 C427 1.510 . S
C437 H435 0.959 . S
C437 H436 0.961 . S
C437 H438 0.960 . S
H438 C437 0.960 . S
H439 N419 0.862 . S
O440 Co408 1.920 . S
O440 C413 1.289 1_655 S
C441 O433 1.258 . S
C441 O434 1.266 . S
Co442 O445 1.970 . S
Co442 N459 1.989 . S
Co442 O467 1.967 . S
Co442 O474 1.920 . S
Co443 O446 1.966 . S
Co443 N452 2.022 . S
Co443 N460 1.993 . S
Co443 O468 1.941 . S
C444 O445 1.258 . S
C444 O446 1.263 . S
O445 Co442 1.970 . S
O445 C444 1.258 . S
O446 Co443 1.966 . S
O446 C444 1.263 . S
C447 O448 1.235 . S
C447 O474 1.289 . S
O448 C447 1.235 . S
C449 C451 1.400 . S
C449 N452 1.351 . S
C449 C454 1.501 . S
C450 C451 1.387 . S
C450 N453 1.341 . S
C451 C449 1.400 . S
C451 C450 1.387 . S
N452 Co443 2.022 . S
N452 C449 1.351 . S
N452 N453 1.365 . S
N453 C450 1.341 . S
N453 N452 1.365 . S
N453 H473 0.862 . S
C454 C449 1.501 . S
C454 H455 0.961 . S
C454 H456 0.961 . S
C454 H457 0.960 . S
H455 C454 0.961 . S
H456 C454 0.961 . S
H457 C454 0.960 . S
C458 N459 1.342 . S
C458 C462 1.401 . S
C458 C463 1.499 . S
N459 Co442 1.989 . S
N459 C458 1.342 . S
N459 N460 1.388 . S
N460 Co443 1.993 . S
N460 N459 1.388 . S
N460 C461 1.346 . S
C461 N460 1.346 . S
C461 C462 1.396 . S
C461 C471 1.510 . S
C462 C458 1.401 . S
C462 C461 1.396 . S
C463 C458 1.499 . S
C463 H464 0.959 . S
C463 H465 0.960 . S
C463 H466 0.961 . S
H464 C463 0.959 . S
H465 C463 0.960 . S
H466 C463 0.961 . S
O467 Co442 1.967 . S
O467 C475 1.258 . S
O468 Co443 1.941 . S
O468 C475 1.266 . S
H469 C471 0.959 . S
H470 C471 0.961 . S
C471 C461 1.510 . S
C471 H469 0.959 . S
C471 H470 0.961 . S
C471 H472 0.960 . S
H472 C471 0.960 . S
H473 N453 0.862 . S
O474 Co442 1.920 . S
O474 C447 1.289 . S
C475 O467 1.258 . S
C475 O468 1.266 . S
Co476 O479 1.970 . S
Co476 N493 1.989 . S
Co476 O501 1.967 . S
Co476 O508 1.920 . S
Co477 O480 1.966 . S
Co477 N486 2.022 . S
Co477 N494 1.993 . S
Co477 O502 1.941 . S
C478 O479 1.258 . S
C478 O480 1.263 . S
O479 Co476 1.970 . S
O479 C478 1.258 . S
O480 Co477 1.966 . S
O480 C478 1.263 . S
C481 O482 1.235 . S
C481 O508 1.289 1_565 S
O482 C481 1.235 . S
C483 C485 1.400 . S
C483 N486 1.351 . S
C483 C488 1.501 . S
C484 C485 1.387 . S
C484 N487 1.341 . S
C485 C483 1.400 . S
C485 C484 1.387 . S
N486 Co477 2.022 . S
N486 C483 1.351 . S
N486 N487 1.365 . S
N487 C484 1.341 . S
N487 N486 1.365 . S
N487 H507 0.862 . S
C488 C483 1.501 . S
C488 H489 0.961 . S
C488 H490 0.961 . S
C488 H491 0.960 . S
H489 C488 0.961 . S
H490 C488 0.961 . S
H491 C488 0.960 . S
C492 N493 1.342 . S
C492 C496 1.401 . S
C492 C497 1.499 . S
N493 Co476 1.989 . S
N493 C492 1.342 . S
N493 N494 1.388 . S
N494 Co477 1.993 . S
N494 N493 1.388 . S
N494 C495 1.346 . S
C495 N494 1.346 . S
C495 C496 1.396 . S
C495 C505 1.510 . S
C496 C492 1.401 . S
C496 C495 1.396 . S
C497 C492 1.499 . S
C497 H498 0.959 . S
C497 H499 0.960 1_545 S
C497 H500 0.961 . S
H498 C497 0.959 . S
H499 C497 0.960 1_565 S
H500 C497 0.961 . S
O501 Co476 1.967 . S
O501 C509 1.258 . S
O502 Co477 1.941 . S
O502 C509 1.266 . S
H503 C505 0.959 . S
H504 C505 0.961 . S
C505 C495 1.510 . S
C505 H503 0.959 . S
C505 H504 0.961 . S
C505 H506 0.960 . S
H506 C505 0.960 . S
H507 N487 0.862 . S
O508 Co476 1.920 . S
O508 C481 1.289 1_545 S
C509 O501 1.258 . S
C509 O502 1.266 . S
Co510 O513 1.970 . S
Co510 N527 1.989 . S
Co510 O535 1.967 . S
Co510 O542 1.920 . S
Co511 O514 1.966 . S
Co511 N520 2.022 . S
Co511 N528 1.993 . S
Co511 O536 1.941 . S
C512 O513 1.258 . S
C512 O514 1.263 . S
O513 Co510 1.970 . S
O513 C512 1.258 . S
O514 Co511 1.966 . S
O514 C512 1.263 . S
C515 O516 1.235 . S
C515 O542 1.289 . S
O516 C515 1.235 . S
C517 C519 1.400 . S
C517 N520 1.351 . S
C517 C522 1.501 . S
C518 C519 1.387 . S
C518 N521 1.341 . S
C519 C517 1.400 . S
C519 C518 1.387 . S
N520 Co511 2.022 . S
N520 C517 1.351 . S
N520 N521 1.365 . S
N521 C518 1.341 . S
N521 N520 1.365 . S
N521 H541 0.862 . S
C522 C517 1.501 . S
C522 H523 0.961 . S
C522 H524 0.961 . S
C522 H525 0.960 . S
H523 C522 0.961 . S
H524 C522 0.961 . S
H525 C522 0.960 . S
C526 N527 1.342 . S
C526 C530 1.401 . S
C526 C531 1.499 . S
N527 Co510 1.989 . S
N527 C526 1.342 . S
N527 N528 1.388 . S
N528 Co511 1.993 . S
N528 N527 1.388 . S
N528 C529 1.346 . S
C529 N528 1.346 . S
C529 C530 1.396 . S
C529 C539 1.510 . S
C530 C526 1.401 . S
C530 C529 1.396 . S
C531 C526 1.499 . S
C531 H532 0.959 . S
C531 H533 0.960 . S
C531 H534 0.961 . S
H532 C531 0.959 . S
H533 C531 0.960 . S
H534 C531 0.961 . S
O535 Co510 1.967 . S
O535 C543 1.258 . S
O536 Co511 1.941 . S
O536 C543 1.266 . S
H537 C539 0.959 . S
H538 C539 0.961 . S
C539 C529 1.510 . S
C539 H537 0.959 . S
C539 H538 0.961 . S
C539 H540 0.960 . S
H540 C539 0.960 . S
H541 N521 0.862 . S
O542 Co510 1.920 . S
O542 C515 1.289 . S
C543 O535 1.258 . S
C543 O536 1.266 . S
Co544 O547 1.970 . S
Co544 N561 1.989 . S
Co544 O569 1.967 . S
Co544 O576 1.920 . S
Co545 O548 1.966 . S
Co545 N554 2.022 . S
Co545 N562 1.993 . S
Co545 O570 1.941 . S
C546 O547 1.258 . S
C546 O548 1.263 . S
O547 Co544 1.970 . S
O547 C546 1.258 . S
O548 Co545 1.966 . S
O548 C546 1.263 . S
C549 O550 1.235 . S
C549 O576 1.289 . S
O550 C549 1.235 . S
C551 C553 1.400 . S
C551 N554 1.351 . S
C551 C556 1.501 . S
C552 C553 1.387 . S
C552 N555 1.341 . S
C553 C551 1.400 . S
C553 C552 1.387 . S
N554 Co545 2.022 . S
N554 C551 1.351 . S
N554 N555 1.365 . S
N555 C552 1.341 . S
N555 N554 1.365 . S
N555 H575 0.862 . S
C556 C551 1.501 . S
C556 H557 0.961 . S
C556 H558 0.961 . S
C556 H559 0.960 . S
H557 C556 0.961 . S
H558 C556 0.961 . S
H559 C556 0.960 . S
C560 N561 1.342 . S
C560 C564 1.401 . S
C560 C565 1.499 . S
N561 Co544 1.989 . S
N561 C560 1.342 . S
N561 N562 1.388 . S
N562 Co545 1.993 . S
N562 N561 1.388 . S
N562 C563 1.346 . S
C563 N562 1.346 . S
C563 C564 1.396 . S
C563 C573 1.510 . S
C564 C560 1.401 . S
C564 C563 1.396 . S
C565 C560 1.499 . S
C565 H566 0.959 . S
C565 H567 0.960 . S
C565 H568 0.961 . S
H566 C565 0.959 . S
H567 C565 0.960 . S
H568 C565 0.961 . S
O569 Co544 1.967 . S
O569 C577 1.258 . S
O570 Co545 1.941 . S
O570 C577 1.266 . S
H571 C573 0.959 . S
H572 C573 0.961 . S
C573 C563 1.510 . S
C573 H571 0.959 . S
C573 H572 0.961 . S
C573 H574 0.960 . S
H574 C573 0.960 . S
H575 N555 0.862 . S
O576 Co544 1.920 . S
O576 C549 1.289 . S
C577 O569 1.258 . S
C577 O570 1.266 . S
Co578 O581 1.970 . S
Co578 N595 1.989 . S
Co578 O603 1.967 . S
Co578 O610 1.920 . S
Co579 O582 1.966 . S
Co579 N588 2.022 . S
Co579 N596 1.993 . S
Co579 O604 1.941 . S
C580 O581 1.258 . S
C580 O582 1.263 . S
O581 Co578 1.970 . S
O581 C580 1.258 . S
O582 Co579 1.966 . S
O582 C580 1.263 . S
C583 O584 1.235 . S
C583 O610 1.289 . S
O584 C583 1.235 . S
C585 C587 1.400 . S
C585 N588 1.351 . S
C585 C590 1.501 . S
C586 C587 1.387 . S
C586 N589 1.341 . S
C587 C585 1.400 . S
C587 C586 1.387 . S
N588 Co579 2.022 . S
N588 C585 1.351 . S
N588 N589 1.365 . S
N589 C586 1.341 . S
N589 N588 1.365 . S
N589 H609 0.862 . S
C590 C585 1.501 . S
C590 H591 0.961 . S
C590 H592 0.961 . S
C590 H593 0.960 . S
H591 C590 0.961 . S
H592 C590 0.961 . S
H593 C590 0.960 . S
C594 N595 1.342 . S
C594 C598 1.401 . S
C594 C599 1.499 . S
N595 Co578 1.989 . S
N595 C594 1.342 . S
N595 N596 1.388 . S
N596 Co579 1.993 . S
N596 N595 1.388 . S
N596 C597 1.346 . S
C597 N596 1.346 . S
C597 C598 1.396 . S
C597 C607 1.510 . S
C598 C594 1.401 . S
C598 C597 1.396 . S
C599 C594 1.499 . S
C599 H600 0.959 . S
C599 H601 0.960 . S
C599 H602 0.961 . S
H600 C599 0.959 . S
H601 C599 0.960 . S
H602 C599 0.961 . S
O603 Co578 1.967 . S
O603 C611 1.258 . S
O604 Co579 1.941 . S
O604 C611 1.266 . S
H605 C607 0.959 . S
H606 C607 0.961 . S
C607 C597 1.510 . S
C607 H605 0.959 . S
C607 H606 0.961 . S
C607 H608 0.960 . S
H608 C607 0.960 . S
H609 N589 0.862 . S
O610 Co578 1.920 . S
O610 C583 1.289 . S
C611 O603 1.258 . S
C611 O604 1.266 . S
Co612 O615 1.970 . S
Co612 N629 1.989 . S
Co612 O637 1.967 . S
Co612 O644 1.920 . S
Co613 O616 1.966 . S
Co613 N622 2.022 . S
Co613 N630 1.993 . S
Co613 O638 1.941 . S
C614 O615 1.258 . S
C614 O616 1.263 . S
O615 Co612 1.970 . S
O615 C614 1.258 . S
O616 Co613 1.966 . S
O616 C614 1.263 . S
C617 O618 1.235 . S
C617 O644 1.289 . S
O618 C617 1.235 . S
C619 C621 1.400 . S
C619 N622 1.351 . S
C619 C624 1.501 . S
C620 C621 1.387 . S
C620 N623 1.341 . S
C621 C619 1.400 . S
C621 C620 1.387 . S
N622 Co613 2.022 . S
N622 C619 1.351 . S
N622 N623 1.365 . S
N623 C620 1.341 . S
N623 N622 1.365 . S
N623 H643 0.862 . S
C624 C619 1.501 . S
C624 H625 0.961 . S
C624 H626 0.961 . S
C624 H627 0.960 . S
H625 C624 0.961 . S
H626 C624 0.961 . S
H627 C624 0.960 . S
C628 N629 1.342 . S
C628 C632 1.401 . S
C628 C633 1.499 . S
N629 Co612 1.989 . S
N629 C628 1.342 . S
N629 N630 1.388 . S
N630 Co613 1.993 . S
N630 N629 1.388 . S
N630 C631 1.346 . S
C631 N630 1.346 . S
C631 C632 1.396 . S
C631 C641 1.510 . S
C632 C628 1.401 . S
C632 C631 1.396 . S
C633 C628 1.499 . S
C633 H634 0.959 . S
C633 H635 0.960 . S
C633 H636 0.961 . S
H634 C633 0.959 . S
H635 C633 0.960 . S
H636 C633 0.961 . S
O637 Co612 1.967 . S
O637 C645 1.258 . S
O638 Co613 1.941 . S
O638 C645 1.266 . S
H639 C641 0.959 . S
H640 C641 0.961 . S
C641 C631 1.510 . S
C641 H639 0.959 . S
C641 H640 0.961 . S
C641 H642 0.960 . S
H642 C641 0.960 . S
H643 N623 0.862 . S
O644 Co612 1.920 . S
O644 C617 1.289 . S
C645 O637 1.258 . S
C645 O638 1.266 . S
Co646 O649 1.970 . S
Co646 N663 1.989 . S
Co646 O671 1.967 . S
Co646 O678 1.920 . S
Co647 O650 1.966 . S
Co647 N656 2.022 . S
Co647 N664 1.993 . S
Co647 O672 1.941 . S
C648 O649 1.258 . S
C648 O650 1.263 . S
O649 Co646 1.970 . S
O649 C648 1.258 . S
O650 Co647 1.966 . S
O650 C648 1.263 . S
C651 O652 1.235 . S
C651 O678 1.289 . S
O652 C651 1.235 . S
C653 C655 1.400 . S
C653 N656 1.351 . S
C653 C658 1.501 . S
C654 C655 1.387 . S
C654 N657 1.341 . S
C655 C653 1.400 . S
C655 C654 1.387 . S
N656 Co647 2.022 . S
N656 C653 1.351 . S
N656 N657 1.365 . S
N657 C654 1.341 . S
N657 N656 1.365 . S
N657 H677 0.862 . S
C658 C653 1.501 . S
C658 H659 0.961 . S
C658 H660 0.961 . S
C658 H661 0.960 . S
H659 C658 0.961 . S
H660 C658 0.961 . S
H661 C658 0.960 . S
C662 N663 1.342 . S
C662 C666 1.401 . S
C662 C667 1.499 . S
N663 Co646 1.989 . S
N663 C662 1.342 . S
N663 N664 1.388 . S
N664 Co647 1.993 . S
N664 N663 1.388 . S
N664 C665 1.346 . S
C665 N664 1.346 . S
C665 C666 1.396 . S
C665 C675 1.510 . S
C666 C662 1.401 . S
C666 C665 1.396 . S
C667 C662 1.499 . S
C667 H668 0.959 . S
C667 H669 0.960 . S
C667 H670 0.961 . S
H668 C667 0.959 . S
H669 C667 0.960 . S
H670 C667 0.961 . S
O671 Co646 1.967 . S
O671 C679 1.258 . S
O672 Co647 1.941 . S
O672 C679 1.266 . S
H673 C675 0.959 . S
H674 C675 0.961 . S
C675 C665 1.510 . S
C675 H673 0.959 . S
C675 H674 0.961 . S
C675 H676 0.960 . S
H676 C675 0.960 . S
H677 N657 0.862 . S
O678 Co646 1.920 . S
O678 C651 1.289 . S
C679 O671 1.258 . S
C679 O672 1.266 . S
Co680 O683 1.970 . S
Co680 N697 1.989 . S
Co680 O705 1.967 . S
Co680 O712 1.920 . S
Co681 O684 1.966 . S
Co681 N690 2.022 . S
Co681 N698 1.993 . S
Co681 O706 1.941 . S
C682 O683 1.258 . S
C682 O684 1.263 . S
O683 Co680 1.970 . S
O683 C682 1.258 . S
O684 Co681 1.966 . S
O684 C682 1.263 . S
C685 O686 1.235 . S
C685 O712 1.289 . S
O686 C685 1.235 . S
C687 C689 1.400 . S
C687 N690 1.351 . S
C687 C692 1.501 . S
C688 C689 1.387 . S
C688 N691 1.341 . S
C689 C687 1.400 . S
C689 C688 1.387 . S
N690 Co681 2.022 . S
N690 C687 1.351 . S
N690 N691 1.365 . S
N691 C688 1.341 . S
N691 N690 1.365 . S
N691 H711 0.862 . S
C692 C687 1.501 . S
C692 H693 0.961 . S
C692 H694 0.961 . S
C692 H695 0.960 . S
H693 C692 0.961 . S
H694 C692 0.961 . S
H695 C692 0.960 . S
C696 N697 1.342 . S
C696 C700 1.401 . S
C696 C701 1.499 . S
N697 Co680 1.989 . S
N697 C696 1.342 . S
N697 N698 1.388 . S
N698 Co681 1.993 . S
N698 N697 1.388 . S
N698 C699 1.346 . S
C699 N698 1.346 . S
C699 C700 1.396 . S
C699 C709 1.510 . S
C700 C696 1.401 . S
C700 C699 1.396 . S
C701 C696 1.499 . S
C701 H702 0.959 . S
C701 H703 0.960 . S
C701 H704 0.961 . S
H702 C701 0.959 . S
H703 C701 0.960 . S
H704 C701 0.961 . S
O705 Co680 1.967 . S
O705 C713 1.258 . S
O706 Co681 1.941 . S
O706 C713 1.266 . S
H707 C709 0.959 . S
H708 C709 0.961 . S
C709 C699 1.510 . S
C709 H707 0.959 . S
C709 H708 0.961 . S
C709 H710 0.960 . S
H710 C709 0.960 . S
H711 N691 0.862 . S
O712 Co680 1.920 . S
O712 C685 1.289 . S
C713 O705 1.258 . S
C713 O706 1.266 . S
Co714 O717 1.970 . S
Co714 N731 1.989 . S
Co714 O739 1.967 . S
Co714 O746 1.920 . S
Co715 O718 1.966 . S
Co715 N724 2.022 . S
Co715 N732 1.993 . S
Co715 O740 1.941 . S
C716 O717 1.258 . S
C716 O718 1.263 . S
O717 Co714 1.970 . S
O717 C716 1.258 . S
O718 Co715 1.966 . S
O718 C716 1.263 . S
C719 O720 1.235 . S
C719 O746 1.289 1_565 S
O720 C719 1.235 . S
C721 C723 1.400 . S
C721 N724 1.351 . S
C721 C726 1.501 . S
C722 C723 1.387 . S
C722 N725 1.341 . S
C723 C721 1.400 . S
C723 C722 1.387 . S
N724 Co715 2.022 . S
N724 C721 1.351 . S
N724 N725 1.365 . S
N725 C722 1.341 . S
N725 N724 1.365 . S
N725 H745 0.862 . S
C726 C721 1.501 . S
C726 H727 0.961 . S
C726 H728 0.961 . S
C726 H729 0.960 . S
H727 C726 0.961 . S
H728 C726 0.961 . S
H729 C726 0.960 . S
C730 N731 1.342 . S
C730 C734 1.401 . S
C730 C735 1.499 . S
N731 Co714 1.989 . S
N731 C730 1.342 . S
N731 N732 1.388 . S
N732 Co715 1.993 . S
N732 N731 1.388 . S
N732 C733 1.346 . S
C733 N732 1.346 . S
C733 C734 1.396 . S
C733 C743 1.510 . S
C734 C730 1.401 . S
C734 C733 1.396 . S
C735 C730 1.499 . S
C735 H736 0.959 . S
C735 H737 0.960 1_545 S
C735 H738 0.961 . S
H736 C735 0.959 . S
H737 C735 0.960 1_565 S
H738 C735 0.961 . S
O739 Co714 1.967 . S
O739 C747 1.258 . S
O740 Co715 1.941 . S
O740 C747 1.266 . S
H741 C743 0.959 . S
H742 C743 0.961 . S
C743 C733 1.510 . S
C743 H741 0.959 . S
C743 H742 0.961 . S
C743 H744 0.960 . S
H744 C743 0.960 . S
H745 N725 0.862 . S
O746 Co714 1.920 . S
O746 C719 1.289 1_545 S
C747 O739 1.258 . S
C747 O740 1.266 . S
Co748 O751 1.970 . S
Co748 N765 1.989 . S
Co748 O773 1.967 . S
Co748 O780 1.920 . S
Co749 O752 1.966 . S
Co749 N758 2.022 . S
Co749 N766 1.993 . S
Co749 O774 1.941 . S
C750 O751 1.258 . S
C750 O752 1.263 . S
O751 Co748 1.970 . S
O751 C750 1.258 . S
O752 Co749 1.966 . S
O752 C750 1.263 . S
C753 O754 1.235 . S
C753 O780 1.289 1_455 S
O754 C753 1.235 . S
C755 C757 1.400 . S
C755 N758 1.351 . S
C755 C760 1.501 . S
C756 C757 1.387 . S
C756 N759 1.341 . S
C757 C755 1.400 . S
C757 C756 1.387 . S
N758 Co749 2.022 . S
N758 C755 1.351 . S
N758 N759 1.365 . S
N759 C756 1.341 . S
N759 N758 1.365 . S
N759 H779 0.862 . S
C760 C755 1.501 . S
C760 H761 0.961 . S
C760 H762 0.961 . S
C760 H763 0.960 . S
H761 C760 0.961 . S
H762 C760 0.961 . S
H763 C760 0.960 . S
C764 N765 1.342 . S
C764 C768 1.401 . S
C764 C769 1.499 . S
N765 Co748 1.989 . S
N765 C764 1.342 . S
N765 N766 1.388 . S
N766 Co749 1.993 . S
N766 N765 1.388 . S
N766 C767 1.346 . S
C767 N766 1.346 . S
C767 C768 1.396 . S
C767 C777 1.510 . S
C768 C764 1.401 . S
C768 C767 1.396 . S
C769 C764 1.499 . S
C769 H770 0.959 . S
C769 H771 0.960 1_655 S
C769 H772 0.961 . S
H770 C769 0.959 . S
H771 C769 0.960 1_455 S
H772 C769 0.961 . S
O773 Co748 1.967 . S
O773 C781 1.258 . S
O774 Co749 1.941 . S
O774 C781 1.266 . S
H775 C777 0.959 . S
H776 C777 0.961 . S
C777 C767 1.510 . S
C777 H775 0.959 . S
C777 H776 0.961 . S
C777 H778 0.960 . S
H778 C777 0.960 . S
H779 N759 0.862 . S
O780 Co748 1.920 . S
O780 C753 1.289 1_655 S
C781 O773 1.258 . S
C781 O774 1.266 . S
Co782 O785 1.970 . S
Co782 N799 1.989 . S
Co782 O807 1.967 . S
Co782 O814 1.920 . S
Co783 O786 1.966 . S
Co783 N792 2.022 . S
Co783 N800 1.993 . S
Co783 O808 1.941 . S
C784 O785 1.258 . S
C784 O786 1.263 . S
O785 Co782 1.970 . S
O785 C784 1.258 . S
O786 Co783 1.966 . S
O786 C784 1.263 . S
C787 O788 1.235 . S
C787 O814 1.289 . S
O788 C787 1.235 . S
C789 C791 1.400 . S
C789 N792 1.351 . S
C789 C794 1.501 . S
C790 C791 1.387 . S
C790 N793 1.341 . S
C791 C789 1.400 . S
C791 C790 1.387 . S
N792 Co783 2.022 . S
N792 C789 1.351 . S
N792 N793 1.365 . S
N793 C790 1.341 . S
N793 N792 1.365 . S
N793 H813 0.862 . S
C794 C789 1.501 . S
C794 H795 0.961 . S
C794 H796 0.961 . S
C794 H797 0.960 . S
H795 C794 0.961 . S
H796 C794 0.961 . S
H797 C794 0.960 . S
C798 N799 1.342 . S
C798 C802 1.401 . S
C798 C803 1.499 . S
N799 Co782 1.989 . S
N799 C798 1.342 . S
N799 N800 1.388 . S
N800 Co783 1.993 . S
N800 N799 1.388 . S
N800 C801 1.346 . S
C801 N800 1.346 . S
C801 C802 1.396 . S
C801 C811 1.510 . S
C802 C798 1.401 . S
C802 C801 1.396 . S
C803 C798 1.499 . S
C803 H804 0.959 . S
C803 H805 0.960 . S
C803 H806 0.961 . S
H804 C803 0.959 . S
H805 C803 0.960 . S
H806 C803 0.961 . S
O807 Co782 1.967 . S
O807 C815 1.258 . S
O808 Co783 1.941 . S
O808 C815 1.266 . S
H809 C811 0.959 . S
H810 C811 0.961 . S
C811 C801 1.510 . S
C811 H809 0.959 . S
C811 H810 0.961 . S
C811 H812 0.960 . S
H812 C811 0.960 . S
H813 N793 0.862 . S
O814 Co782 1.920 . S
O814 C787 1.289 . S
C815 O807 1.258 . S
C815 O808 1.266 . S
Co816 O819 1.970 . S
Co816 N833 1.989 . S
Co816 O841 1.967 . S
Co816 O848 1.920 . S
Co817 O820 1.966 . S
Co817 N826 2.022 . S
Co817 N834 1.993 . S
Co817 O842 1.941 . S
C818 O819 1.258 . S
C818 O820 1.263 . S
O819 Co816 1.970 . S
O819 C818 1.258 . S
O820 Co817 1.966 . S
O820 C818 1.263 . S
C821 O822 1.235 . S
C821 O848 1.289 . S
O822 C821 1.235 . S
C823 C825 1.400 . S
C823 N826 1.351 . S
C823 C828 1.501 . S
C824 C825 1.387 . S
C824 N827 1.341 . S
C825 C823 1.400 . S
C825 C824 1.387 . S
N826 Co817 2.022 . S
N826 C823 1.351 . S
N826 N827 1.365 . S
N827 C824 1.341 . S
N827 N826 1.365 . S
N827 H847 0.862 . S
C828 C823 1.501 . S
C828 H829 0.961 . S
C828 H830 0.961 . S
C828 H831 0.960 . S
H829 C828 0.961 . S
H830 C828 0.961 . S
H831 C828 0.960 . S
C832 N833 1.342 . S
C832 C836 1.401 . S
C832 C837 1.499 . S
N833 Co816 1.989 . S
N833 C832 1.342 . S
N833 N834 1.388 . S
N834 Co817 1.993 . S
N834 N833 1.388 . S
N834 C835 1.346 . S
C835 N834 1.346 . S
C835 C836 1.396 . S
C835 C845 1.510 . S
C836 C832 1.401 . S
C836 C835 1.396 . S
C837 C832 1.499 . S
C837 H838 0.959 . S
C837 H839 0.960 . S
C837 H840 0.961 . S
H838 C837 0.959 . S
H839 C837 0.960 . S
H840 C837 0.961 . S
O841 Co816 1.967 . S
O841 C849 1.258 . S
O842 Co817 1.941 . S
O842 C849 1.266 . S
H843 C845 0.959 . S
H844 C845 0.961 . S
C845 C835 1.510 . S
C845 H843 0.959 . S
C845 H844 0.961 . S
C845 H846 0.960 . S
H846 C845 0.960 . S
H847 N827 0.862 . S
O848 Co816 1.920 . S
O848 C821 1.289 . S
C849 O841 1.258 . S
C849 O842 1.266 . S
Co850 O853 1.970 . S
Co850 N867 1.989 . S
Co850 O875 1.967 . S
Co850 O882 1.920 . S
Co851 O854 1.966 . S
Co851 N860 2.022 . S
Co851 N868 1.993 . S
Co851 O876 1.941 . S
C852 O853 1.258 . S
C852 O854 1.263 . S
O853 Co850 1.970 . S
O853 C852 1.258 . S
O854 Co851 1.966 . S
O854 C852 1.263 . S
C855 O856 1.235 . S
C855 O882 1.289 . S
O856 C855 1.235 . S
C857 C859 1.400 . S
C857 N860 1.351 . S
C857 C862 1.501 . S
C858 C859 1.387 . S
C858 N861 1.341 . S
C859 C857 1.400 . S
C859 C858 1.387 . S
N860 Co851 2.022 . S
N860 C857 1.351 . S
N860 N861 1.365 . S
N861 C858 1.341 . S
N861 N860 1.365 . S
N861 H881 0.862 . S
C862 C857 1.501 . S
C862 H863 0.961 . S
C862 H864 0.961 . S
C862 H865 0.960 . S
H863 C862 0.961 . S
H864 C862 0.961 . S
H865 C862 0.960 . S
C866 N867 1.342 . S
C866 C870 1.401 . S
C866 C871 1.499 . S
N867 Co850 1.989 . S
N867 C866 1.342 . S
N867 N868 1.388 . S
N868 Co851 1.993 . S
N868 N867 1.388 . S
N868 C869 1.346 . S
C869 N868 1.346 . S
C869 C870 1.396 . S
C869 C879 1.510 . S
C870 C866 1.401 . S
C870 C869 1.396 . S
C871 C866 1.499 . S
C871 H872 0.959 . S
C871 H873 0.960 . S
C871 H874 0.961 . S
H872 C871 0.959 . S
H873 C871 0.960 . S
H874 C871 0.961 . S
O875 Co850 1.967 . S
O875 C883 1.258 . S
O876 Co851 1.941 . S
O876 C883 1.266 . S
H877 C879 0.959 . S
H878 C879 0.961 . S
C879 C869 1.510 . S
C879 H877 0.959 . S
C879 H878 0.961 . S
C879 H880 0.960 . S
H880 C879 0.960 . S
H881 N861 0.862 . S
O882 Co850 1.920 . S
O882 C855 1.289 . S
C883 O875 1.258 . S
C883 O876 1.266 . S
Co884 O887 1.970 . S
Co884 N901 1.989 . S
Co884 O909 1.967 . S
Co884 O916 1.920 . S
Co885 O888 1.966 . S
Co885 N894 2.022 . S
Co885 N902 1.993 . S
Co885 O910 1.941 . S
C886 O887 1.258 . S
C886 O888 1.263 . S
O887 Co884 1.970 . S
O887 C886 1.258 . S
O888 Co885 1.966 . S
O888 C886 1.263 . S
C889 O890 1.235 . S
C889 O916 1.289 . S
O890 C889 1.235 . S
C891 C893 1.400 . S
C891 N894 1.351 . S
C891 C896 1.501 . S
C892 C893 1.387 . S
C892 N895 1.341 . S
C893 C891 1.400 . S
C893 C892 1.387 . S
N894 Co885 2.022 . S
N894 C891 1.351 . S
N894 N895 1.365 . S
N895 C892 1.341 . S
N895 N894 1.365 . S
N895 H915 0.862 . S
C896 C891 1.501 . S
C896 H897 0.961 . S
C896 H898 0.961 . S
C896 H899 0.960 . S
H897 C896 0.961 . S
H898 C896 0.961 . S
H899 C896 0.960 . S
C900 N901 1.342 . S
C900 C904 1.401 . S
C900 C905 1.499 . S
N901 Co884 1.989 . S
N901 C900 1.342 . S
N901 N902 1.388 . S
N902 Co885 1.993 . S
N902 N901 1.388 . S
N902 C903 1.346 . S
C903 N902 1.346 . S
C903 C904 1.396 . S
C903 C913 1.510 . S
C904 C900 1.401 . S
C904 C903 1.396 . S
C905 C900 1.499 . S
C905 H906 0.959 . S
C905 H907 0.960 . S
C905 H908 0.961 . S
H906 C905 0.959 . S
H907 C905 0.960 . S
H908 C905 0.961 . S
O909 Co884 1.967 . S
O909 C917 1.258 . S
O910 Co885 1.941 . S
O910 C917 1.266 . S
H911 C913 0.959 . S
H912 C913 0.961 . S
C913 C903 1.510 . S
C913 H911 0.959 . S
C913 H912 0.961 . S
C913 H914 0.960 . S
H914 C913 0.960 . S
H915 N895 0.862 . S
O916 Co884 1.920 . S
O916 C889 1.289 . S
C917 O909 1.258 . S
C917 O910 1.266 . S
Co918 O921 1.970 . S
Co918 N935 1.989 . S
Co918 O943 1.967 . S
Co918 O950 1.920 . S
Co919 O922 1.966 . S
Co919 N928 2.022 . S
Co919 N936 1.993 . S
Co919 O944 1.941 . S
C920 O921 1.258 . S
C920 O922 1.263 . S
O921 Co918 1.970 . S
O921 C920 1.258 . S
O922 Co919 1.966 . S
O922 C920 1.263 . S
C923 O924 1.235 . S
C923 O950 1.289 1_545 S
O924 C923 1.235 . S
C925 C927 1.400 . S
C925 N928 1.351 . S
C925 C930 1.501 . S
C926 C927 1.387 . S
C926 N929 1.341 . S
C927 C925 1.400 . S
C927 C926 1.387 . S
N928 Co919 2.022 . S
N928 C925 1.351 . S
N928 N929 1.365 . S
N929 C926 1.341 . S
N929 N928 1.365 . S
N929 H949 0.862 . S
C930 C925 1.501 . S
C930 H931 0.961 . S
C930 H932 0.961 . S
C930 H933 0.960 . S
H931 C930 0.961 . S
H932 C930 0.961 . S
H933 C930 0.960 . S
C934 N935 1.342 . S
C934 C938 1.401 . S
C934 C939 1.499 . S
N935 Co918 1.989 . S
N935 C934 1.342 . S
N935 N936 1.388 . S
N936 Co919 1.993 . S
N936 N935 1.388 . S
N936 C937 1.346 . S
C937 N936 1.346 . S
C937 C938 1.396 . S
C937 C947 1.510 . S
C938 C934 1.401 . S
C938 C937 1.396 . S
C939 C934 1.499 . S
C939 H940 0.959 . S
C939 H941 0.960 1_565 S
C939 H942 0.961 . S
H940 C939 0.959 . S
H941 C939 0.960 1_545 S
H942 C939 0.961 . S
O943 Co918 1.967 . S
O943 C951 1.258 . S
O944 Co919 1.941 . S
O944 C951 1.266 . S
H945 C947 0.959 . S
H946 C947 0.961 . S
C947 C937 1.510 . S
C947 H945 0.959 . S
C947 H946 0.961 . S
C947 H948 0.960 . S
H948 C947 0.960 . S
H949 N929 0.862 . S
O950 Co918 1.920 . S
O950 C923 1.289 1_565 S
C951 O943 1.258 . S
C951 O944 1.266 . S
Co952 O955 1.970 . S
Co952 N969 1.989 . S
Co952 O977 1.967 . S
Co952 O984 1.920 . S
Co953 O956 1.966 . S
Co953 N962 2.022 . S
Co953 N970 1.993 . S
Co953 O978 1.941 . S
C954 O955 1.258 . S
C954 O956 1.263 . S
O955 Co952 1.970 . S
O955 C954 1.258 . S
O956 Co953 1.966 . S
O956 C954 1.263 . S
C957 O958 1.235 . S
C957 O984 1.289 1_655 S
O958 C957 1.235 . S
C959 C961 1.400 . S
C959 N962 1.351 . S
C959 C964 1.501 . S
C960 C961 1.387 . S
C960 N963 1.341 . S
C961 C959 1.400 . S
C961 C960 1.387 . S
N962 Co953 2.022 . S
N962 C959 1.351 . S
N962 N963 1.365 . S
N963 C960 1.341 . S
N963 N962 1.365 . S
N963 H983 0.862 . S
C964 C959 1.501 . S
C964 H965 0.961 . S
C964 H966 0.961 . S
C964 H967 0.960 . S
H965 C964 0.961 . S
H966 C964 0.961 . S
H967 C964 0.960 . S
C968 N969 1.342 . S
C968 C972 1.401 . S
C968 C973 1.499 . S
N969 Co952 1.989 . S
N969 C968 1.342 . S
N969 N970 1.388 . S
N970 Co953 1.993 . S
N970 N969 1.388 . S
N970 C971 1.346 . S
C971 N970 1.346 . S
C971 C972 1.396 . S
C971 C981 1.510 . S
C972 C968 1.401 . S
C972 C971 1.396 . S
C973 C968 1.499 . S
C973 H974 0.959 . S
C973 H975 0.960 1_455 S
C973 H976 0.961 . S
H974 C973 0.959 . S
H975 C973 0.960 1_655 S
H976 C973 0.961 . S
O977 Co952 1.967 . S
O977 C985 1.258 . S
O978 Co953 1.941 . S
O978 C985 1.266 . S
H979 C981 0.959 . S
H980 C981 0.961 . S
C981 C971 1.510 . S
C981 H979 0.959 . S
C981 H980 0.961 . S
C981 H982 0.960 . S
H982 C981 0.960 . S
H983 N963 0.862 . S
O984 Co952 1.920 . S
O984 C957 1.289 1_455 S
C985 O977 1.258 . S
C985 O978 1.266 . S
Co986 O989 1.970 . S
Co986 N1003 1.989 . S
Co986 O1011 1.967 . S
Co986 O1018 1.920 . S
Co987 O990 1.966 . S
Co987 N996 2.022 . S
Co987 N1004 1.993 . S
Co987 O1012 1.941 . S
C988 O989 1.258 . S
C988 O990 1.263 . S
O989 Co986 1.970 . S
O989 C988 1.258 . S
O990 Co987 1.966 . S
O990 C988 1.263 . S
C991 O992 1.235 . S
C991 O1018 1.289 . S
O992 C991 1.235 . S
C993 C995 1.400 . S
C993 N996 1.351 . S
C993 C998 1.501 . S
C994 C995 1.387 . S
C994 N997 1.341 . S
C995 C993 1.400 . S
C995 C994 1.387 . S
N996 Co987 2.022 . S
N996 C993 1.351 . S
N996 N997 1.365 . S
N997 C994 1.341 . S
N997 N996 1.365 . S
N997 H1017 0.862 . S
C998 C993 1.501 . S
C998 H999 0.961 . S
C998 H1000 0.961 . S
C998 H1001 0.960 . S
H999 C998 0.961 . S
H1000 C998 0.961 . S
H1001 C998 0.960 . S
C1002 N1003 1.342 . S
C1002 C1006 1.401 . S
C1002 C1007 1.499 . S
N1003 Co986 1.989 . S
N1003 C1002 1.342 . S
N1003 N1004 1.388 . S
N1004 Co987 1.993 . S
N1004 N1003 1.388 . S
N1004 C1005 1.346 . S
C1005 N1004 1.346 . S
C1005 C1006 1.396 . S
C1005 C1015 1.510 . S
C1006 C1002 1.401 . S
C1006 C1005 1.396 . S
C1007 C1002 1.499 . S
C1007 H1008 0.959 . S
C1007 H1009 0.960 . S
C1007 H1010 0.961 . S
H1008 C1007 0.959 . S
H1009 C1007 0.960 . S
H1010 C1007 0.961 . S
O1011 Co986 1.967 . S
O1011 C1019 1.258 . S
O1012 Co987 1.941 . S
O1012 C1019 1.266 . S
H1013 C1015 0.959 . S
H1014 C1015 0.961 . S
C1015 C1005 1.510 . S
C1015 H1013 0.959 . S
C1015 H1014 0.961 . S
C1015 H1016 0.960 . S
H1016 C1015 0.960 . S
H1017 N997 0.862 . S
O1018 Co986 1.920 . S
O1018 C991 1.289 . S
C1019 O1011 1.258 . S
C1019 O1012 1.266 . S
Co1020 O1023 1.970 . S
Co1020 N1037 1.989 . S
Co1020 O1045 1.967 . S
Co1020 O1052 1.920 . S
Co1021 O1024 1.966 . S
Co1021 N1030 2.022 . S
Co1021 N1038 1.993 . S
Co1021 O1046 1.941 . S
C1022 O1023 1.258 . S
C1022 O1024 1.263 . S
O1023 Co1020 1.970 . S
O1023 C1022 1.258 . S
O1024 Co1021 1.966 . S
O1024 C1022 1.263 . S
C1025 O1026 1.235 . S
C1025 O1052 1.289 1_655 S
O1026 C1025 1.235 . S
C1027 C1029 1.400 . S
C1027 N1030 1.351 . S
C1027 C1032 1.501 . S
C1028 C1029 1.387 . S
C1028 N1031 1.341 . S
C1029 C1027 1.400 . S
C1029 C1028 1.387 . S
N1030 Co1021 2.022 . S
N1030 C1027 1.351 . S
N1030 N1031 1.365 . S
N1031 C1028 1.341 . S
N1031 N1030 1.365 . S
N1031 H1051 0.862 . S
C1032 C1027 1.501 . S
C1032 H1033 0.961 . S
C1032 H1034 0.961 . S
C1032 H1035 0.960 . S
H1033 C1032 0.961 . S
H1034 C1032 0.961 . S
H1035 C1032 0.960 . S
C1036 N1037 1.342 . S
C1036 C1040 1.401 . S
C1036 C1041 1.499 . S
N1037 Co1020 1.989 . S
N1037 C1036 1.342 . S
N1037 N1038 1.388 . S
N1038 Co1021 1.993 . S
N1038 N1037 1.388 . S
N1038 C1039 1.346 . S
C1039 N1038 1.346 . S
C1039 C1040 1.396 . S
C1039 C1049 1.510 . S
C1040 C1036 1.401 . S
C1040 C1039 1.396 . S
C1041 C1036 1.499 . S
C1041 H1042 0.959 . S
C1041 H1043 0.960 1_455 S
C1041 H1044 0.961 . S
H1042 C1041 0.959 . S
H1043 C1041 0.960 1_655 S
H1044 C1041 0.961 . S
O1045 Co1020 1.967 . S
O1045 C1053 1.258 . S
O1046 Co1021 1.941 . S
O1046 C1053 1.266 . S
H1047 C1049 0.959 . S
H1048 C1049 0.961 . S
C1049 C1039 1.510 . S
C1049 H1047 0.959 . S
C1049 H1048 0.961 . S
C1049 H1050 0.960 . S
H1050 C1049 0.960 . S
H1051 N1031 0.862 . S
O1052 Co1020 1.920 . S
O1052 C1025 1.289 1_455 S
C1053 O1045 1.258 . S
C1053 O1046 1.266 . S
Co1054 O1057 1.970 . S
Co1054 N1071 1.989 . S
Co1054 O1079 1.967 . S
Co1054 O1086 1.920 . S
Co1055 O1058 1.966 . S
Co1055 N1064 2.022 . S
Co1055 N1072 1.993 . S
Co1055 O1080 1.941 . S
C1056 O1057 1.258 . S
C1056 O1058 1.263 . S
O1057 Co1054 1.970 . S
O1057 C1056 1.258 . S
O1058 Co1055 1.966 . S
O1058 C1056 1.263 . S
C1059 O1060 1.235 . S
C1059 O1086 1.289 . S
O1060 C1059 1.235 . S
C1061 C1063 1.400 . S
C1061 N1064 1.351 . S
C1061 C1066 1.501 . S
C1062 C1063 1.387 . S
C1062 N1065 1.341 . S
C1063 C1061 1.400 . S
C1063 C1062 1.387 . S
N1064 Co1055 2.022 . S
N1064 C1061 1.351 . S
N1064 N1065 1.365 . S
N1065 C1062 1.341 . S
N1065 N1064 1.365 . S
N1065 H1085 0.862 . S
C1066 C1061 1.501 . S
C1066 H1067 0.961 . S
C1066 H1068 0.961 . S
C1066 H1069 0.960 . S
H1067 C1066 0.961 . S
H1068 C1066 0.961 . S
H1069 C1066 0.960 . S
C1070 N1071 1.342 . S
C1070 C1074 1.401 . S
C1070 C1075 1.499 . S
N1071 Co1054 1.989 . S
N1071 C1070 1.342 . S
N1071 N1072 1.388 . S
N1072 Co1055 1.993 . S
N1072 N1071 1.388 . S
N1072 C1073 1.346 . S
C1073 N1072 1.346 . S
C1073 C1074 1.396 . S
C1073 C1083 1.510 . S
C1074 C1070 1.401 . S
C1074 C1073 1.396 . S
C1075 C1070 1.499 . S
C1075 H1076 0.959 . S
C1075 H1077 0.960 . S
C1075 H1078 0.961 . S
H1076 C1075 0.959 . S
H1077 C1075 0.960 . S
H1078 C1075 0.961 . S
O1079 Co1054 1.967 . S
O1079 C1087 1.258 . S
O1080 Co1055 1.941 . S
O1080 C1087 1.266 . S
H1081 C1083 0.959 . S
H1082 C1083 0.961 . S
C1083 C1073 1.510 . S
C1083 H1081 0.959 . S
C1083 H1082 0.961 . S
C1083 H1084 0.960 . S
H1084 C1083 0.960 . S
H1085 N1065 0.862 . S
O1086 Co1054 1.920 . S
O1086 C1059 1.289 . S
C1087 O1079 1.258 . S
C1087 O1080 1.266 . S
Co1088 O1091 1.970 . S
Co1088 N1105 1.989 . S
Co1088 O1113 1.967 . S
Co1088 O1120 1.920 . S
Co1089 O1092 1.966 . S
Co1089 N1098 2.022 . S
Co1089 N1106 1.993 . S
Co1089 O1114 1.941 . S
C1090 O1091 1.258 . S
C1090 O1092 1.263 . S
O1091 Co1088 1.970 . S
O1091 C1090 1.258 . S
O1092 Co1089 1.966 . S
O1092 C1090 1.263 . S
C1093 O1094 1.235 . S
C1093 O1120 1.289 1_545 S
O1094 C1093 1.235 . S
C1095 C1097 1.400 . S
C1095 N1098 1.351 . S
C1095 C1100 1.501 . S
C1096 C1097 1.387 . S
C1096 N1099 1.341 . S
C1097 C1095 1.400 . S
C1097 C1096 1.387 . S
N1098 Co1089 2.022 . S
N1098 C1095 1.351 . S
N1098 N1099 1.365 . S
N1099 C1096 1.341 . S
N1099 N1098 1.365 . S
N1099 H1119 0.862 . S
C1100 C1095 1.501 . S
C1100 H1101 0.961 . S
C1100 H1102 0.961 . S
C1100 H1103 0.960 . S
H1101 C1100 0.961 . S
H1102 C1100 0.961 . S
H1103 C1100 0.960 . S
C1104 N1105 1.342 . S
C1104 C1108 1.401 . S
C1104 C1109 1.499 . S
N1105 Co1088 1.989 . S
N1105 C1104 1.342 . S
N1105 N1106 1.388 . S
N1106 Co1089 1.993 . S
N1106 N1105 1.388 . S
N1106 C1107 1.346 . S
C1107 N1106 1.346 . S
C1107 C1108 1.396 . S
C1107 C1117 1.510 . S
C1108 C1104 1.401 . S
C1108 C1107 1.396 . S
C1109 C1104 1.499 . S
C1109 H1110 0.959 . S
C1109 H1111 0.960 1_565 S
C1109 H1112 0.961 . S
H1110 C1109 0.959 . S
H1111 C1109 0.960 1_545 S
H1112 C1109 0.961 . S
O1113 Co1088 1.967 . S
O1113 C1121 1.258 . S
O1114 Co1089 1.941 . S
O1114 C1121 1.266 . S
H1115 C1117 0.959 . S
H1116 C1117 0.961 . S
C1117 C1107 1.510 . S
C1117 H1115 0.959 . S
C1117 H1116 0.961 . S
C1117 H1118 0.960 . S
H1118 C1117 0.960 . S
H1119 N1099 0.862 . S
O1120 Co1088 1.920 . S
O1120 C1093 1.289 1_565 S
C1121 O1113 1.258 . S
C1121 O1114 1.266 . S
Co1122 O1125 1.970 . S
Co1122 N1139 1.989 . S
Co1122 O1147 1.967 . S
Co1122 O1154 1.920 . S
Co1123 O1126 1.966 . S
Co1123 N1132 2.022 . S
Co1123 N1140 1.993 . S
Co1123 O1148 1.941 . S
C1124 O1125 1.258 . S
C1124 O1126 1.263 . S
O1125 Co1122 1.970 . S
O1125 C1124 1.258 . S
O1126 Co1123 1.966 . S
O1126 C1124 1.263 . S
C1127 O1128 1.235 . S
C1127 O1154 1.289 . S
O1128 C1127 1.235 . S
C1129 C1131 1.400 . S
C1129 N1132 1.351 . S
C1129 C1134 1.501 . S
C1130 C1131 1.387 . S
C1130 N1133 1.341 . S
C1131 C1129 1.400 . S
C1131 C1130 1.387 . S
N1132 Co1123 2.022 . S
N1132 C1129 1.351 . S
N1132 N1133 1.365 . S
N1133 C1130 1.341 . S
N1133 N1132 1.365 . S
N1133 H1153 0.862 . S
C1134 C1129 1.501 . S
C1134 H1135 0.961 . S
C1134 H1136 0.961 . S
C1134 H1137 0.960 . S
H1135 C1134 0.961 . S
H1136 C1134 0.961 . S
H1137 C1134 0.960 . S
C1138 N1139 1.342 . S
C1138 C1142 1.401 . S
C1138 C1143 1.499 . S
N1139 Co1122 1.989 . S
N1139 C1138 1.342 . S
N1139 N1140 1.388 . S
N1140 Co1123 1.993 . S
N1140 N1139 1.388 . S
N1140 C1141 1.346 . S
C1141 N1140 1.346 . S
C1141 C1142 1.396 . S
C1141 C1151 1.510 . S
C1142 C1138 1.401 . S
C1142 C1141 1.396 . S
C1143 C1138 1.499 . S
C1143 H1144 0.959 . S
C1143 H1145 0.960 . S
C1143 H1146 0.961 . S
H1144 C1143 0.959 . S
H1145 C1143 0.960 . S
H1146 C1143 0.961 . S
O1147 Co1122 1.967 . S
O1147 C1155 1.258 . S
O1148 Co1123 1.941 . S
O1148 C1155 1.266 . S
H1149 C1151 0.959 . S
H1150 C1151 0.961 . S
C1151 C1141 1.510 . S
C1151 H1149 0.959 . S
C1151 H1150 0.961 . S
C1151 H1152 0.960 . S
H1152 C1151 0.960 . S
H1153 N1133 0.862 . S
O1154 Co1122 1.920 . S
O1154 C1127 1.289 . S
C1155 O1147 1.258 . S
C1155 O1148 1.266 . S
Co1156 O1159 1.970 . S
Co1156 N1173 1.989 . S
Co1156 O1181 1.967 . S
Co1156 O1188 1.920 . S
Co1157 O1160 1.966 . S
Co1157 N1166 2.022 . S
Co1157 N1174 1.993 . S
Co1157 O1182 1.941 . S
C1158 O1159 1.258 . S
C1158 O1160 1.263 . S
O1159 Co1156 1.970 . S
O1159 C1158 1.258 . S
O1160 Co1157 1.966 . S
O1160 C1158 1.263 . S
C1161 O1162 1.235 . S
C1161 O1188 1.289 . S
O1162 C1161 1.235 . S
C1163 C1165 1.400 . S
C1163 N1166 1.351 . S
C1163 C1168 1.501 . S
C1164 C1165 1.387 . S
C1164 N1167 1.341 . S
C1165 C1163 1.400 . S
C1165 C1164 1.387 . S
N1166 Co1157 2.022 . S
N1166 C1163 1.351 . S
N1166 N1167 1.365 . S
N1167 C1164 1.341 . S
N1167 N1166 1.365 . S
N1167 H1187 0.862 . S
C1168 C1163 1.501 . S
C1168 H1169 0.961 . S
C1168 H1170 0.961 . S
C1168 H1171 0.960 . S
H1169 C1168 0.961 . S
H1170 C1168 0.961 . S
H1171 C1168 0.960 . S
C1172 N1173 1.342 . S
C1172 C1176 1.401 . S
C1172 C1177 1.499 . S
N1173 Co1156 1.989 . S
N1173 C1172 1.342 . S
N1173 N1174 1.388 . S
N1174 Co1157 1.993 . S
N1174 N1173 1.388 . S
N1174 C1175 1.346 . S
C1175 N1174 1.346 . S
C1175 C1176 1.396 . S
C1175 C1185 1.510 . S
C1176 C1172 1.401 . S
C1176 C1175 1.396 . S
C1177 C1172 1.499 . S
C1177 H1178 0.959 . S
C1177 H1179 0.960 . S
C1177 H1180 0.961 . S
H1178 C1177 0.959 . S
H1179 C1177 0.960 . S
H1180 C1177 0.961 . S
O1181 Co1156 1.967 . S
O1181 C1189 1.258 . S
O1182 Co1157 1.941 . S
O1182 C1189 1.266 . S
H1183 C1185 0.959 . S
H1184 C1185 0.961 . S
C1185 C1175 1.510 . S
C1185 H1183 0.959 . S
C1185 H1184 0.961 . S
C1185 H1186 0.960 . S
H1186 C1185 0.960 . S
H1187 N1167 0.862 . S
O1188 Co1156 1.920 . S
O1188 C1161 1.289 . S
C1189 O1181 1.258 . S
C1189 O1182 1.266 . S
Co1190 O1193 1.970 . S
Co1190 N1207 1.989 . S
Co1190 O1215 1.967 . S
Co1190 O1222 1.920 . S
Co1191 O1194 1.966 . S
Co1191 N1200 2.022 . S
Co1191 N1208 1.993 . S
Co1191 O1216 1.941 . S
C1192 O1193 1.258 . S
C1192 O1194 1.263 . S
O1193 Co1190 1.970 . S
O1193 C1192 1.258 . S
O1194 Co1191 1.966 . S
O1194 C1192 1.263 . S
C1195 O1196 1.235 . S
C1195 O1222 1.289 . S
O1196 C1195 1.235 . S
C1197 C1199 1.400 . S
C1197 N1200 1.351 . S
C1197 C1202 1.501 . S
C1198 C1199 1.387 . S
C1198 N1201 1.341 . S
C1199 C1197 1.400 . S
C1199 C1198 1.387 . S
N1200 Co1191 2.022 . S
N1200 C1197 1.351 . S
N1200 N1201 1.365 . S
N1201 C1198 1.341 . S
N1201 N1200 1.365 . S
N1201 H1221 0.862 . S
C1202 C1197 1.501 . S
C1202 H1203 0.961 . S
C1202 H1204 0.961 . S
C1202 H1205 0.960 . S
H1203 C1202 0.961 . S
H1204 C1202 0.961 . S
H1205 C1202 0.960 . S
C1206 N1207 1.342 . S
C1206 C1210 1.401 . S
C1206 C1211 1.499 . S
N1207 Co1190 1.989 . S
N1207 C1206 1.342 . S
N1207 N1208 1.388 . S
N1208 Co1191 1.993 . S
N1208 N1207 1.388 . S
N1208 C1209 1.346 . S
C1209 N1208 1.346 . S
C1209 C1210 1.396 . S
C1209 C1219 1.510 . S
C1210 C1206 1.401 . S
C1210 C1209 1.396 . S
C1211 C1206 1.499 . S
C1211 H1212 0.959 . S
C1211 H1213 0.960 . S
C1211 H1214 0.961 . S
H1212 C1211 0.959 . S
H1213 C1211 0.960 . S
H1214 C1211 0.961 . S
O1215 Co1190 1.967 . S
O1215 C1223 1.258 . S
O1216 Co1191 1.941 . S
O1216 C1223 1.266 . S
H1217 C1219 0.959 . S
H1218 C1219 0.961 . S
C1219 C1209 1.510 . S
C1219 H1217 0.959 . S
C1219 H1218 0.961 . S
C1219 H1220 0.960 . S
H1220 C1219 0.960 . S
H1221 N1201 0.862 . S
O1222 Co1190 1.920 . S
O1222 C1195 1.289 . S
C1223 O1215 1.258 . S
C1223 O1216 1.266 . S
H1224 C1230 0.930 . S
H1225 C1233 0.930 . S
H1226 C1234 0.930 . S
H1227 C1235 0.930 . S
H1228 C1238 0.930 . S
H1229 C1239 0.930 . S
C1230 H1224 0.930 . S
C1230 C1231 1.355 . S
C1230 C1232 1.415 . S
C1231 C1230 1.355 . S
C1231 C1233 1.419 . S
C1232 C1230 1.415 . S
C1232 C1237 1.425 . S
C1232 C1239 1.409 . S
C1233 H1225 0.930 . S
C1233 C1231 1.419 . S
C1233 C1234 1.362 . S
C1234 H1226 0.930 . S
C1234 C1233 1.362 . S
C1234 C1237 1.409 . S
C1235 H1227 0.930 . S
C1235 C1236 1.355 . S
C1235 C1237 1.415 . S
C1236 C1235 1.355 . S
C1236 C1238 1.419 . S
C1237 C1232 1.425 . S
C1237 C1234 1.409 . S
C1237 C1235 1.415 . S
C1238 H1228 0.930 . S
C1238 C1236 1.419 . S
C1238 C1239 1.362 . S
C1239 H1229 0.930 . S
C1239 C1232 1.409 . S
C1239 C1238 1.362 . S
H1240 C1246 0.930 . S
H1241 C1249 0.930 . S
H1242 C1250 0.930 . S
H1243 C1251 0.930 . S
H1244 C1254 0.930 . S
H1245 C1255 0.930 . S
C1246 H1240 0.930 . S
C1246 C1247 1.355 . S
C1246 C1248 1.415 . S
C1247 C1246 1.355 . S
C1247 C1249 1.419 . S
C1248 C1246 1.415 . S
C1248 C1253 1.425 . S
C1248 C1255 1.409 . S
C1249 H1241 0.930 . S
C1249 C1247 1.419 . S
C1249 C1250 1.362 . S
C1250 H1242 0.930 . S
C1250 C1249 1.362 . S
C1250 C1253 1.409 . S
C1251 H1243 0.930 . S
C1251 C1252 1.355 . S
C1251 C1253 1.415 . S
C1252 C1251 1.355 . S
C1252 C1254 1.419 . S
C1253 C1248 1.425 . S
C1253 C1250 1.409 . S
C1253 C1251 1.415 . S
C1254 H1244 0.930 . S
C1254 C1252 1.419 . S
C1254 C1255 1.362 . S
C1255 H1245 0.930 . S
C1255 C1248 1.409 . S
C1255 C1254 1.362 . S
H1256 C1262 0.930 . S
H1257 C1265 0.930 . S
H1258 C1266 0.930 . S
H1259 C1267 0.930 . S
H1260 C1270 0.930 . S
H1261 C1271 0.930 . S
C1262 H1256 0.930 . S
C1262 C1263 1.355 . S
C1262 C1264 1.415 . S
C1263 C1262 1.355 . S
C1263 C1265 1.419 . S
C1264 C1262 1.415 . S
C1264 C1269 1.425 . S
C1264 C1271 1.409 . S
C1265 H1257 0.930 . S
C1265 C1263 1.419 . S
C1265 C1266 1.362 . S
C1266 H1258 0.930 . S
C1266 C1265 1.362 . S
C1266 C1269 1.409 . S
C1267 H1259 0.930 . S
C1267 C1268 1.355 . S
C1267 C1269 1.415 . S
C1268 C1267 1.355 . S
C1268 C1270 1.419 . S
C1269 C1264 1.425 . S
C1269 C1266 1.409 . S
C1269 C1267 1.415 . S
C1270 H1260 0.930 . S
C1270 C1268 1.419 . S
C1270 C1271 1.362 . S
C1271 H1261 0.930 . S
C1271 C1264 1.409 . S
C1271 C1270 1.362 . S
H1272 C1278 0.930 . S
H1273 C1281 0.930 . S
H1274 C1282 0.930 . S
H1275 C1283 0.930 . S
H1276 C1286 0.930 . S
H1277 C1287 0.930 . S
C1278 H1272 0.930 . S
C1278 C1279 1.355 . S
C1278 C1280 1.415 . S
C1279 C1278 1.355 . S
C1279 C1281 1.419 . S
C1280 C1278 1.415 . S
C1280 C1285 1.425 . S
C1280 C1287 1.409 . S
C1281 H1273 0.930 . S
C1281 C1279 1.419 . S
C1281 C1282 1.362 . S
C1282 H1274 0.930 . S
C1282 C1281 1.362 . S
C1282 C1285 1.409 . S
C1283 H1275 0.930 . S
C1283 C1284 1.355 . S
C1283 C1285 1.415 . S
C1284 C1283 1.355 . S
C1284 C1286 1.419 . S
C1285 C1280 1.425 . S
C1285 C1282 1.409 . S
C1285 C1283 1.415 . S
C1286 H1276 0.930 . S
C1286 C1284 1.419 . S
C1286 C1287 1.362 . S
C1287 H1277 0.930 . S
C1287 C1280 1.409 . S
C1287 C1286 1.362 . S
H1288 C1294 0.930 . S
H1289 C1297 0.930 . S
H1290 C1298 0.930 . S
H1291 C1299 0.930 . S
H1292 C1302 0.930 . S
H1293 C1303 0.930 . S
C1294 H1288 0.930 . S
C1294 C1295 1.355 . S
C1294 C1296 1.415 . S
C1295 C1294 1.355 . S
C1295 C1297 1.419 . S
C1296 C1294 1.415 . S
C1296 C1301 1.425 . S
C1296 C1303 1.409 . S
C1297 H1289 0.930 . S
C1297 C1295 1.419 . S
C1297 C1298 1.362 . S
C1298 H1290 0.930 . S
C1298 C1297 1.362 . S
C1298 C1301 1.409 . S
C1299 H1291 0.930 . S
C1299 C1300 1.355 . S
C1299 C1301 1.415 . S
C1300 C1299 1.355 . S
C1300 C1302 1.419 . S
C1301 C1296 1.425 . S
C1301 C1298 1.409 . S
C1301 C1299 1.415 . S
C1302 H1292 0.930 . S
C1302 C1300 1.419 . S
C1302 C1303 1.362 . S
C1303 H1293 0.930 . S
C1303 C1296 1.409 . S
C1303 C1302 1.362 . S
H1304 C1310 0.930 . S
H1305 C1313 0.930 . S
H1306 C1314 0.930 . S
H1307 C1315 0.930 . S
H1308 C1318 0.930 . S
H1309 C1319 0.930 . S
C1310 H1304 0.930 . S
C1310 C1311 1.355 . S
C1310 C1312 1.415 . S
C1311 C1310 1.355 . S
C1311 C1313 1.419 . S
C1312 C1310 1.415 . S
C1312 C1317 1.425 . S
C1312 C1319 1.409 . S
C1313 H1305 0.930 . S
C1313 C1311 1.419 . S
C1313 C1314 1.362 . S
C1314 H1306 0.930 . S
C1314 C1313 1.362 . S
C1314 C1317 1.409 . S
C1315 H1307 0.930 . S
C1315 C1316 1.355 . S
C1315 C1317 1.415 . S
C1316 C1315 1.355 . S
C1316 C1318 1.419 . S
C1317 C1312 1.425 . S
C1317 C1314 1.409 . S
C1317 C1315 1.415 . S
C1318 H1308 0.930 . S
C1318 C1316 1.419 . S
C1318 C1319 1.362 . S
C1319 H1309 0.930 . S
C1319 C1312 1.409 . S
C1319 C1318 1.362 . S
H1320 C1326 0.930 . S
H1321 C1329 0.930 . S
H1322 C1330 0.930 . S
H1323 C1331 0.930 . S
H1324 C1334 0.930 . S
H1325 C1335 0.930 . S
C1326 H1320 0.930 . S
C1326 C1327 1.355 . S
C1326 C1328 1.415 . S
C1327 C1326 1.355 . S
C1327 C1329 1.419 . S
C1328 C1326 1.415 . S
C1328 C1333 1.425 . S
C1328 C1335 1.409 . S
C1329 H1321 0.930 . S
C1329 C1327 1.419 . S
C1329 C1330 1.362 . S
C1330 H1322 0.930 . S
C1330 C1329 1.362 . S
C1330 C1333 1.409 . S
C1331 H1323 0.930 . S
C1331 C1332 1.355 . S
C1331 C1333 1.415 . S
C1332 C1331 1.355 . S
C1332 C1334 1.419 . S
C1333 C1328 1.425 . S
C1333 C1330 1.409 . S
C1333 C1331 1.415 . S
C1334 H1324 0.930 . S
C1334 C1332 1.419 . S
C1334 C1335 1.362 . S
C1335 H1325 0.930 . S
C1335 C1328 1.409 . S
C1335 C1334 1.362 . S
H1336 C1342 0.930 . S
H1337 C1345 0.930 . S
H1338 C1346 0.930 . S
H1339 C1347 0.930 . S
H1340 C1350 0.930 . S
H1341 C1351 0.930 . S
C1342 H1336 0.930 . S
C1342 C1343 1.355 . S
C1342 C1344 1.415 . S
C1343 C1342 1.355 . S
C1343 C1345 1.419 . S
C1344 C1342 1.415 . S
C1344 C1349 1.425 . S
C1344 C1351 1.409 . S
C1345 H1337 0.930 . S
C1345 C1343 1.419 . S
C1345 C1346 1.362 . S
C1346 H1338 0.930 . S
C1346 C1345 1.362 . S
C1346 C1349 1.409 . S
C1347 H1339 0.930 . S
C1347 C1348 1.355 . S
C1347 C1349 1.415 . S
C1348 C1347 1.355 . S
C1348 C1350 1.419 . S
C1349 C1344 1.425 . S
C1349 C1346 1.409 . S
C1349 C1347 1.415 . S
C1350 H1340 0.930 . S
C1350 C1348 1.419 . S
C1350 C1351 1.362 . S
C1351 H1341 0.930 . S
C1351 C1344 1.409 . S
C1351 C1350 1.362 . S
H1352 C1358 0.930 . S
H1353 C1361 0.930 . S
H1354 C1362 0.930 . S
H1355 C1363 0.930 . S
H1356 C1366 0.930 . S
H1357 C1367 0.930 . S
C1358 H1352 0.930 . S
C1358 C1359 1.355 . S
C1358 C1360 1.415 . S
C1359 C1358 1.355 . S
C1359 C1361 1.419 . S
C1360 C1358 1.415 . S
C1360 C1365 1.425 . S
C1360 C1367 1.409 . S
C1361 H1353 0.930 . S
C1361 C1359 1.419 . S
C1361 C1362 1.362 . S
C1362 H1354 0.930 . S
C1362 C1361 1.362 . S
C1362 C1365 1.409 . S
C1363 H1355 0.930 . S
C1363 C1364 1.355 . S
C1363 C1365 1.415 . S
C1364 C1363 1.355 . S
C1364 C1366 1.419 . S
C1365 C1360 1.425 . S
C1365 C1362 1.409 . S
C1365 C1363 1.415 . S
C1366 H1356 0.930 . S
C1366 C1364 1.419 . S
C1366 C1367 1.362 . S
C1367 H1357 0.930 . S
C1367 C1360 1.409 . S
C1367 C1366 1.362 . S
H1368 C1374 0.930 . S
H1369 C1377 0.930 . S
H1370 C1378 0.930 . S
H1371 C1379 0.930 . S
H1372 C1382 0.930 . S
H1373 C1383 0.930 . S
C1374 H1368 0.930 . S
C1374 C1375 1.355 . S
C1374 C1376 1.415 . S
C1375 C1374 1.355 . S
C1375 C1377 1.419 . S
C1376 C1374 1.415 . S
C1376 C1381 1.425 . S
C1376 C1383 1.409 . S
C1377 H1369 0.930 . S
C1377 C1375 1.419 . S
C1377 C1378 1.362 . S
C1378 H1370 0.930 . S
C1378 C1377 1.362 . S
C1378 C1381 1.409 . S
C1379 H1371 0.930 . S
C1379 C1380 1.355 . S
C1379 C1381 1.415 . S
C1380 C1379 1.355 . S
C1380 C1382 1.419 . S
C1381 C1376 1.425 . S
C1381 C1378 1.409 . S
C1381 C1379 1.415 . S
C1382 H1372 0.930 . S
C1382 C1380 1.419 . S
C1382 C1383 1.362 . S
C1383 H1373 0.930 . S
C1383 C1376 1.409 . S
C1383 C1382 1.362 . S
H1384 C1390 0.930 . S
H1385 C1393 0.930 . S
H1386 C1394 0.930 . S
H1387 C1395 0.930 . S
H1388 C1398 0.930 . S
H1389 C1399 0.930 . S
C1390 H1384 0.930 . S
C1390 C1391 1.355 . S
C1390 C1392 1.415 . S
C1391 C1390 1.355 . S
C1391 C1393 1.419 . S
C1392 C1390 1.415 . S
C1392 C1397 1.425 . S
C1392 C1399 1.409 . S
C1393 H1385 0.930 . S
C1393 C1391 1.419 . S
C1393 C1394 1.362 . S
C1394 H1386 0.930 . S
C1394 C1393 1.362 . S
C1394 C1397 1.409 . S
C1395 H1387 0.930 . S
C1395 C1396 1.355 . S
C1395 C1397 1.415 . S
C1396 C1395 1.355 . S
C1396 C1398 1.419 . S
C1397 C1392 1.425 . S
C1397 C1394 1.409 . S
C1397 C1395 1.415 . S
C1398 H1388 0.930 . S
C1398 C1396 1.419 . S
C1398 C1399 1.362 . S
C1399 H1389 0.930 . S
C1399 C1392 1.409 . S
C1399 C1398 1.362 . S
H1400 C1406 0.930 . S
H1401 C1409 0.930 . S
H1402 C1410 0.930 . S
H1403 C1411 0.930 . S
H1404 C1414 0.930 . S
H1405 C1415 0.930 . S
C1406 H1400 0.930 . S
C1406 C1407 1.355 . S
C1406 C1408 1.415 . S
C1407 C1406 1.355 . S
C1407 C1409 1.419 . S
C1408 C1406 1.415 . S
C1408 C1413 1.425 . S
C1408 C1415 1.409 . S
C1409 H1401 0.930 . S
C1409 C1407 1.419 . S
C1409 C1410 1.362 . S
C1410 H1402 0.930 . S
C1410 C1409 1.362 . S
C1410 C1413 1.409 . S
C1411 H1403 0.930 . S
C1411 C1412 1.355 . S
C1411 C1413 1.415 . S
C1412 C1411 1.355 . S
C1412 C1414 1.419 . S
C1413 C1408 1.425 . S
C1413 C1410 1.409 . S
C1413 C1411 1.415 . S
C1414 H1404 0.930 . S
C1414 C1412 1.419 . S
C1414 C1415 1.362 . S
C1415 H1405 0.930 . S
C1415 C1408 1.409 . S
C1415 C1414 1.362 . S
H1416 C1422 0.940 . S
H1417 C1425 0.930 . S
H1418 C1426 0.930 . S
H1419 C1427 0.940 . S
H1420 C1430 0.930 . S
H1421 C1431 0.930 . S
C1422 H1416 0.940 . S
C1422 C1423 1.342 1_455 S
C1422 C1424 1.417 . S
C1423 C1422 1.342 1_655 S
C1423 C1425 1.419 . S
C1424 C1422 1.417 . S
C1424 C1429 1.425 1_455 S
C1424 C1431 1.409 . S
C1425 H1417 0.930 . S
C1425 C1423 1.419 . S
C1425 C1426 1.362 . S
C1426 H1418 0.930 . S
C1426 C1425 1.362 . S
C1426 C1429 1.409 . S
C1427 H1419 0.940 . S
C1427 C1428 1.342 1_655 S
C1427 C1429 1.417 . S
C1428 C1427 1.342 1_455 S
C1428 C1430 1.419 . S
C1429 C1424 1.425 1_655 S
C1429 C1426 1.409 . S
C1429 C1427 1.417 . S
C1430 H1420 0.930 . S
C1430 C1428 1.419 . S
C1430 C1431 1.362 . S
C1431 H1421 0.930 . S
C1431 C1424 1.409 . S
C1431 C1430 1.362 . S
H1432 C1438 0.930 . S
H1433 C1441 0.930 . S
H1434 C1442 0.930 . S
H1435 C1443 0.930 . S
H1436 C1446 0.930 . S
H1437 C1447 0.930 . S
C1438 H1432 0.930 . S
C1438 C1439 1.355 . S
C1438 C1440 1.415 . S
C1439 C1438 1.355 . S
C1439 C1441 1.419 . S
C1440 C1438 1.415 . S
C1440 C1445 1.425 . S
C1440 C1447 1.409 . S
C1441 H1433 0.930 . S
C1441 C1439 1.419 . S
C1441 C1442 1.362 . S
C1442 H1434 0.930 . S
C1442 C1441 1.362 . S
C1442 C1445 1.409 . S
C1443 H1435 0.930 . S
C1443 C1444 1.355 . S
C1443 C1445 1.415 . S
C1444 C1443 1.355 . S
C1444 C1446 1.419 . S
C1445 C1440 1.425 . S
C1445 C1442 1.409 . S
C1445 C1443 1.415 . S
C1446 H1436 0.930 . S
C1446 C1444 1.419 . S
C1446 C1447 1.362 . S
C1447 H1437 0.930 . S
C1447 C1440 1.409 . S
C1447 C1446 1.362 . S
H1448 C1454 0.930 . S
H1449 C1457 0.930 . S
H1450 C1458 0.930 . S
H1451 C1459 0.930 . S
H1452 C1462 0.930 . S
H1453 C1463 0.930 . S
C1454 H1448 0.930 . S
C1454 C1455 1.355 . S
C1454 C1456 1.415 1_565 S
C1455 C1454 1.355 . S
C1455 C1457 1.419 . S
C1456 C1454 1.415 1_545 S
C1456 C1461 1.425 1_545 S
C1456 C1463 1.409 . S
C1457 H1449 0.930 . S
C1457 C1455 1.419 . S
C1457 C1458 1.362 . S
C1458 H1450 0.930 . S
C1458 C1457 1.362 . S
C1458 C1461 1.409 . S
C1459 H1451 0.930 . S
C1459 C1460 1.355 . S
C1459 C1461 1.415 1_545 S
C1460 C1459 1.355 . S
C1460 C1462 1.419 . S
C1461 C1456 1.425 1_565 S
C1461 C1458 1.409 . S
C1461 C1459 1.415 1_565 S
C1462 H1452 0.930 . S
C1462 C1460 1.419 . S
C1462 C1463 1.362 . S
C1463 H1453 0.930 . S
C1463 C1456 1.409 . S
C1463 C1462 1.362 . S
H1464 C1470 0.930 . S
H1465 C1473 0.930 . S
H1466 C1474 0.930 . S
H1467 C1475 0.930 . S
H1468 C1478 0.930 . S
H1469 C1479 0.930 . S
C1470 H1464 0.930 . S
C1470 C1471 1.355 . S
C1470 C1472 1.415 . S
C1471 C1470 1.355 . S
C1471 C1473 1.419 1_565 S
C1472 C1470 1.415 . S
C1472 C1477 1.425 1_565 S
C1472 C1479 1.409 . S
C1473 H1465 0.930 . S
C1473 C1471 1.419 1_545 S
C1473 C1474 1.362 . S
C1474 H1466 0.930 . S
C1474 C1473 1.362 . S
C1474 C1477 1.409 . S
C1475 H1467 0.930 . S
C1475 C1476 1.355 . S
C1475 C1477 1.415 . S
C1476 C1475 1.355 . S
C1476 C1478 1.419 1_545 S
C1477 C1472 1.425 1_545 S
C1477 C1474 1.409 . S
C1477 C1475 1.415 . S
C1478 H1468 0.930 . S
C1478 C1476 1.419 1_565 S
C1478 C1479 1.362 . S
C1479 H1469 0.930 . S
C1479 C1472 1.409 . S
C1479 C1478 1.362 . S
H1480 C1486 0.930 . S
H1481 C1489 0.930 . S
H1482 C1490 0.930 . S
H1483 C1491 0.930 . S
H1484 C1494 0.930 . S
H1485 C1495 0.930 . S
C1486 H1480 0.930 . S
C1486 C1487 1.355 1_655 S
C1486 C1488 1.415 . S
C1487 C1486 1.355 1_455 S
C1487 C1489 1.419 . S
C1488 C1486 1.415 . S
C1488 C1493 1.425 1_655 S
C1488 C1495 1.409 . S
C1489 H1481 0.930 . S
C1489 C1487 1.419 . S
C1489 C1490 1.362 . S
C1490 H1482 0.930 . S
C1490 C1489 1.362 . S
C1490 C1493 1.409 . S
C1491 H1483 0.930 . S
C1491 C1492 1.355 1_455 S
C1491 C1493 1.415 . S
C1492 C1491 1.355 1_655 S
C1492 C1494 1.419 . S
C1493 C1488 1.425 1_455 S
C1493 C1490 1.409 . S
C1493 C1491 1.415 . S
C1494 H1484 0.930 . S
C1494 C1492 1.419 . S
C1494 C1495 1.362 . S
C1495 H1485 0.930 . S
C1495 C1488 1.409 . S
C1495 C1494 1.362 . S
H1496 C1502 0.930 . S
H1497 C1505 0.930 . S
H1498 C1506 0.930 . S
H1499 C1507 0.930 . S
H1500 C1510 0.930 . S
H1501 C1511 0.930 . S
C1502 H1496 0.930 . S
C1502 C1503 1.355 . S
C1502 C1504 1.415 . S
C1503 C1502 1.355 . S
C1503 C1505 1.419 . S
C1504 C1502 1.415 . S
C1504 C1509 1.425 . S
C1504 C1511 1.409 . S
C1505 H1497 0.930 . S
C1505 C1503 1.419 . S
C1505 C1506 1.362 . S
C1506 H1498 0.930 . S
C1506 C1505 1.362 . S
C1506 C1509 1.409 . S
C1507 H1499 0.930 . S
C1507 C1508 1.355 . S
C1507 C1509 1.415 . S
C1508 C1507 1.355 . S
C1508 C1510 1.419 . S
C1509 C1504 1.425 . S
C1509 C1506 1.409 . S
C1509 C1507 1.415 . S
C1510 H1500 0.930 . S
C1510 C1508 1.419 . S
C1510 C1511 1.362 . S
C1511 H1501 0.930 . S
C1511 C1504 1.409 . S
C1511 C1510 1.362 . S
H1512 C1518 0.930 . S
H1513 C1521 0.930 . S
H1514 C1522 0.930 . S
H1515 C1523 0.930 . S
H1516 C1526 0.930 . S
H1517 C1527 0.930 . S
C1518 H1512 0.930 . S
C1518 C1519 1.355 . S
C1518 C1520 1.415 . S
C1519 C1518 1.355 . S
C1519 C1521 1.419 . S
C1520 C1518 1.415 . S
C1520 C1525 1.425 . S
C1520 C1527 1.409 . S
C1521 H1513 0.930 . S
C1521 C1519 1.419 . S
C1521 C1522 1.362 . S
C1522 H1514 0.930 . S
C1522 C1521 1.362 . S
C1522 C1525 1.409 . S
C1523 H1515 0.930 . S
C1523 C1524 1.355 . S
C1523 C1525 1.415 . S
C1524 C1523 1.355 . S
C1524 C1526 1.419 . S
C1525 C1520 1.425 . S
C1525 C1522 1.409 . S
C1525 C1523 1.415 . S
C1526 H1516 0.930 . S
C1526 C1524 1.419 . S
C1526 C1527 1.362 . S
C1527 H1517 0.930 . S
C1527 C1520 1.409 . S
C1527 C1526 1.362 . S
H1528 C1534 0.930 . S
H1529 C1537 0.930 . S
H1530 C1538 0.930 . S
H1531 C1539 0.930 . S
H1532 C1542 0.930 . S
H1533 C1543 0.930 1_565 S
C1534 H1528 0.930 . S
C1534 C1535 1.355 . S
C1534 C1536 1.415 . S
C1535 C1534 1.355 . S
C1535 C1537 1.419 . S
C1536 C1534 1.415 . S
C1536 C1541 1.425 . S
C1536 C1543 1.409 . S
C1537 H1529 0.930 . S
C1537 C1535 1.419 . S
C1537 C1538 1.362 . S
C1538 H1530 0.930 . S
C1538 C1537 1.362 . S
C1538 C1541 1.409 . S
C1539 H1531 0.930 . S
C1539 C1540 1.355 . S
C1539 C1541 1.415 . S
C1540 C1539 1.355 . S
C1540 C1542 1.419 1_545 S
C1541 C1536 1.425 . S
C1541 C1538 1.409 . S
C1541 C1539 1.415 . S
C1542 H1532 0.930 . S
C1542 C1540 1.419 1_565 S
C1542 C1543 1.362 1_565 S
C1543 H1533 0.930 1_545 S
C1543 C1536 1.409 . S
C1543 C1542 1.362 1_545 S
H1544 C1550 0.930 . S
H1545 C1553 0.930 . S
H1546 C1554 0.930 . S
H1547 C1555 0.930 . S
H1548 C1558 0.930 . S
H1549 C1559 0.930 . S
C1550 H1544 0.930 . S
C1550 C1551 1.355 . S
C1550 C1552 1.415 . S
C1551 C1550 1.355 . S
C1551 C1553 1.419 . S
C1552 C1550 1.415 . S
C1552 C1557 1.425 . S
C1552 C1559 1.409 . S
C1553 H1545 0.930 . S
C1553 C1551 1.419 . S
C1553 C1554 1.362 . S
C1554 H1546 0.930 . S
C1554 C1553 1.362 . S
C1554 C1557 1.409 . S
C1555 H1547 0.930 . S
C1555 C1556 1.355 . S
C1555 C1557 1.415 . S
C1556 C1555 1.355 . S
C1556 C1558 1.419 . S
C1557 C1552 1.425 . S
C1557 C1554 1.409 . S
C1557 C1555 1.415 . S
C1558 H1548 0.930 . S
C1558 C1556 1.419 . S
C1558 C1559 1.362 . S
C1559 H1549 0.930 . S
C1559 C1552 1.409 . S
C1559 C1558 1.362 . S
H1560 C1566 0.930 . S
H1561 C1569 0.930 . S
H1562 C1570 0.930 . S
H1563 C1571 0.930 . S
H1564 C1574 0.930 . S
H1565 C1575 0.930 . S
C1566 H1560 0.930 . S
C1566 C1567 1.355 . S
C1566 C1568 1.415 . S
C1567 C1566 1.355 . S
C1567 C1569 1.419 . S
C1568 C1566 1.415 . S
C1568 C1573 1.425 . S
C1568 C1575 1.409 . S
C1569 H1561 0.930 . S
C1569 C1567 1.419 . S
C1569 C1570 1.362 . S
C1570 H1562 0.930 . S
C1570 C1569 1.362 . S
C1570 C1573 1.409 . S
C1571 H1563 0.930 . S
C1571 C1572 1.355 . S
C1571 C1573 1.415 . S
C1572 C1571 1.355 . S
C1572 C1574 1.419 . S
C1573 C1568 1.425 . S
C1573 C1570 1.409 . S
C1573 C1571 1.415 . S
C1574 H1564 0.930 . S
C1574 C1572 1.419 . S
C1574 C1575 1.362 . S
C1575 H1565 0.930 . S
C1575 C1568 1.409 . S
C1575 C1574 1.362 . S
H1576 C1582 0.930 . S
H1577 C1585 0.930 . S
H1578 C1586 0.930 . S
H1579 C1587 0.930 . S
H1580 C1590 0.930 1_545 S
H1581 C1591 0.930 . S
C1582 H1576 0.930 . S
C1582 C1583 1.355 . S
C1582 C1584 1.415 . S
C1583 C1582 1.355 . S
C1583 C1585 1.419 . S
C1584 C1582 1.415 . S
C1584 C1589 1.425 . S
C1584 C1591 1.409 . S
C1585 H1577 0.930 . S
C1585 C1583 1.419 . S
C1585 C1586 1.362 . S
C1586 H1578 0.930 . S
C1586 C1585 1.362 . S
C1586 C1589 1.409 . S
C1587 H1579 0.930 . S
C1587 C1588 1.355 . S
C1587 C1589 1.415 . S
C1588 C1587 1.355 . S
C1588 C1590 1.419 . S
C1589 C1584 1.425 . S
C1589 C1586 1.409 . S
C1589 C1587 1.415 . S
C1590 H1580 0.930 1_565 S
C1590 C1588 1.419 . S
C1590 C1591 1.362 . S
C1591 H1581 0.930 . S
C1591 C1584 1.409 . S
C1591 C1590 1.362 . S
H1592 C1598 0.930 . S
H1593 C1601 0.930 . S
H1594 C1602 0.930 . S
H1595 C1603 0.930 . S
H1596 C1606 0.930 . S
H1597 C1607 0.930 . S
C1598 H1592 0.930 . S
C1598 C1599 1.355 . S
C1598 C1600 1.415 . S
C1599 C1598 1.355 . S
C1599 C1601 1.419 . S
C1600 C1598 1.415 . S
C1600 C1605 1.425 . S
C1600 C1607 1.409 . S
C1601 H1593 0.930 . S
C1601 C1599 1.419 . S
C1601 C1602 1.362 . S
C1602 H1594 0.930 . S
C1602 C1601 1.362 . S
C1602 C1605 1.409 . S
C1603 H1595 0.930 . S
C1603 C1604 1.355 . S
C1603 C1605 1.415 . S
C1604 C1603 1.355 . S
C1604 C1606 1.419 . S
C1605 C1600 1.425 . S
C1605 C1602 1.409 . S
C1605 C1603 1.415 . S
C1606 H1596 0.930 . S
C1606 C1604 1.419 . S
C1606 C1607 1.362 . S
C1607 H1597 0.930 . S
C1607 C1600 1.409 . S
C1607 C1606 1.362 . S
H1608 C1614 0.930 . S
H1609 C1617 0.930 . S
H1610 C1618 0.930 . S
H1611 C1619 0.930 . S
H1612 C1622 0.930 . S
H1613 C1623 0.930 . S
C1614 H1608 0.930 . S
C1614 C1615 1.355 . S
C1614 C1616 1.415 . S
C1615 C1614 1.355 . S
C1615 C1617 1.419 . S
C1616 C1614 1.415 . S
C1616 C1621 1.425 . S
C1616 C1623 1.409 . S
C1617 H1609 0.930 . S
C1617 C1615 1.419 . S
C1617 C1618 1.362 . S
C1618 H1610 0.930 . S
C1618 C1617 1.362 . S
C1618 C1621 1.409 . S
C1619 H1611 0.930 . S
C1619 C1620 1.355 . S
C1619 C1621 1.415 . S
C1620 C1619 1.355 . S
C1620 C1622 1.419 . S
C1621 C1616 1.425 . S
C1621 C1618 1.409 . S
C1621 C1619 1.415 . S
C1622 H1612 0.930 . S
C1622 C1620 1.419 . S
C1622 C1623 1.362 . S
C1623 H1613 0.930 . S
C1623 C1616 1.409 . S
C1623 C1622 1.362 . S
H1624 C1630 0.930 . S
H1625 C1633 0.930 . S
H1626 C1634 0.930 . S
H1627 C1635 0.930 . S
H1628 C1638 0.930 . S
H1629 C1639 0.930 . S
C1630 H1624 0.930 . S
C1630 C1631 1.355 . S
C1630 C1632 1.415 . S
C1631 C1630 1.355 . S
C1631 C1633 1.419 . S
C1632 C1630 1.415 . S
C1632 C1637 1.425 . S
C1632 C1639 1.409 . S
C1633 H1625 0.930 . S
C1633 C1631 1.419 . S
C1633 C1634 1.362 . S
C1634 H1626 0.930 . S
C1634 C1633 1.362 . S
C1634 C1637 1.409 . S
C1635 H1627 0.930 . S
C1635 C1636 1.355 . S
C1635 C1637 1.415 . S
C1636 C1635 1.355 . S
C1636 C1638 1.419 . S
C1637 C1632 1.425 . S
C1637 C1634 1.409 . S
C1637 C1635 1.415 . S
C1638 H1628 0.930 . S
C1638 C1636 1.419 . S
C1638 C1639 1.362 . S
C1639 H1629 0.930 . S
C1639 C1632 1.409 . S
C1639 C1638 1.362 . S
H1640 C1646 0.930 . S
H1641 C1649 0.930 . S
H1642 C1650 0.930 . S
H1643 C1651 0.930 . S
H1644 C1654 0.930 . S
H1645 C1655 0.930 1_655 S
C1646 H1640 0.930 . S
C1646 C1647 1.355 . S
C1646 C1648 1.415 . S
C1647 C1646 1.355 . S
C1647 C1649 1.419 . S
C1648 C1646 1.415 . S
C1648 C1653 1.425 . S
C1648 C1655 1.409 . S
C1649 H1641 0.930 . S
C1649 C1647 1.419 . S
C1649 C1650 1.362 . S
C1650 H1642 0.930 . S
C1650 C1649 1.362 . S
C1650 C1653 1.409 . S
C1651 H1643 0.930 . S
C1651 C1652 1.355 . S
C1651 C1653 1.415 . S
C1652 C1651 1.355 . S
C1652 C1654 1.419 1_455 S
C1653 C1648 1.425 . S
C1653 C1650 1.409 . S
C1653 C1651 1.415 . S
C1654 H1644 0.930 . S
C1654 C1652 1.419 1_655 S
C1654 C1655 1.362 1_655 S
C1655 H1645 0.930 1_455 S
C1655 C1648 1.409 . S
C1655 C1654 1.362 1_455 S
H1656 C1662 0.930 . S
H1657 C1665 0.930 . S
H1658 C1666 0.930 . S
H1659 C1667 0.930 . S
H1660 C1670 0.930 . S
H1661 C1671 0.930 . S
C1662 H1656 0.930 . S
C1662 C1663 1.355 . S
C1662 C1664 1.415 . S
C1663 C1662 1.355 . S
C1663 C1665 1.419 . S
C1664 C1662 1.415 . S
C1664 C1669 1.425 . S
C1664 C1671 1.409 . S
C1665 H1657 0.930 . S
C1665 C1663 1.419 . S
C1665 C1666 1.362 . S
C1666 H1658 0.930 . S
C1666 C1665 1.362 . S
C1666 C1669 1.409 . S
C1667 H1659 0.930 . S
C1667 C1668 1.355 . S
C1667 C1669 1.415 . S
C1668 C1667 1.355 . S
C1668 C1670 1.419 . S
C1669 C1664 1.425 . S
C1669 C1666 1.409 . S
C1669 C1667 1.415 . S
C1670 H1660 0.930 . S
C1670 C1668 1.419 . S
C1670 C1671 1.362 . S
C1671 H1661 0.930 . S
C1671 C1664 1.409 . S
C1671 C1670 1.362 . S
H1672 C1678 0.930 . S
H1673 C1681 0.930 . S
H1674 C1682 0.930 . S
H1675 C1683 0.930 . S
H1676 C1686 0.930 . S
H1677 C1687 0.930 . S
C1678 H1672 0.930 . S
C1678 C1679 1.355 . S
C1678 C1680 1.415 . S
C1679 C1678 1.355 . S
C1679 C1681 1.419 . S
C1680 C1678 1.415 . S
C1680 C1685 1.425 . S
C1680 C1687 1.409 . S
C1681 H1673 0.930 . S
C1681 C1679 1.419 . S
C1681 C1682 1.362 . S
C1682 H1674 0.930 . S
C1682 C1681 1.362 . S
C1682 C1685 1.409 . S
C1683 H1675 0.930 . S
C1683 C1684 1.355 . S
C1683 C1685 1.415 . S
C1684 C1683 1.355 . S
C1684 C1686 1.419 . S
C1685 C1680 1.425 . S
C1685 C1682 1.409 . S
C1685 C1683 1.415 . S
C1686 H1676 0.930 . S
C1686 C1684 1.419 . S
C1686 C1687 1.362 . S
C1687 H1677 0.930 . S
C1687 C1680 1.409 . S
C1687 C1686 1.362 . S
H1688 C1694 0.930 . S
H1689 C1697 0.930 . S
H1690 C1698 0.930 . S
H1691 C1699 0.930 . S
H1692 C1702 0.930 . S
H1693 C1703 0.930 . S
C1694 H1688 0.930 . S
C1694 C1695 1.355 . S
C1694 C1696 1.415 . S
C1695 C1694 1.355 . S
C1695 C1697 1.419 . S
C1696 C1694 1.415 . S
C1696 C1701 1.425 . S
C1696 C1703 1.409 . S
C1697 H1689 0.930 . S
C1697 C1695 1.419 . S
C1697 C1698 1.362 . S
C1698 H1690 0.930 . S
C1698 C1697 1.362 . S
C1698 C1701 1.409 . S
C1699 H1691 0.930 . S
C1699 C1700 1.355 . S
C1699 C1701 1.415 . S
C1700 C1699 1.355 . S
C1700 C1702 1.419 . S
C1701 C1696 1.425 . S
C1701 C1698 1.409 . S
C1701 C1699 1.415 . S
C1702 H1692 0.930 . S
C1702 C1700 1.419 . S
C1702 C1703 1.362 . S
C1703 H1693 0.930 . S
C1703 C1696 1.409 . S
C1703 C1702 1.362 . S
H1704 C1710 0.930 . S
H1705 C1713 0.930 . S
H1706 C1714 0.930 . S
H1707 C1715 0.930 . S
H1708 C1718 0.930 . S
H1709 C1719 0.930 . S
C1710 H1704 0.930 . S
C1710 C1711 1.355 . S
C1710 C1712 1.415 . S
C1711 C1710 1.355 . S
C1711 C1713 1.419 . S
C1712 C1710 1.415 . S
C1712 C1717 1.425 1_655 S
C1712 C1719 1.409 1_655 S
C1713 H1705 0.930 . S
C1713 C1711 1.419 . S
C1713 C1714 1.362 . S
C1714 H1706 0.930 . S
C1714 C1713 1.362 . S
C1714 C1717 1.409 1_655 S
C1715 H1707 0.930 . S
C1715 C1716 1.355 . S
C1715 C1717 1.415 . S
C1716 C1715 1.355 . S
C1716 C1718 1.419 . S
C1717 C1712 1.425 1_455 S
C1717 C1714 1.409 1_455 S
C1717 C1715 1.415 . S
C1718 H1708 0.930 . S
C1718 C1716 1.419 . S
C1718 C1719 1.362 . S
C1719 H1709 0.930 . S
C1719 C1712 1.409 1_455 S
C1719 C1718 1.362 . S
H1720 C1726 0.930 . S
H1721 C1729 0.930 . S
H1722 C1730 0.930 . S
H1723 C1731 0.930 . S
H1724 C1734 0.930 . S
H1725 C1735 0.930 . S
C1726 H1720 0.930 . S
C1726 C1727 1.355 . S
C1726 C1728 1.415 . S
C1727 C1726 1.355 . S
C1727 C1729 1.419 . S
C1728 C1726 1.415 . S
C1728 C1733 1.425 . S
C1728 C1735 1.409 . S
C1729 H1721 0.930 . S
C1729 C1727 1.419 . S
C1729 C1730 1.362 . S
C1730 H1722 0.930 . S
C1730 C1729 1.362 . S
C1730 C1733 1.409 . S
C1731 H1723 0.930 . S
C1731 C1732 1.355 . S
C1731 C1733 1.415 . S
C1732 C1731 1.355 . S
C1732 C1734 1.419 . S
C1733 C1728 1.425 . S
C1733 C1730 1.409 . S
C1733 C1731 1.415 . S
C1734 H1724 0.930 . S
C1734 C1732 1.419 . S
C1734 C1735 1.362 . S
C1735 H1725 0.930 . S
C1735 C1728 1.409 . S
C1735 C1734 1.362 . S
H1736 C1742 0.930 . S
H1737 C1745 0.930 . S
H1738 C1746 0.919 1_565 S
H1739 C1747 0.930 . S
H1740 C1750 0.930 . S
H1741 C1751 0.919 1_545 S
C1742 H1736 0.930 . S
C1742 C1743 1.355 . S
C1742 C1744 1.415 . S
C1743 C1742 1.355 . S
C1743 C1745 1.419 . S
C1744 C1742 1.415 . S
C1744 C1749 1.425 1_545 S
C1744 C1751 1.389 1_545 S
C1745 H1737 0.930 . S
C1745 C1743 1.419 . S
C1745 C1746 1.394 . S
C1746 H1738 0.919 1_545 S
C1746 C1745 1.394 . S
C1746 C1749 1.389 1_545 S
C1747 H1739 0.930 . S
C1747 C1748 1.355 . S
C1747 C1749 1.415 . S
C1748 C1747 1.355 . S
C1748 C1750 1.419 . S
C1749 C1744 1.425 1_565 S
C1749 C1746 1.389 1_565 S
C1749 C1747 1.415 . S
C1750 H1740 0.930 . S
C1750 C1748 1.419 . S
C1750 C1751 1.394 . S
C1751 H1741 0.919 1_565 S
C1751 C1744 1.389 1_565 S
C1751 C1750 1.394 . S
H1752 C1758 0.930 . S
H1753 C1761 0.930 . S
H1754 C1762 0.930 1_565 S
H1755 C1763 0.930 . S
H1756 C1766 0.930 . S
H1757 C1767 0.930 1_545 S
C1758 H1752 0.930 . S
C1758 C1759 1.355 . S
C1758 C1760 1.415 . S
C1759 C1758 1.355 . S
C1759 C1761 1.419 . S
C1760 C1758 1.415 . S
C1760 C1765 1.425 1_545 S
C1760 C1767 1.409 1_545 S
C1761 H1753 0.930 . S
C1761 C1759 1.419 . S
C1761 C1762 1.362 . S
C1762 H1754 0.930 1_545 S
C1762 C1761 1.362 . S
C1762 C1765 1.409 1_545 S
C1763 H1755 0.930 . S
C1763 C1764 1.355 . S
C1763 C1765 1.415 . S
C1764 C1763 1.355 . S
C1764 C1766 1.419 . S
C1765 C1760 1.425 1_565 S
C1765 C1762 1.409 1_565 S
C1765 C1763 1.415 . S
C1766 H1756 0.930 . S
C1766 C1764 1.419 . S
C1766 C1767 1.362 . S
C1767 H1757 0.930 1_565 S
C1767 C1760 1.409 1_565 S
C1767 C1766 1.362 . S
H1768 C1774 0.930 . S
H1769 C1777 0.930 . S
H1770 C1778 0.930 1_655 S
H1771 C1779 0.930 . S
H1772 C1782 0.930 . S
H1773 C1783 0.930 1_455 S
C1774 H1768 0.930 . S
C1774 C1775 1.355 . S
C1774 C1776 1.415 . S
C1775 C1774 1.355 . S
C1775 C1777 1.419 . S
C1776 C1774 1.415 . S
C1776 C1781 1.425 1_455 S
C1776 C1783 1.409 1_455 S
C1777 H1769 0.930 . S
C1777 C1775 1.419 . S
C1777 C1778 1.362 . S
C1778 H1770 0.930 1_455 S
C1778 C1777 1.362 . S
C1778 C1781 1.409 1_455 S
C1779 H1771 0.930 . S
C1779 C1780 1.355 . S
C1779 C1781 1.415 . S
C1780 C1779 1.355 . S
C1780 C1782 1.419 . S
C1781 C1776 1.425 1_655 S
C1781 C1778 1.409 1_655 S
C1781 C1779 1.415 . S
C1782 H1772 0.930 . S
C1782 C1780 1.419 . S
C1782 C1783 1.362 . S
C1783 H1773 0.930 1_655 S
C1783 C1776 1.409 1_655 S
C1783 C1782 1.362 . S
H1784 C1790 0.930 . S
H1785 C1793 0.930 . S
H1786 C1794 0.930 . S
H1787 C1795 0.930 . S
H1788 C1798 0.930 . S
H1789 C1799 0.930 . S
C1790 H1784 0.930 . S
C1790 C1791 1.355 . S
C1790 C1792 1.415 . S
C1791 C1790 1.355 . S
C1791 C1793 1.419 . S
C1792 C1790 1.415 . S
C1792 C1797 1.425 . S
C1792 C1799 1.409 . S
C1793 H1785 0.930 . S
C1793 C1791 1.419 . S
C1793 C1794 1.362 . S
C1794 H1786 0.930 . S
C1794 C1793 1.362 . S
C1794 C1797 1.409 . S
C1795 H1787 0.930 . S
C1795 C1796 1.355 . S
C1795 C1797 1.415 . S
C1796 C1795 1.355 . S
C1796 C1798 1.419 . S
C1797 C1792 1.425 . S
C1797 C1794 1.409 . S
C1797 C1795 1.415 . S
C1798 H1788 0.930 . S
C1798 C1796 1.419 . S
C1798 C1799 1.362 . S
C1799 H1789 0.930 . S
C1799 C1792 1.409 . S
C1799 C1798 1.362 . S
H1800 C1806 0.930 . S
H1801 C1809 0.930 . S
H1802 C1810 0.930 . S
H1803 C1811 0.930 . S
H1804 C1814 0.930 . S
H1805 C1815 0.930 . S
C1806 H1800 0.930 . S
C1806 C1807 1.355 . S
C1806 C1808 1.415 . S
C1807 C1806 1.355 . S
C1807 C1809 1.419 . S
C1808 C1806 1.415 . S
C1808 C1813 1.425 . S
C1808 C1815 1.409 . S
C1809 H1801 0.930 . S
C1809 C1807 1.419 . S
C1809 C1810 1.362 . S
C1810 H1802 0.930 . S
C1810 C1809 1.362 . S
C1810 C1813 1.409 . S
C1811 H1803 0.930 . S
C1811 C1812 1.355 . S
C1811 C1813 1.415 . S
C1812 C1811 1.355 . S
C1812 C1814 1.419 . S
C1813 C1808 1.425 . S
C1813 C1810 1.409 . S
C1813 C1811 1.415 . S
C1814 H1804 0.930 . S
C1814 C1812 1.419 . S
C1814 C1815 1.362 . S
C1815 H1805 0.930 . S
C1815 C1808 1.409 . S
C1815 C1814 1.362 . S
H1816 C1822 0.930 . S
H1817 C1825 0.930 . S
H1818 C1826 0.930 . S
H1819 C1827 0.930 . S
H1820 C1830 0.930 . S
H1821 C1831 0.930 . S
C1822 H1816 0.930 . S
C1822 C1823 1.355 . S
C1822 C1824 1.415 . S
C1823 C1822 1.355 . S
C1823 C1825 1.419 . S
C1824 C1822 1.415 . S
C1824 C1829 1.425 . S
C1824 C1831 1.409 . S
C1825 H1817 0.930 . S
C1825 C1823 1.419 . S
C1825 C1826 1.362 . S
C1826 H1818 0.930 . S
C1826 C1825 1.362 . S
C1826 C1829 1.409 . S
C1827 H1819 0.930 . S
C1827 C1828 1.355 . S
C1827 C1829 1.415 . S
C1828 C1827 1.355 . S
C1828 C1830 1.419 . S
C1829 C1824 1.425 . S
C1829 C1826 1.409 . S
C1829 C1827 1.415 . S
C1830 H1820 0.930 . S
C1830 C1828 1.419 . S
C1830 C1831 1.362 . S
C1831 H1821 0.930 . S
C1831 C1824 1.409 . S
C1831 C1830 1.362 . S
H1832 C1838 0.930 . S
H1833 C1841 0.930 . S
H1834 C1842 0.930 . S
H1835 C1843 0.930 . S
H1836 C1846 0.930 . S
H1837 C1847 0.930 . S
C1838 H1832 0.930 . S
C1838 C1839 1.355 . S
C1838 C1840 1.415 . S
C1839 C1838 1.355 . S
C1839 C1841 1.419 . S
C1840 C1838 1.415 . S
C1840 C1845 1.425 . S
C1840 C1847 1.409 . S
C1841 H1833 0.930 . S
C1841 C1839 1.419 . S
C1841 C1842 1.362 . S
C1842 H1834 0.930 . S
C1842 C1841 1.362 . S
C1842 C1845 1.409 . S
C1843 H1835 0.930 . S
C1843 C1844 1.355 . S
C1843 C1845 1.415 . S
C1844 C1843 1.355 . S
C1844 C1846 1.419 . S
C1845 C1840 1.425 . S
C1845 C1842 1.409 . S
C1845 C1843 1.415 . S
C1846 H1836 0.930 . S
C1846 C1844 1.419 . S
C1846 C1847 1.362 . S
C1847 H1837 0.930 . S
C1847 C1840 1.409 . S
C1847 C1846 1.362 . S
H1848 C1854 0.930 . S
H1849 C1857 0.930 . S
H1850 C1858 0.930 . S
H1851 C1859 0.930 . S
H1852 C1862 0.930 . S
H1853 C1863 0.930 . S
C1854 H1848 0.930 . S
C1854 C1855 1.355 . S
C1854 C1856 1.415 . S
C1855 C1854 1.355 . S
C1855 C1857 1.419 . S
C1856 C1854 1.415 . S
C1856 C1861 1.425 . S
C1856 C1863 1.409 . S
C1857 H1849 0.930 . S
C1857 C1855 1.419 . S
C1857 C1858 1.362 . S
C1858 H1850 0.930 . S
C1858 C1857 1.362 . S
C1858 C1861 1.409 . S
C1859 H1851 0.930 . S
C1859 C1860 1.355 . S
C1859 C1861 1.415 . S
C1860 C1859 1.355 . S
C1860 C1862 1.419 . S
C1861 C1856 1.425 . S
C1861 C1858 1.409 . S
C1861 C1859 1.415 . S
C1862 H1852 0.930 . S
C1862 C1860 1.419 . S
C1862 C1863 1.362 . S
C1863 H1853 0.930 . S
C1863 C1856 1.409 . S
C1863 C1862 1.362 . S
H1864 C1870 0.930 . S
H1865 C1873 0.930 . S
H1866 C1874 0.930 . S
H1867 C1875 0.930 . S
H1868 C1878 0.930 . S
H1869 C1879 0.930 . S
C1870 H1864 0.930 . S
C1870 C1871 1.355 . S
C1870 C1872 1.415 . S
C1871 C1870 1.355 . S
C1871 C1873 1.419 . S
C1872 C1870 1.415 . S
C1872 C1877 1.425 . S
C1872 C1879 1.409 . S
C1873 H1865 0.930 . S
C1873 C1871 1.419 . S
C1873 C1874 1.362 . S
C1874 H1866 0.930 . S
C1874 C1873 1.362 . S
C1874 C1877 1.409 . S
C1875 H1867 0.930 . S
C1875 C1876 1.355 . S
C1875 C1877 1.415 . S
C1876 C1875 1.355 . S
C1876 C1878 1.419 . S
C1877 C1872 1.425 . S
C1877 C1874 1.409 . S
C1877 C1875 1.415 . S
C1878 H1868 0.930 . S
C1878 C1876 1.419 . S
C1878 C1879 1.362 . S
C1879 H1869 0.930 . S
C1879 C1872 1.409 . S
C1879 C1878 1.362 . S
H1880 C1886 0.930 . S
H1881 C1889 0.930 . S
H1882 C1890 0.930 . S
H1883 C1891 0.930 . S
H1884 C1894 0.930 . S
H1885 C1895 0.930 . S
C1886 H1880 0.930 . S
C1886 C1887 1.355 . S
C1886 C1888 1.415 . S
C1887 C1886 1.355 . S
C1887 C1889 1.419 . S
C1888 C1886 1.415 . S
C1888 C1893 1.425 . S
C1888 C1895 1.409 . S
C1889 H1881 0.930 . S
C1889 C1887 1.419 . S
C1889 C1890 1.362 . S
C1890 H1882 0.930 . S
C1890 C1889 1.362 . S
C1890 C1893 1.409 . S
C1891 H1883 0.930 . S
C1891 C1892 1.355 . S
C1891 C1893 1.415 . S
C1892 C1891 1.355 . S
C1892 C1894 1.419 . S
C1893 C1888 1.425 . S
C1893 C1890 1.409 . S
C1893 C1891 1.415 . S
C1894 H1884 0.930 . S
C1894 C1892 1.419 . S
C1894 C1895 1.362 . S
C1895 H1885 0.930 . S
C1895 C1888 1.409 . S
C1895 C1894 1.362 . S
H1896 C1902 0.930 . S
H1897 C1905 0.930 . S
H1898 C1906 0.930 . S
H1899 C1907 0.930 . S
H1900 C1910 0.930 . S
H1901 C1911 0.930 . S
C1902 H1896 0.930 . S
C1902 C1903 1.355 . S
C1902 C1904 1.415 . S
C1903 C1902 1.355 . S
C1903 C1905 1.419 . S
C1904 C1902 1.415 . S
C1904 C1909 1.425 . S
C1904 C1911 1.409 . S
C1905 H1897 0.930 . S
C1905 C1903 1.419 . S
C1905 C1906 1.362 . S
C1906 H1898 0.930 . S
C1906 C1905 1.362 . S
C1906 C1909 1.409 . S
C1907 H1899 0.930 . S
C1907 C1908 1.355 . S
C1907 C1909 1.415 . S
C1908 C1907 1.355 . S
C1908 C1910 1.419 . S
C1909 C1904 1.425 . S
C1909 C1906 1.409 . S
C1909 C1907 1.415 . S
C1910 H1900 0.930 . S
C1910 C1908 1.419 . S
C1910 C1911 1.362 . S
C1911 H1901 0.930 . S
C1911 C1904 1.409 . S
C1911 C1910 1.362 . S
H1912 C1918 0.930 . S
H1913 C1921 0.930 . S
H1914 C1922 0.930 . S
H1915 C1923 0.930 . S
H1916 C1926 0.930 . S
H1917 C1927 0.930 . S
C1918 H1912 0.930 . S
C1918 C1919 1.355 . S
C1918 C1920 1.415 . S
C1919 C1918 1.355 . S
C1919 C1921 1.419 . S
C1920 C1918 1.415 . S
C1920 C1925 1.425 . S
C1920 C1927 1.409 . S
C1921 H1913 0.930 . S
C1921 C1919 1.419 . S
C1921 C1922 1.362 . S
C1922 H1914 0.930 . S
C1922 C1921 1.362 . S
C1922 C1925 1.409 . S
C1923 H1915 0.930 . S
C1923 C1924 1.355 . S
C1923 C1925 1.415 . S
C1924 C1923 1.355 . S
C1924 C1926 1.419 . S
C1925 C1920 1.425 . S
C1925 C1922 1.409 . S
C1925 C1923 1.415 . S
C1926 H1916 0.930 . S
C1926 C1924 1.419 . S
C1926 C1927 1.362 . S
C1927 H1917 0.930 . S
C1927 C1920 1.409 . S
C1927 C1926 1.362 . S
H1928 C1934 0.930 . S
H1929 C1937 0.930 . S
H1930 C1938 0.930 . S
H1931 C1939 0.930 . S
H1932 C1942 0.930 . S
H1933 C1943 0.930 . S
C1934 H1928 0.930 . S
C1934 C1935 1.355 . S
C1934 C1936 1.415 . S
C1935 C1934 1.355 . S
C1935 C1937 1.419 . S
C1936 C1934 1.415 . S
C1936 C1941 1.425 . S
C1936 C1943 1.409 . S
C1937 H1929 0.930 . S
C1937 C1935 1.419 . S
C1937 C1938 1.362 . S
C1938 H1930 0.930 . S
C1938 C1937 1.362 . S
C1938 C1941 1.409 . S
C1939 H1931 0.930 . S
C1939 C1940 1.355 . S
C1939 C1941 1.415 . S
C1940 C1939 1.355 . S
C1940 C1942 1.419 . S
C1941 C1936 1.425 . S
C1941 C1938 1.409 . S
C1941 C1939 1.415 . S
C1942 H1932 0.930 . S
C1942 C1940 1.419 . S
C1942 C1943 1.362 . S
C1943 H1933 0.930 . S
C1943 C1936 1.409 . S
C1943 C1942 1.362 . S
H1944 C1950 0.930 . S
H1945 C1953 0.930 . S
H1946 C1954 0.930 . S
H1947 C1955 0.930 . S
H1948 C1958 0.930 . S
H1949 C1959 0.930 . S
C1950 H1944 0.930 . S
C1950 C1951 1.355 . S
C1950 C1952 1.415 . S
C1951 C1950 1.355 . S
C1951 C1953 1.419 . S
C1952 C1950 1.415 . S
C1952 C1957 1.425 . S
C1952 C1959 1.409 . S
C1953 H1945 0.930 . S
C1953 C1951 1.419 . S
C1953 C1954 1.362 . S
C1954 H1946 0.930 . S
C1954 C1953 1.362 . S
C1954 C1957 1.409 . S
C1955 H1947 0.930 . S
C1955 C1956 1.355 . S
C1955 C1957 1.415 . S
C1956 C1955 1.355 . S
C1956 C1958 1.419 . S
C1957 C1952 1.425 . S
C1957 C1954 1.409 . S
C1957 C1955 1.415 . S
C1958 H1948 0.930 . S
C1958 C1956 1.419 . S
C1958 C1959 1.362 . S
C1959 H1949 0.930 . S
C1959 C1952 1.409 . S
C1959 C1958 1.362 . S
H1960 C1966 0.930 . S
H1961 C1969 0.930 . S
H1962 C1970 0.930 . S
H1963 C1971 0.930 . S
H1964 C1974 0.930 . S
H1965 C1975 0.930 . S
C1966 H1960 0.930 . S
C1966 C1967 1.355 . S
C1966 C1968 1.415 . S
C1967 C1966 1.355 . S
C1967 C1969 1.419 . S
C1968 C1966 1.415 . S
C1968 C1973 1.425 . S
C1968 C1975 1.409 . S
C1969 H1961 0.930 . S
C1969 C1967 1.419 . S
C1969 C1970 1.362 . S
C1970 H1962 0.930 . S
C1970 C1969 1.362 . S
C1970 C1973 1.409 . S
C1971 H1963 0.930 . S
C1971 C1972 1.355 . S
C1971 C1973 1.415 . S
C1972 C1971 1.355 . S
C1972 C1974 1.419 . S
C1973 C1968 1.425 . S
C1973 C1970 1.409 . S
C1973 C1971 1.415 . S
C1974 H1964 0.930 . S
C1974 C1972 1.419 . S
C1974 C1975 1.362 . S
C1975 H1965 0.930 . S
C1975 C1968 1.409 . S
C1975 C1974 1.362 . S
H1976 C1982 0.930 . S
H1977 C1985 0.930 . S
H1978 C1986 0.930 . S
H1979 C1987 0.930 . S
H1980 C1990 0.930 . S
H1981 C1991 0.930 . S
C1982 H1976 0.930 . S
C1982 C1983 1.355 . S
C1982 C1984 1.415 . S
C1983 C1982 1.355 . S
C1983 C1985 1.419 . S
C1984 C1982 1.415 . S
C1984 C1989 1.425 . S
C1984 C1991 1.409 . S
C1985 H1977 0.930 . S
C1985 C1983 1.419 . S
C1985 C1986 1.362 . S
C1986 H1978 0.930 . S
C1986 C1985 1.362 . S
C1986 C1989 1.409 . S
C1987 H1979 0.930 . S
C1987 C1988 1.355 . S
C1987 C1989 1.415 . S
C1988 C1987 1.355 . S
C1988 C1990 1.419 . S
C1989 C1984 1.425 . S
C1989 C1986 1.409 . S
C1989 C1987 1.415 . S
C1990 H1980 0.930 . S
C1990 C1988 1.419 . S
C1990 C1991 1.362 . S
C1991 H1981 0.930 . S
C1991 C1984 1.409 . S
C1991 C1990 1.362 . S
H1992 C1998 0.930 . S
H1993 C2001 0.930 . S
H1994 C2002 0.930 . S
H1995 C2003 0.930 . S
H1996 C2006 0.930 . S
H1997 C2007 0.930 . S
C1998 H1992 0.930 . S
C1998 C1999 1.355 . S
C1998 C2000 1.415 . S
C1999 C1998 1.355 . S
C1999 C2001 1.419 . S
C2000 C1998 1.415 . S
C2000 C2005 1.425 1_455 S
C2000 C2007 1.409 . S
C2001 H1993 0.930 . S
C2001 C1999 1.419 . S
C2001 C2002 1.362 1_455 S
C2002 H1994 0.930 . S
C2002 C2001 1.362 1_655 S
C2002 C2005 1.409 . S
C2003 H1995 0.930 . S
C2003 C2004 1.355 . S
C2003 C2005 1.415 . S
C2004 C2003 1.355 . S
C2004 C2006 1.419 . S
C2005 C2000 1.425 1_655 S
C2005 C2002 1.409 . S
C2005 C2003 1.415 . S
C2006 H1996 0.930 . S
C2006 C2004 1.419 . S
C2006 C2007 1.362 1_655 S
C2007 H1997 0.930 . S
C2007 C2000 1.409 . S
C2007 C2006 1.362 1_455 S
H2008 C2014 0.930 . S
H2009 C2017 0.930 . S
H2010 C2018 0.930 . S
H2011 C2019 0.930 . S
H2012 C2022 0.930 . S
H2013 C2023 0.930 . S
C2014 H2008 0.930 . S
C2014 C2015 1.355 . S
C2014 C2016 1.415 . S
C2015 C2014 1.355 . S
C2015 C2017 1.419 . S
C2016 C2014 1.415 . S
C2016 C2021 1.425 . S
C2016 C2023 1.409 . S
C2017 H2009 0.930 . S
C2017 C2015 1.419 . S
C2017 C2018 1.362 . S
C2018 H2010 0.930 . S
C2018 C2017 1.362 . S
C2018 C2021 1.409 . S
C2019 H2011 0.930 . S
C2019 C2020 1.355 . S
C2019 C2021 1.415 . S
C2020 C2019 1.355 . S
C2020 C2022 1.419 . S
C2021 C2016 1.425 . S
C2021 C2018 1.409 . S
C2021 C2019 1.415 . S
C2022 H2012 0.930 . S
C2022 C2020 1.419 . S
C2022 C2023 1.362 . S
C2023 H2013 0.930 . S
C2023 C2016 1.409 . S
C2023 C2022 1.362 . S
H2024 C2030 0.930 . S
H2025 C2033 0.930 . S
H2026 C2034 0.930 . S
H2027 C2035 0.930 . S
H2028 C2038 0.930 . S
H2029 C2039 0.930 . S
C2030 H2024 0.930 . S
C2030 C2031 1.355 . S
C2030 C2032 1.415 . S
C2031 C2030 1.355 . S
C2031 C2033 1.419 . S
C2032 C2030 1.415 . S
C2032 C2037 1.425 1_545 S
C2032 C2039 1.409 . S
C2033 H2025 0.930 . S
C2033 C2031 1.419 . S
C2033 C2034 1.362 1_545 S
C2034 H2026 0.930 . S
C2034 C2033 1.362 1_565 S
C2034 C2037 1.409 . S
C2035 H2027 0.930 . S
C2035 C2036 1.355 . S
C2035 C2037 1.415 . S
C2036 C2035 1.355 . S
C2036 C2038 1.419 . S
C2037 C2032 1.425 1_565 S
C2037 C2034 1.409 . S
C2037 C2035 1.415 . S
C2038 H2028 0.930 . S
C2038 C2036 1.419 . S
C2038 C2039 1.362 1_565 S
C2039 H2029 0.930 . S
C2039 C2032 1.409 . S
C2039 C2038 1.362 1_545 S
H2040 C2046 0.930 . S
H2041 C2049 0.936 . S
H2042 C2050 0.930 . S
H2043 C2051 0.930 . S
H2044 C2054 0.936 . S
H2045 C2055 0.930 . S
C2046 H2040 0.930 . S
C2046 C2047 1.355 . S
C2046 C2048 1.415 1_554 S
C2047 C2046 1.355 . S
C2047 C2049 1.419 . S
C2048 C2046 1.415 1_556 S
C2048 C2053 1.425 1_566 S
C2048 C2055 1.409 . S
C2049 H2041 0.936 . S
C2049 C2047 1.419 . S
C2049 C2050 1.362 1_565 S
C2050 H2042 0.930 . S
C2050 C2049 1.362 1_545 S
C2050 C2053 1.409 . S
C2051 H2043 0.930 . S
C2051 C2052 1.355 . S
C2051 C2053 1.415 1_556 S
C2052 C2051 1.355 . S
C2052 C2054 1.419 . S
C2053 C2048 1.425 1_544 S
C2053 C2050 1.409 . S
C2053 C2051 1.415 1_554 S
C2054 H2044 0.936 . S
C2054 C2052 1.419 . S
C2054 C2055 1.362 1_545 S
C2055 H2045 0.930 . S
C2055 C2048 1.409 . S
C2055 C2054 1.362 1_565 S
H2056 C2062 0.930 . S
H2057 C2065 0.930 . S
H2058 C2066 0.930 . S
H2059 C2067 0.930 . S
H2060 C2070 0.930 . S
H2061 C2071 0.930 . S
C2062 H2056 0.930 . S
C2062 C2063 1.355 . S
C2062 C2064 1.415 1_556 S
C2063 C2062 1.355 . S
C2063 C2065 1.419 1_655 S
C2064 C2062 1.415 1_554 S
C2064 C2069 1.425 1_654 S
C2064 C2071 1.409 . S
C2065 H2057 0.930 . S
C2065 C2063 1.419 1_455 S
C2065 C2066 1.362 . S
C2066 H2058 0.930 . S
C2066 C2065 1.362 . S
C2066 C2069 1.409 . S
C2067 H2059 0.930 . S
C2067 C2068 1.355 . S
C2067 C2069 1.415 1_554 S
C2068 C2067 1.355 . S
C2068 C2070 1.419 1_455 S
C2069 C2064 1.425 1_456 S
C2069 C2066 1.409 . S
C2069 C2067 1.415 1_556 S
C2070 H2060 0.930 . S
C2070 C2068 1.419 1_655 S
C2070 C2071 1.362 . S
C2071 H2061 0.930 . S
C2071 C2064 1.409 . S
C2071 C2070 1.362 . S
H2072 C2078 0.930 . S
H2073 C2081 0.930 . S
H2074 C2082 0.930 . S
H2075 C2083 0.930 . S
H2076 C2086 0.930 . S
H2077 C2087 0.930 . S
C2078 H2072 0.930 . S
C2078 C2079 1.355 . S
C2078 C2080 1.415 1_554 S
C2079 C2078 1.355 . S
C2079 C2081 1.419 . S
C2080 C2078 1.415 1_556 S
C2080 C2085 1.425 1_556 S
C2080 C2087 1.409 . S
C2081 H2073 0.930 . S
C2081 C2079 1.419 . S
C2081 C2082 1.362 . S
C2082 H2074 0.930 . S
C2082 C2081 1.362 . S
C2082 C2085 1.409 . S
C2083 H2075 0.930 . S
C2083 C2084 1.355 . S
C2083 C2085 1.415 1_556 S
C2084 C2083 1.355 . S
C2084 C2086 1.419 . S
C2085 C2080 1.425 1_554 S
C2085 C2082 1.409 . S
C2085 C2083 1.415 1_554 S
C2086 H2076 0.930 . S
C2086 C2084 1.419 . S
C2086 C2087 1.362 . S
C2087 H2077 0.930 . S
C2087 C2080 1.409 . S
C2087 C2086 1.362 . S
H2088 C2094 0.930 . S
H2089 C2097 0.930 . S
H2090 C2098 0.930 . S
H2091 C2099 0.930 . S
H2092 C2102 0.930 . S
H2093 C2103 0.913 1_545 S
C2094 H2088 0.930 . S
C2094 C2095 1.355 . S
C2094 C2096 1.424 . S
C2095 C2094 1.355 . S
C2095 C2097 1.419 1_554 S
C2096 C2094 1.424 . S
C2096 C2101 1.414 1_554 S
C2096 C2103 1.400 1_545 S
C2097 H2089 0.930 . S
C2097 C2095 1.419 1_556 S
C2097 C2098 1.362 . S
C2098 H2090 0.930 . S
C2098 C2097 1.362 . S
C2098 C2101 1.409 . S
C2099 H2091 0.930 . S
C2099 C2100 1.355 . S
C2099 C2101 1.415 1_565 S
C2100 C2099 1.355 . S
C2100 C2102 1.419 . S
C2101 C2096 1.414 1_556 S
C2101 C2098 1.409 . S
C2101 C2099 1.415 1_545 S
C2102 H2092 0.930 . S
C2102 C2100 1.419 . S
C2102 C2103 1.390 1_556 S
C2103 H2093 0.913 1_565 S
C2103 C2096 1.400 1_565 S
C2103 C2102 1.390 1_554 S
H2104 C2110 0.930 . S
H2105 C2113 0.931 . S
H2106 C2114 0.930 . S
H2107 C2115 0.930 . S
H2108 C2118 0.930 . S
H2109 C2119 0.915 1_554 S
C2110 H2104 0.930 . S
C2110 C2111 1.355 . S
C2110 C2112 1.415 1_554 S
C2111 C2110 1.355 . S
C2111 C2113 1.429 . S
C2112 C2110 1.415 1_556 S
C2112 C2117 1.425 . S
C2112 C2119 1.460 . S
C2113 H2105 0.931 . S
C2113 C2111 1.429 . S
C2113 C2114 1.352 1_554 S
C2114 H2106 0.930 . S
C2114 C2113 1.352 1_556 S
C2114 C2117 1.409 . S
C2115 H2107 0.930 . S
C2115 C2116 1.355 . S
C2115 C2117 1.415 1_455 S
C2116 C2115 1.355 . S
C2116 C2118 1.419 . S
C2117 C2112 1.425 . S
C2117 C2114 1.409 . S
C2117 C2115 1.415 1_655 S
C2118 H2108 0.930 . S
C2118 C2116 1.419 . S
C2118 C2119 1.329 1_455 S
C2119 H2109 0.915 1_556 S
C2119 C2112 1.460 . S
C2119 C2118 1.329 1_655 S
H2120 C2126 0.930 . S
H2121 C2129 0.930 . S
H2122 C2130 0.930 . S
H2123 C2131 0.930 . S
H2124 C2134 0.930 . S
H2125 C2135 0.930 . S
C2126 H2120 0.930 . S
C2126 C2127 1.355 1_554 S
C2126 C2128 1.415 . S
C2127 C2126 1.355 1_556 S
C2127 C2129 1.419 . S
C2128 C2126 1.415 . S
C2128 C2133 1.425 1_554 S
C2128 C2135 1.409 . S
C2129 H2121 0.930 . S
C2129 C2127 1.419 . S
C2129 C2130 1.362 . S
C2130 H2122 0.930 . S
C2130 C2129 1.362 . S
C2130 C2133 1.409 . S
C2131 H2123 0.930 . S
C2131 C2132 1.355 1_556 S
C2131 C2133 1.415 . S
C2132 C2131 1.355 1_554 S
C2132 C2134 1.419 . S
C2133 C2128 1.425 1_556 S
C2133 C2130 1.409 . S
C2133 C2131 1.415 . S
C2134 H2124 0.930 . S
C2134 C2132 1.419 . S
C2134 C2135 1.362 . S
C2135 H2125 0.930 . S
C2135 C2128 1.409 . S
C2135 C2134 1.362 . S
H2136 C2142 0.930 . S
H2137 C2145 0.930 . S
H2138 C2146 0.930 . S
H2139 C2147 0.930 . S
H2140 C2150 0.930 . S
H2141 C2151 0.930 . S
C2142 H2136 0.930 . S
C2142 C2143 1.355 . S
C2142 C2144 1.415 1_655 S
C2143 C2142 1.355 . S
C2143 C2145 1.419 . S
C2144 C2142 1.415 1_455 S
C2144 C2149 1.425 . S
C2144 C2151 1.409 . S
C2145 H2137 0.930 . S
C2145 C2143 1.419 . S
C2145 C2146 1.362 1_655 S
C2146 H2138 0.930 . S
C2146 C2145 1.362 1_455 S
C2146 C2149 1.409 . S
C2147 H2139 0.930 . S
C2147 C2148 1.355 . S
C2147 C2149 1.415 . S
C2148 C2147 1.355 . S
C2148 C2150 1.419 . S
C2149 C2144 1.425 . S
C2149 C2146 1.409 . S
C2149 C2147 1.415 . S
C2150 H2140 0.930 . S
C2150 C2148 1.419 . S
C2150 C2151 1.362 . S
C2151 H2141 0.930 . S
C2151 C2144 1.409 . S
C2151 C2150 1.362 . S
H2152 C2158 0.930 . S
H2153 C2161 0.930 . S
H2154 C2162 0.930 . S
H2155 C2163 0.930 . S
H2156 C2166 0.930 . S
H2157 C2167 0.930 . S
C2158 H2152 0.930 . S
C2158 C2159 1.355 . S
C2158 C2160 1.415 . S
C2159 C2158 1.355 . S
C2159 C2161 1.419 . S
C2160 C2158 1.415 . S
C2160 C2165 1.425 . S
C2160 C2167 1.409 . S
C2161 H2153 0.930 . S
C2161 C2159 1.419 . S
C2161 C2162 1.362 . S
C2162 H2154 0.930 . S
C2162 C2161 1.362 . S
C2162 C2165 1.409 . S
C2163 H2155 0.930 . S
C2163 C2164 1.355 . S
C2163 C2165 1.415 . S
C2164 C2163 1.355 . S
C2164 C2166 1.419 . S
C2165 C2160 1.425 . S
C2165 C2162 1.409 . S
C2165 C2163 1.415 . S
C2166 H2156 0.930 . S
C2166 C2164 1.419 . S
C2166 C2167 1.362 . S
C2167 H2157 0.930 . S
C2167 C2160 1.409 . S
C2167 C2166 1.362 . S
H2168 C2174 0.930 . S
H2169 C2177 0.930 . S
H2170 C2178 0.930 . S
H2171 C2179 0.930 . S
H2172 C2182 0.930 . S
H2173 C2183 0.930 . S
C2174 H2168 0.930 . S
C2174 C2175 1.355 . S
C2174 C2176 1.415 1_545 S
C2175 C2174 1.355 . S
C2175 C2177 1.419 . S
C2176 C2174 1.415 1_565 S
C2176 C2181 1.425 . S
C2176 C2183 1.409 . S
C2177 H2169 0.930 . S
C2177 C2175 1.419 . S
C2177 C2178 1.362 1_545 S
C2178 H2170 0.930 . S
C2178 C2177 1.362 1_565 S
C2178 C2181 1.409 . S
C2179 H2171 0.930 . S
C2179 C2180 1.355 . S
C2179 C2181 1.415 . S
C2180 C2179 1.355 . S
C2180 C2182 1.419 . S
C2181 C2176 1.425 . S
C2181 C2178 1.409 . S
C2181 C2179 1.415 . S
C2182 H2172 0.930 . S
C2182 C2180 1.419 . S
C2182 C2183 1.362 . S
C2183 H2173 0.930 . S
C2183 C2176 1.409 . S
C2183 C2182 1.362 . S
H2184 C2190 0.930 . S
H2185 C2193 0.930 . S
H2186 C2194 0.930 . S
H2187 C2195 0.930 . S
H2188 C2198 0.930 . S
H2189 C2199 0.930 . S
C2190 H2184 0.930 . S
C2190 C2191 1.355 . S
C2190 C2192 1.415 1_545 S
C2191 C2190 1.355 . S
C2191 C2193 1.419 1_554 S
C2192 C2190 1.415 1_565 S
C2192 C2197 1.425 1_554 S
C2192 C2199 1.409 . S
C2193 H2185 0.930 . S
C2193 C2191 1.419 1_556 S
C2193 C2194 1.362 . S
C2194 H2186 0.930 . S
C2194 C2193 1.362 . S
C2194 C2197 1.409 1_545 S
C2195 H2187 0.930 . S
C2195 C2196 1.355 . S
C2195 C2197 1.415 . S
C2196 C2195 1.355 . S
C2196 C2198 1.419 1_556 S
C2197 C2192 1.425 1_556 S
C2197 C2194 1.409 1_565 S
C2197 C2195 1.415 . S
C2198 H2188 0.930 . S
C2198 C2196 1.419 1_554 S
C2198 C2199 1.362 . S
C2199 H2189 0.930 . S
C2199 C2192 1.409 . S
C2199 C2198 1.362 . S
H2200 C2206 0.930 . S
H2201 C2209 0.930 . S
H2202 C2210 0.943 . S
H2203 C2211 0.930 . S
H2204 C2214 0.930 . S
H2205 C2215 0.930 . S
C2206 H2200 0.930 . S
C2206 C2207 1.355 . S
C2206 C2208 1.415 1_655 S
C2207 C2206 1.355 . S
C2207 C2209 1.419 . S
C2208 C2206 1.415 1_455 S
C2208 C2213 1.435 . S
C2208 C2215 1.409 . S
C2209 H2201 0.930 . S
C2209 C2207 1.419 . S
C2209 C2210 1.352 1_654 S
C2210 H2202 0.943 . S
C2210 C2209 1.352 1_456 S
C2210 C2213 1.408 1_556 S
C2211 H2203 0.930 . S
C2211 C2212 1.355 . S
C2211 C2213 1.407 1_556 S
C2212 C2211 1.355 . S
C2212 C2214 1.419 1_556 S
C2213 C2208 1.435 . S
C2213 C2210 1.408 1_554 S
C2213 C2211 1.407 1_554 S
C2214 H2204 0.930 . S
C2214 C2212 1.419 1_554 S
C2214 C2215 1.362 . S
C2215 H2205 0.930 . S
C2215 C2208 1.409 . S
C2215 C2214 1.362 . S
H2216 C2222 0.930 . S
H2217 C2225 0.930 . S
H2218 C2226 0.930 . S
H2219 C2227 0.930 . S
H2220 C2230 0.930 . S
H2221 C2231 0.930 . S
C2222 H2216 0.930 . S
C2222 C2223 1.355 . S
C2222 C2224 1.415 . S
C2223 C2222 1.355 . S
C2223 C2225 1.419 1_554 S
C2224 C2222 1.415 . S
C2224 C2229 1.425 1_554 S
C2224 C2231 1.409 . S
C2225 H2217 0.930 . S
C2225 C2223 1.419 1_556 S
C2225 C2226 1.362 . S
C2226 H2218 0.930 . S
C2226 C2225 1.362 . S
C2226 C2229 1.409 . S
C2227 H2219 0.930 . S
C2227 C2228 1.355 . S
C2227 C2229 1.415 . S
C2228 C2227 1.355 . S
C2228 C2230 1.419 1_556 S
C2229 C2224 1.425 1_556 S
C2229 C2226 1.409 . S
C2229 C2227 1.415 . S
C2230 H2220 0.930 . S
C2230 C2228 1.419 1_554 S
C2230 C2231 1.362 . S
C2231 H2221 0.930 . S
C2231 C2224 1.409 . S
C2231 C2230 1.362 . S
H2232 C2238 0.930 . S
H2233 C2241 0.930 . S
H2234 C2242 0.930 . S
H2235 C2243 0.930 . S
H2236 C2246 0.930 . S
H2237 C2247 0.930 . S
C2238 H2232 0.930 . S
C2238 C2239 1.355 . S
C2238 C2240 1.415 . S
C2239 C2238 1.355 . S
C2239 C2241 1.419 . S
C2240 C2238 1.415 . S
C2240 C2245 1.425 . S
C2240 C2247 1.409 . S
C2241 H2233 0.930 . S
C2241 C2239 1.419 . S
C2241 C2242 1.362 . S
C2242 H2234 0.930 . S
C2242 C2241 1.362 . S
C2242 C2245 1.409 . S
C2243 H2235 0.930 . S
C2243 C2244 1.355 . S
C2243 C2245 1.415 1_455 S
C2244 C2243 1.355 . S
C2244 C2246 1.419 . S
C2245 C2240 1.425 . S
C2245 C2242 1.409 . S
C2245 C2243 1.415 1_655 S
C2246 H2236 0.930 . S
C2246 C2244 1.419 . S
C2246 C2247 1.362 1_455 S
C2247 H2237 0.930 . S
C2247 C2240 1.409 . S
C2247 C2246 1.362 1_655 S
H2248 C2254 0.930 . S
H2249 C2257 0.930 . S
H2250 C2258 0.930 . S
H2251 C2259 0.930 . S
H2252 C2262 0.930 . S
H2253 C2263 0.930 . S
C2254 H2248 0.930 . S
C2254 C2255 1.355 . S
C2254 C2256 1.415 . S
C2255 C2254 1.355 . S
C2255 C2257 1.419 . S
C2256 C2254 1.415 . S
C2256 C2261 1.425 . S
C2256 C2263 1.409 . S
C2257 H2249 0.930 . S
C2257 C2255 1.419 . S
C2257 C2258 1.362 . S
C2258 H2250 0.930 . S
C2258 C2257 1.362 . S
C2258 C2261 1.409 . S
C2259 H2251 0.930 . S
C2259 C2260 1.355 . S
C2259 C2261 1.415 . S
C2260 C2259 1.355 . S
C2260 C2262 1.419 . S
C2261 C2256 1.425 . S
C2261 C2258 1.409 . S
C2261 C2259 1.415 . S
C2262 H2252 0.930 . S
C2262 C2260 1.419 . S
C2262 C2263 1.362 . S
C2263 H2253 0.930 . S
C2263 C2256 1.409 . S
C2263 C2262 1.362 . S
H2264 C2270 0.930 . S
H2265 C2273 0.930 . S
H2266 C2274 0.942 1_545 S
H2267 C2275 0.930 . S
H2268 C2278 0.930 . S
H2269 C2279 0.930 . S
C2270 H2264 0.930 . S
C2270 C2271 1.355 . S
C2270 C2272 1.415 1_565 S
C2271 C2270 1.355 . S
C2271 C2273 1.419 . S
C2272 C2270 1.415 1_545 S
C2272 C2277 1.425 . S
C2272 C2279 1.409 . S
C2273 H2265 0.930 . S
C2273 C2271 1.419 . S
C2273 C2274 1.362 . S
C2274 H2266 0.942 1_565 S
C2274 C2273 1.362 . S
C2274 C2277 1.409 1_565 S
C2275 H2267 0.930 . S
C2275 C2276 1.355 . S
C2275 C2277 1.415 . S
C2276 C2275 1.355 . S
C2276 C2278 1.419 . S
C2277 C2272 1.425 . S
C2277 C2274 1.409 1_545 S
C2277 C2275 1.415 . S
C2278 H2268 0.930 . S
C2278 C2276 1.419 . S
C2278 C2279 1.362 . S
C2279 H2269 0.930 . S
C2279 C2272 1.409 . S
C2279 C2278 1.362 . S
H2280 C2286 0.930 . S
H2281 C2289 0.930 . S
H2282 C2290 0.930 . S
H2283 C2291 0.930 . S
H2284 C2294 0.930 . S
H2285 C2295 0.930 . S
C2286 H2280 0.930 . S
C2286 C2287 1.355 . S
C2286 C2288 1.415 . S
C2287 C2286 1.355 . S
C2287 C2289 1.419 . S
C2288 C2286 1.415 . S
C2288 C2293 1.425 . S
C2288 C2295 1.409 . S
C2289 H2281 0.930 . S
C2289 C2287 1.419 . S
C2289 C2290 1.362 . S
C2290 H2282 0.930 . S
C2290 C2289 1.362 . S
C2290 C2293 1.409 . S
C2291 H2283 0.930 . S
C2291 C2292 1.355 . S
C2291 C2293 1.415 . S
C2292 C2291 1.355 . S
C2292 C2294 1.419 . S
C2293 C2288 1.425 . S
C2293 C2290 1.409 . S
C2293 C2291 1.415 . S
C2294 H2284 0.930 . S
C2294 C2292 1.419 . S
C2294 C2295 1.362 . S
C2295 H2285 0.930 . S
C2295 C2288 1.409 . S
C2295 C2294 1.362 . S
H2296 C2302 0.930 . S
H2297 C2305 0.930 . S
H2298 C2306 0.930 . S
H2299 C2307 0.930 . S
H2300 C2310 0.930 . S
H2301 C2311 0.930 . S
C2302 H2296 0.930 . S
C2302 C2303 1.355 . S
C2302 C2304 1.415 . S
C2303 C2302 1.355 . S
C2303 C2305 1.419 . S
C2304 C2302 1.415 . S
C2304 C2309 1.425 . S
C2304 C2311 1.409 . S
C2305 H2297 0.930 . S
C2305 C2303 1.419 . S
C2305 C2306 1.362 . S
C2306 H2298 0.930 . S
C2306 C2305 1.362 . S
C2306 C2309 1.409 . S
C2307 H2299 0.930 . S
C2307 C2308 1.355 . S
C2307 C2309 1.415 . S
C2308 C2307 1.355 . S
C2308 C2310 1.419 . S
C2309 C2304 1.425 . S
C2309 C2306 1.409 . S
C2309 C2307 1.415 . S
C2310 H2300 0.930 . S
C2310 C2308 1.419 . S
C2310 C2311 1.362 . S
C2311 H2301 0.930 . S
C2311 C2304 1.409 . S
C2311 C2310 1.362 . S
H2312 C2318 0.930 . S
H2313 C2321 0.930 . S
H2314 C2322 0.930 . S
H2315 C2323 0.930 . S
H2316 C2326 0.930 . S
H2317 C2327 0.930 . S
C2318 H2312 0.930 . S
C2318 C2319 1.355 . S
C2318 C2320 1.415 . S
C2319 C2318 1.355 . S
C2319 C2321 1.419 . S
C2320 C2318 1.415 . S
C2320 C2325 1.425 . S
C2320 C2327 1.409 . S
C2321 H2313 0.930 . S
C2321 C2319 1.419 . S
C2321 C2322 1.362 . S
C2322 H2314 0.930 . S
C2322 C2321 1.362 . S
C2322 C2325 1.409 . S
C2323 H2315 0.930 . S
C2323 C2324 1.355 . S
C2323 C2325 1.415 . S
C2324 C2323 1.355 . S
C2324 C2326 1.419 . S
C2325 C2320 1.425 . S
C2325 C2322 1.409 . S
C2325 C2323 1.415 . S
C2326 H2316 0.930 . S
C2326 C2324 1.419 . S
C2326 C2327 1.362 . S
C2327 H2317 0.930 . S
C2327 C2320 1.409 . S
C2327 C2326 1.362 . S
H2328 C2334 0.930 . S
H2329 C2337 0.930 . S
H2330 C2338 0.930 . S
H2331 C2339 0.930 . S
H2332 C2342 0.930 . S
H2333 C2343 0.930 . S
C2334 H2328 0.930 . S
C2334 C2335 1.355 . S
C2334 C2336 1.415 . S
C2335 C2334 1.355 . S
C2335 C2337 1.419 . S
C2336 C2334 1.415 . S
C2336 C2341 1.425 . S
C2336 C2343 1.409 . S
C2337 H2329 0.930 . S
C2337 C2335 1.419 . S
C2337 C2338 1.362 . S
C2338 H2330 0.930 . S
C2338 C2337 1.362 . S
C2338 C2341 1.409 . S
C2339 H2331 0.930 . S
C2339 C2340 1.355 . S
C2339 C2341 1.415 . S
C2340 C2339 1.355 . S
C2340 C2342 1.419 . S
C2341 C2336 1.425 . S
C2341 C2338 1.409 . S
C2341 C2339 1.415 . S
C2342 H2332 0.930 . S
C2342 C2340 1.419 . S
C2342 C2343 1.362 . S
C2343 H2333 0.930 . S
C2343 C2336 1.409 . S
C2343 C2342 1.362 . S
H2344 C2350 0.930 . S
H2345 C2353 0.930 . S
H2346 C2354 0.930 . S
H2347 C2355 0.930 . S
H2348 C2358 0.930 . S
H2349 C2359 0.930 . S
C2350 H2344 0.930 . S
C2350 C2351 1.355 . S
C2350 C2352 1.415 . S
C2351 C2350 1.355 . S
C2351 C2353 1.419 . S
C2352 C2350 1.415 . S
C2352 C2357 1.425 . S
C2352 C2359 1.409 . S
C2353 H2345 0.930 . S
C2353 C2351 1.419 . S
C2353 C2354 1.362 . S
C2354 H2346 0.930 . S
C2354 C2353 1.362 . S
C2354 C2357 1.409 . S
C2355 H2347 0.930 . S
C2355 C2356 1.355 . S
C2355 C2357 1.415 . S
C2356 C2355 1.355 . S
C2356 C2358 1.419 . S
C2357 C2352 1.425 . S
C2357 C2354 1.409 . S
C2357 C2355 1.415 . S
C2358 H2348 0.930 . S
C2358 C2356 1.419 . S
C2358 C2359 1.362 . S
C2359 H2349 0.930 . S
C2359 C2352 1.409 . S
C2359 C2358 1.362 . S
H2360 C2366 0.930 . S
H2361 C2369 0.930 . S
H2362 C2370 0.930 . S
H2363 C2371 0.930 . S
H2364 C2374 0.930 . S
H2365 C2375 0.930 . S
C2366 H2360 0.930 . S
C2366 C2367 1.355 . S
C2366 C2368 1.415 . S
C2367 C2366 1.355 . S
C2367 C2369 1.419 . S
C2368 C2366 1.415 . S
C2368 C2373 1.425 . S
C2368 C2375 1.409 . S
C2369 H2361 0.930 . S
C2369 C2367 1.419 . S
C2369 C2370 1.362 . S
C2370 H2362 0.930 . S
C2370 C2369 1.362 . S
C2370 C2373 1.409 . S
C2371 H2363 0.930 . S
C2371 C2372 1.355 . S
C2371 C2373 1.415 . S
C2372 C2371 1.355 . S
C2372 C2374 1.419 . S
C2373 C2368 1.425 . S
C2373 C2370 1.409 . S
C2373 C2371 1.415 . S
C2374 H2364 0.930 . S
C2374 C2372 1.419 . S
C2374 C2375 1.362 . S
C2375 H2365 0.930 . S
C2375 C2368 1.409 . S
C2375 C2374 1.362 . S
H2376 C2382 0.930 . S
H2377 C2385 0.930 . S
H2378 C2386 0.930 . S
H2379 C2387 0.930 . S
H2380 C2390 0.930 . S
H2381 C2391 0.930 . S
C2382 H2376 0.930 . S
C2382 C2383 1.355 . S
C2382 C2384 1.415 . S
C2383 C2382 1.355 . S
C2383 C2385 1.419 . S
C2384 C2382 1.415 . S
C2384 C2389 1.425 . S
C2384 C2391 1.409 . S
C2385 H2377 0.930 . S
C2385 C2383 1.419 . S
C2385 C2386 1.362 . S
C2386 H2378 0.930 . S
C2386 C2385 1.362 . S
C2386 C2389 1.409 . S
C2387 H2379 0.930 . S
C2387 C2388 1.355 . S
C2387 C2389 1.415 . S
C2388 C2387 1.355 . S
C2388 C2390 1.419 . S
C2389 C2384 1.425 . S
C2389 C2386 1.409 . S
C2389 C2387 1.415 . S
C2390 H2380 0.930 . S
C2390 C2388 1.419 . S
C2390 C2391 1.362 . S
C2391 H2381 0.930 . S
C2391 C2384 1.409 . S
C2391 C2390 1.362 . S
H2392 C2398 0.930 . S
H2393 C2401 0.930 . S
H2394 C2402 0.930 . S
H2395 C2403 0.930 . S
H2396 C2406 0.930 . S
H2397 C2407 0.930 . S
C2398 H2392 0.930 . S
C2398 C2399 1.355 . S
C2398 C2400 1.415 . S
C2399 C2398 1.355 . S
C2399 C2401 1.419 . S
C2400 C2398 1.415 . S
C2400 C2405 1.425 . S
C2400 C2407 1.409 . S
C2401 H2393 0.930 . S
C2401 C2399 1.419 . S
C2401 C2402 1.362 . S
C2402 H2394 0.930 . S
C2402 C2401 1.362 . S
C2402 C2405 1.409 . S
C2403 H2395 0.930 . S
C2403 C2404 1.355 . S
C2403 C2405 1.415 . S
C2404 C2403 1.355 . S
C2404 C2406 1.419 . S
C2405 C2400 1.425 . S
C2405 C2402 1.409 . S
C2405 C2403 1.415 . S
C2406 H2396 0.930 . S
C2406 C2404 1.419 . S
C2406 C2407 1.362 . S
C2407 H2397 0.930 . S
C2407 C2400 1.409 . S
C2407 C2406 1.362 . S
H2408 C2414 0.930 . S
H2409 C2417 0.930 . S
H2410 C2418 0.930 . S
H2411 C2419 0.930 . S
H2412 C2422 0.930 . S
H2413 C2423 0.930 . S
C2414 H2408 0.930 . S
C2414 C2415 1.355 . S
C2414 C2416 1.415 . S
C2415 C2414 1.355 . S
C2415 C2417 1.419 . S
C2416 C2414 1.415 . S
C2416 C2421 1.425 . S
C2416 C2423 1.409 . S
C2417 H2409 0.930 . S
C2417 C2415 1.419 . S
C2417 C2418 1.362 . S
C2418 H2410 0.930 . S
C2418 C2417 1.362 . S
C2418 C2421 1.409 . S
C2419 H2411 0.930 . S
C2419 C2420 1.355 . S
C2419 C2421 1.415 . S
C2420 C2419 1.355 . S
C2420 C2422 1.419 . S
C2421 C2416 1.425 . S
C2421 C2418 1.409 . S
C2421 C2419 1.415 . S
C2422 H2412 0.930 . S
C2422 C2420 1.419 . S
C2422 C2423 1.362 . S
C2423 H2413 0.930 . S
C2423 C2416 1.409 . S
C2423 C2422 1.362 . S
H2424 C2430 0.930 . S
H2425 C2433 0.930 . S
H2426 C2434 0.930 . S
H2427 C2435 0.930 . S
H2428 C2438 0.930 . S
H2429 C2439 0.930 . S
C2430 H2424 0.930 . S
C2430 C2431 1.355 . S
C2430 C2432 1.415 . S
C2431 C2430 1.355 . S
C2431 C2433 1.419 . S
C2432 C2430 1.415 . S
C2432 C2437 1.425 . S
C2432 C2439 1.409 . S
C2433 H2425 0.930 . S
C2433 C2431 1.419 . S
C2433 C2434 1.362 . S
C2434 H2426 0.930 . S
C2434 C2433 1.362 . S
C2434 C2437 1.409 . S
C2435 H2427 0.930 . S
C2435 C2436 1.355 . S
C2435 C2437 1.415 . S
C2436 C2435 1.355 . S
C2436 C2438 1.419 . S
C2437 C2432 1.425 . S
C2437 C2434 1.409 . S
C2437 C2435 1.415 . S
C2438 H2428 0.930 . S
C2438 C2436 1.419 . S
C2438 C2439 1.362 . S
C2439 H2429 0.930 . S
C2439 C2432 1.409 . S
C2439 C2438 1.362 . S
H2440 C2446 0.930 . S
H2441 C2449 0.930 . S
H2442 C2450 0.930 . S
H2443 C2451 0.930 . S
H2444 C2454 0.930 . S
H2445 C2455 0.930 . S
C2446 H2440 0.930 . S
C2446 C2447 1.355 . S
C2446 C2448 1.415 . S
C2447 C2446 1.355 . S
C2447 C2449 1.419 . S
C2448 C2446 1.415 . S
C2448 C2453 1.425 . S
C2448 C2455 1.409 . S
C2449 H2441 0.930 . S
C2449 C2447 1.419 . S
C2449 C2450 1.362 . S
C2450 H2442 0.930 . S
C2450 C2449 1.362 . S
C2450 C2453 1.409 . S
C2451 H2443 0.930 . S
C2451 C2452 1.355 . S
C2451 C2453 1.415 . S
C2452 C2451 1.355 . S
C2452 C2454 1.419 . S
C2453 C2448 1.425 . S
C2453 C2450 1.409 . S
C2453 C2451 1.415 . S
C2454 H2444 0.930 . S
C2454 C2452 1.419 . S
C2454 C2455 1.362 . S
C2455 H2445 0.930 . S
C2455 C2448 1.409 . S
C2455 C2454 1.362 . S
H2456 C2462 0.930 . S
H2457 C2465 0.930 . S
H2458 C2466 0.930 . S
H2459 C2467 0.930 . S
H2460 C2470 0.930 . S
H2461 C2471 0.930 . S
C2462 H2456 0.930 . S
C2462 C2463 1.355 . S
C2462 C2464 1.415 . S
C2463 C2462 1.355 . S
C2463 C2465 1.419 . S
C2464 C2462 1.415 . S
C2464 C2469 1.425 . S
C2464 C2471 1.409 . S
C2465 H2457 0.930 . S
C2465 C2463 1.419 . S
C2465 C2466 1.362 . S
C2466 H2458 0.930 . S
C2466 C2465 1.362 . S
C2466 C2469 1.409 . S
C2467 H2459 0.930 . S
C2467 C2468 1.355 . S
C2467 C2469 1.415 . S
C2468 C2467 1.355 . S
C2468 C2470 1.419 . S
C2469 C2464 1.425 . S
C2469 C2466 1.409 . S
C2469 C2467 1.415 . S
C2470 H2460 0.930 . S
C2470 C2468 1.419 . S
C2470 C2471 1.362 . S
C2471 H2461 0.930 . S
C2471 C2464 1.409 . S
C2471 C2470 1.362 . S
H2472 C2478 0.930 . S
H2473 C2481 0.930 . S
H2474 C2482 0.930 . S
H2475 C2483 0.930 . S
H2476 C2486 0.930 . S
H2477 C2487 0.930 . S
C2478 H2472 0.930 . S
C2478 C2479 1.355 . S
C2478 C2480 1.415 . S
C2479 C2478 1.355 . S
C2479 C2481 1.419 . S
C2480 C2478 1.415 . S
C2480 C2485 1.425 . S
C2480 C2487 1.409 . S
C2481 H2473 0.930 . S
C2481 C2479 1.419 . S
C2481 C2482 1.362 . S
C2482 H2474 0.930 . S
C2482 C2481 1.362 . S
C2482 C2485 1.409 . S
C2483 H2475 0.930 . S
C2483 C2484 1.355 . S
C2483 C2485 1.415 . S
C2484 C2483 1.355 . S
C2484 C2486 1.419 . S
C2485 C2480 1.425 . S
C2485 C2482 1.409 . S
C2485 C2483 1.415 . S
C2486 H2476 0.930 . S
C2486 C2484 1.419 . S
C2486 C2487 1.362 . S
C2487 H2477 0.930 . S
C2487 C2480 1.409 . S
C2487 C2486 1.362 . S
H2488 C2494 0.930 . S
H2489 C2497 0.930 . S
H2490 C2498 0.930 . S
H2491 C2499 0.930 . S
H2492 C2502 0.930 . S
H2493 C2503 0.930 . S
C2494 H2488 0.930 . S
C2494 C2495 1.355 . S
C2494 C2496 1.415 . S
C2495 C2494 1.355 . S
C2495 C2497 1.419 . S
C2496 C2494 1.415 . S
C2496 C2501 1.425 . S
C2496 C2503 1.409 . S
C2497 H2489 0.930 . S
C2497 C2495 1.419 . S
C2497 C2498 1.362 . S
C2498 H2490 0.930 . S
C2498 C2497 1.362 . S
C2498 C2501 1.409 . S
C2499 H2491 0.930 . S
C2499 C2500 1.355 . S
C2499 C2501 1.415 . S
C2500 C2499 1.355 . S
C2500 C2502 1.419 . S
C2501 C2496 1.425 . S
C2501 C2498 1.409 . S
C2501 C2499 1.415 . S
C2502 H2492 0.930 . S
C2502 C2500 1.419 . S
C2502 C2503 1.362 . S
C2503 H2493 0.930 . S
C2503 C2496 1.409 . S
C2503 C2502 1.362 . S
H2504 C2510 0.930 . S
H2505 C2513 0.930 . S
H2506 C2514 0.930 . S
H2507 C2515 0.930 . S
H2508 C2518 0.930 . S
H2509 C2519 0.930 . S
C2510 H2504 0.930 . S
C2510 C2511 1.355 . S
C2510 C2512 1.415 . S
C2511 C2510 1.355 . S
C2511 C2513 1.419 . S
C2512 C2510 1.415 . S
C2512 C2517 1.425 . S
C2512 C2519 1.409 . S
C2513 H2505 0.930 . S
C2513 C2511 1.419 . S
C2513 C2514 1.362 . S
C2514 H2506 0.930 . S
C2514 C2513 1.362 . S
C2514 C2517 1.409 . S
C2515 H2507 0.930 . S
C2515 C2516 1.355 . S
C2515 C2517 1.415 . S
C2516 C2515 1.355 . S
C2516 C2518 1.419 . S
C2517 C2512 1.425 . S
C2517 C2514 1.409 . S
C2517 C2515 1.415 . S
C2518 H2508 0.930 . S
C2518 C2516 1.419 . S
C2518 C2519 1.362 . S
C2519 H2509 0.930 . S
C2519 C2512 1.409 . S
C2519 C2518 1.362 . S
H2520 C2526 0.930 . S
H2521 C2529 0.930 . S
H2522 C2530 0.930 . S
H2523 C2531 0.930 . S
H2524 C2534 0.930 . S
H2525 C2535 0.930 . S
C2526 H2520 0.930 . S
C2526 C2527 1.355 . S
C2526 C2528 1.415 . S
C2527 C2526 1.355 . S
C2527 C2529 1.419 . S
C2528 C2526 1.415 . S
C2528 C2533 1.425 . S
C2528 C2535 1.409 . S
C2529 H2521 0.930 . S
C2529 C2527 1.419 . S
C2529 C2530 1.362 . S
C2530 H2522 0.930 . S
C2530 C2529 1.362 . S
C2530 C2533 1.409 . S
C2531 H2523 0.930 . S
C2531 C2532 1.355 . S
C2531 C2533 1.415 . S
C2532 C2531 1.355 . S
C2532 C2534 1.419 . S
C2533 C2528 1.425 . S
C2533 C2530 1.409 . S
C2533 C2531 1.415 . S
C2534 H2524 0.930 . S
C2534 C2532 1.419 . S
C2534 C2535 1.362 . S
C2535 H2525 0.930 . S
C2535 C2528 1.409 . S
C2535 C2534 1.362 . S
H2536 C2542 0.930 . S
H2537 C2545 0.930 . S
H2538 C2546 0.930 . S
H2539 C2547 0.930 . S
H2540 C2550 0.930 . S
H2541 C2551 0.930 . S
C2542 H2536 0.930 . S
C2542 C2543 1.355 . S
C2542 C2544 1.415 . S
C2543 C2542 1.355 . S
C2543 C2545 1.419 . S
C2544 C2542 1.415 . S
C2544 C2549 1.425 . S
C2544 C2551 1.409 . S
C2545 H2537 0.930 . S
C2545 C2543 1.419 . S
C2545 C2546 1.362 . S
C2546 H2538 0.930 . S
C2546 C2545 1.362 . S
C2546 C2549 1.409 . S
C2547 H2539 0.930 . S
C2547 C2548 1.355 . S
C2547 C2549 1.415 . S
C2548 C2547 1.355 . S
C2548 C2550 1.419 . S
C2549 C2544 1.425 . S
C2549 C2546 1.409 . S
C2549 C2547 1.415 . S
C2550 H2540 0.930 . S
C2550 C2548 1.419 . S
C2550 C2551 1.362 . S
C2551 H2541 0.930 . S
C2551 C2544 1.409 . S
C2551 C2550 1.362 . S
H2552 C2558 0.930 . S
H2553 C2561 0.930 . S
H2554 C2562 0.930 . S
H2555 C2563 0.930 . S
H2556 C2566 0.930 . S
H2557 C2567 0.930 . S
C2558 H2552 0.930 . S
C2558 C2559 1.355 . S
C2558 C2560 1.415 . S
C2559 C2558 1.355 . S
C2559 C2561 1.419 . S
C2560 C2558 1.415 . S
C2560 C2565 1.425 . S
C2560 C2567 1.409 . S
C2561 H2553 0.930 . S
C2561 C2559 1.419 . S
C2561 C2562 1.362 . S
C2562 H2554 0.930 . S
C2562 C2561 1.362 . S
C2562 C2565 1.409 . S
C2563 H2555 0.930 . S
C2563 C2564 1.355 . S
C2563 C2565 1.415 . S
C2564 C2563 1.355 . S
C2564 C2566 1.419 . S
C2565 C2560 1.425 . S
C2565 C2562 1.409 . S
C2565 C2563 1.415 . S
C2566 H2556 0.930 . S
C2566 C2564 1.419 . S
C2566 C2567 1.362 . S
C2567 H2557 0.930 . S
C2567 C2560 1.409 . S
C2567 C2566 1.362 . S
H2568 C2574 0.930 . S
H2569 C2577 0.930 . S
H2570 C2578 0.930 . S
H2571 C2579 0.930 . S
H2572 C2582 0.930 . S
H2573 C2583 0.930 . S
C2574 H2568 0.930 . S
C2574 C2575 1.355 . S
C2574 C2576 1.415 . S
C2575 C2574 1.355 . S
C2575 C2577 1.419 . S
C2576 C2574 1.415 . S
C2576 C2581 1.425 . S
C2576 C2583 1.409 . S
C2577 H2569 0.930 . S
C2577 C2575 1.419 . S
C2577 C2578 1.362 . S
C2578 H2570 0.930 . S
C2578 C2577 1.362 . S
C2578 C2581 1.409 . S
C2579 H2571 0.930 . S
C2579 C2580 1.355 . S
C2579 C2581 1.415 . S
C2580 C2579 1.355 . S
C2580 C2582 1.419 . S
C2581 C2576 1.425 . S
C2581 C2578 1.409 . S
C2581 C2579 1.415 . S
C2582 H2572 0.930 . S
C2582 C2580 1.419 . S
C2582 C2583 1.362 . S
C2583 H2573 0.930 . S
C2583 C2576 1.409 . S
C2583 C2582 1.362 . S
H2584 C2590 0.930 . S
H2585 C2593 0.930 . S
H2586 C2594 0.930 . S
H2587 C2595 0.930 . S
H2588 C2598 0.930 . S
H2589 C2599 0.930 . S
C2590 H2584 0.930 . S
C2590 C2591 1.355 . S
C2590 C2592 1.415 . S
C2591 C2590 1.355 . S
C2591 C2593 1.419 . S
C2592 C2590 1.415 . S
C2592 C2597 1.425 . S
C2592 C2599 1.409 . S
C2593 H2585 0.930 . S
C2593 C2591 1.419 . S
C2593 C2594 1.362 . S
C2594 H2586 0.930 . S
C2594 C2593 1.362 . S
C2594 C2597 1.409 . S
C2595 H2587 0.930 . S
C2595 C2596 1.355 . S
C2595 C2597 1.415 . S
C2596 C2595 1.355 . S
C2596 C2598 1.419 . S
C2597 C2592 1.425 . S
C2597 C2594 1.409 . S
C2597 C2595 1.415 . S
C2598 H2588 0.930 . S
C2598 C2596 1.419 . S
C2598 C2599 1.362 . S
C2599 H2589 0.930 . S
C2599 C2592 1.409 . S
C2599 C2598 1.362 . S
H2600 C2606 0.930 . S
H2601 C2609 0.930 . S
H2602 C2610 0.930 . S
H2603 C2611 0.930 . S
H2604 C2614 0.930 . S
H2605 C2615 0.930 . S
C2606 H2600 0.930 . S
C2606 C2607 1.355 . S
C2606 C2608 1.415 . S
C2607 C2606 1.355 . S
C2607 C2609 1.419 . S
C2608 C2606 1.415 . S
C2608 C2613 1.425 . S
C2608 C2615 1.409 . S
C2609 H2601 0.930 . S
C2609 C2607 1.419 . S
C2609 C2610 1.362 . S
C2610 H2602 0.930 . S
C2610 C2609 1.362 . S
C2610 C2613 1.409 . S
C2611 H2603 0.930 . S
C2611 C2612 1.355 . S
C2611 C2613 1.415 . S
C2612 C2611 1.355 . S
C2612 C2614 1.419 . S
C2613 C2608 1.425 . S
C2613 C2610 1.409 . S
C2613 C2611 1.415 . S
C2614 H2604 0.930 . S
C2614 C2612 1.419 . S
C2614 C2615 1.362 . S
C2615 H2605 0.930 . S
C2615 C2608 1.409 . S
C2615 C2614 1.362 . S
H2616 C2622 0.930 . S
H2617 C2625 0.930 . S
H2618 C2626 0.930 . S
H2619 C2627 0.930 . S
H2620 C2630 0.930 . S
H2621 C2631 0.930 . S
C2622 H2616 0.930 . S
C2622 C2623 1.355 . S
C2622 C2624 1.415 . S
C2623 C2622 1.355 . S
C2623 C2625 1.419 . S
C2624 C2622 1.415 . S
C2624 C2629 1.425 . S
C2624 C2631 1.409 . S
C2625 H2617 0.930 . S
C2625 C2623 1.419 . S
C2625 C2626 1.362 . S
C2626 H2618 0.930 . S
C2626 C2625 1.362 . S
C2626 C2629 1.409 . S
C2627 H2619 0.930 . S
C2627 C2628 1.355 . S
C2627 C2629 1.415 . S
C2628 C2627 1.355 . S
C2628 C2630 1.419 . S
C2629 C2624 1.425 . S
C2629 C2626 1.409 . S
C2629 C2627 1.415 . S
C2630 H2620 0.930 . S
C2630 C2628 1.419 . S
C2630 C2631 1.362 . S
C2631 H2621 0.930 . S
C2631 C2624 1.409 . S
C2631 C2630 1.362 . S
H2632 C2638 0.930 . S
H2633 C2641 0.930 . S
H2634 C2642 0.930 . S
H2635 C2643 0.930 . S
H2636 C2646 0.930 . S
H2637 C2647 0.930 . S
C2638 H2632 0.930 . S
C2638 C2639 1.355 . S
C2638 C2640 1.415 . S
C2639 C2638 1.355 . S
C2639 C2641 1.419 . S
C2640 C2638 1.415 . S
C2640 C2645 1.425 . S
C2640 C2647 1.409 . S
C2641 H2633 0.930 . S
C2641 C2639 1.419 . S
C2641 C2642 1.362 . S
C2642 H2634 0.930 . S
C2642 C2641 1.362 . S
C2642 C2645 1.409 . S
C2643 H2635 0.930 . S
C2643 C2644 1.355 . S
C2643 C2645 1.415 . S
C2644 C2643 1.355 . S
C2644 C2646 1.419 . S
C2645 C2640 1.425 . S
C2645 C2642 1.409 . S
C2645 C2643 1.415 . S
C2646 H2636 0.930 . S
C2646 C2644 1.419 . S
C2646 C2647 1.362 . S
C2647 H2637 0.930 . S
C2647 C2640 1.409 . S
C2647 C2646 1.362 . S
H2648 C2654 0.930 . S
H2649 C2657 0.930 . S
H2650 C2658 0.930 . S
H2651 C2659 0.930 . S
H2652 C2662 0.930 . S
H2653 C2663 0.930 . S
C2654 H2648 0.930 . S
C2654 C2655 1.355 . S
C2654 C2656 1.415 . S
C2655 C2654 1.355 . S
C2655 C2657 1.419 . S
C2656 C2654 1.415 . S
C2656 C2661 1.425 . S
C2656 C2663 1.409 . S
C2657 H2649 0.930 . S
C2657 C2655 1.419 . S
C2657 C2658 1.362 . S
C2658 H2650 0.930 . S
C2658 C2657 1.362 . S
C2658 C2661 1.409 . S
C2659 H2651 0.930 . S
C2659 C2660 1.355 . S
C2659 C2661 1.415 . S
C2660 C2659 1.355 . S
C2660 C2662 1.419 . S
C2661 C2656 1.425 . S
C2661 C2658 1.409 . S
C2661 C2659 1.415 . S
C2662 H2652 0.930 . S
C2662 C2660 1.419 . S
C2662 C2663 1.362 . S
C2663 H2653 0.930 . S
C2663 C2656 1.409 . S
C2663 C2662 1.362 . S
C1231 C546 1.537 . S
C1236 C2 1.540 . S
C1247 C36 1.537 . S
C1252 C580 1.532 . S
C1263 C512 1.539 . S
C1268 C70 1.535 . S
C1279 C104 1.538 . S
C1284 C886 1.540 . S
C1295 C818 1.535 . S
C1300 C138 1.532 . S
C1311 C172 1.537 . S
C1316 C852 1.533 . S
C1327 C206 1.533 . S
C1332 C1158 1.532 . S
C1343 C240 1.533 . S
C1348 C1192 1.532 . S
C1359 C274 1.534 . S
C1364 C1124 1.538 . S
C1375 C308 1.533 . S
C1380 C682 1.532 . S
C1391 C342 1.540 . S
C1396 C614 1.537 . S
C1407 C376 1.538 . S
C1412 C648 1.534 . S
C1423 C410 1.536 . S
C1428 C954 1.540 . S
C1439 C988 1.532 . S
C1444 C444 1.536 . S
C1455 C920 1.540 . S
C1460 C478 1.537 . S
C1471 C1090 1.531 . S
C1476 C716 1.534 . S
C1487 C1022 1.540 . S
C1492 C750 1.538 . S
C1503 C784 1.534 . S
C1508 C1056 1.532 . S
C1519 C991 1.326 . S
C1524 C5 1.320 . S
C1535 C39 1.323 . S
C1540 C923 1.344 . S
C1551 C73 1.344 . S
C1556 C957 1.349 . S
C1567 C107 1.318 . S
C1572 C447 1.335 . S
C1583 C141 1.319 . S
C1588 C481 1.335 . S
C1599 C413 1.347 . S
C1604 C175 1.345 . S
C1615 C787 1.326 . S
C1620 C209 1.347 . S
C1631 C243 1.341 . S
C1636 C719 1.321 . S
C1647 C277 1.318 . S
C1652 C753 1.332 . S
C1663 C1059 1.335 . S
C1668 C311 1.318 . S
C1679 C1093 1.326 . S
C1684 C345 1.320 . S
C1695 C1025 1.345 . S
C1700 C379 1.347 . S
C1711 C515 1.340 . S
C1716 C855 1.320 . S
C1727 C549 1.349 . S
C1732 C889 1.344 . S
C1743 C583 1.350 . S
C1748 C821 1.334 . S
C1759 C617 1.349 . S
C1764 C1195 1.343 . S
C1775 C1127 1.332 . S
C1780 C651 1.350 . S
C1791 C685 1.350 . S
C1796 C1161 1.333 . S
C1807 C20 1.575 . S
C1812 C632 1.575 . S
C1823 C54 1.553 . S
C1828 C666 1.553 . S
C1839 C700 1.594 . S
C1844 C88 1.594 . S
C1855 C122 1.557 . S
C1860 C1142 1.557 . S
C1871 C156 1.586 . S
C1876 C1176 1.586 . S
C1887 C190 1.567 . S
C1892 C1210 1.567 . S
C1903 C836 1.554 . S
C1908 C224 1.554 . S
C1919 C258 1.591 . S
C1924 C870 1.591 . S
C1935 C904 1.554 . S
C1940 C292 1.554 . S
C1951 C530 1.609 . S
C1956 C326 1.609 . S
C1967 C564 1.577 . S
C1972 C360 1.577 . S
C1983 C394 1.582 . S
C1988 C598 1.582 . S
C1999 C1040 1.568 . S
C2004 C428 1.568 . S
C2015 C1074 1.600 . S
C2020 C462 1.600 . S
C2031 C496 1.589 . S
C2036 C1108 1.589 . S
C2047 C938 1.554 . S
C2052 C734 1.554 . S
C2063 C768 1.555 . S
C2068 C972 1.555 . S
C2079 C1006 1.553 . S
C2084 C802 1.553 . S
C2095 C9 1.356 . S
C2100 C271 1.371 . S
C2111 C43 1.355 . S
C2116 C305 1.374 . S
C2127 C237 1.371 . S
C2132 C77 1.315 . S
C2143 C407 1.338 . S
C2148 C111 1.271 . S
C2159 C339 1.361 . S
C2164 C145 1.351 . S
C2175 C373 1.353 . S
C2180 C179 1.281 . S
C2191 C67 1.343 . S
C2196 C213 1.325 . S
C2207 C101 1.332 . S
C2212 C247 1.284 . S
C2223 C33 1.354 . S
C2228 C281 1.343 . S
C2239 C315 1.276 . S
C2244 C203 1.347 . S
C2255 C349 1.356 . S
C2260 C135 1.370 . S
C2271 C169 1.370 . S
C2276 C383 1.356 . S
C2287 C679 1.372 . S
C2292 C417 1.356 . S
C2303 C451 1.333 . S
C2308 C713 1.376 . S
C2319 C645 1.358 . S
C2324 C485 1.348 . S
C2335 C815 1.352 . S
C2340 C519 1.281 . S
C2351 C553 1.273 . S
C2356 C747 1.335 . S
C2367 C587 1.278 . S
C2372 C781 1.333 . S
C2383 C621 1.272 . S
C2388 C475 1.341 . S
C2399 C655 1.275 . S
C2404 C509 1.347 . S
C2415 C689 1.278 . S
C2420 C441 1.333 . S
C2431 C723 1.288 . S
C2436 C611 1.332 . S
C2447 C543 1.334 . S
C2452 C757 1.274 . S
C2463 C577 1.341 . S
C2468 C791 1.319 . S
C2479 C1087 1.352 . S
C2484 C825 1.340 . S
C2495 C1121 1.344 . S
C2500 C859 1.325 . S
C2511 C1053 1.377 . S
C2516 C893 1.346 . S
C2527 C1223 1.361 . S
C2532 C927 1.293 . S
C2543 C961 1.275 . S
C2548 C1155 1.347 . S
C2559 C1189 1.332 . S
C2564 C995 1.281 . S
C2575 C883 1.332 . S
C2580 C1029 1.282 . S
C2591 C917 1.368 . S
C2596 C1063 1.309 . S
C2607 C849 1.332 . S
C2612 C1097 1.282 . S
C2623 C1131 1.330 . S
C2628 C1019 1.346 . S
C2639 C1165 1.278 . S
C2644 C951 1.350 . S
C2655 C985 1.369 . S
C2660 C1199 1.310 . S
