# Generated by pormake.
# Topology fnd, (5)-cn, num edge types: 1
# Building blocks:
#     Node 0, Type 0, BuildingBlock: XOMCOT_clean_sbu_0, # of connection points: 5
#     Node 1, Type 0, BuildingBlock: XOMCOT_clean_sbu_0, # of connection points: 5
#     Node 2, Type 0, BuildingBlock: XOMCOT_clean_sbu_0, # of connection points: 5
#     Node 3, Type 0, BuildingBlock: XOMCOT_clean_sbu_0, # of connection points: 5
#     Node 4, Type 0, BuildingBlock: XOMCOT_clean_sbu_0, # of connection points: 5
#     Node 5, Type 0, BuildingBlock: XOMCOT_clean_sbu_0, # of connection points: 5
#     Node 6, Type 0, BuildingBlock: XOMCOT_clean_sbu_0, # of connection points: 5
#     Node 7, Type 0, BuildingBlock: XOMCOT_clean_sbu_0, # of connection points: 5
#     Node 8, Type 0, BuildingBlock: XOMCOT_clean_sbu_0, # of connection points: 5
#     Node 9, Type 0, BuildingBlock: XOMCOT_clean_sbu_0, # of connection points: 5
#     Node 10, Type 0, BuildingBlock: XOMCOT_clean_sbu_0, # of connection points: 5
#     Node 11, Type 0, BuildingBlock: XOMCOT_clean_sbu_0, # of connection points: 5
#     Node 12, Type 0, BuildingBlock: XOMCOT_clean_sbu_0, # of connection points: 5
#     Node 13, Type 0, BuildingBlock: XOMCOT_clean_sbu_0, # of connection points: 5
#     Node 14, Type 0, BuildingBlock: XOMCOT_clean_sbu_0, # of connection points: 5
#     Node 15, Type 0, BuildingBlock: XOMCOT_clean_sbu_0, # of connection points: 5
#     Node 16, Type 0, BuildingBlock: XOMCOT_clean_sbu_0, # of connection points: 5
#     Node 17, Type 0, BuildingBlock: XOMCOT_clean_sbu_0, # of connection points: 5
#     Edge 18, Type (0, 0), BuildingBlock: XIVTED_clean_linker_0, # of connection points: 2
#     Edge 19, Type (0, 0), BuildingBlock: XIVTED_clean_linker_0, # of connection points: 2
#     Edge 20, Type (0, 0), BuildingBlock: XIVTED_clean_linker_0, # of connection points: 2
#     Edge 21, Type (0, 0), BuildingBlock: XIVTED_clean_linker_0, # of connection points: 2
#     Edge 22, Type (0, 0), BuildingBlock: XIVTED_clean_linker_0, # of connection points: 2
#     Edge 23, Type (0, 0), BuildingBlock: XIVTED_clean_linker_0, # of connection points: 2
#     Edge 24, Type (0, 0), BuildingBlock: XIVTED_clean_linker_0, # of connection points: 2
#     Edge 25, Type (0, 0), BuildingBlock: XIVTED_clean_linker_0, # of connection points: 2
#     Edge 26, Type (0, 0), BuildingBlock: XIVTED_clean_linker_0, # of connection points: 2
#     Edge 27, Type (0, 0), BuildingBlock: XIVTED_clean_linker_0, # of connection points: 2
#     Edge 28, Type (0, 0), BuildingBlock: XIVTED_clean_linker_0, # of connection points: 2
#     Edge 29, Type (0, 0), BuildingBlock: XIVTED_clean_linker_0, # of connection points: 2
#     Edge 30, Type (0, 0), BuildingBlock: XIVTED_clean_linker_0, # of connection points: 2
#     Edge 31, Type (0, 0), BuildingBlock: XIVTED_clean_linker_0, # of connection points: 2
#     Edge 32, Type (0, 0), BuildingBlock: XIVTED_clean_linker_0, # of connection points: 2
#     Edge 33, Type (0, 0), BuildingBlock: XIVTED_clean_linker_0, # of connection points: 2
#     Edge 34, Type (0, 0), BuildingBlock: XIVTED_clean_linker_0, # of connection points: 2
#     Edge 35, Type (0, 0), BuildingBlock: XIVTED_clean_linker_0, # of connection points: 2
#     Edge 36, Type (0, 0), BuildingBlock: XIVTED_clean_linker_0, # of connection points: 2
#     Edge 37, Type (0, 0), BuildingBlock: XIVTED_clean_linker_0, # of connection points: 2
#     Edge 38, Type (0, 0), BuildingBlock: XIVTED_clean_linker_0, # of connection points: 2
#     Edge 39, Type (0, 0), BuildingBlock: XIVTED_clean_linker_0, # of connection points: 2
#     Edge 40, Type (0, 0), BuildingBlock: XIVTED_clean_linker_0, # of connection points: 2
#     Edge 41, Type (0, 0), BuildingBlock: XIVTED_clean_linker_0, # of connection points: 2
#     Edge 42, Type (0, 0), BuildingBlock: XIVTED_clean_linker_0, # of connection points: 2
#     Edge 43, Type (0, 0), BuildingBlock: XIVTED_clean_linker_0, # of connection points: 2
#     Edge 44, Type (0, 0), BuildingBlock: XIVTED_clean_linker_0, # of connection points: 2
#     Edge 45, Type (0, 0), BuildingBlock: XIVTED_clean_linker_0, # of connection points: 2
#     Edge 46, Type (0, 0), BuildingBlock: XIVTED_clean_linker_0, # of connection points: 2
#     Edge 47, Type (0, 0), BuildingBlock: XIVTED_clean_linker_0, # of connection points: 2
#     Edge 48, Type (0, 0), BuildingBlock: XIVTED_clean_linker_0, # of connection points: 2
#     Edge 49, Type (0, 0), BuildingBlock: XIVTED_clean_linker_0, # of connection points: 2
#     Edge 50, Type (0, 0), BuildingBlock: XIVTED_clean_linker_0, # of connection points: 2
#     Edge 51, Type (0, 0), BuildingBlock: XIVTED_clean_linker_0, # of connection points: 2
#     Edge 52, Type (0, 0), BuildingBlock: XIVTED_clean_linker_0, # of connection points: 2
#     Edge 53, Type (0, 0), BuildingBlock: XIVTED_clean_linker_0, # of connection points: 2
#     Edge 54, Type (0, 0), BuildingBlock: XIVTED_clean_linker_0, # of connection points: 2
#     Edge 55, Type (0, 0), BuildingBlock: XIVTED_clean_linker_0, # of connection points: 2
#     Edge 56, Type (0, 0), BuildingBlock: XIVTED_clean_linker_0, # of connection points: 2
#     Edge 57, Type (0, 0), BuildingBlock: XIVTED_clean_linker_0, # of connection points: 2
#     Edge 58, Type (0, 0), BuildingBlock: XIVTED_clean_linker_0, # of connection points: 2
#     Edge 59, Type (0, 0), BuildingBlock: XIVTED_clean_linker_0, # of connection points: 2
#     Edge 60, Type (0, 0), BuildingBlock: XIVTED_clean_linker_0, # of connection points: 2
#     Edge 61, Type (0, 0), BuildingBlock: XIVTED_clean_linker_0, # of connection points: 2
#     Edge 62, Type (0, 0), BuildingBlock: XIVTED_clean_linker_0, # of connection points: 2
# Relax obj value: 0.026
# Max RMSD: 0.061
# Mean RMSD: 0.061
data_MOF--net-fnd--node1-XOMCOT_clean_sbu_0--edge1-XIVTED_clean_linker_0
_symmetry_space_group_name_H-M    P1
_symmetry_Int_Tables_number       1
_symmetry_cell_setting            triclinic
loop_
_symmetry_equiv_pos_as_xyz
'x, y, z'
_cell_length_a     83.692413
_cell_length_b     83.789085
_cell_length_c     17.813058
_cell_angle_alpha  89.943368
_cell_angle_beta   89.984661
_cell_angle_gamma 120.0351
loop_
_atom_site_label
_atom_site_type_symbol
_atom_site_fract_x
_atom_site_fract_y
_atom_site_fract_z
_atom_type_partial_charge
Co0 Co 0.1178 0.24548 0.47039 0.0
C1 C 0.11968 0.24786 0.63885 0.0
C2 C 0.12184 0.27187 0.58658 0.0
C3 C 0.12196 0.27403 0.66306 0.0
N4 N 0.12088 0.25565 0.57104 0.0
N5 N 0.12059 0.25891 0.69598 0.0
H6 H 0.11707 0.23404 0.64705 0.0
H7 H 0.12201 0.28135 0.54493 0.0
C8 C 0.15177 0.28242 0.46183 0.0
O9 O 0.15749 0.27752 0.52166 0.0
N10 N 0.11422 0.23552 0.37027 0.0
C11 C 0.10988 0.21818 0.35271 0.0
C12 C 0.10936 0.21652 0.27586 0.0
C13 C 0.11617 0.24418 0.30417 0.0
N14 N 0.11336 0.23286 0.24535 0.0
C15 C 0.13394 0.22496 0.53298 0.0
C16 C 0.16384 0.23862 0.43678 0.0
C17 C 0.16141 0.22509 0.48905 0.0
C18 C 0.14627 0.21831 0.53784 0.0
C19 C 0.15137 0.24512 0.43477 0.0
N20 N 0.13692 0.23877 0.48421 0.0
H21 H 0.12139 0.21806 0.56512 0.0
H22 H 0.15292 0.25466 0.3908 0.0
H23 H 0.10751 0.20757 0.39309 0.0
H24 H 0.12 0.25853 0.29929 0.0
O25 O 0.0965 0.2228 0.50376 0.0
O26 O 0.09559 0.24713 0.46068 0.0
O27 O 0.13632 0.27097 0.43157 0.0
C28 C 0.08668 0.2304 0.4872 0.0
H29 H 0.1228 0.28578 0.69193 0.0
H30 H 0.1062 0.20417 0.24494 0.0
H31 H 0.17508 0.24387 0.39666 0.0
H32 H 0.14339 0.20721 0.57659 0.0
Co33 Co 0.78283 0.87904 0.46338 0.0
C34 C 0.78129 0.88133 0.62876 0.0
C35 C 0.75474 0.86267 0.58163 0.0
C36 C 0.75302 0.86249 0.65841 0.0
N37 N 0.77243 0.87456 0.56312 0.0
N38 N 0.76971 0.87415 0.68799 0.0
H39 H 0.79592 0.89107 0.63301 0.0
H40 H 0.74392 0.85424 0.54241 0.0
C41 C 0.75092 0.88007 0.38351 0.0
O42 O 0.76166 0.89674 0.35691 0.0
N43 N 0.79324 0.883 0.36204 0.0
C44 C 0.81107 0.88902 0.34413 0.0
C45 C 0.81291 0.88936 0.26754 0.0
C46 C 0.78442 0.879 0.29512 0.0
N47 N 0.79614 0.88311 0.23654 0.0
C48 C 0.80855 0.91772 0.46045 0.0
C49 C 0.7846 0.93002 0.49936 0.0
C50 C 0.80283 0.94301 0.47938 0.0
C51 C 0.81493 0.93657 0.46215 0.0
C52 C 0.77874 0.91108 0.49676 0.0
N53 N 0.79043 0.90515 0.47284 0.0
H54 H 0.81838 0.91332 0.4499 0.0
H55 H 0.76469 0.90121 0.51227 0.0
H56 H 0.82217 0.89272 0.38362 0.0
H57 H 0.76967 0.87248 0.2888 0.0
O58 O 0.80479 0.88004 0.50342 0.0
O59 O 0.78009 0.85465 0.46342 0.0
O60 O 0.75758 0.87193 0.42231 0.0
C61 C 0.79665 0.86236 0.49162 0.0
H62 H 0.74059 0.85383 0.69016 0.0
H63 H 0.8257 0.89399 0.23731 0.0
H64 H 0.77488 0.93438 0.51513 0.0
H65 H 0.82938 0.94606 0.45053 0.0
Co66 Co 0.15029 0.91082 0.46691 0.0
C67 C 0.15126 0.90864 0.63559 0.0
C68 C 0.17468 0.90969 0.58212 0.0
C69 C 0.17689 0.90955 0.65864 0.0
N70 N 0.15844 0.90878 0.56729 0.0
N71 N 0.16217 0.90895 0.69226 0.0
H72 H 0.13857 0.90865 0.64465 0.0
H73 H 0.18447 0.91077 0.53991 0.0
C74 C 0.15496 0.87767 0.4606 0.0
O75 O 0.14682 0.87263 0.52639 0.0
N76 N 0.14279 0.91329 0.36701 0.0
C77 C 0.12901 0.91653 0.3498 0.0
C78 C 0.12791 0.9173 0.27296 0.0
C79 C 0.14997 0.91222 0.30059 0.0
N80 N 0.14111 0.91462 0.24182 0.0
C81 C 0.11458 0.89715 0.53241 0.0
C82 C 0.09654 0.86447 0.45337 0.0
C83 C 0.08617 0.86946 0.49962 0.0
C84 C 0.09556 0.88589 0.54044 0.0
C85 C 0.1157 0.87617 0.44725 0.0
N86 N 0.12462 0.89218 0.48768 0.0
H87 H 0.12099 0.91043 0.55927 0.0
H88 H 0.12303 0.8728 0.40626 0.0
H89 H 0.12028 0.91811 0.39035 0.0
H90 H 0.16157 0.90995 0.29563 0.0
O91 O 0.14945 0.93249 0.49777 0.0
O92 O 0.17413 0.93282 0.4511 0.0
O93 O 0.15671 0.89206 0.42797 0.0
C94 C 0.16667 0.94203 0.47795 0.0
H95 H 0.18875 0.91052 0.68722 0.0
H96 H 0.11791 0.91939 0.24256 0.0
H97 H 0.08981 0.8522 0.41892 0.0
H98 H 0.0882 0.89042 0.57659 0.0
Co99 Co 0.24753 0.1108 0.55273 0.0
C100 C 0.24971 0.1116 0.38632 0.0
C101 C 0.27467 0.11565 0.43773 0.0
C102 C 0.27656 0.11555 0.36101 0.0
N103 N 0.25788 0.11324 0.45351 0.0
N104 N 0.26085 0.11294 0.32851 0.0
H105 H 0.23572 0.10894 0.38017 0.0
H106 H 0.28472 0.11704 0.47915 0.0
C107 C 0.27833 0.14238 0.63973 0.0
O108 O 0.26639 0.1459 0.67281 0.0
N109 N 0.23706 0.10794 0.65314 0.0
C110 C 0.21984 0.10419 0.67056 0.0
C111 C 0.21773 0.10302 0.74717 0.0
C112 C 0.24488 0.10814 0.72001 0.0
N113 N 0.23353 0.1057 0.7786 0.0
C114 C 0.22263 0.12331 0.50979 0.0
C115 C 0.2476 0.16066 0.50687 0.0
C116 C 0.22882 0.15458 0.49641 0.0
C117 C 0.21638 0.13563 0.49543 0.0
C118 C 0.25334 0.14775 0.51905 0.0
N119 N 0.24072 0.12937 0.5263 0.0
H120 H 0.21266 0.1088 0.50829 0.0
H121 H 0.26793 0.15268 0.52208 0.0
H122 H 0.20919 0.10197 0.63102 0.0
H123 H 0.25874 0.11043 0.72567 0.0
O124 O 0.22527 0.08893 0.52083 0.0
O125 O 0.24961 0.08899 0.56949 0.0
O126 O 0.27293 0.12964 0.59041 0.0
C127 C 0.23306 0.07959 0.54159 0.0
H128 H 0.28865 0.11728 0.33164 0.0
H129 H 0.20532 0.1001 0.77723 0.0
H130 H 0.25773 0.17522 0.50477 0.0
H131 H 0.2018 0.13033 0.48565 0.0
Co132 Co 0.91723 0.14275 0.55769 0.0
C133 C 0.91654 0.14396 0.39168 0.0
C134 C 0.91329 0.16542 0.44228 0.0
C135 C 0.91313 0.16714 0.36552 0.0
N136 N 0.91536 0.15088 0.45848 0.0
N137 N 0.91521 0.15368 0.33359 0.0
H138 H 0.9187 0.13233 0.38601 0.0
H139 H 0.91212 0.17427 0.48344 0.0
C140 C 0.8846 0.14206 0.63724 0.0
O141 O 0.87954 0.12592 0.66765 0.0
N142 N 0.91939 0.13494 0.65836 0.0
C143 C 0.92431 0.12238 0.67705 0.0
C144 C 0.92504 0.12146 0.75383 0.0
C145 C 0.91799 0.14204 0.7246 0.0
N146 N 0.92095 0.13373 0.78388 0.0
C147 C 0.90413 0.105 0.51947 0.0
C148 C 0.86719 0.09379 0.50312 0.0
C149 C 0.87279 0.08061 0.49783 0.0
C150 C 0.8916 0.08656 0.5041 0.0
C151 C 0.88037 0.11232 0.51696 0.0
N152 N 0.89842 0.1175 0.53062 0.0
H153 H 0.91855 0.10916 0.5218 0.0
H154 H 0.87595 0.12239 0.5159 0.0
H155 H 0.92791 0.11481 0.63841 0.0
H156 H 0.91486 0.15305 0.72933 0.0
O157 O 0.93909 0.14203 0.52736 0.0
O158 O 0.93926 0.16642 0.57548 0.0
O159 O 0.89855 0.1497 0.59339 0.0
C160 C 0.9486 0.15913 0.54846 0.0
H161 H 0.91147 0.17748 0.33573 0.0
H162 H 0.92885 0.11277 0.78499 0.0
H163 H 0.85285 0.08987 0.49517 0.0
H164 H 0.89663 0.07696 0.49824 0.0
Co165 Co 0.88322 0.77997 0.56111 0.0
C166 C 0.88211 0.77705 0.39248 0.0
C167 C 0.85804 0.75547 0.44589 0.0
C168 C 0.85586 0.75309 0.36943 0.0
N169 N 0.87461 0.77036 0.46065 0.0
N170 N 0.87103 0.76669 0.33579 0.0
H171 H 0.89503 0.78952 0.38354 0.0
H172 H 0.84814 0.74692 0.48815 0.0
C173 C 0.8786 0.7422 0.56047 0.0
O174 O 0.88645 0.7459 0.49395 0.0
N175 N 0.89116 0.78932 0.66125 0.0
C176 C 0.90517 0.80612 0.67964 0.0
C177 C 0.90657 0.80734 0.75664 0.0
C178 C 0.88408 0.78059 0.72694 0.0
N179 N 0.89332 0.79129 0.78635 0.0
C180 C 0.91875 0.80235 0.49412 0.0
C181 C 0.93686 0.78692 0.56736 0.0
C182 C 0.94714 0.80248 0.52195 0.0
C183 C 0.93771 0.80995 0.48417 0.0
C184 C 0.91778 0.77963 0.57545 0.0
N185 N 0.9088 0.78707 0.53766 0.0
H186 H 0.91228 0.80943 0.4693 0.0
H187 H 0.91057 0.76873 0.61586 0.0
H188 H 0.91377 0.81672 0.63982 0.0
H189 H 0.87259 0.76664 0.73103 0.0
O190 O 0.88394 0.80267 0.53405 0.0
O191 O 0.85948 0.77806 0.58045 0.0
O192 O 0.87696 0.75452 0.59633 0.0
C193 C 0.86681 0.79488 0.55535 0.0
H194 H 0.84402 0.74213 0.34107 0.0
H195 H 0.91643 0.81926 0.78825 0.0
H196 H 0.94362 0.78105 0.59971 0.0
H197 H 0.945 0.82203 0.44881 0.0
Co198 Co 0.78526 0.57745 0.79253 0.0
C199 C 0.78726 0.58036 0.96127 0.0
C200 C 0.78764 0.60343 0.90777 0.0
C201 C 0.78759 0.60568 0.98419 0.0
N202 N 0.78785 0.58775 0.89297 0.0
N203 N 0.78732 0.59114 0.018 0.0
H204 H 0.78575 0.56698 0.9701 0.0
H205 H 0.78715 0.61246 0.86559 0.0
C206 C 0.81829 0.61518 0.78337 0.0
O207 O 0.82394 0.61168 0.84685 0.0
N208 N 0.78217 0.56732 0.69265 0.0
C209 C 0.77848 0.55015 0.67579 0.0
C210 C 0.77816 0.54836 0.59896 0.0
C211 C 0.78392 0.57575 0.62602 0.0
N212 N 0.78163 0.56447 0.5676 0.0
C213 C 0.80129 0.55712 0.85698 0.0
C214 C 0.83221 0.57175 0.76621 0.0
C215 C 0.82933 0.55785 0.81736 0.0
C216 C 0.8137 0.55062 0.86354 0.0
C217 C 0.81964 0.57812 0.76257 0.0
N218 N 0.80461 0.5712 0.80911 0.0
H219 H 0.78844 0.54993 0.88713 0.0
H220 H 0.82156 0.58791 0.71917 0.0
H221 H 0.77639 0.53971 0.71665 0.0
H222 H 0.78722 0.58994 0.62048 0.0
O223 O 0.76406 0.55472 0.82598 0.0
O224 O 0.76296 0.57878 0.78047 0.0
O225 O 0.80345 0.60278 0.75237 0.0
C226 C 0.75416 0.56216 0.80808 0.0
H227 H 0.78756 0.61709 0.01239 0.0
H228 H 0.77548 0.53608 0.56863 0.0
H229 H 0.84386 0.57735 0.72804 0.0
H230 H 0.81052 0.53928 0.90137 0.0
Co231 Co 0.4487 0.20992 0.79905 0.0
C232 C 0.44596 0.20872 0.96809 0.0
C233 C 0.4224 0.18665 0.91432 0.0
C234 C 0.42001 0.18432 0.99072 0.0
N235 N 0.4385 0.20218 0.89971 0.0
N236 N 0.43485 0.19821 0.02464 0.0
H237 H 0.45953 0.22026 0.97723 0.0
H238 H 0.41311 0.17742 0.87202 0.0
C239 C 0.4118 0.20714 0.79311 0.0
O240 O 0.41649 0.21706 0.8548 0.0
N241 N 0.45864 0.21695 0.69884 0.0
C242 C 0.47595 0.23013 0.68147 0.0
C243 C 0.47763 0.23156 0.60462 0.0
C244 C 0.45002 0.21039 0.63252 0.0
N245 N 0.46133 0.21919 0.57378 0.0
C246 C 0.4703 0.24576 0.86461 0.0
C247 C 0.45729 0.26383 0.77578 0.0
C248 C 0.4718 0.27423 0.8258 0.0
C249 C 0.47798 0.26478 0.87157 0.0
C250 C 0.44974 0.24467 0.77156 0.0
N251 N 0.45594 0.23572 0.81701 0.0
H252 H 0.47687 0.2394 0.89415 0.0
H253 H 0.43968 0.23727 0.72836 0.0
H254 H 0.48656 0.23825 0.72199 0.0
H255 H 0.43571 0.19971 0.62744 0.0
O256 O 0.47122 0.21076 0.83038 0.0
O257 O 0.44669 0.18597 0.78554 0.0
O258 O 0.42337 0.20357 0.76121 0.0
C259 C 0.46344 0.19347 0.81182 0.0
H260 H 0.40826 0.17316 0.01884 0.0
H261 H 0.48999 0.24091 0.5739 0.0
H262 H 0.45245 0.27049 0.73726 0.0
H263 H 0.4892 0.27206 0.91089 0.0
Co264 Co 0.81554 0.24236 0.79911 0.0
C265 C 0.81653 0.24141 0.96514 0.0
C266 C 0.83788 0.23793 0.91456 0.0
C267 C 0.83959 0.23776 0.9913 0.0
N268 N 0.82341 0.24014 0.89836 0.0
N269 N 0.8262 0.24001 0.02322 0.0
H270 H 0.805 0.24376 0.9708 0.0
H271 H 0.84673 0.23673 0.87344 0.0
C272 C 0.8154 0.21 0.71916 0.0
O273 O 0.7992 0.20459 0.68852 0.0
N274 N 0.808 0.24488 0.6984 0.0
C275 C 0.79582 0.25032 0.67984 0.0
C276 C 0.79495 0.25114 0.6031 0.0
C277 C 0.81496 0.24327 0.63207 0.0
N278 N 0.80689 0.24659 0.57292 0.0
C279 C 0.7777 0.22925 0.83517 0.0
C280 C 0.76618 0.19226 0.85071 0.0
C281 C 0.75305 0.19797 0.85543 0.0
C282 C 0.75917 0.2168 0.84933 0.0
C283 C 0.78483 0.20538 0.83777 0.0
N284 N 0.79018 0.22348 0.82473 0.0
H285 H 0.7819 0.24365 0.83316 0.0
H286 H 0.79485 0.20088 0.83897 0.0
H287 H 0.78851 0.25423 0.71859 0.0
H288 H 0.82573 0.23979 0.62712 0.0
O289 O 0.81462 0.26398 0.83045 0.0
O290 O 0.83927 0.2645 0.78283 0.0
O291 O 0.82274 0.22395 0.76289 0.0
C292 C 0.83179 0.27363 0.8101 0.0
H293 H 0.84989 0.23604 0.02106 0.0
H294 H 0.78654 0.25532 0.57204 0.0
H295 H 0.76214 0.1779 0.85832 0.0
H296 H 0.74963 0.22194 0.85433 0.0
Co297 Co 0.91458 0.44254 0.88555 0.0
C298 C 0.91659 0.44384 0.71945 0.0
C299 C 0.94189 0.4485 0.76967 0.0
C300 C 0.94376 0.44881 0.69284 0.0
N301 N 0.92491 0.44549 0.78619 0.0
N302 N 0.92785 0.44585 0.66117 0.0
H303 H 0.90257 0.44111 0.71389 0.0
H304 H 0.95204 0.4499 0.8106 0.0
C305 C 0.94502 0.47391 0.97425 0.0
O306 O 0.93282 0.47693 1.00806 0.0
N307 N 0.90422 0.43918 0.98615 0.0
C308 C 0.88714 0.43557 1.00554 0.0
C309 C 0.88529 0.43376 0.08223 0.0
C310 C 0.91222 0.43877 0.05158 0.0
N311 N 0.90111 0.4359 0.11136 0.0
C312 C 0.88941 0.45495 0.84548 0.0
C313 C 0.91434 0.49232 0.84201 0.0
C314 C 0.89554 0.48621 0.83202 0.0
C315 C 0.88311 0.46725 0.83149 0.0
C316 C 0.92013 0.47943 0.85386 0.0
N317 N 0.90755 0.46104 0.86118 0.0
H318 H 0.87947 0.44043 0.84416 0.0
H319 H 0.93473 0.48439 0.85638 0.0
H320 H 0.87648 0.43402 0.96742 0.0
H321 H 0.92594 0.44058 0.05529 0.0
O322 O 0.8924 0.42064 0.85293 0.0
O323 O 0.91693 0.42082 0.90016 0.0
O324 O 0.9399 0.46146 0.92377 0.0
C325 C 0.90036 0.41136 0.8725 0.0
H326 H 0.95574 0.45047 0.6628 0.0
H327 H 0.87327 0.43138 0.11406 0.0
H328 H 0.92447 0.50688 0.83957 0.0
H329 H 0.86852 0.46195 0.82208 0.0
Co330 Co 0.58507 0.47659 0.88226 0.0
C331 C 0.5842 0.47759 0.71615 0.0
C332 C 0.58015 0.49858 0.76642 0.0
C333 C 0.58018 0.50037 0.68961 0.0
N334 N 0.5826 0.48427 0.78289 0.0
N335 N 0.58278 0.48721 0.65791 0.0
H336 H 0.5869 0.4663 0.7106 0.0
H337 H 0.57878 0.50733 0.80742 0.0
C338 C 0.55326 0.47562 0.96901 0.0
O339 O 0.55007 0.46053 1.00433 0.0
N340 N 0.58794 0.46918 0.98274 0.0
C341 C 0.59154 0.45566 1.00081 0.0
C342 C 0.59283 0.45497 0.07745 0.0
C343 C 0.58793 0.47706 0.04904 0.0
N344 N 0.59037 0.46829 0.10804 0.0
C345 C 0.57358 0.43957 0.83898 0.0
C346 C 0.53589 0.42527 0.84436 0.0
C347 C 0.54275 0.41312 0.83603 0.0
C348 C 0.56187 0.42073 0.82929 0.0
C349 C 0.54825 0.44428 0.85259 0.0
N350 N 0.56689 0.451 0.85641 0.0
H351 H 0.58819 0.44474 0.83464 0.0
H352 H 0.54267 0.45336 0.85641 0.0
H353 H 0.59358 0.44705 0.96166 0.0
H354 H 0.58574 0.48869 0.05399 0.0
O355 O 0.60723 0.47664 0.85141 0.0
O356 O 0.60671 0.50072 0.89893 0.0
O357 O 0.56584 0.48273 0.91873 0.0
C358 C 0.61637 0.49376 0.87209 0.0
H359 H 0.57841 0.51062 0.65962 0.0
H360 H 0.59566 0.4455 0.10809 0.0
H361 H 0.52119 0.42017 0.84667 0.0
H362 H 0.56789 0.41216 0.81801 0.0
Co363 Co 0.55182 0.11306 0.89203 0.0
C364 C 0.55134 0.11076 0.72557 0.0
C365 C 0.531 0.08549 0.77702 0.0
C366 C 0.52924 0.08346 0.70042 0.0
N367 N 0.54488 0.10254 0.79277 0.0
N368 N 0.54195 0.09937 0.66784 0.0
H369 H 0.56222 0.12495 0.71937 0.0
H370 H 0.52238 0.07536 0.81833 0.0
C371 C 0.55277 0.0821 0.97829 0.0
O372 O 0.56841 0.09381 1.01079 0.0
N373 N 0.55839 0.12365 0.99276 0.0
C374 C 0.56967 0.14157 1.01011 0.0
C375 C 0.57053 0.14361 0.08668 0.0
C376 C 0.55175 0.11526 0.05983 0.0
N377 N 0.5594 0.12705 0.11817 0.0
C378 C 0.59007 0.13839 0.86433 0.0
C379 C 0.60215 0.11322 0.8571 0.0
C380 C 0.61527 0.13208 0.86129 0.0
C381 C 0.60893 0.14469 0.86119 0.0
C382 C 0.58324 0.1075 0.8606 0.0
N383 N 0.57752 0.12006 0.87106 0.0
H384 H 0.58566 0.14843 0.86247 0.0
H385 H 0.57332 0.09298 0.85644 0.0
H386 H 0.57641 0.15272 0.97055 0.0
H387 H 0.54161 0.10082 0.06603 0.0
O388 O 0.5523 0.13517 0.85698 0.0
O389 O 0.52769 0.11077 0.90373 0.0
O390 O 0.5452 0.08778 0.93119 0.0
C391 C 0.53497 0.12728 0.87538 0.0
H392 H 0.51922 0.07117 0.67121 0.0
H393 H 0.57843 0.15646 0.11672 0.0
H394 H 0.60643 0.103 0.85387 0.0
H395 H 0.61852 0.1594 0.85975 0.0
Co396 Co 0.45314 0.91123 0.13587 0.0
C397 C 0.45475 0.91369 0.30471 0.0
C398 C 0.4566 0.93747 0.25155 0.0
C399 C 0.45648 0.93967 0.32791 0.0
N400 N 0.45598 0.92139 0.23657 0.0
N401 N 0.45529 0.92469 0.36146 0.0
H402 H 0.45236 0.89996 0.31332 0.0
H403 H 0.45666 0.94683 0.20954 0.0
C404 C 0.48674 0.94836 0.12786 0.0
O405 O 0.49245 0.94347 0.18772 0.0
N406 N 0.44974 0.90123 0.03571 0.0
C407 C 0.44557 0.88391 0.01882 0.0
C408 C 0.44515 0.88209 0.94207 0.0
C409 C 0.45169 0.90974 0.96916 0.0
N410 N 0.44905 0.89833 0.91079 0.0
C411 C 0.46988 0.89127 0.19883 0.0
C412 C 0.49943 0.90498 0.10075 0.0
C413 C 0.4972 0.89144 0.15255 0.0
C414 C 0.48229 0.88469 0.20254 0.0
C415 C 0.48689 0.91139 0.09982 0.0
N416 N 0.47256 0.90495 0.14987 0.0
H417 H 0.45746 0.88437 0.2318 0.0
H418 H 0.48824 0.92088 0.05592 0.0
H419 H 0.44326 0.87339 0.05962 0.0
H420 H 0.4554 0.92405 0.96362 0.0
O421 O 0.43206 0.88837 0.16926 0.0
O422 O 0.43072 0.91245 0.12583 0.0
O423 O 0.47139 0.93682 0.09712 0.0
C424 C 0.42203 0.89573 0.15249 0.0
H425 H 0.45703 0.95134 0.35625 0.0
H426 H 0.44213 0.86971 0.91172 0.0
H427 H 0.5105 0.91025 0.05987 0.0
H428 H 0.47959 0.87362 0.24113 0.0
Co429 Co 0.11601 0.54501 0.12908 0.0
C430 C 0.11344 0.54411 0.29767 0.0
C431 C 0.09059 0.52101 0.245 0.0
C432 C 0.08834 0.51887 0.32151 0.0
N433 N 0.10616 0.537 0.22975 0.0
N434 N 0.10274 0.53342 0.35466 0.0
H435 H 0.1266 0.55631 0.30614 0.0
H436 H 0.08155 0.51141 0.20307 0.0
C437 C 0.07861 0.54123 0.12667 0.0
O438 O 0.08313 0.55077 0.18936 0.0
N439 N 0.12561 0.55234 0.02882 0.0
C440 C 0.14269 0.56591 1.01068 0.0
C441 C 0.14415 0.56719 0.93375 0.0
C442 C 0.11693 0.54541 0.96303 0.0
N443 N 0.12795 0.55432 0.90381 0.0
C444 C 0.13778 0.58098 0.19433 0.0
C445 C 0.12283 0.59833 0.11238 0.0
C446 C 0.13742 0.60888 0.16168 0.0
C447 C 0.14486 0.59991 0.20308 0.0
C448 C 0.11601 0.57935 0.10596 0.0
N449 N 0.12303 0.57069 0.14865 0.0
H450 H 0.14495 0.57487 0.22129 0.0
H451 H 0.1057 0.57186 0.06374 0.0
H452 H 0.15331 0.57433 0.0507 0.0
H453 H 0.10278 0.53431 0.95871 0.0
O454 O 0.13871 0.54594 0.15837 0.0
O455 O 0.11411 0.52122 0.11351 0.0
O456 O 0.09047 0.53839 0.09296 0.0
C457 C 0.13092 0.5287 0.13891 0.0
H458 H 0.07698 0.50745 0.35023 0.0
H459 H 0.1563 0.57674 0.90235 0.0
H460 H 0.11694 0.60474 0.07784 0.0
H461 H 0.15671 0.60762 0.23912 0.0
Co462 Co 0.48295 0.57578 0.12781 0.0
C463 C 0.48378 0.57413 0.29633 0.0
C464 C 0.50704 0.57466 0.24372 0.0
C465 C 0.50917 0.57459 0.3202 0.0
N466 N 0.49096 0.57404 0.22847 0.0
N467 N 0.49453 0.57427 0.35334 0.0
H468 H 0.47147 0.5749 0.30468 0.0
H469 H 0.51671 0.57532 0.20178 0.0
C470 C 0.48678 0.54226 0.12647 0.0
O471 O 0.47726 0.53741 0.18931 0.0
N472 N 0.47559 0.57798 0.02759 0.0
C473 C 0.46197 0.5814 1.00958 0.0
C474 C 0.46067 0.58156 0.93268 0.0
C475 C 0.48253 0.57625 0.96174 0.0
N476 N 0.47357 0.5783 0.90262 0.0
C477 C 0.44687 0.5614 0.19286 0.0
C478 C 0.42977 0.52861 0.1143 0.0
C479 C 0.41913 0.53256 0.16362 0.0
C480 C 0.42799 0.54932 0.20276 0.0
C481 C 0.44866 0.54114 0.10601 0.0
N482 N 0.45725 0.55699 0.14757 0.0
H483 H 0.45289 0.57476 0.21904 0.0
H484 H 0.45616 0.53832 0.06378 0.0
H485 H 0.45353 0.58356 0.04968 0.0
H486 H 0.49367 0.57327 0.95731 0.0
O487 O 0.48192 0.5975 0.157 0.0
O488 O 0.50675 0.5978 0.11222 0.0
O489 O 0.48967 0.5569 0.09207 0.0
C490 C 0.49921 0.60705 0.13785 0.0
H491 H 0.52066 0.5748 0.34894 0.0
H492 H 0.45108 0.5841 0.90137 0.0
H493 H 0.42354 0.51607 0.08141 0.0
H494 H 0.42027 0.55351 0.23847 0.0
Co495 Co 0.58222 0.77618 0.2093 0.0
C496 C 0.58412 0.77721 0.04324 0.0
C497 C 0.60907 0.7809 0.09347 0.0
C498 C 0.61097 0.78125 0.01667 0.0
N499 N 0.5923 0.77847 0.10994 0.0
N500 N 0.59528 0.77892 0.98505 0.0
H501 H 0.57032 0.77509 0.03764 0.0
H502 H 0.61911 0.782 0.13444 0.0
C503 C 0.61404 0.80801 0.2926 0.0
O504 O 0.60284 0.8126 0.32532 0.0
N505 N 0.57217 0.77361 0.30998 0.0
C506 C 0.55494 0.76953 0.32905 0.0
C507 C 0.55317 0.76812 0.40579 0.0
C508 C 0.58042 0.77395 0.37574 0.0
N509 N 0.56921 0.77097 0.43531 0.0
C510 C 0.55762 0.78931 0.17019 0.0
C511 C 0.58315 0.82648 0.16395 0.0
C512 C 0.56436 0.82075 0.15684 0.0
C513 C 0.55161 0.80188 0.15739 0.0
C514 C 0.58862 0.8133 0.17461 0.0
N515 N 0.57577 0.79505 0.18381 0.0
H516 H 0.54743 0.77486 0.16973 0.0
H517 H 0.60316 0.81791 0.17513 0.0
H518 H 0.54406 0.76721 0.29062 0.0
H519 H 0.59424 0.77606 0.3798 0.0
O520 O 0.55964 0.7545 0.17809 0.0
O521 O 0.58384 0.75409 0.22539 0.0
O522 O 0.60785 0.79465 0.2459 0.0
C523 C 0.5672 0.7449 0.19825 0.0
H524 H 0.62282 0.7826 0.98657 0.0
H525 H 0.54098 0.76535 0.43728 0.0
H526 H 0.59349 0.84096 0.16047 0.0
H527 H 0.53701 0.79685 0.15001 0.0
Co528 Co 0.25287 0.81064 0.23065 0.0
C529 C 0.25064 0.81135 0.06224 0.0
C530 C 0.25202 0.83498 0.11483 0.0
C531 C 0.25181 0.83705 0.0383 0.0
N532 N 0.25095 0.8187 0.13017 0.0
N533 N 0.25096 0.82217 1.00515 0.0
H534 H 0.25103 0.79885 0.05387 0.0
H535 H 0.25311 0.84481 0.15671 0.0
C536 C 0.21994 0.81576 0.23605 0.0
O537 O 0.21487 0.80746 0.17067 0.0
N538 N 0.25521 0.80321 0.33069 0.0
C539 C 0.25831 0.78939 0.34872 0.0
C540 C 0.25838 0.78802 0.4257 0.0
C541 C 0.25358 0.81019 0.39659 0.0
N542 N 0.25538 0.80108 0.45578 0.0
C543 C 0.2379 0.77451 0.16593 0.0
C544 C 0.20527 0.75795 0.24618 0.0
C545 C 0.209 0.7471 0.19735 0.0
C546 C 0.22557 0.75567 0.15679 0.0
C547 C 0.21791 0.77681 0.25307 0.0
N548 N 0.23377 0.78509 0.21127 0.0
H549 H 0.25121 0.78033 0.13918 0.0
H550 H 0.21525 0.78446 0.29505 0.0
H551 H 0.26024 0.78081 0.30861 0.0
H552 H 0.2508 0.82145 0.40101 0.0
O553 O 0.27445 0.80942 0.19988 0.0
O554 O 0.27503 0.83426 0.24565 0.0
O555 O 0.23434 0.81754 0.26889 0.0
C556 C 0.28414 0.82667 0.21914 0.0
H557 H 0.25233 0.84868 1.00957 0.0
H558 H 0.26063 0.77824 0.45702 0.0
H559 H 0.19284 0.75186 0.28001 0.0
H560 H 0.22945 0.74771 0.12101 0.0
Co561 Co 0.2176 0.447 0.22413 0.0
C562 C 0.21937 0.44525 0.05864 0.0
C563 C 0.19961 0.41918 0.10647 0.0
C564 C 0.1992 0.41737 0.0297 0.0
N565 N 0.21234 0.4366 0.12451 0.0
N566 N 0.21157 0.43376 0.99969 0.0
H567 H 0.22979 0.45967 0.05409 0.0
H568 H 0.19079 0.40866 0.14605 0.0
C569 C 0.21892 0.41582 0.30671 0.0
O570 O 0.23514 0.42734 0.33556 0.0
N571 N 0.22233 0.45744 0.32541 0.0
C572 C 0.22968 0.47544 0.34341 0.0
C573 C 0.22993 0.47724 0.41998 0.0
C574 C 0.21728 0.44854 0.3922 0.0
N575 N 0.22221 0.46032 0.45085 0.0
C576 C 0.25652 0.47229 0.21999 0.0
C577 C 0.26769 0.44752 0.18022 0.0
C578 C 0.28113 0.4658 0.19636 0.0
C579 C 0.27528 0.47829 0.21475 0.0
C580 C 0.24889 0.442 0.18729 0.0
N581 N 0.24355 0.45417 0.21097 0.0
H582 H 0.25251 0.48242 0.23011 0.0
H583 H 0.23866 0.42791 0.17445 0.0
H584 H 0.23411 0.48668 0.30406 0.0
H585 H 0.20943 0.43375 0.39824 0.0
O586 O 0.21863 0.46906 0.18552 0.0
O587 O 0.19333 0.44454 0.22777 0.0
O588 O 0.21067 0.42175 0.26444 0.0
C589 C 0.20103 0.4611 0.19954 0.0
H590 H 0.18994 0.40513 0.99829 0.0
H591 H 0.23542 0.49011 0.4503 0.0
H592 H 0.27165 0.43754 0.16378 0.0
H593 H 0.28518 0.49273 0.22403 0.0
H594 H 0.20749 0.1561 0.38376 0.0
H595 H 0.17808 0.21881 0.60891 0.0
H596 H 0.23378 0.18221 0.59185 0.0
H597 H 0.17229 0.21262 0.36852 0.0
H598 H 0.19683 0.20376 0.60737 0.0
H599 H 0.19289 0.17519 0.37924 0.0
C600 C 0.21034 0.16604 0.42799 0.0
C601 C 0.22187 0.16766 0.48814 0.0
C602 C 0.1916 0.20587 0.55492 0.0
C603 C 0.20493 0.1892 0.48435 0.0
C604 C 0.18084 0.21435 0.55584 0.0
C605 C 0.17366 0.21698 0.48875 0.0
C606 C 0.19486 0.19961 0.48663 0.0
C607 C 0.1777 0.21101 0.42143 0.0
C608 C 0.20204 0.17692 0.42542 0.0
C609 C 0.22509 0.18068 0.54423 0.0
N610 N 0.18784 0.20242 0.42217 0.0
N611 N 0.21645 0.19079 0.54158 0.0
H612 H 0.87451 0.05814 0.39166 0.0
H613 H 0.79648 0.96466 0.57859 0.0
H614 H 0.84107 0.05788 0.57621 0.0
H615 H 0.82475 0.96745 0.37218 0.0
H616 H 0.81097 0.99845 0.57675 0.0
H617 H 0.85502 0.02477 0.38128 0.0
C618 C 0.8629 0.05102 0.42957 0.0
C619 C 0.85944 0.06075 0.48508 0.0
C620 C 0.81384 0.99162 0.53156 0.0
C621 C 0.83709 0.02236 0.4744 0.0
C622 C 0.80552 0.97233 0.53244 0.0
C623 C 0.80963 0.9632 0.4761 0.0
C624 C 0.82634 1.00181 0.47393 0.0
C625 C 0.8215 0.97388 0.41779 0.0
C626 C 0.85174 0.03194 0.42368 0.0
C627 C 0.84414 0.05086 0.53244 0.0
N628 N 0.82951 0.99253 0.41862 0.0
N629 N 0.83365 0.03215 0.52672 0.0
H630 H 0.97163 0.83952 0.5237 0.0
H631 H 0.06312 0.83161 0.50209 0.0
H632 H 0.96963 0.78707 0.51437 0.0
H633 H 0.06221 0.88265 0.49864 0.0
H634 H 0.02919 0.81462 0.50694 0.0
H635 H 1.00505 0.85511 0.5161 0.0
C636 C 0.9782 0.83123 0.51925 0.0
C637 C 0.96769 0.8119 0.51858 0.0
C638 C 0.03648 0.82954 0.50525 0.0
C639 C 1.00635 0.82985 0.51118 0.0
C640 C 0.05583 0.83924 0.50218 0.0
C641 C 0.0656 0.85862 0.501 0.0
C642 C 0.02686 0.83931 0.50679 0.0
C643 C 0.05539 0.86776 0.50136 0.0
C644 C 0.99738 0.84019 0.51543 0.0
C645 C 0.97715 0.80199 0.51515 0.0
N646 N 0.03668 0.85806 0.50436 0.0
N647 N 0.99596 0.81107 0.51137 0.0
H648 H 0.78221 0.82481 0.49015 0.0
H649 H 0.88042 0.8316 0.5318 0.0
H650 H 0.83301 0.87599 0.52541 0.0
H651 H 0.82933 0.78066 0.56671 0.0
H652 H 0.86308 0.8478 0.5202 0.0
H653 H 0.79895 0.80802 0.50955 0.0
C654 C 0.79686 0.83251 0.50221 0.0
C655 C 0.80623 0.85183 0.50615 0.0
C656 C 0.85564 0.83309 0.5307 0.0
C657 C 0.82546 0.83276 0.52761 0.0
C658 C 0.86553 0.82381 0.53711 0.0
C659 C 0.8563 0.80475 0.55025 0.0
C660 C 0.8363 0.82323 0.53644 0.0
C661 C 0.83699 0.79539 0.55681 0.0
C662 C 0.80638 0.82292 0.51343 0.0
C663 C 0.8252 0.8611 0.52202 0.0
N664 N 0.8276 0.8047 0.54933 0.0
N665 N 0.83419 0.8515 0.53163 0.0
H666 H 0.19666 0.05645 0.51166 0.0
H667 H 0.20417 0.96551 0.46923 0.0
H668 H 0.24757 0.05658 0.5514 0.0
H669 H 0.15283 0.96475 0.50583 0.0
H670 H 0.22082 0.99915 0.48555 0.0
H671 H 0.18082 0.02306 0.49559 0.0
C672 C 0.20452 0.04944 0.517 0.0
C673 C 0.22346 0.05931 0.53306 0.0
C674 C 0.20592 0.99158 0.49006 0.0
C675 C 0.2054 0.02101 0.51409 0.0
C676 C 0.19641 0.97241 0.48044 0.0
C677 C 0.1771 0.96233 0.48621 0.0
C678 C 0.19598 1.00069 0.50444 0.0
C679 C 0.16773 0.97195 0.50111 0.0
C680 C 0.19545 0.03036 0.508 0.0
C681 C 0.23293 0.04948 0.53942 0.0
N682 N 0.17724 0.99057 0.50933 0.0
N683 N 0.22382 0.03086 0.52952 0.0
H684 H 0.97172 0.14568 0.52009 0.0
H685 H 0.06309 0.24424 0.48194 0.0
H686 H 0.97191 0.19655 0.55987 0.0
H687 H 0.06397 0.1937 0.5156 0.0
H688 H 0.02945 0.22714 0.49852 0.0
H689 H 1.00529 0.16314 0.5063 0.0
C690 C 0.97883 0.16054 0.52593 0.0
C691 C 0.96899 0.16967 0.54126 0.0
C692 C 0.03703 0.21982 0.50246 0.0
C693 C 1.00748 0.18979 0.52489 0.0
C694 C 0.05622 0.22955 0.49275 0.0
C695 C 0.06636 0.22038 0.49744 0.0
C696 C 0.0279 0.20073 0.51586 0.0
C697 C 0.05673 0.20134 0.51174 0.0
C698 C 0.99801 0.17049 0.51825 0.0
C699 C 0.97895 0.18895 0.54836 0.0
N700 N 0.03806 0.19215 0.52 0.0
N701 N 0.99765 0.19839 0.53968 0.0
H702 H 0.8743 0.48766 0.71886 0.0
H703 H 0.84521 0.55116 0.93888 0.0
H704 H 0.90057 0.514 0.92667 0.0
H705 H 0.84092 0.54575 0.69798 0.0
H706 H 0.86365 0.53577 0.93938 0.0
H707 H 0.8601 0.50711 0.71261 0.0
C708 C 0.87721 0.4977 0.76271 0.0
C709 C 0.88863 0.49931 0.82324 0.0
C710 C 0.85883 0.53814 0.88639 0.0
C711 C 0.87215 0.52126 0.81744 0.0
C712 C 0.84826 0.54683 0.88612 0.0
C713 C 0.84158 0.54976 0.81828 0.0
C714 C 0.86237 0.53195 0.81851 0.0
C715 C 0.84594 0.5439 0.75143 0.0
C716 C 0.86914 0.50879 0.75912 0.0
C717 C 0.89195 0.51248 0.8788 0.0
N718 N 0.85586 0.53508 0.75329 0.0
N719 N 0.88353 0.52279 0.87516 0.0
H720 H 0.50878 0.29831 0.8448 0.0
H721 H 0.50778 0.39161 0.77448 0.0
H722 H 0.45741 0.29744 0.80542 0.0
H723 H 0.54973 0.38775 0.90098 0.0
H724 H 0.48942 0.35768 0.77221 0.0
H725 H 0.52465 0.33168 0.8496 0.0
C726 C 0.50071 0.30506 0.83814 0.0
C727 C 0.48155 0.29484 0.82638 0.0
C728 C 0.50265 0.36437 0.80046 0.0
C729 C 0.50002 0.33352 0.82959 0.0
C730 C 0.51311 0.38372 0.80203 0.0
C731 C 0.53056 0.39265 0.83664 0.0
C732 C 0.50978 0.35398 0.83324 0.0
C733 C 0.53669 0.38161 0.87142 0.0
C734 C 0.50988 0.32422 0.84035 0.0
C735 C 0.47217 0.30467 0.81473 0.0
N736 N 0.52644 0.36298 0.8682 0.0
N737 N 0.48149 0.32348 0.81661 0.0
H738 H 0.73062 0.16567 0.77978 0.0
H739 H 0.63917 0.15783 0.95893 0.0
H740 H 0.72986 0.2005 0.95608 0.0
H741 H 0.63723 0.12199 0.78126 0.0
H742 H 0.67247 0.17125 0.96585 0.0
H743 H 0.69674 0.14705 0.78723 0.0
C744 C 0.72336 0.16918 0.82097 0.0
C745 C 0.73304 0.18476 0.86687 0.0
C746 C 0.66486 0.1604 0.92542 0.0
C747 C 0.6944 0.16371 0.87521 0.0
C748 C 0.6458 0.15277 0.92124 0.0
C749 C 0.63541 0.13897 0.86862 0.0
C750 C 0.67384 0.15434 0.87626 0.0
C751 C 0.64473 0.13266 0.82247 0.0
C752 C 0.70403 0.15864 0.82483 0.0
C753 C 0.72295 0.18877 0.91885 0.0
N754 N 0.66347 0.14054 0.82675 0.0
N755 N 0.70425 0.17844 0.92117 0.0
H756 H 0.44942 0.156 0.80416 0.0
H757 H 0.5482 0.16359 0.84336 0.0
H758 H 0.50012 0.20733 0.8383 0.0
H759 H 0.49739 0.11274 0.8838 0.0
H760 H 0.53058 0.17939 0.82703 0.0
H761 H 0.46652 0.13941 0.81939 0.0
C762 C 0.46413 0.16377 0.81467 0.0
C763 C 0.47336 0.18307 0.82006 0.0
C764 C 0.52326 0.16478 0.83955 0.0
C765 C 0.49298 0.16425 0.83692 0.0
C766 C 0.53331 0.15573 0.84865 0.0
C767 C 0.52425 0.13682 0.86511 0.0
C768 C 0.50394 0.15484 0.84601 0.0
C769 C 0.50492 0.12735 0.87145 0.0
C770 C 0.47386 0.1543 0.82361 0.0
C771 C 0.49243 0.19245 0.83395 0.0
N772 N 0.49538 0.13644 0.86157 0.0
N773 N 0.50159 0.18297 0.84152 0.0
H774 H 0.81772 0.29616 0.83774 0.0
H775 H 0.9151 0.38856 0.88233 0.0
H776 H 0.86927 0.29736 0.80134 0.0
H777 H 0.86398 0.38798 0.84207 0.0
H778 H 0.89876 0.35492 0.86592 0.0
H779 H 0.83464 0.32961 0.85282 0.0
C780 C 0.83263 0.30347 0.83294 0.0
C781 C 0.8421 0.29395 0.81813 0.0
C782 C 0.89117 0.3622 0.86058 0.0
C783 C 0.86161 0.33233 0.83596 0.0
C784 C 0.90046 0.38136 0.87022 0.0
C785 C 0.89088 0.39108 0.86353 0.0
C786 C 0.87214 0.3527 0.84528 0.0
C787 C 0.87193 0.38107 0.84753 0.0
C788 C 0.84228 0.32259 0.84135 0.0
C789 C 0.86143 0.30417 0.81239 0.0
N790 N 0.86319 0.36246 0.83936 0.0
N791 N 0.87058 0.32282 0.82174 0.0
H792 H 0.63938 0.53131 0.88247 0.0
H793 H 0.73164 0.52568 0.84025 0.0
H794 H 0.63968 0.48055 0.84623 0.0
H795 H 0.73059 0.57598 0.80147 0.0
H796 H 0.69818 0.50933 0.85803 0.0
H797 H 0.67315 0.54841 0.86806 0.0
C798 C 0.64655 0.52378 0.87177 0.0
C799 C 0.63672 0.5045 0.86534 0.0
C800 C 0.70526 0.52395 0.84556 0.0
C801 C 0.67521 0.52388 0.84942 0.0
C802 C 0.72437 0.53329 0.83558 0.0
C803 C 0.7339 0.5522 0.81907 0.0
C804 C 0.69558 0.53359 0.83993 0.0
C805 C 0.72375 0.56137 0.8137 0.0
C806 C 0.66577 0.53353 0.86329 0.0
C807 C 0.64668 0.49542 0.85127 0.0
N808 N 0.70513 0.55199 0.82439 0.0
N809 N 0.66534 0.50516 0.8441 0.0
H810 H 0.50718 0.87897 0.02957 0.0
H811 H 0.57071 0.84873 0.25288 0.0
H812 H 0.51457 0.88496 0.26951 0.0
H813 H 0.54239 0.8226 0.04788 0.0
H814 H 0.55601 0.86785 0.25044 0.0
H815 H 0.52579 0.86386 0.02662 0.0
C816 C 0.51292 0.87731 0.08151 0.0
C817 C 0.50933 0.88321 0.14993 0.0
C818 C 0.55319 0.85806 0.20564 0.0
C819 C 0.53067 0.86601 0.14685 0.0
C820 C 0.56168 0.8473 0.20666 0.0
C821 C 0.55772 0.83412 0.15048 0.0
C822 C 0.54094 0.85582 0.1473 0.0
C823 C 0.54574 0.8326 0.0923 0.0
C824 C 0.52343 0.8686 0.07982 0.0
C825 C 0.51693 0.8805 0.21569 0.0
N826 N 0.53779 0.84332 0.09214 0.0
N827 N 0.52729 0.87214 0.21254 0.0
H828 H 0.19137 0.7226 0.31221 0.0
H829 H 0.14564 0.63353 0.0462 0.0
H830 H 0.19819 0.72525 0.0716 0.0
H831 H 0.14868 0.63074 0.28725 0.0
H832 H 0.16139 0.66718 0.05435 0.0
H833 H 0.17227 0.68905 0.30373 0.0
C834 C 0.18867 0.71616 0.25746 0.0
C835 C 0.19643 0.72679 0.19249 0.0
C836 C 0.15853 0.65921 0.1055 0.0
C837 C 0.17467 0.6883 0.18247 0.0
C838 C 0.1494 0.63998 0.10095 0.0
C839 C 0.14584 0.62927 0.16617 0.0
C840 C 0.16405 0.66785 0.17582 0.0
C841 C 0.15131 0.63844 0.23547 0.0
C842 C 0.17787 0.69697 0.25273 0.0
C843 C 0.19266 0.7176 0.12321 0.0
N844 N 0.16013 0.65717 0.23846 0.0
N845 N 0.18206 0.69891 0.12002 0.0
H846 H 0.39799 0.52447 0.29099 0.0
H847 H 0.30113 0.46107 0.08455 0.0
H848 H 0.39373 0.51183 0.0544 0.0
H849 H 0.30682 0.48553 0.30283 0.0
H850 H 0.33492 0.47514 0.07802 0.0
H851 H 0.36448 0.50597 0.30132 0.0
C852 C 0.39004 0.51781 0.24111 0.0
C853 C 0.3988 0.51996 0.17151 0.0
C854 C 0.32873 0.47728 0.12754 0.0
C855 C 0.36023 0.49844 0.18328 0.0
C856 C 0.30948 0.46917 0.13146 0.0
C857 C 0.30122 0.47228 0.19407 0.0
C858 C 0.33971 0.48836 0.18708 0.0
C859 C 0.31265 0.48297 0.25315 0.0
C860 C 0.37087 0.50716 0.24717 0.0
C861 C 0.38769 0.51053 0.10935 0.0
N862 N 0.33126 0.49065 0.24812 0.0
N863 N 0.36899 0.50029 0.1166 0.0
H864 H 0.11666 0.4913 0.12839 0.0
H865 H 0.21484 0.49749 0.16687 0.0
H866 H 0.16766 0.54226 0.16419 0.0
H867 H 0.16349 0.44691 0.20356 0.0
H868 H 0.19765 0.51373 0.15001 0.0
H869 H 0.13349 0.47442 0.14086 0.0
C870 C 0.13139 0.49893 0.13866 0.0
C871 C 0.14078 0.51821 0.14541 0.0
C872 C 0.19013 0.49908 0.16168 0.0
C873 C 0.16008 0.49903 0.15911 0.0
C874 C 0.19992 0.48977 0.17101 0.0
C875 C 0.19058 0.47082 0.18678 0.0
C876 C 0.17079 0.48935 0.16732 0.0
C877 C 0.17124 0.46155 0.19172 0.0
C878 C 0.14096 0.48929 0.14599 0.0
C879 C 0.15985 0.5274 0.15888 0.0
N880 N 0.16197 0.4709 0.18183 0.0
N881 N 0.16887 0.51774 0.16498 0.0
H882 H 0.53061 0.72214 0.16912 0.0
H883 H 0.53671 0.63029 0.12966 0.0
H884 H 0.5811 0.72139 0.2082 0.0
H885 H 0.4856 0.63011 0.16436 0.0
H886 H 0.55361 0.66393 0.14511 0.0
H887 H 0.51426 0.68867 0.15406 0.0
C888 C 0.53827 0.71493 0.17451 0.0
C889 C 0.55725 0.72458 0.19008 0.0
C890 C 0.5387 0.6565 0.1494 0.0
C891 C 0.5386 0.68618 0.17227 0.0
C892 C 0.52905 0.63733 0.14028 0.0
C893 C 0.50972 0.62738 0.14576 0.0
C894 C 0.52893 0.66581 0.16303 0.0
C895 C 0.5005 0.6372 0.15989 0.0
C896 C 0.52891 0.6958 0.16609 0.0
C897 C 0.56645 0.71448 0.19655 0.0
N898 N 0.51017 0.65584 0.16766 0.0
N899 N 0.55706 0.69583 0.18722 0.0
H900 H 0.39973 0.85897 0.18127 0.0
H901 H 0.30732 0.86403 0.22837 0.0
H902 H 0.3981 0.90913 0.14769 0.0
H903 H 0.30727 0.81318 0.19005 0.0
H904 H 0.34094 0.88104 0.21229 0.0
H905 H 0.3662 0.84219 0.198 0.0
C906 C 0.39232 0.86647 0.17756 0.0
C907 C 0.40173 0.88549 0.16295 0.0
C908 C 0.33356 0.86616 0.20735 0.0
C909 C 0.36332 0.86636 0.18257 0.0
C910 C 0.31439 0.85644 0.2168 0.0
C911 C 0.30448 0.83715 0.2105 0.0
C912 C 0.34293 0.85651 0.19251 0.0
C913 C 0.31435 0.82804 0.19518 0.0
C914 C 0.37317 0.85686 0.18688 0.0
C915 C 0.3914 0.89447 0.15859 0.0
N916 N 0.33302 0.83778 0.18706 0.0
N917 N 0.37276 0.88485 0.1687 0.0
H918 H 0.18575 0.30948 0.50923 0.0
H919 H 0.18563 0.38823 0.25513 0.0
H920 H 0.14274 0.29925 0.35025 0.0
H921 H 0.23066 0.39779 0.40155 0.0
H922 H 0.17005 0.35561 0.28787 0.0
H923 H 0.20268 0.34162 0.46863 0.0
C924 C 0.17989 0.31395 0.46543 0.0
C925 C 0.16272 0.3016 0.43336 0.0
C926 C 0.18336 0.3648 0.31268 0.0
C927 C 0.18208 0.33857 0.38684 0.0
C928 C 0.19232 0.3835 0.29402 0.0
C929 C 0.20955 0.39587 0.32559 0.0
C930 C 0.1916 0.35831 0.36371 0.0
C931 C 0.21742 0.38881 0.37579 0.0
C932 C 0.18959 0.33235 0.4423 0.0
C933 C 0.1559 0.30824 0.37667 0.0
N934 N 0.20836 0.37054 0.39346 0.0
N935 N 0.16554 0.32628 0.35557 0.0
H936 H 0.63928 0.79692 0.27194 0.0
H937 H 0.72869 0.89446 0.34762 0.0
H938 H 0.63476 0.84365 0.34403 0.0
H939 H 0.72741 0.8429 0.38315 0.0
H940 H 0.69512 0.87724 0.32616 0.0
H941 H 0.6726 0.81478 0.29254 0.0
C942 C 0.64531 0.81096 0.29204 0.0
C943 C 0.6342 0.81879 0.30653 0.0
C944 C 0.70226 0.86976 0.33863 0.0
C945 C 0.67243 0.8394 0.32921 0.0
C946 C 0.72139 0.87955 0.35036 0.0
C947 C 0.73085 0.8701 0.36722 0.0
C948 C 0.69266 0.85041 0.34216 0.0
C949 C 0.72069 0.85076 0.37063 0.0
C950 C 0.66432 0.82112 0.30397 0.0
C951 C 0.64279 0.83705 0.33267 0.0
N952 N 0.7022 0.84157 0.35772 0.0
N953 N 0.66144 0.84681 0.34265 0.0
H954 H 0.21925 0.82453 0.38382 0.0
H955 H 0.16371 0.87713 0.3127 0.0
H956 H 0.19644 0.82492 0.16704 0.0
H957 H 0.16479 0.85466 0.52949 0.0
H958 H 0.17854 0.86096 0.2579 0.0
H959 H 0.20225 0.83851 0.4386 0.0
C960 C 0.21065 0.82753 0.3478 0.0
C961 C 0.20924 0.82354 0.27075 0.0
C962 C 0.17541 0.85949 0.31736 0.0
C963 C 0.19 0.83974 0.33284 0.0
C964 C 0.167 0.86874 0.3487 0.0
C965 C 0.16299 0.86721 0.42578 0.0
C966 C 0.18019 0.84895 0.36367 0.0
C967 C 0.16754 0.85614 0.46975 0.0
C968 C 0.20091 0.83543 0.37913 0.0
C969 C 0.19785 0.82767 0.22676 0.0
N970 N 0.17608 0.84759 0.43824 0.0
N971 N 0.18881 0.83571 0.25826 0.0
H972 H 0.39616 0.18403 0.6724 0.0
H973 H 0.29513 0.16961 0.74584 0.0
H974 H 0.38375 0.21171 0.84777 0.0
H975 H 0.30703 0.13999 0.57744 0.0
H976 H 0.32789 0.18655 0.77894 0.0
H977 H 0.36397 0.16928 0.6314 0.0
C978 C 0.38672 0.18711 0.70201 0.0
C979 C 0.3927 0.19909 0.7639 0.0
C980 C 0.32334 0.17639 0.73456 0.0
C981 C 0.35574 0.18215 0.71737 0.0
C982 C 0.30461 0.16671 0.71556 0.0
C983 C 0.29824 0.15329 0.65885 0.0
C984 C 0.33585 0.17266 0.69661 0.0
C985 C 0.31124 0.15015 0.62166 0.0
C986 C 0.36831 0.17864 0.67865 0.0
C987 C 0.3798 0.20254 0.79996 0.0
N988 N 0.32937 0.15971 0.64129 0.0
N989 N 0.36196 0.19407 0.77638 0.0
H990 H 0.85235 0.22309 0.73015 0.0
H991 H 0.84831 0.1268 0.68129 0.0
H992 H 0.80117 0.17371 0.6775 0.0
H993 H 0.89634 0.1787 0.62356 0.0
H994 H 0.83085 0.14298 0.6995 0.0
H995 H 0.86883 0.20624 0.71061 0.0
C996 C 0.84456 0.20868 0.71448 0.0
C997 C 0.82534 0.1998 0.7052 0.0
C998 C 0.8452 0.15075 0.68279 0.0
C999 C 0.84417 0.18035 0.68384 0.0
C1000 C 0.8552 0.14158 0.67288 0.0
C1001 C 0.87381 0.15142 0.65086 0.0
C1002 C 0.85402 0.16993 0.67225 0.0
C1003 C 0.88201 0.17054 0.64025 0.0
C1004 C 0.854 0.19909 0.70314 0.0
C1005 C 0.816 0.1811 0.68469 0.0
N1006 N 0.87212 0.17917 0.65159 0.0
N1007 N 0.82548 0.17192 0.67531 0.0
H1008 H 0.8422 0.64743 0.85358 0.0
H1009 H 0.86898 0.71009 0.48629 0.0
H1010 H 0.81758 0.62552 0.6378 0.0
H1011 H 0.87087 0.7317 0.70796 0.0
H1012 H 0.8551 0.67901 0.53978 0.0
H1013 H 0.85783 0.6785 0.79946 0.0
C1014 C 0.84021 0.64913 0.79465 0.0
C1015 C 0.82855 0.63387 0.75012 0.0
C1016 C 0.85861 0.69058 0.57661 0.0
C1017 C 0.84649 0.66934 0.68793 0.0
C1018 C 0.86662 0.70832 0.54629 0.0
C1019 C 0.87105 0.72351 0.59276 0.0
C1020 C 0.85533 0.68803 0.65416 0.0
C1021 C 0.86758 0.72038 0.67006 0.0
C1022 C 0.84905 0.66687 0.76401 0.0
C1023 C 0.82639 0.63691 0.67421 0.0
N1024 N 0.86001 0.70299 0.69842 0.0
N1025 N 0.83535 0.6543 0.64538 0.0
H1026 H 0.06346 0.51892 1.00349 0.0
H1027 H 0.96114 0.50028 0.08399 0.0
H1028 H 0.04988 0.54415 0.18507 0.0
H1029 H 0.97429 0.47305 0.90921 0.0
H1030 H 0.99386 0.51783 0.11724 0.0
H1031 H 0.0312 0.5035 0.96314 0.0
C1032 C 0.05374 0.52133 0.03462 0.0
C1033 C 0.05942 0.53281 0.09802 0.0
C1034 C 0.9896 0.50805 0.07144 0.0
C1035 C 0.02238 0.51509 0.05223 0.0
C1036 C 0.97089 0.49803 0.05234 0.0
C1037 C 0.96489 0.48511 0.99374 0.0
C1038 C 1.00246 0.50518 0.03168 0.0
C1039 C 0.97822 0.4828 0.95491 0.0
C1040 C 0.0353 0.51247 0.01162 0.0
C1041 C 0.04617 0.53539 0.13603 0.0
N1042 N 0.99633 0.49269 0.97463 0.0
N1043 N 0.02829 0.52656 0.11274 0.0
H1044 H 0.48257 0.51008 0.18408 0.0
H1045 H 0.55489 0.50589 0.90192 0.0
H1046 H 0.50967 0.54926 1.00487 0.0
H1047 H 0.5266 0.46595 0.07754 0.0
H1048 H 0.53765 0.52125 0.93561 0.0
H1049 H 0.49759 0.49308 0.14247 0.0
C1050 C 0.4916 0.51508 0.13566 0.0
C1051 C 0.4949 0.5312 0.09815 0.0
C1052 C 0.53514 0.50908 0.96662 0.0
C1053 C 0.51229 0.51175 0.0503 0.0
C1054 C 0.545 0.50028 0.94742 0.0
C1055 C 0.54226 0.48458 0.98705 0.0
C1056 C 0.52243 0.50223 0.02613 0.0
C1057 C 0.5292 0.47799 0.04539 0.0
C1058 C 0.5002 0.50534 0.11195 0.0
C1059 C 0.50673 0.53693 0.03564 0.0
N1060 N 0.51985 0.48688 0.0633 0.0
N1061 N 0.51506 0.52727 0.01395 0.0
H1062 H 0.52076 0.05408 0.91901 0.0
H1063 H 0.52016 0.97573 0.17848 0.0
H1064 H 0.56374 0.0644 0.07831 0.0
H1065 H 0.47793 0.96505 0.01482 0.0
H1066 H 0.53682 1.00795 0.1392 0.0
H1067 H 0.50544 0.02138 0.95048 0.0
C1068 C 0.52704 0.0495 0.96049 0.0
C1069 C 0.54361 0.06211 0.99609 0.0
C1070 C 0.52396 0.99857 0.11156 0.0
C1071 C 0.52598 0.02448 0.03264 0.0
C1072 C 0.51441 0.98012 0.13391 0.0
C1073 C 0.49754 0.96762 0.10014 0.0
C1074 C 0.51661 1.00469 0.05505 0.0
C1075 C 0.49086 0.97417 0.04255 0.0
C1076 C 0.51825 0.03076 0.97842 0.0
C1077 C 0.55101 0.05524 0.04941 0.0
N1078 N 0.50036 0.99226 0.02212 0.0
N1079 N 0.54212 0.03693 0.06618 0.0
H1080 H 0.12909 0.23531 0.76645 0.0
H1081 H 0.10803 0.25895 0.17771 0.0
H1082 H 0.11005 0.2738 0.80807 0.0
H1083 H 0.12203 0.21685 0.13222 0.0
H1084 H 0.11005 0.26568 0.04316 0.0
H1085 H 0.12749 0.2291 0.90085 0.0
C1086 C 0.12446 0.24238 0.80361 0.0
C1087 C 0.11966 0.25508 0.77544 0.0
C1088 C 0.11266 0.25496 0.06269 0.0
C1089 C 0.11805 0.24821 0.93011 0.0
C1090 C 0.11162 0.25119 0.13958 0.0
C1091 C 0.11477 0.23725 0.16642 0.0
C1092 C 0.11699 0.24478 0.01227 0.0
C1093 C 0.11918 0.2275 0.11415 0.0
C1094 C 0.12365 0.2389 0.88057 0.0
C1095 C 0.1141 0.26407 0.82692 0.0
N1096 N 0.12017 0.23145 0.03976 0.0
N1097 N 0.11345 0.26046 0.90163 0.0
H1098 H 0.80223 0.88224 0.75325 0.0
H1099 H 0.76614 0.88171 0.17005 0.0
H1100 H 0.74745 0.87207 0.80261 0.0
H1101 H 0.81641 0.88117 0.12088 0.0
H1102 H 0.75985 0.88023 0.03567 0.0
H1103 H 0.80883 0.88477 0.88787 0.0
C1104 C 0.79167 0.88074 0.79235 0.0
C1105 C 0.77424 0.87688 0.76668 0.0
C1106 C 0.77225 0.88042 0.05444 0.0
C1107 C 0.78161 0.87955 0.92084 0.0
C1108 C 0.7758 0.88113 0.13134 0.0
C1109 C 0.79187 0.88158 0.15738 0.0
C1110 C 0.78487 0.88024 1.00295 0.0
C1111 C 0.804 0.88113 0.1039 0.0
C1112 C 0.79538 0.88202 0.86923 0.0
C1113 C 0.76098 0.87481 0.82002 0.0
N1114 N 0.80027 0.88053 0.02941 0.0
N1115 N 0.76493 0.87617 0.89452 0.0
H1116 H 0.1752 0.89677 0.80528 0.0
H1117 H 0.13171 0.92997 0.12776 0.0
H1118 H 0.14258 0.92255 0.76219 0.0
H1119 H 0.15875 0.89859 0.17314 0.0
H1120 H 0.13674 0.92837 0.99415 0.0
H1121 H 0.17059 0.8984 0.94013 0.0
C1122 C 0.16712 0.90283 0.82408 0.0
C1123 C 0.15926 0.90952 0.772 0.0
C1124 C 0.14157 0.92181 0.03324 0.0
C1125 C 0.15386 0.91136 0.92665 0.0
C1126 C 0.13862 0.92264 0.1099 0.0
C1127 C 0.14467 0.91428 0.16246 0.0
C1128 C 0.15073 0.91262 1.00823 0.0
C1129 C 0.15394 0.90536 0.13517 0.0
C1130 C 0.16442 0.90367 0.90114 0.0
C1131 C 0.14871 0.91699 0.79987 0.0
N1132 N 0.15666 0.90475 0.06005 0.0
N1133 N 0.14637 0.91776 0.8751 0.0
H1134 H 0.21709 0.11414 0.8912 0.0
H1135 H 0.27688 0.10343 0.21727 0.0
H1136 H 0.25915 0.09981 0.84901 0.0
H1137 H 0.23564 0.11903 0.25656 0.0
H1138 H 0.27049 0.10175 0.08306 0.0
H1139 H 0.22348 0.11549 0.02493 0.0
C1140 C 0.22758 0.1111 0.90987 0.0
C1141 C 0.23747 0.10667 0.85816 0.0
C1142 C 0.26284 0.10555 0.121 0.0
C1143 C 0.24507 0.10849 0.0126 0.0
C1144 C 0.26654 0.10662 0.19791 0.0
C1145 C 0.25686 0.11149 0.24891 0.0
C1146 C 0.24932 0.10936 0.0943 0.0
C1147 C 0.24335 0.11507 0.21989 0.0
C1148 C 0.23131 0.11201 0.98659 0.0
C1149 C 0.25123 0.10336 0.88637 0.0
N1150 N 0.24003 0.11397 0.14471 0.0
N1151 N 0.25458 0.10429 0.9616 0.0
H1152 H 0.92584 0.16513 0.85071 0.0
H1153 H 0.90803 0.12175 0.26473 0.0
H1154 H 0.91339 0.10956 0.89828 0.0
H1155 H 0.92428 0.17854 0.21996 0.0
H1156 H 0.90932 0.11689 0.13028 0.0
H1157 H 0.92426 0.17008 0.9853 0.0
C1158 C 0.9227 0.15395 0.88924 0.0
C1159 C 0.91986 0.13693 0.8629 0.0
C1160 C 0.9126 0.13042 0.14991 0.0
C1161 C 0.91814 0.14253 0.01724 0.0
C1162 C 0.91197 0.13323 0.2269 0.0
C1163 C 0.91603 0.15058 0.25421 0.0
C1164 C 0.91732 0.14504 0.0995 0.0
C1165 C 0.92077 0.16486 0.20186 0.0
C1166 C 0.9219 0.15681 0.96619 0.0
C1167 C 0.91601 0.123 0.91583 0.0
N1168 N 0.92128 0.16177 0.12722 0.0
N1169 N 0.91526 0.1261 0.99023 0.0
H1170 H 0.90429 0.78622 0.26572 0.0
H1171 H 0.86072 0.7671 0.85262 0.0
H1172 H 0.84575 0.75417 0.22244 0.0
H1173 H 0.91809 0.80505 0.9004 0.0
H1174 H 0.85519 0.76034 0.98692 0.0
H1175 H 0.90977 0.79173 0.13132 0.0
C1176 C 0.89255 0.78041 0.22826 0.0
C1177 C 0.87449 0.76978 0.25608 0.0
C1178 C 0.86899 0.77014 0.96796 0.0
C1179 C 0.88075 0.77584 0.1012 0.0
C1180 C 0.87218 0.77392 0.8912 0.0
C1181 C 0.88988 0.78674 0.86507 0.0
C1182 C 0.88364 0.77915 0.01902 0.0
C1183 C 0.90417 0.7953 0.91794 0.0
C1184 C 0.89572 0.78348 0.15125 0.0
C1185 C 0.85991 0.7623 0.204 0.0
N1186 N 0.90073 0.79135 0.99222 0.0
N1187 N 0.86336 0.76549 0.12924 0.0
H1188 H 0.77568 0.60536 0.12904 0.0
H1189 H 0.79114 0.54882 0.45567 0.0
H1190 H 0.79707 0.56866 0.09081 0.0
H1191 H 0.77529 0.58971 0.49766 0.0
H1192 H 0.79253 0.55533 0.32165 0.0
H1193 H 0.77479 0.59939 0.26339 0.0
C1194 C 0.7803 0.59613 0.1486 0.0
C1195 C 0.7865 0.58754 0.09783 0.0
C1196 C 0.78876 0.56291 0.36008 0.0
C1197 C 0.78528 0.58045 0.25254 0.0
C1198 C 0.78785 0.55911 0.43678 0.0
C1199 C 0.78297 0.56864 0.48832 0.0
C1200 C 0.7847 0.57631 0.33415 0.0
C1201 C 0.77923 0.58211 0.46025 0.0
C1202 C 0.7797 0.59265 0.2256 0.0
C1203 C 0.79197 0.57544 0.12721 0.0
N1204 N 0.7801 0.58548 0.38511 0.0
N1205 N 0.79123 0.57227 0.20242 0.0
H1206 H 0.47733 0.2442 0.46147 0.0
H1207 H 0.41977 0.17246 0.13595 0.0
H1208 H 0.43556 0.18777 0.50461 0.0
H1209 H 0.45789 0.23027 0.09703 0.0
H1210 H 0.42562 0.17754 0.27042 0.0
H1211 H 0.47079 0.23905 0.3276 0.0
C1212 C 0.46683 0.23068 0.44285 0.0
C1213 C 0.45707 0.21636 0.49464 0.0
C1214 C 0.43269 0.18912 0.23243 0.0
C1215 C 0.44937 0.21039 0.34065 0.0
C1216 C 0.4293 0.18625 0.15541 0.0
C1217 C 0.43833 0.20096 0.10446 0.0
C1218 C 0.44525 0.20681 0.25912 0.0
C1219 C 0.45077 0.21845 0.1336 0.0
C1220 C 0.46302 0.22778 0.36624 0.0
C1221 C 0.44334 0.19924 0.46695 0.0
N1222 N 0.45385 0.22086 0.20879 0.0
N1223 N 0.43996 0.19671 0.39186 0.0
H1224 H 0.83802 0.25076 0.50572 0.0
H1225 H 0.79442 0.23335 0.09253 0.0
H1226 H 0.78278 0.23959 0.45893 0.0
H1227 H 0.85114 0.24896 0.13637 0.0
H1228 H 0.78973 0.2349 0.22699 0.0
H1229 H 0.84283 0.24902 0.37107 0.0
C1230 C 0.82688 0.24787 0.46733 0.0
C1231 C 0.81001 0.24543 0.49389 0.0
C1232 C 0.80321 0.23799 0.20714 0.0
C1233 C 0.81543 0.24352 0.33953 0.0
C1234 C 0.80593 0.2372 0.13014 0.0
C1235 C 0.8232 0.24099 0.10258 0.0
C1236 C 0.81785 0.24258 0.25727 0.0
C1237 C 0.8375 0.24564 0.15467 0.0
C1238 C 0.82966 0.24698 0.39036 0.0
C1239 C 0.79612 0.24189 0.44117 0.0
N1240 N 0.8345 0.24629 0.22931 0.0
N1241 N 0.79914 0.24103 0.36674 0.0
H1242 H 0.89405 0.42728 0.59465 0.0
H1243 H 0.93502 0.45384 0.17698 0.0
H1244 H 0.95215 0.46089 0.54549 0.0
H1245 H 0.87708 0.41923 0.22662 0.0
H1246 H 0.94169 0.45608 0.31148 0.0
H1247 H 0.88757 0.42428 0.46006 0.0
C1248 C 0.90545 0.43414 0.55576 0.0
C1249 C 0.92369 0.44433 0.58184 0.0
C1250 C 0.92751 0.44794 0.29291 0.0
C1251 C 0.91638 0.44076 0.42707 0.0
C1252 C 0.92371 0.44654 0.21595 0.0
C1253 C 0.90544 0.43636 0.19015 0.0
C1254 C 0.91295 0.43912 0.34466 0.0
C1255 C 0.89134 0.42744 0.24372 0.0
C1256 C 0.90175 0.4323 0.47873 0.0
C1257 C 0.9379 0.45268 0.52828 0.0
N1258 N 0.89538 0.42906 0.31821 0.0
N1259 N 0.93394 0.45072 0.45366 0.0
H1260 H 0.57629 0.45559 0.58845 0.0
H1261 H 0.59678 0.50016 0.1759 0.0
H1262 H 0.59237 0.51238 0.54519 0.0
H1263 H 0.58172 0.44375 0.22214 0.0
H1264 H 0.59502 0.50499 0.31054 0.0
H1265 H 0.57839 0.45114 0.45413 0.0
C1266 C 0.58037 0.46716 0.55095 0.0
C1267 C 0.58412 0.48439 0.57862 0.0
C1268 C 0.59215 0.49157 0.2911 0.0
C1269 C 0.58638 0.47933 0.42402 0.0
C1270 C 0.59307 0.48878 0.2141 0.0
C1271 C 0.58952 0.47155 0.18726 0.0
C1272 C 0.58756 0.477 0.34174 0.0
C1273 C 0.58492 0.45737 0.23989 0.0
C1274 C 0.58147 0.46459 0.47402 0.0
C1275 C 0.58908 0.49879 0.52671 0.0
N1276 N 0.58407 0.46041 0.31429 0.0
N1277 N 0.59006 0.49594 0.45211 0.0
H1278 H 0.51654 0.08217 0.55714 0.0
H1279 H 0.58382 0.14564 0.22964 0.0
H1280 H 0.57253 0.12579 0.5953 0.0
H1281 H 0.52958 0.09911 0.18905 0.0
H1282 H 0.57956 0.13909 0.36372 0.0
H1283 H 0.52079 0.08858 0.42309 0.0
C1284 C 0.5298 0.09302 0.53759 0.0
C1285 C 0.54425 0.10336 0.58823 0.0
C1286 C 0.56856 0.1303 0.32562 0.0
C1287 C 0.5491 0.11096 0.43366 0.0
C1288 C 0.57093 0.13411 0.24885 0.0
C1289 C 0.55697 0.12301 0.19764 0.0
C1290 C 0.55208 0.11527 0.352 0.0
C1291 C 0.54075 0.10799 0.22616 0.0
C1292 C 0.53217 0.09674 0.46071 0.0
C1293 C 0.56095 0.11754 0.55888 0.0
N1294 N 0.53873 0.10461 0.30139 0.0
N1295 N 0.56291 0.12089 0.48366 0.0
H1296 H 0.44414 0.93948 0.47183 0.0
H1297 H 0.45818 0.88227 0.79943 0.0
H1298 H 0.46394 0.90144 0.43436 0.0
H1299 H 0.44329 0.9239 0.84057 0.0
H1300 H 0.45957 0.88861 0.66534 0.0
H1301 H 0.44309 0.93356 0.60628 0.0
C1302 C 0.44837 0.92995 0.49163 0.0
C1303 C 0.4542 0.92099 0.44115 0.0
C1304 C 0.45601 0.89639 0.70358 0.0
C1305 C 0.45281 0.91399 0.5958 0.0
C1306 C 0.4551 0.8927 0.7803 0.0
C1307 C 0.45048 0.90248 0.83156 0.0
C1308 C 0.45222 0.90996 0.67739 0.0
C1309 C 0.44703 0.91611 0.80328 0.0
C1310 C 0.44768 0.92652 0.56864 0.0
C1311 C 0.45915 0.90852 0.47067 0.0
N1312 N 0.44789 0.91939 0.7281 0.0
N1313 N 0.45835 0.90541 0.5459 0.0
H1314 H 0.12423 0.56624 0.42463 0.0
H1315 H 0.10296 0.52217 0.8373 0.0
H1316 H 0.08915 0.50804 0.4676 0.0
H1317 H 0.14277 0.57904 0.78991 0.0
H1318 H 0.09628 0.51695 0.70291 0.0
H1319 H 0.13009 0.57135 0.55895 0.0
C1320 C 0.11783 0.55449 0.46204 0.0
C1321 C 0.10621 0.53665 0.43422 0.0
C1322 C 0.10648 0.53057 0.72199 0.0
C1323 C 0.11267 0.54248 0.58892 0.0
C1324 C 0.11022 0.53358 0.79878 0.0
C1325 C 0.12352 0.55105 0.82503 0.0
C1326 C 0.11603 0.54516 0.67105 0.0
C1327 C 0.13263 0.56528 0.77227 0.0
C1328 C 0.12111 0.55745 0.53899 0.0
C1329 C 0.09803 0.52205 0.48613 0.0
N1330 N 0.12871 0.56202 0.69798 0.0
N1331 N 0.10143 0.5253 0.56084 0.0
H1332 H 0.5058 0.58571 0.83572 0.0
H1333 H 0.46162 0.56266 0.42356 0.0
H1334 H 0.44878 0.56824 0.78908 0.0
H1335 H 0.51995 0.58633 0.46599 0.0
H1336 H 0.45648 0.56333 0.55795 0.0
H1337 H 0.51102 0.58434 0.70124 0.0
C1338 C 0.49435 0.58148 0.79734 0.0
C1339 C 0.47684 0.57717 0.82382 0.0
C1340 C 0.47042 0.56839 0.53784 0.0
C1341 C 0.48273 0.57567 0.66977 0.0
C1342 C 0.47339 0.56811 0.46086 0.0
C1343 C 0.49128 0.5745 0.43289 0.0
C1344 C 0.48541 0.57505 0.58761 0.0
C1345 C 0.5059 0.58105 0.48464 0.0
C1346 C 0.49737 0.58081 0.72051 0.0
C1347 C 0.46257 0.57196 0.77126 0.0
N1348 N 0.50264 0.58116 0.55937 0.0
N1349 N 0.46583 0.57135 0.69691 0.0
H1350 H 0.56156 0.76123 0.91794 0.0
H1351 H 0.60303 0.78911 0.50164 0.0
H1352 H 0.61981 0.79405 0.87027 0.0
H1353 H 0.54509 0.75395 0.55001 0.0
H1354 H 0.60956 0.79099 0.6362 0.0
H1355 H 0.55525 0.7589 0.78328 0.0
C1356 C 0.57302 0.76806 0.87932 0.0
C1357 C 0.59125 0.77782 0.90576 0.0
C1358 C 0.59542 0.78283 0.61729 0.0
C1359 C 0.58414 0.77504 0.75102 0.0
C1360 C 0.5917 0.78164 0.54032 0.0
C1361 C 0.57346 0.77141 0.51415 0.0
C1362 C 0.58081 0.77373 0.66865 0.0
C1363 C 0.55932 0.76224 0.56735 0.0
C1364 C 0.56942 0.76661 0.80227 0.0
C1365 C 0.60556 0.78616 0.85265 0.0
N1366 N 0.56329 0.76366 0.64185 0.0
N1367 N 0.6017 0.78459 0.77798 0.0
H1368 H 0.26285 0.83329 0.52249 0.0
H1369 H 0.23882 0.78919 0.93516 0.0
H1370 H 0.24501 0.77627 0.5697 0.0
H1371 H 0.26321 0.84751 0.89189 0.0
H1372 H 0.2395 0.78397 0.80082 0.0
H1373 H 0.26121 0.83849 0.65674 0.0
C1374 C 0.25849 0.82184 0.56092 0.0
C1375 C 0.25415 0.80433 0.5346 0.0
C1376 C 0.2447 0.79792 0.82075 0.0
C1377 C 0.25234 0.8102 0.68859 0.0
C1378 C 0.24442 0.80094 0.89772 0.0
C1379 C 0.25104 0.81885 0.92552 0.0
C1380 C 0.2516 0.8129 0.77075 0.0
C1381 C 0.25777 0.83344 0.87349 0.0
C1382 C 0.25766 0.82484 0.63767 0.0
C1383 C 0.24876 0.79005 0.58734 0.0
N1384 N 0.25788 0.83014 0.7988 0.0
N1385 N 0.248 0.7933 0.66163 0.0
H1386 H 0.21809 0.42919 0.51739 0.0
H1387 H 0.22176 0.46675 0.93386 0.0
H1388 H 0.2219 0.48146 0.56623 0.0
H1389 H 0.20776 0.41081 0.88536 0.0
H1390 H 0.22457 0.4733 0.79914 0.0
H1391 H 0.21612 0.42276 0.65188 0.0
C1392 C 0.21835 0.43926 0.55608 0.0
C1393 C 0.22019 0.45593 0.52995 0.0
C1394 C 0.22091 0.45959 0.81798 0.0
C1395 C 0.21829 0.44878 0.68442 0.0
C1396 C 0.21947 0.4559 0.89492 0.0
C1397 C 0.21445 0.43819 0.92088 0.0
C1398 C 0.21743 0.4455 0.76658 0.0
C1399 C 0.21141 0.42458 0.86774 0.0
C1400 C 0.21736 0.43563 0.63302 0.0
C1401 C 0.22078 0.46856 0.58333 0.0
N1402 N 0.21294 0.42851 0.79317 0.0
N1403 N 0.21988 0.46474 0.65784 0.0
loop_
_geom_bond_atom_site_label_1
_geom_bond_atom_site_label_2
_geom_bond_distance
_geom_bond_site_symmetry_2
_ccdc_geom_bond_type
Co0 N4 2.148 . S
Co0 N10 2.128 . S
Co0 N20 2.194 . S
Co0 O25 2.351 . S
Co0 O26 2.155 . S
Co0 O27 2.096 . S
C1 N4 1.301 . S
C1 N5 1.328 . S
C1 H6 0.930 . S
C2 C3 1.333 . S
C2 N4 1.317 . S
C2 H7 0.930 . S
C3 C2 1.333 . S
C3 N5 1.350 . S
C3 H29 0.931 . S
N4 Co0 2.148 . S
N4 C1 1.301 . S
N4 C2 1.317 . S
N5 C1 1.328 . S
N5 C3 1.350 . S
H6 C1 0.930 . S
H7 C2 0.930 . S
C8 O9 1.224 . S
C8 O27 1.247 . S
O9 C8 1.224 . S
N10 Co0 2.128 . S
N10 C11 1.355 . S
N10 C13 1.311 . S
C11 N10 1.355 . S
C11 C12 1.363 . S
C11 H23 0.929 . S
C12 C11 1.363 . S
C12 N14 1.375 . S
C12 H30 0.931 . S
C13 N10 1.311 . S
C13 N14 1.347 . S
C13 H24 0.929 . S
N14 C12 1.375 . S
N14 C13 1.347 . S
C15 C18 1.365 . S
C15 N20 1.328 . S
C15 H21 0.929 . S
C16 C17 1.362 . S
C16 C19 1.378 . S
C16 H31 0.929 . S
C17 C16 1.362 . S
C17 C18 1.366 . S
C18 C15 1.365 . S
C18 C17 1.366 . S
C18 H32 0.930 . S
C19 C16 1.378 . S
C19 N20 1.315 . S
C19 H22 0.930 . S
N20 Co0 2.194 . S
N20 C15 1.328 . S
N20 C19 1.315 . S
H21 C15 0.929 . S
H22 C19 0.930 . S
H23 C11 0.929 . S
H24 C13 0.929 . S
O25 Co0 2.351 . S
O25 C28 1.244 . S
O26 Co0 2.155 . S
O26 C28 1.240 . S
O27 Co0 2.096 . S
O27 C8 1.247 . S
C28 O25 1.244 . S
C28 O26 1.240 . S
H29 C3 0.931 . S
H30 C12 0.931 . S
H31 C16 0.929 . S
H32 C18 0.930 . S
Co33 N37 2.148 . S
Co33 N43 2.128 . S
Co33 N53 2.194 . S
Co33 O58 2.351 . S
Co33 O59 2.155 . S
Co33 O60 2.096 . S
C34 N37 1.301 . S
C34 N38 1.328 . S
C34 H39 0.930 . S
C35 C36 1.333 . S
C35 N37 1.317 . S
C35 H40 0.930 . S
C36 C35 1.333 . S
C36 N38 1.350 . S
C36 H62 0.931 . S
N37 Co33 2.148 . S
N37 C34 1.301 . S
N37 C35 1.317 . S
N38 C34 1.328 . S
N38 C36 1.350 . S
H39 C34 0.930 . S
H40 C35 0.930 . S
C41 O42 1.224 . S
C41 O60 1.247 . S
O42 C41 1.224 . S
N43 Co33 2.128 . S
N43 C44 1.355 . S
N43 C46 1.311 . S
C44 N43 1.355 . S
C44 C45 1.363 . S
C44 H56 0.929 . S
C45 C44 1.363 . S
C45 N47 1.375 . S
C45 H63 0.931 . S
C46 N43 1.311 . S
C46 N47 1.347 . S
C46 H57 0.929 . S
N47 C45 1.375 . S
N47 C46 1.347 . S
C48 C51 1.365 . S
C48 N53 1.328 . S
C48 H54 0.929 . S
C49 C50 1.362 . S
C49 C52 1.378 . S
C49 H64 0.929 . S
C50 C49 1.362 . S
C50 C51 1.366 . S
C51 C48 1.365 . S
C51 C50 1.366 . S
C51 H65 0.930 . S
C52 C49 1.378 . S
C52 N53 1.315 . S
C52 H55 0.930 . S
N53 Co33 2.194 . S
N53 C48 1.328 . S
N53 C52 1.315 . S
H54 C48 0.929 . S
H55 C52 0.930 . S
H56 C44 0.929 . S
H57 C46 0.929 . S
O58 Co33 2.351 . S
O58 C61 1.244 . S
O59 Co33 2.155 . S
O59 C61 1.240 . S
O60 Co33 2.096 . S
O60 C41 1.247 . S
C61 O58 1.244 . S
C61 O59 1.240 . S
H62 C36 0.931 . S
H63 C45 0.931 . S
H64 C49 0.929 . S
H65 C51 0.930 . S
Co66 N70 2.148 . S
Co66 N76 2.128 . S
Co66 N86 2.194 . S
Co66 O91 2.351 . S
Co66 O92 2.155 . S
Co66 O93 2.096 . S
C67 N70 1.301 . S
C67 N71 1.328 . S
C67 H72 0.930 . S
C68 C69 1.333 . S
C68 N70 1.317 . S
C68 H73 0.930 . S
C69 C68 1.333 . S
C69 N71 1.350 . S
C69 H95 0.931 . S
N70 Co66 2.148 . S
N70 C67 1.301 . S
N70 C68 1.317 . S
N71 C67 1.328 . S
N71 C69 1.350 . S
H72 C67 0.930 . S
H73 C68 0.930 . S
C74 O75 1.224 . S
C74 O93 1.247 . S
O75 C74 1.224 . S
N76 Co66 2.128 . S
N76 C77 1.355 . S
N76 C79 1.311 . S
C77 N76 1.355 . S
C77 C78 1.363 . S
C77 H89 0.929 . S
C78 C77 1.363 . S
C78 N80 1.375 . S
C78 H96 0.931 . S
C79 N76 1.311 . S
C79 N80 1.347 . S
C79 H90 0.929 . S
N80 C78 1.375 . S
N80 C79 1.347 . S
C81 C84 1.365 . S
C81 N86 1.328 . S
C81 H87 0.929 . S
C82 C83 1.362 . S
C82 C85 1.378 . S
C82 H97 0.929 . S
C83 C82 1.362 . S
C83 C84 1.366 . S
C84 C81 1.365 . S
C84 C83 1.366 . S
C84 H98 0.930 . S
C85 C82 1.378 . S
C85 N86 1.315 . S
C85 H88 0.930 . S
N86 Co66 2.194 . S
N86 C81 1.328 . S
N86 C85 1.315 . S
H87 C81 0.929 . S
H88 C85 0.930 . S
H89 C77 0.929 . S
H90 C79 0.929 . S
O91 Co66 2.351 . S
O91 C94 1.244 . S
O92 Co66 2.155 . S
O92 C94 1.240 . S
O93 Co66 2.096 . S
O93 C74 1.247 . S
C94 O91 1.244 . S
C94 O92 1.240 . S
H95 C69 0.931 . S
H96 C78 0.931 . S
H97 C82 0.929 . S
H98 C84 0.930 . S
Co99 N103 2.148 . S
Co99 N109 2.128 . S
Co99 N119 2.194 . S
Co99 O124 2.351 . S
Co99 O125 2.155 . S
Co99 O126 2.096 . S
C100 N103 1.301 . S
C100 N104 1.328 . S
C100 H105 0.930 . S
C101 C102 1.333 . S
C101 N103 1.317 . S
C101 H106 0.930 . S
C102 C101 1.333 . S
C102 N104 1.350 . S
C102 H128 0.931 . S
N103 Co99 2.148 . S
N103 C100 1.301 . S
N103 C101 1.317 . S
N104 C100 1.328 . S
N104 C102 1.350 . S
H105 C100 0.930 . S
H106 C101 0.930 . S
C107 O108 1.224 . S
C107 O126 1.247 . S
O108 C107 1.224 . S
N109 Co99 2.128 . S
N109 C110 1.355 . S
N109 C112 1.311 . S
C110 N109 1.355 . S
C110 C111 1.363 . S
C110 H122 0.929 . S
C111 C110 1.363 . S
C111 N113 1.375 . S
C111 H129 0.931 . S
C112 N109 1.311 . S
C112 N113 1.347 . S
C112 H123 0.929 . S
N113 C111 1.375 . S
N113 C112 1.347 . S
C114 C117 1.365 . S
C114 N119 1.328 . S
C114 H120 0.929 . S
C115 C116 1.362 . S
C115 C118 1.378 . S
C115 H130 0.929 . S
C116 C115 1.362 . S
C116 C117 1.366 . S
C117 C114 1.365 . S
C117 C116 1.366 . S
C117 H131 0.930 . S
C118 C115 1.378 . S
C118 N119 1.315 . S
C118 H121 0.930 . S
N119 Co99 2.194 . S
N119 C114 1.328 . S
N119 C118 1.315 . S
H120 C114 0.929 . S
H121 C118 0.930 . S
H122 C110 0.929 . S
H123 C112 0.929 . S
O124 Co99 2.351 . S
O124 C127 1.244 . S
O125 Co99 2.155 . S
O125 C127 1.240 . S
O126 Co99 2.096 . S
O126 C107 1.247 . S
C127 O124 1.244 . S
C127 O125 1.240 . S
H128 C102 0.931 . S
H129 C111 0.931 . S
H130 C115 0.929 . S
H131 C117 0.930 . S
Co132 N136 2.148 . S
Co132 N142 2.128 . S
Co132 N152 2.194 . S
Co132 O157 2.351 . S
Co132 O158 2.155 . S
Co132 O159 2.096 . S
C133 N136 1.301 . S
C133 N137 1.328 . S
C133 H138 0.930 . S
C134 C135 1.333 . S
C134 N136 1.317 . S
C134 H139 0.930 . S
C135 C134 1.333 . S
C135 N137 1.350 . S
C135 H161 0.931 . S
N136 Co132 2.148 . S
N136 C133 1.301 . S
N136 C134 1.317 . S
N137 C133 1.328 . S
N137 C135 1.350 . S
H138 C133 0.930 . S
H139 C134 0.930 . S
C140 O141 1.224 . S
C140 O159 1.247 . S
O141 C140 1.224 . S
N142 Co132 2.128 . S
N142 C143 1.355 . S
N142 C145 1.311 . S
C143 N142 1.355 . S
C143 C144 1.363 . S
C143 H155 0.929 . S
C144 C143 1.363 . S
C144 N146 1.375 . S
C144 H162 0.931 . S
C145 N142 1.311 . S
C145 N146 1.347 . S
C145 H156 0.929 . S
N146 C144 1.375 . S
N146 C145 1.347 . S
C147 C150 1.365 . S
C147 N152 1.328 . S
C147 H153 0.929 . S
C148 C149 1.362 . S
C148 C151 1.378 . S
C148 H163 0.929 . S
C149 C148 1.362 . S
C149 C150 1.366 . S
C150 C147 1.365 . S
C150 C149 1.366 . S
C150 H164 0.930 . S
C151 C148 1.378 . S
C151 N152 1.315 . S
C151 H154 0.930 . S
N152 Co132 2.194 . S
N152 C147 1.328 . S
N152 C151 1.315 . S
H153 C147 0.929 . S
H154 C151 0.930 . S
H155 C143 0.929 . S
H156 C145 0.929 . S
O157 Co132 2.351 . S
O157 C160 1.244 . S
O158 Co132 2.155 . S
O158 C160 1.240 . S
O159 Co132 2.096 . S
O159 C140 1.247 . S
C160 O157 1.244 . S
C160 O158 1.240 . S
H161 C135 0.931 . S
H162 C144 0.931 . S
H163 C148 0.929 . S
H164 C150 0.930 . S
Co165 N169 2.148 . S
Co165 N175 2.128 . S
Co165 N185 2.194 . S
Co165 O190 2.351 . S
Co165 O191 2.155 . S
Co165 O192 2.096 . S
C166 N169 1.301 . S
C166 N170 1.328 . S
C166 H171 0.930 . S
C167 C168 1.333 . S
C167 N169 1.317 . S
C167 H172 0.930 . S
C168 C167 1.333 . S
C168 N170 1.350 . S
C168 H194 0.931 . S
N169 Co165 2.148 . S
N169 C166 1.301 . S
N169 C167 1.317 . S
N170 C166 1.328 . S
N170 C168 1.350 . S
H171 C166 0.930 . S
H172 C167 0.930 . S
C173 O174 1.224 . S
C173 O192 1.247 . S
O174 C173 1.224 . S
N175 Co165 2.128 . S
N175 C176 1.355 . S
N175 C178 1.311 . S
C176 N175 1.355 . S
C176 C177 1.363 . S
C176 H188 0.929 . S
C177 C176 1.363 . S
C177 N179 1.375 . S
C177 H195 0.931 . S
C178 N175 1.311 . S
C178 N179 1.347 . S
C178 H189 0.929 . S
N179 C177 1.375 . S
N179 C178 1.347 . S
C180 C183 1.365 . S
C180 N185 1.328 . S
C180 H186 0.929 . S
C181 C182 1.362 . S
C181 C184 1.378 . S
C181 H196 0.929 . S
C182 C181 1.362 . S
C182 C183 1.366 . S
C183 C180 1.365 . S
C183 C182 1.366 . S
C183 H197 0.930 . S
C184 C181 1.378 . S
C184 N185 1.315 . S
C184 H187 0.930 . S
N185 Co165 2.194 . S
N185 C180 1.328 . S
N185 C184 1.315 . S
H186 C180 0.929 . S
H187 C184 0.930 . S
H188 C176 0.929 . S
H189 C178 0.929 . S
O190 Co165 2.351 . S
O190 C193 1.244 . S
O191 Co165 2.155 . S
O191 C193 1.240 . S
O192 Co165 2.096 . S
O192 C173 1.247 . S
C193 O190 1.244 . S
C193 O191 1.240 . S
H194 C168 0.931 . S
H195 C177 0.931 . S
H196 C181 0.929 . S
H197 C183 0.930 . S
Co198 N202 2.148 . S
Co198 N208 2.128 . S
Co198 N218 2.194 . S
Co198 O223 2.351 . S
Co198 O224 2.155 . S
Co198 O225 2.096 . S
C199 N202 1.301 . S
C199 N203 1.328 1_556 S
C199 H204 0.930 . S
C200 C201 1.333 . S
C200 N202 1.317 . S
C200 H205 0.930 . S
C201 C200 1.333 . S
C201 N203 1.350 1_556 S
C201 H227 0.931 1_556 S
N202 Co198 2.148 . S
N202 C199 1.301 . S
N202 C200 1.317 . S
N203 C199 1.328 1_554 S
N203 C201 1.350 1_554 S
H204 C199 0.930 . S
H205 C200 0.930 . S
C206 O207 1.224 . S
C206 O225 1.247 . S
O207 C206 1.224 . S
N208 Co198 2.128 . S
N208 C209 1.355 . S
N208 C211 1.311 . S
C209 N208 1.355 . S
C209 C210 1.363 . S
C209 H221 0.929 . S
C210 C209 1.363 . S
C210 N212 1.375 . S
C210 H228 0.931 . S
C211 N208 1.311 . S
C211 N212 1.347 . S
C211 H222 0.929 . S
N212 C210 1.375 . S
N212 C211 1.347 . S
C213 C216 1.365 . S
C213 N218 1.328 . S
C213 H219 0.929 . S
C214 C215 1.362 . S
C214 C217 1.378 . S
C214 H229 0.929 . S
C215 C214 1.362 . S
C215 C216 1.366 . S
C216 C213 1.365 . S
C216 C215 1.366 . S
C216 H230 0.930 . S
C217 C214 1.378 . S
C217 N218 1.315 . S
C217 H220 0.930 . S
N218 Co198 2.194 . S
N218 C213 1.328 . S
N218 C217 1.315 . S
H219 C213 0.929 . S
H220 C217 0.930 . S
H221 C209 0.929 . S
H222 C211 0.929 . S
O223 Co198 2.351 . S
O223 C226 1.244 . S
O224 Co198 2.155 . S
O224 C226 1.240 . S
O225 Co198 2.096 . S
O225 C206 1.247 . S
C226 O223 1.244 . S
C226 O224 1.240 . S
H227 C201 0.931 1_554 S
H228 C210 0.931 . S
H229 C214 0.929 . S
H230 C216 0.930 . S
Co231 N235 2.148 . S
Co231 N241 2.128 . S
Co231 N251 2.194 . S
Co231 O256 2.351 . S
Co231 O257 2.155 . S
Co231 O258 2.096 . S
C232 N235 1.301 . S
C232 N236 1.328 1_556 S
C232 H237 0.930 . S
C233 C234 1.333 . S
C233 N235 1.317 . S
C233 H238 0.930 . S
C234 C233 1.333 . S
C234 N236 1.350 1_556 S
C234 H260 0.931 1_556 S
N235 Co231 2.148 . S
N235 C232 1.301 . S
N235 C233 1.317 . S
N236 C232 1.328 1_554 S
N236 C234 1.350 1_554 S
H237 C232 0.930 . S
H238 C233 0.930 . S
C239 O240 1.224 . S
C239 O258 1.247 . S
O240 C239 1.224 . S
N241 Co231 2.128 . S
N241 C242 1.355 . S
N241 C244 1.311 . S
C242 N241 1.355 . S
C242 C243 1.363 . S
C242 H254 0.929 . S
C243 C242 1.363 . S
C243 N245 1.375 . S
C243 H261 0.931 . S
C244 N241 1.311 . S
C244 N245 1.347 . S
C244 H255 0.929 . S
N245 C243 1.375 . S
N245 C244 1.347 . S
C246 C249 1.365 . S
C246 N251 1.328 . S
C246 H252 0.929 . S
C247 C248 1.362 . S
C247 C250 1.378 . S
C247 H262 0.929 . S
C248 C247 1.362 . S
C248 C249 1.366 . S
C249 C246 1.365 . S
C249 C248 1.366 . S
C249 H263 0.930 . S
C250 C247 1.378 . S
C250 N251 1.315 . S
C250 H253 0.930 . S
N251 Co231 2.194 . S
N251 C246 1.328 . S
N251 C250 1.315 . S
H252 C246 0.929 . S
H253 C250 0.930 . S
H254 C242 0.929 . S
H255 C244 0.929 . S
O256 Co231 2.351 . S
O256 C259 1.244 . S
O257 Co231 2.155 . S
O257 C259 1.240 . S
O258 Co231 2.096 . S
O258 C239 1.247 . S
C259 O256 1.244 . S
C259 O257 1.240 . S
H260 C234 0.931 1_554 S
H261 C243 0.931 . S
H262 C247 0.929 . S
H263 C249 0.930 . S
Co264 N268 2.148 . S
Co264 N274 2.128 . S
Co264 N284 2.194 . S
Co264 O289 2.351 . S
Co264 O290 2.155 . S
Co264 O291 2.096 . S
C265 N268 1.301 . S
C265 N269 1.328 1_556 S
C265 H270 0.930 . S
C266 C267 1.333 . S
C266 N268 1.317 . S
C266 H271 0.930 . S
C267 C266 1.333 . S
C267 N269 1.350 1_556 S
C267 H293 0.931 1_556 S
N268 Co264 2.148 . S
N268 C265 1.301 . S
N268 C266 1.317 . S
N269 C265 1.328 1_554 S
N269 C267 1.350 1_554 S
H270 C265 0.930 . S
H271 C266 0.930 . S
C272 O273 1.224 . S
C272 O291 1.247 . S
O273 C272 1.224 . S
N274 Co264 2.128 . S
N274 C275 1.355 . S
N274 C277 1.311 . S
C275 N274 1.355 . S
C275 C276 1.363 . S
C275 H287 0.929 . S
C276 C275 1.363 . S
C276 N278 1.375 . S
C276 H294 0.931 . S
C277 N274 1.311 . S
C277 N278 1.347 . S
C277 H288 0.929 . S
N278 C276 1.375 . S
N278 C277 1.347 . S
C279 C282 1.365 . S
C279 N284 1.328 . S
C279 H285 0.929 . S
C280 C281 1.362 . S
C280 C283 1.378 . S
C280 H295 0.929 . S
C281 C280 1.362 . S
C281 C282 1.366 . S
C282 C279 1.365 . S
C282 C281 1.366 . S
C282 H296 0.930 . S
C283 C280 1.378 . S
C283 N284 1.315 . S
C283 H286 0.930 . S
N284 Co264 2.194 . S
N284 C279 1.328 . S
N284 C283 1.315 . S
H285 C279 0.929 . S
H286 C283 0.930 . S
H287 C275 0.929 . S
H288 C277 0.929 . S
O289 Co264 2.351 . S
O289 C292 1.244 . S
O290 Co264 2.155 . S
O290 C292 1.240 . S
O291 Co264 2.096 . S
O291 C272 1.247 . S
C292 O289 1.244 . S
C292 O290 1.240 . S
H293 C267 0.931 1_554 S
H294 C276 0.931 . S
H295 C280 0.929 . S
H296 C282 0.930 . S
Co297 N301 2.148 . S
Co297 N307 2.128 . S
Co297 N317 2.194 . S
Co297 O322 2.351 . S
Co297 O323 2.155 . S
Co297 O324 2.096 . S
C298 N301 1.301 . S
C298 N302 1.328 . S
C298 H303 0.930 . S
C299 C300 1.333 . S
C299 N301 1.317 . S
C299 H304 0.930 . S
C300 C299 1.333 . S
C300 N302 1.350 . S
C300 H326 0.931 . S
N301 Co297 2.148 . S
N301 C298 1.301 . S
N301 C299 1.317 . S
N302 C298 1.328 . S
N302 C300 1.350 . S
H303 C298 0.930 . S
H304 C299 0.930 . S
C305 O306 1.224 . S
C305 O324 1.247 . S
O306 C305 1.224 . S
N307 Co297 2.128 . S
N307 C308 1.355 1_556 S
N307 C310 1.311 1_556 S
C308 N307 1.355 1_554 S
C308 C309 1.363 . S
C308 H320 0.929 1_554 S
C309 C308 1.363 . S
C309 N311 1.375 . S
C309 H327 0.931 . S
C310 N307 1.311 1_554 S
C310 N311 1.347 . S
C310 H321 0.929 . S
N311 C309 1.375 . S
N311 C310 1.347 . S
C312 C315 1.365 . S
C312 N317 1.328 . S
C312 H318 0.929 . S
C313 C314 1.362 . S
C313 C316 1.378 . S
C313 H328 0.929 . S
C314 C313 1.362 . S
C314 C315 1.366 . S
C315 C312 1.365 . S
C315 C314 1.366 . S
C315 H329 0.930 . S
C316 C313 1.378 . S
C316 N317 1.315 . S
C316 H319 0.930 . S
N317 Co297 2.194 . S
N317 C312 1.328 . S
N317 C316 1.315 . S
H318 C312 0.929 . S
H319 C316 0.930 . S
H320 C308 0.929 1_556 S
H321 C310 0.929 . S
O322 Co297 2.351 . S
O322 C325 1.244 . S
O323 Co297 2.155 . S
O323 C325 1.240 . S
O324 Co297 2.096 . S
O324 C305 1.247 . S
C325 O322 1.244 . S
C325 O323 1.240 . S
H326 C300 0.931 . S
H327 C309 0.931 . S
H328 C313 0.929 . S
H329 C315 0.930 . S
Co330 N334 2.148 . S
Co330 N340 2.128 . S
Co330 N350 2.194 . S
Co330 O355 2.351 . S
Co330 O356 2.155 . S
Co330 O357 2.096 . S
C331 N334 1.301 . S
C331 N335 1.328 . S
C331 H336 0.930 . S
C332 C333 1.333 . S
C332 N334 1.317 . S
C332 H337 0.930 . S
C333 C332 1.333 . S
C333 N335 1.350 . S
C333 H359 0.931 . S
N334 Co330 2.148 . S
N334 C331 1.301 . S
N334 C332 1.317 . S
N335 C331 1.328 . S
N335 C333 1.350 . S
H336 C331 0.930 . S
H337 C332 0.930 . S
C338 O339 1.224 . S
C338 O357 1.247 . S
O339 C338 1.224 . S
N340 Co330 2.128 . S
N340 C341 1.355 1_556 S
N340 C343 1.311 1_556 S
C341 N340 1.355 1_554 S
C341 C342 1.363 . S
C341 H353 0.929 1_554 S
C342 C341 1.363 . S
C342 N344 1.375 . S
C342 H360 0.931 . S
C343 N340 1.311 1_554 S
C343 N344 1.347 . S
C343 H354 0.929 . S
N344 C342 1.375 . S
N344 C343 1.347 . S
C345 C348 1.365 . S
C345 N350 1.328 . S
C345 H351 0.929 . S
C346 C347 1.362 . S
C346 C349 1.378 . S
C346 H361 0.929 . S
C347 C346 1.362 . S
C347 C348 1.366 . S
C348 C345 1.365 . S
C348 C347 1.366 . S
C348 H362 0.930 . S
C349 C346 1.378 . S
C349 N350 1.315 . S
C349 H352 0.930 . S
N350 Co330 2.194 . S
N350 C345 1.328 . S
N350 C349 1.315 . S
H351 C345 0.929 . S
H352 C349 0.930 . S
H353 C341 0.929 1_556 S
H354 C343 0.929 . S
O355 Co330 2.351 . S
O355 C358 1.244 . S
O356 Co330 2.155 . S
O356 C358 1.240 . S
O357 Co330 2.096 . S
O357 C338 1.247 . S
C358 O355 1.244 . S
C358 O356 1.240 . S
H359 C333 0.931 . S
H360 C342 0.931 . S
H361 C346 0.929 . S
H362 C348 0.930 . S
Co363 N367 2.148 . S
Co363 N373 2.128 . S
Co363 N383 2.194 . S
Co363 O388 2.351 . S
Co363 O389 2.155 . S
Co363 O390 2.096 . S
C364 N367 1.301 . S
C364 N368 1.328 . S
C364 H369 0.930 . S
C365 C366 1.333 . S
C365 N367 1.317 . S
C365 H370 0.930 . S
C366 C365 1.333 . S
C366 N368 1.350 . S
C366 H392 0.931 . S
N367 Co363 2.148 . S
N367 C364 1.301 . S
N367 C365 1.317 . S
N368 C364 1.328 . S
N368 C366 1.350 . S
H369 C364 0.930 . S
H370 C365 0.930 . S
C371 O372 1.224 . S
C371 O390 1.247 . S
O372 C371 1.224 . S
N373 Co363 2.128 . S
N373 C374 1.355 1_556 S
N373 C376 1.311 1_556 S
C374 N373 1.355 1_554 S
C374 C375 1.363 . S
C374 H386 0.929 1_554 S
C375 C374 1.363 . S
C375 N377 1.375 . S
C375 H393 0.931 . S
C376 N373 1.311 1_554 S
C376 N377 1.347 . S
C376 H387 0.929 . S
N377 C375 1.375 . S
N377 C376 1.347 . S
C378 C381 1.365 . S
C378 N383 1.328 . S
C378 H384 0.929 . S
C379 C380 1.362 . S
C379 C382 1.378 . S
C379 H394 0.929 . S
C380 C379 1.362 . S
C380 C381 1.366 . S
C381 C378 1.365 . S
C381 C380 1.366 . S
C381 H395 0.930 . S
C382 C379 1.378 . S
C382 N383 1.315 . S
C382 H385 0.930 . S
N383 Co363 2.194 . S
N383 C378 1.328 . S
N383 C382 1.315 . S
H384 C378 0.929 . S
H385 C382 0.930 . S
H386 C374 0.929 1_556 S
H387 C376 0.929 . S
O388 Co363 2.351 . S
O388 C391 1.244 . S
O389 Co363 2.155 . S
O389 C391 1.240 . S
O390 Co363 2.096 . S
O390 C371 1.247 . S
C391 O388 1.244 . S
C391 O389 1.240 . S
H392 C366 0.931 . S
H393 C375 0.931 . S
H394 C379 0.929 . S
H395 C381 0.930 . S
Co396 N400 2.148 . S
Co396 N406 2.128 . S
Co396 N416 2.194 . S
Co396 O421 2.351 . S
Co396 O422 2.155 . S
Co396 O423 2.096 . S
C397 N400 1.301 . S
C397 N401 1.328 . S
C397 H402 0.930 . S
C398 C399 1.333 . S
C398 N400 1.317 . S
C398 H403 0.930 . S
C399 C398 1.333 . S
C399 N401 1.350 . S
C399 H425 0.931 . S
N400 Co396 2.148 . S
N400 C397 1.301 . S
N400 C398 1.317 . S
N401 C397 1.328 . S
N401 C399 1.350 . S
H402 C397 0.930 . S
H403 C398 0.930 . S
C404 O405 1.224 . S
C404 O423 1.247 . S
O405 C404 1.224 . S
N406 Co396 2.128 . S
N406 C407 1.355 1_554 S
N406 C409 1.311 1_554 S
C407 N406 1.355 1_556 S
C407 C408 1.363 . S
C407 H419 0.929 1_556 S
C408 C407 1.363 . S
C408 N410 1.375 . S
C408 H426 0.931 . S
C409 N406 1.311 1_556 S
C409 N410 1.347 . S
C409 H420 0.929 . S
N410 C408 1.375 . S
N410 C409 1.347 . S
C411 C414 1.365 . S
C411 N416 1.328 . S
C411 H417 0.929 . S
C412 C413 1.362 . S
C412 C415 1.378 . S
C412 H427 0.929 . S
C413 C412 1.362 . S
C413 C414 1.366 . S
C414 C411 1.365 . S
C414 C413 1.366 . S
C414 H428 0.930 . S
C415 C412 1.378 . S
C415 N416 1.315 . S
C415 H418 0.930 . S
N416 Co396 2.194 . S
N416 C411 1.328 . S
N416 C415 1.315 . S
H417 C411 0.929 . S
H418 C415 0.930 . S
H419 C407 0.929 1_554 S
H420 C409 0.929 . S
O421 Co396 2.351 . S
O421 C424 1.244 . S
O422 Co396 2.155 . S
O422 C424 1.240 . S
O423 Co396 2.096 . S
O423 C404 1.247 . S
C424 O421 1.244 . S
C424 O422 1.240 . S
H425 C399 0.931 . S
H426 C408 0.931 . S
H427 C412 0.929 . S
H428 C414 0.930 . S
Co429 N433 2.148 . S
Co429 N439 2.128 . S
Co429 N449 2.194 . S
Co429 O454 2.351 . S
Co429 O455 2.155 . S
Co429 O456 2.096 . S
C430 N433 1.301 . S
C430 N434 1.328 . S
C430 H435 0.930 . S
C431 C432 1.333 . S
C431 N433 1.317 . S
C431 H436 0.930 . S
C432 C431 1.333 . S
C432 N434 1.350 . S
C432 H458 0.931 . S
N433 Co429 2.148 . S
N433 C430 1.301 . S
N433 C431 1.317 . S
N434 C430 1.328 . S
N434 C432 1.350 . S
H435 C430 0.930 . S
H436 C431 0.930 . S
C437 O438 1.224 . S
C437 O456 1.247 . S
O438 C437 1.224 . S
N439 Co429 2.128 . S
N439 C440 1.355 1_554 S
N439 C442 1.311 1_554 S
C440 N439 1.355 1_556 S
C440 C441 1.363 . S
C440 H452 0.929 1_556 S
C441 C440 1.363 . S
C441 N443 1.375 . S
C441 H459 0.931 . S
C442 N439 1.311 1_556 S
C442 N443 1.347 . S
C442 H453 0.929 . S
N443 C441 1.375 . S
N443 C442 1.347 . S
C444 C447 1.365 . S
C444 N449 1.328 . S
C444 H450 0.929 . S
C445 C446 1.362 . S
C445 C448 1.378 . S
C445 H460 0.929 . S
C446 C445 1.362 . S
C446 C447 1.366 . S
C447 C444 1.365 . S
C447 C446 1.366 . S
C447 H461 0.930 . S
C448 C445 1.378 . S
C448 N449 1.315 . S
C448 H451 0.930 . S
N449 Co429 2.194 . S
N449 C444 1.328 . S
N449 C448 1.315 . S
H450 C444 0.929 . S
H451 C448 0.930 . S
H452 C440 0.929 1_554 S
H453 C442 0.929 . S
O454 Co429 2.351 . S
O454 C457 1.244 . S
O455 Co429 2.155 . S
O455 C457 1.240 . S
O456 Co429 2.096 . S
O456 C437 1.247 . S
C457 O454 1.244 . S
C457 O455 1.240 . S
H458 C432 0.931 . S
H459 C441 0.931 . S
H460 C445 0.929 . S
H461 C447 0.930 . S
Co462 N466 2.148 . S
Co462 N472 2.128 . S
Co462 N482 2.194 . S
Co462 O487 2.351 . S
Co462 O488 2.155 . S
Co462 O489 2.096 . S
C463 N466 1.301 . S
C463 N467 1.328 . S
C463 H468 0.930 . S
C464 C465 1.333 . S
C464 N466 1.317 . S
C464 H469 0.930 . S
C465 C464 1.333 . S
C465 N467 1.350 . S
C465 H491 0.931 . S
N466 Co462 2.148 . S
N466 C463 1.301 . S
N466 C464 1.317 . S
N467 C463 1.328 . S
N467 C465 1.350 . S
H468 C463 0.930 . S
H469 C464 0.930 . S
C470 O471 1.224 . S
C470 O489 1.247 . S
O471 C470 1.224 . S
N472 Co462 2.128 . S
N472 C473 1.355 1_554 S
N472 C475 1.311 1_554 S
C473 N472 1.355 1_556 S
C473 C474 1.363 . S
C473 H485 0.929 1_556 S
C474 C473 1.363 . S
C474 N476 1.375 . S
C474 H492 0.931 . S
C475 N472 1.311 1_556 S
C475 N476 1.347 . S
C475 H486 0.929 . S
N476 C474 1.375 . S
N476 C475 1.347 . S
C477 C480 1.365 . S
C477 N482 1.328 . S
C477 H483 0.929 . S
C478 C479 1.362 . S
C478 C481 1.378 . S
C478 H493 0.929 . S
C479 C478 1.362 . S
C479 C480 1.366 . S
C480 C477 1.365 . S
C480 C479 1.366 . S
C480 H494 0.930 . S
C481 C478 1.378 . S
C481 N482 1.315 . S
C481 H484 0.930 . S
N482 Co462 2.194 . S
N482 C477 1.328 . S
N482 C481 1.315 . S
H483 C477 0.929 . S
H484 C481 0.930 . S
H485 C473 0.929 1_554 S
H486 C475 0.929 . S
O487 Co462 2.351 . S
O487 C490 1.244 . S
O488 Co462 2.155 . S
O488 C490 1.240 . S
O489 Co462 2.096 . S
O489 C470 1.247 . S
C490 O487 1.244 . S
C490 O488 1.240 . S
H491 C465 0.931 . S
H492 C474 0.931 . S
H493 C478 0.929 . S
H494 C480 0.930 . S
Co495 N499 2.148 . S
Co495 N505 2.128 . S
Co495 N515 2.194 . S
Co495 O520 2.351 . S
Co495 O521 2.155 . S
Co495 O522 2.096 . S
C496 N499 1.301 . S
C496 N500 1.328 1_554 S
C496 H501 0.930 . S
C497 C498 1.333 . S
C497 N499 1.317 . S
C497 H502 0.930 . S
C498 C497 1.333 . S
C498 N500 1.350 1_554 S
C498 H524 0.931 1_554 S
N499 Co495 2.148 . S
N499 C496 1.301 . S
N499 C497 1.317 . S
N500 C496 1.328 1_556 S
N500 C498 1.350 1_556 S
H501 C496 0.930 . S
H502 C497 0.930 . S
C503 O504 1.224 . S
C503 O522 1.247 . S
O504 C503 1.224 . S
N505 Co495 2.128 . S
N505 C506 1.355 . S
N505 C508 1.311 . S
C506 N505 1.355 . S
C506 C507 1.363 . S
C506 H518 0.929 . S
C507 C506 1.363 . S
C507 N509 1.375 . S
C507 H525 0.931 . S
C508 N505 1.311 . S
C508 N509 1.347 . S
C508 H519 0.929 . S
N509 C507 1.375 . S
N509 C508 1.347 . S
C510 C513 1.365 . S
C510 N515 1.328 . S
C510 H516 0.929 . S
C511 C512 1.362 . S
C511 C514 1.378 . S
C511 H526 0.929 . S
C512 C511 1.362 . S
C512 C513 1.366 . S
C513 C510 1.365 . S
C513 C512 1.366 . S
C513 H527 0.930 . S
C514 C511 1.378 . S
C514 N515 1.315 . S
C514 H517 0.930 . S
N515 Co495 2.194 . S
N515 C510 1.328 . S
N515 C514 1.315 . S
H516 C510 0.929 . S
H517 C514 0.930 . S
H518 C506 0.929 . S
H519 C508 0.929 . S
O520 Co495 2.351 . S
O520 C523 1.244 . S
O521 Co495 2.155 . S
O521 C523 1.240 . S
O522 Co495 2.096 . S
O522 C503 1.247 . S
C523 O520 1.244 . S
C523 O521 1.240 . S
H524 C498 0.931 1_556 S
H525 C507 0.931 . S
H526 C511 0.929 . S
H527 C513 0.930 . S
Co528 N532 2.148 . S
Co528 N538 2.128 . S
Co528 N548 2.194 . S
Co528 O553 2.351 . S
Co528 O554 2.155 . S
Co528 O555 2.096 . S
C529 N532 1.301 . S
C529 N533 1.328 1_554 S
C529 H534 0.930 . S
C530 C531 1.333 . S
C530 N532 1.317 . S
C530 H535 0.930 . S
C531 C530 1.333 . S
C531 N533 1.350 1_554 S
C531 H557 0.931 1_554 S
N532 Co528 2.148 . S
N532 C529 1.301 . S
N532 C530 1.317 . S
N533 C529 1.328 1_556 S
N533 C531 1.350 1_556 S
H534 C529 0.930 . S
H535 C530 0.930 . S
C536 O537 1.224 . S
C536 O555 1.247 . S
O537 C536 1.224 . S
N538 Co528 2.128 . S
N538 C539 1.355 . S
N538 C541 1.311 . S
C539 N538 1.355 . S
C539 C540 1.363 . S
C539 H551 0.929 . S
C540 C539 1.363 . S
C540 N542 1.375 . S
C540 H558 0.931 . S
C541 N538 1.311 . S
C541 N542 1.347 . S
C541 H552 0.929 . S
N542 C540 1.375 . S
N542 C541 1.347 . S
C543 C546 1.365 . S
C543 N548 1.328 . S
C543 H549 0.929 . S
C544 C545 1.362 . S
C544 C547 1.378 . S
C544 H559 0.929 . S
C545 C544 1.362 . S
C545 C546 1.366 . S
C546 C543 1.365 . S
C546 C545 1.366 . S
C546 H560 0.930 . S
C547 C544 1.378 . S
C547 N548 1.315 . S
C547 H550 0.930 . S
N548 Co528 2.194 . S
N548 C543 1.328 . S
N548 C547 1.315 . S
H549 C543 0.929 . S
H550 C547 0.930 . S
H551 C539 0.929 . S
H552 C541 0.929 . S
O553 Co528 2.351 . S
O553 C556 1.244 . S
O554 Co528 2.155 . S
O554 C556 1.240 . S
O555 Co528 2.096 . S
O555 C536 1.247 . S
C556 O553 1.244 . S
C556 O554 1.240 . S
H557 C531 0.931 1_556 S
H558 C540 0.931 . S
H559 C544 0.929 . S
H560 C546 0.930 . S
Co561 N565 2.148 . S
Co561 N571 2.128 . S
Co561 N581 2.194 . S
Co561 O586 2.351 . S
Co561 O587 2.155 . S
Co561 O588 2.096 . S
C562 N565 1.301 . S
C562 N566 1.328 1_554 S
C562 H567 0.930 . S
C563 C564 1.333 . S
C563 N565 1.317 . S
C563 H568 0.930 . S
C564 C563 1.333 . S
C564 N566 1.350 1_554 S
C564 H590 0.931 1_554 S
N565 Co561 2.148 . S
N565 C562 1.301 . S
N565 C563 1.317 . S
N566 C562 1.328 1_556 S
N566 C564 1.350 1_556 S
H567 C562 0.930 . S
H568 C563 0.930 . S
C569 O570 1.224 . S
C569 O588 1.247 . S
O570 C569 1.224 . S
N571 Co561 2.128 . S
N571 C572 1.355 . S
N571 C574 1.311 . S
C572 N571 1.355 . S
C572 C573 1.363 . S
C572 H584 0.929 . S
C573 C572 1.363 . S
C573 N575 1.375 . S
C573 H591 0.931 . S
C574 N571 1.311 . S
C574 N575 1.347 . S
C574 H585 0.929 . S
N575 C573 1.375 . S
N575 C574 1.347 . S
C576 C579 1.365 . S
C576 N581 1.328 . S
C576 H582 0.929 . S
C577 C578 1.362 . S
C577 C580 1.378 . S
C577 H592 0.929 . S
C578 C577 1.362 . S
C578 C579 1.366 . S
C579 C576 1.365 . S
C579 C578 1.366 . S
C579 H593 0.930 . S
C580 C577 1.378 . S
C580 N581 1.315 . S
C580 H583 0.930 . S
N581 Co561 2.194 . S
N581 C576 1.328 . S
N581 C580 1.315 . S
H582 C576 0.929 . S
H583 C580 0.930 . S
H584 C572 0.929 . S
H585 C574 0.929 . S
O586 Co561 2.351 . S
O586 C589 1.244 . S
O587 Co561 2.155 . S
O587 C589 1.240 . S
O588 Co561 2.096 . S
O588 C569 1.247 . S
C589 O586 1.244 . S
C589 O587 1.240 . S
H590 C564 0.931 1_556 S
H591 C573 0.931 . S
H592 C577 0.929 . S
H593 C579 0.930 . S
H594 C600 0.930 . S
H595 C604 0.930 . S
H596 C609 0.929 . S
H597 C607 0.929 . S
H598 C602 0.929 . S
H599 C608 0.929 . S
C600 H594 0.930 . S
C600 C601 1.367 . S
C600 C608 1.378 . S
C601 C600 1.367 . S
C601 C609 1.433 . S
C602 H598 0.929 . S
C602 C604 1.378 . S
C602 C606 1.350 . S
C603 C606 1.463 . S
C603 C608 1.350 . S
C603 N611 1.427 . S
C604 H595 0.930 . S
C604 C602 1.378 . S
C604 C605 1.367 . S
C605 C604 1.367 . S
C605 C607 1.433 . S
C606 C602 1.350 . S
C606 C603 1.463 . S
C606 N610 1.427 . S
C607 H597 0.929 . S
C607 C605 1.433 . S
C607 N610 1.384 . S
C608 H599 0.929 . S
C608 C600 1.378 . S
C608 C603 1.350 . S
C609 H596 0.929 . S
C609 C601 1.433 . S
C609 N611 1.384 . S
N610 C606 1.427 . S
N610 C607 1.384 . S
N611 C603 1.427 . S
N611 C609 1.384 . S
H612 C618 0.930 . S
H613 C622 0.930 . S
H614 C627 0.929 . S
H615 C625 0.929 . S
H616 C620 0.929 . S
H617 C626 0.929 . S
C618 H612 0.930 . S
C618 C619 1.367 . S
C618 C626 1.378 . S
C619 C618 1.367 . S
C619 C627 1.433 . S
C620 H616 0.929 . S
C620 C622 1.378 . S
C620 C624 1.350 . S
C621 C624 1.463 1_545 S
C621 C626 1.350 . S
C621 N629 1.427 . S
C622 H613 0.930 . S
C622 C620 1.378 . S
C622 C623 1.367 . S
C623 C622 1.367 . S
C623 C625 1.433 . S
C624 C620 1.350 . S
C624 C621 1.463 1_565 S
C624 N628 1.427 . S
C625 H615 0.929 . S
C625 C623 1.433 . S
C625 N628 1.384 . S
C626 H617 0.929 . S
C626 C618 1.378 . S
C626 C621 1.350 . S
C627 H614 0.929 . S
C627 C619 1.433 . S
C627 N629 1.384 . S
N628 C624 1.427 . S
N628 C625 1.384 . S
N629 C621 1.427 . S
N629 C627 1.384 . S
H630 C636 0.930 . S
H631 C640 0.930 . S
H632 C645 0.929 . S
H633 C643 0.929 . S
H634 C638 0.929 . S
H635 C644 0.929 . S
C636 H630 0.930 . S
C636 C637 1.367 . S
C636 C644 1.378 . S
C637 C636 1.367 . S
C637 C645 1.433 . S
C638 H634 0.929 . S
C638 C640 1.378 . S
C638 C642 1.350 . S
C639 C642 1.463 1_655 S
C639 C644 1.350 . S
C639 N647 1.427 . S
C640 H631 0.930 . S
C640 C638 1.378 . S
C640 C641 1.367 . S
C641 C640 1.367 . S
C641 C643 1.433 . S
C642 C638 1.350 . S
C642 C639 1.463 1_455 S
C642 N646 1.427 . S
C643 H633 0.929 . S
C643 C641 1.433 . S
C643 N646 1.384 . S
C644 H635 0.929 . S
C644 C636 1.378 . S
C644 C639 1.350 . S
C645 H632 0.929 . S
C645 C637 1.433 . S
C645 N647 1.384 . S
N646 C642 1.427 . S
N646 C643 1.384 . S
N647 C639 1.427 . S
N647 C645 1.384 . S
H648 C654 0.930 . S
H649 C658 0.930 . S
H650 C663 0.929 . S
H651 C661 0.929 . S
H652 C656 0.929 . S
H653 C662 0.929 . S
C654 H648 0.930 . S
C654 C655 1.367 . S
C654 C662 1.378 . S
C655 C654 1.367 . S
C655 C663 1.433 . S
C656 H652 0.929 . S
C656 C658 1.378 . S
C656 C660 1.350 . S
C657 C660 1.463 . S
C657 C662 1.350 . S
C657 N665 1.427 . S
C658 H649 0.930 . S
C658 C656 1.378 . S
C658 C659 1.367 . S
C659 C658 1.367 . S
C659 C661 1.433 . S
C660 C656 1.350 . S
C660 C657 1.463 . S
C660 N664 1.427 . S
C661 H651 0.929 . S
C661 C659 1.433 . S
C661 N664 1.384 . S
C662 H653 0.929 . S
C662 C654 1.378 . S
C662 C657 1.350 . S
C663 H650 0.929 . S
C663 C655 1.433 . S
C663 N665 1.384 . S
N664 C660 1.427 . S
N664 C661 1.384 . S
N665 C657 1.427 . S
N665 C663 1.384 . S
H666 C672 0.930 . S
H667 C676 0.930 . S
H668 C681 0.929 . S
H669 C679 0.929 . S
H670 C674 0.929 . S
H671 C680 0.929 . S
C672 H666 0.930 . S
C672 C673 1.367 . S
C672 C680 1.378 . S
C673 C672 1.367 . S
C673 C681 1.433 . S
C674 H670 0.929 . S
C674 C676 1.378 . S
C674 C678 1.350 . S
C675 C678 1.463 1_545 S
C675 C680 1.350 . S
C675 N683 1.427 . S
C676 H667 0.930 . S
C676 C674 1.378 . S
C676 C677 1.367 . S
C677 C676 1.367 . S
C677 C679 1.433 . S
C678 C674 1.350 . S
C678 C675 1.463 1_565 S
C678 N682 1.427 . S
C679 H669 0.929 . S
C679 C677 1.433 . S
C679 N682 1.384 . S
C680 H671 0.929 . S
C680 C672 1.378 . S
C680 C675 1.350 . S
C681 H668 0.929 . S
C681 C673 1.433 . S
C681 N683 1.384 . S
N682 C678 1.427 . S
N682 C679 1.384 . S
N683 C675 1.427 . S
N683 C681 1.384 . S
H684 C690 0.930 . S
H685 C694 0.930 . S
H686 C699 0.929 . S
H687 C697 0.929 . S
H688 C692 0.929 . S
H689 C698 0.929 . S
C690 H684 0.930 . S
C690 C691 1.367 . S
C690 C698 1.378 . S
C691 C690 1.367 . S
C691 C699 1.433 . S
C692 H688 0.929 . S
C692 C694 1.378 . S
C692 C696 1.350 . S
C693 C696 1.463 1_655 S
C693 C698 1.350 . S
C693 N701 1.427 . S
C694 H685 0.930 . S
C694 C692 1.378 . S
C694 C695 1.367 . S
C695 C694 1.367 . S
C695 C697 1.433 . S
C696 C692 1.350 . S
C696 C693 1.463 1_455 S
C696 N700 1.427 . S
C697 H687 0.929 . S
C697 C695 1.433 . S
C697 N700 1.384 . S
C698 H689 0.929 . S
C698 C690 1.378 . S
C698 C693 1.350 . S
C699 H686 0.929 . S
C699 C691 1.433 . S
C699 N701 1.384 . S
N700 C696 1.427 . S
N700 C697 1.384 . S
N701 C693 1.427 . S
N701 C699 1.384 . S
H702 C708 0.930 . S
H703 C712 0.930 . S
H704 C717 0.929 . S
H705 C715 0.929 . S
H706 C710 0.929 . S
H707 C716 0.929 . S
C708 H702 0.930 . S
C708 C709 1.367 . S
C708 C716 1.378 . S
C709 C708 1.367 . S
C709 C717 1.433 . S
C710 H706 0.929 . S
C710 C712 1.378 . S
C710 C714 1.350 . S
C711 C714 1.463 . S
C711 C716 1.350 . S
C711 N719 1.427 . S
C712 H703 0.930 . S
C712 C710 1.378 . S
C712 C713 1.367 . S
C713 C712 1.367 . S
C713 C715 1.433 . S
C714 C710 1.350 . S
C714 C711 1.463 . S
C714 N718 1.427 . S
C715 H705 0.929 . S
C715 C713 1.433 . S
C715 N718 1.384 . S
C716 H707 0.929 . S
C716 C708 1.378 . S
C716 C711 1.350 . S
C717 H704 0.929 . S
C717 C709 1.433 . S
C717 N719 1.384 . S
N718 C714 1.427 . S
N718 C715 1.384 . S
N719 C711 1.427 . S
N719 C717 1.384 . S
H720 C726 0.930 . S
H721 C730 0.930 . S
H722 C735 0.929 . S
H723 C733 0.929 . S
H724 C728 0.929 . S
H725 C734 0.929 . S
C726 H720 0.930 . S
C726 C727 1.367 . S
C726 C734 1.378 . S
C727 C726 1.367 . S
C727 C735 1.433 . S
C728 H724 0.929 . S
C728 C730 1.378 . S
C728 C732 1.350 . S
C729 C732 1.463 . S
C729 C734 1.350 . S
C729 N737 1.427 . S
C730 H721 0.930 . S
C730 C728 1.378 . S
C730 C731 1.367 . S
C731 C730 1.367 . S
C731 C733 1.433 . S
C732 C728 1.350 . S
C732 C729 1.463 . S
C732 N736 1.427 . S
C733 H723 0.929 . S
C733 C731 1.433 . S
C733 N736 1.384 . S
C734 H725 0.929 . S
C734 C726 1.378 . S
C734 C729 1.350 . S
C735 H722 0.929 . S
C735 C727 1.433 . S
C735 N737 1.384 . S
N736 C732 1.427 . S
N736 C733 1.384 . S
N737 C729 1.427 . S
N737 C735 1.384 . S
H738 C744 0.930 . S
H739 C748 0.930 . S
H740 C753 0.929 . S
H741 C751 0.929 . S
H742 C746 0.929 . S
H743 C752 0.929 . S
C744 H738 0.930 . S
C744 C745 1.367 . S
C744 C752 1.378 . S
C745 C744 1.367 . S
C745 C753 1.433 . S
C746 H742 0.929 . S
C746 C748 1.378 . S
C746 C750 1.350 . S
C747 C750 1.463 . S
C747 C752 1.350 . S
C747 N755 1.427 . S
C748 H739 0.930 . S
C748 C746 1.378 . S
C748 C749 1.367 . S
C749 C748 1.367 . S
C749 C751 1.433 . S
C750 C746 1.350 . S
C750 C747 1.463 . S
C750 N754 1.427 . S
C751 H741 0.929 . S
C751 C749 1.433 . S
C751 N754 1.384 . S
C752 H743 0.929 . S
C752 C744 1.378 . S
C752 C747 1.350 . S
C753 H740 0.929 . S
C753 C745 1.433 . S
C753 N755 1.384 . S
N754 C750 1.427 . S
N754 C751 1.384 . S
N755 C747 1.427 . S
N755 C753 1.384 . S
H756 C762 0.930 . S
H757 C766 0.930 . S
H758 C771 0.929 . S
H759 C769 0.929 . S
H760 C764 0.929 . S
H761 C770 0.929 . S
C762 H756 0.930 . S
C762 C763 1.367 . S
C762 C770 1.378 . S
C763 C762 1.367 . S
C763 C771 1.433 . S
C764 H760 0.929 . S
C764 C766 1.378 . S
C764 C768 1.350 . S
C765 C768 1.463 . S
C765 C770 1.350 . S
C765 N773 1.427 . S
C766 H757 0.930 . S
C766 C764 1.378 . S
C766 C767 1.367 . S
C767 C766 1.367 . S
C767 C769 1.433 . S
C768 C764 1.350 . S
C768 C765 1.463 . S
C768 N772 1.427 . S
C769 H759 0.929 . S
C769 C767 1.433 . S
C769 N772 1.384 . S
C770 H761 0.929 . S
C770 C762 1.378 . S
C770 C765 1.350 . S
C771 H758 0.929 . S
C771 C763 1.433 . S
C771 N773 1.384 . S
N772 C768 1.427 . S
N772 C769 1.384 . S
N773 C765 1.427 . S
N773 C771 1.384 . S
H774 C780 0.930 . S
H775 C784 0.930 . S
H776 C789 0.929 . S
H777 C787 0.929 . S
H778 C782 0.929 . S
H779 C788 0.929 . S
C780 H774 0.930 . S
C780 C781 1.367 . S
C780 C788 1.378 . S
C781 C780 1.367 . S
C781 C789 1.433 . S
C782 H778 0.929 . S
C782 C784 1.378 . S
C782 C786 1.350 . S
C783 C786 1.463 . S
C783 C788 1.350 . S
C783 N791 1.427 . S
C784 H775 0.930 . S
C784 C782 1.378 . S
C784 C785 1.367 . S
C785 C784 1.367 . S
C785 C787 1.433 . S
C786 C782 1.350 . S
C786 C783 1.463 . S
C786 N790 1.427 . S
C787 H777 0.929 . S
C787 C785 1.433 . S
C787 N790 1.384 . S
C788 H779 0.929 . S
C788 C780 1.378 . S
C788 C783 1.350 . S
C789 H776 0.929 . S
C789 C781 1.433 . S
C789 N791 1.384 . S
N790 C786 1.427 . S
N790 C787 1.384 . S
N791 C783 1.427 . S
N791 C789 1.384 . S
H792 C798 0.930 . S
H793 C802 0.930 . S
H794 C807 0.929 . S
H795 C805 0.929 . S
H796 C800 0.929 . S
H797 C806 0.929 . S
C798 H792 0.930 . S
C798 C799 1.367 . S
C798 C806 1.378 . S
C799 C798 1.367 . S
C799 C807 1.433 . S
C800 H796 0.929 . S
C800 C802 1.378 . S
C800 C804 1.350 . S
C801 C804 1.463 . S
C801 C806 1.350 . S
C801 N809 1.427 . S
C802 H793 0.930 . S
C802 C800 1.378 . S
C802 C803 1.367 . S
C803 C802 1.367 . S
C803 C805 1.433 . S
C804 C800 1.350 . S
C804 C801 1.463 . S
C804 N808 1.427 . S
C805 H795 0.929 . S
C805 C803 1.433 . S
C805 N808 1.384 . S
C806 H797 0.929 . S
C806 C798 1.378 . S
C806 C801 1.350 . S
C807 H794 0.929 . S
C807 C799 1.433 . S
C807 N809 1.384 . S
N808 C804 1.427 . S
N808 C805 1.384 . S
N809 C801 1.427 . S
N809 C807 1.384 . S
H810 C816 0.930 . S
H811 C820 0.930 . S
H812 C825 0.929 . S
H813 C823 0.929 . S
H814 C818 0.929 . S
H815 C824 0.929 . S
C816 H810 0.930 . S
C816 C817 1.367 . S
C816 C824 1.378 . S
C817 C816 1.367 . S
C817 C825 1.433 . S
C818 H814 0.929 . S
C818 C820 1.378 . S
C818 C822 1.350 . S
C819 C822 1.463 . S
C819 C824 1.350 . S
C819 N827 1.427 . S
C820 H811 0.930 . S
C820 C818 1.378 . S
C820 C821 1.367 . S
C821 C820 1.367 . S
C821 C823 1.433 . S
C822 C818 1.350 . S
C822 C819 1.463 . S
C822 N826 1.427 . S
C823 H813 0.929 . S
C823 C821 1.433 . S
C823 N826 1.384 . S
C824 H815 0.929 . S
C824 C816 1.378 . S
C824 C819 1.350 . S
C825 H812 0.929 . S
C825 C817 1.433 . S
C825 N827 1.384 . S
N826 C822 1.427 . S
N826 C823 1.384 . S
N827 C819 1.427 . S
N827 C825 1.384 . S
H828 C834 0.930 . S
H829 C838 0.930 . S
H830 C843 0.929 . S
H831 C841 0.929 . S
H832 C836 0.929 . S
H833 C842 0.929 . S
C834 H828 0.930 . S
C834 C835 1.367 . S
C834 C842 1.378 . S
C835 C834 1.367 . S
C835 C843 1.433 . S
C836 H832 0.929 . S
C836 C838 1.378 . S
C836 C840 1.350 . S
C837 C840 1.463 . S
C837 C842 1.350 . S
C837 N845 1.427 . S
C838 H829 0.930 . S
C838 C836 1.378 . S
C838 C839 1.367 . S
C839 C838 1.367 . S
C839 C841 1.433 . S
C840 C836 1.350 . S
C840 C837 1.463 . S
C840 N844 1.427 . S
C841 H831 0.929 . S
C841 C839 1.433 . S
C841 N844 1.384 . S
C842 H833 0.929 . S
C842 C834 1.378 . S
C842 C837 1.350 . S
C843 H830 0.929 . S
C843 C835 1.433 . S
C843 N845 1.384 . S
N844 C840 1.427 . S
N844 C841 1.384 . S
N845 C837 1.427 . S
N845 C843 1.384 . S
H846 C852 0.930 . S
H847 C856 0.930 . S
H848 C861 0.929 . S
H849 C859 0.929 . S
H850 C854 0.929 . S
H851 C860 0.929 . S
C852 H846 0.930 . S
C852 C853 1.367 . S
C852 C860 1.378 . S
C853 C852 1.367 . S
C853 C861 1.433 . S
C854 H850 0.929 . S
C854 C856 1.378 . S
C854 C858 1.350 . S
C855 C858 1.463 . S
C855 C860 1.350 . S
C855 N863 1.427 . S
C856 H847 0.930 . S
C856 C854 1.378 . S
C856 C857 1.367 . S
C857 C856 1.367 . S
C857 C859 1.433 . S
C858 C854 1.350 . S
C858 C855 1.463 . S
C858 N862 1.427 . S
C859 H849 0.929 . S
C859 C857 1.433 . S
C859 N862 1.384 . S
C860 H851 0.929 . S
C860 C852 1.378 . S
C860 C855 1.350 . S
C861 H848 0.929 . S
C861 C853 1.433 . S
C861 N863 1.384 . S
N862 C858 1.427 . S
N862 C859 1.384 . S
N863 C855 1.427 . S
N863 C861 1.384 . S
H864 C870 0.930 . S
H865 C874 0.930 . S
H866 C879 0.929 . S
H867 C877 0.929 . S
H868 C872 0.929 . S
H869 C878 0.929 . S
C870 H864 0.930 . S
C870 C871 1.367 . S
C870 C878 1.378 . S
C871 C870 1.367 . S
C871 C879 1.433 . S
C872 H868 0.929 . S
C872 C874 1.378 . S
C872 C876 1.350 . S
C873 C876 1.463 . S
C873 C878 1.350 . S
C873 N881 1.427 . S
C874 H865 0.930 . S
C874 C872 1.378 . S
C874 C875 1.367 . S
C875 C874 1.367 . S
C875 C877 1.433 . S
C876 C872 1.350 . S
C876 C873 1.463 . S
C876 N880 1.427 . S
C877 H867 0.929 . S
C877 C875 1.433 . S
C877 N880 1.384 . S
C878 H869 0.929 . S
C878 C870 1.378 . S
C878 C873 1.350 . S
C879 H866 0.929 . S
C879 C871 1.433 . S
C879 N881 1.384 . S
N880 C876 1.427 . S
N880 C877 1.384 . S
N881 C873 1.427 . S
N881 C879 1.384 . S
H882 C888 0.930 . S
H883 C892 0.930 . S
H884 C897 0.929 . S
H885 C895 0.929 . S
H886 C890 0.929 . S
H887 C896 0.929 . S
C888 H882 0.930 . S
C888 C889 1.367 . S
C888 C896 1.378 . S
C889 C888 1.367 . S
C889 C897 1.433 . S
C890 H886 0.929 . S
C890 C892 1.378 . S
C890 C894 1.350 . S
C891 C894 1.463 . S
C891 C896 1.350 . S
C891 N899 1.427 . S
C892 H883 0.930 . S
C892 C890 1.378 . S
C892 C893 1.367 . S
C893 C892 1.367 . S
C893 C895 1.433 . S
C894 C890 1.350 . S
C894 C891 1.463 . S
C894 N898 1.427 . S
C895 H885 0.929 . S
C895 C893 1.433 . S
C895 N898 1.384 . S
C896 H887 0.929 . S
C896 C888 1.378 . S
C896 C891 1.350 . S
C897 H884 0.929 . S
C897 C889 1.433 . S
C897 N899 1.384 . S
N898 C894 1.427 . S
N898 C895 1.384 . S
N899 C891 1.427 . S
N899 C897 1.384 . S
H900 C906 0.930 . S
H901 C910 0.930 . S
H902 C915 0.929 . S
H903 C913 0.929 . S
H904 C908 0.929 . S
H905 C914 0.929 . S
C906 H900 0.930 . S
C906 C907 1.367 . S
C906 C914 1.378 . S
C907 C906 1.367 . S
C907 C915 1.433 . S
C908 H904 0.929 . S
C908 C910 1.378 . S
C908 C912 1.350 . S
C909 C912 1.463 . S
C909 C914 1.350 . S
C909 N917 1.427 . S
C910 H901 0.930 . S
C910 C908 1.378 . S
C910 C911 1.367 . S
C911 C910 1.367 . S
C911 C913 1.433 . S
C912 C908 1.350 . S
C912 C909 1.463 . S
C912 N916 1.427 . S
C913 H903 0.929 . S
C913 C911 1.433 . S
C913 N916 1.384 . S
C914 H905 0.929 . S
C914 C906 1.378 . S
C914 C909 1.350 . S
C915 H902 0.929 . S
C915 C907 1.433 . S
C915 N917 1.384 . S
N916 C912 1.427 . S
N916 C913 1.384 . S
N917 C909 1.427 . S
N917 C915 1.384 . S
H918 C924 0.930 . S
H919 C928 0.930 . S
H920 C933 0.929 . S
H921 C931 0.929 . S
H922 C926 0.929 . S
H923 C932 0.929 . S
C924 H918 0.930 . S
C924 C925 1.367 . S
C924 C932 1.378 . S
C925 C924 1.367 . S
C925 C933 1.433 . S
C926 H922 0.929 . S
C926 C928 1.378 . S
C926 C930 1.350 . S
C927 C930 1.463 . S
C927 C932 1.350 . S
C927 N935 1.427 . S
C928 H919 0.930 . S
C928 C926 1.378 . S
C928 C929 1.367 . S
C929 C928 1.367 . S
C929 C931 1.433 . S
C930 C926 1.350 . S
C930 C927 1.463 . S
C930 N934 1.427 . S
C931 H921 0.929 . S
C931 C929 1.433 . S
C931 N934 1.384 . S
C932 H923 0.929 . S
C932 C924 1.378 . S
C932 C927 1.350 . S
C933 H920 0.929 . S
C933 C925 1.433 . S
C933 N935 1.384 . S
N934 C930 1.427 . S
N934 C931 1.384 . S
N935 C927 1.427 . S
N935 C933 1.384 . S
H936 C942 0.930 . S
H937 C946 0.930 . S
H938 C951 0.929 . S
H939 C949 0.929 . S
H940 C944 0.929 . S
H941 C950 0.929 . S
C942 H936 0.930 . S
C942 C943 1.367 . S
C942 C950 1.378 . S
C943 C942 1.367 . S
C943 C951 1.433 . S
C944 H940 0.929 . S
C944 C946 1.378 . S
C944 C948 1.350 . S
C945 C948 1.463 . S
C945 C950 1.350 . S
C945 N953 1.427 . S
C946 H937 0.930 . S
C946 C944 1.378 . S
C946 C947 1.367 . S
C947 C946 1.367 . S
C947 C949 1.433 . S
C948 C944 1.350 . S
C948 C945 1.463 . S
C948 N952 1.427 . S
C949 H939 0.929 . S
C949 C947 1.433 . S
C949 N952 1.384 . S
C950 H941 0.929 . S
C950 C942 1.378 . S
C950 C945 1.350 . S
C951 H938 0.929 . S
C951 C943 1.433 . S
C951 N953 1.384 . S
N952 C948 1.427 . S
N952 C949 1.384 . S
N953 C945 1.427 . S
N953 C951 1.384 . S
H954 C960 0.930 . S
H955 C964 0.930 . S
H956 C969 0.929 . S
H957 C967 0.929 . S
H958 C962 0.929 . S
H959 C968 0.929 . S
C960 H954 0.930 . S
C960 C961 1.367 . S
C960 C968 1.378 . S
C961 C960 1.367 . S
C961 C969 1.433 . S
C962 H958 0.929 . S
C962 C964 1.378 . S
C962 C966 1.350 . S
C963 C966 1.463 . S
C963 C968 1.350 . S
C963 N971 1.427 . S
C964 H955 0.930 . S
C964 C962 1.378 . S
C964 C965 1.367 . S
C965 C964 1.367 . S
C965 C967 1.433 . S
C966 C962 1.350 . S
C966 C963 1.463 . S
C966 N970 1.427 . S
C967 H957 0.929 . S
C967 C965 1.433 . S
C967 N970 1.384 . S
C968 H959 0.929 . S
C968 C960 1.378 . S
C968 C963 1.350 . S
C969 H956 0.929 . S
C969 C961 1.433 . S
C969 N971 1.384 . S
N970 C966 1.427 . S
N970 C967 1.384 . S
N971 C963 1.427 . S
N971 C969 1.384 . S
H972 C978 0.930 . S
H973 C982 0.930 . S
H974 C987 0.929 . S
H975 C985 0.929 . S
H976 C980 0.929 . S
H977 C986 0.929 . S
C978 H972 0.930 . S
C978 C979 1.367 . S
C978 C986 1.378 . S
C979 C978 1.367 . S
C979 C987 1.433 . S
C980 H976 0.929 . S
C980 C982 1.378 . S
C980 C984 1.350 . S
C981 C984 1.463 . S
C981 C986 1.350 . S
C981 N989 1.427 . S
C982 H973 0.930 . S
C982 C980 1.378 . S
C982 C983 1.367 . S
C983 C982 1.367 . S
C983 C985 1.433 . S
C984 C980 1.350 . S
C984 C981 1.463 . S
C984 N988 1.427 . S
C985 H975 0.929 . S
C985 C983 1.433 . S
C985 N988 1.384 . S
C986 H977 0.929 . S
C986 C978 1.378 . S
C986 C981 1.350 . S
C987 H974 0.929 . S
C987 C979 1.433 . S
C987 N989 1.384 . S
N988 C984 1.427 . S
N988 C985 1.384 . S
N989 C981 1.427 . S
N989 C987 1.384 . S
H990 C996 0.930 . S
H991 C1000 0.930 . S
H992 C1005 0.929 . S
H993 C1003 0.929 . S
H994 C998 0.929 . S
H995 C1004 0.929 . S
C996 H990 0.930 . S
C996 C997 1.367 . S
C996 C1004 1.378 . S
C997 C996 1.367 . S
C997 C1005 1.433 . S
C998 H994 0.929 . S
C998 C1000 1.378 . S
C998 C1002 1.350 . S
C999 C1002 1.463 . S
C999 C1004 1.350 . S
C999 N1007 1.427 . S
C1000 H991 0.930 . S
C1000 C998 1.378 . S
C1000 C1001 1.367 . S
C1001 C1000 1.367 . S
C1001 C1003 1.433 . S
C1002 C998 1.350 . S
C1002 C999 1.463 . S
C1002 N1006 1.427 . S
C1003 H993 0.929 . S
C1003 C1001 1.433 . S
C1003 N1006 1.384 . S
C1004 H995 0.929 . S
C1004 C996 1.378 . S
C1004 C999 1.350 . S
C1005 H992 0.929 . S
C1005 C997 1.433 . S
C1005 N1007 1.384 . S
N1006 C1002 1.427 . S
N1006 C1003 1.384 . S
N1007 C999 1.427 . S
N1007 C1005 1.384 . S
H1008 C1014 0.930 . S
H1009 C1018 0.930 . S
H1010 C1023 0.929 . S
H1011 C1021 0.929 . S
H1012 C1016 0.929 . S
H1013 C1022 0.929 . S
C1014 H1008 0.930 . S
C1014 C1015 1.367 . S
C1014 C1022 1.378 . S
C1015 C1014 1.367 . S
C1015 C1023 1.433 . S
C1016 H1012 0.929 . S
C1016 C1018 1.378 . S
C1016 C1020 1.350 . S
C1017 C1020 1.463 . S
C1017 C1022 1.350 . S
C1017 N1025 1.427 . S
C1018 H1009 0.930 . S
C1018 C1016 1.378 . S
C1018 C1019 1.367 . S
C1019 C1018 1.367 . S
C1019 C1021 1.433 . S
C1020 C1016 1.350 . S
C1020 C1017 1.463 . S
C1020 N1024 1.427 . S
C1021 H1011 0.929 . S
C1021 C1019 1.433 . S
C1021 N1024 1.384 . S
C1022 H1013 0.929 . S
C1022 C1014 1.378 . S
C1022 C1017 1.350 . S
C1023 H1010 0.929 . S
C1023 C1015 1.433 . S
C1023 N1025 1.384 . S
N1024 C1020 1.427 . S
N1024 C1021 1.384 . S
N1025 C1017 1.427 . S
N1025 C1023 1.384 . S
H1026 C1032 0.930 . S
H1027 C1036 0.930 . S
H1028 C1041 0.929 . S
H1029 C1039 0.929 . S
H1030 C1034 0.929 . S
H1031 C1040 0.929 . S
C1032 H1026 0.930 . S
C1032 C1033 1.367 . S
C1032 C1040 1.378 . S
C1033 C1032 1.367 . S
C1033 C1041 1.433 . S
C1034 H1030 0.929 . S
C1034 C1036 1.378 . S
C1034 C1038 1.350 . S
C1035 C1038 1.463 1_454 S
C1035 C1040 1.350 . S
C1035 N1043 1.427 . S
C1036 H1027 0.930 . S
C1036 C1034 1.378 . S
C1036 C1037 1.367 . S
C1037 C1036 1.367 . S
C1037 C1039 1.433 . S
C1038 C1034 1.350 . S
C1038 C1035 1.463 1_656 S
C1038 N1042 1.427 . S
C1039 H1029 0.929 . S
C1039 C1037 1.433 . S
C1039 N1042 1.384 . S
C1040 H1031 0.929 . S
C1040 C1032 1.378 . S
C1040 C1035 1.350 . S
C1041 H1028 0.929 . S
C1041 C1033 1.433 . S
C1041 N1043 1.384 . S
N1042 C1038 1.427 . S
N1042 C1039 1.384 . S
N1043 C1035 1.427 . S
N1043 C1041 1.384 . S
H1044 C1050 0.930 . S
H1045 C1054 0.930 . S
H1046 C1059 0.929 . S
H1047 C1057 0.929 . S
H1048 C1052 0.929 . S
H1049 C1058 0.929 . S
C1050 H1044 0.930 . S
C1050 C1051 1.367 . S
C1050 C1058 1.378 . S
C1051 C1050 1.367 . S
C1051 C1059 1.433 1_554 S
C1052 H1048 0.929 . S
C1052 C1054 1.378 . S
C1052 C1056 1.350 . S
C1053 C1056 1.463 1_554 S
C1053 C1058 1.350 . S
C1053 N1061 1.427 1_554 S
C1054 H1045 0.930 . S
C1054 C1052 1.378 . S
C1054 C1055 1.367 . S
C1055 C1054 1.367 . S
C1055 C1057 1.433 1_556 S
C1056 C1052 1.350 . S
C1056 C1053 1.463 1_556 S
C1056 N1060 1.427 1_556 S
C1057 H1047 0.929 . S
C1057 C1055 1.433 1_554 S
C1057 N1060 1.384 . S
C1058 H1049 0.929 . S
C1058 C1050 1.378 . S
C1058 C1053 1.350 . S
C1059 H1046 0.929 . S
C1059 C1051 1.433 1_556 S
C1059 N1061 1.384 . S
N1060 C1056 1.427 1_554 S
N1060 C1057 1.384 . S
N1061 C1053 1.427 1_556 S
N1061 C1059 1.384 . S
H1062 C1068 0.930 . S
H1063 C1072 0.930 . S
H1064 C1077 0.929 . S
H1065 C1075 0.929 . S
H1066 C1070 0.929 . S
H1067 C1076 0.929 . S
C1068 H1062 0.930 . S
C1068 C1069 1.367 . S
C1068 C1076 1.378 . S
C1069 C1068 1.367 . S
C1069 C1077 1.433 1_556 S
C1070 H1066 0.929 . S
C1070 C1072 1.378 . S
C1070 C1074 1.350 . S
C1071 C1074 1.463 1_546 S
C1071 C1076 1.350 . S
C1071 N1079 1.427 1_556 S
C1072 H1063 0.930 . S
C1072 C1070 1.378 . S
C1072 C1073 1.367 . S
C1073 C1072 1.367 . S
C1073 C1075 1.433 1_554 S
C1074 C1070 1.350 . S
C1074 C1071 1.463 1_564 S
C1074 N1078 1.427 1_554 S
C1075 H1065 0.929 . S
C1075 C1073 1.433 1_556 S
C1075 N1078 1.384 . S
C1076 H1067 0.929 . S
C1076 C1068 1.378 . S
C1076 C1071 1.350 . S
C1077 H1064 0.929 . S
C1077 C1069 1.433 1_554 S
C1077 N1079 1.384 . S
N1078 C1074 1.427 1_556 S
N1078 C1075 1.384 . S
N1079 C1071 1.427 1_554 S
N1079 C1077 1.384 . S
H1080 C1086 0.930 . S
H1081 C1090 0.930 . S
H1082 C1095 0.929 . S
H1083 C1093 0.929 . S
H1084 C1088 0.929 . S
H1085 C1094 0.929 . S
C1086 H1080 0.930 . S
C1086 C1087 1.367 . S
C1086 C1094 1.378 . S
C1087 C1086 1.367 . S
C1087 C1095 1.433 . S
C1088 H1084 0.929 . S
C1088 C1090 1.378 . S
C1088 C1092 1.350 1_554 S
C1089 C1092 1.463 . S
C1089 C1094 1.350 . S
C1089 N1097 1.427 . S
C1090 H1081 0.930 . S
C1090 C1088 1.378 . S
C1090 C1091 1.367 . S
C1091 C1090 1.367 . S
C1091 C1093 1.433 . S
C1092 C1088 1.350 1_556 S
C1092 C1089 1.463 . S
C1092 N1096 1.427 1_556 S
C1093 H1083 0.929 . S
C1093 C1091 1.433 . S
C1093 N1096 1.384 . S
C1094 H1085 0.929 . S
C1094 C1086 1.378 . S
C1094 C1089 1.350 . S
C1095 H1082 0.929 . S
C1095 C1087 1.433 . S
C1095 N1097 1.384 . S
N1096 C1092 1.427 1_554 S
N1096 C1093 1.384 . S
N1097 C1089 1.427 . S
N1097 C1095 1.384 . S
H1098 C1104 0.930 . S
H1099 C1108 0.930 . S
H1100 C1113 0.929 . S
H1101 C1111 0.929 . S
H1102 C1106 0.929 . S
H1103 C1112 0.929 . S
C1104 H1098 0.930 . S
C1104 C1105 1.367 . S
C1104 C1112 1.378 . S
C1105 C1104 1.367 . S
C1105 C1113 1.433 . S
C1106 H1102 0.929 . S
C1106 C1108 1.378 . S
C1106 C1110 1.350 1_554 S
C1107 C1110 1.463 . S
C1107 C1112 1.350 . S
C1107 N1115 1.427 . S
C1108 H1099 0.930 . S
C1108 C1106 1.378 . S
C1108 C1109 1.367 . S
C1109 C1108 1.367 . S
C1109 C1111 1.433 . S
C1110 C1106 1.350 1_556 S
C1110 C1107 1.463 . S
C1110 N1114 1.427 1_556 S
C1111 H1101 0.929 . S
C1111 C1109 1.433 . S
C1111 N1114 1.384 . S
C1112 H1103 0.929 . S
C1112 C1104 1.378 . S
C1112 C1107 1.350 . S
C1113 H1100 0.929 . S
C1113 C1105 1.433 . S
C1113 N1115 1.384 . S
N1114 C1110 1.427 1_554 S
N1114 C1111 1.384 . S
N1115 C1107 1.427 . S
N1115 C1113 1.384 . S
H1116 C1122 0.930 . S
H1117 C1126 0.930 . S
H1118 C1131 0.929 . S
H1119 C1129 0.929 . S
H1120 C1124 0.929 . S
H1121 C1130 0.929 . S
C1122 H1116 0.930 . S
C1122 C1123 1.367 . S
C1122 C1130 1.378 . S
C1123 C1122 1.367 . S
C1123 C1131 1.433 . S
C1124 H1120 0.929 . S
C1124 C1126 1.378 . S
C1124 C1128 1.350 1_554 S
C1125 C1128 1.463 . S
C1125 C1130 1.350 . S
C1125 N1133 1.427 . S
C1126 H1117 0.930 . S
C1126 C1124 1.378 . S
C1126 C1127 1.367 . S
C1127 C1126 1.367 . S
C1127 C1129 1.433 . S
C1128 C1124 1.350 1_556 S
C1128 C1125 1.463 . S
C1128 N1132 1.427 1_556 S
C1129 H1119 0.929 . S
C1129 C1127 1.433 . S
C1129 N1132 1.384 . S
C1130 H1121 0.929 . S
C1130 C1122 1.378 . S
C1130 C1125 1.350 . S
C1131 H1118 0.929 . S
C1131 C1123 1.433 . S
C1131 N1133 1.384 . S
N1132 C1128 1.427 1_554 S
N1132 C1129 1.384 . S
N1133 C1125 1.427 . S
N1133 C1131 1.384 . S
H1134 C1140 0.930 . S
H1135 C1144 0.930 . S
H1136 C1149 0.929 . S
H1137 C1147 0.929 . S
H1138 C1142 0.929 . S
H1139 C1148 0.929 1_554 S
C1140 H1134 0.930 . S
C1140 C1141 1.367 . S
C1140 C1148 1.378 . S
C1141 C1140 1.367 . S
C1141 C1149 1.433 . S
C1142 H1138 0.929 . S
C1142 C1144 1.378 . S
C1142 C1146 1.350 . S
C1143 C1146 1.463 . S
C1143 C1148 1.350 1_554 S
C1143 N1151 1.427 1_554 S
C1144 H1135 0.930 . S
C1144 C1142 1.378 . S
C1144 C1145 1.367 . S
C1145 C1144 1.367 . S
C1145 C1147 1.433 . S
C1146 C1142 1.350 . S
C1146 C1143 1.463 . S
C1146 N1150 1.427 . S
C1147 H1137 0.929 . S
C1147 C1145 1.433 . S
C1147 N1150 1.384 . S
C1148 H1139 0.929 1_556 S
C1148 C1140 1.378 . S
C1148 C1143 1.350 1_556 S
C1149 H1136 0.929 . S
C1149 C1141 1.433 . S
C1149 N1151 1.384 . S
N1150 C1146 1.427 . S
N1150 C1147 1.384 . S
N1151 C1143 1.427 1_556 S
N1151 C1149 1.384 . S
H1152 C1158 0.930 . S
H1153 C1162 0.930 . S
H1154 C1167 0.929 . S
H1155 C1165 0.929 . S
H1156 C1160 0.929 . S
H1157 C1166 0.929 . S
C1158 H1152 0.930 . S
C1158 C1159 1.367 . S
C1158 C1166 1.378 . S
C1159 C1158 1.367 . S
C1159 C1167 1.433 . S
C1160 H1156 0.929 . S
C1160 C1162 1.378 . S
C1160 C1164 1.350 . S
C1161 C1164 1.463 . S
C1161 C1166 1.350 1_554 S
C1161 N1169 1.427 1_554 S
C1162 H1153 0.930 . S
C1162 C1160 1.378 . S
C1162 C1163 1.367 . S
C1163 C1162 1.367 . S
C1163 C1165 1.433 . S
C1164 C1160 1.350 . S
C1164 C1161 1.463 . S
C1164 N1168 1.427 . S
C1165 H1155 0.929 . S
C1165 C1163 1.433 . S
C1165 N1168 1.384 . S
C1166 H1157 0.929 . S
C1166 C1158 1.378 . S
C1166 C1161 1.350 1_556 S
C1167 H1154 0.929 . S
C1167 C1159 1.433 . S
C1167 N1169 1.384 . S
N1168 C1164 1.427 . S
N1168 C1165 1.384 . S
N1169 C1161 1.427 1_556 S
N1169 C1167 1.384 . S
H1170 C1176 0.930 . S
H1171 C1180 0.930 . S
H1172 C1185 0.929 . S
H1173 C1183 0.929 . S
H1174 C1178 0.929 . S
H1175 C1184 0.929 . S
C1176 H1170 0.930 . S
C1176 C1177 1.367 . S
C1176 C1184 1.378 . S
C1177 C1176 1.367 . S
C1177 C1185 1.433 . S
C1178 H1174 0.929 . S
C1178 C1180 1.378 . S
C1178 C1182 1.350 1_556 S
C1179 C1182 1.463 . S
C1179 C1184 1.350 . S
C1179 N1187 1.427 . S
C1180 H1171 0.930 . S
C1180 C1178 1.378 . S
C1180 C1181 1.367 . S
C1181 C1180 1.367 . S
C1181 C1183 1.433 . S
C1182 C1178 1.350 1_554 S
C1182 C1179 1.463 . S
C1182 N1186 1.427 1_554 S
C1183 H1173 0.929 . S
C1183 C1181 1.433 . S
C1183 N1186 1.384 . S
C1184 H1175 0.929 . S
C1184 C1176 1.378 . S
C1184 C1179 1.350 . S
C1185 H1172 0.929 . S
C1185 C1177 1.433 . S
C1185 N1187 1.384 . S
N1186 C1182 1.427 1_556 S
N1186 C1183 1.384 . S
N1187 C1179 1.427 . S
N1187 C1185 1.384 . S
H1188 C1194 0.930 . S
H1189 C1198 0.930 . S
H1190 C1203 0.929 . S
H1191 C1201 0.929 . S
H1192 C1196 0.929 . S
H1193 C1202 0.929 . S
C1194 H1188 0.930 . S
C1194 C1195 1.367 . S
C1194 C1202 1.378 . S
C1195 C1194 1.367 . S
C1195 C1203 1.433 . S
C1196 H1192 0.929 . S
C1196 C1198 1.378 . S
C1196 C1200 1.350 . S
C1197 C1200 1.463 . S
C1197 C1202 1.350 . S
C1197 N1205 1.427 . S
C1198 H1189 0.930 . S
C1198 C1196 1.378 . S
C1198 C1199 1.367 . S
C1199 C1198 1.367 . S
C1199 C1201 1.433 . S
C1200 C1196 1.350 . S
C1200 C1197 1.463 . S
C1200 N1204 1.427 . S
C1201 H1191 0.929 . S
C1201 C1199 1.433 . S
C1201 N1204 1.384 . S
C1202 H1193 0.929 . S
C1202 C1194 1.378 . S
C1202 C1197 1.350 . S
C1203 H1190 0.929 . S
C1203 C1195 1.433 . S
C1203 N1205 1.384 . S
N1204 C1200 1.427 . S
N1204 C1201 1.384 . S
N1205 C1197 1.427 . S
N1205 C1203 1.384 . S
H1206 C1212 0.930 . S
H1207 C1216 0.930 . S
H1208 C1221 0.929 . S
H1209 C1219 0.929 . S
H1210 C1214 0.929 . S
H1211 C1220 0.929 . S
C1212 H1206 0.930 . S
C1212 C1213 1.367 . S
C1212 C1220 1.378 . S
C1213 C1212 1.367 . S
C1213 C1221 1.433 . S
C1214 H1210 0.929 . S
C1214 C1216 1.378 . S
C1214 C1218 1.350 . S
C1215 C1218 1.463 . S
C1215 C1220 1.350 . S
C1215 N1223 1.427 . S
C1216 H1207 0.930 . S
C1216 C1214 1.378 . S
C1216 C1217 1.367 . S
C1217 C1216 1.367 . S
C1217 C1219 1.433 . S
C1218 C1214 1.350 . S
C1218 C1215 1.463 . S
C1218 N1222 1.427 . S
C1219 H1209 0.929 . S
C1219 C1217 1.433 . S
C1219 N1222 1.384 . S
C1220 H1211 0.929 . S
C1220 C1212 1.378 . S
C1220 C1215 1.350 . S
C1221 H1208 0.929 . S
C1221 C1213 1.433 . S
C1221 N1223 1.384 . S
N1222 C1218 1.427 . S
N1222 C1219 1.384 . S
N1223 C1215 1.427 . S
N1223 C1221 1.384 . S
H1224 C1230 0.930 . S
H1225 C1234 0.930 . S
H1226 C1239 0.929 . S
H1227 C1237 0.929 . S
H1228 C1232 0.929 . S
H1229 C1238 0.929 . S
C1230 H1224 0.930 . S
C1230 C1231 1.367 . S
C1230 C1238 1.378 . S
C1231 C1230 1.367 . S
C1231 C1239 1.433 . S
C1232 H1228 0.929 . S
C1232 C1234 1.378 . S
C1232 C1236 1.350 . S
C1233 C1236 1.463 . S
C1233 C1238 1.350 . S
C1233 N1241 1.427 . S
C1234 H1225 0.930 . S
C1234 C1232 1.378 . S
C1234 C1235 1.367 . S
C1235 C1234 1.367 . S
C1235 C1237 1.433 . S
C1236 C1232 1.350 . S
C1236 C1233 1.463 . S
C1236 N1240 1.427 . S
C1237 H1227 0.929 . S
C1237 C1235 1.433 . S
C1237 N1240 1.384 . S
C1238 H1229 0.929 . S
C1238 C1230 1.378 . S
C1238 C1233 1.350 . S
C1239 H1226 0.929 . S
C1239 C1231 1.433 . S
C1239 N1241 1.384 . S
N1240 C1236 1.427 . S
N1240 C1237 1.384 . S
N1241 C1233 1.427 . S
N1241 C1239 1.384 . S
H1242 C1248 0.930 . S
H1243 C1252 0.930 . S
H1244 C1257 0.929 . S
H1245 C1255 0.929 . S
H1246 C1250 0.929 . S
H1247 C1256 0.929 . S
C1248 H1242 0.930 . S
C1248 C1249 1.367 . S
C1248 C1256 1.378 . S
C1249 C1248 1.367 . S
C1249 C1257 1.433 . S
C1250 H1246 0.929 . S
C1250 C1252 1.378 . S
C1250 C1254 1.350 . S
C1251 C1254 1.463 . S
C1251 C1256 1.350 . S
C1251 N1259 1.427 . S
C1252 H1243 0.930 . S
C1252 C1250 1.378 . S
C1252 C1253 1.367 . S
C1253 C1252 1.367 . S
C1253 C1255 1.433 . S
C1254 C1250 1.350 . S
C1254 C1251 1.463 . S
C1254 N1258 1.427 . S
C1255 H1245 0.929 . S
C1255 C1253 1.433 . S
C1255 N1258 1.384 . S
C1256 H1247 0.929 . S
C1256 C1248 1.378 . S
C1256 C1251 1.350 . S
C1257 H1244 0.929 . S
C1257 C1249 1.433 . S
C1257 N1259 1.384 . S
N1258 C1254 1.427 . S
N1258 C1255 1.384 . S
N1259 C1251 1.427 . S
N1259 C1257 1.384 . S
H1260 C1266 0.930 . S
H1261 C1270 0.930 . S
H1262 C1275 0.929 . S
H1263 C1273 0.929 . S
H1264 C1268 0.929 . S
H1265 C1274 0.929 . S
C1266 H1260 0.930 . S
C1266 C1267 1.367 . S
C1266 C1274 1.378 . S
C1267 C1266 1.367 . S
C1267 C1275 1.433 . S
C1268 H1264 0.929 . S
C1268 C1270 1.378 . S
C1268 C1272 1.350 . S
C1269 C1272 1.463 . S
C1269 C1274 1.350 . S
C1269 N1277 1.427 . S
C1270 H1261 0.930 . S
C1270 C1268 1.378 . S
C1270 C1271 1.367 . S
C1271 C1270 1.367 . S
C1271 C1273 1.433 . S
C1272 C1268 1.350 . S
C1272 C1269 1.463 . S
C1272 N1276 1.427 . S
C1273 H1263 0.929 . S
C1273 C1271 1.433 . S
C1273 N1276 1.384 . S
C1274 H1265 0.929 . S
C1274 C1266 1.378 . S
C1274 C1269 1.350 . S
C1275 H1262 0.929 . S
C1275 C1267 1.433 . S
C1275 N1277 1.384 . S
N1276 C1272 1.427 . S
N1276 C1273 1.384 . S
N1277 C1269 1.427 . S
N1277 C1275 1.384 . S
H1278 C1284 0.930 . S
H1279 C1288 0.930 . S
H1280 C1293 0.929 . S
H1281 C1291 0.929 . S
H1282 C1286 0.929 . S
H1283 C1292 0.929 . S
C1284 H1278 0.930 . S
C1284 C1285 1.367 . S
C1284 C1292 1.378 . S
C1285 C1284 1.367 . S
C1285 C1293 1.433 . S
C1286 H1282 0.929 . S
C1286 C1288 1.378 . S
C1286 C1290 1.350 . S
C1287 C1290 1.463 . S
C1287 C1292 1.350 . S
C1287 N1295 1.427 . S
C1288 H1279 0.930 . S
C1288 C1286 1.378 . S
C1288 C1289 1.367 . S
C1289 C1288 1.367 . S
C1289 C1291 1.433 . S
C1290 C1286 1.350 . S
C1290 C1287 1.463 . S
C1290 N1294 1.427 . S
C1291 H1281 0.929 . S
C1291 C1289 1.433 . S
C1291 N1294 1.384 . S
C1292 H1283 0.929 . S
C1292 C1284 1.378 . S
C1292 C1287 1.350 . S
C1293 H1280 0.929 . S
C1293 C1285 1.433 . S
C1293 N1295 1.384 . S
N1294 C1290 1.427 . S
N1294 C1291 1.384 . S
N1295 C1287 1.427 . S
N1295 C1293 1.384 . S
H1296 C1302 0.930 . S
H1297 C1306 0.930 . S
H1298 C1311 0.929 . S
H1299 C1309 0.929 . S
H1300 C1304 0.929 . S
H1301 C1310 0.929 . S
C1302 H1296 0.930 . S
C1302 C1303 1.367 . S
C1302 C1310 1.378 . S
C1303 C1302 1.367 . S
C1303 C1311 1.433 . S
C1304 H1300 0.929 . S
C1304 C1306 1.378 . S
C1304 C1308 1.350 . S
C1305 C1308 1.463 . S
C1305 C1310 1.350 . S
C1305 N1313 1.427 . S
C1306 H1297 0.930 . S
C1306 C1304 1.378 . S
C1306 C1307 1.367 . S
C1307 C1306 1.367 . S
C1307 C1309 1.433 . S
C1308 C1304 1.350 . S
C1308 C1305 1.463 . S
C1308 N1312 1.427 . S
C1309 H1299 0.929 . S
C1309 C1307 1.433 . S
C1309 N1312 1.384 . S
C1310 H1301 0.929 . S
C1310 C1302 1.378 . S
C1310 C1305 1.350 . S
C1311 H1298 0.929 . S
C1311 C1303 1.433 . S
C1311 N1313 1.384 . S
N1312 C1308 1.427 . S
N1312 C1309 1.384 . S
N1313 C1305 1.427 . S
N1313 C1311 1.384 . S
H1314 C1320 0.930 . S
H1315 C1324 0.930 . S
H1316 C1329 0.929 . S
H1317 C1327 0.929 . S
H1318 C1322 0.929 . S
H1319 C1328 0.929 . S
C1320 H1314 0.930 . S
C1320 C1321 1.367 . S
C1320 C1328 1.378 . S
C1321 C1320 1.367 . S
C1321 C1329 1.433 . S
C1322 H1318 0.929 . S
C1322 C1324 1.378 . S
C1322 C1326 1.350 . S
C1323 C1326 1.463 . S
C1323 C1328 1.350 . S
C1323 N1331 1.427 . S
C1324 H1315 0.930 . S
C1324 C1322 1.378 . S
C1324 C1325 1.367 . S
C1325 C1324 1.367 . S
C1325 C1327 1.433 . S
C1326 C1322 1.350 . S
C1326 C1323 1.463 . S
C1326 N1330 1.427 . S
C1327 H1317 0.929 . S
C1327 C1325 1.433 . S
C1327 N1330 1.384 . S
C1328 H1319 0.929 . S
C1328 C1320 1.378 . S
C1328 C1323 1.350 . S
C1329 H1316 0.929 . S
C1329 C1321 1.433 . S
C1329 N1331 1.384 . S
N1330 C1326 1.427 . S
N1330 C1327 1.384 . S
N1331 C1323 1.427 . S
N1331 C1329 1.384 . S
H1332 C1338 0.930 . S
H1333 C1342 0.930 . S
H1334 C1347 0.929 . S
H1335 C1345 0.929 . S
H1336 C1340 0.929 . S
H1337 C1346 0.929 . S
C1338 H1332 0.930 . S
C1338 C1339 1.367 . S
C1338 C1346 1.378 . S
C1339 C1338 1.367 . S
C1339 C1347 1.433 . S
C1340 H1336 0.929 . S
C1340 C1342 1.378 . S
C1340 C1344 1.350 . S
C1341 C1344 1.463 . S
C1341 C1346 1.350 . S
C1341 N1349 1.427 . S
C1342 H1333 0.930 . S
C1342 C1340 1.378 . S
C1342 C1343 1.367 . S
C1343 C1342 1.367 . S
C1343 C1345 1.433 . S
C1344 C1340 1.350 . S
C1344 C1341 1.463 . S
C1344 N1348 1.427 . S
C1345 H1335 0.929 . S
C1345 C1343 1.433 . S
C1345 N1348 1.384 . S
C1346 H1337 0.929 . S
C1346 C1338 1.378 . S
C1346 C1341 1.350 . S
C1347 H1334 0.929 . S
C1347 C1339 1.433 . S
C1347 N1349 1.384 . S
N1348 C1344 1.427 . S
N1348 C1345 1.384 . S
N1349 C1341 1.427 . S
N1349 C1347 1.384 . S
H1350 C1356 0.930 . S
H1351 C1360 0.930 . S
H1352 C1365 0.929 . S
H1353 C1363 0.929 . S
H1354 C1358 0.929 . S
H1355 C1364 0.929 . S
C1356 H1350 0.930 . S
C1356 C1357 1.367 . S
C1356 C1364 1.378 . S
C1357 C1356 1.367 . S
C1357 C1365 1.433 . S
C1358 H1354 0.929 . S
C1358 C1360 1.378 . S
C1358 C1362 1.350 . S
C1359 C1362 1.463 . S
C1359 C1364 1.350 . S
C1359 N1367 1.427 . S
C1360 H1351 0.930 . S
C1360 C1358 1.378 . S
C1360 C1361 1.367 . S
C1361 C1360 1.367 . S
C1361 C1363 1.433 . S
C1362 C1358 1.350 . S
C1362 C1359 1.463 . S
C1362 N1366 1.427 . S
C1363 H1353 0.929 . S
C1363 C1361 1.433 . S
C1363 N1366 1.384 . S
C1364 H1355 0.929 . S
C1364 C1356 1.378 . S
C1364 C1359 1.350 . S
C1365 H1352 0.929 . S
C1365 C1357 1.433 . S
C1365 N1367 1.384 . S
N1366 C1362 1.427 . S
N1366 C1363 1.384 . S
N1367 C1359 1.427 . S
N1367 C1365 1.384 . S
H1368 C1374 0.930 . S
H1369 C1378 0.930 . S
H1370 C1383 0.929 . S
H1371 C1381 0.929 . S
H1372 C1376 0.929 . S
H1373 C1382 0.929 . S
C1374 H1368 0.930 . S
C1374 C1375 1.367 . S
C1374 C1382 1.378 . S
C1375 C1374 1.367 . S
C1375 C1383 1.433 . S
C1376 H1372 0.929 . S
C1376 C1378 1.378 . S
C1376 C1380 1.350 . S
C1377 C1380 1.463 . S
C1377 C1382 1.350 . S
C1377 N1385 1.427 . S
C1378 H1369 0.930 . S
C1378 C1376 1.378 . S
C1378 C1379 1.367 . S
C1379 C1378 1.367 . S
C1379 C1381 1.433 . S
C1380 C1376 1.350 . S
C1380 C1377 1.463 . S
C1380 N1384 1.427 . S
C1381 H1371 0.929 . S
C1381 C1379 1.433 . S
C1381 N1384 1.384 . S
C1382 H1373 0.929 . S
C1382 C1374 1.378 . S
C1382 C1377 1.350 . S
C1383 H1370 0.929 . S
C1383 C1375 1.433 . S
C1383 N1385 1.384 . S
N1384 C1380 1.427 . S
N1384 C1381 1.384 . S
N1385 C1377 1.427 . S
N1385 C1383 1.384 . S
H1386 C1392 0.930 . S
H1387 C1396 0.930 . S
H1388 C1401 0.929 . S
H1389 C1399 0.929 . S
H1390 C1394 0.929 . S
H1391 C1400 0.929 . S
C1392 H1386 0.930 . S
C1392 C1393 1.367 . S
C1392 C1400 1.378 . S
C1393 C1392 1.367 . S
C1393 C1401 1.433 . S
C1394 H1390 0.929 . S
C1394 C1396 1.378 . S
C1394 C1398 1.350 . S
C1395 C1398 1.463 . S
C1395 C1400 1.350 . S
C1395 N1403 1.427 . S
C1396 H1387 0.930 . S
C1396 C1394 1.378 . S
C1396 C1397 1.367 . S
C1397 C1396 1.367 . S
C1397 C1399 1.433 . S
C1398 C1394 1.350 . S
C1398 C1395 1.463 . S
C1398 N1402 1.427 . S
C1399 H1389 0.929 . S
C1399 C1397 1.433 . S
C1399 N1402 1.384 . S
C1400 H1391 0.929 . S
C1400 C1392 1.378 . S
C1400 C1395 1.350 . S
C1401 H1388 0.929 . S
C1401 C1393 1.433 . S
C1401 N1403 1.384 . S
N1402 C1398 1.427 . S
N1402 C1399 1.384 . S
N1403 C1395 1.427 . S
N1403 C1401 1.384 . S
C601 C116 1.551 . S
C605 C17 1.551 . S
C619 C149 1.550 . S
C623 C50 1.551 . S
C637 C182 1.553 . S
C641 C83 1.554 . S
C655 C61 1.517 . S
C659 C193 1.518 . S
C673 C127 1.515 . S
C677 C94 1.515 . S
C691 C160 1.518 . S
C695 C28 1.518 . S
C709 C314 1.550 . S
C713 C215 1.550 . S
C727 C248 1.553 . S
C731 C347 1.554 . S
C745 C281 1.554 . S
C749 C380 1.554 . S
C763 C259 1.518 . S
C767 C391 1.519 . S
C781 C292 1.516 . S
C785 C325 1.515 . S
C799 C358 1.517 . S
C803 C226 1.518 . S
C817 C413 1.555 . S
C821 C512 1.555 . S
C835 C545 1.555 . S
C839 C446 1.555 . S
C853 C479 1.551 . S
C857 C578 1.551 . S
C871 C457 1.517 . S
C875 C589 1.518 . S
C889 C523 1.518 . S
C893 C490 1.516 . S
C907 C424 1.516 . S
C911 C556 1.515 . S
C925 C8 1.450 . S
C929 C569 1.452 . S
C943 C503 1.453 . S
C947 C41 1.452 . S
C961 C536 1.451 . S
C965 C74 1.451 . S
C979 C239 1.453 . S
C983 C107 1.452 . S
C997 C272 1.452 . S
C1001 C140 1.451 . S
C1015 C206 1.453 . S
C1019 C173 1.454 . S
C1033 C437 1.453 . S
C1037 C305 1.452 . S
C1051 C470 1.453 . S
C1055 C338 1.452 . S
C1069 C371 1.453 . S
C1073 C404 1.453 . S
C1087 N5 1.439 . S
C1091 N14 1.436 . S
C1105 N38 1.441 . S
C1109 N47 1.437 . S
C1123 N71 1.431 . S
C1127 N80 1.427 . S
C1141 N113 1.428 . S
C1145 N104 1.433 . S
C1159 N146 1.436 . S
C1163 N137 1.440 . S
C1177 N170 1.439 . S
C1181 N179 1.436 . S
C1195 N203 1.435 . S
C1199 N212 1.430 . S
C1213 N245 1.427 . S
C1217 N236 1.431 . S
C1231 N278 1.431 . S
C1235 N269 1.435 . S
C1249 N302 1.439 . S
C1253 N311 1.435 . S
C1267 N335 1.438 . S
C1271 N344 1.435 . S
C1285 N368 1.432 . S
C1289 N377 1.428 . S
C1303 N401 1.434 . S
C1307 N410 1.430 . S
C1321 N434 1.433 . S
C1325 N443 1.429 . S
C1339 N476 1.431 . S
C1343 N467 1.434 . S
C1357 N500 1.440 . S
C1361 N509 1.436 . S
C1375 N542 1.435 . S
C1379 N533 1.438 . S
C1393 N575 1.437 . S
C1397 N566 1.441 . S
