# Generated by pormake.
# Topology gsi, (4)-cn, num edge types: 1
# Building blocks:
#     Node 0, Type 0, BuildingBlock: QUQFOY_clean_sbu_1, # of connection points: 4
#     Node 1, Type 0, BuildingBlock: QUQFOY_clean_sbu_1, # of connection points: 4
#     Node 2, Type 0, BuildingBlock: QUQFOY_clean_sbu_1, # of connection points: 4
#     Node 3, Type 0, BuildingBlock: QUQFOY_clean_sbu_1, # of connection points: 4
#     Node 4, Type 0, BuildingBlock: QUQFOY_clean_sbu_1, # of connection points: 4
#     Node 5, Type 0, BuildingBlock: QUQFOY_clean_sbu_1, # of connection points: 4
#     Node 6, Type 0, BuildingBlock: QUQFOY_clean_sbu_1, # of connection points: 4
#     Node 7, Type 0, BuildingBlock: QUQFOY_clean_sbu_1, # of connection points: 4
#     Node 8, Type 0, BuildingBlock: QUQFOY_clean_sbu_1, # of connection points: 4
#     Node 9, Type 0, BuildingBlock: QUQFOY_clean_sbu_1, # of connection points: 4
#     Node 10, Type 0, BuildingBlock: QUQFOY_clean_sbu_1, # of connection points: 4
#     Node 11, Type 0, BuildingBlock: QUQFOY_clean_sbu_1, # of connection points: 4
#     Node 12, Type 0, BuildingBlock: QUQFOY_clean_sbu_1, # of connection points: 4
#     Node 13, Type 0, BuildingBlock: QUQFOY_clean_sbu_1, # of connection points: 4
#     Node 14, Type 0, BuildingBlock: QUQFOY_clean_sbu_1, # of connection points: 4
#     Node 15, Type 0, BuildingBlock: QUQFOY_clean_sbu_1, # of connection points: 4
#     Edge 16, Type (0, 0), BuildingBlock: ZUJKAS_clean_linker_0, # of connection points: 2
#     Edge 17, Type (0, 0), BuildingBlock: ZUJKAS_clean_linker_0, # of connection points: 2
#     Edge 18, Type (0, 0), BuildingBlock: ZUJKAS_clean_linker_0, # of connection points: 2
#     Edge 19, Type (0, 0), BuildingBlock: ZUJKAS_clean_linker_0, # of connection points: 2
#     Edge 20, Type (0, 0), BuildingBlock: ZUJKAS_clean_linker_0, # of connection points: 2
#     Edge 21, Type (0, 0), BuildingBlock: ZUJKAS_clean_linker_0, # of connection points: 2
#     Edge 22, Type (0, 0), BuildingBlock: ZUJKAS_clean_linker_0, # of connection points: 2
#     Edge 23, Type (0, 0), BuildingBlock: ZUJKAS_clean_linker_0, # of connection points: 2
#     Edge 24, Type (0, 0), BuildingBlock: ZUJKAS_clean_linker_0, # of connection points: 2
#     Edge 25, Type (0, 0), BuildingBlock: ZUJKAS_clean_linker_0, # of connection points: 2
#     Edge 26, Type (0, 0), BuildingBlock: ZUJKAS_clean_linker_0, # of connection points: 2
#     Edge 27, Type (0, 0), BuildingBlock: ZUJKAS_clean_linker_0, # of connection points: 2
#     Edge 28, Type (0, 0), BuildingBlock: ZUJKAS_clean_linker_0, # of connection points: 2
#     Edge 29, Type (0, 0), BuildingBlock: ZUJKAS_clean_linker_0, # of connection points: 2
#     Edge 30, Type (0, 0), BuildingBlock: ZUJKAS_clean_linker_0, # of connection points: 2
#     Edge 31, Type (0, 0), BuildingBlock: ZUJKAS_clean_linker_0, # of connection points: 2
#     Edge 32, Type (0, 0), BuildingBlock: ZUJKAS_clean_linker_0, # of connection points: 2
#     Edge 33, Type (0, 0), BuildingBlock: ZUJKAS_clean_linker_0, # of connection points: 2
#     Edge 34, Type (0, 0), BuildingBlock: ZUJKAS_clean_linker_0, # of connection points: 2
#     Edge 35, Type (0, 0), BuildingBlock: ZUJKAS_clean_linker_0, # of connection points: 2
#     Edge 36, Type (0, 0), BuildingBlock: ZUJKAS_clean_linker_0, # of connection points: 2
#     Edge 37, Type (0, 0), BuildingBlock: ZUJKAS_clean_linker_0, # of connection points: 2
#     Edge 38, Type (0, 0), BuildingBlock: ZUJKAS_clean_linker_0, # of connection points: 2
#     Edge 39, Type (0, 0), BuildingBlock: ZUJKAS_clean_linker_0, # of connection points: 2
#     Edge 40, Type (0, 0), BuildingBlock: ZUJKAS_clean_linker_0, # of connection points: 2
#     Edge 41, Type (0, 0), BuildingBlock: ZUJKAS_clean_linker_0, # of connection points: 2
#     Edge 42, Type (0, 0), BuildingBlock: ZUJKAS_clean_linker_0, # of connection points: 2
#     Edge 43, Type (0, 0), BuildingBlock: ZUJKAS_clean_linker_0, # of connection points: 2
#     Edge 44, Type (0, 0), BuildingBlock: ZUJKAS_clean_linker_0, # of connection points: 2
#     Edge 45, Type (0, 0), BuildingBlock: ZUJKAS_clean_linker_0, # of connection points: 2
#     Edge 46, Type (0, 0), BuildingBlock: ZUJKAS_clean_linker_0, # of connection points: 2
#     Edge 47, Type (0, 0), BuildingBlock: ZUJKAS_clean_linker_0, # of connection points: 2
# Relax obj value: 0.160
# Max RMSD: 0.219
# Mean RMSD: 0.173
data_MOF--net-gsi--node1-QUQFOY_clean_sbu_1--edge1-ZUJKAS_clean_linker_0
_symmetry_space_group_name_H-M    P1
_symmetry_Int_Tables_number       1
_symmetry_cell_setting            triclinic
loop_
_symmetry_equiv_pos_as_xyz
'x, y, z'
_cell_length_a     46.704719
_cell_length_b     59.439607
_cell_length_c     61.690037
_cell_angle_alpha  90.019416
_cell_angle_beta   89.977122
_cell_angle_gamma 100.91883
loop_
_atom_site_label
_atom_site_type_symbol
_atom_site_fract_x
_atom_site_fract_y
_atom_site_fract_z
_atom_type_partial_charge
O0 O 0.12478 0.18071 0.12164 0.0
Cd1 Cd 0.16191 0.16743 0.12635 0.0
Cd2 Cd 0.12967 0.14445 0.15885 0.0
O3 O 0.09691 0.15941 0.14566 0.0
O4 O 0.18514 0.17374 0.09927 0.0
O5 O 0.16697 0.13866 0.1107 0.0
C6 C 0.18158 0.15191 0.09631 0.0
C7 C 0.12154 0.10638 0.17054 0.0
C8 C 0.1003 0.17482 0.13105 0.0
C9 C 0.18347 0.17885 0.17109 0.0
O10 O 0.16078 0.16509 0.17731 0.0
O11 O 0.18894 0.18197 0.15103 0.0
O12 O 0.1104 0.12172 0.18053 0.0
O13 O 0.13586 0.11235 0.15287 0.0
O14 O 0.87209 0.32188 0.12562 0.0
Cd15 Cd 0.8373 0.33815 0.13087 0.0
Cd16 Cd 0.8728 0.35876 0.16163 0.0
O17 O 0.9041 0.34423 0.14618 0.0
O18 O 0.81207 0.33116 0.1048 0.0
O19 O 0.83399 0.3663 0.11349 0.0
C20 C 0.81749 0.35273 0.10032 0.0
C21 C 0.87899 0.39715 0.17164 0.0
C22 C 0.89793 0.32769 0.13285 0.0
C23 C 0.81915 0.32686 0.17641 0.0
O24 O 0.84448 0.33743 0.18151 0.0
O25 O 0.81058 0.32668 0.15684 0.0
O26 O 0.89313 0.38333 0.18119 0.0
O27 O 0.86267 0.38949 0.15532 0.0
O28 O 0.13946 0.84246 0.35618 0.0
Cd29 Cd 0.18207 0.85903 0.35262 0.0
Cd30 Cd 0.1542 0.87339 0.31323 0.0
O31 O 0.11758 0.85497 0.32812 0.0
O32 O 0.19871 0.847 0.37896 0.0
O33 O 0.20014 0.88384 0.37404 0.0
C34 C 0.20588 0.86757 0.38615 0.0
C35 C 0.14853 0.90611 0.29356 0.0
C36 C 0.11659 0.84281 0.34515 0.0
C37 C 0.20158 0.84485 0.30871 0.0
O38 O 0.18237 0.85436 0.29985 0.0
O39 O 0.20567 0.84604 0.32907 0.0
O40 O 0.13786 0.88576 0.28685 0.0
O41 O 0.16237 0.90807 0.31179 0.0
O42 O 0.84866 0.65987 0.3583 0.0
Cd43 Cd 0.80742 0.64102 0.35337 0.0
Cd44 Cd 0.83836 0.62665 0.31651 0.0
O45 O 0.87337 0.64506 0.33323 0.0
O46 O 0.78635 0.65076 0.37878 0.0
O47 O 0.79122 0.61496 0.37396 0.0
C48 C 0.78165 0.62998 0.38562 0.0
C49 C 0.84584 0.59391 0.29763 0.0
C50 C 0.87261 0.65868 0.34902 0.0
C51 C 0.79092 0.65422 0.30858 0.0
O52 O 0.81195 0.6458 0.30107 0.0
O53 O 0.7843 0.65228 0.32856 0.0
O54 O 0.85801 0.61422 0.29169 0.0
O55 O 0.82943 0.59198 0.31464 0.0
O56 O 0.37769 0.82381 0.62405 0.0
Cd57 Cd 0.3388 0.83501 0.62707 0.0
Cd58 Cd 0.36665 0.8572 0.66273 0.0
O59 O 0.40066 0.84208 0.65205 0.0
O60 O 0.31873 0.82694 0.59893 0.0
O61 O 0.33137 0.86265 0.61045 0.0
C62 C 0.31963 0.84847 0.59565 0.0
C63 C 0.37477 0.89478 0.67588 0.0
C64 C 0.40014 0.82848 0.63605 0.0
C65 C 0.31213 0.82171 0.67036 0.0
O66 O 0.3328 0.83631 0.67834 0.0
O67 O 0.31016 0.81846 0.65002 0.0
O68 O 0.38349 0.87855 0.6863 0.0
O69 O 0.36277 0.88996 0.65716 0.0
O70 O 0.8572 0.89896 0.85004 0.0
Cd71 Cd 0.84775 0.86691 0.86409 0.0
Cd72 Cd 0.89877 0.86381 0.8464 0.0
O73 O 0.90241 0.89844 0.83999 0.0
O74 O 0.81571 0.86814 0.88518 0.0
O75 O 0.85964 0.86327 0.89508 0.0
C76 C 0.83362 0.86555 0.90048 0.0
C77 C 0.93225 0.84596 0.86424 0.0
C78 C 0.88107 0.90887 0.84153 0.0
C79 C 0.84665 0.83327 0.82793 0.0
O80 O 0.87333 0.84216 0.82519 0.0
O81 O 0.83249 0.83955 0.84372 0.0
O82 O 0.93786 0.85502 0.84533 0.0
O83 O 0.90861 0.84884 0.87387 0.0
O84 O 0.14588 0.60148 0.84936 0.0
Cd85 Cd 0.15618 0.6332 0.86372 0.0
Cd86 Cd 0.10501 0.63752 0.84676 0.0
O87 O 0.10073 0.60281 0.8398 0.0
O88 O 0.18765 0.63124 0.88506 0.0
O89 O 0.14398 0.63713 0.89458 0.0
C90 C 0.1697 0.63428 0.90019 0.0
C91 C 0.07117 0.65539 0.86423 0.0
C92 C 0.12179 0.59201 0.8409 0.0
C93 C 0.1581 0.66742 0.82825 0.0
O94 O 0.13099 0.65966 0.82609 0.0
O95 O 0.17248 0.66012 0.84333 0.0
O96 O 0.06615 0.64665 0.84514 0.0
O97 O 0.09433 0.6521 0.87425 0.0
O98 O 0.87395 0.15051 0.67341 0.0
Cd99 Cd 0.83805 0.13311 0.68981 0.0
Cd100 Cd 0.80875 0.14763 0.64975 0.0
O101 O 0.85224 0.16028 0.64396 0.0
O102 O 0.85573 0.12196 0.71625 0.0
O103 O 0.83035 0.09849 0.69256 0.0
C104 C 0.84509 0.10131 0.71038 0.0
C105 C 0.78129 0.14099 0.61753 0.0
C106 C 0.87515 0.16044 0.6551 0.0
C107 C 0.79329 0.16396 0.69443 0.0
O108 O 0.78934 0.16327 0.67404 0.0
O109 O 0.81099 0.15296 0.7033 0.0
O110 O 0.79263 0.16124 0.62401 0.0
O111 O 0.78502 0.12403 0.62955 0.0
O112 O 0.11794 0.34993 0.66949 0.0
Cd113 Cd 0.15333 0.36659 0.68684 0.0
Cd114 Cd 0.18357 0.35197 0.6475 0.0
O115 O 0.14037 0.339 0.6409 0.0
O116 O 0.13393 0.37779 0.71248 0.0
O117 O 0.16255 0.40113 0.69043 0.0
C118 C 0.14605 0.39838 0.70739 0.0
C119 C 0.21237 0.35931 0.61597 0.0
C120 C 0.11715 0.33945 0.65148 0.0
C121 C 0.1971 0.33514 0.69243 0.0
O122 O 0.20216 0.3363 0.67217 0.0
O123 O 0.17892 0.34594 0.70097 0.0
O124 O 0.20101 0.33891 0.62201 0.0
O125 O 0.20783 0.37601 0.62804 0.0
O126 O 0.64794 0.10636 0.34913 0.0
Cd127 Cd 0.65514 0.13744 0.36517 0.0
Cd128 Cd 0.6053 0.13999 0.346 0.0
O129 O 0.60235 0.10546 0.33935 0.0
O130 O 0.6861 0.13553 0.38695 0.0
O131 O 0.64126 0.13884 0.39599 0.0
C132 C 0.6672 0.13684 0.40189 0.0
C133 C 0.57051 0.1574 0.3628 0.0
C134 C 0.62451 0.0959 0.34037 0.0
C135 C 0.65794 0.17209 0.33019 0.0
O136 O 0.63206 0.16213 0.32586 0.0
O137 O 0.67083 0.16625 0.34682 0.0
O138 O 0.56653 0.1491 0.34346 0.0
O139 O 0.59319 0.15394 0.37337 0.0
O140 O 0.62713 0.68055 0.62546 0.0
Cd141 Cd 0.66409 0.66651 0.62873 0.0
Cd142 Cd 0.63366 0.64543 0.66306 0.0
O143 O 0.60074 0.6609 0.65126 0.0
O144 O 0.6856 0.67324 0.60091 0.0
O145 O 0.66787 0.63799 0.61202 0.0
C146 C 0.68171 0.65148 0.59748 0.0
C147 C 0.62541 0.60743 0.67488 0.0
C148 C 0.60348 0.67573 0.63615 0.0
C149 C 0.68914 0.67882 0.67264 0.0
O150 O 0.66625 0.66614 0.68 0.0
O151 O 0.69343 0.68067 0.65233 0.0
O152 O 0.61551 0.62306 0.68542 0.0
O153 O 0.63864 0.61312 0.65673 0.0
O154 O 0.64278 0.34308 0.86076 0.0
Cd155 Cd 0.68532 0.35972 0.85676 0.0
Cd156 Cd 0.65763 0.37497 0.818 0.0
O157 O 0.62108 0.3572 0.83348 0.0
O158 O 0.7039 0.34909 0.88296 0.0
O159 O 0.70291 0.3855 0.87724 0.0
C160 C 0.71041 0.36997 0.88944 0.0
C161 C 0.65208 0.40752 0.79797 0.0
C162 C 0.61988 0.34442 0.85011 0.0
C163 C 0.70398 0.34567 0.81263 0.0
O164 O 0.68476 0.35539 0.80408 0.0
O165 O 0.70851 0.34679 0.83294 0.0
O166 O 0.64071 0.38714 0.79175 0.0
O167 O 0.6665 0.40965 0.81594 0.0
O168 O 0.35057 0.16171 0.85789 0.0
Cd169 Cd 0.30954 0.14219 0.85362 0.0
Cd170 Cd 0.33969 0.12877 0.81604 0.0
O171 O 0.37484 0.14853 0.83151 0.0
O172 O 0.28896 0.15151 0.87945 0.0
O173 O 0.29453 0.11592 0.87429 0.0
C174 C 0.28484 0.1307 0.88619 0.0
C175 C 0.3474 0.09582 0.79768 0.0
C176 C 0.37422 0.16162 0.84774 0.0
C177 C 0.29029 0.15461 0.80926 0.0
O178 O 0.31121 0.14649 0.80117 0.0
O179 O 0.28497 0.15301 0.82946 0.0
O180 O 0.35794 0.11608 0.79068 0.0
O181 O 0.33264 0.0941 0.81551 0.0
O182 O 0.3526 0.39788 0.3498 0.0
Cd183 Cd 0.34089 0.36669 0.36504 0.0
Cd184 Cd 0.39109 0.3596 0.34695 0.0
O185 O 0.39555 0.3936 0.33729 0.0
O186 O 0.31084 0.37063 0.38692 0.0
O187 O 0.35399 0.36315 0.39575 0.0
C188 C 0.32897 0.36724 0.40177 0.0
C189 C 0.42725 0.34296 0.36297 0.0
C190 C 0.37593 0.40568 0.33948 0.0
C191 C 0.33552 0.32977 0.33173 0.0
O192 O 0.36284 0.33597 0.32921 0.0
O193 O 0.32206 0.33933 0.34588 0.0
O194 O 0.42915 0.34965 0.34304 0.0
O195 O 0.40595 0.34762 0.37445 0.0
O196 O 0.37573 0.65057 0.17396 0.0
Cd197 Cd 0.33917 0.63238 0.18896 0.0
Cd198 Cd 0.31207 0.64761 0.14858 0.0
O199 O 0.3557 0.66068 0.1439 0.0
O200 O 0.3558 0.6203 0.2154 0.0
O201 O 0.33164 0.59767 0.19055 0.0
C202 C 0.34569 0.59985 0.20868 0.0
C203 C 0.28583 0.64103 0.11581 0.0
C204 C 0.37793 0.66087 0.15581 0.0
C205 C 0.29423 0.66301 0.19303 0.0
O206 O 0.29152 0.66284 0.17252 0.0
O207 O 0.3113 0.65169 0.20226 0.0
O208 O 0.29681 0.66128 0.1225 0.0
O209 O 0.28926 0.62405 0.12791 0.0
O210 O 0.62388 0.85235 0.17221 0.0
Cd211 Cd 0.66024 0.8695 0.18818 0.0
Cd212 Cd 0.68809 0.85407 0.14792 0.0
O213 O 0.64449 0.84119 0.14285 0.0
O214 O 0.64232 0.88104 0.21436 0.0
O215 O 0.66926 0.90412 0.19118 0.0
C216 C 0.65382 0.90158 0.20868 0.0
C217 C 0.7149 0.86026 0.11536 0.0
C218 C 0.62197 0.84168 0.15425 0.0
C219 C 0.70424 0.83807 0.19259 0.0
O220 O 0.70798 0.83876 0.17217 0.0
O221 O 0.68674 0.84916 0.20162 0.0
O222 O 0.70367 0.8401 0.12213 0.0
O223 O 0.71142 0.87738 0.12727 0.0
H224 H 0.21619 0.22172 0.16681 0.0
H225 H 0.24348 0.24526 0.1952 0.0
H226 H 0.22183 0.18919 0.24043 0.0
H227 H 0.19306 0.16613 0.2124 0.0
H228 H 0.21329 0.22577 0.2588 0.0
H229 H 0.3216 0.24658 0.21995 0.0
H230 H 0.29453 0.2555 0.20318 0.0
H231 H 0.29246 0.22547 0.20886 0.0
C232 C 0.21765 0.21435 0.18274 0.0
C233 C 0.20262 0.19212 0.18743 0.0
C234 C 0.23341 0.22775 0.19893 0.0
C235 C 0.23523 0.21889 0.2199 0.0
C236 C 0.2208 0.19643 0.2244 0.0
H237 H 0.35581 0.2941 0.31382 0.0
H238 H 0.33058 0.26544 0.28851 0.0
C239 C 0.20445 0.18324 0.20837 0.0
C240 C 0.2505 0.23348 0.23752 0.0
H241 H 0.31357 0.27039 0.24992 0.0
C242 C 0.23538 0.2353 0.25695 0.0
C243 C 0.27948 0.24565 0.23532 0.0
C244 C 0.29803 0.243 0.21579 0.0
C245 C 0.24816 0.24925 0.27403 0.0
C246 C 0.27642 0.2626 0.27126 0.0
C247 C 0.29176 0.26042 0.252 0.0
C248 C 0.29063 0.27893 0.288 0.0
C249 C 0.23138 0.2491 0.29496 0.0
C250 C 0.27653 0.29597 0.29637 0.0
C251 C 0.29067 0.31199 0.31132 0.0
C252 C 0.31949 0.31171 0.31757 0.0
C253 C 0.33359 0.29472 0.3092 0.0
C254 C 0.31921 0.27837 0.29472 0.0
H255 H 0.21569 0.23269 0.29712 0.0
H256 H 0.24616 0.2517 0.3092 0.0
H257 H 0.21862 0.26306 0.29459 0.0
H258 H 0.25487 0.29728 0.29095 0.0
H259 H 0.27949 0.32513 0.31731 0.0
H260 H 0.76337 0.30276 0.17173 0.0
H261 H 0.73366 0.27912 0.19897 0.0
H262 H 0.8027 0.29711 0.24584 0.0
H263 H 0.83231 0.32108 0.21895 0.0
H264 H 0.74786 0.24177 0.21925 0.0
H265 H 0.73198 0.30687 0.28022 0.0
H266 H 0.7447 0.31439 0.25305 0.0
H267 H 0.76954 0.30786 0.27335 0.0
C268 C 0.77209 0.30195 0.18792 0.0
C269 C 0.80022 0.31383 0.19316 0.0
C270 C 0.75508 0.28843 0.20345 0.0
C271 C 0.76583 0.28662 0.22449 0.0
C272 C 0.79371 0.29869 0.22985 0.0
H273 H 0.7129 0.19793 0.33447 0.0
H274 H 0.73854 0.2263 0.30888 0.0
C275 C 0.81069 0.31227 0.21438 0.0
C276 C 0.74882 0.27078 0.24035 0.0
H277 H 0.71979 0.26772 0.29133 0.0
C278 C 0.74147 0.24747 0.23492 0.0
C279 C 0.74069 0.27828 0.26083 0.0
C280 C 0.74688 0.30325 0.26717 0.0
C281 C 0.72667 0.23136 0.2496 0.0
C282 C 0.7188 0.23883 0.27012 0.0
C283 C 0.72601 0.26212 0.27557 0.0
C284 C 0.70283 0.22259 0.28604 0.0
C285 C 0.7201 0.20638 0.24325 0.0
C286 C 0.67415 0.21153 0.28177 0.0
C287 C 0.65945 0.1954 0.2963 0.0
C288 C 0.67319 0.19004 0.31541 0.0
C289 C 0.70174 0.20159 0.31988 0.0
C290 C 0.7164 0.21781 0.30532 0.0
H291 H 0.73287 0.2029 0.22884 0.0
H292 H 0.72486 0.19544 0.25686 0.0
H293 H 0.69659 0.20135 0.23926 0.0
H294 H 0.66323 0.21526 0.26707 0.0
H295 H 0.63743 0.18692 0.29239 0.0
H296 H 0.2998 0.6718 0.23658 0.0
H297 H 0.2833 0.70254 0.25652 0.0
H298 H 0.24177 0.72167 0.19878 0.0
H299 H 0.25783 0.6909 0.17872 0.0
H300 H 0.29974 0.74908 0.24528 0.0
H301 H 0.17933 0.72155 0.2455 0.0
H302 H 0.20373 0.70203 0.23993 0.0
H303 H 0.19583 0.72123 0.21922 0.0
C304 C 0.2866 0.6822 0.22821 0.0
C305 C 0.28022 0.67891 0.206 0.0
C306 C 0.27731 0.69982 0.23963 0.0
C307 C 0.26125 0.7143 0.22914 0.0
C308 C 0.25378 0.71047 0.20725 0.0
H309 H 0.19619 0.83615 0.26516 0.0
H310 H 0.21357 0.80589 0.24514 0.0
C311 C 0.26307 0.69289 0.1958 0.0
C312 C 0.25432 0.7345 0.24056 0.0
H313 H 0.19802 0.75987 0.25633 0.0
C314 C 0.27751 0.7514 0.24784 0.0
C315 C 0.22531 0.73751 0.24369 0.0
C316 C 0.19958 0.71954 0.23686 0.0
C317 C 0.27246 0.77147 0.2579 0.0
C318 C 0.24345 0.77449 0.26103 0.0
C319 C 0.22027 0.75756 0.25377 0.0
C320 C 0.23643 0.79471 0.27239 0.0
C321 C 0.2982 0.78946 0.26468 0.0
C322 C 0.24415 0.79879 0.29421 0.0
C323 C 0.23438 0.81614 0.3057 0.0
C324 C 0.21644 0.82958 0.29562 0.0
C325 C 0.20994 0.82613 0.27345 0.0
C326 C 0.21975 0.80879 0.26198 0.0
H327 H 0.31837 0.78755 0.25589 0.0
H328 H 0.29397 0.80697 0.26177 0.0
H329 H 0.30217 0.78766 0.28228 0.0
H330 H 0.25661 0.78789 0.30264 0.0
H331 H 0.23973 0.81824 0.32275 0.0
H332 H 0.74892 0.67842 0.32012 0.0
H333 H 0.73298 0.70882 0.29942 0.0
H334 H 0.78588 0.6955 0.24536 0.0
H335 H 0.80186 0.66494 0.26581 0.0
H336 H 0.77369 0.7474 0.28447 0.0
H337 H 0.70794 0.70218 0.21697 0.0
H338 H 0.71543 0.68779 0.24153 0.0
H339 H 0.74293 0.69441 0.22093 0.0
C340 C 0.75665 0.68153 0.30364 0.0
C341 C 0.77684 0.6693 0.29468 0.0
C342 C 0.74758 0.69898 0.29187 0.0
C343 C 0.75824 0.70436 0.27089 0.0
C344 C 0.77712 0.69141 0.26144 0.0
H345 H 0.74279 0.81161 0.17895 0.0
H346 H 0.75836 0.78044 0.19875 0.0
C347 C 0.78627 0.67396 0.2732 0.0
C348 C 0.75188 0.72489 0.25975 0.0
H349 H 0.7205 0.74268 0.21456 0.0
C350 C 0.76191 0.7464 0.26924 0.0
C351 C 0.7368 0.72347 0.23981 0.0
C352 C 0.72491 0.70073 0.22924 0.0
C353 C 0.75755 0.76664 0.25918 0.0
C354 C 0.74228 0.76523 0.2393 0.0
C355 C 0.73231 0.7437 0.22977 0.0
C356 C 0.73564 0.78579 0.22831 0.0
C357 C 0.76986 0.78934 0.26969 0.0
C358 C 0.71821 0.79943 0.23855 0.0
C359 C 0.70941 0.81737 0.22734 0.0
C360 C 0.7176 0.82182 0.20558 0.0
C361 C 0.73604 0.80867 0.19567 0.0
C362 C 0.74489 0.79078 0.20692 0.0
H363 H 0.78779 0.78789 0.28113 0.0
H364 H 0.77825 0.80254 0.25734 0.0
H365 H 0.75237 0.79528 0.27901 0.0
H366 H 0.7104 0.79562 0.25492 0.0
H367 H 0.69508 0.82705 0.23544 0.0
H368 H 0.29359 0.83354 0.70981 0.0
H369 H 0.26421 0.80844 0.73618 0.0
H370 H 0.25709 0.75191 0.69131 0.0
H371 H 0.28497 0.77736 0.66441 0.0
H372 H 0.20833 0.74913 0.7119 0.0
H373 H 0.29703 0.7647 0.77265 0.0
H374 H 0.28519 0.79066 0.76544 0.0
H375 H 0.30198 0.77538 0.74532 0.0
C376 C 0.2854 0.81581 0.70552 0.0
C377 C 0.2917 0.8073 0.68518 0.0
C378 C 0.26889 0.80143 0.72066 0.0
C379 C 0.25931 0.77808 0.71604 0.0
C380 C 0.26448 0.76981 0.69534 0.0
H381 H 0.21492 0.67414 0.81544 0.0
H382 H 0.23864 0.70062 0.78766 0.0
C383 C 0.28035 0.78435 0.67996 0.0
C384 C 0.24452 0.76217 0.73289 0.0
H385 H 0.25115 0.74431 0.78491 0.0
C386 C 0.21776 0.74799 0.72783 0.0
C387 C 0.25712 0.7603 0.75354 0.0
C388 C 0.28705 0.77339 0.75948 0.0
C389 C 0.20316 0.73213 0.74286 0.0
C390 C 0.21501 0.73115 0.76391 0.0
C391 C 0.24185 0.74524 0.7689 0.0
C392 C 0.20045 0.71523 0.78085 0.0
C393 C 0.17572 0.71614 0.73569 0.0
C394 C 0.17127 0.71487 0.78659 0.0
C395 C 0.15752 0.69936 0.80207 0.0
C396 C 0.173 0.68447 0.81263 0.0
C397 C 0.20252 0.68548 0.80757 0.0
C398 C 0.21605 0.70059 0.79169 0.0
H399 H 0.17509 0.71394 0.7178 0.0
H400 H 0.17379 0.69899 0.7433 0.0
H401 H 0.15648 0.72348 0.74041 0.0
H402 H 0.15907 0.72656 0.77909 0.0
H403 H 0.13483 0.69913 0.80591 0.0
H404 H 0.73444 0.71403 0.66331 0.0
H405 H 0.76524 0.73895 0.68918 0.0
H406 H 0.72103 0.6998 0.74228 0.0
H407 H 0.69024 0.67482 0.71668 0.0
H408 H 0.74211 0.76496 0.722 0.0
H409 H 0.80909 0.70595 0.75676 0.0
H410 H 0.7905 0.70072 0.73104 0.0
H411 H 0.77055 0.69475 0.75594 0.0
C412 C 0.73159 0.71049 0.68048 0.0
C413 C 0.70984 0.69248 0.68794 0.0
C414 C 0.74915 0.72477 0.69521 0.0
C415 C 0.74552 0.72105 0.71758 0.0
C416 C 0.72444 0.70272 0.72506 0.0
H417 H 0.78849 0.81434 0.8253 0.0
H418 H 0.76447 0.78694 0.79826 0.0
C419 C 0.70676 0.68855 0.71038 0.0
C420 C 0.76212 0.73732 0.73321 0.0
H421 H 0.81008 0.74121 0.77539 0.0
C422 C 0.75714 0.75985 0.73358 0.0
C423 C 0.78175 0.73054 0.74819 0.0
C424 C 0.78856 0.70673 0.74793 0.0
C425 C 0.77081 0.77572 0.74893 0.0
C426 C 0.78971 0.76874 0.76436 0.0
C427 C 0.79528 0.74637 0.76365 0.0
C428 C 0.80424 0.7846 0.78116 0.0
C429 C 0.76507 0.79986 0.7485 0.0
C430 C 0.83457 0.79186 0.7807 0.0
C431 C 0.84834 0.80749 0.79605 0.0
C432 C 0.83203 0.81598 0.81228 0.0
C433 C 0.80167 0.80819 0.81299 0.0
C434 C 0.78789 0.79263 0.79753 0.0
H435 H 0.75496 0.80376 0.73299 0.0
H436 H 0.74995 0.80203 0.76189 0.0
H437 H 0.78561 0.81248 0.75093 0.0
H438 H 0.84751 0.78574 0.76821 0.0
H439 H 0.87178 0.81303 0.7951 0.0
H440 H 0.74257 0.31912 0.82598 0.0
H441 H 0.75929 0.28895 0.80538 0.0
H442 H 0.71386 0.30646 0.74886 0.0
H443 H 0.69722 0.33682 0.76918 0.0
H444 H 0.7203 0.25197 0.78709 0.0
H445 H 0.79348 0.29934 0.72459 0.0
H446 H 0.78342 0.31286 0.74893 0.0
H447 H 0.75845 0.3075 0.72654 0.0
C448 C 0.73666 0.31695 0.80902 0.0
C449 C 0.71841 0.33035 0.79927 0.0
C450 C 0.74617 0.29963 0.79732 0.0
C451 C 0.73787 0.29554 0.77561 0.0
C452 C 0.72085 0.30956 0.76551 0.0
H453 H 0.75643 0.19183 0.68082 0.0
H454 H 0.74073 0.22253 0.7013 0.0
C455 C 0.71129 0.32688 0.7772 0.0
C456 C 0.74479 0.27536 0.76415 0.0
H457 H 0.77939 0.2591 0.71976 0.0
C458 C 0.73338 0.25349 0.77244 0.0
C459 C 0.76164 0.27746 0.74499 0.0
C460 C 0.7752 0.30055 0.73579 0.0
C461 C 0.73803 0.2336 0.76186 0.0
C462 C 0.7549 0.2357 0.74269 0.0
C463 C 0.76633 0.25757 0.73441 0.0
C464 C 0.76162 0.21548 0.73116 0.0
C465 C 0.72432 0.21053 0.77102 0.0
C466 C 0.77808 0.20107 0.74132 0.0
C467 C 0.787 0.18343 0.72971 0.0
C468 C 0.77984 0.18002 0.70764 0.0
C469 C 0.76234 0.19394 0.69777 0.0
C470 C 0.75343 0.21157 0.70941 0.0
H471 H 0.70592 0.21177 0.78209 0.0
H472 H 0.71622 0.1982 0.75787 0.0
H473 H 0.74093 0.20358 0.78042 0.0
H474 H 0.78502 0.20403 0.758 0.0
H475 H 0.80055 0.17311 0.7378 0.0
H476 H 0.18626 0.32389 0.73509 0.0
H477 H 0.20146 0.29272 0.7551 0.0
H478 H 0.25167 0.27795 0.7 0.0
H479 H 0.23631 0.30888 0.67969 0.0
H480 H 0.21343 0.23978 0.71584 0.0
H481 H 0.27925 0.28664 0.78239 0.0
H482 H 0.24364 0.29353 0.77945 0.0
H483 H 0.27006 0.30073 0.75814 0.0
C484 C 0.20101 0.31434 0.72733 0.0
C485 C 0.20998 0.31886 0.70574 0.0
C486 C 0.20972 0.29654 0.73884 0.0
C487 C 0.2278 0.28312 0.72905 0.0
C488 C 0.2377 0.28813 0.70782 0.0
H489 H 0.29872 0.16488 0.76619 0.0
H490 H 0.28043 0.19453 0.74601 0.0
C491 C 0.22897 0.30588 0.69628 0.0
C492 C 0.23469 0.26285 0.74038 0.0
H493 H 0.26704 0.24616 0.78563 0.0
C494 C 0.22528 0.24115 0.73105 0.0
C495 C 0.24998 0.26474 0.76026 0.0
C496 C 0.26157 0.28767 0.77059 0.0
C497 C 0.23048 0.2212 0.74123 0.0
C498 C 0.24579 0.2231 0.76109 0.0
C499 C 0.25511 0.24478 0.77045 0.0
C500 C 0.25343 0.20296 0.77216 0.0
C501 C 0.21917 0.19826 0.73083 0.0
C502 C 0.24393 0.19763 0.79343 0.0
C503 C 0.25438 0.18072 0.80506 0.0
C504 C 0.27478 0.16899 0.79566 0.0
C505 C 0.28301 0.17353 0.77392 0.0
C506 C 0.27251 0.19045 0.76231 0.0
H507 H 0.20149 0.1992 0.71902 0.0
H508 H 0.23723 0.19257 0.722 0.0
H509 H 0.21081 0.18513 0.74325 0.0
H510 H 0.2292 0.20713 0.80129 0.0
H511 H 0.24754 0.17766 0.82175 0.0
H512 H 0.16565 0.95168 0.30374 0.0
H513 H 0.1593 0.98476 0.28173 0.0
H514 H 0.11809 0.93926 0.23164 0.0
H515 H 0.1238 0.90626 0.25357 0.0
H516 H 0.18005 0.99781 0.24083 0.0
H517 H 0.05915 0.98052 0.24119 0.0
H518 H 0.08022 0.96627 0.25934 0.0
H519 H 0.07442 0.95679 0.23172 0.0
C520 C 0.1551 0.94874 0.28808 0.0
C521 C 0.14502 0.92633 0.28049 0.0
C522 C 0.15153 0.96764 0.27552 0.0
C523 C 0.13776 0.96447 0.2552 0.0
C524 C 0.12813 0.94213 0.24747 0.0
H525 H 0.14721 0.07123 0.15608 0.0
H526 H 0.15035 0.03573 0.17539 0.0
C527 C 0.13157 0.92327 0.26002 0.0
C528 C 0.1339 0.98447 0.24186 0.0
H529 H 0.08244 0.00933 0.21694 0.0
C530 C 0.15872 1.00038 0.23564 0.0
C531 C 0.10601 0.9879 0.23527 0.0
C532 C 0.0784 0.9721 0.24238 0.0
C533 C 0.15645 0.01952 0.22285 0.0
C534 C 0.12862 0.02258 0.21574 0.0
C535 C 0.10378 0.00677 0.22212 0.0
C536 C 0.12465 0.04288 0.20287 0.0
C537 C 0.18381 0.0366 0.21757 0.0
C538 C 0.10796 0.05809 0.21137 0.0
C539 C 0.10583 0.07819 0.20028 0.0
C540 C 0.12032 0.0835 0.18041 0.0
C541 C 0.13587 0.06769 0.17138 0.0
C542 C 0.13793 0.0475 0.1825 0.0
H543 H 0.20215 0.03471 0.22846 0.0
H544 H 0.19052 0.03381 0.20068 0.0
H545 H 0.17999 0.05443 0.21888 0.0
H546 H 0.09735 0.0548 0.22698 0.0
H547 H 0.0936 0.08993 0.2077 0.0
H548 H 0.83926 0.42482 0.16498 0.0
H549 H 0.83504 0.45949 0.18511 0.0
H550 H 0.91471 0.45614 0.21928 0.0
H551 H 0.91842 0.42101 0.19981 0.0
H552 H 0.87357 0.46129 0.24683 0.0
H553 H 0.8752 0.52495 0.18116 0.0
H554 H 0.84724 0.5001 0.17727 0.0
H555 H 0.88499 0.4974 0.17662 0.0
C556 C 0.85623 0.43178 0.17642 0.0
C557 C 0.87919 0.4202 0.1808 0.0
C558 C 0.85384 0.45167 0.1879 0.0
C559 C 0.8747 0.46062 0.20361 0.0
C560 C 0.89831 0.44958 0.20728 0.0
H561 H 0.88715 0.59243 0.26679 0.0
H562 H 0.89414 0.55974 0.24485 0.0
C563 C 0.90048 0.42955 0.19606 0.0
C564 C 0.87081 0.48034 0.21743 0.0
H565 H 0.85962 0.53545 0.21598 0.0
C566 C 0.87073 0.47757 0.24006 0.0
C567 C 0.86732 0.50165 0.20866 0.0
C568 C 0.86898 0.50632 0.18461 0.0
C569 C 0.86713 0.4954 0.25413 0.0
C570 C 0.86253 0.51642 0.24536 0.0
C571 C 0.86281 0.51926 0.22273 0.0
C572 C 0.85838 0.53598 0.25929 0.0
C573 C 0.86905 0.49166 0.27825 0.0
C574 C 0.83591 0.53359 0.27479 0.0
C575 C 0.83213 0.55224 0.28765 0.0
C576 C 0.85039 0.57373 0.28493 0.0
C577 C 0.87269 0.5761 0.2693 0.0
C578 C 0.87668 0.55743 0.25668 0.0
H579 H 0.88104 0.47767 0.282 0.0
H580 H 0.88012 0.50749 0.28659 0.0
H581 H 0.84672 0.48668 0.28499 0.0
H582 H 0.82102 0.51738 0.27674 0.0
H583 H 0.81456 0.54995 0.29938 0.0
H584 H 0.28668 0.09319 0.91186 0.0
H585 H 0.26655 0.08611 0.94866 0.0
H586 H 0.23064 0.14767 0.94467 0.0
H587 H 0.25067 0.15491 0.90832 0.0
H588 H 0.28121 0.11846 0.98402 0.0
H589 H 0.16237 0.09879 0.96839 0.0
H590 H 0.18909 0.09576 0.94791 0.0
H591 H 0.18081 0.12347 0.9538 0.0
C592 C 0.27404 0.10495 0.91874 0.0
C593 C 0.2703 0.12462 0.90725 0.0
C594 C 0.26263 0.10091 0.93972 0.0
C595 C 0.24681 0.11622 0.94924 0.0
C596 C 0.24233 0.13543 0.93749 0.0
H597 H 0.22073 0.17503 0.06768 0.0
H598 H 0.23744 0.16106 0.03367 0.0
C599 C 0.25398 0.13961 0.91675 0.0
C600 C 0.23712 0.11372 0.97213 0.0
H601 H 0.17727 0.1137 0.0039 0.0
C602 C 0.25842 0.11683 0.98845 0.0
C603 C 0.2074 0.1114 0.97788 0.0
C604 C 0.18355 0.10694 0.96108 0.0
C605 C 0.25092 0.11947 0.01022 0.0
C606 C 0.22144 0.1191 0.01571 0.0
C607 C 0.19991 0.11418 0.99964 0.0
C608 C 0.21296 0.12653 0.03733 0.0
C609 C 0.27473 0.12352 0.02707 0.0
C610 C 0.19344 0.11177 0.05063 0.0
C611 C 0.18386 0.11973 0.07024 0.0
C612 C 0.19327 0.14268 0.07659 0.0
C613 C 0.21306 0.15727 0.06329 0.0
C614 C 0.22281 0.14927 0.04389 0.0
H615 H 0.29405 0.11652 0.02179 0.0
H616 H 0.28182 0.14223 0.02961 0.0
H617 H 0.26687 0.11562 0.04281 0.0
H618 H 0.18538 0.09422 0.04572 0.0
H619 H 0.1685 0.10811 0.08009 0.0
H620 H 0.83343 0.39494 0.08114 0.0
H621 H 0.81643 0.40733 0.0462 0.0
H622 H 0.75863 0.34197 0.03924 0.0
H623 H 0.77544 0.32949 0.07385 0.0
H624 H 0.82068 0.38399 0.00567 0.0
H625 H 0.70641 0.38929 0.02531 0.0
H626 H 0.73421 0.39015 0.04584 0.0
H627 H 0.71659 0.36321 0.03445 0.0
C628 C 0.8168 0.38336 0.07229 0.0
C629 C 0.80579 0.36123 0.08024 0.0
C630 C 0.80716 0.39045 0.05235 0.0
C631 C 0.78601 0.37567 0.0403 0.0
C632 C 0.77457 0.3538 0.04847 0.0
H633 H 0.73982 0.34287 0.91257 0.0
H634 H 0.7609 0.34973 0.94865 0.0
C635 C 0.78436 0.34664 0.0682 0.0
C636 C 0.77733 0.38207 0.01838 0.0
H637 H 0.71733 0.38467 0.98757 0.0
C638 C 0.79821 0.38467 1.00176 0.0
C639 C 0.74808 0.38316 0.01334 0.0
C640 C 0.72505 0.38153 0.03071 0.0
C641 C 0.79018 0.38669 0.98002 0.0
C642 C 0.76055 0.38601 0.97483 0.0
C643 C 0.74003 0.38506 0.99158 0.0
C644 C 0.74989 0.38328 0.9522 0.0
C645 C 0.81325 0.38866 0.96265 0.0
C646 C 0.73663 0.39991 0.94221 0.0
C647 C 0.72465 0.39609 0.92138 0.0
C648 C 0.72528 0.37539 0.9105 0.0
C649 C 0.73894 0.35898 0.92051 0.0
C650 C 0.75116 0.36292 0.9411 0.0
H651 H 0.83533 0.39538 0.96929 0.0
H652 H 0.81331 0.37143 0.95573 0.0
H653 H 0.80874 0.40004 0.94931 0.0
H654 H 0.73523 0.41565 0.95064 0.0
H655 H 0.71411 0.40897 0.91411 0.0
H656 H 0.29088 0.82189 0.56366 0.0
H657 H 0.2721 0.83413 0.52971 0.0
H658 H 0.30226 0.90486 0.5473 0.0
H659 H 0.32143 0.89269 0.5816 0.0
H660 H 0.23011 0.86388 0.52439 0.0
H661 H 0.33753 0.89773 0.48561 0.0
H662 H 0.33421 0.87839 0.50844 0.0
H663 H 0.33071 0.90763 0.51238 0.0
C664 C 0.29358 0.84008 0.5604 0.0
C665 C 0.30775 0.85632 0.57534 0.0
C666 C 0.28277 0.84703 0.54097 0.0
C667 C 0.28598 0.87037 0.53593 0.0
C668 C 0.29986 0.88675 0.55081 0.0
H669 H 0.22406 0.90879 0.40719 0.0
H670 H 0.24355 0.91445 0.44433 0.0
C671 C 0.31067 0.87977 0.57041 0.0
C672 C 0.27452 0.87703 0.51497 0.0
H673 H 0.29581 0.89443 0.46368 0.0
C674 C 0.24441 0.87103 0.51124 0.0
C675 C 0.29323 0.88642 0.49788 0.0
C676 C 0.32577 0.89289 0.50107 0.0
C677 C 0.23268 0.87302 0.49057 0.0
C678 C 0.25157 0.88097 0.47317 0.0
C679 C 0.28144 0.88838 0.47713 0.0
C680 C 0.24118 0.87833 0.4505 0.0
C681 C 0.20028 0.86554 0.48721 0.0
C682 C 0.23406 0.85626 0.4417 0.0
C683 C 0.22319 0.853 0.42068 0.0
C684 C 0.21914 0.87177 0.40795 0.0
C685 C 0.22689 0.89401 0.41661 0.0
C686 C 0.23799 0.89727 0.43777 0.0
H687 H 0.18806 0.86534 0.50269 0.0
H688 H 0.19199 0.87703 0.47556 0.0
H689 H 0.19583 0.84794 0.48038 0.0
H690 H 0.23665 0.84147 0.45123 0.0
H691 H 0.21757 0.83565 0.41456 0.0
H692 H 0.66787 0.60796 0.58065 0.0
H693 H 0.6835 0.59458 0.54563 0.0
H694 H 0.73481 0.66168 0.53354 0.0
H695 H 0.71931 0.67515 0.56817 0.0
H696 H 0.67446 0.61507 0.50381 0.0
H697 H 0.79131 0.61679 0.52089 0.0
H698 H 0.76428 0.61547 0.54207 0.0
H699 H 0.77909 0.64233 0.52928 0.0
C700 C 0.68275 0.61975 0.57061 0.0
C701 C 0.69235 0.64261 0.57717 0.0
C702 C 0.69161 0.6121 0.55064 0.0
C703 C 0.71059 0.62707 0.53716 0.0
C704 C 0.72055 0.64975 0.54387 0.0
H705 H 0.74798 0.65489 0.40745 0.0
H706 H 0.72791 0.64826 0.44387 0.0
C707 C 0.71151 0.65745 0.56363 0.0
C708 C 0.7187 0.61984 0.51537 0.0
H709 H 0.77796 0.61857 0.48333 0.0
C710 C 0.69699 0.6153 0.4994 0.0
C711 C 0.74805 0.61992 0.5097 0.0
C712 C 0.77202 0.62367 0.52643 0.0
C713 C 0.70419 0.61249 0.47758 0.0
C714 C 0.73381 0.61439 0.47166 0.0
C715 C 0.75527 0.61724 0.48787 0.0
C716 C 0.74332 0.61653 0.44872 0.0
C717 C 0.68018 0.60837 0.4609 0.0
C718 C 0.75868 0.60084 0.43931 0.0
C719 C 0.77011 0.60453 0.4183 0.0
C720 C 0.76683 0.62421 0.40665 0.0
C721 C 0.75091 0.63957 0.41601 0.0
C722 C 0.73924 0.63573 0.43678 0.0
H723 H 0.65892 0.60059 0.46832 0.0
H724 H 0.67787 0.62499 0.45359 0.0
H725 H 0.68526 0.597 0.44773 0.0
H726 H 0.76228 0.58602 0.44837 0.0
H727 H 0.78244 0.59249 0.41155 0.0
H728 H 0.88973 0.28758 0.10992 0.0
H729 H 0.92344 0.26103 0.10643 0.0
H730 H 0.98955 0.30864 0.14028 0.0
H731 H 0.9557 0.33513 0.14439 0.0
H732 H 0.97719 0.26274 0.08858 0.0
H733 H 0.98183 0.25171 0.1777 0.0
H734 H 0.95591 0.26639 0.16489 0.0
H735 H 0.99294 0.28091 0.16914 0.0
C736 C 0.91155 0.29258 0.11643 0.0
C737 C 0.91986 0.31339 0.12771 0.0
C738 C 0.9308 0.27734 0.11441 0.0
C739 C 0.95875 0.28259 0.12357 0.0
C740 C 0.96779 0.30396 0.13361 0.0
H741 H 0.10295 0.21243 0.10512 0.0
H742 H 0.06693 0.23697 0.10179 0.0
C743 C 0.94848 0.31917 0.13579 0.0
C744 C 0.97788 0.26528 0.12341 0.0
H745 H 0.01448 0.2346 0.1567 0.0
C746 C 0.9853 0.25652 0.10346 0.0
C747 C 0.98786 0.25677 0.14286 0.0
C748 C 0.97901 0.26423 0.16487 0.0
C749 C 0.00302 0.23989 0.10244 0.0
C750 C 0.01409 0.23217 0.12186 0.0
C751 C 0.00614 0.24059 0.1418 0.0
C752 C 0.03465 0.21591 0.12203 0.0
C753 C 0.00929 0.23051 0.08057 0.0
C754 C 0.02867 0.19588 0.13465 0.0
C755 C 0.04946 0.1819 0.13686 0.0
C756 C 0.07669 0.1877 0.12649 0.0
C757 C 0.08216 0.20732 0.11323 0.0
C758 C 0.06147 0.22136 0.11118 0.0
H759 H 0.99211 0.23231 0.06859 0.0
H760 H 0.03031 0.2403 0.07438 0.0
H761 H 0.01095 0.21216 0.08164 0.0
H762 H 0.00814 0.19137 0.14324 0.0
H763 H 0.04452 0.16695 0.1472 0.0
H764 H 0.92912 0.65793 0.33768 0.0
H765 H 0.97144 0.68879 0.34231 0.0
H766 H 0.91789 0.72892 0.37639 0.0
H767 H 0.87593 0.69789 0.37263 0.0
H768 H 0.97669 0.72934 0.32491 0.0
H769 H 0.98882 0.74109 0.41354 0.0
H770 H 0.966 0.71623 0.40172 0.0
H771 H 0.95262 0.74256 0.40482 0.0
C772 C 0.92656 0.67308 0.34666 0.0
C773 C 0.89916 0.67545 0.35477 0.0
C774 C 0.95074 0.69074 0.34925 0.0
C775 C 0.94795 0.71114 0.35986 0.0
C776 C 0.92084 0.71317 0.36865 0.0
H777 H 0.06175 0.84076 0.32834 0.0
H778 H 0.0193 0.81008 0.33353 0.0
C779 C 0.89677 0.6954 0.36636 0.0
C780 C 0.97241 0.73112 0.35962 0.0
H781 H 0.01281 0.7723 0.39147 0.0
C782 C 0.98476 0.73859 0.33951 0.0
C783 C 0.98307 0.74314 0.37866 0.0
C784 C 0.97213 0.73519 0.40091 0.0
C785 C 0.00725 0.7578 0.33785 0.0
C786 C 0.01698 0.77046 0.35676 0.0
C787 C 0.00493 0.76285 0.37693 0.0
C788 C 0.04087 0.79081 0.35602 0.0
C789 C 0.02084 0.76391 0.3159 0.0
C790 C 0.06635 0.79097 0.36808 0.0
C791 C 0.09037 0.80871 0.36552 0.0
C792 C 0.08947 0.82656 0.3507 0.0
C793 C 0.06328 0.82712 0.33967 0.0
C794 C 0.03908 0.8095 0.34248 0.0
H795 H 0.01664 0.7491 0.30458 0.0
H796 H 0.01124 0.77787 0.30867 0.0
H797 H 0.04478 0.76988 0.31724 0.0
H798 H 0.06814 0.77684 0.37876 0.0
H799 H 0.11014 0.80775 0.37436 0.0
H800 H 0.59999 0.70628 0.60349 0.0
H801 H 0.56556 0.73239 0.60039 0.0
H802 H 0.52094 0.70284 0.65783 0.0
H803 H 0.55483 0.67631 0.66081 0.0
H804 H 0.48308 0.7114 0.62659 0.0
H805 H 0.56992 0.78799 0.63941 0.0
H806 H 0.57637 0.77067 0.61674 0.0
H807 H 0.57582 0.7592 0.64375 0.0
C808 C 0.58265 0.70513 0.61534 0.0
C809 C 0.58036 0.68932 0.63253 0.0
C810 C 0.56313 0.72021 0.61363 0.0
C811 C 0.54118 0.71997 0.62921 0.0
C812 C 0.5379 0.70346 0.64574 0.0
H813 H 0.44565 0.82598 0.6634 0.0
H814 H 0.48058 0.80023 0.66042 0.0
C815 C 0.55728 0.68826 0.64738 0.0
C816 C 0.52204 0.73726 0.62866 0.0
H817 H 0.52283 0.79483 0.63103 0.0
C818 C 0.49175 0.72964 0.62751 0.0
C819 C 0.5334 0.76106 0.63024 0.0
C820 C 0.56563 0.77027 0.63282 0.0
C821 C 0.4725 0.74514 0.62779 0.0
C822 C 0.4839 0.76896 0.62875 0.0
C823 C 0.51417 0.77659 0.63001 0.0
C824 C 0.46463 0.78615 0.62939 0.0
C825 C 0.44011 0.73579 0.62773 0.0
C826 C 0.44486 0.78746 0.61253 0.0
C827 C 0.42478 0.80207 0.61423 0.0
C828 C 0.42431 0.81588 0.63272 0.0
C829 C 0.44538 0.81558 0.64896 0.0
C830 C 0.46532 0.80082 0.64731 0.0
H831 H 0.43508 0.71748 0.63266 0.0
H832 H 0.42848 0.74573 0.63881 0.0
H833 H 0.43148 0.73703 0.61111 0.0
H834 H 0.44448 0.77676 0.59829 0.0
H835 H 0.40907 0.80204 0.60131 0.0
H836 H 0.83466 0.05559 0.69984 0.0
H837 H 0.84322 0.02364 0.72251 0.0
H838 H 0.87381 0.07089 0.7743 0.0
H839 H 0.8663 0.10282 0.75156 0.0
H840 H 0.90854 0.0407 0.76985 0.0
H841 H 0.79377 0.99443 0.77187 0.0
H842 H 0.80807 0.99875 0.74489 0.0
H843 H 0.804 0.02307 0.76121 0.0
C844 C 0.84313 0.05912 0.71608 0.0
C845 C 0.84969 0.08172 0.72393 0.0
C846 C 0.84786 0.04084 0.72908 0.0
C847 C 0.8587 0.04479 0.75029 0.0
C848 C 0.8654 0.06737 0.75804 0.0
H849 H 0.84593 0.93983 0.84915 0.0
H850 H 0.84297 0.97413 0.82814 0.0
C851 C 0.86102 0.08562 0.745 0.0
C852 C 0.86343 0.02557 0.76445 0.0
H853 H 0.82916 0.97509 0.78684 0.0
C854 C 0.89115 0.02638 0.77362 0.0
C855 C 0.84065 0.00705 0.76967 0.0
C856 C 0.80989 0.00583 0.76158 0.0
C857 C 0.89677 0.00917 0.78774 0.0
C858 C 0.87425 0.99025 0.79234 0.0
C859 C 0.8465 0.98951 0.78324 0.0
C860 C 0.87867 0.97104 0.80664 0.0
C861 C 0.92656 0.01177 0.79797 0.0
C862 C 0.9002 0.95814 0.80194 0.0
C863 C 0.90228 0.9387 0.81422 0.0
C864 C 0.88244 0.93152 0.83113 0.0
C865 C 0.86152 0.94488 0.83622 0.0
C866 C 0.85973 0.96445 0.82415 0.0
H867 H 0.93788 0.02998 0.79828 0.0
H868 H 0.92514 0.00506 0.81481 0.0
H869 H 0.94013 0.00203 0.78831 0.0
H870 H 0.91464 0.96251 0.78822 0.0
H871 H 0.91838 0.92862 0.80969 0.0
H872 H 0.16352 0.56554 0.83938 0.0
H873 H 0.16377 0.53164 0.8173 0.0
H874 H 0.07616 0.53287 0.79597 0.0
H875 H 0.07597 0.56741 0.81767 0.0
H876 H 0.13128 0.48926 0.81622 0.0
H877 H 0.11929 0.53423 0.73882 0.0
H878 H 0.12658 0.54921 0.76424 0.0
H879 H 0.09026 0.53455 0.75783 0.0
C880 C 0.14413 0.55856 0.83018 0.0
C881 C 0.11982 0.56942 0.83013 0.0
C882 C 0.14434 0.53912 0.81753 0.0
C883 C 0.12027 0.53001 0.80456 0.0
C884 C 0.09529 0.53997 0.80539 0.0
H885 H 0.10649 0.39776 0.73996 0.0
H886 H 0.09909 0.42945 0.7631 0.0
C887 C 0.09511 0.55958 0.81799 0.0
C888 C 0.12198 0.51048 0.78986 0.0
H889 H 0.12018 0.49467 0.73653 0.0
C890 C 0.12874 0.4904 0.7988 0.0
C891 C 0.11924 0.51216 0.76708 0.0
C892 C 0.11372 0.53375 0.75634 0.0
C893 C 0.13286 0.472 0.78564 0.0
C894 C 0.12938 0.47344 0.76291 0.0
C895 C 0.12262 0.49351 0.75395 0.0
C896 C 0.13307 0.45443 0.74814 0.0
C897 C 0.14183 0.4515 0.7962 0.0
C898 C 0.15385 0.4581 0.7314 0.0
C899 C 0.15788 0.44002 0.71787 0.0
C900 C 0.1412 0.41794 0.72089 0.0
C901 C 0.11996 0.41449 0.73735 0.0
C902 C 0.11579 0.43257 0.75071 0.0
H903 H 0.15164 0.4558 0.81244 0.0
H904 H 0.12229 0.43781 0.79839 0.0
H905 H 0.15778 0.4446 0.78602 0.0
H906 H 0.1673 0.47488 0.72903 0.0
H907 H 0.17435 0.44324 0.7053 0.0
H908 H 0.74907 0.89922 0.09853 0.0
H909 H 0.77452 0.9031 0.06348 0.0
H910 H 0.7405 0.83188 0.04968 0.0
H911 H 0.71609 0.82773 0.08468 0.0
H912 H 0.79655 0.8426 0.03925 0.0
H913 H 0.73829 0.90769 0.00486 0.0
H914 H 0.75766 0.91621 0.02955 0.0
H915 H 0.72708 0.89271 0.02977 0.0
C916 C 0.74708 0.88443 0.08798 0.0
C917 C 0.73052 0.86319 0.09435 0.0
C918 C 0.76148 0.88669 0.06791 0.0
C919 C 0.75909 0.86785 0.05378 0.0
C920 C 0.74272 0.84666 0.06027 0.0
H921 H 0.77835 0.86131 0.9162 0.0
H922 H 0.76307 0.86267 0.95393 0.0
C923 C 0.7287 0.84433 0.08032 0.0
C924 C 0.77339 0.86979 0.03214 0.0
H925 H 0.77426 0.89622 0.98294 0.0
C926 C 0.79181 0.85442 0.02696 0.0
C927 C 0.76697 0.88506 0.01605 0.0
C928 C 0.74623 0.90123 0.0202 0.0
C929 C 0.80328 0.8534 0.00601 0.0
C930 C 0.79695 0.86872 0.98994 0.0
C931 C 0.7792 0.88454 0.99529 0.0
C932 C 0.80679 0.86766 0.9671 0.0
C933 C 0.82092 0.83518 1.00111 0.0
C934 C 0.83649 0.87 0.96185 0.0
C935 C 0.84528 0.86883 0.94023 0.0
C936 C 0.82454 0.86577 0.92345 0.0
C937 C 0.79488 0.86367 0.92874 0.0
C938 C 0.78611 0.86453 0.95032 0.0
H939 H 0.81722 0.82121 0.01334 0.0
H940 H 0.81549 0.82755 0.98485 0.0
H941 H 0.84445 0.84299 1.00133 0.0
H942 H 0.85293 0.87299 0.97444 0.0
H943 H 0.86832 0.87077 0.93664 0.0
H944 H 0.13453 0.62986 0.93612 0.0
H945 H 0.14931 0.62774 0.97406 0.0
H946 H 0.23932 0.6364 0.95418 0.0
H947 H 0.22462 0.63763 0.91631 0.0
H948 H 0.22704 0.60335 0.98354 0.0
H949 H 0.18565 0.67965 0.01255 0.0
H950 H 0.15815 0.658 1.00065 0.0
H951 H 0.18753 0.67286 0.98416 0.0
C952 C 0.15747 0.63144 0.93988 0.0
C953 C 0.17842 0.63402 0.92324 0.0
C954 C 0.16591 0.63033 0.96158 0.0
C955 C 0.19549 0.63225 0.96704 0.0
C956 C 0.21637 0.63486 0.9504 0.0
H957 H 0.28558 0.6731 0.08457 0.0
H958 H 0.26149 0.66858 0.04946 0.0
C959 C 0.20794 0.63565 0.92875 0.0
C960 C 0.205 0.63136 0.98997 0.0
H961 H 0.20558 0.65833 0.03889 0.0
C962 C 0.22228 0.61533 0.99568 0.0
C963 C 0.19889 0.64707 0.00578 0.0
C964 C 0.18178 0.66551 1.00049 0.0
C965 C 0.2343 0.61497 0.01653 0.0
C966 C 0.22813 0.63065 0.03234 0.0
C967 C 0.21014 0.64622 0.0268 0.0
C968 C 0.24231 0.63279 0.05401 0.0
C969 C 0.25459 0.59855 0.02104 0.0
C970 C 0.23951 0.61417 0.06843 0.0
C971 C 0.25374 0.61663 0.08855 0.0
C972 C 0.27052 0.63786 0.09471 0.0
C973 C 0.27278 0.6565 0.08038 0.0
C974 C 0.25894 0.65397 0.06027 0.0
H975 H 0.26248 0.59172 0.00585 0.0
H976 H 0.27379 0.60698 0.03059 0.0
H977 H 0.2428 0.58383 0.03055 0.0
H978 H 0.22625 0.59779 0.06418 0.0
H979 H 0.2514 0.60201 0.09934 0.0
H980 H 0.63076 0.12965 0.43712 0.0
H981 H 0.64451 0.12648 0.47519 0.0
H982 H 0.73532 0.13877 0.45691 0.0
H983 H 0.72172 0.14111 0.41892 0.0
H984 H 0.72352 0.10436 0.48515 0.0
H985 H 0.67732 0.17791 0.51554 0.0
H986 H 0.65123 0.15597 0.50261 0.0
H987 H 0.68057 0.17225 0.48702 0.0
C988 C 0.65365 0.13178 0.44127 0.0
C989 C 0.67517 0.13573 0.42504 0.0
C990 C 0.66149 0.13006 0.46304 0.0
C991 C 0.69099 0.13272 0.46898 0.0
C992 C 0.71242 0.13665 0.45275 0.0
H993 H 0.77901 0.17329 0.58683 0.0
H994 H 0.7545 0.16863 0.55191 0.0
C995 C 0.70461 0.13806 0.43102 0.0
C996 C 0.6999 0.13134 0.492 0.0
H997 H 0.69841 0.15693 0.54144 0.0
C998 C 0.71792 0.11578 0.49751 0.0
C999 C 0.69267 0.14631 0.50808 0.0
C1000 C 0.67461 0.1642 0.50304 0.0
C1001 C 0.72971 0.11527 0.51841 0.0
C1002 C 0.72256 0.1303 0.53447 0.0
C1003 C 0.70372 0.14531 0.52916 0.0
C1004 C 0.73671 0.13255 0.55615 0.0
C1005 C 0.75084 0.09948 0.52274 0.0
C1006 C 0.73476 0.11381 0.57035 0.0
C1007 C 0.74922 0.11636 0.59039 0.0
C1008 C 0.76541 0.13778 0.59665 0.0
C1009 C 0.76671 0.15654 0.58257 0.0
C1010 C 0.75262 0.15393 0.56256 0.0
H1011 H 0.75908 0.09305 0.50748 0.0
H1012 H 0.76979 0.1083 0.53234 0.0
H1013 H 0.73966 0.08446 0.53214 0.0
H1014 H 0.72208 0.09725 0.56597 0.0
H1015 H 0.74764 0.10164 0.60097 0.0
H1016 H 0.21642 0.3277 0.58493 0.0
H1017 H 0.2429 0.33313 0.55084 0.0
H1018 H 0.27377 0.40434 0.56647 0.0
H1019 H 0.24622 0.39916 0.60064 0.0
H1020 H 0.25576 0.4 0.52583 0.0
H1021 H 0.32774 0.33781 0.53912 0.0
H1022 H 0.29048 0.3241 0.54282 0.0
H1023 H 0.3066 0.347 0.56074 0.0
C1024 C 0.22902 0.34452 0.58127 0.0
C1025 C 0.22936 0.36299 0.59558 0.0
C1026 C 0.2444 0.34754 0.5618 0.0
C1027 C 0.26104 0.36898 0.5563 0.0
C1028 C 0.26136 0.38756 0.57049 0.0
H1029 H 0.36529 0.37106 0.43705 0.0
H1030 H 0.35208 0.37464 0.47521 0.0
C1031 C 0.24562 0.3846 0.58998 0.0
C1032 C 0.27645 0.372 0.53511 0.0
H1033 H 0.3191 0.34662 0.50156 0.0
C1034 C 0.27003 0.38859 0.52066 0.0
C1035 C 0.29568 0.35753 0.52844 0.0
C1036 C 0.30578 0.34082 0.54373 0.0
C1037 C 0.28082 0.39015 0.49935 0.0
C1038 C 0.2977 0.37418 0.49207 0.0
C1039 C 0.30565 0.35856 0.50693 0.0
C1040 C 0.30604 0.37258 0.46892 0.0
C1041 C 0.27386 0.40887 0.4849 0.0
C1042 C 0.28454 0.36975 0.45272 0.0
C1043 C 0.29207 0.36799 0.43097 0.0
C1044 C 0.32121 0.36846 0.42495 0.0
C1045 C 0.34266 0.37064 0.44119 0.0
C1046 C 0.33514 0.37273 0.46299 0.0
H1047 H 0.2707 0.424 0.49456 0.0
H1048 H 0.29141 0.41449 0.47285 0.0
H1049 H 0.2532 0.40244 0.47612 0.0
H1050 H 0.26181 0.36871 0.4569 0.0
H1051 H 0.27497 0.36605 0.41888 0.0
H1052 H 0.01597 0.65902 0.85226 0.0
H1053 H 0.99175 0.69132 0.85934 0.0
H1054 H 0.06288 0.72189 0.90079 0.0
H1055 H 0.08672 0.68916 0.89443 0.0
H1056 H 0.01061 0.73115 0.9152 0.0
H1057 H 0.02464 0.74995 0.82744 0.0
H1058 H 0.00308 0.72216 0.83267 0.0
H1059 H 0.04085 0.72838 0.84063 0.0
C1060 C 0.02608 0.67231 0.86336 0.0
C1061 C 0.05342 0.67168 0.87258 0.0
C1062 C 0.01232 0.69086 0.86725 0.0
C1063 C 0.02597 0.7094 0.88001 0.0
C1064 C 0.05207 0.7079 0.89071 0.0
H1065 H 0.98871 0.84424 0.85433 0.0
H1066 H 0.01427 0.81287 0.86202 0.0
C1067 C 0.06564 0.68913 0.88711 0.0
C1068 C 0.01454 0.73112 0.88042 0.0
H1069 H 0.99663 0.77218 0.84719 0.0
C1070 C 0.00763 0.74021 0.90036 0.0
C1071 C 0.01141 0.74329 0.86111 0.0
C1072 C 0.02067 0.73561 0.83928 0.0
C1073 C 0.99694 0.76082 0.90142 0.0
C1074 C 0.99245 0.77235 0.88197 0.0
C1075 C -8e-05 0.7634 0.86213 0.0
C1076 C 0.97947 0.79341 0.88138 0.0
C1077 C 0.99111 0.77018 0.92338 0.0
C1078 C 0.95188 0.79351 0.89044 0.0
C1079 C 0.93751 0.81176 0.88646 0.0
C1080 C 0.95016 0.82995 0.87289 0.0
C1081 C 0.9784 0.83045 0.86483 0.0
C1082 C 0.99298 0.81246 0.86916 0.0
H1083 H 0.00467 0.76417 0.93613 0.0
H1084 H 0.99549 0.78921 0.92341 0.0
H1085 H 0.9679 0.76399 0.92772 0.0
H1086 H 0.9406 0.77887 0.89947 0.0
H1087 H 0.9156 0.81073 0.89267 0.0
H1088 H 0.10764 0.31326 0.61473 0.0
H1089 H 0.06543 0.28328 0.60686 0.0
H1090 H 0.02271 0.30144 0.6645 0.0
H1091 H 0.06449 0.33164 0.67235 0.0
H1092 H 0.04869 0.24694 0.6338 0.0
H1093 H 0.95642 0.2916 0.6211 0.0
H1094 H 0.99397 0.30625 0.61979 0.0
H1095 H 0.97594 0.30072 0.64557 0.0
C1096 C 0.08895 0.31132 0.62543 0.0
C1097 C 0.08956 0.32477 0.64428 0.0
C1098 C 0.06487 0.29412 0.62092 0.0
C1099 C 0.0409 0.2902 0.63503 0.0
C1100 C 0.04073 0.30444 0.65316 0.0
H1101 H 0.9267 0.1708 0.6773 0.0
H1102 H 0.96861 0.20052 0.66838 0.0
C1103 C 0.06475 0.32167 0.65768 0.0
C1104 C 0.01775 0.26961 0.63241 0.0
H1105 H 0.94393 0.25192 0.6319 0.0
C1106 C 0.02578 0.24801 0.63296 0.0
C1107 C 0.98794 0.27101 0.63107 0.0
C1108 C 0.97806 0.29366 0.62912 0.0
C1109 C 0.00471 0.22778 0.63343 0.0
C1110 C 0.97487 0.22926 0.63369 0.0
C1111 C 0.96685 0.25081 0.63191 0.0
C1112 C 0.9516 0.20897 0.63741 0.0
C1113 C 0.01461 0.20506 0.63396 0.0
C1114 C 0.92823 0.20368 0.62287 0.0
C1115 C 0.9041 0.18678 0.62799 0.0
C1116 C 0.90281 0.17498 0.64785 0.0
C1117 C 0.92699 0.17947 0.66184 0.0
C1118 C 0.95107 0.19642 0.65672 0.0
H1119 H 0.03654 0.20636 0.62654 0.0
H1120 H 0.01608 0.19963 0.65107 0.0
H1121 H -0.00097 0.1916 0.62532 0.0
H1122 H 0.9282 0.21321 0.6079 0.0
H1123 H 0.8859 0.18372 0.6168 0.0
H1124 H 0.57762 0.18298 0.40013 0.0
H1125 H 0.55238 0.21409 0.41001 0.0
H1126 H 0.49736 0.19932 0.35368 0.0
H1127 H 0.52196 0.1681 0.34397 0.0
H1128 H 0.553 0.25181 0.38591 0.0
H1129 H 0.43849 0.20948 0.39843 0.0
H1130 H 0.46795 0.1937 0.398 0.0
H1131 H 0.45187 0.20104 0.37305 0.0
C1132 C 0.55957 0.18592 0.39021 0.0
C1133 C 0.55183 0.17303 0.37125 0.0
C1134 C 0.54524 0.20379 0.39583 0.0
C1135 C 0.52276 0.20896 0.38271 0.0
C1136 C 0.51415 0.1954 0.36436 0.0
H1137 H 0.47438 0.33146 0.34278 0.0
H1138 H 0.4996 0.3006 0.35243 0.0
C1139 C 0.5284 0.17757 0.35875 0.0
C1140 C 0.51051 0.22997 0.3866 0.0
H1141 H 0.44634 0.24951 0.38784 0.0
C1142 C 0.52968 0.25127 0.38679 0.0
C1143 C 0.48015 0.22939 0.38813 0.0
C1144 C 0.45848 0.20713 0.38963 0.0
C1145 C 0.51924 0.27194 0.38699 0.0
C1146 C 0.4888 0.27132 0.38655 0.0
C1147 C 0.46969 0.25005 0.38788 0.0
C1148 C 0.47631 0.29219 0.38259 0.0
C1149 C 0.54096 0.29423 0.38723 0.0
C1150 C 0.45482 0.29795 0.39636 0.0
C1151 C 0.44016 0.31564 0.39079 0.0
C1152 C 0.44652 0.32772 0.37122 0.0
C1153 C 0.46901 0.32261 0.35802 0.0
C1154 C 0.48361 0.30499 0.36359 0.0
H1155 H 0.56154 0.29217 0.39535 0.0
H1156 H 0.54641 0.29974 0.3703 0.0
H1157 H 0.53207 0.30794 0.39562 0.0
H1158 H 0.44871 0.28824 0.41104 0.0
H1159 H 0.42283 0.31902 0.40125 0.0
H1160 H 0.64976 0.57196 0.6596 0.0
H1161 H 0.6522 0.53594 0.67825 0.0
H1162 H 0.60146 0.55546 0.73103 0.0
H1163 H 0.5985 0.59112 0.71246 0.0
H1164 H 0.67728 0.53203 0.71812 0.0
H1165 H 0.56093 0.48986 0.71988 0.0
H1166 H 0.57455 0.51378 0.7023 0.0
H1167 H 0.56694 0.51853 0.73036 0.0
C1168 C 0.63861 0.56835 0.67496 0.0
C1169 C 0.62387 0.58439 0.6845 0.0
C1170 C 0.64014 0.54782 0.68564 0.0
C1171 C 0.62677 0.5429 0.70594 0.0
C1172 C 0.61143 0.55864 0.7152 0.0
H1173 H 0.67107 0.45321 0.80691 0.0
H1174 H 0.66546 0.48596 0.78422 0.0
C1175 C 0.60988 0.5791 0.70457 0.0
C1176 C 0.63047 0.52216 0.71821 0.0
H1177 H 0.59268 0.47501 0.74415 0.0
C1178 C 0.6588 0.51943 0.72366 0.0
C1179 C 0.60637 0.50565 0.72528 0.0
C1180 C 0.5755 0.50694 0.71898 0.0
C1181 C 0.66366 0.50094 0.73641 0.0
C1182 C 0.63949 0.48499 0.74428 0.0
C1183 C 0.61119 0.48742 0.73838 0.0
C1184 C 0.64303 0.46532 0.75821 0.0
C1185 C 0.69464 0.49851 0.74111 0.0
C1186 C 0.63163 0.4429 0.75142 0.0
C1187 C 0.63452 0.42424 0.76442 0.0
C1188 C 0.64885 0.42757 0.78455 0.0
C1189 C 0.66007 0.45006 0.79145 0.0
C1190 C 0.65705 0.46878 0.77842 0.0
H1191 H 0.71021 0.50823 0.72929 0.0
H1192 H 0.70085 0.5054 0.75751 0.0
H1193 H 0.6969 0.48026 0.74073 0.0
H1194 H 0.62064 0.43982 0.73594 0.0
H1195 H 0.62561 0.40716 0.75859 0.0
H1196 H 0.32857 0.05042 0.80775 0.0
H1197 H 0.33549 0.01701 0.78641 0.0
H1198 H 0.38216 0.06178 0.7379 0.0
H1199 H 0.37582 0.09509 0.75916 0.0
H1200 H 0.31719 0.00499 0.74448 0.0
H1201 H 0.43772 0.01815 0.75016 0.0
H1202 H 0.41619 0.03296 0.76746 0.0
H1203 H 0.4246 0.04269 0.74018 0.0
C1204 C 0.34049 0.05312 0.79262 0.0
C1205 C 0.3518 0.07541 0.78523 0.0
C1206 C 0.34437 0.03404 0.78043 0.0
C1207 C 0.35974 0.03691 0.76073 0.0
C1208 C 0.37082 0.05914 0.75327 0.0
H1209 H 0.35299 0.93155 0.66063 0.0
H1210 H 0.35026 0.96703 0.68016 0.0
C1211 C 0.36702 0.07817 0.76543 0.0
C1212 C 0.36351 0.01673 0.74762 0.0
H1213 H 0.41497 0.99012 0.72494 0.0
C1214 C 0.33855 0.00169 0.74025 0.0
C1215 C 0.39142 0.01236 0.74225 0.0
C1216 C 0.41903 0.02725 0.75058 0.0
C1217 C 0.34073 0.9825 0.7275 0.0
C1218 C 0.36865 0.97849 0.72163 0.0
C1219 C 0.3936 0.99341 0.72918 0.0
C1220 C 0.3724 0.95811 0.70882 0.0
C1221 C 0.31314 0.96638 0.72087 0.0
C1222 C 0.38694 0.94185 0.71802 0.0
C1223 C 0.38879 0.92174 0.70685 0.0
C1224 C 0.3762 0.91748 0.68618 0.0
C1225 C 0.36282 0.93428 0.67654 0.0
C1226 C 0.36101 0.95446 0.68776 0.0
H1227 H 0.29417 0.96887 0.73084 0.0
H1228 H 0.30821 0.96962 0.70369 0.0
H1229 H 0.31572 0.94825 0.72235 0.0
H1230 H 0.39606 0.94438 0.73418 0.0
H1231 H 0.39934 0.90922 0.71474 0.0
H1232 H 0.37709 0.19923 0.87364 0.0
H1233 H 0.41807 0.23115 0.87765 0.0
H1234 H 0.4717 0.19522 0.83877 0.0
H1235 H 0.43041 0.1635 0.83396 0.0
H1236 H 0.47225 0.23742 0.8934 0.0
H1237 H 0.47626 0.2536 0.80489 0.0
H1238 H 0.44715 0.23364 0.81749 0.0
H1239 H 0.48143 0.22528 0.81156 0.0
C1240 C 0.39769 0.19794 0.86614 0.0
C1241 C 0.40037 0.17895 0.8532 0.0
C1242 C 0.42111 0.21625 0.86845 0.0
C1243 C 0.44768 0.21585 0.85801 0.0
C1244 C 0.45108 0.1962 0.84639 0.0
H1245 H 0.61242 0.30712 0.87672 0.0
H1246 H 0.56889 0.27756 0.88056 0.0
C1247 C 0.42754 0.178 0.84381 0.0
C1248 C 0.47128 0.23641 0.85849 0.0
H1249 H 0.51512 0.27447 0.82576 0.0
C1250 C 0.48156 0.24561 0.87862 0.0
C1251 C 0.48284 0.24746 0.83921 0.0
C1252 C 0.47115 0.23965 0.81708 0.0
C1253 C 0.50365 0.26521 0.87998 0.0
C1254 C 0.51634 0.27546 0.86067 0.0
C1255 C 0.50555 0.26655 0.84057 0.0
C1256 C 0.54156 0.29486 0.86071 0.0
C1257 C 0.51278 0.27488 0.90207 0.0
C1258 C 0.54083 0.3145 0.84819 0.0
C1259 C 0.56595 0.33128 0.84558 0.0
C1260 C 0.59223 0.32879 0.85555 0.0
C1261 C 0.59249 0.30969 0.86896 0.0
C1262 C 0.5675 0.29278 0.87131 0.0
H1263 H 0.49479 0.27045 0.91402 0.0
H1264 H 0.53138 0.26738 0.90794 0.0
H1265 H 0.51966 0.2938 0.90156 0.0
H1266 H 0.52106 0.31646 0.83983 0.0
H1267 H 0.56501 0.3458 0.83517 0.0
H1268 H 0.33355 0.55436 0.19724 0.0
H1269 H 0.34164 0.52159 0.21896 0.0
H1270 H 0.37556 0.56729 0.27112 0.0
H1271 H 0.36833 0.60002 0.24938 0.0
H1272 H 0.40893 0.53562 0.26453 0.0
H1273 H 0.29253 0.49328 0.26938 0.0
H1274 H 0.3059 0.4979 0.24215 0.0
H1275 H 0.3039 0.52206 0.25927 0.0
C1276 C 0.34267 0.55739 0.21335 0.0
C1277 C 0.35016 0.57979 0.22161 0.0
C1278 C 0.34716 0.53864 0.2258 0.0
C1279 C 0.3588 0.54193 0.24683 0.0
C1280 C 0.36651 0.5643 0.25497 0.0
H1281 H 0.34488 0.43934 0.34726 0.0
H1282 H 0.34343 0.47324 0.32528 0.0
C1283 C 0.36228 0.58301 0.24251 0.0
C1284 C 0.36306 0.52222 0.26049 0.0
H1285 H 0.32696 0.47287 0.28386 0.0
C1286 C 0.39101 0.52188 0.26877 0.0
C1287 C 0.3396 0.50448 0.26627 0.0
C1288 C 0.30874 0.50448 0.259 0.0
C1289 C 0.39615 0.50431 0.28265 0.0
C1290 C 0.37281 0.48629 0.288 0.0
C1291 C 0.34489 0.48662 0.27968 0.0
C1292 C 0.37646 0.46711 0.30258 0.0
C1293 C 0.42631 0.5056 0.29191 0.0
C1294 C 0.39603 0.45261 0.29748 0.0
C1295 C 0.39721 0.43331 0.31025 0.0
C1296 C 0.37845 0.42796 0.32813 0.0
C1297 C 0.35959 0.44293 0.33357 0.0
C1298 C 0.35865 0.46229 0.32097 0.0
H1299 H 0.43921 0.52333 0.2913 0.0
H1300 H 0.42531 0.49958 0.30897 0.0
H1301 H 0.43806 0.49449 0.28222 0.0
H1302 H 0.40958 0.45567 0.28314 0.0
H1303 H 0.41174 0.42199 0.30547 0.0
H1304 H 0.66937 0.07252 0.33755 0.0
H1305 H 0.67177 0.03882 0.31566 0.0
H1306 H 0.58214 0.0347 0.2965 0.0
H1307 H 0.57971 0.06896 0.31801 0.0
H1308 H 0.64252 0.99527 0.31611 0.0
H1309 H 0.62281 0.03664 0.23829 0.0
H1310 H 0.63016 0.05253 0.26323 0.0
H1311 H 0.59435 0.03614 0.25795 0.0
C1312 C 0.65002 0.06441 0.32884 0.0
C1313 C 0.6244 0.07364 0.3294 0.0
C1314 C 0.65147 0.0451 0.31629 0.0
C1315 C 0.62737 0.03452 0.30402 0.0
C1316 C 0.60127 0.04295 0.30537 0.0
H1317 H 0.61688 0.90111 0.24294 0.0
H1318 H 0.60991 0.93319 0.2657 0.0
C1319 C 0.59983 0.06241 0.31785 0.0
C1320 C 0.63002 0.01494 0.28964 0.0
H1321 H 0.62587 0.99736 0.23678 0.0
C1322 C 0.63883 0.99571 0.29877 0.0
C1323 C 0.62576 0.01571 0.26694 0.0
C1324 C 0.61802 0.03643 0.25594 0.0
C1325 C 0.64333 0.97721 0.28589 0.0
C1326 C 0.63819 0.97766 0.26329 0.0
C1327 C 0.62957 0.99694 0.25412 0.0
C1328 C 0.64178 0.95833 0.24889 0.0
C1329 C 0.65432 0.95764 0.29659 0.0
C1330 C 0.66123 0.9619 0.23128 0.0
C1331 C 0.66501 0.94356 0.21798 0.0
C1332 C 0.64939 0.92134 0.22208 0.0
C1333 C 0.62952 0.91795 0.23946 0.0
C1334 C 0.62561 0.93627 0.2526 0.0
H1335 H 0.66514 0.96288 0.31232 0.0
H1336 H 0.63561 0.94351 0.29986 0.0
H1337 H 0.67001 0.95095 0.28598 0.0
H1338 H 0.6738 0.97883 0.22801 0.0
H1339 H 0.68041 0.94674 0.2047 0.0
H1340 H 0.5713 0.83276 0.17766 0.0
H1341 H 0.5295 0.80204 0.17122 0.0
H1342 H 0.56733 0.78584 0.11078 0.0
H1343 H 0.60958 0.8163 0.11719 0.0
H1344 H 0.48858 0.79044 0.13806 0.0
H1345 H 0.56103 0.72662 0.14622 0.0
H1346 H 0.57272 0.75641 0.15325 0.0
H1347 H 0.57096 0.74769 0.12532 0.0
C1348 C 0.57054 0.823 0.16277 0.0
C1349 C 0.59405 0.82676 0.14812 0.0
C1350 C 0.54661 0.80542 0.15914 0.0
C1351 C 0.54574 0.79133 0.14081 0.0
C1352 C 0.56798 0.79619 0.12528 0.0
H1353 H 0.39108 0.68483 0.11805 0.0
H1354 H 0.43321 0.71527 0.11121 0.0
C1355 C 0.592 0.81372 0.12893 0.0
C1356 C 0.52263 0.77064 0.13892 0.0
H1357 H 0.51115 0.71217 0.14048 0.0
C1358 C 0.49345 0.77331 0.13834 0.0
C1359 C 0.52918 0.74834 0.13963 0.0
C1360 C 0.56013 0.74446 0.14132 0.0
C1361 C 0.47055 0.75426 0.13883 0.0
C1362 C 0.4771 0.73197 0.13951 0.0
C1363 C 0.50628 0.72929 0.13971 0.0
C1364 C 0.45394 0.71138 0.14197 0.0
C1365 C 0.43957 0.75821 0.13962 0.0
C1366 C 0.45261 0.69823 0.16095 0.0
C1367 C 0.42875 0.68066 0.16484 0.0
C1368 C 0.40576 0.67599 0.1498 0.0
C1369 C 0.40824 0.68814 0.13009 0.0
C1370 C 0.43219 0.70565 0.12619 0.0
H1371 H 0.43855 0.77629 0.14355 0.0
H1372 H 0.42917 0.75412 0.12357 0.0
H1373 H 0.42664 0.74691 0.15188 0.0
H1374 H 0.46935 0.7023 0.17325 0.0
H1375 H 0.42764 0.6716 0.18014 0.0
loop_
_geom_bond_atom_site_label_1
_geom_bond_atom_site_label_2
_geom_bond_distance
_geom_bond_site_symmetry_2
_ccdc_geom_bond_type
O0 Cd1 2.223 . S
O0 C8 1.315 . S
Cd1 O0 2.223 . S
Cd1 O4 2.297 . S
Cd1 O5 2.439 . S
Cd1 O11 2.240 . S
Cd2 O3 2.240 . S
Cd2 O10 2.223 . S
Cd2 O12 2.297 . S
Cd2 O13 2.439 . S
O3 Cd2 2.240 . S
O3 C8 1.279 . S
O4 Cd1 2.297 . S
O4 C6 1.247 . S
O5 Cd1 2.439 . S
O5 C6 1.208 . S
C6 O4 1.247 . S
C6 O5 1.208 . S
C7 O12 1.247 . S
C7 O13 1.208 . S
C8 O0 1.315 . S
C8 O3 1.279 . S
C9 O10 1.315 . S
C9 O11 1.279 . S
O10 Cd2 2.223 . S
O10 C9 1.315 . S
O11 Cd1 2.240 . S
O11 C9 1.279 . S
O12 Cd2 2.297 . S
O12 C7 1.247 . S
O13 Cd2 2.439 . S
O13 C7 1.208 . S
O14 Cd15 2.223 . S
O14 C22 1.315 . S
Cd15 O14 2.223 . S
Cd15 O18 2.297 . S
Cd15 O19 2.439 . S
Cd15 O25 2.240 . S
Cd16 O17 2.240 . S
Cd16 O24 2.223 . S
Cd16 O26 2.297 . S
Cd16 O27 2.439 . S
O17 Cd16 2.240 . S
O17 C22 1.279 . S
O18 Cd15 2.297 . S
O18 C20 1.247 . S
O19 Cd15 2.439 . S
O19 C20 1.208 . S
C20 O18 1.247 . S
C20 O19 1.208 . S
C21 O26 1.247 . S
C21 O27 1.208 . S
C22 O14 1.315 . S
C22 O17 1.279 . S
C23 O24 1.315 . S
C23 O25 1.279 . S
O24 Cd16 2.223 . S
O24 C23 1.315 . S
O25 Cd15 2.240 . S
O25 C23 1.279 . S
O26 Cd16 2.297 . S
O26 C21 1.247 . S
O27 Cd16 2.439 . S
O27 C21 1.208 . S
O28 Cd29 2.223 . S
O28 C36 1.315 . S
Cd29 O28 2.223 . S
Cd29 O32 2.297 . S
Cd29 O33 2.439 . S
Cd29 O39 2.240 . S
Cd30 O31 2.240 . S
Cd30 O38 2.223 . S
Cd30 O40 2.297 . S
Cd30 O41 2.439 . S
O31 Cd30 2.240 . S
O31 C36 1.279 . S
O32 Cd29 2.297 . S
O32 C34 1.247 . S
O33 Cd29 2.439 . S
O33 C34 1.208 . S
C34 O32 1.247 . S
C34 O33 1.208 . S
C35 O40 1.247 . S
C35 O41 1.208 . S
C36 O28 1.315 . S
C36 O31 1.279 . S
C37 O38 1.315 . S
C37 O39 1.279 . S
O38 Cd30 2.223 . S
O38 C37 1.315 . S
O39 Cd29 2.240 . S
O39 C37 1.279 . S
O40 Cd30 2.297 . S
O40 C35 1.247 . S
O41 Cd30 2.439 . S
O41 C35 1.208 . S
O42 Cd43 2.223 . S
O42 C50 1.315 . S
Cd43 O42 2.223 . S
Cd43 O46 2.297 . S
Cd43 O47 2.439 . S
Cd43 O53 2.240 . S
Cd44 O45 2.240 . S
Cd44 O52 2.223 . S
Cd44 O54 2.297 . S
Cd44 O55 2.439 . S
O45 Cd44 2.240 . S
O45 C50 1.279 . S
O46 Cd43 2.297 . S
O46 C48 1.247 . S
O47 Cd43 2.439 . S
O47 C48 1.208 . S
C48 O46 1.247 . S
C48 O47 1.208 . S
C49 O54 1.247 . S
C49 O55 1.208 . S
C50 O42 1.315 . S
C50 O45 1.279 . S
C51 O52 1.315 . S
C51 O53 1.279 . S
O52 Cd44 2.223 . S
O52 C51 1.315 . S
O53 Cd43 2.240 . S
O53 C51 1.279 . S
O54 Cd44 2.297 . S
O54 C49 1.247 . S
O55 Cd44 2.439 . S
O55 C49 1.208 . S
O56 Cd57 2.223 . S
O56 C64 1.315 . S
Cd57 O56 2.223 . S
Cd57 O60 2.297 . S
Cd57 O61 2.439 . S
Cd57 O67 2.240 . S
Cd58 O59 2.240 . S
Cd58 O66 2.223 . S
Cd58 O68 2.297 . S
Cd58 O69 2.439 . S
O59 Cd58 2.240 . S
O59 C64 1.279 . S
O60 Cd57 2.297 . S
O60 C62 1.247 . S
O61 Cd57 2.439 . S
O61 C62 1.208 . S
C62 O60 1.247 . S
C62 O61 1.208 . S
C63 O68 1.247 . S
C63 O69 1.208 . S
C64 O56 1.315 . S
C64 O59 1.279 . S
C65 O66 1.315 . S
C65 O67 1.279 . S
O66 Cd58 2.223 . S
O66 C65 1.315 . S
O67 Cd57 2.240 . S
O67 C65 1.279 . S
O68 Cd58 2.297 . S
O68 C63 1.247 . S
O69 Cd58 2.439 . S
O69 C63 1.208 . S
O70 Cd71 2.223 . S
O70 C78 1.315 . S
Cd71 O70 2.223 . S
Cd71 O74 2.297 . S
Cd71 O75 2.439 . S
Cd71 O81 2.240 . S
Cd72 O73 2.240 . S
Cd72 O80 2.223 . S
Cd72 O82 2.297 . S
Cd72 O83 2.439 . S
O73 Cd72 2.240 . S
O73 C78 1.279 . S
O74 Cd71 2.297 . S
O74 C76 1.247 . S
O75 Cd71 2.439 . S
O75 C76 1.208 . S
C76 O74 1.247 . S
C76 O75 1.208 . S
C77 O82 1.247 . S
C77 O83 1.208 . S
C78 O70 1.315 . S
C78 O73 1.279 . S
C79 O80 1.315 . S
C79 O81 1.279 . S
O80 Cd72 2.223 . S
O80 C79 1.315 . S
O81 Cd71 2.240 . S
O81 C79 1.279 . S
O82 Cd72 2.297 . S
O82 C77 1.247 . S
O83 Cd72 2.439 . S
O83 C77 1.208 . S
O84 Cd85 2.223 . S
O84 C92 1.315 . S
Cd85 O84 2.223 . S
Cd85 O88 2.297 . S
Cd85 O89 2.439 . S
Cd85 O95 2.240 . S
Cd86 O87 2.240 . S
Cd86 O94 2.223 . S
Cd86 O96 2.297 . S
Cd86 O97 2.439 . S
O87 Cd86 2.240 . S
O87 C92 1.279 . S
O88 Cd85 2.297 . S
O88 C90 1.247 . S
O89 Cd85 2.439 . S
O89 C90 1.208 . S
C90 O88 1.247 . S
C90 O89 1.208 . S
C91 O96 1.247 . S
C91 O97 1.208 . S
C92 O84 1.315 . S
C92 O87 1.279 . S
C93 O94 1.315 . S
C93 O95 1.279 . S
O94 Cd86 2.223 . S
O94 C93 1.315 . S
O95 Cd85 2.240 . S
O95 C93 1.279 . S
O96 Cd86 2.297 . S
O96 C91 1.247 . S
O97 Cd86 2.439 . S
O97 C91 1.208 . S
O98 Cd99 2.223 . S
O98 C106 1.315 . S
Cd99 O98 2.223 . S
Cd99 O102 2.297 . S
Cd99 O103 2.439 . S
Cd99 O109 2.240 . S
Cd100 O101 2.240 . S
Cd100 O108 2.223 . S
Cd100 O110 2.297 . S
Cd100 O111 2.439 . S
O101 Cd100 2.240 . S
O101 C106 1.279 . S
O102 Cd99 2.297 . S
O102 C104 1.247 . S
O103 Cd99 2.439 . S
O103 C104 1.208 . S
C104 O102 1.247 . S
C104 O103 1.208 . S
C105 O110 1.247 . S
C105 O111 1.208 . S
C106 O98 1.315 . S
C106 O101 1.279 . S
C107 O108 1.315 . S
C107 O109 1.279 . S
O108 Cd100 2.223 . S
O108 C107 1.315 . S
O109 Cd99 2.240 . S
O109 C107 1.279 . S
O110 Cd100 2.297 . S
O110 C105 1.247 . S
O111 Cd100 2.439 . S
O111 C105 1.208 . S
O112 Cd113 2.223 . S
O112 C120 1.315 . S
Cd113 O112 2.223 . S
Cd113 O116 2.297 . S
Cd113 O117 2.439 . S
Cd113 O123 2.240 . S
Cd114 O115 2.240 . S
Cd114 O122 2.223 . S
Cd114 O124 2.297 . S
Cd114 O125 2.439 . S
O115 Cd114 2.240 . S
O115 C120 1.279 . S
O116 Cd113 2.297 . S
O116 C118 1.247 . S
O117 Cd113 2.439 . S
O117 C118 1.208 . S
C118 O116 1.247 . S
C118 O117 1.208 . S
C119 O124 1.247 . S
C119 O125 1.208 . S
C120 O112 1.315 . S
C120 O115 1.279 . S
C121 O122 1.315 . S
C121 O123 1.279 . S
O122 Cd114 2.223 . S
O122 C121 1.315 . S
O123 Cd113 2.240 . S
O123 C121 1.279 . S
O124 Cd114 2.297 . S
O124 C119 1.247 . S
O125 Cd114 2.439 . S
O125 C119 1.208 . S
O126 Cd127 2.223 . S
O126 C134 1.315 . S
Cd127 O126 2.223 . S
Cd127 O130 2.297 . S
Cd127 O131 2.439 . S
Cd127 O137 2.240 . S
Cd128 O129 2.240 . S
Cd128 O136 2.223 . S
Cd128 O138 2.297 . S
Cd128 O139 2.439 . S
O129 Cd128 2.240 . S
O129 C134 1.279 . S
O130 Cd127 2.297 . S
O130 C132 1.247 . S
O131 Cd127 2.439 . S
O131 C132 1.208 . S
C132 O130 1.247 . S
C132 O131 1.208 . S
C133 O138 1.247 . S
C133 O139 1.208 . S
C134 O126 1.315 . S
C134 O129 1.279 . S
C135 O136 1.315 . S
C135 O137 1.279 . S
O136 Cd128 2.223 . S
O136 C135 1.315 . S
O137 Cd127 2.240 . S
O137 C135 1.279 . S
O138 Cd128 2.297 . S
O138 C133 1.247 . S
O139 Cd128 2.439 . S
O139 C133 1.208 . S
O140 Cd141 2.223 . S
O140 C148 1.315 . S
Cd141 O140 2.223 . S
Cd141 O144 2.297 . S
Cd141 O145 2.439 . S
Cd141 O151 2.240 . S
Cd142 O143 2.240 . S
Cd142 O150 2.223 . S
Cd142 O152 2.297 . S
Cd142 O153 2.439 . S
O143 Cd142 2.240 . S
O143 C148 1.279 . S
O144 Cd141 2.297 . S
O144 C146 1.247 . S
O145 Cd141 2.439 . S
O145 C146 1.208 . S
C146 O144 1.247 . S
C146 O145 1.208 . S
C147 O152 1.247 . S
C147 O153 1.208 . S
C148 O140 1.315 . S
C148 O143 1.279 . S
C149 O150 1.315 . S
C149 O151 1.279 . S
O150 Cd142 2.223 . S
O150 C149 1.315 . S
O151 Cd141 2.240 . S
O151 C149 1.279 . S
O152 Cd142 2.297 . S
O152 C147 1.247 . S
O153 Cd142 2.439 . S
O153 C147 1.208 . S
O154 Cd155 2.223 . S
O154 C162 1.315 . S
Cd155 O154 2.223 . S
Cd155 O158 2.297 . S
Cd155 O159 2.439 . S
Cd155 O165 2.240 . S
Cd156 O157 2.240 . S
Cd156 O164 2.223 . S
Cd156 O166 2.297 . S
Cd156 O167 2.439 . S
O157 Cd156 2.240 . S
O157 C162 1.279 . S
O158 Cd155 2.297 . S
O158 C160 1.247 . S
O159 Cd155 2.439 . S
O159 C160 1.208 . S
C160 O158 1.247 . S
C160 O159 1.208 . S
C161 O166 1.247 . S
C161 O167 1.208 . S
C162 O154 1.315 . S
C162 O157 1.279 . S
C163 O164 1.315 . S
C163 O165 1.279 . S
O164 Cd156 2.223 . S
O164 C163 1.315 . S
O165 Cd155 2.240 . S
O165 C163 1.279 . S
O166 Cd156 2.297 . S
O166 C161 1.247 . S
O167 Cd156 2.439 . S
O167 C161 1.208 . S
O168 Cd169 2.223 . S
O168 C176 1.315 . S
Cd169 O168 2.223 . S
Cd169 O172 2.297 . S
Cd169 O173 2.439 . S
Cd169 O179 2.240 . S
Cd170 O171 2.240 . S
Cd170 O178 2.223 . S
Cd170 O180 2.297 . S
Cd170 O181 2.439 . S
O171 Cd170 2.240 . S
O171 C176 1.279 . S
O172 Cd169 2.297 . S
O172 C174 1.247 . S
O173 Cd169 2.439 . S
O173 C174 1.208 . S
C174 O172 1.247 . S
C174 O173 1.208 . S
C175 O180 1.247 . S
C175 O181 1.208 . S
C176 O168 1.315 . S
C176 O171 1.279 . S
C177 O178 1.315 . S
C177 O179 1.279 . S
O178 Cd170 2.223 . S
O178 C177 1.315 . S
O179 Cd169 2.240 . S
O179 C177 1.279 . S
O180 Cd170 2.297 . S
O180 C175 1.247 . S
O181 Cd170 2.439 . S
O181 C175 1.208 . S
O182 Cd183 2.223 . S
O182 C190 1.315 . S
Cd183 O182 2.223 . S
Cd183 O186 2.297 . S
Cd183 O187 2.439 . S
Cd183 O193 2.240 . S
Cd184 O185 2.240 . S
Cd184 O192 2.223 . S
Cd184 O194 2.297 . S
Cd184 O195 2.439 . S
O185 Cd184 2.240 . S
O185 C190 1.279 . S
O186 Cd183 2.297 . S
O186 C188 1.247 . S
O187 Cd183 2.439 . S
O187 C188 1.208 . S
C188 O186 1.247 . S
C188 O187 1.208 . S
C189 O194 1.247 . S
C189 O195 1.208 . S
C190 O182 1.315 . S
C190 O185 1.279 . S
C191 O192 1.315 . S
C191 O193 1.279 . S
O192 Cd184 2.223 . S
O192 C191 1.315 . S
O193 Cd183 2.240 . S
O193 C191 1.279 . S
O194 Cd184 2.297 . S
O194 C189 1.247 . S
O195 Cd184 2.439 . S
O195 C189 1.208 . S
O196 Cd197 2.223 . S
O196 C204 1.315 . S
Cd197 O196 2.223 . S
Cd197 O200 2.297 . S
Cd197 O201 2.439 . S
Cd197 O207 2.240 . S
Cd198 O199 2.240 . S
Cd198 O206 2.223 . S
Cd198 O208 2.297 . S
Cd198 O209 2.439 . S
O199 Cd198 2.240 . S
O199 C204 1.279 . S
O200 Cd197 2.297 . S
O200 C202 1.247 . S
O201 Cd197 2.439 . S
O201 C202 1.208 . S
C202 O200 1.247 . S
C202 O201 1.208 . S
C203 O208 1.247 . S
C203 O209 1.208 . S
C204 O196 1.315 . S
C204 O199 1.279 . S
C205 O206 1.315 . S
C205 O207 1.279 . S
O206 Cd198 2.223 . S
O206 C205 1.315 . S
O207 Cd197 2.240 . S
O207 C205 1.279 . S
O208 Cd198 2.297 . S
O208 C203 1.247 . S
O209 Cd198 2.439 . S
O209 C203 1.208 . S
O210 Cd211 2.223 . S
O210 C218 1.315 . S
Cd211 O210 2.223 . S
Cd211 O214 2.297 . S
Cd211 O215 2.439 . S
Cd211 O221 2.240 . S
Cd212 O213 2.240 . S
Cd212 O220 2.223 . S
Cd212 O222 2.297 . S
Cd212 O223 2.439 . S
O213 Cd212 2.240 . S
O213 C218 1.279 . S
O214 Cd211 2.297 . S
O214 C216 1.247 . S
O215 Cd211 2.439 . S
O215 C216 1.208 . S
C216 O214 1.247 . S
C216 O215 1.208 . S
C217 O222 1.247 . S
C217 O223 1.208 . S
C218 O210 1.315 . S
C218 O213 1.279 . S
C219 O220 1.315 . S
C219 O221 1.279 . S
O220 Cd212 2.223 . S
O220 C219 1.315 . S
O221 Cd211 2.240 . S
O221 C219 1.279 . S
O222 Cd212 2.297 . S
O222 C217 1.247 . S
O223 Cd212 2.439 . S
O223 C217 1.208 . S
H224 C232 0.929 . S
H225 C234 0.930 . S
H226 C236 0.930 . S
H227 C239 0.929 . S
H228 C242 0.930 . S
H229 C244 0.960 . S
H230 C244 0.960 . S
H231 C244 0.960 . S
C232 H224 0.929 . S
C232 C233 1.377 . S
C232 C234 1.384 . S
C233 C232 1.377 . S
C233 C239 1.390 . S
C234 H225 0.930 . S
C234 C232 1.384 . S
C234 C235 1.372 . S
C235 C234 1.372 . S
C235 C236 1.400 . S
C235 C240 1.490 . S
C236 H226 0.930 . S
C236 C235 1.400 . S
C236 C239 1.386 . S
H237 C253 0.930 . S
H238 C254 0.931 . S
C239 H227 0.929 . S
C239 C233 1.390 . S
C239 C236 1.386 . S
C240 C235 1.490 . S
C240 C242 1.395 . S
C240 C243 1.403 . S
H241 C247 0.930 . S
C242 H228 0.930 . S
C242 C240 1.395 . S
C242 C245 1.403 . S
C243 C240 1.403 . S
C243 C244 1.524 . S
C243 C247 1.400 . S
C244 H229 0.960 . S
C244 H230 0.960 . S
C244 H231 0.960 . S
C244 C243 1.524 . S
C245 C242 1.403 . S
C245 C246 1.392 . S
C245 C249 1.495 . S
C246 C245 1.392 . S
C246 C247 1.385 . S
C246 C248 1.478 . S
C247 H241 0.930 . S
C247 C243 1.400 . S
C247 C246 1.385 . S
C248 C246 1.478 . S
C248 C250 1.381 . S
C248 C254 1.383 . S
C249 C245 1.495 . S
C249 H255 0.959 . S
C249 H256 0.961 . S
C249 H257 0.960 . S
C250 C248 1.381 . S
C250 C251 1.394 . S
C250 H258 0.930 . S
C251 C250 1.394 . S
C251 C252 1.383 . S
C251 H259 0.929 . S
C252 C251 1.383 . S
C252 C253 1.377 . S
C253 H237 0.930 . S
C253 C252 1.377 . S
C253 C254 1.379 . S
C254 H238 0.931 . S
C254 C248 1.383 . S
C254 C253 1.379 . S
H255 C249 0.959 . S
H256 C249 0.961 . S
H257 C249 0.960 . S
H258 C250 0.930 . S
H259 C251 0.929 . S
H260 C268 0.929 . S
H261 C270 0.930 . S
H262 C272 0.930 . S
H263 C275 0.929 . S
H264 C278 0.930 . S
H265 C280 0.960 . S
H266 C280 0.960 . S
H267 C280 0.960 . S
C268 H260 0.929 . S
C268 C269 1.377 . S
C268 C270 1.384 . S
C269 C268 1.377 . S
C269 C275 1.390 . S
C270 H261 0.930 . S
C270 C268 1.384 . S
C270 C271 1.372 . S
C271 C270 1.372 . S
C271 C272 1.400 . S
C271 C276 1.490 . S
C272 H262 0.930 . S
C272 C271 1.400 . S
C272 C275 1.386 . S
H273 C289 0.930 . S
H274 C290 0.931 . S
C275 H263 0.929 . S
C275 C269 1.390 . S
C275 C272 1.386 . S
C276 C271 1.490 . S
C276 C278 1.395 . S
C276 C279 1.403 . S
H277 C283 0.930 . S
C278 H264 0.930 . S
C278 C276 1.395 . S
C278 C281 1.403 . S
C279 C276 1.403 . S
C279 C280 1.524 . S
C279 C283 1.400 . S
C280 H265 0.960 . S
C280 H266 0.960 . S
C280 H267 0.960 . S
C280 C279 1.524 . S
C281 C278 1.403 . S
C281 C282 1.392 . S
C281 C285 1.495 . S
C282 C281 1.392 . S
C282 C283 1.385 . S
C282 C284 1.478 . S
C283 H277 0.930 . S
C283 C279 1.400 . S
C283 C282 1.385 . S
C284 C282 1.478 . S
C284 C286 1.381 . S
C284 C290 1.383 . S
C285 C281 1.495 . S
C285 H291 0.959 . S
C285 H292 0.961 . S
C285 H293 0.960 . S
C286 C284 1.381 . S
C286 C287 1.394 . S
C286 H294 0.930 . S
C287 C286 1.394 . S
C287 C288 1.383 . S
C287 H295 0.929 . S
C288 C287 1.383 . S
C288 C289 1.377 . S
C289 H273 0.930 . S
C289 C288 1.377 . S
C289 C290 1.379 . S
C290 H274 0.931 . S
C290 C284 1.383 . S
C290 C289 1.379 . S
H291 C285 0.959 . S
H292 C285 0.961 . S
H293 C285 0.960 . S
H294 C286 0.930 . S
H295 C287 0.929 . S
H296 C304 0.929 . S
H297 C306 0.930 . S
H298 C308 0.930 . S
H299 C311 0.929 . S
H300 C314 0.930 . S
H301 C316 0.960 . S
H302 C316 0.960 . S
H303 C316 0.960 . S
C304 H296 0.929 . S
C304 C305 1.377 . S
C304 C306 1.384 . S
C305 C304 1.377 . S
C305 C311 1.390 . S
C306 H297 0.930 . S
C306 C304 1.384 . S
C306 C307 1.372 . S
C307 C306 1.372 . S
C307 C308 1.400 . S
C307 C312 1.490 . S
C308 H298 0.930 . S
C308 C307 1.400 . S
C308 C311 1.386 . S
H309 C325 0.930 . S
H310 C326 0.931 . S
C311 H299 0.929 . S
C311 C305 1.390 . S
C311 C308 1.386 . S
C312 C307 1.490 . S
C312 C314 1.395 . S
C312 C315 1.403 . S
H313 C319 0.930 . S
C314 H300 0.930 . S
C314 C312 1.395 . S
C314 C317 1.403 . S
C315 C312 1.403 . S
C315 C316 1.524 . S
C315 C319 1.400 . S
C316 H301 0.960 . S
C316 H302 0.960 . S
C316 H303 0.960 . S
C316 C315 1.524 . S
C317 C314 1.403 . S
C317 C318 1.392 . S
C317 C321 1.495 . S
C318 C317 1.392 . S
C318 C319 1.385 . S
C318 C320 1.478 . S
C319 H313 0.930 . S
C319 C315 1.400 . S
C319 C318 1.385 . S
C320 C318 1.478 . S
C320 C322 1.381 . S
C320 C326 1.383 . S
C321 C317 1.495 . S
C321 H327 0.959 . S
C321 H328 0.961 . S
C321 H329 0.960 . S
C322 C320 1.381 . S
C322 C323 1.394 . S
C322 H330 0.930 . S
C323 C322 1.394 . S
C323 C324 1.383 . S
C323 H331 0.929 . S
C324 C323 1.383 . S
C324 C325 1.377 . S
C325 H309 0.930 . S
C325 C324 1.377 . S
C325 C326 1.379 . S
C326 H310 0.931 . S
C326 C320 1.383 . S
C326 C325 1.379 . S
H327 C321 0.959 . S
H328 C321 0.961 . S
H329 C321 0.960 . S
H330 C322 0.930 . S
H331 C323 0.929 . S
H332 C340 0.929 . S
H333 C342 0.930 . S
H334 C344 0.930 . S
H335 C347 0.929 . S
H336 C350 0.930 . S
H337 C352 0.960 . S
H338 C352 0.960 . S
H339 C352 0.960 . S
C340 H332 0.929 . S
C340 C341 1.377 . S
C340 C342 1.384 . S
C341 C340 1.377 . S
C341 C347 1.390 . S
C342 H333 0.930 . S
C342 C340 1.384 . S
C342 C343 1.372 . S
C343 C342 1.372 . S
C343 C344 1.400 . S
C343 C348 1.490 . S
C344 H334 0.930 . S
C344 C343 1.400 . S
C344 C347 1.386 . S
H345 C361 0.930 . S
H346 C362 0.931 . S
C347 H335 0.929 . S
C347 C341 1.390 . S
C347 C344 1.386 . S
C348 C343 1.490 . S
C348 C350 1.395 . S
C348 C351 1.403 . S
H349 C355 0.930 . S
C350 H336 0.930 . S
C350 C348 1.395 . S
C350 C353 1.403 . S
C351 C348 1.403 . S
C351 C352 1.524 . S
C351 C355 1.400 . S
C352 H337 0.960 . S
C352 H338 0.960 . S
C352 H339 0.960 . S
C352 C351 1.524 . S
C353 C350 1.403 . S
C353 C354 1.392 . S
C353 C357 1.495 . S
C354 C353 1.392 . S
C354 C355 1.385 . S
C354 C356 1.478 . S
C355 H349 0.930 . S
C355 C351 1.400 . S
C355 C354 1.385 . S
C356 C354 1.478 . S
C356 C358 1.381 . S
C356 C362 1.383 . S
C357 C353 1.495 . S
C357 H363 0.959 . S
C357 H364 0.961 . S
C357 H365 0.960 . S
C358 C356 1.381 . S
C358 C359 1.394 . S
C358 H366 0.930 . S
C359 C358 1.394 . S
C359 C360 1.383 . S
C359 H367 0.929 . S
C360 C359 1.383 . S
C360 C361 1.377 . S
C361 H345 0.930 . S
C361 C360 1.377 . S
C361 C362 1.379 . S
C362 H346 0.931 . S
C362 C356 1.383 . S
C362 C361 1.379 . S
H363 C357 0.959 . S
H364 C357 0.961 . S
H365 C357 0.960 . S
H366 C358 0.930 . S
H367 C359 0.929 . S
H368 C376 0.929 . S
H369 C378 0.930 . S
H370 C380 0.930 . S
H371 C383 0.929 . S
H372 C386 0.930 . S
H373 C388 0.960 . S
H374 C388 0.960 . S
H375 C388 0.960 . S
C376 H368 0.929 . S
C376 C377 1.377 . S
C376 C378 1.384 . S
C377 C376 1.377 . S
C377 C383 1.390 . S
C378 H369 0.930 . S
C378 C376 1.384 . S
C378 C379 1.372 . S
C379 C378 1.372 . S
C379 C380 1.400 . S
C379 C384 1.490 . S
C380 H370 0.930 . S
C380 C379 1.400 . S
C380 C383 1.386 . S
H381 C397 0.930 . S
H382 C398 0.931 . S
C383 H371 0.929 . S
C383 C377 1.390 . S
C383 C380 1.386 . S
C384 C379 1.490 . S
C384 C386 1.395 . S
C384 C387 1.403 . S
H385 C391 0.930 . S
C386 H372 0.930 . S
C386 C384 1.395 . S
C386 C389 1.403 . S
C387 C384 1.403 . S
C387 C388 1.524 . S
C387 C391 1.400 . S
C388 H373 0.960 . S
C388 H374 0.960 . S
C388 H375 0.960 . S
C388 C387 1.524 . S
C389 C386 1.403 . S
C389 C390 1.392 . S
C389 C393 1.495 . S
C390 C389 1.392 . S
C390 C391 1.385 . S
C390 C392 1.478 . S
C391 H385 0.930 . S
C391 C387 1.400 . S
C391 C390 1.385 . S
C392 C390 1.478 . S
C392 C394 1.381 . S
C392 C398 1.383 . S
C393 C389 1.495 . S
C393 H399 0.959 . S
C393 H400 0.961 . S
C393 H401 0.960 . S
C394 C392 1.381 . S
C394 C395 1.394 . S
C394 H402 0.930 . S
C395 C394 1.394 . S
C395 C396 1.383 . S
C395 H403 0.929 . S
C396 C395 1.383 . S
C396 C397 1.377 . S
C397 H381 0.930 . S
C397 C396 1.377 . S
C397 C398 1.379 . S
C398 H382 0.931 . S
C398 C392 1.383 . S
C398 C397 1.379 . S
H399 C393 0.959 . S
H400 C393 0.961 . S
H401 C393 0.960 . S
H402 C394 0.930 . S
H403 C395 0.929 . S
H404 C412 0.929 . S
H405 C414 0.930 . S
H406 C416 0.930 . S
H407 C419 0.929 . S
H408 C422 0.930 . S
H409 C424 0.960 . S
H410 C424 0.960 . S
H411 C424 0.960 . S
C412 H404 0.929 . S
C412 C413 1.377 . S
C412 C414 1.384 . S
C413 C412 1.377 . S
C413 C419 1.390 . S
C414 H405 0.930 . S
C414 C412 1.384 . S
C414 C415 1.372 . S
C415 C414 1.372 . S
C415 C416 1.400 . S
C415 C420 1.490 . S
C416 H406 0.930 . S
C416 C415 1.400 . S
C416 C419 1.386 . S
H417 C433 0.930 . S
H418 C434 0.931 . S
C419 H407 0.929 . S
C419 C413 1.390 . S
C419 C416 1.386 . S
C420 C415 1.490 . S
C420 C422 1.395 . S
C420 C423 1.403 . S
H421 C427 0.930 . S
C422 H408 0.930 . S
C422 C420 1.395 . S
C422 C425 1.403 . S
C423 C420 1.403 . S
C423 C424 1.524 . S
C423 C427 1.400 . S
C424 H409 0.960 . S
C424 H410 0.960 . S
C424 H411 0.960 . S
C424 C423 1.524 . S
C425 C422 1.403 . S
C425 C426 1.392 . S
C425 C429 1.495 . S
C426 C425 1.392 . S
C426 C427 1.385 . S
C426 C428 1.478 . S
C427 H421 0.930 . S
C427 C423 1.400 . S
C427 C426 1.385 . S
C428 C426 1.478 . S
C428 C430 1.381 . S
C428 C434 1.383 . S
C429 C425 1.495 . S
C429 H435 0.959 . S
C429 H436 0.961 . S
C429 H437 0.960 . S
C430 C428 1.381 . S
C430 C431 1.394 . S
C430 H438 0.930 . S
C431 C430 1.394 . S
C431 C432 1.383 . S
C431 H439 0.929 . S
C432 C431 1.383 . S
C432 C433 1.377 . S
C433 H417 0.930 . S
C433 C432 1.377 . S
C433 C434 1.379 . S
C434 H418 0.931 . S
C434 C428 1.383 . S
C434 C433 1.379 . S
H435 C429 0.959 . S
H436 C429 0.961 . S
H437 C429 0.960 . S
H438 C430 0.930 . S
H439 C431 0.929 . S
H440 C448 0.929 . S
H441 C450 0.930 . S
H442 C452 0.930 . S
H443 C455 0.929 . S
H444 C458 0.930 . S
H445 C460 0.960 . S
H446 C460 0.960 . S
H447 C460 0.960 . S
C448 H440 0.929 . S
C448 C449 1.377 . S
C448 C450 1.384 . S
C449 C448 1.377 . S
C449 C455 1.390 . S
C450 H441 0.930 . S
C450 C448 1.384 . S
C450 C451 1.372 . S
C451 C450 1.372 . S
C451 C452 1.400 . S
C451 C456 1.490 . S
C452 H442 0.930 . S
C452 C451 1.400 . S
C452 C455 1.386 . S
H453 C469 0.930 . S
H454 C470 0.931 . S
C455 H443 0.929 . S
C455 C449 1.390 . S
C455 C452 1.386 . S
C456 C451 1.490 . S
C456 C458 1.395 . S
C456 C459 1.403 . S
H457 C463 0.930 . S
C458 H444 0.930 . S
C458 C456 1.395 . S
C458 C461 1.403 . S
C459 C456 1.403 . S
C459 C460 1.524 . S
C459 C463 1.400 . S
C460 H445 0.960 . S
C460 H446 0.960 . S
C460 H447 0.960 . S
C460 C459 1.524 . S
C461 C458 1.403 . S
C461 C462 1.392 . S
C461 C465 1.495 . S
C462 C461 1.392 . S
C462 C463 1.385 . S
C462 C464 1.478 . S
C463 H457 0.930 . S
C463 C459 1.400 . S
C463 C462 1.385 . S
C464 C462 1.478 . S
C464 C466 1.381 . S
C464 C470 1.383 . S
C465 C461 1.495 . S
C465 H471 0.959 . S
C465 H472 0.961 . S
C465 H473 0.960 . S
C466 C464 1.381 . S
C466 C467 1.394 . S
C466 H474 0.930 . S
C467 C466 1.394 . S
C467 C468 1.383 . S
C467 H475 0.929 . S
C468 C467 1.383 . S
C468 C469 1.377 . S
C469 H453 0.930 . S
C469 C468 1.377 . S
C469 C470 1.379 . S
C470 H454 0.931 . S
C470 C464 1.383 . S
C470 C469 1.379 . S
H471 C465 0.959 . S
H472 C465 0.961 . S
H473 C465 0.960 . S
H474 C466 0.930 . S
H475 C467 0.929 . S
H476 C484 0.929 . S
H477 C486 0.930 . S
H478 C488 0.930 . S
H479 C491 0.929 . S
H480 C494 0.930 . S
H481 C496 0.960 . S
H482 C496 0.960 . S
H483 C496 0.960 . S
C484 H476 0.929 . S
C484 C485 1.377 . S
C484 C486 1.384 . S
C485 C484 1.377 . S
C485 C491 1.390 . S
C486 H477 0.930 . S
C486 C484 1.384 . S
C486 C487 1.372 . S
C487 C486 1.372 . S
C487 C488 1.400 . S
C487 C492 1.490 . S
C488 H478 0.930 . S
C488 C487 1.400 . S
C488 C491 1.386 . S
H489 C505 0.930 . S
H490 C506 0.931 . S
C491 H479 0.929 . S
C491 C485 1.390 . S
C491 C488 1.386 . S
C492 C487 1.490 . S
C492 C494 1.395 . S
C492 C495 1.403 . S
H493 C499 0.930 . S
C494 H480 0.930 . S
C494 C492 1.395 . S
C494 C497 1.403 . S
C495 C492 1.403 . S
C495 C496 1.524 . S
C495 C499 1.400 . S
C496 H481 0.960 . S
C496 H482 0.960 . S
C496 H483 0.960 . S
C496 C495 1.524 . S
C497 C494 1.403 . S
C497 C498 1.392 . S
C497 C501 1.495 . S
C498 C497 1.392 . S
C498 C499 1.385 . S
C498 C500 1.478 . S
C499 H493 0.930 . S
C499 C495 1.400 . S
C499 C498 1.385 . S
C500 C498 1.478 . S
C500 C502 1.381 . S
C500 C506 1.383 . S
C501 C497 1.495 . S
C501 H507 0.959 . S
C501 H508 0.961 . S
C501 H509 0.960 . S
C502 C500 1.381 . S
C502 C503 1.394 . S
C502 H510 0.930 . S
C503 C502 1.394 . S
C503 C504 1.383 . S
C503 H511 0.929 . S
C504 C503 1.383 . S
C504 C505 1.377 . S
C505 H489 0.930 . S
C505 C504 1.377 . S
C505 C506 1.379 . S
C506 H490 0.931 . S
C506 C500 1.383 . S
C506 C505 1.379 . S
H507 C501 0.959 . S
H508 C501 0.961 . S
H509 C501 0.960 . S
H510 C502 0.930 . S
H511 C503 0.929 . S
H512 C520 0.929 . S
H513 C522 0.930 . S
H514 C524 0.930 . S
H515 C527 0.929 . S
H516 C530 0.930 . S
H517 C532 0.960 . S
H518 C532 0.960 . S
H519 C532 0.960 . S
C520 H512 0.929 . S
C520 C521 1.377 . S
C520 C522 1.384 . S
C521 C520 1.377 . S
C521 C527 1.390 . S
C522 H513 0.930 . S
C522 C520 1.384 . S
C522 C523 1.372 . S
C523 C522 1.372 . S
C523 C524 1.400 . S
C523 C528 1.490 . S
C524 H514 0.930 . S
C524 C523 1.400 . S
C524 C527 1.386 . S
H525 C541 0.930 . S
H526 C542 0.931 . S
C527 H515 0.929 . S
C527 C521 1.390 . S
C527 C524 1.386 . S
C528 C523 1.490 . S
C528 C530 1.395 1_565 S
C528 C531 1.401 . S
H529 C535 0.930 . S
C530 H516 0.930 . S
C530 C528 1.395 1_545 S
C530 C533 1.403 . S
C531 C528 1.401 . S
C531 C532 1.522 . S
C531 C535 1.403 1_565 S
C532 H517 0.960 . S
C532 H518 0.960 . S
C532 H519 0.960 . S
C532 C531 1.522 . S
C533 C530 1.403 . S
C533 C534 1.392 . S
C533 C537 1.495 . S
C534 C533 1.392 . S
C534 C535 1.385 . S
C534 C536 1.478 . S
C535 H529 0.930 . S
C535 C531 1.403 1_545 S
C535 C534 1.385 . S
C536 C534 1.478 . S
C536 C538 1.381 . S
C536 C542 1.383 . S
C537 C533 1.495 . S
C537 H543 0.959 . S
C537 H544 0.961 . S
C537 H545 0.960 . S
C538 C536 1.381 . S
C538 C539 1.394 . S
C538 H546 0.930 . S
C539 C538 1.394 . S
C539 C540 1.383 . S
C539 H547 0.929 . S
C540 C539 1.383 . S
C540 C541 1.377 . S
C541 H525 0.930 . S
C541 C540 1.377 . S
C541 C542 1.379 . S
C542 H526 0.931 . S
C542 C536 1.383 . S
C542 C541 1.379 . S
H543 C537 0.959 . S
H544 C537 0.961 . S
H545 C537 0.960 . S
H546 C538 0.930 . S
H547 C539 0.929 . S
H548 C556 0.929 . S
H549 C558 0.930 . S
H550 C560 0.930 . S
H551 C563 0.929 . S
H552 C566 0.930 . S
H553 C568 0.960 . S
H554 C568 0.960 . S
H555 C568 0.960 . S
C556 H548 0.929 . S
C556 C557 1.377 . S
C556 C558 1.384 . S
C557 C556 1.377 . S
C557 C563 1.390 . S
C558 H549 0.930 . S
C558 C556 1.384 . S
C558 C559 1.372 . S
C559 C558 1.372 . S
C559 C560 1.400 . S
C559 C564 1.490 . S
C560 H550 0.930 . S
C560 C559 1.400 . S
C560 C563 1.386 . S
H561 C577 0.930 . S
H562 C578 0.931 . S
C563 H551 0.929 . S
C563 C557 1.390 . S
C563 C560 1.386 . S
C564 C559 1.490 . S
C564 C566 1.395 . S
C564 C567 1.403 . S
H565 C571 0.930 . S
C566 H552 0.930 . S
C566 C564 1.395 . S
C566 C569 1.403 . S
C567 C564 1.403 . S
C567 C568 1.524 . S
C567 C571 1.400 . S
C568 H553 0.960 . S
C568 H554 0.960 . S
C568 H555 0.960 . S
C568 C567 1.524 . S
C569 C566 1.403 . S
C569 C570 1.392 . S
C569 C573 1.495 . S
C570 C569 1.392 . S
C570 C571 1.385 . S
C570 C572 1.478 . S
C571 H565 0.930 . S
C571 C567 1.400 . S
C571 C570 1.385 . S
C572 C570 1.478 . S
C572 C574 1.381 . S
C572 C578 1.383 . S
C573 C569 1.495 . S
C573 H579 0.959 . S
C573 H580 0.961 . S
C573 H581 0.960 . S
C574 C572 1.381 . S
C574 C575 1.394 . S
C574 H582 0.930 . S
C575 C574 1.394 . S
C575 C576 1.383 . S
C575 H583 0.929 . S
C576 C575 1.383 . S
C576 C577 1.377 . S
C577 H561 0.930 . S
C577 C576 1.377 . S
C577 C578 1.379 . S
C578 H562 0.931 . S
C578 C572 1.383 . S
C578 C577 1.379 . S
H579 C573 0.959 . S
H580 C573 0.961 . S
H581 C573 0.960 . S
H582 C574 0.930 . S
H583 C575 0.929 . S
H584 C592 0.929 . S
H585 C594 0.930 . S
H586 C596 0.930 . S
H587 C599 0.929 . S
H588 C602 0.930 . S
H589 C604 0.960 . S
H590 C604 0.960 . S
H591 C604 0.960 . S
C592 H584 0.929 . S
C592 C593 1.377 . S
C592 C594 1.384 . S
C593 C592 1.377 . S
C593 C599 1.390 . S
C594 H585 0.930 . S
C594 C592 1.384 . S
C594 C595 1.372 . S
C595 C594 1.372 . S
C595 C596 1.400 . S
C595 C600 1.490 . S
C596 H586 0.930 . S
C596 C595 1.400 . S
C596 C599 1.386 . S
H597 C613 0.930 . S
H598 C614 0.931 . S
C599 H587 0.929 . S
C599 C593 1.390 . S
C599 C596 1.386 . S
C600 C595 1.490 . S
C600 C602 1.395 . S
C600 C603 1.403 . S
H601 C607 0.930 . S
C602 H588 0.930 . S
C602 C600 1.395 . S
C602 C605 1.403 1_556 S
C603 C600 1.403 . S
C603 C604 1.524 . S
C603 C607 1.400 . S
C604 H589 0.960 . S
C604 H590 0.960 . S
C604 H591 0.960 . S
C604 C603 1.524 . S
C605 C602 1.403 1_554 S
C605 C606 1.392 . S
C605 C609 1.495 . S
C606 C605 1.392 . S
C606 C607 1.385 1_554 S
C606 C608 1.478 . S
C607 H601 0.930 . S
C607 C603 1.400 . S
C607 C606 1.385 1_556 S
C608 C606 1.478 . S
C608 C610 1.381 . S
C608 C614 1.383 . S
C609 C605 1.495 . S
C609 H615 0.959 . S
C609 H616 0.961 . S
C609 H617 0.960 . S
C610 C608 1.381 . S
C610 C611 1.394 . S
C610 H618 0.930 . S
C611 C610 1.394 . S
C611 C612 1.383 . S
C611 H619 0.929 . S
C612 C611 1.383 . S
C612 C613 1.377 . S
C613 H597 0.930 . S
C613 C612 1.377 . S
C613 C614 1.379 . S
C614 H598 0.931 . S
C614 C608 1.383 . S
C614 C613 1.379 . S
H615 C609 0.959 . S
H616 C609 0.961 . S
H617 C609 0.960 . S
H618 C610 0.930 . S
H619 C611 0.929 . S
H620 C628 0.929 . S
H621 C630 0.930 . S
H622 C632 0.930 . S
H623 C635 0.929 . S
H624 C638 0.930 . S
H625 C640 0.960 . S
H626 C640 0.960 . S
H627 C640 0.960 . S
C628 H620 0.929 . S
C628 C629 1.377 . S
C628 C630 1.384 . S
C629 C628 1.377 . S
C629 C635 1.390 . S
C630 H621 0.930 . S
C630 C628 1.384 . S
C630 C631 1.372 . S
C631 C630 1.372 . S
C631 C632 1.400 . S
C631 C636 1.490 . S
C632 H622 0.930 . S
C632 C631 1.400 . S
C632 C635 1.386 . S
H633 C649 0.930 . S
H634 C650 0.931 . S
C635 H623 0.929 . S
C635 C629 1.390 . S
C635 C632 1.386 . S
C636 C631 1.490 . S
C636 C638 1.395 1_554 S
C636 C639 1.405 . S
H637 C643 0.930 . S
C638 H624 0.930 . S
C638 C636 1.395 1_556 S
C638 C641 1.403 . S
C639 C636 1.405 . S
C639 C640 1.545 . S
C639 C643 1.375 1_554 S
C640 H625 0.960 . S
C640 H626 0.960 . S
C640 H627 0.960 . S
C640 C639 1.545 . S
C641 C638 1.403 . S
C641 C642 1.392 . S
C641 C645 1.495 . S
C642 C641 1.392 . S
C642 C643 1.385 . S
C642 C644 1.478 . S
C643 H637 0.930 . S
C643 C639 1.375 1_556 S
C643 C642 1.385 . S
C644 C642 1.478 . S
C644 C646 1.381 . S
C644 C650 1.383 . S
C645 C641 1.495 . S
C645 H651 0.959 . S
C645 H652 0.961 . S
C645 H653 0.960 . S
C646 C644 1.381 . S
C646 C647 1.394 . S
C646 H654 0.930 . S
C647 C646 1.394 . S
C647 C648 1.383 . S
C647 H655 0.929 . S
C648 C647 1.383 . S
C648 C649 1.377 . S
C649 H633 0.930 . S
C649 C648 1.377 . S
C649 C650 1.379 . S
C650 H634 0.931 . S
C650 C644 1.383 . S
C650 C649 1.379 . S
H651 C645 0.959 . S
H652 C645 0.961 . S
H653 C645 0.960 . S
H654 C646 0.930 . S
H655 C647 0.929 . S
H656 C664 0.929 . S
H657 C666 0.930 . S
H658 C668 0.930 . S
H659 C671 0.929 . S
H660 C674 0.930 . S
H661 C676 0.960 . S
H662 C676 0.960 . S
H663 C676 0.960 . S
C664 H656 0.929 . S
C664 C665 1.377 . S
C664 C666 1.384 . S
C665 C664 1.377 . S
C665 C671 1.390 . S
C666 H657 0.930 . S
C666 C664 1.384 . S
C666 C667 1.372 . S
C667 C666 1.372 . S
C667 C668 1.400 . S
C667 C672 1.490 . S
C668 H658 0.930 . S
C668 C667 1.400 . S
C668 C671 1.386 . S
H669 C685 0.930 . S
H670 C686 0.931 . S
C671 H659 0.929 . S
C671 C665 1.390 . S
C671 C668 1.386 . S
C672 C667 1.490 . S
C672 C674 1.395 . S
C672 C675 1.403 . S
H673 C679 0.930 . S
C674 H660 0.930 . S
C674 C672 1.395 . S
C674 C677 1.403 . S
C675 C672 1.403 . S
C675 C676 1.524 . S
C675 C679 1.400 . S
C676 H661 0.960 . S
C676 H662 0.960 . S
C676 H663 0.960 . S
C676 C675 1.524 . S
C677 C674 1.403 . S
C677 C678 1.392 . S
C677 C681 1.495 . S
C678 C677 1.392 . S
C678 C679 1.385 . S
C678 C680 1.478 . S
C679 H673 0.930 . S
C679 C675 1.400 . S
C679 C678 1.385 . S
C680 C678 1.478 . S
C680 C682 1.381 . S
C680 C686 1.383 . S
C681 C677 1.495 . S
C681 H687 0.959 . S
C681 H688 0.961 . S
C681 H689 0.960 . S
C682 C680 1.381 . S
C682 C683 1.394 . S
C682 H690 0.930 . S
C683 C682 1.394 . S
C683 C684 1.383 . S
C683 H691 0.929 . S
C684 C683 1.383 . S
C684 C685 1.377 . S
C685 H669 0.930 . S
C685 C684 1.377 . S
C685 C686 1.379 . S
C686 H670 0.931 . S
C686 C680 1.383 . S
C686 C685 1.379 . S
H687 C681 0.959 . S
H688 C681 0.961 . S
H689 C681 0.960 . S
H690 C682 0.930 . S
H691 C683 0.929 . S
H692 C700 0.929 . S
H693 C702 0.930 . S
H694 C704 0.930 . S
H695 C707 0.929 . S
H696 C710 0.930 . S
H697 C712 0.960 . S
H698 C712 0.960 . S
H699 C712 0.960 . S
C700 H692 0.929 . S
C700 C701 1.377 . S
C700 C702 1.384 . S
C701 C700 1.377 . S
C701 C707 1.390 . S
C702 H693 0.930 . S
C702 C700 1.384 . S
C702 C703 1.372 . S
C703 C702 1.372 . S
C703 C704 1.400 . S
C703 C708 1.490 . S
C704 H694 0.930 . S
C704 C703 1.400 . S
C704 C707 1.386 . S
H705 C721 0.930 . S
H706 C722 0.931 . S
C707 H695 0.929 . S
C707 C701 1.390 . S
C707 C704 1.386 . S
C708 C703 1.490 . S
C708 C710 1.395 . S
C708 C711 1.403 . S
H709 C715 0.930 . S
C710 H696 0.930 . S
C710 C708 1.395 . S
C710 C713 1.403 . S
C711 C708 1.403 . S
C711 C712 1.524 . S
C711 C715 1.400 . S
C712 H697 0.960 . S
C712 H698 0.960 . S
C712 H699 0.960 . S
C712 C711 1.524 . S
C713 C710 1.403 . S
C713 C714 1.392 . S
C713 C717 1.495 . S
C714 C713 1.392 . S
C714 C715 1.385 . S
C714 C716 1.478 . S
C715 H709 0.930 . S
C715 C711 1.400 . S
C715 C714 1.385 . S
C716 C714 1.478 . S
C716 C718 1.381 . S
C716 C722 1.383 . S
C717 C713 1.495 . S
C717 H723 0.959 . S
C717 H724 0.961 . S
C717 H725 0.960 . S
C718 C716 1.381 . S
C718 C719 1.394 . S
C718 H726 0.930 . S
C719 C718 1.394 . S
C719 C720 1.383 . S
C719 H727 0.929 . S
C720 C719 1.383 . S
C720 C721 1.377 . S
C721 H705 0.930 . S
C721 C720 1.377 . S
C721 C722 1.379 . S
C722 H706 0.931 . S
C722 C716 1.383 . S
C722 C721 1.379 . S
H723 C717 0.959 . S
H724 C717 0.961 . S
H725 C717 0.960 . S
H726 C718 0.930 . S
H727 C719 0.929 . S
H728 C736 0.929 . S
H729 C738 0.930 . S
H730 C740 0.930 . S
H731 C743 0.929 . S
H732 C746 0.930 . S
H733 C748 0.960 1_455 S
H734 C748 0.960 . S
H735 C748 0.960 . S
C736 H728 0.929 . S
C736 C737 1.377 . S
C736 C738 1.384 . S
C737 C736 1.377 . S
C737 C743 1.390 . S
C738 H729 0.930 . S
C738 C736 1.384 . S
C738 C739 1.372 . S
C739 C738 1.372 . S
C739 C740 1.400 . S
C739 C744 1.490 . S
C740 H730 0.930 . S
C740 C739 1.400 . S
C740 C743 1.386 . S
H741 C757 0.930 . S
H742 C758 0.931 . S
C743 H731 0.929 . S
C743 C737 1.390 . S
C743 C740 1.386 . S
C744 C739 1.490 . S
C744 C746 1.395 . S
C744 C747 1.403 . S
H745 C751 0.930 . S
C746 H732 0.930 . S
C746 C744 1.395 . S
C746 C749 1.403 1_655 S
C747 C744 1.403 . S
C747 C748 1.524 . S
C747 C751 1.400 1_655 S
C748 H733 0.960 1_655 S
C748 H734 0.960 . S
C748 H735 0.960 . S
C748 C747 1.524 . S
C749 C746 1.403 1_455 S
C749 C750 1.392 . S
C749 C753 1.495 . S
C750 C749 1.392 . S
C750 C751 1.385 . S
C750 C752 1.478 . S
C751 H745 0.930 . S
C751 C747 1.400 1_455 S
C751 C750 1.385 . S
C752 C750 1.478 . S
C752 C754 1.381 . S
C752 C758 1.383 . S
C753 C749 1.495 . S
C753 H759 0.959 1_455 S
C753 H760 0.961 . S
C753 H761 0.960 . S
C754 C752 1.381 . S
C754 C755 1.394 . S
C754 H762 0.930 . S
C755 C754 1.394 . S
C755 C756 1.383 . S
C755 H763 0.929 . S
C756 C755 1.383 . S
C756 C757 1.377 . S
C757 H741 0.930 . S
C757 C756 1.377 . S
C757 C758 1.379 . S
C758 H742 0.931 . S
C758 C752 1.383 . S
C758 C757 1.379 . S
H759 C753 0.959 1_655 S
H760 C753 0.961 . S
H761 C753 0.960 . S
H762 C754 0.930 . S
H763 C755 0.929 . S
H764 C772 0.929 . S
H765 C774 0.930 . S
H766 C776 0.930 . S
H767 C779 0.929 . S
H768 C782 0.930 . S
H769 C784 0.960 . S
H770 C784 0.960 . S
H771 C784 0.960 . S
C772 H764 0.929 . S
C772 C773 1.377 . S
C772 C774 1.384 . S
C773 C772 1.377 . S
C773 C779 1.390 . S
C774 H765 0.930 . S
C774 C772 1.384 . S
C774 C775 1.372 . S
C775 C774 1.372 . S
C775 C776 1.400 . S
C775 C780 1.490 . S
C776 H766 0.930 . S
C776 C775 1.400 . S
C776 C779 1.386 . S
H777 C793 0.930 . S
H778 C794 0.931 . S
C779 H767 0.929 . S
C779 C773 1.390 . S
C779 C776 1.386 . S
C780 C775 1.490 . S
C780 C782 1.395 . S
C780 C783 1.403 . S
H781 C787 0.930 . S
C782 H768 0.930 . S
C782 C780 1.395 . S
C782 C785 1.403 1_655 S
C783 C780 1.403 . S
C783 C784 1.524 . S
C783 C787 1.400 1_655 S
C784 H769 0.960 . S
C784 H770 0.960 . S
C784 H771 0.960 . S
C784 C783 1.524 . S
C785 C782 1.403 1_455 S
C785 C786 1.392 . S
C785 C789 1.495 . S
C786 C785 1.392 . S
C786 C787 1.385 . S
C786 C788 1.478 . S
C787 H781 0.930 . S
C787 C783 1.400 1_455 S
C787 C786 1.385 . S
C788 C786 1.478 . S
C788 C790 1.381 . S
C788 C794 1.383 . S
C789 C785 1.495 . S
C789 H795 0.959 . S
C789 H796 0.961 . S
C789 H797 0.960 . S
C790 C788 1.381 . S
C790 C791 1.394 . S
C790 H798 0.930 . S
C791 C790 1.394 . S
C791 C792 1.383 . S
C791 H799 0.929 . S
C792 C791 1.383 . S
C792 C793 1.377 . S
C793 H777 0.930 . S
C793 C792 1.377 . S
C793 C794 1.379 . S
C794 H778 0.931 . S
C794 C788 1.383 . S
C794 C793 1.379 . S
H795 C789 0.959 . S
H796 C789 0.961 . S
H797 C789 0.960 . S
H798 C790 0.930 . S
H799 C791 0.929 . S
H800 C808 0.929 . S
H801 C810 0.930 . S
H802 C812 0.930 . S
H803 C815 0.929 . S
H804 C818 0.930 . S
H805 C820 0.960 . S
H806 C820 0.960 . S
H807 C820 0.960 . S
C808 H800 0.929 . S
C808 C809 1.377 . S
C808 C810 1.384 . S
C809 C808 1.377 . S
C809 C815 1.390 . S
C810 H801 0.930 . S
C810 C808 1.384 . S
C810 C811 1.372 . S
C811 C810 1.372 . S
C811 C812 1.400 . S
C811 C816 1.490 . S
C812 H802 0.930 . S
C812 C811 1.400 . S
C812 C815 1.386 . S
H813 C829 0.930 . S
H814 C830 0.931 . S
C815 H803 0.929 . S
C815 C809 1.390 . S
C815 C812 1.386 . S
C816 C811 1.490 . S
C816 C818 1.395 . S
C816 C819 1.403 . S
H817 C823 0.930 . S
C818 H804 0.930 . S
C818 C816 1.395 . S
C818 C821 1.403 . S
C819 C816 1.403 . S
C819 C820 1.524 . S
C819 C823 1.400 . S
C820 H805 0.960 . S
C820 H806 0.960 . S
C820 H807 0.960 . S
C820 C819 1.524 . S
C821 C818 1.403 . S
C821 C822 1.392 . S
C821 C825 1.495 . S
C822 C821 1.392 . S
C822 C823 1.385 . S
C822 C824 1.478 . S
C823 H817 0.930 . S
C823 C819 1.400 . S
C823 C822 1.385 . S
C824 C822 1.478 . S
C824 C826 1.381 . S
C824 C830 1.383 . S
C825 C821 1.495 . S
C825 H831 0.959 . S
C825 H832 0.961 . S
C825 H833 0.960 . S
C826 C824 1.381 . S
C826 C827 1.394 . S
C826 H834 0.930 . S
C827 C826 1.394 . S
C827 C828 1.383 . S
C827 H835 0.929 . S
C828 C827 1.383 . S
C828 C829 1.377 . S
C829 H813 0.930 . S
C829 C828 1.377 . S
C829 C830 1.379 . S
C830 H814 0.931 . S
C830 C824 1.383 . S
C830 C829 1.379 . S
H831 C825 0.959 . S
H832 C825 0.961 . S
H833 C825 0.960 . S
H834 C826 0.930 . S
H835 C827 0.929 . S
H836 C844 0.929 . S
H837 C846 0.930 . S
H838 C848 0.930 . S
H839 C851 0.929 . S
H840 C854 0.930 . S
H841 C856 0.960 . S
H842 C856 0.960 . S
H843 C856 0.960 . S
C844 H836 0.929 . S
C844 C845 1.377 . S
C844 C846 1.384 . S
C845 C844 1.377 . S
C845 C851 1.390 . S
C846 H837 0.930 . S
C846 C844 1.384 . S
C846 C847 1.372 . S
C847 C846 1.372 . S
C847 C848 1.400 . S
C847 C852 1.490 . S
C848 H838 0.930 . S
C848 C847 1.400 . S
C848 C851 1.386 . S
H849 C865 0.930 . S
H850 C866 0.931 . S
C851 H839 0.929 . S
C851 C845 1.390 . S
C851 C848 1.386 . S
C852 C847 1.490 . S
C852 C854 1.395 . S
C852 C855 1.403 1_545 S
H853 C859 0.930 . S
C854 H840 0.930 . S
C854 C852 1.395 . S
C854 C857 1.387 1_545 S
C855 C852 1.403 1_565 S
C855 C856 1.524 . S
C855 C859 1.400 . S
C856 H841 0.960 . S
C856 H842 0.960 . S
C856 H843 0.960 . S
C856 C855 1.524 . S
C857 C854 1.387 1_565 S
C857 C858 1.409 . S
C857 C861 1.495 1_565 S
C858 C857 1.409 . S
C858 C859 1.385 . S
C858 C860 1.478 . S
C859 H853 0.930 . S
C859 C855 1.400 . S
C859 C858 1.385 . S
C860 C858 1.478 . S
C860 C862 1.381 . S
C860 C866 1.383 . S
C861 C857 1.495 1_545 S
C861 H867 0.959 . S
C861 H868 0.961 . S
C861 H869 0.960 1_545 S
C862 C860 1.381 . S
C862 C863 1.394 . S
C862 H870 0.930 . S
C863 C862 1.394 . S
C863 C864 1.383 . S
C863 H871 0.929 . S
C864 C863 1.383 . S
C864 C865 1.377 . S
C865 H849 0.930 . S
C865 C864 1.377 . S
C865 C866 1.379 . S
C866 H850 0.931 . S
C866 C860 1.383 . S
C866 C865 1.379 . S
H867 C861 0.959 . S
H868 C861 0.961 . S
H869 C861 0.960 1_565 S
H870 C862 0.930 . S
H871 C863 0.929 . S
H872 C880 0.929 . S
H873 C882 0.930 . S
H874 C884 0.930 . S
H875 C887 0.929 . S
H876 C890 0.930 . S
H877 C892 0.960 . S
H878 C892 0.960 . S
H879 C892 0.960 . S
C880 H872 0.929 . S
C880 C881 1.377 . S
C880 C882 1.384 . S
C881 C880 1.377 . S
C881 C887 1.390 . S
C882 H873 0.930 . S
C882 C880 1.384 . S
C882 C883 1.372 . S
C883 C882 1.372 . S
C883 C884 1.400 . S
C883 C888 1.490 . S
C884 H874 0.930 . S
C884 C883 1.400 . S
C884 C887 1.386 . S
H885 C901 0.930 . S
H886 C902 0.931 . S
C887 H875 0.929 . S
C887 C881 1.390 . S
C887 C884 1.386 . S
C888 C883 1.490 . S
C888 C890 1.395 . S
C888 C891 1.403 . S
H889 C895 0.930 . S
C890 H876 0.930 . S
C890 C888 1.395 . S
C890 C893 1.403 . S
C891 C888 1.403 . S
C891 C892 1.524 . S
C891 C895 1.400 . S
C892 H877 0.960 . S
C892 H878 0.960 . S
C892 H879 0.960 . S
C892 C891 1.524 . S
C893 C890 1.403 . S
C893 C894 1.392 . S
C893 C897 1.495 . S
C894 C893 1.392 . S
C894 C895 1.385 . S
C894 C896 1.478 . S
C895 H889 0.930 . S
C895 C891 1.400 . S
C895 C894 1.385 . S
C896 C894 1.478 . S
C896 C898 1.381 . S
C896 C902 1.383 . S
C897 C893 1.495 . S
C897 H903 0.959 . S
C897 H904 0.961 . S
C897 H905 0.960 . S
C898 C896 1.381 . S
C898 C899 1.394 . S
C898 H906 0.930 . S
C899 C898 1.394 . S
C899 C900 1.383 . S
C899 H907 0.929 . S
C900 C899 1.383 . S
C900 C901 1.377 . S
C901 H885 0.930 . S
C901 C900 1.377 . S
C901 C902 1.379 . S
C902 H886 0.931 . S
C902 C896 1.383 . S
C902 C901 1.379 . S
H903 C897 0.959 . S
H904 C897 0.961 . S
H905 C897 0.960 . S
H906 C898 0.930 . S
H907 C899 0.929 . S
H908 C916 0.929 . S
H909 C918 0.930 . S
H910 C920 0.930 . S
H911 C923 0.929 . S
H912 C926 0.930 . S
H913 C928 0.960 . S
H914 C928 0.960 . S
H915 C928 0.960 . S
C916 H908 0.929 . S
C916 C917 1.377 . S
C916 C918 1.384 . S
C917 C916 1.377 . S
C917 C923 1.390 . S
C918 H909 0.930 . S
C918 C916 1.384 . S
C918 C919 1.372 . S
C919 C918 1.372 . S
C919 C920 1.400 . S
C919 C924 1.490 . S
C920 H910 0.930 . S
C920 C919 1.400 . S
C920 C923 1.386 . S
H921 C937 0.930 . S
H922 C938 0.931 . S
C923 H911 0.929 . S
C923 C917 1.390 . S
C923 C920 1.386 . S
C924 C919 1.490 . S
C924 C926 1.395 . S
C924 C927 1.403 . S
H925 C931 0.930 1_556 S
C926 H912 0.930 . S
C926 C924 1.395 . S
C926 C929 1.403 . S
C927 C924 1.403 . S
C927 C928 1.524 . S
C927 C931 1.400 . S
C928 H913 0.960 . S
C928 H914 0.960 . S
C928 H915 0.960 . S
C928 C927 1.524 . S
C929 C926 1.403 . S
C929 C930 1.392 1_554 S
C929 C933 1.495 . S
C930 C929 1.392 1_556 S
C930 C931 1.385 1_556 S
C930 C932 1.478 . S
C931 H925 0.930 1_554 S
C931 C927 1.400 . S
C931 C930 1.385 1_554 S
C932 C930 1.478 . S
C932 C934 1.381 . S
C932 C938 1.383 . S
C933 C929 1.495 . S
C933 H939 0.959 . S
C933 H940 0.961 . S
C933 H941 0.960 . S
C934 C932 1.381 . S
C934 C935 1.394 . S
C934 H942 0.930 . S
C935 C934 1.394 . S
C935 C936 1.383 . S
C935 H943 0.929 . S
C936 C935 1.383 . S
C936 C937 1.377 . S
C937 H921 0.930 . S
C937 C936 1.377 . S
C937 C938 1.379 . S
C938 H922 0.931 . S
C938 C932 1.383 . S
C938 C937 1.379 . S
H939 C933 0.959 . S
H940 C933 0.961 . S
H941 C933 0.960 . S
H942 C934 0.930 . S
H943 C935 0.929 . S
H944 C952 0.929 . S
H945 C954 0.930 . S
H946 C956 0.930 . S
H947 C959 0.929 . S
H948 C962 0.930 . S
H949 C964 0.960 1_554 S
H950 C964 0.960 . S
H951 C964 0.960 . S
C952 H944 0.929 . S
C952 C953 1.377 . S
C952 C954 1.384 . S
C953 C952 1.377 . S
C953 C959 1.390 . S
C954 H945 0.930 . S
C954 C952 1.384 . S
C954 C955 1.372 . S
C955 C954 1.372 . S
C955 C956 1.400 . S
C955 C960 1.514 . S
C956 H946 0.930 . S
C956 C955 1.400 . S
C956 C959 1.386 . S
H957 C973 0.930 . S
H958 C974 0.931 . S
C959 H947 0.929 . S
C959 C953 1.390 . S
C959 C956 1.386 . S
C960 C955 1.514 . S
C960 C962 1.379 1_556 S
C960 C963 1.394 1_556 S
H961 C967 0.930 . S
C962 H948 0.930 . S
C962 C960 1.379 1_554 S
C962 C965 1.403 . S
C963 C960 1.394 1_554 S
C963 C964 1.524 1_554 S
C963 C967 1.400 . S
C964 H949 0.960 1_556 S
C964 H950 0.960 . S
C964 H951 0.960 . S
C964 C963 1.524 1_556 S
C965 C962 1.403 . S
C965 C966 1.392 . S
C965 C969 1.495 . S
C966 C965 1.392 . S
C966 C967 1.385 . S
C966 C968 1.478 . S
C967 H961 0.930 . S
C967 C963 1.400 . S
C967 C966 1.385 . S
C968 C966 1.478 . S
C968 C970 1.381 . S
C968 C974 1.383 . S
C969 C965 1.495 . S
C969 H975 0.959 . S
C969 H976 0.961 . S
C969 H977 0.960 . S
C970 C968 1.381 . S
C970 C971 1.394 . S
C970 H978 0.930 . S
C971 C970 1.394 . S
C971 C972 1.383 . S
C971 H979 0.929 . S
C972 C971 1.383 . S
C972 C973 1.377 . S
C973 H957 0.930 . S
C973 C972 1.377 . S
C973 C974 1.379 . S
C974 H958 0.931 . S
C974 C968 1.383 . S
C974 C973 1.379 . S
H975 C969 0.959 . S
H976 C969 0.961 . S
H977 C969 0.960 . S
H978 C970 0.930 . S
H979 C971 0.929 . S
H980 C988 0.929 . S
H981 C990 0.930 . S
H982 C992 0.930 . S
H983 C995 0.929 . S
H984 C998 0.930 . S
H985 C1000 0.960 . S
H986 C1000 0.960 . S
H987 C1000 0.960 . S
C988 H980 0.929 . S
C988 C989 1.377 . S
C988 C990 1.384 . S
C989 C988 1.377 . S
C989 C995 1.390 . S
C990 H981 0.930 . S
C990 C988 1.384 . S
C990 C991 1.372 . S
C991 C990 1.372 . S
C991 C992 1.400 . S
C991 C996 1.490 . S
C992 H982 0.930 . S
C992 C991 1.400 . S
C992 C995 1.386 . S
H993 C1009 0.930 . S
H994 C1010 0.931 . S
C995 H983 0.929 . S
C995 C989 1.390 . S
C995 C992 1.386 . S
C996 C991 1.490 . S
C996 C998 1.395 . S
C996 C999 1.403 . S
H997 C1003 0.930 . S
C998 H984 0.930 . S
C998 C996 1.395 . S
C998 C1001 1.403 . S
C999 C996 1.403 . S
C999 C1000 1.524 . S
C999 C1003 1.400 . S
C1000 H985 0.960 . S
C1000 H986 0.960 . S
C1000 H987 0.960 . S
C1000 C999 1.524 . S
C1001 C998 1.403 . S
C1001 C1002 1.392 . S
C1001 C1005 1.495 . S
C1002 C1001 1.392 . S
C1002 C1003 1.385 . S
C1002 C1004 1.478 . S
C1003 H997 0.930 . S
C1003 C999 1.400 . S
C1003 C1002 1.385 . S
C1004 C1002 1.478 . S
C1004 C1006 1.381 . S
C1004 C1010 1.383 . S
C1005 C1001 1.495 . S
C1005 H1011 0.959 . S
C1005 H1012 0.961 . S
C1005 H1013 0.960 . S
C1006 C1004 1.381 . S
C1006 C1007 1.394 . S
C1006 H1014 0.930 . S
C1007 C1006 1.394 . S
C1007 C1008 1.383 . S
C1007 H1015 0.929 . S
C1008 C1007 1.383 . S
C1008 C1009 1.377 . S
C1009 H993 0.930 . S
C1009 C1008 1.377 . S
C1009 C1010 1.379 . S
C1010 H994 0.931 . S
C1010 C1004 1.383 . S
C1010 C1009 1.379 . S
H1011 C1005 0.959 . S
H1012 C1005 0.961 . S
H1013 C1005 0.960 . S
H1014 C1006 0.930 . S
H1015 C1007 0.929 . S
H1016 C1024 0.929 . S
H1017 C1026 0.930 . S
H1018 C1028 0.930 . S
H1019 C1031 0.929 . S
H1020 C1034 0.930 . S
H1021 C1036 0.960 . S
H1022 C1036 0.960 . S
H1023 C1036 0.960 . S
C1024 H1016 0.929 . S
C1024 C1025 1.377 . S
C1024 C1026 1.384 . S
C1025 C1024 1.377 . S
C1025 C1031 1.390 . S
C1026 H1017 0.930 . S
C1026 C1024 1.384 . S
C1026 C1027 1.372 . S
C1027 C1026 1.372 . S
C1027 C1028 1.400 . S
C1027 C1032 1.490 . S
C1028 H1018 0.930 . S
C1028 C1027 1.400 . S
C1028 C1031 1.386 . S
H1029 C1045 0.930 . S
H1030 C1046 0.931 . S
C1031 H1019 0.929 . S
C1031 C1025 1.390 . S
C1031 C1028 1.386 . S
C1032 C1027 1.490 . S
C1032 C1034 1.395 . S
C1032 C1035 1.403 . S
H1033 C1039 0.930 . S
C1034 H1020 0.930 . S
C1034 C1032 1.395 . S
C1034 C1037 1.403 . S
C1035 C1032 1.403 . S
C1035 C1036 1.524 . S
C1035 C1039 1.400 . S
C1036 H1021 0.960 . S
C1036 H1022 0.960 . S
C1036 H1023 0.960 . S
C1036 C1035 1.524 . S
C1037 C1034 1.403 . S
C1037 C1038 1.392 . S
C1037 C1041 1.495 . S
C1038 C1037 1.392 . S
C1038 C1039 1.385 . S
C1038 C1040 1.478 . S
C1039 H1033 0.930 . S
C1039 C1035 1.400 . S
C1039 C1038 1.385 . S
C1040 C1038 1.478 . S
C1040 C1042 1.381 . S
C1040 C1046 1.383 . S
C1041 C1037 1.495 . S
C1041 H1047 0.959 . S
C1041 H1048 0.961 . S
C1041 H1049 0.960 . S
C1042 C1040 1.381 . S
C1042 C1043 1.394 . S
C1042 H1050 0.930 . S
C1043 C1042 1.394 . S
C1043 C1044 1.383 . S
C1043 H1051 0.929 . S
C1044 C1043 1.383 . S
C1044 C1045 1.377 . S
C1045 H1029 0.930 . S
C1045 C1044 1.377 . S
C1045 C1046 1.379 . S
C1046 H1030 0.931 . S
C1046 C1040 1.383 . S
C1046 C1045 1.379 . S
H1047 C1041 0.959 . S
H1048 C1041 0.961 . S
H1049 C1041 0.960 . S
H1050 C1042 0.930 . S
H1051 C1043 0.929 . S
H1052 C1060 0.929 . S
H1053 C1062 0.932 1_655 S
H1054 C1064 0.930 . S
H1055 C1067 0.929 . S
H1056 C1070 0.930 . S
H1057 C1072 0.960 . S
H1058 C1072 0.960 . S
H1059 C1072 0.960 . S
C1060 H1052 0.929 . S
C1060 C1061 1.377 . S
C1060 C1062 1.384 . S
C1061 C1060 1.377 . S
C1061 C1067 1.390 . S
C1062 H1053 0.932 1_455 S
C1062 C1060 1.384 . S
C1062 C1063 1.372 . S
C1063 C1062 1.372 . S
C1063 C1064 1.400 . S
C1063 C1068 1.490 . S
C1064 H1054 0.930 . S
C1064 C1063 1.400 . S
C1064 C1067 1.386 . S
H1065 C1081 0.930 . S
H1066 C1082 0.931 . S
C1067 H1055 0.929 . S
C1067 C1061 1.390 . S
C1067 C1064 1.386 . S
C1068 C1063 1.490 . S
C1068 C1070 1.395 1_455 S
C1068 C1071 1.403 . S
H1069 C1075 0.930 . S
C1070 H1056 0.930 . S
C1070 C1068 1.395 1_655 S
C1070 C1073 1.403 . S
C1071 C1068 1.403 . S
C1071 C1072 1.524 . S
C1071 C1075 1.400 . S
C1072 H1057 0.960 . S
C1072 H1058 0.960 . S
C1072 H1059 0.960 . S
C1072 C1071 1.524 . S
C1073 C1070 1.403 . S
C1073 C1074 1.392 . S
C1073 C1077 1.495 . S
C1074 C1073 1.392 . S
C1074 C1075 1.385 1_655 S
C1074 C1076 1.478 . S
C1075 H1069 0.930 . S
C1075 C1071 1.400 . S
C1075 C1074 1.385 1_455 S
C1076 C1074 1.478 . S
C1076 C1078 1.381 . S
C1076 C1082 1.383 . S
C1077 C1073 1.495 . S
C1077 H1083 0.959 . S
C1077 H1084 0.961 . S
C1077 H1085 0.960 . S
C1078 C1076 1.381 . S
C1078 C1079 1.394 . S
C1078 H1086 0.930 . S
C1079 C1078 1.394 . S
C1079 C1080 1.383 . S
C1079 H1087 0.929 . S
C1080 C1079 1.383 . S
C1080 C1081 1.377 . S
C1081 H1065 0.930 . S
C1081 C1080 1.377 . S
C1081 C1082 1.379 . S
C1082 H1066 0.931 . S
C1082 C1076 1.383 . S
C1082 C1081 1.379 . S
H1083 C1077 0.959 . S
H1084 C1077 0.961 . S
H1085 C1077 0.960 . S
H1086 C1078 0.930 . S
H1087 C1079 0.929 . S
H1088 C1096 0.929 . S
H1089 C1098 0.930 . S
H1090 C1100 0.930 . S
H1091 C1103 0.929 . S
H1092 C1106 0.930 . S
H1093 C1108 0.966 . S
H1094 C1108 0.956 1_455 S
H1095 C1108 0.960 1_455 S
C1096 H1088 0.929 . S
C1096 C1097 1.377 . S
C1096 C1098 1.384 . S
C1097 C1096 1.377 . S
C1097 C1103 1.390 . S
C1098 H1089 0.930 . S
C1098 C1096 1.384 . S
C1098 C1099 1.372 . S
C1099 C1098 1.372 . S
C1099 C1100 1.400 . S
C1099 C1104 1.490 . S
C1100 H1090 0.930 . S
C1100 C1099 1.400 . S
C1100 C1103 1.386 . S
H1101 C1117 0.930 . S
H1102 C1118 0.931 . S
C1103 H1091 0.929 . S
C1103 C1097 1.390 . S
C1103 C1100 1.386 . S
C1104 C1099 1.490 . S
C1104 C1106 1.395 . S
C1104 C1107 1.403 . S
H1105 C1111 0.930 . S
C1106 H1092 0.930 . S
C1106 C1104 1.395 . S
C1106 C1109 1.403 . S
C1107 C1104 1.403 . S
C1107 C1108 1.522 1_455 S
C1107 C1111 1.400 1_455 S
C1108 H1093 0.966 . S
C1108 H1094 0.956 1_655 S
C1108 H1095 0.960 1_655 S
C1108 C1107 1.522 1_655 S
C1109 C1106 1.403 . S
C1109 C1110 1.392 1_455 S
C1109 C1113 1.495 . S
C1110 C1109 1.392 1_655 S
C1110 C1111 1.385 . S
C1110 C1112 1.478 . S
C1111 H1105 0.930 . S
C1111 C1107 1.400 1_655 S
C1111 C1110 1.385 . S
C1112 C1110 1.478 . S
C1112 C1114 1.381 . S
C1112 C1118 1.383 . S
C1113 C1109 1.495 . S
C1113 H1119 0.959 . S
C1113 H1120 0.961 1_455 S
C1113 H1121 0.960 1_455 S
C1114 C1112 1.381 . S
C1114 C1115 1.394 . S
C1114 H1122 0.930 . S
C1115 C1114 1.394 . S
C1115 C1116 1.383 . S
C1115 H1123 0.929 . S
C1116 C1115 1.383 . S
C1116 C1117 1.377 . S
C1117 H1101 0.930 . S
C1117 C1116 1.377 . S
C1117 C1118 1.379 . S
C1118 H1102 0.931 . S
C1118 C1112 1.383 . S
C1118 C1117 1.379 . S
H1119 C1113 0.959 . S
H1120 C1113 0.961 1_655 S
H1121 C1113 0.960 1_655 S
H1122 C1114 0.930 . S
H1123 C1115 0.929 . S
H1124 C1132 0.929 . S
H1125 C1134 0.930 . S
H1126 C1136 0.930 . S
H1127 C1139 0.929 . S
H1128 C1142 0.930 . S
H1129 C1144 0.960 . S
H1130 C1144 0.960 . S
H1131 C1144 0.960 . S
C1132 H1124 0.929 . S
C1132 C1133 1.377 . S
C1132 C1134 1.384 . S
C1133 C1132 1.377 . S
C1133 C1139 1.390 . S
C1134 H1125 0.930 . S
C1134 C1132 1.384 . S
C1134 C1135 1.372 . S
C1135 C1134 1.372 . S
C1135 C1136 1.400 . S
C1135 C1140 1.490 . S
C1136 H1126 0.930 . S
C1136 C1135 1.400 . S
C1136 C1139 1.386 . S
H1137 C1153 0.930 . S
H1138 C1154 0.931 . S
C1139 H1127 0.929 . S
C1139 C1133 1.390 . S
C1139 C1136 1.386 . S
C1140 C1135 1.490 . S
C1140 C1142 1.395 . S
C1140 C1143 1.403 . S
H1141 C1147 0.930 . S
C1142 H1128 0.930 . S
C1142 C1140 1.395 . S
C1142 C1145 1.403 . S
C1143 C1140 1.403 . S
C1143 C1144 1.524 . S
C1143 C1147 1.400 . S
C1144 H1129 0.960 . S
C1144 H1130 0.960 . S
C1144 H1131 0.960 . S
C1144 C1143 1.524 . S
C1145 C1142 1.403 . S
C1145 C1146 1.392 . S
C1145 C1149 1.495 . S
C1146 C1145 1.392 . S
C1146 C1147 1.385 . S
C1146 C1148 1.478 . S
C1147 H1141 0.930 . S
C1147 C1143 1.400 . S
C1147 C1146 1.385 . S
C1148 C1146 1.478 . S
C1148 C1150 1.381 . S
C1148 C1154 1.383 . S
C1149 C1145 1.495 . S
C1149 H1155 0.959 . S
C1149 H1156 0.961 . S
C1149 H1157 0.960 . S
C1150 C1148 1.381 . S
C1150 C1151 1.394 . S
C1150 H1158 0.930 . S
C1151 C1150 1.394 . S
C1151 C1152 1.383 . S
C1151 H1159 0.929 . S
C1152 C1151 1.383 . S
C1152 C1153 1.377 . S
C1153 H1137 0.930 . S
C1153 C1152 1.377 . S
C1153 C1154 1.379 . S
C1154 H1138 0.931 . S
C1154 C1148 1.383 . S
C1154 C1153 1.379 . S
H1155 C1149 0.959 . S
H1156 C1149 0.961 . S
H1157 C1149 0.960 . S
H1158 C1150 0.930 . S
H1159 C1151 0.929 . S
H1160 C1168 0.929 . S
H1161 C1170 0.930 . S
H1162 C1172 0.930 . S
H1163 C1175 0.929 . S
H1164 C1178 0.930 . S
H1165 C1180 0.960 . S
H1166 C1180 0.960 . S
H1167 C1180 0.960 . S
C1168 H1160 0.929 . S
C1168 C1169 1.377 . S
C1168 C1170 1.384 . S
C1169 C1168 1.377 . S
C1169 C1175 1.390 . S
C1170 H1161 0.930 . S
C1170 C1168 1.384 . S
C1170 C1171 1.372 . S
C1171 C1170 1.372 . S
C1171 C1172 1.400 . S
C1171 C1176 1.490 . S
C1172 H1162 0.930 . S
C1172 C1171 1.400 . S
C1172 C1175 1.386 . S
H1173 C1189 0.930 . S
H1174 C1190 0.931 . S
C1175 H1163 0.929 . S
C1175 C1169 1.390 . S
C1175 C1172 1.386 . S
C1176 C1171 1.490 . S
C1176 C1178 1.395 . S
C1176 C1179 1.403 . S
H1177 C1183 0.930 . S
C1178 H1164 0.930 . S
C1178 C1176 1.395 . S
C1178 C1181 1.403 . S
C1179 C1176 1.403 . S
C1179 C1180 1.524 . S
C1179 C1183 1.400 . S
C1180 H1165 0.960 . S
C1180 H1166 0.960 . S
C1180 H1167 0.960 . S
C1180 C1179 1.524 . S
C1181 C1178 1.403 . S
C1181 C1182 1.392 . S
C1181 C1185 1.495 . S
C1182 C1181 1.392 . S
C1182 C1183 1.385 . S
C1182 C1184 1.478 . S
C1183 H1177 0.930 . S
C1183 C1179 1.400 . S
C1183 C1182 1.385 . S
C1184 C1182 1.478 . S
C1184 C1186 1.381 . S
C1184 C1190 1.383 . S
C1185 C1181 1.495 . S
C1185 H1191 0.959 . S
C1185 H1192 0.961 . S
C1185 H1193 0.960 . S
C1186 C1184 1.381 . S
C1186 C1187 1.394 . S
C1186 H1194 0.930 . S
C1187 C1186 1.394 . S
C1187 C1188 1.383 . S
C1187 H1195 0.929 . S
C1188 C1187 1.383 . S
C1188 C1189 1.377 . S
C1189 H1173 0.930 . S
C1189 C1188 1.377 . S
C1189 C1190 1.379 . S
C1190 H1174 0.931 . S
C1190 C1184 1.383 . S
C1190 C1189 1.379 . S
H1191 C1185 0.959 . S
H1192 C1185 0.961 . S
H1193 C1185 0.960 . S
H1194 C1186 0.930 . S
H1195 C1187 0.929 . S
H1196 C1204 0.929 . S
H1197 C1206 0.930 . S
H1198 C1208 0.930 . S
H1199 C1211 0.929 . S
H1200 C1214 0.930 . S
H1201 C1216 0.960 . S
H1202 C1216 0.960 . S
H1203 C1216 0.960 . S
C1204 H1196 0.929 . S
C1204 C1205 1.377 . S
C1204 C1206 1.384 . S
C1205 C1204 1.377 . S
C1205 C1211 1.390 . S
C1206 H1197 0.930 . S
C1206 C1204 1.384 . S
C1206 C1207 1.372 . S
C1207 C1206 1.372 . S
C1207 C1208 1.400 . S
C1207 C1212 1.490 . S
C1208 H1198 0.930 . S
C1208 C1207 1.400 . S
C1208 C1211 1.386 . S
H1209 C1225 0.930 . S
H1210 C1226 0.931 . S
C1211 H1199 0.929 . S
C1211 C1205 1.390 . S
C1211 C1208 1.386 . S
C1212 C1207 1.490 . S
C1212 C1214 1.395 1_545 S
C1212 C1215 1.403 . S
H1213 C1219 0.930 . S
C1214 H1200 0.930 . S
C1214 C1212 1.395 1_565 S
C1214 C1217 1.403 . S
C1215 C1212 1.403 . S
C1215 C1216 1.524 . S
C1215 C1219 1.400 1_545 S
C1216 H1201 0.960 . S
C1216 H1202 0.960 . S
C1216 H1203 0.960 . S
C1216 C1215 1.524 . S
C1217 C1214 1.403 . S
C1217 C1218 1.392 . S
C1217 C1221 1.495 . S
C1218 C1217 1.392 . S
C1218 C1219 1.385 . S
C1218 C1220 1.478 . S
C1219 H1213 0.930 . S
C1219 C1215 1.400 1_565 S
C1219 C1218 1.385 . S
C1220 C1218 1.478 . S
C1220 C1222 1.381 . S
C1220 C1226 1.383 . S
C1221 C1217 1.495 . S
C1221 H1227 0.959 . S
C1221 H1228 0.961 . S
C1221 H1229 0.960 . S
C1222 C1220 1.381 . S
C1222 C1223 1.394 . S
C1222 H1230 0.930 . S
C1223 C1222 1.394 . S
C1223 C1224 1.383 . S
C1223 H1231 0.929 . S
C1224 C1223 1.383 . S
C1224 C1225 1.377 . S
C1225 H1209 0.930 . S
C1225 C1224 1.377 . S
C1225 C1226 1.379 . S
C1226 H1210 0.931 . S
C1226 C1220 1.383 . S
C1226 C1225 1.379 . S
H1227 C1221 0.959 . S
H1228 C1221 0.961 . S
H1229 C1221 0.960 . S
H1230 C1222 0.930 . S
H1231 C1223 0.929 . S
H1232 C1240 0.929 . S
H1233 C1242 0.930 . S
H1234 C1244 0.930 . S
H1235 C1247 0.929 . S
H1236 C1250 0.930 . S
H1237 C1252 0.960 . S
H1238 C1252 0.960 . S
H1239 C1252 0.960 . S
C1240 H1232 0.929 . S
C1240 C1241 1.377 . S
C1240 C1242 1.384 . S
C1241 C1240 1.377 . S
C1241 C1247 1.390 . S
C1242 H1233 0.930 . S
C1242 C1240 1.384 . S
C1242 C1243 1.372 . S
C1243 C1242 1.372 . S
C1243 C1244 1.400 . S
C1243 C1248 1.490 . S
C1244 H1234 0.930 . S
C1244 C1243 1.400 . S
C1244 C1247 1.386 . S
H1245 C1261 0.930 . S
H1246 C1262 0.931 . S
C1247 H1235 0.929 . S
C1247 C1241 1.390 . S
C1247 C1244 1.386 . S
C1248 C1243 1.490 . S
C1248 C1250 1.395 . S
C1248 C1251 1.403 . S
H1249 C1255 0.930 . S
C1250 H1236 0.930 . S
C1250 C1248 1.395 . S
C1250 C1253 1.403 . S
C1251 C1248 1.403 . S
C1251 C1252 1.524 . S
C1251 C1255 1.400 . S
C1252 H1237 0.960 . S
C1252 H1238 0.960 . S
C1252 H1239 0.960 . S
C1252 C1251 1.524 . S
C1253 C1250 1.403 . S
C1253 C1254 1.392 . S
C1253 C1257 1.495 . S
C1254 C1253 1.392 . S
C1254 C1255 1.385 . S
C1254 C1256 1.478 . S
C1255 H1249 0.930 . S
C1255 C1251 1.400 . S
C1255 C1254 1.385 . S
C1256 C1254 1.478 . S
C1256 C1258 1.381 . S
C1256 C1262 1.383 . S
C1257 C1253 1.495 . S
C1257 H1263 0.959 . S
C1257 H1264 0.961 . S
C1257 H1265 0.960 . S
C1258 C1256 1.381 . S
C1258 C1259 1.394 . S
C1258 H1266 0.930 . S
C1259 C1258 1.394 . S
C1259 C1260 1.383 . S
C1259 H1267 0.929 . S
C1260 C1259 1.383 . S
C1260 C1261 1.377 . S
C1261 H1245 0.930 . S
C1261 C1260 1.377 . S
C1261 C1262 1.379 . S
C1262 H1246 0.931 . S
C1262 C1256 1.383 . S
C1262 C1261 1.379 . S
H1263 C1257 0.959 . S
H1264 C1257 0.961 . S
H1265 C1257 0.960 . S
H1266 C1258 0.930 . S
H1267 C1259 0.929 . S
H1268 C1276 0.929 . S
H1269 C1278 0.930 . S
H1270 C1280 0.930 . S
H1271 C1283 0.929 . S
H1272 C1286 0.930 . S
H1273 C1288 0.960 . S
H1274 C1288 0.960 . S
H1275 C1288 0.960 . S
C1276 H1268 0.929 . S
C1276 C1277 1.377 . S
C1276 C1278 1.384 . S
C1277 C1276 1.377 . S
C1277 C1283 1.390 . S
C1278 H1269 0.930 . S
C1278 C1276 1.384 . S
C1278 C1279 1.372 . S
C1279 C1278 1.372 . S
C1279 C1280 1.400 . S
C1279 C1284 1.490 . S
C1280 H1270 0.930 . S
C1280 C1279 1.400 . S
C1280 C1283 1.386 . S
H1281 C1297 0.930 . S
H1282 C1298 0.931 . S
C1283 H1271 0.929 . S
C1283 C1277 1.390 . S
C1283 C1280 1.386 . S
C1284 C1279 1.490 . S
C1284 C1286 1.395 . S
C1284 C1287 1.403 . S
H1285 C1291 0.930 . S
C1286 H1272 0.930 . S
C1286 C1284 1.395 . S
C1286 C1289 1.403 . S
C1287 C1284 1.403 . S
C1287 C1288 1.524 . S
C1287 C1291 1.400 . S
C1288 H1273 0.960 . S
C1288 H1274 0.960 . S
C1288 H1275 0.960 . S
C1288 C1287 1.524 . S
C1289 C1286 1.403 . S
C1289 C1290 1.392 . S
C1289 C1293 1.495 . S
C1290 C1289 1.392 . S
C1290 C1291 1.385 . S
C1290 C1292 1.478 . S
C1291 H1285 0.930 . S
C1291 C1287 1.400 . S
C1291 C1290 1.385 . S
C1292 C1290 1.478 . S
C1292 C1294 1.381 . S
C1292 C1298 1.383 . S
C1293 C1289 1.495 . S
C1293 H1299 0.959 . S
C1293 H1300 0.961 . S
C1293 H1301 0.960 . S
C1294 C1292 1.381 . S
C1294 C1295 1.394 . S
C1294 H1302 0.930 . S
C1295 C1294 1.394 . S
C1295 C1296 1.383 . S
C1295 H1303 0.929 . S
C1296 C1295 1.383 . S
C1296 C1297 1.377 . S
C1297 H1281 0.930 . S
C1297 C1296 1.377 . S
C1297 C1298 1.379 . S
C1298 H1282 0.931 . S
C1298 C1292 1.383 . S
C1298 C1297 1.379 . S
H1299 C1293 0.959 . S
H1300 C1293 0.961 . S
H1301 C1293 0.960 . S
H1302 C1294 0.930 . S
H1303 C1295 0.929 . S
H1304 C1312 0.929 . S
H1305 C1314 0.930 . S
H1306 C1316 0.930 . S
H1307 C1319 0.929 . S
H1308 C1322 0.930 . S
H1309 C1324 0.960 . S
H1310 C1324 0.960 . S
H1311 C1324 0.960 . S
C1312 H1304 0.929 . S
C1312 C1313 1.377 . S
C1312 C1314 1.384 . S
C1313 C1312 1.377 . S
C1313 C1319 1.390 . S
C1314 H1305 0.930 . S
C1314 C1312 1.384 . S
C1314 C1315 1.372 . S
C1315 C1314 1.372 . S
C1315 C1316 1.400 . S
C1315 C1320 1.490 . S
C1316 H1306 0.930 . S
C1316 C1315 1.400 . S
C1316 C1319 1.386 . S
H1317 C1333 0.930 . S
H1318 C1334 0.931 . S
C1319 H1307 0.929 . S
C1319 C1313 1.390 . S
C1319 C1316 1.386 . S
C1320 C1315 1.490 . S
C1320 C1322 1.395 . S
C1320 C1323 1.403 . S
H1321 C1327 0.930 . S
C1322 H1308 0.930 . S
C1322 C1320 1.395 . S
C1322 C1325 1.403 1_545 S
C1323 C1320 1.403 . S
C1323 C1324 1.524 . S
C1323 C1327 1.400 . S
C1324 H1309 0.960 . S
C1324 H1310 0.960 . S
C1324 H1311 0.960 . S
C1324 C1323 1.524 . S
C1325 C1322 1.403 1_565 S
C1325 C1326 1.392 . S
C1325 C1329 1.495 . S
C1326 C1325 1.392 . S
C1326 C1327 1.385 1_565 S
C1326 C1328 1.478 . S
C1327 H1321 0.930 . S
C1327 C1323 1.400 . S
C1327 C1326 1.385 1_545 S
C1328 C1326 1.478 . S
C1328 C1330 1.381 . S
C1328 C1334 1.383 . S
C1329 C1325 1.495 . S
C1329 H1335 0.959 . S
C1329 H1336 0.961 . S
C1329 H1337 0.960 . S
C1330 C1328 1.381 . S
C1330 C1331 1.394 . S
C1330 H1338 0.930 . S
C1331 C1330 1.394 . S
C1331 C1332 1.383 . S
C1331 H1339 0.929 . S
C1332 C1331 1.383 . S
C1332 C1333 1.377 . S
C1333 H1317 0.930 . S
C1333 C1332 1.377 . S
C1333 C1334 1.379 . S
C1334 H1318 0.931 . S
C1334 C1328 1.383 . S
C1334 C1333 1.379 . S
H1335 C1329 0.959 . S
H1336 C1329 0.961 . S
H1337 C1329 0.960 . S
H1338 C1330 0.930 . S
H1339 C1331 0.929 . S
H1340 C1348 0.929 . S
H1341 C1350 0.930 . S
H1342 C1352 0.930 . S
H1343 C1355 0.929 . S
H1344 C1358 0.930 . S
H1345 C1360 0.960 . S
H1346 C1360 0.960 . S
H1347 C1360 0.960 . S
C1348 H1340 0.929 . S
C1348 C1349 1.377 . S
C1348 C1350 1.384 . S
C1349 C1348 1.377 . S
C1349 C1355 1.390 . S
C1350 H1341 0.930 . S
C1350 C1348 1.384 . S
C1350 C1351 1.372 . S
C1351 C1350 1.372 . S
C1351 C1352 1.400 . S
C1351 C1356 1.490 . S
C1352 H1342 0.930 . S
C1352 C1351 1.400 . S
C1352 C1355 1.386 . S
H1353 C1369 0.930 . S
H1354 C1370 0.931 . S
C1355 H1343 0.929 . S
C1355 C1349 1.390 . S
C1355 C1352 1.386 . S
C1356 C1351 1.490 . S
C1356 C1358 1.395 . S
C1356 C1359 1.403 . S
H1357 C1363 0.930 . S
C1358 H1344 0.930 . S
C1358 C1356 1.395 . S
C1358 C1361 1.403 . S
C1359 C1356 1.403 . S
C1359 C1360 1.524 . S
C1359 C1363 1.400 . S
C1360 H1345 0.960 . S
C1360 H1346 0.960 . S
C1360 H1347 0.960 . S
C1360 C1359 1.524 . S
C1361 C1358 1.403 . S
C1361 C1362 1.392 . S
C1361 C1365 1.495 . S
C1362 C1361 1.392 . S
C1362 C1363 1.385 . S
C1362 C1364 1.478 . S
C1363 H1357 0.930 . S
C1363 C1359 1.400 . S
C1363 C1362 1.385 . S
C1364 C1362 1.478 . S
C1364 C1366 1.381 . S
C1364 C1370 1.383 . S
C1365 C1361 1.495 . S
C1365 H1371 0.959 . S
C1365 H1372 0.961 . S
C1365 H1373 0.960 . S
C1366 C1364 1.381 . S
C1366 C1367 1.394 . S
C1366 H1374 0.930 . S
C1367 C1366 1.394 . S
C1367 C1368 1.383 . S
C1367 H1375 0.929 . S
C1368 C1367 1.383 . S
C1368 C1369 1.377 . S
C1369 H1353 0.930 . S
C1369 C1368 1.377 . S
C1369 C1370 1.379 . S
C1370 H1354 0.931 . S
C1370 C1364 1.383 . S
C1370 C1369 1.379 . S
H1371 C1365 0.959 . S
H1372 C1365 0.961 . S
H1373 C1365 0.960 . S
H1374 C1366 0.930 . S
H1375 C1367 0.929 . S
C233 C9 1.500 . S
C252 C191 1.495 . S
C269 C23 1.495 . S
C288 C135 1.474 . S
C305 C205 1.060 . S
C324 C37 1.065 . S
C341 C51 1.065 . S
C360 C219 1.072 . S
C377 C65 1.495 . S
C396 C93 1.473 . S
C413 C149 1.498 . S
C432 C79 1.498 . S
C449 C163 1.065 . S
C468 C107 1.066 . S
C485 C121 1.062 . S
C504 C177 1.066 . S
C521 C35 1.391 . S
C540 C7 1.443 . S
C557 C21 1.433 . S
C576 C49 1.414 . S
C593 C174 1.351 . S
C612 C6 1.374 . S
C629 C20 1.406 . S
C648 C160 1.308 . S
C665 C62 1.400 . S
C684 C34 1.374 . S
C701 C146 1.398 . S
C720 C48 1.375 . S
C737 C22 2.507 . S
C756 C8 2.500 . S
C773 C50 1.506 . S
C792 C36 1.505 . S
C809 C148 2.506 . S
C828 C64 2.499 . S
C845 C104 1.761 . S
C864 C78 1.837 . S
C881 C92 1.828 . S
C900 C118 1.725 . S
C917 C217 1.681 . S
C936 C76 1.728 . S
C953 C90 1.719 . S
C972 C203 1.701 . S
C989 C132 1.723 . S
C1008 C105 1.672 . S
C1025 C119 1.677 . S
C1044 C188 1.701 . S
C1061 C91 0.844 . S
C1080 C77 0.868 . S
C1097 C120 1.886 . S
C1116 C106 1.879 . S
C1133 C133 0.855 . S
C1152 C189 0.862 . S
C1169 C147 1.432 . S
C1188 C161 1.419 . S
C1205 C175 1.386 . S
C1224 C63 1.428 . S
C1241 C176 1.507 . S
C1260 C162 1.504 . S
C1277 C202 1.760 . S
C1296 C190 1.839 . S
C1313 C134 1.828 . S
C1332 C216 1.725 . S
C1349 C218 1.885 . S
C1368 C204 1.882 . S
