# Generated by pormake.
# Topology umh, (4)-cn, num edge types: 1
# Building blocks:
#     Node 0, Type 0, BuildingBlock: QUQFOY_clean_sbu_1, # of connection points: 4
#     Node 1, Type 0, BuildingBlock: QUQFOY_clean_sbu_1, # of connection points: 4
#     Node 2, Type 0, BuildingBlock: QUQFOY_clean_sbu_1, # of connection points: 4
#     Node 3, Type 0, BuildingBlock: QUQFOY_clean_sbu_1, # of connection points: 4
#     Node 4, Type 0, BuildingBlock: QUQFOY_clean_sbu_1, # of connection points: 4
#     Node 5, Type 0, BuildingBlock: QUQFOY_clean_sbu_1, # of connection points: 4
#     Node 6, Type 0, BuildingBlock: QUQFOY_clean_sbu_1, # of connection points: 4
#     Node 7, Type 0, BuildingBlock: QUQFOY_clean_sbu_1, # of connection points: 4
#     Node 8, Type 0, BuildingBlock: QUQFOY_clean_sbu_1, # of connection points: 4
#     Node 9, Type 0, BuildingBlock: QUQFOY_clean_sbu_1, # of connection points: 4
#     Node 10, Type 0, BuildingBlock: QUQFOY_clean_sbu_1, # of connection points: 4
#     Node 11, Type 0, BuildingBlock: QUQFOY_clean_sbu_1, # of connection points: 4
#     Node 12, Type 0, BuildingBlock: QUQFOY_clean_sbu_1, # of connection points: 4
#     Node 13, Type 0, BuildingBlock: QUQFOY_clean_sbu_1, # of connection points: 4
#     Node 14, Type 0, BuildingBlock: QUQFOY_clean_sbu_1, # of connection points: 4
#     Node 15, Type 0, BuildingBlock: QUQFOY_clean_sbu_1, # of connection points: 4
#     Edge 16, Type (0, 0), BuildingBlock: UVAHIK_clean_linker_0, # of connection points: 2
#     Edge 17, Type (0, 0), BuildingBlock: UVAHIK_clean_linker_0, # of connection points: 2
#     Edge 18, Type (0, 0), BuildingBlock: UVAHIK_clean_linker_0, # of connection points: 2
#     Edge 19, Type (0, 0), BuildingBlock: UVAHIK_clean_linker_0, # of connection points: 2
#     Edge 20, Type (0, 0), BuildingBlock: UVAHIK_clean_linker_0, # of connection points: 2
#     Edge 21, Type (0, 0), BuildingBlock: UVAHIK_clean_linker_0, # of connection points: 2
#     Edge 22, Type (0, 0), BuildingBlock: UVAHIK_clean_linker_0, # of connection points: 2
#     Edge 23, Type (0, 0), BuildingBlock: UVAHIK_clean_linker_0, # of connection points: 2
#     Edge 24, Type (0, 0), BuildingBlock: UVAHIK_clean_linker_0, # of connection points: 2
#     Edge 25, Type (0, 0), BuildingBlock: UVAHIK_clean_linker_0, # of connection points: 2
#     Edge 26, Type (0, 0), BuildingBlock: UVAHIK_clean_linker_0, # of connection points: 2
#     Edge 27, Type (0, 0), BuildingBlock: UVAHIK_clean_linker_0, # of connection points: 2
#     Edge 28, Type (0, 0), BuildingBlock: UVAHIK_clean_linker_0, # of connection points: 2
#     Edge 29, Type (0, 0), BuildingBlock: UVAHIK_clean_linker_0, # of connection points: 2
#     Edge 30, Type (0, 0), BuildingBlock: UVAHIK_clean_linker_0, # of connection points: 2
#     Edge 31, Type (0, 0), BuildingBlock: UVAHIK_clean_linker_0, # of connection points: 2
#     Edge 32, Type (0, 0), BuildingBlock: UVAHIK_clean_linker_0, # of connection points: 2
#     Edge 33, Type (0, 0), BuildingBlock: UVAHIK_clean_linker_0, # of connection points: 2
#     Edge 34, Type (0, 0), BuildingBlock: UVAHIK_clean_linker_0, # of connection points: 2
#     Edge 35, Type (0, 0), BuildingBlock: UVAHIK_clean_linker_0, # of connection points: 2
#     Edge 36, Type (0, 0), BuildingBlock: UVAHIK_clean_linker_0, # of connection points: 2
#     Edge 37, Type (0, 0), BuildingBlock: UVAHIK_clean_linker_0, # of connection points: 2
#     Edge 38, Type (0, 0), BuildingBlock: UVAHIK_clean_linker_0, # of connection points: 2
#     Edge 39, Type (0, 0), BuildingBlock: UVAHIK_clean_linker_0, # of connection points: 2
#     Edge 40, Type (0, 0), BuildingBlock: UVAHIK_clean_linker_0, # of connection points: 2
#     Edge 41, Type (0, 0), BuildingBlock: UVAHIK_clean_linker_0, # of connection points: 2
#     Edge 42, Type (0, 0), BuildingBlock: UVAHIK_clean_linker_0, # of connection points: 2
#     Edge 43, Type (0, 0), BuildingBlock: UVAHIK_clean_linker_0, # of connection points: 2
#     Edge 44, Type (0, 0), BuildingBlock: UVAHIK_clean_linker_0, # of connection points: 2
#     Edge 45, Type (0, 0), BuildingBlock: UVAHIK_clean_linker_0, # of connection points: 2
#     Edge 46, Type (0, 0), BuildingBlock: UVAHIK_clean_linker_0, # of connection points: 2
#     Edge 47, Type (0, 0), BuildingBlock: UVAHIK_clean_linker_0, # of connection points: 2
# Relax obj value: 0.066
# Max RMSD: 0.294
# Mean RMSD: 0.294
data_MOF--net-umh--node1-QUQFOY_clean_sbu_1--edge1-UVAHIK_clean_linker_0
_symmetry_space_group_name_H-M    P1
_symmetry_Int_Tables_number       1
_symmetry_cell_setting            triclinic
loop_
_symmetry_equiv_pos_as_xyz
'x, y, z'
_cell_length_a     53.350566
_cell_length_b     53.325779
_cell_length_c     68.818463
_cell_angle_alpha  90.002362
_cell_angle_beta   89.974533
_cell_angle_gamma 89.970976
loop_
_atom_site_label
_atom_site_type_symbol
_atom_site_fract_x
_atom_site_fract_y
_atom_site_fract_z
_atom_type_partial_charge
O0 O 0.37206 0.10561 0.13607 0.0
Cd1 Cd 0.37204 0.10885 0.16584 0.0
Cd2 Cd 0.32554 0.08809 0.1609 0.0
O3 O 0.33704 0.08407 0.13188 0.0
O4 O 0.40801 0.1086 0.17434 0.0
O5 O 0.38118 0.07813 0.18086 0.0
C6 C 0.40378 0.08667 0.18162 0.0
C7 C 0.31012 0.05858 0.18303 0.0
C8 C 0.35675 0.09432 0.12494 0.0
C9 C 0.32865 0.14084 0.17669 0.0
O10 O 0.31532 0.12343 0.16954 0.0
O11 O 0.35238 0.13879 0.17766 0.0
O12 O 0.2963 0.06659 0.16891 0.0
O13 O 0.33342 0.0651 0.18311 0.0
O14 O 0.38607 0.36875 0.6365 0.0
Cd15 Cd 0.38514 0.36797 0.66642 0.0
Cd16 Cd 0.40837 0.32342 0.65919 0.0
O17 O 0.41267 0.33777 0.631 0.0
O18 O 0.38486 0.40378 0.67579 0.0
O19 O 0.41654 0.37762 0.68012 0.0
C20 C 0.40739 0.39987 0.68198 0.0
C21 C 0.43774 0.30843 0.68166 0.0
C22 C 0.39933 0.35597 0.62474 0.0
C23 C 0.35609 0.3223 0.67578 0.0
O24 O 0.37318 0.311 0.66634 0.0
O25 O 0.3579 0.34568 0.67928 0.0
O26 O 0.43123 0.2949 0.6669 0.0
O27 O 0.42974 0.33124 0.68228 0.0
O28 O 0.12528 0.38797 0.13528 0.0
Cd29 Cd 0.1259 0.38452 0.16503 0.0
Cd30 Cd 0.17138 0.40694 0.1599 0.0
O31 O 0.15919 0.4112 0.13107 0.0
O32 O 0.09008 0.38344 0.17389 0.0
O33 O 0.11588 0.41486 0.18021 0.0
C34 C 0.09362 0.40549 0.18117 0.0
C35 C 0.18651 0.43641 0.18217 0.0
C36 C 0.13988 0.40019 0.12416 0.0
C37 C 0.1706 0.35399 0.17524 0.0
O38 O 0.18317 0.37185 0.16791 0.0
O39 O 0.14684 0.35529 0.1766 0.0
O40 O 0.20002 0.42938 0.16755 0.0
O41 O 0.16349 0.42897 0.18272 0.0
O42 O 0.10533 0.12776 0.6356 0.0
Cd43 Cd 0.10781 0.12811 0.66548 0.0
Cd44 Cd 0.0852 0.17373 0.65964 0.0
O45 O 0.08171 0.16134 0.63085 0.0
O46 O 0.10733 0.09223 0.67449 0.0
O47 O 0.0767 0.11928 0.67999 0.0
C48 C 0.0852 0.0967 0.6813 0.0
C49 C 0.05537 0.18935 0.68148 0.0
C50 C 0.09325 0.14216 0.62421 0.0
C51 C 0.13771 0.17288 0.6762 0.0
O52 O 0.12016 0.18511 0.66809 0.0
O53 O 0.13638 0.14915 0.67795 0.0
O54 O 0.06315 0.20288 0.66711 0.0
O55 O 0.06226 0.16615 0.68194 0.0
O56 O 0.36703 0.38711 0.40822 0.0
Cd57 Cd 0.36583 0.38649 0.3783 0.0
Cd58 Cd 0.32148 0.40932 0.38606 0.0
O59 O 0.33615 0.41366 0.41414 0.0
O60 O 0.40152 0.38586 0.36876 0.0
O61 O 0.37575 0.4179 0.36461 0.0
C62 C 0.39786 0.40847 0.36264 0.0
C63 C 0.30606 0.43844 0.36361 0.0
C64 C 0.35443 0.40027 0.42017 0.0
C65 C 0.32021 0.35725 0.3693 0.0
O66 O 0.30904 0.37409 0.37908 0.0
O67 O 0.34347 0.35931 0.36545 0.0
O68 O 0.29282 0.43203 0.37854 0.0
O69 O 0.3289 0.43056 0.36281 0.0
O70 O 0.10539 0.37051 0.90846 0.0
Cd71 Cd 0.10741 0.36978 0.87858 0.0
Cd72 Cd 0.08428 0.32504 0.8846 0.0
O73 O 0.08043 0.33797 0.91323 0.0
O74 O 0.1081 0.40557 0.86944 0.0
O75 O 0.07628 0.37978 0.86447 0.0
C76 C 0.08563 0.40201 0.86301 0.0
C77 C 0.0548 0.30969 0.86243 0.0
C78 C 0.09267 0.35669 0.91986 0.0
C79 C 0.13675 0.32432 0.86847 0.0
O80 O 0.11918 0.31257 0.87695 0.0
O81 O 0.13548 0.34798 0.8661 0.0
O82 O 0.06154 0.29645 0.87727 0.0
O83 O 0.06251 0.33261 0.86161 0.0
O84 O 0.12567 0.10709 0.40871 0.0
Cd85 Cd 0.12627 0.10903 0.37882 0.0
Cd86 Cd 0.17179 0.08674 0.3849 0.0
O87 O 0.15906 0.08329 0.41362 0.0
O88 O 0.09057 0.10778 0.36953 0.0
O89 O 0.11819 0.07744 0.36471 0.0
C90 C 0.0955 0.08555 0.3631 0.0
C91 C 0.18848 0.05706 0.36341 0.0
C92 C 0.13993 0.09498 0.42018 0.0
C93 C 0.17089 0.13909 0.36811 0.0
O94 O 0.18311 0.12175 0.37648 0.0
O95 O 0.1472 0.13755 0.36616 0.0
O96 O 0.20134 0.06488 0.37813 0.0
O97 O 0.16528 0.06377 0.36239 0.0
O98 O 0.3896 0.12968 0.90957 0.0
Cd99 Cd 0.38728 0.13111 0.87967 0.0
Cd100 Cd 0.40916 0.17631 0.88665 0.0
O101 O 0.41389 0.16255 0.91491 0.0
O102 O 0.38662 0.09539 0.87024 0.0
O103 O 0.41808 0.1215 0.86499 0.0
C104 C 0.40886 0.09924 0.86345 0.0
C105 C 0.43806 0.19165 0.864 0.0
C106 C 0.4021 0.14335 0.9212 0.0
C107 C 0.35669 0.17635 0.87083 0.0
O108 O 0.37379 0.18821 0.87979 0.0
O109 O 0.35892 0.15292 0.86761 0.0
O110 O 0.4317 0.20495 0.87892 0.0
O111 O 0.4302 0.16879 0.86329 0.0
O112 O 0.62147 0.88337 0.906 0.0
Cd113 Cd 0.62163 0.88269 0.87611 0.0
Cd114 Cd 0.66621 0.90668 0.88257 0.0
O115 O 0.65265 0.90983 0.91118 0.0
O116 O 0.58585 0.88398 0.86682 0.0
O117 O 0.61322 0.9147 0.8628 0.0
C118 C 0.59063 0.90649 0.8609 0.0
C119 C 0.6823 0.93681 0.86112 0.0
C120 C 0.63462 0.89641 0.91765 0.0
C121 C 0.66705 0.85435 0.86535 0.0
O122 O 0.6785 0.87186 0.87417 0.0
O123 O 0.64341 0.85531 0.86293 0.0
O124 O 0.69538 0.92915 0.87576 0.0
O125 O 0.65924 0.92966 0.86016 0.0
O126 O 0.61137 0.62253 0.40628 0.0
Cd127 Cd 0.61227 0.62286 0.3764 0.0
Cd128 Cd 0.58752 0.66687 0.3828 0.0
O129 O 0.58398 0.65297 0.41128 0.0
O130 O 0.61163 0.58712 0.36695 0.0
O131 O 0.58048 0.61405 0.36299 0.0
C132 C 0.58909 0.5916 0.36101 0.0
C133 C 0.55765 0.6829 0.36109 0.0
C134 C 0.59777 0.63527 0.41784 0.0
C135 C 0.63995 0.66883 0.36609 0.0
O136 O 0.62227 0.67992 0.375 0.0
O137 O 0.63928 0.64521 0.3634 0.0
O138 O 0.56458 0.69572 0.3761 0.0
O139 O 0.56536 0.66003 0.35985 0.0
O140 O 0.86517 0.60875 0.90892 0.0
Cd141 Cd 0.86446 0.60875 0.87898 0.0
Cd142 Cd 0.82022 0.58622 0.88635 0.0
O143 O 0.83459 0.5818 0.91455 0.0
O144 O 0.90026 0.60989 0.86976 0.0
O145 O 0.8754 0.57712 0.86594 0.0
C146 C 0.8973 0.58702 0.86401 0.0
C147 C 0.80553 0.55739 0.8634 0.0
C148 C 0.85256 0.59545 0.92077 0.0
C149 C 0.81894 0.63798 0.86943 0.0
O150 O 0.80769 0.62143 0.87943 0.0
O151 O 0.84219 0.63566 0.86559 0.0
O152 O 0.79197 0.56334 0.87829 0.0
O153 O 0.8283 0.56552 0.86294 0.0
O154 O 0.88654 0.86611 0.40906 0.0
Cd155 Cd 0.88651 0.86505 0.37914 0.0
Cd156 Cd 0.90828 0.82034 0.38669 0.0
O157 O 0.91267 0.83486 0.41486 0.0
O158 O 0.88725 0.90071 0.36955 0.0
O159 O 0.91859 0.87393 0.36598 0.0
C160 C 0.9099 0.89633 0.36382 0.0
C161 C 0.93714 0.80366 0.36451 0.0
C162 C 0.89945 0.85323 0.42098 0.0
C163 C 0.85646 0.82015 0.36965 0.0
O164 O 0.8729 0.80857 0.37954 0.0
O165 O 0.85906 0.8434 0.36591 0.0
O166 O 0.93044 0.79102 0.37968 0.0
O167 O 0.92976 0.82665 0.36332 0.0
O168 O 0.62544 0.6088 0.63513 0.0
Cd169 Cd 0.62589 0.60987 0.66505 0.0
Cd170 Cd 0.67054 0.58727 0.65856 0.0
O171 O 0.65664 0.58229 0.63027 0.0
O172 O 0.59008 0.60964 0.67426 0.0
O173 O 0.61666 0.57833 0.67879 0.0
C174 C 0.59428 0.58719 0.68054 0.0
C175 C 0.68659 0.5586 0.68119 0.0
C176 C 0.63851 0.59543 0.62365 0.0
C177 C 0.67088 0.63969 0.67467 0.0
O178 O 0.68254 0.62272 0.66537 0.0
O179 O 0.6475 0.63755 0.678 0.0
O180 O 0.69954 0.565 0.66609 0.0
O181 O 0.66367 0.56621 0.68209 0.0
O182 O 0.88416 0.62256 0.1376 0.0
Cd183 Cd 0.88332 0.62269 0.1675 0.0
Cd184 Cd 0.90697 0.66706 0.16126 0.0
O185 O 0.91076 0.65367 0.13266 0.0
O186 O 0.88278 0.58681 0.17651 0.0
O187 O 0.91483 0.61246 0.18092 0.0
C188 C 0.90544 0.59029 0.18258 0.0
C189 C 0.93651 0.68196 0.18362 0.0
C190 C 0.89737 0.6357 0.12606 0.0
C191 C 0.85465 0.66816 0.1779 0.0
O192 O 0.87207 0.67967 0.16902 0.0
O193 O 0.8559 0.64456 0.18055 0.0
O194 O 0.92981 0.69552 0.16894 0.0
O195 O 0.92875 0.65906 0.18414 0.0
O196 O 0.86881 0.88474 0.63758 0.0
Cd197 Cd 0.86818 0.88431 0.66746 0.0
Cd198 Cd 0.82421 0.90863 0.66065 0.0
O199 O 0.83844 0.9121 0.63226 0.0
O200 O 0.90382 0.88512 0.67706 0.0
O201 O 0.8769 0.91636 0.68061 0.0
C202 C 0.89933 0.90777 0.68276 0.0
C203 C 0.80775 0.93838 0.68225 0.0
C204 C 0.85619 0.89824 0.62588 0.0
C205 C 0.82231 0.85641 0.6776 0.0
O206 O 0.81125 0.87385 0.6684 0.0
O207 O 0.84585 0.85734 0.68057 0.0
O208 O 0.7952 0.93145 0.66711 0.0
O209 O 0.83063 0.93078 0.68366 0.0
O210 O 0.60582 0.86347 0.13456 0.0
Cd211 Cd 0.60608 0.8623 0.16449 0.0
Cd212 Cd 0.58396 0.81796 0.15685 0.0
O213 O 0.57938 0.83252 0.12873 0.0
O214 O 0.60774 0.89799 0.17387 0.0
O215 O 0.57479 0.87344 0.17796 0.0
C216 C 0.58497 0.89522 0.17989 0.0
C217 C 0.55519 0.80329 0.17984 0.0
C218 C 0.59272 0.85079 0.12263 0.0
C219 C 0.63575 0.81686 0.17361 0.0
O220 O 0.61923 0.8055 0.16365 0.0
O221 O 0.63324 0.84006 0.17753 0.0
O222 O 0.56108 0.78974 0.16493 0.0
O223 O 0.56338 0.82605 0.18032 0.0
C224 C 0.39452 0.11294 0.94827 0.0
C225 C 0.40127 0.13723 0.94228 0.0
C226 C 0.3908 0.1074 0.96792 0.0
C227 C 0.36844 0.10342 1.00814 0.0
H228 H 0.40678 0.13569 0.04881 0.0
C229 C 0.34224 0.0941 0.09003 0.0
C230 C 0.36179 0.09481 0.10369 0.0
C231 C 0.34713 0.09826 0.07022 0.0
C232 C 0.39604 0.12619 0.03768 0.0
H233 H 0.4099 0.17469 0.95241 0.0
H234 H 0.40282 0.16528 0.98674 0.0
H235 H 0.41642 0.14464 1.01503 0.0
H236 H 0.40197 0.09895 0.10711 0.0
H237 H 0.41061 0.10505 0.0728 0.0
H238 H 0.34869 0.08426 0.03078 0.0
C239 C 0.40086 0.15028 0.97626 0.0
C240 C 0.40134 0.13169 1.0182 0.0
C241 C 0.40492 0.15574 0.95654 0.0
C242 C 0.38641 0.09855 0.097 0.0
C243 C 0.39134 0.10234 0.07727 0.0
C244 C 0.3633 0.09774 0.02762 0.0
C245 C 0.39334 0.12609 0.98222 0.0
C246 C 0.38767 0.12035 1.0031 0.0
C247 C 0.37175 0.10292 0.0636 0.0
C248 C 0.37706 0.10897 0.04272 0.0
H249 H 0.39178 0.09814 0.93769 0.0
H250 H 0.38577 0.0884 0.97184 0.0
H251 H 0.3571 0.09462 0.99703 0.0
H252 H 0.32304 0.09149 0.09473 0.0
H253 H 0.33147 0.09873 0.06024 0.0
C254 C 0.38022 0.38243 0.44729 0.0
C255 C 0.36073 0.39847 0.44124 0.0
C256 C 0.38548 0.37896 0.46699 0.0
C257 C 0.37766 0.40663 0.51573 0.0
H258 H 0.38905 0.33848 0.53338 0.0
C259 C 0.38171 0.38131 0.59726 0.0
C260 C 0.39777 0.36199 0.60361 0.0
C261 C 0.3786 0.3864 0.5775 0.0
C262 C 0.38636 0.35768 0.52871 0.0
H263 H 0.33191 0.42394 0.45143 0.0
H264 H 0.34129 0.418 0.48603 0.0
H265 H 0.38042 0.34649 0.49918 0.0
H266 H 0.4236 0.33325 0.59387 0.0
H267 H 0.41861 0.3425 0.55924 0.0
H268 H 0.38383 0.41791 0.54519 0.0
C269 C 0.35247 0.40811 0.47535 0.0
C270 C 0.38128 0.36227 0.50906 0.0
C271 C 0.34704 0.41148 0.45553 0.0
C272 C 0.41106 0.34822 0.58955 0.0
C273 C 0.40802 0.35343 0.56966 0.0
C274 C 0.38293 0.40207 0.53537 0.0
C275 C 0.37154 0.39151 0.48131 0.0
C276 C 0.37678 0.38679 0.50232 0.0
C277 C 0.39156 0.37249 0.56335 0.0
C278 C 0.38721 0.3775 0.5422 0.0
H279 H 0.39131 0.37213 0.4368 0.0
H280 H 0.40057 0.36639 0.47101 0.0
H281 H 0.37466 0.42577 0.51099 0.0
H282 H 0.37102 0.39232 0.60757 0.0
H283 H 0.36544 0.4009 0.57334 0.0
C284 C 0.10027 0.38627 0.94746 0.0
C285 C 0.09369 0.36212 0.94104 0.0
C286 C 0.10416 0.3912 0.96718 0.0
C287 C 0.09467 0.36496 1.01706 0.0
H288 H 0.14638 0.41314 0.03019 0.0
C289 C 0.15383 0.40182 0.08913 0.0
C290 C 0.13454 0.40002 0.10296 0.0
C291 C 0.14877 0.3981 0.0693 0.0
C292 C 0.13205 0.39944 0.02687 0.0
H293 H 0.08559 0.32425 0.95047 0.0
H294 H 0.09304 0.33257 0.98492 0.0
H295 H 0.13778 0.40375 0.99632 0.0
H296 H 0.0946 0.39433 0.1067 0.0
H297 H 0.08561 0.38906 0.07237 0.0
H298 H 0.08978 0.35972 0.04761 0.0
C299 C 0.09469 0.34795 0.97474 0.0
C300 C 0.12678 0.39431 1.00732 0.0
C301 C 0.09041 0.34311 0.95495 0.0
C302 C 0.10996 0.39559 0.09644 0.0
C303 C 0.10485 0.39227 0.07669 0.0
C304 C 0.10013 0.36987 0.03661 0.0
C305 C 0.10201 0.37202 0.98113 0.0
C306 C 0.10786 0.37713 1.00208 0.0
C307 C 0.12422 0.39282 0.06282 0.0
C308 C 0.11877 0.38735 0.04185 0.0
H309 H 0.10272 0.40143 0.93715 0.0
H310 H 0.109 0.41013 0.97143 0.0
H311 H 0.07984 0.35179 1.01376 0.0
H312 H 0.173 0.40499 0.0937 0.0
H313 H 0.16429 0.3985 0.05917 0.0
C314 C 0.09188 0.15588 0.58911 0.0
C315 C 0.09415 0.13672 0.60302 0.0
C316 C 0.09606 0.15084 0.56933 0.0
C317 C 0.12622 0.10298 0.5369 0.0
H318 H 0.09124 0.13918 0.49639 0.0
C319 C 0.11009 0.10186 0.44773 0.0
C320 C 0.13446 0.09605 0.44136 0.0
C321 C 0.105 0.10575 0.46743 0.0
C322 C 0.10101 0.12859 0.50746 0.0
H323 H 0.10125 0.09701 0.60692 0.0
H324 H 0.10735 0.08804 0.57266 0.0
H325 H 0.0814 0.1477 0.5302 0.0
H326 H 0.17256 0.0893 0.45085 0.0
H327 H 0.16392 0.09676 0.48526 0.0
H328 H 0.1451 0.08314 0.51417 0.0
C329 C 0.10339 0.10718 0.57691 0.0
C330 C 0.09562 0.13382 0.52697 0.0
C331 C 0.0996 0.11228 0.59662 0.0
C332 C 0.15354 0.09353 0.4553 0.0
C333 C 0.14852 0.09781 0.47507 0.0
C334 C 0.13141 0.09755 0.51739 0.0
C335 C 0.10228 0.12645 0.56296 0.0
C336 C 0.10808 0.12106 0.54203 0.0
C337 C 0.12421 0.10437 0.4814 0.0
C338 C 0.11885 0.11021 0.50233 0.0
H339 H 0.08792 0.17495 0.59358 0.0
H340 H 0.09522 0.16629 0.55915 0.0
H341 H 0.13666 0.09305 0.54797 0.0
H342 H 0.09488 0.1037 0.43741 0.0
H343 H 0.08591 0.10998 0.47165 0.0
C344 C 0.61065 0.87636 0.09539 0.0
C345 C 0.59451 0.85701 0.10153 0.0
C346 C 0.61402 0.88161 0.07567 0.0
C347 C 0.58579 0.87405 0.02709 0.0
H348 H 0.6537 0.88538 1.00895 0.0
C349 C 0.60994 0.87847 0.94536 0.0
C350 C 0.62911 0.89458 0.93886 0.0
C351 C 0.60521 0.8752 0.96517 0.0
C352 C 0.63456 0.8827 1.01376 0.0
H353 H 0.5688 0.82837 0.09146 0.0
H354 H 0.57456 0.83772 0.05683 0.0
H355 H 0.64609 0.87664 0.0432 0.0
H356 H 0.65804 0.92029 0.94839 0.0
H357 H 0.64942 0.91501 0.98312 0.0
H358 H 0.57417 0.88035 0.99773 0.0
C359 C 0.5846 0.84881 0.06746 0.0
C360 C 0.6302 0.87756 0.03344 0.0
C361 C 0.58134 0.84341 0.0873 0.0
C362 C 0.64316 0.90772 0.95283 0.0
C363 C 0.63832 0.90452 0.97277 0.0
C364 C 0.59012 0.87937 1.00742 0.0
C365 C 0.60127 0.86779 0.06141 0.0
C366 C 0.60577 0.87308 0.04037 0.0
C367 C 0.61935 0.88805 0.97922 0.0
C368 C 0.6146 0.88363 1.00042 0.0
H369 H 0.62109 0.88739 0.10584 0.0
H370 H 0.62664 0.89662 0.0716 0.0
H371 H 0.56671 0.87107 0.03196 0.0
H372 H 0.59873 0.86788 0.93513 0.0
H373 H 0.59078 0.86203 0.96943 0.0
C374 C 0.61348 0.61223 0.59568 0.0
C375 C 0.63291 0.5966 0.60242 0.0
C376 C 0.6088 0.615 0.57582 0.0
C377 C 0.63879 0.60713 0.52748 0.0
H378 H 0.57096 0.61713 0.50868 0.0
C379 C 0.61588 0.61092 0.44565 0.0
C380 C 0.59942 0.62975 0.43906 0.0
C381 C 0.61907 0.6063 0.46548 0.0
C382 C 0.59003 0.61462 0.51372 0.0
H383 H 0.66232 0.57115 0.59328 0.0
H384 H 0.65381 0.57556 0.55849 0.0
H385 H 0.57817 0.60876 0.54309 0.0
H386 H 0.57295 0.65813 0.44844 0.0
H387 H 0.57842 0.64989 0.48327 0.0
H388 H 0.65058 0.61276 0.49805 0.0
C389 C 0.64246 0.58608 0.56867 0.0
C390 C 0.59422 0.6098 0.53349 0.0
C391 C 0.64724 0.58337 0.58865 0.0
C392 C 0.58575 0.64348 0.45295 0.0
C393 C 0.58885 0.63871 0.47291 0.0
C394 C 0.63458 0.61177 0.50771 0.0
C395 C 0.62327 0.60213 0.56197 0.0
C396 C 0.61869 0.6061 0.5407 0.0
C397 C 0.60583 0.62025 0.47941 0.0
C398 C 0.61016 0.61563 0.50056 0.0
H399 H 0.60204 0.62285 0.60576 0.0
H400 H 0.59417 0.62785 0.57135 0.0
H401 H 0.65792 0.6049 0.53244 0.0
H402 H 0.6267 0.5998 0.43548 0.0
H403 H 0.63195 0.59166 0.4699 0.0
C404 C 0.84529 0.58357 0.95602 0.0
C405 C 0.85854 0.5973 0.94191 0.0
C406 C 0.85057 0.58673 0.9759 0.0
C407 C 0.87814 0.63257 1.01034 0.0
H408 H 0.88257 0.57597 0.04545 0.0
C409 C 0.90851 0.64488 0.09094 0.0
C410 C 0.89572 0.63034 0.10482 0.0
C411 C 0.90533 0.64026 0.07097 0.0
C412 C 0.88114 0.59207 0.03593 0.0
H413 H 0.88809 0.62486 0.93783 0.0
H414 H 0.89709 0.63024 0.97211 0.0
H415 H 0.87331 0.56888 1.01118 0.0
H416 H 0.86976 0.59928 0.10835 0.0
H417 H 0.86397 0.5917 0.074 0.0
H418 H 0.88552 0.65583 0.03504 0.0
C419 C 0.88247 0.61723 0.96793 0.0
C420 C 0.87581 0.58795 1.01624 0.0
C421 C 0.87736 0.61397 0.94819 0.0
C422 C 0.88005 0.61089 0.09819 0.0
C423 C 0.87682 0.60636 0.07835 0.0
C424 C 0.88329 0.63671 0.03004 0.0
C425 C 0.86904 0.60386 0.98209 0.0
C426 C 0.87426 0.60814 1.00317 0.0
C427 C 0.88927 0.62102 0.06439 0.0
C428 C 0.88482 0.61654 0.04317 0.0
H429 H 0.83067 0.57061 0.95176 0.0
H430 H 0.83977 0.57621 0.98644 0.0
H431 H 0.87677 0.64861 1.00074 0.0
H432 H 0.92073 0.65999 0.09547 0.0
H433 H 0.91551 0.65177 0.06069 0.0
C434 C 0.91034 0.84535 0.45633 0.0
C435 C 0.89759 0.85934 0.44209 0.0
C436 C 0.90697 0.85065 0.47618 0.0
C437 C 0.86158 0.88011 0.51005 0.0
H438 H 0.91723 0.88126 0.54616 0.0
C439 C 0.84838 0.91001 0.59069 0.0
C440 C 0.86193 0.89642 0.6047 0.0
C441 C 0.85339 0.90683 0.57077 0.0
C442 C 0.90138 0.88075 0.53635 0.0
H443 H 0.87166 0.8903 0.43777 0.0
H444 H 0.86593 0.89936 0.47202 0.0
H445 H 0.92488 0.87211 0.51194 0.0
H446 H 0.8916 0.86892 0.60853 0.0
H447 H 0.89982 0.8631 0.57427 0.0
H448 H 0.83797 0.88829 0.53441 0.0
C449 C 0.8783 0.88412 0.46795 0.0
C450 C 0.90582 0.87549 0.51669 0.0
C451 C 0.88176 0.87897 0.44823 0.0
C452 C 0.88078 0.87986 0.59827 0.0
C453 C 0.88568 0.87662 0.57848 0.0
C454 C 0.8571 0.88519 0.52972 0.0
C455 C 0.89062 0.86992 0.48223 0.0
C456 C 0.88598 0.87512 0.50327 0.0
C457 C 0.87203 0.88992 0.56439 0.0
C458 C 0.87692 0.88554 0.54321 0.0
H459 H 0.92262 0.83009 0.45218 0.0
H460 H 0.91668 0.83926 0.48681 0.0
H461 H 0.84578 0.87965 0.50017 0.0
H462 H 0.83377 0.92293 0.59507 0.0
H463 H 0.84267 0.91767 0.56039 0.0
C464 C 0.20654 0.33449 0.1924 0.0
C465 C 0.18427 0.33161 0.18183 0.0
C466 C 0.2217 0.31381 0.19644 0.0
C467 C 0.25942 0.27262 0.19104 0.0
H468 H 0.23391 0.20473 0.19244 0.0
C469 C 0.32302 0.18725 0.17616 0.0
C470 C 0.31588 0.16372 0.1833 0.0
C471 C 0.3078 0.20822 0.17942 0.0
C472 C 0.24155 0.22352 0.19251 0.0
H473 H 0.15991 0.30505 0.1675 0.0
H474 H 0.18697 0.269 0.17345 0.0
H475 H 0.20486 0.23947 0.19318 0.0
H476 H 0.28857 0.14367 0.20056 0.0
H477 H 0.26304 0.18041 0.20759 0.0
H478 H 0.29613 0.25671 0.19139 0.0
C479 C 0.19247 0.28695 0.1794 0.0
C480 C 0.2247 0.24359 0.19252 0.0
C481 C 0.17691 0.3076 0.17588 0.0
C482 C 0.29431 0.16171 0.19482 0.0
C483 C 0.27951 0.18274 0.19859 0.0
C484 C 0.27628 0.25257 0.19153 0.0
C485 C 0.21539 0.28985 0.18939 0.0
C486 C 0.23334 0.26845 0.19134 0.0
C487 C 0.28546 0.20614 0.19031 0.0
C488 C 0.26762 0.22768 0.19183 0.0
H489 H 0.21245 0.35289 0.19727 0.0
H490 H 0.23866 0.31682 0.20474 0.0
H491 H 0.26702 0.29137 0.18983 0.0
H492 H 0.33945 0.1891 0.16701 0.0
H493 H 0.313 0.22569 0.17252 0.0
C494 C 0.33437 0.28143 0.68112 0.0
C495 C 0.33392 0.30778 0.68217 0.0
C496 C 0.31307 0.26741 0.68551 0.0
C497 C 0.2451 0.27275 0.68445 0.0
H498 H 0.24717 0.20756 0.70946 0.0
C499 C 0.15692 0.21239 0.68822 0.0
C500 C 0.15972 0.187 0.68322 0.0
C501 C 0.17776 0.22712 0.69247 0.0
C502 C 0.24632 0.22567 0.70237 0.0
H503 H 0.311 0.34 0.68949 0.0
H504 H 0.27352 0.31537 0.69711 0.0
H505 H 0.28453 0.2341 0.7094 0.0
H506 H 0.1864 0.15672 0.67975 0.0
H507 H 0.22318 0.18271 0.68662 0.0
H508 H 0.20737 0.26415 0.67673 0.0
C509 C 0.29045 0.30567 0.69274 0.0
C510 C 0.26767 0.2409 0.70239 0.0
C511 C 0.3119 0.31975 0.68846 0.0
C512 C 0.18374 0.17625 0.68356 0.0
C513 C 0.20476 0.19115 0.68757 0.0
C514 C 0.22384 0.25754 0.68436 0.0
C515 C 0.29071 0.27936 0.69099 0.0
C516 C 0.26739 0.26445 0.69316 0.0
C517 C 0.20202 0.21694 0.69153 0.0
C518 C 0.22425 0.23366 0.69309 0.0
H519 H 0.35109 0.27156 0.67648 0.0
H520 H 0.31384 0.24723 0.6838 0.0
H521 H 0.24438 0.29056 0.67691 0.0
H522 H 0.13856 0.22109 0.68842 0.0
H523 H 0.17488 0.2467 0.69599 0.0
C524 C 0.31762 0.31327 0.35617 0.0
C525 C 0.30568 0.33513 0.36283 0.0
C526 C 0.30354 0.29187 0.35172 0.0
C527 C 0.23879 0.26918 0.34217 0.0
H528 H 0.26221 0.20843 0.36715 0.0
C529 C 0.17422 0.18512 0.36074 0.0
C530 C 0.18494 0.16109 0.36099 0.0
C531 C 0.18911 0.20614 0.35671 0.0
C532 C 0.25555 0.22503 0.3597 0.0
H533 H 0.26951 0.35207 0.36904 0.0
H534 H 0.2452 0.31492 0.36143 0.0
H535 H 0.28863 0.24544 0.36717 0.0
H536 H 0.21891 0.13986 0.35556 0.0
H537 H 0.24451 0.17618 0.3479 0.0
H538 H 0.20542 0.2488 0.33507 0.0
C539 C 0.26535 0.31424 0.35955 0.0
C540 C 0.27077 0.24629 0.35972 0.0
C541 C 0.27936 0.33548 0.36411 0.0
C542 C 0.21026 0.15824 0.35584 0.0
C543 C 0.22497 0.17909 0.35154 0.0
C544 C 0.22357 0.24782 0.34206 0.0
C545 C 0.27728 0.29204 0.35367 0.0
C546 C 0.26239 0.26873 0.35129 0.0
C547 C 0.21486 0.20337 0.35261 0.0
C548 C 0.23161 0.22559 0.3511 0.0
H549 H 0.33785 0.31245 0.35495 0.0
H550 H 0.31323 0.27505 0.34706 0.0
H551 H 0.23195 0.28617 0.33538 0.0
H552 H 0.15474 0.1878 0.36468 0.0
H553 H 0.18072 0.22458 0.35776 0.0
C554 C 0.33426 0.2167 0.86491 0.0
C555 C 0.33412 0.19032 0.86454 0.0
C556 C 0.31269 0.23029 0.86048 0.0
C557 C 0.24482 0.22451 0.86259 0.0
H558 H 0.24582 0.28825 0.8354 0.0
C559 C 0.15605 0.28413 0.85788 0.0
C560 C 0.15876 0.30983 0.86185 0.0
C561 C 0.17692 0.26926 0.85397 0.0
C562 C 0.24526 0.27056 0.84311 0.0
H563 H 0.31141 0.15755 0.85846 0.0
H564 H 0.27343 0.18144 0.85082 0.0
H565 H 0.2834 0.26201 0.83587 0.0
H566 H 0.1853 0.34042 0.86387 0.0
H567 H 0.22213 0.31422 0.8576 0.0
H568 H 0.20717 0.23328 0.87053 0.0
C569 C 0.29035 0.19151 0.85465 0.0
C570 C 0.26674 0.25549 0.84332 0.0
C571 C 0.31208 0.17784 0.85896 0.0
C572 C 0.1827 0.32065 0.86085 0.0
C573 C 0.20375 0.30563 0.85719 0.0
C574 C 0.22343 0.23958 0.86247 0.0
C575 C 0.29036 0.21788 0.85566 0.0
C576 C 0.26685 0.23248 0.85332 0.0
C577 C 0.20113 0.27961 0.85423 0.0
C578 C 0.22346 0.26295 0.85295 0.0
H579 H 0.35097 0.22695 0.869 0.0
H580 H 0.31327 0.25054 0.86163 0.0
H581 H 0.24441 0.20712 0.87072 0.0
H582 H 0.13774 0.27534 0.85819 0.0
H583 H 0.17412 0.24946 0.85122 0.0
C584 C 0.67159 0.80855 0.85756 0.0
C585 C 0.68189 0.83274 0.85843 0.0
C586 C 0.68702 0.78783 0.85377 0.0
C587 C 0.7536 0.76977 0.85852 0.0
H588 H 0.73178 0.70861 0.83326 0.0
C589 C 0.81659 0.68193 0.85621 0.0
C590 C 0.80453 0.66003 0.86264 0.0
C591 C 0.80255 0.70327 0.85145 0.0
C592 C 0.73814 0.72562 0.84031 0.0
H593 H 0.71578 0.85455 0.85439 0.0
H594 H 0.74236 0.81875 0.84713 0.0
H595 H 0.7049 0.74574 0.83237 0.0
H596 H 0.76827 0.64292 0.8681 0.0
H597 H 0.74401 0.67996 0.85989 0.0
H598 H 0.78654 0.74958 0.86678 0.0
C599 C 0.72269 0.81549 0.8501 0.0
C600 C 0.72271 0.74684 0.83988 0.0
C601 C 0.70742 0.83604 0.85416 0.0
C602 C 0.77819 0.65956 0.86336 0.0
C603 C 0.76422 0.68073 0.85847 0.0
C604 C 0.76904 0.74865 0.85884 0.0
C605 C 0.71292 0.79103 0.85054 0.0
C606 C 0.73006 0.76905 0.84928 0.0
C607 C 0.77622 0.70298 0.85283 0.0
C608 C 0.76128 0.72619 0.85009 0.0
H609 H 0.65197 0.8055 0.86082 0.0
H610 H 0.67886 0.76926 0.85434 0.0
H611 H 0.75973 0.78634 0.86625 0.0
H612 H 0.83684 0.68284 0.85543 0.0
H613 H 0.81229 0.72014 0.84701 0.0
C614 C 0.68556 0.67377 0.35786 0.0
C615 C 0.6614 0.68401 0.35935 0.0
C616 C 0.70614 0.68934 0.35404 0.0
C617 C 0.72434 0.75578 0.35964 0.0
H618 H 0.78459 0.73459 0.33276 0.0
C619 C 0.81228 0.81848 0.35691 0.0
C620 C 0.83423 0.80609 0.36284 0.0
C621 C 0.79077 0.80471 0.35221 0.0
C622 C 0.76783 0.74077 0.34026 0.0
H623 H 0.63945 0.71804 0.3564 0.0
H624 H 0.675 0.74489 0.3491 0.0
H625 H 0.74741 0.70782 0.33211 0.0
H626 H 0.85126 0.76957 0.36743 0.0
H627 H 0.81394 0.74577 0.35929 0.0
H628 H 0.74485 0.78843 0.3681 0.0
C629 C 0.67836 0.72512 0.35161 0.0
C630 C 0.74659 0.7254 0.33996 0.0
C631 C 0.65795 0.7097 0.3557 0.0
C632 C 0.83458 0.77972 0.36309 0.0
C633 C 0.81325 0.76602 0.35823 0.0
C634 C 0.74548 0.77116 0.35982 0.0
C635 C 0.70281 0.71534 0.35138 0.0
C636 C 0.72472 0.73251 0.34996 0.0
C637 C 0.79096 0.77834 0.35312 0.0
C638 C 0.76762 0.76361 0.35049 0.0
H639 H 0.68873 0.65402 0.36063 0.0
H640 H 0.72472 0.68116 0.3541 0.0
H641 H 0.70805 0.76171 0.36782 0.0
H642 H 0.81147 0.83877 0.35652 0.0
H643 H 0.77385 0.81468 0.34818 0.0
C644 C 0.81746 0.81083 0.68602 0.0
C645 C 0.80717 0.83496 0.6844 0.0
C646 C 0.80191 0.79023 0.68984 0.0
C647 C 0.73561 0.77187 0.68389 0.0
H648 H 0.75647 0.71182 0.71117 0.0
C649 C 0.67267 0.68413 0.68688 0.0
C650 C 0.685 0.662 0.68125 0.0
C651 C 0.68649 0.70567 0.69144 0.0
C652 C 0.75038 0.72852 0.70355 0.0
H653 H 0.77308 0.85686 0.68713 0.0
H654 H 0.74627 0.82128 0.69442 0.0
H655 H 0.78324 0.749 0.71179 0.0
H656 H 0.72148 0.64472 0.67705 0.0
H657 H 0.74536 0.68209 0.68492 0.0
H658 H 0.70304 0.75131 0.67533 0.0
C659 C 0.76606 0.81795 0.69201 0.0
C660 C 0.76575 0.74976 0.70384 0.0
C661 C 0.78146 0.83837 0.68793 0.0
C662 C 0.71136 0.66153 0.68115 0.0
C663 C 0.72511 0.6829 0.68586 0.0
C664 C 0.72022 0.75073 0.68371 0.0
C665 C 0.77589 0.79351 0.69235 0.0
C666 C 0.75875 0.77157 0.69371 0.0
C667 C 0.71286 0.70534 0.69069 0.0
C668 C 0.72765 0.72867 0.69321 0.0
H669 H 0.83722 0.8077 0.68335 0.0
H670 H 0.81012 0.77166 0.68987 0.0
H671 H 0.72977 0.78812 0.6756 0.0
H672 H 0.6524 0.68505 0.68717 0.0
H673 H 0.67656 0.72269 0.69526 0.0
C674 C 0.83561 0.70846 0.18853 0.0
C675 C 0.83278 0.68278 0.18458 0.0
C676 C 0.81478 0.72342 0.19245 0.0
C677 C 0.74617 0.7222 0.20279 0.0
H678 H 0.7477 0.78594 0.17562 0.0
C679 C 0.65794 0.77632 0.17935 0.0
C680 C 0.65802 0.80267 0.18023 0.0
C681 C 0.67933 0.76262 0.18414 0.0
C682 C 0.7471 0.76845 0.18362 0.0
H683 H 0.80611 0.6523 0.18255 0.0
H684 H 0.76941 0.67863 0.18873 0.0
H685 H 0.78492 0.75978 0.17618 0.0
H686 H 0.68036 0.83528 0.18755 0.0
H687 H 0.71803 0.81122 0.19575 0.0
H688 H 0.7078 0.73062 0.20941 0.0
C689 C 0.78781 0.68716 0.1892 0.0
C690 C 0.76848 0.75339 0.18397 0.0
C691 C 0.8088 0.67205 0.18557 0.0
C692 C 0.67975 0.81501 0.18666 0.0
C693 C 0.70131 0.80126 0.19129 0.0
C694 C 0.72467 0.73724 0.20231 0.0
C695 C 0.79052 0.71317 0.19215 0.0
C696 C 0.76823 0.72991 0.19333 0.0
C697 C 0.70139 0.77493 0.18979 0.0
C698 C 0.72483 0.76034 0.19246 0.0
H699 H 0.85395 0.71716 0.1882 0.0
H700 H 0.81768 0.7432 0.19521 0.0
H701 H 0.7454 0.70443 0.21038 0.0
H702 H 0.64144 0.76619 0.1746 0.0
H703 H 0.67887 0.74241 0.18263 0.0
C704 C 0.22689 0.04022 0.34671 0.0
C705 C 0.20092 0.04475 0.34657 0.0
C706 C 0.23958 0.03408 0.32952 0.0
C707 C 0.23057 0.01694 0.277 0.0
H708 H 0.29225 0.05437 0.2705 0.0
C709 C 0.27265 0.04384 0.20202 0.0
C710 C 0.29883 0.0461 0.20028 0.0
C711 C 0.26167 0.03748 0.21987 0.0
C712 C 0.27533 0.04336 0.2721 0.0
H713 H 0.16772 0.04462 0.32839 0.0
H714 H 0.18976 0.03432 0.29851 0.0
H715 H 0.27146 0.05412 0.30184 0.0
H716 H 0.33403 0.04148 0.21563 0.0
H717 H 0.31494 0.03003 0.24657 0.0
H718 H 0.23414 0.00701 0.2469 0.0
C719 C 0.20042 0.03524 0.31188 0.0
C720 C 0.26335 0.04318 0.29019 0.0
C721 C 0.18772 0.04123 0.32908 0.0
C722 C 0.31381 0.04006 0.21644 0.0
C723 C 0.30284 0.03371 0.23426 0.0
C724 C 0.24254 0.0172 0.25884 0.0
C725 C 0.22666 0.03246 0.3117 0.0
C726 C 0.2406 0.03027 0.29287 0.0
C727 C 0.2766 0.03323 0.23641 0.0
C728 C 0.26493 0.03071 0.25608 0.0
H729 H 0.23766 0.04265 0.35992 0.0
H730 H 0.25969 0.03147 0.33008 0.0
H731 H 0.2133 0.00648 0.27853 0.0
H732 H 0.26052 0.04842 0.18992 0.0
H733 H 0.24142 0.0374 0.22096 0.0
C734 C 0.4565 0.31241 0.7149 0.0
C735 C 0.45021 0.29722 0.69892 0.0
C736 C 0.46276 0.30168 0.73282 0.0
C737 C 0.47801 0.24153 0.75817 0.0
H738 H 0.44218 0.27263 0.80086 0.0
C739 C 0.453 0.18947 0.82947 0.0
C740 C 0.45025 0.20327 0.84677 0.0
C741 C 0.45913 0.20147 0.81199 0.0
C742 C 0.45281 0.2639 0.78928 0.0
H743 H 0.44731 0.25876 0.68896 0.0
H744 H 0.45808 0.24006 0.72022 0.0
H745 H 0.44218 0.29253 0.76918 0.0
H746 H 0.45379 0.24029 0.85947 0.0
H747 H 0.46512 0.26111 0.82915 0.0
H748 H 0.48809 0.21254 0.77831 0.0
C749 C 0.45833 0.26029 0.7189 0.0
C750 C 0.45279 0.27537 0.771 0.0
C751 C 0.45214 0.27104 0.70093 0.0
C752 C 0.45562 0.22908 0.84643 0.0
C753 C 0.46186 0.24107 0.82896 0.0
C754 C 0.47809 0.23006 0.77653 0.0
C755 C 0.4628 0.27548 0.73528 0.0
C756 C 0.46508 0.2642 0.7551 0.0
C757 C 0.46278 0.22759 0.81136 0.0
C758 C 0.46516 0.2409 0.79229 0.0
H759 H 0.45538 0.33265 0.71387 0.0
H760 H 0.46666 0.31399 0.74497 0.0
H761 H 0.48792 0.23253 0.74634 0.0
H762 H 0.44898 0.16956 0.82914 0.0
H763 H 0.4595 0.1904 0.7988 0.0
C764 C 0.18446 0.45143 0.21671 0.0
C765 C 0.1981 0.4488 0.19933 0.0
C766 C 0.19659 0.45766 0.23411 0.0
C767 C 0.25933 0.45184 0.25636 0.0
H768 H 0.22849 0.48711 0.29946 0.0
C769 C 0.30926 0.45669 0.33012 0.0
C770 C 0.29446 0.4506 0.34636 0.0
C771 C 0.29813 0.46261 0.31228 0.0
C772 C 0.23735 0.47715 0.28758 0.0
H773 H 0.23495 0.45267 0.18639 0.0
H774 H 0.25597 0.46418 0.21656 0.0
H775 H 0.20792 0.48683 0.26771 0.0
H776 H 0.25624 0.4477 0.35685 0.0
H777 H 0.23684 0.45786 0.32574 0.0
H778 H 0.28838 0.4416 0.27619 0.0
C779 C 0.23597 0.46074 0.21689 0.0
C780 C 0.22554 0.47697 0.26935 0.0
C781 C 0.22385 0.45439 0.1995 0.0
C782 C 0.26824 0.45238 0.34467 0.0
C783 C 0.25708 0.45823 0.32678 0.0
C784 C 0.27112 0.45206 0.27451 0.0
C785 C 0.22268 0.46153 0.23457 0.0
C786 C 0.23621 0.46402 0.25354 0.0
C787 C 0.27189 0.4625 0.31016 0.0
C788 C 0.26018 0.46443 0.29046 0.0
H789 H 0.16461 0.4472 0.21716 0.0
H790 H 0.18568 0.45794 0.24738 0.0
H791 H 0.26794 0.44119 0.24474 0.0
H792 H 0.32952 0.45566 0.3309 0.0
H793 H 0.31016 0.46638 0.29994 0.0
C794 C 0.03634 0.18604 0.71472 0.0
C795 C 0.04286 0.2009 0.6986 0.0
C796 C 0.03008 0.19713 0.73252 0.0
C797 C 0.01507 0.25789 0.75712 0.0
H798 H 0.05043 0.22748 0.80031 0.0
C799 C 0.03992 0.31133 0.82786 0.0
C800 C 0.0425 0.29786 0.84533 0.0
C801 C 0.03383 0.29901 0.81052 0.0
C802 C 0.03992 0.23603 0.78859 0.0
H803 H 0.04613 0.23918 0.68828 0.0
H804 H 0.03532 0.25849 0.71928 0.0
H805 H 0.05046 0.20689 0.76889 0.0
H806 H 0.0387 0.26111 0.85846 0.0
H807 H 0.02742 0.23975 0.82837 0.0
H808 H 0.00507 0.2874 0.77685 0.0
C809 C 0.03491 0.23824 0.71818 0.0
C810 C 0.03997 0.22416 0.77046 0.0
C811 C 0.04115 0.22713 0.70035 0.0
C812 C 0.037 0.27208 0.84528 0.0
C813 C 0.03079 0.25977 0.82794 0.0
C814 C 0.01497 0.26977 0.77533 0.0
C815 C 0.03021 0.22338 0.7347 0.0
C816 C 0.02786 0.23507 0.75438 0.0
C817 C 0.03005 0.27289 0.81018 0.0
C818 C 0.02773 0.25918 0.79126 0.0
H819 H 0.03732 0.16578 0.7139 0.0
H820 H 0.026 0.18508 0.74479 0.0
H821 H 0.0053 0.26671 0.74515 0.0
H822 H 0.04407 0.3312 0.82732 0.0
H823 H 0.0336 0.3098 0.79719 0.0
C824 C 0.6798 0.95595 0.82788 0.0
C825 C 0.69426 0.94946 0.84422 0.0
C826 C 0.69131 0.9623 0.81026 0.0
C827 C 0.75246 0.97781 0.78658 0.0
H828 H 0.72362 0.94201 0.74297 0.0
C829 C 0.8081 0.95368 0.71672 0.0
C830 C 0.79518 0.95066 0.69906 0.0
C831 C 0.7952 0.95966 0.73384 0.0
C832 C 0.73173 0.95264 0.7548 0.0
H833 H 0.73225 0.94632 0.85513 0.0
H834 H 0.75231 0.95733 0.82443 0.0
H835 H 0.70225 0.94179 0.77408 0.0
H836 H 0.75874 0.9536 0.68533 0.0
H837 H 0.73635 0.96475 0.71502 0.0
H838 H 0.78228 0.98819 0.76729 0.0
C839 C 0.73204 0.95763 0.82522 0.0
C840 C 0.71942 0.95248 0.77275 0.0
C841 C 0.72051 0.95129 0.84288 0.0
C842 C 0.7693 0.95566 0.69867 0.0
C843 C 0.7564 0.96177 0.71578 0.0
C844 C 0.76477 0.97806 0.76855 0.0
C845 C 0.71759 0.96229 0.80849 0.0
C846 C 0.72975 0.96474 0.78899 0.0
C847 C 0.76901 0.96292 0.73376 0.0
C848 C 0.75478 0.96513 0.75246 0.0
H849 H 0.65953 0.95488 0.82838 0.0
H850 H 0.67957 0.96633 0.79782 0.0
H851 H 0.76084 0.9877 0.79869 0.0
H852 H 0.82803 0.94994 0.71761 0.0
H853 H 0.80563 0.96021 0.74732 0.0
C854 C 0.54047 0.72108 0.34426 0.0
C855 C 0.54518 0.69513 0.34423 0.0
C856 C 0.53413 0.73358 0.32702 0.0
C857 C 0.51628 0.72406 0.27475 0.0
H858 H 0.55363 0.78566 0.26749 0.0
C859 C 0.5407 0.76592 0.1991 0.0
C860 C 0.54324 0.79208 0.19734 0.0
C861 C 0.53494 0.75498 0.2171 0.0
C862 C 0.54263 0.76876 0.2693 0.0
H863 H 0.54514 0.66175 0.32621 0.0
H864 H 0.5344 0.68345 0.29628 0.0
H865 H 0.55399 0.76512 0.29893 0.0
H866 H 0.5397 0.82732 0.21285 0.0
H867 H 0.52917 0.80833 0.244 0.0
H868 H 0.50564 0.72743 0.24478 0.0
C869 C 0.53539 0.69424 0.30958 0.0
C870 C 0.54281 0.75692 0.28744 0.0
C871 C 0.54164 0.68175 0.32682 0.0
C872 C 0.53806 0.8071 0.21367 0.0
C873 C 0.53225 0.79618 0.23162 0.0
C874 C 0.51614 0.73591 0.25653 0.0
C875 C 0.53242 0.72047 0.30929 0.0
C876 C 0.52993 0.73422 0.2904 0.0
C877 C 0.53153 0.76993 0.23376 0.0
C878 C 0.52959 0.75828 0.25349 0.0
H879 H 0.54293 0.732 0.35739 0.0
H880 H 0.53141 0.75369 0.32749 0.0
H881 H 0.50586 0.70679 0.2765 0.0
H882 H 0.54466 0.75376 0.18688 0.0
H883 H 0.53466 0.73472 0.21815 0.0
C884 C 0.8094 0.54012 0.82963 0.0
C885 C 0.79433 0.54547 0.84589 0.0
C886 C 0.79855 0.53436 0.81165 0.0
C887 C 0.73835 0.51863 0.78656 0.0
H888 H 0.76821 0.55592 0.74411 0.0
C889 C 0.68508 0.54358 0.71573 0.0
C890 C 0.69866 0.54668 0.69836 0.0
C891 C 0.69736 0.53763 0.73313 0.0
C892 C 0.75983 0.5449 0.75562 0.0
H893 H 0.75598 0.54726 0.85621 0.0
H894 H 0.73706 0.53734 0.82489 0.0
H895 H 0.78846 0.55566 0.77566 0.0
H896 H 0.73564 0.54403 0.68546 0.0
H897 H 0.75696 0.53304 0.71564 0.0
H898 H 0.70934 0.5084 0.7665 0.0
C899 C 0.7573 0.53744 0.82601 0.0
C900 C 0.7715 0.54477 0.77382 0.0
C901 C 0.76817 0.54315 0.84404 0.0
C902 C 0.72458 0.5419 0.69856 0.0
C903 C 0.73686 0.53586 0.71595 0.0
C904 C 0.72666 0.51872 0.76829 0.0
C905 C 0.77233 0.53386 0.80941 0.0
C906 C 0.76079 0.53192 0.78964 0.0
C907 C 0.72356 0.53452 0.73362 0.0
C908 C 0.73706 0.53216 0.75261 0.0
H909 H 0.82962 0.54159 0.83052 0.0
H910 H 0.81075 0.53113 0.79932 0.0
H911 H 0.7297 0.50827 0.79832 0.0
H912 H 0.6651 0.54716 0.71617 0.0
H913 H 0.68643 0.53693 0.74637 0.0
C914 C 0.95362 0.76521 0.34759 0.0
C915 C 0.94909 0.79118 0.34751 0.0
C916 C 0.9596 0.75256 0.33033 0.0
C917 C 0.97678 0.76175 0.27786 0.0
H918 H 0.93945 0.70004 0.27115 0.0
C919 C 0.95119 0.71947 0.20262 0.0
C920 C 0.94878 0.69329 0.20093 0.0
C921 C 0.95722 0.73052 0.22052 0.0
C922 C 0.95044 0.71697 0.2728 0.0
H923 H 0.949 0.82444 0.32936 0.0
H924 H 0.95909 0.80248 0.2994 0.0
H925 H 0.93947 0.72077 0.30252 0.0
H926 H 0.95283 0.65813 0.21647 0.0
H927 H 0.96379 0.67731 0.24746 0.0
H928 H 0.98699 0.75822 0.24781 0.0
C929 C 0.95826 0.79178 0.31275 0.0
C930 C 0.95048 0.72892 0.29091 0.0
C931 C 0.95238 0.80442 0.33001 0.0
C932 C 0.95437 0.67836 0.21722 0.0
C933 C 0.96042 0.68939 0.23509 0.0
C934 C 0.97668 0.74979 0.25968 0.0
C935 C 0.96111 0.76553 0.31253 0.0
C936 C 0.96336 0.75167 0.29367 0.0
C937 C 0.96101 0.71564 0.23717 0.0
C938 C 0.96323 0.72739 0.25684 0.0
H939 H 0.95133 0.7544 0.3608 0.0
H940 H 0.96223 0.73243 0.33085 0.0
H941 H 0.98722 0.77904 0.27945 0.0
H942 H 0.94692 0.73157 0.19041 0.0
H943 H 0.95739 0.75078 0.22153 0.0
C944 C 0.44954 0.07893 0.18756 0.0
C945 C 0.42456 0.07071 0.1888 0.0
C946 C 0.46933 0.06245 0.19146 0.0
C947 C 0.48492 -0.00039 0.21209 0.0
H948 H 0.537 0.00018 0.17278 0.0
C949 C 0.54521 0.91326 0.19324 0.0
C950 C 0.57012 0.91676 0.18714 0.0
C951 C 0.52992 0.93383 0.19748 0.0
C952 C 0.52294 1e-05 0.18413 0.0
H953 H 0.40077 0.03914 0.1962 0.0
H954 H 0.43516 0.01042 0.20277 0.0
H955 H 0.50569 0.03329 0.17316 0.0
H956 H 0.59891 0.94461 0.18176 0.0
H957 H 0.57224 0.98055 0.18932 0.0
H958 H 0.50179 0.96576 0.22261 0.0
C959 C 0.43956 0.02962 0.19896 0.0
C960 C 0.50494 0.01905 0.18436 0.0
C961 C 0.41979 0.04609 0.19508 0.0
C962 C 0.57978 0.94126 0.18634 0.0
C963 C 0.56445 0.96187 0.19055 0.0
C964 C 0.50293 0.98052 0.21184 0.0
C965 C 0.46458 0.03738 0.19668 0.0
C966 C 0.48539 0.01883 0.19808 0.0
C967 C 0.53916 0.95842 0.19571 0.0
C968 C 0.52186 0.98022 0.19761 0.0
H969 H 0.45387 0.09782 0.18285 0.0
H970 H 0.48838 0.06917 0.18989 0.0
H971 H 0.47036 -0.00093 0.22305 0.0
H972 H 0.53718 0.89464 0.19403 0.0
H973 H 0.5105 0.93046 0.20122 0.0
C974 C 0.57932 0.54775 0.69633 0.0
C975 C 0.57376 0.57104 0.68783 0.0
C976 C 0.56023 0.53063 0.70042 0.0
C977 C 0.49099 0.52219 0.70365 0.0
H978 H 0.50727 0.45484 0.68658 0.0
C979 C 0.41692 0.44571 0.68567 0.0
C980 C 0.42337 0.42056 0.68917 0.0
C981 C 0.43416 0.46494 0.68938 0.0
C982 C 0.50245 0.4734 0.69179 0.0
H983 H 0.54366 0.59524 0.67798 0.0
H984 H 0.51032 0.56514 0.6848 0.0
H985 H 0.53939 0.48692 0.68623 0.0
H986 H 0.45213 0.39601 0.70077 0.0
H987 H 0.48185 0.42945 0.70764 0.0
H988 H 0.45371 0.50853 0.70869 0.0
C989 C 0.52942 0.56019 0.68852 0.0
C990 C 0.52095 0.49186 0.69159 0.0
C991 C 0.54855 0.57744 0.68455 0.0
C992 C 0.44669 0.41518 0.69769 0.0
C993 C 0.4638 0.43435 0.70151 0.0
C994 C 0.47239 0.50362 0.70384 0.0
C995 C 0.53513 0.53628 0.69595 0.0
C996 C 0.51548 0.51653 0.69742 0.0
C997 C 0.45812 0.45936 0.69675 0.0
C998 C 0.4779 0.47901 0.69782 0.0
H999 H 0.59853 0.54235 0.69924 0.0
H1000 H 0.56525 0.51262 0.70657 0.0
H1001 H 0.48619 0.54096 0.70837 0.0
H1002 H 0.3991 0.45045 0.67907 0.0
H1003 H 0.42919 0.48397 0.68546 0.0
C1004 C 0.04768 0.41156 0.18745 0.0
C1005 C 0.07236 0.42065 0.18856 0.0
C1006 C 0.02736 0.42728 0.19158 0.0
C1007 C 0.0097 0.48917 0.21288 0.0
H1008 H 0.95725 0.48732 0.17393 0.0
C1009 C 0.94588 0.57348 0.19561 0.0
C1010 C 0.9211 0.56916 0.18953 0.0
C1011 C 0.96198 0.55342 0.19948 0.0
C1012 C 0.97141 0.48783 0.18519 0.0
H1013 H 0.09509 0.45299 0.19597 0.0
H1014 H 0.05976 0.4804 0.20299 0.0
H1015 H 0.9898 0.45543 0.17373 0.0
H1016 H 0.89339 0.54036 0.18382 0.0
H1017 H 0.92147 0.50529 0.19078 0.0
H1018 H 0.99165 0.52213 0.22392 0.0
C1019 C 0.05601 0.46109 0.19908 0.0
C1020 C 0.99013 0.46949 0.18508 0.0
C1021 C 0.07632 0.44538 0.19495 0.0
C1022 C 0.9124 0.54433 0.1884 0.0
C1023 C 0.92854 0.52423 0.19226 0.0
C1024 C 0.99096 0.50755 0.21298 0.0
C1025 C 0.03126 0.45244 0.19694 0.0
C1026 C 0.00981 0.47021 0.19867 0.0
C1027 C 0.95371 0.52853 0.19737 0.0
C1028 C 0.97187 0.50739 0.19889 0.0
H1029 H 0.04398 0.39257 0.18266 0.0
H1030 H 0.00855 0.4199 0.19011 0.0
H1031 H 0.02436 0.49006 0.22374 0.0
H1032 H 0.95319 0.59238 0.19665 0.0
H1033 H 0.98128 0.55746 0.2032 0.0
C1034 C 0.94491 0.9182 0.68682 0.0
C1035 C 0.91959 0.92444 0.68977 0.0
C1036 C 0.9638 0.93583 0.69043 0.0
C1037 C 0.97156 0.0044 0.69185 0.0
H1038 H 0.03874 0.98902 0.70974 0.0
C1039 C 0.04544 0.08186 0.69673 0.0
C1040 C 0.06893 0.07625 0.68857 0.0
C1041 C 0.02827 0.06278 0.70073 0.0
C1042 C 0.02008 0.99357 0.70466 0.0
H1043 H 0.89438 0.95335 0.70024 0.0
H1044 H 0.92723 0.98378 0.70697 0.0
H1045 H 0.00656 0.95631 0.71001 0.0
H1046 H 0.09337 0.04604 0.67926 0.0
H1047 H 0.06324 0.01272 0.686 0.0
H1048 H 0.98498 0.04134 0.68605 0.0
C1049 C 0.93253 0.96557 0.70133 0.0
C1050 C 0.00165 0.97484 0.7048 0.0
C1051 C 0.91368 0.94805 0.6976 0.0
C1052 C 0.07543 0.05099 0.68556 0.0
C1053 C 0.05817 0.03186 0.68948 0.0
C1054 C 0.98989 0.02304 0.69172 0.0
C1055 C 0.95774 0.96001 0.69717 0.0
C1056 C 0.97718 0.98001 0.69829 0.0
C1057 C 0.03409 0.03762 0.69656 0.0
C1058 C 0.01443 0.01788 0.69801 0.0
H1059 H 0.95006 0.90017 0.68076 0.0
H1060 H 0.98299 0.93093 0.68697 0.0
H1061 H 0.95314 0.00895 0.68627 0.0
H1062 H 0.03993 0.10111 0.69941 0.0
H1063 H 0.01011 0.06783 0.70659 0.0
C1064 C 0.57847 0.54599 0.35726 0.0
C1065 C 0.57251 0.57131 0.35392 0.0
C1066 C 0.56076 0.52717 0.35364 0.0
C1067 C 0.49224 0.52017 0.35173 0.0
H1068 H 0.50684 0.45245 0.33462 0.0
C1069 C 0.41366 0.44768 0.347 0.0
C1070 C 0.41872 0.42416 0.35533 0.0
C1071 C 0.43312 0.46439 0.34295 0.0
C1072 C 0.5025 0.47127 0.33949 0.0
H1073 H 0.5441 0.59656 0.34271 0.0
H1074 H 0.51356 0.56381 0.33599 0.0
H1075 H 0.54002 0.48416 0.3343 0.0
H1076 H 0.44829 0.39915 0.3649 0.0
H1077 H 0.48229 0.42853 0.35814 0.0
H1078 H 0.45507 0.50741 0.35742 0.0
C1079 C 0.53159 0.55848 0.34193 0.0
C1080 C 0.52151 0.48942 0.3393 0.0
C1081 C 0.54917 0.57725 0.34567 0.0
C1082 C 0.44379 0.41713 0.35846 0.0
C1083 C 0.4633 0.43397 0.35453 0.0
C1084 C 0.47335 0.50212 0.35192 0.0
C1085 C 0.5368 0.53332 0.34652 0.0
C1086 C 0.5166 0.51409 0.34551 0.0
C1087 C 0.4581 0.4581 0.3473 0.0
C1088 C 0.4782 0.4774 0.34589 0.0
H1089 H 0.59629 0.54082 0.36365 0.0
H1090 H 0.56538 0.50801 0.35742 0.0
H1091 H 0.48789 0.53877 0.35709 0.0
H1092 H 0.39456 0.45356 0.34421 0.0
H1093 H 0.42849 0.48258 0.33694 0.0
C1094 C 0.04526 0.41892 0.84989 0.0
C1095 C 0.07003 0.42317 0.85599 0.0
C1096 C 0.02918 0.43903 0.84607 0.0
C1097 C 0.01989 0.50466 0.86051 0.0
H1098 H 0.96679 0.50247 0.8221 0.0
C1099 C 0.94336 0.58097 0.85807 0.0
C1100 C 0.91872 0.57175 0.85705 0.0
C1101 C 0.96376 0.56524 0.8541 0.0
C1102 C 0.98149 0.50335 0.83292 0.0
H1103 H 0.09777 0.45191 0.86181 0.0
H1104 H 0.06977 0.48705 0.85494 0.0
H1105 H -0.00052 0.47041 0.8218 0.0
H1106 H 0.89614 0.53915 0.85005 0.0
H1107 H 0.93156 0.5118 0.84326 0.0
H1108 H 0.00156 0.53711 0.87201 0.0
C1109 C 0.06266 0.46813 0.8534 0.0
C1110 C 0.00023 0.48497 0.83275 0.0
C1111 C 0.07877 0.44799 0.8572 0.0
C1112 C 0.91488 0.54686 0.85101 0.0
C1113 C 0.93523 0.53119 0.84699 0.0
C1114 C 0.00118 0.52303 0.86067 0.0
C1115 C 0.03748 0.4639 0.84827 0.0
C1116 C 0.01936 0.48509 0.84681 0.0
C1117 C 0.95995 0.53999 0.84894 0.0
C1118 C 0.98145 0.5223 0.84714 0.0
H1119 H 0.03791 0.40004 0.8488 0.0
H1120 H 0.00987 0.43503 0.84234 0.0
H1121 H 0.03409 0.50516 0.87174 0.0
H1122 H 0.94697 0.60006 0.86264 0.0
H1123 H 0.98255 0.57271 0.85547 0.0
C1124 C 0.91975 0.94198 0.35927 0.0
C1125 C 0.92639 0.91668 0.35669 0.0
C1126 C 0.9371 0.96105 0.35542 0.0
C1127 C 0.00548 0.96996 0.35395 0.0
H1128 H 0.98897 0.03638 0.33492 0.0
C1129 C 0.08154 0.04517 0.34814 0.0
C1130 C 0.07542 0.06875 0.35594 0.0
C1131 C 0.06282 0.02754 0.34431 0.0
C1132 C 0.99384 0.01793 0.34032 0.0
H1133 H 0.95573 0.89166 0.34667 0.0
H1134 H 0.98567 0.92483 0.33955 0.0
H1135 H 0.95687 0.0036 0.33513 0.0
H1136 H 0.04471 0.09285 0.36476 0.0
H1137 H 0.01203 0.06193 0.35833 0.0
H1138 H 0.04214 0.98421 0.35959 0.0
C1139 C 0.96736 0.92998 0.34506 0.0
C1140 C 0.97545 -0.00084 0.34045 0.0
C1141 C 0.95012 0.91095 0.34903 0.0
C1142 C 0.05004 0.07485 0.35874 0.0
C1143 C 0.03128 0.05713 0.35499 0.0
C1144 C 0.02378 0.98863 0.35381 0.0
C1145 C 0.96138 0.95521 0.34881 0.0
C1146 C 0.98103 0.97497 0.34739 0.0
C1147 C 0.03754 0.03299 0.3483 0.0
C1148 C 0.0182 0.01291 0.34711 0.0
H1149 H 0.90162 0.94701 0.36519 0.0
H1150 H 0.93189 0.98026 0.35858 0.0
H1151 H 0.01035 0.95176 0.35983 0.0
H1152 H 0.1009 0.03996 0.34563 0.0
H1153 H 0.06825 0.00933 0.33875 0.0
C1154 C 0.57677 0.94679 0.84582 0.0
C1155 C 0.57055 0.92343 0.85393 0.0
C1156 C 0.55821 0.96464 0.84213 0.0
C1157 C 0.48925 0.97538 0.83939 0.0
H1158 H 0.50765 0.04168 0.85754 0.0
C1159 C 0.41745 0.05331 0.85904 0.0
C1160 C 0.42447 0.0784 0.85595 0.0
C1161 C 0.4342 0.03378 0.85496 0.0
C1162 C 0.50225 0.02344 0.85203 0.0
H1163 H 0.53979 0.89994 0.86351 0.0
H1164 H 0.50735 0.93129 0.85738 0.0
H1165 H 0.5388 0.00861 0.85716 0.0
H1166 H 0.45381 0.10256 0.84476 0.0
H1167 H 0.48273 0.06857 0.83726 0.0
H1168 H 0.45237 0.99033 0.83477 0.0
C1169 C 0.52657 0.93572 0.85365 0.0
C1170 C 0.52018 0.0044 0.85181 0.0
C1171 C 0.54517 0.91776 0.85722 0.0
C1172 C 0.44792 0.08345 0.84751 0.0
C1173 C 0.46457 0.06395 0.84333 0.0
C1174 C 0.47122 0.99452 0.83962 0.0
C1175 C 0.53298 0.95967 0.84663 0.0
C1176 C 0.51393 0.98008 0.8456 0.0
C1177 C 0.45828 0.03895 0.84762 0.0
C1178 C 0.4775 0.01876 0.84605 0.0
H1179 H 0.59613 0.95165 0.84291 0.0
H1180 H 0.56375 0.98265 0.83628 0.0
H1181 H 0.48385 0.95691 0.83437 0.0
H1182 H 0.39952 0.04881 0.86556 0.0
H1183 H 0.42877 0.01477 0.85854 0.0
loop_
_geom_bond_atom_site_label_1
_geom_bond_atom_site_label_2
_geom_bond_distance
_geom_bond_site_symmetry_2
_ccdc_geom_bond_type
O0 Cd1 2.223 . S
O0 C8 1.315 . S
Cd1 O0 2.223 . S
Cd1 O4 2.297 . S
Cd1 O5 2.439 . S
Cd1 O11 2.240 . S
Cd2 O3 2.240 . S
Cd2 O10 2.223 . S
Cd2 O12 2.297 . S
Cd2 O13 2.439 . S
O3 Cd2 2.240 . S
O3 C8 1.279 . S
O4 Cd1 2.297 . S
O4 C6 1.247 . S
O5 Cd1 2.439 . S
O5 C6 1.208 . S
C6 O4 1.247 . S
C6 O5 1.208 . S
C7 O12 1.247 . S
C7 O13 1.208 . S
C8 O0 1.315 . S
C8 O3 1.279 . S
C9 O10 1.315 . S
C9 O11 1.279 . S
O10 Cd2 2.223 . S
O10 C9 1.315 . S
O11 Cd1 2.240 . S
O11 C9 1.279 . S
O12 Cd2 2.297 . S
O12 C7 1.247 . S
O13 Cd2 2.439 . S
O13 C7 1.208 . S
O14 Cd15 2.223 . S
O14 C22 1.315 . S
Cd15 O14 2.223 . S
Cd15 O18 2.297 . S
Cd15 O19 2.439 . S
Cd15 O25 2.240 . S
Cd16 O17 2.240 . S
Cd16 O24 2.223 . S
Cd16 O26 2.297 . S
Cd16 O27 2.439 . S
O17 Cd16 2.240 . S
O17 C22 1.279 . S
O18 Cd15 2.297 . S
O18 C20 1.247 . S
O19 Cd15 2.439 . S
O19 C20 1.208 . S
C20 O18 1.247 . S
C20 O19 1.208 . S
C21 O26 1.247 . S
C21 O27 1.208 . S
C22 O14 1.315 . S
C22 O17 1.279 . S
C23 O24 1.315 . S
C23 O25 1.279 . S
O24 Cd16 2.223 . S
O24 C23 1.315 . S
O25 Cd15 2.240 . S
O25 C23 1.279 . S
O26 Cd16 2.297 . S
O26 C21 1.247 . S
O27 Cd16 2.439 . S
O27 C21 1.208 . S
O28 Cd29 2.223 . S
O28 C36 1.315 . S
Cd29 O28 2.223 . S
Cd29 O32 2.297 . S
Cd29 O33 2.439 . S
Cd29 O39 2.240 . S
Cd30 O31 2.240 . S
Cd30 O38 2.223 . S
Cd30 O40 2.297 . S
Cd30 O41 2.439 . S
O31 Cd30 2.240 . S
O31 C36 1.279 . S
O32 Cd29 2.297 . S
O32 C34 1.247 . S
O33 Cd29 2.439 . S
O33 C34 1.208 . S
C34 O32 1.247 . S
C34 O33 1.208 . S
C35 O40 1.247 . S
C35 O41 1.208 . S
C36 O28 1.315 . S
C36 O31 1.279 . S
C37 O38 1.315 . S
C37 O39 1.279 . S
O38 Cd30 2.223 . S
O38 C37 1.315 . S
O39 Cd29 2.240 . S
O39 C37 1.279 . S
O40 Cd30 2.297 . S
O40 C35 1.247 . S
O41 Cd30 2.439 . S
O41 C35 1.208 . S
O42 Cd43 2.223 . S
O42 C50 1.315 . S
Cd43 O42 2.223 . S
Cd43 O46 2.297 . S
Cd43 O47 2.439 . S
Cd43 O53 2.240 . S
Cd44 O45 2.240 . S
Cd44 O52 2.223 . S
Cd44 O54 2.297 . S
Cd44 O55 2.439 . S
O45 Cd44 2.240 . S
O45 C50 1.279 . S
O46 Cd43 2.297 . S
O46 C48 1.247 . S
O47 Cd43 2.439 . S
O47 C48 1.208 . S
C48 O46 1.247 . S
C48 O47 1.208 . S
C49 O54 1.247 . S
C49 O55 1.208 . S
C50 O42 1.315 . S
C50 O45 1.279 . S
C51 O52 1.315 . S
C51 O53 1.279 . S
O52 Cd44 2.223 . S
O52 C51 1.315 . S
O53 Cd43 2.240 . S
O53 C51 1.279 . S
O54 Cd44 2.297 . S
O54 C49 1.247 . S
O55 Cd44 2.439 . S
O55 C49 1.208 . S
O56 Cd57 2.223 . S
O56 C64 1.315 . S
Cd57 O56 2.223 . S
Cd57 O60 2.297 . S
Cd57 O61 2.439 . S
Cd57 O67 2.240 . S
Cd58 O59 2.240 . S
Cd58 O66 2.223 . S
Cd58 O68 2.297 . S
Cd58 O69 2.439 . S
O59 Cd58 2.240 . S
O59 C64 1.279 . S
O60 Cd57 2.297 . S
O60 C62 1.247 . S
O61 Cd57 2.439 . S
O61 C62 1.208 . S
C62 O60 1.247 . S
C62 O61 1.208 . S
C63 O68 1.247 . S
C63 O69 1.208 . S
C64 O56 1.315 . S
C64 O59 1.279 . S
C65 O66 1.315 . S
C65 O67 1.279 . S
O66 Cd58 2.223 . S
O66 C65 1.315 . S
O67 Cd57 2.240 . S
O67 C65 1.279 . S
O68 Cd58 2.297 . S
O68 C63 1.247 . S
O69 Cd58 2.439 . S
O69 C63 1.208 . S
O70 Cd71 2.223 . S
O70 C78 1.315 . S
Cd71 O70 2.223 . S
Cd71 O74 2.297 . S
Cd71 O75 2.439 . S
Cd71 O81 2.240 . S
Cd72 O73 2.240 . S
Cd72 O80 2.223 . S
Cd72 O82 2.297 . S
Cd72 O83 2.439 . S
O73 Cd72 2.240 . S
O73 C78 1.279 . S
O74 Cd71 2.297 . S
O74 C76 1.247 . S
O75 Cd71 2.439 . S
O75 C76 1.208 . S
C76 O74 1.247 . S
C76 O75 1.208 . S
C77 O82 1.247 . S
C77 O83 1.208 . S
C78 O70 1.315 . S
C78 O73 1.279 . S
C79 O80 1.315 . S
C79 O81 1.279 . S
O80 Cd72 2.223 . S
O80 C79 1.315 . S
O81 Cd71 2.240 . S
O81 C79 1.279 . S
O82 Cd72 2.297 . S
O82 C77 1.247 . S
O83 Cd72 2.439 . S
O83 C77 1.208 . S
O84 Cd85 2.223 . S
O84 C92 1.315 . S
Cd85 O84 2.223 . S
Cd85 O88 2.297 . S
Cd85 O89 2.439 . S
Cd85 O95 2.240 . S
Cd86 O87 2.240 . S
Cd86 O94 2.223 . S
Cd86 O96 2.297 . S
Cd86 O97 2.439 . S
O87 Cd86 2.240 . S
O87 C92 1.279 . S
O88 Cd85 2.297 . S
O88 C90 1.247 . S
O89 Cd85 2.439 . S
O89 C90 1.208 . S
C90 O88 1.247 . S
C90 O89 1.208 . S
C91 O96 1.247 . S
C91 O97 1.208 . S
C92 O84 1.315 . S
C92 O87 1.279 . S
C93 O94 1.315 . S
C93 O95 1.279 . S
O94 Cd86 2.223 . S
O94 C93 1.315 . S
O95 Cd85 2.240 . S
O95 C93 1.279 . S
O96 Cd86 2.297 . S
O96 C91 1.247 . S
O97 Cd86 2.439 . S
O97 C91 1.208 . S
O98 Cd99 2.223 . S
O98 C106 1.315 . S
Cd99 O98 2.223 . S
Cd99 O102 2.297 . S
Cd99 O103 2.439 . S
Cd99 O109 2.240 . S
Cd100 O101 2.240 . S
Cd100 O108 2.223 . S
Cd100 O110 2.297 . S
Cd100 O111 2.439 . S
O101 Cd100 2.240 . S
O101 C106 1.279 . S
O102 Cd99 2.297 . S
O102 C104 1.247 . S
O103 Cd99 2.439 . S
O103 C104 1.208 . S
C104 O102 1.247 . S
C104 O103 1.208 . S
C105 O110 1.247 . S
C105 O111 1.208 . S
C106 O98 1.315 . S
C106 O101 1.279 . S
C107 O108 1.315 . S
C107 O109 1.279 . S
O108 Cd100 2.223 . S
O108 C107 1.315 . S
O109 Cd99 2.240 . S
O109 C107 1.279 . S
O110 Cd100 2.297 . S
O110 C105 1.247 . S
O111 Cd100 2.439 . S
O111 C105 1.208 . S
O112 Cd113 2.223 . S
O112 C120 1.315 . S
Cd113 O112 2.223 . S
Cd113 O116 2.297 . S
Cd113 O117 2.439 . S
Cd113 O123 2.240 . S
Cd114 O115 2.240 . S
Cd114 O122 2.223 . S
Cd114 O124 2.297 . S
Cd114 O125 2.439 . S
O115 Cd114 2.240 . S
O115 C120 1.279 . S
O116 Cd113 2.297 . S
O116 C118 1.247 . S
O117 Cd113 2.439 . S
O117 C118 1.208 . S
C118 O116 1.247 . S
C118 O117 1.208 . S
C119 O124 1.247 . S
C119 O125 1.208 . S
C120 O112 1.315 . S
C120 O115 1.279 . S
C121 O122 1.315 . S
C121 O123 1.279 . S
O122 Cd114 2.223 . S
O122 C121 1.315 . S
O123 Cd113 2.240 . S
O123 C121 1.279 . S
O124 Cd114 2.297 . S
O124 C119 1.247 . S
O125 Cd114 2.439 . S
O125 C119 1.208 . S
O126 Cd127 2.223 . S
O126 C134 1.315 . S
Cd127 O126 2.223 . S
Cd127 O130 2.297 . S
Cd127 O131 2.439 . S
Cd127 O137 2.240 . S
Cd128 O129 2.240 . S
Cd128 O136 2.223 . S
Cd128 O138 2.297 . S
Cd128 O139 2.439 . S
O129 Cd128 2.240 . S
O129 C134 1.279 . S
O130 Cd127 2.297 . S
O130 C132 1.247 . S
O131 Cd127 2.439 . S
O131 C132 1.208 . S
C132 O130 1.247 . S
C132 O131 1.208 . S
C133 O138 1.247 . S
C133 O139 1.208 . S
C134 O126 1.315 . S
C134 O129 1.279 . S
C135 O136 1.315 . S
C135 O137 1.279 . S
O136 Cd128 2.223 . S
O136 C135 1.315 . S
O137 Cd127 2.240 . S
O137 C135 1.279 . S
O138 Cd128 2.297 . S
O138 C133 1.247 . S
O139 Cd128 2.439 . S
O139 C133 1.208 . S
O140 Cd141 2.223 . S
O140 C148 1.315 . S
Cd141 O140 2.223 . S
Cd141 O144 2.297 . S
Cd141 O145 2.439 . S
Cd141 O151 2.240 . S
Cd142 O143 2.240 . S
Cd142 O150 2.223 . S
Cd142 O152 2.297 . S
Cd142 O153 2.439 . S
O143 Cd142 2.240 . S
O143 C148 1.279 . S
O144 Cd141 2.297 . S
O144 C146 1.247 . S
O145 Cd141 2.439 . S
O145 C146 1.208 . S
C146 O144 1.247 . S
C146 O145 1.208 . S
C147 O152 1.247 . S
C147 O153 1.208 . S
C148 O140 1.315 . S
C148 O143 1.279 . S
C149 O150 1.315 . S
C149 O151 1.279 . S
O150 Cd142 2.223 . S
O150 C149 1.315 . S
O151 Cd141 2.240 . S
O151 C149 1.279 . S
O152 Cd142 2.297 . S
O152 C147 1.247 . S
O153 Cd142 2.439 . S
O153 C147 1.208 . S
O154 Cd155 2.223 . S
O154 C162 1.315 . S
Cd155 O154 2.223 . S
Cd155 O158 2.297 . S
Cd155 O159 2.439 . S
Cd155 O165 2.240 . S
Cd156 O157 2.240 . S
Cd156 O164 2.223 . S
Cd156 O166 2.297 . S
Cd156 O167 2.439 . S
O157 Cd156 2.240 . S
O157 C162 1.279 . S
O158 Cd155 2.297 . S
O158 C160 1.247 . S
O159 Cd155 2.439 . S
O159 C160 1.208 . S
C160 O158 1.247 . S
C160 O159 1.208 . S
C161 O166 1.247 . S
C161 O167 1.208 . S
C162 O154 1.315 . S
C162 O157 1.279 . S
C163 O164 1.315 . S
C163 O165 1.279 . S
O164 Cd156 2.223 . S
O164 C163 1.315 . S
O165 Cd155 2.240 . S
O165 C163 1.279 . S
O166 Cd156 2.297 . S
O166 C161 1.247 . S
O167 Cd156 2.439 . S
O167 C161 1.208 . S
O168 Cd169 2.223 . S
O168 C176 1.315 . S
Cd169 O168 2.223 . S
Cd169 O172 2.297 . S
Cd169 O173 2.439 . S
Cd169 O179 2.240 . S
Cd170 O171 2.240 . S
Cd170 O178 2.223 . S
Cd170 O180 2.297 . S
Cd170 O181 2.439 . S
O171 Cd170 2.240 . S
O171 C176 1.279 . S
O172 Cd169 2.297 . S
O172 C174 1.247 . S
O173 Cd169 2.439 . S
O173 C174 1.208 . S
C174 O172 1.247 . S
C174 O173 1.208 . S
C175 O180 1.247 . S
C175 O181 1.208 . S
C176 O168 1.315 . S
C176 O171 1.279 . S
C177 O178 1.315 . S
C177 O179 1.279 . S
O178 Cd170 2.223 . S
O178 C177 1.315 . S
O179 Cd169 2.240 . S
O179 C177 1.279 . S
O180 Cd170 2.297 . S
O180 C175 1.247 . S
O181 Cd170 2.439 . S
O181 C175 1.208 . S
O182 Cd183 2.223 . S
O182 C190 1.315 . S
Cd183 O182 2.223 . S
Cd183 O186 2.297 . S
Cd183 O187 2.439 . S
Cd183 O193 2.240 . S
Cd184 O185 2.240 . S
Cd184 O192 2.223 . S
Cd184 O194 2.297 . S
Cd184 O195 2.439 . S
O185 Cd184 2.240 . S
O185 C190 1.279 . S
O186 Cd183 2.297 . S
O186 C188 1.247 . S
O187 Cd183 2.439 . S
O187 C188 1.208 . S
C188 O186 1.247 . S
C188 O187 1.208 . S
C189 O194 1.247 . S
C189 O195 1.208 . S
C190 O182 1.315 . S
C190 O185 1.279 . S
C191 O192 1.315 . S
C191 O193 1.279 . S
O192 Cd184 2.223 . S
O192 C191 1.315 . S
O193 Cd183 2.240 . S
O193 C191 1.279 . S
O194 Cd184 2.297 . S
O194 C189 1.247 . S
O195 Cd184 2.439 . S
O195 C189 1.208 . S
O196 Cd197 2.223 . S
O196 C204 1.315 . S
Cd197 O196 2.223 . S
Cd197 O200 2.297 . S
Cd197 O201 2.439 . S
Cd197 O207 2.240 . S
Cd198 O199 2.240 . S
Cd198 O206 2.223 . S
Cd198 O208 2.297 . S
Cd198 O209 2.439 . S
O199 Cd198 2.240 . S
O199 C204 1.279 . S
O200 Cd197 2.297 . S
O200 C202 1.247 . S
O201 Cd197 2.439 . S
O201 C202 1.208 . S
C202 O200 1.247 . S
C202 O201 1.208 . S
C203 O208 1.247 . S
C203 O209 1.208 . S
C204 O196 1.315 . S
C204 O199 1.279 . S
C205 O206 1.315 . S
C205 O207 1.279 . S
O206 Cd198 2.223 . S
O206 C205 1.315 . S
O207 Cd197 2.240 . S
O207 C205 1.279 . S
O208 Cd198 2.297 . S
O208 C203 1.247 . S
O209 Cd198 2.439 . S
O209 C203 1.208 . S
O210 Cd211 2.223 . S
O210 C218 1.315 . S
Cd211 O210 2.223 . S
Cd211 O214 2.297 . S
Cd211 O215 2.439 . S
Cd211 O221 2.240 . S
Cd212 O213 2.240 . S
Cd212 O220 2.223 . S
Cd212 O222 2.297 . S
Cd212 O223 2.439 . S
O213 Cd212 2.240 . S
O213 C218 1.279 . S
O214 Cd211 2.297 . S
O214 C216 1.247 . S
O215 Cd211 2.439 . S
O215 C216 1.208 . S
C216 O214 1.247 . S
C216 O215 1.208 . S
C217 O222 1.247 . S
C217 O223 1.208 . S
C218 O210 1.315 . S
C218 O213 1.279 . S
C219 O220 1.315 . S
C219 O221 1.279 . S
O220 Cd212 2.223 . S
O220 C219 1.315 . S
O221 Cd211 2.240 . S
O221 C219 1.279 . S
O222 Cd212 2.297 . S
O222 C217 1.247 . S
O223 Cd212 2.439 . S
O223 C217 1.208 . S
C224 C225 1.349 . S
C224 C226 1.327 . S
C224 H249 0.950 . S
C225 C224 1.349 . S
C225 C241 1.349 . S
C226 C224 1.327 . S
C226 C245 1.429 . S
C226 H250 0.950 . S
C227 C244 1.573 . S
C227 C246 1.368 . S
C227 H251 0.949 . S
H228 C232 0.949 . S
C229 C230 1.349 . S
C229 C231 1.327 . S
C229 H252 0.950 . S
C230 C229 1.349 . S
C230 C242 1.349 . S
C231 C229 1.327 . S
C231 C247 1.429 . S
C231 H253 0.950 . S
C232 H228 0.949 . S
C232 C240 1.573 . S
C232 C248 1.368 . S
H233 C241 0.950 . S
H234 C239 0.950 . S
H235 C240 0.949 1_556 S
H236 C242 0.950 . S
H237 C243 0.950 . S
H238 C244 0.949 1_554 S
C239 H234 0.950 . S
C239 C241 1.327 . S
C239 C245 1.429 . S
C240 C232 1.573 . S
C240 H235 0.949 1_554 S
C240 C246 1.369 1_554 S
C241 C225 1.349 . S
C241 H233 0.950 . S
C241 C239 1.327 . S
C242 C230 1.349 . S
C242 H236 0.950 . S
C242 C243 1.327 . S
C243 H237 0.950 . S
C243 C242 1.327 . S
C243 C247 1.429 . S
C244 C227 1.573 . S
C244 H238 0.949 1_556 S
C244 C248 1.369 1_556 S
C245 C226 1.429 . S
C245 C239 1.429 . S
C245 C246 1.523 . S
C246 C227 1.368 . S
C246 C240 1.369 1_556 S
C246 C245 1.523 . S
C247 C231 1.429 . S
C247 C243 1.429 . S
C247 C248 1.523 . S
C248 C232 1.368 . S
C248 C244 1.369 1_554 S
C248 C247 1.523 . S
H249 C224 0.950 . S
H250 C226 0.950 . S
H251 C227 0.949 . S
H252 C229 0.950 . S
H253 C231 0.950 . S
C254 C255 1.349 . S
C254 C256 1.327 . S
C254 H279 0.950 . S
C255 C254 1.349 . S
C255 C271 1.349 . S
C256 C254 1.327 . S
C256 C275 1.429 . S
C256 H280 0.950 . S
C257 C274 1.574 . S
C257 C276 1.368 . S
C257 H281 0.949 . S
H258 C262 0.949 . S
C259 C260 1.349 . S
C259 C261 1.327 . S
C259 H282 0.950 . S
C260 C259 1.349 . S
C260 C272 1.349 . S
C261 C259 1.327 . S
C261 C277 1.429 . S
C261 H283 0.950 . S
C262 H258 0.949 . S
C262 C270 1.574 . S
C262 C278 1.368 . S
H263 C271 0.950 . S
H264 C269 0.950 . S
H265 C270 0.949 . S
H266 C272 0.950 . S
H267 C273 0.950 . S
H268 C274 0.949 . S
C269 H264 0.950 . S
C269 C271 1.327 . S
C269 C275 1.429 . S
C270 C262 1.574 . S
C270 H265 0.949 . S
C270 C276 1.368 . S
C271 C255 1.349 . S
C271 H263 0.950 . S
C271 C269 1.327 . S
C272 C260 1.349 . S
C272 H266 0.950 . S
C272 C273 1.327 . S
C273 H267 0.950 . S
C273 C272 1.327 . S
C273 C277 1.429 . S
C274 C257 1.574 . S
C274 H268 0.949 . S
C274 C278 1.368 . S
C275 C256 1.429 . S
C275 C269 1.429 . S
C275 C276 1.523 . S
C276 C257 1.368 . S
C276 C270 1.368 . S
C276 C275 1.523 . S
C277 C261 1.429 . S
C277 C273 1.429 . S
C277 C278 1.523 . S
C278 C262 1.368 . S
C278 C274 1.368 . S
C278 C277 1.523 . S
H279 C254 0.950 . S
H280 C256 0.950 . S
H281 C257 0.949 . S
H282 C259 0.950 . S
H283 C261 0.950 . S
C284 C285 1.349 . S
C284 C286 1.327 . S
C284 H309 0.950 . S
C285 C284 1.349 . S
C285 C301 1.349 . S
C286 C284 1.327 . S
C286 C305 1.429 . S
C286 H310 0.950 . S
C287 C304 1.574 1_556 S
C287 C306 1.368 . S
C287 H311 0.949 . S
H288 C292 0.949 . S
C289 C290 1.349 . S
C289 C291 1.327 . S
C289 H312 0.950 . S
C290 C289 1.349 . S
C290 C302 1.349 . S
C291 C289 1.327 . S
C291 C307 1.429 . S
C291 H313 0.950 . S
C292 H288 0.949 . S
C292 C300 1.574 1_554 S
C292 C308 1.368 . S
H293 C301 0.950 . S
H294 C299 0.950 . S
H295 C300 0.949 . S
H296 C302 0.950 . S
H297 C303 0.950 . S
H298 C304 0.949 . S
C299 H294 0.950 . S
C299 C301 1.327 . S
C299 C305 1.429 . S
C300 C292 1.574 1_556 S
C300 H295 0.949 . S
C300 C306 1.368 . S
C301 C285 1.349 . S
C301 H293 0.950 . S
C301 C299 1.327 . S
C302 C290 1.349 . S
C302 H296 0.950 . S
C302 C303 1.327 . S
C303 H297 0.950 . S
C303 C302 1.327 . S
C303 C307 1.429 . S
C304 C287 1.574 1_554 S
C304 H298 0.949 . S
C304 C308 1.368 . S
C305 C286 1.429 . S
C305 C299 1.429 . S
C305 C306 1.523 . S
C306 C287 1.368 . S
C306 C300 1.368 . S
C306 C305 1.523 . S
C307 C291 1.429 . S
C307 C303 1.429 . S
C307 C308 1.523 . S
C308 C292 1.368 . S
C308 C304 1.368 . S
C308 C307 1.523 . S
H309 C284 0.950 . S
H310 C286 0.950 . S
H311 C287 0.949 . S
H312 C289 0.950 . S
H313 C291 0.950 . S
C314 C315 1.349 . S
C314 C316 1.327 . S
C314 H339 0.950 . S
C315 C314 1.349 . S
C315 C331 1.349 . S
C316 C314 1.327 . S
C316 C335 1.429 . S
C316 H340 0.950 . S
C317 C334 1.574 . S
C317 C336 1.368 . S
C317 H341 0.949 . S
H318 C322 0.949 . S
C319 C320 1.349 . S
C319 C321 1.327 . S
C319 H342 0.950 . S
C320 C319 1.349 . S
C320 C332 1.349 . S
C321 C319 1.327 . S
C321 C337 1.429 . S
C321 H343 0.950 . S
C322 H318 0.949 . S
C322 C330 1.574 . S
C322 C338 1.368 . S
H323 C331 0.950 . S
H324 C329 0.950 . S
H325 C330 0.949 . S
H326 C332 0.950 . S
H327 C333 0.950 . S
H328 C334 0.949 . S
C329 H324 0.950 . S
C329 C331 1.327 . S
C329 C335 1.429 . S
C330 C322 1.574 . S
C330 H325 0.949 . S
C330 C336 1.368 . S
C331 C315 1.349 . S
C331 H323 0.950 . S
C331 C329 1.327 . S
C332 C320 1.349 . S
C332 H326 0.950 . S
C332 C333 1.327 . S
C333 H327 0.950 . S
C333 C332 1.327 . S
C333 C337 1.429 . S
C334 C317 1.574 . S
C334 H328 0.949 . S
C334 C338 1.368 . S
C335 C316 1.429 . S
C335 C329 1.429 . S
C335 C336 1.523 . S
C336 C317 1.368 . S
C336 C330 1.368 . S
C336 C335 1.523 . S
C337 C321 1.429 . S
C337 C333 1.429 . S
C337 C338 1.523 . S
C338 C322 1.368 . S
C338 C334 1.368 . S
C338 C337 1.523 . S
H339 C314 0.950 . S
H340 C316 0.950 . S
H341 C317 0.949 . S
H342 C319 0.950 . S
H343 C321 0.950 . S
C344 C345 1.349 . S
C344 C346 1.327 . S
C344 H369 0.950 . S
C345 C344 1.349 . S
C345 C361 1.349 . S
C346 C344 1.327 . S
C346 C365 1.429 . S
C346 H370 0.950 . S
C347 C364 1.574 . S
C347 C366 1.368 1_556 S
C347 H371 0.949 . S
H348 C352 0.949 . S
C349 C350 1.349 . S
C349 C351 1.327 . S
C349 H372 0.950 . S
C350 C349 1.349 . S
C350 C362 1.349 . S
C351 C349 1.327 . S
C351 C367 1.429 . S
C351 H373 0.950 . S
C352 H348 0.949 . S
C352 C360 1.574 . S
C352 C368 1.368 1_554 S
H353 C361 0.950 . S
H354 C359 0.950 . S
H355 C360 0.949 . S
H356 C362 0.950 . S
H357 C363 0.950 . S
H358 C364 0.949 . S
C359 H354 0.950 . S
C359 C361 1.327 . S
C359 C365 1.429 . S
C360 C352 1.574 . S
C360 H355 0.949 . S
C360 C366 1.368 . S
C361 C345 1.349 . S
C361 H353 0.950 . S
C361 C359 1.327 . S
C362 C350 1.349 . S
C362 H356 0.950 . S
C362 C363 1.327 . S
C363 H357 0.950 . S
C363 C362 1.327 . S
C363 C367 1.429 . S
C364 C347 1.574 . S
C364 H358 0.949 . S
C364 C368 1.368 . S
C365 C346 1.429 . S
C365 C359 1.429 . S
C365 C366 1.523 . S
C366 C347 1.368 1_554 S
C366 C360 1.368 . S
C366 C365 1.523 . S
C367 C351 1.429 . S
C367 C363 1.429 . S
C367 C368 1.523 . S
C368 C352 1.368 1_556 S
C368 C364 1.368 . S
C368 C367 1.523 . S
H369 C344 0.950 . S
H370 C346 0.950 . S
H371 C347 0.949 . S
H372 C349 0.950 . S
H373 C351 0.950 . S
C374 C375 1.349 . S
C374 C376 1.327 . S
C374 H399 0.950 . S
C375 C374 1.349 . S
C375 C391 1.349 . S
C376 C374 1.327 . S
C376 C395 1.429 . S
C376 H400 0.950 . S
C377 C394 1.574 . S
C377 C396 1.368 . S
C377 H401 0.949 . S
H378 C382 0.949 . S
C379 C380 1.349 . S
C379 C381 1.327 . S
C379 H402 0.950 . S
C380 C379 1.349 . S
C380 C392 1.349 . S
C381 C379 1.327 . S
C381 C397 1.429 . S
C381 H403 0.950 . S
C382 H378 0.949 . S
C382 C390 1.574 . S
C382 C398 1.368 . S
H383 C391 0.950 . S
H384 C389 0.950 . S
H385 C390 0.949 . S
H386 C392 0.950 . S
H387 C393 0.950 . S
H388 C394 0.949 . S
C389 H384 0.950 . S
C389 C391 1.327 . S
C389 C395 1.429 . S
C390 C382 1.574 . S
C390 H385 0.949 . S
C390 C396 1.368 . S
C391 C375 1.349 . S
C391 H383 0.950 . S
C391 C389 1.327 . S
C392 C380 1.349 . S
C392 H386 0.950 . S
C392 C393 1.327 . S
C393 H387 0.950 . S
C393 C392 1.327 . S
C393 C397 1.429 . S
C394 C377 1.574 . S
C394 H388 0.949 . S
C394 C398 1.368 . S
C395 C376 1.429 . S
C395 C389 1.429 . S
C395 C396 1.523 . S
C396 C377 1.368 . S
C396 C390 1.368 . S
C396 C395 1.523 . S
C397 C381 1.429 . S
C397 C393 1.429 . S
C397 C398 1.523 . S
C398 C382 1.368 . S
C398 C394 1.368 . S
C398 C397 1.523 . S
H399 C374 0.950 . S
H400 C376 0.950 . S
H401 C377 0.949 . S
H402 C379 0.950 . S
H403 C381 0.950 . S
C404 C405 1.349 . S
C404 C406 1.327 . S
C404 H429 0.950 . S
C405 C404 1.349 . S
C405 C421 1.349 . S
C406 C404 1.327 . S
C406 C425 1.429 . S
C406 H430 0.950 . S
C407 C424 1.574 1_556 S
C407 C426 1.368 . S
C407 H431 0.949 . S
H408 C412 0.949 . S
C409 C410 1.349 . S
C409 C411 1.327 . S
C409 H432 0.950 . S
C410 C409 1.349 . S
C410 C422 1.349 . S
C411 C409 1.327 . S
C411 C427 1.429 . S
C411 H433 0.950 . S
C412 H408 0.949 . S
C412 C420 1.574 1_554 S
C412 C428 1.368 . S
H413 C421 0.950 . S
H414 C419 0.950 . S
H415 C420 0.949 . S
H416 C422 0.950 . S
H417 C423 0.950 . S
H418 C424 0.949 . S
C419 H414 0.950 . S
C419 C421 1.327 . S
C419 C425 1.429 . S
C420 C412 1.574 1_556 S
C420 H415 0.949 . S
C420 C426 1.368 . S
C421 C405 1.349 . S
C421 H413 0.950 . S
C421 C419 1.327 . S
C422 C410 1.349 . S
C422 H416 0.950 . S
C422 C423 1.327 . S
C423 H417 0.950 . S
C423 C422 1.327 . S
C423 C427 1.429 . S
C424 C407 1.574 1_554 S
C424 H418 0.949 . S
C424 C428 1.368 . S
C425 C406 1.429 . S
C425 C419 1.429 . S
C425 C426 1.523 . S
C426 C407 1.368 . S
C426 C420 1.368 . S
C426 C425 1.523 . S
C427 C411 1.429 . S
C427 C423 1.429 . S
C427 C428 1.523 . S
C428 C412 1.368 . S
C428 C424 1.368 . S
C428 C427 1.523 . S
H429 C404 0.950 . S
H430 C406 0.950 . S
H431 C407 0.949 . S
H432 C409 0.950 . S
H433 C411 0.950 . S
C434 C435 1.349 . S
C434 C436 1.327 . S
C434 H459 0.950 . S
C435 C434 1.349 . S
C435 C451 1.349 . S
C436 C434 1.327 . S
C436 C455 1.429 . S
C436 H460 0.950 . S
C437 C454 1.574 . S
C437 C456 1.368 . S
C437 H461 0.949 . S
H438 C442 0.949 . S
C439 C440 1.349 . S
C439 C441 1.327 . S
C439 H462 0.950 . S
C440 C439 1.349 . S
C440 C452 1.349 . S
C441 C439 1.327 . S
C441 C457 1.429 . S
C441 H463 0.950 . S
C442 H438 0.949 . S
C442 C450 1.574 . S
C442 C458 1.368 . S
H443 C451 0.950 . S
H444 C449 0.950 . S
H445 C450 0.949 . S
H446 C452 0.950 . S
H447 C453 0.950 . S
H448 C454 0.949 . S
C449 H444 0.950 . S
C449 C451 1.327 . S
C449 C455 1.429 . S
C450 C442 1.574 . S
C450 H445 0.949 . S
C450 C456 1.368 . S
C451 C435 1.349 . S
C451 H443 0.950 . S
C451 C449 1.327 . S
C452 C440 1.349 . S
C452 H446 0.950 . S
C452 C453 1.327 . S
C453 H447 0.950 . S
C453 C452 1.327 . S
C453 C457 1.429 . S
C454 C437 1.574 . S
C454 H448 0.949 . S
C454 C458 1.368 . S
C455 C436 1.429 . S
C455 C449 1.429 . S
C455 C456 1.523 . S
C456 C437 1.368 . S
C456 C450 1.368 . S
C456 C455 1.523 . S
C457 C441 1.429 . S
C457 C453 1.429 . S
C457 C458 1.523 . S
C458 C442 1.368 . S
C458 C454 1.368 . S
C458 C457 1.523 . S
H459 C434 0.950 . S
H460 C436 0.950 . S
H461 C437 0.949 . S
H462 C439 0.950 . S
H463 C441 0.950 . S
C464 C465 1.349 . S
C464 C466 1.327 . S
C464 H489 0.950 . S
C465 C464 1.349 . S
C465 C481 1.349 . S
C466 C464 1.327 . S
C466 C485 1.429 . S
C466 H490 0.950 . S
C467 C484 1.574 . S
C467 C486 1.368 . S
C467 H491 0.949 . S
H468 C472 0.949 . S
C469 C470 1.349 . S
C469 C471 1.327 . S
C469 H492 0.950 . S
C470 C469 1.349 . S
C470 C482 1.349 . S
C471 C469 1.327 . S
C471 C487 1.429 . S
C471 H493 0.950 . S
C472 H468 0.949 . S
C472 C480 1.574 . S
C472 C488 1.368 . S
H473 C481 0.950 . S
H474 C479 0.950 . S
H475 C480 0.949 . S
H476 C482 0.950 . S
H477 C483 0.950 . S
H478 C484 0.949 . S
C479 H474 0.950 . S
C479 C481 1.327 . S
C479 C485 1.429 . S
C480 C472 1.574 . S
C480 H475 0.949 . S
C480 C486 1.368 . S
C481 C465 1.349 . S
C481 H473 0.950 . S
C481 C479 1.327 . S
C482 C470 1.349 . S
C482 H476 0.950 . S
C482 C483 1.327 . S
C483 H477 0.950 . S
C483 C482 1.327 . S
C483 C487 1.429 . S
C484 C467 1.574 . S
C484 H478 0.949 . S
C484 C488 1.368 . S
C485 C466 1.429 . S
C485 C479 1.429 . S
C485 C486 1.523 . S
C486 C467 1.368 . S
C486 C480 1.368 . S
C486 C485 1.523 . S
C487 C471 1.429 . S
C487 C483 1.429 . S
C487 C488 1.523 . S
C488 C472 1.368 . S
C488 C484 1.368 . S
C488 C487 1.523 . S
H489 C464 0.950 . S
H490 C466 0.950 . S
H491 C467 0.949 . S
H492 C469 0.950 . S
H493 C471 0.950 . S
C494 C495 1.349 . S
C494 C496 1.327 . S
C494 H519 0.950 . S
C495 C494 1.349 . S
C495 C511 1.349 . S
C496 C494 1.327 . S
C496 C515 1.429 . S
C496 H520 0.950 . S
C497 C514 1.574 . S
C497 C516 1.368 . S
C497 H521 0.949 . S
H498 C502 0.949 . S
C499 C500 1.349 . S
C499 C501 1.327 . S
C499 H522 0.950 . S
C500 C499 1.349 . S
C500 C512 1.349 . S
C501 C499 1.327 . S
C501 C517 1.429 . S
C501 H523 0.950 . S
C502 H498 0.949 . S
C502 C510 1.574 . S
C502 C518 1.368 . S
H503 C511 0.950 . S
H504 C509 0.950 . S
H505 C510 0.949 . S
H506 C512 0.950 . S
H507 C513 0.950 . S
H508 C514 0.949 . S
C509 H504 0.950 . S
C509 C511 1.327 . S
C509 C515 1.429 . S
C510 C502 1.574 . S
C510 H505 0.949 . S
C510 C516 1.368 . S
C511 C495 1.349 . S
C511 H503 0.950 . S
C511 C509 1.327 . S
C512 C500 1.349 . S
C512 H506 0.950 . S
C512 C513 1.327 . S
C513 H507 0.950 . S
C513 C512 1.327 . S
C513 C517 1.429 . S
C514 C497 1.574 . S
C514 H508 0.949 . S
C514 C518 1.368 . S
C515 C496 1.429 . S
C515 C509 1.429 . S
C515 C516 1.523 . S
C516 C497 1.368 . S
C516 C510 1.368 . S
C516 C515 1.523 . S
C517 C501 1.429 . S
C517 C513 1.429 . S
C517 C518 1.523 . S
C518 C502 1.368 . S
C518 C514 1.368 . S
C518 C517 1.523 . S
H519 C494 0.950 . S
H520 C496 0.950 . S
H521 C497 0.949 . S
H522 C499 0.950 . S
H523 C501 0.950 . S
C524 C525 1.349 . S
C524 C526 1.327 . S
C524 H549 0.950 . S
C525 C524 1.349 . S
C525 C541 1.349 . S
C526 C524 1.327 . S
C526 C545 1.429 . S
C526 H550 0.950 . S
C527 C544 1.574 . S
C527 C546 1.368 . S
C527 H551 0.949 . S
H528 C532 0.949 . S
C529 C530 1.349 . S
C529 C531 1.327 . S
C529 H552 0.950 . S
C530 C529 1.349 . S
C530 C542 1.349 . S
C531 C529 1.327 . S
C531 C547 1.429 . S
C531 H553 0.950 . S
C532 H528 0.949 . S
C532 C540 1.574 . S
C532 C548 1.368 . S
H533 C541 0.950 . S
H534 C539 0.950 . S
H535 C540 0.949 . S
H536 C542 0.950 . S
H537 C543 0.950 . S
H538 C544 0.949 . S
C539 H534 0.950 . S
C539 C541 1.327 . S
C539 C545 1.429 . S
C540 C532 1.574 . S
C540 H535 0.949 . S
C540 C546 1.368 . S
C541 C525 1.349 . S
C541 H533 0.950 . S
C541 C539 1.327 . S
C542 C530 1.349 . S
C542 H536 0.950 . S
C542 C543 1.327 . S
C543 H537 0.950 . S
C543 C542 1.327 . S
C543 C547 1.429 . S
C544 C527 1.574 . S
C544 H538 0.949 . S
C544 C548 1.368 . S
C545 C526 1.429 . S
C545 C539 1.429 . S
C545 C546 1.523 . S
C546 C527 1.368 . S
C546 C540 1.368 . S
C546 C545 1.523 . S
C547 C531 1.429 . S
C547 C543 1.429 . S
C547 C548 1.523 . S
C548 C532 1.368 . S
C548 C544 1.368 . S
C548 C547 1.523 . S
H549 C524 0.950 . S
H550 C526 0.950 . S
H551 C527 0.949 . S
H552 C529 0.950 . S
H553 C531 0.950 . S
C554 C555 1.349 . S
C554 C556 1.327 . S
C554 H579 0.950 . S
C555 C554 1.349 . S
C555 C571 1.349 . S
C556 C554 1.327 . S
C556 C575 1.429 . S
C556 H580 0.950 . S
C557 C574 1.574 . S
C557 C576 1.368 . S
C557 H581 0.949 . S
H558 C562 0.949 . S
C559 C560 1.349 . S
C559 C561 1.327 . S
C559 H582 0.950 . S
C560 C559 1.349 . S
C560 C572 1.349 . S
C561 C559 1.327 . S
C561 C577 1.429 . S
C561 H583 0.950 . S
C562 H558 0.949 . S
C562 C570 1.574 . S
C562 C578 1.368 . S
H563 C571 0.950 . S
H564 C569 0.950 . S
H565 C570 0.949 . S
H566 C572 0.950 . S
H567 C573 0.950 . S
H568 C574 0.949 . S
C569 H564 0.950 . S
C569 C571 1.327 . S
C569 C575 1.429 . S
C570 C562 1.574 . S
C570 H565 0.949 . S
C570 C576 1.368 . S
C571 C555 1.349 . S
C571 H563 0.950 . S
C571 C569 1.327 . S
C572 C560 1.349 . S
C572 H566 0.950 . S
C572 C573 1.327 . S
C573 H567 0.950 . S
C573 C572 1.327 . S
C573 C577 1.429 . S
C574 C557 1.574 . S
C574 H568 0.949 . S
C574 C578 1.368 . S
C575 C556 1.429 . S
C575 C569 1.429 . S
C575 C576 1.523 . S
C576 C557 1.368 . S
C576 C570 1.368 . S
C576 C575 1.523 . S
C577 C561 1.429 . S
C577 C573 1.429 . S
C577 C578 1.523 . S
C578 C562 1.368 . S
C578 C574 1.368 . S
C578 C577 1.523 . S
H579 C554 0.950 . S
H580 C556 0.950 . S
H581 C557 0.949 . S
H582 C559 0.950 . S
H583 C561 0.950 . S
C584 C585 1.349 . S
C584 C586 1.327 . S
C584 H609 0.950 . S
C585 C584 1.349 . S
C585 C601 1.349 . S
C586 C584 1.327 . S
C586 C605 1.429 . S
C586 H610 0.950 . S
C587 C604 1.574 . S
C587 C606 1.368 . S
C587 H611 0.949 . S
H588 C592 0.949 . S
C589 C590 1.349 . S
C589 C591 1.327 . S
C589 H612 0.950 . S
C590 C589 1.349 . S
C590 C602 1.349 . S
C591 C589 1.327 . S
C591 C607 1.429 . S
C591 H613 0.950 . S
C592 H588 0.949 . S
C592 C600 1.574 . S
C592 C608 1.368 . S
H593 C601 0.950 . S
H594 C599 0.950 . S
H595 C600 0.949 . S
H596 C602 0.950 . S
H597 C603 0.950 . S
H598 C604 0.949 . S
C599 H594 0.950 . S
C599 C601 1.327 . S
C599 C605 1.429 . S
C600 C592 1.574 . S
C600 H595 0.949 . S
C600 C606 1.368 . S
C601 C585 1.349 . S
C601 H593 0.950 . S
C601 C599 1.327 . S
C602 C590 1.349 . S
C602 H596 0.950 . S
C602 C603 1.327 . S
C603 H597 0.950 . S
C603 C602 1.327 . S
C603 C607 1.429 . S
C604 C587 1.574 . S
C604 H598 0.949 . S
C604 C608 1.368 . S
C605 C586 1.429 . S
C605 C599 1.429 . S
C605 C606 1.523 . S
C606 C587 1.368 . S
C606 C600 1.368 . S
C606 C605 1.523 . S
C607 C591 1.429 . S
C607 C603 1.429 . S
C607 C608 1.523 . S
C608 C592 1.368 . S
C608 C604 1.368 . S
C608 C607 1.523 . S
H609 C584 0.950 . S
H610 C586 0.950 . S
H611 C587 0.949 . S
H612 C589 0.950 . S
H613 C591 0.950 . S
C614 C615 1.349 . S
C614 C616 1.327 . S
C614 H639 0.950 . S
C615 C614 1.349 . S
C615 C631 1.349 . S
C616 C614 1.327 . S
C616 C635 1.429 . S
C616 H640 0.950 . S
C617 C634 1.574 . S
C617 C636 1.368 . S
C617 H641 0.949 . S
H618 C622 0.949 . S
C619 C620 1.349 . S
C619 C621 1.327 . S
C619 H642 0.950 . S
C620 C619 1.349 . S
C620 C632 1.349 . S
C621 C619 1.327 . S
C621 C637 1.429 . S
C621 H643 0.950 . S
C622 H618 0.949 . S
C622 C630 1.574 . S
C622 C638 1.368 . S
H623 C631 0.950 . S
H624 C629 0.950 . S
H625 C630 0.949 . S
H626 C632 0.950 . S
H627 C633 0.950 . S
H628 C634 0.949 . S
C629 H624 0.950 . S
C629 C631 1.327 . S
C629 C635 1.429 . S
C630 C622 1.574 . S
C630 H625 0.949 . S
C630 C636 1.368 . S
C631 C615 1.349 . S
C631 H623 0.950 . S
C631 C629 1.327 . S
C632 C620 1.349 . S
C632 H626 0.950 . S
C632 C633 1.327 . S
C633 H627 0.950 . S
C633 C632 1.327 . S
C633 C637 1.429 . S
C634 C617 1.574 . S
C634 H628 0.949 . S
C634 C638 1.368 . S
C635 C616 1.429 . S
C635 C629 1.429 . S
C635 C636 1.523 . S
C636 C617 1.368 . S
C636 C630 1.368 . S
C636 C635 1.523 . S
C637 C621 1.429 . S
C637 C633 1.429 . S
C637 C638 1.523 . S
C638 C622 1.368 . S
C638 C634 1.368 . S
C638 C637 1.523 . S
H639 C614 0.950 . S
H640 C616 0.950 . S
H641 C617 0.949 . S
H642 C619 0.950 . S
H643 C621 0.950 . S
C644 C645 1.349 . S
C644 C646 1.327 . S
C644 H669 0.950 . S
C645 C644 1.349 . S
C645 C661 1.349 . S
C646 C644 1.327 . S
C646 C665 1.429 . S
C646 H670 0.950 . S
C647 C664 1.574 . S
C647 C666 1.368 . S
C647 H671 0.949 . S
H648 C652 0.949 . S
C649 C650 1.349 . S
C649 C651 1.327 . S
C649 H672 0.950 . S
C650 C649 1.349 . S
C650 C662 1.349 . S
C651 C649 1.327 . S
C651 C667 1.429 . S
C651 H673 0.950 . S
C652 H648 0.949 . S
C652 C660 1.574 . S
C652 C668 1.368 . S
H653 C661 0.950 . S
H654 C659 0.950 . S
H655 C660 0.949 . S
H656 C662 0.950 . S
H657 C663 0.950 . S
H658 C664 0.949 . S
C659 H654 0.950 . S
C659 C661 1.327 . S
C659 C665 1.429 . S
C660 C652 1.574 . S
C660 H655 0.949 . S
C660 C666 1.368 . S
C661 C645 1.349 . S
C661 H653 0.950 . S
C661 C659 1.327 . S
C662 C650 1.349 . S
C662 H656 0.950 . S
C662 C663 1.327 . S
C663 H657 0.950 . S
C663 C662 1.327 . S
C663 C667 1.429 . S
C664 C647 1.574 . S
C664 H658 0.949 . S
C664 C668 1.368 . S
C665 C646 1.429 . S
C665 C659 1.429 . S
C665 C666 1.523 . S
C666 C647 1.368 . S
C666 C660 1.368 . S
C666 C665 1.523 . S
C667 C651 1.429 . S
C667 C663 1.429 . S
C667 C668 1.523 . S
C668 C652 1.368 . S
C668 C664 1.368 . S
C668 C667 1.523 . S
H669 C644 0.950 . S
H670 C646 0.950 . S
H671 C647 0.949 . S
H672 C649 0.950 . S
H673 C651 0.950 . S
C674 C675 1.349 . S
C674 C676 1.327 . S
C674 H699 0.950 . S
C675 C674 1.349 . S
C675 C691 1.349 . S
C676 C674 1.327 . S
C676 C695 1.429 . S
C676 H700 0.950 . S
C677 C694 1.574 . S
C677 C696 1.368 . S
C677 H701 0.949 . S
H678 C682 0.949 . S
C679 C680 1.349 . S
C679 C681 1.327 . S
C679 H702 0.950 . S
C680 C679 1.349 . S
C680 C692 1.349 . S
C681 C679 1.327 . S
C681 C697 1.429 . S
C681 H703 0.950 . S
C682 H678 0.949 . S
C682 C690 1.574 . S
C682 C698 1.368 . S
H683 C691 0.950 . S
H684 C689 0.950 . S
H685 C690 0.949 . S
H686 C692 0.950 . S
H687 C693 0.950 . S
H688 C694 0.949 . S
C689 H684 0.950 . S
C689 C691 1.327 . S
C689 C695 1.429 . S
C690 C682 1.574 . S
C690 H685 0.949 . S
C690 C696 1.368 . S
C691 C675 1.349 . S
C691 H683 0.950 . S
C691 C689 1.327 . S
C692 C680 1.349 . S
C692 H686 0.950 . S
C692 C693 1.327 . S
C693 H687 0.950 . S
C693 C692 1.327 . S
C693 C697 1.429 . S
C694 C677 1.574 . S
C694 H688 0.949 . S
C694 C698 1.368 . S
C695 C676 1.429 . S
C695 C689 1.429 . S
C695 C696 1.523 . S
C696 C677 1.368 . S
C696 C690 1.368 . S
C696 C695 1.523 . S
C697 C681 1.429 . S
C697 C693 1.429 . S
C697 C698 1.523 . S
C698 C682 1.368 . S
C698 C694 1.368 . S
C698 C697 1.523 . S
H699 C674 0.950 . S
H700 C676 0.950 . S
H701 C677 0.949 . S
H702 C679 0.950 . S
H703 C681 0.950 . S
C704 C705 1.349 . S
C704 C706 1.327 . S
C704 H729 0.950 . S
C705 C704 1.349 . S
C705 C721 1.349 . S
C706 C704 1.327 . S
C706 C725 1.429 . S
C706 H730 0.950 . S
C707 C724 1.574 . S
C707 C726 1.368 . S
C707 H731 0.949 . S
H708 C712 0.949 . S
C709 C710 1.349 . S
C709 C711 1.327 . S
C709 H732 0.950 . S
C710 C709 1.349 . S
C710 C722 1.349 . S
C711 C709 1.327 . S
C711 C727 1.429 . S
C711 H733 0.950 . S
C712 H708 0.949 . S
C712 C720 1.574 . S
C712 C728 1.368 . S
H713 C721 0.950 . S
H714 C719 0.950 . S
H715 C720 0.949 . S
H716 C722 0.950 . S
H717 C723 0.950 . S
H718 C724 0.949 . S
C719 H714 0.950 . S
C719 C721 1.327 . S
C719 C725 1.429 . S
C720 C712 1.574 . S
C720 H715 0.949 . S
C720 C726 1.368 . S
C721 C705 1.349 . S
C721 H713 0.950 . S
C721 C719 1.327 . S
C722 C710 1.349 . S
C722 H716 0.950 . S
C722 C723 1.327 . S
C723 H717 0.950 . S
C723 C722 1.327 . S
C723 C727 1.429 . S
C724 C707 1.574 . S
C724 H718 0.949 . S
C724 C728 1.368 . S
C725 C706 1.429 . S
C725 C719 1.429 . S
C725 C726 1.523 . S
C726 C707 1.368 . S
C726 C720 1.368 . S
C726 C725 1.523 . S
C727 C711 1.429 . S
C727 C723 1.429 . S
C727 C728 1.523 . S
C728 C712 1.368 . S
C728 C724 1.368 . S
C728 C727 1.523 . S
H729 C704 0.950 . S
H730 C706 0.950 . S
H731 C707 0.949 . S
H732 C709 0.950 . S
H733 C711 0.950 . S
C734 C735 1.349 . S
C734 C736 1.327 . S
C734 H759 0.950 . S
C735 C734 1.349 . S
C735 C751 1.349 . S
C736 C734 1.327 . S
C736 C755 1.429 . S
C736 H760 0.950 . S
C737 C754 1.574 . S
C737 C756 1.368 . S
C737 H761 0.949 . S
H738 C742 0.949 . S
C739 C740 1.349 . S
C739 C741 1.327 . S
C739 H762 0.950 . S
C740 C739 1.349 . S
C740 C752 1.349 . S
C741 C739 1.327 . S
C741 C757 1.429 . S
C741 H763 0.950 . S
C742 H738 0.949 . S
C742 C750 1.574 . S
C742 C758 1.368 . S
H743 C751 0.950 . S
H744 C749 0.950 . S
H745 C750 0.949 . S
H746 C752 0.950 . S
H747 C753 0.950 . S
H748 C754 0.949 . S
C749 H744 0.950 . S
C749 C751 1.327 . S
C749 C755 1.429 . S
C750 C742 1.574 . S
C750 H745 0.949 . S
C750 C756 1.368 . S
C751 C735 1.349 . S
C751 H743 0.950 . S
C751 C749 1.327 . S
C752 C740 1.349 . S
C752 H746 0.950 . S
C752 C753 1.327 . S
C753 H747 0.950 . S
C753 C752 1.327 . S
C753 C757 1.429 . S
C754 C737 1.574 . S
C754 H748 0.949 . S
C754 C758 1.368 . S
C755 C736 1.429 . S
C755 C749 1.429 . S
C755 C756 1.523 . S
C756 C737 1.368 . S
C756 C750 1.368 . S
C756 C755 1.523 . S
C757 C741 1.429 . S
C757 C753 1.429 . S
C757 C758 1.523 . S
C758 C742 1.368 . S
C758 C754 1.368 . S
C758 C757 1.523 . S
H759 C734 0.950 . S
H760 C736 0.950 . S
H761 C737 0.949 . S
H762 C739 0.950 . S
H763 C741 0.950 . S
C764 C765 1.349 . S
C764 C766 1.327 . S
C764 H789 0.950 . S
C765 C764 1.349 . S
C765 C781 1.349 . S
C766 C764 1.327 . S
C766 C785 1.429 . S
C766 H790 0.950 . S
C767 C784 1.574 . S
C767 C786 1.368 . S
C767 H791 0.949 . S
H768 C772 0.949 . S
C769 C770 1.349 . S
C769 C771 1.327 . S
C769 H792 0.950 . S
C770 C769 1.349 . S
C770 C782 1.349 . S
C771 C769 1.327 . S
C771 C787 1.429 . S
C771 H793 0.950 . S
C772 H768 0.949 . S
C772 C780 1.574 . S
C772 C788 1.368 . S
H773 C781 0.950 . S
H774 C779 0.950 . S
H775 C780 0.949 . S
H776 C782 0.950 . S
H777 C783 0.950 . S
H778 C784 0.949 . S
C779 H774 0.950 . S
C779 C781 1.327 . S
C779 C785 1.429 . S
C780 C772 1.574 . S
C780 H775 0.949 . S
C780 C786 1.368 . S
C781 C765 1.349 . S
C781 H773 0.950 . S
C781 C779 1.327 . S
C782 C770 1.349 . S
C782 H776 0.950 . S
C782 C783 1.327 . S
C783 H777 0.950 . S
C783 C782 1.327 . S
C783 C787 1.429 . S
C784 C767 1.574 . S
C784 H778 0.949 . S
C784 C788 1.368 . S
C785 C766 1.429 . S
C785 C779 1.429 . S
C785 C786 1.523 . S
C786 C767 1.368 . S
C786 C780 1.368 . S
C786 C785 1.523 . S
C787 C771 1.429 . S
C787 C783 1.429 . S
C787 C788 1.523 . S
C788 C772 1.368 . S
C788 C784 1.368 . S
C788 C787 1.523 . S
H789 C764 0.950 . S
H790 C766 0.950 . S
H791 C767 0.949 . S
H792 C769 0.950 . S
H793 C771 0.950 . S
C794 C795 1.349 . S
C794 C796 1.327 . S
C794 H819 0.950 . S
C795 C794 1.349 . S
C795 C811 1.349 . S
C796 C794 1.327 . S
C796 C815 1.429 . S
C796 H820 0.950 . S
C797 C814 1.574 . S
C797 C816 1.368 . S
C797 H821 0.949 . S
H798 C802 0.949 . S
C799 C800 1.349 . S
C799 C801 1.327 . S
C799 H822 0.950 . S
C800 C799 1.349 . S
C800 C812 1.349 . S
C801 C799 1.327 . S
C801 C817 1.429 . S
C801 H823 0.950 . S
C802 H798 0.949 . S
C802 C810 1.574 . S
C802 C818 1.368 . S
H803 C811 0.950 . S
H804 C809 0.950 . S
H805 C810 0.949 . S
H806 C812 0.950 . S
H807 C813 0.950 . S
H808 C814 0.949 . S
C809 H804 0.950 . S
C809 C811 1.327 . S
C809 C815 1.429 . S
C810 C802 1.574 . S
C810 H805 0.949 . S
C810 C816 1.368 . S
C811 C795 1.349 . S
C811 H803 0.950 . S
C811 C809 1.327 . S
C812 C800 1.349 . S
C812 H806 0.950 . S
C812 C813 1.327 . S
C813 H807 0.950 . S
C813 C812 1.327 . S
C813 C817 1.429 . S
C814 C797 1.574 . S
C814 H808 0.949 . S
C814 C818 1.368 . S
C815 C796 1.429 . S
C815 C809 1.429 . S
C815 C816 1.523 . S
C816 C797 1.368 . S
C816 C810 1.368 . S
C816 C815 1.523 . S
C817 C801 1.429 . S
C817 C813 1.429 . S
C817 C818 1.523 . S
C818 C802 1.368 . S
C818 C814 1.368 . S
C818 C817 1.523 . S
H819 C794 0.950 . S
H820 C796 0.950 . S
H821 C797 0.949 . S
H822 C799 0.950 . S
H823 C801 0.950 . S
C824 C825 1.349 . S
C824 C826 1.327 . S
C824 H849 0.950 . S
C825 C824 1.349 . S
C825 C841 1.349 . S
C826 C824 1.327 . S
C826 C845 1.429 . S
C826 H850 0.950 . S
C827 C844 1.574 . S
C827 C846 1.368 . S
C827 H851 0.949 . S
H828 C832 0.949 . S
C829 C830 1.349 . S
C829 C831 1.327 . S
C829 H852 0.950 . S
C830 C829 1.349 . S
C830 C842 1.349 . S
C831 C829 1.327 . S
C831 C847 1.429 . S
C831 H853 0.950 . S
C832 H828 0.949 . S
C832 C840 1.574 . S
C832 C848 1.368 . S
H833 C841 0.950 . S
H834 C839 0.950 . S
H835 C840 0.949 . S
H836 C842 0.950 . S
H837 C843 0.950 . S
H838 C844 0.949 . S
C839 H834 0.950 . S
C839 C841 1.327 . S
C839 C845 1.429 . S
C840 C832 1.574 . S
C840 H835 0.949 . S
C840 C846 1.368 . S
C841 C825 1.349 . S
C841 H833 0.950 . S
C841 C839 1.327 . S
C842 C830 1.349 . S
C842 H836 0.950 . S
C842 C843 1.327 . S
C843 H837 0.950 . S
C843 C842 1.327 . S
C843 C847 1.429 . S
C844 C827 1.574 . S
C844 H838 0.949 . S
C844 C848 1.368 . S
C845 C826 1.429 . S
C845 C839 1.429 . S
C845 C846 1.523 . S
C846 C827 1.368 . S
C846 C840 1.368 . S
C846 C845 1.523 . S
C847 C831 1.429 . S
C847 C843 1.429 . S
C847 C848 1.523 . S
C848 C832 1.368 . S
C848 C844 1.368 . S
C848 C847 1.523 . S
H849 C824 0.950 . S
H850 C826 0.950 . S
H851 C827 0.949 . S
H852 C829 0.950 . S
H853 C831 0.950 . S
C854 C855 1.349 . S
C854 C856 1.327 . S
C854 H879 0.950 . S
C855 C854 1.349 . S
C855 C871 1.349 . S
C856 C854 1.327 . S
C856 C875 1.429 . S
C856 H880 0.950 . S
C857 C874 1.574 . S
C857 C876 1.368 . S
C857 H881 0.949 . S
H858 C862 0.949 . S
C859 C860 1.349 . S
C859 C861 1.327 . S
C859 H882 0.950 . S
C860 C859 1.349 . S
C860 C872 1.349 . S
C861 C859 1.327 . S
C861 C877 1.429 . S
C861 H883 0.950 . S
C862 H858 0.949 . S
C862 C870 1.574 . S
C862 C878 1.368 . S
H863 C871 0.950 . S
H864 C869 0.950 . S
H865 C870 0.949 . S
H866 C872 0.950 . S
H867 C873 0.950 . S
H868 C874 0.949 . S
C869 H864 0.950 . S
C869 C871 1.327 . S
C869 C875 1.429 . S
C870 C862 1.574 . S
C870 H865 0.949 . S
C870 C876 1.368 . S
C871 C855 1.349 . S
C871 H863 0.950 . S
C871 C869 1.327 . S
C872 C860 1.349 . S
C872 H866 0.950 . S
C872 C873 1.327 . S
C873 H867 0.950 . S
C873 C872 1.327 . S
C873 C877 1.429 . S
C874 C857 1.574 . S
C874 H868 0.949 . S
C874 C878 1.368 . S
C875 C856 1.429 . S
C875 C869 1.429 . S
C875 C876 1.523 . S
C876 C857 1.368 . S
C876 C870 1.368 . S
C876 C875 1.523 . S
C877 C861 1.429 . S
C877 C873 1.429 . S
C877 C878 1.523 . S
C878 C862 1.368 . S
C878 C874 1.368 . S
C878 C877 1.523 . S
H879 C854 0.950 . S
H880 C856 0.950 . S
H881 C857 0.949 . S
H882 C859 0.950 . S
H883 C861 0.950 . S
C884 C885 1.349 . S
C884 C886 1.327 . S
C884 H909 0.950 . S
C885 C884 1.349 . S
C885 C901 1.349 . S
C886 C884 1.327 . S
C886 C905 1.429 . S
C886 H910 0.950 . S
C887 C904 1.574 . S
C887 C906 1.368 . S
C887 H911 0.949 . S
H888 C892 0.949 . S
C889 C890 1.349 . S
C889 C891 1.327 . S
C889 H912 0.950 . S
C890 C889 1.349 . S
C890 C902 1.349 . S
C891 C889 1.327 . S
C891 C907 1.429 . S
C891 H913 0.950 . S
C892 H888 0.949 . S
C892 C900 1.574 . S
C892 C908 1.368 . S
H893 C901 0.950 . S
H894 C899 0.950 . S
H895 C900 0.949 . S
H896 C902 0.950 . S
H897 C903 0.950 . S
H898 C904 0.949 . S
C899 H894 0.950 . S
C899 C901 1.327 . S
C899 C905 1.429 . S
C900 C892 1.574 . S
C900 H895 0.949 . S
C900 C906 1.368 . S
C901 C885 1.349 . S
C901 H893 0.950 . S
C901 C899 1.327 . S
C902 C890 1.349 . S
C902 H896 0.950 . S
C902 C903 1.327 . S
C903 H897 0.950 . S
C903 C902 1.327 . S
C903 C907 1.429 . S
C904 C887 1.574 . S
C904 H898 0.949 . S
C904 C908 1.368 . S
C905 C886 1.429 . S
C905 C899 1.429 . S
C905 C906 1.523 . S
C906 C887 1.368 . S
C906 C900 1.368 . S
C906 C905 1.523 . S
C907 C891 1.429 . S
C907 C903 1.429 . S
C907 C908 1.523 . S
C908 C892 1.368 . S
C908 C904 1.368 . S
C908 C907 1.523 . S
H909 C884 0.950 . S
H910 C886 0.950 . S
H911 C887 0.949 . S
H912 C889 0.950 . S
H913 C891 0.950 . S
C914 C915 1.349 . S
C914 C916 1.327 . S
C914 H939 0.950 . S
C915 C914 1.349 . S
C915 C931 1.349 . S
C916 C914 1.327 . S
C916 C935 1.429 . S
C916 H940 0.950 . S
C917 C934 1.574 . S
C917 C936 1.368 . S
C917 H941 0.949 . S
H918 C922 0.949 . S
C919 C920 1.349 . S
C919 C921 1.327 . S
C919 H942 0.950 . S
C920 C919 1.349 . S
C920 C932 1.349 . S
C921 C919 1.327 . S
C921 C937 1.429 . S
C921 H943 0.950 . S
C922 H918 0.949 . S
C922 C930 1.574 . S
C922 C938 1.368 . S
H923 C931 0.950 . S
H924 C929 0.950 . S
H925 C930 0.949 . S
H926 C932 0.950 . S
H927 C933 0.950 . S
H928 C934 0.949 . S
C929 H924 0.950 . S
C929 C931 1.327 . S
C929 C935 1.429 . S
C930 C922 1.574 . S
C930 H925 0.949 . S
C930 C936 1.368 . S
C931 C915 1.349 . S
C931 H923 0.950 . S
C931 C929 1.327 . S
C932 C920 1.349 . S
C932 H926 0.950 . S
C932 C933 1.327 . S
C933 H927 0.950 . S
C933 C932 1.327 . S
C933 C937 1.429 . S
C934 C917 1.574 . S
C934 H928 0.949 . S
C934 C938 1.368 . S
C935 C916 1.429 . S
C935 C929 1.429 . S
C935 C936 1.523 . S
C936 C917 1.368 . S
C936 C930 1.368 . S
C936 C935 1.523 . S
C937 C921 1.429 . S
C937 C933 1.429 . S
C937 C938 1.523 . S
C938 C922 1.368 . S
C938 C934 1.368 . S
C938 C937 1.523 . S
H939 C914 0.950 . S
H940 C916 0.950 . S
H941 C917 0.949 . S
H942 C919 0.950 . S
H943 C921 0.950 . S
C944 C945 1.349 . S
C944 C946 1.327 . S
C944 H969 0.950 . S
C945 C944 1.349 . S
C945 C961 1.349 . S
C946 C944 1.327 . S
C946 C965 1.429 1_545 S
C946 H970 0.950 . S
C947 C964 1.574 . S
C947 C966 1.368 . S
C947 H971 0.949 . S
H948 C952 0.949 . S
C949 C950 1.349 . S
C949 C951 1.327 . S
C949 H972 0.950 . S
C950 C949 1.349 . S
C950 C962 1.349 . S
C951 C949 1.327 . S
C951 C967 1.429 . S
C951 H973 0.950 . S
C952 H948 0.949 . S
C952 C960 1.574 . S
C952 C968 1.368 . S
H953 C961 0.950 . S
H954 C959 0.950 . S
H955 C960 0.949 . S
H956 C962 0.950 . S
H957 C963 0.950 . S
H958 C964 0.949 . S
C959 H954 0.950 . S
C959 C961 1.327 1_565 S
C959 C965 1.429 . S
C960 C952 1.574 . S
C960 H955 0.949 . S
C960 C966 1.368 . S
C961 C945 1.349 . S
C961 H953 0.950 . S
C961 C959 1.327 1_545 S
C962 C950 1.349 . S
C962 H956 0.950 . S
C962 C963 1.327 . S
C963 H957 0.950 . S
C963 C962 1.327 . S
C963 C967 1.429 . S
C964 C947 1.574 . S
C964 H958 0.949 . S
C964 C968 1.368 . S
C965 C946 1.429 1_565 S
C965 C959 1.429 . S
C965 C966 1.523 . S
C966 C947 1.368 . S
C966 C960 1.368 . S
C966 C965 1.523 . S
C967 C951 1.429 . S
C967 C963 1.429 . S
C967 C968 1.523 . S
C968 C952 1.368 . S
C968 C964 1.368 . S
C968 C967 1.523 . S
H969 C944 0.950 . S
H970 C946 0.950 . S
H971 C947 0.949 . S
H972 C949 0.950 . S
H973 C951 0.950 . S
C974 C975 1.349 . S
C974 C976 1.327 . S
C974 H999 0.950 . S
C975 C974 1.349 . S
C975 C991 1.349 . S
C976 C974 1.327 . S
C976 C995 1.429 . S
C976 H1000 0.950 . S
C977 C994 1.574 . S
C977 C996 1.368 . S
C977 H1001 0.949 . S
H978 C982 0.949 . S
C979 C980 1.349 . S
C979 C981 1.327 . S
C979 H1002 0.950 . S
C980 C979 1.349 . S
C980 C992 1.349 . S
C981 C979 1.327 . S
C981 C997 1.429 . S
C981 H1003 0.950 . S
C982 H978 0.949 . S
C982 C990 1.574 . S
C982 C998 1.368 . S
H983 C991 0.950 . S
H984 C989 0.950 . S
H985 C990 0.949 . S
H986 C992 0.950 . S
H987 C993 0.950 . S
H988 C994 0.949 . S
C989 H984 0.950 . S
C989 C991 1.327 . S
C989 C995 1.429 . S
C990 C982 1.574 . S
C990 H985 0.949 . S
C990 C996 1.368 . S
C991 C975 1.349 . S
C991 H983 0.950 . S
C991 C989 1.327 . S
C992 C980 1.349 . S
C992 H986 0.950 . S
C992 C993 1.327 . S
C993 H987 0.950 . S
C993 C992 1.327 . S
C993 C997 1.429 . S
C994 C977 1.574 . S
C994 H988 0.949 . S
C994 C998 1.368 . S
C995 C976 1.429 . S
C995 C989 1.429 . S
C995 C996 1.523 . S
C996 C977 1.368 . S
C996 C990 1.368 . S
C996 C995 1.523 . S
C997 C981 1.429 . S
C997 C993 1.429 . S
C997 C998 1.523 . S
C998 C982 1.368 . S
C998 C994 1.368 . S
C998 C997 1.523 . S
H999 C974 0.950 . S
H1000 C976 0.950 . S
H1001 C977 0.949 . S
H1002 C979 0.950 . S
H1003 C981 0.950 . S
C1004 C1005 1.349 . S
C1004 C1006 1.327 . S
C1004 H1029 0.950 . S
C1005 C1004 1.349 . S
C1005 C1021 1.349 . S
C1006 C1004 1.327 . S
C1006 C1025 1.429 . S
C1006 H1030 0.950 . S
C1007 C1024 1.574 . S
C1007 C1026 1.368 . S
C1007 H1031 0.949 . S
H1008 C1012 0.949 . S
C1009 C1010 1.349 . S
C1009 C1011 1.327 1_655 S
C1009 H1032 0.950 . S
C1010 C1009 1.349 . S
C1010 C1022 1.349 . S
C1011 C1009 1.327 1_455 S
C1011 C1027 1.429 . S
C1011 H1033 0.950 . S
C1012 H1008 0.949 . S
C1012 C1020 1.574 . S
C1012 C1028 1.368 . S
H1013 C1021 0.950 . S
H1014 C1019 0.950 . S
H1015 C1020 0.949 . S
H1016 C1022 0.950 . S
H1017 C1023 0.950 . S
H1018 C1024 0.949 . S
C1019 H1014 0.950 . S
C1019 C1021 1.327 . S
C1019 C1025 1.429 . S
C1020 C1012 1.574 . S
C1020 H1015 0.949 . S
C1020 C1026 1.368 . S
C1021 C1005 1.349 . S
C1021 H1013 0.950 . S
C1021 C1019 1.327 . S
C1022 C1010 1.349 . S
C1022 H1016 0.950 . S
C1022 C1023 1.327 . S
C1023 H1017 0.950 . S
C1023 C1022 1.327 . S
C1023 C1027 1.429 1_655 S
C1024 C1007 1.574 . S
C1024 H1018 0.949 . S
C1024 C1028 1.368 . S
C1025 C1006 1.429 . S
C1025 C1019 1.429 . S
C1025 C1026 1.523 . S
C1026 C1007 1.368 . S
C1026 C1020 1.368 . S
C1026 C1025 1.523 . S
C1027 C1011 1.429 . S
C1027 C1023 1.429 1_455 S
C1027 C1028 1.523 . S
C1028 C1012 1.368 . S
C1028 C1024 1.368 . S
C1028 C1027 1.523 . S
H1029 C1004 0.950 . S
H1030 C1006 0.950 . S
H1031 C1007 0.949 . S
H1032 C1009 0.950 . S
H1033 C1011 0.950 . S
C1034 C1035 1.349 . S
C1034 C1036 1.327 . S
C1034 H1059 0.950 . S
C1035 C1034 1.349 . S
C1035 C1051 1.349 . S
C1036 C1034 1.327 . S
C1036 C1055 1.429 1_565 S
C1036 H1060 0.950 . S
C1037 C1054 1.574 . S
C1037 C1056 1.368 . S
C1037 H1061 0.949 . S
H1038 C1042 0.949 . S
C1039 C1040 1.349 . S
C1039 C1041 1.327 1_455 S
C1039 H1062 0.950 . S
C1040 C1039 1.349 . S
C1040 C1052 1.349 . S
C1041 C1039 1.327 1_655 S
C1041 C1057 1.429 . S
C1041 H1063 0.950 . S
C1042 H1038 0.949 . S
C1042 C1050 1.574 . S
C1042 C1058 1.368 . S
H1043 C1051 0.950 . S
H1044 C1049 0.950 . S
H1045 C1050 0.949 . S
H1046 C1052 0.950 . S
H1047 C1053 0.950 . S
H1048 C1054 0.949 . S
C1049 H1044 0.950 . S
C1049 C1051 1.327 1_545 S
C1049 C1055 1.429 . S
C1050 C1042 1.574 . S
C1050 H1045 0.949 . S
C1050 C1056 1.368 . S
C1051 C1035 1.349 . S
C1051 H1043 0.950 . S
C1051 C1049 1.327 1_565 S
C1052 C1040 1.349 . S
C1052 H1046 0.950 . S
C1052 C1053 1.327 . S
C1053 H1047 0.950 . S
C1053 C1052 1.327 . S
C1053 C1057 1.429 1_455 S
C1054 C1037 1.574 . S
C1054 H1048 0.949 . S
C1054 C1058 1.368 . S
C1055 C1036 1.429 1_545 S
C1055 C1049 1.429 . S
C1055 C1056 1.523 . S
C1056 C1037 1.368 . S
C1056 C1050 1.368 . S
C1056 C1055 1.523 . S
C1057 C1041 1.429 . S
C1057 C1053 1.429 1_655 S
C1057 C1058 1.523 . S
C1058 C1042 1.368 . S
C1058 C1054 1.368 . S
C1058 C1057 1.523 . S
H1059 C1034 0.950 . S
H1060 C1036 0.950 . S
H1061 C1037 0.949 . S
H1062 C1039 0.950 . S
H1063 C1041 0.950 . S
C1064 C1065 1.349 . S
C1064 C1066 1.327 . S
C1064 H1089 0.950 . S
C1065 C1064 1.349 . S
C1065 C1081 1.349 . S
C1066 C1064 1.327 . S
C1066 C1085 1.429 . S
C1066 H1090 0.950 . S
C1067 C1084 1.574 . S
C1067 C1086 1.368 . S
C1067 H1091 0.949 . S
H1068 C1072 0.949 . S
C1069 C1070 1.349 . S
C1069 C1071 1.327 . S
C1069 H1092 0.950 . S
C1070 C1069 1.349 . S
C1070 C1082 1.349 . S
C1071 C1069 1.327 . S
C1071 C1087 1.429 . S
C1071 H1093 0.950 . S
C1072 H1068 0.949 . S
C1072 C1080 1.574 . S
C1072 C1088 1.368 . S
H1073 C1081 0.950 . S
H1074 C1079 0.950 . S
H1075 C1080 0.949 . S
H1076 C1082 0.950 . S
H1077 C1083 0.950 . S
H1078 C1084 0.949 . S
C1079 H1074 0.950 . S
C1079 C1081 1.327 . S
C1079 C1085 1.429 . S
C1080 C1072 1.574 . S
C1080 H1075 0.949 . S
C1080 C1086 1.368 . S
C1081 C1065 1.349 . S
C1081 H1073 0.950 . S
C1081 C1079 1.327 . S
C1082 C1070 1.349 . S
C1082 H1076 0.950 . S
C1082 C1083 1.327 . S
C1083 H1077 0.950 . S
C1083 C1082 1.327 . S
C1083 C1087 1.429 . S
C1084 C1067 1.574 . S
C1084 H1078 0.949 . S
C1084 C1088 1.368 . S
C1085 C1066 1.429 . S
C1085 C1079 1.429 . S
C1085 C1086 1.523 . S
C1086 C1067 1.368 . S
C1086 C1080 1.368 . S
C1086 C1085 1.523 . S
C1087 C1071 1.429 . S
C1087 C1083 1.429 . S
C1087 C1088 1.523 . S
C1088 C1072 1.368 . S
C1088 C1084 1.368 . S
C1088 C1087 1.523 . S
H1089 C1064 0.950 . S
H1090 C1066 0.950 . S
H1091 C1067 0.949 . S
H1092 C1069 0.950 . S
H1093 C1071 0.950 . S
C1094 C1095 1.349 . S
C1094 C1096 1.327 1_455 S
C1094 H1119 0.950 . S
C1095 C1094 1.349 . S
C1095 C1111 1.349 . S
C1096 C1094 1.327 1_655 S
C1096 C1115 1.429 . S
C1096 H1120 0.950 . S
C1097 C1114 1.574 . S
C1097 C1116 1.368 . S
C1097 H1121 0.949 . S
H1098 C1102 0.949 . S
C1099 C1100 1.349 . S
C1099 C1101 1.327 . S
C1099 H1122 0.950 . S
C1100 C1099 1.349 . S
C1100 C1112 1.349 . S
C1101 C1099 1.327 . S
C1101 C1117 1.429 . S
C1101 H1123 0.950 . S
C1102 H1098 0.949 . S
C1102 C1110 1.574 . S
C1102 C1118 1.368 . S
H1103 C1111 0.950 . S
H1104 C1109 0.950 . S
H1105 C1110 0.949 . S
H1106 C1112 0.950 . S
H1107 C1113 0.950 . S
H1108 C1114 0.949 . S
C1109 H1104 0.950 . S
C1109 C1111 1.327 . S
C1109 C1115 1.429 1_455 S
C1110 C1102 1.574 . S
C1110 H1105 0.949 . S
C1110 C1116 1.368 . S
C1111 C1095 1.349 . S
C1111 H1103 0.950 . S
C1111 C1109 1.327 . S
C1112 C1100 1.349 . S
C1112 H1106 0.950 . S
C1112 C1113 1.327 . S
C1113 H1107 0.950 . S
C1113 C1112 1.327 . S
C1113 C1117 1.429 . S
C1114 C1097 1.574 . S
C1114 H1108 0.949 . S
C1114 C1118 1.368 . S
C1115 C1096 1.429 . S
C1115 C1109 1.429 1_655 S
C1115 C1116 1.523 . S
C1116 C1097 1.368 . S
C1116 C1110 1.368 . S
C1116 C1115 1.523 . S
C1117 C1101 1.429 . S
C1117 C1113 1.429 . S
C1117 C1118 1.523 . S
C1118 C1102 1.368 . S
C1118 C1114 1.368 . S
C1118 C1117 1.523 . S
H1119 C1094 0.950 . S
H1120 C1096 0.950 . S
H1121 C1097 0.949 . S
H1122 C1099 0.950 . S
H1123 C1101 0.950 . S
C1124 C1125 1.349 . S
C1124 C1126 1.327 . S
C1124 H1149 0.950 . S
C1125 C1124 1.349 . S
C1125 C1141 1.349 . S
C1126 C1124 1.327 . S
C1126 C1145 1.429 1_655 S
C1126 H1150 0.950 . S
C1127 C1144 1.574 . S
C1127 C1146 1.368 . S
C1127 H1151 0.949 . S
H1128 C1132 0.949 . S
C1129 C1130 1.349 . S
C1129 C1131 1.327 1_545 S
C1129 H1152 0.950 . S
C1130 C1129 1.349 . S
C1130 C1142 1.349 . S
C1131 C1129 1.327 1_565 S
C1131 C1147 1.429 . S
C1131 H1153 0.950 . S
C1132 H1128 0.949 . S
C1132 C1140 1.574 . S
C1132 C1148 1.368 . S
H1133 C1141 0.950 . S
H1134 C1139 0.950 . S
H1135 C1140 0.949 . S
H1136 C1142 0.950 . S
H1137 C1143 0.950 . S
H1138 C1144 0.949 . S
C1139 H1134 0.950 . S
C1139 C1141 1.327 1_455 S
C1139 C1145 1.429 . S
C1140 C1132 1.574 . S
C1140 H1135 0.949 . S
C1140 C1146 1.368 . S
C1141 C1125 1.349 . S
C1141 H1133 0.950 . S
C1141 C1139 1.327 1_655 S
C1142 C1130 1.349 . S
C1142 H1136 0.950 . S
C1142 C1143 1.327 . S
C1143 H1137 0.950 . S
C1143 C1142 1.327 . S
C1143 C1147 1.429 1_545 S
C1144 C1127 1.574 . S
C1144 H1138 0.949 . S
C1144 C1148 1.368 . S
C1145 C1126 1.429 1_455 S
C1145 C1139 1.429 . S
C1145 C1146 1.523 . S
C1146 C1127 1.368 . S
C1146 C1140 1.368 . S
C1146 C1145 1.523 . S
C1147 C1131 1.429 . S
C1147 C1143 1.429 1_565 S
C1147 C1148 1.523 . S
C1148 C1132 1.368 . S
C1148 C1144 1.368 . S
C1148 C1147 1.523 . S
H1149 C1124 0.950 . S
H1150 C1126 0.950 . S
H1151 C1127 0.949 . S
H1152 C1129 0.950 . S
H1153 C1131 0.950 . S
C1154 C1155 1.349 . S
C1154 C1156 1.327 1_565 S
C1154 H1179 0.950 . S
C1155 C1154 1.349 . S
C1155 C1171 1.349 . S
C1156 C1154 1.327 1_545 S
C1156 C1175 1.429 . S
C1156 H1180 0.950 . S
C1157 C1174 1.574 . S
C1157 C1176 1.368 . S
C1157 H1181 0.949 . S
H1158 C1162 0.949 . S
C1159 C1160 1.349 . S
C1159 C1161 1.327 . S
C1159 H1182 0.950 . S
C1160 C1159 1.349 . S
C1160 C1172 1.349 . S
C1161 C1159 1.327 . S
C1161 C1177 1.429 . S
C1161 H1183 0.950 . S
C1162 H1158 0.949 . S
C1162 C1170 1.574 . S
C1162 C1178 1.368 . S
H1163 C1171 0.950 . S
H1164 C1169 0.950 . S
H1165 C1170 0.949 . S
H1166 C1172 0.950 . S
H1167 C1173 0.950 . S
H1168 C1174 0.949 . S
C1169 H1164 0.950 . S
C1169 C1171 1.327 . S
C1169 C1175 1.429 1_565 S
C1170 C1162 1.574 . S
C1170 H1165 0.949 . S
C1170 C1176 1.368 . S
C1171 C1155 1.349 . S
C1171 H1163 0.950 . S
C1171 C1169 1.327 . S
C1172 C1160 1.349 . S
C1172 H1166 0.950 . S
C1172 C1173 1.327 . S
C1173 H1167 0.950 . S
C1173 C1172 1.327 . S
C1173 C1177 1.429 . S
C1174 C1157 1.574 . S
C1174 H1168 0.949 . S
C1174 C1178 1.368 . S
C1175 C1156 1.429 . S
C1175 C1169 1.429 1_545 S
C1175 C1176 1.523 . S
C1176 C1157 1.368 . S
C1176 C1170 1.368 . S
C1176 C1175 1.523 . S
C1177 C1161 1.429 . S
C1177 C1173 1.429 . S
C1177 C1178 1.523 . S
C1178 C1162 1.368 . S
C1178 C1174 1.368 . S
C1178 C1177 1.523 . S
H1179 C1154 0.950 . S
H1180 C1156 0.950 . S
H1181 C1157 0.949 . S
H1182 C1159 0.950 . S
H1183 C1161 0.950 . S
C225 C106 1.315 . S
C230 C8 1.315 . S
C255 C64 1.315 . S
C260 C22 1.315 . S
C285 C78 1.315 . S
C290 C36 1.315 . S
C315 C50 1.315 . S
C320 C92 1.315 . S
C345 C218 1.315 . S
C350 C120 1.315 . S
C375 C176 1.315 . S
C380 C134 1.315 . S
C405 C148 1.315 . S
C410 C190 1.315 . S
C435 C162 1.315 . S
C440 C204 1.315 . S
C465 C37 1.144 . S
C470 C9 1.144 . S
C495 C23 1.144 . S
C500 C51 1.144 . S
C525 C65 1.144 . S
C530 C93 1.144 . S
C555 C107 1.144 . S
C560 C79 1.144 . S
C585 C121 1.144 . S
C590 C149 1.144 . S
C615 C135 1.144 . S
C620 C163 1.144 . S
C645 C205 1.144 . S
C650 C177 1.144 . S
C675 C191 1.144 . S
C680 C219 1.144 . S
C705 C91 1.680 . S
C710 C7 1.680 . S
C735 C21 1.680 . S
C740 C105 1.680 . S
C765 C35 1.680 . S
C770 C63 1.680 . S
C795 C49 1.680 . S
C800 C77 1.680 . S
C825 C119 1.680 . S
C830 C203 1.680 . S
C855 C133 1.680 . S
C860 C217 1.680 . S
C885 C147 1.680 . S
C890 C175 1.680 . S
C915 C161 1.680 . S
C920 C189 1.680 . S
C945 C6 1.382 . S
C950 C216 1.382 . S
C975 C174 1.382 . S
C980 C20 1.382 . S
C1005 C34 1.382 . S
C1010 C188 1.382 . S
C1035 C202 1.382 . S
C1040 C48 1.382 . S
C1065 C132 1.382 . S
C1070 C62 1.382 . S
C1095 C76 1.382 . S
C1100 C146 1.382 . S
C1125 C160 1.382 . S
C1130 C90 1.382 . S
C1155 C118 1.382 . S
C1160 C104 1.382 . S
