# Generated by pormake.
# Topology wmc, (6)-cn, num edge types: 1
# Building blocks:
#     Node 0, Type 0, BuildingBlock: FUNLAD_clean_sbu_0, # of connection points: 6
#     Node 1, Type 0, BuildingBlock: FUNLAD_clean_sbu_0, # of connection points: 6
#     Node 2, Type 0, BuildingBlock: FUNLAD_clean_sbu_0, # of connection points: 6
#     Node 3, Type 0, BuildingBlock: FUNLAD_clean_sbu_0, # of connection points: 6
#     Node 4, Type 0, BuildingBlock: FUNLAD_clean_sbu_0, # of connection points: 6
#     Node 5, Type 0, BuildingBlock: FUNLAD_clean_sbu_0, # of connection points: 6
#     Node 6, Type 0, BuildingBlock: FUNLAD_clean_sbu_0, # of connection points: 6
#     Node 7, Type 0, BuildingBlock: FUNLAD_clean_sbu_0, # of connection points: 6
#     Node 8, Type 0, BuildingBlock: FUNLAD_clean_sbu_0, # of connection points: 6
#     Node 9, Type 0, BuildingBlock: FUNLAD_clean_sbu_0, # of connection points: 6
#     Node 10, Type 0, BuildingBlock: FUNLAD_clean_sbu_0, # of connection points: 6
#     Node 11, Type 0, BuildingBlock: FUNLAD_clean_sbu_0, # of connection points: 6
#     Node 12, Type 0, BuildingBlock: FUNLAD_clean_sbu_0, # of connection points: 6
#     Node 13, Type 0, BuildingBlock: FUNLAD_clean_sbu_0, # of connection points: 6
#     Node 14, Type 0, BuildingBlock: FUNLAD_clean_sbu_0, # of connection points: 6
#     Node 15, Type 0, BuildingBlock: FUNLAD_clean_sbu_0, # of connection points: 6
#     Node 16, Type 0, BuildingBlock: FUNLAD_clean_sbu_0, # of connection points: 6
#     Node 17, Type 0, BuildingBlock: FUNLAD_clean_sbu_0, # of connection points: 6
#     Edge 18, Type (0, 0), BuildingBlock: ZUJKAS_clean_linker_0, # of connection points: 2
#     Edge 19, Type (0, 0), BuildingBlock: ZUJKAS_clean_linker_0, # of connection points: 2
#     Edge 20, Type (0, 0), BuildingBlock: ZUJKAS_clean_linker_0, # of connection points: 2
#     Edge 21, Type (0, 0), BuildingBlock: ZUJKAS_clean_linker_0, # of connection points: 2
#     Edge 22, Type (0, 0), BuildingBlock: ZUJKAS_clean_linker_0, # of connection points: 2
#     Edge 23, Type (0, 0), BuildingBlock: ZUJKAS_clean_linker_0, # of connection points: 2
#     Edge 24, Type (0, 0), BuildingBlock: ZUJKAS_clean_linker_0, # of connection points: 2
#     Edge 25, Type (0, 0), BuildingBlock: ZUJKAS_clean_linker_0, # of connection points: 2
#     Edge 26, Type (0, 0), BuildingBlock: ZUJKAS_clean_linker_0, # of connection points: 2
#     Edge 27, Type (0, 0), BuildingBlock: ZUJKAS_clean_linker_0, # of connection points: 2
#     Edge 28, Type (0, 0), BuildingBlock: ZUJKAS_clean_linker_0, # of connection points: 2
#     Edge 29, Type (0, 0), BuildingBlock: ZUJKAS_clean_linker_0, # of connection points: 2
#     Edge 30, Type (0, 0), BuildingBlock: ZUJKAS_clean_linker_0, # of connection points: 2
#     Edge 31, Type (0, 0), BuildingBlock: ZUJKAS_clean_linker_0, # of connection points: 2
#     Edge 32, Type (0, 0), BuildingBlock: ZUJKAS_clean_linker_0, # of connection points: 2
#     Edge 33, Type (0, 0), BuildingBlock: ZUJKAS_clean_linker_0, # of connection points: 2
#     Edge 34, Type (0, 0), BuildingBlock: ZUJKAS_clean_linker_0, # of connection points: 2
#     Edge 35, Type (0, 0), BuildingBlock: ZUJKAS_clean_linker_0, # of connection points: 2
#     Edge 36, Type (0, 0), BuildingBlock: ZUJKAS_clean_linker_0, # of connection points: 2
#     Edge 37, Type (0, 0), BuildingBlock: ZUJKAS_clean_linker_0, # of connection points: 2
#     Edge 38, Type (0, 0), BuildingBlock: ZUJKAS_clean_linker_0, # of connection points: 2
#     Edge 39, Type (0, 0), BuildingBlock: ZUJKAS_clean_linker_0, # of connection points: 2
#     Edge 40, Type (0, 0), BuildingBlock: ZUJKAS_clean_linker_0, # of connection points: 2
#     Edge 41, Type (0, 0), BuildingBlock: ZUJKAS_clean_linker_0, # of connection points: 2
#     Edge 42, Type (0, 0), BuildingBlock: ZUJKAS_clean_linker_0, # of connection points: 2
#     Edge 43, Type (0, 0), BuildingBlock: ZUJKAS_clean_linker_0, # of connection points: 2
#     Edge 44, Type (0, 0), BuildingBlock: ZUJKAS_clean_linker_0, # of connection points: 2
#     Edge 45, Type (0, 0), BuildingBlock: ZUJKAS_clean_linker_0, # of connection points: 2
#     Edge 46, Type (0, 0), BuildingBlock: ZUJKAS_clean_linker_0, # of connection points: 2
#     Edge 47, Type (0, 0), BuildingBlock: ZUJKAS_clean_linker_0, # of connection points: 2
#     Edge 48, Type (0, 0), BuildingBlock: ZUJKAS_clean_linker_0, # of connection points: 2
#     Edge 49, Type (0, 0), BuildingBlock: ZUJKAS_clean_linker_0, # of connection points: 2
#     Edge 50, Type (0, 0), BuildingBlock: ZUJKAS_clean_linker_0, # of connection points: 2
#     Edge 51, Type (0, 0), BuildingBlock: ZUJKAS_clean_linker_0, # of connection points: 2
#     Edge 52, Type (0, 0), BuildingBlock: ZUJKAS_clean_linker_0, # of connection points: 2
#     Edge 53, Type (0, 0), BuildingBlock: ZUJKAS_clean_linker_0, # of connection points: 2
#     Edge 54, Type (0, 0), BuildingBlock: ZUJKAS_clean_linker_0, # of connection points: 2
#     Edge 55, Type (0, 0), BuildingBlock: ZUJKAS_clean_linker_0, # of connection points: 2
#     Edge 56, Type (0, 0), BuildingBlock: ZUJKAS_clean_linker_0, # of connection points: 2
#     Edge 57, Type (0, 0), BuildingBlock: ZUJKAS_clean_linker_0, # of connection points: 2
#     Edge 58, Type (0, 0), BuildingBlock: ZUJKAS_clean_linker_0, # of connection points: 2
#     Edge 59, Type (0, 0), BuildingBlock: ZUJKAS_clean_linker_0, # of connection points: 2
#     Edge 60, Type (0, 0), BuildingBlock: ZUJKAS_clean_linker_0, # of connection points: 2
#     Edge 61, Type (0, 0), BuildingBlock: ZUJKAS_clean_linker_0, # of connection points: 2
#     Edge 62, Type (0, 0), BuildingBlock: ZUJKAS_clean_linker_0, # of connection points: 2
#     Edge 63, Type (0, 0), BuildingBlock: ZUJKAS_clean_linker_0, # of connection points: 2
#     Edge 64, Type (0, 0), BuildingBlock: ZUJKAS_clean_linker_0, # of connection points: 2
#     Edge 65, Type (0, 0), BuildingBlock: ZUJKAS_clean_linker_0, # of connection points: 2
#     Edge 66, Type (0, 0), BuildingBlock: ZUJKAS_clean_linker_0, # of connection points: 2
#     Edge 67, Type (0, 0), BuildingBlock: ZUJKAS_clean_linker_0, # of connection points: 2
#     Edge 68, Type (0, 0), BuildingBlock: ZUJKAS_clean_linker_0, # of connection points: 2
#     Edge 69, Type (0, 0), BuildingBlock: ZUJKAS_clean_linker_0, # of connection points: 2
#     Edge 70, Type (0, 0), BuildingBlock: ZUJKAS_clean_linker_0, # of connection points: 2
#     Edge 71, Type (0, 0), BuildingBlock: ZUJKAS_clean_linker_0, # of connection points: 2
# Relax obj value: 0.556
# Max RMSD: 0.256
# Mean RMSD: 0.256
data_MOF--net-wmc--node1-FUNLAD_clean_sbu_0--edge1-ZUJKAS_clean_linker_0
_symmetry_space_group_name_H-M    P1
_symmetry_Int_Tables_number       1
_symmetry_cell_setting            triclinic
loop_
_symmetry_equiv_pos_as_xyz
'x, y, z'
_cell_length_a     67.415922
_cell_length_b     67.408167
_cell_length_c     36.481124
_cell_angle_alpha  89.990208
_cell_angle_beta   89.995214
_cell_angle_gamma 119.98725
loop_
_atom_site_label
_atom_site_type_symbol
_atom_site_fract_x
_atom_site_fract_y
_atom_site_fract_z
_atom_type_partial_charge
C0 C 0.60328 0.12334 0.0883 0.0
N1 N 0.6545 0.16938 0.01574 0.0
C2 C 0.6562 0.18693 0.03648 0.0
C3 C 0.67663 0.20791 0.03729 0.0
C4 C 0.6955 0.21089 0.01651 0.0
C5 C 0.6933 0.19236 0.99572 0.0
C6 C 0.67258 0.1717 0.99572 0.0
Zn7 Zn 0.62441 0.13886 0.01401 0.0
C8 C 0.6343 0.10034 0.02506 0.0
N9 N 0.56188 0.07395 0.01022 0.0
C10 C 0.54399 0.07303 0.02905 0.0
C11 C 0.55826 0.05779 0.98459 0.0
C12 C 0.53592 0.04081 0.97542 0.0
C13 C 0.51707 0.04042 0.99276 0.0
C14 C 0.52146 0.05635 0.02088 0.0
Zn15 Zn 0.59306 0.10411 0.01374 0.0
O16 O 0.62016 0.13985 0.07197 0.0
C17 C 0.58482 0.14435 0.00349 0.0
O18 O 0.5894 0.10571 0.07023 0.0
H19 H 0.5726 0.05889 0.96954 0.0
H20 H 0.64166 0.1847 0.0523 0.0
H21 H 0.54703 0.08614 0.04895 0.0
O22 O 0.60641 0.15585 0.00647 0.0
O23 O 0.57474 0.12258 0.00526 0.0
H24 H 0.67087 0.15753 0.97941 0.0
O25 O 0.597 0.10323 0.95677 0.0
O26 O 0.62719 0.13766 0.95617 0.0
O27 O 0.61266 0.08693 0.02325 0.0
O28 O 0.6426 0.12175 0.02154 0.0
C29 C 0.61246 0.12002 0.93895 0.0
H30 H 0.67764 0.22163 0.05408 0.0
H31 H 0.70727 0.19396 0.97891 0.0
H32 H 0.53347 0.02901 0.95343 0.0
H33 H 0.50758 0.05649 0.03558 0.0
C34 C 0.88633 0.48338 0.08061 0.0
N35 N 0.83946 0.48706 0.0079 0.0
C36 C 0.82166 0.47062 0.02752 0.0
C37 C 0.80046 0.46965 0.0276 0.0
C38 C 0.79762 0.48584 0.00747 0.0
C39 C 0.8164 0.50283 0.98799 0.0
C40 C 0.83721 0.50307 0.98848 0.0
Zn41 Zn 0.87019 0.48792 0.00626 0.0
C42 C 0.90834 0.53667 0.01623 0.0
N43 N 0.93557 0.49117 0.00234 0.0
C44 C 0.93692 0.47468 0.02193 0.0
C45 C 0.95142 0.50338 0.9761 0.0
C46 C 0.96854 0.49814 0.96717 0.0
C47 C 0.96938 0.48015 0.98536 0.0
C48 C 0.95375 0.46898 0.01401 0.0
Zn49 Zn 0.90518 0.49184 0.00589 0.0
O50 O 0.86944 0.48297 0.06423 0.0
C51 C 0.86536 0.44299 0.99705 0.0
O52 O 0.90407 0.4875 0.06251 0.0
H53 H 0.94998 0.51622 0.96044 0.0
H54 H 0.82383 0.45811 0.04287 0.0
H55 H 0.92405 0.46487 0.04231 0.0
O56 O 0.85358 0.45284 -0.00096 0.0
O57 O 0.8871 0.45493 -0.00091 0.0
H58 H 0.85153 0.51594 0.97292 0.0
O59 O 0.90546 0.49567 0.94864 0.0
O60 O 0.87112 0.49165 0.94858 0.0
O61 O 0.922 0.52875 0.01401 0.0
O62 O 0.88694 0.52325 0.01346 0.0
C63 C 0.88853 0.4942 0.93106 0.0
H64 H 0.78646 0.4564 0.04327 0.0
H65 H 0.81486 0.51544 0.97173 0.0
H66 H 0.98009 0.50719 0.94476 0.0
H67 H 0.95395 0.45533 0.02935 0.0
C68 C 0.52843 0.40713 0.08562 0.0
N69 N 0.52084 0.35454 0.01413 0.0
C70 C 0.53812 0.35342 0.03145 0.0
C71 C 0.53892 0.33312 0.03111 0.0
C72 C 0.5217 0.31376 0.01297 0.0
C73 C 0.50383 0.31528 0.996 0.0
C74 C 0.50379 0.33595 0.99678 0.0
Zn75 Zn 0.52044 0.38463 0.0125 0.0
C76 C 0.47259 0.37528 0.02747 0.0
N77 N 0.51829 0.44728 0.00802 0.0
C78 C 0.53602 0.46539 0.02526 0.0
C79 C 0.50449 0.45056 0.98454 0.0
C80 C 0.50905 0.47278 0.97625 0.0
C81 C 0.52805 0.49187 0.99213 0.0
C82 C 0.54119 0.4878 0.01773 0.0
Zn83 Zn 0.51725 0.4161 0.01132 0.0
O84 O 0.52813 0.39019 0.06963 0.0
C85 C 0.56525 0.42388 -0.0024 0.0
O86 O 0.52373 0.42037 0.06757 0.0
H87 H 0.49061 0.43604 0.97079 0.0
H88 H 0.55146 0.36838 0.04518 0.0
H89 H 0.5471 0.46259 0.04333 0.0
O90 O 0.55507 0.40231 0.00096 0.0
O91 O 0.55384 0.43418 0.00078 0.0
H92 H 0.49027 0.33723 0.98302 0.0
O93 O 0.51126 0.41158 0.95471 0.0
O94 O 0.514 0.3805 0.9552 0.0
O95 O 0.48069 0.39675 0.02277 0.0
O96 O 0.48557 0.3668 0.02444 0.0
C97 C 0.51143 0.39531 0.93749 0.0
H98 H 0.55289 0.33257 0.04484 0.0
H99 H 0.49038 0.30084 0.98135 0.0
H100 H 0.49816 0.47497 0.95681 0.0
H101 H 0.55618 0.50181 0.03038 0.0
C102 C 0.88907 0.39408 0.43065 0.0
N103 N 0.93519 0.44494 0.50143 0.0
C104 C 0.95185 0.44818 0.47705 0.0
C105 C 0.96918 0.47037 0.46792 0.0
C106 C 0.96938 0.48951 0.48386 0.0
C107 C 0.95272 0.48551 0.51053 0.0
C108 C 0.93579 0.46309 0.51889 0.0
Zn109 Zn 0.90518 0.41367 0.50518 0.0
C110 C 0.86452 0.42137 0.49558 0.0
N111 N 0.84033 0.35174 0.50755 0.0
C112 C 0.83886 0.33349 0.48917 0.0
C113 C 0.82204 0.35008 0.52603 0.0
C114 C 0.80114 0.32955 0.52593 0.0
C115 C 0.79906 0.31043 0.50693 0.0
C116 C 0.8184 0.31259 0.48872 0.0
Zn117 Zn 0.87063 0.38208 0.5059 0.0
O118 O 0.90589 0.40974 0.44815 0.0
C119 C 0.90954 0.37271 0.51659 0.0
O120 O 0.87169 0.37922 0.44822 0.0
H121 H 0.82356 0.3648 0.54045 0.0
H122 H 0.95103 0.43361 0.46317 0.0
H123 H 0.85357 0.33515 0.47455 0.0
O124 O 0.92277 0.39438 0.51459 0.0
O125 O 0.88811 0.36428 0.51331 0.0
H126 H 0.92226 0.46031 0.53774 0.0
O127 O 0.86973 0.38634 0.56386 0.0
O128 O 0.90374 0.41733 0.5616 0.0
O129 O 0.85327 0.39977 0.49852 0.0
O130 O 0.88631 0.43168 0.49703 0.0
C131 C 0.88628 0.40333 0.57993 0.0
H132 H 0.98187 0.4725 0.44773 0.0
H133 H 0.95188 0.49955 0.52334 0.0
H134 H 0.78665 0.32888 0.53989 0.0
H135 H 0.8178 0.29829 0.47419 0.0
C136 C 0.61418 0.49471 0.43826 0.0
N137 N 0.5629 0.49113 0.50761 0.0
C138 C 0.55927 0.50318 0.48106 0.0
C139 C 0.53691 0.49781 0.47181 0.0
C140 C 0.51808 0.4798 0.48995 0.0
C141 C 0.52249 0.46875 0.51881 0.0
C142 C 0.54502 0.47462 0.5271 0.0
Zn143 Zn 0.59406 0.49211 0.51225 0.0
C144 C 0.58563 0.44346 0.50461 0.0
N145 N 0.65534 0.48791 0.51695 0.0
C146 C 0.67379 0.50404 0.49805 0.0
C147 C 0.65643 0.47119 0.53622 0.0
C148 C 0.67651 0.46995 0.53619 0.0
C149 C 0.69568 0.48616 0.51636 0.0
C150 C 0.69424 0.50355 0.49752 0.0
Zn151 Zn 0.62537 0.48858 0.51421 0.0
O152 O 0.59819 0.49576 0.45492 0.0
C153 C 0.63541 0.53718 0.52308 0.0
O154 O 0.62891 0.49242 0.45667 0.0
H155 H 0.64159 0.45858 0.55116 0.0
H156 H 0.57359 0.51604 0.46547 0.0
H157 H 0.67255 0.5171 0.48271 0.0
O158 O 0.61383 0.52907 0.52 0.0
O159 O 0.64358 0.52387 0.52135 0.0
H160 H 0.54805 0.46492 0.54773 0.0
O161 O 0.62046 0.48356 0.57216 0.0
O162 O 0.59033 0.488 0.56892 0.0
O163 O 0.60724 0.45354 0.50694 0.0
O164 O 0.57558 0.45518 0.506 0.0
C165 C 0.60375 0.48396 0.58777 0.0
H166 H 0.53442 0.50677 0.44925 0.0
H167 H 0.50862 0.45508 0.53408 0.0
H168 H 0.677 0.45639 0.55136 0.0
H169 H 0.70851 0.5162 0.48153 0.0
C170 C 0.51361 0.12219 0.43867 0.0
N171 N 0.51593 0.07308 0.50515 0.0
C172 C 0.50283 0.05742 0.47927 0.0
C173 C 0.5074 0.04008 0.4689 0.0
C174 C 0.52563 0.03877 0.48527 0.0
C175 C 0.53795 0.05438 0.51338 0.0
C176 C 0.53285 0.07144 0.52283 0.0
Zn177 Zn 0.51494 0.10311 0.51151 0.0
C178 C 0.56348 0.14384 0.5073 0.0
N179 N 0.51798 0.16778 0.52022 0.0
C180 C 0.50366 0.17106 0.49799 0.0
C181 C 0.53199 0.18414 0.5445 0.0
C182 C 0.53206 0.20487 0.54681 0.0
C183 C 0.51774 0.20882 0.52364 0.0
C184 C 0.50335 0.19158 0.49912 0.0
Zn185 Zn 0.51791 0.13753 0.51594 0.0
O186 O 0.51129 0.10437 0.45446 0.0
C187 C 0.46941 0.09871 0.5213 0.0
O188 O 0.51641 0.13908 0.45796 0.0
H189 H 0.54327 0.1812 0.56186 0.0
H190 H 0.48958 0.05906 0.46527 0.0
H191 H 0.49249 0.15777 0.47913 0.0
O192 O 0.47789 0.08551 0.5193 0.0
O193 O 0.48249 0.1202 0.51954 0.0
H194 H 0.54337 0.08422 0.54287 0.0
O195 O 0.52067 0.13572 0.57398 0.0
O196 O 0.51911 0.10251 0.56817 0.0
O197 O 0.55307 0.15487 0.51249 0.0
O198 O 0.55197 0.12208 0.50484 0.0
C199 C 0.52142 0.11889 0.58834 0.0
H200 H 0.49717 0.02822 0.44752 0.0
H201 H 0.55229 0.05428 0.52658 0.0
H202 H 0.54358 0.21787 0.56583 0.0
H203 H 0.49193 0.19392 0.48106 0.0
C204 C 0.27248 0.45578 0.41234 0.0
N205 N 0.32312 0.50147 0.33812 0.0
C206 C 0.32472 0.51995 0.35586 0.0
C207 C 0.34505 0.54104 0.35455 0.0
C208 C 0.36397 0.54307 0.335 0.0
C209 C 0.3619 0.52354 0.31762 0.0
C210 C 0.34124 0.50291 0.31934 0.0
Zn211 Zn 0.29315 0.47087 0.33761 0.0
C212 C 0.30362 0.43281 0.34943 0.0
N213 N 0.23106 0.40563 0.33533 0.0
C214 C 0.21278 0.4045 0.3532 0.0
C215 C 0.22815 0.38909 0.31097 0.0
C216 C 0.20611 0.37136 0.30216 0.0
C217 C 0.18681 0.37059 0.31848 0.0
C218 C 0.19049 0.38709 0.34524 0.0
Zn219 Zn 0.26193 0.43608 0.33813 0.0
O220 O 0.28896 0.47248 0.39558 0.0
C221 C 0.25326 0.47595 0.32734 0.0
O222 O 0.25881 0.43785 0.39467 0.0
H223 H 0.24282 0.39032 0.29681 0.0
H224 H 0.31009 0.51844 0.37057 0.0
H225 H 0.21531 0.41795 0.37205 0.0
O226 O 0.2749 0.4875 0.329 0.0
O227 O 0.24316 0.45424 0.3305 0.0
H228 H 0.33964 0.48805 0.30531 0.0
O229 O 0.26522 0.43507 0.28071 0.0
O230 O 0.29592 0.4691 0.28011 0.0
O231 O 0.28201 0.41921 0.34721 0.0
O232 O 0.31162 0.45417 0.34607 0.0
C233 C 0.28085 0.45172 0.26285 0.0
H234 H 0.3457 0.55568 0.36796 0.0
H235 H 0.37609 0.52415 0.30274 0.0
H236 H 0.2042 0.3588 0.28185 0.0
H237 H 0.17626 0.38743 0.35835 0.0
C238 C 0.55474 0.8158 0.41586 0.0
N239 N 0.50598 0.82339 0.35407 0.0
C240 C 0.48951 0.80817 0.37706 0.0
C241 C 0.4686 0.80765 0.38029 0.0
C242 C 0.46454 0.82284 0.35949 0.0
C243 C 0.48207 0.83864 0.33654 0.0
C244 C 0.50273 0.83865 0.33432 0.0
Zn245 Zn 0.53599 0.82323 0.3473 0.0
C246 C 0.57549 0.87118 0.3552 0.0
N247 N 0.59941 0.82407 0.32957 0.0
C248 C 0.59969 0.80581 0.34499 0.0
C249 C 0.61589 0.83783 0.30516 0.0
C250 C 0.63283 0.83274 0.29422 0.0
C251 C 0.6326 0.81317 0.30821 0.0
C252 C 0.61611 0.80005 0.33468 0.0
Zn253 Zn 0.56997 0.82589 0.33821 0.0
O254 O 0.5382 0.81835 0.40497 0.0
C255 C 0.52871 0.77796 0.33094 0.0
O256 O 0.5703 0.81853 0.39349 0.0
H257 H 0.61524 0.85208 0.29276 0.0
H258 H 0.49246 0.79621 0.39256 0.0
H259 H 0.58639 0.79483 0.36397 0.0
O260 O 0.51803 0.78814 0.34044 0.0
O261 O 0.55035 0.7895 0.32699 0.0
H262 H 0.51606 0.85063 0.31623 0.0
O263 O 0.56885 0.8324 0.28258 0.0
O264 O 0.53407 0.82674 0.28934 0.0
O265 O 0.58836 0.86251 0.3502 0.0
O266 O 0.55393 0.85849 0.3542 0.0
C267 C 0.55069 0.83034 0.26854 0.0
H268 H 0.45573 0.79539 0.39874 0.0
H269 H 0.47966 0.85044 0.31956 0.0
H270 H 0.64521 0.84329 0.27362 0.0
H271 H 0.61548 0.78503 0.3466 0.0
C272 C 0.19001 0.73723 0.41586 0.0
N273 N 0.18756 0.68684 0.34412 0.0
C274 C 0.20247 0.6849 0.36693 0.0
C275 C 0.20312 0.66452 0.36832 0.0
C276 C 0.18841 0.64605 0.3458 0.0
C277 C 0.17311 0.64848 0.32274 0.0
C278 C 0.1729 0.66907 0.32245 0.0
Zn279 Zn 0.18668 0.71668 0.34166 0.0
C280 C 0.13767 0.70577 0.34948 0.0
N281 N 0.18319 0.77867 0.33637 0.0
C282 C 0.19948 0.79645 0.3563 0.0
C283 C 0.17144 0.78244 0.30946 0.0
C284 C 0.17697 0.80485 0.30024 0.0
C285 C 0.19482 0.82359 0.31879 0.0
C286 C 0.20549 0.81903 0.34806 0.0
Zn287 Zn 0.18252 0.74762 0.34056 0.0
O288 O 0.19056 0.72074 0.39979 0.0
C289 C 0.23158 0.75688 0.33403 0.0
O290 O 0.18617 0.7509 0.39734 0.0
H291 H 0.15878 0.76821 0.29351 0.0
H292 H 0.21401 0.69924 0.38385 0.0
H293 H 0.20896 0.79332 0.37719 0.0
O294 O 0.2219 0.73526 0.33613 0.0
O295 O 0.21945 0.76649 0.335 0.0
H296 H 0.16104 0.67088 0.30473 0.0
O297 O 0.17942 0.74407 0.28312 0.0
O298 O 0.184 0.71409 0.2839 0.0
O299 O 0.14552 0.72737 0.34763 0.0
O300 O 0.15125 0.69795 0.34713 0.0
C301 C 0.18139 0.72877 0.26594 0.0
H302 H 0.21536 0.6634 0.38617 0.0
H303 H 0.16135 0.63458 0.30522 0.0
H304 H 0.1683 0.80746 0.27737 0.0
H305 H 0.21902 0.83283 0.36365 0.0
C306 C 0.56042 0.73398 0.77408 0.0
N307 N 0.60432 0.78183 0.85025 0.0
C308 C 0.62129 0.78465 0.82688 0.0
C309 C 0.63899 0.80666 0.81788 0.0
C310 C 0.63926 0.82602 0.83294 0.0
C311 C 0.62243 0.82246 0.859 0.0
C312 C 0.60508 0.80018 0.86725 0.0
Zn313 Zn 0.57378 0.75101 0.85136 0.0
C314 C 0.5343 0.75986 0.83852 0.0
N315 N 0.50852 0.6898 0.84574 0.0
C316 C 0.50615 0.67225 0.82421 0.0
C317 C 0.49097 0.6876 0.86706 0.0
C318 C 0.47008 0.66709 0.86738 0.0
C319 C 0.46715 0.64876 0.84529 0.0
C320 C 0.48547 0.65153 0.8234 0.0
Zn321 Zn 0.53924 0.71967 0.84657 0.0
O322 O 0.57608 0.74894 0.79426 0.0
C323 C 0.57684 0.70898 0.86049 0.0
O324 O 0.54239 0.71809 0.78889 0.0
H325 H 0.49316 0.70178 0.88384 0.0
H326 H 0.62035 0.76992 0.8134 0.0
H327 H 0.52037 0.67428 0.80769 0.0
O328 O 0.59029 0.73067 0.86058 0.0
O329 O 0.55562 0.70089 0.85495 0.0
H330 H 0.59132 0.79769 0.88537 0.0
O331 O 0.53645 0.72283 0.90473 0.0
O332 O 0.57085 0.75319 0.90763 0.0
O333 O 0.52283 0.73819 0.83807 0.0
O334 O 0.55586 0.76989 0.84354 0.0
C335 C 0.55233 0.73892 0.92334 0.0
H336 H 0.65183 0.80847 0.79823 0.0
H337 H 0.62173 0.83674 0.87119 0.0
H338 H 0.45623 0.66572 0.88427 0.0
H339 H 0.48391 0.63774 0.80617 0.0
C340 C 0.28059 0.82927 0.76583 0.0
N341 N 0.23064 0.8268 0.83648 0.0
C342 C 0.22784 0.84005 0.81118 0.0
C343 C 0.20584 0.8356 0.80169 0.0
C344 C 0.18647 0.81733 0.81834 0.0
C345 C 0.19003 0.80491 0.84599 0.0
C346 C 0.21228 0.80991 0.85458 0.0
Zn347 Zn 0.26145 0.82716 0.84071 0.0
C348 C 0.25255 0.7783 0.83221 0.0
N349 N 0.32235 0.82248 0.8437 0.0
C350 C 0.34022 0.83733 0.82236 0.0
C351 C 0.32435 0.80775 0.86686 0.0
C352 C 0.34499 0.80767 0.86927 0.0
C353 C 0.36363 0.82273 0.84737 0.0
C354 C 0.36106 0.83766 0.82363 0.0
Zn355 Zn 0.29247 0.82323 0.84109 0.0
O356 O 0.26531 0.83103 0.78346 0.0
C357 C 0.30324 0.87203 0.8506 0.0
O358 O 0.29532 0.8265 0.78331 0.0
H359 H 0.30992 0.79604 0.8835 0.0
H360 H 0.24258 0.85327 0.79683 0.0
H361 H 0.33836 0.84906 0.80439 0.0
O362 O 0.28164 0.86412 0.84897 0.0
O363 O 0.31109 0.85851 0.84751 0.0
H364 H 0.21471 0.79926 0.87415 0.0
O365 O 0.28802 0.81863 0.89926 0.0
O366 O 0.2577 0.82275 0.89717 0.0
O367 O 0.27416 0.78822 0.8345 0.0
O368 O 0.24262 0.79014 0.83389 0.0
C369 C 0.27137 0.8188 0.91546 0.0
H370 H 0.20402 0.84592 0.78068 0.0
H371 H 0.17574 0.79054 0.85938 0.0
H372 H 0.34624 0.7957 0.88761 0.0
H373 H 0.3751 0.84964 0.80653 0.0
C374 C 0.18186 0.45484 0.76336 0.0
N375 N 0.18481 0.40763 0.83446 0.0
C376 C 0.17257 0.39162 0.80846 0.0
C377 C 0.17778 0.37443 0.79991 0.0
C378 C 0.19582 0.37374 0.81819 0.0
C379 C 0.2071 0.3896 0.84647 0.0
C380 C 0.20138 0.40645 0.85407 0.0
Zn381 Zn 0.18392 0.43789 0.83822 0.0
C382 C 0.23264 0.47812 0.82954 0.0
N383 N 0.18812 0.50335 0.84119 0.0
C384 C 0.17332 0.50625 0.81953 0.0
C385 C 0.20267 0.52015 0.8644 0.0
C386 C 0.20264 0.54083 0.86648 0.0
C387 C 0.18767 0.54431 0.84417 0.0
C388 C 0.17291 0.52673 0.82042 0.0
Zn389 Zn 0.18766 0.47281 0.83883 0.0
O390 O 0.18029 0.43784 0.7809 0.0
C391 C 0.13892 0.43451 0.84813 0.0
O392 O 0.18429 0.47218 0.78095 0.0
H393 H 0.21435 0.51753 0.88129 0.0
H394 H 0.15966 0.39294 0.79277 0.0
H395 H 0.16171 0.4926 0.80154 0.0
O396 O 0.14688 0.42086 0.84612 0.0
O397 O 0.15238 0.45591 0.84544 0.0
H398 H 0.21122 0.41944 0.87425 0.0
O399 O 0.19238 0.47313 0.89711 0.0
O400 O 0.18801 0.43859 0.89481 0.0
O401 O 0.2226 0.4897 0.83188 0.0
O402 O 0.22097 0.45636 0.83161 0.0
C403 C 0.19197 0.45616 0.91323 0.0
H404 H 0.16865 0.36266 0.77777 0.0
H405 H 0.22081 0.38952 0.86182 0.0
H406 H 0.21448 0.5541 0.88485 0.0
H407 H 0.161 0.52872 0.803 0.0
C408 C 0.9362 0.78761 0.7551 0.0
N409 N 0.98862 0.83444 0.68493 0.0
C410 C 0.99092 0.85146 0.70768 0.0
C411 C 0.01165 0.87213 0.70937 0.0
C412 C 0.03006 0.87534 0.68719 0.0
C413 C 0.02725 0.85744 0.66422 0.0
C414 C 0.00633 0.83701 0.66363 0.0
Zn415 Zn 0.95829 0.80429 0.68195 0.0
C416 C 0.9676 0.76527 0.69103 0.0
N417 N 0.89555 0.73989 0.67472 0.0
C418 C 0.87735 0.73918 0.69219 0.0
C419 C 0.8924 0.7234 0.65005 0.0
C420 C 0.87024 0.70609 0.64074 0.0
C421 C 0.85107 0.70573 0.65684 0.0
C422 C 0.85498 0.72225 0.68369 0.0
Zn423 Zn 0.92678 0.76979 0.67945 0.0
O424 O 0.9536 0.80423 0.73995 0.0
C425 C 0.91931 0.81072 0.67126 0.0
O426 O 0.92237 0.77056 0.73587 0.0
H427 H 0.90701 0.72432 0.63617 0.0
H428 H 0.97661 0.84909 0.72429 0.0
H429 H 0.88006 0.75259 0.71125 0.0
O430 O 0.94081 0.82185 0.67562 0.0
O431 O 0.90898 0.7889 0.67113 0.0
H432 H 1.00421 0.8232 0.64597 0.0
O433 O 0.93132 0.76961 0.62261 0.0
O434 O 0.96138 0.8041 0.62391 0.0
O435 O 0.94595 0.75206 0.6887 0.0
O436 O 0.97609 0.78674 0.6884 0.0
C437 C 0.94693 0.78679 0.60572 0.0
H438 H 0.01307 0.88566 0.72713 0.0
H439 H 0.04111 0.8592 0.64693 0.0
H440 H 0.86816 0.69352 0.62036 0.0
H441 H 0.84089 0.72297 0.69659 0.0
C442 C 0.21851 0.14951 0.75034 0.0
N443 N 0.17269 0.15339 0.67538 0.0
C444 C 0.15471 0.13684 0.69454 0.0
C445 C 0.13345 0.13568 0.69373 0.0
C446 C 0.1307 0.15177 0.67314 0.0
C447 C 0.14965 0.16887 0.65414 0.0
C448 C 0.17055 0.16933 0.65555 0.0
Zn449 Zn 0.2035 0.15446 0.67506 0.0
C450 C 0.24128 0.20326 0.68613 0.0
N451 N 0.26895 0.15794 0.67415 0.0
C452 C 0.26997 0.14137 0.69403 0.0
C453 C 0.28508 0.17008 0.64822 0.0
C454 C 0.3021 0.1646 0.63981 0.0
C455 C 0.30251 0.14644 0.65817 0.0
C456 C 0.28666 0.13542 0.68659 0.0
Zn457 Zn 0.2385 0.15849 0.67634 0.0
O458 O 0.20182 0.14903 0.73317 0.0
C459 C 0.19898 0.1097 0.66613 0.0
O460 O 0.23663 0.15402 0.73303 0.0
H461 H 0.2839 0.18298 0.63232 0.0
H462 H 0.15681 0.12439 0.71022 0.0
H463 H 0.25689 0.13161 0.71413 0.0
O464 O 0.18718 0.11954 0.66717 0.0
O465 O 0.22065 0.12157 0.66946 0.0
H466 H 0.18503 0.1823 0.6404 0.0
O467 O 0.23957 0.16238 0.61887 0.0
O468 O 0.20532 0.15854 0.61742 0.0
O469 O 0.25506 0.19544 0.68457 0.0
O470 O 0.21994 0.18971 0.68272 0.0
C471 C 0.22292 0.16103 0.60059 0.0
H472 H 0.11931 0.12235 0.70909 0.0
H473 H 0.14821 0.18143 0.63757 0.0
H474 H 0.31386 0.17356 0.61758 0.0
H475 H 0.28655 0.12163 0.70201 0.0
C476 C 0.86075 0.07312 0.75058 0.0
N477 N 0.85252 0.01931 0.68069 0.0
C478 C 0.86978 0.01776 0.69721 0.0
C479 C 0.86982 0.99704 0.6971 0.0
C480 C 0.8518 0.97763 0.68014 0.0
C481 C 0.83396 0.97969 0.66412 0.0
C482 C 0.83477 1.00076 0.66443 0.0
Zn483 Zn 0.85296 0.04988 0.67809 0.0
C484 C 0.80513 0.04138 0.6913 0.0
N485 N 0.85171 0.11293 0.67081 0.0
C486 C 0.86948 0.1311 0.68784 0.0
C487 C 0.83819 0.11616 0.64662 0.0
C488 C 0.84312 0.13836 0.63736 0.0
C489 C 0.86218 0.15749 0.65302 0.0
C490 C 0.875 0.15351 0.67939 0.0
Zn491 Zn 0.85011 0.08154 0.67544 0.0
O492 O 0.8601 0.05575 0.73549 0.0
C493 C 0.89797 0.08852 0.66311 0.0
O494 O 0.85652 0.08637 0.73162 0.0
H495 H 0.82427 0.10157 0.63308 0.0
H496 H 0.88375 0.03272 0.70995 0.0
H497 H 0.88034 0.12833 0.70647 0.0
O498 O 0.8877 0.06701 0.66752 0.0
O499 O 0.88665 0.09897 0.66506 0.0
H500 H 0.82124 1.00231 0.65126 0.0
O501 O 0.84424 0.07644 0.61872 0.0
O502 O 0.84712 0.04547 0.62076 0.0
O503 O 0.81351 0.0629 0.68686 0.0
O504 O 0.81797 0.03272 0.6887 0.0
C505 C 0.84464 0.06006 0.60224 0.0
H506 H 0.88415 0.99646 0.70934 0.0
H507 H 0.81951 0.96519 0.65129 0.0
H508 H 0.83248 0.1405 0.61734 0.0
H509 H 0.89 0.16756 0.69193 0.0
C510 C 0.22037 0.06006 0.09999 0.0
N511 N 0.26877 0.11133 0.16755 0.0
C512 C 0.28509 0.11467 0.14237 0.0
C513 C 0.30215 0.13694 0.13284 0.0
C514 C 0.30224 0.15592 0.14906 0.0
C515 C 0.28599 0.15187 0.17638 0.0
C516 C 0.26943 0.12944 0.18528 0.0
Zn517 Zn 0.23898 0.08001 0.1731 0.0
C518 C 0.19787 0.0873 0.16889 0.0
N519 N 0.17456 0.01808 0.18098 0.0
C520 C 0.17143 1.00055 0.15869 0.0
C521 C 0.15797 0.01573 0.20476 0.0
C522 C 0.1371 0.9952 0.20634 0.0
C523 C 0.13325 0.97703 0.18301 0.0
C524 C 0.15078 0.97983 0.15916 0.0
Zn525 Zn 0.20471 0.04837 0.17727 0.0
O526 O 0.23808 0.07556 0.11598 0.0
C527 C 0.24377 0.03903 0.18266 0.0
O528 O 0.20351 0.0457 0.11912 0.0
H529 H 0.16079 0.0299 0.22214 0.0
H530 H 0.28414 0.10014 0.12816 0.0
H531 H 0.18489 1.0027 0.14019 0.0
O532 O 0.25687 0.06074 0.18072 0.0
O533 O 0.22227 0.03051 0.18085 0.0
H534 H 0.25627 0.12658 0.20496 0.0
O535 O 0.20616 0.05261 0.23549 0.0
O536 O 0.23927 0.08435 0.2298 0.0
O537 O 0.18707 0.06584 0.17385 0.0
O538 O 0.21964 0.09777 0.16661 0.0
C539 C 0.22293 0.07021 0.24993 0.0
H540 H 0.31432 0.13927 0.11153 0.0
H541 H 0.28561 0.16597 0.18997 0.0
H542 H 0.12388 0.99379 0.22483 0.0
H543 H 0.14854 0.96615 0.14098 0.0
C544 C 0.94712 0.16219 0.10319 0.0
N545 N 0.89594 0.15749 0.17334 0.0
C546 C 0.89323 0.17141 0.14932 0.0
C547 C 0.87126 0.16724 0.14025 0.0
C548 C 0.85183 0.1485 0.15591 0.0
C549 C 0.8553 0.13529 0.18221 0.0
C550 C 0.87751 0.14008 0.19051 0.0
Zn551 Zn 0.92686 0.15812 0.17723 0.0
C552 C 0.91852 0.10964 0.16643 0.0
N553 N 0.98823 0.15416 0.18044 0.0
C554 C 0.00664 0.17135 0.16296 0.0
C555 C 0.98965 0.13695 0.19742 0.0
C556 C 0.01009 0.13639 0.19657 0.0
C557 C 0.02935 0.15382 0.17835 0.0
C558 C 0.02744 0.17162 0.16184 0.0
Zn559 Zn 0.95807 0.15451 0.1788 0.0
O560 O 0.93112 0.16303 0.12016 0.0
C561 C 0.968 0.20291 0.19067 0.0
O562 O 0.96179 0.15964 0.1213 0.0
H563 H 0.9748 0.12342 0.21109 0.0
H564 H 0.90802 0.18506 0.13572 0.0
H565 H 0.00518 0.18483 0.14943 0.0
O566 O 0.94648 0.19492 0.18701 0.0
O567 O 0.97614 0.18963 0.18823 0.0
H568 H 0.87989 0.12895 0.20911 0.0
O569 O 0.95287 0.14806 0.23644 0.0
O570 O 0.92277 0.15259 0.23366 0.0
O571 O 0.94011 0.11965 0.16944 0.0
O572 O 0.90847 0.12134 0.16857 0.0
C573 C 0.93596 0.14803 0.25215 0.0
H574 H 0.86953 0.17819 0.12034 0.0
H575 H 0.84097 0.12053 0.19479 0.0
H576 H 0.01058 0.12211 0.20923 0.0
H577 H 0.04185 0.18564 0.14804 0.0
C578 C 0.84468 0.78623 0.1036 0.0
N579 N 0.84989 0.73906 0.17153 0.0
C580 C 0.83612 0.72292 0.14675 0.0
C581 C 0.84031 0.70529 0.13663 0.0
C582 C 0.8589 0.70421 0.15205 0.0
C583 C 0.87193 0.72032 0.17916 0.0
C584 C 0.86714 0.73762 0.18846 0.0
Zn585 Zn 0.84942 0.7694 0.17685 0.0
C586 C 0.89763 0.80937 0.16551 0.0
N587 N 0.85365 0.83479 0.18279 0.0
C588 C 0.83678 0.83688 0.16591 0.0
C589 C 0.87106 0.85279 0.20065 0.0
C590 C 0.8722 0.87406 0.2013 0.0
C591 C 0.85517 0.87676 0.18364 0.0
C592 C 0.83715 0.85776 0.16615 0.0
Zn593 Zn 0.85281 0.80411 0.17936 0.0
O594 O 0.84457 0.76957 0.11999 0.0
C595 C 0.8047 0.76573 0.192 0.0
O596 O 0.8468 0.80312 0.12217 0.0
H597 H 0.88425 0.85074 0.21399 0.0
H598 H 0.8226 0.72439 0.13334 0.0
H599 H 0.82317 0.82241 0.15166 0.0
O600 O 0.81267 0.75233 0.18639 0.0
O601 O 0.81789 0.78722 0.19059 0.0
H602 H 0.87818 0.75075 0.20766 0.0
O603 O 0.86 0.8049 0.23649 0.0
O604 O 0.85488 0.77006 0.23335 0.0
O605 O 0.88752 0.82086 0.16837 0.0
O606 O 0.88613 0.78766 0.16838 0.0
C607 C 0.85979 0.78786 0.25199 0.0
H608 H 0.8295 0.69304 0.1161 0.0
H609 H 0.88656 0.72043 0.19161 0.0
H610 H 0.88629 0.88827 0.21535 0.0
H611 H 0.82385 0.85919 0.15182 0.0
H612 H 0.60234 0.18936 0.98778 0.0
H613 H 0.58233 0.21092 0.98519 0.0
H614 H 0.51819 0.1493 0.00651 0.0
H615 H 0.53831 0.12729 0.00944 0.0
H616 H 0.54463 0.20425 0.93931 0.0
H617 H 0.52445 0.19541 0.08881 0.0
H618 H 0.54575 0.18951 0.07008 0.0
H619 H 0.51593 0.16988 0.06225 0.0
C620 C 0.58395 0.18025 0.99176 0.0
C621 C 0.57192 0.15662 -0.00089 0.0
C622 C 0.57254 0.19263 0.99013 0.0
C623 C 0.54886 0.18174 0.99598 0.0
C624 C 0.53655 0.15802 0.0023 0.0
H625 H 0.48688 0.26951 0.02221 0.0
H626 H 0.48894 0.2343 0.01577 0.0
C627 C 0.54802 0.14549 0.00378 0.0
C628 C 0.53777 0.19591 0.9966 0.0
H629 H 0.51926 0.22239 0.05596 0.0
C630 C 0.53858 0.20786 0.96462 0.0
C631 C 0.52987 0.20052 0.02966 0.0
C632 C 0.52895 0.18829 0.06481 0.0
C633 C 0.53296 0.22526 0.9653 0.0
C634 C 0.52666 0.23099 -0.0011 0.0
C635 C 0.52425 0.21797 0.03032 0.0
C636 C 0.52506 0.25197 0.0027 0.0
C637 C 0.53464 0.23798 0.93035 0.0
C638 C 0.54478 0.27345 -0.00188 0.0
C639 C 0.5437 0.29348 0.00192 0.0
C640 C 0.52285 0.2924 0.01038 0.0
C641 C 0.50313 0.27083 0.01533 0.0
C642 C 0.50427 0.25075 0.01178 0.0
H643 H 0.53319 0.2276 0.90577 0.0
H644 H 0.52109 0.24275 0.92915 0.0
H645 H 0.55154 0.25394 0.92935 0.0
H646 H 0.56106 0.27471 0.99164 0.0
H647 H 0.55912 0.30981 -0.00241 0.0
H648 H 0.69997 0.25344 0.01349 0.0
H649 H 0.73529 0.29043 0.00971 0.0
H650 H 0.77513 0.25656 0.0121 0.0
H651 H 0.73981 0.21929 0.01673 0.0
H652 H 0.78207 0.30411 0.06496 0.0
H653 H 0.78623 0.3038 0.91237 0.0
H654 H 0.75865 0.29069 0.93467 0.0
H655 H 0.77629 0.27789 0.93893 0.0
C656 C 0.71621 0.2538 0.01382 0.0
C657 C 0.71705 0.23338 0.01548 0.0
C658 C 0.73634 0.27494 0.01143 0.0
C659 C 0.75766 0.27608 0.01059 0.0
C660 C 0.75874 0.25589 0.01266 0.0
H661 H 0.88171 0.41402 0.01395 0.0
H662 H 0.85953 0.37187 0.01583 0.0
C663 C 0.73856 0.23467 0.01508 0.0
C664 C 0.77862 0.29858 0.00671 0.0
H665 H 0.81009 0.33892 0.9424 0.0
C666 C 0.78867 0.31162 0.03828 0.0
C667 C 0.78696 0.30814 0.97179 0.0
C668 C 0.77662 0.2945 0.93732 0.0
C669 C 0.80615 0.3346 0.03571 0.0
C670 C 0.81366 0.34457 0.00068 0.0
C671 C 0.80438 0.33111 0.96917 0.0
C672 C 0.82817 0.36962 0.99625 0.0
C673 C 0.81538 0.34854 0.07028 0.0
C674 C 0.81798 0.38207 0.98374 0.0
C675 C 0.83043 0.4059 0.98284 0.0
C676 C 0.85344 0.41778 0.99413 0.0
C677 C 0.86402 0.40528 0.00504 0.0
C678 C 0.85138 0.38128 0.00628 0.0
H679 H 0.8066 0.33857 0.09526 0.0
H680 H 0.83394 0.35456 0.07274 0.0
H681 H 0.81338 0.36391 0.06905 0.0
H682 H 0.80008 0.37334 0.97587 0.0
H683 H 0.82184 0.41503 0.97404 0.0
H684 H 0.59555 0.46988 0.00705 0.0
H685 H 0.63759 0.48923 0.0029 0.0
H686 H 0.63304 0.42541 0.97143 0.0
H687 H 0.59154 0.40618 0.97526 0.0
H688 H 0.66523 0.47723 0.04479 0.0
H689 H 0.67837 0.47037 0.89692 0.0
H690 H 0.65206 0.46738 0.91502 0.0
H691 H 0.65697 0.44346 0.91555 0.0
C692 C 0.60357 0.46014 -0.00143 0.0
C693 C 0.59027 0.43652 0.99153 0.0
C694 C 0.62752 0.47118 0.99629 0.0
C695 C 0.63837 0.4588 0.98632 0.0
C696 C 0.62503 0.4354 0.97838 0.0
H697 H 0.75578 0.44767 -0.00179 0.0
H698 H 0.71857 0.44548 0.99295 0.0
C699 C 0.60127 0.42439 0.98089 0.0
C700 C 0.66361 0.46936 0.98728 0.0
H701 H 0.70803 0.4727 0.93749 0.0
C702 C 0.67481 0.47689 0.02114 0.0
C703 C 0.67603 0.46891 0.95635 0.0
C704 C 0.66527 0.46231 0.91883 0.0
C705 C 0.69767 0.48227 0.02548 0.0
C706 C 0.70949 0.48014 0.99514 0.0
C707 C 0.69877 0.47407 0.96078 0.0
C708 C 0.73212 0.48192 -0.00077 0.0
C709 C 0.70862 0.48876 0.06287 0.0
C710 C 0.75197 0.50316 0.00458 0.0
C711 C 0.77329 0.50447 0.00767 0.0
C712 C 0.77501 0.48453 0.00558 0.0
C713 C 0.75499 0.46328 0.00047 0.0
C714 C 0.73376 0.46202 0.99718 0.0
H715 H 0.69653 0.48806 0.08422 0.0
H716 H 0.71507 0.47711 0.07093 0.0
H717 H 0.72351 0.50642 0.06195 0.0
H718 H 0.75099 0.5187 0.00604 0.0
H719 H 0.7884 0.52107 0.01182 0.0
H720 H 0.74045 0.52054 0.52168 0.0
H721 H 0.77496 0.51733 0.51406 0.0
H722 H 0.73269 0.44455 0.49735 0.0
H723 H 0.69826 0.44759 0.50459 0.0
H724 H 0.78709 0.48653 0.55577 0.0
H725 H 0.77697 0.47017 0.40604 0.0
H726 H 0.76356 0.48374 0.43037 0.0
H727 H 0.75135 0.45318 0.43227 0.0
C728 C 0.73856 0.50388 0.51631 0.0
C729 C 0.71666 0.4843 0.5137 0.0
C730 C 0.75824 0.50208 0.51209 0.0
C731 C 0.75628 0.48077 0.50469 0.0
C732 C 0.73449 0.4612 0.50263 0.0
H733 H 0.81927 0.40339 0.48132 0.0
H734 H 0.79715 0.42287 0.48116 0.0
C735 C 0.71486 0.46293 0.50712 0.0
C736 C 0.77685 0.47859 0.49938 0.0
H737 H 0.80166 0.45981 0.43742 0.0
C738 C 0.79069 0.48119 0.52976 0.0
C739 C 0.78148 0.47179 0.46531 0.0
C740 C 0.7677 0.46974 0.43149 0.0
C741 C 0.80802 0.47543 0.52761 0.0
C742 C 0.8117 0.46724 0.49404 0.0
C743 C 0.79879 0.46609 0.46311 0.0
C744 C 0.82615 0.45647 0.49184 0.0
C745 C 0.82119 0.47662 0.56178 0.0
C746 C 0.84997 0.46903 0.49718 0.0
C747 C 0.86281 0.45787 0.49728 0.0
C748 C 0.85193 0.43401 0.49213 0.0
C749 C 0.8282 0.42174 0.48562 0.0
C750 C 0.8155 0.43286 0.48541 0.0
H751 H 0.81436 0.48077 0.58654 0.0
H752 H 0.82064 0.46007 0.56636 0.0
H753 H 0.83939 0.49006 0.55836 0.0
H754 H 0.85853 0.48735 0.50173 0.0
H755 H 0.88107 0.46776 0.50231 0.0
H756 H 0.51682 0.23302 0.58314 0.0
H757 H 0.52001 0.27087 0.58341 0.0
H758 H 0.52441 0.27298 0.46531 0.0
H759 H 0.52061 0.23504 0.46493 0.0
H760 H 0.55498 0.30911 0.56211 0.0
H761 H 0.48105 0.29642 0.47942 0.0
H762 H 0.48351 0.2727 0.497 0.0
H763 H 0.49748 0.28657 0.45479 0.0
C764 C 0.51819 0.2415 0.55727 0.0
C765 C 0.51842 0.23111 0.52402 0.0
C766 C 0.51988 0.26304 0.55742 0.0
C767 C 0.52197 0.27461 0.52434 0.0
C768 C 0.522 0.26412 0.49111 0.0
H769 H 0.60133 0.41565 0.48152 0.0
H770 H 0.58262 0.37417 0.48763 0.0
C771 C 0.52002 0.24249 0.49093 0.0
C772 C 0.52676 0.29862 0.52458 0.0
H773 H 0.51322 0.33548 0.482 0.0
C774 C 0.54552 0.31475 0.54513 0.0
C775 C 0.51424 0.30605 0.50295 0.0
C776 C 0.4928 0.28944 0.48265 0.0
C777 C 0.55295 0.33817 0.5429 0.0
C778 C 0.54172 0.34575 0.5187 0.0
C779 C 0.52207 0.32961 0.49995 0.0
C780 C 0.55136 0.37039 0.51076 0.0
C781 C 0.57313 0.35465 0.5659 0.0
C782 C 0.5394 0.38182 0.51974 0.0
C783 C 0.55 0.40566 0.51582 0.0
C784 C 0.57267 0.41822 0.503 0.0
C785 C 0.58396 0.40646 0.49196 0.0
C786 C 0.57334 0.38278 0.49556 0.0
H787 H 0.57509 0.3461 0.59056 0.0
H788 H 0.58904 0.36127 0.54943 0.0
H789 H 0.57135 0.36943 0.57487 0.0
H790 H 0.52231 0.37245 0.5312 0.0
H791 H 0.54093 0.41432 0.52452 0.0
H792 H 0.59275 0.12754 0.49087 0.0
H793 H 0.63477 0.15015 0.48566 0.0
H794 H 0.63286 0.21141 0.51304 0.0
H795 H 0.59146 0.1894 0.51773 0.0
H796 H 0.65896 0.21568 0.45076 0.0
H797 H 0.68203 0.1797 0.57019 0.0
H798 H 0.66278 0.15996 0.53649 0.0
H799 H 0.65369 0.17579 0.56454 0.0
C800 C 0.60137 0.14582 0.49584 0.0
C801 C 0.58876 0.15667 0.50459 0.0
C802 C 0.62532 0.15866 0.49302 0.0
C803 C 0.63687 0.18242 0.49915 0.0
C804 C 0.62427 0.19312 0.50809 0.0
H805 H 0.76648 0.29055 0.56082 0.0
H806 H 0.72836 0.2569 0.55553 0.0
C807 C 0.60055 0.18044 0.51077 0.0
C808 C 0.66204 0.19678 0.49576 0.0
H809 H 0.71205 0.21132 0.5402 0.0
C810 C 0.67068 0.21454 0.46987 0.0
C811 C 0.67714 0.19526 0.52098 0.0
C812 C 0.66857 0.17677 0.54984 0.0
C813 C 0.69382 0.2316 0.46972 0.0
C814 C 0.70889 0.23047 0.49557 0.0
C815 C 0.70046 0.21207 0.52037 0.0
C816 C 0.73285 0.24938 0.49948 0.0
C817 C 0.70156 0.25142 0.44339 0.0
C818 C 0.74822 0.25602 0.47001 0.0
C819 C 0.76985 0.27559 0.47262 0.0
C820 C 0.77669 0.28869 0.50504 0.0
C821 C 0.76163 0.28124 0.53516 0.0
C822 C 0.73992 0.26182 0.53235 0.0
H823 H 0.68687 0.25224 0.43124 0.0
H824 H 0.71289 0.26795 0.45731 0.0
H825 H 0.71133 0.2494 0.42065 0.0
H826 H 0.74327 0.24642 0.44461 0.0
H827 H 0.78087 0.28082 0.44876 0.0
H828 H 0.19054 0.6219 0.40447 0.0
H829 H 0.1951 0.58803 0.40325 0.0
H830 H 0.19391 0.58844 0.28504 0.0
H831 H 0.18896 0.62199 0.28609 0.0
H832 H 0.16988 0.54452 0.31369 0.0
H833 H 0.25633 0.59416 0.37644 0.0
H834 H 0.23358 0.59314 0.40343 0.0
H835 H 0.24072 0.60762 0.35991 0.0
C836 C 0.19118 0.61469 0.37826 0.0
C837 C 0.18963 0.62469 0.34537 0.0
C838 C 0.19375 0.59536 0.37759 0.0
C839 C 0.19522 0.58597 0.34404 0.0
C840 C 0.19281 0.59541 0.31123 0.0
H841 H 0.26781 0.51684 0.29451 0.0
H842 H 0.25033 0.54087 0.29754 0.0
C843 C 0.19 0.61458 0.31187 0.0
C844 C 0.20082 0.56734 0.34282 0.0
H845 H 0.24305 0.55538 0.36369 0.0
C846 C 0.1858 0.54678 0.32479 0.0
C847 C 0.22172 0.57047 0.35702 0.0
C848 C 0.23914 0.59259 0.375 0.0
C849 C 0.19135 0.52941 0.32004 0.0
C850 C 0.21228 0.53265 0.33416 0.0
C851 C 0.22697 0.55295 0.35295 0.0
C852 C 0.22042 0.51621 0.32761 0.0
C853 C 0.17524 0.50816 0.29884 0.0
C854 C 0.20898 0.49398 0.34242 0.0
C855 C 0.21886 0.47999 0.34028 0.0
C856 C 0.24045 0.48829 0.32387 0.0
C857 C 0.25123 0.51008 0.30756 0.0
C858 C 0.24128 0.52383 0.30929 0.0
H859 H 0.16212 0.51028 0.28371 0.0
H860 H 0.18486 0.50366 0.27898 0.0
H861 H 0.16628 0.49361 0.31816 0.0
H862 H 0.19302 0.48789 0.35715 0.0
H863 H 0.21032 0.46332 0.35332 0.0
H864 H 0.5454 0.74894 0.31615 0.0
H865 H 0.52299 0.70708 0.30873 0.0
H866 H 0.46067 0.70893 0.32625 0.0
H867 H 0.48257 0.75025 0.33325 0.0
H868 H 0.49282 0.67453 0.35993 0.0
H869 H 0.44711 0.67125 0.23241 0.0
H870 H 0.47266 0.69683 0.24723 0.0
H871 H 0.44512 0.68972 0.26576 0.0
C872 C 0.52691 0.74039 0.31803 0.0
C873 C 0.51576 0.75292 0.32514 0.0
C874 C 0.51417 0.71654 0.31384 0.0
C875 C 0.49018 0.70503 0.31629 0.0
C876 C 0.47913 0.71754 0.32339 0.0
H877 H 0.38462 0.57654 0.38732 0.0
H878 H 0.41829 0.61443 0.38016 0.0
C879 C 0.49173 0.7412 0.32764 0.0
C880 C 0.4763 0.67981 0.31344 0.0
H881 H 0.42837 0.63795 0.27172 0.0
C882 C 0.47902 0.66639 0.34017 0.0
C883 C 0.4586 0.66919 0.28722 0.0
C884 C 0.45585 0.68249 0.2563 0.0
C885 C 0.4634 0.64282 0.343 0.0
C886 C 0.44439 0.63264 0.31897 0.0
C887 C 0.44271 0.64578 0.29057 0.0
C888 C 0.42515 0.60894 0.32418 0.0
C889 C 0.46723 0.62919 0.37211 0.0
C890 C 0.41743 0.59342 0.29485 0.0
C891 C 0.39779 0.57195 0.29855 0.0
C892 C 0.38547 0.56552 0.33173 0.0
C893 C 0.39351 0.58098 0.36127 0.0
C894 C 0.41304 0.60253 0.35743 0.0
H895 H 0.48574 0.63688 0.3786 0.0
H896 H 0.45835 0.62933 0.39764 0.0
H897 H 0.46047 0.61114 0.36351 0.0
H898 H 0.42633 0.59811 0.26879 0.0
H899 H 0.39192 0.56067 0.27499 0.0
H900 H 0.42224 0.78435 0.36311 0.0
H901 H 0.38489 0.78186 0.36043 0.0
H902 H 0.41762 0.85536 0.35295 0.0
H903 H 0.45528 0.85822 0.35687 0.0
H904 H 0.3683 0.81016 0.40948 0.0
H905 H 0.37284 0.82219 0.25777 0.0
H906 H 0.38856 0.81047 0.28034 0.0
H907 H 0.39733 0.84013 0.28604 0.0
C908 C 0.4216 0.80006 0.36173 0.0
C909 C 0.44183 0.82149 0.36019 0.0
C910 C 0.40023 0.79858 0.35996 0.0
C911 C 0.39863 0.81842 0.35636 0.0
C912 C 0.41863 0.83988 0.35557 0.0
H913 H 0.25967 0.80202 0.35253 0.0
H914 H 0.30174 0.82234 0.35715 0.0
C915 C 0.44008 0.84142 0.35757 0.0
C916 C 0.37587 0.81626 0.35194 0.0
H917 H 0.33732 0.8104 0.28617 0.0
C918 C 0.36162 0.81076 0.38271 0.0
C919 C 0.36736 0.81698 0.31689 0.0
C920 C 0.38218 0.82273 0.28317 0.0
C921 C 0.3386 0.80489 0.37905 0.0
C922 C 0.32976 0.80446 0.34375 0.0
C923 C 0.3443 0.81098 0.31319 0.0
C924 C 0.30486 0.79373 0.33759 0.0
C925 C 0.32343 0.79775 0.41252 0.0
C926 C 0.29299 0.77124 0.32433 0.0
C927 C 0.26919 0.75964 0.32195 0.0
C928 C 0.25682 0.7704 0.33248 0.0
C929 C 0.26881 0.79336 0.34413 0.0
C930 C 0.29275 0.80493 0.3469 0.0
H931 H 0.33287 0.79857 0.43796 0.0
H932 H 0.31599 0.80908 0.41583 0.0
H933 H 0.30899 0.77998 0.40901 0.0
H934 H 0.30211 0.76237 0.31703 0.0
H935 H 0.26045 0.74202 0.31265 0.0
H936 H 0.54784 0.80326 0.86344 0.0
H937 H 0.52376 0.8211 0.86807 0.0
H938 H 0.46909 0.76319 0.81221 0.0
H939 H 0.49268 0.74526 0.80797 0.0
H940 H 0.49782 0.83184 0.81455 0.0
H941 H 0.44272 0.76489 0.91445 0.0
H942 H 0.47101 0.77044 0.90228 0.0
H943 H 0.44701 0.7533 0.87286 0.0
C944 C 0.53085 0.79461 0.85155 0.0
C945 C 0.52198 0.77275 0.83582 0.0
C946 C 0.51713 0.80476 0.85429 0.0
C947 C 0.49452 0.79317 0.84118 0.0
C948 C 0.48634 0.77216 0.82315 0.0
H949 H 0.38916 0.82237 0.7897 0.0
H950 H 0.42377 0.81937 0.79171 0.0
C951 C 0.49986 0.76197 0.82069 0.0
C952 C 0.47867 0.80191 0.84814 0.0
H953 H 0.42668 0.78579 0.88646 0.0
C954 C 0.48242 0.82204 0.83072 0.0
C955 C 0.45889 0.78935 0.86995 0.0
C956 C 0.45474 0.76842 0.89128 0.0
C957 C 0.4661 0.82918 0.83278 0.0
C958 C 0.4454 0.81551 0.8521 0.0
C959 C 0.4424 0.79616 0.87129 0.0
C960 C 0.42592 0.81989 0.85098 0.0
C961 C 0.47116 0.85115 0.81401 0.0
C962 C 0.41526 0.82069 0.8836 0.0
C963 C 0.3952 0.82195 0.88249 0.0
C964 C 0.3855 0.82254 0.84871 0.0
C965 C 0.39645 0.82226 0.81611 0.0
C966 C 0.41635 0.82074 0.81724 0.0
H967 H 0.4899 0.86326 0.81246 0.0
H968 H 0.46451 0.8473 0.78554 0.0
H969 H 0.46295 0.85968 0.82847 0.0
H970 H 0.42224 0.81989 0.90996 0.0
H971 H 0.38721 0.82234 0.90802 0.0
H972 H 0.18726 0.56827 0.90427 0.0
H973 H 0.18979 0.60581 0.90547 0.0
H974 H 0.19203 0.60793 0.78724 0.0
H975 H 0.18884 0.57021 0.78596 0.0
H976 H 0.22409 0.64416 0.88337 0.0
H977 H 0.1485 0.63083 0.80471 0.0
H978 H 0.15157 0.60725 0.82125 0.0
H979 H 0.16483 0.62139 0.77882 0.0
C980 C 0.18801 0.57668 0.87857 0.0
C981 C 0.18785 0.56637 0.84502 0.0
C982 C 0.18933 0.59804 0.87926 0.0
C983 C 0.19066 0.60955 0.84643 0.0
C984 C 0.19023 0.59911 0.8129 0.0
H985 H 0.26768 0.75093 0.80505 0.0
H986 H 0.24926 0.7094 0.80961 0.0
C987 C 0.18861 0.57763 0.81219 0.0
C988 C 0.1952 0.63349 0.84723 0.0
H989 H 0.18022 0.67007 0.80746 0.0
C990 C 0.21418 0.64968 0.86731 0.0
C991 C 0.18212 0.64078 0.82678 0.0
C992 C 0.16047 0.62406 0.80703 0.0
C993 C 0.22121 0.67303 0.86581 0.0
C994 C 0.20934 0.68051 0.84284 0.0
C995 C 0.18953 0.66429 0.82451 0.0
C996 C 0.21854 0.70517 0.83561 0.0
C997 C 0.24168 0.68959 0.88822 0.0
C998 C 0.20674 0.7164 0.8468 0.0
C999 C 0.21718 0.74029 0.84379 0.0
C1000 C 0.23953 0.75309 0.82974 0.0
C1001 C 0.25058 0.74154 0.81649 0.0
C1002 C 0.24011 0.71783 0.81916 0.0
H1003 H 0.24436 0.68098 0.91212 0.0
H1004 H 0.25728 0.69669 0.87089 0.0
H1005 H 0.2397 0.70405 0.89831 0.0
H1006 H 0.18997 0.70683 0.85929 0.0
H1007 H 0.20831 0.7488 0.8542 0.0
H1008 H 0.25857 0.51859 0.79553 0.0
H1009 H 0.30009 0.54261 0.79709 0.0
H1010 H 0.30513 0.4904 0.85794 0.0
H1011 H 0.26322 0.46581 0.85548 0.0
H1012 H 0.32244 0.55805 0.86207 0.0
H1013 H 0.35783 0.51193 0.78378 0.0
H1014 H 0.32838 0.50507 0.77958 0.0
H1015 H 0.33743 0.49571 0.81899 0.0
C1016 C 0.26854 0.512 0.80857 0.0
C1017 C 0.25774 0.49045 0.82561 0.0
C1018 C 0.29226 0.52574 0.80943 0.0
C1019 C 0.30571 0.51834 0.82767 0.0
C1020 C 0.2951 0.49631 0.84325 0.0
H1021 H 0.44075 0.62437 0.90352 0.0
H1022 H 0.40253 0.59032 0.90187 0.0
C1023 C 0.2712 0.48232 0.84192 0.0
C1024 C 0.33033 0.5349 0.8335 0.0
H1025 H 0.38451 0.54645 0.81304 0.0
C1026 C 0.33603 0.55547 0.8515 0.0
C1027 C 0.34795 0.53147 0.81957 0.0
C1028 C 0.34271 0.50995 0.79913 0.0
C1029 C 0.3588 0.57302 0.85507 0.0
C1030 C 0.37651 0.56965 0.84126 0.0
C1031 C 0.37089 0.54888 0.82387 0.0
C1032 C 0.40077 0.58816 0.84265 0.0
C1033 C 0.36357 0.59539 0.8722 0.0
C1034 C 0.41284 0.59756 0.80997 0.0
C1035 C 0.43475 0.61685 0.81087 0.0
C1036 C 0.44487 0.62711 0.84448 0.0
C1037 C 0.43315 0.61705 0.87722 0.0
C1038 C 0.41137 0.59762 0.87632 0.0
H1039 H 0.34801 0.59708 0.87305 0.0
H1040 H 0.36954 0.59621 0.9008 0.0
H1041 H 0.37713 0.61021 0.85689 0.0
H1042 H 0.40497 0.59051 0.78371 0.0
H1043 H 0.44337 0.62429 0.78522 0.0
H1044 H 0.83734 0.9469 0.62323 0.0
H1045 H 0.83925 0.91184 0.61842 0.0
H1046 H 0.87031 0.92433 0.72554 0.0
H1047 H 0.86707 0.9586 0.73167 0.0
H1048 H 0.87605 0.90885 0.61552 0.0
H1049 H 0.82575 0.85738 0.73385 0.0
H1050 H 0.8246 0.88221 0.71824 0.0
H1051 H 0.84712 0.88538 0.74861 0.0
C1052 C 0.84395 0.94188 0.64631 0.0
C1053 C 0.852 0.95566 0.67793 0.0
C1054 C 0.84517 0.92186 0.64336 0.0
C1055 C 0.85457 0.91518 0.67183 0.0
C1056 C 0.8624 0.92873 0.70358 0.0
H1057 H 0.93783 0.85682 0.66749 0.0
H1058 H 0.91817 0.87861 0.66338 0.0
C1059 C 0.86095 0.94862 0.70675 0.0
C1060 C 0.85845 0.89551 0.66683 0.0
H1061 H 0.85469 0.849 0.71077 0.0
C1062 C 0.87092 0.8955 0.63601 0.0
C1063 C 0.85137 0.87773 0.69304 0.0
C1064 C 0.83624 0.87553 0.72504 0.0
C1065 C 0.87791 0.87923 0.63206 0.0
C1066 C 0.87281 0.86289 0.66011 0.0
C1067 C 0.8589 0.86178 0.68955 0.0
C1068 C 0.88415 0.84893 0.66155 0.0
C1069 C 0.89131 0.88013 0.59835 0.0
C1070 C 0.87149 0.82489 0.66283 0.0
C1071 C 0.88277 0.8122 0.66542 0.0
C1072 C 0.90683 0.82346 0.66716 0.0
C1073 C 0.9193 0.84753 0.666 0.0
C1074 C 0.90809 0.86008 0.6634 0.0
H1075 H 0.88685 0.88752 0.57466 0.0
H1076 H 0.90988 0.89129 0.60386 0.0
H1077 H 0.88815 0.86284 0.5907 0.0
H1078 H 0.85296 0.81599 0.66182 0.0
H1079 H 0.8727 0.79368 0.66648 0.0
H1080 H 0.21239 0.08017 0.69294 0.0
H1081 H 0.18843 0.03829 0.69765 0.0
H1082 H 0.13472 0.04105 0.63762 0.0
H1083 H 0.15815 0.08258 0.63368 0.0
H1084 H 0.12097 0.02 0.70492 0.0
H1085 H 0.16635 0.98434 0.62511 0.0
H1086 H 0.183 0.00579 0.65876 0.0
H1087 H 0.17232 0.01344 0.61938 0.0
C1088 C 0.19569 0.0717 0.68 0.0
C1089 C 0.18699 0.08455 0.66322 0.0
C1090 C 0.18206 0.04782 0.68265 0.0
C1091 C 0.1598 0.0366 0.66798 0.0
C1092 C 0.15179 0.04938 0.64926 0.0
H1093 H 0.05443 0.89971 0.62758 0.0
H1094 H 0.08825 0.938 0.62664 0.0
C1095 C 0.1652 0.0731 0.64702 0.0
C1096 C 0.14369 0.01205 0.67516 0.0
H1097 H 0.13218 0.95784 0.65516 0.0
C1098 C 0.12348 0.00638 0.69429 0.0
C1099 C 0.14707 0.99442 0.66117 0.0
C1100 C 0.16826 0.99966 0.63971 0.0
C1101 C 0.10611 0.98358 0.69868 0.0
C1102 C 0.10934 0.96587 0.68449 0.0
C1103 C 0.12986 0.97148 0.66624 0.0
C1104 C 0.09076 0.94164 0.68567 0.0
C1105 C 0.08402 0.9788 0.71688 0.0
C1106 C 0.08133 0.93076 0.71919 0.0
C1107 C 0.06184 0.90899 0.71979 0.0
C1108 C 0.05172 0.8976 0.68686 0.0
C1109 C 0.06193 0.90805 0.65338 0.0
C1110 C 0.08125 0.9299 0.65281 0.0
H1111 H 0.08238 0.99439 0.71847 0.0
H1112 H 0.06897 0.96535 0.70185 0.0
H1113 H 0.08357 0.97267 0.74526 0.0
H1114 H 0.08871 0.93935 0.74487 0.0
H1115 H 0.05453 0.90115 0.74597 0.0
H1116 H 0.92824 0.13474 0.66927 0.0
H1117 H 0.97023 0.15408 0.66436 0.0
H1118 H 0.96573 0.08945 0.63908 0.0
H1119 H 0.92425 0.0702 0.64372 0.0
H1120 H 0.9984 0.14342 0.70805 0.0
H1121 H 0.01004 0.13225 0.56107 0.0
H1122 H 0.98393 0.12982 0.57903 0.0
H1123 H 0.98887 0.10596 0.58174 0.0
C1124 C 0.93625 0.12479 0.66203 0.0
C1125 C 0.92297 0.10096 0.65694 0.0
C1126 C 0.96017 0.13583 0.6593 0.0
C1127 C 0.97101 0.12322 0.6508 0.0
C1128 C 0.95769 0.09958 0.64487 0.0
H1129 H 0.08911 0.11339 0.66327 0.0
H1130 H 0.05179 0.11083 0.65717 0.0
C1131 C 0.93396 0.08857 0.64784 0.0
C1132 C 0.99625 0.13392 0.65123 0.0
H1133 H 0.04026 0.13615 0.60178 0.0
C1134 C 0.00777 0.14247 0.68459 0.0
C1135 C 0.00837 0.13266 0.62054 0.0
C1136 C 0.9972 0.12489 0.58348 0.0
C1137 C 0.03071 0.14809 0.68881 0.0
C1138 C 0.04228 0.14521 0.6588 0.0
C1139 C 0.03121 0.13811 0.62482 0.0
C1140 C 0.06502 0.14725 0.66302 0.0
C1141 C 0.04198 0.15563 0.72585 0.0
C1142 C 0.08474 0.1686 0.66833 0.0
C1143 C 0.10612 0.17012 0.67195 0.0
C1144 C 0.10803 0.15027 0.67039 0.0
C1145 C 0.08816 0.12893 0.66515 0.0
C1146 C 0.06687 0.12746 0.66137 0.0
H1147 H 0.02989 0.15487 0.74724 0.0
H1148 H 0.04914 0.14468 0.73451 0.0
H1149 H 0.0564 0.17351 0.72401 0.0
H1150 H 0.08361 0.18406 0.66944 0.0
H1151 H 0.12112 0.18678 0.67617 0.0
H1152 H 0.21377 0.13316 0.15535 0.0
H1153 H 0.19074 0.15219 0.15153 0.0
H1154 H 0.12962 0.08779 0.17386 0.0
H1155 H 0.15204 0.0688 0.17713 0.0
H1156 H 0.12555 0.11136 0.1141 0.0
H1157 H 0.15991 0.16657 0.23807 0.0
H1158 H 0.18006 0.16853 0.20385 0.0
H1159 H 0.16439 0.14267 0.2299 0.0
C1160 C 0.19543 0.12313 0.15943 0.0
C1161 C 0.18476 0.09947 0.16648 0.0
C1162 C 0.18234 0.13402 0.15741 0.0
C1163 C 0.1585 0.12138 0.16263 0.0
C1164 C 0.14797 0.09784 0.16965 0.0
H1165 H 0.04892 0.13927 0.22999 0.0
H1166 H 0.0827 0.13512 0.22296 0.0
C1167 C 0.16089 0.08702 0.17154 0.0
C1168 C 0.14392 0.13201 0.1606 0.0
H1169 H 0.12822 0.16531 0.20899 0.0
C1170 C 0.12633 0.12348 0.13442 0.0
C1171 C 0.14495 0.14764 0.18739 0.0
C1172 C 0.16322 0.15688 0.21661 0.0
C1173 C 0.10896 0.12914 0.13546 0.0
C1174 C 0.1096 0.14431 0.16287 0.0
C1175 C 0.12783 0.15374 0.188 0.0
C1176 C 0.09041 0.14886 0.16787 0.0
C1177 C 0.08936 0.11766 0.10862 0.0
C1178 C 0.0838 0.15837 0.13952 0.0
C1179 C 0.06418 0.16026 0.1431 0.0
C1180 C 0.05098 0.15304 0.17542 0.0
C1181 C 0.05832 0.14451 0.20442 0.0
C1182 C 0.07781 0.1424 0.20063 0.0
H1183 H 0.08889 0.10267 0.09505 0.0
H1184 H 0.07268 0.1118 0.12251 0.0
H1185 H 0.09135 0.13007 0.08695 0.0
H1186 H 0.09352 0.16385 0.11426 0.0
H1187 H 0.05902 0.16674 0.12003 0.0
H1188 H 0.82091 0.88686 0.19424 0.0
H1189 H 0.8235 0.9244 0.18815 0.0
H1190 H 0.89536 0.95521 0.1627 0.0
H1191 H 0.89294 0.91792 0.16852 0.0
H1192 H 0.85745 0.96836 0.22796 0.0
H1193 H 0.86376 0.97206 0.07612 0.0
H1194 H 0.85112 0.94544 0.10144 0.0
H1195 H 0.88171 0.96315 0.09879 0.0
C1196 C 0.83724 0.90166 0.1873 0.0
C1197 C 0.85674 0.89948 0.18184 0.0
C1198 C 0.83868 0.92303 0.18394 0.0
C1199 C 0.85955 0.9424 0.17458 0.0
C1200 C 0.87906 0.94034 0.16961 0.0
H1201 H 0.93542 0.0823 0.14609 0.0
H1202 H 0.91579 0.04066 0.14605 0.0
C1203 C 0.8777 0.91909 0.17326 0.0
C1204 C 0.86133 0.96502 0.17015 0.0
H1205 H 0.87579 0.00748 0.1072 0.0
C1206 C 0.86093 0.97682 0.20153 0.0
C1207 C 0.86574 0.97581 0.13556 0.0
C1208 C 0.86544 0.96344 0.10093 0.0
C1209 C 0.86655 0.99987 0.19951 0.0
C1210 C 0.87234 0.0111 0.16513 0.0
C1211 C 0.8713 0.99879 0.13349 0.0
C1212 C 0.88297 0.03627 0.16226 0.0
C1213 C 0.86785 0.0125 0.23438 0.0
C1214 C 0.87082 0.04762 0.17052 0.0
C1215 C 0.88205 0.07162 0.17047 0.0
C1216 C 0.90557 0.08447 0.16237 0.0
C1217 C 0.91734 0.07293 0.15275 0.0
C1218 C 0.90614 0.04911 0.15259 0.0
H1219 H 0.86525 1.00192 0.25921 0.0
H1220 H 0.88474 0.02843 0.2365 0.0
H1221 H 0.85445 0.01747 0.23396 0.0
H1222 H 0.85283 0.03794 0.17766 0.0
H1223 H 0.87257 0.08008 0.17799 0.0
H1224 H 0.10823 0.95415 0.12295 0.0
H1225 H 0.06956 0.92096 0.1215 0.0
H1226 H 0.06873 0.91834 0.23967 0.0
H1227 H 0.10734 0.95189 0.24131 0.0
H1228 H 0.04922 0.87657 0.14771 0.0
H1229 H 0.01416 0.9261 0.21647 0.0
H1230 H 0.04311 0.93944 0.19945 0.0
H1231 H 0.03578 0.92406 0.24216 0.0
C1232 C 0.09993 0.94631 0.14861 0.0
C1233 C 0.11067 0.95573 0.18227 0.0
C1234 C 0.07785 0.92735 0.14774 0.0
C1235 C 0.06615 0.91742 0.18048 0.0
C1236 C 0.07728 0.92606 0.21411 0.0
H1237 H 0.92795 0.79593 0.188 0.0
H1238 H 0.96983 0.8201 0.19097 0.0
C1239 C 0.09929 0.9452 0.21502 0.0
C1240 C 0.04181 0.89913 0.17916 0.0
H1241 H 0.98808 0.88771 0.20212 0.0
C1242 C 0.03581 0.87888 0.15976 0.0
C1243 C 0.02438 0.90237 0.19458 0.0
C1244 C 0.02958 0.92422 0.21406 0.0
C1245 C 0.01277 0.86193 0.15487 0.0
C1246 C 0.99541 0.86525 0.17027 0.0
C1247 C 1.00147 0.88523 0.19038 0.0
C1248 C 0.97072 0.84918 0.16408 0.0
C1249 C 0.00714 0.84106 0.13218 0.0
C1250 C 0.95745 0.85739 0.14755 0.0
C1251 C 0.9337 0.84385 0.14634 0.0
C1252 C 0.92273 0.82171 0.16138 0.0
C1253 C 0.93604 0.81289 0.17596 0.0
C1254 C 0.95993 0.82665 0.1776 0.0
H1255 H 0.02212 0.84336 0.11602 0.0
H1256 H 1.00175 0.82613 0.15062 0.0
H1257 H 0.99278 0.83704 0.11311 0.0
H1258 H 0.96544 0.87469 0.13682 0.0
H1259 H 0.92386 0.85102 0.13471 0.0
H1260 H 0.53346 0.1616 0.39827 0.0
H1261 H 0.54766 0.16587 0.3353 0.0
H1262 H 0.51682 0.09254 0.32624 0.0
H1263 H 0.50268 0.08808 0.38902 0.0
H1264 H 0.57826 0.14875 0.3174 0.0
H1265 H 0.50189 0.11256 0.22705 0.0
H1266 H 0.50197 0.12302 0.2727 0.0
H1267 H 0.49897 0.09521 0.26634 0.0
C1268 C 0.52905 0.14634 0.38245 0.0
C1269 C 0.51706 0.12449 0.39862 0.0
C1270 C 0.53728 0.14884 0.34659 0.0
C1271 C 0.53323 0.12952 0.32623 0.0
C1272 C 0.51988 0.10763 0.3414 0.0
H1273 H 0.57483 0.0891 0.13419 0.0
H1274 H 0.56001 0.09301 0.19311 0.0
C1275 C 0.51185 0.10512 0.3773 0.0
C1276 C 0.54523 0.13212 0.29116 0.0
H1277 H 0.53603 0.1158 0.20153 0.0
C1278 C 0.56914 0.14191 0.29184 0.0
C1279 C 0.53318 0.12305 0.25812 0.0
C1280 C 0.5076 0.11304 0.25577 0.0
C1281 C 0.58125 0.14183 0.26061 0.0
C1282 C 0.5691 0.13208 0.2278 0.0
C1283 C 0.54528 0.1231 0.22684 0.0
C1284 C 0.58043 0.13 0.19446 0.0
C1285 C 0.60673 0.15114 0.26349 0.0
C1286 C 0.59737 0.14949 0.17624 0.0
C1287 C 0.60614 0.14727 0.14269 0.0
C1288 C 0.5978 0.12556 0.12669 0.0
C1289 C 0.58157 0.10606 0.14582 0.0
C1290 C 0.573 0.10827 0.17939 0.0
H1291 H 0.61248 0.15301 0.29246 0.0
H1292 H 0.61178 0.13984 0.24904 0.0
H1293 H 0.6159 0.1683 0.25045 0.0
H1294 H 0.60308 0.16644 0.18712 0.0
H1295 H 0.61844 0.16262 0.12836 0.0
H1296 H 0.92454 0.41949 0.38425 0.0
H1297 H 0.92149 0.43199 0.32271 0.0
H1298 H 0.84824 0.38744 0.32543 0.0
H1299 H 0.85113 0.37445 0.38681 0.0
H1300 H 0.86844 0.39149 0.25497 0.0
H1301 H 0.89541 0.47585 0.31924 0.0
H1302 H 0.91526 0.46579 0.32627 0.0
H1303 H 0.88701 0.45024 0.34575 0.0
C1304 C 0.90785 0.41182 0.37133 0.0
C1305 C 0.88804 0.39627 0.39057 0.0
C1306 C 0.90613 0.41911 0.33631 0.0
C1307 C 0.88457 0.41115 0.32019 0.0
C1308 C 0.86499 0.39395 0.33772 0.0
H1309 H 0.84745 0.45902 0.12156 0.0
H1310 H 0.84466 0.44137 0.18163 0.0
C1311 C 0.86671 0.38647 0.3727 0.0
C1312 C 0.88237 0.42241 0.28694 0.0
H1313 H 0.89351 0.47442 0.25407 0.0
C1314 C 0.87369 0.40955 0.25476 0.0
C1315 C 0.88892 0.44592 0.28708 0.0
C1316 C 0.89696 0.46024 0.32151 0.0
C1317 C 0.87244 0.41991 0.22212 0.0
C1318 C 0.87986 0.44359 0.22201 0.0
C1319 C 0.88788 0.45627 0.25442 0.0
C1320 C 0.88124 0.45587 0.18781 0.0
C1321 C 0.864 0.40574 0.18762 0.0
C1322 C 0.90275 0.47049 0.17243 0.0
C1323 C 0.90441 0.48054 0.13835 0.0
C1324 C 0.88456 0.47628 0.11925 0.0
C1325 C 0.86304 0.46269 0.13575 0.0
C1326 C 0.86139 0.45245 0.16982 0.0
H1327 H 0.86137 0.38823 0.19141 0.0
H1328 H 0.84747 0.40422 0.17924 0.0
H1329 H 0.87639 0.41428 0.16493 0.0
H1330 H 0.91824 0.47341 0.18615 0.0
H1331 H 0.92123 0.49099 0.12637 0.0
H1332 H 0.63602 0.47824 0.39557 0.0
H1333 H 0.6268 0.46527 0.33197 0.0
H1334 H 0.58011 0.4914 0.3269 0.0
H1335 H 0.58905 0.50429 0.3904 0.0
H1336 H 0.5791 0.43247 0.31416 0.0
H1337 H 0.6155 0.51049 0.22728 0.0
H1338 H 0.62652 0.51015 0.27232 0.0
H1339 H 0.60071 0.51152 0.2676 0.0
C1340 C 0.62435 0.48189 0.38055 0.0
C1341 C 0.61313 0.49216 0.39803 0.0
C1342 C 0.61904 0.47437 0.34431 0.0
C1343 C 0.60283 0.47743 0.32488 0.0
C1344 C 0.59287 0.48914 0.34137 0.0
H1345 H 0.52178 0.43497 0.13157 0.0
H1346 H 0.54036 0.45018 0.19044 0.0
C1347 C 0.59796 0.49644 0.37768 0.0
C1348 C 0.59396 0.46587 0.28936 0.0
H1349 H 0.58649 0.47584 0.20029 0.0
C1350 C 0.58096 0.44186 0.28903 0.0
C1351 C 0.59637 0.47827 0.25693 0.0
C1352 C 0.61069 0.50404 0.25579 0.0
C1353 C 0.56932 0.4299 0.25736 0.0
C1354 C 0.57123 0.44235 0.22509 0.0
C1355 C 0.58495 0.46634 0.22516 0.0
C1356 C 0.55833 0.43108 0.19133 0.0
C1357 C 0.55425 0.40421 0.25927 0.0
C1358 C 0.5618 0.41481 0.17277 0.0
C1359 C 0.55088 0.40579 0.13928 0.0
C1360 C 0.53667 0.41324 0.12364 0.0
C1361 C 0.53266 0.42893 0.14293 0.0
C1362 C 0.54335 0.43772 0.17647 0.0
H1363 H 0.55026 0.398 0.28802 0.0
H1364 H 0.5379 0.39849 0.2444 0.0
H1365 H 0.56323 0.39603 0.24622 0.0
H1366 H 0.5736 0.40975 0.18344 0.0
H1367 H 0.55451 0.39393 0.12478 0.0
H1368 H 0.85056 0.47573 0.88725 0.0
H1369 H 0.84765 0.45986 0.82587 0.0
H1370 H 0.9209 0.48847 0.82316 0.0
H1371 H 0.92396 0.504 0.88471 0.0
H1372 H 0.86773 0.47618 0.75564 0.0
H1373 H 0.89497 0.41867 0.81865 0.0
H1374 H 0.88659 0.43575 0.84555 0.0
H1375 H 0.91482 0.44854 0.82595 0.0
C1376 C 0.86613 0.47924 0.87316 0.0
C1377 C 0.88746 0.49077 0.89102 0.0
C1378 C 0.86441 0.47006 0.83817 0.0
C1379 C 0.88398 0.47243 0.82062 0.0
C1380 C 0.90554 0.48598 0.83678 0.0
H1381 H 0.92105 0.43132 0.6253 0.0
H1382 H 0.91788 0.44553 0.68531 0.0
C1383 C 0.90727 0.49499 0.8718 0.0
C1384 C 0.88178 0.45912 0.78718 0.0
H1385 H 0.89318 0.41861 0.75345 0.0
C1386 C 0.87306 0.46342 0.75515 0.0
C1387 C 0.88843 0.44224 0.78696 0.0
C1388 C 0.89651 0.43582 0.8212 0.0
C1389 C 0.87185 0.45201 0.72232 0.0
C1390 C 0.87939 0.43586 0.72184 0.0
C1391 C 0.88745 0.43105 0.75409 0.0
C1392 C 0.88093 0.42528 0.6874 0.0
C1393 C 0.86335 0.45785 0.688 0.0
C1394 C 0.86119 0.40856 0.66954 0.0
C1395 C 0.86294 0.40018 0.63533 0.0
C1396 C 0.88447 0.40862 0.61857 0.0
C1397 C 0.90424 0.42456 0.63748 0.0
C1398 C 0.90247 0.43273 0.6717 0.0
H1399 H 0.86028 0.47242 0.6922 0.0
H1400 H 0.87593 0.46222 0.66545 0.0
H1401 H 0.84705 0.44271 0.67916 0.0
H1402 H 0.84444 0.4025 0.68159 0.0
H1403 H 0.84742 0.388 0.62127 0.0
H1404 H 0.57618 0.49202 0.63214 0.0
H1405 H 0.56099 0.47489 0.69192 0.0
H1406 H 0.60187 0.44206 0.69005 0.0
H1407 H 0.61732 0.45927 0.62993 0.0
H1408 H 0.55206 0.41236 0.70282 0.0
H1409 H 0.59273 0.48823 0.79447 0.0
H1410 H 0.58048 0.49212 0.75323 0.0
H1411 H 0.60449 0.48754 0.75029 0.0
C1412 C 0.58234 0.48156 0.64476 0.0
C1413 C 0.59797 0.47701 0.62641 0.0
C1414 C 0.57364 0.4718 0.6789 0.0
C1415 C 0.58037 0.45729 0.69529 0.0
C1416 C 0.59656 0.4533 0.67774 0.0
H1417 H 0.52911 0.37526 0.8933 0.0
H1418 H 0.54388 0.38748 0.83131 0.0
C1419 C 0.60548 0.46326 0.64361 0.0
C1420 C 0.56919 0.44523 0.72956 0.0
H1421 H 0.56098 0.45462 0.81855 0.0
C1422 C 0.55413 0.42148 0.72832 0.0
C1423 C 0.57192 0.45728 0.76251 0.0
C1424 C 0.58842 0.48268 0.76548 0.0
C1425 C 0.54105 0.40954 0.75906 0.0
C1426 C 0.54344 0.4217 0.79186 0.0
C1427 C 0.55895 0.44537 0.79321 0.0
C1428 C 0.53038 0.41048 0.82554 0.0
C1429 C 0.52428 0.38422 0.75584 0.0
C1430 C 0.51723 0.41875 0.84238 0.0
C1431 C 0.50895 0.41196 0.8779 0.0
C1432 C 0.51369 0.39676 0.8972 0.0
C1433 C 0.52502 0.38686 0.87904 0.0
C1434 C 0.5335 0.39384 0.84355 0.0
H1435 H 0.52004 0.37882 0.72677 0.0
H1436 H 0.53197 0.37453 0.76801 0.0
H1437 H 0.50817 0.37949 0.77083 0.0
H1438 H 0.51455 0.43154 0.82885 0.0
H1439 H 0.50021 0.41983 0.89114 0.0
H1440 H 0.5892 0.08362 0.89334 0.0
H1441 H 0.57653 0.08482 0.83111 0.0
H1442 H 0.61616 0.15864 0.83256 0.0
H1443 H 0.62943 0.15754 0.89442 0.0
H1444 H 0.5505 0.10431 0.81912 0.0
H1445 H 0.62699 0.145 0.72895 0.0
H1446 H 0.62737 0.13352 0.7735 0.0
H1447 H 0.62969 0.1612 0.76955 0.0
C1448 C 0.59589 0.10007 0.87989 0.0
C1449 C 0.61021 0.12049 0.89878 0.0
C1450 C 0.58855 0.10074 0.8444 0.0
C1451 C 0.59534 0.12181 0.82724 0.0
C1452 C 0.611 0.14218 0.845 0.0
H1453 H 0.54215 0.15612 0.63367 0.0
H1454 H 0.55906 0.15783 0.69398 0.0
C1455 C 0.61857 0.14152 0.88041 0.0
C1456 C 0.58366 0.12245 0.79325 0.0
H1457 H 0.59245 0.14118 0.70462 0.0
C1458 C 0.55969 0.11227 0.79404 0.0
C1459 C 0.5957 0.13311 0.76073 0.0
C1460 C 0.62134 0.14365 0.75791 0.0
C1461 C 0.5474 0.11233 0.76311 0.0
C1462 C 0.5594 0.12278 0.73058 0.0
C1463 C 0.58338 0.13332 0.72984 0.0
C1464 C 0.54725 0.12154 0.69628 0.0
C1465 C 0.52168 0.10127 0.76538 0.0
C1466 C 0.5347 0.1005 0.67821 0.0
C1467 C 0.52512 0.09947 0.64389 0.0
C1468 C 0.52789 0.11948 0.62712 0.0
C1469 C 0.53956 0.1404 0.64608 0.0
C1470 C 0.54936 0.14144 0.68033 0.0
H1471 H 0.51557 0.09851 0.79422 0.0
H1472 H 0.51572 0.11194 0.75125 0.0
H1473 H 0.51373 0.08437 0.7515 0.0
H1474 H 0.53306 0.08501 0.69004 0.0
H1475 H 0.51626 0.08312 0.62992 0.0
H1476 H 0.28662 0.49495 0.45242 0.0
H1477 H 0.27245 0.49794 0.51304 0.0
H1478 H 0.23198 0.42431 0.51921 0.0
H1479 H 0.24589 0.42115 0.45899 0.0
H1480 H 0.22317 0.47817 0.52875 0.0
H1481 H 0.26576 0.44472 0.61973 0.0
H1482 H 0.27648 0.45618 0.57464 0.0
H1483 H 0.25261 0.42764 0.57965 0.0
C1484 C 0.27514 0.47941 0.46714 0.0
C1485 C 0.26737 0.45781 0.45103 0.0
C1486 C 0.26696 0.48116 0.50156 0.0
C1487 C 0.25127 0.46134 0.52051 0.0
C1488 C 0.24427 0.43978 0.50514 0.0
H1489 H 0.17214 0.41946 0.71698 0.0
H1490 H 0.18729 0.42244 0.6552 0.0
C1491 C 0.25222 0.43802 0.47072 0.0
C1492 C 0.24082 0.46288 0.5552 0.0
H1493 H 0.23399 0.44633 0.64472 0.0
C1494 C 0.2257 0.4715 0.55431 0.0
C1495 C 0.24415 0.45405 0.58825 0.0
C1496 C 0.26078 0.44529 0.59088 0.0
C1497 C 0.21304 0.47065 0.58546 0.0
C1498 C 0.21593 0.46126 0.6183 0.0
C1499 C 0.2316 0.45328 0.61935 0.0
C1500 C 0.20297 0.45932 0.65215 0.0
C1501 C 0.1961 0.47901 0.58261 0.0
C1502 C 0.20589 0.47898 0.67023 0.0
C1503 C 0.19698 0.4773 0.70545 0.0
C1504 C 0.18537 0.45596 0.72329 0.0
C1505 C 0.18107 0.43615 0.70401 0.0
C1506 C 0.1898 0.43783 0.66877 0.0
H1507 H 0.19175 0.48026 0.55364 0.0
H1508 H 0.18007 0.46746 0.59764 0.0
H1509 H 0.20366 0.4963 0.59504 0.0
H1510 H 0.21627 0.49576 0.65814 0.0
H1511 H 0.20076 0.4929 0.7197 0.0
H1512 H 0.56808 0.78528 0.43115 0.0
H1513 H 0.56701 0.76757 0.48961 0.0
H1514 H 0.54063 0.80723 0.54155 0.0
H1515 H 0.54018 0.82395 0.4818 0.0
H1516 H 0.58945 0.78426 0.54711 0.0
H1517 H 0.49806 0.74669 0.58421 0.0
H1518 H 0.50881 0.75878 0.53958 0.0
H1519 H 0.51149 0.77704 0.57761 0.0
C1520 C 0.56197 0.79021 0.45502 0.0
C1521 C 0.55435 0.80609 0.45214 0.0
C1522 C 0.56132 0.78001 0.48846 0.0
C1523 C 0.55352 0.7858 0.52008 0.0
C1524 C 0.54611 0.80194 0.51741 0.0
H1525 H 0.5925 0.77112 0.73691 0.0
H1526 H 0.59068 0.78138 0.67388 0.0
C1527 C 0.5461 0.8117 0.48345 0.0
C1528 C 0.55435 0.77561 0.55576 0.0
H1529 H 0.5232 0.74827 0.63187 0.0
C1530 C 0.57482 0.77617 0.56539 0.0
C1531 C 0.5352 0.76456 0.57941 0.0
C1532 C 0.51209 0.76149 0.56949 0.0
C1533 C 0.57681 0.7664 0.59807 0.0
C1534 C 0.55821 0.75683 0.6229 0.0
C1535 C 0.53755 0.75577 0.61301 0.0
C1536 C 0.5603 0.74931 0.66021 0.0
C1537 C 0.59877 0.7662 0.60519 0.0
C1538 C 0.54365 0.72788 0.67396 0.0
C1539 C 0.54431 0.72211 0.71063 0.0
C1540 C 0.56173 0.73766 0.73402 0.0
C1541 C 0.57896 0.7586 0.71963 0.0
C1542 C 0.57804 0.76448 0.68335 0.0
H1543 H 0.60686 0.76545 0.57908 0.0
H1544 H 0.61109 0.78228 0.61933 0.0
H1545 H 0.59585 0.75143 0.62249 0.0
H1546 H 0.52975 0.7159 0.65662 0.0
H1547 H 0.53074 0.7059 0.72096 0.0
H1548 H 0.25581 0.8402 0.71951 0.0
H1549 H 0.24281 0.82469 0.6581 0.0
H1550 H 0.28533 0.79366 0.66083 0.0
H1551 H 0.29883 0.80951 0.72207 0.0
H1552 H 0.2821 0.81008 0.59054 0.0
H1553 H 0.19693 0.75541 0.65427 0.0
H1554 H 0.20803 0.78552 0.66106 0.0
H1555 H 0.2226 0.7719 0.68095 0.0
C1556 C 0.26292 0.83065 0.70663 0.0
C1557 C 0.27807 0.82578 0.7258 0.0
C1558 C 0.25534 0.82166 0.67168 0.0
C1559 C 0.26257 0.80745 0.65558 0.0
C1560 C 0.27937 0.80438 0.67308 0.0
H1561 H 0.21331 0.72201 0.45797 0.0
H1562 H 0.23085 0.73694 0.51802 0.0
C1563 C 0.28714 0.81356 0.70799 0.0
C1564 C 0.25104 0.79419 0.62228 0.0
H1565 H 0.19853 0.75468 0.58916 0.0
C1566 C 0.26389 0.79782 0.59023 0.0
C1567 C 0.22732 0.77795 0.62227 0.0
C1568 C 0.21292 0.77225 0.65656 0.0
C1569 C 0.25338 0.78633 0.55759 0.0
C1570 C 0.22953 0.77075 0.55735 0.0
C1571 C 0.21681 0.76668 0.5896 0.0
C1572 C 0.21721 0.75983 0.52318 0.0
C1573 C 0.2676 0.79145 0.52325 0.0
C1574 C 0.20305 0.76712 0.50723 0.0
C1575 C 0.19304 0.75867 0.47314 0.0
C1576 C 0.19688 0.74261 0.4546 0.0
C1577 C 0.20997 0.73428 0.4717 0.0
C1578 C 0.22016 0.74293 0.50577 0.0
H1579 H 0.28527 0.80606 0.52699 0.0
H1580 H 0.26871 0.77612 0.51543 0.0
H1581 H 0.25938 0.79542 0.50021 0.0
H1582 H 0.20049 0.78005 0.5205 0.0
H1583 H 0.183 0.76537 0.4607 0.0
H1584 H 0.51135 0.72315 0.95884 0.0
H1585 H 0.5052 0.73662 0.018 0.0
H1586 H 0.57823 0.77845 0.03242 0.0
H1587 H 0.58454 0.76518 0.97367 0.0
H1588 H 0.55155 0.75255 0.09686 0.0
H1589 H 0.51919 0.80495 0.02877 0.0
H1590 H 0.50621 0.77511 0.0168 0.0
H1591 H 0.53536 0.79447 0.00416 0.0
C1592 C 0.52608 0.73481 0.97505 0.0
C1593 C 0.54844 0.74321 0.9616 0.0
C1594 C 0.52253 0.74264 0.00859 0.0
C1595 C 0.54128 0.7588 0.02909 0.0
C1596 C 0.56357 0.76609 0.01677 0.0
H1597 H 0.58371 0.84327 0.21632 0.0
H1598 H 0.57845 0.82644 0.15535 0.0
C1599 C 0.56713 0.75846 0.98326 0.0
C1600 C 0.53807 0.76906 0.06271 0.0
H1601 H 0.52511 0.80932 0.09257 0.0
C1602 C 0.54547 0.76472 0.09606 0.0
C1603 C 0.53013 0.78492 0.06139 0.0
C1604 C 0.52234 0.79034 0.02592 0.0
C1605 C 0.54576 0.77631 0.12807 0.0
C1606 C 0.53889 0.79298 0.12642 0.0
C1607 C 0.53053 0.79665 0.09347 0.0
C1608 C 0.54148 0.80734 0.15861 0.0
C1609 C 0.55387 0.771 0.16336 0.0
C1610 C 0.52232 0.80338 0.1793 0.0
C1611 C 0.52526 0.81317 0.21413 0.0
C1612 C 0.5474 0.82685 0.22858 0.0
C1613 C 0.56645 0.83267 0.20603 0.0
C1614 C 0.56349 0.823 0.17128 0.0
H1615 H 0.55351 0.75436 0.16194 0.0
H1616 H 0.57176 0.78464 0.16882 0.0
H1617 H 0.54313 0.77052 0.18681 0.0
H1618 H 0.50521 0.7914 0.16975 0.0
H1619 H 0.51025 0.80832 0.23088 0.0
H1620 H 0.28619 0.79465 0.95631 0.0
H1621 H 0.27005 0.77522 0.01474 0.0
H1622 H 0.22735 0.80602 0.01925 0.0
H1623 H 0.24299 0.82509 0.96082 0.0
H1624 H 0.26665 0.79009 0.08482 0.0
H1625 H 0.18091 0.73742 0.0224 0.0
H1626 H 0.20644 0.75398 0.99537 0.0
H1627 H 0.1921 0.76758 0.01621 0.0
C1628 C 0.27371 0.79764 0.97016 0.0
C1629 C 0.26565 0.81118 0.95384 0.0
C1630 C 0.26441 0.78642 0.00336 0.0
C1631 C 0.24702 0.78866 0.0206 0.0
C1632 C 0.24025 0.80354 0.00574 0.0
H1633 H 0.173 0.75521 0.21901 0.0
H1634 H 0.18747 0.76584 0.15648 0.0
C1635 C 0.24937 0.81459 0.97254 0.0
C1636 C 0.23539 0.77506 0.05361 0.0
H1637 H 0.18247 0.73768 0.08806 0.0
C1638 C 0.24831 0.77836 0.08545 0.0
C1639 C 0.21148 0.7596 0.05412 0.0
C1640 C 0.19694 0.75422 0.02009 0.0
C1641 C 0.23773 0.76751 0.11842 0.0
C1642 C 0.2137 0.7529 0.11926 0.0
C1643 C 0.20088 0.74895 0.08717 0.0
C1644 C 0.20154 0.74323 0.15406 0.0
C1645 C 0.25213 0.77247 0.15253 0.0
C1646 C 0.20372 0.72616 0.17246 0.0
C1647 C 0.1953 0.71988 0.20812 0.0
C1648 C 0.18479 0.73078 0.22585 0.0
C1649 C 0.18111 0.74659 0.20616 0.0
C1650 C 0.18938 0.75271 0.17048 0.0
H1651 H 0.27013 0.78626 0.14813 0.0
H1652 H 0.2447 0.77759 0.17532 0.0
H1653 H 0.25222 0.75673 0.16114 0.0
H1654 H 0.21289 0.71854 0.15992 0.0
H1655 H 0.1984 0.70765 0.22257 0.0
H1656 H 0.18245 0.42083 0.95922 0.0
H1657 H 0.20027 0.42285 0.01836 0.0
H1658 H 0.23678 0.49665 0.01248 0.0
H1659 H 0.21845 0.49475 0.95358 0.0
H1660 H 0.24608 0.44092 0.02713 0.0
H1661 H 0.21479 0.48576 0.11771 0.0
H1662 H 0.20159 0.47357 0.07419 0.0
H1663 H 0.22779 0.50063 0.07588 0.0
C1664 C 0.19381 0.43751 0.97098 0.0
C1665 C 0.19905 0.45764 0.95184 0.0
C1666 C 0.20407 0.43863 0.00467 0.0
C1667 C 0.21985 0.45988 0.01983 0.0
C1668 C 0.22436 0.48008 0.0016 0.0
H1669 H 0.30233 0.48917 0.21821 0.0
H1670 H 0.29115 0.49236 0.15564 0.0
C1671 C 0.21386 0.47897 0.96797 0.0
C1672 C 0.23279 0.46061 0.05311 0.0
H1673 H 0.24339 0.47891 0.14189 0.0
C1674 C 0.24551 0.44926 0.05221 0.0
C1675 C 0.23218 0.47166 0.08568 0.0
C1676 C 0.21821 0.48343 0.08869 0.0
C1677 C 0.2573 0.44832 0.08321 0.0
C1678 C 0.25631 0.45896 0.1159 0.0
C1679 C 0.24419 0.47088 0.11658 0.0
C1680 C 0.26607 0.45638 0.15062 0.0
C1681 C 0.27063 0.43586 0.08092 0.0
C1682 C 0.25616 0.43495 0.16789 0.0
C1683 C 0.26242 0.43305 0.20363 0.0
C1684 C 0.2787 0.45259 0.22266 0.0
C1685 C 0.28982 0.47376 0.20425 0.0
C1686 C 0.28338 0.47567 0.16859 0.0
H1687 H 0.27438 0.43356 0.05207 0.0
H1688 H 0.28703 0.44524 0.0962 0.0
H1689 H 0.26042 0.41865 0.09349 0.0
H1690 H 0.2426 0.41991 0.15456 0.0
H1691 H 0.25352 0.41652 0.21708 0.0
H1692 H 0.90613 0.75277 0.79863 0.0
H1693 H 0.88979 0.75603 0.85645 0.0
H1694 H 0.93461 0.82929 0.85502 0.0
H1695 H 0.95145 0.82614 0.79724 0.0
H1696 H 0.92932 0.81007 0.92437 0.0
H1697 H 0.84497 0.78006 0.85869 0.0
H1698 H 0.85532 0.76038 0.8527 0.0
H1699 H 0.87075 0.78851 0.83263 0.0
C1700 C 0.91282 0.76955 0.81092 0.0
C1701 C 0.92992 0.78923 0.79326 0.0
C1702 C 0.9033 0.7714 0.84375 0.0
C1703 C 0.91047 0.79297 0.85927 0.0
C1704 C 0.92863 0.81252 0.84311 0.0
H1705 H 0.86094 0.82457 0.06092 0.0
H1706 H 0.87524 0.82858 -0.00193 0.0
C1707 C 0.93834 0.81067 0.81029 0.0
C1708 C 0.89856 0.79495 0.89191 0.0
H1709 H 0.84545 0.78034 0.92447 0.0
C1710 C 0.91107 0.80393 0.92431 0.0
C1711 C 0.87475 0.78711 0.89154 0.0
C1712 C 0.8607 0.77869 0.85692 0.0
C1713 C 0.90015 0.80412 0.95693 0.0
C1714 C 0.87619 0.79527 0.95689 0.0
C1715 C 0.86381 0.78707 0.92425 0.0
C1716 C 0.86362 0.79253 0.99133 0.0
C1717 C 0.91407 0.81282 0.99164 0.0
C1718 C 0.8513 0.77077 0.00728 0.0
C1719 C 0.84314 0.7684 0.04307 0.0
C1720 C 0.84711 0.78778 0.06334 0.0
C1721 C 0.85757 0.80931 0.04599 0.0
C1722 C 0.8659 0.81167 0.01021 0.0
H1723 H 0.93204 0.81682 0.98778 0.0
H1724 H 0.9143 0.82864 0.00075 0.0
H1725 H 0.90615 0.79993 0.01387 0.0
H1726 H 0.84931 0.75581 0.99292 0.0
H1727 H 0.83506 0.75159 0.05566 0.0
H1728 H 0.17892 0.12396 0.78916 0.0
H1729 H 0.17513 0.10468 0.84785 0.0
H1730 H 0.24869 0.13778 0.85639 0.0
H1731 H 0.2526 0.15667 0.79763 0.0
H1732 H 0.22727 0.09074 0.86348 0.0
H1733 H 0.18656 0.12667 0.95403 0.0
H1734 H 0.17215 0.11495 0.91133 0.0
H1735 H 0.20016 0.13997 0.91124 0.0
C1736 C 0.19427 0.1276 0.80406 0.0
C1737 C 0.21606 0.14179 0.78879 0.0
C1738 C 0.19208 0.11655 0.83756 0.0
C1739 C 0.21164 0.11982 0.85645 0.0
C1740 C 0.23338 0.13495 0.84216 0.0
H1741 H 0.2544 0.08418 0.05061 0.0
H1742 H 0.24981 0.09418 0.98813 0.0
C1743 C 0.23559 0.14581 0.80866 0.0
C1744 C 0.20972 0.1063 0.88962 0.0
H1745 H 0.19224 0.09756 0.97886 0.0
C1746 C 0.21951 0.09215 0.88868 0.0
C1747 C 0.19936 0.10797 0.92227 0.0
C1748 C 0.1891 0.12332 0.92508 0.0
C1749 C 0.21977 0.08011 0.91983 0.0
C1750 C 0.21014 0.08241 0.95278 0.0
C1751 C 0.19953 0.0958 0.9534 0.0
C1752 C 0.21289 0.07303 0.98783 0.0
C1753 C 0.23059 0.06524 0.91741 0.0
C1754 C 0.19366 0.05737 0.008 0.0
C1755 C 0.19624 0.05146 0.04372 0.0
C1756 C 0.21807 0.0615 0.05996 0.0
C1757 C 0.23737 0.07613 0.03884 0.0
C1758 C 0.23479 0.08184 0.00309 0.0
H1759 H 0.23125 0.06015 0.88866 0.0
H1760 H 0.24842 0.07496 0.92786 0.0
H1761 H 0.22107 0.04955 0.93434 0.0
H1762 H 0.17662 0.05048 0.99665 0.0
H1763 H 0.18103 0.04027 0.05937 0.0
H1764 H 0.85543 0.10282 0.79414 0.0
H1765 H 0.87432 0.11892 0.85245 0.0
H1766 H 0.90443 0.07556 0.85075 0.0
H1767 H 0.88513 0.05892 0.7924 0.0
H1768 H 0.88904 0.07907 0.91959 0.0
H1769 H 0.94248 0.16514 0.85878 0.0
H1770 H 0.91246 0.15416 0.85155 0.0
H1771 H 0.9262 0.1398 0.83123 0.0
C1772 C 0.86583 0.09646 0.80637 0.0
C1773 C 0.86897 0.07975 0.78855 0.0
C1774 C 0.87678 0.10585 0.83952 0.0
C1775 C 0.89136 0.09897 0.85524 0.0
C1776 C 0.89349 0.08132 0.83872 0.0
H1777 H 0.96981 0.14707 0.05949 0.0
H1778 H 0.95989 0.13336 0.99632 0.0
C1779 C 0.88235 0.07173 0.80555 0.0
C1780 C 0.90444 0.11049 0.88874 0.0
H1781 H 0.94096 0.16331 0.92452 0.0
C1782 C 0.90067 0.09742 0.92058 0.0
C1783 C 0.91976 0.13444 0.8898 0.0
C1784 C 0.92567 0.14917 0.85591 0.0
C1785 C 0.91093 0.10784 0.95395 0.0
C1786 C 0.92539 0.13189 0.95528 0.0
C1787 C 0.92979 0.14488 0.92326 0.0
C1788 C 0.93453 0.14382 0.99043 0.0
C1789 C 0.90552 0.09327 0.98794 0.0
C1790 C 0.92433 0.15523 0.00708 0.0
C1791 C 0.92989 0.16305 0.04309 0.0
C1792 C 0.94584 0.15966 0.06291 0.0
C1793 C 0.95747 0.14997 0.04497 0.0
C1794 C 0.95175 0.14199 0.00899 0.0
H1795 H 0.89208 0.0752 0.98299 0.0
H1796 H 0.92125 0.09348 -0.00247 0.0
H1797 H 0.89971 0.10036 0.01029 0.0
H1798 H 0.91106 0.15686 0.99298 0.0
H1799 H 0.9207 0.17052 0.05609 0.0
H1800 H 0.25863 0.10096 0.29137 0.0
H1801 H 0.25669 0.11627 0.35102 0.0
H1802 H 0.18381 0.06956 0.35481 0.0
H1803 H 0.1857 0.05374 0.29534 0.0
H1804 H 0.23266 0.13816 0.36374 0.0
H1805 H 0.20333 0.06373 0.45751 0.0
H1806 H 0.21445 0.06424 0.4123 0.0
H1807 H 0.18549 0.05828 0.41796 0.0
C1808 C 0.24226 0.09354 0.3053 0.0
C1809 C 0.22231 0.07614 0.2887 0.0
C1810 C 0.24118 0.10239 0.3393 0.0
C1811 C 0.22013 0.09406 0.35736 0.0
C1812 C 0.20029 0.07599 0.34164 0.0
H1813 H 0.1855 0.14238 0.55571 0.0
H1814 H 0.18363 0.12808 0.49339 0.0
C1815 C 0.2014 0.06696 0.30766 0.0
C1816 C 0.21888 0.10556 0.39115 0.0
H1817 H 0.20466 0.09698 0.48186 0.0
C1818 C 0.22654 0.12915 0.38957 0.0
C1819 C 0.21078 0.09374 0.42475 0.0
C1820 C 0.20323 0.06865 0.42847 0.0
C1821 C 0.22654 0.14127 0.42081 0.0
C1822 C 0.21864 0.12948 0.45432 0.0
C1823 C 0.21053 0.10585 0.45586 0.0
C1824 C 0.22013 0.14156 0.48881 0.0
C1825 C 0.23504 0.16658 0.41801 0.0
C1826 C 0.24138 0.15448 0.50614 0.0
C1827 C 0.24252 0.16255 0.54176 0.0
C1828 C 0.22241 0.15788 0.56049 0.0
C1829 C 0.20132 0.1464 0.54194 0.0
C1830 C 0.20017 0.13809 0.50644 0.0
H1831 H 0.23708 0.17244 0.38908 0.0
H1832 H 0.22304 0.17084 0.43212 0.0
H1833 H 0.25191 0.17621 0.43186 0.0
H1834 H 0.25693 0.15718 0.49292 0.0
H1835 H 0.25901 0.17131 0.55536 0.0
H1836 H 0.94954 0.12271 0.29282 0.0
H1837 H 0.93256 0.10284 0.35067 0.0
H1838 H 0.89069 0.13457 0.35466 0.0
H1839 H 0.90716 0.15407 0.29685 0.0
H1840 H 0.92907 0.11752 0.42063 0.0
H1841 H 0.84334 0.06636 0.35761 0.0
H1842 H 0.86902 0.08263 0.33076 0.0
H1843 H 0.855 0.0966 0.3515 0.0
C1844 C 0.93703 0.12577 0.30642 0.0
C1845 C 0.9295 0.13976 0.29015 0.0
C1846 C 0.92725 0.1143 0.33929 0.0
C1847 C 0.90987 0.11671 0.35624 0.0
C1848 C 0.90355 0.13193 0.34137 0.0
H1849 H 0.83615 0.086 0.55435 0.0
H1850 H 0.85023 0.09553 0.49144 0.0
C1851 C 0.91315 0.14323 0.30852 0.0
C1852 C 0.89794 0.10313 0.38917 0.0
H1853 H 0.84461 0.06683 0.42339 0.0
C1854 C 0.91067 0.10614 0.42114 0.0
C1855 C 0.87393 0.08813 0.38956 0.0
C1856 C 0.85955 0.08302 0.35541 0.0
C1857 C 0.89984 0.09551 0.45411 0.0
C1858 C 0.87573 0.08141 0.45485 0.0
C1859 C 0.86309 0.0777 0.42261 0.0
C1860 C 0.86337 0.07213 0.48968 0.0
C1861 C 0.91409 0.10021 0.48834 0.0
C1862 C 0.86504 0.05491 0.50857 0.0
C1863 C 0.85682 0.04925 0.54445 0.0
C1864 C 0.84704 0.06093 0.56194 0.0
C1865 C 0.84369 0.07678 0.5417 0.0
C1866 C 0.85176 0.08228 0.5058 0.0
H1867 H 0.93224 0.11364 0.48399 0.0
H1868 H 0.90689 0.1057 0.51097 0.0
H1869 H 0.91368 0.08426 0.49718 0.0
H1870 H 0.87379 0.04677 0.49629 0.0
H1871 H 0.85969 0.03699 0.5593 0.0
H1872 H 0.88305 0.82633 0.29428 0.0
H1873 H 0.90064 0.82906 0.35435 0.0
H1874 H 0.87232 0.75584 0.35547 0.0
H1875 H 0.85479 0.7529 0.29565 0.0
H1876 H 0.86803 0.77843 0.42381 0.0
H1877 H 0.95631 0.81625 0.3668 0.0
H1878 H 0.93919 0.82876 0.35366 0.0
H1879 H 0.93114 0.80039 0.33866 0.0
C1880 C 0.88027 0.81079 0.30761 0.0
C1881 C 0.86761 0.78941 0.29022 0.0
C1882 C 0.89047 0.81241 0.3417 0.0
C1883 C 0.888 0.79268 0.35887 0.0
C1884 C 0.87451 0.77125 0.3424 0.0
H1885 H 0.92386 0.75133 0.55831 0.0
H1886 H 0.91207 0.75394 0.49603 0.0
C1887 C 0.86449 0.76962 0.30829 0.0
C1888 C 0.89971 0.79415 0.39376 0.0
H1889 H 0.95188 0.80859 0.43023 0.0
C1890 C 0.88636 0.78513 0.42534 0.0
C1891 C 0.92363 0.80301 0.39545 0.0
C1892 C 0.93853 0.81259 0.36189 0.0
C1893 C 0.8963 0.78453 0.45874 0.0
C1894 C 0.92013 0.79259 0.4602 0.0
C1895 C 0.9336 0.8022 0.42881 0.0
C1896 C 0.93109 0.79098 0.4943 0.0
C1897 C 0.8812 0.77542 0.49222 0.0
C1898 C 0.94711 0.81089 0.51266 0.0
C1899 C 0.9542 0.80944 0.54809 0.0
C1900 C 0.94521 0.78805 0.56557 0.0
C1901 C 0.93088 0.76806 0.54567 0.0
C1902 C 0.924 0.76952 0.51022 0.0
H1903 H 0.86503 0.77582 0.48882 0.0
H1904 H 0.87664 0.75735 0.49681 0.0
H1905 H 0.89019 0.78544 0.51703 0.0
H1906 H 0.95295 0.82759 0.50058 0.0
H1907 H 0.96525 0.82514 0.56275 0.0
H1908 H 0.3429 0.89893 0.81542 0.0
H1909 H 0.37652 0.93212 0.84113 0.0
H1910 H 0.33624 0.93179 0.9332 0.0
H1911 H 0.30234 0.89821 0.90736 0.0
H1912 H 0.38946 0.97627 0.86597 0.0
H1913 H 0.38435 0.91864 0.97933 0.0
H1914 H 0.36706 0.90807 0.93852 0.0
H1915 H 0.35976 0.92208 0.97348 0.0
C1916 C 0.34097 0.90654 0.84037 0.0
C1917 C 0.31999 0.89612 0.85927 0.0
C1918 C 0.36026 0.92542 0.8552 0.0
C1919 C 0.35907 0.93416 0.8895 0.0
C1920 C 0.33763 0.92509 0.90695 0.0
H1921 H 0.48215 0.04994 0.98566 0.0
H1922 H 0.44338 0.025 0.96289 0.0
C1923 C 0.31818 0.90617 0.8919 0.0
C1924 C 0.38075 0.9509 0.90811 0.0
H1925 H 0.41626 0.95578 0.97883 0.0
C1926 C 0.39521 0.97194 0.89093 0.0
C1927 C 0.38848 0.945 0.94022 0.0
C1928 C 0.37426 0.92217 0.95894 0.0
C1929 C 0.4172 0.98712 0.90472 0.0
C1930 C 0.42488 0.98124 0.9369 0.0
C1931 C 0.41033 0.96032 0.9543 0.0
C1932 C 0.44826 0.99618 0.95218 0.0
C1933 C 0.43237 0.00889 0.88388 0.0
C1934 C 0.46381 0.98809 0.95492 0.0
C1935 C 0.48601 1.00225 0.96845 0.0
C1936 C 0.49311 0.02478 0.97986 0.0
C1937 C 0.47729 0.03263 0.97766 0.0
C1938 C 0.45514 0.01848 0.96414 0.0
H1939 H 0.42619 0.00822 0.85543 0.0
H1940 H 0.43249 0.0235 0.89807 0.0
H1941 H 0.45026 0.01227 0.88272 0.0
H1942 H 0.45885 0.97089 0.94609 0.0
H1943 H 0.49757 0.99551 0.97008 0.0
H1944 H 0.01406 0.50567 0.96161 0.0
H1945 H 0.03898 0.49167 0.93851 0.0
H1946 H 0.98573 0.42211 0.95844 0.0
H1947 H 0.9605 0.43582 0.98036 0.0
H1948 H 0.0549 0.46525 0.97283 0.0
H1949 H 1.00206 0.42002 0.85118 0.0
H1950 H 0.9978 0.44031 0.87734 0.0
H1951 H 0.98703 0.41166 0.89411 0.0
C1952 C 0.00757 0.48738 0.96085 0.0
C1953 C 0.9852 0.47193 0.9729 0.0
C1954 C 0.0219 0.4794 0.94782 0.0
C1955 C 0.01415 0.4558 0.94623 0.0
C1956 C 0.992 0.44036 0.95879 0.0
H1957 H 0.11299 0.40836 0.9058 0.0
H1958 H 0.07937 0.40893 0.93091 0.0
C1959 C 0.97768 0.4483 0.97183 0.0
C1960 C 0.02927 0.4474 0.93153 0.0
H1961 H 0.03437 0.41592 0.86239 0.0
C1962 C 0.05035 0.45434 0.94883 0.0
C1963 C 0.0234 0.43326 0.90004 0.0
C1964 C 1.00145 0.426 0.87931 0.0
C1965 C 0.06579 0.4478 0.93533 0.0
C1966 C 0.05989 0.43358 0.90392 0.0
C1967 C 0.03871 0.42645 0.88682 0.0
C1968 C 0.07669 0.42844 0.88594 0.0
C1969 C 0.08875 0.45699 0.95388 0.0
C1970 C 0.08527 0.43772 0.85124 0.0
C1971 C 0.10418 0.43716 0.83682 0.0
C1972 C 0.11476 0.42705 0.85654 0.0
C1973 C 0.10488 0.41582 0.88968 0.0
C1974 C 0.08594 0.41652 0.90431 0.0
H1975 H 0.09224 0.47097 0.9735 0.0
H1976 H 0.08908 0.44297 0.96929 0.0
H1977 H 0.10275 0.4636 0.9333 0.0
H1978 H 0.07843 0.44692 0.83646 0.0
H1979 H 0.11169 0.44626 0.8115 0.0
H1980 H 0.59882 0.70767 0.9225 0.0
H1981 H 0.59767 0.67315 0.9473 0.0
H1982 H 0.56768 0.63741 0.84635 0.0
H1983 H 0.56866 0.6716 0.82189 0.0
H1984 H 0.55467 0.63282 0.95526 0.0
H1985 H 0.6126 0.61513 0.87158 0.0
H1986 H 0.61541 0.6432 0.87417 0.0
H1987 H 0.59427 0.62161 0.84466 0.0
C1988 C 0.59314 0.69281 0.90502 0.0
C1989 C 0.58424 0.6924 0.87004 0.0
C1990 C 0.59219 0.673 0.91934 0.0
C1991 C 0.58271 0.65268 0.89862 0.0
C1992 C 0.57548 0.65292 0.86263 0.0
H1993 H 0.52621 0.50724 0.92311 0.0
H1994 H 0.53988 0.54658 0.9032 0.0
C1995 C 0.57615 0.67253 0.84858 0.0
C1996 C 0.57713 0.63043 0.91584 0.0
H1997 H 0.58309 0.58333 0.90473 0.0
C1998 C 0.56119 0.62215 0.94468 0.0
C1999 C 0.58538 0.61638 0.9017 0.0
C2000 C 0.60302 0.62459 0.87153 0.0
C2001 C 0.55255 0.59987 0.9587 0.0
C2002 C 0.56048 0.58561 0.94408 0.0
C2003 C 0.5769 0.59416 0.91588 0.0
C2004 C 0.55151 0.56158 0.95689 0.0
C2005 C 0.5342 0.59149 0.98781 0.0
C2006 C 0.55335 0.55676 0.99378 0.0
C2007 C 0.54516 0.53416 0.00544 0.0
C2008 C 0.53517 0.51581 0.98038 0.0
C2009 C 0.53334 0.52075 0.94342 0.0
C2010 C 0.54142 0.54334 0.93185 0.0
H2011 H 0.52567 0.60195 0.98874 0.0
H2012 H 0.52095 0.57333 0.98307 0.0
H2013 H 0.54209 0.59272 0.01501 0.0
H2014 H 0.56143 0.5705 0.01357 0.0
H2015 H 0.54678 0.53111 0.03413 0.0
H2016 H 0.99064 0.52931 0.5245 0.0
H2017 H 0.01466 0.56851 0.50231 0.0
H2018 H 0.00985 0.54314 0.39231 0.0
H2019 H 0.98496 0.50408 0.41384 0.0
H2020 H 0.05568 0.58906 0.46929 0.0
H2021 H 0.99269 0.59161 0.37516 0.0
H2022 H 0.98478 0.56901 0.40834 0.0
H2023 H 0.99737 0.56822 0.36521 0.0
C2024 C 0.99445 0.53204 0.49549 0.0
C2025 C 0.98564 0.51337 0.47102 0.0
C2026 C 0.00832 0.55452 0.48286 0.0
C2027 C 0.01367 0.55893 0.44545 0.0
C2028 C 0.00548 0.54032 0.42113 0.0
H2029 H 0.1102 0.6671 0.31215 0.0
H2030 H 0.0769 0.63303 0.33691 0.0
C2031 C 0.99154 0.51786 0.43367 0.0
C2032 C 0.02844 0.58289 0.43202 0.0
H2033 H 0.03181 0.62137 0.36754 0.0
C2034 C 0.0503 0.59624 0.44746 0.0
C2035 C 0.02144 0.5924 0.40359 0.0
C2036 C 0.9977 0.57965 0.38738 0.0
C2037 C 0.06568 0.6183 0.43416 0.0
C2038 C 0.05896 0.62745 0.40489 0.0
C2039 C 0.03691 0.61439 0.39007 0.0
C2040 C 0.07554 0.64945 0.38699 0.0
C2041 C 0.08941 0.63127 0.45042 0.0
C2042 C 0.085 0.67042 0.40591 0.0
C2043 C 0.10386 0.69014 0.39136 0.0
C2044 C 0.11353 0.68903 0.35785 0.0
C2045 C 0.10281 0.66851 0.33772 0.0
C2046 C 0.0839 0.64897 0.35201 0.0
H2047 H 0.09302 0.62045 0.46915 0.0
H2048 H 0.10254 0.63795 0.42838 0.0
H2049 H 0.09117 0.64612 0.46622 0.0
H2050 H 0.07869 0.6712 0.43287 0.0
H2051 H 0.11213 0.70557 0.40782 0.0
H2052 H 0.49862 0.50511 0.46643 0.0
H2053 H 0.45958 0.49089 0.4438 0.0
H2054 H 0.44406 0.42142 0.46218 0.0
H2055 H 0.48312 0.43539 0.48385 0.0
H2056 H 0.42948 0.42728 0.39418 0.0
H2057 H 0.40024 0.46387 0.50346 0.0
H2058 H 0.42625 0.48465 0.48147 0.0
H2059 H 0.42588 0.46188 0.50771 0.0
C2060 C 0.48692 0.48681 0.46566 0.0
C2061 C 0.49405 0.47146 0.47735 0.0
C2062 C 0.4645 0.4787 0.45304 0.0
C2063 C 0.44871 0.45507 0.45182 0.0
C2064 C 0.45582 0.43971 0.46316 0.0
H2065 H 0.3034 0.408 0.40893 0.0
H2066 H 0.33737 0.4084 0.43457 0.0
C2067 C 0.47817 0.44779 0.47587 0.0
C2068 C 0.42501 0.44631 0.43767 0.0
H2069 H 0.37649 0.44958 0.45042 0.0
C2070 C 0.41781 0.43198 0.4067 0.0
C2071 C 0.40957 0.45204 0.45432 0.0
C2072 C 0.41574 0.46627 0.4888 0.0
C2073 C 0.39604 0.4241 0.39107 0.0
C2074 C 0.38108 0.43086 0.40656 0.0
C2075 C 0.38791 0.44438 0.43843 0.0
C2076 C 0.35932 0.42608 0.38836 0.0
C2077 C 0.38933 0.40872 0.35791 0.0
C2078 C 0.36008 0.43509 0.35338 0.0
C2079 C 0.34076 0.43476 0.33879 0.0
C2080 C 0.32017 0.42531 0.3587 0.0
C2081 C 0.31883 0.41477 0.39254 0.0
C2082 C 0.33833 0.4153 0.4074 0.0
H2083 H 0.39882 0.39918 0.35685 0.0
H2084 H 0.37066 0.39622 0.35773 0.0
H2085 H 0.3936 0.41933 0.33275 0.0
H2086 H 0.37608 0.44393 0.33843 0.0
H2087 H 0.34241 0.44352 0.31307 0.0
H2088 H 0.57514 0.90309 0.31126 0.0
H2089 H 0.57293 0.93634 0.33254 0.0
H2090 H 0.58897 0.92513 0.44231 0.0
H2091 H 0.59165 0.89212 0.4207 0.0
H2092 H 0.53935 0.92852 0.38148 0.0
H2093 H 0.62294 0.99484 0.43758 0.0
H2094 H 0.62031 0.97272 0.40666 0.0
H2095 H 0.61352 0.96647 0.45444 0.0
C2096 C 0.5796 0.90862 0.33945 0.0
C2097 C 0.58421 0.89545 0.36413 0.0
C2098 C 0.578 0.92742 0.35174 0.0
C2099 C 0.58079 0.93334 0.38907 0.0
C2100 C 0.58721 0.92129 0.41328 0.0
H2101 H 0.54088 0.01426 0.52508 0.0
H2102 H 0.55446 0.98904 0.50179 0.0
C2103 C 0.58895 0.90251 0.40087 0.0
C2104 C 0.57335 0.94936 0.40326 0.0
H2105 H 0.59038 0.9983 0.45292 0.0
C2106 C 0.55062 0.9439 0.39679 0.0
C2107 C 0.58788 0.96924 0.42375 0.0
C2108 C 0.61258 0.97633 0.4308 0.0
C2109 C 0.54196 0.95756 0.41043 0.0
C2110 C 0.55651 0.97756 0.43066 0.0
C2111 C 0.57922 0.983 0.43737 0.0
C2112 C 0.54842 0.99306 0.44476 0.0
C2113 C 0.51709 0.9501 0.40382 0.0
C2114 C 0.54063 0.00386 0.4205 0.0
C2115 C 0.53284 0.01827 0.4337 0.0
C2116 C 0.5328 0.02239 0.47154 0.0
C2117 C 0.54076 0.01162 0.49578 0.0
C2118 C 0.54853 0.99718 0.48252 0.0
H2119 H 0.5069 0.93159 0.39694 0.0
H2120 H 0.50935 0.95343 0.42824 0.0
H2121 H 0.5158 0.9599 0.38041 0.0
H2122 H 0.54082 1.00137 0.3912 0.0
H2123 H 0.52739 0.02665 0.4141 0.0
H2124 H 0.14735 0.34764 0.35961 0.0
H2125 H 0.10829 0.32202 0.33774 0.0
H2126 H 0.1333 0.33052 0.22682 0.0
H2127 H 0.17223 0.35624 0.24825 0.0
H2128 H 0.08157 0.33026 0.28663 0.0
H2129 H 0.09683 0.26089 0.239 0.0
H2130 H 0.11648 0.28357 0.2689 0.0
H2131 H 0.11661 0.28852 0.22043 0.0
C2132 C 0.14457 0.34408 0.33055 0.0
C2133 C 0.16309 0.35391 0.30579 0.0
C2134 C 0.1222 0.3294 0.3181 0.0
C2135 C 0.11786 0.32411 0.28068 0.0
C2136 C 0.13625 0.33395 0.25591 0.0
H2137 H 1.00198 0.2335 0.14767 0.0
H2138 H 0.03758 0.26628 0.16953 0.0
C2139 C 0.15858 0.3486 0.26829 0.0
C2140 C 0.09415 0.30839 0.26736 0.0
H2141 H 0.06171 0.25814 0.22142 0.0
C2142 C 0.07716 0.31443 0.2725 0.0
C2143 C 0.08837 0.28769 0.24904 0.0
C2144 C 0.10544 0.27962 0.24427 0.0
C2145 C 0.05475 0.30064 0.25891 0.0
C2146 C 0.04911 0.28013 0.24009 0.0
C2147 C 0.06606 0.274 0.23544 0.0
C2148 C 0.02578 0.26434 0.22528 0.0
C2149 C 0.03748 0.3084 0.26403 0.0
C2150 C 0.00678 0.25306 0.24879 0.0
C2151 C 0.98617 0.23454 0.236 0.0
C2152 C 0.98433 0.22699 0.19962 0.0
C2153 C 1.00273 0.2394 0.17555 0.0
C2154 C 0.02319 0.25794 0.18818 0.0
H2155 H 0.04589 0.32702 0.27009 0.0
H2156 H 0.02662 0.3047 0.23926 0.0
H2157 H 0.02615 0.29899 0.28746 0.0
H2158 H 0.00843 0.25731 0.27766 0.0
H2159 H 0.97255 0.22475 0.25541 0.0
H2160 H 0.67898 0.83891 0.296 0.0
H2161 H 0.70468 0.82556 0.274 0.0
H2162 H 0.64738 0.75679 0.26532 0.0
H2163 H 0.62184 0.76993 0.2881 0.0
H2164 H 0.68207 0.75578 0.29603 0.0
H2165 H 0.71399 0.81002 0.17206 0.0
H2166 H 0.71918 0.82681 0.21277 0.0
H2167 H 0.69019 0.80745 0.19845 0.0
C2168 C 0.67188 0.82099 0.28911 0.0
C2169 C 0.64839 0.80549 0.29392 0.0
C2170 C 0.68656 0.81337 0.27635 0.0
C2171 C 0.67797 0.79018 0.26735 0.0
C2172 C 0.65449 0.77474 0.27202 0.0
H2173 H 0.76782 0.75352 0.14798 0.0
H2174 H 0.73325 0.75467 0.16561 0.0
C2175 C 0.63989 0.78228 0.28515 0.0
C2176 C 0.69346 0.78179 0.25419 0.0
H2177 H 0.73483 0.79168 0.19102 0.0
C2178 C 0.69345 0.76351 0.27282 0.0
C2179 C 0.708 0.79143 0.22341 0.0
C2180 C 0.70769 0.80983 0.20028 0.0
C2181 C 0.70805 0.75518 0.26237 0.0
C2182 C 0.7236 0.76579 0.23304 0.0
C2183 C 0.72306 0.78355 0.21366 0.0
C2184 C 0.74162 0.75996 0.22342 0.0
C2185 C 0.70647 0.73498 0.28279 0.0
C2186 C 0.75739 0.76155 0.25009 0.0
C2187 C 0.77678 0.76032 0.24008 0.0
C2188 C 0.78091 0.75763 0.20321 0.0
C2189 C 0.76458 0.75475 0.17674 0.0
C2190 C 0.74503 0.75579 0.18678 0.0
H2191 H 0.68898 0.72391 0.29403 0.0
H2192 H 0.71086 0.72441 0.2649 0.0
H2193 H 0.71854 0.74128 0.30627 0.0
H2194 H 0.75568 0.76545 0.27829 0.0
H2195 H 0.78959 0.76351 0.26075 0.0
H2196 H 0.23937 0.85838 0.31378 0.0
H2197 H 0.25382 0.89755 0.29224 0.0
H2198 H 0.18471 0.88251 0.27163 0.0
H2199 H 0.17001 0.84335 0.29412 0.0
H2200 H 0.24889 0.91268 0.22395 0.0
H2201 H 0.21127 0.94142 0.33234 0.0
H2202 H 0.21306 0.91567 0.33655 0.0
H2203 H 0.1907 0.91562 0.30961 0.0
C2204 C 0.22715 0.86345 0.30532 0.0
C2205 C 0.20344 0.84767 0.30618 0.0
C2206 C 0.2355 0.88586 0.29267 0.0
C2207 C 0.22038 0.89315 0.28076 0.0
C2208 C 0.19672 0.87745 0.2813 0.0
H2209 H 0.23462 1.00146 0.14385 0.0
H2210 H 0.23403 0.96744 0.16806 0.0
C2211 C 0.18833 0.85497 0.29386 0.0
C2212 C 0.22943 0.91697 0.26693 0.0
H2213 H 0.22648 0.96562 0.28002 0.0
C2214 C 0.24415 0.92433 0.23642 0.0
C2215 C 0.22365 0.93238 0.28353 0.0
C2216 C 0.20899 0.92601 0.31754 0.0
C2217 C 0.25242 0.94628 0.2212 0.0
C2218 C 0.24566 0.96125 0.23667 0.0
C2219 C 0.23169 0.95421 0.26806 0.0
C2220 C 0.25097 0.98333 0.21899 0.0
C2221 C 0.26823 0.95319 0.18857 0.0
C2222 C 0.26141 0.00399 0.2389 0.0
C2223 C 0.26206 0.02369 0.22471 0.0
C2224 C 0.25199 0.02289 0.19063 0.0
C2225 C 0.24306 1.00272 0.16974 0.0
C2226 C 0.24261 0.98318 0.1837 0.0
H2227 H 0.27764 0.94357 0.18771 0.0
H2228 H 0.25797 0.94923 0.16307 0.0
H2229 H 0.28085 0.97182 0.18892 0.0
H2230 H 0.26783 0.0045 0.2663 0.0
H2231 H 0.26838 0.03878 0.24186 0.0
H2232 H 0.7854 0.03837 0.75751 0.0
H2233 H 0.7533 1.00298 0.78244 0.0
H2234 H 0.74039 0.97223 0.67512 0.0
H2235 H 0.77267 0.00732 0.6505 0.0
H2236 H 0.70494 0.97093 0.76621 0.0
H2237 H 0.76187 0.93522 0.73783 0.0
H2238 H 0.77183 0.96552 0.7361 0.0
H2239 H 0.75578 0.94731 0.69851 0.0
C2240 C 0.77489 0.02449 0.73894 0.0
C2241 C 0.78121 0.02568 0.70196 0.0
C2242 C 0.75674 0.00416 0.75327 0.0
C2243 C 0.74477 0.9848 0.73078 0.0
C2244 C 0.74958 0.98684 0.69308 0.0
H2245 H 0.65432 0.83943 0.76254 0.0
H2246 H 0.67948 0.8781 0.73953 0.0
C2247 C 0.76779 0.00703 0.67888 0.0
C2248 C 0.72953 0.96184 0.74716 0.0
H2249 H 0.72452 0.90918 0.75889 0.0
C2250 C 0.70921 0.95744 0.76476 0.0
C2251 C 0.73527 0.94429 0.74556 0.0
C2252 C 0.75746 0.94829 0.72881 0.0
C2253 C 0.69412 0.93572 0.77976 0.0
C2254 C 0.69971 0.91809 0.77761 0.0
C2255 C 0.72018 0.92264 0.76041 0.0
C2256 C 0.68442 0.8946 0.79224 0.0
C2257 C 0.67203 0.93164 0.79689 0.0
C2258 C 0.67914 0.89086 0.82975 0.0
C2259 C 0.66489 0.86863 0.84317 0.0
C2260 C 0.65568 0.84962 0.81938 0.0
C2261 C 0.66135 0.85349 0.78189 0.0
C2262 C 0.6756 0.87567 0.76855 0.0
H2263 H 0.66777 0.94496 0.78873 0.0
H2264 H 0.6576 0.91457 0.78904 0.0
H2265 H 0.67372 0.93207 0.82717 0.0
H2266 H 0.68619 0.90511 0.84874 0.0
H2267 H 0.66119 0.86635 0.87224 0.0
H2268 H 1.00091 0.76789 0.64712 0.0
H2269 H 0.0366 0.77061 0.66824 0.0
H2270 H 0.00842 0.75131 0.77709 0.0
H2271 H 0.97244 0.74803 0.75556 0.0
H2272 H 0.06134 0.80317 0.71862 0.0
H2273 H 0.04574 0.71915 0.77018 0.0
H2274 H 0.02604 0.72185 0.73984 0.0
H2275 H 0.02629 0.72768 0.78798 0.0
C2276 C 1.00187 0.76287 0.675 0.0
C2277 C 0.98373 0.75717 0.69949 0.0
C2278 C 0.0224 0.76475 0.68722 0.0
C2279 C 0.02531 0.76119 0.7243 0.0
C2280 C 0.00653 0.7537 0.74822 0.0
H2281 H 0.14693 0.80152 0.859 0.0
H2282 H 0.10792 0.7877 0.83655 0.0
C2283 C 0.98585 0.75163 0.73584 0.0
C2284 C 0.04878 0.76886 0.73868 0.0
H2285 H 0.08139 0.75186 0.78643 0.0
C2286 C 0.06573 0.79185 0.73316 0.0
C2287 C 0.0545 0.75426 0.75817 0.0
C2288 C 0.03726 0.72931 0.76418 0.0
C2289 C 0.08809 0.80065 0.74665 0.0
C2290 C 0.09391 0.78601 0.76579 0.0
C2291 C 0.07695 0.76307 0.77169 0.0
C2292 C 0.11761 0.79424 0.77942 0.0
C2293 C 0.10517 0.82571 0.74094 0.0
C2294 C 0.13606 0.80242 0.7548 0.0
C2295 C 0.15837 0.81031 0.76751 0.0
C2296 C 0.16279 0.81012 0.8052 0.0
C2297 C 0.14421 0.80182 0.8298 0.0
C2298 C 0.12188 0.79391 0.81702 0.0
H2299 H 0.09658 0.83574 0.73476 0.0
H2300 H 0.11616 0.83319 0.76551 0.0
H2301 H 0.11639 0.82757 0.71738 0.0
H2302 H 0.13317 0.80243 0.7256 0.0
H2303 H 0.17207 0.81601 0.74762 0.0
H2304 H 0.22977 0.23043 0.64878 0.0
H2305 H 0.22957 0.26415 0.67249 0.0
H2306 H 0.26634 0.26305 0.76846 0.0
H2307 H 0.26656 0.22901 0.74447 0.0
H2308 H 0.22517 0.26131 0.78451 0.0
H2309 H 0.27479 0.33202 0.68712 0.0
H2310 H 0.25441 0.30614 0.66445 0.0
H2311 H 0.27776 0.30686 0.6895 0.0
C2312 C 0.2388 0.23805 0.6741 0.0
C2313 C 0.24857 0.22738 0.69446 0.0
C2314 C 0.2386 0.25731 0.68773 0.0
C2315 C 0.24806 0.26631 0.72219 0.0
C2316 C 0.2591 0.25653 0.74166 0.0
H2317 H 0.2401 0.38285 0.81181 0.0
H2318 H 0.25374 0.35723 0.79145 0.0
C2319 C 0.2595 0.23728 0.72775 0.0
C2320 C 0.24353 0.2837 0.73949 0.0
H2321 H 0.24718 0.33548 0.72434 0.0
C2322 C 0.2303 0.27769 0.77166 0.0
C2323 C 0.25021 0.30511 0.72285 0.0
C2324 C 0.26527 0.31303 0.68927 0.0
C2325 C 0.22285 0.29205 0.78676 0.0
C2326 C 0.2285 0.3129 0.76899 0.0
C2327 C 0.24254 0.31936 0.73771 0.0
C2328 C 0.21995 0.32819 0.78232 0.0
C2329 C 0.20892 0.28474 0.82158 0.0
C2330 C 0.19636 0.3205 0.78377 0.0
C2331 C 0.18844 0.33511 0.79564 0.0
C2332 C 0.20396 0.35776 0.80632 0.0
C2333 C 0.22759 0.3654 0.80459 0.0
C2334 C 0.23547 0.35082 0.79264 0.0
H2335 H 0.21134 0.27186 0.83692 0.0
H2336 H 0.21355 0.29964 0.83976 0.0
H2337 H 0.19049 0.27684 0.81461 0.0
H2338 H 0.18404 0.30324 0.77532 0.0
H2339 H 0.17016 0.32862 0.79662 0.0
H2340 H 0.67344 0.5655 0.48513 0.0
H2341 H 0.70736 0.59894 0.50992 0.0
H2342 H 0.66958 0.59553 0.60735 0.0
H2343 H 0.63538 0.56195 0.58229 0.0
H2344 H 0.71879 0.64348 0.54212 0.0
H2345 H 0.72092 0.58153 0.64087 0.0
H2346 H 0.70311 0.57232 0.60046 0.0
H2347 H 0.69511 0.58317 0.63923 0.0
C2348 C 0.67206 0.57259 0.51105 0.0
C2349 C 0.65172 0.56138 0.53158 0.0
C2350 C 0.69151 0.59157 0.52534 0.0
C2351 C 0.69113 0.59949 0.56072 0.0
C2352 C 0.67028 0.58956 0.58008 0.0
H2353 H 0.81144 0.68394 0.69773 0.0
H2354 H 0.77222 0.65986 0.67571 0.0
C2355 C 0.65066 0.57062 0.56554 0.0
C2356 C 0.71315 0.61603 0.57853 0.0
H2357 H 0.75201 0.61904 0.64172 0.0
C2358 C 0.72597 0.63825 0.56419 0.0
C2359 C 0.72256 0.60914 0.60717 0.0
C2360 C 0.70988 0.58522 0.62283 0.0
C2361 C 0.74799 0.65372 0.57758 0.0
C2362 C 0.75773 0.64657 0.6054 0.0
C2363 C 0.74463 0.62453 0.62036 0.0
C2364 C 0.78168 0.66137 0.61868 0.0
C2365 C 0.76051 0.67762 0.56191 0.0
C2366 C 0.80022 0.66986 0.59417 0.0
C2367 C 0.82269 0.68382 0.60662 0.0
C2368 C 0.82724 0.68944 0.64404 0.0
C2369 C 0.80865 0.68034 0.66867 0.0
C2370 C 0.78617 0.66645 0.65614 0.0
H2371 H 0.74841 0.6826 0.55016 0.0
H2372 H 0.7711 0.69038 0.58309 0.0
H2373 H 0.77195 0.67829 0.53951 0.0
H2374 H 0.79734 0.66571 0.56528 0.0
H2375 H 0.83644 0.69063 0.5867 0.0
H2376 H 0.29241 0.10184 0.65197 0.0
H2377 H 0.31714 0.08736 0.63063 0.0
H2378 H 0.37197 0.15655 0.61332 0.0
H2379 H 0.3475 0.17127 0.63565 0.0
H2380 H 0.3379 0.09325 0.56288 0.0
H2381 H 0.40304 0.12834 0.67328 0.0
H2382 H 0.37562 0.12685 0.67716 0.0
H2383 H 0.3984 0.14955 0.65139 0.0
C2384 C 0.30987 0.11406 0.64433 0.0
C2385 C 0.31801 0.1378 0.64601 0.0
C2386 C 0.32393 0.1057 0.63179 0.0
C2387 C 0.34653 0.12083 0.62082 0.0
C2388 C 0.35473 0.14453 0.62227 0.0
H2389 H 0.44145 0.10898 0.48353 0.0
H2390 H 0.40783 0.10907 0.50799 0.0
C2391 C 0.34064 0.15293 0.63474 0.0
C2392 C 0.36125 0.11178 0.6068 0.0
H2393 H 0.41253 0.11412 0.6202 0.0
C2394 C 0.35412 0.09763 0.57563 0.0
C2395 C 0.38221 0.11709 0.62377 0.0
C2396 C 0.39021 0.1311 0.65847 0.0
C2397 C 0.36785 0.08953 0.56009 0.0
C2398 C 0.38939 0.09589 0.5759 0.0
C2399 C 0.39605 0.10922 0.60797 0.0
C2400 C 0.4063 0.09095 0.55785 0.0
C2401 C 0.35921 0.07436 0.52669 0.0
C2402 C 0.41632 0.08005 0.57706 0.0
C2403 C 0.43549 0.07972 0.56272 0.0
C2404 C 0.44507 0.09057 0.52923 0.0
C2405 C 0.43404 0.09999 0.50897 0.0
C2406 C 0.41485 0.10014 0.52306 0.0
H2407 H 0.3402 0.065 0.52543 0.0
H2408 H 0.36574 0.08512 0.5017 0.0
H2409 H 0.36521 0.06172 0.52637 0.0
H2410 H 0.41014 0.07301 0.60409 0.0
H2411 H 0.44407 0.07296 0.57938 0.0
H2412 H 0.90056 0.33467 0.47933 0.0
H2413 H 0.90007 0.30095 0.50504 0.0
H2414 H 0.93328 0.33912 0.60275 0.0
H2415 H 0.93385 0.37311 0.57681 0.0
H2416 H 0.93243 0.28955 0.53786 0.0
H2417 H 0.86848 0.28786 0.63637 0.0
H2418 H 0.87731 0.30576 0.59603 0.0
H2419 H 0.89599 0.31359 0.635 0.0
C2420 C 0.90876 0.33619 0.50556 0.0
C2421 C 0.91752 0.35656 0.5259 0.0
C2422 C 0.90829 0.31684 0.52038 0.0
C2423 C 0.91624 0.31737 0.55608 0.0
C2424 C 0.92684 0.33828 0.57527 0.0
H2425 H 0.88052 0.19718 0.69379 0.0
H2426 H 0.89572 0.23642 0.6717 0.0
C2427 C 0.92751 0.3578 0.56022 0.0
C2428 C 0.91076 0.29542 0.57421 0.0
H2429 H 0.87493 0.25679 0.63775 0.0
C2430 C 0.92007 0.28248 0.55999 0.0
C2431 C 0.89449 0.28613 0.60294 0.0
C2432 C 0.8833 0.29889 0.61846 0.0
C2433 C 0.91344 0.26047 0.57354 0.0
C2434 C 0.89659 0.25085 0.60143 0.0
C2435 C 0.88777 0.26408 0.61632 0.0
C2436 C 0.88734 0.2269 0.61479 0.0
C2437 C 0.92467 0.24779 0.5579 0.0
C2438 C 0.87702 0.20833 0.59037 0.0
C2439 C 0.86845 0.18585 0.60287 0.0
C2440 C 0.86975 0.18133 0.64023 0.0
C2441 C 0.87951 0.19995 0.66478 0.0
C2442 C 0.88815 0.22244 0.65221 0.0
H2443 H 0.9417 0.25978 0.54592 0.0
H2444 H 0.92686 0.23724 0.57915 0.0
H2445 H 0.91376 0.23626 0.53568 0.0
H2446 H 0.87561 0.21121 0.56153 0.0
H2447 H 0.86129 0.17208 0.58302 0.0
H2448 H 0.29163 0.18912 0.13324 0.0
H2449 H 0.31695 0.22792 0.11063 0.0
H2450 H 0.37392 0.21569 0.11333 0.0
H2451 H 0.34842 0.17653 0.135 0.0
H2452 H 0.35253 0.2636 0.1388 0.0
H2453 H 0.38076 0.2402 0.01184 0.0
H2454 H 0.35767 0.21922 0.03965 0.0
H2455 H 0.38701 0.22875 0.05169 0.0
C2456 C 0.30957 0.1947 0.1291 0.0
C2457 C 0.318 0.1797 0.13591 0.0
C2458 C 0.32404 0.21691 0.11605 0.0
C2459 C 0.34734 0.22475 0.10956 0.0
C2460 C 0.35591 0.20992 0.117 0.0
H2461 H 0.45898 0.36327 0.09708 0.0
H2462 H 0.42556 0.32758 0.11664 0.0
C2463 C 0.34135 0.18756 0.12961 0.0
C2464 C 0.36266 0.24855 0.09582 0.0
H2465 H 0.40244 0.27942 0.03018 0.0
C2466 C 0.36328 0.26702 0.11482 0.0
C2467 C 0.37636 0.25318 0.06403 0.0
C2468 C 0.37526 0.23427 0.0404 0.0
C2469 C 0.3777 0.28985 0.10371 0.0
C2470 C 0.39247 0.29452 0.07331 0.0
C2471 C 0.39129 0.27602 0.05363 0.0
C2472 C 0.41027 0.31829 0.06262 0.0
C2473 C 0.37671 0.30866 0.12455 0.0
C2474 C 0.41287 0.32541 0.02577 0.0
C2475 C 0.43218 0.34588 0.01456 0.0
C2476 C 0.44905 0.35971 0.04005 0.0
C2477 C 0.44574 0.35336 0.07717 0.0
C2478 C 0.42662 0.33284 0.08833 0.0
H2479 H 0.3595 0.3024 0.13684 0.0
H2480 H 0.3893 0.31451 0.14732 0.0
H2481 H 0.38076 0.32354 0.10666 0.0
H2482 H 0.40065 0.31449 0.0053 0.0
H2483 H 0.43478 0.34997 0.98561 0.0
H2484 H 0.81211 0.13113 0.19656 0.0
H2485 H 0.77317 0.11779 0.17442 0.0
H2486 H 0.79881 0.13705 0.06428 0.0
H2487 H 0.83769 0.15004 0.08592 0.0
H2488 H 0.76826 0.15193 0.08597 0.0
H2489 H 0.73222 0.05924 0.11482 0.0
H2490 H 0.74609 0.0781 0.15287 0.0
H2491 H 0.76265 0.07919 0.11357 0.0
C2492 C 0.8095 0.13238 0.16756 0.0
C2493 C 0.82818 0.14169 0.14309 0.0
C2494 C 0.78717 0.12467 0.15494 0.0
C2495 C 0.78299 0.12603 0.11758 0.0
C2496 C 0.8016 0.13571 0.09321 0.0
H2497 H 0.66828 0.1034 0.98221 0.0
H2498 H 0.70383 0.10621 0.00447 0.0
C2499 C 0.82389 0.14336 0.10575 0.0
C2500 C 0.75938 0.11808 0.10388 0.0
H2501 H 0.7062 0.07077 0.09388 0.0
C2502 C 0.75473 0.13418 0.08759 0.0
C2503 C 0.74166 0.09492 0.10624 0.0
C2504 C 0.74584 0.07677 0.12254 0.0
C2505 C 0.73288 0.12784 0.07389 0.0
C2506 C 0.71524 0.1046 0.07561 0.0
C2507 C 0.71976 0.08851 0.0923 0.0
C2508 C 0.69205 0.09708 0.06037 0.0
C2509 C 0.72879 0.14625 0.05832 0.0
C2510 C 0.67294 0.08909 0.08366 0.0
C2511 C 0.65232 0.08686 0.07063 0.0
C2512 C 0.6506 0.09257 0.03419 0.0
C2513 C 0.66902 0.09843 0.01021 0.0
C2514 C 0.68946 0.10041 0.02308 0.0
H2515 H 0.74197 0.16361 0.06762 0.0
H2516 H 0.72953 0.14591 0.02795 0.0
H2517 H 0.71165 0.14338 0.0663 0.0
H2518 H 0.67452 0.08633 0.11251 0.0
H2519 H 0.63861 0.08294 0.08989 0.0
H2520 H 0.90264 0.56632 0.97434 0.0
H2521 H 0.9001 0.59911 0.99696 0.0
H2522 H 0.92444 0.59199 0.10274 0.0
H2523 H 0.92759 0.5595 0.0796 0.0
H2524 H 0.8698 0.59179 0.0507 0.0
H2525 H 0.95549 0.66121 0.09418 0.0
H2526 H 0.95176 0.63844 0.0638 0.0
H2527 H 0.94783 0.63353 0.11237 0.0
C2528 C 0.90871 0.57262 0.00176 0.0
C2529 C 0.91584 0.56075 0.02496 0.0
C2530 C 0.90696 0.59117 0.01486 0.0
C2531 C 0.91205 0.59811 0.05161 0.0
C2532 C 0.92085 0.58735 0.0741 0.0
H2533 H 0.87577 0.68084 0.19122 0.0
H2534 H 0.8889 0.65536 0.16748 0.0
C2535 C 0.92283 0.56886 0.0608 0.0
C2536 C 0.90479 0.61393 0.06735 0.0
H2537 H 0.92338 0.66424 0.11386 0.0
C2538 C 0.8816 0.60772 0.06424 0.0
C2539 C 0.92005 0.63456 0.08556 0.0
C2540 C 0.94521 0.64249 0.08897 0.0
C2541 C 0.87326 0.62145 0.07876 0.0
C2542 C 0.88853 0.64221 0.09654 0.0
C2543 C 0.91168 0.64834 0.10016 0.0
C2544 C 0.88077 0.65788 0.11095 0.0
C2545 C 0.84802 0.61335 0.0755 0.0
C2546 C 0.87193 0.66791 0.08709 0.0
C2547 C 0.86446 0.68252 0.10052 0.0
C2548 C 0.86572 0.68757 0.1382 0.0
C2549 C 0.87466 0.67752 0.16204 0.0
C2550 C 0.88217 0.66291 0.14853 0.0
H2551 H 0.83782 0.59466 0.06998 0.0
H2552 H 0.84144 0.61715 0.10088 0.0
H2553 H 0.84529 0.62242 0.05238 0.0
H2554 H 0.87107 0.66464 0.0579 0.0
H2555 H 0.85824 0.69032 0.08115 0.0
loop_
_geom_bond_atom_site_label_1
_geom_bond_atom_site_label_2
_geom_bond_distance
_geom_bond_site_symmetry_2
_ccdc_geom_bond_type
C0 O16 1.251 . S
C0 O18 1.254 . S
N1 C2 1.333 . S
N1 C6 1.307 1_554 S
N1 Zn7 2.020 . S
C2 N1 1.333 . S
C2 C3 1.379 . S
C2 H20 0.952 . S
C3 C2 1.379 . S
C3 C4 1.390 . S
C3 H30 0.949 . S
C4 C3 1.390 . S
C4 C5 1.357 1_554 S
C5 C4 1.357 1_556 S
C5 C6 1.370 . S
C5 H31 0.950 . S
C6 N1 1.307 1_556 S
C6 C5 1.370 . S
C6 H24 0.948 . S
Zn7 N1 2.020 . S
Zn7 O16 2.039 . S
Zn7 O22 2.034 . S
Zn7 O26 2.025 1_554 S
Zn7 O28 2.024 . S
C8 O27 1.246 . S
C8 O28 1.249 . S
N9 C10 1.307 . S
N9 C11 1.333 1_554 S
N9 Zn15 2.020 . S
C10 N9 1.307 . S
C10 C14 1.370 . S
C10 H21 0.948 . S
C11 N9 1.333 1_556 S
C11 C12 1.379 . S
C11 H19 0.952 . S
C12 C11 1.379 . S
C12 C13 1.390 . S
C12 H32 0.949 . S
C13 C12 1.390 . S
C13 C14 1.357 1_556 S
C14 C10 1.370 . S
C14 C13 1.357 1_554 S
C14 H33 0.950 . S
Zn15 N9 2.020 . S
Zn15 O18 2.025 . S
Zn15 O23 2.024 . S
Zn15 O25 2.039 1_554 S
Zn15 O27 2.034 . S
O16 C0 1.251 . S
O16 Zn7 2.039 . S
C17 O22 1.246 . S
C17 O23 1.249 . S
O18 C0 1.254 . S
O18 Zn15 2.025 . S
H19 C11 0.952 . S
H20 C2 0.952 . S
H21 C10 0.948 . S
O22 Zn7 2.034 . S
O22 C17 1.246 . S
O23 Zn15 2.024 . S
O23 C17 1.249 . S
H24 C6 0.948 . S
O25 Zn15 2.039 1_556 S
O25 C29 1.251 . S
O26 Zn7 2.025 1_556 S
O26 C29 1.254 . S
O27 C8 1.246 . S
O27 Zn15 2.034 . S
O28 Zn7 2.024 . S
O28 C8 1.249 . S
C29 O25 1.251 . S
C29 O26 1.254 . S
H30 C3 0.949 . S
H31 C5 0.950 . S
H32 C12 0.949 . S
H33 C14 0.950 . S
C34 O50 1.251 . S
C34 O52 1.254 . S
N35 C36 1.333 . S
N35 C40 1.307 1_554 S
N35 Zn41 2.020 . S
C36 N35 1.333 . S
C36 C37 1.379 . S
C36 H54 0.952 . S
C37 C36 1.379 . S
C37 C38 1.390 . S
C37 H64 0.949 . S
C38 C37 1.390 . S
C38 C39 1.357 1_554 S
C39 C38 1.357 1_556 S
C39 C40 1.370 . S
C39 H65 0.950 . S
C40 N35 1.307 1_556 S
C40 C39 1.370 . S
C40 H58 0.948 . S
Zn41 N35 2.020 . S
Zn41 O50 2.039 . S
Zn41 O56 2.034 . S
Zn41 O60 2.025 1_554 S
Zn41 O62 2.024 . S
C42 O61 1.246 . S
C42 O62 1.249 . S
N43 C44 1.307 . S
N43 C45 1.333 1_554 S
N43 Zn49 2.020 . S
C44 N43 1.307 . S
C44 C48 1.370 . S
C44 H55 0.948 . S
C45 N43 1.333 1_556 S
C45 C46 1.379 . S
C45 H53 0.952 . S
C46 C45 1.379 . S
C46 C47 1.390 . S
C46 H66 0.949 . S
C47 C46 1.390 . S
C47 C48 1.357 1_556 S
C48 C44 1.370 . S
C48 C47 1.357 1_554 S
C48 H67 0.950 . S
Zn49 N43 2.020 . S
Zn49 O52 2.025 . S
Zn49 O57 2.024 . S
Zn49 O59 2.039 1_554 S
Zn49 O61 2.034 . S
O50 C34 1.251 . S
O50 Zn41 2.039 . S
C51 O56 1.246 . S
C51 O57 1.249 . S
O52 C34 1.254 . S
O52 Zn49 2.025 . S
H53 C45 0.952 . S
H54 C36 0.952 . S
H55 C44 0.948 . S
O56 Zn41 2.034 . S
O56 C51 1.246 . S
O57 Zn49 2.024 . S
O57 C51 1.249 . S
H58 C40 0.948 . S
O59 Zn49 2.039 1_556 S
O59 C63 1.251 . S
O60 Zn41 2.025 1_556 S
O60 C63 1.254 . S
O61 C42 1.246 . S
O61 Zn49 2.034 . S
O62 Zn41 2.024 . S
O62 C42 1.249 . S
C63 O59 1.251 . S
C63 O60 1.254 . S
H64 C37 0.949 . S
H65 C39 0.950 . S
H66 C46 0.949 . S
H67 C48 0.950 . S
C68 O84 1.251 . S
C68 O86 1.254 . S
N69 C70 1.333 . S
N69 C74 1.307 1_554 S
N69 Zn75 2.020 . S
C70 N69 1.333 . S
C70 C71 1.379 . S
C70 H88 0.952 . S
C71 C70 1.379 . S
C71 C72 1.390 . S
C71 H98 0.949 . S
C72 C71 1.390 . S
C72 C73 1.357 1_554 S
C73 C72 1.357 1_556 S
C73 C74 1.370 . S
C73 H99 0.950 . S
C74 N69 1.307 1_556 S
C74 C73 1.370 . S
C74 H92 0.948 . S
Zn75 N69 2.020 . S
Zn75 O84 2.039 . S
Zn75 O90 2.034 . S
Zn75 O94 2.025 1_554 S
Zn75 O96 2.024 . S
C76 O95 1.246 . S
C76 O96 1.249 . S
N77 C78 1.307 . S
N77 C79 1.333 1_554 S
N77 Zn83 2.020 . S
C78 N77 1.307 . S
C78 C82 1.370 . S
C78 H89 0.948 . S
C79 N77 1.333 1_556 S
C79 C80 1.379 . S
C79 H87 0.952 . S
C80 C79 1.379 . S
C80 C81 1.390 . S
C80 H100 0.949 . S
C81 C80 1.390 . S
C81 C82 1.357 1_556 S
C82 C78 1.370 . S
C82 C81 1.357 1_554 S
C82 H101 0.950 . S
Zn83 N77 2.020 . S
Zn83 O86 2.025 . S
Zn83 O91 2.024 . S
Zn83 O93 2.039 1_554 S
Zn83 O95 2.034 . S
O84 C68 1.251 . S
O84 Zn75 2.039 . S
C85 O90 1.246 . S
C85 O91 1.249 . S
O86 C68 1.254 . S
O86 Zn83 2.025 . S
H87 C79 0.952 . S
H88 C70 0.952 . S
H89 C78 0.948 . S
O90 Zn75 2.034 . S
O90 C85 1.246 . S
O91 Zn83 2.024 . S
O91 C85 1.249 . S
H92 C74 0.948 . S
O93 Zn83 2.039 1_556 S
O93 C97 1.251 . S
O94 Zn75 2.025 1_556 S
O94 C97 1.254 . S
O95 C76 1.246 . S
O95 Zn83 2.034 . S
O96 Zn75 2.024 . S
O96 C76 1.249 . S
C97 O93 1.251 . S
C97 O94 1.254 . S
H98 C71 0.949 . S
H99 C73 0.950 . S
H100 C80 0.949 . S
H101 C82 0.950 . S
C102 O118 1.251 . S
C102 O120 1.254 . S
N103 C104 1.333 . S
N103 C108 1.307 . S
N103 Zn109 2.020 . S
C104 N103 1.333 . S
C104 C105 1.379 . S
C104 H122 0.952 . S
C105 C104 1.379 . S
C105 C106 1.390 . S
C105 H132 0.949 . S
C106 C105 1.390 . S
C106 C107 1.357 . S
C107 C106 1.357 . S
C107 C108 1.370 . S
C107 H133 0.950 . S
C108 N103 1.307 . S
C108 C107 1.370 . S
C108 H126 0.948 . S
Zn109 N103 2.020 . S
Zn109 O118 2.039 . S
Zn109 O124 2.034 . S
Zn109 O128 2.025 . S
Zn109 O130 2.024 . S
C110 O129 1.246 . S
C110 O130 1.249 . S
N111 C112 1.307 . S
N111 C113 1.333 . S
N111 Zn117 2.020 . S
C112 N111 1.307 . S
C112 C116 1.370 . S
C112 H123 0.948 . S
C113 N111 1.333 . S
C113 C114 1.379 . S
C113 H121 0.952 . S
C114 C113 1.379 . S
C114 C115 1.390 . S
C114 H134 0.949 . S
C115 C114 1.390 . S
C115 C116 1.357 . S
C116 C112 1.370 . S
C116 C115 1.357 . S
C116 H135 0.950 . S
Zn117 N111 2.020 . S
Zn117 O120 2.025 . S
Zn117 O125 2.024 . S
Zn117 O127 2.039 . S
Zn117 O129 2.034 . S
O118 C102 1.251 . S
O118 Zn109 2.039 . S
C119 O124 1.246 . S
C119 O125 1.249 . S
O120 C102 1.254 . S
O120 Zn117 2.025 . S
H121 C113 0.952 . S
H122 C104 0.952 . S
H123 C112 0.948 . S
O124 Zn109 2.034 . S
O124 C119 1.246 . S
O125 Zn117 2.024 . S
O125 C119 1.249 . S
H126 C108 0.948 . S
O127 Zn117 2.039 . S
O127 C131 1.251 . S
O128 Zn109 2.025 . S
O128 C131 1.254 . S
O129 C110 1.246 . S
O129 Zn117 2.034 . S
O130 Zn109 2.024 . S
O130 C110 1.249 . S
C131 O127 1.251 . S
C131 O128 1.254 . S
H132 C105 0.949 . S
H133 C107 0.950 . S
H134 C114 0.949 . S
H135 C116 0.950 . S
C136 O152 1.251 . S
C136 O154 1.254 . S
N137 C138 1.333 . S
N137 C142 1.307 . S
N137 Zn143 2.020 . S
C138 N137 1.333 . S
C138 C139 1.379 . S
C138 H156 0.952 . S
C139 C138 1.379 . S
C139 C140 1.390 . S
C139 H166 0.949 . S
C140 C139 1.390 . S
C140 C141 1.357 . S
C141 C140 1.357 . S
C141 C142 1.370 . S
C141 H167 0.950 . S
C142 N137 1.307 . S
C142 C141 1.370 . S
C142 H160 0.948 . S
Zn143 N137 2.020 . S
Zn143 O152 2.039 . S
Zn143 O158 2.034 . S
Zn143 O162 2.025 . S
Zn143 O164 2.024 . S
C144 O163 1.246 . S
C144 O164 1.249 . S
N145 C146 1.307 . S
N145 C147 1.333 . S
N145 Zn151 2.020 . S
C146 N145 1.307 . S
C146 C150 1.370 . S
C146 H157 0.948 . S
C147 N145 1.333 . S
C147 C148 1.379 . S
C147 H155 0.952 . S
C148 C147 1.379 . S
C148 C149 1.390 . S
C148 H168 0.949 . S
C149 C148 1.390 . S
C149 C150 1.357 . S
C150 C146 1.370 . S
C150 C149 1.357 . S
C150 H169 0.950 . S
Zn151 N145 2.020 . S
Zn151 O154 2.025 . S
Zn151 O159 2.024 . S
Zn151 O161 2.039 . S
Zn151 O163 2.034 . S
O152 C136 1.251 . S
O152 Zn143 2.039 . S
C153 O158 1.246 . S
C153 O159 1.249 . S
O154 C136 1.254 . S
O154 Zn151 2.025 . S
H155 C147 0.952 . S
H156 C138 0.952 . S
H157 C146 0.948 . S
O158 Zn143 2.034 . S
O158 C153 1.246 . S
O159 Zn151 2.024 . S
O159 C153 1.249 . S
H160 C142 0.948 . S
O161 Zn151 2.039 . S
O161 C165 1.251 . S
O162 Zn143 2.025 . S
O162 C165 1.254 . S
O163 C144 1.246 . S
O163 Zn151 2.034 . S
O164 Zn143 2.024 . S
O164 C144 1.249 . S
C165 O161 1.251 . S
C165 O162 1.254 . S
H166 C139 0.949 . S
H167 C141 0.950 . S
H168 C148 0.949 . S
H169 C150 0.950 . S
C170 O186 1.251 . S
C170 O188 1.254 . S
N171 C172 1.333 . S
N171 C176 1.307 . S
N171 Zn177 2.020 . S
C172 N171 1.333 . S
C172 C173 1.379 . S
C172 H190 0.952 . S
C173 C172 1.379 . S
C173 C174 1.390 . S
C173 H200 0.949 . S
C174 C173 1.390 . S
C174 C175 1.357 . S
C175 C174 1.357 . S
C175 C176 1.370 . S
C175 H201 0.950 . S
C176 N171 1.307 . S
C176 C175 1.370 . S
C176 H194 0.948 . S
Zn177 N171 2.020 . S
Zn177 O186 2.039 . S
Zn177 O192 2.034 . S
Zn177 O196 2.025 . S
Zn177 O198 2.024 . S
C178 O197 1.246 . S
C178 O198 1.249 . S
N179 C180 1.307 . S
N179 C181 1.333 . S
N179 Zn185 2.020 . S
C180 N179 1.307 . S
C180 C184 1.370 . S
C180 H191 0.948 . S
C181 N179 1.333 . S
C181 C182 1.379 . S
C181 H189 0.952 . S
C182 C181 1.379 . S
C182 C183 1.390 . S
C182 H202 0.949 . S
C183 C182 1.390 . S
C183 C184 1.357 . S
C184 C180 1.370 . S
C184 C183 1.357 . S
C184 H203 0.950 . S
Zn185 N179 2.020 . S
Zn185 O188 2.025 . S
Zn185 O193 2.024 . S
Zn185 O195 2.039 . S
Zn185 O197 2.034 . S
O186 C170 1.251 . S
O186 Zn177 2.039 . S
C187 O192 1.246 . S
C187 O193 1.249 . S
O188 C170 1.254 . S
O188 Zn185 2.025 . S
H189 C181 0.952 . S
H190 C172 0.952 . S
H191 C180 0.948 . S
O192 Zn177 2.034 . S
O192 C187 1.246 . S
O193 Zn185 2.024 . S
O193 C187 1.249 . S
H194 C176 0.948 . S
O195 Zn185 2.039 . S
O195 C199 1.251 . S
O196 Zn177 2.025 . S
O196 C199 1.254 . S
O197 C178 1.246 . S
O197 Zn185 2.034 . S
O198 Zn177 2.024 . S
O198 C178 1.249 . S
C199 O195 1.251 . S
C199 O196 1.254 . S
H200 C173 0.949 . S
H201 C175 0.950 . S
H202 C182 0.949 . S
H203 C184 0.950 . S
C204 O220 1.251 . S
C204 O222 1.254 . S
N205 C206 1.333 . S
N205 C210 1.307 . S
N205 Zn211 2.020 . S
C206 N205 1.333 . S
C206 C207 1.379 . S
C206 H224 0.952 . S
C207 C206 1.379 . S
C207 C208 1.390 . S
C207 H234 0.949 . S
C208 C207 1.390 . S
C208 C209 1.357 . S
C209 C208 1.357 . S
C209 C210 1.370 . S
C209 H235 0.950 . S
C210 N205 1.307 . S
C210 C209 1.370 . S
C210 H228 0.948 . S
Zn211 N205 2.020 . S
Zn211 O220 2.039 . S
Zn211 O226 2.034 . S
Zn211 O230 2.025 . S
Zn211 O232 2.024 . S
C212 O231 1.246 . S
C212 O232 1.249 . S
N213 C214 1.307 . S
N213 C215 1.333 . S
N213 Zn219 2.020 . S
C214 N213 1.307 . S
C214 C218 1.370 . S
C214 H225 0.948 . S
C215 N213 1.333 . S
C215 C216 1.379 . S
C215 H223 0.952 . S
C216 C215 1.379 . S
C216 C217 1.390 . S
C216 H236 0.949 . S
C217 C216 1.390 . S
C217 C218 1.357 . S
C218 C214 1.370 . S
C218 C217 1.357 . S
C218 H237 0.950 . S
Zn219 N213 2.020 . S
Zn219 O222 2.025 . S
Zn219 O227 2.024 . S
Zn219 O229 2.039 . S
Zn219 O231 2.034 . S
O220 C204 1.251 . S
O220 Zn211 2.039 . S
C221 O226 1.246 . S
C221 O227 1.249 . S
O222 C204 1.254 . S
O222 Zn219 2.025 . S
H223 C215 0.952 . S
H224 C206 0.952 . S
H225 C214 0.948 . S
O226 Zn211 2.034 . S
O226 C221 1.246 . S
O227 Zn219 2.024 . S
O227 C221 1.249 . S
H228 C210 0.948 . S
O229 Zn219 2.039 . S
O229 C233 1.251 . S
O230 Zn211 2.025 . S
O230 C233 1.254 . S
O231 C212 1.246 . S
O231 Zn219 2.034 . S
O232 Zn211 2.024 . S
O232 C212 1.249 . S
C233 O229 1.251 . S
C233 O230 1.254 . S
H234 C207 0.949 . S
H235 C209 0.950 . S
H236 C216 0.949 . S
H237 C218 0.950 . S
C238 O254 1.251 . S
C238 O256 1.254 . S
N239 C240 1.333 . S
N239 C244 1.307 . S
N239 Zn245 2.020 . S
C240 N239 1.333 . S
C240 C241 1.379 . S
C240 H258 0.952 . S
C241 C240 1.379 . S
C241 C242 1.390 . S
C241 H268 0.949 . S
C242 C241 1.390 . S
C242 C243 1.357 . S
C243 C242 1.357 . S
C243 C244 1.370 . S
C243 H269 0.950 . S
C244 N239 1.307 . S
C244 C243 1.370 . S
C244 H262 0.948 . S
Zn245 N239 2.020 . S
Zn245 O254 2.039 . S
Zn245 O260 2.034 . S
Zn245 O264 2.025 . S
Zn245 O266 2.024 . S
C246 O265 1.246 . S
C246 O266 1.249 . S
N247 C248 1.307 . S
N247 C249 1.333 . S
N247 Zn253 2.020 . S
C248 N247 1.307 . S
C248 C252 1.370 . S
C248 H259 0.948 . S
C249 N247 1.333 . S
C249 C250 1.379 . S
C249 H257 0.952 . S
C250 C249 1.379 . S
C250 C251 1.390 . S
C250 H270 0.949 . S
C251 C250 1.390 . S
C251 C252 1.357 . S
C252 C248 1.370 . S
C252 C251 1.357 . S
C252 H271 0.950 . S
Zn253 N247 2.020 . S
Zn253 O256 2.025 . S
Zn253 O261 2.024 . S
Zn253 O263 2.039 . S
Zn253 O265 2.034 . S
O254 C238 1.251 . S
O254 Zn245 2.039 . S
C255 O260 1.246 . S
C255 O261 1.249 . S
O256 C238 1.254 . S
O256 Zn253 2.025 . S
H257 C249 0.952 . S
H258 C240 0.952 . S
H259 C248 0.948 . S
O260 Zn245 2.034 . S
O260 C255 1.246 . S
O261 Zn253 2.024 . S
O261 C255 1.249 . S
H262 C244 0.948 . S
O263 Zn253 2.039 . S
O263 C267 1.251 . S
O264 Zn245 2.025 . S
O264 C267 1.254 . S
O265 C246 1.246 . S
O265 Zn253 2.034 . S
O266 Zn245 2.024 . S
O266 C246 1.249 . S
C267 O263 1.251 . S
C267 O264 1.254 . S
H268 C241 0.949 . S
H269 C243 0.950 . S
H270 C250 0.949 . S
H271 C252 0.950 . S
C272 O288 1.251 . S
C272 O290 1.254 . S
N273 C274 1.333 . S
N273 C278 1.307 . S
N273 Zn279 2.020 . S
C274 N273 1.333 . S
C274 C275 1.379 . S
C274 H292 0.952 . S
C275 C274 1.379 . S
C275 C276 1.390 . S
C275 H302 0.949 . S
C276 C275 1.390 . S
C276 C277 1.357 . S
C277 C276 1.357 . S
C277 C278 1.370 . S
C277 H303 0.950 . S
C278 N273 1.307 . S
C278 C277 1.370 . S
C278 H296 0.948 . S
Zn279 N273 2.020 . S
Zn279 O288 2.039 . S
Zn279 O294 2.034 . S
Zn279 O298 2.025 . S
Zn279 O300 2.024 . S
C280 O299 1.246 . S
C280 O300 1.249 . S
N281 C282 1.307 . S
N281 C283 1.333 . S
N281 Zn287 2.020 . S
C282 N281 1.307 . S
C282 C286 1.370 . S
C282 H293 0.948 . S
C283 N281 1.333 . S
C283 C284 1.379 . S
C283 H291 0.952 . S
C284 C283 1.379 . S
C284 C285 1.390 . S
C284 H304 0.949 . S
C285 C284 1.390 . S
C285 C286 1.357 . S
C286 C282 1.370 . S
C286 C285 1.357 . S
C286 H305 0.950 . S
Zn287 N281 2.020 . S
Zn287 O290 2.025 . S
Zn287 O295 2.024 . S
Zn287 O297 2.039 . S
Zn287 O299 2.034 . S
O288 C272 1.251 . S
O288 Zn279 2.039 . S
C289 O294 1.246 . S
C289 O295 1.249 . S
O290 C272 1.254 . S
O290 Zn287 2.025 . S
H291 C283 0.952 . S
H292 C274 0.952 . S
H293 C282 0.948 . S
O294 Zn279 2.034 . S
O294 C289 1.246 . S
O295 Zn287 2.024 . S
O295 C289 1.249 . S
H296 C278 0.948 . S
O297 Zn287 2.039 . S
O297 C301 1.251 . S
O298 Zn279 2.025 . S
O298 C301 1.254 . S
O299 C280 1.246 . S
O299 Zn287 2.034 . S
O300 Zn279 2.024 . S
O300 C280 1.249 . S
C301 O297 1.251 . S
C301 O298 1.254 . S
H302 C275 0.949 . S
H303 C277 0.950 . S
H304 C284 0.949 . S
H305 C286 0.950 . S
C306 O322 1.251 . S
C306 O324 1.254 . S
N307 C308 1.333 . S
N307 C312 1.307 . S
N307 Zn313 2.020 . S
C308 N307 1.333 . S
C308 C309 1.379 . S
C308 H326 0.952 . S
C309 C308 1.379 . S
C309 C310 1.390 . S
C309 H336 0.949 . S
C310 C309 1.390 . S
C310 C311 1.357 . S
C311 C310 1.357 . S
C311 C312 1.370 . S
C311 H337 0.950 . S
C312 N307 1.307 . S
C312 C311 1.370 . S
C312 H330 0.948 . S
Zn313 N307 2.020 . S
Zn313 O322 2.039 . S
Zn313 O328 2.034 . S
Zn313 O332 2.025 . S
Zn313 O334 2.024 . S
C314 O333 1.246 . S
C314 O334 1.249 . S
N315 C316 1.307 . S
N315 C317 1.333 . S
N315 Zn321 2.020 . S
C316 N315 1.307 . S
C316 C320 1.370 . S
C316 H327 0.948 . S
C317 N315 1.333 . S
C317 C318 1.379 . S
C317 H325 0.952 . S
C318 C317 1.379 . S
C318 C319 1.390 . S
C318 H338 0.949 . S
C319 C318 1.390 . S
C319 C320 1.357 . S
C320 C316 1.370 . S
C320 C319 1.357 . S
C320 H339 0.950 . S
Zn321 N315 2.020 . S
Zn321 O324 2.025 . S
Zn321 O329 2.024 . S
Zn321 O331 2.039 . S
Zn321 O333 2.034 . S
O322 C306 1.251 . S
O322 Zn313 2.039 . S
C323 O328 1.246 . S
C323 O329 1.249 . S
O324 C306 1.254 . S
O324 Zn321 2.025 . S
H325 C317 0.952 . S
H326 C308 0.952 . S
H327 C316 0.948 . S
O328 Zn313 2.034 . S
O328 C323 1.246 . S
O329 Zn321 2.024 . S
O329 C323 1.249 . S
H330 C312 0.948 . S
O331 Zn321 2.039 . S
O331 C335 1.251 . S
O332 Zn313 2.025 . S
O332 C335 1.254 . S
O333 C314 1.246 . S
O333 Zn321 2.034 . S
O334 Zn313 2.024 . S
O334 C314 1.249 . S
C335 O331 1.251 . S
C335 O332 1.254 . S
H336 C309 0.949 . S
H337 C311 0.950 . S
H338 C318 0.949 . S
H339 C320 0.950 . S
C340 O356 1.251 . S
C340 O358 1.254 . S
N341 C342 1.333 . S
N341 C346 1.307 . S
N341 Zn347 2.020 . S
C342 N341 1.333 . S
C342 C343 1.379 . S
C342 H360 0.952 . S
C343 C342 1.379 . S
C343 C344 1.390 . S
C343 H370 0.949 . S
C344 C343 1.390 . S
C344 C345 1.357 . S
C345 C344 1.357 . S
C345 C346 1.370 . S
C345 H371 0.950 . S
C346 N341 1.307 . S
C346 C345 1.370 . S
C346 H364 0.948 . S
Zn347 N341 2.020 . S
Zn347 O356 2.039 . S
Zn347 O362 2.034 . S
Zn347 O366 2.025 . S
Zn347 O368 2.024 . S
C348 O367 1.246 . S
C348 O368 1.249 . S
N349 C350 1.307 . S
N349 C351 1.333 . S
N349 Zn355 2.020 . S
C350 N349 1.307 . S
C350 C354 1.370 . S
C350 H361 0.948 . S
C351 N349 1.333 . S
C351 C352 1.379 . S
C351 H359 0.952 . S
C352 C351 1.379 . S
C352 C353 1.390 . S
C352 H372 0.949 . S
C353 C352 1.390 . S
C353 C354 1.357 . S
C354 C350 1.370 . S
C354 C353 1.357 . S
C354 H373 0.950 . S
Zn355 N349 2.020 . S
Zn355 O358 2.025 . S
Zn355 O363 2.024 . S
Zn355 O365 2.039 . S
Zn355 O367 2.034 . S
O356 C340 1.251 . S
O356 Zn347 2.039 . S
C357 O362 1.246 . S
C357 O363 1.249 . S
O358 C340 1.254 . S
O358 Zn355 2.025 . S
H359 C351 0.952 . S
H360 C342 0.952 . S
H361 C350 0.948 . S
O362 Zn347 2.034 . S
O362 C357 1.246 . S
O363 Zn355 2.024 . S
O363 C357 1.249 . S
H364 C346 0.948 . S
O365 Zn355 2.039 . S
O365 C369 1.251 . S
O366 Zn347 2.025 . S
O366 C369 1.254 . S
O367 C348 1.246 . S
O367 Zn355 2.034 . S
O368 Zn347 2.024 . S
O368 C348 1.249 . S
C369 O365 1.251 . S
C369 O366 1.254 . S
H370 C343 0.949 . S
H371 C345 0.950 . S
H372 C352 0.949 . S
H373 C354 0.950 . S
C374 O390 1.251 . S
C374 O392 1.254 . S
N375 C376 1.333 . S
N375 C380 1.307 . S
N375 Zn381 2.020 . S
C376 N375 1.333 . S
C376 C377 1.379 . S
C376 H394 0.952 . S
C377 C376 1.379 . S
C377 C378 1.390 . S
C377 H404 0.949 . S
C378 C377 1.390 . S
C378 C379 1.357 . S
C379 C378 1.357 . S
C379 C380 1.370 . S
C379 H405 0.950 . S
C380 N375 1.307 . S
C380 C379 1.370 . S
C380 H398 0.948 . S
Zn381 N375 2.020 . S
Zn381 O390 2.039 . S
Zn381 O396 2.034 . S
Zn381 O400 2.025 . S
Zn381 O402 2.024 . S
C382 O401 1.246 . S
C382 O402 1.249 . S
N383 C384 1.307 . S
N383 C385 1.333 . S
N383 Zn389 2.020 . S
C384 N383 1.307 . S
C384 C388 1.370 . S
C384 H395 0.948 . S
C385 N383 1.333 . S
C385 C386 1.379 . S
C385 H393 0.952 . S
C386 C385 1.379 . S
C386 C387 1.390 . S
C386 H406 0.949 . S
C387 C386 1.390 . S
C387 C388 1.357 . S
C388 C384 1.370 . S
C388 C387 1.357 . S
C388 H407 0.950 . S
Zn389 N383 2.020 . S
Zn389 O392 2.025 . S
Zn389 O397 2.024 . S
Zn389 O399 2.039 . S
Zn389 O401 2.034 . S
O390 C374 1.251 . S
O390 Zn381 2.039 . S
C391 O396 1.246 . S
C391 O397 1.249 . S
O392 C374 1.254 . S
O392 Zn389 2.025 . S
H393 C385 0.952 . S
H394 C376 0.952 . S
H395 C384 0.948 . S
O396 Zn381 2.034 . S
O396 C391 1.246 . S
O397 Zn389 2.024 . S
O397 C391 1.249 . S
H398 C380 0.948 . S
O399 Zn389 2.039 . S
O399 C403 1.251 . S
O400 Zn381 2.025 . S
O400 C403 1.254 . S
O401 C382 1.246 . S
O401 Zn389 2.034 . S
O402 Zn381 2.024 . S
O402 C382 1.249 . S
C403 O399 1.251 . S
C403 O400 1.254 . S
H404 C377 0.949 . S
H405 C379 0.950 . S
H406 C386 0.949 . S
H407 C388 0.950 . S
C408 O424 1.251 . S
C408 O426 1.254 . S
N409 C410 1.333 . S
N409 C414 1.307 . S
N409 Zn415 2.020 . S
C410 N409 1.333 . S
C410 C411 1.379 1_655 S
C410 H428 0.952 . S
C411 C410 1.379 1_455 S
C411 C412 1.390 . S
C411 H438 0.949 . S
C412 C411 1.390 . S
C412 C413 1.357 . S
C413 C412 1.357 . S
C413 C414 1.370 1_455 S
C413 H439 0.950 . S
C414 N409 1.307 . S
C414 C413 1.370 1_655 S
C414 H432 0.948 . S
Zn415 N409 2.020 . S
Zn415 O424 2.039 . S
Zn415 O430 2.034 . S
Zn415 O434 2.025 . S
Zn415 O436 2.024 . S
C416 O435 1.246 . S
C416 O436 1.249 . S
N417 C418 1.307 . S
N417 C419 1.333 . S
N417 Zn423 2.020 . S
C418 N417 1.307 . S
C418 C422 1.370 . S
C418 H429 0.948 . S
C419 N417 1.333 . S
C419 C420 1.379 . S
C419 H427 0.952 . S
C420 C419 1.379 . S
C420 C421 1.390 . S
C420 H440 0.949 . S
C421 C420 1.390 . S
C421 C422 1.357 . S
C422 C418 1.370 . S
C422 C421 1.357 . S
C422 H441 0.950 . S
Zn423 N417 2.020 . S
Zn423 O426 2.025 . S
Zn423 O431 2.024 . S
Zn423 O433 2.039 . S
Zn423 O435 2.034 . S
O424 C408 1.251 . S
O424 Zn415 2.039 . S
C425 O430 1.246 . S
C425 O431 1.249 . S
O426 C408 1.254 . S
O426 Zn423 2.025 . S
H427 C419 0.952 . S
H428 C410 0.952 . S
H429 C418 0.948 . S
O430 Zn415 2.034 . S
O430 C425 1.246 . S
O431 Zn423 2.024 . S
O431 C425 1.249 . S
H432 C414 0.948 . S
O433 Zn423 2.039 . S
O433 C437 1.251 . S
O434 Zn415 2.025 . S
O434 C437 1.254 . S
O435 C416 1.246 . S
O435 Zn423 2.034 . S
O436 Zn415 2.024 . S
O436 C416 1.249 . S
C437 O433 1.251 . S
C437 O434 1.254 . S
H438 C411 0.949 . S
H439 C413 0.950 . S
H440 C420 0.949 . S
H441 C422 0.950 . S
C442 O458 1.251 . S
C442 O460 1.254 . S
N443 C444 1.333 . S
N443 C448 1.307 . S
N443 Zn449 2.020 . S
C444 N443 1.333 . S
C444 C445 1.379 . S
C444 H462 0.952 . S
C445 C444 1.379 . S
C445 C446 1.390 . S
C445 H472 0.949 . S
C446 C445 1.390 . S
C446 C447 1.357 . S
C447 C446 1.357 . S
C447 C448 1.370 . S
C447 H473 0.950 . S
C448 N443 1.307 . S
C448 C447 1.370 . S
C448 H466 0.948 . S
Zn449 N443 2.020 . S
Zn449 O458 2.039 . S
Zn449 O464 2.034 . S
Zn449 O468 2.025 . S
Zn449 O470 2.024 . S
C450 O469 1.246 . S
C450 O470 1.249 . S
N451 C452 1.307 . S
N451 C453 1.333 . S
N451 Zn457 2.020 . S
C452 N451 1.307 . S
C452 C456 1.370 . S
C452 H463 0.948 . S
C453 N451 1.333 . S
C453 C454 1.379 . S
C453 H461 0.952 . S
C454 C453 1.379 . S
C454 C455 1.390 . S
C454 H474 0.949 . S
C455 C454 1.390 . S
C455 C456 1.357 . S
C456 C452 1.370 . S
C456 C455 1.357 . S
C456 H475 0.950 . S
Zn457 N451 2.020 . S
Zn457 O460 2.025 . S
Zn457 O465 2.024 . S
Zn457 O467 2.039 . S
Zn457 O469 2.034 . S
O458 C442 1.251 . S
O458 Zn449 2.039 . S
C459 O464 1.246 . S
C459 O465 1.249 . S
O460 C442 1.254 . S
O460 Zn457 2.025 . S
H461 C453 0.952 . S
H462 C444 0.952 . S
H463 C452 0.948 . S
O464 Zn449 2.034 . S
O464 C459 1.246 . S
O465 Zn457 2.024 . S
O465 C459 1.249 . S
H466 C448 0.948 . S
O467 Zn457 2.039 . S
O467 C471 1.251 . S
O468 Zn449 2.025 . S
O468 C471 1.254 . S
O469 C450 1.246 . S
O469 Zn457 2.034 . S
O470 Zn449 2.024 . S
O470 C450 1.249 . S
C471 O467 1.251 . S
C471 O468 1.254 . S
H472 C445 0.949 . S
H473 C447 0.950 . S
H474 C454 0.949 . S
H475 C456 0.950 . S
C476 O492 1.251 . S
C476 O494 1.254 . S
N477 C478 1.333 . S
N477 C482 1.307 . S
N477 Zn483 2.020 . S
C478 N477 1.333 . S
C478 C479 1.379 1_545 S
C478 H496 0.952 . S
C479 C478 1.379 1_565 S
C479 C480 1.390 . S
C479 H506 0.949 . S
C480 C479 1.390 . S
C480 C481 1.357 . S
C481 C480 1.357 . S
C481 C482 1.370 1_565 S
C481 H507 0.950 . S
C482 N477 1.307 . S
C482 C481 1.370 1_545 S
C482 H500 0.948 . S
Zn483 N477 2.020 . S
Zn483 O492 2.039 . S
Zn483 O498 2.034 . S
Zn483 O502 2.025 . S
Zn483 O504 2.024 . S
C484 O503 1.246 . S
C484 O504 1.249 . S
N485 C486 1.307 . S
N485 C487 1.333 . S
N485 Zn491 2.020 . S
C486 N485 1.307 . S
C486 C490 1.370 . S
C486 H497 0.948 . S
C487 N485 1.333 . S
C487 C488 1.379 . S
C487 H495 0.952 . S
C488 C487 1.379 . S
C488 C489 1.390 . S
C488 H508 0.949 . S
C489 C488 1.390 . S
C489 C490 1.357 . S
C490 C486 1.370 . S
C490 C489 1.357 . S
C490 H509 0.950 . S
Zn491 N485 2.020 . S
Zn491 O494 2.025 . S
Zn491 O499 2.024 . S
Zn491 O501 2.039 . S
Zn491 O503 2.034 . S
O492 C476 1.251 . S
O492 Zn483 2.039 . S
C493 O498 1.246 . S
C493 O499 1.249 . S
O494 C476 1.254 . S
O494 Zn491 2.025 . S
H495 C487 0.952 . S
H496 C478 0.952 . S
H497 C486 0.948 . S
O498 Zn483 2.034 . S
O498 C493 1.246 . S
O499 Zn491 2.024 . S
O499 C493 1.249 . S
H500 C482 0.948 . S
O501 Zn491 2.039 . S
O501 C505 1.251 . S
O502 Zn483 2.025 . S
O502 C505 1.254 . S
O503 C484 1.246 . S
O503 Zn491 2.034 . S
O504 Zn483 2.024 . S
O504 C484 1.249 . S
C505 O501 1.251 . S
C505 O502 1.254 . S
H506 C479 0.949 . S
H507 C481 0.950 . S
H508 C488 0.949 . S
H509 C490 0.950 . S
C510 O526 1.251 . S
C510 O528 1.254 . S
N511 C512 1.333 . S
N511 C516 1.307 . S
N511 Zn517 2.020 . S
C512 N511 1.333 . S
C512 C513 1.379 . S
C512 H530 0.952 . S
C513 C512 1.379 . S
C513 C514 1.390 . S
C513 H540 0.949 . S
C514 C513 1.390 . S
C514 C515 1.357 . S
C515 C514 1.357 . S
C515 C516 1.370 . S
C515 H541 0.950 . S
C516 N511 1.307 . S
C516 C515 1.370 . S
C516 H534 0.948 . S
Zn517 N511 2.020 . S
Zn517 O526 2.039 . S
Zn517 O532 2.034 . S
Zn517 O536 2.025 . S
Zn517 O538 2.024 . S
C518 O537 1.246 . S
C518 O538 1.249 . S
N519 C520 1.307 . S
N519 C521 1.333 . S
N519 Zn525 2.020 . S
C520 N519 1.307 . S
C520 C524 1.370 1_545 S
C520 H531 0.948 . S
C521 N519 1.333 . S
C521 C522 1.379 1_545 S
C521 H529 0.952 . S
C522 C521 1.379 1_565 S
C522 C523 1.390 . S
C522 H542 0.949 . S
C523 C522 1.390 . S
C523 C524 1.357 . S
C524 C520 1.370 1_565 S
C524 C523 1.357 . S
C524 H543 0.950 . S
Zn525 N519 2.020 . S
Zn525 O528 2.025 . S
Zn525 O533 2.024 . S
Zn525 O535 2.039 . S
Zn525 O537 2.034 . S
O526 C510 1.251 . S
O526 Zn517 2.039 . S
C527 O532 1.246 . S
C527 O533 1.249 . S
O528 C510 1.254 . S
O528 Zn525 2.025 . S
H529 C521 0.952 . S
H530 C512 0.952 . S
H531 C520 0.948 . S
O532 Zn517 2.034 . S
O532 C527 1.246 . S
O533 Zn525 2.024 . S
O533 C527 1.249 . S
H534 C516 0.948 . S
O535 Zn525 2.039 . S
O535 C539 1.251 . S
O536 Zn517 2.025 . S
O536 C539 1.254 . S
O537 C518 1.246 . S
O537 Zn525 2.034 . S
O538 Zn517 2.024 . S
O538 C518 1.249 . S
C539 O535 1.251 . S
C539 O536 1.254 . S
H540 C513 0.949 . S
H541 C515 0.950 . S
H542 C522 0.949 . S
H543 C524 0.950 . S
C544 O560 1.251 . S
C544 O562 1.254 . S
N545 C546 1.333 . S
N545 C550 1.307 . S
N545 Zn551 2.020 . S
C546 N545 1.333 . S
C546 C547 1.379 . S
C546 H564 0.952 . S
C547 C546 1.379 . S
C547 C548 1.390 . S
C547 H574 0.949 . S
C548 C547 1.390 . S
C548 C549 1.357 . S
C549 C548 1.357 . S
C549 C550 1.370 . S
C549 H575 0.950 . S
C550 N545 1.307 . S
C550 C549 1.370 . S
C550 H568 0.948 . S
Zn551 N545 2.020 . S
Zn551 O560 2.039 . S
Zn551 O566 2.034 . S
Zn551 O570 2.025 . S
Zn551 O572 2.024 . S
C552 O571 1.246 . S
C552 O572 1.249 . S
N553 C554 1.307 . S
N553 C555 1.333 . S
N553 Zn559 2.020 . S
C554 N553 1.307 . S
C554 C558 1.370 1_655 S
C554 H565 0.948 . S
C555 N553 1.333 . S
C555 C556 1.379 1_655 S
C555 H563 0.952 . S
C556 C555 1.379 1_455 S
C556 C557 1.390 . S
C556 H576 0.949 . S
C557 C556 1.390 . S
C557 C558 1.357 . S
C558 C554 1.370 1_455 S
C558 C557 1.357 . S
C558 H577 0.950 . S
Zn559 N553 2.020 . S
Zn559 O562 2.025 . S
Zn559 O567 2.024 . S
Zn559 O569 2.039 . S
Zn559 O571 2.034 . S
O560 C544 1.251 . S
O560 Zn551 2.039 . S
C561 O566 1.246 . S
C561 O567 1.249 . S
O562 C544 1.254 . S
O562 Zn559 2.025 . S
H563 C555 0.952 . S
H564 C546 0.952 . S
H565 C554 0.948 . S
O566 Zn551 2.034 . S
O566 C561 1.246 . S
O567 Zn559 2.024 . S
O567 C561 1.249 . S
H568 C550 0.948 . S
O569 Zn559 2.039 . S
O569 C573 1.251 . S
O570 Zn551 2.025 . S
O570 C573 1.254 . S
O571 C552 1.246 . S
O571 Zn559 2.034 . S
O572 Zn551 2.024 . S
O572 C552 1.249 . S
C573 O569 1.251 . S
C573 O570 1.254 . S
H574 C547 0.949 . S
H575 C549 0.950 . S
H576 C556 0.949 . S
H577 C558 0.950 . S
C578 O594 1.251 . S
C578 O596 1.254 . S
N579 C580 1.333 . S
N579 C584 1.307 . S
N579 Zn585 2.020 . S
C580 N579 1.333 . S
C580 C581 1.379 . S
C580 H598 0.952 . S
C581 C580 1.379 . S
C581 C582 1.390 . S
C581 H608 0.949 . S
C582 C581 1.390 . S
C582 C583 1.357 . S
C583 C582 1.357 . S
C583 C584 1.370 . S
C583 H609 0.950 . S
C584 N579 1.307 . S
C584 C583 1.370 . S
C584 H602 0.948 . S
Zn585 N579 2.020 . S
Zn585 O594 2.039 . S
Zn585 O600 2.034 . S
Zn585 O604 2.025 . S
Zn585 O606 2.024 . S
C586 O605 1.246 . S
C586 O606 1.249 . S
N587 C588 1.307 . S
N587 C589 1.333 . S
N587 Zn593 2.020 . S
C588 N587 1.307 . S
C588 C592 1.370 . S
C588 H599 0.948 . S
C589 N587 1.333 . S
C589 C590 1.379 . S
C589 H597 0.952 . S
C590 C589 1.379 . S
C590 C591 1.390 . S
C590 H610 0.949 . S
C591 C590 1.390 . S
C591 C592 1.357 . S
C592 C588 1.370 . S
C592 C591 1.357 . S
C592 H611 0.950 . S
Zn593 N587 2.020 . S
Zn593 O596 2.025 . S
Zn593 O601 2.024 . S
Zn593 O603 2.039 . S
Zn593 O605 2.034 . S
O594 C578 1.251 . S
O594 Zn585 2.039 . S
C595 O600 1.246 . S
C595 O601 1.249 . S
O596 C578 1.254 . S
O596 Zn593 2.025 . S
H597 C589 0.952 . S
H598 C580 0.952 . S
H599 C588 0.948 . S
O600 Zn585 2.034 . S
O600 C595 1.246 . S
O601 Zn593 2.024 . S
O601 C595 1.249 . S
H602 C584 0.948 . S
O603 Zn593 2.039 . S
O603 C607 1.251 . S
O604 Zn585 2.025 . S
O604 C607 1.254 . S
O605 C586 1.246 . S
O605 Zn593 2.034 . S
O606 Zn585 2.024 . S
O606 C586 1.249 . S
C607 O603 1.251 . S
C607 O604 1.254 . S
H608 C581 0.949 . S
H609 C583 0.950 . S
H610 C590 0.949 . S
H611 C592 0.950 . S
H612 C620 0.929 . S
H613 C622 0.930 . S
H614 C624 0.930 . S
H615 C627 0.929 . S
H616 C630 0.930 . S
H617 C632 0.960 . S
H618 C632 0.960 . S
H619 C632 0.960 . S
C620 H612 0.929 . S
C620 C621 1.377 . S
C620 C622 1.384 1_556 S
C621 C620 1.377 . S
C621 C627 1.390 . S
C622 H613 0.930 . S
C622 C620 1.384 1_554 S
C622 C623 1.372 . S
C623 C622 1.372 . S
C623 C624 1.400 . S
C623 C628 1.490 . S
C624 H614 0.930 . S
C624 C623 1.400 . S
C624 C627 1.386 1_554 S
H625 C641 0.930 . S
H626 C642 0.931 . S
C627 H615 0.929 . S
C627 C621 1.390 . S
C627 C624 1.386 1_556 S
C628 C623 1.490 . S
C628 C630 1.395 1_554 S
C628 C631 1.403 . S
H629 C635 0.930 . S
C630 H616 0.930 . S
C630 C628 1.395 1_556 S
C630 C633 1.403 . S
C631 C628 1.403 . S
C631 C632 1.524 . S
C631 C635 1.400 . S
C632 H617 0.960 . S
C632 H618 0.960 . S
C632 H619 0.960 . S
C632 C631 1.524 . S
C633 C630 1.403 . S
C633 C634 1.392 1_556 S
C633 C637 1.495 . S
C634 C633 1.392 1_554 S
C634 C635 1.385 . S
C634 C636 1.478 . S
C635 H629 0.930 . S
C635 C631 1.400 . S
C635 C634 1.385 . S
C636 C634 1.478 . S
C636 C638 1.381 . S
C636 C642 1.383 . S
C637 C633 1.495 . S
C637 H643 0.959 . S
C637 H644 0.961 . S
C637 H645 0.960 . S
C638 C636 1.381 . S
C638 C639 1.394 . S
C638 H646 0.930 . S
C639 C638 1.394 . S
C639 C640 1.383 . S
C639 H647 0.929 . S
C640 C639 1.383 . S
C640 C641 1.377 . S
C641 H625 0.930 . S
C641 C640 1.377 . S
C641 C642 1.379 . S
C642 H626 0.931 . S
C642 C636 1.383 . S
C642 C641 1.379 . S
H643 C637 0.959 . S
H644 C637 0.961 . S
H645 C637 0.960 . S
H646 C638 0.930 . S
H647 C639 0.929 . S
H648 C656 0.929 . S
H649 C658 0.930 . S
H650 C660 0.930 . S
H651 C663 0.929 . S
H652 C666 0.930 . S
H653 C668 0.960 . S
H654 C668 0.960 . S
H655 C668 0.960 . S
C656 H648 0.929 . S
C656 C657 1.377 . S
C656 C658 1.384 . S
C657 C656 1.377 . S
C657 C663 1.390 . S
C658 H649 0.930 . S
C658 C656 1.384 . S
C658 C659 1.372 . S
C659 C658 1.372 . S
C659 C660 1.400 . S
C659 C664 1.490 . S
C660 H650 0.930 . S
C660 C659 1.400 . S
C660 C663 1.386 . S
H661 C677 0.933 . S
H662 C678 0.931 . S
C663 H651 0.929 . S
C663 C657 1.390 . S
C663 C660 1.386 . S
C664 C659 1.490 . S
C664 C666 1.395 . S
C664 C667 1.403 1_554 S
H665 C671 0.930 . S
C666 H652 0.930 . S
C666 C664 1.395 . S
C666 C669 1.403 . S
C667 C664 1.403 1_556 S
C667 C668 1.524 . S
C667 C671 1.400 . S
C668 H653 0.960 . S
C668 H654 0.960 . S
C668 H655 0.960 . S
C668 C667 1.524 . S
C669 C666 1.403 . S
C669 C670 1.392 . S
C669 C673 1.495 . S
C670 C669 1.392 . S
C670 C671 1.385 1_554 S
C670 C672 1.478 . S
C671 H665 0.930 . S
C671 C667 1.400 . S
C671 C670 1.385 1_556 S
C672 C670 1.478 . S
C672 C674 1.381 . S
C672 C678 1.383 . S
C673 C669 1.495 . S
C673 H679 0.959 . S
C673 H680 0.961 . S
C673 H681 0.960 . S
C674 C672 1.381 . S
C674 C675 1.394 . S
C674 H682 0.930 . S
C675 C674 1.394 . S
C675 C676 1.383 1_554 S
C675 H683 0.929 . S
C676 C675 1.383 1_556 S
C676 C677 1.378 . S
C677 H661 0.933 . S
C677 C676 1.378 . S
C677 C678 1.375 1_556 S
C678 H662 0.931 . S
C678 C672 1.383 . S
C678 C677 1.375 1_554 S
H679 C673 0.959 . S
H680 C673 0.961 . S
H681 C673 0.960 . S
H682 C674 0.930 . S
H683 C675 0.929 . S
H684 C692 0.929 . S
H685 C694 0.930 . S
H686 C696 0.930 . S
H687 C699 0.929 . S
H688 C702 0.930 . S
H689 C704 0.960 . S
H690 C704 0.960 . S
H691 C704 0.960 . S
C692 H684 0.929 . S
C692 C693 1.377 . S
C692 C694 1.384 . S
C693 C692 1.377 . S
C693 C699 1.390 1_556 S
C694 H685 0.930 . S
C694 C692 1.384 . S
C694 C695 1.372 1_556 S
C695 C694 1.372 1_554 S
C695 C696 1.400 . S
C695 C700 1.490 . S
C696 H686 0.930 . S
C696 C695 1.400 . S
C696 C699 1.386 . S
H697 C713 0.930 . S
H698 C714 0.931 . S
C699 H687 0.929 . S
C699 C693 1.390 1_554 S
C699 C696 1.386 . S
C700 C695 1.490 . S
C700 C702 1.395 . S
C700 C703 1.403 1_554 S
H701 C707 0.930 . S
C702 H688 0.930 . S
C702 C700 1.395 . S
C702 C705 1.403 . S
C703 C700 1.403 1_556 S
C703 C704 1.524 . S
C703 C707 1.400 . S
C704 H689 0.960 . S
C704 H690 0.960 . S
C704 H691 0.960 . S
C704 C703 1.524 . S
C705 C702 1.403 . S
C705 C706 1.392 . S
C705 C709 1.495 . S
C706 C705 1.392 . S
C706 C707 1.385 1_554 S
C706 C708 1.478 . S
C707 H701 0.930 . S
C707 C703 1.400 . S
C707 C706 1.385 1_556 S
C708 C706 1.478 . S
C708 C710 1.381 . S
C708 C714 1.383 . S
C709 C705 1.495 . S
C709 H715 0.959 . S
C709 H716 0.961 . S
C709 H717 0.960 . S
C710 C708 1.381 . S
C710 C711 1.394 . S
C710 H718 0.930 . S
C711 C710 1.394 . S
C711 C712 1.383 . S
C711 H719 0.929 . S
C712 C711 1.383 . S
C712 C713 1.377 . S
C713 H697 0.930 . S
C713 C712 1.377 . S
C713 C714 1.379 . S
C714 H698 0.931 . S
C714 C708 1.383 . S
C714 C713 1.379 . S
H715 C709 0.959 . S
H716 C709 0.961 . S
H717 C709 0.960 . S
H718 C710 0.930 . S
H719 C711 0.929 . S
H720 C728 0.929 . S
H721 C730 0.930 . S
H722 C732 0.930 . S
H723 C735 0.929 . S
H724 C738 0.930 . S
H725 C740 0.960 . S
H726 C740 0.960 . S
H727 C740 0.960 . S
C728 H720 0.929 . S
C728 C729 1.377 . S
C728 C730 1.384 . S
C729 C728 1.377 . S
C729 C735 1.390 . S
C730 H721 0.930 . S
C730 C728 1.384 . S
C730 C731 1.372 . S
C731 C730 1.372 . S
C731 C732 1.400 . S
C731 C736 1.490 . S
C732 H722 0.930 . S
C732 C731 1.400 . S
C732 C735 1.386 . S
H733 C749 0.930 . S
H734 C750 0.931 . S
C735 H723 0.929 . S
C735 C729 1.390 . S
C735 C732 1.386 . S
C736 C731 1.490 . S
C736 C738 1.395 . S
C736 C739 1.403 . S
H737 C743 0.930 . S
C738 H724 0.930 . S
C738 C736 1.395 . S
C738 C741 1.403 . S
C739 C736 1.403 . S
C739 C740 1.524 . S
C739 C743 1.400 . S
C740 H725 0.960 . S
C740 H726 0.960 . S
C740 H727 0.960 . S
C740 C739 1.524 . S
C741 C738 1.403 . S
C741 C742 1.392 . S
C741 C745 1.495 . S
C742 C741 1.392 . S
C742 C743 1.385 . S
C742 C744 1.478 . S
C743 H737 0.930 . S
C743 C739 1.400 . S
C743 C742 1.385 . S
C744 C742 1.478 . S
C744 C746 1.381 . S
C744 C750 1.383 . S
C745 C741 1.495 . S
C745 H751 0.959 . S
C745 H752 0.961 . S
C745 H753 0.960 . S
C746 C744 1.381 . S
C746 C747 1.394 . S
C746 H754 0.930 . S
C747 C746 1.394 . S
C747 C748 1.383 . S
C747 H755 0.929 . S
C748 C747 1.383 . S
C748 C749 1.377 . S
C749 H733 0.930 . S
C749 C748 1.377 . S
C749 C750 1.379 . S
C750 H734 0.931 . S
C750 C744 1.383 . S
C750 C749 1.379 . S
H751 C745 0.959 . S
H752 C745 0.961 . S
H753 C745 0.960 . S
H754 C746 0.930 . S
H755 C747 0.929 . S
H756 C764 0.929 . S
H757 C766 0.930 . S
H758 C768 0.930 . S
H759 C771 0.929 . S
H760 C774 0.930 . S
H761 C776 0.960 . S
H762 C776 0.960 . S
H763 C776 0.960 . S
C764 H756 0.929 . S
C764 C765 1.377 . S
C764 C766 1.384 . S
C765 C764 1.377 . S
C765 C771 1.390 . S
C766 H757 0.930 . S
C766 C764 1.384 . S
C766 C767 1.372 . S
C767 C766 1.372 . S
C767 C768 1.400 . S
C767 C772 1.490 . S
C768 H758 0.930 . S
C768 C767 1.400 . S
C768 C771 1.386 . S
H769 C785 0.930 . S
H770 C786 0.931 . S
C771 H759 0.929 . S
C771 C765 1.390 . S
C771 C768 1.386 . S
C772 C767 1.490 . S
C772 C774 1.395 . S
C772 C775 1.403 . S
H773 C779 0.930 . S
C774 H760 0.930 . S
C774 C772 1.395 . S
C774 C777 1.403 . S
C775 C772 1.403 . S
C775 C776 1.524 . S
C775 C779 1.400 . S
C776 H761 0.960 . S
C776 H762 0.960 . S
C776 H763 0.960 . S
C776 C775 1.524 . S
C777 C774 1.403 . S
C777 C778 1.392 . S
C777 C781 1.495 . S
C778 C777 1.392 . S
C778 C779 1.385 . S
C778 C780 1.478 . S
C779 H773 0.930 . S
C779 C775 1.400 . S
C779 C778 1.385 . S
C780 C778 1.478 . S
C780 C782 1.381 . S
C780 C786 1.383 . S
C781 C777 1.495 . S
C781 H787 0.959 . S
C781 H788 0.961 . S
C781 H789 0.960 . S
C782 C780 1.381 . S
C782 C783 1.394 . S
C782 H790 0.930 . S
C783 C782 1.394 . S
C783 C784 1.383 . S
C783 H791 0.929 . S
C784 C783 1.383 . S
C784 C785 1.377 . S
C785 H769 0.930 . S
C785 C784 1.377 . S
C785 C786 1.379 . S
C786 H770 0.931 . S
C786 C780 1.383 . S
C786 C785 1.379 . S
H787 C781 0.959 . S
H788 C781 0.961 . S
H789 C781 0.960 . S
H790 C782 0.930 . S
H791 C783 0.929 . S
H792 C800 0.929 . S
H793 C802 0.930 . S
H794 C804 0.930 . S
H795 C807 0.929 . S
H796 C810 0.930 . S
H797 C812 0.960 . S
H798 C812 0.960 . S
H799 C812 0.960 . S
C800 H792 0.929 . S
C800 C801 1.377 . S
C800 C802 1.384 . S
C801 C800 1.377 . S
C801 C807 1.390 . S
C802 H793 0.930 . S
C802 C800 1.384 . S
C802 C803 1.372 . S
C803 C802 1.372 . S
C803 C804 1.400 . S
C803 C808 1.490 . S
C804 H794 0.930 . S
C804 C803 1.400 . S
C804 C807 1.386 . S
H805 C821 0.930 . S
H806 C822 0.931 . S
C807 H795 0.929 . S
C807 C801 1.390 . S
C807 C804 1.386 . S
C808 C803 1.490 . S
C808 C810 1.395 . S
C808 C811 1.403 . S
H809 C815 0.930 . S
C810 H796 0.930 . S
C810 C808 1.395 . S
C810 C813 1.403 . S
C811 C808 1.403 . S
C811 C812 1.524 . S
C811 C815 1.400 . S
C812 H797 0.960 . S
C812 H798 0.960 . S
C812 H799 0.960 . S
C812 C811 1.524 . S
C813 C810 1.403 . S
C813 C814 1.392 . S
C813 C817 1.495 . S
C814 C813 1.392 . S
C814 C815 1.385 . S
C814 C816 1.478 . S
C815 H809 0.930 . S
C815 C811 1.400 . S
C815 C814 1.385 . S
C816 C814 1.478 . S
C816 C818 1.381 . S
C816 C822 1.383 . S
C817 C813 1.495 . S
C817 H823 0.959 . S
C817 H824 0.961 . S
C817 H825 0.960 . S
C818 C816 1.381 . S
C818 C819 1.394 . S
C818 H826 0.930 . S
C819 C818 1.394 . S
C819 C820 1.383 . S
C819 H827 0.929 . S
C820 C819 1.383 . S
C820 C821 1.377 . S
C821 H805 0.930 . S
C821 C820 1.377 . S
C821 C822 1.379 . S
C822 H806 0.931 . S
C822 C816 1.383 . S
C822 C821 1.379 . S
H823 C817 0.959 . S
H824 C817 0.961 . S
H825 C817 0.960 . S
H826 C818 0.930 . S
H827 C819 0.929 . S
H828 C836 0.929 . S
H829 C838 0.930 . S
H830 C840 0.930 . S
H831 C843 0.929 . S
H832 C846 0.930 . S
H833 C848 0.960 . S
H834 C848 0.960 . S
H835 C848 0.960 . S
C836 H828 0.929 . S
C836 C837 1.377 . S
C836 C838 1.384 . S
C837 C836 1.377 . S
C837 C843 1.390 . S
C838 H829 0.930 . S
C838 C836 1.384 . S
C838 C839 1.372 . S
C839 C838 1.372 . S
C839 C840 1.400 . S
C839 C844 1.490 . S
C840 H830 0.930 . S
C840 C839 1.400 . S
C840 C843 1.386 . S
H841 C857 0.930 . S
H842 C858 0.931 . S
C843 H831 0.929 . S
C843 C837 1.390 . S
C843 C840 1.386 . S
C844 C839 1.490 . S
C844 C846 1.395 . S
C844 C847 1.403 . S
H845 C851 0.930 . S
C846 H832 0.930 . S
C846 C844 1.395 . S
C846 C849 1.403 . S
C847 C844 1.403 . S
C847 C848 1.524 . S
C847 C851 1.400 . S
C848 H833 0.960 . S
C848 H834 0.960 . S
C848 H835 0.960 . S
C848 C847 1.524 . S
C849 C846 1.403 . S
C849 C850 1.392 . S
C849 C853 1.495 . S
C850 C849 1.392 . S
C850 C851 1.385 . S
C850 C852 1.478 . S
C851 H845 0.930 . S
C851 C847 1.400 . S
C851 C850 1.385 . S
C852 C850 1.478 . S
C852 C854 1.381 . S
C852 C858 1.383 . S
C853 C849 1.495 . S
C853 H859 0.959 . S
C853 H860 0.961 . S
C853 H861 0.960 . S
C854 C852 1.381 . S
C854 C855 1.394 . S
C854 H862 0.930 . S
C855 C854 1.394 . S
C855 C856 1.383 . S
C855 H863 0.929 . S
C856 C855 1.383 . S
C856 C857 1.377 . S
C857 H841 0.930 . S
C857 C856 1.377 . S
C857 C858 1.379 . S
C858 H842 0.931 . S
C858 C852 1.383 . S
C858 C857 1.379 . S
H859 C853 0.959 . S
H860 C853 0.961 . S
H861 C853 0.960 . S
H862 C854 0.930 . S
H863 C855 0.929 . S
H864 C872 0.929 . S
H865 C874 0.930 . S
H866 C876 0.930 . S
H867 C879 0.929 . S
H868 C882 0.930 . S
H869 C884 0.960 . S
H870 C884 0.960 . S
H871 C884 0.960 . S
C872 H864 0.929 . S
C872 C873 1.377 . S
C872 C874 1.384 . S
C873 C872 1.377 . S
C873 C879 1.390 . S
C874 H865 0.930 . S
C874 C872 1.384 . S
C874 C875 1.372 . S
C875 C874 1.372 . S
C875 C876 1.400 . S
C875 C880 1.490 . S
C876 H866 0.930 . S
C876 C875 1.400 . S
C876 C879 1.386 . S
H877 C893 0.930 . S
H878 C894 0.931 . S
C879 H867 0.929 . S
C879 C873 1.390 . S
C879 C876 1.386 . S
C880 C875 1.490 . S
C880 C882 1.395 . S
C880 C883 1.403 . S
H881 C887 0.930 . S
C882 H868 0.930 . S
C882 C880 1.395 . S
C882 C885 1.403 . S
C883 C880 1.403 . S
C883 C884 1.524 . S
C883 C887 1.400 . S
C884 H869 0.960 . S
C884 H870 0.960 . S
C884 H871 0.960 . S
C884 C883 1.524 . S
C885 C882 1.403 . S
C885 C886 1.392 . S
C885 C889 1.495 . S
C886 C885 1.392 . S
C886 C887 1.385 . S
C886 C888 1.478 . S
C887 H881 0.930 . S
C887 C883 1.400 . S
C887 C886 1.385 . S
C888 C886 1.478 . S
C888 C890 1.381 . S
C888 C894 1.383 . S
C889 C885 1.495 . S
C889 H895 0.959 . S
C889 H896 0.961 . S
C889 H897 0.960 . S
C890 C888 1.381 . S
C890 C891 1.394 . S
C890 H898 0.930 . S
C891 C890 1.394 . S
C891 C892 1.383 . S
C891 H899 0.929 . S
C892 C891 1.383 . S
C892 C893 1.377 . S
C893 H877 0.930 . S
C893 C892 1.377 . S
C893 C894 1.379 . S
C894 H878 0.931 . S
C894 C888 1.383 . S
C894 C893 1.379 . S
H895 C889 0.959 . S
H896 C889 0.961 . S
H897 C889 0.960 . S
H898 C890 0.930 . S
H899 C891 0.929 . S
H900 C908 0.929 . S
H901 C910 0.930 . S
H902 C912 0.930 . S
H903 C915 0.929 . S
H904 C918 0.930 . S
H905 C920 0.960 . S
H906 C920 0.960 . S
H907 C920 0.960 . S
C908 H900 0.929 . S
C908 C909 1.377 . S
C908 C910 1.384 . S
C909 C908 1.377 . S
C909 C915 1.390 . S
C910 H901 0.930 . S
C910 C908 1.384 . S
C910 C911 1.372 . S
C911 C910 1.372 . S
C911 C912 1.400 . S
C911 C916 1.490 . S
C912 H902 0.930 . S
C912 C911 1.400 . S
C912 C915 1.386 . S
H913 C929 0.930 . S
H914 C930 0.931 . S
C915 H903 0.929 . S
C915 C909 1.390 . S
C915 C912 1.386 . S
C916 C911 1.490 . S
C916 C918 1.395 . S
C916 C919 1.403 . S
H917 C923 0.930 . S
C918 H904 0.930 . S
C918 C916 1.395 . S
C918 C921 1.403 . S
C919 C916 1.403 . S
C919 C920 1.524 . S
C919 C923 1.400 . S
C920 H905 0.960 . S
C920 H906 0.960 . S
C920 H907 0.960 . S
C920 C919 1.524 . S
C921 C918 1.403 . S
C921 C922 1.392 . S
C921 C925 1.495 . S
C922 C921 1.392 . S
C922 C923 1.385 . S
C922 C924 1.478 . S
C923 H917 0.930 . S
C923 C919 1.400 . S
C923 C922 1.385 . S
C924 C922 1.478 . S
C924 C926 1.381 . S
C924 C930 1.383 . S
C925 C921 1.495 . S
C925 H931 0.959 . S
C925 H932 0.961 . S
C925 H933 0.960 . S
C926 C924 1.381 . S
C926 C927 1.394 . S
C926 H934 0.930 . S
C927 C926 1.394 . S
C927 C928 1.383 . S
C927 H935 0.929 . S
C928 C927 1.383 . S
C928 C929 1.377 . S
C929 H913 0.930 . S
C929 C928 1.377 . S
C929 C930 1.379 . S
C930 H914 0.931 . S
C930 C924 1.383 . S
C930 C929 1.379 . S
H931 C925 0.959 . S
H932 C925 0.961 . S
H933 C925 0.960 . S
H934 C926 0.930 . S
H935 C927 0.929 . S
H936 C944 0.929 . S
H937 C946 0.930 . S
H938 C948 0.930 . S
H939 C951 0.929 . S
H940 C954 0.930 . S
H941 C956 0.960 . S
H942 C956 0.960 . S
H943 C956 0.960 . S
C944 H936 0.929 . S
C944 C945 1.377 . S
C944 C946 1.384 . S
C945 C944 1.377 . S
C945 C951 1.390 . S
C946 H937 0.930 . S
C946 C944 1.384 . S
C946 C947 1.372 . S
C947 C946 1.372 . S
C947 C948 1.400 . S
C947 C952 1.490 . S
C948 H938 0.930 . S
C948 C947 1.400 . S
C948 C951 1.386 . S
H949 C965 0.930 . S
H950 C966 0.931 . S
C951 H939 0.929 . S
C951 C945 1.390 . S
C951 C948 1.386 . S
C952 C947 1.490 . S
C952 C954 1.395 . S
C952 C955 1.403 . S
H953 C959 0.930 . S
C954 H940 0.930 . S
C954 C952 1.395 . S
C954 C957 1.403 . S
C955 C952 1.403 . S
C955 C956 1.524 . S
C955 C959 1.400 . S
C956 H941 0.960 . S
C956 H942 0.960 . S
C956 H943 0.960 . S
C956 C955 1.524 . S
C957 C954 1.403 . S
C957 C958 1.392 . S
C957 C961 1.495 . S
C958 C957 1.392 . S
C958 C959 1.385 . S
C958 C960 1.478 . S
C959 H953 0.930 . S
C959 C955 1.400 . S
C959 C958 1.385 . S
C960 C958 1.478 . S
C960 C962 1.381 . S
C960 C966 1.383 . S
C961 C957 1.495 . S
C961 H967 0.959 . S
C961 H968 0.961 . S
C961 H969 0.960 . S
C962 C960 1.381 . S
C962 C963 1.394 . S
C962 H970 0.930 . S
C963 C962 1.394 . S
C963 C964 1.383 . S
C963 H971 0.929 . S
C964 C963 1.383 . S
C964 C965 1.377 . S
C965 H949 0.930 . S
C965 C964 1.377 . S
C965 C966 1.379 . S
C966 H950 0.931 . S
C966 C960 1.383 . S
C966 C965 1.379 . S
H967 C961 0.959 . S
H968 C961 0.961 . S
H969 C961 0.960 . S
H970 C962 0.930 . S
H971 C963 0.929 . S
H972 C980 0.929 . S
H973 C982 0.930 . S
H974 C984 0.930 . S
H975 C987 0.929 . S
H976 C990 0.930 . S
H977 C992 0.960 . S
H978 C992 0.960 . S
H979 C992 0.960 . S
C980 H972 0.929 . S
C980 C981 1.377 . S
C980 C982 1.384 . S
C981 C980 1.377 . S
C981 C987 1.390 . S
C982 H973 0.930 . S
C982 C980 1.384 . S
C982 C983 1.372 . S
C983 C982 1.372 . S
C983 C984 1.400 . S
C983 C988 1.490 . S
C984 H974 0.930 . S
C984 C983 1.400 . S
C984 C987 1.386 . S
H985 C1001 0.930 . S
H986 C1002 0.931 . S
C987 H975 0.929 . S
C987 C981 1.390 . S
C987 C984 1.386 . S
C988 C983 1.490 . S
C988 C990 1.395 . S
C988 C991 1.403 . S
H989 C995 0.930 . S
C990 H976 0.930 . S
C990 C988 1.395 . S
C990 C993 1.403 . S
C991 C988 1.403 . S
C991 C992 1.524 . S
C991 C995 1.400 . S
C992 H977 0.960 . S
C992 H978 0.960 . S
C992 H979 0.960 . S
C992 C991 1.524 . S
C993 C990 1.403 . S
C993 C994 1.392 . S
C993 C997 1.495 . S
C994 C993 1.392 . S
C994 C995 1.385 . S
C994 C996 1.478 . S
C995 H989 0.930 . S
C995 C991 1.400 . S
C995 C994 1.385 . S
C996 C994 1.478 . S
C996 C998 1.381 . S
C996 C1002 1.383 . S
C997 C993 1.495 . S
C997 H1003 0.959 . S
C997 H1004 0.961 . S
C997 H1005 0.960 . S
C998 C996 1.381 . S
C998 C999 1.394 . S
C998 H1006 0.930 . S
C999 C998 1.394 . S
C999 C1000 1.383 . S
C999 H1007 0.929 . S
C1000 C999 1.383 . S
C1000 C1001 1.377 . S
C1001 H985 0.930 . S
C1001 C1000 1.377 . S
C1001 C1002 1.379 . S
C1002 H986 0.931 . S
C1002 C996 1.383 . S
C1002 C1001 1.379 . S
H1003 C997 0.959 . S
H1004 C997 0.961 . S
H1005 C997 0.960 . S
H1006 C998 0.930 . S
H1007 C999 0.929 . S
H1008 C1016 0.929 . S
H1009 C1018 0.930 . S
H1010 C1020 0.930 . S
H1011 C1023 0.929 . S
H1012 C1026 0.930 . S
H1013 C1028 0.960 . S
H1014 C1028 0.960 . S
H1015 C1028 0.960 . S
C1016 H1008 0.929 . S
C1016 C1017 1.377 . S
C1016 C1018 1.384 . S
C1017 C1016 1.377 . S
C1017 C1023 1.390 . S
C1018 H1009 0.930 . S
C1018 C1016 1.384 . S
C1018 C1019 1.372 . S
C1019 C1018 1.372 . S
C1019 C1020 1.400 . S
C1019 C1024 1.490 . S
C1020 H1010 0.930 . S
C1020 C1019 1.400 . S
C1020 C1023 1.386 . S
H1021 C1037 0.930 . S
H1022 C1038 0.931 . S
C1023 H1011 0.929 . S
C1023 C1017 1.390 . S
C1023 C1020 1.386 . S
C1024 C1019 1.490 . S
C1024 C1026 1.395 . S
C1024 C1027 1.403 . S
H1025 C1031 0.930 . S
C1026 H1012 0.930 . S
C1026 C1024 1.395 . S
C1026 C1029 1.403 . S
C1027 C1024 1.403 . S
C1027 C1028 1.524 . S
C1027 C1031 1.400 . S
C1028 H1013 0.960 . S
C1028 H1014 0.960 . S
C1028 H1015 0.960 . S
C1028 C1027 1.524 . S
C1029 C1026 1.403 . S
C1029 C1030 1.392 . S
C1029 C1033 1.495 . S
C1030 C1029 1.392 . S
C1030 C1031 1.385 . S
C1030 C1032 1.478 . S
C1031 H1025 0.930 . S
C1031 C1027 1.400 . S
C1031 C1030 1.385 . S
C1032 C1030 1.478 . S
C1032 C1034 1.381 . S
C1032 C1038 1.383 . S
C1033 C1029 1.495 . S
C1033 H1039 0.959 . S
C1033 H1040 0.961 . S
C1033 H1041 0.960 . S
C1034 C1032 1.381 . S
C1034 C1035 1.394 . S
C1034 H1042 0.930 . S
C1035 C1034 1.394 . S
C1035 C1036 1.383 . S
C1035 H1043 0.929 . S
C1036 C1035 1.383 . S
C1036 C1037 1.377 . S
C1037 H1021 0.930 . S
C1037 C1036 1.377 . S
C1037 C1038 1.379 . S
C1038 H1022 0.931 . S
C1038 C1032 1.383 . S
C1038 C1037 1.379 . S
H1039 C1033 0.959 . S
H1040 C1033 0.961 . S
H1041 C1033 0.960 . S
H1042 C1034 0.930 . S
H1043 C1035 0.929 . S
H1044 C1052 0.929 . S
H1045 C1054 0.930 . S
H1046 C1056 0.930 . S
H1047 C1059 0.929 . S
H1048 C1062 0.930 . S
H1049 C1064 0.960 . S
H1050 C1064 0.960 . S
H1051 C1064 0.960 . S
C1052 H1044 0.929 . S
C1052 C1053 1.377 . S
C1052 C1054 1.384 . S
C1053 C1052 1.377 . S
C1053 C1059 1.390 . S
C1054 H1045 0.930 . S
C1054 C1052 1.384 . S
C1054 C1055 1.372 . S
C1055 C1054 1.372 . S
C1055 C1056 1.400 . S
C1055 C1060 1.490 . S
C1056 H1046 0.930 . S
C1056 C1055 1.400 . S
C1056 C1059 1.386 . S
H1057 C1073 0.930 . S
H1058 C1074 0.931 . S
C1059 H1047 0.929 . S
C1059 C1053 1.390 . S
C1059 C1056 1.386 . S
C1060 C1055 1.490 . S
C1060 C1062 1.395 . S
C1060 C1063 1.403 . S
H1061 C1067 0.930 . S
C1062 H1048 0.930 . S
C1062 C1060 1.395 . S
C1062 C1065 1.403 . S
C1063 C1060 1.403 . S
C1063 C1064 1.524 . S
C1063 C1067 1.400 . S
C1064 H1049 0.960 . S
C1064 H1050 0.960 . S
C1064 H1051 0.960 . S
C1064 C1063 1.524 . S
C1065 C1062 1.403 . S
C1065 C1066 1.392 . S
C1065 C1069 1.495 . S
C1066 C1065 1.392 . S
C1066 C1067 1.385 . S
C1066 C1068 1.478 . S
C1067 H1061 0.930 . S
C1067 C1063 1.400 . S
C1067 C1066 1.385 . S
C1068 C1066 1.478 . S
C1068 C1070 1.381 . S
C1068 C1074 1.383 . S
C1069 C1065 1.495 . S
C1069 H1075 0.959 . S
C1069 H1076 0.961 . S
C1069 H1077 0.960 . S
C1070 C1068 1.381 . S
C1070 C1071 1.394 . S
C1070 H1078 0.930 . S
C1071 C1070 1.394 . S
C1071 C1072 1.383 . S
C1071 H1079 0.929 . S
C1072 C1071 1.383 . S
C1072 C1073 1.377 . S
C1073 H1057 0.930 . S
C1073 C1072 1.377 . S
C1073 C1074 1.379 . S
C1074 H1058 0.931 . S
C1074 C1068 1.383 . S
C1074 C1073 1.379 . S
H1075 C1069 0.959 . S
H1076 C1069 0.961 . S
H1077 C1069 0.960 . S
H1078 C1070 0.930 . S
H1079 C1071 0.929 . S
H1080 C1088 0.929 . S
H1081 C1090 0.930 . S
H1082 C1092 0.930 . S
H1083 C1095 0.929 . S
H1084 C1098 0.930 . S
H1085 C1100 0.960 . S
H1086 C1100 0.960 . S
H1087 C1100 0.964 . S
C1088 H1080 0.929 . S
C1088 C1089 1.377 . S
C1088 C1090 1.384 . S
C1089 C1088 1.377 . S
C1089 C1095 1.390 . S
C1090 H1081 0.930 . S
C1090 C1088 1.384 . S
C1090 C1091 1.372 . S
C1091 C1090 1.372 . S
C1091 C1092 1.400 . S
C1091 C1096 1.490 . S
C1092 H1082 0.930 . S
C1092 C1091 1.400 . S
C1092 C1095 1.386 . S
H1093 C1109 0.930 . S
H1094 C1110 0.931 . S
C1095 H1083 0.929 . S
C1095 C1089 1.390 . S
C1095 C1092 1.386 . S
C1096 C1091 1.490 . S
C1096 C1098 1.395 . S
C1096 C1099 1.403 1_545 S
H1097 C1103 0.930 . S
C1098 H1084 0.930 . S
C1098 C1096 1.395 . S
C1098 C1101 1.403 1_545 S
C1099 C1096 1.403 1_565 S
C1099 C1100 1.524 . S
C1099 C1103 1.400 . S
C1100 H1085 0.960 . S
C1100 H1086 0.960 . S
C1100 H1087 0.964 . S
C1100 C1099 1.524 . S
C1101 C1098 1.403 1_565 S
C1101 C1102 1.392 . S
C1101 C1105 1.495 . S
C1102 C1101 1.392 . S
C1102 C1103 1.385 . S
C1102 C1104 1.478 . S
C1103 H1097 0.930 . S
C1103 C1099 1.400 . S
C1103 C1102 1.385 . S
C1104 C1102 1.478 . S
C1104 C1106 1.381 . S
C1104 C1110 1.383 . S
C1105 C1101 1.495 . S
C1105 H1111 0.959 1_565 S
C1105 H1112 0.961 . S
C1105 H1113 0.960 . S
C1106 C1104 1.381 . S
C1106 C1107 1.394 . S
C1106 H1114 0.930 . S
C1107 C1106 1.394 . S
C1107 C1108 1.383 . S
C1107 H1115 0.929 . S
C1108 C1107 1.383 . S
C1108 C1109 1.377 . S
C1109 H1093 0.930 . S
C1109 C1108 1.377 . S
C1109 C1110 1.379 . S
C1110 H1094 0.931 . S
C1110 C1104 1.383 . S
C1110 C1109 1.379 . S
H1111 C1105 0.959 1_545 S
H1112 C1105 0.961 . S
H1113 C1105 0.960 . S
H1114 C1106 0.930 . S
H1115 C1107 0.929 . S
H1116 C1124 0.929 . S
H1117 C1126 0.930 . S
H1118 C1128 0.930 . S
H1119 C1131 0.929 . S
H1120 C1134 0.930 1_655 S
H1121 C1136 0.960 . S
H1122 C1136 0.960 . S
H1123 C1136 0.960 . S
C1124 H1116 0.929 . S
C1124 C1125 1.377 . S
C1124 C1126 1.384 . S
C1125 C1124 1.377 . S
C1125 C1131 1.390 . S
C1126 H1117 0.930 . S
C1126 C1124 1.384 . S
C1126 C1127 1.372 . S
C1127 C1126 1.372 . S
C1127 C1128 1.400 . S
C1127 C1132 1.490 . S
C1128 H1118 0.930 . S
C1128 C1127 1.400 . S
C1128 C1131 1.386 . S
H1129 C1145 0.930 . S
H1130 C1146 0.931 . S
C1131 H1119 0.929 . S
C1131 C1125 1.390 . S
C1131 C1128 1.386 . S
C1132 C1127 1.490 . S
C1132 C1134 1.395 1_655 S
C1132 C1135 1.403 . S
H1133 C1139 0.930 . S
C1134 H1120 0.930 1_455 S
C1134 C1132 1.395 1_455 S
C1134 C1137 1.403 . S
C1135 C1132 1.403 . S
C1135 C1136 1.524 . S
C1135 C1139 1.400 1_655 S
C1136 H1121 0.960 . S
C1136 H1122 0.960 . S
C1136 H1123 0.960 . S
C1136 C1135 1.524 . S
C1137 C1134 1.403 . S
C1137 C1138 1.392 . S
C1137 C1141 1.495 . S
C1138 C1137 1.392 . S
C1138 C1139 1.385 . S
C1138 C1140 1.478 . S
C1139 H1133 0.930 . S
C1139 C1135 1.400 1_455 S
C1139 C1138 1.385 . S
C1140 C1138 1.478 . S
C1140 C1142 1.381 . S
C1140 C1146 1.383 . S
C1141 C1137 1.495 . S
C1141 H1147 0.959 . S
C1141 H1148 0.961 . S
C1141 H1149 0.960 . S
C1142 C1140 1.381 . S
C1142 C1143 1.394 . S
C1142 H1150 0.930 . S
C1143 C1142 1.394 . S
C1143 C1144 1.383 . S
C1143 H1151 0.929 . S
C1144 C1143 1.383 . S
C1144 C1145 1.377 . S
C1145 H1129 0.930 . S
C1145 C1144 1.377 . S
C1145 C1146 1.379 . S
C1146 H1130 0.931 . S
C1146 C1140 1.383 . S
C1146 C1145 1.379 . S
H1147 C1141 0.959 . S
H1148 C1141 0.961 . S
H1149 C1141 0.960 . S
H1150 C1142 0.930 . S
H1151 C1143 0.929 . S
H1152 C1160 0.929 . S
H1153 C1162 0.930 . S
H1154 C1164 0.930 . S
H1155 C1167 0.929 . S
H1156 C1170 0.930 . S
H1157 C1172 0.960 . S
H1158 C1172 0.960 . S
H1159 C1172 0.960 . S
C1160 H1152 0.929 . S
C1160 C1161 1.377 . S
C1160 C1162 1.384 . S
C1161 C1160 1.377 . S
C1161 C1167 1.390 . S
C1162 H1153 0.930 . S
C1162 C1160 1.384 . S
C1162 C1163 1.372 . S
C1163 C1162 1.372 . S
C1163 C1164 1.400 . S
C1163 C1168 1.490 . S
C1164 H1154 0.930 . S
C1164 C1163 1.400 . S
C1164 C1167 1.386 . S
H1165 C1181 0.930 . S
H1166 C1182 0.931 . S
C1167 H1155 0.929 . S
C1167 C1161 1.390 . S
C1167 C1164 1.386 . S
C1168 C1163 1.490 . S
C1168 C1170 1.395 . S
C1168 C1171 1.403 . S
H1169 C1175 0.930 . S
C1170 H1156 0.930 . S
C1170 C1168 1.395 . S
C1170 C1173 1.403 . S
C1171 C1168 1.403 . S
C1171 C1172 1.524 . S
C1171 C1175 1.400 . S
C1172 H1157 0.960 . S
C1172 H1158 0.960 . S
C1172 H1159 0.960 . S
C1172 C1171 1.524 . S
C1173 C1170 1.403 . S
C1173 C1174 1.392 . S
C1173 C1177 1.495 . S
C1174 C1173 1.392 . S
C1174 C1175 1.385 . S
C1174 C1176 1.478 . S
C1175 H1169 0.930 . S
C1175 C1171 1.400 . S
C1175 C1174 1.385 . S
C1176 C1174 1.478 . S
C1176 C1178 1.381 . S
C1176 C1182 1.383 . S
C1177 C1173 1.495 . S
C1177 H1183 0.959 . S
C1177 H1184 0.961 . S
C1177 H1185 0.960 . S
C1178 C1176 1.381 . S
C1178 C1179 1.394 . S
C1178 H1186 0.930 . S
C1179 C1178 1.394 . S
C1179 C1180 1.383 . S
C1179 H1187 0.929 . S
C1180 C1179 1.383 . S
C1180 C1181 1.377 . S
C1181 H1165 0.930 . S
C1181 C1180 1.377 . S
C1181 C1182 1.379 . S
C1182 H1166 0.931 . S
C1182 C1176 1.383 . S
C1182 C1181 1.379 . S
H1183 C1177 0.959 . S
H1184 C1177 0.961 . S
H1185 C1177 0.960 . S
H1186 C1178 0.930 . S
H1187 C1179 0.929 . S
H1188 C1196 0.929 . S
H1189 C1198 0.930 . S
H1190 C1200 0.930 . S
H1191 C1203 0.929 . S
H1192 C1206 0.930 . S
H1193 C1208 0.960 . S
H1194 C1208 0.960 . S
H1195 C1208 0.960 . S
C1196 H1188 0.929 . S
C1196 C1197 1.377 . S
C1196 C1198 1.384 . S
C1197 C1196 1.377 . S
C1197 C1203 1.390 . S
C1198 H1189 0.930 . S
C1198 C1196 1.384 . S
C1198 C1199 1.372 . S
C1199 C1198 1.372 . S
C1199 C1200 1.400 . S
C1199 C1204 1.490 . S
C1200 H1190 0.930 . S
C1200 C1199 1.400 . S
C1200 C1203 1.386 . S
H1201 C1217 0.930 . S
H1202 C1218 0.931 . S
C1203 H1191 0.929 . S
C1203 C1197 1.390 . S
C1203 C1200 1.386 . S
C1204 C1199 1.490 . S
C1204 C1206 1.395 . S
C1204 C1207 1.403 . S
H1205 C1211 0.930 . S
C1206 H1192 0.930 . S
C1206 C1204 1.395 . S
C1206 C1209 1.403 1_565 S
C1207 C1204 1.403 . S
C1207 C1208 1.524 . S
C1207 C1211 1.400 1_565 S
C1208 H1193 0.960 . S
C1208 H1194 0.960 . S
C1208 H1195 0.960 . S
C1208 C1207 1.524 . S
C1209 C1206 1.403 1_545 S
C1209 C1210 1.392 . S
C1209 C1213 1.495 . S
C1210 C1209 1.392 . S
C1210 C1211 1.385 . S
C1210 C1212 1.478 . S
C1211 H1205 0.930 . S
C1211 C1207 1.400 1_545 S
C1211 C1210 1.385 . S
C1212 C1210 1.478 . S
C1212 C1214 1.381 . S
C1212 C1218 1.383 . S
C1213 C1209 1.495 . S
C1213 H1219 0.959 . S
C1213 H1220 0.961 . S
C1213 H1221 0.960 . S
C1214 C1212 1.381 . S
C1214 C1215 1.394 . S
C1214 H1222 0.930 . S
C1215 C1214 1.394 . S
C1215 C1216 1.383 . S
C1215 H1223 0.929 . S
C1216 C1215 1.383 . S
C1216 C1217 1.377 . S
C1217 H1201 0.930 . S
C1217 C1216 1.377 . S
C1217 C1218 1.379 . S
C1218 H1202 0.931 . S
C1218 C1212 1.383 . S
C1218 C1217 1.379 . S
H1219 C1213 0.959 . S
H1220 C1213 0.961 . S
H1221 C1213 0.960 . S
H1222 C1214 0.930 . S
H1223 C1215 0.929 . S
H1224 C1232 0.929 . S
H1225 C1234 0.930 . S
H1226 C1236 0.930 . S
H1227 C1239 0.929 . S
H1228 C1242 0.930 . S
H1229 C1244 0.960 1_655 S
H1230 C1244 0.960 . S
H1231 C1244 0.960 . S
C1232 H1224 0.929 . S
C1232 C1233 1.377 . S
C1232 C1234 1.384 . S
C1233 C1232 1.377 . S
C1233 C1239 1.390 . S
C1234 H1225 0.930 . S
C1234 C1232 1.384 . S
C1234 C1235 1.372 . S
C1235 C1234 1.372 . S
C1235 C1236 1.400 . S
C1235 C1240 1.490 . S
C1236 H1226 0.930 . S
C1236 C1235 1.400 . S
C1236 C1239 1.386 . S
H1237 C1253 0.930 . S
H1238 C1254 0.931 . S
C1239 H1227 0.929 . S
C1239 C1233 1.390 . S
C1239 C1236 1.386 . S
C1240 C1235 1.490 . S
C1240 C1242 1.395 . S
C1240 C1243 1.403 . S
H1241 C1247 0.930 . S
C1242 H1228 0.930 . S
C1242 C1240 1.395 . S
C1242 C1245 1.403 . S
C1243 C1240 1.403 . S
C1243 C1244 1.524 . S
C1243 C1247 1.400 1_455 S
C1244 H1229 0.960 1_455 S
C1244 H1230 0.960 . S
C1244 H1231 0.960 . S
C1244 C1243 1.524 . S
C1245 C1242 1.403 . S
C1245 C1246 1.392 1_455 S
C1245 C1249 1.495 . S
C1246 C1245 1.392 1_655 S
C1246 C1247 1.385 . S
C1246 C1248 1.478 . S
C1247 H1241 0.930 . S
C1247 C1243 1.400 1_655 S
C1247 C1246 1.385 . S
C1248 C1246 1.478 . S
C1248 C1250 1.381 . S
C1248 C1254 1.383 . S
C1249 C1245 1.495 . S
C1249 H1255 0.959 . S
C1249 H1256 0.961 . S
C1249 H1257 0.960 1_455 S
C1250 C1248 1.381 . S
C1250 C1251 1.394 . S
C1250 H1258 0.930 . S
C1251 C1250 1.394 . S
C1251 C1252 1.383 . S
C1251 H1259 0.929 . S
C1252 C1251 1.383 . S
C1252 C1253 1.377 . S
C1253 H1237 0.930 . S
C1253 C1252 1.377 . S
C1253 C1254 1.379 . S
C1254 H1238 0.931 . S
C1254 C1248 1.383 . S
C1254 C1253 1.379 . S
H1255 C1249 0.959 . S
H1256 C1249 0.961 . S
H1257 C1249 0.960 1_655 S
H1258 C1250 0.930 . S
H1259 C1251 0.929 . S
H1260 C1268 0.929 . S
H1261 C1270 0.930 . S
H1262 C1272 0.930 . S
H1263 C1275 0.929 . S
H1264 C1278 0.930 . S
H1265 C1280 0.960 . S
H1266 C1280 0.960 . S
H1267 C1280 0.960 . S
C1268 H1260 0.929 . S
C1268 C1269 1.377 . S
C1268 C1270 1.384 . S
C1269 C1268 1.377 . S
C1269 C1275 1.390 . S
C1270 H1261 0.930 . S
C1270 C1268 1.384 . S
C1270 C1271 1.372 . S
C1271 C1270 1.372 . S
C1271 C1272 1.400 . S
C1271 C1276 1.490 . S
C1272 H1262 0.930 . S
C1272 C1271 1.400 . S
C1272 C1275 1.386 . S
H1273 C1289 0.930 . S
H1274 C1290 0.931 . S
C1275 H1263 0.929 . S
C1275 C1269 1.390 . S
C1275 C1272 1.386 . S
C1276 C1271 1.490 . S
C1276 C1278 1.395 . S
C1276 C1279 1.403 . S
H1277 C1283 0.930 . S
C1278 H1264 0.930 . S
C1278 C1276 1.395 . S
C1278 C1281 1.403 . S
C1279 C1276 1.403 . S
C1279 C1280 1.524 . S
C1279 C1283 1.400 . S
C1280 H1265 0.960 . S
C1280 H1266 0.960 . S
C1280 H1267 0.960 . S
C1280 C1279 1.524 . S
C1281 C1278 1.403 . S
C1281 C1282 1.392 . S
C1281 C1285 1.495 . S
C1282 C1281 1.392 . S
C1282 C1283 1.385 . S
C1282 C1284 1.478 . S
C1283 H1277 0.930 . S
C1283 C1279 1.400 . S
C1283 C1282 1.385 . S
C1284 C1282 1.478 . S
C1284 C1286 1.381 . S
C1284 C1290 1.383 . S
C1285 C1281 1.495 . S
C1285 H1291 0.959 . S
C1285 H1292 0.961 . S
C1285 H1293 0.960 . S
C1286 C1284 1.381 . S
C1286 C1287 1.394 . S
C1286 H1294 0.930 . S
C1287 C1286 1.394 . S
C1287 C1288 1.383 . S
C1287 H1295 0.929 . S
C1288 C1287 1.383 . S
C1288 C1289 1.377 . S
C1289 H1273 0.930 . S
C1289 C1288 1.377 . S
C1289 C1290 1.379 . S
C1290 H1274 0.931 . S
C1290 C1284 1.383 . S
C1290 C1289 1.379 . S
H1291 C1285 0.959 . S
H1292 C1285 0.961 . S
H1293 C1285 0.960 . S
H1294 C1286 0.930 . S
H1295 C1287 0.929 . S
H1296 C1304 0.929 . S
H1297 C1306 0.930 . S
H1298 C1308 0.930 . S
H1299 C1311 0.929 . S
H1300 C1314 0.930 . S
H1301 C1316 0.960 . S
H1302 C1316 0.960 . S
H1303 C1316 0.960 . S
C1304 H1296 0.929 . S
C1304 C1305 1.377 . S
C1304 C1306 1.384 . S
C1305 C1304 1.377 . S
C1305 C1311 1.390 . S
C1306 H1297 0.930 . S
C1306 C1304 1.384 . S
C1306 C1307 1.372 . S
C1307 C1306 1.372 . S
C1307 C1308 1.400 . S
C1307 C1312 1.490 . S
C1308 H1298 0.930 . S
C1308 C1307 1.400 . S
C1308 C1311 1.386 . S
H1309 C1325 0.930 . S
H1310 C1326 0.931 . S
C1311 H1299 0.929 . S
C1311 C1305 1.390 . S
C1311 C1308 1.386 . S
C1312 C1307 1.490 . S
C1312 C1314 1.395 . S
C1312 C1315 1.403 . S
H1313 C1319 0.930 . S
C1314 H1300 0.930 . S
C1314 C1312 1.395 . S
C1314 C1317 1.403 . S
C1315 C1312 1.403 . S
C1315 C1316 1.524 . S
C1315 C1319 1.400 . S
C1316 H1301 0.960 . S
C1316 H1302 0.960 . S
C1316 H1303 0.960 . S
C1316 C1315 1.524 . S
C1317 C1314 1.403 . S
C1317 C1318 1.392 . S
C1317 C1321 1.495 . S
C1318 C1317 1.392 . S
C1318 C1319 1.385 . S
C1318 C1320 1.478 . S
C1319 H1313 0.930 . S
C1319 C1315 1.400 . S
C1319 C1318 1.385 . S
C1320 C1318 1.478 . S
C1320 C1322 1.381 . S
C1320 C1326 1.383 . S
C1321 C1317 1.495 . S
C1321 H1327 0.959 . S
C1321 H1328 0.961 . S
C1321 H1329 0.960 . S
C1322 C1320 1.381 . S
C1322 C1323 1.394 . S
C1322 H1330 0.930 . S
C1323 C1322 1.394 . S
C1323 C1324 1.383 . S
C1323 H1331 0.929 . S
C1324 C1323 1.383 . S
C1324 C1325 1.377 . S
C1325 H1309 0.930 . S
C1325 C1324 1.377 . S
C1325 C1326 1.379 . S
C1326 H1310 0.931 . S
C1326 C1320 1.383 . S
C1326 C1325 1.379 . S
H1327 C1321 0.959 . S
H1328 C1321 0.961 . S
H1329 C1321 0.960 . S
H1330 C1322 0.930 . S
H1331 C1323 0.929 . S
H1332 C1340 0.929 . S
H1333 C1342 0.930 . S
H1334 C1344 0.930 . S
H1335 C1347 0.929 . S
H1336 C1350 0.930 . S
H1337 C1352 0.960 . S
H1338 C1352 0.960 . S
H1339 C1352 0.960 . S
C1340 H1332 0.929 . S
C1340 C1341 1.377 . S
C1340 C1342 1.384 . S
C1341 C1340 1.377 . S
C1341 C1347 1.390 . S
C1342 H1333 0.930 . S
C1342 C1340 1.384 . S
C1342 C1343 1.372 . S
C1343 C1342 1.372 . S
C1343 C1344 1.400 . S
C1343 C1348 1.490 . S
C1344 H1334 0.930 . S
C1344 C1343 1.400 . S
C1344 C1347 1.386 . S
H1345 C1361 0.930 . S
H1346 C1362 0.931 . S
C1347 H1335 0.929 . S
C1347 C1341 1.390 . S
C1347 C1344 1.386 . S
C1348 C1343 1.490 . S
C1348 C1350 1.395 . S
C1348 C1351 1.403 . S
H1349 C1355 0.930 . S
C1350 H1336 0.930 . S
C1350 C1348 1.395 . S
C1350 C1353 1.403 . S
C1351 C1348 1.403 . S
C1351 C1352 1.524 . S
C1351 C1355 1.400 . S
C1352 H1337 0.960 . S
C1352 H1338 0.960 . S
C1352 H1339 0.960 . S
C1352 C1351 1.524 . S
C1353 C1350 1.403 . S
C1353 C1354 1.392 . S
C1353 C1357 1.495 . S
C1354 C1353 1.392 . S
C1354 C1355 1.385 . S
C1354 C1356 1.478 . S
C1355 H1349 0.930 . S
C1355 C1351 1.400 . S
C1355 C1354 1.385 . S
C1356 C1354 1.478 . S
C1356 C1358 1.381 . S
C1356 C1362 1.383 . S
C1357 C1353 1.495 . S
C1357 H1363 0.959 . S
C1357 H1364 0.961 . S
C1357 H1365 0.960 . S
C1358 C1356 1.381 . S
C1358 C1359 1.394 . S
C1358 H1366 0.930 . S
C1359 C1358 1.394 . S
C1359 C1360 1.383 . S
C1359 H1367 0.929 . S
C1360 C1359 1.383 . S
C1360 C1361 1.377 . S
C1361 H1345 0.930 . S
C1361 C1360 1.377 . S
C1361 C1362 1.379 . S
C1362 H1346 0.931 . S
C1362 C1356 1.383 . S
C1362 C1361 1.379 . S
H1363 C1357 0.959 . S
H1364 C1357 0.961 . S
H1365 C1357 0.960 . S
H1366 C1358 0.930 . S
H1367 C1359 0.929 . S
H1368 C1376 0.929 . S
H1369 C1378 0.930 . S
H1370 C1380 0.930 . S
H1371 C1383 0.929 . S
H1372 C1386 0.930 . S
H1373 C1388 0.960 . S
H1374 C1388 0.960 . S
H1375 C1388 0.960 . S
C1376 H1368 0.929 . S
C1376 C1377 1.377 . S
C1376 C1378 1.384 . S
C1377 C1376 1.377 . S
C1377 C1383 1.390 . S
C1378 H1369 0.930 . S
C1378 C1376 1.384 . S
C1378 C1379 1.372 . S
C1379 C1378 1.372 . S
C1379 C1380 1.400 . S
C1379 C1384 1.490 . S
C1380 H1370 0.930 . S
C1380 C1379 1.400 . S
C1380 C1383 1.386 . S
H1381 C1397 0.930 . S
H1382 C1398 0.931 . S
C1383 H1371 0.929 . S
C1383 C1377 1.390 . S
C1383 C1380 1.386 . S
C1384 C1379 1.490 . S
C1384 C1386 1.395 . S
C1384 C1387 1.403 . S
H1385 C1391 0.930 . S
C1386 H1372 0.930 . S
C1386 C1384 1.395 . S
C1386 C1389 1.403 . S
C1387 C1384 1.403 . S
C1387 C1388 1.524 . S
C1387 C1391 1.400 . S
C1388 H1373 0.960 . S
C1388 H1374 0.960 . S
C1388 H1375 0.960 . S
C1388 C1387 1.524 . S
C1389 C1386 1.403 . S
C1389 C1390 1.392 . S
C1389 C1393 1.495 . S
C1390 C1389 1.392 . S
C1390 C1391 1.385 . S
C1390 C1392 1.478 . S
C1391 H1385 0.930 . S
C1391 C1387 1.400 . S
C1391 C1390 1.385 . S
C1392 C1390 1.478 . S
C1392 C1394 1.381 . S
C1392 C1398 1.383 . S
C1393 C1389 1.495 . S
C1393 H1399 0.959 . S
C1393 H1400 0.961 . S
C1393 H1401 0.960 . S
C1394 C1392 1.381 . S
C1394 C1395 1.394 . S
C1394 H1402 0.930 . S
C1395 C1394 1.394 . S
C1395 C1396 1.383 . S
C1395 H1403 0.929 . S
C1396 C1395 1.383 . S
C1396 C1397 1.377 . S
C1397 H1381 0.930 . S
C1397 C1396 1.377 . S
C1397 C1398 1.379 . S
C1398 H1382 0.931 . S
C1398 C1392 1.383 . S
C1398 C1397 1.379 . S
H1399 C1393 0.959 . S
H1400 C1393 0.961 . S
H1401 C1393 0.960 . S
H1402 C1394 0.930 . S
H1403 C1395 0.929 . S
H1404 C1412 0.929 . S
H1405 C1414 0.930 . S
H1406 C1416 0.930 . S
H1407 C1419 0.929 . S
H1408 C1422 0.930 . S
H1409 C1424 0.960 . S
H1410 C1424 0.960 . S
H1411 C1424 0.960 . S
C1412 H1404 0.929 . S
C1412 C1413 1.377 . S
C1412 C1414 1.384 . S
C1413 C1412 1.377 . S
C1413 C1419 1.390 . S
C1414 H1405 0.930 . S
C1414 C1412 1.384 . S
C1414 C1415 1.372 . S
C1415 C1414 1.372 . S
C1415 C1416 1.400 . S
C1415 C1420 1.490 . S
C1416 H1406 0.930 . S
C1416 C1415 1.400 . S
C1416 C1419 1.386 . S
H1417 C1433 0.930 . S
H1418 C1434 0.931 . S
C1419 H1407 0.929 . S
C1419 C1413 1.390 . S
C1419 C1416 1.386 . S
C1420 C1415 1.490 . S
C1420 C1422 1.395 . S
C1420 C1423 1.403 . S
H1421 C1427 0.930 . S
C1422 H1408 0.930 . S
C1422 C1420 1.395 . S
C1422 C1425 1.403 . S
C1423 C1420 1.403 . S
C1423 C1424 1.524 . S
C1423 C1427 1.400 . S
C1424 H1409 0.960 . S
C1424 H1410 0.960 . S
C1424 H1411 0.960 . S
C1424 C1423 1.524 . S
C1425 C1422 1.403 . S
C1425 C1426 1.392 . S
C1425 C1429 1.495 . S
C1426 C1425 1.392 . S
C1426 C1427 1.385 . S
C1426 C1428 1.478 . S
C1427 H1421 0.930 . S
C1427 C1423 1.400 . S
C1427 C1426 1.385 . S
C1428 C1426 1.478 . S
C1428 C1430 1.381 . S
C1428 C1434 1.383 . S
C1429 C1425 1.495 . S
C1429 H1435 0.959 . S
C1429 H1436 0.961 . S
C1429 H1437 0.960 . S
C1430 C1428 1.381 . S
C1430 C1431 1.394 . S
C1430 H1438 0.930 . S
C1431 C1430 1.394 . S
C1431 C1432 1.383 . S
C1431 H1439 0.929 . S
C1432 C1431 1.383 . S
C1432 C1433 1.377 . S
C1433 H1417 0.930 . S
C1433 C1432 1.377 . S
C1433 C1434 1.379 . S
C1434 H1418 0.931 . S
C1434 C1428 1.383 . S
C1434 C1433 1.379 . S
H1435 C1429 0.959 . S
H1436 C1429 0.961 . S
H1437 C1429 0.960 . S
H1438 C1430 0.930 . S
H1439 C1431 0.929 . S
H1440 C1448 0.929 . S
H1441 C1450 0.930 . S
H1442 C1452 0.930 . S
H1443 C1455 0.929 . S
H1444 C1458 0.930 . S
H1445 C1460 0.960 . S
H1446 C1460 0.960 . S
H1447 C1460 0.960 . S
C1448 H1440 0.929 . S
C1448 C1449 1.377 . S
C1448 C1450 1.384 . S
C1449 C1448 1.377 . S
C1449 C1455 1.390 . S
C1450 H1441 0.930 . S
C1450 C1448 1.384 . S
C1450 C1451 1.372 . S
C1451 C1450 1.372 . S
C1451 C1452 1.400 . S
C1451 C1456 1.490 . S
C1452 H1442 0.930 . S
C1452 C1451 1.400 . S
C1452 C1455 1.386 . S
H1453 C1469 0.930 . S
H1454 C1470 0.931 . S
C1455 H1443 0.929 . S
C1455 C1449 1.390 . S
C1455 C1452 1.386 . S
C1456 C1451 1.490 . S
C1456 C1458 1.395 . S
C1456 C1459 1.403 . S
H1457 C1463 0.930 . S
C1458 H1444 0.930 . S
C1458 C1456 1.395 . S
C1458 C1461 1.403 . S
C1459 C1456 1.403 . S
C1459 C1460 1.524 . S
C1459 C1463 1.400 . S
C1460 H1445 0.960 . S
C1460 H1446 0.960 . S
C1460 H1447 0.960 . S
C1460 C1459 1.524 . S
C1461 C1458 1.403 . S
C1461 C1462 1.392 . S
C1461 C1465 1.495 . S
C1462 C1461 1.392 . S
C1462 C1463 1.385 . S
C1462 C1464 1.478 . S
C1463 H1457 0.930 . S
C1463 C1459 1.400 . S
C1463 C1462 1.385 . S
C1464 C1462 1.478 . S
C1464 C1466 1.381 . S
C1464 C1470 1.383 . S
C1465 C1461 1.495 . S
C1465 H1471 0.959 . S
C1465 H1472 0.961 . S
C1465 H1473 0.960 . S
C1466 C1464 1.381 . S
C1466 C1467 1.394 . S
C1466 H1474 0.930 . S
C1467 C1466 1.394 . S
C1467 C1468 1.383 . S
C1467 H1475 0.929 . S
C1468 C1467 1.383 . S
C1468 C1469 1.377 . S
C1469 H1453 0.930 . S
C1469 C1468 1.377 . S
C1469 C1470 1.379 . S
C1470 H1454 0.931 . S
C1470 C1464 1.383 . S
C1470 C1469 1.379 . S
H1471 C1465 0.959 . S
H1472 C1465 0.961 . S
H1473 C1465 0.960 . S
H1474 C1466 0.930 . S
H1475 C1467 0.929 . S
H1476 C1484 0.929 . S
H1477 C1486 0.930 . S
H1478 C1488 0.930 . S
H1479 C1491 0.929 . S
H1480 C1494 0.930 . S
H1481 C1496 0.960 . S
H1482 C1496 0.960 . S
H1483 C1496 0.960 . S
C1484 H1476 0.929 . S
C1484 C1485 1.377 . S
C1484 C1486 1.384 . S
C1485 C1484 1.377 . S
C1485 C1491 1.390 . S
C1486 H1477 0.930 . S
C1486 C1484 1.384 . S
C1486 C1487 1.372 . S
C1487 C1486 1.372 . S
C1487 C1488 1.400 . S
C1487 C1492 1.490 . S
C1488 H1478 0.930 . S
C1488 C1487 1.400 . S
C1488 C1491 1.386 . S
H1489 C1505 0.930 . S
H1490 C1506 0.931 . S
C1491 H1479 0.929 . S
C1491 C1485 1.390 . S
C1491 C1488 1.386 . S
C1492 C1487 1.490 . S
C1492 C1494 1.395 . S
C1492 C1495 1.403 . S
H1493 C1499 0.930 . S
C1494 H1480 0.930 . S
C1494 C1492 1.395 . S
C1494 C1497 1.403 . S
C1495 C1492 1.403 . S
C1495 C1496 1.524 . S
C1495 C1499 1.400 . S
C1496 H1481 0.960 . S
C1496 H1482 0.960 . S
C1496 H1483 0.960 . S
C1496 C1495 1.524 . S
C1497 C1494 1.403 . S
C1497 C1498 1.392 . S
C1497 C1501 1.495 . S
C1498 C1497 1.392 . S
C1498 C1499 1.385 . S
C1498 C1500 1.478 . S
C1499 H1493 0.930 . S
C1499 C1495 1.400 . S
C1499 C1498 1.385 . S
C1500 C1498 1.478 . S
C1500 C1502 1.381 . S
C1500 C1506 1.383 . S
C1501 C1497 1.495 . S
C1501 H1507 0.959 . S
C1501 H1508 0.961 . S
C1501 H1509 0.960 . S
C1502 C1500 1.381 . S
C1502 C1503 1.394 . S
C1502 H1510 0.930 . S
C1503 C1502 1.394 . S
C1503 C1504 1.383 . S
C1503 H1511 0.929 . S
C1504 C1503 1.383 . S
C1504 C1505 1.377 . S
C1505 H1489 0.930 . S
C1505 C1504 1.377 . S
C1505 C1506 1.379 . S
C1506 H1490 0.931 . S
C1506 C1500 1.383 . S
C1506 C1505 1.379 . S
H1507 C1501 0.959 . S
H1508 C1501 0.961 . S
H1509 C1501 0.960 . S
H1510 C1502 0.930 . S
H1511 C1503 0.929 . S
H1512 C1520 0.929 . S
H1513 C1522 0.930 . S
H1514 C1524 0.930 . S
H1515 C1527 0.929 . S
H1516 C1530 0.930 . S
H1517 C1532 0.960 . S
H1518 C1532 0.960 . S
H1519 C1532 0.960 . S
C1520 H1512 0.929 . S
C1520 C1521 1.377 . S
C1520 C1522 1.384 . S
C1521 C1520 1.377 . S
C1521 C1527 1.390 . S
C1522 H1513 0.930 . S
C1522 C1520 1.384 . S
C1522 C1523 1.372 . S
C1523 C1522 1.372 . S
C1523 C1524 1.400 . S
C1523 C1528 1.490 . S
C1524 H1514 0.930 . S
C1524 C1523 1.400 . S
C1524 C1527 1.386 . S
H1525 C1541 0.930 . S
H1526 C1542 0.931 . S
C1527 H1515 0.929 . S
C1527 C1521 1.390 . S
C1527 C1524 1.386 . S
C1528 C1523 1.490 . S
C1528 C1530 1.395 . S
C1528 C1531 1.403 . S
H1529 C1535 0.930 . S
C1530 H1516 0.930 . S
C1530 C1528 1.395 . S
C1530 C1533 1.403 . S
C1531 C1528 1.403 . S
C1531 C1532 1.524 . S
C1531 C1535 1.400 . S
C1532 H1517 0.960 . S
C1532 H1518 0.960 . S
C1532 H1519 0.960 . S
C1532 C1531 1.524 . S
C1533 C1530 1.403 . S
C1533 C1534 1.392 . S
C1533 C1537 1.495 . S
C1534 C1533 1.392 . S
C1534 C1535 1.385 . S
C1534 C1536 1.478 . S
C1535 H1529 0.930 . S
C1535 C1531 1.400 . S
C1535 C1534 1.385 . S
C1536 C1534 1.478 . S
C1536 C1538 1.381 . S
C1536 C1542 1.383 . S
C1537 C1533 1.495 . S
C1537 H1543 0.959 . S
C1537 H1544 0.961 . S
C1537 H1545 0.960 . S
C1538 C1536 1.381 . S
C1538 C1539 1.394 . S
C1538 H1546 0.930 . S
C1539 C1538 1.394 . S
C1539 C1540 1.383 . S
C1539 H1547 0.929 . S
C1540 C1539 1.383 . S
C1540 C1541 1.377 . S
C1541 H1525 0.930 . S
C1541 C1540 1.377 . S
C1541 C1542 1.379 . S
C1542 H1526 0.931 . S
C1542 C1536 1.383 . S
C1542 C1541 1.379 . S
H1543 C1537 0.959 . S
H1544 C1537 0.961 . S
H1545 C1537 0.960 . S
H1546 C1538 0.930 . S
H1547 C1539 0.929 . S
H1548 C1556 0.929 . S
H1549 C1558 0.930 . S
H1550 C1560 0.930 . S
H1551 C1563 0.929 . S
H1552 C1566 0.930 . S
H1553 C1568 0.960 . S
H1554 C1568 0.960 . S
H1555 C1568 0.960 . S
C1556 H1548 0.929 . S
C1556 C1557 1.377 . S
C1556 C1558 1.384 . S
C1557 C1556 1.377 . S
C1557 C1563 1.390 . S
C1558 H1549 0.930 . S
C1558 C1556 1.384 . S
C1558 C1559 1.372 . S
C1559 C1558 1.372 . S
C1559 C1560 1.400 . S
C1559 C1564 1.490 . S
C1560 H1550 0.930 . S
C1560 C1559 1.400 . S
C1560 C1563 1.386 . S
H1561 C1577 0.930 . S
H1562 C1578 0.931 . S
C1563 H1551 0.929 . S
C1563 C1557 1.390 . S
C1563 C1560 1.386 . S
C1564 C1559 1.490 . S
C1564 C1566 1.395 . S
C1564 C1567 1.403 . S
H1565 C1571 0.930 . S
C1566 H1552 0.930 . S
C1566 C1564 1.395 . S
C1566 C1569 1.403 . S
C1567 C1564 1.403 . S
C1567 C1568 1.524 . S
C1567 C1571 1.400 . S
C1568 H1553 0.960 . S
C1568 H1554 0.960 . S
C1568 H1555 0.960 . S
C1568 C1567 1.524 . S
C1569 C1566 1.403 . S
C1569 C1570 1.392 . S
C1569 C1573 1.495 . S
C1570 C1569 1.392 . S
C1570 C1571 1.385 . S
C1570 C1572 1.478 . S
C1571 H1565 0.930 . S
C1571 C1567 1.400 . S
C1571 C1570 1.385 . S
C1572 C1570 1.478 . S
C1572 C1574 1.381 . S
C1572 C1578 1.383 . S
C1573 C1569 1.495 . S
C1573 H1579 0.959 . S
C1573 H1580 0.961 . S
C1573 H1581 0.960 . S
C1574 C1572 1.381 . S
C1574 C1575 1.394 . S
C1574 H1582 0.930 . S
C1575 C1574 1.394 . S
C1575 C1576 1.383 . S
C1575 H1583 0.929 . S
C1576 C1575 1.383 . S
C1576 C1577 1.377 . S
C1577 H1561 0.930 . S
C1577 C1576 1.377 . S
C1577 C1578 1.379 . S
C1578 H1562 0.931 . S
C1578 C1572 1.383 . S
C1578 C1577 1.379 . S
H1579 C1573 0.959 . S
H1580 C1573 0.961 . S
H1581 C1573 0.960 . S
H1582 C1574 0.930 . S
H1583 C1575 0.929 . S
H1584 C1592 0.929 . S
H1585 C1594 0.930 . S
H1586 C1596 0.930 . S
H1587 C1599 0.929 . S
H1588 C1602 0.930 . S
H1589 C1604 0.960 . S
H1590 C1604 0.960 . S
H1591 C1604 0.960 . S
C1592 H1584 0.929 . S
C1592 C1593 1.377 . S
C1592 C1594 1.384 1_556 S
C1593 C1592 1.377 . S
C1593 C1599 1.390 . S
C1594 H1585 0.930 . S
C1594 C1592 1.384 1_554 S
C1594 C1595 1.372 . S
C1595 C1594 1.372 . S
C1595 C1596 1.400 1_554 S
C1595 C1600 1.490 . S
C1596 H1586 0.930 . S
C1596 C1595 1.400 1_556 S
C1596 C1599 1.386 . S
H1597 C1613 0.930 . S
H1598 C1614 0.931 . S
C1599 H1587 0.929 . S
C1599 C1593 1.390 . S
C1599 C1596 1.386 . S
C1600 C1595 1.490 . S
C1600 C1602 1.395 . S
C1600 C1603 1.403 . S
H1601 C1607 0.930 . S
C1602 H1588 0.930 . S
C1602 C1600 1.395 . S
C1602 C1605 1.403 . S
C1603 C1600 1.403 . S
C1603 C1604 1.524 . S
C1603 C1607 1.400 . S
C1604 H1589 0.960 . S
C1604 H1590 0.960 . S
C1604 H1591 0.960 . S
C1604 C1603 1.524 . S
C1605 C1602 1.403 . S
C1605 C1606 1.392 . S
C1605 C1609 1.495 . S
C1606 C1605 1.392 . S
C1606 C1607 1.385 . S
C1606 C1608 1.478 . S
C1607 H1601 0.930 . S
C1607 C1603 1.400 . S
C1607 C1606 1.385 . S
C1608 C1606 1.478 . S
C1608 C1610 1.381 . S
C1608 C1614 1.383 . S
C1609 C1605 1.495 . S
C1609 H1615 0.959 . S
C1609 H1616 0.961 . S
C1609 H1617 0.960 . S
C1610 C1608 1.381 . S
C1610 C1611 1.394 . S
C1610 H1618 0.930 . S
C1611 C1610 1.394 . S
C1611 C1612 1.383 . S
C1611 H1619 0.929 . S
C1612 C1611 1.383 . S
C1612 C1613 1.377 . S
C1613 H1597 0.930 . S
C1613 C1612 1.377 . S
C1613 C1614 1.379 . S
C1614 H1598 0.931 . S
C1614 C1608 1.383 . S
C1614 C1613 1.379 . S
H1615 C1609 0.959 . S
H1616 C1609 0.961 . S
H1617 C1609 0.960 . S
H1618 C1610 0.930 . S
H1619 C1611 0.929 . S
H1620 C1628 0.929 . S
H1621 C1630 0.930 1_554 S
H1622 C1632 0.930 1_554 S
H1623 C1635 0.929 . S
H1624 C1638 0.930 . S
H1625 C1640 0.960 . S
H1626 C1640 0.960 . S
H1627 C1640 0.960 . S
C1628 H1620 0.929 . S
C1628 C1629 1.377 . S
C1628 C1630 1.384 . S
C1629 C1628 1.377 . S
C1629 C1635 1.390 . S
C1630 H1621 0.930 1_556 S
C1630 C1628 1.384 . S
C1630 C1631 1.372 1_556 S
C1631 C1630 1.372 1_554 S
C1631 C1632 1.400 1_554 S
C1631 C1636 1.490 . S
C1632 H1622 0.930 1_556 S
C1632 C1631 1.400 1_556 S
C1632 C1635 1.386 . S
H1633 C1649 0.930 . S
H1634 C1650 0.931 . S
C1635 H1623 0.929 . S
C1635 C1629 1.390 . S
C1635 C1632 1.386 . S
C1636 C1631 1.490 . S
C1636 C1638 1.395 . S
C1636 C1639 1.403 . S
H1637 C1643 0.930 . S
C1638 H1624 0.930 . S
C1638 C1636 1.395 . S
C1638 C1641 1.403 . S
C1639 C1636 1.403 . S
C1639 C1640 1.524 . S
C1639 C1643 1.400 . S
C1640 H1625 0.960 . S
C1640 H1626 0.960 . S
C1640 H1627 0.960 . S
C1640 C1639 1.524 . S
C1641 C1638 1.403 . S
C1641 C1642 1.392 . S
C1641 C1645 1.495 . S
C1642 C1641 1.392 . S
C1642 C1643 1.385 . S
C1642 C1644 1.478 . S
C1643 H1637 0.930 . S
C1643 C1639 1.400 . S
C1643 C1642 1.385 . S
C1644 C1642 1.478 . S
C1644 C1646 1.381 . S
C1644 C1650 1.383 . S
C1645 C1641 1.495 . S
C1645 H1651 0.959 . S
C1645 H1652 0.961 . S
C1645 H1653 0.960 . S
C1646 C1644 1.381 . S
C1646 C1647 1.394 . S
C1646 H1654 0.930 . S
C1647 C1646 1.394 . S
C1647 C1648 1.383 . S
C1647 H1655 0.929 . S
C1648 C1647 1.383 . S
C1648 C1649 1.377 . S
C1649 H1633 0.930 . S
C1649 C1648 1.377 . S
C1649 C1650 1.379 . S
C1650 H1634 0.931 . S
C1650 C1644 1.383 . S
C1650 C1649 1.379 . S
H1651 C1645 0.959 . S
H1652 C1645 0.961 . S
H1653 C1645 0.960 . S
H1654 C1646 0.930 . S
H1655 C1647 0.929 . S
H1656 C1664 0.929 . S
H1657 C1666 0.930 1_554 S
H1658 C1668 0.924 1_554 S
H1659 C1671 0.929 . S
H1660 C1674 0.930 . S
H1661 C1676 0.960 . S
H1662 C1676 0.960 . S
H1663 C1676 0.960 . S
C1664 H1656 0.929 . S
C1664 C1665 1.377 . S
C1664 C1666 1.384 . S
C1665 C1664 1.377 . S
C1665 C1671 1.390 . S
C1666 H1657 0.930 1_556 S
C1666 C1664 1.384 . S
C1666 C1667 1.372 1_556 S
C1667 C1666 1.372 1_554 S
C1667 C1668 1.395 1_554 S
C1667 C1672 1.490 . S
C1668 H1658 0.924 1_556 S
C1668 C1667 1.395 1_556 S
C1668 C1671 1.396 . S
H1669 C1685 0.930 . S
H1670 C1686 0.931 . S
C1671 H1659 0.929 . S
C1671 C1665 1.390 . S
C1671 C1668 1.396 . S
C1672 C1667 1.490 . S
C1672 C1674 1.395 . S
C1672 C1675 1.403 . S
H1673 C1679 0.930 . S
C1674 H1660 0.930 . S
C1674 C1672 1.395 . S
C1674 C1677 1.403 . S
C1675 C1672 1.403 . S
C1675 C1676 1.524 . S
C1675 C1679 1.400 . S
C1676 H1661 0.960 . S
C1676 H1662 0.960 . S
C1676 H1663 0.960 . S
C1676 C1675 1.524 . S
C1677 C1674 1.403 . S
C1677 C1678 1.392 . S
C1677 C1681 1.495 . S
C1678 C1677 1.392 . S
C1678 C1679 1.385 . S
C1678 C1680 1.478 . S
C1679 H1673 0.930 . S
C1679 C1675 1.400 . S
C1679 C1678 1.385 . S
C1680 C1678 1.478 . S
C1680 C1682 1.381 . S
C1680 C1686 1.383 . S
C1681 C1677 1.495 . S
C1681 H1687 0.959 . S
C1681 H1688 0.961 . S
C1681 H1689 0.960 . S
C1682 C1680 1.381 . S
C1682 C1683 1.394 . S
C1682 H1690 0.930 . S
C1683 C1682 1.394 . S
C1683 C1684 1.383 . S
C1683 H1691 0.929 . S
C1684 C1683 1.383 . S
C1684 C1685 1.377 . S
C1685 H1669 0.930 . S
C1685 C1684 1.377 . S
C1685 C1686 1.379 . S
C1686 H1670 0.931 . S
C1686 C1680 1.383 . S
C1686 C1685 1.379 . S
H1687 C1681 0.959 . S
H1688 C1681 0.961 . S
H1689 C1681 0.960 . S
H1690 C1682 0.930 . S
H1691 C1683 0.929 . S
H1692 C1700 0.929 . S
H1693 C1702 0.930 . S
H1694 C1704 0.930 . S
H1695 C1707 0.929 . S
H1696 C1710 0.930 . S
H1697 C1712 0.960 . S
H1698 C1712 0.960 . S
H1699 C1712 0.960 . S
C1700 H1692 0.929 . S
C1700 C1701 1.377 . S
C1700 C1702 1.384 . S
C1701 C1700 1.377 . S
C1701 C1707 1.390 . S
C1702 H1693 0.930 . S
C1702 C1700 1.384 . S
C1702 C1703 1.372 . S
C1703 C1702 1.372 . S
C1703 C1704 1.400 . S
C1703 C1708 1.490 . S
C1704 H1694 0.930 . S
C1704 C1703 1.400 . S
C1704 C1707 1.386 . S
H1705 C1721 0.930 . S
H1706 C1722 0.931 1_556 S
C1707 H1695 0.929 . S
C1707 C1701 1.390 . S
C1707 C1704 1.386 . S
C1708 C1703 1.490 . S
C1708 C1710 1.395 . S
C1708 C1711 1.403 . S
H1709 C1715 0.930 . S
C1710 H1696 0.930 . S
C1710 C1708 1.395 . S
C1710 C1713 1.403 . S
C1711 C1708 1.403 . S
C1711 C1712 1.524 . S
C1711 C1715 1.400 . S
C1712 H1697 0.960 . S
C1712 H1698 0.960 . S
C1712 H1699 0.960 . S
C1712 C1711 1.524 . S
C1713 C1710 1.403 . S
C1713 C1714 1.392 . S
C1713 C1717 1.495 . S
C1714 C1713 1.392 . S
C1714 C1715 1.385 . S
C1714 C1716 1.478 1_556 S
C1715 H1709 0.930 . S
C1715 C1711 1.400 . S
C1715 C1714 1.385 . S
C1716 C1714 1.478 1_554 S
C1716 C1718 1.381 . S
C1716 C1722 1.383 . S
C1717 C1713 1.495 . S
C1717 H1723 0.959 . S
C1717 H1724 0.961 . S
C1717 H1725 0.960 . S
C1718 C1716 1.381 . S
C1718 C1719 1.394 . S
C1718 H1726 0.930 . S
C1719 C1718 1.394 . S
C1719 C1720 1.383 . S
C1719 H1727 0.929 . S
C1720 C1719 1.383 . S
C1720 C1721 1.377 . S
C1721 H1705 0.930 . S
C1721 C1720 1.377 . S
C1721 C1722 1.379 . S
C1722 H1706 0.931 1_554 S
C1722 C1716 1.383 . S
C1722 C1721 1.379 . S
H1723 C1717 0.959 . S
H1724 C1717 0.961 . S
H1725 C1717 0.960 . S
H1726 C1718 0.930 . S
H1727 C1719 0.929 . S
H1728 C1736 0.929 . S
H1729 C1738 0.930 . S
H1730 C1740 0.930 . S
H1731 C1743 0.929 . S
H1732 C1746 0.930 . S
H1733 C1748 0.960 . S
H1734 C1748 0.960 . S
H1735 C1748 0.960 . S
C1736 H1728 0.929 . S
C1736 C1737 1.377 . S
C1736 C1738 1.384 . S
C1737 C1736 1.377 . S
C1737 C1743 1.390 . S
C1738 H1729 0.930 . S
C1738 C1736 1.384 . S
C1738 C1739 1.372 . S
C1739 C1738 1.372 . S
C1739 C1740 1.400 . S
C1739 C1744 1.490 . S
C1740 H1730 0.930 . S
C1740 C1739 1.400 . S
C1740 C1743 1.386 . S
H1741 C1757 0.930 . S
H1742 C1758 0.931 . S
C1743 H1731 0.929 . S
C1743 C1737 1.390 . S
C1743 C1740 1.386 . S
C1744 C1739 1.490 . S
C1744 C1746 1.395 . S
C1744 C1747 1.403 . S
H1745 C1751 0.930 . S
C1746 H1732 0.930 . S
C1746 C1744 1.395 . S
C1746 C1749 1.403 . S
C1747 C1744 1.403 . S
C1747 C1748 1.524 . S
C1747 C1751 1.400 . S
C1748 H1733 0.960 . S
C1748 H1734 0.960 . S
C1748 H1735 0.960 . S
C1748 C1747 1.524 . S
C1749 C1746 1.403 . S
C1749 C1750 1.392 . S
C1749 C1753 1.495 . S
C1750 C1749 1.392 . S
C1750 C1751 1.385 . S
C1750 C1752 1.478 . S
C1751 H1745 0.930 . S
C1751 C1747 1.400 . S
C1751 C1750 1.385 . S
C1752 C1750 1.478 . S
C1752 C1754 1.381 1_556 S
C1752 C1758 1.383 1_556 S
C1753 C1749 1.495 . S
C1753 H1759 0.959 . S
C1753 H1760 0.961 . S
C1753 H1761 0.960 . S
C1754 C1752 1.381 1_554 S
C1754 C1755 1.394 . S
C1754 H1762 0.930 1_554 S
C1755 C1754 1.394 . S
C1755 C1756 1.383 . S
C1755 H1763 0.929 . S
C1756 C1755 1.383 . S
C1756 C1757 1.377 . S
C1757 H1741 0.930 . S
C1757 C1756 1.377 . S
C1757 C1758 1.379 . S
C1758 H1742 0.931 . S
C1758 C1752 1.383 1_554 S
C1758 C1757 1.379 . S
H1759 C1753 0.959 . S
H1760 C1753 0.961 . S
H1761 C1753 0.960 . S
H1762 C1754 0.930 1_556 S
H1763 C1755 0.929 . S
H1764 C1772 0.929 . S
H1765 C1774 0.930 . S
H1766 C1776 0.930 . S
H1767 C1779 0.929 . S
H1768 C1782 0.930 . S
H1769 C1784 0.960 . S
H1770 C1784 0.960 . S
H1771 C1784 0.960 . S
C1772 H1764 0.929 . S
C1772 C1773 1.377 . S
C1772 C1774 1.384 . S
C1773 C1772 1.377 . S
C1773 C1779 1.390 . S
C1774 H1765 0.930 . S
C1774 C1772 1.384 . S
C1774 C1775 1.372 . S
C1775 C1774 1.372 . S
C1775 C1776 1.400 . S
C1775 C1780 1.490 . S
C1776 H1766 0.930 . S
C1776 C1775 1.400 . S
C1776 C1779 1.386 . S
H1777 C1793 0.930 . S
H1778 C1794 0.931 1_556 S
C1779 H1767 0.929 . S
C1779 C1773 1.390 . S
C1779 C1776 1.386 . S
C1780 C1775 1.490 . S
C1780 C1782 1.395 . S
C1780 C1783 1.403 . S
H1781 C1787 0.930 . S
C1782 H1768 0.930 . S
C1782 C1780 1.395 . S
C1782 C1785 1.403 . S
C1783 C1780 1.403 . S
C1783 C1784 1.524 . S
C1783 C1787 1.400 . S
C1784 H1769 0.960 . S
C1784 H1770 0.960 . S
C1784 H1771 0.960 . S
C1784 C1783 1.524 . S
C1785 C1782 1.403 . S
C1785 C1786 1.392 . S
C1785 C1789 1.495 . S
C1786 C1785 1.392 . S
C1786 C1787 1.385 . S
C1786 C1788 1.478 1_556 S
C1787 H1781 0.930 . S
C1787 C1783 1.400 . S
C1787 C1786 1.385 . S
C1788 C1786 1.478 1_554 S
C1788 C1790 1.381 . S
C1788 C1794 1.383 . S
C1789 C1785 1.495 . S
C1789 H1795 0.959 . S
C1789 H1796 0.961 . S
C1789 H1797 0.960 . S
C1790 C1788 1.381 . S
C1790 C1791 1.394 . S
C1790 H1798 0.930 . S
C1791 C1790 1.394 . S
C1791 C1792 1.383 . S
C1791 H1799 0.929 . S
C1792 C1791 1.383 . S
C1792 C1793 1.377 . S
C1793 H1777 0.930 . S
C1793 C1792 1.377 . S
C1793 C1794 1.379 . S
C1794 H1778 0.931 1_554 S
C1794 C1788 1.383 . S
C1794 C1793 1.379 . S
H1795 C1789 0.959 . S
H1796 C1789 0.961 . S
H1797 C1789 0.960 . S
H1798 C1790 0.930 . S
H1799 C1791 0.929 . S
H1800 C1808 0.929 . S
H1801 C1810 0.930 . S
H1802 C1812 0.930 . S
H1803 C1815 0.929 . S
H1804 C1818 0.930 . S
H1805 C1820 0.960 . S
H1806 C1820 0.960 . S
H1807 C1820 0.960 . S
C1808 H1800 0.929 . S
C1808 C1809 1.377 . S
C1808 C1810 1.384 . S
C1809 C1808 1.377 . S
C1809 C1815 1.390 . S
C1810 H1801 0.930 . S
C1810 C1808 1.384 . S
C1810 C1811 1.372 . S
C1811 C1810 1.372 . S
C1811 C1812 1.400 . S
C1811 C1816 1.490 . S
C1812 H1802 0.930 . S
C1812 C1811 1.400 . S
C1812 C1815 1.386 . S
H1813 C1829 0.930 . S
H1814 C1830 0.931 . S
C1815 H1803 0.929 . S
C1815 C1809 1.390 . S
C1815 C1812 1.386 . S
C1816 C1811 1.490 . S
C1816 C1818 1.395 . S
C1816 C1819 1.403 . S
H1817 C1823 0.930 . S
C1818 H1804 0.930 . S
C1818 C1816 1.395 . S
C1818 C1821 1.403 . S
C1819 C1816 1.403 . S
C1819 C1820 1.524 . S
C1819 C1823 1.400 . S
C1820 H1805 0.960 . S
C1820 H1806 0.960 . S
C1820 H1807 0.960 . S
C1820 C1819 1.524 . S
C1821 C1818 1.403 . S
C1821 C1822 1.392 . S
C1821 C1825 1.495 . S
C1822 C1821 1.392 . S
C1822 C1823 1.385 . S
C1822 C1824 1.478 . S
C1823 H1817 0.930 . S
C1823 C1819 1.400 . S
C1823 C1822 1.385 . S
C1824 C1822 1.478 . S
C1824 C1826 1.381 . S
C1824 C1830 1.383 . S
C1825 C1821 1.495 . S
C1825 H1831 0.959 . S
C1825 H1832 0.961 . S
C1825 H1833 0.960 . S
C1826 C1824 1.381 . S
C1826 C1827 1.394 . S
C1826 H1834 0.930 . S
C1827 C1826 1.394 . S
C1827 C1828 1.383 . S
C1827 H1835 0.929 . S
C1828 C1827 1.383 . S
C1828 C1829 1.377 . S
C1829 H1813 0.930 . S
C1829 C1828 1.377 . S
C1829 C1830 1.379 . S
C1830 H1814 0.931 . S
C1830 C1824 1.383 . S
C1830 C1829 1.379 . S
H1831 C1825 0.959 . S
H1832 C1825 0.961 . S
H1833 C1825 0.960 . S
H1834 C1826 0.930 . S
H1835 C1827 0.929 . S
H1836 C1844 0.929 . S
H1837 C1846 0.930 . S
H1838 C1848 0.930 . S
H1839 C1851 0.929 . S
H1840 C1854 0.930 . S
H1841 C1856 0.960 . S
H1842 C1856 0.960 . S
H1843 C1856 0.960 . S
C1844 H1836 0.929 . S
C1844 C1845 1.377 . S
C1844 C1846 1.384 . S
C1845 C1844 1.377 . S
C1845 C1851 1.390 . S
C1846 H1837 0.930 . S
C1846 C1844 1.384 . S
C1846 C1847 1.372 . S
C1847 C1846 1.372 . S
C1847 C1848 1.400 . S
C1847 C1852 1.490 . S
C1848 H1838 0.930 . S
C1848 C1847 1.400 . S
C1848 C1851 1.386 . S
H1849 C1865 0.930 . S
H1850 C1866 0.931 . S
C1851 H1839 0.929 . S
C1851 C1845 1.390 . S
C1851 C1848 1.386 . S
C1852 C1847 1.490 . S
C1852 C1854 1.395 . S
C1852 C1855 1.403 . S
H1853 C1859 0.930 . S
C1854 H1840 0.930 . S
C1854 C1852 1.395 . S
C1854 C1857 1.403 . S
C1855 C1852 1.403 . S
C1855 C1856 1.524 . S
C1855 C1859 1.400 . S
C1856 H1841 0.960 . S
C1856 H1842 0.960 . S
C1856 H1843 0.960 . S
C1856 C1855 1.524 . S
C1857 C1854 1.403 . S
C1857 C1858 1.392 . S
C1857 C1861 1.495 . S
C1858 C1857 1.392 . S
C1858 C1859 1.385 . S
C1858 C1860 1.478 . S
C1859 H1853 0.930 . S
C1859 C1855 1.400 . S
C1859 C1858 1.385 . S
C1860 C1858 1.478 . S
C1860 C1862 1.381 . S
C1860 C1866 1.383 . S
C1861 C1857 1.495 . S
C1861 H1867 0.959 . S
C1861 H1868 0.961 . S
C1861 H1869 0.960 . S
C1862 C1860 1.381 . S
C1862 C1863 1.394 . S
C1862 H1870 0.930 . S
C1863 C1862 1.394 . S
C1863 C1864 1.383 . S
C1863 H1871 0.929 . S
C1864 C1863 1.383 . S
C1864 C1865 1.377 . S
C1865 H1849 0.930 . S
C1865 C1864 1.377 . S
C1865 C1866 1.379 . S
C1866 H1850 0.931 . S
C1866 C1860 1.383 . S
C1866 C1865 1.379 . S
H1867 C1861 0.959 . S
H1868 C1861 0.961 . S
H1869 C1861 0.960 . S
H1870 C1862 0.930 . S
H1871 C1863 0.929 . S
H1872 C1880 0.929 . S
H1873 C1882 0.930 . S
H1874 C1884 0.930 . S
H1875 C1887 0.929 . S
H1876 C1890 0.930 . S
H1877 C1892 0.960 . S
H1878 C1892 0.960 . S
H1879 C1892 0.960 . S
C1880 H1872 0.929 . S
C1880 C1881 1.377 . S
C1880 C1882 1.384 . S
C1881 C1880 1.377 . S
C1881 C1887 1.390 . S
C1882 H1873 0.930 . S
C1882 C1880 1.384 . S
C1882 C1883 1.372 . S
C1883 C1882 1.372 . S
C1883 C1884 1.400 . S
C1883 C1888 1.490 . S
C1884 H1874 0.930 . S
C1884 C1883 1.400 . S
C1884 C1887 1.386 . S
H1885 C1901 0.930 . S
H1886 C1902 0.931 . S
C1887 H1875 0.929 . S
C1887 C1881 1.390 . S
C1887 C1884 1.386 . S
C1888 C1883 1.490 . S
C1888 C1890 1.395 . S
C1888 C1891 1.403 . S
H1889 C1895 0.930 . S
C1890 H1876 0.930 . S
C1890 C1888 1.395 . S
C1890 C1893 1.403 . S
C1891 C1888 1.403 . S
C1891 C1892 1.524 . S
C1891 C1895 1.400 . S
C1892 H1877 0.960 . S
C1892 H1878 0.960 . S
C1892 H1879 0.960 . S
C1892 C1891 1.524 . S
C1893 C1890 1.403 . S
C1893 C1894 1.392 . S
C1893 C1897 1.495 . S
C1894 C1893 1.392 . S
C1894 C1895 1.385 . S
C1894 C1896 1.478 . S
C1895 H1889 0.930 . S
C1895 C1891 1.400 . S
C1895 C1894 1.385 . S
C1896 C1894 1.478 . S
C1896 C1898 1.381 . S
C1896 C1902 1.383 . S
C1897 C1893 1.495 . S
C1897 H1903 0.959 . S
C1897 H1904 0.961 . S
C1897 H1905 0.960 . S
C1898 C1896 1.381 . S
C1898 C1899 1.394 . S
C1898 H1906 0.930 . S
C1899 C1898 1.394 . S
C1899 C1900 1.383 . S
C1899 H1907 0.929 . S
C1900 C1899 1.383 . S
C1900 C1901 1.377 . S
C1901 H1885 0.930 . S
C1901 C1900 1.377 . S
C1901 C1902 1.379 . S
C1902 H1886 0.931 . S
C1902 C1896 1.383 . S
C1902 C1901 1.379 . S
H1903 C1897 0.959 . S
H1904 C1897 0.961 . S
H1905 C1897 0.960 . S
H1906 C1898 0.930 . S
H1907 C1899 0.929 . S
H1908 C1916 0.929 . S
H1909 C1918 0.930 . S
H1910 C1920 0.930 . S
H1911 C1923 0.929 . S
H1912 C1926 0.930 . S
H1913 C1928 0.960 . S
H1914 C1928 0.960 . S
H1915 C1928 0.960 . S
C1916 H1908 0.929 . S
C1916 C1917 1.377 . S
C1916 C1918 1.384 . S
C1917 C1916 1.377 . S
C1917 C1923 1.390 . S
C1918 H1909 0.930 . S
C1918 C1916 1.384 . S
C1918 C1919 1.372 . S
C1919 C1918 1.372 . S
C1919 C1920 1.400 . S
C1919 C1924 1.490 . S
C1920 H1910 0.930 . S
C1920 C1919 1.400 . S
C1920 C1923 1.386 . S
H1921 C1937 0.930 . S
H1922 C1938 0.932 1_545 S
C1923 H1911 0.929 . S
C1923 C1917 1.390 . S
C1923 C1920 1.386 . S
C1924 C1919 1.490 . S
C1924 C1926 1.395 . S
C1924 C1927 1.403 . S
H1925 C1931 0.930 . S
C1926 H1912 0.930 . S
C1926 C1924 1.395 . S
C1926 C1929 1.403 . S
C1927 C1924 1.403 . S
C1927 C1928 1.524 . S
C1927 C1931 1.400 . S
C1928 H1913 0.960 . S
C1928 H1914 0.960 . S
C1928 H1915 0.960 . S
C1928 C1927 1.524 . S
C1929 C1926 1.403 . S
C1929 C1930 1.392 . S
C1929 C1933 1.495 . S
C1930 C1929 1.392 . S
C1930 C1931 1.385 . S
C1930 C1932 1.478 . S
C1931 H1925 0.930 . S
C1931 C1927 1.400 . S
C1931 C1930 1.385 . S
C1932 C1930 1.478 . S
C1932 C1934 1.381 . S
C1932 C1938 1.383 . S
C1933 C1929 1.495 . S
C1933 H1939 0.959 . S
C1933 H1940 0.961 . S
C1933 H1941 0.960 . S
C1934 C1932 1.381 . S
C1934 C1935 1.394 . S
C1934 H1942 0.930 . S
C1935 C1934 1.394 . S
C1935 C1936 1.383 1_565 S
C1935 H1943 0.929 . S
C1936 C1935 1.383 1_545 S
C1936 C1937 1.377 . S
C1937 H1921 0.930 . S
C1937 C1936 1.377 . S
C1937 C1938 1.379 1_545 S
C1938 H1922 0.932 1_565 S
C1938 C1932 1.383 . S
C1938 C1937 1.379 1_565 S
H1939 C1933 0.959 . S
H1940 C1933 0.961 . S
H1941 C1933 0.960 . S
H1942 C1934 0.930 . S
H1943 C1935 0.929 . S
H1944 C1952 0.929 . S
H1945 C1954 0.930 . S
H1946 C1956 0.906 . S
H1947 C1959 0.929 . S
H1948 C1962 0.930 . S
H1949 C1964 0.960 . S
H1950 C1964 0.960 . S
H1951 C1964 0.960 . S
C1952 H1944 0.929 . S
C1952 C1953 1.377 1_455 S
C1952 C1954 1.384 . S
C1953 C1952 1.377 1_655 S
C1953 C1959 1.390 . S
C1954 H1945 0.930 . S
C1954 C1952 1.384 . S
C1954 C1955 1.372 . S
C1955 C1954 1.372 . S
C1955 C1956 1.400 . S
C1955 C1960 1.490 . S
C1956 H1946 0.906 . S
C1956 C1955 1.400 . S
C1956 C1959 1.386 1_455 S
H1957 C1973 0.930 . S
H1958 C1974 0.931 . S
C1959 H1947 0.929 . S
C1959 C1953 1.390 . S
C1959 C1956 1.386 1_655 S
C1960 C1955 1.490 . S
C1960 C1962 1.395 . S
C1960 C1963 1.403 . S
H1961 C1967 0.930 . S
C1962 H1948 0.930 . S
C1962 C1960 1.395 . S
C1962 C1965 1.403 . S
C1963 C1960 1.403 . S
C1963 C1964 1.524 . S
C1963 C1967 1.400 . S
C1964 H1949 0.960 . S
C1964 H1950 0.960 . S
C1964 H1951 0.960 . S
C1964 C1963 1.524 . S
C1965 C1962 1.403 . S
C1965 C1966 1.392 . S
C1965 C1969 1.495 . S
C1966 C1965 1.392 . S
C1966 C1967 1.385 . S
C1966 C1968 1.478 . S
C1967 H1961 0.930 . S
C1967 C1963 1.400 . S
C1967 C1966 1.385 . S
C1968 C1966 1.478 . S
C1968 C1970 1.381 . S
C1968 C1974 1.383 . S
C1969 C1965 1.495 . S
C1969 H1975 0.959 . S
C1969 H1976 0.961 . S
C1969 H1977 0.960 . S
C1970 C1968 1.381 . S
C1970 C1971 1.394 . S
C1970 H1978 0.930 . S
C1971 C1970 1.394 . S
C1971 C1972 1.383 . S
C1971 H1979 0.929 . S
C1972 C1971 1.383 . S
C1972 C1973 1.377 . S
C1973 H1957 0.930 . S
C1973 C1972 1.377 . S
C1973 C1974 1.379 . S
C1974 H1958 0.931 . S
C1974 C1968 1.383 . S
C1974 C1973 1.379 . S
H1975 C1969 0.959 . S
H1976 C1969 0.961 . S
H1977 C1969 0.960 . S
H1978 C1970 0.930 . S
H1979 C1971 0.929 . S
H1980 C1988 0.929 . S
H1981 C1990 0.930 . S
H1982 C1992 0.930 . S
H1983 C1995 0.929 . S
H1984 C1998 0.930 . S
H1985 C2000 0.960 . S
H1986 C2000 0.960 . S
H1987 C2000 0.960 . S
C1988 H1980 0.929 . S
C1988 C1989 1.377 . S
C1988 C1990 1.384 . S
C1989 C1988 1.377 . S
C1989 C1995 1.390 . S
C1990 H1981 0.930 . S
C1990 C1988 1.384 . S
C1990 C1991 1.372 . S
C1991 C1990 1.372 . S
C1991 C1992 1.400 . S
C1991 C1996 1.490 . S
C1992 H1982 0.930 . S
C1992 C1991 1.400 . S
C1992 C1995 1.386 . S
H1993 C2009 0.930 . S
H1994 C2010 0.931 . S
C1995 H1983 0.929 . S
C1995 C1989 1.390 . S
C1995 C1992 1.386 . S
C1996 C1991 1.490 . S
C1996 C1998 1.395 . S
C1996 C1999 1.403 . S
H1997 C2003 0.930 . S
C1998 H1984 0.930 . S
C1998 C1996 1.395 . S
C1998 C2001 1.403 . S
C1999 C1996 1.403 . S
C1999 C2000 1.524 . S
C1999 C2003 1.400 . S
C2000 H1985 0.960 . S
C2000 H1986 0.960 . S
C2000 H1987 0.960 . S
C2000 C1999 1.524 . S
C2001 C1998 1.403 . S
C2001 C2002 1.392 . S
C2001 C2005 1.495 . S
C2002 C2001 1.392 . S
C2002 C2003 1.385 . S
C2002 C2004 1.478 . S
C2003 H1997 0.930 . S
C2003 C1999 1.400 . S
C2003 C2002 1.385 . S
C2004 C2002 1.478 . S
C2004 C2006 1.381 . S
C2004 C2010 1.383 . S
C2005 C2001 1.495 . S
C2005 H2011 0.959 . S
C2005 H2012 0.961 . S
C2005 H2013 0.960 . S
C2006 C2004 1.381 . S
C2006 C2007 1.394 1_556 S
C2006 H2014 0.930 1_556 S
C2007 C2006 1.394 1_554 S
C2007 C2008 1.383 1_554 S
C2007 H2015 0.929 . S
C2008 C2007 1.383 1_556 S
C2008 C2009 1.377 . S
C2009 H1993 0.930 . S
C2009 C2008 1.377 . S
C2009 C2010 1.379 . S
C2010 H1994 0.931 . S
C2010 C2004 1.383 . S
C2010 C2009 1.379 . S
H2011 C2005 0.959 . S
H2012 C2005 0.961 . S
H2013 C2005 0.960 . S
H2014 C2006 0.930 1_554 S
H2015 C2007 0.929 . S
H2016 C2024 0.929 . S
H2017 C2026 0.930 . S
H2018 C2028 0.930 . S
H2019 C2031 0.929 . S
H2020 C2034 0.930 . S
H2021 C2036 0.960 . S
H2022 C2036 0.960 . S
H2023 C2036 0.960 . S
C2024 H2016 0.929 . S
C2024 C2025 1.377 1_455 S
C2024 C2026 1.384 . S
C2025 C2024 1.377 1_655 S
C2025 C2031 1.390 . S
C2026 H2017 0.930 . S
C2026 C2024 1.384 . S
C2026 C2027 1.372 . S
C2027 C2026 1.372 . S
C2027 C2028 1.400 . S
C2027 C2032 1.490 . S
C2028 H2018 0.930 . S
C2028 C2027 1.400 . S
C2028 C2031 1.386 1_455 S
H2029 C2045 0.930 . S
H2030 C2046 0.931 . S
C2031 H2019 0.929 . S
C2031 C2025 1.390 . S
C2031 C2028 1.386 1_655 S
C2032 C2027 1.490 . S
C2032 C2034 1.395 . S
C2032 C2035 1.403 . S
H2033 C2039 0.930 . S
C2034 H2020 0.930 . S
C2034 C2032 1.395 . S
C2034 C2037 1.403 . S
C2035 C2032 1.403 . S
C2035 C2036 1.524 . S
C2035 C2039 1.400 . S
C2036 H2021 0.960 . S
C2036 H2022 0.960 . S
C2036 H2023 0.960 . S
C2036 C2035 1.524 . S
C2037 C2034 1.403 . S
C2037 C2038 1.392 . S
C2037 C2041 1.495 . S
C2038 C2037 1.392 . S
C2038 C2039 1.385 . S
C2038 C2040 1.478 . S
C2039 H2033 0.930 . S
C2039 C2035 1.400 . S
C2039 C2038 1.385 . S
C2040 C2038 1.478 . S
C2040 C2042 1.381 . S
C2040 C2046 1.383 . S
C2041 C2037 1.495 . S
C2041 H2047 0.959 . S
C2041 H2048 0.961 . S
C2041 H2049 0.960 . S
C2042 C2040 1.381 . S
C2042 C2043 1.394 . S
C2042 H2050 0.930 . S
C2043 C2042 1.394 . S
C2043 C2044 1.383 . S
C2043 H2051 0.929 . S
C2044 C2043 1.383 . S
C2044 C2045 1.377 . S
C2045 H2029 0.930 . S
C2045 C2044 1.377 . S
C2045 C2046 1.379 . S
C2046 H2030 0.931 . S
C2046 C2040 1.383 . S
C2046 C2045 1.379 . S
H2047 C2041 0.959 . S
H2048 C2041 0.961 . S
H2049 C2041 0.960 . S
H2050 C2042 0.930 . S
H2051 C2043 0.929 . S
H2052 C2060 0.929 . S
H2053 C2062 0.930 . S
H2054 C2064 0.930 . S
H2055 C2067 0.929 . S
H2056 C2070 0.930 . S
H2057 C2072 0.960 . S
H2058 C2072 0.960 . S
H2059 C2072 0.960 . S
C2060 H2052 0.929 . S
C2060 C2061 1.377 . S
C2060 C2062 1.384 . S
C2061 C2060 1.377 . S
C2061 C2067 1.390 . S
C2062 H2053 0.930 . S
C2062 C2060 1.384 . S
C2062 C2063 1.372 . S
C2063 C2062 1.372 . S
C2063 C2064 1.400 . S
C2063 C2068 1.490 . S
C2064 H2054 0.930 . S
C2064 C2063 1.400 . S
C2064 C2067 1.386 . S
H2065 C2081 0.930 . S
H2066 C2082 0.931 . S
C2067 H2055 0.929 . S
C2067 C2061 1.390 . S
C2067 C2064 1.386 . S
C2068 C2063 1.490 . S
C2068 C2070 1.395 . S
C2068 C2071 1.403 . S
H2069 C2075 0.930 . S
C2070 H2056 0.930 . S
C2070 C2068 1.395 . S
C2070 C2073 1.403 . S
C2071 C2068 1.403 . S
C2071 C2072 1.524 . S
C2071 C2075 1.400 . S
C2072 H2057 0.960 . S
C2072 H2058 0.960 . S
C2072 H2059 0.960 . S
C2072 C2071 1.524 . S
C2073 C2070 1.403 . S
C2073 C2074 1.392 . S
C2073 C2077 1.495 . S
C2074 C2073 1.392 . S
C2074 C2075 1.385 . S
C2074 C2076 1.478 . S
C2075 H2069 0.930 . S
C2075 C2071 1.400 . S
C2075 C2074 1.385 . S
C2076 C2074 1.478 . S
C2076 C2078 1.381 . S
C2076 C2082 1.383 . S
C2077 C2073 1.495 . S
C2077 H2083 0.959 . S
C2077 H2084 0.961 . S
C2077 H2085 0.960 . S
C2078 C2076 1.381 . S
C2078 C2079 1.394 . S
C2078 H2086 0.930 . S
C2079 C2078 1.394 . S
C2079 C2080 1.383 . S
C2079 H2087 0.929 . S
C2080 C2079 1.383 . S
C2080 C2081 1.377 . S
C2081 H2065 0.930 . S
C2081 C2080 1.377 . S
C2081 C2082 1.379 . S
C2082 H2066 0.931 . S
C2082 C2076 1.383 . S
C2082 C2081 1.379 . S
H2083 C2077 0.959 . S
H2084 C2077 0.961 . S
H2085 C2077 0.960 . S
H2086 C2078 0.930 . S
H2087 C2079 0.929 . S
H2088 C2096 0.929 . S
H2089 C2098 0.930 . S
H2090 C2100 0.930 . S
H2091 C2103 0.929 . S
H2092 C2106 0.930 . S
H2093 C2108 0.960 . S
H2094 C2108 0.960 . S
H2095 C2108 0.960 . S
C2096 H2088 0.929 . S
C2096 C2097 1.377 . S
C2096 C2098 1.384 . S
C2097 C2096 1.377 . S
C2097 C2103 1.390 . S
C2098 H2089 0.930 . S
C2098 C2096 1.384 . S
C2098 C2099 1.372 . S
C2099 C2098 1.372 . S
C2099 C2100 1.400 . S
C2099 C2104 1.490 . S
C2100 H2090 0.930 . S
C2100 C2099 1.400 . S
C2100 C2103 1.386 . S
H2101 C2117 0.930 . S
H2102 C2118 0.931 . S
C2103 H2091 0.929 . S
C2103 C2097 1.390 . S
C2103 C2100 1.386 . S
C2104 C2099 1.490 . S
C2104 C2106 1.395 . S
C2104 C2107 1.403 . S
H2105 C2111 0.930 . S
C2106 H2092 0.930 . S
C2106 C2104 1.395 . S
C2106 C2109 1.403 . S
C2107 C2104 1.403 . S
C2107 C2108 1.524 . S
C2107 C2111 1.400 . S
C2108 H2093 0.960 . S
C2108 H2094 0.960 . S
C2108 H2095 0.960 . S
C2108 C2107 1.524 . S
C2109 C2106 1.403 . S
C2109 C2110 1.392 . S
C2109 C2113 1.495 . S
C2110 C2109 1.392 . S
C2110 C2111 1.385 . S
C2110 C2112 1.478 . S
C2111 H2105 0.930 . S
C2111 C2107 1.400 . S
C2111 C2110 1.385 . S
C2112 C2110 1.478 . S
C2112 C2114 1.381 . S
C2112 C2118 1.383 . S
C2113 C2109 1.495 . S
C2113 H2119 0.959 . S
C2113 H2120 0.961 . S
C2113 H2121 0.960 . S
C2114 C2112 1.381 . S
C2114 C2115 1.394 1_565 S
C2114 H2122 0.930 . S
C2115 C2114 1.394 1_545 S
C2115 C2116 1.383 . S
C2115 H2123 0.929 . S
C2116 C2115 1.383 . S
C2116 C2117 1.377 . S
C2117 H2101 0.930 . S
C2117 C2116 1.377 . S
C2117 C2118 1.379 1_545 S
C2118 H2102 0.931 . S
C2118 C2112 1.383 . S
C2118 C2117 1.379 1_565 S
H2119 C2113 0.959 . S
H2120 C2113 0.961 . S
H2121 C2113 0.960 . S
H2122 C2114 0.930 . S
H2123 C2115 0.929 . S
H2124 C2132 0.929 . S
H2125 C2134 0.930 . S
H2126 C2136 0.930 . S
H2127 C2139 0.929 . S
H2128 C2142 0.930 . S
H2129 C2144 0.960 . S
H2130 C2144 0.960 . S
H2131 C2144 0.960 . S
C2132 H2124 0.929 . S
C2132 C2133 1.377 . S
C2132 C2134 1.384 . S
C2133 C2132 1.377 . S
C2133 C2139 1.390 . S
C2134 H2125 0.930 . S
C2134 C2132 1.384 . S
C2134 C2135 1.372 . S
C2135 C2134 1.372 . S
C2135 C2136 1.400 . S
C2135 C2140 1.490 . S
C2136 H2126 0.930 . S
C2136 C2135 1.400 . S
C2136 C2139 1.386 . S
H2137 C2153 0.930 . S
H2138 C2154 0.931 . S
C2139 H2127 0.929 . S
C2139 C2133 1.390 . S
C2139 C2136 1.386 . S
C2140 C2135 1.490 . S
C2140 C2142 1.395 . S
C2140 C2143 1.403 . S
H2141 C2147 0.930 . S
C2142 H2128 0.930 . S
C2142 C2140 1.395 . S
C2142 C2145 1.403 . S
C2143 C2140 1.403 . S
C2143 C2144 1.524 . S
C2143 C2147 1.400 . S
C2144 H2129 0.960 . S
C2144 H2130 0.960 . S
C2144 H2131 0.960 . S
C2144 C2143 1.524 . S
C2145 C2142 1.403 . S
C2145 C2146 1.392 . S
C2145 C2149 1.495 . S
C2146 C2145 1.392 . S
C2146 C2147 1.385 . S
C2146 C2148 1.478 . S
C2147 H2141 0.930 . S
C2147 C2143 1.400 . S
C2147 C2146 1.385 . S
C2148 C2146 1.478 . S
C2148 C2150 1.381 . S
C2148 C2154 1.383 . S
C2149 C2145 1.495 . S
C2149 H2155 0.959 . S
C2149 H2156 0.961 . S
C2149 H2157 0.960 . S
C2150 C2148 1.381 . S
C2150 C2151 1.394 1_455 S
C2150 H2158 0.930 . S
C2151 C2150 1.394 1_655 S
C2151 C2152 1.383 . S
C2151 H2159 0.929 . S
C2152 C2151 1.383 . S
C2152 C2153 1.377 1_655 S
C2153 H2137 0.930 . S
C2153 C2152 1.377 1_455 S
C2153 C2154 1.379 . S
C2154 H2138 0.931 . S
C2154 C2148 1.383 . S
C2154 C2153 1.379 . S
H2155 C2149 0.959 . S
H2156 C2149 0.961 . S
H2157 C2149 0.960 . S
H2158 C2150 0.930 . S
H2159 C2151 0.929 . S
H2160 C2168 0.929 . S
H2161 C2170 0.930 . S
H2162 C2172 0.930 . S
H2163 C2175 0.929 . S
H2164 C2178 0.930 . S
H2165 C2180 0.960 . S
H2166 C2180 0.960 . S
H2167 C2180 0.960 . S
C2168 H2160 0.929 . S
C2168 C2169 1.377 . S
C2168 C2170 1.384 . S
C2169 C2168 1.377 . S
C2169 C2175 1.390 . S
C2170 H2161 0.930 . S
C2170 C2168 1.384 . S
C2170 C2171 1.372 . S
C2171 C2170 1.372 . S
C2171 C2172 1.400 . S
C2171 C2176 1.490 . S
C2172 H2162 0.930 . S
C2172 C2171 1.400 . S
C2172 C2175 1.386 . S
H2173 C2189 0.930 . S
H2174 C2190 0.931 . S
C2175 H2163 0.929 . S
C2175 C2169 1.390 . S
C2175 C2172 1.386 . S
C2176 C2171 1.490 . S
C2176 C2178 1.395 . S
C2176 C2179 1.403 . S
H2177 C2183 0.930 . S
C2178 H2164 0.930 . S
C2178 C2176 1.395 . S
C2178 C2181 1.403 . S
C2179 C2176 1.403 . S
C2179 C2180 1.524 . S
C2179 C2183 1.400 . S
C2180 H2165 0.960 . S
C2180 H2166 0.960 . S
C2180 H2167 0.960 . S
C2180 C2179 1.524 . S
C2181 C2178 1.403 . S
C2181 C2182 1.392 . S
C2181 C2185 1.495 . S
C2182 C2181 1.392 . S
C2182 C2183 1.385 . S
C2182 C2184 1.478 . S
C2183 H2177 0.930 . S
C2183 C2179 1.400 . S
C2183 C2182 1.385 . S
C2184 C2182 1.478 . S
C2184 C2186 1.381 . S
C2184 C2190 1.383 . S
C2185 C2181 1.495 . S
C2185 H2191 0.959 . S
C2185 H2192 0.961 . S
C2185 H2193 0.960 . S
C2186 C2184 1.381 . S
C2186 C2187 1.394 . S
C2186 H2194 0.930 . S
C2187 C2186 1.394 . S
C2187 C2188 1.383 . S
C2187 H2195 0.929 . S
C2188 C2187 1.383 . S
C2188 C2189 1.377 . S
C2189 H2173 0.930 . S
C2189 C2188 1.377 . S
C2189 C2190 1.379 . S
C2190 H2174 0.931 . S
C2190 C2184 1.383 . S
C2190 C2189 1.379 . S
H2191 C2185 0.959 . S
H2192 C2185 0.961 . S
H2193 C2185 0.960 . S
H2194 C2186 0.930 . S
H2195 C2187 0.929 . S
H2196 C2204 0.929 . S
H2197 C2206 0.930 . S
H2198 C2208 0.930 . S
H2199 C2211 0.929 . S
H2200 C2214 0.930 . S
H2201 C2216 0.960 . S
H2202 C2216 0.960 . S
H2203 C2216 0.960 . S
C2204 H2196 0.929 . S
C2204 C2205 1.377 . S
C2204 C2206 1.384 . S
C2205 C2204 1.377 . S
C2205 C2211 1.390 . S
C2206 H2197 0.930 . S
C2206 C2204 1.384 . S
C2206 C2207 1.372 . S
C2207 C2206 1.372 . S
C2207 C2208 1.400 . S
C2207 C2212 1.490 . S
C2208 H2198 0.930 . S
C2208 C2207 1.400 . S
C2208 C2211 1.386 . S
H2209 C2225 0.930 . S
H2210 C2226 0.931 . S
C2211 H2199 0.929 . S
C2211 C2205 1.390 . S
C2211 C2208 1.386 . S
C2212 C2207 1.490 . S
C2212 C2214 1.395 . S
C2212 C2215 1.403 . S
H2213 C2219 0.930 . S
C2214 H2200 0.930 . S
C2214 C2212 1.395 . S
C2214 C2217 1.403 . S
C2215 C2212 1.403 . S
C2215 C2216 1.524 . S
C2215 C2219 1.400 . S
C2216 H2201 0.960 . S
C2216 H2202 0.960 . S
C2216 H2203 0.960 . S
C2216 C2215 1.524 . S
C2217 C2214 1.403 . S
C2217 C2218 1.392 . S
C2217 C2221 1.495 . S
C2218 C2217 1.392 . S
C2218 C2219 1.385 . S
C2218 C2220 1.478 . S
C2219 H2213 0.930 . S
C2219 C2215 1.400 . S
C2219 C2218 1.385 . S
C2220 C2218 1.478 . S
C2220 C2222 1.381 . S
C2220 C2226 1.383 . S
C2221 C2217 1.495 . S
C2221 H2227 0.959 . S
C2221 H2228 0.961 . S
C2221 H2229 0.960 . S
C2222 C2220 1.381 . S
C2222 C2223 1.394 1_565 S
C2222 H2230 0.915 . S
C2223 C2222 1.394 1_545 S
C2223 C2224 1.383 . S
C2223 H2231 0.929 . S
C2224 C2223 1.383 . S
C2224 C2225 1.377 1_545 S
C2225 H2209 0.930 . S
C2225 C2224 1.377 1_565 S
C2225 C2226 1.379 . S
C2226 H2210 0.931 . S
C2226 C2220 1.383 . S
C2226 C2225 1.379 . S
H2227 C2221 0.959 . S
H2228 C2221 0.961 . S
H2229 C2221 0.960 . S
H2230 C2222 0.915 . S
H2231 C2223 0.929 . S
H2232 C2240 0.929 . S
H2233 C2242 0.930 . S
H2234 C2244 0.930 . S
H2235 C2247 0.929 . S
H2236 C2250 0.930 . S
H2237 C2252 0.960 . S
H2238 C2252 0.960 . S
H2239 C2252 0.960 . S
C2240 H2232 0.929 . S
C2240 C2241 1.377 . S
C2240 C2242 1.384 1_545 S
C2241 C2240 1.377 . S
C2241 C2247 1.390 1_545 S
C2242 H2233 0.930 . S
C2242 C2240 1.384 1_565 S
C2242 C2243 1.372 . S
C2243 C2242 1.372 . S
C2243 C2244 1.400 . S
C2243 C2248 1.490 . S
C2244 H2234 0.930 . S
C2244 C2243 1.400 . S
C2244 C2247 1.386 . S
H2245 C2261 0.930 . S
H2246 C2262 0.931 . S
C2247 H2235 0.929 . S
C2247 C2241 1.390 1_565 S
C2247 C2244 1.386 . S
C2248 C2243 1.490 . S
C2248 C2250 1.395 . S
C2248 C2251 1.403 . S
H2249 C2255 0.930 . S
C2250 H2236 0.930 . S
C2250 C2248 1.395 . S
C2250 C2253 1.403 . S
C2251 C2248 1.403 . S
C2251 C2252 1.524 . S
C2251 C2255 1.400 . S
C2252 H2237 0.960 . S
C2252 H2238 0.960 . S
C2252 H2239 0.960 . S
C2252 C2251 1.524 . S
C2253 C2250 1.403 . S
C2253 C2254 1.392 . S
C2253 C2257 1.495 . S
C2254 C2253 1.392 . S
C2254 C2255 1.385 . S
C2254 C2256 1.478 . S
C2255 H2249 0.930 . S
C2255 C2251 1.400 . S
C2255 C2254 1.385 . S
C2256 C2254 1.478 . S
C2256 C2258 1.381 . S
C2256 C2262 1.383 . S
C2257 C2253 1.495 . S
C2257 H2263 0.959 . S
C2257 H2264 0.961 . S
C2257 H2265 0.960 . S
C2258 C2256 1.381 . S
C2258 C2259 1.394 . S
C2258 H2266 0.930 . S
C2259 C2258 1.394 . S
C2259 C2260 1.383 . S
C2259 H2267 0.929 . S
C2260 C2259 1.383 . S
C2260 C2261 1.377 . S
C2261 H2245 0.930 . S
C2261 C2260 1.377 . S
C2261 C2262 1.379 . S
C2262 H2246 0.931 . S
C2262 C2256 1.383 . S
C2262 C2261 1.379 . S
H2263 C2257 0.959 . S
H2264 C2257 0.961 . S
H2265 C2257 0.960 . S
H2266 C2258 0.930 . S
H2267 C2259 0.929 . S
H2268 C2276 0.929 . S
H2269 C2278 0.930 . S
H2270 C2280 0.930 . S
H2271 C2283 0.929 . S
H2272 C2286 0.930 . S
H2273 C2288 0.960 . S
H2274 C2288 0.960 . S
H2275 C2288 0.960 . S
C2276 H2268 0.929 . S
C2276 C2277 1.374 . S
C2276 C2278 1.388 1_655 S
C2277 C2276 1.374 . S
C2277 C2283 1.390 . S
C2278 H2269 0.930 . S
C2278 C2276 1.388 1_455 S
C2278 C2279 1.372 . S
C2279 C2278 1.372 . S
C2279 C2280 1.400 . S
C2279 C2284 1.490 . S
C2280 H2270 0.930 . S
C2280 C2279 1.400 . S
C2280 C2283 1.386 1_455 S
H2281 C2297 0.930 . S
H2282 C2298 0.931 . S
C2283 H2271 0.929 . S
C2283 C2277 1.390 . S
C2283 C2280 1.386 1_655 S
C2284 C2279 1.490 . S
C2284 C2286 1.395 . S
C2284 C2287 1.403 . S
H2285 C2291 0.930 . S
C2286 H2272 0.930 . S
C2286 C2284 1.395 . S
C2286 C2289 1.403 . S
C2287 C2284 1.403 . S
C2287 C2288 1.524 . S
C2287 C2291 1.400 . S
C2288 H2273 0.960 . S
C2288 H2274 0.960 . S
C2288 H2275 0.960 . S
C2288 C2287 1.524 . S
C2289 C2286 1.403 . S
C2289 C2290 1.392 . S
C2289 C2293 1.495 . S
C2290 C2289 1.392 . S
C2290 C2291 1.385 . S
C2290 C2292 1.478 . S
C2291 H2285 0.930 . S
C2291 C2287 1.400 . S
C2291 C2290 1.385 . S
C2292 C2290 1.478 . S
C2292 C2294 1.381 . S
C2292 C2298 1.383 . S
C2293 C2289 1.495 . S
C2293 H2299 0.959 . S
C2293 H2300 0.961 . S
C2293 H2301 0.960 . S
C2294 C2292 1.381 . S
C2294 C2295 1.394 . S
C2294 H2302 0.930 . S
C2295 C2294 1.394 . S
C2295 C2296 1.383 . S
C2295 H2303 0.929 . S
C2296 C2295 1.383 . S
C2296 C2297 1.377 . S
C2297 H2281 0.930 . S
C2297 C2296 1.377 . S
C2297 C2298 1.379 . S
C2298 H2282 0.931 . S
C2298 C2292 1.383 . S
C2298 C2297 1.379 . S
H2299 C2293 0.959 . S
H2300 C2293 0.961 . S
H2301 C2293 0.960 . S
H2302 C2294 0.930 . S
H2303 C2295 0.929 . S
H2304 C2312 0.929 . S
H2305 C2314 0.930 . S
H2306 C2316 0.930 . S
H2307 C2319 0.929 . S
H2308 C2322 0.930 . S
H2309 C2324 0.960 . S
H2310 C2324 0.960 . S
H2311 C2324 0.960 . S
C2312 H2304 0.929 . S
C2312 C2313 1.377 . S
C2312 C2314 1.384 . S
C2313 C2312 1.377 . S
C2313 C2319 1.390 . S
C2314 H2305 0.930 . S
C2314 C2312 1.384 . S
C2314 C2315 1.372 . S
C2315 C2314 1.372 . S
C2315 C2316 1.400 . S
C2315 C2320 1.490 . S
C2316 H2306 0.930 . S
C2316 C2315 1.400 . S
C2316 C2319 1.386 . S
H2317 C2333 0.930 . S
H2318 C2334 0.931 . S
C2319 H2307 0.929 . S
C2319 C2313 1.390 . S
C2319 C2316 1.386 . S
C2320 C2315 1.490 . S
C2320 C2322 1.395 . S
C2320 C2323 1.403 . S
H2321 C2327 0.930 . S
C2322 H2308 0.930 . S
C2322 C2320 1.395 . S
C2322 C2325 1.403 . S
C2323 C2320 1.403 . S
C2323 C2324 1.524 . S
C2323 C2327 1.400 . S
C2324 H2309 0.960 . S
C2324 H2310 0.960 . S
C2324 H2311 0.960 . S
C2324 C2323 1.524 . S
C2325 C2322 1.403 . S
C2325 C2326 1.392 . S
C2325 C2329 1.495 . S
C2326 C2325 1.392 . S
C2326 C2327 1.385 . S
C2326 C2328 1.478 . S
C2327 H2321 0.930 . S
C2327 C2323 1.400 . S
C2327 C2326 1.385 . S
C2328 C2326 1.478 . S
C2328 C2330 1.381 . S
C2328 C2334 1.383 . S
C2329 C2325 1.495 . S
C2329 H2335 0.959 . S
C2329 H2336 0.961 . S
C2329 H2337 0.960 . S
C2330 C2328 1.381 . S
C2330 C2331 1.394 . S
C2330 H2338 0.930 . S
C2331 C2330 1.394 . S
C2331 C2332 1.383 . S
C2331 H2339 0.929 . S
C2332 C2331 1.383 . S
C2332 C2333 1.377 . S
C2333 H2317 0.930 . S
C2333 C2332 1.377 . S
C2333 C2334 1.379 . S
C2334 H2318 0.931 . S
C2334 C2328 1.383 . S
C2334 C2333 1.379 . S
H2335 C2329 0.959 . S
H2336 C2329 0.961 . S
H2337 C2329 0.960 . S
H2338 C2330 0.930 . S
H2339 C2331 0.929 . S
H2340 C2348 0.929 . S
H2341 C2350 0.930 . S
H2342 C2352 0.930 . S
H2343 C2355 0.929 . S
H2344 C2358 0.930 . S
H2345 C2360 0.960 . S
H2346 C2360 0.960 . S
H2347 C2360 0.960 . S
C2348 H2340 0.929 . S
C2348 C2349 1.377 . S
C2348 C2350 1.384 . S
C2349 C2348 1.377 . S
C2349 C2355 1.390 . S
C2350 H2341 0.930 . S
C2350 C2348 1.384 . S
C2350 C2351 1.372 . S
C2351 C2350 1.372 . S
C2351 C2352 1.400 . S
C2351 C2356 1.490 . S
C2352 H2342 0.930 . S
C2352 C2351 1.400 . S
C2352 C2355 1.386 . S
H2353 C2369 0.930 . S
H2354 C2370 0.931 . S
C2355 H2343 0.929 . S
C2355 C2349 1.390 . S
C2355 C2352 1.386 . S
C2356 C2351 1.490 . S
C2356 C2358 1.395 . S
C2356 C2359 1.403 . S
H2357 C2363 0.930 . S
C2358 H2344 0.930 . S
C2358 C2356 1.395 . S
C2358 C2361 1.403 . S
C2359 C2356 1.403 . S
C2359 C2360 1.524 . S
C2359 C2363 1.400 . S
C2360 H2345 0.960 . S
C2360 H2346 0.960 . S
C2360 H2347 0.960 . S
C2360 C2359 1.524 . S
C2361 C2358 1.403 . S
C2361 C2362 1.392 . S
C2361 C2365 1.495 . S
C2362 C2361 1.392 . S
C2362 C2363 1.385 . S
C2362 C2364 1.478 . S
C2363 H2357 0.930 . S
C2363 C2359 1.400 . S
C2363 C2362 1.385 . S
C2364 C2362 1.478 . S
C2364 C2366 1.381 . S
C2364 C2370 1.383 . S
C2365 C2361 1.495 . S
C2365 H2371 0.959 . S
C2365 H2372 0.961 . S
C2365 H2373 0.960 . S
C2366 C2364 1.381 . S
C2366 C2367 1.394 . S
C2366 H2374 0.930 . S
C2367 C2366 1.394 . S
C2367 C2368 1.383 . S
C2367 H2375 0.929 . S
C2368 C2367 1.383 . S
C2368 C2369 1.377 . S
C2369 H2353 0.930 . S
C2369 C2368 1.377 . S
C2369 C2370 1.379 . S
C2370 H2354 0.931 . S
C2370 C2364 1.383 . S
C2370 C2369 1.379 . S
H2371 C2365 0.959 . S
H2372 C2365 0.961 . S
H2373 C2365 0.960 . S
H2374 C2366 0.930 . S
H2375 C2367 0.929 . S
H2376 C2384 0.929 . S
H2377 C2386 0.930 . S
H2378 C2388 0.930 . S
H2379 C2391 0.929 . S
H2380 C2394 0.930 . S
H2381 C2396 0.960 . S
H2382 C2396 0.960 . S
H2383 C2396 0.960 . S
C2384 H2376 0.929 . S
C2384 C2385 1.377 . S
C2384 C2386 1.384 . S
C2385 C2384 1.377 . S
C2385 C2391 1.390 . S
C2386 H2377 0.930 . S
C2386 C2384 1.384 . S
C2386 C2387 1.372 . S
C2387 C2386 1.372 . S
C2387 C2388 1.400 . S
C2387 C2392 1.490 . S
C2388 H2378 0.930 . S
C2388 C2387 1.400 . S
C2388 C2391 1.386 . S
H2389 C2405 0.930 . S
H2390 C2406 0.931 . S
C2391 H2379 0.929 . S
C2391 C2385 1.390 . S
C2391 C2388 1.386 . S
C2392 C2387 1.490 . S
C2392 C2394 1.395 . S
C2392 C2395 1.403 . S
H2393 C2399 0.930 . S
C2394 H2380 0.930 . S
C2394 C2392 1.395 . S
C2394 C2397 1.403 . S
C2395 C2392 1.403 . S
C2395 C2396 1.524 . S
C2395 C2399 1.400 . S
C2396 H2381 0.960 . S
C2396 H2382 0.960 . S
C2396 H2383 0.960 . S
C2396 C2395 1.524 . S
C2397 C2394 1.403 . S
C2397 C2398 1.392 . S
C2397 C2401 1.495 . S
C2398 C2397 1.392 . S
C2398 C2399 1.385 . S
C2398 C2400 1.478 . S
C2399 H2393 0.930 . S
C2399 C2395 1.400 . S
C2399 C2398 1.385 . S
C2400 C2398 1.478 . S
C2400 C2402 1.381 . S
C2400 C2406 1.383 . S
C2401 C2397 1.495 . S
C2401 H2407 0.959 . S
C2401 H2408 0.961 . S
C2401 H2409 0.960 . S
C2402 C2400 1.381 . S
C2402 C2403 1.394 . S
C2402 H2410 0.930 . S
C2403 C2402 1.394 . S
C2403 C2404 1.383 . S
C2403 H2411 0.929 . S
C2404 C2403 1.383 . S
C2404 C2405 1.377 . S
C2405 H2389 0.930 . S
C2405 C2404 1.377 . S
C2405 C2406 1.379 . S
C2406 H2390 0.931 . S
C2406 C2400 1.383 . S
C2406 C2405 1.379 . S
H2407 C2401 0.959 . S
H2408 C2401 0.961 . S
H2409 C2401 0.960 . S
H2410 C2402 0.930 . S
H2411 C2403 0.929 . S
H2412 C2420 0.929 . S
H2413 C2422 0.930 . S
H2414 C2424 0.930 . S
H2415 C2427 0.929 . S
H2416 C2430 0.930 . S
H2417 C2432 0.960 . S
H2418 C2432 0.960 . S
H2419 C2432 0.960 . S
C2420 H2412 0.929 . S
C2420 C2421 1.377 . S
C2420 C2422 1.384 . S
C2421 C2420 1.377 . S
C2421 C2427 1.390 . S
C2422 H2413 0.930 . S
C2422 C2420 1.384 . S
C2422 C2423 1.372 . S
C2423 C2422 1.372 . S
C2423 C2424 1.400 . S
C2423 C2428 1.490 . S
C2424 H2414 0.930 . S
C2424 C2423 1.400 . S
C2424 C2427 1.386 . S
H2425 C2441 0.930 . S
H2426 C2442 0.931 . S
C2427 H2415 0.929 . S
C2427 C2421 1.390 . S
C2427 C2424 1.386 . S
C2428 C2423 1.490 . S
C2428 C2430 1.395 . S
C2428 C2431 1.403 . S
H2429 C2435 0.930 . S
C2430 H2416 0.930 . S
C2430 C2428 1.395 . S
C2430 C2433 1.403 . S
C2431 C2428 1.403 . S
C2431 C2432 1.524 . S
C2431 C2435 1.400 . S
C2432 H2417 0.960 . S
C2432 H2418 0.960 . S
C2432 H2419 0.960 . S
C2432 C2431 1.524 . S
C2433 C2430 1.403 . S
C2433 C2434 1.392 . S
C2433 C2437 1.495 . S
C2434 C2433 1.392 . S
C2434 C2435 1.385 . S
C2434 C2436 1.478 . S
C2435 H2429 0.930 . S
C2435 C2431 1.400 . S
C2435 C2434 1.385 . S
C2436 C2434 1.478 . S
C2436 C2438 1.381 . S
C2436 C2442 1.383 . S
C2437 C2433 1.495 . S
C2437 H2443 0.959 . S
C2437 H2444 0.961 . S
C2437 H2445 0.960 . S
C2438 C2436 1.381 . S
C2438 C2439 1.394 . S
C2438 H2446 0.930 . S
C2439 C2438 1.394 . S
C2439 C2440 1.383 . S
C2439 H2447 0.929 . S
C2440 C2439 1.383 . S
C2440 C2441 1.377 . S
C2441 H2425 0.930 . S
C2441 C2440 1.377 . S
C2441 C2442 1.379 . S
C2442 H2426 0.931 . S
C2442 C2436 1.383 . S
C2442 C2441 1.379 . S
H2443 C2437 0.959 . S
H2444 C2437 0.961 . S
H2445 C2437 0.960 . S
H2446 C2438 0.930 . S
H2447 C2439 0.929 . S
H2448 C2456 0.929 . S
H2449 C2458 0.930 . S
H2450 C2460 0.930 . S
H2451 C2463 0.929 . S
H2452 C2466 0.930 . S
H2453 C2468 0.960 . S
H2454 C2468 0.960 . S
H2455 C2468 0.960 . S
C2456 H2448 0.929 . S
C2456 C2457 1.377 . S
C2456 C2458 1.384 . S
C2457 C2456 1.377 . S
C2457 C2463 1.390 . S
C2458 H2449 0.930 . S
C2458 C2456 1.384 . S
C2458 C2459 1.372 . S
C2459 C2458 1.372 . S
C2459 C2460 1.400 . S
C2459 C2464 1.490 . S
C2460 H2450 0.930 . S
C2460 C2459 1.400 . S
C2460 C2463 1.386 . S
H2461 C2477 0.930 . S
H2462 C2478 0.931 . S
C2463 H2451 0.929 . S
C2463 C2457 1.390 . S
C2463 C2460 1.386 . S
C2464 C2459 1.490 . S
C2464 C2466 1.395 . S
C2464 C2467 1.403 . S
H2465 C2471 0.930 . S
C2466 H2452 0.930 . S
C2466 C2464 1.395 . S
C2466 C2469 1.403 . S
C2467 C2464 1.403 . S
C2467 C2468 1.524 . S
C2467 C2471 1.400 . S
C2468 H2453 0.960 . S
C2468 H2454 0.960 . S
C2468 H2455 0.960 . S
C2468 C2467 1.524 . S
C2469 C2466 1.403 . S
C2469 C2470 1.392 . S
C2469 C2473 1.495 . S
C2470 C2469 1.392 . S
C2470 C2471 1.385 . S
C2470 C2472 1.478 . S
C2471 H2465 0.930 . S
C2471 C2467 1.400 . S
C2471 C2470 1.385 . S
C2472 C2470 1.478 . S
C2472 C2474 1.381 . S
C2472 C2478 1.383 . S
C2473 C2469 1.495 . S
C2473 H2479 0.959 . S
C2473 H2480 0.961 . S
C2473 H2481 0.960 . S
C2474 C2472 1.381 . S
C2474 C2475 1.394 . S
C2474 H2482 0.930 . S
C2475 C2474 1.394 . S
C2475 C2476 1.383 . S
C2475 H2483 0.929 . S
C2476 C2475 1.383 . S
C2476 C2477 1.377 . S
C2477 H2461 0.930 . S
C2477 C2476 1.377 . S
C2477 C2478 1.379 . S
C2478 H2462 0.931 . S
C2478 C2472 1.383 . S
C2478 C2477 1.379 . S
H2479 C2473 0.959 . S
H2480 C2473 0.961 . S
H2481 C2473 0.960 . S
H2482 C2474 0.930 . S
H2483 C2475 0.929 . S
H2484 C2492 0.929 . S
H2485 C2494 0.930 . S
H2486 C2496 0.930 . S
H2487 C2499 0.929 . S
H2488 C2502 0.930 . S
H2489 C2504 0.960 . S
H2490 C2504 0.960 . S
H2491 C2504 0.960 . S
C2492 H2484 0.929 . S
C2492 C2493 1.377 . S
C2492 C2494 1.384 . S
C2493 C2492 1.377 . S
C2493 C2499 1.390 . S
C2494 H2485 0.930 . S
C2494 C2492 1.384 . S
C2494 C2495 1.372 . S
C2495 C2494 1.372 . S
C2495 C2496 1.400 . S
C2495 C2500 1.490 . S
C2496 H2486 0.930 . S
C2496 C2495 1.400 . S
C2496 C2499 1.386 . S
H2497 C2513 0.930 1_556 S
H2498 C2514 0.931 . S
C2499 H2487 0.929 . S
C2499 C2493 1.390 . S
C2499 C2496 1.386 . S
C2500 C2495 1.490 . S
C2500 C2502 1.395 . S
C2500 C2503 1.403 . S
H2501 C2507 0.930 . S
C2502 H2488 0.930 . S
C2502 C2500 1.395 . S
C2502 C2505 1.403 . S
C2503 C2500 1.403 . S
C2503 C2504 1.524 . S
C2503 C2507 1.400 . S
C2504 H2489 0.960 . S
C2504 H2490 0.960 . S
C2504 H2491 0.960 . S
C2504 C2503 1.524 . S
C2505 C2502 1.403 . S
C2505 C2506 1.392 . S
C2505 C2509 1.495 . S
C2506 C2505 1.392 . S
C2506 C2507 1.385 . S
C2506 C2508 1.478 . S
C2507 H2501 0.930 . S
C2507 C2503 1.400 . S
C2507 C2506 1.385 . S
C2508 C2506 1.478 . S
C2508 C2510 1.381 . S
C2508 C2514 1.383 . S
C2509 C2505 1.495 . S
C2509 H2515 0.959 . S
C2509 H2516 0.961 . S
C2509 H2517 0.960 . S
C2510 C2508 1.381 . S
C2510 C2511 1.394 . S
C2510 H2518 0.930 . S
C2511 C2510 1.394 . S
C2511 C2512 1.383 . S
C2511 H2519 0.929 . S
C2512 C2511 1.383 . S
C2512 C2513 1.377 . S
C2513 H2497 0.930 1_554 S
C2513 C2512 1.377 . S
C2513 C2514 1.379 . S
C2514 H2498 0.931 . S
C2514 C2508 1.383 . S
C2514 C2513 1.379 . S
H2515 C2509 0.959 . S
H2516 C2509 0.961 . S
H2517 C2509 0.960 . S
H2518 C2510 0.930 . S
H2519 C2511 0.929 . S
H2520 C2528 0.929 . S
H2521 C2530 0.930 . S
H2522 C2532 0.930 . S
H2523 C2535 0.929 . S
H2524 C2538 0.930 . S
H2525 C2540 0.960 . S
H2526 C2540 0.960 . S
H2527 C2540 0.960 . S
C2528 H2520 0.929 . S
C2528 C2529 1.377 . S
C2528 C2530 1.384 . S
C2529 C2528 1.377 . S
C2529 C2535 1.390 . S
C2530 H2521 0.930 . S
C2530 C2528 1.384 . S
C2530 C2531 1.372 . S
C2531 C2530 1.372 . S
C2531 C2532 1.400 . S
C2531 C2536 1.490 . S
C2532 H2522 0.930 . S
C2532 C2531 1.400 . S
C2532 C2535 1.386 . S
H2533 C2549 0.930 . S
H2534 C2550 0.931 . S
C2535 H2523 0.929 . S
C2535 C2529 1.390 . S
C2535 C2532 1.386 . S
C2536 C2531 1.490 . S
C2536 C2538 1.395 . S
C2536 C2539 1.403 . S
H2537 C2543 0.930 . S
C2538 H2524 0.930 . S
C2538 C2536 1.395 . S
C2538 C2541 1.403 . S
C2539 C2536 1.403 . S
C2539 C2540 1.524 . S
C2539 C2543 1.400 . S
C2540 H2525 0.960 . S
C2540 H2526 0.960 . S
C2540 H2527 0.960 . S
C2540 C2539 1.524 . S
C2541 C2538 1.403 . S
C2541 C2542 1.392 . S
C2541 C2545 1.495 . S
C2542 C2541 1.392 . S
C2542 C2543 1.385 . S
C2542 C2544 1.478 . S
C2543 H2537 0.930 . S
C2543 C2539 1.400 . S
C2543 C2542 1.385 . S
C2544 C2542 1.478 . S
C2544 C2546 1.381 . S
C2544 C2550 1.383 . S
C2545 C2541 1.495 . S
C2545 H2551 0.959 . S
C2545 H2552 0.961 . S
C2545 H2553 0.960 . S
C2546 C2544 1.381 . S
C2546 C2547 1.394 . S
C2546 H2554 0.930 . S
C2547 C2546 1.394 . S
C2547 C2548 1.383 . S
C2547 H2555 0.929 . S
C2548 C2547 1.383 . S
C2548 C2549 1.377 . S
C2549 H2533 0.930 . S
C2549 C2548 1.377 . S
C2549 C2550 1.379 . S
C2550 H2534 0.931 . S
C2550 C2544 1.383 . S
C2550 C2549 1.379 . S
H2551 C2545 0.959 . S
H2552 C2545 0.961 . S
H2553 C2545 0.960 . S
H2554 C2546 0.930 . S
H2555 C2547 0.929 . S
C621 C17 0.388 1_556 S
C640 C72 0.140 . S
C657 C4 0.208 . S
C676 C51 0.341 1_556 S
C693 C85 0.425 1_556 S
C712 C38 0.305 . S
C729 C149 0.203 . S
C748 C110 0.412 . S
C765 C183 0.224 . S
C784 C144 0.320 . S
C801 C178 0.428 . S
C820 C115 0.187 . S
C837 C276 0.241 . S
C856 C221 0.501 . S
C873 C255 0.411 . S
C892 C208 0.242 . S
C909 C242 0.204 . S
C928 C289 0.325 . S
C945 C314 0.387 . S
C964 C353 0.281 . S
C981 C387 0.240 . S
C1000 C348 0.340 . S
C1017 C382 0.428 . S
C1036 C319 0.210 . S
C1053 C480 0.215 . S
C1072 C425 0.404 . S
C1089 C459 0.407 . S
C1108 C412 0.255 . S
C1125 C493 0.424 . S
C1144 C446 0.302 . S
C1161 C518 0.428 . S
C1180 C557 0.200 . S
C1197 C591 0.214 . S
C1216 C552 0.349 . S
C1233 C523 0.215 . S
C1252 C586 0.507 . S
C1269 C170 1.110 . S
C1288 C0 1.125 . S
C1305 C102 1.107 . S
C1324 C34 1.088 . S
C1341 C136 1.111 . S
C1360 C68 1.118 . S
C1377 C63 1.103 . S
C1396 C131 1.089 . S
C1413 C165 1.108 . S
C1432 C97 1.125 . S
C1449 C29 1.110 . S
C1468 C199 1.104 . S
C1485 C204 1.108 . S
C1504 C374 1.125 . S
C1521 C238 1.104 . S
C1540 C306 1.112 . S
C1557 C340 1.108 . S
C1576 C272 1.090 . S
C1593 C335 1.107 . S
C1612 C267 1.086 . S
C1629 C369 1.103 . S
C1648 C301 1.086 . S
C1665 C403 1.110 . S
C1684 C233 1.125 . S
C1701 C408 1.107 . S
C1720 C578 1.085 . S
C1737 C442 1.106 . S
C1756 C510 1.120 . S
C1773 C476 1.107 . S
C1792 C544 1.085 . S
C1809 C539 1.109 . S
C1828 C471 1.126 . S
C1845 C573 1.103 . S
C1864 C505 1.086 . S
C1881 C607 1.108 . S
C1900 C437 1.090 . S
C1917 C357 2.162 . S
C1936 C13 2.228 . S
C1953 C47 2.235 . S
C1972 C391 2.150 . S
C1989 C323 2.168 . S
C2008 C81 2.238 . S
C2025 C106 2.236 . S
C2044 C280 2.142 . S
C2061 C140 2.237 . S
C2080 C212 2.170 . S
C2097 C246 2.168 . S
C2116 C174 2.236 . S
C2133 C217 2.237 . S
C2152 C561 2.179 . S
C2169 C251 2.236 . S
C2188 C595 2.161 . S
C2205 C285 2.237 . S
C2224 C527 2.177 . S
C2241 C484 2.162 . S
C2260 C310 2.226 . S
C2277 C416 2.169 . S
C2296 C344 2.234 . S
C2313 C450 2.163 . S
C2332 C378 2.238 . S
C2349 C153 2.164 . S
C2368 C421 2.227 . S
C2385 C455 2.237 . S
C2404 C187 2.180 . S
C2421 C119 2.163 . S
C2440 C489 2.225 . S
C2457 C514 2.234 . S
C2476 C76 2.173 . S
C2493 C548 2.236 . S
C2512 C8 2.143 . S
C2529 C42 2.169 . S
C2548 C582 2.228 . S
