# Generated by pormake.
# Topology tsi, (8)-cn, num edge types: 1
# Building blocks:
#     Node 0, Type 0, BuildingBlock: AJUNOK_clean_sbu_0, # of connection points: 8
#     Node 1, Type 0, BuildingBlock: AJUNOK_clean_sbu_0, # of connection points: 8
#     Node 2, Type 0, BuildingBlock: AJUNOK_clean_sbu_0, # of connection points: 8
#     Node 3, Type 0, BuildingBlock: AJUNOK_clean_sbu_0, # of connection points: 8
#     Edge 4, Type (0, 0), BuildingBlock: XUDNAN_clean_linker_2, # of connection points: 2
#     Edge 5, Type (0, 0), BuildingBlock: XUDNAN_clean_linker_2, # of connection points: 2
#     Edge 6, Type (0, 0), BuildingBlock: XUDNAN_clean_linker_2, # of connection points: 2
#     Edge 7, Type (0, 0), BuildingBlock: XUDNAN_clean_linker_2, # of connection points: 2
#     Edge 8, Type (0, 0), BuildingBlock: XUDNAN_clean_linker_2, # of connection points: 2
#     Edge 9, Type (0, 0), BuildingBlock: XUDNAN_clean_linker_2, # of connection points: 2
#     Edge 10, Type (0, 0), BuildingBlock: XUDNAN_clean_linker_2, # of connection points: 2
#     Edge 11, Type (0, 0), BuildingBlock: XUDNAN_clean_linker_2, # of connection points: 2
#     Edge 12, Type (0, 0), BuildingBlock: XUDNAN_clean_linker_2, # of connection points: 2
#     Edge 13, Type (0, 0), BuildingBlock: XUDNAN_clean_linker_2, # of connection points: 2
#     Edge 14, Type (0, 0), BuildingBlock: XUDNAN_clean_linker_2, # of connection points: 2
#     Edge 15, Type (0, 0), BuildingBlock: XUDNAN_clean_linker_2, # of connection points: 2
#     Edge 16, Type (0, 0), BuildingBlock: XUDNAN_clean_linker_2, # of connection points: 2
#     Edge 17, Type (0, 0), BuildingBlock: XUDNAN_clean_linker_2, # of connection points: 2
#     Edge 18, Type (0, 0), BuildingBlock: XUDNAN_clean_linker_2, # of connection points: 2
#     Edge 19, Type (0, 0), BuildingBlock: XUDNAN_clean_linker_2, # of connection points: 2
# Relax obj value: 0.179
# Max RMSD: 0.223
# Mean RMSD: 0.223
data_MOF--net-tsi--node1-AJUNOK_clean_sbu_0--edge1-XUDNAN_clean_linker_2
_symmetry_space_group_name_H-M    P1
_symmetry_Int_Tables_number       1
_symmetry_cell_setting            triclinic
loop_
_symmetry_equiv_pos_as_xyz
'x, y, z'
_cell_length_a     15.652148
_cell_length_b     15.711839
_cell_length_c     74.345987
_cell_angle_alpha  89.894989
_cell_angle_beta   89.409601
_cell_angle_gamma 90.12121
loop_
_atom_site_label
_atom_site_type_symbol
_atom_site_fract_x
_atom_site_fract_y
_atom_site_fract_z
_atom_type_partial_charge
Cd0 Cd 1.00292 0.10118 0.39093 0.0
Cd1 Cd 0.9928 0.29602 0.41845 0.0
C2 C 0.06824 0.17107 0.35289 0.0
N3 N 0.99455 0.14314 0.36078 0.0
C4 C 0.92935 0.12901 0.33201 0.0
C5 C 0.00466 0.15801 0.32335 0.0
C6 C 0.07442 0.17985 0.33423 0.0
C7 C 0.92555 0.12231 0.35077 0.0
H8 H 0.12357 0.1834 0.36108 0.0
H9 H 0.86895 0.09677 0.3573 0.0
C10 C 0.80894 0.17437 0.41056 0.0
C11 C 0.89159 0.41163 0.44791 0.0
C12 C 0.87161 0.4514 0.46426 0.0
C13 C 0.9233 0.438 0.47939 0.0
C14 C 0.99413 0.38358 0.47751 0.0
C15 C 0.01188 0.34519 0.46087 0.0
N16 N 0.96088 0.35992 0.44648 0.0
H17 H 0.85186 0.42216 0.4363 0.0
H18 H 0.06678 0.30398 0.45939 0.0
C19 C 0.82677 0.3538 0.393 0.0
N20 N 0.90941 0.32671 0.39194 0.0
C21 C 0.90471 0.33555 0.35969 0.0
C22 C 0.81793 0.35834 0.36024 0.0
C23 C 0.77929 0.36808 0.37734 0.0
C24 C 0.94856 0.31915 0.37561 0.0
H25 H 0.79661 0.3622 0.40603 0.0
H26 H 0.01431 0.2999 0.37476 0.0
C27 C 0.1699 0.18375 0.41313 0.0
C28 C 0.07874 0.95611 0.37601 0.0
N29 N 0.99766 0.02704 0.41899 0.0
C30 C 0.0741 0.99709 0.42487 0.0
C31 C 0.0788 0.94763 0.44046 0.0
C32 C 0.00419 0.92902 0.45031 0.0
C33 C 0.92605 0.9604 0.44406 0.0
C34 C 0.92401 0.00806 0.42811 0.0
C35 C 0.106 0.41609 0.40343 0.0
O36 O 0.84398 0.13781 0.39697 0.0
O37 O 0.85442 0.21808 0.42132 0.0
O38 O 0.11697 0.19917 0.4259 0.0
O39 O 0.14096 0.17481 0.39734 0.0
O40 O 0.99753 0.96116 0.37655 0.0
O41 O 0.12118 0.01716 0.38242 0.0
O42 O 0.1068 0.33906 0.39861 0.0
O43 O 0.05272 0.43807 0.41562 0.0
H44 H 0.13182 0.01032 0.41729 0.0
H45 H 0.86318 0.02746 0.4229 0.0
H46 H 0.87386 0.11022 0.3245 0.0
H47 H 0.13498 0.19957 0.32843 0.0
H48 H 0.81567 0.49169 0.46506 0.0
H49 H 0.03644 0.37197 0.48867 0.0
H50 H 0.93928 0.33016 0.34707 0.0
H51 H 0.71263 0.38517 0.37872 0.0
H52 H 0.14036 0.92443 0.44482 0.0
H53 H 0.8669 0.94596 0.45112 0.0
Cd54 Cd 0.12159 0.68598 0.64066 0.0
Cd55 Cd 0.93897 0.69974 0.6713 0.0
C56 C 0.07853 0.77215 0.603 0.0
N57 N 0.08204 0.69298 0.61038 0.0
C58 C 0.06203 0.62992 0.58147 0.0
C59 C 0.0562 0.71106 0.57347 0.0
C60 C 0.06488 0.78269 0.58461 0.0
C61 C 0.07462 0.62223 0.60002 0.0
H62 H 0.0881 0.82748 0.61135 0.0
H63 H 0.0802 0.5599 0.60609 0.0
C64 C 0.02356 0.50163 0.65713 0.0
C65 C 0.87881 0.57985 0.70512 0.0
C66 C 0.84668 0.56187 0.72236 0.0
C67 C 0.85274 0.62302 0.73613 0.0
C68 C 0.89665 0.69928 0.73222 0.0
C69 C 0.92855 0.71437 0.71479 0.0
N70 N 0.91765 0.65568 0.70156 0.0
H71 H 0.86805 0.53521 0.69432 0.0
H72 H 0.9572 0.77528 0.71154 0.0
C73 C 0.86715 0.59213 0.63604 0.0
N74 N 0.89498 0.67065 0.64112 0.0
C75 C 0.87899 0.72153 0.6109 0.0
C76 C 0.85771 0.63922 0.60488 0.0
C77 C 0.84934 0.5747 0.61796 0.0
C78 C 0.89745 0.73572 0.62904 0.0
H79 H 0.85986 0.54218 0.64595 0.0
H80 H 0.91556 0.7987 0.63339 0.0
C81 C 0.04989 0.86781 0.66096 0.0
C82 C 0.29594 0.70136 0.63346 0.0
N83 N 0.17115 0.68259 0.67121 0.0
C84 C 0.20579 0.75346 0.67885 0.0
C85 C 0.24177 0.74997 0.69605 0.0
C86 C 0.24584 0.67189 0.70527 0.0
C87 C 0.2146 0.59907 0.69656 0.0
C88 C 0.17853 0.60576 0.67952 0.0
C89 C 0.79667 0.80079 0.67811 0.0
O90 O 0.06483 0.53472 0.64394 0.0
O91 O 0.98618 0.54939 0.6686 0.0
O92 O 0.03855 0.81912 0.67445 0.0
O93 O 0.06324 0.83446 0.64562 0.0
O94 O 0.26249 0.62865 0.63594 0.0
O95 O 0.24539 0.76263 0.63078 0.0
O96 O 0.86108 0.83302 0.67018 0.0
O97 O 0.79705 0.72119 0.68121 0.0
H98 H 0.20749 0.81272 0.67145 0.0
H99 H 0.16107 0.5484 0.67263 0.0
H100 H 0.05653 0.57271 0.57355 0.0
H101 H 0.06407 0.84658 0.57916 0.0
H102 H 0.81483 0.50156 0.72469 0.0
H103 H 0.9022 0.749 0.7422 0.0
H104 H 0.88606 0.77419 0.60161 0.0
H105 H 0.82964 0.51102 0.61431 0.0
H106 H 0.26638 0.80781 0.70197 0.0
H107 H 0.22017 0.5366 0.7026 0.0
Cd108 Cd 0.55408 0.73463 0.92489 0.0
Cd109 Cd 0.55612 0.89332 0.88621 0.0
C110 C 0.67538 0.6555 0.89205 0.0
N111 N 0.59412 0.68156 0.89582 0.0
C112 C 0.54935 0.63437 0.86672 0.0
C113 C 0.63455 0.61794 0.86162 0.0
C114 C 0.69755 0.62596 0.87486 0.0
C115 C 0.53076 0.66746 0.88379 0.0
H116 H 0.72368 0.65822 0.90231 0.0
H117 H 0.46548 0.68271 0.88736 0.0
C118 C 0.37799 0.83082 0.91163 0.0
C119 C 0.46105 0.01293 0.91627 0.0
C120 C 0.44601 0.05968 0.93201 0.0
C121 C 0.5106 0.06755 0.94494 0.0
C122 C 0.58973 0.02889 0.94129 0.0
C123 C 0.60177 0.98251 0.92541 0.0
N124 N 0.537 0.9726 0.9135 0.0
H125 H 0.41136 0.00802 0.90633 0.0
H126 H 0.66371 0.95633 0.92254 0.0
C127 C 0.44693 0.80842 0.8547 0.0
N128 N 0.53039 0.82449 0.85841 0.0
C129 C 0.571 0.77968 0.82863 0.0
C130 C 0.48581 0.75749 0.82506 0.0
C131 C 0.42352 0.77365 0.83828 0.0
C132 C 0.59219 0.8129 0.84559 0.0
H133 H 0.39753 0.82343 0.86434 0.0
H134 H 0.65769 0.82976 0.84846 0.0
C135 C 0.74347 0.82708 0.9085 0.0
C136 C 0.48858 0.57045 0.92605 0.0
N137 N 0.58441 0.73659 0.95578 0.0
C138 C 0.65258 0.6924 0.96207 0.0
C139 C 0.6632 0.68068 0.98059 0.0
C140 C 0.60329 0.71508 0.99277 0.0
C141 C 0.53552 0.76348 0.98584 0.0
C142 C 0.52707 0.77313 0.96723 0.0
C143 C 0.55121 0.04922 0.86754 0.0
O144 O 0.42597 0.82415 0.92524 0.0
O145 O 0.41128 0.83768 0.89602 0.0
O146 O 0.70985 0.8518 0.89377 0.0
O147 O 0.6972 0.79577 0.92108 0.0
O148 O 0.4408 0.6325 0.92193 0.0
O149 O 0.56228 0.58793 0.93207 0.0
O150 O 0.62174 0.01656 0.87217 0.0
O151 O 0.48458 0.00586 0.87068 0.0
H152 H 0.69693 0.66339 0.95266 0.0
H153 H 0.47278 0.80694 0.96188 0.0
H154 H 0.49769 0.62717 0.8573 0.0
H155 H 0.76346 0.60965 0.87199 0.0
H156 H 0.38384 0.08828 0.93409 0.0
H157 H 0.64266 0.03565 0.95044 0.0
H158 H 0.6206 0.76995 0.8186 0.0
H159 H 0.35659 0.76081 0.83585 0.0
H160 H 0.71701 0.64393 0.98529 0.0
H161 H 0.48723 0.79052 0.99464 0.0
Cd162 Cd 0.50209 0.30108 0.17138 0.0
Cd163 Cd 0.33149 0.2908 0.1352 0.0
C164 C 0.57918 0.46136 0.14784 0.0
N165 N 0.54692 0.38139 0.14592 0.0
C166 C 0.57235 0.38772 0.11414 0.0
C167 C 0.59568 0.474 0.11537 0.0
C168 C 0.60267 0.50938 0.1327 0.0
C169 C 0.54715 0.34295 0.12958 0.0
H170 H 0.58388 0.489 0.16111 0.0
H171 H 0.52713 0.27735 0.12855 0.0
C172 C 0.40597 0.11824 0.15868 0.0
C173 C 0.22333 0.19176 0.16638 0.0
C174 C 0.18211 0.17312 0.18271 0.0
C175 C 0.16961 0.2375 0.19561 0.0
C176 C 0.19788 0.32014 0.19125 0.0
C177 C 0.23986 0.33558 0.17482 0.0
N178 N 0.25499 0.27105 0.16302 0.0
H179 H 0.23165 0.14201 0.1565 0.0
H180 H 0.25886 0.39954 0.17151 0.0
C181 C 0.4203 0.21246 0.09955 0.0
N182 N 0.39674 0.28933 0.10635 0.0
C183 C 0.41491 0.35367 0.07729 0.0
C184 C 0.43592 0.27414 0.06965 0.0
C185 C 0.44008 0.2034 0.08127 0.0
C186 C 0.39359 0.35944 0.09561 0.0
H187 H 0.41883 0.15679 0.10811 0.0
H188 H 0.37247 0.41948 0.10118 0.0
C189 C 0.388 0.48248 0.15736 0.0
C190 C 0.6507 0.22244 0.15934 0.0
N191 N 0.53289 0.32568 0.20188 0.0
C192 C 0.53121 0.4063 0.20853 0.0
C193 C 0.5516 0.42181 0.22653 0.0
C194 C 0.57478 0.35382 0.2378 0.0
C195 C 0.5757 0.27121 0.23051 0.0
C196 C 0.55431 0.25854 0.21247 0.0
C197 C 0.18092 0.25798 0.11573 0.0
O198 O 0.41383 0.16791 0.17216 0.0
O199 O 0.40069 0.14999 0.14295 0.0
O200 O 0.36453 0.44778 0.14263 0.0
O201 O 0.42109 0.43727 0.16976 0.0
O202 O 0.57856 0.18854 0.15646 0.0
O203 O 0.65334 0.28668 0.16975 0.0
O204 O 0.19944 0.33298 0.12074 0.0
O205 O 0.23224 0.1996 0.12004 0.0
H206 H 0.51496 0.45883 0.19981 0.0
H207 H 0.55532 0.19508 0.20684 0.0
H208 H 0.56932 0.35551 0.10134 0.0
H209 H 0.62508 0.57386 0.13464 0.0
H210 H 0.16187 0.10827 0.18525 0.0
H211 H 0.18689 0.3729 0.20032 0.0
H212 H 0.4125 0.41078 0.06916 0.0
H213 H 0.4536 0.14026 0.07623 0.0
H214 H 0.55101 0.48662 0.23147 0.0
H215 H 0.5922 0.21673 0.2387 0.0
H216 H 0.93643 0.37347 0.51396 0.0
H217 H 0.86755 0.60192 0.48458 0.0
H218 H 0.83335 0.67358 0.5132 0.0
H219 H 0.77417 0.39419 0.54948 0.0
H220 H 0.84396 0.35495 0.56675 0.0
H221 H 0.85748 0.31952 0.54385 0.0
H222 H 0.01377 0.36606 0.5448 0.0
H223 H 1.00331 0.40795 0.56724 0.0
H224 H 0.0407 0.47525 0.5491 0.0
H225 H 0.80661 0.72143 0.54513 0.0
H226 H 0.80139 0.74588 0.57777 0.0
H227 H 0.89649 0.48958 0.58668 0.0
C228 C 0.91443 0.4387 0.51351 0.0
C229 C 0.90388 0.48147 0.49687 0.0
C230 C 0.87447 0.56682 0.49703 0.0
C231 C 0.85517 0.6084 0.51326 0.0
C232 C 0.86567 0.56426 0.52936 0.0
C233 C 0.8949 0.48138 0.52963 0.0
C234 C 0.90307 0.44926 0.54881 0.0
C235 C 0.84096 0.37509 0.55243 0.0
C236 C 0.99568 0.4232 0.55274 0.0
C237 C 0.87639 0.52798 0.55929 0.0
C238 C 0.85337 0.5929 0.54779 0.0
C239 C 0.82525 0.67124 0.55426 0.0
C240 C 0.82309 0.68466 0.57294 0.0
C241 C 0.84964 0.62041 0.58512 0.0
C242 C 0.87466 0.54024 0.57801 0.0
H243 H 0.7784 0.66951 0.84272 0.0
H244 H 0.54224 0.52728 0.83649 0.0
H245 H 0.57206 0.51402 0.804 0.0
H246 H 0.76747 0.78445 0.80178 0.0
H247 H 0.88071 0.78046 0.79726 0.0
H248 H 0.84156 0.77682 0.82012 0.0
H249 H 0.92327 0.63546 0.82523 0.0
H250 H 0.9625 0.63903 0.80238 0.0
H251 H 0.90487 0.54679 0.81039 0.0
H252 H 0.62437 0.52234 0.77174 0.0
H253 H 0.69833 0.54423 0.74271 0.0
H254 H 0.90484 0.67403 0.77008 0.0
C255 C 0.73393 0.63329 0.83471 0.0
C256 C 0.65775 0.59943 0.84239 0.0
C257 C 0.60049 0.55486 0.83108 0.0
C258 C 0.61706 0.54662 0.81255 0.0
C259 C 0.69172 0.58234 0.80543 0.0
C260 C 0.74969 0.62397 0.81619 0.0
C261 C 0.82442 0.65802 0.80514 0.0
C262 C 0.82875 0.75572 0.80614 0.0
C263 C 0.90876 0.61737 0.81114 0.0
C264 C 0.79979 0.62857 0.78646 0.0
C265 C 0.7227 0.58557 0.78692 0.0
C266 C 0.68554 0.55457 0.77129 0.0
C267 C 0.72864 0.56684 0.75482 0.0
C268 C 0.80868 0.60956 0.75395 0.0
C269 C 0.84405 0.64106 0.77012 0.0
H270 H 0.64621 0.56456 1.0096 0.0
H271 H 0.57121 0.82527 1.02065 0.0
H272 H 0.56968 0.79393 0.05317 0.0
H273 H 0.51789 0.46776 0.04306 0.0
H274 H 0.59464 0.3876 0.04914 0.0
H275 H 0.59525 0.43102 1.02673 0.0
H276 H 0.78555 0.5394 0.04887 0.0
H277 H 0.75414 0.47417 0.03013 0.0
H278 H 0.75408 0.43027 0.05254 0.0
H279 H 0.56629 0.73193 0.08429 0.0
H280 H 0.56258 0.64497 0.11171 0.0
H281 H 0.64875 0.42585 0.08087 0.0
C282 C 0.63125 0.61565 1.01885 0.0
C283 C 0.60884 0.69763 1.01248 0.0
C284 C 0.58772 0.76188 1.02512 0.0
C285 C 0.5872 0.74479 0.04365 0.0
C286 C 0.60844 0.66317 0.04943 0.0
C287 C 0.6306 0.5997 0.03743 0.0
C288 C 0.6476 0.51651 0.04718 0.0
C289 C 0.58512 0.44663 0.04117 0.0
C290 C 0.7409 0.48846 0.04452 0.0
C291 C 0.63024 0.5429 0.0665 0.0
C292 C 0.60802 0.62777 0.06747 0.0
C293 C 0.58506 0.66572 0.08371 0.0
C294 C 0.5839 0.61554 0.09933 0.0
C295 C 0.60596 0.52792 0.0988 0.0
C296 C 0.63066 0.49202 0.08202 0.0
H297 H 0.84248 0.27965 0.32724 0.0
H298 H 0.68181 0.46701 0.35389 0.0
H299 H 0.60191 0.48644 0.32577 0.0
H300 H 0.85561 0.39141 0.28414 0.0
H301 H 0.8585 0.29216 0.27201 0.0
H302 H 0.89955 0.29812 0.29452 0.0
H303 H 0.79662 0.1718 0.30274 0.0
H304 H 0.75306 0.17224 0.28053 0.0
H305 H 0.68347 0.18479 0.29984 0.0
H306 H 0.53834 0.4846 0.29414 0.0
H307 H 0.49855 0.46129 0.26239 0.0
H308 H 0.70617 0.28065 0.25653 0.0
C309 C 0.79123 0.32543 0.32731 0.0
C310 C 0.76896 0.37116 0.34312 0.0
C311 C 0.69991 0.42954 0.34227 0.0
C312 C 0.65432 0.44169 0.32624 0.0
C313 C 0.67853 0.39559 0.311 0.0
C314 C 0.74569 0.33885 0.31143 0.0
C315 C 0.76003 0.29786 0.29319 0.0
C316 C 0.84864 0.32124 0.28549 0.0
C317 C 0.74745 0.20093 0.29414 0.0
C318 C 0.68968 0.33915 0.28249 0.0
C319 C 0.64335 0.39565 0.29293 0.0
C320 C 0.57459 0.44068 0.28588 0.0
C321 C 0.55264 0.42725 0.26779 0.0
C322 C 0.59899 0.36892 0.25691 0.0
C323 C 0.66861 0.32482 0.26448 0.0
H324 H 0.20271 0.3099 0.22877 0.0
H325 H 0.04096 0.12175 0.20308 0.0
H326 H 0.97885 0.08393 0.2326 0.0
H327 H 0.24642 0.19603 0.26817 0.0
H328 H 0.24024 0.28638 0.28303 0.0
H329 H 0.27034 0.30129 0.2598 0.0
H330 H 0.14713 0.40962 0.25581 0.0
H331 H 0.11734 0.39564 0.27911 0.0
H332 H 0.03944 0.37885 0.26178 0.0
H333 H 0.94072 0.05988 0.26531 0.0
H334 H 0.92597 0.05523 0.29824 0.0
H335 H 0.10217 0.26851 0.30237 0.0
C336 C 0.15308 0.26187 0.22919 0.0
C337 C 0.12779 0.21844 0.21341 0.0
C338 C 0.0634 0.15489 0.21487 0.0
C339 C 0.02692 0.13338 0.23162 0.0
C340 C 0.05424 0.17668 0.24686 0.0
C341 C 0.11508 0.24033 0.24577 0.0
C342 C 0.13378 0.27654 0.26423 0.0
C343 C 0.22829 0.26429 0.26909 0.0
C344 C 0.10786 0.37076 0.26528 0.0
C345 C 0.07576 0.22162 0.2759 0.0
C346 C 0.03017 0.16468 0.26562 0.0
C347 C 0.97512 0.10518 0.27347 0.0
C348 C 0.9667 0.10356 0.29229 0.0
C349 C 0.01224 0.16182 0.30322 0.0
C350 C 0.067 0.22199 0.29468 0.0
H351 H 0.38239 0.76069 0.72009 0.0
H352 H 0.18963 0.5697 0.73278 0.0
H353 H 0.24623 0.55703 0.76333 0.0
H354 H 0.55353 0.66943 0.74872 0.0
H355 H 0.59138 0.77184 0.75609 0.0
H356 H 0.54542 0.76058 0.73412 0.0
H357 H 0.43419 0.87763 0.74116 0.0
H358 H 0.48089 0.89171 0.76297 0.0
H359 H 0.36843 0.8686 0.76114 0.0
H360 H 0.31532 0.5701 0.79294 0.0
H361 H 0.38281 0.61983 0.82081 0.0
H362 H 0.52696 0.80815 0.79036 0.0
C363 C 0.35232 0.71586 0.72925 0.0
C364 C 0.282 0.66521 0.72377 0.0
C365 C 0.24481 0.60757 0.73632 0.0
C366 C 0.27648 0.5999 0.75379 0.0
C367 C 0.34562 0.65028 0.7587 0.0
C368 C 0.38307 0.70753 0.74688 0.0
C369 C 0.45202 0.75905 0.75623 0.0
C370 C 0.54083 0.73901 0.74831 0.0
C371 C 0.43267 0.85492 0.75532 0.0
C372 C 0.44387 0.72496 0.77531 0.0
C373 C 0.3839 0.66037 0.77622 0.0
C374 C 0.36256 0.62045 0.79239 0.0
C375 C 0.401 0.64934 0.80816 0.0
C376 C 0.45932 0.71842 0.80778 0.0
C377 C 0.48315 0.75479 0.79103 0.0
H378 H 0.57027 0.03096 0.97895 0.0
H379 H 0.41751 0.21454 0.94975 0.0
H380 H 0.38765 0.29078 0.97809 0.0
H381 H 0.44202 0.02051 1.01824 0.0
H382 H 0.53065 0.01271 0.03344 0.0
H383 H 0.54163 0.97488 1.01069 0.0
H384 H 0.67369 0.07274 1.00607 0.0
H385 H 0.66216 0.11139 0.02877 0.0
H386 H 0.66386 0.18536 1.01021 0.0
H387 H 0.36649 0.34167 1.00998 0.0
H388 H 0.35765 0.36498 0.04258 0.0
H389 H 0.53517 0.15632 0.0509 0.0
C390 C 0.53174 0.08804 0.9784 0.0
C391 C 0.49582 0.11607 0.962 0.0
C392 C 0.4445 0.19041 0.96209 0.0
C393 C 0.42776 0.23477 0.97813 0.0
C394 C 0.46348 0.20484 0.99403 0.0
C395 C 0.51501 0.13361 0.99427 0.0
C396 C 0.54412 0.11378 1.01324 0.0
C397 C 0.5127 0.02524 1.01926 0.0
C398 C 0.64176 0.12129 1.01465 0.0
C399 C 0.49954 0.18405 1.02368 0.0
C400 C 0.45353 0.23593 1.01234 0.0
C401 C 0.40352 0.30232 1.01895 0.0
C402 C 0.39959 0.31551 0.03762 0.0
C403 C 0.44623 0.26331 0.04966 0.0
C404 C 0.49785 0.19741 0.04234 0.0
H405 H 0.94002 0.96613 0.48385 0.0
H406 H 0.08 0.77377 0.45408 0.0
H407 H 0.09571 0.68922 0.48197 0.0
H408 H 0.07117 0.95986 0.52191 0.0
H409 H 0.98632 0.97751 0.53804 0.0
H410 H 0.97679 0.01744 0.51545 0.0
H411 H 0.83408 0.93733 0.51225 0.0
H412 H 0.84294 0.89456 0.53467 0.0
H413 H 0.82978 0.82412 0.51581 0.0
H414 H 0.10788 0.63259 0.51348 0.0
H415 H 0.11953 0.61014 0.54613 0.0
H416 H 0.96845 0.83761 0.55559 0.0
C417 C 0.97229 0.90529 0.48318 0.0
C418 C 0.00831 0.87599 0.46683 0.0
C419 C 0.05205 0.79719 0.4665 0.0
C420 C 0.06086 0.74862 0.48224 0.0
C421 C 0.026 0.77995 0.49824 0.0
C422 C 0.98262 0.85654 0.49884 0.0
C423 C 0.95801 0.87951 0.518 0.0
C424 C 1.00064 0.96353 0.52368 0.0
C425 C 0.86043 0.88407 0.52032 0.0
C426 C 0.99507 0.80441 0.52809 0.0
C427 C 0.0335 0.74746 0.51644 0.0
C428 C 0.0769 0.67613 0.52271 0.0
C429 C 0.08252 0.6635 0.54136 0.0
C430 C 0.04456 0.72157 0.55364 0.0
C431 C 0.99915 0.7922 0.54672 0.0
H432 H 0.19357 0.88209 0.39656 0.0
H433 H 0.05593 0.85196 0.34693 0.0
H434 H 0.11139 0.70546 0.344 0.0
H435 H 0.36762 0.7015 0.38917 0.0
H436 H 0.35326 0.67128 0.41241 0.0
H437 H 0.34766 0.78188 0.40595 0.0
H438 H 0.19868 0.79284 0.42119 0.0
H439 H 0.20359 0.68357 0.42753 0.0
H440 H 0.11491 0.72108 0.4144 0.0
H441 H 0.14288 0.55852 0.35032 0.0
H442 H 0.11076 0.42812 0.36736 0.0
H443 H 0.20033 0.54667 0.41608 0.0
C444 C 0.17935 0.84544 0.38463 0.0
C445 C 0.12242 0.87702 0.3718 0.0
C446 C 0.10068 0.82795 0.35672 0.0
C447 C 0.13302 0.74537 0.35489 0.0
C448 C 0.18432 0.7127 0.36858 0.0
C449 C 0.20643 0.76148 0.38337 0.0
C450 C 0.23492 0.70687 0.39897 0.0
C451 C 0.33162 0.7159 0.40178 0.0
C452 C 0.18488 0.72724 0.4165 0.0
C453 C 0.21346 0.62003 0.39161 0.0
C454 C 0.19284 0.62422 0.37351 0.0
C455 C 0.16053 0.55415 0.36433 0.0
C456 C 0.14206 0.48046 0.37412 0.0
C457 C 0.15267 0.47941 0.39294 0.0
C458 C 0.19293 0.54742 0.40162 0.0
H459 H 0.41834 0.81819 0.62362 0.0
H460 H 0.34864 0.633 0.66454 0.0
H461 H 0.43983 0.70523 0.68616 0.0
H462 H 0.63134 0.799 0.63236 0.0
H463 H 0.65849 0.90832 0.62736 0.0
H464 H 0.56636 0.86113 0.61737 0.0
H465 H 0.47626 0.98564 0.63045 0.0
H466 H 0.56869 0.02926 0.64147 0.0
H467 H 0.4739 0.0039 0.65438 0.0
H468 H 0.53797 0.78597 0.7028 0.0
H469 H 0.69246 0.79033 0.70703 0.0
H470 H 0.72497 0.91166 0.65523 0.0
C471 C 0.42354 0.79282 0.63712 0.0
C472 C 0.37481 0.72197 0.64264 0.0
C473 C 0.38466 0.68822 0.66012 0.0
C474 C 0.434 0.73073 0.6727 0.0
C475 C 0.47667 0.80451 0.66735 0.0
C476 C 0.47713 0.8314 0.64962 0.0
C477 C 0.54941 0.89301 0.64599 0.0
C478 C 0.60471 0.86347 0.62985 0.0
C479 C 0.51496 0.9833 0.64289 0.0
C480 C 0.59548 0.88737 0.66384 0.0
C481 C 0.54572 0.845 0.6766 0.0
C482 C 0.57777 0.81932 0.69312 0.0
C483 C 0.66562 0.82227 0.69546 0.0
C484 C 0.71857 0.84873 0.68108 0.0
C485 C 0.68385 0.89184 0.66627 0.0
H486 H 0.60128 0.44113 0.92399 0.0
H487 H 0.34451 0.5146 0.90886 0.0
H488 H 0.34294 0.39932 0.88624 0.0
H489 H 0.67558 0.40926 0.87995 0.0
H490 H 0.74353 0.32087 0.88563 0.0
H491 H 0.72091 0.402 0.90208 0.0
H492 H 0.6609 0.2897 0.92481 0.0
H493 H 0.68936 0.20826 0.90895 0.0
H494 H 0.58122 0.21502 0.91738 0.0
H495 H 0.37134 0.27526 0.86561 0.0
H496 H 0.41644 0.13637 0.8534 0.0
H497 H 0.66383 0.16692 0.87823 0.0
C498 C 0.54346 0.43171 0.91635 0.0
C499 C 0.47311 0.48672 0.91813 0.0
C500 C 0.39899 0.47245 0.90777 0.0
C501 C 0.39821 0.40848 0.89465 0.0
C502 C 0.47238 0.36104 0.89205 0.0
C503 C 0.54286 0.37107 0.90286 0.0
C504 C 0.61507 0.31332 0.89743 0.0
C505 C 0.69337 0.36446 0.89088 0.0
C506 C 0.6379 0.25299 0.91305 0.0
C507 C 0.57356 0.26684 0.88211 0.0
C508 C 0.49133 0.29548 0.87909 0.0
C509 C 0.43604 0.2532 0.86758 0.0
C510 C 0.46258 0.17503 0.86047 0.0
C511 C 0.5432 0.14116 0.8651 0.0
C512 C 0.60235 0.19196 0.8743 0.0
H513 H 0.05205 0.36702 0.10911 0.0
H514 H 0.11947 0.10032 0.10741 0.0
H515 H 0.96825 0.06114 0.1097 0.0
H516 H 0.94416 0.36356 0.14225 0.0
H517 H 0.85578 0.43317 0.13743 0.0
H518 H 0.95363 0.44514 0.12519 0.0
H519 H 0.87673 0.42486 0.0948 0.0
H520 H 0.77712 0.41729 0.1071 0.0
H521 H 0.80757 0.33438 0.09162 0.0
H522 H 0.83003 0.04963 0.12495 0.0
H523 H 0.71301 0.0693 0.14735 0.0
H524 H 0.7392 0.34244 0.14208 0.0
C525 C 0.03395 0.30072 0.10804 0.0
C526 C 0.0964 0.23679 0.10863 0.0
C527 C 0.07204 0.15041 0.1072 0.0
C528 C 0.98592 0.12752 0.10841 0.0
C529 C 0.9257 0.19187 0.11073 0.0
C530 C 0.94819 0.27749 0.10975 0.0
C531 C 0.87768 0.33366 0.11709 0.0
C532 C 0.90986 0.39735 0.13134 0.0
C533 C 0.83207 0.38021 0.10173 0.0
C534 C 0.82049 0.26641 0.12524 0.0
C535 C 0.84561 0.18516 0.12048 0.0
C536 C 0.80812 0.11297 0.1283 0.0
C537 C 0.74337 0.1244 0.14125 0.0
C538 C 0.72045 0.20723 0.14669 0.0
C539 C 0.75796 0.2785 0.13834 0.0
H540 H 0.08309 0.99764 0.63595 0.0
H541 H 1.0021 0.95384 0.69126 0.0
H542 H 0.98669 0.10809 0.69568 0.0
H543 H 0.20614 0.19021 0.64497 0.0
H544 H 0.17592 0.24315 0.62448 0.0
H545 H 0.18069 0.12861 0.6253 0.0
H546 H 0.0239 0.11994 0.61475 0.0
H547 H 0.01857 0.23446 0.61395 0.0
H548 H 0.9419 0.17532 0.62725 0.0
H549 H 0.97634 0.26586 0.6944 0.0
H550 H 0.97752 0.41904 0.68796 0.0
H551 H 0.06858 0.36868 0.63363 0.0
C552 C 0.0624 0.02057 0.649 0.0
C553 C 0.044 0.96257 0.66327 0.0
C554 C 0.01706 0.99595 0.68011 0.0
C555 C 0.00783 0.0839 0.68277 0.0
C556 C 0.02611 0.13899 0.66852 0.0
C557 C 0.05336 0.10909 0.65198 0.0
C558 C 0.06937 0.18337 0.63907 0.0
C559 C 0.16364 0.18651 0.6331 0.0
C560 C 0.00989 0.17793 0.62279 0.0
C561 C 0.04665 0.2593 0.65097 0.0
C562 C 0.02144 0.23151 0.66786 0.0
C563 C 0.99612 0.28832 0.68123 0.0
C564 C 0.99669 0.37573 0.67737 0.0
C565 C 0.02284 0.40709 0.66025 0.0
C566 C 0.04841 0.3474 0.64687 0.0
H567 H 0.87886 0.84007 0.88358 0.0
H568 H 0.82201 0.82753 0.94084 0.0
H569 H 0.97528 0.83075 0.94739 0.0
H570 H 0.06373 0.70391 0.88501 0.0
H571 H 0.12462 0.76263 0.86842 0.0
H572 H 0.00957 0.76344 0.86781 0.0
H573 H 0.01042 0.92804 0.86901 0.0
H574 H 0.12552 0.92771 0.86959 0.0
H575 H 0.06538 0.98124 0.88699 0.0
H576 H 0.13345 0.83162 0.94832 0.0
H577 H 0.28906 0.82927 0.94342 0.0
H578 H 0.25074 0.8396 0.88566 0.0
C579 C 0.89881 0.83901 0.89748 0.0
C580 C 0.83754 0.83371 0.91168 0.0
C581 C 0.86688 0.83127 0.92967 0.0
C582 C 0.9542 0.83327 0.93359 0.0
C583 C 0.01273 0.83745 0.9194 0.0
C584 C 0.98678 0.84028 0.90169 0.0
C585 C 0.0644 0.84207 0.88912 0.0
C586 C 0.06563 0.76332 0.87686 0.0
C587 C 0.06653 0.92469 0.87802 0.0
C588 C 0.13734 0.83956 0.90257 0.0
C589 C 0.10551 0.83721 0.91995 0.0
C590 C 0.15923 0.83369 0.93476 0.0
C591 C 0.2479 0.83232 0.93182 0.0
C592 C 0.28304 0.83435 0.91417 0.0
C593 C 0.22641 0.83829 0.89934 0.0
H594 H 0.37253 0.6164 0.13225 0.0
H595 H 0.394 0.5649 0.18944 0.0
H596 H 0.39855 0.71831 0.19554 0.0
H597 H 0.51384 0.79352 0.13081 0.0
H598 H 0.45369 0.85855 0.11548 0.0
H599 H 0.44463 0.74449 0.11454 0.0
H600 H 0.28222 0.75019 0.11891 0.0
H601 H 0.2879 0.8648 0.11907 0.0
H602 H 0.2373 0.80898 0.13752 0.0
H603 H 0.40581 0.87704 0.19598 0.0
H604 H 0.41306 0.03155 0.19061 0.0
H605 H 0.38683 0.98816 0.13325 0.0
C606 C 0.37675 0.63749 0.14607 0.0
C607 C 0.38259 0.57724 0.16036 0.0
C608 C 0.38958 0.60852 0.17819 0.0
C609 C 0.39215 0.69612 0.18185 0.0
C610 C 0.38757 0.75347 0.16759 0.0
C611 C 0.37949 0.72589 0.15004 0.0
C612 C 0.37719 0.80246 0.13732 0.0
C613 C 0.45188 0.79956 0.12375 0.0
C614 C 0.29102 0.80685 0.12763 0.0
C615 C 0.38695 0.87656 0.15045 0.0
C616 C 0.39216 0.84631 0.16785 0.0
C617 C 0.40155 0.90142 0.1824 0.0
C618 C 0.4057 0.98959 0.17918 0.0
C619 C 0.40071 0.0233 0.16151 0.0
C620 C 0.39098 0.96521 0.14695 0.0
H621 H 0.67388 0.1462 0.38655 0.0
H622 H 0.72708 0.19574 0.44273 0.0
H623 H 0.57277 0.20024 0.4494 0.0
H624 H 0.49274 0.28662 0.38394 0.0
H625 H 0.43183 0.21943 0.36918 0.0
H626 H 0.54687 0.21515 0.36872 0.0
H627 H 0.54115 0.05295 0.37476 0.0
H628 H 0.42606 0.05674 0.37521 0.0
H629 H 0.48282 0.01335 0.39408 0.0
H630 H 0.41104 0.20316 0.45027 0.0
H631 H 0.25542 0.20512 0.44501 0.0
H632 H 0.30182 0.15642 0.3883 0.0
C633 C 0.65302 0.15654 0.4003 0.0
C634 C 0.71388 0.16977 0.41413 0.0
C635 C 0.68284 0.18512 0.43185 0.0
C636 C 0.59477 0.1878 0.43582 0.0
C637 C 0.5367 0.17563 0.42196 0.0
C638 C 0.56434 0.16031 0.40452 0.0
C639 C 0.48763 0.15249 0.39209 0.0
C640 C 0.48992 0.22259 0.37762 0.0
C641 C 0.48424 0.06359 0.38353 0.0
C642 C 0.4131 0.16559 0.40524 0.0
C643 C 0.44311 0.17863 0.42242 0.0
C644 C 0.38699 0.19282 0.43685 0.0
C645 C 0.29822 0.19383 0.43373 0.0
C646 C 0.26507 0.18095 0.41627 0.0
C647 C 0.3242 0.16645 0.40187 0.0
loop_
_geom_bond_atom_site_label_1
_geom_bond_atom_site_label_2
_geom_bond_distance
_geom_bond_site_symmetry_2
_ccdc_geom_bond_type
Cd0 N3 2.334 . S
Cd0 N29 2.304 . S
Cd0 O36 2.268 1_455 S
Cd0 O39 2.273 . S
Cd0 O40 2.417 1_445 S
Cd0 O41 2.330 1_545 S
Cd1 N16 2.304 . S
Cd1 N20 2.334 . S
Cd1 O37 2.273 . S
Cd1 O38 2.268 1_655 S
Cd1 O42 2.417 1_655 S
Cd1 O43 2.330 . S
C2 N3 1.332 . S
C2 C6 1.381 . S
C2 H8 0.931 . S
N3 Cd0 2.334 . S
N3 C2 1.332 . S
N3 C7 1.328 1_455 S
C4 C5 1.396 1_655 S
C4 C7 1.378 . S
C4 H46 0.931 . S
C5 C4 1.396 1_455 S
C5 C6 1.382 . S
C6 C2 1.381 . S
C6 C5 1.382 . S
C6 H47 0.930 . S
C7 N3 1.328 1_655 S
C7 C4 1.378 . S
C7 H9 0.930 . S
H8 C2 0.931 . S
H9 C7 0.930 . S
C10 O36 1.238 . S
C10 O37 1.253 . S
C11 C12 1.379 . S
C11 N16 1.337 . S
C11 H17 0.929 . S
C12 C11 1.379 . S
C12 C13 1.380 . S
C12 H48 0.929 . S
C13 C12 1.380 . S
C13 C14 1.399 1_655 S
C14 C13 1.399 1_455 S
C14 C15 1.376 . S
C14 H49 0.931 . S
C15 C14 1.376 . S
C15 N16 1.338 1_455 S
C15 H18 0.930 . S
N16 Cd1 2.304 . S
N16 C11 1.337 . S
N16 C15 1.338 1_655 S
H17 C11 0.929 . S
H18 C15 0.930 . S
C19 N20 1.332 . S
C19 C23 1.381 . S
C19 H25 0.931 . S
N20 Cd1 2.334 . S
N20 C19 1.332 . S
N20 C24 1.328 1_655 S
C21 C22 1.396 1_455 S
C21 C24 1.378 . S
C21 H50 0.931 . S
C22 C21 1.396 1_655 S
C22 C23 1.382 . S
C23 C19 1.381 . S
C23 C22 1.382 . S
C23 H51 0.930 . S
C24 N20 1.328 1_455 S
C24 C21 1.378 . S
C24 H26 0.930 . S
H25 C19 0.931 . S
H26 C24 0.930 . S
C27 O38 1.238 . S
C27 O39 1.253 . S
C28 O40 1.239 1_455 S
C28 O41 1.230 . S
N29 Cd0 2.304 . S
N29 C30 1.337 . S
N29 C34 1.338 1_455 S
C30 N29 1.337 . S
C30 C31 1.379 . S
C30 H44 0.929 . S
C31 C30 1.379 . S
C31 C32 1.380 . S
C31 H52 0.929 . S
C32 C31 1.380 . S
C32 C33 1.399 1_455 S
C33 C32 1.399 1_655 S
C33 C34 1.376 . S
C33 H53 0.931 . S
C34 N29 1.338 1_655 S
C34 C33 1.376 . S
C34 H45 0.930 . S
C35 O42 1.239 1_655 S
C35 O43 1.230 . S
O36 Cd0 2.268 1_655 S
O36 C10 1.238 . S
O37 Cd1 2.273 . S
O37 C10 1.253 . S
O38 Cd1 2.268 1_455 S
O38 C27 1.238 . S
O39 Cd0 2.273 . S
O39 C27 1.253 . S
O40 Cd0 2.417 1_665 S
O40 C28 1.239 1_655 S
O41 Cd0 2.330 1_565 S
O41 C28 1.230 . S
O42 Cd1 2.417 1_455 S
O42 C35 1.239 1_455 S
O43 Cd1 2.330 . S
O43 C35 1.230 . S
H44 C30 0.929 . S
H45 C34 0.930 . S
H46 C4 0.931 . S
H47 C6 0.930 . S
H48 C12 0.929 . S
H49 C14 0.931 . S
H50 C21 0.931 . S
H51 C23 0.930 . S
H52 C31 0.929 . S
H53 C33 0.931 . S
Cd54 N57 2.334 . S
Cd54 N83 2.304 . S
Cd54 O90 2.268 . S
Cd54 O93 2.273 . S
Cd54 O94 2.417 . S
Cd54 O95 2.330 . S
Cd55 N70 2.304 . S
Cd55 N74 2.334 . S
Cd55 O91 2.273 . S
Cd55 O92 2.268 . S
Cd55 O96 2.417 . S
Cd55 O97 2.330 . S
C56 N57 1.332 . S
C56 C60 1.381 . S
C56 H62 0.931 . S
N57 Cd54 2.334 . S
N57 C56 1.332 . S
N57 C61 1.328 . S
C58 C59 1.396 . S
C58 C61 1.378 . S
C58 H100 0.931 . S
C59 C58 1.396 . S
C59 C60 1.382 . S
C60 C56 1.381 . S
C60 C59 1.382 . S
C60 H101 0.930 . S
C61 N57 1.328 . S
C61 C58 1.378 . S
C61 H63 0.930 . S
H62 C56 0.931 . S
H63 C61 0.930 . S
C64 O90 1.238 1_655 S
C64 O91 1.253 . S
C65 C66 1.379 . S
C65 N70 1.337 . S
C65 H71 0.929 . S
C66 C65 1.379 . S
C66 C67 1.380 . S
C66 H102 0.929 . S
C67 C66 1.380 . S
C67 C68 1.399 . S
C68 C67 1.399 . S
C68 C69 1.376 . S
C68 H103 0.931 . S
C69 C68 1.376 . S
C69 N70 1.338 . S
C69 H72 0.930 . S
N70 Cd55 2.304 . S
N70 C65 1.337 . S
N70 C69 1.338 . S
H71 C65 0.929 . S
H72 C69 0.930 . S
C73 N74 1.332 . S
C73 C77 1.381 . S
C73 H79 0.931 . S
N74 Cd55 2.334 . S
N74 C73 1.332 . S
N74 C78 1.328 . S
C75 C76 1.396 . S
C75 C78 1.378 . S
C75 H104 0.931 . S
C76 C75 1.396 . S
C76 C77 1.382 . S
C77 C73 1.381 . S
C77 C76 1.382 . S
C77 H105 0.930 . S
C78 N74 1.328 . S
C78 C75 1.378 . S
C78 H80 0.930 . S
H79 C73 0.931 . S
H80 C78 0.930 . S
C81 O92 1.238 1_455 S
C81 O93 1.253 . S
C82 O94 1.239 . S
C82 O95 1.230 . S
N83 Cd54 2.304 . S
N83 C84 1.337 . S
N83 C88 1.338 . S
C84 N83 1.337 . S
C84 C85 1.379 . S
C84 H98 0.929 . S
C85 C84 1.379 . S
C85 C86 1.380 . S
C85 H106 0.929 . S
C86 C85 1.380 . S
C86 C87 1.399 . S
C87 C86 1.399 . S
C87 C88 1.376 . S
C87 H107 0.931 . S
C88 N83 1.338 . S
C88 C87 1.376 . S
C88 H99 0.930 . S
C89 O96 1.239 . S
C89 O97 1.230 . S
O90 Cd54 2.268 . S
O90 C64 1.238 1_455 S
O91 Cd55 2.273 . S
O91 C64 1.253 . S
O92 Cd55 2.268 . S
O92 C81 1.238 1_655 S
O93 Cd54 2.273 . S
O93 C81 1.253 . S
O94 Cd54 2.417 . S
O94 C82 1.239 . S
O95 Cd54 2.330 . S
O95 C82 1.230 . S
O96 Cd55 2.417 . S
O96 C89 1.239 . S
O97 Cd55 2.330 . S
O97 C89 1.230 . S
H98 C84 0.929 . S
H99 C88 0.930 . S
H100 C58 0.931 . S
H101 C60 0.930 . S
H102 C66 0.929 . S
H103 C68 0.931 . S
H104 C75 0.931 . S
H105 C77 0.930 . S
H106 C85 0.929 . S
H107 C87 0.931 . S
Cd108 N111 2.334 . S
Cd108 N137 2.304 . S
Cd108 O144 2.268 . S
Cd108 O147 2.273 . S
Cd108 O148 2.417 . S
Cd108 O149 2.330 . S
Cd109 N124 2.304 . S
Cd109 N128 2.334 . S
Cd109 O145 2.273 . S
Cd109 O146 2.268 . S
Cd109 O150 2.417 1_565 S
Cd109 O151 2.330 1_565 S
C110 N111 1.332 . S
C110 C114 1.381 . S
C110 H116 0.931 . S
N111 Cd108 2.334 . S
N111 C110 1.332 . S
N111 C115 1.328 . S
C112 C113 1.396 . S
C112 C115 1.378 . S
C112 H154 0.931 . S
C113 C112 1.396 . S
C113 C114 1.382 . S
C114 C110 1.381 . S
C114 C113 1.382 . S
C114 H155 0.930 . S
C115 N111 1.328 . S
C115 C112 1.378 . S
C115 H117 0.930 . S
H116 C110 0.931 . S
H117 C115 0.930 . S
C118 O144 1.238 . S
C118 O145 1.253 . S
C119 C120 1.379 . S
C119 N124 1.337 . S
C119 H125 0.929 . S
C120 C119 1.379 . S
C120 C121 1.380 . S
C120 H156 0.929 . S
C121 C120 1.380 . S
C121 C122 1.399 . S
C122 C121 1.399 . S
C122 C123 1.376 . S
C122 H157 0.931 . S
C123 C122 1.376 . S
C123 N124 1.338 . S
C123 H126 0.930 . S
N124 Cd109 2.304 . S
N124 C119 1.337 . S
N124 C123 1.338 . S
H125 C119 0.929 . S
H126 C123 0.930 . S
C127 N128 1.332 . S
C127 C131 1.381 . S
C127 H133 0.931 . S
N128 Cd109 2.334 . S
N128 C127 1.332 . S
N128 C132 1.328 . S
C129 C130 1.396 . S
C129 C132 1.378 . S
C129 H158 0.931 . S
C130 C129 1.396 . S
C130 C131 1.382 . S
C131 C127 1.381 . S
C131 C130 1.382 . S
C131 H159 0.930 . S
C132 N128 1.328 . S
C132 C129 1.378 . S
C132 H134 0.930 . S
H133 C127 0.931 . S
H134 C132 0.930 . S
C135 O146 1.238 . S
C135 O147 1.253 . S
C136 O148 1.239 . S
C136 O149 1.230 . S
N137 Cd108 2.304 . S
N137 C138 1.337 . S
N137 C142 1.338 . S
C138 N137 1.337 . S
C138 C139 1.379 . S
C138 H152 0.929 . S
C139 C138 1.379 . S
C139 C140 1.380 . S
C139 H160 0.929 . S
C140 C139 1.380 . S
C140 C141 1.399 . S
C141 C140 1.399 . S
C141 C142 1.376 . S
C141 H161 0.931 . S
C142 N137 1.338 . S
C142 C141 1.376 . S
C142 H153 0.930 . S
C143 O150 1.239 . S
C143 O151 1.230 . S
O144 Cd108 2.268 . S
O144 C118 1.238 . S
O145 Cd109 2.273 . S
O145 C118 1.253 . S
O146 Cd109 2.268 . S
O146 C135 1.238 . S
O147 Cd108 2.273 . S
O147 C135 1.253 . S
O148 Cd108 2.417 . S
O148 C136 1.239 . S
O149 Cd108 2.330 . S
O149 C136 1.230 . S
O150 Cd109 2.417 1_545 S
O150 C143 1.239 . S
O151 Cd109 2.330 1_545 S
O151 C143 1.230 . S
H152 C138 0.929 . S
H153 C142 0.930 . S
H154 C112 0.931 . S
H155 C114 0.930 . S
H156 C120 0.929 . S
H157 C122 0.931 . S
H158 C129 0.931 . S
H159 C131 0.930 . S
H160 C139 0.929 . S
H161 C141 0.931 . S
Cd162 N165 2.334 . S
Cd162 N191 2.304 . S
Cd162 O198 2.268 . S
Cd162 O201 2.273 . S
Cd162 O202 2.417 . S
Cd162 O203 2.330 . S
Cd163 N178 2.304 . S
Cd163 N182 2.334 . S
Cd163 O199 2.273 . S
Cd163 O200 2.268 . S
Cd163 O204 2.417 . S
Cd163 O205 2.330 . S
C164 N165 1.332 . S
C164 C168 1.381 . S
C164 H170 0.931 . S
N165 Cd162 2.334 . S
N165 C164 1.332 . S
N165 C169 1.328 . S
C166 C167 1.396 . S
C166 C169 1.378 . S
C166 H208 0.931 . S
C167 C166 1.396 . S
C167 C168 1.382 . S
C168 C164 1.381 . S
C168 C167 1.382 . S
C168 H209 0.930 . S
C169 N165 1.328 . S
C169 C166 1.378 . S
C169 H171 0.930 . S
H170 C164 0.931 . S
H171 C169 0.930 . S
C172 O198 1.238 . S
C172 O199 1.253 . S
C173 C174 1.379 . S
C173 N178 1.337 . S
C173 H179 0.929 . S
C174 C173 1.379 . S
C174 C175 1.380 . S
C174 H210 0.929 . S
C175 C174 1.380 . S
C175 C176 1.399 . S
C176 C175 1.399 . S
C176 C177 1.376 . S
C176 H211 0.931 . S
C177 C176 1.376 . S
C177 N178 1.338 . S
C177 H180 0.930 . S
N178 Cd163 2.304 . S
N178 C173 1.337 . S
N178 C177 1.338 . S
H179 C173 0.929 . S
H180 C177 0.930 . S
C181 N182 1.332 . S
C181 C185 1.381 . S
C181 H187 0.931 . S
N182 Cd163 2.334 . S
N182 C181 1.332 . S
N182 C186 1.328 . S
C183 C184 1.396 . S
C183 C186 1.378 . S
C183 H212 0.931 . S
C184 C183 1.396 . S
C184 C185 1.382 . S
C185 C181 1.381 . S
C185 C184 1.382 . S
C185 H213 0.930 . S
C186 N182 1.328 . S
C186 C183 1.378 . S
C186 H188 0.930 . S
H187 C181 0.931 . S
H188 C186 0.930 . S
C189 O200 1.238 . S
C189 O201 1.253 . S
C190 O202 1.239 . S
C190 O203 1.230 . S
N191 Cd162 2.304 . S
N191 C192 1.337 . S
N191 C196 1.338 . S
C192 N191 1.337 . S
C192 C193 1.379 . S
C192 H206 0.929 . S
C193 C192 1.379 . S
C193 C194 1.380 . S
C193 H214 0.929 . S
C194 C193 1.380 . S
C194 C195 1.399 . S
C195 C194 1.399 . S
C195 C196 1.376 . S
C195 H215 0.931 . S
C196 N191 1.338 . S
C196 C195 1.376 . S
C196 H207 0.930 . S
C197 O204 1.239 . S
C197 O205 1.230 . S
O198 Cd162 2.268 . S
O198 C172 1.238 . S
O199 Cd163 2.273 . S
O199 C172 1.253 . S
O200 Cd163 2.268 . S
O200 C189 1.238 . S
O201 Cd162 2.273 . S
O201 C189 1.253 . S
O202 Cd162 2.417 . S
O202 C190 1.239 . S
O203 Cd162 2.330 . S
O203 C190 1.230 . S
O204 Cd163 2.417 . S
O204 C197 1.239 . S
O205 Cd163 2.330 . S
O205 C197 1.230 . S
H206 C192 0.929 . S
H207 C196 0.930 . S
H208 C166 0.931 . S
H209 C168 0.930 . S
H210 C174 0.929 . S
H211 C176 0.931 . S
H212 C183 0.931 . S
H213 C185 0.930 . S
H214 C193 0.929 . S
H215 C195 0.931 . S
H216 C228 0.930 . S
H217 C230 0.930 . S
H218 C231 0.930 . S
H219 C235 0.959 . S
H220 C235 0.959 . S
H221 C235 0.961 . S
H222 C236 0.960 . S
H223 C236 0.961 . S
H224 C236 0.959 . S
H225 C239 0.929 . S
H226 C240 0.931 1_455 S
H227 C242 0.930 . S
C228 H216 0.930 . S
C228 C229 1.399 . S
C228 C233 1.399 . S
C229 C228 1.399 . S
C229 C230 1.376 1_655 S
C230 H217 0.930 . S
C230 C229 1.376 1_455 S
C230 C231 1.388 . S
C231 H218 0.930 . S
C231 C230 1.388 . S
C231 C232 1.390 1_455 S
C232 C231 1.390 1_655 S
C232 C233 1.394 . S
C232 C238 1.465 . S
C233 C228 1.399 . S
C233 C232 1.394 . S
C233 C234 1.516 . S
C234 C233 1.516 . S
C234 C235 1.502 . S
C234 C236 1.561 . S
C234 C237 1.526 . S
C235 H219 0.959 . S
C235 H220 0.959 . S
C235 H221 0.961 . S
C235 C234 1.502 . S
C236 H222 0.960 . S
C236 H223 0.961 . S
C236 H224 0.959 . S
C236 C234 1.561 . S
C237 C234 1.526 . S
C237 C238 1.396 . S
C237 C242 1.390 . S
C238 C232 1.465 . S
C238 C237 1.396 . S
C238 C239 1.399 1_655 S
C239 H225 0.929 . S
C239 C238 1.399 1_455 S
C239 C240 1.385 1_455 S
C240 H226 0.931 1_655 S
C240 C239 1.385 1_655 S
C240 C241 1.389 . S
C241 C240 1.389 . S
C241 C242 1.387 . S
C242 H227 0.930 . S
C242 C237 1.390 . S
C242 C241 1.387 . S
H243 C255 0.930 . S
H244 C257 0.930 . S
H245 C258 0.930 . S
H246 C262 0.959 . S
H247 C262 0.959 . S
H248 C262 0.961 . S
H249 C263 0.960 . S
H250 C263 0.961 . S
H251 C263 0.959 . S
H252 C266 0.929 . S
H253 C267 0.931 . S
H254 C269 0.930 . S
C255 H243 0.930 . S
C255 C256 1.399 . S
C255 C260 1.399 . S
C256 C255 1.399 . S
C256 C257 1.376 . S
C257 H244 0.930 . S
C257 C256 1.376 . S
C257 C258 1.388 . S
C258 H245 0.930 . S
C258 C257 1.388 . S
C258 C259 1.390 . S
C259 C258 1.390 . S
C259 C260 1.394 . S
C259 C265 1.465 . S
C260 C255 1.399 . S
C260 C259 1.394 . S
C260 C261 1.516 . S
C261 C260 1.516 . S
C261 C262 1.502 . S
C261 C263 1.561 . S
C261 C264 1.526 . S
C262 H246 0.959 . S
C262 H247 0.959 . S
C262 H248 0.961 . S
C262 C261 1.502 . S
C263 H249 0.960 . S
C263 H250 0.961 . S
C263 H251 0.959 . S
C263 C261 1.561 . S
C264 C261 1.526 . S
C264 C265 1.396 . S
C264 C269 1.390 . S
C265 C259 1.465 . S
C265 C264 1.396 . S
C265 C266 1.399 . S
C266 H252 0.929 . S
C266 C265 1.399 . S
C266 C267 1.385 . S
C267 H253 0.931 . S
C267 C266 1.385 . S
C267 C268 1.389 . S
C268 C267 1.389 . S
C268 C269 1.387 . S
C269 H254 0.930 . S
C269 C264 1.390 . S
C269 C268 1.387 . S
H270 C282 0.930 . S
H271 C284 0.930 . S
H272 C285 0.930 . S
H273 C289 0.959 1_554 S
H274 C289 0.959 1_554 S
H275 C289 0.961 . S
H276 C290 0.960 . S
H277 C290 0.961 . S
H278 C290 0.959 . S
H279 C293 0.929 . S
H280 C294 0.931 . S
H281 C296 0.930 . S
C282 H270 0.930 . S
C282 C283 1.399 . S
C282 C287 1.399 . S
C283 C282 1.399 . S
C283 C284 1.376 . S
C284 H271 0.930 . S
C284 C283 1.376 . S
C284 C285 1.388 . S
C285 H272 0.930 . S
C285 C284 1.388 . S
C285 C286 1.390 . S
C286 C285 1.390 . S
C286 C287 1.394 . S
C286 C292 1.465 1_556 S
C287 C282 1.399 . S
C287 C286 1.394 . S
C287 C288 1.516 . S
C288 C287 1.516 . S
C288 C289 1.502 . S
C288 C290 1.561 . S
C288 C291 1.526 1_556 S
C289 H273 0.959 1_556 S
C289 H274 0.959 1_556 S
C289 H275 0.961 . S
C289 C288 1.502 . S
C290 H276 0.960 . S
C290 H277 0.961 . S
C290 H278 0.959 . S
C290 C288 1.561 . S
C291 C288 1.526 1_554 S
C291 C292 1.396 . S
C291 C296 1.390 . S
C292 C286 1.465 1_554 S
C292 C291 1.396 . S
C292 C293 1.399 . S
C293 H279 0.929 . S
C293 C292 1.399 . S
C293 C294 1.385 . S
C294 H280 0.931 . S
C294 C293 1.385 . S
C294 C295 1.389 . S
C295 C294 1.389 . S
C295 C296 1.387 . S
C296 H281 0.930 . S
C296 C291 1.390 . S
C296 C295 1.387 . S
H297 C309 0.930 . S
H298 C311 0.930 . S
H299 C312 0.930 . S
H300 C316 0.959 . S
H301 C316 0.959 . S
H302 C316 0.961 . S
H303 C317 0.960 . S
H304 C317 0.961 . S
H305 C317 0.959 . S
H306 C320 0.929 . S
H307 C321 0.931 . S
H308 C323 0.930 . S
C309 H297 0.930 . S
C309 C310 1.399 . S
C309 C314 1.399 . S
C310 C309 1.399 . S
C310 C311 1.376 . S
C311 H298 0.930 . S
C311 C310 1.376 . S
C311 C312 1.388 . S
C312 H299 0.930 . S
C312 C311 1.388 . S
C312 C313 1.390 . S
C313 C312 1.390 . S
C313 C314 1.394 . S
C313 C319 1.465 . S
C314 C309 1.399 . S
C314 C313 1.394 . S
C314 C315 1.516 . S
C315 C314 1.516 . S
C315 C316 1.502 . S
C315 C317 1.561 . S
C315 C318 1.526 . S
C316 H300 0.959 . S
C316 H301 0.959 . S
C316 H302 0.961 . S
C316 C315 1.502 . S
C317 H303 0.960 . S
C317 H304 0.961 . S
C317 H305 0.959 . S
C317 C315 1.561 . S
C318 C315 1.526 . S
C318 C319 1.396 . S
C318 C323 1.390 . S
C319 C313 1.465 . S
C319 C318 1.396 . S
C319 C320 1.399 . S
C320 H306 0.929 . S
C320 C319 1.399 . S
C320 C321 1.385 . S
C321 H307 0.931 . S
C321 C320 1.385 . S
C321 C322 1.389 . S
C322 C321 1.389 . S
C322 C323 1.387 . S
C323 H308 0.930 . S
C323 C318 1.390 . S
C323 C322 1.387 . S
H324 C336 0.930 . S
H325 C338 0.930 . S
H326 C339 0.930 . S
H327 C343 0.959 . S
H328 C343 0.959 . S
H329 C343 0.961 . S
H330 C344 0.960 . S
H331 C344 0.961 . S
H332 C344 0.959 . S
H333 C347 0.929 . S
H334 C348 0.931 . S
H335 C350 0.930 . S
C336 H324 0.930 . S
C336 C337 1.399 . S
C336 C341 1.399 . S
C337 C336 1.399 . S
C337 C338 1.376 . S
C338 H325 0.930 . S
C338 C337 1.376 . S
C338 C339 1.388 . S
C339 H326 0.930 . S
C339 C338 1.388 . S
C339 C340 1.390 . S
C340 C339 1.390 . S
C340 C341 1.394 . S
C340 C346 1.465 . S
C341 C336 1.399 . S
C341 C340 1.394 . S
C341 C342 1.516 . S
C342 C341 1.516 . S
C342 C343 1.502 . S
C342 C344 1.561 . S
C342 C345 1.526 . S
C343 H327 0.959 . S
C343 H328 0.959 . S
C343 H329 0.961 . S
C343 C342 1.502 . S
C344 H330 0.960 . S
C344 H331 0.961 . S
C344 H332 0.959 . S
C344 C342 1.561 . S
C345 C342 1.526 . S
C345 C346 1.396 . S
C345 C350 1.390 . S
C346 C340 1.465 . S
C346 C345 1.396 . S
C346 C347 1.399 . S
C347 H333 0.929 . S
C347 C346 1.399 . S
C347 C348 1.385 . S
C348 H334 0.931 . S
C348 C347 1.385 . S
C348 C349 1.389 . S
C349 C348 1.389 . S
C349 C350 1.387 . S
C350 H335 0.930 . S
C350 C345 1.390 . S
C350 C349 1.387 . S
H351 C363 0.930 . S
H352 C365 0.930 . S
H353 C366 0.930 . S
H354 C370 0.959 . S
H355 C370 0.959 . S
H356 C370 0.961 . S
H357 C371 0.960 1_545 S
H358 C371 0.961 1_545 S
H359 C371 0.959 . S
H360 C374 0.929 . S
H361 C375 0.931 . S
H362 C377 0.930 . S
C363 H351 0.930 . S
C363 C364 1.399 . S
C363 C368 1.399 . S
C364 C363 1.399 . S
C364 C365 1.376 . S
C365 H352 0.930 . S
C365 C364 1.376 . S
C365 C366 1.388 . S
C366 H353 0.930 . S
C366 C365 1.388 . S
C366 C367 1.390 . S
C367 C366 1.390 . S
C367 C368 1.394 . S
C367 C373 1.465 . S
C368 C363 1.399 . S
C368 C367 1.394 . S
C368 C369 1.516 . S
C369 C368 1.516 . S
C369 C370 1.502 . S
C369 C371 1.561 . S
C369 C372 1.526 . S
C370 H354 0.959 . S
C370 H355 0.959 . S
C370 H356 0.961 . S
C370 C369 1.502 . S
C371 H357 0.960 1_565 S
C371 H358 0.961 1_565 S
C371 H359 0.959 . S
C371 C369 1.561 . S
C372 C369 1.526 . S
C372 C373 1.396 . S
C372 C377 1.390 . S
C373 C367 1.465 . S
C373 C372 1.396 . S
C373 C374 1.399 . S
C374 H360 0.929 . S
C374 C373 1.399 . S
C374 C375 1.385 . S
C375 H361 0.931 . S
C375 C374 1.385 . S
C375 C376 1.389 . S
C376 C375 1.389 . S
C376 C377 1.387 . S
C377 H362 0.930 . S
C377 C372 1.390 . S
C377 C376 1.387 . S
H378 C390 0.930 . S
H379 C392 0.930 1_545 S
H380 C393 0.930 . S
H381 C397 0.959 . S
H382 C397 0.959 . S
H383 C397 0.961 . S
H384 C398 0.960 . S
H385 C398 0.961 . S
H386 C398 0.959 . S
H387 C401 0.929 . S
H388 C402 0.931 . S
H389 C404 0.930 . S
C390 H378 0.930 . S
C390 C391 1.399 . S
C390 C395 1.399 . S
C391 C390 1.399 . S
C391 C392 1.376 . S
C392 H379 0.930 1_565 S
C392 C391 1.376 . S
C392 C393 1.388 1_565 S
C393 H380 0.930 . S
C393 C392 1.388 1_545 S
C393 C394 1.390 . S
C394 C393 1.390 . S
C394 C395 1.394 1_545 S
C394 C400 1.465 1_556 S
C395 C390 1.399 . S
C395 C394 1.394 1_565 S
C395 C396 1.516 1_556 S
C396 C395 1.516 1_554 S
C396 C397 1.502 . S
C396 C398 1.561 . S
C396 C399 1.526 1_565 S
C397 H381 0.959 . S
C397 H382 0.959 . S
C397 H383 0.961 . S
C397 C396 1.502 . S
C398 H384 0.960 . S
C398 H385 0.961 . S
C398 H386 0.959 . S
C398 C396 1.561 . S
C399 C396 1.526 1_545 S
C399 C400 1.396 . S
C399 C404 1.390 . S
C400 C394 1.465 1_554 S
C400 C399 1.396 . S
C400 C401 1.399 . S
C401 H387 0.929 . S
C401 C400 1.399 . S
C401 C402 1.385 . S
C402 H388 0.931 . S
C402 C401 1.385 . S
C402 C403 1.389 . S
C403 C402 1.389 . S
C403 C404 1.387 . S
C404 H389 0.930 . S
C404 C399 1.390 . S
C404 C403 1.387 . S
H405 C417 0.930 . S
H406 C419 0.930 . S
H407 C420 0.930 . S
H408 C424 0.959 . S
H409 C424 0.959 . S
H410 C424 0.961 . S
H411 C425 0.960 . S
H412 C425 0.961 . S
H413 C425 0.959 . S
H414 C428 0.929 . S
H415 C429 0.931 . S
H416 C431 0.930 . S
C417 H405 0.930 . S
C417 C418 1.399 . S
C417 C422 1.399 . S
C418 C417 1.399 . S
C418 C419 1.376 1_545 S
C419 H406 0.930 . S
C419 C418 1.376 1_565 S
C419 C420 1.388 . S
C420 H407 0.930 . S
C420 C419 1.388 . S
C420 C421 1.390 . S
C421 C420 1.390 . S
C421 C422 1.394 1_565 S
C421 C427 1.465 . S
C422 C417 1.399 . S
C422 C421 1.394 1_545 S
C422 C423 1.516 . S
C423 C422 1.516 . S
C423 C424 1.502 . S
C423 C425 1.561 1_455 S
C423 C426 1.526 1_545 S
C424 H408 0.959 . S
C424 H409 0.959 . S
C424 H410 0.961 . S
C424 C423 1.502 . S
C425 H411 0.960 . S
C425 H412 0.961 . S
C425 H413 0.959 . S
C425 C423 1.561 1_655 S
C426 C423 1.526 1_565 S
C426 C427 1.396 . S
C426 C431 1.390 . S
C427 C421 1.465 . S
C427 C426 1.396 . S
C427 C428 1.399 . S
C428 H414 0.929 . S
C428 C427 1.399 . S
C428 C429 1.385 . S
C429 H415 0.931 . S
C429 C428 1.385 . S
C429 C430 1.389 . S
C430 C429 1.389 . S
C430 C431 1.387 . S
C431 H416 0.930 . S
C431 C426 1.390 . S
C431 C430 1.387 . S
H432 C444 0.930 . S
H433 C446 0.930 . S
H434 C447 0.930 . S
H435 C451 0.959 . S
H436 C451 0.959 . S
H437 C451 0.961 . S
H438 C452 0.960 . S
H439 C452 0.961 . S
H440 C452 0.959 . S
H441 C455 0.929 . S
H442 C456 0.931 . S
H443 C458 0.930 . S
C444 H432 0.930 . S
C444 C445 1.399 1_455 S
C444 C449 1.399 . S
C445 C444 1.399 1_655 S
C445 C446 1.376 . S
C446 H433 0.930 . S
C446 C445 1.376 . S
C446 C447 1.388 . S
C447 H434 0.930 . S
C447 C446 1.388 . S
C447 C448 1.390 . S
C448 C447 1.390 . S
C448 C449 1.394 1_655 S
C448 C454 1.465 . S
C449 C444 1.399 . S
C449 C448 1.394 1_455 S
C449 C450 1.516 . S
C450 C449 1.516 . S
C450 C451 1.502 . S
C450 C452 1.561 1_455 S
C450 C453 1.526 . S
C451 H435 0.959 . S
C451 H436 0.959 . S
C451 H437 0.961 . S
C451 C450 1.502 . S
C452 H438 0.960 . S
C452 H439 0.961 . S
C452 H440 0.959 . S
C452 C450 1.561 1_655 S
C453 C450 1.526 . S
C453 C454 1.396 1_455 S
C453 C458 1.390 . S
C454 C448 1.465 . S
C454 C453 1.396 1_655 S
C454 C455 1.399 . S
C455 H441 0.929 . S
C455 C454 1.399 . S
C455 C456 1.385 . S
C456 H442 0.931 . S
C456 C455 1.385 . S
C456 C457 1.389 . S
C457 C456 1.389 . S
C457 C458 1.387 1_655 S
C458 H443 0.930 . S
C458 C453 1.390 . S
C458 C457 1.387 1_455 S
H459 C471 0.930 . S
H460 C473 0.930 . S
H461 C474 0.930 . S
H462 C478 0.959 . S
H463 C478 0.959 . S
H464 C478 0.961 . S
H465 C479 0.960 . S
H466 C479 0.961 . S
H467 C479 0.959 . S
H468 C482 0.929 . S
H469 C483 0.931 . S
H470 C485 0.930 . S
C471 H459 0.930 . S
C471 C472 1.399 . S
C471 C476 1.399 . S
C472 C471 1.399 . S
C472 C473 1.376 . S
C473 H460 0.930 . S
C473 C472 1.376 . S
C473 C474 1.388 . S
C474 H461 0.930 . S
C474 C473 1.388 . S
C474 C475 1.390 . S
C475 C474 1.390 . S
C475 C476 1.394 . S
C475 C481 1.465 . S
C476 C471 1.399 . S
C476 C475 1.394 . S
C476 C477 1.516 . S
C477 C476 1.516 . S
C477 C478 1.502 . S
C477 C479 1.561 . S
C477 C480 1.526 . S
C478 H462 0.959 . S
C478 H463 0.959 . S
C478 H464 0.961 . S
C478 C477 1.502 . S
C479 H465 0.960 . S
C479 H466 0.961 . S
C479 H467 0.959 . S
C479 C477 1.561 . S
C480 C477 1.526 . S
C480 C481 1.396 . S
C480 C485 1.390 . S
C481 C475 1.465 . S
C481 C480 1.396 . S
C481 C482 1.399 . S
C482 H468 0.929 . S
C482 C481 1.399 . S
C482 C483 1.385 . S
C483 H469 0.931 . S
C483 C482 1.385 . S
C483 C484 1.389 . S
C484 C483 1.389 . S
C484 C485 1.387 . S
C485 H470 0.930 . S
C485 C480 1.390 . S
C485 C484 1.387 . S
H486 C498 0.930 . S
H487 C500 0.930 . S
H488 C501 0.930 . S
H489 C505 0.959 . S
H490 C505 0.959 . S
H491 C505 0.961 . S
H492 C506 0.960 . S
H493 C506 0.961 . S
H494 C506 0.959 . S
H495 C509 0.929 . S
H496 C510 0.931 . S
H497 C512 0.930 . S
C498 H486 0.930 . S
C498 C499 1.399 . S
C498 C503 1.399 . S
C499 C498 1.399 . S
C499 C500 1.376 . S
C500 H487 0.930 . S
C500 C499 1.376 . S
C500 C501 1.388 . S
C501 H488 0.930 . S
C501 C500 1.388 . S
C501 C502 1.390 . S
C502 C501 1.390 . S
C502 C503 1.394 . S
C502 C508 1.465 . S
C503 C498 1.399 . S
C503 C502 1.394 . S
C503 C504 1.516 . S
C504 C503 1.516 . S
C504 C505 1.502 . S
C504 C506 1.561 . S
C504 C507 1.526 . S
C505 H489 0.959 . S
C505 H490 0.959 . S
C505 H491 0.961 . S
C505 C504 1.502 . S
C506 H492 0.960 . S
C506 H493 0.961 . S
C506 H494 0.959 . S
C506 C504 1.561 . S
C507 C504 1.526 . S
C507 C508 1.396 . S
C507 C512 1.390 . S
C508 C502 1.465 . S
C508 C507 1.396 . S
C508 C509 1.399 . S
C509 H495 0.929 . S
C509 C508 1.399 . S
C509 C510 1.385 . S
C510 H496 0.931 . S
C510 C509 1.385 . S
C510 C511 1.389 . S
C511 C510 1.389 . S
C511 C512 1.387 . S
C512 H497 0.930 . S
C512 C507 1.390 . S
C512 C511 1.387 . S
H513 C525 0.930 . S
H514 C527 0.930 . S
H515 C528 0.930 . S
H516 C532 0.959 . S
H517 C532 0.959 . S
H518 C532 0.961 1_455 S
H519 C533 0.965 . S
H520 C533 0.957 1_655 S
H521 C533 0.959 1_655 S
H522 C536 0.929 . S
H523 C537 0.931 . S
H524 C539 0.930 . S
C525 H513 0.930 . S
C525 C526 1.399 . S
C525 C530 1.399 . S
C526 C525 1.399 . S
C526 C527 1.376 . S
C527 H514 0.930 . S
C527 C526 1.376 . S
C527 C528 1.388 . S
C528 H515 0.930 . S
C528 C527 1.388 . S
C528 C529 1.390 . S
C529 C528 1.390 . S
C529 C530 1.394 . S
C529 C535 1.465 1_455 S
C530 C525 1.399 . S
C530 C529 1.394 . S
C530 C531 1.508 1_455 S
C531 C530 1.508 1_655 S
C531 C532 1.502 . S
C531 C533 1.561 1_655 S
C531 C534 1.534 . S
C532 H516 0.959 . S
C532 H517 0.959 . S
C532 H518 0.961 1_655 S
C532 C531 1.502 . S
C533 H519 0.965 . S
C533 H520 0.957 1_455 S
C533 H521 0.959 1_455 S
C533 C531 1.561 1_455 S
C534 C531 1.534 . S
C534 C535 1.396 . S
C534 C539 1.390 . S
C535 C529 1.465 1_655 S
C535 C534 1.396 . S
C535 C536 1.399 . S
C536 H522 0.929 . S
C536 C535 1.399 . S
C536 C537 1.385 . S
C537 H523 0.931 . S
C537 C536 1.385 . S
C537 C538 1.389 . S
C538 C537 1.389 . S
C538 C539 1.387 . S
C539 H524 0.930 . S
C539 C534 1.390 . S
C539 C538 1.387 . S
H540 C552 0.930 . S
H541 C554 0.930 . S
H542 C555 0.930 . S
H543 C559 0.959 . S
H544 C559 0.959 . S
H545 C559 0.961 . S
H546 C560 0.960 . S
H547 C560 0.961 . S
H548 C560 0.959 . S
H549 C563 0.929 . S
H550 C564 0.931 . S
H551 C566 0.930 . S
C552 H540 0.930 . S
C552 C553 1.399 1_455 S
C552 C557 1.399 . S
C553 C552 1.399 1_655 S
C553 C554 1.376 . S
C554 H541 0.930 . S
C554 C553 1.376 . S
C554 C555 1.388 . S
C555 H542 0.930 . S
C555 C554 1.388 . S
C555 C556 1.390 . S
C556 C555 1.390 . S
C556 C557 1.394 1_655 S
C556 C562 1.465 . S
C557 C552 1.399 . S
C557 C556 1.394 1_455 S
C557 C558 1.516 . S
C558 C557 1.516 . S
C558 C559 1.502 . S
C558 C560 1.561 1_455 S
C558 C561 1.526 . S
C559 H543 0.959 . S
C559 H544 0.959 . S
C559 H545 0.961 . S
C559 C558 1.502 . S
C560 H546 0.960 . S
C560 H547 0.961 . S
C560 H548 0.959 . S
C560 C558 1.561 1_655 S
C561 C558 1.526 . S
C561 C562 1.396 1_455 S
C561 C566 1.390 . S
C562 C556 1.465 . S
C562 C561 1.396 1_655 S
C562 C563 1.399 . S
C563 H549 0.929 . S
C563 C562 1.399 . S
C563 C564 1.385 . S
C564 H550 0.931 . S
C564 C563 1.385 . S
C564 C565 1.389 1_655 S
C565 C564 1.389 1_455 S
C565 C566 1.387 . S
C566 H551 0.930 . S
C566 C561 1.390 . S
C566 C565 1.387 . S
H567 C579 0.930 . S
H568 C581 0.930 . S
H569 C582 0.930 . S
H570 C586 0.959 . S
H571 C586 0.959 . S
H572 C586 0.961 1_655 S
H573 C587 0.960 1_655 S
H574 C587 0.961 . S
H575 C587 0.959 . S
H576 C590 0.929 . S
H577 C591 0.931 . S
H578 C593 0.930 . S
C579 H567 0.930 . S
C579 C580 1.399 . S
C579 C584 1.399 . S
C580 C579 1.399 . S
C580 C581 1.376 . S
C581 H568 0.930 . S
C581 C580 1.376 . S
C581 C582 1.388 . S
C582 H569 0.930 . S
C582 C581 1.388 . S
C582 C583 1.390 . S
C583 C582 1.390 . S
C583 C584 1.394 . S
C583 C589 1.465 1_655 S
C584 C579 1.399 . S
C584 C583 1.394 . S
C584 C585 1.516 1_655 S
C585 C584 1.516 1_455 S
C585 C586 1.502 . S
C585 C587 1.561 . S
C585 C588 1.526 . S
C586 H570 0.959 . S
C586 H571 0.959 . S
C586 H572 0.961 1_455 S
C586 C585 1.502 . S
C587 H573 0.960 1_455 S
C587 H574 0.961 . S
C587 H575 0.959 . S
C587 C585 1.561 . S
C588 C585 1.526 . S
C588 C589 1.396 . S
C588 C593 1.390 . S
C589 C583 1.465 1_455 S
C589 C588 1.396 . S
C589 C590 1.399 . S
C590 H576 0.929 . S
C590 C589 1.399 . S
C590 C591 1.385 . S
C591 H577 0.931 . S
C591 C590 1.385 . S
C591 C592 1.389 . S
C592 C591 1.389 . S
C592 C593 1.387 . S
C593 H578 0.930 . S
C593 C588 1.390 . S
C593 C592 1.387 . S
H594 C606 0.930 . S
H595 C608 0.930 . S
H596 C609 0.930 . S
H597 C613 0.959 . S
H598 C613 0.959 . S
H599 C613 0.961 . S
H600 C614 0.960 . S
H601 C614 0.961 . S
H602 C614 0.959 . S
H603 C617 0.929 . S
H604 C618 0.931 . S
H605 C620 0.930 . S
C606 H594 0.930 . S
C606 C607 1.399 . S
C606 C611 1.399 . S
C607 C606 1.399 . S
C607 C608 1.376 . S
C608 H595 0.930 . S
C608 C607 1.376 . S
C608 C609 1.388 . S
C609 H596 0.930 . S
C609 C608 1.388 . S
C609 C610 1.390 . S
C610 C609 1.390 . S
C610 C611 1.394 . S
C610 C616 1.465 . S
C611 C606 1.399 . S
C611 C610 1.394 . S
C611 C612 1.516 . S
C612 C611 1.516 . S
C612 C613 1.502 . S
C612 C614 1.561 . S
C612 C615 1.526 . S
C613 H597 0.959 . S
C613 H598 0.959 . S
C613 H599 0.961 . S
C613 C612 1.502 . S
C614 H600 0.960 . S
C614 H601 0.961 . S
C614 H602 0.959 . S
C614 C612 1.561 . S
C615 C612 1.526 . S
C615 C616 1.396 . S
C615 C620 1.390 . S
C616 C610 1.465 . S
C616 C615 1.396 . S
C616 C617 1.399 . S
C617 H603 0.929 . S
C617 C616 1.399 . S
C617 C618 1.385 . S
C618 H604 0.931 . S
C618 C617 1.385 . S
C618 C619 1.389 . S
C619 C618 1.389 . S
C619 C620 1.387 . S
C620 H605 0.930 . S
C620 C615 1.390 . S
C620 C619 1.387 . S
H621 C633 0.930 . S
H622 C635 0.930 . S
H623 C636 0.930 . S
H624 C640 0.959 . S
H625 C640 0.959 . S
H626 C640 0.961 . S
H627 C641 0.960 . S
H628 C641 0.961 . S
H629 C641 0.959 . S
H630 C644 0.929 . S
H631 C645 0.931 . S
H632 C647 0.930 . S
C633 H621 0.930 . S
C633 C634 1.399 . S
C633 C638 1.399 . S
C634 C633 1.399 . S
C634 C635 1.376 . S
C635 H622 0.930 . S
C635 C634 1.376 . S
C635 C636 1.388 . S
C636 H623 0.930 . S
C636 C635 1.388 . S
C636 C637 1.390 . S
C637 C636 1.390 . S
C637 C638 1.394 . S
C637 C643 1.465 . S
C638 C633 1.399 . S
C638 C637 1.394 . S
C638 C639 1.516 . S
C639 C638 1.516 . S
C639 C640 1.502 . S
C639 C641 1.561 . S
C639 C642 1.526 . S
C640 H624 0.959 . S
C640 H625 0.959 . S
C640 H626 0.961 . S
C640 C639 1.502 . S
C641 H627 0.960 . S
C641 H628 0.961 . S
C641 H629 0.959 . S
C641 C639 1.561 . S
C642 C639 1.526 . S
C642 C643 1.396 . S
C642 C647 1.390 . S
C643 C637 1.465 . S
C643 C642 1.396 . S
C643 C644 1.399 . S
C644 H630 0.929 . S
C644 C643 1.399 . S
C644 C645 1.385 . S
C645 H631 0.931 . S
C645 C644 1.385 . S
C645 C646 1.389 . S
C646 C645 1.389 . S
C646 C647 1.387 . S
C647 H632 0.930 . S
C647 C642 1.390 . S
C647 C646 1.387 . S
C229 C13 2.127 . S
C241 C76 2.137 . S
C256 C113 2.142 . S
C268 C67 2.107 . S
C283 C140 2.128 . S
C295 C167 2.120 . S
C310 C22 2.115 . S
C322 C194 2.134 . S
C337 C175 2.099 . S
C349 C5 2.149 . S
C364 C86 2.152 . S
C376 C130 2.109 . S
C391 C121 2.115 . S
C403 C184 2.148 . S
C418 C32 2.098 . S
C430 C59 2.160 . S
C445 C28 0.282 1_655 S
C457 C35 0.270 . S
C472 C82 0.283 . S
C484 C89 0.284 . S
C499 C136 0.282 . S
C511 C143 0.270 . S
C526 C197 0.282 . S
C538 C190 0.270 . S
C553 C81 1.927 1_645 S
C565 C64 1.898 1_455 S
C580 C135 1.905 . S
C592 C118 1.921 . S
C607 C189 1.928 . S
C619 C172 1.896 1_565 S
C634 C10 1.915 . S
C646 C27 1.911 . S
