# Generated by pormake.
# Topology lcy-e, (6)-cn, num edge types: 1
# Building blocks:
#     Node 0, Type 0, BuildingBlock: INOVEN_clean_sbu_0, # of connection points: 6
#     Node 1, Type 0, BuildingBlock: INOVEN_clean_sbu_0, # of connection points: 6
#     Node 2, Type 0, BuildingBlock: INOVEN_clean_sbu_0, # of connection points: 6
#     Node 3, Type 0, BuildingBlock: INOVEN_clean_sbu_0, # of connection points: 6
#     Node 4, Type 0, BuildingBlock: INOVEN_clean_sbu_0, # of connection points: 6
#     Node 5, Type 0, BuildingBlock: INOVEN_clean_sbu_0, # of connection points: 6
#     Node 6, Type 0, BuildingBlock: INOVEN_clean_sbu_0, # of connection points: 6
#     Node 7, Type 0, BuildingBlock: INOVEN_clean_sbu_0, # of connection points: 6
#     Node 8, Type 0, BuildingBlock: INOVEN_clean_sbu_0, # of connection points: 6
#     Node 9, Type 0, BuildingBlock: INOVEN_clean_sbu_0, # of connection points: 6
#     Node 10, Type 0, BuildingBlock: INOVEN_clean_sbu_0, # of connection points: 6
#     Node 11, Type 0, BuildingBlock: INOVEN_clean_sbu_0, # of connection points: 6
#     Edge 12, Type (0, 0), BuildingBlock: XIVTED_clean_linker_0, # of connection points: 2
#     Edge 13, Type (0, 0), BuildingBlock: XIVTED_clean_linker_0, # of connection points: 2
#     Edge 14, Type (0, 0), BuildingBlock: XIVTED_clean_linker_0, # of connection points: 2
#     Edge 15, Type (0, 0), BuildingBlock: XIVTED_clean_linker_0, # of connection points: 2
#     Edge 16, Type (0, 0), BuildingBlock: XIVTED_clean_linker_0, # of connection points: 2
#     Edge 17, Type (0, 0), BuildingBlock: XIVTED_clean_linker_0, # of connection points: 2
#     Edge 18, Type (0, 0), BuildingBlock: XIVTED_clean_linker_0, # of connection points: 2
#     Edge 19, Type (0, 0), BuildingBlock: XIVTED_clean_linker_0, # of connection points: 2
#     Edge 20, Type (0, 0), BuildingBlock: XIVTED_clean_linker_0, # of connection points: 2
#     Edge 21, Type (0, 0), BuildingBlock: XIVTED_clean_linker_0, # of connection points: 2
#     Edge 22, Type (0, 0), BuildingBlock: XIVTED_clean_linker_0, # of connection points: 2
#     Edge 23, Type (0, 0), BuildingBlock: XIVTED_clean_linker_0, # of connection points: 2
#     Edge 24, Type (0, 0), BuildingBlock: XIVTED_clean_linker_0, # of connection points: 2
#     Edge 25, Type (0, 0), BuildingBlock: XIVTED_clean_linker_0, # of connection points: 2
#     Edge 26, Type (0, 0), BuildingBlock: XIVTED_clean_linker_0, # of connection points: 2
#     Edge 27, Type (0, 0), BuildingBlock: XIVTED_clean_linker_0, # of connection points: 2
#     Edge 28, Type (0, 0), BuildingBlock: XIVTED_clean_linker_0, # of connection points: 2
#     Edge 29, Type (0, 0), BuildingBlock: XIVTED_clean_linker_0, # of connection points: 2
#     Edge 30, Type (0, 0), BuildingBlock: XIVTED_clean_linker_0, # of connection points: 2
#     Edge 31, Type (0, 0), BuildingBlock: XIVTED_clean_linker_0, # of connection points: 2
#     Edge 32, Type (0, 0), BuildingBlock: XIVTED_clean_linker_0, # of connection points: 2
#     Edge 33, Type (0, 0), BuildingBlock: XIVTED_clean_linker_0, # of connection points: 2
#     Edge 34, Type (0, 0), BuildingBlock: XIVTED_clean_linker_0, # of connection points: 2
#     Edge 35, Type (0, 0), BuildingBlock: XIVTED_clean_linker_0, # of connection points: 2
#     Edge 36, Type (0, 0), BuildingBlock: XIVTED_clean_linker_0, # of connection points: 2
#     Edge 37, Type (0, 0), BuildingBlock: XIVTED_clean_linker_0, # of connection points: 2
#     Edge 38, Type (0, 0), BuildingBlock: XIVTED_clean_linker_0, # of connection points: 2
#     Edge 39, Type (0, 0), BuildingBlock: XIVTED_clean_linker_0, # of connection points: 2
#     Edge 40, Type (0, 0), BuildingBlock: XIVTED_clean_linker_0, # of connection points: 2
#     Edge 41, Type (0, 0), BuildingBlock: XIVTED_clean_linker_0, # of connection points: 2
#     Edge 42, Type (0, 0), BuildingBlock: XIVTED_clean_linker_0, # of connection points: 2
#     Edge 43, Type (0, 0), BuildingBlock: XIVTED_clean_linker_0, # of connection points: 2
#     Edge 44, Type (0, 0), BuildingBlock: XIVTED_clean_linker_0, # of connection points: 2
#     Edge 45, Type (0, 0), BuildingBlock: XIVTED_clean_linker_0, # of connection points: 2
#     Edge 46, Type (0, 0), BuildingBlock: XIVTED_clean_linker_0, # of connection points: 2
#     Edge 47, Type (0, 0), BuildingBlock: XIVTED_clean_linker_0, # of connection points: 2
# Relax obj value: 0.185
# Max RMSD: 0.306
# Mean RMSD: 0.290
data_MOF--net-lcy-e--node1-INOVEN_clean_sbu_0--edge1-XIVTED_clean_linker_0
_symmetry_space_group_name_H-M    P1
_symmetry_Int_Tables_number       1
_symmetry_cell_setting            triclinic
loop_
_symmetry_equiv_pos_as_xyz
'x, y, z'
_cell_length_a     45.463444
_cell_length_b     43.425704
_cell_length_c     44.570232
_cell_angle_alpha  89.486728
_cell_angle_beta   90.466492
_cell_angle_gamma 88.23256
loop_
_atom_site_label
_atom_site_type_symbol
_atom_site_fract_x
_atom_site_fract_y
_atom_site_fract_z
_atom_type_partial_charge
Gd0 Gd 0.13877 0.22587 0.52492 0.0
Gd1 Gd 0.1306 0.26798 0.46595 0.0
C2 C 0.09013 0.20743 0.47539 0.0
C3 C 0.12962 0.20102 0.57675 0.0
C4 C 0.12568 0.16976 0.58846 0.0
C5 C 0.11735 0.14605 0.56924 0.0
C6 C 0.12746 0.16423 0.61941 0.0
C7 C 0.11067 0.11209 0.61217 0.0
C8 C 0.12012 0.13558 0.6312 0.0
C9 C 0.10979 0.11747 0.58102 0.0
C10 C 0.17888 0.20828 0.48293 0.0
C11 C 0.17575 0.28879 0.51487 0.0
C12 C 0.12852 0.28659 0.41067 0.0
C13 C 0.14373 0.30527 0.38801 0.0
C14 C 0.14304 0.3376 0.38925 0.0
C15 C 0.15629 0.29073 0.36291 0.0
C16 C 0.16448 0.34046 0.33941 0.0
C17 C 0.1667 0.30814 0.3389 0.0
C18 C 0.15333 0.35499 0.36521 0.0
C19 C 0.10297 0.28809 0.51603 0.0
O20 O 0.10561 0.19843 0.4994 0.0
O21 O 0.09521 0.23324 0.46048 0.0
O22 O 0.15595 0.2078 0.56747 0.0
O23 O 0.10854 0.21133 0.55881 0.0
O24 O 0.17607 0.19468 0.50876 0.0
O25 O 0.15905 0.22916 0.48073 0.0
O26 O 0.17132 0.28688 0.48556 0.0
O27 O 0.16267 0.27036 0.53447 0.0
O28 O 0.11489 0.30102 0.43248 0.0
O29 O 0.14143 0.26057 0.41926 0.0
O30 O 0.11149 0.30671 0.49496 0.0
O31 O 0.1071 0.26062 0.50782 0.0
H32 H 0.11585 0.14996 0.54523 0.0
H33 H 0.13362 0.18238 0.63454 0.0
H34 H 0.12077 0.13221 0.65531 0.0
H35 H 0.10295 0.09969 0.56581 0.0
H36 H 0.13356 0.34956 0.40826 0.0
H37 H 0.1569 0.26584 0.36128 0.0
H38 H 0.17499 0.29629 0.31927 0.0
H39 H 0.15174 0.37989 0.36643 0.0
Gd40 Gd 0.99038 0.8699 0.72605 0.0
Gd41 Gd 0.04377 0.87897 0.77373 0.0
C42 C 0.0379 0.92378 0.71622 0.0
C43 C 0.94059 0.87768 0.69851 0.0
C44 C 0.92989 0.88737 0.66847 0.0
C45 C 0.9478 0.88481 0.64299 0.0
C46 C 0.90176 0.90119 0.66563 0.0
C47 C 0.9096 0.91067 0.61233 0.0
C48 C 0.89171 0.91271 0.63791 0.0
C49 C 0.93764 0.89619 0.61507 0.0
C50 C 0.04058 0.84005 0.70849 0.0
C51 C 1.00064 0.82308 0.78249 0.0
C52 C 0.09102 0.87583 0.80664 0.0
C53 C 0.11653 0.85629 0.81718 0.0
C54 C 0.11764 0.84537 0.84694 0.0
C55 C 0.14166 0.85204 0.79921 0.0
C56 C 0.1689 0.82811 0.84112 0.0
C57 C 0.16751 0.83814 0.81104 0.0
C58 C 0.14343 0.83135 0.85872 0.0
C59 C 0.99186 0.91068 0.7826 0.0
O60 O 1.01099 0.91411 0.71068 0.0
O61 O 0.05552 0.91113 0.7369 0.0
O62 O 0.95448 0.85072 0.70083 0.0
O63 O 0.9528 0.89931 0.71431 0.0
O64 O 0.01612 0.83995 0.6932 0.0
O65 O 0.0365 0.8563 0.73124 0.0
O66 O 0.02855 0.83104 0.78334 0.0
O67 O 0.98102 0.8369 0.76412 0.0
O68 O 0.06477 0.87049 0.81724 0.0
O69 O 0.09053 0.88457 0.77841 0.0
O70 O 0.0171 0.92099 0.79123 0.0
O71 O 0.9959 0.88428 0.77247 0.0
H72 H 0.96975 0.87449 0.6448 0.0
H73 H 0.88767 0.90348 0.68503 0.0
H74 H 0.86984 0.92327 0.63651 0.0
H75 H 0.95199 0.89441 0.59585 0.0
H76 H 0.09891 0.84877 0.86155 0.0
H77 H 0.14176 0.86039 0.77624 0.0
H78 H 0.18657 0.83571 0.79675 0.0
H79 H 0.14376 0.82429 0.88209 0.0
Gd80 Gd 0.37741 0.78237 0.01986 0.0
Gd81 Gd 0.40033 0.74062 0.97041 0.0
C82 C 0.43276 0.80325 0.97858 0.0
C83 C 0.36999 0.81565 0.06725 0.0
C84 C 0.38402 0.8412 0.08266 0.0
C85 C 0.37732 0.84669 0.11277 0.0
C86 C 0.40345 0.86049 0.06772 0.0
C87 C 0.4082 0.89157 0.11271 0.0
C88 C 0.41547 0.88549 0.08264 0.0
C89 C 0.3893 0.87158 0.12768 0.0
C90 C 0.34322 0.78415 0.97052 0.0
C91 C 0.34574 0.71875 1.00889 0.0
C92 C 0.40761 0.7067 0.92333 0.0
C93 C 0.38982 0.69449 0.89829 0.0
C94 C 0.37982 0.66423 0.89945 0.0
C95 C 0.38421 0.71228 0.87217 0.0
C96 C 0.35947 0.66959 0.84878 0.0
C97 C 0.36919 0.69998 0.84774 0.0
C98 C 0.36476 0.65196 0.87505 0.0
C99 C 0.42753 0.73386 0.02531 0.0
O100 O 0.419 0.80616 1.00455 0.0
O101 O 0.42646 0.78135 0.95967 0.0
O102 O 0.35745 0.82219 0.04133 0.0
O103 O 0.38462 0.78923 0.06745 0.0
O104 O 0.33352 0.78672 0.99766 0.0
O105 O 0.3712 0.78283 0.97009 0.0
O106 O 0.35697 0.71994 0.98168 0.0
O107 O 0.35333 0.73869 0.02976 0.0
O108 O 0.40366 0.69526 0.95022 0.0
O109 O 0.41127 0.73643 0.92352 0.0
O110 O 0.44156 0.73066 1.0002 0.0
O111 O 0.40093 0.73832 0.01941 0.0
H112 H 0.36255 0.83187 0.12471 0.0
H113 H 0.40895 0.85652 0.04444 0.0
H114 H 0.42979 0.90051 0.0704 0.0
H115 H 0.38369 0.8752 0.15098 0.0
H116 H 0.38411 0.64977 0.91903 0.0
H117 H 0.39177 0.73563 0.87036 0.0
H118 H 0.36526 0.71428 0.82799 0.0
H119 H 0.35802 0.62829 0.87646 0.0
Gd120 Gd 0.52283 0.13225 0.23297 0.0
Gd121 Gd 0.47765 0.11696 0.28141 0.0
C122 C 0.48272 0.07451 0.22382 0.0
C123 C 0.56724 0.13998 0.19823 0.0
C124 C 0.57554 0.13073 0.16747 0.0
C125 C 0.58883 0.15182 0.14829 0.0
C126 C 0.57214 0.10031 0.1577 0.0
C127 C 0.59751 0.11159 0.11105 0.0
C128 C 0.58313 0.09082 0.12993 0.0
C129 C 0.59951 0.14245 0.12033 0.0
C130 C 0.46702 0.15447 0.22199 0.0
C131 C 0.51833 0.17429 0.2928 0.0
C132 C 0.43347 0.11339 0.31747 0.0
C133 C 0.41024 0.13029 0.33426 0.0
C134 C 0.40064 0.11749 0.36127 0.0
C135 C 0.39556 0.15688 0.32274 0.0
C136 C 0.36124 0.1568 0.36481 0.0
C137 C 0.3713 0.17003 0.3379 0.0
C138 C 0.37648 0.13044 0.37629 0.0
C139 C 0.53064 0.08511 0.2852 0.0
O140 O 0.50959 0.08456 0.22028 0.0
O141 O 0.46425 0.08788 0.24267 0.0
O142 O 0.54608 0.16096 0.2011 0.0
O143 O 0.56572 0.11745 0.21781 0.0
O144 O 0.48445 0.14334 0.20164 0.0
O145 O 0.48017 0.15353 0.24691 0.0
O146 O 0.49262 0.16222 0.29837 0.0
O147 O 0.53518 0.16487 0.27024 0.0
O148 O 0.46078 0.11468 0.32698 0.0
O149 O 0.43096 0.113 0.28816 0.0
O150 O 0.50586 0.07347 0.29303 0.0
O151 O 0.52582 0.11266 0.27803 0.0
H152 H 0.59154 0.17543 0.15522 0.0
H153 H 0.56178 0.08349 0.17191 0.0
H154 H 0.58132 0.06686 0.12389 0.0
H155 H 0.60973 0.15938 0.10618 0.0
H156 H 0.41133 0.09675 0.37036 0.0
H157 H 0.40247 0.16711 0.30179 0.0
H158 H 0.36038 0.19045 0.32847 0.0
H159 H 0.3692 0.11903 0.39648 0.0
Gd160 Gd 0.62137 0.24558 0.55137 0.0
Gd161 Gd 0.64174 0.29512 0.50812 0.0
C162 C 0.67209 0.29245 0.57157 0.0
C163 C 0.61697 0.20083 0.58976 0.0
C164 C 0.63237 0.19026 0.61745 0.0
C165 C 0.6163 0.17675 0.64054 0.0
C166 C 0.66284 0.19347 0.62122 0.0
C167 C 0.66106 0.16856 0.67045 0.0
C168 C 0.67706 0.18261 0.64741 0.0
C169 C 0.63046 0.16605 0.6668 0.0
C170 C 0.58529 0.29539 0.54791 0.0
C171 C 0.5908 0.25122 0.48735 0.0
C172 C 0.64846 0.34056 0.4708 0.0
C173 C 0.63307 0.36727 0.45609 0.0
C174 C 0.64334 0.39687 0.46148 0.0
C175 C 0.61012 0.3638 0.43514 0.0
C176 C 0.60948 0.41898 0.42391 0.0
C177 C 0.59839 0.38946 0.41925 0.0
C178 C 0.63165 0.4224 0.4457 0.0
C179 C 0.67346 0.24066 0.50817 0.0
O180 O 0.66171 0.26448 0.57439 0.0
O181 O 0.66363 0.31099 0.54949 0.0
O182 O 0.60176 0.22678 0.59156 0.0
O183 O 0.63162 0.19835 0.56468 0.0
O184 O 0.57644 0.26746 0.55109 0.0
O185 O 0.61308 0.29633 0.54818 0.0
O186 O 0.59895 0.28016 0.4879 0.0
O187 O 0.60031 0.23098 0.50798 0.0
O188 O 0.64196 0.31279 0.46238 0.0
O189 O 0.65328 0.34242 0.49965 0.0
O190 O 0.68525 0.26706 0.50354 0.0
O191 O 0.64636 0.24482 0.51017 0.0
H192 H 0.59277 0.17415 0.63812 0.0
H193 H 0.67568 0.20414 0.60384 0.0
H194 H 0.70059 0.1852 0.64963 0.0
H195 H 0.61752 0.15502 0.68388 0.0
H196 H 0.66104 0.4002 0.47744 0.0
H197 H 0.60176 0.34125 0.43043 0.0
H198 H 0.58145 0.38596 0.40251 0.0
H199 H 0.64035 0.44483 0.45029 0.0
Gd200 Gd 0.97996 0.391 0.73226 0.0
Gd201 Gd 0.0251 0.36945 0.77732 0.0
C202 C 0.96785 0.32991 0.77381 0.0
C203 C 0.94252 0.39532 0.68842 0.0
C204 C 0.91287 0.38366 0.68206 0.0
C205 C 0.88785 0.40305 0.68546 0.0
C206 C 0.90924 0.35338 0.67202 0.0
C207 C 0.8562 0.36235 0.66843 0.0
C208 C 0.88123 0.34285 0.66532 0.0
C209 C 0.85984 0.39248 0.67889 0.0
C210 C 0.97839 0.42429 0.78259 0.0
C211 C 0.03838 0.42814 0.73793 0.0
C212 C 0.06327 0.36264 0.82043 0.0
C213 C 0.07857 0.38012 0.84365 0.0
C214 C 0.1081 0.37245 0.85009 0.0
C215 C 0.06368 0.40227 0.86118 0.0
C216 C 0.10702 0.40644 0.89323 0.0
C217 C 0.07781 0.41532 0.88581 0.0
C218 C 0.12223 0.38554 0.87456 0.0
C219 C 0.02987 0.34278 0.72204 0.0
O220 O 0.95933 0.34768 0.75086 0.0
O221 O 0.99201 0.33501 0.78909 0.0
O222 O 0.9444 0.41617 0.70933 0.0
O223 O 0.96434 0.37493 0.68941 0.0
O224 O 0.97358 0.4355 0.7559 0.0
O225 O 0.98227 0.39516 0.78213 0.0
O226 O 0.03875 0.41751 0.76573 0.0
O227 O 0.01972 0.41716 0.71802 0.0
O228 O 0.07071 0.36732 0.79252 0.0
O229 O 0.03499 0.35941 0.82384 0.0
O230 O 0.03573 0.32823 0.74701 0.0
O231 O 0.02376 0.37028 0.72789 0.0
H232 H 0.88992 0.42652 0.69305 0.0
H233 H 0.92805 0.33785 0.66894 0.0
H234 H 0.87931 0.31969 0.65685 0.0
H235 H 0.84103 0.40801 0.68192 0.0
H236 H 0.11999 0.35553 0.83675 0.0
H237 H 0.04087 0.40867 0.85653 0.0
H238 H 0.06544 0.43128 0.89976 0.0
H239 H 0.14494 0.37874 0.87925 0.0
Gd240 Gd 0.8868 0.76502 0.03884 0.0
Gd241 Gd 0.87272 0.71573 0.99347 0.0
C242 C 0.83206 0.71926 0.05088 0.0
C243 C 0.8842 0.81226 0.07387 0.0
C244 C 0.87269 0.82071 0.10387 0.0
C245 C 0.8922 0.82365 0.12819 0.0
C246 C 0.8426 0.82782 0.10817 0.0
C247 C 0.85209 0.84198 0.16012 0.0
C248 C 0.83243 0.83828 0.13597 0.0
C249 C 0.88202 0.83397 0.15599 0.0
C250 C 0.92072 0.71377 0.04549 0.0
C251 C 0.92689 0.75751 0.98121 0.0
C252 C 0.87073 0.66951 0.95696 0.0
C253 C 0.88762 0.64265 0.94533 0.0
C254 C 0.87233 0.61612 0.93819 0.0
C255 C 0.91818 0.64281 0.94101 0.0
C256 C 0.91758 0.5903 0.92147 0.0
C257 C 0.93302 0.61687 0.92911 0.0
C258 C 0.88706 0.59028 0.92642 0.0
C259 C 0.84353 0.77146 0.98605 0.0
O260 O 0.84525 0.74493 0.0582 0.0
O261 O 0.84084 0.70232 0.02816 0.0
O262 O 0.90693 0.79302 0.07301 0.0
O263 O 0.86486 0.8074 0.05264 0.0
O264 O 0.92911 0.74122 0.05187 0.0
O265 O 0.89354 0.71388 0.03879 0.0
O266 O 0.91896 0.72855 0.98217 0.0
O267 O 0.91374 0.7783 0.99861 0.0
O268 O 0.87832 0.69712 0.94867 0.0
O269 O 0.86297 0.66805 0.98505 0.0
O270 O 0.83165 0.7454 0.98016 0.0
O271 O 0.86978 0.76634 0.99324 0.0
H272 H 0.9155 0.8185 0.1256 0.0
H273 H 0.82693 0.82603 0.08989 0.0
H274 H 0.80931 0.84454 0.13816 0.0
H275 H 0.89776 0.836 0.17417 0.0
H276 H 0.84874 0.61551 0.94135 0.0
H277 H 0.93049 0.66296 0.94662 0.0
H278 H 0.95657 0.61763 0.92588 0.0
H279 H 0.87429 0.5706 0.92037 0.0
Gd280 Gd 0.53795 0.62828 0.2356 0.0
Gd281 Gd 0.49876 0.64149 0.28798 0.0
C282 C 0.55978 0.67863 0.28096 0.0
C283 C 0.56473 0.62013 0.1852 0.0
C284 C 0.59225 0.63158 0.17248 0.0
C285 C 0.61198 0.61088 0.15866 0.0
C286 C 0.59956 0.6627 0.17482 0.0
C287 C 0.64587 0.65227 0.14907 0.0
C288 C 0.62605 0.67295 0.16313 0.0
C289 C 0.63854 0.62105 0.14719 0.0
C290 C 0.55144 0.59522 0.28588 0.0
C291 C 0.47548 0.59418 0.24275 0.0
C292 C 0.47639 0.64875 0.34079 0.0
C293 C 0.45931 0.63272 0.36379 0.0
C294 C 0.43948 0.65009 0.38112 0.0
C295 C 0.46323 0.60099 0.36967 0.0
C296 C 0.42766 0.60447 0.41031 0.0
C297 C 0.44758 0.58698 0.39284 0.0
C298 C 0.42384 0.63618 0.40411 0.0
C299 C 0.48528 0.67451 0.23729 0.0
O300 O 0.56211 0.66894 0.25305 0.0
O301 O 0.53889 0.66883 0.29879 0.0
O302 O 0.56778 0.60104 0.2079 0.0
O303 O 0.5432 0.64037 0.18877 0.0
O304 O 0.57075 0.60741 0.26857 0.0
O305 O 0.52585 0.60072 0.27572 0.0
O306 O 0.47747 0.59929 0.27174 0.0
O307 O 0.49428 0.60641 0.22374 0.0
O308 O 0.46252 0.65709 0.31606 0.0
O309 O 0.50334 0.63848 0.33623 0.0
O310 O 0.46583 0.66442 0.25578 0.0
O311 O 0.51065 0.66842 0.24762 0.0
H312 H 0.60695 0.58673 0.15695 0.0
H313 H 0.58484 0.67914 0.18567 0.0
H314 H 0.63074 0.69718 0.16473 0.0
H315 H 0.65347 0.60429 0.13711 0.0
H316 H 0.43633 0.67463 0.37712 0.0
H317 H 0.47848 0.58711 0.35654 0.0
H318 H 0.45085 0.56248 0.39689 0.0
H319 H 0.40911 0.65048 0.41741 0.0
Gd320 Gd 0.22248 0.52751 0.13222 0.0
Gd321 Gd 0.26634 0.4683 0.12154 0.0
C322 C 0.20873 0.47758 0.07993 0.0
C323 C 0.19456 0.57953 0.12483 0.0
C324 C 0.16359 0.58901 0.1188 0.0
C325 C 0.14023 0.57404 0.13264 0.0
C326 C 0.15726 0.61198 0.0972 0.0
C327 C 0.10463 0.60483 0.10302 0.0
C328 C 0.12811 0.61978 0.08933 0.0
C329 C 0.11102 0.58204 0.12496 0.0
C330 C 0.20577 0.47775 0.1647 0.0
C331 C 0.28221 0.5177 0.1721 0.0
C332 C 0.29571 0.41635 0.1231 0.0
C333 C 0.30859 0.39014 0.1408 0.0
C334 C 0.2969 0.36086 0.13692 0.0
C335 C 0.33423 0.39278 0.15834 0.0
C336 C 0.33729 0.33696 0.16576 0.0
C337 C 0.34836 0.36642 0.17086 0.0
C338 C 0.31102 0.33463 0.14925 0.0
C339 C 0.27396 0.51983 0.08764 0.0
O340 O 0.20453 0.50589 0.09022 0.0
O341 O 0.2288 0.45793 0.0911 0.0
O342 O 0.20098 0.56781 0.15151 0.0
O343 O 0.20763 0.56476 0.10284 0.0
O344 O 0.19196 0.50435 0.16499 0.0
O345 O 0.22674 0.47954 0.14674 0.0
O346 O 0.2828 0.488 0.1651 0.0
O347 O 0.26276 0.53787 0.16003 0.0
O348 O 0.30839 0.44312 0.12354 0.0
O349 O 0.26694 0.41859 0.12104 0.0
O350 O 0.28103 0.49236 0.07813 0.0
O351 O 0.26614 0.5179 0.11429 0.0
H352 H 0.14454 0.55587 0.14904 0.0
H353 H 0.17493 0.62365 0.08609 0.0
H354 H 0.12395 0.63772 0.07266 0.0
H355 H 0.09345 0.56994 0.13575 0.0
H356 H 0.27732 0.35806 0.1233 0.0
H357 H 0.34395 0.41499 0.16153 0.0
H358 H 0.36866 0.36897 0.18335 0.0
H359 H 0.30168 0.31237 0.14527 0.0
Gd360 Gd 0.73088 0.9892 0.87813 0.0
Gd361 Gd 0.7721 0.03832 0.89848 0.0
C362 C 0.71133 0.03701 0.9316 0.0
C363 C 0.69313 0.94598 0.8721 0.0
C364 C 0.66544 0.93582 0.8861 0.0
C365 C 0.63894 0.93887 0.86979 0.0
C366 C 0.66503 0.92192 0.91476 0.0
C367 C 0.61236 0.91321 0.90975 0.0
C368 C 0.63876 0.91079 0.92647 0.0
C369 C 0.61278 0.92791 0.88148 0.0
C370 C 0.73297 0.03792 0.8406 0.0
C371 C 0.7942 0.99149 0.84827 0.0
C372 C 0.80691 0.08432 0.90317 0.0
C373 C 0.82438 0.10567 0.88515 0.0
C374 C 0.84885 0.11893 0.89852 0.0
C375 C 0.8161 0.1146 0.85581 0.0
C376 C 0.85631 0.15065 0.85393 0.0
C377 C 0.83191 0.13696 0.84035 0.0
C378 C 0.86462 0.14114 0.88316 0.0
C379 C 0.77308 0.9858 0.933 0.0
O380 O 0.70751 0.00989 0.91891 0.0
O381 O 0.73348 0.05423 0.92442 0.0
O382 O 0.69161 0.97195 0.85703 0.0
O383 O 0.71767 0.94245 0.88742 0.0
O384 O 0.73162 0.00958 0.83202 0.0
O385 O 0.73243 0.03965 0.86897 0.0
O386 O 0.79304 0.02062 0.85639 0.0
O387 O 0.77375 0.97227 0.85718 0.0
O388 O 0.81617 0.05553 0.90495 0.0
O389 O 0.77829 0.08737 0.90078 0.0
O390 O 0.77841 0.0129 0.94341 0.0
O391 O 0.77095 0.98783 0.90504 0.0
H392 H 0.6385 0.94942 0.84766 0.0
H393 H 0.68506 0.91909 0.92794 0.0
H394 H 0.63937 0.8994 0.94819 0.0
H395 H 0.59285 0.93075 0.86815 0.0
H396 H 0.85543 0.11258 0.92123 0.0
H397 H 0.79722 0.10465 0.84504 0.0
H398 H 0.82506 0.14347 0.81779 0.0
H399 H 0.88291 0.15147 0.8946 0.0
Gd400 Gd 0.74337 0.97543 0.40031 0.0
Gd401 Gd 0.78974 0.01894 0.37912 0.0
C402 C 0.78592 0.95643 0.3439 0.0
C403 C 0.69914 0.93947 0.40575 0.0
C404 C 0.68821 0.91108 0.39245 0.0
C405 C 0.66177 0.89934 0.40275 0.0
C406 C 0.70345 0.89583 0.36938 0.0
C407 C 0.66579 0.85706 0.36724 0.0
C408 C 0.69229 0.86907 0.35681 0.0
C409 C 0.65066 0.87262 0.39032 0.0
C410 C 0.7921 0.9735 0.43456 0.0
C411 C 0.75054 0.03865 0.43498 0.0
C412 C 0.83353 0.05505 0.37119 0.0
C413 C 0.85672 0.07227 0.38639 0.0
C414 C 0.86998 0.09602 0.37053 0.0
C415 C 0.86753 0.06395 0.41505 0.0
C416 C 0.90545 0.10253 0.41119 0.0
C417 C 0.89169 0.07898 0.42736 0.0
C418 C 0.89405 0.11092 0.38269 0.0
C419 C 0.73634 0.0241 0.35026 0.0
O420 O 0.76103 0.95177 0.35827 0.0
O421 O 0.80256 0.97969 0.35029 0.0
O422 O 0.72308 0.93667 0.42212 0.0
O423 O 0.69891 0.96372 0.38819 0.0
O424 O 0.7657 0.97081 0.44477 0.0
O425 O 0.79215 0.97551 0.40612 0.0
O426 O 0.7775 0.03796 0.42418 0.0
O427 O 0.73089 0.01873 0.42573 0.0
O428 O 0.80627 0.0652 0.37351 0.0
O429 O 0.83617 0.02501 0.37219 0.0
O430 O 0.76125 0.02764 0.33683 0.0
O431 O 0.74124 0.01987 0.37761 0.0
H432 H 0.64961 0.91093 0.4204 0.0
H433 H 0.72393 0.90456 0.36115 0.0
H434 H 0.70461 0.85754 0.33926 0.0
H435 H 0.62995 0.86437 0.39855 0.0
H436 H 0.8622 0.10252 0.34824 0.0
H437 H 0.85764 0.04554 0.42763 0.0
H438 H 0.89962 0.0721 0.44947 0.0
H439 H 0.90426 0.12844 0.36924 0.0
Gd440 Gd 0.29709 0.48801 0.64593 0.0
Gd441 Gd 0.25626 0.54001 0.62606 0.0
C442 C 0.31514 0.53255 0.58953 0.0
C443 C 0.33204 0.44016 0.64911 0.0
C444 C 0.36025 0.43191 0.63499 0.0
C445 C 0.38156 0.45413 0.62988 0.0
C446 C 0.36526 0.40178 0.62494 0.0
C447 C 0.41256 0.41598 0.60474 0.0
C448 C 0.39115 0.39388 0.60988 0.0
C449 C 0.40767 0.44613 0.61509 0.0
C450 C 0.29887 0.53719 0.6816 0.0
C451 C 0.23596 0.49613 0.67892 0.0
C452 C 0.22209 0.5884 0.62024 0.0
C453 C 0.20496 0.61181 0.63696 0.0
C454 C 0.17595 0.61864 0.6278 0.0
C455 C 0.2179 0.62987 0.65926 0.0
C456 C 0.1741 0.66347 0.66011 0.0
C457 C 0.20252 0.65551 0.67081 0.0
C458 C 0.16063 0.64414 0.6393 0.0
C459 C 0.25122 0.48626 0.59541 0.0
O460 O 0.3203 0.5065 0.60461 0.0
O461 O 0.29282 0.55117 0.59592 0.0
O462 O 0.33231 0.46239 0.66874 0.0
O463 O 0.30939 0.44216 0.63084 0.0
O464 O 0.30088 0.50889 0.69108 0.0
O465 O 0.29747 0.53867 0.65317 0.0
O466 O 0.23725 0.52523 0.67033 0.0
O467 O 0.25501 0.47519 0.66857 0.0
O468 O 0.21234 0.56038 0.61966 0.0
O469 O 0.25078 0.58934 0.62202 0.0
O470 O 0.24819 0.51317 0.58271 0.0
O471 O 0.25491 0.4897 0.62291 0.0
H472 H 0.37791 0.47771 0.63703 0.0
H473 H 0.34899 0.38442 0.62849 0.0
H474 H 0.39456 0.37036 0.60246 0.0
H475 H 0.42376 0.46359 0.61124 0.0
H476 H 0.16553 0.60501 0.61069 0.0
H477 H 0.24029 0.62501 0.66682 0.0
H478 H 0.21341 0.66998 0.68686 0.0
H479 H 0.13851 0.64934 0.63112 0.0
H480 H 0.19937 0.33533 0.48169 0.0
H481 H 0.24799 0.43155 0.62478 0.0
H482 H 0.18916 0.30399 0.57315 0.0
H483 H 0.23765 0.4723 0.53655 0.0
H484 H 0.23343 0.3823 0.60488 0.0
H485 H 0.22044 0.38262 0.50021 0.0
C486 C 0.20189 0.3381 0.50569 0.0
C487 C 0.1923 0.31549 0.5259 0.0
C488 C 0.23441 0.4019 0.58977 0.0
C489 C 0.21642 0.36997 0.54717 0.0
C490 C 0.24282 0.43012 0.60109 0.0
C491 C 0.24392 0.4562 0.58229 0.0
C492 C 0.22712 0.39945 0.5593 0.0
C493 C 0.23698 0.45281 0.55181 0.0
C494 C 0.2138 0.36529 0.5162 0.0
C495 C 0.19618 0.32066 0.5567 0.0
N496 N 0.2288 0.42492 0.54123 0.0
N497 N 0.20783 0.34736 0.56637 0.0
H498 H 0.84008 0.02565 0.82934 0.0
H499 H 0.9399 0.88222 0.77677 0.0
H500 H 0.81072 0.93204 0.83248 0.0
H501 H 0.97603 0.96867 0.80318 0.0
H502 H 0.89081 0.90209 0.78904 0.0
H503 H 0.88767 0.00699 0.8112 0.0
C504 C 0.84341 1.00114 0.82586 0.0
C505 C 0.82122 0.98034 0.83271 0.0
C506 C 0.90941 0.91678 0.7921 0.0
C507 C 0.87612 0.9589 0.81186 0.0
C508 C 0.93751 0.90552 0.78503 0.0
C509 C 0.96217 0.92383 0.78905 0.0
C510 C 0.90571 0.94677 0.80304 0.0
C511 C 0.95763 0.95379 0.79984 0.0
C512 C 0.87077 0.99055 0.81565 0.0
C513 C 0.82706 0.94892 0.82755 0.0
N514 N 0.92989 0.96438 0.80644 0.0
N515 N 0.854 0.93914 0.81753 0.0
H516 H 0.33359 0.66871 0.97431 0.0
H517 H 0.26582 0.57631 0.11166 0.0
H518 H 0.31889 0.70656 0.06239 0.0
H519 H 0.29515 0.53159 0.0307 0.0
H520 H 0.27765 0.6258 0.09019 0.0
H521 H 0.31207 0.62064 0.99094 0.0
C522 C 0.3254 0.66717 0.99701 0.0
C523 C 0.32829 0.69173 0.0171 0.0
C524 C 0.28138 0.6053 0.07692 0.0
C525 C 0.30379 0.63658 0.0362 0.0
C526 C 0.2745 0.5769 0.08913 0.0
C527 C 0.27951 0.5497 0.07293 0.0
C528 C 0.29362 0.60677 0.04822 0.0
C529 C 0.291 0.55203 0.04393 0.0
C530 C 0.31328 0.63959 1.00649 0.0
C531 C 0.31728 0.68827 0.04617 0.0
N532 N 0.29786 0.58015 0.0325 0.0
N533 N 0.30571 0.66116 0.05488 0.0
H534 H 0.54698 0.03151 0.31574 0.0
H535 H 0.72009 0.0441 0.29322 0.0
H536 H 0.58292 0.1103 0.27126 0.0
H537 H 0.68406 0.01963 0.37907 0.0
H538 H 0.66963 0.05625 0.27479 0.0
H539 H 0.59751 0.01391 0.32951 0.0
C540 C 0.56542 0.04473 0.30833 0.0
C541 C 0.56069 0.07216 0.29186 0.0
C542 C 0.67295 0.04768 0.2975 0.0
C543 C 0.61826 0.0519 0.30691 0.0
C544 C 0.70165 0.04075 0.30799 0.0
C545 C 0.70633 0.03028 0.33758 0.0
C546 C 0.64883 0.04332 0.31649 0.0
C547 C 0.68155 0.02674 0.35587 0.0
C548 C 0.59416 0.03475 0.31622 0.0
C549 C 0.58548 0.08861 0.2832 0.0
N550 N 0.65394 0.03297 0.34501 0.0
N551 N 0.61313 0.07817 0.29062 0.0
H552 H 0.64579 0.18649 0.50846 0.0
H553 H 0.78469 0.08526 0.45503 0.0
H554 H 0.73155 0.22429 0.4962 0.0
H555 H 0.69566 0.05344 0.45687 0.0
H556 H 0.76779 0.13353 0.47774 0.0
H557 H 0.66594 0.13564 0.49729 0.0
C558 C 0.66906 0.18405 0.50382 0.0
C559 C 0.68705 0.20975 0.50334 0.0
C560 C 0.75204 0.11585 0.4735 0.0
C561 C 0.7103 0.15114 0.48981 0.0
C562 C 0.76164 0.08815 0.46063 0.0
C563 C 0.74147 0.06528 0.45367 0.0
C564 C 0.72206 0.12074 0.47957 0.0
C565 C 0.71197 0.0704 0.46164 0.0
C566 C 0.68053 0.15488 0.49724 0.0
C567 C 0.71694 0.20508 0.49675 0.0
N568 N 0.70314 0.09767 0.47391 0.0
N569 N 0.72764 0.17629 0.49001 0.0
H570 H 0.06436 0.42549 0.68325 0.0
H571 H 0.20009 0.52887 0.71694 0.0
H572 H 0.07204 0.46718 0.77039 0.0
H573 H 0.20884 0.44187 0.67133 0.0
H574 H 0.14986 0.51569 0.73155 0.0
H575 H 0.11361 0.44282 0.67108 0.0
C576 C 0.07602 0.43912 0.69947 0.0
C577 C 0.06418 0.44498 0.72786 0.0
C578 C 0.16305 0.49945 0.71868 0.0
C579 C 0.12041 0.46444 0.71419 0.0
C580 C 0.19164 0.50679 0.71053 0.0
C581 C 0.20865 0.48628 0.69316 0.0
C582 C 0.15127 0.47195 0.70845 0.0
C583 C 0.19663 0.45815 0.68508 0.0
C584 C 0.10424 0.44854 0.69268 0.0
C585 C 0.0805 0.46224 0.74825 0.0
N586 N 0.16846 0.45203 0.69235 0.0
N587 N 0.10791 0.47141 0.74103 0.0
H588 H 0.82432 0.96928 0.96234 0.0
H589 H 0.78677 0.78938 0.96918 0.0
H590 H 0.73986 0.93491 0.93766 0.0
H591 H 0.8712 0.82558 0.9922 0.0
H592 H 0.76759 0.8425 0.96087 0.0
H593 H 0.84014 0.91707 0.97834 0.0
C594 C 0.80894 0.95079 0.96077 0.0
C595 C 0.7809 0.95621 0.94823 0.0
C596 C 0.79027 0.83876 0.96792 0.0
C597 C 0.79889 0.89627 0.96581 0.0
C598 C 0.80119 0.80844 0.97259 0.0
C599 C 0.8306 0.803 0.98138 0.0
C600 C 0.80894 0.86373 0.97207 0.0
C601 C 0.84835 0.8286 0.9855 0.0
C602 C 0.81803 0.9209 0.9696 0.0
C603 C 0.76194 0.93142 0.94634 0.0
N604 N 0.8373 0.85768 0.98077 0.0
N605 N 0.77128 0.90251 0.95479 0.0
H606 H 0.44531 0.54851 0.27018 0.0
H607 H 0.30312 0.57582 0.1687 0.0
H608 H 0.44477 0.60628 0.19095 0.0
H609 H 0.32192 0.48659 0.20918 0.0
H610 H 0.35127 0.59258 0.1855 0.0
H611 H 0.39711 0.52933 0.25515 0.0
C612 C 0.43523 0.55676 0.24939 0.0
C613 C 0.44911 0.57875 0.23158 0.0
C614 C 0.34468 0.56944 0.19094 0.0
C615 C 0.39375 0.55792 0.21505 0.0
C616 C 0.31702 0.55995 0.18177 0.0
C617 C 0.30837 0.52971 0.1876 0.0
C618 C 0.36369 0.54882 0.20657 0.0
C619 C 0.32767 0.51009 0.20423 0.0
C620 C 0.40777 0.54592 0.24095 0.0
C621 C 0.43502 0.58898 0.20506 0.0
N622 N 0.35446 0.52 0.2132 0.0
N623 N 0.40789 0.57882 0.19781 0.0
H624 H 0.57484 0.17362 0.31311 0.0
H625 H 0.55033 0.28287 0.45242 0.0
H626 H 0.48931 0.2163 0.32792 0.0
H627 H 0.59973 0.19663 0.45905 0.0
H628 H 0.53315 0.26827 0.40215 0.0
H629 H 0.59157 0.19372 0.36137 0.0
C630 C 0.55993 0.18816 0.32599 0.0
C631 C 0.5307 0.19344 0.31658 0.0
C632 C 0.54752 0.25253 0.41484 0.0
C633 C 0.54952 0.21598 0.37165 0.0
C634 C 0.55712 0.26068 0.44346 0.0
C635 C 0.5761 0.24068 0.45994 0.0
C636 C 0.55787 0.22476 0.40237 0.0
C637 C 0.58468 0.21241 0.44726 0.0
C638 C 0.56932 0.19913 0.35368 0.0
C639 C 0.51205 0.21183 0.33446 0.0
N640 N 0.57584 0.20546 0.41899 0.0
N641 N 0.52175 0.22244 0.36127 0.0
H642 H 0.06368 0.33486 0.53009 0.0
H643 H 0.05944 0.28929 0.70536 0.0
H644 H 0.11957 0.26428 0.57063 0.0
H645 H 0.02131 0.37411 0.66941 0.0
H646 H 0.0772 0.27626 0.65493 0.0
H647 H 0.04438 0.34755 0.58011 0.0
C648 C 0.07174 0.32187 0.54949 0.0
C649 C 0.09236 0.2975 0.54609 0.0
C650 C 0.06481 0.29767 0.6581 0.0
C651 C 0.07047 0.31169 0.60324 0.0
C652 C 0.05455 0.30499 0.68684 0.0
C653 C 0.03883 0.33277 0.69161 0.0
C654 C 0.0591 0.31818 0.63392 0.0
C655 C 0.03324 0.35237 0.66678 0.0
C656 C 0.06068 0.329 0.57799 0.0
C657 C 0.10237 0.28174 0.57197 0.0
N658 N 0.04333 0.34473 0.63909 0.0
N659 N 0.09128 0.28891 0.59935 0.0
H660 H 0.03115 0.7819 0.81926 0.0
H661 H 0.92343 0.8135 0.95321 0.0
H662 H 0.94596 0.82709 0.80678 0.0
H663 H 0.96654 0.72377 0.94788 0.0
H664 H 0.9417 0.82581 0.9032 0.0
H665 H 0.01581 0.76471 0.86939 0.0
C666 C 1.00904 0.78756 0.82672 0.0
C667 C 0.98977 0.80585 0.80873 0.0
C668 C 0.94745 0.80359 0.91323 0.0
C669 C 0.97285 0.78762 0.8662 0.0
C670 C 0.93744 0.79671 0.94192 0.0
C671 C 0.94352 0.76757 0.95472 0.0
C672 C 0.96415 0.78147 0.89748 0.0
C673 C 0.9614 0.74651 0.93876 0.0
C674 C 1.00045 0.77796 0.85533 0.0
C675 C 0.96148 0.81282 0.81966 0.0
N676 N 0.97116 0.75387 0.91087 0.0
N677 N 0.9541 0.80424 0.84791 0.0
H678 H 0.5228 0.69814 0.19511 0.0
H679 H 0.39374 0.72465 0.07382 0.0
H680 H 0.43219 0.67552 0.20871 0.0
H681 H 0.48486 0.72494 0.04758 0.0
H682 H 0.40866 0.71183 0.12468 0.0
H683 H 0.51068 0.71262 0.14272 0.0
C684 C 0.5004 0.69618 0.18707 0.0
C685 C 0.47851 0.68532 0.20622 0.0
C686 C 0.42557 0.71461 0.10798 0.0
C687 C 0.46445 0.7023 0.14668 0.0
C688 C 0.41705 0.72212 0.07874 0.0
C689 C 0.43806 0.72597 0.0562 0.0
C690 C 0.45551 0.71093 0.11531 0.0
C691 C 0.46792 0.72211 0.06422 0.0
C692 C 0.49353 0.70445 0.15722 0.0
C693 C 0.44978 0.68376 0.19484 0.0
N694 N 0.47582 0.71486 0.09322 0.0
N695 N 0.44365 0.69213 0.16595 0.0
H696 H 0.13142 0.38782 0.31538 0.0
H697 H 0.2416 0.42806 0.18243 0.0
H698 H 0.21168 0.33459 0.30096 0.0
H699 H 0.15589 0.47094 0.19548 0.0
H700 H 0.23164 0.39183 0.22388 0.0
H701 H 0.14093 0.41776 0.27047 0.0
C702 C 0.15127 0.38263 0.30287 0.0
C703 C 0.17097 0.35893 0.31218 0.0
C704 C 0.21495 0.40897 0.21734 0.0
C705 C 0.18194 0.39302 0.26007 0.0
C706 C 0.22055 0.42944 0.19365 0.0
C707 C 0.19956 0.45254 0.18579 0.0
C708 C 0.18824 0.41188 0.23302 0.0
C709 C 0.17275 0.45361 0.20103 0.0
C710 C 0.15659 0.39957 0.27697 0.0
C711 C 0.19594 0.35273 0.29455 0.0
N712 N 0.16798 0.43379 0.22395 0.0
N713 N 0.20086 0.36983 0.26938 0.0
H714 H 0.88135 0.96634 0.60283 0.0
H715 H 0.84173 0.93572 0.43029 0.0
H716 H 0.91363 0.88612 0.5555 0.0
H717 H 0.79949 1.00449 0.48564 0.0
H718 H 0.87658 0.92341 0.47178 0.0
H719 H 0.85946 0.98639 0.55629 0.0
C720 C 0.88387 0.95293 0.58258 0.0
C721 C 0.89887 0.9242 0.58324 0.0
C722 C 0.86009 0.94166 0.47453 0.0
C723 C 0.87383 0.94719 0.5295 0.0
C724 C 0.84049 0.9489 0.45078 0.0
C725 C 0.81789 0.97115 0.45472 0.0
C726 C 0.85697 0.95703 0.50208 0.0
C727 C 0.81669 0.98717 0.48182 0.0
C728 C 0.87147 0.96448 0.55592 0.0
C729 C 0.90212 0.9083 0.55605 0.0
N730 N 0.83576 0.97968 0.50448 0.0
N731 N 0.88937 0.91981 0.53033 0.0
H732 H 0.32315 0.5941 0.67259 0.0
H733 H 0.31227 0.63186 0.84807 0.0
H734 H 0.27931 0.53872 0.73822 0.0
H735 H 0.3733 0.67586 0.78904 0.0
H736 H 0.29191 0.60509 0.80514 0.0
H737 H 0.33342 0.63192 0.71207 0.0
C738 C 0.31515 0.59031 0.6951 0.0
C739 C 0.30072 0.56322 0.7024 0.0
C740 C 0.30961 0.62079 0.80149 0.0
C741 C 0.31225 0.60589 0.74729 0.0
C742 C 0.32135 0.63597 0.82606 0.0
C743 C 0.34487 0.65577 0.8223 0.0
C744 C 0.32147 0.62526 0.77281 0.0
C745 C 0.35518 0.6608 0.79303 0.0
C746 C 0.32116 0.61169 0.71762 0.0
C747 C 0.29087 0.55918 0.73184 0.0
N748 N 0.34363 0.64538 0.76943 0.0
N749 N 0.29696 0.58013 0.75319 0.0
H750 H 0.5794 0.067 0.0713 0.0
H751 H 0.71367 0.09191 0.96034 0.0
H752 H 0.64893 0.13088 0.08621 0.0
H753 H 0.66401 0.00871 0.95831 0.0
H754 H 0.68447 0.11 1.00214 0.0
H755 H 0.60517 0.04838 0.02652 0.0
C756 C 0.60001 0.07717 0.0653 0.0
C757 C 0.61183 0.10077 0.08276 0.0
C758 C 0.67984 0.08778 0.99263 0.0
C759 C 0.64107 0.0798 0.03113 0.0
C760 C 0.69651 0.07736 0.96856 0.0
C761 C 0.69156 0.04849 0.95576 0.0
C762 C 0.65772 0.06945 1.00425 0.0
C763 C 0.66871 0.03103 0.9675 0.0
C764 C 0.61461 0.06654 0.03963 0.0
C765 C 0.63842 0.11322 0.07336 0.0
N766 N 0.65263 0.04176 0.9912 0.0
N767 N 0.652 0.10265 0.0483 0.0
H768 H 0.71299 0.13491 0.67284 0.0
H769 H 0.7034 0.0937 0.84828 0.0
H770 H 0.64386 0.17102 0.72955 0.0
H771 H 0.75232 0.03998 0.78373 0.0
H772 H 0.68932 0.13083 0.80805 0.0
H773 H 0.73547 0.10877 0.71642 0.0
C774 C 0.70276 0.13776 0.69454 0.0
C775 C 0.67633 0.15501 0.69743 0.0
C776 C 0.70352 0.11114 0.80288 0.0
C777 C 0.7019 0.12481 0.74753 0.0
C778 C 0.71173 0.09018 0.82583 0.0
C779 C 0.72882 0.06374 0.81912 0.0
C780 C 0.71293 0.1057 0.77333 0.0
C781 C 0.73889 0.05999 0.7897 0.0
C782 C 0.71552 0.12265 0.71941 0.0
C783 C 0.66397 0.15754 0.72618 0.0
N784 N 0.7307 0.0806 0.7679 0.0
N785 N 0.67676 0.14246 0.75009 0.0
H786 H 0.16943 0.51198 0.04501 0.0
H787 H 0.14127 0.37271 0.93281 0.0
H788 H 0.2081 0.42031 0.05507 0.0
H789 H 0.10427 0.46441 0.91815 0.0
H790 H 0.16434 0.39001 0.97879 0.0
H791 H 0.14332 0.49509 1.00002 0.0
C792 C 0.1723 0.48829 0.03793 0.0
C793 C 0.19114 0.46759 0.05384 0.0
C794 C 0.15122 0.40645 0.96557 0.0
C795 C 0.16144 0.44822 1.00236 0.0
C796 C 0.13821 0.39662 0.93911 0.0
C797 C 0.12106 0.41722 0.92133 0.0
C798 C 0.14713 0.43717 0.97457 0.0
C799 C 0.11723 0.44772 0.9312 0.0
C800 C 0.15745 0.4787 0.01219 0.0
C801 C 0.19399 0.43719 0.04354 0.0
N802 N 0.13026 0.45682 0.95713 0.0
N803 N 0.17941 0.42851 0.01849 0.0
H804 H 0.84014 0.95305 0.31877 0.0
H805 H 0.79993 0.83337 0.19029 0.0
H806 H 0.75452 0.9131 0.3126 0.0
H807 H 0.88068 0.88293 0.19545 0.0
H808 H 0.78344 0.85865 0.23654 0.0
H809 H 0.85602 0.92321 0.27591 0.0
C810 C 0.82459 0.93788 0.30846 0.0
C811 C 0.79579 0.93587 0.31927 0.0
C812 C 0.80481 0.86379 0.22756 0.0
C813 C 0.81405 0.90135 0.26952 0.0
C814 C 0.81422 0.84949 0.20108 0.0
C815 C 0.84186 0.85587 0.18887 0.0
C816 C 0.82316 0.88462 0.24193 0.0
C817 C 0.85949 0.87672 0.20413 0.0
C818 C 0.83375 0.92077 0.28384 0.0
C819 C 0.77691 0.91542 0.30503 0.0
N820 N 0.84983 0.89028 0.22969 0.0
N821 N 0.78631 0.89907 0.2807 0.0
H822 H 0.36702 0.50472 0.56921 0.0
H823 H 0.36994 0.61512 0.42435 0.0
H824 H 0.30473 0.57954 0.54983 0.0
H825 H 0.44668 0.56109 0.45253 0.0
H826 H 0.34345 0.59576 0.46738 0.0
H827 H 0.39489 0.51946 0.52429 0.0
C828 C 0.35924 0.52419 0.55567 0.0
C829 C 0.33349 0.54093 0.56346 0.0
C830 C 0.36609 0.58805 0.46425 0.0
C831 C 0.36486 0.55749 0.5121 0.0
C832 C 0.38128 0.59919 0.43965 0.0
C833 C 0.41077 0.59018 0.43504 0.0
C834 C 0.38031 0.56755 0.48459 0.0
C835 C 0.42396 0.56869 0.45523 0.0
C836 C 0.37512 0.53255 0.53009 0.0
C837 C 0.32443 0.56592 0.54501 0.0
N838 N 0.4087 0.55822 0.47929 0.0
N839 N 0.33997 0.57327 0.52031 0.0
H840 H 0.22361 0.16749 0.49324 0.0
H841 H 0.3096 0.18283 0.34067 0.0
H842 H 0.19292 0.23502 0.42773 0.0
H843 H 0.35168 0.15982 0.4255 0.0
H844 H 0.26459 0.19802 0.3678 0.0
H845 H 0.26771 0.15832 0.46393 0.0
C846 C 0.226 0.18032 0.47249 0.0
C847 C 0.20437 0.20208 0.46296 0.0
C848 C 0.28384 0.18985 0.38033 0.0
C849 C 0.25534 0.19148 0.42899 0.0
C850 C 0.30963 0.18128 0.36492 0.0
C851 C 0.33456 0.1694 0.38067 0.0
C852 C 0.28284 0.18611 0.41162 0.0
C853 C 0.33295 0.16783 0.41213 0.0
C854 C 0.25138 0.17515 0.45583 0.0
C855 C 0.2089 0.21792 0.43581 0.0
N856 N 0.30756 0.17564 0.42641 0.0
N857 N 0.23389 0.2122 0.4196 0.0
H858 H 0.06185 0.08013 0.59659 0.0
H859 H 0.09144 0.94993 0.72212 0.0
H860 H 0.13651 0.07716 0.65707 0.0
H861 H 1.01038 0.95792 0.67094 0.0
H862 H 0.10972 0.994 0.6951 0.0
H863 H 0.04436 0.03291 0.62002 0.0
C864 C 0.07472 0.06935 0.61459 0.0
C865 C 0.10066 0.08261 0.62497 0.0
C866 C 0.08794 0.98617 0.6897 0.0
C867 C 0.08065 0.02885 0.65198 0.0
C868 C 0.0774 0.96088 0.70514 0.0
C869 C 0.04916 0.95018 0.69897 0.0
C870 C 0.07023 1.00107 0.66776 0.0
C871 C 0.03222 0.96542 0.67656 0.0
C872 C 0.06461 0.04255 0.62807 0.0
C873 C 0.11624 0.06794 0.6486 0.0
N874 N 0.043 0.99018 0.66179 0.0
N875 N 0.10598 0.04189 0.6613 0.0
H876 H 0.17716 0.77957 0.88043 0.0
H877 H 0.34704 0.8121 0.9146 0.0
H878 H 0.22505 0.84881 0.83298 0.0
H879 H 0.29215 0.75499 0.9687 0.0
H880 H 0.30621 0.81857 0.8779 0.0
H881 H 0.22243 0.76341 0.9066 0.0
C882 C 0.19722 0.79132 0.87541 0.0
C883 C 0.19709 0.81587 0.85471 0.0
C884 C 0.30338 0.80418 0.89756 0.0
C885 C 0.24938 0.79736 0.8847 0.0
C886 C 0.32673 0.80028 0.91828 0.0
C887 C 0.32276 0.78316 0.94468 0.0
C888 C 0.27621 0.79058 0.90337 0.0
C889 C 0.29597 0.76859 0.94869 0.0
C890 C 0.22317 0.782 0.89029 0.0
C891 C 0.22405 0.82973 0.84869 0.0
N892 N 0.27374 0.77279 0.92845 0.0
N893 N 0.24902 0.82053 0.86384 0.0
H894 H 0.51381 0.03925 0.18306 0.0
H895 H 0.37815 0.93048 0.15031 0.0
H896 H 0.42864 0.0489 0.22473 0.0
H897 H 0.46357 0.91572 0.11043 0.0
H898 H 0.3966 0.97484 0.17665 0.0
H899 H 0.49614 0.99497 0.15508 0.0
C900 C 0.49144 0.03212 0.18633 0.0
C901 C 0.47272 0.04784 0.20636 0.0
C902 C 0.41139 0.96195 0.16218 0.0
C903 C 0.4524 0.99729 0.17441 0.0
C904 C 0.40089 0.93643 0.14723 0.0
C905 C 0.41938 0.91909 0.12829 0.0
C906 C 0.44068 0.97043 0.15824 0.0
C907 C 0.44847 0.92849 0.12466 0.0
C908 C 0.48138 1.00684 0.17035 0.0
C909 C 0.44393 0.03756 0.20963 0.0
N910 N 0.45826 0.95348 0.13957 0.0
N911 N 0.43472 0.01301 0.19387 0.0
H912 H 0.83239 0.30523 0.67645 0.0
H913 H 0.68816 0.3514 0.58054 0.0
H914 H 0.81266 0.39562 0.63894 0.0
H915 H 0.70901 0.25791 0.60897 0.0
H916 H 0.73052 0.3687 0.6085 0.0
H917 H 0.78487 0.28811 0.65758 0.0
C918 C 0.81808 0.3215 0.66435 0.0
C919 C 0.82665 0.35192 0.6592 0.0
C920 C 0.72582 0.34441 0.60888 0.0
C921 C 0.77218 0.33256 0.63792 0.0
C922 C 0.70155 0.33448 0.59291 0.0
C923 C 0.69527 0.30309 0.59208 0.0
C924 C 0.74424 0.32281 0.62404 0.0
C925 C 0.71317 0.28232 0.60891 0.0
C926 C 0.7909 0.31174 0.65376 0.0
C927 C 0.80696 0.3721 0.64385 0.0
N928 N 0.73714 0.29251 0.62395 0.0
N929 N 0.7808 0.36201 0.63367 0.0
H930 H 1.00111 0.4804 0.78621 0.0
H931 H 0.90835 0.52833 0.93025 0.0
H932 H 0.95371 0.4146 0.83836 0.0
H933 H 0.96091 0.59051 0.87886 0.0
H934 H 0.92881 0.48518 0.90127 0.0
H935 H 0.99188 0.51904 0.82453 0.0
C936 C 0.98917 0.47397 0.80616 0.0
C937 C 0.97803 0.44438 0.80913 0.0
C938 C 0.93613 0.50821 0.89661 0.0
C939 C 0.96649 0.48892 0.85292 0.0
C940 C 0.92433 0.53295 0.91303 0.0
C941 C 0.93259 0.56332 0.90681 0.0
C942 C 0.95631 0.51379 0.87366 0.0
C943 C 0.95389 0.56764 0.88465 0.0
C944 C 0.98378 0.4961 0.82801 0.0
C945 C 0.96276 0.43718 0.83536 0.0
N946 N 0.9647 0.54328 0.86875 0.0
N947 N 0.95695 0.45952 0.85608 0.0
H948 H 0.8011 0.66747 0.04153 0.0
H949 H 0.683 0.69636 0.17067 0.0
H950 H 0.80331 0.74746 0.09838 0.0
H951 H 0.67265 0.63318 0.09731 0.0
H952 H 0.72899 0.71321 0.14829 0.0
H953 H 0.75676 0.65173 0.06633 0.0
C954 C 0.79236 0.68178 0.05935 0.0
C955 C 0.80602 0.70903 0.0677 0.0
C956 C 0.71658 0.69566 0.13719 0.0
C957 C 0.75465 0.69089 0.09635 0.0
C958 C 0.69024 0.6861 0.14984 0.0
C959 C 0.67385 0.66311 0.13599 0.0
C960 C 0.72672 0.68199 0.11064 0.0
C961 C 0.68467 0.65044 0.10923 0.0
C962 C 0.76685 0.67274 0.07348 0.0
C963 C 0.79351 0.72633 0.09114 0.0
N964 N 0.71035 0.65997 0.09756 0.0
N965 N 0.76844 0.71699 0.10466 0.0
H966 H 0.5531 0.43531 0.40487 0.0
H967 H 0.60583 0.5796 0.3079 0.0
H968 H 0.643 0.46391 0.39956 0.0
H969 H 0.51456 0.55681 0.31599 0.0
H970 H 0.61919 0.53781 0.34279 0.0
H971 H 0.5379 0.47956 0.3731 0.0
C972 C 0.56963 0.45084 0.39704 0.0
C973 C 0.59938 0.44589 0.40508 0.0
C974 C 0.59619 0.54194 0.33713 0.0
C975 C 0.58212 0.49662 0.36883 0.0
C976 C 0.58856 0.56587 0.31721 0.0
C977 C 0.55908 0.57155 0.30893 0.0
C978 C 0.57421 0.52332 0.34884 0.0
C979 C 0.53758 0.55311 0.32176 0.0
C980 C 0.56092 0.47619 0.37905 0.0
C981 C 0.61977 0.46698 0.39445 0.0
N982 N 0.54559 0.52965 0.34095 0.0
N983 N 0.61079 0.49125 0.37689 0.0
H984 H 0.36471 0.32505 0.22017 0.0
H985 H 0.44012 0.16605 0.16779 0.0
H986 H 0.34804 0.28423 0.13404 0.0
H987 H 0.44027 0.19567 0.25991 0.0
H988 H 0.40609 0.20907 0.15504 0.0
H989 H 0.39307 0.27835 0.23517 0.0
C990 C 0.36698 0.30627 0.20445 0.0
C991 C 0.3539 0.30856 0.17584 0.0
C992 C 0.41331 0.206 0.17811 0.0
C993 C 0.38632 0.25507 0.1928 0.0
C994 C 0.43266 0.18138 0.1854 0.0
C995 C 0.44316 0.1774 0.21488 0.0
C996 C 0.40464 0.22704 0.20042 0.0
C997 C 0.43279 0.19796 0.23684 0.0
C998 C 0.383 0.27954 0.21307 0.0
C999 C 0.3574 0.28338 0.15645 0.0
N1000 N 0.41439 0.2221 0.22911 0.0
N1001 N 0.37339 0.25784 0.1652 0.0
H1002 H 0.91152 0.31481 0.75617 0.0
H1003 H 0.91586 0.15871 0.854 0.0
H1004 H 0.98461 0.28317 0.812 0.0
H1005 H 0.83475 0.19864 0.81807 0.0
H1006 H 0.94239 0.20134 0.8325 0.0
H1007 H 0.88393 0.2699 0.77286 0.0
C1008 C 0.92179 0.29849 0.77183 0.0
C1009 C 0.9504 0.30298 0.78282 0.0
C1010 C 0.91879 0.20082 0.82922 0.0
C1011 C 0.91915 0.25153 0.80168 0.0
C1012 C 0.90356 0.17647 0.84162 0.0
C1013 C 0.87288 0.17519 0.8383 0.0
C1014 C 0.90341 0.22428 0.81315 0.0
C1015 C 0.85838 0.19856 0.82118 0.0
C1016 C 0.90602 0.2729 0.78136 0.0
C1017 C 0.96258 0.28097 0.80304 0.0
N1018 N 0.87374 0.22225 0.80939 0.0
N1019 N 0.94697 0.25634 0.8117 0.0
H1020 H 0.05735 0.61399 0.14014 0.0
H1021 H 0.94972 0.67473 1.00768 0.0
H1022 H 0.0813 0.6151 0.04668 0.0
H1023 H 0.93578 0.69371 0.10122 0.0
H1024 H 0.99219 0.641 0.02152 0.0
H1025 H 1.00755 0.632 0.12603 0.0
C1026 C 0.05204 0.61763 0.11662 0.0
C1027 C 0.07366 0.61339 0.0946 0.0
C1028 C 0.97938 0.6519 0.03907 0.0
C1029 C 0.01665 0.63406 0.07827 0.0
C1030 C 0.95495 0.67077 0.03119 0.0
C1031 C 0.93917 0.68653 0.05344 0.0
C1032 C 0.98799 0.64902 0.0694 0.0
C1033 C 0.94726 0.6815 0.08352 0.0
C1034 C 0.02363 0.62802 0.10858 0.0
C1035 C 0.0655 0.61864 0.06445 0.0
N1036 N 0.97126 0.66338 0.09063 0.0
N1037 N 0.03773 0.62885 0.0572 0.0
H1038 H 0.64063 0.8095 0.39722 0.0
H1039 H 0.59709 0.7161 0.24969 0.0
H1040 H 0.66371 0.83917 0.30803 0.0
H1041 H 0.56737 0.69537 0.33916 0.0
H1042 H 0.6261 0.75799 0.27029 0.0
H1043 H 0.61806 0.7644 0.37599 0.0
C1044 C 0.6409 0.80657 0.37312 0.0
C1045 C 0.65379 0.82844 0.35439 0.0
C1046 C 0.61333 0.7441 0.28535 0.0
C1047 C 0.62805 0.7764 0.32977 0.0
C1048 C 0.59686 0.72014 0.27363 0.0
C1049 C 0.57955 0.70234 0.29267 0.0
C1050 C 0.61258 0.75009 0.31631 0.0
C1051 C 0.58009 0.70863 0.32352 0.0
C1052 C 0.62811 0.78068 0.36098 0.0
C1053 C 0.6541 0.8229 0.32335 0.0
N1054 N 0.59619 0.73195 0.33428 0.0
N1055 N 0.64123 0.79754 0.31197 0.0
H1056 H 0.59048 0.35188 0.5745 0.0
H1057 H 0.41787 0.38415 0.55263 0.0
H1058 H 0.5328 0.29828 0.51999 0.0
H1059 H 0.46946 0.42765 0.62093 0.0
H1060 H 0.46303 0.3629 0.53077 0.0
H1061 H 0.54979 0.38982 0.58197 0.0
C1062 C 0.56951 0.34866 0.56343 0.0
C1063 C 0.56459 0.32193 0.54702 0.0
C1064 C 0.46459 0.37739 0.55033 0.0
C1065 C 0.51842 0.36461 0.55538 0.0
C1066 C 0.43881 0.38942 0.56284 0.0
C1067 C 0.43998 0.40708 0.58895 0.0
C1068 C 0.49179 0.38269 0.56425 0.0
C1069 C 0.46767 0.41389 0.6009 0.0
C1070 C 0.54632 0.3701 0.56782 0.0
C1071 C 0.53718 0.31849 0.53319 0.0
N1072 N 0.49255 0.4012 0.58876 0.0
N1073 N 0.51504 0.33941 0.53792 0.0
H1074 H 0.1689 0.68994 0.71605 0.0
H1075 H 0.0562 0.81989 0.65398 0.0
H1076 H 0.14625 0.70476 0.62273 0.0
H1077 H 0.08317 0.81557 0.74691 0.0
H1078 H 0.09346 0.78067 0.64226 0.0
H1079 H 0.14162 0.73797 0.72832 0.0
C1080 C 0.15838 0.70339 0.69817 0.0
C1081 C 0.15927 0.69304 0.66841 0.0
C1082 C 0.09164 0.78839 0.66522 0.0
C1083 C 0.12836 0.74777 0.68217 0.0
C1084 C 0.07038 0.81088 0.67187 0.0
C1085 C 0.06658 0.82067 0.70141 0.0
C1086 C 0.10892 0.77499 0.68843 0.0
C1087 C 0.08554 0.80847 0.7238 0.0
C1088 C 0.14286 0.73075 0.70517 0.0
C1089 C 0.14544 0.71138 0.64608 0.0
N1090 N 0.10568 0.78575 0.71694 0.0
N1091 N 0.13047 0.73763 0.65345 0.0
H1092 H 0.46683 0.84029 0.01461 0.0
H1093 H 0.57178 0.88227 0.87705 0.0
H1094 H 0.45397 0.81299 0.92268 0.0
H1095 H 0.59003 0.91131 0.9675 0.0
H1096 H 0.52696 0.85927 0.89429 0.0
H1097 H 0.51006 0.8692 0.99882 0.0
C1098 C 0.47283 0.84065 0.99115 0.0
C1099 C 0.45685 0.82392 0.97001 0.0
C1100 C 0.54059 0.87074 0.9105 0.0
C1101 C 0.50617 0.85667 0.95188 0.0
C1102 C 0.56624 0.88415 0.90056 0.0
C1103 C 0.58477 0.8991 0.92072 0.0
C1104 C 0.53311 0.87195 0.941 0.0
C1105 C 0.57657 0.89988 0.95113 0.0
C1106 C 0.49758 0.85699 0.98218 0.0
C1107 C 0.46571 0.82515 0.93992 0.0
N1108 N 0.55135 0.8865 0.96036 0.0
N1109 N 0.48966 0.84102 0.93188 0.0
H1110 H 0.91947 0.16336 0.4058 0.0
H1111 H 0.07181 0.15114 0.49675 0.0
H1112 H 0.95213 0.0772 0.44426 0.0
H1113 H 0.04862 0.22347 0.43293 0.0
H1114 H 0.02656 0.12492 0.48274 0.0
H1115 H 0.96467 0.18743 0.42142 0.0
C1116 C 0.93615 0.14939 0.41745 0.0
C1117 C 0.93197 0.11797 0.42325 0.0
C1118 C 0.03158 0.14646 0.47178 0.0
C1119 C 0.984 0.14579 0.44176 0.0
C1120 C 0.05741 0.16143 0.47971 0.0
C1121 C 0.06419 0.18962 0.46601 0.0
C1122 C 1.01222 0.16001 0.45035 0.0
C1123 C 0.04455 0.20182 0.44413 0.0
C1124 C 0.962 0.16324 0.42647 0.0
C1125 C 0.95421 0.10148 0.43936 0.0
N1126 N 0.01951 0.1871 0.43719 0.0
N1127 N 0.9793 0.11555 0.44797 0.0
loop_
_geom_bond_atom_site_label_1
_geom_bond_atom_site_label_2
_geom_bond_distance
_geom_bond_site_symmetry_2
_ccdc_geom_bond_type
Gd0 C3 2.818 . S
Gd0 O20 2.377 . S
Gd0 O22 2.448 . S
Gd0 O23 2.506 . S
Gd0 O24 2.435 . S
Gd0 O25 2.717 . S
Gd0 O27 2.395 . S
Gd0 O31 2.327 . S
Gd1 C12 2.818 . S
Gd1 O21 2.395 . S
Gd1 O25 2.327 . S
Gd1 O26 2.377 . S
Gd1 O28 2.448 . S
Gd1 O29 2.506 . S
Gd1 O30 2.435 . S
Gd1 O31 2.717 . S
C2 O20 1.240 . S
C2 O21 1.240 . S
C3 Gd0 2.818 . S
C3 C4 1.510 . S
C3 O22 1.249 . S
C3 O23 1.252 . S
C4 C3 1.510 . S
C4 C5 1.404 . S
C4 C6 1.352 . S
C5 C4 1.404 . S
C5 C9 1.389 . S
C5 H32 0.930 . S
C6 C4 1.352 . S
C6 C8 1.374 . S
C6 H33 0.931 . S
C7 C8 1.359 . S
C7 C9 1.364 . S
C8 C6 1.374 . S
C8 C7 1.359 . S
C8 H34 0.931 . S
C9 C5 1.389 . S
C9 C7 1.364 . S
C9 H35 0.931 . S
C10 O24 1.256 . S
C10 O25 1.257 . S
C11 O26 1.240 . S
C11 O27 1.240 . S
C12 Gd1 2.818 . S
C12 C13 1.510 . S
C12 O28 1.249 . S
C12 O29 1.252 . S
C13 C12 1.510 . S
C13 C14 1.404 . S
C13 C15 1.352 . S
C14 C13 1.404 . S
C14 C18 1.389 . S
C14 H36 0.930 . S
C15 C13 1.352 . S
C15 C17 1.374 . S
C15 H37 0.931 . S
C16 C17 1.359 . S
C16 C18 1.364 . S
C17 C15 1.374 . S
C17 C16 1.359 . S
C17 H38 0.931 . S
C18 C14 1.389 . S
C18 C16 1.364 . S
C18 H39 0.931 . S
C19 O30 1.256 . S
C19 O31 1.257 . S
O20 Gd0 2.377 . S
O20 C2 1.240 . S
O21 Gd1 2.395 . S
O21 C2 1.240 . S
O22 Gd0 2.448 . S
O22 C3 1.249 . S
O23 Gd0 2.506 . S
O23 C3 1.252 . S
O24 Gd0 2.435 . S
O24 C10 1.256 . S
O25 Gd0 2.717 . S
O25 Gd1 2.327 . S
O25 C10 1.257 . S
O26 Gd1 2.377 . S
O26 C11 1.240 . S
O27 Gd0 2.395 . S
O27 C11 1.240 . S
O28 Gd1 2.448 . S
O28 C12 1.249 . S
O29 Gd1 2.506 . S
O29 C12 1.252 . S
O30 Gd1 2.435 . S
O30 C19 1.256 . S
O31 Gd0 2.327 . S
O31 Gd1 2.717 . S
O31 C19 1.257 . S
H32 C5 0.930 . S
H33 C6 0.931 . S
H34 C8 0.931 . S
H35 C9 0.931 . S
H36 C14 0.930 . S
H37 C15 0.931 . S
H38 C17 0.931 . S
H39 C18 0.931 . S
Gd40 C43 2.818 . S
Gd40 O60 2.377 1_655 S
Gd40 O62 2.448 . S
Gd40 O63 2.506 . S
Gd40 O64 2.435 1_655 S
Gd40 O65 2.717 1_655 S
Gd40 O67 2.395 . S
Gd40 O71 2.327 . S
Gd41 C52 2.818 . S
Gd41 O61 2.395 . S
Gd41 O65 2.327 . S
Gd41 O66 2.377 . S
Gd41 O68 2.448 . S
Gd41 O69 2.506 . S
Gd41 O70 2.435 1_455 S
Gd41 O71 2.717 1_455 S
C42 O60 1.240 . S
C42 O61 1.240 . S
C43 Gd40 2.818 . S
C43 C44 1.510 . S
C43 O62 1.249 . S
C43 O63 1.252 . S
C44 C43 1.510 . S
C44 C45 1.404 . S
C44 C46 1.352 . S
C45 C44 1.404 . S
C45 C49 1.389 . S
C45 H72 0.930 . S
C46 C44 1.352 . S
C46 C48 1.374 . S
C46 H73 0.931 . S
C47 C48 1.359 . S
C47 C49 1.364 . S
C48 C46 1.374 . S
C48 C47 1.359 . S
C48 H74 0.931 . S
C49 C45 1.389 . S
C49 C47 1.364 . S
C49 H75 0.931 . S
C50 O64 1.256 . S
C50 O65 1.257 . S
C51 O66 1.240 1_655 S
C51 O67 1.240 . S
C52 Gd41 2.818 . S
C52 C53 1.510 . S
C52 O68 1.249 . S
C52 O69 1.252 . S
C53 C52 1.510 . S
C53 C54 1.404 . S
C53 C55 1.352 . S
C54 C53 1.404 . S
C54 C58 1.389 . S
C54 H76 0.930 . S
C55 C53 1.352 . S
C55 C57 1.374 . S
C55 H77 0.931 . S
C56 C57 1.359 . S
C56 C58 1.364 . S
C57 C55 1.374 . S
C57 C56 1.359 . S
C57 H78 0.931 . S
C58 C54 1.389 . S
C58 C56 1.364 . S
C58 H79 0.931 . S
C59 O70 1.256 . S
C59 O71 1.257 . S
O60 Gd40 2.377 1_455 S
O60 C42 1.240 . S
O61 Gd41 2.395 . S
O61 C42 1.240 . S
O62 Gd40 2.448 . S
O62 C43 1.249 . S
O63 Gd40 2.506 . S
O63 C43 1.252 . S
O64 Gd40 2.435 1_455 S
O64 C50 1.256 . S
O65 Gd40 2.717 1_455 S
O65 Gd41 2.327 . S
O65 C50 1.257 . S
O66 Gd41 2.377 . S
O66 C51 1.240 1_455 S
O67 Gd40 2.395 . S
O67 C51 1.240 . S
O68 Gd41 2.448 . S
O68 C52 1.249 . S
O69 Gd41 2.506 . S
O69 C52 1.252 . S
O70 Gd41 2.435 1_655 S
O70 C59 1.256 . S
O71 Gd40 2.327 . S
O71 Gd41 2.717 1_655 S
O71 C59 1.257 . S
H72 C45 0.930 . S
H73 C46 0.931 . S
H74 C48 0.931 . S
H75 C49 0.931 . S
H76 C54 0.930 . S
H77 C55 0.931 . S
H78 C57 0.931 . S
H79 C58 0.931 . S
Gd80 C83 2.818 . S
Gd80 O100 2.377 1_554 S
Gd80 O102 2.448 . S
Gd80 O103 2.506 . S
Gd80 O104 2.435 1_554 S
Gd80 O105 2.717 1_554 S
Gd80 O107 2.395 . S
Gd80 O111 2.327 . S
Gd81 C92 2.818 . S
Gd81 O101 2.395 . S
Gd81 O105 2.327 . S
Gd81 O106 2.377 . S
Gd81 O108 2.448 . S
Gd81 O109 2.506 . S
Gd81 O110 2.435 . S
Gd81 O111 2.717 1_556 S
C82 O100 1.240 . S
C82 O101 1.240 . S
C83 Gd80 2.818 . S
C83 C84 1.510 . S
C83 O102 1.249 . S
C83 O103 1.252 . S
C84 C83 1.510 . S
C84 C85 1.404 . S
C84 C86 1.352 . S
C85 C84 1.404 . S
C85 C89 1.389 . S
C85 H112 0.930 . S
C86 C84 1.352 . S
C86 C88 1.374 . S
C86 H113 0.931 . S
C87 C88 1.359 . S
C87 C89 1.364 . S
C88 C86 1.374 . S
C88 C87 1.359 . S
C88 H114 0.931 . S
C89 C85 1.389 . S
C89 C87 1.364 . S
C89 H115 0.931 . S
C90 O104 1.256 . S
C90 O105 1.257 . S
C91 O106 1.240 1_554 S
C91 O107 1.240 . S
C92 Gd81 2.818 . S
C92 C93 1.510 . S
C92 O108 1.249 . S
C92 O109 1.252 . S
C93 C92 1.510 . S
C93 C94 1.404 . S
C93 C95 1.352 . S
C94 C93 1.404 . S
C94 C98 1.389 . S
C94 H116 0.930 . S
C95 C93 1.352 . S
C95 C97 1.374 . S
C95 H117 0.931 . S
C96 C97 1.359 . S
C96 C98 1.364 . S
C97 C95 1.374 . S
C97 C96 1.359 . S
C97 H118 0.931 . S
C98 C94 1.389 . S
C98 C96 1.364 . S
C98 H119 0.931 . S
C99 O110 1.256 1_554 S
C99 O111 1.257 . S
O100 Gd80 2.377 1_556 S
O100 C82 1.240 . S
O101 Gd81 2.395 . S
O101 C82 1.240 . S
O102 Gd80 2.448 . S
O102 C83 1.249 . S
O103 Gd80 2.506 . S
O103 C83 1.252 . S
O104 Gd80 2.435 1_556 S
O104 C90 1.256 . S
O105 Gd80 2.717 1_556 S
O105 Gd81 2.327 . S
O105 C90 1.257 . S
O106 Gd81 2.377 . S
O106 C91 1.240 1_556 S
O107 Gd80 2.395 . S
O107 C91 1.240 . S
O108 Gd81 2.448 . S
O108 C92 1.249 . S
O109 Gd81 2.506 . S
O109 C92 1.252 . S
O110 Gd81 2.435 . S
O110 C99 1.256 1_556 S
O111 Gd80 2.327 . S
O111 Gd81 2.717 1_554 S
O111 C99 1.257 . S
H112 C85 0.930 . S
H113 C86 0.931 . S
H114 C88 0.931 . S
H115 C89 0.931 . S
H116 C94 0.930 . S
H117 C95 0.931 . S
H118 C97 0.931 . S
H119 C98 0.931 . S
Gd120 C123 2.818 . S
Gd120 O140 2.377 . S
Gd120 O142 2.448 . S
Gd120 O143 2.506 . S
Gd120 O144 2.435 . S
Gd120 O145 2.717 . S
Gd120 O147 2.395 . S
Gd120 O151 2.327 . S
Gd121 C132 2.818 . S
Gd121 O141 2.395 . S
Gd121 O145 2.327 . S
Gd121 O146 2.377 . S
Gd121 O148 2.448 . S
Gd121 O149 2.506 . S
Gd121 O150 2.435 . S
Gd121 O151 2.717 . S
C122 O140 1.240 . S
C122 O141 1.240 . S
C123 Gd120 2.818 . S
C123 C124 1.510 . S
C123 O142 1.249 . S
C123 O143 1.252 . S
C124 C123 1.510 . S
C124 C125 1.404 . S
C124 C126 1.352 . S
C125 C124 1.404 . S
C125 C129 1.389 . S
C125 H152 0.930 . S
C126 C124 1.352 . S
C126 C128 1.374 . S
C126 H153 0.931 . S
C127 C128 1.359 . S
C127 C129 1.364 . S
C128 C126 1.374 . S
C128 C127 1.359 . S
C128 H154 0.931 . S
C129 C125 1.389 . S
C129 C127 1.364 . S
C129 H155 0.931 . S
C130 O144 1.256 . S
C130 O145 1.257 . S
C131 O146 1.240 . S
C131 O147 1.240 . S
C132 Gd121 2.818 . S
C132 C133 1.510 . S
C132 O148 1.249 . S
C132 O149 1.252 . S
C133 C132 1.510 . S
C133 C134 1.404 . S
C133 C135 1.352 . S
C134 C133 1.404 . S
C134 C138 1.389 . S
C134 H156 0.930 . S
C135 C133 1.352 . S
C135 C137 1.374 . S
C135 H157 0.931 . S
C136 C137 1.359 . S
C136 C138 1.364 . S
C137 C135 1.374 . S
C137 C136 1.359 . S
C137 H158 0.931 . S
C138 C134 1.389 . S
C138 C136 1.364 . S
C138 H159 0.931 . S
C139 O150 1.256 . S
C139 O151 1.257 . S
O140 Gd120 2.377 . S
O140 C122 1.240 . S
O141 Gd121 2.395 . S
O141 C122 1.240 . S
O142 Gd120 2.448 . S
O142 C123 1.249 . S
O143 Gd120 2.506 . S
O143 C123 1.252 . S
O144 Gd120 2.435 . S
O144 C130 1.256 . S
O145 Gd120 2.717 . S
O145 Gd121 2.327 . S
O145 C130 1.257 . S
O146 Gd121 2.377 . S
O146 C131 1.240 . S
O147 Gd120 2.395 . S
O147 C131 1.240 . S
O148 Gd121 2.448 . S
O148 C132 1.249 . S
O149 Gd121 2.506 . S
O149 C132 1.252 . S
O150 Gd121 2.435 . S
O150 C139 1.256 . S
O151 Gd120 2.327 . S
O151 Gd121 2.717 . S
O151 C139 1.257 . S
H152 C125 0.930 . S
H153 C126 0.931 . S
H154 C128 0.931 . S
H155 C129 0.931 . S
H156 C134 0.930 . S
H157 C135 0.931 . S
H158 C137 0.931 . S
H159 C138 0.931 . S
Gd160 C163 2.818 . S
Gd160 O180 2.377 . S
Gd160 O182 2.448 . S
Gd160 O183 2.506 . S
Gd160 O184 2.435 . S
Gd160 O185 2.717 . S
Gd160 O187 2.395 . S
Gd160 O191 2.327 . S
Gd161 C172 2.818 . S
Gd161 O181 2.395 . S
Gd161 O185 2.327 . S
Gd161 O186 2.377 . S
Gd161 O188 2.448 . S
Gd161 O189 2.506 . S
Gd161 O190 2.435 . S
Gd161 O191 2.717 . S
C162 O180 1.240 . S
C162 O181 1.240 . S
C163 Gd160 2.818 . S
C163 C164 1.510 . S
C163 O182 1.249 . S
C163 O183 1.252 . S
C164 C163 1.510 . S
C164 C165 1.404 . S
C164 C166 1.352 . S
C165 C164 1.404 . S
C165 C169 1.389 . S
C165 H192 0.930 . S
C166 C164 1.352 . S
C166 C168 1.374 . S
C166 H193 0.931 . S
C167 C168 1.359 . S
C167 C169 1.364 . S
C168 C166 1.374 . S
C168 C167 1.359 . S
C168 H194 0.931 . S
C169 C165 1.389 . S
C169 C167 1.364 . S
C169 H195 0.931 . S
C170 O184 1.256 . S
C170 O185 1.257 . S
C171 O186 1.240 . S
C171 O187 1.240 . S
C172 Gd161 2.818 . S
C172 C173 1.510 . S
C172 O188 1.249 . S
C172 O189 1.252 . S
C173 C172 1.510 . S
C173 C174 1.404 . S
C173 C175 1.352 . S
C174 C173 1.404 . S
C174 C178 1.389 . S
C174 H196 0.930 . S
C175 C173 1.352 . S
C175 C177 1.374 . S
C175 H197 0.931 . S
C176 C177 1.359 . S
C176 C178 1.364 . S
C177 C175 1.374 . S
C177 C176 1.359 . S
C177 H198 0.931 . S
C178 C174 1.389 . S
C178 C176 1.364 . S
C178 H199 0.931 . S
C179 O190 1.256 . S
C179 O191 1.257 . S
O180 Gd160 2.377 . S
O180 C162 1.240 . S
O181 Gd161 2.395 . S
O181 C162 1.240 . S
O182 Gd160 2.448 . S
O182 C163 1.249 . S
O183 Gd160 2.506 . S
O183 C163 1.252 . S
O184 Gd160 2.435 . S
O184 C170 1.256 . S
O185 Gd160 2.717 . S
O185 Gd161 2.327 . S
O185 C170 1.257 . S
O186 Gd161 2.377 . S
O186 C171 1.240 . S
O187 Gd160 2.395 . S
O187 C171 1.240 . S
O188 Gd161 2.448 . S
O188 C172 1.249 . S
O189 Gd161 2.506 . S
O189 C172 1.252 . S
O190 Gd161 2.435 . S
O190 C179 1.256 . S
O191 Gd160 2.327 . S
O191 Gd161 2.717 . S
O191 C179 1.257 . S
H192 C165 0.930 . S
H193 C166 0.931 . S
H194 C168 0.931 . S
H195 C169 0.931 . S
H196 C174 0.930 . S
H197 C175 0.931 . S
H198 C177 0.931 . S
H199 C178 0.931 . S
Gd200 C203 2.818 . S
Gd200 O220 2.377 . S
Gd200 O222 2.448 . S
Gd200 O223 2.506 . S
Gd200 O224 2.435 . S
Gd200 O225 2.717 . S
Gd200 O227 2.395 1_655 S
Gd200 O231 2.327 . S
Gd201 C212 2.818 . S
Gd201 O221 2.395 1_455 S
Gd201 O225 2.327 1_455 S
Gd201 O226 2.377 . S
Gd201 O228 2.448 . S
Gd201 O229 2.506 . S
Gd201 O230 2.435 . S
Gd201 O231 2.717 1_455 S
C202 O220 1.240 . S
C202 O221 1.240 . S
C203 Gd200 2.818 . S
C203 C204 1.510 . S
C203 O222 1.249 . S
C203 O223 1.252 . S
C204 C203 1.510 . S
C204 C205 1.404 . S
C204 C206 1.352 . S
C205 C204 1.404 . S
C205 C209 1.389 . S
C205 H232 0.930 . S
C206 C204 1.352 . S
C206 C208 1.374 . S
C206 H233 0.931 . S
C207 C208 1.359 . S
C207 C209 1.364 . S
C208 C206 1.374 . S
C208 C207 1.359 . S
C208 H234 0.931 . S
C209 C205 1.389 . S
C209 C207 1.364 . S
C209 H235 0.931 . S
C210 O224 1.256 . S
C210 O225 1.257 . S
C211 O226 1.240 . S
C211 O227 1.240 . S
C212 Gd201 2.818 . S
C212 C213 1.510 . S
C212 O228 1.249 . S
C212 O229 1.252 . S
C213 C212 1.510 . S
C213 C214 1.404 . S
C213 C215 1.352 . S
C214 C213 1.404 . S
C214 C218 1.389 . S
C214 H236 0.930 . S
C215 C213 1.352 . S
C215 C217 1.374 . S
C215 H237 0.931 . S
C216 C217 1.359 . S
C216 C218 1.364 . S
C217 C215 1.374 . S
C217 C216 1.359 . S
C217 H238 0.931 . S
C218 C214 1.389 . S
C218 C216 1.364 . S
C218 H239 0.931 . S
C219 O230 1.256 . S
C219 O231 1.257 1_455 S
O220 Gd200 2.377 . S
O220 C202 1.240 . S
O221 Gd201 2.395 1_655 S
O221 C202 1.240 . S
O222 Gd200 2.448 . S
O222 C203 1.249 . S
O223 Gd200 2.506 . S
O223 C203 1.252 . S
O224 Gd200 2.435 . S
O224 C210 1.256 . S
O225 Gd200 2.717 . S
O225 Gd201 2.327 1_655 S
O225 C210 1.257 . S
O226 Gd201 2.377 . S
O226 C211 1.240 . S
O227 Gd200 2.395 1_455 S
O227 C211 1.240 . S
O228 Gd201 2.448 . S
O228 C212 1.249 . S
O229 Gd201 2.506 . S
O229 C212 1.252 . S
O230 Gd201 2.435 . S
O230 C219 1.256 . S
O231 Gd200 2.327 . S
O231 Gd201 2.717 1_655 S
O231 C219 1.257 1_655 S
H232 C205 0.930 . S
H233 C206 0.931 . S
H234 C208 0.931 . S
H235 C209 0.931 . S
H236 C214 0.930 . S
H237 C215 0.931 . S
H238 C217 0.931 . S
H239 C218 0.931 . S
Gd240 C243 2.818 . S
Gd240 O260 2.377 . S
Gd240 O262 2.448 . S
Gd240 O263 2.506 . S
Gd240 O264 2.435 . S
Gd240 O265 2.717 . S
Gd240 O267 2.395 1_554 S
Gd240 O271 2.313 1_554 S
Gd241 C252 2.818 . S
Gd241 O261 2.395 1_556 S
Gd241 O265 2.327 1_556 S
Gd241 O266 2.377 . S
Gd241 O268 2.448 . S
Gd241 O269 2.506 . S
Gd241 O270 2.435 . S
Gd241 O271 2.725 . S
C242 O260 1.240 . S
C242 O261 1.240 . S
C243 Gd240 2.818 . S
C243 C244 1.510 . S
C243 O262 1.249 . S
C243 O263 1.252 . S
C244 C243 1.510 . S
C244 C245 1.404 . S
C244 C246 1.352 . S
C245 C244 1.404 . S
C245 C249 1.389 . S
C245 H272 0.930 . S
C246 C244 1.352 . S
C246 C248 1.374 . S
C246 H273 0.931 . S
C247 C248 1.359 . S
C247 C249 1.364 . S
C248 C246 1.374 . S
C248 C247 1.359 . S
C248 H274 0.931 . S
C249 C245 1.389 . S
C249 C247 1.364 . S
C249 H275 0.931 . S
C250 O264 1.256 . S
C250 O265 1.257 . S
C251 O266 1.240 . S
C251 O267 1.240 . S
C252 Gd241 2.818 . S
C252 C253 1.510 . S
C252 O268 1.249 . S
C252 O269 1.252 . S
C253 C252 1.510 . S
C253 C254 1.404 . S
C253 C255 1.352 . S
C254 C253 1.404 . S
C254 C258 1.389 . S
C254 H276 0.930 . S
C255 C253 1.352 . S
C255 C257 1.374 . S
C255 H277 0.931 . S
C256 C257 1.359 . S
C256 C258 1.364 . S
C257 C255 1.374 . S
C257 C256 1.359 . S
C257 H278 0.931 . S
C258 C254 1.389 . S
C258 C256 1.364 . S
C258 H279 0.931 . S
C259 O270 1.256 . S
C259 O271 1.273 . S
O260 Gd240 2.377 . S
O260 C242 1.240 . S
O261 Gd241 2.395 1_554 S
O261 C242 1.240 . S
O262 Gd240 2.448 . S
O262 C243 1.249 . S
O263 Gd240 2.506 . S
O263 C243 1.252 . S
O264 Gd240 2.435 . S
O264 C250 1.256 . S
O265 Gd240 2.717 . S
O265 Gd241 2.327 1_554 S
O265 C250 1.257 . S
O266 Gd241 2.377 . S
O266 C251 1.240 . S
O267 Gd240 2.395 1_556 S
O267 C251 1.240 . S
O268 Gd241 2.448 . S
O268 C252 1.249 . S
O269 Gd241 2.506 . S
O269 C252 1.252 . S
O270 Gd241 2.435 . S
O270 C259 1.256 . S
O271 Gd240 2.313 1_556 S
O271 Gd241 2.725 . S
O271 C259 1.273 . S
H272 C245 0.930 . S
H273 C246 0.931 . S
H274 C248 0.931 . S
H275 C249 0.931 . S
H276 C254 0.930 . S
H277 C255 0.931 . S
H278 C257 0.931 . S
H279 C258 0.931 . S
Gd280 C283 2.818 . S
Gd280 O300 2.377 . S
Gd280 O302 2.448 . S
Gd280 O303 2.506 . S
Gd280 O304 2.435 . S
Gd280 O305 2.717 . S
Gd280 O307 2.395 . S
Gd280 O311 2.327 . S
Gd281 C292 2.818 . S
Gd281 O301 2.395 . S
Gd281 O305 2.327 . S
Gd281 O306 2.377 . S
Gd281 O308 2.448 . S
Gd281 O309 2.506 . S
Gd281 O310 2.435 . S
Gd281 O311 2.717 . S
C282 O300 1.240 . S
C282 O301 1.240 . S
C283 Gd280 2.818 . S
C283 C284 1.510 . S
C283 O302 1.249 . S
C283 O303 1.252 . S
C284 C283 1.510 . S
C284 C285 1.404 . S
C284 C286 1.352 . S
C285 C284 1.404 . S
C285 C289 1.389 . S
C285 H312 0.930 . S
C286 C284 1.352 . S
C286 C288 1.374 . S
C286 H313 0.931 . S
C287 C288 1.359 . S
C287 C289 1.364 . S
C288 C286 1.374 . S
C288 C287 1.359 . S
C288 H314 0.931 . S
C289 C285 1.389 . S
C289 C287 1.364 . S
C289 H315 0.931 . S
C290 O304 1.256 . S
C290 O305 1.257 . S
C291 O306 1.240 . S
C291 O307 1.240 . S
C292 Gd281 2.818 . S
C292 C293 1.510 . S
C292 O308 1.249 . S
C292 O309 1.252 . S
C293 C292 1.510 . S
C293 C294 1.404 . S
C293 C295 1.352 . S
C294 C293 1.404 . S
C294 C298 1.389 . S
C294 H316 0.930 . S
C295 C293 1.352 . S
C295 C297 1.374 . S
C295 H317 0.931 . S
C296 C297 1.359 . S
C296 C298 1.364 . S
C297 C295 1.374 . S
C297 C296 1.359 . S
C297 H318 0.931 . S
C298 C294 1.389 . S
C298 C296 1.364 . S
C298 H319 0.931 . S
C299 O310 1.256 . S
C299 O311 1.257 . S
O300 Gd280 2.377 . S
O300 C282 1.240 . S
O301 Gd281 2.395 . S
O301 C282 1.240 . S
O302 Gd280 2.448 . S
O302 C283 1.249 . S
O303 Gd280 2.506 . S
O303 C283 1.252 . S
O304 Gd280 2.435 . S
O304 C290 1.256 . S
O305 Gd280 2.717 . S
O305 Gd281 2.327 . S
O305 C290 1.257 . S
O306 Gd281 2.377 . S
O306 C291 1.240 . S
O307 Gd280 2.395 . S
O307 C291 1.240 . S
O308 Gd281 2.448 . S
O308 C292 1.249 . S
O309 Gd281 2.506 . S
O309 C292 1.252 . S
O310 Gd281 2.435 . S
O310 C299 1.256 . S
O311 Gd280 2.327 . S
O311 Gd281 2.717 . S
O311 C299 1.257 . S
H312 C285 0.930 . S
H313 C286 0.931 . S
H314 C288 0.931 . S
H315 C289 0.931 . S
H316 C294 0.930 . S
H317 C295 0.931 . S
H318 C297 0.931 . S
H319 C298 0.931 . S
Gd320 C323 2.818 . S
Gd320 O340 2.377 . S
Gd320 O342 2.448 . S
Gd320 O343 2.506 . S
Gd320 O344 2.435 . S
Gd320 O345 2.717 . S
Gd320 O347 2.395 . S
Gd320 O351 2.327 . S
Gd321 C332 2.818 . S
Gd321 O341 2.395 . S
Gd321 O345 2.327 . S
Gd321 O346 2.377 . S
Gd321 O348 2.448 . S
Gd321 O349 2.506 . S
Gd321 O350 2.435 . S
Gd321 O351 2.717 . S
C322 O340 1.240 . S
C322 O341 1.240 . S
C323 Gd320 2.818 . S
C323 C324 1.510 . S
C323 O342 1.249 . S
C323 O343 1.252 . S
C324 C323 1.510 . S
C324 C325 1.404 . S
C324 C326 1.352 . S
C325 C324 1.404 . S
C325 C329 1.389 . S
C325 H352 0.930 . S
C326 C324 1.352 . S
C326 C328 1.374 . S
C326 H353 0.931 . S
C327 C328 1.359 . S
C327 C329 1.364 . S
C328 C326 1.374 . S
C328 C327 1.359 . S
C328 H354 0.931 . S
C329 C325 1.389 . S
C329 C327 1.364 . S
C329 H355 0.931 . S
C330 O344 1.256 . S
C330 O345 1.257 . S
C331 O346 1.240 . S
C331 O347 1.240 . S
C332 Gd321 2.818 . S
C332 C333 1.510 . S
C332 O348 1.249 . S
C332 O349 1.252 . S
C333 C332 1.510 . S
C333 C334 1.404 . S
C333 C335 1.352 . S
C334 C333 1.404 . S
C334 C338 1.389 . S
C334 H356 0.930 . S
C335 C333 1.352 . S
C335 C337 1.374 . S
C335 H357 0.931 . S
C336 C337 1.359 . S
C336 C338 1.364 . S
C337 C335 1.374 . S
C337 C336 1.359 . S
C337 H358 0.931 . S
C338 C334 1.389 . S
C338 C336 1.364 . S
C338 H359 0.931 . S
C339 O350 1.256 . S
C339 O351 1.257 . S
O340 Gd320 2.377 . S
O340 C322 1.240 . S
O341 Gd321 2.395 . S
O341 C322 1.240 . S
O342 Gd320 2.448 . S
O342 C323 1.249 . S
O343 Gd320 2.506 . S
O343 C323 1.252 . S
O344 Gd320 2.435 . S
O344 C330 1.256 . S
O345 Gd320 2.717 . S
O345 Gd321 2.327 . S
O345 C330 1.257 . S
O346 Gd321 2.377 . S
O346 C331 1.240 . S
O347 Gd320 2.395 . S
O347 C331 1.240 . S
O348 Gd321 2.448 . S
O348 C332 1.249 . S
O349 Gd321 2.506 . S
O349 C332 1.252 . S
O350 Gd321 2.435 . S
O350 C339 1.256 . S
O351 Gd320 2.327 . S
O351 Gd321 2.717 . S
O351 C339 1.257 . S
H352 C325 0.930 . S
H353 C326 0.931 . S
H354 C328 0.931 . S
H355 C329 0.931 . S
H356 C334 0.930 . S
H357 C335 0.931 . S
H358 C337 0.931 . S
H359 C338 0.931 . S
Gd360 C363 2.818 . S
Gd360 O380 2.377 1_565 S
Gd360 O382 2.448 . S
Gd360 O383 2.506 . S
Gd360 O384 2.435 1_565 S
Gd360 O385 2.717 1_565 S
Gd360 O387 2.395 . S
Gd360 O391 2.327 . S
Gd361 C372 2.818 . S
Gd361 O381 2.395 . S
Gd361 O385 2.327 . S
Gd361 O386 2.377 . S
Gd361 O388 2.448 . S
Gd361 O389 2.506 . S
Gd361 O390 2.435 . S
Gd361 O391 2.717 1_545 S
C362 O380 1.240 . S
C362 O381 1.240 . S
C363 Gd360 2.818 . S
C363 C364 1.510 . S
C363 O382 1.249 . S
C363 O383 1.252 . S
C364 C363 1.510 . S
C364 C365 1.404 . S
C364 C366 1.352 . S
C365 C364 1.404 . S
C365 C369 1.389 . S
C365 H392 0.930 . S
C366 C364 1.352 . S
C366 C368 1.374 . S
C366 H393 0.931 . S
C367 C368 1.359 . S
C367 C369 1.364 . S
C368 C366 1.374 . S
C368 C367 1.359 . S
C368 H394 0.931 . S
C369 C365 1.389 . S
C369 C367 1.364 . S
C369 H395 0.931 . S
C370 O384 1.256 . S
C370 O385 1.257 . S
C371 O386 1.240 1_565 S
C371 O387 1.240 . S
C372 Gd361 2.818 . S
C372 C373 1.510 . S
C372 O388 1.249 . S
C372 O389 1.252 . S
C373 C372 1.510 . S
C373 C374 1.404 . S
C373 C375 1.352 . S
C374 C373 1.404 . S
C374 C378 1.389 . S
C374 H396 0.930 . S
C375 C373 1.352 . S
C375 C377 1.374 . S
C375 H397 0.931 . S
C376 C377 1.359 . S
C376 C378 1.364 . S
C377 C375 1.374 . S
C377 C376 1.359 . S
C377 H398 0.931 . S
C378 C374 1.389 . S
C378 C376 1.364 . S
C378 H399 0.931 . S
C379 O390 1.256 1_565 S
C379 O391 1.257 . S
O380 Gd360 2.377 1_545 S
O380 C362 1.240 . S
O381 Gd361 2.395 . S
O381 C362 1.240 . S
O382 Gd360 2.448 . S
O382 C363 1.249 . S
O383 Gd360 2.506 . S
O383 C363 1.252 . S
O384 Gd360 2.435 1_545 S
O384 C370 1.256 . S
O385 Gd360 2.717 1_545 S
O385 Gd361 2.327 . S
O385 C370 1.257 . S
O386 Gd361 2.377 . S
O386 C371 1.240 1_545 S
O387 Gd360 2.395 . S
O387 C371 1.240 . S
O388 Gd361 2.448 . S
O388 C372 1.249 . S
O389 Gd361 2.506 . S
O389 C372 1.252 . S
O390 Gd361 2.435 . S
O390 C379 1.256 1_545 S
O391 Gd360 2.327 . S
O391 Gd361 2.717 1_565 S
O391 C379 1.257 . S
H392 C365 0.930 . S
H393 C366 0.931 . S
H394 C368 0.931 . S
H395 C369 0.931 . S
H396 C374 0.930 . S
H397 C375 0.931 . S
H398 C377 0.931 . S
H399 C378 0.931 . S
Gd400 C403 2.818 . S
Gd400 O420 2.377 . S
Gd400 O422 2.448 . S
Gd400 O423 2.506 . S
Gd400 O424 2.435 . S
Gd400 O425 2.717 . S
Gd400 O427 2.395 1_565 S
Gd400 O431 2.327 . S
Gd401 C412 2.818 . S
Gd401 O421 2.395 1_545 S
Gd401 O425 2.327 1_545 S
Gd401 O426 2.377 . S
Gd401 O428 2.448 . S
Gd401 O429 2.506 . S
Gd401 O430 2.435 . S
Gd401 O431 2.717 1_545 S
C402 O420 1.240 . S
C402 O421 1.240 . S
C403 Gd400 2.818 . S
C403 C404 1.510 . S
C403 O422 1.249 . S
C403 O423 1.252 . S
C404 C403 1.510 . S
C404 C405 1.404 . S
C404 C406 1.352 . S
C405 C404 1.404 . S
C405 C409 1.389 . S
C405 H432 0.930 . S
C406 C404 1.352 . S
C406 C408 1.374 . S
C406 H433 0.931 . S
C407 C408 1.359 . S
C407 C409 1.364 . S
C408 C406 1.374 . S
C408 C407 1.359 . S
C408 H434 0.931 . S
C409 C405 1.389 . S
C409 C407 1.364 . S
C409 H435 0.931 . S
C410 O424 1.256 . S
C410 O425 1.257 . S
C411 O426 1.240 . S
C411 O427 1.240 . S
C412 Gd401 2.818 . S
C412 C413 1.510 . S
C412 O428 1.249 . S
C412 O429 1.252 . S
C413 C412 1.510 . S
C413 C414 1.404 . S
C413 C415 1.352 . S
C414 C413 1.404 . S
C414 C418 1.389 . S
C414 H436 0.930 . S
C415 C413 1.352 . S
C415 C417 1.374 . S
C415 H437 0.931 . S
C416 C417 1.359 . S
C416 C418 1.364 . S
C417 C415 1.374 . S
C417 C416 1.359 . S
C417 H438 0.931 . S
C418 C414 1.389 . S
C418 C416 1.364 . S
C418 H439 0.931 . S
C419 O430 1.256 . S
C419 O431 1.257 1_545 S
O420 Gd400 2.377 . S
O420 C402 1.240 . S
O421 Gd401 2.395 1_565 S
O421 C402 1.240 . S
O422 Gd400 2.448 . S
O422 C403 1.249 . S
O423 Gd400 2.506 . S
O423 C403 1.252 . S
O424 Gd400 2.435 . S
O424 C410 1.256 . S
O425 Gd400 2.717 . S
O425 Gd401 2.327 1_565 S
O425 C410 1.257 . S
O426 Gd401 2.377 . S
O426 C411 1.240 . S
O427 Gd400 2.395 1_545 S
O427 C411 1.240 . S
O428 Gd401 2.448 . S
O428 C412 1.249 . S
O429 Gd401 2.506 . S
O429 C412 1.252 . S
O430 Gd401 2.435 . S
O430 C419 1.256 . S
O431 Gd400 2.327 . S
O431 Gd401 2.717 1_565 S
O431 C419 1.257 1_565 S
H432 C405 0.930 . S
H433 C406 0.931 . S
H434 C408 0.931 . S
H435 C409 0.931 . S
H436 C414 0.930 . S
H437 C415 0.931 . S
H438 C417 0.931 . S
H439 C418 0.931 . S
Gd440 C443 2.818 . S
Gd440 O460 2.377 . S
Gd440 O462 2.448 . S
Gd440 O463 2.506 . S
Gd440 O464 2.435 . S
Gd440 O465 2.717 . S
Gd440 O467 2.395 . S
Gd440 O471 2.327 . S
Gd441 C452 2.818 . S
Gd441 O461 2.395 . S
Gd441 O465 2.327 . S
Gd441 O466 2.377 . S
Gd441 O468 2.448 . S
Gd441 O469 2.506 . S
Gd441 O470 2.435 . S
Gd441 O471 2.717 . S
C442 O460 1.240 . S
C442 O461 1.240 . S
C443 Gd440 2.818 . S
C443 C444 1.510 . S
C443 O462 1.249 . S
C443 O463 1.252 . S
C444 C443 1.510 . S
C444 C445 1.404 . S
C444 C446 1.352 . S
C445 C444 1.404 . S
C445 C449 1.389 . S
C445 H472 0.930 . S
C446 C444 1.352 . S
C446 C448 1.374 . S
C446 H473 0.931 . S
C447 C448 1.359 . S
C447 C449 1.364 . S
C448 C446 1.374 . S
C448 C447 1.359 . S
C448 H474 0.931 . S
C449 C445 1.389 . S
C449 C447 1.364 . S
C449 H475 0.931 . S
C450 O464 1.256 . S
C450 O465 1.257 . S
C451 O466 1.240 . S
C451 O467 1.240 . S
C452 Gd441 2.818 . S
C452 C453 1.510 . S
C452 O468 1.249 . S
C452 O469 1.252 . S
C453 C452 1.510 . S
C453 C454 1.404 . S
C453 C455 1.352 . S
C454 C453 1.404 . S
C454 C458 1.389 . S
C454 H476 0.930 . S
C455 C453 1.352 . S
C455 C457 1.374 . S
C455 H477 0.931 . S
C456 C457 1.359 . S
C456 C458 1.364 . S
C457 C455 1.374 . S
C457 C456 1.359 . S
C457 H478 0.931 . S
C458 C454 1.389 . S
C458 C456 1.364 . S
C458 H479 0.931 . S
C459 O470 1.256 . S
C459 O471 1.257 . S
O460 Gd440 2.377 . S
O460 C442 1.240 . S
O461 Gd441 2.395 . S
O461 C442 1.240 . S
O462 Gd440 2.448 . S
O462 C443 1.249 . S
O463 Gd440 2.506 . S
O463 C443 1.252 . S
O464 Gd440 2.435 . S
O464 C450 1.256 . S
O465 Gd440 2.717 . S
O465 Gd441 2.327 . S
O465 C450 1.257 . S
O466 Gd441 2.377 . S
O466 C451 1.240 . S
O467 Gd440 2.395 . S
O467 C451 1.240 . S
O468 Gd441 2.448 . S
O468 C452 1.249 . S
O469 Gd441 2.506 . S
O469 C452 1.252 . S
O470 Gd441 2.435 . S
O470 C459 1.256 . S
O471 Gd440 2.327 . S
O471 Gd441 2.717 . S
O471 C459 1.257 . S
H472 C445 0.930 . S
H473 C446 0.931 . S
H474 C448 0.931 . S
H475 C449 0.931 . S
H476 C454 0.930 . S
H477 C455 0.931 . S
H478 C457 0.931 . S
H479 C458 0.931 . S
H480 C486 0.930 . S
H481 C490 0.930 . S
H482 C495 0.929 . S
H483 C493 0.929 . S
H484 C488 0.929 . S
H485 C494 0.929 . S
C486 H480 0.930 . S
C486 C487 1.367 . S
C486 C494 1.378 . S
C487 C486 1.367 . S
C487 C495 1.433 . S
C488 H484 0.929 . S
C488 C490 1.378 . S
C488 C492 1.350 . S
C489 C492 1.463 . S
C489 C494 1.350 . S
C489 N497 1.427 . S
C490 H481 0.930 . S
C490 C488 1.378 . S
C490 C491 1.367 . S
C491 C490 1.367 . S
C491 C493 1.433 . S
C492 C488 1.350 . S
C492 C489 1.463 . S
C492 N496 1.427 . S
C493 H483 0.929 . S
C493 C491 1.433 . S
C493 N496 1.384 . S
C494 H485 0.929 . S
C494 C486 1.378 . S
C494 C489 1.350 . S
C495 H482 0.929 . S
C495 C487 1.433 . S
C495 N497 1.384 . S
N496 C492 1.427 . S
N496 C493 1.384 . S
N497 C489 1.427 . S
N497 C495 1.384 . S
H498 C504 0.930 . S
H499 C508 0.930 . S
H500 C513 0.929 . S
H501 C511 0.929 . S
H502 C506 0.929 . S
H503 C512 0.929 1_545 S
C504 H498 0.930 . S
C504 C505 1.367 1_545 S
C504 C512 1.378 1_545 S
C505 C504 1.367 1_565 S
C505 C513 1.433 . S
C506 H502 0.929 . S
C506 C508 1.378 . S
C506 C510 1.350 . S
C507 C510 1.463 . S
C507 C512 1.350 . S
C507 N515 1.427 . S
C508 H499 0.930 . S
C508 C506 1.378 . S
C508 C509 1.367 . S
C509 C508 1.367 . S
C509 C511 1.433 . S
C510 C506 1.350 . S
C510 C507 1.463 . S
C510 N514 1.427 . S
C511 H501 0.929 . S
C511 C509 1.433 . S
C511 N514 1.384 . S
C512 H503 0.929 1_565 S
C512 C504 1.378 1_565 S
C512 C507 1.350 . S
C513 H500 0.929 . S
C513 C505 1.433 . S
C513 N515 1.384 . S
N514 C510 1.427 . S
N514 C511 1.384 . S
N515 C507 1.427 . S
N515 C513 1.384 . S
H516 C522 0.930 . S
H517 C526 0.930 . S
H518 C531 0.929 . S
H519 C529 0.929 . S
H520 C524 0.929 . S
H521 C530 0.929 . S
C522 H516 0.930 . S
C522 C523 1.367 1_556 S
C522 C530 1.378 1_556 S
C523 C522 1.367 1_554 S
C523 C531 1.433 . S
C524 H520 0.929 . S
C524 C526 1.378 . S
C524 C528 1.350 . S
C525 C528 1.463 . S
C525 C530 1.350 . S
C525 N533 1.427 . S
C526 H517 0.930 . S
C526 C524 1.378 . S
C526 C527 1.367 . S
C527 C526 1.367 . S
C527 C529 1.433 . S
C528 C524 1.350 . S
C528 C525 1.463 . S
C528 N532 1.427 . S
C529 H519 0.929 . S
C529 C527 1.433 . S
C529 N532 1.384 . S
C530 H521 0.929 . S
C530 C522 1.378 1_554 S
C530 C525 1.350 . S
C531 H518 0.929 . S
C531 C523 1.433 . S
C531 N533 1.384 . S
N532 C528 1.427 . S
N532 C529 1.384 . S
N533 C525 1.427 . S
N533 C531 1.384 . S
H534 C540 0.930 . S
H535 C544 0.930 . S
H536 C549 0.929 . S
H537 C547 0.929 1_565 S
H538 C542 0.929 . S
H539 C548 0.929 . S
C540 H534 0.930 . S
C540 C541 1.367 . S
C540 C548 1.378 . S
C541 C540 1.367 . S
C541 C549 1.433 . S
C542 H538 0.929 . S
C542 C544 1.378 . S
C542 C546 1.350 . S
C543 C546 1.463 . S
C543 C548 1.350 . S
C543 N551 1.427 . S
C544 H535 0.930 . S
C544 C542 1.378 . S
C544 C545 1.367 . S
C545 C544 1.367 . S
C545 C547 1.433 . S
C546 C542 1.350 . S
C546 C543 1.463 . S
C546 N550 1.427 . S
C547 H537 0.929 1_545 S
C547 C545 1.433 . S
C547 N550 1.384 . S
C548 H539 0.929 . S
C548 C540 1.378 . S
C548 C543 1.350 . S
C549 H536 0.929 . S
C549 C541 1.433 . S
C549 N551 1.384 . S
N550 C546 1.427 . S
N550 C547 1.384 . S
N551 C543 1.427 . S
N551 C549 1.384 . S
H552 C558 0.930 . S
H553 C562 0.930 . S
H554 C567 0.929 . S
H555 C565 0.929 . S
H556 C560 0.929 . S
H557 C566 0.929 . S
C558 H552 0.930 . S
C558 C559 1.367 . S
C558 C566 1.378 . S
C559 C558 1.367 . S
C559 C567 1.433 . S
C560 H556 0.929 . S
C560 C562 1.378 . S
C560 C564 1.350 . S
C561 C564 1.463 . S
C561 C566 1.350 . S
C561 N569 1.427 . S
C562 H553 0.930 . S
C562 C560 1.378 . S
C562 C563 1.367 . S
C563 C562 1.367 . S
C563 C565 1.433 . S
C564 C560 1.350 . S
C564 C561 1.463 . S
C564 N568 1.427 . S
C565 H555 0.929 . S
C565 C563 1.433 . S
C565 N568 1.384 . S
C566 H557 0.929 . S
C566 C558 1.378 . S
C566 C561 1.350 . S
C567 H554 0.929 . S
C567 C559 1.433 . S
C567 N569 1.384 . S
N568 C564 1.427 . S
N568 C565 1.384 . S
N569 C561 1.427 . S
N569 C567 1.384 . S
H570 C576 0.930 . S
H571 C580 0.930 . S
H572 C585 0.929 . S
H573 C583 0.929 . S
H574 C578 0.929 . S
H575 C584 0.929 . S
C576 H570 0.930 . S
C576 C577 1.367 . S
C576 C584 1.378 . S
C577 C576 1.367 . S
C577 C585 1.433 . S
C578 H574 0.929 . S
C578 C580 1.378 . S
C578 C582 1.350 . S
C579 C582 1.463 . S
C579 C584 1.350 . S
C579 N587 1.427 . S
C580 H571 0.930 . S
C580 C578 1.378 . S
C580 C581 1.367 . S
C581 C580 1.367 . S
C581 C583 1.433 . S
C582 C578 1.350 . S
C582 C579 1.463 . S
C582 N586 1.427 . S
C583 H573 0.929 . S
C583 C581 1.433 . S
C583 N586 1.384 . S
C584 H575 0.929 . S
C584 C576 1.378 . S
C584 C579 1.350 . S
C585 H572 0.929 . S
C585 C577 1.433 . S
C585 N587 1.384 . S
N586 C582 1.427 . S
N586 C583 1.384 . S
N587 C579 1.427 . S
N587 C585 1.384 . S
H588 C594 0.930 . S
H589 C598 0.930 1_554 S
H590 C603 0.929 . S
H591 C601 0.929 . S
H592 C596 0.929 . S
H593 C602 0.929 . S
C594 H588 0.930 . S
C594 C595 1.367 . S
C594 C602 1.378 . S
C595 C594 1.367 . S
C595 C603 1.433 . S
C596 H592 0.929 . S
C596 C598 1.378 . S
C596 C600 1.350 . S
C597 C600 1.463 . S
C597 C602 1.350 . S
C597 N605 1.427 . S
C598 H589 0.930 1_556 S
C598 C596 1.378 . S
C598 C599 1.367 . S
C599 C598 1.367 . S
C599 C601 1.433 . S
C600 C596 1.350 . S
C600 C597 1.463 . S
C600 N604 1.427 . S
C601 H591 0.929 . S
C601 C599 1.433 . S
C601 N604 1.384 . S
C602 H593 0.929 . S
C602 C594 1.378 . S
C602 C597 1.350 . S
C603 H590 0.929 . S
C603 C595 1.433 . S
C603 N605 1.384 . S
N604 C600 1.427 . S
N604 C601 1.384 . S
N605 C597 1.427 . S
N605 C603 1.384 . S
H606 C612 0.930 . S
H607 C616 0.930 . S
H608 C621 0.929 . S
H609 C619 0.929 . S
H610 C614 0.929 . S
H611 C620 0.929 . S
C612 H606 0.930 . S
C612 C613 1.367 . S
C612 C620 1.378 . S
C613 C612 1.367 . S
C613 C621 1.433 . S
C614 H610 0.929 . S
C614 C616 1.378 . S
C614 C618 1.350 . S
C615 C618 1.463 . S
C615 C620 1.350 . S
C615 N623 1.427 . S
C616 H607 0.930 . S
C616 C614 1.378 . S
C616 C617 1.367 . S
C617 C616 1.367 . S
C617 C619 1.433 . S
C618 C614 1.350 . S
C618 C615 1.463 . S
C618 N622 1.427 . S
C619 H609 0.929 . S
C619 C617 1.433 . S
C619 N622 1.384 . S
C620 H611 0.929 . S
C620 C612 1.378 . S
C620 C615 1.350 . S
C621 H608 0.929 . S
C621 C613 1.433 . S
C621 N623 1.384 . S
N622 C618 1.427 . S
N622 C619 1.384 . S
N623 C615 1.427 . S
N623 C621 1.384 . S
H624 C630 0.930 . S
H625 C634 0.930 . S
H626 C639 0.929 . S
H627 C637 0.929 . S
H628 C632 0.929 . S
H629 C638 0.929 . S
C630 H624 0.930 . S
C630 C631 1.367 . S
C630 C638 1.378 . S
C631 C630 1.367 . S
C631 C639 1.433 . S
C632 H628 0.929 . S
C632 C634 1.378 . S
C632 C636 1.350 . S
C633 C636 1.463 . S
C633 C638 1.350 . S
C633 N641 1.427 . S
C634 H625 0.930 . S
C634 C632 1.378 . S
C634 C635 1.367 . S
C635 C634 1.367 . S
C635 C637 1.433 . S
C636 C632 1.350 . S
C636 C633 1.463 . S
C636 N640 1.427 . S
C637 H627 0.929 . S
C637 C635 1.433 . S
C637 N640 1.384 . S
C638 H629 0.929 . S
C638 C630 1.378 . S
C638 C633 1.350 . S
C639 H626 0.929 . S
C639 C631 1.433 . S
C639 N641 1.384 . S
N640 C636 1.427 . S
N640 C637 1.384 . S
N641 C633 1.427 . S
N641 C639 1.384 . S
H642 C648 0.930 . S
H643 C652 0.930 . S
H644 C657 0.929 . S
H645 C655 0.929 1_655 S
H646 C650 0.929 . S
H647 C656 0.929 . S
C648 H642 0.930 . S
C648 C649 1.367 . S
C648 C656 1.378 . S
C649 C648 1.367 . S
C649 C657 1.433 . S
C650 H646 0.929 . S
C650 C652 1.378 . S
C650 C654 1.350 . S
C651 C654 1.463 . S
C651 C656 1.350 . S
C651 N659 1.427 . S
C652 H643 0.930 . S
C652 C650 1.378 . S
C652 C653 1.367 . S
C653 C652 1.367 . S
C653 C655 1.433 . S
C654 C650 1.350 . S
C654 C651 1.463 . S
C654 N658 1.427 . S
C655 H645 0.929 1_455 S
C655 C653 1.433 . S
C655 N658 1.384 . S
C656 H647 0.929 . S
C656 C648 1.378 . S
C656 C651 1.350 . S
C657 H644 0.929 . S
C657 C649 1.433 . S
C657 N659 1.384 . S
N658 C654 1.427 . S
N658 C655 1.384 . S
N659 C651 1.427 . S
N659 C657 1.384 . S
H660 C666 0.930 1_455 S
H661 C670 0.930 . S
H662 C675 0.929 . S
H663 C673 0.929 . S
H664 C668 0.929 . S
H665 C674 0.929 . S
C666 H660 0.930 1_655 S
C666 C667 1.367 . S
C666 C674 1.378 . S
C667 C666 1.367 . S
C667 C675 1.433 . S
C668 H664 0.929 . S
C668 C670 1.378 . S
C668 C672 1.350 . S
C669 C672 1.463 . S
C669 C674 1.350 . S
C669 N677 1.427 . S
C670 H661 0.930 . S
C670 C668 1.378 . S
C670 C671 1.367 . S
C671 C670 1.367 . S
C671 C673 1.433 . S
C672 C668 1.350 . S
C672 C669 1.463 . S
C672 N676 1.427 . S
C673 H663 0.929 . S
C673 C671 1.433 . S
C673 N676 1.384 . S
C674 H665 0.929 . S
C674 C666 1.378 . S
C674 C669 1.350 . S
C675 H662 0.929 . S
C675 C667 1.433 . S
C675 N677 1.384 . S
N676 C672 1.427 . S
N676 C673 1.384 . S
N677 C669 1.427 . S
N677 C675 1.384 . S
H678 C684 0.930 . S
H679 C688 0.930 . S
H680 C693 0.929 . S
H681 C691 0.929 . S
H682 C686 0.929 . S
H683 C692 0.929 . S
C684 H678 0.930 . S
C684 C685 1.367 . S
C684 C692 1.378 . S
C685 C684 1.367 . S
C685 C693 1.433 . S
C686 H682 0.929 . S
C686 C688 1.378 . S
C686 C690 1.350 . S
C687 C690 1.463 . S
C687 C692 1.350 . S
C687 N695 1.427 . S
C688 H679 0.930 . S
C688 C686 1.378 . S
C688 C689 1.367 . S
C689 C688 1.367 . S
C689 C691 1.433 . S
C690 C686 1.350 . S
C690 C687 1.463 . S
C690 N694 1.427 . S
C691 H681 0.929 . S
C691 C689 1.433 . S
C691 N694 1.384 . S
C692 H683 0.929 . S
C692 C684 1.378 . S
C692 C687 1.350 . S
C693 H680 0.929 . S
C693 C685 1.433 . S
C693 N695 1.384 . S
N694 C690 1.427 . S
N694 C691 1.384 . S
N695 C687 1.427 . S
N695 C693 1.384 . S
H696 C702 0.930 . S
H697 C706 0.930 . S
H698 C711 0.929 . S
H699 C709 0.929 . S
H700 C704 0.929 . S
H701 C710 0.929 . S
C702 H696 0.930 . S
C702 C703 1.367 . S
C702 C710 1.378 . S
C703 C702 1.367 . S
C703 C711 1.433 . S
C704 H700 0.929 . S
C704 C706 1.378 . S
C704 C708 1.350 . S
C705 C708 1.463 . S
C705 C710 1.350 . S
C705 N713 1.427 . S
C706 H697 0.930 . S
C706 C704 1.378 . S
C706 C707 1.367 . S
C707 C706 1.367 . S
C707 C709 1.433 . S
C708 C704 1.350 . S
C708 C705 1.463 . S
C708 N712 1.427 . S
C709 H699 0.929 . S
C709 C707 1.433 . S
C709 N712 1.384 . S
C710 H701 0.929 . S
C710 C702 1.378 . S
C710 C705 1.350 . S
C711 H698 0.929 . S
C711 C703 1.433 . S
C711 N713 1.384 . S
N712 C708 1.427 . S
N712 C709 1.384 . S
N713 C705 1.427 . S
N713 C711 1.384 . S
H714 C720 0.930 . S
H715 C724 0.930 . S
H716 C729 0.929 . S
H717 C727 0.929 . S
H718 C722 0.929 . S
H719 C728 0.929 . S
C720 H714 0.930 . S
C720 C721 1.367 . S
C720 C728 1.378 . S
C721 C720 1.367 . S
C721 C729 1.433 . S
C722 H718 0.929 . S
C722 C724 1.378 . S
C722 C726 1.350 . S
C723 C726 1.463 . S
C723 C728 1.350 . S
C723 N731 1.427 . S
C724 H715 0.930 . S
C724 C722 1.378 . S
C724 C725 1.367 . S
C725 C724 1.367 . S
C725 C727 1.433 . S
C726 C722 1.350 . S
C726 C723 1.463 . S
C726 N730 1.427 . S
C727 H717 0.929 . S
C727 C725 1.433 . S
C727 N730 1.384 . S
C728 H719 0.929 . S
C728 C720 1.378 . S
C728 C723 1.350 . S
C729 H716 0.929 . S
C729 C721 1.433 . S
C729 N731 1.384 . S
N730 C726 1.427 . S
N730 C727 1.384 . S
N731 C723 1.427 . S
N731 C729 1.384 . S
H732 C738 0.930 . S
H733 C742 0.930 . S
H734 C747 0.929 . S
H735 C745 0.929 . S
H736 C740 0.929 . S
H737 C746 0.929 . S
C738 H732 0.930 . S
C738 C739 1.367 . S
C738 C746 1.378 . S
C739 C738 1.367 . S
C739 C747 1.433 . S
C740 H736 0.929 . S
C740 C742 1.378 . S
C740 C744 1.350 . S
C741 C744 1.463 . S
C741 C746 1.350 . S
C741 N749 1.427 . S
C742 H733 0.930 . S
C742 C740 1.378 . S
C742 C743 1.367 . S
C743 C742 1.367 . S
C743 C745 1.433 . S
C744 C740 1.350 . S
C744 C741 1.463 . S
C744 N748 1.427 . S
C745 H735 0.929 . S
C745 C743 1.433 . S
C745 N748 1.384 . S
C746 H737 0.929 . S
C746 C738 1.378 . S
C746 C741 1.350 . S
C747 H734 0.929 . S
C747 C739 1.433 . S
C747 N749 1.384 . S
N748 C744 1.427 . S
N748 C745 1.384 . S
N749 C741 1.427 . S
N749 C747 1.384 . S
H750 C756 0.930 . S
H751 C760 0.930 . S
H752 C765 0.929 . S
H753 C763 0.929 1_565 S
H754 C758 0.929 . S
H755 C764 0.929 . S
C756 H750 0.930 . S
C756 C757 1.367 . S
C756 C764 1.378 . S
C757 C756 1.367 . S
C757 C765 1.433 . S
C758 H754 0.929 . S
C758 C760 1.378 . S
C758 C762 1.350 . S
C759 C762 1.463 1_554 S
C759 C764 1.350 . S
C759 N767 1.427 . S
C760 H751 0.930 . S
C760 C758 1.378 . S
C760 C761 1.367 . S
C761 C760 1.367 . S
C761 C763 1.433 . S
C762 C758 1.350 . S
C762 C759 1.463 1_556 S
C762 N766 1.427 . S
C763 H753 0.929 1_545 S
C763 C761 1.433 . S
C763 N766 1.384 . S
C764 H755 0.929 . S
C764 C756 1.378 . S
C764 C759 1.350 . S
C765 H752 0.929 . S
C765 C757 1.433 . S
C765 N767 1.384 . S
N766 C762 1.427 . S
N766 C763 1.384 . S
N767 C759 1.427 . S
N767 C765 1.384 . S
H768 C774 0.930 . S
H769 C778 0.930 . S
H770 C783 0.929 . S
H771 C781 0.929 . S
H772 C776 0.929 . S
H773 C782 0.929 . S
C774 H768 0.930 . S
C774 C775 1.367 . S
C774 C782 1.378 . S
C775 C774 1.367 . S
C775 C783 1.433 . S
C776 H772 0.929 . S
C776 C778 1.378 . S
C776 C780 1.350 . S
C777 C780 1.463 . S
C777 C782 1.350 . S
C777 N785 1.427 . S
C778 H769 0.930 . S
C778 C776 1.378 . S
C778 C779 1.367 . S
C779 C778 1.367 . S
C779 C781 1.433 . S
C780 C776 1.350 . S
C780 C777 1.463 . S
C780 N784 1.427 . S
C781 H771 0.929 . S
C781 C779 1.433 . S
C781 N784 1.384 . S
C782 H773 0.929 . S
C782 C774 1.378 . S
C782 C777 1.350 . S
C783 H770 0.929 . S
C783 C775 1.433 . S
C783 N785 1.384 . S
N784 C780 1.427 . S
N784 C781 1.384 . S
N785 C777 1.427 . S
N785 C783 1.384 . S
H786 C792 0.930 . S
H787 C796 0.930 . S
H788 C801 0.929 . S
H789 C799 0.929 . S
H790 C794 0.929 . S
H791 C800 0.929 . S
C792 H786 0.930 . S
C792 C793 1.367 . S
C792 C800 1.378 1_554 S
C793 C792 1.367 . S
C793 C801 1.433 . S
C794 H790 0.929 . S
C794 C796 1.378 . S
C794 C798 1.350 . S
C795 C798 1.463 . S
C795 C800 1.350 . S
C795 N803 1.427 1_556 S
C796 H787 0.930 . S
C796 C794 1.378 . S
C796 C797 1.367 . S
C797 C796 1.367 . S
C797 C799 1.433 . S
C798 C794 1.350 . S
C798 C795 1.463 . S
C798 N802 1.427 . S
C799 H789 0.929 . S
C799 C797 1.433 . S
C799 N802 1.384 . S
C800 H791 0.929 . S
C800 C792 1.378 1_556 S
C800 C795 1.350 . S
C801 H788 0.929 . S
C801 C793 1.433 . S
C801 N803 1.384 . S
N802 C798 1.427 . S
N802 C799 1.384 . S
N803 C795 1.427 1_554 S
N803 C801 1.384 . S
H804 C810 0.930 . S
H805 C814 0.930 . S
H806 C819 0.929 . S
H807 C817 0.929 . S
H808 C812 0.929 . S
H809 C818 0.929 . S
C810 H804 0.930 . S
C810 C811 1.367 . S
C810 C818 1.378 . S
C811 C810 1.367 . S
C811 C819 1.433 . S
C812 H808 0.929 . S
C812 C814 1.378 . S
C812 C816 1.350 . S
C813 C816 1.463 . S
C813 C818 1.350 . S
C813 N821 1.427 . S
C814 H805 0.930 . S
C814 C812 1.378 . S
C814 C815 1.367 . S
C815 C814 1.367 . S
C815 C817 1.433 . S
C816 C812 1.350 . S
C816 C813 1.463 . S
C816 N820 1.427 . S
C817 H807 0.929 . S
C817 C815 1.433 . S
C817 N820 1.384 . S
C818 H809 0.929 . S
C818 C810 1.378 . S
C818 C813 1.350 . S
C819 H806 0.929 . S
C819 C811 1.433 . S
C819 N821 1.384 . S
N820 C816 1.427 . S
N820 C817 1.384 . S
N821 C813 1.427 . S
N821 C819 1.384 . S
H822 C828 0.930 . S
H823 C832 0.930 . S
H824 C837 0.929 . S
H825 C835 0.929 . S
H826 C830 0.929 . S
H827 C836 0.929 . S
C828 H822 0.930 . S
C828 C829 1.367 . S
C828 C836 1.378 . S
C829 C828 1.367 . S
C829 C837 1.433 . S
C830 H826 0.929 . S
C830 C832 1.378 . S
C830 C834 1.350 . S
C831 C834 1.463 . S
C831 C836 1.350 . S
C831 N839 1.427 . S
C832 H823 0.930 . S
C832 C830 1.378 . S
C832 C833 1.367 . S
C833 C832 1.367 . S
C833 C835 1.433 . S
C834 C830 1.350 . S
C834 C831 1.463 . S
C834 N838 1.427 . S
C835 H825 0.929 . S
C835 C833 1.433 . S
C835 N838 1.384 . S
C836 H827 0.929 . S
C836 C828 1.378 . S
C836 C831 1.350 . S
C837 H824 0.929 . S
C837 C829 1.433 . S
C837 N839 1.384 . S
N838 C834 1.427 . S
N838 C835 1.384 . S
N839 C831 1.427 . S
N839 C837 1.384 . S
H840 C846 0.930 . S
H841 C850 0.930 . S
H842 C855 0.929 . S
H843 C853 0.929 . S
H844 C848 0.929 . S
H845 C854 0.929 . S
C846 H840 0.930 . S
C846 C847 1.367 . S
C846 C854 1.378 . S
C847 C846 1.367 . S
C847 C855 1.433 . S
C848 H844 0.929 . S
C848 C850 1.378 . S
C848 C852 1.350 . S
C849 C852 1.463 . S
C849 C854 1.350 . S
C849 N857 1.427 . S
C850 H841 0.930 . S
C850 C848 1.378 . S
C850 C851 1.367 . S
C851 C850 1.367 . S
C851 C853 1.433 . S
C852 C848 1.350 . S
C852 C849 1.463 . S
C852 N856 1.427 . S
C853 H843 0.929 . S
C853 C851 1.433 . S
C853 N856 1.384 . S
C854 H845 0.929 . S
C854 C846 1.378 . S
C854 C849 1.350 . S
C855 H842 0.929 . S
C855 C847 1.433 . S
C855 N857 1.384 . S
N856 C852 1.427 . S
N856 C853 1.384 . S
N857 C849 1.427 . S
N857 C855 1.384 . S
H858 C864 0.930 . S
H859 C868 0.930 . S
H860 C873 0.929 . S
H861 C871 0.929 . S
H862 C866 0.929 1_545 S
H863 C872 0.929 . S
C864 H858 0.930 . S
C864 C865 1.367 . S
C864 C872 1.378 . S
C865 C864 1.367 . S
C865 C873 1.433 . S
C866 H862 0.929 1_565 S
C866 C868 1.378 . S
C866 C870 1.350 . S
C867 C870 1.463 1_545 S
C867 C872 1.350 . S
C867 N875 1.427 . S
C868 H859 0.930 . S
C868 C866 1.378 . S
C868 C869 1.367 . S
C869 C868 1.367 . S
C869 C871 1.433 . S
C870 C866 1.350 . S
C870 C867 1.463 1_565 S
C870 N874 1.427 . S
C871 H861 0.929 . S
C871 C869 1.433 . S
C871 N874 1.384 . S
C872 H863 0.929 . S
C872 C864 1.378 . S
C872 C867 1.350 . S
C873 H860 0.929 . S
C873 C865 1.433 . S
C873 N875 1.384 . S
N874 C870 1.427 . S
N874 C871 1.384 . S
N875 C867 1.427 . S
N875 C873 1.384 . S
H876 C882 0.930 . S
H877 C886 0.930 . S
H878 C891 0.929 . S
H879 C889 0.929 . S
H880 C884 0.929 . S
H881 C890 0.929 . S
C882 H876 0.930 . S
C882 C883 1.367 . S
C882 C890 1.378 . S
C883 C882 1.367 . S
C883 C891 1.433 . S
C884 H880 0.929 . S
C884 C886 1.378 . S
C884 C888 1.350 . S
C885 C888 1.463 . S
C885 C890 1.350 . S
C885 N893 1.427 . S
C886 H877 0.930 . S
C886 C884 1.378 . S
C886 C887 1.367 . S
C887 C886 1.367 . S
C887 C889 1.433 . S
C888 C884 1.350 . S
C888 C885 1.463 . S
C888 N892 1.427 . S
C889 H879 0.929 . S
C889 C887 1.433 . S
C889 N892 1.384 . S
C890 H881 0.929 . S
C890 C882 1.378 . S
C890 C885 1.350 . S
C891 H878 0.929 . S
C891 C883 1.433 . S
C891 N893 1.384 . S
N892 C888 1.427 . S
N892 C889 1.384 . S
N893 C885 1.427 . S
N893 C891 1.384 . S
H894 C900 0.930 . S
H895 C904 0.930 . S
H896 C909 0.929 . S
H897 C907 0.929 . S
H898 C902 0.929 1_545 S
H899 C908 0.929 1_565 S
C900 H894 0.930 . S
C900 C901 1.367 . S
C900 C908 1.378 . S
C901 C900 1.367 . S
C901 C909 1.433 . S
C902 H898 0.929 1_565 S
C902 C904 1.378 . S
C902 C906 1.350 . S
C903 C906 1.463 1_545 S
C903 C908 1.350 . S
C903 N911 1.427 . S
C904 H895 0.930 . S
C904 C902 1.378 . S
C904 C905 1.367 . S
C905 C904 1.367 . S
C905 C907 1.433 . S
C906 C902 1.350 . S
C906 C903 1.463 1_565 S
C906 N910 1.427 . S
C907 H897 0.929 . S
C907 C905 1.433 . S
C907 N910 1.384 . S
C908 H899 0.929 1_545 S
C908 C900 1.378 . S
C908 C903 1.350 . S
C909 H896 0.929 . S
C909 C901 1.433 . S
C909 N911 1.384 . S
N910 C906 1.427 . S
N910 C907 1.384 . S
N911 C903 1.427 . S
N911 C909 1.384 . S
H912 C918 0.930 . S
H913 C922 0.930 . S
H914 C927 0.929 . S
H915 C925 0.929 . S
H916 C920 0.929 . S
H917 C926 0.929 . S
C918 H912 0.930 . S
C918 C919 1.367 . S
C918 C926 1.378 . S
C919 C918 1.367 . S
C919 C927 1.433 . S
C920 H916 0.929 . S
C920 C922 1.378 . S
C920 C924 1.350 . S
C921 C924 1.463 . S
C921 C926 1.350 . S
C921 N929 1.427 . S
C922 H913 0.930 . S
C922 C920 1.378 . S
C922 C923 1.367 . S
C923 C922 1.367 . S
C923 C925 1.433 . S
C924 C920 1.350 . S
C924 C921 1.463 . S
C924 N928 1.427 . S
C925 H915 0.929 . S
C925 C923 1.433 . S
C925 N928 1.384 . S
C926 H917 0.929 . S
C926 C918 1.378 . S
C926 C921 1.350 . S
C927 H914 0.929 . S
C927 C919 1.433 . S
C927 N929 1.384 . S
N928 C924 1.427 . S
N928 C925 1.384 . S
N929 C921 1.427 . S
N929 C927 1.384 . S
H930 C936 0.930 . S
H931 C940 0.930 . S
H932 C945 0.929 . S
H933 C943 0.929 . S
H934 C938 0.929 . S
H935 C944 0.929 . S
C936 H930 0.930 . S
C936 C937 1.367 . S
C936 C944 1.378 . S
C937 C936 1.367 . S
C937 C945 1.433 . S
C938 H934 0.929 . S
C938 C940 1.378 . S
C938 C942 1.350 . S
C939 C942 1.463 . S
C939 C944 1.350 . S
C939 N947 1.427 . S
C940 H931 0.930 . S
C940 C938 1.378 . S
C940 C941 1.367 . S
C941 C940 1.367 . S
C941 C943 1.433 . S
C942 C938 1.350 . S
C942 C939 1.463 . S
C942 N946 1.427 . S
C943 H933 0.929 . S
C943 C941 1.433 . S
C943 N946 1.384 . S
C944 H935 0.929 . S
C944 C936 1.378 . S
C944 C939 1.350 . S
C945 H932 0.929 . S
C945 C937 1.433 . S
C945 N947 1.384 . S
N946 C942 1.427 . S
N946 C943 1.384 . S
N947 C939 1.427 . S
N947 C945 1.384 . S
H948 C954 0.930 . S
H949 C958 0.930 . S
H950 C963 0.929 . S
H951 C961 0.929 . S
H952 C956 0.929 . S
H953 C962 0.929 . S
C954 H948 0.930 . S
C954 C955 1.367 . S
C954 C962 1.378 . S
C955 C954 1.367 . S
C955 C963 1.433 . S
C956 H952 0.929 . S
C956 C958 1.378 . S
C956 C960 1.350 . S
C957 C960 1.463 . S
C957 C962 1.350 . S
C957 N965 1.427 . S
C958 H949 0.930 . S
C958 C956 1.378 . S
C958 C959 1.367 . S
C959 C958 1.367 . S
C959 C961 1.433 . S
C960 C956 1.350 . S
C960 C957 1.463 . S
C960 N964 1.427 . S
C961 H951 0.929 . S
C961 C959 1.433 . S
C961 N964 1.384 . S
C962 H953 0.929 . S
C962 C954 1.378 . S
C962 C957 1.350 . S
C963 H950 0.929 . S
C963 C955 1.433 . S
C963 N965 1.384 . S
N964 C960 1.427 . S
N964 C961 1.384 . S
N965 C957 1.427 . S
N965 C963 1.384 . S
H966 C972 0.930 . S
H967 C976 0.930 . S
H968 C981 0.929 . S
H969 C979 0.929 . S
H970 C974 0.929 . S
H971 C980 0.929 . S
C972 H966 0.930 . S
C972 C973 1.367 . S
C972 C980 1.378 . S
C973 C972 1.367 . S
C973 C981 1.433 . S
C974 H970 0.929 . S
C974 C976 1.378 . S
C974 C978 1.350 . S
C975 C978 1.463 . S
C975 C980 1.350 . S
C975 N983 1.427 . S
C976 H967 0.930 . S
C976 C974 1.378 . S
C976 C977 1.367 . S
C977 C976 1.367 . S
C977 C979 1.433 . S
C978 C974 1.350 . S
C978 C975 1.463 . S
C978 N982 1.427 . S
C979 H969 0.929 . S
C979 C977 1.433 . S
C979 N982 1.384 . S
C980 H971 0.929 . S
C980 C972 1.378 . S
C980 C975 1.350 . S
C981 H968 0.929 . S
C981 C973 1.433 . S
C981 N983 1.384 . S
N982 C978 1.427 . S
N982 C979 1.384 . S
N983 C975 1.427 . S
N983 C981 1.384 . S
H984 C990 0.930 . S
H985 C994 0.930 . S
H986 C999 0.929 . S
H987 C997 0.929 . S
H988 C992 0.929 . S
H989 C998 0.929 . S
C990 H984 0.930 . S
C990 C991 1.367 . S
C990 C998 1.378 . S
C991 C990 1.367 . S
C991 C999 1.433 . S
C992 H988 0.929 . S
C992 C994 1.378 . S
C992 C996 1.350 . S
C993 C996 1.463 . S
C993 C998 1.350 . S
C993 N1001 1.427 . S
C994 H985 0.930 . S
C994 C992 1.378 . S
C994 C995 1.367 . S
C995 C994 1.367 . S
C995 C997 1.433 . S
C996 C992 1.350 . S
C996 C993 1.463 . S
C996 N1000 1.427 . S
C997 H987 0.929 . S
C997 C995 1.433 . S
C997 N1000 1.384 . S
C998 H989 0.929 . S
C998 C990 1.378 . S
C998 C993 1.350 . S
C999 H986 0.929 . S
C999 C991 1.433 . S
C999 N1001 1.384 . S
N1000 C996 1.427 . S
N1000 C997 1.384 . S
N1001 C993 1.427 . S
N1001 C999 1.384 . S
H1002 C1008 0.930 . S
H1003 C1012 0.930 . S
H1004 C1017 0.929 . S
H1005 C1015 0.929 . S
H1006 C1010 0.929 . S
H1007 C1016 0.929 . S
C1008 H1002 0.930 . S
C1008 C1009 1.367 . S
C1008 C1016 1.378 . S
C1009 C1008 1.367 . S
C1009 C1017 1.433 . S
C1010 H1006 0.929 . S
C1010 C1012 1.378 . S
C1010 C1014 1.350 . S
C1011 C1014 1.463 . S
C1011 C1016 1.350 . S
C1011 N1019 1.427 . S
C1012 H1003 0.930 . S
C1012 C1010 1.378 . S
C1012 C1013 1.367 . S
C1013 C1012 1.367 . S
C1013 C1015 1.433 . S
C1014 C1010 1.350 . S
C1014 C1011 1.463 . S
C1014 N1018 1.427 . S
C1015 H1005 0.929 . S
C1015 C1013 1.433 . S
C1015 N1018 1.384 . S
C1016 H1007 0.929 . S
C1016 C1008 1.378 . S
C1016 C1011 1.350 . S
C1017 H1004 0.929 . S
C1017 C1009 1.433 . S
C1017 N1019 1.384 . S
N1018 C1014 1.427 . S
N1018 C1015 1.384 . S
N1019 C1011 1.427 . S
N1019 C1017 1.384 . S
H1020 C1026 0.930 . S
H1021 C1030 0.930 1_556 S
H1022 C1035 0.929 . S
H1023 C1033 0.929 . S
H1024 C1028 0.929 . S
H1025 C1034 0.929 . S
C1026 H1020 0.930 . S
C1026 C1027 1.367 . S
C1026 C1034 1.378 . S
C1027 C1026 1.367 . S
C1027 C1035 1.433 . S
C1028 H1024 0.929 . S
C1028 C1030 1.378 . S
C1028 C1032 1.350 . S
C1029 C1032 1.463 1_455 S
C1029 C1034 1.350 . S
C1029 N1037 1.427 . S
C1030 H1021 0.930 1_554 S
C1030 C1028 1.378 . S
C1030 C1031 1.367 . S
C1031 C1030 1.367 . S
C1031 C1033 1.433 . S
C1032 C1028 1.350 . S
C1032 C1029 1.463 1_655 S
C1032 N1036 1.427 . S
C1033 H1023 0.929 . S
C1033 C1031 1.433 . S
C1033 N1036 1.384 . S
C1034 H1025 0.929 . S
C1034 C1026 1.378 . S
C1034 C1029 1.350 . S
C1035 H1022 0.929 . S
C1035 C1027 1.433 . S
C1035 N1037 1.384 . S
N1036 C1032 1.427 . S
N1036 C1033 1.384 . S
N1037 C1029 1.427 . S
N1037 C1035 1.384 . S
H1038 C1044 0.930 . S
H1039 C1048 0.930 . S
H1040 C1053 0.929 . S
H1041 C1051 0.929 . S
H1042 C1046 0.929 . S
H1043 C1052 0.929 . S
C1044 H1038 0.930 . S
C1044 C1045 1.367 . S
C1044 C1052 1.378 . S
C1045 C1044 1.367 . S
C1045 C1053 1.433 . S
C1046 H1042 0.929 . S
C1046 C1048 1.378 . S
C1046 C1050 1.350 . S
C1047 C1050 1.463 . S
C1047 C1052 1.350 . S
C1047 N1055 1.427 . S
C1048 H1039 0.930 . S
C1048 C1046 1.378 . S
C1048 C1049 1.367 . S
C1049 C1048 1.367 . S
C1049 C1051 1.433 . S
C1050 C1046 1.350 . S
C1050 C1047 1.463 . S
C1050 N1054 1.427 . S
C1051 H1041 0.929 . S
C1051 C1049 1.433 . S
C1051 N1054 1.384 . S
C1052 H1043 0.929 . S
C1052 C1044 1.378 . S
C1052 C1047 1.350 . S
C1053 H1040 0.929 . S
C1053 C1045 1.433 . S
C1053 N1055 1.384 . S
N1054 C1050 1.427 . S
N1054 C1051 1.384 . S
N1055 C1047 1.427 . S
N1055 C1053 1.384 . S
H1056 C1062 0.930 . S
H1057 C1066 0.930 . S
H1058 C1071 0.929 . S
H1059 C1069 0.929 . S
H1060 C1064 0.929 . S
H1061 C1070 0.929 . S
C1062 H1056 0.930 . S
C1062 C1063 1.367 . S
C1062 C1070 1.378 . S
C1063 C1062 1.367 . S
C1063 C1071 1.433 . S
C1064 H1060 0.929 . S
C1064 C1066 1.378 . S
C1064 C1068 1.350 . S
C1065 C1068 1.463 . S
C1065 C1070 1.350 . S
C1065 N1073 1.427 . S
C1066 H1057 0.930 . S
C1066 C1064 1.378 . S
C1066 C1067 1.367 . S
C1067 C1066 1.367 . S
C1067 C1069 1.433 . S
C1068 C1064 1.350 . S
C1068 C1065 1.463 . S
C1068 N1072 1.427 . S
C1069 H1059 0.929 . S
C1069 C1067 1.433 . S
C1069 N1072 1.384 . S
C1070 H1061 0.929 . S
C1070 C1062 1.378 . S
C1070 C1065 1.350 . S
C1071 H1058 0.929 . S
C1071 C1063 1.433 . S
C1071 N1073 1.384 . S
N1072 C1068 1.427 . S
N1072 C1069 1.384 . S
N1073 C1065 1.427 . S
N1073 C1071 1.384 . S
H1074 C1080 0.930 . S
H1075 C1084 0.930 . S
H1076 C1089 0.929 . S
H1077 C1087 0.929 . S
H1078 C1082 0.929 . S
H1079 C1088 0.929 . S
C1080 H1074 0.930 . S
C1080 C1081 1.367 . S
C1080 C1088 1.378 . S
C1081 C1080 1.367 . S
C1081 C1089 1.433 . S
C1082 H1078 0.929 . S
C1082 C1084 1.378 . S
C1082 C1086 1.350 . S
C1083 C1086 1.463 . S
C1083 C1088 1.350 . S
C1083 N1091 1.427 . S
C1084 H1075 0.930 . S
C1084 C1082 1.378 . S
C1084 C1085 1.367 . S
C1085 C1084 1.367 . S
C1085 C1087 1.433 . S
C1086 C1082 1.350 . S
C1086 C1083 1.463 . S
C1086 N1090 1.427 . S
C1087 H1077 0.929 . S
C1087 C1085 1.433 . S
C1087 N1090 1.384 . S
C1088 H1079 0.929 . S
C1088 C1080 1.378 . S
C1088 C1083 1.350 . S
C1089 H1076 0.929 . S
C1089 C1081 1.433 . S
C1089 N1091 1.384 . S
N1090 C1086 1.427 . S
N1090 C1087 1.384 . S
N1091 C1083 1.427 . S
N1091 C1089 1.384 . S
H1092 C1098 0.930 1_554 S
H1093 C1102 0.930 . S
H1094 C1107 0.929 . S
H1095 C1105 0.929 . S
H1096 C1100 0.929 . S
H1097 C1106 0.929 . S
C1098 H1092 0.930 1_556 S
C1098 C1099 1.367 . S
C1098 C1106 1.378 . S
C1099 C1098 1.367 . S
C1099 C1107 1.433 . S
C1100 H1096 0.929 . S
C1100 C1102 1.378 . S
C1100 C1104 1.350 . S
C1101 C1104 1.463 . S
C1101 C1106 1.350 . S
C1101 N1109 1.427 . S
C1102 H1093 0.930 . S
C1102 C1100 1.378 . S
C1102 C1103 1.367 . S
C1103 C1102 1.367 . S
C1103 C1105 1.433 . S
C1104 C1100 1.350 . S
C1104 C1101 1.463 . S
C1104 N1108 1.427 . S
C1105 H1095 0.929 . S
C1105 C1103 1.433 . S
C1105 N1108 1.384 . S
C1106 H1097 0.929 . S
C1106 C1098 1.378 . S
C1106 C1101 1.350 . S
C1107 H1094 0.929 . S
C1107 C1099 1.433 . S
C1107 N1109 1.384 . S
N1108 C1104 1.427 . S
N1108 C1105 1.384 . S
N1109 C1101 1.427 . S
N1109 C1107 1.384 . S
H1110 C1116 0.930 . S
H1111 C1120 0.930 . S
H1112 C1125 0.929 . S
H1113 C1123 0.929 . S
H1114 C1118 0.929 . S
H1115 C1124 0.929 . S
C1116 H1110 0.930 . S
C1116 C1117 1.367 . S
C1116 C1124 1.378 . S
C1117 C1116 1.367 . S
C1117 C1125 1.433 . S
C1118 H1114 0.929 . S
C1118 C1120 1.378 1_655 S
C1118 C1122 1.350 . S
C1119 C1122 1.463 . S
C1119 C1124 1.350 . S
C1119 N1127 1.427 . S
C1120 H1111 0.930 . S
C1120 C1118 1.378 1_455 S
C1120 C1121 1.367 . S
C1121 C1120 1.367 . S
C1121 C1123 1.433 . S
C1122 C1118 1.350 . S
C1122 C1119 1.463 . S
C1122 N1126 1.427 . S
C1123 H1113 0.929 . S
C1123 C1121 1.433 . S
C1123 N1126 1.384 1_455 S
C1124 H1115 0.929 . S
C1124 C1116 1.378 . S
C1124 C1119 1.350 . S
C1125 H1112 0.929 . S
C1125 C1117 1.433 . S
C1125 N1127 1.384 . S
N1126 C1122 1.427 . S
N1126 C1123 1.384 1_655 S
N1127 C1119 1.427 . S
N1127 C1125 1.384 . S
C487 C11 1.263 . S
C491 C459 1.278 . S
C505 C371 1.825 . S
C509 C59 1.888 . S
C523 C91 1.286 . S
C527 C339 1.338 . S
C541 C139 2.012 . S
C545 C419 1.999 . S
C559 C179 1.799 . S
C563 C411 1.752 . S
C577 C211 1.477 . S
C581 C451 1.502 . S
C595 C379 1.912 . S
C599 C259 1.919 . S
C613 C291 1.570 . S
C617 C331 1.591 . S
C631 C131 1.604 . S
C635 C171 1.630 . S
C649 C19 1.599 . S
C653 C219 1.598 . S
C667 C51 1.609 . S
C671 C251 1.617 . S
C685 C299 1.812 . S
C689 C99 1.813 . S
C703 C16 1.966 . S
C707 C330 1.963 . S
C721 C47 1.299 . S
C725 C410 1.250 . S
C739 C450 1.948 . S
C743 C96 1.952 . S
C757 C127 1.569 . S
C761 C362 1.551 . S
C775 C167 1.174 . S
C779 C370 1.150 . S
C793 C322 2.172 . S
C797 C216 2.062 . S
C811 C402 1.437 . S
C815 C247 1.453 . S
C829 C442 2.182 . S
C833 C296 2.089 . S
C847 C10 2.386 . S
C851 C136 2.391 . S
C865 C7 1.753 . S
C869 C42 1.730 . S
C883 C56 2.174 . S
C887 C90 2.178 . S
C901 C122 1.615 . S
C905 C87 1.634 . S
C919 C207 1.539 . S
C923 C162 1.510 . S
C937 C210 1.331 . S
C941 C256 1.338 . S
C955 C242 1.427 . S
C959 C287 1.448 . S
C973 C176 1.117 . S
C977 C290 1.118 . S
C991 C336 1.508 . S
C995 C130 1.489 . S
C1009 C202 2.149 . S
C1013 C376 2.071 . S
C1027 C327 1.410 . S
C1031 C250 1.343 . S
C1045 C407 1.813 . S
C1049 C282 1.788 . S
C1063 C170 1.288 . S
C1067 C447 1.352 . S
C1081 C456 1.444 . S
C1085 C50 1.425 . S
C1099 C82 1.666 . S
C1103 C367 1.679 . S
C1117 C416 1.966 . S
C1121 C2 2.056 . S
