# Generated by pormake.
# Topology fnu, (5)-cn, num edge types: 1
# Building blocks:
#     Node 0, Type 0, BuildingBlock: XOMCOT_clean_sbu_0, # of connection points: 5
#     Node 1, Type 0, BuildingBlock: XOMCOT_clean_sbu_0, # of connection points: 5
#     Node 2, Type 0, BuildingBlock: XOMCOT_clean_sbu_0, # of connection points: 5
#     Node 3, Type 0, BuildingBlock: XOMCOT_clean_sbu_0, # of connection points: 5
#     Node 4, Type 0, BuildingBlock: XOMCOT_clean_sbu_0, # of connection points: 5
#     Node 5, Type 0, BuildingBlock: XOMCOT_clean_sbu_0, # of connection points: 5
#     Edge 6, Type (0, 0), BuildingBlock: UVAHIK_clean_linker_0, # of connection points: 2
#     Edge 7, Type (0, 0), BuildingBlock: UVAHIK_clean_linker_0, # of connection points: 2
#     Edge 8, Type (0, 0), BuildingBlock: UVAHIK_clean_linker_0, # of connection points: 2
#     Edge 9, Type (0, 0), BuildingBlock: UVAHIK_clean_linker_0, # of connection points: 2
#     Edge 10, Type (0, 0), BuildingBlock: UVAHIK_clean_linker_0, # of connection points: 2
#     Edge 11, Type (0, 0), BuildingBlock: UVAHIK_clean_linker_0, # of connection points: 2
#     Edge 12, Type (0, 0), BuildingBlock: UVAHIK_clean_linker_0, # of connection points: 2
#     Edge 13, Type (0, 0), BuildingBlock: UVAHIK_clean_linker_0, # of connection points: 2
#     Edge 14, Type (0, 0), BuildingBlock: UVAHIK_clean_linker_0, # of connection points: 2
#     Edge 15, Type (0, 0), BuildingBlock: UVAHIK_clean_linker_0, # of connection points: 2
#     Edge 16, Type (0, 0), BuildingBlock: UVAHIK_clean_linker_0, # of connection points: 2
#     Edge 17, Type (0, 0), BuildingBlock: UVAHIK_clean_linker_0, # of connection points: 2
#     Edge 18, Type (0, 0), BuildingBlock: UVAHIK_clean_linker_0, # of connection points: 2
#     Edge 19, Type (0, 0), BuildingBlock: UVAHIK_clean_linker_0, # of connection points: 2
#     Edge 20, Type (0, 0), BuildingBlock: UVAHIK_clean_linker_0, # of connection points: 2
# Relax obj value: 0.167
# Max RMSD: 0.129
# Mean RMSD: 0.129
data_MOF--net-fnu--node1-XOMCOT_clean_sbu_0--edge1-UVAHIK_clean_linker_0
_symmetry_space_group_name_H-M    P1
_symmetry_Int_Tables_number       1
_symmetry_cell_setting            triclinic
loop_
_symmetry_equiv_pos_as_xyz
'x, y, z'
_cell_length_a     33.312363
_cell_length_b     36.209024
_cell_length_c     41.689136
_cell_angle_alpha  90.069332
_cell_angle_beta   98.723631
_cell_angle_gamma 122.85468
loop_
_atom_site_label
_atom_site_type_symbol
_atom_site_fract_x
_atom_site_fract_y
_atom_site_fract_z
_atom_type_partial_charge
Co0 Co 0.07588 0.04258 0.24581 0.0
C1 C 0.07781 0.03195 0.31646 0.0
C2 C 0.14905 0.06389 0.30442 0.0
C3 C 0.15312 0.06209 0.33759 0.0
N4 N 0.10186 0.04509 0.29113 0.0
N5 N 0.1084 0.0423 0.34524 0.0
H6 H 1.03902 1.01663 0.31402 0.0
H7 H 0.17895 0.07894 0.29128 0.0
C8 C 0.1511 0.0551 0.20686 0.0
O9 O 0.11584 1.02573 0.18392 0.0
N10 N 0.05023 0.04148 0.20073 0.0
C11 C 1.00831 1.01027 0.18147 0.0
C12 C 1.00325 1.02719 0.1527 0.0
C13 C 0.06933 0.07699 0.18372 0.0
N14 N 1.04164 0.06931 0.15421 0.0
C15 C 1.00386 0.94966 0.24022 0.0
C16 C 0.0607 0.9202 0.22594 0.0
C17 C 1.01014 0.88976 0.2218 0.0
C18 C 0.98227 0.90486 0.23103 0.0
C19 C 0.08102 0.96481 0.23604 0.0
N20 N 0.05199 0.97971 0.24007 0.0
H21 H 0.98077 0.96025 0.24561 0.0
H22 H 0.11993 0.98708 0.23981 0.0
H23 H 0.9823 0.97789 0.18771 0.0
H24 H 0.10251 0.10816 0.19337 0.0
O25 O 1.01894 0.03739 0.25728 0.0
O26 O 0.08698 0.10057 0.25367 0.0
O27 O 0.14137 0.06326 0.23356 0.0
C28 C 1.04195 0.08006 0.25757 0.0
H29 H 0.18666 0.0748 0.35476 0.0
H30 H 0.97351 1.00952 0.1323 0.0
H31 H 0.08441 0.91027 0.22036 0.0
H32 H 0.94362 0.88253 0.23034 0.0
Co33 Co 0.04948 0.03643 0.77005 0.0
C34 C 1.04055 1.01743 0.69956 0.0
C35 C 0.97136 0.99478 0.71254 0.0
C36 C 0.96489 0.98688 0.67925 0.0
N37 N 1.01873 1.01369 0.72522 0.0
N38 N 1.00845 1.00129 0.67107 0.0
H39 H 0.07924 0.03241 0.7017 0.0
H40 H 0.94363 0.98866 0.72625 0.0
C41 C 0.97569 0.97965 0.81238 0.0
O42 O 1.01113 0.98894 0.83648 0.0
N43 N 0.0814 0.06092 0.81458 0.0
C44 C 0.12536 0.07042 0.82938 0.0
C45 C 0.13973 0.09706 0.85783 0.0
C46 C 0.07014 0.08254 0.83399 0.0
N47 N 0.105 0.1047 0.86053 0.0
C48 C 0.11551 1.00981 0.76552 0.0
C49 C 0.06589 0.93066 0.79225 0.0
C50 C 0.11414 0.94791 0.78892 0.0
C51 C 0.13787 0.9869 0.77362 0.0
C52 C 1.04459 0.95438 0.78331 0.0
N53 N 0.07082 0.99531 0.77267 0.0
H54 H 0.13584 0.04084 0.75539 0.0
H55 H 1.00744 0.93966 0.78583 0.0
H56 H 0.14697 0.06079 0.81975 0.0
H57 H 1.03785 0.08336 0.82814 0.0
O58 O 0.10545 0.08719 0.75665 0.0
O59 O 1.04009 0.08459 0.76496 0.0
O60 O 0.98504 0.99304 0.78435 0.0
C61 C 0.08395 0.10798 0.75878 0.0
H62 H 0.93103 0.97339 0.66228 0.0
H63 H 0.17326 0.11003 0.87508 0.0
H64 H 1.04518 0.90004 0.80301 0.0
H65 H 0.17423 1.00059 0.7689 0.0
Co66 Co 0.74143 0.37823 0.57836 0.0
C67 C 0.74938 0.37267 0.64942 0.0
C68 C 0.81908 0.41683 0.63629 0.0
C69 C 0.82513 0.41703 0.6697 0.0
N70 N 0.77163 0.38894 0.62363 0.0
N71 N 0.78126 0.38941 0.67803 0.0
H72 H 0.71049 0.35021 0.64727 0.0
H73 H 0.84735 0.43647 0.6224 0.0
C74 C 0.8159 0.39097 0.53807 0.0
O75 O 0.78081 0.36085 0.51543 0.0
N76 N 0.71014 0.36797 0.53328 0.0
C77 C 0.66619 0.33317 0.51895 0.0
C78 C 0.65297 0.34326 0.4891 0.0
C79 C 0.72247 0.39903 0.51218 0.0
N80 N 0.68831 0.38477 0.48493 0.0
C81 C 0.67555 0.28614 0.58431 0.0
C82 C 0.72841 0.25638 0.5627 0.0
C83 C 0.67928 0.22547 0.56402 0.0
C84 C 0.65392 0.24084 0.57709 0.0
C85 C 0.74891 0.30144 0.57085 0.0
N86 N 0.72103 0.31616 0.57836 0.0
H87 H 0.654 0.29693 0.59247 0.0
H88 H 0.78679 0.32397 0.57015 0.0
H89 H 0.6436 0.30336 0.52981 0.0
H90 H 0.75554 0.43166 0.5171 0.0
O91 O 0.68481 0.37352 0.59025 0.0
O92 O 0.74989 0.43553 0.58075 0.0
O93 O 0.80624 0.39885 0.56491 0.0
C94 C 0.70597 0.41543 0.58678 0.0
H95 H 0.85936 0.43633 0.68649 0.0
H96 H 0.619 0.3222 0.47239 0.0
H97 H 0.75047 0.24642 0.55399 0.0
H98 H 0.61685 0.21829 0.58052 0.0
Co99 Co 0.71866 0.36176 0.10309 0.0
C100 C 0.71138 0.3473 0.03226 0.0
C101 C 0.64115 0.32047 0.04495 0.0
C102 C 0.63549 0.3141 0.01157 0.0
N103 N 0.68871 0.34111 0.05786 0.0
N104 N 0.67969 0.33116 1.00361 0.0
H105 H 0.75031 0.36374 0.03456 0.0
H106 H 0.61258 0.31175 0.05861 0.0
C107 C 0.64422 0.30132 0.14375 0.0
O108 O 0.67942 0.30695 0.16661 0.0
N109 N 0.74975 0.38395 0.14807 0.0
C110 C 0.79372 0.39344 0.1627 0.0
C111 C 0.80667 0.41736 0.19227 0.0
C112 C 0.73713 0.40308 0.16866 0.0
N113 N 0.77112 0.42354 0.19593 0.0
C114 C 0.78479 0.33539 0.09828 0.0
C115 C 0.73272 0.25395 0.12151 0.0
C116 C 0.78186 0.27212 0.12016 0.0
C117 C 0.80678 0.31216 0.10627 0.0
C118 C 0.71182 0.27802 0.11254 0.0
N119 N 0.73933 0.32017 0.10422 0.0
H120 H 0.80607 0.36727 0.08948 0.0
H121 H 0.67393 0.26267 0.11324 0.0
H122 H 0.81648 0.386 0.15223 0.0
H123 H 0.70393 0.40243 0.16339 0.0
O124 O 0.77532 0.41304 0.09085 0.0
O125 O 0.71021 0.41063 0.09954 0.0
O126 O 0.65378 0.3181 0.11668 0.0
C127 C 0.7542 0.43402 0.09358 0.0
H128 H 0.60162 0.29958 0.99443 0.0
H129 H 0.84059 0.43061 0.20913 0.0
H130 H 0.71095 0.22237 0.13081 0.0
H131 H 0.84381 0.32654 0.10275 0.0
Co132 Co 0.40682 0.71401 0.91143 0.0
C133 C 0.41461 0.70673 0.98236 0.0
C134 C 0.48455 0.74965 0.9692 0.0
C135 C 0.49063 0.74941 1.00257 0.0
N136 N 0.43694 0.72279 0.95656 0.0
N137 N 0.44661 0.72263 0.01093 0.0
H138 H 0.37561 0.68524 0.98027 0.0
H139 H 0.51292 0.76915 0.95537 0.0
C140 C 0.48061 0.7276 0.87015 0.0
O141 O 0.4452 0.69952 0.84674 0.0
N142 N 0.37555 0.70578 0.86656 0.0
C143 C 0.3312 0.67185 0.85195 0.0
C144 C 0.31852 0.6832 0.82251 0.0
C145 C 0.38858 0.73765 0.8461 0.0
N146 N 0.3546 0.72465 0.81888 0.0
C147 C 0.33934 0.62157 0.91557 0.0
C148 C 0.39141 0.59157 0.89296 0.0
C149 C 0.34227 0.56082 0.89431 0.0
C150 C 0.31719 0.57628 0.9077 0.0
C151 C 0.41237 0.63658 0.90163 0.0
N152 N 0.38501 0.6515 0.90987 0.0
H153 H 0.31816 0.63253 0.92413 0.0
H154 H 0.45023 0.6589 0.9008 0.0
H155 H 0.30808 0.64175 0.86233 0.0
H156 H 0.42222 0.76984 0.85137 0.0
O157 O 0.35091 0.71008 0.92402 0.0
O158 O 0.41699 0.77187 0.91535 0.0
O159 O 0.47127 0.73392 0.89762 0.0
C160 C 0.37313 0.75229 0.92142 0.0
H161 H 0.52497 0.76803 0.0193 0.0
H162 H 0.28449 0.66293 0.80569 0.0
H163 H 0.41317 0.58151 0.88388 0.0
H164 H 0.28004 0.55382 0.91101 0.0
Co165 Co 0.38461 0.69983 0.43638 0.0
C166 C 0.3772 0.68608 0.36544 0.0
C167 C 0.30733 0.66122 0.37814 0.0
C168 C 0.30159 0.655 0.34474 0.0
N169 N 0.3547 0.68049 0.39105 0.0
N170 N 0.34556 0.67079 0.33677 0.0
H171 H 0.41597 0.70138 0.36777 0.0
H172 H 0.27901 0.65326 0.39183 0.0
C173 C 0.30987 0.63843 0.4765 0.0
O174 O 0.34492 0.64362 0.49929 0.0
N175 N 0.41571 0.72073 0.48154 0.0
C176 C 0.45914 0.72883 0.4961 0.0
C177 C 0.4726 0.75231 0.52594 0.0
C178 C 0.40393 0.74019 0.50252 0.0
N179 N 0.43795 0.75961 0.52988 0.0
C180 C 0.45032 0.67333 0.43025 0.0
C181 C 0.39768 0.59107 0.4522 0.0
C182 C 0.44673 0.60912 0.45069 0.0
C183 C 0.47196 0.64965 0.43745 0.0
C184 C 0.37714 0.61561 0.44406 0.0
N185 N 0.40493 0.65805 0.43636 0.0
H186 H 0.47181 0.70556 0.42199 0.0
H187 H 0.33932 0.60038 0.44492 0.0
H188 H 0.48126 0.72075 0.48544 0.0
H189 H 0.37137 0.74062 0.49746 0.0
O190 O 0.4414 0.75165 0.42469 0.0
O191 O 0.37627 0.74876 0.43402 0.0
O192 O 0.31963 0.65573 0.44962 0.0
C193 C 0.42026 0.77247 0.42812 0.0
H194 H 0.26785 0.64138 0.32759 0.0
H195 H 0.50631 0.76457 0.54279 0.0
H196 H 0.3757 0.55919 0.46106 0.0
H197 H 0.50897 0.66404 0.43389 0.0
C198 C 0.2396 0.11627 0.22221 0.0
C199 C 0.20221 0.07868 0.20157 0.0
C200 C 0.28722 0.13976 0.21601 0.0
C201 C 0.35779 0.15557 0.14973 0.0
H202 H 0.46758 0.21176 0.22124 0.0
C203 C 0.55561 0.27384 0.12829 0.0
C204 C 0.59312 0.27404 0.14912 0.0
C205 C 0.50796 0.24974 0.13445 0.0
C206 C 0.43746 0.19591 0.20088 0.0
H207 H 0.18604 0.03575 0.15864 0.0
H208 H 0.26888 0.07562 0.14844 0.0
H209 H 0.38555 0.16944 0.23277 0.0
H210 H 0.60944 0.24802 0.19242 0.0
H211 H 0.52661 0.20514 0.20257 0.0
H212 H 0.40973 0.18068 0.11785 0.0
C213 C 0.26144 0.0879 0.16893 0.0
C214 C 0.39015 0.17209 0.20754 0.0
C215 C 0.21381 0.06472 0.17495 0.0
C216 C 0.5816 0.24893 0.17594 0.0
C217 C 0.53397 0.22453 0.18194 0.0
C218 C 0.40512 0.1791 0.14307 0.0
C219 C 0.29885 0.12607 0.18916 0.0
C220 C 0.34952 0.15153 0.18208 0.0
C221 C 0.49643 0.22486 0.16149 0.0
C222 C 0.44574 0.19967 0.16854 0.0
H223 H 0.23193 0.12817 0.2428 0.0
H224 H 0.31466 0.16926 0.23193 0.0
H225 H 0.32766 0.1409 0.12937 0.0
H226 H 0.56319 0.29306 0.10754 0.0
H227 H 0.48041 0.25146 0.11835 0.0
C228 C 0.96394 0.07645 0.24874 0.0
C229 C 1.01503 0.1021 0.254 0.0
C230 C 0.93755 0.09501 0.23765 0.0
C231 C 0.94378 0.199 0.22822 0.0
H232 H 0.84645 0.13467 0.15046 0.0
C233 C 0.857 0.27809 0.1503 0.0
C234 C 0.80789 0.25137 0.13497 0.0
C235 C 0.88121 0.25948 0.16576 0.0
C236 C 0.8728 0.15281 0.17246 0.0
H237 H 0.07844 0.16807 0.25379 0.0
H238 H 1.03224 0.20076 0.23525 0.0
H239 H 0.88965 0.10361 0.17827 0.0
H240 H 0.74626 0.18341 0.12379 0.0
H241 H 0.78776 0.15116 0.15197 0.0
H242 H 0.92658 0.24786 0.22294 0.0
C243 C 1.01268 0.16617 0.23944 0.0
C244 C 0.89769 0.13498 0.18836 0.0
C245 C 1.03914 0.14746 0.25015 0.0
C246 C 0.78383 0.20528 0.13554 0.0
C247 C 0.80796 0.18665 0.15141 0.0
C248 C 0.91842 0.21659 0.21259 0.0
C249 C 0.96162 0.13977 0.23201 0.0
C250 C 0.93369 0.15801 0.21627 0.0
C251 C 0.85698 0.21353 0.16692 0.0
C252 C 0.88286 0.19397 0.18426 0.0
H253 H 0.94414 0.04137 0.25135 0.0
H254 H 0.89823 0.074 0.23257 0.0
H255 H 0.97105 0.21732 0.24983 0.0
H256 H 0.87681 0.31374 0.15111 0.0
H257 H 0.91913 0.28137 0.17679 0.0
C258 C 0.83331 0.50735 0.10444 0.0
C259 C 0.78224 0.48293 0.0973 0.0
C260 C 0.86007 0.55256 0.11473 0.0
C261 C 0.85768 0.65242 0.11619 0.0
H262 H 0.9448 0.68687 0.19949 0.0
C263 C 0.93942 0.82192 0.18715 0.0
C264 C 0.986 0.84331 0.20674 0.0
C265 C 0.91646 0.77883 0.17258 0.0
C266 C 0.92147 0.67828 0.17592 0.0
H267 H 0.71937 0.48728 0.0937 0.0
H268 H 0.76636 0.56675 0.11058 0.0
H269 H 0.90227 0.61129 0.17423 0.0
H270 H 1.04477 0.83517 0.22595 0.0
H271 H 1.00587 0.76097 0.19918 0.0
H272 H 0.87744 0.71931 0.11719 0.0
C273 C 0.78554 0.55068 0.10853 0.0
C274 C 0.8969 0.63479 0.16153 0.0
C275 C 0.75867 0.50524 0.09881 0.0
C276 C 1.00915 0.82023 0.2109 0.0
C277 C 0.98641 0.7772 0.19584 0.0
C278 C 0.8829 0.69613 0.13026 0.0
C279 C 0.83641 0.57449 0.11752 0.0
C280 C 0.86438 0.62131 0.1317 0.0
C281 C 0.93962 0.75579 0.17647 0.0
C282 C 0.91471 0.70964 0.1606 0.0
H283 H 0.8526 0.49112 0.10383 0.0
H284 H 0.89926 0.57021 0.12126 0.0
H285 H 0.83315 0.64299 0.09304 0.0
H286 H 0.92055 0.83859 0.18256 0.0
H287 H 0.88019 0.76353 0.15844 0.0
C288 C 0.16284 0.18166 0.76892 0.0
C289 C 0.11174 0.15691 0.7625 0.0
C290 C 0.18946 0.22664 0.78001 0.0
C291 C 0.18396 0.32525 0.78716 0.0
H292 H 0.27835 0.35844 0.86665 0.0
C293 C 0.26767 0.49129 0.86414 0.0
C294 C 0.31652 0.51384 0.88003 0.0
C295 C 0.24395 0.44836 0.84897 0.0
C296 C 0.25281 0.35014 0.84418 0.0
H297 H 1.04868 0.16062 0.76079 0.0
H298 H 0.09525 0.23946 0.77926 0.0
H299 H 0.23597 0.28403 0.83918 0.0
H300 H 0.37816 0.50768 0.89269 0.0
H301 H 0.33751 0.43367 0.86512 0.0
H302 H 0.20105 0.39131 0.79171 0.0
C303 C 0.11467 0.22395 0.77598 0.0
C304 C 0.22842 0.30736 0.82845 0.0
C305 C 0.08799 0.1788 0.76533 0.0
C306 C 0.34078 0.49183 0.88045 0.0
C307 C 0.31715 0.44896 0.86492 0.0
C308 C 0.20878 0.36822 0.80265 0.0
C309 C 0.16562 0.24802 0.78445 0.0
C310 C 0.19344 0.29432 0.79992 0.0
C311 C 0.26844 0.42668 0.84875 0.0
C312 C 0.24322 0.38121 0.83161 0.0
H313 H 0.1823 0.16579 0.76726 0.0
H314 H 0.22871 0.24446 0.78597 0.0
H315 H 0.15751 0.31628 0.76506 0.0
H316 H 0.24776 0.50711 0.86266 0.0
H317 H 0.20623 0.4322 0.83739 0.0
C318 C 0.54143 0.75137 0.83303 0.0
C319 C 0.53166 0.75145 0.86468 0.0
C320 C 0.58925 0.77519 0.82736 0.0
C321 C 0.71512 0.86646 0.86517 0.0
H322 H 0.75108 0.82179 0.79784 0.0
C323 C 0.91478 0.9456 0.84959 0.0
C324 C 0.92462 0.95219 0.81771 0.0
C325 C 0.86691 0.92086 0.85507 0.0
C326 C 0.7415 0.83489 0.81653 0.0
H327 H 0.56494 0.77612 0.91533 0.0
H328 H 0.64828 0.8166 0.90569 0.0
H329 H 0.66824 0.77853 0.8085 0.0
H330 H 0.89152 0.93733 0.76651 0.0
H331 H 0.80778 0.89361 0.77609 0.0
H332 H 0.7888 0.92243 0.87353 0.0
C333 C 0.61895 0.79903 0.885 0.0
C334 C 0.69389 0.81014 0.82264 0.0
C335 C 0.57104 0.77551 0.89061 0.0
C336 C 0.88529 0.93298 0.79137 0.0
C337 C 0.8373 0.90773 0.79685 0.0
C338 C 0.76282 0.89096 0.85927 0.0
C339 C 0.6288 0.7995 0.85324 0.0
C340 C 0.6799 0.82558 0.84702 0.0
C341 C 0.82755 0.90162 0.8288 0.0
C342 C 0.77661 0.87553 0.83485 0.0
H343 H 0.51204 0.73356 0.81238 0.0
H344 H 0.59502 0.77521 0.8025 0.0
H345 H 0.70576 0.88004 0.88366 0.0
H346 H 0.94412 0.96001 0.87049 0.0
H347 H 0.86072 0.91644 0.87994 0.0
C348 C 0.19023 0.95381 0.81692 0.0
C349 C 0.1405 0.92715 0.80296 0.0
C350 C 0.21486 0.9351 0.83149 0.0
C351 C 0.19638 0.83762 0.87083 0.0
H352 H 0.32344 0.87669 0.8522 0.0
C353 C 0.29544 0.74944 0.91141 0.0
C354 C 0.34651 0.77456 0.91765 0.0
C355 C 0.26997 0.76896 0.90048 0.0
C356 C 0.28843 0.86592 0.85826 0.0
H357 H 0.07819 0.85931 0.79324 0.0
H358 H 0.12115 0.82688 0.81938 0.0
H359 H 0.27969 0.908 0.82595 0.0
H360 H 0.41084 0.84046 0.9195 0.0
H361 H 0.36661 0.87491 0.90183 0.0
H362 H 0.20529 0.79595 0.9035 0.0
C363 C 0.14083 0.86241 0.81901 0.0
C364 C 0.26319 0.88373 0.84297 0.0
C365 C 0.11621 0.88109 0.80406 0.0
C366 C 0.37149 0.82017 0.91483 0.0
C367 C 0.34605 0.83979 0.90424 0.0
C368 C 0.22185 0.82007 0.88642 0.0
C369 C 0.19044 0.88924 0.83292 0.0
C370 C 0.21684 0.86975 0.849 0.0
C371 C 0.29498 0.81419 0.8958 0.0
C372 C 0.26826 0.83394 0.88032 0.0
H373 H 0.2101 0.98943 0.81743 0.0
H374 H 0.25291 0.95675 0.84238 0.0
H375 H 0.16096 0.82657 0.87629 0.0
H376 H 0.27507 0.71411 0.91299 0.0
H377 H 0.23076 0.748 0.89405 0.0
C378 C 0.90426 0.45254 0.55339 0.0
C379 C 0.86703 0.41488 0.53274 0.0
C380 C 0.95194 0.47616 0.54732 0.0
C381 C 1.02316 0.49238 0.48142 0.0
H382 H 0.13244 0.54813 0.55329 0.0
C383 C 0.22134 0.61112 0.46087 0.0
C384 C 0.25869 0.61107 0.48171 0.0
C385 C 0.1736 0.58693 0.46686 0.0
C386 C 0.10246 0.53241 0.53284 0.0
H387 H 0.85124 0.37207 0.48982 0.0
H388 H 0.9342 0.41223 0.47982 0.0
H389 H 0.0502 0.50567 0.56447 0.0
H390 H 0.27465 0.58457 0.52483 0.0
H391 H 0.19165 0.54156 0.53469 0.0
H392 H 0.07545 0.5178 0.44978 0.0
C393 C 0.92656 0.42441 0.50026 0.0
C394 C 0.05503 0.50851 0.5393 0.0
C395 C 0.87886 0.40107 0.50616 0.0
C396 C 0.24694 0.58565 0.50835 0.0
C397 C 0.19921 0.56118 0.51418 0.0
C398 C 0.07059 0.51601 0.47496 0.0
C399 C 0.96382 0.46256 0.52056 0.0
C400 C 1.01459 0.48811 0.51369 0.0
C401 C 0.16182 0.56172 0.49372 0.0
C402 C 0.11103 0.53642 0.50056 0.0
H403 H 0.89643 0.46437 0.57393 0.0
H404 H 0.97925 0.50566 0.56328 0.0
H405 H 0.99317 0.47782 0.46096 0.0
H406 H 0.2291 0.63059 0.44026 0.0
H407 H 0.14617 0.58882 0.45077 0.0
C408 C 0.62701 0.4102 0.57627 0.0
C409 C 0.6781 0.43648 0.58226 0.0
C410 C 0.60024 0.42837 0.56502 0.0
C411 C 0.60563 0.53221 0.55722 0.0
H412 H 0.50995 0.47006 0.4784 0.0
C413 C 0.52137 0.61395 0.48045 0.0
C414 C 0.47238 0.58775 0.46482 0.0
C415 C 0.5451 0.59472 0.49552 0.0
C416 C 0.53585 0.48757 0.5007 0.0
H417 H 0.74107 0.50294 0.58289 0.0
H418 H 0.69425 0.53491 0.5641 0.0
H419 H 0.55264 0.43826 0.50579 0.0
H420 H 0.41047 0.52007 0.45257 0.0
H421 H 0.45116 0.48668 0.48005 0.0
H422 H 0.58857 0.5812 0.55263 0.0
C423 C 0.67495 0.50018 0.56788 0.0
C424 C 0.56042 0.46931 0.51636 0.0
C425 C 0.70176 0.48188 0.57868 0.0
C426 C 0.44797 0.54153 0.4646 0.0
C427 C 0.47161 0.52227 0.48007 0.0
C428 C 0.58062 0.55022 0.54182 0.0
C429 C 0.62395 0.47334 0.55998 0.0
C430 C 0.5959 0.49162 0.54462 0.0
C431 C 0.52047 0.54863 0.49597 0.0
C432 C 0.54575 0.52844 0.51309 0.0
H433 H 0.60764 0.37504 0.57853 0.0
H434 H 0.56096 0.407 0.55948 0.0
H435 H 0.63245 0.54995 0.57913 0.0
H436 H 0.54143 0.64965 0.48183 0.0
H437 H 0.58293 0.61622 0.50686 0.0
C438 C 0.42452 0.84318 0.43618 0.0
C439 C 0.44818 0.82137 0.43269 0.0
C440 C 0.45133 0.88828 0.44699 0.0
C441 C 0.56573 0.9719 0.49862 0.0
H442 H 0.53785 0.0556 0.46201 0.0
C443 C 0.67809 0.15658 0.55026 0.0
C444 C 0.6537 0.17846 0.54988 0.0
C445 C 0.65451 0.11366 0.53482 0.0
C446 C 0.54572 0.03258 0.47292 0.0
H447 H 0.51863 0.83021 0.43661 0.0
H448 H 0.5653 0.90882 0.45566 0.0
H449 H 0.49399 0.98043 0.43561 0.0
H450 H 0.58472 0.17142 0.5326 0.0
H451 H 0.5433 0.09648 0.50763 0.0
H452 H 0.61609 1.02319 0.53658 0.0
C453 C 0.52603 0.89099 0.45005 0.0
C454 C 0.52072 0.98954 0.45757 0.0
C455 C 0.49926 0.84606 0.43879 0.0
C456 C 0.60477 0.15573 0.53411 0.0
C457 C 0.5811 0.11276 0.51907 0.0
C458 C 0.59028 1.01476 0.51423 0.0
C459 C 0.50232 0.91234 0.45497 0.0
C460 C 0.53036 0.9587 0.47029 0.0
C461 C 0.60571 0.09122 0.51879 0.0
C462 C 0.58048 0.04572 0.50172 0.0
H463 H 0.38521 0.82502 0.43189 0.0
H464 H 0.43203 0.90378 0.45067 0.0
H465 H 0.57343 0.94864 0.50927 0.0
H466 H 0.71554 0.17257 0.56239 0.0
H467 H 0.67495 0.09847 0.53497 0.0
C468 C 0.06446 0.03453 0.63155 0.0
C469 C 1.0186 1.00238 0.63848 0.0
C470 C 0.07343 0.0368 0.59966 0.0
C471 C 1.01045 1.00437 0.51356 0.0
H472 H 0.13451 0.03069 0.49729 0.0
C473 C 0.05053 1.00251 0.38288 0.0
C474 C 0.09678 0.03636 0.37762 0.0
C475 C 1.03987 0.99671 0.41446 0.0
C476 C 0.09982 1.02373 0.50142 0.0
H477 H 0.94674 0.94654 0.61729 0.0
H478 H 0.9624 0.95043 0.56176 0.0
H479 H 0.11853 1.02349 0.55282 0.0
H480 H 0.16744 0.09159 0.40154 0.0
H481 H 0.14897 0.08152 0.4562 0.0
H482 H 0.99189 1.00488 0.46212 0.0
C483 C 0.99117 0.97442 0.5809 0.0
C484 C 0.09067 1.01961 0.53329 0.0
C485 C 0.98221 0.97216 0.61278 0.0
C486 C 0.13183 0.06453 0.40465 0.0
C487 C 0.12122 0.05876 0.4361 0.0
C488 C 1.01962 1.0085 0.48165 0.0
C489 C 1.0368 1.00695 0.57389 0.0
C490 C 1.04599 1.01014 0.53981 0.0
C491 C 0.07524 1.02464 0.44148 0.0
C492 C 0.06457 1.01856 0.47521 0.0
H493 H 0.09312 0.05877 0.65057 0.0
H494 H 0.10879 0.06269 0.59508 0.0
H495 H 0.97588 0.99765 0.51774 0.0
H496 H 1.02283 0.98002 0.36268 0.0
H497 H 1.00421 0.96984 0.41776 0.0
C498 C 0.65613 0.30304 0.94521 0.0
C499 C 0.69067 0.33423 0.97114 0.0
C500 C 0.66586 0.30697 0.91347 0.0
C501 C 0.76676 0.3623 0.86658 0.0
H502 H 0.66369 0.33661 0.7947 0.0
C503 C 0.80326 0.41203 0.73751 0.0
C504 C 0.77066 0.38145 0.71066 0.0
C505 C 0.79317 0.40458 0.76906 0.0
C506 C 0.69271 0.34341 0.81445 0.0
H507 H 0.76255 0.39416 0.98385 0.0
H508 H 0.77943 0.40129 0.92857 0.0
H509 H 0.64709 0.32686 0.85012 0.0
H510 H 0.7018 0.31865 0.69641 0.0
H511 H 0.68403 0.30592 0.75148 0.0
H512 H 0.81252 0.37947 0.83089 0.0
C513 C 0.74509 0.37324 0.93282 0.0
C514 C 0.68321 0.33778 0.84627 0.0
C515 C 0.73543 0.36918 0.96459 0.0
C516 C 0.72751 0.34324 0.71631 0.0
C517 C 0.71731 0.33589 0.74793 0.0
C518 C 0.7763 0.36811 0.8348 0.0
C519 C 0.71033 0.34231 0.90679 0.0
C520 C 0.72016 0.34732 0.87279 0.0
C521 C 0.75009 0.36644 0.77469 0.0
C522 C 0.73946 0.35894 0.80836 0.0
H523 H 0.62159 0.27537 0.94948 0.0
H524 H 0.63857 0.28207 0.89418 0.0
H525 H 0.79589 0.36921 0.88627 0.0
H526 H 0.83637 0.44225 0.73424 0.0
H527 H 0.8188 0.42917 0.78904 0.0
C528 C 0.40177 0.70698 0.29772 0.0
C529 C 0.3564 0.67318 0.30429 0.0
C530 C 0.41137 0.71038 0.26594 0.0
C531 C 0.34916 0.67567 0.17939 0.0
H532 H 0.47714 0.71259 0.16394 0.0
C533 C 0.39216 0.67784 0.04933 0.0
C534 C 0.43606 0.71511 0.04361 0.0
C535 C 0.38198 0.67103 0.08099 0.0
C536 C 0.4413 0.70256 0.16786 0.0
H537 H 0.28615 0.61561 0.28267 0.0
H538 H 0.303 0.62115 0.22739 0.0
H539 H 0.4606 0.70358 0.21937 0.0
H540 H 0.50316 0.77483 0.06714 0.0
H541 H 0.48562 0.76267 0.12197 0.0
H542 H 0.32994 0.67459 0.1278 0.0
C543 C 0.33084 0.6457 0.24665 0.0
C544 C 0.43182 0.69747 0.19968 0.0
C545 C 0.32118 0.64245 0.27839 0.0
C546 C 0.46943 0.74528 0.07044 0.0
C547 C 0.45936 0.73836 0.10202 0.0
C548 C 0.3586 0.68058 0.14755 0.0
C549 C 0.37594 0.67992 0.23993 0.0
C550 C 0.38571 0.68422 0.20591 0.0
C551 C 0.41553 0.7012 0.10772 0.0
C552 C 0.40488 0.69437 0.14142 0.0
H553 H 0.42946 0.73158 0.31697 0.0
H554 H 0.44624 0.73757 0.26167 0.0
H555 H 0.31345 0.6661 0.18326 0.0
H556 H 0.36582 0.65359 0.02945 0.0
H557 H 0.34808 0.6418 0.08458 0.0
C558 C 1.01618 0.09017 0.10223 0.0
C559 C 0.0522 0.0992 0.1292 0.0
C560 C 1.02807 0.11554 0.07589 0.0
C561 C 0.13277 0.17464 0.03647 0.0
H562 H 1.04038 0.18028 0.97142 0.0
C563 C 0.14801 0.16552 0.90481 0.0
C564 C 0.10441 0.12969 0.88698 0.0
C565 C 0.14805 0.18508 0.93369 0.0
C566 C 0.06693 0.17952 0.98945 0.0
H567 H 0.12841 0.14522 0.15066 0.0
H568 H 0.14846 0.18982 0.10533 0.0
H569 H 1.02789 0.17218 0.0279 0.0
H570 H 1.02633 0.08874 0.88364 0.0
H571 H 1.02628 0.12162 0.93434 0.0
H572 H 0.16986 0.17853 0.99808 0.0
C573 C 0.11123 0.16237 0.10422 0.0
C574 C 0.05975 0.17482 0.02175 0.0
C575 C 0.0995 0.1367 0.13039 0.0
C576 C 0.06045 0.11629 0.89695 0.0
C577 C 0.06048 0.13549 0.92595 0.0
C578 C 0.13992 0.17932 1.00432 0.0
C579 C 0.07619 0.15083 0.07605 0.0
C580 C 0.09103 0.16961 0.04512 0.0
C581 C 0.10452 0.1687 0.94543 0.0
C582 C 0.10544 0.179 0.98008 0.0
H583 H 0.97908 0.06248 0.10073 0.0
H584 H 1.0001 0.10547 0.05453 0.0
H585 H 0.15756 0.17053 0.05368 0.0
H586 H 0.18226 0.17724 0.89708 0.0
H587 H 0.18246 0.21122 0.94782 0.0
C588 C 0.79614 0.45058 0.25431 0.0
C589 C 0.76937 0.4463 0.22351 0.0
C590 C 0.79035 0.46781 0.28179 0.0
C591 C 0.69392 0.46695 0.31125 0.0
H592 H 0.79178 0.51506 0.39 0.0
C593 C 0.71946 0.45493 0.45944 0.0
C594 C 0.68963 0.40849 0.45699 0.0
C595 C 0.72501 0.47734 0.4315 0.0
C596 C 0.7639 0.50278 0.36834 0.0
H597 H 0.71883 0.46074 0.19708 0.0
H598 H 0.70784 0.48997 0.24545 0.0
H599 H 0.81669 0.52805 0.33714 0.0
H600 H 0.63992 0.34958 0.42346 0.0
H601 H 0.64968 0.38815 0.37516 0.0
H602 H 0.64115 0.43968 0.34247 0.0
C603 C 0.73303 0.47956 0.2482 0.0
C604 C 0.77824 0.50988 0.33799 0.0
C605 C 0.73899 0.4624 0.22056 0.0
C606 C 0.66295 0.38528 0.42636 0.0
C607 C 0.66833 0.40758 0.39856 0.0
C608 C 0.67956 0.46021 0.34159 0.0
C609 C 0.75756 0.48117 0.27924 0.0
C610 C 0.74341 0.48899 0.30929 0.0
C611 C 0.70061 0.45372 0.40064 0.0
C612 C 0.71446 0.47502 0.37034 0.0
H613 H 0.81957 0.43831 0.25761 0.0
H614 H 0.80912 0.46767 0.30536 0.0
H615 H 0.66607 0.45073 0.28961 0.0
H616 H 0.73951 0.47396 0.48279 0.0
H617 H 0.74978 0.51294 0.43388 0.0
C618 C 0.40885 0.8009 0.55492 0.0
C619 C 0.43724 0.78276 0.55767 0.0
C620 C 0.40408 0.81887 0.58268 0.0
C621 C 0.44975 0.84793 0.67255 0.0
H622 H 0.31274 0.78398 0.67695 0.0
C623 C 0.32971 0.72663 0.76048 0.0
C624 C 0.35713 0.7491 0.79118 0.0
C625 C 0.33643 0.74931 0.73282 0.0
C626 C 0.3512 0.80279 0.6761 0.0
H627 H 0.48509 0.77175 0.59157 0.0
H628 H 0.47665 0.80246 0.63957 0.0
H629 H 0.33756 0.79343 0.62411 0.0
H630 H 0.40983 0.81396 0.81721 0.0
H631 H 0.42245 0.8535 0.76853 0.0
H632 H 0.4631 0.85284 0.72456 0.0
C633 C 0.45859 0.80363 0.61606 0.0
C634 C 0.36552 0.80862 0.64576 0.0
C635 C 0.46321 0.78562 0.58844 0.0
C636 C 0.3891 0.79539 0.79383 0.0
C637 C 0.39601 0.81816 0.76601 0.0
C638 C 0.4354 0.84173 0.70288 0.0
C639 C 0.42781 0.81923 0.61367 0.0
C640 C 0.41474 0.82829 0.64382 0.0
C641 C 0.37084 0.79509 0.73507 0.0
C642 C 0.3858 0.81614 0.70486 0.0
H643 H 0.38939 0.80032 0.53146 0.0
H644 H 0.38045 0.831 0.58006 0.0
H645 H 0.48806 0.86434 0.67171 0.0
H646 H 0.30503 0.69107 0.75735 0.0
H647 H 0.31706 0.73025 0.70935 0.0
loop_
_geom_bond_atom_site_label_1
_geom_bond_atom_site_label_2
_geom_bond_distance
_geom_bond_site_symmetry_2
_ccdc_geom_bond_type
Co0 N4 2.148 . S
Co0 N10 2.128 . S
Co0 N20 2.194 1_445 S
Co0 O25 2.351 1_455 S
Co0 O26 2.155 . S
Co0 O27 2.096 . S
C1 N4 1.301 . S
C1 N5 1.328 . S
C1 H6 0.930 1_455 S
C2 C3 1.333 . S
C2 N4 1.317 . S
C2 H7 0.930 . S
C3 C2 1.333 . S
C3 N5 1.350 . S
C3 H29 0.931 . S
N4 Co0 2.148 . S
N4 C1 1.301 . S
N4 C2 1.317 . S
N5 C1 1.328 . S
N5 C3 1.350 . S
H6 C1 0.930 1_655 S
H7 C2 0.930 . S
C8 O9 1.224 . S
C8 O27 1.247 . S
O9 C8 1.224 . S
N10 Co0 2.128 . S
N10 C11 1.355 1_445 S
N10 C13 1.311 . S
C11 N10 1.355 1_665 S
C11 C12 1.363 . S
C11 H23 0.929 . S
C12 C11 1.363 . S
C12 N14 1.375 1_665 S
C12 H30 0.931 . S
C13 N10 1.311 . S
C13 N14 1.347 . S
C13 H24 0.929 . S
N14 C12 1.375 1_445 S
N14 C13 1.347 . S
C15 C18 1.365 . S
C15 N20 1.328 . S
C15 H21 0.929 . S
C16 C17 1.362 . S
C16 C19 1.378 1_655 S
C16 H31 0.929 1_655 S
C17 C16 1.362 . S
C17 C18 1.366 . S
C18 C15 1.365 . S
C18 C17 1.366 . S
C18 H32 0.930 . S
C19 C16 1.378 1_455 S
C19 N20 1.315 1_455 S
C19 H22 0.930 . S
N20 Co0 2.194 1_665 S
N20 C15 1.328 . S
N20 C19 1.315 1_655 S
H21 C15 0.929 . S
H22 C19 0.930 . S
H23 C11 0.929 . S
H24 C13 0.929 . S
O25 Co0 2.351 1_655 S
O25 C28 1.244 . S
O26 Co0 2.155 . S
O26 C28 1.240 1_455 S
O27 Co0 2.096 . S
O27 C8 1.247 . S
C28 O25 1.244 . S
C28 O26 1.240 1_655 S
H29 C3 0.931 . S
H30 C12 0.931 . S
H31 C16 0.929 1_455 S
H32 C18 0.930 . S
Co33 N37 2.148 1_455 S
Co33 N43 2.128 . S
Co33 N53 2.194 1_545 S
Co33 O58 2.351 . S
Co33 O59 2.155 . S
Co33 O60 2.096 1_445 S
C34 N37 1.301 1_455 S
C34 N38 1.328 1_455 S
C34 H39 0.930 . S
C35 C36 1.333 . S
C35 N37 1.317 1_565 S
C35 H40 0.930 . S
C36 C35 1.333 . S
C36 N38 1.350 1_565 S
C36 H62 0.931 . S
N37 Co33 2.148 1_655 S
N37 C34 1.301 1_655 S
N37 C35 1.317 1_545 S
N38 C34 1.328 1_655 S
N38 C36 1.350 1_545 S
H39 C34 0.930 . S
H40 C35 0.930 . S
C41 O42 1.224 . S
C41 O60 1.247 . S
O42 C41 1.224 . S
N43 Co33 2.128 . S
N43 C44 1.355 . S
N43 C46 1.311 1_455 S
C44 N43 1.355 . S
C44 C45 1.363 . S
C44 H56 0.929 . S
C45 C44 1.363 . S
C45 N47 1.375 . S
C45 H63 0.931 . S
C46 N43 1.311 1_655 S
C46 N47 1.347 1_655 S
C46 H57 0.929 . S
N47 C45 1.375 . S
N47 C46 1.347 1_455 S
C48 C51 1.365 1_545 S
C48 N53 1.328 1_545 S
C48 H54 0.929 . S
C49 C50 1.362 . S
C49 C52 1.378 . S
C49 H64 0.929 . S
C50 C49 1.362 . S
C50 C51 1.366 . S
C51 C48 1.365 1_565 S
C51 C50 1.366 . S
C51 H65 0.930 . S
C52 C49 1.378 . S
C52 N53 1.315 . S
C52 H55 0.930 1_455 S
N53 Co33 2.194 1_565 S
N53 C48 1.328 1_565 S
N53 C52 1.315 . S
H54 C48 0.929 . S
H55 C52 0.930 1_655 S
H56 C44 0.929 . S
H57 C46 0.929 . S
O58 Co33 2.351 . S
O58 C61 1.244 . S
O59 Co33 2.155 . S
O59 C61 1.240 . S
O60 Co33 2.096 1_665 S
O60 C41 1.247 . S
C61 O58 1.244 . S
C61 O59 1.240 . S
H62 C36 0.931 . S
H63 C45 0.931 . S
H64 C49 0.929 . S
H65 C51 0.930 . S
Co66 N70 2.148 . S
Co66 N76 2.128 . S
Co66 N86 2.194 . S
Co66 O91 2.351 . S
Co66 O92 2.155 . S
Co66 O93 2.096 . S
C67 N70 1.301 . S
C67 N71 1.328 . S
C67 H72 0.930 . S
C68 C69 1.333 . S
C68 N70 1.317 . S
C68 H73 0.930 . S
C69 C68 1.333 . S
C69 N71 1.350 . S
C69 H95 0.931 . S
N70 Co66 2.148 . S
N70 C67 1.301 . S
N70 C68 1.317 . S
N71 C67 1.328 . S
N71 C69 1.350 . S
H72 C67 0.930 . S
H73 C68 0.930 . S
C74 O75 1.224 . S
C74 O93 1.247 . S
O75 C74 1.224 . S
N76 Co66 2.128 . S
N76 C77 1.355 . S
N76 C79 1.311 . S
C77 N76 1.355 . S
C77 C78 1.363 . S
C77 H89 0.929 . S
C78 C77 1.363 . S
C78 N80 1.375 . S
C78 H96 0.931 . S
C79 N76 1.311 . S
C79 N80 1.347 . S
C79 H90 0.929 . S
N80 C78 1.375 . S
N80 C79 1.347 . S
C81 C84 1.365 . S
C81 N86 1.328 . S
C81 H87 0.929 . S
C82 C83 1.362 . S
C82 C85 1.378 . S
C82 H97 0.929 . S
C83 C82 1.362 . S
C83 C84 1.366 . S
C84 C81 1.365 . S
C84 C83 1.366 . S
C84 H98 0.930 . S
C85 C82 1.378 . S
C85 N86 1.315 . S
C85 H88 0.930 . S
N86 Co66 2.194 . S
N86 C81 1.328 . S
N86 C85 1.315 . S
H87 C81 0.929 . S
H88 C85 0.930 . S
H89 C77 0.929 . S
H90 C79 0.929 . S
O91 Co66 2.351 . S
O91 C94 1.244 . S
O92 Co66 2.155 . S
O92 C94 1.240 . S
O93 Co66 2.096 . S
O93 C74 1.247 . S
C94 O91 1.244 . S
C94 O92 1.240 . S
H95 C69 0.931 . S
H96 C78 0.931 . S
H97 C82 0.929 . S
H98 C84 0.930 . S
Co99 N103 2.148 . S
Co99 N109 2.128 . S
Co99 N119 2.194 . S
Co99 O124 2.351 . S
Co99 O125 2.155 . S
Co99 O126 2.096 . S
C100 N103 1.301 . S
C100 N104 1.328 . S
C100 H105 0.930 . S
C101 C102 1.333 . S
C101 N103 1.317 . S
C101 H106 0.930 . S
C102 C101 1.333 . S
C102 N104 1.350 . S
C102 H128 0.931 . S
N103 Co99 2.148 . S
N103 C100 1.301 . S
N103 C101 1.317 . S
N104 C100 1.328 . S
N104 C102 1.350 . S
H105 C100 0.930 . S
H106 C101 0.930 . S
C107 O108 1.224 . S
C107 O126 1.247 . S
O108 C107 1.224 . S
N109 Co99 2.128 . S
N109 C110 1.355 . S
N109 C112 1.311 . S
C110 N109 1.355 . S
C110 C111 1.363 . S
C110 H122 0.929 . S
C111 C110 1.363 . S
C111 N113 1.375 . S
C111 H129 0.931 . S
C112 N109 1.311 . S
C112 N113 1.347 . S
C112 H123 0.929 . S
N113 C111 1.375 . S
N113 C112 1.347 . S
C114 C117 1.365 . S
C114 N119 1.328 . S
C114 H120 0.929 . S
C115 C116 1.362 . S
C115 C118 1.378 . S
C115 H130 0.929 . S
C116 C115 1.362 . S
C116 C117 1.366 . S
C117 C114 1.365 . S
C117 C116 1.366 . S
C117 H131 0.930 . S
C118 C115 1.378 . S
C118 N119 1.315 . S
C118 H121 0.930 . S
N119 Co99 2.194 . S
N119 C114 1.328 . S
N119 C118 1.315 . S
H120 C114 0.929 . S
H121 C118 0.930 . S
H122 C110 0.929 . S
H123 C112 0.929 . S
O124 Co99 2.351 . S
O124 C127 1.244 . S
O125 Co99 2.155 . S
O125 C127 1.240 . S
O126 Co99 2.096 . S
O126 C107 1.247 . S
C127 O124 1.244 . S
C127 O125 1.240 . S
H128 C102 0.931 . S
H129 C111 0.931 . S
H130 C115 0.929 . S
H131 C117 0.930 . S
Co132 N136 2.148 . S
Co132 N142 2.128 . S
Co132 N152 2.194 . S
Co132 O157 2.351 . S
Co132 O158 2.155 . S
Co132 O159 2.096 . S
C133 N136 1.301 . S
C133 N137 1.328 . S
C133 H138 0.930 . S
C134 C135 1.333 . S
C134 N136 1.317 . S
C134 H139 0.930 . S
C135 C134 1.333 . S
C135 N137 1.350 . S
C135 H161 0.931 . S
N136 Co132 2.148 . S
N136 C133 1.301 . S
N136 C134 1.317 . S
N137 C133 1.328 . S
N137 C135 1.350 . S
H138 C133 0.930 . S
H139 C134 0.930 . S
C140 O141 1.224 . S
C140 O159 1.247 . S
O141 C140 1.224 . S
N142 Co132 2.128 . S
N142 C143 1.355 . S
N142 C145 1.311 . S
C143 N142 1.355 . S
C143 C144 1.363 . S
C143 H155 0.929 . S
C144 C143 1.363 . S
C144 N146 1.375 . S
C144 H162 0.931 . S
C145 N142 1.311 . S
C145 N146 1.347 . S
C145 H156 0.929 . S
N146 C144 1.375 . S
N146 C145 1.347 . S
C147 C150 1.365 . S
C147 N152 1.328 . S
C147 H153 0.929 . S
C148 C149 1.362 . S
C148 C151 1.378 . S
C148 H163 0.929 . S
C149 C148 1.362 . S
C149 C150 1.366 . S
C150 C147 1.365 . S
C150 C149 1.366 . S
C150 H164 0.930 . S
C151 C148 1.378 . S
C151 N152 1.315 . S
C151 H154 0.930 . S
N152 Co132 2.194 . S
N152 C147 1.328 . S
N152 C151 1.315 . S
H153 C147 0.929 . S
H154 C151 0.930 . S
H155 C143 0.929 . S
H156 C145 0.929 . S
O157 Co132 2.351 . S
O157 C160 1.244 . S
O158 Co132 2.155 . S
O158 C160 1.240 . S
O159 Co132 2.096 . S
O159 C140 1.247 . S
C160 O157 1.244 . S
C160 O158 1.240 . S
H161 C135 0.931 . S
H162 C144 0.931 . S
H163 C148 0.929 . S
H164 C150 0.930 . S
Co165 N169 2.148 . S
Co165 N175 2.128 . S
Co165 N185 2.194 . S
Co165 O190 2.351 . S
Co165 O191 2.155 . S
Co165 O192 2.096 . S
C166 N169 1.301 . S
C166 N170 1.328 . S
C166 H171 0.930 . S
C167 C168 1.333 . S
C167 N169 1.317 . S
C167 H172 0.930 . S
C168 C167 1.333 . S
C168 N170 1.350 . S
C168 H194 0.931 . S
N169 Co165 2.148 . S
N169 C166 1.301 . S
N169 C167 1.317 . S
N170 C166 1.328 . S
N170 C168 1.350 . S
H171 C166 0.930 . S
H172 C167 0.930 . S
C173 O174 1.224 . S
C173 O192 1.247 . S
O174 C173 1.224 . S
N175 Co165 2.128 . S
N175 C176 1.355 . S
N175 C178 1.311 . S
C176 N175 1.355 . S
C176 C177 1.363 . S
C176 H188 0.929 . S
C177 C176 1.363 . S
C177 N179 1.375 . S
C177 H195 0.931 . S
C178 N175 1.311 . S
C178 N179 1.347 . S
C178 H189 0.929 . S
N179 C177 1.375 . S
N179 C178 1.347 . S
C180 C183 1.365 . S
C180 N185 1.328 . S
C180 H186 0.929 . S
C181 C182 1.362 . S
C181 C184 1.378 . S
C181 H196 0.929 . S
C182 C181 1.362 . S
C182 C183 1.366 . S
C183 C180 1.365 . S
C183 C182 1.366 . S
C183 H197 0.930 . S
C184 C181 1.378 . S
C184 N185 1.315 . S
C184 H187 0.930 . S
N185 Co165 2.194 . S
N185 C180 1.328 . S
N185 C184 1.315 . S
H186 C180 0.929 . S
H187 C184 0.930 . S
H188 C176 0.929 . S
H189 C178 0.929 . S
O190 Co165 2.351 . S
O190 C193 1.244 . S
O191 Co165 2.155 . S
O191 C193 1.240 . S
O192 Co165 2.096 . S
O192 C173 1.247 . S
C193 O190 1.244 . S
C193 O191 1.240 . S
H194 C168 0.931 . S
H195 C177 0.931 . S
H196 C181 0.929 . S
H197 C183 0.930 . S
C198 C199 1.349 . S
C198 C200 1.327 . S
C198 H223 0.950 . S
C199 C198 1.349 . S
C199 C215 1.349 . S
C200 C198 1.327 . S
C200 C219 1.429 . S
C200 H224 0.950 . S
C201 C218 1.574 . S
C201 C220 1.368 . S
C201 H225 0.949 . S
H202 C206 0.949 . S
C203 C204 1.349 . S
C203 C205 1.327 . S
C203 H226 0.950 . S
C204 C203 1.349 . S
C204 C216 1.349 . S
C205 C203 1.327 . S
C205 C221 1.429 . S
C205 H227 0.950 . S
C206 H202 0.949 . S
C206 C214 1.574 . S
C206 C222 1.368 . S
H207 C215 0.950 . S
H208 C213 0.950 . S
H209 C214 0.949 . S
H210 C216 0.950 . S
H211 C217 0.950 . S
H212 C218 0.949 . S
C213 H208 0.950 . S
C213 C215 1.327 . S
C213 C219 1.429 . S
C214 C206 1.574 . S
C214 H209 0.949 . S
C214 C220 1.368 . S
C215 C199 1.349 . S
C215 H207 0.950 . S
C215 C213 1.327 . S
C216 C204 1.349 . S
C216 H210 0.950 . S
C216 C217 1.327 . S
C217 H211 0.950 . S
C217 C216 1.327 . S
C217 C221 1.429 . S
C218 C201 1.574 . S
C218 H212 0.949 . S
C218 C222 1.368 . S
C219 C200 1.429 . S
C219 C213 1.429 . S
C219 C220 1.523 . S
C220 C201 1.368 . S
C220 C214 1.368 . S
C220 C219 1.523 . S
C221 C205 1.429 . S
C221 C217 1.429 . S
C221 C222 1.523 . S
C222 C206 1.368 . S
C222 C218 1.368 . S
C222 C221 1.523 . S
H223 C198 0.950 . S
H224 C200 0.950 . S
H225 C201 0.949 . S
H226 C203 0.950 . S
H227 C205 0.950 . S
C228 C229 1.349 . S
C228 C230 1.327 . S
C228 H253 0.950 . S
C229 C228 1.349 . S
C229 C245 1.349 . S
C230 C228 1.327 . S
C230 C249 1.429 . S
C230 H254 0.950 . S
C231 C248 1.574 . S
C231 C250 1.368 . S
C231 H255 0.949 . S
H232 C236 0.949 . S
C233 C234 1.349 . S
C233 C235 1.327 . S
C233 H256 0.950 . S
C234 C233 1.349 . S
C234 C246 1.349 . S
C235 C233 1.327 . S
C235 C251 1.429 . S
C235 H257 0.950 . S
C236 H232 0.949 . S
C236 C244 1.574 . S
C236 C252 1.368 . S
H237 C245 0.950 . S
H238 C243 0.950 . S
H239 C244 0.949 . S
H240 C246 0.950 . S
H241 C247 0.950 . S
H242 C248 0.949 . S
C243 H238 0.950 . S
C243 C245 1.327 . S
C243 C249 1.429 . S
C244 C236 1.574 . S
C244 H239 0.949 . S
C244 C250 1.368 . S
C245 C229 1.349 . S
C245 H237 0.950 . S
C245 C243 1.327 . S
C246 C234 1.349 . S
C246 H240 0.950 . S
C246 C247 1.327 . S
C247 H241 0.950 . S
C247 C246 1.327 . S
C247 C251 1.429 . S
C248 C231 1.574 . S
C248 H242 0.949 . S
C248 C252 1.368 . S
C249 C230 1.429 . S
C249 C243 1.429 . S
C249 C250 1.523 . S
C250 C231 1.368 . S
C250 C244 1.368 . S
C250 C249 1.523 . S
C251 C235 1.429 . S
C251 C247 1.429 . S
C251 C252 1.523 . S
C252 C236 1.368 . S
C252 C248 1.368 . S
C252 C251 1.523 . S
H253 C228 0.950 . S
H254 C230 0.950 . S
H255 C231 0.949 . S
H256 C233 0.950 . S
H257 C235 0.950 . S
C258 C259 1.349 . S
C258 C260 1.327 . S
C258 H283 0.950 . S
C259 C258 1.349 . S
C259 C275 1.349 . S
C260 C258 1.327 . S
C260 C279 1.429 . S
C260 H284 0.950 . S
C261 C278 1.574 . S
C261 C280 1.368 . S
C261 H285 0.949 . S
H262 C266 0.949 . S
C263 C264 1.349 . S
C263 C265 1.327 . S
C263 H286 0.950 . S
C264 C263 1.349 . S
C264 C276 1.349 . S
C265 C263 1.327 . S
C265 C281 1.429 . S
C265 H287 0.950 . S
C266 H262 0.949 . S
C266 C274 1.574 . S
C266 C282 1.368 . S
H267 C275 0.950 . S
H268 C273 0.950 . S
H269 C274 0.949 . S
H270 C276 0.950 . S
H271 C277 0.950 . S
H272 C278 0.949 . S
C273 H268 0.950 . S
C273 C275 1.327 . S
C273 C279 1.429 . S
C274 C266 1.574 . S
C274 H269 0.949 . S
C274 C280 1.368 . S
C275 C259 1.349 . S
C275 H267 0.950 . S
C275 C273 1.327 . S
C276 C264 1.349 . S
C276 H270 0.950 . S
C276 C277 1.327 . S
C277 H271 0.950 . S
C277 C276 1.327 . S
C277 C281 1.429 . S
C278 C261 1.574 . S
C278 H272 0.949 . S
C278 C282 1.368 . S
C279 C260 1.429 . S
C279 C273 1.429 . S
C279 C280 1.523 . S
C280 C261 1.368 . S
C280 C274 1.368 . S
C280 C279 1.523 . S
C281 C265 1.429 . S
C281 C277 1.429 . S
C281 C282 1.523 . S
C282 C266 1.368 . S
C282 C278 1.368 . S
C282 C281 1.523 . S
H283 C258 0.950 . S
H284 C260 0.950 . S
H285 C261 0.949 . S
H286 C263 0.950 . S
H287 C265 0.950 . S
C288 C289 1.349 . S
C288 C290 1.327 . S
C288 H313 0.950 . S
C289 C288 1.349 . S
C289 C305 1.349 . S
C290 C288 1.327 . S
C290 C309 1.429 . S
C290 H314 0.950 . S
C291 C308 1.574 . S
C291 C310 1.368 . S
C291 H315 0.949 . S
H292 C296 0.949 . S
C293 C294 1.349 . S
C293 C295 1.327 . S
C293 H316 0.950 . S
C294 C293 1.349 . S
C294 C306 1.349 . S
C295 C293 1.327 . S
C295 C311 1.429 . S
C295 H317 0.950 . S
C296 H292 0.949 . S
C296 C304 1.574 . S
C296 C312 1.368 . S
H297 C305 0.950 . S
H298 C303 0.950 . S
H299 C304 0.949 . S
H300 C306 0.950 . S
H301 C307 0.950 . S
H302 C308 0.949 . S
C303 H298 0.950 . S
C303 C305 1.327 . S
C303 C309 1.429 . S
C304 C296 1.574 . S
C304 H299 0.949 . S
C304 C310 1.368 . S
C305 C289 1.349 . S
C305 H297 0.950 . S
C305 C303 1.327 . S
C306 C294 1.349 . S
C306 H300 0.950 . S
C306 C307 1.327 . S
C307 H301 0.950 . S
C307 C306 1.327 . S
C307 C311 1.429 . S
C308 C291 1.574 . S
C308 H302 0.949 . S
C308 C312 1.368 . S
C309 C290 1.429 . S
C309 C303 1.429 . S
C309 C310 1.523 . S
C310 C291 1.368 . S
C310 C304 1.368 . S
C310 C309 1.523 . S
C311 C295 1.429 . S
C311 C307 1.429 . S
C311 C312 1.523 . S
C312 C296 1.368 . S
C312 C308 1.368 . S
C312 C311 1.523 . S
H313 C288 0.950 . S
H314 C290 0.950 . S
H315 C291 0.949 . S
H316 C293 0.950 . S
H317 C295 0.950 . S
C318 C319 1.349 . S
C318 C320 1.327 . S
C318 H343 0.950 . S
C319 C318 1.349 . S
C319 C335 1.349 . S
C320 C318 1.327 . S
C320 C339 1.429 . S
C320 H344 0.950 . S
C321 C338 1.574 . S
C321 C340 1.368 . S
C321 H345 0.949 . S
H322 C326 0.949 . S
C323 C324 1.349 . S
C323 C325 1.327 . S
C323 H346 0.950 . S
C324 C323 1.349 . S
C324 C336 1.349 . S
C325 C323 1.327 . S
C325 C341 1.429 . S
C325 H347 0.950 . S
C326 H322 0.949 . S
C326 C334 1.574 . S
C326 C342 1.368 . S
H327 C335 0.950 . S
H328 C333 0.950 . S
H329 C334 0.949 . S
H330 C336 0.950 . S
H331 C337 0.950 . S
H332 C338 0.949 . S
C333 H328 0.950 . S
C333 C335 1.327 . S
C333 C339 1.429 . S
C334 C326 1.574 . S
C334 H329 0.949 . S
C334 C340 1.368 . S
C335 C319 1.349 . S
C335 H327 0.950 . S
C335 C333 1.327 . S
C336 C324 1.349 . S
C336 H330 0.950 . S
C336 C337 1.327 . S
C337 H331 0.950 . S
C337 C336 1.327 . S
C337 C341 1.429 . S
C338 C321 1.574 . S
C338 H332 0.949 . S
C338 C342 1.368 . S
C339 C320 1.429 . S
C339 C333 1.429 . S
C339 C340 1.523 . S
C340 C321 1.368 . S
C340 C334 1.368 . S
C340 C339 1.523 . S
C341 C325 1.429 . S
C341 C337 1.429 . S
C341 C342 1.523 . S
C342 C326 1.368 . S
C342 C338 1.368 . S
C342 C341 1.523 . S
H343 C318 0.950 . S
H344 C320 0.950 . S
H345 C321 0.949 . S
H346 C323 0.950 . S
H347 C325 0.950 . S
C348 C349 1.349 . S
C348 C350 1.327 . S
C348 H373 0.950 . S
C349 C348 1.349 . S
C349 C365 1.349 . S
C350 C348 1.327 . S
C350 C369 1.429 . S
C350 H374 0.950 . S
C351 C368 1.574 . S
C351 C370 1.368 . S
C351 H375 0.949 . S
H352 C356 0.949 . S
C353 C354 1.349 . S
C353 C355 1.327 . S
C353 H376 0.950 . S
C354 C353 1.349 . S
C354 C366 1.349 . S
C355 C353 1.327 . S
C355 C371 1.429 . S
C355 H377 0.950 . S
C356 H352 0.949 . S
C356 C364 1.574 . S
C356 C372 1.368 . S
H357 C365 0.950 . S
H358 C363 0.950 . S
H359 C364 0.949 . S
H360 C366 0.950 . S
H361 C367 0.950 . S
H362 C368 0.949 . S
C363 H358 0.950 . S
C363 C365 1.327 . S
C363 C369 1.429 . S
C364 C356 1.574 . S
C364 H359 0.949 . S
C364 C370 1.368 . S
C365 C349 1.349 . S
C365 H357 0.950 . S
C365 C363 1.327 . S
C366 C354 1.349 . S
C366 H360 0.950 . S
C366 C367 1.327 . S
C367 H361 0.950 . S
C367 C366 1.327 . S
C367 C371 1.429 . S
C368 C351 1.574 . S
C368 H362 0.949 . S
C368 C372 1.368 . S
C369 C350 1.429 . S
C369 C363 1.429 . S
C369 C370 1.523 . S
C370 C351 1.368 . S
C370 C364 1.368 . S
C370 C369 1.523 . S
C371 C355 1.429 . S
C371 C367 1.429 . S
C371 C372 1.523 . S
C372 C356 1.368 . S
C372 C368 1.368 . S
C372 C371 1.523 . S
H373 C348 0.950 . S
H374 C350 0.950 . S
H375 C351 0.949 . S
H376 C353 0.950 . S
H377 C355 0.950 . S
C378 C379 1.349 . S
C378 C380 1.327 . S
C378 H403 0.950 . S
C379 C378 1.349 . S
C379 C395 1.349 . S
C380 C378 1.327 . S
C380 C399 1.429 . S
C380 H404 0.950 . S
C381 C398 1.574 1_655 S
C381 C400 1.368 . S
C381 H405 0.949 . S
H382 C386 0.949 . S
C383 C384 1.349 . S
C383 C385 1.327 . S
C383 H406 0.950 . S
C384 C383 1.349 . S
C384 C396 1.349 . S
C385 C383 1.327 . S
C385 C401 1.429 . S
C385 H407 0.950 . S
C386 H382 0.949 . S
C386 C394 1.574 . S
C386 C402 1.368 . S
H387 C395 0.950 . S
H388 C393 0.950 . S
H389 C394 0.949 . S
H390 C396 0.950 . S
H391 C397 0.950 . S
H392 C398 0.949 . S
C393 H388 0.950 . S
C393 C395 1.327 . S
C393 C399 1.429 . S
C394 C386 1.574 . S
C394 H389 0.949 . S
C394 C400 1.368 1_455 S
C395 C379 1.349 . S
C395 H387 0.950 . S
C395 C393 1.327 . S
C396 C384 1.349 . S
C396 H390 0.950 . S
C396 C397 1.327 . S
C397 H391 0.950 . S
C397 C396 1.327 . S
C397 C401 1.429 . S
C398 C381 1.574 1_455 S
C398 H392 0.949 . S
C398 C402 1.368 . S
C399 C380 1.429 . S
C399 C393 1.429 . S
C399 C400 1.523 . S
C400 C381 1.368 . S
C400 C394 1.368 1_655 S
C400 C399 1.523 . S
C401 C385 1.429 . S
C401 C397 1.429 . S
C401 C402 1.523 . S
C402 C386 1.368 . S
C402 C398 1.368 . S
C402 C401 1.523 . S
H403 C378 0.950 . S
H404 C380 0.950 . S
H405 C381 0.949 . S
H406 C383 0.950 . S
H407 C385 0.950 . S
C408 C409 1.349 . S
C408 C410 1.327 . S
C408 H433 0.950 . S
C409 C408 1.349 . S
C409 C425 1.349 . S
C410 C408 1.327 . S
C410 C429 1.429 . S
C410 H434 0.950 . S
C411 C428 1.574 . S
C411 C430 1.368 . S
C411 H435 0.949 . S
H412 C416 0.949 . S
C413 C414 1.349 . S
C413 C415 1.327 . S
C413 H436 0.950 . S
C414 C413 1.349 . S
C414 C426 1.349 . S
C415 C413 1.327 . S
C415 C431 1.429 . S
C415 H437 0.950 . S
C416 H412 0.949 . S
C416 C424 1.574 . S
C416 C432 1.368 . S
H417 C425 0.950 . S
H418 C423 0.950 . S
H419 C424 0.949 . S
H420 C426 0.950 . S
H421 C427 0.950 . S
H422 C428 0.949 . S
C423 H418 0.950 . S
C423 C425 1.327 . S
C423 C429 1.429 . S
C424 C416 1.574 . S
C424 H419 0.949 . S
C424 C430 1.368 . S
C425 C409 1.349 . S
C425 H417 0.950 . S
C425 C423 1.327 . S
C426 C414 1.349 . S
C426 H420 0.950 . S
C426 C427 1.327 . S
C427 H421 0.950 . S
C427 C426 1.327 . S
C427 C431 1.429 . S
C428 C411 1.574 . S
C428 H422 0.949 . S
C428 C432 1.368 . S
C429 C410 1.429 . S
C429 C423 1.429 . S
C429 C430 1.523 . S
C430 C411 1.368 . S
C430 C424 1.368 . S
C430 C429 1.523 . S
C431 C415 1.429 . S
C431 C427 1.429 . S
C431 C432 1.523 . S
C432 C416 1.368 . S
C432 C428 1.368 . S
C432 C431 1.523 . S
H433 C408 0.950 . S
H434 C410 0.950 . S
H435 C411 0.949 . S
H436 C413 0.950 . S
H437 C415 0.950 . S
C438 C439 1.349 . S
C438 C440 1.327 . S
C438 H463 0.950 . S
C439 C438 1.349 . S
C439 C455 1.349 . S
C440 C438 1.327 . S
C440 C459 1.429 . S
C440 H464 0.950 . S
C441 C458 1.574 1_565 S
C441 C460 1.368 . S
C441 H465 0.949 . S
H442 C446 0.949 . S
C443 C444 1.349 . S
C443 C445 1.327 . S
C443 H466 0.950 . S
C444 C443 1.349 . S
C444 C456 1.349 . S
C445 C443 1.327 . S
C445 C461 1.429 . S
C445 H467 0.950 . S
C446 H442 0.949 . S
C446 C454 1.574 1_545 S
C446 C462 1.368 . S
H447 C455 0.950 . S
H448 C453 0.950 . S
H449 C454 0.949 . S
H450 C456 0.950 . S
H451 C457 0.950 . S
H452 C458 0.949 . S
C453 H448 0.950 . S
C453 C455 1.327 . S
C453 C459 1.429 . S
C454 C446 1.574 1_565 S
C454 H449 0.949 . S
C454 C460 1.368 . S
C455 C439 1.349 . S
C455 H447 0.950 . S
C455 C453 1.327 . S
C456 C444 1.349 . S
C456 H450 0.950 . S
C456 C457 1.327 . S
C457 H451 0.950 . S
C457 C456 1.327 . S
C457 C461 1.429 . S
C458 C441 1.574 1_545 S
C458 H452 0.949 . S
C458 C462 1.368 . S
C459 C440 1.429 . S
C459 C453 1.429 . S
C459 C460 1.523 . S
C460 C441 1.368 . S
C460 C454 1.368 . S
C460 C459 1.523 . S
C461 C445 1.429 . S
C461 C457 1.429 . S
C461 C462 1.523 . S
C462 C446 1.368 . S
C462 C458 1.368 . S
C462 C461 1.523 . S
H463 C438 0.950 . S
H464 C440 0.950 . S
H465 C441 0.949 . S
H466 C443 0.950 . S
H467 C445 0.950 . S
C468 C469 1.349 . S
C468 C470 1.327 . S
C468 H493 0.950 . S
C469 C468 1.349 . S
C469 C485 1.349 1_445 S
C470 C468 1.327 . S
C470 C489 1.429 . S
C470 H494 0.950 . S
C471 C488 1.574 . S
C471 C490 1.368 1_665 S
C471 H495 0.949 . S
H472 C476 0.949 . S
C473 C474 1.349 1_665 S
C473 C475 1.327 . S
C473 H496 0.950 . S
C474 C473 1.349 1_445 S
C474 C486 1.349 . S
C475 C473 1.327 . S
C475 C491 1.429 1_665 S
C475 H497 0.950 . S
C476 H472 0.949 . S
C476 C484 1.574 . S
C476 C492 1.368 . S
H477 C485 0.950 . S
H478 C483 0.950 . S
H479 C484 0.949 . S
H480 C486 0.950 . S
H481 C487 0.950 . S
H482 C488 0.949 . S
C483 H478 0.950 . S
C483 C485 1.327 . S
C483 C489 1.429 1_665 S
C484 C476 1.574 . S
C484 H479 0.949 . S
C484 C490 1.368 . S
C485 C469 1.349 1_665 S
C485 H477 0.950 . S
C485 C483 1.327 . S
C486 C474 1.349 . S
C486 H480 0.950 . S
C486 C487 1.327 . S
C487 H481 0.950 . S
C487 C486 1.327 . S
C487 C491 1.429 . S
C488 C471 1.574 . S
C488 H482 0.949 . S
C488 C492 1.368 1_665 S
C489 C470 1.429 . S
C489 C483 1.429 1_445 S
C489 C490 1.523 . S
C490 C471 1.368 1_445 S
C490 C484 1.368 . S
C490 C489 1.523 . S
C491 C475 1.429 1_445 S
C491 C487 1.429 . S
C491 C492 1.523 . S
C492 C476 1.368 . S
C492 C488 1.368 1_445 S
C492 C491 1.523 . S
H493 C468 0.950 . S
H494 C470 0.950 . S
H495 C471 0.949 . S
H496 C473 0.950 . S
H497 C475 0.950 . S
C498 C499 1.349 . S
C498 C500 1.327 . S
C498 H523 0.950 . S
C499 C498 1.349 . S
C499 C515 1.349 . S
C500 C498 1.327 . S
C500 C519 1.429 . S
C500 H524 0.950 . S
C501 C518 1.574 . S
C501 C520 1.368 . S
C501 H525 0.949 . S
H502 C506 0.949 . S
C503 C504 1.349 . S
C503 C505 1.327 . S
C503 H526 0.950 . S
C504 C503 1.349 . S
C504 C516 1.349 . S
C505 C503 1.327 . S
C505 C521 1.429 . S
C505 H527 0.950 . S
C506 H502 0.949 . S
C506 C514 1.574 . S
C506 C522 1.368 . S
H507 C515 0.950 . S
H508 C513 0.950 . S
H509 C514 0.949 . S
H510 C516 0.950 . S
H511 C517 0.950 . S
H512 C518 0.949 . S
C513 H508 0.950 . S
C513 C515 1.327 . S
C513 C519 1.429 . S
C514 C506 1.574 . S
C514 H509 0.949 . S
C514 C520 1.368 . S
C515 C499 1.349 . S
C515 H507 0.950 . S
C515 C513 1.327 . S
C516 C504 1.349 . S
C516 H510 0.950 . S
C516 C517 1.327 . S
C517 H511 0.950 . S
C517 C516 1.327 . S
C517 C521 1.429 . S
C518 C501 1.574 . S
C518 H512 0.949 . S
C518 C522 1.368 . S
C519 C500 1.429 . S
C519 C513 1.429 . S
C519 C520 1.523 . S
C520 C501 1.368 . S
C520 C514 1.368 . S
C520 C519 1.523 . S
C521 C505 1.429 . S
C521 C517 1.429 . S
C521 C522 1.523 . S
C522 C506 1.368 . S
C522 C518 1.368 . S
C522 C521 1.523 . S
H523 C498 0.950 . S
H524 C500 0.950 . S
H525 C501 0.949 . S
H526 C503 0.950 . S
H527 C505 0.950 . S
C528 C529 1.349 . S
C528 C530 1.327 . S
C528 H553 0.950 . S
C529 C528 1.349 . S
C529 C545 1.349 . S
C530 C528 1.327 . S
C530 C549 1.429 . S
C530 H554 0.950 . S
C531 C548 1.574 . S
C531 C550 1.368 . S
C531 H555 0.949 . S
H532 C536 0.949 . S
C533 C534 1.349 . S
C533 C535 1.327 . S
C533 H556 0.950 . S
C534 C533 1.349 . S
C534 C546 1.349 . S
C535 C533 1.327 . S
C535 C551 1.429 . S
C535 H557 0.950 . S
C536 H532 0.949 . S
C536 C544 1.574 . S
C536 C552 1.368 . S
H537 C545 0.950 . S
H538 C543 0.950 . S
H539 C544 0.949 . S
H540 C546 0.950 . S
H541 C547 0.950 . S
H542 C548 0.949 . S
C543 H538 0.950 . S
C543 C545 1.327 . S
C543 C549 1.429 . S
C544 C536 1.574 . S
C544 H539 0.949 . S
C544 C550 1.368 . S
C545 C529 1.349 . S
C545 H537 0.950 . S
C545 C543 1.327 . S
C546 C534 1.349 . S
C546 H540 0.950 . S
C546 C547 1.327 . S
C547 H541 0.950 . S
C547 C546 1.327 . S
C547 C551 1.429 . S
C548 C531 1.574 . S
C548 H542 0.949 . S
C548 C552 1.368 . S
C549 C530 1.429 . S
C549 C543 1.429 . S
C549 C550 1.523 . S
C550 C531 1.368 . S
C550 C544 1.368 . S
C550 C549 1.523 . S
C551 C535 1.429 . S
C551 C547 1.429 . S
C551 C552 1.523 . S
C552 C536 1.368 . S
C552 C548 1.368 . S
C552 C551 1.523 . S
H553 C528 0.950 . S
H554 C530 0.950 . S
H555 C531 0.949 . S
H556 C533 0.950 . S
H557 C535 0.950 . S
C558 C559 1.349 1_665 S
C558 C560 1.327 . S
C558 H583 0.950 . S
C559 C558 1.349 1_445 S
C559 C575 1.349 . S
C560 C558 1.327 . S
C560 C579 1.429 1_665 S
C560 H584 0.950 . S
C561 C578 1.574 1_554 S
C561 C580 1.368 . S
C561 H585 0.949 . S
H562 C566 0.949 . S
C563 C564 1.346 1_455 S
C563 C565 1.327 . S
C563 H586 0.950 . S
C564 C563 1.346 1_655 S
C564 C576 1.352 1_545 S
C565 C563 1.327 . S
C565 C581 1.429 . S
C565 H587 0.950 . S
C566 H562 0.949 . S
C566 C574 1.574 1_556 S
C566 C582 1.368 1_665 S
H567 C575 0.950 . S
H568 C573 0.950 . S
H569 C574 0.949 . S
H570 C576 0.950 . S
H571 C577 0.950 . S
H572 C578 0.949 . S
C573 H568 0.950 . S
C573 C575 1.327 . S
C573 C579 1.429 . S
C574 C566 1.574 1_554 S
C574 H569 0.949 . S
C574 C580 1.368 1_665 S
C575 C559 1.349 . S
C575 H567 0.950 . S
C575 C573 1.327 . S
C576 C564 1.352 1_565 S
C576 H570 0.950 . S
C576 C577 1.327 . S
C577 H571 0.950 . S
C577 C576 1.327 . S
C577 C581 1.429 1_665 S
C578 C561 1.574 1_556 S
C578 H572 0.949 . S
C578 C582 1.368 . S
C579 C560 1.429 1_445 S
C579 C573 1.429 . S
C579 C580 1.523 . S
C580 C561 1.368 . S
C580 C574 1.368 1_445 S
C580 C579 1.523 . S
C581 C565 1.429 . S
C581 C577 1.429 1_445 S
C581 C582 1.523 . S
C582 C566 1.368 1_445 S
C582 C578 1.368 . S
C582 C581 1.523 . S
H583 C558 0.950 . S
H584 C560 0.950 . S
H585 C561 0.949 . S
H586 C563 0.950 . S
H587 C565 0.950 . S
C588 C589 1.349 . S
C588 C590 1.327 . S
C588 H613 0.950 . S
C589 C588 1.349 . S
C589 C605 1.349 . S
C590 C588 1.327 . S
C590 C609 1.429 . S
C590 H614 0.950 . S
C591 C608 1.574 . S
C591 C610 1.368 . S
C591 H615 0.949 . S
H592 C596 0.949 . S
C593 C594 1.349 . S
C593 C595 1.327 . S
C593 H616 0.950 . S
C594 C593 1.349 . S
C594 C606 1.349 . S
C595 C593 1.327 . S
C595 C611 1.429 . S
C595 H617 0.950 . S
C596 H592 0.949 . S
C596 C604 1.574 . S
C596 C612 1.368 . S
H597 C605 0.950 . S
H598 C603 0.950 . S
H599 C604 0.949 . S
H600 C606 0.950 . S
H601 C607 0.950 . S
H602 C608 0.949 . S
C603 H598 0.950 . S
C603 C605 1.327 . S
C603 C609 1.429 . S
C604 C596 1.574 . S
C604 H599 0.949 . S
C604 C610 1.368 . S
C605 C589 1.349 . S
C605 H597 0.950 . S
C605 C603 1.327 . S
C606 C594 1.349 . S
C606 H600 0.950 . S
C606 C607 1.327 . S
C607 H601 0.950 . S
C607 C606 1.327 . S
C607 C611 1.429 . S
C608 C591 1.574 . S
C608 H602 0.949 . S
C608 C612 1.368 . S
C609 C590 1.429 . S
C609 C603 1.429 . S
C609 C610 1.523 . S
C610 C591 1.368 . S
C610 C604 1.368 . S
C610 C609 1.523 . S
C611 C595 1.429 . S
C611 C607 1.429 . S
C611 C612 1.523 . S
C612 C596 1.368 . S
C612 C608 1.368 . S
C612 C611 1.523 . S
H613 C588 0.950 . S
H614 C590 0.950 . S
H615 C591 0.949 . S
H616 C593 0.950 . S
H617 C595 0.950 . S
C618 C619 1.349 . S
C618 C620 1.327 . S
C618 H643 0.950 . S
C619 C618 1.349 . S
C619 C635 1.349 . S
C620 C618 1.327 . S
C620 C639 1.429 . S
C620 H644 0.950 . S
C621 C638 1.574 . S
C621 C640 1.368 . S
C621 H645 0.949 . S
H622 C626 0.949 . S
C623 C624 1.349 . S
C623 C625 1.327 . S
C623 H646 0.950 . S
C624 C623 1.349 . S
C624 C636 1.349 . S
C625 C623 1.327 . S
C625 C641 1.429 . S
C625 H647 0.950 . S
C626 H622 0.949 . S
C626 C634 1.574 . S
C626 C642 1.368 . S
H627 C635 0.950 . S
H628 C633 0.950 . S
H629 C634 0.949 . S
H630 C636 0.950 . S
H631 C637 0.950 . S
H632 C638 0.949 . S
C633 H628 0.950 . S
C633 C635 1.327 . S
C633 C639 1.429 . S
C634 C626 1.574 . S
C634 H629 0.949 . S
C634 C640 1.368 . S
C635 C619 1.349 . S
C635 H627 0.950 . S
C635 C633 1.327 . S
C636 C624 1.349 . S
C636 H630 0.950 . S
C636 C637 1.327 . S
C637 H631 0.950 . S
C637 C636 1.327 . S
C637 C641 1.429 . S
C638 C621 1.574 . S
C638 H632 0.949 . S
C638 C642 1.368 . S
C639 C620 1.429 . S
C639 C633 1.429 . S
C639 C640 1.523 . S
C640 C621 1.368 . S
C640 C634 1.368 . S
C640 C639 1.523 . S
C641 C625 1.429 . S
C641 C637 1.429 . S
C641 C642 1.523 . S
C642 C626 1.368 . S
C642 C638 1.368 . S
C642 C641 1.523 . S
H643 C618 0.950 . S
H644 C620 0.950 . S
H645 C621 0.949 . S
H646 C623 0.950 . S
H647 C625 0.950 . S
C199 C8 1.996 . S
C204 C107 1.996 . S
C229 C28 1.539 . S
C234 C116 1.569 . S
C259 C127 1.539 . S
C264 C17 1.569 . S
C289 C61 1.539 . S
C294 C149 1.569 . S
C319 C140 1.996 . S
C324 C41 1.996 . S
C349 C50 1.569 . S
C354 C160 1.539 . S
C379 C74 1.996 . S
C384 C173 1.996 . S
C409 C94 1.539 . S
C414 C182 1.569 . S
C439 C193 1.539 . S
C444 C83 1.569 . S
C469 N38 2.346 1_455 S
C474 N5 2.346 . S
C499 N104 2.346 1_556 S
C504 N71 2.346 . S
C529 N170 2.346 . S
C534 N137 2.346 1_554 S
C559 N14 0.940 . S
C564 N47 0.938 1_655 S
C589 N113 0.940 . S
C594 N80 0.940 . S
C619 N179 0.940 . S
C624 N146 0.940 . S
