# Generated by pormake.
# Topology smm, (6)-cn, num edge types: 1
# Building blocks:
#     Node 0, Type 0, BuildingBlock: FUNLAD_clean_sbu_0, # of connection points: 6
#     Node 1, Type 0, BuildingBlock: FUNLAD_clean_sbu_0, # of connection points: 6
#     Node 2, Type 0, BuildingBlock: FUNLAD_clean_sbu_0, # of connection points: 6
#     Node 3, Type 0, BuildingBlock: FUNLAD_clean_sbu_0, # of connection points: 6
#     Node 4, Type 0, BuildingBlock: FUNLAD_clean_sbu_0, # of connection points: 6
#     Node 5, Type 0, BuildingBlock: FUNLAD_clean_sbu_0, # of connection points: 6
#     Node 6, Type 0, BuildingBlock: FUNLAD_clean_sbu_0, # of connection points: 6
#     Node 7, Type 0, BuildingBlock: FUNLAD_clean_sbu_0, # of connection points: 6
#     Node 8, Type 0, BuildingBlock: FUNLAD_clean_sbu_0, # of connection points: 6
#     Edge 9, Type (0, 0), BuildingBlock: ZUJKAS_clean_linker_0, # of connection points: 2
#     Edge 10, Type (0, 0), BuildingBlock: ZUJKAS_clean_linker_0, # of connection points: 2
#     Edge 11, Type (0, 0), BuildingBlock: ZUJKAS_clean_linker_0, # of connection points: 2
#     Edge 12, Type (0, 0), BuildingBlock: ZUJKAS_clean_linker_0, # of connection points: 2
#     Edge 13, Type (0, 0), BuildingBlock: ZUJKAS_clean_linker_0, # of connection points: 2
#     Edge 14, Type (0, 0), BuildingBlock: ZUJKAS_clean_linker_0, # of connection points: 2
#     Edge 15, Type (0, 0), BuildingBlock: ZUJKAS_clean_linker_0, # of connection points: 2
#     Edge 16, Type (0, 0), BuildingBlock: ZUJKAS_clean_linker_0, # of connection points: 2
#     Edge 17, Type (0, 0), BuildingBlock: ZUJKAS_clean_linker_0, # of connection points: 2
#     Edge 18, Type (0, 0), BuildingBlock: ZUJKAS_clean_linker_0, # of connection points: 2
#     Edge 19, Type (0, 0), BuildingBlock: ZUJKAS_clean_linker_0, # of connection points: 2
#     Edge 20, Type (0, 0), BuildingBlock: ZUJKAS_clean_linker_0, # of connection points: 2
#     Edge 21, Type (0, 0), BuildingBlock: ZUJKAS_clean_linker_0, # of connection points: 2
#     Edge 22, Type (0, 0), BuildingBlock: ZUJKAS_clean_linker_0, # of connection points: 2
#     Edge 23, Type (0, 0), BuildingBlock: ZUJKAS_clean_linker_0, # of connection points: 2
#     Edge 24, Type (0, 0), BuildingBlock: ZUJKAS_clean_linker_0, # of connection points: 2
#     Edge 25, Type (0, 0), BuildingBlock: ZUJKAS_clean_linker_0, # of connection points: 2
#     Edge 26, Type (0, 0), BuildingBlock: ZUJKAS_clean_linker_0, # of connection points: 2
#     Edge 27, Type (0, 0), BuildingBlock: ZUJKAS_clean_linker_0, # of connection points: 2
#     Edge 28, Type (0, 0), BuildingBlock: ZUJKAS_clean_linker_0, # of connection points: 2
#     Edge 29, Type (0, 0), BuildingBlock: ZUJKAS_clean_linker_0, # of connection points: 2
#     Edge 30, Type (0, 0), BuildingBlock: ZUJKAS_clean_linker_0, # of connection points: 2
#     Edge 31, Type (0, 0), BuildingBlock: ZUJKAS_clean_linker_0, # of connection points: 2
#     Edge 32, Type (0, 0), BuildingBlock: ZUJKAS_clean_linker_0, # of connection points: 2
#     Edge 33, Type (0, 0), BuildingBlock: ZUJKAS_clean_linker_0, # of connection points: 2
#     Edge 34, Type (0, 0), BuildingBlock: ZUJKAS_clean_linker_0, # of connection points: 2
#     Edge 35, Type (0, 0), BuildingBlock: ZUJKAS_clean_linker_0, # of connection points: 2
# Relax obj value: 0.384
# Max RMSD: 0.269
# Mean RMSD: 0.267
data_MOF--net-smm--node1-FUNLAD_clean_sbu_0--edge1-ZUJKAS_clean_linker_0
_symmetry_space_group_name_H-M    P1
_symmetry_Int_Tables_number       1
_symmetry_cell_setting            triclinic
loop_
_symmetry_equiv_pos_as_xyz
'x, y, z'
_cell_length_a     62.293234
_cell_length_b     62.081879
_cell_length_c     25.599551
_cell_angle_alpha  90.456005
_cell_angle_beta   90.324491
_cell_angle_gamma 119.93569
loop_
_atom_site_label
_atom_site_type_symbol
_atom_site_fract_x
_atom_site_fract_y
_atom_site_fract_z
_atom_type_partial_charge
C0 C 0.9775 0.1484 -0.00269 0.0
N1 N 0.02683 0.19593 0.11396 0.0
C2 C 0.00583 0.18319 0.1423 0.0
C3 C 0.00714 0.18149 0.1961 0.0
C4 C 0.03026 0.19325 0.22145 0.0
C5 C 0.05177 0.20624 0.19156 0.0
C6 C 0.04961 0.20721 0.13726 0.0
Zn7 Zn 0.02144 0.19811 0.03619 0.0
C8 C 0.04717 0.1813 0.97072 0.0
N9 N 0.00238 0.19911 0.87765 0.0
C10 C 0.97957 0.1887 0.8546 0.0
C11 C 0.0234 0.21091 0.84901 0.0
C12 C 0.02209 0.21265 0.79523 0.0
C13 C -0.00108 0.20178 0.77018 0.0
C14 C 0.97739 0.18966 0.8003 0.0
Zn15 Zn 0.00775 0.19687 0.95545 0.0
O16 O 0.9922 0.15942 0.03564 0.0
C17 C 0.98239 0.21348 0.02523 0.0
O18 O 0.97936 0.16037 0.9562 0.0
H19 H 0.04137 0.21858 0.8677 0.0
H20 H 0.98787 0.17479 0.12335 0.0
H21 H 0.96312 0.17928 0.87816 0.0
O22 O -0.00324 0.21026 0.05519 0.0
O23 O 0.98197 0.209 0.9765 0.0
H24 H 0.06604 0.21731 0.11392 0.0
O25 O 0.03634 0.23388 0.95432 0.0
O26 O 0.05097 0.23599 0.03354 0.0
O27 O 0.0335 0.18379 0.93682 0.0
O28 O 0.04611 0.18662 0.01812 0.0
C29 C 0.05196 0.24612 0.99 0.0
H30 H 0.9901 0.17181 0.21788 0.0
H31 H 0.06993 0.21563 0.20997 0.0
H32 H 0.03911 0.22164 0.77323 0.0
H33 H 0.9592 0.18094 0.78206 0.0
C34 C 0.84337 0.88435 0.97857 0.0
N35 N 0.81794 0.81884 0.88908 0.0
C36 C 0.8062 0.82843 0.86073 0.0
C37 C 0.80403 0.82537 0.80671 0.0
C38 C 0.81428 0.81255 0.78132 0.0
C39 C 0.82546 0.80197 0.81159 0.0
C40 C 0.827 0.80527 0.86585 0.0
Zn41 Zn 0.82465 0.82884 0.96608 0.0
C42 C 0.87613 0.84576 -0.00492 0.0
N43 N 0.83875 0.85368 0.12408 0.0
C44 C 0.82795 0.86536 0.14835 0.0
C45 C 0.85204 0.84552 0.15147 0.0
C46 C 0.85369 0.8477 0.20568 0.0
C47 C 0.84152 0.85835 0.23214 0.0
C48 C 0.8291 0.8679 0.20274 0.0
Zn49 Zn 0.8319 0.84372 0.04721 0.0
O50 O 0.83844 0.86735 0.94461 0.0
C51 C 0.78065 0.82747 0.01376 0.0
O52 O 0.84161 0.87937 0.02674 0.0
H53 H 0.86026 0.83604 0.13153 0.0
H54 H 0.79946 0.83948 0.87972 0.0
H55 H 0.81751 0.87173 0.12577 0.0
O56 O 0.78922 0.82341 0.97254 0.0
O57 O 0.79408 0.83546 0.05478 0.0
H58 H 0.83629 0.79785 0.88915 0.0
O59 O 0.82202 0.80775 0.06828 0.0
O60 O 0.81131 0.79091 0.98998 0.0
O61 O 0.86975 0.8524 0.03667 0.0
O62 O 0.86016 0.83446 0.95933 0.0
C63 C 0.81377 0.78875 0.03879 0.0
H64 H 0.79564 0.83418 0.78484 0.0
H65 H 0.83347 0.79184 0.7934 0.0
H66 H 0.86317 0.83976 0.22673 0.0
H67 H 0.81969 0.87649 0.22167 0.0
C68 C 0.1605 0.03103 0.96572 0.0
N69 N 0.16486 0.98842 0.08828 0.0
C70 C 0.16999 0.00887 0.11743 0.0
C71 C 0.167 0.00719 0.17126 0.0
C72 C 0.15879 0.98426 0.19555 0.0
C73 C 0.15292 0.96323 0.16451 0.0
C74 C 0.15603 0.96573 0.11046 0.0
Zn75 Zn 0.17322 0.99375 0.01125 0.0
C76 C 0.13282 0.96026 0.94378 0.0
N77 N 0.1932 0.00941 0.8525 0.0
C78 C 0.20306 0.03225 0.83055 0.0
C79 C 0.18716 0.98876 0.82317 0.0
C80 C 0.19048 0.99046 0.76946 0.0
C81 C 0.19987 0.0136 0.74542 0.0
C82 C 0.20646 0.03478 0.77656 0.0
Zn83 Zn 0.18481 0.00412 0.92945 0.0
O84 O 0.15862 0.01885 0.00691 0.0
C85 C 0.22467 0.03753 0.00087 0.0
O86 O 0.17125 0.02845 0.92633 0.0
H87 H 0.17903 0.97073 0.84124 0.0
H88 H 0.17728 0.02679 0.09916 0.0
H89 H 0.20769 0.04839 0.85471 0.0
O90 O 0.20792 0.02316 0.03182 0.0
O91 O 0.22081 0.03419 0.9518 0.0
H92 H 0.15204 0.94973 0.08643 0.0
O93 O 0.19859 0.97986 0.93214 0.0
O94 O 0.18736 0.96834 0.0129 0.0
O95 O 0.14808 0.97383 0.90911 0.0
O96 O 0.13895 0.96462 0.99156 0.0
C97 C 0.19737 0.96684 0.97093 0.0
H98 H 0.17218 0.02394 0.19385 0.0
H99 H 0.14645 0.94521 0.18192 0.0
H100 H 0.18471 0.97362 0.74672 0.0
H101 H 0.21377 0.05294 0.75926 0.0
C102 C 0.71356 0.51805 0.32273 0.0
N103 N 0.65893 0.52171 0.232 0.0
C104 C 0.67895 0.53722 0.20313 0.0
C105 C 0.6769 0.53817 0.1493 0.0
C106 C 0.65413 0.52272 0.12438 0.0
C107 C 0.63363 0.50686 0.15478 0.0
C108 C 0.63642 0.50679 0.20911 0.0
Zn109 Zn 0.66576 0.52108 0.3098 0.0
C110 C 0.64605 0.47136 0.34911 0.0
N111 N 0.68755 0.52308 0.46755 0.0
C112 C 0.70917 0.53996 0.49128 0.0
C113 C 0.66827 0.50574 0.49564 0.0
C114 C 0.67001 0.50516 0.54964 0.0
C115 C 0.69172 0.52276 0.57547 0.0
C116 C 0.71163 0.54022 0.54572 0.0
Zn117 Zn 0.6807 0.52395 0.38987 0.0
O118 O 0.69714 0.5163 0.29024 0.0
C119 C 0.70059 0.57355 0.34644 0.0
O120 O 0.71209 0.52296 0.37025 0.0
H121 H 0.65103 0.49283 0.47641 0.0
H122 H 0.69683 0.54851 0.22169 0.0
H123 H 0.72422 0.55366 0.46819 0.0
O124 O 0.68754 0.55958 0.30915 0.0
O125 O 0.70164 0.56405 0.38954 0.0
H126 H 0.62081 0.49447 0.23279 0.0
O127 O 0.64861 0.52458 0.41046 0.0
O128 O 0.63471 0.52514 0.33176 0.0
O129 O 0.66045 0.48382 0.38681 0.0
O130 O 0.64361 0.48266 0.31055 0.0
C131 C 0.6325 0.52522 0.38115 0.0
H132 H 0.69328 0.55022 0.12714 0.0
H133 H 0.61579 0.49458 0.13671 0.0
H134 H 0.65402 0.49175 0.57114 0.0
H135 H 0.72868 0.5541 0.56437 0.0
C136 C 0.51835 0.2058 0.30143 0.0
N137 N 0.5066 0.15351 0.18365 0.0
C138 C 0.50407 0.17049 0.15504 0.0
C139 C 0.50697 0.17135 0.10125 0.0
C140 C 0.51233 0.15444 0.07629 0.0
C141 C 0.51515 0.13723 0.10657 0.0
C142 C 0.51231 0.13717 0.16075 0.0
Zn143 Zn 0.49976 0.15304 0.26119 0.0
C144 C 0.53935 0.15805 0.32632 0.0
N145 N 0.48319 0.15604 0.42008 0.0
C146 C 0.47526 0.17079 0.44231 0.0
C147 C 0.48805 0.14076 0.44939 0.0
C148 C 0.48499 0.13983 0.50312 0.0
C149 C 0.4772 0.15503 0.5273 0.0
C150 C 0.4723 0.17072 0.49646 0.0
Zn151 Zn 0.48972 0.15623 0.34241 0.0
O152 O 0.51951 0.19327 0.26305 0.0
C153 C 0.45086 0.15199 0.27328 0.0
O154 O 0.50586 0.19457 0.34113 0.0
H155 H 0.49478 0.12952 0.4312 0.0
H156 H 0.49913 0.18305 0.17377 0.0
H157 H 0.47161 0.18285 0.41818 0.0
O158 O 0.46682 0.15239 0.24222 0.0
O159 O 0.45452 0.15241 0.32233 0.0
H160 H 0.51421 0.12383 0.18433 0.0
O161 O 0.4731 0.1177 0.34379 0.0
O162 O 0.48083 0.11303 0.26227 0.0
O163 O 0.52592 0.16061 0.36041 0.0
O164 O 0.53211 0.15363 0.27918 0.0
C165 C 0.47143 0.10365 0.30608 0.0
H166 H 0.50409 0.18454 0.07919 0.0
H167 H 0.51927 0.12388 0.08853 0.0
H168 H 0.48948 0.1279 0.52575 0.0
H169 H 0.46637 0.18279 0.51404 0.0
C170 C 0.79668 0.29633 0.30913 0.0
N171 N 0.85651 0.34378 0.21536 0.0
C172 C 0.8496 0.3229 0.18613 0.0
C173 C 0.85346 0.32451 0.13261 0.0
C174 C 0.86428 0.34781 0.10875 0.0
C175 C 0.87168 0.36916 0.13978 0.0
C176 C 0.86771 0.36671 0.19357 0.0
Zn177 Zn 0.84834 0.33915 0.29223 0.0
C178 C 0.82592 0.36801 0.32806 0.0
N179 N 0.82983 0.32582 0.45166 0.0
C180 C 0.82076 0.30314 0.47397 0.0
C181 C 0.83518 0.3464 0.48056 0.0
C182 C 0.83233 0.34485 0.53442 0.0
C183 C 0.82397 0.32192 0.55884 0.0
C184 C 0.81772 0.30076 0.52798 0.0
Zn185 Zn 0.83801 0.33057 0.37482 0.0
O186 O 0.81099 0.30987 0.27319 0.0
C187 C 0.86022 0.30172 0.33492 0.0
O188 O 0.80372 0.30093 0.35636 0.0
H189 H 0.84256 0.36427 0.46207 0.0
H190 H 0.84049 0.30483 0.20413 0.0
H191 H 0.81655 0.28704 0.45006 0.0
O192 O 0.86016 0.31339 0.29478 0.0
O193 O 0.85243 0.30535 0.37805 0.0
H194 H 0.87309 0.38302 0.21772 0.0
O195 O 0.87263 0.36023 0.39422 0.0
O196 O 0.88526 0.36812 0.31325 0.0
O197 O 0.82339 0.35565 0.36931 0.0
O198 O 0.83654 0.36497 0.28899 0.0
C199 C 0.88944 0.37299 0.36188 0.0
H200 H 0.84707 0.30757 0.10984 0.0
H201 H 0.88009 0.38743 0.12256 0.0
H202 H 0.83778 0.3617 0.55689 0.0
H203 H 0.81109 0.28273 0.5455 0.0
C204 C 0.29947 0.80482 0.6863 0.0
N205 N 0.34862 0.86712 0.7777 0.0
C206 C 0.32797 0.86073 0.80622 0.0
C207 C 0.3296 0.86405 0.86013 0.0
C208 C 0.35266 0.87374 0.88538 0.0
C209 C 0.37383 0.88062 0.85515 0.0
C210 C 0.37139 0.87726 0.80086 0.0
Zn211 Zn 0.34299 0.85818 0.70009 0.0
C212 C 0.36928 0.83321 0.6646 0.0
N213 N 0.3252 0.83557 0.54144 0.0
C214 C 0.30283 0.82759 0.51775 0.0
C215 C 0.34554 0.84031 0.51334 0.0
C216 C 0.34412 0.83793 0.45922 0.0
C217 C 0.32158 0.83075 0.43341 0.0
C218 C 0.30061 0.82512 0.46333 0.0
Zn219 Zn 0.33086 0.84447 0.61898 0.0
O220 O 0.31388 0.82083 0.72006 0.0
C221 C 0.3043 0.86897 0.65918 0.0
O222 O 0.30208 0.81034 0.63838 0.0
H223 H 0.36325 0.84704 0.53269 0.0
H224 H 0.30997 0.85224 0.78738 0.0
H225 H 0.28692 0.82396 0.54086 0.0
O226 O 0.31791 0.87077 0.69768 0.0
O227 O 0.30541 0.85862 0.61699 0.0
H228 H 0.38754 0.8821 0.77743 0.0
O229 O 0.36014 0.87899 0.59864 0.0
O230 O 0.37186 0.89468 0.67768 0.0
O231 O 0.35572 0.82965 0.62435 0.0
O232 O 0.36821 0.84575 0.70275 0.0
C233 C 0.37455 0.89687 0.62837 0.0
H234 H 0.31276 0.85801 0.88206 0.0
H235 H 0.39194 0.88814 0.87335 0.0
H236 H 0.36085 0.84292 0.43768 0.0
H237 H 0.28286 0.81941 0.4448 0.0
C238 C 0.17981 0.54194 0.67254 0.0
N239 N 0.17585 0.49607 0.54699 0.0
C240 C 0.16999 0.51092 0.5188 0.0
C241 C 0.1733 0.51268 0.46509 0.0
C242 C 0.18263 0.49893 0.4401 0.0
C243 C 0.18922 0.48427 0.47022 0.0
C244 C 0.18571 0.48316 0.52411 0.0
Zn245 Zn 0.16799 0.49266 0.62388 0.0
C246 C 0.2099 0.50047 0.68748 0.0
N247 N 0.14999 0.48713 0.78362 0.0
C248 C 0.13887 0.49892 0.80614 0.0
C249 C 0.15721 0.47345 0.81221 0.0
C250 C 0.15383 0.47162 0.86589 0.0
C251 C 0.14315 0.4842 0.89047 0.0
C252 C 0.13536 0.49779 0.86005 0.0
Zn253 Zn 0.15774 0.4905 0.70669 0.0
O254 O 0.18174 0.5322 0.63014 0.0
C255 C 0.11636 0.48299 0.63853 0.0
O256 O 0.16984 0.5282 0.71153 0.0
H257 H 0.16621 0.46442 0.79355 0.0
H258 H 0.16203 0.52088 0.53778 0.0
H259 H 0.13327 0.50965 0.78245 0.0
O260 O 0.13293 0.48664 0.6057 0.0
O261 O 0.12082 0.48278 0.68705 0.0
H262 H 0.19033 0.47158 0.54749 0.0
O263 O 0.14551 0.45285 0.7028 0.0
O264 O 0.15477 0.45311 0.62018 0.0
O265 O 0.19535 0.49846 0.72434 0.0
O266 O 0.20262 0.49862 0.64063 0.0
C267 C 0.14623 0.44138 0.66246 0.0
H268 H 0.16757 0.52382 0.44311 0.0
H269 H 0.19656 0.47349 0.45219 0.0
H270 H 0.16051 0.46134 0.88818 0.0
H271 H 0.12702 0.50771 0.87784 0.0
C272 C 0.49859 0.69798 0.71943 0.0
N273 N 0.50684 0.65447 0.83446 0.0
C274 C 0.51265 0.67497 0.86407 0.0
C275 C 0.50948 0.67311 0.91773 0.0
C276 C 0.50046 0.64997 0.94145 0.0
C277 C 0.49455 0.62899 0.91025 0.0
C278 C 0.49777 0.63166 0.85622 0.0
Zn279 Zn 0.51303 0.66017 0.75698 0.0
C280 C 0.47088 0.62746 0.69394 0.0
N281 N 0.52865 0.67826 0.59807 0.0
C282 C 0.53802 0.7012 0.57682 0.0
C283 C 0.52236 0.65778 0.56794 0.0
C284 C 0.52528 0.65982 0.51421 0.0
C285 C 0.53451 0.68312 0.491 0.0
C286 C 0.54097 0.70406 0.52277 0.0
Zn287 Zn 0.52227 0.6724 0.67547 0.0
O288 O 0.49832 0.68551 0.75895 0.0
C289 C 0.56399 0.70452 0.7435 0.0
O290 O 0.50798 0.69592 0.67733 0.0
H291 H 0.51462 0.63967 0.58551 0.0
H292 H 0.52017 0.69298 0.84616 0.0
H293 H 0.54284 0.71719 0.60167 0.0
O294 O 0.54831 0.6889 0.77452 0.0
O295 O 0.55852 0.70318 0.69515 0.0
H296 H 0.49328 0.61564 0.83177 0.0
O297 O 0.53718 0.64898 0.67289 0.0
O298 O 0.52695 0.63465 0.75232 0.0
O299 O 0.48503 0.64137 0.65807 0.0
O300 O 0.47844 0.63155 0.74084 0.0
C301 C 0.53676 0.63488 0.70874 0.0
H302 H 0.5148 0.68982 0.94064 0.0
H303 H 0.48763 0.61085 0.92746 0.0
H304 H 0.51959 0.64317 0.49086 0.0
H305 H 0.54807 0.7223 0.50599 0.0
H306 H 0.09659 0.25642 0.95467 0.0
H307 H 0.12178 0.2905 0.89527 0.0
H308 H 0.07657 0.32349 0.92791 0.0
H309 H 0.05108 0.28915 0.9864 0.0
H310 H 0.09206 0.29579 0.80721 0.0
H311 H 0.15162 0.3832 0.91902 0.0
H312 H 0.14203 0.35278 0.94528 0.0
H313 H 0.12052 0.364 0.94212 0.0
C314 C 0.09301 0.27175 0.95149 0.0
C315 C 0.07237 0.27062 0.976 0.0
C316 C 0.10717 0.29099 0.91705 0.0
C317 C 0.10104 0.30948 0.90736 0.0
C318 C 0.0818 0.30957 0.93549 0.0
H319 H 0.10058 0.40152 0.67262 0.0
H320 H 0.09171 0.36505 0.72426 0.0
C321 C 0.06743 0.29013 0.96933 0.0
C322 C 0.11164 0.32607 0.86208 0.0
H323 H 0.14517 0.38709 0.82867 0.0
C324 C 0.10407 0.31572 0.81171 0.0
C325 C 0.1272 0.35197 0.86824 0.0
C326 C 0.13603 0.36377 0.9215 0.0
C327 C 0.11074 0.33084 0.76741 0.0
C328 C 0.12543 0.35685 0.77378 0.0
C329 C 0.13398 0.36708 0.82392 0.0
C330 C 0.12999 0.37412 0.73023 0.0
C331 C 0.1015 0.31903 0.71428 0.0
C332 C 0.15426 0.3905 0.71413 0.0
C333 C 0.15922 0.411 0.68344 0.0
C334 C 0.14003 0.41553 0.66934 0.0
C335 C 0.11553 0.39794 0.6816 0.0
C336 C 0.11051 0.37726 0.71157 0.0
H337 H 0.09523 0.29885 0.71434 0.0
H338 H 0.08558 0.3213 0.70243 0.0
H339 H 0.1162 0.32827 0.68464 0.0
H340 H 0.16954 0.3885 0.7286 0.0
H341 H 0.17834 0.42477 0.67592 0.0
H342 H 0.73696 0.78597 0.03155 0.0
H343 H 0.698 0.77621 0.98779 0.0
H344 H 0.73076 0.85201 0.93636 0.0
H345 H 0.76969 0.86181 0.98055 0.0
H346 H 0.66479 0.80061 0.97888 0.0
H347 H 0.71971 0.80446 0.804 0.0
H348 H 0.72932 0.80159 0.86899 0.0
H349 H 0.73209 0.83046 0.84899 0.0
C350 C 0.73529 0.80084 0.0137 0.0
C351 C 0.75599 0.82469 0.01012 0.0
C352 C 0.71317 0.79524 0.98825 0.0
C353 C 0.71171 0.81336 0.95845 0.0
C354 C 0.7316 0.83783 0.95922 0.0
H355 H 0.59583 0.75212 0.70862 0.0
H356 H 0.63232 0.78479 0.7566 0.0
C357 C 0.75367 0.84346 0.98496 0.0
C358 C 0.69129 0.80542 0.92005 0.0
H359 H 0.67665 0.78533 0.79338 0.0
C360 C 0.66741 0.79785 0.93803 0.0
C361 C 0.69488 0.80205 0.86667 0.0
C362 C 0.72032 0.80995 0.84563 0.0
C363 C 0.64677 0.78555 0.9046 0.0
C364 C 0.65014 0.78014 0.85244 0.0
C365 C 0.67417 0.78948 0.83339 0.0
C366 C 0.62913 0.76103 0.82107 0.0
C367 C 0.62136 0.7773 0.92613 0.0
C368 C 0.61624 0.73682 0.84024 0.0
C369 C 0.59585 0.71843 0.81322 0.0
C370 C 0.58791 0.72369 0.76598 0.0
C371 C 0.60161 0.74761 0.74493 0.0
C372 C 0.62223 0.76625 0.77243 0.0
H373 H 0.62225 0.78988 0.95824 0.0
H374 H 0.60849 0.77671 0.89524 0.0
H375 H 0.61369 0.75838 0.94243 0.0
H376 H 0.62177 0.73218 0.87676 0.0
H377 H 0.58593 0.70008 0.8301 0.0
H378 H 0.16881 0.91703 0.95897 0.0
H379 H 0.18099 0.89096 0.90903 0.0
H380 H 0.25654 0.95141 0.90847 0.0
H381 H 0.24434 0.97728 0.95787 0.0
H382 H 0.19966 0.90662 0.80953 0.0
H383 H 0.2658 0.89142 0.92604 0.0
H384 H 0.24443 0.89948 0.95565 0.0
H385 H 0.27314 0.92326 0.92886 0.0
C386 C 0.18824 0.92412 0.95083 0.0
C387 C 0.20581 0.94888 0.96314 0.0
C388 C 0.19512 0.90937 0.9217 0.0
C389 C 0.21969 0.91919 0.90522 0.0
C390 C 0.2376 0.94323 0.92164 0.0
H391 H 0.31358 0.9153 0.68024 0.0
H392 H 0.28742 0.92492 0.73518 0.0
C393 C 0.23068 0.95799 0.95019 0.0
C394 C 0.2261 0.90647 0.86408 0.0
H395 H 0.27001 0.89131 0.83202 0.0
C396 C 0.21461 0.90262 0.81471 0.0
C397 C 0.24563 0.90135 0.87085 0.0
C398 C 0.25778 0.90386 0.9234 0.0
C399 C 0.22329 0.89538 0.77121 0.0
C400 C 0.24385 0.89191 0.77747 0.0
C401 C 0.25438 0.89432 0.82733 0.0
C402 C 0.25611 0.88753 0.73264 0.0
C403 C 0.21146 0.89282 0.7183 0.0
C404 C 0.24648 0.8637 0.71042 0.0
C405 C 0.26132 0.8583 0.67809 0.0
C406 C 0.28589 0.87665 0.66824 0.0
C407 C 0.29449 0.90103 0.68628 0.0
C408 C 0.27969 0.90644 0.7182 0.0
H409 H 0.1959 0.89672 0.7197 0.0
H410 H 0.22554 0.9058 0.69058 0.0
H411 H 0.20437 0.87366 0.70282 0.0
H412 H 0.2284 0.84883 0.72161 0.0
H413 H 0.2546 0.83921 0.66593 0.0
H414 H 0.40397 0.12911 0.31416 0.0
H415 H 0.36544 0.11755 0.26538 0.0
H416 H 0.40809 0.15771 0.13187 0.0
H417 H 0.44633 0.16914 0.17975 0.0
H418 H 0.34883 0.14937 0.19411 0.0
H419 H 0.36588 0.07903 0.09536 0.0
H420 H 0.37925 0.09236 0.15844 0.0
H421 H 0.39139 0.1104 0.10055 0.0
C422 C 0.40505 0.13607 0.27504 0.0
C423 C 0.42804 0.14971 0.25044 0.0
C424 C 0.38311 0.12945 0.24724 0.0
C425 C 0.38408 0.13661 0.19497 0.0
C426 C 0.40705 0.15193 0.17206 0.0
H427 H 0.26937 0.06634 0.95206 0.0
H428 H 0.30917 0.09525 -0.00531 0.0
C429 C 0.42883 0.15838 0.19948 0.0
C430 C 0.3615 0.12561 0.16199 0.0
H431 H 0.33106 0.08122 0.0678 0.0
C432 C 0.34487 0.13451 0.16639 0.0
C433 C 0.35675 0.10653 0.12538 0.0
C434 C 0.37412 0.09632 0.11954 0.0
C435 C 0.32328 0.1245 0.13529 0.0
C436 C 0.31808 0.10479 0.09985 0.0
C437 C 0.33513 0.09643 0.09465 0.0
C438 C 0.2939 0.09058 0.07231 0.0
C439 C 0.30632 0.13519 0.14064 0.0
C440 C 0.27222 0.07859 0.10167 0.0
C441 C 0.24972 0.06225 0.07763 0.0
C442 C 0.24833 0.05723 0.02361 0.0
C443 C 0.26987 0.06988 -0.00632 0.0
C444 C 0.29256 0.08635 0.01798 0.0
H445 H 0.31676 0.155 0.15337 0.0
H446 H 0.29651 0.1338 0.10332 0.0
H447 H 0.2923 0.12477 0.17087 0.0
H448 H 0.27284 0.08097 0.14372 0.0
H449 H 0.23348 0.05293 0.10195 0.0
H450 H 0.90665 0.30919 0.34407 0.0
H451 H 0.92189 0.28568 0.29448 0.0
H452 H 0.84683 0.23092 0.25272 0.0
H453 H 0.83159 0.25437 0.30262 0.0
H454 H 0.90774 0.22999 0.28453 0.0
H455 H 0.88466 0.27127 0.11553 0.0
H456 H 0.88819 0.28367 0.18103 0.0
H457 H 0.8612 0.25478 0.16357 0.0
C458 C 0.89341 0.29135 0.327 0.0
C459 C 0.86799 0.28322 0.32795 0.0
C460 C 0.9021 0.2781 0.29816 0.0
C461 C 0.88545 0.25679 0.26951 0.0
C462 C 0.85991 0.24735 0.27458 0.0
H463 H 0.93311 0.19758 0.00591 0.0
H464 H 0.90583 0.20544 0.06294 0.0
C465 C 0.85122 0.26054 0.30365 0.0
C466 C 0.89503 0.24693 0.22864 0.0
H467 H 0.90641 0.25024 0.09762 0.0
C468 C 0.90715 0.23406 0.24359 0.0
C469 C 0.89408 0.25223 0.17524 0.0
C470 C 0.88146 0.26633 0.15749 0.0
C471 C 0.91905 0.22696 0.20657 0.0
C472 C 0.91933 0.23351 0.15356 0.0
C473 C 0.90619 0.24532 0.13825 0.0
C474 C 0.93543 0.23063 0.11509 0.0
C475 C 0.93167 0.21293 0.22473 0.0
C476 C 0.96108 0.24328 0.12393 0.0
C477 C 0.97645 0.23892 0.09175 0.0
C478 C 0.96658 0.22208 0.04951 0.0
C479 C 0.94114 0.21082 0.03797 0.0
C480 C 0.92559 0.2151 0.07074 0.0
H481 H 0.92331 0.20264 0.26122 0.0
H482 H 0.93059 0.19954 0.19435 0.0
H483 H 0.9515 0.22633 0.23304 0.0
H484 H 0.96912 0.25588 0.15703 0.0
H485 H 0.99604 0.24793 0.10129 0.0
H486 H 0.77471 0.74224 0.01422 0.0
H487 H 0.7582 0.70552 0.07086 0.0
H488 H 0.81996 0.74529 0.17711 0.0
H489 H 0.8363 0.78169 0.12149 0.0
H490 H 0.78081 0.67694 0.12002 0.0
H491 H 0.75567 0.72924 0.26078 0.0
H492 H 0.76254 0.73796 0.1932 0.0
H493 H 0.78723 0.74525 0.23906 0.0
C494 C 0.78508 0.74278 0.04881 0.0
C495 C 0.80662 0.7648 0.06378 0.0
C496 C 0.7756 0.72193 0.08124 0.0
C497 C 0.78767 0.72298 0.12861 0.0
C498 C 0.8102 0.74427 0.14117 0.0
H499 H 0.75078 0.60296 0.35048 0.0
H500 H 0.77448 0.64189 0.30209 0.0
C501 C 0.81953 0.765 0.10922 0.0
C502 C 0.77594 0.70291 0.16739 0.0
H503 H 0.74996 0.6905 0.28856 0.0
C504 C 0.77407 0.67985 0.15688 0.0
C505 C 0.7671 0.70683 0.21534 0.0
C506 C 0.768 0.73107 0.22785 0.0
C507 C 0.76368 0.66056 0.19338 0.0
C508 C 0.75521 0.66463 0.24167 0.0
C509 C 0.75691 0.68764 0.25193 0.0
C510 C 0.74222 0.64432 0.2795 0.0
C511 C 0.76124 0.63575 0.1796 0.0
C512 C 0.71658 0.63382 0.28536 0.0
C513 C 0.70319 0.61184 0.31298 0.0
C514 C 0.71526 0.60024 0.33592 0.0
C515 C 0.74119 0.61192 0.33415 0.0
C516 C 0.75463 0.63387 0.30587 0.0
H517 H 0.76523 0.63449 0.13779 0.0
H518 H 0.77447 0.63295 0.20376 0.0
H519 H 0.74227 0.62042 0.18813 0.0
H520 H 0.7067 0.64164 0.26542 0.0
H521 H 0.68315 0.60287 0.31309 0.0
H522 H 0.07004 0.45209 0.6777 0.0
H523 H 0.03038 0.43834 0.63156 0.0
H524 H 0.06912 0.48913 0.50694 0.0
H525 H 0.10844 0.50274 0.55227 0.0
H526 H 0.02158 0.48493 0.53747 0.0
H527 H 0.01839 0.39537 0.49352 0.0
H528 H 0.02201 0.40491 0.56109 0.0
H529 H 0.04629 0.42272 0.5159 0.0
C530 C 0.06991 0.46075 0.64121 0.0
C531 C 0.09221 0.47827 0.61825 0.0
C532 C 0.04736 0.4528 0.61478 0.0
C533 C 0.04699 0.46255 0.5656 0.0
C534 C 0.06907 0.48137 0.54473 0.0
H535 H 0.93551 0.39003 0.31952 0.0
H536 H 0.97551 0.41557 0.36478 0.0
C537 C 0.09149 0.48906 0.57066 0.0
C538 C 0.02421 0.45169 0.53309 0.0
H539 H 0.98566 0.40013 0.46058 0.0
C540 C 0.0136 0.46636 0.52081 0.0
C541 C 0.01437 0.42774 0.51034 0.0
C542 C 0.02587 0.41173 0.52038 0.0
C543 C 0.99295 0.45741 0.48713 0.0
C544 C 0.98271 0.43319 0.46549 0.0
C545 C 0.99365 0.41874 0.47705 0.0
C546 C 0.95946 0.42155 0.43435 0.0
C547 C 0.98238 0.474 0.47467 0.0
C548 C 0.9374 0.41697 0.45807 0.0
C549 C 0.91477 0.40246 0.43258 0.0
C550 C 0.9137 0.39217 0.38282 0.0
C551 C 0.93586 0.39791 0.35764 0.0
C552 C 0.95863 0.41235 0.38353 0.0
H553 H 0.99628 0.49393 0.48128 0.0
H554 H 0.97569 0.47134 0.43354 0.0
H555 H 0.96644 0.46928 0.50056 0.0
H556 H 0.93755 0.42348 0.49754 0.0
H557 H 0.89796 0.39837 0.4529 0.0
H558 H 0.58137 0.64801 0.66909 0.0
H559 H 0.59226 0.62096 0.62022 0.0
H560 H 0.52352 0.55697 0.66536 0.0
H561 H 0.51258 0.58426 0.7149 0.0
H562 H 0.59549 0.57729 0.64295 0.0
H563 H 0.52009 0.56061 0.50198 0.0
H564 H 0.53144 0.58512 0.55073 0.0
H565 H 0.51183 0.55342 0.56945 0.0
C566 C 0.56907 0.62807 0.67038 0.0
C567 C 0.54629 0.61812 0.69605 0.0
C568 C 0.57521 0.61266 0.64215 0.0
C569 C 0.55849 0.58706 0.63843 0.0
C570 C 0.53653 0.57675 0.66739 0.0
H571 H 0.60471 0.49737 0.4605 0.0
H572 H 0.58169 0.50834 0.52188 0.0
C573 C 0.53047 0.59225 0.69628 0.0
C574 C 0.5634 0.57204 0.60018 0.0
H575 H 0.54652 0.54536 0.47847 0.0
C576 C 0.58456 0.56989 0.60739 0.0
C577 C 0.54936 0.56296 0.55334 0.0
C578 C 0.52698 0.56569 0.54288 0.0
C579 C 0.59239 0.55933 0.5686 0.0
C580 C 0.57844 0.55036 0.52158 0.0
C581 C 0.55702 0.5521 0.51468 0.0
C582 C 0.58676 0.54026 0.47852 0.0
C583 C 0.61616 0.55886 0.57736 0.0
C584 C 0.59556 0.55348 0.43178 0.0
C585 C 0.60835 0.54691 0.39596 0.0
C586 C 0.61247 0.52716 0.40688 0.0
C587 C 0.60165 0.51264 0.45124 0.0
C588 C 0.5887 0.51901 0.48653 0.0
H589 H 0.62732 0.57123 0.6103 0.0
H590 H 0.61168 0.53965 0.58671 0.0
H591 H 0.62765 0.56463 0.54165 0.0
H592 H 0.59413 0.56992 0.42488 0.0
H593 H 0.61685 0.55857 0.36242 0.0
H594 H 0.49414 0.07605 0.30242 0.0
H595 H 0.4812 0.03775 0.35187 0.0
H596 H 0.41239 0.03484 0.38917 0.0
H597 H 0.42542 0.07312 0.3407 0.0
H598 H 0.47 0.03839 0.46368 0.0
H599 H 0.39265 0.9614 0.35219 0.0
H600 H 0.4158 0.98956 0.32159 0.0
H601 H 0.39107 0.98947 0.35747 0.0
C602 C 0.47576 0.06646 0.31896 0.0
C603 C 0.4605 0.0771 0.31703 0.0
C604 C 0.46854 0.04484 0.34776 0.0
C605 C 0.44584 0.0335 0.37405 0.0
C606 C 0.42982 0.04311 0.3686 0.0
H607 H 0.38771 0.94532 0.6507 0.0
H608 H 0.40952 0.98048 0.59095 0.0
C609 C 0.43717 0.06484 0.34059 0.0
C610 C 0.44002 0.01367 0.41245 0.0
H611 H 0.39683 0.95411 0.44187 0.0
C612 C 0.45422 0.01982 0.45872 0.0
C613 C 0.41938 0.9896 0.40588 0.0
C614 C 0.40391 0.98194 0.35645 0.0
C615 C 0.44786 0.00262 0.4993 0.0
C616 C 0.42673 0.9788 0.49337 0.0
C617 C 0.41297 0.97248 0.44646 0.0
C618 C 0.41839 0.95985 0.53483 0.0
C619 C 0.46368 0.01 0.54818 0.0
C620 C 0.41693 0.93702 0.52392 0.0
C621 C 0.40457 0.91715 0.55769 0.0
C622 C 0.39342 0.91969 0.60312 0.0
C623 C 0.39653 0.94306 0.61638 0.0
C624 C 0.40887 0.96306 0.58216 0.0
H625 H 0.48204 0.02683 0.54224 0.0
H626 H 0.45412 0.01412 0.57985 0.0
H627 H 0.46653 0.99459 0.5613 0.0
H628 H 0.42415 0.93416 0.48772 0.0
H629 H 0.40235 0.89926 0.54655 0.0
H630 H 0.1616 0.05849 0.88234 0.0
H631 H 0.14372 0.08542 0.87507 0.0
H632 H 0.11774 0.06857 0.0334 0.0
H633 H 0.13542 0.04114 0.04104 0.0
H634 H 0.08188 0.06531 0.95944 0.0
H635 H 0.17086 0.15428 0.94437 0.0
H636 H 0.16706 0.13043 0.89883 0.0
H637 H 0.16915 0.12609 0.9676 0.0
C638 C 0.15219 0.06053 0.91584 0.0
C639 C 0.15002 0.04774 0.96245 0.0
C640 C 0.14208 0.07604 0.91159 0.0
C641 C 0.12974 0.07922 0.95389 0.0
C642 C 0.12734 0.06639 0.0004 0.0
H643 H 0.08601 0.18502 0.02637 0.0
H644 H 0.10675 0.16091 0.01415 0.0
C645 C 0.13747 0.0508 0.00475 0.0
C646 C 0.11899 0.09564 0.94911 0.0
H647 H 0.13413 0.15601 0.93117 0.0
C648 C 0.09325 0.08513 0.95311 0.0
C649 C 0.13396 0.12147 0.9409 0.0
C650 C 0.16182 0.13385 0.93809 0.0
C651 C 0.08203 0.09984 0.94964 0.0
C652 C 0.097 0.12567 0.94124 0.0
C653 C 0.12272 0.13614 0.93676 0.0
C654 C 0.0866 0.14246 0.94336 0.0
C655 C 0.0544 0.08783 0.95688 0.0
C656 C 0.06908 0.14078 0.90631 0.0
C657 C 0.05718 0.15468 0.91309 0.0
C658 C 0.06261 0.17026 0.95717 0.0
C659 C 0.08127 0.17298 0.99227 0.0
C660 C 0.09318 0.15926 0.98533 0.0
H661 H 0.04619 0.06855 0.97159 0.0
H662 H 0.05001 0.09889 0.98468 0.0
H663 H 0.04543 0.08714 0.91884 0.0
H664 H 0.06405 0.12813 0.87323 0.0
H665 H 0.04287 0.15223 0.88547 0.0
H666 H 0.88499 0.91473 0.92489 0.0
H667 H 0.90537 0.96029 0.92272 0.0
H668 H 0.842 0.95731 -0.00259 0.0
H669 H 0.82237 0.912 0.00219 0.0
H670 H 0.89735 0.99586 0.88644 0.0
H671 H 0.89534 0.99706 0.10272 0.0
H672 H 0.88627 0.96904 0.06537 0.0
H673 H 0.8649 0.98031 0.07426 0.0
C674 C 0.87524 0.92388 0.93946 0.0
C675 C 0.85226 0.91015 0.96378 0.0
C676 C 0.88689 0.94985 0.93852 0.0
C677 C 0.87552 0.96222 0.96146 0.0
C678 C 0.85147 0.9482 0.98112 0.0
H679 H 0.93542 0.12228 0.93895 0.0
H680 H 0.90958 0.07712 0.93126 0.0
C681 C 0.84013 0.92237 0.98321 0.0
C682 C 0.88949 0.98963 0.96844 0.0
H683 H 0.90904 0.03566 0.06111 0.0
C684 C 0.89994 0.00459 0.9246 0.0
C685 C 0.89341 0.00098 0.01852 0.0
C686 C 0.88463 0.98602 0.06794 0.0
C687 C 0.91395 0.03059 0.92932 0.0
C688 C 0.9168 0.04197 0.97907 0.0
C689 C 0.90654 0.02697 0.02292 0.0
C690 C 0.93108 0.06934 0.98689 0.0
C691 C 0.92617 0.04548 0.88117 0.0
C692 C 0.95074 0.07999 0.02332 0.0
C693 C 0.96507 0.10581 0.02897 0.0
C694 C 0.96012 0.12138 -0.00216 0.0
C695 C 0.93979 0.11069 0.96306 0.0
C696 C 0.9252 0.0849 0.95817 0.0
H697 H 0.92855 0.03396 0.85083 0.0
H698 H 0.91432 0.05235 0.86415 0.0
H699 H 0.94462 0.06172 0.89066 0.0
H700 H 0.95548 0.06835 0.04629 0.0
H701 H 0.9807 0.11356 0.05589 0.0
H702 H 0.91725 0.87612 0.05465 0.0
H703 H 0.96058 0.89083 0.03232 0.0
H704 H 0.93701 0.84604 0.89146 0.0
H705 H 0.89383 0.83101 0.91357 0.0
H706 H 0.97563 0.84447 0.94403 0.0
H707 H 0.99551 0.9411 0.91462 0.0
H708 H 0.98284 0.929 0.97757 0.0
H709 H 0.9644 0.91512 0.91963 0.0
C710 C 0.9213 0.86918 0.01928 0.0
C711 C 0.90214 0.8526 0.98567 0.0
C712 C 0.94603 0.87773 0.00638 0.0
C713 C 0.95191 0.86988 0.9597 0.0
C714 C 0.93282 0.85245 0.92741 0.0
H715 H 0.10535 0.95726 0.85711 0.0
H716 H 0.06021 0.93104 0.8473 0.0
C717 C 0.90816 0.84393 0.94018 0.0
C718 C 0.97798 0.8803 0.94383 0.0
H719 H 0.0304 0.93504 0.91869 0.0
C720 C 0.98759 0.86424 0.93795 0.0
C721 C 0.99327 0.90594 0.93426 0.0
C722 C 0.98346 0.92379 0.93627 0.0
C723 C 0.0126 0.87344 0.92587 0.0
C724 C 0.02834 0.89934 0.92031 0.0
C725 C 0.01834 0.91517 0.92312 0.0
C726 C 0.05562 0.9109 0.91888 0.0
C727 C 0.02199 0.85538 0.92005 0.0
C728 C 0.06797 0.90767 0.96138 0.0
C729 C 0.09353 0.92254 0.96702 0.0
C730 C 0.10724 0.94104 0.93042 0.0
C731 C 0.09521 0.94305 0.88573 0.0
C732 C 0.06947 0.92817 0.88022 0.0
H733 H 0.00704 0.83692 0.90597 0.0
H734 H 0.03771 0.86232 0.89251 0.0
H735 H 0.0284 0.85271 0.95873 0.0
H736 H 0.05769 0.89488 0.99225 0.0
H737 H 0.10236 0.92052 0.00177 0.0
H738 H 0.71221 0.49045 0.23747 0.0
H739 H 0.7352 0.46812 0.22795 0.0
H740 H 0.77748 0.50435 0.36741 0.0
H741 H 0.7549 0.52686 0.37691 0.0
H742 H 0.80509 0.49672 0.28825 0.0
H743 H 0.71629 0.41133 0.33412 0.0
H744 H 0.71564 0.42831 0.27816 0.0
H745 H 0.72056 0.44213 0.34217 0.0
C746 C 0.72697 0.49427 0.26509 0.0
C747 C 0.73151 0.51011 0.30839 0.0
C748 C 0.73991 0.48134 0.25987 0.0
C749 C 0.75756 0.48418 0.29774 0.0
C750 C 0.76376 0.50176 0.33805 0.0
H751 H 0.80169 0.37958 0.40286 0.0
H752 H 0.78598 0.40865 0.3949 0.0
C753 C 0.75083 0.51461 0.3434 0.0
C754 C 0.76767 0.4671 0.29914 0.0
H755 H 0.75118 0.40667 0.32174 0.0
C756 C 0.79334 0.47699 0.29514 0.0
C757 C 0.75227 0.4415 0.30939 0.0
C758 C 0.72468 0.43011 0.31668 0.0
C759 C 0.80405 0.46189 0.30088 0.0
C760 C 0.78859 0.43621 0.3103 0.0
C761 C 0.76294 0.42635 0.3144 0.0
C762 C 0.79862 0.41917 0.31568 0.0
C763 C 0.83184 0.47363 0.29813 0.0
C764 C 0.81066 0.41533 0.27364 0.0
C765 C 0.81961 0.39883 0.27804 0.0
C766 C 0.81656 0.38568 0.32454 0.0
C767 C 0.80438 0.38946 0.36662 0.0
C768 C 0.7954 0.40603 0.36212 0.0
H769 H 0.8413 0.49409 0.30423 0.0
H770 H 0.83886 0.46562 0.32776 0.0
H771 H 0.83692 0.46996 0.25892 0.0
H772 H 0.81287 0.42488 0.23711 0.0
H773 H 0.8288 0.39629 0.24472 0.0
H774 H 0.66078 0.44163 0.39683 0.0
H775 H 0.64233 0.39653 0.38609 0.0
H776 H 0.58437 0.39447 0.28924 0.0
H777 H 0.6034 0.43954 0.29771 0.0
H778 H 0.60017 0.35872 0.4111 0.0
H779 H 0.60656 0.35797 0.19628 0.0
H780 H 0.62153 0.38638 0.23439 0.0
H781 H 0.58932 0.37263 0.21592 0.0
C782 C 0.64403 0.43147 0.37347 0.0
C783 C 0.63357 0.44401 0.34781 0.0
C784 C 0.63358 0.40576 0.36716 0.0
C785 C 0.61236 0.39219 0.33558 0.0
C786 C 0.60126 0.40462 0.31209 0.0
H787 H 0.50749 0.23669 0.35603 0.0
H788 H 0.53184 0.28189 0.36266 0.0
C789 C 0.61197 0.43033 0.31748 0.0
C790 C 0.60137 0.36495 0.32822 0.0
H791 H 0.57801 0.31885 0.23536 0.0
C792 C 0.59561 0.35004 0.37263 0.0
C793 C 0.59603 0.35359 0.278 0.0
C794 C 0.60397 0.36853 0.22851 0.0
C795 C 0.58365 0.32405 0.36831 0.0
C796 C 0.57631 0.31263 0.31828 0.0
C797 C 0.58313 0.32756 0.27376 0.0
C798 C 0.56093 0.28528 0.31152 0.0
C799 C 0.57922 0.30922 0.41749 0.0
C800 C 0.56834 0.27224 0.27791 0.0
C801 C 0.554 0.24636 0.27281 0.0
C802 C 0.53219 0.23319 0.30169 0.0
C803 C 0.52442 0.24636 0.33388 0.0
C804 C 0.53846 0.27217 0.33814 0.0
H805 H 0.59326 0.32024 0.44815 0.0
H806 H 0.56077 0.30423 0.43321 0.0
H807 H 0.57977 0.29186 0.40994 0.0
H808 H 0.58548 0.28201 0.2565 0.0
H809 H 0.56041 0.23661 0.24779 0.0
H810 H 0.56277 0.13501 0.28604 0.0
H811 H 0.60743 0.15085 0.28685 0.0
H812 H 0.61789 0.21098 0.38936 0.0
H813 H 0.57311 0.19439 0.3906 0.0
H814 H 0.63809 0.19282 0.24536 0.0
H815 H 0.66793 0.19634 0.45012 0.0
H816 H 0.6358 0.17872 0.43025 0.0
H817 H 0.65008 0.21159 0.44395 0.0
C818 C 0.57459 0.15102 0.31045 0.0
C819 C 0.56464 0.16347 0.33847 0.0
C820 C 0.60008 0.16015 0.31062 0.0
C821 C 0.61607 0.1821 0.33816 0.0
C822 C 0.60595 0.19369 0.36881 0.0
H823 H 0.76058 0.29716 0.25022 0.0
H824 H 0.71634 0.26615 0.25185 0.0
C825 C 0.58035 0.18422 0.36952 0.0
C826 C 0.64314 0.19463 0.32909 0.0
H827 H 0.69927 0.22468 0.39105 0.0
C828 C 0.65148 0.19939 0.27726 0.0
C829 C 0.66067 0.20297 0.37048 0.0
C830 C 0.65313 0.19688 0.42674 0.0
C831 C 0.67679 0.21302 0.26578 0.0
C832 C 0.69422 0.22291 0.30731 0.0
C833 C 0.68593 0.21735 0.35907 0.0
C834 C 0.72105 0.23979 0.29863 0.0
C835 C 0.6845 0.21657 0.2093 0.0
C836 C 0.73844 0.23526 0.32386 0.0
C837 C 0.7635 0.25318 0.32395 0.0
C838 C 0.77167 0.27572 0.29796 0.0
C839 C 0.75465 0.27965 0.26958 0.0
C840 C 0.72941 0.26191 0.27048 0.0
H841 H 0.67062 0.20105 0.18439 0.0
H842 H 0.68574 0.23399 0.19505 0.0
H843 H 0.70278 0.21784 0.20428 0.0
H844 H 0.73248 0.21836 0.3457 0.0
H845 H 0.7764 0.24991 0.34634 0.0
H846 H 0.50193 0.73044 0.64512 0.0
H847 H 0.48137 0.75496 0.64261 0.0
H848 H 0.44921 0.72687 0.79306 0.0
H849 H 0.46974 0.7018 0.79585 0.0
H850 H 0.41504 0.72372 0.71495 0.0
H851 H 0.49751 0.81809 0.72599 0.0
H852 H 0.49982 0.7986 0.67678 0.0
H853 H 0.49847 0.79056 0.74451 0.0
C854 C 0.49069 0.72957 0.67805 0.0
C855 C 0.48746 0.71415 0.72077 0.0
C856 C 0.47907 0.74376 0.67661 0.0
C857 C 0.46406 0.74297 0.7179 0.0
C858 C 0.4609 0.72781 0.76097 0.0
H859 H 0.4019 0.84014 0.74296 0.0
H860 H 0.42456 0.81801 0.75647 0.0
C861 C 0.47266 0.71359 0.76258 0.0
C862 C 0.45074 0.75705 0.71413 0.0
H863 H 0.45984 0.81538 0.69566 0.0
C864 C 0.42477 0.74378 0.71129 0.0
C865 C 0.46354 0.78321 0.70966 0.0
C866 C 0.49136 0.7985 0.71489 0.0
C867 C 0.41125 0.75597 0.70251 0.0
C868 C 0.42413 0.78202 0.6956 0.0
C869 C 0.45005 0.79535 0.70009 0.0
C870 C 0.411 0.79594 0.68554 0.0
C871 C 0.38332 0.74092 0.70108 0.0
C872 C 0.39636 0.7913 0.64036 0.0
C873 C 0.38333 0.80397 0.63236 0.0
C874 C 0.38484 0.82151 0.66943 0.0
C875 C 0.40022 0.82667 0.7137 0.0
C876 C 0.4132 0.81404 0.72157 0.0
H877 H 0.37632 0.72248 0.71947 0.0
H878 H 0.37513 0.75095 0.72139 0.0
H879 H 0.3768 0.73777 0.65983 0.0
H880 H 0.39485 0.77772 0.61155 0.0
H881 H 0.37168 0.79964 0.59786 0.0
H882 H 0.17717 0.56697 0.75784 0.0
H883 H 0.19478 0.61166 0.76924 0.0
H884 H 0.22228 0.62318 0.61179 0.0
H885 H 0.20488 0.57821 0.6 0.0
H886 H 0.25761 0.65393 0.68834 0.0
H887 H 0.16971 0.65583 0.70619 0.0
H888 H 0.17267 0.63471 0.74922 0.0
H889 H 0.17087 0.62937 0.67984 0.0
C890 C 0.18681 0.57892 0.72536 0.0
C891 C 0.18959 0.56901 0.67787 0.0
C892 C 0.19675 0.60448 0.73196 0.0
C893 C 0.20953 0.62065 0.69119 0.0
C894 C 0.21234 0.61091 0.64364 0.0
H895 H 0.25862 0.77187 0.6317 0.0
H896 H 0.23529 0.72693 0.6424 0.0
C897 C 0.20236 0.58526 0.63692 0.0
C898 C 0.22075 0.64781 0.69893 0.0
H899 H 0.2069 0.6937 0.72263 0.0
C900 C 0.24657 0.66266 0.696 0.0
C901 C 0.20621 0.65903 0.70894 0.0
C902 C 0.17831 0.64399 0.71084 0.0
C903 C 0.2583 0.68856 0.70216 0.0
C904 C 0.24378 0.6998 0.71228 0.0
C905 C 0.21796 0.68493 0.71576 0.0
C906 C 0.25485 0.72713 0.71264 0.0
C907 C 0.28604 0.70377 0.69579 0.0
C908 C 0.27271 0.74221 0.75023 0.0
C909 C 0.2861 0.76805 0.74431 0.0
C910 C 0.28178 0.77896 0.70058 0.0
C911 C 0.26249 0.76392 0.66553 0.0
C912 C 0.24911 0.73825 0.6716 0.0
H913 H 0.29389 0.69258 0.67944 0.0
H914 H 0.29098 0.71977 0.66974 0.0
H915 H 0.2949 0.71125 0.73447 0.0
H916 H 0.27711 0.73392 0.78263 0.0
H917 H 0.30087 0.77922 0.77186 0.0
H918 H 0.43996 0.62431 0.61358 0.0
H919 H 0.39469 0.59715 0.61066 0.0
H920 H 0.39845 0.56062 0.75023 0.0
H921 H 0.44329 0.58707 0.7527 0.0
H922 H 0.36319 0.52814 0.68129 0.0
H923 H 0.35434 0.61183 0.71637 0.0
H924 H 0.37056 0.61273 0.65791 0.0
H925 H 0.38363 0.61261 0.72062 0.0
C926 C 0.43113 0.60998 0.64261 0.0
C927 C 0.44502 0.60801 0.68377 0.0
C928 C 0.40531 0.5947 0.6413 0.0
C929 C 0.39324 0.57737 0.6811 0.0
C930 C 0.40737 0.57402 0.71947 0.0
H931 H 0.24012 0.52424 0.77231 0.0
H932 H 0.28507 0.54035 0.77766 0.0
C933 C 0.43299 0.5892 0.72083 0.0
C934 C 0.36596 0.5641 0.68595 0.0
H935 H 0.31715 0.57346 0.70676 0.0
C936 C 0.35309 0.53801 0.68674 0.0
C937 C 0.35298 0.57707 0.69479 0.0
C938 C 0.36605 0.6051 0.69793 0.0
C939 C 0.32744 0.52452 0.69488 0.0
C940 C 0.31432 0.53749 0.70147 0.0
C941 C 0.32727 0.56357 0.7018 0.0
C942 C 0.28694 0.52454 0.70326 0.0
C943 C 0.31469 0.49654 0.69685 0.0
C944 C 0.27318 0.50995 0.66037 0.0
C945 C 0.24778 0.50081 0.65736 0.0
C946 C 0.23559 0.50623 0.69699 0.0
C947 C 0.24906 0.51969 0.74143 0.0
C948 C 0.27468 0.52896 0.74434 0.0
H949 H 0.32775 0.49019 0.70914 0.0
H950 H 0.29884 0.48891 0.72413 0.0
H951 H 0.30758 0.48872 0.65727 0.0
H952 H 0.28227 0.50671 0.62777 0.0
H953 H 0.23785 0.49039 0.62269 0.0
H954 H 0.97204 0.16229 0.70466 0.0
H955 H 0.9772 0.16092 0.60998 0.0
H956 H 0.02913 0.23974 0.61164 0.0
H957 H 0.02414 0.2412 0.70612 0.0
H958 H 0.97256 0.18761 0.52387 0.0
H959 H 0.06931 0.20805 0.55567 0.0
H960 H 0.04716 0.19884 0.60784 0.0
H961 H 0.0623 0.23024 0.58471 0.0
C962 C 0.98404 0.1794 0.68453 0.0
C963 C -0.0021 0.2018 0.71255 0.0
C964 C 0.9871 0.17858 0.63066 0.0
C965 C 0.00401 0.20012 0.60436 0.0
C966 C 0.01645 0.22283 0.63163 0.0
H967 H 0.05629 0.23291 0.28718 0.0
H968 H 0.05109 0.23399 0.38188 0.0
C969 C 0.01349 0.22366 0.68539 0.0
C970 C 0.00969 0.19866 0.54902 0.0
H971 H 0.05643 0.20684 0.46786 0.0
C972 C 0.99083 0.19171 0.51153 0.0
C973 C 0.03359 0.20397 0.53338 0.0
C974 C 0.05423 0.21048 0.57248 0.0
C975 C 0.99539 0.19043 0.45837 0.0
C976 C 0.01931 0.19583 0.44273 0.0
C977 C 0.03815 0.20273 0.48022 0.0
C978 C 0.02504 0.19459 0.38736 0.0
C979 C 0.97474 0.18381 0.41924 0.0
C980 C 0.01304 0.17189 0.36 0.0
C981 C 0.01605 0.17122 0.30623 0.0
C982 C 0.03121 0.19323 0.27911 0.0
C983 C 0.04462 0.21567 0.30723 0.0
C984 C 0.04154 0.21634 0.36112 0.0
H985 H 0.95942 0.18579 0.43619 0.0
H986 H 0.98173 0.19572 0.38422 0.0
H987 H 0.96703 0.16419 0.40638 0.0
H988 H 0.00066 0.15485 0.37996 0.0
H989 H 0.00577 0.15363 0.28547 0.0
H990 H 0.85382 0.82169 0.72089 0.0
H991 H 0.85775 0.82854 0.62663 0.0
H992 H 0.78159 0.8111 0.61705 0.0
H993 H 0.77748 0.80419 0.7114 0.0
H994 H 0.83138 0.79878 0.53908 0.0
H995 H 0.82068 0.8821 0.55977 0.0
H996 H 0.82626 0.86758 0.61494 0.0
H997 H 0.79579 0.85413 0.58634 0.0
C998 C 0.83774 0.81875 0.69855 0.0
C999 C 0.81539 0.81261 0.72354 0.0
C1000 C 0.84007 0.82283 0.6448 0.0
C1001 C 0.82013 0.82087 0.61528 0.0
C1002 C 0.79736 0.81328 0.63951 0.0
H1003 H 0.80079 0.84608 0.29142 0.0
H1004 H 0.7963 0.83814 0.38521 0.0
C1005 C 0.79502 0.80927 0.69326 0.0
C1006 C 0.82351 0.8278 0.5596 0.0
H1007 H 0.82297 0.86929 0.47361 0.0
C1008 C 0.82962 0.81422 0.5247 0.0
C1009 C 0.82128 0.84804 0.54122 0.0
C1010 C 0.81586 0.86398 0.57751 0.0
C1011 C 0.83312 0.82008 0.4715 0.0
C1012 C 0.83084 0.84028 0.45315 0.0
C1013 C 0.82472 0.85385 0.48801 0.0
C1014 C 0.83432 0.8473 0.39759 0.0
C1015 C 0.83876 0.80433 0.43513 0.0
C1016 C 0.85744 0.85598 0.37415 0.0
C1017 C 0.86015 0.86077 0.32068 0.0
C1018 C 0.83976 0.857 0.28987 0.0
C1019 C 0.81692 0.84946 0.31412 0.0
C1020 C 0.81426 0.84471 0.3676 0.0
H1021 H 0.83451 0.78641 0.45307 0.0
H1022 H 0.82802 0.80037 0.39806 0.0
H1023 H 0.85875 0.81457 0.4255 0.0
H1024 H 0.87326 0.85858 0.39703 0.0
H1025 H 0.87806 0.86691 0.30324 0.0
H1026 H 0.21692 0.99141 0.67812 0.0
H1027 H 0.21108 0.98735 0.58319 0.0
H1028 H 0.17757 0.03364 0.58824 0.0
H1029 H 0.18339 0.0378 0.68308 0.0
H1030 H 0.16419 0.96579 0.53663 0.0
H1031 H 0.22488 0.06156 0.46493 0.0
H1032 H 0.22844 0.05188 0.5292 0.0
H1033 H 0.20457 0.05946 0.51662 0.0
C1034 C 0.20873 0.00109 0.65878 0.0
C1035 C 0.20054 0.01487 0.68782 0.0
C1036 C 0.20543 -0.00123 0.60471 0.0
C1037 C 0.19401 0.01028 0.57887 0.0
C1038 C 0.18684 0.02499 0.60743 0.0
H1039 H 0.14143 0.0058 0.26397 0.0
H1040 H 0.14786 0.00999 0.35874 0.0
C1041 C 0.1902 0.02738 0.66154 0.0
C1042 C 0.18747 0.00499 0.52295 0.0
H1043 H 0.19571 0.03227 0.40416 0.0
C1044 C 0.17119 0.98027 0.50752 0.0
C1045 C 0.19655 0.02399 0.4854 0.0
C1046 C 0.21475 0.05069 0.49966 0.0
C1047 C 0.16342 0.97407 0.45538 0.0
C1048 C 0.17244 0.99308 0.41788 0.0
C1049 C 0.18874 0.01779 0.43328 0.0
C1050 C 0.16574 0.9878 0.36204 0.0
C1051 C 0.14528 0.94737 0.44102 0.0
C1052 C 0.17322 0.97348 0.33299 0.0
C1053 C 0.16958 0.97106 0.27894 0.0
C1054 C 0.15861 0.98312 0.25321 0.0
C1055 C 0.15014 0.99651 0.28281 0.0
C1056 C 0.15376 -0.0011 0.33681 0.0
H1057 H 0.13546 0.93632 0.4758 0.0
H1058 H 0.13134 0.94617 0.41216 0.0
H1059 H 0.15545 0.9388 0.42307 0.0
H1060 H 0.18288 0.96514 0.35176 0.0
H1061 H 0.17664 0.96096 0.25704 0.0
H1062 H 0.67615 0.48401 0.64261 0.0
H1063 H 0.66964 0.48473 0.73657 0.0
H1064 H 0.70196 0.56442 0.73298 0.0
H1065 H 0.70793 0.56377 0.63857 0.0
H1066 H 0.70144 0.50965 0.82132 0.0
H1067 H 0.63207 0.53992 0.79067 0.0
H1068 H 0.64312 0.52863 0.738 0.0
H1069 H 0.66189 0.55982 0.76272 0.0
C1070 C 0.68209 0.50171 0.66198 0.0
C1071 C 0.69228 0.5238 0.63326 0.0
C1072 C 0.6784 0.50209 0.71557 0.0
C1073 C 0.68478 0.52454 0.74128 0.0
C1074 C 0.69645 0.54684 0.71346 0.0
H1075 H 0.67168 0.56227 0.05923 0.0
H1076 H 0.67712 0.56184 0.96467 0.0
C1077 C 0.70014 0.54648 0.65974 0.0
C1078 C 0.67824 0.52434 0.79672 0.0
H1079 H 0.64244 0.53672 0.87832 0.0
C1080 C 0.68851 0.51551 0.83384 0.0
C1081 C 0.66122 0.53185 0.81265 0.0
C1082 C 0.64873 0.54039 0.77396 0.0
C1083 C 0.68256 0.5144 0.88684 0.0
C1084 C 0.6656 0.52197 0.90276 0.0
C1085 C 0.65533 0.53082 0.86571 0.0
C1086 C 0.65921 0.52179 0.95823 0.0
C1087 C 0.69482 0.50563 0.92559 0.0
C1088 C 0.64639 0.49933 0.98521 0.0
C1089 C 0.64318 0.49952 0.03917 0.0
C1090 C 0.65285 0.52219 0.06668 0.0
C1091 C 0.66426 0.54457 0.03891 0.0
C1092 C 0.66735 0.54435 0.98504 0.0
H1093 H 0.71094 0.50516 0.90853 0.0
H1094 H 0.70116 0.51789 0.96083 0.0
H1095 H 0.68122 0.48657 0.93819 0.0
H1096 H 0.63969 0.48173 0.96484 0.0
H1097 H 0.63445 0.48204 0.05971 0.0
H1098 H 0.45482 0.11526 0.59146 0.0
H1099 H 0.45971 0.11534 0.68636 0.0
H1100 H 0.50285 0.19545 0.6873 0.0
H1101 H 0.49779 0.19547 0.59236 0.0
H1102 H 0.50586 0.13407 0.73308 0.0
H1103 H 0.45683 0.1813 0.81114 0.0
H1104 H 0.45169 0.16861 0.74558 0.0
H1105 H 0.47862 0.1981 0.76072 0.0
C1106 C 0.46486 0.13289 0.61217 0.0
C1107 C 0.476 0.15537 0.58482 0.0
C1108 C 0.46766 0.13291 0.66621 0.0
C1109 C 0.48157 0.15538 0.69371 0.0
C1110 C 0.49167 0.17794 0.66684 0.0
H1111 H 0.53577 0.19386 0.01119 0.0
H1112 H 0.53031 0.19371 0.91645 0.0
C1113 C 0.48876 0.17794 0.6127 0.0
C1114 C 0.48756 0.15504 0.74944 0.0
H1115 H 0.48272 0.17521 0.87064 0.0
C1116 C 0.50068 0.14293 0.76327 0.0
C1117 C 0.48088 0.16675 0.78845 0.0
C1118 C 0.46603 0.17924 0.77594 0.0
C1119 C 0.50759 0.14247 0.81524 0.0
C1120 C 0.50095 0.15421 0.8542 0.0
C1121 C 0.48786 0.16634 0.84041 0.0
C1122 C 0.50692 0.15379 0.90986 0.0
C1123 C 0.5223 0.12985 0.82795 0.0
C1124 C 0.49606 0.13131 0.93702 0.0
C1125 C 0.49915 0.13134 0.99109 0.0
C1126 C 0.51296 0.15389 0.01864 0.0
C1127 C 0.52484 0.17625 0.99088 0.0
C1128 C 0.52176 0.1762 0.93691 0.0
H1129 H 0.53101 0.12712 0.79264 0.0
H1130 H 0.53702 0.14081 0.8574 0.0
H1131 H 0.50975 0.1113 0.8446 0.0
H1132 H 0.48423 0.11387 0.9168 0.0
H1133 H 0.48954 0.11389 0.01162 0.0
H1134 H 0.80782 0.34421 0.62828 0.0
H1135 H 0.8152 0.34855 0.72281 0.0
H1136 H 0.84845 0.30214 0.7137 0.0
H1137 H 0.84141 0.2979 0.61916 0.0
H1138 H 0.81506 0.293 0.80086 0.0
H1139 H 0.88769 0.39219 0.77987 0.0
H1140 H 0.85814 0.38345 0.75042 0.0
H1141 H 0.87626 0.3706 0.72531 0.0
C1142 C 0.81647 0.33473 0.64656 0.0
C1143 C 0.82427 0.32092 0.61642 0.0
C1144 C 0.82069 0.33726 0.70035 0.0
C1145 C 0.8328 0.32606 0.72462 0.0
C1146 C 0.83921 0.31101 0.6953 0.0
H1147 H 0.88047 0.3244 0.04266 0.0
H1148 H 0.87503 0.32041 0.94759 0.0
C1149 C 0.83501 0.30847 0.64146 0.0
C1150 C 0.83985 0.33102 0.78018 0.0
H1151 H 0.87723 0.37713 0.86601 0.0
C1152 C 0.8287 0.31133 0.81524 0.0
C1153 C 0.85771 0.35499 0.79829 0.0
C1154 C 0.87085 0.37653 0.76157 0.0
C1155 C 0.83456 0.31512 0.86863 0.0
C1156 C 0.85241 0.33911 0.8868 0.0
C1157 C 0.86364 0.35878 0.85165 0.0
C1158 C 0.85898 0.34423 0.9426 0.0
C1159 C 0.82117 0.29359 0.90529 0.0
C1160 C 0.85305 0.36008 0.97039 0.0
C1161 C 0.8563 0.36253 0.02447 0.0
C1162 C 0.86551 0.34915 0.05129 0.0
C1163 C 0.873 0.33462 0.02284 0.0
C1164 C 0.86984 0.33226 0.96877 0.0
H1165 H 0.80418 0.27812 0.88697 0.0
H1166 H 0.83361 0.28632 0.91622 0.0
H1167 H 0.8159 0.29961 0.94164 0.0
H1168 H 0.84478 0.36956 0.95057 0.0
H1169 H 0.85021 0.3737 0.04555 0.0
H1170 H 0.29939 0.85014 0.37255 0.0
H1171 H 0.30368 0.85694 0.27821 0.0
H1172 H 0.34788 0.82127 0.27017 0.0
H1173 H 0.34303 0.81373 0.36402 0.0
H1174 H 0.34902 0.88542 0.22979 0.0
H1175 H 0.30001 0.7896 0.1473 0.0
H1176 H 0.29582 0.79662 0.21376 0.0
H1177 H 0.32258 0.79434 0.19666 0.0
C1178 C 0.30937 0.84307 0.3504 0.0
C1179 C 0.32088 0.8314 0.37563 0.0
C1180 C 0.31199 0.84717 0.29666 0.0
C1181 C 0.32598 0.83949 0.26727 0.0
C1182 C 0.33669 0.82701 0.292 0.0
H1183 H 0.37713 0.85771 0.9485 0.0
H1184 H 0.37301 0.85203 0.04322 0.0
C1185 C 0.33408 0.82289 0.34567 0.0
C1186 C 0.33105 0.84624 0.21166 0.0
H1187 H 0.32575 0.82192 0.08922 0.0
C1188 C 0.34378 0.87156 0.19894 0.0
C1189 C 0.32431 0.82809 0.17171 0.0
C1190 C 0.30972 0.80064 0.18286 0.0
C1191 C 0.35034 0.87923 0.14725 0.0
C1192 C 0.34375 0.86108 0.10741 0.0
C1193 C 0.33096 0.83578 0.12008 0.0
C1194 C 0.34908 0.86777 0.05187 0.0
C1195 C 0.36463 0.90666 0.13575 0.0
C1196 C 0.33742 0.879 0.02584 0.0
C1197 C 0.33981 0.88234 0.97192 0.0
C1198 C 0.35383 0.87441 0.94316 0.0
C1199 C 0.36647 0.86427 0.96974 0.0
C1200 C 0.36398 0.86084 0.0237 0.0
H1201 H 0.37351 0.91798 0.17153 0.0
H1202 H 0.37917 0.91079 0.10629 0.0
H1203 H 0.35175 0.91247 0.11962 0.0
H1204 H 0.32557 0.88416 0.04683 0.0
H1205 H 0.32996 0.8903 0.95239 0.0
H1206 H 0.1575 0.52471 0.95347 0.0
H1207 H 0.16363 0.52689 0.04827 0.0
H1208 H 0.13405 0.44756 0.05166 0.0
H1209 H 0.12786 0.44521 0.95679 0.0
H1210 H 0.13141 0.50207 0.13354 0.0
H1211 H 0.20554 0.47774 0.11042 0.0
H1212 H 0.1934 0.48699 0.05624 0.0
H1213 H 0.17619 0.45601 0.08126 0.0
C1214 C 0.15172 0.50766 0.97462 0.0
C1215 C 0.14245 0.48482 0.94797 0.0
C1216 C 0.15537 0.50896 0.02858 0.0
C1217 C 0.14981 0.48747 0.05636 0.0
C1218 C 0.13895 0.4644 0.03042 0.0
H1219 H 0.16675 0.45817 0.377 0.0
H1220 H 0.16074 0.45618 0.28223 0.0
C1221 C 0.13536 0.46308 0.97648 0.0
C1222 C 0.15665 0.48941 0.11197 0.0
H1223 H 0.19442 0.48143 0.19696 0.0
C1224 C 0.14521 0.49764 0.14753 0.0
C1225 C 0.17479 0.48371 0.12959 0.0
C1226 C 0.18839 0.47582 0.09242 0.0
C1227 C 0.1511 0.49986 0.20087 0.0
C1228 C 0.16916 0.49406 0.21849 0.0
C1229 C 0.18064 0.48588 0.18294 0.0
C1230 C 0.17585 0.49581 0.27412 0.0
C1231 C 0.13763 0.50788 0.2381 0.0
C1232 C 0.18733 0.51889 0.30004 0.0
C1233 C 0.19091 0.52011 0.35399 0.0
C1234 C 0.18312 0.49824 0.38255 0.0
C1235 C 0.17311 0.47532 0.35589 0.0
C1236 C 0.16952 0.47413 0.30193 0.0
H1237 H 0.12076 0.50652 0.21987 0.0
H1238 H 0.13219 0.49638 0.27382 0.0
H1239 H 0.15012 0.52752 0.25012 0.0
H1240 H 0.19275 0.53583 0.27877 0.0
H1241 H 0.19902 0.53804 0.37361 0.0
H1242 H 0.51715 0.70652 0.42847 0.0
H1243 H 0.51174 0.70225 0.33327 0.0
H1244 H 0.54769 0.65821 0.32958 0.0
H1245 H 0.55354 0.66276 0.42442 0.0
H1246 H 0.56067 0.69357 0.24648 0.0
H1247 H 0.459 0.63315 0.27234 0.0
H1248 H 0.47285 0.66333 0.30319 0.0
H1249 H 0.48095 0.64092 0.32543 0.0
C1250 C 0.52448 0.69652 0.4071 0.0
C1251 C 0.53552 0.68474 0.43358 0.0
C1252 C 0.52116 0.69389 0.35299 0.0
C1253 C 0.52886 0.67948 0.32497 0.0
C1254 C 0.54145 0.6692 0.35084 0.0
H1255 H 0.51798 0.62738 0.00588 0.0
H1256 H 0.52306 0.63242 0.10102 0.0
C1257 C 0.54472 0.67177 0.40483 0.0
C1258 C 0.52244 0.67365 0.26928 0.0
H1259 H 0.47353 0.64131 0.18574 0.0
C1260 C 0.54166 0.68217 0.23305 0.0
C1261 C 0.49758 0.65863 0.25238 0.0
C1262 C 0.47635 0.64826 0.29028 0.0
C1263 C 0.53662 0.67632 0.17983 0.0
C1264 C 0.51177 0.66116 0.16298 0.0
C1265 C 0.49254 0.65275 0.19916 0.0
C1266 C 0.50542 0.65478 0.10742 0.0
C1267 C 0.55785 0.68675 0.14193 0.0
C1268 C 0.49259 0.66451 0.08053 0.0
C1269 C 0.48947 0.66147 0.02656 0.0
C1270 C 0.4991 0.6486 -0.00113 0.0
C1271 C 0.51032 0.6373 0.02641 0.0
C1272 C 0.51347 0.64038 0.08049 0.0
H1273 H 0.57504 0.70222 0.15961 0.0
H1274 H 0.56175 0.67185 0.12986 0.0
H1275 H 0.55306 0.69364 0.10631 0.0
H1276 H 0.48606 0.67547 0.10094 0.0
H1277 H 0.48048 0.6701 0.00613 0.0
loop_
_geom_bond_atom_site_label_1
_geom_bond_atom_site_label_2
_geom_bond_distance
_geom_bond_site_symmetry_2
_ccdc_geom_bond_type
C0 O16 1.251 . S
C0 O18 1.254 1_554 S
N1 C2 1.333 . S
N1 C6 1.307 . S
N1 Zn7 2.020 . S
C2 N1 1.333 . S
C2 C3 1.379 . S
C2 H20 0.952 1_455 S
C3 C2 1.379 . S
C3 C4 1.390 . S
C3 H30 0.949 1_455 S
C4 C3 1.390 . S
C4 C5 1.357 . S
C5 C4 1.357 . S
C5 C6 1.370 . S
C5 H31 0.950 . S
C6 N1 1.307 . S
C6 C5 1.370 . S
C6 H24 0.948 . S
Zn7 N1 2.020 . S
Zn7 O16 2.039 1_455 S
Zn7 O22 2.034 1_455 S
Zn7 O26 2.025 . S
Zn7 O28 2.024 . S
C8 O27 1.246 . S
C8 O28 1.249 1_556 S
N9 C10 1.307 . S
N9 C11 1.333 1_655 S
N9 Zn15 2.020 1_655 S
C10 N9 1.307 . S
C10 C14 1.370 . S
C10 H21 0.948 . S
C11 N9 1.333 1_455 S
C11 C12 1.379 . S
C11 H19 0.952 . S
C12 C11 1.379 . S
C12 C13 1.390 1_455 S
C12 H32 0.949 . S
C13 C12 1.390 1_655 S
C13 C14 1.357 . S
C14 C10 1.370 . S
C14 C13 1.357 . S
C14 H33 0.950 . S
Zn15 N9 2.020 1_455 S
Zn15 O18 2.025 1_455 S
Zn15 O23 2.024 1_455 S
Zn15 O25 2.039 . S
Zn15 O27 2.034 . S
O16 C0 1.251 . S
O16 Zn7 2.039 1_655 S
C17 O22 1.246 . S
C17 O23 1.249 1_554 S
O18 C0 1.254 1_556 S
O18 Zn15 2.025 1_655 S
H19 C11 0.952 . S
H20 C2 0.952 1_655 S
H21 C10 0.948 . S
O22 Zn7 2.034 1_655 S
O22 C17 1.246 . S
O23 Zn15 2.024 1_655 S
O23 C17 1.249 1_556 S
H24 C6 0.948 . S
O25 Zn15 2.039 . S
O25 C29 1.251 . S
O26 Zn7 2.025 . S
O26 C29 1.254 1_554 S
O27 C8 1.246 . S
O27 Zn15 2.034 . S
O28 Zn7 2.024 . S
O28 C8 1.249 1_554 S
C29 O25 1.251 . S
C29 O26 1.254 1_556 S
H30 C3 0.949 1_655 S
H31 C5 0.950 . S
H32 C12 0.949 . S
H33 C14 0.950 . S
C34 O50 1.251 . S
C34 O52 1.254 1_556 S
N35 C36 1.333 . S
N35 C40 1.307 . S
N35 Zn41 2.020 . S
C36 N35 1.333 . S
C36 C37 1.379 . S
C36 H54 0.952 . S
C37 C36 1.379 . S
C37 C38 1.390 . S
C37 H64 0.949 . S
C38 C37 1.390 . S
C38 C39 1.357 . S
C39 C38 1.357 . S
C39 C40 1.370 . S
C39 H65 0.950 . S
C40 N35 1.307 . S
C40 C39 1.370 . S
C40 H58 0.948 . S
Zn41 N35 2.020 . S
Zn41 O50 2.039 . S
Zn41 O56 2.034 . S
Zn41 O60 2.025 . S
Zn41 O62 2.024 . S
C42 O61 1.246 . S
C42 O62 1.249 1_554 S
N43 C44 1.307 . S
N43 C45 1.333 . S
N43 Zn49 2.020 . S
C44 N43 1.307 . S
C44 C48 1.370 . S
C44 H55 0.948 . S
C45 N43 1.333 . S
C45 C46 1.379 . S
C45 H53 0.952 . S
C46 C45 1.379 . S
C46 C47 1.390 . S
C46 H66 0.949 . S
C47 C46 1.390 . S
C47 C48 1.357 . S
C48 C44 1.370 . S
C48 C47 1.357 . S
C48 H67 0.950 . S
Zn49 N43 2.020 . S
Zn49 O52 2.025 . S
Zn49 O57 2.024 . S
Zn49 O59 2.039 . S
Zn49 O61 2.034 . S
O50 C34 1.251 . S
O50 Zn41 2.039 . S
C51 O56 1.246 . S
C51 O57 1.249 1_556 S
O52 C34 1.254 1_554 S
O52 Zn49 2.025 . S
H53 C45 0.952 . S
H54 C36 0.952 . S
H55 C44 0.948 . S
O56 Zn41 2.034 . S
O56 C51 1.246 . S
O57 Zn49 2.024 . S
O57 C51 1.249 1_554 S
H58 C40 0.948 . S
O59 Zn49 2.039 . S
O59 C63 1.251 . S
O60 Zn41 2.025 . S
O60 C63 1.254 1_556 S
O61 C42 1.246 . S
O61 Zn49 2.034 . S
O62 Zn41 2.024 . S
O62 C42 1.249 1_556 S
C63 O59 1.251 . S
C63 O60 1.254 1_554 S
H64 C37 0.949 . S
H65 C39 0.950 . S
H66 C46 0.949 . S
H67 C48 0.950 . S
C68 O84 1.251 . S
C68 O86 1.254 1_554 S
N69 C70 1.333 1_565 S
N69 C74 1.307 . S
N69 Zn75 2.020 1_565 S
C70 N69 1.333 1_545 S
C70 C71 1.379 . S
C70 H88 0.952 . S
C71 C70 1.379 . S
C71 C72 1.390 1_545 S
C71 H98 0.949 . S
C72 C71 1.390 1_565 S
C72 C73 1.357 . S
C73 C72 1.357 . S
C73 C74 1.370 . S
C73 H99 0.950 . S
C74 N69 1.307 . S
C74 C73 1.370 . S
C74 H92 0.948 . S
Zn75 N69 2.020 1_545 S
Zn75 O84 2.039 . S
Zn75 O90 2.034 . S
Zn75 O94 2.025 1_545 S
Zn75 O96 2.024 1_545 S
C76 O95 1.246 . S
C76 O96 1.249 1_556 S
N77 C78 1.307 . S
N77 C79 1.377 . S
N77 Zn83 2.020 . S
C78 N77 1.307 . S
C78 C82 1.370 . S
C78 H89 0.948 . S
C79 N77 1.377 . S
C79 C80 1.384 . S
C79 H87 0.903 1_545 S
C80 C79 1.384 . S
C80 C81 1.390 . S
C80 H100 0.949 1_545 S
C81 C80 1.390 . S
C81 C82 1.357 . S
C82 C78 1.370 . S
C82 C81 1.357 . S
C82 H101 0.950 . S
Zn83 N77 2.020 . S
Zn83 O86 2.025 . S
Zn83 O91 2.024 . S
Zn83 O93 2.039 1_545 S
Zn83 O95 2.034 1_545 S
O84 C68 1.251 . S
O84 Zn75 2.039 . S
C85 O90 1.246 . S
C85 O91 1.249 1_554 S
O86 C68 1.254 1_556 S
O86 Zn83 2.025 . S
H87 C79 0.903 1_565 S
H88 C70 0.952 . S
H89 C78 0.948 . S
O90 Zn75 2.034 . S
O90 C85 1.246 . S
O91 Zn83 2.024 . S
O91 C85 1.249 1_556 S
H92 C74 0.948 . S
O93 Zn83 2.039 1_565 S
O93 C97 1.251 . S
O94 Zn75 2.025 1_565 S
O94 C97 1.254 1_554 S
O95 C76 1.246 . S
O95 Zn83 2.034 1_565 S
O96 Zn75 2.024 1_565 S
O96 C76 1.249 1_554 S
C97 O93 1.251 . S
C97 O94 1.254 1_556 S
H98 C71 0.949 . S
H99 C73 0.950 . S
H100 C80 0.949 1_565 S
H101 C82 0.950 . S
C102 O118 1.251 . S
C102 O120 1.254 . S
N103 C104 1.333 . S
N103 C108 1.307 . S
N103 Zn109 2.020 . S
C104 N103 1.333 . S
C104 C105 1.379 . S
C104 H122 0.952 . S
C105 C104 1.379 . S
C105 C106 1.390 . S
C105 H132 0.949 . S
C106 C105 1.390 . S
C106 C107 1.357 . S
C107 C106 1.357 . S
C107 C108 1.370 . S
C107 H133 0.950 . S
C108 N103 1.307 . S
C108 C107 1.370 . S
C108 H126 0.948 . S
Zn109 N103 2.020 . S
Zn109 O118 2.039 . S
Zn109 O124 2.034 . S
Zn109 O128 2.025 . S
Zn109 O130 2.024 . S
C110 O129 1.246 . S
C110 O130 1.249 . S
N111 C112 1.307 . S
N111 C113 1.333 . S
N111 Zn117 2.020 . S
C112 N111 1.307 . S
C112 C116 1.370 . S
C112 H123 0.948 . S
C113 N111 1.333 . S
C113 C114 1.379 . S
C113 H121 0.952 . S
C114 C113 1.379 . S
C114 C115 1.390 . S
C114 H134 0.949 . S
C115 C114 1.390 . S
C115 C116 1.357 . S
C116 C112 1.370 . S
C116 C115 1.357 . S
C116 H135 0.950 . S
Zn117 N111 2.020 . S
Zn117 O120 2.025 . S
Zn117 O125 2.024 . S
Zn117 O127 2.039 . S
Zn117 O129 2.034 . S
O118 C102 1.251 . S
O118 Zn109 2.039 . S
C119 O124 1.246 . S
C119 O125 1.249 . S
O120 C102 1.254 . S
O120 Zn117 2.025 . S
H121 C113 0.952 . S
H122 C104 0.952 . S
H123 C112 0.948 . S
O124 Zn109 2.034 . S
O124 C119 1.246 . S
O125 Zn117 2.024 . S
O125 C119 1.249 . S
H126 C108 0.948 . S
O127 Zn117 2.039 . S
O127 C131 1.251 . S
O128 Zn109 2.025 . S
O128 C131 1.254 . S
O129 C110 1.246 . S
O129 Zn117 2.034 . S
O130 Zn109 2.024 . S
O130 C110 1.249 . S
C131 O127 1.251 . S
C131 O128 1.254 . S
H132 C105 0.949 . S
H133 C107 0.950 . S
H134 C114 0.949 . S
H135 C116 0.950 . S
C136 O152 1.251 . S
C136 O154 1.254 . S
N137 C138 1.333 . S
N137 C142 1.307 . S
N137 Zn143 2.020 . S
C138 N137 1.333 . S
C138 C139 1.379 . S
C138 H156 0.952 . S
C139 C138 1.379 . S
C139 C140 1.390 . S
C139 H166 0.949 . S
C140 C139 1.390 . S
C140 C141 1.357 . S
C141 C140 1.357 . S
C141 C142 1.370 . S
C141 H167 0.950 . S
C142 N137 1.307 . S
C142 C141 1.370 . S
C142 H160 0.948 . S
Zn143 N137 2.020 . S
Zn143 O152 2.039 . S
Zn143 O158 2.034 . S
Zn143 O162 2.025 . S
Zn143 O164 2.024 . S
C144 O163 1.246 . S
C144 O164 1.249 . S
N145 C146 1.307 . S
N145 C147 1.333 . S
N145 Zn151 2.020 . S
C146 N145 1.307 . S
C146 C150 1.370 . S
C146 H157 0.948 . S
C147 N145 1.333 . S
C147 C148 1.379 . S
C147 H155 0.952 . S
C148 C147 1.379 . S
C148 C149 1.390 . S
C148 H168 0.949 . S
C149 C148 1.390 . S
C149 C150 1.357 . S
C150 C146 1.370 . S
C150 C149 1.357 . S
C150 H169 0.950 . S
Zn151 N145 2.020 . S
Zn151 O154 2.025 . S
Zn151 O159 2.024 . S
Zn151 O161 2.039 . S
Zn151 O163 2.034 . S
O152 C136 1.251 . S
O152 Zn143 2.039 . S
C153 O158 1.246 . S
C153 O159 1.249 . S
O154 C136 1.254 . S
O154 Zn151 2.025 . S
H155 C147 0.952 . S
H156 C138 0.952 . S
H157 C146 0.948 . S
O158 Zn143 2.034 . S
O158 C153 1.246 . S
O159 Zn151 2.024 . S
O159 C153 1.249 . S
H160 C142 0.948 . S
O161 Zn151 2.039 . S
O161 C165 1.251 . S
O162 Zn143 2.025 . S
O162 C165 1.254 . S
O163 C144 1.246 . S
O163 Zn151 2.034 . S
O164 Zn143 2.024 . S
O164 C144 1.249 . S
C165 O161 1.251 . S
C165 O162 1.254 . S
H166 C139 0.949 . S
H167 C141 0.950 . S
H168 C148 0.949 . S
H169 C150 0.950 . S
C170 O186 1.251 . S
C170 O188 1.254 . S
N171 C172 1.333 . S
N171 C176 1.307 . S
N171 Zn177 2.020 . S
C172 N171 1.333 . S
C172 C173 1.379 . S
C172 H190 0.952 . S
C173 C172 1.379 . S
C173 C174 1.390 . S
C173 H200 0.949 . S
C174 C173 1.390 . S
C174 C175 1.357 . S
C175 C174 1.357 . S
C175 C176 1.370 . S
C175 H201 0.950 . S
C176 N171 1.307 . S
C176 C175 1.370 . S
C176 H194 0.948 . S
Zn177 N171 2.020 . S
Zn177 O186 2.039 . S
Zn177 O192 2.034 . S
Zn177 O196 2.025 . S
Zn177 O198 2.024 . S
C178 O197 1.246 . S
C178 O198 1.249 . S
N179 C180 1.307 . S
N179 C181 1.333 . S
N179 Zn185 2.020 . S
C180 N179 1.307 . S
C180 C184 1.370 . S
C180 H191 0.948 . S
C181 N179 1.333 . S
C181 C182 1.379 . S
C181 H189 0.952 . S
C182 C181 1.379 . S
C182 C183 1.390 . S
C182 H202 0.949 . S
C183 C182 1.390 . S
C183 C184 1.357 . S
C184 C180 1.370 . S
C184 C183 1.357 . S
C184 H203 0.950 . S
Zn185 N179 2.020 . S
Zn185 O188 2.025 . S
Zn185 O193 2.024 . S
Zn185 O195 2.039 . S
Zn185 O197 2.034 . S
O186 C170 1.251 . S
O186 Zn177 2.039 . S
C187 O192 1.246 . S
C187 O193 1.249 . S
O188 C170 1.254 . S
O188 Zn185 2.025 . S
H189 C181 0.952 . S
H190 C172 0.952 . S
H191 C180 0.948 . S
O192 Zn177 2.034 . S
O192 C187 1.246 . S
O193 Zn185 2.024 . S
O193 C187 1.249 . S
H194 C176 0.948 . S
O195 Zn185 2.039 . S
O195 C199 1.251 . S
O196 Zn177 2.025 . S
O196 C199 1.254 . S
O197 C178 1.246 . S
O197 Zn185 2.034 . S
O198 Zn177 2.024 . S
O198 C178 1.249 . S
C199 O195 1.251 . S
C199 O196 1.254 . S
H200 C173 0.949 . S
H201 C175 0.950 . S
H202 C182 0.949 . S
H203 C184 0.950 . S
C204 O220 1.251 . S
C204 O222 1.254 . S
N205 C206 1.333 . S
N205 C210 1.307 . S
N205 Zn211 2.020 . S
C206 N205 1.333 . S
C206 C207 1.379 . S
C206 H224 0.952 . S
C207 C206 1.379 . S
C207 C208 1.390 . S
C207 H234 0.949 . S
C208 C207 1.390 . S
C208 C209 1.357 . S
C209 C208 1.357 . S
C209 C210 1.370 . S
C209 H235 0.950 . S
C210 N205 1.307 . S
C210 C209 1.370 . S
C210 H228 0.948 . S
Zn211 N205 2.020 . S
Zn211 O220 2.039 . S
Zn211 O226 2.034 . S
Zn211 O230 2.025 . S
Zn211 O232 2.024 . S
C212 O231 1.246 . S
C212 O232 1.249 . S
N213 C214 1.307 . S
N213 C215 1.333 . S
N213 Zn219 2.020 . S
C214 N213 1.307 . S
C214 C218 1.370 . S
C214 H225 0.948 . S
C215 N213 1.333 . S
C215 C216 1.379 . S
C215 H223 0.952 . S
C216 C215 1.379 . S
C216 C217 1.390 . S
C216 H236 0.949 . S
C217 C216 1.390 . S
C217 C218 1.357 . S
C218 C214 1.370 . S
C218 C217 1.357 . S
C218 H237 0.950 . S
Zn219 N213 2.020 . S
Zn219 O222 2.025 . S
Zn219 O227 2.024 . S
Zn219 O229 2.039 . S
Zn219 O231 2.034 . S
O220 C204 1.251 . S
O220 Zn211 2.039 . S
C221 O226 1.246 . S
C221 O227 1.249 . S
O222 C204 1.254 . S
O222 Zn219 2.025 . S
H223 C215 0.952 . S
H224 C206 0.952 . S
H225 C214 0.948 . S
O226 Zn211 2.034 . S
O226 C221 1.246 . S
O227 Zn219 2.024 . S
O227 C221 1.249 . S
H228 C210 0.948 . S
O229 Zn219 2.039 . S
O229 C233 1.251 . S
O230 Zn211 2.025 . S
O230 C233 1.254 . S
O231 C212 1.246 . S
O231 Zn219 2.034 . S
O232 Zn211 2.024 . S
O232 C212 1.249 . S
C233 O229 1.251 . S
C233 O230 1.254 . S
H234 C207 0.949 . S
H235 C209 0.950 . S
H236 C216 0.949 . S
H237 C218 0.950 . S
C238 O254 1.251 . S
C238 O256 1.254 . S
N239 C240 1.333 . S
N239 C244 1.307 . S
N239 Zn245 2.020 . S
C240 N239 1.333 . S
C240 C241 1.379 . S
C240 H258 0.952 . S
C241 C240 1.379 . S
C241 C242 1.390 . S
C241 H268 0.949 . S
C242 C241 1.390 . S
C242 C243 1.357 . S
C243 C242 1.357 . S
C243 C244 1.370 . S
C243 H269 0.950 . S
C244 N239 1.307 . S
C244 C243 1.370 . S
C244 H262 0.948 . S
Zn245 N239 2.020 . S
Zn245 O254 2.039 . S
Zn245 O260 2.034 . S
Zn245 O264 2.025 . S
Zn245 O266 2.024 . S
C246 O265 1.246 . S
C246 O266 1.249 . S
N247 C248 1.307 . S
N247 C249 1.333 . S
N247 Zn253 2.020 . S
C248 N247 1.307 . S
C248 C252 1.370 . S
C248 H259 0.948 . S
C249 N247 1.333 . S
C249 C250 1.379 . S
C249 H257 0.952 . S
C250 C249 1.379 . S
C250 C251 1.390 . S
C250 H270 0.949 . S
C251 C250 1.390 . S
C251 C252 1.357 . S
C252 C248 1.370 . S
C252 C251 1.357 . S
C252 H271 0.950 . S
Zn253 N247 2.020 . S
Zn253 O256 2.025 . S
Zn253 O261 2.024 . S
Zn253 O263 2.039 . S
Zn253 O265 2.034 . S
O254 C238 1.251 . S
O254 Zn245 2.039 . S
C255 O260 1.246 . S
C255 O261 1.249 . S
O256 C238 1.254 . S
O256 Zn253 2.025 . S
H257 C249 0.952 . S
H258 C240 0.952 . S
H259 C248 0.948 . S
O260 Zn245 2.034 . S
O260 C255 1.246 . S
O261 Zn253 2.024 . S
O261 C255 1.249 . S
H262 C244 0.948 . S
O263 Zn253 2.039 . S
O263 C267 1.251 . S
O264 Zn245 2.025 . S
O264 C267 1.254 . S
O265 C246 1.246 . S
O265 Zn253 2.034 . S
O266 Zn245 2.024 . S
O266 C246 1.249 . S
C267 O263 1.251 . S
C267 O264 1.254 . S
H268 C241 0.949 . S
H269 C243 0.950 . S
H270 C250 0.949 . S
H271 C252 0.950 . S
C272 O288 1.251 . S
C272 O290 1.254 . S
N273 C274 1.333 . S
N273 C278 1.307 . S
N273 Zn279 2.020 . S
C274 N273 1.333 . S
C274 C275 1.379 . S
C274 H292 0.952 . S
C275 C274 1.379 . S
C275 C276 1.390 . S
C275 H302 0.949 . S
C276 C275 1.390 . S
C276 C277 1.357 . S
C277 C276 1.357 . S
C277 C278 1.370 . S
C277 H303 0.950 . S
C278 N273 1.307 . S
C278 C277 1.370 . S
C278 H296 0.948 . S
Zn279 N273 2.020 . S
Zn279 O288 2.039 . S
Zn279 O294 2.034 . S
Zn279 O298 2.025 . S
Zn279 O300 2.024 . S
C280 O299 1.246 . S
C280 O300 1.249 . S
N281 C282 1.307 . S
N281 C283 1.333 . S
N281 Zn287 2.020 . S
C282 N281 1.307 . S
C282 C286 1.370 . S
C282 H293 0.948 . S
C283 N281 1.333 . S
C283 C284 1.379 . S
C283 H291 0.952 . S
C284 C283 1.379 . S
C284 C285 1.390 . S
C284 H304 0.949 . S
C285 C284 1.390 . S
C285 C286 1.357 . S
C286 C282 1.370 . S
C286 C285 1.357 . S
C286 H305 0.950 . S
Zn287 N281 2.020 . S
Zn287 O290 2.025 . S
Zn287 O295 2.024 . S
Zn287 O297 2.039 . S
Zn287 O299 2.034 . S
O288 C272 1.251 . S
O288 Zn279 2.039 . S
C289 O294 1.246 . S
C289 O295 1.249 . S
O290 C272 1.254 . S
O290 Zn287 2.025 . S
H291 C283 0.952 . S
H292 C274 0.952 . S
H293 C282 0.948 . S
O294 Zn279 2.034 . S
O294 C289 1.246 . S
O295 Zn287 2.024 . S
O295 C289 1.249 . S
H296 C278 0.948 . S
O297 Zn287 2.039 . S
O297 C301 1.251 . S
O298 Zn279 2.025 . S
O298 C301 1.254 . S
O299 C280 1.246 . S
O299 Zn287 2.034 . S
O300 Zn279 2.024 . S
O300 C280 1.249 . S
C301 O297 1.251 . S
C301 O298 1.254 . S
H302 C275 0.949 . S
H303 C277 0.950 . S
H304 C284 0.949 . S
H305 C286 0.950 . S
H306 C314 0.929 . S
H307 C316 0.930 . S
H308 C318 0.930 . S
H309 C321 0.929 . S
H310 C324 0.930 . S
H311 C326 0.960 . S
H312 C326 0.960 . S
H313 C326 0.960 . S
C314 H306 0.929 . S
C314 C315 1.377 . S
C314 C316 1.384 . S
C315 C314 1.377 . S
C315 C321 1.390 . S
C316 H307 0.930 . S
C316 C314 1.384 . S
C316 C317 1.372 . S
C317 C316 1.372 . S
C317 C318 1.400 . S
C317 C322 1.490 . S
C318 H308 0.930 . S
C318 C317 1.400 . S
C318 C321 1.386 . S
H319 C335 0.930 . S
H320 C336 0.931 . S
C321 H309 0.929 . S
C321 C315 1.390 . S
C321 C318 1.386 . S
C322 C317 1.490 . S
C322 C324 1.395 . S
C322 C325 1.403 . S
H323 C329 0.930 . S
C324 H310 0.930 . S
C324 C322 1.395 . S
C324 C327 1.403 . S
C325 C322 1.403 . S
C325 C326 1.524 . S
C325 C329 1.400 . S
C326 H311 0.960 . S
C326 H312 0.960 . S
C326 H313 0.960 . S
C326 C325 1.524 . S
C327 C324 1.403 . S
C327 C328 1.392 . S
C327 C331 1.495 . S
C328 C327 1.392 . S
C328 C329 1.385 . S
C328 C330 1.478 . S
C329 H323 0.930 . S
C329 C325 1.400 . S
C329 C328 1.385 . S
C330 C328 1.478 . S
C330 C332 1.381 . S
C330 C336 1.383 . S
C331 C327 1.495 . S
C331 H337 0.959 . S
C331 H338 0.961 . S
C331 H339 0.960 . S
C332 C330 1.381 . S
C332 C333 1.394 . S
C332 H340 0.930 . S
C333 C332 1.394 . S
C333 C334 1.383 . S
C333 H341 0.929 . S
C334 C333 1.383 . S
C334 C335 1.377 . S
C335 H319 0.930 . S
C335 C334 1.377 . S
C335 C336 1.379 . S
C336 H320 0.931 . S
C336 C330 1.383 . S
C336 C335 1.379 . S
H337 C331 0.959 . S
H338 C331 0.961 . S
H339 C331 0.960 . S
H340 C332 0.930 . S
H341 C333 0.929 . S
H342 C350 0.929 1_554 S
H343 C352 0.930 . S
H344 C354 0.930 . S
H345 C357 0.929 . S
H346 C360 0.930 . S
H347 C362 0.960 . S
H348 C362 0.960 . S
H349 C362 0.960 . S
C350 H342 0.929 1_556 S
C350 C351 1.377 . S
C350 C352 1.384 . S
C351 C350 1.377 . S
C351 C357 1.390 . S
C352 H343 0.930 . S
C352 C350 1.384 . S
C352 C353 1.372 . S
C353 C352 1.372 . S
C353 C354 1.400 . S
C353 C358 1.490 . S
C354 H344 0.930 . S
C354 C353 1.400 . S
C354 C357 1.386 . S
H355 C371 0.930 . S
H356 C372 0.931 . S
C357 H345 0.929 . S
C357 C351 1.390 . S
C357 C354 1.386 . S
C358 C353 1.490 . S
C358 C360 1.395 . S
C358 C361 1.403 . S
H359 C365 0.930 . S
C360 H346 0.930 . S
C360 C358 1.395 . S
C360 C363 1.403 . S
C361 C358 1.403 . S
C361 C362 1.524 . S
C361 C365 1.400 . S
C362 H347 0.960 . S
C362 H348 0.960 . S
C362 H349 0.960 . S
C362 C361 1.524 . S
C363 C360 1.403 . S
C363 C364 1.392 . S
C363 C367 1.495 . S
C364 C363 1.392 . S
C364 C365 1.385 . S
C364 C366 1.478 . S
C365 H359 0.930 . S
C365 C361 1.400 . S
C365 C364 1.385 . S
C366 C364 1.478 . S
C366 C368 1.381 . S
C366 C372 1.383 . S
C367 C363 1.495 . S
C367 H373 0.959 . S
C367 H374 0.961 . S
C367 H375 0.960 . S
C368 C366 1.381 . S
C368 C369 1.394 . S
C368 H376 0.930 . S
C369 C368 1.394 . S
C369 C370 1.383 . S
C369 H377 0.929 . S
C370 C369 1.383 . S
C370 C371 1.377 . S
C371 H355 0.930 . S
C371 C370 1.377 . S
C371 C372 1.379 . S
C372 H356 0.931 . S
C372 C366 1.383 . S
C372 C371 1.379 . S
H373 C367 0.959 . S
H374 C367 0.961 . S
H375 C367 0.960 . S
H376 C368 0.930 . S
H377 C369 0.929 . S
H378 C386 0.929 . S
H379 C388 0.930 . S
H380 C390 0.930 . S
H381 C393 0.929 . S
H382 C396 0.930 . S
H383 C398 0.960 . S
H384 C398 0.960 . S
H385 C398 0.960 . S
C386 H378 0.929 . S
C386 C387 1.377 . S
C386 C388 1.384 . S
C387 C386 1.377 . S
C387 C393 1.390 . S
C388 H379 0.930 . S
C388 C386 1.384 . S
C388 C389 1.372 . S
C389 C388 1.372 . S
C389 C390 1.400 . S
C389 C394 1.490 . S
C390 H380 0.930 . S
C390 C389 1.400 . S
C390 C393 1.386 . S
H391 C407 0.930 . S
H392 C408 0.931 . S
C393 H381 0.929 . S
C393 C387 1.390 . S
C393 C390 1.386 . S
C394 C389 1.490 . S
C394 C396 1.395 . S
C394 C397 1.403 . S
H395 C401 0.930 . S
C396 H382 0.930 . S
C396 C394 1.395 . S
C396 C399 1.403 . S
C397 C394 1.403 . S
C397 C398 1.524 . S
C397 C401 1.400 . S
C398 H383 0.960 . S
C398 H384 0.960 . S
C398 H385 0.960 . S
C398 C397 1.524 . S
C399 C396 1.403 . S
C399 C400 1.392 . S
C399 C403 1.495 . S
C400 C399 1.392 . S
C400 C401 1.385 . S
C400 C402 1.478 . S
C401 H395 0.930 . S
C401 C397 1.400 . S
C401 C400 1.385 . S
C402 C400 1.478 . S
C402 C404 1.381 . S
C402 C408 1.383 . S
C403 C399 1.495 . S
C403 H409 0.959 . S
C403 H410 0.961 . S
C403 H411 0.960 . S
C404 C402 1.381 . S
C404 C405 1.394 . S
C404 H412 0.930 . S
C405 C404 1.394 . S
C405 C406 1.383 . S
C405 H413 0.929 . S
C406 C405 1.383 . S
C406 C407 1.377 . S
C407 H391 0.930 . S
C407 C406 1.377 . S
C407 C408 1.379 . S
C408 H392 0.931 . S
C408 C402 1.383 . S
C408 C407 1.379 . S
H409 C403 0.959 . S
H410 C403 0.961 . S
H411 C403 0.960 . S
H412 C404 0.930 . S
H413 C405 0.929 . S
H414 C422 0.929 . S
H415 C424 0.930 . S
H416 C426 0.930 . S
H417 C429 0.929 . S
H418 C432 0.930 . S
H419 C434 0.960 . S
H420 C434 0.960 . S
H421 C434 0.960 . S
C422 H414 0.929 . S
C422 C423 1.377 . S
C422 C424 1.384 . S
C423 C422 1.377 . S
C423 C429 1.390 . S
C424 H415 0.930 . S
C424 C422 1.384 . S
C424 C425 1.372 . S
C425 C424 1.372 . S
C425 C426 1.400 . S
C425 C430 1.490 . S
C426 H416 0.930 . S
C426 C425 1.400 . S
C426 C429 1.386 . S
H427 C443 0.930 1_556 S
H428 C444 0.931 . S
C429 H417 0.929 . S
C429 C423 1.390 . S
C429 C426 1.386 . S
C430 C425 1.490 . S
C430 C432 1.395 . S
C430 C433 1.403 . S
H431 C437 0.930 . S
C432 H418 0.930 . S
C432 C430 1.395 . S
C432 C435 1.403 . S
C433 C430 1.403 . S
C433 C434 1.524 . S
C433 C437 1.400 . S
C434 H419 0.960 . S
C434 H420 0.960 . S
C434 H421 0.960 . S
C434 C433 1.524 . S
C435 C432 1.403 . S
C435 C436 1.392 . S
C435 C439 1.495 . S
C436 C435 1.392 . S
C436 C437 1.385 . S
C436 C438 1.478 . S
C437 H431 0.930 . S
C437 C433 1.400 . S
C437 C436 1.385 . S
C438 C436 1.478 . S
C438 C440 1.381 . S
C438 C444 1.383 . S
C439 C435 1.495 . S
C439 H445 0.959 . S
C439 H446 0.961 . S
C439 H447 0.960 . S
C440 C438 1.381 . S
C440 C441 1.394 . S
C440 H448 0.930 . S
C441 C440 1.394 . S
C441 C442 1.383 . S
C441 H449 0.929 . S
C442 C441 1.383 . S
C442 C443 1.377 . S
C443 H427 0.930 1_554 S
C443 C442 1.377 . S
C443 C444 1.379 . S
C444 H428 0.931 . S
C444 C438 1.383 . S
C444 C443 1.379 . S
H445 C439 0.959 . S
H446 C439 0.961 . S
H447 C439 0.960 . S
H448 C440 0.930 . S
H449 C441 0.929 . S
H450 C458 0.929 . S
H451 C460 0.930 . S
H452 C462 0.930 . S
H453 C465 0.929 . S
H454 C468 0.930 . S
H455 C470 0.960 . S
H456 C470 0.960 . S
H457 C470 0.960 . S
C458 H450 0.929 . S
C458 C459 1.377 . S
C458 C460 1.384 . S
C459 C458 1.377 . S
C459 C465 1.390 . S
C460 H451 0.930 . S
C460 C458 1.384 . S
C460 C461 1.372 . S
C461 C460 1.372 . S
C461 C462 1.400 . S
C461 C466 1.490 . S
C462 H452 0.930 . S
C462 C461 1.400 . S
C462 C465 1.386 . S
H463 C479 0.930 . S
H464 C480 0.931 . S
C465 H453 0.929 . S
C465 C459 1.390 . S
C465 C462 1.386 . S
C466 C461 1.490 . S
C466 C468 1.395 . S
C466 C469 1.403 . S
H467 C473 0.930 . S
C468 H454 0.930 . S
C468 C466 1.395 . S
C468 C471 1.403 . S
C469 C466 1.403 . S
C469 C470 1.524 . S
C469 C473 1.400 . S
C470 H455 0.960 . S
C470 H456 0.960 . S
C470 H457 0.960 . S
C470 C469 1.524 . S
C471 C468 1.403 . S
C471 C472 1.392 . S
C471 C475 1.495 . S
C472 C471 1.392 . S
C472 C473 1.385 . S
C472 C474 1.478 . S
C473 H467 0.930 . S
C473 C469 1.400 . S
C473 C472 1.385 . S
C474 C472 1.478 . S
C474 C476 1.381 . S
C474 C480 1.383 . S
C475 C471 1.495 . S
C475 H481 0.959 . S
C475 H482 0.961 . S
C475 H483 0.960 . S
C476 C474 1.381 . S
C476 C477 1.394 . S
C476 H484 0.930 . S
C477 C476 1.394 . S
C477 C478 1.383 . S
C477 H485 0.929 . S
C478 C477 1.383 . S
C478 C479 1.377 . S
C479 H463 0.930 . S
C479 C478 1.377 . S
C479 C480 1.379 . S
C480 H464 0.931 . S
C480 C474 1.383 . S
C480 C479 1.379 . S
H481 C475 0.959 . S
H482 C475 0.961 . S
H483 C475 0.960 . S
H484 C476 0.930 . S
H485 C477 0.929 . S
H486 C494 0.929 . S
H487 C496 0.930 . S
H488 C498 0.930 . S
H489 C501 0.929 . S
H490 C504 0.930 . S
H491 C506 0.960 . S
H492 C506 0.960 . S
H493 C506 0.960 . S
C494 H486 0.929 . S
C494 C495 1.377 . S
C494 C496 1.384 . S
C495 C494 1.377 . S
C495 C501 1.390 . S
C496 H487 0.930 . S
C496 C494 1.384 . S
C496 C497 1.372 . S
C497 C496 1.372 . S
C497 C498 1.400 . S
C497 C502 1.490 . S
C498 H488 0.930 . S
C498 C497 1.400 . S
C498 C501 1.386 . S
H499 C515 0.930 . S
H500 C516 0.931 . S
C501 H489 0.929 . S
C501 C495 1.390 . S
C501 C498 1.386 . S
C502 C497 1.490 . S
C502 C504 1.395 . S
C502 C505 1.403 . S
H503 C509 0.930 . S
C504 H490 0.930 . S
C504 C502 1.395 . S
C504 C507 1.403 . S
C505 C502 1.403 . S
C505 C506 1.524 . S
C505 C509 1.400 . S
C506 H491 0.960 . S
C506 H492 0.960 . S
C506 H493 0.960 . S
C506 C505 1.524 . S
C507 C504 1.403 . S
C507 C508 1.392 . S
C507 C511 1.495 . S
C508 C507 1.392 . S
C508 C509 1.385 . S
C508 C510 1.478 . S
C509 H503 0.930 . S
C509 C505 1.400 . S
C509 C508 1.385 . S
C510 C508 1.478 . S
C510 C512 1.381 . S
C510 C516 1.383 . S
C511 C507 1.495 . S
C511 H517 0.959 . S
C511 H518 0.961 . S
C511 H519 0.960 . S
C512 C510 1.381 . S
C512 C513 1.394 . S
C512 H520 0.930 . S
C513 C512 1.394 . S
C513 C514 1.383 . S
C513 H521 0.929 . S
C514 C513 1.383 . S
C514 C515 1.377 . S
C515 H499 0.930 . S
C515 C514 1.377 . S
C515 C516 1.379 . S
C516 H500 0.931 . S
C516 C510 1.383 . S
C516 C515 1.379 . S
H517 C511 0.959 . S
H518 C511 0.961 . S
H519 C511 0.960 . S
H520 C512 0.930 . S
H521 C513 0.929 . S
H522 C530 0.929 . S
H523 C532 0.930 . S
H524 C534 0.930 . S
H525 C537 0.929 . S
H526 C540 0.930 . S
H527 C542 0.960 . S
H528 C542 0.960 . S
H529 C542 0.960 . S
C530 H522 0.929 . S
C530 C531 1.377 . S
C530 C532 1.384 . S
C531 C530 1.377 . S
C531 C537 1.390 . S
C532 H523 0.930 . S
C532 C530 1.384 . S
C532 C533 1.372 . S
C533 C532 1.372 . S
C533 C534 1.400 . S
C533 C538 1.490 . S
C534 H524 0.930 . S
C534 C533 1.400 . S
C534 C537 1.386 . S
H535 C551 0.930 . S
H536 C552 0.931 . S
C537 H525 0.929 . S
C537 C531 1.390 . S
C537 C534 1.386 . S
C538 C533 1.490 . S
C538 C540 1.395 . S
C538 C541 1.403 . S
H539 C545 0.930 . S
C540 H526 0.930 . S
C540 C538 1.395 . S
C540 C543 1.403 1_455 S
C541 C538 1.403 . S
C541 C542 1.524 . S
C541 C545 1.400 . S
C542 H527 0.960 . S
C542 H528 0.960 . S
C542 H529 0.960 . S
C542 C541 1.524 . S
C543 C540 1.403 1_655 S
C543 C544 1.392 . S
C543 C547 1.495 . S
C544 C543 1.392 . S
C544 C545 1.385 1_655 S
C544 C546 1.478 . S
C545 H539 0.930 . S
C545 C541 1.400 . S
C545 C544 1.385 1_455 S
C546 C544 1.478 . S
C546 C548 1.381 . S
C546 C552 1.383 . S
C547 C543 1.495 . S
C547 H553 0.959 . S
C547 H554 0.961 . S
C547 H555 0.960 . S
C548 C546 1.381 . S
C548 C549 1.394 . S
C548 H556 0.930 . S
C549 C548 1.394 . S
C549 C550 1.383 . S
C549 H557 0.929 . S
C550 C549 1.383 . S
C550 C551 1.377 . S
C551 H535 0.930 . S
C551 C550 1.377 . S
C551 C552 1.379 . S
C552 H536 0.931 . S
C552 C546 1.383 . S
C552 C551 1.379 . S
H553 C547 0.959 . S
H554 C547 0.961 . S
H555 C547 0.960 . S
H556 C548 0.930 . S
H557 C549 0.929 . S
H558 C566 0.929 . S
H559 C568 0.930 . S
H560 C570 0.930 . S
H561 C573 0.929 . S
H562 C576 0.930 . S
H563 C578 0.960 . S
H564 C578 0.960 . S
H565 C578 0.960 . S
C566 H558 0.929 . S
C566 C567 1.377 . S
C566 C568 1.384 . S
C567 C566 1.377 . S
C567 C573 1.390 . S
C568 H559 0.930 . S
C568 C566 1.384 . S
C568 C569 1.372 . S
C569 C568 1.372 . S
C569 C570 1.400 . S
C569 C574 1.490 . S
C570 H560 0.930 . S
C570 C569 1.400 . S
C570 C573 1.386 . S
H571 C587 0.930 . S
H572 C588 0.931 . S
C573 H561 0.929 . S
C573 C567 1.390 . S
C573 C570 1.386 . S
C574 C569 1.490 . S
C574 C576 1.395 . S
C574 C577 1.403 . S
H575 C581 0.930 . S
C576 H562 0.930 . S
C576 C574 1.395 . S
C576 C579 1.403 . S
C577 C574 1.403 . S
C577 C578 1.524 . S
C577 C581 1.400 . S
C578 H563 0.960 . S
C578 H564 0.960 . S
C578 H565 0.960 . S
C578 C577 1.524 . S
C579 C576 1.403 . S
C579 C580 1.392 . S
C579 C583 1.495 . S
C580 C579 1.392 . S
C580 C581 1.385 . S
C580 C582 1.478 . S
C581 H575 0.930 . S
C581 C577 1.400 . S
C581 C580 1.385 . S
C582 C580 1.478 . S
C582 C584 1.381 . S
C582 C588 1.383 . S
C583 C579 1.495 . S
C583 H589 0.959 . S
C583 H590 0.961 . S
C583 H591 0.960 . S
C584 C582 1.381 . S
C584 C585 1.394 . S
C584 H592 0.930 . S
C585 C584 1.394 . S
C585 C586 1.383 . S
C585 H593 0.929 . S
C586 C585 1.383 . S
C586 C587 1.377 . S
C587 H571 0.930 . S
C587 C586 1.377 . S
C587 C588 1.379 . S
C588 H572 0.931 . S
C588 C582 1.383 . S
C588 C587 1.379 . S
H589 C583 0.959 . S
H590 C583 0.961 . S
H591 C583 0.960 . S
H592 C584 0.930 . S
H593 C585 0.929 . S
H594 C602 0.929 . S
H595 C604 0.930 . S
H596 C606 0.930 . S
H597 C609 0.929 . S
H598 C612 0.930 . S
H599 C614 0.960 1_565 S
H600 C614 0.960 . S
H601 C614 0.960 . S
C602 H594 0.929 . S
C602 C603 1.377 . S
C602 C604 1.384 . S
C603 C602 1.377 . S
C603 C609 1.390 . S
C604 H595 0.930 . S
C604 C602 1.384 . S
C604 C605 1.372 . S
C605 C604 1.372 . S
C605 C606 1.400 . S
C605 C610 1.490 . S
C606 H596 0.930 . S
C606 C605 1.400 . S
C606 C609 1.386 . S
H607 C623 0.930 . S
H608 C624 0.931 . S
C609 H597 0.929 . S
C609 C603 1.390 . S
C609 C606 1.386 . S
C610 C605 1.490 . S
C610 C612 1.395 . S
C610 C613 1.403 . S
H611 C617 0.930 . S
C612 H598 0.930 . S
C612 C610 1.395 . S
C612 C615 1.403 . S
C613 C610 1.403 . S
C613 C614 1.524 . S
C613 C617 1.400 1_545 S
C614 H599 0.960 1_545 S
C614 H600 0.960 . S
C614 H601 0.960 . S
C614 C613 1.524 . S
C615 C612 1.403 . S
C615 C616 1.392 1_545 S
C615 C619 1.495 . S
C616 C615 1.392 1_565 S
C616 C617 1.385 . S
C616 C618 1.478 . S
C617 H611 0.930 . S
C617 C613 1.400 1_565 S
C617 C616 1.385 . S
C618 C616 1.478 . S
C618 C620 1.381 . S
C618 C624 1.383 . S
C619 C615 1.495 . S
C619 H625 0.959 . S
C619 H626 0.961 . S
C619 H627 0.960 1_545 S
C620 C618 1.381 . S
C620 C621 1.394 . S
C620 H628 0.930 . S
C621 C620 1.394 . S
C621 C622 1.383 . S
C621 H629 0.929 . S
C622 C621 1.383 . S
C622 C623 1.377 . S
C623 H607 0.930 . S
C623 C622 1.377 . S
C623 C624 1.379 . S
C624 H608 0.931 . S
C624 C618 1.383 . S
C624 C623 1.379 . S
H625 C619 0.959 . S
H626 C619 0.961 . S
H627 C619 0.960 1_565 S
H628 C620 0.930 . S
H629 C621 0.929 . S
H630 C638 0.929 . S
H631 C640 0.930 . S
H632 C642 0.930 . S
H633 C645 0.929 . S
H634 C648 0.933 . S
H635 C650 0.960 . S
H636 C650 0.960 1_556 S
H637 C650 0.960 . S
C638 H630 0.929 . S
C638 C639 1.377 1_556 S
C638 C640 1.384 . S
C639 C638 1.377 1_554 S
C639 C645 1.390 . S
C640 H631 0.930 . S
C640 C638 1.384 . S
C640 C641 1.372 1_556 S
C641 C640 1.372 1_554 S
C641 C642 1.400 . S
C641 C646 1.490 . S
C642 H632 0.930 . S
C642 C641 1.400 . S
C642 C645 1.386 . S
H643 C659 0.930 . S
H644 C660 0.931 . S
C645 H633 0.929 . S
C645 C639 1.390 . S
C645 C642 1.386 . S
C646 C641 1.490 . S
C646 C648 1.391 1_554 S
C646 C649 1.403 . S
H647 C653 0.930 . S
C648 H634 0.933 . S
C648 C646 1.391 1_556 S
C648 C651 1.405 . S
C649 C646 1.403 . S
C649 C650 1.524 . S
C649 C653 1.400 . S
C650 H635 0.960 . S
C650 H636 0.960 1_554 S
C650 H637 0.960 . S
C650 C649 1.524 . S
C651 C648 1.405 . S
C651 C652 1.392 1_556 S
C651 C655 1.495 . S
C652 C651 1.392 1_554 S
C652 C653 1.385 . S
C652 C654 1.478 . S
C653 H647 0.930 . S
C653 C649 1.400 . S
C653 C652 1.385 . S
C654 C652 1.478 . S
C654 C656 1.374 1_554 S
C654 C660 1.389 . S
C655 C651 1.495 . S
C655 H661 0.959 . S
C655 H662 0.961 1_556 S
C655 H663 0.960 . S
C656 C654 1.374 1_556 S
C656 C657 1.394 . S
C656 H664 0.930 . S
C657 C656 1.394 . S
C657 C658 1.383 . S
C657 H665 0.929 . S
C658 C657 1.383 . S
C658 C659 1.377 1_556 S
C659 H643 0.930 . S
C659 C658 1.377 1_554 S
C659 C660 1.379 . S
C660 H644 0.931 . S
C660 C654 1.389 . S
C660 C659 1.379 . S
H661 C655 0.959 . S
H662 C655 0.961 1_554 S
H663 C655 0.960 . S
H664 C656 0.930 . S
H665 C657 0.929 . S
H666 C674 0.929 . S
H667 C676 0.930 . S
H668 C678 0.930 . S
H669 C681 0.929 . S
H670 C684 0.930 . S
H671 C686 0.960 . S
H672 C686 0.960 . S
H673 C686 0.960 . S
C674 H666 0.929 . S
C674 C675 1.377 . S
C674 C676 1.384 . S
C675 C674 1.377 . S
C675 C681 1.390 1_556 S
C676 H667 0.930 . S
C676 C674 1.384 . S
C676 C677 1.372 1_556 S
C677 C676 1.372 1_554 S
C677 C678 1.400 . S
C677 C682 1.490 . S
C678 H668 0.930 . S
C678 C677 1.400 . S
C678 C681 1.386 . S
H679 C695 0.930 . S
H680 C696 0.931 . S
C681 H669 0.929 . S
C681 C675 1.390 1_554 S
C681 C678 1.386 . S
C682 C677 1.490 . S
C682 C684 1.395 1_554 S
C682 C685 1.403 . S
H683 C689 0.930 . S
C684 H670 0.930 . S
C684 C682 1.395 1_556 S
C684 C687 1.403 1_565 S
C685 C682 1.403 . S
C685 C686 1.524 . S
C685 C689 1.400 1_565 S
C686 H671 0.960 . S
C686 H672 0.960 . S
C686 H673 0.960 . S
C686 C685 1.524 . S
C687 C684 1.403 1_545 S
C687 C688 1.392 1_556 S
C687 C691 1.495 . S
C688 C687 1.392 1_554 S
C688 C689 1.385 . S
C688 C690 1.478 . S
C689 H683 0.930 . S
C689 C685 1.400 1_545 S
C689 C688 1.385 . S
C690 C688 1.478 . S
C690 C692 1.381 1_554 S
C690 C696 1.383 . S
C691 C687 1.495 . S
C691 H697 0.959 . S
C691 H698 0.961 . S
C691 H699 0.960 . S
C692 C690 1.381 1_556 S
C692 C693 1.394 1_556 S
C692 H700 0.930 . S
C693 C692 1.394 1_554 S
C693 C694 1.383 . S
C693 H701 0.926 1_554 S
C694 C693 1.383 . S
C694 C695 1.377 . S
C695 H679 0.930 . S
C695 C694 1.377 . S
C695 C696 1.379 . S
C696 H680 0.931 . S
C696 C690 1.383 . S
C696 C695 1.379 . S
H697 C691 0.959 . S
H698 C691 0.961 . S
H699 C691 0.960 . S
H700 C692 0.930 . S
H701 C693 0.926 1_556 S
H702 C710 0.929 . S
H703 C712 0.930 . S
H704 C714 0.930 . S
H705 C717 0.929 . S
H706 C720 0.930 . S
H707 C722 0.960 . S
H708 C722 0.960 . S
H709 C722 0.960 . S
C710 H702 0.929 . S
C710 C711 1.377 . S
C710 C712 1.384 . S
C711 C710 1.377 . S
C711 C717 1.390 1_554 S
C712 H703 0.930 . S
C712 C710 1.384 . S
C712 C713 1.372 . S
C713 C712 1.372 . S
C713 C714 1.400 1_554 S
C713 C718 1.490 . S
C714 H704 0.930 . S
C714 C713 1.400 1_556 S
C714 C717 1.386 . S
H715 C731 0.930 . S
H716 C732 0.931 . S
C717 H705 0.929 . S
C717 C711 1.390 1_556 S
C717 C714 1.386 . S
C718 C713 1.490 . S
C718 C720 1.395 . S
C718 C721 1.403 1_554 S
H719 C725 0.930 . S
C720 H706 0.930 . S
C720 C718 1.395 . S
C720 C723 1.403 1_655 S
C721 C718 1.403 1_556 S
C721 C722 1.524 . S
C721 C725 1.400 1_655 S
C722 H707 0.960 . S
C722 H708 0.960 . S
C722 H709 0.960 . S
C722 C721 1.524 . S
C723 C720 1.403 1_455 S
C723 C724 1.392 . S
C723 C727 1.495 . S
C724 C723 1.392 . S
C724 C725 1.385 1_554 S
C724 C726 1.478 . S
C725 H719 0.930 . S
C725 C721 1.400 1_455 S
C725 C724 1.385 1_556 S
C726 C724 1.478 . S
C726 C728 1.381 . S
C726 C732 1.383 1_554 S
C727 C723 1.495 . S
C727 H733 0.959 . S
C727 H734 0.961 . S
C727 H735 0.960 . S
C728 C726 1.381 . S
C728 C729 1.394 . S
C728 H736 0.930 . S
C729 C728 1.394 . S
C729 C730 1.383 1_554 S
C729 H737 0.929 . S
C730 C729 1.383 1_556 S
C730 C731 1.377 . S
C731 H715 0.930 . S
C731 C730 1.377 . S
C731 C732 1.379 . S
C732 H716 0.931 . S
C732 C726 1.383 1_556 S
C732 C731 1.379 . S
H733 C727 0.959 . S
H734 C727 0.961 . S
H735 C727 0.960 . S
H736 C728 0.930 . S
H737 C729 0.929 . S
H738 C746 0.929 . S
H739 C748 0.930 . S
H740 C750 0.930 . S
H741 C753 0.929 . S
H742 C756 0.930 . S
H743 C758 0.960 . S
H744 C758 0.960 . S
H745 C758 0.960 . S
C746 H738 0.929 . S
C746 C747 1.377 . S
C746 C748 1.384 . S
C747 C746 1.377 . S
C747 C753 1.390 . S
C748 H739 0.930 . S
C748 C746 1.384 . S
C748 C749 1.372 . S
C749 C748 1.372 . S
C749 C750 1.400 . S
C749 C754 1.490 . S
C750 H740 0.930 . S
C750 C749 1.400 . S
C750 C753 1.386 . S
H751 C767 0.930 . S
H752 C768 0.931 . S
C753 H741 0.929 . S
C753 C747 1.390 . S
C753 C750 1.386 . S
C754 C749 1.490 . S
C754 C756 1.395 . S
C754 C757 1.403 . S
H755 C761 0.930 . S
C756 H742 0.930 . S
C756 C754 1.395 . S
C756 C759 1.403 . S
C757 C754 1.403 . S
C757 C758 1.524 . S
C757 C761 1.400 . S
C758 H743 0.960 . S
C758 H744 0.960 . S
C758 H745 0.960 . S
C758 C757 1.524 . S
C759 C756 1.403 . S
C759 C760 1.392 . S
C759 C763 1.495 . S
C760 C759 1.392 . S
C760 C761 1.385 . S
C760 C762 1.478 . S
C761 H755 0.930 . S
C761 C757 1.400 . S
C761 C760 1.385 . S
C762 C760 1.478 . S
C762 C764 1.381 . S
C762 C768 1.383 . S
C763 C759 1.495 . S
C763 H769 0.959 . S
C763 H770 0.961 . S
C763 H771 0.960 . S
C764 C762 1.381 . S
C764 C765 1.394 . S
C764 H772 0.930 . S
C765 C764 1.394 . S
C765 C766 1.383 . S
C765 H773 0.929 . S
C766 C765 1.383 . S
C766 C767 1.377 . S
C767 H751 0.930 . S
C767 C766 1.377 . S
C767 C768 1.379 . S
C768 H752 0.931 . S
C768 C762 1.383 . S
C768 C767 1.379 . S
H769 C763 0.959 . S
H770 C763 0.961 . S
H771 C763 0.960 . S
H772 C764 0.930 . S
H773 C765 0.929 . S
H774 C782 0.929 . S
H775 C784 0.930 . S
H776 C786 0.930 . S
H777 C789 0.929 . S
H778 C792 0.930 . S
H779 C794 0.960 . S
H780 C794 0.960 . S
H781 C794 0.960 . S
C782 H774 0.929 . S
C782 C783 1.377 . S
C782 C784 1.384 . S
C783 C782 1.377 . S
C783 C789 1.390 . S
C784 H775 0.930 . S
C784 C782 1.384 . S
C784 C785 1.372 . S
C785 C784 1.372 . S
C785 C786 1.400 . S
C785 C790 1.490 . S
C786 H776 0.930 . S
C786 C785 1.400 . S
C786 C789 1.386 . S
H787 C803 0.930 . S
H788 C804 0.931 . S
C789 H777 0.929 . S
C789 C783 1.390 . S
C789 C786 1.386 . S
C790 C785 1.490 . S
C790 C792 1.395 . S
C790 C793 1.403 . S
H791 C797 0.930 . S
C792 H778 0.930 . S
C792 C790 1.395 . S
C792 C795 1.403 . S
C793 C790 1.403 . S
C793 C794 1.524 . S
C793 C797 1.400 . S
C794 H779 0.960 . S
C794 H780 0.960 . S
C794 H781 0.960 . S
C794 C793 1.524 . S
C795 C792 1.403 . S
C795 C796 1.392 . S
C795 C799 1.495 . S
C796 C795 1.392 . S
C796 C797 1.385 . S
C796 C798 1.478 . S
C797 H791 0.930 . S
C797 C793 1.400 . S
C797 C796 1.385 . S
C798 C796 1.478 . S
C798 C800 1.381 . S
C798 C804 1.383 . S
C799 C795 1.495 . S
C799 H805 0.959 . S
C799 H806 0.961 . S
C799 H807 0.960 . S
C800 C798 1.381 . S
C800 C801 1.394 . S
C800 H808 0.930 . S
C801 C800 1.394 . S
C801 C802 1.383 . S
C801 H809 0.929 . S
C802 C801 1.383 . S
C802 C803 1.377 . S
C803 H787 0.930 . S
C803 C802 1.377 . S
C803 C804 1.379 . S
C804 H788 0.931 . S
C804 C798 1.383 . S
C804 C803 1.379 . S
H805 C799 0.959 . S
H806 C799 0.961 . S
H807 C799 0.960 . S
H808 C800 0.930 . S
H809 C801 0.929 . S
H810 C818 0.929 . S
H811 C820 0.930 . S
H812 C822 0.930 . S
H813 C825 0.929 . S
H814 C828 0.930 . S
H815 C830 0.960 . S
H816 C830 0.960 . S
H817 C830 0.960 . S
C818 H810 0.929 . S
C818 C819 1.377 . S
C818 C820 1.384 . S
C819 C818 1.377 . S
C819 C825 1.390 . S
C820 H811 0.930 . S
C820 C818 1.384 . S
C820 C821 1.372 . S
C821 C820 1.372 . S
C821 C822 1.400 . S
C821 C826 1.490 . S
C822 H812 0.930 . S
C822 C821 1.400 . S
C822 C825 1.386 . S
H823 C839 0.930 . S
H824 C840 0.931 . S
C825 H813 0.929 . S
C825 C819 1.390 . S
C825 C822 1.386 . S
C826 C821 1.490 . S
C826 C828 1.395 . S
C826 C829 1.403 . S
H827 C833 0.930 . S
C828 H814 0.930 . S
C828 C826 1.395 . S
C828 C831 1.403 . S
C829 C826 1.403 . S
C829 C830 1.524 . S
C829 C833 1.400 . S
C830 H815 0.960 . S
C830 H816 0.960 . S
C830 H817 0.960 . S
C830 C829 1.524 . S
C831 C828 1.403 . S
C831 C832 1.392 . S
C831 C835 1.495 . S
C832 C831 1.392 . S
C832 C833 1.385 . S
C832 C834 1.478 . S
C833 H827 0.930 . S
C833 C829 1.400 . S
C833 C832 1.385 . S
C834 C832 1.478 . S
C834 C836 1.381 . S
C834 C840 1.383 . S
C835 C831 1.495 . S
C835 H841 0.959 . S
C835 H842 0.961 . S
C835 H843 0.960 . S
C836 C834 1.381 . S
C836 C837 1.394 . S
C836 H844 0.930 . S
C837 C836 1.394 . S
C837 C838 1.383 . S
C837 H845 0.929 . S
C838 C837 1.383 . S
C838 C839 1.377 . S
C839 H823 0.930 . S
C839 C838 1.377 . S
C839 C840 1.379 . S
C840 H824 0.931 . S
C840 C834 1.383 . S
C840 C839 1.379 . S
H841 C835 0.959 . S
H842 C835 0.961 . S
H843 C835 0.960 . S
H844 C836 0.930 . S
H845 C837 0.929 . S
H846 C854 0.929 . S
H847 C856 0.930 . S
H848 C858 0.930 . S
H849 C861 0.929 . S
H850 C864 0.930 . S
H851 C866 0.960 . S
H852 C866 0.960 . S
H853 C866 0.960 . S
C854 H846 0.929 . S
C854 C855 1.377 . S
C854 C856 1.384 . S
C855 C854 1.377 . S
C855 C861 1.390 . S
C856 H847 0.930 . S
C856 C854 1.384 . S
C856 C857 1.372 . S
C857 C856 1.372 . S
C857 C858 1.400 . S
C857 C862 1.490 . S
C858 H848 0.930 . S
C858 C857 1.400 . S
C858 C861 1.386 . S
H859 C875 0.930 . S
H860 C876 0.931 . S
C861 H849 0.929 . S
C861 C855 1.390 . S
C861 C858 1.386 . S
C862 C857 1.490 . S
C862 C864 1.395 . S
C862 C865 1.403 . S
H863 C869 0.930 . S
C864 H850 0.930 . S
C864 C862 1.395 . S
C864 C867 1.403 . S
C865 C862 1.403 . S
C865 C866 1.524 . S
C865 C869 1.400 . S
C866 H851 0.960 . S
C866 H852 0.960 . S
C866 H853 0.960 . S
C866 C865 1.524 . S
C867 C864 1.403 . S
C867 C868 1.392 . S
C867 C871 1.495 . S
C868 C867 1.392 . S
C868 C869 1.385 . S
C868 C870 1.478 . S
C869 H863 0.930 . S
C869 C865 1.400 . S
C869 C868 1.385 . S
C870 C868 1.478 . S
C870 C872 1.381 . S
C870 C876 1.383 . S
C871 C867 1.495 . S
C871 H877 0.959 . S
C871 H878 0.961 . S
C871 H879 0.960 . S
C872 C870 1.381 . S
C872 C873 1.394 . S
C872 H880 0.930 . S
C873 C872 1.394 . S
C873 C874 1.383 . S
C873 H881 0.929 . S
C874 C873 1.383 . S
C874 C875 1.377 . S
C875 H859 0.930 . S
C875 C874 1.377 . S
C875 C876 1.379 . S
C876 H860 0.931 . S
C876 C870 1.383 . S
C876 C875 1.379 . S
H877 C871 0.959 . S
H878 C871 0.961 . S
H879 C871 0.960 . S
H880 C872 0.930 . S
H881 C873 0.929 . S
H882 C890 0.929 . S
H883 C892 0.930 . S
H884 C894 0.930 . S
H885 C897 0.929 . S
H886 C900 0.930 . S
H887 C902 0.960 . S
H888 C902 0.960 . S
H889 C902 0.960 . S
C890 H882 0.929 . S
C890 C891 1.377 . S
C890 C892 1.384 . S
C891 C890 1.377 . S
C891 C897 1.390 . S
C892 H883 0.930 . S
C892 C890 1.384 . S
C892 C893 1.372 . S
C893 C892 1.372 . S
C893 C894 1.400 . S
C893 C898 1.490 . S
C894 H884 0.930 . S
C894 C893 1.400 . S
C894 C897 1.386 . S
H895 C911 0.930 . S
H896 C912 0.931 . S
C897 H885 0.929 . S
C897 C891 1.390 . S
C897 C894 1.386 . S
C898 C893 1.490 . S
C898 C900 1.395 . S
C898 C901 1.403 . S
H899 C905 0.930 . S
C900 H886 0.930 . S
C900 C898 1.395 . S
C900 C903 1.403 . S
C901 C898 1.403 . S
C901 C902 1.524 . S
C901 C905 1.400 . S
C902 H887 0.960 . S
C902 H888 0.960 . S
C902 H889 0.960 . S
C902 C901 1.524 . S
C903 C900 1.403 . S
C903 C904 1.392 . S
C903 C907 1.495 . S
C904 C903 1.392 . S
C904 C905 1.385 . S
C904 C906 1.478 . S
C905 H899 0.930 . S
C905 C901 1.400 . S
C905 C904 1.385 . S
C906 C904 1.478 . S
C906 C908 1.381 . S
C906 C912 1.383 . S
C907 C903 1.495 . S
C907 H913 0.959 . S
C907 H914 0.961 . S
C907 H915 0.960 . S
C908 C906 1.381 . S
C908 C909 1.394 . S
C908 H916 0.930 . S
C909 C908 1.394 . S
C909 C910 1.383 . S
C909 H917 0.929 . S
C910 C909 1.383 . S
C910 C911 1.377 . S
C911 H895 0.930 . S
C911 C910 1.377 . S
C911 C912 1.379 . S
C912 H896 0.931 . S
C912 C906 1.383 . S
C912 C911 1.379 . S
H913 C907 0.959 . S
H914 C907 0.961 . S
H915 C907 0.960 . S
H916 C908 0.930 . S
H917 C909 0.929 . S
H918 C926 0.929 . S
H919 C928 0.930 . S
H920 C930 0.930 . S
H921 C933 0.929 . S
H922 C936 0.930 . S
H923 C938 0.960 . S
H924 C938 0.960 . S
H925 C938 0.960 . S
C926 H918 0.929 . S
C926 C927 1.377 . S
C926 C928 1.384 . S
C927 C926 1.377 . S
C927 C933 1.390 . S
C928 H919 0.930 . S
C928 C926 1.384 . S
C928 C929 1.372 . S
C929 C928 1.372 . S
C929 C930 1.400 . S
C929 C934 1.490 . S
C930 H920 0.930 . S
C930 C929 1.400 . S
C930 C933 1.386 . S
H931 C947 0.930 . S
H932 C948 0.931 . S
C933 H921 0.929 . S
C933 C927 1.390 . S
C933 C930 1.386 . S
C934 C929 1.490 . S
C934 C936 1.395 . S
C934 C937 1.403 . S
H935 C941 0.930 . S
C936 H922 0.930 . S
C936 C934 1.395 . S
C936 C939 1.403 . S
C937 C934 1.403 . S
C937 C938 1.524 . S
C937 C941 1.400 . S
C938 H923 0.960 . S
C938 H924 0.960 . S
C938 H925 0.960 . S
C938 C937 1.524 . S
C939 C936 1.403 . S
C939 C940 1.392 . S
C939 C943 1.495 . S
C940 C939 1.392 . S
C940 C941 1.385 . S
C940 C942 1.478 . S
C941 H935 0.930 . S
C941 C937 1.400 . S
C941 C940 1.385 . S
C942 C940 1.478 . S
C942 C944 1.381 . S
C942 C948 1.383 . S
C943 C939 1.495 . S
C943 H949 0.959 . S
C943 H950 0.961 . S
C943 H951 0.960 . S
C944 C942 1.381 . S
C944 C945 1.394 . S
C944 H952 0.930 . S
C945 C944 1.394 . S
C945 C946 1.383 . S
C945 H953 0.929 . S
C946 C945 1.383 . S
C946 C947 1.377 . S
C947 H931 0.930 . S
C947 C946 1.377 . S
C947 C948 1.379 . S
C948 H932 0.931 . S
C948 C942 1.383 . S
C948 C947 1.379 . S
H949 C943 0.959 . S
H950 C943 0.961 . S
H951 C943 0.960 . S
H952 C944 0.930 . S
H953 C945 0.929 . S
H954 C962 0.929 . S
H955 C964 0.930 . S
H956 C966 0.930 . S
H957 C969 0.929 . S
H958 C972 0.930 . S
H959 C974 0.960 . S
H960 C974 0.960 . S
H961 C974 0.960 . S
C962 H954 0.929 . S
C962 C963 1.377 . S
C962 C964 1.384 . S
C963 C962 1.377 . S
C963 C969 1.390 1_655 S
C964 H955 0.930 . S
C964 C962 1.384 . S
C964 C965 1.395 . S
C965 C964 1.395 . S
C965 C966 1.386 1_655 S
C965 C970 1.483 1_655 S
C966 H956 0.930 . S
C966 C965 1.386 1_455 S
C966 C969 1.386 . S
H967 C983 0.930 . S
H968 C984 0.931 . S
C969 H957 0.929 . S
C969 C963 1.390 1_455 S
C969 C966 1.386 . S
C970 C965 1.483 1_455 S
C970 C972 1.395 1_455 S
C970 C973 1.403 . S
H971 C977 0.930 . S
C972 H958 0.930 . S
C972 C970 1.395 1_655 S
C972 C975 1.403 . S
C973 C970 1.403 . S
C973 C974 1.524 . S
C973 C977 1.400 . S
C974 H959 0.960 . S
C974 H960 0.960 . S
C974 H961 0.960 . S
C974 C973 1.524 . S
C975 C972 1.403 . S
C975 C976 1.392 1_655 S
C975 C979 1.495 . S
C976 C975 1.392 1_455 S
C976 C977 1.385 . S
C976 C978 1.478 . S
C977 H971 0.930 . S
C977 C973 1.400 . S
C977 C976 1.385 . S
C978 C976 1.478 . S
C978 C980 1.381 . S
C978 C984 1.383 . S
C979 C975 1.495 . S
C979 H985 0.959 . S
C979 H986 0.961 . S
C979 H987 0.960 . S
C980 C978 1.381 . S
C980 C981 1.394 . S
C980 H988 0.930 1_455 S
C981 C980 1.394 . S
C981 C982 1.383 . S
C981 H989 0.929 1_455 S
C982 C981 1.383 . S
C982 C983 1.377 . S
C983 H967 0.930 . S
C983 C982 1.377 . S
C983 C984 1.379 . S
C984 H968 0.931 . S
C984 C978 1.383 . S
C984 C983 1.379 . S
H985 C979 0.959 . S
H986 C979 0.961 . S
H987 C979 0.960 . S
H988 C980 0.930 1_655 S
H989 C981 0.929 1_655 S
H990 C998 0.929 . S
H991 C1000 0.930 . S
H992 C1002 0.930 . S
H993 C1005 0.929 . S
H994 C1008 0.930 . S
H995 C1010 0.960 . S
H996 C1010 0.960 . S
H997 C1010 0.960 . S
C998 H990 0.929 . S
C998 C999 1.377 . S
C998 C1000 1.384 . S
C999 C998 1.377 . S
C999 C1005 1.390 . S
C1000 H991 0.930 . S
C1000 C998 1.384 . S
C1000 C1001 1.372 . S
C1001 C1000 1.372 . S
C1001 C1002 1.400 . S
C1001 C1006 1.490 . S
C1002 H992 0.930 . S
C1002 C1001 1.400 . S
C1002 C1005 1.386 . S
H1003 C1019 0.930 . S
H1004 C1020 0.931 . S
C1005 H993 0.929 . S
C1005 C999 1.390 . S
C1005 C1002 1.386 . S
C1006 C1001 1.490 . S
C1006 C1008 1.395 . S
C1006 C1009 1.403 . S
H1007 C1013 0.930 . S
C1008 H994 0.930 . S
C1008 C1006 1.395 . S
C1008 C1011 1.403 . S
C1009 C1006 1.403 . S
C1009 C1010 1.524 . S
C1009 C1013 1.400 . S
C1010 H995 0.960 . S
C1010 H996 0.960 . S
C1010 H997 0.960 . S
C1010 C1009 1.524 . S
C1011 C1008 1.403 . S
C1011 C1012 1.392 . S
C1011 C1015 1.495 . S
C1012 C1011 1.392 . S
C1012 C1013 1.385 . S
C1012 C1014 1.478 . S
C1013 H1007 0.930 . S
C1013 C1009 1.400 . S
C1013 C1012 1.385 . S
C1014 C1012 1.478 . S
C1014 C1016 1.381 . S
C1014 C1020 1.383 . S
C1015 C1011 1.495 . S
C1015 H1021 0.959 . S
C1015 H1022 0.961 . S
C1015 H1023 0.960 . S
C1016 C1014 1.381 . S
C1016 C1017 1.394 . S
C1016 H1024 0.930 . S
C1017 C1016 1.394 . S
C1017 C1018 1.383 . S
C1017 H1025 0.929 . S
C1018 C1017 1.383 . S
C1018 C1019 1.377 . S
C1019 H1003 0.930 . S
C1019 C1018 1.377 . S
C1019 C1020 1.379 . S
C1020 H1004 0.931 . S
C1020 C1014 1.383 . S
C1020 C1019 1.379 . S
H1021 C1015 0.959 . S
H1022 C1015 0.961 . S
H1023 C1015 0.960 . S
H1024 C1016 0.930 . S
H1025 C1017 0.929 . S
H1026 C1034 0.929 . S
H1027 C1036 0.930 . S
H1028 C1038 0.930 . S
H1029 C1041 0.929 . S
H1030 C1044 0.930 . S
H1031 C1046 0.960 . S
H1032 C1046 0.960 . S
H1033 C1046 0.960 . S
C1034 H1026 0.929 . S
C1034 C1035 1.377 . S
C1034 C1036 1.384 . S
C1035 C1034 1.377 . S
C1035 C1041 1.390 . S
C1036 H1027 0.930 . S
C1036 C1034 1.384 . S
C1036 C1037 1.372 . S
C1037 C1036 1.372 . S
C1037 C1038 1.400 . S
C1037 C1042 1.490 . S
C1038 H1028 0.930 . S
C1038 C1037 1.400 . S
C1038 C1041 1.386 . S
H1039 C1055 0.930 . S
H1040 C1056 0.931 . S
C1041 H1029 0.929 . S
C1041 C1035 1.390 . S
C1041 C1038 1.386 . S
C1042 C1037 1.490 . S
C1042 C1044 1.395 1_545 S
C1042 C1045 1.403 . S
H1043 C1049 0.930 . S
C1044 H1030 0.930 . S
C1044 C1042 1.395 1_565 S
C1044 C1047 1.403 . S
C1045 C1042 1.403 . S
C1045 C1046 1.524 . S
C1045 C1049 1.400 . S
C1046 H1031 0.960 . S
C1046 H1032 0.960 . S
C1046 H1033 0.960 . S
C1046 C1045 1.524 . S
C1047 C1044 1.403 . S
C1047 C1048 1.392 . S
C1047 C1051 1.495 . S
C1048 C1047 1.392 . S
C1048 C1049 1.385 1_565 S
C1048 C1050 1.478 . S
C1049 H1043 0.930 . S
C1049 C1045 1.400 . S
C1049 C1048 1.385 1_545 S
C1050 C1048 1.478 . S
C1050 C1052 1.381 . S
C1050 C1056 1.383 . S
C1051 C1047 1.495 . S
C1051 H1057 0.959 . S
C1051 H1058 0.961 . S
C1051 H1059 0.960 . S
C1052 C1050 1.381 . S
C1052 C1053 1.394 . S
C1052 H1060 0.930 . S
C1053 C1052 1.394 . S
C1053 C1054 1.383 . S
C1053 H1061 0.929 . S
C1054 C1053 1.383 . S
C1054 C1055 1.377 . S
C1055 H1039 0.930 . S
C1055 C1054 1.377 . S
C1055 C1056 1.379 . S
C1056 H1040 0.931 . S
C1056 C1050 1.383 . S
C1056 C1055 1.379 . S
H1057 C1051 0.959 . S
H1058 C1051 0.961 . S
H1059 C1051 0.960 . S
H1060 C1052 0.930 . S
H1061 C1053 0.929 . S
H1062 C1070 0.929 . S
H1063 C1072 0.930 . S
H1064 C1074 0.930 . S
H1065 C1077 0.929 . S
H1066 C1080 0.930 . S
H1067 C1082 0.960 . S
H1068 C1082 0.960 . S
H1069 C1082 0.960 . S
C1070 H1062 0.929 . S
C1070 C1071 1.377 . S
C1070 C1072 1.384 . S
C1071 C1070 1.377 . S
C1071 C1077 1.390 . S
C1072 H1063 0.930 . S
C1072 C1070 1.384 . S
C1072 C1073 1.372 . S
C1073 C1072 1.372 . S
C1073 C1074 1.400 . S
C1073 C1078 1.490 . S
C1074 H1064 0.930 . S
C1074 C1073 1.400 . S
C1074 C1077 1.386 . S
H1075 C1091 0.930 . S
H1076 C1092 0.931 . S
C1077 H1065 0.929 . S
C1077 C1071 1.390 . S
C1077 C1074 1.386 . S
C1078 C1073 1.490 . S
C1078 C1080 1.395 . S
C1078 C1081 1.403 . S
H1079 C1085 0.930 . S
C1080 H1066 0.930 . S
C1080 C1078 1.395 . S
C1080 C1083 1.403 . S
C1081 C1078 1.403 . S
C1081 C1082 1.524 . S
C1081 C1085 1.400 . S
C1082 H1067 0.960 . S
C1082 H1068 0.960 . S
C1082 H1069 0.960 . S
C1082 C1081 1.524 . S
C1083 C1080 1.403 . S
C1083 C1084 1.392 . S
C1083 C1087 1.495 . S
C1084 C1083 1.392 . S
C1084 C1085 1.385 . S
C1084 C1086 1.478 . S
C1085 H1079 0.930 . S
C1085 C1081 1.400 . S
C1085 C1084 1.385 . S
C1086 C1084 1.478 . S
C1086 C1088 1.381 . S
C1086 C1092 1.383 . S
C1087 C1083 1.495 . S
C1087 H1093 0.959 . S
C1087 H1094 0.961 . S
C1087 H1095 0.960 . S
C1088 C1086 1.381 . S
C1088 C1089 1.394 1_556 S
C1088 H1096 0.930 . S
C1089 C1088 1.394 1_554 S
C1089 C1090 1.383 . S
C1089 H1097 0.929 . S
C1090 C1089 1.383 . S
C1090 C1091 1.377 . S
C1091 H1075 0.930 . S
C1091 C1090 1.377 . S
C1091 C1092 1.379 1_554 S
C1092 H1076 0.931 . S
C1092 C1086 1.383 . S
C1092 C1091 1.379 1_556 S
H1093 C1087 0.959 . S
H1094 C1087 0.961 . S
H1095 C1087 0.960 . S
H1096 C1088 0.930 . S
H1097 C1089 0.929 . S
H1098 C1106 0.929 . S
H1099 C1108 0.930 . S
H1100 C1110 0.930 . S
H1101 C1113 0.929 . S
H1102 C1116 0.930 . S
H1103 C1118 0.960 . S
H1104 C1118 0.960 . S
H1105 C1118 0.960 . S
C1106 H1098 0.929 . S
C1106 C1107 1.377 . S
C1106 C1108 1.384 . S
C1107 C1106 1.377 . S
C1107 C1113 1.390 . S
C1108 H1099 0.930 . S
C1108 C1106 1.384 . S
C1108 C1109 1.372 . S
C1109 C1108 1.372 . S
C1109 C1110 1.400 . S
C1109 C1114 1.490 . S
C1110 H1100 0.930 . S
C1110 C1109 1.400 . S
C1110 C1113 1.386 . S
H1111 C1127 0.930 . S
H1112 C1128 0.931 . S
C1113 H1101 0.929 . S
C1113 C1107 1.390 . S
C1113 C1110 1.386 . S
C1114 C1109 1.490 . S
C1114 C1116 1.395 . S
C1114 C1117 1.403 . S
H1115 C1121 0.930 . S
C1116 H1102 0.930 . S
C1116 C1114 1.395 . S
C1116 C1119 1.403 . S
C1117 C1114 1.403 . S
C1117 C1118 1.524 . S
C1117 C1121 1.400 . S
C1118 H1103 0.960 . S
C1118 H1104 0.960 . S
C1118 H1105 0.960 . S
C1118 C1117 1.524 . S
C1119 C1116 1.403 . S
C1119 C1120 1.392 . S
C1119 C1123 1.495 . S
C1120 C1119 1.392 . S
C1120 C1121 1.385 . S
C1120 C1122 1.478 . S
C1121 H1115 0.930 . S
C1121 C1117 1.400 . S
C1121 C1120 1.385 . S
C1122 C1120 1.478 . S
C1122 C1124 1.381 . S
C1122 C1128 1.383 . S
C1123 C1119 1.495 . S
C1123 H1129 0.959 . S
C1123 H1130 0.961 . S
C1123 H1131 0.960 . S
C1124 C1122 1.381 . S
C1124 C1125 1.394 1_556 S
C1124 H1132 0.930 . S
C1125 C1124 1.394 1_554 S
C1125 C1126 1.383 . S
C1125 H1133 0.929 . S
C1126 C1125 1.383 . S
C1126 C1127 1.377 . S
C1127 H1111 0.930 . S
C1127 C1126 1.377 . S
C1127 C1128 1.379 1_554 S
C1128 H1112 0.931 . S
C1128 C1122 1.383 . S
C1128 C1127 1.379 1_556 S
H1129 C1123 0.959 . S
H1130 C1123 0.961 . S
H1131 C1123 0.960 . S
H1132 C1124 0.930 . S
H1133 C1125 0.929 . S
H1134 C1142 0.929 . S
H1135 C1144 0.930 . S
H1136 C1146 0.930 . S
H1137 C1149 0.929 . S
H1138 C1152 0.930 . S
H1139 C1154 0.960 . S
H1140 C1154 0.960 . S
H1141 C1154 0.960 . S
C1142 H1134 0.929 . S
C1142 C1143 1.377 . S
C1142 C1144 1.384 . S
C1143 C1142 1.377 . S
C1143 C1149 1.390 . S
C1144 H1135 0.930 . S
C1144 C1142 1.384 . S
C1144 C1145 1.372 . S
C1145 C1144 1.372 . S
C1145 C1146 1.400 . S
C1145 C1150 1.490 . S
C1146 H1136 0.930 . S
C1146 C1145 1.400 . S
C1146 C1149 1.386 . S
H1147 C1163 0.930 . S
H1148 C1164 0.931 . S
C1149 H1137 0.929 . S
C1149 C1143 1.390 . S
C1149 C1146 1.386 . S
C1150 C1145 1.490 . S
C1150 C1152 1.395 . S
C1150 C1153 1.403 . S
H1151 C1157 0.930 . S
C1152 H1138 0.930 . S
C1152 C1150 1.395 . S
C1152 C1155 1.403 . S
C1153 C1150 1.403 . S
C1153 C1154 1.524 . S
C1153 C1157 1.400 . S
C1154 H1139 0.960 . S
C1154 H1140 0.960 . S
C1154 H1141 0.960 . S
C1154 C1153 1.524 . S
C1155 C1152 1.403 . S
C1155 C1156 1.392 . S
C1155 C1159 1.495 . S
C1156 C1155 1.392 . S
C1156 C1157 1.385 . S
C1156 C1158 1.478 . S
C1157 H1151 0.930 . S
C1157 C1153 1.400 . S
C1157 C1156 1.385 . S
C1158 C1156 1.478 . S
C1158 C1160 1.381 . S
C1158 C1164 1.383 . S
C1159 C1155 1.495 . S
C1159 H1165 0.959 . S
C1159 H1166 0.961 . S
C1159 H1167 0.960 . S
C1160 C1158 1.381 . S
C1160 C1161 1.394 1_556 S
C1160 H1168 0.930 . S
C1161 C1160 1.394 1_554 S
C1161 C1162 1.383 . S
C1161 H1169 0.929 . S
C1162 C1161 1.383 . S
C1162 C1163 1.377 . S
C1163 H1147 0.930 . S
C1163 C1162 1.377 . S
C1163 C1164 1.379 1_554 S
C1164 H1148 0.931 . S
C1164 C1158 1.383 . S
C1164 C1163 1.379 1_556 S
H1165 C1159 0.959 . S
H1166 C1159 0.961 . S
H1167 C1159 0.960 . S
H1168 C1160 0.930 . S
H1169 C1161 0.929 . S
H1170 C1178 0.929 . S
H1171 C1180 0.930 . S
H1172 C1182 0.930 . S
H1173 C1185 0.929 . S
H1174 C1188 0.930 . S
H1175 C1190 0.960 . S
H1176 C1190 0.960 . S
H1177 C1190 0.960 . S
C1178 H1170 0.929 . S
C1178 C1179 1.377 . S
C1178 C1180 1.384 . S
C1179 C1178 1.377 . S
C1179 C1185 1.390 . S
C1180 H1171 0.930 . S
C1180 C1178 1.384 . S
C1180 C1181 1.372 . S
C1181 C1180 1.372 . S
C1181 C1182 1.400 . S
C1181 C1186 1.490 . S
C1182 H1172 0.930 . S
C1182 C1181 1.400 . S
C1182 C1185 1.386 . S
H1183 C1199 0.930 . S
H1184 C1200 0.931 . S
C1185 H1173 0.929 . S
C1185 C1179 1.390 . S
C1185 C1182 1.386 . S
C1186 C1181 1.490 . S
C1186 C1188 1.395 . S
C1186 C1189 1.403 . S
H1187 C1193 0.930 . S
C1188 H1174 0.930 . S
C1188 C1186 1.395 . S
C1188 C1191 1.403 . S
C1189 C1186 1.403 . S
C1189 C1190 1.524 . S
C1189 C1193 1.400 . S
C1190 H1175 0.960 . S
C1190 H1176 0.960 . S
C1190 H1177 0.960 . S
C1190 C1189 1.524 . S
C1191 C1188 1.403 . S
C1191 C1192 1.392 . S
C1191 C1195 1.495 . S
C1192 C1191 1.392 . S
C1192 C1193 1.385 . S
C1192 C1194 1.478 . S
C1193 H1187 0.930 . S
C1193 C1189 1.400 . S
C1193 C1192 1.385 . S
C1194 C1192 1.478 . S
C1194 C1196 1.381 . S
C1194 C1200 1.383 . S
C1195 C1191 1.495 . S
C1195 H1201 0.959 . S
C1195 H1202 0.961 . S
C1195 H1203 0.960 . S
C1196 C1194 1.381 . S
C1196 C1197 1.394 1_554 S
C1196 H1204 0.930 . S
C1197 C1196 1.394 1_556 S
C1197 C1198 1.383 . S
C1197 H1205 0.929 . S
C1198 C1197 1.383 . S
C1198 C1199 1.377 . S
C1199 H1183 0.930 . S
C1199 C1198 1.377 . S
C1199 C1200 1.379 1_556 S
C1200 H1184 0.931 . S
C1200 C1194 1.383 . S
C1200 C1199 1.379 1_554 S
H1201 C1195 0.959 . S
H1202 C1195 0.961 . S
H1203 C1195 0.960 . S
H1204 C1196 0.930 . S
H1205 C1197 0.929 . S
H1206 C1214 0.929 . S
H1207 C1216 0.930 . S
H1208 C1218 0.930 . S
H1209 C1221 0.929 . S
H1210 C1224 0.930 . S
H1211 C1226 0.960 . S
H1212 C1226 0.960 . S
H1213 C1226 0.960 . S
C1214 H1206 0.929 . S
C1214 C1215 1.377 . S
C1214 C1216 1.384 1_556 S
C1215 C1214 1.377 . S
C1215 C1221 1.390 . S
C1216 H1207 0.930 . S
C1216 C1214 1.384 1_554 S
C1216 C1217 1.372 . S
C1217 C1216 1.372 . S
C1217 C1218 1.400 . S
C1217 C1222 1.490 . S
C1218 H1208 0.930 . S
C1218 C1217 1.400 . S
C1218 C1221 1.386 1_554 S
H1219 C1235 0.930 . S
H1220 C1236 0.931 . S
C1221 H1209 0.929 . S
C1221 C1215 1.390 . S
C1221 C1218 1.386 1_556 S
C1222 C1217 1.490 . S
C1222 C1224 1.395 . S
C1222 C1225 1.403 . S
H1223 C1229 0.930 . S
C1224 H1210 0.930 . S
C1224 C1222 1.395 . S
C1224 C1227 1.403 . S
C1225 C1222 1.403 . S
C1225 C1226 1.524 . S
C1225 C1229 1.400 . S
C1226 H1211 0.960 . S
C1226 H1212 0.960 . S
C1226 H1213 0.960 . S
C1226 C1225 1.524 . S
C1227 C1224 1.403 . S
C1227 C1228 1.392 . S
C1227 C1231 1.495 . S
C1228 C1227 1.392 . S
C1228 C1229 1.385 . S
C1228 C1230 1.478 . S
C1229 H1223 0.930 . S
C1229 C1225 1.400 . S
C1229 C1228 1.385 . S
C1230 C1228 1.478 . S
C1230 C1232 1.381 . S
C1230 C1236 1.383 . S
C1231 C1227 1.495 . S
C1231 H1237 0.959 . S
C1231 H1238 0.961 . S
C1231 H1239 0.960 . S
C1232 C1230 1.381 . S
C1232 C1233 1.394 . S
C1232 H1240 0.930 . S
C1233 C1232 1.394 . S
C1233 C1234 1.383 . S
C1233 H1241 0.929 . S
C1234 C1233 1.383 . S
C1234 C1235 1.377 . S
C1235 H1219 0.930 . S
C1235 C1234 1.377 . S
C1235 C1236 1.379 . S
C1236 H1220 0.931 . S
C1236 C1230 1.383 . S
C1236 C1235 1.379 . S
H1237 C1231 0.959 . S
H1238 C1231 0.961 . S
H1239 C1231 0.960 . S
H1240 C1232 0.930 . S
H1241 C1233 0.929 . S
H1242 C1250 0.929 . S
H1243 C1252 0.930 . S
H1244 C1254 0.930 . S
H1245 C1257 0.929 . S
H1246 C1260 0.930 . S
H1247 C1262 0.960 . S
H1248 C1262 0.960 . S
H1249 C1262 0.960 . S
C1250 H1242 0.929 . S
C1250 C1251 1.377 . S
C1250 C1252 1.384 . S
C1251 C1250 1.377 . S
C1251 C1257 1.390 . S
C1252 H1243 0.930 . S
C1252 C1250 1.384 . S
C1252 C1253 1.372 . S
C1253 C1252 1.372 . S
C1253 C1254 1.400 . S
C1253 C1258 1.490 . S
C1254 H1244 0.930 . S
C1254 C1253 1.400 . S
C1254 C1257 1.386 . S
H1255 C1271 0.930 . S
H1256 C1272 0.931 . S
C1257 H1245 0.929 . S
C1257 C1251 1.390 . S
C1257 C1254 1.386 . S
C1258 C1253 1.490 . S
C1258 C1260 1.395 . S
C1258 C1261 1.403 . S
H1259 C1265 0.930 . S
C1260 H1246 0.930 . S
C1260 C1258 1.395 . S
C1260 C1263 1.403 . S
C1261 C1258 1.403 . S
C1261 C1262 1.524 . S
C1261 C1265 1.400 . S
C1262 H1247 0.960 . S
C1262 H1248 0.960 . S
C1262 H1249 0.960 . S
C1262 C1261 1.524 . S
C1263 C1260 1.403 . S
C1263 C1264 1.392 . S
C1263 C1267 1.495 . S
C1264 C1263 1.392 . S
C1264 C1265 1.385 . S
C1264 C1266 1.478 . S
C1265 H1259 0.930 . S
C1265 C1261 1.400 . S
C1265 C1264 1.385 . S
C1266 C1264 1.478 . S
C1266 C1268 1.381 . S
C1266 C1272 1.383 . S
C1267 C1263 1.495 . S
C1267 H1273 0.959 . S
C1267 H1274 0.961 . S
C1267 H1275 0.960 . S
C1268 C1266 1.381 . S
C1268 C1269 1.394 1_554 S
C1268 H1276 0.930 . S
C1269 C1268 1.394 1_556 S
C1269 C1270 1.383 . S
C1269 H1277 0.929 . S
C1270 C1269 1.383 . S
C1270 C1271 1.377 . S
C1271 H1255 0.930 . S
C1271 C1270 1.377 . S
C1271 C1272 1.379 1_556 S
C1272 H1256 0.931 . S
C1272 C1266 1.383 . S
C1272 C1271 1.379 1_554 S
H1273 C1267 0.959 . S
H1274 C1267 0.961 . S
H1275 C1267 0.960 . S
H1276 C1268 0.930 . S
H1277 C1269 0.929 . S
C315 C29 1.619 . S
C334 C267 1.632 . S
C351 C51 1.580 . S
C370 C289 1.560 . S
C387 C97 1.601 . S
C406 C221 1.618 . S
C423 C153 1.532 . S
C442 C85 1.518 . S
C459 C187 1.561 . S
C478 C17 1.541 . S
C495 C63 1.587 . S
C514 C119 1.571 . S
C531 C255 1.607 . S
C550 C199 1.594 . S
C567 C301 1.630 . S
C586 C131 1.615 . S
C603 C165 1.671 . S
C622 C233 1.683 . S
C639 C68 1.127 . S
C658 C8 1.125 . S
C675 C34 1.136 . S
C694 C0 1.122 . S
C711 C42 1.148 . S
C730 C76 1.141 . S
C747 C102 1.147 . S
C766 C178 1.156 . S
C783 C110 1.153 . S
C802 C136 1.134 . S
C819 C144 1.145 . S
C838 C170 1.154 . S
C855 C272 1.159 . S
C874 C212 1.154 . S
C891 C238 1.143 . S
C910 C204 1.131 . S
C927 C280 1.156 . S
C946 C246 1.163 . S
C963 C13 0.889 . S
C982 C4 0.865 . S
C999 C38 0.872 . S
C1018 C47 0.850 . S
C1035 C81 0.870 . S
C1054 C72 0.881 . S
C1071 C115 0.886 . S
C1090 C106 0.893 . S
C1107 C149 0.883 . S
C1126 C140 0.903 . S
C1143 C183 0.869 . S
C1162 C174 0.853 . S
C1179 C217 0.899 . S
C1198 C208 0.881 . S
C1215 C251 0.886 . S
C1234 C242 0.863 . S
C1251 C285 0.871 . S
C1270 C276 0.848 . S
