# Generated by pormake.
# Topology fns, (5)-cn, num edge types: 1
# Building blocks:
#     Node 0, Type 0, BuildingBlock: XOMCOT_clean_sbu_0, # of connection points: 5
#     Node 1, Type 0, BuildingBlock: XOMCOT_clean_sbu_0, # of connection points: 5
#     Node 2, Type 0, BuildingBlock: XOMCOT_clean_sbu_0, # of connection points: 5
#     Node 3, Type 0, BuildingBlock: XOMCOT_clean_sbu_0, # of connection points: 5
#     Node 4, Type 0, BuildingBlock: XOMCOT_clean_sbu_0, # of connection points: 5
#     Node 5, Type 0, BuildingBlock: XOMCOT_clean_sbu_0, # of connection points: 5
#     Edge 6, Type (0, 0), BuildingBlock: XIVTED_clean_linker_0, # of connection points: 2
#     Edge 7, Type (0, 0), BuildingBlock: XIVTED_clean_linker_0, # of connection points: 2
#     Edge 8, Type (0, 0), BuildingBlock: XIVTED_clean_linker_0, # of connection points: 2
#     Edge 9, Type (0, 0), BuildingBlock: XIVTED_clean_linker_0, # of connection points: 2
#     Edge 10, Type (0, 0), BuildingBlock: XIVTED_clean_linker_0, # of connection points: 2
#     Edge 11, Type (0, 0), BuildingBlock: XIVTED_clean_linker_0, # of connection points: 2
#     Edge 12, Type (0, 0), BuildingBlock: XIVTED_clean_linker_0, # of connection points: 2
#     Edge 13, Type (0, 0), BuildingBlock: XIVTED_clean_linker_0, # of connection points: 2
#     Edge 14, Type (0, 0), BuildingBlock: XIVTED_clean_linker_0, # of connection points: 2
#     Edge 15, Type (0, 0), BuildingBlock: XIVTED_clean_linker_0, # of connection points: 2
#     Edge 16, Type (0, 0), BuildingBlock: XIVTED_clean_linker_0, # of connection points: 2
#     Edge 17, Type (0, 0), BuildingBlock: XIVTED_clean_linker_0, # of connection points: 2
#     Edge 18, Type (0, 0), BuildingBlock: XIVTED_clean_linker_0, # of connection points: 2
#     Edge 19, Type (0, 0), BuildingBlock: XIVTED_clean_linker_0, # of connection points: 2
#     Edge 20, Type (0, 0), BuildingBlock: XIVTED_clean_linker_0, # of connection points: 2
# Relax obj value: 0.191
# Max RMSD: 0.296
# Mean RMSD: 0.296
data_MOF--net-fns--node1-XOMCOT_clean_sbu_0--edge1-XIVTED_clean_linker_0
_symmetry_space_group_name_H-M    P1
_symmetry_Int_Tables_number       1
_symmetry_cell_setting            triclinic
loop_
_symmetry_equiv_pos_as_xyz
'x, y, z'
_cell_length_a     56.155226
_cell_length_b     56.138873
_cell_length_c     17.665365
_cell_angle_alpha  90.059449
_cell_angle_beta   89.952533
_cell_angle_gamma 119.98916
loop_
_atom_site_label
_atom_site_type_symbol
_atom_site_fract_x
_atom_site_fract_y
_atom_site_fract_z
_atom_type_partial_charge
Co0 Co 0.18751 0.62598 0.18123 0.0
C1 C 0.18764 0.62043 0.34875 0.0
C2 C 0.21577 0.61052 0.29538 0.0
C3 C 0.21858 0.60977 0.37273 0.0
N4 N 0.19575 0.61646 0.28011 0.0
N5 N 0.20079 0.616 0.40619 0.0
H6 H 0.17426 0.62876 0.35721 0.0
H7 H 0.22838 0.6081 0.25325 0.0
C8 C 0.18779 0.5732 0.14983 0.0
O9 O 0.17457 0.56216 0.21313 0.0
N10 N 0.18021 0.63606 0.0832 0.0
C11 C 0.1623 0.64464 0.06694 0.0
C12 C 0.16145 0.64707 0.98946 0.0
C13 C 0.19024 0.63369 0.01601 0.0
N14 N 0.17896 0.64005 0.95748 0.0
C15 C 0.13339 0.60464 0.24585 0.0
C16 C 0.10696 0.56117 0.14621 0.0
C17 C 0.09189 0.56413 0.20481 0.0
C18 C 0.10528 0.58632 0.25469 0.0
C19 C 0.13508 0.57961 0.14047 0.0
N20 N 0.14831 0.60024 0.19228 0.0
H21 H 0.14278 0.62289 0.2802 0.0
H22 H 0.14596 0.57763 0.09275 0.0
H23 H 0.15015 0.6481 0.10836 0.0
H24 H 0.20472 0.62644 0.00999 0.0
O25 O 0.18994 0.65876 0.22568 0.0
O26 O 0.22462 0.6557 0.17554 0.0
O27 O 0.19384 0.59751 0.13075 0.0
C28 C 0.21608 0.67054 0.20979 0.0
H29 H 0.2331 0.60566 0.40179 0.0
H30 H 0.14865 0.65321 0.95915 0.0
H31 H 0.09707 0.54476 0.10503 0.0
H32 H 0.09393 0.59 0.29833 0.0
Co33 Co 0.56044 0.19135 0.49709 0.0
C34 C 0.56503 0.19363 0.66278 0.0
C35 C 0.6043 0.21904 0.61034 0.0
C36 C 0.60751 0.22185 0.68779 0.0
N37 N 0.57769 0.20128 0.59511 0.0
N38 N 0.58276 0.20594 0.72061 0.0
H39 H 0.54322 0.17953 0.6692 0.0
H40 H 0.6201 0.22977 0.5682 0.0
C41 C 0.59879 0.18064 0.40288 0.0
O42 O 0.57773 0.15886 0.37298 0.0
N43 N 0.54336 0.18222 0.39765 0.0
C44 C 0.51703 0.16459 0.37818 0.0
C45 C 0.51446 0.16533 0.30085 0.0
C46 C 0.55601 0.19426 0.33208 0.0
N47 N 0.53908 0.18384 0.27185 0.0
C48 C 0.51854 0.13651 0.53683 0.0
C49 C 0.55316 0.11511 0.55169 0.0
C50 C 0.5247 0.09729 0.55754 0.0
C51 C 0.5074 0.10857 0.55266 0.0
C52 C 0.56337 0.14293 0.53678 0.0
N53 N 0.54599 0.15287 0.52334 0.0
H54 H 0.50504 0.14498 0.53601 0.0
H55 H 0.58535 0.15636 0.5362 0.0
H56 H 0.50049 0.15217 0.41639 0.0
H57 H 0.57734 0.21028 0.32867 0.0
O58 O 0.53102 0.19657 0.53512 0.0
O59 O 0.56941 0.2288 0.48128 0.0
O60 O 0.59521 0.19486 0.45343 0.0
C61 C 0.54618 0.2221 0.51422 0.0
H62 H 0.62644 0.23531 0.71737 0.0
H63 H 0.49596 0.15275 0.26852 0.0
H64 H 0.56755 0.10769 0.55687 0.0
H65 H 0.48542 0.09598 0.5611 0.0
Co66 Co 0.36546 0.56176 0.8455 0.0
C67 C 0.36957 0.56701 0.01307 0.0
C68 C 0.38227 0.60569 0.95968 0.0
C69 C 0.38229 0.60918 0.03689 0.0
N70 N 0.37512 0.57936 0.94457 0.0
N71 N 0.37413 0.58474 0.0703 0.0
H72 H 0.36071 0.54522 0.02126 0.0
H73 H 0.38573 0.62103 0.91748 0.0
C74 C 0.41894 0.61404 0.81407 0.0
O75 O 0.42991 0.61137 0.87686 0.0
N76 N 0.35523 0.5447 0.74715 0.0
C77 C 0.34678 0.51836 0.7291 0.0
C78 C 0.34403 0.51561 0.65147 0.0
C79 C 0.35727 0.55753 0.68106 0.0
N80 N 0.35081 0.54033 0.62137 0.0
C81 C 0.3868 0.52903 0.91062 0.0
C82 C 0.43018 0.54584 0.81092 0.0
C83 C 0.42789 0.52859 0.87117 0.0
C84 C 0.40542 0.51966 0.92045 0.0
C85 C 0.41127 0.55488 0.80377 0.0
N86 N 0.39087 0.54787 0.85602 0.0
H87 H 0.3688 0.52055 0.94586 0.0
H88 H 0.41286 0.56721 0.75512 0.0
H89 H 0.34373 0.50255 0.76927 0.0
H90 H 0.36368 0.57912 0.67687 0.0
O91 O 0.33255 0.53153 0.88945 0.0
O92 O 0.33597 0.56958 0.84056 0.0
O93 O 0.39432 0.59644 0.79553 0.0
C94 C 0.32099 0.54616 0.87446 0.0
H95 H 0.38639 0.62787 0.06579 0.0
H96 H 0.33854 0.49709 0.61964 0.0
H97 H 0.44619 0.55202 0.76872 0.0
H98 H 0.40222 0.50565 0.96648 0.0
Co99 Co 0.79804 0.36369 0.177 0.0
C100 C 0.79575 0.36632 0.3425 0.0
C101 C 0.76749 0.37654 0.29036 0.0
C102 C 0.76495 0.37715 0.36794 0.0
N103 N 0.78685 0.36979 0.27489 0.0
N104 N 0.78275 0.3707 0.4006 0.0
H105 H 0.81091 0.35992 0.34865 0.0
H106 H 0.75579 0.38033 0.24832 0.0
C107 C 0.80683 0.41226 0.08437 0.0
O108 O 0.82966 0.41457 0.05695 0.0
N109 N 0.80851 0.35681 0.07777 0.0
C110 C 0.82608 0.34783 0.06013 0.0
C111 C 0.82641 0.34502 0.98282 0.0
C112 C 0.79736 0.35783 0.01091 0.0
N113 N 0.80851 0.35157 0.95178 0.0
C114 C 0.85429 0.38062 0.21524 0.0
C115 C 0.87121 0.43575 0.23249 0.0
C116 C 0.8909 0.42744 0.23355 0.0
C117 C 0.88208 0.39934 0.22841 0.0
C118 C 0.84371 0.41631 0.22022 0.0
N119 N 0.83596 0.38955 0.20465 0.0
H120 H 0.84757 0.35898 0.21353 0.0
H121 H 0.82875 0.423 0.22231 0.0
H122 H 0.83734 0.34268 0.09974 0.0
H123 H 0.78171 0.36358 1.00566 0.0
O124 O 0.79473 0.32977 0.21491 0.0
O125 O 0.76151 0.33389 0.15916 0.0
O126 O 0.7926 0.39377 0.13325 0.0
C127 C 0.76928 0.31822 0.19211 0.0
H128 H 0.75107 0.382 0.39778 0.0
H129 H 0.8386 0.33819 0.9521 0.0
H130 H 0.87708 0.45714 0.24022 0.0
H131 H 0.89659 0.392 0.23194 0.0
Co132 Co 0.43111 0.80132 0.50903 0.0
C133 C 0.42517 0.80023 0.67698 0.0
C134 C 0.38751 0.77178 0.6226 0.0
C135 C 0.38375 0.76856 0.69982 0.0
N136 N 0.41331 0.79224 0.60803 0.0
N137 N 0.40753 0.78653 0.73398 0.0
H138 H 0.44676 0.81402 0.68588 0.0
H139 H 0.37269 0.75922 0.58001 0.0
C140 C 0.37791 0.80081 0.48062 0.0
O141 O 0.3804 0.81372 0.54475 0.0
N142 N 0.4485 0.80945 0.41081 0.0
C143 C 0.47499 0.82753 0.39509 0.0
C144 C 0.47844 0.82883 0.31764 0.0
C145 C 0.43625 0.79979 0.34323 0.0
N146 N 0.45402 0.81146 0.28504 0.0
C147 C 0.46326 0.8551 0.57612 0.0
C148 C 0.44464 0.88144 0.48162 0.0
C149 C 0.46221 0.89628 0.5415 0.0
C150 C 0.47206 0.88288 0.5881 0.0
C151 C 0.43619 0.85369 0.47233 0.0
N152 N 0.44407 0.84036 0.52226 0.0
H153 H 0.4725 0.84574 0.60903 0.0
H154 H 0.42369 0.84313 0.42376 0.0
H155 H 0.49051 0.83941 0.43693 0.0
H156 H 0.41456 0.78523 0.33677 0.0
O157 O 0.46171 0.79919 0.55228 0.0
O158 O 0.42429 0.76439 0.50138 0.0
O159 O 0.39611 0.79488 0.45965 0.0
C160 C 0.44769 0.77309 0.53565 0.0
H161 H 0.36514 0.75368 0.72828 0.0
H162 H 0.49745 0.84179 0.2878 0.0
H163 H 0.43781 0.89125 0.44121 0.0
H164 H 0.48638 0.89363 0.6336 0.0
Co165 Co 0.62561 0.43043 0.83212 0.0
C166 C 0.62202 0.42528 0.99809 0.0
C167 C 0.60852 0.38617 0.94493 0.0
C168 C 0.60764 0.38273 0.02237 0.0
N169 N 0.61749 0.41283 0.93005 0.0
N170 N 0.61623 0.40737 0.05578 0.0
H171 H 0.63034 0.44718 1.00483 0.0
H172 H 0.60355 0.37045 0.90258 0.0
C173 C 0.57711 0.39198 0.73618 0.0
O174 O 0.57591 0.41292 0.70734 0.0
N175 N 0.63448 0.44807 0.73299 0.0
C176 C 0.64552 0.47501 0.7165 0.0
C177 C 0.64873 0.47845 0.63937 0.0
C178 C 0.63265 0.43583 0.66551 0.0
N179 N 0.64032 0.45373 0.60709 0.0
C180 C 0.61171 0.47196 0.8685 0.0
C181 C 0.55578 0.43673 0.88246 0.0
C182 C 0.56597 0.46516 0.88661 0.0
C183 C 0.59452 0.48279 0.88234 0.0
C184 C 0.57379 0.42684 0.86953 0.0
N185 N 0.60108 0.44449 0.85644 0.0
H186 H 0.63361 0.48571 0.86859 0.0
H187 H 0.56558 0.40489 0.86986 0.0
H188 H 0.6517 0.49142 0.75689 0.0
H189 H 0.62529 0.41409 0.65922 0.0
O190 O 0.6597 0.45987 0.87266 0.0
O191 O 0.65442 0.42183 0.81838 0.0
O192 O 0.59496 0.39566 0.78655 0.0
C193 C 0.67045 0.44494 0.85264 0.0
H194 H 0.60131 0.36355 0.05157 0.0
H195 H 0.657 0.49783 0.60964 0.0
H196 H 0.53402 0.42213 0.88736 0.0
H197 H 0.60357 0.50478 0.88982 0.0
H198 H 0.1937 0.57668 0.99739 0.0
H199 H 0.29412 0.51513 0.99874 0.0
H200 H 0.20514 0.5373 0.19227 0.0
H201 H 0.28613 0.56157 0.81616 0.0
H202 H 0.25364 0.51269 0.0598 0.0
H203 H 0.21883 0.56063 0.9203 0.0
C204 C 0.20123 0.56429 0.02366 0.0
C205 C 0.19784 0.55871 0.10143 0.0
C206 C 0.26038 0.52286 1.00553 0.0
C207 C 0.22714 0.54065 0.01387 0.0
C208 C 0.28333 0.52407 0.97047 0.0
C209 C 0.29352 0.53882 0.90284 0.0
C210 C 0.24766 0.53639 0.97223 0.0
C211 C 0.27907 0.55029 0.8688 0.0
C212 C 0.21558 0.5551 0.97965 0.0
C213 C 0.20751 0.54214 0.13246 0.0
N214 N 0.25707 0.54909 0.90424 0.0
N215 N 0.22227 0.53413 0.08882 0.0
H216 H 0.64744 0.20993 0.47695 0.0
H217 H 0.72333 0.28346 0.11321 0.0
H218 H 0.61325 0.17623 0.25796 0.0
H219 H 0.76829 0.28893 0.31637 0.0
H220 H 0.6841 0.24121 0.16112 0.0
H221 H 0.69296 0.23588 0.41931 0.0
C222 C 0.64968 0.20759 0.4169 0.0
C223 C 0.62661 0.19129 0.37181 0.0
C224 C 0.70279 0.25118 0.19439 0.0
C225 C 0.67839 0.2213 0.30532 0.0
C226 C 0.72514 0.27529 0.16711 0.0
C227 C 0.74885 0.2897 0.21138 0.0
C228 C 0.70394 0.24197 0.26741 0.0
C229 C 0.75029 0.27835 0.28066 0.0
C230 C 0.67565 0.22229 0.38408 0.0
C231 C 0.63055 0.18873 0.29451 0.0
N232 N 0.7278 0.25548 0.30759 0.0
N233 N 0.6559 0.20418 0.26321 0.0
H234 H 0.47929 0.77773 0.65889 0.0
H235 H 0.41627 0.61575 0.66153 0.0
H236 H 0.4328 0.72293 0.47678 0.0
H237 H 0.45562 0.6672 0.85545 0.0
H238 H 0.43339 0.65665 0.58268 0.0
H239 H 0.48185 0.73985 0.72028 0.0
C240 C 0.47037 0.75795 0.63075 0.0
C241 C 0.45548 0.75322 0.56333 0.0
C242 C 0.4387 0.65913 0.64221 0.0
C243 C 0.45804 0.70998 0.63315 0.0
C244 C 0.42888 0.63576 0.68717 0.0
C245 C 0.4341 0.63825 0.76512 0.0
C246 C 0.45342 0.68526 0.67572 0.0
C247 C 0.45101 0.66453 0.7955 0.0
C248 C 0.47166 0.73632 0.66601 0.0
C249 C 0.44413 0.72727 0.52936 0.0
N250 N 0.45963 0.68716 0.75094 0.0
N251 N 0.44536 0.70655 0.56508 0.0
H252 H 0.70079 0.47833 0.96924 0.0
H253 H 0.77568 0.43009 0.15547 0.0
H254 H 0.70261 0.42599 0.79304 0.0
H255 H 0.81044 0.42942 0.93826 0.0
H256 H 0.74899 0.44836 0.09536 0.0
H257 H 0.74164 0.48044 0.0261 0.0
C258 C 0.71018 0.46784 0.94156 0.0
C259 C 0.69813 0.45156 0.8772 0.0
C260 C 0.76316 0.44516 0.06115 0.0
C261 C 0.74428 0.45352 0.94224 0.0
C262 C 0.7782 0.43452 0.09536 0.0
C263 C 0.79518 0.42827 0.05157 0.0
C264 C 0.76468 0.44895 0.98234 0.0
C265 C 0.79767 0.43418 0.97392 0.0
C266 C 0.73326 0.46882 0.97444 0.0
C267 C 0.71107 0.43839 0.84346 0.0
N268 N 0.78198 0.44353 0.9413 0.0
N269 N 0.73335 0.43945 0.87681 0.0
H270 H 0.37471 0.79508 0.328 0.0
H271 H 0.21272 0.69718 0.33588 0.0
H272 H 0.32516 0.78466 0.52532 0.0
H273 H 0.26544 0.70594 0.1477 0.0
H274 H 0.25131 0.73741 0.39609 0.0
H275 H 0.33311 0.77133 0.25205 0.0
C276 C 0.35499 0.78804 0.3551 0.0
C277 C 0.35325 0.79129 0.43317 0.0
C278 C 0.25422 0.73091 0.34079 0.0
C279 C 0.3054 0.76358 0.3469 0.0
C280 C 0.23217 0.70811 0.30623 0.0
C281 C 0.23615 0.69814 0.23736 0.0
C282 C 0.28019 0.74367 0.30576 0.0
C283 C 0.26171 0.7128 0.20142 0.0
C284 C 0.33121 0.7745 0.31172 0.0
C285 C 0.32728 0.78232 0.46526 0.0
N286 N 0.28284 0.7346 0.23645 0.0
N287 N 0.30424 0.76831 0.42221 0.0
H288 H 0.51111 0.21961 0.62542 0.0
H289 H 0.55632 0.3429 0.80841 0.0
H290 H 0.5666 0.27326 0.45358 0.0
H291 H 0.56272 0.37867 0.58817 0.0
H292 H 0.53855 0.29785 0.74921 0.0
H293 H 0.50831 0.25858 0.67792 0.0
C294 C 0.52221 0.23944 0.59778 0.0
C295 C 0.53952 0.24343 0.536 0.0
C296 C 0.54285 0.3153 0.7139 0.0
C297 C 0.53681 0.28794 0.59626 0.0
C298 C 0.55319 0.34104 0.74767 0.0
C299 C 0.56094 0.36439 0.70294 0.0
C300 C 0.54087 0.31307 0.63466 0.0
C301 C 0.55674 0.36105 0.62453 0.0
C302 C 0.52083 0.26169 0.62822 0.0
C303 C 0.5534 0.26948 0.50214 0.0
N304 N 0.54765 0.33591 0.59255 0.0
N305 N 0.55195 0.29086 0.53318 0.0
H306 H 0.22363 0.64229 0.88977 0.0
H307 H 0.15595 0.61202 0.47666 0.0
H308 H 0.14358 0.63184 0.8421 0.0
H309 H 0.23811 0.62732 0.51921 0.0
H310 H 0.15107 0.61872 0.61083 0.0
H311 H 0.22925 0.63621 0.75516 0.0
C312 C 0.2072 0.63868 0.85121 0.0
C313 C 0.18306 0.63758 0.87772 0.0
C314 C 0.1702 0.62064 0.59091 0.0
C315 C 0.18946 0.63072 0.72307 0.0
C316 C 0.17307 0.61695 0.51402 0.0
C317 C 0.19756 0.61925 0.48608 0.0
C318 C 0.19194 0.62664 0.64083 0.0
C319 C 0.21877 0.62509 0.53796 0.0
C320 C 0.21049 0.63532 0.77418 0.0
C321 C 0.16267 0.63321 0.82455 0.0
N322 N 0.21548 0.62862 0.61272 0.0
N323 N 0.16631 0.62987 0.75002 0.0
H324 H 0.53355 0.19201 0.78556 0.0
H325 H 0.58953 0.20307 0.20813 0.0
H326 H 0.61733 0.21484 0.83854 0.0
H327 H 0.50508 0.17725 0.15429 0.0
H328 H 0.60066 0.20977 0.07356 0.0
H329 H 0.52314 0.18798 0.92051 0.0
C330 C 0.54975 0.19601 0.82542 0.0
C331 C 0.57636 0.20364 0.80034 0.0
C332 C 0.5797 0.20272 0.09118 0.0
C333 C 0.56461 0.19943 0.95555 0.0
C334 C 0.57335 0.19906 0.16823 0.0
C335 C 0.54626 0.18947 0.19286 0.0
C336 C 0.55885 0.1968 0.03811 0.0
C337 C 0.52613 0.18429 0.13804 0.0
C338 C 0.54381 0.19389 0.90266 0.0
C339 C 0.59661 0.20914 0.85507 0.0
N340 N 0.53282 0.18797 0.06335 0.0
N341 N 0.5903 0.20686 0.93001 0.0
H342 H 0.38271 0.59074 0.55763 0.0
H343 H 0.33782 0.53564 0.13441 0.0
H344 H 0.32415 0.50629 0.50296 0.0
H345 H 0.3991 0.6192 0.18875 0.0
H346 H 0.3312 0.52497 0.26913 0.0
H347 H 0.38722 0.60202 0.42345 0.0
C348 C 0.37058 0.57456 0.51769 0.0
C349 C 0.353 0.54744 0.54211 0.0
C350 C 0.3461 0.54565 0.25166 0.0
C351 C 0.35838 0.56028 0.38742 0.0
C352 C 0.35005 0.55174 0.17452 0.0
C353 C 0.3693 0.57835 0.14992 0.0
C354 C 0.36147 0.56627 0.30494 0.0
C355 C 0.38396 0.59848 0.20502 0.0
C356 C 0.37332 0.58102 0.44076 0.0
C357 C 0.33819 0.52736 0.48696 0.0
N358 N 0.37981 0.59201 0.27985 0.0
N359 N 0.34123 0.53418 0.41231 0.0
H360 H 0.76321 0.3486 0.88575 0.0
H361 H 0.82807 0.37509 0.46933 0.0
H362 H 0.84307 0.35899 0.83502 0.0
H363 H 0.74634 0.36056 0.51515 0.0
H364 H 0.83386 0.36966 0.60365 0.0
H365 H 0.75667 0.35354 0.75108 0.0
C366 C 0.77939 0.35193 0.84653 0.0
C367 C 0.80373 0.35331 0.87216 0.0
C368 C 0.81463 0.36764 0.58441 0.0
C369 C 0.79629 0.35888 0.71754 0.0
C370 C 0.81124 0.37061 0.50742 0.0
C371 C 0.78661 0.36817 0.48041 0.0
C372 C 0.79327 0.36222 0.63526 0.0
C373 C 0.76579 0.36289 0.5332 0.0
C374 C 0.77558 0.35465 0.76949 0.0
C375 C 0.82381 0.35736 0.81818 0.0
N376 N 0.76958 0.36006 0.608 0.0
N377 N 0.81966 0.36005 0.74369 0.0
H378 H 0.48166 0.84728 0.17089 0.0
H379 H 0.38121 0.74872 0.84576 0.0
H380 H 0.41189 0.76701 0.21545 0.0
H381 H 0.44788 0.83127 0.80639 0.0
H382 H 0.39241 0.75443 0.98064 0.0
H383 H 0.47035 0.84089 0.03658 0.0
C384 C 0.46409 0.82819 0.15257 0.0
C385 C 0.44778 0.80764 0.20504 0.0
C386 C 0.40458 0.77128 0.94241 0.0
C387 C 0.43443 0.8003 0.05046 0.0
C388 C 0.3981 0.76809 0.86526 0.0
C389 C 0.41364 0.78951 0.8141 0.0
C390 C 0.42678 0.79607 0.96888 0.0
C391 C 0.43556 0.81401 0.84312 0.0
C392 C 0.4575 0.82464 0.07566 0.0
C393 C 0.42492 0.78355 0.17747 0.0
N394 N 0.44144 0.81658 0.91832 0.0
N395 N 0.41895 0.78055 0.10218 0.0
H396 H 0.62286 0.37796 0.16833 0.0
H397 H 0.63674 0.48401 0.49221 0.0
H398 H 0.61772 0.45106 0.12743 0.0
H399 H 0.63791 0.40905 0.53772 0.0
H400 H 0.63131 0.4728 0.35804 0.0
H401 H 0.6291 0.38912 0.30308 0.0
C402 C 0.62286 0.39626 0.18745 0.0
C403 C 0.61972 0.41356 0.13587 0.0
C404 C 0.63281 0.4588 0.39728 0.0
C405 C 0.62725 0.42667 0.29067 0.0
C406 C 0.63616 0.46531 0.4742 0.0
C407 C 0.63795 0.44756 0.52699 0.0
C408 C 0.63121 0.4343 0.37228 0.0
C409 C 0.63641 0.4233 0.4996 0.0
C410 C 0.6266 0.40271 0.26457 0.0
C411 C 0.62039 0.43726 0.16447 0.0
N412 N 0.63315 0.4174 0.42424 0.0
N413 N 0.62407 0.44307 0.23973 0.0
H414 H 0.93129 0.42907 0.3249 0.0
H415 H 0.05312 0.54994 0.0952 0.0
H416 H 0.91756 0.47269 0.14491 0.0
H417 H 0.06324 0.53467 0.32885 0.0
H418 H 0.00383 0.51709 0.1055 0.0
H419 H 0.98065 0.46339 0.32125 0.0
C420 C 0.9387 0.4459 0.28488 0.0
C421 C 0.92047 0.44822 0.23532 0.0
C422 C 0.01682 0.521 0.1546 0.0
C423 C 0.97643 0.48698 0.23015 0.0
C424 C 0.04487 0.53959 0.14862 0.0
C425 C 0.06207 0.54488 0.2113 0.0
C426 C 0.00601 0.50726 0.22333 0.0
C427 C 0.05048 0.53115 0.27947 0.0
C428 C 0.96671 0.46546 0.28306 0.0
C429 C 0.93096 0.47038 0.18458 0.0
N430 N 0.02311 0.51269 0.28361 0.0
N431 N 0.95829 0.48876 0.18282 0.0
H432 H 0.47719 0.0556 0.4964 0.0
H433 H 0.51257 0.93867 0.58754 0.0
H434 H 0.54607 0.06996 0.63702 0.0
H435 H 0.43121 0.92113 0.52258 0.0
H436 H 0.52619 0.98709 0.60176 0.0
H437 H 0.46062 0.00642 0.50149 0.0
C438 C 0.48866 0.04848 0.52934 0.0
C439 C 0.51322 0.06714 0.56595 0.0
C440 C 0.5053 0.97257 0.58492 0.0
C441 C 0.49464 0.01072 0.57017 0.0
C442 C 0.49745 0.94486 0.57706 0.0
C443 C 0.4707 0.92569 0.55332 0.0
C444 C 0.48641 0.98125 0.56811 0.0
C445 C 0.45222 0.93518 0.53935 0.0
C446 C 0.47924 0.02034 0.53176 0.0
C447 C 0.52739 0.05651 0.60643 0.0
N448 N 0.46048 0.9623 0.54635 0.0
N449 N 0.51804 0.02904 0.60682 0.0
H450 H 0.41959 0.47822 0.91855 0.0
H451 H 0.57137 0.51199 0.82202 0.0
H452 H 0.48346 0.55859 0.84651 0.0
H453 H 0.51693 0.44373 0.96467 0.0
H454 H 0.53867 0.52845 0.82545 0.0
H455 H 0.45403 0.46401 0.93067 0.0
C456 C 0.44084 0.49299 0.90597 0.0
C457 C 0.44854 0.51965 0.88103 0.0
C458 C 0.53398 0.50997 0.85646 0.0
C459 C 0.48794 0.50326 0.89349 0.0
C460 C 0.55275 0.50062 0.855 0.0
C461 C 0.54697 0.47633 0.89295 0.0
C462 C 0.50902 0.4948 0.89531 0.0
C463 C 0.52211 0.46224 0.93326 0.0
C464 C 0.46047 0.48479 0.91263 0.0
C465 C 0.4764 0.53767 0.86436 0.0
N466 N 0.50395 0.47156 0.93288 0.0
N467 N 0.49502 0.52909 0.8704 0.0
loop_
_geom_bond_atom_site_label_1
_geom_bond_atom_site_label_2
_geom_bond_distance
_geom_bond_site_symmetry_2
_ccdc_geom_bond_type
Co0 N4 2.148 . S
Co0 N10 2.128 . S
Co0 N20 2.194 . S
Co0 O25 2.351 . S
Co0 O26 2.155 . S
Co0 O27 2.096 . S
C1 N4 1.301 . S
C1 N5 1.328 . S
C1 H6 0.930 . S
C2 C3 1.333 . S
C2 N4 1.317 . S
C2 H7 0.930 . S
C3 C2 1.333 . S
C3 N5 1.350 . S
C3 H29 0.931 . S
N4 Co0 2.148 . S
N4 C1 1.301 . S
N4 C2 1.317 . S
N5 C1 1.328 . S
N5 C3 1.350 . S
H6 C1 0.930 . S
H7 C2 0.930 . S
C8 O9 1.224 . S
C8 O27 1.247 . S
O9 C8 1.224 . S
N10 Co0 2.128 . S
N10 C11 1.355 . S
N10 C13 1.311 1_554 S
C11 N10 1.355 . S
C11 C12 1.363 1_554 S
C11 H23 0.929 . S
C12 C11 1.363 1_556 S
C12 N14 1.375 . S
C12 H30 0.931 . S
C13 N10 1.311 1_556 S
C13 N14 1.347 . S
C13 H24 0.929 . S
N14 C12 1.375 . S
N14 C13 1.347 . S
C15 C18 1.365 . S
C15 N20 1.328 . S
C15 H21 0.929 . S
C16 C17 1.362 . S
C16 C19 1.378 . S
C16 H31 0.929 . S
C17 C16 1.362 . S
C17 C18 1.366 . S
C18 C15 1.365 . S
C18 C17 1.366 . S
C18 H32 0.930 . S
C19 C16 1.378 . S
C19 N20 1.315 . S
C19 H22 0.930 . S
N20 Co0 2.194 . S
N20 C15 1.328 . S
N20 C19 1.315 . S
H21 C15 0.929 . S
H22 C19 0.930 . S
H23 C11 0.929 . S
H24 C13 0.929 . S
O25 Co0 2.351 . S
O25 C28 1.244 . S
O26 Co0 2.155 . S
O26 C28 1.240 . S
O27 Co0 2.096 . S
O27 C8 1.247 . S
C28 O25 1.244 . S
C28 O26 1.240 . S
H29 C3 0.931 . S
H30 C12 0.931 . S
H31 C16 0.929 . S
H32 C18 0.930 . S
Co33 N37 2.148 . S
Co33 N43 2.128 . S
Co33 N53 2.194 . S
Co33 O58 2.351 . S
Co33 O59 2.155 . S
Co33 O60 2.096 . S
C34 N37 1.301 . S
C34 N38 1.328 . S
C34 H39 0.930 . S
C35 C36 1.333 . S
C35 N37 1.317 . S
C35 H40 0.930 . S
C36 C35 1.333 . S
C36 N38 1.350 . S
C36 H62 0.931 . S
N37 Co33 2.148 . S
N37 C34 1.301 . S
N37 C35 1.317 . S
N38 C34 1.328 . S
N38 C36 1.350 . S
H39 C34 0.930 . S
H40 C35 0.930 . S
C41 O42 1.224 . S
C41 O60 1.247 . S
O42 C41 1.224 . S
N43 Co33 2.128 . S
N43 C44 1.355 . S
N43 C46 1.311 . S
C44 N43 1.355 . S
C44 C45 1.363 . S
C44 H56 0.929 . S
C45 C44 1.363 . S
C45 N47 1.375 . S
C45 H63 0.931 . S
C46 N43 1.311 . S
C46 N47 1.347 . S
C46 H57 0.929 . S
N47 C45 1.375 . S
N47 C46 1.347 . S
C48 C51 1.365 . S
C48 N53 1.328 . S
C48 H54 0.929 . S
C49 C50 1.362 . S
C49 C52 1.378 . S
C49 H64 0.929 . S
C50 C49 1.362 . S
C50 C51 1.366 . S
C51 C48 1.365 . S
C51 C50 1.366 . S
C51 H65 0.930 . S
C52 C49 1.378 . S
C52 N53 1.315 . S
C52 H55 0.930 . S
N53 Co33 2.194 . S
N53 C48 1.328 . S
N53 C52 1.315 . S
H54 C48 0.929 . S
H55 C52 0.930 . S
H56 C44 0.929 . S
H57 C46 0.929 . S
O58 Co33 2.351 . S
O58 C61 1.244 . S
O59 Co33 2.155 . S
O59 C61 1.240 . S
O60 Co33 2.096 . S
O60 C41 1.247 . S
C61 O58 1.244 . S
C61 O59 1.240 . S
H62 C36 0.931 . S
H63 C45 0.931 . S
H64 C49 0.929 . S
H65 C51 0.930 . S
Co66 N70 2.148 . S
Co66 N76 2.128 . S
Co66 N86 2.194 . S
Co66 O91 2.351 . S
Co66 O92 2.155 . S
Co66 O93 2.096 . S
C67 N70 1.301 1_554 S
C67 N71 1.328 . S
C67 H72 0.930 . S
C68 C69 1.333 1_556 S
C68 N70 1.317 . S
C68 H73 0.930 . S
C69 C68 1.333 1_554 S
C69 N71 1.350 . S
C69 H95 0.931 . S
N70 Co66 2.148 . S
N70 C67 1.301 1_556 S
N70 C68 1.317 . S
N71 C67 1.328 . S
N71 C69 1.350 . S
H72 C67 0.930 . S
H73 C68 0.930 . S
C74 O75 1.224 . S
C74 O93 1.247 . S
O75 C74 1.224 . S
N76 Co66 2.128 . S
N76 C77 1.355 . S
N76 C79 1.311 . S
C77 N76 1.355 . S
C77 C78 1.363 . S
C77 H89 0.929 . S
C78 C77 1.363 . S
C78 N80 1.375 . S
C78 H96 0.931 . S
C79 N76 1.311 . S
C79 N80 1.347 . S
C79 H90 0.929 . S
N80 C78 1.375 . S
N80 C79 1.347 . S
C81 C84 1.365 . S
C81 N86 1.328 . S
C81 H87 0.929 . S
C82 C83 1.362 . S
C82 C85 1.378 . S
C82 H97 0.929 . S
C83 C82 1.362 . S
C83 C84 1.366 . S
C84 C81 1.365 . S
C84 C83 1.366 . S
C84 H98 0.930 . S
C85 C82 1.378 . S
C85 N86 1.315 . S
C85 H88 0.930 . S
N86 Co66 2.194 . S
N86 C81 1.328 . S
N86 C85 1.315 . S
H87 C81 0.929 . S
H88 C85 0.930 . S
H89 C77 0.929 . S
H90 C79 0.929 . S
O91 Co66 2.351 . S
O91 C94 1.244 . S
O92 Co66 2.155 . S
O92 C94 1.240 . S
O93 Co66 2.096 . S
O93 C74 1.247 . S
C94 O91 1.244 . S
C94 O92 1.240 . S
H95 C69 0.931 . S
H96 C78 0.931 . S
H97 C82 0.929 . S
H98 C84 0.930 . S
Co99 N103 2.148 . S
Co99 N109 2.128 . S
Co99 N119 2.194 . S
Co99 O124 2.351 . S
Co99 O125 2.155 . S
Co99 O126 2.096 . S
C100 N103 1.301 . S
C100 N104 1.328 . S
C100 H105 0.930 . S
C101 C102 1.333 . S
C101 N103 1.317 . S
C101 H106 0.930 . S
C102 C101 1.333 . S
C102 N104 1.350 . S
C102 H128 0.931 . S
N103 Co99 2.148 . S
N103 C100 1.301 . S
N103 C101 1.317 . S
N104 C100 1.328 . S
N104 C102 1.350 . S
H105 C100 0.930 . S
H106 C101 0.930 . S
C107 O108 1.224 . S
C107 O126 1.247 . S
O108 C107 1.224 . S
N109 Co99 2.128 . S
N109 C110 1.355 . S
N109 C112 1.311 1_554 S
C110 N109 1.355 . S
C110 C111 1.363 1_554 S
C110 H122 0.929 . S
C111 C110 1.363 1_556 S
C111 N113 1.375 . S
C111 H129 0.931 . S
C112 N109 1.311 1_556 S
C112 N113 1.347 . S
C112 H123 0.929 . S
N113 C111 1.375 . S
N113 C112 1.347 . S
C114 C117 1.365 . S
C114 N119 1.328 . S
C114 H120 0.929 . S
C115 C116 1.362 . S
C115 C118 1.378 . S
C115 H130 0.929 . S
C116 C115 1.362 . S
C116 C117 1.366 . S
C117 C114 1.365 . S
C117 C116 1.366 . S
C117 H131 0.930 . S
C118 C115 1.378 . S
C118 N119 1.315 . S
C118 H121 0.930 . S
N119 Co99 2.194 . S
N119 C114 1.328 . S
N119 C118 1.315 . S
H120 C114 0.929 . S
H121 C118 0.930 . S
H122 C110 0.929 . S
H123 C112 0.929 . S
O124 Co99 2.351 . S
O124 C127 1.244 . S
O125 Co99 2.155 . S
O125 C127 1.240 . S
O126 Co99 2.096 . S
O126 C107 1.247 . S
C127 O124 1.244 . S
C127 O125 1.240 . S
H128 C102 0.931 . S
H129 C111 0.931 . S
H130 C115 0.929 . S
H131 C117 0.930 . S
Co132 N136 2.148 . S
Co132 N142 2.128 . S
Co132 N152 2.194 . S
Co132 O157 2.351 . S
Co132 O158 2.155 . S
Co132 O159 2.096 . S
C133 N136 1.301 . S
C133 N137 1.328 . S
C133 H138 0.930 . S
C134 C135 1.333 . S
C134 N136 1.317 . S
C134 H139 0.930 . S
C135 C134 1.333 . S
C135 N137 1.350 . S
C135 H161 0.931 . S
N136 Co132 2.148 . S
N136 C133 1.301 . S
N136 C134 1.317 . S
N137 C133 1.328 . S
N137 C135 1.350 . S
H138 C133 0.930 . S
H139 C134 0.930 . S
C140 O141 1.224 . S
C140 O159 1.247 . S
O141 C140 1.224 . S
N142 Co132 2.128 . S
N142 C143 1.355 . S
N142 C145 1.311 . S
C143 N142 1.355 . S
C143 C144 1.363 . S
C143 H155 0.929 . S
C144 C143 1.363 . S
C144 N146 1.375 . S
C144 H162 0.931 . S
C145 N142 1.311 . S
C145 N146 1.347 . S
C145 H156 0.929 . S
N146 C144 1.375 . S
N146 C145 1.347 . S
C147 C150 1.365 . S
C147 N152 1.328 . S
C147 H153 0.929 . S
C148 C149 1.362 . S
C148 C151 1.378 . S
C148 H163 0.929 . S
C149 C148 1.362 . S
C149 C150 1.366 . S
C150 C147 1.365 . S
C150 C149 1.366 . S
C150 H164 0.930 . S
C151 C148 1.378 . S
C151 N152 1.315 . S
C151 H154 0.930 . S
N152 Co132 2.194 . S
N152 C147 1.328 . S
N152 C151 1.315 . S
H153 C147 0.929 . S
H154 C151 0.930 . S
H155 C143 0.929 . S
H156 C145 0.929 . S
O157 Co132 2.351 . S
O157 C160 1.244 . S
O158 Co132 2.155 . S
O158 C160 1.240 . S
O159 Co132 2.096 . S
O159 C140 1.247 . S
C160 O157 1.244 . S
C160 O158 1.240 . S
H161 C135 0.931 . S
H162 C144 0.931 . S
H163 C148 0.929 . S
H164 C150 0.930 . S
Co165 N169 2.148 . S
Co165 N175 2.128 . S
Co165 N185 2.194 . S
Co165 O190 2.351 . S
Co165 O191 2.155 . S
Co165 O192 2.096 . S
C166 N169 1.301 1_554 S
C166 N170 1.328 . S
C166 H171 0.930 . S
C167 C168 1.333 1_556 S
C167 N169 1.317 . S
C167 H172 0.930 . S
C168 C167 1.333 1_554 S
C168 N170 1.350 . S
C168 H194 0.931 . S
N169 Co165 2.148 . S
N169 C166 1.301 1_556 S
N169 C167 1.317 . S
N170 C166 1.328 . S
N170 C168 1.350 . S
H171 C166 0.930 . S
H172 C167 0.930 . S
C173 O174 1.224 . S
C173 O192 1.247 . S
O174 C173 1.224 . S
N175 Co165 2.128 . S
N175 C176 1.355 . S
N175 C178 1.311 . S
C176 N175 1.355 . S
C176 C177 1.363 . S
C176 H188 0.929 . S
C177 C176 1.363 . S
C177 N179 1.375 . S
C177 H195 0.931 . S
C178 N175 1.311 . S
C178 N179 1.347 . S
C178 H189 0.929 . S
N179 C177 1.375 . S
N179 C178 1.347 . S
C180 C183 1.365 . S
C180 N185 1.328 . S
C180 H186 0.929 . S
C181 C182 1.362 . S
C181 C184 1.378 . S
C181 H196 0.929 . S
C182 C181 1.362 . S
C182 C183 1.366 . S
C183 C180 1.365 . S
C183 C182 1.366 . S
C183 H197 0.930 . S
C184 C181 1.378 . S
C184 N185 1.315 . S
C184 H187 0.930 . S
N185 Co165 2.194 . S
N185 C180 1.328 . S
N185 C184 1.315 . S
H186 C180 0.929 . S
H187 C184 0.930 . S
H188 C176 0.929 . S
H189 C178 0.929 . S
O190 Co165 2.351 . S
O190 C193 1.244 . S
O191 Co165 2.155 . S
O191 C193 1.240 . S
O192 Co165 2.096 . S
O192 C173 1.247 . S
C193 O190 1.244 . S
C193 O191 1.240 . S
H194 C168 0.931 . S
H195 C177 0.931 . S
H196 C181 0.929 . S
H197 C183 0.930 . S
H198 C204 0.930 . S
H199 C208 0.930 . S
H200 C213 0.929 . S
H201 C211 0.929 . S
H202 C206 0.929 1_554 S
H203 C212 0.929 . S
C204 H198 0.930 . S
C204 C205 1.367 . S
C204 C212 1.378 1_554 S
C205 C204 1.367 . S
C205 C213 1.433 . S
C206 H202 0.929 1_556 S
C206 C208 1.378 . S
C206 C210 1.350 . S
C207 C210 1.463 1_554 S
C207 C212 1.350 1_554 S
C207 N215 1.427 . S
C208 H199 0.930 . S
C208 C206 1.378 . S
C208 C209 1.367 . S
C209 C208 1.367 . S
C209 C211 1.433 . S
C210 C206 1.350 . S
C210 C207 1.463 1_556 S
C210 N214 1.427 . S
C211 H201 0.929 . S
C211 C209 1.433 . S
C211 N214 1.384 . S
C212 H203 0.929 . S
C212 C204 1.378 1_556 S
C212 C207 1.350 1_556 S
C213 H200 0.929 . S
C213 C205 1.433 . S
C213 N215 1.384 . S
N214 C210 1.427 . S
N214 C211 1.384 . S
N215 C207 1.427 . S
N215 C213 1.384 . S
H216 C222 0.930 . S
H217 C226 0.930 . S
H218 C231 0.929 . S
H219 C229 0.929 . S
H220 C224 0.929 . S
H221 C230 0.929 . S
C222 H216 0.930 . S
C222 C223 1.367 . S
C222 C230 1.378 . S
C223 C222 1.367 . S
C223 C231 1.433 . S
C224 H220 0.929 . S
C224 C226 1.378 . S
C224 C228 1.350 . S
C225 C228 1.463 . S
C225 C230 1.350 . S
C225 N233 1.427 . S
C226 H217 0.930 . S
C226 C224 1.378 . S
C226 C227 1.367 . S
C227 C226 1.367 . S
C227 C229 1.433 . S
C228 C224 1.350 . S
C228 C225 1.463 . S
C228 N232 1.427 . S
C229 H219 0.929 . S
C229 C227 1.433 . S
C229 N232 1.384 . S
C230 H221 0.929 . S
C230 C222 1.378 . S
C230 C225 1.350 . S
C231 H218 0.929 . S
C231 C223 1.433 . S
C231 N233 1.384 . S
N232 C228 1.427 . S
N232 C229 1.384 . S
N233 C225 1.427 . S
N233 C231 1.384 . S
H234 C240 0.930 . S
H235 C244 0.930 . S
H236 C249 0.929 . S
H237 C247 0.929 . S
H238 C242 0.929 . S
H239 C248 0.929 . S
C240 H234 0.930 . S
C240 C241 1.367 . S
C240 C248 1.378 . S
C241 C240 1.367 . S
C241 C249 1.433 . S
C242 H238 0.929 . S
C242 C244 1.378 . S
C242 C246 1.350 . S
C243 C246 1.463 . S
C243 C248 1.350 . S
C243 N251 1.427 . S
C244 H235 0.930 . S
C244 C242 1.378 . S
C244 C245 1.367 . S
C245 C244 1.367 . S
C245 C247 1.433 . S
C246 C242 1.350 . S
C246 C243 1.463 . S
C246 N250 1.427 . S
C247 H237 0.929 . S
C247 C245 1.433 . S
C247 N250 1.384 . S
C248 H239 0.929 . S
C248 C240 1.378 . S
C248 C243 1.350 . S
C249 H236 0.929 . S
C249 C241 1.433 . S
C249 N251 1.384 . S
N250 C246 1.427 . S
N250 C247 1.384 . S
N251 C243 1.427 . S
N251 C249 1.384 . S
H252 C258 0.930 . S
H253 C262 0.930 . S
H254 C267 0.929 . S
H255 C265 0.929 . S
H256 C260 0.929 . S
H257 C266 0.929 . S
C258 H252 0.930 . S
C258 C259 1.367 . S
C258 C266 1.378 . S
C259 C258 1.367 . S
C259 C267 1.433 . S
C260 H256 0.929 . S
C260 C262 1.378 . S
C260 C264 1.350 . S
C261 C264 1.463 1_556 S
C261 C266 1.350 . S
C261 N269 1.427 . S
C262 H253 0.930 . S
C262 C260 1.378 . S
C262 C263 1.367 . S
C263 C262 1.367 . S
C263 C265 1.433 . S
C264 C260 1.350 . S
C264 C261 1.463 1_554 S
C264 N268 1.427 . S
C265 H255 0.929 . S
C265 C263 1.433 . S
C265 N268 1.384 . S
C266 H257 0.929 . S
C266 C258 1.378 . S
C266 C261 1.350 . S
C267 H254 0.929 . S
C267 C259 1.433 . S
C267 N269 1.384 . S
N268 C264 1.427 . S
N268 C265 1.384 . S
N269 C261 1.427 . S
N269 C267 1.384 . S
H270 C276 0.930 . S
H271 C280 0.930 . S
H272 C285 0.929 . S
H273 C283 0.929 . S
H274 C278 0.929 . S
H275 C284 0.929 . S
C276 H270 0.930 . S
C276 C277 1.367 . S
C276 C284 1.378 . S
C277 C276 1.367 . S
C277 C285 1.433 . S
C278 H274 0.929 . S
C278 C280 1.378 . S
C278 C282 1.350 . S
C279 C282 1.463 . S
C279 C284 1.350 . S
C279 N287 1.427 . S
C280 H271 0.930 . S
C280 C278 1.378 . S
C280 C281 1.367 . S
C281 C280 1.367 . S
C281 C283 1.433 . S
C282 C278 1.350 . S
C282 C279 1.463 . S
C282 N286 1.427 . S
C283 H273 0.929 . S
C283 C281 1.433 . S
C283 N286 1.384 . S
C284 H275 0.929 . S
C284 C276 1.378 . S
C284 C279 1.350 . S
C285 H272 0.929 . S
C285 C277 1.433 . S
C285 N287 1.384 . S
N286 C282 1.427 . S
N286 C283 1.384 . S
N287 C279 1.427 . S
N287 C285 1.384 . S
H288 C294 0.930 . S
H289 C298 0.930 . S
H290 C303 0.929 . S
H291 C301 0.929 . S
H292 C296 0.929 . S
H293 C302 0.929 . S
C294 H288 0.930 . S
C294 C295 1.367 . S
C294 C302 1.378 . S
C295 C294 1.367 . S
C295 C303 1.433 . S
C296 H292 0.929 . S
C296 C298 1.378 . S
C296 C300 1.350 . S
C297 C300 1.463 . S
C297 C302 1.350 . S
C297 N305 1.427 . S
C298 H289 0.930 . S
C298 C296 1.378 . S
C298 C299 1.367 . S
C299 C298 1.367 . S
C299 C301 1.433 . S
C300 C296 1.350 . S
C300 C297 1.463 . S
C300 N304 1.427 . S
C301 H291 0.929 . S
C301 C299 1.433 . S
C301 N304 1.384 . S
C302 H293 0.929 . S
C302 C294 1.378 . S
C302 C297 1.350 . S
C303 H290 0.929 . S
C303 C295 1.433 . S
C303 N305 1.384 . S
N304 C300 1.427 . S
N304 C301 1.384 . S
N305 C297 1.427 . S
N305 C303 1.384 . S
H306 C312 0.930 . S
H307 C316 0.930 . S
H308 C321 0.929 . S
H309 C319 0.929 . S
H310 C314 0.929 . S
H311 C320 0.929 . S
C312 H306 0.930 . S
C312 C313 1.367 . S
C312 C320 1.378 . S
C313 C312 1.367 . S
C313 C321 1.433 . S
C314 H310 0.929 . S
C314 C316 1.378 . S
C314 C318 1.350 . S
C315 C318 1.463 . S
C315 C320 1.350 . S
C315 N323 1.427 . S
C316 H307 0.930 . S
C316 C314 1.378 . S
C316 C317 1.367 . S
C317 C316 1.367 . S
C317 C319 1.433 . S
C318 C314 1.350 . S
C318 C315 1.463 . S
C318 N322 1.427 . S
C319 H309 0.929 . S
C319 C317 1.433 . S
C319 N322 1.384 . S
C320 H311 0.929 . S
C320 C312 1.378 . S
C320 C315 1.350 . S
C321 H308 0.929 . S
C321 C313 1.433 . S
C321 N323 1.384 . S
N322 C318 1.427 . S
N322 C319 1.384 . S
N323 C315 1.427 . S
N323 C321 1.384 . S
H324 C330 0.930 . S
H325 C334 0.930 . S
H326 C339 0.929 . S
H327 C337 0.929 . S
H328 C332 0.929 . S
H329 C338 0.929 . S
C330 H324 0.930 . S
C330 C331 1.367 . S
C330 C338 1.378 . S
C331 C330 1.367 . S
C331 C339 1.433 . S
C332 H328 0.929 . S
C332 C334 1.378 . S
C332 C336 1.350 . S
C333 C336 1.463 1_556 S
C333 C338 1.350 . S
C333 N341 1.427 . S
C334 H325 0.930 . S
C334 C332 1.378 . S
C334 C335 1.367 . S
C335 C334 1.367 . S
C335 C337 1.433 . S
C336 C332 1.350 . S
C336 C333 1.463 1_554 S
C336 N340 1.427 . S
C337 H327 0.929 . S
C337 C335 1.433 . S
C337 N340 1.384 . S
C338 H329 0.929 . S
C338 C330 1.378 . S
C338 C333 1.350 . S
C339 H326 0.929 . S
C339 C331 1.433 . S
C339 N341 1.384 . S
N340 C336 1.427 . S
N340 C337 1.384 . S
N341 C333 1.427 . S
N341 C339 1.384 . S
H342 C348 0.930 . S
H343 C352 0.930 . S
H344 C357 0.929 . S
H345 C355 0.929 . S
H346 C350 0.929 . S
H347 C356 0.929 . S
C348 H342 0.930 . S
C348 C349 1.367 . S
C348 C356 1.378 . S
C349 C348 1.367 . S
C349 C357 1.433 . S
C350 H346 0.929 . S
C350 C352 1.378 . S
C350 C354 1.350 . S
C351 C354 1.463 . S
C351 C356 1.350 . S
C351 N359 1.427 . S
C352 H343 0.930 . S
C352 C350 1.378 . S
C352 C353 1.367 . S
C353 C352 1.367 . S
C353 C355 1.433 . S
C354 C350 1.350 . S
C354 C351 1.463 . S
C354 N358 1.427 . S
C355 H345 0.929 . S
C355 C353 1.433 . S
C355 N358 1.384 . S
C356 H347 0.929 . S
C356 C348 1.378 . S
C356 C351 1.350 . S
C357 H344 0.929 . S
C357 C349 1.433 . S
C357 N359 1.384 . S
N358 C354 1.427 . S
N358 C355 1.384 . S
N359 C351 1.427 . S
N359 C357 1.384 . S
H360 C366 0.930 . S
H361 C370 0.930 . S
H362 C375 0.929 . S
H363 C373 0.929 . S
H364 C368 0.929 . S
H365 C374 0.929 . S
C366 H360 0.930 . S
C366 C367 1.367 . S
C366 C374 1.378 . S
C367 C366 1.367 . S
C367 C375 1.433 . S
C368 H364 0.929 . S
C368 C370 1.378 . S
C368 C372 1.350 . S
C369 C372 1.463 . S
C369 C374 1.350 . S
C369 N377 1.427 . S
C370 H361 0.930 . S
C370 C368 1.378 . S
C370 C371 1.367 . S
C371 C370 1.367 . S
C371 C373 1.433 . S
C372 C368 1.350 . S
C372 C369 1.463 . S
C372 N376 1.427 . S
C373 H363 0.929 . S
C373 C371 1.433 . S
C373 N376 1.384 . S
C374 H365 0.929 . S
C374 C366 1.378 . S
C374 C369 1.350 . S
C375 H362 0.929 . S
C375 C367 1.433 . S
C375 N377 1.384 . S
N376 C372 1.427 . S
N376 C373 1.384 . S
N377 C369 1.427 . S
N377 C375 1.384 . S
H378 C384 0.930 . S
H379 C388 0.930 . S
H380 C393 0.929 . S
H381 C391 0.929 . S
H382 C386 0.929 . S
H383 C392 0.929 . S
C384 H378 0.930 . S
C384 C385 1.367 . S
C384 C392 1.378 . S
C385 C384 1.367 . S
C385 C393 1.433 . S
C386 H382 0.929 . S
C386 C388 1.378 . S
C386 C390 1.350 . S
C387 C390 1.463 1_554 S
C387 C392 1.350 . S
C387 N395 1.427 . S
C388 H379 0.930 . S
C388 C386 1.378 . S
C388 C389 1.367 . S
C389 C388 1.367 . S
C389 C391 1.433 . S
C390 C386 1.350 . S
C390 C387 1.463 1_556 S
C390 N394 1.427 . S
C391 H381 0.929 . S
C391 C389 1.433 . S
C391 N394 1.384 . S
C392 H383 0.929 . S
C392 C384 1.378 . S
C392 C387 1.350 . S
C393 H380 0.929 . S
C393 C385 1.433 . S
C393 N395 1.384 . S
N394 C390 1.427 . S
N394 C391 1.384 . S
N395 C387 1.427 . S
N395 C393 1.384 . S
H396 C402 0.930 . S
H397 C406 0.930 . S
H398 C411 0.929 . S
H399 C409 0.929 . S
H400 C404 0.929 . S
H401 C410 0.929 . S
C402 H396 0.930 . S
C402 C403 1.367 . S
C402 C410 1.378 . S
C403 C402 1.367 . S
C403 C411 1.433 . S
C404 H400 0.929 . S
C404 C406 1.378 . S
C404 C408 1.350 . S
C405 C408 1.463 . S
C405 C410 1.350 . S
C405 N413 1.427 . S
C406 H397 0.930 . S
C406 C404 1.378 . S
C406 C407 1.367 . S
C407 C406 1.367 . S
C407 C409 1.433 . S
C408 C404 1.350 . S
C408 C405 1.463 . S
C408 N412 1.427 . S
C409 H399 0.929 . S
C409 C407 1.433 . S
C409 N412 1.384 . S
C410 H401 0.929 . S
C410 C402 1.378 . S
C410 C405 1.350 . S
C411 H398 0.929 . S
C411 C403 1.433 . S
C411 N413 1.384 . S
N412 C408 1.427 . S
N412 C409 1.384 . S
N413 C405 1.427 . S
N413 C411 1.384 . S
H414 C420 0.930 . S
H415 C424 0.930 . S
H416 C429 0.929 . S
H417 C427 0.929 . S
H418 C422 0.929 . S
H419 C428 0.929 . S
C420 H414 0.930 . S
C420 C421 1.367 . S
C420 C428 1.378 . S
C421 C420 1.367 . S
C421 C429 1.433 . S
C422 H418 0.929 . S
C422 C424 1.378 . S
C422 C426 1.350 . S
C423 C426 1.463 1_655 S
C423 C428 1.350 . S
C423 N431 1.427 . S
C424 H415 0.930 . S
C424 C422 1.378 . S
C424 C425 1.367 . S
C425 C424 1.367 . S
C425 C427 1.433 . S
C426 C422 1.350 . S
C426 C423 1.463 1_455 S
C426 N430 1.427 . S
C427 H417 0.929 . S
C427 C425 1.433 . S
C427 N430 1.384 . S
C428 H419 0.929 . S
C428 C420 1.378 . S
C428 C423 1.350 . S
C429 H416 0.929 . S
C429 C421 1.433 . S
C429 N431 1.384 . S
N430 C426 1.427 . S
N430 C427 1.384 . S
N431 C423 1.427 . S
N431 C429 1.384 . S
H432 C438 0.930 . S
H433 C442 0.930 . S
H434 C447 0.929 . S
H435 C445 0.929 . S
H436 C440 0.929 . S
H437 C446 0.929 . S
C438 H432 0.930 . S
C438 C439 1.367 . S
C438 C446 1.378 . S
C439 C438 1.367 . S
C439 C447 1.433 . S
C440 H436 0.929 . S
C440 C442 1.378 . S
C440 C444 1.350 . S
C441 C444 1.463 1_545 S
C441 C446 1.350 . S
C441 N449 1.427 . S
C442 H433 0.930 . S
C442 C440 1.378 . S
C442 C443 1.367 . S
C443 C442 1.367 . S
C443 C445 1.433 . S
C444 C440 1.350 . S
C444 C441 1.463 1_565 S
C444 N448 1.427 . S
C445 H435 0.929 . S
C445 C443 1.433 . S
C445 N448 1.384 . S
C446 H437 0.929 . S
C446 C438 1.378 . S
C446 C441 1.350 . S
C447 H434 0.929 . S
C447 C439 1.433 . S
C447 N449 1.384 . S
N448 C444 1.427 . S
N448 C445 1.384 . S
N449 C441 1.427 . S
N449 C447 1.384 . S
H450 C456 0.930 . S
H451 C460 0.930 . S
H452 C465 0.929 . S
H453 C463 0.929 . S
H454 C458 0.929 . S
H455 C464 0.929 . S
C456 H450 0.930 . S
C456 C457 1.367 . S
C456 C464 1.378 . S
C457 C456 1.367 . S
C457 C465 1.433 . S
C458 H454 0.929 . S
C458 C460 1.378 . S
C458 C462 1.350 . S
C459 C462 1.463 . S
C459 C464 1.350 . S
C459 N467 1.427 . S
C460 H451 0.930 . S
C460 C458 1.378 . S
C460 C461 1.367 . S
C461 C460 1.367 . S
C461 C463 1.433 . S
C462 C458 1.350 . S
C462 C459 1.463 . S
C462 N466 1.427 . S
C463 H453 0.929 . S
C463 C461 1.433 . S
C463 N466 1.384 . S
C464 H455 0.929 . S
C464 C456 1.378 . S
C464 C459 1.350 . S
C465 H452 0.929 . S
C465 C457 1.433 . S
C465 N467 1.384 . S
N466 C462 1.427 . S
N466 C463 1.384 . S
N467 C459 1.427 . S
N467 C465 1.384 . S
C205 C8 0.806 . S
C209 C94 0.786 . S
C223 C41 0.806 . S
C227 C127 0.795 . S
C241 C160 0.797 . S
C245 C74 0.797 . S
C259 C193 0.811 . S
C263 C107 0.792 . S
C277 C140 0.799 . S
C281 C28 0.794 . S
C295 C61 0.811 . S
C299 C173 0.791 . S
C313 N14 1.507 . S
C317 N5 1.511 . S
C331 N38 1.505 . S
C335 N47 1.500 . S
C349 N80 1.502 . S
C353 N71 1.506 . S
C367 N113 1.507 . S
C371 N104 1.511 . S
C385 N146 1.500 . S
C389 N137 1.505 . S
C403 N170 1.506 . S
C407 N179 1.501 . S
C421 C116 1.196 . S
C425 C17 1.198 . S
C439 C50 1.197 . S
C443 C149 1.195 . S
C457 C83 1.198 . S
C461 C182 1.197 . S
