# Generated by pormake.
# Topology uni, (4)-cn, num edge types: 1
# Building blocks:
#     Node 0, Type 0, BuildingBlock: TATPOV_clean_sbu_0, # of connection points: 4
#     Node 1, Type 0, BuildingBlock: TATPOV_clean_sbu_0, # of connection points: 4
#     Node 2, Type 0, BuildingBlock: TATPOV_clean_sbu_0, # of connection points: 4
#     Node 3, Type 0, BuildingBlock: TATPOV_clean_sbu_0, # of connection points: 4
#     Node 4, Type 0, BuildingBlock: TATPOV_clean_sbu_0, # of connection points: 4
#     Node 5, Type 0, BuildingBlock: TATPOV_clean_sbu_0, # of connection points: 4
#     Edge 6, Type (0, 0), BuildingBlock: MIFKUJ_clean_linker_0, # of connection points: 2
#     Edge 7, Type (0, 0), BuildingBlock: MIFKUJ_clean_linker_0, # of connection points: 2
#     Edge 8, Type (0, 0), BuildingBlock: MIFKUJ_clean_linker_0, # of connection points: 2
#     Edge 9, Type (0, 0), BuildingBlock: MIFKUJ_clean_linker_0, # of connection points: 2
#     Edge 10, Type (0, 0), BuildingBlock: MIFKUJ_clean_linker_0, # of connection points: 2
#     Edge 11, Type (0, 0), BuildingBlock: MIFKUJ_clean_linker_0, # of connection points: 2
#     Edge 12, Type (0, 0), BuildingBlock: MIFKUJ_clean_linker_0, # of connection points: 2
#     Edge 13, Type (0, 0), BuildingBlock: MIFKUJ_clean_linker_0, # of connection points: 2
#     Edge 14, Type (0, 0), BuildingBlock: MIFKUJ_clean_linker_0, # of connection points: 2
#     Edge 15, Type (0, 0), BuildingBlock: MIFKUJ_clean_linker_0, # of connection points: 2
#     Edge 16, Type (0, 0), BuildingBlock: MIFKUJ_clean_linker_0, # of connection points: 2
#     Edge 17, Type (0, 0), BuildingBlock: MIFKUJ_clean_linker_0, # of connection points: 2
# Relax obj value: 0.034
# Max RMSD: 0.067
# Mean RMSD: 0.067
data_MOF--net-uni--node1-TATPOV_clean_sbu_0--edge1-MIFKUJ_clean_linker_0
_symmetry_space_group_name_H-M    P1
_symmetry_Int_Tables_number       1
_symmetry_cell_setting            triclinic
loop_
_symmetry_equiv_pos_as_xyz
'x, y, z'
_cell_length_a     50.263961
_cell_length_b     50.252281
_cell_length_c     29.781647
_cell_angle_alpha  90.030876
_cell_angle_beta   89.989797
_cell_angle_gamma 119.98819
loop_
_atom_site_label
_atom_site_type_symbol
_atom_site_fract_x
_atom_site_fract_y
_atom_site_fract_z
_atom_type_partial_charge
Zn0 Zn 0.56751 0.91868 0.06564 0.0
Zn1 Zn 0.62427 0.96882 0.06009 0.0
O2 O 0.63402 0.93389 0.07194 0.0
O3 O 0.58775 0.89323 0.07672 0.0
O4 O 0.66508 0.00791 0.05211 0.0
O5 O 0.55715 0.9261 0.00288 0.0
O6 O 0.60291 0.96745 0.00058 0.0
C7 C 0.61668 0.90506 0.0781 0.0
C8 C 0.57862 0.96516 0.13188 0.0
O9 O 0.60505 0.97913 0.11348 0.0
O10 O 0.55852 0.93888 0.1178 0.0
C11 C 0.69059 0.01031 0.04077 0.0
O12 O 0.69241 0.98535 0.03498 0.0
C13 C 0.57691 0.94994 0.98245 0.0
Zn14 Zn 0.6714 0.56163 0.22307 0.0
Zn15 Zn 0.67898 0.61857 0.22633 0.0
O16 O 0.72301 0.62714 0.23954 0.0
O17 O 0.71613 0.58028 0.24057 0.0
O18 O 0.68159 0.65994 0.22332 0.0
O19 O 0.65818 0.55649 0.15818 0.0
O20 O 0.66107 0.60148 0.16383 0.0
C21 C 0.73364 0.60901 0.24503 0.0
C22 C 0.63296 0.56827 0.28898 0.0
O23 O 0.64779 0.59639 0.27713 0.0
O24 O 0.63825 0.54872 0.27035 0.0
C25 C 0.70264 0.68299 0.20259 0.0
O26 O 0.72557 0.68106 0.18493 0.0
C27 C 0.65423 0.57735 0.14122 0.0
Zn28 Zn 0.13425 0.65963 0.39075 0.0
Zn29 Zn 0.08314 0.66441 0.38723 0.0
O30 O 0.117 0.70907 0.40212 0.0
O31 O 0.15873 0.70516 0.40326 0.0
O32 O 0.04356 0.66532 0.38049 0.0
O33 O 0.12751 0.64325 0.32734 0.0
O34 O 0.08536 0.6463 0.32612 0.0
C35 C 0.146 0.72135 0.40724 0.0
C36 C 0.08825 0.62188 0.45627 0.0
O37 O 0.07348 0.6338 0.43882 0.0
O38 O 0.11483 0.6293 0.44199 0.0
C39 C 0.04113 0.68737 0.36402 0.0
O40 O 0.06606 0.71276 0.35212 0.0
C41 C 0.10353 0.63898 0.30712 0.0
Zn42 Zn 0.48816 0.12307 0.56542 0.0
Zn43 Zn 0.43251 0.07139 0.55957 0.0
O44 O 0.42088 0.10493 0.5721 0.0
O45 O 0.46617 0.14714 0.57379 0.0
O46 O 0.39269 0.03143 0.54995 0.0
O47 O 0.50006 0.11605 0.50358 0.0
O48 O 0.45476 0.07416 0.50017 0.0
C49 C 0.43716 0.13404 0.57641 0.0
C50 C 0.47816 0.0772 0.63254 0.0
O51 O 0.45216 0.06197 0.6132 0.0
O52 O 0.49736 0.10397 0.61896 0.0
C53 C 0.36525 0.02642 0.55049 0.0
O54 O 0.36011 0.04902 0.55976 0.0
C55 C 0.48084 0.09219 0.48262 0.0
Zn56 Zn 0.3897 0.48212 0.72434 0.0
Zn57 Zn 0.38605 0.42639 0.72834 0.0
O58 O 0.34142 0.41613 0.74228 0.0
O59 O 0.34446 0.46135 0.73849 0.0
O60 O 0.38494 0.38576 0.72083 0.0
O61 O 0.40478 0.48943 0.65999 0.0
O62 O 0.40574 0.4464 0.66817 0.0
C63 C 0.32877 0.43266 0.74527 0.0
C64 C 0.42829 0.47612 0.79326 0.0
O65 O 0.41609 0.44839 0.7797 0.0
O66 O 0.42099 0.49444 0.77517 0.0
C67 C 0.36222 0.35867 0.72495 0.0
O68 O 0.33561 0.35472 0.73847 0.0
C69 C 0.41146 0.46994 0.64498 0.0
Zn70 Zn 0.93004 0.37787 0.89224 0.0
Zn71 Zn 0.97962 0.37056 0.88647 0.0
O72 O 0.9444 0.32675 0.90196 0.0
O73 O 0.9038 0.33251 0.90499 0.0
O74 O 0.01666 0.36569 0.8754 0.0
O75 O 0.93653 0.39471 0.82899 0.0
O76 O 0.97728 0.3893 0.8263 0.0
C77 C 0.91561 0.31545 0.90816 0.0
C78 C 0.97833 0.41441 0.95649 0.0
O79 O 0.99222 0.40183 0.93812 0.0
O80 O 0.95168 0.40765 0.94335 0.0
C81 C 0.03414 0.36459 0.90527 0.0
O82 O 0.02796 0.36578 0.94785 0.0
C83 C 0.95986 0.39785 0.80806 0.0
H84 H 0.52403 0.94206 0.17649 0.0
H85 H 0.50924 0.96783 0.23219 0.0
H86 H 0.59944 0.04812 0.22456 0.0
H87 H 0.61464 0.02236 0.16879 0.0
H88 H 0.57915 0.03358 0.31118 0.0
H89 H 0.54066 0.0484 0.17254 0.0
H90 H 0.51267 0.03274 0.10061 0.0
H91 H 0.42842 0.9751 0.17083 0.0
H92 H 0.45599 0.99005 0.24318 0.0
H93 H 0.53506 0.12452 0.43686 0.0
H94 H 0.55273 0.107 0.37294 0.0
H95 H 0.46559 0.02266 0.36884 0.0
H96 H 0.44753 0.04013 0.4324 0.0
H97 H 0.48705 0.04364 0.28481 0.0
H98 H 0.52635 0.02547 0.42231 0.0
H99 H 0.55429 0.0403 0.49434 0.0
H100 H 0.63714 0.10402 0.42575 0.0
H101 H 0.60955 0.08985 0.35334 0.0
C102 C 0.54086 0.96515 0.18672 0.0
C103 C 0.57051 0.9802 0.16795 0.0
C104 C 0.53227 0.97991 0.21843 0.0
C105 C 0.55306 0.01007 0.23193 0.0
C106 C 0.58299 0.02489 0.21437 0.0
C107 C 0.59162 0.01013 0.18252 0.0
C108 C 0.54336 0.02596 0.26441 0.0
C109 C 0.55936 0.0363 0.30508 0.0
C110 C 0.5172 0.02901 0.25672 0.0
C111 C 0.50045 0.02017 0.21329 0.0
C112 C 0.5162 0.03222 0.17264 0.0
C113 C 0.5004 0.02349 0.13179 0.0
C114 C 0.46879 0.00289 0.13115 0.0
C115 C 0.45291 0.99104 0.17138 0.0
C116 C 0.4686 0.99966 0.21233 0.0
C117 C 0.51944 0.10243 0.42198 0.0
C118 C 0.48996 0.08359 0.44009 0.0
C119 C 0.52965 0.09241 0.38554 0.0
C120 C 0.51068 0.06329 0.36669 0.0
C121 C 0.48066 0.04517 0.38302 0.0
C122 C 0.47039 0.05519 0.41942 0.0
C123 C 0.52264 0.05092 0.33176 0.0
C124 C 0.50704 0.04122 0.29067 0.0
C125 C 0.54917 0.04844 0.33904 0.0
C126 C 0.56582 0.05685 0.3825 0.0
C127 C 0.55047 0.04281 0.42264 0.0
C128 C 0.56625 0.05107 0.46352 0.0
C129 C 0.59745 0.07316 0.46464 0.0
C130 C 0.61296 0.08696 0.42485 0.0
C131 C 0.59727 0.07881 0.38388 0.0
H132 H 0.60963 0.07952 0.49632 0.0
H133 H 0.4566 0.99616 0.09949 0.0
H134 H 0.58066 0.51292 0.29228 0.0
H135 H 0.53885 0.49525 0.34646 0.0
H136 H 0.58848 0.5814 0.41773 0.0
H137 H 0.62941 0.5999 0.36143 0.0
H138 H 0.53359 0.48205 0.42635 0.0
H139 H 0.54272 0.5985 0.4766 0.0
H140 H 0.5558 0.64802 0.44147 0.0
H141 H 0.53192 0.60482 0.31188 0.0
H142 H 0.51832 0.55497 0.34628 0.0
H143 H 0.4607 0.46289 0.63272 0.0
H144 H 0.49518 0.4788 0.56849 0.0
H145 H 0.43775 0.50691 0.49915 0.0
H146 H 0.40471 0.49354 0.56575 0.0
H147 H 0.49106 0.54614 0.48212 0.0
H148 H 0.44183 0.43711 0.47386 0.0
H149 H 0.42278 0.38456 0.50236 0.0
H150 H 0.51514 0.40633 0.5316 0.0
H151 H 0.53473 0.45913 0.50392 0.0
C152 C 0.58254 0.52814 0.31941 0.0
C153 C 0.60822 0.55778 0.32271 0.0
C154 C 0.55863 0.51801 0.35046 0.0
C155 C 0.56015 0.53702 0.38613 0.0
C156 C 0.58618 0.56652 0.38991 0.0
C157 C 0.60973 0.57702 0.35798 0.0
C158 C 0.53497 0.52546 0.42001 0.0
C159 C 0.52416 0.49603 0.43823 0.0
C160 C 0.52192 0.54321 0.43495 0.0
C161 C 0.52978 0.57306 0.41401 0.0
C162 C 0.54014 0.59955 0.44064 0.0
C163 C 0.54767 0.62768 0.42084 0.0
C164 C 0.54478 0.62958 0.37446 0.0
C165 C 0.53426 0.60333 0.34778 0.0
C166 C 0.52667 0.57515 0.36741 0.0
C167 C 0.45527 0.47215 0.60352 0.0
C168 C 0.4299 0.47667 0.60379 0.0
C169 C 0.4749 0.48107 0.56658 0.0
C170 C 0.46876 0.4933 0.5281 0.0
C171 C 0.44305 0.49745 0.52821 0.0
C172 C 0.42404 0.48963 0.56605 0.0
C173 C 0.48993 0.50286 0.48878 0.0
C174 C 0.50011 0.53196 0.46971 0.0
C175 C 0.50138 0.48421 0.47154 0.0
C176 C 0.48972 0.45217 0.48706 0.0
C177 C 0.45807 0.43071 0.48649 0.0
C178 C 0.44717 0.40088 0.50252 0.0
C179 C 0.46774 0.39215 0.5189 0.0
C180 C 0.49925 0.41315 0.51895 0.0
C181 C 0.51026 0.44301 0.50303 0.0
H182 H 0.4593 0.36914 0.53161 0.0
H183 H 0.55065 0.65138 0.3592 0.0
H184 H 0.01053 0.41221 0.75694 0.0
H185 H 0.02986 0.44736 0.69313 0.0
H186 H 0.94996 0.45804 0.69838 0.0
H187 H 0.93022 0.42264 0.762 0.0
H188 H 0.96804 0.45651 0.61127 0.0
H189 H 0.01399 0.50969 0.74918 0.0
H190 H 0.04195 0.51828 0.82061 0.0
H191 H 0.12028 0.52716 0.74942 0.0
H192 H 0.09259 0.51817 0.67757 0.0
H193 H 0.03128 0.59916 0.49453 0.0
H194 H 0.00742 0.55874 0.55129 0.0
H195 H 0.08873 0.55037 0.55459 0.0
H196 H 0.11291 0.59098 0.49861 0.0
H197 H 0.06896 0.5503 0.63716 0.0
H198 H 0.02359 0.49785 0.49899 0.0
H199 H 0.99567 0.48887 0.42744 0.0
H200 H 0.91662 0.47848 0.49829 0.0
H201 H 0.94424 0.48783 0.57025 0.0
C202 C 0.99675 0.42156 0.74408 0.0
C203 C 0.96899 0.41488 0.76499 0.0
C204 C 0.00791 0.44175 0.70769 0.0
C205 C 0.99162 0.45575 0.69163 0.0
C206 C 0.96295 0.44759 0.71043 0.0
C207 C 0.95175 0.42738 0.74686 0.0
C208 C 0.00552 0.48053 0.65758 0.0
C209 C 0.98995 0.47718 0.61703 0.0
C210 C 0.03431 0.50727 0.66494 0.0
C211 C 0.05111 0.51296 0.70806 0.0
C212 C 0.03709 0.51325 0.74879 0.0
C213 C 0.0529 0.51822 0.78935 0.0
C214 C 0.08284 0.52318 0.78957 0.0
C215 C 0.09707 0.52327 0.7492 0.0
C216 C 0.08134 0.51826 0.70855 0.0
C217 C 0.04413 0.58881 0.50746 0.0
C218 C 0.074 0.5983 0.49193 0.0
C219 C 0.03038 0.56557 0.5397 0.0
C220 C 0.04614 0.55124 0.55675 0.0
C221 C 0.07612 0.56105 0.54185 0.0
C222 C 0.08989 0.58428 0.50977 0.0
C223 C 0.03166 0.52625 0.59049 0.0
C224 C 0.04709 0.52962 0.63119 0.0
C225 C 0.00278 0.49956 0.58316 0.0
C226 C 0.9861 0.49386 0.53996 0.0
C227 C 1.00034 0.4939 0.49928 0.0
C228 C 0.98456 0.4887 0.45866 0.0
C229 C 0.95442 0.48319 0.45831 0.0
C230 C 0.93998 0.4828 0.49861 0.0
C231 C 0.95568 0.48802 0.53932 0.0
H232 H 0.94223 0.47917 0.42682 0.0
H233 H 0.09505 0.52702 0.821 0.0
H234 H 0.61093 0.00304 0.93495 0.0
H235 H 0.5936 0.02223 0.87274 0.0
H236 H 0.50618 0.93819 0.8726 0.0
H237 H 0.52332 0.91865 0.93476 0.0
H238 H 0.52702 0.96 0.78641 0.0
H239 H 0.51151 0.99778 0.92637 0.0
H240 H 0.52686 0.02322 0.00026 0.0
H241 H 0.59424 0.10678 0.93703 0.0
H242 H 0.57956 0.0817 0.86278 0.0
H243 H 0.44455 0.01919 0.66787 0.0
H244 H 0.46064 0.99552 0.72564 0.0
H245 H 0.54765 0.07949 0.73746 0.0
H246 H 0.53168 0.10343 0.68044 0.0
H247 H 0.52527 0.05607 0.81835 0.0
H248 H 0.54097 0.01811 0.67818 0.0
H249 H 0.52561 0.99253 0.6044 0.0
H250 H 0.45777 0.90928 0.66779 0.0
H251 H 0.47246 0.93451 0.74194 0.0
C252 C 0.58821 0.98836 0.92124 0.0
C253 C 0.56839 0.95942 0.94021 0.0
C254 C 0.5783 0.99944 0.88578 0.0
C255 C 0.54842 0.98184 0.86865 0.0
C256 C 0.52927 0.95218 0.88552 0.0
C257 C 0.53912 0.94109 0.9211 0.0
C258 C 0.53651 0.99521 0.83533 0.0
C259 C 0.52628 0.9808 0.7935 0.0
C260 C 0.53591 0.02255 0.8445 0.0
C261 C 0.54463 0.03777 0.88907 0.0
C262 C 0.52975 0.02151 0.92826 0.0
C263 C 0.53831 0.03588 0.9702 0.0
C264 C 0.56157 0.06657 0.97335 0.0
C265 C 0.57626 0.08299 0.93454 0.0
C266 C 0.56781 0.06872 0.89252 0.0
C267 C 0.46703 0.03269 0.68297 0.0
C268 C 0.48685 0.06319 0.66937 0.0
C269 C 0.47626 0.01906 0.7158 0.0
C270 C 0.50552 0.03561 0.73542 0.0
C271 C 0.52501 0.06626 0.72271 0.0
C272 C 0.51582 0.07989 0.69001 0.0
C273 C 0.51608 0.02111 0.76906 0.0
C274 C 0.52598 0.03527 0.81113 0.0
C275 C 0.51634 0.99356 0.76005 0.0
C276 C 0.5076 0.9783 0.71555 0.0
C277 C 0.52262 0.99442 0.67635 0.0
C278 C 0.51406 0.97997 0.63447 0.0
C279 C 0.49067 0.94933 0.6314 0.0
C280 C 0.47585 0.93303 0.67022 0.0
C281 C 0.4843 0.94739 0.71218 0.0
H282 H 0.48408 0.93818 0.59895 0.0
H283 H 0.56816 0.07765 0.00584 0.0
H284 H 0.63317 0.52689 0.08702 0.0
H285 H 0.59888 0.51389 0.02279 0.0
H286 H 0.60374 0.60189 0.03242 0.0
H287 H 0.63771 0.61492 0.09747 0.0
H288 H 0.54588 0.55689 0.02944 0.0
H289 H 0.63572 0.58409 0.94307 0.0
H290 H 0.68296 0.58404 0.92096 0.0
H291 H 0.63061 0.4872 0.89427 0.0
H292 H 0.58308 0.48656 0.91682 0.0
H293 H 0.4574 0.53317 0.8317 0.0
H294 H 0.49879 0.55315 0.88693 0.0
H295 H 0.4952 0.46561 0.89009 0.0
H296 H 0.45387 0.44541 0.83438 0.0
H297 H 0.55417 0.51362 0.8838 0.0
H298 H 0.46502 0.48642 0.97475 0.0
H299 H 0.41792 0.48674 0.99699 0.0
H300 H 0.46979 0.58458 0.01486 0.0
H301 H 0.51715 0.5849 0.9921 0.0
C302 C 0.62748 0.54378 0.07502 0.0
C303 C 0.63804 0.57187 0.09766 0.0
C304 C 0.60792 0.53633 0.03808 0.0
C305 C 0.59877 0.55693 0.02265 0.0
C306 C 0.61045 0.58561 0.04382 0.0
C307 C 0.62998 0.59307 0.0809 0.0
C308 C 0.57493 0.54731 0.98722 0.0
C309 C 0.54799 0.54802 0.99722 0.0
C310 C 0.5773 0.53496 0.94566 0.0
C311 C 0.60585 0.53524 0.932 0.0
C312 C 0.6343 0.56273 0.93283 0.0
C313 C 0.66113 0.56283 0.92015 0.0
C314 C 0.6598 0.53562 0.90631 0.0
C315 C 0.63161 0.50825 0.90503 0.0
C316 C 0.60471 0.50802 0.9177 0.0
C317 C 0.46524 0.51804 0.84426 0.0
C318 C 0.45222 0.48762 0.82866 0.0
C319 C 0.4889 0.52953 0.87591 0.0
C320 C 0.49995 0.51082 0.8928 0.0
C321 C 0.48701 0.48044 0.87742 0.0
C322 C 0.46327 0.46888 0.84578 0.0
C323 C 0.52518 0.52306 0.92626 0.0
C324 C 0.55228 0.52277 0.91589 0.0
C325 C 0.52302 0.53587 0.96747 0.0
C326 C 0.49457 0.53572 0.98124 0.0
C327 C 0.46634 0.50804 0.98304 0.0
C328 C 0.4396 0.50809 0.99582 0.0
C329 C 0.44085 0.53567 0.0072 0.0
C330 C 0.46885 0.56324 0.00595 0.0
C331 C 0.49565 0.56331 0.99315 0.0
H332 H 0.42012 0.53567 0.01709 0.0
H333 H 0.6806 0.53575 0.8965 0.0
H334 H 0.03808 0.44124 0.98582 0.0
H335 H 0.06347 0.48277 0.04083 0.0
H336 H 0.97846 0.48261 0.06181 0.0
H337 H 0.95315 0.4417 0.00657 0.0
H338 H 0.02479 0.53981 0.05266 0.0
H339 H 0.00565 0.45023 0.13803 0.0
H340 H 0.00873 0.40366 0.15374 0.0
H341 H 0.10723 0.45737 0.15536 0.0
H342 H 0.10472 0.50423 0.13908 0.0
H343 H 0.04918 0.61642 0.26156 0.0
H344 H 0.03237 0.58212 0.19675 0.0
H345 H 0.12134 0.58898 0.18967 0.0
H346 H 0.13813 0.62278 0.25519 0.0
H347 H 0.0778 0.53103 0.18746 0.0
H348 H 0.09666 0.62163 0.10867 0.0
H349 H 0.09318 0.66806 0.09375 0.0
H350 H 0.99527 0.61278 0.08003 0.0
H351 H 0.9981 0.56604 0.09547 0.0
C352 C 0.02476 0.44991 0.00239 0.0
C353 C 0.99357 0.43811 0.99179 0.0
C354 C 0.0393 0.47364 0.03384 0.0
C355 C 0.02283 0.48574 0.05558 0.0
C356 C 0.99167 0.47377 0.04531 0.0
C357 C 0.9772 0.45023 0.01383 0.0
C358 C 0.03786 0.51101 0.08887 0.0
C359 C 0.03618 0.53781 0.08235 0.0
C360 C 0.05348 0.50878 0.12692 0.0
C361 C 0.055 0.48066 0.13684 0.0
C362 C 0.02797 0.45206 0.14139 0.0
C363 C 0.02961 0.42563 0.15046 0.0
C364 C 0.05816 0.42754 0.15541 0.0
C365 C 0.08513 0.45592 0.15143 0.0
C366 C 0.08361 0.48242 0.14232 0.0
C367 C 0.0654 0.61113 0.24575 0.0
C368 C 0.09497 0.62226 0.26374 0.0
C369 C 0.05576 0.59154 0.20854 0.0
C370 C 0.07563 0.58304 0.18815 0.0
C371 C 0.10558 0.59514 0.20491 0.0
C372 C 0.11517 0.61457 0.24229 0.0
C373 C 0.06439 0.55974 0.15165 0.0
C374 C 0.06676 0.53327 0.15755 0.0
C375 C 0.04936 0.56227 0.11306 0.0
C376 C 0.04758 0.59034 0.10357 0.0
C377 C 0.07436 0.61939 0.10279 0.0
C378 C 0.0725 0.64576 0.09418 0.0
C379 C 0.04401 0.64338 0.08603 0.0
C380 C 0.01732 0.6146 0.08637 0.0
C381 C 0.01904 0.58815 0.09499 0.0
H382 H 0.04263 0.66382 0.07939 0.0
H383 H 0.05938 0.40705 0.16243 0.0
H384 H 0.6521 0.68863 0.21762 0.0
H385 H 0.64389 0.73055 0.19433 0.0
H386 H 0.73644 0.78056 0.1433 0.0
H387 H 0.74486 0.73838 0.16603 0.0
H388 H 0.71409 0.81692 0.19419 0.0
H389 H 0.68789 0.74704 0.06985 0.0
H390 H 0.6625 0.69569 0.03482 0.0
H391 H 0.57428 0.68251 0.07265 0.0
H392 H 0.59919 0.73358 0.10864 0.0
H393 H 0.67737 0.91959 0.0766 0.0
H394 H 0.69791 0.88567 0.09482 0.0
H395 H 0.60612 0.81179 0.12231 0.0
H396 H 0.58553 0.84493 0.10311 0.0
H397 H 0.63487 0.79034 0.0764 0.0
H398 H 0.65899 0.8557 0.20681 0.0
H399 H 0.68242 0.90508 0.24741 0.0
H400 H 0.77193 0.92543 0.20298 0.0
H401 H 0.74896 0.87629 0.16163 0.0
C402 C 0.67091 0.70868 0.20201 0.0
C403 C 0.69909 0.71005 0.19339 0.0
C404 C 0.66614 0.73259 0.18866 0.0
C405 C 0.68948 0.75847 0.1668 0.0
C406 C 0.71816 0.76072 0.16011 0.0
C407 C 0.72286 0.73657 0.17299 0.0
C408 C 0.68293 0.78203 0.14854 0.0
C409 C 0.69721 0.81141 0.16785 0.0
C410 C 0.66055 0.77453 0.11472 0.0
C411 C 0.64544 0.74406 0.09226 0.0
C412 C 0.66309 0.73311 0.07098 0.0
C413 C 0.64878 0.70406 0.05092 0.0
C414 C 0.6168 0.68582 0.0516 0.0
C415 C 0.59905 0.69665 0.07219 0.0
C416 C 0.61326 0.72566 0.09239 0.0
C417 C 0.66161 0.89608 0.0864 0.0
C418 C 0.6298 0.88502 0.08835 0.0
C419 C 0.67338 0.87675 0.09701 0.0
C420 C 0.6536 0.84617 0.11034 0.0
C421 C 0.62189 0.83518 0.11196 0.0
C422 C 0.61014 0.85429 0.10104 0.0
C423 C 0.66539 0.82526 0.12282 0.0
C424 C 0.65211 0.79621 0.1023 0.0
C425 C 0.68842 0.83301 0.1559 0.0
C426 C 0.70223 0.86253 0.18068 0.0
C427 C 0.68365 0.87083 0.2054 0.0
C428 C 0.69684 0.89874 0.2286 0.0
C429 C 0.72863 0.91843 0.22764 0.0
C430 C 0.7473 0.91019 0.20359 0.0
C431 C 0.73421 0.88231 0.18029 0.0
H432 H 0.7388 0.94003 0.24564 0.0
H433 H 0.60577 0.66331 0.0361 0.0
H434 H 0.02672 0.73039 0.33445 0.0
H435 H 0.97584 0.72204 0.31395 0.0
H436 H 0.93516 0.62664 0.35106 0.0
H437 H 0.98564 0.63472 0.37178 0.0
H438 H 0.91788 0.63548 0.26601 0.0
H439 H 0.92591 0.67448 0.41716 0.0
H440 H 0.95021 0.71273 0.47764 0.0
H441 H 0.94261 0.77986 0.39806 0.0
H442 H 0.91863 0.7421 0.33682 0.0
H443 H 0.76003 0.576 0.27295 0.0
H444 H 0.81351 0.59457 0.29175 0.0
H445 H 0.83544 0.68748 0.26295 0.0
H446 H 0.78124 0.669 0.24501 0.0
H447 H 0.86516 0.68599 0.33679 0.0
H448 H 0.85407 0.64751 0.18813 0.0
H449 H 0.8305 0.61062 0.12588 0.0
H450 H 0.84557 0.54491 0.19671 0.0
H451 H 0.86884 0.58124 0.25971 0.0
C452 C 0.0069 0.7077 0.33863 0.0
C453 C 0.01028 0.68321 0.35466 0.0
C454 C 0.97785 0.703 0.32699 0.0
C455 C 0.95174 0.67372 0.33098 0.0
C456 C 0.95502 0.6494 0.34762 0.0
C457 C 0.98392 0.65411 0.35961 0.0
C458 C 0.92106 0.6678 0.31614 0.0
C459 C 0.90622 0.64632 0.28173 0.0
C460 C 0.90644 0.68291 0.3354 0.0
C461 C 0.92083 0.70558 0.37221 0.0
C462 C 0.92969 0.69749 0.41238 0.0
C463 C 0.94334 0.71906 0.44684 0.0
C464 C 0.94804 0.74874 0.44164 0.0
C465 C 0.93901 0.75688 0.40201 0.0
C466 C 0.92538 0.7354 0.36743 0.0
C467 C 0.77612 0.60042 0.27048 0.0
C468 C 0.76634 0.62098 0.25702 0.0
C469 C 0.80681 0.611 0.28113 0.0
C470 C 0.82869 0.64235 0.27786 0.0
C471 C 0.81899 0.66315 0.26543 0.0
C472 C 0.78805 0.65255 0.2551 0.0
C473 C 0.86155 0.65294 0.28748 0.0
C474 C 0.87689 0.67537 0.32069 0.0
C475 C 0.87688 0.63897 0.26673 0.0
C476 C 0.86302 0.61706 0.2288 0.0
C477 C 0.85217 0.62512 0.19058 0.0
C478 C 0.83889 0.60432 0.15513 0.0
C479 C 0.83649 0.57543 0.15737 0.0
C480 C 0.84743 0.5673 0.19503 0.0
C481 C 0.86071 0.58801 0.2306 0.0
H482 H 0.82619 0.55935 0.1299 0.0
H483 H 0.95861 0.7654 0.46836 0.0
H484 H 0.12727 0.76199 0.43403 0.0
H485 H 0.1599 0.81474 0.46141 0.0
H486 H 0.24053 0.80739 0.4365 0.0
H487 H 0.20841 0.75502 0.40993 0.0
H488 H 0.24212 0.82904 0.51872 0.0
H489 H 0.21969 0.84973 0.36829 0.0
H490 H 0.18539 0.84681 0.3069 0.0
H491 H 0.14846 0.89007 0.39077 0.0
H492 H 0.1823 0.8929 0.45286 0.0
H493 H 0.36911 0.97703 0.52109 0.0
H494 H 0.32739 0.9264 0.50027 0.0
H495 H 0.26126 0.95432 0.53267 0.0
H496 H 0.30321 0.00567 0.55274 0.0
H497 H 0.24603 0.92227 0.45567 0.0
H498 H 0.27215 0.90674 0.60326 0.0
H499 H 0.30636 0.90999 0.66495 0.0
H500 H 0.33537 0.85663 0.58822 0.0
H501 H 0.30164 0.85341 0.52578 0.0
C502 C 0.15197 0.77177 0.43399 0.0
C503 C 0.16519 0.75418 0.42001 0.0
C504 C 0.17059 0.80192 0.4496 0.0
C505 C 0.2027 0.81503 0.4511 0.0
C506 C 0.21584 0.79773 0.43602 0.0
C507 C 0.19736 0.76774 0.42068 0.0
C508 C 0.22301 0.84628 0.46972 0.0
C509 C 0.2431 0.84944 0.5047 0.0
C510 C 0.22349 0.87282 0.45271 0.0
C511 C 0.20325 0.87119 0.41536 0.0
C512 C 0.20407 0.85838 0.37375 0.0
C513 C 0.18476 0.85679 0.33881 0.0
C514 C 0.16469 0.86815 0.34498 0.0
C515 C 0.16397 0.88122 0.38607 0.0
C516 C 0.18322 0.88284 0.42113 0.0
C517 C 0.34573 0.97249 0.52403 0.0
C518 C 0.33954 0.99542 0.53889 0.0
C519 C 0.32183 0.94341 0.51223 0.0
C520 C 0.2911 0.93632 0.5156 0.0
C521 C 0.28477 0.95921 0.52998 0.0
C522 C 0.30877 0.98851 0.54159 0.0
C523 C 0.26591 0.90504 0.50352 0.0
C524 C 0.2448 0.90185 0.47006 0.0
C525 C 0.26435 0.87835 0.52204 0.0
C526 C 0.28448 0.87999 0.55971 0.0
C527 C 0.28596 0.89585 0.59942 0.0
C528 C 0.30525 0.89767 0.63455 0.0
C529 C 0.32306 0.88357 0.63048 0.0
C530 C 0.32156 0.86755 0.59132 0.0
C531 C 0.30232 0.86567 0.55608 0.0
H532 H 0.338 0.88502 0.6577 0.0
H533 H 0.14975 0.8669 0.31789 0.0
H534 H 0.41067 0.35996 0.6815 0.0
H535 H 0.41492 0.31658 0.65374 0.0
H536 H 0.32538 0.25363 0.70743 0.0
H537 H 0.32078 0.29715 0.73532 0.0
H538 H 0.3686 0.2356 0.7249 0.0
H539 H 0.33152 0.2656 0.60023 0.0
H540 H 0.32864 0.3001 0.54417 0.0
H541 H 0.4172 0.3223 0.49295 0.0
H542 H 0.42118 0.2888 0.54976 0.0
H543 H 0.37902 0.11526 0.6084 0.0
H544 H 0.35803 0.14816 0.63114 0.0
H545 H 0.44216 0.22835 0.58986 0.0
H546 H 0.46316 0.19595 0.56735 0.0
H547 H 0.39095 0.23088 0.56371 0.0
H548 H 0.43063 0.20769 0.69797 0.0
H549 H 0.43315 0.17285 0.75392 0.0
H550 H 0.33771 0.13648 0.78496 0.0
H551 H 0.33455 0.17086 0.7287 0.0
C552 C 0.39188 0.33693 0.68769 0.0
C553 C 0.36532 0.33206 0.71057 0.0
C554 C 0.3943 0.31214 0.67154 0.0
C555 C 0.3703 0.28189 0.67799 0.0
C556 C 0.34409 0.27681 0.7019 0.0
C557 C 0.3415 0.30169 0.71776 0.0
C558 C 0.37299 0.25585 0.65963 0.0
C559 C 0.37284 0.23417 0.6895 0.0
C560 C 0.37872 0.25411 0.61346 0.0
C561 C 0.37677 0.27484 0.57967 0.0
C562 C 0.35061 0.27817 0.57749 0.0
C563 C 0.34878 0.29757 0.54555 0.0
C564 C 0.37281 0.31352 0.51519 0.0
C565 C 0.39871 0.3101 0.51671 0.0
C566 C 0.40078 0.29093 0.54883 0.0
C567 C 0.39285 0.13987 0.6037 0.0
C568 C 0.42283 0.153 0.58633 0.0
C569 C 0.38089 0.15863 0.61687 0.0
C570 C 0.39865 0.19073 0.6125 0.0
C571 C 0.42805 0.20366 0.59354 0.0
C572 C 0.44007 0.18507 0.58085 0.0
C573 C 0.38758 0.21136 0.62917 0.0
C574 C 0.38615 0.23202 0.59896 0.0
C575 C 0.38033 0.21212 0.67492 0.0
C576 C 0.38226 0.19153 0.70875 0.0
C577 C 0.41012 0.19207 0.71645 0.0
C578 C 0.41168 0.17245 0.74827 0.0
C579 C 0.38558 0.15239 0.77287 0.0
C580 C 0.35789 0.15197 0.7658 0.0
C581 C 0.3562 0.17152 0.73397 0.0
H582 H 0.38683 0.13722 0.79751 0.0
H583 H 0.37129 0.32844 0.49037 0.0
H584 H 0.05412 0.36376 0.82015 0.0
H585 H 0.10231 0.36703 0.79768 0.0
H586 H 0.1263 0.36741 0.93684 0.0
H587 H 0.0782 0.36466 0.95971 0.0
H588 H 0.17263 0.41154 0.89385 0.0
H589 H 0.10774 0.30496 0.86873 0.0
H590 H 0.06268 0.25786 0.84053 0.0
H591 H 0.08928 0.2883 0.70477 0.0
H592 H 0.13428 0.33582 0.73215 0.0
H593 H 0.28977 0.37466 0.77835 0.0
H594 H 0.23814 0.35557 0.80969 0.0
H595 H 0.24288 0.44122 0.77555 0.0
H596 H 0.29413 0.46047 0.74485 0.0
H597 H 0.18298 0.34677 0.77709 0.0
H598 H 0.21486 0.46374 0.85999 0.0
H599 H 0.2604 0.50844 0.89256 0.0
H600 H 0.30001 0.45201 0.92231 0.0
H601 H 0.25453 0.40689 0.89054 0.0
C602 C 0.06945 0.36421 0.84607 0.0
C603 C 0.0623 0.36406 0.89179 0.0
C604 C 0.09697 0.36587 0.83311 0.0
C605 C 0.11786 0.36716 0.86552 0.0
C606 C 0.11052 0.36638 0.91121 0.0
C607 C 0.08298 0.36476 0.92423 0.0
C608 C 0.14829 0.3717 0.85156 0.0
C609 C 0.17482 0.3972 0.86858 0.0
C610 C 0.15131 0.35265 0.81926 0.0
C611 C 0.1243 0.32407 0.80255 0.0
C612 C 0.10387 0.30173 0.83287 0.0
C613 C 0.07835 0.27493 0.81703 0.0
C614 C 0.07309 0.27012 0.77089 0.0
C615 C 0.09338 0.29207 0.7405 0.0
C616 C 0.11893 0.31892 0.75617 0.0
C617 C 0.27964 0.38926 0.7771 0.0
C618 C 0.29626 0.41923 0.75955 0.0
C619 C 0.25015 0.37832 0.795 0.0
C620 C 0.23693 0.39721 0.79575 0.0
C621 C 0.25288 0.42648 0.7762 0.0
C622 C 0.28221 0.43741 0.75851 0.0
C623 C 0.20699 0.38721 0.81819 0.0
C624 C 0.18066 0.36079 0.80277 0.0
C625 C 0.20411 0.40504 0.85266 0.0
C626 C 0.23135 0.43198 0.87257 0.0
C627 C 0.2332 0.46083 0.87371 0.0
C628 C 0.25903 0.48625 0.89199 0.0
C629 C 0.28311 0.48308 0.90939 0.0
C630 C 0.28138 0.45446 0.9087 0.0
C631 C 0.2556 0.42896 0.89051 0.0
H632 H 0.3031 0.5028 0.92347 0.0
H633 H 0.05332 0.24935 0.75869 0.0
H634 H 0.85417 0.28572 0.92571 0.0
H635 H 0.82164 0.23314 0.95121 0.0
H636 H 0.89876 0.21795 0.94605 0.0
H637 H 0.93187 0.27102 0.92017 0.0
H638 H 0.8441 0.16879 0.91066 0.0
H639 H 0.87716 0.22866 0.04502 0.0
H640 H 0.88717 0.27193 0.09477 0.0
H641 H 0.79112 0.24331 0.0949 0.0
H642 H 0.78057 0.20011 0.0446 0.0
H643 H 0.7501 0.02528 0.02278 0.0
H644 H 0.79341 0.07601 0.004 0.0
H645 H 0.73452 0.11523 0.01676 0.0
H646 H 0.69161 0.06505 0.03676 0.0
H647 H 0.78733 0.15186 0.05385 0.0
H648 H 0.7551 0.0969 0.91248 0.0
H649 H 0.74419 0.05444 0.86041 0.0
H650 H 0.8375 0.07421 0.87187 0.0
H651 H 0.84885 0.11657 0.92446 0.0
C652 C 0.86436 0.2713 0.92974 0.0
C653 C 0.89577 0.28275 0.92111 0.0
C654 C 0.84567 0.24121 0.94452 0.0
C655 C 0.85787 0.22178 0.9512 0.0
C656 C 0.88895 0.23266 0.94133 0.0
C657 C 0.90782 0.26298 0.9266 0.0
C658 C 0.83784 0.19033 0.96905 0.0
C659 C 0.83213 0.16499 0.9424 0.0
C660 C 0.82191 0.18544 0.01015 0.0
C661 C 0.82811 0.21124 0.0408 0.0
C662 C 0.85819 0.2317 0.05542 0.0
C663 C 0.86396 0.25621 0.08375 0.0
C664 C 0.83981 0.26039 0.09793 0.0
C665 C 0.80981 0.24004 0.08389 0.0
C666 C 0.80392 0.21551 0.05551 0.0
C667 C 0.74645 0.04476 0.02181 0.0
C668 C 0.71735 0.04106 0.03116 0.0
C669 C 0.7712 0.07373 0.01084 0.0
C670 C 0.76719 0.09945 0.00835 0.0
C671 C 0.73827 0.09581 0.01848 0.0
C672 C 0.71368 0.06702 0.02985 0.0
C673 C 0.79273 0.13021 0.99481 0.0
C674 C 0.79958 0.15551 0.02241 0.0
C675 C 0.80951 0.13502 0.95445 0.0
C676 C 0.80272 0.10964 0.92278 0.0
C677 C 0.77322 0.09203 0.90415 0.0
C678 C 0.76697 0.06801 0.8745 0.0
C679 C 0.79011 0.06156 0.86296 0.0
C680 C 0.81958 0.07918 0.88092 0.0
C681 C 0.82594 0.10321 0.91062 0.0
H682 H 0.78523 0.04296 0.84 0.0
H683 H 0.84432 0.27938 0.11986 0.0
loop_
_geom_bond_atom_site_label_1
_geom_bond_atom_site_label_2
_geom_bond_distance
_geom_bond_site_symmetry_2
_ccdc_geom_bond_type
Zn0 O3 2.031 . S
Zn0 O5 2.049 1_554 S
Zn0 O10 2.067 1_565 S
Zn1 O2 1.962 1_545 S
Zn1 O4 1.986 . S
Zn1 O6 1.996 . S
Zn1 O9 1.943 . S
O2 Zn1 1.962 1_565 S
O2 C7 1.254 . S
O3 Zn0 2.031 . S
O3 C7 1.269 . S
O4 Zn1 1.986 . S
O4 C11 1.262 . S
O5 Zn0 2.049 1_556 S
O5 C13 1.260 1_565 S
O6 Zn1 1.996 . S
O6 C13 1.257 1_554 S
C7 O2 1.254 . S
C7 O3 1.269 . S
C8 O9 1.249 . S
C8 O10 1.270 . S
O9 Zn1 1.943 . S
O9 C8 1.249 . S
O10 Zn0 2.067 1_545 S
O10 C8 1.270 . S
C11 O4 1.262 . S
C11 O12 1.232 . S
O12 C11 1.232 . S
C13 O5 1.260 1_545 S
C13 O6 1.257 1_556 S
Zn14 O17 2.031 . S
Zn14 O19 2.049 . S
Zn14 O24 2.067 . S
Zn15 O16 1.962 . S
Zn15 O18 1.986 . S
Zn15 O20 1.996 . S
Zn15 O23 1.943 . S
O16 Zn15 1.962 . S
O16 C21 1.254 . S
O17 Zn14 2.031 . S
O17 C21 1.269 . S
O18 Zn15 1.986 . S
O18 C25 1.262 . S
O19 Zn14 2.049 . S
O19 C27 1.260 . S
O20 Zn15 1.996 . S
O20 C27 1.257 . S
C21 O16 1.254 . S
C21 O17 1.269 . S
C22 O23 1.249 . S
C22 O24 1.270 . S
O23 Zn15 1.943 . S
O23 C22 1.249 . S
O24 Zn14 2.067 . S
O24 C22 1.270 . S
C25 O18 1.262 . S
C25 O26 1.232 . S
O26 C25 1.232 . S
C27 O19 1.260 . S
C27 O20 1.257 . S
Zn28 O31 2.031 . S
Zn28 O33 2.049 . S
Zn28 O38 2.067 . S
Zn29 O30 1.962 . S
Zn29 O32 1.986 1_455 S
Zn29 O34 1.996 . S
Zn29 O37 1.943 . S
O30 Zn29 1.962 . S
O30 C35 1.254 . S
O31 Zn28 2.031 . S
O31 C35 1.269 . S
O32 Zn29 1.986 1_655 S
O32 C39 1.262 . S
O33 Zn28 2.049 . S
O33 C41 1.260 . S
O34 Zn29 1.996 . S
O34 C41 1.257 . S
C35 O30 1.254 . S
C35 O31 1.269 . S
C36 O37 1.249 . S
C36 O38 1.270 . S
O37 Zn29 1.943 . S
O37 C36 1.249 . S
O38 Zn28 2.067 . S
O38 C36 1.270 . S
C39 O32 1.262 . S
C39 O40 1.232 . S
O40 C39 1.232 . S
C41 O33 1.260 . S
C41 O34 1.257 . S
Zn42 O45 2.031 . S
Zn42 O47 2.049 . S
Zn42 O52 2.067 . S
Zn43 O44 1.962 . S
Zn43 O46 1.986 1_545 S
Zn43 O48 1.996 . S
Zn43 O51 1.943 1_545 S
O44 Zn43 1.962 . S
O44 C49 1.254 . S
O45 Zn42 2.031 . S
O45 C49 1.269 . S
O46 Zn43 1.986 1_565 S
O46 C53 1.262 . S
O47 Zn42 2.049 . S
O47 C55 1.260 . S
O48 Zn43 1.996 . S
O48 C55 1.257 . S
C49 O44 1.254 . S
C49 O45 1.269 . S
C50 O51 1.249 1_545 S
C50 O52 1.270 . S
O51 Zn43 1.943 1_565 S
O51 C50 1.249 1_565 S
O52 Zn42 2.067 . S
O52 C50 1.270 . S
C53 O46 1.262 . S
C53 O54 1.232 . S
O54 C53 1.232 . S
C55 O47 1.260 . S
C55 O48 1.257 . S
Zn56 O59 2.031 . S
Zn56 O61 2.049 . S
Zn56 O66 2.067 . S
Zn57 O58 1.962 . S
Zn57 O60 1.986 . S
Zn57 O62 1.996 . S
Zn57 O65 1.943 . S
O58 Zn57 1.962 . S
O58 C63 1.254 . S
O59 Zn56 2.031 . S
O59 C63 1.269 . S
O60 Zn57 1.986 . S
O60 C67 1.262 . S
O61 Zn56 2.049 . S
O61 C69 1.260 . S
O62 Zn57 1.996 . S
O62 C69 1.257 . S
C63 O58 1.254 . S
C63 O59 1.269 . S
C64 O65 1.249 . S
C64 O66 1.270 . S
O65 Zn57 1.943 . S
O65 C64 1.249 . S
O66 Zn56 2.067 . S
O66 C64 1.270 . S
C67 O60 1.262 . S
C67 O68 1.232 . S
O68 C67 1.232 . S
C69 O61 1.260 . S
C69 O62 1.257 . S
Zn70 O73 2.031 . S
Zn70 O75 2.048 1_655 S
Zn70 O80 2.067 1_655 S
Zn71 O72 1.962 . S
Zn71 O74 1.986 . S
Zn71 O76 1.996 . S
Zn71 O79 1.943 . S
O72 Zn71 1.962 . S
O72 C77 1.254 1_455 S
O73 Zn70 2.031 . S
O73 C77 1.269 . S
O74 Zn71 1.986 . S
O74 C81 1.262 . S
O75 Zn70 2.048 1_455 S
O75 C83 1.290 . S
O76 Zn71 1.996 . S
O76 C83 1.257 . S
C77 O72 1.254 1_655 S
C77 O73 1.269 . S
C78 O79 1.249 . S
C78 O80 1.270 . S
O79 Zn71 1.943 . S
O79 C78 1.249 . S
O80 Zn70 2.067 1_455 S
O80 C78 1.270 . S
C81 O74 1.262 . S
C81 O82 1.232 . S
O82 C81 1.232 . S
C83 O75 1.290 . S
C83 O76 1.257 . S
H84 C102 0.951 1_565 S
H85 C104 0.951 1_565 S
H86 C106 0.950 . S
H87 C107 0.950 . S
H88 C109 0.950 . S
H89 C112 0.950 . S
H90 C113 0.950 . S
H91 C115 0.950 . S
H92 C116 0.950 . S
H93 C117 0.951 . S
H94 C119 0.951 . S
H95 C121 0.950 . S
H96 C122 0.950 . S
H97 C124 0.950 . S
H98 C127 0.950 . S
H99 C128 0.950 . S
H100 C130 0.950 . S
H101 C131 0.950 . S
C102 H84 0.951 1_545 S
C102 C103 1.366 . S
C102 C104 1.388 . S
C103 C102 1.366 . S
C103 C107 1.385 . S
C104 H85 0.951 1_545 S
C104 C102 1.388 . S
C104 C105 1.366 . S
C105 C104 1.366 . S
C105 C106 1.414 . S
C105 C108 1.499 . S
C106 H86 0.950 . S
C106 C105 1.414 . S
C106 C107 1.374 . S
C107 H87 0.950 . S
C107 C103 1.385 . S
C107 C106 1.374 . S
C108 C105 1.499 . S
C108 C109 1.373 . S
C108 C110 1.389 1_545 S
C109 H88 0.950 . S
C109 C108 1.373 . S
C109 C125 1.377 . S
C110 C108 1.389 1_565 S
C110 C111 1.524 . S
C110 C124 1.377 . S
C111 C110 1.524 . S
C111 C112 1.397 . S
C111 C116 1.363 . S
C112 H89 0.950 . S
C112 C111 1.397 . S
C112 C113 1.334 . S
C113 H90 0.950 . S
C113 C112 1.334 . S
C113 C114 1.287 . S
C114 C113 1.287 . S
C114 C115 1.524 . S
C114 H133 0.913 . S
C115 H91 0.950 . S
C115 C114 1.524 . S
C115 C116 1.415 . S
C116 H92 0.950 . S
C116 C111 1.363 . S
C116 C115 1.415 . S
C117 H93 0.951 . S
C117 C118 1.366 . S
C117 C119 1.388 . S
C118 C117 1.366 . S
C118 C122 1.385 1_545 S
C119 H94 0.951 . S
C119 C117 1.388 . S
C119 C120 1.366 . S
C120 C119 1.366 . S
C120 C121 1.414 1_545 S
C120 C123 1.499 . S
C121 H95 0.950 . S
C121 C120 1.414 1_565 S
C121 C122 1.374 . S
C122 H96 0.950 . S
C122 C118 1.385 1_565 S
C122 C121 1.374 . S
C123 C120 1.499 . S
C123 C124 1.373 1_545 S
C123 C125 1.389 . S
C124 H97 0.950 . S
C124 C110 1.377 . S
C124 C123 1.373 1_565 S
C125 C109 1.377 . S
C125 C123 1.389 . S
C125 C126 1.524 . S
C126 C125 1.524 . S
C126 C127 1.397 . S
C126 C131 1.363 . S
C127 H98 0.950 . S
C127 C126 1.397 . S
C127 C128 1.334 . S
C128 H99 0.950 . S
C128 C127 1.334 . S
C128 C129 1.287 . S
C129 C128 1.287 . S
C129 C130 1.524 . S
C129 H132 0.999 . S
C130 H100 0.950 . S
C130 C129 1.524 . S
C130 C131 1.415 . S
C131 H101 0.950 . S
C131 C126 1.363 . S
C131 C130 1.415 . S
H132 C129 0.999 . S
H133 C114 0.913 . S
H134 C152 0.951 . S
H135 C154 0.951 . S
H136 C156 0.950 . S
H137 C157 0.950 . S
H138 C159 0.950 . S
H139 C162 0.950 . S
H140 C163 0.950 . S
H141 C165 0.950 . S
H142 C166 0.950 . S
H143 C167 0.951 . S
H144 C169 0.951 . S
H145 C171 0.950 . S
H146 C172 0.950 . S
H147 C174 0.950 . S
H148 C177 0.950 . S
H149 C178 0.950 . S
H150 C180 0.950 . S
H151 C181 0.950 . S
C152 H134 0.951 . S
C152 C153 1.366 . S
C152 C154 1.388 . S
C153 C152 1.366 . S
C153 C157 1.385 . S
C154 H135 0.951 . S
C154 C152 1.388 . S
C154 C155 1.366 . S
C155 C154 1.366 . S
C155 C156 1.414 . S
C155 C158 1.499 . S
C156 H136 0.950 . S
C156 C155 1.414 . S
C156 C157 1.374 . S
C157 H137 0.950 . S
C157 C153 1.385 . S
C157 C156 1.374 . S
C158 C155 1.499 . S
C158 C159 1.373 . S
C158 C160 1.389 . S
C159 H138 0.950 . S
C159 C158 1.373 . S
C159 C175 1.377 . S
C160 C158 1.389 . S
C160 C161 1.524 . S
C160 C174 1.377 . S
C161 C160 1.524 . S
C161 C162 1.397 . S
C161 C166 1.363 . S
C162 H139 0.950 . S
C162 C161 1.397 . S
C162 C163 1.334 . S
C163 H140 0.950 . S
C163 C162 1.334 . S
C163 C164 1.287 . S
C164 C163 1.287 . S
C164 C165 1.524 . S
C164 H183 0.913 . S
C165 H141 0.950 . S
C165 C164 1.524 . S
C165 C166 1.415 . S
C166 H142 0.950 . S
C166 C161 1.363 . S
C166 C165 1.415 . S
C167 H143 0.951 . S
C167 C168 1.366 . S
C167 C169 1.388 . S
C168 C167 1.366 . S
C168 C172 1.385 . S
C169 H144 0.951 . S
C169 C167 1.388 . S
C169 C170 1.366 . S
C170 C169 1.366 . S
C170 C171 1.414 . S
C170 C173 1.499 . S
C171 H145 0.950 . S
C171 C170 1.414 . S
C171 C172 1.374 . S
C172 H146 0.950 . S
C172 C168 1.385 . S
C172 C171 1.374 . S
C173 C170 1.499 . S
C173 C174 1.373 . S
C173 C175 1.389 . S
C174 H147 0.950 . S
C174 C160 1.377 . S
C174 C173 1.373 . S
C175 C159 1.377 . S
C175 C173 1.389 . S
C175 C176 1.524 . S
C176 C175 1.524 . S
C176 C177 1.397 . S
C176 C181 1.363 . S
C177 H148 0.950 . S
C177 C176 1.397 . S
C177 C178 1.334 . S
C178 H149 0.950 . S
C178 C177 1.334 . S
C178 C179 1.287 . S
C179 C178 1.287 . S
C179 C180 1.524 . S
C179 H182 0.999 . S
C180 H150 0.950 . S
C180 C179 1.524 . S
C180 C181 1.415 . S
C181 H151 0.950 . S
C181 C176 1.363 . S
C181 C180 1.415 . S
H182 C179 0.999 . S
H183 C164 0.913 . S
H184 C202 0.951 . S
H185 C204 0.951 . S
H186 C206 0.950 1_655 S
H187 C207 0.950 1_655 S
H188 C209 0.950 1_655 S
H189 C212 0.950 . S
H190 C213 0.950 . S
H191 C215 0.950 . S
H192 C216 0.950 . S
H193 C217 0.951 . S
H194 C219 0.951 . S
H195 C221 0.950 . S
H196 C222 0.950 . S
H197 C224 0.950 . S
H198 C227 0.950 1_455 S
H199 C228 0.950 . S
H200 C230 0.950 . S
H201 C231 0.950 . S
C202 H184 0.951 . S
C202 C203 1.366 . S
C202 C204 1.388 . S
C203 C202 1.366 . S
C203 C207 1.385 . S
C204 H185 0.951 . S
C204 C202 1.388 . S
C204 C205 1.366 . S
C205 C204 1.366 . S
C205 C206 1.414 . S
C205 C208 1.499 . S
C206 H186 0.950 1_455 S
C206 C205 1.414 . S
C206 C207 1.374 . S
C207 H187 0.950 1_455 S
C207 C203 1.385 . S
C207 C206 1.374 . S
C208 C205 1.499 . S
C208 C209 1.373 . S
C208 C210 1.389 . S
C209 H188 0.950 1_455 S
C209 C208 1.373 . S
C209 C225 1.377 . S
C210 C208 1.389 . S
C210 C211 1.524 . S
C210 C224 1.377 . S
C211 C210 1.524 . S
C211 C212 1.397 . S
C211 C216 1.363 . S
C212 H189 0.950 . S
C212 C211 1.397 . S
C212 C213 1.334 . S
C213 H190 0.950 . S
C213 C212 1.334 . S
C213 C214 1.287 . S
C214 C213 1.287 . S
C214 C215 1.524 . S
C214 H233 0.913 . S
C215 H191 0.950 . S
C215 C214 1.524 . S
C215 C216 1.415 . S
C216 H192 0.950 . S
C216 C211 1.363 . S
C216 C215 1.415 . S
C217 H193 0.951 . S
C217 C218 1.366 1_655 S
C217 C219 1.388 . S
C218 C217 1.366 1_455 S
C218 C222 1.385 . S
C219 H194 0.951 . S
C219 C217 1.388 . S
C219 C220 1.366 1_655 S
C220 C219 1.366 1_455 S
C220 C221 1.414 . S
C220 C223 1.499 . S
C221 H195 0.950 . S
C221 C220 1.414 . S
C221 C222 1.374 . S
C222 H196 0.950 . S
C222 C218 1.385 . S
C222 C221 1.374 . S
C223 C220 1.499 . S
C223 C224 1.373 . S
C223 C225 1.389 . S
C224 H197 0.950 . S
C224 C210 1.377 . S
C224 C223 1.373 . S
C225 C209 1.377 . S
C225 C223 1.389 . S
C225 C226 1.524 1_455 S
C226 C225 1.524 1_655 S
C226 C227 1.397 . S
C226 C231 1.363 . S
C227 H198 0.950 1_655 S
C227 C226 1.397 . S
C227 C228 1.334 . S
C228 H199 0.950 . S
C228 C227 1.334 . S
C228 C229 1.287 . S
C229 C228 1.287 . S
C229 C230 1.524 . S
C229 H232 0.999 . S
C230 H200 0.950 . S
C230 C229 1.524 . S
C230 C231 1.415 . S
C231 H201 0.950 . S
C231 C226 1.363 . S
C231 C230 1.415 . S
H232 C229 0.999 . S
H233 C214 0.913 . S
H234 C252 0.951 . S
H235 C254 0.951 . S
H236 C256 0.950 . S
H237 C257 0.950 . S
H238 C259 0.950 . S
H239 C262 0.950 . S
H240 C263 0.950 . S
H241 C265 0.950 . S
H242 C266 0.950 . S
H243 C267 0.951 . S
H244 C269 0.951 . S
H245 C271 0.950 . S
H246 C272 0.950 . S
H247 C274 0.950 . S
H248 C277 0.950 1_545 S
H249 C278 0.950 . S
H250 C280 0.950 . S
H251 C281 0.950 . S
C252 H234 0.951 . S
C252 C253 1.366 . S
C252 C254 1.388 . S
C253 C252 1.366 . S
C253 C257 1.385 1_545 S
C254 H235 0.951 . S
C254 C252 1.388 . S
C254 C255 1.366 . S
C255 C254 1.366 . S
C255 C256 1.414 1_545 S
C255 C258 1.499 . S
C256 H236 0.950 . S
C256 C255 1.414 1_565 S
C256 C257 1.374 . S
C257 H237 0.950 . S
C257 C253 1.385 1_565 S
C257 C256 1.374 . S
C258 C255 1.499 . S
C258 C259 1.373 1_545 S
C258 C260 1.389 . S
C259 H238 0.950 . S
C259 C258 1.373 1_565 S
C259 C275 1.377 . S
C260 C258 1.389 . S
C260 C261 1.524 . S
C260 C274 1.377 . S
C261 C260 1.524 . S
C261 C262 1.397 . S
C261 C266 1.363 . S
C262 H239 0.950 . S
C262 C261 1.397 . S
C262 C263 1.334 . S
C263 H240 0.950 . S
C263 C262 1.334 . S
C263 C264 1.287 . S
C264 C263 1.287 . S
C264 C265 1.524 . S
C264 H283 0.913 . S
C265 H241 0.950 . S
C265 C264 1.524 . S
C265 C266 1.415 . S
C266 H242 0.950 . S
C266 C261 1.363 . S
C266 C265 1.415 . S
C267 H243 0.951 . S
C267 C268 1.366 1_565 S
C267 C269 1.388 . S
C268 C267 1.366 1_545 S
C268 C272 1.385 . S
C269 H244 0.951 . S
C269 C267 1.388 . S
C269 C270 1.366 1_565 S
C270 C269 1.366 1_545 S
C270 C271 1.414 . S
C270 C273 1.499 . S
C271 H245 0.950 . S
C271 C270 1.414 . S
C271 C272 1.374 . S
C272 H246 0.950 . S
C272 C268 1.385 . S
C272 C271 1.374 . S
C273 C270 1.499 . S
C273 C274 1.373 . S
C273 C275 1.389 1_545 S
C274 H247 0.950 . S
C274 C260 1.377 . S
C274 C273 1.373 . S
C275 C259 1.377 . S
C275 C273 1.389 1_565 S
C275 C276 1.524 . S
C276 C275 1.524 . S
C276 C277 1.397 . S
C276 C281 1.363 . S
C277 H248 0.950 1_565 S
C277 C276 1.397 . S
C277 C278 1.334 . S
C278 H249 0.950 . S
C278 C277 1.334 . S
C278 C279 1.287 . S
C279 C278 1.287 . S
C279 C280 1.524 . S
C279 H282 0.999 . S
C280 H250 0.950 . S
C280 C279 1.524 . S
C280 C281 1.415 . S
C281 H251 0.950 . S
C281 C276 1.363 . S
C281 C280 1.415 . S
H282 C279 0.999 . S
H283 C264 0.913 . S
H284 C302 0.951 . S
H285 C304 0.951 . S
H286 C306 0.950 . S
H287 C307 0.950 . S
H288 C309 0.950 1_554 S
H289 C312 0.950 . S
H290 C313 0.950 . S
H291 C315 0.950 . S
H292 C316 0.950 . S
H293 C317 0.951 . S
H294 C319 0.951 . S
H295 C321 0.950 . S
H296 C322 0.950 . S
H297 C324 0.950 . S
H298 C327 0.950 . S
H299 C328 0.950 . S
H300 C330 0.950 . S
H301 C331 0.950 . S
C302 H284 0.951 . S
C302 C303 1.366 . S
C302 C304 1.388 . S
C303 C302 1.366 . S
C303 C307 1.385 . S
C304 H285 0.951 . S
C304 C302 1.388 . S
C304 C305 1.366 . S
C305 C304 1.366 . S
C305 C306 1.414 . S
C305 C308 1.499 . S
C306 H286 0.950 . S
C306 C305 1.414 . S
C306 C307 1.374 . S
C307 H287 0.950 . S
C307 C303 1.385 . S
C307 C306 1.374 . S
C308 C305 1.499 . S
C308 C309 1.373 1_554 S
C308 C310 1.389 1_554 S
C309 H288 0.950 1_556 S
C309 C308 1.373 1_556 S
C309 C325 1.377 . S
C310 C308 1.389 1_556 S
C310 C311 1.524 . S
C310 C324 1.377 . S
C311 C310 1.524 . S
C311 C312 1.397 . S
C311 C316 1.363 . S
C312 H289 0.950 . S
C312 C311 1.397 . S
C312 C313 1.334 . S
C313 H290 0.950 . S
C313 C312 1.334 . S
C313 C314 1.287 . S
C314 C313 1.287 . S
C314 C315 1.524 . S
C314 H333 0.913 . S
C315 H291 0.950 . S
C315 C314 1.524 . S
C315 C316 1.415 . S
C316 H292 0.950 . S
C316 C311 1.363 . S
C316 C315 1.415 . S
C317 H293 0.951 . S
C317 C318 1.366 . S
C317 C319 1.388 . S
C318 C317 1.366 . S
C318 C322 1.385 . S
C319 H294 0.951 . S
C319 C317 1.388 . S
C319 C320 1.366 . S
C320 C319 1.366 . S
C320 C321 1.414 . S
C320 C323 1.499 . S
C321 H295 0.950 . S
C321 C320 1.414 . S
C321 C322 1.374 . S
C322 H296 0.950 . S
C322 C318 1.385 . S
C322 C321 1.374 . S
C323 C320 1.499 . S
C323 C324 1.373 . S
C323 C325 1.389 . S
C324 H297 0.950 . S
C324 C310 1.377 . S
C324 C323 1.373 . S
C325 C309 1.377 . S
C325 C323 1.389 . S
C325 C326 1.524 . S
C326 C325 1.524 . S
C326 C327 1.397 . S
C326 C331 1.363 . S
C327 H298 0.950 . S
C327 C326 1.397 . S
C327 C328 1.334 . S
C328 H299 0.950 . S
C328 C327 1.334 . S
C328 C329 1.287 . S
C329 C328 1.287 . S
C329 C330 1.524 . S
C329 H332 0.999 . S
C330 H300 0.950 . S
C330 C329 1.524 . S
C330 C331 1.415 . S
C331 H301 0.950 . S
C331 C326 1.363 . S
C331 C330 1.415 . S
H332 C329 0.999 . S
H333 C314 0.913 . S
H334 C352 0.951 1_556 S
H335 C354 0.951 . S
H336 C356 0.950 1_655 S
H337 C357 0.950 1_656 S
H338 C359 0.956 . S
H339 C362 0.950 . S
H340 C363 0.950 . S
H341 C365 0.950 . S
H342 C366 0.950 . S
H343 C367 0.951 1_655 S
H344 C369 0.951 1_655 S
H345 C371 0.950 . S
H346 C372 0.950 . S
H347 C374 0.950 . S
H348 C377 0.950 . S
H349 C378 0.950 . S
H350 C380 0.950 . S
H351 C381 0.950 . S
C352 H334 0.951 1_554 S
C352 C353 1.366 1_554 S
C352 C354 1.388 . S
C353 C352 1.366 1_556 S
C353 C357 1.385 1_556 S
C354 H335 0.951 . S
C354 C352 1.388 . S
C354 C355 1.366 . S
C355 C354 1.366 . S
C355 C356 1.414 . S
C355 C358 1.499 . S
C356 H336 0.950 1_455 S
C356 C355 1.414 . S
C356 C357 1.374 . S
C357 H337 0.950 1_454 S
C357 C353 1.385 1_554 S
C357 C356 1.374 . S
C358 C355 1.499 . S
C358 C359 1.373 . S
C358 C360 1.389 . S
C359 H338 0.956 . S
C359 C358 1.373 . S
C359 C375 1.377 . S
C360 C358 1.389 . S
C360 C361 1.524 . S
C360 C374 1.377 . S
C361 C360 1.524 . S
C361 C362 1.397 . S
C361 C366 1.363 . S
C362 H339 0.950 . S
C362 C361 1.397 . S
C362 C363 1.334 . S
C363 H340 0.950 . S
C363 C362 1.334 . S
C363 C364 1.287 . S
C364 C363 1.287 . S
C364 C365 1.524 . S
C364 H383 0.913 . S
C365 H341 0.950 . S
C365 C364 1.524 . S
C365 C366 1.415 . S
C366 H342 0.950 . S
C366 C361 1.363 . S
C366 C365 1.415 . S
C367 H343 0.951 1_455 S
C367 C368 1.366 . S
C367 C369 1.388 . S
C368 C367 1.366 . S
C368 C372 1.385 . S
C369 H344 0.951 1_455 S
C369 C367 1.388 . S
C369 C370 1.366 . S
C370 C369 1.366 . S
C370 C371 1.414 . S
C370 C373 1.499 . S
C371 H345 0.950 . S
C371 C370 1.414 . S
C371 C372 1.374 . S
C372 H346 0.950 . S
C372 C368 1.385 . S
C372 C371 1.374 . S
C373 C370 1.499 . S
C373 C374 1.373 . S
C373 C375 1.389 . S
C374 H347 0.950 . S
C374 C360 1.377 . S
C374 C373 1.373 . S
C375 C359 1.377 . S
C375 C373 1.389 . S
C375 C376 1.524 1_455 S
C376 C375 1.524 1_655 S
C376 C377 1.397 1_655 S
C376 C381 1.363 . S
C377 H348 0.950 . S
C377 C376 1.397 1_455 S
C377 C378 1.334 1_455 S
C378 H349 0.950 . S
C378 C377 1.334 1_655 S
C378 C379 1.287 . S
C379 C378 1.287 . S
C379 C380 1.524 . S
C379 H382 0.999 . S
C380 H350 0.950 . S
C380 C379 1.524 . S
C380 C381 1.415 . S
C381 H351 0.950 . S
C381 C376 1.363 . S
C381 C380 1.415 . S
H382 C379 0.999 . S
H383 C364 0.913 . S
H384 C402 0.951 . S
H385 C404 0.951 . S
H386 C406 0.950 . S
H387 C407 0.950 . S
H388 C409 0.950 . S
H389 C412 0.950 . S
H390 C413 0.950 . S
H391 C415 0.950 . S
H392 C416 0.950 . S
H393 C417 0.951 . S
H394 C419 0.951 . S
H395 C421 0.950 . S
H396 C422 0.950 . S
H397 C424 0.950 . S
H398 C427 0.950 . S
H399 C428 0.950 . S
H400 C430 0.950 . S
H401 C431 0.950 . S
C402 H384 0.951 . S
C402 C403 1.366 . S
C402 C404 1.388 . S
C403 C402 1.366 . S
C403 C407 1.385 . S
C404 H385 0.951 . S
C404 C402 1.388 . S
C404 C405 1.366 . S
C405 C404 1.366 . S
C405 C406 1.414 . S
C405 C408 1.499 . S
C406 H386 0.950 . S
C406 C405 1.414 . S
C406 C407 1.374 . S
C407 H387 0.950 . S
C407 C403 1.385 . S
C407 C406 1.374 . S
C408 C405 1.499 . S
C408 C409 1.373 . S
C408 C410 1.389 . S
C409 H388 0.950 . S
C409 C408 1.373 . S
C409 C425 1.377 . S
C410 C408 1.389 . S
C410 C411 1.524 . S
C410 C424 1.377 . S
C411 C410 1.524 . S
C411 C412 1.397 . S
C411 C416 1.363 . S
C412 H389 0.950 . S
C412 C411 1.397 . S
C412 C413 1.334 . S
C413 H390 0.950 . S
C413 C412 1.334 . S
C413 C414 1.287 . S
C414 C413 1.287 . S
C414 C415 1.524 . S
C414 H433 0.913 . S
C415 H391 0.950 . S
C415 C414 1.524 . S
C415 C416 1.415 . S
C416 H392 0.950 . S
C416 C411 1.363 . S
C416 C415 1.415 . S
C417 H393 0.951 . S
C417 C418 1.366 . S
C417 C419 1.388 . S
C418 C417 1.366 . S
C418 C422 1.385 . S
C419 H394 0.951 . S
C419 C417 1.388 . S
C419 C420 1.366 . S
C420 C419 1.366 . S
C420 C421 1.414 . S
C420 C423 1.499 . S
C421 H395 0.950 . S
C421 C420 1.414 . S
C421 C422 1.374 . S
C422 H396 0.950 . S
C422 C418 1.385 . S
C422 C421 1.374 . S
C423 C420 1.499 . S
C423 C424 1.373 . S
C423 C425 1.389 . S
C424 H397 0.950 . S
C424 C410 1.377 . S
C424 C423 1.373 . S
C425 C409 1.377 . S
C425 C423 1.389 . S
C425 C426 1.524 . S
C426 C425 1.524 . S
C426 C427 1.397 . S
C426 C431 1.363 . S
C427 H398 0.950 . S
C427 C426 1.397 . S
C427 C428 1.334 . S
C428 H399 0.950 . S
C428 C427 1.334 . S
C428 C429 1.287 . S
C429 C428 1.287 . S
C429 C430 1.524 . S
C429 H432 0.999 . S
C430 H400 0.950 . S
C430 C429 1.524 . S
C430 C431 1.415 . S
C431 H401 0.950 . S
C431 C426 1.363 . S
C431 C430 1.415 . S
H432 C429 0.999 . S
H433 C414 0.913 . S
H434 C452 0.951 . S
H435 C454 0.951 . S
H436 C456 0.950 . S
H437 C457 0.950 . S
H438 C459 0.950 . S
H439 C462 0.950 . S
H440 C463 0.950 . S
H441 C465 0.950 . S
H442 C466 0.950 . S
H443 C467 0.951 . S
H444 C469 0.951 . S
H445 C471 0.950 . S
H446 C472 0.950 . S
H447 C474 0.950 . S
H448 C477 0.950 . S
H449 C478 0.950 . S
H450 C480 0.950 . S
H451 C481 0.950 . S
C452 H434 0.951 . S
C452 C453 1.366 . S
C452 C454 1.388 . S
C453 C452 1.366 . S
C453 C457 1.385 . S
C454 H435 0.951 . S
C454 C452 1.388 . S
C454 C455 1.366 . S
C455 C454 1.366 . S
C455 C456 1.414 . S
C455 C458 1.499 . S
C456 H436 0.950 . S
C456 C455 1.414 . S
C456 C457 1.374 . S
C457 H437 0.950 . S
C457 C453 1.385 . S
C457 C456 1.374 . S
C458 C455 1.499 . S
C458 C459 1.373 . S
C458 C460 1.389 . S
C459 H438 0.950 . S
C459 C458 1.373 . S
C459 C475 1.377 . S
C460 C458 1.389 . S
C460 C461 1.524 . S
C460 C474 1.377 . S
C461 C460 1.524 . S
C461 C462 1.397 . S
C461 C466 1.363 . S
C462 H439 0.950 . S
C462 C461 1.397 . S
C462 C463 1.334 . S
C463 H440 0.950 . S
C463 C462 1.334 . S
C463 C464 1.287 . S
C464 C463 1.287 . S
C464 C465 1.524 . S
C464 H483 0.913 . S
C465 H441 0.950 . S
C465 C464 1.524 . S
C465 C466 1.415 . S
C466 H442 0.950 . S
C466 C461 1.363 . S
C466 C465 1.415 . S
C467 H443 0.951 . S
C467 C468 1.366 . S
C467 C469 1.388 . S
C468 C467 1.366 . S
C468 C472 1.385 . S
C469 H444 0.951 . S
C469 C467 1.388 . S
C469 C470 1.366 . S
C470 C469 1.366 . S
C470 C471 1.414 . S
C470 C473 1.499 . S
C471 H445 0.950 . S
C471 C470 1.414 . S
C471 C472 1.374 . S
C472 H446 0.950 . S
C472 C468 1.385 . S
C472 C471 1.374 . S
C473 C470 1.499 . S
C473 C474 1.373 . S
C473 C475 1.389 . S
C474 H447 0.950 . S
C474 C460 1.377 . S
C474 C473 1.373 . S
C475 C459 1.377 . S
C475 C473 1.389 . S
C475 C476 1.524 . S
C476 C475 1.524 . S
C476 C477 1.397 . S
C476 C481 1.363 . S
C477 H448 0.950 . S
C477 C476 1.397 . S
C477 C478 1.334 . S
C478 H449 0.950 . S
C478 C477 1.334 . S
C478 C479 1.287 . S
C479 C478 1.287 . S
C479 C480 1.524 . S
C479 H482 0.999 . S
C480 H450 0.950 . S
C480 C479 1.524 . S
C480 C481 1.415 . S
C481 H451 0.950 . S
C481 C476 1.363 . S
C481 C480 1.415 . S
H482 C479 0.999 . S
H483 C464 0.913 . S
H484 C502 0.951 . S
H485 C504 0.951 . S
H486 C506 0.950 . S
H487 C507 0.950 . S
H488 C509 0.950 . S
H489 C512 0.950 . S
H490 C513 0.950 . S
H491 C515 0.950 . S
H492 C516 0.950 . S
H493 C517 0.951 . S
H494 C519 0.951 . S
H495 C521 0.950 . S
H496 C522 0.950 . S
H497 C524 0.950 . S
H498 C527 0.950 . S
H499 C528 0.950 . S
H500 C530 0.950 . S
H501 C531 0.950 . S
C502 H484 0.951 . S
C502 C503 1.366 . S
C502 C504 1.388 . S
C503 C502 1.366 . S
C503 C507 1.385 . S
C504 H485 0.951 . S
C504 C502 1.388 . S
C504 C505 1.366 . S
C505 C504 1.366 . S
C505 C506 1.414 . S
C505 C508 1.499 . S
C506 H486 0.950 . S
C506 C505 1.414 . S
C506 C507 1.374 . S
C507 H487 0.950 . S
C507 C503 1.385 . S
C507 C506 1.374 . S
C508 C505 1.499 . S
C508 C509 1.373 . S
C508 C510 1.389 . S
C509 H488 0.950 . S
C509 C508 1.373 . S
C509 C525 1.377 . S
C510 C508 1.389 . S
C510 C511 1.524 . S
C510 C524 1.377 . S
C511 C510 1.524 . S
C511 C512 1.397 . S
C511 C516 1.363 . S
C512 H489 0.950 . S
C512 C511 1.397 . S
C512 C513 1.334 . S
C513 H490 0.950 . S
C513 C512 1.334 . S
C513 C514 1.287 . S
C514 C513 1.287 . S
C514 C515 1.524 . S
C514 H533 0.913 . S
C515 H491 0.950 . S
C515 C514 1.524 . S
C515 C516 1.415 . S
C516 H492 0.950 . S
C516 C511 1.363 . S
C516 C515 1.415 . S
C517 H493 0.951 . S
C517 C518 1.366 . S
C517 C519 1.388 . S
C518 C517 1.366 . S
C518 C522 1.385 . S
C519 H494 0.951 . S
C519 C517 1.388 . S
C519 C520 1.366 . S
C520 C519 1.366 . S
C520 C521 1.414 . S
C520 C523 1.499 . S
C521 H495 0.950 . S
C521 C520 1.414 . S
C521 C522 1.374 . S
C522 H496 0.950 . S
C522 C518 1.385 . S
C522 C521 1.374 . S
C523 C520 1.499 . S
C523 C524 1.373 . S
C523 C525 1.389 . S
C524 H497 0.950 . S
C524 C510 1.377 . S
C524 C523 1.373 . S
C525 C509 1.377 . S
C525 C523 1.389 . S
C525 C526 1.524 . S
C526 C525 1.524 . S
C526 C527 1.397 . S
C526 C531 1.363 . S
C527 H498 0.950 . S
C527 C526 1.397 . S
C527 C528 1.334 . S
C528 H499 0.950 . S
C528 C527 1.334 . S
C528 C529 1.287 . S
C529 C528 1.287 . S
C529 C530 1.524 . S
C529 H532 0.999 . S
C530 H500 0.950 . S
C530 C529 1.524 . S
C530 C531 1.415 . S
C531 H501 0.950 . S
C531 C526 1.363 . S
C531 C530 1.415 . S
H532 C529 0.999 . S
H533 C514 0.913 . S
H534 C552 0.951 . S
H535 C554 0.951 . S
H536 C556 0.950 . S
H537 C557 0.950 . S
H538 C559 0.950 . S
H539 C562 0.950 . S
H540 C563 0.950 . S
H541 C565 0.950 . S
H542 C566 0.950 . S
H543 C567 0.951 . S
H544 C569 0.951 . S
H545 C571 0.950 . S
H546 C572 0.950 . S
H547 C574 0.950 . S
H548 C577 0.950 . S
H549 C578 0.950 . S
H550 C580 0.950 . S
H551 C581 0.950 . S
C552 H534 0.951 . S
C552 C553 1.366 . S
C552 C554 1.388 . S
C553 C552 1.366 . S
C553 C557 1.385 . S
C554 H535 0.951 . S
C554 C552 1.388 . S
C554 C555 1.366 . S
C555 C554 1.366 . S
C555 C556 1.414 . S
C555 C558 1.499 . S
C556 H536 0.950 . S
C556 C555 1.414 . S
C556 C557 1.374 . S
C557 H537 0.950 . S
C557 C553 1.385 . S
C557 C556 1.374 . S
C558 C555 1.499 . S
C558 C559 1.373 . S
C558 C560 1.389 . S
C559 H538 0.950 . S
C559 C558 1.373 . S
C559 C575 1.377 . S
C560 C558 1.389 . S
C560 C561 1.524 . S
C560 C574 1.377 . S
C561 C560 1.524 . S
C561 C562 1.397 . S
C561 C566 1.363 . S
C562 H539 0.950 . S
C562 C561 1.397 . S
C562 C563 1.334 . S
C563 H540 0.950 . S
C563 C562 1.334 . S
C563 C564 1.287 . S
C564 C563 1.287 . S
C564 C565 1.524 . S
C564 H583 0.913 . S
C565 H541 0.950 . S
C565 C564 1.524 . S
C565 C566 1.415 . S
C566 H542 0.950 . S
C566 C561 1.363 . S
C566 C565 1.415 . S
C567 H543 0.951 . S
C567 C568 1.366 . S
C567 C569 1.388 . S
C568 C567 1.366 . S
C568 C572 1.385 . S
C569 H544 0.951 . S
C569 C567 1.388 . S
C569 C570 1.366 . S
C570 C569 1.366 . S
C570 C571 1.414 . S
C570 C573 1.499 . S
C571 H545 0.950 . S
C571 C570 1.414 . S
C571 C572 1.374 . S
C572 H546 0.950 . S
C572 C568 1.385 . S
C572 C571 1.374 . S
C573 C570 1.499 . S
C573 C574 1.373 . S
C573 C575 1.389 . S
C574 H547 0.950 . S
C574 C560 1.377 . S
C574 C573 1.373 . S
C575 C559 1.377 . S
C575 C573 1.389 . S
C575 C576 1.524 . S
C576 C575 1.524 . S
C576 C577 1.397 . S
C576 C581 1.363 . S
C577 H548 0.950 . S
C577 C576 1.397 . S
C577 C578 1.334 . S
C578 H549 0.950 . S
C578 C577 1.334 . S
C578 C579 1.287 . S
C579 C578 1.287 . S
C579 C580 1.524 . S
C579 H582 0.999 . S
C580 H550 0.950 . S
C580 C579 1.524 . S
C580 C581 1.415 . S
C581 H551 0.950 . S
C581 C576 1.363 . S
C581 C580 1.415 . S
H582 C579 0.999 . S
H583 C564 0.913 . S
H584 C602 0.951 . S
H585 C604 0.951 . S
H586 C606 0.950 . S
H587 C607 0.950 . S
H588 C609 0.950 . S
H589 C612 0.950 . S
H590 C613 0.950 . S
H591 C615 0.950 . S
H592 C616 0.950 . S
H593 C617 0.951 . S
H594 C619 0.951 . S
H595 C621 0.950 . S
H596 C622 0.950 . S
H597 C624 0.950 . S
H598 C627 0.950 . S
H599 C628 0.950 . S
H600 C630 0.950 . S
H601 C631 0.950 . S
C602 H584 0.951 . S
C602 C603 1.366 . S
C602 C604 1.388 . S
C603 C602 1.366 . S
C603 C607 1.385 . S
C604 H585 0.951 . S
C604 C602 1.388 . S
C604 C605 1.366 . S
C605 C604 1.366 . S
C605 C606 1.414 . S
C605 C608 1.499 . S
C606 H586 0.950 . S
C606 C605 1.414 . S
C606 C607 1.374 . S
C607 H587 0.950 . S
C607 C603 1.385 . S
C607 C606 1.374 . S
C608 C605 1.499 . S
C608 C609 1.373 . S
C608 C610 1.389 . S
C609 H588 0.950 . S
C609 C608 1.373 . S
C609 C625 1.377 . S
C610 C608 1.389 . S
C610 C611 1.524 . S
C610 C624 1.377 . S
C611 C610 1.524 . S
C611 C612 1.397 . S
C611 C616 1.363 . S
C612 H589 0.950 . S
C612 C611 1.397 . S
C612 C613 1.334 . S
C613 H590 0.950 . S
C613 C612 1.334 . S
C613 C614 1.287 . S
C614 C613 1.287 . S
C614 C615 1.524 . S
C614 H633 0.913 . S
C615 H591 0.950 . S
C615 C614 1.524 . S
C615 C616 1.415 . S
C616 H592 0.950 . S
C616 C611 1.363 . S
C616 C615 1.415 . S
C617 H593 0.951 . S
C617 C618 1.366 . S
C617 C619 1.388 . S
C618 C617 1.366 . S
C618 C622 1.385 . S
C619 H594 0.951 . S
C619 C617 1.388 . S
C619 C620 1.366 . S
C620 C619 1.366 . S
C620 C621 1.414 . S
C620 C623 1.499 . S
C621 H595 0.950 . S
C621 C620 1.414 . S
C621 C622 1.374 . S
C622 H596 0.950 . S
C622 C618 1.385 . S
C622 C621 1.374 . S
C623 C620 1.499 . S
C623 C624 1.373 . S
C623 C625 1.389 . S
C624 H597 0.950 . S
C624 C610 1.377 . S
C624 C623 1.373 . S
C625 C609 1.377 . S
C625 C623 1.389 . S
C625 C626 1.524 . S
C626 C625 1.524 . S
C626 C627 1.397 . S
C626 C631 1.363 . S
C627 H598 0.950 . S
C627 C626 1.397 . S
C627 C628 1.334 . S
C628 H599 0.950 . S
C628 C627 1.334 . S
C628 C629 1.287 . S
C629 C628 1.287 . S
C629 C630 1.524 . S
C629 H632 0.999 . S
C630 H600 0.950 . S
C630 C629 1.524 . S
C630 C631 1.415 . S
C631 H601 0.950 . S
C631 C626 1.363 . S
C631 C630 1.415 . S
H632 C629 0.999 . S
H633 C614 0.913 . S
H634 C652 0.951 . S
H635 C654 0.951 . S
H636 C656 0.950 . S
H637 C657 0.950 . S
H638 C659 0.950 . S
H639 C662 0.950 . S
H640 C663 0.950 . S
H641 C665 0.950 . S
H642 C666 0.950 . S
H643 C667 0.951 . S
H644 C669 0.951 . S
H645 C671 0.950 . S
H646 C672 0.952 . S
H647 C674 0.950 1_554 S
H648 C677 0.950 . S
H649 C678 0.950 . S
H650 C680 0.950 . S
H651 C681 0.950 . S
C652 H634 0.951 . S
C652 C653 1.366 . S
C652 C654 1.388 . S
C653 C652 1.366 . S
C653 C657 1.385 . S
C654 H635 0.951 . S
C654 C652 1.388 . S
C654 C655 1.366 . S
C655 C654 1.366 . S
C655 C656 1.414 . S
C655 C658 1.499 . S
C656 H636 0.950 . S
C656 C655 1.414 . S
C656 C657 1.374 . S
C657 H637 0.950 . S
C657 C653 1.385 . S
C657 C656 1.374 . S
C658 C655 1.499 . S
C658 C659 1.373 . S
C658 C660 1.389 . S
C659 H638 0.950 . S
C659 C658 1.373 . S
C659 C675 1.377 . S
C660 C658 1.389 . S
C660 C661 1.524 1_556 S
C660 C674 1.377 . S
C661 C660 1.524 1_554 S
C661 C662 1.397 . S
C661 C666 1.363 1_554 S
C662 H639 0.950 . S
C662 C661 1.397 . S
C662 C663 1.334 . S
C663 H640 0.950 . S
C663 C662 1.334 . S
C663 C664 1.287 . S
C664 C663 1.287 . S
C664 C665 1.524 . S
C664 H683 0.913 . S
C665 H641 0.950 . S
C665 C664 1.524 . S
C665 C666 1.415 1_554 S
C666 H642 0.950 . S
C666 C661 1.363 1_556 S
C666 C665 1.415 1_556 S
C667 H643 0.951 . S
C667 C668 1.366 . S
C667 C669 1.388 . S
C668 C667 1.366 . S
C668 C672 1.385 . S
C669 H644 0.951 . S
C669 C667 1.388 . S
C669 C670 1.366 . S
C670 C669 1.366 . S
C670 C671 1.414 1_554 S
C670 C673 1.499 1_554 S
C671 H645 0.950 . S
C671 C670 1.414 1_556 S
C671 C672 1.374 1_556 S
C672 H646 0.952 . S
C672 C668 1.385 . S
C672 C671 1.374 1_554 S
C673 C670 1.499 1_556 S
C673 C674 1.373 . S
C673 C675 1.389 . S
C674 H647 0.950 1_556 S
C674 C660 1.377 . S
C674 C673 1.373 . S
C675 C659 1.377 . S
C675 C673 1.389 . S
C675 C676 1.524 . S
C676 C675 1.524 . S
C676 C677 1.397 . S
C676 C681 1.363 . S
C677 H648 0.950 . S
C677 C676 1.397 . S
C677 C678 1.334 . S
C678 H649 0.950 . S
C678 C677 1.334 . S
C678 C679 1.287 . S
C679 C678 1.287 . S
C679 C680 1.524 . S
C679 H682 0.999 . S
C680 H650 0.950 . S
C680 C679 1.524 . S
C680 C681 1.415 . S
C681 H651 0.950 . S
C681 C676 1.363 . S
C681 C680 1.415 . S
H682 C679 0.999 . S
H683 C664 0.913 . S
C103 C8 1.368 . S
C118 C55 1.335 . S
C153 C22 1.367 . S
C168 C69 1.334 . S
C203 C83 1.335 . S
C218 C36 1.368 . S
C253 C13 1.335 . S
C268 C50 1.368 . S
C303 C27 1.335 . S
C318 C64 1.367 . S
C353 C78 1.367 . S
C368 C41 1.334 . S
C403 C25 1.400 . S
C418 C7 1.389 . S
C453 C39 1.401 . S
C468 C21 1.390 . S
C503 C35 1.390 . S
C518 C53 1.400 . S
C553 C67 1.401 . S
C568 C49 1.390 . S
C603 C81 1.401 . S
C618 C63 1.390 . S
C653 C77 1.390 . S
C668 C11 1.401 . S
