# Generated by pormake.
# Topology whz, (6)-cn, num edge types: 1
# Building blocks:
#     Node 0, Type 0, BuildingBlock: OJICUG_clean_sbu_0, # of connection points: 6
#     Node 1, Type 0, BuildingBlock: OJICUG_clean_sbu_0, # of connection points: 6
#     Node 2, Type 0, BuildingBlock: OJICUG_clean_sbu_0, # of connection points: 6
#     Node 3, Type 0, BuildingBlock: OJICUG_clean_sbu_0, # of connection points: 6
#     Node 4, Type 0, BuildingBlock: OJICUG_clean_sbu_0, # of connection points: 6
#     Node 5, Type 0, BuildingBlock: OJICUG_clean_sbu_0, # of connection points: 6
#     Node 6, Type 0, BuildingBlock: OJICUG_clean_sbu_0, # of connection points: 6
#     Node 7, Type 0, BuildingBlock: OJICUG_clean_sbu_0, # of connection points: 6
#     Node 8, Type 0, BuildingBlock: OJICUG_clean_sbu_0, # of connection points: 6
#     Node 9, Type 0, BuildingBlock: OJICUG_clean_sbu_0, # of connection points: 6
#     Node 10, Type 0, BuildingBlock: OJICUG_clean_sbu_0, # of connection points: 6
#     Node 11, Type 0, BuildingBlock: OJICUG_clean_sbu_0, # of connection points: 6
#     Node 12, Type 0, BuildingBlock: OJICUG_clean_sbu_0, # of connection points: 6
#     Node 13, Type 0, BuildingBlock: OJICUG_clean_sbu_0, # of connection points: 6
#     Node 14, Type 0, BuildingBlock: OJICUG_clean_sbu_0, # of connection points: 6
#     Node 15, Type 0, BuildingBlock: OJICUG_clean_sbu_0, # of connection points: 6
#     Edge 16, Type (0, 0), BuildingBlock: KIFKEQ_clean_linker_1, # of connection points: 2
#     Edge 17, Type (0, 0), BuildingBlock: KIFKEQ_clean_linker_1, # of connection points: 2
#     Edge 18, Type (0, 0), BuildingBlock: KIFKEQ_clean_linker_1, # of connection points: 2
#     Edge 19, Type (0, 0), BuildingBlock: KIFKEQ_clean_linker_1, # of connection points: 2
#     Edge 20, Type (0, 0), BuildingBlock: KIFKEQ_clean_linker_1, # of connection points: 2
#     Edge 21, Type (0, 0), BuildingBlock: KIFKEQ_clean_linker_1, # of connection points: 2
#     Edge 22, Type (0, 0), BuildingBlock: KIFKEQ_clean_linker_1, # of connection points: 2
#     Edge 23, Type (0, 0), BuildingBlock: KIFKEQ_clean_linker_1, # of connection points: 2
#     Edge 24, Type (0, 0), BuildingBlock: KIFKEQ_clean_linker_1, # of connection points: 2
#     Edge 25, Type (0, 0), BuildingBlock: KIFKEQ_clean_linker_1, # of connection points: 2
#     Edge 26, Type (0, 0), BuildingBlock: KIFKEQ_clean_linker_1, # of connection points: 2
#     Edge 27, Type (0, 0), BuildingBlock: KIFKEQ_clean_linker_1, # of connection points: 2
#     Edge 28, Type (0, 0), BuildingBlock: KIFKEQ_clean_linker_1, # of connection points: 2
#     Edge 29, Type (0, 0), BuildingBlock: KIFKEQ_clean_linker_1, # of connection points: 2
#     Edge 30, Type (0, 0), BuildingBlock: KIFKEQ_clean_linker_1, # of connection points: 2
#     Edge 31, Type (0, 0), BuildingBlock: KIFKEQ_clean_linker_1, # of connection points: 2
#     Edge 32, Type (0, 0), BuildingBlock: KIFKEQ_clean_linker_1, # of connection points: 2
#     Edge 33, Type (0, 0), BuildingBlock: KIFKEQ_clean_linker_1, # of connection points: 2
#     Edge 34, Type (0, 0), BuildingBlock: KIFKEQ_clean_linker_1, # of connection points: 2
#     Edge 35, Type (0, 0), BuildingBlock: KIFKEQ_clean_linker_1, # of connection points: 2
#     Edge 36, Type (0, 0), BuildingBlock: KIFKEQ_clean_linker_1, # of connection points: 2
#     Edge 37, Type (0, 0), BuildingBlock: KIFKEQ_clean_linker_1, # of connection points: 2
#     Edge 38, Type (0, 0), BuildingBlock: KIFKEQ_clean_linker_1, # of connection points: 2
#     Edge 39, Type (0, 0), BuildingBlock: KIFKEQ_clean_linker_1, # of connection points: 2
#     Edge 40, Type (0, 0), BuildingBlock: KIFKEQ_clean_linker_1, # of connection points: 2
#     Edge 41, Type (0, 0), BuildingBlock: KIFKEQ_clean_linker_1, # of connection points: 2
#     Edge 42, Type (0, 0), BuildingBlock: KIFKEQ_clean_linker_1, # of connection points: 2
#     Edge 43, Type (0, 0), BuildingBlock: KIFKEQ_clean_linker_1, # of connection points: 2
#     Edge 44, Type (0, 0), BuildingBlock: KIFKEQ_clean_linker_1, # of connection points: 2
#     Edge 45, Type (0, 0), BuildingBlock: KIFKEQ_clean_linker_1, # of connection points: 2
#     Edge 46, Type (0, 0), BuildingBlock: KIFKEQ_clean_linker_1, # of connection points: 2
#     Edge 47, Type (0, 0), BuildingBlock: KIFKEQ_clean_linker_1, # of connection points: 2
#     Edge 48, Type (0, 0), BuildingBlock: KIFKEQ_clean_linker_1, # of connection points: 2
#     Edge 49, Type (0, 0), BuildingBlock: KIFKEQ_clean_linker_1, # of connection points: 2
#     Edge 50, Type (0, 0), BuildingBlock: KIFKEQ_clean_linker_1, # of connection points: 2
#     Edge 51, Type (0, 0), BuildingBlock: KIFKEQ_clean_linker_1, # of connection points: 2
#     Edge 52, Type (0, 0), BuildingBlock: KIFKEQ_clean_linker_1, # of connection points: 2
#     Edge 53, Type (0, 0), BuildingBlock: KIFKEQ_clean_linker_1, # of connection points: 2
#     Edge 54, Type (0, 0), BuildingBlock: KIFKEQ_clean_linker_1, # of connection points: 2
#     Edge 55, Type (0, 0), BuildingBlock: KIFKEQ_clean_linker_1, # of connection points: 2
#     Edge 56, Type (0, 0), BuildingBlock: KIFKEQ_clean_linker_1, # of connection points: 2
#     Edge 57, Type (0, 0), BuildingBlock: KIFKEQ_clean_linker_1, # of connection points: 2
#     Edge 58, Type (0, 0), BuildingBlock: KIFKEQ_clean_linker_1, # of connection points: 2
#     Edge 59, Type (0, 0), BuildingBlock: KIFKEQ_clean_linker_1, # of connection points: 2
#     Edge 60, Type (0, 0), BuildingBlock: KIFKEQ_clean_linker_1, # of connection points: 2
#     Edge 61, Type (0, 0), BuildingBlock: KIFKEQ_clean_linker_1, # of connection points: 2
#     Edge 62, Type (0, 0), BuildingBlock: KIFKEQ_clean_linker_1, # of connection points: 2
#     Edge 63, Type (0, 0), BuildingBlock: KIFKEQ_clean_linker_1, # of connection points: 2
# Relax obj value: 0.452
# Max RMSD: 0.271
# Mean RMSD: 0.271
data_MOF--net-whz--node1-OJICUG_clean_sbu_0--edge1-KIFKEQ_clean_linker_1
_symmetry_space_group_name_H-M    P1
_symmetry_Int_Tables_number       1
_symmetry_cell_setting            triclinic
loop_
_symmetry_equiv_pos_as_xyz
'x, y, z'
_cell_length_a     34.244353
_cell_length_b     34.233714
_cell_length_c     55.350748
_cell_angle_alpha  89.995602
_cell_angle_beta   89.97785
_cell_angle_gamma 90.021872
loop_
_atom_site_label
_atom_site_type_symbol
_atom_site_fract_x
_atom_site_fract_y
_atom_site_fract_z
_atom_type_partial_charge
Sc0 Sc 0.35497 0.19017 0.13572 0.0
Sc1 Sc 0.25822 0.18151 0.11696 0.0
Sc2 Sc 0.32611 0.10866 0.10116 0.0
O3 O 0.31307 0.16001 0.11788 0.0
C4 C 0.39753 0.16441 0.08761 0.0
C5 C 0.30586 0.25909 0.11108 0.0
C6 C 0.26674 0.14574 0.06347 0.0
C7 C 0.28522 0.20204 0.1713 0.0
C8 C 0.37536 0.10195 0.14981 0.0
C9 C 0.24366 0.09133 0.1264 0.0
O10 O 0.39123 0.18851 0.10456 0.0
O11 O 0.2777 0.23748 0.10441 0.0
O12 O 0.29688 0.12534 0.06808 0.0
O13 O 0.32103 0.19437 0.16793 0.0
O14 O 0.35543 0.08641 0.13298 0.0
O15 O 0.23498 0.12711 0.12945 0.0
O16 O 0.38077 0.13859 0.15117 0.0
O17 O 0.26005 0.20134 0.15433 0.0
O18 O 0.27415 0.08022 0.11511 0.0
O19 O 0.33397 0.24667 0.12397 0.0
O20 O 0.37904 0.13238 0.08504 0.0
O21 O 0.24885 0.16526 0.0796 0.0
Sc22 Sc 0.55334 0.60677 0.38666 0.0
Sc23 Sc 0.55985 0.51022 0.36638 0.0
Sc24 Sc 0.63357 0.57742 0.35077 0.0
O25 O 0.58232 0.56477 0.36789 0.0
C26 C 0.5785 0.65004 0.33848 0.0
C27 C 0.48255 0.55968 0.3626 0.0
C28 C 0.59352 0.52046 0.31251 0.0
C29 C 0.54259 0.53517 0.42153 0.0
C30 C 0.64216 0.62565 0.39983 0.0
C31 C 0.65064 0.49392 0.37426 0.0
O32 O 0.55549 0.6445 0.35612 0.0
O33 O 0.50312 0.53068 0.35614 0.0
O34 O 0.61683 0.54811 0.31778 0.0
O35 O 0.54868 0.57137 0.41829 0.0
O36 O 0.65673 0.60648 0.38236 0.0
O37 O 0.61477 0.48496 0.37651 0.0
O38 O 0.60568 0.63084 0.40224 0.0
O39 O 0.54358 0.51026 0.4044 0.0
O40 O 0.66207 0.52557 0.36445 0.0
O41 O 0.49604 0.5879 0.37496 0.0
O42 O 0.60939 0.6302 0.33481 0.0
O43 O 0.57226 0.50366 0.32826 0.0
Sc44 Sc 0.16362 0.88717 0.60075 0.0
Sc45 Sc 0.23509 0.81843 0.61746 0.0
Sc46 Sc 0.13899 0.80473 0.63591 0.0
O47 O 0.17924 0.83687 0.61795 0.0
C48 C 0.11437 0.89211 0.64947 0.0
C49 C 0.24472 0.90941 0.62579 0.0
C50 C 0.20885 0.79769 0.67184 0.0
C51 C 0.22433 0.8518 0.56344 0.0
C52 C 0.09528 0.82722 0.58767 0.0
C53 C 0.19223 0.73814 0.61203 0.0
O54 O 0.13377 0.90836 0.63263 0.0
O55 O 0.25491 0.87431 0.62975 0.0
O56 O 0.1727 0.80321 0.66828 0.0
O57 O 0.19352 0.87133 0.5678 0.0
O58 O 0.10317 0.80357 0.6046 0.0
O59 O 0.21916 0.76124 0.60538 0.0
O60 O 0.11156 0.86046 0.58517 0.0
O61 O 0.2431 0.8337 0.57983 0.0
O62 O 0.16324 0.74913 0.6247 0.0
O63 O 0.21441 0.91874 0.61377 0.0
O64 O 0.11021 0.85528 0.65081 0.0
O65 O 0.23413 0.79945 0.65496 0.0
Sc66 Sc 0.85968 0.41739 0.85203 0.0
Sc67 Sc 0.93253 0.48559 0.868 0.0
Sc68 Sc 0.9428 0.38758 0.88507 0.0
O69 O 0.91169 0.43022 0.8683 0.0
C70 C 0.85494 0.36826 0.90108 0.0
C71 C 0.842 0.49949 0.87752 0.0
C72 C 0.95553 0.45728 0.92149 0.0
C73 C 0.89698 0.47747 0.8145 0.0
C74 C 0.91365 0.34523 0.83739 0.0
C75 C 0.01058 0.43734 0.86006 0.0
O76 O 0.83872 0.38638 0.88368 0.0
O77 O 0.87774 0.50879 0.87968 0.0
O78 O 0.95198 0.42121 0.91687 0.0
O79 O 0.87531 0.44826 0.8193 0.0
O80 O 0.93752 0.35026 0.85458 0.0
O81 O 0.98949 0.46731 0.85643 0.0
O82 O 0.88288 0.36548 0.83451 0.0
O83 O 0.91773 0.49452 0.83041 0.0
O84 O -0.00169 0.40695 0.87087 0.0
O85 O 0.83083 0.46833 0.86703 0.0
O86 O 0.89175 0.3643 0.90262 0.0
O87 O 0.95024 0.48382 0.90569 0.0
Sc88 Sc 0.66579 0.88593 0.90826 0.0
Sc89 Sc 0.7375 0.81627 0.89243 0.0
Sc90 Sc 0.64024 0.80107 0.87534 0.0
O91 O 0.68123 0.83442 0.89208 0.0
C92 C 0.59574 0.82879 0.92258 0.0
C93 C 0.72627 0.85015 0.94621 0.0
C94 C 0.69279 0.73568 0.90014 0.0
C95 C 0.74756 0.90793 0.88392 0.0
C96 C 0.61757 0.8878 0.85874 0.0
C97 C 0.71104 0.79242 0.83886 0.0
O98 O 0.61475 0.86034 0.92562 0.0
O99 O 0.74367 0.82933 0.93046 0.0
O100 O 0.66123 0.74671 0.89019 0.0
O101 O 0.71527 0.91746 0.89363 0.0
O102 O 0.61551 0.85081 0.85725 0.0
O103 O 0.73742 0.8003 0.85437 0.0
O104 O 0.63421 0.90506 0.87634 0.0
O105 O 0.75877 0.87269 0.88201 0.0
O106 O 0.67495 0.79265 0.84391 0.0
O107 O 0.69745 0.87217 0.94108 0.0
O108 O 0.60195 0.80522 0.9054 0.0
O109 O 0.72219 0.75788 0.90279 0.0
Sc110 Sc 0.35998 0.41764 0.65948 0.0
Sc111 Sc 0.4335 0.48485 0.64327 0.0
Sc112 Sc 0.44129 0.3872 0.62472 0.0
O113 O 0.4116 0.42992 0.64254 0.0
C114 C 0.41358 0.3443 0.67259 0.0
C115 C 0.39978 0.47589 0.69723 0.0
C116 C 0.51099 0.43492 0.64908 0.0
C117 C 0.34263 0.50063 0.63535 0.0
C118 C 0.35268 0.36908 0.61032 0.0
C119 C 0.45315 0.45818 0.58887 0.0
O120 O 0.38357 0.36534 0.67639 0.0
O121 O 0.4215 0.492 0.68143 0.0
O122 O 0.49775 0.40502 0.63823 0.0
O123 O 0.33126 0.4689 0.64505 0.0
O124 O 0.38929 0.36479 0.60781 0.0
O125 O 0.4488 0.48426 0.6051 0.0
O126 O 0.33766 0.3873 0.62807 0.0
O127 O 0.37845 0.50977 0.63331 0.0
O128 O 0.44966 0.42196 0.59317 0.0
O129 O 0.37623 0.44833 0.69212 0.0
O130 O 0.43653 0.34901 0.65487 0.0
O131 O 0.49068 0.46522 0.6532 0.0
Sc132 Sc 0.85267 0.19136 0.37429 0.0
Sc133 Sc 0.75507 0.179 0.39181 0.0
Sc134 Sc 0.82521 0.10886 0.40891 0.0
O135 O 0.81096 0.15976 0.39171 0.0
C136 C 0.87434 0.10344 0.3599 0.0
C137 C 0.78219 0.2006 0.33781 0.0
C138 C 0.74371 0.0875 0.38399 0.0
C139 C 0.80118 0.25867 0.39836 0.0
C140 C 0.89605 0.16554 0.42234 0.0
C141 C 0.76482 0.14654 0.44607 0.0
O142 O 0.87746 0.14023 0.35744 0.0
O143 O 0.75586 0.1948 0.35371 0.0
O144 O 0.77536 0.07776 0.39443 0.0
O145 O 0.83203 0.24691 0.38784 0.0
O146 O 0.87649 0.13446 0.4259 0.0
O147 O 0.74765 0.16669 0.42991 0.0
O148 O 0.89043 0.18837 0.40468 0.0
O149 O 0.77175 0.23692 0.40203 0.0
O150 O 0.79373 0.12443 0.44139 0.0
O151 O 0.81837 0.19847 0.34249 0.0
O152 O 0.85653 0.08773 0.37758 0.0
O153 O 0.73317 0.12284 0.38146 0.0
Sc154 Sc 0.05258 0.60134 0.12464 0.0
Sc155 Sc 0.0666 0.50462 0.14318 0.0
Sc156 Sc 0.13566 0.5763 0.15941 0.0
O157 O 0.08494 0.56076 0.14248 0.0
C158 C 0.14001 0.62454 0.11003 0.0
C159 C 0.04615 0.52994 0.08881 0.0
C160 C 0.15812 0.49455 0.13523 0.0
C161 C 0.98592 0.54874 0.14893 0.0
C162 C 0.0771 0.64602 0.17241 0.0
C163 C 0.09901 0.51632 0.19721 0.0
O164 O 0.10318 0.62747 0.10788 0.0
O165 O 0.05095 0.50426 0.1052 0.0
O166 O 0.16769 0.52652 0.14538 0.0
O167 O -0.00285 0.57952 0.13806 0.0
O168 O 0.10896 0.62766 0.17585 0.0
O169 O 0.07905 0.4985 0.18125 0.0
O170 O 0.05417 0.63932 0.15495 0.0
O171 O 0.00853 0.52021 0.15315 0.0
O172 O 0.12076 0.54542 0.19226 0.0
O173 O 0.04769 0.56634 0.09293 0.0
O174 O 0.15611 0.60698 0.12766 0.0
O175 O 0.1229 0.48357 0.13298 0.0
Sc176 Sc 0.85244 0.68836 0.63588 0.0
Sc177 Sc 0.75534 0.67511 0.61817 0.0
Sc178 Sc 0.82618 0.60594 0.60122 0.0
O179 O 0.81131 0.65648 0.61836 0.0
C180 C 0.89593 0.66394 0.58782 0.0
C181 C 0.79957 0.75523 0.61178 0.0
C182 C 0.76546 0.64193 0.5641 0.0
C183 C 0.78255 0.69663 0.67221 0.0
C184 C 0.87514 0.60063 0.65003 0.0
C185 C 0.74476 0.58411 0.62637 0.0
O186 O 0.88895 0.68759 0.60488 0.0
O187 O 0.77141 0.73253 0.60668 0.0
O188 O 0.79628 0.62242 0.56844 0.0
O189 O 0.81874 0.69242 0.66817 0.0
O190 O 0.85601 0.58476 0.63296 0.0
O191 O 0.73474 0.61936 0.62993 0.0
O192 O 0.87959 0.63742 0.65174 0.0
O193 O 0.75671 0.69333 0.65577 0.0
O194 O 0.77553 0.57469 0.61481 0.0
O195 O 0.82968 0.74391 0.62332 0.0
O196 O 0.87828 0.63151 0.5851 0.0
O197 O 0.74672 0.66009 0.58051 0.0
Sc198 Sc 0.05208 0.10722 0.88585 0.0
Sc199 Sc 0.05893 0.01059 0.86589 0.0
Sc200 Sc 0.13284 0.07762 0.85049 0.0
O201 O 0.08134 0.06513 0.86734 0.0
C202 C 0.07781 0.15022 0.83774 0.0
C203 C 0.98168 0.0597 0.86149 0.0
C204 C 0.09346 0.02027 0.81221 0.0
C205 C 0.04097 0.03601 0.92083 0.0
C206 C 0.1408 0.12601 0.89956 0.0
C207 C 0.14942 0.99432 0.87447 0.0
O208 O 0.0545 0.14468 0.85523 0.0
O209 O 0.00258 0.03093 0.85509 0.0
O210 O 0.11652 0.04816 0.81744 0.0
O211 O 0.04727 0.07213 0.91753 0.0
O212 O 0.15553 0.10669 0.8822 0.0
O213 O 0.1135 0.98556 0.87659 0.0
O214 O 0.10429 0.13152 0.90168 0.0
O215 O 0.04189 0.011 0.90376 0.0
O216 O 0.16113 0.02572 0.86446 0.0
O217 O 0.99482 0.08799 0.87398 0.0
O218 O 0.10886 0.13046 0.83432 0.0
O219 O 0.07215 0.00354 0.82795 0.0
Sc220 Sc 0.66223 0.38889 0.10047 0.0
Sc221 Sc 0.73457 0.32149 0.11793 0.0
Sc222 Sc 0.63843 0.30702 0.13634 0.0
O223 O 0.67844 0.33921 0.11817 0.0
C224 C 0.61306 0.39438 0.14926 0.0
C225 C 0.74299 0.41292 0.12516 0.0
C226 C 0.70838 0.30101 0.17241 0.0
C227 C 0.7235 0.35335 0.06353 0.0
C228 C 0.59452 0.32819 0.08789 0.0
C229 C 0.69225 0.24055 0.11295 0.0
O230 O 0.63217 0.41053 0.13224 0.0
O231 O 0.75374 0.37813 0.12971 0.0
O232 O 0.67215 0.30598 0.16878 0.0
O233 O 0.69237 0.37253 0.06767 0.0
O234 O 0.60255 0.30502 0.10504 0.0
O235 O 0.71933 0.26361 0.10641 0.0
O236 O 0.61054 0.36146 0.08509 0.0
O237 O 0.74247 0.33595 0.08014 0.0
O238 O 0.663 0.2516 0.12535 0.0
O239 O 0.71255 0.4213 0.11306 0.0
O240 O 0.60936 0.35755 0.15092 0.0
O241 O 0.73371 0.30325 0.15558 0.0
Sc242 Sc 0.3604 0.91701 0.3518 0.0
Sc243 Sc 0.43523 0.98427 0.36568 0.0
Sc244 Sc 0.44345 0.8875 0.38517 0.0
O245 O 0.41297 0.92962 0.36751 0.0
C246 C 0.35557 0.86876 0.40116 0.0
C247 C 0.345 0.0003 0.376 0.0
C248 C 0.45711 0.9589 0.42 0.0
C249 C 0.39807 0.97445 0.31275 0.0
C250 C 0.41405 0.84424 0.33782 0.0
C251 C 0.51231 0.93474 0.35924 0.0
O252 O 0.33948 0.8868 0.38372 0.0
O253 O 0.38097 0.00935 0.37706 0.0
O254 O 0.45175 0.92267 0.41655 0.0
O255 O 0.37469 0.94711 0.31856 0.0
O256 O 0.43804 0.84943 0.35497 0.0
O257 O 0.49143 0.96424 0.3542 0.0
O258 O 0.38337 0.86462 0.33474 0.0
O259 O 0.42065 0.99079 0.32794 0.0
O260 O 0.49965 0.90574 0.37127 0.0
O261 O 0.33282 0.96854 0.36669 0.0
O262 O 0.39233 0.86473 0.40274 0.0
O263 O 0.45376 0.98426 0.40326 0.0
Sc264 Sc 0.1666 0.38677 0.40917 0.0
Sc265 Sc 0.23953 0.31958 0.39196 0.0
Sc266 Sc 0.14255 0.30291 0.37517 0.0
O267 O 0.18293 0.33643 0.39215 0.0
C268 C 0.09843 0.32716 0.42309 0.0
C269 C 0.2288 0.35241 0.44609 0.0
C270 C 0.19732 0.23824 0.39928 0.0
C271 C 0.24735 0.41097 0.38389 0.0
C272 C 0.11726 0.38978 0.36038 0.0
C273 C 0.21224 0.29652 0.33817 0.0
O274 O 0.11539 0.35997 0.4257 0.0
O275 O 0.24773 0.33446 0.42968 0.0
O276 O 0.16643 0.24848 0.38824 0.0
O277 O 0.21618 0.41955 0.39529 0.0
O278 O 0.11472 0.35281 0.35884 0.0
O279 O 0.23853 0.30215 0.3541 0.0
O280 O 0.13533 0.40675 0.37752 0.0
O281 O 0.25843 0.37602 0.38045 0.0
O282 O 0.17607 0.29825 0.34293 0.0
O283 O 0.1976 0.3714 0.44181 0.0
O284 O 0.10593 0.3036 0.4061 0.0
O285 O 0.22548 0.26145 0.40342 0.0
Sc286 Sc 0.85835 0.91843 0.1584 0.0
Sc287 Sc 0.92922 0.98838 0.14211 0.0
Sc288 Sc 0.94158 0.89098 0.1247 0.0
O289 O 0.9097 0.93262 0.1418 0.0
C290 C 0.91468 0.84753 0.17237 0.0
C291 C 0.89458 0.97897 0.19584 0.0
C292 C 0.00831 0.94232 0.14957 0.0
C293 C 0.83852 0.00046 0.13324 0.0
C294 C 0.85395 0.8695 0.10937 0.0
C295 C 0.95175 0.96093 0.08829 0.0
O296 O 0.88289 0.86627 0.17514 0.0
O297 O 0.91407 0.99695 0.17971 0.0
O298 O 0.99687 0.91213 0.13821 0.0
O299 O 0.82813 0.9694 0.1442 0.0
O300 O 0.8908 0.86574 0.10788 0.0
O301 O 0.94709 0.98715 0.10438 0.0
O302 O 0.83754 0.8879 0.12659 0.0
O303 O 0.87403 0.01008 0.1304 0.0
O304 O 0.94837 0.92478 0.09273 0.0
O305 O 0.87413 0.9488 0.19126 0.0
O306 O 0.93854 0.85386 0.15534 0.0
O307 O 0.98635 0.97139 0.15383 0.0
Sc308 Sc 0.3518 0.69235 0.87475 0.0
Sc309 Sc 0.25447 0.67749 0.89158 0.0
Sc310 Sc 0.32597 0.60846 0.90831 0.0
O311 O 0.31071 0.65941 0.8916 0.0
C312 C 0.37599 0.6053 0.85962 0.0
C313 C 0.28225 0.70107 0.83797 0.0
C314 C 0.24511 0.58643 0.88244 0.0
C315 C 0.29831 0.75782 0.89925 0.0
C316 C 0.39501 0.66673 0.92277 0.0
C317 C 0.26381 0.64307 0.94537 0.0
O318 O 0.37868 0.64225 0.85807 0.0
O319 O 0.25591 0.69571 0.85391 0.0
O320 O 0.27619 0.57688 0.89364 0.0
O321 O 0.32895 0.74707 0.8881 0.0
O322 O 0.37709 0.63442 0.92543 0.0
O323 O 0.24559 0.66205 0.92913 0.0
O324 O 0.38841 0.69034 0.90565 0.0
O325 O 0.26976 0.73509 0.90343 0.0
O326 O 0.29456 0.62342 0.94096 0.0
O327 O 0.31838 0.69828 0.84258 0.0
O328 O 0.35776 0.58846 0.87676 0.0
O329 O 0.23451 0.62168 0.87963 0.0
Sc330 Sc 0.5546 0.0999 0.62486 0.0
Sc331 Sc 0.57677 0.00312 0.63969 0.0
Sc332 Sc 0.63955 0.07898 0.65883 0.0
O333 O 0.59027 0.06061 0.64121 0.0
C334 C 0.64034 0.12894 0.61004 0.0
C335 C 0.55308 0.03116 0.58644 0.0
C336 C 0.66896 0.00061 0.63344 0.0
C337 C 0.49254 0.04063 0.64725 0.0
C338 C 0.57713 0.14431 0.67308 0.0
C339 C 0.60609 0.01439 0.6947 0.0
O340 O 0.6033 0.12937 0.60826 0.0
O341 O 0.56237 0.00451 0.60145 0.0
O342 O 0.67548 0.03191 0.64509 0.0
O343 O 0.50163 0.07384 0.63862 0.0
O344 O 0.61027 0.12822 0.6759 0.0
O345 O 0.58873 0.99563 0.67792 0.0
O346 O 0.55431 0.13647 0.6558 0.0
O347 O 0.51693 0.01287 0.64925 0.0
O348 O 0.6253 0.04568 0.69085 0.0
O349 O 0.55011 0.06678 0.5924 0.0
O350 O 0.65806 0.11219 0.62744 0.0
O351 O 0.63497 0.98745 0.6294 0.0
H352 H 0.32371 0.18982 0.21381 0.0
H353 H 0.22021 0.24361 0.18405 0.0
H354 H 0.30652 0.21414 0.25371 0.0
H355 H 0.20371 0.26919 0.22382 0.0
H356 H 0.16394 0.2723 0.30203 0.0
H357 H 0.18133 0.24927 0.26219 0.0
H358 H 0.303 0.27258 0.2772 0.0
H359 H 0.28563 0.29445 0.31782 0.0
C360 C 0.29728 0.20692 0.21579 0.0
C361 C 0.27322 0.21467 0.19576 0.0
C362 C 0.28764 0.22121 0.23865 0.0
C363 C 0.25389 0.2439 0.24201 0.0
C364 C 0.22967 0.25138 0.22199 0.0
C365 C 0.23909 0.23672 0.19915 0.0
C366 C 0.19447 0.27281 0.29692 0.0
C367 C 0.22343 0.2852 0.31326 0.0
C368 C 0.20441 0.25974 0.27389 0.0
C369 C 0.24356 0.25902 0.26639 0.0
C370 C 0.27257 0.27213 0.28252 0.0
C371 C 0.26263 0.28496 0.30575 0.0
H372 H 0.45437 0.53171 0.56878 0.0
H373 H 0.47899 0.41056 0.55279 0.0
H374 H 0.47579 0.54973 0.52819 0.0
H375 H 0.5016 0.42862 0.5129 0.0
H376 H 0.50403 0.46841 0.4346 0.0
H377 H 0.48059 0.45059 0.47466 0.0
H378 H 0.5334 0.55488 0.50424 0.0
H379 H 0.55553 0.57334 0.46406 0.0
C380 C 0.4644 0.50897 0.55667 0.0
C381 C 0.46482 0.46972 0.56408 0.0
C382 C 0.47696 0.51929 0.53345 0.0
C383 C 0.49054 0.49062 0.51723 0.0
C384 C 0.49073 0.45142 0.52468 0.0
C385 C 0.47788 0.4411 0.5477 0.0
C386 C 0.51092 0.48733 0.4497 0.0
C387 C 0.53159 0.52229 0.44613 0.0
C388 C 0.4975 0.47713 0.47271 0.0
C389 C 0.50488 0.50141 0.49273 0.0
C390 C 0.5264 0.53591 0.48919 0.0
C391 C 0.53942 0.54631 0.46617 0.0
H392 H 0.27525 0.75875 0.68475 0.0
H393 H 0.16978 0.80905 0.71424 0.0
H394 H 0.29209 0.73336 0.72447 0.0
H395 H 0.1873 0.78497 0.75416 0.0
H396 H 0.20914 0.70269 0.81735 0.0
H397 H 0.19189 0.726 0.77703 0.0
H398 H 0.31322 0.75281 0.76314 0.0
H399 H 0.33052 0.72833 0.80268 0.0
C400 C 0.25604 0.765 0.69981 0.0
C401 C 0.22122 0.78589 0.69635 0.0
C402 C 0.26565 0.75045 0.72262 0.0
C403 C 0.24093 0.75692 0.74255 0.0
C404 C 0.20658 0.77868 0.73915 0.0
C405 C 0.19674 0.79283 0.71629 0.0
C406 C 0.23209 0.7133 0.80559 0.0
C407 C 0.27117 0.7135 0.81327 0.0
C408 C 0.22221 0.72695 0.78254 0.0
C409 C 0.25118 0.74139 0.76682 0.0
C410 C 0.29022 0.7413 0.77453 0.0
C411 C 0.3001 0.72737 0.79736 0.0
H412 H 0.98752 0.4094 0.95534 0.0
H413 H 0.95324 0.52937 0.94328 0.0
H414 H 0.01126 0.42634 0.99517 0.0
H415 H 0.97578 0.54614 0.98383 0.0
H416 H 0.05566 0.57135 0.04722 0.0
H417 H 0.03406 0.55374 0.00681 0.0
H418 H 0.9901 0.44392 0.03426 0.0
H419 H 0.01313 0.461 0.07454 0.0
C420 C 0.98455 0.43939 0.96131 0.0
C421 C 0.96838 0.46807 0.94611 0.0
C422 C -0.00193 0.44904 0.98427 0.0
C423 C 0.99539 0.48756 0.99279 0.0
C424 C 0.97887 0.51627 0.97769 0.0
C425 C 0.9657 0.50667 0.95451 0.0
C426 C 0.04165 0.54329 0.04457 0.0
C427 C 0.03605 0.51754 0.06405 0.0
C428 C 0.02894 0.53336 0.02144 0.0
C429 C 0.00995 0.49761 0.01729 0.0
C430 C 0.00503 0.47152 0.03673 0.0
C431 C 0.01819 0.48127 0.05984 0.0
H432 H 0.66318 0.76215 0.80438 0.0
H433 H 0.78357 0.79424 0.81726 0.0
H434 H 0.68027 0.73825 0.76473 0.0
H435 H 0.80053 0.7714 0.77674 0.0
H436 H 0.82386 0.68802 0.71401 0.0
H437 H 0.80705 0.71223 0.75401 0.0
H438 H 0.69892 0.75865 0.72572 0.0
H439 H 0.71514 0.73314 0.68591 0.0
C440 C 0.69333 0.76465 0.79865 0.0
C441 C 0.72205 0.78019 0.81411 0.0
C442 C 0.70307 0.75105 0.77574 0.0
C443 C 0.74174 0.75294 0.76745 0.0
C444 C 0.77051 0.76898 0.78271 0.0
C445 C 0.76079 0.78234 0.80586 0.0
C446 C 0.79634 0.70314 0.71638 0.0
C447 C 0.77074 0.70855 0.69681 0.0
C448 C 0.7869 0.71737 0.73928 0.0
C449 C 0.75179 0.73767 0.74309 0.0
C450 C 0.72599 0.74269 0.72353 0.0
C451 C 0.73524 0.72806 0.70068 0.0
H452 H 0.66892 0.31069 0.2149 0.0
H453 H 0.77524 0.2627 0.18512 0.0
H454 H 0.68646 0.28553 0.25458 0.0
H455 H 0.79207 0.23619 0.22454 0.0
H456 H 0.83029 0.22855 0.30263 0.0
H457 H 0.81286 0.25402 0.26338 0.0
H458 H 0.69165 0.22633 0.27701 0.0
H459 H 0.70903 0.20206 0.31711 0.0
C460 C 0.69609 0.29479 0.21684 0.0
C461 C 0.72079 0.28883 0.19688 0.0
C462 C 0.70594 0.27999 0.23956 0.0
C463 C 0.74053 0.25851 0.2428 0.0
C464 C 0.76546 0.25304 0.22284 0.0
C465 C 0.75584 0.26826 0.2002 0.0
C466 C 0.79986 0.22755 0.29731 0.0
C467 C 0.77103 0.21318 0.31312 0.0
C468 C 0.7899 0.24208 0.27463 0.0
C469 C 0.75085 0.24227 0.26692 0.0
C470 C 0.72198 0.22724 0.28251 0.0
C471 C 0.73194 0.21301 0.30542 0.0
H472 H 0.95301 0.03425 0.06797 0.0
H473 H 0.97761 0.91292 0.05246 0.0
H474 H 0.97431 0.05181 0.02728 0.0
H475 H 4e-05 0.93054 0.01246 0.0
H476 H 0.00177 0.96972 0.93403 0.0
H477 H 0.97836 0.95235 0.97419 0.0
H478 H 0.03232 0.05629 1.00343 0.0
H479 H 0.05448 0.07429 0.9632 0.0
C480 C 0.96301 0.01139 0.05595 0.0
C481 C 0.96349 0.97222 0.0635 0.0
C482 C 0.97548 0.02144 0.03268 0.0
C483 C 0.98898 0.99257 0.01658 0.0
C484 C 0.98923 0.95346 0.02417 0.0
C485 C 0.97649 0.9434 0.04725 0.0
C486 C 0.00891 0.98865 0.94908 0.0
C487 C 0.02991 0.02338 0.94543 0.0
C488 C 0.99551 0.97872 0.97212 0.0
C489 C 0.00324 0.00307 0.99206 0.0
C490 C 0.02507 0.03732 0.98843 0.0
C491 C 0.03809 0.04744 0.96538 0.0
H492 H 0.44905 0.91896 0.46231 0.0
H493 H 0.49536 0.02613 0.43258 0.0
H494 H 0.47459 0.93637 0.50183 0.0
H495 H 0.52215 0.04301 0.47203 0.0
H496 H 0.52597 0.07981 0.55122 0.0
H497 H 0.50307 0.06289 0.51126 0.0
H498 H 0.53441 0.94228 0.52379 0.0
H499 H 0.5562 0.95903 0.5645 0.0
C500 C 0.46477 0.94627 0.46421 0.0
C501 C 0.47012 0.97123 0.4443 0.0
C502 C 0.47977 0.95605 0.48684 0.0
C503 C 0.50081 0.99089 0.49011 0.0
C504 C 0.50574 0.01612 0.47024 0.0
C505 C 0.49036 0.0065 0.44761 0.0
C506 C 0.5283 0.04964 0.54553 0.0
C507 C 0.54275 0.0207 0.56124 0.0
C508 C 0.51531 0.04 0.52243 0.0
C509 C 0.51669 0.00121 0.51428 0.0
C510 C 0.53225 0.97237 0.52967 0.0
C511 C 0.54504 0.98199 0.55295 0.0
H512 H 0.12902 0.18429 0.93265 0.0
H513 H 0.20852 0.09118 0.91416 0.0
H514 H 0.16303 0.19365 0.97084 0.0
H515 H 0.24115 0.09874 0.95284 0.0
H516 H 0.30585 0.12988 0.02127 0.0
H517 H 0.28034 0.13164 0.98015 0.0
H518 H 0.1667 0.16354 0.00801 0.0
H519 H 0.19285 0.16383 0.04872 0.0
C520 C 0.1541 0.16613 0.93663 0.0
C521 C 0.16599 0.137 0.92033 0.0
C522 C 0.17336 0.17107 0.95874 0.0
C523 C 0.20449 0.1464 0.96543 0.0
C524 C 0.21765 0.11865 0.94847 0.0
C525 C 0.19886 0.11425 0.92615 0.0
C526 C 0.27546 0.13744 0.01854 0.0
C527 C 0.25142 0.14668 0.03833 0.0
C528 C 0.26069 0.1383 0.99491 0.0
C529 C 0.22128 0.1478 0.99046 0.0
C530 C 0.19738 0.15704 0.01039 0.0
C531 C 0.21231 0.15684 0.03391 0.0
H532 H 0.64568 0.53364 0.27577 0.0
H533 H 0.53603 0.47658 0.2914 0.0
H534 H 0.644 0.50764 0.23484 0.0
H535 H 0.53344 0.45191 0.2502 0.0
H536 H 0.57208 0.36991 0.18889 0.0
H537 H 0.56378 0.40389 0.22683 0.0
H538 H 0.61553 0.50759 0.19581 0.0
H539 H 0.62541 0.47276 0.15782 0.0
C540 C 0.6209 0.51601 0.27037 0.0
C541 C 0.59126 0.50682 0.28703 0.0
C542 C 0.61973 0.50132 0.24676 0.0
C543 C 0.58866 0.4774 0.23906 0.0
C544 C 0.55829 0.46949 0.25551 0.0
C545 C 0.5597 0.48377 0.27919 0.0
C546 C 0.58111 0.40019 0.18988 0.0
C547 C 0.59984 0.41833 0.17021 0.0
C548 C 0.57614 0.41988 0.21178 0.0
C549 C 0.5894 0.4585 0.21467 0.0
C550 C 0.60574 0.47759 0.19449 0.0
C551 C 0.61095 0.45774 0.17254 0.0
H552 H 0.2096 0.90196 0.52583 0.0
H553 H 0.27235 0.79655 0.54388 0.0
H554 H 0.23746 0.90039 0.48528 0.0
H555 H 0.29874 0.79383 0.50315 0.0
H556 H 0.38052 0.83254 0.44235 0.0
H557 H 0.34579 0.82549 0.48008 0.0
H558 H 0.24109 0.8708 0.44668 0.0
H559 H 0.27669 0.87957 0.40884 0.0
C560 C 0.22891 0.87813 0.52103 0.0
C561 C 0.23918 0.84972 0.53823 0.0
C562 C 0.24469 0.87701 0.49766 0.0
C563 C 0.27071 0.84711 0.4908 0.0
C564 C 0.27963 0.81786 0.50782 0.0
C565 C 0.26436 0.81933 0.53123 0.0
C566 C 0.3499 0.84046 0.44279 0.0
C567 C 0.33163 0.85696 0.42243 0.0
C568 C 0.32977 0.8362 0.46458 0.0
C569 C 0.29053 0.84786 0.4667 0.0
C570 C 0.2715 0.86224 0.44595 0.0
C571 C 0.29181 0.86681 0.4241 0.0
H572 H 0.84263 0.53207 0.66501 0.0
H573 H 0.93281 0.61511 0.68319 0.0
H574 H 0.85098 0.50037 0.70384 0.0
H575 H 0.94315 0.58192 0.72158 0.0
H576 H 0.91417 0.5515 0.79963 0.0
H577 H 0.91377 0.57732 0.7588 0.0
H578 H 0.88431 0.46271 0.73131 0.0
H579 H 0.88242 0.43766 0.77251 0.0
C580 C 0.86529 0.54272 0.67698 0.0
C581 C 0.88693 0.57628 0.67101 0.0
C582 C 0.87016 0.52444 0.69939 0.0
C583 C 0.89737 0.53875 0.71632 0.0
C584 C 0.92101 0.57065 0.70951 0.0
C585 C 0.91552 0.58945 0.68729 0.0
C586 C 0.90768 0.53181 0.78485 0.0
C587 C 0.89805 0.4926 0.78936 0.0
C588 C 0.90783 0.54653 0.76127 0.0
C589 C 0.89916 0.52226 0.74141 0.0
C590 C 0.89041 0.48268 0.74599 0.0
C591 C 0.88947 0.46817 0.76966 0.0
H592 H 0.77553 0.88159 0.10088 0.0
H593 H 0.87894 0.83066 0.06905 0.0
H594 H 0.74069 0.87237 0.06283 0.0
H595 H 0.84489 0.82299 0.03109 0.0
H596 H 0.7716 0.79377 0.96708 0.0
H597 H 0.79703 0.79173 0.00806 0.0
H598 H 0.73958 0.90124 0.02378 0.0
H599 H 0.71279 0.90236 0.98297 0.0
C600 C 0.79069 0.86783 0.08596 0.0
C601 C 0.83022 0.85709 0.08813 0.0
C602 C 0.77082 0.863 0.06399 0.0
C603 C 0.78999 0.84741 0.04363 0.0
C604 C 0.82883 0.83473 0.04629 0.0
C605 C 0.84855 0.83932 0.0682 0.0
C606 C 0.76423 0.81737 0.9793 0.0
C607 C 0.74046 0.84846 0.97159 0.0
C608 C 0.77895 0.81626 1.00286 0.0
C609 C 0.77079 0.84649 0.01934 0.0
C610 C 0.74616 0.87712 0.0118 0.0
C611 C 0.73101 0.87797 0.98828 0.0
H612 H 0.41439 0.63114 0.81929 0.0
H613 H 0.36701 0.52635 0.85154 0.0
H614 H 0.42382 0.59672 0.78155 0.0
H615 H 0.37791 0.49128 0.81376 0.0
H616 H 0.45535 0.523 0.7178 0.0
H617 H 0.45673 0.54928 0.75865 0.0
H618 H 0.34884 0.48914 0.7748 0.0
H619 H 0.34829 0.46172 0.73423 0.0
C620 C 0.40689 0.60041 0.81859 0.0
C621 C 0.38954 0.58175 0.83856 0.0
C622 C 0.4125 0.58051 0.79681 0.0
C623 C 0.40124 0.54118 0.79434 0.0
C624 C 0.38617 0.52177 0.81477 0.0
C625 C 0.38035 0.54179 0.83659 0.0
C626 C 0.43202 0.51517 0.7301 0.0
C627 C 0.40152 0.49046 0.72257 0.0
C628 C 0.43273 0.53038 0.75357 0.0
C629 C 0.40275 0.52168 0.77015 0.0
C630 C 0.37278 0.49614 0.76277 0.0
C631 C 0.37228 0.48061 0.73936 0.0
H632 H 0.71679 0.202 0.46577 0.0
H633 H 0.78053 0.09718 0.48393 0.0
H634 H 0.69179 0.20549 0.50687 0.0
H635 H 0.75431 0.09974 0.52481 0.0
H636 H 0.61286 0.16579 0.56961 0.0
H637 H 0.64588 0.17369 0.53128 0.0
H638 H 0.753 0.13116 0.56304 0.0
H639 H 0.7193 0.12169 0.60145 0.0
C640 C 0.72535 0.17955 0.4785 0.0
C641 C 0.75043 0.14909 0.47141 0.0
C642 C 0.7109 0.18149 0.50213 0.0
C643 C 0.72071 0.15279 0.5193 0.0
C644 C 0.74649 0.12277 0.51231 0.0
C645 C 0.7613 0.12107 0.48873 0.0
C646 C 0.64367 0.15878 0.56868 0.0
C647 C 0.66318 0.14267 0.58873 0.0
C648 C 0.66277 0.16349 0.54655 0.0
C649 C 0.70213 0.15257 0.54379 0.0
C650 C 0.72245 0.13904 0.56428 0.0
C651 C 0.70322 0.13411 0.58646 0.0
H652 H 0.12658 0.46863 0.35217 0.0
H653 H 0.07954 0.36368 0.31993 0.0
H654 H 0.11711 0.50324 0.31408 0.0
H655 H 0.07161 0.39759 0.28191 0.0
H656 H 0.04282 0.46995 0.21743 0.0
H657 H 0.03984 0.44473 0.25846 0.0
H658 H 0.1475 0.50468 0.27545 0.0
H659 H 0.14954 0.53122 0.23461 0.0
C660 C 0.11358 0.45307 0.33716 0.0
C661 C 0.10411 0.41319 0.3392 0.0
C662 C 0.10861 0.47282 0.31517 0.0
C663 C 0.09415 0.45318 0.29468 0.0
C664 C 0.0825 0.41398 0.29722 0.0
C665 C 0.08723 0.39436 0.31916 0.0
C666 C 0.06579 0.47793 0.22994 0.0
C667 C 0.09666 0.50231 0.2226 0.0
C668 C 0.06414 0.46334 0.25352 0.0
C669 C 0.0936 0.47227 0.27037 0.0
C670 C 0.12396 0.49752 0.26318 0.0
C671 C 0.12534 0.51252 0.23964 0.0
H672 H 0.80568 0.62829 0.52208 0.0
H673 H 0.69159 0.65966 0.54905 0.0
H674 H 0.78107 0.63125 0.48079 0.0
H675 H 0.66642 0.6607 0.50808 0.0
H676 H 0.63048 0.68395 0.43283 0.0
H677 H 0.66404 0.69274 0.47122 0.0
H678 H 0.74232 0.59806 0.45306 0.0
H679 H 0.71005 0.59094 0.41421 0.0
C680 C 0.77525 0.63555 0.5192 0.0
C681 C 0.7506 0.64366 0.5389 0.0
C682 C 0.76103 0.63713 0.49548 0.0
C683 C 0.72163 0.64629 0.49084 0.0
C684 C 0.69712 0.65447 0.51067 0.0
C685 C 0.71148 0.6535 0.53431 0.0
C686 C 0.65554 0.66575 0.43681 0.0
C687 C 0.66751 0.63671 0.42047 0.0
C688 C 0.67452 0.67038 0.45901 0.0
C689 C 0.70546 0.64551 0.4657 0.0
C690 C 0.71889 0.61804 0.44866 0.0
C691 C 0.70034 0.61392 0.42626 0.0
H692 H 0.14551 0.03372 0.7754 0.0
H693 H 0.0368 0.97509 0.79134 0.0
H694 H 0.14437 0.00687 0.73465 0.0
H695 H 0.03479 0.94952 0.75035 0.0
H696 H 0.07482 0.86715 0.68956 0.0
H697 H 0.06631 0.90148 0.72739 0.0
H698 H 0.11555 0.00578 0.69562 0.0
H699 H 0.12556 0.97071 0.65774 0.0
C700 C 0.12106 0.01556 0.77011 0.0
C701 C 0.09152 0.00619 0.7868 0.0
C702 C 0.12021 0.00036 0.74661 0.0
C703 C 0.08957 0.97574 0.73908 0.0
C704 C 0.0593 0.96765 0.75555 0.0
C705 C 0.06038 0.98245 0.77911 0.0
C706 C 0.08324 0.89762 0.69037 0.0
C707 C 0.10126 0.91592 0.6705 0.0
C708 C 0.07817 0.9175 0.7122 0.0
C709 C 0.09063 0.95643 0.71482 0.0
C710 C 0.10636 0.97557 0.69449 0.0
C711 C 0.11166 0.95556 0.67262 0.0
H712 H 0.70829 0.40243 0.02544 0.0
H713 H 0.7724 0.29834 0.04452 0.0
H714 H 0.73632 0.40031 0.98496 0.0
H715 H 0.79894 0.295 1.00384 0.0
H716 H 0.77597 0.37858 0.90873 0.0
H717 H 0.74048 0.37026 0.94665 0.0
H718 H 0.84549 0.32614 0.98028 0.0
H719 H 0.8801 0.3327 0.94247 0.0
C720 C 0.72794 0.37876 0.02088 0.0
C721 C 0.73851 0.35089 0.03836 0.0
C722 C 0.74383 0.37731 0.99754 0.0
C723 C 0.77027 0.3476 0.99096 0.0
C724 C 0.77952 0.31889 0.00826 0.0
C725 C 0.76414 0.32071 0.03165 0.0
C726 C 0.79119 0.36616 0.92406 0.0
C727 C 0.83106 0.35651 0.92242 0.0
C728 C 0.77094 0.36187 0.94596 0.0
C729 C 0.79007 0.34799 0.96681 0.0
C730 C 0.82938 0.33648 0.96472 0.0
C731 C 0.84944 0.34045 0.94288 0.0
H732 H 0.41774 0.12518 0.18912 0.0
H733 H 0.36003 0.0242 0.15874 0.0
H734 H 0.42614 0.09087 0.22694 0.0
H735 H 0.36992 0.98902 0.19661 0.0
H736 H 0.45555 0.01653 0.29041 0.0
H737 H 0.45648 0.0415 0.24929 0.0
H738 H 0.34332 0.9896 0.23632 0.0
H739 H 0.34322 0.96323 0.27723 0.0
C740 C 0.40771 0.09523 0.19024 0.0
C741 C 0.38786 0.07771 0.17079 0.0
C742 C 0.41272 0.07535 0.21206 0.0
C743 C 0.39839 0.03714 0.21509 0.0
C744 C 0.38064 0.01868 0.19516 0.0
C745 C 0.37541 0.03872 0.17329 0.0
C746 C 0.43092 0.01025 0.27876 0.0
C747 C 0.3991 0.98819 0.28726 0.0
C748 C 0.43139 0.02471 0.25513 0.0
C749 C 0.39982 0.01801 0.23938 0.0
C750 C 0.36844 0.99501 0.24771 0.0
C751 C 0.3682 0.98011 0.2713 0.0
H752 H 0.28424 0.40296 0.59619 0.0
H753 H 0.36532 0.31165 0.57689 0.0
H754 H 0.25194 0.39592 0.55734 0.0
H755 H 0.33175 0.30288 0.5385 0.0
H756 H 0.30308 0.33606 0.46093 0.0
H757 H 0.32855 0.33522 0.50182 0.0
H758 H 0.21361 0.36256 0.52948 0.0
H759 H 0.18867 0.36535 0.48826 0.0
C760 C 0.29429 0.38035 0.58399 0.0
C761 C 0.32753 0.35802 0.58959 0.0
C762 C 0.27573 0.37628 0.56158 0.0
C763 C 0.28954 0.3493 0.54435 0.0
C764 C 0.32095 0.32488 0.55085 0.0
C765 C 0.33995 0.32948 0.57305 0.0
C766 C 0.2832 0.34181 0.47573 0.0
C767 C 0.24387 0.35099 0.47125 0.0
C768 C 0.29773 0.34095 0.49933 0.0
C769 C 0.27323 0.34856 0.51924 0.0
C770 C 0.23365 0.35712 0.51473 0.0
C771 C 0.21924 0.35861 0.49104 0.0
H772 H 0.91069 0.05332 0.21053 0.0
H773 H 0.88116 0.93907 0.23802 0.0
H774 H 0.91071 0.07922 0.25131 0.0
H775 H 0.88337 0.96433 0.27919 0.0
H776 H 0.84215 0.03427 0.3457 0.0
H777 H 0.85008 0.00202 0.30695 0.0
H778 H 0.94142 0.08391 0.28815 0.0
H779 H 0.93153 0.11756 0.32643 0.0
C780 C 0.90476 0.03355 0.22538 0.0
C781 C 0.8957 0.99417 0.22097 0.0
C782 C 0.90516 0.04834 0.24893 0.0
C783 C 0.89728 0.024 0.26888 0.0
C784 C 0.88894 0.98431 0.26443 0.0
C785 C 0.88781 0.96969 0.24078 0.0
C786 C 0.86457 0.04484 0.33352 0.0
C787 C 0.88607 0.07864 0.33913 0.0
C788 C 0.86917 0.02627 0.31116 0.0
C789 C 0.89595 0.04058 0.29395 0.0
C790 C 0.91956 0.07266 0.30045 0.0
C791 C 0.91434 0.09171 0.3226 0.0
H792 H 0.20974 0.59337 0.09597 0.0
H793 H 0.12435 0.68008 0.07574 0.0
H794 H 0.24149 0.60057 0.05701 0.0
H795 H 0.15744 0.68926 0.0372 0.0
H796 H 0.18897 0.65742 0.95988 0.0
H797 H 0.16294 0.65771 1.00066 0.0
H798 H 0.27832 0.63377 0.02882 0.0
H799 H 0.30374 0.63126 0.9877 0.0
C800 C 0.19855 0.61506 0.08352 0.0
C801 C 0.16436 0.63603 0.08897 0.0
C802 C 0.21684 0.61925 0.06102 0.0
C803 C 0.20184 0.64506 0.04349 0.0
C804 C 0.16927 0.66813 0.04976 0.0
C805 C 0.15053 0.66333 0.07206 0.0
C806 C 0.2088 0.65225 0.97479 0.0
C807 C 0.2484 0.64408 0.97048 0.0
C808 C 0.19394 0.65281 0.99833 0.0
C809 C 0.21839 0.64601 0.01838 0.0
C810 C 0.25826 0.63849 0.01401 0.0
C811 C 0.27297 0.63718 0.99037 0.0
H812 H 0.65375 0.0307 0.73326 0.0
H813 H 0.55158 0.96423 0.71323 0.0
H814 H 0.65044 0.00372 0.77395 0.0
H815 H 0.54706 0.93867 0.75412 0.0
H816 H 0.62628 0.96677 0.85024 0.0
H817 H 0.61871 0.00068 0.81173 0.0
H818 H 0.57762 0.89363 0.77902 0.0
H819 H 0.58338 0.86057 0.8174 0.0
C820 C 0.63028 0.01068 0.73762 0.0
C821 C 0.60326 -0.00074 0.71984 0.0
C822 C 0.62812 0.99542 0.76109 0.0
C823 C 0.59854 0.96874 0.76752 0.0
C824 C 0.5708 0.95839 0.74986 0.0
C825 C 0.57331 0.97317 0.72633 0.0
C826 C 0.61463 0.95077 0.83498 0.0
C827 C 0.60568 0.91077 0.83705 0.0
C828 C 0.61079 0.97011 0.81274 0.0
C829 C 0.5981 0.94992 0.79197 0.0
C830 C 0.5871 0.91052 0.79448 0.0
C831 C 0.5906 0.89136 0.81666 0.0
H832 H 0.4738 0.1443 0.08459 0.0
H833 H 0.38493 0.21614 0.05206 0.0
H834 H 0.524 0.18785 0.06895 0.0
H835 H 0.43504 0.26009 0.03631 0.0
H836 H 0.5181 0.34705 0.0826 0.0
H837 H 0.46909 0.30229 0.06671 0.0
H838 H 0.56046 0.22796 0.03869 0.0
H839 H 0.60932 0.27296 0.05478 0.0
C840 C 0.46527 0.16801 0.07273 0.0
C841 C 0.42582 0.17705 0.06945 0.0
C842 C 0.49396 0.19316 0.06378 0.0
C843 C 0.48333 0.22789 0.05178 0.0
C844 C 0.444 0.23379 0.04568 0.0
C845 C 0.41539 0.20849 0.05451 0.0
C846 C 0.5275 0.32245 0.07174 0.0
C847 C 0.56715 0.31321 0.06986 0.0
C848 C 0.49951 0.29665 0.06263 0.0
C849 C 0.51104 0.26117 0.05182 0.0
C850 C 0.5508 0.25484 0.04712 0.0
C851 C 0.5787 0.28068 0.05618 0.0
H852 H 0.59572 0.72712 0.33505 0.0
H853 H 0.52706 0.63504 0.30323 0.0
H854 H 0.5507 0.7755 0.3187 0.0
H855 H 0.48139 0.6833 0.28713 0.0
H856 H 0.46373 0.85766 0.30136 0.0
H857 H 0.50879 0.80848 0.28571 0.0
H858 H 0.43983 0.7181 0.31954 0.0
H859 H 0.39545 0.76742 0.33545 0.0
C860 C 0.57238 0.71751 0.32324 0.0
C861 C 0.56475 0.67767 0.32024 0.0
C862 C 0.54644 0.74512 0.31389 0.0
C863 C 0.51221 0.73302 0.30191 0.0
C864 C 0.50746 0.69334 0.29631 0.0
C865 C 0.5337 0.66581 0.30539 0.0
C866 C 0.45694 0.82704 0.30408 0.0
C867 C 0.42628 0.81604 0.3195 0.0
C868 C 0.48286 0.79898 0.29527 0.0
C869 C 0.47815 0.75963 0.30171 0.0
C870 C 0.44408 0.74822 0.31413 0.0
C871 C 0.41847 0.77638 0.32321 0.0
H872 H 0.8833 0.71768 0.55344 0.0
H873 H 0.97218 0.64374 0.5841 0.0
H874 H 0.93346 0.76181 0.53795 0.0
H875 H 0.02246 0.68756 0.56877 0.0
H876 H 0.01904 0.84724 0.58322 0.0
H877 H 0.96902 0.80305 0.56795 0.0
H878 H 0.05859 0.72788 0.5386 0.0
H879 H 0.10847 0.7723 0.55408 0.0
C880 C 0.91374 0.70971 0.55556 0.0
C881 C 0.92417 0.67748 0.56985 0.0
C882 C 0.94239 0.73512 0.54689 0.0
C883 C 0.98181 0.7286 0.55252 0.0
C884 C 0.99236 0.69335 0.56396 0.0
C885 C 0.96363 0.66804 0.57272 0.0
C886 C 0.02781 0.8226 0.57219 0.0
C887 C 0.0673 0.81299 0.56976 0.0
C888 C -0.00078 0.7971 0.56345 0.0
C889 C 0.00998 0.76153 0.55245 0.0
C890 C 0.04951 0.75481 0.54721 0.0
C891 C 0.078 0.78037 0.55588 0.0
H892 H 0.96399 0.35887 0.80129 0.0
H893 H 0.89471 0.26853 0.8345 0.0
H894 H 0.00916 0.30968 0.78577 0.0
H895 H 0.93923 0.21921 0.81874 0.0
H896 H 0.02636 0.13584 0.80239 0.0
H897 H 0.98087 0.18449 0.78657 0.0
H898 H 0.05078 0.276 0.81842 0.0
H899 H 0.09564 0.2272 0.83447 0.0
C900 C 0.95703 0.32825 0.80384 0.0
C901 C 0.926 0.31722 0.81898 0.0
C902 C 0.98304 0.30017 0.79513 0.0
C903 C 0.97807 0.26075 0.80135 0.0
C904 C 0.94371 0.24937 0.81348 0.0
C905 C 0.918 0.27754 0.82246 0.0
C906 C 0.03318 0.16654 0.80466 0.0
C907 C 0.06439 0.17805 0.8195 0.0
C908 C 0.00702 0.19431 0.79576 0.0
C909 C 0.01198 0.23391 0.80153 0.0
C910 C 0.04634 0.2457 0.81349 0.0
C911 C 0.07222 0.21783 0.82265 0.0
H912 H 0.51942 0.84911 0.92566 0.0
H913 H 0.60768 0.77562 0.95739 0.0
H914 H 0.46882 0.80544 0.9408 0.0
H915 H 0.5572 0.73151 0.97254 0.0
H916 H 0.47115 0.64616 0.92693 0.0
H917 H 0.5215 0.69027 0.94192 0.0
H918 H 0.43254 0.76553 0.97181 0.0
H919 H 0.38233 0.72106 0.95679 0.0
C920 C 0.52775 0.82498 0.93723 0.0
C921 C 0.56718 0.81569 0.94051 0.0
C922 C 0.49884 0.79974 0.94586 0.0
C923 C 0.50915 0.76463 0.95754 0.0
C924 C 0.54846 0.75816 0.96347 0.0
C925 C 0.57729 0.78357 0.955 0.0
C926 C 0.4626 0.67073 0.93808 0.0
C927 C 0.42313 0.6803 0.94083 0.0
C928 C 0.49137 0.69622 0.94662 0.0
C929 C 0.48086 0.73179 0.95769 0.0
C930 C 0.44143 0.73855 0.96319 0.0
C931 C 0.41275 0.71293 0.9548 0.0
H932 H 0.39368 0.26787 0.67436 0.0
H933 H 0.46513 0.35557 0.70842 0.0
H934 H 0.43692 0.21706 0.68954 0.0
H935 H 0.50893 0.30484 0.7236 0.0
H936 H 0.52048 0.13042 0.70545 0.0
H937 H 0.47531 0.17993 0.7205 0.0
H938 H 0.5519 0.27026 0.6935 0.0
H939 H 0.59687 0.22056 0.67861 0.0
C940 C 0.41724 0.27597 0.68642 0.0
C941 C 0.42608 0.31534 0.69041 0.0
C942 C 0.44224 0.24694 0.69509 0.0
C943 C 0.47676 0.25707 0.70746 0.0
C944 C 0.48274 0.29624 0.71399 0.0
C945 C 0.45748 0.3252 0.70553 0.0
C946 C 0.52865 0.16094 0.70408 0.0
C947 C 0.56199 0.17194 0.69096 0.0
C948 C 0.50267 0.18923 0.71252 0.0
C949 C 0.50967 0.2289 0.7078 0.0
C950 C 0.54575 0.23992 0.69758 0.0
C951 C 0.57169 0.21153 0.68907 0.0
H952 H 0.02241 0.34828 0.42718 0.0
H953 H 0.11022 0.27179 0.45662 0.0
H954 H 0.97148 0.30454 0.44185 0.0
H955 H 0.05943 0.2278 0.47145 0.0
H956 H 0.9722 0.14494 0.42569 0.0
H957 H 0.02301 0.18836 0.44079 0.0
H958 H 0.93492 0.26353 0.47179 0.0
H959 H 0.88422 0.2197 0.45661 0.0
C960 C 0.03062 0.32339 0.43816 0.0
C961 C 0.06996 0.31328 0.44086 0.0
C962 C 0.00151 0.29813 0.44653 0.0
C963 C 0.01155 0.26228 0.45743 0.0
C964 C 0.05088 0.25497 0.46292 0.0
C965 C 0.0799 0.2803 0.45463 0.0
C966 C 0.96395 0.16935 0.43706 0.0
C967 C 0.92458 0.17902 0.44015 0.0
C968 C 0.99299 0.19444 0.44568 0.0
C969 C 0.98286 0.22978 0.45716 0.0
C970 C 0.94352 0.23672 0.46286 0.0
C971 C 0.91457 0.21146 0.45438 0.0
H972 H 0.0221 0.63353 0.20602 0.0
H973 H 0.09702 0.72246 0.17623 0.0
H974 H 0.97745 0.68371 0.2209 0.0
H975 H 0.05275 0.77279 0.19109 0.0
H976 H 0.96784 0.85905 0.20721 0.0
H977 H 0.01185 0.80828 0.22202 0.0
H978 H 0.93742 0.7204 0.19014 0.0
H979 H 0.89383 0.7713 0.17534 0.0
C980 C 0.03016 0.66398 0.20399 0.0
C981 C 0.06292 0.67439 0.19014 0.0
C982 C 0.00445 0.69264 0.2123 0.0
C983 C 0.01124 0.7321 0.20685 0.0
C984 C 0.0468 0.74264 0.19578 0.0
C985 C 0.07236 0.71389 0.18731 0.0
C986 C 0.95975 0.82869 0.20473 0.0
C987 C 0.92752 0.81883 0.19028 0.0
C988 C 0.98512 0.7997 0.21299 0.0
C989 C 0.97848 0.76047 0.2069 0.0
C990 C 0.94325 0.75036 0.1953 0.0
C991 C 0.91805 0.77945 0.18688 0.0
H992 H 0.32627 0.31694 0.14217 0.0
H993 H 0.27431 0.29652 0.07228 0.0
H994 H 0.29919 0.3825 0.14271 0.0
H995 H 0.24915 0.36314 0.07199 0.0
H996 H 0.14771 0.43198 0.10584 0.0
H997 H 0.19471 0.38327 0.09433 0.0
H998 H 0.28593 0.44812 0.13057 0.0
H999 H 0.23773 0.49703 0.14301 0.0
C1000 C 0.31064 0.32719 0.12638 0.0
C1001 C 0.30152 0.30148 0.10743 0.0
C1002 C 0.29516 0.36495 0.12663 0.0
C1003 C 0.27086 0.37773 0.10773 0.0
C1004 C 0.26655 0.3537 0.08725 0.0
C1005 C 0.28119 0.31566 0.08728 0.0
C1006 C 0.17781 0.43627 0.11125 0.0
C1007 C 0.18873 0.46804 0.12583 0.0
C1008 C 0.20511 0.40847 0.10425 0.0
C1009 C 0.24433 0.41161 0.11147 0.0
C1010 C 0.25587 0.44459 0.12491 0.0
C1011 C 0.2283 0.47264 0.13199 0.0
H1012 H 0.24547 0.48969 0.39461 0.0
H1013 H 0.30803 0.40354 0.35265 0.0
H1014 H 0.29421 0.53884 0.38344 0.0
H1015 H 0.35672 0.45139 0.34239 0.0
H1016 H 0.44403 0.5325 0.32305 0.0
H1017 H 0.37726 0.50777 0.32243 0.0
H1018 H 0.36003 0.55063 0.39516 0.0
H1019 H 0.42577 0.5775 0.39496 0.0
C1020 C 0.26923 0.48136 0.38278 0.0
C1021 C 0.27323 0.44249 0.37491 0.0
C1022 C 0.29724 0.50947 0.37644 0.0
C1023 C 0.32963 0.49921 0.36208 0.0
C1024 C 0.33203 0.46086 0.35311 0.0
C1025 C 0.30422 0.43303 0.35935 0.0
C1026 C 0.42527 0.53801 0.33845 0.0
C1027 C 0.44006 0.55631 0.35918 0.0
C1028 C 0.38716 0.52354 0.33824 0.0
C1029 C 0.36369 0.52586 0.35909 0.0
C1030 C 0.37712 0.54817 0.37877 0.0
C1031 C 0.41494 0.56357 0.37871 0.0
H1032 H 0.17173 0.67848 0.64197 0.0
H1033 H 0.22933 0.70316 0.57428 0.0
H1034 H 0.2012 0.61385 0.64265 0.0
H1035 H 0.25737 0.63774 0.57426 0.0
H1036 H 0.35624 0.5673 0.60991 0.0
H1037 H 0.31024 0.61748 0.59883 0.0
H1038 H 0.21576 0.54881 0.62858 0.0
H1039 H 0.26258 0.49836 0.64045 0.0
C1040 C 0.18927 0.6694 0.62668 0.0
C1041 C 0.19899 0.69604 0.60833 0.0
C1042 C 0.20617 0.63224 0.62703 0.0
C1043 C 0.2326 0.62101 0.60885 0.0
C1044 C 0.23815 0.64598 0.58894 0.0
C1045 C 0.22188 0.68333 0.58883 0.0
C1046 C 0.32566 0.56251 0.61396 0.0
C1047 C 0.31327 0.52899 0.62646 0.0
C1048 C 0.29903 0.59121 0.60725 0.0
C1049 C 0.25914 0.58723 0.61271 0.0
C1050 C 0.24634 0.55291 0.62427 0.0
C1051 C 0.27315 0.524 0.63103 0.0
H1052 H 0.06987 0.41542 0.88947 0.0
H1053 H 0.04574 0.47049 0.821 0.0
H1054 H 0.13518 0.44318 0.88936 0.0
H1055 H 0.11216 0.49611 0.81984 0.0
H1056 H 0.18216 0.59673 0.85328 0.0
H1057 H 0.13356 0.54961 0.84191 0.0
H1058 H 0.19968 0.45824 0.87711 0.0
H1059 H 0.24836 0.50661 0.88955 0.0
C1060 C 0.07933 0.43181 0.87377 0.0
C1061 C 0.05269 0.44155 0.85547 0.0
C1062 C 0.11691 0.44774 0.87365 0.0
C1063 C 0.12861 0.47308 0.85497 0.0
C1064 C 0.10362 0.47799 0.83498 0.0
C1065 C 0.06571 0.463 0.83546 0.0
C1066 C 0.18678 0.56658 0.85848 0.0
C1067 C 0.21883 0.5557 0.87283 0.0
C1068 C 0.15899 0.53918 0.85156 0.0
C1069 C 0.16245 0.49985 0.85855 0.0
C1070 C 0.19579 0.48836 0.87166 0.0
C1071 C 0.22376 0.51605 0.87873 0.0
H1072 H 0.73138 0.70318 0.93806 0.0
H1073 H 0.66903 0.67444 0.87272 0.0
H1074 H 0.7586 0.63743 0.93924 0.0
H1075 H 0.69807 0.60962 0.87287 0.0
H1076 H 0.7617 0.49602 0.8739 0.0
H1077 H 0.71479 0.54586 0.8866 0.0
H1078 H 0.80976 0.61561 0.91476 0.0
H1079 H 0.8557 0.56598 0.90306 0.0
C1080 C 0.72269 0.68234 0.92433 0.0
C1081 C 0.69866 0.69388 0.90512 0.0
C1082 C 0.73855 0.64482 0.92483 0.0
C1083 C 0.73173 0.61866 0.90565 0.0
C1084 C 0.7041 0.62887 0.88793 0.0
C1085 C 0.68743 0.66614 0.88779 0.0
C1086 C 0.77234 0.52175 0.88318 0.0
C1087 C 0.81257 0.52722 0.88709 0.0
C1088 C 0.74547 0.55034 0.89043 0.0
C1089 C 0.75834 0.58488 0.90172 0.0
C1090 C 0.7984 0.58921 0.90659 0.0
C1091 C 0.82503 0.56079 0.89949 0.0
H1092 H 0.68168 0.5936 0.6556 0.0
H1093 H 0.74807 0.5046 0.61837 0.0
H1094 H 0.63354 0.54583 0.66689 0.0
H1095 H 0.69979 0.45569 0.63059 0.0
H1096 H 0.56917 0.41364 0.61862 0.0
H1097 H 0.63461 0.44123 0.6184 0.0
H1098 H 0.61396 0.49107 0.68906 0.0
H1099 H 0.54749 0.46553 0.68836 0.0
C1100 C 0.68643 0.56358 0.65015 0.0
C1101 C 0.71842 0.55318 0.63562 0.0
C1102 C 0.65893 0.53583 0.657 0.0
C1103 C 0.66264 0.49666 0.64972 0.0
C1104 C 0.69582 0.48567 0.63631 0.0
C1105 C 0.7235 0.51368 0.62934 0.0
C1106 C 0.57923 0.4292 0.6345 0.0
C1107 C 0.55324 0.43821 0.65329 0.0
C1108 C 0.61685 0.44505 0.63441 0.0
C1109 C 0.62915 0.46956 0.65336 0.0
C1110 C 0.6049 0.47355 0.67377 0.0
C1111 C 0.56699 0.45861 0.67353 0.0
H1112 H 0.76384 0.2927 0.43619 0.0
H1113 H 0.82457 0.31884 0.36981 0.0
H1114 H 0.73568 0.35808 0.43626 0.0
H1115 H 0.79492 0.38346 0.36907 0.0
H1116 H 0.7308 0.4977 0.37047 0.0
H1117 H 0.7781 0.44817 0.38304 0.0
H1118 H 0.68368 0.37692 0.41042 0.0
H1119 H 0.63712 0.42615 0.39861 0.0
C1120 C 0.77211 0.31296 0.42204 0.0
C1121 C 0.79579 0.30068 0.40281 0.0
C1122 C 0.75573 0.35024 0.42191 0.0
C1123 C 0.76192 0.37547 0.40221 0.0
C1124 C 0.78941 0.3648 0.3845 0.0
C1125 C 0.80646 0.32771 0.3849 0.0
C1126 C 0.72029 0.47165 0.37948 0.0
C1127 C 0.68007 0.46571 0.38323 0.0
C1128 C 0.7474 0.4433 0.38667 0.0
C1129 C 0.7348 0.4086 0.39784 0.0
C1130 C 0.69471 0.40356 0.40236 0.0
C1131 C 0.66779 0.4317 0.39523 0.0
H1132 H 0.77152 0.47347 0.09887 0.0
H1133 H 0.77135 0.42346 0.17034 0.0
H1134 H 0.82395 0.51764 0.11057 0.0
H1135 H 0.8215 0.46969 0.18295 0.0
H1136 H 0.9535 0.49299 0.17754 0.0
H1137 H 0.88721 0.47 0.17621 0.0
H1138 H 0.85523 0.56814 0.13107 0.0
H1139 H 0.92309 0.59002 0.1313 0.0
C1140 C 0.78188 0.47304 0.11737 0.0
C1141 C 0.76826 0.44475 0.13361 0.0
C1142 C 0.81173 0.4986 0.12423 0.0
C1143 C 0.82781 0.49685 0.14765 0.0
C1144 C 0.81096 0.47106 0.16454 0.0
C1145 C 0.78206 0.44472 0.15743 0.0
C1146 C 0.93226 0.51023 0.1677 0.0
C1147 C 0.94389 0.54266 0.15391 0.0
C1148 C 0.89379 0.49721 0.16713 0.0
C1149 C 0.86564 0.51663 0.15304 0.0
C1150 C 0.87633 0.55174 0.14151 0.0
C1151 C 0.91518 0.56459 0.14187 0.0
H1152 H 0.84231 0.81726 0.62918 0.0
H1153 H 0.74356 0.78896 0.58383 0.0
H1154 H 0.82263 0.88579 0.62906 0.0
H1155 H 0.72302 0.85619 0.58462 0.0
H1156 H 0.6819 0.97374 0.58822 0.0
H1157 H 0.72711 0.92212 0.57643 0.0
H1158 H 0.77234 0.91915 0.64942 0.0
H1159 H 0.72901 0.97275 0.66041 0.0
C1160 C 0.81694 0.82572 0.61875 0.0
C1161 C 0.79399 0.79745 0.60698 0.0
C1162 C 0.80543 0.86499 0.61886 0.0
C1163 C 0.77074 0.87665 0.60728 0.0
C1164 C 0.75005 0.84878 0.59365 0.0
C1165 C 0.76165 0.80982 0.59339 0.0
C1166 C 0.70259 0.96282 0.6014 0.0
C1167 C 0.70193 0.97667 0.62522 0.0
C1168 C 0.72825 0.93304 0.59477 0.0
C1169 C 0.75267 0.91549 0.61212 0.0
C1170 C 0.75423 0.9319 0.63547 0.0
C1171 C 0.72926 0.96252 0.64189 0.0
H1172 H 0.74411 0.9873 0.89206 0.0
H1173 H 0.81169 0.8985 0.85553 0.0
H1174 H 0.79291 0.03628 0.8807 0.0
H1175 H 0.86025 0.94654 0.84487 0.0
H1176 H 0.94416 0.02972 0.82239 0.0
H1177 H 0.87834 0.00258 0.82231 0.0
H1178 H 0.85894 0.04982 0.89374 0.0
H1179 H 0.92398 0.07856 0.89316 0.0
C1180 C 0.76902 0.9783 0.88137 0.0
C1181 C 0.77426 0.93885 0.87503 0.0
C1182 C 0.797 0.00634 0.87492 0.0
C1183 C 0.83055 0.99547 0.86185 0.0
C1184 C 0.83455 0.95634 0.85453 0.0
C1185 C 0.80682 0.9285 0.86098 0.0
C1186 C 0.92512 0.03567 0.83759 0.0
C1187 C 0.93924 0.05565 0.85793 0.0
C1188 C 0.88757 0.01985 0.83768 0.0
C1189 C 0.86387 0.02282 0.85837 0.0
C1190 C 0.87636 0.04684 0.87751 0.0
C1191 C 0.91372 0.06337 0.8772 0.0
H1192 H 0.85044 0.06349 0.10435 0.0
H1193 H 0.75893 0.00016 0.14132 0.0
H1194 H 0.80506 0.11442 0.09419 0.0
H1195 H 0.71229 0.05118 0.13008 0.0
H1196 H 0.6733 0.18146 0.14354 0.0
H1197 H 0.70056 0.11594 0.14319 0.0
H1198 H 0.75165 0.13842 0.07307 0.0
H1199 H 0.72642 0.20497 0.07433 0.0
C1200 C 0.82032 0.06001 0.10995 0.0
C1201 C 0.80859 0.02805 0.12415 0.0
C1202 C 0.79393 0.08917 0.10374 0.0
C1203 C 0.7548 0.08719 0.11132 0.0
C1204 C 0.74234 0.05396 0.12423 0.0
C1205 C 0.76901 0.02463 0.13059 0.0
C1206 C 0.6894 0.17196 0.12774 0.0
C1207 C 0.69853 0.19842 0.1092 0.0
C1208 C 0.70495 0.13423 0.12747 0.0
C1209 C 0.72933 0.12214 0.10841 0.0
C1210 C 0.7342 0.14721 0.08845 0.0
C1211 C 0.71952 0.18523 0.08904 0.0
H1212 H 0.57105 0.91297 0.38928 0.0
H1213 H 0.54842 0.9674 0.32039 0.0
H1214 H 0.63576 0.94219 0.39007 0.0
H1215 H 0.61406 0.99498 0.3204 0.0
H1216 H 0.67875 0.09762 0.35644 0.0
H1217 H 0.63133 0.04937 0.34449 0.0
H1218 H 0.70102 0.95854 0.37742 0.0
H1219 H 0.74867 0.00771 0.39016 0.0
C1220 C 0.58074 0.92946 0.37368 0.0
C1221 C 0.55457 0.93869 0.35501 0.0
C1222 C 0.61794 0.94629 0.37411 0.0
C1223 C 0.62962 0.97207 0.35567 0.0
C1224 C 0.60542 0.97637 0.3353 0.0
C1225 C 0.56798 0.96028 0.33513 0.0
C1226 C 0.68437 0.06737 0.36101 0.0
C1227 C 0.71726 0.05673 0.37467 0.0
C1228 C 0.65731 0.03942 0.35378 0.0
C1229 C 0.66232 -0.00014 0.35987 0.0
C1230 C 0.69615 0.98879 0.37257 0.0
C1231 C 0.72344 0.01696 0.37985 0.0
H1232 H 0.17325 0.17655 0.37219 0.0
H1233 H 0.2379 0.2061 0.43657 0.0
H1234 H 0.2023 0.11175 0.37227 0.0
H1235 H 0.26543 0.14047 0.43755 0.0
H1236 H 0.36067 0.06805 0.39979 0.0
H1237 H 0.31562 0.11845 0.41176 0.0
H1238 H 0.21875 0.04797 0.38702 0.0
H1239 H 0.26459 -0.00273 0.37416 0.0
C1240 C 0.19228 0.16852 0.38701 0.0
C1241 C 0.2041 0.19649 0.40406 0.0
C1242 C 0.20892 0.13126 0.38712 0.0
C1243 C 0.23715 0.12129 0.40451 0.0
C1244 C 0.24479 0.1477 0.42342 0.0
C1245 C 0.22883 0.18517 0.423 0.0
C1246 C 0.3298 0.0629 0.39705 0.0
C1247 C 0.3164 0.02881 0.38559 0.0
C1248 C 0.30372 0.09174 0.40429 0.0
C1249 C 0.26339 0.08734 0.40045 0.0
C1250 C 0.24966 0.05242 0.39005 0.0
C1251 C 0.27594 0.02339 0.38271 0.0
H1252 H 0.06871 0.91918 0.12122 0.0
H1253 H 0.04209 0.9786 0.18798 0.0
H1254 H 0.13365 0.94782 0.12124 0.0
H1255 H 0.10798 0.00555 0.1889 0.0
H1256 H 0.17769 0.10435 0.15262 0.0
H1257 H 0.12858 0.05786 0.16452 0.0
H1258 H 0.19789 0.96381 0.13482 0.0
H1259 H 0.24717 0.0112 0.122 0.0
C1260 C 0.07749 0.9368 0.13655 0.0
C1261 C 0.05026 0.94747 0.15432 0.0
C1262 C 0.11484 0.95324 0.1366 0.0
C1263 C 0.12562 0.98007 0.15468 0.0
C1264 C 0.10009 0.98611 0.17425 0.0
C1265 C 0.06249 0.97044 0.17388 0.0
C1266 C 0.18288 0.07377 0.14877 0.0
C1267 C 0.21613 0.06169 0.13591 0.0
C1268 C 0.1548 0.04683 0.15597 0.0
C1269 C 0.15918 0.00689 0.15071 0.0
C1270 C 0.19342 0.9944 0.13895 0.0
C1271 C 0.22165 0.02156 0.13162 0.0
H1272 H 0.22978 -0.00241 0.87164 0.0
H1273 H 0.13473 0.92683 0.89878 0.0
H1274 H 0.27626 0.94762 0.88473 0.0
H1275 H 0.18038 0.87718 0.91099 0.0
H1276 H 0.32242 0.81868 0.87149 0.0
H1277 H 0.2932 0.88339 0.87091 0.0
H1278 H 0.23104 0.85669 0.93689 0.0
H1279 H 0.25871 0.79109 0.93659 0.0
C1280 C 0.2188 0.97162 0.88053 0.0
C1281 C 0.17844 0.96602 0.88382 0.0
C1282 C 0.24543 0.94301 0.88802 0.0
C1283 C 0.23218 0.90836 0.89899 0.0
C1284 C 0.19194 0.90373 0.90311 0.0
C1285 C 0.16552 0.93214 0.89573 0.0
C1286 C 0.30362 0.82717 0.88634 0.0
C1287 C 0.29206 0.79972 0.90379 0.0
C1288 C 0.28686 0.86438 0.88605 0.0
C1289 C 0.25877 0.87481 0.90344 0.0
C1290 C 0.25154 0.84906 0.92275 0.0
C1291 C 0.2676 0.81162 0.92274 0.0
H1292 H 0.27044 0.97385 0.60169 0.0
H1293 H 0.27815 0.9136 0.66995 0.0
H1294 H 0.3255 0.0151 0.61317 0.0
H1295 H 0.33151 0.95628 0.68226 0.0
H1296 H 0.42773 0.08428 0.63576 0.0
H1297 H 0.35991 0.06226 0.63649 0.0
H1298 H 0.39654 0.95416 0.66999 0.0
H1299 H 0.46326 0.97662 0.67014 0.0
C1300 C 0.28304 0.97054 0.61953 0.0
C1301 C 0.27082 0.94022 0.63478 0.0
C1302 C 0.31447 0.9943 0.62623 0.0
C1303 C 0.33362 0.98847 0.64848 0.0
C1304 C 0.31831 0.96079 0.6647 0.0
C1305 C 0.28763 0.93648 0.65776 0.0
C1306 C 0.42104 0.05632 0.64393 0.0
C1307 C 0.45104 0.03186 0.65244 0.0
C1308 C 0.38219 0.04356 0.64416 0.0
C1309 C 0.37267 0.00616 0.65292 0.0
C1310 C 0.40241 0.98328 0.66327 0.0
C1311 C 0.441 0.99604 0.66314 0.0
loop_
_geom_bond_atom_site_label_1
_geom_bond_atom_site_label_2
_geom_bond_distance
_geom_bond_site_symmetry_2
_ccdc_geom_bond_type
Sc0 O3 2.025 . S
Sc0 O10 2.105 . S
Sc0 O13 2.105 . S
Sc0 O16 2.105 . S
Sc0 O19 2.105 . S
Sc1 O3 2.025 . S
Sc1 O11 2.105 . S
Sc1 O15 2.105 . S
Sc1 O17 2.105 . S
Sc1 O21 2.105 . S
Sc2 O3 2.025 . S
Sc2 O12 2.105 . S
Sc2 O14 2.105 . S
Sc2 O18 2.105 . S
Sc2 O20 2.105 . S
O3 Sc0 2.025 . S
O3 Sc1 2.025 . S
O3 Sc2 2.025 . S
C4 O10 1.268 . S
C4 O20 1.268 . S
C5 O11 1.268 . S
C5 O19 1.268 . S
C6 O12 1.268 . S
C6 O21 1.268 . S
C7 O13 1.268 . S
C7 O17 1.268 . S
C8 O14 1.268 . S
C8 O16 1.268 . S
C9 O15 1.268 . S
C9 O18 1.268 . S
O10 Sc0 2.105 . S
O10 C4 1.268 . S
O11 Sc1 2.105 . S
O11 C5 1.268 . S
O12 Sc2 2.105 . S
O12 C6 1.268 . S
O13 Sc0 2.105 . S
O13 C7 1.268 . S
O14 Sc2 2.105 . S
O14 C8 1.268 . S
O15 Sc1 2.105 . S
O15 C9 1.268 . S
O16 Sc0 2.105 . S
O16 C8 1.268 . S
O17 Sc1 2.105 . S
O17 C7 1.268 . S
O18 Sc2 2.105 . S
O18 C9 1.268 . S
O19 Sc0 2.105 . S
O19 C5 1.268 . S
O20 Sc2 2.105 . S
O20 C4 1.268 . S
O21 Sc1 2.105 . S
O21 C6 1.268 . S
Sc22 O25 2.025 . S
Sc22 O32 2.105 . S
Sc22 O35 2.105 . S
Sc22 O38 2.105 . S
Sc22 O41 2.105 . S
Sc23 O25 2.025 . S
Sc23 O33 2.105 . S
Sc23 O37 2.105 . S
Sc23 O39 2.105 . S
Sc23 O43 2.105 . S
Sc24 O25 2.025 . S
Sc24 O34 2.105 . S
Sc24 O36 2.105 . S
Sc24 O40 2.105 . S
Sc24 O42 2.105 . S
O25 Sc22 2.025 . S
O25 Sc23 2.025 . S
O25 Sc24 2.025 . S
C26 O32 1.268 . S
C26 O42 1.268 . S
C27 O33 1.268 . S
C27 O41 1.268 . S
C28 O34 1.268 . S
C28 O43 1.268 . S
C29 O35 1.268 . S
C29 O39 1.268 . S
C30 O36 1.268 . S
C30 O38 1.268 . S
C31 O37 1.268 . S
C31 O40 1.268 . S
O32 Sc22 2.105 . S
O32 C26 1.268 . S
O33 Sc23 2.105 . S
O33 C27 1.268 . S
O34 Sc24 2.105 . S
O34 C28 1.268 . S
O35 Sc22 2.105 . S
O35 C29 1.268 . S
O36 Sc24 2.105 . S
O36 C30 1.268 . S
O37 Sc23 2.105 . S
O37 C31 1.268 . S
O38 Sc22 2.105 . S
O38 C30 1.268 . S
O39 Sc23 2.105 . S
O39 C29 1.268 . S
O40 Sc24 2.105 . S
O40 C31 1.268 . S
O41 Sc22 2.105 . S
O41 C27 1.268 . S
O42 Sc24 2.105 . S
O42 C26 1.268 . S
O43 Sc23 2.105 . S
O43 C28 1.268 . S
Sc44 O47 2.025 . S
Sc44 O54 2.105 . S
Sc44 O57 2.105 . S
Sc44 O60 2.105 . S
Sc44 O63 2.105 . S
Sc45 O47 2.025 . S
Sc45 O55 2.105 . S
Sc45 O59 2.105 . S
Sc45 O61 2.105 . S
Sc45 O65 2.105 . S
Sc46 O47 2.025 . S
Sc46 O56 2.105 . S
Sc46 O58 2.105 . S
Sc46 O62 2.105 . S
Sc46 O64 2.105 . S
O47 Sc44 2.025 . S
O47 Sc45 2.025 . S
O47 Sc46 2.025 . S
C48 O54 1.268 . S
C48 O64 1.268 . S
C49 O55 1.268 . S
C49 O63 1.268 . S
C50 O56 1.268 . S
C50 O65 1.268 . S
C51 O57 1.268 . S
C51 O61 1.268 . S
C52 O58 1.268 . S
C52 O60 1.268 . S
C53 O59 1.268 . S
C53 O62 1.268 . S
O54 Sc44 2.105 . S
O54 C48 1.268 . S
O55 Sc45 2.105 . S
O55 C49 1.268 . S
O56 Sc46 2.105 . S
O56 C50 1.268 . S
O57 Sc44 2.105 . S
O57 C51 1.268 . S
O58 Sc46 2.105 . S
O58 C52 1.268 . S
O59 Sc45 2.105 . S
O59 C53 1.268 . S
O60 Sc44 2.105 . S
O60 C52 1.268 . S
O61 Sc45 2.105 . S
O61 C51 1.268 . S
O62 Sc46 2.105 . S
O62 C53 1.268 . S
O63 Sc44 2.105 . S
O63 C49 1.268 . S
O64 Sc46 2.105 . S
O64 C48 1.268 . S
O65 Sc45 2.105 . S
O65 C50 1.268 . S
Sc66 O69 2.025 . S
Sc66 O76 2.105 . S
Sc66 O79 2.105 . S
Sc66 O82 2.105 . S
Sc66 O85 2.105 . S
Sc67 O69 2.025 . S
Sc67 O77 2.105 . S
Sc67 O81 2.105 . S
Sc67 O83 2.105 . S
Sc67 O87 2.105 . S
Sc68 O69 2.025 . S
Sc68 O78 2.105 . S
Sc68 O80 2.105 . S
Sc68 O84 2.105 . S
Sc68 O86 2.105 . S
O69 Sc66 2.025 . S
O69 Sc67 2.025 . S
O69 Sc68 2.025 . S
C70 O76 1.268 . S
C70 O86 1.268 . S
C71 O77 1.268 . S
C71 O85 1.268 . S
C72 O78 1.268 . S
C72 O87 1.268 . S
C73 O79 1.268 . S
C73 O83 1.268 . S
C74 O80 1.268 . S
C74 O82 1.268 . S
C75 O81 1.268 1_455 S
C75 O84 1.268 1_455 S
O76 Sc66 2.105 . S
O76 C70 1.268 . S
O77 Sc67 2.105 . S
O77 C71 1.268 . S
O78 Sc68 2.105 . S
O78 C72 1.268 . S
O79 Sc66 2.105 . S
O79 C73 1.268 . S
O80 Sc68 2.105 . S
O80 C74 1.268 . S
O81 Sc67 2.105 . S
O81 C75 1.268 1_655 S
O82 Sc66 2.105 . S
O82 C74 1.268 . S
O83 Sc67 2.105 . S
O83 C73 1.268 . S
O84 Sc68 2.105 . S
O84 C75 1.268 1_655 S
O85 Sc66 2.105 . S
O85 C71 1.268 . S
O86 Sc68 2.105 . S
O86 C70 1.268 . S
O87 Sc67 2.105 . S
O87 C72 1.268 . S
Sc88 O91 2.025 . S
Sc88 O98 2.105 . S
Sc88 O101 2.105 . S
Sc88 O104 2.105 . S
Sc88 O107 2.105 . S
Sc89 O91 2.025 . S
Sc89 O99 2.105 . S
Sc89 O103 2.105 . S
Sc89 O105 2.105 . S
Sc89 O109 2.105 . S
Sc90 O91 2.025 . S
Sc90 O100 2.105 . S
Sc90 O102 2.105 . S
Sc90 O106 2.105 . S
Sc90 O108 2.105 . S
O91 Sc88 2.025 . S
O91 Sc89 2.025 . S
O91 Sc90 2.025 . S
C92 O98 1.268 . S
C92 O108 1.268 . S
C93 O99 1.268 . S
C93 O107 1.268 . S
C94 O100 1.268 . S
C94 O109 1.268 . S
C95 O101 1.268 . S
C95 O105 1.268 . S
C96 O102 1.268 . S
C96 O104 1.268 . S
C97 O103 1.268 . S
C97 O106 1.268 . S
O98 Sc88 2.105 . S
O98 C92 1.268 . S
O99 Sc89 2.105 . S
O99 C93 1.268 . S
O100 Sc90 2.105 . S
O100 C94 1.268 . S
O101 Sc88 2.105 . S
O101 C95 1.268 . S
O102 Sc90 2.105 . S
O102 C96 1.268 . S
O103 Sc89 2.105 . S
O103 C97 1.268 . S
O104 Sc88 2.105 . S
O104 C96 1.268 . S
O105 Sc89 2.105 . S
O105 C95 1.268 . S
O106 Sc90 2.105 . S
O106 C97 1.268 . S
O107 Sc88 2.105 . S
O107 C93 1.268 . S
O108 Sc90 2.105 . S
O108 C92 1.268 . S
O109 Sc89 2.105 . S
O109 C94 1.268 . S
Sc110 O113 2.025 . S
Sc110 O120 2.105 . S
Sc110 O123 2.105 . S
Sc110 O126 2.105 . S
Sc110 O129 2.105 . S
Sc111 O113 2.025 . S
Sc111 O121 2.105 . S
Sc111 O125 2.105 . S
Sc111 O127 2.105 . S
Sc111 O131 2.105 . S
Sc112 O113 2.025 . S
Sc112 O122 2.105 . S
Sc112 O124 2.105 . S
Sc112 O128 2.105 . S
Sc112 O130 2.105 . S
O113 Sc110 2.025 . S
O113 Sc111 2.025 . S
O113 Sc112 2.025 . S
C114 O120 1.268 . S
C114 O130 1.268 . S
C115 O121 1.268 . S
C115 O129 1.268 . S
C116 O122 1.268 . S
C116 O131 1.268 . S
C117 O123 1.268 . S
C117 O127 1.268 . S
C118 O124 1.268 . S
C118 O126 1.268 . S
C119 O125 1.268 . S
C119 O128 1.268 . S
O120 Sc110 2.105 . S
O120 C114 1.268 . S
O121 Sc111 2.105 . S
O121 C115 1.268 . S
O122 Sc112 2.105 . S
O122 C116 1.268 . S
O123 Sc110 2.105 . S
O123 C117 1.268 . S
O124 Sc112 2.105 . S
O124 C118 1.268 . S
O125 Sc111 2.105 . S
O125 C119 1.268 . S
O126 Sc110 2.105 . S
O126 C118 1.268 . S
O127 Sc111 2.105 . S
O127 C117 1.268 . S
O128 Sc112 2.105 . S
O128 C119 1.268 . S
O129 Sc110 2.105 . S
O129 C115 1.268 . S
O130 Sc112 2.105 . S
O130 C114 1.268 . S
O131 Sc111 2.105 . S
O131 C116 1.268 . S
Sc132 O135 2.025 . S
Sc132 O142 2.105 . S
Sc132 O145 2.105 . S
Sc132 O148 2.105 . S
Sc132 O151 2.105 . S
Sc133 O135 2.025 . S
Sc133 O143 2.105 . S
Sc133 O147 2.105 . S
Sc133 O149 2.105 . S
Sc133 O153 2.105 . S
Sc134 O135 2.025 . S
Sc134 O144 2.105 . S
Sc134 O146 2.105 . S
Sc134 O150 2.105 . S
Sc134 O152 2.105 . S
O135 Sc132 2.025 . S
O135 Sc133 2.025 . S
O135 Sc134 2.025 . S
C136 O142 1.268 . S
C136 O152 1.268 . S
C137 O143 1.268 . S
C137 O151 1.268 . S
C138 O144 1.268 . S
C138 O153 1.268 . S
C139 O145 1.268 . S
C139 O149 1.268 . S
C140 O146 1.268 . S
C140 O148 1.268 . S
C141 O147 1.268 . S
C141 O150 1.268 . S
O142 Sc132 2.105 . S
O142 C136 1.268 . S
O143 Sc133 2.105 . S
O143 C137 1.268 . S
O144 Sc134 2.105 . S
O144 C138 1.268 . S
O145 Sc132 2.105 . S
O145 C139 1.268 . S
O146 Sc134 2.105 . S
O146 C140 1.268 . S
O147 Sc133 2.105 . S
O147 C141 1.268 . S
O148 Sc132 2.105 . S
O148 C140 1.268 . S
O149 Sc133 2.105 . S
O149 C139 1.268 . S
O150 Sc134 2.105 . S
O150 C141 1.268 . S
O151 Sc132 2.105 . S
O151 C137 1.268 . S
O152 Sc134 2.105 . S
O152 C136 1.268 . S
O153 Sc133 2.105 . S
O153 C138 1.268 . S
Sc154 O157 2.025 . S
Sc154 O164 2.105 . S
Sc154 O167 2.105 . S
Sc154 O170 2.105 . S
Sc154 O173 2.105 . S
Sc155 O157 2.025 . S
Sc155 O165 2.105 . S
Sc155 O169 2.105 . S
Sc155 O171 2.105 . S
Sc155 O175 2.105 . S
Sc156 O157 2.025 . S
Sc156 O166 2.105 . S
Sc156 O168 2.105 . S
Sc156 O172 2.105 . S
Sc156 O174 2.105 . S
O157 Sc154 2.025 . S
O157 Sc155 2.025 . S
O157 Sc156 2.025 . S
C158 O164 1.268 . S
C158 O174 1.268 . S
C159 O165 1.268 . S
C159 O173 1.268 . S
C160 O166 1.268 . S
C160 O175 1.268 . S
C161 O167 1.268 1_655 S
C161 O171 1.268 1_655 S
C162 O168 1.268 . S
C162 O170 1.268 . S
C163 O169 1.268 . S
C163 O172 1.268 . S
O164 Sc154 2.105 . S
O164 C158 1.268 . S
O165 Sc155 2.105 . S
O165 C159 1.268 . S
O166 Sc156 2.105 . S
O166 C160 1.268 . S
O167 Sc154 2.105 . S
O167 C161 1.268 1_455 S
O168 Sc156 2.105 . S
O168 C162 1.268 . S
O169 Sc155 2.105 . S
O169 C163 1.268 . S
O170 Sc154 2.105 . S
O170 C162 1.268 . S
O171 Sc155 2.105 . S
O171 C161 1.268 1_455 S
O172 Sc156 2.105 . S
O172 C163 1.268 . S
O173 Sc154 2.105 . S
O173 C159 1.268 . S
O174 Sc156 2.105 . S
O174 C158 1.268 . S
O175 Sc155 2.105 . S
O175 C160 1.268 . S
Sc176 O179 2.025 . S
Sc176 O186 2.105 . S
Sc176 O189 2.105 . S
Sc176 O192 2.105 . S
Sc176 O195 2.105 . S
Sc177 O179 2.025 . S
Sc177 O187 2.105 . S
Sc177 O191 2.105 . S
Sc177 O193 2.105 . S
Sc177 O197 2.105 . S
Sc178 O179 2.025 . S
Sc178 O188 2.105 . S
Sc178 O190 2.105 . S
Sc178 O194 2.105 . S
Sc178 O196 2.105 . S
O179 Sc176 2.025 . S
O179 Sc177 2.025 . S
O179 Sc178 2.025 . S
C180 O186 1.268 . S
C180 O196 1.268 . S
C181 O187 1.268 . S
C181 O195 1.268 . S
C182 O188 1.268 . S
C182 O197 1.268 . S
C183 O189 1.268 . S
C183 O193 1.268 . S
C184 O190 1.268 . S
C184 O192 1.268 . S
C185 O191 1.268 . S
C185 O194 1.268 . S
O186 Sc176 2.105 . S
O186 C180 1.268 . S
O187 Sc177 2.105 . S
O187 C181 1.268 . S
O188 Sc178 2.105 . S
O188 C182 1.268 . S
O189 Sc176 2.105 . S
O189 C183 1.268 . S
O190 Sc178 2.105 . S
O190 C184 1.268 . S
O191 Sc177 2.105 . S
O191 C185 1.268 . S
O192 Sc176 2.105 . S
O192 C184 1.268 . S
O193 Sc177 2.105 . S
O193 C183 1.268 . S
O194 Sc178 2.105 . S
O194 C185 1.268 . S
O195 Sc176 2.105 . S
O195 C181 1.268 . S
O196 Sc178 2.105 . S
O196 C180 1.268 . S
O197 Sc177 2.105 . S
O197 C182 1.268 . S
Sc198 O201 2.025 . S
Sc198 O208 2.105 . S
Sc198 O211 2.105 . S
Sc198 O214 2.105 . S
Sc198 O217 2.105 . S
Sc199 O201 2.025 . S
Sc199 O209 2.105 . S
Sc199 O213 2.105 1_545 S
Sc199 O215 2.105 . S
Sc199 O219 2.105 . S
Sc200 O201 2.025 . S
Sc200 O210 2.105 . S
Sc200 O212 2.105 . S
Sc200 O216 2.105 . S
Sc200 O218 2.105 . S
O201 Sc198 2.025 . S
O201 Sc199 2.025 . S
O201 Sc200 2.025 . S
C202 O208 1.268 . S
C202 O218 1.268 . S
C203 O209 1.268 1_655 S
C203 O217 1.268 1_655 S
C204 O210 1.268 . S
C204 O219 1.268 . S
C205 O211 1.268 . S
C205 O215 1.268 . S
C206 O212 1.268 . S
C206 O214 1.268 . S
C207 O213 1.268 1_545 S
C207 O216 1.268 . S
O208 Sc198 2.105 . S
O208 C202 1.268 . S
O209 Sc199 2.105 . S
O209 C203 1.268 1_455 S
O210 Sc200 2.105 . S
O210 C204 1.268 . S
O211 Sc198 2.105 . S
O211 C205 1.268 . S
O212 Sc200 2.105 . S
O212 C206 1.268 . S
O213 Sc199 2.105 1_565 S
O213 C207 1.268 1_565 S
O214 Sc198 2.105 . S
O214 C206 1.268 . S
O215 Sc199 2.105 . S
O215 C205 1.268 . S
O216 Sc200 2.105 . S
O216 C207 1.268 . S
O217 Sc198 2.105 . S
O217 C203 1.268 1_455 S
O218 Sc200 2.105 . S
O218 C202 1.268 . S
O219 Sc199 2.105 . S
O219 C204 1.268 . S
Sc220 O223 2.025 . S
Sc220 O230 2.105 . S
Sc220 O233 2.105 . S
Sc220 O236 2.105 . S
Sc220 O239 2.105 . S
Sc221 O223 2.025 . S
Sc221 O231 2.105 . S
Sc221 O235 2.105 . S
Sc221 O237 2.105 . S
Sc221 O241 2.105 . S
Sc222 O223 2.025 . S
Sc222 O232 2.105 . S
Sc222 O234 2.105 . S
Sc222 O238 2.105 . S
Sc222 O240 2.105 . S
O223 Sc220 2.025 . S
O223 Sc221 2.025 . S
O223 Sc222 2.025 . S
C224 O230 1.268 . S
C224 O240 1.268 . S
C225 O231 1.268 . S
C225 O239 1.268 . S
C226 O232 1.268 . S
C226 O241 1.268 . S
C227 O233 1.268 . S
C227 O237 1.268 . S
C228 O234 1.268 . S
C228 O236 1.268 . S
C229 O235 1.268 . S
C229 O238 1.268 . S
O230 Sc220 2.105 . S
O230 C224 1.268 . S
O231 Sc221 2.105 . S
O231 C225 1.268 . S
O232 Sc222 2.105 . S
O232 C226 1.268 . S
O233 Sc220 2.105 . S
O233 C227 1.268 . S
O234 Sc222 2.105 . S
O234 C228 1.268 . S
O235 Sc221 2.105 . S
O235 C229 1.268 . S
O236 Sc220 2.105 . S
O236 C228 1.268 . S
O237 Sc221 2.105 . S
O237 C227 1.268 . S
O238 Sc222 2.105 . S
O238 C229 1.268 . S
O239 Sc220 2.105 . S
O239 C225 1.268 . S
O240 Sc222 2.105 . S
O240 C224 1.268 . S
O241 Sc221 2.105 . S
O241 C226 1.268 . S
Sc242 O245 2.025 . S
Sc242 O252 2.105 . S
Sc242 O255 2.105 . S
Sc242 O258 2.105 . S
Sc242 O261 2.105 . S
Sc243 O245 2.025 . S
Sc243 O253 2.105 1_565 S
Sc243 O257 2.105 . S
Sc243 O259 2.105 . S
Sc243 O263 2.105 . S
Sc244 O245 2.025 . S
Sc244 O254 2.105 . S
Sc244 O256 2.105 . S
Sc244 O260 2.105 . S
Sc244 O262 2.105 . S
O245 Sc242 2.025 . S
O245 Sc243 2.025 . S
O245 Sc244 2.025 . S
C246 O252 1.268 . S
C246 O262 1.268 . S
C247 O253 1.268 1_565 S
C247 O261 1.268 . S
C248 O254 1.268 . S
C248 O263 1.268 . S
C249 O255 1.268 . S
C249 O259 1.268 . S
C250 O256 1.268 . S
C250 O258 1.268 . S
C251 O257 1.268 . S
C251 O260 1.268 . S
O252 Sc242 2.105 . S
O252 C246 1.268 . S
O253 Sc243 2.105 1_545 S
O253 C247 1.268 1_545 S
O254 Sc244 2.105 . S
O254 C248 1.268 . S
O255 Sc242 2.105 . S
O255 C249 1.268 . S
O256 Sc244 2.105 . S
O256 C250 1.268 . S
O257 Sc243 2.105 . S
O257 C251 1.268 . S
O258 Sc242 2.105 . S
O258 C250 1.268 . S
O259 Sc243 2.105 . S
O259 C249 1.268 . S
O260 Sc244 2.105 . S
O260 C251 1.268 . S
O261 Sc242 2.105 . S
O261 C247 1.268 . S
O262 Sc244 2.105 . S
O262 C246 1.268 . S
O263 Sc243 2.105 . S
O263 C248 1.268 . S
Sc264 O267 2.025 . S
Sc264 O274 2.105 . S
Sc264 O277 2.105 . S
Sc264 O280 2.105 . S
Sc264 O283 2.105 . S
Sc265 O267 2.025 . S
Sc265 O275 2.105 . S
Sc265 O279 2.105 . S
Sc265 O281 2.105 . S
Sc265 O285 2.105 . S
Sc266 O267 2.025 . S
Sc266 O276 2.105 . S
Sc266 O278 2.105 . S
Sc266 O282 2.105 . S
Sc266 O284 2.105 . S
O267 Sc264 2.025 . S
O267 Sc265 2.025 . S
O267 Sc266 2.025 . S
C268 O274 1.268 . S
C268 O284 1.268 . S
C269 O275 1.268 . S
C269 O283 1.268 . S
C270 O276 1.268 . S
C270 O285 1.268 . S
C271 O277 1.268 . S
C271 O281 1.268 . S
C272 O278 1.268 . S
C272 O280 1.268 . S
C273 O279 1.268 . S
C273 O282 1.268 . S
O274 Sc264 2.105 . S
O274 C268 1.268 . S
O275 Sc265 2.105 . S
O275 C269 1.268 . S
O276 Sc266 2.105 . S
O276 C270 1.268 . S
O277 Sc264 2.105 . S
O277 C271 1.268 . S
O278 Sc266 2.105 . S
O278 C272 1.268 . S
O279 Sc265 2.105 . S
O279 C273 1.268 . S
O280 Sc264 2.105 . S
O280 C272 1.268 . S
O281 Sc265 2.105 . S
O281 C271 1.268 . S
O282 Sc266 2.105 . S
O282 C273 1.268 . S
O283 Sc264 2.105 . S
O283 C269 1.268 . S
O284 Sc266 2.105 . S
O284 C268 1.268 . S
O285 Sc265 2.105 . S
O285 C270 1.268 . S
Sc286 O289 2.025 . S
Sc286 O296 2.105 . S
Sc286 O299 2.105 . S
Sc286 O302 2.105 . S
Sc286 O305 2.105 . S
Sc287 O289 2.025 . S
Sc287 O297 2.105 . S
Sc287 O301 2.105 . S
Sc287 O303 2.105 1_565 S
Sc287 O307 2.105 . S
Sc288 O289 2.025 . S
Sc288 O298 2.105 . S
Sc288 O300 2.105 . S
Sc288 O304 2.105 . S
Sc288 O306 2.105 . S
O289 Sc286 2.025 . S
O289 Sc287 2.025 . S
O289 Sc288 2.025 . S
C290 O296 1.268 . S
C290 O306 1.268 . S
C291 O297 1.268 . S
C291 O305 1.268 . S
C292 O298 1.268 1_455 S
C292 O307 1.268 1_455 S
C293 O299 1.268 . S
C293 O303 1.268 1_565 S
C294 O300 1.268 . S
C294 O302 1.268 . S
C295 O301 1.268 . S
C295 O304 1.268 . S
O296 Sc286 2.105 . S
O296 C290 1.268 . S
O297 Sc287 2.105 . S
O297 C291 1.268 . S
O298 Sc288 2.105 . S
O298 C292 1.268 1_655 S
O299 Sc286 2.105 . S
O299 C293 1.268 . S
O300 Sc288 2.105 . S
O300 C294 1.268 . S
O301 Sc287 2.105 . S
O301 C295 1.268 . S
O302 Sc286 2.105 . S
O302 C294 1.268 . S
O303 Sc287 2.105 1_545 S
O303 C293 1.268 1_545 S
O304 Sc288 2.105 . S
O304 C295 1.268 . S
O305 Sc286 2.105 . S
O305 C291 1.268 . S
O306 Sc288 2.105 . S
O306 C290 1.268 . S
O307 Sc287 2.105 . S
O307 C292 1.268 1_655 S
Sc308 O311 2.025 . S
Sc308 O318 2.105 . S
Sc308 O321 2.105 . S
Sc308 O324 2.105 . S
Sc308 O327 2.105 . S
Sc309 O311 2.025 . S
Sc309 O319 2.105 . S
Sc309 O323 2.105 . S
Sc309 O325 2.105 . S
Sc309 O329 2.105 . S
Sc310 O311 2.025 . S
Sc310 O320 2.105 . S
Sc310 O322 2.105 . S
Sc310 O326 2.105 . S
Sc310 O328 2.105 . S
O311 Sc308 2.025 . S
O311 Sc309 2.025 . S
O311 Sc310 2.025 . S
C312 O318 1.268 . S
C312 O328 1.268 . S
C313 O319 1.268 . S
C313 O327 1.268 . S
C314 O320 1.268 . S
C314 O329 1.268 . S
C315 O321 1.268 . S
C315 O325 1.268 . S
C316 O322 1.268 . S
C316 O324 1.268 . S
C317 O323 1.268 . S
C317 O326 1.268 . S
O318 Sc308 2.105 . S
O318 C312 1.268 . S
O319 Sc309 2.105 . S
O319 C313 1.268 . S
O320 Sc310 2.105 . S
O320 C314 1.268 . S
O321 Sc308 2.105 . S
O321 C315 1.268 . S
O322 Sc310 2.105 . S
O322 C316 1.268 . S
O323 Sc309 2.105 . S
O323 C317 1.268 . S
O324 Sc308 2.105 . S
O324 C316 1.268 . S
O325 Sc309 2.105 . S
O325 C315 1.268 . S
O326 Sc310 2.105 . S
O326 C317 1.268 . S
O327 Sc308 2.105 . S
O327 C313 1.268 . S
O328 Sc310 2.105 . S
O328 C312 1.268 . S
O329 Sc309 2.105 . S
O329 C314 1.268 . S
Sc330 O333 2.025 . S
Sc330 O340 2.105 . S
Sc330 O343 2.105 . S
Sc330 O346 2.105 . S
Sc330 O349 2.105 . S
Sc331 O333 2.025 . S
Sc331 O341 2.105 . S
Sc331 O345 2.105 . S
Sc331 O347 2.105 . S
Sc331 O351 2.105 1_545 S
Sc332 O333 2.025 . S
Sc332 O342 2.105 . S
Sc332 O344 2.105 . S
Sc332 O348 2.105 . S
Sc332 O350 2.105 . S
O333 Sc330 2.025 . S
O333 Sc331 2.025 . S
O333 Sc332 2.025 . S
C334 O340 1.268 . S
C334 O350 1.268 . S
C335 O341 1.268 . S
C335 O349 1.268 . S
C336 O342 1.268 . S
C336 O351 1.268 1_545 S
C337 O343 1.268 . S
C337 O347 1.268 . S
C338 O344 1.268 . S
C338 O346 1.268 . S
C339 O345 1.268 . S
C339 O348 1.268 . S
O340 Sc330 2.105 . S
O340 C334 1.268 . S
O341 Sc331 2.105 . S
O341 C335 1.268 . S
O342 Sc332 2.105 . S
O342 C336 1.268 . S
O343 Sc330 2.105 . S
O343 C337 1.268 . S
O344 Sc332 2.105 . S
O344 C338 1.268 . S
O345 Sc331 2.105 . S
O345 C339 1.268 . S
O346 Sc330 2.105 . S
O346 C338 1.268 . S
O347 Sc331 2.105 . S
O347 C337 1.268 . S
O348 Sc332 2.105 . S
O348 C339 1.268 . S
O349 Sc330 2.105 . S
O349 C335 1.268 . S
O350 Sc332 2.105 . S
O350 C334 1.268 . S
O351 Sc331 2.105 1_565 S
O351 C336 1.268 1_565 S
H352 C360 0.950 . S
H353 C365 0.950 . S
H354 C362 0.950 . S
H355 C364 0.950 . S
H356 C366 0.950 . S
H357 C368 0.950 . S
H358 C370 0.950 . S
H359 C371 0.950 . S
C360 H352 0.950 . S
C360 C361 1.386 . S
C360 C362 1.391 . S
C361 C360 1.386 . S
C361 C365 1.393 . S
C362 H354 0.950 . S
C362 C360 1.391 . S
C362 C363 1.400 . S
C363 C362 1.400 . S
C363 C364 1.398 . S
C363 C369 1.491 . S
C364 H355 0.950 . S
C364 C363 1.398 . S
C364 C365 1.391 . S
C365 H353 0.950 . S
C365 C361 1.393 . S
C365 C364 1.391 . S
C366 H356 0.950 . S
C366 C367 1.386 . S
C366 C368 1.391 . S
C367 C366 1.386 . S
C367 C371 1.393 . S
C368 H357 0.950 . S
C368 C366 1.391 . S
C368 C369 1.400 . S
C369 C363 1.491 . S
C369 C368 1.400 . S
C369 C370 1.398 . S
C370 H358 0.950 . S
C370 C369 1.398 . S
C370 C371 1.391 . S
C371 H359 0.950 . S
C371 C367 1.393 . S
C371 C370 1.391 . S
H372 C380 0.950 . S
H373 C385 0.950 . S
H374 C382 0.950 . S
H375 C384 0.950 . S
H376 C386 0.950 . S
H377 C388 0.950 . S
H378 C390 0.950 . S
H379 C391 0.950 . S
C380 H372 0.950 . S
C380 C381 1.386 . S
C380 C382 1.391 . S
C381 C380 1.386 . S
C381 C385 1.393 . S
C382 H374 0.950 . S
C382 C380 1.391 . S
C382 C383 1.400 . S
C383 C382 1.400 . S
C383 C384 1.398 . S
C383 C389 1.491 . S
C384 H375 0.950 . S
C384 C383 1.398 . S
C384 C385 1.391 . S
C385 H373 0.950 . S
C385 C381 1.393 . S
C385 C384 1.391 . S
C386 H376 0.950 . S
C386 C387 1.386 . S
C386 C388 1.391 . S
C387 C386 1.386 . S
C387 C391 1.393 . S
C388 H377 0.950 . S
C388 C386 1.391 . S
C388 C389 1.400 . S
C389 C383 1.491 . S
C389 C388 1.400 . S
C389 C390 1.398 . S
C390 H378 0.950 . S
C390 C389 1.398 . S
C390 C391 1.391 . S
C391 H379 0.950 . S
C391 C387 1.393 . S
C391 C390 1.391 . S
H392 C400 0.950 . S
H393 C405 0.950 . S
H394 C402 0.950 . S
H395 C404 0.950 . S
H396 C406 0.950 . S
H397 C408 0.950 . S
H398 C410 0.950 . S
H399 C411 0.950 . S
C400 H392 0.950 . S
C400 C401 1.386 . S
C400 C402 1.391 . S
C401 C400 1.386 . S
C401 C405 1.393 . S
C402 H394 0.950 . S
C402 C400 1.391 . S
C402 C403 1.400 . S
C403 C402 1.400 . S
C403 C404 1.398 . S
C403 C409 1.491 . S
C404 H395 0.950 . S
C404 C403 1.398 . S
C404 C405 1.391 . S
C405 H393 0.950 . S
C405 C401 1.393 . S
C405 C404 1.391 . S
C406 H396 0.950 . S
C406 C407 1.386 . S
C406 C408 1.391 . S
C407 C406 1.386 . S
C407 C411 1.393 . S
C408 H397 0.950 . S
C408 C406 1.391 . S
C408 C409 1.400 . S
C409 C403 1.491 . S
C409 C408 1.400 . S
C409 C410 1.398 . S
C410 H398 0.950 . S
C410 C409 1.398 . S
C410 C411 1.391 . S
C411 H399 0.950 . S
C411 C407 1.393 . S
C411 C410 1.391 . S
H412 C420 0.950 . S
H413 C425 0.950 . S
H414 C422 0.950 . S
H415 C424 0.950 . S
H416 C426 0.950 . S
H417 C428 0.950 . S
H418 C430 0.950 . S
H419 C431 0.950 . S
C420 H412 0.950 . S
C420 C421 1.386 . S
C420 C422 1.391 1_655 S
C421 C420 1.386 . S
C421 C425 1.393 . S
C422 H414 0.950 . S
C422 C420 1.391 1_455 S
C422 C423 1.400 1_455 S
C423 C422 1.400 1_655 S
C423 C424 1.398 . S
C423 C429 1.491 1_656 S
C424 H415 0.950 . S
C424 C423 1.398 . S
C424 C425 1.391 . S
C425 H413 0.950 . S
C425 C421 1.393 . S
C425 C424 1.391 . S
C426 H416 0.950 . S
C426 C427 1.386 . S
C426 C428 1.391 1_455 S
C427 C426 1.386 . S
C427 C431 1.393 . S
C428 H417 0.950 . S
C428 C426 1.391 1_655 S
C428 C429 1.400 1_655 S
C429 C423 1.491 1_454 S
C429 C428 1.400 1_455 S
C429 C430 1.398 . S
C430 H418 0.950 . S
C430 C429 1.398 . S
C430 C431 1.391 . S
C431 H419 0.950 . S
C431 C427 1.393 . S
C431 C430 1.391 . S
H432 C440 0.950 . S
H433 C445 0.950 . S
H434 C442 0.950 . S
H435 C444 0.950 . S
H436 C446 0.950 . S
H437 C448 0.950 . S
H438 C450 0.950 . S
H439 C451 0.950 . S
C440 H432 0.950 . S
C440 C441 1.386 . S
C440 C442 1.391 . S
C441 C440 1.386 . S
C441 C445 1.393 . S
C442 H434 0.950 . S
C442 C440 1.391 . S
C442 C443 1.400 . S
C443 C442 1.400 . S
C443 C444 1.398 . S
C443 C449 1.491 . S
C444 H435 0.950 . S
C444 C443 1.398 . S
C444 C445 1.391 . S
C445 H433 0.950 . S
C445 C441 1.393 . S
C445 C444 1.391 . S
C446 H436 0.950 . S
C446 C447 1.386 . S
C446 C448 1.391 . S
C447 C446 1.386 . S
C447 C451 1.393 . S
C448 H437 0.950 . S
C448 C446 1.391 . S
C448 C449 1.400 . S
C449 C443 1.491 . S
C449 C448 1.400 . S
C449 C450 1.398 . S
C450 H438 0.950 . S
C450 C449 1.398 . S
C450 C451 1.391 . S
C451 H439 0.950 . S
C451 C447 1.393 . S
C451 C450 1.391 . S
H452 C460 0.950 . S
H453 C465 0.950 . S
H454 C462 0.950 . S
H455 C464 0.950 . S
H456 C466 0.950 . S
H457 C468 0.950 . S
H458 C470 0.950 . S
H459 C471 0.950 . S
C460 H452 0.950 . S
C460 C461 1.386 . S
C460 C462 1.391 . S
C461 C460 1.386 . S
C461 C465 1.393 . S
C462 H454 0.950 . S
C462 C460 1.391 . S
C462 C463 1.400 . S
C463 C462 1.400 . S
C463 C464 1.398 . S
C463 C469 1.491 . S
C464 H455 0.950 . S
C464 C463 1.398 . S
C464 C465 1.391 . S
C465 H453 0.950 . S
C465 C461 1.393 . S
C465 C464 1.391 . S
C466 H456 0.950 . S
C466 C467 1.386 . S
C466 C468 1.391 . S
C467 C466 1.386 . S
C467 C471 1.393 . S
C468 H457 0.950 . S
C468 C466 1.391 . S
C468 C469 1.400 . S
C469 C463 1.491 . S
C469 C468 1.400 . S
C469 C470 1.398 . S
C470 H458 0.950 . S
C470 C469 1.398 . S
C470 C471 1.391 . S
C471 H459 0.950 . S
C471 C467 1.393 . S
C471 C470 1.391 . S
H472 C480 0.950 . S
H473 C485 0.950 . S
H474 C482 0.950 1_455 S
H475 C484 0.950 . S
H476 C486 0.950 . S
H477 C488 0.950 1_655 S
H478 C490 0.950 . S
H479 C491 0.950 . S
C480 H472 0.950 . S
C480 C481 1.386 1_545 S
C480 C482 1.391 . S
C481 C480 1.386 1_565 S
C481 C485 1.393 . S
C482 H474 0.950 1_655 S
C482 C480 1.391 . S
C482 C483 1.400 1_545 S
C483 C482 1.400 1_565 S
C483 C484 1.398 . S
C483 C489 1.491 1_664 S
C484 H475 0.950 . S
C484 C483 1.398 . S
C484 C485 1.391 . S
C485 H473 0.950 . S
C485 C481 1.393 . S
C485 C484 1.391 . S
C486 H476 0.950 . S
C486 C487 1.386 1_565 S
C486 C488 1.391 . S
C487 C486 1.386 1_545 S
C487 C491 1.393 . S
C488 H477 0.950 1_455 S
C488 C486 1.391 . S
C488 C489 1.400 1_565 S
C489 C483 1.491 1_446 S
C489 C488 1.400 1_545 S
C489 C490 1.398 . S
C490 H478 0.950 . S
C490 C489 1.398 . S
C490 C491 1.391 . S
C491 H479 0.950 . S
C491 C487 1.393 . S
C491 C490 1.391 . S
H492 C500 0.950 . S
H493 C505 0.950 . S
H494 C502 0.950 . S
H495 C504 0.950 . S
H496 C506 0.950 . S
H497 C508 0.950 . S
H498 C510 0.950 . S
H499 C511 0.950 . S
C500 H492 0.950 . S
C500 C501 1.386 . S
C500 C502 1.391 . S
C501 C500 1.386 . S
C501 C505 1.393 1_565 S
C502 H494 0.950 . S
C502 C500 1.391 . S
C502 C503 1.400 . S
C503 C502 1.400 . S
C503 C504 1.398 1_565 S
C503 C509 1.491 1_565 S
C504 H495 0.950 . S
C504 C503 1.398 1_545 S
C504 C505 1.391 . S
C505 H493 0.950 . S
C505 C501 1.393 1_545 S
C505 C504 1.391 . S
C506 H496 0.950 . S
C506 C507 1.386 . S
C506 C508 1.391 . S
C507 C506 1.386 . S
C507 C511 1.393 1_545 S
C508 H497 0.950 . S
C508 C506 1.391 . S
C508 C509 1.400 . S
C509 C503 1.491 1_545 S
C509 C508 1.400 . S
C509 C510 1.398 1_545 S
C510 H498 0.950 . S
C510 C509 1.398 1_565 S
C510 C511 1.391 . S
C511 H499 0.950 . S
C511 C507 1.393 1_565 S
C511 C510 1.391 . S
H512 C520 0.950 . S
H513 C525 0.950 . S
H514 C522 0.950 . S
H515 C524 0.950 . S
H516 C526 0.950 . S
H517 C528 0.950 . S
H518 C530 0.950 . S
H519 C531 0.950 . S
C520 H512 0.950 . S
C520 C521 1.386 . S
C520 C522 1.391 . S
C521 C520 1.386 . S
C521 C525 1.393 . S
C522 H514 0.950 . S
C522 C520 1.391 . S
C522 C523 1.400 . S
C523 C522 1.400 . S
C523 C524 1.398 . S
C523 C529 1.491 1_556 S
C524 H515 0.950 . S
C524 C523 1.398 . S
C524 C525 1.391 . S
C525 H513 0.950 . S
C525 C521 1.393 . S
C525 C524 1.391 . S
C526 H516 0.950 . S
C526 C527 1.386 . S
C526 C528 1.391 . S
C527 C526 1.386 . S
C527 C531 1.393 . S
C528 H517 0.950 . S
C528 C526 1.391 . S
C528 C529 1.400 . S
C529 C523 1.491 1_554 S
C529 C528 1.400 . S
C529 C530 1.398 . S
C530 H518 0.950 . S
C530 C529 1.398 . S
C530 C531 1.391 . S
C531 H519 0.950 . S
C531 C527 1.393 . S
C531 C530 1.391 . S
H532 C540 0.950 . S
H533 C545 0.950 . S
H534 C542 0.950 . S
H535 C544 0.950 . S
H536 C546 0.950 . S
H537 C548 0.950 . S
H538 C550 0.950 . S
H539 C551 0.950 . S
C540 H532 0.950 . S
C540 C541 1.386 . S
C540 C542 1.391 . S
C541 C540 1.386 . S
C541 C545 1.393 . S
C542 H534 0.950 . S
C542 C540 1.391 . S
C542 C543 1.400 . S
C543 C542 1.400 . S
C543 C544 1.398 . S
C543 C549 1.491 . S
C544 H535 0.950 . S
C544 C543 1.398 . S
C544 C545 1.391 . S
C545 H533 0.950 . S
C545 C541 1.393 . S
C545 C544 1.391 . S
C546 H536 0.950 . S
C546 C547 1.386 . S
C546 C548 1.391 . S
C547 C546 1.386 . S
C547 C551 1.393 . S
C548 H537 0.950 . S
C548 C546 1.391 . S
C548 C549 1.400 . S
C549 C543 1.491 . S
C549 C548 1.400 . S
C549 C550 1.398 . S
C550 H538 0.950 . S
C550 C549 1.398 . S
C550 C551 1.391 . S
C551 H539 0.950 . S
C551 C547 1.393 . S
C551 C550 1.391 . S
H552 C560 0.950 . S
H553 C565 0.950 . S
H554 C562 0.950 . S
H555 C564 0.950 . S
H556 C566 0.950 . S
H557 C568 0.950 . S
H558 C570 0.950 . S
H559 C571 0.950 . S
C560 H552 0.950 . S
C560 C561 1.386 . S
C560 C562 1.391 . S
C561 C560 1.386 . S
C561 C565 1.393 . S
C562 H554 0.950 . S
C562 C560 1.391 . S
C562 C563 1.400 . S
C563 C562 1.400 . S
C563 C564 1.398 . S
C563 C569 1.491 . S
C564 H555 0.950 . S
C564 C563 1.398 . S
C564 C565 1.391 . S
C565 H553 0.950 . S
C565 C561 1.393 . S
C565 C564 1.391 . S
C566 H556 0.950 . S
C566 C567 1.386 . S
C566 C568 1.391 . S
C567 C566 1.386 . S
C567 C571 1.393 . S
C568 H557 0.950 . S
C568 C566 1.391 . S
C568 C569 1.400 . S
C569 C563 1.491 . S
C569 C568 1.400 . S
C569 C570 1.398 . S
C570 H558 0.950 . S
C570 C569 1.398 . S
C570 C571 1.391 . S
C571 H559 0.950 . S
C571 C567 1.393 . S
C571 C570 1.391 . S
H572 C580 0.950 . S
H573 C585 0.950 . S
H574 C582 0.950 . S
H575 C584 0.950 . S
H576 C586 0.950 . S
H577 C588 0.950 . S
H578 C590 0.950 . S
H579 C591 0.950 . S
C580 H572 0.950 . S
C580 C581 1.386 . S
C580 C582 1.391 . S
C581 C580 1.386 . S
C581 C585 1.393 . S
C582 H574 0.950 . S
C582 C580 1.391 . S
C582 C583 1.400 . S
C583 C582 1.400 . S
C583 C584 1.398 . S
C583 C589 1.491 . S
C584 H575 0.950 . S
C584 C583 1.398 . S
C584 C585 1.391 . S
C585 H573 0.950 . S
C585 C581 1.393 . S
C585 C584 1.391 . S
C586 H576 0.950 . S
C586 C587 1.386 . S
C586 C588 1.391 . S
C587 C586 1.386 . S
C587 C591 1.393 . S
C588 H577 0.950 . S
C588 C586 1.391 . S
C588 C589 1.400 . S
C589 C583 1.491 . S
C589 C588 1.400 . S
C589 C590 1.398 . S
C590 H578 0.950 . S
C590 C589 1.398 . S
C590 C591 1.391 . S
C591 H579 0.950 . S
C591 C587 1.393 . S
C591 C590 1.391 . S
H592 C600 0.950 . S
H593 C605 0.950 . S
H594 C602 0.950 . S
H595 C604 0.950 . S
H596 C606 0.950 . S
H597 C608 0.950 . S
H598 C610 0.950 1_554 S
H599 C611 0.950 . S
C600 H592 0.950 . S
C600 C601 1.386 . S
C600 C602 1.391 . S
C601 C600 1.386 . S
C601 C605 1.393 . S
C602 H594 0.950 . S
C602 C600 1.391 . S
C602 C603 1.400 . S
C603 C602 1.400 . S
C603 C604 1.398 . S
C603 C609 1.491 1_554 S
C604 H595 0.950 . S
C604 C603 1.398 . S
C604 C605 1.391 . S
C605 H593 0.950 . S
C605 C601 1.393 . S
C605 C604 1.391 . S
C606 H596 0.950 . S
C606 C607 1.386 . S
C606 C608 1.391 . S
C607 C606 1.386 . S
C607 C611 1.393 . S
C608 H597 0.950 . S
C608 C606 1.391 . S
C608 C609 1.400 . S
C609 C603 1.491 1_556 S
C609 C608 1.400 . S
C609 C610 1.398 . S
C610 H598 0.950 1_556 S
C610 C609 1.398 . S
C610 C611 1.391 . S
C611 H599 0.950 . S
C611 C607 1.393 . S
C611 C610 1.391 . S
H612 C620 0.950 . S
H613 C625 0.950 . S
H614 C622 0.950 . S
H615 C624 0.950 . S
H616 C626 0.950 . S
H617 C628 0.950 . S
H618 C630 0.950 . S
H619 C631 0.950 . S
C620 H612 0.950 . S
C620 C621 1.386 . S
C620 C622 1.391 . S
C621 C620 1.386 . S
C621 C625 1.393 . S
C622 H614 0.950 . S
C622 C620 1.391 . S
C622 C623 1.400 . S
C623 C622 1.400 . S
C623 C624 1.398 . S
C623 C629 1.491 . S
C624 H615 0.950 . S
C624 C623 1.398 . S
C624 C625 1.391 . S
C625 H613 0.950 . S
C625 C621 1.393 . S
C625 C624 1.391 . S
C626 H616 0.950 . S
C626 C627 1.386 . S
C626 C628 1.391 . S
C627 C626 1.386 . S
C627 C631 1.393 . S
C628 H617 0.950 . S
C628 C626 1.391 . S
C628 C629 1.400 . S
C629 C623 1.491 . S
C629 C628 1.400 . S
C629 C630 1.398 . S
C630 H618 0.950 . S
C630 C629 1.398 . S
C630 C631 1.391 . S
C631 H619 0.950 . S
C631 C627 1.393 . S
C631 C630 1.391 . S
H632 C640 0.950 . S
H633 C645 0.950 . S
H634 C642 0.950 . S
H635 C644 0.950 . S
H636 C646 0.950 . S
H637 C648 0.950 . S
H638 C650 0.950 . S
H639 C651 0.950 . S
C640 H632 0.950 . S
C640 C641 1.386 . S
C640 C642 1.391 . S
C641 C640 1.386 . S
C641 C645 1.393 . S
C642 H634 0.950 . S
C642 C640 1.391 . S
C642 C643 1.400 . S
C643 C642 1.400 . S
C643 C644 1.398 . S
C643 C649 1.491 . S
C644 H635 0.950 . S
C644 C643 1.398 . S
C644 C645 1.391 . S
C645 H633 0.950 . S
C645 C641 1.393 . S
C645 C644 1.391 . S
C646 H636 0.950 . S
C646 C647 1.386 . S
C646 C648 1.391 . S
C647 C646 1.386 . S
C647 C651 1.393 . S
C648 H637 0.950 . S
C648 C646 1.391 . S
C648 C649 1.400 . S
C649 C643 1.491 . S
C649 C648 1.400 . S
C649 C650 1.398 . S
C650 H638 0.950 . S
C650 C649 1.398 . S
C650 C651 1.391 . S
C651 H639 0.950 . S
C651 C647 1.393 . S
C651 C650 1.391 . S
H652 C660 0.950 . S
H653 C665 0.950 . S
H654 C662 0.950 . S
H655 C664 0.950 . S
H656 C666 0.950 . S
H657 C668 0.950 . S
H658 C670 0.950 . S
H659 C671 0.950 . S
C660 H652 0.950 . S
C660 C661 1.386 . S
C660 C662 1.391 . S
C661 C660 1.386 . S
C661 C665 1.393 . S
C662 H654 0.950 . S
C662 C660 1.391 . S
C662 C663 1.400 . S
C663 C662 1.400 . S
C663 C664 1.398 . S
C663 C669 1.491 . S
C664 H655 0.950 . S
C664 C663 1.398 . S
C664 C665 1.391 . S
C665 H653 0.950 . S
C665 C661 1.393 . S
C665 C664 1.391 . S
C666 H656 0.950 . S
C666 C667 1.386 . S
C666 C668 1.391 . S
C667 C666 1.386 . S
C667 C671 1.393 . S
C668 H657 0.950 . S
C668 C666 1.391 . S
C668 C669 1.400 . S
C669 C663 1.491 . S
C669 C668 1.400 . S
C669 C670 1.398 . S
C670 H658 0.950 . S
C670 C669 1.398 . S
C670 C671 1.391 . S
C671 H659 0.950 . S
C671 C667 1.393 . S
C671 C670 1.391 . S
H672 C680 0.950 . S
H673 C685 0.950 . S
H674 C682 0.950 . S
H675 C684 0.950 . S
H676 C686 0.950 . S
H677 C688 0.950 . S
H678 C690 0.950 . S
H679 C691 0.950 . S
C680 H672 0.950 . S
C680 C681 1.386 . S
C680 C682 1.391 . S
C681 C680 1.386 . S
C681 C685 1.393 . S
C682 H674 0.950 . S
C682 C680 1.391 . S
C682 C683 1.400 . S
C683 C682 1.400 . S
C683 C684 1.398 . S
C683 C689 1.491 . S
C684 H675 0.950 . S
C684 C683 1.398 . S
C684 C685 1.391 . S
C685 H673 0.950 . S
C685 C681 1.393 . S
C685 C684 1.391 . S
C686 H676 0.950 . S
C686 C687 1.386 . S
C686 C688 1.391 . S
C687 C686 1.386 . S
C687 C691 1.393 . S
C688 H677 0.950 . S
C688 C686 1.391 . S
C688 C689 1.400 . S
C689 C683 1.491 . S
C689 C688 1.400 . S
C689 C690 1.398 . S
C690 H678 0.950 . S
C690 C689 1.398 . S
C690 C691 1.391 . S
C691 H679 0.950 . S
C691 C687 1.393 . S
C691 C690 1.391 . S
H692 C700 0.950 . S
H693 C705 0.950 . S
H694 C702 0.950 . S
H695 C704 0.950 . S
H696 C706 0.950 . S
H697 C708 0.950 . S
H698 C710 0.950 1_545 S
H699 C711 0.950 . S
C700 H692 0.950 . S
C700 C701 1.386 . S
C700 C702 1.391 . S
C701 C700 1.386 . S
C701 C705 1.393 1_545 S
C702 H694 0.950 . S
C702 C700 1.391 . S
C702 C703 1.400 1_545 S
C703 C702 1.400 1_565 S
C703 C704 1.398 . S
C703 C709 1.491 . S
C704 H695 0.950 . S
C704 C703 1.398 . S
C704 C705 1.391 . S
C705 H693 0.950 . S
C705 C701 1.393 1_565 S
C705 C704 1.391 . S
C706 H696 0.950 . S
C706 C707 1.386 . S
C706 C708 1.391 . S
C707 C706 1.386 . S
C707 C711 1.393 . S
C708 H697 0.950 . S
C708 C706 1.391 . S
C708 C709 1.400 . S
C709 C703 1.491 . S
C709 C708 1.400 . S
C709 C710 1.398 . S
C710 H698 0.950 1_565 S
C710 C709 1.398 . S
C710 C711 1.391 . S
C711 H699 0.950 . S
C711 C707 1.393 . S
C711 C710 1.391 . S
H712 C720 0.950 . S
H713 C725 0.950 . S
H714 C722 0.950 . S
H715 C724 0.950 1_556 S
H716 C726 0.950 . S
H717 C728 0.950 . S
H718 C730 0.950 . S
H719 C731 0.950 . S
C720 H712 0.950 . S
C720 C721 1.386 . S
C720 C722 1.391 . S
C721 C720 1.386 . S
C721 C725 1.393 . S
C722 H714 0.950 . S
C722 C720 1.391 . S
C722 C723 1.400 . S
C723 C722 1.400 . S
C723 C724 1.398 . S
C723 C729 1.491 1_554 S
C724 H715 0.950 1_554 S
C724 C723 1.398 . S
C724 C725 1.391 . S
C725 H713 0.950 . S
C725 C721 1.393 . S
C725 C724 1.391 . S
C726 H716 0.950 . S
C726 C727 1.386 . S
C726 C728 1.391 . S
C727 C726 1.386 . S
C727 C731 1.393 . S
C728 H717 0.950 . S
C728 C726 1.391 . S
C728 C729 1.400 . S
C729 C723 1.491 1_556 S
C729 C728 1.400 . S
C729 C730 1.398 . S
C730 H718 0.950 . S
C730 C729 1.398 . S
C730 C731 1.391 . S
C731 H719 0.950 . S
C731 C727 1.393 . S
C731 C730 1.391 . S
H732 C740 0.950 . S
H733 C745 0.950 . S
H734 C742 0.950 . S
H735 C744 0.950 . S
H736 C746 0.950 . S
H737 C748 0.950 . S
H738 C750 0.950 . S
H739 C751 0.950 . S
C740 H732 0.950 . S
C740 C741 1.386 . S
C740 C742 1.391 . S
C741 C740 1.386 . S
C741 C745 1.393 . S
C742 H734 0.950 . S
C742 C740 1.391 . S
C742 C743 1.400 . S
C743 C742 1.400 . S
C743 C744 1.398 . S
C743 C749 1.491 . S
C744 H735 0.950 . S
C744 C743 1.398 . S
C744 C745 1.391 . S
C745 H733 0.950 . S
C745 C741 1.393 . S
C745 C744 1.391 . S
C746 H736 0.950 . S
C746 C747 1.386 . S
C746 C748 1.391 . S
C747 C746 1.386 . S
C747 C751 1.393 . S
C748 H737 0.950 . S
C748 C746 1.391 . S
C748 C749 1.400 1_565 S
C749 C743 1.491 . S
C749 C748 1.400 1_545 S
C749 C750 1.398 . S
C750 H738 0.950 . S
C750 C749 1.398 . S
C750 C751 1.391 1_545 S
C751 H739 0.950 . S
C751 C747 1.393 . S
C751 C750 1.391 1_565 S
H752 C760 0.950 . S
H753 C765 0.950 . S
H754 C762 0.950 . S
H755 C764 0.950 . S
H756 C766 0.950 . S
H757 C768 0.950 . S
H758 C770 0.950 . S
H759 C771 0.950 . S
C760 H752 0.950 . S
C760 C761 1.386 . S
C760 C762 1.391 . S
C761 C760 1.386 . S
C761 C765 1.393 . S
C762 H754 0.950 . S
C762 C760 1.391 . S
C762 C763 1.400 . S
C763 C762 1.400 . S
C763 C764 1.398 . S
C763 C769 1.491 . S
C764 H755 0.950 . S
C764 C763 1.398 . S
C764 C765 1.391 . S
C765 H753 0.950 . S
C765 C761 1.393 . S
C765 C764 1.391 . S
C766 H756 0.950 . S
C766 C767 1.386 . S
C766 C768 1.391 . S
C767 C766 1.386 . S
C767 C771 1.393 . S
C768 H757 0.950 . S
C768 C766 1.391 . S
C768 C769 1.400 . S
C769 C763 1.491 . S
C769 C768 1.400 . S
C769 C770 1.398 . S
C770 H758 0.950 . S
C770 C769 1.398 . S
C770 C771 1.391 . S
C771 H759 0.950 . S
C771 C767 1.393 . S
C771 C770 1.391 . S
H772 C780 0.950 . S
H773 C785 0.950 . S
H774 C782 0.950 . S
H775 C784 0.950 . S
H776 C786 0.950 . S
H777 C788 0.950 1_565 S
H778 C790 0.950 . S
H779 C791 0.950 . S
C780 H772 0.950 . S
C780 C781 1.386 1_545 S
C780 C782 1.391 . S
C781 C780 1.386 1_565 S
C781 C785 1.393 . S
C782 H774 0.950 . S
C782 C780 1.391 . S
C782 C783 1.400 . S
C783 C782 1.400 . S
C783 C784 1.398 1_545 S
C783 C789 1.491 . S
C784 H775 0.950 . S
C784 C783 1.398 1_565 S
C784 C785 1.391 . S
C785 H773 0.950 . S
C785 C781 1.393 . S
C785 C784 1.391 . S
C786 H776 0.950 . S
C786 C787 1.386 . S
C786 C788 1.391 . S
C787 C786 1.386 . S
C787 C791 1.393 . S
C788 H777 0.950 1_545 S
C788 C786 1.391 . S
C788 C789 1.400 . S
C789 C783 1.491 . S
C789 C788 1.400 . S
C789 C790 1.398 . S
C790 H778 0.950 . S
C790 C789 1.398 . S
C790 C791 1.391 . S
C791 H779 0.950 . S
C791 C787 1.393 . S
C791 C790 1.391 . S
H792 C800 0.950 . S
H793 C805 0.950 . S
H794 C802 0.950 . S
H795 C804 0.950 . S
H796 C806 0.950 . S
H797 C808 0.950 . S
H798 C810 0.950 1_554 S
H799 C811 0.950 . S
C800 H792 0.950 . S
C800 C801 1.386 . S
C800 C802 1.391 . S
C801 C800 1.386 . S
C801 C805 1.393 . S
C802 H794 0.950 . S
C802 C800 1.391 . S
C802 C803 1.400 . S
C803 C802 1.400 . S
C803 C804 1.398 . S
C803 C809 1.491 1_554 S
C804 H795 0.950 . S
C804 C803 1.398 . S
C804 C805 1.391 . S
C805 H793 0.950 . S
C805 C801 1.393 . S
C805 C804 1.391 . S
C806 H796 0.950 . S
C806 C807 1.386 . S
C806 C808 1.391 . S
C807 C806 1.386 . S
C807 C811 1.393 . S
C808 H797 0.950 . S
C808 C806 1.391 . S
C808 C809 1.400 . S
C809 C803 1.491 1_556 S
C809 C808 1.400 . S
C809 C810 1.398 . S
C810 H798 0.950 1_556 S
C810 C809 1.398 . S
C810 C811 1.391 . S
C811 H799 0.950 . S
C811 C807 1.393 . S
C811 C810 1.391 . S
H812 C820 0.950 . S
H813 C825 0.950 . S
H814 C822 0.950 . S
H815 C824 0.950 . S
H816 C826 0.950 . S
H817 C828 0.950 . S
H818 C830 0.950 . S
H819 C831 0.950 . S
C820 H812 0.950 . S
C820 C821 1.386 . S
C820 C822 1.391 1_545 S
C821 C820 1.386 . S
C821 C825 1.393 . S
C822 H814 0.950 . S
C822 C820 1.391 1_565 S
C822 C823 1.400 . S
C823 C822 1.400 . S
C823 C824 1.398 1_565 S
C823 C829 1.491 . S
C824 H815 0.950 . S
C824 C823 1.398 1_545 S
C824 C825 1.391 . S
C825 H813 0.950 . S
C825 C821 1.393 . S
C825 C824 1.391 . S
C826 H816 0.950 . S
C826 C827 1.386 . S
C826 C828 1.391 . S
C827 C826 1.386 . S
C827 C831 1.393 . S
C828 H817 0.950 . S
C828 C826 1.391 . S
C828 C829 1.400 . S
C829 C823 1.491 . S
C829 C828 1.400 . S
C829 C830 1.398 . S
C830 H818 0.950 . S
C830 C829 1.398 . S
C830 C831 1.391 . S
C831 H819 0.950 . S
C831 C827 1.393 . S
C831 C830 1.391 . S
H832 C840 0.950 . S
H833 C845 0.950 . S
H834 C842 0.950 . S
H835 C844 0.950 . S
H836 C846 0.950 . S
H837 C848 0.950 . S
H838 C850 0.950 . S
H839 C851 0.950 . S
C840 H832 0.950 . S
C840 C841 1.386 . S
C840 C842 1.391 . S
C841 C840 1.386 . S
C841 C845 1.393 . S
C842 H834 0.950 . S
C842 C840 1.391 . S
C842 C843 1.400 . S
C843 C842 1.400 . S
C843 C844 1.398 . S
C843 C849 1.491 . S
C844 H835 0.950 . S
C844 C843 1.398 . S
C844 C845 1.391 . S
C845 H833 0.950 . S
C845 C841 1.393 . S
C845 C844 1.391 . S
C846 H836 0.950 . S
C846 C847 1.386 . S
C846 C848 1.391 . S
C847 C846 1.386 . S
C847 C851 1.393 . S
C848 H837 0.950 . S
C848 C846 1.391 . S
C848 C849 1.400 . S
C849 C843 1.491 . S
C849 C848 1.400 . S
C849 C850 1.398 . S
C850 H838 0.950 . S
C850 C849 1.398 . S
C850 C851 1.391 . S
C851 H839 0.950 . S
C851 C847 1.393 . S
C851 C850 1.391 . S
H852 C860 0.950 . S
H853 C865 0.950 . S
H854 C862 0.950 . S
H855 C864 0.950 . S
H856 C866 0.950 . S
H857 C868 0.950 . S
H858 C870 0.950 . S
H859 C871 0.950 . S
C860 H852 0.950 . S
C860 C861 1.386 . S
C860 C862 1.391 . S
C861 C860 1.386 . S
C861 C865 1.393 . S
C862 H854 0.950 . S
C862 C860 1.391 . S
C862 C863 1.400 . S
C863 C862 1.400 . S
C863 C864 1.398 . S
C863 C869 1.491 . S
C864 H855 0.950 . S
C864 C863 1.398 . S
C864 C865 1.391 . S
C865 H853 0.950 . S
C865 C861 1.393 . S
C865 C864 1.391 . S
C866 H856 0.950 . S
C866 C867 1.386 . S
C866 C868 1.391 . S
C867 C866 1.386 . S
C867 C871 1.393 . S
C868 H857 0.950 . S
C868 C866 1.391 . S
C868 C869 1.400 . S
C869 C863 1.491 . S
C869 C868 1.400 . S
C869 C870 1.398 . S
C870 H858 0.950 . S
C870 C869 1.398 . S
C870 C871 1.391 . S
C871 H859 0.950 . S
C871 C867 1.393 . S
C871 C870 1.391 . S
H872 C880 0.950 . S
H873 C885 0.950 . S
H874 C882 0.950 . S
H875 C884 0.950 . S
H876 C886 0.950 . S
H877 C888 0.950 . S
H878 C890 0.950 . S
H879 C891 0.950 . S
C880 H872 0.950 . S
C880 C881 1.386 . S
C880 C882 1.391 . S
C881 C880 1.386 . S
C881 C885 1.393 . S
C882 H874 0.950 . S
C882 C880 1.391 . S
C882 C883 1.400 . S
C883 C882 1.400 . S
C883 C884 1.398 . S
C883 C889 1.491 1_655 S
C884 H875 0.950 . S
C884 C883 1.398 . S
C884 C885 1.391 . S
C885 H873 0.950 . S
C885 C881 1.393 . S
C885 C884 1.391 . S
C886 H876 0.950 . S
C886 C887 1.386 . S
C886 C888 1.391 . S
C887 C886 1.386 . S
C887 C891 1.393 . S
C888 H877 0.950 . S
C888 C886 1.391 . S
C888 C889 1.400 . S
C889 C883 1.491 1_455 S
C889 C888 1.400 . S
C889 C890 1.398 . S
C890 H878 0.950 . S
C890 C889 1.398 . S
C890 C891 1.391 . S
C891 H879 0.950 . S
C891 C887 1.393 . S
C891 C890 1.391 . S
H892 C900 0.950 . S
H893 C905 0.950 . S
H894 C902 0.950 1_455 S
H895 C904 0.950 . S
H896 C906 0.950 . S
H897 C908 0.950 1_655 S
H898 C910 0.950 . S
H899 C911 0.950 . S
C900 H892 0.950 . S
C900 C901 1.386 . S
C900 C902 1.391 . S
C901 C900 1.386 . S
C901 C905 1.393 . S
C902 H894 0.950 1_655 S
C902 C900 1.391 . S
C902 C903 1.400 . S
C903 C902 1.400 . S
C903 C904 1.398 . S
C903 C909 1.491 1_655 S
C904 H895 0.950 . S
C904 C903 1.398 . S
C904 C905 1.391 . S
C905 H893 0.950 . S
C905 C901 1.393 . S
C905 C904 1.391 . S
C906 H896 0.950 . S
C906 C907 1.386 . S
C906 C908 1.391 . S
C907 C906 1.386 . S
C907 C911 1.393 . S
C908 H897 0.950 1_455 S
C908 C906 1.391 . S
C908 C909 1.400 . S
C909 C903 1.491 1_455 S
C909 C908 1.400 . S
C909 C910 1.398 . S
C910 H898 0.950 . S
C910 C909 1.398 . S
C910 C911 1.391 . S
C911 H899 0.950 . S
C911 C907 1.393 . S
C911 C910 1.391 . S
H912 C920 0.950 . S
H913 C925 0.950 . S
H914 C922 0.950 . S
H915 C924 0.950 . S
H916 C926 0.950 . S
H917 C928 0.950 . S
H918 C930 0.950 . S
H919 C931 0.950 . S
C920 H912 0.950 . S
C920 C921 1.386 . S
C920 C922 1.391 . S
C921 C920 1.386 . S
C921 C925 1.393 . S
C922 H914 0.950 . S
C922 C920 1.391 . S
C922 C923 1.400 . S
C923 C922 1.400 . S
C923 C924 1.398 . S
C923 C929 1.491 . S
C924 H915 0.950 . S
C924 C923 1.398 . S
C924 C925 1.391 . S
C925 H913 0.950 . S
C925 C921 1.393 . S
C925 C924 1.391 . S
C926 H916 0.950 . S
C926 C927 1.386 . S
C926 C928 1.391 . S
C927 C926 1.386 . S
C927 C931 1.393 . S
C928 H917 0.950 . S
C928 C926 1.391 . S
C928 C929 1.400 . S
C929 C923 1.491 . S
C929 C928 1.400 . S
C929 C930 1.398 . S
C930 H918 0.950 . S
C930 C929 1.398 . S
C930 C931 1.391 . S
C931 H919 0.950 . S
C931 C927 1.393 . S
C931 C930 1.391 . S
H932 C940 0.950 . S
H933 C945 0.950 . S
H934 C942 0.950 . S
H935 C944 0.950 . S
H936 C946 0.950 . S
H937 C948 0.950 . S
H938 C950 0.950 . S
H939 C951 0.950 . S
C940 H932 0.950 . S
C940 C941 1.386 . S
C940 C942 1.391 . S
C941 C940 1.386 . S
C941 C945 1.393 . S
C942 H934 0.950 . S
C942 C940 1.391 . S
C942 C943 1.400 . S
C943 C942 1.400 . S
C943 C944 1.398 . S
C943 C949 1.491 . S
C944 H935 0.950 . S
C944 C943 1.398 . S
C944 C945 1.391 . S
C945 H933 0.950 . S
C945 C941 1.393 . S
C945 C944 1.391 . S
C946 H936 0.950 . S
C946 C947 1.386 . S
C946 C948 1.391 . S
C947 C946 1.386 . S
C947 C951 1.393 . S
C948 H937 0.950 . S
C948 C946 1.391 . S
C948 C949 1.400 . S
C949 C943 1.491 . S
C949 C948 1.400 . S
C949 C950 1.398 . S
C950 H938 0.950 . S
C950 C949 1.398 . S
C950 C951 1.391 . S
C951 H939 0.950 . S
C951 C947 1.393 . S
C951 C950 1.391 . S
H952 C960 0.950 . S
H953 C965 0.950 . S
H954 C962 0.950 1_655 S
H955 C964 0.950 . S
H956 C966 0.950 . S
H957 C968 0.950 1_455 S
H958 C970 0.950 . S
H959 C971 0.950 . S
C960 H952 0.950 . S
C960 C961 1.386 . S
C960 C962 1.391 . S
C961 C960 1.386 . S
C961 C965 1.393 . S
C962 H954 0.950 1_455 S
C962 C960 1.391 . S
C962 C963 1.400 . S
C963 C962 1.400 . S
C963 C964 1.398 . S
C963 C969 1.491 1_455 S
C964 H955 0.950 . S
C964 C963 1.398 . S
C964 C965 1.391 . S
C965 H953 0.950 . S
C965 C961 1.393 . S
C965 C964 1.391 . S
C966 H956 0.950 . S
C966 C967 1.386 . S
C966 C968 1.391 . S
C967 C966 1.386 . S
C967 C971 1.393 . S
C968 H957 0.950 1_655 S
C968 C966 1.391 . S
C968 C969 1.400 . S
C969 C963 1.491 1_655 S
C969 C968 1.400 . S
C969 C970 1.398 . S
C970 H958 0.950 . S
C970 C969 1.398 . S
C970 C971 1.391 . S
C971 H959 0.950 . S
C971 C967 1.393 . S
C971 C970 1.391 . S
H972 C980 0.950 . S
H973 C985 0.950 . S
H974 C982 0.950 1_655 S
H975 C984 0.950 . S
H976 C986 0.950 . S
H977 C988 0.950 1_455 S
H978 C990 0.950 . S
H979 C991 0.950 . S
C980 H972 0.950 . S
C980 C981 1.386 . S
C980 C982 1.391 . S
C981 C980 1.386 . S
C981 C985 1.393 . S
C982 H974 0.950 1_455 S
C982 C980 1.391 . S
C982 C983 1.400 . S
C983 C982 1.400 . S
C983 C984 1.398 . S
C983 C989 1.491 1_455 S
C984 H975 0.950 . S
C984 C983 1.398 . S
C984 C985 1.391 . S
C985 H973 0.950 . S
C985 C981 1.393 . S
C985 C984 1.391 . S
C986 H976 0.950 . S
C986 C987 1.386 . S
C986 C988 1.391 . S
C987 C986 1.386 . S
C987 C991 1.393 . S
C988 H977 0.950 1_655 S
C988 C986 1.391 . S
C988 C989 1.400 . S
C989 C983 1.491 1_655 S
C989 C988 1.400 . S
C989 C990 1.398 . S
C990 H978 0.950 . S
C990 C989 1.398 . S
C990 C991 1.391 . S
C991 H979 0.950 . S
C991 C987 1.393 . S
C991 C990 1.391 . S
H992 C1000 0.950 . S
H993 C1005 0.950 . S
H994 C1002 0.950 . S
H995 C1004 0.950 . S
H996 C1006 0.950 . S
H997 C1008 0.950 . S
H998 C1010 0.950 . S
H999 C1011 0.950 . S
C1000 H992 0.950 . S
C1000 C1001 1.386 . S
C1000 C1002 1.391 . S
C1001 C1000 1.386 . S
C1001 C1005 1.393 . S
C1002 H994 0.950 . S
C1002 C1000 1.391 . S
C1002 C1003 1.400 . S
C1003 C1002 1.400 . S
C1003 C1004 1.398 . S
C1003 C1009 1.491 . S
C1004 H995 0.950 . S
C1004 C1003 1.398 . S
C1004 C1005 1.391 . S
C1005 H993 0.950 . S
C1005 C1001 1.393 . S
C1005 C1004 1.391 . S
C1006 H996 0.950 . S
C1006 C1007 1.386 . S
C1006 C1008 1.391 . S
C1007 C1006 1.386 . S
C1007 C1011 1.393 . S
C1008 H997 0.950 . S
C1008 C1006 1.391 . S
C1008 C1009 1.400 . S
C1009 C1003 1.491 . S
C1009 C1008 1.400 . S
C1009 C1010 1.398 . S
C1010 H998 0.950 . S
C1010 C1009 1.398 . S
C1010 C1011 1.391 . S
C1011 H999 0.950 . S
C1011 C1007 1.393 . S
C1011 C1010 1.391 . S
H1012 C1020 0.950 . S
H1013 C1025 0.950 . S
H1014 C1022 0.950 . S
H1015 C1024 0.950 . S
H1016 C1026 0.950 . S
H1017 C1028 0.950 . S
H1018 C1030 0.950 . S
H1019 C1031 0.950 . S
C1020 H1012 0.950 . S
C1020 C1021 1.386 . S
C1020 C1022 1.391 . S
C1021 C1020 1.386 . S
C1021 C1025 1.393 . S
C1022 H1014 0.950 . S
C1022 C1020 1.391 . S
C1022 C1023 1.400 . S
C1023 C1022 1.400 . S
C1023 C1024 1.398 . S
C1023 C1029 1.491 . S
C1024 H1015 0.950 . S
C1024 C1023 1.398 . S
C1024 C1025 1.391 . S
C1025 H1013 0.950 . S
C1025 C1021 1.393 . S
C1025 C1024 1.391 . S
C1026 H1016 0.950 . S
C1026 C1027 1.386 . S
C1026 C1028 1.391 . S
C1027 C1026 1.386 . S
C1027 C1031 1.393 . S
C1028 H1017 0.950 . S
C1028 C1026 1.391 . S
C1028 C1029 1.400 . S
C1029 C1023 1.491 . S
C1029 C1028 1.400 . S
C1029 C1030 1.398 . S
C1030 H1018 0.950 . S
C1030 C1029 1.398 . S
C1030 C1031 1.391 . S
C1031 H1019 0.950 . S
C1031 C1027 1.393 . S
C1031 C1030 1.391 . S
H1032 C1040 0.950 . S
H1033 C1045 0.950 . S
H1034 C1042 0.950 . S
H1035 C1044 0.950 . S
H1036 C1046 0.950 . S
H1037 C1048 0.950 . S
H1038 C1050 0.950 . S
H1039 C1051 0.950 . S
C1040 H1032 0.950 . S
C1040 C1041 1.386 . S
C1040 C1042 1.391 . S
C1041 C1040 1.386 . S
C1041 C1045 1.393 . S
C1042 H1034 0.950 . S
C1042 C1040 1.391 . S
C1042 C1043 1.400 . S
C1043 C1042 1.400 . S
C1043 C1044 1.398 . S
C1043 C1049 1.491 . S
C1044 H1035 0.950 . S
C1044 C1043 1.398 . S
C1044 C1045 1.391 . S
C1045 H1033 0.950 . S
C1045 C1041 1.393 . S
C1045 C1044 1.391 . S
C1046 H1036 0.950 . S
C1046 C1047 1.386 . S
C1046 C1048 1.391 . S
C1047 C1046 1.386 . S
C1047 C1051 1.393 . S
C1048 H1037 0.950 . S
C1048 C1046 1.391 . S
C1048 C1049 1.400 . S
C1049 C1043 1.491 . S
C1049 C1048 1.400 . S
C1049 C1050 1.398 . S
C1050 H1038 0.950 . S
C1050 C1049 1.398 . S
C1050 C1051 1.391 . S
C1051 H1039 0.950 . S
C1051 C1047 1.393 . S
C1051 C1050 1.391 . S
H1052 C1060 0.950 . S
H1053 C1065 0.950 . S
H1054 C1062 0.950 . S
H1055 C1064 0.950 . S
H1056 C1066 0.950 . S
H1057 C1068 0.950 . S
H1058 C1070 0.950 . S
H1059 C1071 0.950 . S
C1060 H1052 0.950 . S
C1060 C1061 1.386 . S
C1060 C1062 1.391 . S
C1061 C1060 1.386 . S
C1061 C1065 1.393 . S
C1062 H1054 0.950 . S
C1062 C1060 1.391 . S
C1062 C1063 1.400 . S
C1063 C1062 1.400 . S
C1063 C1064 1.398 . S
C1063 C1069 1.491 . S
C1064 H1055 0.950 . S
C1064 C1063 1.398 . S
C1064 C1065 1.391 . S
C1065 H1053 0.950 . S
C1065 C1061 1.393 . S
C1065 C1064 1.391 . S
C1066 H1056 0.950 . S
C1066 C1067 1.386 . S
C1066 C1068 1.391 . S
C1067 C1066 1.386 . S
C1067 C1071 1.393 . S
C1068 H1057 0.950 . S
C1068 C1066 1.391 . S
C1068 C1069 1.400 . S
C1069 C1063 1.491 . S
C1069 C1068 1.400 . S
C1069 C1070 1.398 . S
C1070 H1058 0.950 . S
C1070 C1069 1.398 . S
C1070 C1071 1.391 . S
C1071 H1059 0.950 . S
C1071 C1067 1.393 . S
C1071 C1070 1.391 . S
H1072 C1080 0.950 . S
H1073 C1085 0.950 . S
H1074 C1082 0.950 . S
H1075 C1084 0.950 . S
H1076 C1086 0.950 . S
H1077 C1088 0.950 . S
H1078 C1090 0.950 . S
H1079 C1091 0.950 . S
C1080 H1072 0.950 . S
C1080 C1081 1.386 . S
C1080 C1082 1.391 . S
C1081 C1080 1.386 . S
C1081 C1085 1.393 . S
C1082 H1074 0.950 . S
C1082 C1080 1.391 . S
C1082 C1083 1.400 . S
C1083 C1082 1.400 . S
C1083 C1084 1.398 . S
C1083 C1089 1.491 . S
C1084 H1075 0.950 . S
C1084 C1083 1.398 . S
C1084 C1085 1.391 . S
C1085 H1073 0.950 . S
C1085 C1081 1.393 . S
C1085 C1084 1.391 . S
C1086 H1076 0.950 . S
C1086 C1087 1.386 . S
C1086 C1088 1.391 . S
C1087 C1086 1.386 . S
C1087 C1091 1.393 . S
C1088 H1077 0.950 . S
C1088 C1086 1.391 . S
C1088 C1089 1.400 . S
C1089 C1083 1.491 . S
C1089 C1088 1.400 . S
C1089 C1090 1.398 . S
C1090 H1078 0.950 . S
C1090 C1089 1.398 . S
C1090 C1091 1.391 . S
C1091 H1079 0.950 . S
C1091 C1087 1.393 . S
C1091 C1090 1.391 . S
H1092 C1100 0.950 . S
H1093 C1105 0.950 . S
H1094 C1102 0.950 . S
H1095 C1104 0.950 . S
H1096 C1106 0.950 . S
H1097 C1108 0.950 . S
H1098 C1110 0.950 . S
H1099 C1111 0.950 . S
C1100 H1092 0.950 . S
C1100 C1101 1.386 . S
C1100 C1102 1.391 . S
C1101 C1100 1.386 . S
C1101 C1105 1.393 . S
C1102 H1094 0.950 . S
C1102 C1100 1.391 . S
C1102 C1103 1.400 . S
C1103 C1102 1.400 . S
C1103 C1104 1.398 . S
C1103 C1109 1.491 . S
C1104 H1095 0.950 . S
C1104 C1103 1.398 . S
C1104 C1105 1.391 . S
C1105 H1093 0.950 . S
C1105 C1101 1.393 . S
C1105 C1104 1.391 . S
C1106 H1096 0.950 . S
C1106 C1107 1.386 . S
C1106 C1108 1.391 . S
C1107 C1106 1.386 . S
C1107 C1111 1.393 . S
C1108 H1097 0.950 . S
C1108 C1106 1.391 . S
C1108 C1109 1.400 . S
C1109 C1103 1.491 . S
C1109 C1108 1.400 . S
C1109 C1110 1.398 . S
C1110 H1098 0.950 . S
C1110 C1109 1.398 . S
C1110 C1111 1.391 . S
C1111 H1099 0.950 . S
C1111 C1107 1.393 . S
C1111 C1110 1.391 . S
H1112 C1120 0.950 . S
H1113 C1125 0.950 . S
H1114 C1122 0.950 . S
H1115 C1124 0.950 . S
H1116 C1126 0.950 . S
H1117 C1128 0.950 . S
H1118 C1130 0.950 . S
H1119 C1131 0.950 . S
C1120 H1112 0.950 . S
C1120 C1121 1.386 . S
C1120 C1122 1.391 . S
C1121 C1120 1.386 . S
C1121 C1125 1.393 . S
C1122 H1114 0.950 . S
C1122 C1120 1.391 . S
C1122 C1123 1.400 . S
C1123 C1122 1.400 . S
C1123 C1124 1.398 . S
C1123 C1129 1.491 . S
C1124 H1115 0.950 . S
C1124 C1123 1.398 . S
C1124 C1125 1.391 . S
C1125 H1113 0.950 . S
C1125 C1121 1.393 . S
C1125 C1124 1.391 . S
C1126 H1116 0.950 . S
C1126 C1127 1.386 . S
C1126 C1128 1.391 . S
C1127 C1126 1.386 . S
C1127 C1131 1.393 . S
C1128 H1117 0.950 . S
C1128 C1126 1.391 . S
C1128 C1129 1.400 . S
C1129 C1123 1.491 . S
C1129 C1128 1.400 . S
C1129 C1130 1.398 . S
C1130 H1118 0.950 . S
C1130 C1129 1.398 . S
C1130 C1131 1.391 . S
C1131 H1119 0.950 . S
C1131 C1127 1.393 . S
C1131 C1130 1.391 . S
H1132 C1140 0.950 . S
H1133 C1145 0.950 . S
H1134 C1142 0.950 . S
H1135 C1144 0.950 . S
H1136 C1146 0.950 . S
H1137 C1148 0.950 . S
H1138 C1150 0.950 . S
H1139 C1151 0.950 . S
C1140 H1132 0.950 . S
C1140 C1141 1.386 . S
C1140 C1142 1.391 . S
C1141 C1140 1.386 . S
C1141 C1145 1.393 . S
C1142 H1134 0.950 . S
C1142 C1140 1.391 . S
C1142 C1143 1.400 . S
C1143 C1142 1.400 . S
C1143 C1144 1.398 . S
C1143 C1149 1.491 . S
C1144 H1135 0.950 . S
C1144 C1143 1.398 . S
C1144 C1145 1.391 . S
C1145 H1133 0.950 . S
C1145 C1141 1.393 . S
C1145 C1144 1.391 . S
C1146 H1136 0.950 . S
C1146 C1147 1.386 . S
C1146 C1148 1.391 . S
C1147 C1146 1.386 . S
C1147 C1151 1.393 . S
C1148 H1137 0.950 . S
C1148 C1146 1.391 . S
C1148 C1149 1.400 . S
C1149 C1143 1.491 . S
C1149 C1148 1.400 . S
C1149 C1150 1.398 . S
C1150 H1138 0.950 . S
C1150 C1149 1.398 . S
C1150 C1151 1.391 . S
C1151 H1139 0.950 . S
C1151 C1147 1.393 . S
C1151 C1150 1.391 . S
H1152 C1160 0.950 . S
H1153 C1165 0.950 . S
H1154 C1162 0.950 . S
H1155 C1164 0.950 . S
H1156 C1166 0.950 . S
H1157 C1168 0.950 . S
H1158 C1170 0.950 . S
H1159 C1171 0.950 . S
C1160 H1152 0.950 . S
C1160 C1161 1.386 . S
C1160 C1162 1.391 . S
C1161 C1160 1.386 . S
C1161 C1165 1.393 . S
C1162 H1154 0.950 . S
C1162 C1160 1.391 . S
C1162 C1163 1.400 . S
C1163 C1162 1.400 . S
C1163 C1164 1.398 . S
C1163 C1169 1.491 . S
C1164 H1155 0.950 . S
C1164 C1163 1.398 . S
C1164 C1165 1.391 . S
C1165 H1153 0.950 . S
C1165 C1161 1.393 . S
C1165 C1164 1.391 . S
C1166 H1156 0.950 . S
C1166 C1167 1.386 . S
C1166 C1168 1.391 . S
C1167 C1166 1.386 . S
C1167 C1171 1.393 . S
C1168 H1157 0.950 . S
C1168 C1166 1.391 . S
C1168 C1169 1.400 . S
C1169 C1163 1.491 . S
C1169 C1168 1.400 . S
C1169 C1170 1.398 . S
C1170 H1158 0.950 . S
C1170 C1169 1.398 . S
C1170 C1171 1.391 . S
C1171 H1159 0.950 . S
C1171 C1167 1.393 . S
C1171 C1170 1.391 . S
H1172 C1180 0.950 . S
H1173 C1185 0.950 . S
H1174 C1182 0.950 . S
H1175 C1184 0.950 . S
H1176 C1186 0.950 1_565 S
H1177 C1188 0.950 . S
H1178 C1190 0.950 . S
H1179 C1191 0.950 . S
C1180 H1172 0.950 . S
C1180 C1181 1.386 . S
C1180 C1182 1.391 1_565 S
C1181 C1180 1.386 . S
C1181 C1185 1.393 . S
C1182 H1174 0.950 . S
C1182 C1180 1.391 1_545 S
C1182 C1183 1.400 1_545 S
C1183 C1182 1.400 1_565 S
C1183 C1184 1.398 . S
C1183 C1189 1.491 1_565 S
C1184 H1175 0.950 . S
C1184 C1183 1.398 . S
C1184 C1185 1.391 . S
C1185 H1173 0.950 . S
C1185 C1181 1.393 . S
C1185 C1184 1.391 . S
C1186 H1176 0.950 1_545 S
C1186 C1187 1.386 . S
C1186 C1188 1.391 1_545 S
C1187 C1186 1.386 . S
C1187 C1191 1.393 . S
C1188 H1177 0.950 . S
C1188 C1186 1.391 1_565 S
C1188 C1189 1.400 1_565 S
C1189 C1183 1.491 1_545 S
C1189 C1188 1.400 1_545 S
C1189 C1190 1.398 . S
C1190 H1178 0.950 . S
C1190 C1189 1.398 . S
C1190 C1191 1.391 . S
C1191 H1179 0.950 . S
C1191 C1187 1.393 . S
C1191 C1190 1.391 . S
H1192 C1200 0.950 . S
H1193 C1205 0.950 . S
H1194 C1202 0.950 . S
H1195 C1204 0.950 . S
H1196 C1206 0.950 . S
H1197 C1208 0.950 . S
H1198 C1210 0.950 . S
H1199 C1211 0.950 . S
C1200 H1192 0.950 . S
C1200 C1201 1.386 . S
C1200 C1202 1.391 . S
C1201 C1200 1.386 . S
C1201 C1205 1.393 . S
C1202 H1194 0.950 . S
C1202 C1200 1.391 . S
C1202 C1203 1.400 . S
C1203 C1202 1.400 . S
C1203 C1204 1.398 . S
C1203 C1209 1.491 . S
C1204 H1195 0.950 . S
C1204 C1203 1.398 . S
C1204 C1205 1.391 . S
C1205 H1193 0.950 . S
C1205 C1201 1.393 . S
C1205 C1204 1.391 . S
C1206 H1196 0.950 . S
C1206 C1207 1.386 . S
C1206 C1208 1.391 . S
C1207 C1206 1.386 . S
C1207 C1211 1.393 . S
C1208 H1197 0.950 . S
C1208 C1206 1.391 . S
C1208 C1209 1.400 . S
C1209 C1203 1.491 . S
C1209 C1208 1.400 . S
C1209 C1210 1.398 . S
C1210 H1198 0.950 . S
C1210 C1209 1.398 . S
C1210 C1211 1.391 . S
C1211 H1199 0.950 . S
C1211 C1207 1.393 . S
C1211 C1210 1.391 . S
H1212 C1220 0.950 . S
H1213 C1225 0.945 1_545 S
H1214 C1222 0.950 . S
H1215 C1224 0.950 . S
H1216 C1226 0.950 . S
H1217 C1228 0.950 . S
H1218 C1230 0.950 . S
H1219 C1231 0.950 . S
C1220 H1212 0.950 . S
C1220 C1221 1.386 . S
C1220 C1222 1.391 . S
C1221 C1220 1.386 . S
C1221 C1225 1.393 . S
C1222 H1214 0.950 . S
C1222 C1220 1.391 . S
C1222 C1223 1.400 . S
C1223 C1222 1.400 . S
C1223 C1224 1.398 1_565 S
C1223 C1229 1.491 1_565 S
C1224 H1215 0.950 . S
C1224 C1223 1.398 1_545 S
C1224 C1225 1.391 1_545 S
C1225 H1213 0.945 1_565 S
C1225 C1221 1.393 . S
C1225 C1224 1.391 1_565 S
C1226 H1216 0.950 . S
C1226 C1227 1.386 . S
C1226 C1228 1.391 . S
C1227 C1226 1.386 . S
C1227 C1231 1.393 . S
C1228 H1217 0.950 . S
C1228 C1226 1.391 . S
C1228 C1229 1.400 . S
C1229 C1223 1.491 1_545 S
C1229 C1228 1.400 . S
C1229 C1230 1.398 1_545 S
C1230 H1218 0.950 . S
C1230 C1229 1.398 1_565 S
C1230 C1231 1.391 1_565 S
C1231 H1219 0.950 . S
C1231 C1227 1.393 . S
C1231 C1230 1.391 1_545 S
H1232 C1240 0.950 . S
H1233 C1245 0.950 . S
H1234 C1242 0.950 . S
H1235 C1244 0.950 . S
H1236 C1246 0.950 . S
H1237 C1248 0.950 . S
H1238 C1250 0.950 . S
H1239 C1251 0.950 . S
C1240 H1232 0.950 . S
C1240 C1241 1.386 . S
C1240 C1242 1.391 . S
C1241 C1240 1.386 . S
C1241 C1245 1.393 . S
C1242 H1234 0.950 . S
C1242 C1240 1.391 . S
C1242 C1243 1.400 . S
C1243 C1242 1.400 . S
C1243 C1244 1.398 . S
C1243 C1249 1.491 . S
C1244 H1235 0.950 . S
C1244 C1243 1.398 . S
C1244 C1245 1.391 . S
C1245 H1233 0.950 . S
C1245 C1241 1.393 . S
C1245 C1244 1.391 . S
C1246 H1236 0.950 . S
C1246 C1247 1.386 . S
C1246 C1248 1.391 . S
C1247 C1246 1.386 . S
C1247 C1251 1.393 . S
C1248 H1237 0.950 . S
C1248 C1246 1.391 . S
C1248 C1249 1.400 . S
C1249 C1243 1.491 . S
C1249 C1248 1.400 . S
C1249 C1250 1.398 . S
C1250 H1238 0.950 . S
C1250 C1249 1.398 . S
C1250 C1251 1.391 . S
C1251 H1239 0.950 . S
C1251 C1247 1.393 . S
C1251 C1250 1.391 . S
H1252 C1260 0.950 . S
H1253 C1265 0.950 . S
H1254 C1262 0.950 . S
H1255 C1264 0.950 . S
H1256 C1266 0.950 . S
H1257 C1268 0.950 . S
H1258 C1270 0.975 . S
H1259 C1271 0.950 . S
C1260 H1252 0.950 . S
C1260 C1261 1.386 . S
C1260 C1262 1.391 . S
C1261 C1260 1.386 . S
C1261 C1265 1.393 . S
C1262 H1254 0.950 . S
C1262 C1260 1.391 . S
C1262 C1263 1.400 . S
C1263 C1262 1.400 . S
C1263 C1264 1.398 1_565 S
C1263 C1269 1.491 1_565 S
C1264 H1255 0.950 . S
C1264 C1263 1.398 1_545 S
C1264 C1265 1.391 1_545 S
C1265 H1253 0.950 . S
C1265 C1261 1.393 . S
C1265 C1264 1.391 1_565 S
C1266 H1256 0.950 . S
C1266 C1267 1.386 . S
C1266 C1268 1.391 . S
C1267 C1266 1.386 . S
C1267 C1271 1.393 . S
C1268 H1257 0.950 . S
C1268 C1266 1.391 . S
C1268 C1269 1.400 . S
C1269 C1263 1.491 1_545 S
C1269 C1268 1.400 . S
C1269 C1270 1.389 1_545 S
C1270 H1258 0.975 . S
C1270 C1269 1.389 1_565 S
C1270 C1271 1.376 1_565 S
C1271 H1259 0.950 . S
C1271 C1267 1.393 . S
C1271 C1270 1.376 1_545 S
H1272 C1280 0.941 1_545 S
H1273 C1285 0.950 . S
H1274 C1282 0.950 . S
H1275 C1284 0.950 . S
H1276 C1286 0.950 . S
H1277 C1288 0.950 . S
H1278 C1290 0.950 . S
H1279 C1291 0.950 . S
C1280 H1272 0.941 1_565 S
C1280 C1281 1.386 . S
C1280 C1282 1.391 . S
C1281 C1280 1.386 . S
C1281 C1285 1.393 . S
C1282 H1274 0.950 . S
C1282 C1280 1.391 . S
C1282 C1283 1.400 . S
C1283 C1282 1.400 . S
C1283 C1284 1.398 . S
C1283 C1289 1.491 . S
C1284 H1275 0.950 . S
C1284 C1283 1.398 . S
C1284 C1285 1.391 . S
C1285 H1273 0.950 . S
C1285 C1281 1.393 . S
C1285 C1284 1.391 . S
C1286 H1276 0.950 . S
C1286 C1287 1.386 . S
C1286 C1288 1.391 . S
C1287 C1286 1.386 . S
C1287 C1291 1.393 . S
C1288 H1277 0.950 . S
C1288 C1286 1.391 . S
C1288 C1289 1.400 . S
C1289 C1283 1.491 . S
C1289 C1288 1.400 . S
C1289 C1290 1.398 . S
C1290 H1278 0.950 . S
C1290 C1289 1.398 . S
C1290 C1291 1.391 . S
C1291 H1279 0.950 . S
C1291 C1287 1.393 . S
C1291 C1290 1.391 . S
H1292 C1300 0.950 . S
H1293 C1305 0.950 . S
H1294 C1302 0.950 . S
H1295 C1304 0.966 . S
H1296 C1306 0.950 . S
H1297 C1308 0.950 . S
H1298 C1310 0.950 . S
H1299 C1311 0.950 . S
C1300 H1292 0.950 . S
C1300 C1301 1.386 . S
C1300 C1302 1.391 . S
C1301 C1300 1.386 . S
C1301 C1305 1.393 . S
C1302 H1294 0.950 . S
C1302 C1300 1.391 . S
C1302 C1303 1.400 . S
C1303 C1302 1.400 . S
C1303 C1304 1.392 1_565 S
C1303 C1309 1.491 1_565 S
C1304 H1295 0.966 . S
C1304 C1303 1.392 1_545 S
C1304 C1305 1.381 1_545 S
C1305 H1293 0.950 . S
C1305 C1301 1.393 . S
C1305 C1304 1.381 1_565 S
C1306 H1296 0.950 . S
C1306 C1307 1.386 . S
C1306 C1308 1.391 . S
C1307 C1306 1.386 . S
C1307 C1311 1.393 . S
C1308 H1297 0.950 . S
C1308 C1306 1.391 . S
C1308 C1309 1.400 . S
C1309 C1303 1.491 1_545 S
C1309 C1308 1.400 . S
C1309 C1310 1.398 1_545 S
C1310 H1298 0.950 . S
C1310 C1309 1.398 1_565 S
C1310 C1311 1.391 1_565 S
C1311 H1299 0.950 . S
C1311 C1307 1.393 . S
C1311 C1310 1.391 1_545 S
C361 C7 1.194 . S
C367 C273 1.194 . S
C381 C119 1.193 . S
C387 C29 1.193 . S
C401 C50 1.222 . S
C407 C313 1.222 . S
C421 C72 1.210 . S
C427 C159 1.210 . S
C441 C97 1.226 . S
C447 C183 1.226 . S
C461 C226 1.189 . S
C467 C137 1.189 . S
C481 C295 1.189 . S
C487 C205 1.189 . S
C501 C248 1.206 . S
C507 C335 1.206 . S
C521 C206 1.609 . S
C527 C6 1.547 . S
C541 C28 1.521 . S
C547 C224 1.614 . S
C561 C51 1.520 . S
C567 C246 1.614 . S
C581 C184 1.614 . S
C587 C73 1.518 . S
C601 C294 1.608 . S
C607 C93 1.542 . S
C621 C312 1.612 . S
C627 C115 1.538 . S
C641 C141 1.528 . S
C647 C334 1.611 . S
C661 C272 1.608 . S
C667 C163 1.546 . S
C681 C182 1.521 . S
C687 C30 1.613 . S
C701 C204 1.519 . S
C707 C48 1.614 . S
C721 C227 1.527 . S
C727 C70 1.611 . S
C741 C8 1.612 . S
C747 C249 1.524 . S
C761 C118 1.609 . S
C767 C269 1.537 . S
C781 C291 1.531 . S
C787 C136 1.613 . S
C801 C158 1.609 . S
C807 C317 1.539 . S
C821 C339 1.542 . S
C827 C96 1.611 . S
C841 C4 0.627 . S
C847 C228 0.576 . S
C861 C26 0.617 . S
C867 C250 0.644 . S
C881 C180 0.590 . S
C887 C52 0.603 . S
C901 C74 0.590 . S
C907 C202 0.652 . S
C921 C92 0.576 . S
C927 C316 0.645 . S
C941 C114 0.590 . S
C947 C338 0.603 . S
C961 C268 0.576 . S
C967 C140 0.644 . S
C981 C162 0.652 . S
C987 C290 0.590 . S
C1001 C5 1.499 . S
C1007 C160 1.543 . S
C1021 C271 1.543 . S
C1027 C27 1.499 . S
C1041 C53 1.498 . S
C1047 C117 1.544 . S
C1061 C75 1.499 . S
C1067 C314 1.543 . S
C1081 C94 1.498 . S
C1087 C71 1.543 . S
C1101 C185 1.544 . S
C1107 C116 1.497 . S
C1121 C139 1.498 . S
C1127 C31 1.543 . S
C1141 C225 1.563 . S
C1147 C161 1.467 . S
C1161 C181 1.498 . S
C1167 C336 1.544 1_565 S
C1181 C95 1.546 . S
C1187 C203 1.495 . S
C1201 C293 1.566 1_545 S
C1207 C229 1.464 . S
C1221 C251 1.486 . S
C1227 C138 1.552 . S
C1241 C270 1.464 . S
C1247 C247 1.566 1_545 S
C1261 C292 1.463 . S
C1267 C9 1.566 . S
C1281 C207 1.558 1_565 S
C1287 C315 1.476 . S
C1301 C49 1.555 . S
C1307 C337 1.481 . S
