# Generated by pormake.
# Topology umw, (4)-cn, num edge types: 1
# Building blocks:
#     Node 0, Type 0, BuildingBlock: ICAMEG_clean_sbu_1, # of connection points: 4
#     Node 1, Type 0, BuildingBlock: ICAMEG_clean_sbu_1, # of connection points: 4
#     Node 2, Type 0, BuildingBlock: ICAMEG_clean_sbu_1, # of connection points: 4
#     Node 3, Type 0, BuildingBlock: ICAMEG_clean_sbu_1, # of connection points: 4
#     Node 4, Type 0, BuildingBlock: ICAMEG_clean_sbu_1, # of connection points: 4
#     Node 5, Type 0, BuildingBlock: ICAMEG_clean_sbu_1, # of connection points: 4
#     Node 6, Type 0, BuildingBlock: ICAMEG_clean_sbu_1, # of connection points: 4
#     Node 7, Type 0, BuildingBlock: ICAMEG_clean_sbu_1, # of connection points: 4
#     Edge 8, Type (0, 0), BuildingBlock: KIFKEQ_clean_linker_1, # of connection points: 2
#     Edge 9, Type (0, 0), BuildingBlock: KIFKEQ_clean_linker_1, # of connection points: 2
#     Edge 10, Type (0, 0), BuildingBlock: KIFKEQ_clean_linker_1, # of connection points: 2
#     Edge 11, Type (0, 0), BuildingBlock: KIFKEQ_clean_linker_1, # of connection points: 2
#     Edge 12, Type (0, 0), BuildingBlock: KIFKEQ_clean_linker_1, # of connection points: 2
#     Edge 13, Type (0, 0), BuildingBlock: KIFKEQ_clean_linker_1, # of connection points: 2
#     Edge 14, Type (0, 0), BuildingBlock: KIFKEQ_clean_linker_1, # of connection points: 2
#     Edge 15, Type (0, 0), BuildingBlock: KIFKEQ_clean_linker_1, # of connection points: 2
#     Edge 16, Type (0, 0), BuildingBlock: KIFKEQ_clean_linker_1, # of connection points: 2
#     Edge 17, Type (0, 0), BuildingBlock: KIFKEQ_clean_linker_1, # of connection points: 2
#     Edge 18, Type (0, 0), BuildingBlock: KIFKEQ_clean_linker_1, # of connection points: 2
#     Edge 19, Type (0, 0), BuildingBlock: KIFKEQ_clean_linker_1, # of connection points: 2
#     Edge 20, Type (0, 0), BuildingBlock: KIFKEQ_clean_linker_1, # of connection points: 2
#     Edge 21, Type (0, 0), BuildingBlock: KIFKEQ_clean_linker_1, # of connection points: 2
#     Edge 22, Type (0, 0), BuildingBlock: KIFKEQ_clean_linker_1, # of connection points: 2
#     Edge 23, Type (0, 0), BuildingBlock: KIFKEQ_clean_linker_1, # of connection points: 2
# Relax obj value: 0.120
# Max RMSD: 0.128
# Mean RMSD: 0.128
data_MOF--net-umw--node1-ICAMEG_clean_sbu_1--edge1-KIFKEQ_clean_linker_1
_symmetry_space_group_name_H-M    P1
_symmetry_Int_Tables_number       1
_symmetry_cell_setting            triclinic
loop_
_symmetry_equiv_pos_as_xyz
'x, y, z'
_cell_length_a     43.562808
_cell_length_b     43.595116
_cell_length_c     29.602176
_cell_angle_alpha  89.899556
_cell_angle_beta   89.95856
_cell_angle_gamma 89.94758
loop_
_atom_site_label
_atom_site_type_symbol
_atom_site_fract_x
_atom_site_fract_y
_atom_site_fract_z
_atom_type_partial_charge
Co0 Co 0.46483 0.18136 0.31199 0.0
Co1 Co 0.39848 0.16038 0.36813 0.0
O2 O 0.42035 0.1834 0.32121 0.0
C3 C 0.44531 0.16256 0.22021 0.0
O4 O 0.42922 0.14014 0.23803 0.0
C5 C 0.38092 0.22481 0.38736 0.0
O6 O 0.4097 0.23248 0.38067 0.0
O7 O 0.42812 0.17361 0.4151 0.0
O8 O 0.47246 0.18075 0.37801 0.0
H9 H 0.38998 0.08886 0.50081 0.0
H10 H 0.42884 0.23002 0.26629 0.0
O11 O 0.45884 0.18198 0.24527 0.0
H12 H 0.5033 0.28474 0.36218 0.0
H13 H 0.56395 0.20992 0.23511 0.0
H14 H 0.51591 0.14587 0.35299 0.0
H15 H 0.50281 0.2282 0.35967 0.0
H16 H 0.50816 0.21253 0.24878 0.0
O17 O 0.37237 0.19709 0.38218 0.0
H18 H 0.41712 0.1176 0.4411 0.0
H19 H 0.33271 0.15515 0.39517 0.0
H20 H 0.57183 0.14276 0.34073 0.0
H21 H 0.42871 0.28661 0.26749 0.0
H22 H 0.5962 0.17494 0.2814 0.0
H23 H 0.46608 0.31433 0.31581 0.0
O24 O 0.46398 0.13562 0.31167 0.0
H25 H 0.32681 0.17648 0.23737 0.0
H26 H 0.37194 0.10009 0.34098 0.0
H27 H 0.33594 0.08311 0.28184 0.0
H28 H 0.31304 0.12146 0.2296 0.0
H29 H 0.36314 0.19241 0.2968 0.0
H30 H 0.30467 0.12702 0.45464 0.0
H31 H 0.33334 0.09349 0.50786 0.0
O32 O 0.42389 0.12317 0.35594 0.0
C33 C 0.45688 0.17888 0.41423 0.0
C34 C 0.37721 0.1033 0.47771 0.0
C35 C 0.32934 0.12475 0.45183 0.0
N36 N 0.37648 0.13778 0.41442 0.0
C37 C 0.39244 0.11954 0.44374 0.0
C38 C 0.34534 0.14065 0.41828 0.0
C39 C 0.34544 0.10593 0.48168 0.0
C40 C 0.44535 0.24194 0.28708 0.0
N41 N 0.46586 0.22584 0.31274 0.0
C42 C 0.44509 0.27397 0.28776 0.0
C43 C 0.46603 0.28951 0.31493 0.0
C44 C 0.48691 0.27292 0.34099 0.0
C45 C 0.48646 0.24091 0.33951 0.0
C46 C 0.55361 0.19584 0.26113 0.0
C47 C 0.52637 0.1601 0.32732 0.0
C48 C 0.52202 0.19717 0.26898 0.0
N49 N 0.50882 0.17956 0.30193 0.0
C50 C 0.55804 0.15817 0.32044 0.0
C51 C 0.57169 0.17621 0.28712 0.0
C52 C 0.4475 0.11606 0.33268 0.0
C53 C 0.33657 0.15957 0.26001 0.0
C54 C 0.36216 0.1169 0.31827 0.0
C55 C 0.34173 0.10716 0.28492 0.0
C56 C 0.32889 0.12869 0.25563 0.0
N57 N 0.36949 0.14724 0.32245 0.0
C58 C 0.35707 0.16847 0.29379 0.0
Co59 Co 0.8166 0.46384 0.55558 0.0
Co60 Co 0.83363 0.39208 0.59926 0.0
O61 O 0.81159 0.41926 0.55758 0.0
C62 C 0.83415 0.45159 0.46017 0.0
O63 O 0.85604 0.4331 0.47393 0.0
C64 C 0.76892 0.38018 0.62392 0.0
O65 O 0.76488 0.41002 0.62421 0.0
O66 O 0.82516 0.41923 0.65182 0.0
O67 O 0.81745 0.46604 0.62231 0.0
H68 H 0.90787 0.36653 0.72367 0.0
H69 H 0.76583 0.43412 0.50572 0.0
O70 O 0.8155 0.46338 0.48828 0.0
H71 H 0.71562 0.50554 0.61162 0.0
H72 H 0.7949 0.57012 0.49659 0.0
H73 H 0.85511 0.50868 0.605 0.0
H74 H 0.77205 0.50176 0.60828 0.0
H75 H 0.78857 0.51398 0.50043 0.0
O76 O 0.7948 0.36896 0.61237 0.0
H77 H 0.88018 0.40075 0.67121 0.0
H78 H 0.83289 0.32458 0.61547 0.0
H79 H 0.8619 0.56482 0.60261 0.0
H80 H 0.7093 0.43738 0.50754 0.0
H81 H 0.83168 0.59593 0.54808 0.0
H82 H 0.68383 0.47321 0.56091 0.0
O83 O 0.86236 0.45995 0.5546 0.0
H84 H 0.80629 0.33203 0.46035 0.0
H85 H 0.89011 0.36229 0.56287 0.0
H86 H 0.90154 0.32934 0.49732 0.0
H87 H 0.85943 0.31392 0.4456 0.0
H88 H 0.79593 0.3652 0.52612 0.0
H89 H 0.85984 0.28954 0.66761 0.0
H90 H 0.89774 0.31047 0.72208 0.0
O91 O 0.87269 0.41464 0.58803 0.0
C92 C 0.82033 0.44793 0.65573 0.0
C93 C 0.89152 0.3571 0.69995 0.0
C94 C 0.86452 0.3139 0.66853 0.0
N95 N 0.85523 0.36464 0.63995 0.0
C96 C 0.87587 0.37636 0.67004 0.0
C97 C 0.84931 0.33386 0.63913 0.0
C98 C 0.88579 0.32566 0.69908 0.0
C99 C 0.75491 0.44991 0.52882 0.0
N100 N 0.77223 0.46771 0.55692 0.0
C101 C 0.72289 0.45159 0.52979 0.0
C102 C 0.70862 0.47168 0.55978 0.0
C103 C 0.72644 0.4898 0.58826 0.0
C104 C 0.75839 0.48748 0.58638 0.0
C105 C 0.80817 0.55682 0.52054 0.0
C106 C 0.84174 0.52208 0.58136 0.0
C107 C 0.80475 0.525 0.52279 0.0
N108 N 0.82133 0.50807 0.55311 0.0
C109 C 0.84574 0.55385 0.58008 0.0
C110 C 0.8288 0.57129 0.54945 0.0
C111 C 0.88104 0.43997 0.57024 0.0
C112 C 0.82481 0.33853 0.48271 0.0
C113 C 0.87169 0.35578 0.54041 0.0
C114 C 0.87829 0.33706 0.50341 0.0
C115 C 0.85465 0.3284 0.47442 0.0
N116 N 0.84235 0.36551 0.54839 0.0
C117 C 0.81907 0.35721 0.52006 0.0
Co118 Co 0.53214 0.82137 0.81124 0.0
Co119 Co 0.61029 0.83121 0.82893 0.0
O120 O 0.57533 0.81208 0.79802 0.0
C121 C 0.53751 0.83781 0.71485 0.0
O122 O 0.5645 0.84984 0.72336 0.0
C123 C 0.62016 0.76569 0.85237 0.0
O124 O 0.59076 0.76374 0.86172 0.0
O125 O 0.59094 0.82561 0.88962 0.0
O126 O 0.54061 0.81819 0.87646 0.0
H127 H 0.66083 0.9035 0.93795 0.0
H128 H 0.54843 0.77114 0.74838 0.0
O129 O 0.5223 0.82458 0.74585 0.0
H130 H 0.48898 0.72197 0.87042 0.0
H131 H 0.41784 0.81305 0.78855 0.0
H132 H 0.50037 0.86036 0.87853 0.0
H133 H 0.49822 0.77778 0.87095 0.0
H134 H 0.47216 0.80153 0.77217 0.0
O135 O 0.63114 0.79041 0.83597 0.0
H136 H 0.61709 0.87909 0.89927 0.0
H137 H 0.67822 0.82356 0.82305 0.0
H138 H 0.44634 0.87228 0.89636 0.0
H139 H 0.53946 0.71527 0.74619 0.0
H140 H 0.40464 0.84856 0.85118 0.0
H141 H 0.50963 0.69033 0.80762 0.0
O142 O 0.54008 0.86661 0.81249 0.0
H143 H 0.64431 0.7972 0.67483 0.0
H144 H 0.63954 0.88403 0.78118 0.0
H145 H 0.66232 0.89167 0.70569 0.0
H146 H 0.66483 0.84805 0.65194 0.0
H147 H 0.6215 0.79063 0.75057 0.0
H148 H 0.72261 0.84716 0.8612 0.0
H149 H 0.71405 0.88754 0.91897 0.0
O150 O 0.59074 0.87222 0.8234 0.0
C151 C 0.56357 0.82029 0.90271 0.0
C152 C 0.66486 0.88599 0.91275 0.0
C153 C 0.69953 0.85435 0.86971 0.0
N154 N 0.64511 0.85009 0.85873 0.0
C155 C 0.64019 0.87214 0.89066 0.0
C156 C 0.67431 0.84102 0.84831 0.0
C157 C 0.69471 0.87701 0.90211 0.0
C158 C 0.5353 0.76044 0.7751 0.0
N159 N 0.52394 0.77766 0.80982 0.0
C160 C 0.53035 0.72881 0.77373 0.0
C161 C 0.51363 0.71482 0.80823 0.0
C162 C 0.50206 0.73255 0.8435 0.0
C163 C 0.50748 0.76412 0.84374 0.0
C164 C 0.4358 0.8235 0.80852 0.0
C165 C 0.48234 0.84981 0.85889 0.0
C166 C 0.4666 0.81714 0.79931 0.0
N167 N 0.48941 0.83013 0.82454 0.0
C168 C 0.4518 0.85671 0.86906 0.0
C169 C 0.42841 0.84342 0.84367 0.0
C170 C 0.56392 0.88322 0.8177 0.0
C171 C 0.64342 0.81636 0.69799 0.0
C172 C 0.6405 0.86495 0.75795 0.0
C173 C 0.65348 0.8694 0.71528 0.0
C174 C 0.65489 0.84491 0.68515 0.0
N175 N 0.62933 0.83687 0.77029 0.0
C176 C 0.63065 0.81274 0.74096 0.0
Co177 Co 0.1832 0.54133 0.05396 0.0
Co178 Co 0.16669 0.61082 0.10395 0.0
O179 O 0.18834 0.58581 0.05909 0.0
C180 C 0.16754 0.5566 0.95887 0.0
O181 O 0.14513 0.5743 0.97307 0.0
C182 C 0.23191 0.62605 0.12154 0.0
O183 O 0.23814 0.59665 0.11854 0.0
O184 O 0.17909 0.58278 0.1537 0.0
O185 O 0.18059 0.53664 0.12049 0.0
H186 H 0.0967 0.6288 0.2363 0.0
H187 H 0.23548 0.57143 0.00777 0.0
O188 O 0.18589 0.54416 0.98684 0.0
H189 H 0.28225 0.4975 0.11361 0.0
H190 H 0.20603 0.43712 0.98881 0.0
H191 H 0.14262 0.49516 0.09714 0.0
H192 H 0.22597 0.50211 0.1078 0.0
H193 H 0.21264 0.49298 -0.00274 0.0
O194 O 0.20467 0.6357 0.11478 0.0
H195 H 0.12374 0.59765 0.17927 0.0
H196 H 0.16465 0.6778 0.12415 0.0
H197 H 0.13546 0.43926 0.09008 0.0
H198 H 0.2919 0.56736 0.0122 0.0
H199 H 0.1673 0.40986 0.03558 0.0
H200 H 0.31562 0.53025 0.06554 0.0
O201 O 0.13768 0.54574 0.05114 0.0
H202 H 0.18485 0.67549 0.96595 0.0
H203 H 0.10736 0.63892 0.07494 0.0
H204 H 0.0915 0.67291 0.01247 0.0
H205 H 0.13041 0.6915 0.95751 0.0
H206 H 0.19965 0.64124 0.02875 0.0
H207 H 0.13828 0.70981 0.18084 0.0
H208 H 0.10391 0.68531 0.23732 0.0
O209 O 0.1281 0.58674 0.09496 0.0
C210 C 0.18113 0.55366 0.1553 0.0
C211 C 0.11152 0.63976 0.21176 0.0
C212 C 0.13489 0.68522 0.18067 0.0
N213 N 0.14551 0.63592 0.14816 0.0
C214 C 0.12681 0.62225 0.17929 0.0
C215 C 0.1498 0.66697 0.1487 0.0
C216 C 0.1156 0.67146 0.21234 0.0
C217 C 0.24565 0.55503 0.03075 0.0
N218 N 0.22746 0.53696 0.05735 0.0
C219 C 0.2776 0.55291 0.03324 0.0
C220 C 0.2909 0.53211 0.06322 0.0
C221 C 0.27219 0.51375 0.09023 0.0
C222 C 0.24033 0.51653 0.08687 0.0
C223 C 0.19208 0.44966 0.01277 0.0
C224 C 0.15672 0.4825 0.07359 0.0
C225 C 0.19568 0.48131 0.01766 0.0
N226 N 0.17824 0.49729 0.048 0.0
C227 C 0.15249 0.45086 0.06963 0.0
C228 C 0.17035 0.43438 0.03902 0.0
C229 C 0.11933 0.56355 0.07214 0.0
C230 C 0.1677 0.66761 0.98975 0.0
C231 C 0.1244 0.64682 0.05106 0.0
C232 C 0.1153 0.66612 0.01582 0.0
C233 C 0.13714 0.67655 0.985 0.0
N234 N 0.15444 0.63824 0.05557 0.0
C235 C 0.17597 0.6483 0.02543 0.0
Co236 Co 0.4739 0.82439 0.30707 0.0
Co237 Co 0.40668 0.84319 0.25246 0.0
O238 O 0.42958 0.8199 0.29805 0.0
C239 C 0.45249 0.83548 0.40051 0.0
O240 O 0.43302 0.85598 0.38505 0.0
C241 C 0.39015 0.7788 0.23112 0.0
O242 O 0.41921 0.7715 0.23601 0.0
O243 O 0.4362 0.83105 0.20457 0.0
O244 O 0.4811 0.82915 0.24132 0.0
H245 H 0.39529 0.91625 0.12208 0.0
H246 H 0.44178 0.77097 0.34695 0.0
O247 O 0.46861 0.81965 0.37339 0.0
H248 H 0.51921 0.72708 0.244 0.0
H249 H 0.57562 0.79832 0.37831 0.0
H250 H 0.52181 0.86596 0.27062 0.0
H251 H 0.51479 0.78309 0.25345 0.0
H252 H 0.52009 0.79242 0.36488 0.0
O253 O 0.38119 0.80622 0.23806 0.0
H254 H 0.42365 0.88723 0.18024 0.0
H255 H 0.34053 0.84751 0.2272 0.0
H256 H 0.57744 0.87245 0.28268 0.0
H257 H 0.44562 0.71478 0.33885 0.0
H258 H 0.60471 0.83849 0.3369 0.0
H259 H 0.48449 0.69251 0.28695 0.0
O260 O 0.46963 0.86969 0.31314 0.0
H261 H 0.33694 0.824 0.38466 0.0
H262 H 0.379 0.90258 0.28185 0.0
H263 H 0.34336 0.91805 0.34245 0.0
H264 H 0.32201 0.87861 0.3943 0.0
H265 H 0.37289 0.80957 0.3238 0.0
H266 H 0.31128 0.87589 0.16928 0.0
H267 H 0.33868 0.91066 0.11633 0.0
O268 O 0.43133 0.88088 0.26505 0.0
C269 C 0.46537 0.82913 0.20521 0.0
C270 C 0.38307 0.90127 0.14506 0.0
C271 C 0.33593 0.87858 0.17152 0.0
N272 N 0.38373 0.86594 0.20734 0.0
C273 C 0.399 0.88485 0.17816 0.0
C274 C 0.35262 0.86254 0.20419 0.0
C275 C 0.35132 0.89809 0.14183 0.0
C276 C 0.45894 0.76142 0.32463 0.0
N277 N 0.47808 0.78028 0.30083 0.0
C278 C 0.46092 0.7296 0.32004 0.0
C279 C 0.48271 0.71712 0.29086 0.0
C280 C 0.50218 0.73651 0.26672 0.0
C281 C 0.4995 0.76822 0.27212 0.0
C282 C 0.56401 0.81323 0.35456 0.0
C283 C 0.53355 0.85098 0.29408 0.0
C284 C 0.53254 0.81006 0.3469 0.0
N285 N 0.51774 0.82873 0.31682 0.0
C286 C 0.56504 0.85481 0.30085 0.0
C287 C 0.58032 0.83577 0.3313 0.0
C288 C 0.45328 0.88878 0.29103 0.0
C289 C 0.34602 0.84139 0.36221 0.0
C290 C 0.36989 0.88529 0.30438 0.0
C291 C 0.34967 0.89418 0.33856 0.0
C292 C 0.33768 0.87204 0.36763 0.0
N293 N 0.37788 0.85516 0.2992 0.0
C294 C 0.36629 0.83333 0.32761 0.0
Co295 Co 0.17341 0.46548 0.55883 0.0
Co296 Co 0.158 0.39457 0.5133 0.0
O297 O 0.17956 0.42101 0.55636 0.0
C298 C 0.16025 0.45348 0.65595 0.0
O299 O 0.13714 0.43577 0.64464 0.0
C300 C 0.2232 0.37883 0.49619 0.0
O301 O 0.2293 0.40831 0.4968 0.0
O302 O 0.17056 0.42108 0.46185 0.0
O303 O 0.1692 0.46814 0.49219 0.0
H304 H 0.08817 0.37237 0.38238 0.0
H305 H 0.22752 0.43804 0.60409 0.0
O306 O 0.1778 0.46475 0.62587 0.0
H307 H 0.26984 0.50984 0.49126 0.0
H308 H 0.19493 0.5721 0.61586 0.0
H309 H 0.13063 0.50933 0.51493 0.0
H310 H 0.21387 0.50406 0.50032 0.0
H311 H 0.20284 0.51621 0.61073 0.0
O312 O 0.19606 0.36937 0.50423 0.0
H313 H 0.11514 0.40533 0.43713 0.0
H314 H 0.15615 0.32702 0.49773 0.0
H315 H 0.12215 0.5652 0.5187 0.0
H316 H 0.28367 0.44335 0.59647 0.0
H317 H 0.15443 0.59699 0.56947 0.0
H318 H 0.30516 0.47939 0.5396 0.0
O319 O 0.12818 0.46004 0.56419 0.0
H320 H 0.17603 0.33447 0.65572 0.0
H321 H 0.09868 0.36732 0.54406 0.0
H322 H 0.08279 0.3354 0.60884 0.0
H323 H 0.12162 0.31869 0.66517 0.0
H324 H 0.19087 0.36664 0.59059 0.0
H325 H 0.12987 0.29323 0.44337 0.0
H326 H 0.09548 0.31588 0.38529 0.0
O327 O 0.11926 0.41888 0.52053 0.0
C328 C 0.17104 0.45019 0.4585 0.0
C329 C 0.10301 0.36221 0.40762 0.0
C330 C 0.12644 0.3178 0.44182 0.0
N331 N 0.13697 0.36809 0.47083 0.0
C332 C 0.11826 0.38075 0.4388 0.0
C333 C 0.14131 0.33705 0.47245 0.0
C334 C 0.10714 0.33052 0.40925 0.0
C335 C 0.23671 0.45398 0.57958 0.0
N336 N 0.21744 0.47079 0.55282 0.0
C337 C 0.26852 0.4568 0.57529 0.0
C338 C 0.28056 0.477 0.54333 0.0
C339 C 0.26076 0.49407 0.51617 0.0
C340 C 0.22908 0.49063 0.52137 0.0
C341 C 0.18077 0.55851 0.59352 0.0
C342 C 0.14493 0.52303 0.53684 0.0
C343 C 0.18511 0.52684 0.59051 0.0
N344 N 0.16741 0.50954 0.5622 0.0
C345 C 0.13995 0.55465 0.53895 0.0
C346 C 0.15805 0.57246 0.56748 0.0
C347 C 0.1101 0.44198 0.5433 0.0
C348 C 0.15891 0.34154 0.63134 0.0
C349 C 0.11569 0.36024 0.56852 0.0
C350 C 0.10657 0.3421 0.60507 0.0
C351 C 0.12837 0.33273 0.63665 0.0
N352 N 0.14571 0.36869 0.56348 0.0
C353 C 0.1672 0.35967 0.59435 0.0
Co354 Co 0.53159 0.1768 0.81278 0.0
Co355 Co 0.60802 0.16639 0.7838 0.0
O356 O 0.57548 0.18528 0.82021 0.0
C357 C 0.53704 0.15725 0.90913 0.0
O358 O 0.55773 0.13665 0.89819 0.0
C359 C 0.61766 0.23216 0.76282 0.0
O360 O 0.5879 0.23454 0.75669 0.0
O361 O 0.58537 0.17414 0.72632 0.0
O362 O 0.53581 0.17924 0.74635 0.0
H363 H 0.65054 0.09655 0.66419 0.0
H364 H 0.55345 0.22757 0.87086 0.0
O365 O 0.52594 0.1752 0.87947 0.0
H366 H 0.485 0.27618 0.75904 0.0
H367 H 0.41933 0.18685 0.8514 0.0
H368 H 0.49516 0.1378 0.75098 0.0
H369 H 0.49331 0.22021 0.75869 0.0
H370 H 0.47455 0.19778 0.85982 0.0
O371 O 0.62917 0.20696 0.77669 0.0
H372 H 0.60972 0.12058 0.70986 0.0
H373 H 0.67617 0.17256 0.7814 0.0
H374 H 0.44011 0.12648 0.74108 0.0
H375 H 0.54551 0.28359 0.8729 0.0
H376 H 0.40177 0.15109 0.79153 0.0
H377 H 0.51119 0.30827 0.81655 0.0
O378 O 0.53891 0.13139 0.81107 0.0
H379 H 0.65182 0.19503 0.93482 0.0
H380 H 0.63875 0.11161 0.82419 0.0
H381 H 0.66589 0.10126 0.89572 0.0
H382 H 0.67262 0.14317 0.95157 0.0
H383 H 0.6246 0.20429 0.86297 0.0
H384 H 0.71769 0.1493 0.73625 0.0
H385 H 0.70498 0.11089 0.67728 0.0
O386 O 0.58796 0.12567 0.78927 0.0
C387 C 0.55714 0.17853 0.71701 0.0
C388 C 0.65638 0.11319 0.68987 0.0
C389 C 0.69407 0.14282 0.73028 0.0
N390 N 0.64058 0.14776 0.74848 0.0
C391 C 0.63337 0.12681 0.71591 0.0
C392 C 0.67045 0.15596 0.75567 0.0
C393 C 0.68692 0.12126 0.69721 0.0
C394 C 0.53844 0.23815 0.84628 0.0
N395 N 0.52413 0.22069 0.81432 0.0
C396 C 0.53405 0.26987 0.84759 0.0
C397 C 0.5148 0.28371 0.81595 0.0
C398 C 0.50014 0.26573 0.78363 0.0
C399 C 0.50509 0.23408 0.78336 0.0
C400 C 0.43581 0.17602 0.82917 0.0
C401 C 0.4786 0.14874 0.77289 0.0
C402 C 0.46713 0.18203 0.83387 0.0
N403 N 0.48807 0.16858 0.80573 0.0
C404 C 0.44747 0.14218 0.76721 0.0
C405 C 0.42597 0.15596 0.79556 0.0
C406 C 0.56186 0.11473 0.8001 0.0
C407 C 0.6491 0.1766 0.9107 0.0
C408 C 0.6415 0.12994 0.84839 0.0
C409 C 0.65695 0.12396 0.88879 0.0
C410 C 0.66074 0.14749 0.9201 0.0
N411 N 0.63024 0.15858 0.83938 0.0
C412 C 0.6338 0.18174 0.86993 0.0
Co413 Co 0.82625 0.53972 0.05987 0.0
Co414 Co 0.8419 0.60976 0.00989 0.0
O415 O 0.82038 0.58407 0.05409 0.0
C416 C 0.8429 0.55347 0.1556 0.0
O417 O 0.86695 0.56921 0.1423 0.0
C418 C 0.77683 0.62077 0.98596 0.0
O419 O 0.77296 0.59092 0.98747 0.0
O420 O 0.83285 0.58072 0.95993 0.0
O421 O 0.82813 0.53482 -0.00654 0.0
H422 H 0.91469 0.63063 0.88173 0.0
H423 H 0.77406 0.57019 0.10573 0.0
O424 O 0.82391 0.54285 0.12702 0.0
H425 H 0.7271 0.49392 0.00428 0.0
H426 H 0.80596 0.43559 0.12752 0.0
H427 H 0.8665 0.49376 0.01566 0.0
H428 H 0.78337 0.49904 0.00892 0.0
H429 H 0.79842 0.49131 0.11843 0.0
O430 O 0.80281 0.63235 -0.00394 0.0
H431 H 0.88775 0.59844 0.9377 0.0
H432 H 0.84067 0.67656 0.98813 0.0
H433 H 0.87453 0.43798 0.02334 0.0
H434 H 0.71766 0.56565 0.1025 0.0
H435 H 0.84416 0.40852 0.07963 0.0
H436 H 0.69383 0.52737 0.05137 0.0
O437 O 0.87184 0.54461 0.06155 0.0
H438 H 0.81588 0.6749 0.1444 0.0
H439 H 0.89863 0.64107 0.04217 0.0
H440 H 0.91064 0.67656 0.10449 0.0
H441 H 0.86906 0.69379 0.15604 0.0
H442 H 0.80495 0.63918 0.08185 0.0
H443 H 0.86688 0.70958 0.93243 0.0
H444 H 0.90429 0.68664 0.87885 0.0
O445 O 0.88126 0.58775 0.02198 0.0
C446 C 0.82953 0.55171 0.95851 0.0
C447 C 0.89854 0.64092 0.90503 0.0
C448 C 0.87168 0.68522 0.93344 0.0
N449 N 0.86294 0.63566 0.96648 0.0
C450 C 0.88332 0.62283 0.93691 0.0
C451 C 0.85688 0.66641 0.96486 0.0
C452 C 0.89267 0.67234 0.90339 0.0
C453 C 0.76386 0.55332 0.08365 0.0
N454 N 0.782 0.53489 0.05756 0.0
C455 C 0.73191 0.55092 0.08186 0.0
C456 C 0.71856 0.52946 0.05312 0.0
C457 C 0.73721 0.51071 0.02666 0.0
C458 C 0.76907 0.51378 0.02931 0.0
C459 C 0.8193 0.44816 0.10283 0.0
C460 C 0.85305 0.48107 0.04004 0.0
C461 C 0.81519 0.47975 0.0976 0.0
N462 N 0.83188 0.49576 0.06634 0.0
C463 C 0.85776 0.4495 0.04432 0.0
C464 C 0.84073 0.43299 0.07594 0.0
C465 C 0.89014 0.56377 0.04304 0.0
C466 C 0.83417 0.66761 0.1221 0.0
C467 C 0.88045 0.64835 0.06459 0.0
C468 C 0.88737 0.66851 0.09974 0.0
C469 C 0.86403 0.67818 0.12864 0.0
N470 N 0.85108 0.6382 0.0583 0.0
C471 C 0.8281 0.64748 0.08657 0.0
H472 H 0.43281 0.17913 0.49952 0.0
H473 H 0.5188 0.18523 0.42666 0.0
H474 H 0.46064 0.18191 0.57059 0.0
H475 H 0.54647 0.18817 0.49803 0.0
H476 H 0.57953 0.15062 0.64098 0.0
H477 H 0.55704 0.15322 0.565 0.0
H478 H 0.49171 0.22064 0.61198 0.0
H479 H 0.51394 0.21796 0.687 0.0
C480 C 0.45757 0.18129 0.49859 0.0
C481 C 0.47351 0.182 0.45739 0.0
C482 C 0.4735 0.183 0.53928 0.0
C483 C 0.50569 0.18536 0.53964 0.0
C484 C 0.52169 0.18616 0.49859 0.0
C485 C 0.50575 0.18465 0.45781 0.0
C486 C 0.56077 0.16636 0.63459 0.0
C487 C 0.54789 0.18352 0.6699 0.0
C488 C 0.54791 0.16786 0.59132 0.0
C489 C 0.52221 0.18664 0.58309 0.0
C490 C 0.51095 0.20536 0.61776 0.0
C491 C 0.52365 0.20379 0.6607 0.0
H492 H 0.7986 0.50446 0.67836 0.0
H493 H 0.83954 0.42282 0.73577 0.0
H494 H 0.79956 0.52892 0.75165 0.0
H495 H 0.84171 0.44797 0.80918 0.0
H496 H 0.8149 0.4919 0.94218 0.0
H497 H 0.81073 0.46638 0.86987 0.0
H498 H 0.83621 0.55054 0.8021 0.0
H499 H 0.83908 0.57661 0.87465 0.0
C500 C 0.80777 0.49165 0.70664 0.0
C501 C 0.81898 0.46163 0.70119 0.0
C502 C 0.8086 0.50586 0.74864 0.0
C503 C 0.82103 0.49057 0.78613 0.0
C504 C 0.8317 0.46029 0.781 0.0
C505 C 0.83052 0.44588 0.73894 0.0
C506 C 0.81939 0.50513 0.91193 0.0
C507 C 0.82708 0.53643 0.91423 0.0
C508 C 0.81727 0.49034 0.87042 0.0
C509 C 0.82314 0.50638 0.83024 0.0
C510 C 0.83102 0.53765 0.83246 0.0
C511 C 0.83282 0.55257 0.87403 0.0
H512 H 0.52752 0.83067 0.19292 0.0
H513 H 0.44175 0.8219 0.1203 0.0
H514 H 0.55575 0.8255 0.12237 0.0
H515 H 0.47022 0.81693 0.0498 0.0
H516 H 0.52738 0.77726 0.94024 0.0
H517 H 0.50584 0.77785 0.01608 0.0
H518 H 0.56273 0.8557 0.0495 0.0
H519 H 0.58446 0.85499 0.97293 0.0
C520 C 0.51464 0.82765 0.16197 0.0
C521 C 0.48231 0.82655 0.16224 0.0
C522 C 0.53089 0.82482 0.12164 0.0
C523 C 0.51516 0.82057 0.08091 0.0
C524 C 0.48289 0.81969 0.08101 0.0
C525 C 0.4666 0.82273 0.12128 0.0
C526 C 0.53562 0.79417 0.96405 0.0
C527 C 0.55706 0.81643 0.95086 0.0
C528 C 0.52323 0.79458 0.00727 0.0
C529 C 0.53208 0.81729 0.03805 0.0
C530 C 0.55549 0.83802 0.02616 0.0
C531 C 0.56799 0.83756 0.98264 0.0
H532 H 0.15354 0.50768 0.43461 0.0
H533 H 0.19503 0.42523 0.38135 0.0
H534 H 0.1585 0.53231 0.36164 0.0
H535 H 0.20136 0.45048 0.30822 0.0
H536 H 0.19345 0.57946 0.23766 0.0
H537 H 0.19419 0.5538 0.31087 0.0
H538 H 0.17224 0.46773 0.24604 0.0
H539 H 0.17302 0.49291 0.17317 0.0
C540 C 0.16402 0.4949 0.40732 0.0
C541 C 0.17385 0.46449 0.41362 0.0
C542 C 0.16715 0.50916 0.36552 0.0
C543 C 0.18059 0.49352 0.3291 0.0
C544 C 0.19056 0.46307 0.33543 0.0
C545 C 0.18699 0.44859 0.37726 0.0
C546 C 0.18905 0.55502 0.2391 0.0
C547 C 0.18301 0.5383 0.19965 0.0
C548 C 0.1893 0.54032 0.28104 0.0
C549 C 0.18303 0.50871 0.28439 0.0
C550 C 0.17762 0.49196 0.24475 0.0
C551 C 0.17781 0.50653 0.20288 0.0
H552 H 0.3272 0.21408 0.43149 0.0
H553 H 0.38409 0.28749 0.38072 0.0
H554 H 0.29063 0.2512 0.46021 0.0
H555 H 0.34651 0.32499 0.4073 0.0
H556 H 0.28572 0.3865 0.49463 0.0
H557 H 0.32447 0.34963 0.46979 0.0
H558 H 0.25259 0.28473 0.43819 0.0
H559 H 0.21444 0.32077 0.46518 0.0
C560 C 0.33167 0.23823 0.42589 0.0
C561 C 0.35847 0.24783 0.40359 0.0
C562 C 0.31055 0.25963 0.44218 0.0
C563 C 0.31525 0.29131 0.43585 0.0
C564 C 0.34218 0.3009 0.41349 0.0
C565 C 0.36366 0.2794 0.39787 0.0
C566 C 0.27834 0.36422 0.48268 0.0
C567 C 0.24704 0.35648 0.48224 0.0
C568 C 0.30053 0.34312 0.46804 0.0
C569 C 0.29187 0.31397 0.45195 0.0
C570 C 0.26042 0.30652 0.45131 0.0
C571 C 0.23839 0.32734 0.46662 0.0
H572 H 0.77012 0.31762 0.62875 0.0
H573 H 0.71309 0.39591 0.66021 0.0
H574 H 0.73269 0.28383 0.66395 0.0
H575 H 0.67579 0.36197 0.69638 0.0
H576 H 0.60292 0.28475 0.71652 0.0
H577 H 0.63831 0.32141 0.68202 0.0
H578 H 0.715 0.27205 0.73941 0.0
H579 H 0.67986 0.23522 0.77303 0.0
C580 C 0.74954 0.32765 0.64304 0.0
C581 C 0.74472 0.35953 0.64181 0.0
C582 C 0.72817 0.30827 0.66363 0.0
C583 C 0.70142 0.32021 0.68364 0.0
C584 C 0.69609 0.352 0.68119 0.0
C585 C 0.71752 0.37145 0.66051 0.0
C586 C 0.62731 0.28196 0.72225 0.0
C587 C 0.63853 0.25688 0.74724 0.0
C588 C 0.64761 0.303 0.70248 0.0
C589 C 0.67954 0.29941 0.70732 0.0
C590 C 0.6906 0.2751 0.73404 0.0
C591 C 0.67039 0.2541 0.75369 0.0
H592 H 0.77799 0.68309 0.97622 0.0
H593 H 0.71979 0.60417 0.9551 0.0
H594 H 0.73925 0.71593 0.94213 0.0
H595 H 0.68111 0.63716 0.92009 0.0
H596 H 0.60747 0.71439 0.90302 0.0
H597 H 0.64429 0.67838 0.93581 0.0
H598 H 0.71824 0.7256 0.86779 0.0
H599 H 0.68171 0.76178 0.83578 0.0
C600 C 0.75689 0.67271 0.96442 0.0
C601 C 0.7521 0.64093 0.96827 0.0
C602 C 0.73475 0.69155 0.94446 0.0
C603 C 0.7072 0.67915 0.92776 0.0
C604 C 0.702 0.64748 0.93272 0.0
C605 C 0.72423 0.62856 0.95271 0.0
C606 C 0.63154 0.71683 0.89458 0.0
C607 C 0.64163 0.74116 0.86706 0.0
C608 C 0.65266 0.69615 0.91337 0.0
C609 C 0.6843 0.69938 0.90504 0.0
C610 C 0.69414 0.72287 0.87582 0.0
C611 C 0.67311 0.74349 0.85713 0.0
H612 H 0.22326 0.68279 0.15742 0.0
H613 H 0.2945 0.61878 0.11986 0.0
H614 H 0.26165 0.71836 0.18477 0.0
H615 H 0.33343 0.65526 0.14512 0.0
H616 H 0.3945 0.71601 0.23424 0.0
H617 H 0.3568 0.67863 0.20782 0.0
H618 H 0.29861 0.75284 0.16187 0.0
H619 H 0.33532 0.78975 0.1904 0.0
C620 C 0.24724 0.67652 0.15432 0.0
C621 C 0.25583 0.64801 0.13623 0.0
C622 C 0.26939 0.69706 0.16984 0.0
C623 C 0.30088 0.69 0.16692 0.0
C624 C 0.30947 0.66143 0.14858 0.0
C625 C 0.28718 0.64058 0.13372 0.0
C626 C 0.37354 0.7242 0.21865 0.0
C627 C 0.36774 0.7558 0.21486 0.0
C628 C 0.35198 0.70279 0.20314 0.0
C629 C 0.32437 0.71254 0.18284 0.0
C630 C 0.31908 0.74426 0.17835 0.0
C631 C 0.34029 0.76555 0.19453 0.0
H632 H 0.44013 0.93423 0.23094 0.0
H633 H 0.47909 0.91841 0.36317 0.0
H634 H 0.44487 0.98941 0.2419 0.0
H635 H 0.48343 0.97398 0.37428 0.0
H636 H 0.43293 0.07024 0.39156 0.0
H637 H 0.44049 0.01525 0.38166 0.0
H638 H 0.48573 0.03196 0.25422 0.0
H639 H 0.47855 0.0873 0.26429 0.0
C640 C 0.45 0.94254 0.26218 0.0
C641 C 0.45908 0.92199 0.29633 0.0
C642 C 0.45292 0.97414 0.26827 0.0
C643 C 0.46451 0.98591 0.3089 0.0
C644 C 0.47437 0.96542 0.34266 0.0
C645 C 0.47198 0.9337 0.33623 0.0
C646 C 0.44488 0.06226 0.3617 0.0
C647 C 0.45499 0.08309 0.32856 0.0
C648 C 0.44939 0.03078 0.35624 0.0
C649 C 0.46367 0.01941 0.3172 0.0
C650 C 0.4746 0.04021 0.2846 0.0
C651 C 0.47058 0.07182 0.29045 0.0
H652 H 0.92503 0.42151 0.62931 0.0
H653 H 0.91235 0.47134 0.50446 0.0
H654 H 0.98051 0.42754 0.62253 0.0
H655 H 0.96831 0.47663 0.49713 0.0
H656 H 0.06681 0.42662 0.48103 0.0
H657 H 0.01112 0.43172 0.48754 0.0
H658 H 0.02182 0.47362 0.61851 0.0
H659 H 0.07779 0.46925 0.61167 0.0
C660 C 0.93411 0.43392 0.60055 0.0
C661 C 0.91438 0.44586 0.56731 0.0
C662 C 0.96583 0.43753 0.59688 0.0
C663 C 0.97857 0.45258 0.55939 0.0
C664 C 0.95893 0.46498 0.52639 0.0
C665 C 0.92702 0.46202 0.53064 0.0
C666 C 0.05733 0.43729 0.51098 0.0
C667 C 0.07663 0.4474 0.54597 0.0
C668 C 0.0255 0.44039 0.5145 0.0
C669 C 0.0123 0.45309 0.55346 0.0
C670 C 0.03154 0.46379 0.58811 0.0
C671 C 0.06348 0.46133 0.58415 0.0
H672 H 0.51277 0.91827 0.79793 0.0
H673 H 0.60839 0.92539 0.83569 0.0
H674 H 0.50972 0.97438 0.79312 0.0
H675 H 0.60507 0.98069 0.83177 0.0
H676 H 0.6027 0.07304 0.76724 0.0
H677 H 0.60044 0.01773 0.77125 0.0
H678 H 0.51269 0.02304 0.83875 0.0
H679 H 0.51456 0.07923 0.83395 0.0
C680 C 0.53303 0.93169 0.80546 0.0
C681 C 0.56092 0.91718 0.81663 0.0
C682 C 0.53122 0.96382 0.80292 0.0
C683 C 0.55727 0.98198 0.81143 0.0
C684 C 0.58476 0.96741 0.82394 0.0
C685 C 0.5866 0.93555 0.82638 0.0
C686 C 0.58277 0.06266 0.78289 0.0
C687 C 0.55895 0.08077 0.80076 0.0
C688 C 0.58157 0.03079 0.78535 0.0
C689 C 0.55665 0.01593 0.80602 0.0
C690 C 0.5322 0.03383 0.82258 0.0
C691 C 0.53334 0.06599 0.81998 0.0
H692 H 0.93427 0.5824 0.984 0.0
H693 H 0.92171 0.53355 0.10978 0.0
H694 H 0.98978 0.57699 -0.00871 0.0
H695 H 0.97764 0.52885 0.11749 0.0
H696 H 0.07565 0.57833 0.13425 0.0
H697 H 0.02004 0.57315 0.12716 0.0
H698 H 0.0316 0.53196 -0.00418 0.0
H699 H 0.08751 0.53645 0.00322 0.0
C700 C 0.94336 0.57036 0.01309 0.0
C701 C 0.92362 0.55852 0.04644 0.0
C702 C 0.97512 0.56709 0.01705 0.0
C703 C 0.98789 0.55247 0.05487 0.0
C704 C 0.96826 0.54021 0.08799 0.0
C705 C 0.93635 0.54284 0.08352 0.0
C706 C 0.06638 0.56779 0.1041 0.0
C707 C 0.08592 0.5579 0.06919 0.0
C708 C 0.03458 0.56466 0.10023 0.0
C709 C 0.02163 0.55215 0.06099 0.0
C710 C 0.04111 0.54167 0.02642 0.0
C711 C 0.07302 0.54417 0.03071 0.0
H712 H 0.54342 0.11538 0.97802 0.0
H713 H 0.49992 0.2015 0.94361 0.0
H714 H 0.51783 0.11636 0.05176 0.0
H715 H 0.47421 0.20209 0.01629 0.0
H716 H 0.46714 0.21025 0.17085 0.0
H717 H 0.48912 0.20844 0.09544 0.0
H718 H 0.4644 0.11279 0.08465 0.0
H719 H 0.44257 0.11448 0.1609 0.0
C720 C 0.52861 0.13454 0.98624 0.0
C721 C 0.5238 0.15838 0.95505 0.0
C722 C 0.51368 0.13491 0.02815 0.0
C723 C 0.49391 0.15923 0.03961 0.0
C724 C 0.48946 0.18316 0.00856 0.0
C725 C 0.5042 0.18275 0.96684 0.0
C726 C 0.4659 0.18894 0.15214 0.0
C727 C 0.45314 0.1625 0.17175 0.0
C728 C 0.4785 0.18792 0.10892 0.0
C729 C 0.47872 0.1604 0.08435 0.0
C730 C 0.46489 0.13419 0.10317 0.0
C731 C 0.45203 0.13528 0.14648 0.0
H732 H 0.79301 0.52761 0.19539 0.0
H733 H 0.88709 0.55347 0.22159 0.0
H734 H 0.79076 0.50135 0.26765 0.0
H735 H 0.88454 0.5276 0.29493 0.0
H736 H 0.87939 0.44734 0.39593 0.0
H737 H 0.88119 0.47397 0.32313 0.0
H738 H 0.79077 0.51115 0.3479 0.0
H739 H 0.78862 0.48415 0.41958 0.0
C740 C 0.81307 0.52817 0.21698 0.0
C741 C 0.84027 0.54259 0.20271 0.0
C742 C 0.81175 0.51311 0.25847 0.0
C743 C 0.83756 0.51213 0.2868 0.0
C744 C 0.86444 0.52753 0.2734 0.0
C745 C 0.86576 0.54273 0.23175 0.0
C746 C 0.8597 0.46072 0.38536 0.0
C747 C 0.83387 0.4636 0.41348 0.0
C748 C 0.86091 0.47633 0.34403 0.0
C749 C 0.83626 0.49492 0.33004 0.0
C750 C 0.81007 0.49689 0.35755 0.0
C751 C 0.80887 0.48141 0.39871 0.0
H752 H 0.56713 0.84513 0.63413 0.0
H753 H 0.477 0.83494 0.69342 0.0
H754 H 0.54395 0.84492 0.55868 0.0
H755 H 0.45401 0.83517 0.61823 0.0
H756 H 0.4299 0.87085 0.46991 0.0
H757 H 0.44971 0.87318 0.54743 0.0
H758 H 0.51374 0.80051 0.51705 0.0
H759 H 0.49383 0.79747 0.44069 0.0
C760 C 0.54243 0.84318 0.63103 0.0
C761 C 0.52389 0.83976 0.66945 0.0
C762 C 0.52921 0.84297 0.58804 0.0
C763 C 0.49726 0.83993 0.58297 0.0
C764 C 0.47866 0.83766 0.62141 0.0
C765 C 0.49188 0.83731 0.66429 0.0
C766 C 0.44781 0.85503 0.48005 0.0
C767 C 0.46048 0.83423 0.44896 0.0
C768 C 0.4592 0.85649 0.52422 0.0
C769 C 0.48363 0.83745 0.53756 0.0
C770 C 0.49535 0.81586 0.50714 0.0
C771 C 0.48374 0.81406 0.46349 0.0
H772 H 0.12185 0.55947 0.89542 0.0
H773 H 0.21472 0.52759 0.91662 0.0
H774 H 0.12072 0.53315 0.82251 0.0
H775 H 0.21336 0.50103 0.84454 0.0
H776 H 0.20903 0.48357 0.692 0.0
H777 H 0.21117 0.51082 0.76346 0.0
H778 H 0.12011 0.4786 0.79647 0.0
H779 H 0.11768 0.45159 0.72418 0.0
C780 C 0.14217 0.54734 0.88419 0.0
C781 C 0.16836 0.5456 0.91174 0.0
C782 C 0.14137 0.53191 0.8428 0.0
C783 C 0.16681 0.5147 0.82813 0.0
C784 C 0.19343 0.51416 0.85482 0.0
C785 C 0.19419 0.52941 0.89615 0.0
C786 C 0.18957 0.48194 0.71469 0.0
C787 C 0.16315 0.46544 0.7024 0.0
C788 C 0.19083 0.49758 0.75566 0.0
C789 C 0.16568 0.49713 0.78533 0.0
C790 C 0.13963 0.47977 0.77385 0.0
C791 C 0.13841 0.46395 0.7328 0.0
loop_
_geom_bond_atom_site_label_1
_geom_bond_atom_site_label_2
_geom_bond_distance
_geom_bond_site_symmetry_2
_ccdc_geom_bond_type
Co0 O2 2.143 . S
Co0 O8 2.074 . S
Co0 O11 2.093 . S
Co0 O24 2.097 . S
Co0 N41 2.151 . S
Co0 N49 2.214 . S
Co1 O2 2.160 . S
Co1 O7 2.058 . S
Co1 O17 2.057 . S
Co1 O32 2.037 . S
Co1 N36 2.145 . S
Co1 N57 2.257 . S
O2 Co0 2.143 . S
O2 Co1 2.160 . S
C3 O4 1.278 . S
C3 O11 1.224 . S
O4 C3 1.278 . S
C5 O6 1.245 . S
C5 O17 1.232 . S
O6 C5 1.245 . S
O7 Co1 2.058 . S
O7 C33 1.269 . S
O8 Co0 2.074 . S
O8 C33 1.257 . S
H9 C34 0.930 . S
H10 C40 0.930 . S
O11 Co0 2.093 . S
O11 C3 1.224 . S
H12 C44 0.929 . S
H13 C46 0.930 . S
H14 C47 0.930 . S
H15 C45 0.929 . S
H16 C48 0.928 . S
O17 Co1 2.057 . S
O17 C5 1.232 . S
H18 C37 0.929 . S
H19 C38 0.929 . S
H20 C50 0.931 . S
H21 C42 0.929 . S
H22 C51 0.930 . S
H23 C43 0.931 . S
O24 Co0 2.097 . S
O24 C52 1.214 . S
H25 C53 0.929 . S
H26 C54 0.929 . S
H27 C55 0.930 . S
H28 C56 0.929 . S
H29 C58 0.930 . S
H30 C35 0.930 . S
H31 C39 0.930 . S
O32 Co1 2.037 . S
O32 C52 1.234 . S
C33 O7 1.269 . S
C33 O8 1.257 . S
C34 H9 0.930 . S
C34 C37 1.388 . S
C34 C39 1.418 . S
C35 H30 0.930 . S
C35 C38 1.404 . S
C35 C39 1.353 . S
N36 Co1 2.145 . S
N36 C37 1.397 . S
N36 C38 1.334 . S
C37 H18 0.929 . S
C37 C34 1.388 . S
C37 N36 1.397 . S
C38 H19 0.929 . S
C38 C35 1.404 . S
C38 N36 1.334 . S
C39 H31 0.930 . S
C39 C34 1.418 . S
C39 C35 1.353 . S
C40 H10 0.930 . S
C40 N41 1.330 . S
C40 C42 1.446 . S
N41 Co0 2.151 . S
N41 C40 1.330 . S
N41 C45 1.418 . S
C42 H21 0.929 . S
C42 C40 1.446 . S
C42 C43 1.332 . S
C43 H23 0.931 . S
C43 C42 1.332 . S
C43 C44 1.267 . S
C44 H12 0.929 . S
C44 C43 1.267 . S
C44 C45 1.251 . S
C45 H15 0.929 . S
C45 N41 1.418 . S
C45 C44 1.251 . S
C46 H13 0.930 . S
C46 C48 1.406 . S
C46 C51 1.261 . S
C47 H14 0.930 . S
C47 N49 1.325 . S
C47 C50 1.357 . S
C48 H16 0.928 . S
C48 C46 1.406 . S
C48 N49 1.261 . S
N49 Co0 2.214 . S
N49 C47 1.325 . S
N49 C48 1.261 . S
C50 H20 0.931 . S
C50 C47 1.357 . S
C50 C51 1.312 . S
C51 H22 0.930 . S
C51 C46 1.261 . S
C51 C50 1.312 . S
C52 O24 1.214 . S
C52 O32 1.234 . S
C53 H25 0.929 . S
C53 C56 1.391 . S
C53 C58 1.391 . S
C54 H26 0.929 . S
C54 C55 1.390 . S
C54 N57 1.391 . S
C55 H27 0.930 . S
C55 C54 1.390 . S
C55 C56 1.392 . S
C56 H28 0.929 . S
C56 C53 1.391 . S
C56 C55 1.392 . S
N57 Co1 2.257 . S
N57 C54 1.391 . S
N57 C58 1.388 . S
C58 H29 0.930 . S
C58 C53 1.391 . S
C58 N57 1.388 . S
Co59 O61 2.143 . S
Co59 O67 2.074 . S
Co59 O70 2.093 . S
Co59 O83 2.097 . S
Co59 N100 2.151 . S
Co59 N108 2.214 . S
Co60 O61 2.160 . S
Co60 O66 2.058 . S
Co60 O76 2.057 . S
Co60 O91 2.037 . S
Co60 N95 2.145 . S
Co60 N116 2.257 . S
O61 Co59 2.143 . S
O61 Co60 2.160 . S
C62 O63 1.278 . S
C62 O70 1.224 . S
O63 C62 1.278 . S
C64 O65 1.245 . S
C64 O76 1.232 . S
O65 C64 1.245 . S
O66 Co60 2.058 . S
O66 C92 1.269 . S
O67 Co59 2.074 . S
O67 C92 1.257 . S
H68 C93 0.930 . S
H69 C99 0.930 . S
O70 Co59 2.093 . S
O70 C62 1.224 . S
H71 C103 0.929 . S
H72 C105 0.930 . S
H73 C106 0.930 . S
H74 C104 0.929 . S
H75 C107 0.928 . S
O76 Co60 2.057 . S
O76 C64 1.232 . S
H77 C96 0.929 . S
H78 C97 0.929 . S
H79 C109 0.931 . S
H80 C101 0.929 . S
H81 C110 0.930 . S
H82 C102 0.931 . S
O83 Co59 2.097 . S
O83 C111 1.214 . S
H84 C112 0.929 . S
H85 C113 0.929 . S
H86 C114 0.930 . S
H87 C115 0.929 . S
H88 C117 0.930 . S
H89 C94 0.930 . S
H90 C98 0.930 . S
O91 Co60 2.037 . S
O91 C111 1.234 . S
C92 O66 1.269 . S
C92 O67 1.257 . S
C93 H68 0.930 . S
C93 C96 1.388 . S
C93 C98 1.418 . S
C94 H89 0.930 . S
C94 C97 1.404 . S
C94 C98 1.353 . S
N95 Co60 2.145 . S
N95 C96 1.397 . S
N95 C97 1.334 . S
C96 H77 0.929 . S
C96 C93 1.388 . S
C96 N95 1.397 . S
C97 H78 0.929 . S
C97 C94 1.404 . S
C97 N95 1.334 . S
C98 H90 0.930 . S
C98 C93 1.418 . S
C98 C94 1.353 . S
C99 H69 0.930 . S
C99 N100 1.330 . S
C99 C101 1.446 . S
N100 Co59 2.151 . S
N100 C99 1.330 . S
N100 C104 1.418 . S
C101 H80 0.929 . S
C101 C99 1.446 . S
C101 C102 1.332 . S
C102 H82 0.931 . S
C102 C101 1.332 . S
C102 C103 1.267 . S
C103 H71 0.929 . S
C103 C102 1.267 . S
C103 C104 1.251 . S
C104 H74 0.929 . S
C104 N100 1.418 . S
C104 C103 1.251 . S
C105 H72 0.930 . S
C105 C107 1.406 . S
C105 C110 1.261 . S
C106 H73 0.930 . S
C106 N108 1.325 . S
C106 C109 1.357 . S
C107 H75 0.928 . S
C107 C105 1.406 . S
C107 N108 1.261 . S
N108 Co59 2.214 . S
N108 C106 1.325 . S
N108 C107 1.261 . S
C109 H79 0.931 . S
C109 C106 1.357 . S
C109 C110 1.312 . S
C110 H81 0.930 . S
C110 C105 1.261 . S
C110 C109 1.312 . S
C111 O83 1.214 . S
C111 O91 1.234 . S
C112 H84 0.929 . S
C112 C115 1.391 . S
C112 C117 1.391 . S
C113 H85 0.929 . S
C113 C114 1.390 . S
C113 N116 1.391 . S
C114 H86 0.930 . S
C114 C113 1.390 . S
C114 C115 1.392 . S
C115 H87 0.929 . S
C115 C112 1.391 . S
C115 C114 1.392 . S
N116 Co60 2.257 . S
N116 C113 1.391 . S
N116 C117 1.388 . S
C117 H88 0.930 . S
C117 C112 1.391 . S
C117 N116 1.388 . S
Co118 O120 2.143 . S
Co118 O126 2.074 . S
Co118 O129 2.093 . S
Co118 O142 2.097 . S
Co118 N159 2.151 . S
Co118 N167 2.214 . S
Co119 O120 2.160 . S
Co119 O125 2.058 . S
Co119 O135 2.057 . S
Co119 O150 2.037 . S
Co119 N154 2.145 . S
Co119 N175 2.257 . S
O120 Co118 2.143 . S
O120 Co119 2.160 . S
C121 O122 1.278 . S
C121 O129 1.224 . S
O122 C121 1.278 . S
C123 O124 1.245 . S
C123 O135 1.232 . S
O124 C123 1.245 . S
O125 Co119 2.058 . S
O125 C151 1.269 . S
O126 Co118 2.074 . S
O126 C151 1.257 . S
H127 C152 0.930 . S
H128 C158 0.930 . S
O129 Co118 2.093 . S
O129 C121 1.224 . S
H130 C162 0.929 . S
H131 C164 0.930 . S
H132 C165 0.930 . S
H133 C163 0.929 . S
H134 C166 0.928 . S
O135 Co119 2.057 . S
O135 C123 1.232 . S
H136 C155 0.929 . S
H137 C156 0.929 . S
H138 C168 0.931 . S
H139 C160 0.929 . S
H140 C169 0.930 . S
H141 C161 0.931 . S
O142 Co118 2.097 . S
O142 C170 1.214 . S
H143 C171 0.929 . S
H144 C172 0.929 . S
H145 C173 0.930 . S
H146 C174 0.929 . S
H147 C176 0.930 . S
H148 C153 0.930 . S
H149 C157 0.930 . S
O150 Co119 2.037 . S
O150 C170 1.234 . S
C151 O125 1.269 . S
C151 O126 1.257 . S
C152 H127 0.930 . S
C152 C155 1.388 . S
C152 C157 1.418 . S
C153 H148 0.930 . S
C153 C156 1.404 . S
C153 C157 1.353 . S
N154 Co119 2.145 . S
N154 C155 1.397 . S
N154 C156 1.334 . S
C155 H136 0.929 . S
C155 C152 1.388 . S
C155 N154 1.397 . S
C156 H137 0.929 . S
C156 C153 1.404 . S
C156 N154 1.334 . S
C157 H149 0.930 . S
C157 C152 1.418 . S
C157 C153 1.353 . S
C158 H128 0.930 . S
C158 N159 1.330 . S
C158 C160 1.446 . S
N159 Co118 2.151 . S
N159 C158 1.330 . S
N159 C163 1.418 . S
C160 H139 0.929 . S
C160 C158 1.446 . S
C160 C161 1.332 . S
C161 H141 0.931 . S
C161 C160 1.332 . S
C161 C162 1.267 . S
C162 H130 0.929 . S
C162 C161 1.267 . S
C162 C163 1.251 . S
C163 H133 0.929 . S
C163 N159 1.418 . S
C163 C162 1.251 . S
C164 H131 0.930 . S
C164 C166 1.406 . S
C164 C169 1.261 . S
C165 H132 0.930 . S
C165 N167 1.325 . S
C165 C168 1.357 . S
C166 H134 0.928 . S
C166 C164 1.406 . S
C166 N167 1.261 . S
N167 Co118 2.214 . S
N167 C165 1.325 . S
N167 C166 1.261 . S
C168 H138 0.931 . S
C168 C165 1.357 . S
C168 C169 1.312 . S
C169 H140 0.930 . S
C169 C164 1.261 . S
C169 C168 1.312 . S
C170 O142 1.214 . S
C170 O150 1.234 . S
C171 H143 0.929 . S
C171 C174 1.391 . S
C171 C176 1.391 . S
C172 H144 0.929 . S
C172 C173 1.390 . S
C172 N175 1.391 . S
C173 H145 0.930 . S
C173 C172 1.390 . S
C173 C174 1.392 . S
C174 H146 0.929 . S
C174 C171 1.391 . S
C174 C173 1.392 . S
N175 Co119 2.257 . S
N175 C172 1.391 . S
N175 C176 1.388 . S
C176 H147 0.930 . S
C176 C171 1.391 . S
C176 N175 1.388 . S
Co177 O179 2.143 . S
Co177 O185 2.074 . S
Co177 O188 2.093 1_554 S
Co177 O201 2.097 . S
Co177 N218 2.151 . S
Co177 N226 2.214 . S
Co178 O179 2.160 . S
Co178 O184 2.058 . S
Co178 O194 2.057 . S
Co178 O209 2.037 . S
Co178 N213 2.145 . S
Co178 N234 2.257 . S
O179 Co177 2.143 . S
O179 Co178 2.160 . S
C180 O181 1.278 . S
C180 O188 1.224 . S
O181 C180 1.278 . S
C182 O183 1.245 . S
C182 O194 1.232 . S
O183 C182 1.245 . S
O184 Co178 2.058 . S
O184 C210 1.269 . S
O185 Co177 2.074 . S
O185 C210 1.257 . S
H186 C211 0.930 . S
H187 C217 0.930 . S
O188 Co177 2.093 1_556 S
O188 C180 1.224 . S
H189 C221 0.929 . S
H190 C223 0.930 . S
H191 C224 0.930 . S
H192 C222 0.929 . S
H193 C225 0.928 . S
O194 Co178 2.057 . S
O194 C182 1.232 . S
H195 C214 0.929 . S
H196 C215 0.929 . S
H197 C227 0.931 . S
H198 C219 0.929 . S
H199 C228 0.930 . S
H200 C220 0.931 . S
O201 Co177 2.097 . S
O201 C229 1.214 . S
H202 C230 0.929 . S
H203 C231 0.929 . S
H204 C232 0.930 . S
H205 C233 0.929 . S
H206 C235 0.930 . S
H207 C212 0.930 . S
H208 C216 0.930 . S
O209 Co178 2.037 . S
O209 C229 1.234 . S
C210 O184 1.269 . S
C210 O185 1.257 . S
C211 H186 0.930 . S
C211 C214 1.388 . S
C211 C216 1.418 . S
C212 H207 0.930 . S
C212 C215 1.404 . S
C212 C216 1.353 . S
N213 Co178 2.145 . S
N213 C214 1.397 . S
N213 C215 1.334 . S
C214 H195 0.929 . S
C214 C211 1.388 . S
C214 N213 1.397 . S
C215 H196 0.929 . S
C215 C212 1.404 . S
C215 N213 1.334 . S
C216 H208 0.930 . S
C216 C211 1.418 . S
C216 C212 1.353 . S
C217 H187 0.930 . S
C217 N218 1.330 . S
C217 C219 1.446 . S
N218 Co177 2.151 . S
N218 C217 1.330 . S
N218 C222 1.418 . S
C219 H198 0.929 . S
C219 C217 1.446 . S
C219 C220 1.332 . S
C220 H200 0.931 . S
C220 C219 1.332 . S
C220 C221 1.267 . S
C221 H189 0.929 . S
C221 C220 1.267 . S
C221 C222 1.251 . S
C222 H192 0.929 . S
C222 N218 1.418 . S
C222 C221 1.251 . S
C223 H190 0.930 . S
C223 C225 1.406 . S
C223 C228 1.261 . S
C224 H191 0.930 . S
C224 N226 1.325 . S
C224 C227 1.357 . S
C225 H193 0.928 . S
C225 C223 1.406 . S
C225 N226 1.261 . S
N226 Co177 2.214 . S
N226 C224 1.325 . S
N226 C225 1.261 . S
C227 H197 0.931 . S
C227 C224 1.357 . S
C227 C228 1.312 . S
C228 H199 0.930 . S
C228 C223 1.261 . S
C228 C227 1.312 . S
C229 O201 1.214 . S
C229 O209 1.234 . S
C230 H202 0.929 . S
C230 C233 1.391 . S
C230 C235 1.391 1_556 S
C231 H203 0.929 . S
C231 C232 1.390 . S
C231 N234 1.391 . S
C232 H204 0.930 . S
C232 C231 1.390 . S
C232 C233 1.392 1_554 S
C233 H205 0.929 . S
C233 C230 1.391 . S
C233 C232 1.392 1_556 S
N234 Co178 2.257 . S
N234 C231 1.391 . S
N234 C235 1.388 . S
C235 H206 0.930 . S
C235 C230 1.391 1_554 S
C235 N234 1.388 . S
Co236 O238 2.143 . S
Co236 O244 2.074 . S
Co236 O247 2.093 . S
Co236 O260 2.097 . S
Co236 N277 2.151 . S
Co236 N285 2.214 . S
Co237 O238 2.160 . S
Co237 O243 2.058 . S
Co237 O253 2.057 . S
Co237 O268 2.037 . S
Co237 N272 2.145 . S
Co237 N293 2.257 . S
O238 Co236 2.143 . S
O238 Co237 2.160 . S
C239 O240 1.278 . S
C239 O247 1.224 . S
O240 C239 1.278 . S
C241 O242 1.245 . S
C241 O253 1.232 . S
O242 C241 1.245 . S
O243 Co237 2.058 . S
O243 C269 1.269 . S
O244 Co236 2.074 . S
O244 C269 1.257 . S
H245 C270 0.930 . S
H246 C276 0.930 . S
O247 Co236 2.093 . S
O247 C239 1.224 . S
H248 C280 0.929 . S
H249 C282 0.930 . S
H250 C283 0.930 . S
H251 C281 0.929 . S
H252 C284 0.928 . S
O253 Co237 2.057 . S
O253 C241 1.232 . S
H254 C273 0.929 . S
H255 C274 0.929 . S
H256 C286 0.931 . S
H257 C278 0.929 . S
H258 C287 0.930 . S
H259 C279 0.931 . S
O260 Co236 2.097 . S
O260 C288 1.214 . S
H261 C289 0.929 . S
H262 C290 0.929 . S
H263 C291 0.930 . S
H264 C292 0.929 . S
H265 C294 0.930 . S
H266 C271 0.930 . S
H267 C275 0.930 . S
O268 Co237 2.037 . S
O268 C288 1.234 . S
C269 O243 1.269 . S
C269 O244 1.257 . S
C270 H245 0.930 . S
C270 C273 1.388 . S
C270 C275 1.418 . S
C271 H266 0.930 . S
C271 C274 1.404 . S
C271 C275 1.353 . S
N272 Co237 2.145 . S
N272 C273 1.397 . S
N272 C274 1.334 . S
C273 H254 0.929 . S
C273 C270 1.388 . S
C273 N272 1.397 . S
C274 H255 0.929 . S
C274 C271 1.404 . S
C274 N272 1.334 . S
C275 H267 0.930 . S
C275 C270 1.418 . S
C275 C271 1.353 . S
C276 H246 0.930 . S
C276 N277 1.330 . S
C276 C278 1.446 . S
N277 Co236 2.151 . S
N277 C276 1.330 . S
N277 C281 1.418 . S
C278 H257 0.929 . S
C278 C276 1.446 . S
C278 C279 1.332 . S
C279 H259 0.931 . S
C279 C278 1.332 . S
C279 C280 1.267 . S
C280 H248 0.929 . S
C280 C279 1.267 . S
C280 C281 1.251 . S
C281 H251 0.929 . S
C281 N277 1.418 . S
C281 C280 1.251 . S
C282 H249 0.930 . S
C282 C284 1.406 . S
C282 C287 1.261 . S
C283 H250 0.930 . S
C283 N285 1.325 . S
C283 C286 1.357 . S
C284 H252 0.928 . S
C284 C282 1.406 . S
C284 N285 1.261 . S
N285 Co236 2.214 . S
N285 C283 1.325 . S
N285 C284 1.261 . S
C286 H256 0.931 . S
C286 C283 1.357 . S
C286 C287 1.312 . S
C287 H258 0.930 . S
C287 C282 1.261 . S
C287 C286 1.312 . S
C288 O260 1.214 . S
C288 O268 1.234 . S
C289 H261 0.929 . S
C289 C292 1.391 . S
C289 C294 1.391 . S
C290 H262 0.929 . S
C290 C291 1.390 . S
C290 N293 1.391 . S
C291 H263 0.930 . S
C291 C290 1.390 . S
C291 C292 1.392 . S
C292 H264 0.929 . S
C292 C289 1.391 . S
C292 C291 1.392 . S
N293 Co237 2.257 . S
N293 C290 1.391 . S
N293 C294 1.388 . S
C294 H265 0.930 . S
C294 C289 1.391 . S
C294 N293 1.388 . S
Co295 O297 2.143 . S
Co295 O303 2.074 . S
Co295 O306 2.093 . S
Co295 O319 2.097 . S
Co295 N336 2.151 . S
Co295 N344 2.214 . S
Co296 O297 2.160 . S
Co296 O302 2.058 . S
Co296 O312 2.057 . S
Co296 O327 2.037 . S
Co296 N331 2.145 . S
Co296 N352 2.257 . S
O297 Co295 2.143 . S
O297 Co296 2.160 . S
C298 O299 1.278 . S
C298 O306 1.224 . S
O299 C298 1.278 . S
C300 O301 1.245 . S
C300 O312 1.232 . S
O301 C300 1.245 . S
O302 Co296 2.058 . S
O302 C328 1.269 . S
O303 Co295 2.074 . S
O303 C328 1.257 . S
H304 C329 0.930 . S
H305 C335 0.930 . S
O306 Co295 2.093 . S
O306 C298 1.224 . S
H307 C339 0.929 . S
H308 C341 0.930 . S
H309 C342 0.930 . S
H310 C340 0.929 . S
H311 C343 0.928 . S
O312 Co296 2.057 . S
O312 C300 1.232 . S
H313 C332 0.929 . S
H314 C333 0.929 . S
H315 C345 0.931 . S
H316 C337 0.929 . S
H317 C346 0.930 . S
H318 C338 0.931 . S
O319 Co295 2.097 . S
O319 C347 1.214 . S
H320 C348 0.929 . S
H321 C349 0.929 . S
H322 C350 0.930 . S
H323 C351 0.929 . S
H324 C353 0.930 . S
H325 C330 0.930 . S
H326 C334 0.930 . S
O327 Co296 2.037 . S
O327 C347 1.234 . S
C328 O302 1.269 . S
C328 O303 1.257 . S
C329 H304 0.930 . S
C329 C332 1.388 . S
C329 C334 1.418 . S
C330 H325 0.930 . S
C330 C333 1.404 . S
C330 C334 1.353 . S
N331 Co296 2.145 . S
N331 C332 1.397 . S
N331 C333 1.334 . S
C332 H313 0.929 . S
C332 C329 1.388 . S
C332 N331 1.397 . S
C333 H314 0.929 . S
C333 C330 1.404 . S
C333 N331 1.334 . S
C334 H326 0.930 . S
C334 C329 1.418 . S
C334 C330 1.353 . S
C335 H305 0.930 . S
C335 N336 1.330 . S
C335 C337 1.446 . S
N336 Co295 2.151 . S
N336 C335 1.330 . S
N336 C340 1.418 . S
C337 H316 0.929 . S
C337 C335 1.446 . S
C337 C338 1.332 . S
C338 H318 0.931 . S
C338 C337 1.332 . S
C338 C339 1.267 . S
C339 H307 0.929 . S
C339 C338 1.267 . S
C339 C340 1.251 . S
C340 H310 0.929 . S
C340 N336 1.418 . S
C340 C339 1.251 . S
C341 H308 0.930 . S
C341 C343 1.406 . S
C341 C346 1.261 . S
C342 H309 0.930 . S
C342 N344 1.325 . S
C342 C345 1.357 . S
C343 H311 0.928 . S
C343 C341 1.406 . S
C343 N344 1.261 . S
N344 Co295 2.214 . S
N344 C342 1.325 . S
N344 C343 1.261 . S
C345 H315 0.931 . S
C345 C342 1.357 . S
C345 C346 1.312 . S
C346 H317 0.930 . S
C346 C341 1.261 . S
C346 C345 1.312 . S
C347 O319 1.214 . S
C347 O327 1.234 . S
C348 H320 0.929 . S
C348 C351 1.391 . S
C348 C353 1.391 . S
C349 H321 0.929 . S
C349 C350 1.390 . S
C349 N352 1.391 . S
C350 H322 0.930 . S
C350 C349 1.390 . S
C350 C351 1.392 . S
C351 H323 0.929 . S
C351 C348 1.391 . S
C351 C350 1.392 . S
N352 Co296 2.257 . S
N352 C349 1.391 . S
N352 C353 1.388 . S
C353 H324 0.930 . S
C353 C348 1.391 . S
C353 N352 1.388 . S
Co354 O356 2.143 . S
Co354 O362 2.074 . S
Co354 O365 2.093 . S
Co354 O378 2.097 . S
Co354 N395 2.151 . S
Co354 N403 2.214 . S
Co355 O356 2.160 . S
Co355 O361 2.058 . S
Co355 O371 2.057 . S
Co355 O386 2.037 . S
Co355 N390 2.145 . S
Co355 N411 2.257 . S
O356 Co354 2.143 . S
O356 Co355 2.160 . S
C357 O358 1.278 . S
C357 O365 1.224 . S
O358 C357 1.278 . S
C359 O360 1.245 . S
C359 O371 1.232 . S
O360 C359 1.245 . S
O361 Co355 2.058 . S
O361 C387 1.269 . S
O362 Co354 2.074 . S
O362 C387 1.257 . S
H363 C388 0.930 . S
H364 C394 0.930 . S
O365 Co354 2.093 . S
O365 C357 1.224 . S
H366 C398 0.929 . S
H367 C400 0.930 . S
H368 C401 0.930 . S
H369 C399 0.929 . S
H370 C402 0.928 . S
O371 Co355 2.057 . S
O371 C359 1.232 . S
H372 C391 0.929 . S
H373 C392 0.929 . S
H374 C404 0.931 . S
H375 C396 0.929 . S
H376 C405 0.930 . S
H377 C397 0.931 . S
O378 Co354 2.097 . S
O378 C406 1.214 . S
H379 C407 0.929 . S
H380 C408 0.929 . S
H381 C409 0.930 . S
H382 C410 0.929 . S
H383 C412 0.930 . S
H384 C389 0.930 . S
H385 C393 0.930 . S
O386 Co355 2.037 . S
O386 C406 1.234 . S
C387 O361 1.269 . S
C387 O362 1.257 . S
C388 H363 0.930 . S
C388 C391 1.388 . S
C388 C393 1.418 . S
C389 H384 0.930 . S
C389 C392 1.404 . S
C389 C393 1.353 . S
N390 Co355 2.145 . S
N390 C391 1.397 . S
N390 C392 1.334 . S
C391 H372 0.929 . S
C391 C388 1.388 . S
C391 N390 1.397 . S
C392 H373 0.929 . S
C392 C389 1.404 . S
C392 N390 1.334 . S
C393 H385 0.930 . S
C393 C388 1.418 . S
C393 C389 1.353 . S
C394 H364 0.930 . S
C394 N395 1.330 . S
C394 C396 1.446 . S
N395 Co354 2.151 . S
N395 C394 1.330 . S
N395 C399 1.418 . S
C396 H375 0.929 . S
C396 C394 1.446 . S
C396 C397 1.332 . S
C397 H377 0.931 . S
C397 C396 1.332 . S
C397 C398 1.267 . S
C398 H366 0.929 . S
C398 C397 1.267 . S
C398 C399 1.251 . S
C399 H369 0.929 . S
C399 N395 1.418 . S
C399 C398 1.251 . S
C400 H367 0.930 . S
C400 C402 1.406 . S
C400 C405 1.261 . S
C401 H368 0.930 . S
C401 N403 1.325 . S
C401 C404 1.357 . S
C402 H370 0.928 . S
C402 C400 1.406 . S
C402 N403 1.261 . S
N403 Co354 2.214 . S
N403 C401 1.325 . S
N403 C402 1.261 . S
C404 H374 0.931 . S
C404 C401 1.357 . S
C404 C405 1.312 . S
C405 H376 0.930 . S
C405 C400 1.261 . S
C405 C404 1.312 . S
C406 O378 1.214 . S
C406 O386 1.234 . S
C407 H379 0.929 . S
C407 C410 1.391 . S
C407 C412 1.391 . S
C408 H380 0.929 . S
C408 C409 1.390 . S
C408 N411 1.391 . S
C409 H381 0.930 . S
C409 C408 1.390 . S
C409 C410 1.392 . S
C410 H382 0.929 . S
C410 C407 1.391 . S
C410 C409 1.392 . S
N411 Co355 2.257 . S
N411 C408 1.391 . S
N411 C412 1.388 . S
C412 H383 0.930 . S
C412 C407 1.391 . S
C412 N411 1.388 . S
Co413 O415 2.143 . S
Co413 O421 2.074 1_554 S
Co413 O424 2.093 . S
Co413 O437 2.097 . S
Co413 N454 2.151 . S
Co413 N462 2.214 . S
Co414 O415 2.160 . S
Co414 O420 2.058 1_554 S
Co414 O430 2.057 . S
Co414 O445 2.037 . S
Co414 N449 2.145 1_554 S
Co414 N470 2.257 . S
O415 Co413 2.143 . S
O415 Co414 2.160 . S
C416 O417 1.278 . S
C416 O424 1.224 . S
O417 C416 1.278 . S
C418 O419 1.245 . S
C418 O430 1.232 . S
O419 C418 1.245 . S
O420 Co414 2.058 1_556 S
O420 C446 1.269 . S
O421 Co413 2.074 1_556 S
O421 C446 1.257 . S
H422 C447 0.930 . S
H423 C453 0.930 . S
O424 Co413 2.093 . S
O424 C416 1.224 . S
H425 C457 0.929 . S
H426 C459 0.930 . S
H427 C460 0.930 . S
H428 C458 0.929 . S
H429 C461 0.928 . S
O430 Co414 2.057 . S
O430 C418 1.232 . S
H431 C450 0.929 . S
H432 C451 0.929 . S
H433 C463 0.931 . S
H434 C455 0.929 . S
H435 C464 0.930 . S
H436 C456 0.931 . S
O437 Co413 2.097 . S
O437 C465 1.214 . S
H438 C466 0.929 . S
H439 C467 0.929 . S
H440 C468 0.930 . S
H441 C469 0.929 . S
H442 C471 0.930 . S
H443 C448 0.930 . S
H444 C452 0.930 . S
O445 Co414 2.037 . S
O445 C465 1.234 . S
C446 O420 1.269 . S
C446 O421 1.257 . S
C447 H422 0.930 . S
C447 C450 1.388 . S
C447 C452 1.418 . S
C448 H443 0.930 . S
C448 C451 1.404 . S
C448 C452 1.353 . S
N449 Co414 2.145 1_556 S
N449 C450 1.397 . S
N449 C451 1.334 . S
C450 H431 0.929 . S
C450 C447 1.388 . S
C450 N449 1.397 . S
C451 H432 0.929 . S
C451 C448 1.404 . S
C451 N449 1.334 . S
C452 H444 0.930 . S
C452 C447 1.418 . S
C452 C448 1.353 . S
C453 H423 0.930 . S
C453 N454 1.330 . S
C453 C455 1.446 . S
N454 Co413 2.151 . S
N454 C453 1.330 . S
N454 C458 1.418 . S
C455 H434 0.929 . S
C455 C453 1.446 . S
C455 C456 1.332 . S
C456 H436 0.931 . S
C456 C455 1.332 . S
C456 C457 1.267 . S
C457 H425 0.929 . S
C457 C456 1.267 . S
C457 C458 1.251 . S
C458 H428 0.929 . S
C458 N454 1.418 . S
C458 C457 1.251 . S
C459 H426 0.930 . S
C459 C461 1.406 . S
C459 C464 1.261 . S
C460 H427 0.930 . S
C460 N462 1.325 . S
C460 C463 1.357 . S
C461 H429 0.928 . S
C461 C459 1.406 . S
C461 N462 1.261 . S
N462 Co413 2.214 . S
N462 C460 1.325 . S
N462 C461 1.261 . S
C463 H433 0.931 . S
C463 C460 1.357 . S
C463 C464 1.312 . S
C464 H435 0.930 . S
C464 C459 1.261 . S
C464 C463 1.312 . S
C465 O437 1.214 . S
C465 O445 1.234 . S
C466 H438 0.929 . S
C466 C469 1.391 . S
C466 C471 1.391 . S
C467 H439 0.929 . S
C467 C468 1.390 . S
C467 N470 1.391 . S
C468 H440 0.930 . S
C468 C467 1.390 . S
C468 C469 1.392 . S
C469 H441 0.929 . S
C469 C466 1.391 . S
C469 C468 1.392 . S
N470 Co414 2.257 . S
N470 C467 1.391 . S
N470 C471 1.388 . S
C471 H442 0.930 . S
C471 C466 1.391 . S
C471 N470 1.388 . S
H472 C480 0.950 . S
H473 C485 0.950 . S
H474 C482 0.950 . S
H475 C484 0.950 . S
H476 C486 0.950 . S
H477 C488 0.950 . S
H478 C490 0.950 . S
H479 C491 0.950 . S
C480 H472 0.950 . S
C480 C481 1.386 . S
C480 C482 1.391 . S
C481 C480 1.386 . S
C481 C485 1.393 . S
C482 H474 0.950 . S
C482 C480 1.391 . S
C482 C483 1.400 . S
C483 C482 1.400 . S
C483 C484 1.398 . S
C483 C489 1.491 . S
C484 H475 0.950 . S
C484 C483 1.398 . S
C484 C485 1.391 . S
C485 H473 0.950 . S
C485 C481 1.393 . S
C485 C484 1.391 . S
C486 H476 0.950 . S
C486 C487 1.386 . S
C486 C488 1.391 . S
C487 C486 1.386 . S
C487 C491 1.393 . S
C488 H477 0.950 . S
C488 C486 1.391 . S
C488 C489 1.400 . S
C489 C483 1.491 . S
C489 C488 1.400 . S
C489 C490 1.398 . S
C490 H478 0.950 . S
C490 C489 1.398 . S
C490 C491 1.391 . S
C491 H479 0.950 . S
C491 C487 1.393 . S
C491 C490 1.391 . S
H492 C500 0.950 . S
H493 C505 0.950 . S
H494 C502 0.950 . S
H495 C504 0.950 . S
H496 C506 0.950 . S
H497 C508 0.950 . S
H498 C510 0.950 . S
H499 C511 0.950 . S
C500 H492 0.950 . S
C500 C501 1.386 . S
C500 C502 1.391 . S
C501 C500 1.386 . S
C501 C505 1.393 . S
C502 H494 0.950 . S
C502 C500 1.391 . S
C502 C503 1.400 . S
C503 C502 1.400 . S
C503 C504 1.398 . S
C503 C509 1.491 . S
C504 H495 0.950 . S
C504 C503 1.398 . S
C504 C505 1.391 . S
C505 H493 0.950 . S
C505 C501 1.393 . S
C505 C504 1.391 . S
C506 H496 0.950 . S
C506 C507 1.386 . S
C506 C508 1.391 . S
C507 C506 1.386 . S
C507 C511 1.393 . S
C508 H497 0.950 . S
C508 C506 1.391 . S
C508 C509 1.400 . S
C509 C503 1.491 . S
C509 C508 1.400 . S
C509 C510 1.398 . S
C510 H498 0.950 . S
C510 C509 1.398 . S
C510 C511 1.391 . S
C511 H499 0.950 . S
C511 C507 1.393 . S
C511 C510 1.391 . S
H512 C520 0.950 . S
H513 C525 0.950 . S
H514 C522 0.950 . S
H515 C524 0.950 . S
H516 C526 0.950 . S
H517 C528 0.950 . S
H518 C530 0.950 . S
H519 C531 0.950 . S
C520 H512 0.950 . S
C520 C521 1.386 . S
C520 C522 1.391 . S
C521 C520 1.386 . S
C521 C525 1.393 . S
C522 H514 0.950 . S
C522 C520 1.391 . S
C522 C523 1.400 . S
C523 C522 1.400 . S
C523 C524 1.398 . S
C523 C529 1.491 . S
C524 H515 0.950 . S
C524 C523 1.398 . S
C524 C525 1.391 . S
C525 H513 0.950 . S
C525 C521 1.393 . S
C525 C524 1.391 . S
C526 H516 0.950 . S
C526 C527 1.386 . S
C526 C528 1.391 1_556 S
C527 C526 1.386 . S
C527 C531 1.393 . S
C528 H517 0.950 . S
C528 C526 1.391 1_554 S
C528 C529 1.400 . S
C529 C523 1.491 . S
C529 C528 1.400 . S
C529 C530 1.398 . S
C530 H518 0.950 . S
C530 C529 1.398 . S
C530 C531 1.391 1_554 S
C531 H519 0.950 . S
C531 C527 1.393 . S
C531 C530 1.391 1_556 S
H532 C540 0.950 . S
H533 C545 0.950 . S
H534 C542 0.950 . S
H535 C544 0.950 . S
H536 C546 0.950 . S
H537 C548 0.950 . S
H538 C550 0.950 . S
H539 C551 0.950 . S
C540 H532 0.950 . S
C540 C541 1.386 . S
C540 C542 1.391 . S
C541 C540 1.386 . S
C541 C545 1.393 . S
C542 H534 0.950 . S
C542 C540 1.391 . S
C542 C543 1.400 . S
C543 C542 1.400 . S
C543 C544 1.398 . S
C543 C549 1.491 . S
C544 H535 0.950 . S
C544 C543 1.398 . S
C544 C545 1.391 . S
C545 H533 0.950 . S
C545 C541 1.393 . S
C545 C544 1.391 . S
C546 H536 0.950 . S
C546 C547 1.386 . S
C546 C548 1.391 . S
C547 C546 1.386 . S
C547 C551 1.393 . S
C548 H537 0.950 . S
C548 C546 1.391 . S
C548 C549 1.400 . S
C549 C543 1.491 . S
C549 C548 1.400 . S
C549 C550 1.398 . S
C550 H538 0.950 . S
C550 C549 1.398 . S
C550 C551 1.391 . S
C551 H539 0.950 . S
C551 C547 1.393 . S
C551 C550 1.391 . S
H552 C560 0.950 . S
H553 C565 0.950 . S
H554 C562 0.950 . S
H555 C564 0.950 . S
H556 C566 0.950 . S
H557 C568 0.950 . S
H558 C570 0.950 . S
H559 C571 0.950 . S
C560 H552 0.950 . S
C560 C561 1.386 . S
C560 C562 1.391 . S
C561 C560 1.386 . S
C561 C565 1.393 . S
C562 H554 0.950 . S
C562 C560 1.391 . S
C562 C563 1.400 . S
C563 C562 1.400 . S
C563 C564 1.398 . S
C563 C569 1.491 . S
C564 H555 0.950 . S
C564 C563 1.398 . S
C564 C565 1.391 . S
C565 H553 0.950 . S
C565 C561 1.393 . S
C565 C564 1.391 . S
C566 H556 0.950 . S
C566 C567 1.386 . S
C566 C568 1.391 . S
C567 C566 1.386 . S
C567 C571 1.393 . S
C568 H557 0.950 . S
C568 C566 1.391 . S
C568 C569 1.400 . S
C569 C563 1.491 . S
C569 C568 1.400 . S
C569 C570 1.398 . S
C570 H558 0.950 . S
C570 C569 1.398 . S
C570 C571 1.391 . S
C571 H559 0.950 . S
C571 C567 1.393 . S
C571 C570 1.391 . S
H572 C580 0.950 . S
H573 C585 0.950 . S
H574 C582 0.950 . S
H575 C584 0.950 . S
H576 C586 0.950 . S
H577 C588 0.950 . S
H578 C590 0.950 . S
H579 C591 0.950 . S
C580 H572 0.950 . S
C580 C581 1.386 . S
C580 C582 1.391 . S
C581 C580 1.386 . S
C581 C585 1.393 . S
C582 H574 0.950 . S
C582 C580 1.391 . S
C582 C583 1.400 . S
C583 C582 1.400 . S
C583 C584 1.398 . S
C583 C589 1.491 . S
C584 H575 0.950 . S
C584 C583 1.398 . S
C584 C585 1.391 . S
C585 H573 0.950 . S
C585 C581 1.393 . S
C585 C584 1.391 . S
C586 H576 0.950 . S
C586 C587 1.386 . S
C586 C588 1.391 . S
C587 C586 1.386 . S
C587 C591 1.393 . S
C588 H577 0.950 . S
C588 C586 1.391 . S
C588 C589 1.400 . S
C589 C583 1.491 . S
C589 C588 1.400 . S
C589 C590 1.398 . S
C590 H578 0.950 . S
C590 C589 1.398 . S
C590 C591 1.391 . S
C591 H579 0.950 . S
C591 C587 1.393 . S
C591 C590 1.391 . S
H592 C600 0.950 . S
H593 C605 0.943 1_554 S
H594 C602 0.950 . S
H595 C604 0.950 . S
H596 C606 0.950 . S
H597 C608 0.950 . S
H598 C610 0.950 . S
H599 C611 0.950 . S
C600 H592 0.950 . S
C600 C601 1.386 1_556 S
C600 C602 1.391 . S
C601 C600 1.386 1_554 S
C601 C605 1.392 1_554 S
C602 H594 0.950 . S
C602 C600 1.391 . S
C602 C603 1.400 . S
C603 C602 1.400 . S
C603 C604 1.398 . S
C603 C609 1.491 . S
C604 H595 0.950 . S
C604 C603 1.398 . S
C604 C605 1.398 . S
C605 H593 0.943 1_556 S
C605 C601 1.392 1_556 S
C605 C604 1.398 . S
C606 H596 0.950 . S
C606 C607 1.386 . S
C606 C608 1.391 . S
C607 C606 1.386 . S
C607 C611 1.393 . S
C608 H597 0.950 . S
C608 C606 1.391 . S
C608 C609 1.400 . S
C609 C603 1.491 . S
C609 C608 1.400 . S
C609 C610 1.398 . S
C610 H598 0.950 . S
C610 C609 1.398 . S
C610 C611 1.391 . S
C611 H599 0.950 . S
C611 C607 1.393 . S
C611 C610 1.391 . S
H612 C620 0.950 . S
H613 C625 0.950 . S
H614 C622 0.950 . S
H615 C624 0.950 . S
H616 C626 0.950 . S
H617 C628 0.950 . S
H618 C630 0.950 . S
H619 C631 0.950 . S
C620 H612 0.950 . S
C620 C621 1.386 . S
C620 C622 1.391 . S
C621 C620 1.386 . S
C621 C625 1.393 . S
C622 H614 0.950 . S
C622 C620 1.391 . S
C622 C623 1.400 . S
C623 C622 1.400 . S
C623 C624 1.398 . S
C623 C629 1.491 . S
C624 H615 0.950 . S
C624 C623 1.398 . S
C624 C625 1.391 . S
C625 H613 0.950 . S
C625 C621 1.393 . S
C625 C624 1.391 . S
C626 H616 0.950 . S
C626 C627 1.386 . S
C626 C628 1.391 . S
C627 C626 1.386 . S
C627 C631 1.393 . S
C628 H617 0.950 . S
C628 C626 1.391 . S
C628 C629 1.400 . S
C629 C623 1.491 . S
C629 C628 1.400 . S
C629 C630 1.398 . S
C630 H618 0.950 . S
C630 C629 1.398 . S
C630 C631 1.391 . S
C631 H619 0.950 . S
C631 C627 1.393 . S
C631 C630 1.391 . S
H632 C640 0.950 . S
H633 C645 0.950 . S
H634 C642 0.950 . S
H635 C644 0.950 . S
H636 C646 0.950 . S
H637 C648 0.950 . S
H638 C650 0.950 . S
H639 C651 0.950 . S
C640 H632 0.950 . S
C640 C641 1.386 . S
C640 C642 1.391 . S
C641 C640 1.386 . S
C641 C645 1.393 . S
C642 H634 0.950 . S
C642 C640 1.391 . S
C642 C643 1.400 . S
C643 C642 1.400 . S
C643 C644 1.398 . S
C643 C649 1.491 1_565 S
C644 H635 0.950 . S
C644 C643 1.398 . S
C644 C645 1.391 . S
C645 H633 0.950 . S
C645 C641 1.393 . S
C645 C644 1.391 . S
C646 H636 0.950 . S
C646 C647 1.386 . S
C646 C648 1.391 . S
C647 C646 1.386 . S
C647 C651 1.393 . S
C648 H637 0.950 . S
C648 C646 1.391 . S
C648 C649 1.400 . S
C649 C643 1.491 1_545 S
C649 C648 1.400 . S
C649 C650 1.398 . S
C650 H638 0.950 . S
C650 C649 1.398 . S
C650 C651 1.391 . S
C651 H639 0.950 . S
C651 C647 1.393 . S
C651 C650 1.391 . S
H652 C660 0.950 . S
H653 C665 0.950 . S
H654 C662 0.950 . S
H655 C664 0.950 . S
H656 C666 0.950 . S
H657 C668 0.950 . S
H658 C670 0.950 . S
H659 C671 0.950 . S
C660 H652 0.950 . S
C660 C661 1.386 . S
C660 C662 1.391 . S
C661 C660 1.386 . S
C661 C665 1.393 . S
C662 H654 0.950 . S
C662 C660 1.391 . S
C662 C663 1.400 . S
C663 C662 1.400 . S
C663 C664 1.398 . S
C663 C669 1.491 1_655 S
C664 H655 0.950 . S
C664 C663 1.398 . S
C664 C665 1.391 . S
C665 H653 0.950 . S
C665 C661 1.393 . S
C665 C664 1.391 . S
C666 H656 0.950 . S
C666 C667 1.386 . S
C666 C668 1.391 . S
C667 C666 1.386 . S
C667 C671 1.393 . S
C668 H657 0.950 . S
C668 C666 1.391 . S
C668 C669 1.400 . S
C669 C663 1.491 1_455 S
C669 C668 1.400 . S
C669 C670 1.398 . S
C670 H658 0.950 . S
C670 C669 1.398 . S
C670 C671 1.391 . S
C671 H659 0.950 . S
C671 C667 1.393 . S
C671 C670 1.391 . S
H672 C680 0.950 . S
H673 C685 0.950 . S
H674 C682 0.950 . S
H675 C684 0.950 . S
H676 C686 0.950 . S
H677 C688 0.950 . S
H678 C690 0.950 . S
H679 C691 0.950 . S
C680 H672 0.950 . S
C680 C681 1.386 . S
C680 C682 1.391 . S
C681 C680 1.386 . S
C681 C685 1.393 . S
C682 H674 0.950 . S
C682 C680 1.391 . S
C682 C683 1.400 . S
C683 C682 1.400 . S
C683 C684 1.398 . S
C683 C689 1.491 1_565 S
C684 H675 0.950 . S
C684 C683 1.398 . S
C684 C685 1.391 . S
C685 H673 0.950 . S
C685 C681 1.393 . S
C685 C684 1.391 . S
C686 H676 0.950 . S
C686 C687 1.386 . S
C686 C688 1.391 . S
C687 C686 1.386 . S
C687 C691 1.393 . S
C688 H677 0.950 . S
C688 C686 1.391 . S
C688 C689 1.400 . S
C689 C683 1.491 1_545 S
C689 C688 1.400 . S
C689 C690 1.398 . S
C690 H678 0.950 . S
C690 C689 1.398 . S
C690 C691 1.391 . S
C691 H679 0.950 . S
C691 C687 1.393 . S
C691 C690 1.391 . S
H692 C700 0.950 1_556 S
H693 C705 0.950 . S
H694 C702 0.950 1_556 S
H695 C704 0.950 . S
H696 C706 0.950 . S
H697 C708 0.950 . S
H698 C710 0.950 . S
H699 C711 0.950 . S
C700 H692 0.950 1_554 S
C700 C701 1.386 . S
C700 C702 1.391 . S
C701 C700 1.386 . S
C701 C705 1.393 . S
C702 H694 0.950 1_554 S
C702 C700 1.391 . S
C702 C703 1.400 . S
C703 C702 1.400 . S
C703 C704 1.398 . S
C703 C709 1.491 1_655 S
C704 H695 0.950 . S
C704 C703 1.398 . S
C704 C705 1.391 . S
C705 H693 0.950 . S
C705 C701 1.393 . S
C705 C704 1.391 . S
C706 H696 0.950 . S
C706 C707 1.386 . S
C706 C708 1.391 . S
C707 C706 1.386 . S
C707 C711 1.393 . S
C708 H697 0.950 . S
C708 C706 1.391 . S
C708 C709 1.400 . S
C709 C703 1.491 1_455 S
C709 C708 1.400 . S
C709 C710 1.398 . S
C710 H698 0.950 . S
C710 C709 1.398 . S
C710 C711 1.391 . S
C711 H699 0.950 . S
C711 C707 1.393 . S
C711 C710 1.391 . S
H712 C720 0.950 . S
H713 C725 0.950 . S
H714 C722 0.950 . S
H715 C724 0.950 . S
H716 C726 0.950 . S
H717 C728 0.950 . S
H718 C730 0.950 . S
H719 C731 0.950 . S
C720 H712 0.950 . S
C720 C721 1.386 . S
C720 C722 1.391 1_556 S
C721 C720 1.386 . S
C721 C725 1.393 . S
C722 H714 0.950 . S
C722 C720 1.391 1_554 S
C722 C723 1.400 . S
C723 C722 1.400 . S
C723 C724 1.398 . S
C723 C729 1.491 . S
C724 H715 0.950 . S
C724 C723 1.398 . S
C724 C725 1.391 1_554 S
C725 H713 0.950 . S
C725 C721 1.393 . S
C725 C724 1.391 1_556 S
C726 H716 0.950 . S
C726 C727 1.386 . S
C726 C728 1.391 . S
C727 C726 1.386 . S
C727 C731 1.393 . S
C728 H717 0.950 . S
C728 C726 1.391 . S
C728 C729 1.400 . S
C729 C723 1.491 . S
C729 C728 1.400 . S
C729 C730 1.398 . S
C730 H718 0.950 . S
C730 C729 1.398 . S
C730 C731 1.391 . S
C731 H719 0.950 . S
C731 C727 1.393 . S
C731 C730 1.391 . S
H732 C740 0.950 . S
H733 C745 0.950 . S
H734 C742 0.950 . S
H735 C744 0.950 . S
H736 C746 0.950 . S
H737 C748 0.950 . S
H738 C750 0.950 . S
H739 C751 0.950 . S
C740 H732 0.950 . S
C740 C741 1.386 . S
C740 C742 1.391 . S
C741 C740 1.386 . S
C741 C745 1.393 . S
C742 H734 0.950 . S
C742 C740 1.391 . S
C742 C743 1.400 . S
C743 C742 1.400 . S
C743 C744 1.398 . S
C743 C749 1.491 . S
C744 H735 0.950 . S
C744 C743 1.398 . S
C744 C745 1.391 . S
C745 H733 0.950 . S
C745 C741 1.393 . S
C745 C744 1.391 . S
C746 H736 0.950 . S
C746 C747 1.386 . S
C746 C748 1.391 . S
C747 C746 1.386 . S
C747 C751 1.393 . S
C748 H737 0.950 . S
C748 C746 1.391 . S
C748 C749 1.400 . S
C749 C743 1.491 . S
C749 C748 1.400 . S
C749 C750 1.398 . S
C750 H738 0.950 . S
C750 C749 1.398 . S
C750 C751 1.391 . S
C751 H739 0.950 . S
C751 C747 1.393 . S
C751 C750 1.391 . S
H752 C760 0.950 . S
H753 C765 0.950 . S
H754 C762 0.950 . S
H755 C764 0.950 . S
H756 C766 0.950 . S
H757 C768 0.950 . S
H758 C770 0.950 . S
H759 C771 0.950 . S
C760 H752 0.950 . S
C760 C761 1.386 . S
C760 C762 1.391 . S
C761 C760 1.386 . S
C761 C765 1.393 . S
C762 H754 0.950 . S
C762 C760 1.391 . S
C762 C763 1.400 . S
C763 C762 1.400 . S
C763 C764 1.398 . S
C763 C769 1.491 . S
C764 H755 0.950 . S
C764 C763 1.398 . S
C764 C765 1.391 . S
C765 H753 0.950 . S
C765 C761 1.393 . S
C765 C764 1.391 . S
C766 H756 0.950 . S
C766 C767 1.386 . S
C766 C768 1.391 . S
C767 C766 1.386 . S
C767 C771 1.393 . S
C768 H757 0.950 . S
C768 C766 1.391 . S
C768 C769 1.400 . S
C769 C763 1.491 . S
C769 C768 1.400 . S
C769 C770 1.398 . S
C770 H758 0.950 . S
C770 C769 1.398 . S
C770 C771 1.391 . S
C771 H759 0.950 . S
C771 C767 1.393 . S
C771 C770 1.391 . S
H772 C780 0.950 . S
H773 C785 0.950 . S
H774 C782 0.950 . S
H775 C784 0.950 . S
H776 C786 0.950 . S
H777 C788 0.950 . S
H778 C790 0.950 . S
H779 C791 0.950 . S
C780 H772 0.950 . S
C780 C781 1.386 . S
C780 C782 1.391 . S
C781 C780 1.386 . S
C781 C785 1.393 . S
C782 H774 0.950 . S
C782 C780 1.391 . S
C782 C783 1.400 . S
C783 C782 1.400 . S
C783 C784 1.398 . S
C783 C789 1.491 . S
C784 H775 0.950 . S
C784 C783 1.398 . S
C784 C785 1.391 . S
C785 H773 0.950 . S
C785 C781 1.393 . S
C785 C784 1.391 . S
C786 H776 0.950 . S
C786 C787 1.386 . S
C786 C788 1.391 . S
C787 C786 1.386 . S
C787 C791 1.393 . S
C788 H777 0.950 . S
C788 C786 1.391 . S
C788 C789 1.400 . S
C789 C783 1.491 . S
C789 C788 1.400 . S
C789 C790 1.398 . S
C790 H778 0.950 . S
C790 C789 1.398 . S
C790 C791 1.391 . S
C791 H779 0.950 . S
C791 C787 1.393 . S
C791 C790 1.391 . S
C481 C33 0.858 . S
C487 C387 0.857 . S
C501 C92 0.859 . S
C507 C446 0.859 . S
C521 C269 0.865 . S
C527 C151 0.865 . S
C541 C328 0.869 . S
C547 C210 0.869 . S
C561 C5 1.630 . S
C567 C300 1.629 . S
C581 C64 1.627 . S
C587 C359 1.627 . S
C601 C418 1.628 . S
C607 C123 1.627 . S
C621 C182 1.630 . S
C627 C241 1.629 . S
C641 C288 1.623 . S
C647 C52 1.624 . S
C661 C111 1.617 . S
C667 C347 1.619 . S
C681 C170 1.623 . S
C687 C406 1.625 . S
C701 C465 1.618 . S
C707 C229 1.620 . S
C721 C357 1.355 . S
C727 C3 1.337 . S
C741 C416 1.337 . S
C747 C62 1.343 . S
C761 C121 1.352 . S
C767 C239 1.333 . S
C781 C180 1.350 . S
C787 C298 1.347 . S
