# Generated by pormake.
# Topology unn, (4)-cn, num edge types: 1
# Building blocks:
#     Node 0, Type 0, BuildingBlock: ESEHIV_clean_sbu_0, # of connection points: 4
#     Node 1, Type 0, BuildingBlock: ESEHIV_clean_sbu_0, # of connection points: 4
#     Node 2, Type 0, BuildingBlock: ESEHIV_clean_sbu_0, # of connection points: 4
#     Node 3, Type 0, BuildingBlock: ESEHIV_clean_sbu_0, # of connection points: 4
#     Node 4, Type 0, BuildingBlock: ESEHIV_clean_sbu_0, # of connection points: 4
#     Node 5, Type 0, BuildingBlock: ESEHIV_clean_sbu_0, # of connection points: 4
#     Node 6, Type 0, BuildingBlock: ESEHIV_clean_sbu_0, # of connection points: 4
#     Node 7, Type 0, BuildingBlock: ESEHIV_clean_sbu_0, # of connection points: 4
#     Node 8, Type 0, BuildingBlock: ESEHIV_clean_sbu_0, # of connection points: 4
#     Node 9, Type 0, BuildingBlock: ESEHIV_clean_sbu_0, # of connection points: 4
#     Node 10, Type 0, BuildingBlock: ESEHIV_clean_sbu_0, # of connection points: 4
#     Node 11, Type 0, BuildingBlock: ESEHIV_clean_sbu_0, # of connection points: 4
#     Node 12, Type 0, BuildingBlock: ESEHIV_clean_sbu_0, # of connection points: 4
#     Node 13, Type 0, BuildingBlock: ESEHIV_clean_sbu_0, # of connection points: 4
#     Node 14, Type 0, BuildingBlock: ESEHIV_clean_sbu_0, # of connection points: 4
#     Node 15, Type 0, BuildingBlock: ESEHIV_clean_sbu_0, # of connection points: 4
#     Node 16, Type 0, BuildingBlock: ESEHIV_clean_sbu_0, # of connection points: 4
#     Node 17, Type 0, BuildingBlock: ESEHIV_clean_sbu_0, # of connection points: 4
#     Edge 18, Type (0, 0), BuildingBlock: ZUJKAS_clean_linker_0, # of connection points: 2
#     Edge 19, Type (0, 0), BuildingBlock: ZUJKAS_clean_linker_0, # of connection points: 2
#     Edge 20, Type (0, 0), BuildingBlock: ZUJKAS_clean_linker_0, # of connection points: 2
#     Edge 21, Type (0, 0), BuildingBlock: ZUJKAS_clean_linker_0, # of connection points: 2
#     Edge 22, Type (0, 0), BuildingBlock: ZUJKAS_clean_linker_0, # of connection points: 2
#     Edge 23, Type (0, 0), BuildingBlock: ZUJKAS_clean_linker_0, # of connection points: 2
#     Edge 24, Type (0, 0), BuildingBlock: ZUJKAS_clean_linker_0, # of connection points: 2
#     Edge 25, Type (0, 0), BuildingBlock: ZUJKAS_clean_linker_0, # of connection points: 2
#     Edge 26, Type (0, 0), BuildingBlock: ZUJKAS_clean_linker_0, # of connection points: 2
#     Edge 27, Type (0, 0), BuildingBlock: ZUJKAS_clean_linker_0, # of connection points: 2
#     Edge 28, Type (0, 0), BuildingBlock: ZUJKAS_clean_linker_0, # of connection points: 2
#     Edge 29, Type (0, 0), BuildingBlock: ZUJKAS_clean_linker_0, # of connection points: 2
#     Edge 30, Type (0, 0), BuildingBlock: ZUJKAS_clean_linker_0, # of connection points: 2
#     Edge 31, Type (0, 0), BuildingBlock: ZUJKAS_clean_linker_0, # of connection points: 2
#     Edge 32, Type (0, 0), BuildingBlock: ZUJKAS_clean_linker_0, # of connection points: 2
#     Edge 33, Type (0, 0), BuildingBlock: ZUJKAS_clean_linker_0, # of connection points: 2
#     Edge 34, Type (0, 0), BuildingBlock: ZUJKAS_clean_linker_0, # of connection points: 2
#     Edge 35, Type (0, 0), BuildingBlock: ZUJKAS_clean_linker_0, # of connection points: 2
#     Edge 36, Type (0, 0), BuildingBlock: ZUJKAS_clean_linker_0, # of connection points: 2
#     Edge 37, Type (0, 0), BuildingBlock: ZUJKAS_clean_linker_0, # of connection points: 2
#     Edge 38, Type (0, 0), BuildingBlock: ZUJKAS_clean_linker_0, # of connection points: 2
#     Edge 39, Type (0, 0), BuildingBlock: ZUJKAS_clean_linker_0, # of connection points: 2
#     Edge 40, Type (0, 0), BuildingBlock: ZUJKAS_clean_linker_0, # of connection points: 2
#     Edge 41, Type (0, 0), BuildingBlock: ZUJKAS_clean_linker_0, # of connection points: 2
#     Edge 42, Type (0, 0), BuildingBlock: ZUJKAS_clean_linker_0, # of connection points: 2
#     Edge 43, Type (0, 0), BuildingBlock: ZUJKAS_clean_linker_0, # of connection points: 2
#     Edge 44, Type (0, 0), BuildingBlock: ZUJKAS_clean_linker_0, # of connection points: 2
#     Edge 45, Type (0, 0), BuildingBlock: ZUJKAS_clean_linker_0, # of connection points: 2
#     Edge 46, Type (0, 0), BuildingBlock: ZUJKAS_clean_linker_0, # of connection points: 2
#     Edge 47, Type (0, 0), BuildingBlock: ZUJKAS_clean_linker_0, # of connection points: 2
#     Edge 48, Type (0, 0), BuildingBlock: ZUJKAS_clean_linker_0, # of connection points: 2
#     Edge 49, Type (0, 0), BuildingBlock: ZUJKAS_clean_linker_0, # of connection points: 2
#     Edge 50, Type (0, 0), BuildingBlock: ZUJKAS_clean_linker_0, # of connection points: 2
#     Edge 51, Type (0, 0), BuildingBlock: ZUJKAS_clean_linker_0, # of connection points: 2
#     Edge 52, Type (0, 0), BuildingBlock: ZUJKAS_clean_linker_0, # of connection points: 2
#     Edge 53, Type (0, 0), BuildingBlock: ZUJKAS_clean_linker_0, # of connection points: 2
# Relax obj value: 0.007
# Max RMSD: 0.141
# Mean RMSD: 0.139
data_MOF--net-unn--node1-ESEHIV_clean_sbu_0--edge1-ZUJKAS_clean_linker_0
_symmetry_space_group_name_H-M    P1
_symmetry_Int_Tables_number       1
_symmetry_cell_setting            triclinic
loop_
_symmetry_equiv_pos_as_xyz
'x, y, z'
_cell_length_a     68.56928
_cell_length_b     68.214581
_cell_length_c     54.867894
_cell_angle_alpha  90.141344
_cell_angle_beta   90.180568
_cell_angle_gamma 119.95615
loop_
_atom_site_label
_atom_site_type_symbol
_atom_site_fract_x
_atom_site_fract_y
_atom_site_fract_z
_atom_type_partial_charge
Cu0 Cu 0.01685 0.73787 0.26656 0.0
N1 N 0.04201 0.76623 0.27439 0.0
N2 N 0.07567 0.79277 0.28914 0.0
C3 C 0.06004 0.77046 0.28831 0.0
C4 C 0.06699 0.8029 0.2752 0.0
C5 C 0.04639 0.78657 0.26615 0.0
O6 O 1.00915 0.71899 0.29565 0.0
C7 C 1.01253 0.70704 0.22798 0.0
O8 O 0.99462 0.69182 0.23958 0.0
H9 H 0.06192 0.75737 0.29716 0.0
H10 H 0.03545 0.78932 0.25413 0.0
N11 N 0.99168 0.74096 0.25875 0.0
N12 N 0.95821 0.73392 0.2437 0.0
C13 C 0.97417 0.72771 0.24389 0.0
C14 C 0.98665 0.75607 0.26826 0.0
C15 C 0.96617 0.75185 0.25902 0.0
C16 C 0.02108 0.71149 0.30518 0.0
O17 O 0.03885 0.71395 0.2935 0.0
H18 H 0.97284 0.71342 0.23392 0.0
H19 H 0.99703 0.76908 0.28131 0.0
O20 O 0.02455 0.72654 0.23753 0.0
H21 H 0.07487 0.82087 0.27176 0.0
H22 H 0.95784 0.76134 0.26333 0.0
Cu23 Cu 0.29417 0.29062 0.26917 0.0
N24 N 0.29102 0.26222 0.26138 0.0
N25 N 0.29797 0.23551 0.24667 0.0
C26 C 0.30447 0.25782 0.24715 0.0
C27 C 0.27964 0.22557 0.26112 0.0
C28 C 0.27545 0.24201 0.27013 0.0
O29 O 0.30546 0.30965 0.24025 0.0
C30 C 0.32024 0.32123 0.30807 0.0
O31 O 0.31747 0.33648 0.29644 0.0
H32 H 0.31908 0.27076 0.23785 0.0
H33 H 0.26212 0.23944 0.28249 0.0
N34 N 0.26595 0.2876 0.27654 0.0
N35 N 0.23941 0.2945 0.29142 0.0
C36 C 0.26149 0.30056 0.29165 0.0
C37 C 0.24603 0.27286 0.2664 0.0
C38 C 0.22969 0.27699 0.27553 0.0
C39 C 0.32484 0.31703 0.23087 0.0
O40 O 0.34 0.31423 0.2426 0.0
H41 H 0.27418 0.3142 0.30254 0.0
H42 H 0.24364 0.26028 0.25287 0.0
O43 O 0.31296 0.30178 0.29844 0.0
H44 H 0.26984 0.20765 0.26493 0.0
H45 H 0.21212 0.26817 0.27024 0.0
Cu46 Cu 0.7419 0.01315 0.26766 0.0
N47 N 0.74579 0.98832 0.27439 0.0
N48 N 0.73886 0.95468 0.28896 0.0
C49 C 0.73166 0.96987 0.28743 0.0
C50 C 0.75835 0.9641 0.27633 0.0
C51 C 0.76255 0.98477 0.2674 0.0
O52 O 0.72685 0.016 0.29649 0.0
C53 C 0.7171 0.01845 0.22821 0.0
O54 O 0.71868 0.03558 0.24084 0.0
H55 H 0.71621 0.96757 0.29531 0.0
H56 H 0.77682 0.9964 0.25659 0.0
N57 N 0.76985 0.03976 0.26325 0.0
N58 N 0.79638 0.07403 0.25013 0.0
C59 C 0.77476 0.05705 0.24785 0.0
C60 C 0.78903 0.04593 0.27562 0.0
C61 C 0.80536 0.06694 0.2676 0.0
C62 C 0.7307 0.03455 0.30629 0.0
O63 O 0.74351 0.05368 0.29494 0.0
H64 H 0.76257 0.05739 0.23561 0.0
H65 H 0.79094 0.03589 0.28965 0.0
O66 O 0.72474 1.00646 0.2373 0.0
H67 H 0.76903 0.95677 0.27389 0.0
H68 H 0.82255 0.07615 0.27416 0.0
Cu69 Cu 0.01709 0.28953 0.76646 0.0
N70 N 0.99212 0.26116 0.75821 0.0
N71 N 0.95851 0.23462 0.74332 0.0
C72 C 0.97331 0.25706 0.74592 0.0
C73 C 0.96853 0.2243 0.75452 0.0
C74 C 0.9891 0.24062 0.76367 0.0
O75 O 0.02469 0.30865 0.73758 0.0
C76 C 0.02138 0.31997 0.80535 0.0
O77 O 0.03943 0.33512 0.79388 0.0
H78 H 0.9704 0.27028 0.73936 0.0
H79 H 1.001 0.23768 0.77367 0.0
N80 N 0.04246 0.28669 0.77392 0.0
N81 N 0.0758 0.2936 0.7892 0.0
C82 C 0.05931 0.29904 0.7899 0.0
C83 C 0.04855 0.27304 0.76271 0.0
C84 C 0.06895 0.27715 0.77211 0.0
C85 C 1.01271 0.31614 0.72813 0.0
O86 O 0.99489 0.31353 0.73983 0.0
H87 H 0.05956 0.31186 0.8017 0.0
H88 H 0.03909 0.2613 0.74821 0.0
O89 O 1.00925 0.30056 0.79564 0.0
H90 H 0.9617 0.20622 0.75587 0.0
H91 H 0.07834 0.26916 0.76614 0.0
Cu92 Cu 0.74452 0.74258 0.76685 0.0
N93 N 0.74863 0.7713 0.7743 0.0
N94 N 0.74166 0.79791 0.78921 0.0
C95 C 0.73424 0.77547 0.78701 0.0
C96 C 0.76157 0.80815 0.77738 0.0
C97 C 0.7658 0.79175 0.76824 0.0
O98 O 0.72959 0.72434 0.79543 0.0
C99 C 0.71939 0.71311 0.72682 0.0
O100 O 0.72186 0.6975 0.73806 0.0
H101 H 0.71845 0.76221 0.79415 0.0
H102 H 0.78037 0.79453 0.75791 0.0
N103 N 0.77234 0.74382 0.76191 0.0
N104 N 0.79863 0.73601 0.74829 0.0
C105 C 0.7772 0.73181 0.74585 0.0
C106 C 0.79134 0.75606 0.7749 0.0
C107 C 0.80754 0.75135 0.76655 0.0
C108 C 0.73308 0.70917 0.80441 0.0
O109 O 0.74546 0.70273 0.79235 0.0
H110 H 0.76528 0.7202 0.73266 0.0
H111 H 0.79314 0.7673 0.78976 0.0
O112 O 0.72684 0.73244 0.73683 0.0
H113 H 0.77252 0.82623 0.77564 0.0
H114 H 0.82437 0.75823 0.77392 0.0
Cu115 Cu 0.29308 0.01378 0.76957 0.0
N116 N 0.29133 0.04014 0.76456 0.0
N117 N 0.29935 0.07442 0.75094 0.0
C118 C 0.3044 0.05759 0.74972 0.0
C119 C 0.28235 0.06706 0.76717 0.0
C120 C 0.2775 0.04604 0.77553 0.0
O121 O 0.306 0.00883 0.74 0.0
C122 C 0.325 0.03553 0.80885 0.0
O123 O 0.33206 0.05448 0.79677 0.0
H124 H 0.31769 0.05807 0.73871 0.0
H125 H 0.26488 0.03582 0.7888 0.0
N126 N 0.26456 0.98841 0.77542 0.0
N127 N 0.23825 0.95451 0.78955 0.0
C128 C 0.26055 0.9695 0.78745 0.0
C129 C 0.24413 0.98538 0.7698 0.0
C130 C 0.22792 0.96453 0.77838 0.0
C131 C 0.29331 1.00132 0.72123 0.0
O132 O 0.27226 0.99641 0.72306 0.0
H133 H 0.27381 0.96685 0.79448 0.0
H134 H 0.24121 0.99757 0.76033 0.0
O135 O 0.31012 0.01696 0.79932 0.0
H136 H 0.27381 0.07607 0.77262 0.0
H137 H 0.20991 0.95758 0.77695 0.0
Cu138 Cu 0.68254 0.07033 0.60146 0.0
N139 N 0.65807 0.07463 0.59465 0.0
N140 N 0.62454 0.06784 0.5802 0.0
C141 C 0.63936 0.06026 0.58198 0.0
C142 C 0.63447 0.08785 0.59227 0.0
C143 C 0.65508 0.09197 0.6011 0.0
O144 O 0.68498 0.05497 0.57255 0.0
C145 C 0.68823 0.04631 0.64142 0.0
O146 O 0.70583 0.04866 0.62944 0.0
H147 H 0.63661 0.04436 0.57454 0.0
H148 H 0.66707 0.1066 0.61148 0.0
N149 N 0.70939 0.0982 0.60572 0.0
N150 N 0.74371 0.12455 0.61909 0.0
C151 C 0.72554 0.10381 0.62289 0.0
C152 C 0.71751 0.11602 0.59062 0.0
C153 C 0.73854 0.13223 0.59877 0.0
C154 C 0.70334 0.05811 0.5633 0.0
O155 O 0.72226 0.07004 0.57542 0.0
H156 H 0.72409 0.09278 0.63771 0.0
H157 H 0.709 0.11684 0.57435 0.0
O158 O 0.67585 0.05323 0.63177 0.0
H159 H 0.62752 0.09892 0.59435 0.0
H160 H 0.74947 0.14808 0.58978 0.0
Cu161 Cu 0.96121 0.62608 0.59938 0.0
N162 N 0.95829 0.59764 0.59199 0.0
N163 N 0.96547 0.57104 0.57735 0.0
C164 C 0.97296 0.59348 0.57976 0.0
C165 C 0.94529 0.56076 0.5886 0.0
C166 C 0.94093 0.57711 0.59751 0.0
O167 O 0.97191 0.64432 0.56983 0.0
C168 C 0.97643 0.62621 0.64657 0.0
O169 O 0.96133 0.60469 0.64421 0.0
H170 H 0.98866 0.60665 0.57247 0.0
H171 H 0.92616 0.5742 0.60751 0.0
N172 N 0.93315 0.62327 0.60677 0.0
N173 N 0.90723 0.63078 0.62226 0.0
C174 C 0.92914 0.63615 0.62246 0.0
C175 C 0.91319 0.60934 0.5962 0.0
C176 C 0.89723 0.61384 0.60572 0.0
C177 C 0.99133 0.65192 0.56048 0.0
O178 O 1.00683 0.64999 0.5726 0.0
H179 H 0.94214 0.64934 0.63359 0.0
H180 H 0.91054 0.59714 0.58209 0.0
O181 O 0.98017 0.63927 0.62841 0.0
H182 H 0.93446 0.54269 0.5906 0.0
H183 H 0.87974 0.60571 0.60018 0.0
Cu184 Cu 0.40787 0.34677 0.60184 0.0
N185 N 0.43611 0.37194 0.59429 0.0
N186 N 0.46264 0.40536 0.57928 0.0
C187 C 0.44051 0.38943 0.57939 0.0
C188 C 0.47248 0.39745 0.59473 0.0
C189 C 0.45614 0.37699 0.60396 0.0
O190 O 0.38902 0.33915 0.57264 0.0
C191 C 0.3777 0.34277 0.64072 0.0
O192 O 0.36252 0.32425 0.62968 0.0
H193 H 0.42773 0.39049 0.56887 0.0
H194 H 0.45862 0.3667 0.61719 0.0
N195 N 0.41095 0.32149 0.60953 0.0
N196 N 0.40417 0.28793 0.62431 0.0
C197 C 0.3978 0.30381 0.62412 0.0
C198 C 0.42618 0.31663 0.60024 0.0
C199 C 0.42211 0.29608 0.6093 0.0
C200 C 0.3817 0.35136 0.56337 0.0
O201 O 0.38443 0.36924 0.5754 0.0
H202 H 0.3835 0.30232 0.63391 0.0
H203 H 0.43921 0.3272 0.58749 0.0
O204 O 0.39681 0.35485 0.63077 0.0
H205 H 0.49013 0.4061 0.59966 0.0
H206 H 0.43171 0.28785 0.60512 0.0
Cu207 Cu 0.68404 0.62105 0.09827 0.0
N208 N 0.65887 0.59227 0.09248 0.0
N209 N 0.62512 0.56553 0.07826 0.0
C210 C 0.64014 0.58798 0.07994 0.0
C211 C 0.63493 0.55542 0.09032 0.0
C212 C 0.65565 0.57189 0.09901 0.0
O213 O 0.68674 0.63817 0.06882 0.0
C214 C 0.67694 0.6224 0.14753 0.0
O215 O 0.67752 0.60349 0.14573 0.0
H216 H 0.63784 0.60112 0.07181 0.0
H217 H 0.66757 0.56917 0.1093 0.0
N218 N 0.71055 0.61966 0.1029 0.0
N219 N 0.74487 0.62806 0.11647 0.0
C220 C 0.72818 0.63323 0.11744 0.0
C221 C 0.7162 0.6054 0.09235 0.0
C222 C 0.73724 0.61049 0.10066 0.0
C223 C 0.705 0.65404 0.06012 0.0
O224 O 0.72367 0.66198 0.07292 0.0
H225 H 0.72882 0.64685 0.12819 0.0
H226 H 0.70573 0.59223 0.0795 0.0
O227 O 0.67911 0.6336 0.12815 0.0
H228 H 0.62763 0.53739 0.09294 0.0
H229 H 0.74606 0.60166 0.09556 0.0
Cu230 Cu 0.41029 0.07207 0.10414 0.0
N231 N 0.43892 0.07601 0.09762 0.0
N232 N 0.46566 0.06927 0.08318 0.0
C233 C 0.44337 0.06222 0.08394 0.0
C234 C 0.47552 0.0883 0.09694 0.0
C235 C 0.45904 0.09239 0.10579 0.0
O236 O 0.39251 0.05727 0.07502 0.0
C237 C 0.38009 0.0467 0.14311 0.0
O238 O 0.36459 0.04831 0.13059 0.0
H239 H 0.43039 0.04707 0.07513 0.0
H240 H 0.46154 0.10628 0.11744 0.0
N241 N 0.41175 0.10015 0.10912 0.0
N242 N 0.40391 0.12669 0.12235 0.0
C243 C 0.39887 0.10483 0.12395 0.0
C244 C 0.42549 0.11972 0.09782 0.0
C245 C 0.42075 0.13606 0.10591 0.0
C246 C 0.37739 0.0607 0.06587 0.0
O247 O 0.37066 0.07284 0.07804 0.0
H248 H 0.38574 0.09231 0.1353 0.0
H249 H 0.438 0.12192 0.08449 0.0
O250 O 0.39968 0.05455 0.13413 0.0
H251 H 0.49342 0.09873 0.10026 0.0
H252 H 0.42924 0.15353 0.10013 0.0
Cu253 Cu 0.96069 0.34545 0.09973 0.0
N254 N 0.95817 0.37126 0.0929 0.0
N255 N 0.96555 0.40519 0.07857 0.0
C256 C 0.97256 0.38982 0.08011 0.0
C257 C 0.94595 0.3958 0.09096 0.0
C258 C 0.94147 0.37501 0.09967 0.0
O259 O 0.97105 0.3378 0.06993 0.0
C260 C 0.97525 0.35899 0.14735 0.0
O261 O 0.95904 0.3639 0.14588 0.0
H262 H 0.98774 0.39189 0.07184 0.0
H263 H 0.92708 0.36349 0.1104 0.0
N264 N 0.9325 0.32034 0.1072 0.0
N265 N 0.90636 0.28676 0.12217 0.0
C266 C 0.9284 0.30298 0.12214 0.0
C267 C 0.91242 0.31497 0.09745 0.0
C268 C 0.89631 0.29439 0.10665 0.0
C269 C 0.99048 0.34949 0.06054 0.0
O270 O 1.00615 0.36689 0.07268 0.0
H271 H 0.94149 0.30198 0.13218 0.0
H272 H 0.90973 0.32514 0.08424 0.0
O273 O 0.97983 0.35105 0.12851 0.0
H274 H 0.93564 0.40347 0.09393 0.0
H275 H 0.87856 0.28575 0.10216 0.0
Cu276 Cu 0.34874 0.40268 0.93678 0.0
N277 N 0.3744 0.43097 0.94398 0.0
N278 N 0.4081 0.45731 0.95885 0.0
C279 C 0.39294 0.43493 0.95676 0.0
C280 C 0.39865 0.46776 0.94682 0.0
C281 C 0.37799 0.45158 0.93775 0.0
O282 O 0.34121 0.38456 0.96643 0.0
C283 C 0.36244 0.40175 0.88935 0.0
O284 O 0.36752 0.42299 0.89097 0.0
H285 H 0.39512 0.42168 0.9647 0.0
H286 H 0.36644 0.45463 0.9272 0.0
N287 N 0.32369 0.40586 0.92912 0.0
N288 N 0.29035 0.39865 0.9136 0.0
C289 C 0.30647 0.39266 0.91393 0.0
C290 C 0.31828 0.42062 0.93883 0.0
C291 C 0.29787 0.4163 0.92927 0.0
C292 C 0.35288 0.37667 0.97579 0.0
O293 O 0.37011 0.37828 0.96368 0.0
H294 H 0.30578 0.37886 0.90348 0.0
H295 H 0.32825 0.43332 0.95234 0.0
O296 O 0.35435 0.38913 0.90802 0.0
H297 H 0.40618 0.48584 0.94439 0.0
H298 H 0.28897 0.42511 0.93416 0.0
Cu299 Cu 0.62835 0.9595 0.93454 0.0
N300 N 0.62537 0.93125 0.92632 0.0
N301 N 0.63277 0.90498 0.91114 0.0
C302 C 0.63943 0.9273 0.91262 0.0
C303 C 0.61372 0.89457 0.92446 0.0
C304 C 0.60928 0.91074 0.93379 0.0
O305 O 0.63947 0.97867 0.90573 0.0
C306 C 0.6548 0.99003 0.97328 0.0
O307 O 0.652 1.00533 0.9618 0.0
H308 H 0.65451 0.94058 0.90436 0.0
H309 H 0.59537 0.90774 0.94544 0.0
N310 N 0.60014 0.95638 0.94228 0.0
N311 N 0.5737 0.96338 0.95727 0.0
C312 C 0.59583 0.96964 0.95708 0.0
C313 C 0.58005 0.9412 0.9328 0.0
C314 C 0.56378 0.94539 0.94201 0.0
C315 C 0.65896 0.98641 0.8965 0.0
O316 O 0.67427 0.98396 0.90837 0.0
H317 H 0.60875 0.98398 0.96698 0.0
H318 H 0.57746 0.92818 0.91978 0.0
O319 O 0.64735 0.97057 0.96363 0.0
H320 H 0.60355 0.87652 0.92728 0.0
H321 H 0.54601 0.93584 0.93771 0.0
Cu322 Cu 0.07507 0.6805 0.93531 0.0
N323 N 0.07816 0.65526 0.9431 0.0
N324 N 0.07135 0.62184 0.95832 0.0
C325 C 0.06518 0.63787 0.9581 0.0
C326 C 0.08892 0.62954 0.94284 0.0
C327 C 0.09298 0.64999 0.93347 0.0
O328 O 0.0639 0.68838 0.9643 0.0
C329 C 0.04873 0.68442 0.89633 0.0
O330 O 0.05181 0.70284 0.90743 0.0
H331 H 0.05145 0.63695 0.96858 0.0
H332 H 0.10559 0.66011 0.92013 0.0
N333 N 0.10327 0.70565 0.92747 0.0
N334 N 0.12977 0.73912 0.91244 0.0
C335 C 0.1075 0.72367 0.91353 0.0
C336 C 0.12356 0.70984 0.93548 0.0
C337 C 0.13985 0.73032 0.92625 0.0
C338 C 0.04443 0.67629 0.97347 0.0
O339 O 0.02937 0.65834 0.9615 0.0
H340 H 0.09448 0.72566 0.90478 0.0
H341 H 0.12631 0.69883 0.94739 0.0
O342 O 0.05593 0.67238 0.90629 0.0
H343 H 0.09781 0.62073 0.93796 0.0
H344 H 0.15777 0.73798 0.92945 0.0
Cu345 Cu 0.34997 0.95549 0.43484 0.0
N346 N 0.3249 0.92715 0.42672 0.0
N347 N 0.29126 0.90074 0.41181 0.0
C348 C 0.30707 0.923 0.4125 0.0
C349 C 0.29962 0.89057 0.42616 0.0
C350 C 0.3202 0.90682 0.43533 0.0
O351 O 0.35784 0.97455 0.40596 0.0
C352 C 0.35348 0.98601 0.47344 0.0
O353 O 0.3719 1.00129 0.46266 0.0
H354 H 0.30543 0.93613 0.4034 0.0
H355 H 0.33084 0.90404 0.44776 0.0
N356 N 0.37514 0.95251 0.44307 0.0
N357 N 0.40876 0.95994 0.45808 0.0
C358 C 0.39306 0.96647 0.4571 0.0
C359 C 0.37967 0.93662 0.4349 0.0
C360 C 0.40023 0.94107 0.44412 0.0
C361 C 0.346 0.98231 0.39678 0.0
O362 O 0.32827 0.97975 0.40864 0.0
H363 H 0.39485 0.98146 0.46588 0.0
H364 H 0.36889 0.92289 0.42276 0.0
O365 O 0.34167 0.96667 0.46349 0.0
H366 H 0.29152 0.87263 0.42987 0.0
H367 H 0.40819 0.93106 0.44073 0.0
Cu368 Cu 0.07512 0.40475 0.4356 0.0
N369 N 0.07852 0.4332 0.44362 0.0
N370 N 0.0719 0.45995 0.45891 0.0
C371 C 0.06493 0.43756 0.45766 0.0
C372 C 0.09064 0.47 0.44508 0.0
C373 C 0.0946 0.45353 0.43567 0.0
O374 O 0.06366 0.38572 0.46451 0.0
C375 C 0.04912 0.37462 0.39625 0.0
O376 O 0.05239 0.35937 0.40715 0.0
H377 H 0.05025 0.42459 0.46684 0.0
H378 H 0.10812 0.45617 0.42357 0.0
N379 N 0.10327 0.40759 0.4282 0.0
N380 N 0.1298 0.4007 0.41322 0.0
C381 C 0.10777 0.39485 0.41279 0.0
C382 C 0.12313 0.42197 0.43873 0.0
C383 C 0.13946 0.41785 0.42953 0.0
C384 C 0.04418 0.37832 0.47362 0.0
O385 O 0.02912 0.38104 0.46157 0.0
H386 H 0.09517 0.38151 0.40153 0.0
H387 H 0.12547 0.43429 0.45258 0.0
O388 O 0.05613 0.39381 0.40644 0.0
H389 H 0.10053 0.48795 0.44145 0.0
H390 H 0.15696 0.42641 0.43508 0.0
Cu391 Cu 0.62463 0.67889 0.43283 0.0
N392 N 0.6224 0.70472 0.4252 0.0
N393 N 0.63063 0.73881 0.41067 0.0
C394 C 0.63746 0.72337 0.41299 0.0
C395 C 0.61045 0.7294 0.42188 0.0
C396 C 0.60545 0.70849 0.43074 0.0
O397 O 0.63457 0.6704 0.40342 0.0
C398 C 0.64191 0.69547 0.47921 0.0
O399 O 0.62769 0.70299 0.47717 0.0
H400 H 0.65326 0.72572 0.40624 0.0
H401 H 0.5905 0.69689 0.44067 0.0
N402 N 0.59648 0.65405 0.44097 0.0
N403 N 0.57053 0.62079 0.45679 0.0
C404 C 0.59259 0.63694 0.45621 0.0
C405 C 0.57627 0.64851 0.43147 0.0
C406 C 0.56028 0.62816 0.44122 0.0
C407 C 0.65405 0.68157 0.39401 0.0
O408 O 0.66993 0.69908 0.40583 0.0
H409 H 0.60577 0.63632 0.46647 0.0
H410 H 0.57344 0.65831 0.41789 0.0
O411 O 0.6442 0.6849 0.46124 0.0
H412 H 0.59983 0.73689 0.42335 0.0
H413 H 0.54257 0.61915 0.4365 0.0
H414 H 0.98668 0.67 0.19908 0.0
H415 H 0.99232 0.66467 0.15605 0.0
H416 H 0.05364 0.72922 0.15587 0.0
H417 H 0.04824 0.73465 0.19888 0.0
H418 H 0.99538 0.69317 0.11703 0.0
H419 H 0.07276 0.68676 0.12429 0.0
H420 H 0.05519 0.68335 0.15022 0.0
H421 H 0.07453 0.71114 0.13905 0.0
C422 C 1.00156 0.68293 0.19003 0.0
C423 C 0.01705 0.70272 0.20256 0.0
C424 C 1.0047 0.67989 0.16536 0.0
C425 C 0.02351 0.69644 0.15273 0.0
C426 C 0.0392 0.71603 0.16528 0.0
H427 H 0.07172 0.71195 1.00341 0.0
H428 H 0.06579 0.71727 0.0463 0.0
C429 C 0.03603 0.71913 0.18991 0.0
C430 C 0.02618 0.6937 0.12619 0.0
H431 H 0.06116 0.69004 0.08448 0.0
C432 C 1.0097 0.69236 0.10991 0.0
C433 C 0.04493 0.69279 0.11687 0.0
C434 C 0.0628 0.69339 0.13349 0.0
C435 C 1.01165 0.69055 0.08457 0.0
C436 C 0.03037 0.68954 0.07523 0.0
C437 C 0.04684 0.69086 0.09156 0.0
C438 C 0.03318 0.68693 0.04865 0.0
C439 C 0.99393 0.69035 0.06804 0.0
C440 C 0.01679 0.66816 0.0355 0.0
C441 C 0.02006 0.66515 1.01087 0.0
C442 C 0.03992 0.68072 0.99885 0.0
C443 C 0.05618 0.69965 1.01199 0.0
C444 C 0.05286 0.70268 0.03659 0.0
H445 H 0.98473 0.6979 0.0771 0.0
H446 H 1.00147 0.69977 0.05095 0.0
H447 H 0.98147 0.6726 0.06317 0.0
H448 H 1.0017 0.65547 0.04445 0.0
H449 H 1.00727 0.65026 1.00146 0.0
H450 H 0.37838 0.36479 1.00408 0.0
H451 H 0.3734 0.35455 0.04728 0.0
H452 H 0.31362 0.36032 0.04906 0.0
H453 H 0.31838 0.37047 1.00589 0.0
H454 H 0.37218 0.38141 0.08645 0.0
H455 H 0.29321 0.29842 0.08091 0.0
H456 H 0.31056 0.31184 0.05463 0.0
H457 H 0.29212 0.3213 0.06608 0.0
C458 C 0.36398 0.36358 1.01353 0.0
C459 C 0.34873 0.36839 1.0014 0.0
C460 C 0.36122 0.35781 0.03829 0.0
C461 C 0.34303 0.35646 0.0514 0.0
C462 C 0.32758 0.36089 0.03927 0.0
H463 H 0.29757 0.32585 0.20174 0.0
H464 H 0.30288 0.33678 0.1588 0.0
C465 C 0.33038 0.36676 1.01455 0.0
C466 C 0.34077 0.3514 0.07799 0.0
H467 H 0.30607 0.31353 0.12043 0.0
C468 C 0.35778 0.36651 0.09389 0.0
C469 C 0.32192 0.33204 0.08771 0.0
C470 C 0.30347 0.31483 0.07148 0.0
C471 C 0.35628 0.36302 0.11926 0.0
C472 C 0.33747 0.34357 0.129 0.0
C473 C 0.32047 0.32846 0.11305 0.0
C474 C 0.33511 0.33842 0.15562 0.0
C475 C 0.37457 0.38054 0.1354 0.0
C476 C 0.3515 0.3358 0.16833 0.0
C477 C 0.34859 0.32973 0.19299 0.0
C478 C 0.32908 0.32584 0.20548 0.0
C479 C 0.31284 0.32876 0.19278 0.0
C480 C 0.31581 0.33494 0.16816 0.0
H481 H 0.38387 0.3972 0.12618 0.0
H482 H 0.36756 0.38278 0.15272 0.0
H483 H 0.38684 0.37496 0.13984 0.0
H484 H 0.36629 0.33786 0.159 0.0
H485 H 0.36134 0.3274 0.20206 0.0
H486 H 0.71083 0.98416 0.19719 0.0
H487 H 0.70059 0.97991 0.15393 0.0
H488 H 0.69498 0.04003 0.15747 0.0
H489 H 0.70531 0.0445 0.20071 0.0
H490 H 0.66147 0.97589 0.13042 0.0
H491 H 0.73954 0.05287 0.10096 0.0
H492 H 0.73698 0.04007 0.13042 0.0
H493 H 0.72431 0.05721 0.12498 0.0
C494 C 0.7073 0.99643 0.18884 0.0
C495 C 0.709 0.01474 0.20249 0.0
C496 C 0.70146 0.99397 0.16408 0.0
C497 C 0.6974 0.00986 0.15233 0.0
C498 C 0.69846 0.0278 0.16602 0.0
H499 H 0.66514 0.02655 1.00275 0.0
H500 H 0.67561 0.03123 0.04595 0.0
C501 C 0.7042 0.03022 0.19082 0.0
C502 C 0.69208 1.00763 0.12578 0.0
H503 H 0.71144 0.03374 0.07087 0.0
C504 C 0.67242 0.98849 0.11737 0.0
C505 C 0.70635 0.02413 0.10877 0.0
C506 C 0.72809 0.04466 0.11661 0.0
C507 C 0.66643 0.98557 0.09253 0.0
C508 C 0.6808 1.00197 0.07545 0.0
C509 C 0.70045 0.02115 0.08389 0.0
C510 C 0.67562 0.9996 0.04881 0.0
C511 C 0.64445 0.96521 0.08492 0.0
C512 C 0.67281 0.98061 0.03575 0.0
C513 C 0.66675 0.97784 1.01105 0.0
C514 C 0.66361 0.99415 0.99873 0.0
C515 C 0.6674 0.01364 1.01159 0.0
C516 C 0.67335 0.01633 0.03635 0.0
H517 H 0.63268 0.95798 0.1005 0.0
H518 H 0.63608 0.96958 0.07028 0.0
H519 H 0.64777 0.95189 0.07788 0.0
H520 H 0.67507 0.96776 0.04474 0.0
H521 H 0.66415 0.96271 1.00172 0.0
H522 H 0.73716 0.0556 0.53959 0.0
H523 H 0.73946 0.04905 0.49608 0.0
H524 H 0.67349 0.04083 0.4848 0.0
H525 H 0.67068 0.04632 0.52839 0.0
H526 H 0.67775 0.01196 0.45728 0.0
H527 H 0.75404 0.09563 0.4451 0.0
H528 H 0.75853 0.07856 0.46665 0.0
H529 H 0.73848 0.0876 0.47321 0.0
C530 C 0.72304 0.05215 0.52788 0.0
C531 C 0.70381 0.05164 0.53749 0.0
C532 C 0.72447 0.04864 0.50292 0.0
C533 C 0.70695 0.04514 0.48689 0.0
C534 C 0.68734 0.04368 0.49665 0.0
H535 H 0.72922 0.06897 0.33047 0.0
H536 H 0.72121 0.07061 0.37363 0.0
C537 C 0.68574 0.0468 0.52165 0.0
C538 C 0.70913 0.04339 0.45997 0.0
H539 H 0.74327 0.07022 0.4115 0.0
C540 C 0.69204 0.02477 0.44726 0.0
C541 C 0.7275 0.06032 0.44665 0.0
C542 C 0.74554 0.08176 0.45855 0.0
C543 C 0.69296 0.02242 0.42185 0.0
C544 C 0.71191 0.03876 0.40874 0.0
C545 C 0.72882 0.05753 0.42142 0.0
C546 C 0.71471 0.03685 0.38197 0.0
C547 C 0.67329 1.00273 0.40932 0.0
C548 C 0.71352 0.01727 0.37199 0.0
C549 C 0.71763 0.01614 0.34718 0.0
C550 C 0.72361 0.03478 0.33183 0.0
C551 C 0.72462 0.05429 0.34175 0.0
C552 C 0.72012 0.05527 0.36649 0.0
H553 H 0.65754 0.99668 0.41992 0.0
H554 H 0.67051 1.00729 0.39074 0.0
H555 H 0.67664 0.98846 0.40782 0.0
H556 H 0.71011 1.00307 0.38352 0.0
H557 H 0.71704 1.00096 0.34026 0.0
H558 H 0.96316 0.65851 0.53023 0.0
H559 H 0.96839 0.66842 0.48696 0.0
H560 H 0.0336 0.67351 0.48908 0.0
H561 H 0.02852 0.66352 0.53233 0.0
H562 H 1.00311 0.70723 0.46274 0.0
H563 H 1.00038 0.62796 0.43312 0.0
H564 H 0.99093 0.6311 0.46279 0.0
H565 H 0.02049 0.64351 0.45676 0.0
C566 C 0.97871 0.66189 0.52158 0.0
C567 C 0.99538 0.6601 0.53483 0.0
C568 C 0.98165 0.66753 0.4968 0.0
C569 C 1.0012 0.67131 0.48463 0.0
C570 C 0.01818 0.67024 0.49794 0.0
H571 H 0.04722 0.70106 0.33429 0.0
H572 H 0.04206 0.69119 0.37756 0.0
C573 C 0.01531 0.6647 0.52276 0.0
C574 C 1.00376 0.67625 0.45802 0.0
H575 H 1.0091 0.65583 0.40294 0.0
C576 C 1.00435 0.69596 0.44964 0.0
C577 C 1.00542 0.66157 0.44093 0.0
C578 C 1.0041 0.63974 0.44873 0.0
C579 C 1.00697 0.70162 0.42475 0.0
C580 C 1.00848 0.68685 0.40759 0.0
C581 C 1.00791 0.66713 0.41601 0.0
C582 C 1.01089 0.69169 0.38091 0.0
C583 C 1.00872 0.72369 0.41717 0.0
C584 C 0.99474 0.6946 0.36808 0.0
C585 C 0.99768 0.70032 0.34332 0.0
C586 C 0.01671 0.70301 0.33071 0.0
C587 C 0.03236 0.69913 0.34335 0.0
C588 C 0.02946 0.69352 0.36816 0.0
H589 H 0.01366 0.73576 0.4327 0.0
H590 H 0.02117 0.73182 0.40234 0.0
H591 H 0.99208 0.7204 0.41041 0.0
H592 H 0.97994 0.69266 0.37728 0.0
H593 H 0.98519 0.703 0.33417 0.0
H594 H 0.37397 0.31603 0.53317 0.0
H595 H 0.36362 0.31136 0.48993 0.0
H596 H 0.35992 0.37258 0.49214 0.0
H597 H 0.37039 0.37749 0.53535 0.0
H598 H 0.32531 0.30804 0.46569 0.0
H599 H 0.40435 0.38386 0.43617 0.0
H600 H 0.4013 0.37136 0.46589 0.0
H601 H 0.38921 0.38892 0.45971 0.0
C602 C 0.3708 0.32844 0.52455 0.0
C603 C 0.37314 0.34722 0.5378 0.0
C604 C 0.3649 0.32574 0.49979 0.0
C605 C 0.3614 0.34183 0.48764 0.0
C606 C 0.36298 0.36018 0.50098 0.0
H607 H 0.3308 0.35804 0.33717 0.0
H608 H 0.34088 0.36287 0.38048 0.0
C609 C 0.36879 0.36286 0.52577 0.0
C610 C 0.35626 0.33946 0.46102 0.0
H611 H 0.37631 0.36496 0.40597 0.0
C612 C 0.33648 0.32044 0.45262 0.0
C613 C 0.37083 0.35567 0.44395 0.0
C614 C 0.39272 0.37603 0.45176 0.0
C615 C 0.33068 0.31738 0.42771 0.0
C616 C 0.34532 0.33352 0.41058 0.0
C617 C 0.36509 0.35257 0.41903 0.0
C618 C 0.34034 0.33101 0.38389 0.0
C619 C 0.30859 0.29717 0.42008 0.0
C620 C 0.33734 0.31182 0.37109 0.0
C621 C 0.33152 0.30898 0.34631 0.0
C622 C 0.3288 0.32539 0.33365 0.0
C623 C 0.33274 0.34504 0.34627 0.0
C624 C 0.33847 0.34782 0.3711 0.0
H625 H 0.29669 0.2902 0.43559 0.0
H626 H 0.30047 0.30162 0.40524 0.0
H627 H 0.3117 0.28364 0.4133 0.0
H628 H 0.33929 0.29889 0.38033 0.0
H629 H 0.32879 0.2937 0.33718 0.0
H630 H 0.98533 0.29261 0.83419 0.0
H631 H 0.97975 0.29807 0.87716 0.0
H632 H 0.04211 0.3617 0.87761 0.0
H633 H 0.04758 0.35662 0.83455 0.0
H634 H 1.00591 0.30132 0.91577 0.0
H635 H 1.00073 0.37968 0.91017 0.0
H636 H 0.99879 0.36317 0.88358 0.0
H637 H 0.02582 0.38254 0.89669 0.0
C638 C 0.9977 0.30796 0.8433 0.0
C639 C 0.01686 0.32424 0.83079 0.0
C640 C 0.99452 0.31101 0.86794 0.0
C641 C 1.01035 0.33042 0.88067 0.0
C642 C 0.02936 0.34682 0.86814 0.0
H643 H 0.02767 0.37485 0.0323 0.0
H644 H 0.03271 0.36951 0.98911 0.0
C645 C 0.03251 0.34384 0.84347 0.0
C646 C 1.00754 0.33292 0.90728 0.0
H647 H 1.00477 0.36813 0.9499 0.0
C648 C 1.00551 0.31587 0.92319 0.0
C649 C 1.00707 0.35191 0.91707 0.0
C650 C 1.00799 0.37026 0.90098 0.0
C651 C 1.00343 0.31748 0.94853 0.0
C652 C 1.00311 0.33653 0.9583 0.0
C653 C 1.00513 0.35358 0.94243 0.0
C654 C 1.00043 0.33901 0.98489 0.0
C655 C 1.00205 0.29898 0.9647 0.0
C656 C 0.98062 0.32361 0.99698 0.0
C657 C 0.97766 0.32661 0.02171 0.0
C658 C 0.99445 0.34513 0.03491 0.0
C659 C 0.01443 0.36033 0.02281 0.0
C660 C 0.01732 0.35736 0.99806 0.0
H661 H 1.00805 0.28856 0.95527 0.0
H662 H 1.01214 0.30617 0.9816 0.0
H663 H 0.98427 0.28767 0.97003 0.0
H664 H 0.96719 0.30952 0.98715 0.0
H665 H 0.96201 0.31465 0.03033 0.0
H666 H 0.67297 0.63284 0.02466 0.0
H667 H 0.67602 0.64175 0.98127 0.0
H668 H 0.74128 0.70047 0.9938 0.0
H669 H 0.73875 0.69107 0.03713 0.0
H670 H 0.67978 0.67536 0.95488 0.0
H671 H 0.75692 0.66989 0.94178 0.0
H672 H 0.74117 0.66152 0.96975 0.0
H673 H 0.76088 0.69091 0.96396 0.0
C674 C 0.68794 0.64775 0.01824 0.0
C675 C 0.70573 0.66112 0.03438 0.0
C676 C 0.68967 0.65282 0.99336 0.0
C677 C 0.70914 0.67146 0.98402 0.0
C678 C 0.7264 0.68554 1.00033 0.0
H679 H 0.71938 0.72834 0.8393 0.0
H680 H 0.71239 0.71842 0.88231 0.0
C681 C 0.72485 0.68028 0.02518 0.0
C682 C 0.7114 0.67588 0.95724 0.0
H683 H 0.74584 0.6846 0.90865 0.0
C684 C 0.69419 0.67728 0.94477 0.0
C685 C 0.72993 0.6779 0.9438 0.0
C686 C 0.74814 0.67473 0.95545 0.0
C687 C 0.69517 0.68098 0.91946 0.0
C688 C 0.71425 0.68414 0.90626 0.0
C689 C 0.73128 0.6824 0.91868 0.0
C690 C 0.71711 0.68937 0.87964 0.0
C691 C 0.67541 0.68088 0.90713 0.0
C692 C 0.72257 0.67671 0.86364 0.0
C693 C 0.72708 0.68267 0.83903 0.0
C694 C 0.72604 0.70134 0.8298 0.0
C695 C 0.72001 0.71366 0.84568 0.0
C696 C 0.71587 0.70791 0.87035 0.0
H697 H 0.65965 0.67083 0.91761 0.0
H698 H 0.6786 0.69848 0.90607 0.0
H699 H 0.67277 0.67383 0.88837 0.0
H700 H 0.72371 0.66237 0.87028 0.0
H701 H 0.73172 0.67286 0.82733 0.0
H702 H 0.34089 0.05848 0.04266 0.0
H703 H 0.33087 0.05093 0.99944 0.0
H704 H 0.3881 0.04198 0.98745 0.0
H705 H 0.39755 0.04845 0.03073 0.0
H706 H 0.35255 0.07406 0.96185 0.0
H707 H 0.34238 0.98897 0.95028 0.0
H708 H 0.34474 1.00147 0.97992 0.0
H709 H 0.3696 1.00853 0.96244 0.0
C710 C 0.35107 0.05445 0.0309 0.0
C711 C 0.36992 0.05391 0.04023 0.0
C712 C 0.34538 0.05021 1.00613 0.0
C713 C 0.3585 0.04554 0.99005 0.0
C714 C 0.37724 0.04482 0.99944 0.0
H715 H 0.36062 0.07001 0.83329 0.0
H716 H 0.36953 0.07206 0.87678 0.0
C717 C 0.38271 0.04867 0.02426 0.0
C718 C 0.3535 0.04299 0.96332 0.0
H719 H 0.34652 0.00968 0.91363 0.0
C720 C 0.35105 0.05986 0.95138 0.0
C721 C 0.35123 0.02436 0.94953 0.0
C722 C 0.35188 1.0047 0.96126 0.0
C723 C 0.34671 0.05879 0.92621 0.0
C724 C 0.34563 0.04078 0.9122 0.0
C725 C 0.34773 0.02372 0.92417 0.0
C726 C 0.34153 0.03892 0.8853 0.0
C727 C 0.34272 0.07672 0.9151 0.0
C728 C 0.32367 0.0191 0.87517 0.0
C729 C 0.31892 0.01766 0.85018 0.0
C730 C 0.33182 0.03609 0.83472 0.0
C731 C 0.35021 0.0556 0.8447 0.0
C732 C 0.35518 0.05688 0.86966 0.0
H733 H 0.33718 0.08477 0.929 0.0
H734 H 0.35867 0.09019 0.90717 0.0
H735 H 0.32978 0.06958 0.90045 0.0
H736 H 0.31296 1.00491 0.88673 0.0
H737 H 0.3046 1.00237 0.84315 0.0
H738 H 0.26883 0.97542 0.68287 0.0
H739 H 0.28166 0.97448 0.64174 0.0
H740 H 0.34976 0.02287 0.66295 0.0
H741 H 0.33701 0.02327 0.70464 0.0
H742 H 0.29964 1.0079 0.61002 0.0
H743 H 0.36026 0.97786 0.62669 0.0
H744 H 0.34105 0.97672 0.64978 0.0
H745 H 0.36642 1.00289 0.64354 0.0
C746 C 0.28662 0.98563 0.67893 0.0
C747 C 0.30192 0.99938 0.69707 0.0
C748 C 0.29393 0.98512 0.65532 0.0
C749 C 0.31672 0.99846 0.64912 0.0
C750 C 0.33217 0.01201 0.66731 0.0
H751 H 0.38005 0.02039 0.5051 0.0
H752 H 0.3719 0.02501 0.54755 0.0
C753 C 0.32487 0.01229 0.69115 0.0
C754 C 0.32375 0.9989 0.6233 0.0
H755 H 0.35826 0.98924 0.58639 0.0
C756 C 0.31247 1.0038 0.60493 0.0
C757 C 0.34055 0.99365 0.61651 0.0
C758 C 0.35264 0.98728 0.63512 0.0
C759 C 0.31731 1.00336 0.58013 0.0
C760 C 0.33388 0.99786 0.57339 0.0
C761 C 0.34558 0.9935 0.59165 0.0
C762 C 0.33855 0.9956 0.5474 0.0
C763 C 0.30466 0.00874 0.56125 0.0
C764 C 0.32245 0.97758 0.53321 0.0
C765 C 0.32707 0.97481 0.50901 0.0
C766 C 0.34786 0.99011 0.49842 0.0
C767 C 0.3638 1.0084 0.51258 0.0
C768 C 0.35924 0.01101 0.53689 0.0
H769 H 0.29585 0.01709 0.56942 0.0
H770 H 0.31627 0.01989 0.54691 0.0
H771 H 0.29188 0.9928 0.55235 0.0
H772 H 0.30644 0.96538 0.54103 0.0
H773 H 0.31444 0.9605 0.4987 0.0
H774 H 0.98669 0.32692 0.69925 0.0
H775 H 0.99192 0.33712 0.65607 0.0
H776 H 0.05391 0.33537 0.65607 0.0
H777 H 0.04859 0.32473 0.69909 0.0
H778 H 0.02519 0.37269 0.63094 0.0
H779 H 0.01993 0.29264 0.60036 0.0
H780 H 1.0124 0.29643 0.63078 0.0
H781 H 0.04148 0.3077 0.62278 0.0
C782 C 1.00153 0.32885 0.69015 0.0
C783 C 0.01712 0.32482 0.70268 0.0
C784 C 1.00448 0.33465 0.66539 0.0
C785 C 0.02304 0.3365 0.65259 0.0
C786 C 0.03912 0.33343 0.66532 0.0
H787 H 0.07154 0.37046 0.50376 0.0
H788 H 0.0658 0.35999 0.54686 0.0
C789 C 0.03615 0.32754 0.69002 0.0
C790 C 0.02549 0.34154 0.62595 0.0
H791 H 0.03079 0.32145 0.5706 0.0
C792 C 0.02629 0.36142 0.61775 0.0
C793 C 0.02688 0.32682 0.60864 0.0
C794 C 0.02491 0.3046 0.616 0.0
C795 C 0.02892 0.36721 0.59289 0.0
C796 C 0.03048 0.35257 0.57564 0.0
C797 C 0.02963 0.33268 0.58381 0.0
C798 C 0.03328 0.35779 0.54909 0.0
C799 C 0.03055 0.38923 0.58534 0.0
C800 C 0.01662 0.35941 0.53575 0.0
C801 C 0.01979 0.36529 0.51103 0.0
C802 C 0.0397 0.36966 0.49908 0.0
C803 C 0.05602 0.36727 0.51232 0.0
C804 C 0.05278 0.36131 0.53701 0.0
H805 H 0.03437 0.4009 0.60107 0.0
H806 H 0.04377 0.39787 0.57132 0.0
H807 H 0.01423 0.38573 0.57733 0.0
H808 H 1.00123 0.35633 0.54454 0.0
H809 H 1.00684 0.36692 0.50146 0.0
H810 H 0.64878 0.72541 0.5155 0.0
H811 H 0.6631 0.72672 0.55655 0.0
H812 H 0.67358 0.67103 0.53876 0.0
H813 H 0.65978 0.67009 0.49717 0.0
H814 H 0.64468 0.69429 0.59004 0.0
H815 H 0.73208 0.71306 0.5728 0.0
H816 H 0.71504 0.71597 0.54954 0.0
H817 H 0.71088 0.68849 0.55703 0.0
C818 C 0.65447 0.71366 0.52015 0.0
C819 C 0.65317 0.69767 0.50303 0.0
C820 C 0.66262 0.71439 0.5437 0.0
C821 C 0.66958 0.69908 0.55084 0.0
C822 C 0.66878 0.68336 0.53362 0.0
H823 H 0.70981 0.67752 0.69616 0.0
H824 H 0.69691 0.67258 0.65367 0.0
C825 C 0.66083 0.68279 0.50985 0.0
C826 C 0.67622 0.69889 0.57672 0.0
H827 H 0.71923 0.70487 0.61359 0.0
C828 C 0.66101 0.69662 0.59512 0.0
C829 C 0.69747 0.70178 0.58347 0.0
C830 C 0.71491 0.70517 0.56472 0.0
C831 C 0.66649 0.6974 0.61993 0.0
C832 C 0.68782 0.70066 0.62666 0.0
C833 C 0.70287 0.70237 0.60836 0.0
C834 C 0.69512 0.70332 0.65259 0.0
C835 C 0.64938 0.69471 0.63882 0.0
C836 C 0.6984 0.72225 0.66608 0.0
C837 C 0.70582 0.72518 0.69031 0.0
C838 C 0.71008 0.70918 0.70162 0.0
C839 C 0.70654 0.69009 0.68811 0.0
C840 C 0.69928 0.68727 0.66378 0.0
H841 H 0.63215 0.68708 0.63095 0.0
H842 H 0.64919 0.68399 0.65412 0.0
H843 H 0.65394 0.71159 0.64634 0.0
H844 H 0.69554 0.73498 0.65773 0.0
H845 H 0.70845 0.74012 0.70009 0.0
H846 H 0.3408 0.35763 0.87269 0.0
H847 H 0.34222 0.34443 0.83123 0.0
H848 H 0.39036 0.41272 0.8106 0.0
H849 H 0.38889 0.42599 0.85154 0.0
H850 H 0.33306 0.36383 0.78528 0.0
H851 H 0.41776 0.37191 0.78852 0.0
H852 H 0.40145 0.36854 0.81561 0.0
H853 H 0.41592 0.39546 0.80066 0.0
C854 C 0.35193 0.36974 0.8594 0.0
C855 C 0.36475 0.39286 0.86543 0.0
C856 C 0.35263 0.3622 0.83571 0.0
C857 C 0.36649 0.37759 0.81788 0.0
C858 C 0.3797 0.40053 0.8241 0.0
H859 H 0.40356 0.38144 0.6672 0.0
H860 H 0.39917 0.38873 0.70991 0.0
C861 C 0.37879 0.40808 0.84754 0.0
C862 C 0.3666 0.3702 0.79237 0.0
H863 H 0.40086 0.36686 0.74952 0.0
C864 C 0.34774 0.36418 0.77747 0.0
C865 C 0.38586 0.37094 0.78221 0.0
C866 C 0.40639 0.37689 0.79755 0.0
C867 C 0.34794 0.35966 0.75243 0.0
C868 C 0.36735 0.36063 0.74213 0.0
C869 C 0.386 0.36618 0.75727 0.0
C870 C 0.36897 0.35648 0.71566 0.0
C871 C 0.32771 0.35486 0.73709 0.0
C872 C 0.35339 0.33598 0.70443 0.0
C873 C 0.3557 0.33188 0.67985 0.0
C874 C 0.37387 0.34804 0.66601 0.0
C875 C 0.38933 0.36863 0.67724 0.0
C876 C 0.38689 0.37279 0.70173 0.0
H877 H 0.31729 0.36108 0.74601 0.0
H878 H 0.33285 0.36283 0.71887 0.0
H879 H 0.31702 0.33631 0.73449 0.0
H880 H 0.33974 0.32286 0.71483 0.0
H881 H 0.34364 0.31572 0.67192 0.0
H882 H 0.65336 0.03915 0.67143 0.0
H883 H 0.64895 0.02935 0.71473 0.0
H884 H 0.71 0.02588 0.7132 0.0
H885 H 0.71465 0.0358 0.66993 0.0
H886 H 0.64587 0.99101 0.73894 0.0
H887 H 0.72104 0.07087 0.7692 0.0
H888 H 0.70856 0.06757 0.73936 0.0
H889 H 0.72616 0.05561 0.74571 0.0
C890 C 0.66581 0.03618 0.68023 0.0
C891 C 0.68443 0.03838 0.66714 0.0
C892 C 0.66326 0.03059 0.70502 0.0
C893 C 0.67935 0.02728 0.71735 0.0
C894 C 0.6976 0.0288 0.7042 0.0
H895 H 0.69572 0.9973 0.86788 0.0
H896 H 0.70053 1.00738 0.82466 0.0
C897 C 0.70013 0.03431 0.67938 0.0
C898 C 0.67702 0.02226 0.74393 0.0
H899 H 0.70236 0.04279 0.79923 0.0
C900 C 0.65818 1.00236 0.75214 0.0
C901 C 0.69311 0.03706 0.76115 0.0
C902 C 0.71328 0.05908 0.75353 0.0
C903 C 0.65518 0.99664 0.77701 0.0
C904 C 0.67119 0.01151 0.79429 0.0
C905 C 0.69006 0.03141 0.78605 0.0
C906 C 0.66873 1.00662 0.82094 0.0
C907 C 0.63517 0.9744 0.78443 0.0
C908 C 0.64959 1.00352 0.83354 0.0
C909 C 0.64676 0.99769 0.85826 0.0
C910 C 0.66314 0.99507 0.87105 0.0
C911 C 0.68275 0.99916 0.85866 0.0
C912 C 0.68552 1.00489 0.83389 0.0
H913 H 0.62829 0.96236 0.76885 0.0
H914 H 0.63969 0.96637 0.79931 0.0
H915 H 0.62164 0.97743 0.79109 0.0
H916 H 0.63668 1.00536 0.82417 0.0
H917 H 0.63151 0.99484 0.86722 0.0
H918 H 0.03644 0.64591 0.86967 0.0
H919 H 0.0246 0.63868 0.82689 0.0
H920 H 0.02907 0.70387 0.82247 0.0
H921 H 0.04083 0.71125 0.86533 0.0
H922 H 0.98612 0.64031 0.80352 0.0
H923 H 0.06975 0.70226 0.76555 0.0
H924 H 0.06655 0.6911 0.79602 0.0
H925 H 0.05865 0.71195 0.78947 0.0
C926 C 0.03476 0.65867 0.8597 0.0
C927 C 0.03962 0.67918 0.87101 0.0
C928 C 0.02802 0.65452 0.83521 0.0
C929 C 0.02625 0.67086 0.82139 0.0
C930 C 0.03061 0.69114 0.8327 0.0
H931 H 0.99588 0.66972 0.66487 0.0
H932 H 1.00817 0.68188 0.70714 0.0
C933 C 0.03717 0.69525 0.85728 0.0
C934 C 0.01978 0.66652 0.79519 0.0
H935 H 0.04034 0.68188 0.7374 0.0
C936 C 0.99794 0.64943 0.78906 0.0
C937 C 0.03515 0.67861 0.77634 0.0
C938 C 0.05891 0.69695 0.782 0.0
C939 C 0.99107 0.644 0.76461 0.0
C940 C 1.00669 0.65549 0.74568 0.0
C941 C 0.0284 0.67298 0.75183 0.0
C942 C 1.00096 0.64884 0.71957 0.0
C943 C 0.967 0.62615 0.75936 0.0
C944 C 0.9937 0.62651 0.71221 0.0
C945 C 0.98658 0.61955 0.68826 0.0
C946 C 0.98692 0.63483 0.67087 0.0
C947 C 0.99544 0.65755 0.67781 0.0
C948 C 1.00238 0.66449 0.70199 0.0
H949 H 0.95574 0.62448 0.77471 0.0
H950 H 0.9606 0.63008 0.74253 0.0
H951 H 0.96605 0.60955 0.75686 0.0
H952 H 0.99313 0.61427 0.72515 0.0
H953 H 0.9804 0.60199 0.68348 0.0
H954 H 0.69171 0.7051 0.36584 0.0
H955 H 0.69673 0.69808 0.32316 0.0
H956 H 0.63035 0.63922 0.32227 0.0
H957 H 0.62503 0.6463 0.36473 0.0
H958 H 0.69634 0.6622 0.3009 0.0
H959 H 0.62762 0.67353 0.26325 0.0
H960 H 0.63812 0.68175 0.29398 0.0
H961 H 0.61821 0.65267 0.28688 0.0
C962 C 0.67819 0.6906 0.35661 0.0
C963 C 0.65791 0.67634 0.36875 0.0
C964 C 0.68107 0.68665 0.33216 0.0
C965 C 0.66373 0.66842 0.31928 0.0
C966 C 0.64374 0.65376 0.33157 0.0
H967 H 0.67046 0.6006 0.19076 0.0
H968 H 0.66832 0.61376 0.23138 0.0
C969 C 0.64082 0.65772 0.35597 0.0
C970 C 0.66668 0.66439 0.29319 0.0
H971 H 0.64262 0.6565 0.23665 0.0
C972 C 0.6847 0.66116 0.28684 0.0
C973 C 0.65177 0.66346 0.27467 0.0
C974 C 0.63298 0.66827 0.27995 0.0
C975 C 0.68766 0.6561 0.26275 0.0
C976 C 0.67197 0.65381 0.24453 0.0
C977 C 0.6545 0.65798 0.25065 0.0
C978 C 0.67277 0.64592 0.21943 0.0
C979 C 0.7076 0.65322 0.25704 0.0
C980 C 0.67518 0.65928 0.19893 0.0
C981 C 0.67628 0.65169 0.1754 0.0
C982 C 0.67482 0.63054 0.17202 0.0
C983 C 0.67185 0.61706 0.1926 0.0
C984 C 0.67076 0.62462 0.21595 0.0
H985 H 0.72137 0.66212 0.27061 0.0
H986 H 0.70229 0.63497 0.2576 0.0
H987 H 0.71431 0.6597 0.2386 0.0
H988 H 0.67655 0.6757 0.20116 0.0
H989 H 0.67851 0.66246 0.15996 0.0
H990 H 0.34272 0.03526 0.17087 0.0
H991 H 0.3372 0.02502 0.21404 0.0
H992 H 0.40183 0.02877 0.21644 0.0
H993 H 0.40771 0.03947 0.17347 0.0
H994 H 0.33556 0.98979 0.23931 0.0
H995 H 0.40782 0.07045 0.2721 0.0
H996 H 0.39725 0.0667 0.24128 0.0
H997 H 0.41556 0.05609 0.25008 0.0
C998 C 0.35573 0.0338 0.18052 0.0
C999 C 0.37574 0.03837 0.16867 0.0
C1000 C 0.35256 0.02797 0.20525 0.0
C1001 C 0.36932 0.02662 0.21871 0.0
C1002 C 0.38892 0.03032 0.20669 0.0
H1003 H 0.38171 0.9908 0.36751 0.0
H1004 H 0.38705 1.00199 0.32461 0.0
C1005 C 0.39217 0.03626 0.18201 0.0
C1006 C 0.36626 0.02132 0.24526 0.0
H1007 H 0.39012 0.04111 0.30135 0.0
C1008 C 0.34742 1.00109 0.25288 0.0
C1009 C 0.3817 0.03607 0.26303 0.0
C1010 C 0.4016 0.05865 0.25629 0.0
C1011 C 0.34388 0.99498 0.27763 0.0
C1012 C 0.35944 0.00963 0.29533 0.0
C1013 C 0.37823 0.02989 0.28776 0.0
C1014 C 0.35665 1.00403 0.32176 0.0
C1015 C 0.32379 0.97264 0.2846 0.0
C1016 C 0.3381 1.00206 0.33465 0.0
C1017 C 0.33504 0.99578 0.35926 0.0
C1018 C 0.35048 0.99133 0.37149 0.0
C1019 C 0.36944 0.99404 0.3587 0.0
C1020 C 0.37253 1.00042 0.33414 0.0
H1021 H 0.31636 0.96119 0.26862 0.0
H1022 H 0.32851 0.96396 0.29856 0.0
H1023 H 0.31066 0.97569 0.2925 0.0
H1024 H 0.32584 1.00516 0.3256 0.0
H1025 H 0.32027 0.9939 0.3685 0.0
H1026 H 0.0366 0.40066 0.36991 0.0
H1027 H 0.02503 0.39623 0.32711 0.0
H1028 H 0.03107 0.3364 0.32178 0.0
H1029 H 0.04201 0.34035 0.36475 0.0
H1030 H 0.04844 0.39782 0.28757 0.0
H1031 H 0.97068 0.31386 0.29026 0.0
H1032 H 0.98449 0.32954 0.31755 0.0
H1033 H 0.99503 0.31357 0.30183 0.0
C1034 C 0.03512 0.38634 0.35976 0.0
C1035 C 0.04011 0.37078 0.37089 0.0
C1036 C 0.02858 0.38387 0.33521 0.0
C1037 C 0.02689 0.36583 0.32115 0.0
C1038 C 0.03167 0.35016 0.33228 0.0
H1039 H 0.99762 0.33732 0.16378 0.0
H1040 H 1.01223 0.3388 0.20526 0.0
C1041 C 0.03803 0.35249 0.35691 0.0
C1042 C 0.02115 0.36416 0.29465 0.0
H1043 H 0.98374 0.32963 0.25114 0.0
C1044 C 0.03428 0.38288 0.27967 0.0
C1045 C 1.00274 0.34464 0.28415 0.0
C1046 C 0.98728 0.32434 0.2993 0.0
C1047 C 0.02942 0.3827 0.25472 0.0
C1048 C 1.01091 0.36332 0.24436 0.0
C1049 C 0.99806 0.3444 0.25909 0.0
C1050 C 1.00345 0.36319 0.21884 0.0
C1051 C 0.04401 0.40331 0.23957 0.0
C1052 C 0.9938 0.37644 0.21274 0.0
C1053 C 0.98535 0.37549 0.18929 0.0
C1054 C 0.98648 0.36138 0.17127 0.0
C1055 C 0.9967 0.34851 0.17718 0.0
C1056 C 1.00492 0.34925 0.20087 0.0
H1057 H 0.06032 0.41475 0.24873 0.0
H1058 H 0.0474 0.3983 0.22149 0.0
H1059 H 0.03507 0.41288 0.23649 0.0
H1060 H 0.99231 0.38716 0.22634 0.0
H1061 H 0.97759 0.38562 0.18539 0.0
H1062 H 0.25415 0.8601 0.42192 0.0
H1063 H 0.21809 0.84201 0.40049 0.0
H1064 H 0.24226 0.89914 0.35225 0.0
H1065 H 0.27875 0.91708 0.37303 0.0
H1066 H 0.18722 0.85586 0.39453 0.0
H1067 H 0.21791 0.84694 0.30409 0.0
H1068 H 0.23505 0.85408 0.33127 0.0
H1069 H 0.23182 0.87542 0.31559 0.0
C1070 C 0.25206 0.86877 0.40654 0.0
C1071 C 0.26968 0.89009 0.3992 0.0
C1072 C 0.23124 0.85841 0.39438 0.0
C1073 C 0.22744 0.86897 0.37445 0.0
C1074 C 0.24484 0.89036 0.36723 0.0
H1075 H 0.11252 0.83358 0.27903 0.0
H1076 H 0.14867 0.85186 0.30034 0.0
C1077 C 0.26571 0.90076 0.37937 0.0
C1078 C 0.20513 0.85774 0.36167 0.0
H1079 H 0.17981 0.83808 0.30614 0.0
C1080 C 0.18561 0.85189 0.37522 0.0
C1081 C 0.20292 0.85253 0.33644 0.0
C1082 C 0.22299 0.85736 0.321 0.0
C1083 C 0.16412 0.84141 0.36423 0.0
C1084 C 0.16191 0.83619 0.33901 0.0
C1085 C 0.18142 0.84205 0.32545 0.0
C1086 C 0.13958 0.82486 0.32627 0.0
C1087 C 0.14404 0.83655 0.37967 0.0
C1088 C 0.12232 0.80339 0.33347 0.0
C1089 C 0.10143 0.79288 0.32138 0.0
C1090 C 0.09729 0.80352 0.30165 0.0
C1091 C 0.11477 0.82492 0.29433 0.0
C1092 C 0.13562 0.83539 0.30643 0.0
H1093 H 0.1491 0.84694 0.3966 0.0
H1094 H 0.13198 0.83983 0.3694 0.0
H1095 H 0.13521 0.81848 0.38505 0.0
H1096 H 0.12503 0.79464 0.34838 0.0
H1097 H 0.08848 0.7765 0.3277 0.0
H1098 H 0.25891 0.33745 0.30978 0.0
H1099 H 0.24027 0.35516 0.33095 0.0
H1100 H 0.17645 0.2937 0.32308 0.0
H1101 H 0.19498 0.27564 0.30263 0.0
H1102 H 0.20664 0.363 0.31432 0.0
H1103 H 0.17686 0.30727 0.39525 0.0
H1104 H 0.19763 0.30786 0.37468 0.0
H1105 H 0.16822 0.29219 0.36681 0.0
C1106 C 0.24097 0.32752 0.31285 0.0
C1107 C 0.22855 0.30498 0.30446 0.0
C1108 C 0.23029 0.33777 0.32485 0.0
C1109 C 0.20696 0.32572 0.32897 0.0
C1110 C 0.19451 0.30327 0.32059 0.0
H1111 H 0.11023 0.35793 0.39441 0.0
H1112 H 0.12886 0.34026 0.37313 0.0
C1113 C 0.20515 0.29302 0.30859 0.0
C1114 C 0.19555 0.33681 0.34134 0.0
H1115 H 0.16253 0.33233 0.39006 0.0
C1116 C 0.19711 0.35636 0.33096 0.0
C1117 C 0.183 0.32815 0.36303 0.0
C1118 C 0.18145 0.30784 0.37576 0.0
C1119 C 0.18618 0.36719 0.34136 0.0
C1120 C 0.17362 0.35852 0.36304 0.0
C1121 C 0.17206 0.33897 0.37342 0.0
C1122 C 0.16222 0.3696 0.37541 0.0
C1123 C 0.18776 0.38752 0.32867 0.0
C1124 C 0.17469 0.39199 0.38397 0.0
C1125 C 0.16405 0.40221 0.39605 0.0
C1126 C 0.14064 0.39028 0.40004 0.0
C1127 C 0.12818 0.36782 0.39144 0.0
C1128 C 0.13886 0.3576 0.37938 0.0
H1129 H 0.19246 0.38818 0.30921 0.0
H1130 H 0.17156 0.38747 0.32968 0.0
H1131 H 0.20092 0.40315 0.33772 0.0
H1132 H 0.19276 0.40152 0.38158 0.0
H1133 H 0.17425 0.41954 0.40218 0.0
H1134 H 0.7445 0.91847 0.2802 0.0
H1135 H 0.7263 0.88201 0.301 0.0
H1136 H 0.69033 0.90466 0.34664 0.0
H1137 H 0.70855 0.94125 0.32608 0.0
H1138 H 0.72708 0.87173 0.34979 0.0
H1139 H 0.6397 0.84464 0.32049 0.0
H1140 H 0.66394 0.86806 0.3066 0.0
H1141 H 0.65374 0.87171 0.33544 0.0
C1142 C 0.73283 0.91584 0.29473 0.0
C1143 C 0.72801 0.93297 0.30127 0.0
C1144 C 0.72233 0.89486 0.30657 0.0
C1145 C 0.70663 0.89035 0.32516 0.0
C1146 C 0.70195 0.90745 0.33196 0.0
H1147 H 0.62554 0.77534 0.41909 0.0
H1148 H 0.64447 0.81185 0.39847 0.0
C1149 C 0.71244 0.92846 0.32014 0.0
C1150 C 0.69549 0.86793 0.33768 0.0
H1151 H 0.64414 0.8219 0.35015 0.0
C1152 C 0.70895 0.86078 0.34977 0.0
C1153 C 0.67181 0.85359 0.33771 0.0
C1154 C 0.65643 0.85973 0.32419 0.0
C1155 C 0.69941 0.84002 0.36226 0.0
C1156 C 0.67572 0.82569 0.36232 0.0
C1157 C 0.66227 0.83283 0.35018 0.0
C1158 C 0.66449 0.80335 0.37503 0.0
C1159 C 0.71479 0.83392 0.37584 0.0
C1160 C 0.6692 0.78616 0.36867 0.0
C1161 C 0.6583 0.76513 0.38044 0.0
C1162 C 0.64226 0.76067 0.39874 0.0
C1163 C 0.63754 0.77793 0.40495 0.0
C1164 C 0.64846 0.79894 0.39321 0.0
H1165 H 0.73148 0.84904 0.37959 0.0
H1166 H 0.70725 0.82556 0.39341 0.0
H1167 H 0.71755 0.82198 0.36461 0.0
H1168 H 0.68107 0.78887 0.35431 0.0
H1169 H 0.66215 0.75223 0.37482 0.0
H1170 H 0.83428 0.11295 0.26376 0.0
H1171 H 0.85285 0.14884 0.24198 0.0
H1172 H 0.80253 0.12034 0.18529 0.0
H1173 H 0.78391 0.08421 0.20677 0.0
H1174 H 0.87113 0.15858 0.19502 0.0
H1175 H 0.80225 0.17852 0.2033 0.0
H1176 H 0.80325 0.15695 0.22136 0.0
H1177 H 0.79383 0.15127 0.19019 0.0
C1178 C 0.82714 0.11411 0.2466 0.0
C1179 C 0.80742 0.09544 0.23719 0.0
C1180 C 0.83779 0.1348 0.23419 0.0
C1181 C 0.82897 0.13749 0.21214 0.0
C1182 C 0.80944 0.1189 0.20253 0.0
H1183 H 0.86771 0.24818 0.11001 0.0
H1184 H 0.84972 0.21238 0.13199 0.0
C1185 C 0.79877 0.09816 0.21491 0.0
C1186 C 0.84045 0.15961 0.19906 0.0
H1187 H 0.83287 0.20252 0.17798 0.0
C1188 C 0.8628 0.16824 0.19139 0.0
C1189 C 0.82962 0.17226 0.19426 0.0
C1190 C 0.80599 0.16444 0.20287 0.0
C1191 C 0.87439 0.18883 0.17865 0.0
C1192 C 0.86356 0.2015 0.17386 0.0
C1193 C 0.84123 0.19288 0.1816 0.0
C1194 C 0.87491 0.22353 0.16053 0.0
C1195 C 0.89793 0.19647 0.16984 0.0
C1196 C 0.89504 0.24201 0.16927 0.0
C1197 C 0.90543 0.26265 0.15668 0.0
C1198 C 0.89581 0.26542 0.13516 0.0
C1199 C 0.87554 0.24691 0.12662 0.0
C1200 C 0.86523 0.2263 0.13915 0.0
H1201 H 0.90138 0.1822 0.16896 0.0
H1202 H 0.90076 0.20428 0.15152 0.0
H1203 H 0.91024 0.20929 0.18271 0.0
H1204 H 0.9026 0.24058 0.18603 0.0
H1205 H 0.92078 0.27655 0.16408 0.0
H1206 H 0.78302 0.62711 0.10477 0.0
H1207 H 0.81874 0.64473 0.12686 0.0
H1208 H 0.79215 0.67256 0.17899 0.0
H1209 H 0.75601 0.65426 0.15756 0.0
H1210 H 0.84852 0.68906 0.13646 0.0
H1211 H 0.81699 0.64307 0.2236 0.0
H1212 H 0.80033 0.63455 0.19602 0.0
H1213 H 0.80265 0.65771 0.21402 0.0
C1214 C 0.78452 0.63667 0.12111 0.0
C1215 C 0.7663 0.63897 0.12936 0.0
C1216 C 0.80514 0.64693 0.13367 0.0
C1217 C 0.80816 0.65971 0.15489 0.0
C1218 C 0.79018 0.66238 0.163 0.0
H1219 H 0.92052 0.73595 0.25468 0.0
H1220 H 0.8848 0.71843 0.23254 0.0
C1221 C 0.76951 0.65209 0.15048 0.0
C1222 C 0.83024 0.67054 0.16815 0.0
H1223 H 0.85474 0.67342 0.2235 0.0
C1224 C 0.84987 0.68554 0.15547 0.0
C1225 C 0.83212 0.66602 0.19299 0.0
C1226 C 0.81195 0.64931 0.20743 0.0
C1227 C 0.87114 0.69641 0.16697 0.0
C1228 C 0.873 0.6919 0.1918 0.0
C1229 C 0.85338 0.67692 0.20449 0.0
C1230 C 0.89508 0.70272 0.20504 0.0
C1231 C 0.89134 0.71306 0.15254 0.0
C1232 C 0.91287 0.69962 0.19722 0.0
C1233 C 0.93351 0.70979 0.2098 0.0
C1234 C 0.93687 0.72327 0.23064 0.0
C1235 C 0.91887 0.72609 0.23855 0.0
C1236 C 0.89827 0.7159 0.22597 0.0
H1237 H 0.88636 0.71912 0.13618 0.0
H1238 H 0.90285 0.72792 0.16389 0.0
H1239 H 0.90075 0.70467 0.14626 0.0
H1240 H 0.91076 0.68917 0.18142 0.0
H1241 H 0.94687 0.70725 0.20301 0.0
H1242 H 0.32487 0.25058 0.20657 0.0
H1243 H 0.34262 0.23194 0.18541 0.0
H1244 H 0.31348 0.17719 0.23695 0.0
H1245 H 0.29574 0.19564 0.25817 0.0
H1246 H 0.37322 0.21994 0.20149 0.0
H1247 H 0.29465 0.14299 0.17284 0.0
H1248 H 0.29488 0.16788 0.18444 0.0
H1249 H 0.29629 0.14816 0.20507 0.0
C1250 C 0.32226 0.23462 0.2135 0.0
C1251 C 0.30863 0.22461 0.23406 0.0
C1252 C 0.33238 0.2239 0.20128 0.0
C1253 C 0.32908 0.20288 0.20923 0.0
C1254 C 0.31582 0.19305 0.22997 0.0
H1255 H 0.3788 0.11285 0.16393 0.0
H1256 H 0.36098 0.13146 0.18493 0.0
C1257 C 0.30566 0.2037 0.24215 0.0
C1258 C 0.33991 0.1915 0.19623 0.0
H1259 H 0.32872 0.14234 0.16743 0.0
C1260 C 0.36346 0.20303 0.19392 0.0
C1261 C 0.32724 0.16937 0.18634 0.0
C1262 C 0.30186 0.15644 0.18705 0.0
C1263 C 0.37466 0.19294 0.18249 0.0
C1264 C 0.362 0.17079 0.17271 0.0
C1265 C 0.33846 0.15926 0.17499 0.0
C1266 C 0.37285 0.15943 0.15978 0.0
C1267 C 0.40003 0.20591 0.18148 0.0
C1268 C 0.3852 0.16868 0.13837 0.0
C1269 C 0.3953 0.15799 0.12617 0.0
C1270 C 0.3933 0.13766 0.13499 0.0
C1271 C 0.38066 0.12831 0.15635 0.0
C1272 C 0.3705 0.13901 0.16851 0.0
H1273 H 0.40738 0.21988 0.1951 0.0
H1274 H 0.40704 0.19457 0.18473 0.0
H1275 H 0.4054 0.21345 0.16311 0.0
H1276 H 0.38684 0.18411 0.1309 0.0
H1277 H 0.40442 0.16559 0.10959 0.0
H1278 H 0.77553 0.16937 0.61905 0.0
H1279 H 0.81172 0.18763 0.64024 0.0
H1280 H 0.796 0.12391 0.67254 0.0
H1281 H 0.76018 0.10524 0.65061 0.0
H1282 H 0.82264 0.19276 0.68806 0.0
H1283 H 0.85715 0.14326 0.6444 0.0
H1284 H 0.83196 0.14253 0.63347 0.0
H1285 H 0.83083 0.12593 0.65943 0.0
C1286 C 0.77976 0.15907 0.63038 0.0
C1287 C 0.76477 0.13563 0.63272 0.0
C1288 C 0.80051 0.16965 0.64268 0.0
C1289 C 0.80693 0.15714 0.65767 0.0
C1290 C 0.79179 0.1339 0.66063 0.0
H1291 H 0.92406 0.19123 0.74881 0.0
H1292 H 0.8876 0.17306 0.72818 0.0
C1293 C 0.77105 0.12326 0.64824 0.0
C1294 C 0.82931 0.16853 0.67034 0.0
H1295 H 0.8782 0.16707 0.67748 0.0
C1296 C 0.83481 0.18719 0.68563 0.0
C1297 C 0.84533 0.16137 0.66722 0.0
C1298 C 0.84116 0.14233 0.65006 0.0
C1299 C 0.85556 0.19853 0.69814 0.0
C1300 C 0.87148 0.19126 0.69512 0.0
C1301 C 0.86601 0.17263 0.67987 0.0
C1302 C 0.89384 0.20266 0.70772 0.0
C1303 C 0.8601 0.21793 0.71491 0.0
C1304 C 0.90975 0.22538 0.70296 0.0
C1305 C 0.93085 0.23587 0.71461 0.0
C1306 C 0.93662 0.22389 0.73132 0.0
C1307 C 0.92057 0.20107 0.73594 0.0
C1308 C 0.89954 0.19061 0.72421 0.0
H1309 H 0.84439 0.21796 0.71972 0.0
H1310 H 0.86848 0.2172 0.73197 0.0
H1311 H 0.87149 0.23414 0.70569 0.0
H1312 H 0.90597 0.23495 0.68995 0.0
H1313 H 0.94272 0.25327 0.71015 0.0
H1314 H 0.86265 0.61324 0.63208 0.0
H1315 H 0.84484 0.63173 0.65308 0.0
H1316 H 0.90987 0.69066 0.66545 0.0
H1317 H 0.92782 0.67266 0.64363 0.0
H1318 H 0.84912 0.64729 0.69959 0.0
H1319 H 0.87569 0.71882 0.63547 0.0
H1320 H 0.87837 0.69443 0.62841 0.0
H1321 H 0.89868 0.71648 0.6479 0.0
C1322 C 0.87325 0.63024 0.63894 0.0
C1323 C 0.89678 0.64144 0.63576 0.0
C1324 C 0.86298 0.64077 0.65116 0.0
C1325 C 0.87589 0.66281 0.6605 0.0
C1326 C 0.89942 0.67387 0.65793 0.0
H1327 H 0.84352 0.75326 0.74116 0.0
H1328 H 0.86192 0.73518 0.7203 0.0
C1329 C 0.90973 0.66337 0.64565 0.0
C1330 C 0.86469 0.67398 0.67319 0.0
H1331 H 0.85801 0.72047 0.67192 0.0
C1332 C 0.85101 0.66325 0.69345 0.0
C1333 C 0.86708 0.69483 0.66525 0.0
C1334 C 0.88057 0.70674 0.64294 0.0
C1335 C 0.84001 0.6729 0.70616 0.0
C1336 C 0.84242 0.69375 0.69824 0.0
C1337 C 0.85614 0.70452 0.67803 0.0
C1338 C 0.83099 0.70472 0.71076 0.0
C1339 C 0.82629 0.66092 0.72833 0.0
C1340 C 0.80739 0.69385 0.71209 0.0
C1341 C 0.79677 0.70415 0.72411 0.0
C1342 C 0.80949 0.72563 0.73509 0.0
C1343 C 0.83313 0.73661 0.73332 0.0
C1344 C 0.84371 0.72633 0.72124 0.0
H1345 H 0.83074 0.64846 0.73561 0.0
H1346 H 0.82872 0.67319 0.743 0.0
H1347 H 0.80818 0.65164 0.72328 0.0
H1348 H 0.79713 0.67737 0.70378 0.0
H1349 H 0.77859 0.69507 0.72515 0.0
H1350 H 0.29909 0.11304 0.76331 0.0
H1351 H 0.31658 0.1489 0.74156 0.0
H1352 H 0.34203 0.12134 0.68781 0.0
H1353 H 0.32432 0.08515 0.70931 0.0
H1354 H 0.37437 0.16481 0.70433 0.0
H1355 H 0.29545 0.16306 0.6775 0.0
H1356 H 0.29778 0.15926 0.70954 0.0
H1357 H 0.29586 0.13828 0.68826 0.0
C1358 C 0.3081 0.11434 0.74671 0.0
C1359 C 0.31001 0.09588 0.73809 0.0
C1360 C 0.31815 0.13499 0.73425 0.0
C1361 C 0.33034 0.1378 0.71277 0.0
C1362 C 0.33263 0.1196 0.70427 0.0
H1363 H 0.40606 0.25006 0.61273 0.0
H1364 H 0.38862 0.21407 0.6343 0.0
C1365 C 0.32253 0.09888 0.7167 0.0
C1366 C 0.34104 0.15984 0.69952 0.0
H1367 H 0.32953 0.1974 0.67071 0.0
C1368 C 0.36455 0.17187 0.69686 0.0
C1369 C 0.32829 0.16917 0.68983 0.0
C1370 C 0.30293 0.15672 0.69119 0.0
C1371 C 0.37564 0.19308 0.68526 0.0
C1372 C 0.36289 0.20241 0.67553 0.0
C1373 C 0.33937 0.19036 0.67818 0.0
C1374 C 0.37357 0.22451 0.66234 0.0
C1375 C 0.40101 0.20557 0.68412 0.0
C1376 C 0.37049 0.24236 0.6704 0.0
C1377 C 0.38047 0.2631 0.658 0.0
C1378 C 0.3937 0.26648 0.63714 0.0
C1379 C 0.39646 0.24841 0.62896 0.0
C1380 C 0.38646 0.22771 0.64133 0.0
H1381 H 0.40841 0.19947 0.69817 0.0
H1382 H 0.40631 0.20272 0.66598 0.0
H1383 H 0.40806 0.22406 0.68667 0.0
H1384 H 0.36054 0.24034 0.68648 0.0
H1385 H 0.37803 0.27656 0.66501 0.0
H1386 H 0.19629 0.91875 0.78122 0.0
H1387 H 0.17799 0.88242 0.8023 0.0
H1388 H 0.23768 0.90363 0.84588 0.0
H1389 H 0.25591 0.94028 0.82538 0.0
H1390 H 0.19035 0.84935 0.80561 0.0
H1391 H 0.1886 0.88254 0.89751 0.0
H1392 H 0.19444 0.89936 0.8703 0.0
H1393 H 0.21605 0.89537 0.88401 0.0
C1394 C 0.2055 0.91588 0.79546 0.0
C1395 C 0.22761 0.9327 0.80163 0.0
C1396 C 0.19502 0.89495 0.80742 0.0
C1397 C 0.20626 0.89032 0.82599 0.0
C1398 C 0.22844 0.9069 0.83196 0.0
H1399 H 0.17136 0.77554 0.92113 0.0
H1400 H 0.18961 0.81144 0.89943 0.0
C1401 C 0.23897 0.92783 0.81997 0.0
C1402 C 0.19487 0.86805 0.8388 0.0
H1403 H 0.17766 0.8437 0.89488 0.0
C1404 C 0.18749 0.84811 0.82512 0.0
C1405 C 0.19113 0.86636 0.86428 0.0
C1406 C 0.19776 0.88701 0.87991 0.0
C1407 C 0.17693 0.82665 0.83622 0.0
C1408 C 0.17315 0.82495 0.86171 0.0
C1409 C 0.18052 0.84491 0.87538 0.0
C1410 C 0.16184 0.8027 0.87463 0.0
C1411 C 0.17049 0.80606 0.82058 0.0
C1412 C 0.13996 0.78571 0.86821 0.0
C1413 C 0.12947 0.76492 0.88049 0.0
C1414 C 0.14052 0.76063 0.89969 0.0
C1415 C 0.16234 0.77787 0.90625 0.0
C1416 C 0.17281 0.7986 0.89393 0.0
H1417 H 0.18005 0.81059 0.80323 0.0
H1418 H 0.17349 0.79356 0.83035 0.0
H1419 H 0.15232 0.79787 0.81596 0.0
H1420 H 0.13087 0.78856 0.85377 0.0
H1421 H 0.11276 0.75219 0.87473 0.0
H1422 H 0.10173 0.27488 0.79994 0.0
H1423 H 0.13789 0.29264 0.82135 0.0
H1424 H 0.13444 0.35362 0.83043 0.0
H1425 H 0.09824 0.33596 0.80905 0.0
H1426 H 0.17761 0.33017 0.8097 0.0
H1427 H 0.14871 0.34344 0.89926 0.0
H1428 H 0.12939 0.3255 0.87591 0.0
H1429 H 0.14163 0.35573 0.87432 0.0
C1430 C 0.1086 0.29207 0.80645 0.0
C1431 C 0.09687 0.30389 0.80272 0.0
C1432 C 0.12932 0.30221 0.8188 0.0
C1433 C 0.13887 0.3244 0.82789 0.0
C1434 C 0.12725 0.33629 0.82418 0.0
H1435 H 0.26458 0.4173 0.90154 0.0
H1436 H 0.22829 0.39908 0.88046 0.0
C1437 C 0.10647 0.32614 0.81188 0.0
C1438 C 0.16125 0.33526 0.84051 0.0
H1439 H 0.18826 0.36106 0.89366 0.0
C1440 C 0.17989 0.3368 0.82811 0.0
C1441 C 0.16435 0.34398 0.86456 0.0
C1442 C 0.14493 0.34192 0.87941 0.0
C1443 C 0.20149 0.34717 0.83884 0.0
C1444 C 0.20459 0.35596 0.86285 0.0
C1445 C 0.18596 0.35439 0.87526 0.0
C1446 C 0.22701 0.36701 0.87536 0.0
C1447 C 0.22092 0.34911 0.82411 0.0
C1448 C 0.23849 0.35509 0.87976 0.0
C1449 C 0.25932 0.36548 0.89197 0.0
C1450 C 0.26915 0.38803 0.90027 0.0
C1451 C 0.25756 0.39988 0.89578 0.0
C1452 C 0.23676 0.38948 0.88359 0.0
H1453 H 0.21703 0.34704 0.80428 0.0
H1454 H 0.23634 0.36573 0.82722 0.0
H1455 H 0.22453 0.33564 0.82976 0.0
H1456 H 0.23116 0.33759 0.87409 0.0
H1457 H 0.26743 0.35562 0.89535 0.0
H1458 H 0.74803 0.84015 0.78138 0.0
H1459 H 0.72994 0.85841 0.80243 0.0
H1460 H 0.69148 0.7984 0.84537 0.0
H1461 H 0.70999 0.78023 0.82498 0.0
H1462 H 0.6849 0.84593 0.80498 0.0
H1463 H 0.71828 0.84745 0.89759 0.0
H1464 H 0.72954 0.84158 0.87064 0.0
H1465 H 0.70384 0.81984 0.88385 0.0
C1466 C 0.73597 0.83086 0.79551 0.0
C1467 C 0.73069 0.80866 0.80149 0.0
C1468 C 0.72548 0.84132 0.80744 0.0
C1469 C 0.70956 0.82997 0.8258 0.0
C1470 C 0.70402 0.80773 0.83163 0.0
H1471 H 0.62768 0.86323 0.91923 0.0
H1472 H 0.64591 0.8454 0.89779 0.0
C1473 C 0.71448 0.79723 0.8197 0.0
C1474 C 0.69849 0.84126 0.83845 0.0
H1475 H 0.69018 0.85794 0.89449 0.0
C1476 C 0.68615 0.84865 0.82454 0.0
C1477 C 0.70004 0.84483 0.864 0.0
C1478 C 0.7138 0.83822 0.87991 0.0
C1479 C 0.67499 0.85902 0.83546 0.0
C1480 C 0.67654 0.86258 0.86103 0.0
C1481 C 0.68893 0.85523 0.87492 0.0
C1482 C 0.66526 0.87363 0.87378 0.0
C1483 C 0.66112 0.86547 0.81954 0.0
C1484 C 0.67014 0.89564 0.86771 0.0
C1485 C 0.65952 0.90588 0.87984 0.0
C1486 C 0.64385 0.89446 0.89854 0.0
C1487 C 0.63927 0.87252 0.90475 0.0
C1488 C 0.64986 0.8623 0.89257 0.0
H1489 H 0.65651 0.85606 0.80197 0.0
H1490 H 0.64544 0.8622 0.82889 0.0
H1491 H 0.67106 0.8838 0.81537 0.0
H1492 H 0.68231 0.905 0.85367 0.0
H1493 H 0.6635 0.92269 0.87436 0.0
H1494 H 0.44328 0.42916 0.56203 0.0
H1495 H 0.46186 0.4655 0.54089 0.0
H1496 H 0.52538 0.46719 0.54661 0.0
H1497 H 0.50688 0.4306 0.56705 0.0
H1498 H 0.49639 0.507 0.55725 0.0
H1499 H 0.52342 0.48017 0.4746 0.0
H1500 H 0.50292 0.46017 0.49552 0.0
H1501 H 0.53246 0.47363 0.50262 0.0
C1502 C 0.46113 0.43702 0.5585 0.0
C1503 C 0.47347 0.42671 0.56628 0.0
C1504 C 0.47179 0.45795 0.54652 0.0
C1505 C 0.49501 0.46904 0.5418 0.0
C1506 C 0.50739 0.45885 0.54957 0.0
H1507 H 0.59054 0.5976 0.47408 0.0
H1508 H 0.5725 0.56143 0.49564 0.0
C1509 C 0.49677 0.43796 0.56157 0.0
C1510 C 0.50639 0.49154 0.52945 0.0
H1511 H 0.53812 0.51967 0.47984 0.0
C1512 C 0.50541 0.50973 0.54026 0.0
C1513 C 0.51829 0.49521 0.5073 0.0
C1514 C 0.51921 0.47624 0.49417 0.0
C1515 C 0.51625 0.53146 0.52981 0.0
C1516 C 0.5281 0.53512 0.50763 0.0
C1517 C 0.52912 0.51695 0.49685 0.0
C1518 C 0.5392 0.55754 0.49511 0.0
C1519 C 0.51533 0.55043 0.54296 0.0
C1520 C 0.52656 0.56747 0.48744 0.0
C1521 C 0.53686 0.58825 0.47522 0.0
C1522 C 0.5601 0.59963 0.47015 0.0
C1523 C 0.57273 0.58962 0.47787 0.0
C1524 C 0.56238 0.56879 0.49008 0.0
H1525 H 0.51137 0.54658 0.56258 0.0
H1526 H 0.53154 0.56656 0.5414 0.0
H1527 H 0.5019 0.55287 0.5347 0.0
H1528 H 0.5086 0.55901 0.49064 0.0
H1529 H 0.52655 0.59539 0.4698 0.0
H1530 H 0.58894 0.07407 0.58919 0.0
H1531 H 0.55226 0.05565 0.56881 0.0
H1532 H 0.57357 0.0184 0.52313 0.0
H1533 H 0.6103 0.03675 0.54338 0.0
H1534 H 0.54088 0.05585 0.52089 0.0
H1535 H 0.51433 0.96806 0.54896 0.0
H1536 H 0.53811 0.99237 0.56261 0.0
H1537 H 0.54088 0.9818 0.53353 0.0
C1538 C 0.58594 0.06204 0.57476 0.0
C1539 C 0.60273 0.05689 0.56812 0.0
C1540 C 0.56485 0.05143 0.56315 0.0
C1541 C 0.55989 0.03529 0.54467 0.0
C1542 C 0.57668 0.03031 0.53775 0.0
H1543 H 0.44551 0.95559 0.44889 0.0
H1544 H 0.48168 0.97413 0.4701 0.0
C1545 C 0.59777 0.04089 0.54938 0.0
C1546 C 0.53737 0.02408 0.53232 0.0
H1547 H 0.49152 0.97244 0.51924 0.0
C1548 C 0.53004 0.03762 0.52067 0.0
C1549 C 0.52313 1.00026 0.53197 0.0
C1550 C 0.52937 0.98476 0.54513 0.0
C1551 C 0.50922 0.02803 0.50829 0.0
C1552 C 0.49506 1.00421 0.50782 0.0
C1553 C 0.50234 0.99068 0.51953 0.0
C1554 C 0.47278 0.99297 0.49502 0.0
C1555 C 0.50283 0.04348 0.49527 0.0
C1556 C 0.45545 0.99708 0.50207 0.0
C1557 C 0.43453 0.98633 0.49002 0.0
C1558 C 0.43036 0.97109 0.47065 0.0
C1559 C 0.44779 0.96693 0.46381 0.0
C1560 C 0.46864 0.97764 0.47589 0.0
H1561 H 0.51767 0.0605 0.49217 0.0
H1562 H 0.49476 0.03618 0.47741 0.0
H1563 H 0.49061 0.04562 0.50653 0.0
H1564 H 0.45799 1.00844 0.51711 0.0
H1565 H 0.42156 0.98976 0.49618 0.0
H1566 H 0.09176 0.50359 0.47483 0.0
H1567 H 0.07383 0.52224 0.49541 0.0
H1568 H 1.01005 0.46018 0.49247 0.0
H1569 H 0.02785 0.44138 0.47189 0.0
H1570 H 0.04007 0.52946 0.48007 0.0
H1571 H 0.01314 0.47718 0.56365 0.0
H1572 H 0.03282 0.47652 0.54238 0.0
H1573 H 1.00308 0.46088 0.53608 0.0
C1574 C 0.07391 0.49385 0.47848 0.0
C1575 C 0.06134 0.47087 0.47166 0.0
C1576 C 0.06367 0.50457 0.49038 0.0
C1577 C 0.04061 0.4926 0.4959 0.0
C1578 C 0.02796 0.4697 0.48902 0.0
H1579 H 0.94608 0.52779 0.56002 0.0
H1580 H 0.96468 0.50946 0.54032 0.0
C1581 C 0.03821 0.45894 0.47718 0.0
C1582 C 0.02974 0.50429 0.50818 0.0
H1583 H 0.99883 0.50222 0.55799 0.0
C1584 C 0.03117 0.52356 0.49718 0.0
C1585 C 0.01808 0.49667 0.53054 0.0
C1586 C 0.01683 0.47681 0.54401 0.0
C1587 C 0.02093 0.53507 0.50759 0.0
C1588 C 1.00918 0.52737 0.52987 0.0
C1589 C 1.00778 0.50813 0.5409 0.0
C1590 C 0.99802 0.53885 0.54191 0.0
C1591 C 0.02231 0.55506 0.4943 0.0
C1592 C 1.01052 0.56149 0.54968 0.0
C1593 C 0.99992 0.57208 0.56117 0.0
C1594 C 0.97652 0.56024 0.56529 0.0
C1595 C 0.9641 0.53749 0.55753 0.0
C1596 C 0.97473 0.52694 0.5461 0.0
H1597 H 0.02681 0.55528 0.47483 0.0
H1598 H 1.00607 0.55493 0.49528 0.0
H1599 H 0.03549 0.57092 0.50295 0.0
H1600 H 0.02858 0.57095 0.54716 0.0
H1601 H 1.01019 0.58943 0.56716 0.0
H1602 H 0.43399 0.43846 0.96998 0.0
H1603 H 0.47047 0.45657 0.99089 0.0
H1604 H 0.46858 0.51864 0.9962 0.0
H1605 H 0.43189 0.50055 0.97609 0.0
H1606 H 0.51077 0.49401 0.9775 0.0
H1607 H 0.48271 0.51034 0.06607 0.0
H1608 H 0.46319 0.49148 0.04338 0.0
H1609 H 0.47527 0.5216 0.04043 0.0
C1610 C 0.44111 0.45586 0.97587 0.0
C1611 C 0.42974 0.46791 0.97132 0.0
C1612 C 0.46212 0.46627 0.98772 0.0
C1613 C 0.47222 0.48892 0.99551 0.0
C1614 C 0.46102 0.50104 0.99085 0.0
H1615 H 0.59885 0.58391 0.0671 0.0
H1616 H 0.5623 0.56541 0.04637 0.0
C1617 C 0.44005 0.49068 0.97901 0.0
C1618 C 0.4947 0.50005 1.00793 0.0
H1619 H 0.52221 0.52787 0.0601 0.0
C1620 C 0.51323 0.50129 0.99563 0.0
C1621 C 0.49802 0.50966 0.03157 0.0
C1622 C 0.47872 0.50806 0.04626 0.0
C1623 C 0.53496 0.5122 1.00605 0.0
C1624 C 0.53829 0.52184 0.02968 0.0
C1625 C 0.51975 0.52058 0.04199 0.0
C1626 C 0.5608 0.53316 0.04201 0.0
C1627 C 0.55427 0.51382 0.99136 0.0
C1628 C 0.57217 0.52123 0.04677 0.0
C1629 C 0.59319 0.53181 0.05853 0.0
C1630 C 0.60339 0.55463 0.066 0.0
C1631 C 0.59182 0.56648 0.06137 0.0
C1632 C 0.57077 0.55585 0.04962 0.0
H1633 H 0.55023 0.51137 0.97157 0.0
H1634 H 0.56974 0.53047 0.99411 0.0
H1635 H 0.55785 0.5004 0.99734 0.0
H1636 H 0.56471 0.5036 0.04156 0.0
H1637 H 0.6015 0.52209 0.06153 0.0
H1638 H 0.58935 0.99079 0.99743 0.0
H1639 H 0.57106 0.00864 0.01906 0.0
H1640 H 0.51537 0.9783 0.96853 0.0
H1641 H 0.53352 0.96063 0.94667 0.0
H1642 H 0.55773 0.03899 1.00202 0.0
H1643 H 0.48378 0.95993 0.03446 0.0
H1644 H 0.50866 0.96063 0.02263 0.0
H1645 H 0.48813 0.96063 1.00215 0.0
C1646 C 0.57327 0.98794 0.99078 0.0
C1647 C 0.56295 0.97402 0.97026 0.0
C1648 C 0.56276 0.99813 1.00328 0.0
C1649 C 0.54161 0.99453 0.99573 0.0
C1650 C 0.5314 0.98091 0.97513 0.0
H1651 H 0.44996 0.04064 0.04408 0.0
H1652 H 0.46867 0.02296 0.02299 0.0
C1653 C 0.54188 0.97077 0.9626 0.0
C1654 C 0.53043 1.00539 1.00902 0.0
H1655 H 0.48255 0.99384 0.03984 0.0
C1656 C 0.54136 0.02911 1.01042 0.0
C1657 C 0.50899 0.99255 0.01992 0.0
C1658 C 0.49675 0.96703 0.01996 0.0
C1659 C 0.53129 0.04031 0.02193 0.0
C1660 C 0.50984 0.02747 0.03284 0.0
C1661 C 0.49894 1.00374 0.03147 0.0
C1662 C 0.49846 0.0383 0.04583 0.0
C1663 C 0.54348 0.06583 0.02169 0.0
C1664 C 0.50872 0.05258 0.066 0.0
C1665 C 0.49801 0.06269 0.07817 0.0
C1666 C 0.47665 0.05866 0.07063 0.0
C1667 C 0.46627 0.04406 0.05061 0.0
C1668 C 0.47702 0.03398 0.03842 0.0
H1669 H 0.55628 0.07284 1.00702 0.0
H1670 H 0.53153 0.07219 0.01913 0.0
H1671 H 0.55231 0.07236 0.03937 0.0
H1672 H 0.52496 0.05574 0.07254 0.0
H1673 H 0.5064 0.07341 0.09374 0.0
H1674 H 0.09054 0.59683 0.97152 0.0
H1675 H 0.07247 0.5601 0.99182 0.0
H1676 H 1.01046 0.56157 0.9958 0.0
H1677 H 0.02821 0.59805 0.97493 0.0
H1678 H 0.05197 0.54755 0.03757 0.0
H1679 H 0.99047 0.50001 0.96393 0.0
H1680 H 0.01446 0.52783 0.95933 0.0
H1681 H 0.98986 0.52463 0.97455 0.0
C1682 C 0.073 0.58931 0.97647 0.0
C1683 C 0.06086 0.60048 0.9713 0.0
C1684 C 0.06271 0.56831 0.98826 0.0
C1685 C 0.03997 0.55781 0.99503 0.0
C1686 C 0.0279 0.56907 0.99037 0.0
H1687 H 0.94656 0.43007 0.06381 0.0
H1688 H 0.96514 0.46708 0.04441 0.0
C1689 C 0.03819 0.59013 0.97863 0.0
C1690 C 0.02902 0.53519 1.00712 0.0
H1691 H 0.98628 0.48045 1.00088 0.0
C1692 C 0.03766 0.53285 0.0295 0.0
C1693 C 1.01032 0.51597 0.99665 0.0
C1694 C 1.00081 0.51708 0.97219 0.0
C1695 C 0.02787 0.51203 0.0419 0.0
C1696 C 1.00917 0.49277 0.03141 0.0
C1697 C 1.00058 0.49513 1.00899 0.0
C1698 C 0.99806 0.47012 0.04349 0.0
C1699 C 0.03728 0.51105 0.06647 0.0
C1700 C 1.01021 0.45914 0.04927 0.0
C1701 C 0.99963 0.43792 0.06067 0.0
C1702 C 0.97654 0.427 0.06643 0.0
C1703 C 0.96438 0.43793 0.06018 0.0
C1704 C 0.97499 0.45914 0.04885 0.0
H1705 H 0.0471 0.52811 0.07489 0.0
H1706 H 0.02365 0.49991 0.07915 0.0
H1707 H 0.04876 0.50411 0.0642 0.0
H1708 H 0.02791 0.46693 0.04485 0.0
H1709 H 1.00969 0.43026 0.06517 0.0
loop_
_geom_bond_atom_site_label_1
_geom_bond_atom_site_label_2
_geom_bond_distance
_geom_bond_site_symmetry_2
_ccdc_geom_bond_type
Cu0 N1 1.999 . S
Cu0 O6 1.974 1_455 S
Cu0 N11 1.985 1_455 S
Cu0 O20 1.959 . S
N1 Cu0 1.999 . S
N1 C3 1.263 . S
N1 C5 1.389 . S
N2 C3 1.358 . S
N2 C4 1.400 . S
C3 N1 1.263 . S
C3 N2 1.358 . S
C3 H9 0.930 . S
C4 N2 1.400 . S
C4 C5 1.351 . S
C4 H21 0.930 . S
C5 N1 1.389 . S
C5 C4 1.351 . S
C5 H10 0.930 . S
O6 Cu0 1.974 1_655 S
O6 C16 1.282 . S
C7 O8 1.261 . S
C7 O20 1.251 . S
O8 C7 1.261 . S
H9 C3 0.930 . S
H10 C5 0.930 . S
N11 Cu0 1.985 1_655 S
N11 C13 1.335 . S
N11 C14 1.390 . S
N12 C13 1.345 . S
N12 C15 1.336 . S
C13 N11 1.335 . S
C13 N12 1.345 . S
C13 H18 0.930 . S
C14 N11 1.390 . S
C14 C15 1.346 . S
C14 H19 0.930 . S
C15 N12 1.336 . S
C15 C14 1.346 . S
C15 H22 0.929 . S
C16 O6 1.282 . S
C16 O17 1.216 . S
O17 C16 1.216 . S
H18 C13 0.930 . S
H19 C14 0.930 . S
O20 Cu0 1.959 . S
O20 C7 1.251 . S
H21 C4 0.930 . S
H22 C15 0.929 . S
Cu23 N24 1.999 . S
Cu23 O29 1.974 . S
Cu23 N34 1.985 . S
Cu23 O43 1.959 . S
N24 Cu23 1.999 . S
N24 C26 1.263 . S
N24 C28 1.389 . S
N25 C26 1.358 . S
N25 C27 1.400 . S
C26 N24 1.263 . S
C26 N25 1.358 . S
C26 H32 0.930 . S
C27 N25 1.400 . S
C27 C28 1.351 . S
C27 H44 0.930 . S
C28 N24 1.389 . S
C28 C27 1.351 . S
C28 H33 0.930 . S
O29 Cu23 1.974 . S
O29 C39 1.282 . S
C30 O31 1.261 . S
C30 O43 1.251 . S
O31 C30 1.261 . S
H32 C26 0.930 . S
H33 C28 0.930 . S
N34 Cu23 1.985 . S
N34 C36 1.335 . S
N34 C37 1.390 . S
N35 C36 1.345 . S
N35 C38 1.336 . S
C36 N34 1.335 . S
C36 N35 1.345 . S
C36 H41 0.930 . S
C37 N34 1.390 . S
C37 C38 1.346 . S
C37 H42 0.930 . S
C38 N35 1.336 . S
C38 C37 1.346 . S
C38 H45 0.929 . S
C39 O29 1.282 . S
C39 O40 1.216 . S
O40 C39 1.216 . S
H41 C36 0.930 . S
H42 C37 0.930 . S
O43 Cu23 1.959 . S
O43 C30 1.251 . S
H44 C27 0.930 . S
H45 C38 0.929 . S
Cu46 N47 1.999 1_545 S
Cu46 O52 1.974 . S
Cu46 N57 1.985 . S
Cu46 O66 1.959 1_545 S
N47 Cu46 1.999 1_565 S
N47 C49 1.263 . S
N47 C51 1.389 . S
N48 C49 1.358 . S
N48 C50 1.400 . S
C49 N47 1.263 . S
C49 N48 1.358 . S
C49 H55 0.930 . S
C50 N48 1.400 . S
C50 C51 1.351 . S
C50 H67 0.930 . S
C51 N47 1.389 . S
C51 C50 1.351 . S
C51 H56 0.930 . S
O52 Cu46 1.974 . S
O52 C62 1.282 . S
C53 O54 1.261 . S
C53 O66 1.251 . S
O54 C53 1.261 . S
H55 C49 0.930 . S
H56 C51 0.930 . S
N57 Cu46 1.985 . S
N57 C59 1.335 . S
N57 C60 1.390 . S
N58 C59 1.345 . S
N58 C61 1.336 . S
C59 N57 1.335 . S
C59 N58 1.345 . S
C59 H64 0.930 . S
C60 N57 1.390 . S
C60 C61 1.346 . S
C60 H65 0.930 . S
C61 N58 1.336 . S
C61 C60 1.346 . S
C61 H68 0.929 . S
C62 O52 1.282 . S
C62 O63 1.216 . S
O63 C62 1.216 . S
H64 C59 0.930 . S
H65 C60 0.930 . S
O66 Cu46 1.959 1_565 S
O66 C53 1.251 . S
H67 C50 0.930 . S
H68 C61 0.929 . S
Cu69 N70 1.999 1_455 S
Cu69 O75 1.974 . S
Cu69 N80 1.985 . S
Cu69 O89 1.955 1_455 S
N70 Cu69 1.999 1_655 S
N70 C72 1.263 . S
N70 C74 1.389 . S
N71 C72 1.358 . S
N71 C73 1.400 . S
C72 N70 1.263 . S
C72 N71 1.358 . S
C72 H78 0.930 . S
C73 N71 1.400 . S
C73 C74 1.351 . S
C73 H90 0.930 . S
C74 N70 1.389 . S
C74 C73 1.351 . S
C74 H79 0.930 . S
O75 Cu69 1.974 . S
O75 C85 1.282 . S
C76 O77 1.261 . S
C76 O89 1.267 . S
O77 C76 1.261 . S
H78 C72 0.930 . S
H79 C74 0.930 . S
N80 Cu69 1.985 . S
N80 C82 1.335 . S
N80 C83 1.390 . S
N81 C82 1.345 . S
N81 C84 1.336 . S
C82 N80 1.335 . S
C82 N81 1.345 . S
C82 H87 0.930 . S
C83 N80 1.390 . S
C83 C84 1.346 . S
C83 H88 0.930 . S
C84 N81 1.336 . S
C84 C83 1.346 . S
C84 H91 0.929 . S
C85 O75 1.282 . S
C85 O86 1.216 . S
O86 C85 1.216 . S
H87 C82 0.930 . S
H88 C83 0.930 . S
O89 Cu69 1.955 1_655 S
O89 C76 1.267 . S
H90 C73 0.930 . S
H91 C84 0.929 . S
Cu92 N93 1.999 . S
Cu92 O98 1.974 . S
Cu92 N103 1.985 . S
Cu92 O112 1.959 . S
N93 Cu92 1.999 . S
N93 C95 1.263 . S
N93 C97 1.389 . S
N94 C95 1.358 . S
N94 C96 1.400 . S
C95 N93 1.263 . S
C95 N94 1.358 . S
C95 H101 0.930 . S
C96 N94 1.400 . S
C96 C97 1.351 . S
C96 H113 0.930 . S
C97 N93 1.389 . S
C97 C96 1.351 . S
C97 H102 0.930 . S
O98 Cu92 1.974 . S
O98 C108 1.282 . S
C99 O100 1.261 . S
C99 O112 1.251 . S
O100 C99 1.261 . S
H101 C95 0.930 . S
H102 C97 0.930 . S
N103 Cu92 1.985 . S
N103 C105 1.335 . S
N103 C106 1.390 . S
N104 C105 1.345 . S
N104 C107 1.336 . S
C105 N103 1.335 . S
C105 N104 1.345 . S
C105 H110 0.930 . S
C106 N103 1.390 . S
C106 C107 1.346 . S
C106 H111 0.930 . S
C107 N104 1.336 . S
C107 C106 1.346 . S
C107 H114 0.929 . S
C108 O98 1.282 . S
C108 O109 1.216 . S
O109 C108 1.216 . S
H110 C105 0.930 . S
H111 C106 0.930 . S
O112 Cu92 1.959 . S
O112 C99 1.251 . S
H113 C96 0.930 . S
H114 C107 0.929 . S
Cu115 N116 1.999 . S
Cu115 O121 1.974 1_545 S
Cu115 N126 1.985 1_545 S
Cu115 O135 1.959 . S
N116 Cu115 1.999 . S
N116 C118 1.263 . S
N116 C120 1.389 . S
N117 C118 1.358 . S
N117 C119 1.400 . S
C118 N116 1.263 . S
C118 N117 1.358 . S
C118 H124 0.930 . S
C119 N117 1.400 . S
C119 C120 1.351 . S
C119 H136 0.930 . S
C120 N116 1.389 . S
C120 C119 1.351 . S
C120 H125 0.930 . S
O121 Cu115 1.974 1_565 S
O121 C131 1.282 . S
C122 O123 1.261 . S
C122 O135 1.251 . S
O123 C122 1.261 . S
H124 C118 0.930 . S
H125 C120 0.930 . S
N126 Cu115 1.985 1_565 S
N126 C128 1.335 . S
N126 C129 1.390 . S
N127 C128 1.345 . S
N127 C130 1.336 . S
C128 N126 1.335 . S
C128 N127 1.345 . S
C128 H133 0.930 . S
C129 N126 1.390 . S
C129 C130 1.346 . S
C129 H134 0.930 . S
C130 N127 1.336 . S
C130 C129 1.346 . S
C130 H137 0.929 . S
C131 O121 1.282 . S
C131 O132 1.216 . S
O132 C131 1.216 . S
H133 C128 0.930 . S
H134 C129 0.930 . S
O135 Cu115 1.959 . S
O135 C122 1.251 . S
H136 C119 0.930 . S
H137 C130 0.929 . S
Cu138 N139 1.999 . S
Cu138 O144 1.974 . S
Cu138 N149 1.985 . S
Cu138 O158 1.959 . S
N139 Cu138 1.999 . S
N139 C141 1.263 . S
N139 C143 1.389 . S
N140 C141 1.358 . S
N140 C142 1.400 . S
C141 N139 1.263 . S
C141 N140 1.358 . S
C141 H147 0.930 . S
C142 N140 1.400 . S
C142 C143 1.351 . S
C142 H159 0.930 . S
C143 N139 1.389 . S
C143 C142 1.351 . S
C143 H148 0.930 . S
O144 Cu138 1.974 . S
O144 C154 1.282 . S
C145 O146 1.261 . S
C145 O158 1.251 . S
O146 C145 1.261 . S
H147 C141 0.930 . S
H148 C143 0.930 . S
N149 Cu138 1.985 . S
N149 C151 1.335 . S
N149 C152 1.390 . S
N150 C151 1.345 . S
N150 C153 1.336 . S
C151 N149 1.335 . S
C151 N150 1.345 . S
C151 H156 0.930 . S
C152 N149 1.390 . S
C152 C153 1.346 . S
C152 H157 0.930 . S
C153 N150 1.336 . S
C153 C152 1.346 . S
C153 H160 0.929 . S
C154 O144 1.282 . S
C154 O155 1.216 . S
O155 C154 1.216 . S
H156 C151 0.930 . S
H157 C152 0.930 . S
O158 Cu138 1.959 . S
O158 C145 1.251 . S
H159 C142 0.930 . S
H160 C153 0.929 . S
Cu161 N162 1.999 . S
Cu161 O167 1.974 . S
Cu161 N172 1.985 . S
Cu161 O181 1.959 . S
N162 Cu161 1.999 . S
N162 C164 1.263 . S
N162 C166 1.389 . S
N163 C164 1.358 . S
N163 C165 1.400 . S
C164 N162 1.263 . S
C164 N163 1.358 . S
C164 H170 0.930 . S
C165 N163 1.400 . S
C165 C166 1.351 . S
C165 H182 0.930 . S
C166 N162 1.389 . S
C166 C165 1.351 . S
C166 H171 0.930 . S
O167 Cu161 1.974 . S
O167 C177 1.282 . S
C168 O169 1.261 . S
C168 O181 1.251 . S
O169 C168 1.261 . S
H170 C164 0.930 . S
H171 C166 0.930 . S
N172 Cu161 1.985 . S
N172 C174 1.335 . S
N172 C175 1.390 . S
N173 C174 1.345 . S
N173 C176 1.336 . S
C174 N172 1.335 . S
C174 N173 1.345 . S
C174 H179 0.930 . S
C175 N172 1.390 . S
C175 C176 1.346 . S
C175 H180 0.930 . S
C176 N173 1.336 . S
C176 C175 1.346 . S
C176 H183 0.929 . S
C177 O167 1.282 . S
C177 O178 1.216 . S
O178 C177 1.216 . S
H179 C174 0.930 . S
H180 C175 0.930 . S
O181 Cu161 1.959 . S
O181 C168 1.251 . S
H182 C165 0.930 . S
H183 C176 0.929 . S
Cu184 N185 1.999 . S
Cu184 O190 1.974 . S
Cu184 N195 1.985 . S
Cu184 O204 1.959 . S
N185 Cu184 1.999 . S
N185 C187 1.263 . S
N185 C189 1.389 . S
N186 C187 1.358 . S
N186 C188 1.400 . S
C187 N185 1.263 . S
C187 N186 1.358 . S
C187 H193 0.930 . S
C188 N186 1.400 . S
C188 C189 1.351 . S
C188 H205 0.930 . S
C189 N185 1.389 . S
C189 C188 1.351 . S
C189 H194 0.930 . S
O190 Cu184 1.974 . S
O190 C200 1.282 . S
C191 O192 1.261 . S
C191 O204 1.251 . S
O192 C191 1.261 . S
H193 C187 0.930 . S
H194 C189 0.930 . S
N195 Cu184 1.985 . S
N195 C197 1.335 . S
N195 C198 1.390 . S
N196 C197 1.345 . S
N196 C199 1.336 . S
C197 N195 1.335 . S
C197 N196 1.345 . S
C197 H202 0.930 . S
C198 N195 1.390 . S
C198 C199 1.346 . S
C198 H203 0.930 . S
C199 N196 1.336 . S
C199 C198 1.346 . S
C199 H206 0.929 . S
C200 O190 1.282 . S
C200 O201 1.216 . S
O201 C200 1.216 . S
H202 C197 0.930 . S
H203 C198 0.930 . S
O204 Cu184 1.959 . S
O204 C191 1.251 . S
H205 C188 0.930 . S
H206 C199 0.929 . S
Cu207 N208 1.999 . S
Cu207 O213 1.974 . S
Cu207 N218 1.985 . S
Cu207 O227 1.959 . S
N208 Cu207 1.999 . S
N208 C210 1.263 . S
N208 C212 1.389 . S
N209 C210 1.358 . S
N209 C211 1.400 . S
C210 N208 1.263 . S
C210 N209 1.358 . S
C210 H216 0.930 . S
C211 N209 1.400 . S
C211 C212 1.351 . S
C211 H228 0.930 . S
C212 N208 1.389 . S
C212 C211 1.351 . S
C212 H217 0.930 . S
O213 Cu207 1.974 . S
O213 C223 1.282 . S
C214 O215 1.261 . S
C214 O227 1.251 . S
O215 C214 1.261 . S
H216 C210 0.930 . S
H217 C212 0.930 . S
N218 Cu207 1.985 . S
N218 C220 1.335 . S
N218 C221 1.390 . S
N219 C220 1.345 . S
N219 C222 1.336 . S
C220 N218 1.335 . S
C220 N219 1.345 . S
C220 H225 0.930 . S
C221 N218 1.390 . S
C221 C222 1.346 . S
C221 H226 0.930 . S
C222 N219 1.336 . S
C222 C221 1.346 . S
C222 H229 0.929 . S
C223 O213 1.282 . S
C223 O224 1.216 . S
O224 C223 1.216 . S
H225 C220 0.930 . S
H226 C221 0.930 . S
O227 Cu207 1.959 . S
O227 C214 1.251 . S
H228 C211 0.930 . S
H229 C222 0.929 . S
Cu230 N231 1.999 . S
Cu230 O236 1.974 . S
Cu230 N241 1.985 . S
Cu230 O250 1.959 . S
N231 Cu230 1.999 . S
N231 C233 1.263 . S
N231 C235 1.389 . S
N232 C233 1.358 . S
N232 C234 1.400 . S
C233 N231 1.263 . S
C233 N232 1.358 . S
C233 H239 0.930 . S
C234 N232 1.400 . S
C234 C235 1.351 . S
C234 H251 0.930 . S
C235 N231 1.389 . S
C235 C234 1.351 . S
C235 H240 0.930 . S
O236 Cu230 1.974 . S
O236 C246 1.282 . S
C237 O238 1.261 . S
C237 O250 1.251 . S
O238 C237 1.261 . S
H239 C233 0.930 . S
H240 C235 0.930 . S
N241 Cu230 1.985 . S
N241 C243 1.335 . S
N241 C244 1.390 . S
N242 C243 1.345 . S
N242 C245 1.336 . S
C243 N241 1.335 . S
C243 N242 1.345 . S
C243 H248 0.930 . S
C244 N241 1.390 . S
C244 C245 1.346 . S
C244 H249 0.930 . S
C245 N242 1.336 . S
C245 C244 1.346 . S
C245 H252 0.929 . S
C246 O236 1.282 . S
C246 O247 1.216 . S
O247 C246 1.216 . S
H248 C243 0.930 . S
H249 C244 0.930 . S
O250 Cu230 1.959 . S
O250 C237 1.251 . S
H251 C234 0.930 . S
H252 C245 0.929 . S
Cu253 N254 1.999 . S
Cu253 O259 1.974 . S
Cu253 N264 1.985 . S
Cu253 O273 1.959 . S
N254 Cu253 1.999 . S
N254 C256 1.263 . S
N254 C258 1.389 . S
N255 C256 1.358 . S
N255 C257 1.400 . S
C256 N254 1.263 . S
C256 N255 1.358 . S
C256 H262 0.930 . S
C257 N255 1.400 . S
C257 C258 1.351 . S
C257 H274 0.930 . S
C258 N254 1.389 . S
C258 C257 1.351 . S
C258 H263 0.930 . S
O259 Cu253 1.974 . S
O259 C269 1.282 . S
C260 O261 1.261 . S
C260 O273 1.251 . S
O261 C260 1.261 . S
H262 C256 0.930 . S
H263 C258 0.930 . S
N264 Cu253 1.985 . S
N264 C266 1.335 . S
N264 C267 1.390 . S
N265 C266 1.345 . S
N265 C268 1.336 . S
C266 N264 1.335 . S
C266 N265 1.345 . S
C266 H271 0.930 . S
C267 N264 1.390 . S
C267 C268 1.346 . S
C267 H272 0.930 . S
C268 N265 1.336 . S
C268 C267 1.346 . S
C268 H275 0.929 . S
C269 O259 1.282 . S
C269 O270 1.216 . S
O270 C269 1.216 . S
H271 C266 0.930 . S
H272 C267 0.930 . S
O273 Cu253 1.959 . S
O273 C260 1.251 . S
H274 C257 0.930 . S
H275 C268 0.929 . S
Cu276 N277 1.999 . S
Cu276 O282 1.974 . S
Cu276 N287 1.985 . S
Cu276 O296 1.959 . S
N277 Cu276 1.999 . S
N277 C279 1.263 . S
N277 C281 1.389 . S
N278 C279 1.358 . S
N278 C280 1.400 . S
C279 N277 1.263 . S
C279 N278 1.358 . S
C279 H285 0.930 . S
C280 N278 1.400 . S
C280 C281 1.351 . S
C280 H297 0.930 . S
C281 N277 1.389 . S
C281 C280 1.351 . S
C281 H286 0.930 . S
O282 Cu276 1.974 . S
O282 C292 1.282 . S
C283 O284 1.261 . S
C283 O296 1.251 . S
O284 C283 1.261 . S
H285 C279 0.930 . S
H286 C281 0.930 . S
N287 Cu276 1.985 . S
N287 C289 1.335 . S
N287 C290 1.390 . S
N288 C289 1.345 . S
N288 C291 1.336 . S
C289 N287 1.335 . S
C289 N288 1.345 . S
C289 H294 0.930 . S
C290 N287 1.390 . S
C290 C291 1.346 . S
C290 H295 0.930 . S
C291 N288 1.336 . S
C291 C290 1.346 . S
C291 H298 0.929 . S
C292 O282 1.282 . S
C292 O293 1.216 . S
O293 C292 1.216 . S
H294 C289 0.930 . S
H295 C290 0.930 . S
O296 Cu276 1.959 . S
O296 C283 1.251 . S
H297 C280 0.930 . S
H298 C291 0.929 . S
Cu299 N300 1.999 . S
Cu299 O305 1.974 . S
Cu299 N310 1.985 . S
Cu299 O319 1.959 . S
N300 Cu299 1.999 . S
N300 C302 1.263 . S
N300 C304 1.389 . S
N301 C302 1.358 . S
N301 C303 1.400 . S
C302 N300 1.263 . S
C302 N301 1.358 . S
C302 H308 0.930 . S
C303 N301 1.400 . S
C303 C304 1.351 . S
C303 H320 0.930 . S
C304 N300 1.389 . S
C304 C303 1.351 . S
C304 H309 0.930 . S
O305 Cu299 1.974 . S
O305 C315 1.282 . S
C306 O307 1.261 . S
C306 O319 1.251 . S
O307 C306 1.261 . S
H308 C302 0.930 . S
H309 C304 0.930 . S
N310 Cu299 1.985 . S
N310 C312 1.335 . S
N310 C313 1.390 . S
N311 C312 1.345 . S
N311 C314 1.336 . S
C312 N310 1.335 . S
C312 N311 1.345 . S
C312 H317 0.930 . S
C313 N310 1.390 . S
C313 C314 1.346 . S
C313 H318 0.930 . S
C314 N311 1.336 . S
C314 C313 1.346 . S
C314 H321 0.969 . S
C315 O305 1.282 . S
C315 O316 1.216 . S
O316 C315 1.216 . S
H317 C312 0.930 . S
H318 C313 0.930 . S
O319 Cu299 1.959 . S
O319 C306 1.251 . S
H320 C303 0.930 . S
H321 C314 0.969 . S
Cu322 N323 1.999 . S
Cu322 O328 1.974 . S
Cu322 N333 1.985 . S
Cu322 O342 1.959 . S
N323 Cu322 1.999 . S
N323 C325 1.263 . S
N323 C327 1.389 . S
N324 C325 1.358 . S
N324 C326 1.400 . S
C325 N323 1.263 . S
C325 N324 1.358 . S
C325 H331 0.930 . S
C326 N324 1.400 . S
C326 C327 1.351 . S
C326 H343 0.930 . S
C327 N323 1.389 . S
C327 C326 1.351 . S
C327 H332 0.930 . S
O328 Cu322 1.974 . S
O328 C338 1.282 . S
C329 O330 1.261 . S
C329 O342 1.251 . S
O330 C329 1.261 . S
H331 C325 0.930 . S
H332 C327 0.930 . S
N333 Cu322 1.985 . S
N333 C335 1.335 . S
N333 C336 1.390 . S
N334 C335 1.345 . S
N334 C337 1.336 . S
C335 N333 1.335 . S
C335 N334 1.345 . S
C335 H340 0.930 . S
C336 N333 1.390 . S
C336 C337 1.346 . S
C336 H341 0.930 . S
C337 N334 1.336 . S
C337 C336 1.346 . S
C337 H344 0.929 . S
C338 O328 1.282 . S
C338 O339 1.216 . S
O339 C338 1.216 . S
H340 C335 0.930 . S
H341 C336 0.930 . S
O342 Cu322 1.959 . S
O342 C329 1.251 . S
H343 C326 0.930 . S
H344 C337 0.929 . S
Cu345 N346 1.999 . S
Cu345 O351 1.974 . S
Cu345 N356 1.985 . S
Cu345 O365 1.959 . S
N346 Cu345 1.999 . S
N346 C348 1.263 . S
N346 C350 1.389 . S
N347 C348 1.358 . S
N347 C349 1.400 . S
C348 N346 1.263 . S
C348 N347 1.358 . S
C348 H354 0.930 . S
C349 N347 1.400 . S
C349 C350 1.351 . S
C349 H366 0.930 . S
C350 N346 1.389 . S
C350 C349 1.351 . S
C350 H355 0.930 . S
O351 Cu345 1.974 . S
O351 C361 1.282 . S
C352 O353 1.261 . S
C352 O365 1.251 . S
O353 C352 1.261 . S
H354 C348 0.930 . S
H355 C350 0.930 . S
N356 Cu345 1.985 . S
N356 C358 1.335 . S
N356 C359 1.390 . S
N357 C358 1.345 . S
N357 C360 1.336 . S
C358 N356 1.335 . S
C358 N357 1.345 . S
C358 H363 0.930 . S
C359 N356 1.390 . S
C359 C360 1.346 . S
C359 H364 0.930 . S
C360 N357 1.336 . S
C360 C359 1.346 . S
C360 H367 0.929 1_565 S
C361 O351 1.282 . S
C361 O362 1.216 . S
O362 C361 1.216 . S
H363 C358 0.930 . S
H364 C359 0.930 . S
O365 Cu345 1.959 . S
O365 C352 1.251 . S
H366 C349 0.930 . S
H367 C360 0.929 1_545 S
Cu368 N369 1.999 . S
Cu368 O374 1.974 . S
Cu368 N379 1.985 . S
Cu368 O388 1.959 . S
N369 Cu368 1.999 . S
N369 C371 1.263 . S
N369 C373 1.389 . S
N370 C371 1.358 . S
N370 C372 1.400 . S
C371 N369 1.263 . S
C371 N370 1.358 . S
C371 H377 0.930 . S
C372 N370 1.400 . S
C372 C373 1.351 . S
C372 H389 0.930 . S
C373 N369 1.389 . S
C373 C372 1.351 . S
C373 H378 0.930 . S
O374 Cu368 1.974 . S
O374 C384 1.282 . S
C375 O376 1.261 . S
C375 O388 1.251 . S
O376 C375 1.261 . S
H377 C371 0.930 . S
H378 C373 0.930 . S
N379 Cu368 1.985 . S
N379 C381 1.335 . S
N379 C382 1.390 . S
N380 C381 1.345 . S
N380 C383 1.336 . S
C381 N379 1.335 . S
C381 N380 1.345 . S
C381 H386 0.930 . S
C382 N379 1.390 . S
C382 C383 1.346 . S
C382 H387 0.930 . S
C383 N380 1.336 . S
C383 C382 1.346 . S
C383 H390 0.929 . S
C384 O374 1.282 . S
C384 O385 1.216 . S
O385 C384 1.216 . S
H386 C381 0.930 . S
H387 C382 0.930 . S
O388 Cu368 1.959 . S
O388 C375 1.251 . S
H389 C372 0.930 . S
H390 C383 0.929 . S
Cu391 N392 1.999 . S
Cu391 O397 1.974 . S
Cu391 N402 1.985 . S
Cu391 O411 1.959 . S
N392 Cu391 1.999 . S
N392 C394 1.263 . S
N392 C396 1.389 . S
N393 C394 1.358 . S
N393 C395 1.400 . S
C394 N392 1.263 . S
C394 N393 1.358 . S
C394 H400 0.930 . S
C395 N393 1.400 . S
C395 C396 1.351 . S
C395 H412 0.930 . S
C396 N392 1.389 . S
C396 C395 1.351 . S
C396 H401 0.930 . S
O397 Cu391 1.974 . S
O397 C407 1.282 . S
C398 O399 1.261 . S
C398 O411 1.251 . S
O399 C398 1.261 . S
H400 C394 0.930 . S
H401 C396 0.930 . S
N402 Cu391 1.985 . S
N402 C404 1.335 . S
N402 C405 1.390 . S
N403 C404 1.345 . S
N403 C406 1.336 . S
C404 N402 1.335 . S
C404 N403 1.345 . S
C404 H409 0.930 . S
C405 N402 1.390 . S
C405 C406 1.346 . S
C405 H410 0.930 . S
C406 N403 1.336 . S
C406 C405 1.346 . S
C406 H413 0.929 . S
C407 O397 1.282 . S
C407 O408 1.216 . S
O408 C407 1.216 . S
H409 C404 0.930 . S
H410 C405 0.930 . S
O411 Cu391 1.959 . S
O411 C398 1.251 . S
H412 C395 0.930 . S
H413 C406 0.929 . S
H414 C422 0.929 1_655 S
H415 C424 0.930 1_655 S
H416 C426 0.930 . S
H417 C429 0.929 . S
H418 C432 0.930 . S
H419 C434 0.960 . S
H420 C434 0.960 . S
H421 C434 0.960 . S
C422 H414 0.929 1_455 S
C422 C423 1.377 . S
C422 C424 1.384 . S
C423 C422 1.377 . S
C423 C429 1.390 . S
C424 H415 0.930 1_455 S
C424 C422 1.384 . S
C424 C425 1.372 . S
C425 C424 1.372 . S
C425 C426 1.400 . S
C425 C430 1.490 . S
C426 H416 0.930 . S
C426 C425 1.400 . S
C426 C429 1.386 . S
H427 C443 0.930 . S
H428 C444 0.931 . S
C429 H417 0.929 . S
C429 C423 1.390 . S
C429 C426 1.386 . S
C430 C425 1.490 . S
C430 C432 1.395 . S
C430 C433 1.403 . S
H431 C437 0.930 . S
C432 H418 0.930 . S
C432 C430 1.395 . S
C432 C435 1.403 . S
C433 C430 1.403 . S
C433 C434 1.524 . S
C433 C437 1.400 . S
C434 H419 0.960 . S
C434 H420 0.960 . S
C434 H421 0.960 . S
C434 C433 1.524 . S
C435 C432 1.403 . S
C435 C436 1.392 . S
C435 C439 1.495 . S
C436 C435 1.392 . S
C436 C437 1.385 . S
C436 C438 1.478 . S
C437 H431 0.930 . S
C437 C433 1.400 . S
C437 C436 1.385 . S
C438 C436 1.478 . S
C438 C440 1.381 . S
C438 C444 1.383 . S
C439 C435 1.495 . S
C439 H445 0.959 . S
C439 H446 0.961 . S
C439 H447 0.960 . S
C440 C438 1.381 . S
C440 C441 1.421 . S
C440 H448 0.930 . S
C441 C440 1.421 . S
C441 C442 1.374 1_554 S
C441 H449 0.912 1_554 S
C442 C441 1.374 1_556 S
C442 C443 1.377 1_556 S
C443 H427 0.930 . S
C443 C442 1.377 1_554 S
C443 C444 1.379 . S
C444 H428 0.931 . S
C444 C438 1.383 . S
C444 C443 1.379 . S
H445 C439 0.959 . S
H446 C439 0.961 . S
H447 C439 0.960 . S
H448 C440 0.930 . S
H449 C441 0.912 1_556 S
H450 C458 0.929 . S
H451 C460 0.930 . S
H452 C462 0.930 . S
H453 C465 0.929 . S
H454 C468 0.930 . S
H455 C470 0.960 . S
H456 C470 0.960 . S
H457 C470 0.960 . S
C458 H450 0.929 . S
C458 C459 1.377 1_554 S
C458 C460 1.384 . S
C459 C458 1.377 1_556 S
C459 C465 1.390 . S
C460 H451 0.930 . S
C460 C458 1.384 . S
C460 C461 1.372 . S
C461 C460 1.372 . S
C461 C462 1.400 . S
C461 C466 1.490 . S
C462 H452 0.930 . S
C462 C461 1.400 . S
C462 C465 1.386 1_554 S
H463 C479 0.930 . S
H464 C480 0.931 . S
C465 H453 0.929 . S
C465 C459 1.390 . S
C465 C462 1.386 1_556 S
C466 C461 1.490 . S
C466 C468 1.395 . S
C466 C469 1.403 . S
H467 C473 0.930 . S
C468 H454 0.930 . S
C468 C466 1.395 . S
C468 C471 1.403 . S
C469 C466 1.403 . S
C469 C470 1.524 . S
C469 C473 1.400 . S
C470 H455 0.960 . S
C470 H456 0.960 . S
C470 H457 0.960 . S
C470 C469 1.524 . S
C471 C468 1.403 . S
C471 C472 1.392 . S
C471 C475 1.495 . S
C472 C471 1.392 . S
C472 C473 1.385 . S
C472 C474 1.478 . S
C473 H467 0.930 . S
C473 C469 1.400 . S
C473 C472 1.385 . S
C474 C472 1.478 . S
C474 C476 1.381 . S
C474 C480 1.383 . S
C475 C471 1.495 . S
C475 H481 0.959 . S
C475 H482 0.961 . S
C475 H483 0.960 . S
C476 C474 1.381 . S
C476 C477 1.394 . S
C476 H484 0.930 . S
C477 C476 1.394 . S
C477 C478 1.383 . S
C477 H485 0.929 . S
C478 C477 1.383 . S
C478 C479 1.377 . S
C479 H463 0.930 . S
C479 C478 1.377 . S
C479 C480 1.379 . S
C480 H464 0.931 . S
C480 C474 1.383 . S
C480 C479 1.379 . S
H481 C475 0.959 . S
H482 C475 0.961 . S
H483 C475 0.960 . S
H484 C476 0.930 . S
H485 C477 0.929 . S
H486 C494 0.929 . S
H487 C496 0.930 . S
H488 C498 0.930 . S
H489 C501 0.929 . S
H490 C504 0.930 . S
H491 C506 0.960 . S
H492 C506 0.960 . S
H493 C506 0.960 1_545 S
C494 H486 0.929 . S
C494 C495 1.377 . S
C494 C496 1.384 . S
C495 C494 1.377 . S
C495 C501 1.390 1_565 S
C496 H487 0.930 . S
C496 C494 1.384 . S
C496 C497 1.372 . S
C497 C496 1.372 . S
C497 C498 1.400 1_565 S
C497 C502 1.490 . S
C498 H488 0.930 . S
C498 C497 1.400 1_545 S
C498 C501 1.386 . S
H499 C515 0.929 1_556 S
H500 C516 0.931 . S
C501 H489 0.929 . S
C501 C495 1.390 1_545 S
C501 C498 1.386 . S
C502 C497 1.490 . S
C502 C504 1.395 . S
C502 C505 1.403 . S
H503 C509 0.930 . S
C504 H490 0.930 . S
C504 C502 1.395 . S
C504 C507 1.403 . S
C505 C502 1.403 . S
C505 C506 1.524 . S
C505 C509 1.400 . S
C506 H491 0.960 . S
C506 H492 0.960 . S
C506 H493 0.960 1_565 S
C506 C505 1.524 . S
C507 C504 1.403 . S
C507 C508 1.392 . S
C507 C511 1.495 . S
C508 C507 1.392 . S
C508 C509 1.385 . S
C508 C510 1.478 . S
C509 H503 0.930 . S
C509 C505 1.400 . S
C509 C508 1.385 . S
C510 C508 1.478 . S
C510 C512 1.381 . S
C510 C516 1.383 . S
C511 C507 1.495 . S
C511 H517 0.959 . S
C511 H518 0.961 . S
C511 H519 0.960 . S
C512 C510 1.381 . S
C512 C513 1.394 . S
C512 H520 0.930 . S
C513 C512 1.394 . S
C513 C514 1.383 1_554 S
C513 H521 0.929 . S
C514 C513 1.383 1_556 S
C514 C515 1.377 1_556 S
C515 H499 0.929 1_554 S
C515 C514 1.377 1_554 S
C515 C516 1.380 . S
C516 H500 0.931 . S
C516 C510 1.383 . S
C516 C515 1.380 . S
H517 C511 0.959 . S
H518 C511 0.961 . S
H519 C511 0.960 . S
H520 C512 0.930 . S
H521 C513 0.929 . S
H522 C530 0.929 . S
H523 C532 0.930 . S
H524 C534 0.930 . S
H525 C537 0.929 . S
H526 C540 0.930 . S
H527 C542 0.960 . S
H528 C542 0.960 . S
H529 C542 0.960 . S
C530 H522 0.929 . S
C530 C531 1.377 . S
C530 C532 1.384 . S
C531 C530 1.377 . S
C531 C537 1.390 . S
C532 H523 0.930 . S
C532 C530 1.384 . S
C532 C533 1.372 . S
C533 C532 1.372 . S
C533 C534 1.400 . S
C533 C538 1.490 . S
C534 H524 0.930 . S
C534 C533 1.400 . S
C534 C537 1.386 . S
H535 C551 0.930 . S
H536 C552 0.931 . S
C537 H525 0.929 . S
C537 C531 1.390 . S
C537 C534 1.386 . S
C538 C533 1.490 . S
C538 C540 1.395 . S
C538 C541 1.403 . S
H539 C545 0.930 . S
C540 H526 0.930 . S
C540 C538 1.395 . S
C540 C543 1.403 . S
C541 C538 1.403 . S
C541 C542 1.524 . S
C541 C545 1.400 . S
C542 H527 0.960 . S
C542 H528 0.960 . S
C542 H529 0.960 . S
C542 C541 1.524 . S
C543 C540 1.403 . S
C543 C544 1.392 . S
C543 C547 1.495 1_545 S
C544 C543 1.392 . S
C544 C545 1.385 . S
C544 C546 1.478 . S
C545 H539 0.930 . S
C545 C541 1.400 . S
C545 C544 1.385 . S
C546 C544 1.478 . S
C546 C548 1.381 . S
C546 C552 1.383 . S
C547 C543 1.495 1_565 S
C547 H553 0.959 . S
C547 H554 0.961 . S
C547 H555 0.960 . S
C548 C546 1.381 . S
C548 C549 1.394 . S
C548 H556 0.930 1_545 S
C549 C548 1.394 . S
C549 C550 1.383 . S
C549 H557 0.929 1_545 S
C550 C549 1.383 . S
C550 C551 1.377 . S
C551 H535 0.930 . S
C551 C550 1.377 . S
C551 C552 1.379 . S
C552 H536 0.931 . S
C552 C546 1.383 . S
C552 C551 1.379 . S
H553 C547 0.959 . S
H554 C547 0.961 . S
H555 C547 0.960 . S
H556 C548 0.930 1_565 S
H557 C549 0.929 1_565 S
H558 C566 0.929 . S
H559 C568 0.930 . S
H560 C570 0.930 . S
H561 C573 0.929 . S
H562 C576 0.930 . S
H563 C578 0.960 . S
H564 C578 0.960 . S
H565 C578 0.960 . S
C566 H558 0.929 . S
C566 C567 1.377 . S
C566 C568 1.384 . S
C567 C566 1.377 . S
C567 C573 1.390 . S
C568 H559 0.930 . S
C568 C566 1.384 . S
C568 C569 1.372 . S
C569 C568 1.372 . S
C569 C570 1.400 . S
C569 C574 1.490 . S
C570 H560 0.930 . S
C570 C569 1.400 . S
C570 C573 1.386 . S
H571 C587 0.930 . S
H572 C588 0.931 . S
C573 H561 0.929 . S
C573 C567 1.390 . S
C573 C570 1.386 . S
C574 C569 1.490 . S
C574 C576 1.395 . S
C574 C577 1.403 . S
H575 C581 0.930 . S
C576 H562 0.930 . S
C576 C574 1.395 . S
C576 C579 1.403 . S
C577 C574 1.403 . S
C577 C578 1.524 . S
C577 C581 1.400 . S
C578 H563 0.960 . S
C578 H564 0.960 . S
C578 H565 0.960 . S
C578 C577 1.524 . S
C579 C576 1.403 . S
C579 C580 1.392 . S
C579 C583 1.495 . S
C580 C579 1.392 . S
C580 C581 1.385 . S
C580 C582 1.478 . S
C581 H575 0.930 . S
C581 C577 1.400 . S
C581 C580 1.385 . S
C582 C580 1.478 . S
C582 C584 1.381 . S
C582 C588 1.383 1_655 S
C583 C579 1.495 . S
C583 H589 0.959 . S
C583 H590 0.961 . S
C583 H591 0.960 . S
C584 C582 1.381 . S
C584 C585 1.394 . S
C584 H592 0.930 . S
C585 C584 1.394 . S
C585 C586 1.383 . S
C585 H593 0.929 . S
C586 C585 1.383 . S
C586 C587 1.377 1_655 S
C587 H571 0.930 . S
C587 C586 1.377 1_455 S
C587 C588 1.379 . S
C588 H572 0.931 . S
C588 C582 1.383 1_455 S
C588 C587 1.379 . S
H589 C583 0.959 . S
H590 C583 0.961 . S
H591 C583 0.960 . S
H592 C584 0.930 . S
H593 C585 0.929 . S
H594 C602 0.929 . S
H595 C604 0.930 . S
H596 C606 0.930 . S
H597 C609 0.929 . S
H598 C612 0.930 . S
H599 C614 0.960 . S
H600 C614 0.960 . S
H601 C614 0.960 . S
C602 H594 0.929 . S
C602 C603 1.377 . S
C602 C604 1.384 . S
C603 C602 1.377 . S
C603 C609 1.390 . S
C604 H595 0.930 . S
C604 C602 1.384 . S
C604 C605 1.372 . S
C605 C604 1.372 . S
C605 C606 1.400 . S
C605 C610 1.490 . S
C606 H596 0.930 . S
C606 C605 1.400 . S
C606 C609 1.386 . S
H607 C623 0.930 . S
H608 C624 0.931 . S
C609 H597 0.929 . S
C609 C603 1.390 . S
C609 C606 1.386 . S
C610 C605 1.490 . S
C610 C612 1.395 . S
C610 C613 1.403 . S
H611 C617 0.930 . S
C612 H598 0.930 . S
C612 C610 1.395 . S
C612 C615 1.403 . S
C613 C610 1.403 . S
C613 C614 1.524 . S
C613 C617 1.400 . S
C614 H599 0.960 . S
C614 H600 0.960 . S
C614 H601 0.960 . S
C614 C613 1.524 . S
C615 C612 1.403 . S
C615 C616 1.392 . S
C615 C619 1.495 . S
C616 C615 1.392 . S
C616 C617 1.385 . S
C616 C618 1.478 . S
C617 H611 0.930 . S
C617 C613 1.400 . S
C617 C616 1.385 . S
C618 C616 1.478 . S
C618 C620 1.381 . S
C618 C624 1.383 . S
C619 C615 1.495 . S
C619 H625 0.959 . S
C619 H626 0.961 . S
C619 H627 0.960 . S
C620 C618 1.381 . S
C620 C621 1.394 . S
C620 H628 0.930 . S
C621 C620 1.394 . S
C621 C622 1.383 . S
C621 H629 0.929 . S
C622 C621 1.383 . S
C622 C623 1.377 . S
C623 H607 0.930 . S
C623 C622 1.377 . S
C623 C624 1.379 . S
C624 H608 0.931 . S
C624 C618 1.383 . S
C624 C623 1.379 . S
H625 C619 0.959 . S
H626 C619 0.961 . S
H627 C619 0.960 . S
H628 C620 0.930 . S
H629 C621 0.929 . S
H630 C638 0.929 . S
H631 C640 0.930 . S
H632 C642 0.930 . S
H633 C645 0.929 . S
H634 C648 0.930 . S
H635 C650 0.960 . S
H636 C650 0.960 . S
H637 C650 0.960 . S
C638 H630 0.929 . S
C638 C639 1.377 . S
C638 C640 1.384 . S
C639 C638 1.377 . S
C639 C645 1.390 1_655 S
C640 H631 0.930 . S
C640 C638 1.384 . S
C640 C641 1.372 . S
C641 C640 1.372 . S
C641 C642 1.400 1_655 S
C641 C646 1.490 . S
C642 H632 0.930 . S
C642 C641 1.400 1_455 S
C642 C645 1.386 . S
H643 C659 0.930 1_554 S
H644 C660 0.931 . S
C645 H633 0.929 . S
C645 C639 1.390 1_455 S
C645 C642 1.386 . S
C646 C641 1.490 . S
C646 C648 1.395 . S
C646 C649 1.403 . S
H647 C653 0.930 . S
C648 H634 0.930 . S
C648 C646 1.395 . S
C648 C651 1.403 . S
C649 C646 1.403 . S
C649 C650 1.524 . S
C649 C653 1.400 . S
C650 H635 0.960 . S
C650 H636 0.960 . S
C650 H637 0.960 . S
C650 C649 1.524 . S
C651 C648 1.403 . S
C651 C652 1.392 . S
C651 C655 1.495 . S
C652 C651 1.392 . S
C652 C653 1.385 . S
C652 C654 1.478 . S
C653 H647 0.930 . S
C653 C649 1.400 . S
C653 C652 1.385 . S
C654 C652 1.478 . S
C654 C656 1.381 . S
C654 C660 1.383 . S
C655 C651 1.495 . S
C655 H661 0.959 . S
C655 H662 0.961 . S
C655 H663 0.960 . S
C656 C654 1.381 . S
C656 C657 1.394 . S
C656 H664 0.930 . S
C657 C656 1.394 . S
C657 C658 1.383 1_556 S
C657 H665 0.926 1_556 S
C658 C657 1.383 1_554 S
C658 C659 1.377 1_554 S
C659 H643 0.930 1_556 S
C659 C658 1.377 1_556 S
C659 C660 1.379 . S
C660 H644 0.931 . S
C660 C654 1.383 . S
C660 C659 1.379 . S
H661 C655 0.959 . S
H662 C655 0.961 . S
H663 C655 0.960 . S
H664 C656 0.930 . S
H665 C657 0.926 1_554 S
H666 C674 0.929 . S
H667 C676 0.930 . S
H668 C678 0.930 . S
H669 C681 0.929 . S
H670 C684 0.930 . S
H671 C686 0.960 . S
H672 C686 0.960 . S
H673 C686 0.960 . S
C674 H666 0.929 . S
C674 C675 1.377 1_556 S
C674 C676 1.384 . S
C675 C674 1.377 1_554 S
C675 C681 1.390 . S
C676 H667 0.930 . S
C676 C674 1.384 . S
C676 C677 1.372 . S
C677 C676 1.372 . S
C677 C678 1.400 . S
C677 C682 1.490 . S
C678 H668 0.930 . S
C678 C677 1.400 . S
C678 C681 1.386 1_556 S
H679 C695 0.930 . S
H680 C696 0.931 . S
C681 H669 0.929 . S
C681 C675 1.390 . S
C681 C678 1.386 1_554 S
C682 C677 1.490 . S
C682 C684 1.395 . S
C682 C685 1.403 . S
H683 C689 0.930 . S
C684 H670 0.930 . S
C684 C682 1.395 . S
C684 C687 1.403 . S
C685 C682 1.403 . S
C685 C686 1.524 . S
C685 C689 1.400 . S
C686 H671 0.960 . S
C686 H672 0.960 . S
C686 H673 0.960 . S
C686 C685 1.524 . S
C687 C684 1.403 . S
C687 C688 1.392 . S
C687 C691 1.495 . S
C688 C687 1.392 . S
C688 C689 1.385 . S
C688 C690 1.478 . S
C689 H683 0.930 . S
C689 C685 1.400 . S
C689 C688 1.385 . S
C690 C688 1.478 . S
C690 C692 1.381 . S
C690 C696 1.383 . S
C691 C687 1.495 . S
C691 H697 0.959 . S
C691 H698 0.961 . S
C691 H699 0.960 . S
C692 C690 1.381 . S
C692 C693 1.394 . S
C692 H700 0.930 . S
C693 C692 1.394 . S
C693 C694 1.383 . S
C693 H701 0.929 . S
C694 C693 1.383 . S
C694 C695 1.377 . S
C695 H679 0.930 . S
C695 C694 1.377 . S
C695 C696 1.379 . S
C696 H680 0.931 . S
C696 C690 1.383 . S
C696 C695 1.379 . S
H697 C691 0.959 . S
H698 C691 0.961 . S
H699 C691 0.960 . S
H700 C692 0.930 . S
H701 C693 0.929 . S
H702 C710 0.929 . S
H703 C712 0.930 . S
H704 C714 0.930 . S
H705 C717 0.929 . S
H706 C720 0.930 . S
H707 C722 0.960 . S
H708 C722 0.960 . S
H709 C722 0.960 . S
C710 H702 0.929 . S
C710 C711 1.377 . S
C710 C712 1.384 1_554 S
C711 C710 1.377 . S
C711 C717 1.390 1_554 S
C712 H703 0.930 . S
C712 C710 1.384 1_556 S
C712 C713 1.372 . S
C713 C712 1.372 . S
C713 C714 1.400 . S
C713 C718 1.490 . S
C714 H704 0.930 . S
C714 C713 1.400 . S
C714 C717 1.386 . S
H715 C731 0.930 . S
H716 C732 0.931 . S
C717 H705 0.929 . S
C717 C711 1.390 1_556 S
C717 C714 1.386 . S
C718 C713 1.490 . S
C718 C720 1.395 . S
C718 C721 1.403 . S
H719 C725 0.930 . S
C720 H706 0.930 . S
C720 C718 1.395 . S
C720 C723 1.403 . S
C721 C718 1.403 . S
C721 C722 1.524 . S
C721 C725 1.400 . S
C722 H707 0.960 . S
C722 H708 0.960 . S
C722 H709 0.960 . S
C722 C721 1.524 . S
C723 C720 1.403 . S
C723 C724 1.392 . S
C723 C727 1.495 . S
C724 C723 1.392 . S
C724 C725 1.385 . S
C724 C726 1.478 . S
C725 H719 0.930 . S
C725 C721 1.400 . S
C725 C724 1.385 . S
C726 C724 1.478 . S
C726 C728 1.381 . S
C726 C732 1.383 . S
C727 C723 1.495 . S
C727 H733 0.959 . S
C727 H734 0.961 . S
C727 H735 0.960 . S
C728 C726 1.381 . S
C728 C729 1.394 . S
C728 H736 0.930 . S
C729 C728 1.394 . S
C729 C730 1.383 . S
C729 H737 0.929 1_545 S
C730 C729 1.383 . S
C730 C731 1.377 . S
C731 H715 0.930 . S
C731 C730 1.377 . S
C731 C732 1.379 . S
C732 H716 0.931 . S
C732 C726 1.383 . S
C732 C731 1.379 . S
H733 C727 0.959 . S
H734 C727 0.961 . S
H735 C727 0.960 . S
H736 C728 0.930 . S
H737 C729 0.929 1_565 S
H738 C746 0.929 . S
H739 C748 0.930 . S
H740 C750 0.930 . S
H741 C753 0.929 . S
H742 C756 0.930 . S
H743 C758 0.960 . S
H744 C758 0.960 1_565 S
H745 C758 0.960 . S
C746 H738 0.929 . S
C746 C747 1.377 . S
C746 C748 1.384 . S
C747 C746 1.377 . S
C747 C753 1.390 1_565 S
C748 H739 0.930 . S
C748 C746 1.384 . S
C748 C749 1.372 . S
C749 C748 1.372 . S
C749 C750 1.400 1_565 S
C749 C754 1.490 . S
C750 H740 0.930 . S
C750 C749 1.400 1_545 S
C750 C753 1.386 . S
H751 C767 0.930 . S
H752 C768 0.931 . S
C753 H741 0.929 . S
C753 C747 1.390 1_545 S
C753 C750 1.386 . S
C754 C749 1.490 . S
C754 C756 1.395 . S
C754 C757 1.403 . S
H755 C761 0.930 . S
C756 H742 0.930 . S
C756 C754 1.395 . S
C756 C759 1.403 . S
C757 C754 1.403 . S
C757 C758 1.524 1_565 S
C757 C761 1.400 . S
C758 H743 0.960 . S
C758 H744 0.960 1_545 S
C758 H745 0.960 . S
C758 C757 1.524 1_545 S
C759 C756 1.403 . S
C759 C760 1.392 . S
C759 C763 1.495 . S
C760 C759 1.392 . S
C760 C761 1.385 . S
C760 C762 1.478 . S
C761 H755 0.930 . S
C761 C757 1.400 . S
C761 C760 1.385 . S
C762 C760 1.478 . S
C762 C764 1.381 . S
C762 C768 1.383 . S
C763 C759 1.495 . S
C763 H769 0.959 . S
C763 H770 0.961 . S
C763 H771 0.960 . S
C764 C762 1.381 . S
C764 C765 1.394 . S
C764 H772 0.930 . S
C765 C764 1.394 . S
C765 C766 1.383 . S
C765 H773 0.929 . S
C766 C765 1.383 . S
C766 C767 1.377 . S
C767 H751 0.930 . S
C767 C766 1.377 . S
C767 C768 1.379 . S
C768 H752 0.931 . S
C768 C762 1.383 . S
C768 C767 1.379 . S
H769 C763 0.959 . S
H770 C763 0.961 . S
H771 C763 0.960 . S
H772 C764 0.930 . S
H773 C765 0.929 . S
H774 C782 0.881 1_655 S
H775 C784 0.930 1_655 S
H776 C786 0.930 . S
H777 C789 0.929 . S
H778 C792 0.930 . S
H779 C794 0.960 . S
H780 C794 0.960 . S
H781 C794 0.960 . S
C782 H774 0.881 1_455 S
C782 C783 1.427 . S
C782 C784 1.384 . S
C783 C782 1.427 . S
C783 C789 1.390 . S
C784 H775 0.930 1_455 S
C784 C782 1.384 . S
C784 C785 1.372 . S
C785 C784 1.372 . S
C785 C786 1.400 . S
C785 C790 1.490 . S
C786 H776 0.930 . S
C786 C785 1.400 . S
C786 C789 1.386 . S
H787 C803 0.930 . S
H788 C804 0.931 . S
C789 H777 0.929 . S
C789 C783 1.390 . S
C789 C786 1.386 . S
C790 C785 1.490 . S
C790 C792 1.395 . S
C790 C793 1.403 . S
H791 C797 0.930 . S
C792 H778 0.930 . S
C792 C790 1.395 . S
C792 C795 1.403 . S
C793 C790 1.403 . S
C793 C794 1.524 . S
C793 C797 1.400 . S
C794 H779 0.960 . S
C794 H780 0.960 . S
C794 H781 0.960 . S
C794 C793 1.524 . S
C795 C792 1.403 . S
C795 C796 1.392 . S
C795 C799 1.495 . S
C796 C795 1.392 . S
C796 C797 1.385 . S
C796 C798 1.478 . S
C797 H791 0.930 . S
C797 C793 1.400 . S
C797 C796 1.385 . S
C798 C796 1.478 . S
C798 C800 1.381 . S
C798 C804 1.383 . S
C799 C795 1.495 . S
C799 H805 0.959 . S
C799 H806 0.961 . S
C799 H807 0.960 . S
C800 C798 1.381 . S
C800 C801 1.394 . S
C800 H808 0.930 . S
C801 C800 1.394 . S
C801 C802 1.383 . S
C801 H809 0.929 . S
C802 C801 1.383 . S
C802 C803 1.377 . S
C803 H787 0.930 . S
C803 C802 1.377 . S
C803 C804 1.379 . S
C804 H788 0.931 . S
C804 C798 1.383 . S
C804 C803 1.379 . S
H805 C799 0.959 . S
H806 C799 0.961 . S
H807 C799 0.960 . S
H808 C800 0.930 . S
H809 C801 0.929 . S
H810 C818 0.929 . S
H811 C820 0.930 . S
H812 C822 0.930 . S
H813 C825 0.929 . S
H814 C828 0.930 . S
H815 C830 0.960 . S
H816 C830 0.960 . S
H817 C830 0.960 . S
C818 H810 0.929 . S
C818 C819 1.377 . S
C818 C820 1.384 . S
C819 C818 1.377 . S
C819 C825 1.390 . S
C820 H811 0.930 . S
C820 C818 1.384 . S
C820 C821 1.372 . S
C821 C820 1.372 . S
C821 C822 1.400 . S
C821 C826 1.490 . S
C822 H812 0.930 . S
C822 C821 1.400 . S
C822 C825 1.386 . S
H823 C839 0.930 . S
H824 C840 0.931 . S
C825 H813 0.929 . S
C825 C819 1.390 . S
C825 C822 1.386 . S
C826 C821 1.490 . S
C826 C828 1.395 . S
C826 C829 1.403 . S
H827 C833 0.930 . S
C828 H814 0.930 . S
C828 C826 1.395 . S
C828 C831 1.403 . S
C829 C826 1.403 . S
C829 C830 1.524 . S
C829 C833 1.400 . S
C830 H815 0.960 . S
C830 H816 0.960 . S
C830 H817 0.960 . S
C830 C829 1.524 . S
C831 C828 1.403 . S
C831 C832 1.392 . S
C831 C835 1.495 . S
C832 C831 1.392 . S
C832 C833 1.385 . S
C832 C834 1.478 . S
C833 H827 0.930 . S
C833 C829 1.400 . S
C833 C832 1.385 . S
C834 C832 1.478 . S
C834 C836 1.381 . S
C834 C840 1.383 . S
C835 C831 1.495 . S
C835 H841 0.959 . S
C835 H842 0.961 . S
C835 H843 0.960 . S
C836 C834 1.381 . S
C836 C837 1.394 . S
C836 H844 0.930 . S
C837 C836 1.394 . S
C837 C838 1.383 . S
C837 H845 0.929 . S
C838 C837 1.383 . S
C838 C839 1.377 . S
C839 H823 0.930 . S
C839 C838 1.377 . S
C839 C840 1.379 . S
C840 H824 0.931 . S
C840 C834 1.383 . S
C840 C839 1.379 . S
H841 C835 0.959 . S
H842 C835 0.961 . S
H843 C835 0.960 . S
H844 C836 0.930 . S
H845 C837 0.929 . S
H846 C854 0.929 . S
H847 C856 0.930 . S
H848 C858 0.930 . S
H849 C861 0.929 . S
H850 C864 0.930 . S
H851 C866 0.960 . S
H852 C866 0.960 . S
H853 C866 0.960 . S
C854 H846 0.929 . S
C854 C855 1.377 . S
C854 C856 1.384 . S
C855 C854 1.377 . S
C855 C861 1.390 . S
C856 H847 0.930 . S
C856 C854 1.384 . S
C856 C857 1.372 . S
C857 C856 1.372 . S
C857 C858 1.400 . S
C857 C862 1.490 . S
C858 H848 0.930 . S
C858 C857 1.400 . S
C858 C861 1.386 . S
H859 C875 0.930 . S
H860 C876 0.931 . S
C861 H849 0.929 . S
C861 C855 1.390 . S
C861 C858 1.386 . S
C862 C857 1.490 . S
C862 C864 1.395 . S
C862 C865 1.403 . S
H863 C869 0.930 . S
C864 H850 0.930 . S
C864 C862 1.395 . S
C864 C867 1.403 . S
C865 C862 1.403 . S
C865 C866 1.524 . S
C865 C869 1.400 . S
C866 H851 0.960 . S
C866 H852 0.960 . S
C866 H853 0.960 . S
C866 C865 1.524 . S
C867 C864 1.403 . S
C867 C868 1.392 . S
C867 C871 1.495 . S
C868 C867 1.392 . S
C868 C869 1.385 . S
C868 C870 1.478 . S
C869 H863 0.930 . S
C869 C865 1.400 . S
C869 C868 1.385 . S
C870 C868 1.478 . S
C870 C872 1.381 . S
C870 C876 1.383 . S
C871 C867 1.495 . S
C871 H877 0.959 . S
C871 H878 0.961 . S
C871 H879 0.960 . S
C872 C870 1.381 . S
C872 C873 1.394 . S
C872 H880 0.930 . S
C873 C872 1.394 . S
C873 C874 1.383 . S
C873 H881 0.929 . S
C874 C873 1.383 . S
C874 C875 1.377 . S
C875 H859 0.930 . S
C875 C874 1.377 . S
C875 C876 1.379 . S
C876 H860 0.931 . S
C876 C870 1.383 . S
C876 C875 1.379 . S
H877 C871 0.959 . S
H878 C871 0.961 . S
H879 C871 0.960 . S
H880 C872 0.930 . S
H881 C873 0.929 . S
H882 C890 0.929 . S
H883 C892 0.930 . S
H884 C894 0.930 . S
H885 C897 0.929 . S
H886 C900 0.930 . S
H887 C902 0.960 . S
H888 C902 0.960 . S
H889 C902 0.960 . S
C890 H882 0.929 . S
C890 C891 1.377 . S
C890 C892 1.384 . S
C891 C890 1.377 . S
C891 C897 1.390 . S
C892 H883 0.930 . S
C892 C890 1.384 . S
C892 C893 1.372 . S
C893 C892 1.372 . S
C893 C894 1.400 . S
C893 C898 1.490 . S
C894 H884 0.930 . S
C894 C893 1.400 . S
C894 C897 1.386 . S
H895 C911 0.930 . S
H896 C912 0.931 . S
C897 H885 0.929 . S
C897 C891 1.390 . S
C897 C894 1.386 . S
C898 C893 1.490 . S
C898 C900 1.395 1_545 S
C898 C901 1.403 . S
H899 C905 0.930 . S
C900 H886 0.930 . S
C900 C898 1.395 1_565 S
C900 C903 1.403 . S
C901 C898 1.403 . S
C901 C902 1.524 . S
C901 C905 1.400 . S
C902 H887 0.960 . S
C902 H888 0.960 . S
C902 H889 0.960 . S
C902 C901 1.524 . S
C903 C900 1.403 . S
C903 C904 1.392 . S
C903 C907 1.495 . S
C904 C903 1.392 . S
C904 C905 1.385 1_565 S
C904 C906 1.478 . S
C905 H899 0.930 . S
C905 C901 1.400 . S
C905 C904 1.385 1_545 S
C906 C904 1.478 . S
C906 C908 1.381 . S
C906 C912 1.383 . S
C907 C903 1.495 . S
C907 H913 0.959 . S
C907 H914 0.961 . S
C907 H915 0.960 . S
C908 C906 1.381 . S
C908 C909 1.394 . S
C908 H916 0.930 . S
C909 C908 1.394 . S
C909 C910 1.383 . S
C909 H917 0.929 . S
C910 C909 1.383 . S
C910 C911 1.377 . S
C911 H895 0.930 . S
C911 C910 1.377 . S
C911 C912 1.379 . S
C912 H896 0.931 . S
C912 C906 1.383 . S
C912 C911 1.379 . S
H913 C907 0.959 . S
H914 C907 0.961 . S
H915 C907 0.960 . S
H916 C908 0.930 . S
H917 C909 0.929 . S
H918 C926 0.929 . S
H919 C928 0.930 . S
H920 C930 0.930 . S
H921 C933 0.929 . S
H922 C936 0.930 . S
H923 C938 0.960 . S
H924 C938 0.960 . S
H925 C938 0.960 . S
C926 H918 0.929 . S
C926 C927 1.377 . S
C926 C928 1.384 . S
C927 C926 1.377 . S
C927 C933 1.390 . S
C928 H919 0.930 . S
C928 C926 1.384 . S
C928 C929 1.372 . S
C929 C928 1.372 . S
C929 C930 1.400 . S
C929 C934 1.490 . S
C930 H920 0.930 . S
C930 C929 1.400 . S
C930 C933 1.386 . S
H931 C947 0.930 . S
H932 C948 0.931 . S
C933 H921 0.929 . S
C933 C927 1.390 . S
C933 C930 1.386 . S
C934 C929 1.490 . S
C934 C936 1.395 . S
C934 C937 1.403 . S
H935 C941 0.930 . S
C936 H922 0.930 . S
C936 C934 1.395 . S
C936 C939 1.403 1_455 S
C937 C934 1.403 . S
C937 C938 1.524 . S
C937 C941 1.400 . S
C938 H923 0.960 . S
C938 H924 0.960 . S
C938 H925 0.960 . S
C938 C937 1.524 . S
C939 C936 1.403 1_655 S
C939 C940 1.392 . S
C939 C943 1.495 . S
C940 C939 1.392 . S
C940 C941 1.385 1_655 S
C940 C942 1.478 . S
C941 H935 0.930 . S
C941 C937 1.400 . S
C941 C940 1.385 1_455 S
C942 C940 1.478 . S
C942 C944 1.381 . S
C942 C948 1.383 . S
C943 C939 1.495 . S
C943 H949 0.959 . S
C943 H950 0.961 . S
C943 H951 0.960 . S
C944 C942 1.381 . S
C944 C945 1.394 . S
C944 H952 0.930 1_655 S
C945 C944 1.394 . S
C945 C946 1.383 . S
C945 H953 0.929 . S
C946 C945 1.383 . S
C946 C947 1.377 . S
C947 H931 0.930 . S
C947 C946 1.377 . S
C947 C948 1.379 . S
C948 H932 0.931 . S
C948 C942 1.383 . S
C948 C947 1.379 . S
H949 C943 0.959 . S
H950 C943 0.961 . S
H951 C943 0.960 . S
H952 C944 0.930 1_455 S
H953 C945 0.929 . S
H954 C962 0.929 . S
H955 C964 0.930 . S
H956 C966 0.930 . S
H957 C969 0.929 . S
H958 C972 0.930 . S
H959 C974 0.960 . S
H960 C974 0.960 . S
H961 C974 0.960 . S
C962 H954 0.929 . S
C962 C963 1.377 . S
C962 C964 1.384 . S
C963 C962 1.377 . S
C963 C969 1.390 . S
C964 H955 0.930 . S
C964 C962 1.384 . S
C964 C965 1.372 . S
C965 C964 1.372 . S
C965 C966 1.400 . S
C965 C970 1.490 . S
C966 H956 0.930 . S
C966 C965 1.400 . S
C966 C969 1.386 . S
H967 C983 0.930 . S
H968 C984 0.931 . S
C969 H957 0.929 . S
C969 C963 1.390 . S
C969 C966 1.386 . S
C970 C965 1.490 . S
C970 C972 1.395 . S
C970 C973 1.403 . S
H971 C977 0.930 . S
C972 H958 0.930 . S
C972 C970 1.395 . S
C972 C975 1.403 . S
C973 C970 1.403 . S
C973 C974 1.524 . S
C973 C977 1.400 . S
C974 H959 0.960 . S
C974 H960 0.960 . S
C974 H961 0.960 . S
C974 C973 1.524 . S
C975 C972 1.403 . S
C975 C976 1.392 . S
C975 C979 1.495 . S
C976 C975 1.392 . S
C976 C977 1.385 . S
C976 C978 1.478 . S
C977 H971 0.930 . S
C977 C973 1.400 . S
C977 C976 1.385 . S
C978 C976 1.478 . S
C978 C980 1.381 . S
C978 C984 1.383 . S
C979 C975 1.495 . S
C979 H985 0.959 . S
C979 H986 0.961 . S
C979 H987 0.960 . S
C980 C978 1.381 . S
C980 C981 1.394 . S
C980 H988 0.930 . S
C981 C980 1.394 . S
C981 C982 1.383 . S
C981 H989 0.929 . S
C982 C981 1.383 . S
C982 C983 1.377 . S
C983 H967 0.930 . S
C983 C982 1.377 . S
C983 C984 1.379 . S
C984 H968 0.931 . S
C984 C978 1.383 . S
C984 C983 1.379 . S
H985 C979 0.959 . S
H986 C979 0.961 . S
H987 C979 0.960 . S
H988 C980 0.930 . S
H989 C981 0.929 . S
H990 C998 0.929 . S
H991 C1000 0.930 . S
H992 C1002 0.930 . S
H993 C1005 0.929 . S
H994 C1008 0.930 . S
H995 C1010 0.960 . S
H996 C1010 0.960 . S
H997 C1010 0.960 . S
C998 H990 0.929 . S
C998 C999 1.377 . S
C998 C1000 1.384 . S
C999 C998 1.377 . S
C999 C1005 1.390 . S
C1000 H991 0.930 . S
C1000 C998 1.384 . S
C1000 C1001 1.372 . S
C1001 C1000 1.372 . S
C1001 C1002 1.400 . S
C1001 C1006 1.490 . S
C1002 H992 0.930 . S
C1002 C1001 1.400 . S
C1002 C1005 1.386 . S
H1003 C1019 0.930 . S
H1004 C1020 0.931 . S
C1005 H993 0.929 . S
C1005 C999 1.390 . S
C1005 C1002 1.386 . S
C1006 C1001 1.490 . S
C1006 C1008 1.395 1_545 S
C1006 C1009 1.403 . S
H1007 C1013 0.930 . S
C1008 H994 0.930 . S
C1008 C1006 1.395 1_565 S
C1008 C1011 1.403 . S
C1009 C1006 1.403 . S
C1009 C1010 1.524 . S
C1009 C1013 1.400 . S
C1010 H995 0.960 . S
C1010 H996 0.960 . S
C1010 H997 0.960 . S
C1010 C1009 1.524 . S
C1011 C1008 1.403 . S
C1011 C1012 1.392 . S
C1011 C1015 1.495 . S
C1012 C1011 1.392 . S
C1012 C1013 1.385 1_565 S
C1012 C1014 1.478 . S
C1013 H1007 0.930 . S
C1013 C1009 1.400 . S
C1013 C1012 1.385 1_545 S
C1014 C1012 1.478 . S
C1014 C1016 1.381 . S
C1014 C1020 1.383 . S
C1015 C1011 1.495 . S
C1015 H1021 0.959 . S
C1015 H1022 0.961 . S
C1015 H1023 0.960 . S
C1016 C1014 1.381 . S
C1016 C1017 1.394 . S
C1016 H1024 0.930 . S
C1017 C1016 1.394 . S
C1017 C1018 1.383 . S
C1017 H1025 0.929 . S
C1018 C1017 1.383 . S
C1018 C1019 1.377 . S
C1019 H1003 0.930 . S
C1019 C1018 1.377 . S
C1019 C1020 1.379 . S
C1020 H1004 0.931 . S
C1020 C1014 1.383 . S
C1020 C1019 1.379 . S
H1021 C1015 0.959 . S
H1022 C1015 0.961 . S
H1023 C1015 0.960 . S
H1024 C1016 0.930 . S
H1025 C1017 0.929 . S
H1026 C1034 0.929 . S
H1027 C1036 0.930 . S
H1028 C1038 0.930 . S
H1029 C1041 0.929 . S
H1030 C1044 0.930 . S
H1031 C1046 0.960 . S
H1032 C1046 0.960 . S
H1033 C1046 0.960 . S
C1034 H1026 0.929 . S
C1034 C1035 1.377 . S
C1034 C1036 1.384 . S
C1035 C1034 1.377 . S
C1035 C1041 1.390 . S
C1036 H1027 0.930 . S
C1036 C1034 1.384 . S
C1036 C1037 1.372 . S
C1037 C1036 1.372 . S
C1037 C1038 1.400 . S
C1037 C1042 1.490 . S
C1038 H1028 0.930 . S
C1038 C1037 1.400 . S
C1038 C1041 1.386 . S
H1039 C1055 0.930 . S
H1040 C1056 0.931 . S
C1041 H1029 0.929 . S
C1041 C1035 1.390 . S
C1041 C1038 1.386 . S
C1042 C1037 1.490 . S
C1042 C1044 1.395 . S
C1042 C1045 1.403 1_455 S
H1043 C1049 0.930 . S
C1044 H1030 0.930 . S
C1044 C1042 1.395 . S
C1044 C1047 1.403 . S
C1045 C1042 1.403 1_655 S
C1045 C1046 1.524 . S
C1045 C1049 1.400 . S
C1046 H1031 0.960 . S
C1046 H1032 0.960 . S
C1046 H1033 0.960 . S
C1046 C1045 1.524 . S
C1047 C1044 1.403 . S
C1047 C1048 1.351 1_455 S
C1047 C1051 1.495 . S
C1048 C1047 1.351 1_655 S
C1048 C1049 1.414 . S
C1048 C1050 1.493 . S
C1049 H1043 0.930 . S
C1049 C1045 1.400 . S
C1049 C1048 1.414 . S
C1050 C1048 1.493 . S
C1050 C1052 1.381 . S
C1050 C1056 1.383 . S
C1051 C1047 1.495 . S
C1051 H1057 0.959 . S
C1051 H1058 0.961 . S
C1051 H1059 0.960 . S
C1052 C1050 1.381 . S
C1052 C1053 1.394 . S
C1052 H1060 0.930 1_655 S
C1053 C1052 1.394 . S
C1053 C1054 1.383 . S
C1053 H1061 0.929 . S
C1054 C1053 1.383 . S
C1054 C1055 1.377 . S
C1055 H1039 0.930 . S
C1055 C1054 1.377 . S
C1055 C1056 1.379 . S
C1056 H1040 0.931 . S
C1056 C1050 1.383 . S
C1056 C1055 1.379 . S
H1057 C1051 0.959 . S
H1058 C1051 0.961 . S
H1059 C1051 0.960 . S
H1060 C1052 0.930 1_455 S
H1061 C1053 0.929 . S
H1062 C1070 0.929 . S
H1063 C1072 0.930 . S
H1064 C1074 0.930 . S
H1065 C1077 0.929 . S
H1066 C1080 0.930 . S
H1067 C1082 0.960 . S
H1068 C1082 0.960 . S
H1069 C1082 0.960 . S
C1070 H1062 0.929 . S
C1070 C1071 1.377 . S
C1070 C1072 1.384 . S
C1071 C1070 1.377 . S
C1071 C1077 1.390 . S
C1072 H1063 0.930 . S
C1072 C1070 1.384 . S
C1072 C1073 1.372 . S
C1073 C1072 1.372 . S
C1073 C1074 1.400 . S
C1073 C1078 1.490 . S
C1074 H1064 0.930 . S
C1074 C1073 1.400 . S
C1074 C1077 1.386 . S
H1075 C1091 0.930 . S
H1076 C1092 0.931 . S
C1077 H1065 0.929 . S
C1077 C1071 1.390 . S
C1077 C1074 1.386 . S
C1078 C1073 1.490 . S
C1078 C1080 1.395 . S
C1078 C1081 1.403 . S
H1079 C1085 0.930 . S
C1080 H1066 0.930 . S
C1080 C1078 1.395 . S
C1080 C1083 1.403 . S
C1081 C1078 1.403 . S
C1081 C1082 1.524 . S
C1081 C1085 1.400 . S
C1082 H1067 0.960 . S
C1082 H1068 0.960 . S
C1082 H1069 0.960 . S
C1082 C1081 1.524 . S
C1083 C1080 1.403 . S
C1083 C1084 1.392 . S
C1083 C1087 1.495 . S
C1084 C1083 1.392 . S
C1084 C1085 1.385 . S
C1084 C1086 1.478 . S
C1085 H1079 0.930 . S
C1085 C1081 1.400 . S
C1085 C1084 1.385 . S
C1086 C1084 1.478 . S
C1086 C1088 1.381 . S
C1086 C1092 1.383 . S
C1087 C1083 1.495 . S
C1087 H1093 0.959 . S
C1087 H1094 0.961 . S
C1087 H1095 0.960 . S
C1088 C1086 1.381 . S
C1088 C1089 1.394 . S
C1088 H1096 0.930 . S
C1089 C1088 1.394 . S
C1089 C1090 1.383 . S
C1089 H1097 0.929 . S
C1090 C1089 1.383 . S
C1090 C1091 1.377 . S
C1091 H1075 0.930 . S
C1091 C1090 1.377 . S
C1091 C1092 1.379 . S
C1092 H1076 0.931 . S
C1092 C1086 1.383 . S
C1092 C1091 1.379 . S
H1093 C1087 0.959 . S
H1094 C1087 0.961 . S
H1095 C1087 0.960 . S
H1096 C1088 0.930 . S
H1097 C1089 0.929 . S
H1098 C1106 0.929 . S
H1099 C1108 0.930 . S
H1100 C1110 0.930 . S
H1101 C1113 0.929 . S
H1102 C1116 0.930 . S
H1103 C1118 0.960 . S
H1104 C1118 0.960 . S
H1105 C1118 0.960 . S
C1106 H1098 0.929 . S
C1106 C1107 1.377 . S
C1106 C1108 1.384 . S
C1107 C1106 1.377 . S
C1107 C1113 1.390 . S
C1108 H1099 0.930 . S
C1108 C1106 1.384 . S
C1108 C1109 1.372 . S
C1109 C1108 1.372 . S
C1109 C1110 1.400 . S
C1109 C1114 1.490 . S
C1110 H1100 0.930 . S
C1110 C1109 1.400 . S
C1110 C1113 1.386 . S
H1111 C1127 0.930 . S
H1112 C1128 0.931 . S
C1113 H1101 0.929 . S
C1113 C1107 1.390 . S
C1113 C1110 1.386 . S
C1114 C1109 1.490 . S
C1114 C1116 1.395 . S
C1114 C1117 1.403 . S
H1115 C1121 0.930 . S
C1116 H1102 0.930 . S
C1116 C1114 1.395 . S
C1116 C1119 1.403 . S
C1117 C1114 1.403 . S
C1117 C1118 1.524 . S
C1117 C1121 1.400 . S
C1118 H1103 0.960 . S
C1118 H1104 0.960 . S
C1118 H1105 0.960 . S
C1118 C1117 1.524 . S
C1119 C1116 1.403 . S
C1119 C1120 1.392 . S
C1119 C1123 1.495 . S
C1120 C1119 1.392 . S
C1120 C1121 1.385 . S
C1120 C1122 1.478 . S
C1121 H1115 0.930 . S
C1121 C1117 1.400 . S
C1121 C1120 1.385 . S
C1122 C1120 1.478 . S
C1122 C1124 1.381 . S
C1122 C1128 1.383 . S
C1123 C1119 1.495 . S
C1123 H1129 0.959 . S
C1123 H1130 0.961 . S
C1123 H1131 0.960 . S
C1124 C1122 1.381 . S
C1124 C1125 1.394 . S
C1124 H1132 0.930 . S
C1125 C1124 1.394 . S
C1125 C1126 1.383 . S
C1125 H1133 0.929 . S
C1126 C1125 1.383 . S
C1126 C1127 1.377 . S
C1127 H1111 0.930 . S
C1127 C1126 1.377 . S
C1127 C1128 1.379 . S
C1128 H1112 0.931 . S
C1128 C1122 1.383 . S
C1128 C1127 1.379 . S
H1129 C1123 0.959 . S
H1130 C1123 0.961 . S
H1131 C1123 0.960 . S
H1132 C1124 0.930 . S
H1133 C1125 0.929 . S
H1134 C1142 0.929 . S
H1135 C1144 0.930 . S
H1136 C1146 0.930 . S
H1137 C1149 0.929 . S
H1138 C1152 0.930 . S
H1139 C1154 0.960 . S
H1140 C1154 0.960 . S
H1141 C1154 0.960 . S
C1142 H1134 0.929 . S
C1142 C1143 1.377 . S
C1142 C1144 1.384 . S
C1143 C1142 1.377 . S
C1143 C1149 1.390 . S
C1144 H1135 0.930 . S
C1144 C1142 1.384 . S
C1144 C1145 1.372 . S
C1145 C1144 1.372 . S
C1145 C1146 1.400 . S
C1145 C1150 1.490 . S
C1146 H1136 0.930 . S
C1146 C1145 1.400 . S
C1146 C1149 1.386 . S
H1147 C1163 0.930 . S
H1148 C1164 0.931 . S
C1149 H1137 0.929 . S
C1149 C1143 1.390 . S
C1149 C1146 1.386 . S
C1150 C1145 1.490 . S
C1150 C1152 1.395 . S
C1150 C1153 1.403 . S
H1151 C1157 0.930 . S
C1152 H1138 0.930 . S
C1152 C1150 1.395 . S
C1152 C1155 1.403 . S
C1153 C1150 1.403 . S
C1153 C1154 1.524 . S
C1153 C1157 1.400 . S
C1154 H1139 0.960 . S
C1154 H1140 0.960 . S
C1154 H1141 0.960 . S
C1154 C1153 1.524 . S
C1155 C1152 1.403 . S
C1155 C1156 1.392 . S
C1155 C1159 1.495 . S
C1156 C1155 1.392 . S
C1156 C1157 1.385 . S
C1156 C1158 1.478 . S
C1157 H1151 0.930 . S
C1157 C1153 1.400 . S
C1157 C1156 1.385 . S
C1158 C1156 1.478 . S
C1158 C1160 1.381 . S
C1158 C1164 1.383 . S
C1159 C1155 1.495 . S
C1159 H1165 0.959 . S
C1159 H1166 0.961 . S
C1159 H1167 0.960 . S
C1160 C1158 1.381 . S
C1160 C1161 1.394 . S
C1160 H1168 0.930 . S
C1161 C1160 1.394 . S
C1161 C1162 1.383 . S
C1161 H1169 0.929 . S
C1162 C1161 1.383 . S
C1162 C1163 1.377 . S
C1163 H1147 0.930 . S
C1163 C1162 1.377 . S
C1163 C1164 1.379 . S
C1164 H1148 0.931 . S
C1164 C1158 1.383 . S
C1164 C1163 1.379 . S
H1165 C1159 0.959 . S
H1166 C1159 0.961 . S
H1167 C1159 0.960 . S
H1168 C1160 0.930 . S
H1169 C1161 0.929 . S
H1170 C1178 0.929 . S
H1171 C1180 0.930 . S
H1172 C1182 0.930 . S
H1173 C1185 0.929 . S
H1174 C1188 0.930 . S
H1175 C1190 0.960 . S
H1176 C1190 0.960 . S
H1177 C1190 0.960 . S
C1178 H1170 0.929 . S
C1178 C1179 1.377 . S
C1178 C1180 1.384 . S
C1179 C1178 1.377 . S
C1179 C1185 1.390 . S
C1180 H1171 0.930 . S
C1180 C1178 1.384 . S
C1180 C1181 1.372 . S
C1181 C1180 1.372 . S
C1181 C1182 1.400 . S
C1181 C1186 1.490 . S
C1182 H1172 0.930 . S
C1182 C1181 1.400 . S
C1182 C1185 1.386 . S
H1183 C1199 0.930 . S
H1184 C1200 0.931 . S
C1185 H1173 0.929 . S
C1185 C1179 1.390 . S
C1185 C1182 1.386 . S
C1186 C1181 1.490 . S
C1186 C1188 1.395 . S
C1186 C1189 1.403 . S
H1187 C1193 0.930 . S
C1188 H1174 0.930 . S
C1188 C1186 1.395 . S
C1188 C1191 1.403 . S
C1189 C1186 1.403 . S
C1189 C1190 1.524 . S
C1189 C1193 1.400 . S
C1190 H1175 0.960 . S
C1190 H1176 0.960 . S
C1190 H1177 0.960 . S
C1190 C1189 1.524 . S
C1191 C1188 1.403 . S
C1191 C1192 1.392 . S
C1191 C1195 1.495 . S
C1192 C1191 1.392 . S
C1192 C1193 1.385 . S
C1192 C1194 1.478 . S
C1193 H1187 0.930 . S
C1193 C1189 1.400 . S
C1193 C1192 1.385 . S
C1194 C1192 1.478 . S
C1194 C1196 1.381 . S
C1194 C1200 1.383 . S
C1195 C1191 1.495 . S
C1195 H1201 0.959 . S
C1195 H1202 0.961 . S
C1195 H1203 0.960 . S
C1196 C1194 1.381 . S
C1196 C1197 1.394 . S
C1196 H1204 0.930 . S
C1197 C1196 1.394 . S
C1197 C1198 1.383 . S
C1197 H1205 0.929 . S
C1198 C1197 1.383 . S
C1198 C1199 1.377 . S
C1199 H1183 0.930 . S
C1199 C1198 1.377 . S
C1199 C1200 1.379 . S
C1200 H1184 0.931 . S
C1200 C1194 1.383 . S
C1200 C1199 1.379 . S
H1201 C1195 0.959 . S
H1202 C1195 0.961 . S
H1203 C1195 0.960 . S
H1204 C1196 0.930 . S
H1205 C1197 0.929 . S
H1206 C1214 0.929 . S
H1207 C1216 0.930 . S
H1208 C1218 0.930 . S
H1209 C1221 0.929 . S
H1210 C1224 0.930 . S
H1211 C1226 0.960 . S
H1212 C1226 0.960 . S
H1213 C1226 0.960 . S
C1214 H1206 0.929 . S
C1214 C1215 1.377 . S
C1214 C1216 1.384 . S
C1215 C1214 1.377 . S
C1215 C1221 1.390 . S
C1216 H1207 0.930 . S
C1216 C1214 1.384 . S
C1216 C1217 1.372 . S
C1217 C1216 1.372 . S
C1217 C1218 1.400 . S
C1217 C1222 1.490 . S
C1218 H1208 0.930 . S
C1218 C1217 1.400 . S
C1218 C1221 1.386 . S
H1219 C1235 0.930 . S
H1220 C1236 0.931 . S
C1221 H1209 0.929 . S
C1221 C1215 1.390 . S
C1221 C1218 1.386 . S
C1222 C1217 1.490 . S
C1222 C1224 1.395 . S
C1222 C1225 1.403 . S
H1223 C1229 0.930 . S
C1224 H1210 0.930 . S
C1224 C1222 1.395 . S
C1224 C1227 1.403 . S
C1225 C1222 1.403 . S
C1225 C1226 1.524 . S
C1225 C1229 1.400 . S
C1226 H1211 0.960 . S
C1226 H1212 0.960 . S
C1226 H1213 0.960 . S
C1226 C1225 1.524 . S
C1227 C1224 1.403 . S
C1227 C1228 1.392 . S
C1227 C1231 1.495 . S
C1228 C1227 1.392 . S
C1228 C1229 1.385 . S
C1228 C1230 1.478 . S
C1229 H1223 0.930 . S
C1229 C1225 1.400 . S
C1229 C1228 1.385 . S
C1230 C1228 1.478 . S
C1230 C1232 1.381 . S
C1230 C1236 1.383 . S
C1231 C1227 1.495 . S
C1231 H1237 0.959 . S
C1231 H1238 0.961 . S
C1231 H1239 0.960 . S
C1232 C1230 1.381 . S
C1232 C1233 1.394 . S
C1232 H1240 0.930 . S
C1233 C1232 1.394 . S
C1233 C1234 1.383 . S
C1233 H1241 0.929 . S
C1234 C1233 1.383 . S
C1234 C1235 1.377 . S
C1235 H1219 0.930 . S
C1235 C1234 1.377 . S
C1235 C1236 1.379 . S
C1236 H1220 0.931 . S
C1236 C1230 1.383 . S
C1236 C1235 1.379 . S
H1237 C1231 0.959 . S
H1238 C1231 0.961 . S
H1239 C1231 0.960 . S
H1240 C1232 0.930 . S
H1241 C1233 0.929 . S
H1242 C1250 0.929 . S
H1243 C1252 0.930 . S
H1244 C1254 0.930 . S
H1245 C1257 0.929 . S
H1246 C1260 0.930 . S
H1247 C1262 0.960 . S
H1248 C1262 0.960 . S
H1249 C1262 0.960 . S
C1250 H1242 0.929 . S
C1250 C1251 1.377 . S
C1250 C1252 1.384 . S
C1251 C1250 1.377 . S
C1251 C1257 1.390 . S
C1252 H1243 0.930 . S
C1252 C1250 1.384 . S
C1252 C1253 1.372 . S
C1253 C1252 1.372 . S
C1253 C1254 1.400 . S
C1253 C1258 1.490 . S
C1254 H1244 0.930 . S
C1254 C1253 1.400 . S
C1254 C1257 1.386 . S
H1255 C1271 0.930 . S
H1256 C1272 0.931 . S
C1257 H1245 0.929 . S
C1257 C1251 1.390 . S
C1257 C1254 1.386 . S
C1258 C1253 1.490 . S
C1258 C1260 1.395 . S
C1258 C1261 1.403 . S
H1259 C1265 0.930 . S
C1260 H1246 0.930 . S
C1260 C1258 1.395 . S
C1260 C1263 1.403 . S
C1261 C1258 1.403 . S
C1261 C1262 1.524 . S
C1261 C1265 1.400 . S
C1262 H1247 0.960 . S
C1262 H1248 0.960 . S
C1262 H1249 0.960 . S
C1262 C1261 1.524 . S
C1263 C1260 1.403 . S
C1263 C1264 1.392 . S
C1263 C1267 1.495 . S
C1264 C1263 1.392 . S
C1264 C1265 1.385 . S
C1264 C1266 1.478 . S
C1265 H1259 0.930 . S
C1265 C1261 1.400 . S
C1265 C1264 1.385 . S
C1266 C1264 1.478 . S
C1266 C1268 1.381 . S
C1266 C1272 1.383 . S
C1267 C1263 1.495 . S
C1267 H1273 0.959 . S
C1267 H1274 0.961 . S
C1267 H1275 0.960 . S
C1268 C1266 1.381 . S
C1268 C1269 1.394 . S
C1268 H1276 0.930 . S
C1269 C1268 1.394 . S
C1269 C1270 1.383 . S
C1269 H1277 0.929 . S
C1270 C1269 1.383 . S
C1270 C1271 1.377 . S
C1271 H1255 0.930 . S
C1271 C1270 1.377 . S
C1271 C1272 1.379 . S
C1272 H1256 0.931 . S
C1272 C1266 1.383 . S
C1272 C1271 1.379 . S
H1273 C1267 0.959 . S
H1274 C1267 0.961 . S
H1275 C1267 0.960 . S
H1276 C1268 0.930 . S
H1277 C1269 0.929 . S
H1278 C1286 0.929 . S
H1279 C1288 0.930 . S
H1280 C1290 0.930 . S
H1281 C1293 0.929 . S
H1282 C1296 0.930 . S
H1283 C1298 0.960 . S
H1284 C1298 0.960 . S
H1285 C1298 0.960 . S
C1286 H1278 0.929 . S
C1286 C1287 1.377 . S
C1286 C1288 1.384 . S
C1287 C1286 1.377 . S
C1287 C1293 1.390 . S
C1288 H1279 0.930 . S
C1288 C1286 1.384 . S
C1288 C1289 1.372 . S
C1289 C1288 1.372 . S
C1289 C1290 1.400 . S
C1289 C1294 1.490 . S
C1290 H1280 0.930 . S
C1290 C1289 1.400 . S
C1290 C1293 1.386 . S
H1291 C1307 0.930 . S
H1292 C1308 0.931 . S
C1293 H1281 0.929 . S
C1293 C1287 1.390 . S
C1293 C1290 1.386 . S
C1294 C1289 1.490 . S
C1294 C1296 1.395 . S
C1294 C1297 1.403 . S
H1295 C1301 0.930 . S
C1296 H1282 0.930 . S
C1296 C1294 1.395 . S
C1296 C1299 1.403 . S
C1297 C1294 1.403 . S
C1297 C1298 1.524 . S
C1297 C1301 1.400 . S
C1298 H1283 0.960 . S
C1298 H1284 0.960 . S
C1298 H1285 0.960 . S
C1298 C1297 1.524 . S
C1299 C1296 1.403 . S
C1299 C1300 1.392 . S
C1299 C1303 1.495 . S
C1300 C1299 1.392 . S
C1300 C1301 1.385 . S
C1300 C1302 1.478 . S
C1301 H1295 0.930 . S
C1301 C1297 1.400 . S
C1301 C1300 1.385 . S
C1302 C1300 1.478 . S
C1302 C1304 1.381 . S
C1302 C1308 1.383 . S
C1303 C1299 1.495 . S
C1303 H1309 0.959 . S
C1303 H1310 0.961 . S
C1303 H1311 0.960 . S
C1304 C1302 1.381 . S
C1304 C1305 1.394 . S
C1304 H1312 0.930 . S
C1305 C1304 1.394 . S
C1305 C1306 1.383 . S
C1305 H1313 0.929 . S
C1306 C1305 1.383 . S
C1306 C1307 1.377 . S
C1307 H1291 0.930 . S
C1307 C1306 1.377 . S
C1307 C1308 1.379 . S
C1308 H1292 0.931 . S
C1308 C1302 1.383 . S
C1308 C1307 1.379 . S
H1309 C1303 0.959 . S
H1310 C1303 0.961 . S
H1311 C1303 0.960 . S
H1312 C1304 0.930 . S
H1313 C1305 0.929 . S
H1314 C1322 0.929 . S
H1315 C1324 0.930 . S
H1316 C1326 0.930 . S
H1317 C1329 0.929 . S
H1318 C1332 0.930 . S
H1319 C1334 0.960 . S
H1320 C1334 0.960 . S
H1321 C1334 0.960 . S
C1322 H1314 0.929 . S
C1322 C1323 1.377 . S
C1322 C1324 1.384 . S
C1323 C1322 1.377 . S
C1323 C1329 1.390 . S
C1324 H1315 0.930 . S
C1324 C1322 1.384 . S
C1324 C1325 1.372 . S
C1325 C1324 1.372 . S
C1325 C1326 1.400 . S
C1325 C1330 1.490 . S
C1326 H1316 0.930 . S
C1326 C1325 1.400 . S
C1326 C1329 1.386 . S
H1327 C1343 0.930 . S
H1328 C1344 0.931 . S
C1329 H1317 0.929 . S
C1329 C1323 1.390 . S
C1329 C1326 1.386 . S
C1330 C1325 1.490 . S
C1330 C1332 1.395 . S
C1330 C1333 1.403 . S
H1331 C1337 0.930 . S
C1332 H1318 0.930 . S
C1332 C1330 1.395 . S
C1332 C1335 1.403 . S
C1333 C1330 1.403 . S
C1333 C1334 1.524 . S
C1333 C1337 1.400 . S
C1334 H1319 0.960 . S
C1334 H1320 0.960 . S
C1334 H1321 0.960 . S
C1334 C1333 1.524 . S
C1335 C1332 1.403 . S
C1335 C1336 1.392 . S
C1335 C1339 1.495 . S
C1336 C1335 1.392 . S
C1336 C1337 1.385 . S
C1336 C1338 1.478 . S
C1337 H1331 0.930 . S
C1337 C1333 1.400 . S
C1337 C1336 1.385 . S
C1338 C1336 1.478 . S
C1338 C1340 1.381 . S
C1338 C1344 1.383 . S
C1339 C1335 1.495 . S
C1339 H1345 0.959 . S
C1339 H1346 0.961 . S
C1339 H1347 0.960 . S
C1340 C1338 1.381 . S
C1340 C1341 1.394 . S
C1340 H1348 0.930 . S
C1341 C1340 1.394 . S
C1341 C1342 1.383 . S
C1341 H1349 0.929 . S
C1342 C1341 1.383 . S
C1342 C1343 1.377 . S
C1343 H1327 0.930 . S
C1343 C1342 1.377 . S
C1343 C1344 1.379 . S
C1344 H1328 0.931 . S
C1344 C1338 1.383 . S
C1344 C1343 1.379 . S
H1345 C1339 0.959 . S
H1346 C1339 0.961 . S
H1347 C1339 0.960 . S
H1348 C1340 0.930 . S
H1349 C1341 0.929 . S
H1350 C1358 0.929 . S
H1351 C1360 0.930 . S
H1352 C1362 0.930 . S
H1353 C1365 0.929 . S
H1354 C1368 0.930 . S
H1355 C1370 0.960 . S
H1356 C1370 0.960 . S
H1357 C1370 0.960 . S
C1358 H1350 0.929 . S
C1358 C1359 1.377 . S
C1358 C1360 1.384 . S
C1359 C1358 1.377 . S
C1359 C1365 1.390 . S
C1360 H1351 0.930 . S
C1360 C1358 1.384 . S
C1360 C1361 1.372 . S
C1361 C1360 1.372 . S
C1361 C1362 1.400 . S
C1361 C1366 1.490 . S
C1362 H1352 0.930 . S
C1362 C1361 1.400 . S
C1362 C1365 1.386 . S
H1363 C1379 0.930 . S
H1364 C1380 0.931 . S
C1365 H1353 0.929 . S
C1365 C1359 1.390 . S
C1365 C1362 1.386 . S
C1366 C1361 1.490 . S
C1366 C1368 1.395 . S
C1366 C1369 1.403 . S
H1367 C1373 0.930 . S
C1368 H1354 0.930 . S
C1368 C1366 1.395 . S
C1368 C1371 1.403 . S
C1369 C1366 1.403 . S
C1369 C1370 1.524 . S
C1369 C1373 1.400 . S
C1370 H1355 0.960 . S
C1370 H1356 0.960 . S
C1370 H1357 0.960 . S
C1370 C1369 1.524 . S
C1371 C1368 1.403 . S
C1371 C1372 1.392 . S
C1371 C1375 1.495 . S
C1372 C1371 1.392 . S
C1372 C1373 1.385 . S
C1372 C1374 1.478 . S
C1373 H1367 0.930 . S
C1373 C1369 1.400 . S
C1373 C1372 1.385 . S
C1374 C1372 1.478 . S
C1374 C1376 1.381 . S
C1374 C1380 1.383 . S
C1375 C1371 1.495 . S
C1375 H1381 0.959 . S
C1375 H1382 0.961 . S
C1375 H1383 0.960 . S
C1376 C1374 1.381 . S
C1376 C1377 1.394 . S
C1376 H1384 0.930 . S
C1377 C1376 1.394 . S
C1377 C1378 1.383 . S
C1377 H1385 0.929 . S
C1378 C1377 1.383 . S
C1378 C1379 1.377 . S
C1379 H1363 0.930 . S
C1379 C1378 1.377 . S
C1379 C1380 1.379 . S
C1380 H1364 0.931 . S
C1380 C1374 1.383 . S
C1380 C1379 1.379 . S
H1381 C1375 0.959 . S
H1382 C1375 0.961 . S
H1383 C1375 0.960 . S
H1384 C1376 0.930 . S
H1385 C1377 0.929 . S
H1386 C1394 0.929 . S
H1387 C1396 0.930 . S
H1388 C1398 0.930 . S
H1389 C1401 0.929 . S
H1390 C1404 0.930 . S
H1391 C1406 0.960 . S
H1392 C1406 0.960 . S
H1393 C1406 0.960 . S
C1394 H1386 0.929 . S
C1394 C1395 1.377 . S
C1394 C1396 1.384 . S
C1395 C1394 1.377 . S
C1395 C1401 1.390 . S
C1396 H1387 0.930 . S
C1396 C1394 1.384 . S
C1396 C1397 1.372 . S
C1397 C1396 1.372 . S
C1397 C1398 1.400 . S
C1397 C1402 1.490 . S
C1398 H1388 0.930 . S
C1398 C1397 1.400 . S
C1398 C1401 1.386 . S
H1399 C1415 0.930 . S
H1400 C1416 0.931 . S
C1401 H1389 0.929 . S
C1401 C1395 1.390 . S
C1401 C1398 1.386 . S
C1402 C1397 1.490 . S
C1402 C1404 1.395 . S
C1402 C1405 1.403 . S
H1403 C1409 0.930 . S
C1404 H1390 0.930 . S
C1404 C1402 1.395 . S
C1404 C1407 1.403 . S
C1405 C1402 1.403 . S
C1405 C1406 1.524 . S
C1405 C1409 1.400 . S
C1406 H1391 0.960 . S
C1406 H1392 0.960 . S
C1406 H1393 0.960 . S
C1406 C1405 1.524 . S
C1407 C1404 1.403 . S
C1407 C1408 1.392 . S
C1407 C1411 1.495 . S
C1408 C1407 1.392 . S
C1408 C1409 1.385 . S
C1408 C1410 1.478 . S
C1409 H1403 0.930 . S
C1409 C1405 1.400 . S
C1409 C1408 1.385 . S
C1410 C1408 1.478 . S
C1410 C1412 1.381 . S
C1410 C1416 1.383 . S
C1411 C1407 1.495 . S
C1411 H1417 0.959 . S
C1411 H1418 0.961 . S
C1411 H1419 0.960 . S
C1412 C1410 1.381 . S
C1412 C1413 1.394 . S
C1412 H1420 0.930 . S
C1413 C1412 1.394 . S
C1413 C1414 1.383 . S
C1413 H1421 0.929 . S
C1414 C1413 1.383 . S
C1414 C1415 1.377 . S
C1415 H1399 0.930 . S
C1415 C1414 1.377 . S
C1415 C1416 1.379 . S
C1416 H1400 0.931 . S
C1416 C1410 1.383 . S
C1416 C1415 1.379 . S
H1417 C1411 0.959 . S
H1418 C1411 0.961 . S
H1419 C1411 0.960 . S
H1420 C1412 0.930 . S
H1421 C1413 0.929 . S
H1422 C1430 0.929 . S
H1423 C1432 0.930 . S
H1424 C1434 0.930 . S
H1425 C1437 0.929 . S
H1426 C1440 0.930 . S
H1427 C1442 0.960 . S
H1428 C1442 0.960 . S
H1429 C1442 0.960 . S
C1430 H1422 0.929 . S
C1430 C1431 1.377 . S
C1430 C1432 1.384 . S
C1431 C1430 1.377 . S
C1431 C1437 1.390 . S
C1432 H1423 0.930 . S
C1432 C1430 1.384 . S
C1432 C1433 1.372 . S
C1433 C1432 1.372 . S
C1433 C1434 1.400 . S
C1433 C1438 1.490 . S
C1434 H1424 0.930 . S
C1434 C1433 1.400 . S
C1434 C1437 1.386 . S
H1435 C1451 0.930 . S
H1436 C1452 0.931 . S
C1437 H1425 0.929 . S
C1437 C1431 1.390 . S
C1437 C1434 1.386 . S
C1438 C1433 1.490 . S
C1438 C1440 1.395 . S
C1438 C1441 1.403 . S
H1439 C1445 0.930 . S
C1440 H1426 0.930 . S
C1440 C1438 1.395 . S
C1440 C1443 1.403 . S
C1441 C1438 1.403 . S
C1441 C1442 1.524 . S
C1441 C1445 1.400 . S
C1442 H1427 0.960 . S
C1442 H1428 0.960 . S
C1442 H1429 0.960 . S
C1442 C1441 1.524 . S
C1443 C1440 1.403 . S
C1443 C1444 1.392 . S
C1443 C1447 1.495 . S
C1444 C1443 1.392 . S
C1444 C1445 1.385 . S
C1444 C1446 1.478 . S
C1445 H1439 0.930 . S
C1445 C1441 1.400 . S
C1445 C1444 1.385 . S
C1446 C1444 1.478 . S
C1446 C1448 1.381 . S
C1446 C1452 1.383 . S
C1447 C1443 1.495 . S
C1447 H1453 0.959 . S
C1447 H1454 0.961 . S
C1447 H1455 0.960 . S
C1448 C1446 1.381 . S
C1448 C1449 1.394 . S
C1448 H1456 0.930 . S
C1449 C1448 1.394 . S
C1449 C1450 1.383 . S
C1449 H1457 0.929 . S
C1450 C1449 1.383 . S
C1450 C1451 1.377 . S
C1451 H1435 0.930 . S
C1451 C1450 1.377 . S
C1451 C1452 1.379 . S
C1452 H1436 0.931 . S
C1452 C1446 1.383 . S
C1452 C1451 1.379 . S
H1453 C1447 0.959 . S
H1454 C1447 0.961 . S
H1455 C1447 0.960 . S
H1456 C1448 0.930 . S
H1457 C1449 0.929 . S
H1458 C1466 0.929 . S
H1459 C1468 0.930 . S
H1460 C1470 0.930 . S
H1461 C1473 0.929 . S
H1462 C1476 0.930 . S
H1463 C1478 0.960 . S
H1464 C1478 0.960 . S
H1465 C1478 0.960 . S
C1466 H1458 0.929 . S
C1466 C1467 1.377 . S
C1466 C1468 1.384 . S
C1467 C1466 1.377 . S
C1467 C1473 1.390 . S
C1468 H1459 0.930 . S
C1468 C1466 1.384 . S
C1468 C1469 1.372 . S
C1469 C1468 1.372 . S
C1469 C1470 1.400 . S
C1469 C1474 1.490 . S
C1470 H1460 0.930 . S
C1470 C1469 1.400 . S
C1470 C1473 1.386 . S
H1471 C1487 0.930 . S
H1472 C1488 0.931 . S
C1473 H1461 0.929 . S
C1473 C1467 1.390 . S
C1473 C1470 1.386 . S
C1474 C1469 1.490 . S
C1474 C1476 1.395 . S
C1474 C1477 1.403 . S
H1475 C1481 0.930 . S
C1476 H1462 0.930 . S
C1476 C1474 1.395 . S
C1476 C1479 1.403 . S
C1477 C1474 1.403 . S
C1477 C1478 1.524 . S
C1477 C1481 1.400 . S
C1478 H1463 0.960 . S
C1478 H1464 0.960 . S
C1478 H1465 0.960 . S
C1478 C1477 1.524 . S
C1479 C1476 1.403 . S
C1479 C1480 1.392 . S
C1479 C1483 1.495 . S
C1480 C1479 1.392 . S
C1480 C1481 1.385 . S
C1480 C1482 1.478 . S
C1481 H1475 0.930 . S
C1481 C1477 1.400 . S
C1481 C1480 1.385 . S
C1482 C1480 1.478 . S
C1482 C1484 1.381 . S
C1482 C1488 1.383 . S
C1483 C1479 1.495 . S
C1483 H1489 0.959 . S
C1483 H1490 0.961 . S
C1483 H1491 0.960 . S
C1484 C1482 1.381 . S
C1484 C1485 1.394 . S
C1484 H1492 0.930 . S
C1485 C1484 1.394 . S
C1485 C1486 1.383 . S
C1485 H1493 0.929 . S
C1486 C1485 1.383 . S
C1486 C1487 1.377 . S
C1487 H1471 0.930 . S
C1487 C1486 1.377 . S
C1487 C1488 1.379 . S
C1488 H1472 0.931 . S
C1488 C1482 1.383 . S
C1488 C1487 1.379 . S
H1489 C1483 0.959 . S
H1490 C1483 0.961 . S
H1491 C1483 0.960 . S
H1492 C1484 0.930 . S
H1493 C1485 0.929 . S
H1494 C1502 0.929 . S
H1495 C1504 0.930 . S
H1496 C1506 0.930 . S
H1497 C1509 0.929 . S
H1498 C1512 0.930 . S
H1499 C1514 0.960 . S
H1500 C1514 0.960 . S
H1501 C1514 0.960 . S
C1502 H1494 0.929 . S
C1502 C1503 1.377 . S
C1502 C1504 1.384 . S
C1503 C1502 1.377 . S
C1503 C1509 1.390 . S
C1504 H1495 0.930 . S
C1504 C1502 1.384 . S
C1504 C1505 1.372 . S
C1505 C1504 1.372 . S
C1505 C1506 1.400 . S
C1505 C1510 1.490 . S
C1506 H1496 0.930 . S
C1506 C1505 1.400 . S
C1506 C1509 1.386 . S
H1507 C1523 0.930 . S
H1508 C1524 0.931 . S
C1509 H1497 0.929 . S
C1509 C1503 1.390 . S
C1509 C1506 1.386 . S
C1510 C1505 1.490 . S
C1510 C1512 1.395 . S
C1510 C1513 1.403 . S
H1511 C1517 0.930 . S
C1512 H1498 0.930 . S
C1512 C1510 1.395 . S
C1512 C1515 1.403 . S
C1513 C1510 1.403 . S
C1513 C1514 1.524 . S
C1513 C1517 1.400 . S
C1514 H1499 0.960 . S
C1514 H1500 0.960 . S
C1514 H1501 0.960 . S
C1514 C1513 1.524 . S
C1515 C1512 1.403 . S
C1515 C1516 1.392 . S
C1515 C1519 1.495 . S
C1516 C1515 1.392 . S
C1516 C1517 1.385 . S
C1516 C1518 1.478 . S
C1517 H1511 0.930 . S
C1517 C1513 1.400 . S
C1517 C1516 1.385 . S
C1518 C1516 1.478 . S
C1518 C1520 1.381 . S
C1518 C1524 1.383 . S
C1519 C1515 1.495 . S
C1519 H1525 0.959 . S
C1519 H1526 0.961 . S
C1519 H1527 0.960 . S
C1520 C1518 1.381 . S
C1520 C1521 1.394 . S
C1520 H1528 0.930 . S
C1521 C1520 1.394 . S
C1521 C1522 1.383 . S
C1521 H1529 0.929 . S
C1522 C1521 1.383 . S
C1522 C1523 1.377 . S
C1523 H1507 0.930 . S
C1523 C1522 1.377 . S
C1523 C1524 1.379 . S
C1524 H1508 0.931 . S
C1524 C1518 1.383 . S
C1524 C1523 1.379 . S
H1525 C1519 0.959 . S
H1526 C1519 0.961 . S
H1527 C1519 0.960 . S
H1528 C1520 0.930 . S
H1529 C1521 0.929 . S
H1530 C1538 0.929 . S
H1531 C1540 0.930 . S
H1532 C1542 0.930 1_565 S
H1533 C1545 0.929 . S
H1534 C1548 0.930 . S
H1535 C1550 0.960 . S
H1536 C1550 0.960 . S
H1537 C1550 0.960 . S
C1538 H1530 0.929 . S
C1538 C1539 1.377 . S
C1538 C1540 1.384 . S
C1539 C1538 1.377 . S
C1539 C1545 1.390 . S
C1540 H1531 0.930 . S
C1540 C1538 1.384 . S
C1540 C1541 1.372 . S
C1541 C1540 1.372 . S
C1541 C1542 1.400 . S
C1541 C1546 1.490 . S
C1542 H1532 0.930 1_545 S
C1542 C1541 1.400 . S
C1542 C1545 1.386 . S
H1543 C1559 0.930 . S
H1544 C1560 0.931 . S
C1545 H1533 0.929 . S
C1545 C1539 1.390 . S
C1545 C1542 1.386 . S
C1546 C1541 1.490 . S
C1546 C1548 1.395 . S
C1546 C1549 1.403 1_545 S
H1547 C1553 0.930 . S
C1548 H1534 0.930 . S
C1548 C1546 1.395 . S
C1548 C1551 1.403 . S
C1549 C1546 1.403 1_565 S
C1549 C1550 1.524 . S
C1549 C1553 1.400 . S
C1550 H1535 0.960 . S
C1550 H1536 0.960 . S
C1550 H1537 0.960 . S
C1550 C1549 1.524 . S
C1551 C1548 1.403 . S
C1551 C1552 1.392 . S
C1551 C1555 1.495 . S
C1552 C1551 1.392 . S
C1552 C1553 1.385 1_545 S
C1552 C1554 1.483 1_545 S
C1553 H1547 0.930 . S
C1553 C1549 1.400 . S
C1553 C1552 1.385 1_565 S
C1554 C1552 1.483 1_565 S
C1554 C1556 1.365 1_565 S
C1554 C1560 1.394 . S
C1555 C1551 1.495 . S
C1555 H1561 0.959 . S
C1555 H1562 0.961 . S
C1555 H1563 0.960 . S
C1556 C1554 1.365 1_545 S
C1556 C1557 1.394 . S
C1556 H1564 0.930 . S
C1557 C1556 1.394 . S
C1557 C1558 1.383 1_545 S
C1557 H1565 0.929 . S
C1558 C1557 1.383 1_565 S
C1558 C1559 1.377 . S
C1559 H1543 0.930 . S
C1559 C1558 1.377 . S
C1559 C1560 1.379 . S
C1560 H1544 0.931 . S
C1560 C1554 1.394 . S
C1560 C1559 1.379 . S
H1561 C1555 0.959 . S
H1562 C1555 0.961 . S
H1563 C1555 0.960 . S
H1564 C1556 0.930 . S
H1565 C1557 0.929 . S
H1566 C1574 0.929 . S
H1567 C1576 0.930 . S
H1568 C1578 0.964 . S
H1569 C1581 0.929 1_655 S
H1570 C1584 0.930 . S
H1571 C1586 0.953 1_655 S
H1572 C1586 0.975 . S
H1573 C1586 0.957 1_655 S
C1574 H1566 0.929 . S
C1574 C1575 1.377 . S
C1574 C1576 1.384 . S
C1575 C1574 1.377 . S
C1575 C1581 1.390 . S
C1576 H1567 0.930 . S
C1576 C1574 1.384 . S
C1576 C1577 1.372 . S
C1577 C1576 1.372 . S
C1577 C1578 1.390 1_455 S
C1577 C1582 1.490 . S
C1578 H1568 0.964 . S
C1578 C1577 1.390 1_655 S
C1578 C1581 1.363 1_655 S
H1579 C1595 0.930 . S
H1580 C1596 0.931 . S
C1581 H1569 0.929 1_455 S
C1581 C1575 1.390 . S
C1581 C1578 1.363 1_455 S
C1582 C1577 1.490 . S
C1582 C1584 1.395 . S
C1582 C1585 1.403 . S
H1583 C1589 0.930 . S
C1584 H1570 0.930 . S
C1584 C1582 1.395 . S
C1584 C1587 1.403 . S
C1585 C1582 1.403 . S
C1585 C1586 1.519 . S
C1585 C1589 1.400 1_455 S
C1586 H1571 0.953 1_455 S
C1586 H1572 0.975 . S
C1586 H1573 0.957 1_455 S
C1586 C1585 1.519 . S
C1587 C1584 1.403 . S
C1587 C1588 1.392 . S
C1587 C1591 1.495 . S
C1588 C1587 1.392 . S
C1588 C1589 1.385 1_455 S
C1588 C1590 1.478 1_455 S
C1589 H1583 0.930 . S
C1589 C1585 1.400 1_655 S
C1589 C1588 1.385 1_655 S
C1590 C1588 1.478 1_655 S
C1590 C1592 1.381 1_655 S
C1590 C1596 1.383 . S
C1591 C1587 1.495 . S
C1591 H1597 0.959 . S
C1591 H1598 0.925 1_455 S
C1591 H1599 0.960 . S
C1592 C1590 1.381 1_455 S
C1592 C1593 1.394 . S
C1592 H1600 0.930 . S
C1593 C1592 1.394 . S
C1593 C1594 1.383 1_455 S
C1593 H1601 0.929 . S
C1594 C1593 1.383 1_655 S
C1594 C1595 1.377 . S
C1595 H1579 0.930 . S
C1595 C1594 1.377 . S
C1595 C1596 1.379 . S
C1596 H1580 0.931 . S
C1596 C1590 1.383 . S
C1596 C1595 1.379 . S
H1597 C1591 0.959 . S
H1598 C1591 0.925 1_655 S
H1599 C1591 0.960 . S
H1600 C1592 0.930 . S
H1601 C1593 0.929 . S
H1602 C1610 0.929 . S
H1603 C1612 0.930 . S
H1604 C1614 0.930 . S
H1605 C1617 0.929 . S
H1606 C1620 0.930 . S
H1607 C1622 0.960 . S
H1608 C1622 0.960 . S
H1609 C1622 0.960 . S
C1610 H1602 0.929 . S
C1610 C1611 1.377 . S
C1610 C1612 1.384 . S
C1611 C1610 1.377 . S
C1611 C1617 1.390 . S
C1612 H1603 0.930 . S
C1612 C1610 1.384 . S
C1612 C1613 1.372 . S
C1613 C1612 1.372 . S
C1613 C1614 1.400 . S
C1613 C1618 1.490 . S
C1614 H1604 0.930 . S
C1614 C1613 1.400 . S
C1614 C1617 1.386 . S
H1615 C1631 0.930 . S
H1616 C1632 0.931 . S
C1617 H1605 0.929 . S
C1617 C1611 1.390 . S
C1617 C1614 1.386 . S
C1618 C1613 1.490 . S
C1618 C1620 1.395 . S
C1618 C1621 1.403 1_556 S
H1619 C1625 0.930 . S
C1620 H1606 0.930 . S
C1620 C1618 1.395 . S
C1620 C1623 1.403 . S
C1621 C1618 1.403 1_554 S
C1621 C1622 1.524 . S
C1621 C1625 1.400 . S
C1622 H1607 0.960 . S
C1622 H1608 0.960 . S
C1622 H1609 0.960 . S
C1622 C1621 1.524 . S
C1623 C1620 1.403 . S
C1623 C1624 1.392 1_556 S
C1623 C1627 1.495 . S
C1624 C1623 1.392 1_554 S
C1624 C1625 1.385 . S
C1624 C1626 1.478 . S
C1625 H1619 0.930 . S
C1625 C1621 1.400 . S
C1625 C1624 1.385 . S
C1626 C1624 1.478 . S
C1626 C1628 1.381 . S
C1626 C1632 1.383 . S
C1627 C1623 1.495 . S
C1627 H1633 0.959 . S
C1627 H1634 0.961 . S
C1627 H1635 0.960 . S
C1628 C1626 1.381 . S
C1628 C1629 1.394 . S
C1628 H1636 0.930 . S
C1629 C1628 1.394 . S
C1629 C1630 1.383 . S
C1629 H1637 0.929 . S
C1630 C1629 1.383 . S
C1630 C1631 1.377 . S
C1631 H1615 0.930 . S
C1631 C1630 1.377 . S
C1631 C1632 1.379 . S
C1632 H1616 0.931 . S
C1632 C1626 1.383 . S
C1632 C1631 1.379 . S
H1633 C1627 0.959 . S
H1634 C1627 0.961 . S
H1635 C1627 0.960 . S
H1636 C1628 0.930 . S
H1637 C1629 0.929 . S
H1638 C1646 0.929 . S
H1639 C1648 0.930 1_554 S
H1640 C1650 0.930 . S
H1641 C1653 0.929 1_545 S
H1642 C1656 0.930 . S
H1643 C1658 0.960 . S
H1644 C1658 0.960 . S
H1645 C1658 0.960 . S
C1646 H1638 0.929 . S
C1646 C1647 1.377 . S
C1646 C1648 1.384 . S
C1647 C1646 1.377 . S
C1647 C1653 1.390 . S
C1648 H1639 0.930 1_556 S
C1648 C1646 1.384 . S
C1648 C1649 1.372 . S
C1649 C1648 1.372 . S
C1649 C1650 1.400 1_565 S
C1649 C1654 1.492 . S
C1650 H1640 0.930 . S
C1650 C1649 1.400 1_545 S
C1650 C1653 1.386 1_545 S
H1651 C1667 0.930 . S
H1652 C1668 0.931 . S
C1653 H1641 0.929 1_565 S
C1653 C1647 1.390 . S
C1653 C1650 1.386 1_565 S
C1654 C1649 1.492 . S
C1654 C1656 1.394 1_566 S
C1654 C1657 1.402 . S
H1655 C1661 0.930 1_565 S
C1656 H1642 0.930 . S
C1656 C1654 1.394 1_544 S
C1656 C1659 1.403 . S
C1657 C1654 1.402 . S
C1657 C1658 1.524 . S
C1657 C1661 1.400 1_565 S
C1658 H1643 0.960 . S
C1658 H1644 0.960 . S
C1658 H1645 0.960 . S
C1658 C1657 1.524 . S
C1659 C1656 1.403 . S
C1659 C1660 1.392 . S
C1659 C1663 1.495 . S
C1660 C1659 1.392 . S
C1660 C1661 1.385 1_554 S
C1660 C1662 1.478 . S
C1661 H1655 0.930 1_545 S
C1661 C1657 1.400 1_545 S
C1661 C1660 1.385 1_556 S
C1662 C1660 1.478 . S
C1662 C1664 1.381 . S
C1662 C1668 1.383 . S
C1663 C1659 1.495 . S
C1663 H1669 0.959 . S
C1663 H1670 0.961 . S
C1663 H1671 0.960 . S
C1664 C1662 1.381 . S
C1664 C1665 1.394 . S
C1664 H1672 0.930 1_545 S
C1665 C1664 1.394 . S
C1665 C1666 1.383 . S
C1665 H1673 0.929 . S
C1666 C1665 1.383 . S
C1666 C1667 1.377 . S
C1667 H1651 0.930 . S
C1667 C1666 1.377 . S
C1667 C1668 1.379 . S
C1668 H1652 0.931 . S
C1668 C1662 1.383 . S
C1668 C1667 1.379 . S
H1669 C1663 0.959 . S
H1670 C1663 0.961 . S
H1671 C1663 0.960 . S
H1672 C1664 0.930 1_565 S
H1673 C1665 0.929 . S
H1674 C1682 0.929 . S
H1675 C1684 0.930 . S
H1676 C1686 0.930 1_655 S
H1677 C1689 0.929 1_655 S
H1678 C1692 0.930 . S
H1679 C1694 0.960 . S
H1680 C1694 0.960 . S
H1681 C1694 0.962 1_655 S
C1682 H1674 0.929 . S
C1682 C1683 1.377 . S
C1682 C1684 1.384 . S
C1683 C1682 1.377 . S
C1683 C1689 1.390 . S
C1684 H1675 0.930 . S
C1684 C1682 1.384 . S
C1684 C1685 1.372 . S
C1685 C1684 1.372 . S
C1685 C1686 1.400 . S
C1685 C1690 1.490 . S
C1686 H1676 0.930 1_455 S
C1686 C1685 1.400 . S
C1686 C1689 1.386 . S
H1687 C1703 0.930 . S
H1688 C1704 0.931 . S
C1689 H1677 0.929 1_455 S
C1689 C1683 1.390 . S
C1689 C1686 1.386 . S
C1690 C1685 1.490 . S
C1690 C1692 1.395 1_556 S
C1690 C1693 1.403 . S
H1691 C1697 0.938 1_655 S
C1692 H1678 0.930 . S
C1692 C1690 1.395 1_554 S
C1692 C1695 1.403 . S
C1693 C1690 1.403 . S
C1693 C1694 1.524 . S
C1693 C1697 1.400 . S
C1694 H1679 0.960 . S
C1694 H1680 0.960 . S
C1694 H1681 0.962 1_455 S
C1694 C1693 1.524 . S
C1695 C1692 1.403 . S
C1695 C1696 1.384 . S
C1695 C1699 1.495 . S
C1696 C1695 1.384 . S
C1696 C1697 1.387 1_554 S
C1696 C1698 1.485 1_455 S
C1697 H1691 0.938 1_455 S
C1697 C1693 1.400 . S
C1697 C1696 1.387 1_556 S
C1698 C1696 1.485 1_655 S
C1698 C1700 1.381 1_655 S
C1698 C1704 1.383 . S
C1699 C1695 1.495 . S
C1699 H1705 0.959 . S
C1699 H1706 0.961 1_455 S
C1699 H1707 0.960 . S
C1700 C1698 1.381 1_455 S
C1700 C1701 1.394 . S
C1700 H1708 0.930 . S
C1701 C1700 1.394 . S
C1701 C1702 1.383 1_455 S
C1701 H1709 0.929 . S
C1702 C1701 1.383 1_655 S
C1702 C1703 1.377 . S
C1703 H1687 0.930 . S
C1703 C1702 1.377 . S
C1703 C1704 1.379 . S
C1704 H1688 0.931 . S
C1704 C1698 1.383 . S
C1704 C1703 1.379 . S
H1705 C1699 0.959 . S
H1706 C1699 0.961 1_655 S
H1707 C1699 0.960 . S
H1708 C1700 0.930 . S
H1709 C1701 0.929 . S
C423 C7 1.751 . S
C442 C338 1.692 . S
C459 C292 1.672 . S
C478 C39 1.653 . S
C495 C53 1.798 . S
C514 C306 1.805 . S
C531 C154 1.674 . S
C550 C62 1.666 . S
C567 C177 1.680 . S
C586 C16 1.693 . S
C603 C200 1.713 . S
C622 C30 1.756 . S
C639 C76 1.737 . S
C658 C269 1.686 . S
C675 C223 1.675 . S
C694 C108 1.647 . S
C711 C246 1.703 . S
C730 C122 1.751 . S
C747 C131 1.713 . S
C766 C352 1.747 . S
C783 C85 1.680 . S
C802 C384 1.684 . S
C819 C398 1.793 . S
C838 C99 1.797 . S
C855 C283 1.793 . S
C874 C191 1.777 . S
C891 C145 1.765 . S
C910 C315 1.744 . S
C927 C329 1.800 . S
C946 C168 1.803 . S
C963 C407 1.730 . S
C982 C214 1.779 . S
C999 C237 1.768 . S
C1018 C361 1.741 . S
C1035 C375 1.800 . S
C1054 C260 1.781 . S
C1071 N347 1.544 . S
C1090 N2 1.519 . S
C1107 N35 1.582 . S
C1126 N380 1.587 . S
C1143 N48 1.544 . S
C1162 N393 1.567 . S
C1179 N58 1.568 . S
C1198 N265 1.579 . S
C1215 N219 1.571 . S
C1234 N12 1.571 . S
C1251 N25 1.532 . S
C1270 N242 1.579 . S
C1287 N150 1.579 . S
C1306 N71 1.543 . S
C1323 N173 1.566 . S
C1342 N104 1.549 . S
C1359 N117 1.522 . S
C1378 N196 1.566 . S
C1395 N127 1.555 . S
C1414 N334 1.550 . S
C1431 N81 1.569 . S
C1450 N288 1.584 . S
C1467 N94 1.527 . S
C1486 N301 1.542 . S
C1503 N186 1.531 . S
C1522 N403 1.586 . S
C1539 N140 1.526 . S
C1558 N357 1.572 . S
C1575 N370 1.535 . S
C1594 N163 1.557 . S
C1611 N278 1.544 . S
C1630 N209 1.537 . S
C1647 N311 1.576 . S
C1666 N232 1.493 . S
C1683 N324 1.526 . S
C1702 N255 1.509 . S
