# Generated by pormake.
# Topology ghw, (5)-cn, num edge types: 1
# Building blocks:
#     Node 0, Type 0, BuildingBlock: BEQFEK_clean_sbu_0, # of connection points: 5
#     Node 1, Type 0, BuildingBlock: BEQFEK_clean_sbu_0, # of connection points: 5
#     Node 2, Type 0, BuildingBlock: BEQFEK_clean_sbu_0, # of connection points: 5
#     Node 3, Type 0, BuildingBlock: BEQFEK_clean_sbu_0, # of connection points: 5
#     Node 4, Type 0, BuildingBlock: BEQFEK_clean_sbu_0, # of connection points: 5
#     Node 5, Type 0, BuildingBlock: BEQFEK_clean_sbu_0, # of connection points: 5
#     Node 6, Type 0, BuildingBlock: BEQFEK_clean_sbu_0, # of connection points: 5
#     Node 7, Type 0, BuildingBlock: BEQFEK_clean_sbu_0, # of connection points: 5
#     Node 8, Type 0, BuildingBlock: BEQFEK_clean_sbu_0, # of connection points: 5
#     Node 9, Type 0, BuildingBlock: BEQFEK_clean_sbu_0, # of connection points: 5
#     Node 10, Type 0, BuildingBlock: BEQFEK_clean_sbu_0, # of connection points: 5
#     Node 11, Type 0, BuildingBlock: BEQFEK_clean_sbu_0, # of connection points: 5
#     Node 12, Type 0, BuildingBlock: BEQFEK_clean_sbu_0, # of connection points: 5
#     Node 13, Type 0, BuildingBlock: BEQFEK_clean_sbu_0, # of connection points: 5
#     Node 14, Type 0, BuildingBlock: BEQFEK_clean_sbu_0, # of connection points: 5
#     Node 15, Type 0, BuildingBlock: BEQFEK_clean_sbu_0, # of connection points: 5
#     Edge 16, Type (0, 0), BuildingBlock: XIVTED_clean_linker_0, # of connection points: 2
#     Edge 17, Type (0, 0), BuildingBlock: XIVTED_clean_linker_0, # of connection points: 2
#     Edge 18, Type (0, 0), BuildingBlock: XIVTED_clean_linker_0, # of connection points: 2
#     Edge 19, Type (0, 0), BuildingBlock: XIVTED_clean_linker_0, # of connection points: 2
#     Edge 20, Type (0, 0), BuildingBlock: XIVTED_clean_linker_0, # of connection points: 2
#     Edge 21, Type (0, 0), BuildingBlock: XIVTED_clean_linker_0, # of connection points: 2
#     Edge 22, Type (0, 0), BuildingBlock: XIVTED_clean_linker_0, # of connection points: 2
#     Edge 23, Type (0, 0), BuildingBlock: XIVTED_clean_linker_0, # of connection points: 2
#     Edge 24, Type (0, 0), BuildingBlock: XIVTED_clean_linker_0, # of connection points: 2
#     Edge 25, Type (0, 0), BuildingBlock: XIVTED_clean_linker_0, # of connection points: 2
#     Edge 26, Type (0, 0), BuildingBlock: XIVTED_clean_linker_0, # of connection points: 2
#     Edge 27, Type (0, 0), BuildingBlock: XIVTED_clean_linker_0, # of connection points: 2
#     Edge 28, Type (0, 0), BuildingBlock: XIVTED_clean_linker_0, # of connection points: 2
#     Edge 29, Type (0, 0), BuildingBlock: XIVTED_clean_linker_0, # of connection points: 2
#     Edge 30, Type (0, 0), BuildingBlock: XIVTED_clean_linker_0, # of connection points: 2
#     Edge 31, Type (0, 0), BuildingBlock: XIVTED_clean_linker_0, # of connection points: 2
#     Edge 32, Type (0, 0), BuildingBlock: XIVTED_clean_linker_0, # of connection points: 2
#     Edge 33, Type (0, 0), BuildingBlock: XIVTED_clean_linker_0, # of connection points: 2
#     Edge 34, Type (0, 0), BuildingBlock: XIVTED_clean_linker_0, # of connection points: 2
#     Edge 35, Type (0, 0), BuildingBlock: XIVTED_clean_linker_0, # of connection points: 2
#     Edge 36, Type (0, 0), BuildingBlock: XIVTED_clean_linker_0, # of connection points: 2
#     Edge 37, Type (0, 0), BuildingBlock: XIVTED_clean_linker_0, # of connection points: 2
#     Edge 38, Type (0, 0), BuildingBlock: XIVTED_clean_linker_0, # of connection points: 2
#     Edge 39, Type (0, 0), BuildingBlock: XIVTED_clean_linker_0, # of connection points: 2
#     Edge 40, Type (0, 0), BuildingBlock: XIVTED_clean_linker_0, # of connection points: 2
#     Edge 41, Type (0, 0), BuildingBlock: XIVTED_clean_linker_0, # of connection points: 2
#     Edge 42, Type (0, 0), BuildingBlock: XIVTED_clean_linker_0, # of connection points: 2
#     Edge 43, Type (0, 0), BuildingBlock: XIVTED_clean_linker_0, # of connection points: 2
#     Edge 44, Type (0, 0), BuildingBlock: XIVTED_clean_linker_0, # of connection points: 2
#     Edge 45, Type (0, 0), BuildingBlock: XIVTED_clean_linker_0, # of connection points: 2
#     Edge 46, Type (0, 0), BuildingBlock: XIVTED_clean_linker_0, # of connection points: 2
#     Edge 47, Type (0, 0), BuildingBlock: XIVTED_clean_linker_0, # of connection points: 2
#     Edge 48, Type (0, 0), BuildingBlock: XIVTED_clean_linker_0, # of connection points: 2
#     Edge 49, Type (0, 0), BuildingBlock: XIVTED_clean_linker_0, # of connection points: 2
#     Edge 50, Type (0, 0), BuildingBlock: XIVTED_clean_linker_0, # of connection points: 2
#     Edge 51, Type (0, 0), BuildingBlock: XIVTED_clean_linker_0, # of connection points: 2
#     Edge 52, Type (0, 0), BuildingBlock: XIVTED_clean_linker_0, # of connection points: 2
#     Edge 53, Type (0, 0), BuildingBlock: XIVTED_clean_linker_0, # of connection points: 2
#     Edge 54, Type (0, 0), BuildingBlock: XIVTED_clean_linker_0, # of connection points: 2
#     Edge 55, Type (0, 0), BuildingBlock: XIVTED_clean_linker_0, # of connection points: 2
# Relax obj value: 0.441
# Max RMSD: 0.284
# Mean RMSD: 0.284
data_MOF--net-ghw--node1-BEQFEK_clean_sbu_0--edge1-XIVTED_clean_linker_0
_symmetry_space_group_name_H-M    P1
_symmetry_Int_Tables_number       1
_symmetry_cell_setting            triclinic
loop_
_symmetry_equiv_pos_as_xyz
'x, y, z'
_cell_length_a     34.800994
_cell_length_b     45.033789
_cell_length_c     30.002081
_cell_angle_alpha  117.39987
_cell_angle_beta   89.952694
_cell_angle_gamma 90.166418
loop_
_atom_site_label
_atom_site_type_symbol
_atom_site_fract_x
_atom_site_fract_y
_atom_site_fract_z
_atom_type_partial_charge
Co0 Co 0.11558 0.09249 0.33309 0.0
Co1 Co 0.0526 0.1462 0.39099 0.0
C2 C 0.06213 0.11584 0.27829 0.0
O3 O 0.08871 0.09633 0.27785 0.0
O4 O 0.04642 0.13661 0.31925 0.0
C5 C 0.17583 0.05628 0.26924 0.0
O6 O 0.16376 0.07223 0.24466 0.0
C7 C 0.97909 0.18322 0.41755 0.0
C8 C 0.97629 0.19846 0.49871 0.0
C9 C 0.95501 0.198 0.4593 0.0
N10 N 0.01188 0.17407 0.43154 0.0
N11 N 0.01048 0.18427 0.4804 0.0
C12 C 0.97313 0.18052 0.36644 0.0
H13 H 0.00083 0.18445 0.35173 0.0
H14 H 0.96223 0.15516 0.34062 0.0
H15 H 0.95279 0.19977 0.36759 0.0
C16 C 0.0779 0.05783 0.38389 0.0
N17 N 0.08058 0.08374 0.37338 0.0
N18 N 0.05264 0.10506 0.3959 0.0
C19 C 0.03036 0.09251 0.42022 0.0
C20 C 0.04588 0.06241 0.41391 0.0
C21 C 0.10759 0.03105 0.36854 0.0
H22 H 0.13533 0.04245 0.38664 0.0
H23 H 0.11189 0.02022 0.32751 0.0
H24 H 0.09972 0.01122 0.37898 0.0
O25 O 0.14437 0.13351 0.37396 0.0
O26 O 0.10133 0.17179 0.41858 0.0
H27 H -0.00051 0.12622 0.48545 0.0
H28 H 0.97412 0.08813 0.44702 0.0
C29 C 0.99338 0.10755 0.44616 0.0
H30 H 0.97846 0.11992 0.4266 0.0
H31 H 0.03221 0.18012 0.50083 0.0
O32 O 0.15657 0.05859 0.30666 0.0
C33 C 0.13613 0.16294 0.40679 0.0
Co34 Co 0.11297 0.14908 0.90143 0.0
Co35 Co 0.05153 0.09439 0.84176 0.0
C36 C 0.06012 0.12398 0.95436 0.0
O37 O 0.08565 0.14455 0.95538 0.0
O38 O 0.04536 0.10248 0.91311 0.0
C39 C 0.17347 0.18352 0.96653 0.0
O40 O 0.16087 0.16664 0.98952 0.0
C41 C 0.97373 0.06707 0.81607 0.0
C42 C 0.98015 0.02839 0.73726 0.0
C43 C 0.95345 0.04339 0.77539 0.0
N44 N 0.01071 0.06603 0.80271 0.0
N45 N 0.01449 0.04257 0.75575 0.0
C46 C 0.95787 0.09257 0.86519 0.0
H47 H 0.97694 0.11485 0.88188 0.0
H48 H 0.92853 0.10022 0.86027 0.0
H49 H 0.95622 0.08152 0.89144 0.0
C50 C 0.07464 0.1839 0.85065 0.0
N51 N 0.07819 0.15799 0.86107 0.0
N52 N 0.05146 0.13553 0.83678 0.0
C53 C 0.02975 0.14681 0.81045 0.0
C54 C 0.04377 0.17783 0.81845 0.0
C55 C 0.10038 0.21393 0.87094 0.0
H56 H 0.12324 0.21023 0.84309 0.0
H57 H 0.11423 0.21743 0.90605 0.0
H58 H 0.08397 0.23675 0.87782 0.0
O59 O 0.14189 0.10844 0.8601 0.0
O60 O 0.1 0.06941 0.81371 0.0
H61 H 0.00807 0.1016 0.75041 0.0
H62 H 0.9881 0.13904 0.75233 0.0
C63 C -0.00201 0.12725 0.7756 0.0
H64 H 0.97345 0.12544 0.79782 0.0
H65 H 0.04032 0.0369 0.73589 0.0
O66 O 0.15458 0.18237 0.92954 0.0
C67 C 0.13447 0.07902 0.82646 0.0
Co68 Co 0.88171 0.89314 0.65227 0.0
Co69 Co 0.94261 0.83761 0.59594 0.0
C70 C 0.93416 0.87076 0.70893 0.0
O71 O 0.90845 0.89056 0.7082 0.0
O72 O 0.94899 0.84845 0.66847 0.0
C73 C 0.82341 0.93277 0.71683 0.0
O74 O 0.83466 0.91753 0.74279 0.0
C75 C 0.02004 0.80999 0.57185 0.0
C76 C 0.01452 0.77268 0.49208 0.0
C77 C 0.0408 0.78741 0.53086 0.0
N78 N 0.98316 0.80869 0.55799 0.0
N79 N 0.97987 0.7859 0.51053 0.0
C80 C 0.03559 0.83552 0.62127 0.0
H81 H 0.01679 0.85788 0.63743 0.0
H82 H 0.0652 0.84312 0.6171 0.0
H83 H 0.03642 0.82453 0.64763 0.0
C84 C 0.92124 0.92553 0.59936 0.0
N85 N 0.91716 0.90016 0.61086 0.0
N86 N 0.94328 0.87721 0.58701 0.0
C87 C 0.96496 0.88739 0.55918 0.0
C88 C 0.95174 0.9184 0.56616 0.0
C89 C 0.89467 0.95483 0.61793 0.0
H90 H 0.86485 0.94576 0.60645 0.0
H91 H 0.8954 0.96777 0.65952 0.0
H92 H 0.90216 0.97262 0.60324 0.0
O93 O 0.85142 0.85217 0.61292 0.0
O94 O 0.89368 0.81261 0.56979 0.0
H95 H 0.98862 0.84361 0.49867 0.0
H96 H 0.01315 0.8819 0.5099 0.0
C97 C -0.00149 0.86835 0.52796 0.0
H98 H 0.01962 0.86422 0.55212 0.0
H99 H 0.9543 0.78049 0.49011 0.0
O100 O 0.84235 0.92843 0.67812 0.0
C101 C 0.85907 0.82222 0.58125 0.0
Co102 Co 0.87634 0.85248 0.09527 0.0
Co103 Co 0.93769 0.90708 0.15395 0.0
C104 C 0.93104 0.87461 0.04065 0.0
O105 O 0.9046 0.85493 0.04029 0.0
O106 O 0.94555 0.89663 0.0817 0.0
C107 C 0.81743 0.81484 0.03006 0.0
O108 O 0.82975 0.83068 0.00537 0.0
C109 C 0.01583 0.93207 0.18031 0.0
C110 C 0.00962 0.97169 0.25856 0.0
C111 C 0.03639 0.95494 0.22123 0.0
N112 N 0.9785 0.93511 0.19272 0.0
N113 N 0.97482 0.95919 0.23927 0.0
C114 C 0.0316 0.9053 0.1322 0.0
H115 H 0.01176 0.88352 0.11623 0.0
H116 H 0.06038 0.89717 0.13816 0.0
H117 H 0.03452 0.91536 0.10485 0.0
C118 C 0.91366 0.81859 0.14715 0.0
N119 N 0.91038 0.84459 0.13702 0.0
N120 N 0.93663 0.86722 0.1621 0.0
C121 C 0.95749 0.85621 0.1895 0.0
C122 C 0.94362 0.82496 0.18079 0.0
C123 C 0.88958 0.78768 0.12282 0.0
H124 H 0.86097 0.79268 0.14115 0.0
H125 H 0.8853 0.78108 0.08275 0.0
H126 H 0.90309 0.76639 0.12577 0.0
O127 O 0.84694 0.89385 0.13437 0.0
O128 O 0.8894 0.93281 0.17949 0.0
H129 H 0.97882 0.90206 0.24863 0.0
H130 H -0.00368 0.86518 0.25089 0.0
C131 C 0.98853 0.87599 0.22554 0.0
H132 H 0.01439 0.87639 0.20421 0.0
H133 H 0.94877 0.96613 0.25852 0.0
O134 O 0.83588 0.81807 0.06852 0.0
C135 C 0.85481 0.9236 0.16676 0.0
Co136 Co 0.11053 0.60351 0.85261 0.0
Co137 Co 0.04799 0.65825 0.90641 0.0
C138 C 0.06179 0.62845 0.79504 0.0
O139 O 0.08802 0.60968 0.79757 0.0
O140 O 0.04325 0.64853 0.83398 0.0
C141 C 0.16707 0.56081 0.78558 0.0
O142 O 0.1532 0.5722 0.7557 0.0
C143 C 0.96992 0.68443 0.93015 0.0
C144 C 0.97602 0.72466 0.00801 0.0
C145 C 0.94935 0.70805 0.97034 0.0
N146 N 0.00706 0.68695 0.94341 0.0
N147 N 0.01067 0.71139 0.9897 0.0
C148 C 0.9542 0.65748 0.88208 0.0
H149 H 0.97443 0.6361 0.86563 0.0
H150 H 0.92582 0.64874 0.8884 0.0
H151 H 0.95032 0.66765 0.855 0.0
C152 C 0.06771 0.56927 0.90011 0.0
N153 N 0.07256 0.5951 0.88985 0.0
N154 N 0.04625 0.61793 0.91345 0.0
C155 C 0.02379 0.60721 0.93998 0.0
C156 C 0.03669 0.57596 0.93231 0.0
C157 C 0.09221 0.53864 0.87861 0.0
H158 H 0.11945 0.54398 0.90017 0.0
H159 H 0.09938 0.532 0.83916 0.0
H160 H 0.07747 0.51725 0.88013 0.0
O161 O 0.13972 0.64369 0.89607 0.0
O162 O 0.09679 0.68345 0.93539 0.0
H163 H 0.98377 0.61711 1.0006 0.0
H164 H 0.96746 0.62825 0.95322 0.0
C165 C 0.99273 0.6276 0.97523 0.0
H166 H 0.00301 0.65356 0.99828 0.0
H167 H 0.03654 0.71811 0.00948 0.0
O168 O 0.15047 0.56856 0.82719 0.0
C169 C 0.13157 0.67366 0.92692 0.0
Co170 Co 0.11668 0.65212 0.40397 0.0
Co171 Co 0.05468 0.59674 0.35374 0.0
C172 C 0.06621 0.6318 0.46585 0.0
O173 O 0.09264 0.64987 0.46149 0.0
O174 O 0.04869 0.60979 0.42737 0.0
C175 C 0.17539 0.69374 0.46572 0.0
O176 O 0.16403 0.68118 0.49531 0.0
C177 C 0.97772 0.56789 0.32867 0.0
C178 C 0.98618 0.52677 0.25196 0.0
C179 C 0.95856 0.543 0.28829 0.0
N180 N 0.01506 0.56644 0.31684 0.0
N181 N 0.02011 0.54147 0.27131 0.0
C182 C 0.96042 0.59495 0.37532 0.0
H183 H 0.97969 0.6171 0.3917 0.0
H184 H 0.93188 0.60229 0.36719 0.0
H185 H 0.95644 0.58546 0.40323 0.0
C186 C 0.07442 0.68317 0.3516 0.0
N187 N 0.07948 0.65828 0.36388 0.0
N188 N 0.05308 0.63513 0.3418 0.0
C189 C 0.03036 0.64463 0.31409 0.0
C190 C 0.04323 0.67542 0.31945 0.0
C191 C 0.09825 0.71433 0.37223 0.0
H192 H 0.12553 0.70924 0.35082 0.0
H193 H 0.10538 0.72182 0.41195 0.0
H194 H 0.08301 0.73513 0.36978 0.0
O195 O 0.14659 0.61143 0.3646 0.0
O196 O 0.10335 0.57148 0.3276 0.0
H197 H 0.00846 0.59758 0.25869 0.0
H198 H 0.98906 0.63322 0.25434 0.0
C199 C -0.00139 0.62373 0.28068 0.0
H200 H 0.97386 0.6239 0.30409 0.0
H201 H 0.04643 0.53538 0.25263 0.0
O202 O 0.15627 0.68717 0.42627 0.0
C203 C 0.13818 0.58111 0.33572 0.0
Co204 Co 0.87428 0.40127 0.16298 0.0
Co205 Co 0.93623 0.34652 0.10692 0.0
C206 C 0.92624 0.37961 0.22003 0.0
O207 O 0.90078 0.39974 0.21985 0.0
O208 O 0.94082 0.35748 0.17933 0.0
C209 C 0.81343 0.43673 0.22449 0.0
O210 O 0.82516 0.42031 0.24851 0.0
C211 C 0.01294 0.31648 0.08804 0.0
C212 C 0.01266 0.2859 0.00557 0.0
C213 C 0.03607 0.29656 0.04751 0.0
N214 N 0.97799 0.31841 0.07058 0.0
N215 N 0.97772 0.29941 0.02141 0.0
C216 C 0.0227 0.33166 0.14276 0.0
H217 H 0.00045 0.3245 0.16246 0.0
H218 H 0.0229 0.35933 0.15894 0.0
H219 H 0.05065 0.32271 0.14954 0.0
C220 C 0.9135 0.43428 0.11063 0.0
N221 N 0.90969 0.40881 0.12191 0.0
N222 N 0.9366 0.38646 0.09886 0.0
C223 C 0.9588 0.39742 0.0724 0.0
C224 C 0.94474 0.42809 0.07891 0.0
C225 C 0.88811 0.46431 0.13124 0.0
H226 H 0.86091 0.45811 0.10951 0.0
H227 H 0.88102 0.47115 0.17074 0.0
H228 H 0.90203 0.48583 0.12913 0.0
O229 O 0.84567 0.35955 0.12344 0.0
O230 O 0.88826 0.32069 0.07904 0.0
H231 H 0.97978 0.35417 0.00891 0.0
H232 H 0.00585 0.39166 0.02142 0.0
C233 C 0.99121 0.37788 0.03912 0.0
H234 H 0.01232 0.3717 0.06124 0.0
H235 H 0.9541 0.29673 0.99845 0.0
O236 O 0.83303 0.43489 0.18759 0.0
C237 C 0.85362 0.32986 0.09112 0.0
Co238 Co 0.87636 0.36028 0.60665 0.0
Co239 Co 0.93733 0.41603 0.66472 0.0
C240 C 0.9293 0.38305 0.55139 0.0
O241 O 0.90364 0.36277 0.55106 0.0
O242 O 0.94368 0.40527 0.59235 0.0
C243 C 0.81684 0.32086 0.54228 0.0
O244 O 0.82807 0.33585 0.51588 0.0
C245 C 0.0155 0.44153 0.6878 0.0
C246 C 0.01091 0.48156 0.76597 0.0
C247 C 0.03685 0.46477 0.72749 0.0
N248 N 0.97855 0.44446 0.70193 0.0
N249 N 0.97583 0.46878 0.74844 0.0
C250 C 0.03033 0.41448 0.63928 0.0
H251 H 0.01068 0.39257 0.62477 0.0
H252 H 0.0596 0.40665 0.64407 0.0
H253 H 0.03179 0.42412 0.61129 0.0
C254 C 0.91489 0.32798 0.66009 0.0
N255 N 0.91116 0.35347 0.64887 0.0
N256 N 0.93726 0.37643 0.67336 0.0
C257 C 0.95859 0.36604 0.70116 0.0
C258 C 0.94505 0.33496 0.69357 0.0
C259 C 0.89092 0.297 0.6371 0.0
H260 H 0.86306 0.30177 0.65723 0.0
H261 H 0.88503 0.29065 0.59751 0.0
H262 H 0.90542 0.27565 0.63885 0.0
O263 O 0.84705 0.40149 0.64525 0.0
O264 O 0.8888 0.44119 0.69053 0.0
H265 H 0.97969 0.41222 0.75967 0.0
H266 H -0.00141 0.37562 0.76164 0.0
C267 C 0.9898 0.38628 0.73645 0.0
H268 H 0.01509 0.38706 0.7145 0.0
H269 H 0.95027 0.47574 0.76886 0.0
O270 O 0.83583 0.32558 0.58114 0.0
C271 C 0.8544 0.43139 0.67746 0.0
Co272 Co 0.61332 0.10107 0.84589 0.0
Co273 Co 0.55266 0.15646 0.90498 0.0
C274 C 0.56104 0.12616 0.79228 0.0
O275 O 0.58652 0.1057 0.7915 0.0
O276 O 0.5463 0.14772 0.83343 0.0
C277 C 0.67103 0.062 0.77891 0.0
O278 O 0.65826 0.0771 0.75343 0.0
C279 C 0.47601 0.18558 0.93149 0.0
C280 C 0.48247 0.22082 0.01214 0.0
C281 C 0.45593 0.20788 0.97344 0.0
N282 N 0.51279 0.18535 0.94474 0.0
N283 N 0.51666 0.20688 0.99277 0.0
C284 C 0.45983 0.16177 0.88138 0.0
H285 H 0.47775 0.1389 0.86363 0.0
H286 H 0.42984 0.15474 0.88502 0.0
H287 H 0.45986 0.17403 0.85666 0.0
C288 C 0.57368 0.06719 0.89668 0.0
N289 N 0.57777 0.09311 0.88646 0.0
N290 N 0.55163 0.11587 0.91102 0.0
C291 C 0.52983 0.10492 0.9378 0.0
C292 C 0.54306 0.07364 0.92948 0.0
C293 C 0.60082 0.03836 0.87813 0.0
H294 H 0.62935 0.04735 0.8958 0.0
H295 H 0.60452 0.02867 0.83718 0.0
H296 H 0.59086 0.01814 0.88666 0.0
O297 O 0.64364 0.14151 0.88674 0.0
O298 O 0.60167 0.18077 0.93179 0.0
H299 H 0.50656 0.14771 1.00036 0.0
H300 H 0.48133 0.10917 0.98596 0.0
C301 C 0.4964 0.12363 0.96964 0.0
H302 H 0.47565 0.12912 0.94648 0.0
H303 H 0.54228 0.21101 0.01281 0.0
O304 O 0.65316 0.06602 0.81823 0.0
C305 C 0.63617 0.17113 0.9197 0.0
Co306 Co 0.61376 0.15237 0.40871 0.0
Co307 Co 0.55372 0.0962 0.3503 0.0
C308 C 0.56213 0.12751 0.46329 0.0
O309 O 0.58763 0.14802 0.46381 0.0
O310 O 0.54733 0.10572 0.42223 0.0
C311 C 0.67352 0.1914 0.47141 0.0
O312 O 0.66368 0.17552 0.49707 0.0
C313 C 0.47752 0.06525 0.32232 0.0
C314 C 0.48572 0.02987 0.24206 0.0
C315 C 0.45842 0.04227 0.27981 0.0
N316 N 0.51446 0.06638 0.31024 0.0
N317 N 0.51935 0.04476 0.26245 0.0
C318 C 0.46024 0.08868 0.37181 0.0
H319 H 0.47775 0.11183 0.3904 0.0
H320 H 0.43032 0.09519 0.36696 0.0
H321 H 0.45966 0.0763 0.39636 0.0
C322 C 0.57309 0.18562 0.35817 0.0
N323 N 0.57781 0.15968 0.36819 0.0
N324 N 0.5521 0.13643 0.34339 0.0
C325 C 0.53006 0.14696 0.31641 0.0
C326 C 0.54261 0.17854 0.32498 0.0
C327 C 0.59927 0.21533 0.37775 0.0
H328 H 0.62873 0.20698 0.36333 0.0
H329 H 0.60053 0.22634 0.41919 0.0
H330 H 0.59003 0.23449 0.3666 0.0
O331 O 0.64478 0.11226 0.36833 0.0
O332 O 0.603 0.07242 0.32407 0.0
H333 H 0.50749 0.10363 0.25384 0.0
H334 H 0.48167 0.1417 0.26764 0.0
C335 C 0.49694 0.12761 0.28429 0.0
H336 H 0.47627 0.12188 0.30736 0.0
H337 H 0.54529 0.04121 0.24324 0.0
O338 O 0.6528 0.18803 0.43458 0.0
C339 C 0.63747 0.08243 0.33584 0.0
Co340 Co 0.37911 0.89816 0.15916 0.0
Co341 Co 0.4388 0.84269 0.09852 0.0
C342 C 0.43336 0.87408 0.21169 0.0
O343 O 0.40749 0.89443 0.21316 0.0
O344 O 0.44715 0.85218 0.17011 0.0
C345 C 0.31971 0.93407 0.22329 0.0
O346 O 0.331 0.91655 0.24581 0.0
C347 C 0.51539 0.814 0.07014 0.0
C348 C 0.50798 0.77878 0.98964 0.0
C349 C 0.53507 0.79198 0.02765 0.0
N350 N 0.47829 0.81386 0.05788 0.0
N351 N 0.47386 0.79232 0.00995 0.0
C352 C 0.53214 0.83796 0.11979 0.0
H353 H 0.51467 0.86111 0.13727 0.0
H354 H 0.56226 0.84445 0.11561 0.0
H355 H 0.53186 0.82613 0.14507 0.0
C356 C 0.41687 0.93189 0.10705 0.0
N357 N 0.4132 0.90586 0.11708 0.0
N358 N 0.43892 0.88297 0.09152 0.0
C359 C 0.45999 0.8939 0.0641 0.0
C360 C 0.44674 0.92533 0.07313 0.0
C361 C 0.39042 0.96126 0.12766 0.0
H362 H 0.36093 0.95267 0.11345 0.0
H363 H 0.38949 0.97168 0.16904 0.0
H364 H 0.39918 0.98087 0.11712 0.0
O365 O 0.34826 0.8576 0.12023 0.0
O366 O 0.38953 0.8181 0.07392 0.0
H367 H 0.48272 0.851 0.00119 0.0
H368 H 0.50749 0.88954 0.01445 0.0
C369 C 0.49308 0.8752 0.03142 0.0
H370 H 0.51447 0.86995 0.05416 0.0
H371 H 0.44789 0.788 0.99059 0.0
O372 O 0.33957 0.93307 0.18712 0.0
C373 C 0.35523 0.82783 0.0874 0.0
Co374 Co 0.38226 0.85791 0.59955 0.0
Co375 Co 0.44294 0.91371 0.65687 0.0
C376 C 0.43685 0.87873 0.54335 0.0
O377 O 0.41091 0.85881 0.54352 0.0
O378 O 0.45071 0.90153 0.58417 0.0
C379 C 0.32222 0.82076 0.5359 0.0
O380 O 0.33413 0.83661 0.51102 0.0
C381 C 0.52099 0.93898 0.68141 0.0
C382 C 0.51525 0.98045 0.75831 0.0
C383 C 0.54181 0.96274 0.72114 0.0
N384 N 0.48375 0.94248 0.69429 0.0
N385 N 0.48034 0.96764 0.73999 0.0
C386 C 0.53643 0.91099 0.63427 0.0
H387 H 0.51642 0.88933 0.61997 0.0
H388 H 0.56517 0.90311 0.64085 0.0
H389 H 0.53933 0.91968 0.60531 0.0
C390 C 0.41813 0.8279 0.65846 0.0
N391 N 0.41565 0.85215 0.64434 0.0
N392 N 0.44197 0.87508 0.66808 0.0
C393 C 0.46233 0.86579 0.69795 0.0
C394 C 0.44787 0.83551 0.69271 0.0
C395 C 0.39286 0.79771 0.63851 0.0
H396 H 0.36633 0.80352 0.66152 0.0
H397 H 0.38464 0.79115 0.59958 0.0
H398 H 0.40747 0.77617 0.63953 0.0
O399 O 0.35289 0.8993 0.63559 0.0
O400 O 0.39438 0.93923 0.6807 0.0
H401 H 0.50128 0.87687 0.76002 0.0
H402 H 0.51906 0.88637 0.71143 0.0
C403 C 0.49329 0.8865 0.73327 0.0
H404 H 0.48333 0.91264 0.75489 0.0
H405 H 0.4544 0.97517 0.75942 0.0
O406 O 0.34122 0.82384 0.57392 0.0
C407 C 0.36009 0.92939 0.66704 0.0
Co408 Co 0.6164 0.59612 0.34052 0.0
Co409 Co 0.55423 0.65004 0.39751 0.0
C410 C 0.56306 0.61856 0.28483 0.0
O411 O 0.58949 0.59905 0.28474 0.0
O412 O 0.54781 0.63995 0.32566 0.0
C413 C 0.67625 0.55946 0.27752 0.0
O414 O 0.66513 0.5758 0.25312 0.0
C415 C 0.48186 0.68799 0.42243 0.0
C416 C 0.47667 0.70199 0.50301 0.0
C417 C 0.45684 0.70233 0.46313 0.0
N418 N 0.51373 0.6782 0.4373 0.0
N419 N 0.51101 0.68772 0.48588 0.0
C420 C 0.47775 0.68631 0.37168 0.0
H421 H 0.5061 0.69037 0.35855 0.0
H422 H 0.46691 0.66122 0.3446 0.0
H423 H 0.45804 0.70596 0.37281 0.0
C424 C 0.57778 0.56141 0.39036 0.0
N425 N 0.58136 0.58769 0.38086 0.0
N426 N 0.55351 0.60914 0.40311 0.0
C427 C 0.53038 0.59638 0.42634 0.0
C428 C 0.54524 0.56592 0.41946 0.0
C429 C 0.60663 0.53388 0.37401 0.0
H430 H 0.63502 0.54464 0.39045 0.0
H431 H 0.60969 0.52252 0.33274 0.0
H432 H 0.59873 0.51451 0.38542 0.0
O433 O 0.64591 0.63705 0.38082 0.0
O434 O 0.60294 0.67548 0.42503 0.0
H435 H 0.49831 0.62956 0.49073 0.0
H436 H 0.47324 0.59171 0.45048 0.0
C437 C 0.49298 0.61128 0.45101 0.0
H438 H 0.47897 0.62409 0.43146 0.0
H439 H 0.53183 0.68296 0.50677 0.0
O440 O 0.65638 0.56173 0.31442 0.0
C441 C 0.63772 0.66657 0.41346 0.0
Co442 Co 0.60575 0.65193 0.90912 0.0
Co443 Co 0.54586 0.59618 0.84805 0.0
C444 C 0.55353 0.62602 0.9611 0.0
O445 O 0.57877 0.64702 0.96286 0.0
O446 O 0.53931 0.60442 0.91948 0.0
C447 C 0.66618 0.68746 0.97222 0.0
O448 O 0.65522 0.66965 0.99449 0.0
C449 C 0.4688 0.56823 0.82086 0.0
C450 C 0.47642 0.52861 0.74286 0.0
C451 C 0.44916 0.54395 0.78014 0.0
N452 N 0.50596 0.56716 0.80837 0.0
N453 N 0.51048 0.54322 0.7619 0.0
C454 C 0.45227 0.59427 0.86907 0.0
H455 H 0.47132 0.61656 0.88565 0.0
H456 H 0.42318 0.60174 0.86291 0.0
H457 H 0.44987 0.58383 0.89602 0.0
C458 C 0.56634 0.6865 0.85999 0.0
N459 N 0.57058 0.66003 0.86873 0.0
N460 N 0.54489 0.63705 0.84282 0.0
C461 C 0.52338 0.64837 0.81635 0.0
C462 C 0.53634 0.68014 0.82644 0.0
C463 C 0.58986 0.71767 0.88511 0.0
H464 H 0.61815 0.71355 0.86613 0.0
H465 H 0.59494 0.7234 0.92471 0.0
H466 H 0.57539 0.73914 0.88376 0.0
O467 O 0.63602 0.61172 0.86838 0.0
O468 O 0.59484 0.57218 0.82133 0.0
H469 H 0.48415 0.63977 0.7555 0.0
H470 H 0.46721 0.62674 0.80072 0.0
C471 C 0.49274 0.62835 0.77979 0.0
H472 H 0.50324 0.60264 0.75578 0.0
H473 H 0.53662 0.53745 0.74275 0.0
O474 O 0.6459 0.68668 0.93654 0.0
C475 C 0.62911 0.58217 0.83468 0.0
Co476 Co 0.37606 0.39282 0.64962 0.0
Co477 Co 0.43735 0.33772 0.59174 0.0
C478 C 0.42918 0.36956 0.70459 0.0
O479 O 0.40339 0.38951 0.70455 0.0
O480 O 0.44391 0.34755 0.6638 0.0
C481 C 0.31805 0.4312 0.71576 0.0
O482 O 0.33014 0.41512 0.74012 0.0
C483 C 0.51439 0.30897 0.56788 0.0
C484 C 0.51043 0.27543 0.48633 0.0
C485 C 0.53569 0.28765 0.5265 0.0
N486 N 0.47809 0.3093 0.55298 0.0
N487 N 0.47572 0.28875 0.50435 0.0
C488 C 0.52909 0.33186 0.61933 0.0
H489 H 0.52366 0.32024 0.64432 0.0
H490 H 0.51356 0.35605 0.63484 0.0
H491 H 0.56041 0.33643 0.6189 0.0
C492 C 0.41502 0.42635 0.59811 0.0
N493 N 0.41112 0.40049 0.60851 0.0
N494 N 0.43764 0.37797 0.58456 0.0
C495 C 0.45956 0.38905 0.55805 0.0
C496 C 0.44593 0.42011 0.56579 0.0
C497 C 0.38802 0.45535 0.61713 0.0
H498 H 0.35835 0.44601 0.60515 0.0
H499 H 0.38847 0.46769 0.65869 0.0
H500 H 0.39531 0.47365 0.60333 0.0
O501 O 0.34616 0.35192 0.60976 0.0
O502 O 0.38839 0.31269 0.56527 0.0
H503 H 0.48445 0.34732 0.49545 0.0
H504 H 0.51006 0.3862 0.51372 0.0
C505 C 0.4939 0.37095 0.52776 0.0
H506 H 0.51343 0.36466 0.55127 0.0
H507 H 0.45082 0.28498 0.48305 0.0
O508 O 0.33628 0.42783 0.67702 0.0
C509 C 0.35381 0.32217 0.57735 0.0
Co510 Co 0.37561 0.34908 0.09218 0.0
Co511 Co 0.43606 0.40514 0.14856 0.0
C512 C 0.42783 0.37193 0.0356 0.0
O513 O 0.40195 0.35206 0.03619 0.0
O514 O 0.44281 0.39419 0.07611 0.0
C515 C 0.31704 0.30702 0.02855 0.0
O516 O 0.32746 0.32019 0.99936 0.0
C517 C 0.51226 0.43575 0.17575 0.0
C518 C 0.50431 0.47178 0.25577 0.0
C519 C 0.53152 0.4588 0.21797 0.0
N520 N 0.47528 0.43514 0.18797 0.0
N521 N 0.47051 0.45718 0.23558 0.0
C522 C 0.52945 0.41169 0.12655 0.0
H523 H 0.51195 0.38848 0.10883 0.0
H524 H 0.55942 0.40538 0.13155 0.0
H525 H 0.52984 0.42341 0.10113 0.0
C526 C 0.41595 0.31699 0.14459 0.0
N527 N 0.41139 0.34249 0.13355 0.0
N528 N 0.43737 0.36568 0.1575 0.0
C529 C 0.45945 0.35552 0.18492 0.0
C530 C 0.44663 0.32425 0.17749 0.0
C531 C 0.38955 0.28746 0.12604 0.0
H532 H 0.36016 0.29611 0.14043 0.0
H533 H 0.3882 0.27592 0.08455 0.0
H534 H 0.39866 0.26866 0.138 0.0
O535 O 0.34465 0.38951 0.13138 0.0
O536 O 0.38697 0.4293 0.17395 0.0
H537 H 0.48282 0.39924 0.24607 0.0
H538 H 0.508 0.36112 0.23362 0.0
C539 C 0.49293 0.37484 0.21621 0.0
H540 H 0.51364 0.37973 0.19231 0.0
H541 H 0.44456 0.46111 0.25489 0.0
O542 O 0.33678 0.31333 0.06745 0.0
C543 C 0.35237 0.41951 0.16285 0.0
H544 H 0.22466 0.04611 0.19219 0.0
H545 H 0.40829 0.02818 0.33772 0.0
H546 H 0.21789 0.0382 0.33004 0.0
H547 H 0.41425 0.04369 0.20644 0.0
H548 H 0.33817 0.02309 0.32857 0.0
H549 H 0.29366 0.03576 0.18919 0.0
C550 C 0.23759 0.04175 0.22148 0.0
C551 C 0.21558 0.04352 0.2618 0.0
C552 C 0.35483 0.0274 0.30158 0.0
C553 C 0.29463 0.03224 0.25908 0.0
C554 C 0.3947 0.03038 0.30691 0.0
C555 C 0.41671 0.0366 0.27299 0.0
C556 C 0.33701 0.0311 0.2624 0.0
C557 C 0.3981 0.03894 0.23338 0.0
C558 C 0.27703 0.036 0.21988 0.0
C559 C 0.23381 0.03737 0.29847 0.0
N560 N 0.35924 0.03651 0.22943 0.0
N561 N 0.27239 0.03244 0.29659 0.0
H562 H 0.91389 0.23566 0.5437 0.0
H563 H 0.71211 0.20639 0.4048 0.0
H564 H 0.89985 0.17714 0.38339 0.0
H565 H 0.72499 0.20587 0.54761 0.0
H566 H 0.78122 0.21623 0.40416 0.0
H567 H 0.844 0.24318 0.55151 0.0
C568 C 0.89654 0.22542 0.50998 0.0
C569 C 0.9135 0.20667 0.46263 0.0
C570 C 0.76866 0.21449 0.43592 0.0
C571 C 0.83382 0.2159 0.47158 0.0
C572 C 0.72927 0.20906 0.43655 0.0
C573 C 0.7129 0.20472 0.47598 0.0
C574 C 0.79162 0.21615 0.47533 0.0
C575 C 0.73655 0.20858 0.51616 0.0
C576 C 0.85679 0.2298 0.51463 0.0
C577 C 0.88918 0.19331 0.42043 0.0
N578 N 0.77488 0.21384 0.51466 0.0
N579 N 0.85064 0.19827 0.42594 0.0
H580 H 0.40708 0.22078 0.91345 0.0
H581 H 0.21935 0.19657 0.04744 0.0
H582 H 0.41008 0.2052 0.04478 0.0
H583 H 0.21813 0.19939 0.90557 0.0
H584 H 0.28814 0.20929 0.0549 0.0
H585 H 0.33675 0.22253 0.91784 0.0
C586 C 0.39278 0.2179 0.94332 0.0
C587 C 0.41405 0.21248 0.97848 0.0
C588 C 0.27273 0.2074 0.02236 0.0
C589 C 0.33404 0.21414 0.98362 0.0
C590 C 0.23346 0.20029 0.01819 0.0
C591 C 0.21307 0.19673 0.9757 0.0
C592 C 0.29173 0.21072 0.98357 0.0
C593 C 0.23272 0.20188 0.93897 0.0
C594 C 0.35277 0.21892 0.94589 0.0
C595 C 0.39449 0.20931 0.01689 0.0
N596 N 0.27105 0.20825 0.9435 0.0
N597 N 0.35548 0.20987 0.0182 0.0
H598 H 0.90474 0.03665 0.84173 0.0
H599 H 0.71764 0.0496 0.69886 0.0
H600 H 0.90739 0.0369 0.69828 0.0
H601 H 0.71442 0.0437 0.83843 0.0
H602 H 0.78635 0.03761 0.69254 0.0
H603 H 0.83457 0.03237 0.83637 0.0
C604 C 0.89043 0.03578 0.80911 0.0
C605 C 0.91158 0.03778 0.77084 0.0
C606 C 0.77055 0.03858 0.72429 0.0
C607 C 0.8316 0.03288 0.7643 0.0
C608 C 0.73126 0.04531 0.72782 0.0
C609 C 0.71035 0.04816 0.7696 0.0
C610 C 0.78914 0.03492 0.76301 0.0
C611 C 0.72946 0.04207 0.80578 0.0
C612 C 0.85046 0.03313 0.80587 0.0
C613 C 0.89194 0.03571 0.72876 0.0
N614 N 0.76788 0.03619 0.80198 0.0
N615 N 0.85297 0.03377 0.72686 0.0
H616 H 0.78315 0.95142 0.65546 0.0
H617 H 0.58488 0.96227 0.79606 0.0
H618 H 0.77456 0.94613 0.79521 0.0
H619 H 0.59359 0.96831 0.65721 0.0
H620 H 0.65512 0.9626 0.80134 0.0
H621 H 0.71482 0.96442 0.66066 0.0
C622 C 0.76704 0.9535 0.68768 0.0
C623 C 0.78448 0.94722 0.72465 0.0
C624 C 0.64176 0.96412 0.76988 0.0
C625 C 0.70612 0.96173 0.7305 0.0
C626 C 0.60177 0.96402 0.76699 0.0
C627 C 0.58382 0.96531 0.72622 0.0
C628 C 0.66379 0.96518 0.73136 0.0
C629 C 0.60663 0.96718 0.68914 0.0
C630 C 0.72793 0.96071 0.69044 0.0
C631 C 0.7622 0.95046 0.76562 0.0
N632 N 0.64553 0.96691 0.69246 0.0
N633 N 0.72406 0.95716 0.76719 0.0
H634 H 0.09157 0.77821 0.59271 0.0
H635 H 0.27457 0.80789 0.45661 0.0
H636 H 0.08517 0.79047 0.45869 0.0
H637 H 0.28039 0.80187 0.59596 0.0
H638 H 0.20638 0.79351 0.45027 0.0
H639 H 0.1619 0.7791 0.58835 0.0
C640 C 0.10513 0.78085 0.56221 0.0
C641 C 0.08288 0.78446 0.52616 0.0
C642 C 0.22263 0.79511 0.48206 0.0
C643 C 0.16285 0.78585 0.52107 0.0
C644 C 0.26162 0.80315 0.48557 0.0
C645 C 0.28311 0.80642 0.52712 0.0
C646 C 0.20497 0.79051 0.52055 0.0
C647 C 0.26489 0.7998 0.56338 0.0
C648 C 0.14515 0.78135 0.55967 0.0
C649 C 0.10151 0.78753 0.4871 0.0
N650 N 0.22675 0.79258 0.55957 0.0
N651 N 0.14048 0.78844 0.48579 0.0
H652 H 0.77625 0.79317 0.08746 0.0
H653 H 0.57864 0.79872 0.95799 0.0
H654 H 0.76862 0.80577 0.95349 0.0
H655 H 0.58606 0.77728 0.08364 0.0
H656 H 0.6487 0.79611 0.95099 0.0
H657 H 0.70745 0.78145 0.08173 0.0
C658 C 0.76024 0.79297 0.05637 0.0
C659 C 0.77809 0.801 0.02131 0.0
C660 C 0.6351 0.79164 0.97983 0.0
C661 C 0.69927 0.78794 0.01489 0.0
C662 C 0.59519 0.79307 0.98371 0.0
C663 C 0.57692 0.78813 0.02134 0.0
C664 C 0.65682 0.7857 0.01436 0.0
C665 C 0.59936 0.78132 0.05424 0.0
C666 C 0.72089 0.78644 0.05328 0.0
C667 C 0.75595 0.80009 0.98166 0.0
N668 N 0.63827 0.7805 0.05021 0.0
N669 N 0.7176 0.79409 0.97985 0.0
H670 H 0.07924 0.94982 0.29281 0.0
H671 H 0.27841 0.9525 0.16251 0.0
H672 H 0.08818 0.96538 0.16183 0.0
H673 H 0.26998 0.94299 0.29896 0.0
H674 H 0.20934 0.96216 0.1657 0.0
H675 H 0.14947 0.95085 0.29892 0.0
C676 C 0.09617 0.95378 0.26567 0.0
C677 C 0.07833 0.95759 0.22686 0.0
C678 C 0.22263 0.95829 0.19524 0.0
C679 C 0.15825 0.95887 0.23342 0.0
C680 C 0.26215 0.95301 0.19365 0.0
C681 C 0.27992 0.9466 0.23031 0.0
C682 C 0.20072 0.9572 0.23378 0.0
C683 C 0.25738 0.94759 0.26974 0.0
C684 C 0.13616 0.95432 0.26905 0.0
C685 C 0.10118 0.96234 0.19225 0.0
N686 N 0.21887 0.95245 0.2702 0.0
N687 N 0.14006 0.96283 0.1963 0.0
H688 H 0.20969 0.54443 0.84772 0.0
H689 H 0.40423 0.53429 0.7005 0.0
H690 H 0.21424 0.54625 0.70515 0.0
H691 H 0.39961 0.53922 0.84734 0.0
H692 H 0.33414 0.529 0.69495 0.0
H693 H 0.27835 0.53255 0.84128 0.0
C694 C 0.22499 0.54188 0.8147 0.0
C695 C 0.20631 0.54694 0.77731 0.0
C696 C 0.34843 0.53107 0.7283 0.0
C697 C 0.28505 0.53377 0.77008 0.0
C698 C 0.38837 0.53401 0.73141 0.0
C699 C 0.40742 0.53787 0.77485 0.0
C700 C 0.32754 0.53206 0.76905 0.0
C701 C 0.38578 0.53715 0.81373 0.0
C702 C 0.26428 0.53526 0.81118 0.0
C703 C 0.22757 0.54296 0.73516 0.0
N704 N 0.34691 0.53462 0.81011 0.0
N705 N 0.26593 0.53704 0.73299 0.0
H706 H 0.70681 0.7075 0.91247 0.0
H707 H 0.90597 0.71044 0.04693 0.0
H708 H 0.7163 0.6961 0.04726 0.0
H709 H 0.89774 0.7132 0.9056 0.0
H710 H 0.83589 0.71329 0.05388 0.0
H711 H 0.77584 0.71827 0.91602 0.0
C712 C 0.72329 0.70779 0.94328 0.0
C713 C 0.70586 0.70049 0.97934 0.0
C714 C 0.84932 0.71347 0.02144 0.0
C715 C 0.78491 0.71239 0.9832 0.0
C716 C 0.88926 0.71199 0.01762 0.0
C717 C 0.90734 0.71151 0.97563 0.0
C718 C 0.82738 0.71433 0.98278 0.0
C719 C 0.88465 0.71319 0.93833 0.0
C720 C 0.76276 0.7137 0.94506 0.0
C721 C 0.72862 0.7013 0.01844 0.0
N722 N 0.84574 0.71439 0.94266 0.0
N723 N 0.76704 0.70682 0.01908 0.0
H724 H 0.41363 0.73823 0.54581 0.0
H725 H 0.21571 0.70573 0.39729 0.0
H726 H 0.40402 0.68256 0.3846 0.0
H727 H 0.22499 0.71133 0.54453 0.0
H728 H 0.2848 0.71605 0.39855 0.0
H729 H 0.3437 0.74526 0.55062 0.0
C730 C 0.39723 0.72862 0.51135 0.0
C731 C 0.41545 0.71084 0.4647 0.0
C732 C 0.27148 0.71545 0.43077 0.0
C733 C 0.33569 0.71923 0.47013 0.0
C734 C 0.23209 0.70975 0.43029 0.0
C735 C 0.21472 0.70708 0.47057 0.0
C736 C 0.29344 0.71888 0.47199 0.0
C737 C 0.23734 0.71272 0.51242 0.0
C738 C 0.35745 0.73265 0.51426 0.0
C739 C 0.39237 0.69803 0.42133 0.0
N740 N 0.2757 0.71806 0.51187 0.0
N741 N 0.35373 0.70253 0.42516 0.0
H742 H 0.71601 0.54097 0.33934 0.0
H743 H 0.91682 0.5415 0.21126 0.0
H744 H 0.72702 0.54985 0.20258 0.0
H745 H 0.9062 0.53503 0.34962 0.0
H746 H 0.84686 0.53816 0.20236 0.0
H747 H 0.78493 0.53105 0.33769 0.0
C748 C 0.73282 0.54031 0.30849 0.0
C749 C 0.71585 0.54671 0.27136 0.0
C750 C 0.85975 0.53715 0.23447 0.0
C751 C 0.79481 0.53579 0.26967 0.0
C752 C 0.89959 0.53893 0.23939 0.0
C753 C 0.91687 0.53854 0.28118 0.0
C754 C 0.83721 0.53467 0.27146 0.0
C755 C 0.89363 0.53555 0.31699 0.0
C756 C 0.77224 0.53486 0.30778 0.0
C757 C 0.73901 0.54537 0.23222 0.0
N758 N 0.85485 0.53378 0.31137 0.0
N759 N 0.77742 0.5404 0.23268 0.0
H760 H 0.58237 0.47418 0.16241 0.0
H761 H 0.76437 0.44593 0.30079 0.0
H762 H 0.57497 0.45286 0.28823 0.0
H763 H 0.77217 0.45675 0.16535 0.0
H764 H 0.69572 0.45776 0.30475 0.0
H765 H 0.65266 0.47664 0.17042 0.0
C766 C 0.59571 0.47025 0.19188 0.0
C767 C 0.57328 0.46328 0.2247 0.0
C768 C 0.7125 0.45778 0.27436 0.0
C769 C 0.65305 0.46549 0.23369 0.0
C770 C 0.75173 0.4512 0.27221 0.0
C771 C 0.77392 0.44992 0.23233 0.0
C772 C 0.69528 0.46293 0.23617 0.0
C773 C 0.7561 0.45723 0.19657 0.0
C774 C 0.63566 0.47163 0.19647 0.0
C775 C 0.59151 0.4584 0.26235 0.0
N776 N 0.71769 0.46301 0.199 0.0
N777 N 0.63043 0.45925 0.26552 0.0
H778 H 0.26596 0.2884 0.9506 0.0
H779 H 0.0907 0.34153 0.10644 0.0
H780 H 0.27806 0.29669 0.09921 0.0
H781 H 0.07746 0.24256 0.98269 0.0
H782 H 0.16018 0.33452 0.10016 0.0
H783 H 0.19671 0.27856 0.95404 0.0
C784 C 0.25428 0.28748 0.98341 0.0
C785 C 0.27771 0.29376 0.0249 0.0
C786 C 0.14189 0.31416 0.07507 0.0
C787 C 0.19925 0.28312 0.02904 0.0
C788 C 0.10222 0.31783 0.07907 0.0
C789 C 0.07814 0.29194 0.04629 0.0
C790 C 0.15761 0.28514 0.0366 0.0
C791 C 0.09515 0.26291 0.0089 0.0
C792 C 0.21497 0.28182 0.98521 0.0
C793 C 0.26108 0.2922 0.06648 0.0
N794 N 0.13407 0.26041 0.00446 0.0
N795 N 0.22261 0.2879 0.06805 0.0
H796 H 0.58171 0.26666 0.5798 0.0
H797 H 0.77745 0.3007 0.60264 0.0
H798 H 0.58449 0.30024 0.46663 0.0
H799 H 0.76765 0.30718 0.46399 0.0
H800 H 0.70988 0.28643 0.59736 0.0
H801 H 0.65184 0.26538 0.57956 0.0
C802 C 0.59737 0.27383 0.555 0.0
C803 C 0.57769 0.28388 0.52359 0.0
C804 C 0.72233 0.29006 0.56724 0.0
C805 C 0.6579 0.28408 0.52444 0.0
C806 C 0.76122 0.29833 0.57037 0.0
C807 C 0.77819 0.30553 0.534 0.0
C808 C 0.70024 0.28847 0.52694 0.0
C809 C 0.7557 0.30211 0.49312 0.0
C810 C 0.63748 0.27348 0.55516 0.0
C811 C 0.59887 0.2925 0.49157 0.0
N812 N 0.71782 0.29417 0.491 0.0
N813 N 0.63787 0.29268 0.49313 0.0
H814 H 0.08652 0.47338 0.66411 0.0
H815 H 0.27151 0.44344 0.79576 0.0
H816 H 0.08224 0.46149 0.79851 0.0
H817 H 0.27568 0.45166 0.65803 0.0
H818 H 0.20341 0.45783 0.80374 0.0
H819 H 0.15692 0.47281 0.66709 0.0
C820 C 0.10059 0.47092 0.69443 0.0
C821 C 0.07894 0.46747 0.73113 0.0
C822 C 0.21928 0.45674 0.77197 0.0
C823 C 0.15897 0.46635 0.73459 0.0
C824 C 0.25823 0.4487 0.76753 0.0
C825 C 0.2792 0.44594 0.72586 0.0
C826 C 0.20114 0.46191 0.73433 0.0
C827 C 0.26057 0.45326 0.69061 0.0
C828 C 0.14064 0.47061 0.6962 0.0
C829 C 0.09816 0.46444 0.76978 0.0
N830 N 0.22247 0.46051 0.69533 0.0
N831 N 0.13715 0.46369 0.77033 0.0
H832 H 0.02394 0.16461 0.2656 0.0
H833 H 0.06095 0.17688 0.04797 0.0
H834 H 0.0765 0.06771 0.18215 0.0
H835 H 0.03726 0.07099 0.9695 0.0
H836 H 0.05276 0.17542 0.12777 0.0
H837 H 0.0141 0.1675 0.18701 0.0
C838 C 0.033 0.14376 0.23077 0.0
C839 C 0.05159 0.11608 0.23061 0.0
C840 C 0.04836 0.15265 0.09316 0.0
C841 C 0.04086 0.11949 0.14068 0.0
C842 C 0.05332 0.15342 0.0476 0.0
C843 C 0.04973 0.12401 0.00213 0.0
C844 C 0.04046 0.12211 0.09333 0.0
C845 C 0.04 0.09425 0.00377 0.0
C846 C 0.02769 0.1456 0.18599 0.0
C847 C 0.06258 0.08976 0.18414 0.0
N848 N 0.03648 0.09391 0.04875 0.0
N849 N 0.05717 0.09216 0.14102 0.0
H850 H 0.92991 0.82019 0.94833 0.0
H851 H 0.93066 0.92512 0.8013 0.0
H852 H 0.95808 0.92533 0.02265 0.0
H853 H 0.96101 0.82056 0.72805 0.0
H854 H 0.93978 0.92613 0.88282 0.0
H855 H 0.94046 0.81937 0.86715 0.0
C856 C 0.93881 0.84302 0.94753 0.0
C857 C 0.94286 0.87295 0.99222 0.0
C858 C 0.94505 0.90311 0.84893 0.0
C859 C 0.95424 0.87229 0.89951 0.0
C860 C 0.9397 0.90246 0.8024 0.0
C861 C 0.94479 0.87262 0.75787 0.0
C862 C 0.9546 0.87352 0.85098 0.0
C863 C 0.95675 0.84407 0.76148 0.0
C864 C 0.94496 0.84249 0.90122 0.0
C865 C 0.95465 0.90175 0.98906 0.0
N866 N 0.96053 0.84505 0.80729 0.0
N867 N 0.95919 0.90087 0.9434 0.0
H868 H 0.10667 0.66866 0.55152 0.0
H869 H -0.00362 0.64384 0.75733 0.0
H870 H 0.00865 0.60242 0.49633 0.0
H871 H 0.11513 0.6148 0.72275 0.0
H872 H 0.99099 0.64605 0.67654 0.0
H873 H 0.09984 0.66884 0.63232 0.0
C874 C 0.08331 0.65449 0.55641 0.0
C875 C 0.05855 0.63502 0.51656 0.0
C876 C 0.01795 0.63896 0.68693 0.0
C877 C 0.05039 0.63587 0.60976 0.0
C878 C 0.02112 0.63785 0.73281 0.0
C879 C 0.05621 0.62898 0.74657 0.0
C880 C 0.05042 0.63222 0.65604 0.0
C881 C 0.08745 0.62144 0.71354 0.0
C882 C 0.07952 0.6547 0.60264 0.0
C883 C 0.02865 0.61745 0.5258 0.0
N884 N 0.08395 0.62371 0.67026 0.0
N885 N 0.02546 0.61811 0.57161 0.0
H886 H 0.95545 0.43472 0.53529 0.0
H887 H 0.95436 0.32872 0.23626 0.0
H888 H 0.92688 0.32967 0.45789 0.0
H889 H 0.9223 0.43285 0.31375 0.0
H890 H 0.96431 0.3294 0.31766 0.0
H891 H 0.96343 0.43443 0.45375 0.0
C892 C 0.95163 0.41148 0.50119 0.0
C893 C 0.94007 0.38225 0.50322 0.0
C894 C 0.95561 0.35216 0.31665 0.0
C895 C 0.9495 0.38175 0.41042 0.0
C896 C 0.9501 0.35186 0.27034 0.0
C897 C 0.93709 0.38069 0.26835 0.0
C898 C 0.9488 0.38164 0.3611 0.0
C899 C 0.93189 0.40997 0.31368 0.0
C900 C 0.95598 0.4114 0.45483 0.0
C901 C 0.93537 0.35284 0.45792 0.0
N902 N 0.93767 0.40969 0.35827 0.0
N903 N 0.94 0.35334 0.41331 0.0
H904 H 0.53458 0.0757 0.47817 0.0
H905 H 0.53537 0.17857 0.77783 0.0
H906 H 0.56649 0.17993 0.55774 0.0
H907 H 0.56393 0.07377 0.69784 0.0
H908 H 0.52735 0.17941 0.69707 0.0
H909 H 0.5259 0.07515 0.55901 0.0
C910 C 0.53908 0.09859 0.5126 0.0
C911 C 0.55168 0.12781 0.5113 0.0
C912 C 0.53485 0.15618 0.69739 0.0
C913 C 0.54139 0.12739 0.60346 0.0
C914 C 0.53922 0.15563 0.74333 0.0
C915 C 0.5507 0.12613 0.74445 0.0
C916 C 0.54119 0.12688 0.65244 0.0
C917 C 0.55547 0.09712 0.69862 0.0
C918 C 0.5343 0.09819 0.55859 0.0
C919 C 0.55718 0.15676 0.55707 0.0
N920 N 0.55076 0.09823 0.65445 0.0
N921 N 0.55208 0.15582 0.60133 0.0
H922 H 0.45989 0.82213 0.22671 0.0
H923 H 0.46615 0.92889 0.5258 0.0
H924 H 0.43351 0.92743 0.30522 0.0
H925 H 0.43278 0.82488 0.45015 0.0
H926 H 0.47484 0.9277 0.44383 0.0
H927 H 0.47036 0.82245 0.30793 0.0
C928 C 0.45706 0.84542 0.26094 0.0
C929 C 0.44539 0.87472 0.25937 0.0
C930 C 0.4662 0.90506 0.44536 0.0
C931 C 0.45773 0.87529 0.35181 0.0
C932 C 0.46143 0.90564 0.492 0.0
C933 C 0.44827 0.87704 0.49474 0.0
C934 C 0.45847 0.87551 0.40126 0.0
C935 C 0.4425 0.8476 0.4497 0.0
C936 C 0.46285 0.84553 0.30713 0.0
C937 C 0.44202 0.90421 0.30484 0.0
N938 N 0.44749 0.84762 0.40478 0.0
N939 N 0.44805 0.90373 0.34924 0.0
H940 H 0.55208 0.67843 0.05523 0.0
H941 H 0.56995 0.56645 0.19035 0.0
H942 H 0.53297 0.57192 0.97452 0.0
H943 H 0.53101 0.66863 0.26965 0.0
H944 H 0.55788 0.56748 0.11068 0.0
H945 H 0.54531 0.67572 0.13441 0.0
C946 C 0.54589 0.65454 0.05424 0.0
C947 C 0.54328 0.62531 0.00836 0.0
C948 C 0.55142 0.58948 0.14554 0.0
C949 C 0.53638 0.62193 0.09868 0.0
C950 C 0.55848 0.58898 0.19099 0.0
C951 C 0.55173 0.6176 0.23669 0.0
C952 C 0.5384 0.61903 0.14582 0.0
C953 C 0.53661 0.64603 0.23532 0.0
C954 C 0.54193 0.65303 0.0994 0.0
C955 C 0.53511 0.59502 0.00914 0.0
N956 N 0.5311 0.64623 0.1906 0.0
N957 N 0.53272 0.59398 0.05368 0.0
H958 H 0.42727 0.42363 0.79721 0.0
H959 H 0.42372 0.31783 0.94292 0.0
H960 H 0.4547 0.31847 0.72247 0.0
H961 H 0.45575 0.42216 0.01711 0.0
H962 H 0.43363 0.31709 0.86165 0.0
H963 H 0.43637 0.42399 0.87828 0.0
C964 C 0.43569 0.4007 0.7979 0.0
C965 C 0.43997 0.37091 0.75311 0.0
C966 C 0.43908 0.34 0.89572 0.0
C967 C 0.4497 0.37104 0.84568 0.0
C968 C 0.43326 0.34049 0.94208 0.0
C969 C 0.43862 0.37019 0.98679 0.0
C970 C 0.44937 0.36961 0.89403 0.0
C971 C 0.45125 0.39876 0.98353 0.0
C972 C 0.44101 0.40097 0.84415 0.0
C973 C 0.4511 0.34196 0.75615 0.0
N974 N 0.45549 0.39794 0.93789 0.0
N975 N 0.45485 0.34258 0.80173 0.0
H976 H 0.27685 0.33424 0.59513 0.0
H977 H 0.21306 0.15151 0.38954 0.0
H978 H 0.35682 0.25673 0.50406 0.0
H979 H 0.13245 0.22831 0.48088 0.0
H980 H 0.26578 0.18989 0.43107 0.0
H981 H 0.22374 0.29597 0.55399 0.0
C982 C 0.28333 0.30914 0.56651 0.0
C983 C 0.32151 0.29872 0.55305 0.0
C984 C 0.23661 0.19842 0.44208 0.0
C985 C 0.2605 0.25472 0.50567 0.0
C986 C 0.20634 0.1765 0.41834 0.0
C987 C 0.16809 0.18665 0.43171 0.0
C988 C 0.22879 0.23088 0.47963 0.0
C989 C 0.16141 0.21938 0.46932 0.0
C990 C 0.25288 0.2873 0.54302 0.0
C991 C 0.32793 0.26588 0.5157 0.0
N992 N 0.19148 0.24033 0.49198 0.0
N993 N 0.29774 0.24508 0.49331 0.0
H994 H 0.96169 0.89965 0.46647 0.0
H995 H 0.02988 0.08174 0.51223 0.0
H996 H 0.97434 0.98376 0.6132 0.0
H997 H 0.03066 0.9952 0.36688 0.0
H998 H 0.00704 0.04667 0.54952 0.0
H999 H 0.98509 0.93437 0.42869 0.0
C1000 C 0.96963 0.92543 0.49065 0.0
C1001 C 0.96624 0.93895 0.5429 0.0
C1002 C 0.01228 0.03526 0.50948 0.0
C1003 C 0.99251 0.97891 0.50021 0.0
C1004 C 0.02514 0.0553 0.48822 0.0
C1005 C 0.03228 0.04121 0.43655 0.0
C1006 C 0.00627 0.00089 0.47873 0.0
C1007 C 0.0259 0.00685 0.40701 0.0
C1008 C 0.98283 0.94526 0.46915 0.0
C1009 C 0.97637 0.97253 0.57268 0.0
N1010 N 0.0132 0.98783 0.4285 0.0
N1011 N 0.989 0.9914 0.55092 0.0
H1012 H 0.36179 0.99515 0.73914 0.0
H1013 H 0.13246 0.01417 0.75088 0.0
H1014 H 0.2838 0.91633 0.64505 0.0
H1015 H 0.21094 0.0924 0.84534 0.0
H1016 H 0.18757 0.97807 0.71037 0.0
H1017 H 0.30667 0.03173 0.77699 0.0
C1018 C 0.33315 0.98558 0.72629 0.0
C1019 C 0.32747 0.95259 0.68899 0.0
C1020 C 0.19265 0.00316 0.73998 0.0
C1021 C 0.26426 0.99422 0.73224 0.0
C1022 C 0.16119 0.02374 0.76315 0.0
C1023 C 0.16702 0.05634 0.80162 0.0
C1024 C 0.23013 0.0153 0.75542 0.0
C1025 C 0.20496 0.06744 0.8159 0.0
C1026 C 0.30167 0.00644 0.74796 0.0
C1027 C 0.28963 0.94154 0.67381 0.0
N1028 N 0.23499 0.04698 0.79283 0.0
N1029 N 0.25951 0.96227 0.69558 0.0
H1030 H 0.90394 0.30575 0.74025 0.0
H1031 H 0.0845 0.20637 0.77033 0.0
H1032 H 0.0189 0.31491 0.69443 0.0
H1033 H 0.97038 0.19976 0.82099 0.0
H1034 H 0.06096 0.24583 0.74168 0.0
H1035 H 0.92758 0.26689 0.77012 0.0
C1036 C 0.93423 0.29959 0.73671 0.0
C1037 C 0.95958 0.31342 0.71495 0.0
C1038 C 0.04099 0.23576 0.75899 0.0
C1039 C 0.98688 0.26904 0.74879 0.0
C1040 C 0.05445 0.21331 0.7754 0.0
C1041 C 0.02929 0.19995 0.79807 0.0
C1042 C 0.00206 0.24494 0.76534 0.0
C1043 C 0.99055 0.20934 0.80322 0.0
C1044 C 0.94772 0.27746 0.75373 0.0
C1045 C -0.00145 0.30494 0.71145 0.0
N1046 N 0.9781 0.23133 0.78706 0.0
N1047 N 0.01102 0.28317 0.72803 0.0
H1048 H 0.86255 0.75654 0.50908 0.0
H1049 H 0.63364 0.73201 0.48699 0.0
H1050 H 0.78193 0.83422 0.59761 0.0
H1051 H 0.71484 0.6552 0.39743 0.0
H1052 H 0.68747 0.76988 0.52841 0.0
H1053 H 0.80858 0.71886 0.46841 0.0
C1054 C 0.83355 0.76568 0.52008 0.0
C1055 C 0.82686 0.79865 0.55684 0.0
C1056 C 0.69345 0.74473 0.49965 0.0
C1057 C 0.76485 0.75562 0.51029 0.0
C1058 C 0.66271 0.72311 0.47595 0.0
C1059 C 0.66963 0.69034 0.43863 0.0
C1060 C 0.73138 0.73351 0.48596 0.0
C1061 C 0.70799 0.68021 0.42596 0.0
C1062 C 0.80271 0.74415 0.49678 0.0
C1063 C 0.78857 0.80905 0.56947 0.0
N1064 N 0.73732 0.70167 0.44956 0.0
N1065 N 0.75907 0.78764 0.54623 0.0
H1066 H 0.71456 0.09518 0.35257 0.0
H1067 H 0.77786 0.91212 0.14795 0.0
H1068 H 0.63438 0.01707 0.26262 0.0
H1069 H 0.8585 0.98912 0.23988 0.0
H1070 H 0.72519 0.95067 0.1886 0.0
H1071 H 0.7676 0.0571 0.31106 0.0
C1072 C 0.70804 0.07001 0.32412 0.0
C1073 C 0.66983 0.05933 0.31113 0.0
C1074 C 0.75438 0.95919 0.19989 0.0
C1075 C 0.73068 0.01556 0.26334 0.0
C1076 C 0.78458 0.93718 0.17663 0.0
C1077 C 0.8228 0.94734 0.19052 0.0
C1078 C 0.76228 0.99172 0.23741 0.0
C1079 C 0.82955 0.98016 0.22794 0.0
C1080 C 0.73842 0.04827 0.3004 0.0
C1081 C 0.6633 0.02641 0.27393 0.0
N1082 N 0.79957 0.00116 0.25012 0.0
N1083 N 0.69341 0.00573 0.25136 0.0
H1084 H 0.90171 0.79483 0.22562 0.0
H1085 H 0.08349 0.70195 0.2684 0.0
H1086 H 0.0173 0.80496 0.18271 0.0
H1087 H 0.969 0.69471 0.31745 0.0
H1088 H 0.05929 0.73829 0.23433 0.0
H1089 H 0.92518 0.75689 0.25742 0.0
C1090 C 0.93207 0.789 0.22296 0.0
C1091 C 0.95769 0.80299 0.2017 0.0
C1092 C 0.03936 0.72872 0.25238 0.0
C1093 C 0.9848 0.75975 0.2379 0.0
C1094 C 0.05318 0.70803 0.27184 0.0
C1095 C 0.02816 0.69549 0.2958 0.0
C1096 C 0.00016 0.73697 0.25692 0.0
C1097 C 0.98912 0.70373 0.29887 0.0
C1098 C 0.94546 0.76742 0.24114 0.0
C1099 C -0.00327 0.79491 0.19936 0.0
N1100 N 0.97629 0.72407 0.27979 0.0
N1101 N 0.00911 0.77378 0.21718 0.0
H1102 H 0.35737 0.76182 0.01655 0.0
H1103 H 0.12812 0.7401 0.9973 0.0
H1104 H 0.2784 0.84091 0.1056 0.0
H1105 H 0.20846 0.66058 0.91457 0.0
H1106 H 0.1825 0.77775 0.03738 0.0
H1107 H 0.30271 0.72449 0.97854 0.0
C1108 C 0.32859 0.77135 0.02818 0.0
C1109 C 0.32256 0.80458 0.06433 0.0
C1110 C 0.18813 0.75203 0.01047 0.0
C1111 C 0.25974 0.76195 0.02086 0.0
C1112 C 0.15709 0.73054 0.98758 0.0
C1113 C 0.16363 0.69711 0.95245 0.0
C1114 C 0.22592 0.74 0.99804 0.0
C1115 C 0.20187 0.68612 0.94138 0.0
C1116 C 0.29734 0.75001 0.00646 0.0
C1117 C 0.28451 0.81549 0.07788 0.0
N1118 N 0.23144 0.70748 0.96399 0.0
N1119 N 0.25459 0.79426 0.0561 0.0
H1120 H 0.96287 0.55582 0.93443 0.0
H1121 H 0.01757 0.45187 0.08246 0.0
H1122 H 0.07792 0.54877 0.98164 0.0
H1123 H 0.90397 0.45324 0.02644 0.0
H1124 H 0.04007 0.48839 0.04736 0.0
H1125 H 0.9401 0.51982 0.97038 0.0
C1126 C 0.98323 0.54679 0.95267 0.0
C1127 C 0.02225 0.55512 0.95512 0.0
C1128 C 0.01024 0.48064 0.04256 0.0
C1129 C -0.0033 0.51385 0.99591 0.0
C1130 C -0.00249 0.45967 0.06231 0.0
C1131 C 0.95903 0.44939 0.05681 0.0
C1132 C 0.98419 0.4915 0.01733 0.0
C1133 C 0.9339 0.4607 0.03141 0.0
C1134 C 0.97033 0.52614 0.97293 0.0
C1135 C 0.04762 0.54261 0.97864 0.0
N1136 N 0.94691 0.48114 0.01257 0.0
N1137 N 0.03443 0.5226 0.99813 0.0
H1138 H 0.21552 0.59311 0.3472 0.0
H1139 H 0.27498 0.40707 0.14945 0.0
H1140 H 0.13306 0.51446 0.26739 0.0
H1141 H 0.35667 0.48565 0.23266 0.0
H1142 H 0.22265 0.44595 0.19148 0.0
H1143 H 0.26737 0.55397 0.30513 0.0
C1144 C 0.20824 0.56758 0.32086 0.0
C1145 C 0.16974 0.55711 0.31085 0.0
C1146 C 0.25201 0.4547 0.20053 0.0
C1147 C 0.22932 0.51203 0.26231 0.0
C1148 C 0.28197 0.43252 0.17649 0.0
C1149 C 0.32039 0.44308 0.18749 0.0
C1150 C 0.26041 0.48774 0.23586 0.0
C1151 C 0.32756 0.47636 0.22292 0.0
C1152 C 0.23797 0.54521 0.2968 0.0
C1153 C 0.16226 0.52366 0.27633 0.0
N1154 N 0.29787 0.49747 0.24582 0.0
N1155 N 0.19179 0.50232 0.25326 0.0
H1156 H 0.77674 0.3413 0.10929 0.0
H1157 H 0.71313 0.1589 0.90238 0.0
H1158 H 0.85723 0.26455 0.0174 0.0
H1159 H 0.63306 0.2362 0.99385 0.0
H1160 H 0.76619 0.19702 0.94429 0.0
H1161 H 0.72396 0.30285 0.0679 0.0
C1162 C 0.7834 0.31632 0.08044 0.0
C1163 C 0.8216 0.30618 0.06679 0.0
C1164 C 0.73704 0.20567 0.9552 0.0
C1165 C 0.76097 0.26194 0.01907 0.0
C1166 C 0.70664 0.18391 0.93126 0.0
C1167 C 0.66846 0.19435 0.94458 0.0
C1168 C 0.72934 0.23815 0.99282 0.0
C1169 C 0.66196 0.22706 0.9823 0.0
C1170 C 0.75314 0.29436 0.05677 0.0
C1171 C 0.82828 0.27347 0.02916 0.0
N1172 N 0.69211 0.24778 0.00509 0.0
N1173 N 0.79824 0.25252 0.00657 0.0
H1174 H 0.85652 0.49697 0.75038 0.0
H1175 H 0.62742 0.51722 0.75997 0.0
H1176 H 0.77797 0.41856 0.65662 0.0
H1177 H 0.70561 0.59565 0.8546 0.0
H1178 H 0.68245 0.48081 0.72097 0.0
H1179 H 0.80162 0.53392 0.78831 0.0
C1180 C 0.8278 0.48754 0.73768 0.0
C1181 C 0.8219 0.45459 0.70032 0.0
C1182 C 0.68753 0.506 0.75028 0.0
C1183 C 0.75899 0.49666 0.74358 0.0
C1184 C 0.6561 0.52678 0.77258 0.0
C1185 C 0.66184 0.55953 0.81065 0.0
C1186 C 0.72496 0.51805 0.76616 0.0
C1187 C 0.69973 0.57058 0.82541 0.0
C1188 C 0.79646 0.50862 0.75938 0.0
C1189 C 0.78399 0.44374 0.68536 0.0
N1190 N 0.7298 0.54989 0.80316 0.0
N1191 N 0.75404 0.46469 0.70707 0.0
H1192 H 0.45409 0.90929 0.97411 0.0
H1193 H 0.53442 0.09013 0.02853 0.0
H1194 H 0.4714 0.99006 0.12287 0.0
H1195 H 0.5187 0.00885 0.87983 0.0
H1196 H 0.51066 0.05417 0.06399 0.0
H1197 H 0.47748 0.94537 0.93869 0.0
C1198 C 0.46298 0.93465 0.99922 0.0
C1199 C 0.46091 0.94683 0.05134 0.0
C1200 C 0.51238 0.04415 0.0236 0.0
C1201 C 0.48738 0.98833 0.01141 0.0
C1202 C 0.5258 0.06469 0.00345 0.0
C1203 C 0.52847 0.0523 0.95133 0.0
C1204 C 0.50156 0.01097 0.99131 0.0
C1205 C 0.51728 0.01916 0.92029 0.0
C1206 C 0.47618 0.95527 0.97909 0.0
C1207 C 0.47238 0.97989 0.08241 0.0
N1208 N 0.50431 0.99962 0.94073 0.0
N1209 N 0.48513 0.99952 0.06199 0.0
H1210 H 0.45578 0.34174 0.27682 0.0
H1211 H 0.53445 0.16144 0.22568 0.0
H1212 H 0.47126 0.25967 0.12887 0.0
H1213 H 0.51769 0.24308 0.37369 0.0
H1214 H 0.51129 0.19695 0.18933 0.0
H1215 H 0.47917 0.30632 0.31324 0.0
C1216 C 0.46435 0.31626 0.25211 0.0
C1217 C 0.46168 0.30348 0.19993 0.0
C1218 C 0.51263 0.20716 0.22977 0.0
C1219 C 0.48805 0.26273 0.24098 0.0
C1220 C 0.52566 0.18685 0.25043 0.0
C1221 C 0.52789 0.19948 0.30262 0.0
C1222 C 0.50178 0.24034 0.26164 0.0
C1223 C 0.51657 0.23258 0.33322 0.0
C1224 C 0.47751 0.29601 0.2728 0.0
C1225 C 0.47274 0.27029 0.16937 0.0
N1226 N 0.50402 0.25191 0.31229 0.0
N1227 N 0.48542 0.25103 0.19033 0.0
H1228 H 0.52137 0.81583 0.69615 0.0
H1229 H 0.46259 0.70003 0.82394 0.0
H1230 H 0.40573 0.80783 0.74105 0.0
H1231 H 0.57859 0.71083 0.78304 0.0
H1232 H 0.44082 0.73916 0.79331 0.0
H1233 H 0.54311 0.77808 0.72914 0.0
C1234 C 0.50068 0.80638 0.71353 0.0
C1235 C 0.46178 0.81486 0.71597 0.0
C1236 C 0.47104 0.73295 0.79096 0.0
C1237 C 0.48611 0.77128 0.75297 0.0
C1238 C 0.48335 0.71049 0.80809 0.0
C1239 C 0.52234 0.7023 0.80586 0.0
C1240 C 0.49799 0.74722 0.7714 0.0
C1241 C 0.54828 0.71676 0.78566 0.0
C1242 C 0.51298 0.78466 0.73201 0.0
C1243 C 0.43595 0.8016 0.73811 0.0
N1244 N 0.53566 0.73852 0.76922 0.0
N1245 N 0.44854 0.78038 0.75564 0.0
H1246 H 0.52924 0.49899 0.3686 0.0
H1247 H 0.46682 0.48575 0.61636 0.0
H1248 H 0.52672 0.58311 0.51645 0.0
H1249 H 0.45891 0.40338 0.46726 0.0
H1250 H 0.49048 0.5215 0.58062 0.0
H1251 H 0.50523 0.46299 0.40388 0.0
C1252 C 0.52374 0.50977 0.40856 0.0
C1253 C 0.53017 0.5439 0.43985 0.0
C1254 C 0.48358 0.49562 0.55562 0.0
C1255 C 0.50251 0.50316 0.48044 0.0
C1256 C 0.47002 0.47529 0.57603 0.0
C1257 C 0.46089 0.44171 0.54459 0.0
C1258 C 0.48817 0.4822 0.50336 0.0
C1259 C 0.46591 0.42916 0.49269 0.0
C1260 C 0.5099 0.48932 0.42865 0.0
C1261 C 0.52203 0.55688 0.49115 0.0
N1262 N 0.47923 0.44941 0.47364 0.0
N1263 N 0.50875 0.53648 0.5099 0.0
loop_
_geom_bond_atom_site_label_1
_geom_bond_atom_site_label_2
_geom_bond_distance
_geom_bond_site_symmetry_2
_ccdc_geom_bond_type
Co0 O3 1.970 . S
Co0 N17 1.989 . S
Co0 O25 1.967 . S
Co0 O32 1.920 . S
Co1 O4 1.966 . S
Co1 N10 2.022 . S
Co1 N18 1.993 . S
Co1 O26 1.941 . S
C2 O3 1.258 . S
C2 O4 1.263 . S
O3 Co0 1.970 . S
O3 C2 1.258 . S
O4 Co1 1.966 . S
O4 C2 1.263 . S
C5 O6 1.235 . S
C5 O32 1.289 . S
O6 C5 1.235 . S
C7 C9 1.400 . S
C7 N10 1.351 1_655 S
C7 C12 1.501 . S
C8 C9 1.387 . S
C8 N11 1.341 . S
C9 C7 1.400 . S
C9 C8 1.387 . S
N10 Co1 2.022 . S
N10 C7 1.351 1_455 S
N10 N11 1.365 1_455 S
N11 C8 1.341 . S
N11 N10 1.365 1_655 S
N11 H31 0.862 1_655 S
C12 C7 1.501 . S
C12 H13 0.961 1_655 S
C12 H14 0.961 . S
C12 H15 0.960 . S
H13 C12 0.961 1_455 S
H14 C12 0.961 . S
H15 C12 0.960 . S
C16 N17 1.342 . S
C16 C20 1.401 . S
C16 C21 1.499 . S
N17 Co0 1.989 . S
N17 C16 1.342 . S
N17 N18 1.388 . S
N18 Co1 1.993 . S
N18 N17 1.388 . S
N18 C19 1.346 . S
C19 N18 1.346 . S
C19 C20 1.396 . S
C19 C29 1.510 . S
C20 C16 1.401 . S
C20 C19 1.396 . S
C21 C16 1.499 . S
C21 H22 0.959 . S
C21 H23 0.960 . S
C21 H24 0.961 . S
H22 C21 0.959 . S
H23 C21 0.960 . S
H24 C21 0.961 . S
O25 Co0 1.967 . S
O25 C33 1.258 . S
O26 Co1 1.941 . S
O26 C33 1.266 . S
H27 C29 0.959 . S
H28 C29 0.964 . S
C29 C19 1.510 . S
C29 H27 0.959 . S
C29 H28 0.964 . S
C29 H30 0.960 . S
H30 C29 0.960 . S
H31 N11 0.862 1_455 S
O32 Co0 1.920 . S
O32 C5 1.289 . S
C33 O25 1.258 . S
C33 O26 1.266 . S
Co34 O37 1.970 . S
Co34 N51 1.989 . S
Co34 O59 1.967 . S
Co34 O66 1.920 . S
Co35 O38 1.966 . S
Co35 N44 2.022 . S
Co35 N52 1.993 . S
Co35 O60 1.941 . S
C36 O37 1.258 . S
C36 O38 1.263 . S
O37 Co34 1.970 . S
O37 C36 1.258 . S
O38 Co35 1.966 . S
O38 C36 1.263 . S
C39 O40 1.235 . S
C39 O66 1.289 . S
O40 C39 1.235 . S
C41 C43 1.400 . S
C41 N44 1.351 1_655 S
C41 C46 1.501 . S
C42 C43 1.387 . S
C42 N45 1.341 . S
C43 C41 1.400 . S
C43 C42 1.387 . S
N44 Co35 2.022 . S
N44 C41 1.351 1_455 S
N44 N45 1.365 1_455 S
N45 C42 1.341 . S
N45 N44 1.365 1_655 S
N45 H65 0.862 1_655 S
C46 C41 1.501 . S
C46 H47 0.961 1_655 S
C46 H48 0.961 . S
C46 H49 0.960 . S
H47 C46 0.961 1_455 S
H48 C46 0.961 . S
H49 C46 0.960 . S
C50 N51 1.342 . S
C50 C54 1.401 . S
C50 C55 1.499 . S
N51 Co34 1.989 . S
N51 C50 1.342 . S
N51 N52 1.388 . S
N52 Co35 1.993 . S
N52 N51 1.388 . S
N52 C53 1.346 . S
C53 N52 1.346 . S
C53 C54 1.396 . S
C53 C63 1.510 . S
C54 C50 1.401 . S
C54 C53 1.396 . S
C55 C50 1.499 . S
C55 H56 0.959 . S
C55 H57 0.960 . S
C55 H58 0.961 . S
H56 C55 0.959 . S
H57 C55 0.960 . S
H58 C55 0.961 . S
O59 Co34 1.967 . S
O59 C67 1.258 . S
O60 Co35 1.941 . S
O60 C67 1.266 . S
H61 C63 0.959 . S
H62 C63 0.964 . S
C63 C53 1.510 . S
C63 H61 0.959 . S
C63 H62 0.964 . S
C63 H64 0.960 . S
H64 C63 0.960 . S
H65 N45 0.862 1_455 S
O66 Co34 1.920 . S
O66 C39 1.289 . S
C67 O59 1.258 . S
C67 O60 1.266 . S
Co68 O71 1.970 . S
Co68 N85 1.989 . S
Co68 O93 1.967 . S
Co68 O100 1.920 . S
Co69 O72 1.966 . S
Co69 N78 2.022 . S
Co69 N86 1.993 . S
Co69 O94 1.941 . S
C70 O71 1.258 . S
C70 O72 1.263 . S
O71 Co68 1.970 . S
O71 C70 1.258 . S
O72 Co69 1.966 . S
O72 C70 1.263 . S
C73 O74 1.235 . S
C73 O100 1.289 . S
O74 C73 1.235 . S
C75 C77 1.400 . S
C75 N78 1.351 1_455 S
C75 C80 1.501 . S
C76 C77 1.387 . S
C76 N79 1.341 . S
C77 C75 1.400 . S
C77 C76 1.387 . S
N78 Co69 2.022 . S
N78 C75 1.351 1_655 S
N78 N79 1.365 1_655 S
N79 C76 1.341 . S
N79 N78 1.365 1_455 S
N79 H99 0.862 1_455 S
C80 C75 1.501 . S
C80 H81 0.961 1_455 S
C80 H82 0.961 . S
C80 H83 0.960 . S
H81 C80 0.961 1_655 S
H82 C80 0.961 . S
H83 C80 0.960 . S
C84 N85 1.342 . S
C84 C88 1.401 . S
C84 C89 1.499 . S
N85 Co68 1.989 . S
N85 C84 1.342 . S
N85 N86 1.388 . S
N86 Co69 1.993 . S
N86 N85 1.388 . S
N86 C87 1.346 . S
C87 N86 1.346 . S
C87 C88 1.396 . S
C87 C97 1.510 . S
C88 C84 1.401 . S
C88 C87 1.396 . S
C89 C84 1.499 . S
C89 H90 0.959 . S
C89 H91 0.960 . S
C89 H92 0.961 . S
H90 C89 0.959 . S
H91 C89 0.960 . S
H92 C89 0.961 . S
O93 Co68 1.967 . S
O93 C101 1.258 . S
O94 Co69 1.941 . S
O94 C101 1.266 . S
H95 C97 0.959 . S
H96 C97 0.964 . S
C97 C87 1.510 . S
C97 H95 0.959 . S
C97 H96 0.964 . S
C97 H98 0.960 . S
H98 C97 0.960 . S
H99 N79 0.862 1_655 S
O100 Co68 1.920 . S
O100 C73 1.289 . S
C101 O93 1.258 . S
C101 O94 1.266 . S
Co102 O105 1.970 . S
Co102 N119 1.989 . S
Co102 O127 1.967 . S
Co102 O134 1.920 . S
Co103 O106 1.966 . S
Co103 N112 2.022 . S
Co103 N120 1.993 . S
Co103 O128 1.941 . S
C104 O105 1.258 . S
C104 O106 1.263 . S
O105 Co102 1.970 . S
O105 C104 1.258 . S
O106 Co103 1.966 . S
O106 C104 1.263 . S
C107 O108 1.235 . S
C107 O134 1.289 . S
O108 C107 1.235 . S
C109 C111 1.400 . S
C109 N112 1.351 1_455 S
C109 C114 1.501 . S
C110 C111 1.387 . S
C110 N113 1.341 . S
C111 C109 1.400 . S
C111 C110 1.387 . S
N112 Co103 2.022 . S
N112 C109 1.351 1_655 S
N112 N113 1.365 1_655 S
N113 C110 1.341 . S
N113 N112 1.365 1_455 S
N113 H133 0.862 1_455 S
C114 C109 1.501 . S
C114 H115 0.961 1_455 S
C114 H116 0.961 . S
C114 H117 0.960 . S
H115 C114 0.961 1_655 S
H116 C114 0.961 . S
H117 C114 0.960 . S
C118 N119 1.342 . S
C118 C122 1.401 . S
C118 C123 1.499 . S
N119 Co102 1.989 . S
N119 C118 1.342 . S
N119 N120 1.388 . S
N120 Co103 1.993 . S
N120 N119 1.388 . S
N120 C121 1.346 . S
C121 N120 1.346 . S
C121 C122 1.396 . S
C121 C131 1.510 . S
C122 C118 1.401 . S
C122 C121 1.396 . S
C123 C118 1.499 . S
C123 H124 0.959 . S
C123 H125 0.960 . S
C123 H126 0.961 . S
H124 C123 0.959 . S
H125 C123 0.960 . S
H126 C123 0.961 . S
O127 Co102 1.967 . S
O127 C135 1.258 . S
O128 Co103 1.941 . S
O128 C135 1.266 . S
H129 C131 0.959 . S
H130 C131 0.964 . S
C131 C121 1.510 . S
C131 H129 0.959 . S
C131 H130 0.964 . S
C131 H132 0.960 . S
H132 C131 0.960 . S
H133 N113 0.862 1_655 S
O134 Co102 1.920 . S
O134 C107 1.289 . S
C135 O127 1.258 . S
C135 O128 1.266 . S
Co136 O139 1.970 . S
Co136 N153 1.989 . S
Co136 O161 1.967 . S
Co136 O168 1.920 . S
Co137 O140 1.966 . S
Co137 N146 2.022 . S
Co137 N154 1.993 . S
Co137 O162 1.941 . S
C138 O139 1.258 . S
C138 O140 1.263 . S
O139 Co136 1.970 . S
O139 C138 1.258 . S
O140 Co137 1.966 . S
O140 C138 1.263 . S
C141 O142 1.235 . S
C141 O168 1.289 . S
O142 C141 1.235 . S
C143 C145 1.400 . S
C143 N146 1.351 1_655 S
C143 C148 1.501 . S
C144 C145 1.387 . S
C144 N147 1.341 . S
C145 C143 1.400 . S
C145 C144 1.387 . S
N146 Co137 2.022 . S
N146 C143 1.351 1_455 S
N146 N147 1.365 1_455 S
N147 C144 1.341 . S
N147 N146 1.365 1_655 S
N147 H167 0.862 1_655 S
C148 C143 1.501 . S
C148 H149 0.961 1_655 S
C148 H150 0.961 . S
C148 H151 0.960 . S
H149 C148 0.961 1_455 S
H150 C148 0.961 . S
H151 C148 0.960 . S
C152 N153 1.342 . S
C152 C156 1.401 . S
C152 C157 1.499 . S
N153 Co136 1.989 . S
N153 C152 1.342 . S
N153 N154 1.388 . S
N154 Co137 1.993 . S
N154 N153 1.388 . S
N154 C155 1.346 . S
C155 N154 1.346 . S
C155 C156 1.396 . S
C155 C165 1.510 . S
C156 C152 1.401 . S
C156 C155 1.396 . S
C157 C152 1.499 . S
C157 H158 0.959 . S
C157 H159 0.960 . S
C157 H160 0.961 . S
H158 C157 0.959 . S
H159 C157 0.960 . S
H160 C157 0.961 . S
O161 Co136 1.967 . S
O161 C169 1.258 . S
O162 Co137 1.941 . S
O162 C169 1.266 . S
H163 C165 0.959 . S
H164 C165 0.964 . S
C165 C155 1.510 . S
C165 H163 0.959 . S
C165 H164 0.964 . S
C165 H166 0.960 . S
H166 C165 0.960 . S
H167 N147 0.862 1_455 S
O168 Co136 1.920 . S
O168 C141 1.289 . S
C169 O161 1.258 . S
C169 O162 1.266 . S
Co170 O173 1.970 . S
Co170 N187 1.989 . S
Co170 O195 1.967 . S
Co170 O202 1.920 . S
Co171 O174 1.966 . S
Co171 N180 2.022 . S
Co171 N188 1.993 . S
Co171 O196 1.941 . S
C172 O173 1.258 . S
C172 O174 1.263 . S
O173 Co170 1.970 . S
O173 C172 1.258 . S
O174 Co171 1.966 . S
O174 C172 1.263 . S
C175 O176 1.235 . S
C175 O202 1.289 . S
O176 C175 1.235 . S
C177 C179 1.400 . S
C177 N180 1.351 1_655 S
C177 C182 1.501 . S
C178 C179 1.387 . S
C178 N181 1.341 . S
C179 C177 1.400 . S
C179 C178 1.387 . S
N180 Co171 2.022 . S
N180 C177 1.351 1_455 S
N180 N181 1.365 1_455 S
N181 C178 1.341 . S
N181 N180 1.365 1_655 S
N181 H201 0.862 1_655 S
C182 C177 1.501 . S
C182 H183 0.961 1_655 S
C182 H184 0.961 . S
C182 H185 0.960 . S
H183 C182 0.961 1_455 S
H184 C182 0.961 . S
H185 C182 0.960 . S
C186 N187 1.342 . S
C186 C190 1.401 . S
C186 C191 1.499 . S
N187 Co170 1.989 . S
N187 C186 1.342 . S
N187 N188 1.388 . S
N188 Co171 1.993 . S
N188 N187 1.388 . S
N188 C189 1.346 . S
C189 N188 1.346 . S
C189 C190 1.396 . S
C189 C199 1.510 . S
C190 C186 1.401 . S
C190 C189 1.396 . S
C191 C186 1.499 . S
C191 H192 0.959 . S
C191 H193 0.960 . S
C191 H194 0.961 . S
H192 C191 0.959 . S
H193 C191 0.960 . S
H194 C191 0.961 . S
O195 Co170 1.967 . S
O195 C203 1.258 . S
O196 Co171 1.941 . S
O196 C203 1.266 . S
H197 C199 0.959 . S
H198 C199 0.964 . S
C199 C189 1.510 . S
C199 H197 0.959 . S
C199 H198 0.964 . S
C199 H200 0.960 . S
H200 C199 0.960 . S
H201 N181 0.862 1_455 S
O202 Co170 1.920 . S
O202 C175 1.289 . S
C203 O195 1.258 . S
C203 O196 1.266 . S
Co204 O207 1.970 . S
Co204 N221 1.989 . S
Co204 O229 1.967 . S
Co204 O236 1.920 . S
Co205 O208 1.966 . S
Co205 N214 2.022 . S
Co205 N222 1.993 . S
Co205 O230 1.941 . S
C206 O207 1.258 . S
C206 O208 1.263 . S
O207 Co204 1.970 . S
O207 C206 1.258 . S
O208 Co205 1.966 . S
O208 C206 1.263 . S
C209 O210 1.235 . S
C209 O236 1.289 . S
O210 C209 1.235 . S
C211 C213 1.400 . S
C211 N214 1.351 1_455 S
C211 C216 1.501 . S
C212 C213 1.387 . S
C212 N215 1.341 . S
C213 C211 1.400 . S
C213 C212 1.387 . S
N214 Co205 2.022 . S
N214 C211 1.351 1_655 S
N214 N215 1.365 1_655 S
N215 C212 1.341 . S
N215 N214 1.365 1_455 S
N215 H235 0.862 1_455 S
C216 C211 1.501 . S
C216 H217 0.961 1_455 S
C216 H218 0.961 . S
C216 H219 0.960 . S
H217 C216 0.961 1_655 S
H218 C216 0.961 . S
H219 C216 0.960 . S
C220 N221 1.342 . S
C220 C224 1.401 . S
C220 C225 1.499 . S
N221 Co204 1.989 . S
N221 C220 1.342 . S
N221 N222 1.388 . S
N222 Co205 1.993 . S
N222 N221 1.388 . S
N222 C223 1.346 . S
C223 N222 1.346 . S
C223 C224 1.396 . S
C223 C233 1.510 . S
C224 C220 1.401 . S
C224 C223 1.396 . S
C225 C220 1.499 . S
C225 H226 0.959 . S
C225 H227 0.960 . S
C225 H228 0.961 . S
H226 C225 0.959 . S
H227 C225 0.960 . S
H228 C225 0.961 . S
O229 Co204 1.967 . S
O229 C237 1.258 . S
O230 Co205 1.941 . S
O230 C237 1.266 . S
H231 C233 0.959 . S
H232 C233 0.964 . S
C233 C223 1.510 . S
C233 H231 0.959 . S
C233 H232 0.964 . S
C233 H234 0.960 . S
H234 C233 0.960 . S
H235 N215 0.862 1_655 S
O236 Co204 1.920 . S
O236 C209 1.289 . S
C237 O229 1.258 . S
C237 O230 1.266 . S
Co238 O241 1.970 . S
Co238 N255 1.989 . S
Co238 O263 1.967 . S
Co238 O270 1.920 . S
Co239 O242 1.966 . S
Co239 N248 2.022 . S
Co239 N256 1.993 . S
Co239 O264 1.941 . S
C240 O241 1.258 . S
C240 O242 1.263 . S
O241 Co238 1.970 . S
O241 C240 1.258 . S
O242 Co239 1.966 . S
O242 C240 1.263 . S
C243 O244 1.235 . S
C243 O270 1.289 . S
O244 C243 1.235 . S
C245 C247 1.400 . S
C245 N248 1.351 1_455 S
C245 C250 1.501 . S
C246 C247 1.387 . S
C246 N249 1.341 . S
C247 C245 1.400 . S
C247 C246 1.387 . S
N248 Co239 2.022 . S
N248 C245 1.351 1_655 S
N248 N249 1.365 1_655 S
N249 C246 1.341 . S
N249 N248 1.365 1_455 S
N249 H269 0.862 1_455 S
C250 C245 1.501 . S
C250 H251 0.961 1_455 S
C250 H252 0.961 . S
C250 H253 0.960 . S
H251 C250 0.961 1_655 S
H252 C250 0.961 . S
H253 C250 0.960 . S
C254 N255 1.342 . S
C254 C258 1.401 . S
C254 C259 1.499 . S
N255 Co238 1.989 . S
N255 C254 1.342 . S
N255 N256 1.388 . S
N256 Co239 1.993 . S
N256 N255 1.388 . S
N256 C257 1.346 . S
C257 N256 1.346 . S
C257 C258 1.396 . S
C257 C267 1.510 . S
C258 C254 1.401 . S
C258 C257 1.396 . S
C259 C254 1.499 . S
C259 H260 0.959 . S
C259 H261 0.960 . S
C259 H262 0.961 . S
H260 C259 0.959 . S
H261 C259 0.960 . S
H262 C259 0.961 . S
O263 Co238 1.967 . S
O263 C271 1.258 . S
O264 Co239 1.941 . S
O264 C271 1.266 . S
H265 C267 0.959 . S
H266 C267 0.964 . S
C267 C257 1.510 . S
C267 H265 0.959 . S
C267 H266 0.964 . S
C267 H268 0.960 . S
H268 C267 0.960 . S
H269 N249 0.862 1_655 S
O270 Co238 1.920 . S
O270 C243 1.289 . S
C271 O263 1.258 . S
C271 O264 1.266 . S
Co272 O275 1.970 . S
Co272 N289 1.989 . S
Co272 O297 1.967 . S
Co272 O304 1.920 . S
Co273 O276 1.966 . S
Co273 N282 2.022 . S
Co273 N290 1.993 . S
Co273 O298 1.941 . S
C274 O275 1.258 . S
C274 O276 1.263 . S
O275 Co272 1.970 . S
O275 C274 1.258 . S
O276 Co273 1.966 . S
O276 C274 1.263 . S
C277 O278 1.235 . S
C277 O304 1.289 . S
O278 C277 1.235 . S
C279 C281 1.400 . S
C279 N282 1.351 . S
C279 C284 1.501 . S
C280 C281 1.387 . S
C280 N283 1.341 . S
C281 C279 1.400 . S
C281 C280 1.387 . S
N282 Co273 2.022 . S
N282 C279 1.351 . S
N282 N283 1.365 . S
N283 C280 1.341 . S
N283 N282 1.365 . S
N283 H303 0.862 . S
C284 C279 1.501 . S
C284 H285 0.961 . S
C284 H286 0.961 . S
C284 H287 0.960 . S
H285 C284 0.961 . S
H286 C284 0.961 . S
H287 C284 0.960 . S
C288 N289 1.342 . S
C288 C292 1.401 . S
C288 C293 1.499 . S
N289 Co272 1.989 . S
N289 C288 1.342 . S
N289 N290 1.388 . S
N290 Co273 1.993 . S
N290 N289 1.388 . S
N290 C291 1.346 . S
C291 N290 1.346 . S
C291 C292 1.396 . S
C291 C301 1.510 . S
C292 C288 1.401 . S
C292 C291 1.396 . S
C293 C288 1.499 . S
C293 H294 0.959 . S
C293 H295 0.960 . S
C293 H296 0.961 . S
H294 C293 0.959 . S
H295 C293 0.960 . S
H296 C293 0.961 . S
O297 Co272 1.967 . S
O297 C305 1.258 . S
O298 Co273 1.941 . S
O298 C305 1.266 . S
H299 C301 0.959 . S
H300 C301 0.961 . S
C301 C291 1.510 . S
C301 H299 0.959 . S
C301 H300 0.961 . S
C301 H302 0.960 . S
H302 C301 0.960 . S
H303 N283 0.862 . S
O304 Co272 1.920 . S
O304 C277 1.289 . S
C305 O297 1.258 . S
C305 O298 1.266 . S
Co306 O309 1.970 . S
Co306 N323 1.989 . S
Co306 O331 1.967 . S
Co306 O338 1.920 . S
Co307 O310 1.966 . S
Co307 N316 2.022 . S
Co307 N324 1.993 . S
Co307 O332 1.941 . S
C308 O309 1.258 . S
C308 O310 1.263 . S
O309 Co306 1.970 . S
O309 C308 1.258 . S
O310 Co307 1.966 . S
O310 C308 1.263 . S
C311 O312 1.235 . S
C311 O338 1.289 . S
O312 C311 1.235 . S
C313 C315 1.400 . S
C313 N316 1.351 . S
C313 C318 1.501 . S
C314 C315 1.387 . S
C314 N317 1.341 . S
C315 C313 1.400 . S
C315 C314 1.387 . S
N316 Co307 2.022 . S
N316 C313 1.351 . S
N316 N317 1.365 . S
N317 C314 1.341 . S
N317 N316 1.365 . S
N317 H337 0.862 . S
C318 C313 1.501 . S
C318 H319 0.961 . S
C318 H320 0.961 . S
C318 H321 0.960 . S
H319 C318 0.961 . S
H320 C318 0.961 . S
H321 C318 0.960 . S
C322 N323 1.342 . S
C322 C326 1.401 . S
C322 C327 1.499 . S
N323 Co306 1.989 . S
N323 C322 1.342 . S
N323 N324 1.388 . S
N324 Co307 1.993 . S
N324 N323 1.388 . S
N324 C325 1.346 . S
C325 N324 1.346 . S
C325 C326 1.396 . S
C325 C335 1.510 . S
C326 C322 1.401 . S
C326 C325 1.396 . S
C327 C322 1.499 . S
C327 H328 0.959 . S
C327 H329 0.960 . S
C327 H330 0.961 . S
H328 C327 0.959 . S
H329 C327 0.960 . S
H330 C327 0.961 . S
O331 Co306 1.967 . S
O331 C339 1.258 . S
O332 Co307 1.941 . S
O332 C339 1.266 . S
H333 C335 0.959 . S
H334 C335 0.961 . S
C335 C325 1.510 . S
C335 H333 0.959 . S
C335 H334 0.961 . S
C335 H336 0.960 . S
H336 C335 0.960 . S
H337 N317 0.862 . S
O338 Co306 1.920 . S
O338 C311 1.289 . S
C339 O331 1.258 . S
C339 O332 1.266 . S
Co340 O343 1.970 . S
Co340 N357 1.989 . S
Co340 O365 1.967 . S
Co340 O372 1.920 . S
Co341 O344 1.966 . S
Co341 N350 2.022 . S
Co341 N358 1.993 . S
Co341 O366 1.941 . S
C342 O343 1.258 . S
C342 O344 1.263 . S
O343 Co340 1.970 . S
O343 C342 1.258 . S
O344 Co341 1.966 . S
O344 C342 1.263 . S
C345 O346 1.235 . S
C345 O372 1.289 . S
O346 C345 1.235 . S
C347 C349 1.400 . S
C347 N350 1.351 . S
C347 C352 1.501 . S
C348 C349 1.387 . S
C348 N351 1.341 . S
C349 C347 1.400 . S
C349 C348 1.387 . S
N350 Co341 2.022 . S
N350 C347 1.351 . S
N350 N351 1.365 . S
N351 C348 1.341 . S
N351 N350 1.365 . S
N351 H371 0.862 . S
C352 C347 1.501 . S
C352 H353 0.961 . S
C352 H354 0.961 . S
C352 H355 0.960 . S
H353 C352 0.961 . S
H354 C352 0.961 . S
H355 C352 0.960 . S
C356 N357 1.342 . S
C356 C360 1.401 . S
C356 C361 1.499 . S
N357 Co340 1.989 . S
N357 C356 1.342 . S
N357 N358 1.388 . S
N358 Co341 1.993 . S
N358 N357 1.388 . S
N358 C359 1.346 . S
C359 N358 1.346 . S
C359 C360 1.396 . S
C359 C369 1.510 . S
C360 C356 1.401 . S
C360 C359 1.396 . S
C361 C356 1.499 . S
C361 H362 0.959 . S
C361 H363 0.960 . S
C361 H364 0.961 . S
H362 C361 0.959 . S
H363 C361 0.960 . S
H364 C361 0.961 . S
O365 Co340 1.967 . S
O365 C373 1.258 . S
O366 Co341 1.941 . S
O366 C373 1.266 . S
H367 C369 0.959 . S
H368 C369 0.961 . S
C369 C359 1.510 . S
C369 H367 0.959 . S
C369 H368 0.961 . S
C369 H370 0.960 . S
H370 C369 0.960 . S
H371 N351 0.862 . S
O372 Co340 1.920 . S
O372 C345 1.289 . S
C373 O365 1.258 . S
C373 O366 1.266 . S
Co374 O377 1.970 . S
Co374 N391 1.989 . S
Co374 O399 1.967 . S
Co374 O406 1.920 . S
Co375 O378 1.966 . S
Co375 N384 2.022 . S
Co375 N392 1.993 . S
Co375 O400 1.941 . S
C376 O377 1.258 . S
C376 O378 1.263 . S
O377 Co374 1.970 . S
O377 C376 1.258 . S
O378 Co375 1.966 . S
O378 C376 1.263 . S
C379 O380 1.235 . S
C379 O406 1.289 . S
O380 C379 1.235 . S
C381 C383 1.400 . S
C381 N384 1.351 . S
C381 C386 1.501 . S
C382 C383 1.387 . S
C382 N385 1.341 . S
C383 C381 1.400 . S
C383 C382 1.387 . S
N384 Co375 2.022 . S
N384 C381 1.351 . S
N384 N385 1.365 . S
N385 C382 1.341 . S
N385 N384 1.365 . S
N385 H405 0.862 . S
C386 C381 1.501 . S
C386 H387 0.961 . S
C386 H388 0.961 . S
C386 H389 0.960 . S
H387 C386 0.961 . S
H388 C386 0.961 . S
H389 C386 0.960 . S
C390 N391 1.342 . S
C390 C394 1.401 . S
C390 C395 1.499 . S
N391 Co374 1.989 . S
N391 C390 1.342 . S
N391 N392 1.388 . S
N392 Co375 1.993 . S
N392 N391 1.388 . S
N392 C393 1.346 . S
C393 N392 1.346 . S
C393 C394 1.396 . S
C393 C403 1.510 . S
C394 C390 1.401 . S
C394 C393 1.396 . S
C395 C390 1.499 . S
C395 H396 0.959 . S
C395 H397 0.960 . S
C395 H398 0.961 . S
H396 C395 0.959 . S
H397 C395 0.960 . S
H398 C395 0.961 . S
O399 Co374 1.967 . S
O399 C407 1.258 . S
O400 Co375 1.941 . S
O400 C407 1.266 . S
H401 C403 0.959 . S
H402 C403 0.961 . S
C403 C393 1.510 . S
C403 H401 0.959 . S
C403 H402 0.961 . S
C403 H404 0.960 . S
H404 C403 0.960 . S
H405 N385 0.862 . S
O406 Co374 1.920 . S
O406 C379 1.289 . S
C407 O399 1.258 . S
C407 O400 1.266 . S
Co408 O411 1.970 . S
Co408 N425 1.989 . S
Co408 O433 1.967 . S
Co408 O440 1.920 . S
Co409 O412 1.966 . S
Co409 N418 2.022 . S
Co409 N426 1.993 . S
Co409 O434 1.941 . S
C410 O411 1.258 . S
C410 O412 1.263 . S
O411 Co408 1.970 . S
O411 C410 1.258 . S
O412 Co409 1.966 . S
O412 C410 1.263 . S
C413 O414 1.235 . S
C413 O440 1.289 . S
O414 C413 1.235 . S
C415 C417 1.400 . S
C415 N418 1.351 . S
C415 C420 1.501 . S
C416 C417 1.387 . S
C416 N419 1.341 . S
C417 C415 1.400 . S
C417 C416 1.387 . S
N418 Co409 2.022 . S
N418 C415 1.351 . S
N418 N419 1.365 . S
N419 C416 1.341 . S
N419 N418 1.365 . S
N419 H439 0.862 . S
C420 C415 1.501 . S
C420 H421 0.961 . S
C420 H422 0.961 . S
C420 H423 0.960 . S
H421 C420 0.961 . S
H422 C420 0.961 . S
H423 C420 0.960 . S
C424 N425 1.342 . S
C424 C428 1.401 . S
C424 C429 1.499 . S
N425 Co408 1.989 . S
N425 C424 1.342 . S
N425 N426 1.388 . S
N426 Co409 1.993 . S
N426 N425 1.388 . S
N426 C427 1.346 . S
C427 N426 1.346 . S
C427 C428 1.396 . S
C427 C437 1.510 . S
C428 C424 1.401 . S
C428 C427 1.396 . S
C429 C424 1.499 . S
C429 H430 0.959 . S
C429 H431 0.960 . S
C429 H432 0.961 . S
H430 C429 0.959 . S
H431 C429 0.960 . S
H432 C429 0.961 . S
O433 Co408 1.967 . S
O433 C441 1.258 . S
O434 Co409 1.941 . S
O434 C441 1.266 . S
H435 C437 0.959 . S
H436 C437 0.961 . S
C437 C427 1.510 . S
C437 H435 0.959 . S
C437 H436 0.961 . S
C437 H438 0.960 . S
H438 C437 0.960 . S
H439 N419 0.862 . S
O440 Co408 1.920 . S
O440 C413 1.289 . S
C441 O433 1.258 . S
C441 O434 1.266 . S
Co442 O445 1.970 . S
Co442 N459 1.989 . S
Co442 O467 1.967 . S
Co442 O474 1.920 . S
Co443 O446 1.966 . S
Co443 N452 2.022 . S
Co443 N460 1.993 . S
Co443 O468 1.941 . S
C444 O445 1.258 . S
C444 O446 1.263 . S
O445 Co442 1.970 . S
O445 C444 1.258 . S
O446 Co443 1.966 . S
O446 C444 1.263 . S
C447 O448 1.235 . S
C447 O474 1.289 . S
O448 C447 1.235 . S
C449 C451 1.400 . S
C449 N452 1.351 . S
C449 C454 1.501 . S
C450 C451 1.387 . S
C450 N453 1.341 . S
C451 C449 1.400 . S
C451 C450 1.387 . S
N452 Co443 2.022 . S
N452 C449 1.351 . S
N452 N453 1.365 . S
N453 C450 1.341 . S
N453 N452 1.365 . S
N453 H473 0.862 . S
C454 C449 1.501 . S
C454 H455 0.961 . S
C454 H456 0.961 . S
C454 H457 0.960 . S
H455 C454 0.961 . S
H456 C454 0.961 . S
H457 C454 0.960 . S
C458 N459 1.342 . S
C458 C462 1.401 . S
C458 C463 1.499 . S
N459 Co442 1.989 . S
N459 C458 1.342 . S
N459 N460 1.388 . S
N460 Co443 1.993 . S
N460 N459 1.388 . S
N460 C461 1.346 . S
C461 N460 1.346 . S
C461 C462 1.396 . S
C461 C471 1.510 . S
C462 C458 1.401 . S
C462 C461 1.396 . S
C463 C458 1.499 . S
C463 H464 0.959 . S
C463 H465 0.960 . S
C463 H466 0.961 . S
H464 C463 0.959 . S
H465 C463 0.960 . S
H466 C463 0.961 . S
O467 Co442 1.967 . S
O467 C475 1.258 . S
O468 Co443 1.941 . S
O468 C475 1.266 . S
H469 C471 0.959 . S
H470 C471 0.961 . S
C471 C461 1.510 . S
C471 H469 0.959 . S
C471 H470 0.961 . S
C471 H472 0.960 . S
H472 C471 0.960 . S
H473 N453 0.862 . S
O474 Co442 1.920 . S
O474 C447 1.289 . S
C475 O467 1.258 . S
C475 O468 1.266 . S
Co476 O479 1.970 . S
Co476 N493 1.989 . S
Co476 O501 1.967 . S
Co476 O508 1.920 . S
Co477 O480 1.966 . S
Co477 N486 2.022 . S
Co477 N494 1.993 . S
Co477 O502 1.941 . S
C478 O479 1.258 . S
C478 O480 1.263 . S
O479 Co476 1.970 . S
O479 C478 1.258 . S
O480 Co477 1.966 . S
O480 C478 1.263 . S
C481 O482 1.235 . S
C481 O508 1.289 . S
O482 C481 1.235 . S
C483 C485 1.400 . S
C483 N486 1.351 . S
C483 C488 1.501 . S
C484 C485 1.387 . S
C484 N487 1.341 . S
C485 C483 1.400 . S
C485 C484 1.387 . S
N486 Co477 2.022 . S
N486 C483 1.351 . S
N486 N487 1.365 . S
N487 C484 1.341 . S
N487 N486 1.365 . S
N487 H507 0.862 . S
C488 C483 1.501 . S
C488 H489 0.961 . S
C488 H490 0.961 . S
C488 H491 0.960 . S
H489 C488 0.961 . S
H490 C488 0.961 . S
H491 C488 0.960 . S
C492 N493 1.342 . S
C492 C496 1.401 . S
C492 C497 1.499 . S
N493 Co476 1.989 . S
N493 C492 1.342 . S
N493 N494 1.388 . S
N494 Co477 1.993 . S
N494 N493 1.388 . S
N494 C495 1.346 . S
C495 N494 1.346 . S
C495 C496 1.396 . S
C495 C505 1.510 . S
C496 C492 1.401 . S
C496 C495 1.396 . S
C497 C492 1.499 . S
C497 H498 0.959 . S
C497 H499 0.960 . S
C497 H500 0.961 . S
H498 C497 0.959 . S
H499 C497 0.960 . S
H500 C497 0.961 . S
O501 Co476 1.967 . S
O501 C509 1.258 . S
O502 Co477 1.941 . S
O502 C509 1.266 . S
H503 C505 0.959 . S
H504 C505 0.961 . S
C505 C495 1.510 . S
C505 H503 0.959 . S
C505 H504 0.961 . S
C505 H506 0.960 . S
H506 C505 0.960 . S
H507 N487 0.862 . S
O508 Co476 1.920 . S
O508 C481 1.289 . S
C509 O501 1.258 . S
C509 O502 1.266 . S
Co510 O513 1.970 . S
Co510 N527 1.989 . S
Co510 O535 1.967 . S
Co510 O542 1.920 . S
Co511 O514 1.966 . S
Co511 N520 2.022 . S
Co511 N528 1.993 . S
Co511 O536 1.941 . S
C512 O513 1.258 . S
C512 O514 1.263 . S
O513 Co510 1.970 . S
O513 C512 1.258 . S
O514 Co511 1.966 . S
O514 C512 1.263 . S
C515 O516 1.235 . S
C515 O542 1.289 . S
O516 C515 1.235 . S
C517 C519 1.400 . S
C517 N520 1.351 . S
C517 C522 1.501 . S
C518 C519 1.387 . S
C518 N521 1.341 . S
C519 C517 1.400 . S
C519 C518 1.387 . S
N520 Co511 2.022 . S
N520 C517 1.351 . S
N520 N521 1.365 . S
N521 C518 1.341 . S
N521 N520 1.365 . S
N521 H541 0.862 . S
C522 C517 1.501 . S
C522 H523 0.961 . S
C522 H524 0.961 . S
C522 H525 0.960 . S
H523 C522 0.961 . S
H524 C522 0.961 . S
H525 C522 0.960 . S
C526 N527 1.342 . S
C526 C530 1.401 . S
C526 C531 1.499 . S
N527 Co510 1.989 . S
N527 C526 1.342 . S
N527 N528 1.388 . S
N528 Co511 1.993 . S
N528 N527 1.388 . S
N528 C529 1.346 . S
C529 N528 1.346 . S
C529 C530 1.396 . S
C529 C539 1.510 . S
C530 C526 1.401 . S
C530 C529 1.396 . S
C531 C526 1.499 . S
C531 H532 0.959 . S
C531 H533 0.960 . S
C531 H534 0.961 . S
H532 C531 0.959 . S
H533 C531 0.960 . S
H534 C531 0.961 . S
O535 Co510 1.967 . S
O535 C543 1.258 . S
O536 Co511 1.941 . S
O536 C543 1.266 . S
H537 C539 0.959 . S
H538 C539 0.961 . S
C539 C529 1.510 . S
C539 H537 0.959 . S
C539 H538 0.961 . S
C539 H540 0.960 . S
H540 C539 0.960 . S
H541 N521 0.862 . S
O542 Co510 1.920 . S
O542 C515 1.289 . S
C543 O535 1.258 . S
C543 O536 1.266 . S
H544 C550 0.930 . S
H545 C554 0.930 . S
H546 C559 0.929 . S
H547 C557 0.929 . S
H548 C552 0.929 . S
H549 C558 0.929 . S
C550 H544 0.930 . S
C550 C551 1.367 . S
C550 C558 1.378 . S
C551 C550 1.367 . S
C551 C559 1.433 . S
C552 H548 0.929 . S
C552 C554 1.378 . S
C552 C556 1.350 . S
C553 C556 1.463 . S
C553 C558 1.350 . S
C553 N561 1.427 . S
C554 H545 0.930 . S
C554 C552 1.378 . S
C554 C555 1.367 . S
C555 C554 1.367 . S
C555 C557 1.433 . S
C556 C552 1.350 . S
C556 C553 1.463 . S
C556 N560 1.427 . S
C557 H547 0.929 . S
C557 C555 1.433 . S
C557 N560 1.384 . S
C558 H549 0.929 . S
C558 C550 1.378 . S
C558 C553 1.350 . S
C559 H546 0.929 . S
C559 C551 1.433 . S
C559 N561 1.384 . S
N560 C556 1.427 . S
N560 C557 1.384 . S
N561 C553 1.427 . S
N561 C559 1.384 . S
H562 C568 0.930 . S
H563 C572 0.930 . S
H564 C577 0.929 . S
H565 C575 0.929 . S
H566 C570 0.929 . S
H567 C576 0.929 . S
C568 H562 0.930 . S
C568 C569 1.367 . S
C568 C576 1.378 . S
C569 C568 1.367 . S
C569 C577 1.433 . S
C570 H566 0.929 . S
C570 C572 1.378 . S
C570 C574 1.350 . S
C571 C574 1.463 . S
C571 C576 1.350 . S
C571 N579 1.427 . S
C572 H563 0.930 . S
C572 C570 1.378 . S
C572 C573 1.367 . S
C573 C572 1.367 . S
C573 C575 1.433 . S
C574 C570 1.350 . S
C574 C571 1.463 . S
C574 N578 1.427 . S
C575 H565 0.929 . S
C575 C573 1.433 . S
C575 N578 1.384 . S
C576 H567 0.929 . S
C576 C568 1.378 . S
C576 C571 1.350 . S
C577 H564 0.929 . S
C577 C569 1.433 . S
C577 N579 1.384 . S
N578 C574 1.427 . S
N578 C575 1.384 . S
N579 C571 1.427 . S
N579 C577 1.384 . S
H580 C586 0.930 . S
H581 C590 0.930 . S
H582 C595 0.929 . S
H583 C593 0.929 . S
H584 C588 0.929 . S
H585 C594 0.929 . S
C586 H580 0.930 . S
C586 C587 1.367 . S
C586 C594 1.378 . S
C587 C586 1.367 . S
C587 C595 1.433 . S
C588 H584 0.929 . S
C588 C590 1.378 . S
C588 C592 1.350 . S
C589 C592 1.463 . S
C589 C594 1.350 . S
C589 N597 1.427 . S
C590 H581 0.930 . S
C590 C588 1.378 . S
C590 C591 1.367 . S
C591 C590 1.367 . S
C591 C593 1.433 . S
C592 C588 1.350 . S
C592 C589 1.463 . S
C592 N596 1.427 . S
C593 H583 0.929 . S
C593 C591 1.433 . S
C593 N596 1.384 . S
C594 H585 0.929 . S
C594 C586 1.378 . S
C594 C589 1.350 . S
C595 H582 0.929 . S
C595 C587 1.433 . S
C595 N597 1.384 . S
N596 C592 1.427 . S
N596 C593 1.384 . S
N597 C589 1.427 . S
N597 C595 1.384 . S
H598 C604 0.930 . S
H599 C608 0.930 . S
H600 C613 0.929 . S
H601 C611 0.929 . S
H602 C606 0.929 . S
H603 C612 0.929 . S
C604 H598 0.930 . S
C604 C605 1.367 . S
C604 C612 1.378 . S
C605 C604 1.367 . S
C605 C613 1.433 . S
C606 H602 0.929 . S
C606 C608 1.378 . S
C606 C610 1.350 . S
C607 C610 1.463 . S
C607 C612 1.350 . S
C607 N615 1.427 . S
C608 H599 0.930 . S
C608 C606 1.378 . S
C608 C609 1.367 . S
C609 C608 1.367 . S
C609 C611 1.433 . S
C610 C606 1.350 . S
C610 C607 1.463 . S
C610 N614 1.427 . S
C611 H601 0.929 . S
C611 C609 1.433 . S
C611 N614 1.384 . S
C612 H603 0.929 . S
C612 C604 1.378 . S
C612 C607 1.350 . S
C613 H600 0.929 . S
C613 C605 1.433 . S
C613 N615 1.384 . S
N614 C610 1.427 . S
N614 C611 1.384 . S
N615 C607 1.427 . S
N615 C613 1.384 . S
H616 C622 0.930 . S
H617 C626 0.930 . S
H618 C631 0.929 . S
H619 C629 0.929 . S
H620 C624 0.929 . S
H621 C630 0.929 . S
C622 H616 0.930 . S
C622 C623 1.367 . S
C622 C630 1.378 . S
C623 C622 1.367 . S
C623 C631 1.433 . S
C624 H620 0.929 . S
C624 C626 1.378 . S
C624 C628 1.350 . S
C625 C628 1.463 . S
C625 C630 1.350 . S
C625 N633 1.427 . S
C626 H617 0.930 . S
C626 C624 1.378 . S
C626 C627 1.367 . S
C627 C626 1.367 . S
C627 C629 1.433 . S
C628 C624 1.350 . S
C628 C625 1.463 . S
C628 N632 1.427 . S
C629 H619 0.929 . S
C629 C627 1.433 . S
C629 N632 1.384 . S
C630 H621 0.929 . S
C630 C622 1.378 . S
C630 C625 1.350 . S
C631 H618 0.929 . S
C631 C623 1.433 . S
C631 N633 1.384 . S
N632 C628 1.427 . S
N632 C629 1.384 . S
N633 C625 1.427 . S
N633 C631 1.384 . S
H634 C640 0.930 . S
H635 C644 0.930 . S
H636 C649 0.929 . S
H637 C647 0.929 . S
H638 C642 0.929 . S
H639 C648 0.929 . S
C640 H634 0.930 . S
C640 C641 1.367 . S
C640 C648 1.378 . S
C641 C640 1.367 . S
C641 C649 1.433 . S
C642 H638 0.929 . S
C642 C644 1.378 . S
C642 C646 1.350 . S
C643 C646 1.463 . S
C643 C648 1.350 . S
C643 N651 1.427 . S
C644 H635 0.930 . S
C644 C642 1.378 . S
C644 C645 1.367 . S
C645 C644 1.367 . S
C645 C647 1.433 . S
C646 C642 1.350 . S
C646 C643 1.463 . S
C646 N650 1.427 . S
C647 H637 0.929 . S
C647 C645 1.433 . S
C647 N650 1.384 . S
C648 H639 0.929 . S
C648 C640 1.378 . S
C648 C643 1.350 . S
C649 H636 0.929 . S
C649 C641 1.433 . S
C649 N651 1.384 . S
N650 C646 1.427 . S
N650 C647 1.384 . S
N651 C643 1.427 . S
N651 C649 1.384 . S
H652 C658 0.930 . S
H653 C662 0.930 . S
H654 C667 0.929 . S
H655 C665 0.929 . S
H656 C660 0.929 . S
H657 C666 0.929 . S
C658 H652 0.930 . S
C658 C659 1.367 . S
C658 C666 1.378 . S
C659 C658 1.367 . S
C659 C667 1.433 . S
C660 H656 0.929 . S
C660 C662 1.378 . S
C660 C664 1.350 . S
C661 C664 1.463 . S
C661 C666 1.350 . S
C661 N669 1.427 . S
C662 H653 0.930 . S
C662 C660 1.378 . S
C662 C663 1.367 . S
C663 C662 1.367 . S
C663 C665 1.433 . S
C664 C660 1.350 . S
C664 C661 1.463 . S
C664 N668 1.427 . S
C665 H655 0.929 . S
C665 C663 1.433 . S
C665 N668 1.384 . S
C666 H657 0.929 . S
C666 C658 1.378 . S
C666 C661 1.350 . S
C667 H654 0.929 . S
C667 C659 1.433 . S
C667 N669 1.384 . S
N668 C664 1.427 . S
N668 C665 1.384 . S
N669 C661 1.427 . S
N669 C667 1.384 . S
H670 C676 0.930 . S
H671 C680 0.930 . S
H672 C685 0.929 . S
H673 C683 0.929 . S
H674 C678 0.929 . S
H675 C684 0.929 . S
C676 H670 0.930 . S
C676 C677 1.367 . S
C676 C684 1.378 . S
C677 C676 1.367 . S
C677 C685 1.433 . S
C678 H674 0.929 . S
C678 C680 1.378 . S
C678 C682 1.350 . S
C679 C682 1.463 . S
C679 C684 1.350 . S
C679 N687 1.427 . S
C680 H671 0.930 . S
C680 C678 1.378 . S
C680 C681 1.367 . S
C681 C680 1.367 . S
C681 C683 1.433 . S
C682 C678 1.350 . S
C682 C679 1.463 . S
C682 N686 1.427 . S
C683 H673 0.929 . S
C683 C681 1.433 . S
C683 N686 1.384 . S
C684 H675 0.929 . S
C684 C676 1.378 . S
C684 C679 1.350 . S
C685 H672 0.929 . S
C685 C677 1.433 . S
C685 N687 1.384 . S
N686 C682 1.427 . S
N686 C683 1.384 . S
N687 C679 1.427 . S
N687 C685 1.384 . S
H688 C694 0.930 . S
H689 C698 0.930 . S
H690 C703 0.929 . S
H691 C701 0.929 . S
H692 C696 0.929 . S
H693 C702 0.929 . S
C694 H688 0.930 . S
C694 C695 1.367 . S
C694 C702 1.378 . S
C695 C694 1.367 . S
C695 C703 1.433 . S
C696 H692 0.929 . S
C696 C698 1.378 . S
C696 C700 1.350 . S
C697 C700 1.463 . S
C697 C702 1.350 . S
C697 N705 1.427 . S
C698 H689 0.930 . S
C698 C696 1.378 . S
C698 C699 1.367 . S
C699 C698 1.367 . S
C699 C701 1.433 . S
C700 C696 1.350 . S
C700 C697 1.463 . S
C700 N704 1.427 . S
C701 H691 0.929 . S
C701 C699 1.433 . S
C701 N704 1.384 . S
C702 H693 0.929 . S
C702 C694 1.378 . S
C702 C697 1.350 . S
C703 H690 0.929 . S
C703 C695 1.433 . S
C703 N705 1.384 . S
N704 C700 1.427 . S
N704 C701 1.384 . S
N705 C697 1.427 . S
N705 C703 1.384 . S
H706 C712 0.930 . S
H707 C716 0.930 . S
H708 C721 0.929 . S
H709 C719 0.929 . S
H710 C714 0.929 . S
H711 C720 0.929 . S
C712 H706 0.930 . S
C712 C713 1.367 . S
C712 C720 1.378 . S
C713 C712 1.367 . S
C713 C721 1.433 . S
C714 H710 0.929 . S
C714 C716 1.378 . S
C714 C718 1.350 . S
C715 C718 1.463 . S
C715 C720 1.350 . S
C715 N723 1.427 . S
C716 H707 0.930 . S
C716 C714 1.378 . S
C716 C717 1.367 . S
C717 C716 1.367 . S
C717 C719 1.433 . S
C718 C714 1.350 . S
C718 C715 1.463 . S
C718 N722 1.427 . S
C719 H709 0.929 . S
C719 C717 1.433 . S
C719 N722 1.384 . S
C720 H711 0.929 . S
C720 C712 1.378 . S
C720 C715 1.350 . S
C721 H708 0.929 . S
C721 C713 1.433 . S
C721 N723 1.384 . S
N722 C718 1.427 . S
N722 C719 1.384 . S
N723 C715 1.427 . S
N723 C721 1.384 . S
H724 C730 0.930 . S
H725 C734 0.930 . S
H726 C739 0.929 . S
H727 C737 0.929 . S
H728 C732 0.929 . S
H729 C738 0.929 . S
C730 H724 0.930 . S
C730 C731 1.367 . S
C730 C738 1.378 . S
C731 C730 1.367 . S
C731 C739 1.433 . S
C732 H728 0.929 . S
C732 C734 1.378 . S
C732 C736 1.350 . S
C733 C736 1.463 . S
C733 C738 1.350 . S
C733 N741 1.427 . S
C734 H725 0.930 . S
C734 C732 1.378 . S
C734 C735 1.367 . S
C735 C734 1.367 . S
C735 C737 1.433 . S
C736 C732 1.350 . S
C736 C733 1.463 . S
C736 N740 1.427 . S
C737 H727 0.929 . S
C737 C735 1.433 . S
C737 N740 1.384 . S
C738 H729 0.929 . S
C738 C730 1.378 . S
C738 C733 1.350 . S
C739 H726 0.929 . S
C739 C731 1.433 . S
C739 N741 1.384 . S
N740 C736 1.427 . S
N740 C737 1.384 . S
N741 C733 1.427 . S
N741 C739 1.384 . S
H742 C748 0.930 . S
H743 C752 0.930 . S
H744 C757 0.929 . S
H745 C755 0.929 . S
H746 C750 0.929 . S
H747 C756 0.929 . S
C748 H742 0.930 . S
C748 C749 1.367 . S
C748 C756 1.378 . S
C749 C748 1.367 . S
C749 C757 1.433 . S
C750 H746 0.929 . S
C750 C752 1.378 . S
C750 C754 1.350 . S
C751 C754 1.463 . S
C751 C756 1.350 . S
C751 N759 1.427 . S
C752 H743 0.930 . S
C752 C750 1.378 . S
C752 C753 1.367 . S
C753 C752 1.367 . S
C753 C755 1.433 . S
C754 C750 1.350 . S
C754 C751 1.463 . S
C754 N758 1.427 . S
C755 H745 0.929 . S
C755 C753 1.433 . S
C755 N758 1.384 . S
C756 H747 0.929 . S
C756 C748 1.378 . S
C756 C751 1.350 . S
C757 H744 0.929 . S
C757 C749 1.433 . S
C757 N759 1.384 . S
N758 C754 1.427 . S
N758 C755 1.384 . S
N759 C751 1.427 . S
N759 C757 1.384 . S
H760 C766 0.930 . S
H761 C770 0.930 . S
H762 C775 0.929 . S
H763 C773 0.929 . S
H764 C768 0.929 . S
H765 C774 0.929 . S
C766 H760 0.930 . S
C766 C767 1.367 . S
C766 C774 1.378 . S
C767 C766 1.367 . S
C767 C775 1.433 . S
C768 H764 0.929 . S
C768 C770 1.378 . S
C768 C772 1.350 . S
C769 C772 1.463 . S
C769 C774 1.350 . S
C769 N777 1.427 . S
C770 H761 0.930 . S
C770 C768 1.378 . S
C770 C771 1.367 . S
C771 C770 1.367 . S
C771 C773 1.433 . S
C772 C768 1.350 . S
C772 C769 1.463 . S
C772 N776 1.427 . S
C773 H763 0.929 . S
C773 C771 1.433 . S
C773 N776 1.384 . S
C774 H765 0.929 . S
C774 C766 1.378 . S
C774 C769 1.350 . S
C775 H762 0.929 . S
C775 C767 1.433 . S
C775 N777 1.384 . S
N776 C772 1.427 . S
N776 C773 1.384 . S
N777 C769 1.427 . S
N777 C775 1.384 . S
H778 C784 0.930 . S
H779 C788 0.930 . S
H780 C793 0.929 . S
H781 C791 0.929 . S
H782 C786 0.929 . S
H783 C792 0.929 . S
C784 H778 0.930 . S
C784 C785 1.367 . S
C784 C792 1.378 . S
C785 C784 1.367 . S
C785 C793 1.433 . S
C786 H782 0.929 . S
C786 C788 1.378 . S
C786 C790 1.350 . S
C787 C790 1.463 . S
C787 C792 1.350 . S
C787 N795 1.427 . S
C788 H779 0.930 . S
C788 C786 1.378 . S
C788 C789 1.367 . S
C789 C788 1.367 . S
C789 C791 1.433 . S
C790 C786 1.350 . S
C790 C787 1.463 . S
C790 N794 1.427 . S
C791 H781 0.929 . S
C791 C789 1.433 . S
C791 N794 1.384 . S
C792 H783 0.929 . S
C792 C784 1.378 . S
C792 C787 1.350 . S
C793 H780 0.929 . S
C793 C785 1.433 . S
C793 N795 1.384 . S
N794 C790 1.427 . S
N794 C791 1.384 . S
N795 C787 1.427 . S
N795 C793 1.384 . S
H796 C802 0.930 . S
H797 C806 0.930 . S
H798 C811 0.929 . S
H799 C809 0.929 . S
H800 C804 0.929 . S
H801 C810 0.929 . S
C802 H796 0.930 . S
C802 C803 1.367 . S
C802 C810 1.378 . S
C803 C802 1.367 . S
C803 C811 1.433 . S
C804 H800 0.929 . S
C804 C806 1.378 . S
C804 C808 1.350 . S
C805 C808 1.463 . S
C805 C810 1.350 . S
C805 N813 1.427 . S
C806 H797 0.930 . S
C806 C804 1.378 . S
C806 C807 1.367 . S
C807 C806 1.367 . S
C807 C809 1.433 . S
C808 C804 1.350 . S
C808 C805 1.463 . S
C808 N812 1.427 . S
C809 H799 0.929 . S
C809 C807 1.433 . S
C809 N812 1.384 . S
C810 H801 0.929 . S
C810 C802 1.378 . S
C810 C805 1.350 . S
C811 H798 0.929 . S
C811 C803 1.433 . S
C811 N813 1.384 . S
N812 C808 1.427 . S
N812 C809 1.384 . S
N813 C805 1.427 . S
N813 C811 1.384 . S
H814 C820 0.930 . S
H815 C824 0.930 . S
H816 C829 0.929 . S
H817 C827 0.929 . S
H818 C822 0.929 . S
H819 C828 0.929 . S
C820 H814 0.930 . S
C820 C821 1.367 . S
C820 C828 1.378 . S
C821 C820 1.367 . S
C821 C829 1.433 . S
C822 H818 0.929 . S
C822 C824 1.378 . S
C822 C826 1.350 . S
C823 C826 1.463 . S
C823 C828 1.350 . S
C823 N831 1.427 . S
C824 H815 0.930 . S
C824 C822 1.378 . S
C824 C825 1.367 . S
C825 C824 1.367 . S
C825 C827 1.433 . S
C826 C822 1.350 . S
C826 C823 1.463 . S
C826 N830 1.427 . S
C827 H817 0.929 . S
C827 C825 1.433 . S
C827 N830 1.384 . S
C828 H819 0.929 . S
C828 C820 1.378 . S
C828 C823 1.350 . S
C829 H816 0.929 . S
C829 C821 1.433 . S
C829 N831 1.384 . S
N830 C826 1.427 . S
N830 C827 1.384 . S
N831 C823 1.427 . S
N831 C829 1.384 . S
H832 C838 0.930 . S
H833 C842 0.930 . S
H834 C847 0.929 . S
H835 C845 0.929 . S
H836 C840 0.929 . S
H837 C846 0.929 . S
C838 H832 0.930 . S
C838 C839 1.367 . S
C838 C846 1.378 . S
C839 C838 1.367 . S
C839 C847 1.433 . S
C840 H836 0.929 . S
C840 C842 1.378 . S
C840 C844 1.350 . S
C841 C844 1.463 . S
C841 C846 1.350 . S
C841 N849 1.427 . S
C842 H833 0.930 . S
C842 C840 1.378 . S
C842 C843 1.367 . S
C843 C842 1.367 . S
C843 C845 1.433 . S
C844 C840 1.350 . S
C844 C841 1.463 . S
C844 N848 1.427 . S
C845 H835 0.929 . S
C845 C843 1.433 . S
C845 N848 1.384 . S
C846 H837 0.929 . S
C846 C838 1.378 . S
C846 C841 1.350 . S
C847 H834 0.929 . S
C847 C839 1.433 . S
C847 N849 1.384 . S
N848 C844 1.427 . S
N848 C845 1.384 . S
N849 C841 1.427 . S
N849 C847 1.384 . S
H850 C856 0.930 . S
H851 C860 0.930 . S
H852 C865 0.929 1_554 S
H853 C863 0.929 . S
H854 C858 0.929 . S
H855 C864 0.929 . S
C856 H850 0.930 . S
C856 C857 1.367 . S
C856 C864 1.378 . S
C857 C856 1.367 . S
C857 C865 1.433 . S
C858 H854 0.929 . S
C858 C860 1.378 . S
C858 C862 1.350 . S
C859 C862 1.463 . S
C859 C864 1.350 . S
C859 N867 1.427 . S
C860 H851 0.930 . S
C860 C858 1.378 . S
C860 C861 1.367 . S
C861 C860 1.367 . S
C861 C863 1.433 . S
C862 C858 1.350 . S
C862 C859 1.463 . S
C862 N866 1.427 . S
C863 H853 0.929 . S
C863 C861 1.433 . S
C863 N866 1.384 . S
C864 H855 0.929 . S
C864 C856 1.378 . S
C864 C859 1.350 . S
C865 H852 0.929 1_556 S
C865 C857 1.433 . S
C865 N867 1.384 . S
N866 C862 1.427 . S
N866 C863 1.384 . S
N867 C859 1.427 . S
N867 C865 1.384 . S
H868 C874 0.930 . S
H869 C878 0.930 . S
H870 C883 0.929 . S
H871 C881 0.929 . S
H872 C876 0.929 . S
H873 C882 0.929 . S
C874 H868 0.930 . S
C874 C875 1.367 . S
C874 C882 1.378 . S
C875 C874 1.367 . S
C875 C883 1.433 . S
C876 H872 0.929 . S
C876 C878 1.378 . S
C876 C880 1.350 . S
C877 C880 1.463 . S
C877 C882 1.350 . S
C877 N885 1.427 . S
C878 H869 0.930 . S
C878 C876 1.378 . S
C878 C879 1.367 . S
C879 C878 1.367 . S
C879 C881 1.433 . S
C880 C876 1.350 . S
C880 C877 1.463 . S
C880 N884 1.427 . S
C881 H871 0.929 . S
C881 C879 1.433 . S
C881 N884 1.384 . S
C882 H873 0.929 . S
C882 C874 1.378 . S
C882 C877 1.350 . S
C883 H870 0.929 . S
C883 C875 1.433 . S
C883 N885 1.384 . S
N884 C880 1.427 . S
N884 C881 1.384 . S
N885 C877 1.427 . S
N885 C883 1.384 . S
H886 C892 0.930 . S
H887 C896 0.930 . S
H888 C901 0.929 . S
H889 C899 0.929 . S
H890 C894 0.929 . S
H891 C900 0.929 . S
C892 H886 0.930 . S
C892 C893 1.367 . S
C892 C900 1.378 . S
C893 C892 1.367 . S
C893 C901 1.433 . S
C894 H890 0.929 . S
C894 C896 1.378 . S
C894 C898 1.350 . S
C895 C898 1.463 . S
C895 C900 1.350 . S
C895 N903 1.427 . S
C896 H887 0.930 . S
C896 C894 1.378 . S
C896 C897 1.367 . S
C897 C896 1.367 . S
C897 C899 1.433 . S
C898 C894 1.350 . S
C898 C895 1.463 . S
C898 N902 1.427 . S
C899 H889 0.929 . S
C899 C897 1.433 . S
C899 N902 1.384 . S
C900 H891 0.929 . S
C900 C892 1.378 . S
C900 C895 1.350 . S
C901 H888 0.929 . S
C901 C893 1.433 . S
C901 N903 1.384 . S
N902 C898 1.427 . S
N902 C899 1.384 . S
N903 C895 1.427 . S
N903 C901 1.384 . S
H904 C910 0.930 . S
H905 C914 0.930 . S
H906 C919 0.929 . S
H907 C917 0.929 . S
H908 C912 0.929 . S
H909 C918 0.929 . S
C910 H904 0.930 . S
C910 C911 1.367 . S
C910 C918 1.378 . S
C911 C910 1.367 . S
C911 C919 1.433 . S
C912 H908 0.929 . S
C912 C914 1.378 . S
C912 C916 1.350 . S
C913 C916 1.463 . S
C913 C918 1.350 . S
C913 N921 1.427 . S
C914 H905 0.930 . S
C914 C912 1.378 . S
C914 C915 1.367 . S
C915 C914 1.367 . S
C915 C917 1.433 . S
C916 C912 1.350 . S
C916 C913 1.463 . S
C916 N920 1.427 . S
C917 H907 0.929 . S
C917 C915 1.433 . S
C917 N920 1.384 . S
C918 H909 0.929 . S
C918 C910 1.378 . S
C918 C913 1.350 . S
C919 H906 0.929 . S
C919 C911 1.433 . S
C919 N921 1.384 . S
N920 C916 1.427 . S
N920 C917 1.384 . S
N921 C913 1.427 . S
N921 C919 1.384 . S
H922 C928 0.930 . S
H923 C932 0.930 . S
H924 C937 0.929 . S
H925 C935 0.929 . S
H926 C930 0.929 . S
H927 C936 0.929 . S
C928 H922 0.930 . S
C928 C929 1.367 . S
C928 C936 1.378 . S
C929 C928 1.367 . S
C929 C937 1.433 . S
C930 H926 0.929 . S
C930 C932 1.378 . S
C930 C934 1.350 . S
C931 C934 1.463 . S
C931 C936 1.350 . S
C931 N939 1.427 . S
C932 H923 0.930 . S
C932 C930 1.378 . S
C932 C933 1.367 . S
C933 C932 1.367 . S
C933 C935 1.433 . S
C934 C930 1.350 . S
C934 C931 1.463 . S
C934 N938 1.427 . S
C935 H925 0.929 . S
C935 C933 1.433 . S
C935 N938 1.384 . S
C936 H927 0.929 . S
C936 C928 1.378 . S
C936 C931 1.350 . S
C937 H924 0.929 . S
C937 C929 1.433 . S
C937 N939 1.384 . S
N938 C934 1.427 . S
N938 C935 1.384 . S
N939 C931 1.427 . S
N939 C937 1.384 . S
H940 C946 0.930 . S
H941 C950 0.930 . S
H942 C955 0.929 1_556 S
H943 C953 0.929 . S
H944 C948 0.929 . S
H945 C954 0.929 . S
C946 H940 0.930 . S
C946 C947 1.367 . S
C946 C954 1.378 . S
C947 C946 1.367 . S
C947 C955 1.433 . S
C948 H944 0.929 . S
C948 C950 1.378 . S
C948 C952 1.350 . S
C949 C952 1.463 . S
C949 C954 1.350 . S
C949 N957 1.427 . S
C950 H941 0.930 . S
C950 C948 1.378 . S
C950 C951 1.367 . S
C951 C950 1.367 . S
C951 C953 1.433 . S
C952 C948 1.350 . S
C952 C949 1.463 . S
C952 N956 1.427 . S
C953 H943 0.929 . S
C953 C951 1.433 . S
C953 N956 1.384 . S
C954 H945 0.929 . S
C954 C946 1.378 . S
C954 C949 1.350 . S
C955 H942 0.929 1_554 S
C955 C947 1.433 . S
C955 N957 1.384 . S
N956 C952 1.427 . S
N956 C953 1.384 . S
N957 C949 1.427 . S
N957 C955 1.384 . S
H958 C964 0.930 . S
H959 C968 0.930 . S
H960 C973 0.929 . S
H961 C971 0.929 1_554 S
H962 C966 0.929 . S
H963 C972 0.929 . S
C964 H958 0.930 . S
C964 C965 1.367 . S
C964 C972 1.378 . S
C965 C964 1.367 . S
C965 C973 1.433 . S
C966 H962 0.929 . S
C966 C968 1.378 . S
C966 C970 1.350 . S
C967 C970 1.463 . S
C967 C972 1.350 . S
C967 N975 1.427 . S
C968 H959 0.930 . S
C968 C966 1.378 . S
C968 C969 1.367 . S
C969 C968 1.367 . S
C969 C971 1.433 . S
C970 C966 1.350 . S
C970 C967 1.463 . S
C970 N974 1.427 . S
C971 H961 0.929 1_556 S
C971 C969 1.433 . S
C971 N974 1.384 . S
C972 H963 0.929 . S
C972 C964 1.378 . S
C972 C967 1.350 . S
C973 H960 0.929 . S
C973 C965 1.433 . S
C973 N975 1.384 . S
N974 C970 1.427 . S
N974 C971 1.384 . S
N975 C967 1.427 . S
N975 C973 1.384 . S
H976 C982 0.930 . S
H977 C986 0.930 . S
H978 C991 0.929 . S
H979 C989 0.929 . S
H980 C984 0.929 . S
H981 C990 0.929 . S
C982 H976 0.930 . S
C982 C983 1.367 . S
C982 C990 1.378 . S
C983 C982 1.367 . S
C983 C991 1.433 . S
C984 H980 0.929 . S
C984 C986 1.378 . S
C984 C988 1.350 . S
C985 C988 1.463 . S
C985 C990 1.350 . S
C985 N993 1.427 . S
C986 H977 0.930 . S
C986 C984 1.378 . S
C986 C987 1.367 . S
C987 C986 1.367 . S
C987 C989 1.433 . S
C988 C984 1.350 . S
C988 C985 1.463 . S
C988 N992 1.427 . S
C989 H979 0.929 . S
C989 C987 1.433 . S
C989 N992 1.384 . S
C990 H981 0.929 . S
C990 C982 1.378 . S
C990 C985 1.350 . S
C991 H978 0.929 . S
C991 C983 1.433 . S
C991 N993 1.384 . S
N992 C988 1.427 . S
N992 C989 1.384 . S
N993 C985 1.427 . S
N993 C991 1.384 . S
H994 C1000 0.930 . S
H995 C1004 0.930 . S
H996 C1009 0.929 1_545 S
H997 C1007 0.929 1_565 S
H998 C1002 0.929 1_655 S
H999 C1008 0.929 1_455 S
C1000 H994 0.930 . S
C1000 C1001 1.367 . S
C1000 C1008 1.378 . S
C1001 C1000 1.367 . S
C1001 C1009 1.433 . S
C1002 H998 0.929 1_455 S
C1002 C1004 1.378 . S
C1002 C1006 1.350 . S
C1003 C1006 1.463 1_665 S
C1003 C1008 1.350 . S
C1003 N1011 1.427 1_565 S
C1004 H995 0.930 . S
C1004 C1002 1.378 . S
C1004 C1005 1.367 . S
C1005 C1004 1.367 . S
C1005 C1007 1.433 . S
C1006 C1002 1.350 . S
C1006 C1003 1.463 1_445 S
C1006 N1010 1.427 1_545 S
C1007 H997 0.929 1_545 S
C1007 C1005 1.433 . S
C1007 N1010 1.384 1_545 S
C1008 H999 0.929 1_655 S
C1008 C1000 1.378 . S
C1008 C1003 1.350 . S
C1009 H996 0.929 1_565 S
C1009 C1001 1.433 . S
C1009 N1011 1.384 1_565 S
N1010 C1006 1.427 1_565 S
N1010 C1007 1.384 1_565 S
N1011 C1003 1.427 1_545 S
N1011 C1009 1.384 1_545 S
H1012 C1018 0.930 . S
H1013 C1022 0.930 . S
H1014 C1027 0.929 . S
H1015 C1025 0.929 . S
H1016 C1020 0.929 . S
H1017 C1026 0.929 . S
C1018 H1012 0.930 . S
C1018 C1019 1.367 . S
C1018 C1026 1.378 . S
C1019 C1018 1.367 . S
C1019 C1027 1.433 . S
C1020 H1016 0.929 . S
C1020 C1022 1.378 . S
C1020 C1024 1.350 . S
C1021 C1024 1.463 1_565 S
C1021 C1026 1.350 . S
C1021 N1029 1.427 . S
C1022 H1013 0.930 . S
C1022 C1020 1.378 . S
C1022 C1023 1.367 . S
C1023 C1022 1.367 . S
C1023 C1025 1.433 . S
C1024 C1020 1.350 . S
C1024 C1021 1.463 1_545 S
C1024 N1028 1.427 . S
C1025 H1015 0.929 . S
C1025 C1023 1.433 . S
C1025 N1028 1.384 . S
C1026 H1017 0.929 . S
C1026 C1018 1.378 . S
C1026 C1021 1.350 . S
C1027 H1014 0.929 . S
C1027 C1019 1.433 . S
C1027 N1029 1.384 . S
N1028 C1024 1.427 . S
N1028 C1025 1.384 . S
N1029 C1021 1.427 . S
N1029 C1027 1.384 . S
H1030 C1036 0.930 . S
H1031 C1040 0.930 . S
H1032 C1045 0.929 . S
H1033 C1043 0.929 . S
H1034 C1038 0.929 . S
H1035 C1044 0.929 . S
C1036 H1030 0.930 . S
C1036 C1037 1.367 . S
C1036 C1044 1.378 . S
C1037 C1036 1.367 . S
C1037 C1045 1.433 . S
C1038 H1034 0.929 . S
C1038 C1040 1.378 . S
C1038 C1042 1.350 . S
C1039 C1042 1.463 1_655 S
C1039 C1044 1.350 . S
C1039 N1047 1.427 . S
C1040 H1031 0.930 . S
C1040 C1038 1.378 . S
C1040 C1041 1.367 . S
C1041 C1040 1.367 . S
C1041 C1043 1.433 . S
C1042 C1038 1.350 . S
C1042 C1039 1.463 1_455 S
C1042 N1046 1.427 . S
C1043 H1033 0.929 . S
C1043 C1041 1.433 . S
C1043 N1046 1.384 . S
C1044 H1035 0.929 . S
C1044 C1036 1.378 . S
C1044 C1039 1.350 . S
C1045 H1032 0.929 . S
C1045 C1037 1.433 . S
C1045 N1047 1.384 . S
N1046 C1042 1.427 . S
N1046 C1043 1.384 . S
N1047 C1039 1.427 . S
N1047 C1045 1.384 . S
H1048 C1054 0.930 . S
H1049 C1058 0.930 . S
H1050 C1063 0.929 . S
H1051 C1061 0.929 . S
H1052 C1056 0.929 . S
H1053 C1062 0.929 . S
C1054 H1048 0.930 . S
C1054 C1055 1.367 . S
C1054 C1062 1.378 . S
C1055 C1054 1.367 . S
C1055 C1063 1.433 . S
C1056 H1052 0.929 . S
C1056 C1058 1.378 . S
C1056 C1060 1.350 . S
C1057 C1060 1.463 . S
C1057 C1062 1.350 . S
C1057 N1065 1.427 . S
C1058 H1049 0.930 . S
C1058 C1056 1.378 . S
C1058 C1059 1.367 . S
C1059 C1058 1.367 . S
C1059 C1061 1.433 . S
C1060 C1056 1.350 . S
C1060 C1057 1.463 . S
C1060 N1064 1.427 . S
C1061 H1051 0.929 . S
C1061 C1059 1.433 . S
C1061 N1064 1.384 . S
C1062 H1053 0.929 . S
C1062 C1054 1.378 . S
C1062 C1057 1.350 . S
C1063 H1050 0.929 . S
C1063 C1055 1.433 . S
C1063 N1065 1.384 . S
N1064 C1060 1.427 . S
N1064 C1061 1.384 . S
N1065 C1057 1.427 . S
N1065 C1063 1.384 . S
H1066 C1072 0.930 . S
H1067 C1076 0.930 . S
H1068 C1081 0.929 . S
H1069 C1079 0.929 . S
H1070 C1074 0.929 . S
H1071 C1080 0.929 . S
C1072 H1066 0.930 . S
C1072 C1073 1.367 . S
C1072 C1080 1.378 . S
C1073 C1072 1.367 . S
C1073 C1081 1.433 . S
C1074 H1070 0.929 . S
C1074 C1076 1.378 . S
C1074 C1078 1.350 . S
C1075 C1078 1.463 1_545 S
C1075 C1080 1.350 . S
C1075 N1083 1.427 . S
C1076 H1067 0.930 . S
C1076 C1074 1.378 . S
C1076 C1077 1.367 . S
C1077 C1076 1.367 . S
C1077 C1079 1.433 . S
C1078 C1074 1.350 . S
C1078 C1075 1.463 1_565 S
C1078 N1082 1.427 . S
C1079 H1069 0.929 . S
C1079 C1077 1.433 . S
C1079 N1082 1.384 . S
C1080 H1071 0.929 . S
C1080 C1072 1.378 . S
C1080 C1075 1.350 . S
C1081 H1068 0.929 . S
C1081 C1073 1.433 . S
C1081 N1083 1.384 . S
N1082 C1078 1.427 . S
N1082 C1079 1.384 . S
N1083 C1075 1.427 . S
N1083 C1081 1.384 . S
H1084 C1090 0.930 . S
H1085 C1094 0.930 . S
H1086 C1099 0.929 . S
H1087 C1097 0.929 . S
H1088 C1092 0.929 . S
H1089 C1098 0.929 . S
C1090 H1084 0.930 . S
C1090 C1091 1.367 . S
C1090 C1098 1.378 . S
C1091 C1090 1.367 . S
C1091 C1099 1.433 . S
C1092 H1088 0.929 . S
C1092 C1094 1.378 . S
C1092 C1096 1.350 . S
C1093 C1096 1.463 1_655 S
C1093 C1098 1.350 . S
C1093 N1101 1.427 . S
C1094 H1085 0.930 . S
C1094 C1092 1.378 . S
C1094 C1095 1.367 . S
C1095 C1094 1.367 . S
C1095 C1097 1.433 . S
C1096 C1092 1.350 . S
C1096 C1093 1.463 1_455 S
C1096 N1100 1.427 . S
C1097 H1087 0.929 . S
C1097 C1095 1.433 . S
C1097 N1100 1.384 . S
C1098 H1089 0.929 . S
C1098 C1090 1.378 . S
C1098 C1093 1.350 . S
C1099 H1086 0.929 . S
C1099 C1091 1.433 . S
C1099 N1101 1.384 . S
N1100 C1096 1.427 . S
N1100 C1097 1.384 . S
N1101 C1093 1.427 . S
N1101 C1099 1.384 . S
H1102 C1108 0.930 . S
H1103 C1112 0.930 . S
H1104 C1117 0.929 . S
H1105 C1115 0.929 . S
H1106 C1110 0.929 . S
H1107 C1116 0.929 . S
C1108 H1102 0.930 . S
C1108 C1109 1.367 . S
C1108 C1116 1.378 . S
C1109 C1108 1.367 . S
C1109 C1117 1.433 . S
C1110 H1106 0.929 . S
C1110 C1112 1.378 . S
C1110 C1114 1.350 . S
C1111 C1114 1.463 1_554 S
C1111 C1116 1.350 . S
C1111 N1119 1.427 . S
C1112 H1103 0.930 . S
C1112 C1110 1.378 . S
C1112 C1113 1.367 . S
C1113 C1112 1.367 . S
C1113 C1115 1.433 . S
C1114 C1110 1.350 . S
C1114 C1111 1.463 1_556 S
C1114 N1118 1.427 . S
C1115 H1105 0.929 . S
C1115 C1113 1.433 . S
C1115 N1118 1.384 . S
C1116 H1107 0.929 . S
C1116 C1108 1.378 . S
C1116 C1111 1.350 . S
C1117 H1104 0.929 . S
C1117 C1109 1.433 . S
C1117 N1119 1.384 . S
N1118 C1114 1.427 . S
N1118 C1115 1.384 . S
N1119 C1111 1.427 . S
N1119 C1117 1.384 . S
H1120 C1126 0.930 . S
H1121 C1130 0.930 . S
H1122 C1135 0.929 1_554 S
H1123 C1133 0.929 1_556 S
H1124 C1128 0.929 . S
H1125 C1134 0.929 . S
C1126 H1120 0.930 . S
C1126 C1127 1.367 . S
C1126 C1134 1.378 1_455 S
C1127 C1126 1.367 . S
C1127 C1135 1.433 . S
C1128 H1124 0.929 . S
C1128 C1130 1.378 1_455 S
C1128 C1132 1.350 1_455 S
C1129 C1132 1.463 1_456 S
C1129 C1134 1.350 1_455 S
C1129 N1137 1.427 1_556 S
C1130 H1121 0.930 . S
C1130 C1128 1.378 1_655 S
C1130 C1131 1.367 . S
C1131 C1130 1.367 . S
C1131 C1133 1.433 . S
C1132 C1128 1.350 1_655 S
C1132 C1129 1.463 1_654 S
C1132 N1136 1.427 1_554 S
C1133 H1123 0.929 1_554 S
C1133 C1131 1.433 . S
C1133 N1136 1.384 1_554 S
C1134 H1125 0.929 . S
C1134 C1126 1.378 1_655 S
C1134 C1129 1.350 1_655 S
C1135 H1122 0.929 1_556 S
C1135 C1127 1.433 . S
C1135 N1137 1.384 1_556 S
N1136 C1132 1.427 1_556 S
N1136 C1133 1.384 1_556 S
N1137 C1129 1.427 1_554 S
N1137 C1135 1.384 1_554 S
H1138 C1144 0.930 . S
H1139 C1148 0.930 . S
H1140 C1153 0.929 . S
H1141 C1151 0.929 . S
H1142 C1146 0.929 . S
H1143 C1152 0.929 . S
C1144 H1138 0.930 . S
C1144 C1145 1.367 . S
C1144 C1152 1.378 . S
C1145 C1144 1.367 . S
C1145 C1153 1.433 . S
C1146 H1142 0.929 . S
C1146 C1148 1.378 . S
C1146 C1150 1.350 . S
C1147 C1150 1.463 . S
C1147 C1152 1.350 . S
C1147 N1155 1.427 . S
C1148 H1139 0.930 . S
C1148 C1146 1.378 . S
C1148 C1149 1.367 . S
C1149 C1148 1.367 . S
C1149 C1151 1.433 . S
C1150 C1146 1.350 . S
C1150 C1147 1.463 . S
C1150 N1154 1.427 . S
C1151 H1141 0.929 . S
C1151 C1149 1.433 . S
C1151 N1154 1.384 . S
C1152 H1143 0.929 . S
C1152 C1144 1.378 . S
C1152 C1147 1.350 . S
C1153 H1140 0.929 . S
C1153 C1145 1.433 . S
C1153 N1155 1.384 . S
N1154 C1150 1.427 . S
N1154 C1151 1.384 . S
N1155 C1147 1.427 . S
N1155 C1153 1.384 . S
H1156 C1162 0.930 . S
H1157 C1166 0.930 . S
H1158 C1171 0.929 . S
H1159 C1169 0.929 . S
H1160 C1164 0.929 . S
H1161 C1170 0.929 . S
C1162 H1156 0.930 . S
C1162 C1163 1.367 . S
C1162 C1170 1.378 . S
C1163 C1162 1.367 . S
C1163 C1171 1.433 1_554 S
C1164 H1160 0.929 . S
C1164 C1166 1.378 . S
C1164 C1168 1.350 . S
C1165 C1168 1.463 1_554 S
C1165 C1170 1.350 . S
C1165 N1173 1.427 1_554 S
C1166 H1157 0.930 . S
C1166 C1164 1.378 . S
C1166 C1167 1.367 . S
C1167 C1166 1.367 . S
C1167 C1169 1.433 1_556 S
C1168 C1164 1.350 . S
C1168 C1165 1.463 1_556 S
C1168 N1172 1.427 1_556 S
C1169 H1159 0.929 . S
C1169 C1167 1.433 1_554 S
C1169 N1172 1.384 . S
C1170 H1161 0.929 . S
C1170 C1162 1.378 . S
C1170 C1165 1.350 . S
C1171 H1158 0.929 . S
C1171 C1163 1.433 1_556 S
C1171 N1173 1.384 . S
N1172 C1168 1.427 1_554 S
N1172 C1169 1.384 . S
N1173 C1165 1.427 1_556 S
N1173 C1171 1.384 . S
H1174 C1180 0.930 . S
H1175 C1184 0.930 . S
H1176 C1189 0.929 . S
H1177 C1187 0.929 . S
H1178 C1182 0.929 . S
H1179 C1188 0.929 . S
C1180 H1174 0.930 . S
C1180 C1181 1.367 . S
C1180 C1188 1.378 . S
C1181 C1180 1.367 . S
C1181 C1189 1.433 . S
C1182 H1178 0.929 . S
C1182 C1184 1.378 . S
C1182 C1186 1.350 . S
C1183 C1186 1.463 . S
C1183 C1188 1.350 . S
C1183 N1191 1.427 . S
C1184 H1175 0.930 . S
C1184 C1182 1.378 . S
C1184 C1185 1.367 . S
C1185 C1184 1.367 . S
C1185 C1187 1.433 . S
C1186 C1182 1.350 . S
C1186 C1183 1.463 . S
C1186 N1190 1.427 . S
C1187 H1177 0.929 . S
C1187 C1185 1.433 . S
C1187 N1190 1.384 . S
C1188 H1179 0.929 . S
C1188 C1180 1.378 . S
C1188 C1183 1.350 . S
C1189 H1176 0.929 . S
C1189 C1181 1.433 . S
C1189 N1191 1.384 . S
N1190 C1186 1.427 . S
N1190 C1187 1.384 . S
N1191 C1183 1.427 . S
N1191 C1189 1.384 . S
H1192 C1198 0.930 . S
H1193 C1202 0.930 . S
H1194 C1207 0.929 . S
H1195 C1205 0.929 . S
H1196 C1200 0.929 . S
H1197 C1206 0.929 . S
C1198 H1192 0.930 . S
C1198 C1199 1.367 1_556 S
C1198 C1206 1.378 . S
C1199 C1198 1.367 1_554 S
C1199 C1207 1.433 . S
C1200 H1196 0.929 . S
C1200 C1202 1.378 . S
C1200 C1204 1.350 1_554 S
C1201 C1204 1.463 1_564 S
C1201 C1206 1.350 1_554 S
C1201 N1209 1.427 1_565 S
C1202 H1193 0.930 . S
C1202 C1200 1.378 . S
C1202 C1203 1.367 1_554 S
C1203 C1202 1.367 1_556 S
C1203 C1205 1.433 . S
C1204 C1200 1.350 1_556 S
C1204 C1201 1.463 1_546 S
C1204 N1208 1.427 1_545 S
C1205 H1195 0.929 . S
C1205 C1203 1.433 . S
C1205 N1208 1.384 1_545 S
C1206 H1197 0.929 . S
C1206 C1198 1.378 . S
C1206 C1201 1.350 1_556 S
C1207 H1194 0.929 . S
C1207 C1199 1.433 . S
C1207 N1209 1.384 1_565 S
N1208 C1204 1.427 1_565 S
N1208 C1205 1.384 1_565 S
N1209 C1201 1.427 1_545 S
N1209 C1207 1.384 1_545 S
H1210 C1216 0.930 . S
H1211 C1220 0.930 . S
H1212 C1225 0.929 . S
H1213 C1223 0.929 . S
H1214 C1218 0.929 . S
H1215 C1224 0.929 . S
C1216 H1210 0.930 . S
C1216 C1217 1.367 . S
C1216 C1224 1.378 . S
C1217 C1216 1.367 . S
C1217 C1225 1.433 . S
C1218 H1214 0.929 . S
C1218 C1220 1.378 . S
C1218 C1222 1.350 . S
C1219 C1222 1.463 . S
C1219 C1224 1.350 . S
C1219 N1227 1.427 . S
C1220 H1211 0.930 . S
C1220 C1218 1.378 . S
C1220 C1221 1.367 . S
C1221 C1220 1.367 . S
C1221 C1223 1.433 . S
C1222 C1218 1.350 . S
C1222 C1219 1.463 . S
C1222 N1226 1.427 . S
C1223 H1213 0.929 . S
C1223 C1221 1.433 . S
C1223 N1226 1.384 . S
C1224 H1215 0.929 . S
C1224 C1216 1.378 . S
C1224 C1219 1.350 . S
C1225 H1212 0.929 . S
C1225 C1217 1.433 . S
C1225 N1227 1.384 . S
N1226 C1222 1.427 . S
N1226 C1223 1.384 . S
N1227 C1219 1.427 . S
N1227 C1225 1.384 . S
H1228 C1234 0.930 . S
H1229 C1238 0.930 . S
H1230 C1243 0.929 . S
H1231 C1241 0.929 . S
H1232 C1236 0.929 . S
H1233 C1242 0.929 . S
C1234 H1228 0.930 . S
C1234 C1235 1.367 . S
C1234 C1242 1.378 . S
C1235 C1234 1.367 . S
C1235 C1243 1.433 . S
C1236 H1232 0.929 . S
C1236 C1238 1.378 . S
C1236 C1240 1.350 . S
C1237 C1240 1.463 . S
C1237 C1242 1.350 . S
C1237 N1245 1.427 . S
C1238 H1229 0.930 . S
C1238 C1236 1.378 . S
C1238 C1239 1.367 . S
C1239 C1238 1.367 . S
C1239 C1241 1.433 . S
C1240 C1236 1.350 . S
C1240 C1237 1.463 . S
C1240 N1244 1.427 . S
C1241 H1231 0.929 . S
C1241 C1239 1.433 . S
C1241 N1244 1.384 . S
C1242 H1233 0.929 . S
C1242 C1234 1.378 . S
C1242 C1237 1.350 . S
C1243 H1230 0.929 . S
C1243 C1235 1.433 . S
C1243 N1245 1.384 . S
N1244 C1240 1.427 . S
N1244 C1241 1.384 . S
N1245 C1237 1.427 . S
N1245 C1243 1.384 . S
H1246 C1252 0.930 . S
H1247 C1256 0.930 . S
H1248 C1261 0.929 . S
H1249 C1259 0.929 . S
H1250 C1254 0.929 . S
H1251 C1260 0.929 . S
C1252 H1246 0.930 . S
C1252 C1253 1.367 . S
C1252 C1260 1.378 . S
C1253 C1252 1.367 . S
C1253 C1261 1.433 . S
C1254 H1250 0.929 . S
C1254 C1256 1.378 . S
C1254 C1258 1.350 . S
C1255 C1258 1.463 . S
C1255 C1260 1.350 . S
C1255 N1263 1.427 . S
C1256 H1247 0.930 . S
C1256 C1254 1.378 . S
C1256 C1257 1.367 . S
C1257 C1256 1.367 . S
C1257 C1259 1.433 . S
C1258 C1254 1.350 . S
C1258 C1255 1.463 . S
C1258 N1262 1.427 . S
C1259 H1249 0.929 . S
C1259 C1257 1.433 . S
C1259 N1262 1.384 . S
C1260 H1251 0.929 . S
C1260 C1252 1.378 . S
C1260 C1255 1.350 . S
C1261 H1248 0.929 . S
C1261 C1253 1.433 . S
C1261 N1263 1.384 . S
N1262 C1258 1.427 . S
N1262 C1259 1.384 . S
N1263 C1255 1.427 . S
N1263 C1261 1.384 . S
C551 C5 0.602 . S
C555 C315 0.646 . S
C569 C9 0.616 . S
C573 C311 0.600 . S
C587 C281 0.646 . S
C591 C39 0.602 . S
C605 C43 0.630 . S
C609 C277 0.595 . S
C623 C73 0.615 . S
C627 C383 0.633 . S
C641 C77 0.647 . S
C645 C379 0.603 . S
C659 C107 0.616 . S
C663 C349 0.634 . S
C677 C111 0.646 . S
C681 C345 0.620 . S
C695 C141 0.620 . S
C699 C451 0.648 . S
C713 C447 0.612 . S
C717 C145 0.627 . S
C731 C417 0.616 . S
C735 C175 0.599 . S
C749 C413 0.615 . S
C753 C179 0.632 . S
C767 C519 0.651 . S
C771 C209 0.605 . S
C785 C515 0.613 . S
C789 C213 0.658 . S
C803 C485 0.617 . S
C807 C243 0.597 . S
C821 C247 0.652 . S
C825 C481 0.606 . S
C839 C2 1.633 . S
C843 C36 1.632 1_554 S
C857 C104 1.632 1_556 S
C861 C70 1.632 . S
C875 C172 1.632 . S
C879 C138 1.633 . S
C893 C240 1.633 . S
C897 C206 1.633 . S
C911 C308 1.633 . S
C915 C274 1.633 . S
C929 C342 1.633 . S
C933 C376 1.633 . S
C947 C444 1.632 1_554 S
C951 C410 1.632 . S
C965 C478 1.632 . S
C969 C512 1.632 1_556 S
C983 C509 1.501 . S
C987 C33 1.501 . S
C1001 C88 1.852 . S
C1005 C20 1.852 . S
C1019 C407 1.508 . S
C1023 C67 1.508 . S
C1037 C258 1.856 . S
C1041 C54 1.856 . S
C1055 C101 1.515 . S
C1059 C441 1.515 . S
C1073 C339 1.507 . S
C1077 C135 1.507 . S
C1091 C122 1.857 . S
C1095 C190 1.857 . S
C1109 C373 1.516 . S
C1113 C169 1.516 . S
C1127 C156 1.848 . S
C1131 C224 1.848 . S
C1145 C203 1.509 . S
C1149 C543 1.509 . S
C1163 C237 1.506 . S
C1167 C305 1.506 . S
C1181 C271 1.511 . S
C1185 C475 1.511 . S
C1199 C360 1.853 . S
C1203 C292 1.853 . S
C1217 C530 1.849 . S
C1221 C326 1.849 . S
C1235 C394 1.848 . S
C1239 C462 1.848 . S
C1253 C428 1.853 . S
C1257 C496 1.853 . S
