# Generated by pormake.
# Topology zfc, (5)-cn, num edge types: 1
# Building blocks:
#     Node 0, Type 0, BuildingBlock: BEQFEK_clean_sbu_0, # of connection points: 5
#     Node 1, Type 0, BuildingBlock: BEQFEK_clean_sbu_0, # of connection points: 5
#     Node 2, Type 0, BuildingBlock: BEQFEK_clean_sbu_0, # of connection points: 5
#     Node 3, Type 0, BuildingBlock: BEQFEK_clean_sbu_0, # of connection points: 5
#     Node 4, Type 0, BuildingBlock: BEQFEK_clean_sbu_0, # of connection points: 5
#     Node 5, Type 0, BuildingBlock: BEQFEK_clean_sbu_0, # of connection points: 5
#     Node 6, Type 0, BuildingBlock: BEQFEK_clean_sbu_0, # of connection points: 5
#     Node 7, Type 0, BuildingBlock: BEQFEK_clean_sbu_0, # of connection points: 5
#     Node 8, Type 0, BuildingBlock: BEQFEK_clean_sbu_0, # of connection points: 5
#     Node 9, Type 0, BuildingBlock: BEQFEK_clean_sbu_0, # of connection points: 5
#     Node 10, Type 0, BuildingBlock: BEQFEK_clean_sbu_0, # of connection points: 5
#     Node 11, Type 0, BuildingBlock: BEQFEK_clean_sbu_0, # of connection points: 5
#     Node 12, Type 0, BuildingBlock: BEQFEK_clean_sbu_0, # of connection points: 5
#     Node 13, Type 0, BuildingBlock: BEQFEK_clean_sbu_0, # of connection points: 5
#     Node 14, Type 0, BuildingBlock: BEQFEK_clean_sbu_0, # of connection points: 5
#     Node 15, Type 0, BuildingBlock: BEQFEK_clean_sbu_0, # of connection points: 5
#     Edge 16, Type (0, 0), BuildingBlock: OJICUG_clean_linker_0, # of connection points: 2
#     Edge 17, Type (0, 0), BuildingBlock: OJICUG_clean_linker_0, # of connection points: 2
#     Edge 18, Type (0, 0), BuildingBlock: OJICUG_clean_linker_0, # of connection points: 2
#     Edge 19, Type (0, 0), BuildingBlock: OJICUG_clean_linker_0, # of connection points: 2
#     Edge 20, Type (0, 0), BuildingBlock: OJICUG_clean_linker_0, # of connection points: 2
#     Edge 21, Type (0, 0), BuildingBlock: OJICUG_clean_linker_0, # of connection points: 2
#     Edge 22, Type (0, 0), BuildingBlock: OJICUG_clean_linker_0, # of connection points: 2
#     Edge 23, Type (0, 0), BuildingBlock: OJICUG_clean_linker_0, # of connection points: 2
#     Edge 24, Type (0, 0), BuildingBlock: OJICUG_clean_linker_0, # of connection points: 2
#     Edge 25, Type (0, 0), BuildingBlock: OJICUG_clean_linker_0, # of connection points: 2
#     Edge 26, Type (0, 0), BuildingBlock: OJICUG_clean_linker_0, # of connection points: 2
#     Edge 27, Type (0, 0), BuildingBlock: OJICUG_clean_linker_0, # of connection points: 2
#     Edge 28, Type (0, 0), BuildingBlock: OJICUG_clean_linker_0, # of connection points: 2
#     Edge 29, Type (0, 0), BuildingBlock: OJICUG_clean_linker_0, # of connection points: 2
#     Edge 30, Type (0, 0), BuildingBlock: OJICUG_clean_linker_0, # of connection points: 2
#     Edge 31, Type (0, 0), BuildingBlock: OJICUG_clean_linker_0, # of connection points: 2
#     Edge 32, Type (0, 0), BuildingBlock: OJICUG_clean_linker_0, # of connection points: 2
#     Edge 33, Type (0, 0), BuildingBlock: OJICUG_clean_linker_0, # of connection points: 2
#     Edge 34, Type (0, 0), BuildingBlock: OJICUG_clean_linker_0, # of connection points: 2
#     Edge 35, Type (0, 0), BuildingBlock: OJICUG_clean_linker_0, # of connection points: 2
#     Edge 36, Type (0, 0), BuildingBlock: OJICUG_clean_linker_0, # of connection points: 2
#     Edge 37, Type (0, 0), BuildingBlock: OJICUG_clean_linker_0, # of connection points: 2
#     Edge 38, Type (0, 0), BuildingBlock: OJICUG_clean_linker_0, # of connection points: 2
#     Edge 39, Type (0, 0), BuildingBlock: OJICUG_clean_linker_0, # of connection points: 2
#     Edge 40, Type (0, 0), BuildingBlock: OJICUG_clean_linker_0, # of connection points: 2
#     Edge 41, Type (0, 0), BuildingBlock: OJICUG_clean_linker_0, # of connection points: 2
#     Edge 42, Type (0, 0), BuildingBlock: OJICUG_clean_linker_0, # of connection points: 2
#     Edge 43, Type (0, 0), BuildingBlock: OJICUG_clean_linker_0, # of connection points: 2
#     Edge 44, Type (0, 0), BuildingBlock: OJICUG_clean_linker_0, # of connection points: 2
#     Edge 45, Type (0, 0), BuildingBlock: OJICUG_clean_linker_0, # of connection points: 2
#     Edge 46, Type (0, 0), BuildingBlock: OJICUG_clean_linker_0, # of connection points: 2
#     Edge 47, Type (0, 0), BuildingBlock: OJICUG_clean_linker_0, # of connection points: 2
#     Edge 48, Type (0, 0), BuildingBlock: OJICUG_clean_linker_0, # of connection points: 2
#     Edge 49, Type (0, 0), BuildingBlock: OJICUG_clean_linker_0, # of connection points: 2
#     Edge 50, Type (0, 0), BuildingBlock: OJICUG_clean_linker_0, # of connection points: 2
#     Edge 51, Type (0, 0), BuildingBlock: OJICUG_clean_linker_0, # of connection points: 2
#     Edge 52, Type (0, 0), BuildingBlock: OJICUG_clean_linker_0, # of connection points: 2
#     Edge 53, Type (0, 0), BuildingBlock: OJICUG_clean_linker_0, # of connection points: 2
#     Edge 54, Type (0, 0), BuildingBlock: OJICUG_clean_linker_0, # of connection points: 2
#     Edge 55, Type (0, 0), BuildingBlock: OJICUG_clean_linker_0, # of connection points: 2
# Relax obj value: 0.192
# Max RMSD: 0.209
# Mean RMSD: 0.209
data_MOF--net-zfc--node1-BEQFEK_clean_sbu_0--edge1-OJICUG_clean_linker_0
_symmetry_space_group_name_H-M    P1
_symmetry_Int_Tables_number       1
_symmetry_cell_setting            triclinic
loop_
_symmetry_equiv_pos_as_xyz
'x, y, z'
_cell_length_a     54.598527
_cell_length_b     54.603462
_cell_length_c     14.881325
_cell_angle_alpha  90.02063
_cell_angle_beta   89.978672
_cell_angle_gamma 89.997574
loop_
_atom_site_label
_atom_site_type_symbol
_atom_site_fract_x
_atom_site_fract_y
_atom_site_fract_z
_atom_type_partial_charge
Co0 Co 0.24378 0.11574 0.18335 0.0
Co1 Co 0.26718 0.1246 0.9961 0.0
C2 C 0.21784 0.14629 0.05532 0.0
O3 O 0.2172 0.13592 0.13188 0.0
O4 O 0.23601 0.14346 0.00282 0.0
C5 C 0.22734 0.09779 0.37629 0.0
O6 O 0.20878 0.08287 0.36395 0.0
C7 C 0.25865 0.11484 0.80905 0.0
C8 C 0.29176 0.12865 0.74075 0.0
C9 C 0.26929 0.11749 0.72512 0.0
N10 N 0.27418 0.12366 0.8712 0.0
N11 N 0.29401 0.13186 0.83021 0.0
C12 C 0.23352 0.10533 0.83014 0.0
H13 H 0.22819 0.10949 0.90011 0.0
H14 H 0.23319 0.08515 0.82288 0.0
H15 H 0.21991 0.11321 0.78289 0.0
C16 C 0.24799 0.06362 0.12288 0.0
N17 N 0.25109 0.08793 0.11195 0.0
N18 N 0.26318 0.09182 0.03683 0.0
C19 C 0.26914 0.07008 -0.00032 0.0
C20 C 0.25933 0.05153 0.05205 0.0
C21 C 0.23517 0.0523 0.20121 0.0
H22 H 0.24509 0.05718 0.26373 0.0
H23 H 0.21637 0.05989 0.20593 0.0
H24 H 0.23429 0.03206 0.1954 0.0
O25 O 0.27355 0.136 0.19711 0.0
O26 O 0.29268 0.14196 0.06772 0.0
H27 H 0.29627 0.08291 0.90573 0.0
H28 H 0.29514 0.05018 0.91786 0.0
C29 C 0.28391 0.06705 0.9155 0.0
H30 H 0.27144 0.0654 0.8571 0.0
H31 H 0.30887 0.13988 0.86305 0.0
O32 O 0.23781 0.10783 0.30984 0.0
C33 C 0.29132 0.14488 0.15264 0.0
Co34 Co 0.8858 0.24287 0.17125 0.0
Co35 Co 0.87588 0.26572 0.98386 0.0
C36 C 0.85523 0.21622 0.04464 0.0
O37 O 0.86593 0.21596 0.12061 0.0
O38 O 0.85749 0.2343 0.99148 0.0
C39 C 0.90434 0.22673 0.36406 0.0
O40 O 0.91987 0.20865 0.35206 0.0
C41 C 0.88534 0.25717 0.79661 0.0
C42 C 0.87118 0.29014 0.72845 0.0
C43 C 0.88262 0.26781 0.71277 0.0
N44 N 0.87634 0.27259 0.85884 0.0
N45 N 0.8679 0.29231 0.81791 0.0
C46 C 0.89519 0.23216 0.81752 0.0
H47 H 0.89102 0.22669 0.8873 0.0
H48 H 0.91539 0.23211 0.81069 0.0
H49 H 0.88759 0.21848 0.76989 0.0
C50 C 0.93765 0.24817 0.10927 0.0
N51 N 0.91326 0.25064 0.09882 0.0
N52 N 0.90892 0.26236 0.0233 0.0
C53 C 0.93044 0.26869 0.98521 0.0
C54 C 0.94935 0.2595 0.0375 0.0
C55 C 0.94941 0.23608 0.1883 0.0
H56 H 0.94382 0.2458 0.25045 0.0
H57 H 0.94279 0.21691 0.19307 0.0
H58 H 0.96968 0.23624 0.18337 0.0
O59 O 0.86509 0.27226 0.18575 0.0
O60 O 0.8583 0.29102 0.05619 0.0
H61 H 0.91675 0.29514 0.8904 0.0
H62 H 0.94948 0.29477 0.90077 0.0
C63 C 0.93289 0.28315 0.90007 0.0
H64 H 0.93461 0.27048 0.84228 0.0
H65 H 0.85976 0.3071 0.85083 0.0
O66 O 0.89406 0.23683 0.29736 0.0
C67 C 0.85571 0.28978 0.14131 0.0
Co68 Co 0.75629 0.88362 0.17623 0.0
Co69 Co 0.73288 0.87469 0.98894 0.0
C70 C 0.78221 0.85307 0.04762 0.0
O71 O 0.78276 0.86342 0.12425 0.0
O72 O 0.76408 0.85584 0.99496 0.0
C73 C 0.77284 0.90153 0.36924 0.0
O74 O 0.79139 0.91647 0.357 0.0
C75 C 0.74137 0.88451 0.80195 0.0
C76 C 0.70831 0.8706 0.73358 0.0
C77 C 0.73076 0.88182 0.71799 0.0
N78 N 0.72584 0.87566 0.86407 0.0
N79 N 0.70605 0.86741 0.82304 0.0
C80 C 0.76648 0.89406 0.82308 0.0
H81 H 0.77177 0.88999 0.89313 0.0
H82 H 0.76681 0.91423 0.81555 0.0
H83 H 0.78013 0.88613 0.77601 0.0
C84 C 0.75199 0.9357 0.11609 0.0
N85 N 0.74894 0.9114 0.10496 0.0
N86 N 0.73688 0.9075 0.0298 0.0
C87 C 0.73089 0.92924 0.9928 0.0
C88 C 0.74066 0.9478 0.04533 0.0
C89 C 0.76474 0.94702 0.19461 0.0
H90 H 0.75484 0.94201 0.25706 0.0
H91 H 0.78358 0.93952 0.19918 0.0
H92 H 0.76551 0.96726 0.18917 0.0
O93 O 0.72654 0.86342 0.19028 0.0
O94 O 0.70741 0.8573 0.06102 0.0
H95 H 0.7038 0.9164 0.8988 0.0
H96 H 0.70489 0.94913 0.91108 0.0
C97 C 0.71613 0.93227 0.90865 0.0
H98 H 0.72861 0.93396 0.85025 0.0
H99 H 0.6912 0.85935 0.85585 0.0
O100 O 0.76237 0.89153 0.30271 0.0
C101 C 0.70877 0.85448 0.146 0.0
Co102 Co 0.11405 0.75581 0.17142 0.0
Co103 Co 0.12458 0.73291 0.98293 0.0
C104 C 0.14525 0.78233 0.04442 0.0
O105 O 0.13449 0.78255 0.12048 0.0
O106 O 0.14285 0.76435 0.9907 0.0
C107 C 0.12075 0.76687 0.35077 0.0
O108 O 0.14233 0.77293 0.31859 0.0
C109 C 0.12142 0.74092 0.7919 0.0
C110 C 0.12824 0.70462 0.73169 0.0
C111 C 0.1232 0.72884 0.71071 0.0
N112 N 0.12533 0.72476 0.85841 0.0
N113 N 0.12946 0.70304 0.82215 0.0
C114 C 0.11368 0.76694 0.80599 0.0
H115 H 0.10721 0.76987 0.87581 0.0
H116 H 0.09886 0.7718 0.75814 0.0
H117 H 0.12936 0.77924 0.79232 0.0
C118 C 0.06287 0.75134 0.10679 0.0
N119 N 0.08718 0.74831 0.09654 0.0
N120 N 0.09146 0.73733 0.01944 0.0
C121 C 0.06991 0.73249 0.97893 0.0
C122 C 0.0511 0.74138 0.03257 0.0
C123 C 0.05137 0.76274 0.18788 0.0
H124 H 0.05528 0.75115 0.24742 0.0
H125 H 0.05977 0.78094 0.20015 0.0
H126 H 0.03125 0.76467 0.18031 0.0
O127 O 0.13444 0.72648 0.18862 0.0
O128 O 0.14153 0.70783 0.05903 0.0
H129 H 0.0807 0.70524 0.88289 0.0
H130 H 0.04869 0.71344 0.87728 0.0
C131 C 0.06744 0.72052 0.88883 0.0
H132 H 0.07145 0.73416 0.83572 0.0
H133 H 0.13296 0.68716 0.859 0.0
O134 O 0.10358 0.76191 0.29614 0.0
C135 C 0.14385 0.70897 0.1443 0.0
Co136 Co 0.24424 0.8864 0.82031 0.0
Co137 Co 0.26614 0.8751 0.00977 0.0
C138 C 0.2168 0.8552 0.94529 0.0
O139 O 0.21736 0.86579 0.86901 0.0
O140 O 0.2343 0.8574 0.00121 0.0
C141 C 0.23342 0.87966 0.64207 0.0
O142 O 0.22729 0.85824 0.67538 0.0
C143 C 0.25874 0.87765 0.20156 0.0
C144 C 0.29535 0.87109 0.2594 0.0
C145 C 0.27119 0.87592 0.28189 0.0
N146 N 0.2746 0.87393 0.13397 0.0
N147 N 0.29652 0.86994 0.16883 0.0
C148 C 0.23261 0.8852 0.18954 0.0
H149 H 0.2291 0.8913 0.11967 0.0
H150 H 0.22803 0.90025 0.23685 0.0
H151 H 0.22058 0.86952 0.20601 0.0
C152 C 0.24906 0.93739 0.88722 0.0
N153 N 0.25174 0.91302 0.89669 0.0
N154 N 0.26225 0.90839 0.97439 0.0
C155 C 0.26707 0.92978 0.0162 0.0
C156 C 0.2587 0.94885 0.96269 0.0
C157 C 0.23827 0.94924 0.80574 0.0
H158 H 0.24954 0.94447 0.7462 0.0
H159 H 0.21961 0.94183 0.79411 0.0
H160 H 0.23745 0.96946 0.81244 0.0
O161 O 0.2734 0.8659 0.80284 0.0
O162 O 0.2911 0.85789 0.93333 0.0
H163 H 0.29381 0.91873 0.11366 0.0
H164 H 0.28517 0.95056 0.12157 0.0
C165 C 0.2784 0.93183 0.10754 0.0
H166 H 0.26446 0.92734 0.15904 0.0
H167 H 0.31227 0.86666 0.13093 0.0
O168 O 0.23839 0.89704 0.69583 0.0
C169 C 0.29045 0.85599 0.84786 0.0
Co170 Co 0.11595 0.24379 0.81402 0.0
Co171 Co 0.12529 0.26704 0.00125 0.0
C172 C 0.14654 0.21761 0.94135 0.0
O173 O 0.13602 0.21702 0.86507 0.0
O174 O 0.14391 0.2358 0.99386 0.0
C175 C 0.09768 0.22751 0.62112 0.0
O176 O 0.08243 0.20921 0.6333 0.0
C177 C 0.11573 0.25841 0.18844 0.0
C178 C 0.12967 0.29146 0.25681 0.0
C179 C 0.1184 0.26904 0.27238 0.0
N180 N 0.12462 0.27391 0.12631 0.0
N181 N 0.13291 0.29369 0.16736 0.0
C182 C 0.10608 0.23333 0.16735 0.0
H183 H 0.11023 0.22796 0.09744 0.0
H184 H 0.08589 0.23311 0.1745 0.0
H185 H 0.11386 0.21969 0.2147 0.0
C186 C 0.06392 0.24864 0.87521 0.0
N187 N 0.08828 0.2514 0.88591 0.0
N188 N 0.09239 0.26333 0.96121 0.0
C189 C 0.07077 0.26948 -0.00112 0.0
C190 C 0.05202 0.25998 0.94655 0.0
C191 C 0.05238 0.23623 0.79639 0.0
H192 H 0.05779 0.24597 0.73409 0.0
H193 H 0.05932 0.21718 0.79193 0.0
H194 H 0.0321 0.23606 0.8013 0.0
O195 O 0.13647 0.27336 0.79988 0.0
O196 O 0.14274 0.29242 0.92925 0.0
H197 H 0.0841 0.29615 0.09364 0.0
H198 H 0.05138 0.29546 0.08274 0.0
C199 C 0.06808 0.284 0.08383 0.0
H200 H 0.06641 0.27136 0.14172 0.0
H201 H 0.14096 0.30854 0.13454 0.0
O202 O 0.10786 0.23779 0.68769 0.0
C203 C 0.14557 0.29105 0.84427 0.0
Co204 Co 0.75596 0.11323 0.81678 0.0
Co205 Co 0.73379 0.12418 0.00597 0.0
C206 C 0.78318 0.14434 0.94205 0.0
O207 O 0.78296 0.13368 0.86586 0.0
O208 O 0.76546 0.14202 0.99703 0.0
C209 C 0.76698 0.11983 0.63816 0.0
O210 O 0.77323 0.14128 0.67098 0.0
C211 C 0.74153 0.12112 0.19737 0.0
C212 C 0.70523 0.12864 0.25643 0.0
C213 C 0.7293 0.12318 0.27809 0.0
N214 N 0.7256 0.12525 0.13034 0.0
N215 N 0.70387 0.1298 0.16592 0.0
C216 C 0.76742 0.11284 0.18442 0.0
H217 H 0.77083 0.10742 0.11371 0.0
H218 H 0.77136 0.0971 0.22938 0.0
H219 H 0.78004 0.12782 0.20361 0.0
C220 C 0.7511 0.06212 0.88259 0.0
N221 N 0.7484 0.08648 0.89251 0.0
N222 N 0.73771 0.09099 0.97 0.0
C223 C 0.73276 0.06955 0.01117 0.0
C224 C 0.74126 0.05056 0.95752 0.0
C225 C 0.76207 0.05038 0.80114 0.0
H226 H 0.75078 0.05505 0.74156 0.0
H227 H 0.78067 0.05797 0.78966 0.0
H228 H 0.76306 0.03018 0.80774 0.0
O229 O 0.72678 0.13386 0.79987 0.0
O230 O 0.70881 0.14137 0.93041 0.0
H231 H 0.70605 0.08084 0.10853 0.0
H232 H 0.71386 0.04877 0.11459 0.0
C233 C 0.72113 0.06738 0.10202 0.0
H234 H 0.73505 0.07127 0.15425 0.0
H235 H 0.68814 0.13353 0.12857 0.0
O236 O 0.76183 0.10261 0.69228 0.0
C237 C 0.70961 0.14357 0.84507 0.0
Co238 Co 0.88494 0.75509 0.80996 0.0
Co239 Co 0.87485 0.73206 -0.00147 0.0
C240 C 0.85375 0.78139 0.93725 0.0
O241 O 0.86423 0.78169 0.86068 0.0
O242 O 0.85653 0.76347 0.991 0.0
C243 C 0.87816 0.76589 0.63064 0.0
O244 O 0.8565 0.77167 0.66275 0.0
C245 C 0.87852 0.73988 0.18973 0.0
C246 C 0.87075 0.70374 0.24955 0.0
C247 C 0.87639 0.72782 0.27074 0.0
N248 N 0.87425 0.72387 0.12301 0.0
N249 N 0.86959 0.70223 0.15906 0.0
C250 C 0.88682 0.76574 0.1762 0.0
H251 H 0.89197 0.76909 0.10519 0.0
H252 H 0.90275 0.76963 0.22032 0.0
H253 H 0.87198 0.77845 0.19608 0.0
C254 C 0.93623 0.75101 0.87416 0.0
N255 N 0.91196 0.74777 0.88463 0.0
N256 N 0.90785 0.73658 0.96144 0.0
C257 C 0.92949 0.73179 0.00144 0.0
C258 C 0.94816 0.74096 0.94787 0.0
C259 C 0.94757 0.76269 0.79333 0.0
H260 H 0.94403 0.75099 0.73372 0.0
H261 H 0.93874 0.78068 0.78088 0.0
H262 H 0.96762 0.7651 0.80131 0.0
O263 O 0.86467 0.72564 0.79297 0.0
O264 O 0.85782 0.70699 0.92269 0.0
H265 H 0.91862 0.70453 0.09737 0.0
H266 H 0.95081 0.71207 0.10087 0.0
C267 C 0.93216 0.71955 0.09095 0.0
H268 H 0.92874 0.73315 0.1448 0.0
H269 H 0.86566 0.68647 0.12205 0.0
O270 O 0.89538 0.76118 0.68531 0.0
C271 C 0.85536 0.70812 0.83748 0.0
Co272 Co 0.74331 0.61418 0.66989 0.0
Co273 Co 0.76603 0.62418 0.4823 0.0
C274 C 0.71668 0.64501 0.54394 0.0
O275 O 0.71648 0.6343 0.61986 0.0
O276 O 0.73468 0.6427 0.49035 0.0
C277 C 0.72716 0.5955 0.86268 0.0
O278 O 0.70909 0.57995 0.85091 0.0
C279 C 0.75744 0.61484 0.29502 0.0
C280 C 0.79052 0.62882 0.2269 0.0
C281 C 0.76815 0.61748 0.21122 0.0
N282 N 0.77287 0.62379 0.35725 0.0
N283 N 0.79266 0.63214 0.31636 0.0
C284 C 0.73239 0.60508 0.3159 0.0
H285 H 0.72686 0.6094 0.3855 0.0
H286 H 0.73231 0.58488 0.30959 0.0
H287 H 0.71878 0.61262 0.26792 0.0
C288 C 0.74843 0.56235 0.60724 0.0
N289 N 0.75089 0.58676 0.59696 0.0
N290 N 0.76257 0.59113 0.52134 0.0
C291 C 0.76888 0.56964 0.48304 0.0
C292 C 0.75972 0.5507 0.53528 0.0
C293 C 0.73642 0.55055 0.68639 0.0
H294 H 0.74623 0.55607 0.7484 0.0
H295 H 0.71727 0.55719 0.69162 0.0
H296 H 0.73655 0.53029 0.68124 0.0
O297 O 0.77285 0.63469 0.6845 0.0
O298 O 0.79145 0.64156 0.55463 0.0
H299 H 0.79538 0.58335 0.38841 0.0
H300 H 0.79493 0.55061 0.39828 0.0
C301 C 0.78335 0.56723 0.39785 0.0
H302 H 0.77068 0.5656 0.34005 0.0
H303 H 0.80748 0.6402 0.3493 0.0
O304 O 0.7372 0.60579 0.79585 0.0
C305 C 0.79035 0.64403 0.63983 0.0
Co306 Co 0.38403 0.74374 0.67928 0.0
Co307 Co 0.37493 0.76714 0.4921 0.0
C308 C 0.35353 0.71771 0.55082 0.0
O309 O 0.36395 0.71717 0.62731 0.0
O310 O 0.35618 0.73587 0.49823 0.0
C311 C 0.40204 0.72728 0.87231 0.0
O312 O 0.41712 0.70884 0.86011 0.0
C313 C 0.38474 0.75867 0.30503 0.0
C314 C 0.37069 0.79165 0.23666 0.0
C315 C 0.38199 0.76925 0.22106 0.0
N316 N 0.37583 0.77417 0.36718 0.0
N317 N 0.36749 0.79392 0.32614 0.0
C318 C 0.39438 0.7336 0.32615 0.0
H319 H 0.39034 0.7283 0.39622 0.0
H320 H 0.41456 0.73334 0.31856 0.0
H321 H 0.38651 0.71992 0.27911 0.0
C322 C 0.43608 0.74824 0.61877 0.0
N323 N 0.41176 0.75122 0.60786 0.0
N324 N 0.40779 0.76327 0.53271 0.0
C325 C 0.4295 0.76931 0.49552 0.0
C326 C 0.44811 0.75959 0.54787 0.0
C327 C 0.44746 0.73552 0.69718 0.0
H328 H 0.44243 0.74538 0.75969 0.0
H329 H 0.44005 0.71665 0.70172 0.0
H330 H 0.46771 0.73483 0.69163 0.0
O331 O 0.36366 0.77337 0.69356 0.0
O332 O 0.35745 0.79253 0.56443 0.0
H333 H 0.41651 0.7963 0.40143 0.0
H334 H 0.44925 0.79539 0.41362 0.0
C335 C 0.43245 0.78405 0.41128 0.0
H336 H 0.4342 0.77157 0.35293 0.0
H337 H 0.35937 0.80874 0.35894 0.0
O338 O 0.39198 0.73766 0.80574 0.0
C339 C 0.35461 0.79111 0.64942 0.0
Co340 Co 0.25726 0.38543 0.67767 0.0
Co341 Co 0.23426 0.37598 0.49017 0.0
C342 C 0.28364 0.35483 0.55037 0.0
O343 O 0.28395 0.36537 0.62667 0.0
O344 O 0.2656 0.35734 0.49712 0.0
C345 C 0.27356 0.40371 0.87051 0.0
O346 O 0.29191 0.41891 0.85841 0.0
C347 C 0.24271 0.38566 0.30309 0.0
C348 C 0.20965 0.37167 0.23498 0.0
C349 C 0.23204 0.38299 0.21927 0.0
N350 N 0.22728 0.37671 0.36531 0.0
N351 N 0.20748 0.36839 0.32443 0.0
C352 C 0.26779 0.39535 0.32402 0.0
H353 H 0.27322 0.39114 0.3938 0.0
H354 H 0.26794 0.41554 0.31723 0.0
H355 H 0.28142 0.38766 0.27638 0.0
C356 C 0.25253 0.43738 0.61655 0.0
N357 N 0.24977 0.41303 0.60575 0.0
N358 N 0.23789 0.4089 0.53037 0.0
C359 C 0.23172 0.43053 0.49288 0.0
C360 C 0.24119 0.44926 0.54532 0.0
C361 C 0.26498 0.44893 0.69526 0.0
H362 H 0.25507 0.4438 0.75754 0.0
H363 H 0.28393 0.44173 0.70025 0.0
H364 H 0.26545 0.46918 0.68968 0.0
O365 O 0.2277 0.36494 0.69179 0.0
O366 O 0.20889 0.35844 0.56213 0.0
H367 H 0.20485 0.41731 0.39876 0.0
H368 H 0.20564 0.45006 0.41028 0.0
C369 C 0.21703 0.4333 0.40843 0.0
H370 H 0.22956 0.43499 0.35018 0.0
H371 H 0.19268 0.36029 0.35735 0.0
O372 O 0.26328 0.39356 0.80392 0.0
C373 C 0.21012 0.35573 0.64718 0.0
Co374 Co 0.61635 0.25652 0.68066 0.0
Co375 Co 0.62512 0.23316 0.49333 0.0
C376 C 0.64675 0.28252 0.55224 0.0
O377 O 0.63643 0.28315 0.62892 0.0
O378 O 0.64393 0.26434 0.49981 0.0
C379 C 0.59854 0.27304 0.87355 0.0
O380 O 0.58366 0.29163 0.86102 0.0
C381 C 0.61531 0.24169 0.30638 0.0
C382 C 0.62918 0.20861 0.23799 0.0
C383 C 0.618 0.23108 0.22243 0.0
N384 N 0.62413 0.22616 0.36848 0.0
N385 N 0.63236 0.20635 0.32745 0.0
C386 C 0.60579 0.26682 0.32753 0.0
H387 H 0.60984 0.2721 0.39763 0.0
H388 H 0.58562 0.26717 0.31989 0.0
H389 H 0.61376 0.28045 0.28054 0.0
C390 C 0.56418 0.25215 0.621 0.0
N391 N 0.58849 0.24914 0.60967 0.0
N392 N 0.59235 0.2371 0.53441 0.0
C393 C 0.5706 0.2311 0.49751 0.0
C394 C 0.55206 0.24082 0.55023 0.0
C395 C 0.55287 0.26485 0.69969 0.0
H396 H 0.55802 0.25501 0.76207 0.0
H397 H 0.56025 0.28374 0.70408 0.0
H398 H 0.53261 0.26549 0.69456 0.0
O399 O 0.63667 0.22679 0.69418 0.0
O400 O 0.64254 0.20767 0.5647 0.0
H401 H 0.58342 0.20407 0.40319 0.0
H402 H 0.55069 0.2052 0.41532 0.0
C403 C 0.56756 0.21642 0.41314 0.0
H404 H 0.56593 0.22894 0.35491 0.0
H405 H 0.64039 0.1915 0.36025 0.0
O406 O 0.60856 0.26248 0.80723 0.0
C407 C 0.64554 0.20903 0.64958 0.0
Co408 Co 0.74422 0.3843 0.31 0.0
Co409 Co 0.76755 0.37481 0.49704 0.0
C410 C 0.718 0.35378 0.43741 0.0
O411 O 0.71739 0.36431 0.36115 0.0
O412 O 0.73623 0.35633 0.48972 0.0
C413 C 0.72808 0.40269 0.11701 0.0
O414 O 0.70989 0.41809 0.12907 0.0
C415 C 0.75895 0.38437 0.68432 0.0
C416 C 0.79192 0.37026 0.75265 0.0
C417 C 0.76955 0.38164 0.76825 0.0
N418 N 0.77442 0.37541 0.62215 0.0
N419 N 0.79415 0.36702 0.66318 0.0
C420 C 0.73392 0.39415 0.66327 0.0
H421 H 0.72852 0.39002 0.59338 0.0
H422 H 0.73379 0.41434 0.67039 0.0
H423 H 0.72023 0.38644 0.71067 0.0
C424 C 0.74916 0.43627 0.37168 0.0
N425 N 0.75195 0.41191 0.38203 0.0
N426 N 0.76393 0.40773 0.45715 0.0
C427 C 0.77009 0.42933 0.495 0.0
C428 C 0.76054 0.44812 0.44304 0.0
C429 C 0.73665 0.44787 0.2932 0.0
H430 H 0.74638 0.44258 0.23071 0.0
H431 H 0.71763 0.44085 0.2888 0.0
H432 H 0.7364 0.46813 0.29848 0.0
O433 O 0.7737 0.36365 0.29563 0.0
O434 O 0.79283 0.35726 0.42473 0.0
H435 H 0.79671 0.41586 0.58965 0.0
H436 H 0.79624 0.44857 0.57849 0.0
C437 C 0.78467 0.43195 0.57982 0.0
H438 H 0.77206 0.43375 0.6378 0.0
H439 H 0.80896 0.3589 0.63034 0.0
O440 O 0.73825 0.39246 0.18367 0.0
C441 C 0.79137 0.35446 0.33975 0.0
Co442 Co 0.61342 0.74415 0.31706 0.0
Co443 Co 0.62451 0.76656 0.50587 0.0
C444 C 0.64477 0.71717 0.44212 0.0
O445 O 0.63397 0.71723 0.36618 0.0
O446 O 0.64245 0.73496 0.49676 0.0
C447 C 0.6199 0.73302 0.13821 0.0
O448 O 0.64134 0.72664 0.17076 0.0
C449 C 0.62146 0.75866 0.69721 0.0
C450 C 0.62897 0.79489 0.75682 0.0
C451 C 0.62348 0.77079 0.77816 0.0
N452 N 0.62563 0.77466 0.63041 0.0
N453 N 0.63019 0.79634 0.66633 0.0
C454 C 0.61311 0.73281 0.68376 0.0
H455 H 0.60756 0.72956 0.6131 0.0
H456 H 0.59745 0.72879 0.72905 0.0
H457 H 0.62811 0.72012 0.70202 0.0
C458 C 0.56235 0.749 0.38363 0.0
N459 N 0.58672 0.75174 0.39313 0.0
N460 N 0.59128 0.76254 0.47035 0.0
C461 C 0.56987 0.76753 0.51174 0.0
C462 C 0.55083 0.75893 0.45854 0.0
C463 C 0.55055 0.73792 0.30254 0.0
H464 H 0.55513 0.74915 0.24272 0.0
H465 H 0.55817 0.71933 0.2912 0.0
H466 H 0.53035 0.73689 0.30949 0.0
O467 O 0.63398 0.77336 0.29976 0.0
O468 O 0.64156 0.79158 0.42977 0.0
H469 H 0.58129 0.79435 0.60846 0.0
H470 H 0.54919 0.78668 0.61487 0.0
C471 C 0.56777 0.77931 0.60235 0.0
H472 H 0.57161 0.76546 0.65486 0.0
H473 H 0.63394 0.81212 0.62922 0.0
O474 O 0.60274 0.73828 0.19255 0.0
C475 C 0.64367 0.79064 0.34439 0.0
Co476 Co 0.25501 0.61485 0.31645 0.0
Co477 Co 0.23226 0.62552 0.50517 0.0
C478 C 0.28161 0.64622 0.44254 0.0
O479 O 0.28175 0.63557 0.36628 0.0
O480 O 0.26374 0.64367 0.49674 0.0
C481 C 0.26584 0.62162 0.13749 0.0
O482 O 0.27177 0.64318 0.17014 0.0
C483 C 0.24007 0.62229 0.69662 0.0
C484 C 0.20384 0.62991 0.75608 0.0
C485 C 0.22792 0.62439 0.77751 0.0
N486 N 0.22409 0.62645 0.62973 0.0
N487 N 0.2024 0.63106 0.66557 0.0
C488 C 0.26594 0.61397 0.68345 0.0
H489 H 0.2694 0.60887 0.61246 0.0
H490 H 0.26975 0.598 0.72744 0.0
H491 H 0.27862 0.62878 0.70385 0.0
C492 C 0.25059 0.56368 0.38219 0.0
N493 N 0.24758 0.58801 0.392 0.0
N494 N 0.23661 0.59238 0.46907 0.0
C495 C 0.23178 0.57089 0.51003 0.0
C496 C 0.24067 0.55199 0.45673 0.0
C497 C 0.26193 0.55207 0.30117 0.0
H498 H 0.25073 0.55658 0.24118 0.0
H499 H 0.28045 0.55991 0.29031 0.0
H500 H 0.26317 0.53188 0.30786 0.0
O501 O 0.22562 0.63515 0.29922 0.0
O502 O 0.20716 0.64244 0.42901 0.0
H503 H 0.20484 0.58207 0.60672 0.0
H504 H 0.21254 0.54998 0.61221 0.0
C505 C 0.2199 0.56859 0.60039 0.0
H506 H 0.23369 0.57232 0.65323 0.0
H507 H 0.18665 0.63485 0.6284 0.0
O508 O 0.26102 0.60433 0.19177 0.0
C509 C 0.20819 0.64463 0.34369 0.0
Co510 Co 0.38658 0.2556 0.32132 0.0
Co511 Co 0.37569 0.23325 0.51025 0.0
C512 C 0.35525 0.28256 0.44661 0.0
O513 O 0.36598 0.2825 0.37052 0.0
O514 O 0.35766 0.26479 0.50127 0.0
C515 C 0.38005 0.26674 0.14255 0.0
O516 O 0.35859 0.27305 0.17515 0.0
C517 C 0.37876 0.24115 0.70155 0.0
C518 C 0.3713 0.2049 0.76101 0.0
C519 C 0.37674 0.229 0.78242 0.0
N520 N 0.37463 0.22515 0.6347 0.0
N521 N 0.37011 0.20345 0.67052 0.0
C522 C 0.38705 0.26702 0.68824 0.0
H523 H 0.39248 0.27033 0.6175 0.0
H524 H 0.40277 0.27102 0.73321 0.0
H525 H 0.37207 0.27968 0.7071 0.0
C526 C 0.4377 0.25099 0.38743 0.0
N527 N 0.41335 0.24815 0.39714 0.0
N528 N 0.40887 0.23736 0.47443 0.0
C529 C 0.43031 0.23248 0.51565 0.0
C530 C 0.44929 0.24115 0.46227 0.0
C531 C 0.44941 0.2621 0.30621 0.0
H532 H 0.44491 0.25079 0.24649 0.0
H533 H 0.44166 0.28062 0.29475 0.0
H534 H 0.46961 0.26328 0.31308 0.0
O535 O 0.36609 0.22631 0.30424 0.0
O536 O 0.35867 0.20818 0.4345 0.0
H537 H 0.41904 0.20566 0.61257 0.0
H538 H 0.45111 0.21344 0.61862 0.0
C539 C 0.4325 0.22075 0.60627 0.0
H540 H 0.42865 0.2346 0.65878 0.0
H541 H 0.36638 0.18768 0.63334 0.0
O542 O 0.39722 0.26151 0.19684 0.0
C543 C 0.35648 0.20904 0.34917 0.0
C544 C 0.24343 0.09133 0.62271 0.0
C545 C 0.25853 0.11192 0.6362 0.0
H546 H 0.22127 0.07088 0.53023 0.0
C547 C 0.2633 0.12753 0.56357 0.0
H548 H 0.24032 0.07824 0.67584 0.0
C549 C 0.25282 0.12301 0.47983 0.0
C550 C 0.23731 0.10273 0.46668 0.0
H551 H 0.27491 0.14347 0.57168 0.0
H552 H 0.25684 0.13553 0.42533 0.0
C553 C 0.23268 0.08693 0.53894 0.0
C554 C 0.90967 0.24273 0.61095 0.0
C555 C 0.88866 0.25726 0.62391 0.0
H556 H 0.93097 0.22122 0.51891 0.0
C557 C 0.87314 0.26173 0.55078 0.0
H558 H 0.92269 0.23991 0.66452 0.0
C559 C 0.87818 0.25147 0.46702 0.0
C560 C 0.8989 0.23651 0.45438 0.0
H561 H 0.85688 0.27292 0.55851 0.0
H562 H 0.86571 0.25523 0.41211 0.0
C563 C 0.9146 0.2322 0.52717 0.0
C564 C 0.74739 0.87625 0.47275 0.0
C565 C 0.76285 0.89656 0.45963 0.0
H566 H 0.72531 0.85575 0.56455 0.0
C567 C 0.76741 0.91239 0.53189 0.0
H568 H 0.74344 0.8637 0.41824 0.0
C569 C 0.75662 0.90799 0.61561 0.0
C570 C 0.74157 0.88737 0.62909 0.0
H571 H 0.77878 0.92848 0.5232 0.0
H572 H 0.75966 0.92111 0.66871 0.0
C573 C 0.73688 0.87172 0.55646 0.0
C574 C 0.10393 0.73937 0.46991 0.0
C575 C 0.11878 0.75939 0.44573 0.0
H576 H 0.09426 0.71356 0.57291 0.0
C577 C 0.13429 0.76981 0.51044 0.0
H578 H 0.09211 0.73069 0.42088 0.0
C579 C 0.13525 0.76018 0.59733 0.0
C580 C 0.12111 0.73965 0.62033 0.0
H581 H 0.14613 0.78503 0.49322 0.0
H582 H 0.14775 0.76823 0.64553 0.0
C583 C 0.10536 0.72937 0.55627 0.0
C584 C 0.24046 0.86369 0.39703 0.0
C585 C 0.2607 0.87808 0.3727 0.0
H586 H 0.21578 0.85308 0.50196 0.0
C587 C 0.27071 0.89442 0.43532 0.0
H588 H 0.23262 0.85077 0.34988 0.0
C589 C 0.2607 0.89621 0.52163 0.0
C590 C 0.24094 0.88119 0.54706 0.0
H591 H 0.28628 0.90574 0.41754 0.0
H592 H 0.26916 0.9085 0.5696 0.0
C593 C 0.23081 0.86506 0.48375 0.0
C594 C 0.12337 0.25264 0.5179 0.0
C595 C 0.10288 0.23739 0.53076 0.0
H596 H 0.14424 0.27442 0.42627 0.0
C597 C 0.08714 0.2329 0.4582 0.0
H598 H 0.13586 0.25654 0.57262 0.0
C599 C 0.09181 0.24354 0.37443 0.0
C600 C 0.1126 0.25837 0.36124 0.0
H601 H 0.07093 0.22169 0.46666 0.0
H602 H 0.07876 0.24055 0.32106 0.0
C603 C 0.12815 0.263 0.43416 0.0
C604 C 0.76986 0.13401 0.47936 0.0
C605 C 0.75956 0.11812 0.54312 0.0
H606 H 0.76821 0.14799 0.34506 0.0
C607 C 0.73972 0.10316 0.51799 0.0
H608 H 0.78496 0.14592 0.49732 0.0
C609 C 0.72977 0.10482 0.43162 0.0
C610 C 0.73992 0.12096 0.36861 0.0
H611 H 0.73114 0.09104 0.56628 0.0
H612 H 0.71411 0.0936 0.41415 0.0
C613 C 0.76027 0.13523 0.39253 0.0
C614 C 0.86452 0.76852 0.47106 0.0
C615 C 0.88027 0.75842 0.53569 0.0
H616 H 0.85106 0.76663 0.33605 0.0
C617 C 0.89553 0.73872 0.51142 0.0
H618 H 0.85238 0.7835 0.48834 0.0
C619 C 0.89429 0.72869 0.42503 0.0
C620 C 0.87829 0.73863 0.36112 0.0
H621 H 0.90755 0.73029 0.56037 0.0
H622 H 0.9057 0.71311 0.40828 0.0
C623 C 0.86373 0.75886 0.3842 0.0
C624 C 0.76221 0.62678 0.04902 0.0
C625 C 0.75765 0.61136 0.12238 0.0
H626 H 0.75581 0.63407 0.91021 0.0
C627 C 0.74307 0.59037 0.10966 0.0
H628 H 0.77345 0.64301 0.05657 0.0
C629 C 0.73258 0.58538 0.02591 0.0
C630 C 0.73697 0.60099 0.9529 0.0
H631 H 0.74018 0.57743 0.16343 0.0
H632 H 0.72155 0.56904 0.01786 0.0
C633 C 0.75199 0.62167 0.96529 0.0
C634 C 0.37195 0.76306 0.05952 0.0
C635 C 0.38762 0.75847 0.13216 0.0
H636 H 0.364 0.75644 0.9213 0.0
C637 C 0.40834 0.74356 0.11869 0.0
H638 H 0.35591 0.77453 0.06762 0.0
C639 C 0.41283 0.73279 0.03496 0.0
C640 C 0.39699 0.73724 0.96269 0.0
H641 H 0.42147 0.7406 0.17179 0.0
H642 H 0.42899 0.72152 0.02629 0.0
C643 C 0.37656 0.75257 0.97581 0.0
C644 C 0.25749 0.40961 0.11719 0.0
C645 C 0.24267 0.38882 0.13036 0.0
H646 H 0.27935 0.43048 0.02498 0.0
C647 C 0.23803 0.37326 0.05742 0.0
H648 H 0.26048 0.42265 0.17059 0.0
C649 C 0.2484 0.37805 0.97367 0.0
C650 C 0.26366 0.39853 0.96084 0.0
H651 H 0.22662 0.35717 0.0653 0.0
H652 H 0.24451 0.36555 0.91893 0.0
C653 C 0.26814 0.41427 0.03342 0.0
C654 C 0.62821 0.23716 0.06106 0.0
C655 C 0.61251 0.24188 0.13354 0.0
H656 H 0.63632 0.24366 0.92293 0.0
C657 C 0.59192 0.25696 0.11992 0.0
H658 H 0.64416 0.22557 0.06929 0.0
C659 C 0.58758 0.26773 0.03614 0.0
C660 C 0.60344 0.26312 0.96402 0.0
H661 H 0.57877 0.26003 0.17293 0.0
H662 H 0.57151 0.27911 0.02729 0.0
C663 C 0.62374 0.24765 0.97732 0.0
C664 C 0.75309 0.37683 0.01386 0.0
C665 C 0.73796 0.39742 0.02667 0.0
H666 H 0.77477 0.35581 0.92227 0.0
C667 C 0.73358 0.41316 0.95405 0.0
H668 H 0.75691 0.36434 0.06863 0.0
C669 C 0.7442 0.40841 0.87028 0.0
C670 C 0.75891 0.38752 0.85714 0.0
H671 H 0.72246 0.42944 0.96245 0.0
H672 H 0.7413 0.42146 0.81688 0.0
C673 C 0.76344 0.37196 0.93011 0.0
C674 C 0.60351 0.76055 0.01837 0.0
C675 C 0.61819 0.74047 0.04318 0.0
H676 H 0.59426 0.78636 0.91483 0.0
C677 C 0.63383 0.72994 0.97908 0.0
H678 H 0.5916 0.76931 0.06692 0.0
C679 C 0.63511 0.73953 0.89224 0.0
C680 C 0.62114 0.76012 0.86861 0.0
H681 H 0.64554 0.71466 0.99679 0.0
H682 H 0.64771 0.73142 0.84456 0.0
C683 C 0.60524 0.7705 0.932 0.0
C684 C 0.23865 0.60463 0.01763 0.0
C685 C 0.25838 0.61977 0.04247 0.0
H686 H 0.21305 0.59479 0.91406 0.0
C687 C 0.26852 0.63568 0.97844 0.0
H688 H 0.23019 0.59249 0.06613 0.0
C689 C 0.25888 0.63674 0.89162 0.0
C690 C 0.23863 0.62229 0.86797 0.0
H691 H 0.28352 0.64773 0.99616 0.0
H692 H 0.26669 0.64953 0.84395 0.0
C693 C 0.22864 0.60613 0.93128 0.0
C694 C 0.36609 0.26974 0.98351 0.0
C695 C 0.38182 0.25932 0.04749 0.0
H696 H 0.35222 0.26818 0.84902 0.0
C697 C 0.39665 0.23936 0.02255 0.0
H698 H 0.35428 0.28493 0.00132 0.0
C699 C 0.395 0.2294 0.93614 0.0
C700 C 0.37901 0.23967 0.87289 0.0
H701 H 0.40864 0.23068 0.07101 0.0
H702 H 0.40609 0.21364 0.91885 0.0
C703 C 0.36489 0.26015 0.89663 0.0
C704 C 0.32644 0.17466 0.15672 0.0
C705 C 0.30987 0.15946 0.20224 0.0
H706 H 0.35416 0.20214 0.16738 0.0
C707 C 0.31015 0.15927 0.29706 0.0
H708 H 0.32677 0.17522 0.08396 0.0
C709 C 0.32592 0.17462 0.34518 0.0
C710 C 0.34168 0.19066 0.29965 0.0
H711 H 0.29778 0.14758 0.33448 0.0
H712 H 0.32516 0.17448 0.41792 0.0
C713 C 0.34209 0.19014 0.20483 0.0
C714 C 0.80986 0.33994 0.19481 0.0
C715 C 0.80966 0.33966 0.28964 0.0
H716 H 0.82461 0.32469 0.07349 0.0
C717 C 0.82603 0.32415 0.3347 0.0
H718 H 0.79763 0.35185 0.15773 0.0
C719 C 0.84144 0.30853 0.28611 0.0
C720 C 0.84098 0.30815 0.19129 0.0
H721 H 0.82642 0.3235 0.40743 0.0
H722 H 0.85341 0.29636 0.32322 0.0
C723 C 0.82539 0.32444 0.14622 0.0
C724 C 0.67427 0.82503 0.33944 0.0
C725 C 0.65847 0.80894 0.29439 0.0
H726 H 0.70241 0.85204 0.32794 0.0
C727 C 0.658 0.80931 0.19955 0.0
H728 H 0.67508 0.82528 0.41217 0.0
C729 C 0.67363 0.82471 0.15096 0.0
C730 C 0.69023 0.83998 0.19601 0.0
H731 H 0.6459 0.79726 0.16244 0.0
H732 H 0.67325 0.82404 0.07822 0.0
C733 C 0.69001 0.84031 0.29085 0.0
C734 C 0.18946 0.65868 0.19864 0.0
C735 C 0.18976 0.65922 0.29348 0.0
H736 H 0.17466 0.67368 0.07708 0.0
C737 C 0.17347 0.67487 0.33829 0.0
H738 H 0.20165 0.64668 0.16171 0.0
C739 C 0.15806 0.69042 0.28945 0.0
C740 C 0.15844 0.69057 0.1946 0.0
H741 H 0.17318 0.67573 0.41101 0.0
H742 H 0.1462 0.70275 0.32639 0.0
C743 C 0.17392 0.67411 0.14981 0.0
C744 C 0.32487 0.82628 0.65459 0.0
C745 C 0.34 0.80955 0.69959 0.0
H746 H 0.29749 0.85406 0.66606 0.0
C747 C 0.3401 0.80957 0.79445 0.0
H748 H 0.32437 0.82681 0.58185 0.0
C749 C 0.32476 0.82525 0.84307 0.0
C750 C 0.30882 0.8412 0.79802 0.0
H751 H 0.35172 0.79707 0.83153 0.0
H752 H 0.32484 0.8243 0.91578 0.0
C753 C 0.30941 0.84185 0.7032 0.0
C754 C 0.17569 0.32586 0.83988 0.0
C755 C 0.16029 0.30945 0.7945 0.0
H756 H 0.20338 0.35335 0.82897 0.0
C757 C 0.16004 0.30973 0.69967 0.0
H758 H 0.1763 0.32619 0.91263 0.0
C759 C 0.1755 0.32537 0.65141 0.0
C760 C 0.19171 0.34098 0.69681 0.0
H761 H 0.14821 0.29748 0.66235 0.0
H762 H 0.1753 0.32464 0.57867 0.0
C763 C 0.19128 0.34137 0.79163 0.0
C764 C 0.67538 0.17436 0.84166 0.0
C765 C 0.69127 0.15849 0.79586 0.0
H766 H 0.64849 0.20265 0.83141 0.0
C767 C 0.69065 0.15807 0.70105 0.0
H768 H 0.67534 0.17513 0.91439 0.0
C769 C 0.6752 0.1738 0.65319 0.0
C770 C 0.66013 0.19046 0.69896 0.0
H771 H 0.70253 0.14593 0.6634 0.0
H772 H 0.67566 0.17344 0.58043 0.0
C773 C 0.66006 0.19021 0.79379 0.0
C774 C 0.80935 0.65811 0.78442 0.0
C775 C 0.80887 0.65861 0.68961 0.0
H776 H 0.82448 0.67305 0.90556 0.0
C777 C 0.8252 0.67412 0.64435 0.0
H778 H 0.79716 0.64619 0.82166 0.0
C779 C 0.84082 0.68958 0.69274 0.0
C780 C 0.84061 0.68977 0.78759 0.0
H781 H 0.82538 0.67493 0.57162 0.0
H782 H 0.85271 0.7018 0.65549 0.0
C783 C 0.82508 0.67344 0.83282 0.0
C784 C 0.28122 0.01204 0.02527 0.0
C785 C 0.25917 0.02509 0.03164 0.0
H786 H 0.29832 0.97756 0.99624 0.0
C787 C 0.23695 0.01304 0.01461 0.0
H788 H 0.29854 0.02098 0.03885 0.0
C789 C 0.23681 0.98826 0.99089 0.0
C790 C 0.25889 0.97523 0.98426 0.0
H791 H 0.21976 0.02288 0.01874 0.0
H792 H 0.21949 0.9792 0.97847 0.0
C793 C 0.28109 0.9873 0.00133 0.0
C794 C 0.01318 0.2377 0.98012 0.0
C795 C 0.02558 0.25994 0.9676 0.0
H796 H 0.97908 0.22023 0.01271 0.0
C797 C 0.01288 0.28205 0.9791 0.0
H798 H 0.02271 0.22043 0.97207 0.0
C799 C 0.98822 0.28194 0.00416 0.0
C800 C 0.97576 0.25972 0.01619 0.0
H801 H 0.02202 0.29943 0.96864 0.0
H802 H 0.9789 0.29923 0.01428 0.0
C803 C 0.98842 0.23758 0.00419 0.0
C804 C 0.71873 0.98726 0.01844 0.0
C805 C 0.7408 0.97424 0.02517 0.0
H806 H 0.70162 0.02172 0.9894 0.0
C807 C 0.76303 0.98635 0.00892 0.0
H808 H 0.70141 0.97828 0.03151 0.0
C809 C 0.76316 0.01116 0.98563 0.0
C810 C 0.74107 0.02415 0.9786 0.0
H811 H 0.78024 0.97655 0.01336 0.0
H812 H 0.7805 0.02027 0.97385 0.0
C813 C 0.71886 0.01202 0.99485 0.0
C814 C 0.98707 0.76333 0.97958 0.0
C815 C 0.97461 0.74109 0.96789 0.0
H816 H 0.02132 0.78077 0.01037 0.0
C817 C 0.98734 0.71895 0.97835 0.0
H818 H 0.97748 0.78059 0.97225 0.0
C819 C 0.0122 0.71905 0.00055 0.0
C820 C 0.02466 0.74129 0.01234 0.0
H821 H 0.97802 0.70161 0.96935 0.0
H822 H 0.02172 0.70178 0.00854 0.0
C823 C 0.01194 0.76343 0.00197 0.0
C824 C 0.73812 0.48684 0.47741 0.0
C825 C 0.76041 0.47452 0.4646 0.0
H826 H 0.72054 0.52085 0.5105 0.0
C827 C 0.78248 0.48728 0.47629 0.0
H828 H 0.72088 0.47726 0.46927 0.0
C829 C 0.78229 0.51191 0.50172 0.0
C830 C 0.76002 0.52429 0.51391 0.0
H831 H 0.79988 0.47822 0.46562 0.0
H832 H 0.79955 0.52128 0.51191 0.0
C833 C 0.73793 0.51157 0.50183 0.0
C834 C 0.48667 0.73721 0.51126 0.0
C835 C 0.47455 0.75945 0.52731 0.0
H836 H 0.52057 0.71971 0.47602 0.0
C837 C 0.48755 0.78151 0.52 0.0
H838 H 0.47688 0.72001 0.51614 0.0
C839 C 0.5123 0.78136 0.49604 0.0
C840 C 0.52444 0.75914 0.48 0.0
H841 H 0.47858 0.79885 0.53294 0.0
H842 H 0.52198 0.79861 0.49013 0.0
C843 C 0.51146 0.73706 0.48761 0.0
C844 C 0.26314 0.48809 0.50921 0.0
C845 C 0.24103 0.4757 0.52485 0.0
H846 H 0.28025 0.52222 0.4745 0.0
C847 C 0.21882 0.48842 0.51731 0.0
H848 H 0.28046 0.47852 0.5143 0.0
C849 C 0.21868 0.51317 0.49351 0.0
C850 C 0.24077 0.52559 0.47791 0.0
H851 H 0.20158 0.47923 0.52996 0.0
H852 H 0.20132 0.52264 0.4874 0.0
C853 C 0.26301 0.51289 0.48575 0.0
C854 C 0.51266 0.2188 0.52312 0.0
C855 C 0.52559 0.2409 0.53024 0.0
H856 H 0.47827 0.20159 0.49359 0.0
C857 C 0.5134 0.2631 0.51436 0.0
H858 H 0.5217 0.20149 0.53592 0.0
C859 C 0.48859 0.26317 0.49098 0.0
C860 C 0.47569 0.24104 0.48348 0.0
H861 H 0.52314 0.28034 0.51909 0.0
H862 H 0.47942 0.28048 0.47947 0.0
C863 C 0.4879 0.21886 0.49941 0.0
C864 C 0.19329 0.16652 0.93443 0.0
C865 C 0.1977 0.16257 0.02649 0.0
H866 H 0.1732 0.18667 0.83515 0.0
C867 C 0.18377 0.17549 0.09001 0.0
H868 H 0.20367 0.15667 0.88394 0.0
C869 C 0.16668 0.19296 0.062 0.0
C870 C 0.16278 0.19742 0.96996 0.0
H871 H 0.1868 0.17286 0.16129 0.0
H872 H 0.15677 0.20328 0.11251 0.0
C873 C 0.17579 0.18358 0.90642 0.0
C874 C 0.82635 0.18239 0.08372 0.0
C875 C 0.83893 0.19587 0.01817 0.0
H876 H 0.79859 0.15588 0.11062 0.0
C877 C 0.83446 0.19089 0.9268 0.0
H878 H 0.82934 0.1859 0.15454 0.0
C879 C 0.8172 0.17321 0.90157 0.0
C880 C 0.80369 0.16066 0.9673 0.0
H881 H 0.84401 0.20097 0.87477 0.0
H882 H 0.81368 0.17017 0.8308 0.0
C883 C 0.8087 0.16522 0.0585 0.0
C884 C 0.8251 0.81597 0.90066 0.0
C885 C 0.83731 0.8016 0.96481 0.0
H886 H 0.79775 0.8434 0.87683 0.0
C887 C 0.8324 0.80558 0.0565 0.0
H888 H 0.82838 0.81325 0.82956 0.0
C889 C 0.81537 0.82316 0.08365 0.0
C890 C 0.80232 0.83667 0.01951 0.0
H891 H 0.84139 0.79476 0.10751 0.0
H892 H 0.81163 0.82539 0.15469 0.0
C893 C 0.80752 0.83313 0.92775 0.0
C894 C 0.1692 0.80528 0.92784 0.0
C895 C 0.16163 0.80275 0.01789 0.0
H896 H 0.19208 0.82435 0.83385 0.0
C897 C 0.17097 0.81902 0.08238 0.0
H898 H 0.16254 0.79297 0.8765 0.0
C899 C 0.18836 0.83662 0.05801 0.0
C900 C 0.19632 0.8387 0.9685 0.0
H901 H 0.16558 0.81757 0.15224 0.0
H902 H 0.19581 0.84839 0.10946 0.0
C903 C 0.1861 0.8233 0.90319 0.0
C904 C 0.67317 0.68269 0.40178 0.0
C905 C 0.66118 0.69672 0.46752 0.0
H906 H 0.70047 0.65543 0.37467 0.0
C907 C 0.66635 0.69225 0.55867 0.0
H908 H 0.66967 0.68579 0.33105 0.0
C909 C 0.68349 0.67455 0.58373 0.0
C910 C 0.69636 0.66141 0.518 0.0
H911 H 0.65751 0.70279 0.61085 0.0
H912 H 0.68746 0.67196 0.65442 0.0
C913 C 0.69084 0.66541 0.42678 0.0
C914 C 0.33312 0.69265 0.43122 0.0
C915 C 0.33713 0.69757 0.52295 0.0
H916 H 0.31279 0.67204 0.33358 0.0
C917 C 0.32406 0.68419 0.58745 0.0
H918 H 0.34305 0.70267 0.37999 0.0
C919 C 0.30644 0.66715 0.56083 0.0
C920 C 0.30196 0.66258 0.46926 0.0
H921 H 0.32666 0.68767 0.6585 0.0
H922 H 0.29597 0.6579 0.61218 0.0
C923 C 0.31591 0.67508 0.40461 0.0
C924 C 0.32679 0.31703 0.40691 0.0
C925 C 0.33888 0.303 0.47235 0.0
H926 H 0.29948 0.34433 0.38054 0.0
C927 C 0.33389 0.3075 0.56361 0.0
H928 H 0.33016 0.3139 0.33608 0.0
C929 C 0.31682 0.32523 0.58913 0.0
C930 C 0.30385 0.33838 0.52376 0.0
H931 H 0.34281 0.29697 0.61556 0.0
H932 H 0.31299 0.32783 0.65993 0.0
C933 C 0.30918 0.33435 0.43238 0.0
C934 C 0.69335 0.33374 0.55832 0.0
C935 C 0.69779 0.33759 0.46622 0.0
H936 H 0.6733 0.31364 0.65786 0.0
C937 C 0.68393 0.32456 0.40285 0.0
H938 H 0.70369 0.34366 0.6087 0.0
C939 C 0.66688 0.30706 0.43108 0.0
C940 C 0.66298 0.30269 0.5232 0.0
H941 H 0.687 0.32712 0.33154 0.0
H942 H 0.65703 0.29666 0.38071 0.0
C943 C 0.6759 0.31665 0.58654 0.0
loop_
_geom_bond_atom_site_label_1
_geom_bond_atom_site_label_2
_geom_bond_distance
_geom_bond_site_symmetry_2
_ccdc_geom_bond_type
Co0 O3 1.970 . S
Co0 N17 1.989 . S
Co0 O25 1.967 . S
Co0 O32 1.920 . S
Co1 O4 1.966 . S
Co1 N10 2.022 . S
Co1 N18 1.993 1_556 S
Co1 O26 1.941 1_556 S
C2 O3 1.258 . S
C2 O4 1.263 1_554 S
O3 Co0 1.970 . S
O3 C2 1.258 . S
O4 Co1 1.966 . S
O4 C2 1.263 1_556 S
C5 O6 1.235 . S
C5 O32 1.289 . S
O6 C5 1.235 . S
C7 C9 1.400 . S
C7 N10 1.351 . S
C7 C12 1.501 . S
C8 C9 1.387 . S
C8 N11 1.341 . S
C9 C7 1.400 . S
C9 C8 1.387 . S
N10 Co1 2.022 . S
N10 C7 1.351 . S
N10 N11 1.365 . S
N11 C8 1.341 . S
N11 N10 1.365 . S
N11 H31 0.862 . S
C12 C7 1.501 . S
C12 H13 0.961 . S
C12 H14 0.961 . S
C12 H15 0.960 . S
H13 C12 0.961 . S
H14 C12 0.961 . S
H15 C12 0.960 . S
C16 N17 1.342 . S
C16 C20 1.401 . S
C16 C21 1.499 . S
N17 Co0 1.989 . S
N17 C16 1.342 . S
N17 N18 1.388 . S
N18 Co1 1.993 1_554 S
N18 N17 1.388 . S
N18 C19 1.346 1_554 S
C19 N18 1.346 1_556 S
C19 C20 1.396 1_556 S
C19 C29 1.510 . S
C20 C16 1.401 . S
C20 C19 1.396 1_554 S
C21 C16 1.499 . S
C21 H22 0.959 . S
C21 H23 0.960 . S
C21 H24 0.961 . S
H22 C21 0.959 . S
H23 C21 0.960 . S
H24 C21 0.961 . S
O25 Co0 1.967 . S
O25 C33 1.258 . S
O26 Co1 1.941 1_554 S
O26 C33 1.266 . S
H27 C29 0.959 . S
H28 C29 0.961 . S
C29 C19 1.510 . S
C29 H27 0.959 . S
C29 H28 0.961 . S
C29 H30 0.960 . S
H30 C29 0.960 . S
H31 N11 0.862 . S
O32 Co0 1.920 . S
O32 C5 1.289 . S
C33 O25 1.258 . S
C33 O26 1.266 . S
Co34 O37 1.970 . S
Co34 N51 1.989 . S
Co34 O59 1.967 . S
Co34 O66 1.920 . S
Co35 O38 1.966 . S
Co35 N44 2.022 . S
Co35 N52 1.993 1_556 S
Co35 O60 1.941 1_556 S
C36 O37 1.258 . S
C36 O38 1.263 1_554 S
O37 Co34 1.970 . S
O37 C36 1.258 . S
O38 Co35 1.966 . S
O38 C36 1.263 1_556 S
C39 O40 1.235 . S
C39 O66 1.289 . S
O40 C39 1.235 . S
C41 C43 1.400 . S
C41 N44 1.351 . S
C41 C46 1.501 . S
C42 C43 1.387 . S
C42 N45 1.341 . S
C43 C41 1.400 . S
C43 C42 1.387 . S
N44 Co35 2.022 . S
N44 C41 1.351 . S
N44 N45 1.365 . S
N45 C42 1.341 . S
N45 N44 1.365 . S
N45 H65 0.862 . S
C46 C41 1.501 . S
C46 H47 0.961 . S
C46 H48 0.961 . S
C46 H49 0.960 . S
H47 C46 0.961 . S
H48 C46 0.961 . S
H49 C46 0.960 . S
C50 N51 1.342 . S
C50 C54 1.401 . S
C50 C55 1.499 . S
N51 Co34 1.989 . S
N51 C50 1.342 . S
N51 N52 1.388 . S
N52 Co35 1.993 1_554 S
N52 N51 1.388 . S
N52 C53 1.346 1_554 S
C53 N52 1.346 1_556 S
C53 C54 1.396 1_556 S
C53 C63 1.510 . S
C54 C50 1.401 . S
C54 C53 1.396 1_554 S
C55 C50 1.499 . S
C55 H56 0.959 . S
C55 H57 0.960 . S
C55 H58 0.961 . S
H56 C55 0.959 . S
H57 C55 0.960 . S
H58 C55 0.961 . S
O59 Co34 1.967 . S
O59 C67 1.258 . S
O60 Co35 1.941 1_554 S
O60 C67 1.266 . S
H61 C63 0.959 . S
H62 C63 0.961 . S
C63 C53 1.510 . S
C63 H61 0.959 . S
C63 H62 0.961 . S
C63 H64 0.960 . S
H64 C63 0.960 . S
H65 N45 0.862 . S
O66 Co34 1.920 . S
O66 C39 1.289 . S
C67 O59 1.258 . S
C67 O60 1.266 . S
Co68 O71 1.970 . S
Co68 N85 1.989 . S
Co68 O93 1.967 . S
Co68 O100 1.920 . S
Co69 O72 1.966 . S
Co69 N78 2.022 . S
Co69 N86 1.993 1_556 S
Co69 O94 1.941 1_556 S
C70 O71 1.258 . S
C70 O72 1.263 1_554 S
O71 Co68 1.970 . S
O71 C70 1.258 . S
O72 Co69 1.966 . S
O72 C70 1.263 1_556 S
C73 O74 1.235 . S
C73 O100 1.289 . S
O74 C73 1.235 . S
C75 C77 1.400 . S
C75 N78 1.351 . S
C75 C80 1.501 . S
C76 C77 1.387 . S
C76 N79 1.341 . S
C77 C75 1.400 . S
C77 C76 1.387 . S
N78 Co69 2.022 . S
N78 C75 1.351 . S
N78 N79 1.365 . S
N79 C76 1.341 . S
N79 N78 1.365 . S
N79 H99 0.862 . S
C80 C75 1.501 . S
C80 H81 0.961 . S
C80 H82 0.961 . S
C80 H83 0.960 . S
H81 C80 0.961 . S
H82 C80 0.961 . S
H83 C80 0.960 . S
C84 N85 1.342 . S
C84 C88 1.401 . S
C84 C89 1.499 . S
N85 Co68 1.989 . S
N85 C84 1.342 . S
N85 N86 1.388 . S
N86 Co69 1.993 1_554 S
N86 N85 1.388 . S
N86 C87 1.346 1_554 S
C87 N86 1.346 1_556 S
C87 C88 1.396 1_556 S
C87 C97 1.510 . S
C88 C84 1.401 . S
C88 C87 1.396 1_554 S
C89 C84 1.499 . S
C89 H90 0.959 . S
C89 H91 0.960 . S
C89 H92 0.961 . S
H90 C89 0.959 . S
H91 C89 0.960 . S
H92 C89 0.961 . S
O93 Co68 1.967 . S
O93 C101 1.258 . S
O94 Co69 1.941 1_554 S
O94 C101 1.266 . S
H95 C97 0.959 . S
H96 C97 0.961 . S
C97 C87 1.510 . S
C97 H95 0.959 . S
C97 H96 0.961 . S
C97 H98 0.960 . S
H98 C97 0.960 . S
H99 N79 0.862 . S
O100 Co68 1.920 . S
O100 C73 1.289 . S
C101 O93 1.258 . S
C101 O94 1.266 . S
Co102 O105 1.970 . S
Co102 N119 1.989 . S
Co102 O127 1.967 . S
Co102 O134 1.920 . S
Co103 O106 1.966 . S
Co103 N112 2.022 . S
Co103 N120 1.993 1_556 S
Co103 O128 1.941 1_556 S
C104 O105 1.258 . S
C104 O106 1.263 1_554 S
O105 Co102 1.970 . S
O105 C104 1.258 . S
O106 Co103 1.966 . S
O106 C104 1.263 1_556 S
C107 O108 1.235 . S
C107 O134 1.289 . S
O108 C107 1.235 . S
C109 C111 1.400 . S
C109 N112 1.351 . S
C109 C114 1.501 . S
C110 C111 1.387 . S
C110 N113 1.341 . S
C111 C109 1.400 . S
C111 C110 1.387 . S
N112 Co103 2.022 . S
N112 C109 1.351 . S
N112 N113 1.365 . S
N113 C110 1.341 . S
N113 N112 1.365 . S
N113 H133 0.862 . S
C114 C109 1.501 . S
C114 H115 0.961 . S
C114 H116 0.961 . S
C114 H117 0.960 . S
H115 C114 0.961 . S
H116 C114 0.961 . S
H117 C114 0.960 . S
C118 N119 1.342 . S
C118 C122 1.401 . S
C118 C123 1.499 . S
N119 Co102 1.989 . S
N119 C118 1.342 . S
N119 N120 1.388 . S
N120 Co103 1.993 1_554 S
N120 N119 1.388 . S
N120 C121 1.346 1_554 S
C121 N120 1.346 1_556 S
C121 C122 1.396 1_556 S
C121 C131 1.510 . S
C122 C118 1.401 . S
C122 C121 1.396 1_554 S
C123 C118 1.499 . S
C123 H124 0.959 . S
C123 H125 0.960 . S
C123 H126 0.961 . S
H124 C123 0.959 . S
H125 C123 0.960 . S
H126 C123 0.961 . S
O127 Co102 1.967 . S
O127 C135 1.258 . S
O128 Co103 1.941 1_554 S
O128 C135 1.266 . S
H129 C131 0.959 . S
H130 C131 0.961 . S
C131 C121 1.510 . S
C131 H129 0.959 . S
C131 H130 0.961 . S
C131 H132 0.960 . S
H132 C131 0.960 . S
H133 N113 0.862 . S
O134 Co102 1.920 . S
O134 C107 1.289 . S
C135 O127 1.258 . S
C135 O128 1.266 . S
Co136 O139 1.970 . S
Co136 N153 1.989 . S
Co136 O161 1.967 . S
Co136 O168 1.920 . S
Co137 O140 1.966 . S
Co137 N146 2.022 . S
Co137 N154 1.993 1_554 S
Co137 O162 1.941 1_554 S
C138 O139 1.258 . S
C138 O140 1.263 1_556 S
O139 Co136 1.970 . S
O139 C138 1.258 . S
O140 Co137 1.966 . S
O140 C138 1.263 1_554 S
C141 O142 1.235 . S
C141 O168 1.289 . S
O142 C141 1.235 . S
C143 C145 1.400 . S
C143 N146 1.351 . S
C143 C148 1.501 . S
C144 C145 1.387 . S
C144 N147 1.341 . S
C145 C143 1.400 . S
C145 C144 1.387 . S
N146 Co137 2.022 . S
N146 C143 1.351 . S
N146 N147 1.365 . S
N147 C144 1.341 . S
N147 N146 1.365 . S
N147 H167 0.862 . S
C148 C143 1.501 . S
C148 H149 0.961 . S
C148 H150 0.961 . S
C148 H151 0.960 . S
H149 C148 0.961 . S
H150 C148 0.961 . S
H151 C148 0.960 . S
C152 N153 1.342 . S
C152 C156 1.401 . S
C152 C157 1.499 . S
N153 Co136 1.989 . S
N153 C152 1.342 . S
N153 N154 1.388 . S
N154 Co137 1.993 1_556 S
N154 N153 1.388 . S
N154 C155 1.346 1_556 S
C155 N154 1.346 1_554 S
C155 C156 1.396 1_554 S
C155 C165 1.510 . S
C156 C152 1.401 . S
C156 C155 1.396 1_556 S
C157 C152 1.499 . S
C157 H158 0.959 . S
C157 H159 0.960 . S
C157 H160 0.961 . S
H158 C157 0.959 . S
H159 C157 0.960 . S
H160 C157 0.961 . S
O161 Co136 1.967 . S
O161 C169 1.258 . S
O162 Co137 1.941 1_556 S
O162 C169 1.266 . S
H163 C165 0.959 . S
H164 C165 0.961 . S
C165 C155 1.510 . S
C165 H163 0.959 . S
C165 H164 0.961 . S
C165 H166 0.960 . S
H166 C165 0.960 . S
H167 N147 0.862 . S
O168 Co136 1.920 . S
O168 C141 1.289 . S
C169 O161 1.258 . S
C169 O162 1.266 . S
Co170 O173 1.970 . S
Co170 N187 1.989 . S
Co170 O195 1.967 . S
Co170 O202 1.920 . S
Co171 O174 1.966 . S
Co171 N180 2.022 . S
Co171 N188 1.993 1_554 S
Co171 O196 1.941 1_554 S
C172 O173 1.258 . S
C172 O174 1.263 1_556 S
O173 Co170 1.970 . S
O173 C172 1.258 . S
O174 Co171 1.966 . S
O174 C172 1.263 1_554 S
C175 O176 1.235 . S
C175 O202 1.289 . S
O176 C175 1.235 . S
C177 C179 1.400 . S
C177 N180 1.351 . S
C177 C182 1.501 . S
C178 C179 1.387 . S
C178 N181 1.341 . S
C179 C177 1.400 . S
C179 C178 1.387 . S
N180 Co171 2.022 . S
N180 C177 1.351 . S
N180 N181 1.365 . S
N181 C178 1.341 . S
N181 N180 1.365 . S
N181 H201 0.862 . S
C182 C177 1.501 . S
C182 H183 0.961 . S
C182 H184 0.961 . S
C182 H185 0.960 . S
H183 C182 0.961 . S
H184 C182 0.961 . S
H185 C182 0.960 . S
C186 N187 1.342 . S
C186 C190 1.401 . S
C186 C191 1.499 . S
N187 Co170 1.989 . S
N187 C186 1.342 . S
N187 N188 1.388 . S
N188 Co171 1.993 1_556 S
N188 N187 1.388 . S
N188 C189 1.346 1_556 S
C189 N188 1.346 1_554 S
C189 C190 1.396 1_554 S
C189 C199 1.510 . S
C190 C186 1.401 . S
C190 C189 1.396 1_556 S
C191 C186 1.499 . S
C191 H192 0.959 . S
C191 H193 0.960 . S
C191 H194 0.961 . S
H192 C191 0.959 . S
H193 C191 0.960 . S
H194 C191 0.961 . S
O195 Co170 1.967 . S
O195 C203 1.258 . S
O196 Co171 1.941 1_556 S
O196 C203 1.266 . S
H197 C199 0.959 . S
H198 C199 0.961 . S
C199 C189 1.510 . S
C199 H197 0.959 . S
C199 H198 0.961 . S
C199 H200 0.960 . S
H200 C199 0.960 . S
H201 N181 0.862 . S
O202 Co170 1.920 . S
O202 C175 1.289 . S
C203 O195 1.258 . S
C203 O196 1.266 . S
Co204 O207 1.970 . S
Co204 N221 1.989 . S
Co204 O229 1.967 . S
Co204 O236 1.920 . S
Co205 O208 1.966 . S
Co205 N214 2.022 . S
Co205 N222 1.993 1_554 S
Co205 O230 1.941 1_554 S
C206 O207 1.258 . S
C206 O208 1.263 1_556 S
O207 Co204 1.970 . S
O207 C206 1.258 . S
O208 Co205 1.966 . S
O208 C206 1.263 1_554 S
C209 O210 1.235 . S
C209 O236 1.289 . S
O210 C209 1.235 . S
C211 C213 1.400 . S
C211 N214 1.351 . S
C211 C216 1.501 . S
C212 C213 1.387 . S
C212 N215 1.341 . S
C213 C211 1.400 . S
C213 C212 1.387 . S
N214 Co205 2.022 . S
N214 C211 1.351 . S
N214 N215 1.365 . S
N215 C212 1.341 . S
N215 N214 1.365 . S
N215 H235 0.862 . S
C216 C211 1.501 . S
C216 H217 0.961 . S
C216 H218 0.961 . S
C216 H219 0.960 . S
H217 C216 0.961 . S
H218 C216 0.961 . S
H219 C216 0.960 . S
C220 N221 1.342 . S
C220 C224 1.401 . S
C220 C225 1.499 . S
N221 Co204 1.989 . S
N221 C220 1.342 . S
N221 N222 1.388 . S
N222 Co205 1.993 1_556 S
N222 N221 1.388 . S
N222 C223 1.346 1_556 S
C223 N222 1.346 1_554 S
C223 C224 1.396 1_554 S
C223 C233 1.510 . S
C224 C220 1.401 . S
C224 C223 1.396 1_556 S
C225 C220 1.499 . S
C225 H226 0.959 . S
C225 H227 0.960 . S
C225 H228 0.961 . S
H226 C225 0.959 . S
H227 C225 0.960 . S
H228 C225 0.961 . S
O229 Co204 1.967 . S
O229 C237 1.258 . S
O230 Co205 1.941 1_556 S
O230 C237 1.266 . S
H231 C233 0.959 . S
H232 C233 0.961 . S
C233 C223 1.510 . S
C233 H231 0.959 . S
C233 H232 0.961 . S
C233 H234 0.960 . S
H234 C233 0.960 . S
H235 N215 0.862 . S
O236 Co204 1.920 . S
O236 C209 1.289 . S
C237 O229 1.258 . S
C237 O230 1.266 . S
Co238 O241 1.970 . S
Co238 N255 1.989 . S
Co238 O263 1.967 . S
Co238 O270 1.920 . S
Co239 O242 1.966 . S
Co239 N248 2.022 . S
Co239 N256 1.993 1_554 S
Co239 O264 1.941 1_554 S
C240 O241 1.258 . S
C240 O242 1.263 1_556 S
O241 Co238 1.970 . S
O241 C240 1.258 . S
O242 Co239 1.966 . S
O242 C240 1.263 1_554 S
C243 O244 1.235 . S
C243 O270 1.289 . S
O244 C243 1.235 . S
C245 C247 1.400 . S
C245 N248 1.351 . S
C245 C250 1.501 . S
C246 C247 1.387 . S
C246 N249 1.341 . S
C247 C245 1.400 . S
C247 C246 1.387 . S
N248 Co239 2.022 . S
N248 C245 1.351 . S
N248 N249 1.365 . S
N249 C246 1.341 . S
N249 N248 1.365 . S
N249 H269 0.862 . S
C250 C245 1.501 . S
C250 H251 0.961 . S
C250 H252 0.961 . S
C250 H253 0.960 . S
H251 C250 0.961 . S
H252 C250 0.961 . S
H253 C250 0.960 . S
C254 N255 1.342 . S
C254 C258 1.401 . S
C254 C259 1.499 . S
N255 Co238 1.989 . S
N255 C254 1.342 . S
N255 N256 1.388 . S
N256 Co239 1.993 1_556 S
N256 N255 1.388 . S
N256 C257 1.346 1_556 S
C257 N256 1.346 1_554 S
C257 C258 1.396 1_554 S
C257 C267 1.510 . S
C258 C254 1.401 . S
C258 C257 1.396 1_556 S
C259 C254 1.499 . S
C259 H260 0.959 . S
C259 H261 0.960 . S
C259 H262 0.961 . S
H260 C259 0.959 . S
H261 C259 0.960 . S
H262 C259 0.961 . S
O263 Co238 1.967 . S
O263 C271 1.258 . S
O264 Co239 1.941 1_556 S
O264 C271 1.266 . S
H265 C267 0.959 . S
H266 C267 0.961 . S
C267 C257 1.510 . S
C267 H265 0.959 . S
C267 H266 0.961 . S
C267 H268 0.960 . S
H268 C267 0.960 . S
H269 N249 0.862 . S
O270 Co238 1.920 . S
O270 C243 1.289 . S
C271 O263 1.258 . S
C271 O264 1.266 . S
Co272 O275 1.970 . S
Co272 N289 1.989 . S
Co272 O297 1.967 . S
Co272 O304 1.920 . S
Co273 O276 1.966 . S
Co273 N282 2.022 . S
Co273 N290 1.993 . S
Co273 O298 1.941 . S
C274 O275 1.258 . S
C274 O276 1.263 . S
O275 Co272 1.970 . S
O275 C274 1.258 . S
O276 Co273 1.966 . S
O276 C274 1.263 . S
C277 O278 1.235 . S
C277 O304 1.289 . S
O278 C277 1.235 . S
C279 C281 1.400 . S
C279 N282 1.351 . S
C279 C284 1.501 . S
C280 C281 1.387 . S
C280 N283 1.341 . S
C281 C279 1.400 . S
C281 C280 1.387 . S
N282 Co273 2.022 . S
N282 C279 1.351 . S
N282 N283 1.365 . S
N283 C280 1.341 . S
N283 N282 1.365 . S
N283 H303 0.862 . S
C284 C279 1.501 . S
C284 H285 0.961 . S
C284 H286 0.961 . S
C284 H287 0.960 . S
H285 C284 0.961 . S
H286 C284 0.961 . S
H287 C284 0.960 . S
C288 N289 1.342 . S
C288 C292 1.401 . S
C288 C293 1.499 . S
N289 Co272 1.989 . S
N289 C288 1.342 . S
N289 N290 1.388 . S
N290 Co273 1.993 . S
N290 N289 1.388 . S
N290 C291 1.346 . S
C291 N290 1.346 . S
C291 C292 1.396 . S
C291 C301 1.510 . S
C292 C288 1.401 . S
C292 C291 1.396 . S
C293 C288 1.499 . S
C293 H294 0.959 . S
C293 H295 0.960 . S
C293 H296 0.961 . S
H294 C293 0.959 . S
H295 C293 0.960 . S
H296 C293 0.961 . S
O297 Co272 1.967 . S
O297 C305 1.258 . S
O298 Co273 1.941 . S
O298 C305 1.266 . S
H299 C301 0.959 . S
H300 C301 0.961 . S
C301 C291 1.510 . S
C301 H299 0.959 . S
C301 H300 0.961 . S
C301 H302 0.960 . S
H302 C301 0.960 . S
H303 N283 0.862 . S
O304 Co272 1.920 . S
O304 C277 1.289 . S
C305 O297 1.258 . S
C305 O298 1.266 . S
Co306 O309 1.970 . S
Co306 N323 1.989 . S
Co306 O331 1.967 . S
Co306 O338 1.920 . S
Co307 O310 1.966 . S
Co307 N316 2.022 . S
Co307 N324 1.993 . S
Co307 O332 1.941 . S
C308 O309 1.258 . S
C308 O310 1.263 . S
O309 Co306 1.970 . S
O309 C308 1.258 . S
O310 Co307 1.966 . S
O310 C308 1.263 . S
C311 O312 1.235 . S
C311 O338 1.289 . S
O312 C311 1.235 . S
C313 C315 1.400 . S
C313 N316 1.351 . S
C313 C318 1.501 . S
C314 C315 1.387 . S
C314 N317 1.341 . S
C315 C313 1.400 . S
C315 C314 1.387 . S
N316 Co307 2.022 . S
N316 C313 1.351 . S
N316 N317 1.365 . S
N317 C314 1.341 . S
N317 N316 1.365 . S
N317 H337 0.862 . S
C318 C313 1.501 . S
C318 H319 0.961 . S
C318 H320 0.961 . S
C318 H321 0.960 . S
H319 C318 0.961 . S
H320 C318 0.961 . S
H321 C318 0.960 . S
C322 N323 1.342 . S
C322 C326 1.401 . S
C322 C327 1.499 . S
N323 Co306 1.989 . S
N323 C322 1.342 . S
N323 N324 1.388 . S
N324 Co307 1.993 . S
N324 N323 1.388 . S
N324 C325 1.346 . S
C325 N324 1.346 . S
C325 C326 1.396 . S
C325 C335 1.510 . S
C326 C322 1.401 . S
C326 C325 1.396 . S
C327 C322 1.499 . S
C327 H328 0.959 . S
C327 H329 0.960 . S
C327 H330 0.961 . S
H328 C327 0.959 . S
H329 C327 0.960 . S
H330 C327 0.961 . S
O331 Co306 1.967 . S
O331 C339 1.258 . S
O332 Co307 1.941 . S
O332 C339 1.266 . S
H333 C335 0.959 . S
H334 C335 0.961 . S
C335 C325 1.510 . S
C335 H333 0.959 . S
C335 H334 0.961 . S
C335 H336 0.960 . S
H336 C335 0.960 . S
H337 N317 0.862 . S
O338 Co306 1.920 . S
O338 C311 1.289 . S
C339 O331 1.258 . S
C339 O332 1.266 . S
Co340 O343 1.970 . S
Co340 N357 1.989 . S
Co340 O365 1.967 . S
Co340 O372 1.920 . S
Co341 O344 1.966 . S
Co341 N350 2.022 . S
Co341 N358 1.993 . S
Co341 O366 1.941 . S
C342 O343 1.258 . S
C342 O344 1.263 . S
O343 Co340 1.970 . S
O343 C342 1.258 . S
O344 Co341 1.966 . S
O344 C342 1.263 . S
C345 O346 1.235 . S
C345 O372 1.289 . S
O346 C345 1.235 . S
C347 C349 1.400 . S
C347 N350 1.351 . S
C347 C352 1.501 . S
C348 C349 1.387 . S
C348 N351 1.341 . S
C349 C347 1.400 . S
C349 C348 1.387 . S
N350 Co341 2.022 . S
N350 C347 1.351 . S
N350 N351 1.365 . S
N351 C348 1.341 . S
N351 N350 1.365 . S
N351 H371 0.862 . S
C352 C347 1.501 . S
C352 H353 0.961 . S
C352 H354 0.961 . S
C352 H355 0.960 . S
H353 C352 0.961 . S
H354 C352 0.961 . S
H355 C352 0.960 . S
C356 N357 1.342 . S
C356 C360 1.401 . S
C356 C361 1.499 . S
N357 Co340 1.989 . S
N357 C356 1.342 . S
N357 N358 1.388 . S
N358 Co341 1.993 . S
N358 N357 1.388 . S
N358 C359 1.346 . S
C359 N358 1.346 . S
C359 C360 1.396 . S
C359 C369 1.510 . S
C360 C356 1.401 . S
C360 C359 1.396 . S
C361 C356 1.499 . S
C361 H362 0.959 . S
C361 H363 0.960 . S
C361 H364 0.961 . S
H362 C361 0.959 . S
H363 C361 0.960 . S
H364 C361 0.961 . S
O365 Co340 1.967 . S
O365 C373 1.258 . S
O366 Co341 1.941 . S
O366 C373 1.266 . S
H367 C369 0.959 . S
H368 C369 0.961 . S
C369 C359 1.510 . S
C369 H367 0.959 . S
C369 H368 0.961 . S
C369 H370 0.960 . S
H370 C369 0.960 . S
H371 N351 0.862 . S
O372 Co340 1.920 . S
O372 C345 1.289 . S
C373 O365 1.258 . S
C373 O366 1.266 . S
Co374 O377 1.970 . S
Co374 N391 1.989 . S
Co374 O399 1.967 . S
Co374 O406 1.920 . S
Co375 O378 1.966 . S
Co375 N384 2.022 . S
Co375 N392 1.993 . S
Co375 O400 1.941 . S
C376 O377 1.258 . S
C376 O378 1.263 . S
O377 Co374 1.970 . S
O377 C376 1.258 . S
O378 Co375 1.966 . S
O378 C376 1.263 . S
C379 O380 1.235 . S
C379 O406 1.289 . S
O380 C379 1.235 . S
C381 C383 1.400 . S
C381 N384 1.351 . S
C381 C386 1.501 . S
C382 C383 1.387 . S
C382 N385 1.341 . S
C383 C381 1.400 . S
C383 C382 1.387 . S
N384 Co375 2.022 . S
N384 C381 1.351 . S
N384 N385 1.365 . S
N385 C382 1.341 . S
N385 N384 1.365 . S
N385 H405 0.862 . S
C386 C381 1.501 . S
C386 H387 0.961 . S
C386 H388 0.961 . S
C386 H389 0.960 . S
H387 C386 0.961 . S
H388 C386 0.961 . S
H389 C386 0.960 . S
C390 N391 1.342 . S
C390 C394 1.401 . S
C390 C395 1.499 . S
N391 Co374 1.989 . S
N391 C390 1.342 . S
N391 N392 1.388 . S
N392 Co375 1.993 . S
N392 N391 1.388 . S
N392 C393 1.346 . S
C393 N392 1.346 . S
C393 C394 1.396 . S
C393 C403 1.510 . S
C394 C390 1.401 . S
C394 C393 1.396 . S
C395 C390 1.499 . S
C395 H396 0.959 . S
C395 H397 0.960 . S
C395 H398 0.961 . S
H396 C395 0.959 . S
H397 C395 0.960 . S
H398 C395 0.961 . S
O399 Co374 1.967 . S
O399 C407 1.258 . S
O400 Co375 1.941 . S
O400 C407 1.266 . S
H401 C403 0.959 . S
H402 C403 0.961 . S
C403 C393 1.510 . S
C403 H401 0.959 . S
C403 H402 0.961 . S
C403 H404 0.960 . S
H404 C403 0.960 . S
H405 N385 0.862 . S
O406 Co374 1.920 . S
O406 C379 1.289 . S
C407 O399 1.258 . S
C407 O400 1.266 . S
Co408 O411 1.970 . S
Co408 N425 1.989 . S
Co408 O433 1.967 . S
Co408 O440 1.920 . S
Co409 O412 1.966 . S
Co409 N418 2.022 . S
Co409 N426 1.993 . S
Co409 O434 1.941 . S
C410 O411 1.258 . S
C410 O412 1.263 . S
O411 Co408 1.970 . S
O411 C410 1.258 . S
O412 Co409 1.966 . S
O412 C410 1.263 . S
C413 O414 1.235 . S
C413 O440 1.289 . S
O414 C413 1.235 . S
C415 C417 1.400 . S
C415 N418 1.351 . S
C415 C420 1.501 . S
C416 C417 1.387 . S
C416 N419 1.341 . S
C417 C415 1.400 . S
C417 C416 1.387 . S
N418 Co409 2.022 . S
N418 C415 1.351 . S
N418 N419 1.365 . S
N419 C416 1.341 . S
N419 N418 1.365 . S
N419 H439 0.862 . S
C420 C415 1.501 . S
C420 H421 0.961 . S
C420 H422 0.961 . S
C420 H423 0.960 . S
H421 C420 0.961 . S
H422 C420 0.961 . S
H423 C420 0.960 . S
C424 N425 1.342 . S
C424 C428 1.401 . S
C424 C429 1.499 . S
N425 Co408 1.989 . S
N425 C424 1.342 . S
N425 N426 1.388 . S
N426 Co409 1.993 . S
N426 N425 1.388 . S
N426 C427 1.346 . S
C427 N426 1.346 . S
C427 C428 1.396 . S
C427 C437 1.510 . S
C428 C424 1.401 . S
C428 C427 1.396 . S
C429 C424 1.499 . S
C429 H430 0.959 . S
C429 H431 0.960 . S
C429 H432 0.961 . S
H430 C429 0.959 . S
H431 C429 0.960 . S
H432 C429 0.961 . S
O433 Co408 1.967 . S
O433 C441 1.258 . S
O434 Co409 1.941 . S
O434 C441 1.266 . S
H435 C437 0.959 . S
H436 C437 0.961 . S
C437 C427 1.510 . S
C437 H435 0.959 . S
C437 H436 0.961 . S
C437 H438 0.960 . S
H438 C437 0.960 . S
H439 N419 0.862 . S
O440 Co408 1.920 . S
O440 C413 1.289 . S
C441 O433 1.258 . S
C441 O434 1.266 . S
Co442 O445 1.970 . S
Co442 N459 1.989 . S
Co442 O467 1.967 . S
Co442 O474 1.920 . S
Co443 O446 1.966 . S
Co443 N452 2.022 . S
Co443 N460 1.993 . S
Co443 O468 1.941 . S
C444 O445 1.258 . S
C444 O446 1.263 . S
O445 Co442 1.970 . S
O445 C444 1.258 . S
O446 Co443 1.966 . S
O446 C444 1.263 . S
C447 O448 1.235 . S
C447 O474 1.289 . S
O448 C447 1.235 . S
C449 C451 1.400 . S
C449 N452 1.351 . S
C449 C454 1.501 . S
C450 C451 1.387 . S
C450 N453 1.341 . S
C451 C449 1.400 . S
C451 C450 1.387 . S
N452 Co443 2.022 . S
N452 C449 1.351 . S
N452 N453 1.365 . S
N453 C450 1.341 . S
N453 N452 1.365 . S
N453 H473 0.862 . S
C454 C449 1.501 . S
C454 H455 0.961 . S
C454 H456 0.961 . S
C454 H457 0.960 . S
H455 C454 0.961 . S
H456 C454 0.961 . S
H457 C454 0.960 . S
C458 N459 1.342 . S
C458 C462 1.401 . S
C458 C463 1.499 . S
N459 Co442 1.989 . S
N459 C458 1.342 . S
N459 N460 1.388 . S
N460 Co443 1.993 . S
N460 N459 1.388 . S
N460 C461 1.346 . S
C461 N460 1.346 . S
C461 C462 1.396 . S
C461 C471 1.510 . S
C462 C458 1.401 . S
C462 C461 1.396 . S
C463 C458 1.499 . S
C463 H464 0.959 . S
C463 H465 0.960 . S
C463 H466 0.961 . S
H464 C463 0.959 . S
H465 C463 0.960 . S
H466 C463 0.961 . S
O467 Co442 1.967 . S
O467 C475 1.258 . S
O468 Co443 1.941 . S
O468 C475 1.266 . S
H469 C471 0.959 . S
H470 C471 0.961 . S
C471 C461 1.510 . S
C471 H469 0.959 . S
C471 H470 0.961 . S
C471 H472 0.960 . S
H472 C471 0.960 . S
H473 N453 0.862 . S
O474 Co442 1.920 . S
O474 C447 1.289 . S
C475 O467 1.258 . S
C475 O468 1.266 . S
Co476 O479 1.970 . S
Co476 N493 1.989 . S
Co476 O501 1.967 . S
Co476 O508 1.920 . S
Co477 O480 1.966 . S
Co477 N486 2.022 . S
Co477 N494 1.993 . S
Co477 O502 1.941 . S
C478 O479 1.258 . S
C478 O480 1.263 . S
O479 Co476 1.970 . S
O479 C478 1.258 . S
O480 Co477 1.966 . S
O480 C478 1.263 . S
C481 O482 1.235 . S
C481 O508 1.289 . S
O482 C481 1.235 . S
C483 C485 1.400 . S
C483 N486 1.351 . S
C483 C488 1.501 . S
C484 C485 1.387 . S
C484 N487 1.341 . S
C485 C483 1.400 . S
C485 C484 1.387 . S
N486 Co477 2.022 . S
N486 C483 1.351 . S
N486 N487 1.365 . S
N487 C484 1.341 . S
N487 N486 1.365 . S
N487 H507 0.862 . S
C488 C483 1.501 . S
C488 H489 0.961 . S
C488 H490 0.961 . S
C488 H491 0.960 . S
H489 C488 0.961 . S
H490 C488 0.961 . S
H491 C488 0.960 . S
C492 N493 1.342 . S
C492 C496 1.401 . S
C492 C497 1.499 . S
N493 Co476 1.989 . S
N493 C492 1.342 . S
N493 N494 1.388 . S
N494 Co477 1.993 . S
N494 N493 1.388 . S
N494 C495 1.346 . S
C495 N494 1.346 . S
C495 C496 1.396 . S
C495 C505 1.510 . S
C496 C492 1.401 . S
C496 C495 1.396 . S
C497 C492 1.499 . S
C497 H498 0.959 . S
C497 H499 0.960 . S
C497 H500 0.961 . S
H498 C497 0.959 . S
H499 C497 0.960 . S
H500 C497 0.961 . S
O501 Co476 1.967 . S
O501 C509 1.258 . S
O502 Co477 1.941 . S
O502 C509 1.266 . S
H503 C505 0.959 . S
H504 C505 0.961 . S
C505 C495 1.510 . S
C505 H503 0.959 . S
C505 H504 0.961 . S
C505 H506 0.960 . S
H506 C505 0.960 . S
H507 N487 0.862 . S
O508 Co476 1.920 . S
O508 C481 1.289 . S
C509 O501 1.258 . S
C509 O502 1.266 . S
Co510 O513 1.970 . S
Co510 N527 1.989 . S
Co510 O535 1.967 . S
Co510 O542 1.920 . S
Co511 O514 1.966 . S
Co511 N520 2.022 . S
Co511 N528 1.993 . S
Co511 O536 1.941 . S
C512 O513 1.258 . S
C512 O514 1.263 . S
O513 Co510 1.970 . S
O513 C512 1.258 . S
O514 Co511 1.966 . S
O514 C512 1.263 . S
C515 O516 1.235 . S
C515 O542 1.289 . S
O516 C515 1.235 . S
C517 C519 1.400 . S
C517 N520 1.351 . S
C517 C522 1.501 . S
C518 C519 1.387 . S
C518 N521 1.341 . S
C519 C517 1.400 . S
C519 C518 1.387 . S
N520 Co511 2.022 . S
N520 C517 1.351 . S
N520 N521 1.365 . S
N521 C518 1.341 . S
N521 N520 1.365 . S
N521 H541 0.862 . S
C522 C517 1.501 . S
C522 H523 0.961 . S
C522 H524 0.961 . S
C522 H525 0.960 . S
H523 C522 0.961 . S
H524 C522 0.961 . S
H525 C522 0.960 . S
C526 N527 1.342 . S
C526 C530 1.401 . S
C526 C531 1.499 . S
N527 Co510 1.989 . S
N527 C526 1.342 . S
N527 N528 1.388 . S
N528 Co511 1.993 . S
N528 N527 1.388 . S
N528 C529 1.346 . S
C529 N528 1.346 . S
C529 C530 1.396 . S
C529 C539 1.510 . S
C530 C526 1.401 . S
C530 C529 1.396 . S
C531 C526 1.499 . S
C531 H532 0.959 . S
C531 H533 0.960 . S
C531 H534 0.961 . S
H532 C531 0.959 . S
H533 C531 0.960 . S
H534 C531 0.961 . S
O535 Co510 1.967 . S
O535 C543 1.258 . S
O536 Co511 1.941 . S
O536 C543 1.266 . S
H537 C539 0.959 . S
H538 C539 0.961 . S
C539 C529 1.510 . S
C539 H537 0.959 . S
C539 H538 0.961 . S
C539 H540 0.960 . S
H540 C539 0.960 . S
H541 N521 0.862 . S
O542 Co510 1.920 . S
O542 C515 1.289 . S
C543 O535 1.258 . S
C543 O536 1.266 . S
C544 C545 1.387 . S
C544 H548 0.950 . S
C544 C553 1.390 . S
C545 C544 1.387 . S
C545 C547 1.387 . S
H546 C553 0.950 . S
C547 C545 1.387 . S
C547 C549 1.390 . S
C547 H551 0.950 . S
H548 C544 0.950 . S
C549 C547 1.390 . S
C549 C550 1.387 . S
C549 H552 0.950 . S
C550 C549 1.387 . S
C550 C553 1.387 . S
H551 C547 0.950 . S
H552 C549 0.950 . S
C553 C544 1.390 . S
C553 H546 0.950 . S
C553 C550 1.387 . S
C554 C555 1.387 . S
C554 H558 0.950 . S
C554 C563 1.390 . S
C555 C554 1.387 . S
C555 C557 1.387 . S
H556 C563 0.950 . S
C557 C555 1.387 . S
C557 C559 1.390 . S
C557 H561 0.950 . S
H558 C554 0.950 . S
C559 C557 1.390 . S
C559 C560 1.387 . S
C559 H562 0.950 . S
C560 C559 1.387 . S
C560 C563 1.387 . S
H561 C557 0.950 . S
H562 C559 0.950 . S
C563 C554 1.390 . S
C563 H556 0.950 . S
C563 C560 1.387 . S
C564 C565 1.387 . S
C564 H568 0.950 . S
C564 C573 1.390 . S
C565 C564 1.387 . S
C565 C567 1.387 . S
H566 C573 0.950 . S
C567 C565 1.387 . S
C567 C569 1.390 . S
C567 H571 0.950 . S
H568 C564 0.950 . S
C569 C567 1.390 . S
C569 C570 1.387 . S
C569 H572 0.950 . S
C570 C569 1.387 . S
C570 C573 1.387 . S
H571 C567 0.950 . S
H572 C569 0.950 . S
C573 C564 1.390 . S
C573 H566 0.950 . S
C573 C570 1.387 . S
C574 C575 1.387 . S
C574 H578 0.950 . S
C574 C583 1.390 . S
C575 C574 1.387 . S
C575 C577 1.387 . S
H576 C583 0.950 . S
C577 C575 1.387 . S
C577 C579 1.390 . S
C577 H581 0.950 . S
H578 C574 0.950 . S
C579 C577 1.390 . S
C579 C580 1.387 . S
C579 H582 0.950 . S
C580 C579 1.387 . S
C580 C583 1.387 . S
H581 C577 0.950 . S
H582 C579 0.950 . S
C583 C574 1.390 . S
C583 H576 0.950 . S
C583 C580 1.387 . S
C584 C585 1.387 . S
C584 H588 0.950 . S
C584 C593 1.390 . S
C585 C584 1.387 . S
C585 C587 1.387 . S
H586 C593 0.950 . S
C587 C585 1.387 . S
C587 C589 1.390 . S
C587 H591 0.950 . S
H588 C584 0.950 . S
C589 C587 1.390 . S
C589 C590 1.387 . S
C589 H592 0.950 . S
C590 C589 1.387 . S
C590 C593 1.387 . S
H591 C587 0.950 . S
H592 C589 0.950 . S
C593 C584 1.390 . S
C593 H586 0.950 . S
C593 C590 1.387 . S
C594 C595 1.387 . S
C594 H598 0.950 . S
C594 C603 1.390 . S
C595 C594 1.387 . S
C595 C597 1.387 . S
H596 C603 0.950 . S
C597 C595 1.387 . S
C597 C599 1.390 . S
C597 H601 0.950 . S
H598 C594 0.950 . S
C599 C597 1.390 . S
C599 C600 1.387 . S
C599 H602 0.950 . S
C600 C599 1.387 . S
C600 C603 1.387 . S
H601 C597 0.950 . S
H602 C599 0.950 . S
C603 C594 1.390 . S
C603 H596 0.950 . S
C603 C600 1.387 . S
C604 C605 1.387 . S
C604 H608 0.950 . S
C604 C613 1.390 . S
C605 C604 1.387 . S
C605 C607 1.387 . S
H606 C613 0.950 . S
C607 C605 1.387 . S
C607 C609 1.390 . S
C607 H611 0.950 . S
H608 C604 0.950 . S
C609 C607 1.390 . S
C609 C610 1.387 . S
C609 H612 0.950 . S
C610 C609 1.387 . S
C610 C613 1.387 . S
H611 C607 0.950 . S
H612 C609 0.950 . S
C613 C604 1.390 . S
C613 H606 0.950 . S
C613 C610 1.387 . S
C614 C615 1.387 . S
C614 H618 0.950 . S
C614 C623 1.390 . S
C615 C614 1.387 . S
C615 C617 1.387 . S
H616 C623 0.950 . S
C617 C615 1.387 . S
C617 C619 1.390 . S
C617 H621 0.950 . S
H618 C614 0.950 . S
C619 C617 1.390 . S
C619 C620 1.387 . S
C619 H622 0.950 . S
C620 C619 1.387 . S
C620 C623 1.387 . S
H621 C617 0.950 . S
H622 C619 0.950 . S
C623 C614 1.390 . S
C623 H616 0.950 . S
C623 C620 1.387 . S
C624 C625 1.387 . S
C624 H628 0.950 . S
C624 C633 1.390 1_554 S
C625 C624 1.387 . S
C625 C627 1.387 . S
H626 C633 0.950 . S
C627 C625 1.387 . S
C627 C629 1.390 1_554 S
C627 H631 0.950 . S
H628 C624 0.950 . S
C629 C627 1.390 1_556 S
C629 C630 1.387 . S
C629 H632 0.950 . S
C630 C629 1.387 . S
C630 C633 1.387 . S
H631 C627 0.950 . S
H632 C629 0.950 . S
C633 C624 1.390 1_556 S
C633 H626 0.950 . S
C633 C630 1.387 . S
C634 C635 1.387 . S
C634 H638 0.950 . S
C634 C643 1.390 1_554 S
C635 C634 1.387 . S
C635 C637 1.387 . S
H636 C643 0.950 . S
C637 C635 1.387 . S
C637 C639 1.390 1_554 S
C637 H641 0.950 . S
H638 C634 0.950 . S
C639 C637 1.390 1_556 S
C639 C640 1.387 . S
C639 H642 0.950 . S
C640 C639 1.387 . S
C640 C643 1.387 . S
H641 C637 0.950 . S
H642 C639 0.950 . S
C643 C634 1.390 1_556 S
C643 H636 0.950 . S
C643 C640 1.387 . S
C644 C645 1.387 . S
C644 H648 0.950 . S
C644 C653 1.390 1_554 S
C645 C644 1.387 . S
C645 C647 1.387 . S
H646 C653 0.950 . S
C647 C645 1.387 . S
C647 C649 1.390 1_554 S
C647 H651 0.950 . S
H648 C644 0.950 . S
C649 C647 1.390 1_556 S
C649 C650 1.387 . S
C649 H652 0.950 . S
C650 C649 1.387 . S
C650 C653 1.387 . S
H651 C647 0.950 . S
H652 C649 0.950 . S
C653 C644 1.390 1_556 S
C653 H646 0.950 . S
C653 C650 1.387 . S
C654 C655 1.387 . S
C654 H658 0.950 . S
C654 C663 1.390 1_554 S
C655 C654 1.387 . S
C655 C657 1.387 . S
H656 C663 0.950 . S
C657 C655 1.387 . S
C657 C659 1.390 . S
C657 H661 0.950 . S
H658 C654 0.950 . S
C659 C657 1.390 . S
C659 C660 1.387 1_554 S
C659 H662 0.950 1_554 S
C660 C659 1.387 1_556 S
C660 C663 1.387 . S
H661 C657 0.950 . S
H662 C659 0.950 1_556 S
C663 C654 1.390 1_556 S
C663 H656 0.950 . S
C663 C660 1.387 . S
C664 C665 1.387 . S
C664 H668 0.950 . S
C664 C673 1.390 1_554 S
C665 C664 1.387 . S
C665 C667 1.387 . S
H666 C673 0.950 . S
C667 C665 1.387 . S
C667 C669 1.390 1_554 S
C667 H671 0.950 . S
H668 C664 0.950 . S
C669 C667 1.390 1_556 S
C669 C670 1.387 . S
C669 H672 0.950 . S
C670 C669 1.387 . S
C670 C673 1.387 . S
H671 C667 0.950 . S
H672 C669 0.950 . S
C673 C664 1.390 1_556 S
C673 H666 0.950 . S
C673 C670 1.387 . S
C674 C675 1.387 . S
C674 H678 0.950 . S
C674 C683 1.390 1_554 S
C675 C674 1.387 . S
C675 C677 1.387 . S
H676 C683 0.950 . S
C677 C675 1.387 . S
C677 C679 1.390 1_554 S
C677 H681 0.950 . S
H678 C674 0.950 . S
C679 C677 1.390 1_556 S
C679 C680 1.387 . S
C679 H682 0.950 . S
C680 C679 1.387 . S
C680 C683 1.387 . S
H681 C677 0.950 . S
H682 C679 0.950 . S
C683 C674 1.390 1_556 S
C683 H676 0.950 . S
C683 C680 1.387 . S
C684 C685 1.387 . S
C684 H688 0.950 . S
C684 C693 1.390 1_554 S
C685 C684 1.387 . S
C685 C687 1.387 . S
H686 C693 0.950 . S
C687 C685 1.387 . S
C687 C689 1.390 1_554 S
C687 H691 0.950 . S
H688 C684 0.950 . S
C689 C687 1.390 1_556 S
C689 C690 1.387 . S
C689 H692 0.950 . S
C690 C689 1.387 . S
C690 C693 1.387 . S
H691 C687 0.950 . S
H692 C689 0.950 . S
C693 C684 1.390 1_556 S
C693 H686 0.950 . S
C693 C690 1.387 . S
C694 C695 1.387 . S
C694 H698 0.950 . S
C694 C703 1.390 1_554 S
C695 C694 1.387 . S
C695 C697 1.387 . S
H696 C703 0.950 . S
C697 C695 1.387 . S
C697 C699 1.390 1_554 S
C697 H701 0.950 . S
H698 C694 0.950 . S
C699 C697 1.390 1_556 S
C699 C700 1.387 . S
C699 H702 0.950 . S
C700 C699 1.387 . S
C700 C703 1.387 . S
H701 C697 0.950 . S
H702 C699 0.950 . S
C703 C694 1.390 1_556 S
C703 H696 0.950 . S
C703 C700 1.387 . S
C704 C705 1.387 . S
C704 H708 0.950 . S
C704 C713 1.390 . S
C705 C704 1.387 . S
C705 C707 1.387 . S
H706 C713 0.950 . S
C707 C705 1.387 . S
C707 C709 1.390 . S
C707 H711 0.950 . S
H708 C704 0.950 . S
C709 C707 1.390 . S
C709 C710 1.387 . S
C709 H712 0.950 . S
C710 C709 1.387 . S
C710 C713 1.387 . S
H711 C707 0.950 . S
H712 C709 0.950 . S
C713 C704 1.390 . S
C713 H706 0.950 . S
C713 C710 1.387 . S
C714 C715 1.387 . S
C714 H718 0.950 . S
C714 C723 1.390 . S
C715 C714 1.387 . S
C715 C717 1.387 . S
H716 C723 0.950 . S
C717 C715 1.387 . S
C717 C719 1.390 . S
C717 H721 0.950 . S
H718 C714 0.950 . S
C719 C717 1.390 . S
C719 C720 1.387 . S
C719 H722 0.950 . S
C720 C719 1.387 . S
C720 C723 1.387 . S
H721 C717 0.950 . S
H722 C719 0.950 . S
C723 C714 1.390 . S
C723 H716 0.950 . S
C723 C720 1.387 . S
C724 C725 1.387 . S
C724 H728 0.950 . S
C724 C733 1.390 . S
C725 C724 1.387 . S
C725 C727 1.387 . S
H726 C733 0.950 . S
C727 C725 1.387 . S
C727 C729 1.390 . S
C727 H731 0.950 . S
H728 C724 0.950 . S
C729 C727 1.390 . S
C729 C730 1.387 . S
C729 H732 0.950 . S
C730 C729 1.387 . S
C730 C733 1.387 . S
H731 C727 0.950 . S
H732 C729 0.950 . S
C733 C724 1.390 . S
C733 H726 0.950 . S
C733 C730 1.387 . S
C734 C735 1.387 . S
C734 H738 0.950 . S
C734 C743 1.390 . S
C735 C734 1.387 . S
C735 C737 1.387 . S
H736 C743 0.950 . S
C737 C735 1.387 . S
C737 C739 1.390 . S
C737 H741 0.950 . S
H738 C734 0.950 . S
C739 C737 1.390 . S
C739 C740 1.387 . S
C739 H742 0.950 . S
C740 C739 1.387 . S
C740 C743 1.387 . S
H741 C737 0.950 . S
H742 C739 0.950 . S
C743 C734 1.390 . S
C743 H736 0.950 . S
C743 C740 1.387 . S
C744 C745 1.387 . S
C744 H748 0.950 . S
C744 C753 1.390 . S
C745 C744 1.387 . S
C745 C747 1.387 . S
H746 C753 0.950 . S
C747 C745 1.387 . S
C747 C749 1.390 . S
C747 H751 0.950 . S
H748 C744 0.950 . S
C749 C747 1.390 . S
C749 C750 1.387 . S
C749 H752 0.950 . S
C750 C749 1.387 . S
C750 C753 1.387 . S
H751 C747 0.950 . S
H752 C749 0.950 . S
C753 C744 1.390 . S
C753 H746 0.950 . S
C753 C750 1.387 . S
C754 C755 1.387 . S
C754 H758 0.950 . S
C754 C763 1.390 . S
C755 C754 1.387 . S
C755 C757 1.387 . S
H756 C763 0.950 . S
C757 C755 1.387 . S
C757 C759 1.390 . S
C757 H761 0.950 . S
H758 C754 0.950 . S
C759 C757 1.390 . S
C759 C760 1.387 . S
C759 H762 0.950 . S
C760 C759 1.387 . S
C760 C763 1.387 . S
H761 C757 0.950 . S
H762 C759 0.950 . S
C763 C754 1.390 . S
C763 H756 0.950 . S
C763 C760 1.387 . S
C764 C765 1.387 . S
C764 H768 0.950 . S
C764 C773 1.390 . S
C765 C764 1.387 . S
C765 C767 1.387 . S
H766 C773 0.950 . S
C767 C765 1.387 . S
C767 C769 1.390 . S
C767 H771 0.950 . S
H768 C764 0.950 . S
C769 C767 1.390 . S
C769 C770 1.387 . S
C769 H772 0.950 . S
C770 C769 1.387 . S
C770 C773 1.387 . S
H771 C767 0.950 . S
H772 C769 0.950 . S
C773 C764 1.390 . S
C773 H766 0.950 . S
C773 C770 1.387 . S
C774 C775 1.387 . S
C774 H778 0.950 . S
C774 C783 1.390 . S
C775 C774 1.387 . S
C775 C777 1.387 . S
H776 C783 0.950 . S
C777 C775 1.387 . S
C777 C779 1.390 . S
C777 H781 0.950 . S
H778 C774 0.950 . S
C779 C777 1.390 . S
C779 C780 1.387 . S
C779 H782 0.950 . S
C780 C779 1.387 . S
C780 C783 1.387 . S
H781 C777 0.950 . S
H782 C779 0.950 . S
C783 C774 1.390 . S
C783 H776 0.950 . S
C783 C780 1.387 . S
C784 C785 1.387 . S
C784 H788 0.950 . S
C784 C793 1.390 1_544 S
C785 C784 1.387 . S
C785 C787 1.387 . S
H786 C793 0.950 . S
C787 C785 1.387 . S
C787 C789 1.390 1_544 S
C787 H791 0.950 . S
H788 C784 0.950 . S
C789 C787 1.390 1_566 S
C789 C790 1.387 . S
C789 H792 0.950 . S
C790 C789 1.387 . S
C790 C793 1.387 . S
H791 C787 0.950 . S
H792 C789 0.950 . S
C793 C784 1.390 1_566 S
C793 H786 0.950 . S
C793 C790 1.387 . S
C794 C795 1.387 . S
C794 H798 0.950 . S
C794 C803 1.390 1_456 S
C795 C794 1.387 . S
C795 C797 1.387 . S
H796 C803 0.950 . S
C797 C795 1.387 . S
C797 C799 1.390 1_456 S
C797 H801 0.950 . S
H798 C794 0.950 . S
C799 C797 1.390 1_654 S
C799 C800 1.387 . S
C799 H802 0.950 . S
C800 C799 1.387 . S
C800 C803 1.387 . S
H801 C797 0.950 . S
H802 C799 0.950 . S
C803 C794 1.390 1_654 S
C803 H796 0.950 . S
C803 C800 1.387 . S
C804 C805 1.387 . S
C804 H808 0.950 . S
C804 C813 1.390 1_564 S
C805 C804 1.387 . S
C805 C807 1.387 . S
H806 C813 0.950 . S
C807 C805 1.387 . S
C807 C809 1.390 1_564 S
C807 H811 0.950 . S
H808 C804 0.950 . S
C809 C807 1.390 1_546 S
C809 C810 1.387 . S
C809 H812 0.950 . S
C810 C809 1.387 . S
C810 C813 1.387 . S
H811 C807 0.950 . S
H812 C809 0.950 . S
C813 C804 1.390 1_546 S
C813 H806 0.950 . S
C813 C810 1.387 . S
C814 C815 1.387 . S
C814 H818 0.950 . S
C814 C823 1.390 1_656 S
C815 C814 1.387 . S
C815 C817 1.387 . S
H816 C823 0.950 . S
C817 C815 1.387 . S
C817 C819 1.390 1_656 S
C817 H821 0.950 . S
H818 C814 0.950 . S
C819 C817 1.390 1_454 S
C819 C820 1.387 . S
C819 H822 0.950 . S
C820 C819 1.387 . S
C820 C823 1.387 . S
H821 C817 0.950 . S
H822 C819 0.950 . S
C823 C814 1.390 1_454 S
C823 H816 0.950 . S
C823 C820 1.387 . S
C824 C825 1.387 . S
C824 H828 0.950 . S
C824 C833 1.390 . S
C825 C824 1.387 . S
C825 C827 1.387 . S
H826 C833 0.950 . S
C827 C825 1.387 . S
C827 C829 1.390 . S
C827 H831 0.950 . S
H828 C824 0.950 . S
C829 C827 1.390 . S
C829 C830 1.387 . S
C829 H832 0.950 . S
C830 C829 1.387 . S
C830 C833 1.387 . S
H831 C827 0.950 . S
H832 C829 0.950 . S
C833 C824 1.390 . S
C833 H826 0.950 . S
C833 C830 1.387 . S
C834 C835 1.387 . S
C834 H838 0.950 . S
C834 C843 1.390 . S
C835 C834 1.387 . S
C835 C837 1.387 . S
H836 C843 0.950 . S
C837 C835 1.387 . S
C837 C839 1.390 . S
C837 H841 0.950 . S
H838 C834 0.950 . S
C839 C837 1.390 . S
C839 C840 1.387 . S
C839 H842 0.950 . S
C840 C839 1.387 . S
C840 C843 1.387 . S
H841 C837 0.950 . S
H842 C839 0.950 . S
C843 C834 1.390 . S
C843 H836 0.950 . S
C843 C840 1.387 . S
C844 C845 1.387 . S
C844 H848 0.950 . S
C844 C853 1.390 . S
C845 C844 1.387 . S
C845 C847 1.387 . S
H846 C853 0.950 . S
C847 C845 1.387 . S
C847 C849 1.390 . S
C847 H851 0.950 . S
H848 C844 0.950 . S
C849 C847 1.390 . S
C849 C850 1.387 . S
C849 H852 0.950 . S
C850 C849 1.387 . S
C850 C853 1.387 . S
H851 C847 0.950 . S
H852 C849 0.950 . S
C853 C844 1.390 . S
C853 H846 0.950 . S
C853 C850 1.387 . S
C854 C855 1.387 . S
C854 H858 0.950 . S
C854 C863 1.390 . S
C855 C854 1.387 . S
C855 C857 1.387 . S
H856 C863 0.950 . S
C857 C855 1.387 . S
C857 C859 1.390 . S
C857 H861 0.950 . S
H858 C854 0.950 . S
C859 C857 1.390 . S
C859 C860 1.387 . S
C859 H862 0.950 . S
C860 C859 1.387 . S
C860 C863 1.387 . S
H861 C857 0.950 . S
H862 C859 0.950 . S
C863 C854 1.390 . S
C863 H856 0.950 . S
C863 C860 1.387 . S
C864 C865 1.387 1_556 S
C864 H868 0.950 . S
C864 C873 1.390 . S
C865 C864 1.387 1_554 S
C865 C867 1.387 . S
H866 C873 0.950 . S
C867 C865 1.387 . S
C867 C869 1.390 . S
C867 H871 0.950 . S
H868 C864 0.950 . S
C869 C867 1.390 . S
C869 C870 1.387 1_554 S
C869 H872 0.950 . S
C870 C869 1.387 1_556 S
C870 C873 1.387 . S
H871 C867 0.950 . S
H872 C869 0.950 . S
C873 C864 1.390 . S
C873 H866 0.950 . S
C873 C870 1.387 . S
C874 C875 1.387 . S
C874 H878 0.950 . S
C874 C883 1.390 . S
C875 C874 1.387 . S
C875 C877 1.387 1_554 S
H876 C883 0.950 . S
C877 C875 1.387 1_556 S
C877 C879 1.390 . S
C877 H881 0.950 . S
H878 C874 0.950 . S
C879 C877 1.390 . S
C879 C880 1.387 . S
C879 H882 0.950 . S
C880 C879 1.387 . S
C880 C883 1.387 1_556 S
H881 C877 0.950 . S
H882 C879 0.950 . S
C883 C874 1.390 . S
C883 H876 0.950 . S
C883 C880 1.387 1_554 S
C884 C885 1.387 . S
C884 H888 0.950 . S
C884 C893 1.390 . S
C885 C884 1.387 . S
C885 C887 1.387 1_556 S
H886 C893 0.950 . S
C887 C885 1.387 1_554 S
C887 C889 1.390 . S
C887 H891 0.950 . S
H888 C884 0.950 . S
C889 C887 1.390 . S
C889 C890 1.387 . S
C889 H892 0.950 . S
C890 C889 1.387 . S
C890 C893 1.387 1_554 S
H891 C887 0.950 . S
H892 C889 0.950 . S
C893 C884 1.390 . S
C893 H886 0.950 . S
C893 C890 1.387 1_556 S
C894 C895 1.387 1_556 S
C894 H898 0.950 . S
C894 C903 1.390 . S
C895 C894 1.387 1_554 S
C895 C897 1.387 . S
H896 C903 0.950 . S
C897 C895 1.387 . S
C897 C899 1.390 . S
C897 H901 0.950 . S
H898 C894 0.950 . S
C899 C897 1.390 . S
C899 C900 1.387 1_554 S
C899 H902 0.950 . S
C900 C899 1.387 1_556 S
C900 C903 1.387 . S
H901 C897 0.950 . S
H902 C899 0.950 . S
C903 C894 1.390 . S
C903 H896 0.950 . S
C903 C900 1.387 . S
C904 C905 1.387 . S
C904 H908 0.950 . S
C904 C913 1.390 . S
C905 C904 1.387 . S
C905 C907 1.387 . S
H906 C913 0.950 . S
C907 C905 1.387 . S
C907 C909 1.390 . S
C907 H911 0.950 . S
H908 C904 0.950 . S
C909 C907 1.390 . S
C909 C910 1.387 . S
C909 H912 0.950 . S
C910 C909 1.387 . S
C910 C913 1.387 . S
H911 C907 0.950 . S
H912 C909 0.950 . S
C913 C904 1.390 . S
C913 H906 0.950 . S
C913 C910 1.387 . S
C914 C915 1.387 . S
C914 H918 0.950 . S
C914 C923 1.390 . S
C915 C914 1.387 . S
C915 C917 1.387 . S
H916 C923 0.950 . S
C917 C915 1.387 . S
C917 C919 1.390 . S
C917 H921 0.950 . S
H918 C914 0.950 . S
C919 C917 1.390 . S
C919 C920 1.387 . S
C919 H922 0.950 . S
C920 C919 1.387 . S
C920 C923 1.387 . S
H921 C917 0.950 . S
H922 C919 0.950 . S
C923 C914 1.390 . S
C923 H916 0.950 . S
C923 C920 1.387 . S
C924 C925 1.387 . S
C924 H928 0.950 . S
C924 C933 1.390 . S
C925 C924 1.387 . S
C925 C927 1.387 . S
H926 C933 0.950 . S
C927 C925 1.387 . S
C927 C929 1.390 . S
C927 H931 0.950 . S
H928 C924 0.950 . S
C929 C927 1.390 . S
C929 C930 1.387 . S
C929 H932 0.950 . S
C930 C929 1.387 . S
C930 C933 1.387 . S
H931 C927 0.950 . S
H932 C929 0.950 . S
C933 C924 1.390 . S
C933 H926 0.950 . S
C933 C930 1.387 . S
C934 C935 1.387 . S
C934 H938 0.950 . S
C934 C943 1.390 . S
C935 C934 1.387 . S
C935 C937 1.387 . S
H936 C943 0.950 . S
C937 C935 1.387 . S
C937 C939 1.390 . S
C937 H941 0.950 . S
H938 C934 0.950 . S
C939 C937 1.390 . S
C939 C940 1.387 . S
C939 H942 0.950 . S
C940 C939 1.387 . S
C940 C943 1.387 . S
H941 C937 0.950 . S
H942 C939 0.950 . S
C943 C934 1.390 . S
C943 H936 0.950 . S
C943 C940 1.387 . S
C545 C9 1.400 . S
C550 C5 1.372 . S
C555 C43 1.400 . S
C560 C39 1.372 . S
C565 C73 1.370 . S
C570 C77 1.401 . S
C575 C107 1.372 . S
C580 C111 1.400 . S
C585 C145 1.401 . S
C590 C141 1.370 . S
C595 C175 1.370 . S
C600 C179 1.401 . S
C605 C209 1.370 . S
C610 C213 1.401 . S
C615 C243 1.370 . S
C620 C247 1.400 . S
C625 C281 1.401 . S
C630 C277 1.370 . S
C635 C315 1.401 . S
C640 C311 1.370 . S
C645 C349 1.400 . S
C650 C345 1.372 . S
C655 C383 1.401 . S
C660 C379 1.371 . S
C665 C413 1.370 . S
C670 C417 1.401 . S
C675 C447 1.372 . S
C680 C451 1.400 . S
C685 C481 1.372 . S
C690 C485 1.400 . S
C695 C515 1.370 . S
C700 C519 1.400 . S
C705 C33 1.557 . S
C710 C543 1.556 . S
C715 C441 1.554 . S
C720 C67 1.555 . S
C725 C475 1.555 . S
C730 C101 1.554 . S
C735 C509 1.554 . S
C740 C135 1.555 . S
C745 C339 1.556 . S
C750 C169 1.555 . S
C755 C203 1.555 . S
C760 C373 1.554 . S
C765 C237 1.558 . S
C770 C407 1.558 . S
C775 C305 1.556 . S
C780 C271 1.556 . S
C785 C20 1.583 . S
C790 C156 1.583 . S
C795 C190 1.584 . S
C800 C54 1.584 . S
C805 C88 1.583 . S
C810 C224 1.583 . S
C815 C258 1.584 . S
C820 C122 1.584 . S
C825 C428 1.584 . S
C830 C292 1.584 . S
C835 C326 1.584 . S
C840 C462 1.584 . S
C845 C360 1.584 . S
C850 C496 1.584 . S
C855 C394 1.583 . S
C860 C530 1.583 . S
C865 C2 1.738 . S
C870 C172 1.738 . S
C875 C36 1.738 . S
C880 C206 1.738 . S
C885 C240 1.738 . S
C890 C70 1.738 . S
C895 C104 1.738 . S
C900 C138 1.738 . S
C905 C444 1.738 . S
C910 C274 1.738 . S
C915 C308 1.738 . S
C920 C478 1.738 . S
C925 C512 1.738 . S
C930 C342 1.738 . S
C935 C410 1.738 . S
C940 C376 1.738 . S
