# Generated by pormake.
# Topology wmg, (6)-cn, num edge types: 1
# Building blocks:
#     Node 0, Type 0, BuildingBlock: MIDCAF_clean_sbu_0, # of connection points: 6
#     Node 1, Type 0, BuildingBlock: MIDCAF_clean_sbu_0, # of connection points: 6
#     Node 2, Type 0, BuildingBlock: MIDCAF_clean_sbu_0, # of connection points: 6
#     Node 3, Type 0, BuildingBlock: MIDCAF_clean_sbu_0, # of connection points: 6
#     Node 4, Type 0, BuildingBlock: MIDCAF_clean_sbu_0, # of connection points: 6
#     Node 5, Type 0, BuildingBlock: MIDCAF_clean_sbu_0, # of connection points: 6
#     Node 6, Type 0, BuildingBlock: MIDCAF_clean_sbu_0, # of connection points: 6
#     Node 7, Type 0, BuildingBlock: MIDCAF_clean_sbu_0, # of connection points: 6
#     Node 8, Type 0, BuildingBlock: MIDCAF_clean_sbu_0, # of connection points: 6
#     Node 9, Type 0, BuildingBlock: MIDCAF_clean_sbu_0, # of connection points: 6
#     Node 10, Type 0, BuildingBlock: MIDCAF_clean_sbu_0, # of connection points: 6
#     Node 11, Type 0, BuildingBlock: MIDCAF_clean_sbu_0, # of connection points: 6
#     Node 12, Type 0, BuildingBlock: MIDCAF_clean_sbu_0, # of connection points: 6
#     Node 13, Type 0, BuildingBlock: MIDCAF_clean_sbu_0, # of connection points: 6
#     Node 14, Type 0, BuildingBlock: MIDCAF_clean_sbu_0, # of connection points: 6
#     Node 15, Type 0, BuildingBlock: MIDCAF_clean_sbu_0, # of connection points: 6
#     Node 16, Type 0, BuildingBlock: MIDCAF_clean_sbu_0, # of connection points: 6
#     Node 17, Type 0, BuildingBlock: MIDCAF_clean_sbu_0, # of connection points: 6
#     Edge 18, Type (0, 0), None
#     Edge 19, Type (0, 0), None
#     Edge 20, Type (0, 0), None
#     Edge 21, Type (0, 0), None
#     Edge 22, Type (0, 0), None
#     Edge 23, Type (0, 0), None
#     Edge 24, Type (0, 0), None
#     Edge 25, Type (0, 0), None
#     Edge 26, Type (0, 0), None
#     Edge 27, Type (0, 0), None
#     Edge 28, Type (0, 0), None
#     Edge 29, Type (0, 0), None
#     Edge 30, Type (0, 0), None
#     Edge 31, Type (0, 0), None
#     Edge 32, Type (0, 0), None
#     Edge 33, Type (0, 0), None
#     Edge 34, Type (0, 0), None
#     Edge 35, Type (0, 0), None
#     Edge 36, Type (0, 0), None
#     Edge 37, Type (0, 0), None
#     Edge 38, Type (0, 0), None
#     Edge 39, Type (0, 0), None
#     Edge 40, Type (0, 0), None
#     Edge 41, Type (0, 0), None
#     Edge 42, Type (0, 0), None
#     Edge 43, Type (0, 0), None
#     Edge 44, Type (0, 0), None
#     Edge 45, Type (0, 0), None
#     Edge 46, Type (0, 0), None
#     Edge 47, Type (0, 0), None
#     Edge 48, Type (0, 0), None
#     Edge 49, Type (0, 0), None
#     Edge 50, Type (0, 0), None
#     Edge 51, Type (0, 0), None
#     Edge 52, Type (0, 0), None
#     Edge 53, Type (0, 0), None
#     Edge 54, Type (0, 0), None
#     Edge 55, Type (0, 0), None
#     Edge 56, Type (0, 0), None
#     Edge 57, Type (0, 0), None
#     Edge 58, Type (0, 0), None
#     Edge 59, Type (0, 0), None
#     Edge 60, Type (0, 0), None
#     Edge 61, Type (0, 0), None
#     Edge 62, Type (0, 0), None
#     Edge 63, Type (0, 0), None
#     Edge 64, Type (0, 0), None
#     Edge 65, Type (0, 0), None
#     Edge 66, Type (0, 0), None
#     Edge 67, Type (0, 0), None
#     Edge 68, Type (0, 0), None
#     Edge 69, Type (0, 0), None
#     Edge 70, Type (0, 0), None
#     Edge 71, Type (0, 0), None
# Relax obj value: 0.401
# Max RMSD: 0.279
# Mean RMSD: 0.279
data_MOF--net-wmg--node1-MIDCAF_clean_sbu_0--edge1-none
_symmetry_space_group_name_H-M    P1
_symmetry_Int_Tables_number       1
_symmetry_cell_setting            triclinic
loop_
_symmetry_equiv_pos_as_xyz
'x, y, z'
_cell_length_a     26.79988
_cell_length_b     26.800045
_cell_length_c     10.647448
_cell_angle_alpha  89.997496
_cell_angle_beta   90.005046
_cell_angle_gamma 120.00178
loop_
_atom_site_label
_atom_site_type_symbol
_atom_site_fract_x
_atom_site_fract_y
_atom_site_fract_z
_atom_type_partial_charge
Zn0 Zn 0.10488 0.20114 0.77687 0.0
Zn1 Zn 0.32124 0.38412 0.31592 0.0
Zn2 Zn 0.19477 0.27464 0.10354 0.0
C3 C 0.27047 0.25608 0.28091 0.0
C4 C 0.20453 0.35264 0.32018 0.0
O5 O 0.1719 0.27644 0.91135 0.0
O6 O 0.14394 0.28657 0.72599 0.0
C7 C 0.1864 0.18789 0.88755 0.0
O8 O 0.22055 0.23075 0.23004 0.0
O9 O 0.30813 0.30519 0.23987 0.0
O10 O 0.24511 0.37043 0.39971 0.0
O11 O 0.21742 0.35084 0.20474 0.0
O12 O 0.15871 0.16596 0.78716 0.0
O13 O 0.18373 0.23088 0.93263 0.0
O14 O 0.1054 0.23543 0.12347 0.0
O15 O 0.05668 0.19216 0.94581 0.0
C16 C 0.05851 0.20632 0.06163 0.0
O17 O 0.26787 0.361 0.12011 0.0
O18 O 0.34808 0.43968 0.16021 0.0
C19 C 0.16693 0.30924 0.82973 0.0
C20 C 0.31265 0.40621 0.07847 0.0
Zn21 Zn 0.63081 0.94013 0.31594 0.0
Zn22 Zn 0.8138 0.90676 0.77685 0.0
Zn23 Zn 0.74033 0.92313 0.10357 0.0
C24 C 0.80865 0.8552 0.06158 0.0
C25 C 0.82703 1.00152 0.88752 0.0
O26 O 0.65396 0.90989 0.12012 0.0
O27 O 0.57529 0.91144 0.16017 0.0
C28 C 0.66229 0.85494 0.32026 0.0
O29 O 0.77955 0.87298 0.12342 0.0
O30 O 0.82281 0.86754 0.94576 0.0
O31 O 0.84895 0.99576 0.78714 0.0
O32 O 0.78405 0.95585 0.93264 0.0
O33 O 0.64444 0.87766 0.3998 0.0
O34 O 0.66413 0.8697 0.20486 0.0
O35 O 0.78424 0.9928 0.23011 0.0
O36 O 0.70979 1.00592 0.23993 0.0
C37 C 0.75889 0.01736 0.28099 0.0
O38 O 0.73851 0.89845 0.91139 0.0
O39 O 0.72836 0.86036 0.72601 0.0
C40 C 0.60876 0.90947 0.07844 0.0
C41 C 0.7057 0.86068 0.82976 0.0
Zn42 Zn 0.10821 0.91002 0.77692 0.0
Zn43 Zn 0.07465 0.69351 0.31595 0.0
Zn44 Zn 0.09182 0.82021 0.10367 0.0
C45 C 0.99758 0.74454 0.28098 0.0
C46 C 0.15977 0.8101 0.32059 0.0
O47 O 0.11652 0.84305 0.9115 0.0
O48 O 0.1546 0.87097 0.72613 0.0
C49 C 0.01343 0.82849 0.88754 0.0
O50 O 0.02212 0.79446 0.23014 0.0
O51 O 0.00901 0.7069 0.2398 0.0
O52 O 0.13715 0.76951 0.4001 0.0
O53 O 0.14496 0.79718 0.20521 0.0
O54 O 0.01921 0.85618 0.78715 0.0
O55 O 0.05908 0.83117 0.9327 0.0
O56 O 0.14202 0.90957 0.12351 0.0
O57 O 0.14745 0.95826 0.94582 0.0
C58 C 0.1598 0.95646 0.06164 0.0
O59 O 0.10501 0.74702 0.12014 0.0
O60 O 0.10336 0.66674 0.16011 0.0
C61 C 0.15428 0.848 0.82989 0.0
C62 C 0.1054 0.70223 0.07842 0.0
Zn63 Zn 0.91311 0.81073 0.24195 0.0
Zn64 Zn 0.69489 0.62803 0.70388 0.0
Zn65 Zn 0.82337 0.73763 0.91536 0.0
C66 C 0.74774 0.75635 0.73952 0.0
C67 C 0.81086 0.6595 0.69634 0.0
O68 O 0.84604 0.7355 0.10731 0.0
O69 O 0.87388 0.72531 0.29267 0.0
C70 C 0.83177 0.82439 0.13143 0.0
O71 O 0.79777 0.782 0.78983 0.0
O72 O 0.71029 0.70748 0.78196 0.0
O73 O 0.77009 0.64061 0.61713 0.0
O74 O 0.79787 0.66176 0.81147 0.0
O75 O 0.8595 0.84619 0.23182 0.0
O76 O 0.83418 0.78127 0.0863 0.0
O77 O 0.91266 0.77617 0.89553 0.0
O78 O 0.96136 0.81954 0.07319 0.0
C79 C 0.95953 0.80523 0.95746 0.0
O80 O 0.74947 0.65104 0.8996 0.0
O81 O 0.66879 0.57265 0.85988 0.0
C82 C 0.85089 0.70266 0.18895 0.0
C83 C 0.70471 0.60575 0.94139 0.0
Zn84 Zn 0.20424 0.10538 0.24197 0.0
Zn85 Zn 0.38691 0.06988 0.70384 0.0
Zn86 Zn 0.27732 0.08875 0.91534 0.0
C87 C 0.25857 0.9944 0.73946 0.0
C88 C 0.35546 0.15439 0.69633 0.0
O89 O 0.27947 0.11357 0.10728 0.0
O90 O 0.28966 0.15159 0.29265 0.0
C91 C 0.19061 0.01039 0.13146 0.0
O92 O 0.23294 0.01879 0.78977 0.0
O93 O 0.30745 1.00581 0.78186 0.0
O94 O 0.37436 0.13253 0.61712 0.0
O95 O 0.35318 0.13911 0.81145 0.0
O96 O 0.16881 0.01631 0.23186 0.0
O97 O 0.23371 0.05592 0.0863 0.0
O98 O 0.23875 0.13948 0.89559 0.0
O99 O 0.19539 0.14481 0.07323 0.0
C100 C 0.20969 0.15729 0.95749 0.0
O101 O 0.36391 0.10142 0.89958 0.0
O102 O 0.4423 0.09915 0.85985 0.0
C103 C 0.31231 0.15126 0.18891 0.0
C104 C 0.4092 0.10197 0.94136 0.0
Zn105 Zn 0.90957 0.10186 0.24194 0.0
Zn106 Zn 0.94519 0.32015 0.70387 0.0
Zn107 Zn 0.92621 0.19157 0.91533 0.0
C108 C 0.02056 0.26718 0.73953 0.0
C109 C 0.86073 0.20422 0.69616 0.0
O110 O 0.90139 0.16891 0.10725 0.0
O111 O 0.86337 0.14108 0.29261 0.0
C112 C 1.00458 0.18321 0.13146 0.0
O113 O 0.99619 0.21715 0.78982 0.0
O114 O 0.00915 0.30463 0.78202 0.0
O115 O 0.88253 0.24499 0.61697 0.0
O116 O 0.87603 0.21723 0.81126 0.0
O117 O 0.99865 0.15549 0.23186 0.0
O118 O 0.95905 0.1808 0.0863 0.0
O119 O 0.87545 0.10229 0.89553 0.0
O120 O 0.87013 0.0536 0.07319 0.0
C121 C 0.85764 0.05541 0.95745 0.0
O122 O 0.91356 0.26552 0.89959 0.0
O123 O 0.91588 0.34621 0.85987 0.0
C124 C 0.8637 0.16406 0.18888 0.0
C125 C 0.91301 0.31027 0.94137 0.0
Zn126 Zn 0.77153 0.53447 0.11019 0.0
Zn127 Zn 0.98788 0.71733 0.64935 0.0
Zn128 Zn 0.86148 0.60799 0.43686 0.0
C129 C 0.93709 0.58929 0.61429 0.0
C130 C 0.87117 0.68592 0.65345 0.0
O131 O 0.83856 0.60976 0.24468 0.0
O132 O 0.81059 0.61989 0.05932 0.0
C133 C 0.85308 0.52124 0.22083 0.0
O134 O 0.88717 0.56405 0.56341 0.0
O135 O 0.97482 0.6384 0.57338 0.0
O136 O 0.91173 0.7036 0.73301 0.0
O137 O 0.88405 0.6842 0.53797 0.0
O138 O 0.82537 0.49931 0.12048 0.0
O139 O 0.85039 0.56421 0.26598 0.0
O140 O 0.7721 0.56882 0.45673 0.0
O141 O 0.72335 0.52552 0.27912 0.0
C142 C 0.72519 0.53971 0.39493 0.0
O143 O 0.93464 0.69431 0.45347 0.0
O144 O 0.01482 0.77299 0.49382 0.0
C145 C 0.83359 0.64256 0.16305 0.0
C146 C 0.97942 0.73955 0.412 0.0
Zn147 Zn 0.48051 0.2401 0.11018 0.0
Zn148 Zn 0.29757 0.27351 0.64929 0.0
Zn149 Zn 0.40698 0.25649 0.43686 0.0
C150 C 0.42561 0.35076 0.61429 0.0
C151 C 0.32903 0.18827 0.65346 0.0
O152 O 0.40521 0.23182 0.24466 0.0
O153 O 0.39508 0.19373 0.05929 0.0
C154 C 0.49375 0.33486 0.22088 0.0
O155 O 0.4509 0.32614 0.56342 0.0
O156 O 0.37651 0.33935 0.57329 0.0
O157 O 0.31127 0.21107 0.73301 0.0
O158 O 0.33078 0.20292 0.538 0.0
O159 O 0.51568 0.3291 0.12051 0.0
O160 O 0.45077 0.2892 0.26598 0.0
O161 O 0.44615 0.20629 0.45671 0.0
O162 O 0.48944 0.20083 0.27909 0.0
C163 C 0.47525 0.18848 0.39489 0.0
O164 O 0.32065 0.2433 0.45342 0.0
O165 O 0.24195 0.24479 0.49369 0.0
C166 C 0.37241 0.19407 0.16302 0.0
C167 C 0.27541 0.24285 0.4119 0.0
Zn168 Zn 0.74153 0.02715 0.64933 0.0
Zn169 Zn 0.77486 0.24341 0.11012 0.0
Zn170 Zn 0.75846 0.15345 0.4368 0.0
C171 C 0.82646 0.28975 0.39485 0.0
C172 C 0.6801 0.16188 0.22083 0.0
O173 O 0.77167 0.08035 0.45344 0.0
O174 O 0.77022 1.0002 0.4938 0.0
C175 C 0.82684 0.14391 0.65328 0.0
O176 O 0.80865 0.24284 0.45665 0.0
O177 O 0.81411 0.29159 0.27904 0.0
O178 O 0.68586 0.18958 0.12046 0.0
O179 O 0.72577 0.16457 0.26594 0.0
O180 O 0.80395 0.10336 0.73285 0.0
O181 O 0.81225 0.13103 0.53779 0.0
O182 O 0.68884 0.12772 0.5634 0.0
O183 O 0.67556 0.04009 0.57344 0.0
C184 C 0.66417 0.07781 0.6143 0.0
O185 O 0.78312 0.17637 0.2446 0.0
O186 O 0.82122 0.20435 0.05923 0.0
C187 C 0.77214 0.03557 0.41197 0.0
C188 C 0.82089 0.18135 0.16296 0.0
Zn189 Zn 0.36124 0.96129 0.0372 0.0
Zn190 Zn 0.57965 0.14393 0.57517 0.0
Zn191 Zn 0.49008 0.07099 0.2485 0.0
C192 C 0.62619 0.13853 0.29071 0.0
C193 C 0.4983 0.15761 0.46473 0.0
O194 O 0.41607 0.98437 0.23284 0.0
O195 O 0.33528 0.90604 0.19345 0.0
C196 C 0.47705 0.99277 0.02906 0.0
O197 O 0.57934 0.10946 0.2287 0.0
O198 O 0.62797 0.15281 0.40645 0.0
O199 O 0.52602 0.17938 0.56515 0.0
O200 O 0.50071 0.1145 0.41953 0.0
O201 O 0.43625 0.97359 0.94992 0.0
O202 O 0.46402 0.99521 0.14407 0.0
O203 O 0.46449 0.1154 0.12303 0.0
O204 O 0.37698 0.04086 0.11532 0.0
C205 C 0.41443 0.08971 0.07282 0.0
O206 O 0.51264 0.06872 0.44041 0.0
O207 O 0.54043 0.05851 0.62578 0.0
C208 C 0.3713 0.93914 0.27482 0.0
C209 C 0.51748 0.03587 0.52203 0.0
Zn210 Zn 0.87104 0.4387 0.57512 0.0
Zn211 Zn 0.05365 0.40287 0.03722 0.0
Zn212 Zn 0.94394 0.42209 0.24845 0.0
C213 C 0.92522 0.32772 0.07285 0.0
C214 C 0.02217 0.48715 0.0289 0.0
O215 O 0.94625 0.44692 0.44035 0.0
O216 O 0.95646 0.4849 0.62573 0.0
C217 C 0.85735 0.34367 0.46469 0.0
O218 O 0.89951 0.35208 0.12303 0.0
O219 O 0.97406 0.33912 0.11544 0.0
O220 O 0.04141 0.46559 0.94979 0.0
O221 O 0.0197 0.47165 0.14389 0.0
O222 O 0.83559 0.34962 0.56512 0.0
O223 O 0.90045 0.38919 0.41948 0.0
O224 O 0.90551 0.47292 0.22864 0.0
O225 O 0.86215 0.47815 0.40641 0.0
C226 C 0.87644 0.49068 0.29067 0.0
O227 O 0.03057 0.43468 0.23284 0.0
O228 O 0.10889 0.43219 0.19348 0.0
C229 C 0.97909 0.48461 0.52196 0.0
C230 C 0.07581 0.43515 0.27484 0.0
Zn231 Zn 0.57626 0.43529 0.57524 0.0
Zn232 Zn 0.61189 0.65359 0.03719 0.0
Zn233 Zn 0.59287 0.52489 0.24858 0.0
C234 C 0.68722 0.60054 0.07284 0.0
C235 C 0.52751 0.53772 0.02927 0.0
O236 O 0.56805 0.5023 0.4405 0.0
O237 O 0.53005 0.47449 0.62587 0.0
C238 C 0.67128 0.51665 0.46478 0.0
O239 O 0.66285 0.5505 0.12308 0.0
O240 O 0.67583 0.638 0.11528 0.0
O241 O 0.5492 0.57851 0.9501 0.0
O242 O 0.54292 0.55075 0.14432 0.0
O243 O 0.66534 0.48894 0.5652 0.0
O244 O 0.62575 0.51423 0.4196 0.0
O245 O 0.54211 0.43562 0.22879 0.0
O246 O 0.53683 0.38699 0.40651 0.0
C247 C 0.52433 0.38877 0.29077 0.0
O248 O 0.58022 0.59886 0.23286 0.0
O249 O 0.58261 0.6796 0.19335 0.0
C250 C 0.53035 0.49744 0.52212 0.0
C251 C 0.57973 0.64362 0.27477 0.0
Zn252 Zn 0.43811 0.86766 0.4434 0.0
Zn253 Zn 0.65423 0.05079 0.98257 0.0
Zn254 Zn 0.52815 0.94131 0.76997 0.0
C255 C 0.60394 0.92284 0.94748 0.0
C256 C 0.53736 0.01923 0.98617 0.0
O257 O 0.50522 0.94299 0.57773 0.0
O258 O 0.47718 0.95309 0.3924 0.0
C259 C 0.51959 0.85439 0.5542 0.0
O260 O 0.55404 0.89756 0.89656 0.0
O261 O 0.64165 0.97201 0.90684 0.0
O262 O 0.5779 0.03681 0.06577 0.0
O263 O 0.55023 0.01754 0.87067 0.0
O264 O 0.4919 0.83244 0.45383 0.0
O265 O 0.51694 0.89742 0.59918 0.0
O266 O 0.43876 0.90196 0.78994 0.0
O267 O 0.38994 0.8587 0.61236 0.0
C268 C 0.39183 0.87285 0.72821 0.0
O269 O 0.60113 0.02764 0.78668 0.0
O270 O 0.68119 0.10644 0.82705 0.0
C271 C 0.50022 0.97577 0.4961 0.0
C272 C 0.64589 0.0729 0.74521 0.0
Zn273 Zn 0.96413 0.60634 0.98252 0.0
Zn274 Zn 0.1473 0.57349 0.44335 0.0
Zn275 Zn 0.07362 0.58983 0.7699 0.0
C276 C 0.14209 0.52198 0.72814 0.0
C277 C 0.16059 0.66821 0.55423 0.0
O278 O 0.98729 0.57644 0.78664 0.0
O279 O 0.90847 0.57765 0.82703 0.0
C280 C 0.99572 0.52102 0.98601 0.0
O281 O 0.11299 0.53981 0.78988 0.0
O282 O 0.15624 0.53426 0.6123 0.0
O283 O 0.18255 0.6625 0.45385 0.0
O284 O 0.11755 0.62253 0.59914 0.0
O285 O 0.97818 0.54401 0.0656 0.0
O286 O 0.99738 0.53554 0.87048 0.0
O287 O 0.11733 0.65946 0.89652 0.0
O288 O 0.04288 0.67261 0.90681 0.0
C289 C 0.09205 0.68408 0.94744 0.0
O290 O 0.07196 0.56526 0.57764 0.0
O291 O 0.06187 0.52713 0.39231 0.0
C292 C 0.94202 0.57592 0.74519 0.0
C293 C 0.03918 0.52747 0.49601 0.0
Zn294 Zn 0.44149 0.57678 0.44342 0.0
Zn295 Zn 0.40838 0.3606 0.9826 0.0
Zn296 Zn 0.42511 0.48679 0.77003 0.0
C297 C 0.33084 0.41104 0.94751 0.0
C298 C 0.49365 0.47741 0.98639 0.0
O299 O 0.44974 0.5097 0.57781 0.0
O300 O 0.48785 0.53772 0.39247 0.0
C301 C 0.34674 0.49529 0.55418 0.0
O302 O 0.35548 0.46095 0.89661 0.0
O303 O 0.34226 0.37332 0.9068 0.0
O304 O 0.47075 0.43687 0.06597 0.0
O305 O 0.47907 0.46453 0.8709 0.0
O306 O 0.35248 0.52297 0.45381 0.0
O307 O 0.39241 0.49794 0.5992 0.0
O308 O 0.4752 0.57618 0.78996 0.0
O309 O 0.48071 0.62496 0.61236 0.0
C310 C 0.49301 0.62309 0.7282 0.0
O311 O 0.43841 0.41375 0.78671 0.0
O312 O 0.43707 0.33366 0.82706 0.0
C313 C 0.48752 0.5147 0.49618 0.0
C314 C 0.4389 0.36899 0.74524 0.0
Zn315 Zn 0.24642 0.4774 0.90867 0.0
Zn316 Zn 0.02822 0.2946 0.37059 0.0
Zn317 Zn 0.15668 0.40431 0.5821 0.0
C318 C 0.08094 0.42291 0.40634 0.0
C319 C 0.14422 0.32618 0.36308 0.0
O320 O 0.1793 0.40216 0.77406 0.0
O321 O 0.20715 0.39198 0.95941 0.0
C322 C 0.16515 0.49114 0.79808 0.0
O323 O 0.13097 0.4486 0.45664 0.0
O324 O 0.04351 0.37401 0.44867 0.0
O325 O 0.10345 0.30722 0.28388 0.0
O326 O 0.13123 0.32845 0.47821 0.0
O327 O 0.19286 0.51293 0.8985 0.0
O328 O 0.16751 0.44798 0.75302 0.0
O329 O 0.24597 0.44292 0.56225 0.0
O330 O 0.29469 0.48625 0.73992 0.0
C331 C 0.29285 0.47197 0.62416 0.0
O332 O 0.08281 0.31769 0.56632 0.0
O333 O 1.00217 0.23923 0.52661 0.0
C334 C 0.18418 0.36933 0.85567 0.0
C335 C 0.03806 0.2724 0.60809 0.0
Zn336 Zn 0.53753 0.77199 0.9087 0.0
Zn337 Zn 0.72036 0.7367 0.37056 0.0
Zn338 Zn 0.61062 0.75537 0.5821 0.0
C339 C 0.59203 0.66106 0.40624 0.0
C340 C 0.68878 0.82111 0.36314 0.0
O341 O 0.61277 0.78015 0.77406 0.0
O342 O 0.62296 0.81818 0.95942 0.0
C343 C 0.52384 0.677 0.79811 0.0
O344 O 0.56634 0.68539 0.45656 0.0
O345 O 0.64094 0.67253 0.44854 0.0
O346 O 0.70776 0.79934 0.28392 0.0
O347 O 0.68649 0.8058 0.47824 0.0
O348 O 0.50204 0.68291 0.89853 0.0
O349 O 0.56698 0.72253 0.75304 0.0
O350 O 0.57198 0.80602 0.56231 0.0
O351 O 0.52865 0.81141 0.73997 0.0
C352 C 0.54292 0.82384 0.62421 0.0
O353 O 0.69724 0.76813 0.56632 0.0
O354 O 0.77571 0.76597 0.52662 0.0
C355 C 0.64561 0.81785 0.85568 0.0
C356 C 0.74254 0.76867 0.6081 0.0
Zn357 Zn 0.24295 0.7685 0.90881 0.0
Zn358 Zn 0.27807 0.98651 0.37058 0.0
Zn359 Zn 0.25959 0.85829 0.58223 0.0
C360 C 0.35388 0.93404 0.40629 0.0
C361 C 0.19359 0.87042 0.36347 0.0
O362 O 0.23482 0.83561 0.77421 0.0
O363 O 0.19678 0.80775 0.95955 0.0
C364 C 0.33793 0.84977 0.79816 0.0
O365 O 0.32955 0.88403 0.45666 0.0
O366 O 0.3424 0.97148 0.44849 0.0
O367 O 0.21548 0.91116 0.28422 0.0
O368 O 0.20881 0.88342 0.47862 0.0
O369 O 0.33204 0.82206 0.89858 0.0
O370 O 0.29239 0.84739 0.75314 0.0
O371 O 0.20899 0.76898 0.56244 0.0
O372 O 0.20355 0.72022 0.74007 0.0
C373 C 0.19115 0.72208 0.62428 0.0
O374 O 0.24676 0.93207 0.56636 0.0
O375 O 0.24882 0.01264 0.52654 0.0
C376 C 0.19711 0.83073 0.85582 0.0
C377 C 0.2462 0.97682 0.60807 0.0
loop_
_geom_bond_atom_site_label_1
_geom_bond_atom_site_label_2
_geom_bond_distance
_geom_bond_site_symmetry_2
_ccdc_geom_bond_type
Zn0 O6 1.920 . S
Zn0 O12 1.898 . S
Zn0 O15 1.905 . S
Zn1 O9 1.905 . S
Zn1 O10 1.898 . S
Zn1 O18 1.920 . S
Zn2 O5 2.080 1_554 S
Zn2 O8 2.114 . S
Zn2 O11 2.120 . S
Zn2 O13 2.120 1_554 S
Zn2 O14 2.114 . S
Zn2 O17 2.080 . S
C3 O8 1.166 . S
C3 O9 1.182 . S
C4 O10 1.167 . S
C4 O11 1.299 . S
O5 Zn2 2.080 1_556 S
O5 C19 1.305 . S
O6 Zn0 1.920 . S
O6 C19 1.234 . S
C7 O12 1.167 . S
C7 O13 1.299 . S
O8 Zn2 2.114 . S
O8 C3 1.166 . S
O9 Zn1 1.905 . S
O9 C3 1.182 . S
O10 Zn1 1.898 . S
O10 C4 1.167 . S
O11 Zn2 2.120 . S
O11 C4 1.299 . S
O12 Zn0 1.898 . S
O12 C7 1.167 . S
O13 Zn2 2.120 1_556 S
O13 C7 1.299 . S
O14 Zn2 2.114 . S
O14 C16 1.166 . S
O15 Zn0 1.905 . S
O15 C16 1.182 1_556 S
C16 O14 1.166 . S
C16 O15 1.182 1_554 S
O17 Zn2 2.080 . S
O17 C20 1.305 . S
O18 Zn1 1.920 . S
O18 C20 1.234 . S
C19 O5 1.305 . S
C19 O6 1.234 . S
C20 O17 1.305 . S
C20 O18 1.234 . S
Zn21 O27 1.920 . S
Zn21 O33 1.898 . S
Zn21 O36 1.904 . S
Zn22 O30 1.905 . S
Zn22 O31 1.898 . S
Zn22 O39 1.920 . S
Zn23 O26 2.080 . S
Zn23 O29 2.114 . S
Zn23 O32 2.120 1_554 S
Zn23 O34 2.120 . S
Zn23 O35 2.114 . S
Zn23 O38 2.080 1_554 S
C24 O29 1.166 . S
C24 O30 1.182 1_554 S
C25 O31 1.167 1_545 S
C25 O32 1.299 1_545 S
O26 Zn23 2.080 . S
O26 C40 1.305 . S
O27 Zn21 1.920 . S
O27 C40 1.234 . S
C28 O33 1.167 . S
C28 O34 1.299 . S
O29 Zn23 2.114 . S
O29 C24 1.166 . S
O30 Zn22 1.905 . S
O30 C24 1.182 1_556 S
O31 Zn22 1.898 . S
O31 C25 1.167 1_565 S
O32 Zn23 2.120 1_556 S
O32 C25 1.299 1_565 S
O33 Zn21 1.898 . S
O33 C28 1.167 . S
O34 Zn23 2.120 . S
O34 C28 1.299 . S
O35 Zn23 2.114 . S
O35 C37 1.166 1_565 S
O36 Zn21 1.904 . S
O36 C37 1.182 1_565 S
C37 O35 1.166 1_545 S
C37 O36 1.182 1_545 S
O38 Zn23 2.080 1_556 S
O38 C41 1.305 . S
O39 Zn22 1.920 . S
O39 C41 1.234 . S
C40 O26 1.305 . S
C40 O27 1.234 . S
C41 O38 1.305 . S
C41 O39 1.234 . S
Zn42 O48 1.920 . S
Zn42 O54 1.898 . S
Zn42 O57 1.905 . S
Zn43 O51 1.903 . S
Zn43 O52 1.898 . S
Zn43 O60 1.920 . S
Zn44 O47 2.080 1_554 S
Zn44 O50 2.114 . S
Zn44 O53 2.120 . S
Zn44 O55 2.120 1_554 S
Zn44 O56 2.114 . S
Zn44 O59 2.080 . S
C45 O50 1.166 1_655 S
C45 O51 1.183 1_655 S
C46 O52 1.167 . S
C46 O53 1.299 . S
O47 Zn44 2.080 1_556 S
O47 C61 1.305 . S
O48 Zn42 1.920 . S
O48 C61 1.234 . S
C49 O54 1.167 1_655 S
C49 O55 1.299 1_655 S
O50 Zn44 2.114 . S
O50 C45 1.166 1_455 S
O51 Zn43 1.903 . S
O51 C45 1.183 1_455 S
O52 Zn43 1.898 . S
O52 C46 1.167 . S
O53 Zn44 2.120 . S
O53 C46 1.299 . S
O54 Zn42 1.898 . S
O54 C49 1.167 1_455 S
O55 Zn44 2.120 1_556 S
O55 C49 1.299 1_455 S
O56 Zn44 2.114 . S
O56 C58 1.166 . S
O57 Zn42 1.905 . S
O57 C58 1.182 1_556 S
C58 O56 1.166 . S
C58 O57 1.182 1_554 S
O59 Zn44 2.080 . S
O59 C62 1.305 . S
O60 Zn43 1.920 . S
O60 C62 1.234 . S
C61 O47 1.305 . S
C61 O48 1.234 . S
C62 O59 1.305 . S
C62 O60 1.234 . S
Zn63 O69 1.920 . S
Zn63 O75 1.898 . S
Zn63 O78 1.905 . S
Zn64 O72 1.905 . S
Zn64 O73 1.898 . S
Zn64 O81 1.920 . S
Zn65 O68 2.080 1_556 S
Zn65 O71 2.114 . S
Zn65 O74 2.120 . S
Zn65 O76 2.120 1_556 S
Zn65 O77 2.114 . S
Zn65 O80 2.080 . S
C66 O71 1.166 . S
C66 O72 1.182 . S
C67 O73 1.167 . S
C67 O74 1.299 . S
O68 Zn65 2.080 1_554 S
O68 C82 1.305 . S
O69 Zn63 1.920 . S
O69 C82 1.234 . S
C70 O75 1.167 . S
C70 O76 1.299 . S
O71 Zn65 2.114 . S
O71 C66 1.166 . S
O72 Zn64 1.905 . S
O72 C66 1.182 . S
O73 Zn64 1.898 . S
O73 C67 1.167 . S
O74 Zn65 2.120 . S
O74 C67 1.299 . S
O75 Zn63 1.898 . S
O75 C70 1.167 . S
O76 Zn65 2.120 1_554 S
O76 C70 1.299 . S
O77 Zn65 2.114 . S
O77 C79 1.166 . S
O78 Zn63 1.905 . S
O78 C79 1.182 1_554 S
C79 O77 1.166 . S
C79 O78 1.182 1_556 S
O80 Zn65 2.080 . S
O80 C83 1.305 . S
O81 Zn64 1.920 . S
O81 C83 1.234 . S
C82 O68 1.305 . S
C82 O69 1.234 . S
C83 O80 1.305 . S
C83 O81 1.234 . S
Zn84 O90 1.920 . S
Zn84 O96 1.898 . S
Zn84 O99 1.905 . S
Zn85 O93 1.904 . S
Zn85 O94 1.898 . S
Zn85 O102 1.920 . S
Zn86 O89 2.080 1_556 S
Zn86 O92 2.114 . S
Zn86 O95 2.120 . S
Zn86 O97 2.120 1_556 S
Zn86 O98 2.114 . S
Zn86 O101 2.080 . S
C87 O92 1.166 1_565 S
C87 O93 1.182 1_565 S
C88 O94 1.167 . S
C88 O95 1.299 . S
O89 Zn86 2.080 1_554 S
O89 C103 1.305 . S
O90 Zn84 1.920 . S
O90 C103 1.234 . S
C91 O96 1.167 1_565 S
C91 O97 1.299 1_565 S
O92 Zn86 2.114 . S
O92 C87 1.166 1_545 S
O93 Zn85 1.904 . S
O93 C87 1.182 1_545 S
O94 Zn85 1.898 . S
O94 C88 1.167 . S
O95 Zn86 2.120 . S
O95 C88 1.299 . S
O96 Zn84 1.898 . S
O96 C91 1.167 1_545 S
O97 Zn86 2.120 1_554 S
O97 C91 1.299 1_545 S
O98 Zn86 2.114 . S
O98 C100 1.166 . S
O99 Zn84 1.905 . S
O99 C100 1.182 1_554 S
C100 O98 1.166 . S
C100 O99 1.182 1_556 S
O101 Zn86 2.080 . S
O101 C104 1.305 . S
O102 Zn85 1.920 . S
O102 C104 1.234 . S
C103 O89 1.305 . S
C103 O90 1.234 . S
C104 O101 1.305 . S
C104 O102 1.234 . S
Zn105 O111 1.920 . S
Zn105 O117 1.898 . S
Zn105 O120 1.905 . S
Zn106 O114 1.903 . S
Zn106 O115 1.898 . S
Zn106 O123 1.920 . S
Zn107 O110 2.080 1_556 S
Zn107 O113 2.114 . S
Zn107 O116 2.120 . S
Zn107 O118 2.120 1_556 S
Zn107 O119 2.114 . S
Zn107 O122 2.080 . S
C108 O113 1.166 1_455 S
C108 O114 1.183 1_455 S
C109 O115 1.167 . S
C109 O116 1.299 . S
O110 Zn107 2.080 1_554 S
O110 C124 1.305 . S
O111 Zn105 1.920 . S
O111 C124 1.234 . S
C112 O117 1.167 1_455 S
C112 O118 1.299 1_455 S
O113 Zn107 2.114 . S
O113 C108 1.166 1_655 S
O114 Zn106 1.903 . S
O114 C108 1.183 1_655 S
O115 Zn106 1.898 . S
O115 C109 1.167 . S
O116 Zn107 2.120 . S
O116 C109 1.299 . S
O117 Zn105 1.898 . S
O117 C112 1.167 1_655 S
O118 Zn107 2.120 1_554 S
O118 C112 1.299 1_655 S
O119 Zn107 2.114 . S
O119 C121 1.166 . S
O120 Zn105 1.905 . S
O120 C121 1.182 1_554 S
C121 O119 1.166 . S
C121 O120 1.182 1_556 S
O122 Zn107 2.080 . S
O122 C125 1.305 . S
O123 Zn106 1.920 . S
O123 C125 1.234 . S
C124 O110 1.305 . S
C124 O111 1.234 . S
C125 O122 1.305 . S
C125 O123 1.234 . S
Zn126 O132 1.920 . S
Zn126 O138 1.898 . S
Zn126 O141 1.905 . S
Zn127 O135 1.905 . S
Zn127 O136 1.898 . S
Zn127 O144 1.920 . S
Zn128 O131 2.080 . S
Zn128 O134 2.114 . S
Zn128 O137 2.120 . S
Zn128 O139 2.120 . S
Zn128 O140 2.114 . S
Zn128 O143 2.080 . S
C129 O134 1.166 . S
C129 O135 1.182 . S
C130 O136 1.167 . S
C130 O137 1.299 . S
O131 Zn128 2.080 . S
O131 C145 1.305 . S
O132 Zn126 1.920 . S
O132 C145 1.234 . S
C133 O138 1.167 . S
C133 O139 1.299 . S
O134 Zn128 2.114 . S
O134 C129 1.166 . S
O135 Zn127 1.905 . S
O135 C129 1.182 . S
O136 Zn127 1.898 . S
O136 C130 1.167 . S
O137 Zn128 2.120 . S
O137 C130 1.299 . S
O138 Zn126 1.898 . S
O138 C133 1.167 . S
O139 Zn128 2.120 . S
O139 C133 1.299 . S
O140 Zn128 2.114 . S
O140 C142 1.166 . S
O141 Zn126 1.905 . S
O141 C142 1.182 . S
C142 O140 1.166 . S
C142 O141 1.182 . S
O143 Zn128 2.080 . S
O143 C146 1.305 . S
O144 Zn127 1.920 . S
O144 C146 1.234 . S
C145 O131 1.305 . S
C145 O132 1.234 . S
C146 O143 1.305 . S
C146 O144 1.234 . S
Zn147 O153 1.920 . S
Zn147 O159 1.898 . S
Zn147 O162 1.905 . S
Zn148 O156 1.905 . S
Zn148 O157 1.898 . S
Zn148 O165 1.920 . S
Zn149 O152 2.080 . S
Zn149 O155 2.114 . S
Zn149 O158 2.120 . S
Zn149 O160 2.120 . S
Zn149 O161 2.114 . S
Zn149 O164 2.080 . S
C150 O155 1.166 . S
C150 O156 1.182 . S
C151 O157 1.167 . S
C151 O158 1.299 . S
O152 Zn149 2.080 . S
O152 C166 1.305 . S
O153 Zn147 1.920 . S
O153 C166 1.234 . S
C154 O159 1.167 . S
C154 O160 1.299 . S
O155 Zn149 2.114 . S
O155 C150 1.166 . S
O156 Zn148 1.905 . S
O156 C150 1.182 . S
O157 Zn148 1.898 . S
O157 C151 1.167 . S
O158 Zn149 2.120 . S
O158 C151 1.299 . S
O159 Zn147 1.898 . S
O159 C154 1.167 . S
O160 Zn149 2.120 . S
O160 C154 1.299 . S
O161 Zn149 2.114 . S
O161 C163 1.166 . S
O162 Zn147 1.905 . S
O162 C163 1.182 . S
C163 O161 1.166 . S
C163 O162 1.182 . S
O164 Zn149 2.080 . S
O164 C167 1.305 . S
O165 Zn148 1.920 . S
O165 C167 1.234 . S
C166 O152 1.305 . S
C166 O153 1.234 . S
C167 O164 1.305 . S
C167 O165 1.234 . S
Zn168 O174 1.920 . S
Zn168 O180 1.898 . S
Zn168 O183 1.905 . S
Zn169 O177 1.905 . S
Zn169 O178 1.898 . S
Zn169 O186 1.920 . S
Zn170 O173 2.080 . S
Zn170 O176 2.114 . S
Zn170 O179 2.120 . S
Zn170 O181 2.120 . S
Zn170 O182 2.114 . S
Zn170 O185 2.080 . S
C171 O176 1.166 . S
C171 O177 1.182 . S
C172 O178 1.167 . S
C172 O179 1.299 . S
O173 Zn170 2.080 . S
O173 C187 1.305 . S
O174 Zn168 1.920 . S
O174 C187 1.234 . S
C175 O180 1.167 . S
C175 O181 1.299 . S
O176 Zn170 2.114 . S
O176 C171 1.166 . S
O177 Zn169 1.905 . S
O177 C171 1.182 . S
O178 Zn169 1.898 . S
O178 C172 1.167 . S
O179 Zn170 2.120 . S
O179 C172 1.299 . S
O180 Zn168 1.898 . S
O180 C175 1.167 . S
O181 Zn170 2.120 . S
O181 C175 1.299 . S
O182 Zn170 2.114 . S
O182 C184 1.166 . S
O183 Zn168 1.905 . S
O183 C184 1.182 . S
C184 O182 1.166 . S
C184 O183 1.182 . S
O185 Zn170 2.080 . S
O185 C188 1.305 . S
O186 Zn169 1.920 . S
O186 C188 1.234 . S
C187 O173 1.305 . S
C187 O174 1.234 . S
C188 O185 1.305 . S
C188 O186 1.234 . S
Zn189 O195 1.920 . S
Zn189 O201 1.898 1_554 S
Zn189 O204 1.905 1_565 S
Zn190 O198 1.905 . S
Zn190 O199 1.898 . S
Zn190 O207 1.920 . S
Zn191 O194 2.080 . S
Zn191 O197 2.114 . S
Zn191 O200 2.120 . S
Zn191 O202 2.120 . S
Zn191 O203 2.114 . S
Zn191 O206 2.080 . S
C192 O197 1.166 . S
C192 O198 1.182 . S
C193 O199 1.167 . S
C193 O200 1.299 . S
O194 Zn191 2.080 . S
O194 C208 1.305 1_545 S
O195 Zn189 1.920 . S
O195 C208 1.234 . S
C196 O201 1.167 1_554 S
C196 O202 1.299 1_565 S
O197 Zn191 2.114 . S
O197 C192 1.166 . S
O198 Zn190 1.905 . S
O198 C192 1.182 . S
O199 Zn190 1.898 . S
O199 C193 1.167 . S
O200 Zn191 2.120 . S
O200 C193 1.299 . S
O201 Zn189 1.898 1_556 S
O201 C196 1.167 1_556 S
O202 Zn191 2.120 . S
O202 C196 1.299 1_545 S
O203 Zn191 2.114 . S
O203 C205 1.166 . S
O204 Zn189 1.905 1_545 S
O204 C205 1.182 . S
C205 O203 1.166 . S
C205 O204 1.182 . S
O206 Zn191 2.080 . S
O206 C209 1.305 . S
O207 Zn190 1.920 . S
O207 C209 1.234 . S
C208 O194 1.305 1_565 S
C208 O195 1.234 . S
C209 O206 1.305 . S
C209 O207 1.234 . S
Zn210 O216 1.920 . S
Zn210 O222 1.898 . S
Zn210 O225 1.905 . S
Zn211 O219 1.905 1_455 S
Zn211 O220 1.898 1_554 S
Zn211 O228 1.920 . S
Zn212 O215 2.080 . S
Zn212 O218 2.114 . S
Zn212 O221 2.120 . S
Zn212 O223 2.120 . S
Zn212 O224 2.114 . S
Zn212 O227 2.080 . S
C213 O218 1.166 . S
C213 O219 1.182 . S
C214 O220 1.167 1_554 S
C214 O221 1.299 1_455 S
O215 Zn212 2.080 . S
O215 C229 1.305 . S
O216 Zn210 1.920 . S
O216 C229 1.234 . S
C217 O222 1.167 . S
C217 O223 1.299 . S
O218 Zn212 2.114 . S
O218 C213 1.166 . S
O219 Zn211 1.905 1_655 S
O219 C213 1.182 . S
O220 Zn211 1.898 1_556 S
O220 C214 1.167 1_556 S
O221 Zn212 2.120 . S
O221 C214 1.299 1_655 S
O222 Zn210 1.898 . S
O222 C217 1.167 . S
O223 Zn212 2.120 . S
O223 C217 1.299 . S
O224 Zn212 2.114 . S
O224 C226 1.166 . S
O225 Zn210 1.905 . S
O225 C226 1.182 . S
C226 O224 1.166 . S
C226 O225 1.182 . S
O227 Zn212 2.080 . S
O227 C230 1.305 1_655 S
O228 Zn211 1.920 . S
O228 C230 1.234 . S
C229 O215 1.305 . S
C229 O216 1.234 . S
C230 O227 1.305 1_455 S
C230 O228 1.234 . S
Zn231 O237 1.920 . S
Zn231 O243 1.898 . S
Zn231 O246 1.905 . S
Zn232 O240 1.905 . S
Zn232 O241 1.898 1_554 S
Zn232 O249 1.920 . S
Zn233 O236 2.080 . S
Zn233 O239 2.114 . S
Zn233 O242 2.120 . S
Zn233 O244 2.120 . S
Zn233 O245 2.114 . S
Zn233 O248 2.080 . S
C234 O239 1.166 . S
C234 O240 1.182 . S
C235 O241 1.167 1_554 S
C235 O242 1.299 . S
O236 Zn233 2.080 . S
O236 C250 1.305 . S
O237 Zn231 1.920 . S
O237 C250 1.234 . S
C238 O243 1.167 . S
C238 O244 1.299 . S
O239 Zn233 2.114 . S
O239 C234 1.166 . S
O240 Zn232 1.905 . S
O240 C234 1.182 . S
O241 Zn232 1.898 1_556 S
O241 C235 1.167 1_556 S
O242 Zn233 2.120 . S
O242 C235 1.299 . S
O243 Zn231 1.898 . S
O243 C238 1.167 . S
O244 Zn233 2.120 . S
O244 C238 1.299 . S
O245 Zn233 2.114 . S
O245 C247 1.166 . S
O246 Zn231 1.905 . S
O246 C247 1.182 . S
C247 O245 1.166 . S
C247 O246 1.182 . S
O248 Zn233 2.080 . S
O248 C251 1.305 . S
O249 Zn232 1.920 . S
O249 C251 1.234 . S
C250 O236 1.305 . S
C250 O237 1.234 . S
C251 O248 1.305 . S
C251 O249 1.234 . S
Zn252 O258 1.920 . S
Zn252 O264 1.898 . S
Zn252 O267 1.905 . S
Zn253 O261 1.905 1_545 S
Zn253 O262 1.898 1_556 S
Zn253 O270 1.920 . S
Zn254 O257 2.080 . S
Zn254 O260 2.114 . S
Zn254 O263 2.120 . S
Zn254 O265 2.120 . S
Zn254 O266 2.114 . S
Zn254 O269 2.080 . S
C255 O260 1.166 . S
C255 O261 1.182 . S
C256 O262 1.167 1_556 S
C256 O263 1.299 1_545 S
O257 Zn254 2.080 . S
O257 C271 1.305 . S
O258 Zn252 1.920 . S
O258 C271 1.234 . S
C259 O264 1.167 . S
C259 O265 1.299 . S
O260 Zn254 2.114 . S
O260 C255 1.166 . S
O261 Zn253 1.905 1_565 S
O261 C255 1.182 . S
O262 Zn253 1.898 1_554 S
O262 C256 1.167 1_554 S
O263 Zn254 2.120 . S
O263 C256 1.299 1_565 S
O264 Zn252 1.898 . S
O264 C259 1.167 . S
O265 Zn254 2.120 . S
O265 C259 1.299 . S
O266 Zn254 2.114 . S
O266 C268 1.166 . S
O267 Zn252 1.905 . S
O267 C268 1.182 . S
C268 O266 1.166 . S
C268 O267 1.182 . S
O269 Zn254 2.080 . S
O269 C272 1.305 1_565 S
O270 Zn253 1.920 . S
O270 C272 1.234 . S
C271 O257 1.305 . S
C271 O258 1.234 . S
C272 O269 1.305 1_545 S
C272 O270 1.234 . S
Zn273 O279 1.920 . S
Zn273 O285 1.898 1_556 S
Zn273 O288 1.905 1_655 S
Zn274 O282 1.905 . S
Zn274 O283 1.898 . S
Zn274 O291 1.920 . S
Zn275 O278 2.080 . S
Zn275 O281 2.114 . S
Zn275 O284 2.120 . S
Zn275 O286 2.120 . S
Zn275 O287 2.114 . S
Zn275 O290 2.080 . S
C276 O281 1.166 . S
C276 O282 1.182 . S
C277 O283 1.167 . S
C277 O284 1.299 . S
O278 Zn275 2.080 . S
O278 C292 1.305 1_455 S
O279 Zn273 1.920 . S
O279 C292 1.234 . S
C280 O285 1.167 1_556 S
C280 O286 1.299 1_655 S
O281 Zn275 2.114 . S
O281 C276 1.166 . S
O282 Zn274 1.905 . S
O282 C276 1.182 . S
O283 Zn274 1.898 . S
O283 C277 1.167 . S
O284 Zn275 2.120 . S
O284 C277 1.299 . S
O285 Zn273 1.898 1_554 S
O285 C280 1.167 1_554 S
O286 Zn275 2.120 . S
O286 C280 1.299 1_455 S
O287 Zn275 2.114 . S
O287 C289 1.166 . S
O288 Zn273 1.905 1_455 S
O288 C289 1.182 . S
C289 O287 1.166 . S
C289 O288 1.182 . S
O290 Zn275 2.080 . S
O290 C293 1.305 . S
O291 Zn274 1.920 . S
O291 C293 1.234 . S
C292 O278 1.305 1_655 S
C292 O279 1.234 . S
C293 O290 1.305 . S
C293 O291 1.234 . S
Zn294 O300 1.920 . S
Zn294 O306 1.898 . S
Zn294 O309 1.905 . S
Zn295 O303 1.905 . S
Zn295 O304 1.898 1_556 S
Zn295 O312 1.920 . S
Zn296 O299 2.080 . S
Zn296 O302 2.114 . S
Zn296 O305 2.120 . S
Zn296 O307 2.120 . S
Zn296 O308 2.114 . S
Zn296 O311 2.080 . S
C297 O302 1.166 . S
C297 O303 1.182 . S
C298 O304 1.167 1_556 S
C298 O305 1.299 . S
O299 Zn296 2.080 . S
O299 C313 1.305 . S
O300 Zn294 1.920 . S
O300 C313 1.234 . S
C301 O306 1.167 . S
C301 O307 1.299 . S
O302 Zn296 2.114 . S
O302 C297 1.166 . S
O303 Zn295 1.905 . S
O303 C297 1.182 . S
O304 Zn295 1.898 1_554 S
O304 C298 1.167 1_554 S
O305 Zn296 2.120 . S
O305 C298 1.299 . S
O306 Zn294 1.898 . S
O306 C301 1.167 . S
O307 Zn296 2.120 . S
O307 C301 1.299 . S
O308 Zn296 2.114 . S
O308 C310 1.166 . S
O309 Zn294 1.905 . S
O309 C310 1.182 . S
C310 O308 1.166 . S
C310 O309 1.182 . S
O311 Zn296 2.080 . S
O311 C314 1.305 . S
O312 Zn295 1.920 . S
O312 C314 1.234 . S
C313 O299 1.305 . S
C313 O300 1.234 . S
C314 O311 1.305 . S
C314 O312 1.234 . S
Zn315 O321 1.920 . S
Zn315 O327 1.898 . S
Zn315 O330 1.905 . S
Zn316 O324 1.905 . S
Zn316 O325 1.898 . S
Zn316 O333 1.920 . S
Zn317 O320 2.080 . S
Zn317 O323 2.114 . S
Zn317 O326 2.120 . S
Zn317 O328 2.120 . S
Zn317 O329 2.114 . S
Zn317 O332 2.080 . S
C318 O323 1.166 . S
C318 O324 1.182 . S
C319 O325 1.167 . S
C319 O326 1.299 . S
O320 Zn317 2.080 . S
O320 C334 1.305 . S
O321 Zn315 1.920 . S
O321 C334 1.234 . S
C322 O327 1.167 . S
C322 O328 1.299 . S
O323 Zn317 2.114 . S
O323 C318 1.166 . S
O324 Zn316 1.905 . S
O324 C318 1.182 . S
O325 Zn316 1.898 . S
O325 C319 1.167 . S
O326 Zn317 2.120 . S
O326 C319 1.299 . S
O327 Zn315 1.898 . S
O327 C322 1.167 . S
O328 Zn317 2.120 . S
O328 C322 1.299 . S
O329 Zn317 2.114 . S
O329 C331 1.166 . S
O330 Zn315 1.905 . S
O330 C331 1.182 . S
C331 O329 1.166 . S
C331 O330 1.182 . S
O332 Zn317 2.080 . S
O332 C335 1.305 . S
O333 Zn316 1.920 . S
O333 C335 1.234 . S
C334 O320 1.305 . S
C334 O321 1.234 . S
C335 O332 1.305 . S
C335 O333 1.234 . S
Zn336 O342 1.920 . S
Zn336 O348 1.898 . S
Zn336 O351 1.905 . S
Zn337 O345 1.905 . S
Zn337 O346 1.898 . S
Zn337 O354 1.920 . S
Zn338 O341 2.080 . S
Zn338 O344 2.114 . S
Zn338 O347 2.120 . S
Zn338 O349 2.120 . S
Zn338 O350 2.114 . S
Zn338 O353 2.080 . S
C339 O344 1.166 . S
C339 O345 1.182 . S
C340 O346 1.167 . S
C340 O347 1.299 . S
O341 Zn338 2.080 . S
O341 C355 1.305 . S
O342 Zn336 1.920 . S
O342 C355 1.234 . S
C343 O348 1.167 . S
C343 O349 1.299 . S
O344 Zn338 2.114 . S
O344 C339 1.166 . S
O345 Zn337 1.905 . S
O345 C339 1.182 . S
O346 Zn337 1.898 . S
O346 C340 1.167 . S
O347 Zn338 2.120 . S
O347 C340 1.299 . S
O348 Zn336 1.898 . S
O348 C343 1.167 . S
O349 Zn338 2.120 . S
O349 C343 1.299 . S
O350 Zn338 2.114 . S
O350 C352 1.166 . S
O351 Zn336 1.905 . S
O351 C352 1.182 . S
C352 O350 1.166 . S
C352 O351 1.182 . S
O353 Zn338 2.080 . S
O353 C356 1.305 . S
O354 Zn337 1.920 . S
O354 C356 1.234 . S
C355 O341 1.305 . S
C355 O342 1.234 . S
C356 O353 1.305 . S
C356 O354 1.234 . S
Zn357 O363 1.920 . S
Zn357 O369 1.898 . S
Zn357 O372 1.905 . S
Zn358 O366 1.905 . S
Zn358 O367 1.898 . S
Zn358 O375 1.920 . S
Zn359 O362 2.080 . S
Zn359 O365 2.114 . S
Zn359 O368 2.120 . S
Zn359 O370 2.120 . S
Zn359 O371 2.114 . S
Zn359 O374 2.080 . S
C360 O365 1.166 . S
C360 O366 1.182 . S
C361 O367 1.167 . S
C361 O368 1.299 . S
O362 Zn359 2.080 . S
O362 C376 1.305 . S
O363 Zn357 1.920 . S
O363 C376 1.234 . S
C364 O369 1.167 . S
C364 O370 1.299 . S
O365 Zn359 2.114 . S
O365 C360 1.166 . S
O366 Zn358 1.905 . S
O366 C360 1.182 . S
O367 Zn358 1.898 . S
O367 C361 1.167 . S
O368 Zn359 2.120 . S
O368 C361 1.299 . S
O369 Zn357 1.898 . S
O369 C364 1.167 . S
O370 Zn359 2.120 . S
O370 C364 1.299 . S
O371 Zn359 2.114 . S
O371 C373 1.166 . S
O372 Zn357 1.905 . S
O372 C373 1.182 . S
C373 O371 1.166 . S
C373 O372 1.182 . S
O374 Zn359 2.080 . S
O374 C377 1.305 . S
O375 Zn358 1.920 . S
O375 C377 1.234 . S
C376 O362 1.305 . S
C376 O363 1.234 . S
C377 O374 1.305 . S
C377 O375 1.234 . S
C100 C7 1.093 . S
C25 C121 1.093 . S
C79 C49 1.093 . S
C70 C24 1.093 . S
C91 C58 1.093 . S
C16 C112 1.093 . S
C133 C226 1.093 . S
C247 C154 1.093 . S
C192 C172 1.093 . S
C193 C163 1.093 . S
C171 C217 1.093 . S
C238 C142 1.093 . S
C352 C259 1.093 . S
C277 C373 1.093 . S
C331 C301 1.093 . S
C276 C322 1.093 . S
C343 C310 1.093 . S
C268 C364 1.093 . S
C19 C334 2.421 . S
C41 C355 2.421 . S
C376 C61 2.420 . S
C82 C145 2.421 . S
C103 C166 2.421 . S
C188 C124 2.420 . S
C271 C209 2.421 1_565 S
C293 C229 2.421 1_455 S
C313 C250 2.420 . S
C3 C167 1.262 . S
C187 C37 1.262 . S
C146 C45 1.262 . S
C66 C356 1.262 . S
C377 C87 1.262 . S
C108 C335 1.262 . S
C129 C292 1.262 . S
C150 C314 1.262 . S
C184 C272 1.262 . S
C104 C205 1.262 1_556 S
C125 C213 1.262 1_556 S
C83 C234 1.262 1_556 S
C255 C40 1.262 1_556 S
C289 C62 1.262 1_556 S
C20 C297 1.262 1_554 S
C230 C318 1.262 . S
C339 C251 1.262 . S
C208 C360 1.262 . S
C4 C319 1.247 . S
C28 C340 1.247 . S
C46 C361 1.247 . S
C130 C67 1.247 . S
C88 C151 1.247 . S
C175 C109 1.247 . S
C196 C256 1.247 1_564 S
C214 C280 1.247 1_454 S
C298 C235 1.247 1_556 S
