# Generated by pormake.
# Topology hcp, (12)-cn, num edge types: 1
# Building blocks:
#     Node 0, Type 0, BuildingBlock: UKIBUN_clean_sbu_0, # of connection points: 12
#     Node 1, Type 0, BuildingBlock: UKIBUN_clean_sbu_0, # of connection points: 12
#     Edge 2, Type (0, 0), BuildingBlock: TEMPAE_clean_linker_10, # of connection points: 2
#     Edge 3, Type (0, 0), BuildingBlock: TEMPAE_clean_linker_10, # of connection points: 2
#     Edge 4, Type (0, 0), BuildingBlock: TEMPAE_clean_linker_10, # of connection points: 2
#     Edge 5, Type (0, 0), BuildingBlock: TEMPAE_clean_linker_10, # of connection points: 2
#     Edge 6, Type (0, 0), BuildingBlock: TEMPAE_clean_linker_10, # of connection points: 2
#     Edge 7, Type (0, 0), BuildingBlock: TEMPAE_clean_linker_10, # of connection points: 2
#     Edge 8, Type (0, 0), BuildingBlock: TEMPAE_clean_linker_10, # of connection points: 2
#     Edge 9, Type (0, 0), BuildingBlock: TEMPAE_clean_linker_10, # of connection points: 2
#     Edge 10, Type (0, 0), BuildingBlock: TEMPAE_clean_linker_10, # of connection points: 2
#     Edge 11, Type (0, 0), BuildingBlock: TEMPAE_clean_linker_10, # of connection points: 2
#     Edge 12, Type (0, 0), BuildingBlock: TEMPAE_clean_linker_10, # of connection points: 2
#     Edge 13, Type (0, 0), BuildingBlock: TEMPAE_clean_linker_10, # of connection points: 2
# Relax obj value: 0.181
# Max RMSD: 0.266
# Mean RMSD: 0.266
data_MOF--net-hcp--node1-UKIBUN_clean_sbu_0--edge1-TEMPAE_clean_linker_10
_symmetry_space_group_name_H-M    P1
_symmetry_Int_Tables_number       1
_symmetry_cell_setting            triclinic
loop_
_symmetry_equiv_pos_as_xyz
'x, y, z'
_cell_length_a     18.308261
_cell_length_b     18.308569
_cell_length_c     29.681695
_cell_angle_alpha  89.785946
_cell_angle_beta   90.112322
_cell_angle_gamma 120.196
loop_
_atom_site_label
_atom_site_type_symbol
_atom_site_fract_x
_atom_site_fract_y
_atom_site_fract_z
_atom_type_partial_charge
C0 C 0.91991 0.53574 0.25807 0.0
C1 C 0.85583 0.27378 0.2648 0.0
O2 O 0.73161 0.44944 0.28267 0.0
O3 O 0.65429 0.3354 0.19254 0.0
O4 O 0.61831 0.41417 0.23828 0.0
O5 O 0.76484 0.36994 0.2401 0.0
Hf6 Hf 0.73701 0.45616 0.21346 0.0
O7 O 0.65164 0.33566 0.32788 0.0
Hf8 Hf 0.77235 0.37274 0.30898 0.0
O9 O 0.53943 0.30066 0.28172 0.0
Hf10 Hf 0.61556 0.41892 0.30741 0.0
O11 O 0.68641 0.25801 0.28351 0.0
Hf12 Hf 0.5335 0.29844 0.21249 0.0
Hf13 Hf 0.6901 0.25161 0.21465 0.0
O14 O 0.57543 0.22347 0.23958 0.0
Hf15 Hf 0.56778 0.21522 0.30843 0.0
C16 C 0.53315 0.16456 0.14444 0.0
C17 C 0.76167 0.48996 0.38428 0.0
C18 C 0.4334 0.36975 0.26761 0.0
C19 C 0.71742 0.60209 0.26287 0.0
O20 O 0.75066 0.58082 0.23072 0.0
O21 O 0.81201 0.44649 0.15668 0.0
C22 C 0.81919 0.38369 0.14205 0.0
O23 O 0.58045 0.10126 0.30173 0.0
O24 O 0.41858 0.17226 0.22056 0.0
O25 O 0.54098 0.3866 0.15795 0.0
O26 O 0.49423 0.22558 0.36596 0.0
O27 O 0.75748 0.29652 0.37132 0.0
O28 O 0.89723 0.48325 0.29145 0.0
O29 O 0.80654 0.24717 0.2301 0.0
O30 O 0.5974 0.16539 0.1634 0.0
C31 C 0.49261 0.29061 0.38189 0.0
O32 O 0.49319 0.41363 0.29593 0.0
O33 O 0.69067 0.48096 0.36987 0.0
C34 C 0.6187 0.08146 0.27189 0.0
O35 O 0.61812 0.19199 0.36984 0.0
O36 O 0.68065 0.48979 0.15727 0.0
O37 O 0.87106 0.53682 0.22732 0.0
O38 O 0.44164 0.12013 0.28629 0.0
O39 O 0.6567 0.12459 0.23658 0.0
O40 O 0.53318 0.36581 0.36578 0.0
C41 C 0.39894 0.11432 0.25074 0.0
O42 O 0.66538 0.55201 0.29263 0.0
O43 O 0.80336 0.45949 0.36529 0.0
O44 O 0.77635 0.3072 0.15692 0.0
O45 O 0.43692 0.32656 0.23455 0.0
O46 O 0.50687 0.21622 0.15348 0.0
O47 O 0.85139 0.31737 0.29729 0.0
C48 C 0.69205 0.22981 0.38747 0.0
C49 C 0.60399 0.4566 0.14293 0.0
C50 C 0.47636 0.70823 0.88016 0.0
C51 C 0.28951 0.77492 0.88632 0.0
O52 O 0.43018 0.6962 0.77936 0.0
O53 O 0.23818 0.55076 0.78326 0.0
O54 O 0.34778 0.58233 0.73791 0.0
O55 O 0.32035 0.66471 0.82614 0.0
Hf56 Hf 0.35392 0.57904 0.80677 0.0
O57 O 0.39373 0.77411 0.73543 0.0
Hf58 Hf 0.40298 0.78365 0.80413 0.0
O59 O 0.31157 0.65848 0.69132 0.0
Hf60 Hf 0.43344 0.69624 0.71024 0.0
O61 O 0.28289 0.74167 0.78134 0.0
Hf62 Hf 0.2282 0.53924 0.71436 0.0
Hf63 Hf 0.19879 0.62832 0.8097 0.0
O64 O 0.20243 0.6266 0.7405 0.0
Hf65 Hf 0.27638 0.74286 0.71216 0.0
C66 C 0.05966 0.44408 0.77275 0.0
C67 C 0.58372 0.8631 0.75764 0.0
C68 C 0.35573 0.54023 0.63975 0.0
C69 C 0.51579 0.59521 0.75452 0.0
O70 O 0.46452 0.56603 0.7884 0.0
O71 O 0.27994 0.51812 0.87006 0.0
C72 C 0.2126 0.51482 0.88648 0.0
O73 O 0.15191 0.73293 0.72318 0.0
O74 O 0.14515 0.54493 0.66075 0.0
O75 O 0.22246 0.41764 0.72954 0.0
O76 O 0.36168 0.82262 0.65649 0.0
O77 O 0.39835 0.90139 0.79275 0.0
O78 O 0.46894 0.77102 0.86531 0.0
O79 O 0.22273 0.70551 0.87338 0.0
O80 O 0.08281 0.50188 0.8032 0.0
C81 C 0.4313 0.83014 0.64091 0.0
O82 O 0.41937 0.61113 0.6531 0.0
O83 O 0.56048 0.80711 0.72603 0.0
C84 C 0.09789 0.69996 0.75559 0.0
O85 O 0.30829 0.86942 0.7326 0.0
O86 O 0.29774 0.44424 0.79516 0.0
O87 O 0.44263 0.63482 0.86225 0.0
O88 O 0.1881 0.68573 0.65547 0.0
O89 O 0.10676 0.66631 0.79175 0.0
O90 O 0.46482 0.78663 0.65445 0.0
C91 C 0.14028 0.60788 0.64406 0.0
O92 O 0.51457 0.64316 0.72319 0.0
O93 O 0.53494 0.86681 0.78735 0.0
O94 O 0.17362 0.54979 0.86914 0.0
O95 O 0.28065 0.5059 0.65647 0.0
O96 O 0.1003 0.44882 0.73663 0.0
O97 O 0.35579 0.81724 0.86233 0.0
C98 C 0.35375 0.91723 0.76485 0.0
C99 C 0.25158 0.39552 0.76338 0.0
C100 C 0.23875 0.80677 0.96049 0.0
C101 C 0.30187 0.80774 0.93337 0.0
C102 C 0.26053 0.85267 1.00156 0.0
C103 C 0.347 0.90152 1.01468 0.0
C104 C 0.40916 0.89709 0.98883 0.0
C105 C 0.38561 0.84963 0.94953 0.0
C106 C 0.19148 0.85113 0.02978 0.0
C107 C 0.50219 0.94696 1.00081 0.0
C108 C 0.44932 0.11327 0.07332 0.0
C109 C 0.48099 0.09585 0.11239 0.0
C110 C 0.39868 0.04878 0.04282 0.0
C111 C 0.37664 0.96411 0.0523 0.0
C112 C 0.40258 0.94538 0.09369 0.0
C113 C 0.456 0.01164 0.12278 0.0
C114 C 0.37406 0.07231 0.99888 0.0
C115 C 0.37762 0.85588 0.10629 0.0
H116 H 0.17375 0.77359 0.94901 0.0
H117 H 0.43515 0.84904 0.92995 0.0
H118 H 0.20783 0.85816 0.06615 0.0
H119 H 0.18226 0.90428 0.01957 0.0
H120 H 0.13063 0.79139 0.02475 0.0
H121 H 0.54263 0.93876 0.97584 0.0
H122 H 0.52347 0.01531 1.00289 0.0
H123 H 0.51312 0.92678 0.03415 0.0
H124 H 0.46689 0.17809 0.06578 0.0
H125 H 0.47757 -0.00259 0.15388 0.0
H126 H 0.3053 0.03144 0.99289 0.0
H127 H 0.40759 0.06201 0.97068 0.0
H128 H 0.38992 0.1394 0.99818 0.0
H129 H 0.31444 0.80992 0.09261 0.0
H130 H 0.37681 0.84805 0.14338 0.0
H131 H 0.42423 0.84029 0.09228 0.0
C132 C 0.31141 0.40444 0.59896 0.0
C133 C 0.36936 0.49134 0.60396 0.0
C134 C 0.32257 0.35597 0.56605 0.0
C135 C 0.39286 0.39518 0.53676 0.0
C136 C 0.45227 0.48259 0.54186 0.0
C137 C 0.44023 0.52941 0.57563 0.0
C138 C 0.25895 0.26276 0.5626 0.0
C139 C 0.52776 0.52712 0.51097 0.0
C140 C 0.47449 0.27928 0.46487 0.0
C141 C 0.44343 0.28372 0.42241 0.0
C142 C 0.45369 0.30992 0.50338 0.0
C143 C 0.40178 0.34664 0.49888 0.0
C144 C 0.36441 0.34396 0.45663 0.0
C145 C 0.3854 0.3121 0.41903 0.0
C146 C 0.49225 0.3088 0.54816 0.0
C147 C 0.30877 0.3822 0.45 0.0
H148 H 0.25712 0.37365 0.62111 0.0
H149 H 0.48561 0.59616 0.5793 0.0
H150 H 0.23264 0.24684 0.52801 0.0
H151 H 0.29061 0.22571 0.56938 0.0
H152 H 0.20585 0.24251 0.58674 0.0
H153 H 0.56846 0.595 0.51953 0.0
H154 H 0.56655 0.49622 0.51278 0.0
H155 H 0.5061 0.52233 0.47558 0.0
H156 H 0.52089 0.25916 0.46734 0.0
H157 H 0.3628 0.31704 0.38596 0.0
H158 H 0.44227 0.27949 0.57425 0.0
H159 H 0.53678 0.37444 0.55909 0.0
H160 H 0.52689 0.27355 0.54661 0.0
H161 H 0.25868 0.35891 0.47609 0.0
H162 H 0.27833 0.36769 0.41625 0.0
H163 H 0.34744 0.45189 0.45356 0.0
C164 C 0.91632 0.34404 0.10397 0.0
C165 C 0.88467 0.39974 0.10739 0.0
C166 C 0.97828 0.35661 0.07214 0.0
C167 C 0.00894 0.42587 0.04206 0.0
C168 C 0.97847 0.48333 0.04565 0.0
C169 C 0.91752 0.47018 0.07862 0.0
C170 C 0.01132 0.29587 0.07095 0.0
C171 C 0.00865 0.55751 1.01384 0.0
C172 C 0.20799 0.50656 0.97007 0.0
C173 C 0.17301 0.46905 0.92852 0.0
C174 C 0.15626 0.48877 1.00847 0.0
C175 C 0.0675 0.43438 1.00461 0.0
C176 C 0.03346 0.39131 0.96352 0.0
C177 C 0.08685 0.40819 0.92633 0.0
C178 C 0.19604 0.53343 0.052 0.0
C179 C 0.93948 0.33326 0.95741 0.0
H180 H 0.89304 0.29035 0.12659 0.0
H181 H 0.89421 0.51395 0.08116 0.0
H182 H 0.00847 0.27211 0.03631 0.0
H183 H 0.07868 0.3295 0.08138 0.0
H184 H 0.97528 0.24076 0.09363 0.0
H185 H 0.97814 0.59568 0.02054 0.0
H186 H 0.07807 0.59914 1.01688 0.0
H187 H -0.00492 0.53469 0.97852 0.0
H188 H 0.27412 0.55523 0.97169 0.0
H189 H 0.05951 0.38056 0.89393 0.0
H190 H 0.26425 0.55369 0.05319 0.0
H191 H 0.16411 0.4923 0.08154 0.0
H192 H 0.19018 0.59066 0.05487 0.0
H193 H 0.91412 0.28381 0.98396 0.0
H194 H 0.92364 0.30181 0.92398 0.0
H195 H 0.90676 0.37015 0.96074 0.0
C196 C 0.44208 0.92709 0.57726 0.0
C197 C 0.48064 0.89675 0.60678 0.0
C198 C 0.48986 0.98843 0.54433 0.0
C199 C 0.57856 0.02168 0.54163 0.0
C200 C 0.61799 -0.00674 0.57237 0.0
C201 C 0.56863 0.93092 0.60417 0.0
C202 C 0.44513 0.01612 0.51164 0.0
C203 C 0.71243 0.02881 0.57194 0.0
C204 C 0.67418 0.10385 0.42633 0.0
C205 C 0.69736 0.18922 0.42917 0.0
C206 C 0.63919 0.04941 0.46335 0.0
C207 C 0.62864 0.08156 0.50463 0.0
C208 C 0.66029 0.1696 0.50899 0.0
C209 C 0.69369 0.22259 0.47094 0.0
C210 C 0.60667 0.95619 0.457 0.0
C211 C 0.65406 0.20665 0.55312 0.0
H212 H 0.37435 0.90134 0.5791 0.0
H213 H 0.59942 0.9091 0.62731 0.0
H214 H 0.47224 0.08555 0.51357 0.0
H215 H 0.45476 0.00127 0.47669 0.0
H216 H 0.37616 0.98478 0.51831 0.0
H217 H 0.73148 0.99151 0.59351 0.0
H218 H 0.73567 0.0306 0.53725 0.0
H219 H 0.74437 0.09475 0.58452 0.0
H220 H 0.67549 0.07787 0.39372 0.0
H221 H 0.70995 0.28823 0.47294 0.0
H222 H 0.53672 0.92081 0.45981 0.0
H223 H 0.63162 0.9322 0.48376 0.0
H224 H 0.62442 0.94223 0.42368 0.0
H225 H 0.58721 0.17633 0.56414 0.0
H226 H 0.67999 0.27583 0.5508 0.0
H227 H 0.68914 0.19382 0.57954 0.0
C228 C 0.51971 0.46658 0.07807 0.0
C229 C 0.58841 0.5056 0.10776 0.0
C230 C 0.50804 0.51331 0.04378 0.0
C231 C 0.56531 0.60156 0.03967 0.0
C232 C 0.63291 0.64163 0.07057 0.0
C233 C 0.64395 0.59325 0.10385 0.0
C234 C 0.43569 0.46778 1.01111 0.0
C235 C 0.69402 0.73564 0.06843 0.0
C236 C 0.58212 0.68915 0.92155 0.0
C237 C 0.52126 0.71416 0.92252 0.0
C238 C 0.60054 0.65675 0.96011 0.0
C239 C 0.55778 0.65011 1.001 0.0
C240 C 0.50262 0.68333 1.00328 0.0
C241 C 0.48405 0.71386 0.96379 0.0
C242 C 0.65986 0.6224 0.95575 0.0
C243 C 0.45924 0.68171 0.04675 0.0
H244 H 0.47642 0.39912 0.08081 0.0
H245 H 0.69657 0.62449 0.12698 0.0
H246 H 0.39478 0.49643 1.0115 0.0
H247 H 0.46073 0.47464 0.97636 0.0
H248 H 0.39624 0.39939 0.01906 0.0
H249 H 0.74871 0.75542 0.09141 0.0
H250 H 0.71828 0.75557 0.03368 0.0
H251 H 0.66066 0.7698 0.078 0.0
H252 H 0.6094 0.68731 0.88945 0.0
H253 H 0.43455 0.72966 0.96448 0.0
H254 H 0.6225 0.5523 0.9554 0.0
H255 H 0.70384 0.64156 0.98478 0.0
H256 H 0.69769 0.64435 0.92429 0.0
H257 H 0.42069 0.61582 0.05914 0.0
H258 H 0.41775 0.70945 0.04288 0.0
H259 H 0.50735 0.7176 0.07294 0.0
C260 C 0.88506 0.59269 0.42791 0.0
C261 C 0.7987 0.53224 0.42742 0.0
C262 C 0.93343 0.60908 0.46722 0.0
C263 C 0.89448 0.56396 0.50725 0.0
C264 C 0.80553 0.50928 0.50812 0.0
C265 C 0.75848 0.49378 0.46801 0.0
C266 C 0.02767 0.66872 0.46459 0.0
C267 C 0.76113 0.46326 0.55067 0.0
C268 C 0.04178 0.52352 0.58079 0.0
C269 C 0.07205 0.59089 0.6112 0.0
C270 C 0.98105 0.51186 0.54798 0.0
C271 C 0.94863 0.56792 0.5461 0.0
C272 C 0.97504 0.63256 0.57867 0.0
C273 C 0.03693 0.64382 0.61037 0.0
C274 C 0.95381 0.44136 0.5142 0.0
C275 C 0.94093 0.6924 0.579 0.0
H276 H 0.91639 0.62152 0.39637 0.0
H277 H 0.69197 0.44596 0.46758 0.0
H278 H 0.04979 0.71291 0.49351 0.0
H279 H 0.06065 0.63185 0.46621 0.0
H280 H 0.0464 0.70625 0.4329 0.0
H281 H 0.78848 0.42501 0.56325 0.0
H282 H 0.77094 0.50962 0.57731 0.0
H283 H 0.69216 0.42118 0.54553 0.0
H284 H 0.06778 0.48183 0.58157 0.0
H285 H 0.0582 0.69477 0.63456 0.0
H286 H 0.97396 0.46848 0.47991 0.0
H287 H 0.88389 0.40149 0.51382 0.0
H288 H 0.98115 0.40048 0.52161 0.0
H289 H 0.97216 0.74033 0.55201 0.0
H290 H 0.95288 0.72592 0.61171 0.0
H291 H 0.872 0.65841 0.57225 0.0
C292 C 0.57468 0.92952 0.27927 0.0
C293 C 0.63685 0.01441 0.28209 0.0
C294 C 0.59776 0.86716 0.27816 0.0
C295 C 0.68469 0.89168 0.27969 0.0
C296 C 0.74695 0.97734 0.28528 0.0
C297 C 0.7219 0.0376 0.28676 0.0
C298 C 0.52974 0.7757 0.27337 0.0
C299 C 0.84019 0.00627 0.28658 0.0
C300 C 0.73197 0.71994 0.30894 0.0
C301 C 0.7342 0.68903 0.26607 0.0
C302 C 0.71894 0.7882 0.31391 0.0
C303 C 0.71049 0.82771 0.27497 0.0
C304 C 0.72241 0.80305 0.23164 0.0
C305 C 0.73374 0.73306 0.22763 0.0
C306 C 0.7077 0.81362 0.36065 0.0
C307 C 0.71696 0.84636 0.18948 0.0
H308 H 0.50915 0.91257 0.27577 0.0
H309 H 0.76944 0.10376 0.2893 0.0
H310 H 0.53598 0.75155 0.24022 0.0
H311 H 0.53713 0.73682 0.29978 0.0
H312 H 0.46525 0.76688 0.2759 0.0
H313 H 0.87868 0.07243 0.29854 0.0
H314 H 0.85289 0.96498 0.30871 0.0
H315 H 0.86169 0.00264 0.25216 0.0
H316 H 0.73391 0.68645 0.33875 0.0
H317 H 0.73575 0.70928 0.19458 0.0
H318 H 0.64159 0.79945 0.36486 0.0
H319 H 0.74945 0.88261 0.36551 0.0
H320 H 0.72163 0.77984 0.38744 0.0
H321 H 0.64971 0.82508 0.18221 0.0
H322 H 0.7441 0.8314 0.15992 0.0
H323 H 0.75066 0.91595 0.1939 0.0
C324 C -0.01202 0.74096 0.74803 0.0
C325 C 0.01162 0.67963 0.74675 0.0
C326 C 0.90215 0.71675 0.74678 0.0
C327 C 0.84029 0.62965 0.74383 0.0
C328 C 0.86499 0.56833 0.73965 0.0
C329 C 0.95071 0.59425 0.74154 0.0
C330 C 0.87752 0.7838 0.75022 0.0
C331 C 0.8016 0.47506 0.73579 0.0
C332 C 0.62846 0.57805 0.79134 0.0
C333 C 0.58731 0.58039 0.7521 0.0
C334 C 0.70969 0.5887 0.78893 0.0
C335 C 0.74984 0.60291 0.74644 0.0
C336 C 0.70511 0.5968 0.70655 0.0
C337 C 0.62382 0.58483 0.70987 0.0
C338 C 0.7546 0.5908 0.832 0.0
C339 C 0.74513 0.60877 0.66061 0.0
H340 H 0.03602 0.80678 0.75184 0.0
H341 H 0.97023 0.54726 0.74032 0.0
H342 H 0.83565 0.77803 0.7217 0.0
H343 H 0.84145 0.77467 0.78178 0.0
H344 H 0.93335 0.8487 0.75012 0.0
H345 H 0.78235 0.44788 0.77013 0.0
H346 H 0.74392 0.46291 0.71728 0.0
H347 H 0.8294 0.44109 0.71839 0.0
H348 H 0.60011 0.57422 0.82396 0.0
H349 H 0.59095 0.58462 0.67937 0.0
H350 H 0.80146 0.65734 0.84036 0.0
H351 H 0.78931 0.55601 0.82807 0.0
H352 H 0.70988 0.56274 0.86065 0.0
H353 H 0.79563 0.67572 0.65644 0.0
H354 H 0.69856 0.59243 0.63291 0.0
H355 H 0.77514 0.56939 0.65727 0.0
C356 C 0.24824 0.00548 0.23892 0.0
C357 C 0.33321 0.02851 0.24047 0.0
C358 C 0.18585 0.91971 0.23864 0.0
C359 C 0.21044 0.85749 0.23991 0.0
C360 C 0.29657 0.88131 0.23827 0.0
C361 C 0.35706 0.9669 0.23862 0.0
C362 C 0.09397 0.89566 0.23932 0.0
C363 C 0.32541 0.81714 0.23951 0.0
C364 C 0.04834 0.65202 0.29342 0.0
C365 C 0.00701 0.60544 0.25508 0.0
C366 C 0.11847 0.7334 0.28897 0.0
C367 C 0.14615 0.76772 0.24529 0.0
C368 C 0.10962 0.71747 0.20673 0.0
C369 C 0.04069 0.63625 0.21217 0.0
C370 C 0.15886 0.78474 0.33081 0.0
C371 C 0.13905 0.75148 0.15971 0.0
H372 H 0.23083 0.05393 0.24037 0.0
H373 H 0.42356 0.98588 0.23963 0.0
H374 H 0.059 0.84975 0.21208 0.0
H375 H 0.06504 0.86436 0.27181 0.0
H376 H 0.08564 0.95138 0.23511 0.0
H377 H 0.32501 0.79728 0.27492 0.0
H378 H 0.28298 0.75987 0.21978 0.0
H379 H 0.39058 0.84396 0.22618 0.0
H380 H 0.02201 0.6279 0.32651 0.0
H381 H 0.00898 0.59908 0.18255 0.0
H382 H 0.14273 0.83541 0.33363 0.0
H383 H 0.2287 0.81561 0.32877 0.0
H384 H 0.13716 0.7454 0.36184 0.0
H385 H 0.12149 0.8 0.15191 0.0
H386 H 0.11051 0.70113 0.13376 0.0
H387 H 0.2088 0.78261 0.15729 0.0
C388 C 0.24162 0.27749 0.80803 0.0
C389 C 0.23847 0.30995 0.76564 0.0
C390 C 0.25652 0.21029 0.81185 0.0
C391 C 0.26598 0.17357 0.77225 0.0
C392 C 0.25352 0.19985 0.72939 0.0
C393 C 0.24025 0.26868 0.72651 0.0
C394 C 0.26697 0.18191 0.85809 0.0
C395 C 0.25919 0.15861 0.68664 0.0
C396 C 0.39983 0.06974 0.77321 0.0
C397 C 0.33683 0.98495 0.77501 0.0
C398 C 0.37761 0.13274 0.77372 0.0
C399 C 0.29092 0.10896 0.77579 0.0
C400 C 0.22793 0.02331 0.78039 0.0
C401 C 0.2519 0.96232 0.78004 0.0
C402 C 0.44623 0.22429 0.77028 0.0
C403 C 0.13482 -0.00519 0.7826 0.0
H404 H 0.23806 0.30844 0.83836 0.0
H405 H 0.2374 0.29366 0.69381 0.0
H406 H 0.22288 0.11309 0.86232 0.0
H407 H 0.33212 0.19299 0.86181 0.0
H408 H 0.25519 0.21584 0.88551 0.0
H409 H 0.23898 0.18035 0.65664 0.0
H410 H 0.32536 0.1737 0.68145 0.0
H411 H 0.21923 0.08886 0.68932 0.0
H412 H 0.46525 0.08633 0.76914 0.0
H413 H 0.20346 0.89602 0.78157 0.0
H414 H 0.4395 0.26128 0.79785 0.0
H415 H 0.43998 0.2513 0.73795 0.0
H416 H 0.51049 0.23229 0.77199 0.0
H417 H 0.12268 0.04136 0.79974 0.0
H418 H 0.09882 0.93329 0.80045 0.0
H419 H 0.10966 0.98645 0.74778 0.0
C420 C 0.32707 0.41471 0.2781 0.0
C421 C 0.34839 0.35163 0.27792 0.0
C422 C 0.24181 0.39249 0.27913 0.0
C423 C 0.17846 0.30573 0.28004 0.0
C424 C 0.20063 0.24245 0.28294 0.0
C425 C 0.28573 0.26641 0.28188 0.0
C426 C 0.21935 0.46127 0.27695 0.0
C427 C 0.13499 0.14943 0.28382 0.0
C428 C 0.96064 0.25974 0.31041 0.0
C429 C 0.92747 0.2595 0.26769 0.0
C430 C 0.04151 0.27136 0.31499 0.0
C431 C 0.08901 0.28109 0.27582 0.0
C432 C 0.0524 0.2715 0.23259 0.0
C433 C 0.97145 0.26105 0.22898 0.0
C434 C 0.07817 0.27927 0.36159 0.0
C435 C 0.10083 0.27871 0.19012 0.0
H436 H 0.37632 0.48038 0.27499 0.0
H437 H 0.30343 0.21801 0.28208 0.0
H438 H 0.18711 0.45708 0.24455 0.0
H439 H 0.17473 0.45282 0.30444 0.0
H440 H 0.27592 0.52539 0.27968 0.0
H441 H 0.16216 0.11016 0.29513 0.0
H442 H 0.08143 0.13656 0.30626 0.0
H443 H 0.10912 0.12909 0.24937 0.0
H444 H 0.92532 0.25623 0.34045 0.0
H445 H 0.94553 0.26031 0.19603 0.0
H446 H 0.12983 0.34527 0.36702 0.0
H447 H 0.10601 0.23793 0.3651 0.0
H448 H 0.03008 0.26259 0.38845 0.0
H449 H 0.14563 0.34642 0.18288 0.0
H450 H 0.05801 0.25107 0.16079 0.0
H451 H 0.13808 0.24646 0.19393 0.0
C452 C 0.01693 0.29784 0.78956 0.0
C453 C -0.00735 0.35847 0.78318 0.0
C454 C 0.95848 0.21177 0.78596 0.0
C455 C 0.87314 0.18608 0.77706 0.0
C456 C 0.84712 0.24712 0.77386 0.0
C457 C 0.9079 0.33339 0.77641 0.0
C458 C -0.01024 0.14954 0.78815 0.0
C459 C 0.75584 0.22142 0.7659 0.0
C460 C 0.71717 0.97753 0.72319 0.0
C461 C 0.67173 0.93225 0.76117 0.0
C462 C 0.78767 0.059 0.72798 0.0
C463 C 0.81068 0.09537 0.77153 0.0
C464 C 0.76992 0.04637 0.81001 0.0
C465 C 0.70217 0.96459 0.80432 0.0
C466 C 0.83311 0.10799 0.68627 0.0
C467 C 0.79299 0.0826 0.85701 0.0
H468 H 0.08311 0.31821 0.79448 0.0
H469 H 0.89008 0.38089 0.771 0.0
H470 H 0.0526 0.17723 0.80466 0.0
H471 H 0.94502 0.09107 0.80649 0.0
H472 H -0.0042 0.1312 0.75335 0.0
H473 H 0.74525 0.276 0.76779 0.0
H474 H 0.73592 0.19227 0.7321 0.0
H475 H 0.71481 0.17333 0.79113 0.0
H476 H 0.69433 0.95232 0.68989 0.0
H477 H 0.66797 0.92844 0.83383 0.0
H478 H 0.90153 0.15057 0.69272 0.0
H479 H 0.80586 0.14732 0.67536 0.0
H480 H 0.82582 0.06491 0.65821 0.0
H481 H 0.86149 0.10909 0.86322 0.0
H482 H 0.7571 0.03466 0.88344 0.0
H483 H 0.77972 0.13519 0.86045 0.0
loop_
_geom_bond_atom_site_label_1
_geom_bond_atom_site_label_2
_geom_bond_distance
_geom_bond_site_symmetry_2
_ccdc_geom_bond_type
C0 O28 1.281 . S
C0 O37 1.281 . S
C1 O29 1.281 . S
C1 O47 1.281 . S
O2 Hf6 2.202 . S
O2 Hf8 2.202 . S
O2 Hf10 2.202 . S
O3 Hf6 2.202 . S
O3 Hf12 2.202 . S
O3 Hf13 2.202 . S
O4 Hf6 2.072 . S
O4 Hf10 2.072 . S
O4 Hf12 2.072 . S
O5 Hf6 2.072 . S
O5 Hf8 2.072 . S
O5 Hf13 2.072 . S
Hf6 O2 2.202 . S
Hf6 O3 2.202 . S
Hf6 O4 2.072 . S
Hf6 O5 2.072 . S
Hf6 O20 2.209 . S
Hf6 O21 2.209 . S
Hf6 O36 2.209 . S
Hf6 O37 2.209 . S
O7 Hf8 2.072 . S
O7 Hf10 2.072 . S
O7 Hf15 2.072 . S
Hf8 O2 2.202 . S
Hf8 O5 2.072 . S
Hf8 O7 2.072 . S
Hf8 O11 2.202 . S
Hf8 O27 2.209 . S
Hf8 O28 2.209 . S
Hf8 O43 2.209 . S
Hf8 O47 2.209 . S
O9 Hf10 2.202 . S
O9 Hf12 2.202 . S
O9 Hf15 2.202 . S
Hf10 O2 2.202 . S
Hf10 O4 2.072 . S
Hf10 O7 2.072 . S
Hf10 O9 2.202 . S
Hf10 O32 2.209 . S
Hf10 O33 2.209 . S
Hf10 O40 2.209 . S
Hf10 O42 2.209 . S
O11 Hf8 2.202 . S
O11 Hf13 2.202 . S
O11 Hf15 2.202 . S
Hf12 O3 2.202 . S
Hf12 O4 2.072 . S
Hf12 O9 2.202 . S
Hf12 O14 2.072 . S
Hf12 O24 2.209 . S
Hf12 O25 2.209 . S
Hf12 O45 2.209 . S
Hf12 O46 2.209 . S
Hf13 O3 2.202 . S
Hf13 O5 2.072 . S
Hf13 O11 2.202 . S
Hf13 O14 2.072 . S
Hf13 O29 2.209 . S
Hf13 O30 2.209 . S
Hf13 O39 2.209 . S
Hf13 O44 2.209 . S
O14 Hf12 2.072 . S
O14 Hf13 2.072 . S
O14 Hf15 2.072 . S
Hf15 O7 2.072 . S
Hf15 O9 2.202 . S
Hf15 O11 2.202 . S
Hf15 O14 2.072 . S
Hf15 O23 2.209 . S
Hf15 O26 2.209 . S
Hf15 O35 2.209 . S
Hf15 O38 2.209 . S
C16 O30 1.281 . S
C16 O46 1.281 . S
C17 O33 1.281 . S
C17 O43 1.281 . S
C18 O32 1.281 . S
C18 O45 1.281 . S
C19 O20 1.281 . S
C19 O42 1.281 . S
O20 Hf6 2.209 . S
O20 C19 1.281 . S
O21 Hf6 2.209 . S
O21 C22 1.281 . S
C22 O21 1.281 . S
C22 O44 1.281 . S
O23 Hf15 2.209 . S
O23 C34 1.281 . S
O24 Hf12 2.209 . S
O24 C41 1.281 . S
O25 Hf12 2.209 . S
O25 C49 1.281 . S
O26 Hf15 2.209 . S
O26 C31 1.281 . S
O27 Hf8 2.209 . S
O27 C48 1.281 . S
O28 C0 1.281 . S
O28 Hf8 2.209 . S
O29 C1 1.281 . S
O29 Hf13 2.209 . S
O30 Hf13 2.209 . S
O30 C16 1.281 . S
C31 O26 1.281 . S
C31 O40 1.281 . S
O32 Hf10 2.209 . S
O32 C18 1.281 . S
O33 Hf10 2.209 . S
O33 C17 1.281 . S
C34 O23 1.281 . S
C34 O39 1.281 . S
O35 Hf15 2.209 . S
O35 C48 1.281 . S
O36 Hf6 2.209 . S
O36 C49 1.281 . S
O37 C0 1.281 . S
O37 Hf6 2.209 . S
O38 Hf15 2.209 . S
O38 C41 1.281 . S
O39 Hf13 2.209 . S
O39 C34 1.281 . S
O40 Hf10 2.209 . S
O40 C31 1.281 . S
C41 O24 1.281 . S
C41 O38 1.281 . S
O42 Hf10 2.209 . S
O42 C19 1.281 . S
O43 Hf8 2.209 . S
O43 C17 1.281 . S
O44 Hf13 2.209 . S
O44 C22 1.281 . S
O45 Hf12 2.209 . S
O45 C18 1.281 . S
O46 Hf12 2.209 . S
O46 C16 1.281 . S
O47 C1 1.281 . S
O47 Hf8 2.209 . S
C48 O27 1.281 . S
C48 O35 1.281 . S
C49 O25 1.281 . S
C49 O36 1.281 . S
C50 O78 1.281 . S
C50 O87 1.281 . S
C51 O79 1.281 . S
C51 O97 1.281 . S
O52 Hf56 2.202 . S
O52 Hf58 2.202 . S
O52 Hf60 2.202 . S
O53 Hf56 2.202 . S
O53 Hf62 2.202 . S
O53 Hf63 2.202 . S
O54 Hf56 2.072 . S
O54 Hf60 2.072 . S
O54 Hf62 2.072 . S
O55 Hf56 2.072 . S
O55 Hf58 2.072 . S
O55 Hf63 2.072 . S
Hf56 O52 2.202 . S
Hf56 O53 2.202 . S
Hf56 O54 2.072 . S
Hf56 O55 2.072 . S
Hf56 O70 2.209 . S
Hf56 O71 2.209 . S
Hf56 O86 2.209 . S
Hf56 O87 2.209 . S
O57 Hf58 2.072 . S
O57 Hf60 2.072 . S
O57 Hf65 2.072 . S
Hf58 O52 2.202 . S
Hf58 O55 2.072 . S
Hf58 O57 2.072 . S
Hf58 O61 2.202 . S
Hf58 O77 2.209 . S
Hf58 O78 2.209 . S
Hf58 O93 2.209 . S
Hf58 O97 2.209 . S
O59 Hf60 2.202 . S
O59 Hf62 2.202 . S
O59 Hf65 2.202 . S
Hf60 O52 2.202 . S
Hf60 O54 2.072 . S
Hf60 O57 2.072 . S
Hf60 O59 2.202 . S
Hf60 O82 2.209 . S
Hf60 O83 2.209 . S
Hf60 O90 2.209 . S
Hf60 O92 2.209 . S
O61 Hf58 2.202 . S
O61 Hf63 2.202 . S
O61 Hf65 2.202 . S
Hf62 O53 2.202 . S
Hf62 O54 2.072 . S
Hf62 O59 2.202 . S
Hf62 O64 2.072 . S
Hf62 O74 2.209 . S
Hf62 O75 2.209 . S
Hf62 O95 2.209 . S
Hf62 O96 2.209 . S
Hf63 O53 2.202 . S
Hf63 O55 2.072 . S
Hf63 O61 2.202 . S
Hf63 O64 2.072 . S
Hf63 O79 2.209 . S
Hf63 O80 2.209 . S
Hf63 O89 2.209 . S
Hf63 O94 2.209 . S
O64 Hf62 2.072 . S
O64 Hf63 2.072 . S
O64 Hf65 2.072 . S
Hf65 O57 2.072 . S
Hf65 O59 2.202 . S
Hf65 O61 2.202 . S
Hf65 O64 2.072 . S
Hf65 O73 2.209 . S
Hf65 O76 2.209 . S
Hf65 O85 2.209 . S
Hf65 O88 2.209 . S
C66 O80 1.281 . S
C66 O96 1.281 . S
C67 O83 1.281 . S
C67 O93 1.281 . S
C68 O82 1.281 . S
C68 O95 1.281 . S
C69 O70 1.281 . S
C69 O92 1.281 . S
O70 Hf56 2.209 . S
O70 C69 1.281 . S
O71 Hf56 2.209 . S
O71 C72 1.281 . S
C72 O71 1.281 . S
C72 O94 1.281 . S
O73 Hf65 2.209 . S
O73 C84 1.281 . S
O74 Hf62 2.209 . S
O74 C91 1.281 . S
O75 Hf62 2.209 . S
O75 C99 1.281 . S
O76 Hf65 2.209 . S
O76 C81 1.281 . S
O77 Hf58 2.209 . S
O77 C98 1.281 . S
O78 C50 1.281 . S
O78 Hf58 2.209 . S
O79 C51 1.281 . S
O79 Hf63 2.209 . S
O80 Hf63 2.209 . S
O80 C66 1.281 . S
C81 O76 1.281 . S
C81 O90 1.281 . S
O82 Hf60 2.209 . S
O82 C68 1.281 . S
O83 Hf60 2.209 . S
O83 C67 1.281 . S
C84 O73 1.281 . S
C84 O89 1.281 . S
O85 Hf65 2.209 . S
O85 C98 1.281 . S
O86 Hf56 2.209 . S
O86 C99 1.281 . S
O87 C50 1.281 . S
O87 Hf56 2.209 . S
O88 Hf65 2.209 . S
O88 C91 1.281 . S
O89 Hf63 2.209 . S
O89 C84 1.281 . S
O90 Hf60 2.209 . S
O90 C81 1.281 . S
C91 O74 1.281 . S
C91 O88 1.281 . S
O92 Hf60 2.209 . S
O92 C69 1.281 . S
O93 Hf58 2.209 . S
O93 C67 1.281 . S
O94 Hf63 2.209 . S
O94 C72 1.281 . S
O95 Hf62 2.209 . S
O95 C68 1.281 . S
O96 Hf62 2.209 . S
O96 C66 1.281 . S
O97 C51 1.281 . S
O97 Hf58 2.209 . S
C98 O77 1.281 . S
C98 O85 1.281 . S
C99 O75 1.281 . S
C99 O86 1.281 . S
C100 C101 1.391 . S
C100 C102 1.394 . S
C100 H116 0.931 . S
C101 C100 1.391 . S
C101 C105 1.376 . S
C102 C100 1.394 . S
C102 C103 1.369 . S
C102 C106 1.531 1_556 S
C103 C102 1.369 . S
C103 C104 1.410 . S
C103 C111 1.503 1_556 S
C104 C103 1.410 . S
C104 C105 1.392 . S
C104 C107 1.511 . S
C105 C101 1.376 . S
C105 C104 1.392 . S
C105 H117 0.929 . S
C106 C102 1.531 1_554 S
C106 H118 0.960 . S
C106 H119 0.962 . S
C106 H120 0.960 . S
C107 C104 1.511 . S
C107 H121 0.961 . S
C107 H122 0.961 1_565 S
C107 H123 0.961 . S
C108 C109 1.370 . S
C108 C110 1.363 . S
C108 H124 0.931 . S
C109 C108 1.370 . S
C109 C113 1.408 . S
C110 C108 1.363 . S
C110 C111 1.370 1_545 S
C110 C114 1.524 1_554 S
C111 C103 1.503 1_554 S
C111 C110 1.370 1_565 S
C111 C112 1.403 . S
C112 C111 1.403 . S
C112 C113 1.404 1_565 S
C112 C115 1.539 . S
C113 C109 1.408 . S
C113 C112 1.404 1_545 S
C113 H125 0.930 1_545 S
C114 C110 1.524 1_556 S
C114 H126 0.956 . S
C114 H127 0.961 . S
C114 H128 0.961 . S
C115 C112 1.539 . S
C115 H129 0.958 . S
C115 H130 0.961 . S
C115 H131 0.960 . S
H116 C100 0.931 . S
H117 C105 0.929 . S
H118 C106 0.960 . S
H119 C106 0.962 . S
H120 C106 0.960 . S
H121 C107 0.961 . S
H122 C107 0.961 1_545 S
H123 C107 0.961 . S
H124 C108 0.931 . S
H125 C113 0.930 1_565 S
H126 C114 0.956 . S
H127 C114 0.961 . S
H128 C114 0.961 . S
H129 C115 0.958 . S
H130 C115 0.961 . S
H131 C115 0.960 . S
C132 C133 1.391 . S
C132 C134 1.394 . S
C132 H148 0.931 . S
C133 C132 1.391 . S
C133 C137 1.376 . S
C134 C132 1.394 . S
C134 C135 1.369 . S
C134 C138 1.531 . S
C135 C134 1.369 . S
C135 C136 1.410 . S
C135 C143 1.503 . S
C136 C135 1.410 . S
C136 C137 1.392 . S
C136 C139 1.511 . S
C137 C133 1.376 . S
C137 C136 1.392 . S
C137 H149 0.929 . S
C138 C134 1.531 . S
C138 H150 0.960 . S
C138 H151 0.962 . S
C138 H152 0.960 . S
C139 C136 1.511 . S
C139 H153 0.961 . S
C139 H154 0.961 . S
C139 H155 0.961 . S
C140 C141 1.370 . S
C140 C142 1.363 . S
C140 H156 0.931 . S
C141 C140 1.370 . S
C141 C145 1.408 . S
C142 C140 1.363 . S
C142 C143 1.370 . S
C142 C146 1.524 . S
C143 C135 1.503 . S
C143 C142 1.370 . S
C143 C144 1.403 . S
C144 C143 1.403 . S
C144 C145 1.404 . S
C144 C147 1.539 . S
C145 C141 1.408 . S
C145 C144 1.404 . S
C145 H157 0.930 . S
C146 C142 1.524 . S
C146 H158 0.956 . S
C146 H159 0.961 . S
C146 H160 0.961 . S
C147 C144 1.539 . S
C147 H161 0.958 . S
C147 H162 0.961 . S
C147 H163 0.960 . S
H148 C132 0.931 . S
H149 C137 0.929 . S
H150 C138 0.960 . S
H151 C138 0.962 . S
H152 C138 0.960 . S
H153 C139 0.961 . S
H154 C139 0.961 . S
H155 C139 0.961 . S
H156 C140 0.931 . S
H157 C145 0.930 . S
H158 C146 0.956 . S
H159 C146 0.961 . S
H160 C146 0.961 . S
H161 C147 0.958 . S
H162 C147 0.961 . S
H163 C147 0.960 . S
C164 C165 1.391 . S
C164 C166 1.394 1_655 S
C164 H180 0.931 1_655 S
C165 C164 1.391 . S
C165 C169 1.376 . S
C166 C164 1.394 1_455 S
C166 C167 1.369 . S
C166 C170 1.531 . S
C167 C166 1.369 . S
C167 C168 1.410 1_455 S
C167 C175 1.503 1_554 S
C168 C167 1.410 1_655 S
C168 C169 1.392 . S
C168 C171 1.511 1_554 S
C169 C165 1.376 . S
C169 C168 1.392 . S
C169 H181 0.929 . S
C170 C166 1.531 . S
C170 H182 0.960 . S
C170 H183 0.962 . S
C170 H184 0.960 . S
C171 C168 1.511 1_556 S
C171 H185 0.961 . S
C171 H186 0.961 . S
C171 H187 0.961 . S
C172 C173 1.370 . S
C172 C174 1.363 . S
C172 H188 0.931 . S
C173 C172 1.370 . S
C173 C177 1.408 . S
C174 C172 1.363 . S
C174 C175 1.370 . S
C174 C178 1.524 . S
C175 C167 1.503 1_556 S
C175 C174 1.370 . S
C175 C176 1.403 . S
C176 C175 1.403 . S
C176 C177 1.404 . S
C176 C179 1.539 . S
C177 C173 1.408 . S
C177 C176 1.404 . S
C177 H189 0.930 . S
C178 C174 1.524 . S
C178 H190 0.956 1_556 S
C178 H191 0.961 . S
C178 H192 0.961 . S
C179 C176 1.539 . S
C179 H193 0.958 1_556 S
C179 H194 0.961 . S
C179 H195 0.960 1_455 S
H180 C164 0.931 1_455 S
H181 C169 0.929 . S
H182 C170 0.960 . S
H183 C170 0.962 . S
H184 C170 0.960 . S
H185 C171 0.961 . S
H186 C171 0.961 . S
H187 C171 0.961 . S
H188 C172 0.931 . S
H189 C177 0.930 . S
H190 C178 0.956 1_554 S
H191 C178 0.961 . S
H192 C178 0.961 . S
H193 C179 0.958 1_554 S
H194 C179 0.961 . S
H195 C179 0.960 1_655 S
C196 C197 1.391 . S
C196 C198 1.394 . S
C196 H212 0.931 . S
C197 C196 1.391 . S
C197 C201 1.376 . S
C198 C196 1.394 . S
C198 C199 1.369 1_565 S
C198 C202 1.531 . S
C199 C198 1.369 1_545 S
C199 C200 1.410 . S
C199 C207 1.503 . S
C200 C199 1.410 . S
C200 C201 1.392 1_545 S
C200 C203 1.511 . S
C201 C197 1.376 . S
C201 C200 1.392 1_565 S
C201 H213 0.929 1_565 S
C202 C198 1.531 . S
C202 H214 0.960 . S
C202 H215 0.962 . S
C202 H216 0.960 . S
C203 C200 1.511 . S
C203 H217 0.961 . S
C203 H218 0.961 . S
C203 H219 0.961 . S
C204 C205 1.370 . S
C204 C206 1.363 . S
C204 H220 0.931 . S
C205 C204 1.370 . S
C205 C209 1.408 . S
C206 C204 1.363 . S
C206 C207 1.370 . S
C206 C210 1.524 . S
C207 C199 1.503 . S
C207 C206 1.370 . S
C207 C208 1.403 . S
C208 C207 1.403 . S
C208 C209 1.404 . S
C208 C211 1.539 . S
C209 C205 1.408 . S
C209 C208 1.404 . S
C209 H221 0.930 . S
C210 C206 1.524 . S
C210 H222 0.956 . S
C210 H223 0.961 . S
C210 H224 0.961 . S
C211 C208 1.539 . S
C211 H225 0.958 1_545 S
C211 H226 0.961 . S
C211 H227 0.960 . S
H212 C196 0.931 . S
H213 C201 0.929 1_545 S
H214 C202 0.960 . S
H215 C202 0.962 . S
H216 C202 0.960 . S
H217 C203 0.961 . S
H218 C203 0.961 . S
H219 C203 0.961 . S
H220 C204 0.931 . S
H221 C209 0.930 . S
H222 C210 0.956 . S
H223 C210 0.961 . S
H224 C210 0.961 . S
H225 C211 0.958 1_565 S
H226 C211 0.961 . S
H227 C211 0.960 . S
C228 C229 1.391 . S
C228 C230 1.394 . S
C228 H244 0.931 . S
C229 C228 1.391 . S
C229 C233 1.376 . S
C230 C228 1.394 . S
C230 C231 1.369 . S
C230 C234 1.531 . S
C231 C230 1.369 . S
C231 C232 1.410 . S
C231 C239 1.503 1_554 S
C232 C231 1.410 . S
C232 C233 1.392 . S
C232 C235 1.511 1_554 S
C233 C229 1.376 . S
C233 C232 1.392 . S
C233 H245 0.929 . S
C234 C230 1.531 . S
C234 H246 0.960 . S
C234 H247 0.962 . S
C234 H248 0.960 . S
C235 C232 1.511 1_556 S
C235 H249 0.961 . S
C235 H250 0.961 . S
C235 H251 0.961 . S
C236 C237 1.370 . S
C236 C238 1.363 . S
C236 H252 0.931 . S
C237 C236 1.370 . S
C237 C241 1.408 . S
C238 C236 1.363 . S
C238 C239 1.370 . S
C238 C242 1.524 . S
C239 C231 1.503 1_556 S
C239 C238 1.370 . S
C239 C240 1.403 . S
C240 C239 1.403 . S
C240 C241 1.404 . S
C240 C243 1.539 1_556 S
C241 C237 1.408 . S
C241 C240 1.404 . S
C241 H253 0.930 . S
C242 C238 1.524 . S
C242 H254 0.956 . S
C242 H255 0.961 . S
C242 H256 0.961 . S
C243 C240 1.539 1_554 S
C243 H257 0.958 . S
C243 H258 0.961 . S
C243 H259 0.960 . S
H244 C228 0.931 . S
H245 C233 0.929 . S
H246 C234 0.960 . S
H247 C234 0.962 . S
H248 C234 0.960 . S
H249 C235 0.961 . S
H250 C235 0.961 . S
H251 C235 0.961 . S
H252 C236 0.931 . S
H253 C241 0.930 . S
H254 C242 0.956 . S
H255 C242 0.961 . S
H256 C242 0.961 . S
H257 C243 0.958 . S
H258 C243 0.961 . S
H259 C243 0.960 . S
C260 C261 1.391 . S
C260 C262 1.394 . S
C260 H276 0.931 . S
C261 C260 1.391 . S
C261 C265 1.376 . S
C262 C260 1.394 . S
C262 C263 1.369 . S
C262 C266 1.531 1_655 S
C263 C262 1.369 . S
C263 C264 1.410 . S
C263 C271 1.503 . S
C264 C263 1.410 . S
C264 C265 1.392 . S
C264 C267 1.511 . S
C265 C261 1.376 . S
C265 C264 1.392 . S
C265 H277 0.929 . S
C266 C262 1.531 1_455 S
C266 H278 0.960 . S
C266 H279 0.962 . S
C266 H280 0.960 . S
C267 C264 1.511 . S
C267 H281 0.961 . S
C267 H282 0.961 . S
C267 H283 0.961 . S
C268 C269 1.370 . S
C268 C270 1.363 . S
C268 H284 0.931 . S
C269 C268 1.370 . S
C269 C273 1.408 . S
C270 C268 1.363 . S
C270 C271 1.370 1_455 S
C270 C274 1.524 1_455 S
C271 C263 1.503 . S
C271 C270 1.370 1_655 S
C271 C272 1.403 1_655 S
C272 C271 1.403 1_455 S
C272 C273 1.404 . S
C272 C275 1.539 1_455 S
C273 C269 1.408 . S
C273 C272 1.404 . S
C273 H285 0.930 . S
C274 C270 1.524 1_655 S
C274 H286 0.956 1_655 S
C274 H287 0.961 . S
C274 H288 0.961 1_655 S
C275 C272 1.539 1_655 S
C275 H289 0.958 1_655 S
C275 H290 0.961 . S
C275 H291 0.960 . S
H276 C260 0.931 . S
H277 C265 0.929 . S
H278 C266 0.960 . S
H279 C266 0.962 . S
H280 C266 0.960 . S
H281 C267 0.961 . S
H282 C267 0.961 . S
H283 C267 0.961 . S
H284 C268 0.931 . S
H285 C273 0.930 . S
H286 C274 0.956 1_455 S
H287 C274 0.961 . S
H288 C274 0.961 1_455 S
H289 C275 0.958 1_455 S
H290 C275 0.961 . S
H291 C275 0.960 . S
C292 C293 1.391 1_565 S
C292 C294 1.394 . S
C292 H308 0.931 . S
C293 C292 1.391 1_545 S
C293 C297 1.376 . S
C294 C292 1.394 . S
C294 C295 1.369 . S
C294 C298 1.531 . S
C295 C294 1.369 . S
C295 C296 1.410 . S
C295 C303 1.503 . S
C296 C295 1.410 . S
C296 C297 1.392 1_565 S
C296 C299 1.511 . S
C297 C293 1.376 . S
C297 C296 1.392 1_545 S
C297 H309 0.929 . S
C298 C294 1.531 . S
C298 H310 0.960 . S
C298 H311 0.962 . S
C298 H312 0.960 . S
C299 C296 1.511 . S
C299 H313 0.961 1_565 S
C299 H314 0.961 . S
C299 H315 0.961 . S
C300 C301 1.370 . S
C300 C302 1.363 . S
C300 H316 0.931 . S
C301 C300 1.370 . S
C301 C305 1.408 . S
C302 C300 1.363 . S
C302 C303 1.370 . S
C302 C306 1.524 . S
C303 C295 1.503 . S
C303 C302 1.370 . S
C303 C304 1.403 . S
C304 C303 1.403 . S
C304 C305 1.404 . S
C304 C307 1.539 . S
C305 C301 1.408 . S
C305 C304 1.404 . S
C305 H317 0.930 . S
C306 C302 1.524 . S
C306 H318 0.956 . S
C306 H319 0.961 . S
C306 H320 0.961 . S
C307 C304 1.539 . S
C307 H321 0.958 . S
C307 H322 0.961 . S
C307 H323 0.960 . S
H308 C292 0.931 . S
H309 C297 0.929 . S
H310 C298 0.960 . S
H311 C298 0.962 . S
H312 C298 0.960 . S
H313 C299 0.961 1_545 S
H314 C299 0.961 . S
H315 C299 0.961 . S
H316 C300 0.931 . S
H317 C305 0.930 . S
H318 C306 0.956 . S
H319 C306 0.961 . S
H320 C306 0.961 . S
H321 C307 0.958 . S
H322 C307 0.961 . S
H323 C307 0.960 . S
C324 C325 1.391 . S
C324 C326 1.394 1_455 S
C324 H340 0.931 . S
C325 C324 1.391 . S
C325 C329 1.376 1_455 S
C326 C324 1.394 1_655 S
C326 C327 1.369 . S
C326 C330 1.531 . S
C327 C326 1.369 . S
C327 C328 1.410 . S
C327 C335 1.503 . S
C328 C327 1.410 . S
C328 C329 1.392 . S
C328 C331 1.511 . S
C329 C325 1.376 1_655 S
C329 C328 1.392 . S
C329 H341 0.929 . S
C330 C326 1.531 . S
C330 H342 0.960 . S
C330 H343 0.962 . S
C330 H344 0.960 . S
C331 C328 1.511 . S
C331 H345 0.961 . S
C331 H346 0.961 . S
C331 H347 0.961 . S
C332 C333 1.370 . S
C332 C334 1.363 . S
C332 H348 0.931 . S
C333 C332 1.370 . S
C333 C337 1.408 . S
C334 C332 1.363 . S
C334 C335 1.370 . S
C334 C338 1.524 . S
C335 C327 1.503 . S
C335 C334 1.370 . S
C335 C336 1.403 . S
C336 C335 1.403 . S
C336 C337 1.404 . S
C336 C339 1.539 . S
C337 C333 1.408 . S
C337 C336 1.404 . S
C337 H349 0.930 . S
C338 C334 1.524 . S
C338 H350 0.956 . S
C338 H351 0.961 . S
C338 H352 0.961 . S
C339 C336 1.539 . S
C339 H353 0.958 . S
C339 H354 0.961 . S
C339 H355 0.960 . S
H340 C324 0.931 . S
H341 C329 0.929 . S
H342 C330 0.960 . S
H343 C330 0.962 . S
H344 C330 0.960 . S
H345 C331 0.961 . S
H346 C331 0.961 . S
H347 C331 0.961 . S
H348 C332 0.931 . S
H349 C337 0.930 . S
H350 C338 0.956 . S
H351 C338 0.961 . S
H352 C338 0.961 . S
H353 C339 0.958 . S
H354 C339 0.961 . S
H355 C339 0.960 . S
C356 C357 1.391 . S
C356 C358 1.394 1_545 S
C356 H372 0.931 . S
C357 C356 1.391 . S
C357 C361 1.376 1_545 S
C358 C356 1.394 1_565 S
C358 C359 1.369 . S
C358 C362 1.531 . S
C359 C358 1.369 . S
C359 C360 1.410 . S
C359 C367 1.503 . S
C360 C359 1.410 . S
C360 C361 1.392 . S
C360 C363 1.511 . S
C361 C357 1.376 1_565 S
C361 C360 1.392 . S
C361 H373 0.929 . S
C362 C358 1.531 . S
C362 H374 0.960 . S
C362 H375 0.962 . S
C362 H376 0.960 . S
C363 C360 1.511 . S
C363 H377 0.961 . S
C363 H378 0.961 . S
C363 H379 0.961 . S
C364 C365 1.370 1_455 S
C364 C366 1.363 . S
C364 H380 0.931 1_455 S
C365 C364 1.370 1_655 S
C365 C369 1.408 1_655 S
C366 C364 1.363 . S
C366 C367 1.370 . S
C366 C370 1.524 . S
C367 C359 1.503 . S
C367 C366 1.370 . S
C367 C368 1.403 . S
C368 C367 1.403 . S
C368 C369 1.404 . S
C368 C371 1.539 . S
C369 C365 1.408 1_455 S
C369 C368 1.404 . S
C369 H381 0.930 . S
C370 C366 1.524 . S
C370 H382 0.956 . S
C370 H383 0.961 . S
C370 H384 0.961 . S
C371 C368 1.539 . S
C371 H385 0.958 . S
C371 H386 0.961 . S
C371 H387 0.960 . S
H372 C356 0.931 . S
H373 C361 0.929 . S
H374 C362 0.960 . S
H375 C362 0.962 . S
H376 C362 0.960 . S
H377 C363 0.961 . S
H378 C363 0.961 . S
H379 C363 0.961 . S
H380 C364 0.931 1_655 S
H381 C369 0.930 . S
H382 C370 0.956 . S
H383 C370 0.961 . S
H384 C370 0.961 . S
H385 C371 0.958 . S
H386 C371 0.961 . S
H387 C371 0.960 . S
C388 C389 1.391 . S
C388 C390 1.394 . S
C388 H404 0.931 . S
C389 C388 1.391 . S
C389 C393 1.376 . S
C390 C388 1.394 . S
C390 C391 1.369 . S
C390 C394 1.531 . S
C391 C390 1.369 . S
C391 C392 1.410 . S
C391 C399 1.503 . S
C392 C391 1.410 . S
C392 C393 1.392 . S
C392 C395 1.511 . S
C393 C389 1.376 . S
C393 C392 1.392 . S
C393 H405 0.929 . S
C394 C390 1.531 . S
C394 H406 0.960 . S
C394 H407 0.962 . S
C394 H408 0.960 . S
C395 C392 1.511 . S
C395 H409 0.961 . S
C395 H410 0.961 . S
C395 H411 0.961 . S
C396 C397 1.370 1_545 S
C396 C398 1.363 . S
C396 H412 0.931 . S
C397 C396 1.370 1_565 S
C397 C401 1.408 . S
C398 C396 1.363 . S
C398 C399 1.370 . S
C398 C402 1.524 . S
C399 C391 1.503 . S
C399 C398 1.370 . S
C399 C400 1.403 . S
C400 C399 1.403 . S
C400 C401 1.404 1_545 S
C400 C403 1.539 . S
C401 C397 1.408 . S
C401 C400 1.404 1_565 S
C401 H413 0.930 . S
C402 C398 1.524 . S
C402 H414 0.956 . S
C402 H415 0.961 . S
C402 H416 0.961 . S
C403 C400 1.539 . S
C403 H417 0.958 . S
C403 H418 0.961 1_545 S
C403 H419 0.960 . S
H404 C388 0.931 . S
H405 C393 0.929 . S
H406 C394 0.960 . S
H407 C394 0.962 . S
H408 C394 0.960 . S
H409 C395 0.961 . S
H410 C395 0.961 . S
H411 C395 0.961 . S
H412 C396 0.931 . S
H413 C401 0.930 . S
H414 C402 0.956 . S
H415 C402 0.961 . S
H416 C402 0.961 . S
H417 C403 0.958 . S
H418 C403 0.961 1_565 S
H419 C403 0.960 . S
C420 C421 1.391 . S
C420 C422 1.394 . S
C420 H436 0.931 . S
C421 C420 1.391 . S
C421 C425 1.376 . S
C422 C420 1.394 . S
C422 C423 1.369 . S
C422 C426 1.531 . S
C423 C422 1.369 . S
C423 C424 1.410 . S
C423 C431 1.503 . S
C424 C423 1.410 . S
C424 C425 1.392 . S
C424 C427 1.511 . S
C425 C421 1.376 . S
C425 C424 1.392 . S
C425 H437 0.929 . S
C426 C422 1.531 . S
C426 H438 0.960 . S
C426 H439 0.962 . S
C426 H440 0.960 . S
C427 C424 1.511 . S
C427 H441 0.961 . S
C427 H442 0.961 . S
C427 H443 0.961 . S
C428 C429 1.370 1_455 S
C428 C430 1.363 . S
C428 H444 0.931 1_455 S
C429 C428 1.370 1_655 S
C429 C433 1.408 1_655 S
C430 C428 1.363 . S
C430 C431 1.370 . S
C430 C434 1.524 . S
C431 C423 1.503 . S
C431 C430 1.370 . S
C431 C432 1.403 . S
C432 C431 1.403 . S
C432 C433 1.404 . S
C432 C435 1.539 . S
C433 C429 1.408 1_455 S
C433 C432 1.404 . S
C433 H445 0.930 1_455 S
C434 C430 1.524 . S
C434 H446 0.956 . S
C434 H447 0.961 . S
C434 H448 0.961 . S
C435 C432 1.539 . S
C435 H449 0.958 . S
C435 H450 0.961 . S
C435 H451 0.960 . S
H436 C420 0.931 . S
H437 C425 0.929 . S
H438 C426 0.960 . S
H439 C426 0.962 . S
H440 C426 0.960 . S
H441 C427 0.961 . S
H442 C427 0.961 . S
H443 C427 0.961 . S
H444 C428 0.931 1_655 S
H445 C433 0.930 1_655 S
H446 C434 0.956 . S
H447 C434 0.961 . S
H448 C434 0.961 . S
H449 C435 0.958 . S
H450 C435 0.961 . S
H451 C435 0.960 . S
C452 C453 1.391 . S
C452 C454 1.394 1_455 S
C452 H468 0.931 . S
C453 C452 1.391 . S
C453 C457 1.376 1_455 S
C454 C452 1.394 1_655 S
C454 C455 1.369 . S
C454 C458 1.531 . S
C455 C454 1.369 . S
C455 C456 1.410 . S
C455 C463 1.503 . S
C456 C455 1.410 . S
C456 C457 1.392 . S
C456 C459 1.511 . S
C457 C453 1.376 1_655 S
C457 C456 1.392 . S
C457 H469 0.929 . S
C458 C454 1.531 . S
C458 H470 0.960 . S
C458 H471 0.962 . S
C458 H472 0.960 1_655 S
C459 C456 1.511 . S
C459 H473 0.961 . S
C459 H474 0.961 . S
C459 H475 0.961 . S
C460 C461 1.370 1_545 S
C460 C462 1.363 . S
C460 H476 0.931 . S
C461 C460 1.370 1_565 S
C461 C465 1.408 . S
C462 C460 1.363 . S
C462 C463 1.370 . S
C462 C466 1.524 . S
C463 C455 1.503 . S
C463 C462 1.370 . S
C463 C464 1.403 . S
C464 C463 1.403 . S
C464 C465 1.404 1_545 S
C464 C467 1.539 . S
C465 C461 1.408 . S
C465 C464 1.404 1_565 S
C465 H477 0.930 . S
C466 C462 1.524 . S
C466 H478 0.956 . S
C466 H479 0.961 . S
C466 H480 0.961 . S
C467 C464 1.539 . S
C467 H481 0.958 . S
C467 H482 0.961 . S
C467 H483 0.960 . S
H468 C452 0.931 . S
H469 C457 0.929 . S
H470 C458 0.960 . S
H471 C458 0.962 . S
H472 C458 0.960 1_455 S
H473 C459 0.961 . S
H474 C459 0.961 . S
H475 C459 0.961 . S
H476 C460 0.931 . S
H477 C465 0.930 . S
H478 C466 0.956 . S
H479 C466 0.961 . S
H480 C466 0.961 . S
H481 C467 0.958 . S
H482 C467 0.961 . S
H483 C467 0.960 . S
C101 C51 1.699 . S
C109 C16 1.819 . S
C133 C68 1.805 . S
C141 C31 1.719 . S
C165 C22 1.805 . S
C173 C72 1.718 . S
C197 C81 1.818 . S
C205 C48 1.694 . S
C229 C49 1.806 . S
C237 C50 1.722 . S
C261 C17 1.737 . S
C269 C91 1.814 . S
C293 C34 1.138 . S
C301 C19 1.150 . S
C325 C84 1.141 . S
C333 C69 1.146 . S
C357 C41 1.142 . S
C365 C0 1.145 . S
C389 C99 1.158 . S
C397 C98 1.131 . S
C421 C18 1.148 . S
C429 C1 1.147 . S
C453 C66 1.126 . S
C461 C67 1.147 . S
