# Generated by pormake.
# Topology unm, (4)-cn, num edge types: 1
# Building blocks:
#     Node 0, Type 0, BuildingBlock: TATPOV_clean_sbu_0, # of connection points: 4
#     Node 1, Type 0, BuildingBlock: TATPOV_clean_sbu_0, # of connection points: 4
#     Node 2, Type 0, BuildingBlock: TATPOV_clean_sbu_0, # of connection points: 4
#     Node 3, Type 0, BuildingBlock: TATPOV_clean_sbu_0, # of connection points: 4
#     Node 4, Type 0, BuildingBlock: TATPOV_clean_sbu_0, # of connection points: 4
#     Node 5, Type 0, BuildingBlock: TATPOV_clean_sbu_0, # of connection points: 4
#     Node 6, Type 0, BuildingBlock: TATPOV_clean_sbu_0, # of connection points: 4
#     Node 7, Type 0, BuildingBlock: TATPOV_clean_sbu_0, # of connection points: 4
#     Edge 8, Type (0, 0), BuildingBlock: FUNLAD_clean_linker_0, # of connection points: 2
#     Edge 9, Type (0, 0), BuildingBlock: FUNLAD_clean_linker_0, # of connection points: 2
#     Edge 10, Type (0, 0), BuildingBlock: FUNLAD_clean_linker_0, # of connection points: 2
#     Edge 11, Type (0, 0), BuildingBlock: FUNLAD_clean_linker_0, # of connection points: 2
#     Edge 12, Type (0, 0), BuildingBlock: FUNLAD_clean_linker_0, # of connection points: 2
#     Edge 13, Type (0, 0), BuildingBlock: FUNLAD_clean_linker_0, # of connection points: 2
#     Edge 14, Type (0, 0), BuildingBlock: FUNLAD_clean_linker_0, # of connection points: 2
#     Edge 15, Type (0, 0), BuildingBlock: FUNLAD_clean_linker_0, # of connection points: 2
#     Edge 16, Type (0, 0), BuildingBlock: FUNLAD_clean_linker_0, # of connection points: 2
#     Edge 17, Type (0, 0), BuildingBlock: FUNLAD_clean_linker_0, # of connection points: 2
#     Edge 18, Type (0, 0), BuildingBlock: FUNLAD_clean_linker_0, # of connection points: 2
#     Edge 19, Type (0, 0), BuildingBlock: FUNLAD_clean_linker_0, # of connection points: 2
#     Edge 20, Type (0, 0), BuildingBlock: FUNLAD_clean_linker_0, # of connection points: 2
#     Edge 21, Type (0, 0), BuildingBlock: FUNLAD_clean_linker_0, # of connection points: 2
#     Edge 22, Type (0, 0), BuildingBlock: FUNLAD_clean_linker_0, # of connection points: 2
#     Edge 23, Type (0, 0), BuildingBlock: FUNLAD_clean_linker_0, # of connection points: 2
# Relax obj value: 0.133
# Max RMSD: 0.141
# Mean RMSD: 0.141
data_MOF--net-unm--node1-TATPOV_clean_sbu_0--edge1-FUNLAD_clean_linker_0
_symmetry_space_group_name_H-M    P1
_symmetry_Int_Tables_number       1
_symmetry_cell_setting            triclinic
loop_
_symmetry_equiv_pos_as_xyz
'x, y, z'
_cell_length_a     29.870604
_cell_length_b     29.887866
_cell_length_c     48.25891
_cell_angle_alpha  89.80632
_cell_angle_beta   89.873589
_cell_angle_gamma 89.733025
loop_
_atom_site_label
_atom_site_type_symbol
_atom_site_fract_x
_atom_site_fract_y
_atom_site_fract_z
_atom_type_partial_charge
Zn0 Zn 0.88971 0.22729 0.13421 0.0
Zn1 Zn 0.95905 0.22453 0.1694 0.0
O2 O 0.90258 0.21508 0.19499 0.0
O3 O 0.84712 0.21206 0.16502 0.0
O4 O 0.01348 0.22497 0.19514 0.0
O5 O 0.91778 0.18007 0.1103 0.0
O6 O 0.97531 0.17766 0.13873 0.0
C7 C 0.86082 0.21069 0.18981 0.0
C8 C 0.93664 0.3103 0.13699 0.0
O9 O 0.96091 0.28801 0.15378 0.0
O10 O 0.9029 0.29232 0.12584 0.0
C11 C 0.01409 0.25219 0.21539 0.0
O12 O 0.97854 0.27714 0.22002 0.0
C13 C 0.956 0.16465 0.11655 0.0
Zn14 Zn 0.28656 0.4052 0.63978 0.0
Zn15 Zn 0.29909 0.46999 0.6779 0.0
O16 O 0.30831 0.41138 0.70128 0.0
O17 O 0.29741 0.35946 0.66968 0.0
O18 O 0.30293 0.52261 0.70465 0.0
O19 O 0.33732 0.42895 0.61683 0.0
O20 O 0.34403 0.48524 0.64596 0.0
C21 C 0.30545 0.3701 0.69456 0.0
C22 C 0.20864 0.45839 0.64831 0.0
O23 O 0.23422 0.47637 0.66606 0.0
O24 O 0.22314 0.42714 0.63303 0.0
C25 C 0.2764 0.52313 0.72533 0.0
O26 O 0.25091 0.48812 0.72985 0.0
C27 C 0.3555 0.46546 0.62357 0.0
Zn28 Zn 0.10285 0.78463 0.13059 0.0
Zn29 Zn 0.03332 0.78447 0.1675 0.0
O30 O 0.08989 0.79071 0.193 0.0
O31 O 0.14493 0.79411 0.16251 0.0
O32 O 0.97834 0.78133 0.19298 0.0
O33 O 0.07517 0.83702 0.11037 0.0
O34 O 0.01747 0.83465 0.13896 0.0
C35 C 0.13168 0.79401 0.18746 0.0
C36 C 0.05418 0.70237 0.13115 0.0
O37 O 0.03162 0.72344 0.14931 0.0
O38 O 0.08738 0.72083 0.11948 0.0
C39 C 0.9685 0.74457 0.20497 0.0
O40 O 0.99617 0.7105 0.20256 0.0
C41 C 0.03708 0.85137 0.11779 0.0
Zn42 Zn 0.7292 0.60914 0.6295 0.0
Zn43 Zn 0.71919 0.53982 0.66486 0.0
O44 O 0.70791 0.59628 0.68996 0.0
O45 O 0.71168 0.65181 0.65978 0.0
O46 O 0.71728 0.48486 0.69048 0.0
O47 O 0.68362 0.58309 0.60408 0.0
O48 O 0.67455 0.52581 0.63235 0.0
C49 C 0.70588 0.63814 0.68437 0.0
C50 C 0.80942 0.55907 0.63599 0.0
O51 O 0.78421 0.53661 0.65208 0.0
O52 O 0.79422 0.59307 0.62337 0.0
C53 C 0.74414 0.48366 0.71095 0.0
O54 O 0.76908 0.51888 0.71579 0.0
C55 C 0.66526 0.54605 0.60963 0.0
Zn56 Zn 0.39131 0.26999 0.41104 0.0
Zn57 Zn 0.45856 0.28406 0.37473 0.0
O58 O 0.40092 0.29361 0.35042 0.0
O59 O 0.34682 0.28523 0.38114 0.0
O60 O 0.51245 0.2884 0.34862 0.0
O61 O 0.41642 0.31674 0.43619 0.0
O62 O 0.47218 0.32852 0.40717 0.0
C63 C 0.35917 0.29279 0.35645 0.0
C64 C 0.44503 0.19253 0.40343 0.0
O65 O 0.46528 0.21909 0.38705 0.0
O66 O 0.41098 0.2058 0.41678 0.0
C67 C 0.51431 0.26105 0.32845 0.0
O68 O 0.48004 0.23455 0.32417 0.0
C69 C 0.45252 0.33662 0.43021 0.0
Zn70 Zn 0.22245 0.90351 0.91769 0.0
Zn71 Zn 0.21945 0.96955 0.87819 0.0
O72 O 0.21396 0.91123 0.85461 0.0
O73 O 0.21569 0.85864 0.88679 0.0
O74 O 0.22277 0.02194 0.85096 0.0
O75 O 0.16821 0.93088 0.93616 0.0
O76 O 0.16885 0.98655 0.90597 0.0
C77 C 0.21355 0.86985 0.86147 0.0
C78 C 0.30241 0.95523 0.91531 0.0
O79 O 0.28053 0.97408 0.89593 0.0
O80 O 0.28506 0.92342 0.92896 0.0
C81 C 0.25762 0.02473 0.83579 0.0
O82 O 0.28716 0.99204 0.83674 0.0
C83 C 0.15257 0.96783 0.92757 0.0
Zn84 Zn 0.6017 0.71508 0.40482 0.0
Zn85 Zn 0.53467 0.70348 0.36782 0.0
O86 O 0.59185 0.68847 0.34425 0.0
O87 O 0.64532 0.69512 0.37545 0.0
O88 O 0.48053 0.70051 0.34202 0.0
O89 O 0.57364 0.67089 0.43087 0.0
O90 O 0.51772 0.66269 0.40165 0.0
C91 C 0.6333 0.68695 0.35084 0.0
C92 C 0.55451 0.79586 0.39304 0.0
O93 O 0.53317 0.76966 0.37718 0.0
O94 O 0.58595 0.78097 0.40807 0.0
C95 C 0.47957 0.72675 0.32118 0.0
O96 O 0.51501 0.75121 0.31581 0.0
C97 C 0.53633 0.6536 0.42487 0.0
Zn98 Zn 0.77824 0.10504 0.90605 0.0
Zn99 Zn 0.78962 0.03781 0.86925 0.0
O100 O 0.79822 0.09532 0.84457 0.0
O101 O 0.7919 0.14919 0.87548 0.0
O102 O 0.79379 0.98319 0.84375 0.0
O103 O 0.82621 0.07953 0.93063 0.0
O104 O 0.83441 0.02345 0.90156 0.0
C105 C 0.79781 0.13701 0.85061 0.0
C106 C 0.6995 0.05295 0.89912 0.0
O107 O 0.72496 0.03261 0.88213 0.0
O108 O 0.71404 0.08595 0.91274 0.0
C109 C 0.76205 0.97564 0.8268 0.0
O110 O 0.7299 0.00554 0.82435 0.0
C111 C 0.84451 0.04264 0.92436 0.0
C112 C 0.95746 0.12228 0.07182 0.0
C113 C 0.97971 0.13592 0.09605 0.0
C114 C 0.98073 0.10132 0.05028 0.0
C115 C 0.02697 0.0929 0.05245 0.0
C116 C 0.04891 0.10506 0.07706 0.0
C117 C 0.02559 0.1262 0.09866 0.0
C118 C 0.05379 0.07384 0.0291 0.0
C119 C 0.03605 0.05142 1.00755 0.0
C120 C 0.06417 0.03153 0.98543 0.0
C121 C 0.05662 0.98718 0.9773 0.0
C122 C 0.08443 0.96684 0.95762 0.0
C123 C 0.11905 0.9911 0.94489 0.0
H124 H 0.10401 0.09073 0.97788 0.0
C125 C 0.12497 0.03628 0.95188 0.0
C126 C 0.09811 0.0562 0.97227 0.0
H127 H 0.15179 0.05551 0.94259 0.0
H128 H 0.92217 0.12933 0.06896 0.0
H129 H 0.96245 0.0936 0.03162 0.0
H130 H 0.08451 0.09905 0.07938 0.0
H131 H 0.04389 0.13642 0.11691 0.0
H132 H 0.08999 0.07715 0.03012 0.0
H133 H 0.00058 0.0445 1.00677 0.0
H134 H 0.03034 0.96773 0.987 0.0
H135 H 0.07941 0.93188 0.95269 0.0
C136 C 0.38435 0.53218 0.59758 0.0
C137 C 0.38697 0.48625 0.60373 0.0
C138 C 0.40853 0.55003 0.5752 0.0
C139 C 0.43642 0.52234 0.55905 0.0
C140 C 0.44088 0.47709 0.56628 0.0
C141 C 0.41585 0.45903 0.58806 0.0
C142 C 0.46157 0.53969 0.53473 0.0
C143 C 0.44369 0.56895 0.51648 0.0
C144 C 0.46837 0.58616 0.49179 0.0
C145 C 0.44431 0.60121 0.46851 0.0
C146 C 0.46647 0.62082 0.4459 0.0
C147 C 0.51314 0.6265 0.44635 0.0
H148 H 0.53483 0.58038 0.50954 0.0
C149 C 0.53726 0.6103 0.46935 0.0
C150 C 0.51521 0.59043 0.49177 0.0
H151 H 0.57324 0.61427 0.47048 0.0
H152 H 0.36199 0.5538 0.60918 0.0
H153 H 0.40522 0.58533 0.57045 0.0
H154 H 0.46241 0.45524 0.55436 0.0
H155 H 0.41839 0.42348 0.59231 0.0
H156 H 0.49437 0.52531 0.53074 0.0
H157 H 0.4091 0.57958 0.51918 0.0
H158 H 0.40817 0.59851 0.46802 0.0
H159 H 0.44684 0.63327 0.42865 0.0
C160 C 0.96941 0.87643 0.09149 0.0
C161 C 0.01387 0.88391 0.09965 0.0
C162 C 0.9499 0.90261 0.07057 0.0
C163 C 0.97417 0.93745 0.05804 0.0
C164 C 0.01771 0.94643 0.06726 0.0
C165 C 0.03774 0.9193 0.08746 0.0
C166 C 0.95457 0.96517 0.03556 0.0
C167 C 0.93418 0.94702 1.01338 0.0
C168 C 0.91546 0.97355 0.98975 0.0
C169 C 0.90652 0.95191 0.96452 0.0
C170 C 0.88571 0.97478 0.94258 0.0
C171 C 0.87307 0.01989 0.94544 0.0
H172 H 0.90935 0.03703 1.01135 0.0
C173 C 0.8835 0.04194 0.97034 0.0
C174 C 0.90415 0.01911 0.99222 0.0
H175 H 0.87415 0.07663 0.97342 0.0
H176 H 0.95051 0.849 0.10032 0.0
H177 H 0.91595 0.89556 0.06411 0.0
H178 H 0.03684 0.97342 0.05806 0.0
H179 H 0.07216 0.92554 0.09328 0.0
H180 H 0.96004 0.00087 0.0367 0.0
H181 H 0.93243 0.91075 1.01202 0.0
H182 H 0.9148 0.91683 0.96195 0.0
H183 H 0.878 0.95662 0.92381 0.0
C184 C 0.51565 0.38506 0.44774 0.0
C185 C 0.47356 0.36512 0.45178 0.0
C186 C 0.53716 0.40704 0.46966 0.0
C187 C 0.51703 0.40924 0.49608 0.0
C188 C 0.47464 0.39027 0.49982 0.0
C189 C 0.45302 0.36893 0.47798 0.0
C190 C 0.53992 0.42862 0.52064 0.0
C191 C 0.56947 0.46238 0.51902 0.0
C192 C 0.59091 0.48346 0.54363 0.0
C193 C 0.60872 0.52648 0.54055 0.0
C194 C 0.63085 0.54722 0.56242 0.0
C195 C 0.63669 0.5252 0.58802 0.0
H196 H 0.58327 0.42801 0.57261 0.0
C197 C 0.61834 0.48228 0.5914 0.0
C198 C 0.59562 0.4616 0.56945 0.0
H199 H 0.62255 0.46418 0.6107 0.0
H200 H 0.53259 0.38251 0.42794 0.0
H201 H 0.57022 0.42062 0.46611 0.0
H202 H 0.45832 0.39137 0.51988 0.0
H203 H 0.42066 0.35404 0.48202 0.0
H204 H 0.52988 0.41611 0.54084 0.0
H205 H 0.57647 0.47712 0.49886 0.0
H206 H 0.60606 0.54406 0.52095 0.0
H207 H 0.64455 0.58023 0.55885 0.0
C208 C 0.09682 0.24129 0.22455 0.0
C209 C 0.05459 0.2575 0.23298 0.0
C210 C 0.13499 0.24841 0.24095 0.0
C211 C 0.13154 0.27152 0.26628 0.0
C212 C 0.0892 0.28692 0.27477 0.0
C213 C 0.05139 0.28042 0.25828 0.0
C214 C 0.17029 0.27856 0.28526 0.0
C215 C 0.21366 0.28104 0.27723 0.0
C216 C 0.25161 0.28874 0.29698 0.0
C217 C 0.29569 0.27793 0.28886 0.0
C218 C 0.33155 0.28177 0.30754 0.0
C219 C 0.32399 0.29641 0.3348 0.0
H220 H 0.21229 0.31738 0.33071 0.0
C221 C 0.28045 0.30962 0.34239 0.0
C222 C 0.2449 0.30634 0.32374 0.0
H223 H 0.27357 0.32172 0.36312 0.0
H224 H 0.10046 0.22351 0.20515 0.0
H225 H 0.16679 0.23507 0.23398 0.0
H226 H 0.08534 0.30447 0.29425 0.0
H227 H 0.01948 0.29326 0.26551 0.0
H228 H 0.16181 0.28266 0.30695 0.0
H229 H 0.222 0.27657 0.2555 0.0
H230 H 0.30225 0.26504 0.26829 0.0
H231 H 0.36467 0.27119 0.30106 0.0
C232 C 0.28559 0.60594 0.73383 0.0
C233 C 0.27116 0.56357 0.74293 0.0
C234 C 0.27723 0.64431 0.74984 0.0
C235 C 0.25466 0.64089 0.77542 0.0
C236 C 0.24145 0.59836 0.78471 0.0
C237 C 0.24915 0.56032 0.7686 0.0
C238 C 0.2454 0.68009 0.79368 0.0
C239 C 0.24038 0.72279 0.78477 0.0
C240 C 0.22948 0.76091 0.80377 0.0
C241 C 0.23943 0.80503 0.79556 0.0
C242 C 0.23209 0.84114 0.81362 0.0
C243 C 0.21463 0.83381 0.84032 0.0
H244 H 0.19881 0.72143 0.83668 0.0
C245 C 0.20241 0.79007 0.84791 0.0
C246 C 0.2093 0.75423 0.82986 0.0
H247 H 0.18816 0.7833 0.86815 0.0
H248 H 0.30258 0.60959 0.71411 0.0
H249 H 0.28895 0.6763 0.74227 0.0
H250 H 0.22439 0.59455 0.80442 0.0
H251 H 0.23769 0.52826 0.77631 0.0
H252 H 0.24145 0.67257 0.81554 0.0
H253 H 0.24488 0.73043 0.76293 0.0
H254 H 0.25424 0.81146 0.77543 0.0
H255 H 0.24192 0.87442 0.80714 0.0
C256 C 0.66619 0.69999 0.30342 0.0
C257 C 0.66897 0.68017 0.32983 0.0
C258 C 0.70402 0.70152 0.28604 0.0
C259 C 0.74508 0.68271 0.29471 0.0
C260 C 0.74666 0.66036 0.32032 0.0
C261 C 0.70933 0.65958 0.33779 0.0
C262 C 0.78724 0.68586 0.27815 0.0
C263 C 0.7968 0.71987 0.2606 0.0
C264 C 0.84118 0.72534 0.24646 0.0
C265 C 0.85312 0.76761 0.23591 0.0
C266 C 0.89454 0.77425 0.22276 0.0
C267 C 0.92508 0.73864 0.21975 0.0
H268 H 0.86365 0.65613 0.24996 0.0
C269 C 0.91302 0.69629 0.23009 0.0
C270 C 0.87164 0.68962 0.24308 0.0
H271 H 0.93534 0.66787 0.22782 0.0
H272 H 0.63559 0.7164 0.29683 0.0
H273 H 0.70115 0.71792 0.26609 0.0
H274 H 0.77753 0.64503 0.32743 0.0
H275 H 0.71249 0.64404 0.35802 0.0
H276 H 0.81289 0.66118 0.28281 0.0
H277 H 0.77234 0.74651 0.25787 0.0
H278 H 0.8304 0.79577 0.23797 0.0
H279 H 0.90252 0.80723 0.21487 0.0
C280 C 0.73521 0.40046 0.71943 0.0
C281 C 0.74962 0.4428 0.72842 0.0
C282 C 0.74329 0.36196 0.73559 0.0
C283 C 0.76553 0.3652 0.76124 0.0
C284 C 0.77895 0.40767 0.77032 0.0
C285 C 0.77153 0.44579 0.75408 0.0
C286 C 0.77396 0.32605 0.77993 0.0
C287 C 0.77815 0.28299 0.77163 0.0
C288 C 0.78781 0.24496 0.79119 0.0
C289 C 0.7777 0.20079 0.7833 0.0
C290 C 0.78349 0.16487 0.80189 0.0
C291 C 0.79951 0.1724 0.82885 0.0
H292 H 0.81736 0.28446 0.82426 0.0
C293 C 0.81206 0.21608 0.83613 0.0
C294 C 0.80676 0.25172 0.81756 0.0
H295 H 0.82516 0.223 0.85658 0.0
H296 H 0.7183 0.39697 0.69973 0.0
H297 H 0.7315 0.33002 0.72814 0.0
H298 H 0.79578 0.41141 0.79004 0.0
H299 H 0.783 0.47777 0.76174 0.0
H300 H 0.77781 0.33396 0.8017 0.0
H301 H 0.77374 0.27498 0.74988 0.0
H302 H 0.76382 0.19421 0.76301 0.0
H303 H 0.77335 0.13166 0.79563 0.0
C304 C 0.59702 0.27274 0.31981 0.0
C305 C 0.55528 0.25625 0.31109 0.0
C306 C 0.63588 0.26499 0.30397 0.0
C307 C 0.6336 0.24093 0.27894 0.0
C308 C 0.59167 0.22553 0.27008 0.0
C309 C 0.55318 0.2327 0.28599 0.0
C310 C 0.67321 0.23227 0.26075 0.0
C311 C 0.71633 0.23082 0.26927 0.0
C312 C 0.75462 0.22079 0.25008 0.0
C313 C 0.79798 0.23569 0.25664 0.0
C314 C 0.83369 0.22989 0.23793 0.0
C315 C 0.82668 0.20899 0.21225 0.0
H316 H 0.71671 0.18261 0.21987 0.0
C317 C 0.78408 0.19152 0.20655 0.0
C318 C 0.7487 0.1969 0.22525 0.0
H319 H 0.77769 0.17459 0.18715 0.0
H320 H 0.59981 0.29097 0.33908 0.0
H321 H 0.66733 0.27835 0.31122 0.0
H322 H 0.58867 0.20726 0.25081 0.0
H323 H 0.52167 0.21961 0.27857 0.0
H324 H 0.66575 0.22586 0.23914 0.0
H325 H 0.72418 0.238 0.29075 0.0
H326 H 0.8039 0.25343 0.27582 0.0
H327 H 0.86607 0.24384 0.24293 0.0
C328 C 0.31073 0.289 0.70689 0.0
C329 C 0.30695 0.33371 0.71566 0.0
C330 C 0.3053 0.25361 0.72553 0.0
C331 C 0.29629 0.26176 0.75371 0.0
C332 C 0.29382 0.30649 0.76271 0.0
C333 C 0.29936 0.34213 0.74394 0.0
C334 C 0.28625 0.22448 0.77354 0.0
C335 C 0.30015 0.1819 0.76947 0.0
C336 C 0.28837 0.14297 0.78751 0.0
C337 C 0.31481 0.10412 0.78564 0.0
C338 C 0.30444 0.06592 0.80109 0.0
C339 C 0.26693 0.06521 0.81873 0.0
H340 H 0.22861 0.17116 0.8066 0.0
C341 C 0.24 0.10388 0.82049 0.0
C342 C 0.25057 0.14239 0.80506 0.0
H343 H 0.21086 0.10449 0.83388 0.0
H344 H 0.31634 0.28113 0.68526 0.0
H345 H 0.30625 0.22 0.71733 0.0
H346 H 0.28664 0.31392 0.78423 0.0
H347 H 0.29578 0.37613 0.75135 0.0
H348 H 0.26726 0.23268 0.79206 0.0
H349 H 0.32253 0.17484 0.75227 0.0
H350 H 0.34384 0.10326 0.77214 0.0
H351 H 0.326 0.03686 0.79915 0.0
C352 C 0.39613 0.71868 0.31401 0.0
C353 C 0.43828 0.73291 0.30436 0.0
C354 C 0.35708 0.72792 0.29874 0.0
C355 C 0.35954 0.75128 0.27337 0.0
C356 C 0.40183 0.76434 0.26355 0.0
C357 C 0.44054 0.75566 0.27889 0.0
C358 C 0.31965 0.76178 0.25583 0.0
C359 C 0.27692 0.76488 0.26503 0.0
C360 C 0.23859 0.77701 0.24643 0.0
C361 C 0.19491 0.7631 0.25318 0.0
C362 C 0.15907 0.77103 0.23493 0.0
C363 C 0.16629 0.79314 0.20955 0.0
H364 H 0.2772 0.81561 0.21652 0.0
C365 C 0.20932 0.80959 0.20372 0.0
C366 C 0.24484 0.80205 0.22196 0.0
H367 H 0.21591 0.82743 0.18457 0.0
H368 H 0.3932 0.70112 0.3336 0.0
H369 H 0.32533 0.71632 0.30675 0.0
H370 H 0.40496 0.78202 0.244 0.0
H371 H 0.47236 0.76703 0.27075 0.0
H372 H 0.32658 0.76821 0.23411 0.0
H373 H 0.26938 0.75758 0.28658 0.0
H374 H 0.18879 0.74451 0.27211 0.0
H375 H 0.12634 0.75784 0.24001 0.0
C376 C 0.72673 0.6711 0.73044 0.0
C377 C 0.70047 0.67231 0.7063 0.0
C378 C 0.72858 0.70851 0.74801 0.0
C379 C 0.70351 0.7474 0.74192 0.0
C380 C 0.67518 0.74717 0.71875 0.0
C381 C 0.67421 0.71044 0.70093 0.0
C382 C 0.70606 0.78916 0.75871 0.0
C383 C 0.74356 0.80333 0.77158 0.0
C384 C 0.74774 0.848 0.78541 0.0
C385 C 0.78338 0.85536 0.80386 0.0
C386 C 0.78876 0.89689 0.81695 0.0
C387 C 0.75869 0.93228 0.81179 0.0
H388 H 0.69138 0.88086 0.76504 0.0
C389 C 0.72364 0.92527 0.79291 0.0
C390 C 0.71832 0.88392 0.77981 0.0
H391 H 0.7 0.9518 0.78821 0.0
H392 H 0.74769 0.6423 0.73488 0.0
H393 H 0.74995 0.7071 0.76608 0.0
H394 H 0.65515 0.77638 0.71368 0.0
H395 H 0.65386 0.71237 0.6824 0.0
H396 H 0.67645 0.81026 0.75861 0.0
H397 H 0.77299 0.78185 0.77152 0.0
H398 H 0.807 0.82872 0.80838 0.0
H399 H 0.81616 0.90103 0.83136 0.0
C400 C 0.00235 0.63753 0.13511 0.0
C401 C 0.04254 0.65553 0.12492 0.0
C402 C 0.99267 0.59238 0.13154 0.0
C403 C 0.02298 0.56413 0.11762 0.0
C404 C 0.06277 0.58222 0.10698 0.0
C405 C 0.07233 0.62763 0.11037 0.0
C406 C 0.01579 0.51518 0.11635 0.0
C407 C 0.97479 0.49676 0.11704 0.0
C408 C 0.96735 0.4481 0.12042 0.0
C409 C 0.92715 0.42958 0.11098 0.0
C410 C 0.91749 0.38457 0.11587 0.0
C411 C 0.94761 0.3574 0.13075 0.0
H412 H 0.02847 0.43423 0.14337 0.0
C413 C 0.98796 0.37592 0.14011 0.0
C414 C 0.99778 0.42079 0.135 0.0
H415 H 0.01181 0.35591 0.1517 0.0
H416 H 0.97872 0.6581 0.14649 0.0
H417 H 0.9623 0.57948 0.14079 0.0
H418 H 0.08685 0.56103 0.09643 0.0
H419 H 0.10368 0.64049 0.1024 0.0
H420 H 0.04526 0.49381 0.11521 0.0
H421 H 0.94532 0.51802 0.11529 0.0
H422 H 0.90295 0.45009 0.10001 0.0
H423 H 0.88603 0.37135 0.10847 0.0
C424 C 0.87621 0.51467 0.65073 0.0
C425 C 0.85668 0.54573 0.63244 0.0
C426 C 0.92126 0.50311 0.64812 0.0
C427 C 0.94763 0.52226 0.62709 0.0
C428 C 0.92784 0.55202 0.60819 0.0
C429 C 0.88282 0.56407 0.611 0.0
C430 C 0.99584 0.51165 0.62467 0.0
C431 C 0.02156 0.50619 0.64725 0.0
C432 C 0.06993 0.49588 0.6459 0.0
C433 C 0.09742 0.51015 0.6676 0.0
C434 C 0.14277 0.49903 0.6679 0.0
C435 C 0.16136 0.4726 0.64673 0.0
H436 H 0.06797 0.45771 0.60769 0.0
C437 C 0.13389 0.45845 0.62488 0.0
C438 C 0.08855 0.4701 0.6244 0.0
H439 H 0.14726 0.43792 0.60833 0.0
H440 H 0.85688 0.4997 0.66734 0.0
H441 H 0.93537 0.47907 0.66254 0.0
H442 H 0.9475 0.56679 0.59166 0.0
H443 H 0.86854 0.58775 0.59642 0.0
H444 H 0.01081 0.5112 0.60414 0.0
H445 H 0.00707 0.51148 0.66768 0.0
H446 H 0.08371 0.5298 0.68447 0.0
H447 H 0.16297 0.51027 0.68513 0.0
C448 C 0.49314 0.12877 0.388 0.0
C449 C 0.46122 0.14608 0.40656 0.0
C450 C 0.50761 0.08451 0.39034 0.0
C451 C 0.49054 0.05673 0.41137 0.0
C452 C 0.45987 0.07438 0.4305 0.0
C453 C 0.44496 0.11857 0.42798 0.0
C454 C 0.504 0.00919 0.41355 0.0
C455 C 0.51137 0.98408 0.39093 0.0
C456 C 0.52227 0.93587 0.39239 0.0
C457 C 0.5076 0.90794 0.37102 0.0
C458 C 0.51752 0.86233 0.37152 0.0
C459 C 0.54319 0.84393 0.39314 0.0
H460 H 0.56063 0.93856 0.43052 0.0
C461 C 0.55847 0.87201 0.41438 0.0
C462 C 0.54793 0.9176 0.41408 0.0
H463 H 0.57849 0.85877 0.43123 0.0
H464 H 0.5066 0.14922 0.37141 0.0
H465 H 0.53227 0.07216 0.37573 0.0
H466 H 0.44661 0.05363 0.44702 0.0
H467 H 0.42068 0.13112 0.44278 0.0
H468 H 0.50436 0.9938 0.43399 0.0
H469 H 0.50617 0.99855 0.37048 0.0
H470 H 0.48808 0.92139 0.35399 0.0
H471 H 0.50558 0.84163 0.35472 0.0
C472 C 0.36904 0.00091 0.90289 0.0
C473 C 0.34891 0.96941 0.92059 0.0
C474 C 0.41389 0.01204 0.90604 0.0
C475 C 0.43968 0.99198 0.927 0.0
C476 C 0.41922 0.96234 0.94567 0.0
C477 C 0.37419 0.95077 0.94235 0.0
C478 C 0.48816 0.00109 0.92897 0.0
C479 C 0.51349 0.00402 0.90597 0.0
C480 C 0.5618 0.01426 0.90615 0.0
C481 C 0.58843 0.99837 0.88432 0.0
C482 C 0.63344 0.01006 0.88248 0.0
C483 C 0.65252 0.0387 0.90218 0.0
H484 H 0.56101 0.05577 0.943 0.0
C485 C 0.62596 0.05441 0.92421 0.0
C486 C 0.58098 0.04215 0.92626 0.0
H487 H 0.63977 0.07654 0.93969 0.0
H488 H 0.35048 0.01636 0.8861 0.0
H489 H 0.42852 0.03607 0.89186 0.0
H490 H 0.43846 0.94694 0.96217 0.0
H491 H 0.35947 0.92672 0.95648 0.0
H492 H 0.50338 0.00298 0.94935 0.0
H493 H 0.49838 0.99727 0.88593 0.0
H494 H 0.57426 0.97712 0.86847 0.0
H495 H 0.65296 0.99749 0.86521 0.0
loop_
_geom_bond_atom_site_label_1
_geom_bond_atom_site_label_2
_geom_bond_distance
_geom_bond_site_symmetry_2
_ccdc_geom_bond_type
Zn0 O3 2.031 . S
Zn0 O5 2.049 . S
Zn0 O10 2.067 . S
Zn1 O2 1.962 . S
Zn1 O4 1.986 . S
Zn1 O6 1.996 . S
Zn1 O9 1.943 . S
O2 Zn1 1.962 . S
O2 C7 1.254 . S
O3 Zn0 2.031 . S
O3 C7 1.269 . S
O4 Zn1 1.986 . S
O4 C11 1.262 . S
O5 Zn0 2.049 . S
O5 C13 1.260 . S
O6 Zn1 1.996 . S
O6 C13 1.257 . S
C7 O2 1.254 . S
C7 O3 1.269 . S
C8 O9 1.249 . S
C8 O10 1.270 . S
O9 Zn1 1.943 . S
O9 C8 1.249 . S
O10 Zn0 2.067 . S
O10 C8 1.270 . S
C11 O4 1.262 . S
C11 O12 1.232 . S
O12 C11 1.232 . S
C13 O5 1.260 . S
C13 O6 1.257 . S
Zn14 O17 2.031 . S
Zn14 O19 2.049 . S
Zn14 O24 2.067 . S
Zn15 O16 1.962 . S
Zn15 O18 1.986 . S
Zn15 O20 1.996 . S
Zn15 O23 1.943 . S
O16 Zn15 1.962 . S
O16 C21 1.254 . S
O17 Zn14 2.031 . S
O17 C21 1.269 . S
O18 Zn15 1.986 . S
O18 C25 1.262 . S
O19 Zn14 2.049 . S
O19 C27 1.260 . S
O20 Zn15 1.996 . S
O20 C27 1.257 . S
C21 O16 1.254 . S
C21 O17 1.269 . S
C22 O23 1.249 . S
C22 O24 1.270 . S
O23 Zn15 1.943 . S
O23 C22 1.249 . S
O24 Zn14 2.067 . S
O24 C22 1.270 . S
C25 O18 1.262 . S
C25 O26 1.232 . S
O26 C25 1.232 . S
C27 O19 1.260 . S
C27 O20 1.257 . S
Zn28 O31 2.031 . S
Zn28 O33 2.049 . S
Zn28 O38 2.067 . S
Zn29 O30 1.962 . S
Zn29 O32 1.986 . S
Zn29 O34 1.996 . S
Zn29 O37 1.943 . S
O30 Zn29 1.962 . S
O30 C35 1.254 . S
O31 Zn28 2.031 . S
O31 C35 1.269 . S
O32 Zn29 1.986 . S
O32 C39 1.262 . S
O33 Zn28 2.049 . S
O33 C41 1.260 . S
O34 Zn29 1.996 . S
O34 C41 1.257 . S
C35 O30 1.254 . S
C35 O31 1.269 . S
C36 O37 1.249 . S
C36 O38 1.270 . S
O37 Zn29 1.943 . S
O37 C36 1.249 . S
O38 Zn28 2.067 . S
O38 C36 1.270 . S
C39 O32 1.262 . S
C39 O40 1.232 . S
O40 C39 1.232 . S
C41 O33 1.260 . S
C41 O34 1.257 . S
Zn42 O45 2.031 . S
Zn42 O47 2.049 . S
Zn42 O52 2.067 . S
Zn43 O44 1.962 . S
Zn43 O46 1.986 . S
Zn43 O48 1.996 . S
Zn43 O51 1.943 . S
O44 Zn43 1.962 . S
O44 C49 1.254 . S
O45 Zn42 2.031 . S
O45 C49 1.269 . S
O46 Zn43 1.986 . S
O46 C53 1.262 . S
O47 Zn42 2.049 . S
O47 C55 1.260 . S
O48 Zn43 1.996 . S
O48 C55 1.257 . S
C49 O44 1.254 . S
C49 O45 1.269 . S
C50 O51 1.249 . S
C50 O52 1.270 . S
O51 Zn43 1.943 . S
O51 C50 1.249 . S
O52 Zn42 2.067 . S
O52 C50 1.270 . S
C53 O46 1.262 . S
C53 O54 1.232 . S
O54 C53 1.232 . S
C55 O47 1.260 . S
C55 O48 1.257 . S
Zn56 O59 2.031 . S
Zn56 O61 2.049 . S
Zn56 O66 2.067 . S
Zn57 O58 1.962 . S
Zn57 O60 1.986 . S
Zn57 O62 1.996 . S
Zn57 O65 1.943 . S
O58 Zn57 1.962 . S
O58 C63 1.254 . S
O59 Zn56 2.031 . S
O59 C63 1.269 . S
O60 Zn57 1.986 . S
O60 C67 1.262 . S
O61 Zn56 2.049 . S
O61 C69 1.260 . S
O62 Zn57 1.996 . S
O62 C69 1.257 . S
C63 O58 1.254 . S
C63 O59 1.269 . S
C64 O65 1.249 . S
C64 O66 1.270 . S
O65 Zn57 1.943 . S
O65 C64 1.249 . S
O66 Zn56 2.067 . S
O66 C64 1.270 . S
C67 O60 1.262 . S
C67 O68 1.232 . S
O68 C67 1.232 . S
C69 O61 1.260 . S
C69 O62 1.257 . S
Zn70 O73 2.031 . S
Zn70 O75 2.049 . S
Zn70 O80 2.067 . S
Zn71 O72 1.962 . S
Zn71 O74 1.986 . S
Zn71 O76 1.996 . S
Zn71 O79 1.943 . S
O72 Zn71 1.962 . S
O72 C77 1.254 . S
O73 Zn70 2.031 . S
O73 C77 1.269 . S
O74 Zn71 1.986 . S
O74 C81 1.262 . S
O75 Zn70 2.049 . S
O75 C83 1.260 . S
O76 Zn71 1.996 . S
O76 C83 1.257 . S
C77 O72 1.254 . S
C77 O73 1.269 . S
C78 O79 1.249 . S
C78 O80 1.270 . S
O79 Zn71 1.943 . S
O79 C78 1.249 . S
O80 Zn70 2.067 . S
O80 C78 1.270 . S
C81 O74 1.262 . S
C81 O82 1.232 . S
O82 C81 1.232 . S
C83 O75 1.260 . S
C83 O76 1.257 . S
Zn84 O87 2.031 . S
Zn84 O89 2.049 . S
Zn84 O94 2.067 . S
Zn85 O86 1.962 . S
Zn85 O88 1.986 . S
Zn85 O90 1.996 . S
Zn85 O93 1.943 . S
O86 Zn85 1.962 . S
O86 C91 1.254 . S
O87 Zn84 2.031 . S
O87 C91 1.269 . S
O88 Zn85 1.986 . S
O88 C95 1.262 . S
O89 Zn84 2.049 . S
O89 C97 1.260 . S
O90 Zn85 1.996 . S
O90 C97 1.257 . S
C91 O86 1.254 . S
C91 O87 1.269 . S
C92 O93 1.249 . S
C92 O94 1.270 . S
O93 Zn85 1.943 . S
O93 C92 1.249 . S
O94 Zn84 2.067 . S
O94 C92 1.270 . S
C95 O88 1.262 . S
C95 O96 1.232 . S
O96 C95 1.232 . S
C97 O89 1.260 . S
C97 O90 1.257 . S
Zn98 O101 2.031 . S
Zn98 O103 2.049 . S
Zn98 O108 2.067 . S
Zn99 O100 1.962 . S
Zn99 O102 1.986 . S
Zn99 O104 1.996 . S
Zn99 O107 1.943 . S
O100 Zn99 1.962 . S
O100 C105 1.254 . S
O101 Zn98 2.031 . S
O101 C105 1.269 . S
O102 Zn99 1.986 . S
O102 C109 1.262 . S
O103 Zn98 2.049 . S
O103 C111 1.260 . S
O104 Zn99 1.996 . S
O104 C111 1.257 . S
C105 O100 1.254 . S
C105 O101 1.269 . S
C106 O107 1.249 . S
C106 O108 1.270 . S
O107 Zn99 1.943 . S
O107 C106 1.249 . S
O108 Zn98 2.067 . S
O108 C106 1.270 . S
C109 O102 1.262 . S
C109 O110 1.232 . S
O110 C109 1.232 . S
C111 O103 1.260 . S
C111 O104 1.257 . S
C112 C113 1.386 . S
C112 C114 1.383 . S
C112 H128 0.951 . S
C113 C112 1.386 . S
C113 C117 1.383 . S
C114 C112 1.383 . S
C114 C115 1.402 . S
C114 H129 0.951 . S
C115 C114 1.402 . S
C115 C116 1.375 . S
C115 C118 1.481 . S
C116 C115 1.375 . S
C116 C117 1.367 . S
C116 H130 0.951 . S
C117 C113 1.383 . S
C117 C116 1.367 . S
C117 H131 0.950 . S
C118 C115 1.481 . S
C118 C119 1.297 1_554 S
C118 H132 0.950 . S
C119 C118 1.297 1_556 S
C119 C120 1.479 . S
C119 H133 0.950 . S
C120 C119 1.479 . S
C120 C121 1.375 . S
C120 C126 1.404 . S
C121 C120 1.375 . S
C121 C122 1.369 . S
C121 H134 0.950 . S
C122 C121 1.369 . S
C122 C123 1.392 . S
C122 H135 0.951 . S
C123 C122 1.392 . S
C123 C125 1.384 . S
H124 C126 0.949 . S
C125 C123 1.384 . S
C125 C126 1.385 . S
C125 H127 0.950 . S
C126 C120 1.404 . S
C126 H124 0.949 . S
C126 C125 1.385 . S
H127 C125 0.950 . S
H128 C112 0.951 . S
H129 C114 0.951 . S
H130 C116 0.951 . S
H131 C117 0.950 . S
H132 C118 0.950 . S
H133 C119 0.950 . S
H134 C121 0.950 . S
H135 C122 0.951 . S
C136 C137 1.386 . S
C136 C138 1.383 . S
C136 H152 0.951 . S
C137 C136 1.386 . S
C137 C141 1.383 . S
C138 C136 1.383 . S
C138 C139 1.402 . S
C138 H153 0.951 . S
C139 C138 1.402 . S
C139 C140 1.375 . S
C139 C142 1.481 . S
C140 C139 1.375 . S
C140 C141 1.367 . S
C140 H154 0.951 . S
C141 C137 1.383 . S
C141 C140 1.367 . S
C141 H155 0.950 . S
C142 C139 1.481 . S
C142 C143 1.297 . S
C142 H156 0.950 . S
C143 C142 1.297 . S
C143 C144 1.479 . S
C143 H157 0.950 . S
C144 C143 1.479 . S
C144 C145 1.375 . S
C144 C150 1.404 . S
C145 C144 1.375 . S
C145 C146 1.369 . S
C145 H158 0.950 . S
C146 C145 1.369 . S
C146 C147 1.392 . S
C146 H159 0.951 . S
C147 C146 1.392 . S
C147 C149 1.384 . S
H148 C150 0.949 . S
C149 C147 1.384 . S
C149 C150 1.385 . S
C149 H151 0.950 . S
C150 C144 1.404 . S
C150 H148 0.949 . S
C150 C149 1.385 . S
H151 C149 0.950 . S
H152 C136 0.951 . S
H153 C138 0.951 . S
H154 C140 0.951 . S
H155 C141 0.950 . S
H156 C142 0.950 . S
H157 C143 0.950 . S
H158 C145 0.950 . S
H159 C146 0.951 . S
C160 C161 1.386 . S
C160 C162 1.383 . S
C160 H176 0.951 . S
C161 C160 1.386 . S
C161 C165 1.383 . S
C162 C160 1.383 . S
C162 C163 1.402 . S
C162 H177 0.951 . S
C163 C162 1.402 . S
C163 C164 1.375 . S
C163 C166 1.481 . S
C164 C163 1.375 . S
C164 C165 1.367 . S
C164 H178 0.951 . S
C165 C161 1.383 . S
C165 C164 1.367 . S
C165 H179 0.950 . S
C166 C163 1.481 . S
C166 C167 1.297 1_554 S
C166 H180 0.950 . S
C167 C166 1.297 1_556 S
C167 C168 1.479 . S
C167 H181 0.950 1_556 S
C168 C167 1.479 . S
C168 C169 1.375 . S
C168 C174 1.404 . S
C169 C168 1.375 . S
C169 C170 1.369 . S
C169 H182 0.950 . S
C170 C169 1.369 . S
C170 C171 1.392 . S
C170 H183 0.951 . S
C171 C170 1.392 . S
C171 C173 1.384 . S
H172 C174 0.949 . S
C173 C171 1.384 . S
C173 C174 1.385 . S
C173 H175 0.950 . S
C174 C168 1.404 . S
C174 H172 0.949 . S
C174 C173 1.385 . S
H175 C173 0.950 . S
H176 C160 0.951 . S
H177 C162 0.951 . S
H178 C164 0.951 . S
H179 C165 0.950 . S
H180 C166 0.950 . S
H181 C167 0.950 1_554 S
H182 C169 0.950 . S
H183 C170 0.951 . S
C184 C185 1.386 . S
C184 C186 1.383 . S
C184 H200 0.951 . S
C185 C184 1.386 . S
C185 C189 1.383 . S
C186 C184 1.383 . S
C186 C187 1.402 . S
C186 H201 0.951 . S
C187 C186 1.402 . S
C187 C188 1.375 . S
C187 C190 1.481 . S
C188 C187 1.375 . S
C188 C189 1.367 . S
C188 H202 0.951 . S
C189 C185 1.383 . S
C189 C188 1.367 . S
C189 H203 0.950 . S
C190 C187 1.481 . S
C190 C191 1.297 . S
C190 H204 0.950 . S
C191 C190 1.297 . S
C191 C192 1.479 . S
C191 H205 0.950 . S
C192 C191 1.479 . S
C192 C193 1.375 . S
C192 C198 1.404 . S
C193 C192 1.375 . S
C193 C194 1.369 . S
C193 H206 0.950 . S
C194 C193 1.369 . S
C194 C195 1.392 . S
C194 H207 0.951 . S
C195 C194 1.392 . S
C195 C197 1.384 . S
H196 C198 0.949 . S
C197 C195 1.384 . S
C197 C198 1.385 . S
C197 H199 0.950 . S
C198 C192 1.404 . S
C198 H196 0.949 . S
C198 C197 1.385 . S
H199 C197 0.950 . S
H200 C184 0.951 . S
H201 C186 0.951 . S
H202 C188 0.951 . S
H203 C189 0.950 . S
H204 C190 0.950 . S
H205 C191 0.950 . S
H206 C193 0.950 . S
H207 C194 0.951 . S
C208 C209 1.386 . S
C208 C210 1.383 . S
C208 H224 0.951 . S
C209 C208 1.386 . S
C209 C213 1.383 . S
C210 C208 1.383 . S
C210 C211 1.402 . S
C210 H225 0.951 . S
C211 C210 1.402 . S
C211 C212 1.375 . S
C211 C214 1.481 . S
C212 C211 1.375 . S
C212 C213 1.367 . S
C212 H226 0.951 . S
C213 C209 1.383 . S
C213 C212 1.367 . S
C213 H227 0.950 . S
C214 C211 1.481 . S
C214 C215 1.297 . S
C214 H228 0.950 . S
C215 C214 1.297 . S
C215 C216 1.479 . S
C215 H229 0.950 . S
C216 C215 1.479 . S
C216 C217 1.375 . S
C216 C222 1.404 . S
C217 C216 1.375 . S
C217 C218 1.369 . S
C217 H230 0.950 . S
C218 C217 1.369 . S
C218 C219 1.392 . S
C218 H231 0.951 . S
C219 C218 1.392 . S
C219 C221 1.384 . S
H220 C222 0.949 . S
C221 C219 1.384 . S
C221 C222 1.385 . S
C221 H223 0.950 . S
C222 C216 1.404 . S
C222 H220 0.949 . S
C222 C221 1.385 . S
H223 C221 0.950 . S
H224 C208 0.951 . S
H225 C210 0.951 . S
H226 C212 0.951 . S
H227 C213 0.950 . S
H228 C214 0.950 . S
H229 C215 0.950 . S
H230 C217 0.950 . S
H231 C218 0.951 . S
C232 C233 1.386 . S
C232 C234 1.383 . S
C232 H248 0.951 . S
C233 C232 1.386 . S
C233 C237 1.383 . S
C234 C232 1.383 . S
C234 C235 1.402 . S
C234 H249 0.951 . S
C235 C234 1.402 . S
C235 C236 1.375 . S
C235 C238 1.481 . S
C236 C235 1.375 . S
C236 C237 1.367 . S
C236 H250 0.951 . S
C237 C233 1.383 . S
C237 C236 1.367 . S
C237 H251 0.950 . S
C238 C235 1.481 . S
C238 C239 1.297 . S
C238 H252 0.950 . S
C239 C238 1.297 . S
C239 C240 1.479 . S
C239 H253 0.950 . S
C240 C239 1.479 . S
C240 C241 1.375 . S
C240 C246 1.404 . S
C241 C240 1.375 . S
C241 C242 1.369 . S
C241 H254 0.950 . S
C242 C241 1.369 . S
C242 C243 1.392 . S
C242 H255 0.951 . S
C243 C242 1.392 . S
C243 C245 1.384 . S
H244 C246 0.949 . S
C245 C243 1.384 . S
C245 C246 1.385 . S
C245 H247 0.950 . S
C246 C240 1.404 . S
C246 H244 0.949 . S
C246 C245 1.385 . S
H247 C245 0.950 . S
H248 C232 0.951 . S
H249 C234 0.951 . S
H250 C236 0.951 . S
H251 C237 0.950 . S
H252 C238 0.950 . S
H253 C239 0.950 . S
H254 C241 0.950 . S
H255 C242 0.951 . S
C256 C257 1.386 . S
C256 C258 1.383 . S
C256 H272 0.951 . S
C257 C256 1.386 . S
C257 C261 1.383 . S
C258 C256 1.383 . S
C258 C259 1.402 . S
C258 H273 0.951 . S
C259 C258 1.402 . S
C259 C260 1.375 . S
C259 C262 1.481 . S
C260 C259 1.375 . S
C260 C261 1.367 . S
C260 H274 0.951 . S
C261 C257 1.383 . S
C261 C260 1.367 . S
C261 H275 0.950 . S
C262 C259 1.481 . S
C262 C263 1.297 . S
C262 H276 0.950 . S
C263 C262 1.297 . S
C263 C264 1.479 . S
C263 H277 0.950 . S
C264 C263 1.479 . S
C264 C265 1.375 . S
C264 C270 1.404 . S
C265 C264 1.375 . S
C265 C266 1.369 . S
C265 H278 0.950 . S
C266 C265 1.369 . S
C266 C267 1.392 . S
C266 H279 0.951 . S
C267 C266 1.392 . S
C267 C269 1.384 . S
H268 C270 0.949 . S
C269 C267 1.384 . S
C269 C270 1.385 . S
C269 H271 0.950 . S
C270 C264 1.404 . S
C270 H268 0.949 . S
C270 C269 1.385 . S
H271 C269 0.950 . S
H272 C256 0.951 . S
H273 C258 0.951 . S
H274 C260 0.951 . S
H275 C261 0.950 . S
H276 C262 0.950 . S
H277 C263 0.950 . S
H278 C265 0.950 . S
H279 C266 0.951 . S
C280 C281 1.386 . S
C280 C282 1.383 . S
C280 H296 0.951 . S
C281 C280 1.386 . S
C281 C285 1.383 . S
C282 C280 1.383 . S
C282 C283 1.402 . S
C282 H297 0.951 . S
C283 C282 1.402 . S
C283 C284 1.375 . S
C283 C286 1.481 . S
C284 C283 1.375 . S
C284 C285 1.367 . S
C284 H298 0.951 . S
C285 C281 1.383 . S
C285 C284 1.367 . S
C285 H299 0.950 . S
C286 C283 1.481 . S
C286 C287 1.297 . S
C286 H300 0.950 . S
C287 C286 1.297 . S
C287 C288 1.479 . S
C287 H301 0.950 . S
C288 C287 1.479 . S
C288 C289 1.375 . S
C288 C294 1.404 . S
C289 C288 1.375 . S
C289 C290 1.369 . S
C289 H302 0.950 . S
C290 C289 1.369 . S
C290 C291 1.392 . S
C290 H303 0.951 . S
C291 C290 1.392 . S
C291 C293 1.384 . S
H292 C294 0.949 . S
C293 C291 1.384 . S
C293 C294 1.385 . S
C293 H295 0.950 . S
C294 C288 1.404 . S
C294 H292 0.949 . S
C294 C293 1.385 . S
H295 C293 0.950 . S
H296 C280 0.951 . S
H297 C282 0.951 . S
H298 C284 0.951 . S
H299 C285 0.950 . S
H300 C286 0.950 . S
H301 C287 0.950 . S
H302 C289 0.950 . S
H303 C290 0.951 . S
C304 C305 1.386 . S
C304 C306 1.383 . S
C304 H320 0.951 . S
C305 C304 1.386 . S
C305 C309 1.383 . S
C306 C304 1.383 . S
C306 C307 1.402 . S
C306 H321 0.951 . S
C307 C306 1.402 . S
C307 C308 1.375 . S
C307 C310 1.481 . S
C308 C307 1.375 . S
C308 C309 1.367 . S
C308 H322 0.951 . S
C309 C305 1.383 . S
C309 C308 1.367 . S
C309 H323 0.950 . S
C310 C307 1.481 . S
C310 C311 1.297 . S
C310 H324 0.950 . S
C311 C310 1.297 . S
C311 C312 1.479 . S
C311 H325 0.950 . S
C312 C311 1.479 . S
C312 C313 1.375 . S
C312 C318 1.404 . S
C313 C312 1.375 . S
C313 C314 1.369 . S
C313 H326 0.950 . S
C314 C313 1.369 . S
C314 C315 1.392 . S
C314 H327 0.951 . S
C315 C314 1.392 . S
C315 C317 1.384 . S
H316 C318 0.949 . S
C317 C315 1.384 . S
C317 C318 1.385 . S
C317 H319 0.950 . S
C318 C312 1.404 . S
C318 H316 0.949 . S
C318 C317 1.385 . S
H319 C317 0.950 . S
H320 C304 0.951 . S
H321 C306 0.951 . S
H322 C308 0.951 . S
H323 C309 0.950 . S
H324 C310 0.950 . S
H325 C311 0.950 . S
H326 C313 0.950 . S
H327 C314 0.951 . S
C328 C329 1.386 . S
C328 C330 1.383 . S
C328 H344 0.951 . S
C329 C328 1.386 . S
C329 C333 1.383 . S
C330 C328 1.383 . S
C330 C331 1.402 . S
C330 H345 0.951 . S
C331 C330 1.402 . S
C331 C332 1.375 . S
C331 C334 1.481 . S
C332 C331 1.375 . S
C332 C333 1.367 . S
C332 H346 0.951 . S
C333 C329 1.383 . S
C333 C332 1.367 . S
C333 H347 0.950 . S
C334 C331 1.481 . S
C334 C335 1.297 . S
C334 H348 0.950 . S
C335 C334 1.297 . S
C335 C336 1.479 . S
C335 H349 0.950 . S
C336 C335 1.479 . S
C336 C337 1.375 . S
C336 C342 1.404 . S
C337 C336 1.375 . S
C337 C338 1.369 . S
C337 H350 0.950 . S
C338 C337 1.369 . S
C338 C339 1.392 . S
C338 H351 0.951 . S
C339 C338 1.392 . S
C339 C341 1.384 . S
H340 C342 0.949 . S
C341 C339 1.384 . S
C341 C342 1.385 . S
C341 H343 0.950 . S
C342 C336 1.404 . S
C342 H340 0.949 . S
C342 C341 1.385 . S
H343 C341 0.950 . S
H344 C328 0.951 . S
H345 C330 0.951 . S
H346 C332 0.951 . S
H347 C333 0.950 . S
H348 C334 0.950 . S
H349 C335 0.950 . S
H350 C337 0.950 . S
H351 C338 0.951 . S
C352 C353 1.386 . S
C352 C354 1.383 . S
C352 H368 0.951 . S
C353 C352 1.386 . S
C353 C357 1.383 . S
C354 C352 1.383 . S
C354 C355 1.402 . S
C354 H369 0.951 . S
C355 C354 1.402 . S
C355 C356 1.375 . S
C355 C358 1.481 . S
C356 C355 1.375 . S
C356 C357 1.367 . S
C356 H370 0.951 . S
C357 C353 1.383 . S
C357 C356 1.367 . S
C357 H371 0.950 . S
C358 C355 1.481 . S
C358 C359 1.297 . S
C358 H372 0.950 . S
C359 C358 1.297 . S
C359 C360 1.479 . S
C359 H373 0.950 . S
C360 C359 1.479 . S
C360 C361 1.375 . S
C360 C366 1.404 . S
C361 C360 1.375 . S
C361 C362 1.369 . S
C361 H374 0.950 . S
C362 C361 1.369 . S
C362 C363 1.392 . S
C362 H375 0.951 1_455 S
C363 C362 1.392 . S
C363 C365 1.384 . S
H364 C366 0.949 . S
C365 C363 1.384 . S
C365 C366 1.385 . S
C365 H367 0.950 . S
C366 C360 1.404 . S
C366 H364 0.949 . S
C366 C365 1.385 . S
H367 C365 0.950 . S
H368 C352 0.951 . S
H369 C354 0.951 . S
H370 C356 0.951 . S
H371 C357 0.950 . S
H372 C358 0.950 . S
H373 C359 0.950 . S
H374 C361 0.950 . S
H375 C362 0.951 1_655 S
C376 C377 1.386 . S
C376 C378 1.383 . S
C376 H392 0.951 . S
C377 C376 1.386 . S
C377 C381 1.383 . S
C378 C376 1.383 . S
C378 C379 1.402 . S
C378 H393 0.951 . S
C379 C378 1.402 . S
C379 C380 1.375 . S
C379 C382 1.481 . S
C380 C379 1.375 . S
C380 C381 1.367 . S
C380 H394 0.951 . S
C381 C377 1.383 . S
C381 C380 1.367 . S
C381 H395 0.950 . S
C382 C379 1.481 . S
C382 C383 1.297 . S
C382 H396 0.950 . S
C383 C382 1.297 . S
C383 C384 1.479 . S
C383 H397 0.950 . S
C384 C383 1.479 . S
C384 C385 1.375 . S
C384 C390 1.404 . S
C385 C384 1.375 . S
C385 C386 1.369 . S
C385 H398 0.950 . S
C386 C385 1.369 . S
C386 C387 1.392 . S
C386 H399 0.951 . S
C387 C386 1.392 . S
C387 C389 1.384 . S
H388 C390 0.949 . S
C389 C387 1.384 . S
C389 C390 1.385 . S
C389 H391 0.950 . S
C390 C384 1.404 . S
C390 H388 0.949 . S
C390 C389 1.385 . S
H391 C389 0.950 . S
H392 C376 0.951 . S
H393 C378 0.951 . S
H394 C380 0.951 . S
H395 C381 0.950 . S
H396 C382 0.950 . S
H397 C383 0.950 . S
H398 C385 0.950 . S
H399 C386 0.951 . S
C400 C401 1.386 . S
C400 C402 1.383 . S
C400 H416 0.951 . S
C401 C400 1.386 . S
C401 C405 1.383 . S
C402 C400 1.383 . S
C402 C403 1.402 . S
C402 H417 0.951 . S
C403 C402 1.402 . S
C403 C404 1.375 1_655 S
C403 C406 1.481 1_655 S
C404 C403 1.375 1_455 S
C404 C405 1.367 1_455 S
C404 H418 0.951 . S
C405 C401 1.383 . S
C405 C404 1.367 1_655 S
C405 H419 0.950 . S
C406 C403 1.481 1_455 S
C406 C407 1.296 1_455 S
C406 H420 0.950 . S
C407 C406 1.296 1_655 S
C407 C408 1.478 1_655 S
C407 H421 0.952 . S
C408 C407 1.478 1_455 S
C408 C409 1.375 . S
C408 C414 1.404 . S
C409 C408 1.375 . S
C409 C410 1.369 . S
C409 H422 0.950 1_455 S
C410 C409 1.369 . S
C410 C411 1.392 . S
C410 H423 0.951 . S
C411 C410 1.392 . S
C411 C413 1.384 . S
H412 C414 0.949 . S
C413 C411 1.384 . S
C413 C414 1.385 . S
C413 H415 0.950 . S
C414 C408 1.404 . S
C414 H412 0.949 . S
C414 C413 1.385 . S
H415 C413 0.950 . S
H416 C400 0.951 . S
H417 C402 0.951 . S
H418 C404 0.951 . S
H419 C405 0.950 . S
H420 C406 0.950 . S
H421 C407 0.952 . S
H422 C409 0.950 1_655 S
H423 C410 0.951 . S
C424 C425 1.386 . S
C424 C426 1.383 . S
C424 H440 0.951 . S
C425 C424 1.386 . S
C425 C429 1.383 . S
C426 C424 1.383 . S
C426 C427 1.402 . S
C426 H441 0.951 . S
C427 C426 1.402 . S
C427 C428 1.375 . S
C427 C430 1.481 . S
C428 C427 1.375 . S
C428 C429 1.367 . S
C428 H442 0.951 . S
C429 C425 1.383 . S
C429 C428 1.367 . S
C429 H443 0.950 . S
C430 C427 1.481 . S
C430 C431 1.297 1_655 S
C430 H444 0.950 1_655 S
C431 C430 1.297 1_455 S
C431 C432 1.479 . S
C431 H445 0.950 . S
C432 C431 1.479 . S
C432 C433 1.375 . S
C432 C438 1.404 . S
C433 C432 1.375 . S
C433 C434 1.369 . S
C433 H446 0.950 . S
C434 C433 1.369 . S
C434 C435 1.392 . S
C434 H447 0.951 . S
C435 C434 1.392 . S
C435 C437 1.384 . S
H436 C438 0.949 . S
C437 C435 1.384 . S
C437 C438 1.385 . S
C437 H439 0.950 . S
C438 C432 1.404 . S
C438 H436 0.949 . S
C438 C437 1.385 . S
H439 C437 0.950 . S
H440 C424 0.951 . S
H441 C426 0.951 . S
H442 C428 0.951 . S
H443 C429 0.950 . S
H444 C430 0.950 1_455 S
H445 C431 0.950 . S
H446 C433 0.950 . S
H447 C434 0.951 . S
C448 C449 1.386 . S
C448 C450 1.383 . S
C448 H464 0.951 . S
C449 C448 1.386 . S
C449 C453 1.383 . S
C450 C448 1.383 . S
C450 C451 1.402 . S
C450 H465 0.951 . S
C451 C450 1.402 . S
C451 C452 1.375 . S
C451 C454 1.481 . S
C452 C451 1.375 . S
C452 C453 1.367 . S
C452 H466 0.951 . S
C453 C449 1.383 . S
C453 C452 1.367 . S
C453 H467 0.950 . S
C454 C451 1.481 . S
C454 C455 1.297 1_545 S
C454 H468 0.950 . S
C455 C454 1.297 1_565 S
C455 C456 1.479 . S
C455 H469 0.950 . S
C456 C455 1.479 . S
C456 C457 1.375 . S
C456 C462 1.404 . S
C457 C456 1.375 . S
C457 C458 1.369 . S
C457 H470 0.950 . S
C458 C457 1.369 . S
C458 C459 1.392 . S
C458 H471 0.951 . S
C459 C458 1.392 . S
C459 C461 1.384 . S
H460 C462 0.949 . S
C461 C459 1.384 . S
C461 C462 1.385 . S
C461 H463 0.950 . S
C462 C456 1.404 . S
C462 H460 0.949 . S
C462 C461 1.385 . S
H463 C461 0.950 . S
H464 C448 0.951 . S
H465 C450 0.951 . S
H466 C452 0.951 . S
H467 C453 0.950 . S
H468 C454 0.950 . S
H469 C455 0.950 . S
H470 C457 0.950 . S
H471 C458 0.951 . S
C472 C473 1.386 . S
C472 C474 1.383 . S
C472 H488 0.951 . S
C473 C472 1.386 . S
C473 C477 1.383 . S
C474 C472 1.383 . S
C474 C475 1.402 . S
C474 H489 0.951 . S
C475 C474 1.402 . S
C475 C476 1.375 . S
C475 C478 1.481 . S
C476 C475 1.375 . S
C476 C477 1.367 . S
C476 H490 0.951 1_545 S
C477 C473 1.383 . S
C477 C476 1.367 . S
C477 H491 0.950 . S
C478 C475 1.481 . S
C478 C479 1.297 . S
C478 H492 0.950 1_545 S
C479 C478 1.297 . S
C479 C480 1.479 1_545 S
C479 H493 0.950 . S
C480 C479 1.479 1_565 S
C480 C481 1.375 . S
C480 C486 1.404 . S
C481 C480 1.375 . S
C481 C482 1.369 . S
C481 H494 0.950 1_565 S
C482 C481 1.369 . S
C482 C483 1.392 . S
C482 H495 0.951 . S
C483 C482 1.392 . S
C483 C485 1.384 . S
H484 C486 0.949 . S
C485 C483 1.384 . S
C485 C486 1.385 . S
C485 H487 0.950 . S
C486 C480 1.404 . S
C486 H484 0.949 . S
C486 C485 1.385 . S
H487 C485 0.950 . S
H488 C472 0.951 . S
H489 C474 0.951 . S
H490 C476 0.951 1_565 S
H491 C477 0.950 . S
H492 C478 0.950 1_565 S
H493 C479 0.950 . S
H494 C481 0.950 1_545 S
H495 C482 0.951 . S
C113 C13 1.305 . S
C123 C83 1.342 . S
C137 C27 1.287 . S
C147 C97 1.229 . S
C161 C41 1.300 . S
C171 C111 1.245 . S
C185 C69 1.251 . S
C195 C55 1.234 . S
C209 C11 1.435 . S
C219 C63 1.398 . S
C233 C25 1.431 . S
C243 C77 1.415 1_565 S
C257 C91 1.411 . S
C267 C39 1.414 . S
C281 C53 1.433 . S
C291 C105 1.409 1_545 S
C305 C67 1.435 . S
C315 C7 1.400 1_655 S
C329 C21 1.428 . S
C339 C81 1.406 . S
C353 C95 1.425 . S
C363 C35 1.433 1_455 S
C377 C49 1.410 . S
C387 C109 1.416 . S
C401 C36 0.671 . S
C411 C8 0.665 . S
C425 C50 0.717 . S
C435 C22 0.670 . S
C449 C64 0.671 . S
C459 C92 0.643 . S
C473 C78 0.685 . S
C483 C106 0.637 . S
