# Generated by pormake.
# Topology hal, (4)-cn, num edge types: 1
# Building blocks:
#     Node 0, Type 0, BuildingBlock: KUFVIS_clean_sbu_0, # of connection points: 4
#     Node 1, Type 0, BuildingBlock: KUFVIS_clean_sbu_0, # of connection points: 4
#     Node 2, Type 0, BuildingBlock: KUFVIS_clean_sbu_0, # of connection points: 4
#     Node 3, Type 0, BuildingBlock: KUFVIS_clean_sbu_0, # of connection points: 4
#     Node 4, Type 0, BuildingBlock: KUFVIS_clean_sbu_0, # of connection points: 4
#     Node 5, Type 0, BuildingBlock: KUFVIS_clean_sbu_0, # of connection points: 4
#     Node 6, Type 0, BuildingBlock: KUFVIS_clean_sbu_0, # of connection points: 4
#     Node 7, Type 0, BuildingBlock: KUFVIS_clean_sbu_0, # of connection points: 4
#     Node 8, Type 0, BuildingBlock: KUFVIS_clean_sbu_0, # of connection points: 4
#     Node 9, Type 0, BuildingBlock: KUFVIS_clean_sbu_0, # of connection points: 4
#     Node 10, Type 0, BuildingBlock: KUFVIS_clean_sbu_0, # of connection points: 4
#     Node 11, Type 0, BuildingBlock: KUFVIS_clean_sbu_0, # of connection points: 4
#     Node 12, Type 0, BuildingBlock: KUFVIS_clean_sbu_0, # of connection points: 4
#     Node 13, Type 0, BuildingBlock: KUFVIS_clean_sbu_0, # of connection points: 4
#     Node 14, Type 0, BuildingBlock: KUFVIS_clean_sbu_0, # of connection points: 4
#     Node 15, Type 0, BuildingBlock: KUFVIS_clean_sbu_0, # of connection points: 4
#     Node 16, Type 0, BuildingBlock: KUFVIS_clean_sbu_0, # of connection points: 4
#     Node 17, Type 0, BuildingBlock: KUFVIS_clean_sbu_0, # of connection points: 4
#     Node 18, Type 0, BuildingBlock: KUFVIS_clean_sbu_0, # of connection points: 4
#     Node 19, Type 0, BuildingBlock: KUFVIS_clean_sbu_0, # of connection points: 4
#     Node 20, Type 0, BuildingBlock: KUFVIS_clean_sbu_0, # of connection points: 4
#     Node 21, Type 0, BuildingBlock: KUFVIS_clean_sbu_0, # of connection points: 4
#     Node 22, Type 0, BuildingBlock: KUFVIS_clean_sbu_0, # of connection points: 4
#     Node 23, Type 0, BuildingBlock: KUFVIS_clean_sbu_0, # of connection points: 4
#     Node 24, Type 0, BuildingBlock: KUFVIS_clean_sbu_0, # of connection points: 4
#     Node 25, Type 0, BuildingBlock: KUFVIS_clean_sbu_0, # of connection points: 4
#     Node 26, Type 0, BuildingBlock: KUFVIS_clean_sbu_0, # of connection points: 4
#     Node 27, Type 0, BuildingBlock: KUFVIS_clean_sbu_0, # of connection points: 4
#     Node 28, Type 0, BuildingBlock: KUFVIS_clean_sbu_0, # of connection points: 4
#     Node 29, Type 0, BuildingBlock: KUFVIS_clean_sbu_0, # of connection points: 4
#     Node 30, Type 0, BuildingBlock: KUFVIS_clean_sbu_0, # of connection points: 4
#     Node 31, Type 0, BuildingBlock: KUFVIS_clean_sbu_0, # of connection points: 4
#     Node 32, Type 0, BuildingBlock: KUFVIS_clean_sbu_0, # of connection points: 4
#     Node 33, Type 0, BuildingBlock: KUFVIS_clean_sbu_0, # of connection points: 4
#     Node 34, Type 0, BuildingBlock: KUFVIS_clean_sbu_0, # of connection points: 4
#     Node 35, Type 0, BuildingBlock: KUFVIS_clean_sbu_0, # of connection points: 4
#     Node 36, Type 0, BuildingBlock: KUFVIS_clean_sbu_0, # of connection points: 4
#     Node 37, Type 0, BuildingBlock: KUFVIS_clean_sbu_0, # of connection points: 4
#     Node 38, Type 0, BuildingBlock: KUFVIS_clean_sbu_0, # of connection points: 4
#     Node 39, Type 0, BuildingBlock: KUFVIS_clean_sbu_0, # of connection points: 4
#     Node 40, Type 0, BuildingBlock: KUFVIS_clean_sbu_0, # of connection points: 4
#     Node 41, Type 0, BuildingBlock: KUFVIS_clean_sbu_0, # of connection points: 4
#     Node 42, Type 0, BuildingBlock: KUFVIS_clean_sbu_0, # of connection points: 4
#     Node 43, Type 0, BuildingBlock: KUFVIS_clean_sbu_0, # of connection points: 4
#     Node 44, Type 0, BuildingBlock: KUFVIS_clean_sbu_0, # of connection points: 4
#     Node 45, Type 0, BuildingBlock: KUFVIS_clean_sbu_0, # of connection points: 4
#     Node 46, Type 0, BuildingBlock: KUFVIS_clean_sbu_0, # of connection points: 4
#     Node 47, Type 0, BuildingBlock: KUFVIS_clean_sbu_0, # of connection points: 4
#     Node 48, Type 0, BuildingBlock: KUFVIS_clean_sbu_0, # of connection points: 4
#     Node 49, Type 0, BuildingBlock: KUFVIS_clean_sbu_0, # of connection points: 4
#     Node 50, Type 0, BuildingBlock: KUFVIS_clean_sbu_0, # of connection points: 4
#     Node 51, Type 0, BuildingBlock: KUFVIS_clean_sbu_0, # of connection points: 4
#     Node 52, Type 0, BuildingBlock: KUFVIS_clean_sbu_0, # of connection points: 4
#     Node 53, Type 0, BuildingBlock: KUFVIS_clean_sbu_0, # of connection points: 4
#     Node 54, Type 0, BuildingBlock: KUFVIS_clean_sbu_0, # of connection points: 4
#     Node 55, Type 0, BuildingBlock: KUFVIS_clean_sbu_0, # of connection points: 4
#     Node 56, Type 0, BuildingBlock: KUFVIS_clean_sbu_0, # of connection points: 4
#     Node 57, Type 0, BuildingBlock: KUFVIS_clean_sbu_0, # of connection points: 4
#     Node 58, Type 0, BuildingBlock: KUFVIS_clean_sbu_0, # of connection points: 4
#     Node 59, Type 0, BuildingBlock: KUFVIS_clean_sbu_0, # of connection points: 4
#     Node 60, Type 0, BuildingBlock: KUFVIS_clean_sbu_0, # of connection points: 4
#     Node 61, Type 0, BuildingBlock: KUFVIS_clean_sbu_0, # of connection points: 4
#     Node 62, Type 0, BuildingBlock: KUFVIS_clean_sbu_0, # of connection points: 4
#     Node 63, Type 0, BuildingBlock: KUFVIS_clean_sbu_0, # of connection points: 4
#     Node 64, Type 0, BuildingBlock: KUFVIS_clean_sbu_0, # of connection points: 4
#     Node 65, Type 0, BuildingBlock: KUFVIS_clean_sbu_0, # of connection points: 4
#     Node 66, Type 0, BuildingBlock: KUFVIS_clean_sbu_0, # of connection points: 4
#     Node 67, Type 0, BuildingBlock: KUFVIS_clean_sbu_0, # of connection points: 4
#     Node 68, Type 0, BuildingBlock: KUFVIS_clean_sbu_0, # of connection points: 4
#     Node 69, Type 0, BuildingBlock: KUFVIS_clean_sbu_0, # of connection points: 4
#     Node 70, Type 0, BuildingBlock: KUFVIS_clean_sbu_0, # of connection points: 4
#     Node 71, Type 0, BuildingBlock: KUFVIS_clean_sbu_0, # of connection points: 4
#     Node 72, Type 0, BuildingBlock: KUFVIS_clean_sbu_0, # of connection points: 4
#     Node 73, Type 0, BuildingBlock: KUFVIS_clean_sbu_0, # of connection points: 4
#     Node 74, Type 0, BuildingBlock: KUFVIS_clean_sbu_0, # of connection points: 4
#     Node 75, Type 0, BuildingBlock: KUFVIS_clean_sbu_0, # of connection points: 4
#     Node 76, Type 0, BuildingBlock: KUFVIS_clean_sbu_0, # of connection points: 4
#     Node 77, Type 0, BuildingBlock: KUFVIS_clean_sbu_0, # of connection points: 4
#     Node 78, Type 0, BuildingBlock: KUFVIS_clean_sbu_0, # of connection points: 4
#     Node 79, Type 0, BuildingBlock: KUFVIS_clean_sbu_0, # of connection points: 4
#     Node 80, Type 0, BuildingBlock: KUFVIS_clean_sbu_0, # of connection points: 4
#     Node 81, Type 0, BuildingBlock: KUFVIS_clean_sbu_0, # of connection points: 4
#     Node 82, Type 0, BuildingBlock: KUFVIS_clean_sbu_0, # of connection points: 4
#     Node 83, Type 0, BuildingBlock: KUFVIS_clean_sbu_0, # of connection points: 4
#     Node 84, Type 0, BuildingBlock: KUFVIS_clean_sbu_0, # of connection points: 4
#     Node 85, Type 0, BuildingBlock: KUFVIS_clean_sbu_0, # of connection points: 4
#     Node 86, Type 0, BuildingBlock: KUFVIS_clean_sbu_0, # of connection points: 4
#     Node 87, Type 0, BuildingBlock: KUFVIS_clean_sbu_0, # of connection points: 4
#     Node 88, Type 0, BuildingBlock: KUFVIS_clean_sbu_0, # of connection points: 4
#     Node 89, Type 0, BuildingBlock: KUFVIS_clean_sbu_0, # of connection points: 4
#     Node 90, Type 0, BuildingBlock: KUFVIS_clean_sbu_0, # of connection points: 4
#     Node 91, Type 0, BuildingBlock: KUFVIS_clean_sbu_0, # of connection points: 4
#     Node 92, Type 0, BuildingBlock: KUFVIS_clean_sbu_0, # of connection points: 4
#     Node 93, Type 0, BuildingBlock: KUFVIS_clean_sbu_0, # of connection points: 4
#     Node 94, Type 0, BuildingBlock: KUFVIS_clean_sbu_0, # of connection points: 4
#     Node 95, Type 0, BuildingBlock: KUFVIS_clean_sbu_0, # of connection points: 4
#     Edge 96, Type (0, 0), None
#     Edge 97, Type (0, 0), None
#     Edge 98, Type (0, 0), None
#     Edge 99, Type (0, 0), None
#     Edge 100, Type (0, 0), None
#     Edge 101, Type (0, 0), None
#     Edge 102, Type (0, 0), None
#     Edge 103, Type (0, 0), None
#     Edge 104, Type (0, 0), None
#     Edge 105, Type (0, 0), None
#     Edge 106, Type (0, 0), None
#     Edge 107, Type (0, 0), None
#     Edge 108, Type (0, 0), None
#     Edge 109, Type (0, 0), None
#     Edge 110, Type (0, 0), None
#     Edge 111, Type (0, 0), None
#     Edge 112, Type (0, 0), None
#     Edge 113, Type (0, 0), None
#     Edge 114, Type (0, 0), None
#     Edge 115, Type (0, 0), None
#     Edge 116, Type (0, 0), None
#     Edge 117, Type (0, 0), None
#     Edge 118, Type (0, 0), None
#     Edge 119, Type (0, 0), None
#     Edge 120, Type (0, 0), None
#     Edge 121, Type (0, 0), None
#     Edge 122, Type (0, 0), None
#     Edge 123, Type (0, 0), None
#     Edge 124, Type (0, 0), None
#     Edge 125, Type (0, 0), None
#     Edge 126, Type (0, 0), None
#     Edge 127, Type (0, 0), None
#     Edge 128, Type (0, 0), None
#     Edge 129, Type (0, 0), None
#     Edge 130, Type (0, 0), None
#     Edge 131, Type (0, 0), None
#     Edge 132, Type (0, 0), None
#     Edge 133, Type (0, 0), None
#     Edge 134, Type (0, 0), None
#     Edge 135, Type (0, 0), None
#     Edge 136, Type (0, 0), None
#     Edge 137, Type (0, 0), None
#     Edge 138, Type (0, 0), None
#     Edge 139, Type (0, 0), None
#     Edge 140, Type (0, 0), None
#     Edge 141, Type (0, 0), None
#     Edge 142, Type (0, 0), None
#     Edge 143, Type (0, 0), None
#     Edge 144, Type (0, 0), None
#     Edge 145, Type (0, 0), None
#     Edge 146, Type (0, 0), None
#     Edge 147, Type (0, 0), None
#     Edge 148, Type (0, 0), None
#     Edge 149, Type (0, 0), None
#     Edge 150, Type (0, 0), None
#     Edge 151, Type (0, 0), None
#     Edge 152, Type (0, 0), None
#     Edge 153, Type (0, 0), None
#     Edge 154, Type (0, 0), None
#     Edge 155, Type (0, 0), None
#     Edge 156, Type (0, 0), None
#     Edge 157, Type (0, 0), None
#     Edge 158, Type (0, 0), None
#     Edge 159, Type (0, 0), None
#     Edge 160, Type (0, 0), None
#     Edge 161, Type (0, 0), None
#     Edge 162, Type (0, 0), None
#     Edge 163, Type (0, 0), None
#     Edge 164, Type (0, 0), None
#     Edge 165, Type (0, 0), None
#     Edge 166, Type (0, 0), None
#     Edge 167, Type (0, 0), None
#     Edge 168, Type (0, 0), None
#     Edge 169, Type (0, 0), None
#     Edge 170, Type (0, 0), None
#     Edge 171, Type (0, 0), None
#     Edge 172, Type (0, 0), None
#     Edge 173, Type (0, 0), None
#     Edge 174, Type (0, 0), None
#     Edge 175, Type (0, 0), None
#     Edge 176, Type (0, 0), None
#     Edge 177, Type (0, 0), None
#     Edge 178, Type (0, 0), None
#     Edge 179, Type (0, 0), None
#     Edge 180, Type (0, 0), None
#     Edge 181, Type (0, 0), None
#     Edge 182, Type (0, 0), None
#     Edge 183, Type (0, 0), None
#     Edge 184, Type (0, 0), None
#     Edge 185, Type (0, 0), None
#     Edge 186, Type (0, 0), None
#     Edge 187, Type (0, 0), None
#     Edge 188, Type (0, 0), None
#     Edge 189, Type (0, 0), None
#     Edge 190, Type (0, 0), None
#     Edge 191, Type (0, 0), None
#     Edge 192, Type (0, 0), None
#     Edge 193, Type (0, 0), None
#     Edge 194, Type (0, 0), None
#     Edge 195, Type (0, 0), None
#     Edge 196, Type (0, 0), None
#     Edge 197, Type (0, 0), None
#     Edge 198, Type (0, 0), None
#     Edge 199, Type (0, 0), None
#     Edge 200, Type (0, 0), None
#     Edge 201, Type (0, 0), None
#     Edge 202, Type (0, 0), None
#     Edge 203, Type (0, 0), None
#     Edge 204, Type (0, 0), None
#     Edge 205, Type (0, 0), None
#     Edge 206, Type (0, 0), None
#     Edge 207, Type (0, 0), None
#     Edge 208, Type (0, 0), None
#     Edge 209, Type (0, 0), None
#     Edge 210, Type (0, 0), None
#     Edge 211, Type (0, 0), None
#     Edge 212, Type (0, 0), None
#     Edge 213, Type (0, 0), None
#     Edge 214, Type (0, 0), None
#     Edge 215, Type (0, 0), None
#     Edge 216, Type (0, 0), None
#     Edge 217, Type (0, 0), None
#     Edge 218, Type (0, 0), None
#     Edge 219, Type (0, 0), None
#     Edge 220, Type (0, 0), None
#     Edge 221, Type (0, 0), None
#     Edge 222, Type (0, 0), None
#     Edge 223, Type (0, 0), None
#     Edge 224, Type (0, 0), None
#     Edge 225, Type (0, 0), None
#     Edge 226, Type (0, 0), None
#     Edge 227, Type (0, 0), None
#     Edge 228, Type (0, 0), None
#     Edge 229, Type (0, 0), None
#     Edge 230, Type (0, 0), None
#     Edge 231, Type (0, 0), None
#     Edge 232, Type (0, 0), None
#     Edge 233, Type (0, 0), None
#     Edge 234, Type (0, 0), None
#     Edge 235, Type (0, 0), None
#     Edge 236, Type (0, 0), None
#     Edge 237, Type (0, 0), None
#     Edge 238, Type (0, 0), None
#     Edge 239, Type (0, 0), None
#     Edge 240, Type (0, 0), None
#     Edge 241, Type (0, 0), None
#     Edge 242, Type (0, 0), None
#     Edge 243, Type (0, 0), None
#     Edge 244, Type (0, 0), None
#     Edge 245, Type (0, 0), None
#     Edge 246, Type (0, 0), None
#     Edge 247, Type (0, 0), None
#     Edge 248, Type (0, 0), None
#     Edge 249, Type (0, 0), None
#     Edge 250, Type (0, 0), None
#     Edge 251, Type (0, 0), None
#     Edge 252, Type (0, 0), None
#     Edge 253, Type (0, 0), None
#     Edge 254, Type (0, 0), None
#     Edge 255, Type (0, 0), None
#     Edge 256, Type (0, 0), None
#     Edge 257, Type (0, 0), None
#     Edge 258, Type (0, 0), None
#     Edge 259, Type (0, 0), None
#     Edge 260, Type (0, 0), None
#     Edge 261, Type (0, 0), None
#     Edge 262, Type (0, 0), None
#     Edge 263, Type (0, 0), None
#     Edge 264, Type (0, 0), None
#     Edge 265, Type (0, 0), None
#     Edge 266, Type (0, 0), None
#     Edge 267, Type (0, 0), None
#     Edge 268, Type (0, 0), None
#     Edge 269, Type (0, 0), None
#     Edge 270, Type (0, 0), None
#     Edge 271, Type (0, 0), None
#     Edge 272, Type (0, 0), None
#     Edge 273, Type (0, 0), None
#     Edge 274, Type (0, 0), None
#     Edge 275, Type (0, 0), None
#     Edge 276, Type (0, 0), None
#     Edge 277, Type (0, 0), None
#     Edge 278, Type (0, 0), None
#     Edge 279, Type (0, 0), None
#     Edge 280, Type (0, 0), None
#     Edge 281, Type (0, 0), None
#     Edge 282, Type (0, 0), None
#     Edge 283, Type (0, 0), None
#     Edge 284, Type (0, 0), None
#     Edge 285, Type (0, 0), None
#     Edge 286, Type (0, 0), None
#     Edge 287, Type (0, 0), None
# Relax obj value: 0.331
# Max RMSD: 0.287
# Mean RMSD: 0.266
data_MOF--net-hal--node1-KUFVIS_clean_sbu_0--edge1-none
_symmetry_space_group_name_H-M    P1
_symmetry_Int_Tables_number       1
_symmetry_cell_setting            triclinic
loop_
_symmetry_equiv_pos_as_xyz
'x, y, z'
_cell_length_a     38.258002
_cell_length_b     40.836679
_cell_length_c     40.836683
_cell_angle_alpha  90.000708
_cell_angle_beta   89.999717
_cell_angle_gamma 89.999387
loop_
_atom_site_label
_atom_site_type_symbol
_atom_site_fract_x
_atom_site_fract_y
_atom_site_fract_z
_atom_type_partial_charge
Mn0 Mn 0.1123 0.19396 0.31804 0.0
Mn1 Mn 0.08993 0.16017 0.24763 0.0
C2 C 0.132 0.14163 0.30075 0.0
C3 C 0.14556 0.21032 0.36306 0.0
C4 C 0.03545 0.17712 0.29963 0.0
O5 O 0.11254 0.23296 0.28464 0.0
O6 O 0.08306 0.20631 0.2456 0.0
C7 C 0.16427 0.19403 0.21091 0.0
N8 N 0.13446 0.16826 0.22235 0.0
C9 C 0.15813 0.12826 0.14652 0.0
C10 C 0.18735 0.16197 0.14252 0.0
C11 C 0.18993 0.19238 0.17394 0.0
C12 C 0.12421 0.13745 0.20593 0.0
H13 H 0.16822 0.21547 0.22594 0.0
C14 C 0.10318 0.22904 0.25416 0.0
O15 O 0.11264 0.21624 0.36121 0.0
O16 O 0.16068 0.2013 0.33592 0.0
N17 N 0.09304 0.10995 0.24554 0.0
C18 C 0.0609 0.0881 0.24555 0.0
C19 C 0.0573 0.05151 0.22851 0.0
C20 C 0.11502 0.02635 0.1979 0.0
C21 C 0.14771 0.05401 0.19979 0.0
C22 C 0.12687 0.10465 0.22933 0.0
H23 H 0.03749 0.09801 0.2564 0.0
O24 O 0.12398 0.14634 0.33131 0.0
O25 O 0.12151 0.16454 0.28285 0.0
O26 O 0.05856 0.19178 0.31617 0.0
O27 O 0.04447 0.15843 0.27512 0.0
C28 C 0.16751 0.05667 0.1627 0.0
C29 C 0.17164 0.08987 0.13836 0.0
H30 H 0.2065 0.16208 0.12307 0.0
H31 H 0.20881 0.21176 0.17038 0.0
H32 H 0.03127 0.0408 0.23151 0.0
H33 H 0.11897 0.00408 0.18339 0.0
H34 H 0.17559 0.0337 0.15189 0.0
H35 H 0.18768 0.08665 0.11685 0.0
Mn36 Mn 0.82324 0.06555 0.30529 0.0
Mn37 Mn 0.86049 0.03556 0.23989 0.0
C38 C 0.87162 0.08959 0.28328 0.0
C39 C 0.80733 0.09869 0.34872 0.0
C40 C 0.85018 -0.00198 0.29812 0.0
O41 O 0.78023 0.05638 0.27886 0.0
O42 O 0.80936 0.02352 0.24223 0.0
C43 C 0.82718 0.04686 0.176 0.0
N44 N 0.85417 0.05353 0.19682 0.0
C45 C 0.89129 0.06653 0.15071 0.0
C46 C 0.86294 0.06229 0.12955 0.0
C47 C 0.83067 0.05246 0.14228 0.0
C48 C 0.88584 0.06162 0.18435 0.0
H49 H 0.80432 0.03429 0.18433 0.0
C50 C 0.78154 0.03806 0.25303 0.0
O51 O 0.80508 0.06737 0.35102 0.0
O52 O 0.81172 0.11096 0.31958 0.0
N53 N 0.90794 0.04995 0.23606 0.0
C54 C 0.93276 0.05321 0.25989 0.0
C55 C 0.96477 0.06831 0.25228 0.0
C56 C 0.97209 0.07672 0.21958 0.0
C57 C 0.94682 0.07137 0.19547 0.0
C58 C 0.91378 0.0611 0.20551 0.0
H59 H 0.92768 0.04535 0.28471 0.0
O60 O 0.87203 0.07992 0.31378 0.0
O61 O 0.84906 0.0759 0.2641 0.0
O62 O 0.82632 0.0155 0.3089 0.0
O63 O 0.87253 0.01174 0.28022 0.0
C64 C 0.95306 0.07591 0.16192 0.0
C65 C 0.92536 0.07303 0.13939 0.0
H66 H 0.86616 0.06481 0.10333 0.0
H67 H 0.80913 0.0472 0.12592 0.0
H68 H 0.9841 0.07201 0.27123 0.0
H69 H 0.997 0.08724 0.21297 0.0
H70 H 0.97908 0.08163 0.15339 0.0
H71 H 0.93045 0.07607 0.11348 0.0
Mn72 Mn 0.92015 0.79095 0.31806 0.0
Mn73 Mn 0.94253 0.82475 0.24765 0.0
C74 C 0.90046 0.84329 0.30078 0.0
C75 C 0.88689 0.77459 0.36307 0.0
C76 C 0.99701 0.80779 0.29965 0.0
O77 O 0.9199 0.75196 0.28465 0.0
O78 O 0.94939 0.77861 0.24562 0.0
C79 C 0.8682 0.79091 0.2109 0.0
N80 N 0.89801 0.81667 0.22236 0.0
C81 C 0.87437 0.8567 0.14654 0.0
C82 C 0.84514 0.82299 0.14252 0.0
C83 C 0.84255 0.79257 0.17393 0.0
C84 C 0.90827 0.84748 0.20595 0.0
H85 H 0.86424 0.76946 0.22592 0.0
C86 C 0.92927 0.75589 0.25417 0.0
O87 O 0.91981 0.76866 0.36121 0.0
O88 O 0.87177 0.78362 0.33593 0.0
N89 N 0.93943 0.87497 0.24558 0.0
C90 C 0.97157 0.89681 0.2456 0.0
C91 C 0.97517 0.93341 0.22858 0.0
C92 C 0.91747 0.95859 0.19796 0.0
C93 C 0.88478 0.93093 0.19984 0.0
C94 C 0.9056 0.88027 0.22937 0.0
H95 H 0.99497 0.8869 0.25645 0.0
O96 O 0.90849 0.83857 0.33133 0.0
O97 O 0.91095 0.82038 0.28287 0.0
O98 O 0.9739 0.79312 0.31618 0.0
O99 O 0.98798 0.82648 0.27515 0.0
C100 C 0.86498 0.92828 0.16275 0.0
C101 C 0.86086 0.89509 0.13839 0.0
H102 H 0.82599 0.82289 0.12306 0.0
H103 H 0.82367 0.77319 0.17036 0.0
H104 H 1.0012 0.94412 0.2316 0.0
H105 H 0.91352 0.98087 0.18346 0.0
H106 H 0.8569 0.95125 0.15194 0.0
H107 H 0.84482 0.89832 0.11688 0.0
Mn108 Mn 0.2092 0.91938 0.30529 0.0
Mn109 Mn 0.17195 0.94937 0.23989 0.0
C110 C 0.16082 0.89534 0.28328 0.0
C111 C 0.22512 0.88624 0.34872 0.0
C112 C 0.18227 0.98692 0.29811 0.0
O113 O 0.25221 0.92855 0.27885 0.0
O114 O 0.22308 0.96142 0.24223 0.0
C115 C 0.20525 0.93808 0.176 0.0
N116 N 0.17827 0.93141 0.19682 0.0
C117 C 0.14114 0.9184 0.15071 0.0
C118 C 0.16949 0.92264 0.12955 0.0
C119 C 0.20176 0.93247 0.14228 0.0
C120 C 0.1466 0.92331 0.18436 0.0
H121 H 0.22811 0.95065 0.18433 0.0
C122 C 0.2509 0.94688 0.25302 0.0
O123 O 0.22737 0.91756 0.35102 0.0
O124 O 0.22072 0.87397 0.31958 0.0
N125 N 0.1245 0.93498 0.23606 0.0
C126 C 0.09968 0.93174 0.2599 0.0
C127 C 0.06767 0.91663 0.25229 0.0
C128 C 0.06035 0.90821 0.21959 0.0
C129 C 0.08562 0.91355 0.19548 0.0
C130 C 0.11866 0.92382 0.20552 0.0
H131 H 0.10476 0.9396 0.28471 0.0
O132 O 0.16042 0.90501 0.31378 0.0
O133 O 0.18338 0.90903 0.2641 0.0
O134 O 0.20613 0.96943 0.30889 0.0
O135 O 0.15991 0.97318 0.28022 0.0
C136 C 0.07938 0.90901 0.16194 0.0
C137 C 0.10708 0.9119 0.1394 0.0
H138 H 0.16628 0.92011 0.10333 0.0
H139 H 0.2233 0.93773 0.12591 0.0
H140 H 0.04834 0.91294 0.27125 0.0
H141 H 0.03544 0.89768 0.21298 0.0
H142 H 0.05336 0.9033 0.1534 0.0
H143 H 0.10199 0.90886 0.11349 0.0
Mn144 Mn 0.11231 0.79096 0.66687 0.0
Mn145 Mn 0.08993 0.82475 0.73729 0.0
C146 C 0.132 0.8433 0.68417 0.0
C147 C 0.14557 0.77461 0.62186 0.0
C148 C 0.03545 0.80781 0.68528 0.0
O149 O 0.11255 0.75196 0.70027 0.0
O150 O 0.08306 0.7786 0.7393 0.0
C151 C 0.16428 0.79087 0.77398 0.0
N152 N 0.13447 0.81665 0.76256 0.0
C153 C 0.15816 0.85661 0.83839 0.0
C154 C 0.18738 0.8229 0.84237 0.0
C155 C 0.18995 0.7925 0.81094 0.0
C156 C 0.12422 0.84744 0.77899 0.0
H157 H 0.16823 0.76944 0.75894 0.0
C158 C 0.10318 0.75588 0.73075 0.0
O159 O 0.11265 0.76869 0.62371 0.0
O160 O 0.16069 0.78363 0.64899 0.0
N161 N 0.09304 0.87497 0.7394 0.0
C162 C 0.0609 0.89681 0.73941 0.0
C163 C 0.05731 0.9334 0.75646 0.0
C164 C 0.11503 0.95855 0.78707 0.0
C165 C 0.14772 0.93088 0.78516 0.0
C166 C 0.12688 0.88026 0.7556 0.0
H167 H 0.03749 0.88691 0.72856 0.0
O168 O 0.12398 0.83858 0.65361 0.0
O169 O 0.1215 0.82038 0.70206 0.0
O170 O 0.05856 0.79314 0.66875 0.0
O171 O 0.04447 0.82649 0.70979 0.0
C172 C 0.16754 0.92821 0.82224 0.0
C173 C 0.17167 0.895 0.84657 0.0
H174 H 0.20654 0.82279 0.86182 0.0
H175 H 0.20883 0.77312 0.81449 0.0
H176 H 0.03127 0.94411 0.75347 0.0
H177 H 0.11899 0.98081 0.80159 0.0
H178 H 0.17562 0.95117 0.83305 0.0
H179 H 0.18772 0.89821 0.86807 0.0
Mn180 Mn 0.20917 0.06554 0.67962 0.0
Mn181 Mn 0.17194 0.03556 0.74503 0.0
C182 C 0.16078 0.08957 0.70163 0.0
C183 C 0.22507 0.09868 0.63619 0.0
C184 C 0.18225 -0.002 0.68681 0.0
O185 O 0.25218 0.05638 0.70605 0.0
O186 O 0.22306 0.02351 0.74269 0.0
C187 C 0.20524 0.04685 0.80891 0.0
N188 N 0.17826 0.05353 0.7881 0.0
C189 C 0.14114 0.06656 0.83421 0.0
C190 C 0.16949 0.06231 0.85537 0.0
C191 C 0.20176 0.05246 0.84264 0.0
C192 C 0.14659 0.06163 0.80056 0.0
H193 H 0.2281 0.03427 0.80059 0.0
C194 C 0.25088 0.03805 0.73188 0.0
O195 O 0.22733 0.06736 0.63389 0.0
O196 O 0.22067 0.11095 0.66533 0.0
N197 N 0.12448 0.04994 0.74887 0.0
C198 C 0.09966 0.05317 0.72503 0.0
C199 C 0.06764 0.06828 0.73264 0.0
C200 C 0.06034 0.07672 0.76534 0.0
C201 C 0.08561 0.07139 0.78944 0.0
C202 C 0.11865 0.06111 0.7794 0.0
H203 H 0.10473 0.0453 0.70023 0.0
O204 O 0.16038 0.07989 0.67113 0.0
O205 O 0.18334 0.07589 0.72081 0.0
O206 O 0.2061 0.01549 0.67602 0.0
O207 O 0.15989 0.01173 0.70471 0.0
C208 C 0.07938 0.07595 0.82299 0.0
C209 C 0.10708 0.07306 0.84552 0.0
H210 H 0.16628 0.06485 0.88158 0.0
H211 H 0.2233 0.0472 0.859 0.0
H212 H 0.04831 0.07196 0.71369 0.0
H213 H 0.03543 0.08725 0.77194 0.0
H214 H 0.05336 0.08169 0.83153 0.0
H215 H 0.102 0.07612 0.87143 0.0
Mn216 Mn 0.92013 0.194 0.66686 0.0
Mn217 Mn 0.94252 0.16018 0.73725 0.0
C218 C 0.90044 0.14165 0.68413 0.0
C219 C 0.88686 0.21035 0.62186 0.0
C220 C 0.99699 0.17716 0.68524 0.0
O221 O 0.91989 0.23298 0.70027 0.0
O222 O 0.94938 0.20633 0.73929 0.0
C223 C 0.8682 0.19401 0.77402 0.0
N224 N 0.89801 0.16825 0.76256 0.0
C225 C 0.87439 0.12821 0.83837 0.0
C226 C 0.84516 0.16191 0.8424 0.0
C227 C 0.84256 0.19234 0.811 0.0
C228 C 0.90827 0.13744 0.77895 0.0
H229 H 0.86424 0.21546 0.75901 0.0
C230 C 0.92926 0.22905 0.73075 0.0
O231 O 0.91977 0.21629 0.62371 0.0
O232 O 0.87174 0.20132 0.64899 0.0
N233 N 0.93943 0.10997 0.73931 0.0
C234 C 0.97157 0.08813 0.73927 0.0
C235 C 0.97518 0.05152 0.75628 0.0
C236 C 0.91749 0.02633 0.78691 0.0
C237 C 0.8848 0.05399 0.78505 0.0
C238 C 0.90561 0.10465 0.75553 0.0
H239 H 0.99497 0.09804 0.72842 0.0
O240 O 0.90847 0.14638 0.65357 0.0
O241 O 0.91093 0.16456 0.70204 0.0
O242 O 0.97387 0.19183 0.66872 0.0
O243 O 0.98797 0.15846 0.70974 0.0
C244 C 0.86501 0.05662 0.82215 0.0
C245 C 0.86089 0.08981 0.84651 0.0
H246 H 0.82602 0.162 0.86186 0.0
H247 H 0.82368 0.21172 0.81458 0.0
H248 H 1.00122 0.04082 0.75326 0.0
H249 H 0.91355 0.00405 0.8014 0.0
H250 H 0.85694 0.03365 0.83295 0.0
H251 H 0.84486 0.08657 0.86803 0.0
Mn252 Mn 0.82326 0.91938 0.67961 0.0
Mn253 Mn 0.86049 0.94938 0.74501 0.0
C254 C 0.87164 0.89534 0.70163 0.0
C255 C 0.80735 0.88623 0.63619 0.0
C256 C 0.85019 0.98691 0.68678 0.0
O257 O 0.78025 0.92855 0.70604 0.0
O258 O 0.80937 0.96143 0.74266 0.0
C259 C 0.82718 0.93811 0.8089 0.0
N260 N 0.85416 0.93142 0.78809 0.0
C261 C 0.89127 0.91839 0.83421 0.0
C262 C 0.86291 0.92264 0.85536 0.0
C263 C 0.83065 0.9325 0.84262 0.0
C264 C 0.88583 0.92332 0.80056 0.0
H265 H 0.80433 0.9507 0.80057 0.0
C266 C 0.78156 0.94688 0.73187 0.0
O267 O 0.8051 0.91755 0.63388 0.0
O268 O 0.81174 0.87397 0.66533 0.0
N269 N 0.90794 0.93498 0.74886 0.0
C270 C 0.93276 0.93172 0.72503 0.0
C271 C 0.96478 0.91661 0.73266 0.0
C272 C 0.97208 0.9082 0.76536 0.0
C273 C 0.94681 0.91355 0.78946 0.0
C274 C 0.91377 0.92383 0.77941 0.0
H275 H 0.92769 0.93957 0.70022 0.0
O276 O 0.87204 0.90501 0.67113 0.0
O277 O 0.84908 0.90904 0.72081 0.0
O278 O 0.82634 0.96942 0.676 0.0
O279 O 0.87255 0.97319 0.70468 0.0
C280 C 0.95303 0.90899 0.82301 0.0
C281 C 0.92532 0.91188 0.84553 0.0
H282 H 0.86611 0.92011 0.88158 0.0
H283 H 0.80911 0.93777 0.85898 0.0
H284 H 0.98411 0.91291 0.71371 0.0
H285 H 0.99699 0.89767 0.77197 0.0
H286 H 0.97904 0.90325 0.83155 0.0
H287 H 0.9304 0.90881 0.87144 0.0
Mn288 Mn 0.32537 0.09052 0.17205 0.0
Mn289 Mn 0.36414 0.07213 0.24561 0.0
C290 C 0.36675 0.12629 0.19427 0.0
C291 C 0.31391 0.10708 0.11877 0.0
C292 C 0.28419 0.08365 0.2348 0.0
O293 O 0.32733 0.03978 0.16871 0.0
O294 O 0.35739 0.03476 0.21594 0.0
C295 C 0.43358 0.01842 0.23333 0.0
N296 N 0.42153 0.05553 0.24479 0.0
C297 C 0.46571 0.0515 0.31285 0.0
C298 C 0.47588 0.01229 0.29865 0.0
C299 C 0.46124 -0.00374 0.2606 0.0
C300 C 0.43934 0.07545 0.2904 0.0
H301 H 0.42454 0.0079 0.21067 0.0
C302 C 0.3449 0.02273 0.18966 0.0
O303 O 0.28936 0.09762 0.1378 0.0
O304 O 0.34571 0.10016 0.12797 0.0
N305 N 0.36664 0.1043 0.29197 0.0
C306 C 0.35336 0.13956 0.29035 0.0
C307 C 0.39969 0.17243 0.31892 0.0
C308 C 0.43236 0.15446 0.33336 0.0
C309 C 0.43785 0.11713 0.33141 0.0
C310 C 0.41337 0.09458 0.31176 0.0
H311 H 0.33026 0.14558 0.27572 0.0
O312 O 0.33813 0.1372 0.18101 0.0
O313 O 0.36654 0.09567 0.20193 0.0
O314 O 0.28613 0.08878 0.20477 0.0
O315 O 0.31179 0.07859 0.25179 0.0
C316 C 0.46758 0.10149 0.34648 0.0
C317 C 0.47766 0.06795 0.34081 0.0
H318 H 0.48963 -0.00373 0.31491 0.0
H319 H 0.47216 0.97354 0.25332 0.0
H320 H 0.40219 0.19891 0.32306 0.0
H321 H 0.45238 0.16931 0.34463 0.0
H322 H 0.48348 0.11546 0.3632 0.0
H323 H 0.49769 0.05677 0.3558 0.0
Mn324 Mn 0.92014 0.31806 0.19398 0.0
Mn325 Mn 0.94253 0.24765 0.16018 0.0
C326 C 0.90046 0.30077 0.14163 0.0
C327 C 0.88687 0.36307 0.21033 0.0
C328 C 0.997 0.29966 0.17714 0.0
O329 O 0.91989 0.28466 0.23297 0.0
O330 O 0.9494 0.24564 0.20633 0.0
C331 C 0.8682 0.21093 0.19405 0.0
N332 N 0.89801 0.22236 0.16827 0.0
C333 C 0.87434 0.14654 0.12828 0.0
C334 C 0.84512 0.14254 0.16199 0.0
C335 C 0.84253 0.17396 0.1924 0.0
C336 C 0.90826 0.20594 0.13747 0.0
H337 H 0.86424 0.22596 0.21548 0.0
C338 C 0.92927 0.25418 0.22905 0.0
O339 O 0.91979 0.36122 0.21626 0.0
O340 O 0.87176 0.33593 0.2013 0.0
N341 N 0.93943 0.24555 0.10997 0.0
C342 C 0.97156 0.24556 0.08812 0.0
C343 C 0.97516 0.22852 0.05153 0.0
C344 C 0.91745 0.1979 0.02636 0.0
C345 C 0.88476 0.1998 0.05403 0.0
C346 C 0.9056 0.22935 0.10467 0.0
H347 H 0.99497 0.25641 0.09802 0.0
O348 O 0.90848 0.33133 0.14635 0.0
O349 O 0.91095 0.28287 0.16455 0.0
O350 O 0.97389 0.31619 0.19181 0.0
O351 O 0.98798 0.27516 0.15844 0.0
C352 C 0.86496 0.16271 0.05669 0.0
C353 C 0.86083 0.13837 0.0899 0.0
H354 H 0.82597 0.12308 0.1621 0.0
H355 H 0.82366 0.1704 0.21178 0.0
H356 H 1.0012 0.23152 0.04082 0.0
H357 H 0.9135 0.18339 0.0041 0.0
H358 H 0.85688 0.1519 0.03372 0.0
H359 H 0.84478 0.11686 0.08667 0.0
Mn360 Mn 0.70708 0.8944 0.17211 0.0
Mn361 Mn 0.66833 0.91279 0.24568 0.0
C362 C 0.6657 0.85864 0.19432 0.0
C363 C 0.71852 0.87785 0.11881 0.0
C364 C 0.74828 0.90127 0.23484 0.0
O365 O 0.70512 0.94513 0.16877 0.0
O366 O 0.67507 0.95016 0.216 0.0
C367 C 0.5989 0.96652 0.2335 0.0
N368 N 0.61095 0.9294 0.24492 0.0
C369 C 0.56683 0.93336 0.31301 0.0
C370 C 0.55666 0.97258 0.29887 0.0
C371 C 0.57127 0.98866 0.26082 0.0
C372 C 0.59317 0.90943 0.29052 0.0
H373 H 0.60792 0.97706 0.21086 0.0
C374 C 0.68755 0.96219 0.18972 0.0
O375 O 0.74308 0.8873 0.13784 0.0
O376 O 0.68673 0.88477 0.12802 0.0
N377 N 0.66587 0.88056 0.29201 0.0
C378 C 0.67914 0.84531 0.29035 0.0
C379 C 0.63283 0.81241 0.31891 0.0
C380 C 0.60017 0.83038 0.3334 0.0
C381 C 0.59468 0.86771 0.33149 0.0
C382 C 0.61915 0.89027 0.31184 0.0
H383 H 0.70222 0.8393 0.2757 0.0
O384 O 0.69432 0.84773 0.18105 0.0
O385 O 0.66592 0.88925 0.20199 0.0
O386 O 0.74634 0.89613 0.20481 0.0
O387 O 0.72069 0.90634 0.25183 0.0
C388 C 0.56495 0.88333 0.34657 0.0
C389 C 0.55487 0.91688 0.34096 0.0
H390 H 0.54293 0.98859 0.31517 0.0
H391 H 0.56038 0.01141 0.2536 0.0
H392 H 0.63033 0.78594 0.32304 0.0
H393 H 0.58016 0.81552 0.34467 0.0
H394 H 0.54904 0.86935 0.36327 0.0
H395 H 0.53484 0.92804 0.35596 0.0
Mn396 Mn 0.11229 0.66687 0.19396 0.0
Mn397 Mn 0.08993 0.73729 0.16016 0.0
C398 C 0.13199 0.68417 0.14162 0.0
C399 C 0.14554 0.62185 0.21031 0.0
C400 C 0.03544 0.68529 0.1771 0.0
O401 O 0.11253 0.70027 0.23296 0.0
O402 O 0.08306 0.73931 0.20631 0.0
C403 C 0.16428 0.77398 0.19404 0.0
N404 N 0.13447 0.76256 0.16826 0.0
C405 C 0.15815 0.83839 0.12828 0.0
C406 C 0.18737 0.84238 0.162 0.0
C407 C 0.18995 0.81095 0.1924 0.0
C408 C 0.12422 0.77899 0.13746 0.0
H409 H 0.16822 0.75895 0.21547 0.0
C410 C 0.10317 0.73075 0.22904 0.0
O411 O 0.11262 0.62371 0.21623 0.0
O412 O 0.16067 0.64898 0.20129 0.0
N413 N 0.09304 0.73939 0.10995 0.0
C414 C 0.0609 0.7394 0.0881 0.0
C415 C 0.05731 0.75644 0.05151 0.0
C416 C 0.11503 0.78705 0.02636 0.0
C417 C 0.14772 0.78514 0.05402 0.0
C418 C 0.12688 0.75559 0.10466 0.0
H419 H 0.03749 0.72855 0.098 0.0
O420 O 0.12397 0.65361 0.14633 0.0
O421 O 0.1215 0.70206 0.16454 0.0
O422 O 0.05855 0.66876 0.19177 0.0
O423 O 0.04447 0.7098 0.15842 0.0
C424 C 0.16754 0.82222 0.05669 0.0
C425 C 0.17166 0.84656 0.0899 0.0
H426 H 0.20653 0.86183 0.16211 0.0
H427 H 0.20882 0.8145 0.21178 0.0
H428 H 0.03127 0.75345 0.0408 0.0
H429 H 0.11899 0.80156 0.00409 0.0
H430 H 0.17562 0.83304 0.03373 0.0
H431 H 0.18772 0.86806 0.08668 0.0
Mn432 Mn 0.32538 0.89441 0.81286 0.0
Mn433 Mn 0.36414 0.9128 0.73929 0.0
C434 C 0.36676 0.85864 0.79064 0.0
C435 C 0.31394 0.87786 0.86614 0.0
C436 C 0.28419 0.90127 0.75012 0.0
O437 O 0.32733 0.94514 0.81619 0.0
O438 O 0.35738 0.95017 0.76896 0.0
C439 C 0.43357 0.96652 0.75155 0.0
N440 N 0.42152 0.92941 0.74009 0.0
C441 C 0.46568 0.93342 0.67202 0.0
C442 C 0.47585 0.97263 0.68621 0.0
C443 C 0.46122 0.98867 0.72426 0.0
C444 C 0.43933 0.90947 0.69448 0.0
H445 H 0.42453 0.97704 0.7742 0.0
C446 C 0.3449 0.9622 0.79524 0.0
O447 O 0.28938 0.8873 0.84712 0.0
O448 O 0.34573 0.88477 0.85694 0.0
N449 N 0.36663 0.88061 0.69293 0.0
C450 C 0.35335 0.84536 0.69456 0.0
C451 C 0.39968 0.81248 0.666 0.0
C452 C 0.43234 0.83046 0.65154 0.0
C453 C 0.43783 0.86779 0.65348 0.0
C454 C 0.41336 0.89033 0.67314 0.0
H455 H 0.33026 0.83934 0.7092 0.0
O456 O 0.33815 0.84773 0.80391 0.0
O457 O 0.36655 0.88926 0.78297 0.0
O458 O 0.28613 0.89614 0.78015 0.0
O459 O 0.31178 0.90633 0.73312 0.0
C460 C 0.46756 0.88342 0.63841 0.0
C461 C 0.47764 0.91697 0.64406 0.0
H462 H 0.4896 0.98866 0.66995 0.0
H463 H 0.47213 0.0114 0.73153 0.0
H464 H 0.40218 0.78601 0.66185 0.0
H465 H 0.45236 0.81561 0.64026 0.0
H466 H 0.48346 0.86946 0.62169 0.0
H467 H 0.49766 0.92814 0.62907 0.0
Mn468 Mn 0.11232 0.31805 0.79094 0.0
Mn469 Mn 0.08994 0.24765 0.82475 0.0
C470 C 0.13201 0.30077 0.84328 0.0
C471 C 0.14558 0.36306 0.77459 0.0
C472 C 0.03546 0.29965 0.80779 0.0
O473 O 0.11255 0.28464 0.75195 0.0
O474 O 0.08308 0.24561 0.77861 0.0
C475 C 0.16427 0.21091 0.79091 0.0
N476 N 0.13447 0.22236 0.81667 0.0
C477 C 0.15811 0.14654 0.85669 0.0
C478 C 0.18733 0.14253 0.82299 0.0
C479 C 0.18993 0.17394 0.79257 0.0
C480 C 0.12421 0.20596 0.84748 0.0
H481 H 0.16823 0.22593 0.76946 0.0
C482 C 0.10318 0.25417 0.75587 0.0
O483 O 0.11266 0.36121 0.76866 0.0
O484 O 0.1607 0.33593 0.78361 0.0
N485 N 0.09304 0.24558 0.87497 0.0
C486 C 0.0609 0.2456 0.89681 0.0
C487 C 0.05729 0.22858 0.93341 0.0
C488 C 0.115 0.19796 0.95859 0.0
C489 C 0.14769 0.19984 0.93093 0.0
C490 C 0.12687 0.22937 0.88027 0.0
H491 H 0.03749 0.25645 0.8869 0.0
O492 O 0.12399 0.33133 0.83856 0.0
O493 O 0.12152 0.28287 0.82037 0.0
O494 O 0.05857 0.31619 0.79313 0.0
O495 O 0.04448 0.27514 0.82648 0.0
C496 C 0.16749 0.16275 0.92828 0.0
C497 C 0.17161 0.13839 0.89508 0.0
H498 H 0.20648 0.12307 0.82289 0.0
H499 H 0.2088 0.17037 0.77319 0.0
H500 H 0.03126 0.23159 0.94411 0.0
H501 H 0.11894 0.18346 0.98086 0.0
H502 H 0.17556 0.15194 0.95125 0.0
H503 H 0.18765 0.11688 0.89831 0.0
Mn504 Mn 0.70708 0.09052 0.81282 0.0
Mn505 Mn 0.66833 0.07213 0.73925 0.0
C506 C 0.6657 0.12628 0.7906 0.0
C507 C 0.71853 0.10707 0.86611 0.0
C508 C 0.74828 0.08365 0.75008 0.0
O509 O 0.70513 0.03979 0.81616 0.0
O510 O 0.67508 0.03475 0.76893 0.0
C511 C 0.5989 0.0184 0.75146 0.0
N512 N 0.61095 0.05551 0.74003 0.0
C513 C 0.56681 0.05153 0.67195 0.0
C514 C 0.55664 0.01231 0.68611 0.0
C515 C 0.57126 -0.00375 0.72416 0.0
C516 C 0.59316 0.07547 0.69442 0.0
H517 H 0.60793 0.00786 0.77411 0.0
C518 C 0.68756 0.02273 0.79521 0.0
O519 O 0.74309 0.09763 0.84708 0.0
O520 O 0.68673 0.10016 0.8569 0.0
N521 N 0.66585 0.10433 0.6929 0.0
C522 C 0.67913 0.13958 0.69455 0.0
C523 C 0.63281 0.17247 0.66599 0.0
C524 C 0.60015 0.1545 0.65152 0.0
C525 C 0.59466 0.11717 0.65344 0.0
C526 C 0.61913 0.09461 0.67309 0.0
H527 H 0.70222 0.1456 0.7092 0.0
O528 O 0.69432 0.1372 0.80387 0.0
O529 O 0.66592 0.09567 0.78293 0.0
O530 O 0.74634 0.08879 0.78011 0.0
O531 O 0.72069 0.07858 0.73309 0.0
C532 C 0.56493 0.10154 0.63836 0.0
C533 C 0.55486 0.06799 0.64399 0.0
H534 H 0.54291 -0.00371 0.66983 0.0
H535 H 0.56037 0.97351 0.7314 0.0
H536 H 0.63031 0.19894 0.66186 0.0
H537 H 0.58013 0.16935 0.64024 0.0
H538 H 0.54903 0.11552 0.62165 0.0
H539 H 0.53483 0.05683 0.629 0.0
Mn540 Mn 0.92013 0.66687 0.79093 0.0
Mn541 Mn 0.94253 0.73727 0.82475 0.0
C542 C 0.90045 0.68415 0.84328 0.0
C543 C 0.88686 0.62187 0.77458 0.0
C544 C 0.997 0.68526 0.80777 0.0
O545 O 0.91989 0.70028 0.75195 0.0
O546 O 0.94939 0.7393 0.7786 0.0
C547 C 0.8682 0.77404 0.79091 0.0
N548 N 0.89801 0.76258 0.81667 0.0
C549 C 0.87439 0.83839 0.85671 0.0
C550 C 0.84516 0.84242 0.82301 0.0
C551 C 0.84256 0.81102 0.79258 0.0
C552 C 0.90827 0.77897 0.84748 0.0
H553 H 0.86424 0.75902 0.76946 0.0
C554 C 0.92926 0.73076 0.75588 0.0
O555 O 0.91978 0.62372 0.76865 0.0
O556 O 0.87175 0.649 0.78361 0.0
N557 N 0.93943 0.73934 0.87496 0.0
C558 C 0.97157 0.7393 0.8968 0.0
C559 C 0.97518 0.75631 0.93341 0.0
C560 C 0.91748 0.78694 0.9586 0.0
C561 C 0.88479 0.78507 0.93093 0.0
C562 C 0.9056 0.75555 0.88027 0.0
H563 H 0.99497 0.72844 0.88689 0.0
O564 O 0.90847 0.65359 0.83855 0.0
O565 O 0.91094 0.70205 0.82037 0.0
O566 O 0.97388 0.66873 0.7931 0.0
O567 O 0.98798 0.70976 0.82647 0.0
C568 C 0.865 0.82217 0.9283 0.0
C569 C 0.86089 0.84654 0.8951 0.0
H570 H 0.82602 0.86188 0.82291 0.0
H571 H 0.82368 0.81459 0.7732 0.0
H572 H 1.00121 0.75329 0.94411 0.0
H573 H 0.91354 0.80143 0.98087 0.0
H574 H 0.85693 0.83298 0.95127 0.0
H575 H 0.84485 0.86805 0.89834 0.0
Mn576 Mn 0.20919 0.30531 0.06554 0.0
Mn577 Mn 0.17195 0.23992 0.03554 0.0
C578 C 0.16081 0.2833 0.08958 0.0
C579 C 0.2251 0.34873 0.0987 0.0
C580 C 0.18227 0.29815 -0.00199 0.0
O581 O 0.2522 0.27888 0.05637 0.0
O582 O 0.22307 0.24226 0.02349 0.0
C583 C 0.20526 0.17603 0.04681 0.0
N584 N 0.17828 0.19684 0.05349 0.0
C585 C 0.14116 0.15073 0.06651 0.0
C586 C 0.16952 0.12957 0.06227 0.0
C587 C 0.20178 0.14231 0.05242 0.0
C588 C 0.14661 0.18438 0.06159 0.0
H589 H 0.22811 0.18436 0.03422 0.0
C590 C 0.25089 0.25305 0.03804 0.0
O591 O 0.22736 0.35104 0.06738 0.0
O592 O 0.22071 0.31959 0.11096 0.0
N593 N 0.1245 0.23608 0.04994 0.0
C594 C 0.09968 0.25991 0.05319 0.0
C595 C 0.06767 0.25229 0.0683 0.0
C596 C 0.06036 0.21959 0.07672 0.0
C597 C 0.08563 0.19549 0.07137 0.0
C598 C 0.11867 0.20553 0.06109 0.0
H599 H 0.10475 0.28473 0.04533 0.0
O600 O 0.16041 0.31381 0.07991 0.0
O601 O 0.18337 0.26412 0.07588 0.0
O602 O 0.20612 0.30893 0.0155 0.0
O603 O 0.1599 0.28026 0.01174 0.0
C604 C 0.0794 0.16194 0.07591 0.0
C605 C 0.1071 0.13941 0.07302 0.0
H606 H 0.16631 0.10336 0.0648 0.0
H607 H 0.22332 0.12595 0.04715 0.0
H608 H 0.04834 0.27125 0.072 0.0
H609 H 0.03546 0.21298 0.08725 0.0
H610 H 0.05338 0.1534 0.08164 0.0
H611 H 0.10202 0.1135 0.07607 0.0
Mn612 Mn 0.20919 0.67962 0.91937 0.0
Mn613 Mn 0.17195 0.74502 0.94936 0.0
C614 C 0.1608 0.70163 0.89534 0.0
C615 C 0.2251 0.63619 0.88623 0.0
C616 C 0.18227 0.6868 0.98691 0.0
O617 O 0.2522 0.70605 0.92854 0.0
O618 O 0.22308 0.74269 0.9614 0.0
C619 C 0.20525 0.80891 0.93806 0.0
N620 N 0.17827 0.78809 0.93139 0.0
C621 C 0.14114 0.8342 0.91839 0.0
C622 C 0.16948 0.85536 0.92263 0.0
C623 C 0.20176 0.84263 0.93246 0.0
C624 C 0.14659 0.80055 0.9233 0.0
H625 H 0.22811 0.80058 0.95063 0.0
C626 C 0.25089 0.73188 0.94686 0.0
O627 O 0.22735 0.63389 0.91755 0.0
O628 O 0.2207 0.66534 0.87396 0.0
N629 N 0.1245 0.74886 0.93498 0.0
C630 C 0.09968 0.72502 0.93174 0.0
C631 C 0.06766 0.73263 0.91664 0.0
C632 C 0.06034 0.76532 0.90821 0.0
C633 C 0.08561 0.78943 0.91355 0.0
C634 C 0.11866 0.77939 0.92382 0.0
H635 H 0.10476 0.70021 0.93961 0.0
O636 O 0.1604 0.67113 0.90501 0.0
O637 O 0.18336 0.72081 0.90903 0.0
O638 O 0.20612 0.67602 0.96942 0.0
O639 O 0.15991 0.7047 0.97318 0.0
C640 C 0.07937 0.82298 0.90901 0.0
C641 C 0.10707 0.84551 0.9119 0.0
H642 H 0.16627 0.88158 0.92011 0.0
H643 H 0.2233 0.859 0.93772 0.0
H644 H 0.04833 0.71367 0.91295 0.0
H645 H 0.03544 0.77193 0.89768 0.0
H646 H 0.05335 0.83151 0.9033 0.0
H647 H 0.10198 0.87142 0.90886 0.0
Mn648 Mn 0.32537 0.17208 0.8944 0.0
Mn649 Mn 0.36414 0.24563 0.91279 0.0
C650 C 0.36675 0.19429 0.85863 0.0
C651 C 0.31391 0.1188 0.87784 0.0
C652 C 0.28419 0.23482 0.90128 0.0
O653 O 0.32733 0.16874 0.94513 0.0
O654 O 0.35738 0.21596 0.95016 0.0
C655 C 0.43358 0.23335 0.96651 0.0
N656 N 0.42153 0.24481 0.9294 0.0
C657 C 0.46571 0.31287 0.93343 0.0
C658 C 0.47587 0.29867 0.97264 0.0
C659 C 0.46123 0.26062 0.98867 0.0
C660 C 0.43934 0.29042 0.90948 0.0
H661 H 0.42453 0.21069 0.97703 0.0
C662 C 0.3449 0.18968 0.96219 0.0
O663 O 0.28935 0.13783 0.88729 0.0
O664 O 0.34571 0.12799 0.88476 0.0
N665 N 0.36665 0.292 0.88062 0.0
C666 C 0.35337 0.29037 0.84537 0.0
C667 C 0.3997 0.31894 0.81249 0.0
C668 C 0.43237 0.33338 0.83047 0.0
C669 C 0.43785 0.33144 0.8678 0.0
C670 C 0.41338 0.31178 0.89035 0.0
H671 H 0.33027 0.27575 0.83934 0.0
O672 O 0.33813 0.18103 0.84772 0.0
O673 O 0.36654 0.20195 0.88925 0.0
O674 O 0.28612 0.20479 0.89614 0.0
O675 O 0.31179 0.25181 0.90634 0.0
C676 C 0.46758 0.3465 0.88344 0.0
C677 C 0.47766 0.34084 0.91698 0.0
H678 H 0.48963 0.31492 0.98867 0.0
H679 H 0.47215 0.25334 0.01139 0.0
H680 H 0.4022 0.32308 0.78602 0.0
H681 H 0.45239 0.34466 0.81563 0.0
H682 H 0.48348 0.36323 0.86948 0.0
H683 H 0.49769 0.35582 0.92817 0.0
Mn684 Mn 0.82327 0.30529 0.91938 0.0
Mn685 Mn 0.8605 0.23988 0.94936 0.0
C686 C 0.87165 0.28328 0.89535 0.0
C687 C 0.80736 0.34873 0.88625 0.0
C688 C 0.85019 0.2981 0.98692 0.0
O689 O 0.78026 0.27886 0.92855 0.0
O690 O 0.80938 0.24222 0.9614 0.0
C691 C 0.8272 0.17599 0.93806 0.0
N692 N 0.85418 0.19681 0.93139 0.0
C693 C 0.8913 0.1507 0.91836 0.0
C694 C 0.86295 0.12954 0.9226 0.0
C695 C 0.83068 0.14227 0.93245 0.0
C696 C 0.88585 0.18434 0.92329 0.0
H697 H 0.80434 0.18432 0.95064 0.0
C698 C 0.78156 0.25302 0.94687 0.0
O699 O 0.80511 0.35102 0.91757 0.0
O700 O 0.81176 0.31959 0.87397 0.0
N701 N 0.90796 0.23604 0.93497 0.0
C702 C 0.93278 0.25987 0.93174 0.0
C703 C 0.9648 0.25226 0.91663 0.0
C704 C 0.97211 0.21956 0.9082 0.0
C705 C 0.94683 0.19546 0.91353 0.0
C706 C 0.91379 0.2055 0.92381 0.0
H707 H 0.9277 0.28468 0.93961 0.0
O708 O 0.87206 0.31378 0.90502 0.0
O709 O 0.84909 0.26409 0.90903 0.0
O710 O 0.82634 0.30888 0.96943 0.0
O711 O 0.87255 0.2802 0.97319 0.0
C712 C 0.95306 0.16191 0.90896 0.0
C713 C 0.92536 0.13938 0.91184 0.0
H714 H 0.86616 0.10332 0.92007 0.0
H715 H 0.80914 0.12591 0.93771 0.0
H716 H 0.98413 0.27121 0.91295 0.0
H717 H 0.99702 0.21296 0.89767 0.0
H718 H 0.97908 0.15338 0.90322 0.0
H719 H 0.93044 0.11348 0.90878 0.0
Mn720 Mn 0.70709 0.81285 0.8944 0.0
Mn721 Mn 0.66833 0.73929 0.9128 0.0
C722 C 0.66571 0.79063 0.85863 0.0
C723 C 0.71854 0.86613 0.87784 0.0
C724 C 0.74828 0.75011 0.90128 0.0
O725 O 0.70513 0.8162 0.94513 0.0
O726 O 0.67507 0.76897 0.95017 0.0
C727 C 0.59889 0.75154 0.96652 0.0
N728 N 0.61094 0.74009 0.92941 0.0
C729 C 0.56678 0.67202 0.93342 0.0
C730 C 0.55661 0.6862 0.97263 0.0
C731 C 0.57124 0.72426 0.98867 0.0
C732 C 0.59314 0.69448 0.90947 0.0
H733 H 0.60792 0.7742 0.97704 0.0
C734 C 0.68756 0.79525 0.96219 0.0
O735 O 0.74309 0.84711 0.88729 0.0
O736 O 0.68674 0.85693 0.88475 0.0
N737 N 0.66584 0.69293 0.88061 0.0
C738 C 0.67912 0.69457 0.84536 0.0
C739 C 0.63279 0.666 0.81248 0.0
C740 C 0.60013 0.65154 0.83045 0.0
C741 C 0.59464 0.65348 0.86778 0.0
C742 C 0.61911 0.67314 0.89033 0.0
H743 H 0.70221 0.7092 0.83934 0.0
O744 O 0.69433 0.80389 0.84772 0.0
O745 O 0.66592 0.78297 0.88925 0.0
O746 O 0.74634 0.78014 0.89614 0.0
O747 O 0.72068 0.73312 0.90635 0.0
C748 C 0.56491 0.63841 0.88342 0.0
C749 C 0.55483 0.64406 0.91696 0.0
H750 H 0.54287 0.66994 0.98865 0.0
H751 H 0.56033 0.73152 0.0114 0.0
H752 H 0.6303 0.66186 0.78601 0.0
H753 H 0.58011 0.64027 0.8156 0.0
H754 H 0.54901 0.62169 0.86945 0.0
H755 H 0.5348 0.62907 0.92813 0.0
Mn756 Mn 0.82324 0.67964 0.06554 0.0
Mn757 Mn 0.86049 0.74503 0.03555 0.0
C758 C 0.87162 0.70165 0.08958 0.0
C759 C 0.80732 0.63621 0.09867 0.0
C760 C 0.85018 0.6868 -0.00199 0.0
O761 O 0.78023 0.70608 0.05637 0.0
O762 O 0.80937 0.7427 0.02349 0.0
C763 C 0.82719 0.80893 0.04683 0.0
N764 N 0.85417 0.78811 0.05351 0.0
C765 C 0.89128 0.83422 0.06653 0.0
C766 C 0.86293 0.85538 0.06229 0.0
C767 C 0.83066 0.84265 0.05244 0.0
C768 C 0.88584 0.80057 0.0616 0.0
H769 H 0.80433 0.8006 0.03424 0.0
C770 C 0.78155 0.7319 0.03804 0.0
O771 O 0.80507 0.63391 0.06735 0.0
O772 O 0.81172 0.66535 0.11095 0.0
N773 N 0.90794 0.74887 0.04994 0.0
C774 C 0.93276 0.72504 0.0532 0.0
C775 C 0.96477 0.73266 0.06831 0.0
C776 C 0.97209 0.76536 0.07672 0.0
C777 C 0.94682 0.78946 0.07138 0.0
C778 C 0.91378 0.77942 0.0611 0.0
H779 H 0.92768 0.70022 0.04535 0.0
O780 O 0.87202 0.67115 0.07991 0.0
O781 O 0.84906 0.72083 0.07589 0.0
O782 O 0.82632 0.67603 0.01549 0.0
O783 O 0.87254 0.7047 0.01174 0.0
C784 C 0.95305 0.82301 0.07593 0.0
C785 C 0.92534 0.84554 0.07304 0.0
H786 H 0.86614 0.8816 0.06482 0.0
H787 H 0.80913 0.85901 0.04717 0.0
H788 H 0.9841 0.7137 0.07201 0.0
H789 H 0.99699 0.77197 0.08725 0.0
H790 H 0.97906 0.83155 0.08166 0.0
H791 H 0.93043 0.87145 0.0761 0.0
Mn792 Mn 0.32539 0.81283 0.09052 0.0
Mn793 Mn 0.36414 0.73926 0.07214 0.0
C794 C 0.36676 0.79062 0.12629 0.0
C795 C 0.31393 0.86612 0.10707 0.0
C796 C 0.28419 0.7501 0.08366 0.0
O797 O 0.32734 0.81616 0.03979 0.0
O798 O 0.35739 0.76893 0.03477 0.0
C799 C 0.43357 0.75147 0.01841 0.0
N800 N 0.42152 0.74004 0.05553 0.0
C801 C 0.46566 0.67196 0.05154 0.0
C802 C 0.47583 0.68612 0.01232 0.0
C803 C 0.46121 0.72417 -0.00373 0.0
C804 C 0.43931 0.69444 0.07548 0.0
H805 H 0.42453 0.77412 0.00788 0.0
C806 C 0.34491 0.79521 0.02274 0.0
O807 O 0.28938 0.84709 0.09762 0.0
O808 O 0.34573 0.85692 0.10015 0.0
N809 N 0.36662 0.69292 0.10435 0.0
C810 C 0.35335 0.69457 0.1396 0.0
C811 C 0.39966 0.666 0.17249 0.0
C812 C 0.43232 0.65153 0.15452 0.0
C813 C 0.43781 0.65345 0.11719 0.0
C814 C 0.41334 0.67311 0.09463 0.0
H815 H 0.33025 0.70921 0.14562 0.0
O816 O 0.33815 0.80389 0.1372 0.0
O817 O 0.36655 0.78295 0.09567 0.0
O818 O 0.28613 0.78013 0.08879 0.0
O819 O 0.31178 0.7331 0.0786 0.0
C820 C 0.46754 0.63838 0.10156 0.0
C821 C 0.47762 0.64401 0.06801 0.0
H822 H 0.48956 0.66984 -0.00369 0.0
H823 H 0.4721 0.73141 0.97352 0.0
H824 H 0.40216 0.66187 0.19896 0.0
H825 H 0.45234 0.64025 0.16937 0.0
H826 H 0.48344 0.62167 0.11553 0.0
H827 H 0.49764 0.62901 0.05684 0.0
Mn828 Mn 0.70707 0.17209 0.09052 0.0
Mn829 Mn 0.66833 0.24567 0.07213 0.0
C830 C 0.66569 0.19431 0.12628 0.0
C831 C 0.7185 0.1188 0.10707 0.0
C832 C 0.74828 0.23482 0.08365 0.0
O833 O 0.70512 0.16876 0.03979 0.0
O834 O 0.67507 0.21599 0.03475 0.0
C835 C 0.5989 0.23349 0.01839 0.0
N836 N 0.61095 0.24491 0.05551 0.0
C837 C 0.56683 0.313 0.05154 0.0
C838 C 0.55666 0.29885 0.01232 0.0
C839 C 0.57127 0.2608 -0.00375 0.0
C840 C 0.59317 0.29051 0.07547 0.0
H841 H 0.60793 0.21084 0.00785 0.0
C842 C 0.68756 0.18971 0.02273 0.0
O843 O 0.74307 0.13782 0.09763 0.0
O844 O 0.68671 0.12801 0.10015 0.0
N845 N 0.66586 0.29201 0.10434 0.0
C846 C 0.67913 0.29035 0.13959 0.0
C847 C 0.63282 0.31892 0.17249 0.0
C848 C 0.60017 0.3334 0.15452 0.0
C849 C 0.59468 0.33149 0.11719 0.0
C850 C 0.61915 0.31183 0.09463 0.0
H851 H 0.70222 0.2757 0.14561 0.0
O852 O 0.69431 0.18104 0.13719 0.0
O853 O 0.66591 0.20199 0.09567 0.0
O854 O 0.74633 0.20479 0.08879 0.0
O855 O 0.72069 0.25182 0.07858 0.0
C856 C 0.56495 0.34657 0.10156 0.0
C857 C 0.55488 0.34095 0.06801 0.0
H858 H 0.54293 0.31514 -0.0037 0.0
H859 H 0.56038 0.25357 0.9735 0.0
H860 H 0.63032 0.32305 0.19896 0.0
H861 H 0.58015 0.34468 0.16937 0.0
H862 H 0.54905 0.36327 0.11554 0.0
H863 H 0.53485 0.35595 0.05685 0.0
Mn864 Mn 0.92014 0.81806 0.69399 0.0
Mn865 Mn 0.94254 0.74765 0.66018 0.0
C866 C 0.90046 0.80077 0.64164 0.0
C867 C 0.88689 0.86305 0.71032 0.0
C868 C 0.997 0.79966 0.67714 0.0
O869 O 0.9199 0.78465 0.73299 0.0
O870 O 0.94941 0.74564 0.70633 0.0
C871 C 0.8682 0.71092 0.69405 0.0
N872 N 0.89801 0.72236 0.66827 0.0
C873 C 0.87435 0.64653 0.62828 0.0
C874 C 0.84513 0.64253 0.66199 0.0
C875 C 0.84254 0.67395 0.6924 0.0
C876 C 0.90826 0.70594 0.63747 0.0
H877 H 0.86425 0.72595 0.71548 0.0
C878 C 0.92925 0.75418 0.72903 0.0
O879 O 0.91981 0.86121 0.71627 0.0
O880 O 0.87176 0.83593 0.70131 0.0
N881 N 0.93943 0.74555 0.60997 0.0
C882 C 0.97157 0.74556 0.58812 0.0
C883 C 0.97517 0.72853 0.55153 0.0
C884 C 0.91745 0.69791 0.52636 0.0
C885 C 0.88477 0.6998 0.55403 0.0
C886 C 0.9056 0.72935 0.60467 0.0
H887 H 0.99498 0.75642 0.59802 0.0
O888 O 0.90848 0.83133 0.64637 0.0
O889 O 0.91095 0.78287 0.66456 0.0
O890 O 0.97389 0.81618 0.69182 0.0
O891 O 0.98798 0.77516 0.65845 0.0
C892 C 0.86496 0.66272 0.55668 0.0
C893 C 0.86084 0.63837 0.58989 0.0
H894 H 0.82598 0.62308 0.66209 0.0
H895 H 0.82367 0.67039 0.71178 0.0
H896 H 1.0012 0.73153 0.54082 0.0
H897 H 0.9135 0.6834 0.50409 0.0
H898 H 0.85688 0.6519 0.53372 0.0
H899 H 0.84479 0.61686 0.58667 0.0
Mn900 Mn 0.20708 0.89438 0.67212 0.0
Mn901 Mn 0.16834 0.9128 0.7457 0.0
C902 C 0.16571 0.85864 0.69433 0.0
C903 C 0.21852 0.87784 0.61883 0.0
C904 C 0.24828 0.90127 0.73485 0.0
O905 O 0.20513 0.94511 0.66879 0.0
O906 O 0.17506 0.95017 0.71601 0.0
C907 C 0.09889 0.96652 0.73354 0.0
N908 N 0.11095 0.9294 0.74494 0.0
C909 C 0.06683 0.93334 0.81304 0.0
C910 C 0.05666 0.97257 0.79891 0.0
C911 C 0.07126 0.98865 0.76087 0.0
C912 C 0.09317 0.90942 0.79054 0.0
H913 H 0.10792 0.97708 0.7109 0.0
C914 C 0.18755 0.96218 0.68972 0.0
O915 O 0.24308 0.88727 0.63786 0.0
O916 O 0.18673 0.88475 0.62804 0.0
N917 N 0.16587 0.88056 0.79202 0.0
C918 C 0.17915 0.84531 0.79034 0.0
C919 C 0.13284 0.8124 0.8189 0.0
C920 C 0.10019 0.83036 0.8334 0.0
C921 C 0.09469 0.86769 0.83149 0.0
C922 C 0.11916 0.89026 0.81185 0.0
H923 H 0.20224 0.8393 0.77569 0.0
O924 O 0.19431 0.8477 0.68106 0.0
O925 O 0.16591 0.88926 0.70201 0.0
O926 O 0.24634 0.89609 0.70483 0.0
O927 O 0.2207 0.90636 0.75184 0.0
C928 C 0.06496 0.8833 0.84658 0.0
C929 C 0.05488 0.91685 0.84098 0.0
H930 H 0.04293 0.98857 0.81521 0.0
H931 H 0.06038 0.01141 0.75366 0.0
H932 H 0.13035 0.78592 0.82302 0.0
H933 H 0.08018 0.81549 0.84467 0.0
H934 H 0.04905 0.86931 0.86327 0.0
H935 H 0.03485 0.928 0.85598 0.0
Mn936 Mn 0.11229 0.16687 0.69397 0.0
Mn937 Mn 0.08992 0.23729 0.66016 0.0
C938 C 0.13199 0.18417 0.64163 0.0
C939 C 0.14552 0.12186 0.71031 0.0
C940 C 0.03544 0.1853 0.6771 0.0
O941 O 0.11253 0.20028 0.73297 0.0
O942 O 0.08305 0.23931 0.70631 0.0
C943 C 0.16427 0.27399 0.69404 0.0
N944 N 0.13446 0.26257 0.66826 0.0
C945 C 0.15814 0.3384 0.62828 0.0
C946 C 0.18736 0.34239 0.66199 0.0
C947 C 0.18994 0.31096 0.6924 0.0
C948 C 0.12421 0.27899 0.63746 0.0
H949 H 0.16822 0.25896 0.71548 0.0
C950 C 0.10318 0.23076 0.72902 0.0
O951 O 0.1126 0.12371 0.71624 0.0
O952 O 0.16067 0.14899 0.7013 0.0
N953 N 0.09304 0.23939 0.60995 0.0
C954 C 0.0609 0.23939 0.5881 0.0
C955 C 0.05731 0.25644 0.55151 0.0
C956 C 0.11503 0.28704 0.52636 0.0
C957 C 0.14772 0.28514 0.55402 0.0
C958 C 0.12687 0.25559 0.60466 0.0
H959 H 0.03749 0.22855 0.598 0.0
O960 O 0.12397 0.15361 0.64634 0.0
O961 O 0.1215 0.20206 0.66454 0.0
O962 O 0.05855 0.16876 0.69178 0.0
O963 O 0.04447 0.2098 0.65842 0.0
C964 C 0.16753 0.32222 0.55669 0.0
C965 C 0.17166 0.34656 0.5899 0.0
H966 H 0.20652 0.36184 0.6621 0.0
H967 H 0.20881 0.31451 0.71178 0.0
H968 H 0.03127 0.25345 0.5408 0.0
H969 H 0.11899 0.30156 0.50409 0.0
H970 H 0.17562 0.33303 0.53372 0.0
H971 H 0.18771 0.36806 0.58668 0.0
Mn972 Mn 0.82537 0.09054 0.67207 0.0
Mn973 Mn 0.86414 0.07212 0.74562 0.0
C974 C 0.86674 0.12628 0.69427 0.0
C975 C 0.81391 0.1071 0.61878 0.0
C976 C 0.78419 0.08365 0.73481 0.0
O977 O 0.82732 0.0398 0.66872 0.0
O978 O 0.85739 0.03476 0.71594 0.0
C979 C 0.93359 0.01842 0.73335 0.0
N980 N 0.92153 0.05552 0.74481 0.0
C981 C 0.96571 0.05152 0.81286 0.0
C982 C 0.97588 0.01231 0.79868 0.0
C983 C 0.96125 -0.00373 0.76063 0.0
C984 C 0.93934 0.07546 0.79041 0.0
H985 H 0.92454 0.00789 0.7107 0.0
C986 C 0.8449 0.02274 0.68966 0.0
O987 O 0.78936 0.09765 0.63782 0.0
O988 O 0.84571 0.10018 0.62798 0.0
N989 N 0.86664 0.10431 0.79198 0.0
C990 C 0.85335 0.13955 0.79035 0.0
C991 C 0.89968 0.17245 0.8189 0.0
C992 C 0.93235 0.15448 0.83336 0.0
C993 C 0.93784 0.11715 0.83141 0.0
C994 C 0.91337 0.0946 0.81176 0.0
H995 H 0.83025 0.14558 0.77572 0.0
O996 O 0.83813 0.13722 0.68102 0.0
O997 O 0.86655 0.09567 0.70194 0.0
O998 O 0.78613 0.08881 0.70479 0.0
O999 O 0.81179 0.07857 0.7518 0.0
C1000 C 0.96758 0.10152 0.84648 0.0
C1001 C 0.97767 0.06798 0.84082 0.0
H1002 H 0.98964 -0.00371 0.81493 0.0
H1003 H 0.97216 0.97354 0.75336 0.0
H1004 H 0.90217 0.19892 0.82305 0.0
H1005 H 0.95237 0.16933 0.84463 0.0
H1006 H 0.98348 0.11549 0.8632 0.0
H1007 H 0.9977 0.0568 0.85581 0.0
Mn1008 Mn 0.92013 0.16688 0.29092 0.0
Mn1009 Mn 0.94253 0.23727 0.32475 0.0
C1010 C 0.90045 0.18415 0.34327 0.0
C1011 C 0.88688 0.12188 0.27458 0.0
C1012 C 0.997 0.18526 0.30777 0.0
O1013 O 0.9199 0.20029 0.25193 0.0
O1014 O 0.94939 0.2393 0.2786 0.0
C1015 C 0.86821 0.27405 0.29091 0.0
N1016 N 0.89802 0.26258 0.31667 0.0
C1017 C 0.87439 0.33839 0.35672 0.0
C1018 C 0.84517 0.34243 0.32301 0.0
C1019 C 0.84257 0.31103 0.29258 0.0
C1020 C 0.90828 0.27898 0.34748 0.0
H1021 H 0.86425 0.25904 0.26946 0.0
C1022 C 0.92925 0.23077 0.25589 0.0
O1023 O 0.91979 0.12372 0.26863 0.0
O1024 O 0.87175 0.14901 0.2836 0.0
N1025 N 0.93943 0.23934 0.37496 0.0
C1026 C 0.97157 0.2393 0.3968 0.0
C1027 C 0.97518 0.25631 0.43341 0.0
C1028 C 0.91749 0.28693 0.4586 0.0
C1029 C 0.88479 0.28507 0.43093 0.0
C1030 C 0.90561 0.25555 0.38027 0.0
H1031 H 0.99498 0.22844 0.38689 0.0
O1032 O 0.90847 0.15359 0.33854 0.0
O1033 O 0.91094 0.20206 0.32036 0.0
O1034 O 0.97388 0.16874 0.29309 0.0
O1035 O 0.98798 0.20976 0.32647 0.0
C1036 C 0.86501 0.32217 0.4283 0.0
C1037 C 0.86089 0.34654 0.39511 0.0
H1038 H 0.82603 0.36189 0.32292 0.0
H1039 H 0.82369 0.31461 0.2732 0.0
H1040 H 1.00121 0.25328 0.44411 0.0
H1041 H 0.91355 0.30142 0.48088 0.0
H1042 H 0.85694 0.33297 0.45127 0.0
H1043 H 0.84486 0.36805 0.39835 0.0
Mn1044 Mn 0.82538 0.89439 0.31284 0.0
Mn1045 Mn 0.86414 0.9128 0.23927 0.0
C1046 C 0.86675 0.85865 0.29063 0.0
C1047 C 0.81394 0.87784 0.36613 0.0
C1048 C 0.78419 0.90127 0.2501 0.0
O1049 O 0.82732 0.94512 0.31618 0.0
O1050 O 0.85739 0.95017 0.26896 0.0
C1051 C 0.93358 0.96652 0.25151 0.0
N1052 N 0.92152 0.92941 0.24007 0.0
C1053 C 0.96568 0.9334 0.172 0.0
C1054 C 0.97585 0.97261 0.18617 0.0
C1055 C 0.96122 0.98867 0.22422 0.0
C1056 C 0.93932 0.90946 0.19447 0.0
H1057 H 0.92453 0.97705 0.27416 0.0
C1058 C 0.8449 0.96219 0.29524 0.0
O1059 O 0.78938 0.88727 0.3471 0.0
O1060 O 0.84573 0.88476 0.35693 0.0
N1061 N 0.86662 0.88061 0.19293 0.0
C1062 C 0.85334 0.84536 0.19457 0.0
C1063 C 0.89966 0.81246 0.16601 0.0
C1064 C 0.93233 0.83043 0.15154 0.0
C1065 C 0.93782 0.86776 0.15348 0.0
C1066 C 0.91335 0.89032 0.17313 0.0
H1067 H 0.83025 0.83934 0.2092 0.0
O1068 O 0.83815 0.84771 0.3039 0.0
O1069 O 0.86655 0.88926 0.28296 0.0
O1070 O 0.78613 0.89611 0.28013 0.0
O1071 O 0.81178 0.90636 0.23311 0.0
C1072 C 0.96755 0.88339 0.1384 0.0
C1073 C 0.97764 0.91693 0.14404 0.0
H1074 H 0.9896 0.98863 0.1699 0.0
H1075 H 0.97213 0.0114 0.23147 0.0
H1076 H 0.90216 0.78599 0.16187 0.0
H1077 H 0.95235 0.81558 0.14027 0.0
H1078 H 0.98345 0.86942 0.12169 0.0
H1079 H 0.99766 0.92811 0.12905 0.0
Mn1080 Mn 0.11231 0.81805 0.29093 0.0
Mn1081 Mn 0.08993 0.74765 0.32475 0.0
C1082 C 0.13201 0.80077 0.34328 0.0
C1083 C 0.14556 0.86305 0.27459 0.0
C1084 C 0.03546 0.79965 0.30779 0.0
O1085 O 0.11254 0.78464 0.25194 0.0
O1086 O 0.08307 0.74561 0.27861 0.0
C1087 C 0.16427 0.7109 0.29091 0.0
N1088 N 0.13446 0.72236 0.31667 0.0
C1089 C 0.1581 0.64654 0.3567 0.0
C1090 C 0.18733 0.64252 0.32299 0.0
C1091 C 0.18992 0.67393 0.29257 0.0
C1092 C 0.1242 0.70595 0.34748 0.0
H1093 H 0.16822 0.72592 0.26946 0.0
C1094 C 0.10319 0.75416 0.25589 0.0
O1095 O 0.11264 0.86121 0.26865 0.0
O1096 O 0.1607 0.83592 0.2836 0.0
N1097 N 0.09304 0.74558 0.37497 0.0
C1098 C 0.0609 0.7456 0.39681 0.0
C1099 C 0.05729 0.72858 0.43341 0.0
C1100 C 0.115 0.69797 0.45859 0.0
C1101 C 0.14769 0.69984 0.43093 0.0
C1102 C 0.12686 0.72937 0.38027 0.0
H1103 H 0.03749 0.75645 0.3869 0.0
O1104 O 0.12399 0.83133 0.33855 0.0
O1105 O 0.12152 0.78287 0.32037 0.0
O1106 O 0.05857 0.81618 0.29312 0.0
O1107 O 0.04448 0.77515 0.32648 0.0
C1108 C 0.16748 0.66275 0.42829 0.0
C1109 C 0.1716 0.63839 0.39509 0.0
H1110 H 0.20647 0.62306 0.32289 0.0
H1111 H 0.2088 0.67036 0.27319 0.0
H1112 H 0.03126 0.7316 0.44411 0.0
H1113 H 0.11894 0.68347 0.48086 0.0
H1114 H 0.17556 0.65194 0.45125 0.0
H1115 H 0.18764 0.61688 0.39832 0.0
Mn1116 Mn 0.20708 0.09055 0.3128 0.0
Mn1117 Mn 0.16833 0.07212 0.23924 0.0
C1118 C 0.16571 0.12628 0.2906 0.0
C1119 C 0.21853 0.10709 0.3661 0.0
C1120 C 0.24828 0.08365 0.25007 0.0
O1121 O 0.20514 0.03981 0.31614 0.0
O1122 O 0.17507 0.03475 0.26893 0.0
C1123 C 0.09889 0.0184 0.25144 0.0
N1124 N 0.11095 0.05551 0.24001 0.0
C1125 C 0.06681 0.05155 0.17193 0.0
C1126 C 0.05664 0.01233 0.18608 0.0
C1127 C 0.07125 -0.00374 0.22413 0.0
C1128 C 0.09316 0.07548 0.19441 0.0
H1129 H 0.10793 0.00785 0.27408 0.0
C1130 C 0.18756 0.02274 0.29521 0.0
O1131 O 0.24309 0.09766 0.34707 0.0
O1132 O 0.18673 0.10017 0.35689 0.0
N1133 N 0.16586 0.10433 0.1929 0.0
C1134 C 0.17914 0.13958 0.19456 0.0
C1135 C 0.13282 0.17248 0.166 0.0
C1136 C 0.10016 0.15452 0.15152 0.0
C1137 C 0.09467 0.11719 0.15344 0.0
C1138 C 0.11914 0.09463 0.17309 0.0
H1139 H 0.20223 0.1456 0.2092 0.0
O1140 O 0.19431 0.13722 0.30386 0.0
O1141 O 0.16592 0.09566 0.28292 0.0
O1142 O 0.24634 0.08883 0.2801 0.0
O1143 O 0.22069 0.07855 0.23308 0.0
C1144 C 0.06494 0.10157 0.13836 0.0
C1145 C 0.05486 0.06802 0.14398 0.0
H1146 H 0.0429 -0.00368 0.1698 0.0
H1147 H 0.06036 0.97351 0.23136 0.0
H1148 H 0.13033 0.19896 0.16187 0.0
H1149 H 0.08015 0.16938 0.14025 0.0
H1150 H 0.04903 0.11555 0.12165 0.0
H1151 H 0.03483 0.05686 0.12898 0.0
Mn1152 Mn 0.70921 0.91938 0.80529 0.0
Mn1153 Mn 0.67196 0.94935 0.73987 0.0
C1154 C 0.66083 0.89533 0.78328 0.0
C1155 C 0.72512 0.88626 0.84872 0.0
C1156 C 0.68228 0.9869 0.79809 0.0
O1157 O 0.75222 0.92856 0.77886 0.0
O1158 O 0.72309 0.96139 0.7422 0.0
C1159 C 0.70526 0.93803 0.67599 0.0
N1160 N 0.67828 0.93137 0.6968 0.0
C1161 C 0.64114 0.91838 0.65069 0.0
C1162 C 0.66949 0.92262 0.62953 0.0
C1163 C 0.70177 0.93244 0.64226 0.0
C1164 C 0.6466 0.92328 0.68434 0.0
H1165 H 0.72813 0.9506 0.68431 0.0
C1166 C 0.75091 0.94689 0.75304 0.0
O1167 O 0.72737 0.91758 0.85102 0.0
O1168 O 0.72073 0.87397 0.81959 0.0
N1169 N 0.62451 0.93496 0.73605 0.0
C1170 C 0.5997 0.93172 0.75988 0.0
C1171 C 0.56767 0.91662 0.75228 0.0
C1172 C 0.56035 0.90821 0.71957 0.0
C1173 C 0.58562 0.91354 0.69547 0.0
C1174 C 0.61867 0.9238 0.70551 0.0
H1175 H 0.60478 0.93958 0.7847 0.0
O1176 O 0.66043 0.905 0.81378 0.0
O1177 O 0.68339 0.90902 0.7641 0.0
O1178 O 0.70612 0.96942 0.80889 0.0
O1179 O 0.65992 0.97319 0.78018 0.0
C1180 C 0.57937 0.90902 0.66192 0.0
C1181 C 0.60707 0.9119 0.63939 0.0
H1182 H 0.66627 0.9201 0.60332 0.0
H1183 H 0.7233 0.93769 0.6259 0.0
H1184 H 0.54835 0.91293 0.77123 0.0
H1185 H 0.53544 0.89769 0.71297 0.0
H1186 H 0.55335 0.90331 0.65339 0.0
H1187 H 0.60198 0.90886 0.61348 0.0
Mn1188 Mn 0.1123 0.69398 0.81804 0.0
Mn1189 Mn 0.08993 0.66017 0.74763 0.0
C1190 C 0.132 0.64163 0.80075 0.0
C1191 C 0.14554 0.71032 0.86305 0.0
C1192 C 0.03544 0.67712 0.79963 0.0
O1193 O 0.11254 0.73297 0.78464 0.0
O1194 O 0.08306 0.70631 0.74561 0.0
C1195 C 0.16426 0.69403 0.7109 0.0
N1196 N 0.13446 0.66826 0.72234 0.0
C1197 C 0.15812 0.62826 0.64652 0.0
C1198 C 0.18734 0.66197 0.64251 0.0
C1199 C 0.18993 0.69238 0.67393 0.0
C1200 C 0.12421 0.63746 0.70593 0.0
H1201 H 0.16822 0.71547 0.72593 0.0
C1202 C 0.10319 0.72903 0.75416 0.0
O1203 O 0.11262 0.71625 0.8612 0.0
O1204 O 0.16068 0.7013 0.83592 0.0
N1205 N 0.09304 0.60995 0.74554 0.0
C1206 C 0.0609 0.58811 0.74555 0.0
C1207 C 0.0573 0.55151 0.72851 0.0
C1208 C 0.11502 0.52635 0.6979 0.0
C1209 C 0.1477 0.55401 0.69979 0.0
C1210 C 0.12687 0.60465 0.72933 0.0
H1211 H 0.03749 0.59801 0.7564 0.0
O1212 O 0.12398 0.64635 0.83131 0.0
O1213 O 0.1215 0.66455 0.78285 0.0
O1214 O 0.05856 0.69179 0.81616 0.0
O1215 O 0.04447 0.65843 0.77512 0.0
C1216 C 0.16751 0.55667 0.6627 0.0
C1217 C 0.17163 0.58987 0.63836 0.0
H1218 H 0.20649 0.66208 0.62306 0.0
H1219 H 0.2088 0.71176 0.67037 0.0
H1220 H 0.03127 0.5408 0.73151 0.0
H1221 H 0.11897 0.50408 0.68339 0.0
H1222 H 0.17559 0.5337 0.65189 0.0
H1223 H 0.18768 0.58665 0.61685 0.0
Mn1224 Mn 0.32323 0.06555 0.80529 0.0
Mn1225 Mn 0.36047 0.03559 0.73987 0.0
C1226 C 0.37161 0.0896 0.78328 0.0
C1227 C 0.30732 0.09867 0.84873 0.0
C1228 C 0.35017 -0.00197 0.7981 0.0
O1229 O 0.28022 0.05637 0.77887 0.0
O1230 O 0.30935 0.02354 0.7422 0.0
C1231 C 0.32717 0.0469 0.67599 0.0
N1232 N 0.35416 0.05357 0.6968 0.0
C1233 C 0.39129 0.06655 0.65069 0.0
C1234 C 0.36294 0.06231 0.62953 0.0
C1235 C 0.33066 0.05249 0.64226 0.0
C1236 C 0.38584 0.06164 0.68434 0.0
H1237 H 0.30431 0.03434 0.68432 0.0
C1238 C 0.28152 0.03804 0.75304 0.0
O1239 O 0.30507 0.06735 0.85103 0.0
O1240 O 0.3117 0.11096 0.81959 0.0
N1241 N 0.40793 0.04998 0.73604 0.0
C1242 C 0.43274 0.05323 0.75988 0.0
C1243 C 0.46476 0.06832 0.75227 0.0
C1244 C 0.47209 0.07672 0.71956 0.0
C1245 C 0.44682 0.07138 0.69546 0.0
C1246 C 0.41377 0.06112 0.7055 0.0
H1247 H 0.42766 0.04537 0.78469 0.0
O1248 O 0.37202 0.07993 0.81378 0.0
O1249 O 0.34905 0.07591 0.7641 0.0
O1250 O 0.32633 0.01551 0.8089 0.0
O1251 O 0.37253 0.01174 0.78018 0.0
C1252 C 0.45306 0.07591 0.66191 0.0
C1253 C 0.42536 0.07303 0.63938 0.0
H1254 H 0.36616 0.06482 0.60331 0.0
H1255 H 0.30912 0.04724 0.6259 0.0
H1256 H 0.48409 0.07202 0.77122 0.0
H1257 H 0.497 0.08723 0.71295 0.0
H1258 H 0.47908 0.08162 0.65337 0.0
H1259 H 0.43045 0.07607 0.61347 0.0
Mn1260 Mn 0.92015 0.29093 0.81805 0.0
Mn1261 Mn 0.94254 0.32475 0.74765 0.0
C1262 C 0.90046 0.34328 0.80078 0.0
C1263 C 0.88691 0.27459 0.86306 0.0
C1264 C 0.99701 0.30779 0.79965 0.0
O1265 O 0.91991 0.25194 0.78464 0.0
O1266 O 0.9494 0.27861 0.74563 0.0
C1267 C 0.86821 0.2909 0.7109 0.0
N1268 N 0.89801 0.31667 0.72235 0.0
C1269 C 0.87437 0.3567 0.64654 0.0
C1270 C 0.84515 0.32299 0.64251 0.0
C1271 C 0.84256 0.29257 0.67392 0.0
C1272 C 0.90827 0.34748 0.70595 0.0
H1273 H 0.86425 0.26946 0.72591 0.0
C1274 C 0.92926 0.2559 0.75417 0.0
O1275 O 0.91983 0.26865 0.86121 0.0
O1276 O 0.87177 0.28361 0.83593 0.0
N1277 N 0.93943 0.37497 0.74558 0.0
C1278 C 0.97157 0.39681 0.7456 0.0
C1279 C 0.97517 0.43341 0.72859 0.0
C1280 C 0.91747 0.45859 0.69797 0.0
C1281 C 0.88478 0.43093 0.69984 0.0
C1282 C 0.9056 0.38027 0.72937 0.0
H1283 H 0.99498 0.3869 0.75646 0.0
O1284 O 0.90849 0.33856 0.83133 0.0
O1285 O 0.91095 0.32037 0.78287 0.0
O1286 O 0.9739 0.29311 0.81618 0.0
O1287 O 0.98798 0.32648 0.77515 0.0
C1288 C 0.86498 0.42829 0.66275 0.0
C1289 C 0.86087 0.39509 0.63839 0.0
H1290 H 0.826 0.32289 0.62306 0.0
H1291 H 0.82368 0.27319 0.67035 0.0
H1292 H 1.00121 0.44412 0.7316 0.0
H1293 H 0.91352 0.48087 0.68347 0.0
H1294 H 0.85691 0.45126 0.65195 0.0
H1295 H 0.84483 0.39832 0.61688 0.0
Mn1296 Mn 0.70918 0.06554 0.17962 0.0
Mn1297 Mn 0.67195 0.03558 0.24505 0.0
C1298 C 0.66079 0.08958 0.20163 0.0
C1299 C 0.72507 0.09867 0.13618 0.0
C1300 C 0.68226 -0.00199 0.18684 0.0
O1301 O 0.75219 0.05637 0.20604 0.0
O1302 O 0.72308 0.02354 0.24271 0.0
C1303 C 0.70526 0.0469 0.30893 0.0
N1304 N 0.67827 0.05357 0.28811 0.0
C1305 C 0.64115 0.06657 0.33423 0.0
C1306 C 0.6695 0.06233 0.35538 0.0
C1307 C 0.70177 0.0525 0.34265 0.0
C1308 C 0.6466 0.06166 0.30058 0.0
H1309 H 0.72812 0.03432 0.3006 0.0
C1310 C 0.7509 0.03804 0.23187 0.0
O1311 O 0.72733 0.06735 0.13388 0.0
O1312 O 0.72069 0.11095 0.16532 0.0
N1313 N 0.6245 0.04996 0.24888 0.0
C1314 C 0.59968 0.05319 0.22505 0.0
C1315 C 0.56765 0.06829 0.23266 0.0
C1316 C 0.56034 0.07672 0.26536 0.0
C1317 C 0.58561 0.0714 0.28946 0.0
C1318 C 0.61866 0.06113 0.27942 0.0
H1319 H 0.60475 0.04532 0.20024 0.0
O1320 O 0.66039 0.0799 0.17113 0.0
O1321 O 0.68336 0.0759 0.22081 0.0
O1322 O 0.7061 0.0155 0.17602 0.0
O1323 O 0.6599 0.01173 0.20475 0.0
C1324 C 0.57938 0.07595 0.32301 0.0
C1325 C 0.60708 0.07307 0.34554 0.0
H1326 H 0.66628 0.06486 0.3816 0.0
H1327 H 0.72331 0.04724 0.35901 0.0
H1328 H 0.54832 0.07197 0.2137 0.0
H1329 H 0.53543 0.08724 0.27196 0.0
H1330 H 0.55336 0.08168 0.33155 0.0
H1331 H 0.602 0.07612 0.37145 0.0
Mn1332 Mn 0.92013 0.69401 0.16686 0.0
Mn1333 Mn 0.94253 0.66018 0.23725 0.0
C1334 C 0.90044 0.64166 0.18413 0.0
C1335 C 0.88687 0.71035 0.12187 0.0
C1336 C 0.99699 0.67716 0.18524 0.0
O1337 O 0.91989 0.733 0.20028 0.0
O1338 O 0.94939 0.70633 0.23929 0.0
C1339 C 0.86821 0.69402 0.27403 0.0
N1340 N 0.89801 0.66825 0.26256 0.0
C1341 C 0.87439 0.62821 0.33837 0.0
C1342 C 0.84517 0.66191 0.34241 0.0
C1343 C 0.84256 0.69234 0.31101 0.0
C1344 C 0.90828 0.63744 0.27895 0.0
H1345 H 0.86424 0.71547 0.25902 0.0
C1346 C 0.92925 0.72904 0.23075 0.0
O1347 O 0.91979 0.7163 0.12371 0.0
O1348 O 0.87174 0.70133 0.149 0.0
N1349 N 0.93943 0.60997 0.23931 0.0
C1350 C 0.97157 0.58813 0.23927 0.0
C1351 C 0.97518 0.55152 0.25628 0.0
C1352 C 0.91749 0.52633 0.2869 0.0
C1353 C 0.8848 0.55399 0.28505 0.0
C1354 C 0.90561 0.60466 0.25553 0.0
H1355 H 0.99497 0.59804 0.22842 0.0
O1356 O 0.90847 0.64639 0.15358 0.0
O1357 O 0.91094 0.66457 0.20204 0.0
O1358 O 0.97388 0.69184 0.16872 0.0
O1359 O 0.98797 0.65846 0.20974 0.0
C1360 C 0.86501 0.55662 0.32215 0.0
C1361 C 0.86089 0.58981 0.34652 0.0
H1362 H 0.82602 0.662 0.36187 0.0
H1363 H 0.82369 0.71172 0.31459 0.0
H1364 H 1.00122 0.54082 0.25326 0.0
H1365 H 0.91355 0.50405 0.3014 0.0
H1366 H 0.85694 0.53365 0.33295 0.0
H1367 H 0.84486 0.58657 0.36803 0.0
Mn1368 Mn 0.32325 0.91938 0.17961 0.0
Mn1369 Mn 0.36048 0.94935 0.24503 0.0
C1370 C 0.37163 0.89533 0.20163 0.0
C1371 C 0.30735 0.88625 0.13618 0.0
C1372 C 0.35018 0.9869 0.1868 0.0
O1373 O 0.28024 0.92856 0.20603 0.0
O1374 O 0.30936 0.9614 0.24269 0.0
C1375 C 0.32717 0.93806 0.30892 0.0
N1376 N 0.35415 0.93138 0.2881 0.0
C1377 C 0.39127 0.91838 0.33423 0.0
C1378 C 0.36291 0.92262 0.35538 0.0
C1379 C 0.33064 0.93246 0.34264 0.0
C1380 C 0.38583 0.92329 0.30058 0.0
H1381 H 0.30431 0.95064 0.30058 0.0
C1382 C 0.28154 0.94689 0.23186 0.0
O1383 O 0.30509 0.91757 0.13388 0.0
O1384 O 0.31173 0.87397 0.16532 0.0
N1385 N 0.40794 0.93496 0.24888 0.0
C1386 C 0.43275 0.9317 0.22505 0.0
C1387 C 0.46477 0.9166 0.23267 0.0
C1388 C 0.47208 0.9082 0.26537 0.0
C1389 C 0.44681 0.91354 0.28947 0.0
C1390 C 0.41377 0.92381 0.27942 0.0
H1391 H 0.42768 0.93955 0.20023 0.0
O1392 O 0.37204 0.905 0.17112 0.0
O1393 O 0.34907 0.90902 0.22081 0.0
O1394 O 0.32634 0.96942 0.176 0.0
O1395 O 0.37254 0.97319 0.20472 0.0
C1396 C 0.45304 0.90899 0.32302 0.0
C1397 C 0.42533 0.91187 0.34555 0.0
H1398 H 0.36612 0.92009 0.38159 0.0
H1399 H 0.30911 0.93773 0.359 0.0
H1400 H 0.4841 0.9129 0.21372 0.0
H1401 H 0.49699 0.89768 0.27199 0.0
H1402 H 0.47905 0.90326 0.33157 0.0
H1403 H 0.43041 0.90881 0.37146 0.0
Mn1404 Mn 0.11231 0.29095 0.16687 0.0
Mn1405 Mn 0.08993 0.32475 0.23729 0.0
C1406 C 0.132 0.34329 0.18417 0.0
C1407 C 0.14555 0.27461 0.12187 0.0
C1408 C 0.03545 0.3078 0.18528 0.0
O1409 O 0.11254 0.25194 0.20027 0.0
O1410 O 0.08305 0.2786 0.2393 0.0
C1411 C 0.16427 0.29087 0.27398 0.0
N1412 N 0.13446 0.31665 0.26256 0.0
C1413 C 0.15815 0.35662 0.3384 0.0
C1414 C 0.18737 0.32291 0.34238 0.0
C1415 C 0.18994 0.29251 0.31095 0.0
C1416 C 0.12422 0.34744 0.27899 0.0
H1417 H 0.16822 0.26943 0.25895 0.0
C1418 C 0.10319 0.25589 0.23075 0.0
O1419 O 0.11264 0.26867 0.12371 0.0
O1420 O 0.16069 0.28362 0.149 0.0
N1421 N 0.09304 0.37496 0.2394 0.0
C1422 C 0.0609 0.39681 0.2394 0.0
C1423 C 0.05731 0.4334 0.25645 0.0
C1424 C 0.11503 0.45855 0.28706 0.0
C1425 C 0.14772 0.43088 0.28515 0.0
C1426 C 0.12687 0.38025 0.2556 0.0
H1427 H 0.03749 0.38691 0.22855 0.0
O1428 O 0.12398 0.33857 0.15361 0.0
O1429 O 0.1215 0.32037 0.20206 0.0
O1430 O 0.05856 0.29313 0.16875 0.0
O1431 O 0.04447 0.32649 0.20979 0.0
C1432 C 0.16753 0.42822 0.32223 0.0
C1433 C 0.17166 0.395 0.34657 0.0
H1434 H 0.20653 0.32279 0.36183 0.0
H1435 H 0.20882 0.27312 0.3145 0.0
H1436 H 0.03127 0.44411 0.25346 0.0
H1437 H 0.11899 0.48081 0.30158 0.0
H1438 H 0.17562 0.45118 0.33305 0.0
H1439 H 0.18772 0.39822 0.36807 0.0
Mn1440 Mn 0.82537 0.67209 0.89438 0.0
Mn1441 Mn 0.86414 0.74565 0.9128 0.0
C1442 C 0.86674 0.6943 0.85864 0.0
C1443 C 0.81391 0.61881 0.87783 0.0
C1444 C 0.78419 0.73484 0.90128 0.0
O1445 O 0.82731 0.66875 0.94512 0.0
O1446 O 0.85739 0.71597 0.95017 0.0
C1447 C 0.93358 0.73338 0.96651 0.0
N1448 N 0.92153 0.74484 0.9294 0.0
C1449 C 0.9657 0.81289 0.93341 0.0
C1450 C 0.97587 0.79871 0.97262 0.0
C1451 C 0.96124 0.76066 0.98866 0.0
C1452 C 0.93934 0.79044 0.90946 0.0
H1453 H 0.92454 0.71073 0.97704 0.0
C1454 C 0.8449 0.68969 0.96218 0.0
O1455 O 0.78935 0.63784 0.88727 0.0
O1456 O 0.84571 0.628 0.88475 0.0
N1457 N 0.86664 0.792 0.88062 0.0
C1458 C 0.85335 0.79037 0.84537 0.0
C1459 C 0.89968 0.81892 0.81248 0.0
C1460 C 0.93235 0.83338 0.83045 0.0
C1461 C 0.93784 0.83144 0.86777 0.0
C1462 C 0.91337 0.81179 0.89033 0.0
H1463 H 0.83025 0.77574 0.83935 0.0
O1464 O 0.83814 0.68104 0.8477 0.0
O1465 O 0.86654 0.70197 0.88926 0.0
O1466 O 0.78612 0.70481 0.89611 0.0
O1467 O 0.81178 0.75182 0.90636 0.0
C1468 C 0.96757 0.84651 0.88341 0.0
C1469 C 0.97766 0.84085 0.91695 0.0
H1470 H 0.98963 0.81497 0.98864 0.0
H1471 H 0.97215 0.7534 0.01139 0.0
H1472 H 0.90217 0.82306 0.786 0.0
H1473 H 0.95237 0.84465 0.81559 0.0
H1474 H 0.98347 0.86323 0.86944 0.0
H1475 H 0.99769 0.85584 0.92812 0.0
Mn1476 Mn 0.82538 0.31282 0.09054 0.0
Mn1477 Mn 0.86413 0.23925 0.07213 0.0
C1478 C 0.86675 0.29062 0.12628 0.0
C1479 C 0.81393 0.36611 0.10708 0.0
C1480 C 0.78419 0.25009 0.08366 0.0
O1481 O 0.82733 0.31615 0.03981 0.0
O1482 O 0.8574 0.26893 0.03476 0.0
C1483 C 0.93357 0.25144 0.01841 0.0
N1484 N 0.92152 0.24002 0.05553 0.0
C1485 C 0.96566 0.17194 0.05157 0.0
C1486 C 0.97583 0.18609 0.01234 0.0
C1487 C 0.96121 0.22413 -0.00373 0.0
C1488 C 0.93931 0.19442 0.0755 0.0
H1489 H 0.92454 0.27409 0.00786 0.0
C1490 C 0.84491 0.29521 0.02275 0.0
O1491 O 0.78937 0.34708 0.09765 0.0
O1492 O 0.84573 0.35691 0.10017 0.0
N1493 N 0.86661 0.19291 0.10435 0.0
C1494 C 0.85333 0.19458 0.1396 0.0
C1495 C 0.89965 0.16602 0.1725 0.0
C1496 C 0.93231 0.15154 0.15454 0.0
C1497 C 0.9378 0.15345 0.11721 0.0
C1498 C 0.91333 0.1731 0.09465 0.0
H1499 H 0.83024 0.20922 0.14562 0.0
O1500 O 0.83815 0.30388 0.13722 0.0
O1501 O 0.86655 0.28294 0.09567 0.0
O1502 O 0.78613 0.28011 0.08883 0.0
O1503 O 0.81178 0.23309 0.07857 0.0
C1504 C 0.96753 0.13837 0.10159 0.0
C1505 C 0.97761 0.144 0.06805 0.0
H1506 H 0.98957 0.1698 -0.00366 0.0
H1507 H 0.9721 0.23136 0.97352 0.0
H1508 H 0.90214 0.16189 0.19898 0.0
H1509 H 0.95232 0.14026 0.1694 0.0
H1510 H 0.98344 0.12167 0.11557 0.0
H1511 H 0.99764 0.129 0.05688 0.0
Mn1512 Mn 0.7092 0.80532 0.06554 0.0
Mn1513 Mn 0.67197 0.73991 0.03556 0.0
C1514 C 0.66082 0.78331 0.08958 0.0
C1515 C 0.7251 0.84875 0.09868 0.0
C1516 C 0.68227 0.79813 -0.00198 0.0
O1517 O 0.75221 0.77889 0.05636 0.0
O1518 O 0.72309 0.74224 0.02352 0.0
C1519 C 0.70527 0.67602 0.04685 0.0
N1520 N 0.67829 0.69683 0.05353 0.0
C1521 C 0.64117 0.65072 0.06653 0.0
C1522 C 0.66953 0.62956 0.06228 0.0
C1523 C 0.70179 0.6423 0.05245 0.0
C1524 C 0.64662 0.68437 0.06162 0.0
H1525 H 0.72813 0.68435 0.03427 0.0
C1526 C 0.75091 0.75308 0.03802 0.0
O1527 O 0.72736 0.85105 0.06736 0.0
O1528 O 0.72072 0.81961 0.11096 0.0
N1529 N 0.62451 0.73606 0.04996 0.0
C1530 C 0.5997 0.7599 0.05321 0.0
C1531 C 0.56768 0.75228 0.06832 0.0
C1532 C 0.56036 0.71958 0.07672 0.0
C1533 C 0.58563 0.69547 0.07137 0.0
C1534 C 0.61868 0.70552 0.06111 0.0
H1535 H 0.60477 0.78471 0.04536 0.0
O1536 O 0.66042 0.81381 0.07991 0.0
O1537 O 0.68338 0.76413 0.0759 0.0
O1538 O 0.70611 0.80893 0.0155 0.0
O1539 O 0.65991 0.78022 0.01173 0.0
C1540 C 0.5794 0.66192 0.07591 0.0
C1541 C 0.60711 0.6394 0.07302 0.0
H1542 H 0.66632 0.60334 0.06481 0.0
H1543 H 0.72333 0.62594 0.04719 0.0
H1544 H 0.54835 0.77123 0.07201 0.0
H1545 H 0.53545 0.71296 0.08724 0.0
H1546 H 0.55338 0.65338 0.08163 0.0
H1547 H 0.60202 0.61349 0.07606 0.0
Mn1548 Mn 0.20707 0.67211 0.09054 0.0
Mn1549 Mn 0.16834 0.74568 0.07212 0.0
C1550 C 0.1657 0.69432 0.12627 0.0
C1551 C 0.2185 0.61881 0.10709 0.0
C1552 C 0.24828 0.73483 0.08366 0.0
O1553 O 0.20513 0.66877 0.03981 0.0
O1554 O 0.17507 0.71599 0.03475 0.0
C1555 C 0.0989 0.73351 0.01839 0.0
N1556 N 0.11095 0.74492 0.05551 0.0
C1557 C 0.06683 0.81302 0.05156 0.0
C1558 C 0.05666 0.79888 0.01234 0.0
C1559 C 0.07126 0.76083 -0.00374 0.0
C1560 C 0.09317 0.79052 0.07549 0.0
H1561 H 0.10793 0.71087 0.00784 0.0
C1562 C 0.18756 0.68971 0.02274 0.0
O1563 O 0.24307 0.63784 0.09765 0.0
O1564 O 0.18671 0.62802 0.10016 0.0
N1565 N 0.16587 0.79201 0.10435 0.0
C1566 C 0.17915 0.79034 0.1396 0.0
C1567 C 0.13284 0.81891 0.1725 0.0
C1568 C 0.10018 0.83339 0.15454 0.0
C1569 C 0.09469 0.83149 0.11721 0.0
C1570 C 0.11915 0.81184 0.09464 0.0
H1571 H 0.20224 0.7757 0.14561 0.0
O1572 O 0.1943 0.68105 0.13722 0.0
O1573 O 0.16591 0.702 0.09566 0.0
O1574 O 0.24633 0.70481 0.08883 0.0
O1575 O 0.2207 0.75182 0.07856 0.0
C1576 C 0.06496 0.84657 0.1016 0.0
C1577 C 0.05488 0.84096 0.06805 0.0
H1578 H 0.04293 0.81518 -0.00367 0.0
H1579 H 0.06038 0.75362 0.9735 0.0
H1580 H 0.13035 0.82303 0.19898 0.0
H1581 H 0.08017 0.84467 0.1694 0.0
H1582 H 0.04905 0.86327 0.11558 0.0
H1583 H 0.03485 0.85596 0.05689 0.0
Mn1584 Mn 0.32323 0.17963 0.06554 0.0
Mn1585 Mn 0.36048 0.24505 0.03557 0.0
C1586 C 0.37161 0.20164 0.08959 0.0
C1587 C 0.30732 0.13619 0.09865 0.0
C1588 C 0.35017 0.18682 -0.00198 0.0
O1589 O 0.28022 0.20606 0.05636 0.0
O1590 O 0.30935 0.24272 0.02352 0.0
C1591 C 0.32717 0.30893 0.04687 0.0
N1592 N 0.35415 0.28812 0.05354 0.0
C1593 C 0.39128 0.33424 0.06654 0.0
C1594 C 0.36292 0.35539 0.0623 0.0
C1595 C 0.33065 0.34266 0.05247 0.0
C1596 C 0.38583 0.30059 0.06163 0.0
H1597 H 0.30431 0.3006 0.03429 0.0
C1598 C 0.28153 0.23188 0.03802 0.0
O1599 O 0.30507 0.1339 0.06733 0.0
O1600 O 0.3117 0.16533 0.11094 0.0
N1601 N 0.40793 0.24889 0.04997 0.0
C1602 C 0.43274 0.22505 0.05322 0.0
C1603 C 0.46476 0.23267 0.06832 0.0
C1604 C 0.47208 0.26537 0.07672 0.0
C1605 C 0.44681 0.28947 0.07138 0.0
C1606 C 0.41377 0.27943 0.06111 0.0
H1607 H 0.42767 0.20024 0.04537 0.0
O1608 O 0.37201 0.17114 0.07992 0.0
O1609 O 0.34905 0.22083 0.0759 0.0
O1610 O 0.32633 0.17602 0.0155 0.0
O1611 O 0.37253 0.20474 0.01173 0.0
C1612 C 0.45305 0.32302 0.07592 0.0
C1613 C 0.42534 0.34555 0.07304 0.0
H1614 H 0.36613 0.38161 0.06483 0.0
H1615 H 0.30912 0.35902 0.04721 0.0
H1616 H 0.48409 0.21371 0.07202 0.0
H1617 H 0.497 0.27198 0.08723 0.0
H1618 H 0.47906 0.33156 0.08165 0.0
H1619 H 0.43042 0.37146 0.07609 0.0
Mn1620 Mn 0.20709 0.31284 0.89438 0.0
Mn1621 Mn 0.16833 0.23928 0.91281 0.0
C1622 C 0.16572 0.29062 0.85864 0.0
C1623 C 0.21854 0.36612 0.87782 0.0
C1624 C 0.24828 0.2501 0.90128 0.0
O1625 O 0.20514 0.31618 0.94511 0.0
O1626 O 0.17507 0.26897 0.95017 0.0
C1627 C 0.09888 0.25151 0.96652 0.0
N1628 N 0.11094 0.24007 0.92941 0.0
C1629 C 0.06678 0.172 0.93339 0.0
C1630 C 0.05661 0.18617 0.97261 0.0
C1631 C 0.07123 0.22422 0.98866 0.0
C1632 C 0.09314 0.19447 0.90946 0.0
H1633 H 0.10792 0.27416 0.97705 0.0
C1634 C 0.18756 0.29525 0.96218 0.0
O1635 O 0.2431 0.34709 0.88726 0.0
O1636 O 0.18674 0.35692 0.88474 0.0
N1637 N 0.16585 0.19293 0.88061 0.0
C1638 C 0.17913 0.19457 0.84536 0.0
C1639 C 0.13281 0.16602 0.81246 0.0
C1640 C 0.10015 0.15155 0.83043 0.0
C1641 C 0.09465 0.15348 0.86775 0.0
C1642 C 0.11912 0.17313 0.89031 0.0
H1643 H 0.20223 0.20921 0.83934 0.0
O1644 O 0.19432 0.30388 0.8477 0.0
O1645 O 0.16592 0.28295 0.88926 0.0
O1646 O 0.24634 0.28012 0.8961 0.0
O1647 O 0.22069 0.23311 0.90637 0.0
C1648 C 0.06491 0.13841 0.88338 0.0
C1649 C 0.05483 0.14405 0.91692 0.0
H1650 H 0.04286 0.1699 0.98862 0.0
H1651 H 0.06033 0.23147 0.0114 0.0
H1652 H 0.13032 0.16188 0.78599 0.0
H1653 H 0.08013 0.14028 0.81557 0.0
H1654 H 0.04901 0.1217 0.8694 0.0
H1655 H 0.0348 0.12906 0.92809 0.0
Mn1656 Mn 0.7092 0.17961 0.91937 0.0
Mn1657 Mn 0.67196 0.24504 0.94934 0.0
C1658 C 0.66081 0.20162 0.89533 0.0
C1659 C 0.7251 0.13618 0.88624 0.0
C1660 C 0.68227 0.18683 0.9869 0.0
O1661 O 0.75221 0.20604 0.92855 0.0
O1662 O 0.72309 0.24271 0.96138 0.0
C1663 C 0.70526 0.30892 0.93801 0.0
N1664 N 0.67828 0.2881 0.93135 0.0
C1665 C 0.64114 0.33422 0.91837 0.0
C1666 C 0.66949 0.35538 0.92261 0.0
C1667 C 0.70177 0.34265 0.93242 0.0
C1668 C 0.6466 0.30057 0.92327 0.0
H1669 H 0.72813 0.30059 0.95058 0.0
C1670 C 0.75091 0.23186 0.94688 0.0
O1671 O 0.72736 0.13388 0.91756 0.0
O1672 O 0.72072 0.16532 0.87396 0.0
N1673 N 0.62451 0.24887 0.93495 0.0
C1674 C 0.59969 0.22503 0.93172 0.0
C1675 C 0.56767 0.23264 0.91662 0.0
C1676 C 0.56035 0.26534 0.90821 0.0
C1677 C 0.58561 0.28945 0.91354 0.0
C1678 C 0.61867 0.27941 0.9238 0.0
H1679 H 0.60477 0.20022 0.93958 0.0
O1680 O 0.66041 0.17112 0.905 0.0
O1681 O 0.68338 0.22081 0.90901 0.0
O1682 O 0.70611 0.17601 0.96942 0.0
O1683 O 0.65992 0.20474 0.97318 0.0
C1684 C 0.57937 0.32299 0.90901 0.0
C1685 C 0.60707 0.34553 0.9119 0.0
H1686 H 0.66627 0.38159 0.9201 0.0
H1687 H 0.72331 0.35901 0.93768 0.0
H1688 H 0.54834 0.21368 0.91294 0.0
H1689 H 0.53543 0.27195 0.89769 0.0
H1690 H 0.55335 0.33153 0.90331 0.0
H1691 H 0.60198 0.37144 0.90887 0.0
Mn1692 Mn 0.32326 0.8053 0.91938 0.0
Mn1693 Mn 0.36049 0.73986 0.94934 0.0
C1694 C 0.37164 0.78329 0.89534 0.0
C1695 C 0.30736 0.84874 0.88627 0.0
C1696 C 0.35019 0.79808 0.98691 0.0
O1697 O 0.28025 0.77887 0.92855 0.0
O1698 O 0.30936 0.7422 0.96138 0.0
C1699 C 0.32718 0.67598 0.93802 0.0
N1700 N 0.35417 0.6968 0.93135 0.0
C1701 C 0.39129 0.65069 0.91834 0.0
C1702 C 0.36294 0.62953 0.92258 0.0
C1703 C 0.33067 0.64226 0.93241 0.0
C1704 C 0.38584 0.68433 0.92326 0.0
H1705 H 0.30432 0.68431 0.95059 0.0
C1706 C 0.28154 0.75304 0.94688 0.0
O1707 O 0.3051 0.85103 0.91759 0.0
O1708 O 0.31174 0.8196 0.87398 0.0
N1709 N 0.40795 0.73603 0.93495 0.0
C1710 C 0.43276 0.75986 0.93172 0.0
C1711 C 0.46479 0.75225 0.91662 0.0
C1712 C 0.4721 0.71955 0.9082 0.0
C1713 C 0.44683 0.69545 0.91352 0.0
C1714 C 0.41378 0.70549 0.92379 0.0
H1715 H 0.42769 0.78467 0.93959 0.0
O1716 O 0.37205 0.81379 0.90502 0.0
O1717 O 0.34908 0.7641 0.90902 0.0
O1718 O 0.32635 0.80889 0.96943 0.0
O1719 O 0.37254 0.78016 0.97319 0.0
C1720 C 0.45306 0.6619 0.90896 0.0
C1721 C 0.42536 0.63937 0.91184 0.0
H1722 H 0.36615 0.60331 0.92006 0.0
H1723 H 0.30913 0.6259 0.93767 0.0
H1724 H 0.48412 0.77121 0.91294 0.0
H1725 H 0.49702 0.71295 0.89769 0.0
H1726 H 0.47908 0.65336 0.90323 0.0
H1727 H 0.43044 0.61346 0.90878 0.0
Mn1728 Mn 0.82324 0.56554 0.80529 0.0
Mn1729 Mn 0.86048 0.53556 0.73989 0.0
C1730 C 0.8716 0.58958 0.78328 0.0
C1731 C 0.80733 0.59867 0.84872 0.0
C1732 C 0.85018 0.49801 0.79812 0.0
O1733 O 0.78023 0.55637 0.77886 0.0
O1734 O 0.80936 0.52351 0.74223 0.0
C1735 C 0.82718 0.54684 0.676 0.0
N1736 N 0.85416 0.55352 0.69682 0.0
C1737 C 0.89128 0.56652 0.6507 0.0
C1738 C 0.86293 0.56228 0.62955 0.0
C1739 C 0.83066 0.55245 0.64228 0.0
C1740 C 0.88584 0.56161 0.68435 0.0
H1741 H 0.80432 0.53427 0.68433 0.0
C1742 C 0.78154 0.53805 0.75303 0.0
O1743 O 0.80507 0.56735 0.85102 0.0
O1744 O 0.81171 0.61095 0.81958 0.0
N1745 N 0.90793 0.54995 0.73605 0.0
C1746 C 0.93275 0.55321 0.75989 0.0
C1747 C 0.96477 0.56831 0.75228 0.0
C1748 C 0.97208 0.57671 0.71957 0.0
C1749 C 0.94682 0.57137 0.69547 0.0
C1750 C 0.91377 0.5611 0.70551 0.0
H1751 H 0.92767 0.54535 0.7847 0.0
O1752 O 0.87202 0.57992 0.81379 0.0
O1753 O 0.84905 0.57589 0.76409 0.0
O1754 O 0.82632 0.5155 0.8089 0.0
O1755 O 0.87253 0.51174 0.78022 0.0
C1756 C 0.95305 0.57591 0.66192 0.0
C1757 C 0.92535 0.57302 0.63939 0.0
H1758 H 0.86615 0.56481 0.60333 0.0
H1759 H 0.80913 0.54719 0.62591 0.0
H1760 H 0.98409 0.57201 0.77123 0.0
H1761 H 0.99699 0.58724 0.71296 0.0
H1762 H 0.97907 0.58163 0.65338 0.0
H1763 H 0.93044 0.57607 0.61348 0.0
Mn1764 Mn 0.20921 0.41939 0.80528 0.0
Mn1765 Mn 0.17196 0.44938 0.73989 0.0
C1766 C 0.16084 0.39535 0.78328 0.0
C1767 C 0.22512 0.38626 0.84871 0.0
C1768 C 0.18228 0.48692 0.79811 0.0
O1769 O 0.25221 0.42856 0.77885 0.0
O1770 O 0.22308 0.46143 0.74222 0.0
C1771 C 0.20526 0.43809 0.676 0.0
N1772 N 0.17828 0.43142 0.69682 0.0
C1773 C 0.14115 0.4184 0.65071 0.0
C1774 C 0.1695 0.42264 0.62955 0.0
C1775 C 0.20177 0.43248 0.64228 0.0
C1776 C 0.1466 0.42332 0.68436 0.0
H1777 H 0.22812 0.45067 0.68432 0.0
C1778 C 0.2509 0.44689 0.75302 0.0
O1779 O 0.22737 0.41758 0.85101 0.0
O1780 O 0.22073 0.37398 0.81957 0.0
N1781 N 0.12451 0.43498 0.73606 0.0
C1782 C 0.09969 0.43173 0.7599 0.0
C1783 C 0.06768 0.41663 0.75229 0.0
C1784 C 0.06036 0.40821 0.71959 0.0
C1785 C 0.08562 0.41355 0.69548 0.0
C1786 C 0.11867 0.42383 0.70552 0.0
H1787 H 0.10477 0.4396 0.78471 0.0
O1788 O 0.16042 0.40502 0.81379 0.0
O1789 O 0.18339 0.40904 0.76409 0.0
O1790 O 0.20613 0.46944 0.80889 0.0
O1791 O 0.15991 0.47319 0.78022 0.0
C1792 C 0.07938 0.40902 0.66193 0.0
C1793 C 0.10708 0.41191 0.6394 0.0
H1794 H 0.16628 0.42012 0.60333 0.0
H1795 H 0.2233 0.43774 0.62591 0.0
H1796 H 0.04835 0.41294 0.77124 0.0
H1797 H 0.03545 0.39768 0.71298 0.0
H1798 H 0.05337 0.4033 0.6534 0.0
H1799 H 0.10199 0.40886 0.61349 0.0
Mn1800 Mn 0.20917 0.56553 0.17962 0.0
Mn1801 Mn 0.17194 0.53555 0.24503 0.0
C1802 C 0.1608 0.58956 0.20162 0.0
C1803 C 0.22507 0.59867 0.13619 0.0
C1804 C 0.18226 0.498 0.18681 0.0
O1805 O 0.25219 0.55637 0.20605 0.0
O1806 O 0.22307 0.5235 0.24269 0.0
C1807 C 0.20525 0.54684 0.30892 0.0
N1808 N 0.17827 0.55352 0.2881 0.0
C1809 C 0.14115 0.56655 0.33421 0.0
C1810 C 0.1695 0.5623 0.35537 0.0
C1811 C 0.20177 0.55245 0.34264 0.0
C1812 C 0.1466 0.56162 0.30056 0.0
H1813 H 0.22811 0.53426 0.30059 0.0
C1814 C 0.25088 0.53804 0.23188 0.0
O1815 O 0.22734 0.56735 0.13389 0.0
O1816 O 0.22068 0.61095 0.16533 0.0
N1817 N 0.12449 0.54994 0.24887 0.0
C1818 C 0.09967 0.55317 0.22504 0.0
C1819 C 0.06765 0.56828 0.23265 0.0
C1820 C 0.06035 0.57672 0.26534 0.0
C1821 C 0.08562 0.57139 0.28945 0.0
C1822 C 0.11866 0.56111 0.27941 0.0
H1823 H 0.10474 0.5453 0.20023 0.0
O1824 O 0.16038 0.57989 0.17112 0.0
O1825 O 0.18336 0.57588 0.22082 0.0
O1826 O 0.2061 0.51548 0.17602 0.0
O1827 O 0.1599 0.51173 0.20471 0.0
C1828 C 0.07939 0.57595 0.32299 0.0
C1829 C 0.10709 0.57306 0.34552 0.0
H1830 H 0.16629 0.56484 0.38159 0.0
H1831 H 0.2233 0.54719 0.359 0.0
H1832 H 0.04833 0.57196 0.21369 0.0
H1833 H 0.03544 0.58725 0.27195 0.0
H1834 H 0.05337 0.58168 0.33153 0.0
H1835 H 0.10201 0.57612 0.37143 0.0
Mn1836 Mn 0.82325 0.41939 0.17962 0.0
Mn1837 Mn 0.86049 0.44938 0.24501 0.0
C1838 C 0.87162 0.39535 0.20162 0.0
C1839 C 0.80735 0.38625 0.13619 0.0
C1840 C 0.85019 0.48692 0.18678 0.0
O1841 O 0.78024 0.42856 0.20605 0.0
O1842 O 0.80937 0.46144 0.24267 0.0
C1843 C 0.82717 0.43812 0.3089 0.0
N1844 N 0.85416 0.43143 0.28809 0.0
C1845 C 0.89126 0.4184 0.33421 0.0
C1846 C 0.8629 0.42265 0.35536 0.0
C1847 C 0.83064 0.43251 0.34263 0.0
C1848 C 0.88582 0.42333 0.30056 0.0
H1849 H 0.80432 0.45071 0.30057 0.0
C1850 C 0.78155 0.44689 0.23187 0.0
O1851 O 0.80509 0.41757 0.13388 0.0
O1852 O 0.81174 0.37397 0.16533 0.0
N1853 N 0.90794 0.43498 0.24887 0.0
C1854 C 0.93276 0.43172 0.22503 0.0
C1855 C 0.96477 0.41661 0.23266 0.0
C1856 C 0.97208 0.4082 0.26536 0.0
C1857 C 0.94681 0.41355 0.28946 0.0
C1858 C 0.91377 0.42383 0.27941 0.0
H1859 H 0.92769 0.43957 0.20022 0.0
O1860 O 0.87204 0.40502 0.17112 0.0
O1861 O 0.84907 0.40905 0.22082 0.0
O1862 O 0.82633 0.46943 0.176 0.0
O1863 O 0.87255 0.47319 0.20468 0.0
C1864 C 0.95303 0.40899 0.32301 0.0
C1865 C 0.92532 0.41188 0.34553 0.0
H1866 H 0.86611 0.42011 0.38158 0.0
H1867 H 0.80911 0.43778 0.35898 0.0
H1868 H 0.9841 0.4129 0.21371 0.0
H1869 H 0.99698 0.39767 0.27198 0.0
H1870 H 0.97904 0.40325 0.33155 0.0
H1871 H 0.93039 0.40881 0.37144 0.0
Mn1872 Mn 0.32538 0.59053 0.67205 0.0
Mn1873 Mn 0.36414 0.57214 0.74561 0.0
C1874 C 0.36675 0.6263 0.69427 0.0
C1875 C 0.31391 0.60709 0.61877 0.0
C1876 C 0.28419 0.58365 0.7348 0.0
O1877 O 0.32734 0.53979 0.66871 0.0
O1878 O 0.35739 0.53477 0.71594 0.0
C1879 C 0.43358 0.51843 0.73333 0.0
N1880 N 0.42153 0.55553 0.7448 0.0
C1881 C 0.46571 0.5515 0.81285 0.0
C1882 C 0.47587 0.5123 0.79866 0.0
C1883 C 0.46124 0.49627 0.7606 0.0
C1884 C 0.43934 0.57545 0.79041 0.0
H1885 H 0.42454 0.50791 0.71067 0.0
C1886 C 0.34491 0.52274 0.68966 0.0
O1887 O 0.28936 0.59763 0.6378 0.0
O1888 O 0.34572 0.60017 0.62797 0.0
N1889 N 0.36664 0.60431 0.79197 0.0
C1890 C 0.35336 0.63956 0.79035 0.0
C1891 C 0.39969 0.67244 0.81892 0.0
C1892 C 0.43236 0.65446 0.83336 0.0
C1893 C 0.43785 0.61713 0.83142 0.0
C1894 C 0.41337 0.59459 0.81176 0.0
H1895 H 0.33026 0.64559 0.77572 0.0
O1896 O 0.33813 0.6372 0.68101 0.0
O1897 O 0.36655 0.59568 0.70193 0.0
O1898 O 0.28613 0.58878 0.70477 0.0
O1899 O 0.31179 0.57859 0.75179 0.0
C1900 C 0.46758 0.6015 0.84648 0.0
C1901 C 0.47766 0.56796 0.84082 0.0
H1902 H 0.48963 0.49627 0.81491 0.0
H1903 H 0.47216 0.47354 0.75333 0.0
H1904 H 0.40219 0.69891 0.82306 0.0
H1905 H 0.45238 0.66931 0.84464 0.0
H1906 H 0.48348 0.61546 0.8632 0.0
H1907 H 0.49769 0.55678 0.8558 0.0
Mn1908 Mn 0.70708 0.39439 0.67211 0.0
Mn1909 Mn 0.66833 0.41278 0.74568 0.0
C1910 C 0.6657 0.35863 0.69432 0.0
C1911 C 0.71852 0.37785 0.61882 0.0
C1912 C 0.74828 0.40127 0.73484 0.0
O1913 O 0.70512 0.44512 0.66877 0.0
O1914 O 0.67507 0.45016 0.716 0.0
C1915 C 0.5989 0.46652 0.73351 0.0
N1916 N 0.61095 0.42939 0.74492 0.0
C1917 C 0.56683 0.43336 0.81302 0.0
C1918 C 0.55666 0.47258 0.79888 0.0
C1919 C 0.57127 0.48865 0.76083 0.0
C1920 C 0.59317 0.40943 0.79052 0.0
H1921 H 0.60792 0.47706 0.71086 0.0
C1922 C 0.68755 0.46218 0.68972 0.0
O1923 O 0.74308 0.38729 0.63784 0.0
O1924 O 0.68672 0.38476 0.62803 0.0
N1925 N 0.66587 0.38056 0.79201 0.0
C1926 C 0.67914 0.34531 0.79035 0.0
C1927 C 0.63283 0.31241 0.81892 0.0
C1928 C 0.60017 0.33038 0.8334 0.0
C1929 C 0.59469 0.3677 0.83149 0.0
C1930 C 0.61915 0.39027 0.81184 0.0
H1931 H 0.70222 0.33929 0.7757 0.0
O1932 O 0.69432 0.34772 0.68105 0.0
O1933 O 0.66591 0.38924 0.702 0.0
O1934 O 0.74634 0.39612 0.70481 0.0
O1935 O 0.72069 0.40633 0.75183 0.0
C1936 C 0.56495 0.38333 0.84657 0.0
C1937 C 0.55488 0.41687 0.84096 0.0
H1938 H 0.54293 0.48859 0.81517 0.0
H1939 H 0.56038 0.51141 0.75361 0.0
H1940 H 0.63033 0.28593 0.82304 0.0
H1941 H 0.58016 0.31552 0.84468 0.0
H1942 H 0.54904 0.36934 0.86327 0.0
H1943 H 0.53485 0.42803 0.85596 0.0
Mn1944 Mn 0.32539 0.3944 0.31285 0.0
Mn1945 Mn 0.36414 0.41279 0.23928 0.0
C1946 C 0.36676 0.35863 0.29064 0.0
C1947 C 0.31394 0.37785 0.36614 0.0
C1948 C 0.28419 0.40127 0.25012 0.0
O1949 O 0.32734 0.44514 0.31619 0.0
O1950 O 0.35738 0.45016 0.26896 0.0
C1951 C 0.43357 0.46651 0.25154 0.0
N1952 N 0.42152 0.4294 0.24008 0.0
C1953 C 0.46568 0.43342 0.17202 0.0
C1954 C 0.47585 0.47263 0.18619 0.0
C1955 C 0.46122 0.48867 0.22425 0.0
C1956 C 0.43933 0.40947 0.19447 0.0
H1957 H 0.42453 0.47704 0.27419 0.0
C1958 C 0.3449 0.46219 0.29524 0.0
O1959 O 0.28938 0.3873 0.34712 0.0
O1960 O 0.34574 0.38476 0.35693 0.0
N1961 N 0.36663 0.38061 0.19293 0.0
C1962 C 0.35335 0.34536 0.19456 0.0
C1963 C 0.39968 0.31247 0.16599 0.0
C1964 C 0.43234 0.33045 0.15153 0.0
C1965 C 0.43783 0.36778 0.15347 0.0
C1966 C 0.41335 0.39033 0.17313 0.0
H1967 H 0.33026 0.33933 0.2092 0.0
O1968 O 0.33815 0.34773 0.3039 0.0
O1969 O 0.36655 0.38925 0.28297 0.0
O1970 O 0.28613 0.39614 0.28015 0.0
O1971 O 0.31178 0.40633 0.23312 0.0
C1972 C 0.46756 0.38342 0.1384 0.0
C1973 C 0.47763 0.41696 0.14405 0.0
H1974 H 0.48959 0.48865 0.16993 0.0
H1975 H 0.47212 0.5114 0.23151 0.0
H1976 H 0.40218 0.286 0.16185 0.0
H1977 H 0.45236 0.3156 0.14026 0.0
H1978 H 0.48345 0.36945 0.12168 0.0
H1979 H 0.49766 0.42814 0.12906 0.0
Mn1980 Mn 0.70708 0.59053 0.31282 0.0
Mn1981 Mn 0.66833 0.57213 0.23925 0.0
C1982 C 0.6657 0.62629 0.2906 0.0
C1983 C 0.71852 0.60708 0.36611 0.0
C1984 C 0.74828 0.58365 0.25009 0.0
O1985 O 0.70513 0.5398 0.31616 0.0
O1986 O 0.67508 0.53476 0.26893 0.0
C1987 C 0.5989 0.5184 0.25146 0.0
N1988 N 0.61095 0.55552 0.24003 0.0
C1989 C 0.56681 0.55153 0.17195 0.0
C1990 C 0.55664 0.51231 0.18611 0.0
C1991 C 0.57126 0.49626 0.22416 0.0
C1992 C 0.59316 0.57547 0.19442 0.0
H1993 H 0.60793 0.50787 0.27412 0.0
C1994 C 0.68756 0.52274 0.29521 0.0
O1995 O 0.74308 0.59764 0.34708 0.0
O1996 O 0.68673 0.60016 0.3569 0.0
N1997 N 0.66585 0.60433 0.1929 0.0
C1998 C 0.67913 0.63958 0.19455 0.0
C1999 C 0.63281 0.67247 0.16599 0.0
C2000 C 0.60015 0.6545 0.15151 0.0
C2001 C 0.59466 0.61717 0.15344 0.0
C2002 C 0.61913 0.59462 0.17309 0.0
H2003 H 0.70222 0.64561 0.2092 0.0
O2004 O 0.69432 0.6372 0.30387 0.0
O2005 O 0.66592 0.59567 0.28293 0.0
O2006 O 0.74634 0.5888 0.28011 0.0
O2007 O 0.72069 0.57858 0.23309 0.0
C2008 C 0.56493 0.60154 0.13836 0.0
C2009 C 0.55486 0.568 0.14399 0.0
H2010 H 0.5429 0.49629 0.16983 0.0
H2011 H 0.56036 0.47351 0.2314 0.0
H2012 H 0.63031 0.69895 0.16185 0.0
H2013 H 0.58013 0.66935 0.14024 0.0
H2014 H 0.54903 0.61552 0.12165 0.0
H2015 H 0.53483 0.55683 0.129 0.0
Mn2016 Mn 0.20919 0.80531 0.56554 0.0
Mn2017 Mn 0.17196 0.73992 0.53554 0.0
C2018 C 0.16083 0.78331 0.58957 0.0
C2019 C 0.2251 0.84873 0.59868 0.0
C2020 C 0.18227 0.79815 0.498 0.0
O2021 O 0.2522 0.77888 0.55636 0.0
O2022 O 0.22308 0.74226 0.52348 0.0
C2023 C 0.20527 0.67603 0.5468 0.0
N2024 N 0.17829 0.69684 0.55349 0.0
C2025 C 0.14117 0.65073 0.56651 0.0
C2026 C 0.16953 0.62957 0.56226 0.0
C2027 C 0.20179 0.64231 0.55241 0.0
C2028 C 0.14662 0.68438 0.56159 0.0
H2029 H 0.22812 0.68436 0.53422 0.0
C2030 C 0.25089 0.75306 0.53803 0.0
O2031 O 0.22736 0.85104 0.56736 0.0
O2032 O 0.22071 0.81959 0.61095 0.0
N2033 N 0.12451 0.73607 0.54993 0.0
C2034 C 0.09969 0.75991 0.5532 0.0
C2035 C 0.06768 0.75229 0.56831 0.0
C2036 C 0.06037 0.71959 0.57672 0.0
C2037 C 0.08564 0.69548 0.57137 0.0
C2038 C 0.11868 0.70553 0.56108 0.0
H2039 H 0.10476 0.78472 0.54534 0.0
O2040 O 0.16041 0.81381 0.5799 0.0
O2041 O 0.18338 0.76412 0.57588 0.0
O2042 O 0.20612 0.80893 0.51549 0.0
O2043 O 0.15991 0.78025 0.51173 0.0
C2044 C 0.07941 0.66194 0.57591 0.0
C2045 C 0.10711 0.63941 0.57301 0.0
H2046 H 0.16632 0.60336 0.56479 0.0
H2047 H 0.22333 0.62595 0.54714 0.0
H2048 H 0.04835 0.77124 0.57201 0.0
H2049 H 0.03546 0.71297 0.58725 0.0
H2050 H 0.05339 0.6534 0.58164 0.0
H2051 H 0.10203 0.6135 0.57607 0.0
Mn2052 Mn 0.20919 0.17962 0.41938 0.0
Mn2053 Mn 0.17196 0.24502 0.44937 0.0
C2054 C 0.16082 0.20162 0.39535 0.0
C2055 C 0.2251 0.1362 0.38624 0.0
C2056 C 0.18227 0.18681 0.48692 0.0
O2057 O 0.2522 0.20605 0.42855 0.0
O2058 O 0.22308 0.24269 0.46141 0.0
C2059 C 0.20526 0.30891 0.43807 0.0
N2060 N 0.17828 0.2881 0.4314 0.0
C2061 C 0.14115 0.33421 0.4184 0.0
C2062 C 0.1695 0.35537 0.42264 0.0
C2063 C 0.20177 0.34264 0.43247 0.0
C2064 C 0.1466 0.30056 0.42331 0.0
H2065 H 0.22812 0.30058 0.45064 0.0
C2066 C 0.2509 0.23188 0.44687 0.0
O2067 O 0.22736 0.13389 0.41756 0.0
O2068 O 0.22071 0.16534 0.37396 0.0
N2069 N 0.1245 0.24886 0.43498 0.0
C2070 C 0.09969 0.22502 0.43174 0.0
C2071 C 0.06767 0.23263 0.41663 0.0
C2072 C 0.06035 0.26533 0.40821 0.0
C2073 C 0.08562 0.28944 0.41355 0.0
C2074 C 0.11867 0.2794 0.42382 0.0
H2075 H 0.10476 0.20021 0.4396 0.0
O2076 O 0.16041 0.17112 0.40502 0.0
O2077 O 0.18337 0.22082 0.40903 0.0
O2078 O 0.20612 0.17602 0.46943 0.0
O2079 O 0.15991 0.2047 0.47318 0.0
C2080 C 0.07938 0.32298 0.40902 0.0
C2081 C 0.10708 0.34552 0.41191 0.0
H2082 H 0.16628 0.38158 0.42011 0.0
H2083 H 0.22331 0.359 0.43772 0.0
H2084 H 0.04834 0.21368 0.41294 0.0
H2085 H 0.03544 0.27194 0.39769 0.0
H2086 H 0.05336 0.33152 0.4033 0.0
H2087 H 0.10199 0.37143 0.40886 0.0
Mn2088 Mn 0.32537 0.67208 0.3944 0.0
Mn2089 Mn 0.36414 0.74564 0.41279 0.0
C2090 C 0.36675 0.69429 0.35863 0.0
C2091 C 0.31391 0.61879 0.37784 0.0
C2092 C 0.28419 0.73482 0.40128 0.0
O2093 O 0.32733 0.66874 0.44513 0.0
O2094 O 0.35738 0.71596 0.45016 0.0
C2095 C 0.43358 0.73336 0.4665 0.0
N2096 N 0.42153 0.74482 0.4294 0.0
C2097 C 0.4657 0.81288 0.43342 0.0
C2098 C 0.47587 0.79868 0.47263 0.0
C2099 C 0.46123 0.76063 0.48866 0.0
C2100 C 0.43934 0.79043 0.40947 0.0
H2101 H 0.42453 0.7107 0.47702 0.0
C2102 C 0.3449 0.68969 0.46219 0.0
O2103 O 0.28936 0.63782 0.38729 0.0
O2104 O 0.34571 0.62799 0.38476 0.0
N2105 N 0.36664 0.792 0.38061 0.0
C2106 C 0.35336 0.79037 0.34536 0.0
C2107 C 0.39969 0.81893 0.31248 0.0
C2108 C 0.43236 0.83338 0.33046 0.0
C2109 C 0.43785 0.83144 0.36779 0.0
C2110 C 0.41337 0.81178 0.39034 0.0
H2111 H 0.33026 0.77574 0.33934 0.0
O2112 O 0.33813 0.68103 0.34772 0.0
O2113 O 0.36654 0.70196 0.38925 0.0
O2114 O 0.28612 0.70479 0.39614 0.0
O2115 O 0.31178 0.75181 0.40633 0.0
C2116 C 0.46758 0.8465 0.38343 0.0
C2117 C 0.47766 0.84084 0.41697 0.0
H2118 H 0.48963 0.81494 0.48865 0.0
H2119 H 0.47215 0.75336 0.51139 0.0
H2120 H 0.40219 0.82308 0.28601 0.0
H2121 H 0.45238 0.84465 0.31561 0.0
H2122 H 0.48347 0.86323 0.36946 0.0
H2123 H 0.49768 0.85583 0.42815 0.0
Mn2124 Mn 0.82327 0.80529 0.41939 0.0
Mn2125 Mn 0.8605 0.73988 0.44937 0.0
C2126 C 0.87163 0.78328 0.39535 0.0
C2127 C 0.80737 0.84873 0.38626 0.0
C2128 C 0.85019 0.7981 0.48692 0.0
O2129 O 0.78025 0.77886 0.42856 0.0
O2130 O 0.80937 0.74222 0.46141 0.0
C2131 C 0.82719 0.67599 0.43807 0.0
N2132 N 0.85417 0.69681 0.4314 0.0
C2133 C 0.89129 0.65069 0.41836 0.0
C2134 C 0.86293 0.62954 0.42261 0.0
C2135 C 0.83067 0.64227 0.43246 0.0
C2136 C 0.88584 0.68434 0.42329 0.0
H2137 H 0.80433 0.68432 0.45065 0.0
C2138 C 0.78156 0.75303 0.44688 0.0
O2139 O 0.80511 0.85102 0.41758 0.0
O2140 O 0.81175 0.81959 0.37398 0.0
N2141 N 0.90795 0.73604 0.43498 0.0
C2142 C 0.93277 0.75987 0.43173 0.0
C2143 C 0.96479 0.75226 0.41663 0.0
C2144 C 0.9721 0.71956 0.4082 0.0
C2145 C 0.94683 0.69546 0.41353 0.0
C2146 C 0.91378 0.7055 0.42381 0.0
H2147 H 0.9277 0.78468 0.4396 0.0
O2148 O 0.87205 0.81378 0.40503 0.0
O2149 O 0.84908 0.76409 0.40904 0.0
O2150 O 0.82634 0.80889 0.46944 0.0
O2151 O 0.87255 0.7802 0.47319 0.0
C2152 C 0.95305 0.66191 0.40897 0.0
C2153 C 0.92535 0.63938 0.41185 0.0
H2154 H 0.86614 0.60332 0.42007 0.0
H2155 H 0.80913 0.62591 0.43772 0.0
H2156 H 0.98412 0.77121 0.41294 0.0
H2157 H 0.99701 0.71295 0.39768 0.0
H2158 H 0.97907 0.65337 0.40323 0.0
H2159 H 0.93043 0.61347 0.40878 0.0
Mn2160 Mn 0.70709 0.31285 0.3944 0.0
Mn2161 Mn 0.66833 0.23929 0.4128 0.0
C2162 C 0.66571 0.29063 0.35863 0.0
C2163 C 0.71854 0.36614 0.37784 0.0
C2164 C 0.74828 0.25011 0.40128 0.0
O2165 O 0.70513 0.3162 0.44513 0.0
O2166 O 0.67508 0.26897 0.45016 0.0
C2167 C 0.59889 0.25154 0.46651 0.0
N2168 N 0.61094 0.24009 0.4294 0.0
C2169 C 0.56678 0.17202 0.43341 0.0
C2170 C 0.55661 0.1862 0.47262 0.0
C2171 C 0.57124 0.22425 0.48866 0.0
C2172 C 0.59314 0.19448 0.40946 0.0
H2173 H 0.60792 0.2742 0.47704 0.0
C2174 C 0.68756 0.29525 0.46219 0.0
O2175 O 0.74309 0.34711 0.38729 0.0
O2176 O 0.68674 0.35693 0.38475 0.0
N2177 N 0.66584 0.19294 0.38061 0.0
C2178 C 0.67912 0.19457 0.34536 0.0
C2179 C 0.6328 0.166 0.31247 0.0
C2180 C 0.60013 0.15155 0.33044 0.0
C2181 C 0.59464 0.15348 0.36777 0.0
C2182 C 0.61911 0.17314 0.39032 0.0
H2183 H 0.70222 0.20921 0.33933 0.0
O2184 O 0.69433 0.30389 0.34772 0.0
O2185 O 0.66592 0.28297 0.38925 0.0
O2186 O 0.74634 0.28014 0.39614 0.0
O2187 O 0.72069 0.23312 0.40634 0.0
C2188 C 0.56491 0.13841 0.3834 0.0
C2189 C 0.55483 0.14406 0.41695 0.0
H2190 H 0.54286 0.16994 0.48864 0.0
H2191 H 0.56033 0.23151 0.51139 0.0
H2192 H 0.6303 0.16186 0.286 0.0
H2193 H 0.58011 0.14028 0.31559 0.0
H2194 H 0.54901 0.1217 0.36943 0.0
H2195 H 0.5348 0.12907 0.42812 0.0
Mn2196 Mn 0.82324 0.17964 0.56553 0.0
Mn2197 Mn 0.86048 0.24503 0.53554 0.0
C2198 C 0.8716 0.20165 0.58957 0.0
C2199 C 0.80733 0.13621 0.59865 0.0
C2200 C 0.85018 0.1868 0.498 0.0
O2201 O 0.78023 0.20607 0.55636 0.0
O2202 O 0.80936 0.2427 0.52349 0.0
C2203 C 0.82718 0.30893 0.54682 0.0
N2204 N 0.85416 0.28811 0.5535 0.0
C2205 C 0.89127 0.33423 0.56652 0.0
C2206 C 0.86292 0.35538 0.56228 0.0
C2207 C 0.83065 0.34265 0.55243 0.0
C2208 C 0.88583 0.30058 0.5616 0.0
H2209 H 0.80432 0.3006 0.53423 0.0
C2210 C 0.78155 0.2319 0.53803 0.0
O2211 O 0.80507 0.13391 0.56734 0.0
O2212 O 0.81171 0.16535 0.61094 0.0
N2213 N 0.90793 0.24888 0.54994 0.0
C2214 C 0.93275 0.22504 0.55321 0.0
C2215 C 0.96476 0.23266 0.56832 0.0
C2216 C 0.97208 0.26536 0.57672 0.0
C2217 C 0.94681 0.28947 0.57137 0.0
C2218 C 0.91377 0.27942 0.56109 0.0
H2219 H 0.92767 0.20023 0.54535 0.0
O2220 O 0.87202 0.17114 0.57991 0.0
O2221 O 0.84905 0.22084 0.57588 0.0
O2222 O 0.82632 0.17603 0.51549 0.0
O2223 O 0.87254 0.2047 0.51173 0.0
C2224 C 0.95304 0.32301 0.57592 0.0
C2225 C 0.92533 0.34554 0.57304 0.0
H2226 H 0.86613 0.3816 0.56481 0.0
H2227 H 0.80912 0.35901 0.54716 0.0
H2228 H 0.98409 0.21371 0.57202 0.0
H2229 H 0.99699 0.27197 0.58725 0.0
H2230 H 0.97905 0.33155 0.58166 0.0
H2231 H 0.93041 0.37145 0.5761 0.0
Mn2232 Mn 0.32539 0.31283 0.59052 0.0
Mn2233 Mn 0.36413 0.23926 0.57215 0.0
C2234 C 0.36676 0.29062 0.62629 0.0
C2235 C 0.31394 0.36612 0.60707 0.0
C2236 C 0.28419 0.2501 0.58366 0.0
O2237 O 0.32734 0.31616 0.53979 0.0
O2238 O 0.35739 0.26893 0.53477 0.0
C2239 C 0.43357 0.25146 0.51842 0.0
N2240 N 0.42152 0.24003 0.55553 0.0
C2241 C 0.46566 0.17195 0.55155 0.0
C2242 C 0.47582 0.18611 0.51233 0.0
C2243 C 0.4612 0.22416 0.49627 0.0
C2244 C 0.43931 0.19443 0.57549 0.0
H2245 H 0.42454 0.27411 0.50788 0.0
C2246 C 0.34491 0.29521 0.52274 0.0
O2247 O 0.28938 0.34709 0.59762 0.0
O2248 O 0.34574 0.35692 0.60015 0.0
N2249 N 0.36661 0.19292 0.60435 0.0
C2250 C 0.35334 0.19457 0.63961 0.0
C2251 C 0.39965 0.16601 0.6725 0.0
C2252 C 0.43231 0.15153 0.65453 0.0
C2253 C 0.4378 0.15345 0.6172 0.0
C2254 C 0.41333 0.1731 0.59464 0.0
H2255 H 0.33025 0.20922 0.64563 0.0
O2256 O 0.33814 0.30389 0.6372 0.0
O2257 O 0.36655 0.28295 0.59568 0.0
O2258 O 0.28613 0.28013 0.58879 0.0
O2259 O 0.31178 0.2331 0.5786 0.0
C2260 C 0.46753 0.13837 0.60157 0.0
C2261 C 0.47761 0.144 0.56803 0.0
H2262 H 0.48956 0.16982 0.49632 0.0
H2263 H 0.4721 0.23139 0.47353 0.0
H2264 H 0.40215 0.16188 0.69897 0.0
H2265 H 0.45233 0.14025 0.66938 0.0
H2266 H 0.48344 0.12167 0.61555 0.0
H2267 H 0.49764 0.129 0.55686 0.0
Mn2268 Mn 0.70707 0.67209 0.59052 0.0
Mn2269 Mn 0.66834 0.74567 0.57213 0.0
C2270 C 0.6657 0.69431 0.62628 0.0
C2271 C 0.7185 0.6188 0.60707 0.0
C2272 C 0.74828 0.73482 0.58366 0.0
O2273 O 0.70512 0.66876 0.53979 0.0
O2274 O 0.67507 0.71599 0.53476 0.0
C2275 C 0.5989 0.73349 0.5184 0.0
N2276 N 0.61095 0.74491 0.55552 0.0
C2277 C 0.56683 0.813 0.55155 0.0
C2278 C 0.55666 0.79886 0.51233 0.0
C2279 C 0.57127 0.76081 0.49626 0.0
C2280 C 0.59317 0.79052 0.57548 0.0
H2281 H 0.60793 0.71084 0.50786 0.0
C2282 C 0.68756 0.68971 0.52273 0.0
O2283 O 0.74306 0.63782 0.59763 0.0
O2284 O 0.6867 0.62801 0.60015 0.0
N2285 N 0.66587 0.79201 0.60435 0.0
C2286 C 0.67914 0.79035 0.6396 0.0
C2287 C 0.63283 0.81892 0.6725 0.0
C2288 C 0.60017 0.8334 0.65453 0.0
C2289 C 0.59469 0.83149 0.6172 0.0
C2290 C 0.61915 0.81183 0.59464 0.0
H2291 H 0.70223 0.7757 0.64562 0.0
O2292 O 0.69431 0.68104 0.63719 0.0
O2293 O 0.66591 0.70199 0.59567 0.0
O2294 O 0.74634 0.70479 0.58879 0.0
O2295 O 0.72069 0.75182 0.57859 0.0
C2296 C 0.56496 0.84657 0.60158 0.0
C2297 C 0.55488 0.84095 0.56803 0.0
H2298 H 0.54293 0.81515 0.49632 0.0
H2299 H 0.56038 0.75358 0.47351 0.0
H2300 H 0.63033 0.82305 0.69897 0.0
H2301 H 0.58016 0.84468 0.66939 0.0
H2302 H 0.54905 0.86327 0.61556 0.0
H2303 H 0.53485 0.85595 0.55686 0.0
Mn2304 Mn 0.20708 0.39437 0.17212 0.0
Mn2305 Mn 0.16833 0.41279 0.24569 0.0
C2306 C 0.16571 0.35864 0.19432 0.0
C2307 C 0.21852 0.37783 0.11885 0.0
C2308 C 0.24828 0.40126 0.23485 0.0
O2309 O 0.20513 0.4451 0.16878 0.0
O2310 O 0.17506 0.45016 0.21601 0.0
C2311 C 0.09889 0.46652 0.23353 0.0
N2312 N 0.11095 0.4294 0.24494 0.0
C2313 C 0.06682 0.43335 0.31303 0.0
C2314 C 0.05665 0.47257 0.2989 0.0
C2315 C 0.07126 0.48865 0.26085 0.0
C2316 C 0.09317 0.40942 0.29053 0.0
H2317 H 0.10792 0.47707 0.21088 0.0
C2318 C 0.18755 0.46217 0.18972 0.0
O2319 O 0.24309 0.38727 0.13786 0.0
O2320 O 0.18672 0.38475 0.12804 0.0
N2321 N 0.16587 0.38056 0.29202 0.0
C2322 C 0.17914 0.34531 0.29035 0.0
C2323 C 0.13284 0.3124 0.31891 0.0
C2324 C 0.10018 0.33036 0.3334 0.0
C2325 C 0.09469 0.36769 0.33149 0.0
C2326 C 0.11915 0.39026 0.31185 0.0
H2327 H 0.20223 0.3393 0.2757 0.0
O2328 O 0.19431 0.34769 0.18106 0.0
O2329 O 0.16591 0.38925 0.20201 0.0
O2330 O 0.24634 0.39609 0.20483 0.0
O2331 O 0.22069 0.40636 0.25184 0.0
C2332 C 0.06495 0.38331 0.34658 0.0
C2333 C 0.05487 0.41686 0.34097 0.0
H2334 H 0.04293 0.48858 0.3152 0.0
H2335 H 0.06038 0.51141 0.25364 0.0
H2336 H 0.13034 0.28593 0.32303 0.0
H2337 H 0.08017 0.3155 0.34467 0.0
H2338 H 0.04904 0.36932 0.36327 0.0
H2339 H 0.03484 0.42801 0.35597 0.0
Mn2340 Mn 0.82537 0.59055 0.17207 0.0
Mn2341 Mn 0.86414 0.57213 0.24562 0.0
C2342 C 0.86674 0.62629 0.19428 0.0
C2343 C 0.81391 0.6071 0.11881 0.0
C2344 C 0.78419 0.58365 0.23481 0.0
O2345 O 0.82732 0.53981 0.16872 0.0
O2346 O 0.85739 0.53476 0.21594 0.0
C2347 C 0.93359 0.51842 0.23335 0.0
N2348 N 0.92153 0.55553 0.24481 0.0
C2349 C 0.96571 0.55152 0.31286 0.0
C2350 C 0.97588 0.51231 0.29868 0.0
C2351 C 0.96124 0.49627 0.26062 0.0
C2352 C 0.93934 0.57546 0.29041 0.0
H2353 H 0.92454 0.5079 0.21069 0.0
C2354 C 0.8449 0.52275 0.18966 0.0
O2355 O 0.78935 0.59766 0.13783 0.0
O2356 O 0.84572 0.60019 0.12799 0.0
N2357 N 0.86664 0.60431 0.29198 0.0
C2358 C 0.85336 0.63956 0.29035 0.0
C2359 C 0.89968 0.67245 0.31891 0.0
C2360 C 0.93235 0.65447 0.33336 0.0
C2361 C 0.93785 0.61715 0.33142 0.0
C2362 C 0.91337 0.5946 0.31176 0.0
H2363 H 0.83026 0.64558 0.27572 0.0
O2364 O 0.83813 0.63723 0.18102 0.0
O2365 O 0.86655 0.59568 0.20195 0.0
O2366 O 0.78613 0.58881 0.20479 0.0
O2367 O 0.81179 0.57857 0.2518 0.0
C2368 C 0.96758 0.60151 0.34648 0.0
C2369 C 0.97767 0.56797 0.34082 0.0
H2370 H 0.98964 0.49629 0.31493 0.0
H2371 H 0.97216 0.47354 0.25336 0.0
H2372 H 0.90218 0.69892 0.32305 0.0
H2373 H 0.95237 0.66933 0.34463 0.0
H2374 H 0.98348 0.61548 0.3632 0.0
H2375 H 0.9977 0.5568 0.35581 0.0
Mn2376 Mn 0.82538 0.39438 0.81284 0.0
Mn2377 Mn 0.86414 0.4128 0.73928 0.0
C2378 C 0.86675 0.35864 0.79063 0.0
C2379 C 0.81394 0.37783 0.86611 0.0
C2380 C 0.78419 0.40126 0.7501 0.0
O2381 O 0.82732 0.44512 0.81618 0.0
O2382 O 0.85739 0.45017 0.76896 0.0
C2383 C 0.93357 0.46652 0.75152 0.0
N2384 N 0.92152 0.42941 0.74007 0.0
C2385 C 0.96569 0.43341 0.67201 0.0
C2386 C 0.97585 0.47262 0.68618 0.0
C2387 C 0.96122 0.48867 0.72423 0.0
C2388 C 0.93933 0.40946 0.69447 0.0
H2389 H 0.92453 0.47705 0.77417 0.0
C2390 C 0.8449 0.46218 0.79524 0.0
O2391 O 0.78937 0.38727 0.84709 0.0
O2392 O 0.84574 0.38475 0.85692 0.0
N2393 N 0.86663 0.38061 0.69293 0.0
C2394 C 0.85335 0.34536 0.69456 0.0
C2395 C 0.89967 0.31247 0.666 0.0
C2396 C 0.93234 0.33044 0.65154 0.0
C2397 C 0.93783 0.36777 0.65347 0.0
C2398 C 0.91336 0.39032 0.67313 0.0
H2399 H 0.83025 0.33934 0.7092 0.0
O2400 O 0.83815 0.3477 0.8039 0.0
O2401 O 0.86655 0.38926 0.78296 0.0
O2402 O 0.78613 0.3961 0.78013 0.0
O2403 O 0.81178 0.40635 0.73311 0.0
C2404 C 0.96756 0.3834 0.6384 0.0
C2405 C 0.97764 0.41694 0.64405 0.0
H2406 H 0.9896 0.48864 0.66992 0.0
H2407 H 0.97213 0.5114 0.73149 0.0
H2408 H 0.90217 0.28599 0.66186 0.0
H2409 H 0.95235 0.31558 0.64027 0.0
H2410 H 0.98346 0.36943 0.62168 0.0
H2411 H 0.99767 0.42812 0.62906 0.0
Mn2412 Mn 0.20709 0.59055 0.81281 0.0
Mn2413 Mn 0.16833 0.57212 0.73924 0.0
C2414 C 0.16571 0.62628 0.7906 0.0
C2415 C 0.21852 0.60709 0.86608 0.0
C2416 C 0.24828 0.58365 0.75007 0.0
O2417 O 0.20514 0.53982 0.81614 0.0
O2418 O 0.17507 0.53476 0.76893 0.0
C2419 C 0.09889 0.5184 0.75144 0.0
N2420 N 0.11094 0.55552 0.74002 0.0
C2421 C 0.0668 0.55154 0.67194 0.0
C2422 C 0.05664 0.51232 0.68609 0.0
C2423 C 0.07125 0.49626 0.72414 0.0
C2424 C 0.09316 0.57548 0.69441 0.0
H2425 H 0.10793 0.50786 0.77409 0.0
C2426 C 0.18756 0.52275 0.79521 0.0
O2427 O 0.2431 0.59766 0.84706 0.0
O2428 O 0.18672 0.60018 0.85689 0.0
N2429 N 0.16585 0.60433 0.6929 0.0
C2430 C 0.17913 0.63958 0.69456 0.0
C2431 C 0.13281 0.67248 0.666 0.0
C2432 C 0.10015 0.65452 0.65152 0.0
C2433 C 0.09467 0.61719 0.65344 0.0
C2434 C 0.11913 0.59463 0.67309 0.0
H2435 H 0.20222 0.6456 0.7092 0.0
O2436 O 0.19431 0.63723 0.80386 0.0
O2437 O 0.16592 0.59567 0.78292 0.0
O2438 O 0.24634 0.58883 0.78009 0.0
O2439 O 0.22069 0.57856 0.73308 0.0
C2440 C 0.06493 0.60156 0.63836 0.0
C2441 C 0.05485 0.56802 0.64399 0.0
H2442 H 0.0429 0.49631 0.6698 0.0
H2443 H 0.06036 0.47351 0.73137 0.0
H2444 H 0.13032 0.69896 0.66187 0.0
H2445 H 0.08014 0.66937 0.64025 0.0
H2446 H 0.04903 0.61554 0.62165 0.0
H2447 H 0.03482 0.55685 0.62899 0.0
Mn2448 Mn 0.70921 0.41939 0.30529 0.0
Mn2449 Mn 0.67196 0.44935 0.23988 0.0
C2450 C 0.66083 0.39534 0.28329 0.0
C2451 C 0.72512 0.38627 0.34873 0.0
C2452 C 0.68227 0.48691 0.29809 0.0
O2453 O 0.75222 0.42856 0.27886 0.0
O2454 O 0.72309 0.4614 0.2422 0.0
C2455 C 0.70526 0.43804 0.17599 0.0
N2456 N 0.67828 0.43137 0.19681 0.0
C2457 C 0.64115 0.41838 0.1507 0.0
C2458 C 0.6695 0.42262 0.12954 0.0
C2459 C 0.70177 0.43244 0.14227 0.0
C2460 C 0.6466 0.42329 0.18435 0.0
H2461 H 0.72812 0.45062 0.18432 0.0
C2462 C 0.75091 0.4469 0.25304 0.0
O2463 O 0.72737 0.41758 0.35102 0.0
O2464 O 0.72073 0.37398 0.31959 0.0
N2465 N 0.62451 0.43496 0.23605 0.0
C2466 C 0.59969 0.43172 0.25988 0.0
C2467 C 0.56767 0.41662 0.25227 0.0
C2468 C 0.56035 0.40821 0.21957 0.0
C2469 C 0.58562 0.41355 0.19547 0.0
C2470 C 0.61867 0.42381 0.20551 0.0
H2471 H 0.60478 0.43958 0.2847 0.0
O2472 O 0.66042 0.40501 0.31379 0.0
O2473 O 0.68338 0.40903 0.2641 0.0
O2474 O 0.70612 0.46943 0.3089 0.0
O2475 O 0.65991 0.47319 0.28019 0.0
C2476 C 0.57938 0.40902 0.16192 0.0
C2477 C 0.60708 0.4119 0.13939 0.0
H2478 H 0.66628 0.4201 0.10332 0.0
H2479 H 0.72331 0.4377 0.1259 0.0
H2480 H 0.54835 0.41293 0.27123 0.0
H2481 H 0.53544 0.39769 0.21297 0.0
H2482 H 0.55336 0.4033 0.15338 0.0
H2483 H 0.60199 0.40886 0.11348 0.0
Mn2484 Mn 0.32324 0.56554 0.3053 0.0
Mn2485 Mn 0.36048 0.53558 0.23988 0.0
C2486 C 0.37162 0.58959 0.28329 0.0
C2487 C 0.30733 0.59866 0.34873 0.0
C2488 C 0.35018 0.49802 0.2981 0.0
O2489 O 0.28023 0.55636 0.27887 0.0
O2490 O 0.30935 0.52353 0.24221 0.0
C2491 C 0.32718 0.54689 0.17599 0.0
N2492 N 0.35416 0.55356 0.19681 0.0
C2493 C 0.39129 0.56655 0.15069 0.0
C2494 C 0.36294 0.56231 0.12953 0.0
C2495 C 0.33066 0.55249 0.14227 0.0
C2496 C 0.38584 0.56164 0.18434 0.0
H2497 H 0.30431 0.53432 0.18432 0.0
C2498 C 0.28153 0.53803 0.25305 0.0
O2499 O 0.30508 0.56735 0.35103 0.0
O2500 O 0.31171 0.61095 0.3196 0.0
N2501 N 0.40793 0.54997 0.23604 0.0
C2502 C 0.43275 0.55322 0.25988 0.0
C2503 C 0.46477 0.56832 0.25226 0.0
C2504 C 0.47209 0.57671 0.21956 0.0
C2505 C 0.44682 0.57138 0.19546 0.0
C2506 C 0.41377 0.56112 0.2055 0.0
H2507 H 0.42767 0.54537 0.28469 0.0
O2508 O 0.37202 0.57992 0.31379 0.0
O2509 O 0.34906 0.5759 0.2641 0.0
O2510 O 0.32633 0.5155 0.3089 0.0
O2511 O 0.37253 0.51174 0.28018 0.0
C2512 C 0.45306 0.57591 0.16191 0.0
C2513 C 0.42536 0.57303 0.13938 0.0
H2514 H 0.36615 0.56482 0.10332 0.0
H2515 H 0.30912 0.54723 0.12591 0.0
H2516 H 0.4841 0.57201 0.27122 0.0
H2517 H 0.497 0.58723 0.21295 0.0
H2518 H 0.47908 0.58162 0.15337 0.0
H2519 H 0.43045 0.57607 0.11347 0.0
Mn2520 Mn 0.70917 0.56553 0.67962 0.0
Mn2521 Mn 0.67195 0.53557 0.74505 0.0
C2522 C 0.66079 0.58957 0.70162 0.0
C2523 C 0.72507 0.59866 0.63618 0.0
C2524 C 0.68226 0.49801 0.68684 0.0
O2525 O 0.75219 0.55636 0.70604 0.0
O2526 O 0.72307 0.52353 0.74271 0.0
C2527 C 0.70525 0.54689 0.80893 0.0
N2528 N 0.67827 0.55356 0.78811 0.0
C2529 C 0.64115 0.56657 0.83422 0.0
C2530 C 0.6695 0.56233 0.85538 0.0
C2531 C 0.70177 0.55249 0.84265 0.0
C2532 C 0.6466 0.56165 0.80057 0.0
H2533 H 0.72811 0.53431 0.8006 0.0
C2534 C 0.75089 0.53803 0.73186 0.0
O2535 O 0.72733 0.56734 0.63388 0.0
O2536 O 0.72069 0.61095 0.66532 0.0
N2537 N 0.62449 0.54996 0.74888 0.0
C2538 C 0.59967 0.55319 0.72505 0.0
C2539 C 0.56765 0.56829 0.73266 0.0
C2540 C 0.56034 0.57672 0.76536 0.0
C2541 C 0.58561 0.5714 0.78946 0.0
C2542 C 0.61866 0.56113 0.77942 0.0
H2543 H 0.60475 0.54531 0.70024 0.0
O2544 O 0.66038 0.5799 0.67112 0.0
O2545 O 0.68335 0.57589 0.72081 0.0
O2546 O 0.70609 0.51549 0.67602 0.0
O2547 O 0.6599 0.51172 0.70474 0.0
C2548 C 0.57938 0.57595 0.82301 0.0
C2549 C 0.60708 0.57307 0.84554 0.0
H2550 H 0.66629 0.56486 0.8816 0.0
H2551 H 0.72331 0.54723 0.85901 0.0
H2552 H 0.54832 0.57196 0.7137 0.0
H2553 H 0.53543 0.58724 0.77196 0.0
H2554 H 0.55337 0.58168 0.83155 0.0
H2555 H 0.602 0.57612 0.87145 0.0
Mn2556 Mn 0.32326 0.41938 0.67961 0.0
Mn2557 Mn 0.36049 0.44936 0.74503 0.0
C2558 C 0.37163 0.39534 0.70162 0.0
C2559 C 0.30735 0.38626 0.63617 0.0
C2560 C 0.35019 0.48691 0.6868 0.0
O2561 O 0.28024 0.42856 0.70603 0.0
O2562 O 0.30936 0.46141 0.74269 0.0
C2563 C 0.32717 0.43807 0.80891 0.0
N2564 N 0.35415 0.43139 0.7881 0.0
C2565 C 0.39126 0.41838 0.83422 0.0
C2566 C 0.36291 0.42262 0.85537 0.0
C2567 C 0.33064 0.43247 0.84264 0.0
C2568 C 0.38582 0.4233 0.80057 0.0
H2569 H 0.30432 0.45065 0.80058 0.0
C2570 C 0.28154 0.4469 0.73185 0.0
O2571 O 0.3051 0.41758 0.63387 0.0
O2572 O 0.31173 0.37397 0.66531 0.0
N2573 N 0.40794 0.43496 0.74888 0.0
C2574 C 0.43276 0.4317 0.72505 0.0
C2575 C 0.46477 0.4166 0.73267 0.0
C2576 C 0.47209 0.4082 0.76538 0.0
C2577 C 0.44681 0.41354 0.78947 0.0
C2578 C 0.41377 0.42381 0.77942 0.0
H2579 H 0.42769 0.43956 0.70023 0.0
O2580 O 0.37204 0.40501 0.67112 0.0
O2581 O 0.34907 0.40903 0.72081 0.0
O2582 O 0.32635 0.46942 0.676 0.0
O2583 O 0.37255 0.4732 0.70472 0.0
C2584 C 0.45304 0.40899 0.82302 0.0
C2585 C 0.42532 0.41187 0.84554 0.0
H2586 H 0.36611 0.42009 0.88159 0.0
H2587 H 0.3091 0.43773 0.85899 0.0
H2588 H 0.4841 0.4129 0.71372 0.0
H2589 H 0.49699 0.39768 0.77199 0.0
H2590 H 0.47905 0.40325 0.83157 0.0
H2591 H 0.4304 0.40881 0.87145 0.0
Mn2592 Mn 0.82537 0.17209 0.39437 0.0
Mn2593 Mn 0.86414 0.24565 0.4128 0.0
C2594 C 0.86674 0.1943 0.35864 0.0
C2595 C 0.81391 0.11883 0.37783 0.0
C2596 C 0.78419 0.23484 0.40127 0.0
O2597 O 0.82732 0.16875 0.44511 0.0
O2598 O 0.85739 0.21597 0.45016 0.0
C2599 C 0.93358 0.23337 0.46651 0.0
N2600 N 0.92153 0.24483 0.4294 0.0
C2601 C 0.96571 0.31289 0.43341 0.0
C2602 C 0.97588 0.2987 0.47262 0.0
C2603 C 0.96124 0.26065 0.48866 0.0
C2604 C 0.93934 0.29044 0.40947 0.0
H2605 H 0.92454 0.21072 0.47703 0.0
C2606 C 0.8449 0.18969 0.46217 0.0
O2607 O 0.78935 0.13785 0.38727 0.0
O2608 O 0.84572 0.12801 0.38474 0.0
N2609 N 0.86664 0.292 0.38062 0.0
C2610 C 0.85336 0.29037 0.34537 0.0
C2611 C 0.89969 0.31893 0.31248 0.0
C2612 C 0.93236 0.33338 0.33045 0.0
C2613 C 0.93785 0.33144 0.36778 0.0
C2614 C 0.91337 0.31179 0.39033 0.0
H2615 H 0.83026 0.27574 0.33934 0.0
O2616 O 0.83814 0.18104 0.3477 0.0
O2617 O 0.86654 0.20197 0.38925 0.0
O2618 O 0.78613 0.20481 0.39611 0.0
O2619 O 0.81178 0.25182 0.40636 0.0
C2620 C 0.96758 0.34651 0.38342 0.0
C2621 C 0.97766 0.34085 0.41696 0.0
H2622 H 0.98963 0.31496 0.48865 0.0
H2623 H 0.97215 0.25338 0.51139 0.0
H2624 H 0.90218 0.32307 0.28601 0.0
H2625 H 0.95238 0.34465 0.3156 0.0
H2626 H 0.98348 0.36323 0.36945 0.0
H2627 H 0.99769 0.35584 0.42814 0.0
Mn2628 Mn 0.82538 0.81282 0.59055 0.0
Mn2629 Mn 0.86414 0.73925 0.57214 0.0
C2630 C 0.86675 0.79062 0.62629 0.0
C2631 C 0.81393 0.86609 0.60708 0.0
C2632 C 0.78419 0.75008 0.58366 0.0
O2633 O 0.82733 0.81615 0.53981 0.0
O2634 O 0.8574 0.76893 0.53477 0.0
C2635 C 0.93358 0.75145 0.51841 0.0
N2636 N 0.92152 0.74003 0.55553 0.0
C2637 C 0.96567 0.67195 0.55156 0.0
C2638 C 0.97584 0.6861 0.51234 0.0
C2639 C 0.96121 0.72415 0.49627 0.0
C2640 C 0.93932 0.69443 0.57549 0.0
H2641 H 0.92454 0.7741 0.50787 0.0
C2642 C 0.84491 0.79521 0.52275 0.0
O2643 O 0.78936 0.84707 0.59765 0.0
O2644 O 0.84574 0.8569 0.60017 0.0
N2645 N 0.86662 0.69291 0.60435 0.0
C2646 C 0.85334 0.69457 0.6396 0.0
C2647 C 0.89965 0.66601 0.6725 0.0
C2648 C 0.93232 0.65153 0.65453 0.0
C2649 C 0.93781 0.65345 0.61721 0.0
C2650 C 0.91334 0.6731 0.59464 0.0
H2651 H 0.83025 0.70921 0.64562 0.0
O2652 O 0.83815 0.80388 0.63723 0.0
O2653 O 0.86655 0.78294 0.59567 0.0
O2654 O 0.78613 0.78011 0.58883 0.0
O2655 O 0.81178 0.73309 0.57858 0.0
C2656 C 0.96754 0.63837 0.60158 0.0
C2657 C 0.97762 0.644 0.56804 0.0
H2658 H 0.98957 0.66981 0.49633 0.0
H2659 H 0.9721 0.73138 0.47352 0.0
H2660 H 0.90215 0.66188 0.69897 0.0
H2661 H 0.95233 0.64026 0.66939 0.0
H2662 H 0.98345 0.62167 0.61556 0.0
H2663 H 0.99765 0.629 0.55687 0.0
Mn2664 Mn 0.70919 0.30532 0.56554 0.0
Mn2665 Mn 0.67196 0.2399 0.53556 0.0
C2666 C 0.66082 0.2833 0.58958 0.0
C2667 C 0.7251 0.34874 0.59868 0.0
C2668 C 0.68227 0.29813 0.49802 0.0
O2669 O 0.75221 0.27889 0.55636 0.0
O2670 O 0.72308 0.24224 0.52351 0.0
C2671 C 0.70527 0.17602 0.54685 0.0
N2672 N 0.67829 0.19683 0.55353 0.0
C2673 C 0.64117 0.15071 0.56653 0.0
C2674 C 0.66952 0.12956 0.56228 0.0
C2675 C 0.70179 0.14229 0.55245 0.0
C2676 C 0.64661 0.18436 0.56162 0.0
H2677 H 0.72813 0.18435 0.53427 0.0
C2678 C 0.7509 0.25307 0.53802 0.0
O2679 O 0.72736 0.35105 0.56736 0.0
O2680 O 0.72072 0.3196 0.61096 0.0
N2681 N 0.62451 0.23606 0.54995 0.0
C2682 C 0.59969 0.25989 0.55321 0.0
C2683 C 0.56767 0.25227 0.56831 0.0
C2684 C 0.56036 0.21957 0.57671 0.0
C2685 C 0.58563 0.19547 0.57137 0.0
C2686 C 0.61868 0.20552 0.5611 0.0
H2687 H 0.60477 0.28471 0.54535 0.0
O2688 O 0.66041 0.31381 0.57992 0.0
O2689 O 0.68338 0.26412 0.57589 0.0
O2690 O 0.70611 0.30893 0.5155 0.0
O2691 O 0.65991 0.28022 0.51173 0.0
C2692 C 0.5794 0.16192 0.57591 0.0
C2693 C 0.6071 0.13939 0.57302 0.0
H2694 H 0.66631 0.10334 0.56481 0.0
H2695 H 0.72333 0.12593 0.54718 0.0
H2696 H 0.54835 0.27123 0.57201 0.0
H2697 H 0.53545 0.21296 0.58724 0.0
H2698 H 0.55338 0.15338 0.58163 0.0
H2699 H 0.60202 0.11348 0.57606 0.0
Mn2700 Mn 0.20707 0.1721 0.59055 0.0
Mn2701 Mn 0.16833 0.24568 0.57212 0.0
C2702 C 0.1657 0.19432 0.62628 0.0
C2703 C 0.2185 0.11883 0.60709 0.0
C2704 C 0.24828 0.23483 0.58366 0.0
O2705 O 0.20513 0.16877 0.53981 0.0
O2706 O 0.17507 0.21599 0.53475 0.0
C2707 C 0.09889 0.23351 0.51839 0.0
N2708 N 0.11095 0.24492 0.55551 0.0
C2709 C 0.06682 0.31301 0.55155 0.0
C2710 C 0.05665 0.29887 0.51233 0.0
C2711 C 0.07126 0.26083 0.49626 0.0
C2712 C 0.09317 0.29052 0.57548 0.0
H2713 H 0.10793 0.21086 0.50785 0.0
C2714 C 0.18756 0.18971 0.52274 0.0
O2715 O 0.24308 0.13784 0.59765 0.0
O2716 O 0.1867 0.12803 0.60017 0.0
N2717 N 0.16587 0.29201 0.60435 0.0
C2718 C 0.17914 0.29035 0.6396 0.0
C2719 C 0.13283 0.31891 0.6725 0.0
C2720 C 0.10017 0.3334 0.65454 0.0
C2721 C 0.09468 0.33149 0.61721 0.0
C2722 C 0.11915 0.31184 0.59464 0.0
H2723 H 0.20223 0.2757 0.64561 0.0
O2724 O 0.1943 0.18105 0.63722 0.0
O2725 O 0.16591 0.202 0.59566 0.0
O2726 O 0.24633 0.20481 0.58883 0.0
O2727 O 0.22069 0.25183 0.57857 0.0
C2728 C 0.06495 0.34657 0.60159 0.0
C2729 C 0.05487 0.34096 0.56804 0.0
H2730 H 0.04293 0.31517 0.49632 0.0
H2731 H 0.06038 0.2536 0.4735 0.0
H2732 H 0.13034 0.32304 0.69897 0.0
H2733 H 0.08016 0.34467 0.6694 0.0
H2734 H 0.04904 0.36327 0.61557 0.0
H2735 H 0.03484 0.35596 0.55688 0.0
Mn2736 Mn 0.32324 0.67964 0.56554 0.0
Mn2737 Mn 0.36048 0.74506 0.53557 0.0
C2738 C 0.37161 0.70165 0.58959 0.0
C2739 C 0.30733 0.6362 0.59865 0.0
C2740 C 0.35018 0.68683 0.49802 0.0
O2741 O 0.28023 0.70607 0.55635 0.0
O2742 O 0.30936 0.74272 0.52351 0.0
C2743 C 0.32717 0.80894 0.54687 0.0
N2744 N 0.35416 0.78813 0.55354 0.0
C2745 C 0.39128 0.83424 0.56655 0.0
C2746 C 0.36292 0.8554 0.56231 0.0
C2747 C 0.33066 0.84266 0.55247 0.0
C2748 C 0.38583 0.80059 0.56163 0.0
H2749 H 0.30432 0.80061 0.53429 0.0
C2750 C 0.28153 0.73189 0.53802 0.0
O2751 O 0.30508 0.63391 0.56733 0.0
O2752 O 0.31171 0.66534 0.61094 0.0
N2753 N 0.40793 0.74889 0.54996 0.0
C2754 C 0.43275 0.72506 0.55322 0.0
C2755 C 0.46477 0.73267 0.56832 0.0
C2756 C 0.47209 0.76538 0.57672 0.0
C2757 C 0.44682 0.78948 0.57138 0.0
C2758 C 0.41377 0.77944 0.56111 0.0
H2759 H 0.42767 0.70024 0.54537 0.0
O2760 O 0.37202 0.67115 0.57992 0.0
O2761 O 0.34905 0.72083 0.57589 0.0
O2762 O 0.32633 0.67603 0.5155 0.0
O2763 O 0.37254 0.70474 0.51173 0.0
C2764 C 0.45305 0.82303 0.57593 0.0
C2765 C 0.42534 0.84556 0.57305 0.0
H2766 H 0.36614 0.88161 0.56483 0.0
H2767 H 0.30912 0.85903 0.54721 0.0
H2768 H 0.4841 0.71372 0.57202 0.0
H2769 H 0.497 0.77199 0.58724 0.0
H2770 H 0.47906 0.83157 0.58165 0.0
H2771 H 0.43043 0.87147 0.5761 0.0
Mn2772 Mn 0.20709 0.81284 0.39437 0.0
Mn2773 Mn 0.16833 0.73928 0.4128 0.0
C2774 C 0.16572 0.79062 0.35864 0.0
C2775 C 0.21854 0.8661 0.37782 0.0
C2776 C 0.24828 0.7501 0.40127 0.0
O2777 O 0.20514 0.81618 0.44511 0.0
O2778 O 0.17507 0.76897 0.45017 0.0
C2779 C 0.09888 0.75152 0.46652 0.0
N2780 N 0.11094 0.74007 0.42941 0.0
C2781 C 0.06678 0.672 0.4334 0.0
C2782 C 0.05661 0.68617 0.47261 0.0
C2783 C 0.07123 0.72423 0.48866 0.0
C2784 C 0.09314 0.69447 0.40946 0.0
H2785 H 0.10792 0.77417 0.47705 0.0
C2786 C 0.18756 0.79525 0.46218 0.0
O2787 O 0.24311 0.84708 0.38726 0.0
O2788 O 0.18673 0.85692 0.38474 0.0
N2789 N 0.16584 0.69293 0.38061 0.0
C2790 C 0.17912 0.69457 0.34536 0.0
C2791 C 0.13281 0.66601 0.31246 0.0
C2792 C 0.10014 0.65155 0.33043 0.0
C2793 C 0.09465 0.65348 0.36776 0.0
C2794 C 0.11911 0.67313 0.39032 0.0
H2795 H 0.20222 0.7092 0.33934 0.0
O2796 O 0.19432 0.80388 0.3477 0.0
O2797 O 0.16592 0.78295 0.38925 0.0
O2798 O 0.24634 0.78012 0.3961 0.0
O2799 O 0.22069 0.73311 0.40636 0.0
C2800 C 0.06491 0.63841 0.38339 0.0
C2801 C 0.05483 0.64405 0.41693 0.0
H2802 H 0.04286 0.66991 0.48863 0.0
H2803 H 0.06033 0.73148 0.5114 0.0
H2804 H 0.13031 0.66187 0.28599 0.0
H2805 H 0.08012 0.64028 0.31558 0.0
H2806 H 0.04901 0.62169 0.36941 0.0
H2807 H 0.03479 0.62906 0.4281 0.0
Mn2808 Mn 0.70919 0.67962 0.41937 0.0
Mn2809 Mn 0.67196 0.74504 0.44934 0.0
C2810 C 0.66081 0.70163 0.39533 0.0
C2811 C 0.7251 0.63619 0.38625 0.0
C2812 C 0.68227 0.68683 0.4869 0.0
O2813 O 0.75221 0.70604 0.42855 0.0
O2814 O 0.72309 0.74272 0.46138 0.0
C2815 C 0.70526 0.80893 0.43802 0.0
N2816 N 0.67828 0.78811 0.43135 0.0
C2817 C 0.64114 0.83422 0.41837 0.0
C2818 C 0.66949 0.85538 0.42261 0.0
C2819 C 0.70177 0.84265 0.43243 0.0
C2820 C 0.6466 0.80057 0.42328 0.0
H2821 H 0.72813 0.8006 0.45058 0.0
C2822 C 0.75091 0.73187 0.44689 0.0
O2823 O 0.72735 0.63389 0.41757 0.0
O2824 O 0.72071 0.66533 0.37396 0.0
N2825 N 0.6245 0.74887 0.43496 0.0
C2826 C 0.59969 0.72504 0.43172 0.0
C2827 C 0.56766 0.73265 0.41663 0.0
C2828 C 0.56034 0.76534 0.40821 0.0
C2829 C 0.58561 0.78945 0.41354 0.0
C2830 C 0.61866 0.77941 0.4238 0.0
H2831 H 0.60477 0.70023 0.43959 0.0
O2832 O 0.66041 0.67113 0.405 0.0
O2833 O 0.68337 0.72081 0.40902 0.0
O2834 O 0.70611 0.67602 0.46942 0.0
O2835 O 0.65991 0.70474 0.47319 0.0
C2836 C 0.57937 0.823 0.40901 0.0
C2837 C 0.60707 0.84553 0.4119 0.0
H2838 H 0.66627 0.8816 0.42009 0.0
H2839 H 0.7233 0.85902 0.43768 0.0
H2840 H 0.54834 0.71369 0.41294 0.0
H2841 H 0.53543 0.77195 0.39769 0.0
H2842 H 0.55335 0.83153 0.40331 0.0
H2843 H 0.60198 0.87144 0.40886 0.0
Mn2844 Mn 0.32327 0.30529 0.41938 0.0
Mn2845 Mn 0.3605 0.23986 0.44934 0.0
C2846 C 0.37165 0.28328 0.39534 0.0
C2847 C 0.30737 0.34873 0.38627 0.0
C2848 C 0.35019 0.29807 0.48691 0.0
O2849 O 0.28025 0.27887 0.42856 0.0
O2850 O 0.30937 0.24219 0.46138 0.0
C2851 C 0.32719 0.17598 0.43802 0.0
N2852 N 0.35417 0.19679 0.43135 0.0
C2853 C 0.3913 0.15068 0.41834 0.0
C2854 C 0.36295 0.12952 0.42258 0.0
C2855 C 0.33067 0.14225 0.43241 0.0
C2856 C 0.38585 0.18433 0.42326 0.0
H2857 H 0.30433 0.18431 0.45059 0.0
C2858 C 0.28155 0.25304 0.44689 0.0
O2859 O 0.30511 0.35103 0.41759 0.0
O2860 O 0.31175 0.3196 0.37398 0.0
N2861 N 0.40795 0.23602 0.43495 0.0
C2862 C 0.43277 0.25985 0.43172 0.0
C2863 C 0.46479 0.25224 0.41662 0.0
C2864 C 0.47211 0.21955 0.4082 0.0
C2865 C 0.44684 0.19544 0.41352 0.0
C2866 C 0.41379 0.20548 0.42379 0.0
H2867 H 0.42769 0.28467 0.43959 0.0
O2868 O 0.37205 0.31378 0.40502 0.0
O2869 O 0.34908 0.2641 0.40902 0.0
O2870 O 0.32636 0.30889 0.46943 0.0
O2871 O 0.37255 0.28016 0.4732 0.0
C2872 C 0.45307 0.16189 0.40896 0.0
C2873 C 0.42536 0.13937 0.41184 0.0
H2874 H 0.36616 0.10331 0.42005 0.0
H2875 H 0.30914 0.12589 0.43767 0.0
H2876 H 0.48412 0.2712 0.41295 0.0
H2877 H 0.49702 0.21294 0.39768 0.0
H2878 H 0.47908 0.15336 0.40323 0.0
H2879 H 0.43045 0.11346 0.40878 0.0
Mn2880 Mn 0.6123 0.19396 0.81804 0.0
Mn2881 Mn 0.58992 0.16016 0.74762 0.0
C2882 C 0.63201 0.14166 0.80075 0.0
C2883 C 0.64555 0.2103 0.86304 0.0
C2884 C 0.53544 0.17711 0.79963 0.0
O2885 O 0.61253 0.23296 0.78464 0.0
O2886 O 0.58305 0.20631 0.74559 0.0
C2887 C 0.66425 0.19403 0.71089 0.0
N2888 N 0.63445 0.16826 0.72233 0.0
C2889 C 0.65812 0.12824 0.64652 0.0
C2890 C 0.68734 0.16196 0.64251 0.0
C2891 C 0.68992 0.19237 0.67393 0.0
C2892 C 0.6242 0.13745 0.70592 0.0
H2893 H 0.6682 0.21547 0.72592 0.0
C2894 C 0.60316 0.22904 0.75416 0.0
O2895 O 0.61263 0.21623 0.8612 0.0
O2896 O 0.66069 0.20129 0.83591 0.0
N2897 N 0.59304 0.10995 0.74554 0.0
C2898 C 0.5609 0.0881 0.74555 0.0
C2899 C 0.5573 0.0515 0.72852 0.0
C2900 C 0.61502 0.02634 0.69792 0.0
C2901 C 0.64771 0.05401 0.69981 0.0
C2902 C 0.62687 0.10465 0.72934 0.0
H2903 H 0.53749 0.09801 0.7564 0.0
O2904 O 0.62398 0.14633 0.83132 0.0
O2905 O 0.62151 0.16455 0.78283 0.0
O2906 O 0.55856 0.19177 0.81617 0.0
O2907 O 0.54447 0.15843 0.77512 0.0
C2908 C 0.66751 0.05666 0.66272 0.0
C2909 C 0.67163 0.08986 0.63836 0.0
H2910 H 0.70649 0.16206 0.62306 0.0
H2911 H 0.70879 0.21176 0.67036 0.0
H2912 H 0.53127 0.0408 0.73153 0.0
H2913 H 0.61897 0.00407 0.68341 0.0
H2914 H 0.6756 0.03369 0.65191 0.0
H2915 H 0.68768 0.08663 0.61686 0.0
Mn2916 Mn 0.42015 0.79095 0.81805 0.0
Mn2917 Mn 0.44254 0.82476 0.74765 0.0
C2918 C 0.40046 0.84326 0.80078 0.0
C2919 C 0.3869 0.7746 0.86305 0.0
C2920 C 0.49701 0.8078 0.79966 0.0
O2921 O 0.41992 0.75196 0.78464 0.0
O2922 O 0.4494 0.77861 0.74562 0.0
C2923 C 0.36822 0.79091 0.71089 0.0
N2924 N 0.39802 0.81667 0.72234 0.0
C2925 C 0.37438 0.85672 0.64654 0.0
C2926 C 0.34516 0.82301 0.64251 0.0
C2927 C 0.34257 0.79258 0.67391 0.0
C2928 C 0.40828 0.84749 0.70595 0.0
H2929 H 0.36426 0.76946 0.7259 0.0
C2930 C 0.42928 0.75589 0.75417 0.0
O2931 O 0.41982 0.76867 0.8612 0.0
O2932 O 0.37176 0.78362 0.83592 0.0
N2933 N 0.43943 0.87497 0.74558 0.0
C2934 C 0.47157 0.89681 0.74562 0.0
C2935 C 0.47517 0.93342 0.7286 0.0
C2936 C 0.41746 0.9586 0.69799 0.0
C2937 C 0.38478 0.93093 0.69986 0.0
C2938 C 0.40561 0.88027 0.72937 0.0
H2939 H 0.49498 0.8869 0.75646 0.0
O2940 O 0.40849 0.83857 0.83134 0.0
O2941 O 0.41094 0.82037 0.78285 0.0
O2942 O 0.47389 0.79313 0.81618 0.0
O2943 O 0.48799 0.82649 0.77515 0.0
C2944 C 0.36498 0.9283 0.66276 0.0
C2945 C 0.36087 0.89511 0.6384 0.0
H2946 H 0.32601 0.82291 0.62305 0.0
H2947 H 0.32369 0.7732 0.67034 0.0
H2948 H 0.5012 0.94412 0.73162 0.0
H2949 H 0.41352 0.98088 0.6835 0.0
H2950 H 0.3569 0.95127 0.65197 0.0
H2951 H 0.34483 0.89834 0.61689 0.0
Mn2952 Mn 0.61231 0.79096 0.16688 0.0
Mn2953 Mn 0.58992 0.82475 0.23729 0.0
C2954 C 0.63201 0.84327 0.18416 0.0
C2955 C 0.64556 0.77462 0.12187 0.0
C2956 C 0.53545 0.80781 0.18528 0.0
O2957 O 0.61253 0.75196 0.20027 0.0
O2958 O 0.58305 0.77861 0.2393 0.0
C2959 C 0.66426 0.79087 0.27399 0.0
N2960 N 0.63445 0.81665 0.26257 0.0
C2961 C 0.65814 0.85663 0.33839 0.0
C2962 C 0.68736 0.82292 0.34238 0.0
C2963 C 0.68993 0.79251 0.31096 0.0
C2964 C 0.62421 0.84745 0.27899 0.0
H2965 H 0.66821 0.76943 0.25896 0.0
C2966 C 0.60316 0.75588 0.23075 0.0
O2967 O 0.61264 0.76869 0.12372 0.0
O2968 O 0.6607 0.78363 0.14901 0.0
N2969 N 0.59304 0.87496 0.23939 0.0
C2970 C 0.5609 0.89681 0.23939 0.0
C2971 C 0.55731 0.93341 0.25644 0.0
C2972 C 0.61503 0.95856 0.28704 0.0
C2973 C 0.64772 0.93089 0.28513 0.0
C2974 C 0.62687 0.88026 0.25559 0.0
H2975 H 0.53749 0.88691 0.22855 0.0
O2976 O 0.62398 0.83859 0.1536 0.0
O2977 O 0.62151 0.82037 0.20208 0.0
O2978 O 0.55857 0.79315 0.16874 0.0
O2979 O 0.54447 0.82649 0.20979 0.0
C2980 C 0.66753 0.92823 0.32222 0.0
C2981 C 0.67166 0.89502 0.34656 0.0
H2982 H 0.70652 0.82281 0.36183 0.0
H2983 H 0.70881 0.77313 0.31451 0.0
H2984 H 0.53127 0.94412 0.25344 0.0
H2985 H 0.61899 0.98082 0.30155 0.0
H2986 H 0.67562 0.95119 0.33303 0.0
H2987 H 0.68772 0.89823 0.36806 0.0
Mn2988 Mn 0.42012 0.19399 0.16687 0.0
Mn2989 Mn 0.44253 0.16018 0.23726 0.0
C2990 C 0.40044 0.14168 0.18413 0.0
C2991 C 0.38687 0.21034 0.12188 0.0
C2992 C 0.49699 0.17715 0.18524 0.0
O2993 O 0.4199 0.23298 0.20028 0.0
O2994 O 0.44939 0.20632 0.2393 0.0
C2995 C 0.36822 0.19401 0.27404 0.0
N2996 N 0.39802 0.16825 0.26257 0.0
C2997 C 0.37439 0.1282 0.33837 0.0
C2998 C 0.34517 0.1619 0.34241 0.0
C2999 C 0.34257 0.19234 0.31102 0.0
C3000 C 0.40828 0.13744 0.27895 0.0
H3001 H 0.36426 0.21547 0.25903 0.0
C3002 C 0.42928 0.22905 0.23075 0.0
O3003 O 0.41978 0.21628 0.12372 0.0
O3004 O 0.37174 0.20132 0.14901 0.0
N3005 N 0.43943 0.10997 0.23931 0.0
C3006 C 0.47157 0.08812 0.23927 0.0
C3007 C 0.47518 0.05152 0.25627 0.0
C3008 C 0.41749 0.02632 0.28689 0.0
C3009 C 0.38479 0.05399 0.28503 0.0
C3010 C 0.40561 0.10466 0.25552 0.0
H3011 H 0.49498 0.09804 0.22842 0.0
O3012 O 0.40847 0.14637 0.15356 0.0
O3013 O 0.41093 0.16457 0.20206 0.0
O3014 O 0.47387 0.19182 0.16872 0.0
O3015 O 0.48797 0.15846 0.20974 0.0
C3016 C 0.36501 0.05661 0.32213 0.0
C3017 C 0.36089 0.0898 0.34651 0.0
H3018 H 0.32602 0.16199 0.36187 0.0
H3019 H 0.3237 0.21172 0.3146 0.0
H3020 H 0.50121 0.04081 0.25324 0.0
H3021 H 0.41355 0.00404 0.30138 0.0
H3022 H 0.35693 0.03364 0.33293 0.0
H3023 H 0.34486 0.08656 0.36802 0.0
Mn3024 Mn 0.42014 0.31805 0.69397 0.0
Mn3025 Mn 0.44254 0.24765 0.66018 0.0
C3026 C 0.40045 0.30077 0.64167 0.0
C3027 C 0.38689 0.36305 0.71031 0.0
C3028 C 0.497 0.29966 0.67713 0.0
O3029 O 0.41991 0.28466 0.73297 0.0
O3030 O 0.44941 0.24564 0.70633 0.0
C3031 C 0.36821 0.21092 0.69405 0.0
N3032 N 0.39802 0.22235 0.66828 0.0
C3033 C 0.37434 0.14653 0.62828 0.0
C3034 C 0.34512 0.14253 0.66199 0.0
C3035 C 0.34255 0.17395 0.6924 0.0
C3036 C 0.40826 0.20594 0.63747 0.0
H3037 H 0.36426 0.22594 0.71549 0.0
C3038 C 0.42928 0.25418 0.72905 0.0
O3039 O 0.41981 0.36121 0.71625 0.0
O3040 O 0.37175 0.33592 0.7013 0.0
N3041 N 0.43943 0.24555 0.60997 0.0
C3042 C 0.47157 0.24556 0.58812 0.0
C3043 C 0.47516 0.22853 0.55152 0.0
C3044 C 0.41744 0.19792 0.52636 0.0
C3045 C 0.38476 0.19981 0.55403 0.0
C3046 C 0.4056 0.22935 0.60467 0.0
H3047 H 0.49498 0.25641 0.59802 0.0
O3048 O 0.40848 0.33134 0.64635 0.0
O3049 O 0.41094 0.28285 0.66456 0.0
O3050 O 0.47389 0.31619 0.6918 0.0
O3051 O 0.48799 0.27516 0.65844 0.0
C3052 C 0.36495 0.16272 0.55668 0.0
C3053 C 0.36083 0.13838 0.58989 0.0
H3054 H 0.32597 0.12308 0.66209 0.0
H3055 H 0.32367 0.17039 0.71178 0.0
H3056 H 0.50119 0.23153 0.54081 0.0
H3057 H 0.41349 0.18341 0.50409 0.0
H3058 H 0.35687 0.15192 0.53372 0.0
H3059 H 0.34478 0.11687 0.58666 0.0
Mn3060 Mn 0.61229 0.66688 0.69395 0.0
Mn3061 Mn 0.58992 0.7373 0.66017 0.0
C3062 C 0.632 0.68416 0.64165 0.0
C3063 C 0.64553 0.62187 0.7103 0.0
C3064 C 0.53544 0.68529 0.6771 0.0
O3065 O 0.61252 0.70027 0.73296 0.0
O3066 O 0.58305 0.73931 0.70631 0.0
C3067 C 0.66426 0.774 0.69404 0.0
N3068 N 0.63445 0.76257 0.66827 0.0
C3069 C 0.65815 0.83839 0.62828 0.0
C3070 C 0.68736 0.84239 0.66199 0.0
C3071 C 0.68993 0.81096 0.6924 0.0
C3072 C 0.62421 0.77899 0.63746 0.0
H3073 H 0.66821 0.75897 0.71548 0.0
C3074 C 0.60316 0.73075 0.72904 0.0
O3075 O 0.6126 0.62371 0.71622 0.0
O3076 O 0.66067 0.64899 0.70129 0.0
N3077 N 0.59304 0.73939 0.60995 0.0
C3078 C 0.5609 0.73939 0.5881 0.0
C3079 C 0.55731 0.75643 0.55151 0.0
C3080 C 0.61504 0.78703 0.52635 0.0
C3081 C 0.64772 0.78512 0.55402 0.0
C3082 C 0.62687 0.75559 0.60466 0.0
H3083 H 0.53749 0.72855 0.598 0.0
O3084 O 0.62397 0.6536 0.64633 0.0
O3085 O 0.62151 0.70208 0.66455 0.0
O3086 O 0.55855 0.66875 0.69176 0.0
O3087 O 0.54446 0.7098 0.65842 0.0
C3088 C 0.66754 0.82221 0.55668 0.0
C3089 C 0.67166 0.84655 0.58989 0.0
H3090 H 0.70652 0.86183 0.6621 0.0
H3091 H 0.70881 0.81452 0.71179 0.0
H3092 H 0.53128 0.75344 0.5408 0.0
H3093 H 0.619 0.80154 0.50409 0.0
H3094 H 0.67563 0.83302 0.53372 0.0
H3095 H 0.68772 0.86805 0.58667 0.0
Mn3096 Mn 0.61232 0.31805 0.29095 0.0
Mn3097 Mn 0.58993 0.24765 0.32475 0.0
C3098 C 0.63202 0.30078 0.34325 0.0
C3099 C 0.64556 0.36305 0.2746 0.0
C3100 C 0.53546 0.29966 0.3078 0.0
O3101 O 0.61253 0.28464 0.25195 0.0
O3102 O 0.58307 0.2456 0.27861 0.0
C3103 C 0.66426 0.2109 0.2909 0.0
N3104 N 0.63445 0.22235 0.31667 0.0
C3105 C 0.6581 0.14654 0.35671 0.0
C3106 C 0.68732 0.14252 0.323 0.0
C3107 C 0.68991 0.17392 0.29257 0.0
C3108 C 0.6242 0.20595 0.34748 0.0
H3109 H 0.66821 0.22591 0.26945 0.0
C3110 C 0.60316 0.25416 0.25587 0.0
O3111 O 0.61264 0.36121 0.26867 0.0
O3112 O 0.6607 0.33592 0.28361 0.0
N3113 N 0.59304 0.24559 0.37496 0.0
C3114 C 0.5609 0.24561 0.39681 0.0
C3115 C 0.5573 0.2286 0.43341 0.0
C3116 C 0.615 0.19799 0.45859 0.0
C3117 C 0.64769 0.19986 0.43093 0.0
C3118 C 0.62686 0.22938 0.38027 0.0
H3119 H 0.53749 0.25646 0.38689 0.0
O3120 O 0.62399 0.33134 0.33857 0.0
O3121 O 0.62153 0.28285 0.32035 0.0
O3122 O 0.55857 0.31619 0.29313 0.0
O3123 O 0.54448 0.27515 0.32648 0.0
C3124 C 0.66749 0.16276 0.42829 0.0
C3125 C 0.67161 0.1384 0.3951 0.0
H3126 H 0.70647 0.12306 0.3229 0.0
H3127 H 0.70879 0.17035 0.27319 0.0
H3128 H 0.53126 0.23161 0.44411 0.0
H3129 H 0.61894 0.18349 0.48087 0.0
H3130 H 0.67556 0.15196 0.45126 0.0
H3131 H 0.68765 0.11689 0.39833 0.0
Mn3132 Mn 0.42013 0.66688 0.29094 0.0
Mn3133 Mn 0.44254 0.73727 0.32474 0.0
C3134 C 0.40044 0.68414 0.34325 0.0
C3135 C 0.38688 0.62188 0.27459 0.0
C3136 C 0.497 0.68526 0.30778 0.0
O3137 O 0.41991 0.70028 0.25194 0.0
O3138 O 0.4494 0.73931 0.2786 0.0
C3139 C 0.36822 0.77405 0.29091 0.0
N3140 N 0.39802 0.76259 0.31667 0.0
C3141 C 0.37439 0.83839 0.35672 0.0
C3142 C 0.34517 0.84243 0.32301 0.0
C3143 C 0.34258 0.81103 0.29258 0.0
C3144 C 0.40828 0.77897 0.34748 0.0
H3145 H 0.36426 0.75904 0.26945 0.0
C3146 C 0.42928 0.73076 0.25587 0.0
O3147 O 0.41979 0.62372 0.26865 0.0
O3148 O 0.37174 0.64901 0.28361 0.0
N3149 N 0.43943 0.73933 0.37496 0.0
C3150 C 0.47157 0.73929 0.3968 0.0
C3151 C 0.47518 0.75629 0.43341 0.0
C3152 C 0.41748 0.78691 0.4586 0.0
C3153 C 0.38479 0.78506 0.43093 0.0
C3154 C 0.40561 0.75555 0.38027 0.0
H3155 H 0.49497 0.72844 0.38689 0.0
O3156 O 0.40847 0.65358 0.33856 0.0
O3157 O 0.41093 0.70207 0.32035 0.0
O3158 O 0.47388 0.66873 0.29311 0.0
O3159 O 0.48798 0.70976 0.32647 0.0
C3160 C 0.365 0.82216 0.4283 0.0
C3161 C 0.36089 0.84653 0.39511 0.0
H3162 H 0.32603 0.86189 0.32292 0.0
H3163 H 0.3237 0.81461 0.2732 0.0
H3164 H 0.50121 0.75327 0.44411 0.0
H3165 H 0.41354 0.80141 0.48088 0.0
H3166 H 0.35693 0.83295 0.45128 0.0
H3167 H 0.34485 0.86804 0.39836 0.0
Mn3168 Mn 0.42014 0.81805 0.19398 0.0
Mn3169 Mn 0.44255 0.74765 0.16018 0.0
C3170 C 0.40046 0.80077 0.14167 0.0
C3171 C 0.38689 0.86305 0.21032 0.0
C3172 C 0.49701 0.79966 0.17713 0.0
O3173 O 0.41991 0.78465 0.23298 0.0
O3174 O 0.44942 0.74564 0.20632 0.0
C3175 C 0.36822 0.71091 0.19404 0.0
N3176 N 0.39803 0.72235 0.16827 0.0
C3177 C 0.37435 0.64653 0.12826 0.0
C3178 C 0.34513 0.64253 0.16198 0.0
C3179 C 0.34256 0.67394 0.19239 0.0
C3180 C 0.40827 0.70594 0.13746 0.0
H3181 H 0.36426 0.72594 0.21548 0.0
C3182 C 0.42927 0.75417 0.22903 0.0
O3183 O 0.41981 0.8612 0.21626 0.0
O3184 O 0.37175 0.83592 0.2013 0.0
N3185 N 0.43943 0.74556 0.10996 0.0
C3186 C 0.47157 0.74557 0.08811 0.0
C3187 C 0.47516 0.72854 0.05152 0.0
C3188 C 0.41745 0.69793 0.02635 0.0
C3189 C 0.38476 0.69982 0.05402 0.0
C3190 C 0.4056 0.72935 0.10467 0.0
H3191 H 0.49498 0.75642 0.09802 0.0
O3192 O 0.40848 0.83134 0.14635 0.0
O3193 O 0.41095 0.78285 0.16456 0.0
O3194 O 0.47389 0.81619 0.1918 0.0
O3195 O 0.48799 0.77516 0.15844 0.0
C3196 C 0.36496 0.66273 0.05667 0.0
C3197 C 0.36084 0.63838 0.08988 0.0
H3198 H 0.32598 0.62307 0.16208 0.0
H3199 H 0.32368 0.67038 0.21177 0.0
H3200 H 0.5012 0.73154 0.04081 0.0
H3201 H 0.4135 0.68342 0.00408 0.0
H3202 H 0.35687 0.65192 0.03371 0.0
H3203 H 0.34479 0.61687 0.08665 0.0
Mn3204 Mn 0.61229 0.16688 0.19395 0.0
Mn3205 Mn 0.58992 0.2373 0.16016 0.0
C3206 C 0.632 0.18416 0.14165 0.0
C3207 C 0.64553 0.12187 0.21031 0.0
C3208 C 0.53544 0.18529 0.1771 0.0
O3209 O 0.61251 0.20028 0.23296 0.0
O3210 O 0.58304 0.23931 0.2063 0.0
C3211 C 0.66426 0.274 0.19404 0.0
N3212 N 0.63445 0.26258 0.16826 0.0
C3213 C 0.65814 0.33839 0.12827 0.0
C3214 C 0.68736 0.34239 0.16198 0.0
C3215 C 0.68993 0.31097 0.19239 0.0
C3216 C 0.62421 0.27899 0.13746 0.0
H3217 H 0.6682 0.25898 0.21548 0.0
C3218 C 0.60317 0.23076 0.22902 0.0
O3219 O 0.61261 0.12372 0.21623 0.0
O3220 O 0.66067 0.149 0.2013 0.0
N3221 N 0.59304 0.23939 0.10995 0.0
C3222 C 0.5609 0.23939 0.0881 0.0
C3223 C 0.55731 0.25643 0.0515 0.0
C3224 C 0.61504 0.28702 0.02635 0.0
C3225 C 0.64772 0.28512 0.05402 0.0
C3226 C 0.62687 0.25559 0.10465 0.0
H3227 H 0.53748 0.22854 0.098 0.0
O3228 O 0.62397 0.1536 0.14633 0.0
O3229 O 0.6215 0.20208 0.16455 0.0
O3230 O 0.55855 0.16876 0.19176 0.0
O3231 O 0.54446 0.2098 0.15842 0.0
C3232 C 0.66753 0.32221 0.05667 0.0
C3233 C 0.67166 0.34655 0.08988 0.0
H3234 H 0.70651 0.36184 0.16209 0.0
H3235 H 0.7088 0.31452 0.21178 0.0
H3236 H 0.53127 0.25343 0.04079 0.0
H3237 H 0.61899 0.30153 0.00408 0.0
H3238 H 0.67562 0.33301 0.03371 0.0
H3239 H 0.68771 0.36805 0.08666 0.0
Mn3240 Mn 0.42013 0.16688 0.79093 0.0
Mn3241 Mn 0.44254 0.23727 0.82475 0.0
C3242 C 0.40044 0.18414 0.84324 0.0
C3243 C 0.38687 0.12189 0.77459 0.0
C3244 C 0.497 0.18525 0.80778 0.0
O3245 O 0.41991 0.20029 0.75194 0.0
O3246 O 0.4494 0.23931 0.77861 0.0
C3247 C 0.36823 0.27406 0.79091 0.0
N3248 N 0.39803 0.26259 0.81668 0.0
C3249 C 0.3744 0.33839 0.85673 0.0
C3250 C 0.34518 0.34243 0.82303 0.0
C3251 C 0.34258 0.31104 0.79259 0.0
C3252 C 0.40829 0.27898 0.84749 0.0
H3253 H 0.36426 0.25905 0.76946 0.0
C3254 C 0.42927 0.23077 0.75589 0.0
O3255 O 0.41979 0.12373 0.76865 0.0
O3256 O 0.37174 0.14902 0.7836 0.0
N3257 N 0.43943 0.23933 0.87496 0.0
C3258 C 0.47157 0.23928 0.89681 0.0
C3259 C 0.47518 0.25629 0.93341 0.0
C3260 C 0.41748 0.28691 0.95861 0.0
C3261 C 0.38479 0.28505 0.93094 0.0
C3262 C 0.40561 0.25555 0.88027 0.0
H3263 H 0.49498 0.22843 0.88689 0.0
O3264 O 0.40847 0.15358 0.83855 0.0
O3265 O 0.41093 0.20207 0.82035 0.0
O3266 O 0.47388 0.16873 0.7931 0.0
O3267 O 0.48798 0.20976 0.82647 0.0
C3268 C 0.36501 0.32215 0.92831 0.0
C3269 C 0.3609 0.34653 0.89513 0.0
H3270 H 0.32603 0.36189 0.82294 0.0
H3271 H 0.32371 0.31462 0.77321 0.0
H3272 H 0.50121 0.25326 0.94412 0.0
H3273 H 0.41354 0.3014 0.98089 0.0
H3274 H 0.35693 0.33295 0.95129 0.0
H3275 H 0.34486 0.36804 0.89837 0.0
Mn3276 Mn 0.61232 0.81804 0.79094 0.0
Mn3277 Mn 0.58993 0.74764 0.82476 0.0
C3278 C 0.63202 0.80078 0.84325 0.0
C3279 C 0.64557 0.86304 0.77459 0.0
C3280 C 0.53546 0.79966 0.8078 0.0
O3281 O 0.61253 0.78464 0.75195 0.0
O3282 O 0.58306 0.7456 0.77861 0.0
C3283 C 0.66425 0.71089 0.79091 0.0
N3284 N 0.63445 0.72235 0.81668 0.0
C3285 C 0.6581 0.64654 0.85671 0.0
C3286 C 0.68732 0.64251 0.823 0.0
C3287 C 0.68991 0.67392 0.79258 0.0
C3288 C 0.62419 0.70595 0.84749 0.0
H3289 H 0.6682 0.7259 0.76946 0.0
C3290 C 0.60317 0.75416 0.75589 0.0
O3291 O 0.61264 0.8612 0.76866 0.0
O3292 O 0.6607 0.83591 0.7836 0.0
N3293 N 0.59304 0.74558 0.87497 0.0
C3294 C 0.5609 0.74561 0.89681 0.0
C3295 C 0.55729 0.7286 0.93341 0.0
C3296 C 0.615 0.69799 0.9586 0.0
C3297 C 0.64769 0.69986 0.93093 0.0
C3298 C 0.62686 0.72937 0.88027 0.0
H3299 H 0.53749 0.75646 0.8869 0.0
O3300 O 0.62399 0.83134 0.83856 0.0
O3301 O 0.62152 0.78285 0.82036 0.0
O3302 O 0.55857 0.81619 0.79313 0.0
O3303 O 0.54448 0.77515 0.82648 0.0
C3304 C 0.66748 0.66276 0.9283 0.0
C3305 C 0.6716 0.6384 0.8951 0.0
H3306 H 0.70647 0.62306 0.82291 0.0
H3307 H 0.70878 0.67034 0.7732 0.0
H3308 H 0.53126 0.73162 0.94412 0.0
H3309 H 0.61894 0.68349 0.98088 0.0
H3310 H 0.67556 0.65196 0.95127 0.0
H3311 H 0.68764 0.61689 0.89834 0.0
Mn3312 Mn 0.6123 0.69397 0.31804 0.0
Mn3313 Mn 0.58992 0.66017 0.24762 0.0
C3314 C 0.63201 0.64166 0.30075 0.0
C3315 C 0.64555 0.71032 0.36304 0.0
C3316 C 0.53544 0.67711 0.29963 0.0
O3317 O 0.61252 0.73297 0.28464 0.0
O3318 O 0.58305 0.70631 0.2456 0.0
C3319 C 0.66425 0.69403 0.21089 0.0
N3320 N 0.63445 0.66826 0.22233 0.0
C3321 C 0.65812 0.62825 0.14652 0.0
C3322 C 0.68734 0.66196 0.14251 0.0
C3323 C 0.68992 0.69238 0.17392 0.0
C3324 C 0.6242 0.63745 0.20592 0.0
H3325 H 0.6682 0.71548 0.22591 0.0
C3326 C 0.60317 0.72903 0.25416 0.0
O3327 O 0.61262 0.71624 0.3612 0.0
O3328 O 0.66068 0.70131 0.33591 0.0
N3329 N 0.59304 0.60995 0.24554 0.0
C3330 C 0.5609 0.58811 0.24555 0.0
C3331 C 0.5573 0.55151 0.22853 0.0
C3332 C 0.61502 0.52634 0.19792 0.0
C3333 C 0.64771 0.55401 0.19981 0.0
C3334 C 0.62687 0.60466 0.22934 0.0
H3335 H 0.53749 0.59801 0.2564 0.0
O3336 O 0.62398 0.64634 0.33132 0.0
O3337 O 0.62151 0.66456 0.28283 0.0
O3338 O 0.55856 0.69178 0.31617 0.0
O3339 O 0.54447 0.65843 0.27512 0.0
C3340 C 0.66751 0.55666 0.16272 0.0
C3341 C 0.67163 0.58986 0.13836 0.0
H3342 H 0.70649 0.66206 0.12306 0.0
H3343 H 0.70879 0.71176 0.17036 0.0
H3344 H 0.53127 0.5408 0.23153 0.0
H3345 H 0.61897 0.50407 0.18342 0.0
H3346 H 0.6756 0.53369 0.15191 0.0
H3347 H 0.68768 0.58663 0.11686 0.0
Mn3348 Mn 0.42015 0.29094 0.31805 0.0
Mn3349 Mn 0.44254 0.32475 0.24764 0.0
C3350 C 0.40046 0.34325 0.30078 0.0
C3351 C 0.38691 0.27459 0.36305 0.0
C3352 C 0.49701 0.3078 0.29965 0.0
O3353 O 0.41993 0.25195 0.28464 0.0
O3354 O 0.44941 0.27861 0.24562 0.0
C3355 C 0.36822 0.2909 0.21089 0.0
N3356 N 0.39802 0.31667 0.22234 0.0
C3357 C 0.37437 0.35671 0.14653 0.0
C3358 C 0.34515 0.323 0.14251 0.0
C3359 C 0.34257 0.29257 0.17391 0.0
C3360 C 0.40828 0.34748 0.20595 0.0
H3361 H 0.36426 0.26946 0.2259 0.0
C3362 C 0.42927 0.2559 0.25416 0.0
O3363 O 0.41983 0.26866 0.3612 0.0
O3364 O 0.37177 0.28361 0.33592 0.0
N3365 N 0.43943 0.37497 0.24558 0.0
C3366 C 0.47157 0.39681 0.24561 0.0
C3367 C 0.47517 0.43341 0.22859 0.0
C3368 C 0.41746 0.4586 0.19798 0.0
C3369 C 0.38477 0.43093 0.19985 0.0
C3370 C 0.40561 0.38027 0.22937 0.0
H3371 H 0.49498 0.3869 0.25646 0.0
O3372 O 0.40849 0.33857 0.33134 0.0
O3373 O 0.41095 0.32036 0.28285 0.0
O3374 O 0.4739 0.29312 0.31618 0.0
O3375 O 0.48799 0.32649 0.27515 0.0
C3376 C 0.36498 0.42829 0.16276 0.0
C3377 C 0.36086 0.3951 0.13839 0.0
H3378 H 0.326 0.3229 0.12305 0.0
H3379 H 0.32369 0.27319 0.17034 0.0
H3380 H 0.5012 0.44412 0.23161 0.0
H3381 H 0.41351 0.48087 0.18349 0.0
H3382 H 0.3569 0.45126 0.15196 0.0
H3383 H 0.34482 0.39833 0.11688 0.0
Mn3384 Mn 0.42013 0.694 0.66687 0.0
Mn3385 Mn 0.44254 0.66018 0.73726 0.0
C3386 C 0.40044 0.64169 0.68413 0.0
C3387 C 0.38687 0.71035 0.62188 0.0
C3388 C 0.49699 0.67715 0.68524 0.0
O3389 O 0.41991 0.73299 0.70028 0.0
O3390 O 0.4494 0.70632 0.7393 0.0
C3391 C 0.36822 0.69402 0.77404 0.0
N3392 N 0.39802 0.66826 0.76257 0.0
C3393 C 0.37439 0.6282 0.83837 0.0
C3394 C 0.34517 0.66191 0.84241 0.0
C3395 C 0.34257 0.69234 0.81102 0.0
C3396 C 0.40828 0.63744 0.77896 0.0
H3397 H 0.36426 0.71547 0.75903 0.0
C3398 C 0.42927 0.72904 0.73075 0.0
O3399 O 0.41979 0.71629 0.62372 0.0
O3400 O 0.37174 0.70133 0.64901 0.0
N3401 N 0.43943 0.60997 0.73931 0.0
C3402 C 0.47157 0.58813 0.73927 0.0
C3403 C 0.47518 0.55152 0.75627 0.0
C3404 C 0.41748 0.52633 0.78689 0.0
C3405 C 0.38479 0.55399 0.78503 0.0
C3406 C 0.40561 0.60466 0.75553 0.0
H3407 H 0.49498 0.59804 0.72842 0.0
O3408 O 0.40847 0.64638 0.65356 0.0
O3409 O 0.41093 0.66458 0.70206 0.0
O3410 O 0.47387 0.69183 0.66872 0.0
O3411 O 0.48797 0.65846 0.70974 0.0
C3412 C 0.365 0.55662 0.82213 0.0
C3413 C 0.36089 0.58981 0.84651 0.0
H3414 H 0.32602 0.662 0.86187 0.0
H3415 H 0.3237 0.71172 0.8146 0.0
H3416 H 0.50121 0.54082 0.75324 0.0
H3417 H 0.41355 0.50404 0.80138 0.0
H3418 H 0.35693 0.53364 0.83293 0.0
H3419 H 0.34485 0.58656 0.86802 0.0
Mn3420 Mn 0.61231 0.29095 0.66688 0.0
Mn3421 Mn 0.58992 0.32475 0.73729 0.0
C3422 C 0.63201 0.34326 0.68416 0.0
C3423 C 0.64556 0.27461 0.62187 0.0
C3424 C 0.53545 0.30781 0.68528 0.0
O3425 O 0.61253 0.25195 0.70027 0.0
O3426 O 0.58304 0.2786 0.7393 0.0
C3427 C 0.66426 0.29087 0.77399 0.0
N3428 N 0.63445 0.31664 0.76257 0.0
C3429 C 0.65814 0.35663 0.83839 0.0
C3430 C 0.68736 0.32291 0.84238 0.0
C3431 C 0.68993 0.29251 0.81096 0.0
C3432 C 0.62421 0.34745 0.77899 0.0
H3433 H 0.66821 0.26943 0.75896 0.0
C3434 C 0.60317 0.25589 0.73075 0.0
O3435 O 0.61264 0.26868 0.62372 0.0
O3436 O 0.66069 0.28362 0.649 0.0
N3437 N 0.59304 0.37496 0.73939 0.0
C3438 C 0.5609 0.39681 0.7394 0.0
C3439 C 0.55731 0.4334 0.75644 0.0
C3440 C 0.61504 0.45855 0.78704 0.0
C3441 C 0.64772 0.43088 0.78514 0.0
C3442 C 0.62687 0.38025 0.75559 0.0
H3443 H 0.53749 0.38691 0.72855 0.0
O3444 O 0.62398 0.33858 0.6536 0.0
O3445 O 0.62151 0.32036 0.70208 0.0
O3446 O 0.55857 0.29314 0.66875 0.0
O3447 O 0.54447 0.32649 0.70979 0.0
C3448 C 0.66754 0.42822 0.82222 0.0
C3449 C 0.67166 0.39501 0.84656 0.0
H3450 H 0.70652 0.3228 0.86183 0.0
H3451 H 0.70881 0.27312 0.81451 0.0
H3452 H 0.53127 0.44411 0.75345 0.0
H3453 H 0.61899 0.48082 0.80156 0.0
H3454 H 0.67562 0.45118 0.83303 0.0
H3455 H 0.68772 0.39823 0.86806 0.0
loop_
_geom_bond_atom_site_label_1
_geom_bond_atom_site_label_2
_geom_bond_distance
_geom_bond_site_symmetry_2
_ccdc_geom_bond_type
Mn0 O5 2.095 . S
Mn0 O15 2.162 . S
Mn0 O16 2.297 . S
Mn0 O24 2.385 . S
Mn0 O25 2.209 . S
Mn0 O26 2.094 . S
Mn1 O6 2.121 . S
Mn1 N8 2.257 . S
Mn1 N17 2.282 . S
Mn1 O25 2.215 . S
Mn1 O27 2.117 . S
C2 O24 1.234 . S
C2 O25 1.283 . S
C3 O15 1.281 . S
C3 O16 1.236 . S
C4 O26 1.240 . S
C4 O27 1.264 . S
O5 Mn0 2.095 . S
O5 C14 1.250 . S
O6 Mn1 2.121 . S
O6 C14 1.258 . S
C7 N8 1.326 . S
C7 C11 1.460 . S
C7 H13 0.929 . S
N8 Mn1 2.257 . S
N8 C7 1.326 . S
N8 C12 1.362 . S
C9 C10 1.258 . S
C9 C12 1.431 . S
C9 C29 1.449 . S
C10 C9 1.258 . S
C10 C11 1.477 . S
C10 H30 0.931 . S
C11 C7 1.460 . S
C11 C10 1.477 . S
C11 H31 0.930 . S
C12 N8 1.362 . S
C12 C9 1.431 . S
C12 C22 1.476 . S
H13 C7 0.929 . S
C14 O5 1.250 . S
C14 O6 1.258 . S
O15 Mn0 2.162 . S
O15 C3 1.281 . S
O16 Mn0 2.297 . S
O16 C3 1.236 . S
N17 Mn1 2.282 . S
N17 C18 1.328 . S
N17 C22 1.318 . S
C18 N17 1.328 . S
C18 C19 1.457 . S
C18 H23 0.929 . S
C19 C18 1.457 . S
C19 C20 1.291 . S
C19 H32 0.931 . S
C20 C19 1.291 . S
C20 C21 1.373 . S
C20 H33 0.929 . S
C21 C20 1.373 . S
C21 C22 1.396 . S
C21 C28 1.403 . S
C22 C12 1.476 . S
C22 N17 1.318 . S
C22 C21 1.396 . S
H23 C18 0.929 . S
O24 Mn0 2.385 . S
O24 C2 1.234 . S
O25 Mn0 2.209 . S
O25 Mn1 2.215 . S
O25 C2 1.283 . S
O26 Mn0 2.094 . S
O26 C4 1.240 . S
O27 Mn1 2.117 . S
O27 C4 1.264 . S
C28 C21 1.403 . S
C28 C29 1.399 . S
C28 H34 0.929 . S
C29 C9 1.449 . S
C29 C28 1.399 . S
C29 H35 0.930 . S
H30 C10 0.931 . S
H31 C11 0.930 . S
H32 C19 0.931 . S
H33 C20 0.929 . S
H34 C28 0.929 . S
H35 C29 0.930 . S
Mn36 O41 2.095 . S
Mn36 O51 2.162 . S
Mn36 O52 2.297 . S
Mn36 O60 2.385 . S
Mn36 O61 2.209 . S
Mn36 O62 2.094 . S
Mn37 O42 2.121 . S
Mn37 N44 2.257 . S
Mn37 N53 2.282 . S
Mn37 O61 2.215 . S
Mn37 O63 2.117 . S
C38 O60 1.234 . S
C38 O61 1.283 . S
C39 O51 1.281 . S
C39 O52 1.236 . S
C40 O62 1.240 . S
C40 O63 1.264 . S
O41 Mn36 2.095 . S
O41 C50 1.250 . S
O42 Mn37 2.121 . S
O42 C50 1.258 . S
C43 N44 1.326 . S
C43 C47 1.460 . S
C43 H49 0.929 . S
N44 Mn37 2.257 . S
N44 C43 1.326 . S
N44 C48 1.362 . S
C45 C46 1.258 . S
C45 C48 1.431 . S
C45 C65 1.449 . S
C46 C45 1.258 . S
C46 C47 1.477 . S
C46 H66 0.931 . S
C47 C43 1.460 . S
C47 C46 1.477 . S
C47 H67 0.930 . S
C48 N44 1.362 . S
C48 C45 1.431 . S
C48 C58 1.476 . S
H49 C43 0.929 . S
C50 O41 1.250 . S
C50 O42 1.258 . S
O51 Mn36 2.162 . S
O51 C39 1.281 . S
O52 Mn36 2.297 . S
O52 C39 1.236 . S
N53 Mn37 2.282 . S
N53 C54 1.328 . S
N53 C58 1.318 . S
C54 N53 1.328 . S
C54 C55 1.457 . S
C54 H59 0.929 . S
C55 C54 1.457 . S
C55 C56 1.291 . S
C55 H68 0.931 . S
C56 C55 1.291 . S
C56 C57 1.373 . S
C56 H69 0.929 . S
C57 C56 1.373 . S
C57 C58 1.396 . S
C57 C64 1.403 . S
C58 C48 1.476 . S
C58 N53 1.318 . S
C58 C57 1.396 . S
H59 C54 0.929 . S
O60 Mn36 2.385 . S
O60 C38 1.234 . S
O61 Mn36 2.209 . S
O61 Mn37 2.215 . S
O61 C38 1.283 . S
O62 Mn36 2.094 . S
O62 C40 1.240 . S
O63 Mn37 2.117 . S
O63 C40 1.264 . S
C64 C57 1.403 . S
C64 C65 1.399 . S
C64 H70 0.929 . S
C65 C45 1.449 . S
C65 C64 1.399 . S
C65 H71 0.930 . S
H66 C46 0.931 . S
H67 C47 0.930 . S
H68 C55 0.931 . S
H69 C56 0.929 . S
H70 C64 0.929 . S
H71 C65 0.930 . S
Mn72 O77 2.095 . S
Mn72 O87 2.162 . S
Mn72 O88 2.297 . S
Mn72 O96 2.385 . S
Mn72 O97 2.209 . S
Mn72 O98 2.094 . S
Mn73 O78 2.121 . S
Mn73 N80 2.257 . S
Mn73 N89 2.282 . S
Mn73 O97 2.215 . S
Mn73 O99 2.117 . S
C74 O96 1.234 . S
C74 O97 1.283 . S
C75 O87 1.281 . S
C75 O88 1.236 . S
C76 O98 1.240 . S
C76 O99 1.264 . S
O77 Mn72 2.095 . S
O77 C86 1.250 . S
O78 Mn73 2.121 . S
O78 C86 1.258 . S
C79 N80 1.326 . S
C79 C83 1.460 . S
C79 H85 0.929 . S
N80 Mn73 2.257 . S
N80 C79 1.326 . S
N80 C84 1.362 . S
C81 C82 1.258 . S
C81 C84 1.431 . S
C81 C101 1.449 . S
C82 C81 1.258 . S
C82 C83 1.477 . S
C82 H102 0.931 . S
C83 C79 1.460 . S
C83 C82 1.477 . S
C83 H103 0.930 . S
C84 N80 1.362 . S
C84 C81 1.431 . S
C84 C94 1.476 . S
H85 C79 0.929 . S
C86 O77 1.250 . S
C86 O78 1.258 . S
O87 Mn72 2.162 . S
O87 C75 1.281 . S
O88 Mn72 2.297 . S
O88 C75 1.236 . S
N89 Mn73 2.282 . S
N89 C90 1.328 . S
N89 C94 1.318 . S
C90 N89 1.328 . S
C90 C91 1.457 . S
C90 H95 0.929 . S
C91 C90 1.457 . S
C91 C92 1.291 . S
C91 H104 0.931 . S
C92 C91 1.291 . S
C92 C93 1.373 . S
C92 H105 0.929 . S
C93 C92 1.373 . S
C93 C94 1.396 . S
C93 C100 1.403 . S
C94 C84 1.476 . S
C94 N89 1.318 . S
C94 C93 1.396 . S
H95 C90 0.929 . S
O96 Mn72 2.385 . S
O96 C74 1.234 . S
O97 Mn72 2.209 . S
O97 Mn73 2.215 . S
O97 C74 1.283 . S
O98 Mn72 2.094 . S
O98 C76 1.240 . S
O99 Mn73 2.117 . S
O99 C76 1.264 . S
C100 C93 1.403 . S
C100 C101 1.399 . S
C100 H106 0.929 . S
C101 C81 1.449 . S
C101 C100 1.399 . S
C101 H107 0.930 . S
H102 C82 0.931 . S
H103 C83 0.930 . S
H104 C91 0.931 . S
H105 C92 0.929 . S
H106 C100 0.929 . S
H107 C101 0.930 . S
Mn108 O113 2.095 . S
Mn108 O123 2.162 . S
Mn108 O124 2.297 . S
Mn108 O132 2.385 . S
Mn108 O133 2.209 . S
Mn108 O134 2.094 . S
Mn109 O114 2.121 . S
Mn109 N116 2.257 . S
Mn109 N125 2.282 . S
Mn109 O133 2.215 . S
Mn109 O135 2.117 . S
C110 O132 1.234 . S
C110 O133 1.283 . S
C111 O123 1.281 . S
C111 O124 1.236 . S
C112 O134 1.240 . S
C112 O135 1.264 . S
O113 Mn108 2.095 . S
O113 C122 1.250 . S
O114 Mn109 2.121 . S
O114 C122 1.258 . S
C115 N116 1.326 . S
C115 C119 1.460 . S
C115 H121 0.929 . S
N116 Mn109 2.257 . S
N116 C115 1.326 . S
N116 C120 1.362 . S
C117 C118 1.258 . S
C117 C120 1.431 . S
C117 C137 1.449 . S
C118 C117 1.258 . S
C118 C119 1.477 . S
C118 H138 0.931 . S
C119 C115 1.460 . S
C119 C118 1.477 . S
C119 H139 0.930 . S
C120 N116 1.362 . S
C120 C117 1.431 . S
C120 C130 1.476 . S
H121 C115 0.929 . S
C122 O113 1.250 . S
C122 O114 1.258 . S
O123 Mn108 2.162 . S
O123 C111 1.281 . S
O124 Mn108 2.297 . S
O124 C111 1.236 . S
N125 Mn109 2.282 . S
N125 C126 1.328 . S
N125 C130 1.318 . S
C126 N125 1.328 . S
C126 C127 1.457 . S
C126 H131 0.929 . S
C127 C126 1.457 . S
C127 C128 1.291 . S
C127 H140 0.931 . S
C128 C127 1.291 . S
C128 C129 1.373 . S
C128 H141 0.929 . S
C129 C128 1.373 . S
C129 C130 1.396 . S
C129 C136 1.403 . S
C130 C120 1.476 . S
C130 N125 1.318 . S
C130 C129 1.396 . S
H131 C126 0.929 . S
O132 Mn108 2.385 . S
O132 C110 1.234 . S
O133 Mn108 2.209 . S
O133 Mn109 2.215 . S
O133 C110 1.283 . S
O134 Mn108 2.094 . S
O134 C112 1.240 . S
O135 Mn109 2.117 . S
O135 C112 1.264 . S
C136 C129 1.403 . S
C136 C137 1.399 . S
C136 H142 0.929 . S
C137 C117 1.449 . S
C137 C136 1.399 . S
C137 H143 0.930 . S
H138 C118 0.931 . S
H139 C119 0.930 . S
H140 C127 0.931 . S
H141 C128 0.929 . S
H142 C136 0.929 . S
H143 C137 0.930 . S
Mn144 O149 2.095 . S
Mn144 O159 2.162 . S
Mn144 O160 2.297 . S
Mn144 O168 2.385 . S
Mn144 O169 2.209 . S
Mn144 O170 2.094 . S
Mn145 O150 2.121 . S
Mn145 N152 2.257 . S
Mn145 N161 2.282 . S
Mn145 O169 2.215 . S
Mn145 O171 2.117 . S
C146 O168 1.234 . S
C146 O169 1.283 . S
C147 O159 1.281 . S
C147 O160 1.236 . S
C148 O170 1.240 . S
C148 O171 1.264 . S
O149 Mn144 2.095 . S
O149 C158 1.250 . S
O150 Mn145 2.121 . S
O150 C158 1.258 . S
C151 N152 1.326 . S
C151 C155 1.460 . S
C151 H157 0.929 . S
N152 Mn145 2.257 . S
N152 C151 1.326 . S
N152 C156 1.362 . S
C153 C154 1.258 . S
C153 C156 1.431 . S
C153 C173 1.449 . S
C154 C153 1.258 . S
C154 C155 1.477 . S
C154 H174 0.931 . S
C155 C151 1.460 . S
C155 C154 1.477 . S
C155 H175 0.930 . S
C156 N152 1.362 . S
C156 C153 1.431 . S
C156 C166 1.476 . S
H157 C151 0.929 . S
C158 O149 1.250 . S
C158 O150 1.258 . S
O159 Mn144 2.162 . S
O159 C147 1.281 . S
O160 Mn144 2.297 . S
O160 C147 1.236 . S
N161 Mn145 2.282 . S
N161 C162 1.328 . S
N161 C166 1.318 . S
C162 N161 1.328 . S
C162 C163 1.457 . S
C162 H167 0.929 . S
C163 C162 1.457 . S
C163 C164 1.291 . S
C163 H176 0.931 . S
C164 C163 1.291 . S
C164 C165 1.373 . S
C164 H177 0.929 . S
C165 C164 1.373 . S
C165 C166 1.396 . S
C165 C172 1.403 . S
C166 C156 1.476 . S
C166 N161 1.318 . S
C166 C165 1.396 . S
H167 C162 0.929 . S
O168 Mn144 2.385 . S
O168 C146 1.234 . S
O169 Mn144 2.209 . S
O169 Mn145 2.215 . S
O169 C146 1.283 . S
O170 Mn144 2.094 . S
O170 C148 1.240 . S
O171 Mn145 2.117 . S
O171 C148 1.264 . S
C172 C165 1.403 . S
C172 C173 1.399 . S
C172 H178 0.929 . S
C173 C153 1.449 . S
C173 C172 1.399 . S
C173 H179 0.930 . S
H174 C154 0.931 . S
H175 C155 0.930 . S
H176 C163 0.931 . S
H177 C164 0.929 . S
H178 C172 0.929 . S
H179 C173 0.930 . S
Mn180 O185 2.095 . S
Mn180 O195 2.162 . S
Mn180 O196 2.297 . S
Mn180 O204 2.385 . S
Mn180 O205 2.209 . S
Mn180 O206 2.094 . S
Mn181 O186 2.121 . S
Mn181 N188 2.257 . S
Mn181 N197 2.282 . S
Mn181 O205 2.215 . S
Mn181 O207 2.117 . S
C182 O204 1.234 . S
C182 O205 1.283 . S
C183 O195 1.281 . S
C183 O196 1.236 . S
C184 O206 1.240 . S
C184 O207 1.264 . S
O185 Mn180 2.095 . S
O185 C194 1.250 . S
O186 Mn181 2.121 . S
O186 C194 1.258 . S
C187 N188 1.326 . S
C187 C191 1.460 . S
C187 H193 0.929 . S
N188 Mn181 2.257 . S
N188 C187 1.326 . S
N188 C192 1.362 . S
C189 C190 1.258 . S
C189 C192 1.431 . S
C189 C209 1.449 . S
C190 C189 1.258 . S
C190 C191 1.477 . S
C190 H210 0.931 . S
C191 C187 1.460 . S
C191 C190 1.477 . S
C191 H211 0.930 . S
C192 N188 1.362 . S
C192 C189 1.431 . S
C192 C202 1.476 . S
H193 C187 0.929 . S
C194 O185 1.250 . S
C194 O186 1.258 . S
O195 Mn180 2.162 . S
O195 C183 1.281 . S
O196 Mn180 2.297 . S
O196 C183 1.236 . S
N197 Mn181 2.282 . S
N197 C198 1.328 . S
N197 C202 1.318 . S
C198 N197 1.328 . S
C198 C199 1.457 . S
C198 H203 0.929 . S
C199 C198 1.457 . S
C199 C200 1.291 . S
C199 H212 0.931 . S
C200 C199 1.291 . S
C200 C201 1.373 . S
C200 H213 0.929 . S
C201 C200 1.373 . S
C201 C202 1.396 . S
C201 C208 1.403 . S
C202 C192 1.476 . S
C202 N197 1.318 . S
C202 C201 1.396 . S
H203 C198 0.929 . S
O204 Mn180 2.385 . S
O204 C182 1.234 . S
O205 Mn180 2.209 . S
O205 Mn181 2.215 . S
O205 C182 1.283 . S
O206 Mn180 2.094 . S
O206 C184 1.240 . S
O207 Mn181 2.117 . S
O207 C184 1.264 . S
C208 C201 1.403 . S
C208 C209 1.399 . S
C208 H214 0.929 . S
C209 C189 1.449 . S
C209 C208 1.399 . S
C209 H215 0.930 . S
H210 C190 0.931 . S
H211 C191 0.930 . S
H212 C199 0.931 . S
H213 C200 0.929 . S
H214 C208 0.929 . S
H215 C209 0.930 . S
Mn216 O221 2.095 . S
Mn216 O231 2.162 . S
Mn216 O232 2.297 . S
Mn216 O240 2.385 . S
Mn216 O241 2.209 . S
Mn216 O242 2.094 . S
Mn217 O222 2.121 . S
Mn217 N224 2.257 . S
Mn217 N233 2.282 . S
Mn217 O241 2.215 . S
Mn217 O243 2.117 . S
C218 O240 1.234 . S
C218 O241 1.283 . S
C219 O231 1.281 . S
C219 O232 1.236 . S
C220 O242 1.240 . S
C220 O243 1.264 . S
O221 Mn216 2.095 . S
O221 C230 1.250 . S
O222 Mn217 2.121 . S
O222 C230 1.258 . S
C223 N224 1.326 . S
C223 C227 1.460 . S
C223 H229 0.929 . S
N224 Mn217 2.257 . S
N224 C223 1.326 . S
N224 C228 1.362 . S
C225 C226 1.258 . S
C225 C228 1.431 . S
C225 C245 1.449 . S
C226 C225 1.258 . S
C226 C227 1.477 . S
C226 H246 0.931 . S
C227 C223 1.460 . S
C227 C226 1.477 . S
C227 H247 0.930 . S
C228 N224 1.362 . S
C228 C225 1.431 . S
C228 C238 1.476 . S
H229 C223 0.929 . S
C230 O221 1.250 . S
C230 O222 1.258 . S
O231 Mn216 2.162 . S
O231 C219 1.281 . S
O232 Mn216 2.297 . S
O232 C219 1.236 . S
N233 Mn217 2.282 . S
N233 C234 1.328 . S
N233 C238 1.318 . S
C234 N233 1.328 . S
C234 C235 1.457 . S
C234 H239 0.929 . S
C235 C234 1.457 . S
C235 C236 1.291 . S
C235 H248 0.931 . S
C236 C235 1.291 . S
C236 C237 1.373 . S
C236 H249 0.929 . S
C237 C236 1.373 . S
C237 C238 1.396 . S
C237 C244 1.403 . S
C238 C228 1.476 . S
C238 N233 1.318 . S
C238 C237 1.396 . S
H239 C234 0.929 . S
O240 Mn216 2.385 . S
O240 C218 1.234 . S
O241 Mn216 2.209 . S
O241 Mn217 2.215 . S
O241 C218 1.283 . S
O242 Mn216 2.094 . S
O242 C220 1.240 . S
O243 Mn217 2.117 . S
O243 C220 1.264 . S
C244 C237 1.403 . S
C244 C245 1.399 . S
C244 H250 0.929 . S
C245 C225 1.449 . S
C245 C244 1.399 . S
C245 H251 0.930 . S
H246 C226 0.931 . S
H247 C227 0.930 . S
H248 C235 0.931 . S
H249 C236 0.929 . S
H250 C244 0.929 . S
H251 C245 0.930 . S
Mn252 O257 2.095 . S
Mn252 O267 2.162 . S
Mn252 O268 2.297 . S
Mn252 O276 2.385 . S
Mn252 O277 2.209 . S
Mn252 O278 2.094 . S
Mn253 O258 2.121 . S
Mn253 N260 2.257 . S
Mn253 N269 2.282 . S
Mn253 O277 2.215 . S
Mn253 O279 2.117 . S
C254 O276 1.234 . S
C254 O277 1.283 . S
C255 O267 1.281 . S
C255 O268 1.236 . S
C256 O278 1.240 . S
C256 O279 1.264 . S
O257 Mn252 2.095 . S
O257 C266 1.250 . S
O258 Mn253 2.121 . S
O258 C266 1.258 . S
C259 N260 1.326 . S
C259 C263 1.460 . S
C259 H265 0.929 . S
N260 Mn253 2.257 . S
N260 C259 1.326 . S
N260 C264 1.362 . S
C261 C262 1.258 . S
C261 C264 1.431 . S
C261 C281 1.449 . S
C262 C261 1.258 . S
C262 C263 1.477 . S
C262 H282 0.931 . S
C263 C259 1.460 . S
C263 C262 1.477 . S
C263 H283 0.930 . S
C264 N260 1.362 . S
C264 C261 1.431 . S
C264 C274 1.476 . S
H265 C259 0.929 . S
C266 O257 1.250 . S
C266 O258 1.258 . S
O267 Mn252 2.162 . S
O267 C255 1.281 . S
O268 Mn252 2.297 . S
O268 C255 1.236 . S
N269 Mn253 2.282 . S
N269 C270 1.328 . S
N269 C274 1.318 . S
C270 N269 1.328 . S
C270 C271 1.457 . S
C270 H275 0.929 . S
C271 C270 1.457 . S
C271 C272 1.291 . S
C271 H284 0.931 . S
C272 C271 1.291 . S
C272 C273 1.373 . S
C272 H285 0.929 . S
C273 C272 1.373 . S
C273 C274 1.396 . S
C273 C280 1.403 . S
C274 C264 1.476 . S
C274 N269 1.318 . S
C274 C273 1.396 . S
H275 C270 0.929 . S
O276 Mn252 2.385 . S
O276 C254 1.234 . S
O277 Mn252 2.209 . S
O277 Mn253 2.215 . S
O277 C254 1.283 . S
O278 Mn252 2.094 . S
O278 C256 1.240 . S
O279 Mn253 2.117 . S
O279 C256 1.264 . S
C280 C273 1.403 . S
C280 C281 1.399 . S
C280 H286 0.929 . S
C281 C261 1.449 . S
C281 C280 1.399 . S
C281 H287 0.930 . S
H282 C262 0.931 . S
H283 C263 0.930 . S
H284 C271 0.931 . S
H285 C272 0.929 . S
H286 C280 0.929 . S
H287 C281 0.930 . S
Mn288 O293 2.095 . S
Mn288 O303 2.162 . S
Mn288 O304 2.297 . S
Mn288 O312 2.385 . S
Mn288 O313 2.209 . S
Mn288 O314 2.094 . S
Mn289 O294 2.121 . S
Mn289 N296 2.257 . S
Mn289 N305 2.282 . S
Mn289 O313 2.215 . S
Mn289 O315 2.117 . S
C290 O312 1.234 . S
C290 O313 1.283 . S
C291 O303 1.281 . S
C291 O304 1.236 . S
C292 O314 1.240 . S
C292 O315 1.264 . S
O293 Mn288 2.095 . S
O293 C302 1.250 . S
O294 Mn289 2.121 . S
O294 C302 1.258 . S
C295 N296 1.326 . S
C295 C299 1.460 . S
C295 H301 0.929 . S
N296 Mn289 2.257 . S
N296 C295 1.326 . S
N296 C300 1.362 . S
C297 C298 1.258 . S
C297 C300 1.431 . S
C297 C317 1.449 . S
C298 C297 1.258 . S
C298 C299 1.477 . S
C298 H318 0.931 . S
C299 C295 1.460 . S
C299 C298 1.477 . S
C299 H319 0.930 . S
C300 N296 1.362 . S
C300 C297 1.431 . S
C300 C310 1.476 . S
H301 C295 0.929 . S
C302 O293 1.250 . S
C302 O294 1.258 . S
O303 Mn288 2.162 . S
O303 C291 1.281 . S
O304 Mn288 2.297 . S
O304 C291 1.236 . S
N305 Mn289 2.282 . S
N305 C306 1.328 . S
N305 C310 1.318 . S
C306 N305 1.328 . S
C306 C307 1.457 . S
C306 H311 0.929 . S
C307 C306 1.457 . S
C307 C308 1.291 . S
C307 H320 0.931 . S
C308 C307 1.291 . S
C308 C309 1.373 . S
C308 H321 0.929 . S
C309 C308 1.373 . S
C309 C310 1.396 . S
C309 C316 1.403 . S
C310 C300 1.476 . S
C310 N305 1.318 . S
C310 C309 1.396 . S
H311 C306 0.929 . S
O312 Mn288 2.385 . S
O312 C290 1.234 . S
O313 Mn288 2.209 . S
O313 Mn289 2.215 . S
O313 C290 1.283 . S
O314 Mn288 2.094 . S
O314 C292 1.240 . S
O315 Mn289 2.117 . S
O315 C292 1.264 . S
C316 C309 1.403 . S
C316 C317 1.399 . S
C316 H322 0.929 . S
C317 C297 1.449 . S
C317 C316 1.399 . S
C317 H323 0.930 . S
H318 C298 0.931 . S
H319 C299 0.930 . S
H320 C307 0.931 . S
H321 C308 0.929 . S
H322 C316 0.929 . S
H323 C317 0.930 . S
Mn324 O329 2.095 . S
Mn324 O339 2.162 . S
Mn324 O340 2.297 . S
Mn324 O348 2.385 . S
Mn324 O349 2.209 . S
Mn324 O350 2.094 . S
Mn325 O330 2.121 . S
Mn325 N332 2.257 . S
Mn325 N341 2.282 . S
Mn325 O349 2.215 . S
Mn325 O351 2.117 . S
C326 O348 1.234 . S
C326 O349 1.283 . S
C327 O339 1.281 . S
C327 O340 1.236 . S
C328 O350 1.240 . S
C328 O351 1.264 . S
O329 Mn324 2.095 . S
O329 C338 1.250 . S
O330 Mn325 2.121 . S
O330 C338 1.258 . S
C331 N332 1.326 . S
C331 C335 1.460 . S
C331 H337 0.929 . S
N332 Mn325 2.257 . S
N332 C331 1.326 . S
N332 C336 1.362 . S
C333 C334 1.258 . S
C333 C336 1.431 . S
C333 C353 1.449 . S
C334 C333 1.258 . S
C334 C335 1.477 . S
C334 H354 0.931 . S
C335 C331 1.460 . S
C335 C334 1.477 . S
C335 H355 0.930 . S
C336 N332 1.362 . S
C336 C333 1.431 . S
C336 C346 1.476 . S
H337 C331 0.929 . S
C338 O329 1.250 . S
C338 O330 1.258 . S
O339 Mn324 2.162 . S
O339 C327 1.281 . S
O340 Mn324 2.297 . S
O340 C327 1.236 . S
N341 Mn325 2.282 . S
N341 C342 1.328 . S
N341 C346 1.318 . S
C342 N341 1.328 . S
C342 C343 1.457 . S
C342 H347 0.929 . S
C343 C342 1.457 . S
C343 C344 1.291 . S
C343 H356 0.931 . S
C344 C343 1.291 . S
C344 C345 1.373 . S
C344 H357 0.929 . S
C345 C344 1.373 . S
C345 C346 1.396 . S
C345 C352 1.403 . S
C346 C336 1.476 . S
C346 N341 1.318 . S
C346 C345 1.396 . S
H347 C342 0.929 . S
O348 Mn324 2.385 . S
O348 C326 1.234 . S
O349 Mn324 2.209 . S
O349 Mn325 2.215 . S
O349 C326 1.283 . S
O350 Mn324 2.094 . S
O350 C328 1.240 . S
O351 Mn325 2.117 . S
O351 C328 1.264 . S
C352 C345 1.403 . S
C352 C353 1.399 . S
C352 H358 0.929 . S
C353 C333 1.449 . S
C353 C352 1.399 . S
C353 H359 0.930 . S
H354 C334 0.931 . S
H355 C335 0.930 . S
H356 C343 0.931 . S
H357 C344 0.929 . S
H358 C352 0.929 . S
H359 C353 0.930 . S
Mn360 O365 2.095 . S
Mn360 O375 2.162 . S
Mn360 O376 2.297 . S
Mn360 O384 2.385 . S
Mn360 O385 2.209 . S
Mn360 O386 2.094 . S
Mn361 O366 2.121 . S
Mn361 N368 2.257 . S
Mn361 N377 2.282 . S
Mn361 O385 2.215 . S
Mn361 O387 2.117 . S
C362 O384 1.234 . S
C362 O385 1.283 . S
C363 O375 1.281 . S
C363 O376 1.236 . S
C364 O386 1.240 . S
C364 O387 1.264 . S
O365 Mn360 2.095 . S
O365 C374 1.250 . S
O366 Mn361 2.121 . S
O366 C374 1.258 . S
C367 N368 1.326 . S
C367 C371 1.460 . S
C367 H373 0.929 . S
N368 Mn361 2.257 . S
N368 C367 1.326 . S
N368 C372 1.362 . S
C369 C370 1.258 . S
C369 C372 1.431 . S
C369 C389 1.449 . S
C370 C369 1.258 . S
C370 C371 1.477 . S
C370 H390 0.931 . S
C371 C367 1.460 . S
C371 C370 1.477 . S
C371 H391 0.930 . S
C372 N368 1.362 . S
C372 C369 1.431 . S
C372 C382 1.476 . S
H373 C367 0.929 . S
C374 O365 1.250 . S
C374 O366 1.258 . S
O375 Mn360 2.162 . S
O375 C363 1.281 . S
O376 Mn360 2.297 . S
O376 C363 1.236 . S
N377 Mn361 2.282 . S
N377 C378 1.328 . S
N377 C382 1.318 . S
C378 N377 1.328 . S
C378 C379 1.457 . S
C378 H383 0.929 . S
C379 C378 1.457 . S
C379 C380 1.291 . S
C379 H392 0.931 . S
C380 C379 1.291 . S
C380 C381 1.373 . S
C380 H393 0.929 . S
C381 C380 1.373 . S
C381 C382 1.396 . S
C381 C388 1.403 . S
C382 C372 1.476 . S
C382 N377 1.318 . S
C382 C381 1.396 . S
H383 C378 0.929 . S
O384 Mn360 2.385 . S
O384 C362 1.234 . S
O385 Mn360 2.209 . S
O385 Mn361 2.215 . S
O385 C362 1.283 . S
O386 Mn360 2.094 . S
O386 C364 1.240 . S
O387 Mn361 2.117 . S
O387 C364 1.264 . S
C388 C381 1.403 . S
C388 C389 1.399 . S
C388 H394 0.929 . S
C389 C369 1.449 . S
C389 C388 1.399 . S
C389 H395 0.930 . S
H390 C370 0.931 . S
H391 C371 0.930 . S
H392 C379 0.931 . S
H393 C380 0.929 . S
H394 C388 0.929 . S
H395 C389 0.930 . S
Mn396 O401 2.095 . S
Mn396 O411 2.162 . S
Mn396 O412 2.297 . S
Mn396 O420 2.385 . S
Mn396 O421 2.209 . S
Mn396 O422 2.094 . S
Mn397 O402 2.121 . S
Mn397 N404 2.257 . S
Mn397 N413 2.282 . S
Mn397 O421 2.215 . S
Mn397 O423 2.117 . S
C398 O420 1.234 . S
C398 O421 1.283 . S
C399 O411 1.281 . S
C399 O412 1.236 . S
C400 O422 1.240 . S
C400 O423 1.264 . S
O401 Mn396 2.095 . S
O401 C410 1.250 . S
O402 Mn397 2.121 . S
O402 C410 1.258 . S
C403 N404 1.326 . S
C403 C407 1.460 . S
C403 H409 0.929 . S
N404 Mn397 2.257 . S
N404 C403 1.326 . S
N404 C408 1.362 . S
C405 C406 1.258 . S
C405 C408 1.431 . S
C405 C425 1.449 . S
C406 C405 1.258 . S
C406 C407 1.477 . S
C406 H426 0.931 . S
C407 C403 1.460 . S
C407 C406 1.477 . S
C407 H427 0.930 . S
C408 N404 1.362 . S
C408 C405 1.431 . S
C408 C418 1.476 . S
H409 C403 0.929 . S
C410 O401 1.250 . S
C410 O402 1.258 . S
O411 Mn396 2.162 . S
O411 C399 1.281 . S
O412 Mn396 2.297 . S
O412 C399 1.236 . S
N413 Mn397 2.282 . S
N413 C414 1.328 . S
N413 C418 1.318 . S
C414 N413 1.328 . S
C414 C415 1.457 . S
C414 H419 0.929 . S
C415 C414 1.457 . S
C415 C416 1.291 . S
C415 H428 0.931 . S
C416 C415 1.291 . S
C416 C417 1.373 . S
C416 H429 0.929 . S
C417 C416 1.373 . S
C417 C418 1.396 . S
C417 C424 1.403 . S
C418 C408 1.476 . S
C418 N413 1.318 . S
C418 C417 1.396 . S
H419 C414 0.929 . S
O420 Mn396 2.385 . S
O420 C398 1.234 . S
O421 Mn396 2.209 . S
O421 Mn397 2.215 . S
O421 C398 1.283 . S
O422 Mn396 2.094 . S
O422 C400 1.240 . S
O423 Mn397 2.117 . S
O423 C400 1.264 . S
C424 C417 1.403 . S
C424 C425 1.399 . S
C424 H430 0.929 . S
C425 C405 1.449 . S
C425 C424 1.399 . S
C425 H431 0.930 . S
H426 C406 0.931 . S
H427 C407 0.930 . S
H428 C415 0.931 . S
H429 C416 0.929 . S
H430 C424 0.929 . S
H431 C425 0.930 . S
Mn432 O437 2.095 . S
Mn432 O447 2.162 . S
Mn432 O448 2.297 . S
Mn432 O456 2.385 . S
Mn432 O457 2.209 . S
Mn432 O458 2.094 . S
Mn433 O438 2.121 . S
Mn433 N440 2.257 . S
Mn433 N449 2.282 . S
Mn433 O457 2.215 . S
Mn433 O459 2.117 . S
C434 O456 1.234 . S
C434 O457 1.283 . S
C435 O447 1.281 . S
C435 O448 1.236 . S
C436 O458 1.240 . S
C436 O459 1.264 . S
O437 Mn432 2.095 . S
O437 C446 1.250 . S
O438 Mn433 2.121 . S
O438 C446 1.258 . S
C439 N440 1.326 . S
C439 C443 1.460 . S
C439 H445 0.929 . S
N440 Mn433 2.257 . S
N440 C439 1.326 . S
N440 C444 1.362 . S
C441 C442 1.258 . S
C441 C444 1.431 . S
C441 C461 1.449 . S
C442 C441 1.258 . S
C442 C443 1.477 . S
C442 H462 0.931 . S
C443 C439 1.460 . S
C443 C442 1.477 . S
C443 H463 0.930 . S
C444 N440 1.362 . S
C444 C441 1.431 . S
C444 C454 1.476 . S
H445 C439 0.929 . S
C446 O437 1.250 . S
C446 O438 1.258 . S
O447 Mn432 2.162 . S
O447 C435 1.281 . S
O448 Mn432 2.297 . S
O448 C435 1.236 . S
N449 Mn433 2.282 . S
N449 C450 1.328 . S
N449 C454 1.318 . S
C450 N449 1.328 . S
C450 C451 1.457 . S
C450 H455 0.929 . S
C451 C450 1.457 . S
C451 C452 1.291 . S
C451 H464 0.931 . S
C452 C451 1.291 . S
C452 C453 1.373 . S
C452 H465 0.929 . S
C453 C452 1.373 . S
C453 C454 1.396 . S
C453 C460 1.403 . S
C454 C444 1.476 . S
C454 N449 1.318 . S
C454 C453 1.396 . S
H455 C450 0.929 . S
O456 Mn432 2.385 . S
O456 C434 1.234 . S
O457 Mn432 2.209 . S
O457 Mn433 2.215 . S
O457 C434 1.283 . S
O458 Mn432 2.094 . S
O458 C436 1.240 . S
O459 Mn433 2.117 . S
O459 C436 1.264 . S
C460 C453 1.403 . S
C460 C461 1.399 . S
C460 H466 0.929 . S
C461 C441 1.449 . S
C461 C460 1.399 . S
C461 H467 0.930 . S
H462 C442 0.931 . S
H463 C443 0.930 . S
H464 C451 0.931 . S
H465 C452 0.929 . S
H466 C460 0.929 . S
H467 C461 0.930 . S
Mn468 O473 2.095 . S
Mn468 O483 2.162 . S
Mn468 O484 2.297 . S
Mn468 O492 2.385 . S
Mn468 O493 2.209 . S
Mn468 O494 2.094 . S
Mn469 O474 2.121 . S
Mn469 N476 2.257 . S
Mn469 N485 2.282 . S
Mn469 O493 2.215 . S
Mn469 O495 2.117 . S
C470 O492 1.234 . S
C470 O493 1.283 . S
C471 O483 1.281 . S
C471 O484 1.236 . S
C472 O494 1.240 . S
C472 O495 1.264 . S
O473 Mn468 2.095 . S
O473 C482 1.250 . S
O474 Mn469 2.121 . S
O474 C482 1.258 . S
C475 N476 1.326 . S
C475 C479 1.460 . S
C475 H481 0.929 . S
N476 Mn469 2.257 . S
N476 C475 1.326 . S
N476 C480 1.362 . S
C477 C478 1.258 . S
C477 C480 1.431 . S
C477 C497 1.449 . S
C478 C477 1.258 . S
C478 C479 1.477 . S
C478 H498 0.931 . S
C479 C475 1.460 . S
C479 C478 1.477 . S
C479 H499 0.930 . S
C480 N476 1.362 . S
C480 C477 1.431 . S
C480 C490 1.476 . S
H481 C475 0.929 . S
C482 O473 1.250 . S
C482 O474 1.258 . S
O483 Mn468 2.162 . S
O483 C471 1.281 . S
O484 Mn468 2.297 . S
O484 C471 1.236 . S
N485 Mn469 2.282 . S
N485 C486 1.328 . S
N485 C490 1.318 . S
C486 N485 1.328 . S
C486 C487 1.457 . S
C486 H491 0.929 . S
C487 C486 1.457 . S
C487 C488 1.291 . S
C487 H500 0.931 . S
C488 C487 1.291 . S
C488 C489 1.373 . S
C488 H501 0.929 . S
C489 C488 1.373 . S
C489 C490 1.396 . S
C489 C496 1.403 . S
C490 C480 1.476 . S
C490 N485 1.318 . S
C490 C489 1.396 . S
H491 C486 0.929 . S
O492 Mn468 2.385 . S
O492 C470 1.234 . S
O493 Mn468 2.209 . S
O493 Mn469 2.215 . S
O493 C470 1.283 . S
O494 Mn468 2.094 . S
O494 C472 1.240 . S
O495 Mn469 2.117 . S
O495 C472 1.264 . S
C496 C489 1.403 . S
C496 C497 1.399 . S
C496 H502 0.929 . S
C497 C477 1.449 . S
C497 C496 1.399 . S
C497 H503 0.930 . S
H498 C478 0.931 . S
H499 C479 0.930 . S
H500 C487 0.931 . S
H501 C488 0.929 . S
H502 C496 0.929 . S
H503 C497 0.930 . S
Mn504 O509 2.095 . S
Mn504 O519 2.162 . S
Mn504 O520 2.297 . S
Mn504 O528 2.385 . S
Mn504 O529 2.209 . S
Mn504 O530 2.094 . S
Mn505 O510 2.121 . S
Mn505 N512 2.257 . S
Mn505 N521 2.282 . S
Mn505 O529 2.215 . S
Mn505 O531 2.117 . S
C506 O528 1.234 . S
C506 O529 1.283 . S
C507 O519 1.281 . S
C507 O520 1.236 . S
C508 O530 1.240 . S
C508 O531 1.264 . S
O509 Mn504 2.095 . S
O509 C518 1.250 . S
O510 Mn505 2.121 . S
O510 C518 1.258 . S
C511 N512 1.326 . S
C511 C515 1.460 . S
C511 H517 0.929 . S
N512 Mn505 2.257 . S
N512 C511 1.326 . S
N512 C516 1.362 . S
C513 C514 1.258 . S
C513 C516 1.431 . S
C513 C533 1.449 . S
C514 C513 1.258 . S
C514 C515 1.477 . S
C514 H534 0.931 . S
C515 C511 1.460 . S
C515 C514 1.477 . S
C515 H535 0.930 . S
C516 N512 1.362 . S
C516 C513 1.431 . S
C516 C526 1.476 . S
H517 C511 0.929 . S
C518 O509 1.250 . S
C518 O510 1.258 . S
O519 Mn504 2.162 . S
O519 C507 1.281 . S
O520 Mn504 2.297 . S
O520 C507 1.236 . S
N521 Mn505 2.282 . S
N521 C522 1.328 . S
N521 C526 1.318 . S
C522 N521 1.328 . S
C522 C523 1.457 . S
C522 H527 0.929 . S
C523 C522 1.457 . S
C523 C524 1.291 . S
C523 H536 0.931 . S
C524 C523 1.291 . S
C524 C525 1.373 . S
C524 H537 0.929 . S
C525 C524 1.373 . S
C525 C526 1.396 . S
C525 C532 1.403 . S
C526 C516 1.476 . S
C526 N521 1.318 . S
C526 C525 1.396 . S
H527 C522 0.929 . S
O528 Mn504 2.385 . S
O528 C506 1.234 . S
O529 Mn504 2.209 . S
O529 Mn505 2.215 . S
O529 C506 1.283 . S
O530 Mn504 2.094 . S
O530 C508 1.240 . S
O531 Mn505 2.117 . S
O531 C508 1.264 . S
C532 C525 1.403 . S
C532 C533 1.399 . S
C532 H538 0.929 . S
C533 C513 1.449 . S
C533 C532 1.399 . S
C533 H539 0.930 . S
H534 C514 0.931 . S
H535 C515 0.930 . S
H536 C523 0.931 . S
H537 C524 0.929 . S
H538 C532 0.929 . S
H539 C533 0.930 . S
Mn540 O545 2.095 . S
Mn540 O555 2.162 . S
Mn540 O556 2.297 . S
Mn540 O564 2.385 . S
Mn540 O565 2.209 . S
Mn540 O566 2.094 . S
Mn541 O546 2.121 . S
Mn541 N548 2.257 . S
Mn541 N557 2.282 . S
Mn541 O565 2.215 . S
Mn541 O567 2.117 . S
C542 O564 1.234 . S
C542 O565 1.283 . S
C543 O555 1.281 . S
C543 O556 1.236 . S
C544 O566 1.240 . S
C544 O567 1.264 . S
O545 Mn540 2.095 . S
O545 C554 1.250 . S
O546 Mn541 2.121 . S
O546 C554 1.258 . S
C547 N548 1.326 . S
C547 C551 1.460 . S
C547 H553 0.929 . S
N548 Mn541 2.257 . S
N548 C547 1.326 . S
N548 C552 1.362 . S
C549 C550 1.258 . S
C549 C552 1.431 . S
C549 C569 1.449 . S
C550 C549 1.258 . S
C550 C551 1.477 . S
C550 H570 0.931 . S
C551 C547 1.460 . S
C551 C550 1.477 . S
C551 H571 0.930 . S
C552 N548 1.362 . S
C552 C549 1.431 . S
C552 C562 1.476 . S
H553 C547 0.929 . S
C554 O545 1.250 . S
C554 O546 1.258 . S
O555 Mn540 2.162 . S
O555 C543 1.281 . S
O556 Mn540 2.297 . S
O556 C543 1.236 . S
N557 Mn541 2.282 . S
N557 C558 1.328 . S
N557 C562 1.318 . S
C558 N557 1.328 . S
C558 C559 1.457 . S
C558 H563 0.929 . S
C559 C558 1.457 . S
C559 C560 1.291 . S
C559 H572 0.931 . S
C560 C559 1.291 . S
C560 C561 1.373 . S
C560 H573 0.929 . S
C561 C560 1.373 . S
C561 C562 1.396 . S
C561 C568 1.403 . S
C562 C552 1.476 . S
C562 N557 1.318 . S
C562 C561 1.396 . S
H563 C558 0.929 . S
O564 Mn540 2.385 . S
O564 C542 1.234 . S
O565 Mn540 2.209 . S
O565 Mn541 2.215 . S
O565 C542 1.283 . S
O566 Mn540 2.094 . S
O566 C544 1.240 . S
O567 Mn541 2.117 . S
O567 C544 1.264 . S
C568 C561 1.403 . S
C568 C569 1.399 . S
C568 H574 0.929 . S
C569 C549 1.449 . S
C569 C568 1.399 . S
C569 H575 0.930 . S
H570 C550 0.931 . S
H571 C551 0.930 . S
H572 C559 0.931 . S
H573 C560 0.929 . S
H574 C568 0.929 . S
H575 C569 0.930 . S
Mn576 O581 2.095 . S
Mn576 O591 2.162 . S
Mn576 O592 2.297 . S
Mn576 O600 2.385 . S
Mn576 O601 2.209 . S
Mn576 O602 2.094 . S
Mn577 O582 2.121 . S
Mn577 N584 2.257 . S
Mn577 N593 2.282 . S
Mn577 O601 2.215 . S
Mn577 O603 2.117 . S
C578 O600 1.234 . S
C578 O601 1.283 . S
C579 O591 1.281 . S
C579 O592 1.236 . S
C580 O602 1.240 . S
C580 O603 1.264 . S
O581 Mn576 2.095 . S
O581 C590 1.250 . S
O582 Mn577 2.121 . S
O582 C590 1.258 . S
C583 N584 1.326 . S
C583 C587 1.460 . S
C583 H589 0.929 . S
N584 Mn577 2.257 . S
N584 C583 1.326 . S
N584 C588 1.362 . S
C585 C586 1.258 . S
C585 C588 1.431 . S
C585 C605 1.449 . S
C586 C585 1.258 . S
C586 C587 1.477 . S
C586 H606 0.931 . S
C587 C583 1.460 . S
C587 C586 1.477 . S
C587 H607 0.930 . S
C588 N584 1.362 . S
C588 C585 1.431 . S
C588 C598 1.476 . S
H589 C583 0.929 . S
C590 O581 1.250 . S
C590 O582 1.258 . S
O591 Mn576 2.162 . S
O591 C579 1.281 . S
O592 Mn576 2.297 . S
O592 C579 1.236 . S
N593 Mn577 2.282 . S
N593 C594 1.328 . S
N593 C598 1.318 . S
C594 N593 1.328 . S
C594 C595 1.457 . S
C594 H599 0.929 . S
C595 C594 1.457 . S
C595 C596 1.291 . S
C595 H608 0.931 . S
C596 C595 1.291 . S
C596 C597 1.373 . S
C596 H609 0.929 . S
C597 C596 1.373 . S
C597 C598 1.396 . S
C597 C604 1.403 . S
C598 C588 1.476 . S
C598 N593 1.318 . S
C598 C597 1.396 . S
H599 C594 0.929 . S
O600 Mn576 2.385 . S
O600 C578 1.234 . S
O601 Mn576 2.209 . S
O601 Mn577 2.215 . S
O601 C578 1.283 . S
O602 Mn576 2.094 . S
O602 C580 1.240 . S
O603 Mn577 2.117 . S
O603 C580 1.264 . S
C604 C597 1.403 . S
C604 C605 1.399 . S
C604 H610 0.929 . S
C605 C585 1.449 . S
C605 C604 1.399 . S
C605 H611 0.930 . S
H606 C586 0.931 . S
H607 C587 0.930 . S
H608 C595 0.931 . S
H609 C596 0.929 . S
H610 C604 0.929 . S
H611 C605 0.930 . S
Mn612 O617 2.095 . S
Mn612 O627 2.162 . S
Mn612 O628 2.297 . S
Mn612 O636 2.385 . S
Mn612 O637 2.209 . S
Mn612 O638 2.094 . S
Mn613 O618 2.121 . S
Mn613 N620 2.257 . S
Mn613 N629 2.282 . S
Mn613 O637 2.215 . S
Mn613 O639 2.117 . S
C614 O636 1.234 . S
C614 O637 1.283 . S
C615 O627 1.281 . S
C615 O628 1.236 . S
C616 O638 1.240 . S
C616 O639 1.264 . S
O617 Mn612 2.095 . S
O617 C626 1.250 . S
O618 Mn613 2.121 . S
O618 C626 1.258 . S
C619 N620 1.326 . S
C619 C623 1.460 . S
C619 H625 0.929 . S
N620 Mn613 2.257 . S
N620 C619 1.326 . S
N620 C624 1.362 . S
C621 C622 1.258 . S
C621 C624 1.431 . S
C621 C641 1.449 . S
C622 C621 1.258 . S
C622 C623 1.477 . S
C622 H642 0.931 . S
C623 C619 1.460 . S
C623 C622 1.477 . S
C623 H643 0.930 . S
C624 N620 1.362 . S
C624 C621 1.431 . S
C624 C634 1.476 . S
H625 C619 0.929 . S
C626 O617 1.250 . S
C626 O618 1.258 . S
O627 Mn612 2.162 . S
O627 C615 1.281 . S
O628 Mn612 2.297 . S
O628 C615 1.236 . S
N629 Mn613 2.282 . S
N629 C630 1.328 . S
N629 C634 1.318 . S
C630 N629 1.328 . S
C630 C631 1.457 . S
C630 H635 0.929 . S
C631 C630 1.457 . S
C631 C632 1.291 . S
C631 H644 0.931 . S
C632 C631 1.291 . S
C632 C633 1.373 . S
C632 H645 0.929 . S
C633 C632 1.373 . S
C633 C634 1.396 . S
C633 C640 1.403 . S
C634 C624 1.476 . S
C634 N629 1.318 . S
C634 C633 1.396 . S
H635 C630 0.929 . S
O636 Mn612 2.385 . S
O636 C614 1.234 . S
O637 Mn612 2.209 . S
O637 Mn613 2.215 . S
O637 C614 1.283 . S
O638 Mn612 2.094 . S
O638 C616 1.240 . S
O639 Mn613 2.117 . S
O639 C616 1.264 . S
C640 C633 1.403 . S
C640 C641 1.399 . S
C640 H646 0.929 . S
C641 C621 1.449 . S
C641 C640 1.399 . S
C641 H647 0.930 . S
H642 C622 0.931 . S
H643 C623 0.930 . S
H644 C631 0.931 . S
H645 C632 0.929 . S
H646 C640 0.929 . S
H647 C641 0.930 . S
Mn648 O653 2.095 . S
Mn648 O663 2.162 . S
Mn648 O664 2.297 . S
Mn648 O672 2.385 . S
Mn648 O673 2.209 . S
Mn648 O674 2.094 . S
Mn649 O654 2.121 . S
Mn649 N656 2.257 . S
Mn649 N665 2.282 . S
Mn649 O673 2.215 . S
Mn649 O675 2.117 . S
C650 O672 1.234 . S
C650 O673 1.283 . S
C651 O663 1.281 . S
C651 O664 1.236 . S
C652 O674 1.240 . S
C652 O675 1.264 . S
O653 Mn648 2.095 . S
O653 C662 1.250 . S
O654 Mn649 2.121 . S
O654 C662 1.258 . S
C655 N656 1.326 . S
C655 C659 1.460 . S
C655 H661 0.929 . S
N656 Mn649 2.257 . S
N656 C655 1.326 . S
N656 C660 1.362 . S
C657 C658 1.258 . S
C657 C660 1.431 . S
C657 C677 1.449 . S
C658 C657 1.258 . S
C658 C659 1.477 . S
C658 H678 0.931 . S
C659 C655 1.460 . S
C659 C658 1.477 . S
C659 H679 0.930 . S
C660 N656 1.362 . S
C660 C657 1.431 . S
C660 C670 1.476 . S
H661 C655 0.929 . S
C662 O653 1.250 . S
C662 O654 1.258 . S
O663 Mn648 2.162 . S
O663 C651 1.281 . S
O664 Mn648 2.297 . S
O664 C651 1.236 . S
N665 Mn649 2.282 . S
N665 C666 1.328 . S
N665 C670 1.318 . S
C666 N665 1.328 . S
C666 C667 1.457 . S
C666 H671 0.929 . S
C667 C666 1.457 . S
C667 C668 1.291 . S
C667 H680 0.931 . S
C668 C667 1.291 . S
C668 C669 1.373 . S
C668 H681 0.929 . S
C669 C668 1.373 . S
C669 C670 1.396 . S
C669 C676 1.403 . S
C670 C660 1.476 . S
C670 N665 1.318 . S
C670 C669 1.396 . S
H671 C666 0.929 . S
O672 Mn648 2.385 . S
O672 C650 1.234 . S
O673 Mn648 2.209 . S
O673 Mn649 2.215 . S
O673 C650 1.283 . S
O674 Mn648 2.094 . S
O674 C652 1.240 . S
O675 Mn649 2.117 . S
O675 C652 1.264 . S
C676 C669 1.403 . S
C676 C677 1.399 . S
C676 H682 0.929 . S
C677 C657 1.449 . S
C677 C676 1.399 . S
C677 H683 0.930 . S
H678 C658 0.931 . S
H679 C659 0.930 . S
H680 C667 0.931 . S
H681 C668 0.929 . S
H682 C676 0.929 . S
H683 C677 0.930 . S
Mn684 O689 2.095 . S
Mn684 O699 2.162 . S
Mn684 O700 2.297 . S
Mn684 O708 2.385 . S
Mn684 O709 2.209 . S
Mn684 O710 2.094 . S
Mn685 O690 2.121 . S
Mn685 N692 2.257 . S
Mn685 N701 2.282 . S
Mn685 O709 2.215 . S
Mn685 O711 2.117 . S
C686 O708 1.234 . S
C686 O709 1.283 . S
C687 O699 1.281 . S
C687 O700 1.236 . S
C688 O710 1.240 . S
C688 O711 1.264 . S
O689 Mn684 2.095 . S
O689 C698 1.250 . S
O690 Mn685 2.121 . S
O690 C698 1.258 . S
C691 N692 1.326 . S
C691 C695 1.460 . S
C691 H697 0.929 . S
N692 Mn685 2.257 . S
N692 C691 1.326 . S
N692 C696 1.362 . S
C693 C694 1.258 . S
C693 C696 1.431 . S
C693 C713 1.449 . S
C694 C693 1.258 . S
C694 C695 1.477 . S
C694 H714 0.931 . S
C695 C691 1.460 . S
C695 C694 1.477 . S
C695 H715 0.930 . S
C696 N692 1.362 . S
C696 C693 1.431 . S
C696 C706 1.476 . S
H697 C691 0.929 . S
C698 O689 1.250 . S
C698 O690 1.258 . S
O699 Mn684 2.162 . S
O699 C687 1.281 . S
O700 Mn684 2.297 . S
O700 C687 1.236 . S
N701 Mn685 2.282 . S
N701 C702 1.328 . S
N701 C706 1.318 . S
C702 N701 1.328 . S
C702 C703 1.457 . S
C702 H707 0.929 . S
C703 C702 1.457 . S
C703 C704 1.291 . S
C703 H716 0.931 . S
C704 C703 1.291 . S
C704 C705 1.373 . S
C704 H717 0.929 . S
C705 C704 1.373 . S
C705 C706 1.396 . S
C705 C712 1.403 . S
C706 C696 1.476 . S
C706 N701 1.318 . S
C706 C705 1.396 . S
H707 C702 0.929 . S
O708 Mn684 2.385 . S
O708 C686 1.234 . S
O709 Mn684 2.209 . S
O709 Mn685 2.215 . S
O709 C686 1.283 . S
O710 Mn684 2.094 . S
O710 C688 1.240 . S
O711 Mn685 2.117 . S
O711 C688 1.264 . S
C712 C705 1.403 . S
C712 C713 1.399 . S
C712 H718 0.929 . S
C713 C693 1.449 . S
C713 C712 1.399 . S
C713 H719 0.930 . S
H714 C694 0.931 . S
H715 C695 0.930 . S
H716 C703 0.931 . S
H717 C704 0.929 . S
H718 C712 0.929 . S
H719 C713 0.930 . S
Mn720 O725 2.095 . S
Mn720 O735 2.162 . S
Mn720 O736 2.297 . S
Mn720 O744 2.385 . S
Mn720 O745 2.209 . S
Mn720 O746 2.094 . S
Mn721 O726 2.121 . S
Mn721 N728 2.257 . S
Mn721 N737 2.282 . S
Mn721 O745 2.215 . S
Mn721 O747 2.117 . S
C722 O744 1.234 . S
C722 O745 1.283 . S
C723 O735 1.281 . S
C723 O736 1.236 . S
C724 O746 1.240 . S
C724 O747 1.264 . S
O725 Mn720 2.095 . S
O725 C734 1.250 . S
O726 Mn721 2.121 . S
O726 C734 1.258 . S
C727 N728 1.326 . S
C727 C731 1.460 . S
C727 H733 0.929 . S
N728 Mn721 2.257 . S
N728 C727 1.326 . S
N728 C732 1.362 . S
C729 C730 1.258 . S
C729 C732 1.431 . S
C729 C749 1.449 . S
C730 C729 1.258 . S
C730 C731 1.477 . S
C730 H750 0.931 . S
C731 C727 1.460 . S
C731 C730 1.477 . S
C731 H751 0.930 . S
C732 N728 1.362 . S
C732 C729 1.431 . S
C732 C742 1.476 . S
H733 C727 0.929 . S
C734 O725 1.250 . S
C734 O726 1.258 . S
O735 Mn720 2.162 . S
O735 C723 1.281 . S
O736 Mn720 2.297 . S
O736 C723 1.236 . S
N737 Mn721 2.282 . S
N737 C738 1.328 . S
N737 C742 1.318 . S
C738 N737 1.328 . S
C738 C739 1.457 . S
C738 H743 0.929 . S
C739 C738 1.457 . S
C739 C740 1.291 . S
C739 H752 0.931 . S
C740 C739 1.291 . S
C740 C741 1.373 . S
C740 H753 0.929 . S
C741 C740 1.373 . S
C741 C742 1.396 . S
C741 C748 1.403 . S
C742 C732 1.476 . S
C742 N737 1.318 . S
C742 C741 1.396 . S
H743 C738 0.929 . S
O744 Mn720 2.385 . S
O744 C722 1.234 . S
O745 Mn720 2.209 . S
O745 Mn721 2.215 . S
O745 C722 1.283 . S
O746 Mn720 2.094 . S
O746 C724 1.240 . S
O747 Mn721 2.117 . S
O747 C724 1.264 . S
C748 C741 1.403 . S
C748 C749 1.399 . S
C748 H754 0.929 . S
C749 C729 1.449 . S
C749 C748 1.399 . S
C749 H755 0.930 . S
H750 C730 0.931 . S
H751 C731 0.930 . S
H752 C739 0.931 . S
H753 C740 0.929 . S
H754 C748 0.929 . S
H755 C749 0.930 . S
Mn756 O761 2.095 . S
Mn756 O771 2.162 . S
Mn756 O772 2.297 . S
Mn756 O780 2.385 . S
Mn756 O781 2.209 . S
Mn756 O782 2.094 . S
Mn757 O762 2.121 . S
Mn757 N764 2.257 . S
Mn757 N773 2.282 . S
Mn757 O781 2.215 . S
Mn757 O783 2.117 . S
C758 O780 1.234 . S
C758 O781 1.283 . S
C759 O771 1.281 . S
C759 O772 1.236 . S
C760 O782 1.240 . S
C760 O783 1.264 . S
O761 Mn756 2.095 . S
O761 C770 1.250 . S
O762 Mn757 2.121 . S
O762 C770 1.258 . S
C763 N764 1.326 . S
C763 C767 1.460 . S
C763 H769 0.929 . S
N764 Mn757 2.257 . S
N764 C763 1.326 . S
N764 C768 1.362 . S
C765 C766 1.258 . S
C765 C768 1.431 . S
C765 C785 1.449 . S
C766 C765 1.258 . S
C766 C767 1.477 . S
C766 H786 0.931 . S
C767 C763 1.460 . S
C767 C766 1.477 . S
C767 H787 0.930 . S
C768 N764 1.362 . S
C768 C765 1.431 . S
C768 C778 1.476 . S
H769 C763 0.929 . S
C770 O761 1.250 . S
C770 O762 1.258 . S
O771 Mn756 2.162 . S
O771 C759 1.281 . S
O772 Mn756 2.297 . S
O772 C759 1.236 . S
N773 Mn757 2.282 . S
N773 C774 1.328 . S
N773 C778 1.318 . S
C774 N773 1.328 . S
C774 C775 1.457 . S
C774 H779 0.929 . S
C775 C774 1.457 . S
C775 C776 1.291 . S
C775 H788 0.931 . S
C776 C775 1.291 . S
C776 C777 1.373 . S
C776 H789 0.929 . S
C777 C776 1.373 . S
C777 C778 1.396 . S
C777 C784 1.403 . S
C778 C768 1.476 . S
C778 N773 1.318 . S
C778 C777 1.396 . S
H779 C774 0.929 . S
O780 Mn756 2.385 . S
O780 C758 1.234 . S
O781 Mn756 2.209 . S
O781 Mn757 2.215 . S
O781 C758 1.283 . S
O782 Mn756 2.094 . S
O782 C760 1.240 . S
O783 Mn757 2.117 . S
O783 C760 1.264 . S
C784 C777 1.403 . S
C784 C785 1.399 . S
C784 H790 0.929 . S
C785 C765 1.449 . S
C785 C784 1.399 . S
C785 H791 0.930 . S
H786 C766 0.931 . S
H787 C767 0.930 . S
H788 C775 0.931 . S
H789 C776 0.929 . S
H790 C784 0.929 . S
H791 C785 0.930 . S
Mn792 O797 2.095 . S
Mn792 O807 2.162 . S
Mn792 O808 2.297 . S
Mn792 O816 2.385 . S
Mn792 O817 2.209 . S
Mn792 O818 2.094 . S
Mn793 O798 2.121 . S
Mn793 N800 2.257 . S
Mn793 N809 2.282 . S
Mn793 O817 2.215 . S
Mn793 O819 2.117 . S
C794 O816 1.234 . S
C794 O817 1.283 . S
C795 O807 1.281 . S
C795 O808 1.236 . S
C796 O818 1.240 . S
C796 O819 1.264 . S
O797 Mn792 2.095 . S
O797 C806 1.250 . S
O798 Mn793 2.121 . S
O798 C806 1.258 . S
C799 N800 1.326 . S
C799 C803 1.460 . S
C799 H805 0.929 . S
N800 Mn793 2.257 . S
N800 C799 1.326 . S
N800 C804 1.362 . S
C801 C802 1.258 . S
C801 C804 1.431 . S
C801 C821 1.449 . S
C802 C801 1.258 . S
C802 C803 1.477 . S
C802 H822 0.931 . S
C803 C799 1.460 . S
C803 C802 1.477 . S
C803 H823 0.930 . S
C804 N800 1.362 . S
C804 C801 1.431 . S
C804 C814 1.476 . S
H805 C799 0.929 . S
C806 O797 1.250 . S
C806 O798 1.258 . S
O807 Mn792 2.162 . S
O807 C795 1.281 . S
O808 Mn792 2.297 . S
O808 C795 1.236 . S
N809 Mn793 2.282 . S
N809 C810 1.328 . S
N809 C814 1.318 . S
C810 N809 1.328 . S
C810 C811 1.457 . S
C810 H815 0.929 . S
C811 C810 1.457 . S
C811 C812 1.291 . S
C811 H824 0.931 . S
C812 C811 1.291 . S
C812 C813 1.373 . S
C812 H825 0.929 . S
C813 C812 1.373 . S
C813 C814 1.396 . S
C813 C820 1.403 . S
C814 C804 1.476 . S
C814 N809 1.318 . S
C814 C813 1.396 . S
H815 C810 0.929 . S
O816 Mn792 2.385 . S
O816 C794 1.234 . S
O817 Mn792 2.209 . S
O817 Mn793 2.215 . S
O817 C794 1.283 . S
O818 Mn792 2.094 . S
O818 C796 1.240 . S
O819 Mn793 2.117 . S
O819 C796 1.264 . S
C820 C813 1.403 . S
C820 C821 1.399 . S
C820 H826 0.929 . S
C821 C801 1.449 . S
C821 C820 1.399 . S
C821 H827 0.930 . S
H822 C802 0.931 . S
H823 C803 0.930 . S
H824 C811 0.931 . S
H825 C812 0.929 . S
H826 C820 0.929 . S
H827 C821 0.930 . S
Mn828 O833 2.095 . S
Mn828 O843 2.162 . S
Mn828 O844 2.297 . S
Mn828 O852 2.385 . S
Mn828 O853 2.209 . S
Mn828 O854 2.094 . S
Mn829 O834 2.121 . S
Mn829 N836 2.257 . S
Mn829 N845 2.282 . S
Mn829 O853 2.215 . S
Mn829 O855 2.117 . S
C830 O852 1.234 . S
C830 O853 1.283 . S
C831 O843 1.281 . S
C831 O844 1.236 . S
C832 O854 1.240 . S
C832 O855 1.264 . S
O833 Mn828 2.095 . S
O833 C842 1.250 . S
O834 Mn829 2.121 . S
O834 C842 1.258 . S
C835 N836 1.326 . S
C835 C839 1.460 . S
C835 H841 0.929 . S
N836 Mn829 2.257 . S
N836 C835 1.326 . S
N836 C840 1.362 . S
C837 C838 1.258 . S
C837 C840 1.431 . S
C837 C857 1.449 . S
C838 C837 1.258 . S
C838 C839 1.477 . S
C838 H858 0.931 . S
C839 C835 1.460 . S
C839 C838 1.477 . S
C839 H859 0.930 . S
C840 N836 1.362 . S
C840 C837 1.431 . S
C840 C850 1.476 . S
H841 C835 0.929 . S
C842 O833 1.250 . S
C842 O834 1.258 . S
O843 Mn828 2.162 . S
O843 C831 1.281 . S
O844 Mn828 2.297 . S
O844 C831 1.236 . S
N845 Mn829 2.282 . S
N845 C846 1.328 . S
N845 C850 1.318 . S
C846 N845 1.328 . S
C846 C847 1.457 . S
C846 H851 0.929 . S
C847 C846 1.457 . S
C847 C848 1.291 . S
C847 H860 0.931 . S
C848 C847 1.291 . S
C848 C849 1.373 . S
C848 H861 0.929 . S
C849 C848 1.373 . S
C849 C850 1.396 . S
C849 C856 1.403 . S
C850 C840 1.476 . S
C850 N845 1.318 . S
C850 C849 1.396 . S
H851 C846 0.929 . S
O852 Mn828 2.385 . S
O852 C830 1.234 . S
O853 Mn828 2.209 . S
O853 Mn829 2.215 . S
O853 C830 1.283 . S
O854 Mn828 2.094 . S
O854 C832 1.240 . S
O855 Mn829 2.117 . S
O855 C832 1.264 . S
C856 C849 1.403 . S
C856 C857 1.399 . S
C856 H862 0.929 . S
C857 C837 1.449 . S
C857 C856 1.399 . S
C857 H863 0.930 . S
H858 C838 0.931 . S
H859 C839 0.930 . S
H860 C847 0.931 . S
H861 C848 0.929 . S
H862 C856 0.929 . S
H863 C857 0.930 . S
Mn864 O869 2.095 . S
Mn864 O879 2.162 . S
Mn864 O880 2.297 . S
Mn864 O888 2.385 . S
Mn864 O889 2.209 . S
Mn864 O890 2.094 . S
Mn865 O870 2.121 . S
Mn865 N872 2.257 . S
Mn865 N881 2.282 . S
Mn865 O889 2.215 . S
Mn865 O891 2.117 . S
C866 O888 1.234 . S
C866 O889 1.283 . S
C867 O879 1.281 . S
C867 O880 1.236 . S
C868 O890 1.240 . S
C868 O891 1.264 . S
O869 Mn864 2.095 . S
O869 C878 1.250 . S
O870 Mn865 2.121 . S
O870 C878 1.258 . S
C871 N872 1.326 . S
C871 C875 1.460 . S
C871 H877 0.929 . S
N872 Mn865 2.257 . S
N872 C871 1.326 . S
N872 C876 1.362 . S
C873 C874 1.258 . S
C873 C876 1.431 . S
C873 C893 1.449 . S
C874 C873 1.258 . S
C874 C875 1.477 . S
C874 H894 0.931 . S
C875 C871 1.460 . S
C875 C874 1.477 . S
C875 H895 0.930 . S
C876 N872 1.362 . S
C876 C873 1.431 . S
C876 C886 1.476 . S
H877 C871 0.929 . S
C878 O869 1.250 . S
C878 O870 1.258 . S
O879 Mn864 2.162 . S
O879 C867 1.281 . S
O880 Mn864 2.297 . S
O880 C867 1.236 . S
N881 Mn865 2.282 . S
N881 C882 1.328 . S
N881 C886 1.318 . S
C882 N881 1.328 . S
C882 C883 1.457 . S
C882 H887 0.929 . S
C883 C882 1.457 . S
C883 C884 1.291 . S
C883 H896 0.931 . S
C884 C883 1.291 . S
C884 C885 1.373 . S
C884 H897 0.929 . S
C885 C884 1.373 . S
C885 C886 1.396 . S
C885 C892 1.403 . S
C886 C876 1.476 . S
C886 N881 1.318 . S
C886 C885 1.396 . S
H887 C882 0.929 . S
O888 Mn864 2.385 . S
O888 C866 1.234 . S
O889 Mn864 2.209 . S
O889 Mn865 2.215 . S
O889 C866 1.283 . S
O890 Mn864 2.094 . S
O890 C868 1.240 . S
O891 Mn865 2.117 . S
O891 C868 1.264 . S
C892 C885 1.403 . S
C892 C893 1.399 . S
C892 H898 0.929 . S
C893 C873 1.449 . S
C893 C892 1.399 . S
C893 H899 0.930 . S
H894 C874 0.931 . S
H895 C875 0.930 . S
H896 C883 0.931 . S
H897 C884 0.929 . S
H898 C892 0.929 . S
H899 C893 0.930 . S
Mn900 O905 2.095 . S
Mn900 O915 2.162 . S
Mn900 O916 2.297 . S
Mn900 O924 2.385 . S
Mn900 O925 2.209 . S
Mn900 O926 2.094 . S
Mn901 O906 2.121 . S
Mn901 N908 2.257 . S
Mn901 N917 2.282 . S
Mn901 O925 2.215 . S
Mn901 O927 2.117 . S
C902 O924 1.234 . S
C902 O925 1.283 . S
C903 O915 1.281 . S
C903 O916 1.236 . S
C904 O926 1.240 . S
C904 O927 1.264 . S
O905 Mn900 2.095 . S
O905 C914 1.250 . S
O906 Mn901 2.121 . S
O906 C914 1.258 . S
C907 N908 1.326 . S
C907 C911 1.460 . S
C907 H913 0.929 . S
N908 Mn901 2.257 . S
N908 C907 1.326 . S
N908 C912 1.362 . S
C909 C910 1.258 . S
C909 C912 1.431 . S
C909 C929 1.449 . S
C910 C909 1.258 . S
C910 C911 1.477 . S
C910 H930 0.931 . S
C911 C907 1.460 . S
C911 C910 1.477 . S
C911 H931 0.930 . S
C912 N908 1.362 . S
C912 C909 1.431 . S
C912 C922 1.476 . S
H913 C907 0.929 . S
C914 O905 1.250 . S
C914 O906 1.258 . S
O915 Mn900 2.162 . S
O915 C903 1.281 . S
O916 Mn900 2.297 . S
O916 C903 1.236 . S
N917 Mn901 2.282 . S
N917 C918 1.328 . S
N917 C922 1.318 . S
C918 N917 1.328 . S
C918 C919 1.457 . S
C918 H923 0.929 . S
C919 C918 1.457 . S
C919 C920 1.291 . S
C919 H932 0.931 . S
C920 C919 1.291 . S
C920 C921 1.373 . S
C920 H933 0.929 . S
C921 C920 1.373 . S
C921 C922 1.396 . S
C921 C928 1.403 . S
C922 C912 1.476 . S
C922 N917 1.318 . S
C922 C921 1.396 . S
H923 C918 0.929 . S
O924 Mn900 2.385 . S
O924 C902 1.234 . S
O925 Mn900 2.209 . S
O925 Mn901 2.215 . S
O925 C902 1.283 . S
O926 Mn900 2.094 . S
O926 C904 1.240 . S
O927 Mn901 2.117 . S
O927 C904 1.264 . S
C928 C921 1.403 . S
C928 C929 1.399 . S
C928 H934 0.929 . S
C929 C909 1.449 . S
C929 C928 1.399 . S
C929 H935 0.930 . S
H930 C910 0.931 . S
H931 C911 0.930 . S
H932 C919 0.931 . S
H933 C920 0.929 . S
H934 C928 0.929 . S
H935 C929 0.930 . S
Mn936 O941 2.095 . S
Mn936 O951 2.162 . S
Mn936 O952 2.297 . S
Mn936 O960 2.385 . S
Mn936 O961 2.209 . S
Mn936 O962 2.094 . S
Mn937 O942 2.121 . S
Mn937 N944 2.257 . S
Mn937 N953 2.282 . S
Mn937 O961 2.215 . S
Mn937 O963 2.117 . S
C938 O960 1.234 . S
C938 O961 1.283 . S
C939 O951 1.281 . S
C939 O952 1.236 . S
C940 O962 1.240 . S
C940 O963 1.264 . S
O941 Mn936 2.095 . S
O941 C950 1.250 . S
O942 Mn937 2.121 . S
O942 C950 1.258 . S
C943 N944 1.326 . S
C943 C947 1.460 . S
C943 H949 0.929 . S
N944 Mn937 2.257 . S
N944 C943 1.326 . S
N944 C948 1.362 . S
C945 C946 1.258 . S
C945 C948 1.431 . S
C945 C965 1.449 . S
C946 C945 1.258 . S
C946 C947 1.477 . S
C946 H966 0.931 . S
C947 C943 1.460 . S
C947 C946 1.477 . S
C947 H967 0.930 . S
C948 N944 1.362 . S
C948 C945 1.431 . S
C948 C958 1.476 . S
H949 C943 0.929 . S
C950 O941 1.250 . S
C950 O942 1.258 . S
O951 Mn936 2.162 . S
O951 C939 1.281 . S
O952 Mn936 2.297 . S
O952 C939 1.236 . S
N953 Mn937 2.282 . S
N953 C954 1.328 . S
N953 C958 1.318 . S
C954 N953 1.328 . S
C954 C955 1.457 . S
C954 H959 0.929 . S
C955 C954 1.457 . S
C955 C956 1.291 . S
C955 H968 0.931 . S
C956 C955 1.291 . S
C956 C957 1.373 . S
C956 H969 0.929 . S
C957 C956 1.373 . S
C957 C958 1.396 . S
C957 C964 1.403 . S
C958 C948 1.476 . S
C958 N953 1.318 . S
C958 C957 1.396 . S
H959 C954 0.929 . S
O960 Mn936 2.385 . S
O960 C938 1.234 . S
O961 Mn936 2.209 . S
O961 Mn937 2.215 . S
O961 C938 1.283 . S
O962 Mn936 2.094 . S
O962 C940 1.240 . S
O963 Mn937 2.117 . S
O963 C940 1.264 . S
C964 C957 1.403 . S
C964 C965 1.399 . S
C964 H970 0.929 . S
C965 C945 1.449 . S
C965 C964 1.399 . S
C965 H971 0.930 . S
H966 C946 0.931 . S
H967 C947 0.930 . S
H968 C955 0.931 . S
H969 C956 0.929 . S
H970 C964 0.929 . S
H971 C965 0.930 . S
Mn972 O977 2.095 . S
Mn972 O987 2.162 . S
Mn972 O988 2.297 . S
Mn972 O996 2.385 . S
Mn972 O997 2.209 . S
Mn972 O998 2.094 . S
Mn973 O978 2.121 . S
Mn973 N980 2.257 . S
Mn973 N989 2.282 . S
Mn973 O997 2.215 . S
Mn973 O999 2.117 . S
C974 O996 1.234 . S
C974 O997 1.283 . S
C975 O987 1.281 . S
C975 O988 1.236 . S
C976 O998 1.240 . S
C976 O999 1.264 . S
O977 Mn972 2.095 . S
O977 C986 1.250 . S
O978 Mn973 2.121 . S
O978 C986 1.258 . S
C979 N980 1.326 . S
C979 C983 1.460 . S
C979 H985 0.929 . S
N980 Mn973 2.257 . S
N980 C979 1.326 . S
N980 C984 1.362 . S
C981 C982 1.258 . S
C981 C984 1.431 . S
C981 C1001 1.449 . S
C982 C981 1.258 . S
C982 C983 1.477 . S
C982 H1002 0.931 . S
C983 C979 1.460 . S
C983 C982 1.477 . S
C983 H1003 0.930 . S
C984 N980 1.362 . S
C984 C981 1.431 . S
C984 C994 1.476 . S
H985 C979 0.929 . S
C986 O977 1.250 . S
C986 O978 1.258 . S
O987 Mn972 2.162 . S
O987 C975 1.281 . S
O988 Mn972 2.297 . S
O988 C975 1.236 . S
N989 Mn973 2.282 . S
N989 C990 1.328 . S
N989 C994 1.318 . S
C990 N989 1.328 . S
C990 C991 1.457 . S
C990 H995 0.929 . S
C991 C990 1.457 . S
C991 C992 1.291 . S
C991 H1004 0.931 . S
C992 C991 1.291 . S
C992 C993 1.373 . S
C992 H1005 0.929 . S
C993 C992 1.373 . S
C993 C994 1.396 . S
C993 C1000 1.403 . S
C994 C984 1.476 . S
C994 N989 1.318 . S
C994 C993 1.396 . S
H995 C990 0.929 . S
O996 Mn972 2.385 . S
O996 C974 1.234 . S
O997 Mn972 2.209 . S
O997 Mn973 2.215 . S
O997 C974 1.283 . S
O998 Mn972 2.094 . S
O998 C976 1.240 . S
O999 Mn973 2.117 . S
O999 C976 1.264 . S
C1000 C993 1.403 . S
C1000 C1001 1.399 . S
C1000 H1006 0.929 . S
C1001 C981 1.449 . S
C1001 C1000 1.399 . S
C1001 H1007 0.930 . S
H1002 C982 0.931 . S
H1003 C983 0.930 . S
H1004 C991 0.931 . S
H1005 C992 0.929 . S
H1006 C1000 0.929 . S
H1007 C1001 0.930 . S
Mn1008 O1013 2.095 . S
Mn1008 O1023 2.162 . S
Mn1008 O1024 2.297 . S
Mn1008 O1032 2.385 . S
Mn1008 O1033 2.209 . S
Mn1008 O1034 2.094 . S
Mn1009 O1014 2.121 . S
Mn1009 N1016 2.257 . S
Mn1009 N1025 2.282 . S
Mn1009 O1033 2.215 . S
Mn1009 O1035 2.117 . S
C1010 O1032 1.234 . S
C1010 O1033 1.283 . S
C1011 O1023 1.281 . S
C1011 O1024 1.236 . S
C1012 O1034 1.240 . S
C1012 O1035 1.264 . S
O1013 Mn1008 2.095 . S
O1013 C1022 1.250 . S
O1014 Mn1009 2.121 . S
O1014 C1022 1.258 . S
C1015 N1016 1.326 . S
C1015 C1019 1.460 . S
C1015 H1021 0.929 . S
N1016 Mn1009 2.257 . S
N1016 C1015 1.326 . S
N1016 C1020 1.362 . S
C1017 C1018 1.258 . S
C1017 C1020 1.431 . S
C1017 C1037 1.449 . S
C1018 C1017 1.258 . S
C1018 C1019 1.477 . S
C1018 H1038 0.931 . S
C1019 C1015 1.460 . S
C1019 C1018 1.477 . S
C1019 H1039 0.930 . S
C1020 N1016 1.362 . S
C1020 C1017 1.431 . S
C1020 C1030 1.476 . S
H1021 C1015 0.929 . S
C1022 O1013 1.250 . S
C1022 O1014 1.258 . S
O1023 Mn1008 2.162 . S
O1023 C1011 1.281 . S
O1024 Mn1008 2.297 . S
O1024 C1011 1.236 . S
N1025 Mn1009 2.282 . S
N1025 C1026 1.328 . S
N1025 C1030 1.318 . S
C1026 N1025 1.328 . S
C1026 C1027 1.457 . S
C1026 H1031 0.929 . S
C1027 C1026 1.457 . S
C1027 C1028 1.291 . S
C1027 H1040 0.931 . S
C1028 C1027 1.291 . S
C1028 C1029 1.373 . S
C1028 H1041 0.929 . S
C1029 C1028 1.373 . S
C1029 C1030 1.396 . S
C1029 C1036 1.403 . S
C1030 C1020 1.476 . S
C1030 N1025 1.318 . S
C1030 C1029 1.396 . S
H1031 C1026 0.929 . S
O1032 Mn1008 2.385 . S
O1032 C1010 1.234 . S
O1033 Mn1008 2.209 . S
O1033 Mn1009 2.215 . S
O1033 C1010 1.283 . S
O1034 Mn1008 2.094 . S
O1034 C1012 1.240 . S
O1035 Mn1009 2.117 . S
O1035 C1012 1.264 . S
C1036 C1029 1.403 . S
C1036 C1037 1.399 . S
C1036 H1042 0.929 . S
C1037 C1017 1.449 . S
C1037 C1036 1.399 . S
C1037 H1043 0.930 . S
H1038 C1018 0.931 . S
H1039 C1019 0.930 . S
H1040 C1027 0.931 . S
H1041 C1028 0.929 . S
H1042 C1036 0.929 . S
H1043 C1037 0.930 . S
Mn1044 O1049 2.095 . S
Mn1044 O1059 2.162 . S
Mn1044 O1060 2.297 . S
Mn1044 O1068 2.385 . S
Mn1044 O1069 2.209 . S
Mn1044 O1070 2.094 . S
Mn1045 O1050 2.121 . S
Mn1045 N1052 2.257 . S
Mn1045 N1061 2.282 . S
Mn1045 O1069 2.215 . S
Mn1045 O1071 2.117 . S
C1046 O1068 1.234 . S
C1046 O1069 1.283 . S
C1047 O1059 1.281 . S
C1047 O1060 1.236 . S
C1048 O1070 1.240 . S
C1048 O1071 1.264 . S
O1049 Mn1044 2.095 . S
O1049 C1058 1.250 . S
O1050 Mn1045 2.121 . S
O1050 C1058 1.258 . S
C1051 N1052 1.326 . S
C1051 C1055 1.460 . S
C1051 H1057 0.929 . S
N1052 Mn1045 2.257 . S
N1052 C1051 1.326 . S
N1052 C1056 1.362 . S
C1053 C1054 1.258 . S
C1053 C1056 1.431 . S
C1053 C1073 1.449 . S
C1054 C1053 1.258 . S
C1054 C1055 1.477 . S
C1054 H1074 0.931 . S
C1055 C1051 1.460 . S
C1055 C1054 1.477 . S
C1055 H1075 0.930 . S
C1056 N1052 1.362 . S
C1056 C1053 1.431 . S
C1056 C1066 1.476 . S
H1057 C1051 0.929 . S
C1058 O1049 1.250 . S
C1058 O1050 1.258 . S
O1059 Mn1044 2.162 . S
O1059 C1047 1.281 . S
O1060 Mn1044 2.297 . S
O1060 C1047 1.236 . S
N1061 Mn1045 2.282 . S
N1061 C1062 1.328 . S
N1061 C1066 1.318 . S
C1062 N1061 1.328 . S
C1062 C1063 1.457 . S
C1062 H1067 0.929 . S
C1063 C1062 1.457 . S
C1063 C1064 1.291 . S
C1063 H1076 0.931 . S
C1064 C1063 1.291 . S
C1064 C1065 1.373 . S
C1064 H1077 0.929 . S
C1065 C1064 1.373 . S
C1065 C1066 1.396 . S
C1065 C1072 1.403 . S
C1066 C1056 1.476 . S
C1066 N1061 1.318 . S
C1066 C1065 1.396 . S
H1067 C1062 0.929 . S
O1068 Mn1044 2.385 . S
O1068 C1046 1.234 . S
O1069 Mn1044 2.209 . S
O1069 Mn1045 2.215 . S
O1069 C1046 1.283 . S
O1070 Mn1044 2.094 . S
O1070 C1048 1.240 . S
O1071 Mn1045 2.117 . S
O1071 C1048 1.264 . S
C1072 C1065 1.403 . S
C1072 C1073 1.399 . S
C1072 H1078 0.929 . S
C1073 C1053 1.449 . S
C1073 C1072 1.399 . S
C1073 H1079 0.930 . S
H1074 C1054 0.931 . S
H1075 C1055 0.930 . S
H1076 C1063 0.931 . S
H1077 C1064 0.929 . S
H1078 C1072 0.929 . S
H1079 C1073 0.930 . S
Mn1080 O1085 2.095 . S
Mn1080 O1095 2.162 . S
Mn1080 O1096 2.297 . S
Mn1080 O1104 2.385 . S
Mn1080 O1105 2.209 . S
Mn1080 O1106 2.094 . S
Mn1081 O1086 2.121 . S
Mn1081 N1088 2.257 . S
Mn1081 N1097 2.282 . S
Mn1081 O1105 2.215 . S
Mn1081 O1107 2.117 . S
C1082 O1104 1.234 . S
C1082 O1105 1.283 . S
C1083 O1095 1.281 . S
C1083 O1096 1.236 . S
C1084 O1106 1.240 . S
C1084 O1107 1.264 . S
O1085 Mn1080 2.095 . S
O1085 C1094 1.250 . S
O1086 Mn1081 2.121 . S
O1086 C1094 1.258 . S
C1087 N1088 1.326 . S
C1087 C1091 1.460 . S
C1087 H1093 0.929 . S
N1088 Mn1081 2.257 . S
N1088 C1087 1.326 . S
N1088 C1092 1.362 . S
C1089 C1090 1.258 . S
C1089 C1092 1.431 . S
C1089 C1109 1.449 . S
C1090 C1089 1.258 . S
C1090 C1091 1.477 . S
C1090 H1110 0.931 . S
C1091 C1087 1.460 . S
C1091 C1090 1.477 . S
C1091 H1111 0.930 . S
C1092 N1088 1.362 . S
C1092 C1089 1.431 . S
C1092 C1102 1.476 . S
H1093 C1087 0.929 . S
C1094 O1085 1.250 . S
C1094 O1086 1.258 . S
O1095 Mn1080 2.162 . S
O1095 C1083 1.281 . S
O1096 Mn1080 2.297 . S
O1096 C1083 1.236 . S
N1097 Mn1081 2.282 . S
N1097 C1098 1.328 . S
N1097 C1102 1.318 . S
C1098 N1097 1.328 . S
C1098 C1099 1.457 . S
C1098 H1103 0.929 . S
C1099 C1098 1.457 . S
C1099 C1100 1.291 . S
C1099 H1112 0.931 . S
C1100 C1099 1.291 . S
C1100 C1101 1.373 . S
C1100 H1113 0.929 . S
C1101 C1100 1.373 . S
C1101 C1102 1.396 . S
C1101 C1108 1.403 . S
C1102 C1092 1.476 . S
C1102 N1097 1.318 . S
C1102 C1101 1.396 . S
H1103 C1098 0.929 . S
O1104 Mn1080 2.385 . S
O1104 C1082 1.234 . S
O1105 Mn1080 2.209 . S
O1105 Mn1081 2.215 . S
O1105 C1082 1.283 . S
O1106 Mn1080 2.094 . S
O1106 C1084 1.240 . S
O1107 Mn1081 2.117 . S
O1107 C1084 1.264 . S
C1108 C1101 1.403 . S
C1108 C1109 1.399 . S
C1108 H1114 0.929 . S
C1109 C1089 1.449 . S
C1109 C1108 1.399 . S
C1109 H1115 0.930 . S
H1110 C1090 0.931 . S
H1111 C1091 0.930 . S
H1112 C1099 0.931 . S
H1113 C1100 0.929 . S
H1114 C1108 0.929 . S
H1115 C1109 0.930 . S
Mn1116 O1121 2.095 . S
Mn1116 O1131 2.162 . S
Mn1116 O1132 2.297 . S
Mn1116 O1140 2.385 . S
Mn1116 O1141 2.209 . S
Mn1116 O1142 2.094 . S
Mn1117 O1122 2.121 . S
Mn1117 N1124 2.257 . S
Mn1117 N1133 2.282 . S
Mn1117 O1141 2.215 . S
Mn1117 O1143 2.117 . S
C1118 O1140 1.234 . S
C1118 O1141 1.283 . S
C1119 O1131 1.281 . S
C1119 O1132 1.236 . S
C1120 O1142 1.240 . S
C1120 O1143 1.264 . S
O1121 Mn1116 2.095 . S
O1121 C1130 1.250 . S
O1122 Mn1117 2.121 . S
O1122 C1130 1.258 . S
C1123 N1124 1.326 . S
C1123 C1127 1.460 . S
C1123 H1129 0.929 . S
N1124 Mn1117 2.257 . S
N1124 C1123 1.326 . S
N1124 C1128 1.362 . S
C1125 C1126 1.258 . S
C1125 C1128 1.431 . S
C1125 C1145 1.449 . S
C1126 C1125 1.258 . S
C1126 C1127 1.477 . S
C1126 H1146 0.931 . S
C1127 C1123 1.460 . S
C1127 C1126 1.477 . S
C1127 H1147 0.930 . S
C1128 N1124 1.362 . S
C1128 C1125 1.431 . S
C1128 C1138 1.476 . S
H1129 C1123 0.929 . S
C1130 O1121 1.250 . S
C1130 O1122 1.258 . S
O1131 Mn1116 2.162 . S
O1131 C1119 1.281 . S
O1132 Mn1116 2.297 . S
O1132 C1119 1.236 . S
N1133 Mn1117 2.282 . S
N1133 C1134 1.328 . S
N1133 C1138 1.318 . S
C1134 N1133 1.328 . S
C1134 C1135 1.457 . S
C1134 H1139 0.929 . S
C1135 C1134 1.457 . S
C1135 C1136 1.291 . S
C1135 H1148 0.931 . S
C1136 C1135 1.291 . S
C1136 C1137 1.373 . S
C1136 H1149 0.929 . S
C1137 C1136 1.373 . S
C1137 C1138 1.396 . S
C1137 C1144 1.403 . S
C1138 C1128 1.476 . S
C1138 N1133 1.318 . S
C1138 C1137 1.396 . S
H1139 C1134 0.929 . S
O1140 Mn1116 2.385 . S
O1140 C1118 1.234 . S
O1141 Mn1116 2.209 . S
O1141 Mn1117 2.215 . S
O1141 C1118 1.283 . S
O1142 Mn1116 2.094 . S
O1142 C1120 1.240 . S
O1143 Mn1117 2.117 . S
O1143 C1120 1.264 . S
C1144 C1137 1.403 . S
C1144 C1145 1.399 . S
C1144 H1150 0.929 . S
C1145 C1125 1.449 . S
C1145 C1144 1.399 . S
C1145 H1151 0.930 . S
H1146 C1126 0.931 . S
H1147 C1127 0.930 . S
H1148 C1135 0.931 . S
H1149 C1136 0.929 . S
H1150 C1144 0.929 . S
H1151 C1145 0.930 . S
Mn1152 O1157 2.095 . S
Mn1152 O1167 2.162 . S
Mn1152 O1168 2.297 . S
Mn1152 O1176 2.385 . S
Mn1152 O1177 2.209 . S
Mn1152 O1178 2.094 . S
Mn1153 O1158 2.121 . S
Mn1153 N1160 2.257 . S
Mn1153 N1169 2.282 . S
Mn1153 O1177 2.215 . S
Mn1153 O1179 2.117 . S
C1154 O1176 1.234 . S
C1154 O1177 1.283 . S
C1155 O1167 1.281 . S
C1155 O1168 1.236 . S
C1156 O1178 1.240 . S
C1156 O1179 1.264 . S
O1157 Mn1152 2.095 . S
O1157 C1166 1.250 . S
O1158 Mn1153 2.121 . S
O1158 C1166 1.258 . S
C1159 N1160 1.326 . S
C1159 C1163 1.460 . S
C1159 H1165 0.929 . S
N1160 Mn1153 2.257 . S
N1160 C1159 1.326 . S
N1160 C1164 1.362 . S
C1161 C1162 1.258 . S
C1161 C1164 1.431 . S
C1161 C1181 1.449 . S
C1162 C1161 1.258 . S
C1162 C1163 1.477 . S
C1162 H1182 0.931 . S
C1163 C1159 1.460 . S
C1163 C1162 1.477 . S
C1163 H1183 0.930 . S
C1164 N1160 1.362 . S
C1164 C1161 1.431 . S
C1164 C1174 1.476 . S
H1165 C1159 0.929 . S
C1166 O1157 1.250 . S
C1166 O1158 1.258 . S
O1167 Mn1152 2.162 . S
O1167 C1155 1.281 . S
O1168 Mn1152 2.297 . S
O1168 C1155 1.236 . S
N1169 Mn1153 2.282 . S
N1169 C1170 1.328 . S
N1169 C1174 1.318 . S
C1170 N1169 1.328 . S
C1170 C1171 1.457 . S
C1170 H1175 0.929 . S
C1171 C1170 1.457 . S
C1171 C1172 1.291 . S
C1171 H1184 0.931 . S
C1172 C1171 1.291 . S
C1172 C1173 1.373 . S
C1172 H1185 0.929 . S
C1173 C1172 1.373 . S
C1173 C1174 1.396 . S
C1173 C1180 1.403 . S
C1174 C1164 1.476 . S
C1174 N1169 1.318 . S
C1174 C1173 1.396 . S
H1175 C1170 0.929 . S
O1176 Mn1152 2.385 . S
O1176 C1154 1.234 . S
O1177 Mn1152 2.209 . S
O1177 Mn1153 2.215 . S
O1177 C1154 1.283 . S
O1178 Mn1152 2.094 . S
O1178 C1156 1.240 . S
O1179 Mn1153 2.117 . S
O1179 C1156 1.264 . S
C1180 C1173 1.403 . S
C1180 C1181 1.399 . S
C1180 H1186 0.929 . S
C1181 C1161 1.449 . S
C1181 C1180 1.399 . S
C1181 H1187 0.930 . S
H1182 C1162 0.931 . S
H1183 C1163 0.930 . S
H1184 C1171 0.931 . S
H1185 C1172 0.929 . S
H1186 C1180 0.929 . S
H1187 C1181 0.930 . S
Mn1188 O1193 2.095 . S
Mn1188 O1203 2.162 . S
Mn1188 O1204 2.297 . S
Mn1188 O1212 2.385 . S
Mn1188 O1213 2.209 . S
Mn1188 O1214 2.094 . S
Mn1189 O1194 2.121 . S
Mn1189 N1196 2.257 . S
Mn1189 N1205 2.282 . S
Mn1189 O1213 2.215 . S
Mn1189 O1215 2.117 . S
C1190 O1212 1.234 . S
C1190 O1213 1.283 . S
C1191 O1203 1.281 . S
C1191 O1204 1.236 . S
C1192 O1214 1.240 . S
C1192 O1215 1.264 . S
O1193 Mn1188 2.095 . S
O1193 C1202 1.250 . S
O1194 Mn1189 2.121 . S
O1194 C1202 1.258 . S
C1195 N1196 1.326 . S
C1195 C1199 1.460 . S
C1195 H1201 0.929 . S
N1196 Mn1189 2.257 . S
N1196 C1195 1.326 . S
N1196 C1200 1.362 . S
C1197 C1198 1.258 . S
C1197 C1200 1.431 . S
C1197 C1217 1.449 . S
C1198 C1197 1.258 . S
C1198 C1199 1.477 . S
C1198 H1218 0.931 . S
C1199 C1195 1.460 . S
C1199 C1198 1.477 . S
C1199 H1219 0.930 . S
C1200 N1196 1.362 . S
C1200 C1197 1.431 . S
C1200 C1210 1.476 . S
H1201 C1195 0.929 . S
C1202 O1193 1.250 . S
C1202 O1194 1.258 . S
O1203 Mn1188 2.162 . S
O1203 C1191 1.281 . S
O1204 Mn1188 2.297 . S
O1204 C1191 1.236 . S
N1205 Mn1189 2.282 . S
N1205 C1206 1.328 . S
N1205 C1210 1.318 . S
C1206 N1205 1.328 . S
C1206 C1207 1.457 . S
C1206 H1211 0.929 . S
C1207 C1206 1.457 . S
C1207 C1208 1.291 . S
C1207 H1220 0.931 . S
C1208 C1207 1.291 . S
C1208 C1209 1.373 . S
C1208 H1221 0.929 . S
C1209 C1208 1.373 . S
C1209 C1210 1.396 . S
C1209 C1216 1.403 . S
C1210 C1200 1.476 . S
C1210 N1205 1.318 . S
C1210 C1209 1.396 . S
H1211 C1206 0.929 . S
O1212 Mn1188 2.385 . S
O1212 C1190 1.234 . S
O1213 Mn1188 2.209 . S
O1213 Mn1189 2.215 . S
O1213 C1190 1.283 . S
O1214 Mn1188 2.094 . S
O1214 C1192 1.240 . S
O1215 Mn1189 2.117 . S
O1215 C1192 1.264 . S
C1216 C1209 1.403 . S
C1216 C1217 1.399 . S
C1216 H1222 0.929 . S
C1217 C1197 1.449 . S
C1217 C1216 1.399 . S
C1217 H1223 0.930 . S
H1218 C1198 0.931 . S
H1219 C1199 0.930 . S
H1220 C1207 0.931 . S
H1221 C1208 0.929 . S
H1222 C1216 0.929 . S
H1223 C1217 0.930 . S
Mn1224 O1229 2.095 . S
Mn1224 O1239 2.162 . S
Mn1224 O1240 2.297 . S
Mn1224 O1248 2.385 . S
Mn1224 O1249 2.209 . S
Mn1224 O1250 2.094 . S
Mn1225 O1230 2.121 . S
Mn1225 N1232 2.257 . S
Mn1225 N1241 2.282 . S
Mn1225 O1249 2.215 . S
Mn1225 O1251 2.117 . S
C1226 O1248 1.234 . S
C1226 O1249 1.283 . S
C1227 O1239 1.281 . S
C1227 O1240 1.236 . S
C1228 O1250 1.240 . S
C1228 O1251 1.264 . S
O1229 Mn1224 2.095 . S
O1229 C1238 1.250 . S
O1230 Mn1225 2.121 . S
O1230 C1238 1.258 . S
C1231 N1232 1.326 . S
C1231 C1235 1.460 . S
C1231 H1237 0.929 . S
N1232 Mn1225 2.257 . S
N1232 C1231 1.326 . S
N1232 C1236 1.362 . S
C1233 C1234 1.258 . S
C1233 C1236 1.431 . S
C1233 C1253 1.449 . S
C1234 C1233 1.258 . S
C1234 C1235 1.477 . S
C1234 H1254 0.931 . S
C1235 C1231 1.460 . S
C1235 C1234 1.477 . S
C1235 H1255 0.930 . S
C1236 N1232 1.362 . S
C1236 C1233 1.431 . S
C1236 C1246 1.476 . S
H1237 C1231 0.929 . S
C1238 O1229 1.250 . S
C1238 O1230 1.258 . S
O1239 Mn1224 2.162 . S
O1239 C1227 1.281 . S
O1240 Mn1224 2.297 . S
O1240 C1227 1.236 . S
N1241 Mn1225 2.282 . S
N1241 C1242 1.328 . S
N1241 C1246 1.318 . S
C1242 N1241 1.328 . S
C1242 C1243 1.457 . S
C1242 H1247 0.929 . S
C1243 C1242 1.457 . S
C1243 C1244 1.291 . S
C1243 H1256 0.931 . S
C1244 C1243 1.291 . S
C1244 C1245 1.373 . S
C1244 H1257 0.929 . S
C1245 C1244 1.373 . S
C1245 C1246 1.396 . S
C1245 C1252 1.403 . S
C1246 C1236 1.476 . S
C1246 N1241 1.318 . S
C1246 C1245 1.396 . S
H1247 C1242 0.929 . S
O1248 Mn1224 2.385 . S
O1248 C1226 1.234 . S
O1249 Mn1224 2.209 . S
O1249 Mn1225 2.215 . S
O1249 C1226 1.283 . S
O1250 Mn1224 2.094 . S
O1250 C1228 1.240 . S
O1251 Mn1225 2.117 . S
O1251 C1228 1.264 . S
C1252 C1245 1.403 . S
C1252 C1253 1.399 . S
C1252 H1258 0.929 . S
C1253 C1233 1.449 . S
C1253 C1252 1.399 . S
C1253 H1259 0.930 . S
H1254 C1234 0.931 . S
H1255 C1235 0.930 . S
H1256 C1243 0.931 . S
H1257 C1244 0.929 . S
H1258 C1252 0.929 . S
H1259 C1253 0.930 . S
Mn1260 O1265 2.095 . S
Mn1260 O1275 2.162 . S
Mn1260 O1276 2.297 . S
Mn1260 O1284 2.385 . S
Mn1260 O1285 2.209 . S
Mn1260 O1286 2.094 . S
Mn1261 O1266 2.121 . S
Mn1261 N1268 2.257 . S
Mn1261 N1277 2.282 . S
Mn1261 O1285 2.215 . S
Mn1261 O1287 2.117 . S
C1262 O1284 1.234 . S
C1262 O1285 1.283 . S
C1263 O1275 1.281 . S
C1263 O1276 1.236 . S
C1264 O1286 1.240 . S
C1264 O1287 1.264 . S
O1265 Mn1260 2.095 . S
O1265 C1274 1.250 . S
O1266 Mn1261 2.121 . S
O1266 C1274 1.258 . S
C1267 N1268 1.326 . S
C1267 C1271 1.460 . S
C1267 H1273 0.929 . S
N1268 Mn1261 2.257 . S
N1268 C1267 1.326 . S
N1268 C1272 1.362 . S
C1269 C1270 1.258 . S
C1269 C1272 1.431 . S
C1269 C1289 1.449 . S
C1270 C1269 1.258 . S
C1270 C1271 1.477 . S
C1270 H1290 0.931 . S
C1271 C1267 1.460 . S
C1271 C1270 1.477 . S
C1271 H1291 0.930 . S
C1272 N1268 1.362 . S
C1272 C1269 1.431 . S
C1272 C1282 1.476 . S
H1273 C1267 0.929 . S
C1274 O1265 1.250 . S
C1274 O1266 1.258 . S
O1275 Mn1260 2.162 . S
O1275 C1263 1.281 . S
O1276 Mn1260 2.297 . S
O1276 C1263 1.236 . S
N1277 Mn1261 2.282 . S
N1277 C1278 1.328 . S
N1277 C1282 1.318 . S
C1278 N1277 1.328 . S
C1278 C1279 1.457 . S
C1278 H1283 0.929 . S
C1279 C1278 1.457 . S
C1279 C1280 1.291 . S
C1279 H1292 0.931 . S
C1280 C1279 1.291 . S
C1280 C1281 1.373 . S
C1280 H1293 0.929 . S
C1281 C1280 1.373 . S
C1281 C1282 1.396 . S
C1281 C1288 1.403 . S
C1282 C1272 1.476 . S
C1282 N1277 1.318 . S
C1282 C1281 1.396 . S
H1283 C1278 0.929 . S
O1284 Mn1260 2.385 . S
O1284 C1262 1.234 . S
O1285 Mn1260 2.209 . S
O1285 Mn1261 2.215 . S
O1285 C1262 1.283 . S
O1286 Mn1260 2.094 . S
O1286 C1264 1.240 . S
O1287 Mn1261 2.117 . S
O1287 C1264 1.264 . S
C1288 C1281 1.403 . S
C1288 C1289 1.399 . S
C1288 H1294 0.929 . S
C1289 C1269 1.449 . S
C1289 C1288 1.399 . S
C1289 H1295 0.930 . S
H1290 C1270 0.931 . S
H1291 C1271 0.930 . S
H1292 C1279 0.931 . S
H1293 C1280 0.929 . S
H1294 C1288 0.929 . S
H1295 C1289 0.930 . S
Mn1296 O1301 2.095 . S
Mn1296 O1311 2.162 . S
Mn1296 O1312 2.297 . S
Mn1296 O1320 2.385 . S
Mn1296 O1321 2.209 . S
Mn1296 O1322 2.094 . S
Mn1297 O1302 2.121 . S
Mn1297 N1304 2.257 . S
Mn1297 N1313 2.282 . S
Mn1297 O1321 2.215 . S
Mn1297 O1323 2.117 . S
C1298 O1320 1.234 . S
C1298 O1321 1.283 . S
C1299 O1311 1.281 . S
C1299 O1312 1.236 . S
C1300 O1322 1.240 . S
C1300 O1323 1.264 . S
O1301 Mn1296 2.095 . S
O1301 C1310 1.250 . S
O1302 Mn1297 2.121 . S
O1302 C1310 1.258 . S
C1303 N1304 1.326 . S
C1303 C1307 1.460 . S
C1303 H1309 0.929 . S
N1304 Mn1297 2.257 . S
N1304 C1303 1.326 . S
N1304 C1308 1.362 . S
C1305 C1306 1.258 . S
C1305 C1308 1.431 . S
C1305 C1325 1.449 . S
C1306 C1305 1.258 . S
C1306 C1307 1.477 . S
C1306 H1326 0.931 . S
C1307 C1303 1.460 . S
C1307 C1306 1.477 . S
C1307 H1327 0.930 . S
C1308 N1304 1.362 . S
C1308 C1305 1.431 . S
C1308 C1318 1.476 . S
H1309 C1303 0.929 . S
C1310 O1301 1.250 . S
C1310 O1302 1.258 . S
O1311 Mn1296 2.162 . S
O1311 C1299 1.281 . S
O1312 Mn1296 2.297 . S
O1312 C1299 1.236 . S
N1313 Mn1297 2.282 . S
N1313 C1314 1.328 . S
N1313 C1318 1.318 . S
C1314 N1313 1.328 . S
C1314 C1315 1.457 . S
C1314 H1319 0.929 . S
C1315 C1314 1.457 . S
C1315 C1316 1.291 . S
C1315 H1328 0.931 . S
C1316 C1315 1.291 . S
C1316 C1317 1.373 . S
C1316 H1329 0.929 . S
C1317 C1316 1.373 . S
C1317 C1318 1.396 . S
C1317 C1324 1.403 . S
C1318 C1308 1.476 . S
C1318 N1313 1.318 . S
C1318 C1317 1.396 . S
H1319 C1314 0.929 . S
O1320 Mn1296 2.385 . S
O1320 C1298 1.234 . S
O1321 Mn1296 2.209 . S
O1321 Mn1297 2.215 . S
O1321 C1298 1.283 . S
O1322 Mn1296 2.094 . S
O1322 C1300 1.240 . S
O1323 Mn1297 2.117 . S
O1323 C1300 1.264 . S
C1324 C1317 1.403 . S
C1324 C1325 1.399 . S
C1324 H1330 0.929 . S
C1325 C1305 1.449 . S
C1325 C1324 1.399 . S
C1325 H1331 0.930 . S
H1326 C1306 0.931 . S
H1327 C1307 0.930 . S
H1328 C1315 0.931 . S
H1329 C1316 0.929 . S
H1330 C1324 0.929 . S
H1331 C1325 0.930 . S
Mn1332 O1337 2.095 . S
Mn1332 O1347 2.162 . S
Mn1332 O1348 2.297 . S
Mn1332 O1356 2.385 . S
Mn1332 O1357 2.209 . S
Mn1332 O1358 2.094 . S
Mn1333 O1338 2.121 . S
Mn1333 N1340 2.257 . S
Mn1333 N1349 2.282 . S
Mn1333 O1357 2.215 . S
Mn1333 O1359 2.117 . S
C1334 O1356 1.234 . S
C1334 O1357 1.283 . S
C1335 O1347 1.281 . S
C1335 O1348 1.236 . S
C1336 O1358 1.240 . S
C1336 O1359 1.264 . S
O1337 Mn1332 2.095 . S
O1337 C1346 1.250 . S
O1338 Mn1333 2.121 . S
O1338 C1346 1.258 . S
C1339 N1340 1.326 . S
C1339 C1343 1.460 . S
C1339 H1345 0.929 . S
N1340 Mn1333 2.257 . S
N1340 C1339 1.326 . S
N1340 C1344 1.362 . S
C1341 C1342 1.258 . S
C1341 C1344 1.431 . S
C1341 C1361 1.449 . S
C1342 C1341 1.258 . S
C1342 C1343 1.477 . S
C1342 H1362 0.931 . S
C1343 C1339 1.460 . S
C1343 C1342 1.477 . S
C1343 H1363 0.930 . S
C1344 N1340 1.362 . S
C1344 C1341 1.431 . S
C1344 C1354 1.476 . S
H1345 C1339 0.929 . S
C1346 O1337 1.250 . S
C1346 O1338 1.258 . S
O1347 Mn1332 2.162 . S
O1347 C1335 1.281 . S
O1348 Mn1332 2.297 . S
O1348 C1335 1.236 . S
N1349 Mn1333 2.282 . S
N1349 C1350 1.328 . S
N1349 C1354 1.318 . S
C1350 N1349 1.328 . S
C1350 C1351 1.457 . S
C1350 H1355 0.929 . S
C1351 C1350 1.457 . S
C1351 C1352 1.291 . S
C1351 H1364 0.931 . S
C1352 C1351 1.291 . S
C1352 C1353 1.373 . S
C1352 H1365 0.929 . S
C1353 C1352 1.373 . S
C1353 C1354 1.396 . S
C1353 C1360 1.403 . S
C1354 C1344 1.476 . S
C1354 N1349 1.318 . S
C1354 C1353 1.396 . S
H1355 C1350 0.929 . S
O1356 Mn1332 2.385 . S
O1356 C1334 1.234 . S
O1357 Mn1332 2.209 . S
O1357 Mn1333 2.215 . S
O1357 C1334 1.283 . S
O1358 Mn1332 2.094 . S
O1358 C1336 1.240 . S
O1359 Mn1333 2.117 . S
O1359 C1336 1.264 . S
C1360 C1353 1.403 . S
C1360 C1361 1.399 . S
C1360 H1366 0.929 . S
C1361 C1341 1.449 . S
C1361 C1360 1.399 . S
C1361 H1367 0.930 . S
H1362 C1342 0.931 . S
H1363 C1343 0.930 . S
H1364 C1351 0.931 . S
H1365 C1352 0.929 . S
H1366 C1360 0.929 . S
H1367 C1361 0.930 . S
Mn1368 O1373 2.095 . S
Mn1368 O1383 2.162 . S
Mn1368 O1384 2.297 . S
Mn1368 O1392 2.385 . S
Mn1368 O1393 2.209 . S
Mn1368 O1394 2.094 . S
Mn1369 O1374 2.121 . S
Mn1369 N1376 2.257 . S
Mn1369 N1385 2.282 . S
Mn1369 O1393 2.215 . S
Mn1369 O1395 2.117 . S
C1370 O1392 1.234 . S
C1370 O1393 1.283 . S
C1371 O1383 1.281 . S
C1371 O1384 1.236 . S
C1372 O1394 1.240 . S
C1372 O1395 1.264 . S
O1373 Mn1368 2.095 . S
O1373 C1382 1.250 . S
O1374 Mn1369 2.121 . S
O1374 C1382 1.258 . S
C1375 N1376 1.326 . S
C1375 C1379 1.460 . S
C1375 H1381 0.929 . S
N1376 Mn1369 2.257 . S
N1376 C1375 1.326 . S
N1376 C1380 1.362 . S
C1377 C1378 1.258 . S
C1377 C1380 1.431 . S
C1377 C1397 1.449 . S
C1378 C1377 1.258 . S
C1378 C1379 1.477 . S
C1378 H1398 0.931 . S
C1379 C1375 1.460 . S
C1379 C1378 1.477 . S
C1379 H1399 0.930 . S
C1380 N1376 1.362 . S
C1380 C1377 1.431 . S
C1380 C1390 1.476 . S
H1381 C1375 0.929 . S
C1382 O1373 1.250 . S
C1382 O1374 1.258 . S
O1383 Mn1368 2.162 . S
O1383 C1371 1.281 . S
O1384 Mn1368 2.297 . S
O1384 C1371 1.236 . S
N1385 Mn1369 2.282 . S
N1385 C1386 1.328 . S
N1385 C1390 1.318 . S
C1386 N1385 1.328 . S
C1386 C1387 1.457 . S
C1386 H1391 0.929 . S
C1387 C1386 1.457 . S
C1387 C1388 1.291 . S
C1387 H1400 0.931 . S
C1388 C1387 1.291 . S
C1388 C1389 1.373 . S
C1388 H1401 0.929 . S
C1389 C1388 1.373 . S
C1389 C1390 1.396 . S
C1389 C1396 1.403 . S
C1390 C1380 1.476 . S
C1390 N1385 1.318 . S
C1390 C1389 1.396 . S
H1391 C1386 0.929 . S
O1392 Mn1368 2.385 . S
O1392 C1370 1.234 . S
O1393 Mn1368 2.209 . S
O1393 Mn1369 2.215 . S
O1393 C1370 1.283 . S
O1394 Mn1368 2.094 . S
O1394 C1372 1.240 . S
O1395 Mn1369 2.117 . S
O1395 C1372 1.264 . S
C1396 C1389 1.403 . S
C1396 C1397 1.399 . S
C1396 H1402 0.929 . S
C1397 C1377 1.449 . S
C1397 C1396 1.399 . S
C1397 H1403 0.930 . S
H1398 C1378 0.931 . S
H1399 C1379 0.930 . S
H1400 C1387 0.931 . S
H1401 C1388 0.929 . S
H1402 C1396 0.929 . S
H1403 C1397 0.930 . S
Mn1404 O1409 2.095 . S
Mn1404 O1419 2.162 . S
Mn1404 O1420 2.297 . S
Mn1404 O1428 2.385 . S
Mn1404 O1429 2.209 . S
Mn1404 O1430 2.094 . S
Mn1405 O1410 2.121 . S
Mn1405 N1412 2.257 . S
Mn1405 N1421 2.282 . S
Mn1405 O1429 2.215 . S
Mn1405 O1431 2.117 . S
C1406 O1428 1.234 . S
C1406 O1429 1.283 . S
C1407 O1419 1.281 . S
C1407 O1420 1.236 . S
C1408 O1430 1.240 . S
C1408 O1431 1.264 . S
O1409 Mn1404 2.095 . S
O1409 C1418 1.250 . S
O1410 Mn1405 2.121 . S
O1410 C1418 1.258 . S
C1411 N1412 1.326 . S
C1411 C1415 1.460 . S
C1411 H1417 0.929 . S
N1412 Mn1405 2.257 . S
N1412 C1411 1.326 . S
N1412 C1416 1.362 . S
C1413 C1414 1.258 . S
C1413 C1416 1.431 . S
C1413 C1433 1.449 . S
C1414 C1413 1.258 . S
C1414 C1415 1.477 . S
C1414 H1434 0.931 . S
C1415 C1411 1.460 . S
C1415 C1414 1.477 . S
C1415 H1435 0.930 . S
C1416 N1412 1.362 . S
C1416 C1413 1.431 . S
C1416 C1426 1.476 . S
H1417 C1411 0.929 . S
C1418 O1409 1.250 . S
C1418 O1410 1.258 . S
O1419 Mn1404 2.162 . S
O1419 C1407 1.281 . S
O1420 Mn1404 2.297 . S
O1420 C1407 1.236 . S
N1421 Mn1405 2.282 . S
N1421 C1422 1.328 . S
N1421 C1426 1.318 . S
C1422 N1421 1.328 . S
C1422 C1423 1.457 . S
C1422 H1427 0.929 . S
C1423 C1422 1.457 . S
C1423 C1424 1.291 . S
C1423 H1436 0.931 . S
C1424 C1423 1.291 . S
C1424 C1425 1.373 . S
C1424 H1437 0.929 . S
C1425 C1424 1.373 . S
C1425 C1426 1.396 . S
C1425 C1432 1.403 . S
C1426 C1416 1.476 . S
C1426 N1421 1.318 . S
C1426 C1425 1.396 . S
H1427 C1422 0.929 . S
O1428 Mn1404 2.385 . S
O1428 C1406 1.234 . S
O1429 Mn1404 2.209 . S
O1429 Mn1405 2.215 . S
O1429 C1406 1.283 . S
O1430 Mn1404 2.094 . S
O1430 C1408 1.240 . S
O1431 Mn1405 2.117 . S
O1431 C1408 1.264 . S
C1432 C1425 1.403 . S
C1432 C1433 1.399 . S
C1432 H1438 0.929 . S
C1433 C1413 1.449 . S
C1433 C1432 1.399 . S
C1433 H1439 0.930 . S
H1434 C1414 0.931 . S
H1435 C1415 0.930 . S
H1436 C1423 0.931 . S
H1437 C1424 0.929 . S
H1438 C1432 0.929 . S
H1439 C1433 0.930 . S
Mn1440 O1445 2.095 . S
Mn1440 O1455 2.162 . S
Mn1440 O1456 2.297 . S
Mn1440 O1464 2.385 . S
Mn1440 O1465 2.209 . S
Mn1440 O1466 2.094 . S
Mn1441 O1446 2.121 . S
Mn1441 N1448 2.257 . S
Mn1441 N1457 2.282 . S
Mn1441 O1465 2.215 . S
Mn1441 O1467 2.117 . S
C1442 O1464 1.234 . S
C1442 O1465 1.283 . S
C1443 O1455 1.281 . S
C1443 O1456 1.236 . S
C1444 O1466 1.240 . S
C1444 O1467 1.264 . S
O1445 Mn1440 2.095 . S
O1445 C1454 1.250 . S
O1446 Mn1441 2.121 . S
O1446 C1454 1.258 . S
C1447 N1448 1.326 . S
C1447 C1451 1.460 . S
C1447 H1453 0.929 . S
N1448 Mn1441 2.257 . S
N1448 C1447 1.326 . S
N1448 C1452 1.362 . S
C1449 C1450 1.258 . S
C1449 C1452 1.431 . S
C1449 C1469 1.449 . S
C1450 C1449 1.258 . S
C1450 C1451 1.477 . S
C1450 H1470 0.931 . S
C1451 C1447 1.460 . S
C1451 C1450 1.477 . S
C1451 H1471 0.930 . S
C1452 N1448 1.362 . S
C1452 C1449 1.431 . S
C1452 C1462 1.476 . S
H1453 C1447 0.929 . S
C1454 O1445 1.250 . S
C1454 O1446 1.258 . S
O1455 Mn1440 2.162 . S
O1455 C1443 1.281 . S
O1456 Mn1440 2.297 . S
O1456 C1443 1.236 . S
N1457 Mn1441 2.282 . S
N1457 C1458 1.328 . S
N1457 C1462 1.318 . S
C1458 N1457 1.328 . S
C1458 C1459 1.457 . S
C1458 H1463 0.929 . S
C1459 C1458 1.457 . S
C1459 C1460 1.291 . S
C1459 H1472 0.931 . S
C1460 C1459 1.291 . S
C1460 C1461 1.373 . S
C1460 H1473 0.929 . S
C1461 C1460 1.373 . S
C1461 C1462 1.396 . S
C1461 C1468 1.403 . S
C1462 C1452 1.476 . S
C1462 N1457 1.318 . S
C1462 C1461 1.396 . S
H1463 C1458 0.929 . S
O1464 Mn1440 2.385 . S
O1464 C1442 1.234 . S
O1465 Mn1440 2.209 . S
O1465 Mn1441 2.215 . S
O1465 C1442 1.283 . S
O1466 Mn1440 2.094 . S
O1466 C1444 1.240 . S
O1467 Mn1441 2.117 . S
O1467 C1444 1.264 . S
C1468 C1461 1.403 . S
C1468 C1469 1.399 . S
C1468 H1474 0.929 . S
C1469 C1449 1.449 . S
C1469 C1468 1.399 . S
C1469 H1475 0.930 . S
H1470 C1450 0.931 . S
H1471 C1451 0.930 . S
H1472 C1459 0.931 . S
H1473 C1460 0.929 . S
H1474 C1468 0.929 . S
H1475 C1469 0.930 . S
Mn1476 O1481 2.095 . S
Mn1476 O1491 2.162 . S
Mn1476 O1492 2.297 . S
Mn1476 O1500 2.385 . S
Mn1476 O1501 2.209 . S
Mn1476 O1502 2.094 . S
Mn1477 O1482 2.121 . S
Mn1477 N1484 2.257 . S
Mn1477 N1493 2.282 . S
Mn1477 O1501 2.215 . S
Mn1477 O1503 2.117 . S
C1478 O1500 1.234 . S
C1478 O1501 1.283 . S
C1479 O1491 1.281 . S
C1479 O1492 1.236 . S
C1480 O1502 1.240 . S
C1480 O1503 1.264 . S
O1481 Mn1476 2.095 . S
O1481 C1490 1.250 . S
O1482 Mn1477 2.121 . S
O1482 C1490 1.258 . S
C1483 N1484 1.326 . S
C1483 C1487 1.460 . S
C1483 H1489 0.929 . S
N1484 Mn1477 2.257 . S
N1484 C1483 1.326 . S
N1484 C1488 1.362 . S
C1485 C1486 1.258 . S
C1485 C1488 1.431 . S
C1485 C1505 1.449 . S
C1486 C1485 1.258 . S
C1486 C1487 1.477 . S
C1486 H1506 0.931 . S
C1487 C1483 1.460 . S
C1487 C1486 1.477 . S
C1487 H1507 0.930 . S
C1488 N1484 1.362 . S
C1488 C1485 1.431 . S
C1488 C1498 1.476 . S
H1489 C1483 0.929 . S
C1490 O1481 1.250 . S
C1490 O1482 1.258 . S
O1491 Mn1476 2.162 . S
O1491 C1479 1.281 . S
O1492 Mn1476 2.297 . S
O1492 C1479 1.236 . S
N1493 Mn1477 2.282 . S
N1493 C1494 1.328 . S
N1493 C1498 1.318 . S
C1494 N1493 1.328 . S
C1494 C1495 1.457 . S
C1494 H1499 0.929 . S
C1495 C1494 1.457 . S
C1495 C1496 1.291 . S
C1495 H1508 0.931 . S
C1496 C1495 1.291 . S
C1496 C1497 1.373 . S
C1496 H1509 0.929 . S
C1497 C1496 1.373 . S
C1497 C1498 1.396 . S
C1497 C1504 1.403 . S
C1498 C1488 1.476 . S
C1498 N1493 1.318 . S
C1498 C1497 1.396 . S
H1499 C1494 0.929 . S
O1500 Mn1476 2.385 . S
O1500 C1478 1.234 . S
O1501 Mn1476 2.209 . S
O1501 Mn1477 2.215 . S
O1501 C1478 1.283 . S
O1502 Mn1476 2.094 . S
O1502 C1480 1.240 . S
O1503 Mn1477 2.117 . S
O1503 C1480 1.264 . S
C1504 C1497 1.403 . S
C1504 C1505 1.399 . S
C1504 H1510 0.929 . S
C1505 C1485 1.449 . S
C1505 C1504 1.399 . S
C1505 H1511 0.930 . S
H1506 C1486 0.931 . S
H1507 C1487 0.930 . S
H1508 C1495 0.931 . S
H1509 C1496 0.929 . S
H1510 C1504 0.929 . S
H1511 C1505 0.930 . S
Mn1512 O1517 2.095 . S
Mn1512 O1527 2.162 . S
Mn1512 O1528 2.297 . S
Mn1512 O1536 2.385 . S
Mn1512 O1537 2.209 . S
Mn1512 O1538 2.094 . S
Mn1513 O1518 2.121 . S
Mn1513 N1520 2.257 . S
Mn1513 N1529 2.282 . S
Mn1513 O1537 2.215 . S
Mn1513 O1539 2.117 . S
C1514 O1536 1.234 . S
C1514 O1537 1.283 . S
C1515 O1527 1.281 . S
C1515 O1528 1.236 . S
C1516 O1538 1.240 . S
C1516 O1539 1.264 . S
O1517 Mn1512 2.095 . S
O1517 C1526 1.250 . S
O1518 Mn1513 2.121 . S
O1518 C1526 1.258 . S
C1519 N1520 1.326 . S
C1519 C1523 1.460 . S
C1519 H1525 0.929 . S
N1520 Mn1513 2.257 . S
N1520 C1519 1.326 . S
N1520 C1524 1.362 . S
C1521 C1522 1.258 . S
C1521 C1524 1.431 . S
C1521 C1541 1.449 . S
C1522 C1521 1.258 . S
C1522 C1523 1.477 . S
C1522 H1542 0.931 . S
C1523 C1519 1.460 . S
C1523 C1522 1.477 . S
C1523 H1543 0.930 . S
C1524 N1520 1.362 . S
C1524 C1521 1.431 . S
C1524 C1534 1.476 . S
H1525 C1519 0.929 . S
C1526 O1517 1.250 . S
C1526 O1518 1.258 . S
O1527 Mn1512 2.162 . S
O1527 C1515 1.281 . S
O1528 Mn1512 2.297 . S
O1528 C1515 1.236 . S
N1529 Mn1513 2.282 . S
N1529 C1530 1.328 . S
N1529 C1534 1.318 . S
C1530 N1529 1.328 . S
C1530 C1531 1.457 . S
C1530 H1535 0.929 . S
C1531 C1530 1.457 . S
C1531 C1532 1.291 . S
C1531 H1544 0.931 . S
C1532 C1531 1.291 . S
C1532 C1533 1.373 . S
C1532 H1545 0.929 . S
C1533 C1532 1.373 . S
C1533 C1534 1.396 . S
C1533 C1540 1.403 . S
C1534 C1524 1.476 . S
C1534 N1529 1.318 . S
C1534 C1533 1.396 . S
H1535 C1530 0.929 . S
O1536 Mn1512 2.385 . S
O1536 C1514 1.234 . S
O1537 Mn1512 2.209 . S
O1537 Mn1513 2.215 . S
O1537 C1514 1.283 . S
O1538 Mn1512 2.094 . S
O1538 C1516 1.240 . S
O1539 Mn1513 2.117 . S
O1539 C1516 1.264 . S
C1540 C1533 1.403 . S
C1540 C1541 1.399 . S
C1540 H1546 0.929 . S
C1541 C1521 1.449 . S
C1541 C1540 1.399 . S
C1541 H1547 0.930 . S
H1542 C1522 0.931 . S
H1543 C1523 0.930 . S
H1544 C1531 0.931 . S
H1545 C1532 0.929 . S
H1546 C1540 0.929 . S
H1547 C1541 0.930 . S
Mn1548 O1553 2.095 . S
Mn1548 O1563 2.162 . S
Mn1548 O1564 2.297 . S
Mn1548 O1572 2.385 . S
Mn1548 O1573 2.209 . S
Mn1548 O1574 2.094 . S
Mn1549 O1554 2.121 . S
Mn1549 N1556 2.257 . S
Mn1549 N1565 2.282 . S
Mn1549 O1573 2.215 . S
Mn1549 O1575 2.117 . S
C1550 O1572 1.234 . S
C1550 O1573 1.283 . S
C1551 O1563 1.281 . S
C1551 O1564 1.236 . S
C1552 O1574 1.240 . S
C1552 O1575 1.264 . S
O1553 Mn1548 2.095 . S
O1553 C1562 1.250 . S
O1554 Mn1549 2.121 . S
O1554 C1562 1.258 . S
C1555 N1556 1.326 . S
C1555 C1559 1.460 . S
C1555 H1561 0.929 . S
N1556 Mn1549 2.257 . S
N1556 C1555 1.326 . S
N1556 C1560 1.362 . S
C1557 C1558 1.258 . S
C1557 C1560 1.431 . S
C1557 C1577 1.449 . S
C1558 C1557 1.258 . S
C1558 C1559 1.477 . S
C1558 H1578 0.931 . S
C1559 C1555 1.460 . S
C1559 C1558 1.477 . S
C1559 H1579 0.930 . S
C1560 N1556 1.362 . S
C1560 C1557 1.431 . S
C1560 C1570 1.476 . S
H1561 C1555 0.929 . S
C1562 O1553 1.250 . S
C1562 O1554 1.258 . S
O1563 Mn1548 2.162 . S
O1563 C1551 1.281 . S
O1564 Mn1548 2.297 . S
O1564 C1551 1.236 . S
N1565 Mn1549 2.282 . S
N1565 C1566 1.328 . S
N1565 C1570 1.318 . S
C1566 N1565 1.328 . S
C1566 C1567 1.457 . S
C1566 H1571 0.929 . S
C1567 C1566 1.457 . S
C1567 C1568 1.291 . S
C1567 H1580 0.931 . S
C1568 C1567 1.291 . S
C1568 C1569 1.373 . S
C1568 H1581 0.929 . S
C1569 C1568 1.373 . S
C1569 C1570 1.396 . S
C1569 C1576 1.403 . S
C1570 C1560 1.476 . S
C1570 N1565 1.318 . S
C1570 C1569 1.396 . S
H1571 C1566 0.929 . S
O1572 Mn1548 2.385 . S
O1572 C1550 1.234 . S
O1573 Mn1548 2.209 . S
O1573 Mn1549 2.215 . S
O1573 C1550 1.283 . S
O1574 Mn1548 2.094 . S
O1574 C1552 1.240 . S
O1575 Mn1549 2.117 . S
O1575 C1552 1.264 . S
C1576 C1569 1.403 . S
C1576 C1577 1.399 . S
C1576 H1582 0.929 . S
C1577 C1557 1.449 . S
C1577 C1576 1.399 . S
C1577 H1583 0.930 . S
H1578 C1558 0.931 . S
H1579 C1559 0.930 . S
H1580 C1567 0.931 . S
H1581 C1568 0.929 . S
H1582 C1576 0.929 . S
H1583 C1577 0.930 . S
Mn1584 O1589 2.095 . S
Mn1584 O1599 2.162 . S
Mn1584 O1600 2.297 . S
Mn1584 O1608 2.385 . S
Mn1584 O1609 2.209 . S
Mn1584 O1610 2.094 . S
Mn1585 O1590 2.121 . S
Mn1585 N1592 2.257 . S
Mn1585 N1601 2.282 . S
Mn1585 O1609 2.215 . S
Mn1585 O1611 2.117 . S
C1586 O1608 1.234 . S
C1586 O1609 1.283 . S
C1587 O1599 1.281 . S
C1587 O1600 1.236 . S
C1588 O1610 1.240 . S
C1588 O1611 1.264 . S
O1589 Mn1584 2.095 . S
O1589 C1598 1.250 . S
O1590 Mn1585 2.121 . S
O1590 C1598 1.258 . S
C1591 N1592 1.326 . S
C1591 C1595 1.460 . S
C1591 H1597 0.929 . S
N1592 Mn1585 2.257 . S
N1592 C1591 1.326 . S
N1592 C1596 1.362 . S
C1593 C1594 1.258 . S
C1593 C1596 1.431 . S
C1593 C1613 1.449 . S
C1594 C1593 1.258 . S
C1594 C1595 1.477 . S
C1594 H1614 0.931 . S
C1595 C1591 1.460 . S
C1595 C1594 1.477 . S
C1595 H1615 0.930 . S
C1596 N1592 1.362 . S
C1596 C1593 1.431 . S
C1596 C1606 1.476 . S
H1597 C1591 0.929 . S
C1598 O1589 1.250 . S
C1598 O1590 1.258 . S
O1599 Mn1584 2.162 . S
O1599 C1587 1.281 . S
O1600 Mn1584 2.297 . S
O1600 C1587 1.236 . S
N1601 Mn1585 2.282 . S
N1601 C1602 1.328 . S
N1601 C1606 1.318 . S
C1602 N1601 1.328 . S
C1602 C1603 1.457 . S
C1602 H1607 0.929 . S
C1603 C1602 1.457 . S
C1603 C1604 1.291 . S
C1603 H1616 0.931 . S
C1604 C1603 1.291 . S
C1604 C1605 1.373 . S
C1604 H1617 0.929 . S
C1605 C1604 1.373 . S
C1605 C1606 1.396 . S
C1605 C1612 1.403 . S
C1606 C1596 1.476 . S
C1606 N1601 1.318 . S
C1606 C1605 1.396 . S
H1607 C1602 0.929 . S
O1608 Mn1584 2.385 . S
O1608 C1586 1.234 . S
O1609 Mn1584 2.209 . S
O1609 Mn1585 2.215 . S
O1609 C1586 1.283 . S
O1610 Mn1584 2.094 . S
O1610 C1588 1.240 . S
O1611 Mn1585 2.117 . S
O1611 C1588 1.264 . S
C1612 C1605 1.403 . S
C1612 C1613 1.399 . S
C1612 H1618 0.929 . S
C1613 C1593 1.449 . S
C1613 C1612 1.399 . S
C1613 H1619 0.930 . S
H1614 C1594 0.931 . S
H1615 C1595 0.930 . S
H1616 C1603 0.931 . S
H1617 C1604 0.929 . S
H1618 C1612 0.929 . S
H1619 C1613 0.930 . S
Mn1620 O1625 2.095 . S
Mn1620 O1635 2.162 . S
Mn1620 O1636 2.297 . S
Mn1620 O1644 2.385 . S
Mn1620 O1645 2.209 . S
Mn1620 O1646 2.094 . S
Mn1621 O1626 2.121 . S
Mn1621 N1628 2.257 . S
Mn1621 N1637 2.282 . S
Mn1621 O1645 2.215 . S
Mn1621 O1647 2.117 . S
C1622 O1644 1.234 . S
C1622 O1645 1.283 . S
C1623 O1635 1.281 . S
C1623 O1636 1.236 . S
C1624 O1646 1.240 . S
C1624 O1647 1.264 . S
O1625 Mn1620 2.095 . S
O1625 C1634 1.250 . S
O1626 Mn1621 2.121 . S
O1626 C1634 1.258 . S
C1627 N1628 1.326 . S
C1627 C1631 1.460 . S
C1627 H1633 0.929 . S
N1628 Mn1621 2.257 . S
N1628 C1627 1.326 . S
N1628 C1632 1.362 . S
C1629 C1630 1.258 . S
C1629 C1632 1.431 . S
C1629 C1649 1.449 . S
C1630 C1629 1.258 . S
C1630 C1631 1.477 . S
C1630 H1650 0.931 . S
C1631 C1627 1.460 . S
C1631 C1630 1.477 . S
C1631 H1651 0.930 . S
C1632 N1628 1.362 . S
C1632 C1629 1.431 . S
C1632 C1642 1.476 . S
H1633 C1627 0.929 . S
C1634 O1625 1.250 . S
C1634 O1626 1.258 . S
O1635 Mn1620 2.162 . S
O1635 C1623 1.281 . S
O1636 Mn1620 2.297 . S
O1636 C1623 1.236 . S
N1637 Mn1621 2.282 . S
N1637 C1638 1.328 . S
N1637 C1642 1.318 . S
C1638 N1637 1.328 . S
C1638 C1639 1.457 . S
C1638 H1643 0.929 . S
C1639 C1638 1.457 . S
C1639 C1640 1.291 . S
C1639 H1652 0.931 . S
C1640 C1639 1.291 . S
C1640 C1641 1.373 . S
C1640 H1653 0.929 . S
C1641 C1640 1.373 . S
C1641 C1642 1.396 . S
C1641 C1648 1.403 . S
C1642 C1632 1.476 . S
C1642 N1637 1.318 . S
C1642 C1641 1.396 . S
H1643 C1638 0.929 . S
O1644 Mn1620 2.385 . S
O1644 C1622 1.234 . S
O1645 Mn1620 2.209 . S
O1645 Mn1621 2.215 . S
O1645 C1622 1.283 . S
O1646 Mn1620 2.094 . S
O1646 C1624 1.240 . S
O1647 Mn1621 2.117 . S
O1647 C1624 1.264 . S
C1648 C1641 1.403 . S
C1648 C1649 1.399 . S
C1648 H1654 0.929 . S
C1649 C1629 1.449 . S
C1649 C1648 1.399 . S
C1649 H1655 0.930 . S
H1650 C1630 0.931 . S
H1651 C1631 0.930 . S
H1652 C1639 0.931 . S
H1653 C1640 0.929 . S
H1654 C1648 0.929 . S
H1655 C1649 0.930 . S
Mn1656 O1661 2.095 . S
Mn1656 O1671 2.162 . S
Mn1656 O1672 2.297 . S
Mn1656 O1680 2.385 . S
Mn1656 O1681 2.209 . S
Mn1656 O1682 2.094 . S
Mn1657 O1662 2.121 . S
Mn1657 N1664 2.257 . S
Mn1657 N1673 2.282 . S
Mn1657 O1681 2.215 . S
Mn1657 O1683 2.117 . S
C1658 O1680 1.234 . S
C1658 O1681 1.283 . S
C1659 O1671 1.281 . S
C1659 O1672 1.236 . S
C1660 O1682 1.240 . S
C1660 O1683 1.264 . S
O1661 Mn1656 2.095 . S
O1661 C1670 1.250 . S
O1662 Mn1657 2.121 . S
O1662 C1670 1.258 . S
C1663 N1664 1.326 . S
C1663 C1667 1.460 . S
C1663 H1669 0.929 . S
N1664 Mn1657 2.257 . S
N1664 C1663 1.326 . S
N1664 C1668 1.362 . S
C1665 C1666 1.258 . S
C1665 C1668 1.431 . S
C1665 C1685 1.449 . S
C1666 C1665 1.258 . S
C1666 C1667 1.477 . S
C1666 H1686 0.931 . S
C1667 C1663 1.460 . S
C1667 C1666 1.477 . S
C1667 H1687 0.930 . S
C1668 N1664 1.362 . S
C1668 C1665 1.431 . S
C1668 C1678 1.476 . S
H1669 C1663 0.929 . S
C1670 O1661 1.250 . S
C1670 O1662 1.258 . S
O1671 Mn1656 2.162 . S
O1671 C1659 1.281 . S
O1672 Mn1656 2.297 . S
O1672 C1659 1.236 . S
N1673 Mn1657 2.282 . S
N1673 C1674 1.328 . S
N1673 C1678 1.318 . S
C1674 N1673 1.328 . S
C1674 C1675 1.457 . S
C1674 H1679 0.929 . S
C1675 C1674 1.457 . S
C1675 C1676 1.291 . S
C1675 H1688 0.931 . S
C1676 C1675 1.291 . S
C1676 C1677 1.373 . S
C1676 H1689 0.929 . S
C1677 C1676 1.373 . S
C1677 C1678 1.396 . S
C1677 C1684 1.403 . S
C1678 C1668 1.476 . S
C1678 N1673 1.318 . S
C1678 C1677 1.396 . S
H1679 C1674 0.929 . S
O1680 Mn1656 2.385 . S
O1680 C1658 1.234 . S
O1681 Mn1656 2.209 . S
O1681 Mn1657 2.215 . S
O1681 C1658 1.283 . S
O1682 Mn1656 2.094 . S
O1682 C1660 1.240 . S
O1683 Mn1657 2.117 . S
O1683 C1660 1.264 . S
C1684 C1677 1.403 . S
C1684 C1685 1.399 . S
C1684 H1690 0.929 . S
C1685 C1665 1.449 . S
C1685 C1684 1.399 . S
C1685 H1691 0.930 . S
H1686 C1666 0.931 . S
H1687 C1667 0.930 . S
H1688 C1675 0.931 . S
H1689 C1676 0.929 . S
H1690 C1684 0.929 . S
H1691 C1685 0.930 . S
Mn1692 O1697 2.095 . S
Mn1692 O1707 2.162 . S
Mn1692 O1708 2.297 . S
Mn1692 O1716 2.385 . S
Mn1692 O1717 2.209 . S
Mn1692 O1718 2.094 . S
Mn1693 O1698 2.121 . S
Mn1693 N1700 2.257 . S
Mn1693 N1709 2.282 . S
Mn1693 O1717 2.215 . S
Mn1693 O1719 2.117 . S
C1694 O1716 1.234 . S
C1694 O1717 1.283 . S
C1695 O1707 1.281 . S
C1695 O1708 1.236 . S
C1696 O1718 1.240 . S
C1696 O1719 1.264 . S
O1697 Mn1692 2.095 . S
O1697 C1706 1.250 . S
O1698 Mn1693 2.121 . S
O1698 C1706 1.258 . S
C1699 N1700 1.326 . S
C1699 C1703 1.460 . S
C1699 H1705 0.929 . S
N1700 Mn1693 2.257 . S
N1700 C1699 1.326 . S
N1700 C1704 1.362 . S
C1701 C1702 1.258 . S
C1701 C1704 1.431 . S
C1701 C1721 1.449 . S
C1702 C1701 1.258 . S
C1702 C1703 1.477 . S
C1702 H1722 0.931 . S
C1703 C1699 1.460 . S
C1703 C1702 1.477 . S
C1703 H1723 0.930 . S
C1704 N1700 1.362 . S
C1704 C1701 1.431 . S
C1704 C1714 1.476 . S
H1705 C1699 0.929 . S
C1706 O1697 1.250 . S
C1706 O1698 1.258 . S
O1707 Mn1692 2.162 . S
O1707 C1695 1.281 . S
O1708 Mn1692 2.297 . S
O1708 C1695 1.236 . S
N1709 Mn1693 2.282 . S
N1709 C1710 1.328 . S
N1709 C1714 1.318 . S
C1710 N1709 1.328 . S
C1710 C1711 1.457 . S
C1710 H1715 0.929 . S
C1711 C1710 1.457 . S
C1711 C1712 1.291 . S
C1711 H1724 0.931 . S
C1712 C1711 1.291 . S
C1712 C1713 1.373 . S
C1712 H1725 0.929 . S
C1713 C1712 1.373 . S
C1713 C1714 1.396 . S
C1713 C1720 1.403 . S
C1714 C1704 1.476 . S
C1714 N1709 1.318 . S
C1714 C1713 1.396 . S
H1715 C1710 0.929 . S
O1716 Mn1692 2.385 . S
O1716 C1694 1.234 . S
O1717 Mn1692 2.209 . S
O1717 Mn1693 2.215 . S
O1717 C1694 1.283 . S
O1718 Mn1692 2.094 . S
O1718 C1696 1.240 . S
O1719 Mn1693 2.117 . S
O1719 C1696 1.264 . S
C1720 C1713 1.403 . S
C1720 C1721 1.399 . S
C1720 H1726 0.929 . S
C1721 C1701 1.449 . S
C1721 C1720 1.399 . S
C1721 H1727 0.930 . S
H1722 C1702 0.931 . S
H1723 C1703 0.930 . S
H1724 C1711 0.931 . S
H1725 C1712 0.929 . S
H1726 C1720 0.929 . S
H1727 C1721 0.930 . S
Mn1728 O1733 2.095 . S
Mn1728 O1743 2.162 . S
Mn1728 O1744 2.297 . S
Mn1728 O1752 2.385 . S
Mn1728 O1753 2.209 . S
Mn1728 O1754 2.094 . S
Mn1729 O1734 2.121 . S
Mn1729 N1736 2.257 . S
Mn1729 N1745 2.282 . S
Mn1729 O1753 2.215 . S
Mn1729 O1755 2.117 . S
C1730 O1752 1.234 . S
C1730 O1753 1.283 . S
C1731 O1743 1.281 . S
C1731 O1744 1.236 . S
C1732 O1754 1.240 . S
C1732 O1755 1.264 . S
O1733 Mn1728 2.095 . S
O1733 C1742 1.250 . S
O1734 Mn1729 2.121 . S
O1734 C1742 1.258 . S
C1735 N1736 1.326 . S
C1735 C1739 1.460 . S
C1735 H1741 0.929 . S
N1736 Mn1729 2.257 . S
N1736 C1735 1.326 . S
N1736 C1740 1.362 . S
C1737 C1738 1.258 . S
C1737 C1740 1.431 . S
C1737 C1757 1.449 . S
C1738 C1737 1.258 . S
C1738 C1739 1.477 . S
C1738 H1758 0.931 . S
C1739 C1735 1.460 . S
C1739 C1738 1.477 . S
C1739 H1759 0.930 . S
C1740 N1736 1.362 . S
C1740 C1737 1.431 . S
C1740 C1750 1.476 . S
H1741 C1735 0.929 . S
C1742 O1733 1.250 . S
C1742 O1734 1.258 . S
O1743 Mn1728 2.162 . S
O1743 C1731 1.281 . S
O1744 Mn1728 2.297 . S
O1744 C1731 1.236 . S
N1745 Mn1729 2.282 . S
N1745 C1746 1.328 . S
N1745 C1750 1.318 . S
C1746 N1745 1.328 . S
C1746 C1747 1.457 . S
C1746 H1751 0.929 . S
C1747 C1746 1.457 . S
C1747 C1748 1.291 . S
C1747 H1760 0.931 . S
C1748 C1747 1.291 . S
C1748 C1749 1.373 . S
C1748 H1761 0.929 . S
C1749 C1748 1.373 . S
C1749 C1750 1.396 . S
C1749 C1756 1.403 . S
C1750 C1740 1.476 . S
C1750 N1745 1.318 . S
C1750 C1749 1.396 . S
H1751 C1746 0.929 . S
O1752 Mn1728 2.385 . S
O1752 C1730 1.234 . S
O1753 Mn1728 2.209 . S
O1753 Mn1729 2.215 . S
O1753 C1730 1.283 . S
O1754 Mn1728 2.094 . S
O1754 C1732 1.240 . S
O1755 Mn1729 2.117 . S
O1755 C1732 1.264 . S
C1756 C1749 1.403 . S
C1756 C1757 1.399 . S
C1756 H1762 0.929 . S
C1757 C1737 1.449 . S
C1757 C1756 1.399 . S
C1757 H1763 0.930 . S
H1758 C1738 0.931 . S
H1759 C1739 0.930 . S
H1760 C1747 0.931 . S
H1761 C1748 0.929 . S
H1762 C1756 0.929 . S
H1763 C1757 0.930 . S
Mn1764 O1769 2.095 . S
Mn1764 O1779 2.162 . S
Mn1764 O1780 2.297 . S
Mn1764 O1788 2.385 . S
Mn1764 O1789 2.209 . S
Mn1764 O1790 2.094 . S
Mn1765 O1770 2.121 . S
Mn1765 N1772 2.257 . S
Mn1765 N1781 2.282 . S
Mn1765 O1789 2.215 . S
Mn1765 O1791 2.117 . S
C1766 O1788 1.234 . S
C1766 O1789 1.283 . S
C1767 O1779 1.281 . S
C1767 O1780 1.236 . S
C1768 O1790 1.240 . S
C1768 O1791 1.264 . S
O1769 Mn1764 2.095 . S
O1769 C1778 1.250 . S
O1770 Mn1765 2.121 . S
O1770 C1778 1.258 . S
C1771 N1772 1.326 . S
C1771 C1775 1.460 . S
C1771 H1777 0.929 . S
N1772 Mn1765 2.257 . S
N1772 C1771 1.326 . S
N1772 C1776 1.362 . S
C1773 C1774 1.258 . S
C1773 C1776 1.431 . S
C1773 C1793 1.449 . S
C1774 C1773 1.258 . S
C1774 C1775 1.477 . S
C1774 H1794 0.931 . S
C1775 C1771 1.460 . S
C1775 C1774 1.477 . S
C1775 H1795 0.930 . S
C1776 N1772 1.362 . S
C1776 C1773 1.431 . S
C1776 C1786 1.476 . S
H1777 C1771 0.929 . S
C1778 O1769 1.250 . S
C1778 O1770 1.258 . S
O1779 Mn1764 2.162 . S
O1779 C1767 1.281 . S
O1780 Mn1764 2.297 . S
O1780 C1767 1.236 . S
N1781 Mn1765 2.282 . S
N1781 C1782 1.328 . S
N1781 C1786 1.318 . S
C1782 N1781 1.328 . S
C1782 C1783 1.457 . S
C1782 H1787 0.929 . S
C1783 C1782 1.457 . S
C1783 C1784 1.291 . S
C1783 H1796 0.931 . S
C1784 C1783 1.291 . S
C1784 C1785 1.373 . S
C1784 H1797 0.929 . S
C1785 C1784 1.373 . S
C1785 C1786 1.396 . S
C1785 C1792 1.403 . S
C1786 C1776 1.476 . S
C1786 N1781 1.318 . S
C1786 C1785 1.396 . S
H1787 C1782 0.929 . S
O1788 Mn1764 2.385 . S
O1788 C1766 1.234 . S
O1789 Mn1764 2.209 . S
O1789 Mn1765 2.215 . S
O1789 C1766 1.283 . S
O1790 Mn1764 2.094 . S
O1790 C1768 1.240 . S
O1791 Mn1765 2.117 . S
O1791 C1768 1.264 . S
C1792 C1785 1.403 . S
C1792 C1793 1.399 . S
C1792 H1798 0.929 . S
C1793 C1773 1.449 . S
C1793 C1792 1.399 . S
C1793 H1799 0.930 . S
H1794 C1774 0.931 . S
H1795 C1775 0.930 . S
H1796 C1783 0.931 . S
H1797 C1784 0.929 . S
H1798 C1792 0.929 . S
H1799 C1793 0.930 . S
Mn1800 O1805 2.095 . S
Mn1800 O1815 2.162 . S
Mn1800 O1816 2.297 . S
Mn1800 O1824 2.385 . S
Mn1800 O1825 2.209 . S
Mn1800 O1826 2.094 . S
Mn1801 O1806 2.121 . S
Mn1801 N1808 2.257 . S
Mn1801 N1817 2.282 . S
Mn1801 O1825 2.215 . S
Mn1801 O1827 2.117 . S
C1802 O1824 1.234 . S
C1802 O1825 1.283 . S
C1803 O1815 1.281 . S
C1803 O1816 1.236 . S
C1804 O1826 1.240 . S
C1804 O1827 1.264 . S
O1805 Mn1800 2.095 . S
O1805 C1814 1.250 . S
O1806 Mn1801 2.121 . S
O1806 C1814 1.258 . S
C1807 N1808 1.326 . S
C1807 C1811 1.460 . S
C1807 H1813 0.929 . S
N1808 Mn1801 2.257 . S
N1808 C1807 1.326 . S
N1808 C1812 1.362 . S
C1809 C1810 1.258 . S
C1809 C1812 1.431 . S
C1809 C1829 1.449 . S
C1810 C1809 1.258 . S
C1810 C1811 1.477 . S
C1810 H1830 0.931 . S
C1811 C1807 1.460 . S
C1811 C1810 1.477 . S
C1811 H1831 0.930 . S
C1812 N1808 1.362 . S
C1812 C1809 1.431 . S
C1812 C1822 1.476 . S
H1813 C1807 0.929 . S
C1814 O1805 1.250 . S
C1814 O1806 1.258 . S
O1815 Mn1800 2.162 . S
O1815 C1803 1.281 . S
O1816 Mn1800 2.297 . S
O1816 C1803 1.236 . S
N1817 Mn1801 2.282 . S
N1817 C1818 1.328 . S
N1817 C1822 1.318 . S
C1818 N1817 1.328 . S
C1818 C1819 1.457 . S
C1818 H1823 0.929 . S
C1819 C1818 1.457 . S
C1819 C1820 1.291 . S
C1819 H1832 0.931 . S
C1820 C1819 1.291 . S
C1820 C1821 1.373 . S
C1820 H1833 0.929 . S
C1821 C1820 1.373 . S
C1821 C1822 1.396 . S
C1821 C1828 1.403 . S
C1822 C1812 1.476 . S
C1822 N1817 1.318 . S
C1822 C1821 1.396 . S
H1823 C1818 0.929 . S
O1824 Mn1800 2.385 . S
O1824 C1802 1.234 . S
O1825 Mn1800 2.209 . S
O1825 Mn1801 2.215 . S
O1825 C1802 1.283 . S
O1826 Mn1800 2.094 . S
O1826 C1804 1.240 . S
O1827 Mn1801 2.117 . S
O1827 C1804 1.264 . S
C1828 C1821 1.403 . S
C1828 C1829 1.399 . S
C1828 H1834 0.929 . S
C1829 C1809 1.449 . S
C1829 C1828 1.399 . S
C1829 H1835 0.930 . S
H1830 C1810 0.931 . S
H1831 C1811 0.930 . S
H1832 C1819 0.931 . S
H1833 C1820 0.929 . S
H1834 C1828 0.929 . S
H1835 C1829 0.930 . S
Mn1836 O1841 2.095 . S
Mn1836 O1851 2.162 . S
Mn1836 O1852 2.297 . S
Mn1836 O1860 2.385 . S
Mn1836 O1861 2.209 . S
Mn1836 O1862 2.094 . S
Mn1837 O1842 2.121 . S
Mn1837 N1844 2.257 . S
Mn1837 N1853 2.282 . S
Mn1837 O1861 2.215 . S
Mn1837 O1863 2.117 . S
C1838 O1860 1.234 . S
C1838 O1861 1.283 . S
C1839 O1851 1.281 . S
C1839 O1852 1.236 . S
C1840 O1862 1.240 . S
C1840 O1863 1.264 . S
O1841 Mn1836 2.095 . S
O1841 C1850 1.250 . S
O1842 Mn1837 2.121 . S
O1842 C1850 1.258 . S
C1843 N1844 1.326 . S
C1843 C1847 1.460 . S
C1843 H1849 0.929 . S
N1844 Mn1837 2.257 . S
N1844 C1843 1.326 . S
N1844 C1848 1.362 . S
C1845 C1846 1.258 . S
C1845 C1848 1.431 . S
C1845 C1865 1.449 . S
C1846 C1845 1.258 . S
C1846 C1847 1.477 . S
C1846 H1866 0.931 . S
C1847 C1843 1.460 . S
C1847 C1846 1.477 . S
C1847 H1867 0.930 . S
C1848 N1844 1.362 . S
C1848 C1845 1.431 . S
C1848 C1858 1.476 . S
H1849 C1843 0.929 . S
C1850 O1841 1.250 . S
C1850 O1842 1.258 . S
O1851 Mn1836 2.162 . S
O1851 C1839 1.281 . S
O1852 Mn1836 2.297 . S
O1852 C1839 1.236 . S
N1853 Mn1837 2.282 . S
N1853 C1854 1.328 . S
N1853 C1858 1.318 . S
C1854 N1853 1.328 . S
C1854 C1855 1.457 . S
C1854 H1859 0.929 . S
C1855 C1854 1.457 . S
C1855 C1856 1.291 . S
C1855 H1868 0.931 . S
C1856 C1855 1.291 . S
C1856 C1857 1.373 . S
C1856 H1869 0.929 . S
C1857 C1856 1.373 . S
C1857 C1858 1.396 . S
C1857 C1864 1.403 . S
C1858 C1848 1.476 . S
C1858 N1853 1.318 . S
C1858 C1857 1.396 . S
H1859 C1854 0.929 . S
O1860 Mn1836 2.385 . S
O1860 C1838 1.234 . S
O1861 Mn1836 2.209 . S
O1861 Mn1837 2.215 . S
O1861 C1838 1.283 . S
O1862 Mn1836 2.094 . S
O1862 C1840 1.240 . S
O1863 Mn1837 2.117 . S
O1863 C1840 1.264 . S
C1864 C1857 1.403 . S
C1864 C1865 1.399 . S
C1864 H1870 0.929 . S
C1865 C1845 1.449 . S
C1865 C1864 1.399 . S
C1865 H1871 0.930 . S
H1866 C1846 0.931 . S
H1867 C1847 0.930 . S
H1868 C1855 0.931 . S
H1869 C1856 0.929 . S
H1870 C1864 0.929 . S
H1871 C1865 0.930 . S
Mn1872 O1877 2.095 . S
Mn1872 O1887 2.162 . S
Mn1872 O1888 2.297 . S
Mn1872 O1896 2.385 . S
Mn1872 O1897 2.209 . S
Mn1872 O1898 2.094 . S
Mn1873 O1878 2.121 . S
Mn1873 N1880 2.257 . S
Mn1873 N1889 2.282 . S
Mn1873 O1897 2.215 . S
Mn1873 O1899 2.117 . S
C1874 O1896 1.234 . S
C1874 O1897 1.283 . S
C1875 O1887 1.281 . S
C1875 O1888 1.236 . S
C1876 O1898 1.240 . S
C1876 O1899 1.264 . S
O1877 Mn1872 2.095 . S
O1877 C1886 1.250 . S
O1878 Mn1873 2.121 . S
O1878 C1886 1.258 . S
C1879 N1880 1.326 . S
C1879 C1883 1.460 . S
C1879 H1885 0.929 . S
N1880 Mn1873 2.257 . S
N1880 C1879 1.326 . S
N1880 C1884 1.362 . S
C1881 C1882 1.258 . S
C1881 C1884 1.431 . S
C1881 C1901 1.449 . S
C1882 C1881 1.258 . S
C1882 C1883 1.477 . S
C1882 H1902 0.931 . S
C1883 C1879 1.460 . S
C1883 C1882 1.477 . S
C1883 H1903 0.930 . S
C1884 N1880 1.362 . S
C1884 C1881 1.431 . S
C1884 C1894 1.476 . S
H1885 C1879 0.929 . S
C1886 O1877 1.250 . S
C1886 O1878 1.258 . S
O1887 Mn1872 2.162 . S
O1887 C1875 1.281 . S
O1888 Mn1872 2.297 . S
O1888 C1875 1.236 . S
N1889 Mn1873 2.282 . S
N1889 C1890 1.328 . S
N1889 C1894 1.318 . S
C1890 N1889 1.328 . S
C1890 C1891 1.457 . S
C1890 H1895 0.929 . S
C1891 C1890 1.457 . S
C1891 C1892 1.291 . S
C1891 H1904 0.931 . S
C1892 C1891 1.291 . S
C1892 C1893 1.373 . S
C1892 H1905 0.929 . S
C1893 C1892 1.373 . S
C1893 C1894 1.396 . S
C1893 C1900 1.403 . S
C1894 C1884 1.476 . S
C1894 N1889 1.318 . S
C1894 C1893 1.396 . S
H1895 C1890 0.929 . S
O1896 Mn1872 2.385 . S
O1896 C1874 1.234 . S
O1897 Mn1872 2.209 . S
O1897 Mn1873 2.215 . S
O1897 C1874 1.283 . S
O1898 Mn1872 2.094 . S
O1898 C1876 1.240 . S
O1899 Mn1873 2.117 . S
O1899 C1876 1.264 . S
C1900 C1893 1.403 . S
C1900 C1901 1.399 . S
C1900 H1906 0.929 . S
C1901 C1881 1.449 . S
C1901 C1900 1.399 . S
C1901 H1907 0.930 . S
H1902 C1882 0.931 . S
H1903 C1883 0.930 . S
H1904 C1891 0.931 . S
H1905 C1892 0.929 . S
H1906 C1900 0.929 . S
H1907 C1901 0.930 . S
Mn1908 O1913 2.095 . S
Mn1908 O1923 2.162 . S
Mn1908 O1924 2.297 . S
Mn1908 O1932 2.385 . S
Mn1908 O1933 2.209 . S
Mn1908 O1934 2.094 . S
Mn1909 O1914 2.121 . S
Mn1909 N1916 2.257 . S
Mn1909 N1925 2.282 . S
Mn1909 O1933 2.215 . S
Mn1909 O1935 2.117 . S
C1910 O1932 1.234 . S
C1910 O1933 1.283 . S
C1911 O1923 1.281 . S
C1911 O1924 1.236 . S
C1912 O1934 1.240 . S
C1912 O1935 1.264 . S
O1913 Mn1908 2.095 . S
O1913 C1922 1.250 . S
O1914 Mn1909 2.121 . S
O1914 C1922 1.258 . S
C1915 N1916 1.326 . S
C1915 C1919 1.460 . S
C1915 H1921 0.929 . S
N1916 Mn1909 2.257 . S
N1916 C1915 1.326 . S
N1916 C1920 1.362 . S
C1917 C1918 1.258 . S
C1917 C1920 1.431 . S
C1917 C1937 1.449 . S
C1918 C1917 1.258 . S
C1918 C1919 1.477 . S
C1918 H1938 0.931 . S
C1919 C1915 1.460 . S
C1919 C1918 1.477 . S
C1919 H1939 0.930 . S
C1920 N1916 1.362 . S
C1920 C1917 1.431 . S
C1920 C1930 1.476 . S
H1921 C1915 0.929 . S
C1922 O1913 1.250 . S
C1922 O1914 1.258 . S
O1923 Mn1908 2.162 . S
O1923 C1911 1.281 . S
O1924 Mn1908 2.297 . S
O1924 C1911 1.236 . S
N1925 Mn1909 2.282 . S
N1925 C1926 1.328 . S
N1925 C1930 1.318 . S
C1926 N1925 1.328 . S
C1926 C1927 1.457 . S
C1926 H1931 0.929 . S
C1927 C1926 1.457 . S
C1927 C1928 1.291 . S
C1927 H1940 0.931 . S
C1928 C1927 1.291 . S
C1928 C1929 1.373 . S
C1928 H1941 0.929 . S
C1929 C1928 1.373 . S
C1929 C1930 1.396 . S
C1929 C1936 1.403 . S
C1930 C1920 1.476 . S
C1930 N1925 1.318 . S
C1930 C1929 1.396 . S
H1931 C1926 0.929 . S
O1932 Mn1908 2.385 . S
O1932 C1910 1.234 . S
O1933 Mn1908 2.209 . S
O1933 Mn1909 2.215 . S
O1933 C1910 1.283 . S
O1934 Mn1908 2.094 . S
O1934 C1912 1.240 . S
O1935 Mn1909 2.117 . S
O1935 C1912 1.264 . S
C1936 C1929 1.403 . S
C1936 C1937 1.399 . S
C1936 H1942 0.929 . S
C1937 C1917 1.449 . S
C1937 C1936 1.399 . S
C1937 H1943 0.930 . S
H1938 C1918 0.931 . S
H1939 C1919 0.930 . S
H1940 C1927 0.931 . S
H1941 C1928 0.929 . S
H1942 C1936 0.929 . S
H1943 C1937 0.930 . S
Mn1944 O1949 2.095 . S
Mn1944 O1959 2.162 . S
Mn1944 O1960 2.297 . S
Mn1944 O1968 2.385 . S
Mn1944 O1969 2.209 . S
Mn1944 O1970 2.094 . S
Mn1945 O1950 2.121 . S
Mn1945 N1952 2.257 . S
Mn1945 N1961 2.282 . S
Mn1945 O1969 2.215 . S
Mn1945 O1971 2.117 . S
C1946 O1968 1.234 . S
C1946 O1969 1.283 . S
C1947 O1959 1.281 . S
C1947 O1960 1.236 . S
C1948 O1970 1.240 . S
C1948 O1971 1.264 . S
O1949 Mn1944 2.095 . S
O1949 C1958 1.250 . S
O1950 Mn1945 2.121 . S
O1950 C1958 1.258 . S
C1951 N1952 1.326 . S
C1951 C1955 1.460 . S
C1951 H1957 0.929 . S
N1952 Mn1945 2.257 . S
N1952 C1951 1.326 . S
N1952 C1956 1.362 . S
C1953 C1954 1.258 . S
C1953 C1956 1.431 . S
C1953 C1973 1.449 . S
C1954 C1953 1.258 . S
C1954 C1955 1.477 . S
C1954 H1974 0.931 . S
C1955 C1951 1.460 . S
C1955 C1954 1.477 . S
C1955 H1975 0.930 . S
C1956 N1952 1.362 . S
C1956 C1953 1.431 . S
C1956 C1966 1.476 . S
H1957 C1951 0.929 . S
C1958 O1949 1.250 . S
C1958 O1950 1.258 . S
O1959 Mn1944 2.162 . S
O1959 C1947 1.281 . S
O1960 Mn1944 2.297 . S
O1960 C1947 1.236 . S
N1961 Mn1945 2.282 . S
N1961 C1962 1.328 . S
N1961 C1966 1.318 . S
C1962 N1961 1.328 . S
C1962 C1963 1.457 . S
C1962 H1967 0.929 . S
C1963 C1962 1.457 . S
C1963 C1964 1.291 . S
C1963 H1976 0.931 . S
C1964 C1963 1.291 . S
C1964 C1965 1.373 . S
C1964 H1977 0.929 . S
C1965 C1964 1.373 . S
C1965 C1966 1.396 . S
C1965 C1972 1.403 . S
C1966 C1956 1.476 . S
C1966 N1961 1.318 . S
C1966 C1965 1.396 . S
H1967 C1962 0.929 . S
O1968 Mn1944 2.385 . S
O1968 C1946 1.234 . S
O1969 Mn1944 2.209 . S
O1969 Mn1945 2.215 . S
O1969 C1946 1.283 . S
O1970 Mn1944 2.094 . S
O1970 C1948 1.240 . S
O1971 Mn1945 2.117 . S
O1971 C1948 1.264 . S
C1972 C1965 1.403 . S
C1972 C1973 1.399 . S
C1972 H1978 0.929 . S
C1973 C1953 1.449 . S
C1973 C1972 1.399 . S
C1973 H1979 0.930 . S
H1974 C1954 0.931 . S
H1975 C1955 0.930 . S
H1976 C1963 0.931 . S
H1977 C1964 0.929 . S
H1978 C1972 0.929 . S
H1979 C1973 0.930 . S
Mn1980 O1985 2.095 . S
Mn1980 O1995 2.162 . S
Mn1980 O1996 2.297 . S
Mn1980 O2004 2.385 . S
Mn1980 O2005 2.209 . S
Mn1980 O2006 2.094 . S
Mn1981 O1986 2.121 . S
Mn1981 N1988 2.257 . S
Mn1981 N1997 2.282 . S
Mn1981 O2005 2.215 . S
Mn1981 O2007 2.117 . S
C1982 O2004 1.234 . S
C1982 O2005 1.283 . S
C1983 O1995 1.281 . S
C1983 O1996 1.236 . S
C1984 O2006 1.240 . S
C1984 O2007 1.264 . S
O1985 Mn1980 2.095 . S
O1985 C1994 1.250 . S
O1986 Mn1981 2.121 . S
O1986 C1994 1.258 . S
C1987 N1988 1.326 . S
C1987 C1991 1.460 . S
C1987 H1993 0.929 . S
N1988 Mn1981 2.257 . S
N1988 C1987 1.326 . S
N1988 C1992 1.362 . S
C1989 C1990 1.258 . S
C1989 C1992 1.431 . S
C1989 C2009 1.449 . S
C1990 C1989 1.258 . S
C1990 C1991 1.477 . S
C1990 H2010 0.931 . S
C1991 C1987 1.460 . S
C1991 C1990 1.477 . S
C1991 H2011 0.930 . S
C1992 N1988 1.362 . S
C1992 C1989 1.431 . S
C1992 C2002 1.476 . S
H1993 C1987 0.929 . S
C1994 O1985 1.250 . S
C1994 O1986 1.258 . S
O1995 Mn1980 2.162 . S
O1995 C1983 1.281 . S
O1996 Mn1980 2.297 . S
O1996 C1983 1.236 . S
N1997 Mn1981 2.282 . S
N1997 C1998 1.328 . S
N1997 C2002 1.318 . S
C1998 N1997 1.328 . S
C1998 C1999 1.457 . S
C1998 H2003 0.929 . S
C1999 C1998 1.457 . S
C1999 C2000 1.291 . S
C1999 H2012 0.931 . S
C2000 C1999 1.291 . S
C2000 C2001 1.373 . S
C2000 H2013 0.929 . S
C2001 C2000 1.373 . S
C2001 C2002 1.396 . S
C2001 C2008 1.403 . S
C2002 C1992 1.476 . S
C2002 N1997 1.318 . S
C2002 C2001 1.396 . S
H2003 C1998 0.929 . S
O2004 Mn1980 2.385 . S
O2004 C1982 1.234 . S
O2005 Mn1980 2.209 . S
O2005 Mn1981 2.215 . S
O2005 C1982 1.283 . S
O2006 Mn1980 2.094 . S
O2006 C1984 1.240 . S
O2007 Mn1981 2.117 . S
O2007 C1984 1.264 . S
C2008 C2001 1.403 . S
C2008 C2009 1.399 . S
C2008 H2014 0.929 . S
C2009 C1989 1.449 . S
C2009 C2008 1.399 . S
C2009 H2015 0.930 . S
H2010 C1990 0.931 . S
H2011 C1991 0.930 . S
H2012 C1999 0.931 . S
H2013 C2000 0.929 . S
H2014 C2008 0.929 . S
H2015 C2009 0.930 . S
Mn2016 O2021 2.095 . S
Mn2016 O2031 2.162 . S
Mn2016 O2032 2.297 . S
Mn2016 O2040 2.385 . S
Mn2016 O2041 2.209 . S
Mn2016 O2042 2.094 . S
Mn2017 O2022 2.121 . S
Mn2017 N2024 2.257 . S
Mn2017 N2033 2.282 . S
Mn2017 O2041 2.215 . S
Mn2017 O2043 2.117 . S
C2018 O2040 1.234 . S
C2018 O2041 1.283 . S
C2019 O2031 1.281 . S
C2019 O2032 1.236 . S
C2020 O2042 1.240 . S
C2020 O2043 1.264 . S
O2021 Mn2016 2.095 . S
O2021 C2030 1.250 . S
O2022 Mn2017 2.121 . S
O2022 C2030 1.258 . S
C2023 N2024 1.326 . S
C2023 C2027 1.460 . S
C2023 H2029 0.929 . S
N2024 Mn2017 2.257 . S
N2024 C2023 1.326 . S
N2024 C2028 1.362 . S
C2025 C2026 1.258 . S
C2025 C2028 1.431 . S
C2025 C2045 1.449 . S
C2026 C2025 1.258 . S
C2026 C2027 1.477 . S
C2026 H2046 0.931 . S
C2027 C2023 1.460 . S
C2027 C2026 1.477 . S
C2027 H2047 0.930 . S
C2028 N2024 1.362 . S
C2028 C2025 1.431 . S
C2028 C2038 1.476 . S
H2029 C2023 0.929 . S
C2030 O2021 1.250 . S
C2030 O2022 1.258 . S
O2031 Mn2016 2.162 . S
O2031 C2019 1.281 . S
O2032 Mn2016 2.297 . S
O2032 C2019 1.236 . S
N2033 Mn2017 2.282 . S
N2033 C2034 1.328 . S
N2033 C2038 1.318 . S
C2034 N2033 1.328 . S
C2034 C2035 1.457 . S
C2034 H2039 0.929 . S
C2035 C2034 1.457 . S
C2035 C2036 1.291 . S
C2035 H2048 0.931 . S
C2036 C2035 1.291 . S
C2036 C2037 1.373 . S
C2036 H2049 0.929 . S
C2037 C2036 1.373 . S
C2037 C2038 1.396 . S
C2037 C2044 1.403 . S
C2038 C2028 1.476 . S
C2038 N2033 1.318 . S
C2038 C2037 1.396 . S
H2039 C2034 0.929 . S
O2040 Mn2016 2.385 . S
O2040 C2018 1.234 . S
O2041 Mn2016 2.209 . S
O2041 Mn2017 2.215 . S
O2041 C2018 1.283 . S
O2042 Mn2016 2.094 . S
O2042 C2020 1.240 . S
O2043 Mn2017 2.117 . S
O2043 C2020 1.264 . S
C2044 C2037 1.403 . S
C2044 C2045 1.399 . S
C2044 H2050 0.929 . S
C2045 C2025 1.449 . S
C2045 C2044 1.399 . S
C2045 H2051 0.930 . S
H2046 C2026 0.931 . S
H2047 C2027 0.930 . S
H2048 C2035 0.931 . S
H2049 C2036 0.929 . S
H2050 C2044 0.929 . S
H2051 C2045 0.930 . S
Mn2052 O2057 2.095 . S
Mn2052 O2067 2.162 . S
Mn2052 O2068 2.297 . S
Mn2052 O2076 2.385 . S
Mn2052 O2077 2.209 . S
Mn2052 O2078 2.094 . S
Mn2053 O2058 2.121 . S
Mn2053 N2060 2.257 . S
Mn2053 N2069 2.282 . S
Mn2053 O2077 2.215 . S
Mn2053 O2079 2.117 . S
C2054 O2076 1.234 . S
C2054 O2077 1.283 . S
C2055 O2067 1.281 . S
C2055 O2068 1.236 . S
C2056 O2078 1.240 . S
C2056 O2079 1.264 . S
O2057 Mn2052 2.095 . S
O2057 C2066 1.250 . S
O2058 Mn2053 2.121 . S
O2058 C2066 1.258 . S
C2059 N2060 1.326 . S
C2059 C2063 1.460 . S
C2059 H2065 0.929 . S
N2060 Mn2053 2.257 . S
N2060 C2059 1.326 . S
N2060 C2064 1.362 . S
C2061 C2062 1.258 . S
C2061 C2064 1.431 . S
C2061 C2081 1.449 . S
C2062 C2061 1.258 . S
C2062 C2063 1.477 . S
C2062 H2082 0.931 . S
C2063 C2059 1.460 . S
C2063 C2062 1.477 . S
C2063 H2083 0.930 . S
C2064 N2060 1.362 . S
C2064 C2061 1.431 . S
C2064 C2074 1.476 . S
H2065 C2059 0.929 . S
C2066 O2057 1.250 . S
C2066 O2058 1.258 . S
O2067 Mn2052 2.162 . S
O2067 C2055 1.281 . S
O2068 Mn2052 2.297 . S
O2068 C2055 1.236 . S
N2069 Mn2053 2.282 . S
N2069 C2070 1.328 . S
N2069 C2074 1.318 . S
C2070 N2069 1.328 . S
C2070 C2071 1.457 . S
C2070 H2075 0.929 . S
C2071 C2070 1.457 . S
C2071 C2072 1.291 . S
C2071 H2084 0.931 . S
C2072 C2071 1.291 . S
C2072 C2073 1.373 . S
C2072 H2085 0.929 . S
C2073 C2072 1.373 . S
C2073 C2074 1.396 . S
C2073 C2080 1.403 . S
C2074 C2064 1.476 . S
C2074 N2069 1.318 . S
C2074 C2073 1.396 . S
H2075 C2070 0.929 . S
O2076 Mn2052 2.385 . S
O2076 C2054 1.234 . S
O2077 Mn2052 2.209 . S
O2077 Mn2053 2.215 . S
O2077 C2054 1.283 . S
O2078 Mn2052 2.094 . S
O2078 C2056 1.240 . S
O2079 Mn2053 2.117 . S
O2079 C2056 1.264 . S
C2080 C2073 1.403 . S
C2080 C2081 1.399 . S
C2080 H2086 0.929 . S
C2081 C2061 1.449 . S
C2081 C2080 1.399 . S
C2081 H2087 0.930 . S
H2082 C2062 0.931 . S
H2083 C2063 0.930 . S
H2084 C2071 0.931 . S
H2085 C2072 0.929 . S
H2086 C2080 0.929 . S
H2087 C2081 0.930 . S
Mn2088 O2093 2.095 . S
Mn2088 O2103 2.162 . S
Mn2088 O2104 2.297 . S
Mn2088 O2112 2.385 . S
Mn2088 O2113 2.209 . S
Mn2088 O2114 2.094 . S
Mn2089 O2094 2.121 . S
Mn2089 N2096 2.257 . S
Mn2089 N2105 2.282 . S
Mn2089 O2113 2.215 . S
Mn2089 O2115 2.117 . S
C2090 O2112 1.234 . S
C2090 O2113 1.283 . S
C2091 O2103 1.281 . S
C2091 O2104 1.236 . S
C2092 O2114 1.240 . S
C2092 O2115 1.264 . S
O2093 Mn2088 2.095 . S
O2093 C2102 1.250 . S
O2094 Mn2089 2.121 . S
O2094 C2102 1.258 . S
C2095 N2096 1.326 . S
C2095 C2099 1.460 . S
C2095 H2101 0.929 . S
N2096 Mn2089 2.257 . S
N2096 C2095 1.326 . S
N2096 C2100 1.362 . S
C2097 C2098 1.258 . S
C2097 C2100 1.431 . S
C2097 C2117 1.449 . S
C2098 C2097 1.258 . S
C2098 C2099 1.477 . S
C2098 H2118 0.931 . S
C2099 C2095 1.460 . S
C2099 C2098 1.477 . S
C2099 H2119 0.930 . S
C2100 N2096 1.362 . S
C2100 C2097 1.431 . S
C2100 C2110 1.476 . S
H2101 C2095 0.929 . S
C2102 O2093 1.250 . S
C2102 O2094 1.258 . S
O2103 Mn2088 2.162 . S
O2103 C2091 1.281 . S
O2104 Mn2088 2.297 . S
O2104 C2091 1.236 . S
N2105 Mn2089 2.282 . S
N2105 C2106 1.328 . S
N2105 C2110 1.318 . S
C2106 N2105 1.328 . S
C2106 C2107 1.457 . S
C2106 H2111 0.929 . S
C2107 C2106 1.457 . S
C2107 C2108 1.291 . S
C2107 H2120 0.931 . S
C2108 C2107 1.291 . S
C2108 C2109 1.373 . S
C2108 H2121 0.929 . S
C2109 C2108 1.373 . S
C2109 C2110 1.396 . S
C2109 C2116 1.403 . S
C2110 C2100 1.476 . S
C2110 N2105 1.318 . S
C2110 C2109 1.396 . S
H2111 C2106 0.929 . S
O2112 Mn2088 2.385 . S
O2112 C2090 1.234 . S
O2113 Mn2088 2.209 . S
O2113 Mn2089 2.215 . S
O2113 C2090 1.283 . S
O2114 Mn2088 2.094 . S
O2114 C2092 1.240 . S
O2115 Mn2089 2.117 . S
O2115 C2092 1.264 . S
C2116 C2109 1.403 . S
C2116 C2117 1.399 . S
C2116 H2122 0.929 . S
C2117 C2097 1.449 . S
C2117 C2116 1.399 . S
C2117 H2123 0.930 . S
H2118 C2098 0.931 . S
H2119 C2099 0.930 . S
H2120 C2107 0.931 . S
H2121 C2108 0.929 . S
H2122 C2116 0.929 . S
H2123 C2117 0.930 . S
Mn2124 O2129 2.095 . S
Mn2124 O2139 2.162 . S
Mn2124 O2140 2.297 . S
Mn2124 O2148 2.385 . S
Mn2124 O2149 2.209 . S
Mn2124 O2150 2.094 . S
Mn2125 O2130 2.121 . S
Mn2125 N2132 2.257 . S
Mn2125 N2141 2.282 . S
Mn2125 O2149 2.215 . S
Mn2125 O2151 2.117 . S
C2126 O2148 1.234 . S
C2126 O2149 1.283 . S
C2127 O2139 1.281 . S
C2127 O2140 1.236 . S
C2128 O2150 1.240 . S
C2128 O2151 1.264 . S
O2129 Mn2124 2.095 . S
O2129 C2138 1.250 . S
O2130 Mn2125 2.121 . S
O2130 C2138 1.258 . S
C2131 N2132 1.326 . S
C2131 C2135 1.460 . S
C2131 H2137 0.929 . S
N2132 Mn2125 2.257 . S
N2132 C2131 1.326 . S
N2132 C2136 1.362 . S
C2133 C2134 1.258 . S
C2133 C2136 1.431 . S
C2133 C2153 1.449 . S
C2134 C2133 1.258 . S
C2134 C2135 1.477 . S
C2134 H2154 0.931 . S
C2135 C2131 1.460 . S
C2135 C2134 1.477 . S
C2135 H2155 0.930 . S
C2136 N2132 1.362 . S
C2136 C2133 1.431 . S
C2136 C2146 1.476 . S
H2137 C2131 0.929 . S
C2138 O2129 1.250 . S
C2138 O2130 1.258 . S
O2139 Mn2124 2.162 . S
O2139 C2127 1.281 . S
O2140 Mn2124 2.297 . S
O2140 C2127 1.236 . S
N2141 Mn2125 2.282 . S
N2141 C2142 1.328 . S
N2141 C2146 1.318 . S
C2142 N2141 1.328 . S
C2142 C2143 1.457 . S
C2142 H2147 0.929 . S
C2143 C2142 1.457 . S
C2143 C2144 1.291 . S
C2143 H2156 0.931 . S
C2144 C2143 1.291 . S
C2144 C2145 1.373 . S
C2144 H2157 0.929 . S
C2145 C2144 1.373 . S
C2145 C2146 1.396 . S
C2145 C2152 1.403 . S
C2146 C2136 1.476 . S
C2146 N2141 1.318 . S
C2146 C2145 1.396 . S
H2147 C2142 0.929 . S
O2148 Mn2124 2.385 . S
O2148 C2126 1.234 . S
O2149 Mn2124 2.209 . S
O2149 Mn2125 2.215 . S
O2149 C2126 1.283 . S
O2150 Mn2124 2.094 . S
O2150 C2128 1.240 . S
O2151 Mn2125 2.117 . S
O2151 C2128 1.264 . S
C2152 C2145 1.403 . S
C2152 C2153 1.399 . S
C2152 H2158 0.929 . S
C2153 C2133 1.449 . S
C2153 C2152 1.399 . S
C2153 H2159 0.930 . S
H2154 C2134 0.931 . S
H2155 C2135 0.930 . S
H2156 C2143 0.931 . S
H2157 C2144 0.929 . S
H2158 C2152 0.929 . S
H2159 C2153 0.930 . S
Mn2160 O2165 2.095 . S
Mn2160 O2175 2.162 . S
Mn2160 O2176 2.297 . S
Mn2160 O2184 2.385 . S
Mn2160 O2185 2.209 . S
Mn2160 O2186 2.094 . S
Mn2161 O2166 2.121 . S
Mn2161 N2168 2.257 . S
Mn2161 N2177 2.282 . S
Mn2161 O2185 2.215 . S
Mn2161 O2187 2.117 . S
C2162 O2184 1.234 . S
C2162 O2185 1.283 . S
C2163 O2175 1.281 . S
C2163 O2176 1.236 . S
C2164 O2186 1.240 . S
C2164 O2187 1.264 . S
O2165 Mn2160 2.095 . S
O2165 C2174 1.250 . S
O2166 Mn2161 2.121 . S
O2166 C2174 1.258 . S
C2167 N2168 1.326 . S
C2167 C2171 1.460 . S
C2167 H2173 0.929 . S
N2168 Mn2161 2.257 . S
N2168 C2167 1.326 . S
N2168 C2172 1.362 . S
C2169 C2170 1.258 . S
C2169 C2172 1.431 . S
C2169 C2189 1.449 . S
C2170 C2169 1.258 . S
C2170 C2171 1.477 . S
C2170 H2190 0.931 . S
C2171 C2167 1.460 . S
C2171 C2170 1.477 . S
C2171 H2191 0.930 . S
C2172 N2168 1.362 . S
C2172 C2169 1.431 . S
C2172 C2182 1.476 . S
H2173 C2167 0.929 . S
C2174 O2165 1.250 . S
C2174 O2166 1.258 . S
O2175 Mn2160 2.162 . S
O2175 C2163 1.281 . S
O2176 Mn2160 2.297 . S
O2176 C2163 1.236 . S
N2177 Mn2161 2.282 . S
N2177 C2178 1.328 . S
N2177 C2182 1.318 . S
C2178 N2177 1.328 . S
C2178 C2179 1.457 . S
C2178 H2183 0.929 . S
C2179 C2178 1.457 . S
C2179 C2180 1.291 . S
C2179 H2192 0.931 . S
C2180 C2179 1.291 . S
C2180 C2181 1.373 . S
C2180 H2193 0.929 . S
C2181 C2180 1.373 . S
C2181 C2182 1.396 . S
C2181 C2188 1.403 . S
C2182 C2172 1.476 . S
C2182 N2177 1.318 . S
C2182 C2181 1.396 . S
H2183 C2178 0.929 . S
O2184 Mn2160 2.385 . S
O2184 C2162 1.234 . S
O2185 Mn2160 2.209 . S
O2185 Mn2161 2.215 . S
O2185 C2162 1.283 . S
O2186 Mn2160 2.094 . S
O2186 C2164 1.240 . S
O2187 Mn2161 2.117 . S
O2187 C2164 1.264 . S
C2188 C2181 1.403 . S
C2188 C2189 1.399 . S
C2188 H2194 0.929 . S
C2189 C2169 1.449 . S
C2189 C2188 1.399 . S
C2189 H2195 0.930 . S
H2190 C2170 0.931 . S
H2191 C2171 0.930 . S
H2192 C2179 0.931 . S
H2193 C2180 0.929 . S
H2194 C2188 0.929 . S
H2195 C2189 0.930 . S
Mn2196 O2201 2.095 . S
Mn2196 O2211 2.162 . S
Mn2196 O2212 2.297 . S
Mn2196 O2220 2.385 . S
Mn2196 O2221 2.209 . S
Mn2196 O2222 2.094 . S
Mn2197 O2202 2.121 . S
Mn2197 N2204 2.257 . S
Mn2197 N2213 2.282 . S
Mn2197 O2221 2.215 . S
Mn2197 O2223 2.117 . S
C2198 O2220 1.234 . S
C2198 O2221 1.283 . S
C2199 O2211 1.281 . S
C2199 O2212 1.236 . S
C2200 O2222 1.240 . S
C2200 O2223 1.264 . S
O2201 Mn2196 2.095 . S
O2201 C2210 1.250 . S
O2202 Mn2197 2.121 . S
O2202 C2210 1.258 . S
C2203 N2204 1.326 . S
C2203 C2207 1.460 . S
C2203 H2209 0.929 . S
N2204 Mn2197 2.257 . S
N2204 C2203 1.326 . S
N2204 C2208 1.362 . S
C2205 C2206 1.258 . S
C2205 C2208 1.431 . S
C2205 C2225 1.449 . S
C2206 C2205 1.258 . S
C2206 C2207 1.477 . S
C2206 H2226 0.931 . S
C2207 C2203 1.460 . S
C2207 C2206 1.477 . S
C2207 H2227 0.930 . S
C2208 N2204 1.362 . S
C2208 C2205 1.431 . S
C2208 C2218 1.476 . S
H2209 C2203 0.929 . S
C2210 O2201 1.250 . S
C2210 O2202 1.258 . S
O2211 Mn2196 2.162 . S
O2211 C2199 1.281 . S
O2212 Mn2196 2.297 . S
O2212 C2199 1.236 . S
N2213 Mn2197 2.282 . S
N2213 C2214 1.328 . S
N2213 C2218 1.318 . S
C2214 N2213 1.328 . S
C2214 C2215 1.457 . S
C2214 H2219 0.929 . S
C2215 C2214 1.457 . S
C2215 C2216 1.291 . S
C2215 H2228 0.931 . S
C2216 C2215 1.291 . S
C2216 C2217 1.373 . S
C2216 H2229 0.929 . S
C2217 C2216 1.373 . S
C2217 C2218 1.396 . S
C2217 C2224 1.403 . S
C2218 C2208 1.476 . S
C2218 N2213 1.318 . S
C2218 C2217 1.396 . S
H2219 C2214 0.929 . S
O2220 Mn2196 2.385 . S
O2220 C2198 1.234 . S
O2221 Mn2196 2.209 . S
O2221 Mn2197 2.215 . S
O2221 C2198 1.283 . S
O2222 Mn2196 2.094 . S
O2222 C2200 1.240 . S
O2223 Mn2197 2.117 . S
O2223 C2200 1.264 . S
C2224 C2217 1.403 . S
C2224 C2225 1.399 . S
C2224 H2230 0.929 . S
C2225 C2205 1.449 . S
C2225 C2224 1.399 . S
C2225 H2231 0.930 . S
H2226 C2206 0.931 . S
H2227 C2207 0.930 . S
H2228 C2215 0.931 . S
H2229 C2216 0.929 . S
H2230 C2224 0.929 . S
H2231 C2225 0.930 . S
Mn2232 O2237 2.095 . S
Mn2232 O2247 2.162 . S
Mn2232 O2248 2.297 . S
Mn2232 O2256 2.385 . S
Mn2232 O2257 2.209 . S
Mn2232 O2258 2.094 . S
Mn2233 O2238 2.121 . S
Mn2233 N2240 2.257 . S
Mn2233 N2249 2.282 . S
Mn2233 O2257 2.215 . S
Mn2233 O2259 2.117 . S
C2234 O2256 1.234 . S
C2234 O2257 1.283 . S
C2235 O2247 1.281 . S
C2235 O2248 1.236 . S
C2236 O2258 1.240 . S
C2236 O2259 1.264 . S
O2237 Mn2232 2.095 . S
O2237 C2246 1.250 . S
O2238 Mn2233 2.121 . S
O2238 C2246 1.258 . S
C2239 N2240 1.326 . S
C2239 C2243 1.460 . S
C2239 H2245 0.929 . S
N2240 Mn2233 2.257 . S
N2240 C2239 1.326 . S
N2240 C2244 1.362 . S
C2241 C2242 1.258 . S
C2241 C2244 1.431 . S
C2241 C2261 1.449 . S
C2242 C2241 1.258 . S
C2242 C2243 1.477 . S
C2242 H2262 0.931 . S
C2243 C2239 1.460 . S
C2243 C2242 1.477 . S
C2243 H2263 0.930 . S
C2244 N2240 1.362 . S
C2244 C2241 1.431 . S
C2244 C2254 1.476 . S
H2245 C2239 0.929 . S
C2246 O2237 1.250 . S
C2246 O2238 1.258 . S
O2247 Mn2232 2.162 . S
O2247 C2235 1.281 . S
O2248 Mn2232 2.297 . S
O2248 C2235 1.236 . S
N2249 Mn2233 2.282 . S
N2249 C2250 1.328 . S
N2249 C2254 1.318 . S
C2250 N2249 1.328 . S
C2250 C2251 1.457 . S
C2250 H2255 0.929 . S
C2251 C2250 1.457 . S
C2251 C2252 1.291 . S
C2251 H2264 0.931 . S
C2252 C2251 1.291 . S
C2252 C2253 1.373 . S
C2252 H2265 0.929 . S
C2253 C2252 1.373 . S
C2253 C2254 1.396 . S
C2253 C2260 1.403 . S
C2254 C2244 1.476 . S
C2254 N2249 1.318 . S
C2254 C2253 1.396 . S
H2255 C2250 0.929 . S
O2256 Mn2232 2.385 . S
O2256 C2234 1.234 . S
O2257 Mn2232 2.209 . S
O2257 Mn2233 2.215 . S
O2257 C2234 1.283 . S
O2258 Mn2232 2.094 . S
O2258 C2236 1.240 . S
O2259 Mn2233 2.117 . S
O2259 C2236 1.264 . S
C2260 C2253 1.403 . S
C2260 C2261 1.399 . S
C2260 H2266 0.929 . S
C2261 C2241 1.449 . S
C2261 C2260 1.399 . S
C2261 H2267 0.930 . S
H2262 C2242 0.931 . S
H2263 C2243 0.930 . S
H2264 C2251 0.931 . S
H2265 C2252 0.929 . S
H2266 C2260 0.929 . S
H2267 C2261 0.930 . S
Mn2268 O2273 2.095 . S
Mn2268 O2283 2.162 . S
Mn2268 O2284 2.297 . S
Mn2268 O2292 2.385 . S
Mn2268 O2293 2.209 . S
Mn2268 O2294 2.094 . S
Mn2269 O2274 2.121 . S
Mn2269 N2276 2.257 . S
Mn2269 N2285 2.282 . S
Mn2269 O2293 2.215 . S
Mn2269 O2295 2.117 . S
C2270 O2292 1.234 . S
C2270 O2293 1.283 . S
C2271 O2283 1.281 . S
C2271 O2284 1.236 . S
C2272 O2294 1.240 . S
C2272 O2295 1.264 . S
O2273 Mn2268 2.095 . S
O2273 C2282 1.250 . S
O2274 Mn2269 2.121 . S
O2274 C2282 1.258 . S
C2275 N2276 1.326 . S
C2275 C2279 1.460 . S
C2275 H2281 0.929 . S
N2276 Mn2269 2.257 . S
N2276 C2275 1.326 . S
N2276 C2280 1.362 . S
C2277 C2278 1.258 . S
C2277 C2280 1.431 . S
C2277 C2297 1.449 . S
C2278 C2277 1.258 . S
C2278 C2279 1.477 . S
C2278 H2298 0.931 . S
C2279 C2275 1.460 . S
C2279 C2278 1.477 . S
C2279 H2299 0.930 . S
C2280 N2276 1.362 . S
C2280 C2277 1.431 . S
C2280 C2290 1.476 . S
H2281 C2275 0.929 . S
C2282 O2273 1.250 . S
C2282 O2274 1.258 . S
O2283 Mn2268 2.162 . S
O2283 C2271 1.281 . S
O2284 Mn2268 2.297 . S
O2284 C2271 1.236 . S
N2285 Mn2269 2.282 . S
N2285 C2286 1.328 . S
N2285 C2290 1.318 . S
C2286 N2285 1.328 . S
C2286 C2287 1.457 . S
C2286 H2291 0.929 . S
C2287 C2286 1.457 . S
C2287 C2288 1.291 . S
C2287 H2300 0.931 . S
C2288 C2287 1.291 . S
C2288 C2289 1.373 . S
C2288 H2301 0.929 . S
C2289 C2288 1.373 . S
C2289 C2290 1.396 . S
C2289 C2296 1.403 . S
C2290 C2280 1.476 . S
C2290 N2285 1.318 . S
C2290 C2289 1.396 . S
H2291 C2286 0.929 . S
O2292 Mn2268 2.385 . S
O2292 C2270 1.234 . S
O2293 Mn2268 2.209 . S
O2293 Mn2269 2.215 . S
O2293 C2270 1.283 . S
O2294 Mn2268 2.094 . S
O2294 C2272 1.240 . S
O2295 Mn2269 2.117 . S
O2295 C2272 1.264 . S
C2296 C2289 1.403 . S
C2296 C2297 1.399 . S
C2296 H2302 0.929 . S
C2297 C2277 1.449 . S
C2297 C2296 1.399 . S
C2297 H2303 0.930 . S
H2298 C2278 0.931 . S
H2299 C2279 0.930 . S
H2300 C2287 0.931 . S
H2301 C2288 0.929 . S
H2302 C2296 0.929 . S
H2303 C2297 0.930 . S
Mn2304 O2309 2.095 . S
Mn2304 O2319 2.162 . S
Mn2304 O2320 2.297 . S
Mn2304 O2328 2.385 . S
Mn2304 O2329 2.209 . S
Mn2304 O2330 2.094 . S
Mn2305 O2310 2.121 . S
Mn2305 N2312 2.257 . S
Mn2305 N2321 2.282 . S
Mn2305 O2329 2.215 . S
Mn2305 O2331 2.117 . S
C2306 O2328 1.234 . S
C2306 O2329 1.283 . S
C2307 O2319 1.281 . S
C2307 O2320 1.236 . S
C2308 O2330 1.240 . S
C2308 O2331 1.264 . S
O2309 Mn2304 2.095 . S
O2309 C2318 1.250 . S
O2310 Mn2305 2.121 . S
O2310 C2318 1.258 . S
C2311 N2312 1.326 . S
C2311 C2315 1.460 . S
C2311 H2317 0.929 . S
N2312 Mn2305 2.257 . S
N2312 C2311 1.326 . S
N2312 C2316 1.362 . S
C2313 C2314 1.258 . S
C2313 C2316 1.431 . S
C2313 C2333 1.449 . S
C2314 C2313 1.258 . S
C2314 C2315 1.477 . S
C2314 H2334 0.931 . S
C2315 C2311 1.460 . S
C2315 C2314 1.477 . S
C2315 H2335 0.930 . S
C2316 N2312 1.362 . S
C2316 C2313 1.431 . S
C2316 C2326 1.476 . S
H2317 C2311 0.929 . S
C2318 O2309 1.250 . S
C2318 O2310 1.258 . S
O2319 Mn2304 2.162 . S
O2319 C2307 1.281 . S
O2320 Mn2304 2.297 . S
O2320 C2307 1.236 . S
N2321 Mn2305 2.282 . S
N2321 C2322 1.328 . S
N2321 C2326 1.318 . S
C2322 N2321 1.328 . S
C2322 C2323 1.457 . S
C2322 H2327 0.929 . S
C2323 C2322 1.457 . S
C2323 C2324 1.291 . S
C2323 H2336 0.931 . S
C2324 C2323 1.291 . S
C2324 C2325 1.373 . S
C2324 H2337 0.929 . S
C2325 C2324 1.373 . S
C2325 C2326 1.396 . S
C2325 C2332 1.403 . S
C2326 C2316 1.476 . S
C2326 N2321 1.318 . S
C2326 C2325 1.396 . S
H2327 C2322 0.929 . S
O2328 Mn2304 2.385 . S
O2328 C2306 1.234 . S
O2329 Mn2304 2.209 . S
O2329 Mn2305 2.215 . S
O2329 C2306 1.283 . S
O2330 Mn2304 2.094 . S
O2330 C2308 1.240 . S
O2331 Mn2305 2.117 . S
O2331 C2308 1.264 . S
C2332 C2325 1.403 . S
C2332 C2333 1.399 . S
C2332 H2338 0.929 . S
C2333 C2313 1.449 . S
C2333 C2332 1.399 . S
C2333 H2339 0.930 . S
H2334 C2314 0.931 . S
H2335 C2315 0.930 . S
H2336 C2323 0.931 . S
H2337 C2324 0.929 . S
H2338 C2332 0.929 . S
H2339 C2333 0.930 . S
Mn2340 O2345 2.095 . S
Mn2340 O2355 2.162 . S
Mn2340 O2356 2.297 . S
Mn2340 O2364 2.385 . S
Mn2340 O2365 2.209 . S
Mn2340 O2366 2.094 . S
Mn2341 O2346 2.121 . S
Mn2341 N2348 2.257 . S
Mn2341 N2357 2.282 . S
Mn2341 O2365 2.215 . S
Mn2341 O2367 2.117 . S
C2342 O2364 1.234 . S
C2342 O2365 1.283 . S
C2343 O2355 1.281 . S
C2343 O2356 1.236 . S
C2344 O2366 1.240 . S
C2344 O2367 1.264 . S
O2345 Mn2340 2.095 . S
O2345 C2354 1.250 . S
O2346 Mn2341 2.121 . S
O2346 C2354 1.258 . S
C2347 N2348 1.326 . S
C2347 C2351 1.460 . S
C2347 H2353 0.929 . S
N2348 Mn2341 2.257 . S
N2348 C2347 1.326 . S
N2348 C2352 1.362 . S
C2349 C2350 1.258 . S
C2349 C2352 1.431 . S
C2349 C2369 1.449 . S
C2350 C2349 1.258 . S
C2350 C2351 1.477 . S
C2350 H2370 0.931 . S
C2351 C2347 1.460 . S
C2351 C2350 1.477 . S
C2351 H2371 0.930 . S
C2352 N2348 1.362 . S
C2352 C2349 1.431 . S
C2352 C2362 1.476 . S
H2353 C2347 0.929 . S
C2354 O2345 1.250 . S
C2354 O2346 1.258 . S
O2355 Mn2340 2.162 . S
O2355 C2343 1.281 . S
O2356 Mn2340 2.297 . S
O2356 C2343 1.236 . S
N2357 Mn2341 2.282 . S
N2357 C2358 1.328 . S
N2357 C2362 1.318 . S
C2358 N2357 1.328 . S
C2358 C2359 1.457 . S
C2358 H2363 0.929 . S
C2359 C2358 1.457 . S
C2359 C2360 1.291 . S
C2359 H2372 0.931 . S
C2360 C2359 1.291 . S
C2360 C2361 1.373 . S
C2360 H2373 0.929 . S
C2361 C2360 1.373 . S
C2361 C2362 1.396 . S
C2361 C2368 1.403 . S
C2362 C2352 1.476 . S
C2362 N2357 1.318 . S
C2362 C2361 1.396 . S
H2363 C2358 0.929 . S
O2364 Mn2340 2.385 . S
O2364 C2342 1.234 . S
O2365 Mn2340 2.209 . S
O2365 Mn2341 2.215 . S
O2365 C2342 1.283 . S
O2366 Mn2340 2.094 . S
O2366 C2344 1.240 . S
O2367 Mn2341 2.117 . S
O2367 C2344 1.264 . S
C2368 C2361 1.403 . S
C2368 C2369 1.399 . S
C2368 H2374 0.929 . S
C2369 C2349 1.449 . S
C2369 C2368 1.399 . S
C2369 H2375 0.930 . S
H2370 C2350 0.931 . S
H2371 C2351 0.930 . S
H2372 C2359 0.931 . S
H2373 C2360 0.929 . S
H2374 C2368 0.929 . S
H2375 C2369 0.930 . S
Mn2376 O2381 2.095 . S
Mn2376 O2391 2.162 . S
Mn2376 O2392 2.297 . S
Mn2376 O2400 2.385 . S
Mn2376 O2401 2.209 . S
Mn2376 O2402 2.094 . S
Mn2377 O2382 2.121 . S
Mn2377 N2384 2.257 . S
Mn2377 N2393 2.282 . S
Mn2377 O2401 2.215 . S
Mn2377 O2403 2.117 . S
C2378 O2400 1.234 . S
C2378 O2401 1.283 . S
C2379 O2391 1.281 . S
C2379 O2392 1.236 . S
C2380 O2402 1.240 . S
C2380 O2403 1.264 . S
O2381 Mn2376 2.095 . S
O2381 C2390 1.250 . S
O2382 Mn2377 2.121 . S
O2382 C2390 1.258 . S
C2383 N2384 1.326 . S
C2383 C2387 1.460 . S
C2383 H2389 0.929 . S
N2384 Mn2377 2.257 . S
N2384 C2383 1.326 . S
N2384 C2388 1.362 . S
C2385 C2386 1.258 . S
C2385 C2388 1.431 . S
C2385 C2405 1.449 . S
C2386 C2385 1.258 . S
C2386 C2387 1.477 . S
C2386 H2406 0.931 . S
C2387 C2383 1.460 . S
C2387 C2386 1.477 . S
C2387 H2407 0.930 . S
C2388 N2384 1.362 . S
C2388 C2385 1.431 . S
C2388 C2398 1.476 . S
H2389 C2383 0.929 . S
C2390 O2381 1.250 . S
C2390 O2382 1.258 . S
O2391 Mn2376 2.162 . S
O2391 C2379 1.281 . S
O2392 Mn2376 2.297 . S
O2392 C2379 1.236 . S
N2393 Mn2377 2.282 . S
N2393 C2394 1.328 . S
N2393 C2398 1.318 . S
C2394 N2393 1.328 . S
C2394 C2395 1.457 . S
C2394 H2399 0.929 . S
C2395 C2394 1.457 . S
C2395 C2396 1.291 . S
C2395 H2408 0.931 . S
C2396 C2395 1.291 . S
C2396 C2397 1.373 . S
C2396 H2409 0.929 . S
C2397 C2396 1.373 . S
C2397 C2398 1.396 . S
C2397 C2404 1.403 . S
C2398 C2388 1.476 . S
C2398 N2393 1.318 . S
C2398 C2397 1.396 . S
H2399 C2394 0.929 . S
O2400 Mn2376 2.385 . S
O2400 C2378 1.234 . S
O2401 Mn2376 2.209 . S
O2401 Mn2377 2.215 . S
O2401 C2378 1.283 . S
O2402 Mn2376 2.094 . S
O2402 C2380 1.240 . S
O2403 Mn2377 2.117 . S
O2403 C2380 1.264 . S
C2404 C2397 1.403 . S
C2404 C2405 1.399 . S
C2404 H2410 0.929 . S
C2405 C2385 1.449 . S
C2405 C2404 1.399 . S
C2405 H2411 0.930 . S
H2406 C2386 0.931 . S
H2407 C2387 0.930 . S
H2408 C2395 0.931 . S
H2409 C2396 0.929 . S
H2410 C2404 0.929 . S
H2411 C2405 0.930 . S
Mn2412 O2417 2.095 . S
Mn2412 O2427 2.162 . S
Mn2412 O2428 2.297 . S
Mn2412 O2436 2.385 . S
Mn2412 O2437 2.209 . S
Mn2412 O2438 2.094 . S
Mn2413 O2418 2.121 . S
Mn2413 N2420 2.257 . S
Mn2413 N2429 2.282 . S
Mn2413 O2437 2.215 . S
Mn2413 O2439 2.117 . S
C2414 O2436 1.234 . S
C2414 O2437 1.283 . S
C2415 O2427 1.281 . S
C2415 O2428 1.236 . S
C2416 O2438 1.240 . S
C2416 O2439 1.264 . S
O2417 Mn2412 2.095 . S
O2417 C2426 1.250 . S
O2418 Mn2413 2.121 . S
O2418 C2426 1.258 . S
C2419 N2420 1.326 . S
C2419 C2423 1.460 . S
C2419 H2425 0.929 . S
N2420 Mn2413 2.257 . S
N2420 C2419 1.326 . S
N2420 C2424 1.362 . S
C2421 C2422 1.258 . S
C2421 C2424 1.431 . S
C2421 C2441 1.449 . S
C2422 C2421 1.258 . S
C2422 C2423 1.477 . S
C2422 H2442 0.931 . S
C2423 C2419 1.460 . S
C2423 C2422 1.477 . S
C2423 H2443 0.930 . S
C2424 N2420 1.362 . S
C2424 C2421 1.431 . S
C2424 C2434 1.476 . S
H2425 C2419 0.929 . S
C2426 O2417 1.250 . S
C2426 O2418 1.258 . S
O2427 Mn2412 2.162 . S
O2427 C2415 1.281 . S
O2428 Mn2412 2.297 . S
O2428 C2415 1.236 . S
N2429 Mn2413 2.282 . S
N2429 C2430 1.328 . S
N2429 C2434 1.318 . S
C2430 N2429 1.328 . S
C2430 C2431 1.457 . S
C2430 H2435 0.929 . S
C2431 C2430 1.457 . S
C2431 C2432 1.291 . S
C2431 H2444 0.931 . S
C2432 C2431 1.291 . S
C2432 C2433 1.373 . S
C2432 H2445 0.929 . S
C2433 C2432 1.373 . S
C2433 C2434 1.396 . S
C2433 C2440 1.403 . S
C2434 C2424 1.476 . S
C2434 N2429 1.318 . S
C2434 C2433 1.396 . S
H2435 C2430 0.929 . S
O2436 Mn2412 2.385 . S
O2436 C2414 1.234 . S
O2437 Mn2412 2.209 . S
O2437 Mn2413 2.215 . S
O2437 C2414 1.283 . S
O2438 Mn2412 2.094 . S
O2438 C2416 1.240 . S
O2439 Mn2413 2.117 . S
O2439 C2416 1.264 . S
C2440 C2433 1.403 . S
C2440 C2441 1.399 . S
C2440 H2446 0.929 . S
C2441 C2421 1.449 . S
C2441 C2440 1.399 . S
C2441 H2447 0.930 . S
H2442 C2422 0.931 . S
H2443 C2423 0.930 . S
H2444 C2431 0.931 . S
H2445 C2432 0.929 . S
H2446 C2440 0.929 . S
H2447 C2441 0.930 . S
Mn2448 O2453 2.095 . S
Mn2448 O2463 2.162 . S
Mn2448 O2464 2.297 . S
Mn2448 O2472 2.385 . S
Mn2448 O2473 2.209 . S
Mn2448 O2474 2.094 . S
Mn2449 O2454 2.121 . S
Mn2449 N2456 2.257 . S
Mn2449 N2465 2.282 . S
Mn2449 O2473 2.215 . S
Mn2449 O2475 2.117 . S
C2450 O2472 1.234 . S
C2450 O2473 1.283 . S
C2451 O2463 1.281 . S
C2451 O2464 1.236 . S
C2452 O2474 1.240 . S
C2452 O2475 1.264 . S
O2453 Mn2448 2.095 . S
O2453 C2462 1.250 . S
O2454 Mn2449 2.121 . S
O2454 C2462 1.258 . S
C2455 N2456 1.326 . S
C2455 C2459 1.460 . S
C2455 H2461 0.929 . S
N2456 Mn2449 2.257 . S
N2456 C2455 1.326 . S
N2456 C2460 1.362 . S
C2457 C2458 1.258 . S
C2457 C2460 1.431 . S
C2457 C2477 1.449 . S
C2458 C2457 1.258 . S
C2458 C2459 1.477 . S
C2458 H2478 0.931 . S
C2459 C2455 1.460 . S
C2459 C2458 1.477 . S
C2459 H2479 0.930 . S
C2460 N2456 1.362 . S
C2460 C2457 1.431 . S
C2460 C2470 1.476 . S
H2461 C2455 0.929 . S
C2462 O2453 1.250 . S
C2462 O2454 1.258 . S
O2463 Mn2448 2.162 . S
O2463 C2451 1.281 . S
O2464 Mn2448 2.297 . S
O2464 C2451 1.236 . S
N2465 Mn2449 2.282 . S
N2465 C2466 1.328 . S
N2465 C2470 1.318 . S
C2466 N2465 1.328 . S
C2466 C2467 1.457 . S
C2466 H2471 0.929 . S
C2467 C2466 1.457 . S
C2467 C2468 1.291 . S
C2467 H2480 0.931 . S
C2468 C2467 1.291 . S
C2468 C2469 1.373 . S
C2468 H2481 0.929 . S
C2469 C2468 1.373 . S
C2469 C2470 1.396 . S
C2469 C2476 1.403 . S
C2470 C2460 1.476 . S
C2470 N2465 1.318 . S
C2470 C2469 1.396 . S
H2471 C2466 0.929 . S
O2472 Mn2448 2.385 . S
O2472 C2450 1.234 . S
O2473 Mn2448 2.209 . S
O2473 Mn2449 2.215 . S
O2473 C2450 1.283 . S
O2474 Mn2448 2.094 . S
O2474 C2452 1.240 . S
O2475 Mn2449 2.117 . S
O2475 C2452 1.264 . S
C2476 C2469 1.403 . S
C2476 C2477 1.399 . S
C2476 H2482 0.929 . S
C2477 C2457 1.449 . S
C2477 C2476 1.399 . S
C2477 H2483 0.930 . S
H2478 C2458 0.931 . S
H2479 C2459 0.930 . S
H2480 C2467 0.931 . S
H2481 C2468 0.929 . S
H2482 C2476 0.929 . S
H2483 C2477 0.930 . S
Mn2484 O2489 2.095 . S
Mn2484 O2499 2.162 . S
Mn2484 O2500 2.297 . S
Mn2484 O2508 2.385 . S
Mn2484 O2509 2.209 . S
Mn2484 O2510 2.094 . S
Mn2485 O2490 2.121 . S
Mn2485 N2492 2.257 . S
Mn2485 N2501 2.282 . S
Mn2485 O2509 2.215 . S
Mn2485 O2511 2.117 . S
C2486 O2508 1.234 . S
C2486 O2509 1.283 . S
C2487 O2499 1.281 . S
C2487 O2500 1.236 . S
C2488 O2510 1.240 . S
C2488 O2511 1.264 . S
O2489 Mn2484 2.095 . S
O2489 C2498 1.250 . S
O2490 Mn2485 2.121 . S
O2490 C2498 1.258 . S
C2491 N2492 1.326 . S
C2491 C2495 1.460 . S
C2491 H2497 0.929 . S
N2492 Mn2485 2.257 . S
N2492 C2491 1.326 . S
N2492 C2496 1.362 . S
C2493 C2494 1.258 . S
C2493 C2496 1.431 . S
C2493 C2513 1.449 . S
C2494 C2493 1.258 . S
C2494 C2495 1.477 . S
C2494 H2514 0.931 . S
C2495 C2491 1.460 . S
C2495 C2494 1.477 . S
C2495 H2515 0.930 . S
C2496 N2492 1.362 . S
C2496 C2493 1.431 . S
C2496 C2506 1.476 . S
H2497 C2491 0.929 . S
C2498 O2489 1.250 . S
C2498 O2490 1.258 . S
O2499 Mn2484 2.162 . S
O2499 C2487 1.281 . S
O2500 Mn2484 2.297 . S
O2500 C2487 1.236 . S
N2501 Mn2485 2.282 . S
N2501 C2502 1.328 . S
N2501 C2506 1.318 . S
C2502 N2501 1.328 . S
C2502 C2503 1.457 . S
C2502 H2507 0.929 . S
C2503 C2502 1.457 . S
C2503 C2504 1.291 . S
C2503 H2516 0.931 . S
C2504 C2503 1.291 . S
C2504 C2505 1.373 . S
C2504 H2517 0.929 . S
C2505 C2504 1.373 . S
C2505 C2506 1.396 . S
C2505 C2512 1.403 . S
C2506 C2496 1.476 . S
C2506 N2501 1.318 . S
C2506 C2505 1.396 . S
H2507 C2502 0.929 . S
O2508 Mn2484 2.385 . S
O2508 C2486 1.234 . S
O2509 Mn2484 2.209 . S
O2509 Mn2485 2.215 . S
O2509 C2486 1.283 . S
O2510 Mn2484 2.094 . S
O2510 C2488 1.240 . S
O2511 Mn2485 2.117 . S
O2511 C2488 1.264 . S
C2512 C2505 1.403 . S
C2512 C2513 1.399 . S
C2512 H2518 0.929 . S
C2513 C2493 1.449 . S
C2513 C2512 1.399 . S
C2513 H2519 0.930 . S
H2514 C2494 0.931 . S
H2515 C2495 0.930 . S
H2516 C2503 0.931 . S
H2517 C2504 0.929 . S
H2518 C2512 0.929 . S
H2519 C2513 0.930 . S
Mn2520 O2525 2.095 . S
Mn2520 O2535 2.162 . S
Mn2520 O2536 2.297 . S
Mn2520 O2544 2.385 . S
Mn2520 O2545 2.209 . S
Mn2520 O2546 2.094 . S
Mn2521 O2526 2.121 . S
Mn2521 N2528 2.257 . S
Mn2521 N2537 2.282 . S
Mn2521 O2545 2.215 . S
Mn2521 O2547 2.117 . S
C2522 O2544 1.234 . S
C2522 O2545 1.283 . S
C2523 O2535 1.281 . S
C2523 O2536 1.236 . S
C2524 O2546 1.240 . S
C2524 O2547 1.264 . S
O2525 Mn2520 2.095 . S
O2525 C2534 1.250 . S
O2526 Mn2521 2.121 . S
O2526 C2534 1.258 . S
C2527 N2528 1.326 . S
C2527 C2531 1.460 . S
C2527 H2533 0.929 . S
N2528 Mn2521 2.257 . S
N2528 C2527 1.326 . S
N2528 C2532 1.362 . S
C2529 C2530 1.258 . S
C2529 C2532 1.431 . S
C2529 C2549 1.449 . S
C2530 C2529 1.258 . S
C2530 C2531 1.477 . S
C2530 H2550 0.931 . S
C2531 C2527 1.460 . S
C2531 C2530 1.477 . S
C2531 H2551 0.930 . S
C2532 N2528 1.362 . S
C2532 C2529 1.431 . S
C2532 C2542 1.476 . S
H2533 C2527 0.929 . S
C2534 O2525 1.250 . S
C2534 O2526 1.258 . S
O2535 Mn2520 2.162 . S
O2535 C2523 1.281 . S
O2536 Mn2520 2.297 . S
O2536 C2523 1.236 . S
N2537 Mn2521 2.282 . S
N2537 C2538 1.328 . S
N2537 C2542 1.318 . S
C2538 N2537 1.328 . S
C2538 C2539 1.457 . S
C2538 H2543 0.929 . S
C2539 C2538 1.457 . S
C2539 C2540 1.291 . S
C2539 H2552 0.931 . S
C2540 C2539 1.291 . S
C2540 C2541 1.373 . S
C2540 H2553 0.929 . S
C2541 C2540 1.373 . S
C2541 C2542 1.396 . S
C2541 C2548 1.403 . S
C2542 C2532 1.476 . S
C2542 N2537 1.318 . S
C2542 C2541 1.396 . S
H2543 C2538 0.929 . S
O2544 Mn2520 2.385 . S
O2544 C2522 1.234 . S
O2545 Mn2520 2.209 . S
O2545 Mn2521 2.215 . S
O2545 C2522 1.283 . S
O2546 Mn2520 2.094 . S
O2546 C2524 1.240 . S
O2547 Mn2521 2.117 . S
O2547 C2524 1.264 . S
C2548 C2541 1.403 . S
C2548 C2549 1.399 . S
C2548 H2554 0.929 . S
C2549 C2529 1.449 . S
C2549 C2548 1.399 . S
C2549 H2555 0.930 . S
H2550 C2530 0.931 . S
H2551 C2531 0.930 . S
H2552 C2539 0.931 . S
H2553 C2540 0.929 . S
H2554 C2548 0.929 . S
H2555 C2549 0.930 . S
Mn2556 O2561 2.095 . S
Mn2556 O2571 2.162 . S
Mn2556 O2572 2.297 . S
Mn2556 O2580 2.385 . S
Mn2556 O2581 2.209 . S
Mn2556 O2582 2.094 . S
Mn2557 O2562 2.121 . S
Mn2557 N2564 2.257 . S
Mn2557 N2573 2.282 . S
Mn2557 O2581 2.215 . S
Mn2557 O2583 2.117 . S
C2558 O2580 1.234 . S
C2558 O2581 1.283 . S
C2559 O2571 1.281 . S
C2559 O2572 1.236 . S
C2560 O2582 1.240 . S
C2560 O2583 1.264 . S
O2561 Mn2556 2.095 . S
O2561 C2570 1.250 . S
O2562 Mn2557 2.121 . S
O2562 C2570 1.258 . S
C2563 N2564 1.326 . S
C2563 C2567 1.460 . S
C2563 H2569 0.929 . S
N2564 Mn2557 2.257 . S
N2564 C2563 1.326 . S
N2564 C2568 1.362 . S
C2565 C2566 1.258 . S
C2565 C2568 1.431 . S
C2565 C2585 1.449 . S
C2566 C2565 1.258 . S
C2566 C2567 1.477 . S
C2566 H2586 0.931 . S
C2567 C2563 1.460 . S
C2567 C2566 1.477 . S
C2567 H2587 0.930 . S
C2568 N2564 1.362 . S
C2568 C2565 1.431 . S
C2568 C2578 1.476 . S
H2569 C2563 0.929 . S
C2570 O2561 1.250 . S
C2570 O2562 1.258 . S
O2571 Mn2556 2.162 . S
O2571 C2559 1.281 . S
O2572 Mn2556 2.297 . S
O2572 C2559 1.236 . S
N2573 Mn2557 2.282 . S
N2573 C2574 1.328 . S
N2573 C2578 1.318 . S
C2574 N2573 1.328 . S
C2574 C2575 1.457 . S
C2574 H2579 0.929 . S
C2575 C2574 1.457 . S
C2575 C2576 1.291 . S
C2575 H2588 0.931 . S
C2576 C2575 1.291 . S
C2576 C2577 1.373 . S
C2576 H2589 0.929 . S
C2577 C2576 1.373 . S
C2577 C2578 1.396 . S
C2577 C2584 1.403 . S
C2578 C2568 1.476 . S
C2578 N2573 1.318 . S
C2578 C2577 1.396 . S
H2579 C2574 0.929 . S
O2580 Mn2556 2.385 . S
O2580 C2558 1.234 . S
O2581 Mn2556 2.209 . S
O2581 Mn2557 2.215 . S
O2581 C2558 1.283 . S
O2582 Mn2556 2.094 . S
O2582 C2560 1.240 . S
O2583 Mn2557 2.117 . S
O2583 C2560 1.264 . S
C2584 C2577 1.403 . S
C2584 C2585 1.399 . S
C2584 H2590 0.929 . S
C2585 C2565 1.449 . S
C2585 C2584 1.399 . S
C2585 H2591 0.930 . S
H2586 C2566 0.931 . S
H2587 C2567 0.930 . S
H2588 C2575 0.931 . S
H2589 C2576 0.929 . S
H2590 C2584 0.929 . S
H2591 C2585 0.930 . S
Mn2592 O2597 2.095 . S
Mn2592 O2607 2.162 . S
Mn2592 O2608 2.297 . S
Mn2592 O2616 2.385 . S
Mn2592 O2617 2.209 . S
Mn2592 O2618 2.094 . S
Mn2593 O2598 2.121 . S
Mn2593 N2600 2.257 . S
Mn2593 N2609 2.282 . S
Mn2593 O2617 2.215 . S
Mn2593 O2619 2.117 . S
C2594 O2616 1.234 . S
C2594 O2617 1.283 . S
C2595 O2607 1.281 . S
C2595 O2608 1.236 . S
C2596 O2618 1.240 . S
C2596 O2619 1.264 . S
O2597 Mn2592 2.095 . S
O2597 C2606 1.250 . S
O2598 Mn2593 2.121 . S
O2598 C2606 1.258 . S
C2599 N2600 1.326 . S
C2599 C2603 1.460 . S
C2599 H2605 0.929 . S
N2600 Mn2593 2.257 . S
N2600 C2599 1.326 . S
N2600 C2604 1.362 . S
C2601 C2602 1.258 . S
C2601 C2604 1.431 . S
C2601 C2621 1.449 . S
C2602 C2601 1.258 . S
C2602 C2603 1.477 . S
C2602 H2622 0.931 . S
C2603 C2599 1.460 . S
C2603 C2602 1.477 . S
C2603 H2623 0.930 . S
C2604 N2600 1.362 . S
C2604 C2601 1.431 . S
C2604 C2614 1.476 . S
H2605 C2599 0.929 . S
C2606 O2597 1.250 . S
C2606 O2598 1.258 . S
O2607 Mn2592 2.162 . S
O2607 C2595 1.281 . S
O2608 Mn2592 2.297 . S
O2608 C2595 1.236 . S
N2609 Mn2593 2.282 . S
N2609 C2610 1.328 . S
N2609 C2614 1.318 . S
C2610 N2609 1.328 . S
C2610 C2611 1.457 . S
C2610 H2615 0.929 . S
C2611 C2610 1.457 . S
C2611 C2612 1.291 . S
C2611 H2624 0.931 . S
C2612 C2611 1.291 . S
C2612 C2613 1.373 . S
C2612 H2625 0.929 . S
C2613 C2612 1.373 . S
C2613 C2614 1.396 . S
C2613 C2620 1.403 . S
C2614 C2604 1.476 . S
C2614 N2609 1.318 . S
C2614 C2613 1.396 . S
H2615 C2610 0.929 . S
O2616 Mn2592 2.385 . S
O2616 C2594 1.234 . S
O2617 Mn2592 2.209 . S
O2617 Mn2593 2.215 . S
O2617 C2594 1.283 . S
O2618 Mn2592 2.094 . S
O2618 C2596 1.240 . S
O2619 Mn2593 2.117 . S
O2619 C2596 1.264 . S
C2620 C2613 1.403 . S
C2620 C2621 1.399 . S
C2620 H2626 0.929 . S
C2621 C2601 1.449 . S
C2621 C2620 1.399 . S
C2621 H2627 0.930 . S
H2622 C2602 0.931 . S
H2623 C2603 0.930 . S
H2624 C2611 0.931 . S
H2625 C2612 0.929 . S
H2626 C2620 0.929 . S
H2627 C2621 0.930 . S
Mn2628 O2633 2.095 . S
Mn2628 O2643 2.162 . S
Mn2628 O2644 2.297 . S
Mn2628 O2652 2.385 . S
Mn2628 O2653 2.209 . S
Mn2628 O2654 2.094 . S
Mn2629 O2634 2.121 . S
Mn2629 N2636 2.257 . S
Mn2629 N2645 2.282 . S
Mn2629 O2653 2.215 . S
Mn2629 O2655 2.117 . S
C2630 O2652 1.234 . S
C2630 O2653 1.283 . S
C2631 O2643 1.281 . S
C2631 O2644 1.236 . S
C2632 O2654 1.240 . S
C2632 O2655 1.264 . S
O2633 Mn2628 2.095 . S
O2633 C2642 1.250 . S
O2634 Mn2629 2.121 . S
O2634 C2642 1.258 . S
C2635 N2636 1.326 . S
C2635 C2639 1.460 . S
C2635 H2641 0.929 . S
N2636 Mn2629 2.257 . S
N2636 C2635 1.326 . S
N2636 C2640 1.362 . S
C2637 C2638 1.258 . S
C2637 C2640 1.431 . S
C2637 C2657 1.449 . S
C2638 C2637 1.258 . S
C2638 C2639 1.477 . S
C2638 H2658 0.931 . S
C2639 C2635 1.460 . S
C2639 C2638 1.477 . S
C2639 H2659 0.930 . S
C2640 N2636 1.362 . S
C2640 C2637 1.431 . S
C2640 C2650 1.476 . S
H2641 C2635 0.929 . S
C2642 O2633 1.250 . S
C2642 O2634 1.258 . S
O2643 Mn2628 2.162 . S
O2643 C2631 1.281 . S
O2644 Mn2628 2.297 . S
O2644 C2631 1.236 . S
N2645 Mn2629 2.282 . S
N2645 C2646 1.328 . S
N2645 C2650 1.318 . S
C2646 N2645 1.328 . S
C2646 C2647 1.457 . S
C2646 H2651 0.929 . S
C2647 C2646 1.457 . S
C2647 C2648 1.291 . S
C2647 H2660 0.931 . S
C2648 C2647 1.291 . S
C2648 C2649 1.373 . S
C2648 H2661 0.929 . S
C2649 C2648 1.373 . S
C2649 C2650 1.396 . S
C2649 C2656 1.403 . S
C2650 C2640 1.476 . S
C2650 N2645 1.318 . S
C2650 C2649 1.396 . S
H2651 C2646 0.929 . S
O2652 Mn2628 2.385 . S
O2652 C2630 1.234 . S
O2653 Mn2628 2.209 . S
O2653 Mn2629 2.215 . S
O2653 C2630 1.283 . S
O2654 Mn2628 2.094 . S
O2654 C2632 1.240 . S
O2655 Mn2629 2.117 . S
O2655 C2632 1.264 . S
C2656 C2649 1.403 . S
C2656 C2657 1.399 . S
C2656 H2662 0.929 . S
C2657 C2637 1.449 . S
C2657 C2656 1.399 . S
C2657 H2663 0.930 . S
H2658 C2638 0.931 . S
H2659 C2639 0.930 . S
H2660 C2647 0.931 . S
H2661 C2648 0.929 . S
H2662 C2656 0.929 . S
H2663 C2657 0.930 . S
Mn2664 O2669 2.095 . S
Mn2664 O2679 2.162 . S
Mn2664 O2680 2.297 . S
Mn2664 O2688 2.385 . S
Mn2664 O2689 2.209 . S
Mn2664 O2690 2.094 . S
Mn2665 O2670 2.121 . S
Mn2665 N2672 2.257 . S
Mn2665 N2681 2.282 . S
Mn2665 O2689 2.215 . S
Mn2665 O2691 2.117 . S
C2666 O2688 1.234 . S
C2666 O2689 1.283 . S
C2667 O2679 1.281 . S
C2667 O2680 1.236 . S
C2668 O2690 1.240 . S
C2668 O2691 1.264 . S
O2669 Mn2664 2.095 . S
O2669 C2678 1.250 . S
O2670 Mn2665 2.121 . S
O2670 C2678 1.258 . S
C2671 N2672 1.326 . S
C2671 C2675 1.460 . S
C2671 H2677 0.929 . S
N2672 Mn2665 2.257 . S
N2672 C2671 1.326 . S
N2672 C2676 1.362 . S
C2673 C2674 1.258 . S
C2673 C2676 1.431 . S
C2673 C2693 1.449 . S
C2674 C2673 1.258 . S
C2674 C2675 1.477 . S
C2674 H2694 0.931 . S
C2675 C2671 1.460 . S
C2675 C2674 1.477 . S
C2675 H2695 0.930 . S
C2676 N2672 1.362 . S
C2676 C2673 1.431 . S
C2676 C2686 1.476 . S
H2677 C2671 0.929 . S
C2678 O2669 1.250 . S
C2678 O2670 1.258 . S
O2679 Mn2664 2.162 . S
O2679 C2667 1.281 . S
O2680 Mn2664 2.297 . S
O2680 C2667 1.236 . S
N2681 Mn2665 2.282 . S
N2681 C2682 1.328 . S
N2681 C2686 1.318 . S
C2682 N2681 1.328 . S
C2682 C2683 1.457 . S
C2682 H2687 0.929 . S
C2683 C2682 1.457 . S
C2683 C2684 1.291 . S
C2683 H2696 0.931 . S
C2684 C2683 1.291 . S
C2684 C2685 1.373 . S
C2684 H2697 0.929 . S
C2685 C2684 1.373 . S
C2685 C2686 1.396 . S
C2685 C2692 1.403 . S
C2686 C2676 1.476 . S
C2686 N2681 1.318 . S
C2686 C2685 1.396 . S
H2687 C2682 0.929 . S
O2688 Mn2664 2.385 . S
O2688 C2666 1.234 . S
O2689 Mn2664 2.209 . S
O2689 Mn2665 2.215 . S
O2689 C2666 1.283 . S
O2690 Mn2664 2.094 . S
O2690 C2668 1.240 . S
O2691 Mn2665 2.117 . S
O2691 C2668 1.264 . S
C2692 C2685 1.403 . S
C2692 C2693 1.399 . S
C2692 H2698 0.929 . S
C2693 C2673 1.449 . S
C2693 C2692 1.399 . S
C2693 H2699 0.930 . S
H2694 C2674 0.931 . S
H2695 C2675 0.930 . S
H2696 C2683 0.931 . S
H2697 C2684 0.929 . S
H2698 C2692 0.929 . S
H2699 C2693 0.930 . S
Mn2700 O2705 2.095 . S
Mn2700 O2715 2.162 . S
Mn2700 O2716 2.297 . S
Mn2700 O2724 2.385 . S
Mn2700 O2725 2.209 . S
Mn2700 O2726 2.094 . S
Mn2701 O2706 2.121 . S
Mn2701 N2708 2.257 . S
Mn2701 N2717 2.282 . S
Mn2701 O2725 2.215 . S
Mn2701 O2727 2.117 . S
C2702 O2724 1.234 . S
C2702 O2725 1.283 . S
C2703 O2715 1.281 . S
C2703 O2716 1.236 . S
C2704 O2726 1.240 . S
C2704 O2727 1.264 . S
O2705 Mn2700 2.095 . S
O2705 C2714 1.250 . S
O2706 Mn2701 2.121 . S
O2706 C2714 1.258 . S
C2707 N2708 1.326 . S
C2707 C2711 1.460 . S
C2707 H2713 0.929 . S
N2708 Mn2701 2.257 . S
N2708 C2707 1.326 . S
N2708 C2712 1.362 . S
C2709 C2710 1.258 . S
C2709 C2712 1.431 . S
C2709 C2729 1.449 . S
C2710 C2709 1.258 . S
C2710 C2711 1.477 . S
C2710 H2730 0.931 . S
C2711 C2707 1.460 . S
C2711 C2710 1.477 . S
C2711 H2731 0.930 . S
C2712 N2708 1.362 . S
C2712 C2709 1.431 . S
C2712 C2722 1.476 . S
H2713 C2707 0.929 . S
C2714 O2705 1.250 . S
C2714 O2706 1.258 . S
O2715 Mn2700 2.162 . S
O2715 C2703 1.281 . S
O2716 Mn2700 2.297 . S
O2716 C2703 1.236 . S
N2717 Mn2701 2.282 . S
N2717 C2718 1.328 . S
N2717 C2722 1.318 . S
C2718 N2717 1.328 . S
C2718 C2719 1.457 . S
C2718 H2723 0.929 . S
C2719 C2718 1.457 . S
C2719 C2720 1.291 . S
C2719 H2732 0.931 . S
C2720 C2719 1.291 . S
C2720 C2721 1.373 . S
C2720 H2733 0.929 . S
C2721 C2720 1.373 . S
C2721 C2722 1.396 . S
C2721 C2728 1.403 . S
C2722 C2712 1.476 . S
C2722 N2717 1.318 . S
C2722 C2721 1.396 . S
H2723 C2718 0.929 . S
O2724 Mn2700 2.385 . S
O2724 C2702 1.234 . S
O2725 Mn2700 2.209 . S
O2725 Mn2701 2.215 . S
O2725 C2702 1.283 . S
O2726 Mn2700 2.094 . S
O2726 C2704 1.240 . S
O2727 Mn2701 2.117 . S
O2727 C2704 1.264 . S
C2728 C2721 1.403 . S
C2728 C2729 1.399 . S
C2728 H2734 0.929 . S
C2729 C2709 1.449 . S
C2729 C2728 1.399 . S
C2729 H2735 0.930 . S
H2730 C2710 0.931 . S
H2731 C2711 0.930 . S
H2732 C2719 0.931 . S
H2733 C2720 0.929 . S
H2734 C2728 0.929 . S
H2735 C2729 0.930 . S
Mn2736 O2741 2.095 . S
Mn2736 O2751 2.162 . S
Mn2736 O2752 2.297 . S
Mn2736 O2760 2.385 . S
Mn2736 O2761 2.209 . S
Mn2736 O2762 2.094 . S
Mn2737 O2742 2.121 . S
Mn2737 N2744 2.257 . S
Mn2737 N2753 2.282 . S
Mn2737 O2761 2.215 . S
Mn2737 O2763 2.117 . S
C2738 O2760 1.234 . S
C2738 O2761 1.283 . S
C2739 O2751 1.281 . S
C2739 O2752 1.236 . S
C2740 O2762 1.240 . S
C2740 O2763 1.264 . S
O2741 Mn2736 2.095 . S
O2741 C2750 1.250 . S
O2742 Mn2737 2.121 . S
O2742 C2750 1.258 . S
C2743 N2744 1.326 . S
C2743 C2747 1.460 . S
C2743 H2749 0.929 . S
N2744 Mn2737 2.257 . S
N2744 C2743 1.326 . S
N2744 C2748 1.362 . S
C2745 C2746 1.258 . S
C2745 C2748 1.431 . S
C2745 C2765 1.449 . S
C2746 C2745 1.258 . S
C2746 C2747 1.477 . S
C2746 H2766 0.931 . S
C2747 C2743 1.460 . S
C2747 C2746 1.477 . S
C2747 H2767 0.930 . S
C2748 N2744 1.362 . S
C2748 C2745 1.431 . S
C2748 C2758 1.476 . S
H2749 C2743 0.929 . S
C2750 O2741 1.250 . S
C2750 O2742 1.258 . S
O2751 Mn2736 2.162 . S
O2751 C2739 1.281 . S
O2752 Mn2736 2.297 . S
O2752 C2739 1.236 . S
N2753 Mn2737 2.282 . S
N2753 C2754 1.328 . S
N2753 C2758 1.318 . S
C2754 N2753 1.328 . S
C2754 C2755 1.457 . S
C2754 H2759 0.929 . S
C2755 C2754 1.457 . S
C2755 C2756 1.291 . S
C2755 H2768 0.931 . S
C2756 C2755 1.291 . S
C2756 C2757 1.373 . S
C2756 H2769 0.929 . S
C2757 C2756 1.373 . S
C2757 C2758 1.396 . S
C2757 C2764 1.403 . S
C2758 C2748 1.476 . S
C2758 N2753 1.318 . S
C2758 C2757 1.396 . S
H2759 C2754 0.929 . S
O2760 Mn2736 2.385 . S
O2760 C2738 1.234 . S
O2761 Mn2736 2.209 . S
O2761 Mn2737 2.215 . S
O2761 C2738 1.283 . S
O2762 Mn2736 2.094 . S
O2762 C2740 1.240 . S
O2763 Mn2737 2.117 . S
O2763 C2740 1.264 . S
C2764 C2757 1.403 . S
C2764 C2765 1.399 . S
C2764 H2770 0.929 . S
C2765 C2745 1.449 . S
C2765 C2764 1.399 . S
C2765 H2771 0.930 . S
H2766 C2746 0.931 . S
H2767 C2747 0.930 . S
H2768 C2755 0.931 . S
H2769 C2756 0.929 . S
H2770 C2764 0.929 . S
H2771 C2765 0.930 . S
Mn2772 O2777 2.095 . S
Mn2772 O2787 2.162 . S
Mn2772 O2788 2.297 . S
Mn2772 O2796 2.385 . S
Mn2772 O2797 2.209 . S
Mn2772 O2798 2.094 . S
Mn2773 O2778 2.121 . S
Mn2773 N2780 2.257 . S
Mn2773 N2789 2.282 . S
Mn2773 O2797 2.215 . S
Mn2773 O2799 2.117 . S
C2774 O2796 1.234 . S
C2774 O2797 1.283 . S
C2775 O2787 1.281 . S
C2775 O2788 1.236 . S
C2776 O2798 1.240 . S
C2776 O2799 1.264 . S
O2777 Mn2772 2.095 . S
O2777 C2786 1.250 . S
O2778 Mn2773 2.121 . S
O2778 C2786 1.258 . S
C2779 N2780 1.326 . S
C2779 C2783 1.460 . S
C2779 H2785 0.929 . S
N2780 Mn2773 2.257 . S
N2780 C2779 1.326 . S
N2780 C2784 1.362 . S
C2781 C2782 1.258 . S
C2781 C2784 1.431 . S
C2781 C2801 1.449 . S
C2782 C2781 1.258 . S
C2782 C2783 1.477 . S
C2782 H2802 0.931 . S
C2783 C2779 1.460 . S
C2783 C2782 1.477 . S
C2783 H2803 0.930 . S
C2784 N2780 1.362 . S
C2784 C2781 1.431 . S
C2784 C2794 1.476 . S
H2785 C2779 0.929 . S
C2786 O2777 1.250 . S
C2786 O2778 1.258 . S
O2787 Mn2772 2.162 . S
O2787 C2775 1.281 . S
O2788 Mn2772 2.297 . S
O2788 C2775 1.236 . S
N2789 Mn2773 2.282 . S
N2789 C2790 1.328 . S
N2789 C2794 1.318 . S
C2790 N2789 1.328 . S
C2790 C2791 1.457 . S
C2790 H2795 0.929 . S
C2791 C2790 1.457 . S
C2791 C2792 1.291 . S
C2791 H2804 0.931 . S
C2792 C2791 1.291 . S
C2792 C2793 1.373 . S
C2792 H2805 0.929 . S
C2793 C2792 1.373 . S
C2793 C2794 1.396 . S
C2793 C2800 1.403 . S
C2794 C2784 1.476 . S
C2794 N2789 1.318 . S
C2794 C2793 1.396 . S
H2795 C2790 0.929 . S
O2796 Mn2772 2.385 . S
O2796 C2774 1.234 . S
O2797 Mn2772 2.209 . S
O2797 Mn2773 2.215 . S
O2797 C2774 1.283 . S
O2798 Mn2772 2.094 . S
O2798 C2776 1.240 . S
O2799 Mn2773 2.117 . S
O2799 C2776 1.264 . S
C2800 C2793 1.403 . S
C2800 C2801 1.399 . S
C2800 H2806 0.929 . S
C2801 C2781 1.449 . S
C2801 C2800 1.399 . S
C2801 H2807 0.930 . S
H2802 C2782 0.931 . S
H2803 C2783 0.930 . S
H2804 C2791 0.931 . S
H2805 C2792 0.929 . S
H2806 C2800 0.929 . S
H2807 C2801 0.930 . S
Mn2808 O2813 2.095 . S
Mn2808 O2823 2.162 . S
Mn2808 O2824 2.297 . S
Mn2808 O2832 2.385 . S
Mn2808 O2833 2.209 . S
Mn2808 O2834 2.094 . S
Mn2809 O2814 2.121 . S
Mn2809 N2816 2.257 . S
Mn2809 N2825 2.282 . S
Mn2809 O2833 2.215 . S
Mn2809 O2835 2.117 . S
C2810 O2832 1.234 . S
C2810 O2833 1.283 . S
C2811 O2823 1.281 . S
C2811 O2824 1.236 . S
C2812 O2834 1.240 . S
C2812 O2835 1.264 . S
O2813 Mn2808 2.095 . S
O2813 C2822 1.250 . S
O2814 Mn2809 2.121 . S
O2814 C2822 1.258 . S
C2815 N2816 1.326 . S
C2815 C2819 1.460 . S
C2815 H2821 0.929 . S
N2816 Mn2809 2.257 . S
N2816 C2815 1.326 . S
N2816 C2820 1.362 . S
C2817 C2818 1.258 . S
C2817 C2820 1.431 . S
C2817 C2837 1.449 . S
C2818 C2817 1.258 . S
C2818 C2819 1.477 . S
C2818 H2838 0.931 . S
C2819 C2815 1.460 . S
C2819 C2818 1.477 . S
C2819 H2839 0.930 . S
C2820 N2816 1.362 . S
C2820 C2817 1.431 . S
C2820 C2830 1.476 . S
H2821 C2815 0.929 . S
C2822 O2813 1.250 . S
C2822 O2814 1.258 . S
O2823 Mn2808 2.162 . S
O2823 C2811 1.281 . S
O2824 Mn2808 2.297 . S
O2824 C2811 1.236 . S
N2825 Mn2809 2.282 . S
N2825 C2826 1.328 . S
N2825 C2830 1.318 . S
C2826 N2825 1.328 . S
C2826 C2827 1.457 . S
C2826 H2831 0.929 . S
C2827 C2826 1.457 . S
C2827 C2828 1.291 . S
C2827 H2840 0.931 . S
C2828 C2827 1.291 . S
C2828 C2829 1.373 . S
C2828 H2841 0.929 . S
C2829 C2828 1.373 . S
C2829 C2830 1.396 . S
C2829 C2836 1.403 . S
C2830 C2820 1.476 . S
C2830 N2825 1.318 . S
C2830 C2829 1.396 . S
H2831 C2826 0.929 . S
O2832 Mn2808 2.385 . S
O2832 C2810 1.234 . S
O2833 Mn2808 2.209 . S
O2833 Mn2809 2.215 . S
O2833 C2810 1.283 . S
O2834 Mn2808 2.094 . S
O2834 C2812 1.240 . S
O2835 Mn2809 2.117 . S
O2835 C2812 1.264 . S
C2836 C2829 1.403 . S
C2836 C2837 1.399 . S
C2836 H2842 0.929 . S
C2837 C2817 1.449 . S
C2837 C2836 1.399 . S
C2837 H2843 0.930 . S
H2838 C2818 0.931 . S
H2839 C2819 0.930 . S
H2840 C2827 0.931 . S
H2841 C2828 0.929 . S
H2842 C2836 0.929 . S
H2843 C2837 0.930 . S
Mn2844 O2849 2.095 . S
Mn2844 O2859 2.162 . S
Mn2844 O2860 2.297 . S
Mn2844 O2868 2.385 . S
Mn2844 O2869 2.209 . S
Mn2844 O2870 2.094 . S
Mn2845 O2850 2.121 . S
Mn2845 N2852 2.257 . S
Mn2845 N2861 2.282 . S
Mn2845 O2869 2.215 . S
Mn2845 O2871 2.117 . S
C2846 O2868 1.234 . S
C2846 O2869 1.283 . S
C2847 O2859 1.281 . S
C2847 O2860 1.236 . S
C2848 O2870 1.240 . S
C2848 O2871 1.264 . S
O2849 Mn2844 2.095 . S
O2849 C2858 1.250 . S
O2850 Mn2845 2.121 . S
O2850 C2858 1.258 . S
C2851 N2852 1.326 . S
C2851 C2855 1.460 . S
C2851 H2857 0.929 . S
N2852 Mn2845 2.257 . S
N2852 C2851 1.326 . S
N2852 C2856 1.362 . S
C2853 C2854 1.258 . S
C2853 C2856 1.431 . S
C2853 C2873 1.449 . S
C2854 C2853 1.258 . S
C2854 C2855 1.477 . S
C2854 H2874 0.931 . S
C2855 C2851 1.460 . S
C2855 C2854 1.477 . S
C2855 H2875 0.930 . S
C2856 N2852 1.362 . S
C2856 C2853 1.431 . S
C2856 C2866 1.476 . S
H2857 C2851 0.929 . S
C2858 O2849 1.250 . S
C2858 O2850 1.258 . S
O2859 Mn2844 2.162 . S
O2859 C2847 1.281 . S
O2860 Mn2844 2.297 . S
O2860 C2847 1.236 . S
N2861 Mn2845 2.282 . S
N2861 C2862 1.328 . S
N2861 C2866 1.318 . S
C2862 N2861 1.328 . S
C2862 C2863 1.457 . S
C2862 H2867 0.929 . S
C2863 C2862 1.457 . S
C2863 C2864 1.291 . S
C2863 H2876 0.931 . S
C2864 C2863 1.291 . S
C2864 C2865 1.373 . S
C2864 H2877 0.929 . S
C2865 C2864 1.373 . S
C2865 C2866 1.396 . S
C2865 C2872 1.403 . S
C2866 C2856 1.476 . S
C2866 N2861 1.318 . S
C2866 C2865 1.396 . S
H2867 C2862 0.929 . S
O2868 Mn2844 2.385 . S
O2868 C2846 1.234 . S
O2869 Mn2844 2.209 . S
O2869 Mn2845 2.215 . S
O2869 C2846 1.283 . S
O2870 Mn2844 2.094 . S
O2870 C2848 1.240 . S
O2871 Mn2845 2.117 . S
O2871 C2848 1.264 . S
C2872 C2865 1.403 . S
C2872 C2873 1.399 . S
C2872 H2878 0.929 . S
C2873 C2853 1.449 . S
C2873 C2872 1.399 . S
C2873 H2879 0.930 . S
H2874 C2854 0.931 . S
H2875 C2855 0.930 . S
H2876 C2863 0.931 . S
H2877 C2864 0.929 . S
H2878 C2872 0.929 . S
H2879 C2873 0.930 . S
Mn2880 O2885 2.095 . S
Mn2880 O2895 2.162 . S
Mn2880 O2896 2.297 . S
Mn2880 O2904 2.385 . S
Mn2880 O2905 2.209 . S
Mn2880 O2906 2.094 . S
Mn2881 O2886 2.121 . S
Mn2881 N2888 2.257 . S
Mn2881 N2897 2.282 . S
Mn2881 O2905 2.215 . S
Mn2881 O2907 2.117 . S
C2882 O2904 1.234 . S
C2882 O2905 1.283 . S
C2883 O2895 1.281 . S
C2883 O2896 1.236 . S
C2884 O2906 1.240 . S
C2884 O2907 1.264 . S
O2885 Mn2880 2.095 . S
O2885 C2894 1.250 . S
O2886 Mn2881 2.121 . S
O2886 C2894 1.258 . S
C2887 N2888 1.326 . S
C2887 C2891 1.460 . S
C2887 H2893 0.929 . S
N2888 Mn2881 2.257 . S
N2888 C2887 1.326 . S
N2888 C2892 1.362 . S
C2889 C2890 1.258 . S
C2889 C2892 1.431 . S
C2889 C2909 1.449 . S
C2890 C2889 1.258 . S
C2890 C2891 1.477 . S
C2890 H2910 0.931 . S
C2891 C2887 1.460 . S
C2891 C2890 1.477 . S
C2891 H2911 0.930 . S
C2892 N2888 1.362 . S
C2892 C2889 1.431 . S
C2892 C2902 1.476 . S
H2893 C2887 0.929 . S
C2894 O2885 1.250 . S
C2894 O2886 1.258 . S
O2895 Mn2880 2.162 . S
O2895 C2883 1.281 . S
O2896 Mn2880 2.297 . S
O2896 C2883 1.236 . S
N2897 Mn2881 2.282 . S
N2897 C2898 1.328 . S
N2897 C2902 1.318 . S
C2898 N2897 1.328 . S
C2898 C2899 1.457 . S
C2898 H2903 0.929 . S
C2899 C2898 1.457 . S
C2899 C2900 1.291 . S
C2899 H2912 0.931 . S
C2900 C2899 1.291 . S
C2900 C2901 1.373 . S
C2900 H2913 0.929 . S
C2901 C2900 1.373 . S
C2901 C2902 1.396 . S
C2901 C2908 1.403 . S
C2902 C2892 1.476 . S
C2902 N2897 1.318 . S
C2902 C2901 1.396 . S
H2903 C2898 0.929 . S
O2904 Mn2880 2.385 . S
O2904 C2882 1.234 . S
O2905 Mn2880 2.209 . S
O2905 Mn2881 2.215 . S
O2905 C2882 1.283 . S
O2906 Mn2880 2.094 . S
O2906 C2884 1.240 . S
O2907 Mn2881 2.117 . S
O2907 C2884 1.264 . S
C2908 C2901 1.403 . S
C2908 C2909 1.399 . S
C2908 H2914 0.929 . S
C2909 C2889 1.449 . S
C2909 C2908 1.399 . S
C2909 H2915 0.930 . S
H2910 C2890 0.931 . S
H2911 C2891 0.930 . S
H2912 C2899 0.931 . S
H2913 C2900 0.929 . S
H2914 C2908 0.929 . S
H2915 C2909 0.930 . S
Mn2916 O2921 2.095 . S
Mn2916 O2931 2.162 . S
Mn2916 O2932 2.297 . S
Mn2916 O2940 2.385 . S
Mn2916 O2941 2.209 . S
Mn2916 O2942 2.094 . S
Mn2917 O2922 2.121 . S
Mn2917 N2924 2.257 . S
Mn2917 N2933 2.282 . S
Mn2917 O2941 2.215 . S
Mn2917 O2943 2.117 . S
C2918 O2940 1.234 . S
C2918 O2941 1.283 . S
C2919 O2931 1.281 . S
C2919 O2932 1.236 . S
C2920 O2942 1.240 . S
C2920 O2943 1.264 . S
O2921 Mn2916 2.095 . S
O2921 C2930 1.250 . S
O2922 Mn2917 2.121 . S
O2922 C2930 1.258 . S
C2923 N2924 1.326 . S
C2923 C2927 1.460 . S
C2923 H2929 0.929 . S
N2924 Mn2917 2.257 . S
N2924 C2923 1.326 . S
N2924 C2928 1.362 . S
C2925 C2926 1.258 . S
C2925 C2928 1.431 . S
C2925 C2945 1.449 . S
C2926 C2925 1.258 . S
C2926 C2927 1.477 . S
C2926 H2946 0.931 . S
C2927 C2923 1.460 . S
C2927 C2926 1.477 . S
C2927 H2947 0.930 . S
C2928 N2924 1.362 . S
C2928 C2925 1.431 . S
C2928 C2938 1.476 . S
H2929 C2923 0.929 . S
C2930 O2921 1.250 . S
C2930 O2922 1.258 . S
O2931 Mn2916 2.162 . S
O2931 C2919 1.281 . S
O2932 Mn2916 2.297 . S
O2932 C2919 1.236 . S
N2933 Mn2917 2.282 . S
N2933 C2934 1.328 . S
N2933 C2938 1.318 . S
C2934 N2933 1.328 . S
C2934 C2935 1.457 . S
C2934 H2939 0.929 . S
C2935 C2934 1.457 . S
C2935 C2936 1.291 . S
C2935 H2948 0.931 . S
C2936 C2935 1.291 . S
C2936 C2937 1.373 . S
C2936 H2949 0.929 . S
C2937 C2936 1.373 . S
C2937 C2938 1.396 . S
C2937 C2944 1.403 . S
C2938 C2928 1.476 . S
C2938 N2933 1.318 . S
C2938 C2937 1.396 . S
H2939 C2934 0.929 . S
O2940 Mn2916 2.385 . S
O2940 C2918 1.234 . S
O2941 Mn2916 2.209 . S
O2941 Mn2917 2.215 . S
O2941 C2918 1.283 . S
O2942 Mn2916 2.094 . S
O2942 C2920 1.240 . S
O2943 Mn2917 2.117 . S
O2943 C2920 1.264 . S
C2944 C2937 1.403 . S
C2944 C2945 1.399 . S
C2944 H2950 0.929 . S
C2945 C2925 1.449 . S
C2945 C2944 1.399 . S
C2945 H2951 0.930 . S
H2946 C2926 0.931 . S
H2947 C2927 0.930 . S
H2948 C2935 0.931 . S
H2949 C2936 0.929 . S
H2950 C2944 0.929 . S
H2951 C2945 0.930 . S
Mn2952 O2957 2.095 . S
Mn2952 O2967 2.162 . S
Mn2952 O2968 2.297 . S
Mn2952 O2976 2.385 . S
Mn2952 O2977 2.209 . S
Mn2952 O2978 2.094 . S
Mn2953 O2958 2.121 . S
Mn2953 N2960 2.257 . S
Mn2953 N2969 2.282 . S
Mn2953 O2977 2.215 . S
Mn2953 O2979 2.117 . S
C2954 O2976 1.234 . S
C2954 O2977 1.283 . S
C2955 O2967 1.281 . S
C2955 O2968 1.236 . S
C2956 O2978 1.240 . S
C2956 O2979 1.264 . S
O2957 Mn2952 2.095 . S
O2957 C2966 1.250 . S
O2958 Mn2953 2.121 . S
O2958 C2966 1.258 . S
C2959 N2960 1.326 . S
C2959 C2963 1.460 . S
C2959 H2965 0.929 . S
N2960 Mn2953 2.257 . S
N2960 C2959 1.326 . S
N2960 C2964 1.362 . S
C2961 C2962 1.258 . S
C2961 C2964 1.431 . S
C2961 C2981 1.449 . S
C2962 C2961 1.258 . S
C2962 C2963 1.477 . S
C2962 H2982 0.931 . S
C2963 C2959 1.460 . S
C2963 C2962 1.477 . S
C2963 H2983 0.930 . S
C2964 N2960 1.362 . S
C2964 C2961 1.431 . S
C2964 C2974 1.476 . S
H2965 C2959 0.929 . S
C2966 O2957 1.250 . S
C2966 O2958 1.258 . S
O2967 Mn2952 2.162 . S
O2967 C2955 1.281 . S
O2968 Mn2952 2.297 . S
O2968 C2955 1.236 . S
N2969 Mn2953 2.282 . S
N2969 C2970 1.328 . S
N2969 C2974 1.318 . S
C2970 N2969 1.328 . S
C2970 C2971 1.457 . S
C2970 H2975 0.929 . S
C2971 C2970 1.457 . S
C2971 C2972 1.291 . S
C2971 H2984 0.931 . S
C2972 C2971 1.291 . S
C2972 C2973 1.373 . S
C2972 H2985 0.929 . S
C2973 C2972 1.373 . S
C2973 C2974 1.396 . S
C2973 C2980 1.403 . S
C2974 C2964 1.476 . S
C2974 N2969 1.318 . S
C2974 C2973 1.396 . S
H2975 C2970 0.929 . S
O2976 Mn2952 2.385 . S
O2976 C2954 1.234 . S
O2977 Mn2952 2.209 . S
O2977 Mn2953 2.215 . S
O2977 C2954 1.283 . S
O2978 Mn2952 2.094 . S
O2978 C2956 1.240 . S
O2979 Mn2953 2.117 . S
O2979 C2956 1.264 . S
C2980 C2973 1.403 . S
C2980 C2981 1.399 . S
C2980 H2986 0.929 . S
C2981 C2961 1.449 . S
C2981 C2980 1.399 . S
C2981 H2987 0.930 . S
H2982 C2962 0.931 . S
H2983 C2963 0.930 . S
H2984 C2971 0.931 . S
H2985 C2972 0.929 . S
H2986 C2980 0.929 . S
H2987 C2981 0.930 . S
Mn2988 O2993 2.095 . S
Mn2988 O3003 2.162 . S
Mn2988 O3004 2.297 . S
Mn2988 O3012 2.385 . S
Mn2988 O3013 2.209 . S
Mn2988 O3014 2.094 . S
Mn2989 O2994 2.121 . S
Mn2989 N2996 2.257 . S
Mn2989 N3005 2.282 . S
Mn2989 O3013 2.215 . S
Mn2989 O3015 2.117 . S
C2990 O3012 1.234 . S
C2990 O3013 1.283 . S
C2991 O3003 1.281 . S
C2991 O3004 1.236 . S
C2992 O3014 1.240 . S
C2992 O3015 1.264 . S
O2993 Mn2988 2.095 . S
O2993 C3002 1.250 . S
O2994 Mn2989 2.121 . S
O2994 C3002 1.258 . S
C2995 N2996 1.326 . S
C2995 C2999 1.460 . S
C2995 H3001 0.929 . S
N2996 Mn2989 2.257 . S
N2996 C2995 1.326 . S
N2996 C3000 1.362 . S
C2997 C2998 1.258 . S
C2997 C3000 1.431 . S
C2997 C3017 1.449 . S
C2998 C2997 1.258 . S
C2998 C2999 1.477 . S
C2998 H3018 0.931 . S
C2999 C2995 1.460 . S
C2999 C2998 1.477 . S
C2999 H3019 0.930 . S
C3000 N2996 1.362 . S
C3000 C2997 1.431 . S
C3000 C3010 1.476 . S
H3001 C2995 0.929 . S
C3002 O2993 1.250 . S
C3002 O2994 1.258 . S
O3003 Mn2988 2.162 . S
O3003 C2991 1.281 . S
O3004 Mn2988 2.297 . S
O3004 C2991 1.236 . S
N3005 Mn2989 2.282 . S
N3005 C3006 1.328 . S
N3005 C3010 1.318 . S
C3006 N3005 1.328 . S
C3006 C3007 1.457 . S
C3006 H3011 0.929 . S
C3007 C3006 1.457 . S
C3007 C3008 1.291 . S
C3007 H3020 0.931 . S
C3008 C3007 1.291 . S
C3008 C3009 1.373 . S
C3008 H3021 0.929 . S
C3009 C3008 1.373 . S
C3009 C3010 1.396 . S
C3009 C3016 1.403 . S
C3010 C3000 1.476 . S
C3010 N3005 1.318 . S
C3010 C3009 1.396 . S
H3011 C3006 0.929 . S
O3012 Mn2988 2.385 . S
O3012 C2990 1.234 . S
O3013 Mn2988 2.209 . S
O3013 Mn2989 2.215 . S
O3013 C2990 1.283 . S
O3014 Mn2988 2.094 . S
O3014 C2992 1.240 . S
O3015 Mn2989 2.117 . S
O3015 C2992 1.264 . S
C3016 C3009 1.403 . S
C3016 C3017 1.399 . S
C3016 H3022 0.929 . S
C3017 C2997 1.449 . S
C3017 C3016 1.399 . S
C3017 H3023 0.930 . S
H3018 C2998 0.931 . S
H3019 C2999 0.930 . S
H3020 C3007 0.931 . S
H3021 C3008 0.929 . S
H3022 C3016 0.929 . S
H3023 C3017 0.930 . S
Mn3024 O3029 2.095 . S
Mn3024 O3039 2.162 . S
Mn3024 O3040 2.297 . S
Mn3024 O3048 2.385 . S
Mn3024 O3049 2.209 . S
Mn3024 O3050 2.094 . S
Mn3025 O3030 2.121 . S
Mn3025 N3032 2.257 . S
Mn3025 N3041 2.282 . S
Mn3025 O3049 2.215 . S
Mn3025 O3051 2.117 . S
C3026 O3048 1.234 . S
C3026 O3049 1.283 . S
C3027 O3039 1.281 . S
C3027 O3040 1.236 . S
C3028 O3050 1.240 . S
C3028 O3051 1.264 . S
O3029 Mn3024 2.095 . S
O3029 C3038 1.250 . S
O3030 Mn3025 2.121 . S
O3030 C3038 1.258 . S
C3031 N3032 1.326 . S
C3031 C3035 1.460 . S
C3031 H3037 0.929 . S
N3032 Mn3025 2.257 . S
N3032 C3031 1.326 . S
N3032 C3036 1.362 . S
C3033 C3034 1.258 . S
C3033 C3036 1.431 . S
C3033 C3053 1.449 . S
C3034 C3033 1.258 . S
C3034 C3035 1.477 . S
C3034 H3054 0.931 . S
C3035 C3031 1.460 . S
C3035 C3034 1.477 . S
C3035 H3055 0.930 . S
C3036 N3032 1.362 . S
C3036 C3033 1.431 . S
C3036 C3046 1.476 . S
H3037 C3031 0.929 . S
C3038 O3029 1.250 . S
C3038 O3030 1.258 . S
O3039 Mn3024 2.162 . S
O3039 C3027 1.281 . S
O3040 Mn3024 2.297 . S
O3040 C3027 1.236 . S
N3041 Mn3025 2.282 . S
N3041 C3042 1.328 . S
N3041 C3046 1.318 . S
C3042 N3041 1.328 . S
C3042 C3043 1.457 . S
C3042 H3047 0.929 . S
C3043 C3042 1.457 . S
C3043 C3044 1.291 . S
C3043 H3056 0.931 . S
C3044 C3043 1.291 . S
C3044 C3045 1.373 . S
C3044 H3057 0.929 . S
C3045 C3044 1.373 . S
C3045 C3046 1.396 . S
C3045 C3052 1.403 . S
C3046 C3036 1.476 . S
C3046 N3041 1.318 . S
C3046 C3045 1.396 . S
H3047 C3042 0.929 . S
O3048 Mn3024 2.385 . S
O3048 C3026 1.234 . S
O3049 Mn3024 2.209 . S
O3049 Mn3025 2.215 . S
O3049 C3026 1.283 . S
O3050 Mn3024 2.094 . S
O3050 C3028 1.240 . S
O3051 Mn3025 2.117 . S
O3051 C3028 1.264 . S
C3052 C3045 1.403 . S
C3052 C3053 1.399 . S
C3052 H3058 0.929 . S
C3053 C3033 1.449 . S
C3053 C3052 1.399 . S
C3053 H3059 0.930 . S
H3054 C3034 0.931 . S
H3055 C3035 0.930 . S
H3056 C3043 0.931 . S
H3057 C3044 0.929 . S
H3058 C3052 0.929 . S
H3059 C3053 0.930 . S
Mn3060 O3065 2.095 . S
Mn3060 O3075 2.162 . S
Mn3060 O3076 2.297 . S
Mn3060 O3084 2.385 . S
Mn3060 O3085 2.209 . S
Mn3060 O3086 2.094 . S
Mn3061 O3066 2.121 . S
Mn3061 N3068 2.257 . S
Mn3061 N3077 2.282 . S
Mn3061 O3085 2.215 . S
Mn3061 O3087 2.117 . S
C3062 O3084 1.234 . S
C3062 O3085 1.283 . S
C3063 O3075 1.281 . S
C3063 O3076 1.236 . S
C3064 O3086 1.240 . S
C3064 O3087 1.264 . S
O3065 Mn3060 2.095 . S
O3065 C3074 1.250 . S
O3066 Mn3061 2.121 . S
O3066 C3074 1.258 . S
C3067 N3068 1.326 . S
C3067 C3071 1.460 . S
C3067 H3073 0.929 . S
N3068 Mn3061 2.257 . S
N3068 C3067 1.326 . S
N3068 C3072 1.362 . S
C3069 C3070 1.258 . S
C3069 C3072 1.431 . S
C3069 C3089 1.449 . S
C3070 C3069 1.258 . S
C3070 C3071 1.477 . S
C3070 H3090 0.931 . S
C3071 C3067 1.460 . S
C3071 C3070 1.477 . S
C3071 H3091 0.930 . S
C3072 N3068 1.362 . S
C3072 C3069 1.431 . S
C3072 C3082 1.476 . S
H3073 C3067 0.929 . S
C3074 O3065 1.250 . S
C3074 O3066 1.258 . S
O3075 Mn3060 2.162 . S
O3075 C3063 1.281 . S
O3076 Mn3060 2.297 . S
O3076 C3063 1.236 . S
N3077 Mn3061 2.282 . S
N3077 C3078 1.328 . S
N3077 C3082 1.318 . S
C3078 N3077 1.328 . S
C3078 C3079 1.457 . S
C3078 H3083 0.929 . S
C3079 C3078 1.457 . S
C3079 C3080 1.291 . S
C3079 H3092 0.931 . S
C3080 C3079 1.291 . S
C3080 C3081 1.373 . S
C3080 H3093 0.929 . S
C3081 C3080 1.373 . S
C3081 C3082 1.396 . S
C3081 C3088 1.403 . S
C3082 C3072 1.476 . S
C3082 N3077 1.318 . S
C3082 C3081 1.396 . S
H3083 C3078 0.929 . S
O3084 Mn3060 2.385 . S
O3084 C3062 1.234 . S
O3085 Mn3060 2.209 . S
O3085 Mn3061 2.215 . S
O3085 C3062 1.283 . S
O3086 Mn3060 2.094 . S
O3086 C3064 1.240 . S
O3087 Mn3061 2.117 . S
O3087 C3064 1.264 . S
C3088 C3081 1.403 . S
C3088 C3089 1.399 . S
C3088 H3094 0.929 . S
C3089 C3069 1.449 . S
C3089 C3088 1.399 . S
C3089 H3095 0.930 . S
H3090 C3070 0.931 . S
H3091 C3071 0.930 . S
H3092 C3079 0.931 . S
H3093 C3080 0.929 . S
H3094 C3088 0.929 . S
H3095 C3089 0.930 . S
Mn3096 O3101 2.095 . S
Mn3096 O3111 2.162 . S
Mn3096 O3112 2.297 . S
Mn3096 O3120 2.385 . S
Mn3096 O3121 2.209 . S
Mn3096 O3122 2.094 . S
Mn3097 O3102 2.121 . S
Mn3097 N3104 2.257 . S
Mn3097 N3113 2.282 . S
Mn3097 O3121 2.215 . S
Mn3097 O3123 2.117 . S
C3098 O3120 1.234 . S
C3098 O3121 1.283 . S
C3099 O3111 1.281 . S
C3099 O3112 1.236 . S
C3100 O3122 1.240 . S
C3100 O3123 1.264 . S
O3101 Mn3096 2.095 . S
O3101 C3110 1.250 . S
O3102 Mn3097 2.121 . S
O3102 C3110 1.258 . S
C3103 N3104 1.326 . S
C3103 C3107 1.460 . S
C3103 H3109 0.929 . S
N3104 Mn3097 2.257 . S
N3104 C3103 1.326 . S
N3104 C3108 1.362 . S
C3105 C3106 1.258 . S
C3105 C3108 1.431 . S
C3105 C3125 1.449 . S
C3106 C3105 1.258 . S
C3106 C3107 1.477 . S
C3106 H3126 0.931 . S
C3107 C3103 1.460 . S
C3107 C3106 1.477 . S
C3107 H3127 0.930 . S
C3108 N3104 1.362 . S
C3108 C3105 1.431 . S
C3108 C3118 1.476 . S
H3109 C3103 0.929 . S
C3110 O3101 1.250 . S
C3110 O3102 1.258 . S
O3111 Mn3096 2.162 . S
O3111 C3099 1.281 . S
O3112 Mn3096 2.297 . S
O3112 C3099 1.236 . S
N3113 Mn3097 2.282 . S
N3113 C3114 1.328 . S
N3113 C3118 1.318 . S
C3114 N3113 1.328 . S
C3114 C3115 1.457 . S
C3114 H3119 0.929 . S
C3115 C3114 1.457 . S
C3115 C3116 1.291 . S
C3115 H3128 0.931 . S
C3116 C3115 1.291 . S
C3116 C3117 1.373 . S
C3116 H3129 0.929 . S
C3117 C3116 1.373 . S
C3117 C3118 1.396 . S
C3117 C3124 1.403 . S
C3118 C3108 1.476 . S
C3118 N3113 1.318 . S
C3118 C3117 1.396 . S
H3119 C3114 0.929 . S
O3120 Mn3096 2.385 . S
O3120 C3098 1.234 . S
O3121 Mn3096 2.209 . S
O3121 Mn3097 2.215 . S
O3121 C3098 1.283 . S
O3122 Mn3096 2.094 . S
O3122 C3100 1.240 . S
O3123 Mn3097 2.117 . S
O3123 C3100 1.264 . S
C3124 C3117 1.403 . S
C3124 C3125 1.399 . S
C3124 H3130 0.929 . S
C3125 C3105 1.449 . S
C3125 C3124 1.399 . S
C3125 H3131 0.930 . S
H3126 C3106 0.931 . S
H3127 C3107 0.930 . S
H3128 C3115 0.931 . S
H3129 C3116 0.929 . S
H3130 C3124 0.929 . S
H3131 C3125 0.930 . S
Mn3132 O3137 2.095 . S
Mn3132 O3147 2.162 . S
Mn3132 O3148 2.297 . S
Mn3132 O3156 2.385 . S
Mn3132 O3157 2.209 . S
Mn3132 O3158 2.094 . S
Mn3133 O3138 2.121 . S
Mn3133 N3140 2.257 . S
Mn3133 N3149 2.282 . S
Mn3133 O3157 2.215 . S
Mn3133 O3159 2.117 . S
C3134 O3156 1.234 . S
C3134 O3157 1.283 . S
C3135 O3147 1.281 . S
C3135 O3148 1.236 . S
C3136 O3158 1.240 . S
C3136 O3159 1.264 . S
O3137 Mn3132 2.095 . S
O3137 C3146 1.250 . S
O3138 Mn3133 2.121 . S
O3138 C3146 1.258 . S
C3139 N3140 1.326 . S
C3139 C3143 1.460 . S
C3139 H3145 0.929 . S
N3140 Mn3133 2.257 . S
N3140 C3139 1.326 . S
N3140 C3144 1.362 . S
C3141 C3142 1.258 . S
C3141 C3144 1.431 . S
C3141 C3161 1.449 . S
C3142 C3141 1.258 . S
C3142 C3143 1.477 . S
C3142 H3162 0.931 . S
C3143 C3139 1.460 . S
C3143 C3142 1.477 . S
C3143 H3163 0.930 . S
C3144 N3140 1.362 . S
C3144 C3141 1.431 . S
C3144 C3154 1.476 . S
H3145 C3139 0.929 . S
C3146 O3137 1.250 . S
C3146 O3138 1.258 . S
O3147 Mn3132 2.162 . S
O3147 C3135 1.281 . S
O3148 Mn3132 2.297 . S
O3148 C3135 1.236 . S
N3149 Mn3133 2.282 . S
N3149 C3150 1.328 . S
N3149 C3154 1.318 . S
C3150 N3149 1.328 . S
C3150 C3151 1.457 . S
C3150 H3155 0.929 . S
C3151 C3150 1.457 . S
C3151 C3152 1.291 . S
C3151 H3164 0.931 . S
C3152 C3151 1.291 . S
C3152 C3153 1.373 . S
C3152 H3165 0.929 . S
C3153 C3152 1.373 . S
C3153 C3154 1.396 . S
C3153 C3160 1.403 . S
C3154 C3144 1.476 . S
C3154 N3149 1.318 . S
C3154 C3153 1.396 . S
H3155 C3150 0.929 . S
O3156 Mn3132 2.385 . S
O3156 C3134 1.234 . S
O3157 Mn3132 2.209 . S
O3157 Mn3133 2.215 . S
O3157 C3134 1.283 . S
O3158 Mn3132 2.094 . S
O3158 C3136 1.240 . S
O3159 Mn3133 2.117 . S
O3159 C3136 1.264 . S
C3160 C3153 1.403 . S
C3160 C3161 1.399 . S
C3160 H3166 0.929 . S
C3161 C3141 1.449 . S
C3161 C3160 1.399 . S
C3161 H3167 0.930 . S
H3162 C3142 0.931 . S
H3163 C3143 0.930 . S
H3164 C3151 0.931 . S
H3165 C3152 0.929 . S
H3166 C3160 0.929 . S
H3167 C3161 0.930 . S
Mn3168 O3173 2.095 . S
Mn3168 O3183 2.162 . S
Mn3168 O3184 2.297 . S
Mn3168 O3192 2.385 . S
Mn3168 O3193 2.209 . S
Mn3168 O3194 2.094 . S
Mn3169 O3174 2.121 . S
Mn3169 N3176 2.257 . S
Mn3169 N3185 2.282 . S
Mn3169 O3193 2.215 . S
Mn3169 O3195 2.117 . S
C3170 O3192 1.234 . S
C3170 O3193 1.283 . S
C3171 O3183 1.281 . S
C3171 O3184 1.236 . S
C3172 O3194 1.240 . S
C3172 O3195 1.264 . S
O3173 Mn3168 2.095 . S
O3173 C3182 1.250 . S
O3174 Mn3169 2.121 . S
O3174 C3182 1.258 . S
C3175 N3176 1.326 . S
C3175 C3179 1.460 . S
C3175 H3181 0.929 . S
N3176 Mn3169 2.257 . S
N3176 C3175 1.326 . S
N3176 C3180 1.362 . S
C3177 C3178 1.258 . S
C3177 C3180 1.431 . S
C3177 C3197 1.449 . S
C3178 C3177 1.258 . S
C3178 C3179 1.477 . S
C3178 H3198 0.931 . S
C3179 C3175 1.460 . S
C3179 C3178 1.477 . S
C3179 H3199 0.930 . S
C3180 N3176 1.362 . S
C3180 C3177 1.431 . S
C3180 C3190 1.476 . S
H3181 C3175 0.929 . S
C3182 O3173 1.250 . S
C3182 O3174 1.258 . S
O3183 Mn3168 2.162 . S
O3183 C3171 1.281 . S
O3184 Mn3168 2.297 . S
O3184 C3171 1.236 . S
N3185 Mn3169 2.282 . S
N3185 C3186 1.328 . S
N3185 C3190 1.318 . S
C3186 N3185 1.328 . S
C3186 C3187 1.457 . S
C3186 H3191 0.929 . S
C3187 C3186 1.457 . S
C3187 C3188 1.291 . S
C3187 H3200 0.931 . S
C3188 C3187 1.291 . S
C3188 C3189 1.373 . S
C3188 H3201 0.929 . S
C3189 C3188 1.373 . S
C3189 C3190 1.396 . S
C3189 C3196 1.403 . S
C3190 C3180 1.476 . S
C3190 N3185 1.318 . S
C3190 C3189 1.396 . S
H3191 C3186 0.929 . S
O3192 Mn3168 2.385 . S
O3192 C3170 1.234 . S
O3193 Mn3168 2.209 . S
O3193 Mn3169 2.215 . S
O3193 C3170 1.283 . S
O3194 Mn3168 2.094 . S
O3194 C3172 1.240 . S
O3195 Mn3169 2.117 . S
O3195 C3172 1.264 . S
C3196 C3189 1.403 . S
C3196 C3197 1.399 . S
C3196 H3202 0.929 . S
C3197 C3177 1.449 . S
C3197 C3196 1.399 . S
C3197 H3203 0.930 . S
H3198 C3178 0.931 . S
H3199 C3179 0.930 . S
H3200 C3187 0.931 . S
H3201 C3188 0.929 . S
H3202 C3196 0.929 . S
H3203 C3197 0.930 . S
Mn3204 O3209 2.095 . S
Mn3204 O3219 2.162 . S
Mn3204 O3220 2.297 . S
Mn3204 O3228 2.385 . S
Mn3204 O3229 2.209 . S
Mn3204 O3230 2.094 . S
Mn3205 O3210 2.121 . S
Mn3205 N3212 2.257 . S
Mn3205 N3221 2.282 . S
Mn3205 O3229 2.215 . S
Mn3205 O3231 2.117 . S
C3206 O3228 1.234 . S
C3206 O3229 1.283 . S
C3207 O3219 1.281 . S
C3207 O3220 1.236 . S
C3208 O3230 1.240 . S
C3208 O3231 1.264 . S
O3209 Mn3204 2.095 . S
O3209 C3218 1.250 . S
O3210 Mn3205 2.121 . S
O3210 C3218 1.258 . S
C3211 N3212 1.326 . S
C3211 C3215 1.460 . S
C3211 H3217 0.929 . S
N3212 Mn3205 2.257 . S
N3212 C3211 1.326 . S
N3212 C3216 1.362 . S
C3213 C3214 1.258 . S
C3213 C3216 1.431 . S
C3213 C3233 1.449 . S
C3214 C3213 1.258 . S
C3214 C3215 1.477 . S
C3214 H3234 0.931 . S
C3215 C3211 1.460 . S
C3215 C3214 1.477 . S
C3215 H3235 0.930 . S
C3216 N3212 1.362 . S
C3216 C3213 1.431 . S
C3216 C3226 1.476 . S
H3217 C3211 0.929 . S
C3218 O3209 1.250 . S
C3218 O3210 1.258 . S
O3219 Mn3204 2.162 . S
O3219 C3207 1.281 . S
O3220 Mn3204 2.297 . S
O3220 C3207 1.236 . S
N3221 Mn3205 2.282 . S
N3221 C3222 1.328 . S
N3221 C3226 1.318 . S
C3222 N3221 1.328 . S
C3222 C3223 1.457 . S
C3222 H3227 0.929 . S
C3223 C3222 1.457 . S
C3223 C3224 1.291 . S
C3223 H3236 0.931 . S
C3224 C3223 1.291 . S
C3224 C3225 1.373 . S
C3224 H3237 0.929 . S
C3225 C3224 1.373 . S
C3225 C3226 1.396 . S
C3225 C3232 1.403 . S
C3226 C3216 1.476 . S
C3226 N3221 1.318 . S
C3226 C3225 1.396 . S
H3227 C3222 0.929 . S
O3228 Mn3204 2.385 . S
O3228 C3206 1.234 . S
O3229 Mn3204 2.209 . S
O3229 Mn3205 2.215 . S
O3229 C3206 1.283 . S
O3230 Mn3204 2.094 . S
O3230 C3208 1.240 . S
O3231 Mn3205 2.117 . S
O3231 C3208 1.264 . S
C3232 C3225 1.403 . S
C3232 C3233 1.399 . S
C3232 H3238 0.929 . S
C3233 C3213 1.449 . S
C3233 C3232 1.399 . S
C3233 H3239 0.930 . S
H3234 C3214 0.931 . S
H3235 C3215 0.930 . S
H3236 C3223 0.931 . S
H3237 C3224 0.929 . S
H3238 C3232 0.929 . S
H3239 C3233 0.930 . S
Mn3240 O3245 2.095 . S
Mn3240 O3255 2.162 . S
Mn3240 O3256 2.297 . S
Mn3240 O3264 2.385 . S
Mn3240 O3265 2.209 . S
Mn3240 O3266 2.094 . S
Mn3241 O3246 2.121 . S
Mn3241 N3248 2.257 . S
Mn3241 N3257 2.282 . S
Mn3241 O3265 2.215 . S
Mn3241 O3267 2.117 . S
C3242 O3264 1.234 . S
C3242 O3265 1.283 . S
C3243 O3255 1.281 . S
C3243 O3256 1.236 . S
C3244 O3266 1.240 . S
C3244 O3267 1.264 . S
O3245 Mn3240 2.095 . S
O3245 C3254 1.250 . S
O3246 Mn3241 2.121 . S
O3246 C3254 1.258 . S
C3247 N3248 1.326 . S
C3247 C3251 1.460 . S
C3247 H3253 0.929 . S
N3248 Mn3241 2.257 . S
N3248 C3247 1.326 . S
N3248 C3252 1.362 . S
C3249 C3250 1.258 . S
C3249 C3252 1.431 . S
C3249 C3269 1.449 . S
C3250 C3249 1.258 . S
C3250 C3251 1.477 . S
C3250 H3270 0.931 . S
C3251 C3247 1.460 . S
C3251 C3250 1.477 . S
C3251 H3271 0.930 . S
C3252 N3248 1.362 . S
C3252 C3249 1.431 . S
C3252 C3262 1.476 . S
H3253 C3247 0.929 . S
C3254 O3245 1.250 . S
C3254 O3246 1.258 . S
O3255 Mn3240 2.162 . S
O3255 C3243 1.281 . S
O3256 Mn3240 2.297 . S
O3256 C3243 1.236 . S
N3257 Mn3241 2.282 . S
N3257 C3258 1.328 . S
N3257 C3262 1.318 . S
C3258 N3257 1.328 . S
C3258 C3259 1.457 . S
C3258 H3263 0.929 . S
C3259 C3258 1.457 . S
C3259 C3260 1.291 . S
C3259 H3272 0.931 . S
C3260 C3259 1.291 . S
C3260 C3261 1.373 . S
C3260 H3273 0.929 . S
C3261 C3260 1.373 . S
C3261 C3262 1.396 . S
C3261 C3268 1.403 . S
C3262 C3252 1.476 . S
C3262 N3257 1.318 . S
C3262 C3261 1.396 . S
H3263 C3258 0.929 . S
O3264 Mn3240 2.385 . S
O3264 C3242 1.234 . S
O3265 Mn3240 2.209 . S
O3265 Mn3241 2.215 . S
O3265 C3242 1.283 . S
O3266 Mn3240 2.094 . S
O3266 C3244 1.240 . S
O3267 Mn3241 2.117 . S
O3267 C3244 1.264 . S
C3268 C3261 1.403 . S
C3268 C3269 1.399 . S
C3268 H3274 0.929 . S
C3269 C3249 1.449 . S
C3269 C3268 1.399 . S
C3269 H3275 0.930 . S
H3270 C3250 0.931 . S
H3271 C3251 0.930 . S
H3272 C3259 0.931 . S
H3273 C3260 0.929 . S
H3274 C3268 0.929 . S
H3275 C3269 0.930 . S
Mn3276 O3281 2.095 . S
Mn3276 O3291 2.162 . S
Mn3276 O3292 2.297 . S
Mn3276 O3300 2.385 . S
Mn3276 O3301 2.209 . S
Mn3276 O3302 2.094 . S
Mn3277 O3282 2.121 . S
Mn3277 N3284 2.257 . S
Mn3277 N3293 2.282 . S
Mn3277 O3301 2.215 . S
Mn3277 O3303 2.117 . S
C3278 O3300 1.234 . S
C3278 O3301 1.283 . S
C3279 O3291 1.281 . S
C3279 O3292 1.236 . S
C3280 O3302 1.240 . S
C3280 O3303 1.264 . S
O3281 Mn3276 2.095 . S
O3281 C3290 1.250 . S
O3282 Mn3277 2.121 . S
O3282 C3290 1.258 . S
C3283 N3284 1.326 . S
C3283 C3287 1.460 . S
C3283 H3289 0.929 . S
N3284 Mn3277 2.257 . S
N3284 C3283 1.326 . S
N3284 C3288 1.362 . S
C3285 C3286 1.258 . S
C3285 C3288 1.431 . S
C3285 C3305 1.449 . S
C3286 C3285 1.258 . S
C3286 C3287 1.477 . S
C3286 H3306 0.931 . S
C3287 C3283 1.460 . S
C3287 C3286 1.477 . S
C3287 H3307 0.930 . S
C3288 N3284 1.362 . S
C3288 C3285 1.431 . S
C3288 C3298 1.476 . S
H3289 C3283 0.929 . S
C3290 O3281 1.250 . S
C3290 O3282 1.258 . S
O3291 Mn3276 2.162 . S
O3291 C3279 1.281 . S
O3292 Mn3276 2.297 . S
O3292 C3279 1.236 . S
N3293 Mn3277 2.282 . S
N3293 C3294 1.328 . S
N3293 C3298 1.318 . S
C3294 N3293 1.328 . S
C3294 C3295 1.457 . S
C3294 H3299 0.929 . S
C3295 C3294 1.457 . S
C3295 C3296 1.291 . S
C3295 H3308 0.931 . S
C3296 C3295 1.291 . S
C3296 C3297 1.373 . S
C3296 H3309 0.929 . S
C3297 C3296 1.373 . S
C3297 C3298 1.396 . S
C3297 C3304 1.403 . S
C3298 C3288 1.476 . S
C3298 N3293 1.318 . S
C3298 C3297 1.396 . S
H3299 C3294 0.929 . S
O3300 Mn3276 2.385 . S
O3300 C3278 1.234 . S
O3301 Mn3276 2.209 . S
O3301 Mn3277 2.215 . S
O3301 C3278 1.283 . S
O3302 Mn3276 2.094 . S
O3302 C3280 1.240 . S
O3303 Mn3277 2.117 . S
O3303 C3280 1.264 . S
C3304 C3297 1.403 . S
C3304 C3305 1.399 . S
C3304 H3310 0.929 . S
C3305 C3285 1.449 . S
C3305 C3304 1.399 . S
C3305 H3311 0.930 . S
H3306 C3286 0.931 . S
H3307 C3287 0.930 . S
H3308 C3295 0.931 . S
H3309 C3296 0.929 . S
H3310 C3304 0.929 . S
H3311 C3305 0.930 . S
Mn3312 O3317 2.095 . S
Mn3312 O3327 2.162 . S
Mn3312 O3328 2.297 . S
Mn3312 O3336 2.385 . S
Mn3312 O3337 2.209 . S
Mn3312 O3338 2.094 . S
Mn3313 O3318 2.121 . S
Mn3313 N3320 2.257 . S
Mn3313 N3329 2.282 . S
Mn3313 O3337 2.215 . S
Mn3313 O3339 2.117 . S
C3314 O3336 1.234 . S
C3314 O3337 1.283 . S
C3315 O3327 1.281 . S
C3315 O3328 1.236 . S
C3316 O3338 1.240 . S
C3316 O3339 1.264 . S
O3317 Mn3312 2.095 . S
O3317 C3326 1.250 . S
O3318 Mn3313 2.121 . S
O3318 C3326 1.258 . S
C3319 N3320 1.326 . S
C3319 C3323 1.460 . S
C3319 H3325 0.929 . S
N3320 Mn3313 2.257 . S
N3320 C3319 1.326 . S
N3320 C3324 1.362 . S
C3321 C3322 1.258 . S
C3321 C3324 1.431 . S
C3321 C3341 1.449 . S
C3322 C3321 1.258 . S
C3322 C3323 1.477 . S
C3322 H3342 0.931 . S
C3323 C3319 1.460 . S
C3323 C3322 1.477 . S
C3323 H3343 0.930 . S
C3324 N3320 1.362 . S
C3324 C3321 1.431 . S
C3324 C3334 1.476 . S
H3325 C3319 0.929 . S
C3326 O3317 1.250 . S
C3326 O3318 1.258 . S
O3327 Mn3312 2.162 . S
O3327 C3315 1.281 . S
O3328 Mn3312 2.297 . S
O3328 C3315 1.236 . S
N3329 Mn3313 2.282 . S
N3329 C3330 1.328 . S
N3329 C3334 1.318 . S
C3330 N3329 1.328 . S
C3330 C3331 1.457 . S
C3330 H3335 0.929 . S
C3331 C3330 1.457 . S
C3331 C3332 1.291 . S
C3331 H3344 0.931 . S
C3332 C3331 1.291 . S
C3332 C3333 1.373 . S
C3332 H3345 0.929 . S
C3333 C3332 1.373 . S
C3333 C3334 1.396 . S
C3333 C3340 1.403 . S
C3334 C3324 1.476 . S
C3334 N3329 1.318 . S
C3334 C3333 1.396 . S
H3335 C3330 0.929 . S
O3336 Mn3312 2.385 . S
O3336 C3314 1.234 . S
O3337 Mn3312 2.209 . S
O3337 Mn3313 2.215 . S
O3337 C3314 1.283 . S
O3338 Mn3312 2.094 . S
O3338 C3316 1.240 . S
O3339 Mn3313 2.117 . S
O3339 C3316 1.264 . S
C3340 C3333 1.403 . S
C3340 C3341 1.399 . S
C3340 H3346 0.929 . S
C3341 C3321 1.449 . S
C3341 C3340 1.399 . S
C3341 H3347 0.930 . S
H3342 C3322 0.931 . S
H3343 C3323 0.930 . S
H3344 C3331 0.931 . S
H3345 C3332 0.929 . S
H3346 C3340 0.929 . S
H3347 C3341 0.930 . S
Mn3348 O3353 2.095 . S
Mn3348 O3363 2.162 . S
Mn3348 O3364 2.297 . S
Mn3348 O3372 2.385 . S
Mn3348 O3373 2.209 . S
Mn3348 O3374 2.094 . S
Mn3349 O3354 2.121 . S
Mn3349 N3356 2.257 . S
Mn3349 N3365 2.282 . S
Mn3349 O3373 2.215 . S
Mn3349 O3375 2.117 . S
C3350 O3372 1.234 . S
C3350 O3373 1.283 . S
C3351 O3363 1.281 . S
C3351 O3364 1.236 . S
C3352 O3374 1.240 . S
C3352 O3375 1.264 . S
O3353 Mn3348 2.095 . S
O3353 C3362 1.250 . S
O3354 Mn3349 2.121 . S
O3354 C3362 1.258 . S
C3355 N3356 1.326 . S
C3355 C3359 1.460 . S
C3355 H3361 0.929 . S
N3356 Mn3349 2.257 . S
N3356 C3355 1.326 . S
N3356 C3360 1.362 . S
C3357 C3358 1.258 . S
C3357 C3360 1.431 . S
C3357 C3377 1.449 . S
C3358 C3357 1.258 . S
C3358 C3359 1.477 . S
C3358 H3378 0.931 . S
C3359 C3355 1.460 . S
C3359 C3358 1.477 . S
C3359 H3379 0.930 . S
C3360 N3356 1.362 . S
C3360 C3357 1.431 . S
C3360 C3370 1.476 . S
H3361 C3355 0.929 . S
C3362 O3353 1.250 . S
C3362 O3354 1.258 . S
O3363 Mn3348 2.162 . S
O3363 C3351 1.281 . S
O3364 Mn3348 2.297 . S
O3364 C3351 1.236 . S
N3365 Mn3349 2.282 . S
N3365 C3366 1.328 . S
N3365 C3370 1.318 . S
C3366 N3365 1.328 . S
C3366 C3367 1.457 . S
C3366 H3371 0.929 . S
C3367 C3366 1.457 . S
C3367 C3368 1.291 . S
C3367 H3380 0.931 . S
C3368 C3367 1.291 . S
C3368 C3369 1.373 . S
C3368 H3381 0.929 . S
C3369 C3368 1.373 . S
C3369 C3370 1.396 . S
C3369 C3376 1.403 . S
C3370 C3360 1.476 . S
C3370 N3365 1.318 . S
C3370 C3369 1.396 . S
H3371 C3366 0.929 . S
O3372 Mn3348 2.385 . S
O3372 C3350 1.234 . S
O3373 Mn3348 2.209 . S
O3373 Mn3349 2.215 . S
O3373 C3350 1.283 . S
O3374 Mn3348 2.094 . S
O3374 C3352 1.240 . S
O3375 Mn3349 2.117 . S
O3375 C3352 1.264 . S
C3376 C3369 1.403 . S
C3376 C3377 1.399 . S
C3376 H3382 0.929 . S
C3377 C3357 1.449 . S
C3377 C3376 1.399 . S
C3377 H3383 0.930 . S
H3378 C3358 0.931 . S
H3379 C3359 0.930 . S
H3380 C3367 0.931 . S
H3381 C3368 0.929 . S
H3382 C3376 0.929 . S
H3383 C3377 0.930 . S
Mn3384 O3389 2.095 . S
Mn3384 O3399 2.162 . S
Mn3384 O3400 2.297 . S
Mn3384 O3408 2.385 . S
Mn3384 O3409 2.209 . S
Mn3384 O3410 2.094 . S
Mn3385 O3390 2.121 . S
Mn3385 N3392 2.257 . S
Mn3385 N3401 2.282 . S
Mn3385 O3409 2.215 . S
Mn3385 O3411 2.117 . S
C3386 O3408 1.234 . S
C3386 O3409 1.283 . S
C3387 O3399 1.281 . S
C3387 O3400 1.236 . S
C3388 O3410 1.240 . S
C3388 O3411 1.264 . S
O3389 Mn3384 2.095 . S
O3389 C3398 1.250 . S
O3390 Mn3385 2.121 . S
O3390 C3398 1.258 . S
C3391 N3392 1.326 . S
C3391 C3395 1.460 . S
C3391 H3397 0.929 . S
N3392 Mn3385 2.257 . S
N3392 C3391 1.326 . S
N3392 C3396 1.362 . S
C3393 C3394 1.258 . S
C3393 C3396 1.431 . S
C3393 C3413 1.449 . S
C3394 C3393 1.258 . S
C3394 C3395 1.477 . S
C3394 H3414 0.931 . S
C3395 C3391 1.460 . S
C3395 C3394 1.477 . S
C3395 H3415 0.930 . S
C3396 N3392 1.362 . S
C3396 C3393 1.431 . S
C3396 C3406 1.476 . S
H3397 C3391 0.929 . S
C3398 O3389 1.250 . S
C3398 O3390 1.258 . S
O3399 Mn3384 2.162 . S
O3399 C3387 1.281 . S
O3400 Mn3384 2.297 . S
O3400 C3387 1.236 . S
N3401 Mn3385 2.282 . S
N3401 C3402 1.328 . S
N3401 C3406 1.318 . S
C3402 N3401 1.328 . S
C3402 C3403 1.457 . S
C3402 H3407 0.929 . S
C3403 C3402 1.457 . S
C3403 C3404 1.291 . S
C3403 H3416 0.931 . S
C3404 C3403 1.291 . S
C3404 C3405 1.373 . S
C3404 H3417 0.929 . S
C3405 C3404 1.373 . S
C3405 C3406 1.396 . S
C3405 C3412 1.403 . S
C3406 C3396 1.476 . S
C3406 N3401 1.318 . S
C3406 C3405 1.396 . S
H3407 C3402 0.929 . S
O3408 Mn3384 2.385 . S
O3408 C3386 1.234 . S
O3409 Mn3384 2.209 . S
O3409 Mn3385 2.215 . S
O3409 C3386 1.283 . S
O3410 Mn3384 2.094 . S
O3410 C3388 1.240 . S
O3411 Mn3385 2.117 . S
O3411 C3388 1.264 . S
C3412 C3405 1.403 . S
C3412 C3413 1.399 . S
C3412 H3418 0.929 . S
C3413 C3393 1.449 . S
C3413 C3412 1.399 . S
C3413 H3419 0.930 . S
H3414 C3394 0.931 . S
H3415 C3395 0.930 . S
H3416 C3403 0.931 . S
H3417 C3404 0.929 . S
H3418 C3412 0.929 . S
H3419 C3413 0.930 . S
Mn3420 O3425 2.095 . S
Mn3420 O3435 2.162 . S
Mn3420 O3436 2.297 . S
Mn3420 O3444 2.385 . S
Mn3420 O3445 2.209 . S
Mn3420 O3446 2.094 . S
Mn3421 O3426 2.121 . S
Mn3421 N3428 2.257 . S
Mn3421 N3437 2.282 . S
Mn3421 O3445 2.215 . S
Mn3421 O3447 2.117 . S
C3422 O3444 1.234 . S
C3422 O3445 1.283 . S
C3423 O3435 1.281 . S
C3423 O3436 1.236 . S
C3424 O3446 1.240 . S
C3424 O3447 1.264 . S
O3425 Mn3420 2.095 . S
O3425 C3434 1.250 . S
O3426 Mn3421 2.121 . S
O3426 C3434 1.258 . S
C3427 N3428 1.326 . S
C3427 C3431 1.460 . S
C3427 H3433 0.929 . S
N3428 Mn3421 2.257 . S
N3428 C3427 1.326 . S
N3428 C3432 1.362 . S
C3429 C3430 1.258 . S
C3429 C3432 1.431 . S
C3429 C3449 1.449 . S
C3430 C3429 1.258 . S
C3430 C3431 1.477 . S
C3430 H3450 0.931 . S
C3431 C3427 1.460 . S
C3431 C3430 1.477 . S
C3431 H3451 0.930 . S
C3432 N3428 1.362 . S
C3432 C3429 1.431 . S
C3432 C3442 1.476 . S
H3433 C3427 0.929 . S
C3434 O3425 1.250 . S
C3434 O3426 1.258 . S
O3435 Mn3420 2.162 . S
O3435 C3423 1.281 . S
O3436 Mn3420 2.297 . S
O3436 C3423 1.236 . S
N3437 Mn3421 2.282 . S
N3437 C3438 1.328 . S
N3437 C3442 1.318 . S
C3438 N3437 1.328 . S
C3438 C3439 1.457 . S
C3438 H3443 0.929 . S
C3439 C3438 1.457 . S
C3439 C3440 1.291 . S
C3439 H3452 0.931 . S
C3440 C3439 1.291 . S
C3440 C3441 1.373 . S
C3440 H3453 0.929 . S
C3441 C3440 1.373 . S
C3441 C3442 1.396 . S
C3441 C3448 1.403 . S
C3442 C3432 1.476 . S
C3442 N3437 1.318 . S
C3442 C3441 1.396 . S
H3443 C3438 0.929 . S
O3444 Mn3420 2.385 . S
O3444 C3422 1.234 . S
O3445 Mn3420 2.209 . S
O3445 Mn3421 2.215 . S
O3445 C3422 1.283 . S
O3446 Mn3420 2.094 . S
O3446 C3424 1.240 . S
O3447 Mn3421 2.117 . S
O3447 C3424 1.264 . S
C3448 C3441 1.403 . S
C3448 C3449 1.399 . S
C3448 H3454 0.929 . S
C3449 C3429 1.449 . S
C3449 C3448 1.399 . S
C3449 H3455 0.930 . S
H3450 C3430 0.931 . S
H3451 C3431 0.930 . S
H3452 C3439 0.931 . S
H3453 C3440 0.929 . S
H3454 C3448 0.929 . S
H3455 C3449 0.930 . S
C1418 C14 1.285 . S
C1310 C50 1.326 . S
C1346 C86 1.285 . S
C1382 C122 1.326 . S
C1202 C158 1.285 . S
C1238 C194 1.326 . S
C230 C1274 1.285 . S
C1166 C266 1.326 . S
C292 C1120 1.925 . S
C338 C1022 1.285 . S
C364 C1048 1.925 . S
C410 C1094 1.285 . S
C904 C436 1.925 . S
C950 C482 1.285 . S
C976 C508 1.925 . S
C878 C554 1.285 . S
C590 C1598 1.326 . S
C626 C1706 1.326 . S
C1624 C652 1.925 . S
C1670 C698 1.326 . S
C1444 C724 1.925 . S
C1526 C770 1.326 . S
C796 C1552 1.925 . S
C1480 C832 1.925 . S
C2534 C1742 1.326 . S
C1778 C2570 1.326 . S
C1814 C2498 1.326 . S
C1850 C2462 1.326 . S
C1876 C2416 1.925 . S
C1912 C2380 1.925 . S
C2308 C1948 1.925 . S
C2344 C1984 1.925 . S
C2030 C2750 1.326 . S
C2066 C2858 1.326 . S
C2776 C2092 1.925 . S
C2138 C2822 1.326 . S
C2164 C2596 1.925 . S
C2210 C2678 1.326 . S
C2704 C2236 1.925 . S
C2632 C2272 1.925 . S
C2894 C3434 1.285 . S
C3398 C2930 1.285 . S
C3326 C2966 1.285 . S
C3362 C3002 1.285 . S
C3254 C3038 1.285 . S
C3074 C3290 1.285 . S
C3218 C3110 1.285 . S
C3182 C3146 1.285 . S
C2 C1118 1.367 . S
C38 C1011 1.598 . S
C74 C1046 1.367 . S
C110 C1083 1.598 . S
C146 C902 1.367 . S
C182 C939 1.598 . S
C974 C218 1.367 . S
C254 C867 1.598 . S
C291 C1587 1.291 . S
C1478 C326 1.367 . S
C363 C1515 1.291 . S
C398 C1550 1.367 . S
C1695 C435 1.291 . S
C1622 C470 1.367 . S
C1659 C507 1.291 . S
C542 C1442 1.367 . S
C578 C1407 1.598 . S
C614 C1191 1.598 . S
C651 C1227 1.291 . S
C686 C1263 1.598 . S
C723 C1155 1.291 . S
C758 C1335 1.598 . S
C1371 C795 1.291 . S
C831 C1299 1.291 . S
C1190 C2414 1.367 . S
C543 C1730 1.598 . S
C1262 C2378 1.367 . S
C1766 C471 1.598 . S
C1406 C2306 1.367 . S
C1802 C399 1.598 . S
C2342 C1334 1.367 . S
C1838 C327 1.598 . S
C2739 C1875 1.291 . S
C866 C2630 1.367 . S
C2667 C1911 1.291 . S
C2702 C938 1.367 . S
C2847 C1947 1.291 . S
C1082 C2774 1.367 . S
C1983 C2811 1.291 . S
C1010 C2594 1.367 . S
C2018 C147 1.598 . S
C2054 C3 1.598 . S
C2487 C2091 1.291 . S
C2126 C75 1.598 . S
C2163 C2451 1.291 . S
C219 C2198 1.598 . S
C2235 C2559 1.291 . S
C2523 C2271 1.291 . S
C506 C2882 1.367 . S
C3243 C1226 1.598 . S
C2918 C434 1.367 . S
C1154 C3279 1.598 . S
C362 C2954 1.367 . S
C3207 C1298 1.598 . S
C290 C2990 1.367 . S
C3171 C1370 1.598 . S
C2199 C975 1.291 . S
C3026 C2234 1.367 . S
C2019 C903 1.291 . S
C3062 C2270 1.367 . S
C2127 C1047 1.291 . S
C3098 C2162 1.367 . S
C1119 C2055 1.291 . S
C2090 C3134 1.367 . S
C3423 C2666 1.598 . S
C3315 C2810 1.598 . S
C2595 C39 1.291 . S
C3351 C2846 1.598 . S
C111 C2775 1.291 . S
C2738 C3387 1.598 . S
C2631 C255 1.291 . S
C2703 C183 1.291 . S
C3314 C1982 1.367 . S
C3135 C2486 1.598 . S
C3350 C1946 1.367 . S
C2450 C3099 1.598 . S
C3422 C1910 1.367 . S
C2522 C3063 1.598 . S
C3386 C1874 1.367 . S
C2558 C3027 1.598 . S
C2343 C759 1.291 . S
C794 C3170 1.367 . S
C2307 C579 1.291 . S
C3206 C830 1.367 . S
C2379 C687 1.291 . S
C722 C3278 1.367 . S
C615 C2415 1.291 . S
C650 C3242 1.367 . S
C2955 C1514 1.598 . S
C1658 C2883 1.598 . S
C1731 C1443 1.291 . S
C1694 C2919 1.598 . S
C1767 C1623 1.291 . S
C2991 C1586 1.598 . S
C1839 C1479 1.291 . S
C1803 C1551 1.291 . S
C1012 C4 1.523 1_655 S
C40 C1058 1.015 1_545 S
C1084 C76 1.523 1_455 S
C112 C1130 1.015 1_565 S
C868 C148 1.523 1_655 S
C914 C184 1.015 1_565 S
C220 C940 1.523 1_655 S
C256 C986 1.015 1_565 S
C1372 C302 1.015 1_565 S
C328 C1408 1.523 1_655 S
C374 C1300 1.015 1_565 S
C1336 C400 1.523 1_655 S
C446 C1228 1.015 1_565 S
C1264 C472 1.523 1_655 S
C1156 C518 1.015 1_565 S
C1192 C544 1.523 1_455 S
C580 C1634 1.015 1_554 S
C1562 C616 1.015 1_554 S
C1588 C662 1.015 1_554 S
C1490 C688 1.015 1_554 S
C734 C1516 1.015 1_556 S
C760 C1454 1.015 1_554 S
C1696 C806 1.015 1_556 S
C842 C1660 1.015 1_554 S
C1732 C2390 1.015 . S
C2426 C1768 1.015 . S
C2318 C1804 1.015 . S
C2354 C1840 1.015 . S
C1886 C2560 1.015 . S
C2524 C1922 1.015 . S
C1958 C2488 1.015 . S
C1994 C2452 1.015 . S
C2786 C2020 1.015 . S
C2056 C2714 1.015 . S
C2740 C2102 1.015 . S
C2642 C2128 1.015 . S
C2668 C2174 1.015 . S
C2606 C2200 1.015 . S
C2848 C2246 1.015 . S
C2812 C2282 1.015 . S
C2884 C3244 1.523 . S
C3280 C2920 1.523 . S
C2956 C3172 1.523 . S
C3208 C2992 1.523 . S
C3028 C3424 1.523 . S
C3064 C3388 1.523 . S
C3352 C3100 1.523 . S
C3136 C3316 1.523 . S
