# Generated by pormake.
# Topology uka, (4)-cn, num edge types: 1
# Building blocks:
#     Node 0, Type 0, BuildingBlock: TATPOV_clean_sbu_0, # of connection points: 4
#     Node 1, Type 0, BuildingBlock: TATPOV_clean_sbu_0, # of connection points: 4
#     Node 2, Type 0, BuildingBlock: TATPOV_clean_sbu_0, # of connection points: 4
#     Node 3, Type 0, BuildingBlock: TATPOV_clean_sbu_0, # of connection points: 4
#     Node 4, Type 0, BuildingBlock: TATPOV_clean_sbu_0, # of connection points: 4
#     Node 5, Type 0, BuildingBlock: TATPOV_clean_sbu_0, # of connection points: 4
#     Node 6, Type 0, BuildingBlock: TATPOV_clean_sbu_0, # of connection points: 4
#     Node 7, Type 0, BuildingBlock: TATPOV_clean_sbu_0, # of connection points: 4
#     Node 8, Type 0, BuildingBlock: TATPOV_clean_sbu_0, # of connection points: 4
#     Node 9, Type 0, BuildingBlock: TATPOV_clean_sbu_0, # of connection points: 4
#     Node 10, Type 0, BuildingBlock: TATPOV_clean_sbu_0, # of connection points: 4
#     Node 11, Type 0, BuildingBlock: TATPOV_clean_sbu_0, # of connection points: 4
#     Node 12, Type 0, BuildingBlock: TATPOV_clean_sbu_0, # of connection points: 4
#     Node 13, Type 0, BuildingBlock: TATPOV_clean_sbu_0, # of connection points: 4
#     Node 14, Type 0, BuildingBlock: TATPOV_clean_sbu_0, # of connection points: 4
#     Node 15, Type 0, BuildingBlock: TATPOV_clean_sbu_0, # of connection points: 4
#     Node 16, Type 0, BuildingBlock: TATPOV_clean_sbu_0, # of connection points: 4
#     Node 17, Type 0, BuildingBlock: TATPOV_clean_sbu_0, # of connection points: 4
#     Node 18, Type 0, BuildingBlock: TATPOV_clean_sbu_0, # of connection points: 4
#     Node 19, Type 0, BuildingBlock: TATPOV_clean_sbu_0, # of connection points: 4
#     Node 20, Type 0, BuildingBlock: TATPOV_clean_sbu_0, # of connection points: 4
#     Node 21, Type 0, BuildingBlock: TATPOV_clean_sbu_0, # of connection points: 4
#     Node 22, Type 0, BuildingBlock: TATPOV_clean_sbu_0, # of connection points: 4
#     Node 23, Type 0, BuildingBlock: TATPOV_clean_sbu_0, # of connection points: 4
#     Node 24, Type 0, BuildingBlock: TATPOV_clean_sbu_0, # of connection points: 4
#     Node 25, Type 0, BuildingBlock: TATPOV_clean_sbu_0, # of connection points: 4
#     Node 26, Type 0, BuildingBlock: TATPOV_clean_sbu_0, # of connection points: 4
#     Node 27, Type 0, BuildingBlock: TATPOV_clean_sbu_0, # of connection points: 4
#     Node 28, Type 0, BuildingBlock: TATPOV_clean_sbu_0, # of connection points: 4
#     Node 29, Type 0, BuildingBlock: TATPOV_clean_sbu_0, # of connection points: 4
#     Node 30, Type 0, BuildingBlock: TATPOV_clean_sbu_0, # of connection points: 4
#     Node 31, Type 0, BuildingBlock: TATPOV_clean_sbu_0, # of connection points: 4
#     Edge 32, Type (0, 0), BuildingBlock: AJUNOK_clean_linker_0, # of connection points: 2
#     Edge 33, Type (0, 0), BuildingBlock: AJUNOK_clean_linker_0, # of connection points: 2
#     Edge 34, Type (0, 0), BuildingBlock: AJUNOK_clean_linker_0, # of connection points: 2
#     Edge 35, Type (0, 0), BuildingBlock: AJUNOK_clean_linker_0, # of connection points: 2
#     Edge 36, Type (0, 0), BuildingBlock: AJUNOK_clean_linker_0, # of connection points: 2
#     Edge 37, Type (0, 0), BuildingBlock: AJUNOK_clean_linker_0, # of connection points: 2
#     Edge 38, Type (0, 0), BuildingBlock: AJUNOK_clean_linker_0, # of connection points: 2
#     Edge 39, Type (0, 0), BuildingBlock: AJUNOK_clean_linker_0, # of connection points: 2
#     Edge 40, Type (0, 0), BuildingBlock: AJUNOK_clean_linker_0, # of connection points: 2
#     Edge 41, Type (0, 0), BuildingBlock: AJUNOK_clean_linker_0, # of connection points: 2
#     Edge 42, Type (0, 0), BuildingBlock: AJUNOK_clean_linker_0, # of connection points: 2
#     Edge 43, Type (0, 0), BuildingBlock: AJUNOK_clean_linker_0, # of connection points: 2
#     Edge 44, Type (0, 0), BuildingBlock: AJUNOK_clean_linker_0, # of connection points: 2
#     Edge 45, Type (0, 0), BuildingBlock: AJUNOK_clean_linker_0, # of connection points: 2
#     Edge 46, Type (0, 0), BuildingBlock: AJUNOK_clean_linker_0, # of connection points: 2
#     Edge 47, Type (0, 0), BuildingBlock: AJUNOK_clean_linker_0, # of connection points: 2
#     Edge 48, Type (0, 0), BuildingBlock: AJUNOK_clean_linker_0, # of connection points: 2
#     Edge 49, Type (0, 0), BuildingBlock: AJUNOK_clean_linker_0, # of connection points: 2
#     Edge 50, Type (0, 0), BuildingBlock: AJUNOK_clean_linker_0, # of connection points: 2
#     Edge 51, Type (0, 0), BuildingBlock: AJUNOK_clean_linker_0, # of connection points: 2
#     Edge 52, Type (0, 0), BuildingBlock: AJUNOK_clean_linker_0, # of connection points: 2
#     Edge 53, Type (0, 0), BuildingBlock: AJUNOK_clean_linker_0, # of connection points: 2
#     Edge 54, Type (0, 0), BuildingBlock: AJUNOK_clean_linker_0, # of connection points: 2
#     Edge 55, Type (0, 0), BuildingBlock: AJUNOK_clean_linker_0, # of connection points: 2
#     Edge 56, Type (0, 0), BuildingBlock: AJUNOK_clean_linker_0, # of connection points: 2
#     Edge 57, Type (0, 0), BuildingBlock: AJUNOK_clean_linker_0, # of connection points: 2
#     Edge 58, Type (0, 0), BuildingBlock: AJUNOK_clean_linker_0, # of connection points: 2
#     Edge 59, Type (0, 0), BuildingBlock: AJUNOK_clean_linker_0, # of connection points: 2
#     Edge 60, Type (0, 0), BuildingBlock: AJUNOK_clean_linker_0, # of connection points: 2
#     Edge 61, Type (0, 0), BuildingBlock: AJUNOK_clean_linker_0, # of connection points: 2
#     Edge 62, Type (0, 0), BuildingBlock: AJUNOK_clean_linker_0, # of connection points: 2
#     Edge 63, Type (0, 0), BuildingBlock: AJUNOK_clean_linker_0, # of connection points: 2
#     Edge 64, Type (0, 0), BuildingBlock: AJUNOK_clean_linker_0, # of connection points: 2
#     Edge 65, Type (0, 0), BuildingBlock: AJUNOK_clean_linker_0, # of connection points: 2
#     Edge 66, Type (0, 0), BuildingBlock: AJUNOK_clean_linker_0, # of connection points: 2
#     Edge 67, Type (0, 0), BuildingBlock: AJUNOK_clean_linker_0, # of connection points: 2
#     Edge 68, Type (0, 0), BuildingBlock: AJUNOK_clean_linker_0, # of connection points: 2
#     Edge 69, Type (0, 0), BuildingBlock: AJUNOK_clean_linker_0, # of connection points: 2
#     Edge 70, Type (0, 0), BuildingBlock: AJUNOK_clean_linker_0, # of connection points: 2
#     Edge 71, Type (0, 0), BuildingBlock: AJUNOK_clean_linker_0, # of connection points: 2
#     Edge 72, Type (0, 0), BuildingBlock: AJUNOK_clean_linker_0, # of connection points: 2
#     Edge 73, Type (0, 0), BuildingBlock: AJUNOK_clean_linker_0, # of connection points: 2
#     Edge 74, Type (0, 0), BuildingBlock: AJUNOK_clean_linker_0, # of connection points: 2
#     Edge 75, Type (0, 0), BuildingBlock: AJUNOK_clean_linker_0, # of connection points: 2
#     Edge 76, Type (0, 0), BuildingBlock: AJUNOK_clean_linker_0, # of connection points: 2
#     Edge 77, Type (0, 0), BuildingBlock: AJUNOK_clean_linker_0, # of connection points: 2
#     Edge 78, Type (0, 0), BuildingBlock: AJUNOK_clean_linker_0, # of connection points: 2
#     Edge 79, Type (0, 0), BuildingBlock: AJUNOK_clean_linker_0, # of connection points: 2
#     Edge 80, Type (0, 0), BuildingBlock: AJUNOK_clean_linker_0, # of connection points: 2
#     Edge 81, Type (0, 0), BuildingBlock: AJUNOK_clean_linker_0, # of connection points: 2
#     Edge 82, Type (0, 0), BuildingBlock: AJUNOK_clean_linker_0, # of connection points: 2
#     Edge 83, Type (0, 0), BuildingBlock: AJUNOK_clean_linker_0, # of connection points: 2
#     Edge 84, Type (0, 0), BuildingBlock: AJUNOK_clean_linker_0, # of connection points: 2
#     Edge 85, Type (0, 0), BuildingBlock: AJUNOK_clean_linker_0, # of connection points: 2
#     Edge 86, Type (0, 0), BuildingBlock: AJUNOK_clean_linker_0, # of connection points: 2
#     Edge 87, Type (0, 0), BuildingBlock: AJUNOK_clean_linker_0, # of connection points: 2
#     Edge 88, Type (0, 0), BuildingBlock: AJUNOK_clean_linker_0, # of connection points: 2
#     Edge 89, Type (0, 0), BuildingBlock: AJUNOK_clean_linker_0, # of connection points: 2
#     Edge 90, Type (0, 0), BuildingBlock: AJUNOK_clean_linker_0, # of connection points: 2
#     Edge 91, Type (0, 0), BuildingBlock: AJUNOK_clean_linker_0, # of connection points: 2
#     Edge 92, Type (0, 0), BuildingBlock: AJUNOK_clean_linker_0, # of connection points: 2
#     Edge 93, Type (0, 0), BuildingBlock: AJUNOK_clean_linker_0, # of connection points: 2
#     Edge 94, Type (0, 0), BuildingBlock: AJUNOK_clean_linker_0, # of connection points: 2
#     Edge 95, Type (0, 0), BuildingBlock: AJUNOK_clean_linker_0, # of connection points: 2
# Relax obj value: 0.175
# Max RMSD: 0.208
# Mean RMSD: 0.208
data_MOF--net-uka--node1-TATPOV_clean_sbu_0--edge1-AJUNOK_clean_linker_0
_symmetry_space_group_name_H-M    P1
_symmetry_Int_Tables_number       1
_symmetry_cell_setting            triclinic
loop_
_symmetry_equiv_pos_as_xyz
'x, y, z'
_cell_length_a     43.253006
_cell_length_b     43.291851
_cell_length_c     32.189168
_cell_angle_alpha  90.016691
_cell_angle_beta   89.952059
_cell_angle_gamma 89.066034
loop_
_atom_site_label
_atom_site_type_symbol
_atom_site_fract_x
_atom_site_fract_y
_atom_site_fract_z
_atom_type_partial_charge
Zn0 Zn 0.07173 0.22303 0.23654 0.0
Zn1 Zn 0.12146 0.25057 0.25298 0.0
O2 O 0.12518 0.20321 0.26701 0.0
O3 O 0.08603 0.1793 0.23947 0.0
O4 O 0.16624 0.26431 0.25224 0.0
O5 O 0.06409 0.24201 0.18186 0.0
O6 O 0.10588 0.2681 0.19628 0.0
C7 C 0.11099 0.17808 0.25972 0.0
C8 C 0.06939 0.265 0.3095 0.0
O9 O 0.09694 0.27234 0.29977 0.0
O10 O 0.05542 0.24461 0.28864 0.0
C11 C 0.18795 0.25283 0.27432 0.0
O12 O 0.18105 0.23297 0.30356 0.0
C13 C 0.08316 0.26258 0.17239 0.0
Zn14 Zn 0.04284 0.8056 0.45773 0.0
Zn15 Zn 0.01604 0.85812 0.48346 0.0
O16 O 0.06165 0.85784 0.50308 0.0
O17 O 0.08524 0.81648 0.47849 0.0
O18 O 1.00258 0.90297 0.48875 0.0
O19 O 0.0305 0.81105 0.39788 0.0
O20 O 1.0037 0.8504 0.42301 0.0
C21 C 0.08608 0.84109 0.49964 0.0
C22 C 0.99224 0.80129 0.52185 0.0
O23 O 0.99037 0.83073 0.52131 0.0
O24 O 0.01157 0.78722 0.49848 0.0
C25 C 0.01251 0.92161 0.51597 0.0
O26 O 0.02957 0.91068 0.54648 0.0
C27 C 0.01076 0.83257 0.39296 0.0
Zn28 Zn 0.42481 0.76768 0.77303 0.0
Zn29 Zn 0.3791 0.73613 0.76654 0.0
O30 O 0.36833 0.78266 0.77697 0.0
O31 O 0.40798 0.8095 0.75775 0.0
O32 O 0.33615 0.72055 0.75564 0.0
O33 O 0.44961 0.74358 0.733 0.0
O34 O 0.40635 0.72052 0.71713 0.0
C35 C 0.3804 0.80892 0.77056 0.0
C36 C 0.41614 0.72838 0.84353 0.0
O37 O 0.39644 0.71591 0.81961 0.0
O38 O 0.42821 0.75372 0.83298 0.0
C39 C 0.31567 0.72754 0.78258 0.0
O40 O 0.32473 0.73947 0.81798 0.0
C41 C 0.43527 0.7242 0.71132 0.0
Zn42 Zn 0.55413 0.16935 0.03324 0.0
Zn43 Zn 0.52734 0.11743 0.01548 0.0
O44 O 0.48975 0.14307 0.03719 0.0
O45 O 0.5122 0.1878 0.04672 0.0
O46 O 0.50953 0.07736 -0.00437 0.0
O47 O 0.57288 0.17613 0.97847 0.0
O48 O 0.54914 0.13333 0.96186 0.0
C49 C 0.48819 0.17148 0.04754 0.0
C50 C 0.57553 0.11918 0.08434 0.0
O51 O 0.55563 0.10394 0.06408 0.0
O52 O 0.57944 0.14748 0.07641 0.0
C53 C 0.50055 0.05692 0.02103 0.0
O54 O 0.50171 0.06283 0.06102 0.0
C55 C 0.56644 0.15581 0.95191 0.0
Zn56 Zn 0.09709 0.69028 0.19381 0.0
Zn57 Zn 0.14268 0.72324 0.20499 0.0
O58 O 0.11405 0.7591 0.18858 0.0
O59 O 0.0735 0.72989 0.17942 0.0
O60 O 0.18345 0.74342 0.21769 0.0
O61 O 0.09194 0.67178 0.2486 0.0
O62 O 0.12863 0.70472 0.26268 0.0
C63 C 0.08568 0.75635 0.1791 0.0
C64 C 0.1374 0.67529 0.13232 0.0
O65 O 0.15076 0.69783 0.15017 0.0
O66 O 0.11356 0.66411 0.1487 0.0
C67 C 0.20616 0.72898 0.23416 0.0
O68 O 0.20331 0.69951 0.24286 0.0
C69 C 0.10903 0.68478 0.27475 0.0
Zn70 Zn 0.48938 0.84189 0.44876 0.0
Zn71 Zn 0.51378 0.89007 0.46343 0.0
O72 O 0.46624 0.89826 0.45488 0.0
O73 O 0.44641 0.85301 0.46583 0.0
O74 O 0.52831 0.93311 0.4771 0.0
O75 O 0.51488 0.81744 0.48786 0.0
O76 O 0.52796 0.86244 0.51322 0.0
C77 C 0.44244 0.88161 0.45999 0.0
C78 C 0.52754 0.8574 0.38242 0.0
O79 O 0.53728 0.87591 0.41015 0.0
O80 O 0.50272 0.84305 0.3888 0.0
C81 C 0.51806 0.95552 0.45525 0.0
O82 O 0.50059 0.94941 0.42299 0.0
C83 C 0.52834 0.83296 0.51546 0.0
Zn84 Zn 0.4261 0.32669 0.69223 0.0
Zn85 Zn 0.37738 0.29219 0.69952 0.0
O86 O 0.408 0.25985 0.67592 0.0
O87 O 0.4491 0.28887 0.6705 0.0
O88 O 0.33937 0.26796 0.71233 0.0
O89 O 0.42932 0.33809 0.75135 0.0
O90 O 0.38812 0.30949 0.75768 0.0
C91 C 0.43628 0.26297 0.66599 0.0
C92 C 0.37656 0.34717 0.63989 0.0
O93 O 0.36389 0.32285 0.65366 0.0
O94 O 0.40277 0.35483 0.65361 0.0
C95 C 0.31334 0.28174 0.71556 0.0
O96 O 0.31151 0.31158 0.70836 0.0
C97 C 0.40852 0.32671 0.77389 0.0
Zn98 Zn 0.04049 0.195 0.0125 0.0
Zn99 Zn 0.01125 0.14485 0.00295 0.0
O100 O 0.05803 0.1393 -0.01114 0.0
O101 O 0.08391 0.17894 0.01109 0.0
O102 O 0.99687 0.10056 0.00678 0.0
O103 O 0.02047 0.20648 0.06549 0.0
O104 O 0.99538 0.16314 0.05851 0.0
C105 C 0.08383 0.15276 -0.0062 0.0
C106 C 0.99748 0.19409 0.94142 0.0
O107 O 0.98924 0.16777 0.95504 0.0
O108 O 0.01924 0.20837 0.9591 0.0
C109 C 0.00948 0.07873 0.98604 0.0
O110 O 0.02982 0.08559 0.95731 0.0
C111 C 1.00048 0.18791 0.07855 0.0
Zn112 Zn 0.90842 0.65671 0.66114 0.0
Zn113 Zn 0.87213 0.69793 0.67905 0.0
O114 O 0.89612 0.73159 0.65146 0.0
O115 O 0.9247 0.69345 0.62583 0.0
O116 O 0.83169 0.71439 0.7033 0.0
O117 O 0.9299 0.64602 0.71333 0.0
O118 O 0.90003 0.68558 0.73021 0.0
C119 C 0.91776 0.72217 0.62745 0.0
C120 C 0.8653 0.64482 0.6125 0.0
O121 O 0.86101 0.67228 0.626 0.0
O122 O 0.87971 0.62609 0.63575 0.0
C123 C 0.81148 0.72968 0.68285 0.0
O124 O 0.81717 0.73641 0.64381 0.0
C125 C 0.9212 0.66585 0.7397 0.0
Zn126 Zn 0.05797 0.17121 0.45944 0.0
Zn127 Zn 0.04099 0.11411 0.47052 0.0
O128 O 0.99904 0.13434 0.45276 0.0
O129 O 0.01355 0.18279 0.44783 0.0
O130 O 0.0319 0.07005 0.4873 0.0
O131 O 0.0757 0.17795 0.51465 0.0
O132 O 0.06006 0.13055 0.52577 0.0
C133 C 0.99258 0.16276 0.44593 0.0
C134 C 0.08811 0.12945 0.40317 0.0
O135 O 0.07099 0.1094 0.42029 0.0
O136 O 0.08675 0.15733 0.4148 0.0
C137 C 0.01207 0.05219 0.47145 0.0
O138 O 0.99501 0.0622 0.44035 0.0
C139 C 0.07319 0.15503 0.53849 0.0
Zn140 Zn 0.5549 0.20733 0.23567 0.0
Zn141 Zn 0.60928 0.22721 0.23722 0.0
O142 O 0.60955 0.18017 0.22471 0.0
O143 O 0.56477 0.16238 0.24362 0.0
O144 O 0.65489 0.23599 0.2452 0.0
O145 O 0.54009 0.23393 0.28181 0.0
O146 O 0.58924 0.24456 0.29093 0.0
C147 C 0.59172 0.15727 0.22987 0.0
C148 C 0.56903 0.24617 0.16574 0.0
O149 O 0.59318 0.25239 0.18674 0.0
O150 O 0.55108 0.22518 0.17799 0.0
C151 C 0.67607 0.22177 0.22498 0.0
O152 O 0.66811 0.20246 0.19554 0.0
C153 C 0.56101 0.24732 0.30192 0.0
Zn154 Zn 0.43772 0.81113 0.95234 0.0
Zn155 Zn 0.45383 0.86997 0.9615 0.0
O156 O 0.49208 0.85219 0.9308 0.0
O157 O 0.48043 0.80286 0.92785 0.0
O158 O 0.46555 0.91284 0.97883 0.0
O159 O 0.42934 0.80287 0.01193 0.0
O160 O 0.4431 0.85127 0.01876 0.0
C161 C 0.49907 0.82449 0.92065 0.0
C162 C 0.39905 0.85593 0.90727 0.0
O163 O 0.4176 0.87598 0.92111 0.0
O164 O 0.40274 0.82769 0.9168 0.0
C165 C 0.46624 0.9365 0.95558 0.0
O166 O 0.45982 0.93357 0.9159 0.0
C167 C 0.4338 0.82609 0.03473 0.0
Zn168 Zn 0.92713 0.34287 0.80345 0.0
Zn169 Zn 0.87702 0.31165 0.79601 0.0
O170 O 0.90404 0.27681 0.82104 0.0
O171 O 0.94567 0.30437 0.83041 0.0
O172 O 0.83727 0.29173 0.77933 0.0
O173 O 0.93451 0.35191 0.74399 0.0
O174 O 0.89139 0.3263 0.738 0.0
C175 C 0.93178 0.27895 0.83386 0.0
C176 C 0.87956 0.36819 0.85364 0.0
O177 O 0.86582 0.34396 0.84144 0.0
O178 O 0.90557 0.37468 0.83821 0.0
C179 C 0.81108 0.29394 0.79702 0.0
O180 O 0.80857 0.30901 0.83232 0.0
C181 C 0.91343 0.34117 0.72144 0.0
Zn182 Zn 0.55342 0.20518 0.48866 0.0
Zn183 Zn 0.53186 0.1511 0.48538 0.0
O184 O 0.57843 0.14974 0.5004 0.0
O185 O 0.59857 0.19416 0.48462 0.0
O186 O 0.52225 0.10583 0.47752 0.0
O187 O 0.52859 0.22006 0.44059 0.0
O188 O 0.51601 0.17151 0.43125 0.0
C189 C 0.60211 0.16685 0.49786 0.0
C190 C 0.51181 0.19126 0.55621 0.0
O191 O 0.5059 0.16728 0.53478 0.0
O192 O 0.53324 0.20909 0.54505 0.0
C193 C 0.53449 0.08503 0.50042 0.0
O194 O 0.55199 0.09347 0.53161 0.0
C195 C 0.51474 0.19972 0.41995 0.0
Zn196 Zn 0.58506 0.70292 0.27742 0.0
Zn197 Zn 0.64271 0.72167 0.26863 0.0
O198 O 0.61965 0.76266 0.28314 0.0
O199 O 0.57138 0.74741 0.28548 0.0
O200 O 0.68557 0.73495 0.25303 0.0
O201 O 0.58247 0.68317 0.22232 0.0
O202 O 0.62992 0.6997 0.21421 0.0
C203 C 0.59092 0.76883 0.28773 0.0
C204 C 0.62816 0.67564 0.33639 0.0
O205 O 0.64817 0.69278 0.31926 0.0
O206 O 0.60032 0.67637 0.32431 0.0
C207 C 0.70761 0.74123 0.27753 0.0
O208 O 0.70308 0.73946 0.31781 0.0
C209 C 0.60658 0.68525 0.20047 0.0
Zn210 Zn 0.97741 0.82723 0.00138 0.0
Zn211 Zn 0.99873 0.88306 0.01071 0.0
O212 O 0.95108 0.88521 0.01619 0.0
O213 O 0.93291 0.84121 -0.00563 0.0
O214 O 0.00955 0.92837 0.0087 0.0
O215 O 0.00517 0.81822 0.95266 0.0
O216 O 0.0186 0.86689 0.95681 0.0
C217 C 0.92803 0.86838 0.00754 0.0
C218 C 0.01345 0.83649 0.07718 0.0
O219 O 0.01978 0.86275 0.06161 0.0
O220 O 0.99461 0.81887 0.05902 0.0
C221 C 0.99527 0.9487 0.03025 0.0
O222 O 0.97537 0.9396 0.05835 0.0
C223 C 0.0205 0.84067 0.93897 0.0
Zn224 Zn 0.56401 0.73059 0.72887 0.0
Zn225 Zn 0.62009 0.75211 0.73066 0.0
O226 O 0.62115 0.7053 0.7456 0.0
O227 O 0.57548 0.68595 0.73432 0.0
O228 O 0.66573 0.76016 0.72159 0.0
O229 O 0.5541 0.74835 0.67386 0.0
O230 O 0.60052 0.76832 0.6758 0.0
C231 C 0.60334 0.68208 0.74519 0.0
C232 C 0.57677 0.77521 0.79602 0.0
O233 O 0.60379 0.77751 0.78053 0.0
O234 O 0.55728 0.757 0.78036 0.0
C235 C 0.68637 0.75042 0.74671 0.0
O236 O 0.67757 0.73825 0.78207 0.0
C237 C 0.57455 0.76504 0.65776 0.0
Zn238 Zn 0.42954 0.3261 0.03342 0.0
Zn239 Zn 0.46273 0.37555 0.02041 0.0
O240 O 0.49656 0.34645 0.04458 0.0
O241 O 0.46881 0.30473 0.0532 0.0
O242 O 0.48485 0.41352 0.00101 0.0
O243 O 0.41512 0.32036 0.97577 0.0
O244 O 0.4428 0.36169 0.96509 0.0
C245 C 0.49446 0.31833 0.05587 0.0
C246 C 0.41018 0.37808 0.08338 0.0
O247 O 0.43334 0.39098 0.06668 0.0
O248 O 0.40316 0.3509 0.07277 0.0
C249 C 0.4916 0.43642 0.02373 0.0
O250 O 0.48523 0.43539 0.06362 0.0
C251 C 0.42508 0.34071 0.95138 0.0
Zn252 Zn 0.9172 0.26899 0.28721 0.0
Zn253 Zn 0.87003 0.24207 0.2713 0.0
O254 O 0.85967 0.2886 0.2846 0.0
O255 O 0.90337 0.31211 0.27566 0.0
O256 O 0.82748 0.22673 0.25573 0.0
O257 O 0.94226 0.24774 0.24475 0.0
O258 O 0.89806 0.23131 0.22042 0.0
C259 C 0.87464 0.31372 0.28223 0.0
C260 C 0.90436 0.2261 0.35019 0.0
O261 O 0.88566 0.21681 0.32236 0.0
O262 O 0.91801 0.2515 0.34525 0.0
C263 C 0.8045 0.23513 0.27799 0.0
O264 O 0.80975 0.25057 0.31234 0.0
C265 C 0.92736 0.23365 0.21712 0.0
Zn266 Zn 1.00097 0.6849 0.49025 0.0
Zn267 Zn 0.01681 0.62624 0.49471 0.0
O268 O 0.96907 0.63027 0.49657 0.0
O269 O 0.95552 0.67772 0.48046 0.0
O270 O 0.02246 0.5801 0.48874 0.0
O271 O 0.03097 0.69298 0.44378 0.0
O272 O 0.04118 0.6431 0.44484 0.0
C273 C 0.94791 0.65045 0.48959 0.0
C274 C 0.03121 0.66514 0.56803 0.0
O275 O 0.03606 0.63921 0.55025 0.0
O276 O 0.01626 0.68655 0.54972 0.0
C277 C 0.00742 0.56228 0.51241 0.0
O278 O 0.99116 0.57456 0.54287 0.0
C279 C 0.04567 0.66981 0.42952 0.0
Zn280 Zn 0.58541 0.19573 0.69969 0.0
Zn281 Zn 0.63775 0.22219 0.71883 0.0
O282 O 0.61308 0.25992 0.69688 0.0
O283 O 0.56806 0.23827 0.68618 0.0
O284 O 0.677 0.23999 0.74145 0.0
O285 O 0.57744 0.17703 0.75455 0.0
O286 O 0.62031 0.20052 0.77123 0.0
C287 C 0.58485 0.26197 0.68588 0.0
C288 C 0.63654 0.1752 0.64861 0.0
O289 O 0.65167 0.19465 0.66979 0.0
O290 O 0.60822 0.17095 0.65639 0.0
C291 C 0.69989 0.24666 0.7186 0.0
O292 O 0.69775 0.24258 0.67828 0.0
C293 C 0.59749 0.18377 0.78139 0.0
Zn294 Zn 0.98582 0.33552 0.97257 0.0
Zn295 Zn 0.00965 0.38581 0.98402 0.0
O296 O 0.96153 0.39073 0.97829 0.0
O297 O 0.94225 0.34514 -0.01111 0.0
O298 O 0.02152 0.43074 -0.00764 0.0
O299 O 0.0142 0.31511 0.01277 0.0
O300 O 0.0278 0.36109 0.03417 0.0
C301 C 0.93795 0.37372 0.98311 0.0
C302 C 0.02242 0.35051 0.9042 0.0
O303 O 0.032 0.37021 0.93054 0.0
O304 O 0.99852 0.33513 0.91222 0.0
C305 C 0.008 0.45048 0.96898 0.0
O306 O 0.99019 0.44038 0.93905 0.0
C307 C 0.02925 0.3317 0.03765 0.0
Zn308 Zn 0.91899 0.84474 0.16294 0.0
Zn309 Zn 0.88175 0.81032 0.19423 0.0
O310 O 0.90255 0.77645 0.15883 0.0
O311 O 0.92151 0.81182 0.11751 0.0
O312 O 0.84568 0.79131 0.22387 0.0
O313 O 0.95041 0.84416 0.2075 0.0
O314 O 0.9115 0.82441 0.24175 0.0
C315 C 0.9159 0.78365 0.12494 0.0
C316 C 0.86674 0.86824 0.1415 0.0
O317 O 0.86136 0.84037 0.1515 0.0
O318 O 0.88922 0.88101 0.15913 0.0
C319 C 0.82349 0.78064 0.20273 0.0
O320 O 0.82543 0.7812 0.16199 0.0
C321 C 0.93891 0.83506 0.24127 0.0
Zn322 Zn 0.54983 0.67678 0.52314 0.0
Zn323 Zn 0.51998 0.63124 0.50173 0.0
O324 O 0.5661 0.62917 0.48134 0.0
O325 O 0.59344 0.66397 0.51319 0.0
O326 O 0.50619 0.58684 0.50146 0.0
O327 O 0.53503 0.68282 0.58021 0.0
O328 O 0.50379 0.64664 0.55919 0.0
C329 C 0.59214 0.64198 0.48755 0.0
C330 C 0.50422 0.68462 0.45279 0.0
O331 O 0.49672 0.65658 0.45829 0.0
O332 O 0.52494 0.69649 0.47549 0.0
C333 C 0.51575 0.56614 0.47633 0.0
O334 O 0.53384 0.57408 0.4455 0.0
C335 C 0.51164 0.66642 0.58638 0.0
Zn336 Zn 0.43508 0.28281 0.21624 0.0
Zn337 Zn 0.38391 0.26427 0.23429 0.0
O338 O 0.38106 0.31129 0.22088 0.0
O339 O 0.42807 0.32756 0.22939 0.0
O340 O 0.33923 0.25496 0.24959 0.0
O341 O 0.45661 0.25535 0.25646 0.0
O342 O 0.41062 0.25099 0.2851 0.0
C343 C 0.39985 0.33366 0.22282 0.0
C344 C 0.41424 0.2438 0.15386 0.0
O345 O 0.39542 0.23698 0.18293 0.0
O346 O 0.43115 0.2672 0.15776 0.0
C347 C 0.31782 0.26753 0.22795 0.0
O348 O 0.32564 0.28379 0.19526 0.0
C349 C 0.43981 0.24618 0.28586 0.0
Zn350 Zn 0.57518 0.672 0.95026 0.0
Zn351 Zn 0.55358 0.61689 0.9608 0.0
O352 O 0.51292 0.63998 0.94658 0.0
O353 O 0.53116 0.68684 0.94047 0.0
O354 O 0.54006 0.57433 0.97746 0.0
O355 O 0.59427 0.67704 0.00516 0.0
O356 O 0.57459 0.63121 0.01543 0.0
C357 C 0.50851 0.66869 0.93971 0.0
C358 C 0.5988 0.62971 0.88988 0.0
O359 O 0.58045 0.61114 0.90776 0.0
O360 O 0.60151 0.65694 0.90348 0.0
C361 C 0.53601 0.55173 0.953 0.0
O362 O 0.54059 0.5556 0.91302 0.0
C363 C 0.58954 0.65437 0.0288 0.0
Zn364 Zn 0.07797 0.80556 0.70462 0.0
Zn365 Zn 0.12966 0.78095 0.72499 0.0
O366 O 0.1086 0.74194 0.70348 0.0
O367 O 0.06308 0.76298 0.68982 0.0
O368 O 0.17117 0.76598 0.74652 0.0
O369 O 0.06659 0.82445 0.75758 0.0
O370 O 0.10874 0.7999 0.77865 0.0
C371 C 0.08083 0.73943 0.69101 0.0
C372 C 0.12444 0.82819 0.65316 0.0
O373 O 0.14061 0.80875 0.67403 0.0
O374 O 0.09618 0.83232 0.66172 0.0
C375 C 0.18923 0.74813 0.72612 0.0
O376 O 0.18086 0.73892 0.68896 0.0
C377 C 0.08489 0.8168 0.78635 0.0
Zn378 Zn 0.92234 0.32498 0.46181 0.0
Zn379 Zn 0.94871 0.37846 0.46221 0.0
O380 O 0.98426 0.35294 0.43483 0.0
O381 O 0.96031 0.3086 0.43178 0.0
O382 O 0.9644 0.42116 0.47376 0.0
O383 O 0.91763 0.31987 0.52254 0.0
O384 O 0.9374 0.36623 0.52238 0.0
C385 C 0.98395 0.32456 0.42409 0.0
C386 C 0.889 0.36902 0.41312 0.0
O387 O 0.91256 0.38538 0.42095 0.0
O388 O 0.88667 0.34269 0.42978 0.0
C389 C 0.98774 0.43528 0.45984 0.0
O390 O 0.00525 0.4221 0.43133 0.0
C391 C 0.92604 0.34355 0.54211 0.0
Zn392 Zn 0.43511 0.82776 0.29483 0.0
Zn393 Zn 0.38595 0.79594 0.29361 0.0
O394 O 0.41514 0.76524 0.32505 0.0
O395 O 0.45567 0.7949 0.32998 0.0
O396 O 0.34539 0.77385 0.28646 0.0
O397 O 0.4425 0.82915 0.23466 0.0
O398 O 0.39824 0.80499 0.23212 0.0
C399 C 0.44263 0.76962 0.33801 0.0
C400 C 0.38725 0.85927 0.33699 0.0
O401 O 0.37409 0.83348 0.33102 0.0
O402 O 0.41347 0.86378 0.3209 0.0
C403 C 0.32339 0.78909 0.26947 0.0
O404 O 0.32833 0.8178 0.25839 0.0
C405 C 0.42093 0.81763 0.21368 0.0
Zn406 Zn 0.03352 0.7037 0.94724 0.0
Zn407 Zn 0.01439 0.64886 0.97244 0.0
O408 O 0.06077 0.65241 -0.01227 0.0
O409 O 0.07811 0.69613 0.9633 0.0
O410 O 0.00513 0.60312 0.97953 0.0
O411 O 0.0173 0.69956 0.8893 0.0
O412 O 0.99871 0.65588 0.9125 0.0
C413 C 0.08293 0.67123 0.98298 0.0
C414 C 0.98584 0.70408 0.01388 0.0
O415 O 0.9872 0.6746 0.01275 0.0
O416 O 1.00291 0.71986 -0.00986 0.0
C417 C 0.02285 0.58303 -0.00344 0.0
O418 O 0.04796 0.59221 0.01547 0.0
C419 C 1.0008 0.67606 0.88386 0.0
Zn420 Zn 0.07758 0.19687 0.79019 0.0
Zn421 Zn 0.13465 0.21692 0.77905 0.0
O422 O 0.11136 0.25616 0.79861 0.0
O423 O 0.06318 0.24078 0.80242 0.0
O424 O 0.17611 0.23385 0.7641 0.0
O425 O 0.07377 0.17956 0.73359 0.0
O426 O 0.12064 0.19712 0.72363 0.0
C427 C 0.08287 0.262 0.80535 0.0
C428 C 0.12357 0.16914 0.84545 0.0
O429 O 0.14258 0.18688 0.82748 0.0
O430 O 0.09537 0.16938 0.8348 0.0
C431 C 0.20159 0.21902 0.76692 0.0
O432 O 0.20164 0.19049 0.7808 0.0
C433 C 0.09687 0.18317 0.71018 0.0
Zn434 Zn 0.47829 0.31816 0.51085 0.0
Zn435 Zn 0.49824 0.37029 0.49739 0.0
O436 O 0.45112 0.37418 0.5087 0.0
O437 O 0.43383 0.32786 0.49748 0.0
O438 O 0.50911 0.41479 0.48612 0.0
O439 O 0.50595 0.29884 0.46843 0.0
O440 O 0.51183 0.34615 0.44492 0.0
C441 C 0.42833 0.35609 0.50485 0.0
C442 C 0.51672 0.33665 0.57605 0.0
O443 O 0.52408 0.35663 0.54879 0.0
O444 O 0.49371 0.31957 0.56985 0.0
C445 C 0.49861 0.43508 0.51127 0.0
O446 O 0.48362 0.42579 0.54437 0.0
C447 C 0.51593 0.31706 0.44112 0.0
C448 C 0.08687 0.11546 0.32937 0.0
C449 C 0.10471 0.12317 0.36413 0.0
C450 C 0.09307 0.12885 0.29062 0.0
C451 C 0.11694 0.15053 0.28631 0.0
H452 H 0.06525 0.10351 0.33338 0.0
H453 H 0.07606 0.12609 0.26627 0.0
S454 S 0.17883 0.16462 0.3631 0.0
N455 N 0.1534 0.14356 0.38827 0.0
N456 N 0.16539 0.16836 0.3153 0.0
C457 C 0.13918 0.15164 0.31803 0.0
C458 C 0.13285 0.13804 0.35735 0.0
C459 C 0.12967 0.8192 0.54148 0.0
C460 C 0.11163 0.84526 0.5299 0.0
C461 C 0.14102 0.81618 0.58214 0.0
C462 C 0.13437 0.83903 0.61199 0.0
H463 H 0.13117 0.79917 0.52137 0.0
H464 H 0.15013 0.79383 0.59174 0.0
S465 S 0.10183 0.91709 0.59145 0.0
N466 N 0.09825 0.89859 0.54685 0.0
N467 N 0.11885 0.89241 0.62357 0.0
C468 C 0.12304 0.86774 0.59797 0.0
C469 C 0.11167 0.87095 0.55663 0.0
C470 C 0.39347 0.87495 0.83603 0.0
C471 C 0.37899 0.86285 0.87143 0.0
C472 C 0.38785 0.86196 0.79688 0.0
C473 C 0.36817 0.83642 0.79323 0.0
H474 H 0.41316 0.88992 0.83932 0.0
H475 H 0.40341 0.86771 0.77174 0.0
S476 S 0.31139 0.81166 0.87208 0.0
N477 N 0.33449 0.83529 0.89716 0.0
N478 N 0.32337 0.81144 0.82332 0.0
C479 C 0.3469 0.83178 0.82562 0.0
C480 C 0.35276 0.84476 0.86542 0.0
C481 C 0.43329 0.23399 0.08234 0.0
C482 C 0.42201 0.22197 0.1199 0.0
C483 C 0.45199 0.21602 0.05593 0.0
C484 C 0.45995 0.18534 0.06603 0.0
H485 H 0.42993 0.25826 0.07516 0.0
H486 H 0.46237 0.22697 0.02919 0.0
S487 S 0.43237 0.14143 0.1572 0.0
N488 N 0.41679 0.17626 0.16307 0.0
N489 N 0.45193 0.14241 0.11313 0.0
C490 C 0.4459 0.17193 0.10086 0.0
C491 C 0.42684 0.1903 0.12792 0.0
C492 C 0.08145 0.80563 0.13841 0.0
C493 C 0.06739 0.78283 0.16287 0.0
C494 C 0.0635 0.82577 0.11359 0.0
C495 C 0.03108 0.82359 0.11264 0.0
H496 H 0.1064 0.80624 0.13569 0.0
H497 H 0.07519 0.8411 0.09236 0.0
S498 S 0.98337 0.77311 0.179 0.0
N499 N 0.01932 0.76323 0.19049 0.0
N500 N 0.98576 0.80078 0.14388 0.0
C501 C 0.0169 0.80324 0.14046 0.0
C502 C 0.03503 0.7829 0.16558 0.0
C503 C 0.39431 0.90751 0.37572 0.0
C504 C 0.37829 0.87949 0.37229 0.0
C505 C 0.41151 0.91361 0.41166 0.0
C506 C 0.41179 0.89214 0.44448 0.0
H507 H 0.39935 0.92076 0.34803 0.0
H508 H 0.42885 0.93135 0.41001 0.0
S509 S 0.35512 0.83013 0.46028 0.0
N510 N 0.35024 0.84097 0.41148 0.0
N511 N 0.38176 0.85296 0.47963 0.0
C512 C 0.38716 0.87135 0.44629 0.0
C513 C 0.37011 0.86491 0.40954 0.0
C514 C 0.48642 0.23721 0.64931 0.0
C515 C 0.45408 0.23775 0.64552 0.0
C516 C 0.50497 0.21957 0.62251 0.0
C517 C 0.49189 0.20143 0.5911 0.0
H518 H 0.49755 0.25193 0.67169 0.0
H519 H 0.52984 0.22168 0.62464 0.0
S520 S 0.40817 0.19099 0.57216 0.0
N521 N 0.40947 0.21577 0.61115 0.0
N522 N 0.4445 0.18212 0.5608 0.0
C523 C 0.4595 0.19923 0.5896 0.0
C524 C 0.44051 0.2175 0.61688 0.0
C525 C 0.11496 0.1266 0.89466 0.0
C526 C 0.13151 0.15327 0.88457 0.0
C527 C 0.1048 0.12169 0.93539 0.0
C528 C 0.11016 0.144 0.96629 0.0
H529 H 0.1057 0.11227 0.87019 0.0
H530 H 0.08827 0.10358 0.94055 0.0
S531 S 0.16615 0.20772 0.95915 0.0
N532 N 0.16325 0.19458 0.91115 0.0
N533 N 0.14396 0.1855 -0.01213 0.0
C534 C 0.13357 0.16555 0.95863 0.0
C535 C 0.14415 0.17038 0.91721 0.0
C536 C 0.97086 0.75048 0.54264 0.0
C537 C 0.97192 0.78261 0.54902 0.0
C538 C 0.95301 0.73156 0.56788 0.0
C539 C 0.93521 0.74377 0.60077 0.0
H540 H 0.984 0.73963 0.51781 0.0
H541 H 0.95326 0.707 0.5614 0.0
S542 S 0.92945 0.82643 0.63087 0.0
N543 N 0.95325 0.82598 0.5907 0.0
N544 N 0.91946 0.79018 0.63833 0.0
C545 C 0.93555 0.77591 0.60735 0.0
C546 C 0.95393 0.79536 0.58148 0.0
C547 C 0.94872 0.15917 0.39582 0.0
C548 C 0.9618 0.17305 0.43104 0.0
C549 C 0.92624 0.17503 0.37202 0.0
C550 C 0.91639 0.20515 0.38287 0.0
H551 H 0.95814 0.1375 0.38416 0.0
H552 H 0.91921 0.16506 0.3427 0.0
S553 S 0.93755 0.24756 0.47842 0.0
N554 N 0.95885 0.21558 0.48007 0.0
N555 N 0.91679 0.24533 0.43549 0.0
C556 C 0.92641 0.21732 0.42089 0.0
C557 C 0.94914 0.20127 0.44494 0.0
C558 C 0.6175 0.11894 0.13571 0.0
C559 C 0.58864 0.10746 0.12359 0.0
C560 C 0.62214 0.1291 0.17651 0.0
C561 C 0.59758 0.12872 0.20526 0.0
H562 H 0.63436 0.12509 0.11233 0.0
H563 H 0.64261 0.14241 0.18281 0.0
S564 S 0.52522 0.08485 0.19386 0.0
N565 N 0.54107 0.08413 0.14716 0.0
N566 N 0.54971 0.10331 0.22398 0.0
C567 C 0.5727 0.10917 0.19642 0.0
C568 C 0.56808 0.09862 0.15496 0.0
C569 C 0.53048 0.83327 0.85702 0.0
C570 C 0.52654 0.81754 0.89485 0.0
C571 C 0.55008 0.82117 0.82597 0.0
C572 C 0.56675 0.79343 0.83229 0.0
H573 H 0.51618 0.85335 0.84985 0.0
H574 H 0.55015 0.83213 0.79572 0.0
S575 S 0.56919 0.74714 0.92883 0.0
N576 N 0.54406 0.7753 0.93896 0.0
N577 N 0.5814 0.75302 0.88088 0.0
C578 C 0.56536 0.77932 0.87141 0.0
C579 C 0.54511 0.7913 0.9027 0.0
C580 C 0.98034 0.25386 0.8593 0.0
C581 C 0.94801 0.25286 0.85499 0.0
C582 C 0.99632 0.23306 0.8849 0.0
C583 C 0.98072 0.21024 0.90743 0.0
H584 H 0.99343 0.27172 0.84415 0.0
H585 H 0.02103 0.23587 0.88856 0.0
S586 S 0.89659 0.19525 0.90345 0.0
N587 N 0.90121 0.2252 0.8724 0.0
N588 N 0.93144 0.18594 0.92089 0.0
C589 C 0.94872 0.20735 0.90109 0.0
C590 C 0.9323 0.2287 0.87482 0.0
C591 C 0.63594 0.13614 0.593 0.0
C592 C 0.64815 0.16383 0.60824 0.0
C593 C 0.62697 0.13374 0.55134 0.0
C594 C 0.6292 0.15942 0.52467 0.0
H595 H 0.62857 0.11844 0.61449 0.0
H596 H 0.61332 0.11404 0.54249 0.0
S597 S 0.67486 0.22957 0.5449 0.0
N598 N 0.67367 0.21154 0.59007 0.0
N599 N 0.65649 0.20724 0.51175 0.0
C600 C 0.64904 0.18325 0.53687 0.0
C601 C 0.6585 0.18553 0.57919 0.0
C602 C 0.54959 0.80941 0.29054 0.0
C603 C 0.57981 0.79983 0.30112 0.0
C604 C 0.53393 0.83224 0.31359 0.0
C605 C 0.54781 0.846 0.34836 0.0
H606 H 0.53691 0.79717 0.26684 0.0
H607 H 0.50967 0.83655 0.30702 0.0
S608 S 0.62898 0.83414 0.38271 0.0
N609 N 0.62502 0.80997 0.34343 0.0
N610 N 0.59544 0.85265 0.38721 0.0
C611 C 0.57943 0.83983 0.35544 0.0
C612 C 0.59549 0.81665 0.33172 0.0
C613 C 0.85766 0.85346 0.06857 0.0
C614 C 0.8608 0.87755 0.09772 0.0
C615 C 0.87622 0.85272 0.03283 0.0
C616 C 0.89715 0.87664 0.02495 0.0
H617 H 0.84594 0.83245 0.07706 0.0
H618 H 0.87759 0.83133 0.0154 0.0
S619 S 0.89651 0.95306 0.07677 0.0
N620 N 0.87371 0.93162 0.10571 0.0
N621 N 0.90794 0.93081 0.03777 0.0
C622 C 0.89262 0.9045 0.04677 0.0
C623 C 0.87394 0.90503 0.08329 0.0
C624 C 0.58738 0.61782 0.81715 0.0
C625 C 0.60991 0.62405 0.84727 0.0
C626 C 0.58826 0.63264 0.77843 0.0
C627 C 0.61173 0.65387 0.76927 0.0
H628 H 0.56639 0.60608 0.8258 0.0
H629 H 0.56806 0.63112 0.75869 0.0
S630 S 0.68369 0.66414 0.8298 0.0
N631 N 0.66168 0.64263 0.85973 0.0
N632 N 0.6639 0.66983 0.78652 0.0
C633 C 0.63808 0.65347 0.79486 0.0
C634 C 0.63703 0.63858 0.83428 0.0
C635 C 0.54072 0.25149 0.09926 0.0
C636 C 0.5586 0.2654 0.13029 0.0
C637 C 0.52213 0.2692 0.07257 0.0
C638 C 0.5206 0.30157 0.07586 0.0
H639 H 0.53944 0.22657 0.09758 0.0
H640 H 0.50738 0.25732 0.05086 0.0
S641 S 0.56607 0.34954 0.14826 0.0
N642 N 0.57631 0.31364 0.15989 0.0
N643 N 0.54121 0.34711 0.10949 0.0
C644 C 0.5406 0.31601 0.10404 0.0
C645 C 0.55967 0.29785 0.13136 0.0
C646 C 0.88201 0.36819 0.30243 0.0
C647 C 0.86214 0.34268 0.30088 0.0
C648 C 0.88605 0.38425 0.33982 0.0
C649 C 0.87009 0.37491 0.37564 0.0
H650 H 0.89867 0.37179 0.27781 0.0
H651 H 0.90579 0.39923 0.34237 0.0
S652 S 0.80146 0.32506 0.378 0.0
N653 N 0.81591 0.32041 0.33084 0.0
N654 N 0.82352 0.35068 0.40116 0.0
C655 C 0.84351 0.35716 0.36989 0.0
C656 C 0.83948 0.34074 0.332 0.0
C657 C 0.873 0.66799 0.54272 0.0
C658 C 0.87013 0.64101 0.56692 0.0
C659 C 0.89581 0.66983 0.51187 0.0
C660 C 0.91577 0.64452 0.50366 0.0
H661 H 0.86132 0.68925 0.5519 0.0
H662 H 0.90034 0.69231 0.49862 0.0
S663 S 0.90568 0.56464 0.54241 0.0
N664 N 0.88029 0.58561 0.56901 0.0
N665 N 0.92281 0.58886 0.5105 0.0
C666 C 0.90767 0.61566 0.52019 0.0
C667 C 0.88455 0.61387 0.55176 0.0
C668 C 0.52445 0.31799 0.64816 0.0
C669 C 0.53753 0.32841 0.61082 0.0
C670 C 0.5415 0.29936 0.67568 0.0
C671 C 0.57209 0.29032 0.66658 0.0
H672 H 0.50014 0.32213 0.65444 0.0
H673 H 0.52989 0.28983 0.70249 0.0
S674 S 0.61851 0.31553 0.57635 0.0
N675 N 0.58419 0.33193 0.56906 0.0
N676 N 0.61616 0.29654 0.62072 0.0
C677 C 0.58655 0.3035 0.6319 0.0
C678 C 0.56922 0.32268 0.60392 0.0
C679 C 0.90625 0.41014 0.94086 0.0
C680 C 0.90727 0.3844 0.9676 0.0
C681 C 0.88824 0.40934 0.90466 0.0
C682 C 0.87208 0.38236 0.8944 0.0
H683 H 0.92319 0.42818 0.94365 0.0
H684 H 0.89251 0.42656 0.88099 0.0
S685 S 0.85171 0.32018 0.96777 0.0
N686 N 0.87865 0.33995 -0.00803 0.0
N687 N 0.84553 0.3382 0.92324 0.0
C688 C 0.86519 0.36218 0.92713 0.0
C689 C 0.88319 0.36306 0.96416 0.0
C690 C 0.95359 0.75063 0.02885 0.0
C691 C 0.9639 0.72109 0.04132 0.0
C692 C 0.93613 0.76957 0.05529 0.0
C693 C 0.92835 0.76006 0.09564 0.0
H694 H 0.95978 0.7597 -0.00136 0.0
H695 H 0.92975 0.79247 0.04449 0.0
S696 S 0.94721 0.68366 0.14229 0.0
N697 N 0.96306 0.68208 0.09558 0.0
N698 N 0.93018 0.71801 0.14581 0.0
C699 C 0.93675 0.72979 0.10777 0.0
C700 C 0.9546 0.71026 0.08051 0.0
C701 C 0.64514 0.67438 0.4096 0.0
C702 C 0.63501 0.6582 0.37454 0.0
C703 C 0.63616 0.66504 0.4495 0.0
C704 C 0.61634 0.63971 0.45489 0.0
H705 H 0.65604 0.69658 0.40605 0.0
H706 H 0.6408 0.68052 0.47511 0.0
S707 S 0.59599 0.58275 0.37394 0.0
N708 N 0.61341 0.61062 0.3484 0.0
N709 N 0.59692 0.5928 0.42344 0.0
C710 C 0.61236 0.6198 0.42091 0.0
C711 C 0.62139 0.62934 0.38042 0.0
C712 C 0.36888 0.37693 0.13577 0.0
C713 C 0.39717 0.38954 0.12304 0.0
C714 C 0.36614 0.36387 0.1754 0.0
C715 C 0.39171 0.36344 0.20246 0.0
H716 H 0.35144 0.37155 0.11284 0.0
H717 H 0.34651 0.34926 0.1813 0.0
S718 S 0.4613 0.41158 0.19238 0.0
N719 N 0.44401 0.41428 0.14674 0.0
N720 N 0.43877 0.39003 0.22155 0.0
C721 C 0.41528 0.38471 0.19459 0.0
C722 C 0.41806 0.39791 0.15426 0.0
C723 C 0.4718 0.71291 0.93029 0.0
C724 C 0.47815 0.68112 0.9257 0.0
C725 C 0.44842 0.72756 0.90725 0.0
C726 C 0.43075 0.71108 0.87831 0.0
H727 H 0.48648 0.72706 0.94952 0.0
H728 H 0.44603 0.75245 0.90944 0.0
S729 S 0.43391 0.62631 0.86122 0.0
N730 N 0.46145 0.63268 0.89553 0.0
N731 N 0.41766 0.66035 0.85162 0.0
C732 C 0.43426 0.67869 0.87725 0.0
C733 C 0.45804 0.66366 0.90106 0.0
C734 C 0.08961 0.69549 0.64217 0.0
C735 C 0.07023 0.71091 0.67087 0.0
C736 C 0.07707 0.67654 0.6112 0.0
C737 C 0.04496 0.67254 0.60845 0.0
H738 H 0.11399 0.70073 0.64069 0.0
H739 H 0.09213 0.66786 0.58679 0.0
S740 S 0.98584 0.70128 0.68281 0.0
N741 N 0.01853 0.71585 0.69972 0.0
N742 N 0.99497 0.68057 0.64131 0.0
C743 C 0.02605 0.68455 0.64016 0.0
C744 C 0.03874 0.70365 0.67158 0.0
C745 C 0.00881 0.27784 0.39235 0.0
C746 C 0.00972 0.30986 0.40007 0.0
C747 C 0.02948 0.26346 0.36484 0.0
C748 C 0.05227 0.28027 0.34396 0.0
H749 H 0.99119 0.26372 0.40642 0.0
H750 H 0.02685 0.239 0.35881 0.0
S751 S 0.06691 0.36394 0.35604 0.0
N752 N 0.03709 0.35757 0.38681 0.0
N753 N 0.07624 0.3302 0.33511 0.0
C754 C 0.05494 0.31186 0.35326 0.0
C755 C 0.03359 0.32672 0.38128 0.0
C756 C 0.45896 0.69916 0.40684 0.0
C757 C 0.48944 0.70414 0.42028 0.0
C758 C 0.44409 0.71989 0.37928 0.0
C759 C 0.45928 0.74617 0.36403 0.0
H760 H 0.44615 0.6798 0.41881 0.0
H761 H 0.4203 0.7157 0.37082 0.0
S762 S 0.54065 0.76727 0.3865 0.0
N763 N 0.53512 0.73563 0.41365 0.0
N764 N 0.50768 0.77422 0.36231 0.0
C765 C 0.49032 0.75037 0.37591 0.0
C766 C 0.50525 0.72947 0.40387 0.0
C767 C 0.11472 0.64058 0.03337 0.0
C768 C 0.11092 0.66765 0.00957 0.0
C769 C 0.13004 0.64123 0.07169 0.0
C770 C 0.14176 0.66902 0.08745 0.0
H771 H 0.10259 0.61981 0.02504 0.0
H772 H 0.12847 0.62116 0.09167 0.0
S773 S 0.14957 0.74223 0.02903 0.0
N774 N 0.1292 0.71992 -0.00187 0.0
N775 N 0.15762 0.72111 0.07045 0.0
C776 C 0.14417 0.69406 0.0599 0.0
C777 C 0.12859 0.69344 0.02077 0.0
C778 C 0.08697 0.30377 0.85811 0.0
C779 C 0.0728 0.29219 0.82217 0.0
C780 C 0.07218 0.32666 0.88225 0.0
C781 C 0.04286 0.33852 0.87103 0.0
H782 H 0.10803 0.29303 0.8698 0.0
H783 H 0.08216 0.33253 0.91204 0.0
S784 S 1.00118 0.32243 0.77313 0.0
N785 N 0.03157 0.29886 0.77184 0.0
N786 N 1.00372 0.34194 0.81714 0.0
C787 C 0.03061 0.32997 0.83242 0.0
C788 C 0.0456 0.3067 0.80798 0.0
C789 C 0.37643 0.34111 0.52962 0.0
C790 C 0.39785 0.36483 0.52298 0.0
C791 C 0.36096 0.33896 0.56779 0.0
C792 C 0.36713 0.36036 0.59947 0.0
H793 H 0.37594 0.32132 0.50903 0.0
H794 H 0.34967 0.31745 0.57499 0.0
S795 S 0.40384 0.43621 0.58562 0.0
N796 N 0.41123 0.4174 0.54197 0.0
N797 N 0.38255 0.41292 0.61405 0.0
C798 C 0.37991 0.38864 0.58762 0.0
C799 C 0.39554 0.39095 0.54884 0.0
C800 C 0.27594 0.2452 0.27265 0.0
C801 C 0.28464 0.26489 0.24 0.0
C802 C 0.2448 0.24212 0.28422 0.0
C803 C 0.22094 0.25865 0.26374 0.0
H804 H 0.29326 0.23171 0.2892 0.0
H805 H 0.23942 0.22619 0.30903 0.0
S806 S 0.2314 0.31481 0.17776 0.0
N807 N 0.26672 0.30226 0.18846 0.0
N808 N 0.2085 0.29653 0.2102 0.0
C809 C 0.22939 0.27899 0.23166 0.0
C810 C 0.26108 0.28206 0.2198 0.0
C811 C 0.99336 0.96661 0.47349 0.0
C812 C 0.00936 0.95554 0.50876 0.0
C813 C 0.99353 0.99797 0.46249 0.0
C814 C 0.00981 0.01967 0.48614 0.0
H815 H 0.98132 0.95081 0.45331 0.0
H816 H 0.98158 0.005 0.4344 0.0
S817 S 0.05254 1.00348 0.58409 0.0
N818 N 0.03973 0.96949 0.56935 0.0
N819 N 0.04019 0.02826 0.54861 0.0
C820 C 0.02467 0.00923 0.52262 0.0
C821 C 0.02436 0.97727 0.53395 0.0
C822 C 0.27343 0.72154 0.72992 0.0
C823 C 0.28236 0.72849 0.7709 0.0
C824 C 0.24304 0.72695 0.71618 0.0
C825 C 0.22031 0.73966 0.74276 0.0
H826 H 0.29027 0.71291 0.70768 0.0
H827 H 0.23769 0.72213 0.68398 0.0
S828 S 0.23055 0.75815 0.85456 0.0
N829 N 0.26501 0.74588 0.83913 0.0
N830 N 0.20811 0.75622 0.81322 0.0
C831 C 0.22846 0.74514 0.78443 0.0
C832 C 0.25938 0.73947 0.79851 0.0
C833 C 0.48792 0.02112 0.96245 0.0
C834 C 0.49058 0.02631 0.0055 0.0
C835 C 0.47979 0.99217 0.94667 0.0
C836 C 0.47417 0.96709 0.97325 0.0
H837 H 0.49232 0.03952 0.94054 0.0
H838 H 0.47829 0.98942 0.91329 0.0
S839 S 0.47706 0.96857 0.08867 0.0
N840 N 0.48616 1.00392 0.07457 0.0
N841 N 0.47101 0.94961 0.04504 0.0
C842 C 0.47637 0.97201 0.01644 0.0
C843 C 0.4845 1.00156 0.03252 0.0
C844 C 0.26125 0.72822 0.25878 0.0
C845 C 0.23556 0.74506 0.24341 0.0
C846 C 0.28936 0.74264 0.26745 0.0
C847 C 0.29305 0.77454 0.26112 0.0
H848 H 0.2598 0.70357 0.26398 0.0
H849 H 0.30842 0.72851 0.27888 0.0
S850 S 0.23259 0.82954 0.22296 0.0
N851 N 0.2155 0.79575 0.22331 0.0
N852 N 0.26813 0.82276 0.23956 0.0
C853 C 0.26745 0.79177 0.2462 0.0
C854 C 0.23881 0.77708 0.23738 0.0
C855 C 0.50973 0.01227 0.44404 0.0
C856 C 0.52348 0.98818 0.46733 0.0
C857 C 0.51319 0.0433 0.45524 0.0
C858 C 0.5306 0.05175 0.49026 0.0
H859 H 0.49593 0.00722 0.41688 0.0
H860 H 0.5021 0.0608 0.43607 0.0
S861 S 0.57169 0.99765 0.5618 0.0
N862 N 0.55543 0.97499 0.52714 0.0
N863 N 0.56199 0.03326 0.5482 0.0
C864 C 0.54461 0.02792 0.51386 0.0
C865 C 0.54106 0.99622 0.50241 0.0
C866 C 0.22917 0.26209 0.73188 0.0
C867 C 0.23065 0.23399 0.75389 0.0
C868 C 0.25601 0.27716 0.71944 0.0
C869 C 0.28548 0.26472 0.72829 0.0
H870 H 0.20706 0.27264 0.72404 0.0
H871 H 0.25358 0.29871 0.70257 0.0
S872 S 0.30235 0.19247 0.78671 0.0
N873 N 0.26424 0.19475 0.78505 0.0
N874 N 0.31472 0.22307 0.76146 0.0
C875 C 0.28742 0.23665 0.75028 0.0
C876 C 0.26002 0.22131 0.76313 0.0
C877 C 0.02067 0.02223 0.97614 0.0
C878 C 1.00429 0.04583 -0.00272 0.0
C879 C 0.01795 0.99112 -0.01252 0.0
C880 C 0.99871 0.98211 0.02049 0.0
H881 H 0.03601 0.02774 0.95069 0.0
H882 H 0.03104 0.97401 0.96994 0.0
S883 S 0.95052 0.03477 0.08596 0.0
N884 N 0.96785 0.05791 0.05286 0.0
N885 N 0.96283 0.99955 0.07423 0.0
C886 C 0.98208 0.00544 0.04191 0.0
C887 C 0.98481 0.0372 0.03028 0.0
C888 C 0.75761 0.75182 0.67715 0.0
C889 C 0.78078 0.7376 0.70161 0.0
C890 C 0.72762 0.75707 0.6926 0.0
C891 C 0.71937 0.74834 0.73324 0.0
H892 H 0.76235 0.75827 0.6453 0.0
H893 H 0.71054 0.76723 0.6719 0.0
S894 S 0.77216 0.713 0.81159 0.0
N895 N 0.79387 0.71689 0.7698 0.0
N896 N 0.73767 0.72675 0.79874 0.0
C897 C 0.74267 0.73537 0.75872 0.0
C898 C 0.77326 0.73 0.74296 0.0
C899 C 0.71677 0.2418 0.27293 0.0
C900 C 0.70913 0.22507 0.23698 0.0
C901 C 0.74751 0.24438 0.28611 0.0
C902 C 0.77211 0.23048 0.26386 0.0
H903 H 0.69885 0.25291 0.29142 0.0
H904 H 0.75192 0.25768 0.31393 0.0
S905 S 0.76483 0.18415 0.16732 0.0
N906 N 0.72895 0.19433 0.17913 0.0
N907 N 0.78666 0.19931 0.20383 0.0
C908 C 0.76489 0.21369 0.22776 0.0
C909 C 0.73348 0.21096 0.21436 0.0
C910 C 0.72883 0.26713 0.77986 0.0
C911 C 0.72863 0.25851 0.73764 0.0
C912 C 0.75556 0.2784 0.79881 0.0
C913 C 0.78332 0.28122 0.77647 0.0
H914 H 0.70808 0.26539 0.79853 0.0
H915 H 0.75441 0.28486 0.83129 0.0
S916 S 0.7953 0.2617 0.66504 0.0
N917 N 0.75877 0.25356 0.67404 0.0
N918 N 0.80896 0.27451 0.70956 0.0
C919 C 0.78355 0.2725 0.73424 0.0
C920 C 0.75624 0.26126 0.71487 0.0
C921 C 0.76991 0.76011 0.19869 0.0
C922 C 0.79493 0.76952 0.22326 0.0
C923 C 0.74207 0.75087 0.21663 0.0
C924 C 0.73791 0.75054 0.26003 0.0
H925 H 0.77159 0.76015 0.16511 0.0
H926 H 0.72358 0.7441 0.19604 0.0
S927 S 0.79659 0.77206 0.33864 0.0
N928 N 0.81402 0.77724 0.2936 0.0
N929 N 0.76164 0.75982 0.32733 0.0
C930 C 0.7629 0.75943 0.28515 0.0
C931 C 0.79137 0.76891 0.26679 0.0
C932 C 0.50977 0.49085 0.02997 0.0
C933 C 0.5044 0.46487 0.0049 0.0
C934 C 0.52021 0.51857 0.01291 0.0
C935 C 0.52576 0.5216 0.96996 0.0
H936 H 0.50553 0.49002 0.06311 0.0
H937 H 0.52366 0.53788 0.03371 0.0
S938 S 0.51652 0.46008 0.89068 0.0
N939 N 0.50636 0.44368 0.93479 0.0
N940 N 0.52593 0.49575 0.90282 0.0
C941 C 0.52103 0.49564 0.94454 0.0
C942 C 0.51039 0.46733 0.96194 0.0
C943 C 0.01346 0.48656 0.45252 0.0
C944 C 0.99453 0.46673 0.47553 0.0
C945 C 0.01839 0.51706 0.46544 0.0
C946 C 1.00476 0.52893 0.50205 0.0
H947 H 0.02385 0.4788 0.42364 0.0
H948 H 0.03237 0.53165 0.44589 0.0
S949 S 0.95618 0.48517 0.57611 0.0
N950 N 0.96415 0.46032 0.53857 0.0
N951 N 0.97356 0.51737 0.56291 0.0
C952 C 0.98694 0.50884 0.52635 0.0
C953 C 0.98178 0.47786 0.51307 0.0
C954 C 0.03392 0.49556 0.00297 0.0
C955 C 0.01086 0.4843 0.97641 0.0
C956 C 0.03714 0.52738 0.01 0.0
C957 C 0.01727 0.54936 -0.00894 0.0
H958 H 0.04994 0.4797 0.01808 0.0
H959 H 0.05565 0.53477 0.03015 0.0
S960 S 0.95179 0.53188 0.92063 0.0
N961 N 0.96692 0.49776 0.93235 0.0
N962 N 0.97287 0.55727 0.94567 0.0
C963 C 0.99361 0.53835 0.9652 0.0
C964 C 0.99047 0.50596 0.95782 0.0
C965 C 0.52039 0.4784 0.46905 0.0
C966 C 0.50207 0.46861 0.50258 0.0
C967 C 0.52405 0.50988 0.46023 0.0
C968 C 0.50949 0.53297 0.4845 0.0
H969 H 0.53231 0.46163 0.44956 0.0
H970 H 0.53884 0.51608 0.43448 0.0
S971 S 0.4575 0.5197 0.57453 0.0
N972 N 0.46818 0.48474 0.55929 0.0
N973 N 0.47492 0.54368 0.54268 0.0
C974 C 0.49055 0.52351 0.51763 0.0
C975 C 0.48691 0.49144 0.52669 0.0
C976 C 0.05226 0.28361 0.06748 0.0
C977 C 0.04792 0.31592 0.0702 0.0
C978 C 0.06618 0.26681 0.09954 0.0
C979 C 0.07663 0.28155 0.13548 0.0
H980 H 0.04381 0.27082 0.041 0.0
H981 H 0.06755 0.24186 0.09701 0.0
S982 S 0.07429 0.3657 0.15662 0.0
N983 N 0.05788 0.36227 0.11053 0.0
N984 N 0.08428 0.3303 0.17109 0.0
C985 C 0.07463 0.31394 0.13764 0.0
C986 C 0.06019 0.33123 0.1049 0.0
C987 C 0.94344 0.83844 0.31852 0.0
C988 C 0.95779 0.83576 0.27949 0.0
C989 C 0.96098 0.83852 0.35509 0.0
C990 C 0.99335 0.83497 0.35388 0.0
H991 H 0.9185 0.8406 0.32084 0.0
H992 H 0.94904 0.84043 0.38462 0.0
S993 S 0.04226 0.82765 0.25991 0.0
N994 N 0.0066 0.83069 0.24193 0.0
N995 N 0.03919 0.82915 0.311 0.0
C996 C 0.00803 0.83229 0.31525 0.0
C997 C 0.99033 0.83317 0.27794 0.0
C998 C 0.48571 0.704 0.6855 0.0
C999 C 0.45328 0.70524 0.6814 0.0
C1000 C 0.50428 0.6889 0.65625 0.0
C1001 C 0.49129 0.67438 0.62163 0.0
H1002 H 0.49712 0.71554 0.71098 0.0
H1003 H 0.52917 0.68984 0.65981 0.0
S1004 S 0.40757 0.66769 0.59872 0.0
N1005 N 0.40875 0.68807 0.64208 0.0
N1006 N 0.44393 0.65968 0.58648 0.0
C1007 C 0.45884 0.67344 0.6185 0.0
C1008 C 0.43976 0.68893 0.64852 0.0
C1009 C 0.5685 0.15377 0.83458 0.0
C1010 C 0.59292 0.17374 0.82492 0.0
C1011 C 0.56104 0.14674 0.87577 0.0
C1012 C 0.57754 0.15962 0.90886 0.0
H1013 H 0.55434 0.14414 0.81021 0.0
H1014 H 0.54132 0.13225 0.88167 0.0
S1015 S 0.64612 0.20982 0.90053 0.0
N1016 N 0.63554 0.20375 0.852 0.0
N1017 N 0.62144 0.19062 0.92944 0.0
C1018 C 0.60313 0.17815 0.8997 0.0
C1019 C 0.61086 0.18517 0.85773 0.0
C1020 C 0.07514 0.6478 0.36935 0.0
C1021 C 0.06714 0.67354 0.39401 0.0
C1022 C 0.09167 0.65127 0.3323 0.0
C1023 C 0.10138 0.68047 0.31894 0.0
H1024 H 0.06701 0.62502 0.37733 0.0
H1025 H 0.09528 0.63118 0.31267 0.0
S1026 S 0.0904 0.75459 0.37511 0.0
N1027 N 0.07321 0.72885 0.4047 0.0
N1028 N 0.10459 0.73513 0.33508 0.0
C1029 C 0.09591 0.70601 0.34497 0.0
C1030 C 0.07863 0.70261 0.38246 0.0
C1031 C 0.54575 0.76871 0.59162 0.0
C1032 C 0.56677 0.78191 0.61934 0.0
C1033 C 0.5342 0.78533 0.55782 0.0
C1034 C 0.54273 0.81614 0.55066 0.0
H1035 H 0.53758 0.74547 0.59658 0.0
H1036 H 0.51767 0.77406 0.53786 0.0
S1037 S 0.59826 0.86096 0.61331 0.0
N1038 N 0.59685 0.82708 0.6368 0.0
N1039 N 0.57461 0.85879 0.57316 0.0
C1040 C 0.56439 0.82947 0.57754 0.0
C1041 C 0.57661 0.81221 0.61184 0.0
C1042 C 0.43075 0.35322 0.83545 0.0
C1043 C 0.40942 0.33214 0.81923 0.0
C1044 C 0.43477 0.35664 0.87823 0.0
C1045 C 0.41777 0.33904 0.90658 0.0
H1046 H 0.44509 0.36672 0.81501 0.0
H1047 H 0.45216 0.37254 0.88901 0.0
S1048 S 0.3565 0.28306 0.88037 0.0
N1049 N 0.36924 0.29519 0.83498 0.0
N1050 N 0.37681 0.30161 0.91558 0.0
C1051 C 0.39525 0.31894 0.89092 0.0
C1052 C 0.39106 0.31554 0.84722 0.0
C1053 C 0.97446 0.23213 0.17338 0.0
C1054 C 0.94479 0.22072 0.18151 0.0
C1055 C 0.9924 0.22055 0.14087 0.0
C1056 C 0.98174 0.19681 0.11515 0.0
H1057 H 0.98393 0.25058 0.19197 0.0
H1058 H 0.01474 0.2307 0.13555 0.0
S1059 S 0.90599 0.15818 0.12377 0.0
N1060 N 0.90558 0.18389 0.16172 0.0
N1061 N 0.93968 0.16178 0.10018 0.0
C1062 C 0.95231 0.18467 0.12317 0.0
C1063 C 0.93372 0.19679 0.15633 0.0
C1064 C 0.97077 0.64488 0.8328 0.0
C1065 C 0.98091 0.67384 0.84659 0.0
C1066 C 0.95067 0.64245 0.7988 0.0
C1067 C 0.93917 0.66894 0.77835 0.0
H1068 H 0.97872 0.6239 0.84804 0.0
H1069 H 0.94414 0.61968 0.78836 0.0
S1070 S 0.95822 0.75019 0.80244 0.0
N1071 N 0.97788 0.72962 0.83693 0.0
N1072 N 0.93945 0.72494 0.77395 0.0
C1073 C 0.94868 0.69803 0.79221 0.0
C1074 C 0.96975 0.7005 0.82606 0.0
C1075 C 0.0724 0.15099 0.65543 0.0
C1076 C 0.095 0.17256 0.66664 0.0
C1077 C 0.06685 0.14371 0.61378 0.0
C1078 C 0.08341 0.15808 0.5819 0.0
H1079 H 0.05811 0.14038 0.67893 0.0
H1080 H 0.04828 0.1281 0.60649 0.0
S1081 S 0.14789 0.21282 0.59467 0.0
N1082 N 0.13631 0.20559 0.64252 0.0
N1083 N 0.1256 0.19216 0.56411 0.0
C1084 C 0.10741 0.17812 0.59269 0.0
C1085 C 0.11332 0.18527 0.63512 0.0
C1086 C 0.55554 0.28285 0.4087 0.0
C1087 C 0.53053 0.30373 0.40415 0.0
C1088 C 0.56649 0.2655 0.37486 0.0
C1089 C 0.55199 0.26796 0.33603 0.0
H1090 H 0.56603 0.27922 0.43891 0.0
H1091 H 0.58527 0.24901 0.37958 0.0
S1092 S 0.48674 0.32049 0.30788 0.0
N1093 N 0.49276 0.3272 0.35772 0.0
N1094 N 0.51264 0.29393 0.29418 0.0
C1095 C 0.52761 0.28947 0.33086 0.0
C1096 C 0.51703 0.30762 0.36499 0.0
C1097 C 0.44415 0.84443 0.10653 0.0
C1098 C 0.42892 0.8239 0.08003 0.0
C1099 C 0.44112 0.84222 0.1496 0.0
C1100 C 0.42236 0.81969 0.16794 0.0
H1101 H 0.45907 0.86201 0.094 0.0
H1102 H 0.45366 0.85839 0.16868 0.0
S1103 S 0.37611 0.76145 0.11219 0.0
N1104 N 0.39347 0.78091 0.075 0.0
N1105 N 0.38747 0.77709 0.15629 0.0
C1106 C 0.40631 0.79951 0.14184 0.0
C1107 C 0.40971 0.80149 0.09782 0.0
C1108 C 0.90278 0.32351 0.60739 0.0
C1109 C 0.92228 0.34473 0.58772 0.0
C1110 C 0.8993 0.32325 0.65055 0.0
C1111 C 0.91548 0.34395 0.6758 0.0
H1112 H 0.89014 0.30677 0.58938 0.0
H1113 H 0.88441 0.30611 0.66421 0.0
S1114 S 0.96825 0.40523 0.63965 0.0
N1115 N 0.957 0.38791 0.59667 0.0
N1116 N 0.95072 0.38722 0.678 0.0
C1117 C 0.93457 0.36577 0.65656 0.0
C1118 C 0.93788 0.36624 0.61247 0.0
C1119 C 0.45678 0.24748 0.35911 0.0
C1120 C 0.45507 0.2315 0.32138 0.0
C1121 C 0.47631 0.23686 0.3908 0.0
C1122 C 0.49423 0.20964 0.38596 0.0
H1123 H 0.4441 0.26905 0.36338 0.0
H1124 H 0.47753 0.25016 0.41925 0.0
S1125 S 0.49694 0.15919 0.29311 0.0
N1126 N 0.47244 0.18734 0.28055 0.0
N1127 N 0.5083 0.16654 0.34107 0.0
C1128 C 0.49187 0.19292 0.34884 0.0
C1129 C 0.47252 0.20415 0.31621 0.0
C1130 C 0.61958 0.67957 0.08496 0.0
C1131 C 0.59832 0.65693 0.07295 0.0
C1132 C 0.62374 0.68723 0.12675 0.0
C1133 C 0.60648 0.67277 0.15791 0.0
H1134 H 0.63209 0.69253 0.06178 0.0
H1135 H 0.63913 0.70589 0.13439 0.0
S1136 S 0.55185 0.6084 0.14365 0.0
N1137 N 0.56289 0.61735 0.09611 0.0
N1138 N 0.57052 0.63197 0.17478 0.0
C1139 C 0.58701 0.64842 0.1467 0.0
C1140 C 0.58302 0.64037 0.10415 0.0
C1141 C 0.07041 0.80085 0.85756 0.0
C1142 C 0.07558 0.82464 0.82893 0.0
C1143 C 0.0531 0.80644 0.89369 0.0
C1144 C 0.0409 0.8361 0.9026 0.0
H1145 H 0.07789 0.7774 0.8506 0.0
H1146 H 0.04856 0.7872 0.91422 0.0
S1147 S 0.05095 0.90667 0.83904 0.0
N1148 N 0.06912 0.87911 0.8127 0.0
N1149 N 0.03743 0.88996 0.88128 0.0
C1150 C 0.04775 0.86045 0.87544 0.0
C1151 C 0.06487 0.85461 0.83837 0.0
loop_
_geom_bond_atom_site_label_1
_geom_bond_atom_site_label_2
_geom_bond_distance
_geom_bond_site_symmetry_2
_ccdc_geom_bond_type
Zn0 O3 2.031 . S
Zn0 O5 2.049 . S
Zn0 O10 2.067 . S
Zn1 O2 1.962 . S
Zn1 O4 1.986 . S
Zn1 O6 1.996 . S
Zn1 O9 1.943 . S
O2 Zn1 1.962 . S
O2 C7 1.254 . S
O3 Zn0 2.031 . S
O3 C7 1.269 . S
O4 Zn1 1.986 . S
O4 C11 1.262 . S
O5 Zn0 2.049 . S
O5 C13 1.260 . S
O6 Zn1 1.996 . S
O6 C13 1.257 . S
C7 O2 1.254 . S
C7 O3 1.269 . S
C8 O9 1.249 . S
C8 O10 1.270 . S
O9 Zn1 1.943 . S
O9 C8 1.249 . S
O10 Zn0 2.067 . S
O10 C8 1.270 . S
C11 O4 1.262 . S
C11 O12 1.232 . S
O12 C11 1.232 . S
C13 O5 1.260 . S
C13 O6 1.257 . S
Zn14 O17 2.031 1_655 S
Zn14 O19 2.049 . S
Zn14 O24 2.067 . S
Zn15 O16 1.962 1_655 S
Zn15 O18 1.986 . S
Zn15 O20 1.996 . S
Zn15 O23 1.943 . S
O16 Zn15 1.962 1_455 S
O16 C21 1.254 . S
O17 Zn14 2.031 1_455 S
O17 C21 1.269 . S
O18 Zn15 1.986 . S
O18 C25 1.262 . S
O19 Zn14 2.049 . S
O19 C27 1.260 . S
O20 Zn15 1.996 . S
O20 C27 1.257 . S
C21 O16 1.254 . S
C21 O17 1.269 . S
C22 O23 1.249 . S
C22 O24 1.270 . S
O23 Zn15 1.943 . S
O23 C22 1.249 . S
O24 Zn14 2.067 . S
O24 C22 1.270 . S
C25 O18 1.262 . S
C25 O26 1.232 . S
O26 C25 1.232 . S
C27 O19 1.260 . S
C27 O20 1.257 . S
Zn28 O31 2.031 . S
Zn28 O33 2.049 . S
Zn28 O38 2.067 . S
Zn29 O30 1.962 . S
Zn29 O32 1.986 . S
Zn29 O34 1.996 . S
Zn29 O37 1.943 . S
O30 Zn29 1.962 . S
O30 C35 1.254 . S
O31 Zn28 2.031 . S
O31 C35 1.269 . S
O32 Zn29 1.986 . S
O32 C39 1.262 . S
O33 Zn28 2.049 . S
O33 C41 1.260 . S
O34 Zn29 1.996 . S
O34 C41 1.257 . S
C35 O30 1.254 . S
C35 O31 1.269 . S
C36 O37 1.249 . S
C36 O38 1.270 . S
O37 Zn29 1.943 . S
O37 C36 1.249 . S
O38 Zn28 2.067 . S
O38 C36 1.270 . S
C39 O32 1.262 . S
C39 O40 1.232 . S
O40 C39 1.232 . S
C41 O33 1.260 . S
C41 O34 1.257 . S
Zn42 O45 2.031 . S
Zn42 O47 2.049 1_554 S
Zn42 O52 2.067 . S
Zn43 O44 1.962 . S
Zn43 O46 1.986 1_554 S
Zn43 O48 1.996 1_554 S
Zn43 O51 1.943 . S
O44 Zn43 1.962 . S
O44 C49 1.254 . S
O45 Zn42 2.031 . S
O45 C49 1.269 . S
O46 Zn43 1.986 1_556 S
O46 C53 1.262 1_556 S
O47 Zn42 2.049 1_556 S
O47 C55 1.260 . S
O48 Zn43 1.996 1_556 S
O48 C55 1.257 . S
C49 O44 1.254 . S
C49 O45 1.269 . S
C50 O51 1.249 . S
C50 O52 1.270 . S
O51 Zn43 1.943 . S
O51 C50 1.249 . S
O52 Zn42 2.067 . S
O52 C50 1.270 . S
C53 O46 1.262 1_554 S
C53 O54 1.232 . S
O54 C53 1.232 . S
C55 O47 1.260 . S
C55 O48 1.257 . S
Zn56 O59 2.031 . S
Zn56 O61 2.049 . S
Zn56 O66 2.067 . S
Zn57 O58 1.962 . S
Zn57 O60 1.986 . S
Zn57 O62 1.996 . S
Zn57 O65 1.943 . S
O58 Zn57 1.962 . S
O58 C63 1.254 . S
O59 Zn56 2.031 . S
O59 C63 1.269 . S
O60 Zn57 1.986 . S
O60 C67 1.262 . S
O61 Zn56 2.049 . S
O61 C69 1.260 . S
O62 Zn57 1.996 . S
O62 C69 1.257 . S
C63 O58 1.254 . S
C63 O59 1.269 . S
C64 O65 1.249 . S
C64 O66 1.270 . S
O65 Zn57 1.943 . S
O65 C64 1.249 . S
O66 Zn56 2.067 . S
O66 C64 1.270 . S
C67 O60 1.262 . S
C67 O68 1.232 . S
O68 C67 1.232 . S
C69 O61 1.260 . S
C69 O62 1.257 . S
Zn70 O73 2.031 . S
Zn70 O75 2.049 . S
Zn70 O80 2.067 . S
Zn71 O72 1.962 . S
Zn71 O74 1.986 . S
Zn71 O76 1.996 . S
Zn71 O79 1.943 . S
O72 Zn71 1.962 . S
O72 C77 1.254 . S
O73 Zn70 2.031 . S
O73 C77 1.269 . S
O74 Zn71 1.986 . S
O74 C81 1.262 . S
O75 Zn70 2.049 . S
O75 C83 1.260 . S
O76 Zn71 1.996 . S
O76 C83 1.257 . S
C77 O72 1.254 . S
C77 O73 1.269 . S
C78 O79 1.249 . S
C78 O80 1.270 . S
O79 Zn71 1.943 . S
O79 C78 1.249 . S
O80 Zn70 2.067 . S
O80 C78 1.270 . S
C81 O74 1.262 . S
C81 O82 1.232 . S
O82 C81 1.232 . S
C83 O75 1.260 . S
C83 O76 1.257 . S
Zn84 O87 2.031 . S
Zn84 O89 2.049 . S
Zn84 O94 2.067 . S
Zn85 O86 1.962 . S
Zn85 O88 1.986 . S
Zn85 O90 1.996 . S
Zn85 O93 1.943 . S
O86 Zn85 1.962 . S
O86 C91 1.254 . S
O87 Zn84 2.031 . S
O87 C91 1.269 . S
O88 Zn85 1.986 . S
O88 C95 1.262 . S
O89 Zn84 2.049 . S
O89 C97 1.260 . S
O90 Zn85 1.996 . S
O90 C97 1.257 . S
C91 O86 1.254 . S
C91 O87 1.269 . S
C92 O93 1.249 . S
C92 O94 1.270 . S
O93 Zn85 1.943 . S
O93 C92 1.249 . S
O94 Zn84 2.067 . S
O94 C92 1.270 . S
C95 O88 1.262 . S
C95 O96 1.232 . S
O96 C95 1.232 . S
C97 O89 1.260 . S
C97 O90 1.257 . S
Zn98 O101 2.031 1_655 S
Zn98 O103 2.049 1_556 S
Zn98 O108 2.067 . S
Zn99 O100 1.962 1_655 S
Zn99 O102 1.986 1_556 S
Zn99 O104 1.996 1_556 S
Zn99 O107 1.943 . S
O100 Zn99 1.962 1_455 S
O100 C105 1.254 . S
O101 Zn98 2.031 1_455 S
O101 C105 1.269 . S
O102 Zn99 1.986 1_554 S
O102 C109 1.262 1_554 S
O103 Zn98 2.049 1_554 S
O103 C111 1.260 . S
O104 Zn99 1.996 1_554 S
O104 C111 1.257 . S
C105 O100 1.254 . S
C105 O101 1.269 . S
C106 O107 1.249 . S
C106 O108 1.270 . S
O107 Zn99 1.943 . S
O107 C106 1.249 . S
O108 Zn98 2.067 . S
O108 C106 1.270 . S
C109 O102 1.262 1_556 S
C109 O110 1.232 . S
O110 C109 1.232 . S
C111 O103 1.260 . S
C111 O104 1.257 . S
Zn112 O115 2.031 . S
Zn112 O117 2.049 . S
Zn112 O122 2.067 . S
Zn113 O114 1.962 . S
Zn113 O116 1.986 . S
Zn113 O118 1.996 . S
Zn113 O121 1.943 . S
O114 Zn113 1.962 . S
O114 C119 1.254 . S
O115 Zn112 2.031 . S
O115 C119 1.269 . S
O116 Zn113 1.986 . S
O116 C123 1.262 . S
O117 Zn112 2.049 . S
O117 C125 1.260 . S
O118 Zn113 1.996 . S
O118 C125 1.257 . S
C119 O114 1.254 . S
C119 O115 1.269 . S
C120 O121 1.249 . S
C120 O122 1.270 . S
O121 Zn113 1.943 . S
O121 C120 1.249 . S
O122 Zn112 2.067 . S
O122 C120 1.270 . S
C123 O116 1.262 . S
C123 O124 1.232 . S
O124 C123 1.232 . S
C125 O117 1.260 . S
C125 O118 1.257 . S
Zn126 O129 2.031 1_455 S
Zn126 O131 2.049 . S
Zn126 O136 2.067 . S
Zn127 O128 1.962 1_455 S
Zn127 O130 1.986 . S
Zn127 O132 1.996 . S
Zn127 O135 1.943 . S
O128 Zn127 1.962 1_655 S
O128 C133 1.254 . S
O129 Zn126 2.031 1_655 S
O129 C133 1.269 . S
O130 Zn127 1.986 . S
O130 C137 1.262 . S
O131 Zn126 2.049 . S
O131 C139 1.260 . S
O132 Zn127 1.996 . S
O132 C139 1.257 . S
C133 O128 1.254 . S
C133 O129 1.269 . S
C134 O135 1.249 . S
C134 O136 1.270 . S
O135 Zn127 1.943 . S
O135 C134 1.249 . S
O136 Zn126 2.067 . S
O136 C134 1.270 . S
C137 O130 1.262 . S
C137 O138 1.232 . S
O138 C137 1.232 . S
C139 O131 1.260 . S
C139 O132 1.257 . S
Zn140 O143 2.031 . S
Zn140 O145 2.049 . S
Zn140 O150 2.067 . S
Zn141 O142 1.962 . S
Zn141 O144 1.986 . S
Zn141 O146 1.996 . S
Zn141 O149 1.943 . S
O142 Zn141 1.962 . S
O142 C147 1.254 . S
O143 Zn140 2.031 . S
O143 C147 1.269 . S
O144 Zn141 1.986 . S
O144 C151 1.262 . S
O145 Zn140 2.049 . S
O145 C153 1.260 . S
O146 Zn141 1.996 . S
O146 C153 1.257 . S
C147 O142 1.254 . S
C147 O143 1.269 . S
C148 O149 1.249 . S
C148 O150 1.270 . S
O149 Zn141 1.943 . S
O149 C148 1.249 . S
O150 Zn140 2.067 . S
O150 C148 1.270 . S
C151 O144 1.262 . S
C151 O152 1.232 . S
O152 C151 1.232 . S
C153 O145 1.260 . S
C153 O146 1.257 . S
Zn154 O157 2.031 . S
Zn154 O159 2.049 1_556 S
Zn154 O164 2.067 . S
Zn155 O156 1.962 . S
Zn155 O158 1.986 1_556 S
Zn155 O160 1.996 1_556 S
Zn155 O163 1.943 . S
O156 Zn155 1.962 . S
O156 C161 1.254 . S
O157 Zn154 2.031 . S
O157 C161 1.269 . S
O158 Zn155 1.986 1_554 S
O158 C165 1.262 1_554 S
O159 Zn154 2.049 1_554 S
O159 C167 1.260 . S
O160 Zn155 1.996 1_554 S
O160 C167 1.257 . S
C161 O156 1.254 . S
C161 O157 1.269 . S
C162 O163 1.249 . S
C162 O164 1.270 . S
O163 Zn155 1.943 . S
O163 C162 1.249 . S
O164 Zn154 2.067 . S
O164 C162 1.270 . S
C165 O158 1.262 1_556 S
C165 O166 1.232 . S
O166 C165 1.232 . S
C167 O159 1.260 . S
C167 O160 1.257 . S
Zn168 O171 2.031 . S
Zn168 O173 2.049 . S
Zn168 O178 2.067 . S
Zn169 O170 1.962 . S
Zn169 O172 1.986 . S
Zn169 O174 1.996 . S
Zn169 O177 1.943 . S
O170 Zn169 1.962 . S
O170 C175 1.254 . S
O171 Zn168 2.031 . S
O171 C175 1.269 . S
O172 Zn169 1.986 . S
O172 C179 1.262 . S
O173 Zn168 2.049 . S
O173 C181 1.260 . S
O174 Zn169 1.996 . S
O174 C181 1.257 . S
C175 O170 1.254 . S
C175 O171 1.269 . S
C176 O177 1.249 . S
C176 O178 1.270 . S
O177 Zn169 1.943 . S
O177 C176 1.249 . S
O178 Zn168 2.067 . S
O178 C176 1.270 . S
C179 O172 1.262 . S
C179 O180 1.232 . S
O180 C179 1.232 . S
C181 O173 1.260 . S
C181 O174 1.257 . S
Zn182 O185 2.031 . S
Zn182 O187 2.049 . S
Zn182 O192 2.067 . S
Zn183 O184 1.962 . S
Zn183 O186 1.986 . S
Zn183 O188 1.996 . S
Zn183 O191 1.943 . S
O184 Zn183 1.962 . S
O184 C189 1.254 . S
O185 Zn182 2.031 . S
O185 C189 1.269 . S
O186 Zn183 1.986 . S
O186 C193 1.262 . S
O187 Zn182 2.049 . S
O187 C195 1.260 . S
O188 Zn183 1.996 . S
O188 C195 1.257 . S
C189 O184 1.254 . S
C189 O185 1.269 . S
C190 O191 1.249 . S
C190 O192 1.270 . S
O191 Zn183 1.943 . S
O191 C190 1.249 . S
O192 Zn182 2.067 . S
O192 C190 1.270 . S
C193 O186 1.262 . S
C193 O194 1.232 . S
O194 C193 1.232 . S
C195 O187 1.260 . S
C195 O188 1.257 . S
Zn196 O199 2.031 . S
Zn196 O201 2.049 . S
Zn196 O206 2.067 . S
Zn197 O198 1.962 . S
Zn197 O200 1.986 . S
Zn197 O202 1.996 . S
Zn197 O205 1.943 . S
O198 Zn197 1.962 . S
O198 C203 1.254 . S
O199 Zn196 2.031 . S
O199 C203 1.269 . S
O200 Zn197 1.986 . S
O200 C207 1.262 . S
O201 Zn196 2.049 . S
O201 C209 1.260 . S
O202 Zn197 1.996 . S
O202 C209 1.257 . S
C203 O198 1.254 . S
C203 O199 1.269 . S
C204 O205 1.249 . S
C204 O206 1.270 . S
O205 Zn197 1.943 . S
O205 C204 1.249 . S
O206 Zn196 2.067 . S
O206 C204 1.270 . S
C207 O200 1.262 . S
C207 O208 1.232 . S
O208 C207 1.232 . S
C209 O201 1.260 . S
C209 O202 1.257 . S
Zn210 O213 2.031 1_455 S
Zn210 O215 2.049 1_554 S
Zn210 O220 2.067 . S
Zn211 O212 1.962 1_455 S
Zn211 O214 1.986 1_554 S
Zn211 O216 1.996 1_554 S
Zn211 O219 1.943 . S
O212 Zn211 1.962 1_655 S
O212 C217 1.254 . S
O213 Zn210 2.031 1_655 S
O213 C217 1.269 . S
O214 Zn211 1.986 1_556 S
O214 C221 1.262 1_556 S
O215 Zn210 2.049 1_556 S
O215 C223 1.260 . S
O216 Zn211 1.996 1_556 S
O216 C223 1.257 . S
C217 O212 1.254 . S
C217 O213 1.269 . S
C218 O219 1.249 . S
C218 O220 1.270 . S
O219 Zn211 1.943 . S
O219 C218 1.249 . S
O220 Zn210 2.067 . S
O220 C218 1.270 . S
C221 O214 1.262 1_554 S
C221 O222 1.232 . S
O222 C221 1.232 . S
C223 O215 1.260 . S
C223 O216 1.257 . S
Zn224 O227 2.031 . S
Zn224 O229 2.049 . S
Zn224 O234 2.067 . S
Zn225 O226 1.962 . S
Zn225 O228 1.986 . S
Zn225 O230 1.996 . S
Zn225 O233 1.943 . S
O226 Zn225 1.962 . S
O226 C231 1.254 . S
O227 Zn224 2.031 . S
O227 C231 1.269 . S
O228 Zn225 1.986 . S
O228 C235 1.262 . S
O229 Zn224 2.049 . S
O229 C237 1.260 . S
O230 Zn225 1.996 . S
O230 C237 1.257 . S
C231 O226 1.254 . S
C231 O227 1.269 . S
C232 O233 1.249 . S
C232 O234 1.270 . S
O233 Zn225 1.943 . S
O233 C232 1.249 . S
O234 Zn224 2.067 . S
O234 C232 1.270 . S
C235 O228 1.262 . S
C235 O236 1.232 . S
O236 C235 1.232 . S
C237 O229 1.260 . S
C237 O230 1.257 . S
Zn238 O241 2.031 . S
Zn238 O243 2.049 1_554 S
Zn238 O248 2.067 . S
Zn239 O240 1.962 . S
Zn239 O242 1.986 1_554 S
Zn239 O244 1.996 1_554 S
Zn239 O247 1.943 . S
O240 Zn239 1.962 . S
O240 C245 1.254 . S
O241 Zn238 2.031 . S
O241 C245 1.269 . S
O242 Zn239 1.986 1_556 S
O242 C249 1.262 1_556 S
O243 Zn238 2.049 1_556 S
O243 C251 1.260 . S
O244 Zn239 1.996 1_556 S
O244 C251 1.257 . S
C245 O240 1.254 . S
C245 O241 1.269 . S
C246 O247 1.249 . S
C246 O248 1.270 . S
O247 Zn239 1.943 . S
O247 C246 1.249 . S
O248 Zn238 2.067 . S
O248 C246 1.270 . S
C249 O242 1.262 1_554 S
C249 O250 1.232 . S
O250 C249 1.232 . S
C251 O243 1.260 . S
C251 O244 1.257 . S
Zn252 O255 2.031 . S
Zn252 O257 2.049 . S
Zn252 O262 2.067 . S
Zn253 O254 1.962 . S
Zn253 O256 1.986 . S
Zn253 O258 1.996 . S
Zn253 O261 1.943 . S
O254 Zn253 1.962 . S
O254 C259 1.254 . S
O255 Zn252 2.031 . S
O255 C259 1.269 . S
O256 Zn253 1.986 . S
O256 C263 1.262 . S
O257 Zn252 2.049 . S
O257 C265 1.260 . S
O258 Zn253 1.996 . S
O258 C265 1.257 . S
C259 O254 1.254 . S
C259 O255 1.269 . S
C260 O261 1.249 . S
C260 O262 1.270 . S
O261 Zn253 1.943 . S
O261 C260 1.249 . S
O262 Zn252 2.067 . S
O262 C260 1.270 . S
C263 O256 1.262 . S
C263 O264 1.232 . S
O264 C263 1.232 . S
C265 O257 1.260 . S
C265 O258 1.257 . S
Zn266 O269 2.031 1_455 S
Zn266 O271 2.049 . S
Zn266 O276 2.067 . S
Zn267 O268 1.962 1_455 S
Zn267 O270 1.986 . S
Zn267 O272 1.996 . S
Zn267 O275 1.943 . S
O268 Zn267 1.962 1_655 S
O268 C273 1.254 . S
O269 Zn266 2.031 1_655 S
O269 C273 1.269 . S
O270 Zn267 1.986 . S
O270 C277 1.262 . S
O271 Zn266 2.049 . S
O271 C279 1.260 . S
O272 Zn267 1.996 . S
O272 C279 1.257 . S
C273 O268 1.254 . S
C273 O269 1.269 . S
C274 O275 1.249 . S
C274 O276 1.270 . S
O275 Zn267 1.943 . S
O275 C274 1.249 . S
O276 Zn266 2.067 . S
O276 C274 1.270 . S
C277 O270 1.262 . S
C277 O278 1.232 . S
O278 C277 1.232 . S
C279 O271 1.260 . S
C279 O272 1.257 . S
Zn280 O283 2.031 . S
Zn280 O285 2.049 . S
Zn280 O290 2.067 . S
Zn281 O282 1.962 . S
Zn281 O284 1.986 . S
Zn281 O286 1.996 . S
Zn281 O289 1.943 . S
O282 Zn281 1.962 . S
O282 C287 1.254 . S
O283 Zn280 2.031 . S
O283 C287 1.269 . S
O284 Zn281 1.986 . S
O284 C291 1.262 . S
O285 Zn280 2.049 . S
O285 C293 1.260 . S
O286 Zn281 1.996 . S
O286 C293 1.257 . S
C287 O282 1.254 . S
C287 O283 1.269 . S
C288 O289 1.249 . S
C288 O290 1.270 . S
O289 Zn281 1.943 . S
O289 C288 1.249 . S
O290 Zn280 2.067 . S
O290 C288 1.270 . S
C291 O284 1.262 . S
C291 O292 1.232 . S
O292 C291 1.232 . S
C293 O285 1.260 . S
C293 O286 1.257 . S
Zn294 O297 2.031 1_455 S
Zn294 O299 2.049 1_556 S
Zn294 O304 2.067 . S
Zn295 O296 1.962 1_455 S
Zn295 O298 1.986 1_556 S
Zn295 O300 1.996 1_556 S
Zn295 O303 1.943 . S
O296 Zn295 1.962 1_655 S
O296 C301 1.254 . S
O297 Zn294 2.031 1_655 S
O297 C301 1.269 . S
O298 Zn295 1.986 1_554 S
O298 C305 1.262 1_554 S
O299 Zn294 2.049 1_554 S
O299 C307 1.260 . S
O300 Zn295 1.996 1_554 S
O300 C307 1.257 . S
C301 O296 1.254 . S
C301 O297 1.269 . S
C302 O303 1.249 . S
C302 O304 1.270 . S
O303 Zn295 1.943 . S
O303 C302 1.249 . S
O304 Zn294 2.067 . S
O304 C302 1.270 . S
C305 O298 1.262 1_556 S
C305 O306 1.232 . S
O306 C305 1.232 . S
C307 O299 1.260 . S
C307 O300 1.257 . S
Zn308 O311 2.031 . S
Zn308 O313 2.049 . S
Zn308 O318 2.067 . S
Zn309 O310 1.962 . S
Zn309 O312 1.986 . S
Zn309 O314 1.996 . S
Zn309 O317 1.943 . S
O310 Zn309 1.962 . S
O310 C315 1.254 . S
O311 Zn308 2.031 . S
O311 C315 1.269 . S
O312 Zn309 1.986 . S
O312 C319 1.262 . S
O313 Zn308 2.049 . S
O313 C321 1.260 . S
O314 Zn309 1.996 . S
O314 C321 1.257 . S
C315 O310 1.254 . S
C315 O311 1.269 . S
C316 O317 1.249 . S
C316 O318 1.270 . S
O317 Zn309 1.943 . S
O317 C316 1.249 . S
O318 Zn308 2.067 . S
O318 C316 1.270 . S
C319 O312 1.262 . S
C319 O320 1.232 . S
O320 C319 1.232 . S
C321 O313 1.260 . S
C321 O314 1.257 . S
Zn322 O325 2.031 . S
Zn322 O327 2.049 . S
Zn322 O332 2.067 . S
Zn323 O324 1.962 . S
Zn323 O326 1.986 . S
Zn323 O328 1.996 . S
Zn323 O331 1.943 . S
O324 Zn323 1.962 . S
O324 C329 1.254 . S
O325 Zn322 2.031 . S
O325 C329 1.269 . S
O326 Zn323 1.986 . S
O326 C333 1.262 . S
O327 Zn322 2.049 . S
O327 C335 1.260 . S
O328 Zn323 1.996 . S
O328 C335 1.257 . S
C329 O324 1.254 . S
C329 O325 1.269 . S
C330 O331 1.249 . S
C330 O332 1.270 . S
O331 Zn323 1.943 . S
O331 C330 1.249 . S
O332 Zn322 2.067 . S
O332 C330 1.270 . S
C333 O326 1.262 . S
C333 O334 1.232 . S
O334 C333 1.232 . S
C335 O327 1.260 . S
C335 O328 1.257 . S
Zn336 O339 2.031 . S
Zn336 O341 2.049 . S
Zn336 O346 2.067 . S
Zn337 O338 1.962 . S
Zn337 O340 1.986 . S
Zn337 O342 1.996 . S
Zn337 O345 1.943 . S
O338 Zn337 1.962 . S
O338 C343 1.254 . S
O339 Zn336 2.031 . S
O339 C343 1.269 . S
O340 Zn337 1.986 . S
O340 C347 1.262 . S
O341 Zn336 2.049 . S
O341 C349 1.260 . S
O342 Zn337 1.996 . S
O342 C349 1.257 . S
C343 O338 1.254 . S
C343 O339 1.269 . S
C344 O345 1.249 . S
C344 O346 1.270 . S
O345 Zn337 1.943 . S
O345 C344 1.249 . S
O346 Zn336 2.067 . S
O346 C344 1.270 . S
C347 O340 1.262 . S
C347 O348 1.232 . S
O348 C347 1.232 . S
C349 O341 1.260 . S
C349 O342 1.257 . S
Zn350 O353 2.031 . S
Zn350 O355 2.049 1_556 S
Zn350 O360 2.067 . S
Zn351 O352 1.962 . S
Zn351 O354 1.986 1_556 S
Zn351 O356 1.996 1_556 S
Zn351 O359 1.943 . S
O352 Zn351 1.962 . S
O352 C357 1.254 . S
O353 Zn350 2.031 . S
O353 C357 1.269 . S
O354 Zn351 1.986 1_554 S
O354 C361 1.262 1_554 S
O355 Zn350 2.049 1_554 S
O355 C363 1.260 . S
O356 Zn351 1.996 1_554 S
O356 C363 1.257 . S
C357 O352 1.254 . S
C357 O353 1.269 . S
C358 O359 1.249 . S
C358 O360 1.270 . S
O359 Zn351 1.943 . S
O359 C358 1.249 . S
O360 Zn350 2.067 . S
O360 C358 1.270 . S
C361 O354 1.262 1_556 S
C361 O362 1.232 . S
O362 C361 1.232 . S
C363 O355 1.260 . S
C363 O356 1.257 . S
Zn364 O367 2.031 . S
Zn364 O369 2.049 . S
Zn364 O374 2.067 . S
Zn365 O366 1.962 . S
Zn365 O368 1.986 . S
Zn365 O370 1.996 . S
Zn365 O373 1.943 . S
O366 Zn365 1.962 . S
O366 C371 1.254 . S
O367 Zn364 2.031 . S
O367 C371 1.269 . S
O368 Zn365 1.986 . S
O368 C375 1.262 . S
O369 Zn364 2.049 . S
O369 C377 1.260 . S
O370 Zn365 1.996 . S
O370 C377 1.257 . S
C371 O366 1.254 . S
C371 O367 1.269 . S
C372 O373 1.249 . S
C372 O374 1.270 . S
O373 Zn365 1.943 . S
O373 C372 1.249 . S
O374 Zn364 2.067 . S
O374 C372 1.270 . S
C375 O368 1.262 . S
C375 O376 1.232 . S
O376 C375 1.232 . S
C377 O369 1.260 . S
C377 O370 1.257 . S
Zn378 O381 2.031 1_655 S
Zn378 O383 2.049 . S
Zn378 O388 2.067 . S
Zn379 O380 1.962 1_655 S
Zn379 O382 1.986 . S
Zn379 O384 1.996 . S
Zn379 O387 1.943 . S
O380 Zn379 1.962 1_455 S
O380 C385 1.254 . S
O381 Zn378 2.031 1_455 S
O381 C385 1.269 . S
O382 Zn379 1.986 . S
O382 C389 1.262 . S
O383 Zn378 2.049 . S
O383 C391 1.260 . S
O384 Zn379 1.996 . S
O384 C391 1.257 . S
C385 O380 1.254 . S
C385 O381 1.269 . S
C386 O387 1.249 . S
C386 O388 1.270 . S
O387 Zn379 1.943 . S
O387 C386 1.249 . S
O388 Zn378 2.067 . S
O388 C386 1.270 . S
C389 O382 1.262 . S
C389 O390 1.232 . S
O390 C389 1.232 . S
C391 O383 1.260 . S
C391 O384 1.257 . S
Zn392 O395 2.031 . S
Zn392 O397 2.049 . S
Zn392 O402 2.067 . S
Zn393 O394 1.962 . S
Zn393 O396 1.986 . S
Zn393 O398 1.996 . S
Zn393 O401 1.943 . S
O394 Zn393 1.962 . S
O394 C399 1.254 . S
O395 Zn392 2.031 . S
O395 C399 1.269 . S
O396 Zn393 1.986 . S
O396 C403 1.262 . S
O397 Zn392 2.049 . S
O397 C405 1.260 . S
O398 Zn393 1.996 . S
O398 C405 1.257 . S
C399 O394 1.254 . S
C399 O395 1.269 . S
C400 O401 1.249 . S
C400 O402 1.270 . S
O401 Zn393 1.943 . S
O401 C400 1.249 . S
O402 Zn392 2.067 . S
O402 C400 1.270 . S
C403 O396 1.262 . S
C403 O404 1.232 . S
O404 C403 1.232 . S
C405 O397 1.260 . S
C405 O398 1.257 . S
Zn406 O409 2.031 1_655 S
Zn406 O411 2.049 1_554 S
Zn406 O416 2.067 . S
Zn407 O408 1.962 1_655 S
Zn407 O410 1.986 1_554 S
Zn407 O412 1.996 1_554 S
Zn407 O415 1.943 . S
O408 Zn407 1.962 1_455 S
O408 C413 1.254 . S
O409 Zn406 2.031 1_455 S
O409 C413 1.269 . S
O410 Zn407 1.986 1_556 S
O410 C417 1.262 1_556 S
O411 Zn406 2.049 1_556 S
O411 C419 1.260 . S
O412 Zn407 1.996 1_556 S
O412 C419 1.257 . S
C413 O408 1.254 . S
C413 O409 1.269 . S
C414 O415 1.249 . S
C414 O416 1.270 . S
O415 Zn407 1.943 . S
O415 C414 1.249 . S
O416 Zn406 2.067 . S
O416 C414 1.270 . S
C417 O410 1.262 1_554 S
C417 O418 1.232 . S
O418 C417 1.232 . S
C419 O411 1.260 . S
C419 O412 1.257 . S
Zn420 O423 2.031 . S
Zn420 O425 2.049 . S
Zn420 O430 2.067 . S
Zn421 O422 1.962 . S
Zn421 O424 1.986 . S
Zn421 O426 1.996 . S
Zn421 O429 1.943 . S
O422 Zn421 1.962 . S
O422 C427 1.254 . S
O423 Zn420 2.031 . S
O423 C427 1.269 . S
O424 Zn421 1.986 . S
O424 C431 1.262 . S
O425 Zn420 2.049 . S
O425 C433 1.260 . S
O426 Zn421 1.996 . S
O426 C433 1.257 . S
C427 O422 1.254 . S
C427 O423 1.269 . S
C428 O429 1.249 . S
C428 O430 1.270 . S
O429 Zn421 1.943 . S
O429 C428 1.249 . S
O430 Zn420 2.067 . S
O430 C428 1.270 . S
C431 O424 1.262 . S
C431 O432 1.232 . S
O432 C431 1.232 . S
C433 O425 1.260 . S
C433 O426 1.257 . S
Zn434 O437 2.031 . S
Zn434 O439 2.049 . S
Zn434 O444 2.067 . S
Zn435 O436 1.962 . S
Zn435 O438 1.986 . S
Zn435 O440 1.996 . S
Zn435 O443 1.943 . S
O436 Zn435 1.962 . S
O436 C441 1.254 . S
O437 Zn434 2.031 . S
O437 C441 1.269 . S
O438 Zn435 1.986 . S
O438 C445 1.262 . S
O439 Zn434 2.049 . S
O439 C447 1.260 . S
O440 Zn435 1.996 . S
O440 C447 1.257 . S
C441 O436 1.254 . S
C441 O437 1.269 . S
C442 O443 1.249 . S
C442 O444 1.270 . S
O443 Zn435 1.943 . S
O443 C442 1.249 . S
O444 Zn434 2.067 . S
O444 C442 1.270 . S
C445 O438 1.262 . S
C445 O446 1.232 . S
O446 C445 1.232 . S
C447 O439 1.260 . S
C447 O440 1.257 . S
C448 C449 1.369 . S
C448 C450 1.419 . S
C448 H452 0.930 . S
C449 C448 1.369 . S
C449 C458 1.429 . S
C450 C448 1.419 . S
C450 C451 1.363 . S
C450 H453 0.929 . S
C451 C450 1.363 . S
C451 C457 1.428 . S
H452 C448 0.930 . S
H453 C450 0.929 . S
S454 N455 1.613 . S
S454 N456 1.610 . S
N455 S454 1.613 . S
N455 C458 1.350 . S
N456 S454 1.610 . S
N456 C457 1.351 . S
C457 C451 1.428 . S
C457 N456 1.351 . S
C457 C458 1.434 . S
C458 C449 1.429 . S
C458 N455 1.350 . S
C458 C457 1.434 . S
C459 C460 1.369 . S
C459 C461 1.419 . S
C459 H463 0.930 . S
C460 C459 1.369 . S
C460 C469 1.429 . S
C461 C459 1.419 . S
C461 C462 1.363 . S
C461 H464 0.929 . S
C462 C461 1.363 . S
C462 C468 1.428 . S
H463 C459 0.930 . S
H464 C461 0.929 . S
S465 N466 1.613 . S
S465 N467 1.610 . S
N466 S465 1.613 . S
N466 C469 1.350 . S
N467 S465 1.610 . S
N467 C468 1.351 . S
C468 C462 1.428 . S
C468 N467 1.351 . S
C468 C469 1.434 . S
C469 C460 1.429 . S
C469 N466 1.350 . S
C469 C468 1.434 . S
C470 C471 1.369 . S
C470 C472 1.419 . S
C470 H474 0.930 . S
C471 C470 1.369 . S
C471 C480 1.429 . S
C472 C470 1.419 . S
C472 C473 1.363 . S
C472 H475 0.929 . S
C473 C472 1.363 . S
C473 C479 1.428 . S
H474 C470 0.930 . S
H475 C472 0.929 . S
S476 N477 1.613 . S
S476 N478 1.610 . S
N477 S476 1.613 . S
N477 C480 1.350 . S
N478 S476 1.610 . S
N478 C479 1.351 . S
C479 C473 1.428 . S
C479 N478 1.351 . S
C479 C480 1.434 . S
C480 C471 1.429 . S
C480 N477 1.350 . S
C480 C479 1.434 . S
C481 C482 1.369 . S
C481 C483 1.419 . S
C481 H485 0.930 . S
C482 C481 1.369 . S
C482 C491 1.429 . S
C483 C481 1.419 . S
C483 C484 1.363 . S
C483 H486 0.929 . S
C484 C483 1.363 . S
C484 C490 1.428 . S
H485 C481 0.930 . S
H486 C483 0.929 . S
S487 N488 1.613 . S
S487 N489 1.610 . S
N488 S487 1.613 . S
N488 C491 1.350 . S
N489 S487 1.610 . S
N489 C490 1.351 . S
C490 C484 1.428 . S
C490 N489 1.351 . S
C490 C491 1.434 . S
C491 C482 1.429 . S
C491 N488 1.350 . S
C491 C490 1.434 . S
C492 C493 1.369 . S
C492 C494 1.419 . S
C492 H496 0.930 . S
C493 C492 1.369 . S
C493 C502 1.429 . S
C494 C492 1.419 . S
C494 C495 1.363 . S
C494 H497 0.929 . S
C495 C494 1.363 . S
C495 C501 1.428 . S
H496 C492 0.930 . S
H497 C494 0.929 . S
S498 N499 1.613 . S
S498 N500 1.610 . S
N499 S498 1.613 . S
N499 C502 1.350 . S
N500 S498 1.610 . S
N500 C501 1.351 . S
C501 C495 1.428 . S
C501 N500 1.351 . S
C501 C502 1.434 . S
C502 C493 1.429 . S
C502 N499 1.350 . S
C502 C501 1.434 . S
C503 C504 1.369 . S
C503 C505 1.419 . S
C503 H507 0.930 . S
C504 C503 1.369 . S
C504 C513 1.429 . S
C505 C503 1.419 . S
C505 C506 1.363 . S
C505 H508 0.929 . S
C506 C505 1.363 . S
C506 C512 1.428 . S
H507 C503 0.930 . S
H508 C505 0.929 . S
S509 N510 1.613 . S
S509 N511 1.610 . S
N510 S509 1.613 . S
N510 C513 1.350 . S
N511 S509 1.610 . S
N511 C512 1.351 . S
C512 C506 1.428 . S
C512 N511 1.351 . S
C512 C513 1.434 . S
C513 C504 1.429 . S
C513 N510 1.350 . S
C513 C512 1.434 . S
C514 C515 1.369 . S
C514 C516 1.419 . S
C514 H518 0.930 . S
C515 C514 1.369 . S
C515 C524 1.429 . S
C516 C514 1.419 . S
C516 C517 1.363 . S
C516 H519 0.929 . S
C517 C516 1.363 . S
C517 C523 1.428 . S
H518 C514 0.930 . S
H519 C516 0.929 . S
S520 N521 1.613 . S
S520 N522 1.610 . S
N521 S520 1.613 . S
N521 C524 1.350 . S
N522 S520 1.610 . S
N522 C523 1.351 . S
C523 C517 1.428 . S
C523 N522 1.351 . S
C523 C524 1.434 . S
C524 C515 1.429 . S
C524 N521 1.350 . S
C524 C523 1.434 . S
C525 C526 1.369 . S
C525 C527 1.419 . S
C525 H529 0.930 . S
C526 C525 1.369 . S
C526 C535 1.429 . S
C527 C525 1.419 . S
C527 C528 1.363 . S
C527 H530 0.929 . S
C528 C527 1.363 . S
C528 C534 1.428 . S
H529 C525 0.930 . S
H530 C527 0.929 . S
S531 N532 1.613 . S
S531 N533 1.610 . S
N532 S531 1.613 . S
N532 C535 1.350 . S
N533 S531 1.610 . S
N533 C534 1.351 . S
C534 C528 1.428 . S
C534 N533 1.351 . S
C534 C535 1.434 . S
C535 C526 1.429 . S
C535 N532 1.350 . S
C535 C534 1.434 . S
C536 C537 1.369 . S
C536 C538 1.419 . S
C536 H540 0.930 . S
C537 C536 1.369 . S
C537 C546 1.429 . S
C538 C536 1.419 . S
C538 C539 1.363 . S
C538 H541 0.929 . S
C539 C538 1.363 . S
C539 C545 1.428 . S
H540 C536 0.930 . S
H541 C538 0.929 . S
S542 N543 1.613 . S
S542 N544 1.610 . S
N543 S542 1.613 . S
N543 C546 1.350 . S
N544 S542 1.610 . S
N544 C545 1.351 . S
C545 C539 1.428 . S
C545 N544 1.351 . S
C545 C546 1.434 . S
C546 C537 1.429 . S
C546 N543 1.350 . S
C546 C545 1.434 . S
C547 C548 1.369 . S
C547 C549 1.419 . S
C547 H551 0.930 . S
C548 C547 1.369 . S
C548 C557 1.429 . S
C549 C547 1.419 . S
C549 C550 1.363 . S
C549 H552 0.929 . S
C550 C549 1.363 . S
C550 C556 1.428 . S
H551 C547 0.930 . S
H552 C549 0.929 . S
S553 N554 1.613 . S
S553 N555 1.610 . S
N554 S553 1.613 . S
N554 C557 1.350 . S
N555 S553 1.610 . S
N555 C556 1.351 . S
C556 C550 1.428 . S
C556 N555 1.351 . S
C556 C557 1.434 . S
C557 C548 1.429 . S
C557 N554 1.350 . S
C557 C556 1.434 . S
C558 C559 1.369 . S
C558 C560 1.419 . S
C558 H562 0.930 . S
C559 C558 1.369 . S
C559 C568 1.429 . S
C560 C558 1.419 . S
C560 C561 1.363 . S
C560 H563 0.929 . S
C561 C560 1.363 . S
C561 C567 1.428 . S
H562 C558 0.930 . S
H563 C560 0.929 . S
S564 N565 1.613 . S
S564 N566 1.610 . S
N565 S564 1.613 . S
N565 C568 1.350 . S
N566 S564 1.610 . S
N566 C567 1.351 . S
C567 C561 1.428 . S
C567 N566 1.351 . S
C567 C568 1.434 . S
C568 C559 1.429 . S
C568 N565 1.350 . S
C568 C567 1.434 . S
C569 C570 1.369 . S
C569 C571 1.419 . S
C569 H573 0.930 . S
C570 C569 1.369 . S
C570 C579 1.429 . S
C571 C569 1.419 . S
C571 C572 1.363 . S
C571 H574 0.929 . S
C572 C571 1.363 . S
C572 C578 1.428 . S
H573 C569 0.930 . S
H574 C571 0.929 . S
S575 N576 1.613 . S
S575 N577 1.610 . S
N576 S575 1.613 . S
N576 C579 1.350 . S
N577 S575 1.610 . S
N577 C578 1.351 . S
C578 C572 1.428 . S
C578 N577 1.351 . S
C578 C579 1.434 . S
C579 C570 1.429 . S
C579 N576 1.350 . S
C579 C578 1.434 . S
C580 C581 1.369 . S
C580 C582 1.419 . S
C580 H584 0.930 . S
C581 C580 1.369 . S
C581 C590 1.429 . S
C582 C580 1.419 . S
C582 C583 1.363 . S
C582 H585 0.929 . S
C583 C582 1.363 . S
C583 C589 1.428 . S
H584 C580 0.930 . S
H585 C582 0.929 . S
S586 N587 1.613 . S
S586 N588 1.610 . S
N587 S586 1.613 . S
N587 C590 1.350 . S
N588 S586 1.610 . S
N588 C589 1.351 . S
C589 C583 1.428 . S
C589 N588 1.351 . S
C589 C590 1.434 . S
C590 C581 1.429 . S
C590 N587 1.350 . S
C590 C589 1.434 . S
C591 C592 1.369 . S
C591 C593 1.419 . S
C591 H595 0.930 . S
C592 C591 1.369 . S
C592 C601 1.429 . S
C593 C591 1.419 . S
C593 C594 1.363 . S
C593 H596 0.929 . S
C594 C593 1.363 . S
C594 C600 1.428 . S
H595 C591 0.930 . S
H596 C593 0.929 . S
S597 N598 1.613 . S
S597 N599 1.610 . S
N598 S597 1.613 . S
N598 C601 1.350 . S
N599 S597 1.610 . S
N599 C600 1.351 . S
C600 C594 1.428 . S
C600 N599 1.351 . S
C600 C601 1.434 . S
C601 C592 1.429 . S
C601 N598 1.350 . S
C601 C600 1.434 . S
C602 C603 1.369 . S
C602 C604 1.419 . S
C602 H606 0.930 . S
C603 C602 1.369 . S
C603 C612 1.429 . S
C604 C602 1.419 . S
C604 C605 1.363 . S
C604 H607 0.929 . S
C605 C604 1.363 . S
C605 C611 1.428 . S
H606 C602 0.930 . S
H607 C604 0.929 . S
S608 N609 1.613 . S
S608 N610 1.610 . S
N609 S608 1.613 . S
N609 C612 1.350 . S
N610 S608 1.610 . S
N610 C611 1.351 . S
C611 C605 1.428 . S
C611 N610 1.351 . S
C611 C612 1.434 . S
C612 C603 1.429 . S
C612 N609 1.350 . S
C612 C611 1.434 . S
C613 C614 1.369 . S
C613 C615 1.419 . S
C613 H617 0.930 . S
C614 C613 1.369 . S
C614 C623 1.429 . S
C615 C613 1.419 . S
C615 C616 1.363 . S
C615 H618 0.929 . S
C616 C615 1.363 . S
C616 C622 1.428 . S
H617 C613 0.930 . S
H618 C615 0.929 . S
S619 N620 1.613 . S
S619 N621 1.610 . S
N620 S619 1.613 . S
N620 C623 1.350 . S
N621 S619 1.610 . S
N621 C622 1.351 . S
C622 C616 1.428 . S
C622 N621 1.351 . S
C622 C623 1.434 . S
C623 C614 1.429 . S
C623 N620 1.350 . S
C623 C622 1.434 . S
C624 C625 1.369 . S
C624 C626 1.419 . S
C624 H628 0.930 . S
C625 C624 1.369 . S
C625 C634 1.429 . S
C626 C624 1.419 . S
C626 C627 1.363 . S
C626 H629 0.929 . S
C627 C626 1.363 . S
C627 C633 1.428 . S
H628 C624 0.930 . S
H629 C626 0.929 . S
S630 N631 1.613 . S
S630 N632 1.610 . S
N631 S630 1.613 . S
N631 C634 1.350 . S
N632 S630 1.610 . S
N632 C633 1.351 . S
C633 C627 1.428 . S
C633 N632 1.351 . S
C633 C634 1.434 . S
C634 C625 1.429 . S
C634 N631 1.350 . S
C634 C633 1.434 . S
C635 C636 1.369 . S
C635 C637 1.419 . S
C635 H639 0.930 . S
C636 C635 1.369 . S
C636 C645 1.429 . S
C637 C635 1.419 . S
C637 C638 1.363 . S
C637 H640 0.929 . S
C638 C637 1.363 . S
C638 C644 1.428 . S
H639 C635 0.930 . S
H640 C637 0.929 . S
S641 N642 1.613 . S
S641 N643 1.610 . S
N642 S641 1.613 . S
N642 C645 1.350 . S
N643 S641 1.610 . S
N643 C644 1.351 . S
C644 C638 1.428 . S
C644 N643 1.351 . S
C644 C645 1.434 . S
C645 C636 1.429 . S
C645 N642 1.350 . S
C645 C644 1.434 . S
C646 C647 1.369 . S
C646 C648 1.419 . S
C646 H650 0.930 . S
C647 C646 1.369 . S
C647 C656 1.429 . S
C648 C646 1.419 . S
C648 C649 1.363 . S
C648 H651 0.929 . S
C649 C648 1.363 . S
C649 C655 1.428 . S
H650 C646 0.930 . S
H651 C648 0.929 . S
S652 N653 1.613 . S
S652 N654 1.610 . S
N653 S652 1.613 . S
N653 C656 1.350 . S
N654 S652 1.610 . S
N654 C655 1.351 . S
C655 C649 1.428 . S
C655 N654 1.351 . S
C655 C656 1.434 . S
C656 C647 1.429 . S
C656 N653 1.350 . S
C656 C655 1.434 . S
C657 C658 1.369 . S
C657 C659 1.419 . S
C657 H661 0.930 . S
C658 C657 1.369 . S
C658 C667 1.429 . S
C659 C657 1.419 . S
C659 C660 1.363 . S
C659 H662 0.929 . S
C660 C659 1.363 . S
C660 C666 1.428 . S
H661 C657 0.930 . S
H662 C659 0.929 . S
S663 N664 1.613 . S
S663 N665 1.610 . S
N664 S663 1.613 . S
N664 C667 1.350 . S
N665 S663 1.610 . S
N665 C666 1.351 . S
C666 C660 1.428 . S
C666 N665 1.351 . S
C666 C667 1.434 . S
C667 C658 1.429 . S
C667 N664 1.350 . S
C667 C666 1.434 . S
C668 C669 1.369 . S
C668 C670 1.419 . S
C668 H672 0.930 . S
C669 C668 1.369 . S
C669 C678 1.429 . S
C670 C668 1.419 . S
C670 C671 1.363 . S
C670 H673 0.929 . S
C671 C670 1.363 . S
C671 C677 1.428 . S
H672 C668 0.930 . S
H673 C670 0.929 . S
S674 N675 1.613 . S
S674 N676 1.610 . S
N675 S674 1.613 . S
N675 C678 1.350 . S
N676 S674 1.610 . S
N676 C677 1.351 . S
C677 C671 1.428 . S
C677 N676 1.351 . S
C677 C678 1.434 . S
C678 C669 1.429 . S
C678 N675 1.350 . S
C678 C677 1.434 . S
C679 C680 1.369 . S
C679 C681 1.419 . S
C679 H683 0.930 . S
C680 C679 1.369 . S
C680 C689 1.429 . S
C681 C679 1.419 . S
C681 C682 1.363 . S
C681 H684 0.929 . S
C682 C681 1.363 . S
C682 C688 1.428 . S
H683 C679 0.930 . S
H684 C681 0.929 . S
S685 N686 1.613 . S
S685 N687 1.610 . S
N686 S685 1.613 . S
N686 C689 1.350 . S
N687 S685 1.610 . S
N687 C688 1.351 . S
C688 C682 1.428 . S
C688 N687 1.351 . S
C688 C689 1.434 . S
C689 C680 1.429 . S
C689 N686 1.350 . S
C689 C688 1.434 . S
C690 C691 1.369 . S
C690 C692 1.419 . S
C690 H694 0.930 . S
C691 C690 1.369 . S
C691 C700 1.429 . S
C692 C690 1.419 . S
C692 C693 1.363 . S
C692 H695 0.929 . S
C693 C692 1.363 . S
C693 C699 1.428 . S
H694 C690 0.930 . S
H695 C692 0.929 . S
S696 N697 1.613 . S
S696 N698 1.610 . S
N697 S696 1.613 . S
N697 C700 1.350 . S
N698 S696 1.610 . S
N698 C699 1.351 . S
C699 C693 1.428 . S
C699 N698 1.351 . S
C699 C700 1.434 . S
C700 C691 1.429 . S
C700 N697 1.350 . S
C700 C699 1.434 . S
C701 C702 1.369 . S
C701 C703 1.419 . S
C701 H705 0.930 . S
C702 C701 1.369 . S
C702 C711 1.429 . S
C703 C701 1.419 . S
C703 C704 1.363 . S
C703 H706 0.929 . S
C704 C703 1.363 . S
C704 C710 1.428 . S
H705 C701 0.930 . S
H706 C703 0.929 . S
S707 N708 1.613 . S
S707 N709 1.610 . S
N708 S707 1.613 . S
N708 C711 1.350 . S
N709 S707 1.610 . S
N709 C710 1.351 . S
C710 C704 1.428 . S
C710 N709 1.351 . S
C710 C711 1.434 . S
C711 C702 1.429 . S
C711 N708 1.350 . S
C711 C710 1.434 . S
C712 C713 1.369 . S
C712 C714 1.419 . S
C712 H716 0.930 . S
C713 C712 1.369 . S
C713 C722 1.429 . S
C714 C712 1.419 . S
C714 C715 1.363 . S
C714 H717 0.929 . S
C715 C714 1.363 . S
C715 C721 1.428 . S
H716 C712 0.930 . S
H717 C714 0.929 . S
S718 N719 1.613 . S
S718 N720 1.610 . S
N719 S718 1.613 . S
N719 C722 1.350 . S
N720 S718 1.610 . S
N720 C721 1.351 . S
C721 C715 1.428 . S
C721 N720 1.351 . S
C721 C722 1.434 . S
C722 C713 1.429 . S
C722 N719 1.350 . S
C722 C721 1.434 . S
C723 C724 1.369 . S
C723 C725 1.419 . S
C723 H727 0.930 . S
C724 C723 1.369 . S
C724 C733 1.429 . S
C725 C723 1.419 . S
C725 C726 1.363 . S
C725 H728 0.929 . S
C726 C725 1.363 . S
C726 C732 1.428 . S
H727 C723 0.930 . S
H728 C725 0.929 . S
S729 N730 1.613 . S
S729 N731 1.610 . S
N730 S729 1.613 . S
N730 C733 1.350 . S
N731 S729 1.610 . S
N731 C732 1.351 . S
C732 C726 1.428 . S
C732 N731 1.351 . S
C732 C733 1.434 . S
C733 C724 1.429 . S
C733 N730 1.350 . S
C733 C732 1.434 . S
C734 C735 1.369 . S
C734 C736 1.419 . S
C734 H738 0.930 . S
C735 C734 1.369 . S
C735 C744 1.429 . S
C736 C734 1.419 . S
C736 C737 1.363 . S
C736 H739 0.929 . S
C737 C736 1.363 . S
C737 C743 1.428 . S
H738 C734 0.930 . S
H739 C736 0.929 . S
S740 N741 1.613 . S
S740 N742 1.610 . S
N741 S740 1.613 . S
N741 C744 1.350 . S
N742 S740 1.610 . S
N742 C743 1.351 . S
C743 C737 1.428 . S
C743 N742 1.351 . S
C743 C744 1.434 . S
C744 C735 1.429 . S
C744 N741 1.350 . S
C744 C743 1.434 . S
C745 C746 1.369 . S
C745 C747 1.419 . S
C745 H749 0.930 . S
C746 C745 1.369 . S
C746 C755 1.429 . S
C747 C745 1.419 . S
C747 C748 1.363 . S
C747 H750 0.929 . S
C748 C747 1.363 . S
C748 C754 1.428 . S
H749 C745 0.930 . S
H750 C747 0.929 . S
S751 N752 1.613 . S
S751 N753 1.610 . S
N752 S751 1.613 . S
N752 C755 1.350 . S
N753 S751 1.610 . S
N753 C754 1.351 . S
C754 C748 1.428 . S
C754 N753 1.351 . S
C754 C755 1.434 . S
C755 C746 1.429 . S
C755 N752 1.350 . S
C755 C754 1.434 . S
C756 C757 1.369 . S
C756 C758 1.419 . S
C756 H760 0.930 . S
C757 C756 1.369 . S
C757 C766 1.429 . S
C758 C756 1.419 . S
C758 C759 1.363 . S
C758 H761 0.929 . S
C759 C758 1.363 . S
C759 C765 1.428 . S
H760 C756 0.930 . S
H761 C758 0.929 . S
S762 N763 1.613 . S
S762 N764 1.610 . S
N763 S762 1.613 . S
N763 C766 1.350 . S
N764 S762 1.610 . S
N764 C765 1.351 . S
C765 C759 1.428 . S
C765 N764 1.351 . S
C765 C766 1.434 . S
C766 C757 1.429 . S
C766 N763 1.350 . S
C766 C765 1.434 . S
C767 C768 1.369 . S
C767 C769 1.419 . S
C767 H771 0.930 . S
C768 C767 1.369 . S
C768 C777 1.429 . S
C769 C767 1.419 . S
C769 C770 1.363 . S
C769 H772 0.929 . S
C770 C769 1.363 . S
C770 C776 1.428 . S
H771 C767 0.930 . S
H772 C769 0.929 . S
S773 N774 1.613 . S
S773 N775 1.610 . S
N774 S773 1.613 . S
N774 C777 1.350 . S
N775 S773 1.610 . S
N775 C776 1.351 . S
C776 C770 1.428 . S
C776 N775 1.351 . S
C776 C777 1.434 . S
C777 C768 1.429 . S
C777 N774 1.350 . S
C777 C776 1.434 . S
C778 C779 1.369 . S
C778 C780 1.419 . S
C778 H782 0.930 . S
C779 C778 1.369 . S
C779 C788 1.429 . S
C780 C778 1.419 . S
C780 C781 1.363 . S
C780 H783 0.929 . S
C781 C780 1.363 . S
C781 C787 1.428 . S
H782 C778 0.930 . S
H783 C780 0.929 . S
S784 N785 1.613 . S
S784 N786 1.610 . S
N785 S784 1.613 . S
N785 C788 1.350 . S
N786 S784 1.610 . S
N786 C787 1.351 . S
C787 C781 1.428 . S
C787 N786 1.351 . S
C787 C788 1.434 . S
C788 C779 1.429 . S
C788 N785 1.350 . S
C788 C787 1.434 . S
C789 C790 1.369 . S
C789 C791 1.419 . S
C789 H793 0.930 . S
C790 C789 1.369 . S
C790 C799 1.429 . S
C791 C789 1.419 . S
C791 C792 1.363 . S
C791 H794 0.929 . S
C792 C791 1.363 . S
C792 C798 1.428 . S
H793 C789 0.930 . S
H794 C791 0.929 . S
S795 N796 1.613 . S
S795 N797 1.610 . S
N796 S795 1.613 . S
N796 C799 1.350 . S
N797 S795 1.610 . S
N797 C798 1.351 . S
C798 C792 1.428 . S
C798 N797 1.351 . S
C798 C799 1.434 . S
C799 C790 1.429 . S
C799 N796 1.350 . S
C799 C798 1.434 . S
C800 C801 1.369 . S
C800 C802 1.419 . S
C800 H804 0.930 . S
C801 C800 1.369 . S
C801 C810 1.429 . S
C802 C800 1.419 . S
C802 C803 1.363 . S
C802 H805 0.929 . S
C803 C802 1.363 . S
C803 C809 1.428 . S
H804 C800 0.930 . S
H805 C802 0.929 . S
S806 N807 1.613 . S
S806 N808 1.610 . S
N807 S806 1.613 . S
N807 C810 1.350 . S
N808 S806 1.610 . S
N808 C809 1.351 . S
C809 C803 1.428 . S
C809 N808 1.351 . S
C809 C810 1.434 . S
C810 C801 1.429 . S
C810 N807 1.350 . S
C810 C809 1.434 . S
C811 C812 1.369 1_455 S
C811 C813 1.419 1_565 S
C811 H815 0.930 . S
C812 C811 1.369 1_655 S
C812 C821 1.429 . S
C813 C811 1.419 1_545 S
C813 C814 1.363 . S
C813 H816 0.929 . S
C814 C813 1.363 . S
C814 C820 1.428 1_455 S
H815 C811 0.930 . S
H816 C813 0.929 . S
S817 N818 1.613 1_545 S
S817 N819 1.610 . S
N818 S817 1.613 1_565 S
N818 C821 1.350 . S
N819 S817 1.610 . S
N819 C820 1.351 . S
C820 C814 1.428 1_655 S
C820 N819 1.351 . S
C820 C821 1.434 1_545 S
C821 C812 1.429 . S
C821 N818 1.350 . S
C821 C820 1.434 1_565 S
C822 C823 1.369 . S
C822 C824 1.419 . S
C822 H826 0.930 . S
C823 C822 1.369 . S
C823 C832 1.429 . S
C824 C822 1.419 . S
C824 C825 1.363 . S
C824 H827 0.929 . S
C825 C824 1.363 . S
C825 C831 1.428 . S
H826 C822 0.930 . S
H827 C824 0.929 . S
S828 N829 1.613 . S
S828 N830 1.610 . S
N829 S828 1.613 . S
N829 C832 1.350 . S
N830 S828 1.610 . S
N830 C831 1.351 . S
C831 C825 1.428 . S
C831 N830 1.351 . S
C831 C832 1.434 . S
C832 C823 1.429 . S
C832 N829 1.350 . S
C832 C831 1.434 . S
C833 C834 1.369 1_556 S
C833 C835 1.419 1_545 S
C833 H837 0.930 . S
C834 C833 1.369 1_554 S
C834 C843 1.429 . S
C835 C833 1.419 1_565 S
C835 C836 1.363 . S
C835 H838 0.929 . S
C836 C835 1.363 . S
C836 C842 1.428 1_556 S
H837 C833 0.930 . S
H838 C835 0.929 . S
S839 N840 1.613 . S
S839 N841 1.610 1_545 S
N840 S839 1.613 . S
N840 C843 1.350 . S
N841 S839 1.610 1_565 S
N841 C842 1.351 . S
C842 C836 1.428 1_554 S
C842 N841 1.351 . S
C842 C843 1.434 1_565 S
C843 C834 1.429 . S
C843 N840 1.350 . S
C843 C842 1.434 1_545 S
C844 C845 1.369 . S
C844 C846 1.419 . S
C844 H848 0.930 . S
C845 C844 1.369 . S
C845 C854 1.429 . S
C846 C844 1.419 . S
C846 C847 1.363 . S
C846 H849 0.929 . S
C847 C846 1.363 . S
C847 C853 1.428 . S
H848 C844 0.930 . S
H849 C846 0.929 . S
S850 N851 1.613 . S
S850 N852 1.610 . S
N851 S850 1.613 . S
N851 C854 1.350 . S
N852 S850 1.610 . S
N852 C853 1.351 . S
C853 C847 1.428 . S
C853 N852 1.351 . S
C853 C854 1.434 . S
C854 C845 1.429 . S
C854 N851 1.350 . S
C854 C853 1.434 . S
C855 C856 1.369 . S
C855 C857 1.419 1_565 S
C855 H859 0.930 . S
C856 C855 1.369 . S
C856 C865 1.429 . S
C857 C855 1.419 1_545 S
C857 C858 1.363 . S
C857 H860 0.929 . S
C858 C857 1.363 . S
C858 C864 1.428 . S
H859 C855 0.930 . S
H860 C857 0.929 . S
S861 N862 1.613 1_545 S
S861 N863 1.610 . S
N862 S861 1.613 1_565 S
N862 C865 1.350 . S
N863 S861 1.610 . S
N863 C864 1.351 . S
C864 C858 1.428 . S
C864 N863 1.351 . S
C864 C865 1.434 1_545 S
C865 C856 1.429 . S
C865 N862 1.350 . S
C865 C864 1.434 1_565 S
C866 C867 1.369 . S
C866 C868 1.419 . S
C866 H870 0.930 . S
C867 C866 1.369 . S
C867 C876 1.429 . S
C868 C866 1.419 . S
C868 C869 1.363 . S
C868 H871 0.929 . S
C869 C868 1.363 . S
C869 C875 1.428 . S
H870 C866 0.930 . S
H871 C868 0.929 . S
S872 N873 1.613 . S
S872 N874 1.610 . S
N873 S872 1.613 . S
N873 C876 1.350 . S
N874 S872 1.610 . S
N874 C875 1.351 . S
C875 C869 1.428 . S
C875 N874 1.351 . S
C875 C876 1.434 . S
C876 C867 1.429 . S
C876 N873 1.350 . S
C876 C875 1.434 . S
C877 C878 1.369 . S
C877 C879 1.417 1_645 S
C877 H881 0.930 . S
C878 C877 1.369 . S
C878 C887 1.421 1_656 S
C879 C877 1.417 1_465 S
C879 C880 1.365 1_556 S
C879 H882 0.929 . S
C880 C879 1.365 1_554 S
C880 C886 1.428 . S
H881 C877 0.930 . S
H882 C879 0.929 . S
S883 N884 1.613 . S
S883 N885 1.610 1_545 S
N884 S883 1.613 . S
N884 C887 1.354 . S
N885 S883 1.610 1_565 S
N885 C886 1.351 . S
C886 C880 1.428 . S
C886 N885 1.351 . S
C886 C887 1.442 1_565 S
C887 C878 1.421 1_454 S
C887 N884 1.354 . S
C887 C886 1.442 1_545 S
C888 C889 1.369 . S
C888 C890 1.419 . S
C888 H892 0.930 . S
C889 C888 1.369 . S
C889 C898 1.429 . S
C890 C888 1.419 . S
C890 C891 1.363 . S
C890 H893 0.929 . S
C891 C890 1.363 . S
C891 C897 1.428 . S
H892 C888 0.930 . S
H893 C890 0.929 . S
S894 N895 1.613 . S
S894 N896 1.610 . S
N895 S894 1.613 . S
N895 C898 1.350 . S
N896 S894 1.610 . S
N896 C897 1.351 . S
C897 C891 1.428 . S
C897 N896 1.351 . S
C897 C898 1.434 . S
C898 C889 1.429 . S
C898 N895 1.350 . S
C898 C897 1.434 . S
C899 C900 1.369 . S
C899 C901 1.419 . S
C899 H903 0.930 . S
C900 C899 1.369 . S
C900 C909 1.429 . S
C901 C899 1.419 . S
C901 C902 1.363 . S
C901 H904 0.929 . S
C902 C901 1.363 . S
C902 C908 1.428 . S
H903 C899 0.930 . S
H904 C901 0.929 . S
S905 N906 1.613 . S
S905 N907 1.610 . S
N906 S905 1.613 . S
N906 C909 1.350 . S
N907 S905 1.610 . S
N907 C908 1.351 . S
C908 C902 1.428 . S
C908 N907 1.351 . S
C908 C909 1.434 . S
C909 C900 1.429 . S
C909 N906 1.350 . S
C909 C908 1.434 . S
C910 C911 1.369 . S
C910 C912 1.419 . S
C910 H914 0.930 . S
C911 C910 1.369 . S
C911 C920 1.429 . S
C912 C910 1.419 . S
C912 C913 1.363 . S
C912 H915 0.929 . S
C913 C912 1.363 . S
C913 C919 1.428 . S
H914 C910 0.930 . S
H915 C912 0.929 . S
S916 N917 1.613 . S
S916 N918 1.610 . S
N917 S916 1.613 . S
N917 C920 1.350 . S
N918 S916 1.610 . S
N918 C919 1.351 . S
C919 C913 1.428 . S
C919 N918 1.351 . S
C919 C920 1.434 . S
C920 C911 1.429 . S
C920 N917 1.350 . S
C920 C919 1.434 . S
C921 C922 1.369 . S
C921 C923 1.419 . S
C921 H925 0.930 . S
C922 C921 1.369 . S
C922 C931 1.429 . S
C923 C921 1.419 . S
C923 C924 1.363 . S
C923 H926 0.929 . S
C924 C923 1.363 . S
C924 C930 1.428 . S
H925 C921 0.930 . S
H926 C923 0.929 . S
S927 N928 1.613 . S
S927 N929 1.610 . S
N928 S927 1.613 . S
N928 C931 1.350 . S
N929 S927 1.610 . S
N929 C930 1.351 . S
C930 C924 1.428 . S
C930 N929 1.351 . S
C930 C931 1.434 . S
C931 C922 1.429 . S
C931 N928 1.350 . S
C931 C930 1.434 . S
C932 C933 1.369 . S
C932 C934 1.419 . S
C932 H936 0.930 . S
C933 C932 1.369 . S
C933 C942 1.429 1_554 S
C934 C932 1.419 . S
C934 C935 1.363 1_554 S
C934 H937 0.929 . S
C935 C934 1.363 1_556 S
C935 C941 1.428 . S
H936 C932 0.930 . S
H937 C934 0.929 . S
S938 N939 1.613 . S
S938 N940 1.610 . S
N939 S938 1.613 . S
N939 C942 1.350 . S
N940 S938 1.610 . S
N940 C941 1.351 . S
C941 C935 1.428 . S
C941 N940 1.351 . S
C941 C942 1.434 . S
C942 C933 1.429 1_556 S
C942 N939 1.350 . S
C942 C941 1.434 . S
C943 C944 1.369 1_455 S
C943 C945 1.419 . S
C943 H947 0.930 . S
C944 C943 1.369 1_655 S
C944 C953 1.429 . S
C945 C943 1.419 . S
C945 C946 1.363 . S
C945 H948 0.929 . S
C946 C945 1.363 . S
C946 C952 1.428 1_455 S
H947 C943 0.930 . S
H948 C945 0.929 . S
S949 N950 1.613 . S
S949 N951 1.610 . S
N950 S949 1.613 . S
N950 C953 1.350 . S
N951 S949 1.610 . S
N951 C952 1.351 . S
C952 C946 1.428 1_655 S
C952 N951 1.351 . S
C952 C953 1.434 . S
C953 C944 1.429 . S
C953 N950 1.350 . S
C953 C952 1.434 . S
C954 C955 1.369 1_654 S
C954 C956 1.419 . S
C954 H958 0.930 . S
C955 C954 1.369 1_456 S
C955 C964 1.429 . S
C956 C954 1.419 . S
C956 C957 1.363 . S
C956 H959 0.929 . S
C957 C956 1.363 . S
C957 C963 1.428 1_654 S
H958 C954 0.930 . S
H959 C956 0.929 . S
S960 N961 1.613 . S
S960 N962 1.610 . S
N961 S960 1.613 . S
N961 C964 1.350 . S
N962 S960 1.610 . S
N962 C963 1.351 . S
C963 C957 1.428 1_456 S
C963 N962 1.351 . S
C963 C964 1.434 . S
C964 C955 1.429 . S
C964 N961 1.350 . S
C964 C963 1.434 . S
C965 C966 1.369 . S
C965 C967 1.419 . S
C965 H969 0.930 . S
C966 C965 1.369 . S
C966 C975 1.429 . S
C967 C965 1.419 . S
C967 C968 1.363 . S
C967 H970 0.929 . S
C968 C967 1.363 . S
C968 C974 1.428 . S
H969 C965 0.930 . S
H970 C967 0.929 . S
S971 N972 1.613 . S
S971 N973 1.610 . S
N972 S971 1.613 . S
N972 C975 1.350 . S
N973 S971 1.610 . S
N973 C974 1.351 . S
C974 C968 1.428 . S
C974 N973 1.351 . S
C974 C975 1.434 . S
C975 C966 1.429 . S
C975 N972 1.350 . S
C975 C974 1.434 . S
C976 C977 1.369 . S
C976 C978 1.419 . S
C976 H980 0.930 . S
C977 C976 1.369 . S
C977 C986 1.429 . S
C978 C976 1.419 . S
C978 C979 1.363 . S
C978 H981 0.929 . S
C979 C978 1.363 . S
C979 C985 1.428 . S
H980 C976 0.930 . S
H981 C978 0.929 . S
S982 N983 1.613 . S
S982 N984 1.610 . S
N983 S982 1.613 . S
N983 C986 1.350 . S
N984 S982 1.610 . S
N984 C985 1.351 . S
C985 C979 1.428 . S
C985 N984 1.351 . S
C985 C986 1.434 . S
C986 C977 1.429 . S
C986 N983 1.350 . S
C986 C985 1.434 . S
C987 C988 1.369 . S
C987 C989 1.419 . S
C987 H991 0.930 . S
C988 C987 1.369 . S
C988 C997 1.429 . S
C989 C987 1.419 . S
C989 C990 1.363 . S
C989 H992 0.929 . S
C990 C989 1.363 . S
C990 C996 1.428 . S
H991 C987 0.930 . S
H992 C989 0.929 . S
S993 N994 1.613 1_455 S
S993 N995 1.614 . S
N994 S993 1.613 1_655 S
N994 C997 1.350 . S
N995 S993 1.614 . S
N995 C996 1.325 1_455 S
C996 C990 1.428 . S
C996 N995 1.325 1_655 S
C996 C997 1.434 . S
C997 C988 1.429 . S
C997 N994 1.350 . S
C997 C996 1.434 . S
C998 C999 1.369 . S
C998 C1000 1.419 . S
C998 H1002 0.930 . S
C999 C998 1.369 . S
C999 C1008 1.429 . S
C1000 C998 1.419 . S
C1000 C1001 1.363 . S
C1000 H1003 0.929 . S
C1001 C1000 1.363 . S
C1001 C1007 1.428 . S
H1002 C998 0.930 . S
H1003 C1000 0.929 . S
S1004 N1005 1.613 . S
S1004 N1006 1.610 . S
N1005 S1004 1.613 . S
N1005 C1008 1.350 . S
N1006 S1004 1.610 . S
N1006 C1007 1.351 . S
C1007 C1001 1.428 . S
C1007 N1006 1.351 . S
C1007 C1008 1.434 . S
C1008 C999 1.429 . S
C1008 N1005 1.350 . S
C1008 C1007 1.434 . S
C1009 C1010 1.369 . S
C1009 C1011 1.419 . S
C1009 H1013 0.930 . S
C1010 C1009 1.369 . S
C1010 C1019 1.429 . S
C1011 C1009 1.419 . S
C1011 C1012 1.363 . S
C1011 H1014 0.929 . S
C1012 C1011 1.363 . S
C1012 C1018 1.428 . S
H1013 C1009 0.930 . S
H1014 C1011 0.929 . S
S1015 N1016 1.613 . S
S1015 N1017 1.610 . S
N1016 S1015 1.613 . S
N1016 C1019 1.350 . S
N1017 S1015 1.610 . S
N1017 C1018 1.351 . S
C1018 C1012 1.428 . S
C1018 N1017 1.351 . S
C1018 C1019 1.434 . S
C1019 C1010 1.429 . S
C1019 N1016 1.350 . S
C1019 C1018 1.434 . S
C1020 C1021 1.369 . S
C1020 C1022 1.419 . S
C1020 H1024 0.930 . S
C1021 C1020 1.369 . S
C1021 C1030 1.429 . S
C1022 C1020 1.419 . S
C1022 C1023 1.363 . S
C1022 H1025 0.929 . S
C1023 C1022 1.363 . S
C1023 C1029 1.428 . S
H1024 C1020 0.930 . S
H1025 C1022 0.929 . S
S1026 N1027 1.613 . S
S1026 N1028 1.610 . S
N1027 S1026 1.613 . S
N1027 C1030 1.350 . S
N1028 S1026 1.610 . S
N1028 C1029 1.351 . S
C1029 C1023 1.428 . S
C1029 N1028 1.351 . S
C1029 C1030 1.434 . S
C1030 C1021 1.429 . S
C1030 N1027 1.350 . S
C1030 C1029 1.434 . S
C1031 C1032 1.369 . S
C1031 C1033 1.419 . S
C1031 H1035 0.930 . S
C1032 C1031 1.369 . S
C1032 C1041 1.429 . S
C1033 C1031 1.419 . S
C1033 C1034 1.363 . S
C1033 H1036 0.929 . S
C1034 C1033 1.363 . S
C1034 C1040 1.428 . S
H1035 C1031 0.930 . S
H1036 C1033 0.929 . S
S1037 N1038 1.613 . S
S1037 N1039 1.610 . S
N1038 S1037 1.613 . S
N1038 C1041 1.350 . S
N1039 S1037 1.610 . S
N1039 C1040 1.351 . S
C1040 C1034 1.428 . S
C1040 N1039 1.351 . S
C1040 C1041 1.434 . S
C1041 C1032 1.429 . S
C1041 N1038 1.350 . S
C1041 C1040 1.434 . S
C1042 C1043 1.369 . S
C1042 C1044 1.419 . S
C1042 H1046 0.930 . S
C1043 C1042 1.369 . S
C1043 C1052 1.429 . S
C1044 C1042 1.419 . S
C1044 C1045 1.363 . S
C1044 H1047 0.929 . S
C1045 C1044 1.363 . S
C1045 C1051 1.428 . S
H1046 C1042 0.930 . S
H1047 C1044 0.929 . S
S1048 N1049 1.613 . S
S1048 N1050 1.610 . S
N1049 S1048 1.613 . S
N1049 C1052 1.350 . S
N1050 S1048 1.610 . S
N1050 C1051 1.351 . S
C1051 C1045 1.428 . S
C1051 N1050 1.351 . S
C1051 C1052 1.434 . S
C1052 C1043 1.429 . S
C1052 N1049 1.350 . S
C1052 C1051 1.434 . S
C1053 C1054 1.369 . S
C1053 C1055 1.419 . S
C1053 H1057 0.930 . S
C1054 C1053 1.369 . S
C1054 C1063 1.429 . S
C1055 C1053 1.419 . S
C1055 C1056 1.363 . S
C1055 H1058 0.929 . S
C1056 C1055 1.363 . S
C1056 C1062 1.428 . S
H1057 C1053 0.930 . S
H1058 C1055 0.929 . S
S1059 N1060 1.613 . S
S1059 N1061 1.610 . S
N1060 S1059 1.613 . S
N1060 C1063 1.350 . S
N1061 S1059 1.610 . S
N1061 C1062 1.351 . S
C1062 C1056 1.428 . S
C1062 N1061 1.351 . S
C1062 C1063 1.434 . S
C1063 C1054 1.429 . S
C1063 N1060 1.350 . S
C1063 C1062 1.434 . S
C1064 C1065 1.369 . S
C1064 C1066 1.419 . S
C1064 H1068 0.930 . S
C1065 C1064 1.369 . S
C1065 C1074 1.429 . S
C1066 C1064 1.419 . S
C1066 C1067 1.363 . S
C1066 H1069 0.929 . S
C1067 C1066 1.363 . S
C1067 C1073 1.428 . S
H1068 C1064 0.930 . S
H1069 C1066 0.929 . S
S1070 N1071 1.614 . S
S1070 N1072 1.610 1_455 S
N1071 S1070 1.614 . S
N1071 C1074 1.340 1_455 S
N1072 S1070 1.610 1_655 S
N1072 C1073 1.351 . S
C1073 C1067 1.428 . S
C1073 N1072 1.351 . S
C1073 C1074 1.434 . S
C1074 C1065 1.429 . S
C1074 N1071 1.340 1_655 S
C1074 C1073 1.434 . S
C1075 C1076 1.369 . S
C1075 C1077 1.419 . S
C1075 H1079 0.930 . S
C1076 C1075 1.369 . S
C1076 C1085 1.429 . S
C1077 C1075 1.419 . S
C1077 C1078 1.363 . S
C1077 H1080 0.929 . S
C1078 C1077 1.363 . S
C1078 C1084 1.428 . S
H1079 C1075 0.930 . S
H1080 C1077 0.929 . S
S1081 N1082 1.613 . S
S1081 N1083 1.610 . S
N1082 S1081 1.613 . S
N1082 C1085 1.350 . S
N1083 S1081 1.610 . S
N1083 C1084 1.351 . S
C1084 C1078 1.428 . S
C1084 N1083 1.351 . S
C1084 C1085 1.434 . S
C1085 C1076 1.429 . S
C1085 N1082 1.350 . S
C1085 C1084 1.434 . S
C1086 C1087 1.369 . S
C1086 C1088 1.419 . S
C1086 H1090 0.930 . S
C1087 C1086 1.369 . S
C1087 C1096 1.429 . S
C1088 C1086 1.419 . S
C1088 C1089 1.363 . S
C1088 H1091 0.929 . S
C1089 C1088 1.363 . S
C1089 C1095 1.428 . S
H1090 C1086 0.930 . S
H1091 C1088 0.929 . S
S1092 N1093 1.613 . S
S1092 N1094 1.610 . S
N1093 S1092 1.613 . S
N1093 C1096 1.350 . S
N1094 S1092 1.610 . S
N1094 C1095 1.351 . S
C1095 C1089 1.428 . S
C1095 N1094 1.351 . S
C1095 C1096 1.434 . S
C1096 C1087 1.429 . S
C1096 N1093 1.350 . S
C1096 C1095 1.434 . S
C1097 C1098 1.369 . S
C1097 C1099 1.419 . S
C1097 H1101 0.930 . S
C1098 C1097 1.369 . S
C1098 C1107 1.429 . S
C1099 C1097 1.419 . S
C1099 C1100 1.363 . S
C1099 H1102 0.929 . S
C1100 C1099 1.363 . S
C1100 C1106 1.428 . S
H1101 C1097 0.930 . S
H1102 C1099 0.929 . S
S1103 N1104 1.613 . S
S1103 N1105 1.610 . S
N1104 S1103 1.613 . S
N1104 C1107 1.350 . S
N1105 S1103 1.610 . S
N1105 C1106 1.351 . S
C1106 C1100 1.428 . S
C1106 N1105 1.351 . S
C1106 C1107 1.434 . S
C1107 C1098 1.429 . S
C1107 N1104 1.350 . S
C1107 C1106 1.434 . S
C1108 C1109 1.369 . S
C1108 C1110 1.419 . S
C1108 H1112 0.930 . S
C1109 C1108 1.369 . S
C1109 C1118 1.429 . S
C1110 C1108 1.419 . S
C1110 C1111 1.363 . S
C1110 H1113 0.929 . S
C1111 C1110 1.363 . S
C1111 C1117 1.428 . S
H1112 C1108 0.930 . S
H1113 C1110 0.929 . S
S1114 N1115 1.613 . S
S1114 N1116 1.610 . S
N1115 S1114 1.613 . S
N1115 C1118 1.350 . S
N1116 S1114 1.610 . S
N1116 C1117 1.351 . S
C1117 C1111 1.428 . S
C1117 N1116 1.351 . S
C1117 C1118 1.434 . S
C1118 C1109 1.429 . S
C1118 N1115 1.350 . S
C1118 C1117 1.434 . S
C1119 C1120 1.369 . S
C1119 C1121 1.419 . S
C1119 H1123 0.930 . S
C1120 C1119 1.369 . S
C1120 C1129 1.429 . S
C1121 C1119 1.419 . S
C1121 C1122 1.363 . S
C1121 H1124 0.929 . S
C1122 C1121 1.363 . S
C1122 C1128 1.428 . S
H1123 C1119 0.930 . S
H1124 C1121 0.929 . S
S1125 N1126 1.613 . S
S1125 N1127 1.610 . S
N1126 S1125 1.613 . S
N1126 C1129 1.350 . S
N1127 S1125 1.610 . S
N1127 C1128 1.351 . S
C1128 C1122 1.428 . S
C1128 N1127 1.351 . S
C1128 C1129 1.434 . S
C1129 C1120 1.429 . S
C1129 N1126 1.350 . S
C1129 C1128 1.434 . S
C1130 C1131 1.369 . S
C1130 C1132 1.419 . S
C1130 H1134 0.930 . S
C1131 C1130 1.369 . S
C1131 C1140 1.429 . S
C1132 C1130 1.419 . S
C1132 C1133 1.363 . S
C1132 H1135 0.929 . S
C1133 C1132 1.363 . S
C1133 C1139 1.428 . S
H1134 C1130 0.930 . S
H1135 C1132 0.929 . S
S1136 N1137 1.613 . S
S1136 N1138 1.610 . S
N1137 S1136 1.613 . S
N1137 C1140 1.350 . S
N1138 S1136 1.610 . S
N1138 C1139 1.351 . S
C1139 C1133 1.428 . S
C1139 N1138 1.351 . S
C1139 C1140 1.434 . S
C1140 C1131 1.429 . S
C1140 N1137 1.350 . S
C1140 C1139 1.434 . S
C1141 C1142 1.369 . S
C1141 C1143 1.419 . S
C1141 H1145 0.930 . S
C1142 C1141 1.369 . S
C1142 C1151 1.429 . S
C1143 C1141 1.419 . S
C1143 C1144 1.363 . S
C1143 H1146 0.929 . S
C1144 C1143 1.363 . S
C1144 C1150 1.428 . S
H1145 C1141 0.930 . S
H1146 C1143 0.929 . S
S1147 N1148 1.613 . S
S1147 N1149 1.610 . S
N1148 S1147 1.613 . S
N1148 C1151 1.350 . S
N1149 S1147 1.610 . S
N1149 C1150 1.351 . S
C1150 C1144 1.428 . S
C1150 N1149 1.351 . S
C1150 C1151 1.434 . S
C1151 C1142 1.429 . S
C1151 N1148 1.350 . S
C1151 C1150 1.434 . S
C449 C134 1.132 . S
C451 C7 1.144 . S
C460 C21 1.145 . S
C462 C372 1.134 . S
C471 C162 1.130 . S
C473 C35 1.143 . S
C482 C344 1.132 . S
C484 C49 1.144 . S
C493 C63 1.141 . S
C495 C218 1.129 . S
C504 C400 1.139 . S
C506 C77 1.148 . S
C515 C91 1.150 . S
C517 C190 1.138 . S
C526 C428 1.139 . S
C528 C105 1.148 . S
C537 C22 1.131 . S
C539 C119 1.144 . S
C548 C133 1.148 . S
C550 C260 1.135 . S
C559 C50 1.136 . S
C561 C147 1.148 . S
C570 C161 1.150 . S
C572 C232 1.138 . S
C581 C175 1.142 . S
C583 C106 1.131 . S
C592 C288 1.135 . S
C594 C189 1.147 . S
C603 C203 1.140 . S
C605 C78 1.129 . S
C614 C316 1.140 . S
C616 C217 1.149 . S
C625 C358 1.128 . S
C627 C231 1.141 . S
C636 C148 1.137 . S
C638 C245 1.147 . S
C647 C259 1.143 . S
C649 C386 1.132 . S
C658 C120 1.128 . S
C660 C273 1.141 . S
C669 C442 1.130 . S
C671 C287 1.142 . S
C680 C301 1.146 . S
C682 C176 1.134 . S
C691 C414 1.137 . S
C693 C315 1.147 . S
C702 C204 1.128 . S
C704 C329 1.141 . S
C713 C246 1.128 . S
C715 C343 1.141 . S
C724 C357 1.141 . S
C726 C36 1.130 . S
C735 C371 1.150 . S
C737 C274 1.138 . S
C746 C385 1.149 . S
C748 C8 1.138 . S
C757 C330 1.127 . S
C759 C399 1.141 . S
C768 C413 1.150 . S
C770 C64 1.138 . S
C779 C427 1.148 . S
C781 C302 1.135 . S
C790 C441 1.140 . S
C792 C92 1.129 . S
C801 C347 1.341 . S
C803 C11 1.336 . S
C812 C25 1.341 . S
C814 C137 1.336 . S
C823 C39 1.341 . S
C825 C375 1.336 . S
C834 C53 1.337 . S
C836 C165 1.339 . S
C845 C67 1.336 . S
C847 C403 1.340 . S
C856 C81 1.339 . S
C858 C193 1.337 . S
C867 C431 1.340 . S
C869 C95 1.337 . S
C878 C109 1.336 . S
C880 C221 1.340 . S
C889 C123 1.336 . S
C891 C235 1.340 . S
C900 C151 1.335 . S
C902 C263 1.340 . S
C911 C291 1.335 . S
C913 C179 1.340 . S
C922 C319 1.335 . S
C924 C207 1.340 . S
C933 C249 1.339 . S
C935 C361 1.337 . S
C944 C389 1.340 . S
C946 C277 1.337 . S
C955 C305 1.341 . S
C957 C417 1.336 . S
C966 C445 1.339 . S
C968 C333 1.338 . S
C977 C307 1.461 . S
C979 C13 1.453 . S
C988 C321 1.449 . S
C990 C27 1.452 . S
C999 C41 1.460 . S
C1001 C335 1.455 . S
C1010 C293 1.455 . S
C1012 C55 1.459 . S
C1021 C279 1.460 . S
C1023 C69 1.449 . S
C1032 C237 1.448 . S
C1034 C83 1.459 . S
C1043 C97 1.454 . S
C1045 C251 1.459 . S
C1054 C265 1.451 . S
C1056 C111 1.460 . S
C1065 C419 1.452 . S
C1067 C125 1.449 . S
C1076 C433 1.451 . S
C1078 C139 1.449 . S
C1087 C447 1.458 . S
C1089 C153 1.449 . S
C1098 C167 1.450 . S
C1100 C405 1.459 . S
C1109 C391 1.448 . S
C1111 C181 1.452 . S
C1120 C349 1.450 . S
C1122 C195 1.459 . S
C1131 C363 1.459 . S
C1133 C209 1.449 . S
C1142 C377 1.455 . S
C1144 C223 1.459 . S
