# Generated by pormake.
# Topology iac-e, (7)-cn, num edge types: 1
# Building blocks:
#     Node 0, Type 0, BuildingBlock: NUHQUE_clean_sbu_2, # of connection points: 7
#     Node 1, Type 0, BuildingBlock: NUHQUE_clean_sbu_2, # of connection points: 7
#     Node 2, Type 0, BuildingBlock: NUHQUE_clean_sbu_2, # of connection points: 7
#     Node 3, Type 0, BuildingBlock: NUHQUE_clean_sbu_2, # of connection points: 7
#     Node 4, Type 0, BuildingBlock: NUHQUE_clean_sbu_2, # of connection points: 7
#     Node 5, Type 0, BuildingBlock: NUHQUE_clean_sbu_2, # of connection points: 7
#     Node 6, Type 0, BuildingBlock: NUHQUE_clean_sbu_2, # of connection points: 7
#     Node 7, Type 0, BuildingBlock: NUHQUE_clean_sbu_2, # of connection points: 7
#     Node 8, Type 0, BuildingBlock: NUHQUE_clean_sbu_2, # of connection points: 7
#     Node 9, Type 0, BuildingBlock: NUHQUE_clean_sbu_2, # of connection points: 7
#     Node 10, Type 0, BuildingBlock: NUHQUE_clean_sbu_2, # of connection points: 7
#     Node 11, Type 0, BuildingBlock: NUHQUE_clean_sbu_2, # of connection points: 7
#     Node 12, Type 0, BuildingBlock: NUHQUE_clean_sbu_2, # of connection points: 7
#     Node 13, Type 0, BuildingBlock: NUHQUE_clean_sbu_2, # of connection points: 7
#     Node 14, Type 0, BuildingBlock: NUHQUE_clean_sbu_2, # of connection points: 7
#     Node 15, Type 0, BuildingBlock: NUHQUE_clean_sbu_2, # of connection points: 7
#     Node 16, Type 0, BuildingBlock: NUHQUE_clean_sbu_2, # of connection points: 7
#     Node 17, Type 0, BuildingBlock: NUHQUE_clean_sbu_2, # of connection points: 7
#     Node 18, Type 0, BuildingBlock: NUHQUE_clean_sbu_2, # of connection points: 7
#     Node 19, Type 0, BuildingBlock: NUHQUE_clean_sbu_2, # of connection points: 7
#     Node 20, Type 0, BuildingBlock: NUHQUE_clean_sbu_2, # of connection points: 7
#     Node 21, Type 0, BuildingBlock: NUHQUE_clean_sbu_2, # of connection points: 7
#     Node 22, Type 0, BuildingBlock: NUHQUE_clean_sbu_2, # of connection points: 7
#     Node 23, Type 0, BuildingBlock: NUHQUE_clean_sbu_2, # of connection points: 7
#     Node 24, Type 0, BuildingBlock: NUHQUE_clean_sbu_2, # of connection points: 7
#     Node 25, Type 0, BuildingBlock: NUHQUE_clean_sbu_2, # of connection points: 7
#     Node 26, Type 0, BuildingBlock: NUHQUE_clean_sbu_2, # of connection points: 7
#     Node 27, Type 0, BuildingBlock: NUHQUE_clean_sbu_2, # of connection points: 7
#     Node 28, Type 0, BuildingBlock: NUHQUE_clean_sbu_2, # of connection points: 7
#     Node 29, Type 0, BuildingBlock: NUHQUE_clean_sbu_2, # of connection points: 7
#     Node 30, Type 0, BuildingBlock: NUHQUE_clean_sbu_2, # of connection points: 7
#     Node 31, Type 0, BuildingBlock: NUHQUE_clean_sbu_2, # of connection points: 7
#     Node 32, Type 0, BuildingBlock: NUHQUE_clean_sbu_2, # of connection points: 7
#     Node 33, Type 0, BuildingBlock: NUHQUE_clean_sbu_2, # of connection points: 7
#     Node 34, Type 0, BuildingBlock: NUHQUE_clean_sbu_2, # of connection points: 7
#     Node 35, Type 0, BuildingBlock: NUHQUE_clean_sbu_2, # of connection points: 7
#     Node 36, Type 0, BuildingBlock: NUHQUE_clean_sbu_2, # of connection points: 7
#     Node 37, Type 0, BuildingBlock: NUHQUE_clean_sbu_2, # of connection points: 7
#     Node 38, Type 0, BuildingBlock: NUHQUE_clean_sbu_2, # of connection points: 7
#     Node 39, Type 0, BuildingBlock: NUHQUE_clean_sbu_2, # of connection points: 7
#     Node 40, Type 0, BuildingBlock: NUHQUE_clean_sbu_2, # of connection points: 7
#     Node 41, Type 0, BuildingBlock: NUHQUE_clean_sbu_2, # of connection points: 7
#     Node 42, Type 0, BuildingBlock: NUHQUE_clean_sbu_2, # of connection points: 7
#     Node 43, Type 0, BuildingBlock: NUHQUE_clean_sbu_2, # of connection points: 7
#     Node 44, Type 0, BuildingBlock: NUHQUE_clean_sbu_2, # of connection points: 7
#     Node 45, Type 0, BuildingBlock: NUHQUE_clean_sbu_2, # of connection points: 7
#     Node 46, Type 0, BuildingBlock: NUHQUE_clean_sbu_2, # of connection points: 7
#     Node 47, Type 0, BuildingBlock: NUHQUE_clean_sbu_2, # of connection points: 7
#     Node 48, Type 0, BuildingBlock: NUHQUE_clean_sbu_2, # of connection points: 7
#     Node 49, Type 0, BuildingBlock: NUHQUE_clean_sbu_2, # of connection points: 7
#     Node 50, Type 0, BuildingBlock: NUHQUE_clean_sbu_2, # of connection points: 7
#     Node 51, Type 0, BuildingBlock: NUHQUE_clean_sbu_2, # of connection points: 7
#     Node 52, Type 0, BuildingBlock: NUHQUE_clean_sbu_2, # of connection points: 7
#     Node 53, Type 0, BuildingBlock: NUHQUE_clean_sbu_2, # of connection points: 7
#     Node 54, Type 0, BuildingBlock: NUHQUE_clean_sbu_2, # of connection points: 7
#     Node 55, Type 0, BuildingBlock: NUHQUE_clean_sbu_2, # of connection points: 7
#     Node 56, Type 0, BuildingBlock: NUHQUE_clean_sbu_2, # of connection points: 7
#     Node 57, Type 0, BuildingBlock: NUHQUE_clean_sbu_2, # of connection points: 7
#     Node 58, Type 0, BuildingBlock: NUHQUE_clean_sbu_2, # of connection points: 7
#     Node 59, Type 0, BuildingBlock: NUHQUE_clean_sbu_2, # of connection points: 7
#     Node 60, Type 0, BuildingBlock: NUHQUE_clean_sbu_2, # of connection points: 7
#     Node 61, Type 0, BuildingBlock: NUHQUE_clean_sbu_2, # of connection points: 7
#     Node 62, Type 0, BuildingBlock: NUHQUE_clean_sbu_2, # of connection points: 7
#     Node 63, Type 0, BuildingBlock: NUHQUE_clean_sbu_2, # of connection points: 7
#     Node 64, Type 0, BuildingBlock: NUHQUE_clean_sbu_2, # of connection points: 7
#     Node 65, Type 0, BuildingBlock: NUHQUE_clean_sbu_2, # of connection points: 7
#     Node 66, Type 0, BuildingBlock: NUHQUE_clean_sbu_2, # of connection points: 7
#     Node 67, Type 0, BuildingBlock: NUHQUE_clean_sbu_2, # of connection points: 7
#     Node 68, Type 0, BuildingBlock: NUHQUE_clean_sbu_2, # of connection points: 7
#     Node 69, Type 0, BuildingBlock: NUHQUE_clean_sbu_2, # of connection points: 7
#     Node 70, Type 0, BuildingBlock: NUHQUE_clean_sbu_2, # of connection points: 7
#     Node 71, Type 0, BuildingBlock: NUHQUE_clean_sbu_2, # of connection points: 7
#     Node 72, Type 0, BuildingBlock: NUHQUE_clean_sbu_2, # of connection points: 7
#     Node 73, Type 0, BuildingBlock: NUHQUE_clean_sbu_2, # of connection points: 7
#     Node 74, Type 0, BuildingBlock: NUHQUE_clean_sbu_2, # of connection points: 7
#     Node 75, Type 0, BuildingBlock: NUHQUE_clean_sbu_2, # of connection points: 7
#     Node 76, Type 0, BuildingBlock: NUHQUE_clean_sbu_2, # of connection points: 7
#     Node 77, Type 0, BuildingBlock: NUHQUE_clean_sbu_2, # of connection points: 7
#     Node 78, Type 0, BuildingBlock: NUHQUE_clean_sbu_2, # of connection points: 7
#     Node 79, Type 0, BuildingBlock: NUHQUE_clean_sbu_2, # of connection points: 7
#     Node 80, Type 0, BuildingBlock: NUHQUE_clean_sbu_2, # of connection points: 7
#     Node 81, Type 0, BuildingBlock: NUHQUE_clean_sbu_2, # of connection points: 7
#     Node 82, Type 0, BuildingBlock: NUHQUE_clean_sbu_2, # of connection points: 7
#     Node 83, Type 0, BuildingBlock: NUHQUE_clean_sbu_2, # of connection points: 7
#     Node 84, Type 0, BuildingBlock: NUHQUE_clean_sbu_2, # of connection points: 7
#     Node 85, Type 0, BuildingBlock: NUHQUE_clean_sbu_2, # of connection points: 7
#     Node 86, Type 0, BuildingBlock: NUHQUE_clean_sbu_2, # of connection points: 7
#     Node 87, Type 0, BuildingBlock: NUHQUE_clean_sbu_2, # of connection points: 7
#     Node 88, Type 0, BuildingBlock: NUHQUE_clean_sbu_2, # of connection points: 7
#     Node 89, Type 0, BuildingBlock: NUHQUE_clean_sbu_2, # of connection points: 7
#     Node 90, Type 0, BuildingBlock: NUHQUE_clean_sbu_2, # of connection points: 7
#     Node 91, Type 0, BuildingBlock: NUHQUE_clean_sbu_2, # of connection points: 7
#     Node 92, Type 0, BuildingBlock: NUHQUE_clean_sbu_2, # of connection points: 7
#     Node 93, Type 0, BuildingBlock: NUHQUE_clean_sbu_2, # of connection points: 7
#     Node 94, Type 0, BuildingBlock: NUHQUE_clean_sbu_2, # of connection points: 7
#     Node 95, Type 0, BuildingBlock: NUHQUE_clean_sbu_2, # of connection points: 7
#     Edge 96, Type (0, 0), None
#     Edge 97, Type (0, 0), None
#     Edge 98, Type (0, 0), None
#     Edge 99, Type (0, 0), None
#     Edge 100, Type (0, 0), None
#     Edge 101, Type (0, 0), None
#     Edge 102, Type (0, 0), None
#     Edge 103, Type (0, 0), None
#     Edge 104, Type (0, 0), None
#     Edge 105, Type (0, 0), None
#     Edge 106, Type (0, 0), None
#     Edge 107, Type (0, 0), None
#     Edge 108, Type (0, 0), None
#     Edge 109, Type (0, 0), None
#     Edge 110, Type (0, 0), None
#     Edge 111, Type (0, 0), None
#     Edge 112, Type (0, 0), None
#     Edge 113, Type (0, 0), None
#     Edge 114, Type (0, 0), None
#     Edge 115, Type (0, 0), None
#     Edge 116, Type (0, 0), None
#     Edge 117, Type (0, 0), None
#     Edge 118, Type (0, 0), None
#     Edge 119, Type (0, 0), None
#     Edge 120, Type (0, 0), None
#     Edge 121, Type (0, 0), None
#     Edge 122, Type (0, 0), None
#     Edge 123, Type (0, 0), None
#     Edge 124, Type (0, 0), None
#     Edge 125, Type (0, 0), None
#     Edge 126, Type (0, 0), None
#     Edge 127, Type (0, 0), None
#     Edge 128, Type (0, 0), None
#     Edge 129, Type (0, 0), None
#     Edge 130, Type (0, 0), None
#     Edge 131, Type (0, 0), None
#     Edge 132, Type (0, 0), None
#     Edge 133, Type (0, 0), None
#     Edge 134, Type (0, 0), None
#     Edge 135, Type (0, 0), None
#     Edge 136, Type (0, 0), None
#     Edge 137, Type (0, 0), None
#     Edge 138, Type (0, 0), None
#     Edge 139, Type (0, 0), None
#     Edge 140, Type (0, 0), None
#     Edge 141, Type (0, 0), None
#     Edge 142, Type (0, 0), None
#     Edge 143, Type (0, 0), None
#     Edge 144, Type (0, 0), None
#     Edge 145, Type (0, 0), None
#     Edge 146, Type (0, 0), None
#     Edge 147, Type (0, 0), None
#     Edge 148, Type (0, 0), None
#     Edge 149, Type (0, 0), None
#     Edge 150, Type (0, 0), None
#     Edge 151, Type (0, 0), None
#     Edge 152, Type (0, 0), None
#     Edge 153, Type (0, 0), None
#     Edge 154, Type (0, 0), None
#     Edge 155, Type (0, 0), None
#     Edge 156, Type (0, 0), None
#     Edge 157, Type (0, 0), None
#     Edge 158, Type (0, 0), None
#     Edge 159, Type (0, 0), None
#     Edge 160, Type (0, 0), None
#     Edge 161, Type (0, 0), None
#     Edge 162, Type (0, 0), None
#     Edge 163, Type (0, 0), None
#     Edge 164, Type (0, 0), None
#     Edge 165, Type (0, 0), None
#     Edge 166, Type (0, 0), None
#     Edge 167, Type (0, 0), None
#     Edge 168, Type (0, 0), None
#     Edge 169, Type (0, 0), None
#     Edge 170, Type (0, 0), None
#     Edge 171, Type (0, 0), None
#     Edge 172, Type (0, 0), None
#     Edge 173, Type (0, 0), None
#     Edge 174, Type (0, 0), None
#     Edge 175, Type (0, 0), None
#     Edge 176, Type (0, 0), None
#     Edge 177, Type (0, 0), None
#     Edge 178, Type (0, 0), None
#     Edge 179, Type (0, 0), None
#     Edge 180, Type (0, 0), None
#     Edge 181, Type (0, 0), None
#     Edge 182, Type (0, 0), None
#     Edge 183, Type (0, 0), None
#     Edge 184, Type (0, 0), None
#     Edge 185, Type (0, 0), None
#     Edge 186, Type (0, 0), None
#     Edge 187, Type (0, 0), None
#     Edge 188, Type (0, 0), None
#     Edge 189, Type (0, 0), None
#     Edge 190, Type (0, 0), None
#     Edge 191, Type (0, 0), None
#     Edge 192, Type (0, 0), None
#     Edge 193, Type (0, 0), None
#     Edge 194, Type (0, 0), None
#     Edge 195, Type (0, 0), None
#     Edge 196, Type (0, 0), None
#     Edge 197, Type (0, 0), None
#     Edge 198, Type (0, 0), None
#     Edge 199, Type (0, 0), None
#     Edge 200, Type (0, 0), None
#     Edge 201, Type (0, 0), None
#     Edge 202, Type (0, 0), None
#     Edge 203, Type (0, 0), None
#     Edge 204, Type (0, 0), None
#     Edge 205, Type (0, 0), None
#     Edge 206, Type (0, 0), None
#     Edge 207, Type (0, 0), None
#     Edge 208, Type (0, 0), None
#     Edge 209, Type (0, 0), None
#     Edge 210, Type (0, 0), None
#     Edge 211, Type (0, 0), None
#     Edge 212, Type (0, 0), None
#     Edge 213, Type (0, 0), None
#     Edge 214, Type (0, 0), None
#     Edge 215, Type (0, 0), None
#     Edge 216, Type (0, 0), None
#     Edge 217, Type (0, 0), None
#     Edge 218, Type (0, 0), None
#     Edge 219, Type (0, 0), None
#     Edge 220, Type (0, 0), None
#     Edge 221, Type (0, 0), None
#     Edge 222, Type (0, 0), None
#     Edge 223, Type (0, 0), None
#     Edge 224, Type (0, 0), None
#     Edge 225, Type (0, 0), None
#     Edge 226, Type (0, 0), None
#     Edge 227, Type (0, 0), None
#     Edge 228, Type (0, 0), None
#     Edge 229, Type (0, 0), None
#     Edge 230, Type (0, 0), None
#     Edge 231, Type (0, 0), None
#     Edge 232, Type (0, 0), None
#     Edge 233, Type (0, 0), None
#     Edge 234, Type (0, 0), None
#     Edge 235, Type (0, 0), None
#     Edge 236, Type (0, 0), None
#     Edge 237, Type (0, 0), None
#     Edge 238, Type (0, 0), None
#     Edge 239, Type (0, 0), None
#     Edge 240, Type (0, 0), None
#     Edge 241, Type (0, 0), None
#     Edge 242, Type (0, 0), None
#     Edge 243, Type (0, 0), None
#     Edge 244, Type (0, 0), None
#     Edge 245, Type (0, 0), None
#     Edge 246, Type (0, 0), None
#     Edge 247, Type (0, 0), None
#     Edge 248, Type (0, 0), None
#     Edge 249, Type (0, 0), None
#     Edge 250, Type (0, 0), None
#     Edge 251, Type (0, 0), None
#     Edge 252, Type (0, 0), None
#     Edge 253, Type (0, 0), None
#     Edge 254, Type (0, 0), None
#     Edge 255, Type (0, 0), None
#     Edge 256, Type (0, 0), None
#     Edge 257, Type (0, 0), None
#     Edge 258, Type (0, 0), None
#     Edge 259, Type (0, 0), None
#     Edge 260, Type (0, 0), None
#     Edge 261, Type (0, 0), None
#     Edge 262, Type (0, 0), None
#     Edge 263, Type (0, 0), None
#     Edge 264, Type (0, 0), None
#     Edge 265, Type (0, 0), None
#     Edge 266, Type (0, 0), None
#     Edge 267, Type (0, 0), None
#     Edge 268, Type (0, 0), None
#     Edge 269, Type (0, 0), None
#     Edge 270, Type (0, 0), None
#     Edge 271, Type (0, 0), None
#     Edge 272, Type (0, 0), None
#     Edge 273, Type (0, 0), None
#     Edge 274, Type (0, 0), None
#     Edge 275, Type (0, 0), None
#     Edge 276, Type (0, 0), None
#     Edge 277, Type (0, 0), None
#     Edge 278, Type (0, 0), None
#     Edge 279, Type (0, 0), None
#     Edge 280, Type (0, 0), None
#     Edge 281, Type (0, 0), None
#     Edge 282, Type (0, 0), None
#     Edge 283, Type (0, 0), None
#     Edge 284, Type (0, 0), None
#     Edge 285, Type (0, 0), None
#     Edge 286, Type (0, 0), None
#     Edge 287, Type (0, 0), None
#     Edge 288, Type (0, 0), None
#     Edge 289, Type (0, 0), None
#     Edge 290, Type (0, 0), None
#     Edge 291, Type (0, 0), None
#     Edge 292, Type (0, 0), None
#     Edge 293, Type (0, 0), None
#     Edge 294, Type (0, 0), None
#     Edge 295, Type (0, 0), None
#     Edge 296, Type (0, 0), None
#     Edge 297, Type (0, 0), None
#     Edge 298, Type (0, 0), None
#     Edge 299, Type (0, 0), None
#     Edge 300, Type (0, 0), None
#     Edge 301, Type (0, 0), None
#     Edge 302, Type (0, 0), None
#     Edge 303, Type (0, 0), None
#     Edge 304, Type (0, 0), None
#     Edge 305, Type (0, 0), None
#     Edge 306, Type (0, 0), None
#     Edge 307, Type (0, 0), None
#     Edge 308, Type (0, 0), None
#     Edge 309, Type (0, 0), None
#     Edge 310, Type (0, 0), None
#     Edge 311, Type (0, 0), None
#     Edge 312, Type (0, 0), None
#     Edge 313, Type (0, 0), None
#     Edge 314, Type (0, 0), None
#     Edge 315, Type (0, 0), None
#     Edge 316, Type (0, 0), None
#     Edge 317, Type (0, 0), None
#     Edge 318, Type (0, 0), None
#     Edge 319, Type (0, 0), None
#     Edge 320, Type (0, 0), None
#     Edge 321, Type (0, 0), None
#     Edge 322, Type (0, 0), None
#     Edge 323, Type (0, 0), None
#     Edge 324, Type (0, 0), None
#     Edge 325, Type (0, 0), None
#     Edge 326, Type (0, 0), None
#     Edge 327, Type (0, 0), None
#     Edge 328, Type (0, 0), None
#     Edge 329, Type (0, 0), None
#     Edge 330, Type (0, 0), None
#     Edge 331, Type (0, 0), None
#     Edge 332, Type (0, 0), None
#     Edge 333, Type (0, 0), None
#     Edge 334, Type (0, 0), None
#     Edge 335, Type (0, 0), None
#     Edge 336, Type (0, 0), None
#     Edge 337, Type (0, 0), None
#     Edge 338, Type (0, 0), None
#     Edge 339, Type (0, 0), None
#     Edge 340, Type (0, 0), None
#     Edge 341, Type (0, 0), None
#     Edge 342, Type (0, 0), None
#     Edge 343, Type (0, 0), None
#     Edge 344, Type (0, 0), None
#     Edge 345, Type (0, 0), None
#     Edge 346, Type (0, 0), None
#     Edge 347, Type (0, 0), None
#     Edge 348, Type (0, 0), None
#     Edge 349, Type (0, 0), None
#     Edge 350, Type (0, 0), None
#     Edge 351, Type (0, 0), None
#     Edge 352, Type (0, 0), None
#     Edge 353, Type (0, 0), None
#     Edge 354, Type (0, 0), None
#     Edge 355, Type (0, 0), None
#     Edge 356, Type (0, 0), None
#     Edge 357, Type (0, 0), None
#     Edge 358, Type (0, 0), None
#     Edge 359, Type (0, 0), None
#     Edge 360, Type (0, 0), None
#     Edge 361, Type (0, 0), None
#     Edge 362, Type (0, 0), None
#     Edge 363, Type (0, 0), None
#     Edge 364, Type (0, 0), None
#     Edge 365, Type (0, 0), None
#     Edge 366, Type (0, 0), None
#     Edge 367, Type (0, 0), None
#     Edge 368, Type (0, 0), None
#     Edge 369, Type (0, 0), None
#     Edge 370, Type (0, 0), None
#     Edge 371, Type (0, 0), None
#     Edge 372, Type (0, 0), None
#     Edge 373, Type (0, 0), None
#     Edge 374, Type (0, 0), None
#     Edge 375, Type (0, 0), None
#     Edge 376, Type (0, 0), None
#     Edge 377, Type (0, 0), None
#     Edge 378, Type (0, 0), None
#     Edge 379, Type (0, 0), None
#     Edge 380, Type (0, 0), None
#     Edge 381, Type (0, 0), None
#     Edge 382, Type (0, 0), None
#     Edge 383, Type (0, 0), None
#     Edge 384, Type (0, 0), None
#     Edge 385, Type (0, 0), None
#     Edge 386, Type (0, 0), None
#     Edge 387, Type (0, 0), None
#     Edge 388, Type (0, 0), None
#     Edge 389, Type (0, 0), None
#     Edge 390, Type (0, 0), None
#     Edge 391, Type (0, 0), None
#     Edge 392, Type (0, 0), None
#     Edge 393, Type (0, 0), None
#     Edge 394, Type (0, 0), None
#     Edge 395, Type (0, 0), None
#     Edge 396, Type (0, 0), None
#     Edge 397, Type (0, 0), None
#     Edge 398, Type (0, 0), None
#     Edge 399, Type (0, 0), None
#     Edge 400, Type (0, 0), None
#     Edge 401, Type (0, 0), None
#     Edge 402, Type (0, 0), None
#     Edge 403, Type (0, 0), None
#     Edge 404, Type (0, 0), None
#     Edge 405, Type (0, 0), None
#     Edge 406, Type (0, 0), None
#     Edge 407, Type (0, 0), None
#     Edge 408, Type (0, 0), None
#     Edge 409, Type (0, 0), None
#     Edge 410, Type (0, 0), None
#     Edge 411, Type (0, 0), None
#     Edge 412, Type (0, 0), None
#     Edge 413, Type (0, 0), None
#     Edge 414, Type (0, 0), None
#     Edge 415, Type (0, 0), None
#     Edge 416, Type (0, 0), None
#     Edge 417, Type (0, 0), None
#     Edge 418, Type (0, 0), None
#     Edge 419, Type (0, 0), None
#     Edge 420, Type (0, 0), None
#     Edge 421, Type (0, 0), None
#     Edge 422, Type (0, 0), None
#     Edge 423, Type (0, 0), None
#     Edge 424, Type (0, 0), None
#     Edge 425, Type (0, 0), None
#     Edge 426, Type (0, 0), None
#     Edge 427, Type (0, 0), None
#     Edge 428, Type (0, 0), None
#     Edge 429, Type (0, 0), None
#     Edge 430, Type (0, 0), None
#     Edge 431, Type (0, 0), None
# Relax obj value: 0.230
# Max RMSD: 0.388
# Mean RMSD: 0.239
data_MOF--net-iac-e--node1-NUHQUE_clean_sbu_2--edge1-none
_symmetry_space_group_name_H-M    P1
_symmetry_Int_Tables_number       1
_symmetry_cell_setting            triclinic
loop_
_symmetry_equiv_pos_as_xyz
'x, y, z'
_cell_length_a     43.022301
_cell_length_b     43.181327
_cell_length_c     43.000528
_cell_angle_alpha  91.087116
_cell_angle_beta   90.325476
_cell_angle_gamma 90.821148
loop_
_atom_site_label
_atom_site_type_symbol
_atom_site_fract_x
_atom_site_fract_y
_atom_site_fract_z
_atom_type_partial_charge
O0 O 0.09807 0.37086 0.1466 0.0
Tb1 Tb 0.05446 0.3634 0.12233 0.0
Eu2 Eu 1.00211 0.37779 0.07448 0.0
C3 C 0.09684 0.38007 0.17586 0.0
O4 O 0.06982 0.38401 0.18927 0.0
C5 C 1.03884 0.31148 0.07716 0.0
O6 O 0.9561 0.40058 0.0591 0.0
C7 C 0.04492 0.40292 1.04043 0.0
C8 C 0.95269 0.43101 0.06367 0.0
O9 O 0.97575 0.44691 0.07655 0.0
C10 C 1.01518 0.41957 0.13719 0.0
C11 C 0.05566 0.43322 1.0284 0.0
C12 C 0.08089 0.44873 0.04308 0.0
C13 C 0.09187 0.47711 1.03202 0.0
C14 C 0.07839 0.48964 1.00553 0.0
C15 C 0.05242 0.47542 0.99133 0.0
C16 C 1.04108 0.44709 1.00271 0.0
O17 O 0.06239 0.3305 0.08399 0.0
O18 O 1.01037 0.32389 0.07623 0.0
O19 O 1.04396 0.33108 0.15865 0.0
O20 O 1.00672 0.34925 0.1319 0.0
C21 C 1.01435 0.33006 0.15319 0.0
O22 O 0.99359 0.40507 0.12018 0.0
O23 O 1.04432 0.41198 0.13329 0.0
O24 O 1.01901 0.39074 1.02885 0.0
O25 O 0.04828 0.39842 0.07046 0.0
H26 H 0.09128 0.43944 0.06389 0.0
H27 H 0.08579 0.51251 0.99821 0.0
H28 H 1.02051 0.43652 0.99214 0.0
O29 O 0.97894 0.854 0.41296 0.0
Tb30 Tb 0.97195 0.81446 0.38211 0.0
Eu31 Eu 0.95795 0.76373 0.33281 0.0
C32 C 0.9564 0.8729 0.41956 0.0
O33 O 0.93113 0.87262 0.40232 0.0
C34 C 1.02708 0.7981 0.33806 0.0
O35 O 0.93211 0.7179 0.31755 0.0
C36 C 0.9401 0.80577 0.29509 0.0
C37 C 0.91764 0.69918 0.33739 0.0
O38 O 0.92341 0.70259 0.36727 0.0
C39 C 0.90852 0.78605 0.38648 0.0
C40 C 0.91013 0.81591 0.28255 0.0
C41 C 0.89418 0.84043 0.2971 0.0
C42 C 0.86427 0.84792 0.28711 0.0
C43 C 0.85057 0.83147 0.26222 0.0
C44 C 0.86592 0.8066 0.2483 0.0
C45 C 0.89579 0.79915 0.25797 0.0
O46 O 1.0108 0.82179 0.34925 0.0
O47 O 1.01272 0.77029 0.33477 0.0
O48 O 0.98447 0.79089 0.42463 0.0
O49 O 0.98118 0.76526 0.38268 0.0
C50 C 0.98723 0.76371 0.41181 0.0
O51 O 0.92187 0.76208 0.37278 0.0
O52 O 0.92147 0.81347 0.38366 0.0
O53 O 0.94965 0.7783 0.28566 0.0
O54 O 0.94487 0.81126 0.32493 0.0
H55 H 0.90417 0.85256 0.31717 0.0
H56 H 0.82663 0.83598 0.25578 0.0
H57 H 0.90691 0.77919 0.24745 0.0
O58 O 0.48927 0.72657 0.66694 0.0
Tb59 Tb 0.52805 0.72446 0.63527 0.0
Eu60 Eu 0.57171 0.70823 0.58194 0.0
C61 C 0.48905 0.70818 0.69092 0.0
O62 O 0.51126 0.68805 0.69458 0.0
C63 C 0.5394 0.7772 0.58838 0.0
O64 O 0.61686 0.68498 0.56421 0.0
C65 C 0.52756 0.6871 0.5457 0.0
C66 C 0.63738 0.67171 0.58291 0.0
O67 O 0.63627 0.67753 0.61293 0.0
C68 C 0.55447 0.661 0.63751 0.0
C69 C 0.51624 0.65714 0.53222 0.0
C70 C 0.4919 0.64051 0.54646 0.0
C71 C 0.48178 0.61174 0.53406 0.0
C72 C 0.49547 0.60003 0.50695 0.0
C73 C 0.52061 0.61551 0.49346 0.0
C74 C 0.53063 0.64421 0.50575 0.0
O75 O 0.51675 0.76156 0.6023 0.0
O76 O 0.56646 0.7627 0.58355 0.0
O77 O 0.55328 0.74101 0.67643 0.0
O78 O 0.57791 0.73481 0.63451 0.0
C79 C 0.58029 0.74324 0.66341 0.0
O80 O 0.57756 0.67396 0.62226 0.0
O81 O 0.5273 0.67406 0.63601 0.0
O82 O 0.55433 0.69784 0.53545 0.0
O83 O 0.52392 0.6917 0.57579 0.0
H84 H 0.4818 0.64911 0.56793 0.0
H85 H 0.48918 0.57686 0.49863 0.0
H86 H 0.55057 0.65561 0.49544 0.0
O87 O 0.61274 0.23886 0.91456 0.0
Tb88 Tb 0.61996 0.27761 0.88403 0.0
Eu89 Eu 0.63401 0.32651 0.82867 0.0
C90 C 0.63633 0.22336 0.92497 0.0
O91 O 0.66405 0.22823 0.9133 0.0
C92 C 0.56607 0.28838 0.83695 0.0
O93 O 0.65965 0.37187 0.81233 0.0
C94 C 0.65792 0.28422 0.79296 0.0
C95 C 0.67561 0.39167 0.83102 0.0
O96 O 0.67119 0.3907 0.86111 0.0
C97 C 0.67844 0.31432 0.88933 0.0
C98 C 0.6883 0.27613 0.77912 0.0
C99 C 0.70587 0.25246 0.79228 0.0
C100 C 0.73489 0.24482 0.78002 0.0
C101 C 0.74599 0.26002 0.7538 0.0
C102 C 0.72958 0.28452 0.74115 0.0
C103 C 0.7006 0.29248 0.75369 0.0
O104 O 0.58316 0.26632 0.8494 0.0
O105 O 0.57968 0.31597 0.83078 0.0
O106 O 0.60537 0.30249 0.92572 0.0
O107 O 0.60486 0.32527 0.88265 0.0
C108 C 0.59983 0.32831 0.91197 0.0
O109 O 0.66269 0.33464 0.87336 0.0
O110 O 0.6701 0.28503 0.88705 0.0
O111 O 0.64412 0.3089 0.78229 0.0
O112 O 0.65501 0.28117 0.82325 0.0
H113 H 0.69769 0.24082 0.81287 0.0
H114 H 0.76932 0.25533 0.74559 0.0
H115 H 0.6885 0.31217 0.74449 0.0
O116 O 0.09871 0.72958 0.41967 0.0
Tb117 Tb 0.0597 0.72188 0.4502 0.0
Eu118 Eu 1.012 0.70672 0.50425 0.0
C119 C 0.11844 0.7078 0.41327 0.0
O120 O 0.11708 0.68177 0.42852 0.0
C121 C 0.04681 0.77556 0.4972 0.0
O122 O 0.96729 0.68101 0.52185 0.0
C123 C 0.05652 0.68419 0.53742 0.0
C124 C 0.94646 0.66656 0.50325 0.0
O125 O 0.94667 0.67225 0.47341 0.0
C126 C 1.02461 0.66234 0.44305 0.0
C127 C 0.06564 0.65399 0.55023 0.0
C128 C 0.0892 0.63661 0.53583 0.0
C129 C 0.09747 0.60771 0.54748 0.0
C130 C 0.08277 0.59653 0.574 0.0
C131 C 0.05841 0.61281 0.58772 0.0
C132 C 0.05005 0.64162 0.57607 0.0
O133 O 0.06974 0.75907 0.48497 0.0
O134 O 1.01959 0.76111 0.50313 0.0
O135 O 1.03569 0.73817 0.40934 0.0
O136 O 1.01122 0.73513 0.45179 0.0
C137 C 1.00924 0.74225 0.423 0.0
O138 O 1.00381 0.67727 0.45975 0.0
O139 O 0.05371 0.67178 0.44472 0.0
O140 O 1.03177 0.69725 0.54949 0.0
O141 O 0.05843 0.68734 0.5071 0.0
H142 H 0.10016 0.64482 0.51483 0.0
H143 H 0.08781 0.57333 0.58177 0.0
H144 H 1.03059 0.65361 0.58642 0.0
O145 O 0.61288 0.85612 0.67323 0.0
Tb146 Tb 0.61997 0.81761 0.70438 0.0
Eu147 Eu 0.6374 0.76648 0.75894 0.0
C148 C 0.6363 0.86765 0.65766 0.0
O149 O 0.66469 0.85943 0.66456 0.0
C150 C 0.56781 0.8023 0.75112 0.0
O151 O 0.66172 0.71941 0.76982 0.0
C152 C 0.65898 0.80144 0.80416 0.0
C153 C 0.67863 0.70272 0.74967 0.0
O154 O 0.67595 0.70798 0.71985 0.0
C155 C 0.68347 0.79104 0.70414 0.0
C156 C 0.68731 0.80444 0.82401 0.0
C157 C 0.70362 0.83316 0.82622 0.0
C158 C 0.72957 0.83638 0.84608 0.0
C159 C 0.73904 0.81093 0.86307 0.0
C160 C 0.72332 0.78271 0.86192 0.0
C161 C 0.69768 0.77907 0.84175 0.0
O162 O 0.58351 0.82585 0.73914 0.0
O163 O 0.58258 0.7752 0.75534 0.0
O164 O 0.60634 0.79218 0.66208 0.0
O165 O 0.60996 0.76799 0.70394 0.0
C166 C 0.60319 0.76532 0.67475 0.0
O167 O 0.67074 0.7666 0.71711 0.0
O168 O 0.67021 0.81796 0.70764 0.0
O169 O 0.64157 0.77658 0.80824 0.0
O170 O 0.66108 0.80933 0.77477 0.0
H171 H 0.69621 0.85268 0.8127 0.0
H172 H 0.76051 0.81253 0.87638 0.0
H173 H 0.68624 0.7566 0.83972 0.0
O174 O 0.4884 0.36387 0.92198 0.0
Tb175 Tb 0.52753 0.36687 0.95377 0.0
Eu176 Eu 0.57508 0.38164 1.00549 0.0
C177 C 0.48805 0.38324 0.89875 0.0
O178 O 0.51 0.40444 0.89643 0.0
C179 C 0.54248 0.31238 0.99796 0.0
O180 O 0.61898 0.40782 1.0249 0.0
C181 C 0.53008 0.39873 1.04126 0.0
C182 C 0.63912 0.42222 1.00649 0.0
O183 O 0.63831 0.41584 0.97655 0.0
C184 C 0.55657 0.42979 0.95096 0.0
C185 C 0.51883 0.42811 0.05471 0.0
C186 C 0.49446 0.44393 1.04024 0.0
C187 C 0.48574 0.47326 0.05129 0.0
C188 C 0.50089 0.48642 0.07732 0.0
C189 C 0.52566 0.47119 0.09131 0.0
C190 C 0.53423 0.44195 0.08042 0.0
O191 O 0.51895 0.32806 0.98594 0.0
O192 O 0.56993 0.32721 1.00225 0.0
O193 O 0.55097 0.35257 0.91145 0.0
O194 O 0.577 0.35732 0.95311 0.0
C195 C 0.57817 0.35001 0.92401 0.0
O196 O 0.57993 0.41652 0.96525 0.0
O197 O 0.52887 0.4173 0.95389 0.0
O198 O 0.55691 0.38889 0.05184 0.0
O199 O 0.52684 0.3949 1.01102 0.0
H200 H 0.48349 0.43437 1.01934 0.0
H201 H 0.49569 0.51 0.08457 0.0
H202 H 0.55406 0.43096 0.09098 0.0
O203 O 0.95215 0.23323 0.21832 0.0
Tb204 Tb 0.96842 0.28106 0.21569 0.0
Eu205 Eu 0.9605 0.33901 0.25681 0.0
C206 C 0.96509 0.21 0.20353 0.0
O207 O 0.95455 0.18172 0.20765 0.0
C208 C 1.02855 0.30382 0.25126 0.0
O209 O 0.93351 0.38378 0.2709 0.0
C210 C 0.93963 0.29666 0.29339 0.0
C211 C 0.9023 0.38399 0.27203 0.0
O212 O 0.88691 0.35806 0.26614 0.0
C213 C 0.91248 0.32212 0.20038 0.0
C214 C 0.90935 0.28578 0.30511 0.0
C215 C 0.89353 0.2611 0.28965 0.0
C216 C 0.86386 0.25189 0.29922 0.0
C217 C 0.85032 0.26664 0.32481 0.0
C218 C 0.86545 0.29166 0.33979 0.0
C219 C 0.89501 0.3011 0.3302 0.0
O220 O 1.01031 0.27911 0.24608 0.0
O221 O 1.01498 0.33187 0.25199 0.0
O222 O 0.98851 0.28355 0.17003 0.0
O223 O 0.98356 0.325 0.19831 0.0
C224 C 0.99283 0.31354 0.17194 0.0
O225 O 0.92861 0.34474 0.21423 0.0
O226 O 0.92011 0.29328 0.20548 0.0
O227 O 0.95031 0.32376 0.30369 0.0
O228 O 0.94415 0.29207 0.26357 0.0
H229 H 0.90351 0.25 0.26928 0.0
H230 H 0.8266 0.26068 0.33113 0.0
H231 H 0.90602 0.32114 0.3414 0.0
O232 O 0.12194 0.11329 0.38113 0.0
Tb233 Tb 0.12038 0.06501 0.36566 0.0
Eu234 Eu 0.07879 1.00636 0.37306 0.0
C235 C 0.13829 0.13496 0.36757 0.0
O236 O 0.13775 0.16347 0.37865 0.0
C237 C 0.08491 1.04312 0.30582 0.0
O238 O 0.06515 0.95833 0.39335 0.0
C239 C 1.04075 0.04635 0.397 0.0
C240 C 0.06519 0.95455 0.42416 0.0
O241 O 0.07235 0.97855 0.44211 0.0
C242 C 0.13444 1.0243 0.42182 0.0
C243 C 1.02931 0.05656 0.42799 0.0
C244 C 0.04474 0.08092 0.4444 0.0
C245 C 1.03451 0.09053 0.47388 0.0
C246 C 1.00826 0.0764 0.48669 0.0
C247 C 0.99339 0.05139 0.47137 0.0
C248 C 1.00374 1.04161 0.44193 0.0
O249 O 0.08963 0.06767 0.3244 0.0
O250 O 0.08386 1.01497 0.31892 0.0
O251 O 0.1657 0.06017 0.34481 0.0
O252 O 0.13661 1.02004 0.35153 0.0
C253 C 0.16319 1.03007 0.34168 0.0
O254 O 0.12095 1.00134 0.40579 0.0
O255 O 0.12891 0.05304 0.41419 0.0
O256 O 1.03161 1.01895 0.38613 0.0
O257 O 0.07001 0.05268 0.39096 0.0
H258 H 0.0655 0.09163 0.43495 0.0
H259 H 1.00153 0.08256 0.51029 0.0
H260 H 0.9926 1.02172 0.4306 0.0
O261 O 0.24059 0.90299 0.62011 0.0
Tb262 Tb 0.28313 0.87765 0.61756 0.0
Eu263 Eu 0.3353 0.83002 0.62706 0.0
C264 C 0.24029 0.9295 0.6358 0.0
O265 O 0.26284 0.93619 0.6556 0.0
C266 C 0.29798 0.83723 0.55946 0.0
O267 O 0.38081 0.81422 0.65206 0.0
C268 C 0.29217 0.79345 0.64814 0.0
C269 C 0.40102 0.83344 0.66662 0.0
O270 O 0.40001 0.86316 0.66102 0.0
C271 C 0.32054 0.88775 0.67461 0.0
C272 C 0.28124 0.77968 0.67752 0.0
C273 C 0.2557 0.79259 0.69315 0.0
C274 C 0.24532 0.78025 0.72123 0.0
C275 C 0.25984 0.75422 0.73322 0.0
C276 C 0.286 0.74177 0.71866 0.0
C277 C 0.29651 0.75434 0.69067 0.0
O278 O 0.27451 0.84552 0.57769 0.0
O279 O 0.32619 0.83361 0.57272 0.0
O280 O 0.29922 0.92145 0.59902 0.0
O281 O 0.33072 0.88436 0.60236 0.0
C282 C 0.32755 0.91272 0.59451 0.0
O283 O 0.34211 0.8737 0.6582 0.0
O284 O 0.29149 0.88183 0.66739 0.0
O285 O 0.3185 0.78343 0.63648 0.0
O286 O 0.28859 0.82343 0.64512 0.0
H287 H 0.24473 0.81312 0.68432 0.0
H288 H 0.25311 0.74599 0.75595 0.0
H289 H 0.31729 0.74514 0.68002 0.0
O290 O 0.46903 0.97303 0.88512 0.0
Tb291 Tb 0.46524 1.02099 0.87138 0.0
Eu292 Eu 0.5062 0.07799 0.88103 0.0
C293 C 0.45386 0.95032 0.87106 0.0
O294 O 0.4589 0.92163 0.87901 0.0
C295 C 0.49885 0.04413 0.81188 0.0
O296 O 0.52445 0.12415 0.90393 0.0
C297 C 0.54274 1.03456 0.89999 0.0
C298 C 0.50587 0.14447 0.91795 0.0
O299 O 0.47574 0.14169 0.91363 0.0
C300 C 0.45171 0.05951 0.93016 0.0
C301 C 0.55462 1.02262 0.92974 0.0
C302 C 0.53899 0.99816 0.94486 0.0
C303 C 0.54932 0.98806 0.97399 0.0
C304 C 0.57567 1.00215 0.98761 0.0
C305 C 0.59053 1.02713 0.97331 0.0
C306 C 0.58044 1.03693 0.94427 0.0
O307 O 0.4942 1.01917 0.82894 0.0
O308 O 0.50007 0.0719 0.82662 0.0
O309 O 0.4194 1.02707 0.85238 0.0
O310 O 0.45002 0.06649 0.86012 0.0
C311 C 0.42291 0.05712 0.85035 0.0
O312 O 0.46562 0.08254 0.91574 0.0
O313 O 0.45628 1.03097 0.92048 0.0
O314 O 0.55299 0.0618 0.89092 0.0
O315 O 0.513 1.03053 0.89497 0.0
H316 H 0.51793 0.98801 0.93486 0.0
H317 H 0.58245 0.99604 1.01104 0.0
H318 H 0.59184 0.05675 0.93391 0.0
O319 O 0.37125 0.22423 0.13728 0.0
Tb320 Tb 0.32229 0.22897 0.12543 0.0
Eu321 Eu 0.26426 0.27361 0.13563 0.0
C322 C 0.38852 0.20168 0.12656 0.0
O323 O 0.41681 0.19847 0.13749 0.0
C324 C 0.29846 0.26289 0.06645 0.0
O325 O 0.21832 0.28773 0.16019 0.0
C326 C 0.30148 0.31801 0.15588 0.0
C327 C 0.19996 0.26818 0.17543 0.0
O328 O 0.20203 0.23837 0.16953 0.0
C329 C 0.28255 0.2157 0.18167 0.0
C330 C 0.3126 0.33106 0.18641 0.0
C331 C 0.3218 0.3098 0.20877 0.0
C332 C 0.34034 0.31921 0.23381 0.0
C333 C 0.34731 0.35069 0.23827 0.0
C334 C 0.3352 0.37372 0.21903 0.0
C335 C 0.31822 0.36348 0.19211 0.0
O336 O 0.32378 0.25797 0.08352 0.0
O337 O 0.27094 0.26623 0.08112 0.0
O338 O 0.3129 0.18207 0.10861 0.0
O339 O 0.27607 0.21504 0.11148 0.0
C340 C 0.28335 0.18691 0.10425 0.0
O341 O 0.26027 0.23095 0.16766 0.0
O342 O 0.31147 0.22189 0.17425 0.0
O343 O 0.27239 0.32268 0.14806 0.0
O344 O 0.31055 0.28962 0.14882 0.0
H345 H 0.31728 0.28522 0.20508 0.0
H346 H 0.36363 0.35698 0.25644 0.0
H347 H 0.31146 0.3801 0.17487 0.0
O348 O 0.12087 0.97671 0.19603 0.0
Tb349 Tb 0.1205 1.02535 0.21036 0.0
Eu350 Eu 0.07948 0.08298 0.20274 0.0
C351 C 0.13626 0.95513 0.21032 0.0
O352 O 0.13371 0.92627 0.2004 0.0
C353 C 0.0853 0.04731 0.26992 0.0
O354 O 0.06264 0.12876 0.1804 0.0
C355 C 1.04056 1.04078 0.18222 0.0
C356 C 0.08129 0.14801 0.16499 0.0
O357 O 0.11147 0.14558 0.16831 0.0
C358 C 0.13371 0.06472 0.15246 0.0
C359 C 1.02779 1.02913 0.15213 0.0
C360 C 1.04355 1.0058 0.13551 0.0
C361 C 1.0327 0.99548 0.1064 0.0
C362 C 1.00537 1.0075 0.09418 0.0
C363 C 0.98992 1.0314 0.10982 0.0
C364 C 1.00098 1.04207 0.13894 0.0
O365 O 0.08949 1.02278 0.25135 0.0
O366 O 0.08532 0.07546 0.25684 0.0
O367 O 0.16514 1.03147 0.2329 0.0
O368 O 0.13713 0.07108 0.22326 0.0
C369 C 0.16298 0.06158 0.23503 0.0
O370 O 0.11996 0.08727 0.16803 0.0
O371 O 0.12982 1.03598 0.16147 0.0
O372 O 1.03176 0.06825 0.1923 0.0
O373 O 0.07018 1.03582 0.18712 0.0
H374 H 0.06512 0.99662 0.14438 0.0
H375 H 0.99815 1.00076 0.07075 0.0
H376 H 0.98951 0.06125 0.15048 0.0
O377 O 0.36109 0.8693 0.44756 0.0
Tb378 Tb 0.31561 0.87638 0.46825 0.0
Eu379 Eu 0.25952 0.83634 0.45488 0.0
C380 C 0.38672 0.88367 0.45645 0.0
O381 O 0.41327 0.87527 0.44425 0.0
C382 C 0.29368 0.83781 0.52362 0.0
O383 O 0.2134 0.81871 0.43191 0.0
C384 C 0.30151 0.79893 0.4338 0.0
C385 C 0.19389 0.83724 0.41731 0.0
O386 O 0.1968 0.8673 0.42164 0.0
C387 C 0.27792 0.896 0.40999 0.0
C388 C 0.31337 0.78743 0.40358 0.0
C389 C 0.33826 0.80325 0.38953 0.0
C390 C 0.34878 0.79404 0.3602 0.0
C391 C 0.33547 0.76805 0.34526 0.0
C392 C 0.31013 0.75248 0.3584 0.0
C393 C 0.29917 0.76206 0.38769 0.0
O394 O 0.31835 0.84245 0.50592 0.0
O395 O 0.26565 0.83907 0.50968 0.0
O396 O 0.30994 0.9153 0.49954 0.0
O397 O 0.26958 0.89067 0.47948 0.0
C398 C 0.27951 0.91233 0.49867 0.0
O399 O 0.25591 0.87736 0.42085 0.0
O400 O 0.30595 0.89564 0.42235 0.0
O401 O 0.27377 0.78939 0.44252 0.0
O402 O 0.30674 0.82838 0.44016 0.0
H403 H 0.34843 0.82384 0.4005 0.0
H404 H 0.34247 0.76218 0.32168 0.0
H405 H 0.27891 0.7506 0.39729 0.0
O406 O 0.46007 0.10887 0.70347 0.0
Tb407 Tb 0.45961 0.06104 0.71845 0.0
Eu408 Eu 0.50316 1.00685 0.7069 0.0
C409 C 0.44585 0.13126 0.71828 0.0
O410 O 0.44865 0.15978 0.70856 0.0
C411 C 0.4981 1.04077 0.77594 0.0
O412 O 0.52189 0.96274 0.68171 0.0
C413 C 0.53724 0.0522 0.68614 0.0
C414 C 0.5036 0.94169 0.66739 0.0
O415 O 0.47367 0.94174 0.67292 0.0
C416 C 0.44252 1.01945 0.66277 0.0
C417 C 0.55062 0.06402 0.65689 0.0
C418 C 0.53654 0.08902 0.64192 0.0
C419 C 0.54845 0.10009 0.61386 0.0
C420 C 0.57515 0.08679 0.60125 0.0
C421 C 0.5887 0.06116 0.61512 0.0
C422 C 0.57663 0.05 0.64308 0.0
O423 O 0.49171 0.06523 0.75887 0.0
O424 O 0.49954 1.01301 0.76134 0.0
O425 O 0.41567 0.05393 0.74157 0.0
O426 O 0.44554 1.01534 0.73224 0.0
C427 C 0.41925 1.02396 0.74375 0.0
O428 O 0.45882 0.99853 0.67745 0.0
O429 O 0.44663 0.04878 0.67034 0.0
O430 O 0.54888 1.02677 0.69758 0.0
O431 O 0.50695 0.05355 0.689 0.0
H432 H 0.51541 0.09889 0.65119 0.0
H433 H 0.58305 0.09393 0.57851 0.0
H434 H 0.58674 1.02963 0.65317 0.0
O435 O 0.22743 0.20453 0.97191 0.0
Tb436 Tb 0.27589 0.21865 0.97602 0.0
Eu437 Eu 0.33402 0.25887 0.9615 0.0
C438 C 0.22045 0.17707 0.95975 0.0
O439 O 0.23273 0.16911 0.93294 0.0
C440 C 0.30091 0.26007 1.0304 0.0
O441 O 0.38183 0.27184 0.93988 0.0
C442 C 0.29284 0.29547 0.93814 0.0
C443 C 0.38628 0.26861 0.90929 0.0
O444 O 0.36299 0.25851 0.89187 0.0
C445 C 0.31311 0.20056 0.91707 0.0
C446 C 0.28237 0.30643 0.90734 0.0
C447 C 0.25684 0.29202 0.89175 0.0
C448 C 0.24723 0.30217 0.86236 0.0
C449 C 0.26282 0.32717 0.84894 0.0
C450 C 0.28899 0.34067 0.86345 0.0
C451 C 0.29849 0.33064 0.89271 0.0
O452 O 0.27557 0.25505 1.01313 0.0
O453 O 0.32845 0.25783 1.016 0.0
O454 O 0.28048 0.1787 1.00522 0.0
O455 O 0.32127 0.20045 0.98683 0.0
C456 C 0.31058 0.17826 1.00361 0.0
O457 O 0.33711 0.21484 0.93067 0.0
O458 O 0.28481 0.20666 0.92685 0.0
O459 O 0.32027 0.30515 0.94841 0.0
O460 O 0.28704 0.26634 0.94438 0.0
H461 H 0.24529 0.27209 0.90172 0.0
H462 H 0.25685 0.33372 0.82541 0.0
H463 H 0.31918 0.34094 0.90333 0.0
O464 O 0.37277 0.15298 0.10265 0.0
Tb465 Tb 0.36388 0.12716 0.05993 0.0
Eu466 Eu 0.3788 0.08059 1.00633 0.0
C467 C 0.37822 0.18286 0.10005 0.0
O468 O 0.3764 0.19564 0.07267 0.0
C469 C 0.31225 0.08301 1.0411 0.0
O470 O 0.40328 0.06531 0.96093 0.0
C471 C 0.40015 0.04538 0.04934 0.0
C472 C 0.43428 0.06581 0.9595 0.0
O473 O 0.4503 0.07389 0.98449 0.0
C474 C 0.42406 0.13914 1.02225 0.0
C475 C 0.43008 1.03251 0.05965 0.0
C476 C 0.44687 0.04734 0.08399 0.0
C477 C 0.47575 1.03615 0.09334 0.0
C478 C 0.48749 1.00944 0.07908 0.0
C479 C 0.4716 0.995 0.05418 0.0
C480 C 0.44281 1.00638 0.04458 0.0
O481 O 0.33126 0.08797 0.06508 0.0
O482 O 0.32504 0.08491 1.01284 0.0
O483 O 0.32581 0.15811 0.05271 0.0
O484 O 0.35379 0.14465 1.01386 0.0
C485 C 0.32977 0.16006 1.02307 0.0
O486 O 0.41026 0.12308 0.99961 0.0
O487 O 0.41325 0.13722 0.05072 0.0
O488 O 0.38821 1.03447 1.02297 0.0
O489 O 0.39681 0.07546 0.05317 0.0
H490 H 0.43827 0.06842 0.09477 0.0
H491 H 0.51071 1.00193 0.08505 0.0
H492 H 0.43115 0.99561 1.02467 0.0
O493 O 0.88537 0.47593 0.97517 0.0
Tb494 Tb 0.86466 0.46687 1.02024 0.0
Eu495 Eu 0.88026 0.50888 0.07528 0.0
C496 C 0.87787 0.46148 0.94912 0.0
O497 O 0.89 0.47102 0.92298 0.0
C498 C 0.81072 0.50498 0.04454 0.0
O499 O 0.90811 0.52686 0.11859 0.0
C500 C 0.89951 0.54472 1.03145 0.0
C501 C 0.92322 0.50805 0.13742 0.0
O502 O 0.91598 0.47843 0.13682 0.0
C503 C 0.92331 0.44807 0.05714 0.0
C504 C 0.92943 0.55826 1.02105 0.0
C505 C 0.94545 0.5441 0.99625 0.0
C506 C 0.97482 0.55513 0.98748 0.0
C507 C 0.98776 0.58121 1.00269 0.0
C508 C 0.97264 0.59501 1.02801 0.0
C509 C 0.94339 0.58371 1.03704 0.0
O510 O 0.82801 0.5018 1.01942 0.0
O511 O 0.82558 0.50404 0.07203 0.0
O512 O 0.83183 0.42918 1.02504 0.0
O513 O 0.85351 0.4515 0.06595 0.0
C514 C 0.83298 0.43127 0.05558 0.0
O515 O 0.91297 0.46732 0.07883 0.0
O516 O 0.91028 0.44709 1.02944 0.0
O517 O 0.88805 0.55532 0.05785 0.0
O518 O 0.89628 0.51455 1.02797 0.0
H519 H 0.93595 0.52342 0.98483 0.0
H520 H 1.01132 0.58853 0.99718 0.0
H521 H 0.9324 0.59382 0.05737 0.0
O522 O 0.8917 0.63155 0.2407 0.0
Tb523 Tb 0.87429 0.61972 0.28565 0.0
Eu524 Eu 0.83272 0.63226 0.34066 0.0
C525 C 0.88282 0.6158 0.216 0.0
O526 O 0.85473 0.6035 0.21523 0.0
C527 C 0.8338 0.56522 0.30349 0.0
O528 O 0.8188 0.65818 0.38618 0.0
C529 C 0.79715 0.65456 0.29773 0.0
C530 C 0.82361 0.68877 0.38902 0.0
O531 O 0.83587 0.70354 0.36559 0.0
C532 C 0.89405 0.67474 0.32756 0.0
C533 C 0.78436 0.68357 0.28537 0.0
C534 C 0.79919 0.69751 0.26005 0.0
C535 C 0.78785 0.72483 0.24766 0.0
C536 C 0.76073 0.73776 0.25961 0.0
C537 C 0.74612 0.72499 0.28552 0.0
C538 C 0.7579 0.69773 0.29835 0.0
O539 O 0.8372 0.58441 0.28001 0.0
O540 O 0.83537 0.57812 0.3322 0.0
O541 O 0.91013 0.58497 0.28733 0.0
O542 O 0.89227 0.60444 0.32983 0.0
C543 C 0.91048 0.58408 0.31754 0.0
O544 O 0.8784 0.65974 0.34907 0.0
O545 O 0.88881 0.66735 0.29825 0.0
O546 O 0.78638 0.64423 0.32427 0.0
O547 O 0.82716 0.65043 0.29436 0.0
H548 H 0.82045 0.68795 0.25073 0.0
H549 H 0.75323 0.76 0.25116 0.0
H550 H 0.74713 0.68836 0.31893 0.0
O551 O 0.69634 0.63509 0.47978 0.0
Tb552 Tb 0.71433 0.63406 0.52717 0.0
Eu553 Eu 0.70398 0.58914 0.58019 0.0
C554 C 0.70899 0.65121 0.45754 0.0
O555 O 0.69678 0.6499 0.4295 0.0
C556 C 0.77209 0.59488 0.54474 0.0
O557 O 0.67796 0.57205 0.6245 0.0
C558 C 0.68022 0.55672 0.53407 0.0
C559 C 0.64733 0.57625 0.62823 0.0
O560 O 0.63181 0.5899 0.60614 0.0
C561 C 0.66119 0.64928 0.57147 0.0
C562 C 0.65031 0.54291 0.52307 0.0
C563 C 0.63361 0.55648 0.49859 0.0
C564 C 0.60522 0.54335 0.48812 0.0
C565 C 0.59397 0.51631 0.50179 0.0
C566 C 0.60954 0.50355 0.52703 0.0
C567 C 0.63778 0.51656 0.5374 0.0
O568 O 0.75402 0.6022 0.52089 0.0
O569 O 0.75856 0.59292 0.57287 0.0
O570 O 0.73714 0.67882 0.53255 0.0
O571 O 0.73171 0.64962 0.57206 0.0
C572 C 0.74183 0.67615 0.56243 0.0
O573 O 0.67753 0.63369 0.59182 0.0
O574 O 0.66688 0.64516 0.54176 0.0
O575 O 0.69354 0.54436 0.55846 0.0
O576 O 0.68279 0.58701 0.53399 0.0
H577 H 0.64198 0.57783 0.4885 0.0
H578 H 0.5711 0.50732 0.49525 0.0
H579 H 0.64914 0.50682 0.55746 0.0
O580 O 0.18315 0.97281 0.23575 0.0
Tb581 Tb 0.20998 0.97917 0.27802 0.0
Eu582 Eu 0.25853 0.96706 0.33064 0.0
C583 C 0.15448 0.9623 0.23808 0.0
O584 O 0.14331 0.95524 0.26543 0.0
C585 C 0.25568 1.03125 0.29013 0.0
O586 O 0.27356 0.94384 0.37718 0.0
C587 C 0.29462 0.94509 0.28809 0.0
C588 C 0.27181 0.91296 0.38015 0.0
O589 O 0.26264 0.89615 0.35598 0.0
C590 C 0.20021 0.91987 0.31509 0.0
C591 C 0.30765 0.91549 0.27731 0.0
C592 C 0.29348 0.89957 0.25211 0.0
C593 C 0.30414 0.87058 0.24258 0.0
C594 C 0.32992 0.85789 0.25729 0.0
C595 C 0.34398 0.87329 0.28273 0.0
C596 C 0.33296 0.90214 0.29269 0.0
O597 O 0.24812 1.01127 0.26759 0.0
O598 O 0.25575 1.02053 0.31945 0.0
O599 O 0.17447 1.01195 0.29015 0.0
O600 O 0.20149 0.9923 0.32645 0.0
C601 C 0.18051 1.01229 0.31964 0.0
O602 O 0.21611 0.93461 0.33738 0.0
O603 O 0.20184 0.92993 0.28652 0.0
O604 O 0.30512 0.9569 0.31468 0.0
O605 O 0.26447 0.94821 0.28416 0.0
H606 H 0.27307 0.90886 0.2409 0.0
H607 H 0.33698 0.83456 0.25102 0.0
H608 H 0.34326 0.91334 0.31312 0.0
O609 O 0.20952 0.9463 0.59546 0.0
Tb610 Tb 0.2221 0.96411 0.55097 0.0
Eu611 Eu 0.209 1.007 0.49809 0.0
C612 C 0.22485 0.95478 0.62049 0.0
O613 O 0.23809 0.98237 0.62178 0.0
C614 C 0.27607 1.00512 0.53321 0.0
O615 O 0.18272 1.02305 0.45412 0.0
C616 C 0.18629 1.03835 0.54469 0.0
C617 C 0.15224 1.01737 0.45081 0.0
O618 O 0.1374 1.00323 0.47315 0.0
C619 C 0.16822 0.94457 0.50754 0.0
C620 C 0.15668 0.05066 0.55668 0.0
C621 C 0.14186 1.03623 0.58186 0.0
C622 C 0.1134 0.0472 0.59306 0.0
C623 C 0.10025 0.07321 0.57961 0.0
C624 C 0.11408 0.08694 0.5538 0.0
C625 C 0.14237 0.0759 0.54254 0.0
O626 O 0.25682 1.00157 0.55686 0.0
O627 O 0.26315 1.00408 0.50475 0.0
O628 O 0.2578 0.9293 0.54781 0.0
O629 O 0.23768 0.94738 0.50616 0.0
C630 C 0.25868 0.92971 0.51759 0.0
O631 O 0.18297 0.96141 0.48686 0.0
O632 O 0.1751 0.94861 0.53711 0.0
O633 O 0.19853 0.05141 0.52006 0.0
O634 O 0.18908 1.00817 0.54446 0.0
H635 H 0.1516 1.01557 0.59175 0.0
H636 H 0.07727 0.08044 0.5868 0.0
H637 H 0.15236 0.08618 0.52201 0.0
O638 O 0.90872 0.47446 0.3517 0.0
Tb639 Tb 0.87896 0.4737 0.31098 0.0
Eu640 Eu 0.8298 0.46206 0.25841 0.0
C641 C 0.9309 0.45389 0.35302 0.0
O642 O 0.93357 0.43284 0.33086 0.0
C643 C 0.83634 0.52972 0.29768 0.0
O644 O 0.81381 0.44069 0.21052 0.0
C645 C 0.79031 0.4405 0.29826 0.0
C646 C 0.83288 0.42614 0.19089 0.0
O647 O 0.86298 0.42968 0.19483 0.0
C648 C 0.88372 0.41297 0.27764 0.0
C649 C 0.77833 0.41049 0.30969 0.0
C650 C 0.79388 0.3962 0.33427 0.0
C651 C 0.78396 0.36733 0.34471 0.0
C652 C 0.75745 0.35307 0.33167 0.0
C653 C 0.74204 0.36637 0.30657 0.0
C654 C 0.75241 0.39526 0.29569 0.0
O655 O 0.84701 0.51239 0.32057 0.0
O656 O 0.83238 0.51646 0.26914 0.0
O657 O 0.92251 0.48822 0.29018 0.0
O658 O 0.88163 0.48641 0.26249 0.0
C659 C 0.91097 0.49238 0.26276 0.0
O660 O 0.87098 0.42766 0.25421 0.0
O661 O 0.87807 0.42344 0.30582 0.0
O662 O 0.78226 0.4486 0.27002 0.0
O663 O 0.81939 0.44764 0.30519 0.0
H664 H 0.81479 0.40661 0.34434 0.0
H665 H 0.75112 0.32977 0.33857 0.0
H666 H 0.74114 0.40505 0.27561 0.0
O667 O 0.69048 0.62897 0.84429 0.0
Tb668 Tb 0.71242 0.62276 0.79975 0.0
Eu669 Eu 0.75681 0.62942 0.744 0.0
C670 C 0.6639 0.64376 0.84572 0.0
O671 O 0.6568 0.66313 0.82372 0.0
C672 C 0.75097 0.564 0.7843 0.0
O673 O 0.77148 0.65888 0.70094 0.0
C674 C 0.79513 0.64881 0.78653 0.0
C675 C 0.76956 0.69001 0.70153 0.0
O676 O 0.75953 0.70374 0.72696 0.0
C677 C 0.70054 0.6774 0.75907 0.0
C678 C 0.80841 0.6771 0.8007 0.0
C679 C 0.79766 0.68533 0.83023 0.0
C680 C 0.8053 0.71397 0.84333 0.0
C681 C 0.82619 0.73373 0.82841 0.0
C682 C 0.8381 0.72537 0.79926 0.0
C683 C 0.82891 0.6971 0.78506 0.0
O684 O 0.74465 0.58388 0.80743 0.0
O685 O 0.75244 0.57535 0.75507 0.0
O686 O 0.66798 0.6004 0.78969 0.0
O687 O 0.70137 0.60495 0.75354 0.0
C688 C 0.67393 0.59519 0.76058 0.0
O689 O 0.71335 0.65981 0.73727 0.0
O690 O 0.70726 0.67164 0.78818 0.0
O691 O 0.80444 0.64017 0.75858 0.0
O692 O 0.76512 0.64487 0.79101 0.0
H693 H 0.78096 0.6706 0.84199 0.0
H694 H 0.83116 0.75662 0.83823 0.0
H695 H 0.8368 0.69135 0.76179 0.0
O696 O 0.97294 0.73168 0.96079 0.0
Tb697 Tb 1.02304 0.72542 0.96314 0.0
Eu698 Eu 0.07902 0.71207 1.00615 0.0
C699 C 0.9556 0.71848 0.9391 0.0
O700 O 0.92538 0.72224 0.93917 0.0
C701 C 0.04782 0.77996 1.00293 0.0
O702 O 0.12487 0.68813 1.01903 0.0
C703 C 1.03711 0.69084 0.04365 0.0
C704 C 0.126 0.6573 1.01998 0.0
O705 O 0.10053 0.64104 1.01426 0.0
C706 C 0.0584 0.66564 0.94872 0.0
C707 C 1.02587 0.66044 0.05495 0.0
C708 C 1.00132 0.64467 1.03928 0.0
C709 C 0.99124 0.61542 0.04895 0.0
C710 C 1.00502 0.60222 0.07497 0.0
C711 C 1.03017 0.61695 0.09015 0.0
C712 C 1.04041 0.64617 0.08032 0.0
O713 O 1.02321 0.7616 0.99969 0.0
O714 O 0.07558 0.76636 1.00295 0.0
O715 O 1.03323 0.74802 0.91968 0.0
O716 O 0.07027 0.73808 0.95138 0.0
C717 C 0.06291 0.75044 0.92536 0.0
O718 O 0.08207 0.67982 0.96303 0.0
O719 O 1.02993 0.67587 0.95322 0.0
O720 O 0.06476 0.70069 0.05314 0.0
O721 O 1.03154 0.69669 1.01426 0.0
H722 H 0.99095 0.65434 1.01864 0.0
H723 H 0.99855 0.57874 0.08117 0.0
H724 H 0.06051 0.65698 0.09157 0.0
O725 O 0.13624 0.22953 0.713 0.0
Tb726 Tb 0.11762 0.27637 0.70872 0.0
Eu727 Eu 0.13621 0.33235 0.75293 0.0
C728 C 0.13584 0.20587 0.69304 0.0
O729 O 0.15144 0.18106 0.70024 0.0
C730 C 0.06687 0.30318 0.74985 0.0
O731 O 0.16368 0.37593 0.7685 0.0
C732 C 0.15728 0.28856 0.7875 0.0
C733 C 0.19423 0.37736 0.76396 0.0
O734 O 0.20807 0.35371 0.7507 0.0
C735 C 0.1742 0.31741 0.68948 0.0
C736 C 0.18652 0.27774 0.80203 0.0
C737 C 0.20143 0.25169 0.78926 0.0
C738 C 0.22902 0.24093 0.80247 0.0
C739 C 0.24119 0.25546 0.82931 0.0
C740 C 0.22764 0.28225 0.8416 0.0
C741 C 0.20017 0.29331 0.82804 0.0
O742 O 0.08358 0.27782 0.74667 0.0
O743 O 0.0822 0.33021 0.7491 0.0
O744 O 0.0826 0.28077 0.67277 0.0
O745 O 0.10545 0.3216 0.69237 0.0
C746 C 0.08406 0.311 0.67345 0.0
O747 O 0.16214 0.33926 0.70733 0.0
O748 O 0.1643 0.28853 0.69156 0.0
O749 O 0.14514 0.31419 0.79885 0.0
O750 O 0.1547 0.28586 0.75702 0.0
H751 H 0.19242 0.24055 0.7682 0.0
H752 H 0.26356 0.24826 0.83824 0.0
H753 H 0.19029 0.31458 0.83704 0.0
O754 O 0.59754 0.35643 0.42165 0.0
Tb755 Tb 0.55836 0.36612 0.45145 0.0
Eu756 Eu 0.50936 0.381 0.50149 0.0
C757 C 0.61713 0.37819 0.41391 0.0
O758 O 0.61641 0.40515 0.4285 0.0
C759 C 0.54399 0.31353 0.49818 0.0
O760 O 0.46369 0.4038 0.51824 0.0
C761 C 0.5519 0.40395 0.53826 0.0
C762 C 0.44343 0.41703 0.49926 0.0
O763 O 0.44509 0.41145 0.46923 0.0
C764 C 0.5264 0.42733 0.44435 0.0
C765 C 0.56122 0.43477 0.55085 0.0
C766 C 0.5845 0.45216 0.53599 0.0
C767 C 0.59214 0.48211 0.54672 0.0
C768 C 0.57722 0.49446 0.57284 0.0
C769 C 0.55335 0.47787 0.58719 0.0
C770 C 0.54558 0.44794 0.57648 0.0
O771 O 0.56729 0.33005 0.48637 0.0
O772 O 0.51625 0.32704 0.5014 0.0
O773 O 0.53605 0.34891 0.40921 0.0
O774 O 0.50954 0.35258 0.45031 0.0
C775 C 0.509 0.34422 0.42143 0.0
O776 O 0.50382 0.41331 0.45954 0.0
O777 O 0.55465 0.41627 0.4465 0.0
O778 O 0.52536 0.39239 0.54821 0.0
O779 O 0.55645 0.39883 0.50836 0.0
H780 H 0.59563 0.44315 0.51522 0.0
H781 H 0.58181 0.51838 0.57988 0.0
H782 H 0.52641 0.4357 0.58724 0.0
O783 O 0.48075 0.85696 0.17072 0.0
Tb784 Tb 0.47331 0.82 0.20302 0.0
Eu785 Eu 0.45956 0.77281 0.25443 0.0
C786 C 0.45877 0.87654 0.16461 0.0
O787 O 0.43467 0.8787 0.18306 0.0
C788 C 0.52921 0.80566 0.24645 0.0
O789 O 0.43875 0.72562 0.26968 0.0
C790 C 0.44111 0.81407 0.29427 0.0
C791 C 0.42883 0.70448 0.24896 0.0
O792 O 0.43585 0.70852 0.21963 0.0
C793 C 0.40926 0.79394 0.20082 0.0
C794 C 0.41094 0.82402 0.30691 0.0
C795 C 0.39456 0.84794 0.29261 0.0
C796 C 0.3647 0.85552 0.30264 0.0
C797 C 0.35151 0.83998 0.32764 0.0
C798 C 0.36712 0.81556 0.34142 0.0
C799 C 0.39694 0.80785 0.33141 0.0
O800 O 0.51347 0.82887 0.23441 0.0
O801 O 0.51417 0.77875 0.25154 0.0
O802 O 0.48104 0.79261 0.16076 0.0
O803 O 0.48195 0.77066 0.20394 0.0
C804 C 0.48485 0.76651 0.17449 0.0
O805 O 0.42193 0.77013 0.21503 0.0
O806 O 0.42309 0.82105 0.20345 0.0
O807 O 0.45068 0.7865 0.3023 0.0
O808 O 0.44629 0.82015 0.26485 0.0
H809 H 0.40412 0.85947 0.27256 0.0
H810 H 0.32759 0.84452 0.33401 0.0
H811 H 0.40832 0.78821 0.34161 0.0
O812 O 0.97889 0.38381 0.61685 0.0
Tb813 Tb 1.02391 0.36256 0.6259 0.0
Eu814 Eu 0.07437 0.37741 0.58245 0.0
C815 C 0.95798 0.39009 0.63817 0.0
O816 O 0.93294 0.40517 0.63027 0.0
C817 C 1.04342 0.30805 0.58455 0.0
O818 O 0.11758 0.40355 0.56452 0.0
C819 C 1.0291 0.39912 0.54936 0.0
C820 C 0.13841 0.41732 0.58328 0.0
O821 O 0.14012 0.4094 0.61252 0.0
C822 C 0.0639 0.41871 0.64702 0.0
C823 C 1.01922 0.42856 0.53516 0.0
C824 C 0.99497 0.44577 0.54863 0.0
C825 C 0.98577 0.47391 0.53573 0.0
C826 C 1.00024 0.48434 0.50873 0.0
C827 C 1.02533 0.46838 0.4959 0.0
C828 C 1.03458 0.44038 0.50892 0.0
O829 O 1.01881 0.32499 0.59085 0.0
O830 O 0.07089 0.32296 0.58391 0.0
O831 O 1.03241 0.33019 0.66262 0.0
O832 O 0.07099 0.35025 0.63695 0.0
C833 C 0.06252 0.33065 0.65804 0.0
O834 O 0.08361 0.407 0.62673 0.0
O835 O 1.03524 0.40788 0.64761 0.0
O836 O 0.05341 0.38533 0.53724 0.0
O837 O 1.02836 0.39769 0.57986 0.0
H838 H 0.98423 0.43812 0.56995 0.0
H839 H 0.99459 0.50704 0.50003 0.0
H840 H 0.05459 0.42867 0.49933 0.0
O841 O 0.47688 0.22983 0.42007 0.0
Tb842 Tb 0.47321 0.26523 0.38553 0.0
Eu843 Eu 0.46406 0.30887 0.332 0.0
C844 C 0.45308 0.21265 0.42798 0.0
O845 O 0.42735 0.21283 0.41146 0.0
C846 C 0.53018 0.27104 0.34103 0.0
O847 O 0.48284 0.35723 0.32387 0.0
C848 C 0.43596 0.28182 0.2857 0.0
C849 C 0.4733 0.37934 0.30552 0.0
O850 O 0.49161 0.40368 0.30246 0.0
C851 C 0.41124 0.29663 0.38515 0.0
C852 C 0.40283 0.2767 0.27757 0.0
C853 C 0.38539 0.25248 0.29059 0.0
C854 C 0.35339 0.24983 0.28483 0.0
C855 C 0.33857 0.27143 0.26608 0.0
C856 C 0.3557 0.29574 0.25303 0.0
C857 C 0.38785 0.29779 0.25832 0.0
O858 O 0.51387 0.25064 0.35727 0.0
O859 O 0.51653 0.29679 0.3323 0.0
O860 O 0.48251 0.29557 0.42578 0.0
O861 O 0.48745 0.31326 0.38071 0.0
C862 C 0.48906 0.31998 0.40985 0.0
O863 O 0.42602 0.3184 0.36924 0.0
O864 O 0.42271 0.26856 0.38457 0.0
O865 O 0.44572 0.31083 0.2852 0.0
O866 O 0.44695 0.26639 0.3095 0.0
H867 H 0.39634 0.23627 0.30602 0.0
H868 H 0.31361 0.26988 0.26255 0.0
H869 H 0.40119 0.31627 0.24776 0.0
O870 O 0.59484 0.72229 0.16 0.0
Tb871 Tb 0.5527 0.71968 0.13231 0.0
Eu872 Eu 0.50432 0.70429 0.08134 0.0
C873 C 0.59538 0.70698 0.18611 0.0
O874 O 0.57172 0.68912 0.19348 0.0
C875 C 0.53941 0.77188 0.08491 0.0
O876 O 0.46121 0.67602 0.0638 0.0
C877 C 0.54921 0.6824 0.04823 0.0
C878 C 0.44065 0.6626 0.08252 0.0
O879 O 0.43879 0.67194 0.11164 0.0
C880 C 0.51632 0.66158 0.14165 0.0
C881 C 0.55934 0.65229 1.03546 0.0
C882 C 0.58349 0.63649 0.05017 0.0
C883 C 0.59236 0.6073 1.03911 0.0
C884 C 0.5778 0.59419 1.01275 0.0
C885 C 0.55314 0.60924 0.99845 0.0
C886 C 0.54407 0.63835 1.00961 0.0
O887 O 0.56238 0.7556 0.09717 0.0
O888 O 0.51143 0.75815 0.0812 0.0
O889 O 0.53259 0.73961 0.17414 0.0
O890 O 0.50463 0.73461 0.13363 0.0
C891 C 0.50525 0.74368 0.16227 0.0
O892 O 0.49552 0.67683 0.12579 0.0
O893 O 0.54552 0.66986 0.13855 0.0
O894 O 0.52378 0.6939 1.03613 0.0
O895 O 0.55129 0.68653 0.07859 0.0
H896 H 0.59442 0.64614 0.07105 0.0
H897 H 0.58345 0.57075 1.00539 0.0
H898 H 0.5243 0.64933 0.9989 0.0
O899 O 0.12841 0.84438 0.88003 0.0
Tb900 Tb 0.11926 0.7967 0.86749 0.0
Eu901 Eu 0.13489 0.74039 0.82569 0.0
C902 C 0.10931 0.86575 0.87131 0.0
O903 O 0.09482 0.86217 0.84449 0.0
C904 C 0.06695 0.76858 0.8288 0.0
O905 O 0.16185 0.69861 0.80631 0.0
C906 C 0.15406 0.78694 0.79274 0.0
C907 C 0.17703 0.67976 0.82479 0.0
O908 O 0.17152 0.68076 0.85474 0.0
C909 C 0.17436 0.75894 0.88815 0.0
C910 C 0.18303 0.80013 0.77958 0.0
C911 C 0.19734 0.82613 0.79427 0.0
C912 C 0.22547 0.83829 0.78313 0.0
C913 C 0.23873 0.82516 0.75645 0.0
C914 C 0.22551 0.7986 0.74226 0.0
C915 C 0.19754 0.78625 0.75366 0.0
O916 O 0.08498 0.79373 0.82957 0.0
O917 O 0.0812 0.74153 0.83086 0.0
O918 O 0.0853 0.79697 0.90426 0.0
O919 O 0.10467 0.75385 0.8888 0.0
C920 C 0.08468 0.76708 0.90684 0.0
O921 O 0.16063 0.73618 0.87222 0.0
O922 O 0.16677 0.78753 0.8826 0.0
O923 O 0.1427 0.76104 0.78038 0.0
O924 O 0.15181 0.78795 0.82308 0.0
H925 H 0.1876 0.83589 0.81543 0.0
H926 H 0.2615 0.83324 0.7491 0.0
H927 H 0.18801 0.76513 0.74316 0.0
O928 O 0.96386 0.96915 0.70414 0.0
Tb929 Tb 0.96352 1.01794 0.71662 0.0
Eu930 Eu 1.00703 0.0752 0.70415 0.0
C931 C 0.93813 0.95284 0.70239 0.0
O932 O 0.93859 0.92418 0.69172 0.0
C933 C 0.99961 1.04197 0.77135 0.0
O934 O 1.02628 0.1194 0.68006 0.0
C935 C 1.044 1.03205 0.68515 0.0
C936 C 1.0082 0.1379 0.66368 0.0
O937 O 0.97799 0.1356 0.66711 0.0
C938 C 0.94834 0.05531 0.65712 0.0
C939 C 0.05691 1.02144 0.65501 0.0
C940 C 1.04159 0.99727 0.63845 0.0
C941 C 0.05146 0.98845 0.60878 0.0
C942 C 0.07772 1.00261 0.59599 0.0
C943 C 0.09288 1.02722 0.61165 0.0
C944 C 0.08253 1.03663 0.64127 0.0
O945 O 0.99984 1.01791 0.7521 0.0
O946 O 0.99869 0.06987 0.75811 0.0
O947 O 0.9267 1.02738 0.74985 0.0
O948 O 0.94902 0.06455 0.72471 0.0
C949 C 0.92925 0.05743 0.74605 0.0
O950 O 0.96639 0.07763 0.66908 0.0
O951 O 0.94851 1.0273 0.66883 0.0
O952 O 0.05415 0.05879 0.69675 0.0
O953 O 1.01389 1.02789 0.68849 0.0
H954 H 1.02086 0.98639 0.64778 0.0
H955 H 0.08418 0.99683 0.57222 0.0
H956 H 0.09347 0.05655 0.65273 0.0
O957 O 0.85479 0.1889 0.46855 0.0
Tb958 Tb 0.81366 0.21675 0.47149 0.0
Eu959 Eu 0.76207 0.26171 0.45422 0.0
C960 C 0.85053 0.15948 0.46117 0.0
O961 O 0.82224 0.14841 0.45682 0.0
C962 C 0.79733 0.26431 0.51985 0.0
O963 O 0.71564 0.27733 0.43302 0.0
C964 C 0.8039 0.30051 0.43548 0.0
C965 C 0.69526 0.25681 0.42153 0.0
O966 O 0.699 0.22745 0.42775 0.0
C967 C 0.78264 0.20451 0.40768 0.0
C968 C 0.81392 0.31395 0.40594 0.0
C969 C 0.83913 0.30098 0.38998 0.0
C970 C 0.84702 0.31131 0.36048 0.0
C971 C 0.83077 0.33565 0.34737 0.0
C972 C 0.80528 0.34838 0.36277 0.0
C973 C 0.79696 0.33775 0.39212 0.0
O974 O 0.82106 0.25763 0.50164 0.0
O975 O 0.76888 0.26015 0.50772 0.0
O976 O 0.80035 0.18681 0.50881 0.0
O977 O 0.76516 0.20262 0.4779 0.0
C978 C 0.77095 0.18687 0.50261 0.0
O979 O 0.75935 0.22087 0.41889 0.0
O980 O 0.80982 0.20606 0.42167 0.0
O981 O 0.77673 0.30912 0.44628 0.0
O982 O 0.80908 0.27078 0.43868 0.0
H983 H 0.85132 0.28145 0.39946 0.0
H984 H 0.83577 0.34229 0.32367 0.0
H985 H 0.77648 0.34701 0.40329 0.0
O986 O 0.62658 0.10953 0.19953 0.0
Tb987 Tb 0.62532 0.06211 0.21617 0.0
Eu988 Eu 0.57951 1.00428 0.20682 0.0
C989 C 0.64488 0.13181 0.21053 0.0
O990 O 0.64332 0.15949 0.19858 0.0
C991 C 0.5863 1.04117 0.2738 0.0
O992 O 0.55902 0.95993 0.18182 0.0
C993 C 0.54815 0.04984 0.18398 0.0
C994 C 0.57643 0.93959 0.16631 0.0
O995 O 0.60667 0.94086 0.16999 0.0
C996 C 0.64155 1.01521 0.16551 0.0
C997 C 0.53508 0.06058 0.15419 0.0
C998 C 0.54961 0.08531 0.13869 0.0
C999 C 0.53798 0.09538 0.11008 0.0
C1000 C 0.51118 0.08124 0.09746 0.0
C1001 C 0.49727 0.05584 0.11194 0.0
C1002 C 0.50902 0.0457 0.14038 0.0
O1003 O 0.59254 0.06524 0.25582 0.0
O1004 O 0.58427 1.0128 0.26054 0.0
O1005 O 0.67115 0.05985 0.23668 0.0
O1006 O 0.64137 1.01945 0.23524 0.0
C1007 C 0.6684 1.03058 0.24308 0.0
O1008 O 0.62569 0.99526 0.18221 0.0
O1009 O 0.63636 0.04488 0.16929 0.0
O1010 O 0.53501 1.02561 0.19692 0.0
O1011 O 0.57848 0.04998 0.18643 0.0
H1012 H 0.5708 0.09581 0.14807 0.0
H1013 H 0.50332 0.08759 0.07443 0.0
H1014 H 0.49858 1.02549 0.15092 0.0
O1015 O 0.73328 0.87573 0.98003 0.0
Tb1016 Tb 0.77608 0.8509 0.98468 0.0
Eu1017 Eu 0.83461 0.8076 0.96063 0.0
C1018 C 0.73606 0.90342 0.96814 0.0
O1019 O 0.76372 0.91413 0.96085 0.0
C1020 C 0.8042 0.81293 1.03083 0.0
O1021 O 0.88108 0.79689 0.93362 0.0
C1022 C 0.79425 0.76386 0.94667 0.0
C1023 C 0.88482 0.80042 0.90278 0.0
O1024 O 0.86166 0.81133 0.88654 0.0
C1025 C 0.79798 0.8554 0.91839 0.0
C1026 C 0.77953 0.75137 0.91775 0.0
C1027 C 0.75005 0.76195 0.90831 0.0
C1028 C 0.73938 0.75703 0.87745 0.0
C1029 C 0.75596 0.73718 0.85801 0.0
C1030 C 0.78507 0.72645 0.86733 0.0
C1031 C 0.79676 0.73322 0.897 0.0
O1032 O 0.77857 0.81165 1.01419 0.0
O1033 O 0.83109 0.81667 1.01517 0.0
O1034 O 0.79031 0.88479 1.01929 0.0
O1035 O 0.8222 0.87272 0.98319 0.0
C1036 C 0.81794 0.88905 1.00841 0.0
O1037 O 0.8263 0.84727 0.92662 0.0
O1038 O 0.7744 0.84664 0.93519 0.0
O1039 O 0.824 0.75863 0.95127 0.0
O1040 O 0.78675 0.79223 0.95419 0.0
H1041 H 0.73777 0.77822 0.92314 0.0
H1042 H 0.74892 0.73439 0.83381 0.0
H1043 H 0.82006 0.72602 0.90294 0.0
O1044 O 0.90353 0.08234 0.85024 0.0
Tb1045 Tb 0.93288 1.04238 0.84932 0.0
Eu1046 Eu 0.99689 1.00426 0.87379 0.0
C1047 C 0.912 0.10829 0.86402 0.0
O1048 O 0.93763 0.10982 0.88073 0.0
C1049 C 0.99033 1.03668 0.8054 0.0
O1050 O 1.01535 0.95988 0.89723 0.0
C1051 C 1.02881 0.05053 0.89743 0.0
C1052 C 1.01362 0.95656 0.92804 0.0
O1053 O 1.00206 0.97924 0.94487 0.0
C1054 C 0.93427 1.01396 0.91445 0.0
C1055 C 1.04247 0.06262 0.92712 0.0
C1056 C 1.02772 0.08656 0.94382 0.0
C1057 C 1.04052 0.09819 0.97188 0.0
C1058 C 0.0687 0.08654 0.98273 0.0
C1059 C 0.08296 0.06183 0.96722 0.0
C1060 C 0.07003 0.05015 0.93927 0.0
O1061 O 0.97188 0.05689 0.81927 0.0
O1062 O 0.99613 1.00995 0.81964 0.0
O1063 O 0.89298 1.02485 0.82193 0.0
O1064 O 0.92592 0.99305 0.83935 0.0
C1065 C 0.90005 0.99583 0.82377 0.0
O1066 O 0.95395 0.9936 0.90301 0.0
O1067 O 0.92924 1.03985 0.89985 0.0
O1068 O 1.04149 1.02568 0.88497 0.0
O1069 O 0.99832 0.05094 0.89418 0.0
H1070 H 1.00564 0.09529 0.93578 0.0
H1071 H 0.07739 0.09396 1.00547 0.0
H1072 H 0.08073 1.03041 0.92793 0.0
O1073 O 0.74826 0.1957 0.61427 0.0
Tb1074 Tb 0.79001 0.22273 0.60665 0.0
Eu1075 Eu 0.8382 0.27805 0.62086 0.0
C1076 C 0.75043 0.17054 0.63106 0.0
O1077 O 0.77664 0.1646 0.64535 0.0
C1078 C 0.80239 0.26753 0.55477 0.0
O1079 O 0.88114 0.29356 0.65084 0.0
C1080 C 0.79073 0.30548 0.64505 0.0
C1081 C 0.88214 0.2884 0.68149 0.0
O1082 O 0.85747 0.27663 0.69492 0.0
C1083 C 0.83197 0.21861 0.66165 0.0
C1084 C 0.78025 0.31485 0.67645 0.0
C1085 C 0.75629 0.2981 0.6913 0.0
C1086 C 0.74728 0.30626 0.7217 0.0
C1087 C 0.76195 0.3314 0.73692 0.0
C1088 C 0.78653 0.3472 0.72286 0.0
C1089 C 0.79546 0.33925 0.69267 0.0
O1090 O 0.7796 0.2586 0.57323 0.0
O1091 O 0.83069 0.27253 0.56725 0.0
O1092 O 0.79968 0.18026 0.58165 0.0
O1093 O 0.83609 0.21402 0.5873 0.0
C1094 C 0.82808 0.18745 0.57506 0.0
O1095 O 0.85196 0.23423 0.64507 0.0
O1096 O 0.80248 0.22029 0.65524 0.0
O1097 O 0.81484 0.3206 0.63359 0.0
O1098 O 0.79118 0.27558 0.63905 0.0
H1099 H 0.74572 0.27794 0.67989 0.0
H1100 H 0.7564 0.33663 0.76104 0.0
H1101 H 0.815 0.35142 0.68248 0.0
O1102 O 0.62884 0.97987 0.38364 0.0
Tb1103 Tb 0.62506 1.02735 0.36795 0.0
Eu1104 Eu 0.57903 0.08318 0.37631 0.0
C1105 C 0.64882 0.96002 0.37232 0.0
O1106 O 0.65133 0.93272 0.38492 0.0
C1107 C 0.58617 0.0459 0.30944 0.0
O1108 O 0.56181 0.12892 0.39959 0.0
C1109 C 0.54614 1.03847 0.39992 0.0
C1110 C 0.56639 0.13389 0.43004 0.0
O1111 O 0.58029 0.11234 0.44587 0.0
C1112 C 0.6397 0.07403 0.41944 0.0
C1113 C 0.53353 1.02821 0.43006 0.0
C1114 C 0.54739 1.00349 0.44579 0.0
C1115 C 0.53581 0.99383 0.47459 0.0
C1116 C 0.50986 1.00849 0.48722 0.0
C1117 C 0.49677 1.03387 0.47251 0.0
C1118 C 0.50835 0.04352 0.44389 0.0
O1119 O 0.59293 1.02218 0.32752 0.0
O1120 O 0.58356 0.07419 0.32261 0.0
O1121 O 0.67169 1.03344 0.34982 0.0
O1122 O 0.63951 0.07082 0.34867 0.0
C1123 C 0.66748 0.06228 0.34245 0.0
O1124 O 0.62462 0.09409 0.40242 0.0
O1125 O 0.63358 0.04441 0.41544 0.0
O1126 O 0.53384 0.06305 0.38728 0.0
O1127 O 0.57635 1.0374 0.39658 0.0
H1128 H 0.56801 0.99269 0.43641 0.0
H1129 H 0.5021 1.00249 0.51035 0.0
H1130 H 0.49842 0.06366 0.43317 0.0
O1131 O 0.84501 0.9111 0.109 0.0
Tb1132 Tb 0.80986 0.87521 0.11141 0.0
Eu1133 Eu 0.76308 0.82402 0.13103 0.0
C1134 C 0.87048 0.91164 0.12549 0.0
O1135 O 0.87583 0.8896 0.14538 0.0
C1136 C 0.80013 0.82208 0.065 0.0
O1137 O 0.71635 0.80826 0.15275 0.0
C1138 C 0.80458 0.78767 0.15293 0.0
C1139 C 0.69617 0.82834 0.16445 0.0
O1140 O 0.69945 0.85773 0.1578 0.0
C1141 C 0.78167 0.8845 0.17538 0.0
C1142 C 0.81495 0.77691 0.18346 0.0
C1143 C 0.8394 0.79273 0.19887 0.0
C1144 C 0.8477 0.78483 0.22899 0.0
C1145 C 0.83276 0.76009 0.24343 0.0
C1146 C 0.80809 0.74434 0.22856 0.0
C1147 C 0.79924 0.7526 0.19849 0.0
O1148 O 0.82289 0.83621 0.08081 0.0
O1149 O 0.77164 0.82167 0.07757 0.0
O1150 O 0.79122 0.90864 0.0802 0.0
O1151 O 0.75974 0.87732 0.10227 0.0
C1152 C 0.76265 0.89939 0.08237 0.0
O1153 O 0.75915 0.86611 0.16457 0.0
O1154 O 0.80846 0.88504 0.16116 0.0
O1155 O 0.7771 0.77775 0.14309 0.0
O1156 O 0.81014 0.81708 0.14709 0.0
H1157 H 0.85078 0.81247 0.18833 0.0
H1158 H 0.83816 0.75527 0.26755 0.0
H1159 H 0.77934 0.74107 0.1876 0.0
O1160 O 0.69861 0.94319 0.97741 0.0
Tb1161 Tb 0.71398 0.95207 1.02512 0.0
Eu1162 Eu 0.70646 1.00141 0.08052 0.0
C1163 C 0.70892 0.92082 0.95937 0.0
O1164 O 0.69725 0.917 0.93128 0.0
C1165 C 0.77196 0.9917 0.04367 0.0
O1166 O 0.68123 1.02087 0.12409 0.0
C1167 C 0.68595 1.03662 1.03704 0.0
C1168 C 0.66616 1.00319 0.14424 0.0
O1169 O 0.67233 0.97357 0.14524 0.0
C1170 C 0.65983 0.94244 0.06751 0.0
C1171 C 0.65651 0.05038 1.0264 0.0
C1172 C 0.63999 1.03549 1.00206 0.0
C1173 C 0.61158 0.04688 0.99209 0.0
C1174 C 0.60003 0.07421 1.00521 0.0
C1175 C 0.61554 0.08911 1.0301 0.0
C1176 C 0.64393 0.07715 1.04074 0.0
O1177 O 0.75299 0.98522 1.01988 0.0
O1178 O 0.75975 0.99467 0.07224 0.0
O1179 O 0.73453 0.90764 1.03489 0.0
O1180 O 0.72927 0.94074 0.07151 0.0
C1181 C 0.73827 0.91306 0.06464 0.0
O1182 O 0.67649 0.95802 0.0884 0.0
O1183 O 0.66546 0.94654 1.03804 0.0
O1184 O 0.69848 0.04763 0.06304 0.0
O1185 O 0.68816 1.00634 1.03386 0.0
H1186 H 0.64841 1.01411 0.99173 0.0
H1187 H 0.57708 0.08187 0.99843 0.0
H1188 H 0.65535 0.08792 0.06078 0.0
O1189 O 0.2076 0.64892 0.10555 0.0
Tb1190 Tb 0.21538 0.62853 0.06025 0.0
Eu1191 Eu 0.20384 0.58688 1.00432 0.0
C1192 C 0.22794 0.64495 0.12761 0.0
O1193 O 0.23928 0.61715 0.13114 0.0
C1194 C 0.27101 0.58943 1.03997 0.0
O1195 O 0.18057 0.57066 0.95797 0.0
C1196 C 0.1838 0.54803 0.04522 0.0
C1197 C 0.16576 0.58958 0.93901 0.0
O1198 O 0.17032 0.61959 0.94206 0.0
C1199 C 0.15552 0.64032 1.02505 0.0
C1200 C 0.15399 0.53515 0.05648 0.0
C1201 C 0.13856 0.54997 0.08129 0.0
C1202 C 0.1097 0.53886 0.09132 0.0
C1203 C 0.0966 0.51224 0.07733 0.0
C1204 C 0.11107 0.49786 0.05196 0.0
C1205 C 0.13992 0.50909 1.04174 0.0
O1206 O 0.25273 0.59418 0.06435 0.0
O1207 O 0.25791 0.59103 1.01162 0.0
O1208 O 0.24365 0.6696 0.05412 0.0
O1209 O 0.22648 0.645 1.01405 0.0
C1210 C 0.24304 0.66842 1.024 0.0
O1211 O 0.17009 0.62774 1.00124 0.0
O1212 O 0.16564 0.63487 0.05316 0.0
O1213 O 0.193 0.53941 1.01726 0.0
O1214 O 0.18917 0.57749 0.0514 0.0
H1215 H 0.14816 0.57099 0.09194 0.0
H1216 H 0.07331 0.50488 0.08381 0.0
H1217 H 0.1505 0.4984 1.02148 0.0
O1218 O 0.18623 0.46757 0.84372 0.0
Tb1219 Tb 0.21576 0.46685 0.80331 0.0
Eu1220 Eu 0.26822 0.45371 0.75565 0.0
C1221 C 0.16091 0.44995 0.8436 0.0
O1222 O 0.157 0.42868 0.82165 0.0
C1223 C 0.26144 0.52122 0.79089 0.0
O1224 O 0.28281 0.42977 0.70958 0.0
C1225 C 0.30449 0.43328 0.7986 0.0
C1226 C 0.2822 0.3989 0.70729 0.0
O1227 O 0.2747 0.38293 0.73187 0.0
C1228 C 0.21283 0.4059 0.77069 0.0
C1229 C 0.31582 0.40336 0.80989 0.0
C1230 C 0.30035 0.38879 0.83449 0.0
C1231 C 0.3098 0.35979 0.84453 0.0
C1232 C 0.33548 0.34568 0.83079 0.0
C1233 C 0.35059 0.35945 0.80572 0.0
C1234 C 0.34092 0.38837 0.7954 0.0
O1235 O 0.24947 0.50469 0.81375 0.0
O1236 O 0.26541 0.50744 0.76297 0.0
O1237 O 0.17172 0.48152 0.78405 0.0
O1238 O 0.21103 0.48045 0.75478 0.0
C1239 C 0.18164 0.48623 0.75621 0.0
O1240 O 0.22621 0.421 0.74796 0.0
O1241 O 0.216 0.41688 0.79904 0.0
O1242 O 0.31473 0.44259 0.77145 0.0
O1243 O 0.27485 0.43895 0.80308 0.0
H1244 H 0.28001 0.39918 0.8449 0.0
H1245 H 0.34157 0.32237 0.83735 0.0
H1246 H 0.3521 0.39837 0.77535 0.0
O1247 O 0.38894 0.45916 0.60259 0.0
Tb1248 Tb 0.36712 0.45277 0.55653 0.0
Eu1249 Eu 0.37213 0.49569 0.50051 0.0
C1250 C 0.391 0.43889 0.62508 0.0
O1251 O 0.40859 0.44573 0.64936 0.0
C1252 C 0.30737 0.48941 0.53897 0.0
O1253 O 0.39104 0.51101 0.45304 0.0
C1254 C 0.39564 0.53313 0.5428 0.0
C1255 C 0.42112 0.50773 0.44688 0.0
O1256 O 0.4394 0.49701 0.46859 0.0
C1257 C 0.41893 0.43872 0.51055 0.0
C1258 C 0.42456 0.54837 0.55459 0.0
C1259 C 0.44062 0.53545 0.5797 0.0
C1260 C 0.46794 0.54947 0.59138 0.0
C1261 C 0.47869 0.57721 0.57874 0.0
C1262 C 0.46375 0.5898 0.55297 0.0
C1263 C 0.43648 0.57553 0.54112 0.0
O1264 O 0.32655 0.48353 0.56242 0.0
O1265 O 0.31903 0.49036 0.51018 0.0
O1266 O 0.34745 0.40655 0.55222 0.0
O1267 O 0.34813 0.43586 0.51249 0.0
C1268 C 0.34039 0.40881 0.52285 0.0
O1269 O 0.40098 0.45239 0.49015 0.0
O1270 O 0.41439 0.44415 0.54025 0.0
O1271 O 0.38355 0.5427 0.51653 0.0
O1272 O 0.39301 0.50304 0.54618 0.0
H1273 H 0.43278 0.51368 0.58933 0.0
H1274 H 0.50099 0.58678 0.58638 0.0
H1275 H 0.42549 0.58489 0.52066 0.0
O1276 O 0.87301 0.13955 0.83974 0.0
Tb1277 Tb 0.88023 0.12219 0.79205 0.0
Eu1278 Eu 0.84484 0.14452 0.73408 0.0
C1279 C 0.89024 0.13369 0.86428 0.0
O1280 O 0.88602 0.14968 0.89015 0.0
C1281 C 0.83704 0.0777 0.75587 0.0
O1282 O 0.82812 0.17344 0.69408 0.0
C1283 C 0.81361 0.16177 0.78307 0.0
C1284 C 0.84287 0.19935 0.68692 0.0
O1285 O 0.8681 0.20798 0.70208 0.0
C1286 C 0.91006 0.176 0.75396 0.0
C1287 C 0.79813 0.18863 0.7976 0.0
C1288 C 0.81156 0.20333 0.82402 0.0
C1289 C 0.79787 0.22962 0.83748 0.0
C1290 C 0.77006 0.24056 0.82505 0.0
C1291 C 0.7571 0.2268 0.7981 0.0
C1292 C 0.7709 0.20065 0.78467 0.0
O1293 O 0.83772 0.09492 0.78175 0.0
O1294 O 0.84399 0.09182 0.72988 0.0
O1295 O 0.909 0.08134 0.79332 0.0
O1296 O 0.90268 0.10558 0.75047 0.0
C1297 C 0.91364 0.08111 0.76343 0.0
O1298 O 0.89423 0.16358 0.73047 0.0
O1299 O 0.90443 0.16671 0.78244 0.0
O1300 O 0.80067 0.14894 0.75812 0.0
O1301 O 0.84395 0.16321 0.78143 0.0
H1302 H 0.83357 0.19542 0.83312 0.0
H1303 H 0.76071 0.26217 0.83395 0.0
H1304 H 0.76124 0.19084 0.76326 0.0
O1305 O 0.88679 0.12095 0.47652 0.0
Tb1306 Tb 0.87032 0.12198 0.52424 0.0
Eu1307 Eu 0.87601 0.07718 0.58011 0.0
C1308 C 0.87677 0.13961 0.45512 0.0
O1309 O 0.88854 0.13807 0.42705 0.0
C1310 C 0.80914 0.08739 0.54375 0.0
O1311 O 0.89984 0.06054 0.62531 0.0
C1312 C 0.89862 1.04208 0.53621 0.0
C1313 C 0.93081 0.06181 0.62773 0.0
O1314 O 0.94672 0.07266 0.60427 0.0
C1315 C 0.92192 0.13595 0.57032 0.0
C1316 C 0.92859 1.02922 0.52546 0.0
C1317 C 0.944 1.04304 0.50034 0.0
C1318 C 0.97258 1.03179 0.48996 0.0
C1319 C 0.98532 1.00587 0.50394 0.0
C1320 C 0.97104 0.99251 0.52971 0.0
C1321 C 0.94258 1.0041 0.54041 0.0
O1322 O 0.82751 0.093 0.51965 0.0
O1323 O 0.82235 0.08392 0.57189 0.0
O1324 O 0.85572 0.1697 0.52925 0.0
O1325 O 0.85171 0.1387 0.56757 0.0
C1326 C 0.84794 0.16675 0.55841 0.0
O1327 O 0.90426 0.12165 0.5907 0.0
O1328 O 0.918 0.12925 0.54072 0.0
O1329 O 0.88629 1.03104 0.56176 0.0
O1330 O 0.89529 0.0721 0.53375 0.0
H1331 H 0.9346 0.06352 0.48975 0.0
H1332 H 1.00833 0.9984 0.49711 0.0
H1333 H 0.93209 0.99425 0.5609 0.0
O1334 O 0.22707 0.62405 0.72335 0.0
Tb1335 Tb 0.22203 0.60528 0.77004 0.0
Eu1336 Eu 0.26736 0.62445 0.8285 0.0
C1337 C 0.20584 0.62764 0.70147 0.0
O1338 O 0.21411 0.64195 0.67607 0.0
C1339 C 0.26493 0.55638 0.79517 0.0
O1340 O 0.28452 0.65354 0.87178 0.0
C1341 C 0.29822 0.64732 0.78226 0.0
C1342 C 0.2652 0.66857 0.89073 0.0
O1343 O 0.23546 0.66174 0.88939 0.0
C1344 C 0.20188 0.65881 0.81361 0.0
C1345 C 0.31048 0.67761 0.77163 0.0
C1346 C 0.29541 0.69269 0.74711 0.0
C1347 C 0.30613 0.72168 0.73718 0.0
C1348 C 0.33261 0.7352 0.75109 0.0
C1349 C 0.34707 0.72128 0.77638 0.0
C1350 C 0.33615 0.69239 0.78649 0.0
O1351 O 0.26156 0.57394 0.77061 0.0
O1352 O 0.26429 0.57044 0.82318 0.0
O1353 O 0.18457 0.5715 0.77498 0.0
O1354 O 0.20691 0.59207 0.81556 0.0
C1355 C 0.18609 0.57242 0.80535 0.0
O1356 O 0.2201 0.64681 0.83479 0.0
O1357 O 0.20472 0.65097 0.78407 0.0
O1358 O 0.31164 0.63505 0.80662 0.0
O1359 O 0.26788 0.64351 0.782 0.0
H1360 H 0.27451 0.68261 0.73667 0.0
H1361 H 0.33966 0.75847 0.74474 0.0
H1362 H 0.34687 0.68223 0.80668 0.0
O1363 O 0.33979 0.52583 0.23585 0.0
Tb1364 Tb 0.35282 0.4761 0.2421 0.0
Eu1365 Eu 0.37474 0.39866 0.29038 0.0
C1366 C 0.33379 0.54501 0.25973 0.0
O1367 O 0.33134 0.53328 0.28755 0.0
C1368 C 0.38095 0.46903 0.30923 0.0
O1369 O 0.41754 0.37259 0.30448 0.0
C1370 C 0.32132 0.37679 0.30775 0.0
C1371 C 0.44307 0.37953 0.28945 0.0
O1372 O 0.44058 0.39686 0.26481 0.0
C1373 C 0.34715 0.40646 0.22519 0.0
C1374 C 0.29881 0.37363 0.33277 0.0
C1375 C 0.26765 0.36684 0.32466 0.0
C1376 C 0.2455 0.36256 0.34797 0.0
C1377 C 0.25409 0.37114 0.37854 0.0
C1378 C 0.28569 0.36947 0.38721 0.0
C1379 C 0.30822 0.37309 0.36413 0.0
O1380 O 0.35493 0.47259 0.29306 0.0
O1381 O 0.391 0.44135 0.31549 0.0
O1382 O 0.38149 0.46923 0.20089 0.0
O1383 O 0.40294 0.47084 0.24565 0.0
C1384 C 0.40751 0.46725 0.21603 0.0
O1385 O 0.37424 0.4089 0.23933 0.0
O1386 O 0.32955 0.43173 0.22601 0.0
O1387 O 0.32525 0.40475 0.29685 0.0
O1388 O 0.3471 0.3609 0.30954 0.0
H1389 H 0.26161 0.36128 0.30065 0.0
H1390 H 0.23637 0.3688 0.39623 0.0
H1391 H 0.3327 0.37374 0.37021 0.0
O1392 O 0.60575 0.88995 0.61548 0.0
Tb1393 Tb 0.56073 0.86705 0.6224 0.0
Eu1394 Eu 0.50296 0.88029 0.5784 0.0
C1395 C 0.63173 0.88865 0.63177 0.0
O1396 O 0.65578 0.9049 0.62227 0.0
C1397 C 0.53592 0.8124 0.58327 0.0
O1398 O 0.45911 0.90627 0.56155 0.0
C1399 C 0.54829 0.90411 0.5466 0.0
C1400 C 0.45714 0.93704 0.56505 0.0
O1401 O 0.48021 0.95217 0.57883 0.0
C1402 C 0.51501 0.91899 0.64336 0.0
C1403 C 0.55887 0.93416 0.53377 0.0
C1404 C 0.58343 0.95069 0.54858 0.0
C1405 C 0.59383 0.97918 0.53711 0.0
C1406 C 0.58042 0.99073 0.51009 0.0
C1407 C 0.55506 0.97549 0.49581 0.0
C1408 C 0.54435 0.9471 0.50756 0.0
O1409 O 0.56076 0.83076 0.58581 0.0
O1410 O 0.50818 0.82624 0.583 0.0
O1411 O 0.55965 0.83434 0.65978 0.0
O1412 O 0.51681 0.85074 0.63909 0.0
C1413 C 0.52928 0.83193 0.6586 0.0
O1414 O 0.49414 0.90537 0.62477 0.0
O1415 O 0.54466 0.912 0.64105 0.0
O1416 O 0.52385 0.89029 0.53362 0.0
O1417 O 0.54903 0.9016 0.57702 0.0
H1418 H 0.59364 0.94213 0.56981 0.0
H1419 H 0.58723 1.01364 0.50239 0.0
H1420 H 0.52411 0.93589 0.49701 0.0
O1421 O 0.45654 0.35479 0.86156 0.0
Tb1422 Tb 0.47617 0.31014 0.87286 0.0
Eu1423 Eu 0.46153 0.25059 0.83559 0.0
C1424 C 0.46405 0.38132 0.87499 0.0
O1425 O 0.4525 0.40691 0.86402 0.0
C1426 C 0.53035 0.2838 0.83557 0.0
O1427 O 0.43362 0.20594 0.82035 0.0
C1428 C 0.44343 0.29307 0.79792 0.0
C1429 C 0.41692 0.18864 0.83978 0.0
O1430 O 0.42158 0.19196 0.86982 0.0
C1431 C 0.41706 0.27344 0.89367 0.0
C1432 C 0.41442 0.30448 0.78414 0.0
C1433 C 0.39948 0.33012 0.79786 0.0
C1434 C 0.37077 0.33982 0.78644 0.0
C1435 C 0.35747 0.32458 0.76059 0.0
C1436 C 0.37162 0.29852 0.74742 0.0
C1437 C 0.40021 0.2887 0.75887 0.0
O1438 O 0.51253 0.30851 0.83703 0.0
O1439 O 0.51619 0.25613 0.8392 0.0
O1440 O 0.50894 0.30775 0.91079 0.0
O1441 O 0.4871 0.26582 0.89102 0.0
C1442 C 0.50771 0.27734 0.91043 0.0
O1443 O 0.42887 0.24993 0.87782 0.0
O1444 O 0.4293 0.30137 0.89113 0.0
O1445 O 0.45354 0.26591 0.78826 0.0
O1446 O 0.44637 0.29738 0.82802 0.0
H1447 H 0.40918 0.34148 0.81848 0.0
H1448 H 0.33427 0.33075 0.75303 0.0
H1449 H 0.41037 0.26788 0.7491 0.0
O1450 O 0.99 0.22418 0.156 0.0
Tb1451 Tb 1.03206 0.22869 0.12923 0.0
Eu1452 Eu 0.07819 0.20957 0.0786 0.0
C1453 C 0.99257 0.21493 0.18482 0.0
O1454 O 1.01999 0.20851 0.19635 0.0
C1455 C 1.04362 0.2763 0.07956 0.0
O1456 O 0.11921 0.18117 0.05846 0.0
C1457 C 1.03046 0.18595 0.04881 0.0
C1458 C 0.14121 0.16749 0.07512 0.0
O1459 O 0.14562 0.17573 0.10437 0.0
C1460 C 0.06987 0.17157 0.14242 0.0
C1461 C 1.01884 0.15642 1.03453 0.0
C1462 C 0.99398 0.1402 0.04823 0.0
C1463 C 0.98276 0.11224 1.03487 0.0
C1464 C 0.99576 0.10107 1.00715 0.0
C1465 C 1.02142 0.11607 0.99404 0.0
C1466 C 1.03271 0.14388 1.00754 0.0
O1467 O 1.02071 0.25866 0.09012 0.0
O1468 O 0.07189 0.26359 0.07814 0.0
O1469 O 0.04535 0.26272 0.16457 0.0
O1470 O 0.08045 0.24398 0.13521 0.0
C1471 C 0.07435 0.26422 0.15682 0.0
O1472 O 0.09008 0.18524 0.12414 0.0
O1473 O 1.04089 0.18027 0.14104 0.0
O1474 O 0.05414 0.19956 1.03515 0.0
O1475 O 1.03181 0.18813 0.07936 0.0
H1476 H 0.98429 0.14851 0.07001 0.0
H1477 H 0.98853 0.07846 0.99804 0.0
H1478 H 0.05307 0.15489 0.99764 0.0
O1479 O 0.13825 0.73422 0.36733 0.0
Tb1480 Tb 0.11678 0.77977 0.37322 0.0
Eu1481 Eu 0.13063 0.83757 0.33035 0.0
C1482 C 0.13834 0.71021 0.38593 0.0
O1483 O 0.15514 0.68621 0.37793 0.0
C1484 C 0.06259 0.8022 0.33389 0.0
O1485 O 0.15419 0.88377 0.31549 0.0
C1486 C 0.15499 0.79425 0.29576 0.0
C1487 C 0.18407 0.8898 0.32218 0.0
O1488 O 0.19997 0.86904 0.33716 0.0
C1489 C 0.17002 0.82574 0.39413 0.0
C1490 C 0.18473 0.78443 0.28131 0.0
C1491 C 0.20107 0.75941 0.29376 0.0
C1492 C 0.22902 0.7495 0.28031 0.0
C1493 C 0.24005 0.76395 0.25361 0.0
C1494 C 0.22513 0.78983 0.24179 0.0
C1495 C 0.19733 0.7999 0.2555 0.0
O1496 O 0.08087 0.77795 0.33655 0.0
O1497 O 0.07641 0.83026 0.33422 0.0
O1498 O 0.08284 0.78363 0.40997 0.0
O1499 O 0.10226 0.82477 0.38884 0.0
C1500 C 0.08231 0.81385 0.40842 0.0
O1501 O 0.15658 0.84641 0.3764 0.0
O1502 O 0.16236 0.79612 0.39129 0.0
O1503 O 0.14123 0.81868 0.28443 0.0
O1504 O 0.15268 0.79251 0.32618 0.0
H1505 H 0.1928 0.7484 0.31467 0.0
H1506 H 0.26265 0.75768 0.2445 0.0
H1507 H 0.1864 0.82051 0.24684 0.0
O1508 O 0.60764 0.20238 0.96902 0.0
Tb1509 Tb 0.56217 0.2233 0.96147 0.0
Eu1510 Eu 0.50577 0.20843 1.00515 0.0
C1511 C 0.63298 0.20347 0.95192 0.0
O1512 O 0.65726 0.18792 0.96116 0.0
C1513 C 0.5391 0.27699 1.00184 0.0
O1514 O 0.45985 0.18519 1.0215 0.0
C1515 C 0.55065 0.18444 1.03735 0.0
C1516 C 0.45439 0.15514 1.01565 0.0
O1517 O 0.47564 0.13918 1.00088 0.0
C1518 C 0.51723 0.16897 0.94075 0.0
C1519 C 0.56141 0.15472 0.0505 0.0
C1520 C 0.58648 0.13889 1.03669 0.0
C1521 C 0.59727 0.11109 0.04919 0.0
C1522 C 0.58353 0.09964 0.07611 0.0
C1523 C 0.55757 0.11399 0.08915 0.0
C1524 C 0.54672 0.14165 0.07653 0.0
O1525 O 0.56376 0.25931 0.99838 0.0
O1526 O 0.51132 0.26259 1.002 0.0
O1527 O 0.55814 0.25717 0.92525 0.0
O1528 O 0.51694 0.23757 0.94696 0.0
C1529 C 0.52777 0.25786 0.92776 0.0
O1530 O 0.49648 0.18207 0.95919 0.0
O1531 O 0.54675 0.17764 0.94252 0.0
O1532 O 0.52622 0.19758 0.05001 0.0
O1533 O 0.55148 0.18722 1.00698 0.0
H1534 H 0.59674 0.1474 1.01547 0.0
H1535 H 0.59043 0.07718 0.0845 0.0
H1536 H 0.52619 0.1522 0.08635 0.0
O1537 O 0.13786 0.36828 0.21159 0.0
Tb1538 Tb 0.12301 0.32007 0.21517 0.0
Eu1539 Eu 0.1322 0.26126 0.25853 0.0
C1540 C 0.12502 0.38815 0.19295 0.0
O1541 O 0.13622 0.41654 0.19186 0.0
C1542 C 0.06464 0.29974 0.25201 0.0
O1543 O 0.15653 0.2146 0.27088 0.0
C1544 C 0.15591 0.29856 0.30097 0.0
C1545 C 0.17216 0.19668 0.25072 0.0
O1546 O 0.16731 0.19975 0.22083 0.0
C1547 C 0.17687 0.27827 0.19949 0.0
C1548 C 0.18366 0.30201 0.32175 0.0
C1549 C 0.19993 0.33081 0.32384 0.0
C1550 C 0.22464 0.33484 0.34521 0.0
C1551 C 0.23289 0.31013 0.36382 0.0
C1552 C 0.21763 0.28167 0.36241 0.0
C1553 C 0.1932 0.27725 0.3408 0.0
O1554 O 0.08303 0.32411 0.24704 0.0
O1555 O 0.07794 0.27155 0.25315 0.0
O1556 O 0.1012 0.31248 0.16994 0.0
O1557 O 0.10685 0.27453 0.20056 0.0
C1558 C 0.09696 0.28276 0.17361 0.0
O1559 O 0.16063 0.25671 0.21364 0.0
O1560 O 0.17118 0.30745 0.20586 0.0
O1561 O 0.13675 0.27542 0.3069 0.0
O1562 O 0.15925 0.30334 0.27098 0.0
H1563 H 0.19338 0.34979 0.30917 0.0
H1564 H 0.25356 0.31229 0.3783 0.0
H1565 H 0.18204 0.25465 0.33865 0.0
O1566 O 0.9786 0.88324 0.47051 0.0
Tb1567 Tb 1.02434 0.8642 0.45997 0.0
Eu1568 Eu 0.08054 0.88053 0.49904 0.0
C1569 C 0.95604 0.88762 0.45034 0.0
O1570 O 0.93088 0.90183 0.45968 0.0
C1571 C 0.04992 0.81121 0.49831 0.0
O1572 O 0.12539 0.90639 0.51578 0.0
C1573 C 1.03661 0.89887 0.53596 0.0
C1574 C 0.14457 0.92102 0.49659 0.0
O1575 O 0.14213 0.9156 0.46655 0.0
C1576 C 0.06044 0.92393 0.43979 0.0
C1577 C 1.02511 0.92792 0.55018 0.0
C1578 C 0.99977 0.94323 0.53671 0.0
C1579 C 0.99 0.97186 0.54883 0.0
C1580 C 1.00505 0.9847 0.57508 0.0
C1581 C 1.03083 0.97014 0.58803 0.0
C1582 C 1.04054 0.94166 0.57591 0.0
O1583 O 1.02466 0.82811 0.49558 0.0
O1584 O 0.07729 0.8261 0.49555 0.0
O1585 O 1.03085 0.83033 0.42324 0.0
O1586 O 0.07056 0.85505 0.44418 0.0
C1587 C 0.06117 0.83329 0.4248 0.0
O1588 O 0.08304 0.91392 0.45783 0.0
O1589 O 1.03286 0.91027 0.44029 0.0
O1590 O 0.06343 0.88848 0.54599 0.0
O1591 O 1.03322 0.8959 0.50574 0.0
H1592 H 0.98875 0.93387 0.51577 0.0
H1593 H 0.99902 1.0078 0.58318 0.0
H1594 H 0.06108 0.93117 0.58563 0.0
O1595 O 0.45519 0.73625 0.72497 0.0
Tb1596 Tb 0.47652 0.78092 0.71444 0.0
Eu1597 Eu 0.46272 0.83704 0.75574 0.0
C1598 C 0.46412 0.70961 0.71338 0.0
O1599 O 0.45199 0.68388 0.72406 0.0
C1600 C 0.53197 0.80498 0.75362 0.0
O1601 O 0.43588 0.88047 0.77318 0.0
C1602 C 0.44001 0.7908 0.78668 0.0
C1603 C 0.4054 0.88298 0.76761 0.0
O1604 O 0.39112 0.86053 0.75199 0.0
C1605 C 0.42399 0.82328 0.69087 0.0
C1606 C 0.41065 0.77843 0.79954 0.0
C1607 C 0.39578 0.75273 0.78486 0.0
C1608 C 0.36757 0.74102 0.79624 0.0
C1609 C 0.35471 0.75446 0.82296 0.0
C1610 C 0.3685 0.78078 0.83697 0.0
C1611 C 0.39657 0.7926 0.82548 0.0
O1612 O 0.51437 0.77988 0.74919 0.0
O1613 O 0.5175 0.83241 0.75366 0.0
O1614 O 0.50787 0.78272 0.67554 0.0
O1615 O 0.49298 0.82501 0.69936 0.0
C1616 C 0.51077 0.81297 0.67816 0.0
O1617 O 0.43725 0.84474 0.70924 0.0
O1618 O 0.43165 0.79404 0.69376 0.0
O1619 O 0.45274 0.81557 0.80014 0.0
O1620 O 0.442 0.791 0.75631 0.0
H1621 H 0.40527 0.74273 0.76372 0.0
H1622 H 0.33188 0.74679 0.83056 0.0
H1623 H 0.40653 0.81356 0.83592 0.0
O1624 O 0.64678 0.60147 0.87384 0.0
Tb1625 Tb 0.622 0.55861 0.86583 0.0
Eu1626 Eu 0.57743 0.506 0.87799 0.0
C1627 C 0.6386 0.62701 0.86054 0.0
O1628 O 0.61027 0.62929 0.84935 0.0
C1629 C 0.58104 0.5412 0.81032 0.0
O1630 O 0.56291 0.46045 0.90254 0.0
C1631 C 0.54051 0.54754 0.90045 0.0
C1632 C 0.56168 0.45932 0.93364 0.0
O1633 O 0.56806 0.48462 0.94998 0.0
C1634 C 0.63484 0.52264 0.92534 0.0
C1635 C 0.52819 0.55769 0.93102 0.0
C1636 C 0.54349 0.58174 0.94785 0.0
C1637 C 0.53291 0.59097 0.97722 0.0
C1638 C 0.50632 0.57703 0.98951 0.0
C1639 C 0.49137 0.5524 0.97367 0.0
C1640 C 0.50219 0.5428 0.94434 0.0
O1641 O 0.58654 0.56518 0.8294 0.0
O1642 O 0.5812 0.51301 0.82335 0.0
O1643 O 0.65962 0.55114 0.83357 0.0
O1644 O 0.63642 0.51199 0.85356 0.0
C1645 C 0.65749 0.52118 0.83427 0.0
O1646 O 0.61944 0.49986 0.91087 0.0
O1647 O 0.63179 0.55093 0.91518 0.0
O1648 O 0.53052 0.52066 0.88897 0.0
O1649 O 0.57033 0.55267 0.89577 0.0
H1650 H 0.56449 0.59239 0.93886 0.0
H1651 H 0.49931 0.58303 1.01306 0.0
H1652 H 0.49112 0.52308 0.93265 0.0
O1653 O 0.73277 0.37343 0.13278 0.0
Tb1654 Tb 0.7783 0.38112 0.11142 0.0
Eu1655 Eu 0.83359 0.33841 0.12776 0.0
C1656 C 0.70737 0.39011 0.13142 0.0
O1657 O 0.68303 0.38092 0.14727 0.0
C1658 C 0.80127 0.33947 0.05834 0.0
O1659 O 0.87844 0.32281 0.15309 0.0
C1660 C 0.78835 0.30585 0.15142 0.0
C1661 C 0.88317 0.32962 0.18322 0.0
O1662 O 0.86192 0.34524 0.19834 0.0
C1663 C 0.82194 0.40336 0.16605 0.0
C1664 C 0.77766 0.29148 0.18081 0.0
C1665 C 0.75152 0.30326 0.19653 0.0
C1666 C 0.74077 0.28957 0.22403 0.0
C1667 C 0.7557 0.26336 0.23517 0.0
C1668 C 0.78263 0.25233 0.22091 0.0
C1669 C 0.79342 0.26622 0.19362 0.0
O1670 O 0.77643 0.3437 0.07587 0.0
O1671 O 0.82887 0.34012 0.07303 0.0
O1672 O 0.78259 0.41677 0.07692 0.0
O1673 O 0.82371 0.39574 0.09668 0.0
C1674 C 0.81298 0.41463 0.07616 0.0
O1675 O 0.84277 0.38484 0.15334 0.0
O1676 O 0.79261 0.40132 0.157 0.0
O1677 O 0.81252 0.29361 0.13743 0.0
O1678 O 0.78792 0.33623 0.14979 0.0
H1679 H 0.7403 0.32386 0.18817 0.0
H1680 H 0.74879 0.25407 0.25742 0.0
H1681 H 0.81473 0.25802 0.1832 0.0
O1682 O 0.96826 0.47985 0.38623 0.0
Tb1683 Tb 0.96207 0.52451 0.3644 0.0
Eu1684 Eu 1.00788 0.57549 0.37922 0.0
C1685 C 0.95313 0.45434 0.37845 0.0
O1686 O 0.96104 0.42821 0.39122 0.0
C1687 C 1.00229 0.54402 0.30922 0.0
O1688 O 1.03003 0.61843 0.40472 0.0
C1689 C 1.03941 0.52899 0.39927 0.0
C1690 C 1.01273 0.63977 0.41869 0.0
O1691 O 0.98296 0.64047 0.41206 0.0
C1692 C 0.94586 0.56345 0.42332 0.0
C1693 C 0.0517 0.51809 0.42934 0.0
C1694 C 1.03569 0.4947 0.44549 0.0
C1695 C 0.04609 0.48548 0.47484 0.0
C1696 C 0.07309 0.49906 0.48765 0.0
C1697 C 0.08853 0.52311 0.47245 0.0
C1698 C 0.07808 0.53236 0.44321 0.0
O1699 O 0.99549 0.51949 0.32601 0.0
O1700 O 1.00379 0.57151 0.32437 0.0
O1701 O 0.92274 0.53227 0.33462 0.0
O1702 O 0.95062 0.57119 0.35362 0.0
C1703 C 0.92765 0.56245 0.3354 0.0
O1704 O 0.96674 0.58339 0.41271 0.0
O1705 O 0.94306 0.53576 0.41036 0.0
O1706 O 0.0525 0.55385 0.38748 0.0
O1707 O 1.00907 0.52849 0.39611 0.0
H1708 H 1.01427 0.48475 0.43607 0.0
H1709 H 0.07999 0.49343 0.51119 0.0
H1710 H 0.08969 0.55164 0.43215 0.0
O1711 O 0.85109 0.69437 0.61498 0.0
Tb1712 Tb 0.80941 0.72139 0.61174 0.0
Eu1713 Eu 0.7623 0.77439 0.63371 0.0
C1714 C 0.84792 0.66524 0.62281 0.0
O1715 O 0.82009 0.65336 0.62733 0.0
C1716 C 0.79522 0.7693 0.5648 0.0
O1717 O 0.71514 0.7852 0.65643 0.0
C1718 C 0.79952 0.81799 0.65548 0.0
C1719 C 0.7135 0.78794 0.68733 0.0
O1720 O 0.73891 0.78458 0.7039 0.0
C1721 C 0.77672 0.71035 0.6741 0.0
C1722 C 0.81168 0.83034 0.68582 0.0
C1723 C 0.82195 0.80872 0.70742 0.0
C1724 C 0.84119 0.81793 0.73205 0.0
C1725 C 0.84787 0.84942 0.73686 0.0
C1726 C 0.83551 0.87254 0.71798 0.0
C1727 C 0.81762 0.86264 0.69161 0.0
O1728 O 0.81896 0.76088 0.58213 0.0
O1729 O 0.76748 0.77081 0.57899 0.0
O1730 O 0.79459 0.68882 0.57593 0.0
O1731 O 0.76008 0.71238 0.60272 0.0
C1732 C 0.76516 0.69346 0.57952 0.0
O1733 O 0.75669 0.73187 0.66588 0.0
O1734 O 0.80369 0.70884 0.66024 0.0
O1735 O 0.7702 0.82286 0.64862 0.0
O1736 O 0.80855 0.78985 0.64731 0.0
H1737 H 0.81753 0.78417 0.70339 0.0
H1738 H 0.86435 0.85573 0.75489 0.0
H1739 H 0.8104 0.87944 0.67475 0.0
O1740 O 0.64605 0.48887 0.71109 0.0
Tb1741 Tb 0.62069 0.53129 0.7159 0.0
Eu1742 Eu 0.57489 0.58232 0.7071 0.0
C1743 C 0.67217 0.48874 0.69519 0.0
O1744 O 0.67865 0.51176 0.6767 0.0
C1745 C 0.58142 0.54591 0.77437 0.0
O1746 O 0.56004 0.6284 0.68457 0.0
C1747 C 0.53784 0.53985 0.68413 0.0
C1748 C 0.55903 0.63085 0.65359 0.0
O1749 O 0.56548 0.60644 0.63629 0.0
C1750 C 0.63005 0.5686 0.65761 0.0
C1751 C 0.52625 0.52865 0.65342 0.0
C1752 C 0.54234 0.50524 0.63727 0.0
C1753 C 0.53234 0.49508 0.60778 0.0
C1754 C 0.50559 0.50749 0.59469 0.0
C1755 C 0.48987 0.53146 0.60992 0.0
C1756 C 0.50005 0.54193 0.63938 0.0
O1757 O 0.58914 0.5225 0.75551 0.0
O1758 O 0.57872 0.57409 0.7616 0.0
O1759 O 0.66408 0.54487 0.73824 0.0
O1760 O 0.62943 0.57896 0.73062 0.0
C1761 C 0.65673 0.57371 0.74162 0.0
O1762 O 0.61627 0.59075 0.67379 0.0
O1763 O 0.62516 0.53989 0.66604 0.0
O1764 O 0.52801 0.56689 0.6945 0.0
O1765 O 0.56741 0.53527 0.69007 0.0
H1766 H 0.5635 0.49584 0.64685 0.0
H1767 H 0.49901 0.50087 0.57104 0.0
H1768 H 0.48828 0.56108 0.65065 0.0
O1769 O 0.85251 0.41546 0.96806 0.0
Tb1770 Tb 0.81293 0.38393 0.9661 0.0
Eu1771 Eu 0.76461 0.33147 0.95319 0.0
C1772 C 0.85321 0.43823 0.94817 0.0
O1773 O 0.83121 0.44044 0.92715 0.0
C1774 C 0.7981 0.34132 1.02248 0.0
O1775 O 0.72112 0.30966 0.92861 0.0
C1776 C 0.80893 0.29636 0.93383 0.0
C1777 C 0.70077 0.32678 0.91352 0.0
O1778 O 0.70072 0.35675 0.91908 0.0
C1779 C 0.78072 0.38731 0.90461 0.0
C1780 C 0.8204 0.28518 0.90341 0.0
C1781 C 0.84413 0.30201 0.88878 0.0
C1782 C 0.85353 0.29372 0.85889 0.0
C1783 C 0.8405 0.26763 0.84388 0.0
C1784 C 0.81642 0.25085 0.85772 0.0
C1785 C 0.80636 0.25958 0.8876 0.0
O1786 O 0.82151 0.35319 1.00609 0.0
O1787 O 0.77078 0.33547 1.00787 0.0
O1788 O 0.7898 0.42612 0.98007 0.0
O1789 O 0.76391 0.38411 0.97751 0.0
C1790 C 0.76278 0.41328 0.98381 0.0
O1791 O 0.75818 0.37194 0.91863 0.0
O1792 O 0.80902 0.38432 0.91551 0.0
O1793 O 0.78188 0.28536 0.94296 0.0
O1794 O 0.81274 0.32617 0.93991 0.0
H1795 H 0.85415 0.32268 0.89979 0.0
H1796 H 0.84682 0.26237 0.81996 0.0
H1797 H 0.78687 0.24731 0.89775 0.0
O1798 O 0.93441 0.59858 0.21587 0.0
Tb1799 Tb 0.95988 0.55616 0.21694 0.0
Eu1800 Eu 1.0077 0.50587 0.20447 0.0
C1801 C 0.90768 0.59906 0.20074 0.0
O1802 O 0.90024 0.57629 0.18132 0.0
C1803 C 1.00197 0.54064 0.27329 0.0
O1804 O 1.02447 0.46227 0.17659 0.0
C1805 C 1.0413 0.55132 0.18368 0.0
C1806 C 1.00529 0.44177 0.16246 0.0
O1807 O 0.97591 0.44096 0.17037 0.0
C1808 C 0.94846 0.51859 0.15946 0.0
C1809 C 0.05347 0.56275 0.15383 0.0
C1810 C 1.03895 0.58756 0.13896 0.0
C1811 C 0.04982 0.59791 0.1102 0.0
C1812 C 0.0757 0.58393 0.09667 0.0
C1813 C 0.08955 0.55851 0.11058 0.0
C1814 C 0.07871 0.54818 0.13925 0.0
O1815 O 0.99297 0.56429 0.25611 0.0
O1816 O 1.00539 0.51287 0.25902 0.0
O1817 O 0.91658 0.5406 0.23736 0.0
O1818 O 0.95339 0.50873 0.23165 0.0
C1819 C 0.92532 0.51231 0.24103 0.0
O1820 O 0.96332 0.49758 0.17524 0.0
O1821 O 0.95355 0.54767 0.16707 0.0
O1822 O 0.05315 0.52563 0.1944 0.0
O1823 O 1.01118 0.5531 0.18788 0.0
H1824 H 1.01837 0.5979 0.14894 0.0
H1825 H 0.08282 0.59053 0.0735 0.0
H1826 H 0.08914 0.52796 0.14932 0.0
O1827 O 0.73772 0.69686 0.47354 0.0
Tb1828 Tb 0.78186 0.72092 0.47829 0.0
Eu1829 Eu 0.83174 0.76862 0.46036 0.0
C1830 C 0.73789 0.66816 0.46287 0.0
O1831 O 0.76426 0.65511 0.45542 0.0
C1832 C 0.79848 0.76781 0.52905 0.0
O1833 O 0.87666 0.78402 0.43474 0.0
C1834 C 0.78717 0.80106 0.43735 0.0
C1835 C 0.87864 0.78156 0.40375 0.0
O1836 O 0.85437 0.7711 0.38797 0.0
C1837 C 0.81734 0.70709 0.41819 0.0
C1838 C 0.77644 0.81236 0.40686 0.0
C1839 C 0.75134 0.79746 0.39123 0.0
C1840 C 0.74157 0.80752 0.36193 0.0
C1841 C 0.75637 0.83312 0.34871 0.0
C1842 C 0.78211 0.84731 0.36335 0.0
C1843 C 0.79192 0.83717 0.39248 0.0
O1844 O 0.77426 0.75902 0.51178 0.0
O1845 O 0.82631 0.76841 0.51499 0.0
O1846 O 0.79352 0.68391 0.50897 0.0
O1847 O 0.83013 0.71198 0.49045 0.0
C1848 C 0.82308 0.68987 0.50918 0.0
O1849 O 0.83972 0.72447 0.4308 0.0
O1850 O 0.78904 0.70965 0.42902 0.0
O1851 O 0.81307 0.81339 0.44888 0.0
O1852 O 0.78456 0.77112 0.44202 0.0
H1853 H 0.74034 0.77716 0.40107 0.0
H1854 H 0.75025 0.83962 0.32521 0.0
H1855 H 0.81241 0.84783 0.40314 0.0
O1856 O 0.88657 0.62901 0.60672 0.0
Tb1857 Tb 0.86967 0.62879 0.55899 0.0
Eu1858 Eu 0.87534 0.5849 0.50306 0.0
C1859 C 0.875 0.64662 0.62877 0.0
O1860 O 0.88652 0.64559 0.65705 0.0
C1861 C 0.80809 0.59362 0.54015 0.0
O1862 O 0.89824 0.56812 0.45678 0.0
C1863 C 0.89867 0.54992 0.5457 0.0
C1864 C 0.92893 0.57166 0.45281 0.0
O1865 O 0.94543 0.5843 0.47558 0.0
C1866 C 0.92244 0.64365 0.51438 0.0
C1867 C 0.92832 0.53656 0.55669 0.0
C1868 C 0.94501 0.55143 0.58115 0.0
C1869 C 0.97285 0.53911 0.59221 0.0
C1870 C 0.98362 0.51125 0.57947 0.0
C1871 C 0.96816 0.49675 0.5543 0.0
C1872 C 0.94038 0.50931 0.54304 0.0
O1873 O 0.82688 0.59989 0.56418 0.0
O1874 O 0.82118 0.59044 0.51183 0.0
O1875 O 0.85115 0.67483 0.55507 0.0
O1876 O 0.85183 0.64406 0.51515 0.0
C1877 C 0.84489 0.67144 0.52541 0.0
O1878 O 0.90469 0.62878 0.49364 0.0
O1879 O 0.91749 0.63877 0.544 0.0
O1880 O 0.88621 0.53883 0.51967 0.0
O1881 O 0.89563 0.58001 0.54906 0.0
H1882 H 0.93708 0.57326 0.59088 0.0
H1883 H 1.00615 0.50283 0.58672 0.0
H1884 H 0.92892 0.49843 0.52307 0.0
O1885 O 0.36717 0.92873 0.48329 0.0
Tb1886 Tb 0.36727 0.95831 0.5245 0.0
Eu1887 Eu 0.37897 1.00915 0.5748 0.0
C1888 C 0.38668 0.90557 0.48242 0.0
O1889 O 0.40643 0.90185 0.50534 0.0
C1890 C 0.31145 1.00182 0.53835 0.0
O1891 O 0.40404 1.02716 0.61991 0.0
C1892 C 0.39931 0.04552 0.53215 0.0
C1893 C 0.41821 1.00855 0.63974 0.0
O1894 O 0.41138 0.97884 0.63884 0.0
C1895 C 0.42816 0.95467 0.5579 0.0
C1896 C 0.42962 0.05832 0.52239 0.0
C1897 C 0.44626 0.0434 0.49852 0.0
C1898 C 0.47606 0.05383 0.49072 0.0
C1899 C 0.48896 0.07987 0.50602 0.0
C1900 C 0.47298 0.0945 0.53029 0.0
C1901 C 0.44323 0.08396 0.53827 0.0
O1902 O 0.32875 0.99055 0.51527 0.0
O1903 O 0.32468 1.00595 0.56662 0.0
O1904 O 0.3516 0.91535 0.54497 0.0
O1905 O 0.35408 0.95621 0.57314 0.0
C1906 C 0.34736 0.92708 0.5725 0.0
O1907 O 0.41301 0.96859 0.58057 0.0
O1908 O 0.41774 0.95779 0.52948 0.0
O1909 O 0.38838 0.0557 0.55894 0.0
O1910 O 0.39486 1.01557 0.52753 0.0
H1911 H 0.43684 1.02268 0.48709 0.0
H1912 H 0.51281 0.08675 0.50125 0.0
H1913 H 0.43154 0.09484 0.55779 0.0
O1914 O 0.40058 0.11401 0.74555 0.0
Tb1915 Tb 0.37639 0.10879 0.78896 0.0
Eu1916 Eu 0.32928 0.12499 0.84006 0.0
C1917 C 0.42913 0.12516 0.74669 0.0
O1918 O 0.44203 0.13261 0.77358 0.0
C1919 C 0.32984 0.05797 0.80263 0.0
O1920 O 0.3142 0.15146 0.88505 0.0
C1921 C 0.29723 0.14812 0.79509 0.0
C1922 C 0.31833 0.18219 0.88756 0.0
O1923 O 0.33037 0.19685 0.86393 0.0
C1924 C 0.39249 0.16542 0.82925 0.0
C1925 C 0.2859 0.17773 0.783 0.0
C1926 C 0.30133 0.1915 0.75793 0.0
C1927 C 0.2911 0.21958 0.74613 0.0
C1928 C 0.26472 0.23349 0.75869 0.0
C1929 C 0.24977 0.22073 0.78437 0.0
C1930 C 0.26022 0.19274 0.79641 0.0
O1931 O 0.33765 0.07637 0.77957 0.0
O1932 O 0.32921 0.07079 0.83139 0.0
O1933 O 0.41235 0.07626 0.7996 0.0
O1934 O 0.38463 0.09461 0.83656 0.0
C1935 C 0.40593 0.07519 0.82896 0.0
O1936 O 0.37514 0.15162 0.85029 0.0
O1937 O 0.3887 0.15727 0.79994 0.0
O1938 O 0.28457 0.13767 0.82075 0.0
O1939 O 0.32731 0.14336 0.79345 0.0
H1940 H 0.3221 0.18115 0.74837 0.0
H1941 H 0.25806 0.25621 0.75082 0.0
H1942 H 0.24906 0.18346 0.81683 0.0
O1943 O 0.213 0.1613 1.0114 0.0
Tb1944 Tb 0.22764 0.13298 0.04934 0.0
Eu1945 Eu 0.20709 0.08235 0.07382 0.0
C1946 C 0.21515 0.15259 0.98219 0.0
O1947 O 0.22181 0.12376 0.975 0.0
C1948 C 0.27692 0.08576 0.04564 0.0
O1949 O 0.18057 0.06628 0.11811 0.0
C1950 C 0.18266 0.05161 1.02713 0.0
C1951 C 0.15053 0.0723 0.12285 0.0
O1952 O 0.13552 0.08813 0.10196 0.0
C1953 C 0.16058 0.14216 0.0614 0.0
C1954 C 0.15154 1.03971 1.01744 0.0
C1955 C 0.13443 0.05443 0.99398 0.0
C1956 C 0.10479 1.04309 0.98524 0.0
C1957 C 0.09254 1.01688 0.99963 0.0
C1958 C 0.1086 1.00305 1.02387 0.0
C1959 C 0.13811 1.01415 1.03253 0.0
O1960 O 0.26097 0.10256 1.02639 0.0
O1961 O 0.26189 0.07853 0.07168 0.0
O1962 O 0.24718 0.17757 0.06259 0.0
O1963 O 0.25914 0.13792 0.08908 0.0
C1964 C 0.26306 0.16743 0.08586 0.0
O1965 O 0.18398 0.13097 0.07831 0.0
O1966 O 0.18427 0.13067 0.0761 0.0
O1967 O 0.19537 1.03848 0.05135 0.0
O1968 O 0.18744 0.08176 1.02677 0.0
H1969 H 0.14357 0.07521 0.98338 0.0
H1970 H 0.0689 1.00927 0.99428 0.0
H1971 H 0.14988 1.0035 0.05185 0.0
O1972 O 0.6906 0.45746 0.73413 0.0
Tb1973 Tb 0.71201 0.47007 0.77785 0.0
Eu1974 Eu 0.75771 0.46323 0.83085 0.0
C1975 C 0.69785 0.47219 0.70895 0.0
O1976 O 0.72602 0.48395 0.70635 0.0
C1977 C 0.75151 0.52844 0.79123 0.0
O1978 O 0.77423 0.43678 0.87505 0.0
C1979 C 0.7935 0.44207 0.78757 0.0
C1980 C 0.7739 0.40563 0.87575 0.0
O1981 O 0.76429 0.39012 0.85089 0.0
C1982 C 0.69858 0.4157 0.81981 0.0
C1983 C 0.80789 0.41306 0.77682 0.0
C1984 C 0.79407 0.39657 0.75186 0.0
C1985 C 0.80585 0.36814 0.74215 0.0
C1986 C 0.83256 0.35663 0.75622 0.0
C1987 C 0.84646 0.37254 0.78146 0.0
C1988 C 0.83412 0.40083 0.79178 0.0
O1989 O 0.74551 0.50803 0.76843 0.0
O1990 O 0.7527 0.51713 0.82038 0.0
O1991 O 0.67134 0.49847 0.78458 0.0
O1992 O 0.6989 0.48604 0.82397 0.0
C1993 C 0.67489 0.5009 0.81457 0.0
O1994 O 0.71447 0.43256 0.8406 0.0
O1995 O 0.70227 0.42184 0.79029 0.0
O1996 O 0.80425 0.45504 0.81354 0.0
O1997 O 0.76307 0.4435 0.78461 0.0
H1998 H 0.77308 0.40494 0.74096 0.0
H1999 H 0.8405 0.33366 0.74972 0.0
H2000 H 0.84411 0.41239 0.81215 0.0
O2001 O 0.72774 0.42676 0.09509 0.0
Tb2002 Tb 0.72077 0.45537 0.05488 0.0
Eu2003 Eu 0.70655 0.50667 1.00595 0.0
C2004 C 0.70403 0.4164 0.11081 0.0
O2005 O 0.67624 0.42732 0.10542 0.0
C2006 C 0.77503 0.50215 1.04113 0.0
O2007 O 0.68176 0.52195 0.96035 0.0
C2008 C 0.68393 0.53954 0.05119 0.0
C2009 C 0.65137 0.51644 0.9555 0.0
O2010 O 0.63526 0.50303 0.97742 0.0
C2011 C 0.66245 0.44621 1.01762 0.0
C2012 C 0.65389 0.55122 0.06249 0.0
C2013 C 0.63843 0.53628 0.08691 0.0
C2014 C 0.60953 0.54683 0.09718 0.0
C2015 C 0.59646 0.57281 0.08361 0.0
C2016 C 0.61103 0.58708 0.05858 0.0
C2017 C 0.63983 0.57657 0.04826 0.0
O2018 O 0.75846 0.49006 0.06412 0.0
O2019 O 0.76092 0.50681 1.01362 0.0
O2020 O 0.73612 0.41312 1.03201 0.0
O2021 O 0.73571 0.45487 1.00692 0.0
C2022 C 0.74131 0.42576 1.0054 0.0
O2023 O 0.67805 0.46186 0.99655 0.0
O2024 O 0.67069 0.44973 0.04697 0.0
O2025 O 0.69495 0.55159 1.0255 0.0
O2026 O 0.68846 0.50957 0.05301 0.0
H2027 H 0.64804 0.51562 0.09694 0.0
H2028 H 0.57316 0.57967 0.09011 0.0
H2029 H 0.65043 0.58737 1.02831 0.0
O2030 O 0.40597 0.96803 0.8495 0.0
Tb2031 Tb 0.37647 0.97292 0.80927 0.0
Eu2032 Eu 0.32772 0.9555 0.75982 0.0
C2033 C 0.43372 0.95656 0.84493 0.0
O2034 O 0.44281 0.94924 0.81668 0.0
C2035 C 0.33013 1.02259 0.797 0.0
O2036 O 0.31085 0.92796 0.71576 0.0
C2037 C 0.29191 0.93343 0.80229 0.0
C2038 C 0.33018 0.91381 0.69621 0.0
O2039 O 0.3594 0.92285 0.69556 0.0
C2040 C 0.38715 0.91161 0.77506 0.0
C2041 C 0.28019 0.90259 0.81139 0.0
C2042 C 0.29587 0.88683 0.83489 0.0
C2043 C 0.28693 0.85675 0.84238 0.0
C2044 C 0.26133 0.84263 0.82756 0.0
C2045 C 0.24575 0.85759 0.80362 0.0
C2046 C 0.25515 0.88765 0.79551 0.0
O2047 O 0.33846 1.00451 0.82005 0.0
O2048 O 0.32967 1.00973 0.76823 0.0
O2049 O 0.40995 1.00765 0.79571 0.0
O2050 O 0.38424 0.98298 0.76027 0.0
C2051 C 0.40378 1.00544 0.7663 0.0
O2052 O 0.37007 0.9239 0.75316 0.0
O2053 O 0.38569 0.92344 0.80322 0.0
O2054 O 0.28122 0.94447 0.77603 0.0
O2055 O 0.32186 0.93886 0.80666 0.0
H2056 H 0.31612 0.89721 0.8463 0.0
H2057 H 0.25561 0.81863 0.83239 0.0
H2058 H 0.24384 0.89865 0.77612 0.0
O2059 O 0.1849 0.1207 0.34096 0.0
Tb2060 Tb 0.20981 0.11561 0.29781 0.0
Eu2061 Eu 0.25748 0.13134 0.24491 0.0
C2062 C 0.15548 0.12821 0.3394 0.0
O2063 O 0.14223 0.13225 0.31224 0.0
C2064 C 0.2559 0.06619 0.28315 0.0
O2065 O 0.27411 0.1629 0.20437 0.0
C2066 C 0.29319 0.14988 0.28971 0.0
C2067 C 0.27456 0.19394 0.20766 0.0
O2068 O 0.26503 0.2062 0.23402 0.0
C2069 C 0.19568 0.17294 0.26011 0.0
C2070 C 0.30637 0.17808 0.3038 0.0
C2071 C 0.29512 0.1864 0.333 0.0
C2072 C 0.3015 0.21554 0.34541 0.0
C2073 C 0.32188 0.23574 0.33033 0.0
C2074 C 0.33466 0.22705 0.30167 0.0
C2075 C 0.32658 0.19824 0.28802 0.0
O2076 O 0.24948 0.08581 0.30612 0.0
O2077 O 0.25504 0.07734 0.25398 0.0
O2078 O 0.176 0.07954 0.28665 0.0
O2079 O 0.19932 0.10244 0.24967 0.0
C2080 C 0.18025 0.08036 0.2569 0.0
O2081 O 0.21266 0.15949 0.23822 0.0
O2082 O 0.19875 0.16408 0.28898 0.0
O2083 O 0.30414 0.14058 0.2626 0.0
O2084 O 0.26276 0.14697 0.2923 0.0
H2085 H 0.2787 0.17136 0.34479 0.0
H2086 H 0.326 0.25895 0.33975 0.0
H2087 H 0.33498 0.19225 0.265 0.0
O2088 O 0.47703 0.20268 0.47757 0.0
Tb2089 Tb 0.52237 0.22273 0.46559 0.0
Eu2090 Eu 0.57818 0.21011 0.50727 0.0
C2091 C 0.45329 0.19856 0.45846 0.0
O2092 O 0.4281 0.18449 0.46845 0.0
C2093 C 0.54754 0.2784 0.50249 0.0
O2094 O 0.62237 0.18559 0.52474 0.0
C2095 C 0.53508 0.19126 0.54465 0.0
C2096 C 0.64119 0.17013 0.50578 0.0
O2097 O 0.63964 0.17498 0.4758 0.0
C2098 C 0.55956 0.1638 0.44702 0.0
C2099 C 0.52404 0.16129 0.55709 0.0
C2100 C 0.49999 0.1448 0.54146 0.0
C2101 C 0.49068 0.11547 0.5513 0.0
C2102 C 0.50434 0.10294 0.57769 0.0
C2103 C 0.52888 0.11848 0.59308 0.0
C2104 C 0.53865 0.14777 0.58289 0.0
O2105 O 0.52247 0.26042 0.50058 0.0
O2106 O 0.57502 0.26417 0.50154 0.0
O2107 O 0.52861 0.25585 0.42911 0.0
O2108 O 0.5685 0.23312 0.44983 0.0
C2109 C 0.55898 0.25401 0.43058 0.0
O2110 O 0.58105 0.17498 0.46644 0.0
O2111 O 0.53205 0.17671 0.44551 0.0
O2112 O 0.5622 0.20213 0.55454 0.0
O2113 O 0.53065 0.1951 0.51472 0.0
H2114 H 0.48961 0.15388 0.52055 0.0
H2115 H 0.49831 0.07941 0.58409 0.0
H2116 H 0.55844 0.15915 0.59414 0.0
O2117 O 0.6344 0.73355 0.2175 0.0
Tb2118 Tb 0.61629 0.77983 0.21053 0.0
Eu2119 Eu 0.6341 0.83885 0.25069 0.0
C2120 C 0.62284 0.70752 0.20587 0.0
O2121 O 0.63458 0.6812 0.21476 0.0
C2122 C 0.56481 0.80854 0.24942 0.0
O2123 O 0.66207 0.88251 0.26761 0.0
C2124 C 0.65408 0.79407 0.28507 0.0
C2125 C 0.67867 0.90031 0.24871 0.0
O2126 O 0.67479 0.89719 0.21857 0.0
C2127 C 0.67177 0.81977 0.18764 0.0
C2128 C 0.68252 0.78264 0.30066 0.0
C2129 C 0.69746 0.75613 0.28874 0.0
C2130 C 0.72454 0.74509 0.30298 0.0
C2131 C 0.736 0.75997 0.32995 0.0
C2132 C 0.72245 0.78721 0.34123 0.0
C2133 C 0.69555 0.79833 0.32679 0.0
O2134 O 0.58186 0.78328 0.24802 0.0
O2135 O 0.57988 0.83566 0.24684 0.0
O2136 O 0.58171 0.77943 0.17369 0.0
O2137 O 0.60243 0.82269 0.19031 0.0
C2138 C 0.58176 0.80968 0.17206 0.0
O2139 O 0.65904 0.84232 0.20401 0.0
O2140 O 0.6626 0.79096 0.19174 0.0
O2141 O 0.64136 0.81936 0.29645 0.0
O2142 O 0.65317 0.7925 0.25456 0.0
H2143 H 0.68899 0.74497 0.26746 0.0
H2144 H 0.75805 0.75279 0.33965 0.0
H2145 H 0.68574 0.81989 0.33515 0.0
O2146 O 0.09553 0.86873 0.92437 0.0
Tb2147 Tb 0.05537 0.86737 0.95403 0.0
Eu2148 Eu 1.00683 0.8808 1.00143 0.0
C2149 C 0.0929 0.88104 0.89664 0.0
O2150 O 0.06816 0.89714 0.88996 0.0
C2151 C 1.04336 0.81506 0.99984 0.0
O2152 O 0.96188 0.90416 1.01881 0.0
C2153 C 0.05033 0.90419 1.03682 0.0
C2154 C 0.94093 0.91627 0.99984 0.0
O2155 O 0.94086 0.90833 0.97024 0.0
C2156 C 1.02091 0.92694 0.94418 0.0
C2157 C 0.06009 0.93497 0.04908 0.0
C2158 C 0.08325 0.95206 1.03372 0.0
C2159 C 0.09123 0.98205 0.04405 0.0
C2160 C 0.07676 0.99472 0.07029 0.0
C2161 C 0.05315 0.97828 0.08527 0.0
C2162 C 0.04505 0.94834 0.07492 0.0
O2163 O 0.06642 0.83304 0.98982 0.0
O2164 O 1.01487 0.82724 1.00118 0.0
O2165 O 1.04152 0.83888 0.91457 0.0
O2166 O 1.00725 0.8509 0.94808 0.0
C2167 C 1.01304 0.83494 0.92306 0.0
O2168 O 0.99889 0.9122 0.95932 0.0
O2169 O 0.04934 0.91698 0.94693 0.0
O2170 O 1.02417 0.89256 0.04762 0.0
O2171 O 0.05386 0.8992 1.00679 0.0
H2172 H 0.094 0.94279 1.01285 0.0
H2173 H 0.08159 1.01867 0.07707 0.0
H2174 H 1.02607 0.93624 0.08616 0.0
O2175 O 0.98201 0.35655 0.67363 0.0
Tb2176 Tb 0.97567 0.31787 0.70406 0.0
Eu2177 Eu 0.96154 0.27037 0.7534 0.0
C2178 C 0.95992 0.37635 0.66876 0.0
O2179 O 0.93602 0.3777 0.68754 0.0
C2180 C 1.03139 0.30111 0.74664 0.0
O2181 O 0.94114 0.22309 0.76818 0.0
C2182 C 0.94424 0.31297 0.7924 0.0
C2183 C 0.93258 0.20174 0.74712 0.0
O2184 O 0.94013 0.20613 0.71797 0.0
C2185 C 0.91131 0.29205 0.70061 0.0
C2186 C 0.9144 0.32373 0.80514 0.0
C2187 C 0.89765 0.34734 0.79058 0.0
C2188 C 0.86795 0.35524 0.80118 0.0
C2189 C 0.85528 0.3399 0.82659 0.0
C2190 C 0.87126 0.31568 0.84028 0.0
C2191 C 0.90097 0.30818 0.83021 0.0
O2192 O 1.01599 0.32509 0.73568 0.0
O2193 O 1.01596 0.27432 0.75048 0.0
O2194 O 0.98521 0.29227 0.66109 0.0
O2195 O 0.98282 0.26824 0.70307 0.0
C2196 C 0.98728 0.26538 0.67372 0.0
O2197 O 0.92364 0.26789 0.71443 0.0
O2198 O 0.9254 0.31896 0.7037 0.0
O2199 O 0.95331 0.28535 0.80092 0.0
O2200 O 0.94928 0.31829 0.76284 0.0
H2201 H 0.90678 0.35832 0.77002 0.0
H2202 H 0.83142 0.34427 0.83329 0.0
H2203 H 0.91256 0.28879 0.84068 0.0
O2204 O 0.47794 0.88177 0.11236 0.0
Tb2205 Tb 0.52287 0.8608 0.12204 0.0
Eu2206 Eu 0.57565 0.87561 0.07794 0.0
C2207 C 0.45705 0.88898 0.1334 0.0
O2208 O 0.43212 0.90386 0.12481 0.0
C2209 C 0.54345 0.80703 0.08113 0.0
O2210 O 0.61844 0.90248 0.05967 0.0
C2211 C 0.53106 0.89765 0.04435 0.0
C2212 C 0.63845 0.91753 0.07835 0.0
O2213 O 0.63984 0.91038 0.10782 0.0
C2214 C 0.56396 0.91632 0.14284 0.0
C2215 C 0.52176 0.92776 1.03122 0.0
C2216 C 0.49763 0.94442 0.04541 0.0
C2217 C 0.48909 0.97338 1.03431 0.0
C2218 C 0.50378 0.98533 1.00811 0.0
C2219 C 0.52866 0.96983 0.99432 0.0
C2220 C 0.53759 0.94094 1.00581 0.0
O2221 O 0.51909 0.82478 0.08558 0.0
O2222 O 0.57128 0.8213 0.08066 0.0
O2223 O 0.53003 0.82755 0.15839 0.0
O2224 O 0.56941 0.84775 0.1342 0.0
C2225 C 0.56025 0.82755 0.15442 0.0
O2226 O 0.58391 0.90423 0.12297 0.0
O2227 O 0.53503 0.90622 0.14288 0.0
O2228 O 0.55564 0.88422 1.03237 0.0
O2229 O 0.52944 0.89509 0.07475 0.0
H2230 H 0.48651 0.93568 0.06612 0.0
H2231 H 0.49836 1.00859 1.0008 0.0
H2232 H 0.55754 0.92954 0.99576 0.0
O2233 O 0.98165 0.71164 0.89061 0.0
Tb2234 Tb 0.97592 0.76008 0.87884 0.0
Eu2235 Eu 0.96629 0.80993 0.83156 0.0
C2236 C 0.96988 0.69918 0.91551 0.0
O2237 O 0.97229 0.66929 0.91973 0.0
C2238 C 1.032 0.77198 0.83383 0.0
O2239 O 0.98469 0.85889 0.82615 0.0
C2240 C 0.93767 0.78415 0.78473 0.0
C2241 C 0.97598 0.88155 0.80807 0.0
O2242 O 0.99417 0.90619 0.80693 0.0
C2243 C 0.91495 0.79391 0.88566 0.0
C2244 C 0.90482 0.7776 0.77634 0.0
C2245 C 0.88816 0.7527 0.78912 0.0
C2246 C 0.85643 0.74848 0.78241 0.0
C2247 C 0.84108 0.76938 0.76328 0.0
C2248 C 0.85737 0.7945 0.75071 0.0
C2249 C 0.88935 0.79785 0.75661 0.0
O2250 O 1.01536 0.74998 0.8472 0.0
O2251 O 1.01892 0.79901 0.82912 0.0
O2252 O 0.98763 0.78439 0.92273 0.0
O2253 O 0.99146 0.80777 0.87988 0.0
C2254 C 0.99381 0.8108 0.90959 0.0
O2255 O 0.92965 0.81656 0.87083 0.0
O2256 O 0.9256 0.76549 0.8826 0.0
O2257 O 0.94588 0.81364 0.78577 0.0
O2258 O 0.94982 0.76802 0.80747 0.0
H2259 H 0.89943 0.73716 0.80499 0.0
H2260 H 0.81623 0.76686 0.75939 0.0
H2261 H 0.90218 0.81681 0.74626 0.0
O2262 O 0.09662 0.22679 0.66031 0.0
Tb2263 Tb 0.05559 0.21977 0.63168 0.0
Eu2264 Eu 1.00695 0.20374 0.57996 0.0
C2265 C 0.11598 0.20451 0.66532 0.0
O2266 O 0.11343 0.17857 0.64901 0.0
C2267 C 1.04047 0.27251 0.58577 0.0
O2268 O 0.96375 0.17537 0.56253 0.0
C2269 C 0.05126 0.18194 0.54588 0.0
C2270 C 0.94361 0.1613 0.58124 0.0
O2271 O 0.9422 0.16996 0.61059 0.0
C2272 C 1.01985 0.16107 0.64066 0.0
C2273 C 0.0612 0.15188 0.53251 0.0
C2274 C 0.08584 0.13617 0.54647 0.0
C2275 C 0.09494 0.10725 0.53481 0.0
C2276 C 0.08016 0.09436 0.50845 0.0
C2277 C 0.05491 0.10914 0.49486 0.0
C2278 C 0.04553 0.13798 0.50677 0.0
O2279 O 0.06398 0.25634 0.59706 0.0
O2280 O 1.01299 0.25797 0.58112 0.0
O2281 O 1.03484 0.23835 0.67371 0.0
O2282 O 1.00731 0.23385 0.63287 0.0
C2283 C 1.00758 0.24244 0.66163 0.0
O2284 O 0.999 0.17576 0.62425 0.0
O2285 O 0.04901 0.17001 0.63851 0.0
O2286 O 1.02573 0.19375 0.5343 0.0
O2287 O 0.05384 0.18582 0.57626 0.0
H2288 H 0.09705 0.14567 0.56727 0.0
H2289 H 0.08605 0.07112 0.50066 0.0
H2290 H 1.02535 0.1488 0.49671 0.0
O2291 O 0.6327 0.3504 0.36637 0.0
Tb2292 Tb 0.61482 0.30359 0.37542 0.0
Eu2293 Eu 0.63465 0.24427 0.33447 0.0
C2294 C 0.63444 0.3752 0.38482 0.0
O2295 O 0.64952 0.39967 0.37477 0.0
C2296 C 0.56546 0.26868 0.33704 0.0
O2297 O 0.66368 0.2031 0.31682 0.0
C2298 C 0.65289 0.29113 0.30126 0.0
C2299 C 0.6825 0.18729 0.33506 0.0
O2300 O 0.68078 0.19075 0.36531 0.0
C2301 C 0.67076 0.26479 0.39841 0.0
C2302 C 0.6809 0.30537 0.28668 0.0
C2303 C 0.69491 0.33191 0.30068 0.0
C2304 C 0.72132 0.34589 0.28755 0.0
C2305 C 0.73309 0.33402 0.25958 0.0
C2306 C 0.72066 0.30677 0.24604 0.0
C2307 C 0.69433 0.29263 0.25947 0.0
O2308 O 0.58248 0.2945 0.33643 0.0
O2309 O 0.58094 0.24247 0.33982 0.0
O2310 O 0.57782 0.30258 0.40937 0.0
O2311 O 0.6029 0.26091 0.39766 0.0
C2312 C 0.58011 0.27274 0.41323 0.0
O2313 O 0.6586 0.24183 0.38161 0.0
O2314 O 0.66111 0.29333 0.39477 0.0
O2315 O 0.64147 0.26516 0.28908 0.0
O2316 O 0.65151 0.29197 0.33174 0.0
H2317 H 0.68623 0.34092 0.32263 0.0
H2318 H 0.75468 0.34356 0.25067 0.0
H2319 H 0.68528 0.27111 0.24943 0.0
O2320 O 0.46158 0.47153 0.20575 0.0
Tb2321 Tb 0.46036 0.52017 0.21866 0.0
Eu2322 Eu 0.50372 0.57658 0.20622 0.0
C2323 C 0.43596 0.45518 0.20316 0.0
O2324 O 0.43662 0.42679 0.19177 0.0
C2325 C 0.49752 0.54318 0.27299 0.0
O2326 O 0.52309 0.62018 0.18122 0.0
C2327 C 0.54 0.53252 0.18829 0.0
C2328 C 0.50487 0.63888 0.16521 0.0
O2329 O 0.47476 0.63726 0.16961 0.0
C2330 C 0.44506 0.55697 0.15895 0.0
C2331 C 0.55296 0.52134 0.15852 0.0
C2332 C 0.53708 0.49766 0.1418 0.0
C2333 C 0.54663 0.48906 0.112 0.0
C2334 C 0.5731 0.50283 0.09926 0.0
C2335 C 0.5889 0.52678 0.11533 0.0
C2336 C 0.57896 0.53596 0.14506 0.0
O2337 O 0.49725 0.51938 0.25347 0.0
O2338 O 0.49605 0.57123 0.26016 0.0
O2339 O 0.42393 0.53012 0.25217 0.0
O2340 O 0.44647 0.56702 0.2268 0.0
C2341 C 0.42674 0.56014 0.24829 0.0
O2342 O 0.46336 0.57914 0.17081 0.0
O2343 O 0.44474 0.52912 0.171 0.0
O2344 O 0.55056 0.55923 0.19961 0.0
O2345 O 0.50977 0.52909 0.19106 0.0
H2346 H 0.51612 0.48715 0.15106 0.0
H2347 H 0.57933 0.4973 0.07538 0.0
H2348 H 0.59037 0.55551 0.15672 0.0
O2349 O 0.35097 0.68526 0.9696 0.0
Tb2350 Tb 0.30904 0.71178 0.97296 0.0
Eu2351 Eu 0.25975 0.75639 0.95371 0.0
C2352 C 0.34773 0.65596 0.96132 0.0
O2353 O 0.31986 0.64389 0.95683 0.0
C2354 C 0.29407 0.76212 1.01991 0.0
O2355 O 0.21645 0.77154 0.92613 0.0
C2356 C 0.3052 0.78961 0.93268 0.0
C2357 C 0.19602 0.75125 0.91395 0.0
O2358 O 0.19548 0.72274 0.92395 0.0
C2359 C 0.27487 0.69389 0.91326 0.0
C2360 C 0.31548 0.8023 0.90289 0.0
C2361 C 0.3405 0.78885 0.88695 0.0
C2362 C 0.3492 0.79969 0.85774 0.0
C2363 C 0.33344 0.82451 0.84484 0.0
C2364 C 0.30796 0.83734 0.86013 0.0
C2365 C 0.29921 0.82657 0.88919 0.0
O2366 O 0.31768 0.75316 1.00244 0.0
O2367 O 0.2656 0.75892 1.00751 0.0
O2368 O 0.29563 0.68025 1.0092 0.0
O2369 O 0.26018 0.70158 0.98258 0.0
C2370 C 0.26601 0.68342 1.00532 0.0
O2371 O 0.25299 0.71111 0.92552 0.0
O2372 O 0.30329 0.69742 0.92392 0.0
O2373 O 0.27986 0.80146 0.94477 0.0
O2374 O 0.30678 0.75941 0.93553 0.0
H2375 H 0.35215 0.76898 0.89642 0.0
H2376 H 0.33885 0.83159 0.82136 0.0
H2377 H 0.27884 0.83622 0.90025 0.0
O2378 O 0.16728 0.59568 0.72576 0.0
Tb2379 Tb 0.13523 0.55688 0.71942 0.0
Eu2380 Eu 0.07901 0.50952 0.70607 0.0
C2381 C 0.17512 0.61268 0.70221 0.0
O2382 O 0.15842 0.61101 0.67658 0.0
C2383 C 0.08855 0.54601 0.77387 0.0
O2384 O 0.05869 0.46355 0.68439 0.0
C2385 C 1.04397 0.55259 0.68429 0.0
C2386 C 0.07626 0.44267 0.66991 0.0
O2387 O 0.10652 0.44459 0.67347 0.0
C2388 C 0.13482 0.52486 0.65768 0.0
C2389 C 1.03203 0.56299 0.65386 0.0
C2390 C 0.04805 0.58636 0.63778 0.0
C2391 C 1.03756 0.59575 0.60858 0.0
C2392 C 1.01043 0.58248 0.59575 0.0
C2393 C 0.99485 0.55844 0.61081 0.0
C2394 C 1.00547 0.5489 0.63998 0.0
O2395 O 0.10229 0.56794 0.7573 0.0
O2396 O 0.08241 0.51827 0.76025 0.0
O2397 O 0.17855 0.53272 0.7274 0.0
O2398 O 0.13601 0.50916 0.735 0.0
C2399 C 0.16592 0.50685 0.73576 0.0
O2400 O 0.12008 0.50258 0.67246 0.0
O2401 O 0.13362 0.55312 0.66909 0.0
O2402 O 1.03294 0.5262 0.69474 0.0
O2403 O 0.0739 0.55652 0.6897 0.0
H2404 H 0.06949 0.59629 0.64716 0.0
H2405 H 1.00352 0.58838 0.5723 0.0
H2406 H 0.99375 0.5297 0.65108 0.0
O2407 O 0.23124 0.37711 0.48272 0.0
Tb2408 Tb 0.27403 0.35208 0.48545 0.0
Eu2409 Eu 0.33045 0.3089 0.46001 0.0
C2410 C 0.23345 0.4043 0.46969 0.0
O2411 O 0.26061 0.41438 0.46012 0.0
C2412 C 0.30271 0.31345 0.53088 0.0
O2413 O 0.37628 0.29736 0.43223 0.0
C2414 C 0.28892 0.26578 0.44767 0.0
C2415 C 0.38125 0.30384 0.40211 0.0
O2416 O 0.35975 0.31844 0.38669 0.0
C2417 C 0.29327 0.35691 0.41825 0.0
C2418 C 0.27422 0.25242 0.41914 0.0
C2419 C 0.24439 0.26202 0.40956 0.0
C2420 C 0.2339 0.25646 0.37863 0.0
C2421 C 0.25118 0.23691 0.35952 0.0
C2422 C 0.28068 0.22747 0.36902 0.0
C2423 C 0.29201 0.23468 0.39862 0.0
O2424 O 0.27655 0.31282 0.51504 0.0
O2425 O 0.32905 0.31744 0.51453 0.0
O2426 O 0.28944 0.38623 0.51933 0.0
O2427 O 0.3206 0.37279 0.48304 0.0
C2428 C 0.31703 0.38961 0.50806 0.0
O2429 O 0.32163 0.34853 0.4261 0.0
O2430 O 0.26995 0.34934 0.43595 0.0
O2431 O 0.31851 0.26 0.45268 0.0
O2432 O 0.28214 0.29462 0.45385 0.0
H2433 H 0.23175 0.27819 0.42417 0.0
H2434 H 0.24435 0.23359 0.33531 0.0
H2435 H 0.31554 0.22825 0.40461 0.0
O2436 O 0.401 0.58113 0.35239 0.0
Tb2437 Tb 0.43087 0.5415 0.35001 0.0
Eu2438 Eu 0.49798 0.50397 0.37477 0.0
C2439 C 0.41056 0.60763 0.36436 0.0
O2440 O 0.43767 0.60976 0.37846 0.0
C2441 C 0.48905 0.53736 0.30702 0.0
O2442 O 0.51718 0.45936 0.39731 0.0
C2443 C 0.5307 0.54972 0.39814 0.0
C2444 C 0.51964 0.45718 0.42823 0.0
O2445 O 0.5112 0.48092 0.44557 0.0
C2446 C 0.43486 0.5134 0.41573 0.0
C2447 C 0.54384 0.5618 0.42801 0.0
C2448 C 0.52874 0.58594 0.44395 0.0
C2449 C 0.54056 0.59763 0.47227 0.0
C2450 C 0.5683 0.58605 0.48424 0.0
C2451 C 0.58308 0.56123 0.46943 0.0
C2452 C 0.57093 0.54923 0.44118 0.0
O2453 O 0.47021 0.557 0.32113 0.0
O2454 O 0.49564 0.51056 0.3208 0.0
O2455 O 0.39163 0.5243 0.32131 0.0
O2456 O 0.42337 0.49221 0.34029 0.0
C2457 C 0.39811 0.49518 0.32373 0.0
O2458 O 0.4557 0.49372 0.40508 0.0
O2459 O 0.42818 0.53857 0.40053 0.0
O2460 O 0.54306 0.5245 0.38613 0.0
O2461 O 0.50028 0.55076 0.39441 0.0
H2462 H 0.50699 0.59477 0.43513 0.0
H2463 H 0.57624 0.59377 0.50715 0.0
H2464 H 0.58191 0.5294 0.4303 0.0
O2465 O 0.24578 0.69611 0.1165 0.0
Tb2466 Tb 0.287 0.72353 0.10742 0.0
Eu2467 Eu 0.33549 0.78009 0.12084 0.0
C2468 C 0.24863 0.67135 0.13382 0.0
O2469 O 0.27498 0.66651 0.14829 0.0
C2470 C 0.29891 0.76747 0.05479 0.0
O2471 O 0.37844 0.7957 0.15116 0.0
C2472 C 0.28806 0.80711 0.14579 0.0
C2473 C 0.38008 0.78949 0.18162 0.0
O2474 O 0.35618 0.77597 0.19479 0.0
C2475 C 0.33105 0.71951 0.1601 0.0
C2476 C 0.27778 0.81715 0.17713 0.0
C2477 C 0.25311 0.80145 0.19197 0.0
C2478 C 0.24381 0.81056 0.22206 0.0
C2479 C 0.2589 0.83565 0.23692 0.0
C2480 C 0.2843 0.8503 0.22304 0.0
C2481 C 0.29357 0.84134 0.19319 0.0
O2482 O 0.27624 0.75891 0.07358 0.0
O2483 O 0.32715 0.77345 0.06719 0.0
O2484 O 0.29682 0.68068 0.08309 0.0
O2485 O 0.33265 0.71516 0.08685 0.0
C2486 C 0.32486 0.6882 0.07547 0.0
O2487 O 0.35026 0.73561 0.1431 0.0
O2488 O 0.30131 0.72199 0.15552 0.0
O2489 O 0.31162 0.8224 0.13349 0.0
O2490 O 0.28899 0.77712 0.14044 0.0
H2491 H 0.24208 0.78141 0.18077 0.0
H2492 H 0.2531 0.84159 0.26083 0.0
H2493 H 0.31375 0.85256 0.18313 0.0
O2494 O 0.13888 0.48636 0.87722 0.0
Tb2495 Tb 0.12454 0.53145 0.86263 0.0
Eu2496 Eu 0.07966 0.58802 0.8755 0.0
C2497 C 0.13359 0.46217 0.85923 0.0
O2498 O 0.10692 0.46003 0.84427 0.0
C2499 C 0.0843 0.55171 0.80908 0.0
O2500 O 0.06213 0.63267 0.90046 0.0
C2501 C 0.04785 0.54202 0.89813 0.0
C2502 C 0.06442 0.6358 0.93136 0.0
O2503 O 0.07676 0.61316 0.94694 0.0
C2504 C 0.14261 0.5782 0.91522 0.0
C2505 C 1.03376 0.53095 0.92734 0.0
C2506 C 0.04649 0.50524 0.94232 0.0
C2507 C 1.0338 0.49456 0.97027 0.0
C2508 C 1.00763 0.50908 0.98263 0.0
C2509 C 0.99554 0.53546 0.96874 0.0
C2510 C 1.00846 0.54625 0.94104 0.0
O2511 O 0.08647 0.52831 0.8284 0.0
O2512 O 0.08551 0.58021 0.82187 0.0
O2513 O 0.16047 0.52775 0.82761 0.0
O2514 O 0.14766 0.57246 0.84553 0.0
C2515 C 0.16466 0.55746 0.82573 0.0
O2516 O 0.12579 0.59859 0.90034 0.0
O2517 O 0.13851 0.54847 0.90919 0.0
O2518 O 1.035 0.56574 0.88445 0.0
O2519 O 0.07831 0.54267 0.89685 0.0
H2520 H 0.06722 0.49448 0.93314 0.0
H2521 H 0.99907 0.50222 1.00522 0.0
H2522 H 0.9995 0.56718 0.93099 0.0
O2523 O 0.34653 0.40976 0.60882 0.0
Tb2524 Tb 0.31145 0.37383 0.61195 0.0
Eu2525 Eu 0.26529 0.3222 0.6326 0.0
C2526 C 0.37211 0.41058 0.62516 0.0
O2527 O 0.37776 0.38869 0.64511 0.0
C2528 C 0.29997 0.32148 0.56536 0.0
O2529 O 0.21852 0.30665 0.65421 0.0
C2530 C 0.30683 0.28493 0.65305 0.0
C2531 C 0.19893 0.32667 0.66702 0.0
O2532 O 0.2029 0.35632 0.66192 0.0
C2533 C 0.28562 0.38166 0.67711 0.0
C2534 C 0.31783 0.27294 0.68296 0.0
C2535 C 0.3432 0.2875 0.69815 0.0
C2536 C 0.35254 0.2779 0.72751 0.0
C2537 C 0.33752 0.25279 0.74129 0.0
C2538 C 0.31172 0.23856 0.72684 0.0
C2539 C 0.30203 0.24842 0.69754 0.0
O2540 O 0.32334 0.33515 0.58062 0.0
O2541 O 0.27199 0.3209 0.57893 0.0
O2542 O 0.29182 0.40756 0.58167 0.0
O2543 O 0.26104 0.3762 0.60458 0.0
C2544 C 0.26332 0.39839 0.58472 0.0
O2545 O 0.26256 0.36369 0.6669 0.0
O2546 O 0.31187 0.38217 0.66193 0.0
O2547 O 0.2791 0.27555 0.64344 0.0
O2548 O 0.31255 0.31446 0.64795 0.0
H2549 H 0.35459 0.30749 0.6881 0.0
H2550 H 0.34358 0.24676 0.76495 0.0
H2551 H 0.28137 0.23798 0.68701 0.0
O2552 O 0.19576 0.44305 0.48145 0.0
Tb2553 Tb 0.21344 0.4509 0.52849 0.0
Eu2554 Eu 0.20658 0.5005 0.58129 0.0
C2555 C 0.20594 0.42167 0.46223 0.0
O2556 O 0.19359 0.41878 0.43433 0.0
C2557 C 0.27213 0.49034 0.54461 0.0
O2558 O 0.18256 0.51917 0.62578 0.0
C2559 C 0.18478 0.53316 0.53636 0.0
C2560 C 0.15162 0.51758 0.62815 0.0
O2561 O 0.1354 0.50577 0.60474 0.0
C2562 C 0.16029 0.44165 0.57241 0.0
C2563 C 0.15531 0.5464 0.52525 0.0
C2564 C 0.13852 0.53112 0.50119 0.0
C2565 C 0.11023 0.54282 0.49079 0.0
C2566 C 0.09909 0.57046 0.50368 0.0
C2567 C 0.11492 0.5854 0.52834 0.0
C2568 C 0.14314 0.57349 0.53899 0.0
O2569 O 0.25297 0.483 0.52124 0.0
O2570 O 0.26002 0.49411 0.57312 0.0
O2571 O 0.23366 0.4063 0.53809 0.0
O2572 O 0.22994 0.43994 0.57454 0.0
C2573 C 0.23843 0.41207 0.56767 0.0
O2574 O 0.17739 0.45745 0.59285 0.0
O2575 O 0.16532 0.44552 0.5428 0.0
O2576 O 0.19758 0.54554 0.56167 0.0
O2577 O 0.18699 0.50285 0.53477 0.0
H2578 H 0.14668 0.50939 0.49142 0.0
H2579 H 0.07621 0.57838 0.49697 0.0
H2580 H 0.15472 0.58461 0.55876 0.0
O2581 O 0.70838 0.14956 0.60312 0.0
Tb2582 Tb 0.71887 0.13214 0.55707 0.0
Eu2583 Eu 0.70596 0.08593 0.50477 0.0
C2584 C 0.72806 0.14536 0.62575 0.0
O2585 O 0.73736 0.11706 0.6309 0.0
C2586 C 0.7735 0.08956 0.53936 0.0
O2587 O 0.67857 0.06732 0.46156 0.0
C2588 C 0.68374 0.05327 0.54988 0.0
C2589 C 0.66485 0.08542 0.44099 0.0
O2590 O 0.67332 0.11463 0.43939 0.0
C2591 C 0.66374 0.14659 0.51669 0.0
C2592 C 0.65398 1.0398 0.56088 0.0
C2593 C 0.63812 0.05424 0.58563 0.0
C2594 C 0.6097 1.04209 0.59601 0.0
C2595 C 0.59755 1.01486 0.58226 0.0
C2596 C 0.61234 1.00089 0.55683 0.0
C2597 C 0.64067 1.0132 0.54633 0.0
O2598 O 0.75564 0.09724 0.56334 0.0
O2599 O 0.76012 0.08864 0.51109 0.0
O2600 O 0.74658 0.17375 0.55097 0.0
O2601 O 0.73399 0.146 0.51116 0.0
C2602 C 0.74838 0.17082 0.52092 0.0
O2603 O 0.67901 0.13034 0.49583 0.0
O2604 O 0.67056 0.1429 0.54605 0.0
O2605 O 0.69592 1.041 0.52456 0.0
O2606 O 0.68687 0.08356 0.5515 0.0
H2607 H 0.64711 0.07567 0.59598 0.0
H2608 H 0.57461 1.00665 0.58893 0.0
H2609 H 0.65149 1.00275 0.52608 0.0
O2610 O 0.69587 0.97291 0.34519 0.0
Tb2611 Tb 0.71926 0.97941 0.3014 0.0
Eu2612 Eu 0.76679 0.96163 0.25032 0.0
C2613 C 0.66586 0.96675 0.34419 0.0
O2614 O 0.65117 0.96547 0.31735 0.0
C2615 C 0.7672 1.02812 0.28588 0.0
O2616 O 0.78305 0.93359 0.20699 0.0
C2617 C 0.79646 0.93963 0.29741 0.0
C2618 C 0.77631 0.90335 0.2044 0.0
O2619 O 0.76132 0.89004 0.22716 0.0
C2620 C 0.70249 0.92352 0.25991 0.0
C2621 C 0.80806 0.9101 0.30925 0.0
C2622 C 0.7924 0.89544 0.33368 0.0
C2623 C 0.80258 0.86689 0.34447 0.0
C2624 C 0.82896 0.8534 0.33143 0.0
C2625 C 0.84405 0.86726 0.30644 0.0
C2626 C 0.83385 0.89569 0.29557 0.0
O2627 O 0.75983 1.00987 0.30918 0.0
O2628 O 0.76657 1.01538 0.25724 0.0
O2629 O 0.68472 1.01404 0.29314 0.0
O2630 O 0.70813 0.9938 0.2544 0.0
C2631 C 0.68855 1.0145 0.26338 0.0
O2632 O 0.72037 0.93714 0.23927 0.0
O2633 O 0.70546 0.93155 0.28935 0.0
O2634 O 0.81044 0.95112 0.27291 0.0
O2635 O 0.76616 0.943 0.29693 0.0
H2636 H 0.77152 0.90544 0.34337 0.0
H2637 H 0.8356 0.83034 0.33834 0.0
H2638 H 0.84511 0.90563 0.27552 0.0
O2639 O 0.88802 0.96 0.10299 0.0
Tb2640 Tb 0.86651 0.95375 0.05675 0.0
Eu2641 Eu 0.872 0.99694 0.99988 0.0
C2642 C 0.88966 0.93975 0.12554 0.0
O2643 O 0.90715 0.94643 0.14995 0.0
C2644 C 0.80718 0.9907 1.03831 0.0
O2645 O 0.8907 1.01216 0.95222 0.0
C2646 C 0.89586 1.03412 0.04226 0.0
C2647 C 0.92062 1.00829 0.9457 0.0
O2648 O 0.93877 0.99683 0.9671 0.0
C2649 C 0.91769 0.93939 1.01064 0.0
C2650 C 0.92489 0.04898 0.05432 0.0
C2651 C 0.94068 1.03578 0.07948 0.0
C2652 C 0.96794 0.04964 0.09154 0.0
C2653 C 0.97887 0.07745 0.07924 0.0
C2654 C 0.96435 0.0902 0.05334 0.0
C2655 C 0.93712 0.07615 1.04112 0.0
O2656 O 0.82609 0.98475 0.06195 0.0
O2657 O 0.81898 0.99176 1.00959 0.0
O2658 O 0.84778 0.90709 0.05262 0.0
O2659 O 0.84729 0.93643 1.01294 0.0
C2660 C 0.8404 0.9092 1.02333 0.0
O2661 O 0.89989 0.95296 0.99005 0.0
O2662 O 0.91369 0.94574 1.04023 0.0
O2663 O 0.88413 0.04382 1.01588 0.0
O2664 O 0.8927 1.00409 0.04568 0.0
H2665 H 0.93269 1.01395 0.08883 0.0
H2666 H 1.00113 0.08688 0.08716 0.0
H2667 H 0.92638 0.08571 1.02063 0.0
O2668 O 0.37092 0.63997 0.34238 0.0
Tb2669 Tb 0.3769 0.62472 0.29389 0.0
Eu2670 Eu 0.34084 0.64706 0.23526 0.0
C2671 C 0.38872 0.63298 0.36618 0.0
O2672 O 0.38523 0.64792 0.39278 0.0
C2673 C 0.3343 0.57991 0.25734 0.0
O2674 O 0.32497 0.67663 0.19524 0.0
C2675 C 0.3074 0.66454 0.28266 0.0
C2676 C 0.34318 0.69777 0.18257 0.0
O2677 O 0.37276 0.69954 0.18962 0.0
C2678 C 0.40583 0.67915 0.25635 0.0
C2679 C 0.29196 0.69169 0.29703 0.0
C2680 C 0.30503 0.70566 0.32395 0.0
C2681 C 0.29148 0.73182 0.33772 0.0
C2682 C 0.26386 0.74328 0.32535 0.0
C2683 C 0.25105 0.73043 0.29791 0.0
C2684 C 0.26498 0.70442 0.28393 0.0
O2685 O 0.33463 0.5972 0.2832 0.0
O2686 O 0.34063 0.59422 0.23127 0.0
O2687 O 0.40591 0.58404 0.2953 0.0
O2688 O 0.40018 0.6084 0.25256 0.0
C2689 C 0.41114 0.58397 0.26555 0.0
O2690 O 0.39025 0.66636 0.23296 0.0
O2691 O 0.40003 0.66997 0.28483 0.0
O2692 O 0.29549 0.65268 0.25678 0.0
O2693 O 0.33789 0.6646 0.28299 0.0
H2694 H 0.32675 0.69728 0.33329 0.0
H2695 H 0.25467 0.76476 0.33475 0.0
H2696 H 0.25558 0.69516 0.26219 0.0
O2697 O 0.38548 0.61996 0.97835 0.0
Tb2698 Tb 0.36787 0.62258 1.02557 0.0
Eu2699 Eu 0.37316 0.57838 0.08136 0.0
C2700 C 0.37467 0.63694 0.956 0.0
O2701 O 0.38639 0.63445 0.92797 0.0
C2702 C 0.3066 0.58789 0.04458 0.0
O2703 O 0.39683 0.56153 0.12657 0.0
C2704 C 0.39554 0.54361 1.03709 0.0
C2705 C 0.42774 0.56346 0.12943 0.0
O2706 O 0.44372 0.57492 0.10632 0.0
C2707 C 0.41905 0.63717 0.07176 0.0
C2708 C 0.42539 0.53053 1.02648 0.0
C2709 C 0.44131 0.54429 1.00161 0.0
C2710 C 0.47002 0.53286 0.99174 0.0
C2711 C 0.48237 0.50693 1.00605 0.0
C2712 C 0.46745 0.49373 1.03153 0.0
C2713 C 0.43889 0.50536 1.04163 0.0
O2714 O 0.32506 0.59368 1.02062 0.0
O2715 O 0.31959 0.58465 0.07284 0.0
O2716 O 0.35309 0.6703 1.03002 0.0
O2717 O 0.34867 0.63946 0.06853 0.0
C2718 C 0.34482 0.66741 0.05906 0.0
O2719 O 0.4012 0.62301 0.09208 0.0
O2720 O 0.41536 0.6303 0.04221 0.0
O2721 O 0.38292 0.53239 0.06242 0.0
O2722 O 0.39276 0.57369 1.0351 0.0
H2723 H 0.43223 0.56487 0.99093 0.0
H2724 H 0.50549 0.49934 0.99976 0.0
H2725 H 0.42801 0.49556 0.06194 0.0
O2726 O 0.69187 0.11691 0.23678 0.0
Tb2727 Tb 0.71711 0.11149 0.28002 0.0
Eu2728 Eu 0.77031 0.12983 0.32872 0.0
C2729 C 0.66342 0.12761 0.23843 0.0
O2730 O 0.65188 0.1359 0.26546 0.0
C2731 C 0.76666 0.06322 0.29117 0.0
O2732 O 0.78571 0.1569 0.37365 0.0
C2733 C 0.79825 0.15673 0.28296 0.0
C2734 C 0.77809 0.18665 0.37765 0.0
O2735 O 0.76312 0.2003 0.35518 0.0
C2736 C 0.706 0.16561 0.32267 0.0
C2737 C 0.80876 0.18787 0.27313 0.0
C2738 C 0.79318 0.20294 0.24888 0.0
C2739 C 0.80307 0.23249 0.23947 0.0
C2740 C 0.82898 0.24658 0.25395 0.0
C2741 C 0.84374 0.23248 0.27892 0.0
C2742 C 0.83387 0.20312 0.28831 0.0
O2743 O 0.75557 0.08058 0.26872 0.0
O2744 O 0.77023 0.07613 0.31962 0.0
O2745 O 0.67696 0.0839 0.29255 0.0
O2746 O 0.71215 0.09289 0.32674 0.0
C2747 C 0.68607 0.0788 0.32065 0.0
O2748 O 0.72385 0.15088 0.34223 0.0
O2749 O 0.7085 0.15952 0.29294 0.0
O2750 O 0.81306 0.14444 0.30654 0.0
O2751 O 0.76814 0.15114 0.28317 0.0
H2752 H 0.7727 0.19232 0.23815 0.0
H2753 H 0.83545 0.27017 0.24816 0.0
H2754 H 0.84505 0.19288 0.30821 0.0
O2755 O 0.84239 1.02377 0.73459 0.0
Tb2756 Tb 0.855 0.97413 0.74141 0.0
Eu2757 Eu 0.87791 0.89935 0.788 0.0
C2758 C 0.83551 1.04292 0.75818 0.0
O2759 O 0.83155 1.03125 0.78584 0.0
C2760 C 0.88339 0.9699 0.80847 0.0
O2761 O 0.92049 0.87392 0.80367 0.0
C2762 C 0.82506 0.87861 0.80792 0.0
C2763 C 0.94666 0.88207 0.79044 0.0
O2764 O 0.94518 0.90045 0.7665 0.0
C2765 C 0.84813 0.905 0.72367 0.0
C2766 C 0.80313 0.87504 0.83339 0.0
C2767 C 0.77175 0.86914 0.82559 0.0
C2768 C 0.74997 0.86433 0.84909 0.0
C2769 C 0.75903 0.87203 0.87967 0.0
C2770 C 0.79067 0.86923 0.88785 0.0
C2771 C 0.81303 0.87299 0.86456 0.0
O2772 O 0.85739 0.97394 0.7925 0.0
O2773 O 0.89537 0.94244 0.81163 0.0
O2774 O 0.88416 0.96883 0.70028 0.0
O2775 O 0.90487 0.96692 0.74524 0.0
C2776 C 0.90987 0.96511 0.71557 0.0
O2777 O 0.87591 0.90688 0.73647 0.0
O2778 O 0.83068 0.93024 0.72612 0.0
O2779 O 0.82908 0.90672 0.79737 0.0
O2780 O 0.85048 0.86206 0.80826 0.0
H2781 H 0.7652 0.86447 0.80153 0.0
H2782 H 0.74142 0.86963 0.89745 0.0
H2783 H 0.83759 0.87255 0.87023 0.0
loop_
_geom_bond_atom_site_label_1
_geom_bond_atom_site_label_2
_geom_bond_distance
_geom_bond_site_symmetry_2
_ccdc_geom_bond_type
O0 Tb1 2.292 . S
O0 C3 1.255 . S
Tb1 O0 2.292 . S
Tb1 O17 2.326 1_455 S
Tb1 O19 2.500 1_455 S
Tb1 O20 2.473 1_455 S
Tb1 O23 2.324 1_455 S
Eu2 O6 2.292 . S
Eu2 C7 2.852 1_654 S
Eu2 O18 2.324 . S
Eu2 O22 2.326 . S
Eu2 O24 2.500 1_554 S
Eu2 O25 2.473 1_655 S
C3 O0 1.255 . S
C3 O4 1.247 . S
O4 C3 1.247 . S
C5 O17 1.242 . S
C5 O18 1.258 . S
O6 Eu2 2.292 . S
O6 C8 1.255 . S
C7 Eu2 2.852 1_456 S
C7 C11 1.503 . S
C7 O24 1.273 1_455 S
C7 O25 1.257 1_556 S
C8 O6 1.255 . S
C8 O9 1.247 . S
O9 C8 1.247 . S
C10 O22 1.242 . S
C10 O23 1.258 . S
C11 C7 1.503 . S
C11 C12 1.372 1_556 S
C11 C16 1.392 . S
C12 C11 1.372 1_554 S
C12 C13 1.399 1_554 S
C12 H26 0.942 . S
C13 C12 1.399 1_556 S
C13 C14 1.389 . S
C14 C13 1.389 . S
C14 C15 1.399 . S
C14 H27 0.931 . S
C15 C14 1.399 . S
C15 C16 1.390 . S
C16 C11 1.392 . S
C16 C15 1.390 . S
C16 H28 0.929 . S
O17 Tb1 2.326 1_655 S
O17 C5 1.242 . S
O18 Eu2 2.324 . S
O18 C5 1.258 . S
O19 Tb1 2.500 1_655 S
O19 C21 1.273 . S
O20 Tb1 2.473 1_655 S
O20 C21 1.257 . S
C21 O19 1.273 . S
C21 O20 1.257 . S
O22 Eu2 2.326 . S
O22 C10 1.242 . S
O23 Tb1 2.324 1_655 S
O23 C10 1.258 . S
O24 Eu2 2.500 1_556 S
O24 C7 1.273 1_655 S
O25 Eu2 2.473 1_455 S
O25 C7 1.257 1_554 S
H26 C12 0.942 . S
H27 C14 0.931 . S
H28 C16 0.929 . S
O29 Tb30 2.292 . S
O29 C32 1.255 . S
Tb30 O29 2.292 . S
Tb30 O46 2.326 . S
Tb30 O48 2.500 . S
Tb30 O49 2.473 . S
Tb30 O52 2.324 . S
Eu31 O35 2.292 . S
Eu31 C36 2.852 . S
Eu31 O47 2.324 . S
Eu31 O51 2.326 . S
Eu31 O53 2.500 . S
Eu31 O54 2.473 . S
C32 O29 1.255 . S
C32 O33 1.247 . S
O33 C32 1.247 . S
C34 O46 1.242 . S
C34 O47 1.258 . S
O35 Eu31 2.292 . S
O35 C37 1.255 . S
C36 Eu31 2.852 . S
C36 C40 1.503 . S
C36 O53 1.273 . S
C36 O54 1.257 . S
C37 O35 1.255 . S
C37 O38 1.247 . S
O38 C37 1.247 . S
C39 O51 1.242 . S
C39 O52 1.258 . S
C40 C36 1.503 . S
C40 C41 1.379 . S
C40 C45 1.392 . S
C41 C40 1.379 . S
C41 C42 1.404 . S
C41 H55 0.929 . S
C42 C41 1.404 . S
C42 C43 1.389 . S
C43 C42 1.389 . S
C43 C44 1.399 . S
C43 H56 0.931 . S
C44 C43 1.399 . S
C44 C45 1.390 . S
C45 C40 1.392 . S
C45 C44 1.390 . S
C45 H57 0.929 . S
O46 Tb30 2.326 . S
O46 C34 1.242 . S
O47 Eu31 2.324 . S
O47 C34 1.258 . S
O48 Tb30 2.500 . S
O48 C50 1.273 . S
O49 Tb30 2.473 . S
O49 C50 1.257 . S
C50 O48 1.273 . S
C50 O49 1.257 . S
O51 Eu31 2.326 . S
O51 C39 1.242 . S
O52 Tb30 2.324 . S
O52 C39 1.258 . S
O53 Eu31 2.500 . S
O53 C36 1.273 . S
O54 Eu31 2.473 . S
O54 C36 1.257 . S
H55 C41 0.929 . S
H56 C43 0.931 . S
H57 C45 0.929 . S
O58 Tb59 2.292 . S
O58 C61 1.255 . S
Tb59 O58 2.292 . S
Tb59 O75 2.326 . S
Tb59 O77 2.500 . S
Tb59 O78 2.473 . S
Tb59 O81 2.324 . S
Eu60 O64 2.292 . S
Eu60 C65 2.852 . S
Eu60 O76 2.324 . S
Eu60 O80 2.326 . S
Eu60 O82 2.500 . S
Eu60 O83 2.473 . S
C61 O58 1.255 . S
C61 O62 1.247 . S
O62 C61 1.247 . S
C63 O75 1.242 . S
C63 O76 1.258 . S
O64 Eu60 2.292 . S
O64 C66 1.255 . S
C65 Eu60 2.852 . S
C65 C69 1.503 . S
C65 O82 1.273 . S
C65 O83 1.257 . S
C66 O64 1.255 . S
C66 O67 1.247 . S
O67 C66 1.247 . S
C68 O80 1.242 . S
C68 O81 1.258 . S
C69 C65 1.503 . S
C69 C70 1.379 . S
C69 C74 1.392 . S
C70 C69 1.379 . S
C70 C71 1.404 . S
C70 H84 0.929 . S
C71 C70 1.404 . S
C71 C72 1.389 . S
C72 C71 1.389 . S
C72 C73 1.399 . S
C72 H85 0.931 . S
C73 C72 1.399 . S
C73 C74 1.390 . S
C74 C69 1.392 . S
C74 C73 1.390 . S
C74 H86 0.929 . S
O75 Tb59 2.326 . S
O75 C63 1.242 . S
O76 Eu60 2.324 . S
O76 C63 1.258 . S
O77 Tb59 2.500 . S
O77 C79 1.273 . S
O78 Tb59 2.473 . S
O78 C79 1.257 . S
C79 O77 1.273 . S
C79 O78 1.257 . S
O80 Eu60 2.326 . S
O80 C68 1.242 . S
O81 Tb59 2.324 . S
O81 C68 1.258 . S
O82 Eu60 2.500 . S
O82 C65 1.273 . S
O83 Eu60 2.473 . S
O83 C65 1.257 . S
H84 C70 0.929 . S
H85 C72 0.931 . S
H86 C74 0.929 . S
O87 Tb88 2.292 . S
O87 C90 1.255 . S
Tb88 O87 2.292 . S
Tb88 O104 2.326 . S
Tb88 O106 2.500 . S
Tb88 O107 2.473 . S
Tb88 O110 2.324 . S
Eu89 O93 2.292 . S
Eu89 C94 2.852 . S
Eu89 O105 2.324 . S
Eu89 O109 2.326 . S
Eu89 O111 2.500 . S
Eu89 O112 2.473 . S
C90 O87 1.255 . S
C90 O91 1.247 . S
O91 C90 1.247 . S
C92 O104 1.242 . S
C92 O105 1.258 . S
O93 Eu89 2.292 . S
O93 C95 1.255 . S
C94 Eu89 2.852 . S
C94 C98 1.503 . S
C94 O111 1.273 . S
C94 O112 1.257 . S
C95 O93 1.255 . S
C95 O96 1.247 . S
O96 C95 1.247 . S
C97 O109 1.242 . S
C97 O110 1.258 . S
C98 C94 1.503 . S
C98 C99 1.379 . S
C98 C103 1.392 . S
C99 C98 1.379 . S
C99 C100 1.404 . S
C99 H113 0.929 . S
C100 C99 1.404 . S
C100 C101 1.389 . S
C101 C100 1.389 . S
C101 C102 1.399 . S
C101 H114 0.931 . S
C102 C101 1.399 . S
C102 C103 1.390 . S
C103 C98 1.392 . S
C103 C102 1.390 . S
C103 H115 0.929 . S
O104 Tb88 2.326 . S
O104 C92 1.242 . S
O105 Eu89 2.324 . S
O105 C92 1.258 . S
O106 Tb88 2.500 . S
O106 C108 1.273 . S
O107 Tb88 2.473 . S
O107 C108 1.257 . S
C108 O106 1.273 . S
C108 O107 1.257 . S
O109 Eu89 2.326 . S
O109 C97 1.242 . S
O110 Tb88 2.324 . S
O110 C97 1.258 . S
O111 Eu89 2.500 . S
O111 C94 1.273 . S
O112 Eu89 2.473 . S
O112 C94 1.257 . S
H113 C99 0.929 . S
H114 C101 0.931 . S
H115 C103 0.929 . S
O116 Tb117 2.292 . S
O116 C119 1.255 . S
Tb117 O116 2.292 . S
Tb117 O133 2.326 1_455 S
Tb117 O135 2.500 1_455 S
Tb117 O136 2.473 1_455 S
Tb117 O139 2.324 1_455 S
Eu118 O122 2.292 . S
Eu118 C123 2.852 1_655 S
Eu118 O134 2.324 . S
Eu118 O138 2.326 . S
Eu118 O140 2.500 . S
Eu118 O141 2.473 1_655 S
C119 O116 1.255 . S
C119 O120 1.247 . S
O120 C119 1.247 . S
C121 O133 1.242 . S
C121 O134 1.258 . S
O122 Eu118 2.292 . S
O122 C124 1.255 . S
C123 Eu118 2.852 1_455 S
C123 C127 1.503 . S
C123 O140 1.273 1_455 S
C123 O141 1.257 . S
C124 O122 1.255 . S
C124 O125 1.247 . S
O125 C124 1.247 . S
C126 O138 1.242 . S
C126 O139 1.258 . S
C127 C123 1.503 . S
C127 C128 1.379 . S
C127 C132 1.392 . S
C128 C127 1.379 . S
C128 C129 1.404 . S
C128 H142 0.929 . S
C129 C128 1.404 . S
C129 C130 1.389 . S
C130 C129 1.389 . S
C130 C131 1.399 . S
C130 H143 0.931 . S
C131 C130 1.399 . S
C131 C132 1.390 . S
C132 C127 1.392 . S
C132 C131 1.390 . S
C132 H144 0.929 . S
O133 Tb117 2.326 1_655 S
O133 C121 1.242 . S
O134 Eu118 2.324 . S
O134 C121 1.258 . S
O135 Tb117 2.500 1_655 S
O135 C137 1.273 . S
O136 Tb117 2.473 1_655 S
O136 C137 1.257 . S
C137 O135 1.273 . S
C137 O136 1.257 . S
O138 Eu118 2.326 . S
O138 C126 1.242 . S
O139 Tb117 2.324 1_655 S
O139 C126 1.258 . S
O140 Eu118 2.500 . S
O140 C123 1.273 1_655 S
O141 Eu118 2.473 1_455 S
O141 C123 1.257 . S
H142 C128 0.929 . S
H143 C130 0.931 . S
H144 C132 0.929 . S
O145 Tb146 2.292 . S
O145 C148 1.255 . S
Tb146 O145 2.292 . S
Tb146 O162 2.326 . S
Tb146 O164 2.500 . S
Tb146 O165 2.473 . S
Tb146 O168 2.324 . S
Eu147 O151 2.292 . S
Eu147 C152 2.852 . S
Eu147 O163 2.324 . S
Eu147 O167 2.326 . S
Eu147 O169 2.500 . S
Eu147 O170 2.473 . S
C148 O145 1.255 . S
C148 O149 1.247 . S
O149 C148 1.247 . S
C150 O162 1.242 . S
C150 O163 1.258 . S
O151 Eu147 2.292 . S
O151 C153 1.255 . S
C152 Eu147 2.852 . S
C152 C156 1.503 . S
C152 O169 1.273 . S
C152 O170 1.257 . S
C153 O151 1.255 . S
C153 O154 1.247 . S
O154 C153 1.247 . S
C155 O167 1.242 . S
C155 O168 1.258 . S
C156 C152 1.503 . S
C156 C157 1.379 . S
C156 C161 1.392 . S
C157 C156 1.379 . S
C157 C158 1.404 . S
C157 H171 0.929 . S
C158 C157 1.404 . S
C158 C159 1.389 . S
C159 C158 1.389 . S
C159 C160 1.399 . S
C159 H172 0.931 . S
C160 C159 1.399 . S
C160 C161 1.390 . S
C161 C156 1.392 . S
C161 C160 1.390 . S
C161 H173 0.929 . S
O162 Tb146 2.326 . S
O162 C150 1.242 . S
O163 Eu147 2.324 . S
O163 C150 1.258 . S
O164 Tb146 2.500 . S
O164 C166 1.273 . S
O165 Tb146 2.473 . S
O165 C166 1.257 . S
C166 O164 1.273 . S
C166 O165 1.257 . S
O167 Eu147 2.326 . S
O167 C155 1.242 . S
O168 Tb146 2.324 . S
O168 C155 1.258 . S
O169 Eu147 2.500 . S
O169 C152 1.273 . S
O170 Eu147 2.473 . S
O170 C152 1.257 . S
H171 C157 0.929 . S
H172 C159 0.931 . S
H173 C161 0.929 . S
O174 Tb175 2.292 . S
O174 C177 1.255 . S
Tb175 O174 2.292 . S
Tb175 O191 2.326 . S
Tb175 O193 2.500 . S
Tb175 O194 2.473 . S
Tb175 O197 2.324 . S
Eu176 O180 2.292 . S
Eu176 C181 2.852 1_556 S
Eu176 O192 2.324 . S
Eu176 O196 2.326 . S
Eu176 O198 2.500 1_556 S
Eu176 O199 2.473 . S
C177 O174 1.255 . S
C177 O178 1.247 . S
O178 C177 1.247 . S
C179 O191 1.242 . S
C179 O192 1.258 . S
O180 Eu176 2.292 . S
O180 C182 1.255 . S
C181 Eu176 2.852 1_554 S
C181 C185 1.503 . S
C181 O198 1.273 . S
C181 O199 1.257 1_554 S
C182 O180 1.255 . S
C182 O183 1.247 . S
O183 C182 1.247 . S
C184 O196 1.242 . S
C184 O197 1.258 . S
C185 C181 1.503 . S
C185 C186 1.379 . S
C185 C190 1.392 . S
C186 C185 1.379 . S
C186 C187 1.404 . S
C186 H200 0.929 1_554 S
C187 C186 1.404 . S
C187 C188 1.389 . S
C188 C187 1.389 . S
C188 C189 1.399 . S
C188 H201 0.931 . S
C189 C188 1.399 . S
C189 C190 1.390 . S
C190 C185 1.392 . S
C190 C189 1.390 . S
C190 H202 0.929 . S
O191 Tb175 2.326 . S
O191 C179 1.242 . S
O192 Eu176 2.324 . S
O192 C179 1.258 . S
O193 Tb175 2.500 . S
O193 C195 1.273 . S
O194 Tb175 2.473 . S
O194 C195 1.257 . S
C195 O193 1.273 . S
C195 O194 1.257 . S
O196 Eu176 2.326 . S
O196 C184 1.242 . S
O197 Tb175 2.324 . S
O197 C184 1.258 . S
O198 Eu176 2.500 1_554 S
O198 C181 1.273 . S
O199 Eu176 2.473 . S
O199 C181 1.257 1_556 S
H200 C186 0.929 1_556 S
H201 C188 0.931 . S
H202 C190 0.929 . S
O203 Tb204 2.292 . S
O203 C206 1.255 . S
Tb204 O203 2.292 . S
Tb204 O220 2.326 . S
Tb204 O222 2.500 . S
Tb204 O223 2.473 . S
Tb204 O226 2.324 . S
Eu205 O209 2.292 . S
Eu205 C210 2.852 . S
Eu205 O221 2.324 . S
Eu205 O225 2.326 . S
Eu205 O227 2.500 . S
Eu205 O228 2.473 . S
C206 O203 1.255 . S
C206 O207 1.247 . S
O207 C206 1.247 . S
C208 O220 1.242 . S
C208 O221 1.258 . S
O209 Eu205 2.292 . S
O209 C211 1.255 . S
C210 Eu205 2.852 . S
C210 C214 1.503 . S
C210 O227 1.273 . S
C210 O228 1.257 . S
C211 O209 1.255 . S
C211 O212 1.247 . S
O212 C211 1.247 . S
C213 O225 1.242 . S
C213 O226 1.258 . S
C214 C210 1.503 . S
C214 C215 1.379 . S
C214 C219 1.392 . S
C215 C214 1.379 . S
C215 C216 1.404 . S
C215 H229 0.929 . S
C216 C215 1.404 . S
C216 C217 1.389 . S
C217 C216 1.389 . S
C217 C218 1.399 . S
C217 H230 0.931 . S
C218 C217 1.399 . S
C218 C219 1.390 . S
C219 C214 1.392 . S
C219 C218 1.390 . S
C219 H231 0.929 . S
O220 Tb204 2.326 . S
O220 C208 1.242 . S
O221 Eu205 2.324 . S
O221 C208 1.258 . S
O222 Tb204 2.500 . S
O222 C224 1.273 . S
O223 Tb204 2.473 . S
O223 C224 1.257 . S
C224 O222 1.273 . S
C224 O223 1.257 . S
O225 Eu205 2.326 . S
O225 C213 1.242 . S
O226 Tb204 2.324 . S
O226 C213 1.258 . S
O227 Eu205 2.500 . S
O227 C210 1.273 . S
O228 Eu205 2.473 . S
O228 C210 1.257 . S
H229 C215 0.929 . S
H230 C217 0.931 . S
H231 C219 0.929 . S
O232 Tb233 2.292 . S
O232 C235 1.255 . S
Tb233 O232 2.292 . S
Tb233 O249 2.326 1_545 S
Tb233 O251 2.500 1_545 S
Tb233 O252 2.473 1_545 S
Tb233 O255 2.324 1_545 S
Eu234 O238 2.292 . S
Eu234 C239 2.852 1_465 S
Eu234 O250 2.324 . S
Eu234 O254 2.326 . S
Eu234 O256 2.500 1_455 S
Eu234 O257 2.473 1_565 S
C235 O232 1.255 . S
C235 O236 1.247 . S
O236 C235 1.247 . S
C237 O249 1.242 . S
C237 O250 1.258 . S
O238 Eu234 2.292 . S
O238 C240 1.255 . S
C239 Eu234 2.852 1_645 S
C239 C243 1.503 . S
C239 O256 1.273 1_545 S
C239 O257 1.257 1_655 S
C240 O238 1.255 . S
C240 O241 1.247 . S
O241 C240 1.247 . S
C242 O254 1.242 . S
C242 O255 1.258 . S
C243 C239 1.503 . S
C243 C244 1.387 . S
C243 C248 1.392 . S
C244 C243 1.387 . S
C244 C245 1.409 . S
C244 H258 0.917 1_655 S
C245 C244 1.409 . S
C245 C246 1.389 . S
C246 C245 1.389 . S
C246 C247 1.399 . S
C246 H259 0.931 . S
C247 C246 1.399 . S
C247 C248 1.390 . S
C248 C243 1.392 . S
C248 C247 1.390 . S
C248 H260 0.929 . S
O249 Tb233 2.326 1_565 S
O249 C237 1.242 . S
O250 Eu234 2.324 . S
O250 C237 1.258 . S
O251 Tb233 2.500 1_565 S
O251 C253 1.273 . S
O252 Tb233 2.473 1_565 S
O252 C253 1.257 . S
C253 O251 1.273 . S
C253 O252 1.257 . S
O254 Eu234 2.326 . S
O254 C242 1.242 . S
O255 Tb233 2.324 1_565 S
O255 C242 1.258 . S
O256 Eu234 2.500 1_655 S
O256 C239 1.273 1_565 S
O257 Eu234 2.473 1_545 S
O257 C239 1.257 1_455 S
H258 C244 0.917 1_455 S
H259 C246 0.931 . S
H260 C248 0.929 . S
O261 Tb262 2.292 . S
O261 C264 1.255 . S
Tb262 O261 2.292 . S
Tb262 O278 2.326 . S
Tb262 O280 2.500 . S
Tb262 O281 2.473 . S
Tb262 O284 2.324 . S
Eu263 O267 2.292 . S
Eu263 C268 2.852 . S
Eu263 O279 2.324 . S
Eu263 O283 2.326 . S
Eu263 O285 2.500 . S
Eu263 O286 2.473 . S
C264 O261 1.255 . S
C264 O265 1.247 . S
O265 C264 1.247 . S
C266 O278 1.242 . S
C266 O279 1.258 . S
O267 Eu263 2.292 . S
O267 C269 1.255 . S
C268 Eu263 2.852 . S
C268 C272 1.503 . S
C268 O285 1.273 . S
C268 O286 1.257 . S
C269 O267 1.255 . S
C269 O270 1.247 . S
O270 C269 1.247 . S
C271 O283 1.242 . S
C271 O284 1.258 . S
C272 C268 1.503 . S
C272 C273 1.379 . S
C272 C277 1.392 . S
C273 C272 1.379 . S
C273 C274 1.404 . S
C273 H287 0.929 . S
C274 C273 1.404 . S
C274 C275 1.389 . S
C275 C274 1.389 . S
C275 C276 1.399 . S
C275 H288 0.931 . S
C276 C275 1.399 . S
C276 C277 1.390 . S
C277 C272 1.392 . S
C277 C276 1.390 . S
C277 H289 0.929 . S
O278 Tb262 2.326 . S
O278 C266 1.242 . S
O279 Eu263 2.324 . S
O279 C266 1.258 . S
O280 Tb262 2.500 . S
O280 C282 1.273 . S
O281 Tb262 2.473 . S
O281 C282 1.257 . S
C282 O280 1.273 . S
C282 O281 1.257 . S
O283 Eu263 2.326 . S
O283 C271 1.242 . S
O284 Tb262 2.324 . S
O284 C271 1.258 . S
O285 Eu263 2.500 . S
O285 C268 1.273 . S
O286 Eu263 2.473 . S
O286 C268 1.257 . S
H287 C273 0.929 . S
H288 C275 0.931 . S
H289 C277 0.929 . S
O290 Tb291 2.292 . S
O290 C293 1.255 . S
Tb291 O290 2.292 . S
Tb291 O307 2.326 1_565 S
Tb291 O309 2.500 1_565 S
Tb291 O310 2.473 1_565 S
Tb291 O313 2.324 1_565 S
Eu292 O296 2.292 . S
Eu292 C297 2.852 1_545 S
Eu292 O308 2.324 . S
Eu292 O312 2.326 . S
Eu292 O314 2.500 . S
Eu292 O315 2.473 1_545 S
C293 O290 1.255 . S
C293 O294 1.247 . S
O294 C293 1.247 . S
C295 O307 1.242 . S
C295 O308 1.258 . S
O296 Eu292 2.292 . S
O296 C298 1.255 . S
C297 Eu292 2.852 1_565 S
C297 C301 1.503 . S
C297 O314 1.273 1_565 S
C297 O315 1.257 . S
C298 O296 1.255 . S
C298 O299 1.247 . S
O299 C298 1.247 . S
C300 O312 1.242 . S
C300 O313 1.258 . S
C301 C297 1.503 . S
C301 C302 1.379 . S
C301 C306 1.392 . S
C302 C301 1.379 . S
C302 C303 1.404 . S
C302 H316 0.929 . S
C303 C302 1.404 . S
C303 C304 1.389 . S
C304 C303 1.389 . S
C304 C305 1.399 . S
C304 H317 0.931 . S
C305 C304 1.399 . S
C305 C306 1.390 . S
C306 C301 1.392 . S
C306 C305 1.390 . S
C306 H318 0.929 . S
O307 Tb291 2.326 1_545 S
O307 C295 1.242 . S
O308 Eu292 2.324 . S
O308 C295 1.258 . S
O309 Tb291 2.500 1_545 S
O309 C311 1.273 . S
O310 Tb291 2.473 1_545 S
O310 C311 1.257 . S
C311 O309 1.273 . S
C311 O310 1.257 . S
O312 Eu292 2.326 . S
O312 C300 1.242 . S
O313 Tb291 2.324 1_545 S
O313 C300 1.258 . S
O314 Eu292 2.500 . S
O314 C297 1.273 1_545 S
O315 Eu292 2.473 1_565 S
O315 C297 1.257 . S
H316 C302 0.929 . S
H317 C304 0.931 . S
H318 C306 0.929 . S
O319 Tb320 2.292 . S
O319 C322 1.255 . S
Tb320 O319 2.292 . S
Tb320 O336 2.326 . S
Tb320 O338 2.500 . S
Tb320 O339 2.473 . S
Tb320 O342 2.324 . S
Eu321 O325 2.292 . S
Eu321 C326 2.852 . S
Eu321 O337 2.324 . S
Eu321 O341 2.326 . S
Eu321 O343 2.500 . S
Eu321 O344 2.473 . S
C322 O319 1.255 . S
C322 O323 1.247 . S
O323 C322 1.247 . S
C324 O336 1.242 . S
C324 O337 1.258 . S
O325 Eu321 2.292 . S
O325 C327 1.255 . S
C326 Eu321 2.852 . S
C326 C330 1.503 . S
C326 O343 1.273 . S
C326 O344 1.257 . S
C327 O325 1.255 . S
C327 O328 1.247 . S
O328 C327 1.247 . S
C329 O341 1.242 . S
C329 O342 1.258 . S
C330 C326 1.503 . S
C330 C331 1.379 . S
C330 C335 1.392 . S
C331 C330 1.379 . S
C331 C332 1.404 . S
C331 H345 0.929 . S
C332 C331 1.404 . S
C332 C333 1.389 . S
C333 C332 1.389 . S
C333 C334 1.399 . S
C333 H346 0.931 . S
C334 C333 1.399 . S
C334 C335 1.390 . S
C335 C330 1.392 . S
C335 C334 1.390 . S
C335 H347 0.929 . S
O336 Tb320 2.326 . S
O336 C324 1.242 . S
O337 Eu321 2.324 . S
O337 C324 1.258 . S
O338 Tb320 2.500 . S
O338 C340 1.273 . S
O339 Tb320 2.473 . S
O339 C340 1.257 . S
C340 O338 1.273 . S
C340 O339 1.257 . S
O341 Eu321 2.326 . S
O341 C329 1.242 . S
O342 Tb320 2.324 . S
O342 C329 1.258 . S
O343 Eu321 2.500 . S
O343 C326 1.273 . S
O344 Eu321 2.473 . S
O344 C326 1.257 . S
H345 C331 0.929 . S
H346 C333 0.931 . S
H347 C335 0.929 . S
O348 Tb349 2.311 . S
O348 C351 1.255 . S
Tb349 O348 2.311 . S
Tb349 O365 2.319 1_565 S
Tb349 O367 2.491 1_565 S
Tb349 O368 2.450 1_565 S
Tb349 O371 2.313 1_565 S
Eu350 O354 2.292 . S
Eu350 C355 2.852 1_445 S
Eu350 O366 2.324 . S
Eu350 O370 2.326 . S
Eu350 O372 2.500 1_455 S
Eu350 O373 2.473 1_545 S
C351 O348 1.255 . S
C351 O352 1.247 . S
O352 C351 1.247 . S
C353 O365 1.242 . S
C353 O366 1.258 . S
O354 Eu350 2.292 . S
O354 C356 1.255 . S
C355 Eu350 2.852 1_665 S
C355 C359 1.503 . S
C355 O372 1.273 1_565 S
C355 O373 1.257 1_655 S
C356 O354 1.255 . S
C356 O357 1.247 . S
O357 C356 1.247 . S
C358 O370 1.242 . S
C358 O371 1.258 . S
C359 C355 1.503 . S
C359 C360 1.381 . S
C359 C364 1.392 . S
C360 C359 1.381 . S
C360 C361 1.405 . S
C360 H374 0.926 1_655 S
C361 C360 1.405 . S
C361 C362 1.389 . S
C362 C361 1.389 . S
C362 C363 1.399 . S
C362 H375 0.931 . S
C363 C362 1.399 . S
C363 C364 1.390 . S
C364 C359 1.392 . S
C364 C363 1.390 . S
C364 H376 0.929 . S
O365 Tb349 2.319 1_545 S
O365 C353 1.242 . S
O366 Eu350 2.324 . S
O366 C353 1.258 . S
O367 Tb349 2.491 1_545 S
O367 C369 1.273 . S
O368 Tb349 2.450 1_545 S
O368 C369 1.257 . S
C369 O367 1.273 . S
C369 O368 1.257 . S
O370 Eu350 2.326 . S
O370 C358 1.242 . S
O371 Tb349 2.313 1_545 S
O371 C358 1.258 . S
O372 Eu350 2.500 1_655 S
O372 C355 1.273 1_545 S
O373 Eu350 2.473 1_565 S
O373 C355 1.257 1_455 S
H374 C360 0.926 1_455 S
H375 C362 0.931 . S
H376 C364 0.929 . S
O377 Tb378 2.292 . S
O377 C380 1.255 . S
Tb378 O377 2.292 . S
Tb378 O394 2.326 . S
Tb378 O396 2.500 . S
Tb378 O397 2.473 . S
Tb378 O400 2.324 . S
Eu379 O383 2.292 . S
Eu379 C384 2.852 . S
Eu379 O395 2.324 . S
Eu379 O399 2.326 . S
Eu379 O401 2.500 . S
Eu379 O402 2.473 . S
C380 O377 1.255 . S
C380 O381 1.247 . S
O381 C380 1.247 . S
C382 O394 1.242 . S
C382 O395 1.258 . S
O383 Eu379 2.292 . S
O383 C385 1.255 . S
C384 Eu379 2.852 . S
C384 C388 1.503 . S
C384 O401 1.273 . S
C384 O402 1.257 . S
C385 O383 1.255 . S
C385 O386 1.247 . S
O386 C385 1.247 . S
C387 O399 1.242 . S
C387 O400 1.258 . S
C388 C384 1.503 . S
C388 C389 1.379 . S
C388 C393 1.392 . S
C389 C388 1.379 . S
C389 C390 1.404 . S
C389 H403 0.929 . S
C390 C389 1.404 . S
C390 C391 1.389 . S
C391 C390 1.389 . S
C391 C392 1.399 . S
C391 H404 0.931 . S
C392 C391 1.399 . S
C392 C393 1.390 . S
C393 C388 1.392 . S
C393 C392 1.390 . S
C393 H405 0.929 . S
O394 Tb378 2.326 . S
O394 C382 1.242 . S
O395 Eu379 2.324 . S
O395 C382 1.258 . S
O396 Tb378 2.500 . S
O396 C398 1.273 . S
O397 Tb378 2.473 . S
O397 C398 1.257 . S
C398 O396 1.273 . S
C398 O397 1.257 . S
O399 Eu379 2.326 . S
O399 C387 1.242 . S
O400 Tb378 2.324 . S
O400 C387 1.258 . S
O401 Eu379 2.500 . S
O401 C384 1.273 . S
O402 Eu379 2.473 . S
O402 C384 1.257 . S
H403 C389 0.929 . S
H404 C391 0.931 . S
H405 C393 0.929 . S
O406 Tb407 2.292 . S
O406 C409 1.255 . S
Tb407 O406 2.292 . S
Tb407 O423 2.326 1_545 S
Tb407 O425 2.500 1_545 S
Tb407 O426 2.473 1_545 S
Tb407 O429 2.324 1_545 S
Eu408 O412 2.292 . S
Eu408 C413 2.852 1_565 S
Eu408 O424 2.324 . S
Eu408 O428 2.326 . S
Eu408 O430 2.500 . S
Eu408 O431 2.473 1_565 S
C409 O406 1.255 . S
C409 O410 1.247 . S
O410 C409 1.247 . S
C411 O423 1.242 . S
C411 O424 1.258 . S
O412 Eu408 2.292 . S
O412 C414 1.255 . S
C413 Eu408 2.852 1_545 S
C413 C417 1.503 . S
C413 O430 1.273 1_545 S
C413 O431 1.257 . S
C414 O412 1.255 . S
C414 O415 1.247 . S
O415 C414 1.247 . S
C416 O428 1.242 . S
C416 O429 1.258 . S
C417 C413 1.503 . S
C417 C418 1.379 . S
C417 C422 1.392 . S
C418 C417 1.379 . S
C418 C419 1.404 . S
C418 H432 0.929 . S
C419 C418 1.404 . S
C419 C420 1.389 . S
C420 C419 1.389 . S
C420 C421 1.399 . S
C420 H433 0.931 . S
C421 C420 1.399 . S
C421 C422 1.390 . S
C422 C417 1.392 . S
C422 C421 1.390 . S
C422 H434 0.929 . S
O423 Tb407 2.326 1_565 S
O423 C411 1.242 . S
O424 Eu408 2.324 . S
O424 C411 1.258 . S
O425 Tb407 2.500 1_565 S
O425 C427 1.273 . S
O426 Tb407 2.473 1_565 S
O426 C427 1.257 . S
C427 O425 1.273 . S
C427 O426 1.257 . S
O428 Eu408 2.326 . S
O428 C416 1.242 . S
O429 Tb407 2.324 1_565 S
O429 C416 1.258 . S
O430 Eu408 2.500 . S
O430 C413 1.273 1_565 S
O431 Eu408 2.473 1_545 S
O431 C413 1.257 . S
H432 C418 0.929 . S
H433 C420 0.931 . S
H434 C422 0.929 . S
O435 Tb436 2.292 . S
O435 C438 1.255 . S
Tb436 O435 2.292 . S
Tb436 O452 2.326 . S
Tb436 O454 2.500 . S
Tb436 O455 2.473 . S
Tb436 O458 2.324 . S
Eu437 O441 2.292 . S
Eu437 C442 2.852 . S
Eu437 O453 2.324 . S
Eu437 O457 2.326 . S
Eu437 O459 2.500 . S
Eu437 O460 2.473 . S
C438 O435 1.255 . S
C438 O439 1.247 . S
O439 C438 1.247 . S
C440 O452 1.242 . S
C440 O453 1.258 . S
O441 Eu437 2.292 . S
O441 C443 1.255 . S
C442 Eu437 2.852 . S
C442 C446 1.503 . S
C442 O459 1.273 . S
C442 O460 1.257 . S
C443 O441 1.255 . S
C443 O444 1.247 . S
O444 C443 1.247 . S
C445 O457 1.242 . S
C445 O458 1.258 . S
C446 C442 1.503 . S
C446 C447 1.379 . S
C446 C451 1.392 . S
C447 C446 1.379 . S
C447 C448 1.404 . S
C447 H461 0.929 . S
C448 C447 1.404 . S
C448 C449 1.389 . S
C449 C448 1.389 . S
C449 C450 1.399 . S
C449 H462 0.931 . S
C450 C449 1.399 . S
C450 C451 1.390 . S
C451 C446 1.392 . S
C451 C450 1.390 . S
C451 H463 0.929 . S
O452 Tb436 2.326 . S
O452 C440 1.242 . S
O453 Eu437 2.324 . S
O453 C440 1.258 . S
O454 Tb436 2.500 . S
O454 C456 1.273 . S
O455 Tb436 2.473 . S
O455 C456 1.257 . S
C456 O454 1.273 . S
C456 O455 1.257 . S
O457 Eu437 2.326 . S
O457 C445 1.242 . S
O458 Tb436 2.324 . S
O458 C445 1.258 . S
O459 Eu437 2.500 . S
O459 C442 1.273 . S
O460 Eu437 2.473 . S
O460 C442 1.257 . S
H461 C447 0.929 . S
H462 C449 0.931 . S
H463 C451 0.929 . S
O464 Tb465 2.292 . S
O464 C467 1.255 . S
Tb465 O464 2.292 . S
Tb465 O481 2.326 1_554 S
Tb465 O483 2.500 1_554 S
Tb465 O484 2.473 1_554 S
Tb465 O487 2.324 1_554 S
Eu466 O470 2.292 . S
Eu466 C471 2.852 1_546 S
Eu466 O482 2.324 . S
Eu466 O486 2.326 . S
Eu466 O488 2.500 1_545 S
Eu466 O489 2.473 1_556 S
C467 O464 1.255 . S
C467 O468 1.247 . S
O468 C467 1.247 . S
C469 O481 1.242 . S
C469 O482 1.258 . S
O470 Eu466 2.292 . S
O470 C472 1.255 . S
C471 Eu466 2.852 1_564 S
C471 C475 1.503 . S
C471 O488 1.273 1_554 S
C471 O489 1.257 1_565 S
C472 O470 1.255 . S
C472 O473 1.247 . S
O473 C472 1.247 . S
C474 O486 1.242 . S
C474 O487 1.258 . S
C475 C471 1.503 . S
C475 C476 1.379 1_565 S
C475 C480 1.392 . S
C476 C475 1.379 1_545 S
C476 C477 1.404 1_545 S
C476 H490 0.929 . S
C477 C476 1.404 1_565 S
C477 C478 1.389 . S
C478 C477 1.389 . S
C478 C479 1.399 . S
C478 H491 0.931 . S
C479 C478 1.399 . S
C479 C480 1.390 . S
C480 C475 1.392 . S
C480 C479 1.390 . S
C480 H492 0.929 . S
O481 Tb465 2.326 1_556 S
O481 C469 1.242 . S
O482 Eu466 2.324 . S
O482 C469 1.258 . S
O483 Tb465 2.500 1_556 S
O483 C485 1.273 . S
O484 Tb465 2.473 1_556 S
O484 C485 1.257 . S
C485 O483 1.273 . S
C485 O484 1.257 . S
O486 Eu466 2.326 . S
O486 C474 1.242 . S
O487 Tb465 2.324 1_556 S
O487 C474 1.258 . S
O488 Eu466 2.500 1_565 S
O488 C471 1.273 1_556 S
O489 Eu466 2.473 1_554 S
O489 C471 1.257 1_545 S
H490 C476 0.929 . S
H491 C478 0.931 . S
H492 C480 0.929 . S
O493 Tb494 2.292 . S
O493 C496 1.255 . S
Tb494 O493 2.292 . S
Tb494 O510 2.326 1_556 S
Tb494 O512 2.500 1_556 S
Tb494 O513 2.473 1_556 S
Tb494 O516 2.324 1_556 S
Eu495 O499 2.292 . S
Eu495 C500 2.852 1_554 S
Eu495 O511 2.324 . S
Eu495 O515 2.326 . S
Eu495 O517 2.500 . S
Eu495 O518 2.473 1_554 S
C496 O493 1.255 . S
C496 O497 1.247 . S
O497 C496 1.247 . S
C498 O510 1.242 . S
C498 O511 1.258 . S
O499 Eu495 2.292 . S
O499 C501 1.255 . S
C500 Eu495 2.852 1_556 S
C500 C504 1.503 . S
C500 O517 1.273 1_556 S
C500 O518 1.257 . S
C501 O499 1.255 . S
C501 O502 1.247 . S
O502 C501 1.247 . S
C503 O515 1.242 . S
C503 O516 1.258 . S
C504 C500 1.503 . S
C504 C505 1.379 . S
C504 C509 1.392 . S
C505 C504 1.379 . S
C505 C506 1.404 . S
C505 H519 0.929 . S
C506 C505 1.404 . S
C506 C507 1.389 . S
C507 C506 1.389 . S
C507 C508 1.399 . S
C507 H520 0.931 . S
C508 C507 1.399 . S
C508 C509 1.390 . S
C509 C504 1.392 . S
C509 C508 1.390 . S
C509 H521 0.929 . S
O510 Tb494 2.326 1_554 S
O510 C498 1.242 . S
O511 Eu495 2.324 . S
O511 C498 1.258 . S
O512 Tb494 2.500 1_554 S
O512 C514 1.273 . S
O513 Tb494 2.473 1_554 S
O513 C514 1.257 . S
C514 O512 1.273 . S
C514 O513 1.257 . S
O515 Eu495 2.326 . S
O515 C503 1.242 . S
O516 Tb494 2.324 1_554 S
O516 C503 1.258 . S
O517 Eu495 2.500 . S
O517 C500 1.273 1_554 S
O518 Eu495 2.473 1_556 S
O518 C500 1.257 . S
H519 C505 0.929 . S
H520 C507 0.931 . S
H521 C509 0.929 . S
O522 Tb523 2.292 . S
O522 C525 1.255 . S
Tb523 O522 2.292 . S
Tb523 O539 2.326 . S
Tb523 O541 2.500 . S
Tb523 O542 2.473 . S
Tb523 O545 2.324 . S
Eu524 O528 2.292 . S
Eu524 C529 2.852 . S
Eu524 O540 2.324 . S
Eu524 O544 2.326 . S
Eu524 O546 2.500 . S
Eu524 O547 2.473 . S
C525 O522 1.255 . S
C525 O526 1.247 . S
O526 C525 1.247 . S
C527 O539 1.242 . S
C527 O540 1.258 . S
O528 Eu524 2.292 . S
O528 C530 1.255 . S
C529 Eu524 2.852 . S
C529 C533 1.503 . S
C529 O546 1.273 . S
C529 O547 1.257 . S
C530 O528 1.255 . S
C530 O531 1.247 . S
O531 C530 1.247 . S
C532 O544 1.242 . S
C532 O545 1.258 . S
C533 C529 1.503 . S
C533 C534 1.379 . S
C533 C538 1.392 . S
C534 C533 1.379 . S
C534 C535 1.404 . S
C534 H548 0.929 . S
C535 C534 1.404 . S
C535 C536 1.389 . S
C536 C535 1.389 . S
C536 C537 1.399 . S
C536 H549 0.931 . S
C537 C536 1.399 . S
C537 C538 1.390 . S
C538 C533 1.392 . S
C538 C537 1.390 . S
C538 H550 0.929 . S
O539 Tb523 2.326 . S
O539 C527 1.242 . S
O540 Eu524 2.324 . S
O540 C527 1.258 . S
O541 Tb523 2.500 . S
O541 C543 1.273 . S
O542 Tb523 2.473 . S
O542 C543 1.257 . S
C543 O541 1.273 . S
C543 O542 1.257 . S
O544 Eu524 2.326 . S
O544 C532 1.242 . S
O545 Tb523 2.324 . S
O545 C532 1.258 . S
O546 Eu524 2.500 . S
O546 C529 1.273 . S
O547 Eu524 2.473 . S
O547 C529 1.257 . S
H548 C534 0.929 . S
H549 C536 0.931 . S
H550 C538 0.929 . S
O551 Tb552 2.292 . S
O551 C554 1.255 . S
Tb552 O551 2.292 . S
Tb552 O568 2.326 . S
Tb552 O570 2.500 . S
Tb552 O571 2.473 . S
Tb552 O574 2.324 . S
Eu553 O557 2.292 . S
Eu553 C558 2.852 . S
Eu553 O569 2.324 . S
Eu553 O573 2.326 . S
Eu553 O575 2.500 . S
Eu553 O576 2.473 . S
C554 O551 1.255 . S
C554 O555 1.247 . S
O555 C554 1.247 . S
C556 O568 1.242 . S
C556 O569 1.258 . S
O557 Eu553 2.292 . S
O557 C559 1.255 . S
C558 Eu553 2.852 . S
C558 C562 1.503 . S
C558 O575 1.273 . S
C558 O576 1.257 . S
C559 O557 1.255 . S
C559 O560 1.247 . S
O560 C559 1.247 . S
C561 O573 1.242 . S
C561 O574 1.258 . S
C562 C558 1.503 . S
C562 C563 1.379 . S
C562 C567 1.392 . S
C563 C562 1.379 . S
C563 C564 1.404 . S
C563 H577 0.929 . S
C564 C563 1.404 . S
C564 C565 1.389 . S
C565 C564 1.389 . S
C565 C566 1.399 . S
C565 H578 0.931 . S
C566 C565 1.399 . S
C566 C567 1.390 . S
C567 C562 1.392 . S
C567 C566 1.390 . S
C567 H579 0.929 . S
O568 Tb552 2.326 . S
O568 C556 1.242 . S
O569 Eu553 2.324 . S
O569 C556 1.258 . S
O570 Tb552 2.500 . S
O570 C572 1.273 . S
O571 Tb552 2.473 . S
O571 C572 1.257 . S
C572 O570 1.273 . S
C572 O571 1.257 . S
O573 Eu553 2.326 . S
O573 C561 1.242 . S
O574 Tb552 2.324 . S
O574 C561 1.258 . S
O575 Eu553 2.500 . S
O575 C558 1.273 . S
O576 Eu553 2.473 . S
O576 C558 1.257 . S
H577 C563 0.929 . S
H578 C565 0.931 . S
H579 C567 0.929 . S
O580 Tb581 2.292 . S
O580 C583 1.255 . S
Tb581 O580 2.292 . S
Tb581 O597 2.326 . S
Tb581 O599 2.500 . S
Tb581 O600 2.473 . S
Tb581 O603 2.324 . S
Eu582 O586 2.292 . S
Eu582 C587 2.852 . S
Eu582 O598 2.324 . S
Eu582 O602 2.326 . S
Eu582 O604 2.500 . S
Eu582 O605 2.473 . S
C583 O580 1.255 . S
C583 O584 1.247 . S
O584 C583 1.247 . S
C585 O597 1.242 . S
C585 O598 1.258 . S
O586 Eu582 2.292 . S
O586 C588 1.255 . S
C587 Eu582 2.852 . S
C587 C591 1.503 . S
C587 O604 1.273 . S
C587 O605 1.257 . S
C588 O586 1.255 . S
C588 O589 1.247 . S
O589 C588 1.247 . S
C590 O602 1.242 . S
C590 O603 1.258 . S
C591 C587 1.503 . S
C591 C592 1.379 . S
C591 C596 1.392 . S
C592 C591 1.379 . S
C592 C593 1.404 . S
C592 H606 0.929 . S
C593 C592 1.404 . S
C593 C594 1.389 . S
C594 C593 1.389 . S
C594 C595 1.399 . S
C594 H607 0.931 . S
C595 C594 1.399 . S
C595 C596 1.390 . S
C596 C591 1.392 . S
C596 C595 1.390 . S
C596 H608 0.929 . S
O597 Tb581 2.326 . S
O597 C585 1.242 . S
O598 Eu582 2.324 . S
O598 C585 1.258 . S
O599 Tb581 2.500 . S
O599 C601 1.273 . S
O600 Tb581 2.473 . S
O600 C601 1.257 . S
C601 O599 1.273 . S
C601 O600 1.257 . S
O602 Eu582 2.326 . S
O602 C590 1.242 . S
O603 Tb581 2.324 . S
O603 C590 1.258 . S
O604 Eu582 2.500 . S
O604 C587 1.273 . S
O605 Eu582 2.473 . S
O605 C587 1.257 . S
H606 C592 0.929 . S
H607 C594 0.931 . S
H608 C596 0.929 . S
O609 Tb610 2.292 . S
O609 C612 1.255 . S
Tb610 O609 2.292 . S
Tb610 O626 2.326 . S
Tb610 O628 2.500 . S
Tb610 O629 2.473 . S
Tb610 O632 2.324 . S
Eu611 O615 2.292 . S
Eu611 C616 2.852 1_565 S
Eu611 O627 2.324 . S
Eu611 O631 2.326 . S
Eu611 O633 2.500 1_565 S
Eu611 O634 2.473 . S
C612 O609 1.255 . S
C612 O613 1.247 . S
O613 C612 1.247 . S
C614 O626 1.242 . S
C614 O627 1.258 . S
O615 Eu611 2.292 . S
O615 C617 1.255 . S
C616 Eu611 2.852 1_545 S
C616 C620 1.503 . S
C616 O633 1.273 . S
C616 O634 1.257 1_545 S
C617 O615 1.255 . S
C617 O618 1.247 . S
O618 C617 1.247 . S
C619 O631 1.242 . S
C619 O632 1.258 . S
C620 C616 1.503 . S
C620 C621 1.379 . S
C620 C625 1.392 . S
C621 C620 1.379 . S
C621 C622 1.404 . S
C621 H635 0.929 1_545 S
C622 C621 1.404 . S
C622 C623 1.389 . S
C623 C622 1.389 . S
C623 C624 1.399 . S
C623 H636 0.931 . S
C624 C623 1.399 . S
C624 C625 1.390 . S
C625 C620 1.392 . S
C625 C624 1.390 . S
C625 H637 0.929 . S
O626 Tb610 2.326 . S
O626 C614 1.242 . S
O627 Eu611 2.324 . S
O627 C614 1.258 . S
O628 Tb610 2.500 . S
O628 C630 1.273 . S
O629 Tb610 2.473 . S
O629 C630 1.257 . S
C630 O628 1.273 . S
C630 O629 1.257 . S
O631 Eu611 2.326 . S
O631 C619 1.242 . S
O632 Tb610 2.324 . S
O632 C619 1.258 . S
O633 Eu611 2.500 1_545 S
O633 C616 1.273 . S
O634 Eu611 2.473 . S
O634 C616 1.257 1_565 S
H635 C621 0.929 1_565 S
H636 C623 0.931 . S
H637 C625 0.929 . S
O638 Tb639 2.292 . S
O638 C641 1.255 . S
Tb639 O638 2.292 . S
Tb639 O655 2.326 . S
Tb639 O657 2.500 . S
Tb639 O658 2.473 . S
Tb639 O661 2.324 . S
Eu640 O644 2.292 . S
Eu640 C645 2.852 . S
Eu640 O656 2.324 . S
Eu640 O660 2.326 . S
Eu640 O662 2.500 . S
Eu640 O663 2.473 . S
C641 O638 1.255 . S
C641 O642 1.247 . S
O642 C641 1.247 . S
C643 O655 1.242 . S
C643 O656 1.258 . S
O644 Eu640 2.292 . S
O644 C646 1.255 . S
C645 Eu640 2.852 . S
C645 C649 1.503 . S
C645 O662 1.273 . S
C645 O663 1.257 . S
C646 O644 1.255 . S
C646 O647 1.247 . S
O647 C646 1.247 . S
C648 O660 1.242 . S
C648 O661 1.258 . S
C649 C645 1.503 . S
C649 C650 1.379 . S
C649 C654 1.392 . S
C650 C649 1.379 . S
C650 C651 1.404 . S
C650 H664 0.929 . S
C651 C650 1.404 . S
C651 C652 1.389 . S
C652 C651 1.389 . S
C652 C653 1.399 . S
C652 H665 0.931 . S
C653 C652 1.399 . S
C653 C654 1.390 . S
C654 C649 1.392 . S
C654 C653 1.390 . S
C654 H666 0.929 . S
O655 Tb639 2.326 . S
O655 C643 1.242 . S
O656 Eu640 2.324 . S
O656 C643 1.258 . S
O657 Tb639 2.500 . S
O657 C659 1.273 . S
O658 Tb639 2.473 . S
O658 C659 1.257 . S
C659 O657 1.273 . S
C659 O658 1.257 . S
O660 Eu640 2.326 . S
O660 C648 1.242 . S
O661 Tb639 2.324 . S
O661 C648 1.258 . S
O662 Eu640 2.500 . S
O662 C645 1.273 . S
O663 Eu640 2.473 . S
O663 C645 1.257 . S
H664 C650 0.929 . S
H665 C652 0.931 . S
H666 C654 0.929 . S
O667 Tb668 2.292 . S
O667 C670 1.255 . S
Tb668 O667 2.292 . S
Tb668 O684 2.326 . S
Tb668 O686 2.500 . S
Tb668 O687 2.473 . S
Tb668 O690 2.324 . S
Eu669 O673 2.292 . S
Eu669 C674 2.852 . S
Eu669 O685 2.324 . S
Eu669 O689 2.326 . S
Eu669 O691 2.500 . S
Eu669 O692 2.473 . S
C670 O667 1.255 . S
C670 O671 1.247 . S
O671 C670 1.247 . S
C672 O684 1.242 . S
C672 O685 1.258 . S
O673 Eu669 2.292 . S
O673 C675 1.255 . S
C674 Eu669 2.852 . S
C674 C678 1.503 . S
C674 O691 1.273 . S
C674 O692 1.257 . S
C675 O673 1.255 . S
C675 O676 1.247 . S
O676 C675 1.247 . S
C677 O689 1.242 . S
C677 O690 1.258 . S
C678 C674 1.503 . S
C678 C679 1.379 . S
C678 C683 1.392 . S
C679 C678 1.379 . S
C679 C680 1.404 . S
C679 H693 0.929 . S
C680 C679 1.404 . S
C680 C681 1.389 . S
C681 C680 1.389 . S
C681 C682 1.399 . S
C681 H694 0.931 . S
C682 C681 1.399 . S
C682 C683 1.390 . S
C683 C678 1.392 . S
C683 C682 1.390 . S
C683 H695 0.929 . S
O684 Tb668 2.326 . S
O684 C672 1.242 . S
O685 Eu669 2.324 . S
O685 C672 1.258 . S
O686 Tb668 2.500 . S
O686 C688 1.273 . S
O687 Tb668 2.473 . S
O687 C688 1.257 . S
C688 O686 1.273 . S
C688 O687 1.257 . S
O689 Eu669 2.326 . S
O689 C677 1.242 . S
O690 Tb668 2.324 . S
O690 C677 1.258 . S
O691 Eu669 2.500 . S
O691 C674 1.273 . S
O692 Eu669 2.473 . S
O692 C674 1.257 . S
H693 C679 0.929 . S
H694 C681 0.931 . S
H695 C683 0.929 . S
O696 Tb697 2.292 . S
O696 C699 1.255 . S
Tb697 O696 2.292 . S
Tb697 O713 2.326 1_655 S
Tb697 O715 2.500 1_655 S
Tb697 O716 2.473 1_655 S
Tb697 O719 2.324 1_655 S
Eu698 O702 2.292 . S
Eu698 C703 2.852 1_456 S
Eu698 O714 2.324 . S
Eu698 O718 2.326 . S
Eu698 O720 2.500 1_556 S
Eu698 O721 2.473 1_455 S
C699 O696 1.255 . S
C699 O700 1.247 . S
O700 C699 1.247 . S
C701 O713 1.242 . S
C701 O714 1.258 . S
O702 Eu698 2.292 . S
O702 C704 1.255 . S
C703 Eu698 2.852 1_654 S
C703 C707 1.503 . S
C703 O720 1.273 1_655 S
C703 O721 1.257 1_554 S
C704 O702 1.255 . S
C704 O705 1.247 . S
O705 C704 1.247 . S
C706 O718 1.242 . S
C706 O719 1.258 . S
C707 C703 1.503 . S
C707 C708 1.379 . S
C707 C712 1.392 . S
C708 C707 1.379 . S
C708 C709 1.404 . S
C708 H722 0.929 1_554 S
C709 C708 1.404 . S
C709 C710 1.389 . S
C710 C709 1.389 . S
C710 C711 1.399 . S
C710 H723 0.931 . S
C711 C710 1.399 . S
C711 C712 1.390 . S
C712 C707 1.392 . S
C712 C711 1.390 . S
C712 H724 0.929 . S
O713 Tb697 2.326 1_455 S
O713 C701 1.242 . S
O714 Eu698 2.324 . S
O714 C701 1.258 . S
O715 Tb697 2.500 1_455 S
O715 C717 1.273 . S
O716 Tb697 2.473 1_455 S
O716 C717 1.257 . S
C717 O715 1.273 . S
C717 O716 1.257 . S
O718 Eu698 2.326 . S
O718 C706 1.242 . S
O719 Tb697 2.324 1_455 S
O719 C706 1.258 . S
O720 Eu698 2.500 1_554 S
O720 C703 1.273 1_455 S
O721 Eu698 2.473 1_655 S
O721 C703 1.257 1_556 S
H722 C708 0.929 1_556 S
H723 C710 0.931 . S
H724 C712 0.929 . S
O725 Tb726 2.292 . S
O725 C728 1.255 . S
Tb726 O725 2.292 . S
Tb726 O742 2.326 . S
Tb726 O744 2.500 . S
Tb726 O745 2.473 . S
Tb726 O748 2.324 . S
Eu727 O731 2.292 . S
Eu727 C732 2.852 . S
Eu727 O743 2.324 . S
Eu727 O747 2.326 . S
Eu727 O749 2.500 . S
Eu727 O750 2.473 . S
C728 O725 1.255 . S
C728 O729 1.247 . S
O729 C728 1.247 . S
C730 O742 1.242 . S
C730 O743 1.258 . S
O731 Eu727 2.292 . S
O731 C733 1.255 . S
C732 Eu727 2.852 . S
C732 C736 1.503 . S
C732 O749 1.273 . S
C732 O750 1.257 . S
C733 O731 1.255 . S
C733 O734 1.247 . S
O734 C733 1.247 . S
C735 O747 1.242 . S
C735 O748 1.258 . S
C736 C732 1.503 . S
C736 C737 1.379 . S
C736 C741 1.392 . S
C737 C736 1.379 . S
C737 C738 1.404 . S
C737 H751 0.929 . S
C738 C737 1.404 . S
C738 C739 1.389 . S
C739 C738 1.389 . S
C739 C740 1.399 . S
C739 H752 0.931 . S
C740 C739 1.399 . S
C740 C741 1.390 . S
C741 C736 1.392 . S
C741 C740 1.390 . S
C741 H753 0.929 . S
O742 Tb726 2.326 . S
O742 C730 1.242 . S
O743 Eu727 2.324 . S
O743 C730 1.258 . S
O744 Tb726 2.500 . S
O744 C746 1.273 . S
O745 Tb726 2.473 . S
O745 C746 1.257 . S
C746 O744 1.273 . S
C746 O745 1.257 . S
O747 Eu727 2.326 . S
O747 C735 1.242 . S
O748 Tb726 2.324 . S
O748 C735 1.258 . S
O749 Eu727 2.500 . S
O749 C732 1.273 . S
O750 Eu727 2.473 . S
O750 C732 1.257 . S
H751 C737 0.929 . S
H752 C739 0.931 . S
H753 C741 0.929 . S
O754 Tb755 2.292 . S
O754 C757 1.255 . S
Tb755 O754 2.292 . S
Tb755 O771 2.326 . S
Tb755 O773 2.500 . S
Tb755 O774 2.473 . S
Tb755 O777 2.324 . S
Eu756 O760 2.292 . S
Eu756 C761 2.852 . S
Eu756 O772 2.324 . S
Eu756 O776 2.326 . S
Eu756 O778 2.500 . S
Eu756 O779 2.473 . S
C757 O754 1.255 . S
C757 O758 1.247 . S
O758 C757 1.247 . S
C759 O771 1.242 . S
C759 O772 1.258 . S
O760 Eu756 2.292 . S
O760 C762 1.255 . S
C761 Eu756 2.852 . S
C761 C765 1.503 . S
C761 O778 1.273 . S
C761 O779 1.257 . S
C762 O760 1.255 . S
C762 O763 1.247 . S
O763 C762 1.247 . S
C764 O776 1.242 . S
C764 O777 1.258 . S
C765 C761 1.503 . S
C765 C766 1.379 . S
C765 C770 1.392 . S
C766 C765 1.379 . S
C766 C767 1.404 . S
C766 H780 0.929 . S
C767 C766 1.404 . S
C767 C768 1.389 . S
C768 C767 1.389 . S
C768 C769 1.399 . S
C768 H781 0.931 . S
C769 C768 1.399 . S
C769 C770 1.390 . S
C770 C765 1.392 . S
C770 C769 1.390 . S
C770 H782 0.929 . S
O771 Tb755 2.326 . S
O771 C759 1.242 . S
O772 Eu756 2.324 . S
O772 C759 1.258 . S
O773 Tb755 2.500 . S
O773 C775 1.273 . S
O774 Tb755 2.473 . S
O774 C775 1.257 . S
C775 O773 1.273 . S
C775 O774 1.257 . S
O776 Eu756 2.326 . S
O776 C764 1.242 . S
O777 Tb755 2.324 . S
O777 C764 1.258 . S
O778 Eu756 2.500 . S
O778 C761 1.273 . S
O779 Eu756 2.473 . S
O779 C761 1.257 . S
H780 C766 0.929 . S
H781 C768 0.931 . S
H782 C770 0.929 . S
O783 Tb784 2.292 . S
O783 C786 1.255 . S
Tb784 O783 2.292 . S
Tb784 O800 2.326 . S
Tb784 O802 2.500 . S
Tb784 O803 2.473 . S
Tb784 O806 2.324 . S
Eu785 O789 2.292 . S
Eu785 C790 2.852 . S
Eu785 O801 2.324 . S
Eu785 O805 2.326 . S
Eu785 O807 2.500 . S
Eu785 O808 2.473 . S
C786 O783 1.255 . S
C786 O787 1.247 . S
O787 C786 1.247 . S
C788 O800 1.242 . S
C788 O801 1.258 . S
O789 Eu785 2.292 . S
O789 C791 1.255 . S
C790 Eu785 2.852 . S
C790 C794 1.503 . S
C790 O807 1.273 . S
C790 O808 1.257 . S
C791 O789 1.255 . S
C791 O792 1.247 . S
O792 C791 1.247 . S
C793 O805 1.242 . S
C793 O806 1.258 . S
C794 C790 1.503 . S
C794 C795 1.379 . S
C794 C799 1.392 . S
C795 C794 1.379 . S
C795 C796 1.404 . S
C795 H809 0.929 . S
C796 C795 1.404 . S
C796 C797 1.389 . S
C797 C796 1.389 . S
C797 C798 1.399 . S
C797 H810 0.931 . S
C798 C797 1.399 . S
C798 C799 1.390 . S
C799 C794 1.392 . S
C799 C798 1.390 . S
C799 H811 0.929 . S
O800 Tb784 2.326 . S
O800 C788 1.242 . S
O801 Eu785 2.324 . S
O801 C788 1.258 . S
O802 Tb784 2.500 . S
O802 C804 1.273 . S
O803 Tb784 2.473 . S
O803 C804 1.257 . S
C804 O802 1.273 . S
C804 O803 1.257 . S
O805 Eu785 2.326 . S
O805 C793 1.242 . S
O806 Tb784 2.324 . S
O806 C793 1.258 . S
O807 Eu785 2.500 . S
O807 C790 1.273 . S
O808 Eu785 2.473 . S
O808 C790 1.257 . S
H809 C795 0.929 . S
H810 C797 0.931 . S
H811 C799 0.929 . S
O812 Tb813 2.292 . S
O812 C815 1.255 . S
Tb813 O812 2.292 . S
Tb813 O829 2.326 1_655 S
Tb813 O831 2.500 1_655 S
Tb813 O832 2.473 1_655 S
Tb813 O835 2.324 1_655 S
Eu814 O818 2.292 . S
Eu814 C819 2.852 1_455 S
Eu814 O830 2.324 . S
Eu814 O834 2.326 . S
Eu814 O836 2.500 . S
Eu814 O837 2.473 1_455 S
C815 O812 1.255 . S
C815 O816 1.247 . S
O816 C815 1.247 . S
C817 O829 1.242 . S
C817 O830 1.258 . S
O818 Eu814 2.292 . S
O818 C820 1.255 . S
C819 Eu814 2.852 1_655 S
C819 C823 1.503 . S
C819 O836 1.273 1_655 S
C819 O837 1.257 . S
C820 O818 1.255 . S
C820 O821 1.247 . S
O821 C820 1.247 . S
C822 O834 1.242 . S
C822 O835 1.258 . S
C823 C819 1.503 . S
C823 C824 1.379 . S
C823 C828 1.392 . S
C824 C823 1.379 . S
C824 C825 1.404 . S
C824 H838 0.929 . S
C825 C824 1.404 . S
C825 C826 1.389 . S
C826 C825 1.389 . S
C826 C827 1.399 . S
C826 H839 0.931 . S
C827 C826 1.399 . S
C827 C828 1.390 . S
C828 C823 1.392 . S
C828 C827 1.390 . S
C828 H840 0.929 . S
O829 Tb813 2.326 1_455 S
O829 C817 1.242 . S
O830 Eu814 2.324 . S
O830 C817 1.258 . S
O831 Tb813 2.500 1_455 S
O831 C833 1.273 . S
O832 Tb813 2.473 1_455 S
O832 C833 1.257 . S
C833 O831 1.273 . S
C833 O832 1.257 . S
O834 Eu814 2.326 . S
O834 C822 1.242 . S
O835 Tb813 2.324 1_455 S
O835 C822 1.258 . S
O836 Eu814 2.500 . S
O836 C819 1.273 1_455 S
O837 Eu814 2.473 1_655 S
O837 C819 1.257 . S
H838 C824 0.929 . S
H839 C826 0.931 . S
H840 C828 0.929 . S
O841 Tb842 2.292 . S
O841 C844 1.255 . S
Tb842 O841 2.292 . S
Tb842 O858 2.326 . S
Tb842 O860 2.500 . S
Tb842 O861 2.473 . S
Tb842 O864 2.324 . S
Eu843 O847 2.292 . S
Eu843 C848 2.852 . S
Eu843 O859 2.324 . S
Eu843 O863 2.326 . S
Eu843 O865 2.500 . S
Eu843 O866 2.473 . S
C844 O841 1.255 . S
C844 O845 1.247 . S
O845 C844 1.247 . S
C846 O858 1.242 . S
C846 O859 1.258 . S
O847 Eu843 2.292 . S
O847 C849 1.255 . S
C848 Eu843 2.852 . S
C848 C852 1.503 . S
C848 O865 1.273 . S
C848 O866 1.257 . S
C849 O847 1.255 . S
C849 O850 1.247 . S
O850 C849 1.247 . S
C851 O863 1.242 . S
C851 O864 1.258 . S
C852 C848 1.503 . S
C852 C853 1.379 . S
C852 C857 1.392 . S
C853 C852 1.379 . S
C853 C854 1.404 . S
C853 H867 0.929 . S
C854 C853 1.404 . S
C854 C855 1.389 . S
C855 C854 1.389 . S
C855 C856 1.399 . S
C855 H868 0.931 . S
C856 C855 1.399 . S
C856 C857 1.390 . S
C857 C852 1.392 . S
C857 C856 1.390 . S
C857 H869 0.929 . S
O858 Tb842 2.326 . S
O858 C846 1.242 . S
O859 Eu843 2.324 . S
O859 C846 1.258 . S
O860 Tb842 2.500 . S
O860 C862 1.273 . S
O861 Tb842 2.473 . S
O861 C862 1.257 . S
C862 O860 1.273 . S
C862 O861 1.257 . S
O863 Eu843 2.326 . S
O863 C851 1.242 . S
O864 Tb842 2.324 . S
O864 C851 1.258 . S
O865 Eu843 2.500 . S
O865 C848 1.273 . S
O866 Eu843 2.473 . S
O866 C848 1.257 . S
H867 C853 0.929 . S
H868 C855 0.931 . S
H869 C857 0.929 . S
O870 Tb871 2.292 . S
O870 C873 1.255 . S
Tb871 O870 2.292 . S
Tb871 O887 2.326 . S
Tb871 O889 2.500 . S
Tb871 O890 2.473 . S
Tb871 O893 2.324 . S
Eu872 O876 2.292 . S
Eu872 C877 2.852 1_554 S
Eu872 O888 2.324 . S
Eu872 O892 2.326 . S
Eu872 O894 2.500 1_554 S
Eu872 O895 2.473 . S
C873 O870 1.255 . S
C873 O874 1.247 . S
O874 C873 1.247 . S
C875 O887 1.242 . S
C875 O888 1.258 . S
O876 Eu872 2.292 . S
O876 C878 1.255 . S
C877 Eu872 2.852 1_556 S
C877 C881 1.503 . S
C877 O894 1.273 . S
C877 O895 1.257 1_556 S
C878 O876 1.255 . S
C878 O879 1.247 . S
O879 C878 1.247 . S
C880 O892 1.242 . S
C880 O893 1.258 . S
C881 C877 1.503 . S
C881 C882 1.379 . S
C881 C886 1.392 . S
C882 C881 1.379 . S
C882 C883 1.404 . S
C882 H896 0.929 1_556 S
C883 C882 1.404 . S
C883 C884 1.389 . S
C884 C883 1.389 . S
C884 C885 1.399 . S
C884 H897 0.931 . S
C885 C884 1.399 . S
C885 C886 1.390 . S
C886 C881 1.392 . S
C886 C885 1.390 . S
C886 H898 0.929 . S
O887 Tb871 2.326 . S
O887 C875 1.242 . S
O888 Eu872 2.324 . S
O888 C875 1.258 . S
O889 Tb871 2.500 . S
O889 C891 1.273 . S
O890 Tb871 2.473 . S
O890 C891 1.257 . S
C891 O889 1.273 . S
C891 O890 1.257 . S
O892 Eu872 2.326 . S
O892 C880 1.242 . S
O893 Tb871 2.324 . S
O893 C880 1.258 . S
O894 Eu872 2.500 1_556 S
O894 C877 1.273 . S
O895 Eu872 2.473 . S
O895 C877 1.257 1_554 S
H896 C882 0.929 1_554 S
H897 C884 0.931 . S
H898 C886 0.929 . S
O899 Tb900 2.292 . S
O899 C902 1.255 . S
Tb900 O899 2.292 . S
Tb900 O916 2.326 . S
Tb900 O918 2.500 . S
Tb900 O919 2.473 . S
Tb900 O922 2.324 . S
Eu901 O905 2.292 . S
Eu901 C906 2.852 . S
Eu901 O917 2.324 . S
Eu901 O921 2.326 . S
Eu901 O923 2.500 . S
Eu901 O924 2.473 . S
C902 O899 1.255 . S
C902 O903 1.247 . S
O903 C902 1.247 . S
C904 O916 1.242 . S
C904 O917 1.258 . S
O905 Eu901 2.292 . S
O905 C907 1.255 . S
C906 Eu901 2.852 . S
C906 C910 1.503 . S
C906 O923 1.273 . S
C906 O924 1.257 . S
C907 O905 1.255 . S
C907 O908 1.247 . S
O908 C907 1.247 . S
C909 O921 1.242 . S
C909 O922 1.258 . S
C910 C906 1.503 . S
C910 C911 1.379 . S
C910 C915 1.392 . S
C911 C910 1.379 . S
C911 C912 1.404 . S
C911 H925 0.929 . S
C912 C911 1.404 . S
C912 C913 1.389 . S
C913 C912 1.389 . S
C913 C914 1.399 . S
C913 H926 0.931 . S
C914 C913 1.399 . S
C914 C915 1.390 . S
C915 C910 1.392 . S
C915 C914 1.390 . S
C915 H927 0.929 . S
O916 Tb900 2.326 . S
O916 C904 1.242 . S
O917 Eu901 2.324 . S
O917 C904 1.258 . S
O918 Tb900 2.500 . S
O918 C920 1.273 . S
O919 Tb900 2.473 . S
O919 C920 1.257 . S
C920 O918 1.273 . S
C920 O919 1.257 . S
O921 Eu901 2.326 . S
O921 C909 1.242 . S
O922 Tb900 2.324 . S
O922 C909 1.258 . S
O923 Eu901 2.500 . S
O923 C906 1.273 . S
O924 Eu901 2.473 . S
O924 C906 1.257 . S
H925 C911 0.929 . S
H926 C913 0.931 . S
H927 C915 0.929 . S
O928 Tb929 2.292 . S
O928 C931 1.255 . S
Tb929 O928 2.292 . S
Tb929 O945 2.326 1_565 S
Tb929 O947 2.500 1_565 S
Tb929 O948 2.473 1_565 S
Tb929 O951 2.324 1_565 S
Eu930 O934 2.292 . S
Eu930 C935 2.852 1_645 S
Eu930 O946 2.324 . S
Eu930 O950 2.326 . S
Eu930 O952 2.500 1_655 S
Eu930 O953 2.473 1_545 S
C931 O928 1.255 . S
C931 O932 1.247 . S
O932 C931 1.247 . S
C933 O945 1.242 . S
C933 O946 1.258 . S
O934 Eu930 2.292 . S
O934 C936 1.255 . S
C935 Eu930 2.852 1_465 S
C935 C939 1.503 . S
C935 O952 1.273 1_565 S
C935 O953 1.257 1_455 S
C936 O934 1.255 . S
C936 O937 1.247 . S
O937 C936 1.247 . S
C938 O950 1.242 . S
C938 O951 1.258 . S
C939 C935 1.503 . S
C939 C940 1.379 . S
C939 C944 1.392 . S
C940 C939 1.379 . S
C940 C941 1.404 . S
C940 H954 0.929 1_455 S
C941 C940 1.404 . S
C941 C942 1.389 . S
C942 C941 1.389 . S
C942 C943 1.399 . S
C942 H955 0.931 . S
C943 C942 1.399 . S
C943 C944 1.390 . S
C944 C939 1.392 . S
C944 C943 1.390 . S
C944 H956 0.929 . S
O945 Tb929 2.326 1_545 S
O945 C933 1.242 . S
O946 Eu930 2.324 . S
O946 C933 1.258 . S
O947 Tb929 2.500 1_545 S
O947 C949 1.273 . S
O948 Tb929 2.473 1_545 S
O948 C949 1.257 . S
C949 O947 1.273 . S
C949 O948 1.257 . S
O950 Eu930 2.326 . S
O950 C938 1.242 . S
O951 Tb929 2.324 1_545 S
O951 C938 1.258 . S
O952 Eu930 2.500 1_455 S
O952 C935 1.273 1_545 S
O953 Eu930 2.473 1_565 S
O953 C935 1.257 1_655 S
H954 C940 0.929 1_655 S
H955 C942 0.931 . S
H956 C944 0.929 . S
O957 Tb958 2.292 . S
O957 C960 1.255 . S
Tb958 O957 2.292 . S
Tb958 O974 2.326 . S
Tb958 O976 2.500 . S
Tb958 O977 2.473 . S
Tb958 O980 2.324 . S
Eu959 O963 2.292 . S
Eu959 C964 2.852 . S
Eu959 O975 2.324 . S
Eu959 O979 2.326 . S
Eu959 O981 2.500 . S
Eu959 O982 2.473 . S
C960 O957 1.255 . S
C960 O961 1.247 . S
O961 C960 1.247 . S
C962 O974 1.242 . S
C962 O975 1.258 . S
O963 Eu959 2.292 . S
O963 C965 1.255 . S
C964 Eu959 2.852 . S
C964 C968 1.503 . S
C964 O981 1.273 . S
C964 O982 1.257 . S
C965 O963 1.255 . S
C965 O966 1.247 . S
O966 C965 1.247 . S
C967 O979 1.242 . S
C967 O980 1.258 . S
C968 C964 1.503 . S
C968 C969 1.379 . S
C968 C973 1.392 . S
C969 C968 1.379 . S
C969 C970 1.404 . S
C969 H983 0.929 . S
C970 C969 1.404 . S
C970 C971 1.389 . S
C971 C970 1.389 . S
C971 C972 1.399 . S
C971 H984 0.931 . S
C972 C971 1.399 . S
C972 C973 1.390 . S
C973 C968 1.392 . S
C973 C972 1.390 . S
C973 H985 0.929 . S
O974 Tb958 2.326 . S
O974 C962 1.242 . S
O975 Eu959 2.324 . S
O975 C962 1.258 . S
O976 Tb958 2.500 . S
O976 C978 1.273 . S
O977 Tb958 2.473 . S
O977 C978 1.257 . S
C978 O976 1.273 . S
C978 O977 1.257 . S
O979 Eu959 2.326 . S
O979 C967 1.242 . S
O980 Tb958 2.324 . S
O980 C967 1.258 . S
O981 Eu959 2.500 . S
O981 C964 1.273 . S
O982 Eu959 2.473 . S
O982 C964 1.257 . S
H983 C969 0.929 . S
H984 C971 0.931 . S
H985 C973 0.929 . S
O986 Tb987 2.292 . S
O986 C989 1.255 . S
Tb987 O986 2.292 . S
Tb987 O1003 2.326 1_545 S
Tb987 O1005 2.500 1_545 S
Tb987 O1006 2.473 1_545 S
Tb987 O1009 2.324 1_545 S
Eu988 O992 2.292 . S
Eu988 C993 2.852 1_565 S
Eu988 O1004 2.324 . S
Eu988 O1008 2.326 . S
Eu988 O1010 2.500 . S
Eu988 O1011 2.473 1_565 S
C989 O986 1.255 . S
C989 O990 1.247 . S
O990 C989 1.247 . S
C991 O1003 1.242 . S
C991 O1004 1.258 . S
O992 Eu988 2.292 . S
O992 C994 1.255 . S
C993 Eu988 2.852 1_545 S
C993 C997 1.503 . S
C993 O1010 1.273 1_545 S
C993 O1011 1.257 . S
C994 O992 1.255 . S
C994 O995 1.247 . S
O995 C994 1.247 . S
C996 O1008 1.242 . S
C996 O1009 1.258 . S
C997 C993 1.503 . S
C997 C998 1.379 . S
C997 C1002 1.392 . S
C998 C997 1.379 . S
C998 C999 1.404 . S
C998 H1012 0.929 . S
C999 C998 1.404 . S
C999 C1000 1.389 . S
C1000 C999 1.389 . S
C1000 C1001 1.399 . S
C1000 H1013 0.931 . S
C1001 C1000 1.399 . S
C1001 C1002 1.390 . S
C1002 C997 1.392 . S
C1002 C1001 1.390 . S
C1002 H1014 0.929 . S
O1003 Tb987 2.326 1_565 S
O1003 C991 1.242 . S
O1004 Eu988 2.324 . S
O1004 C991 1.258 . S
O1005 Tb987 2.500 1_565 S
O1005 C1007 1.273 . S
O1006 Tb987 2.473 1_565 S
O1006 C1007 1.257 . S
C1007 O1005 1.273 . S
C1007 O1006 1.257 . S
O1008 Eu988 2.326 . S
O1008 C996 1.242 . S
O1009 Tb987 2.324 1_565 S
O1009 C996 1.258 . S
O1010 Eu988 2.500 . S
O1010 C993 1.273 1_565 S
O1011 Eu988 2.473 1_545 S
O1011 C993 1.257 . S
H1012 C998 0.929 . S
H1013 C1000 0.931 . S
H1014 C1002 0.929 . S
O1015 Tb1016 2.292 . S
O1015 C1018 1.255 . S
Tb1016 O1015 2.292 . S
Tb1016 O1032 2.326 . S
Tb1016 O1034 2.500 . S
Tb1016 O1035 2.473 . S
Tb1016 O1038 2.324 . S
Eu1017 O1021 2.292 . S
Eu1017 C1022 2.852 . S
Eu1017 O1033 2.324 . S
Eu1017 O1037 2.326 . S
Eu1017 O1039 2.500 . S
Eu1017 O1040 2.473 . S
C1018 O1015 1.255 . S
C1018 O1019 1.247 . S
O1019 C1018 1.247 . S
C1020 O1032 1.242 . S
C1020 O1033 1.258 . S
O1021 Eu1017 2.292 . S
O1021 C1023 1.255 . S
C1022 Eu1017 2.852 . S
C1022 C1026 1.503 . S
C1022 O1039 1.273 . S
C1022 O1040 1.257 . S
C1023 O1021 1.255 . S
C1023 O1024 1.247 . S
O1024 C1023 1.247 . S
C1025 O1037 1.242 . S
C1025 O1038 1.258 . S
C1026 C1022 1.503 . S
C1026 C1027 1.379 . S
C1026 C1031 1.392 . S
C1027 C1026 1.379 . S
C1027 C1028 1.404 . S
C1027 H1041 0.929 . S
C1028 C1027 1.404 . S
C1028 C1029 1.389 . S
C1029 C1028 1.389 . S
C1029 C1030 1.399 . S
C1029 H1042 0.931 . S
C1030 C1029 1.399 . S
C1030 C1031 1.390 . S
C1031 C1026 1.392 . S
C1031 C1030 1.390 . S
C1031 H1043 0.929 . S
O1032 Tb1016 2.326 . S
O1032 C1020 1.242 . S
O1033 Eu1017 2.324 . S
O1033 C1020 1.258 . S
O1034 Tb1016 2.500 . S
O1034 C1036 1.273 . S
O1035 Tb1016 2.473 . S
O1035 C1036 1.257 . S
C1036 O1034 1.273 . S
C1036 O1035 1.257 . S
O1037 Eu1017 2.326 . S
O1037 C1025 1.242 . S
O1038 Tb1016 2.324 . S
O1038 C1025 1.258 . S
O1039 Eu1017 2.500 . S
O1039 C1022 1.273 . S
O1040 Eu1017 2.473 . S
O1040 C1022 1.257 . S
H1041 C1027 0.929 . S
H1042 C1029 0.931 . S
H1043 C1031 0.929 . S
O1044 Tb1045 2.297 . S
O1044 C1047 1.255 . S
Tb1045 O1044 2.297 . S
Tb1045 O1061 2.324 1_545 S
Tb1045 O1063 2.497 1_545 S
Tb1045 O1064 2.467 1_545 S
Tb1045 O1067 2.321 1_545 S
Eu1046 O1050 2.292 . S
Eu1046 C1051 2.852 1_565 S
Eu1046 O1062 2.324 . S
Eu1046 O1066 2.326 . S
Eu1046 O1068 2.500 . S
Eu1046 O1069 2.473 1_565 S
C1047 O1044 1.255 . S
C1047 O1048 1.247 . S
O1048 C1047 1.247 . S
C1049 O1061 1.242 . S
C1049 O1062 1.258 . S
O1050 Eu1046 2.292 . S
O1050 C1052 1.255 . S
C1051 Eu1046 2.852 1_545 S
C1051 C1055 1.503 . S
C1051 O1068 1.273 1_545 S
C1051 O1069 1.257 . S
C1052 O1050 1.255 . S
C1052 O1053 1.247 . S
O1053 C1052 1.247 . S
C1054 O1066 1.242 . S
C1054 O1067 1.258 . S
C1055 C1051 1.503 . S
C1055 C1056 1.379 . S
C1055 C1060 1.392 1_655 S
C1056 C1055 1.379 . S
C1056 C1057 1.404 . S
C1056 H1070 0.929 . S
C1057 C1056 1.404 . S
C1057 C1058 1.389 1_655 S
C1058 C1057 1.389 1_455 S
C1058 C1059 1.399 . S
C1058 H1071 0.931 . S
C1059 C1058 1.399 . S
C1059 C1060 1.390 . S
C1060 C1055 1.392 1_455 S
C1060 C1059 1.390 . S
C1060 H1072 0.929 . S
O1061 Tb1045 2.324 1_565 S
O1061 C1049 1.242 . S
O1062 Eu1046 2.324 . S
O1062 C1049 1.258 . S
O1063 Tb1045 2.497 1_565 S
O1063 C1065 1.273 . S
O1064 Tb1045 2.467 1_565 S
O1064 C1065 1.257 . S
C1065 O1063 1.273 . S
C1065 O1064 1.257 . S
O1066 Eu1046 2.326 . S
O1066 C1054 1.242 . S
O1067 Tb1045 2.321 1_565 S
O1067 C1054 1.258 . S
O1068 Eu1046 2.500 . S
O1068 C1051 1.273 1_565 S
O1069 Eu1046 2.473 1_545 S
O1069 C1051 1.257 . S
H1070 C1056 0.929 . S
H1071 C1058 0.931 . S
H1072 C1060 0.929 . S
O1073 Tb1074 2.292 . S
O1073 C1076 1.255 . S
Tb1074 O1073 2.292 . S
Tb1074 O1090 2.326 . S
Tb1074 O1092 2.500 . S
Tb1074 O1093 2.473 . S
Tb1074 O1096 2.324 . S
Eu1075 O1079 2.292 . S
Eu1075 C1080 2.852 . S
Eu1075 O1091 2.324 . S
Eu1075 O1095 2.326 . S
Eu1075 O1097 2.500 . S
Eu1075 O1098 2.473 . S
C1076 O1073 1.255 . S
C1076 O1077 1.247 . S
O1077 C1076 1.247 . S
C1078 O1090 1.242 . S
C1078 O1091 1.258 . S
O1079 Eu1075 2.292 . S
O1079 C1081 1.255 . S
C1080 Eu1075 2.852 . S
C1080 C1084 1.503 . S
C1080 O1097 1.273 . S
C1080 O1098 1.257 . S
C1081 O1079 1.255 . S
C1081 O1082 1.247 . S
O1082 C1081 1.247 . S
C1083 O1095 1.242 . S
C1083 O1096 1.258 . S
C1084 C1080 1.503 . S
C1084 C1085 1.379 . S
C1084 C1089 1.392 . S
C1085 C1084 1.379 . S
C1085 C1086 1.404 . S
C1085 H1099 0.929 . S
C1086 C1085 1.404 . S
C1086 C1087 1.389 . S
C1087 C1086 1.389 . S
C1087 C1088 1.399 . S
C1087 H1100 0.931 . S
C1088 C1087 1.399 . S
C1088 C1089 1.390 . S
C1089 C1084 1.392 . S
C1089 C1088 1.390 . S
C1089 H1101 0.929 . S
O1090 Tb1074 2.326 . S
O1090 C1078 1.242 . S
O1091 Eu1075 2.324 . S
O1091 C1078 1.258 . S
O1092 Tb1074 2.500 . S
O1092 C1094 1.273 . S
O1093 Tb1074 2.473 . S
O1093 C1094 1.257 . S
C1094 O1092 1.273 . S
C1094 O1093 1.257 . S
O1095 Eu1075 2.326 . S
O1095 C1083 1.242 . S
O1096 Tb1074 2.324 . S
O1096 C1083 1.258 . S
O1097 Eu1075 2.500 . S
O1097 C1080 1.273 . S
O1098 Eu1075 2.473 . S
O1098 C1080 1.257 . S
H1099 C1085 0.929 . S
H1100 C1087 0.931 . S
H1101 C1089 0.929 . S
O1102 Tb1103 2.292 . S
O1102 C1105 1.255 . S
Tb1103 O1102 2.292 . S
Tb1103 O1119 2.326 1_565 S
Tb1103 O1121 2.500 1_565 S
Tb1103 O1122 2.473 1_565 S
Tb1103 O1125 2.324 1_565 S
Eu1104 O1108 2.292 . S
Eu1104 C1109 2.852 1_545 S
Eu1104 O1120 2.324 . S
Eu1104 O1124 2.326 . S
Eu1104 O1126 2.500 . S
Eu1104 O1127 2.473 1_545 S
C1105 O1102 1.255 . S
C1105 O1106 1.247 . S
O1106 C1105 1.247 . S
C1107 O1119 1.242 . S
C1107 O1120 1.258 . S
O1108 Eu1104 2.292 . S
O1108 C1110 1.255 . S
C1109 Eu1104 2.852 1_565 S
C1109 C1113 1.503 . S
C1109 O1126 1.273 1_565 S
C1109 O1127 1.257 . S
C1110 O1108 1.255 . S
C1110 O1111 1.247 . S
O1111 C1110 1.247 . S
C1112 O1124 1.242 . S
C1112 O1125 1.258 . S
C1113 C1109 1.503 . S
C1113 C1114 1.379 . S
C1113 C1118 1.392 . S
C1114 C1113 1.379 . S
C1114 C1115 1.404 . S
C1114 H1128 0.929 . S
C1115 C1114 1.404 . S
C1115 C1116 1.389 . S
C1116 C1115 1.389 . S
C1116 C1117 1.399 . S
C1116 H1129 0.931 . S
C1117 C1116 1.399 . S
C1117 C1118 1.390 . S
C1118 C1113 1.392 . S
C1118 C1117 1.390 . S
C1118 H1130 0.929 . S
O1119 Tb1103 2.326 1_545 S
O1119 C1107 1.242 . S
O1120 Eu1104 2.324 . S
O1120 C1107 1.258 . S
O1121 Tb1103 2.500 1_545 S
O1121 C1123 1.273 . S
O1122 Tb1103 2.473 1_545 S
O1122 C1123 1.257 . S
C1123 O1121 1.273 . S
C1123 O1122 1.257 . S
O1124 Eu1104 2.326 . S
O1124 C1112 1.242 . S
O1125 Tb1103 2.324 1_545 S
O1125 C1112 1.258 . S
O1126 Eu1104 2.500 . S
O1126 C1109 1.273 1_545 S
O1127 Eu1104 2.473 1_565 S
O1127 C1109 1.257 . S
H1128 C1114 0.929 . S
H1129 C1116 0.931 . S
H1130 C1118 0.929 . S
O1131 Tb1132 2.292 . S
O1131 C1134 1.255 . S
Tb1132 O1131 2.292 . S
Tb1132 O1148 2.326 . S
Tb1132 O1150 2.500 . S
Tb1132 O1151 2.473 . S
Tb1132 O1154 2.324 . S
Eu1133 O1137 2.292 . S
Eu1133 C1138 2.852 . S
Eu1133 O1149 2.324 . S
Eu1133 O1153 2.326 . S
Eu1133 O1155 2.500 . S
Eu1133 O1156 2.473 . S
C1134 O1131 1.255 . S
C1134 O1135 1.247 . S
O1135 C1134 1.247 . S
C1136 O1148 1.242 . S
C1136 O1149 1.258 . S
O1137 Eu1133 2.292 . S
O1137 C1139 1.255 . S
C1138 Eu1133 2.852 . S
C1138 C1142 1.503 . S
C1138 O1155 1.273 . S
C1138 O1156 1.257 . S
C1139 O1137 1.255 . S
C1139 O1140 1.247 . S
O1140 C1139 1.247 . S
C1141 O1153 1.242 . S
C1141 O1154 1.258 . S
C1142 C1138 1.503 . S
C1142 C1143 1.379 . S
C1142 C1147 1.392 . S
C1143 C1142 1.379 . S
C1143 C1144 1.404 . S
C1143 H1157 0.929 . S
C1144 C1143 1.404 . S
C1144 C1145 1.389 . S
C1145 C1144 1.389 . S
C1145 C1146 1.399 . S
C1145 H1158 0.931 . S
C1146 C1145 1.399 . S
C1146 C1147 1.390 . S
C1147 C1142 1.392 . S
C1147 C1146 1.390 . S
C1147 H1159 0.929 . S
O1148 Tb1132 2.326 . S
O1148 C1136 1.242 . S
O1149 Eu1133 2.324 . S
O1149 C1136 1.258 . S
O1150 Tb1132 2.500 . S
O1150 C1152 1.273 . S
O1151 Tb1132 2.473 . S
O1151 C1152 1.257 . S
C1152 O1150 1.273 . S
C1152 O1151 1.257 . S
O1153 Eu1133 2.326 . S
O1153 C1141 1.242 . S
O1154 Tb1132 2.324 . S
O1154 C1141 1.258 . S
O1155 Eu1133 2.500 . S
O1155 C1138 1.273 . S
O1156 Eu1133 2.473 . S
O1156 C1138 1.257 . S
H1157 C1143 0.929 . S
H1158 C1145 0.931 . S
H1159 C1147 0.929 . S
O1160 Tb1161 2.292 . S
O1160 C1163 1.255 . S
Tb1161 O1160 2.292 . S
Tb1161 O1177 2.326 1_556 S
Tb1161 O1179 2.500 1_556 S
Tb1161 O1180 2.473 1_556 S
Tb1161 O1183 2.324 1_556 S
Eu1162 O1166 2.292 . S
Eu1162 C1167 2.852 1_564 S
Eu1162 O1178 2.324 . S
Eu1162 O1182 2.326 . S
Eu1162 O1184 2.500 1_565 S
Eu1162 O1185 2.473 1_554 S
C1163 O1160 1.255 . S
C1163 O1164 1.247 . S
O1164 C1163 1.247 . S
C1165 O1177 1.242 . S
C1165 O1178 1.258 . S
O1166 Eu1162 2.292 . S
O1166 C1168 1.255 . S
C1167 Eu1162 2.852 1_546 S
C1167 C1171 1.503 . S
C1167 O1184 1.273 1_556 S
C1167 O1185 1.257 1_545 S
C1168 O1166 1.255 . S
C1168 O1169 1.247 . S
O1169 C1168 1.247 . S
C1170 O1182 1.242 . S
C1170 O1183 1.258 . S
C1171 C1167 1.503 . S
C1171 C1172 1.379 1_545 S
C1171 C1176 1.392 . S
C1172 C1171 1.379 1_565 S
C1172 C1173 1.404 1_565 S
C1172 H1186 0.929 . S
C1173 C1172 1.404 1_545 S
C1173 C1174 1.389 . S
C1174 C1173 1.389 . S
C1174 C1175 1.399 . S
C1174 H1187 0.931 . S
C1175 C1174 1.399 . S
C1175 C1176 1.390 . S
C1176 C1171 1.392 . S
C1176 C1175 1.390 . S
C1176 H1188 0.929 . S
O1177 Tb1161 2.326 1_554 S
O1177 C1165 1.242 . S
O1178 Eu1162 2.324 . S
O1178 C1165 1.258 . S
O1179 Tb1161 2.500 1_554 S
O1179 C1181 1.273 . S
O1180 Tb1161 2.473 1_554 S
O1180 C1181 1.257 . S
C1181 O1179 1.273 . S
C1181 O1180 1.257 . S
O1182 Eu1162 2.326 . S
O1182 C1170 1.242 . S
O1183 Tb1161 2.324 1_554 S
O1183 C1170 1.258 . S
O1184 Eu1162 2.500 1_545 S
O1184 C1167 1.273 1_554 S
O1185 Eu1162 2.473 1_556 S
O1185 C1167 1.257 1_565 S
H1186 C1172 0.929 . S
H1187 C1174 0.931 . S
H1188 C1176 0.929 . S
O1189 Tb1190 2.292 . S
O1189 C1192 1.255 . S
Tb1190 O1189 2.292 . S
Tb1190 O1206 2.326 1_554 S
Tb1190 O1208 2.500 1_554 S
Tb1190 O1209 2.473 1_554 S
Tb1190 O1212 2.324 1_554 S
Eu1191 O1195 2.292 . S
Eu1191 C1196 2.852 1_556 S
Eu1191 O1207 2.324 . S
Eu1191 O1211 2.326 . S
Eu1191 O1213 2.500 . S
Eu1191 O1214 2.473 1_556 S
C1192 O1189 1.255 . S
C1192 O1193 1.247 . S
O1193 C1192 1.247 . S
C1194 O1206 1.242 . S
C1194 O1207 1.258 . S
O1195 Eu1191 2.292 . S
O1195 C1197 1.255 . S
C1196 Eu1191 2.852 1_554 S
C1196 C1200 1.503 . S
C1196 O1213 1.273 1_554 S
C1196 O1214 1.257 . S
C1197 O1195 1.255 . S
C1197 O1198 1.247 . S
O1198 C1197 1.247 . S
C1199 O1211 1.242 . S
C1199 O1212 1.258 . S
C1200 C1196 1.503 . S
C1200 C1201 1.379 . S
C1200 C1205 1.392 . S
C1201 C1200 1.379 . S
C1201 C1202 1.404 . S
C1201 H1215 0.929 . S
C1202 C1201 1.404 . S
C1202 C1203 1.389 . S
C1203 C1202 1.389 . S
C1203 C1204 1.399 . S
C1203 H1216 0.931 . S
C1204 C1203 1.399 . S
C1204 C1205 1.390 . S
C1205 C1200 1.392 . S
C1205 C1204 1.390 . S
C1205 H1217 0.929 . S
O1206 Tb1190 2.326 1_556 S
O1206 C1194 1.242 . S
O1207 Eu1191 2.324 . S
O1207 C1194 1.258 . S
O1208 Tb1190 2.500 1_556 S
O1208 C1210 1.273 . S
O1209 Tb1190 2.473 1_556 S
O1209 C1210 1.257 . S
C1210 O1208 1.273 . S
C1210 O1209 1.257 . S
O1211 Eu1191 2.326 . S
O1211 C1199 1.242 . S
O1212 Tb1190 2.324 1_556 S
O1212 C1199 1.258 . S
O1213 Eu1191 2.500 . S
O1213 C1196 1.273 1_556 S
O1214 Eu1191 2.473 1_554 S
O1214 C1196 1.257 . S
H1215 C1201 0.929 . S
H1216 C1203 0.931 . S
H1217 C1205 0.929 . S
O1218 Tb1219 2.292 . S
O1218 C1221 1.255 . S
Tb1219 O1218 2.292 . S
Tb1219 O1235 2.326 . S
Tb1219 O1237 2.500 . S
Tb1219 O1238 2.473 . S
Tb1219 O1241 2.324 . S
Eu1220 O1224 2.292 . S
Eu1220 C1225 2.852 . S
Eu1220 O1236 2.324 . S
Eu1220 O1240 2.326 . S
Eu1220 O1242 2.500 . S
Eu1220 O1243 2.473 . S
C1221 O1218 1.255 . S
C1221 O1222 1.247 . S
O1222 C1221 1.247 . S
C1223 O1235 1.242 . S
C1223 O1236 1.258 . S
O1224 Eu1220 2.292 . S
O1224 C1226 1.255 . S
C1225 Eu1220 2.852 . S
C1225 C1229 1.503 . S
C1225 O1242 1.273 . S
C1225 O1243 1.257 . S
C1226 O1224 1.255 . S
C1226 O1227 1.247 . S
O1227 C1226 1.247 . S
C1228 O1240 1.242 . S
C1228 O1241 1.258 . S
C1229 C1225 1.503 . S
C1229 C1230 1.379 . S
C1229 C1234 1.392 . S
C1230 C1229 1.379 . S
C1230 C1231 1.404 . S
C1230 H1244 0.929 . S
C1231 C1230 1.404 . S
C1231 C1232 1.389 . S
C1232 C1231 1.389 . S
C1232 C1233 1.399 . S
C1232 H1245 0.931 . S
C1233 C1232 1.399 . S
C1233 C1234 1.390 . S
C1234 C1229 1.392 . S
C1234 C1233 1.390 . S
C1234 H1246 0.929 . S
O1235 Tb1219 2.326 . S
O1235 C1223 1.242 . S
O1236 Eu1220 2.324 . S
O1236 C1223 1.258 . S
O1237 Tb1219 2.500 . S
O1237 C1239 1.273 . S
O1238 Tb1219 2.473 . S
O1238 C1239 1.257 . S
C1239 O1237 1.273 . S
C1239 O1238 1.257 . S
O1240 Eu1220 2.326 . S
O1240 C1228 1.242 . S
O1241 Tb1219 2.324 . S
O1241 C1228 1.258 . S
O1242 Eu1220 2.500 . S
O1242 C1225 1.273 . S
O1243 Eu1220 2.473 . S
O1243 C1225 1.257 . S
H1244 C1230 0.929 . S
H1245 C1232 0.931 . S
H1246 C1234 0.929 . S
O1247 Tb1248 2.292 . S
O1247 C1250 1.255 . S
Tb1248 O1247 2.292 . S
Tb1248 O1264 2.326 . S
Tb1248 O1266 2.500 . S
Tb1248 O1267 2.473 . S
Tb1248 O1270 2.324 . S
Eu1249 O1253 2.292 . S
Eu1249 C1254 2.852 . S
Eu1249 O1265 2.324 . S
Eu1249 O1269 2.326 . S
Eu1249 O1271 2.500 . S
Eu1249 O1272 2.473 . S
C1250 O1247 1.255 . S
C1250 O1251 1.247 . S
O1251 C1250 1.247 . S
C1252 O1264 1.242 . S
C1252 O1265 1.258 . S
O1253 Eu1249 2.292 . S
O1253 C1255 1.255 . S
C1254 Eu1249 2.852 . S
C1254 C1258 1.503 . S
C1254 O1271 1.273 . S
C1254 O1272 1.257 . S
C1255 O1253 1.255 . S
C1255 O1256 1.247 . S
O1256 C1255 1.247 . S
C1257 O1269 1.242 . S
C1257 O1270 1.258 . S
C1258 C1254 1.503 . S
C1258 C1259 1.379 . S
C1258 C1263 1.392 . S
C1259 C1258 1.379 . S
C1259 C1260 1.404 . S
C1259 H1273 0.929 . S
C1260 C1259 1.404 . S
C1260 C1261 1.389 . S
C1261 C1260 1.389 . S
C1261 C1262 1.399 . S
C1261 H1274 0.931 . S
C1262 C1261 1.399 . S
C1262 C1263 1.390 . S
C1263 C1258 1.392 . S
C1263 C1262 1.390 . S
C1263 H1275 0.929 . S
O1264 Tb1248 2.326 . S
O1264 C1252 1.242 . S
O1265 Eu1249 2.324 . S
O1265 C1252 1.258 . S
O1266 Tb1248 2.500 . S
O1266 C1268 1.273 . S
O1267 Tb1248 2.473 . S
O1267 C1268 1.257 . S
C1268 O1266 1.273 . S
C1268 O1267 1.257 . S
O1269 Eu1249 2.326 . S
O1269 C1257 1.242 . S
O1270 Tb1248 2.324 . S
O1270 C1257 1.258 . S
O1271 Eu1249 2.500 . S
O1271 C1254 1.273 . S
O1272 Eu1249 2.473 . S
O1272 C1254 1.257 . S
H1273 C1259 0.929 . S
H1274 C1261 0.931 . S
H1275 C1263 0.929 . S
O1276 Tb1277 2.292 . S
O1276 C1279 1.255 . S
Tb1277 O1276 2.292 . S
Tb1277 O1293 2.326 . S
Tb1277 O1295 2.500 . S
Tb1277 O1296 2.473 . S
Tb1277 O1299 2.324 . S
Eu1278 O1282 2.292 . S
Eu1278 C1283 2.852 . S
Eu1278 O1294 2.324 . S
Eu1278 O1298 2.326 . S
Eu1278 O1300 2.500 . S
Eu1278 O1301 2.473 . S
C1279 O1276 1.255 . S
C1279 O1280 1.247 . S
O1280 C1279 1.247 . S
C1281 O1293 1.242 . S
C1281 O1294 1.258 . S
O1282 Eu1278 2.292 . S
O1282 C1284 1.255 . S
C1283 Eu1278 2.852 . S
C1283 C1287 1.503 . S
C1283 O1300 1.273 . S
C1283 O1301 1.257 . S
C1284 O1282 1.255 . S
C1284 O1285 1.247 . S
O1285 C1284 1.247 . S
C1286 O1298 1.242 . S
C1286 O1299 1.258 . S
C1287 C1283 1.503 . S
C1287 C1288 1.379 . S
C1287 C1292 1.392 . S
C1288 C1287 1.379 . S
C1288 C1289 1.404 . S
C1288 H1302 0.929 . S
C1289 C1288 1.404 . S
C1289 C1290 1.389 . S
C1290 C1289 1.389 . S
C1290 C1291 1.399 . S
C1290 H1303 0.931 . S
C1291 C1290 1.399 . S
C1291 C1292 1.390 . S
C1292 C1287 1.392 . S
C1292 C1291 1.390 . S
C1292 H1304 0.929 . S
O1293 Tb1277 2.326 . S
O1293 C1281 1.242 . S
O1294 Eu1278 2.324 . S
O1294 C1281 1.258 . S
O1295 Tb1277 2.500 . S
O1295 C1297 1.273 . S
O1296 Tb1277 2.473 . S
O1296 C1297 1.257 . S
C1297 O1295 1.273 . S
C1297 O1296 1.257 . S
O1298 Eu1278 2.326 . S
O1298 C1286 1.242 . S
O1299 Tb1277 2.324 . S
O1299 C1286 1.258 . S
O1300 Eu1278 2.500 . S
O1300 C1283 1.273 . S
O1301 Eu1278 2.473 . S
O1301 C1283 1.257 . S
H1302 C1288 0.929 . S
H1303 C1290 0.931 . S
H1304 C1292 0.929 . S
O1305 Tb1306 2.292 . S
O1305 C1308 1.255 . S
Tb1306 O1305 2.292 . S
Tb1306 O1322 2.326 . S
Tb1306 O1324 2.500 . S
Tb1306 O1325 2.473 . S
Tb1306 O1328 2.324 . S
Eu1307 O1311 2.292 . S
Eu1307 C1312 2.852 1_545 S
Eu1307 O1323 2.324 . S
Eu1307 O1327 2.326 . S
Eu1307 O1329 2.500 1_545 S
Eu1307 O1330 2.473 . S
C1308 O1305 1.255 . S
C1308 O1309 1.247 . S
O1309 C1308 1.247 . S
C1310 O1322 1.242 . S
C1310 O1323 1.258 . S
O1311 Eu1307 2.292 . S
O1311 C1313 1.255 . S
C1312 Eu1307 2.852 1_565 S
C1312 C1316 1.503 . S
C1312 O1329 1.273 . S
C1312 O1330 1.257 1_565 S
C1313 O1311 1.255 . S
C1313 O1314 1.247 . S
O1314 C1313 1.247 . S
C1315 O1327 1.242 . S
C1315 O1328 1.258 . S
C1316 C1312 1.503 . S
C1316 C1317 1.389 . S
C1316 C1321 1.392 . S
C1317 C1316 1.389 . S
C1317 C1318 1.410 . S
C1317 H1331 0.915 1_565 S
C1318 C1317 1.410 . S
C1318 C1319 1.389 . S
C1319 C1318 1.389 . S
C1319 C1320 1.399 . S
C1319 H1332 0.931 . S
C1320 C1319 1.399 . S
C1320 C1321 1.390 . S
C1321 C1316 1.392 . S
C1321 C1320 1.390 . S
C1321 H1333 0.929 . S
O1322 Tb1306 2.326 . S
O1322 C1310 1.242 . S
O1323 Eu1307 2.324 . S
O1323 C1310 1.258 . S
O1324 Tb1306 2.500 . S
O1324 C1326 1.273 . S
O1325 Tb1306 2.473 . S
O1325 C1326 1.257 . S
C1326 O1324 1.273 . S
C1326 O1325 1.257 . S
O1327 Eu1307 2.326 . S
O1327 C1315 1.242 . S
O1328 Tb1306 2.324 . S
O1328 C1315 1.258 . S
O1329 Eu1307 2.500 1_565 S
O1329 C1312 1.273 . S
O1330 Eu1307 2.473 . S
O1330 C1312 1.257 1_545 S
H1331 C1317 0.915 1_545 S
H1332 C1319 0.931 . S
H1333 C1321 0.929 . S
O1334 Tb1335 2.292 . S
O1334 C1337 1.255 . S
Tb1335 O1334 2.292 . S
Tb1335 O1351 2.326 . S
Tb1335 O1353 2.500 . S
Tb1335 O1354 2.473 . S
Tb1335 O1357 2.324 . S
Eu1336 O1340 2.292 . S
Eu1336 C1341 2.852 . S
Eu1336 O1352 2.324 . S
Eu1336 O1356 2.326 . S
Eu1336 O1358 2.500 . S
Eu1336 O1359 2.473 . S
C1337 O1334 1.255 . S
C1337 O1338 1.247 . S
O1338 C1337 1.247 . S
C1339 O1351 1.242 . S
C1339 O1352 1.258 . S
O1340 Eu1336 2.292 . S
O1340 C1342 1.255 . S
C1341 Eu1336 2.852 . S
C1341 C1345 1.503 . S
C1341 O1358 1.273 . S
C1341 O1359 1.257 . S
C1342 O1340 1.255 . S
C1342 O1343 1.247 . S
O1343 C1342 1.247 . S
C1344 O1356 1.242 . S
C1344 O1357 1.258 . S
C1345 C1341 1.503 . S
C1345 C1346 1.379 . S
C1345 C1350 1.392 . S
C1346 C1345 1.379 . S
C1346 C1347 1.404 . S
C1346 H1360 0.929 . S
C1347 C1346 1.404 . S
C1347 C1348 1.389 . S
C1348 C1347 1.389 . S
C1348 C1349 1.399 . S
C1348 H1361 0.931 . S
C1349 C1348 1.399 . S
C1349 C1350 1.390 . S
C1350 C1345 1.392 . S
C1350 C1349 1.390 . S
C1350 H1362 0.929 . S
O1351 Tb1335 2.326 . S
O1351 C1339 1.242 . S
O1352 Eu1336 2.324 . S
O1352 C1339 1.258 . S
O1353 Tb1335 2.500 . S
O1353 C1355 1.273 . S
O1354 Tb1335 2.473 . S
O1354 C1355 1.257 . S
C1355 O1353 1.273 . S
C1355 O1354 1.257 . S
O1356 Eu1336 2.326 . S
O1356 C1344 1.242 . S
O1357 Tb1335 2.324 . S
O1357 C1344 1.258 . S
O1358 Eu1336 2.500 . S
O1358 C1341 1.273 . S
O1359 Eu1336 2.473 . S
O1359 C1341 1.257 . S
H1360 C1346 0.929 . S
H1361 C1348 0.931 . S
H1362 C1350 0.929 . S
O1363 Tb1364 2.292 . S
O1363 C1366 1.255 . S
Tb1364 O1363 2.292 . S
Tb1364 O1380 2.326 . S
Tb1364 O1382 2.500 . S
Tb1364 O1383 2.473 . S
Tb1364 O1386 2.324 . S
Eu1365 O1369 2.292 . S
Eu1365 C1370 2.852 . S
Eu1365 O1381 2.324 . S
Eu1365 O1385 2.326 . S
Eu1365 O1387 2.500 . S
Eu1365 O1388 2.473 . S
C1366 O1363 1.255 . S
C1366 O1367 1.247 . S
O1367 C1366 1.247 . S
C1368 O1380 1.242 . S
C1368 O1381 1.258 . S
O1369 Eu1365 2.292 . S
O1369 C1371 1.255 . S
C1370 Eu1365 2.852 . S
C1370 C1374 1.503 . S
C1370 O1387 1.273 . S
C1370 O1388 1.257 . S
C1371 O1369 1.255 . S
C1371 O1372 1.247 . S
O1372 C1371 1.247 . S
C1373 O1385 1.242 . S
C1373 O1386 1.258 . S
C1374 C1370 1.503 . S
C1374 C1375 1.379 . S
C1374 C1379 1.392 . S
C1375 C1374 1.379 . S
C1375 C1376 1.404 . S
C1375 H1389 0.929 . S
C1376 C1375 1.404 . S
C1376 C1377 1.389 . S
C1377 C1376 1.389 . S
C1377 C1378 1.399 . S
C1377 H1390 0.931 . S
C1378 C1377 1.399 . S
C1378 C1379 1.390 . S
C1379 C1374 1.392 . S
C1379 C1378 1.390 . S
C1379 H1391 0.929 . S
O1380 Tb1364 2.326 . S
O1380 C1368 1.242 . S
O1381 Eu1365 2.324 . S
O1381 C1368 1.258 . S
O1382 Tb1364 2.500 . S
O1382 C1384 1.273 . S
O1383 Tb1364 2.473 . S
O1383 C1384 1.257 . S
C1384 O1382 1.273 . S
C1384 O1383 1.257 . S
O1385 Eu1365 2.326 . S
O1385 C1373 1.242 . S
O1386 Tb1364 2.324 . S
O1386 C1373 1.258 . S
O1387 Eu1365 2.500 . S
O1387 C1370 1.273 . S
O1388 Eu1365 2.473 . S
O1388 C1370 1.257 . S
H1389 C1375 0.929 . S
H1390 C1377 0.931 . S
H1391 C1379 0.929 . S
O1392 Tb1393 2.292 . S
O1392 C1395 1.255 . S
Tb1393 O1392 2.292 . S
Tb1393 O1409 2.326 . S
Tb1393 O1411 2.500 . S
Tb1393 O1412 2.473 . S
Tb1393 O1415 2.324 . S
Eu1394 O1398 2.292 . S
Eu1394 C1399 2.852 . S
Eu1394 O1410 2.324 . S
Eu1394 O1414 2.326 . S
Eu1394 O1416 2.500 . S
Eu1394 O1417 2.473 . S
C1395 O1392 1.255 . S
C1395 O1396 1.247 . S
O1396 C1395 1.247 . S
C1397 O1409 1.242 . S
C1397 O1410 1.258 . S
O1398 Eu1394 2.292 . S
O1398 C1400 1.255 . S
C1399 Eu1394 2.852 . S
C1399 C1403 1.503 . S
C1399 O1416 1.273 . S
C1399 O1417 1.257 . S
C1400 O1398 1.255 . S
C1400 O1401 1.247 . S
O1401 C1400 1.247 . S
C1402 O1414 1.242 . S
C1402 O1415 1.258 . S
C1403 C1399 1.503 . S
C1403 C1404 1.379 . S
C1403 C1408 1.392 . S
C1404 C1403 1.379 . S
C1404 C1405 1.404 . S
C1404 H1418 0.929 . S
C1405 C1404 1.404 . S
C1405 C1406 1.389 . S
C1406 C1405 1.389 . S
C1406 C1407 1.399 . S
C1406 H1419 0.931 . S
C1407 C1406 1.399 . S
C1407 C1408 1.390 . S
C1408 C1403 1.392 . S
C1408 C1407 1.390 . S
C1408 H1420 0.929 . S
O1409 Tb1393 2.326 . S
O1409 C1397 1.242 . S
O1410 Eu1394 2.324 . S
O1410 C1397 1.258 . S
O1411 Tb1393 2.500 . S
O1411 C1413 1.273 . S
O1412 Tb1393 2.473 . S
O1412 C1413 1.257 . S
C1413 O1411 1.273 . S
C1413 O1412 1.257 . S
O1414 Eu1394 2.326 . S
O1414 C1402 1.242 . S
O1415 Tb1393 2.324 . S
O1415 C1402 1.258 . S
O1416 Eu1394 2.500 . S
O1416 C1399 1.273 . S
O1417 Eu1394 2.473 . S
O1417 C1399 1.257 . S
H1418 C1404 0.929 . S
H1419 C1406 0.931 . S
H1420 C1408 0.929 . S
O1421 Tb1422 2.292 . S
O1421 C1424 1.255 . S
Tb1422 O1421 2.292 . S
Tb1422 O1438 2.326 . S
Tb1422 O1440 2.500 . S
Tb1422 O1441 2.473 . S
Tb1422 O1444 2.324 . S
Eu1423 O1427 2.292 . S
Eu1423 C1428 2.852 . S
Eu1423 O1439 2.324 . S
Eu1423 O1443 2.326 . S
Eu1423 O1445 2.500 . S
Eu1423 O1446 2.473 . S
C1424 O1421 1.255 . S
C1424 O1425 1.247 . S
O1425 C1424 1.247 . S
C1426 O1438 1.242 . S
C1426 O1439 1.258 . S
O1427 Eu1423 2.292 . S
O1427 C1429 1.255 . S
C1428 Eu1423 2.852 . S
C1428 C1432 1.503 . S
C1428 O1445 1.273 . S
C1428 O1446 1.257 . S
C1429 O1427 1.255 . S
C1429 O1430 1.247 . S
O1430 C1429 1.247 . S
C1431 O1443 1.242 . S
C1431 O1444 1.258 . S
C1432 C1428 1.503 . S
C1432 C1433 1.379 . S
C1432 C1437 1.392 . S
C1433 C1432 1.379 . S
C1433 C1434 1.404 . S
C1433 H1447 0.929 . S
C1434 C1433 1.404 . S
C1434 C1435 1.389 . S
C1435 C1434 1.389 . S
C1435 C1436 1.399 . S
C1435 H1448 0.931 . S
C1436 C1435 1.399 . S
C1436 C1437 1.390 . S
C1437 C1432 1.392 . S
C1437 C1436 1.390 . S
C1437 H1449 0.929 . S
O1438 Tb1422 2.326 . S
O1438 C1426 1.242 . S
O1439 Eu1423 2.324 . S
O1439 C1426 1.258 . S
O1440 Tb1422 2.500 . S
O1440 C1442 1.273 . S
O1441 Tb1422 2.473 . S
O1441 C1442 1.257 . S
C1442 O1440 1.273 . S
C1442 O1441 1.257 . S
O1443 Eu1423 2.326 . S
O1443 C1431 1.242 . S
O1444 Tb1422 2.324 . S
O1444 C1431 1.258 . S
O1445 Eu1423 2.500 . S
O1445 C1428 1.273 . S
O1446 Eu1423 2.473 . S
O1446 C1428 1.257 . S
H1447 C1433 0.929 . S
H1448 C1435 0.931 . S
H1449 C1437 0.929 . S
O1450 Tb1451 2.310 . S
O1450 C1453 1.255 . S
Tb1451 O1450 2.310 . S
Tb1451 O1467 2.320 1_655 S
Tb1451 O1469 2.491 1_655 S
Tb1451 O1470 2.452 1_655 S
Tb1451 O1473 2.314 1_655 S
Eu1452 O1456 2.292 . S
Eu1452 C1457 2.852 1_454 S
Eu1452 O1468 2.324 . S
Eu1452 O1472 2.326 . S
Eu1452 O1474 2.500 1_554 S
Eu1452 O1475 2.473 1_455 S
C1453 O1450 1.255 . S
C1453 O1454 1.247 . S
O1454 C1453 1.247 . S
C1455 O1467 1.242 . S
C1455 O1468 1.258 . S
O1456 Eu1452 2.292 . S
O1456 C1458 1.255 . S
C1457 Eu1452 2.852 1_656 S
C1457 C1461 1.503 . S
C1457 O1474 1.273 1_655 S
C1457 O1475 1.257 1_556 S
C1458 O1456 1.255 . S
C1458 O1459 1.247 . S
O1459 C1458 1.247 . S
C1460 O1472 1.242 . S
C1460 O1473 1.258 . S
C1461 C1457 1.503 . S
C1461 C1462 1.385 . S
C1461 C1466 1.392 . S
C1462 C1461 1.385 . S
C1462 C1463 1.407 . S
C1462 H1476 0.921 1_556 S
C1463 C1462 1.407 . S
C1463 C1464 1.389 . S
C1464 C1463 1.389 . S
C1464 C1465 1.399 . S
C1464 H1477 0.931 . S
C1465 C1464 1.399 . S
C1465 C1466 1.390 . S
C1466 C1461 1.392 . S
C1466 C1465 1.390 . S
C1466 H1478 0.929 . S
O1467 Tb1451 2.320 1_455 S
O1467 C1455 1.242 . S
O1468 Eu1452 2.324 . S
O1468 C1455 1.258 . S
O1469 Tb1451 2.491 1_455 S
O1469 C1471 1.273 . S
O1470 Tb1451 2.452 1_455 S
O1470 C1471 1.257 . S
C1471 O1469 1.273 . S
C1471 O1470 1.257 . S
O1472 Eu1452 2.326 . S
O1472 C1460 1.242 . S
O1473 Tb1451 2.314 1_455 S
O1473 C1460 1.258 . S
O1474 Eu1452 2.500 1_556 S
O1474 C1457 1.273 1_455 S
O1475 Eu1452 2.473 1_655 S
O1475 C1457 1.257 1_554 S
H1476 C1462 0.921 1_554 S
H1477 C1464 0.931 . S
H1478 C1466 0.929 . S
O1479 Tb1480 2.292 . S
O1479 C1482 1.255 . S
Tb1480 O1479 2.292 . S
Tb1480 O1496 2.326 . S
Tb1480 O1498 2.500 . S
Tb1480 O1499 2.473 . S
Tb1480 O1502 2.324 . S
Eu1481 O1485 2.292 . S
Eu1481 C1486 2.852 . S
Eu1481 O1497 2.324 . S
Eu1481 O1501 2.326 . S
Eu1481 O1503 2.500 . S
Eu1481 O1504 2.473 . S
C1482 O1479 1.255 . S
C1482 O1483 1.247 . S
O1483 C1482 1.247 . S
C1484 O1496 1.242 . S
C1484 O1497 1.258 . S
O1485 Eu1481 2.292 . S
O1485 C1487 1.255 . S
C1486 Eu1481 2.852 . S
C1486 C1490 1.503 . S
C1486 O1503 1.273 . S
C1486 O1504 1.257 . S
C1487 O1485 1.255 . S
C1487 O1488 1.247 . S
O1488 C1487 1.247 . S
C1489 O1501 1.242 . S
C1489 O1502 1.258 . S
C1490 C1486 1.503 . S
C1490 C1491 1.379 . S
C1490 C1495 1.392 . S
C1491 C1490 1.379 . S
C1491 C1492 1.404 . S
C1491 H1505 0.929 . S
C1492 C1491 1.404 . S
C1492 C1493 1.389 . S
C1493 C1492 1.389 . S
C1493 C1494 1.399 . S
C1493 H1506 0.931 . S
C1494 C1493 1.399 . S
C1494 C1495 1.390 . S
C1495 C1490 1.392 . S
C1495 C1494 1.390 . S
C1495 H1507 0.929 . S
O1496 Tb1480 2.326 . S
O1496 C1484 1.242 . S
O1497 Eu1481 2.324 . S
O1497 C1484 1.258 . S
O1498 Tb1480 2.500 . S
O1498 C1500 1.273 . S
O1499 Tb1480 2.473 . S
O1499 C1500 1.257 . S
C1500 O1498 1.273 . S
C1500 O1499 1.257 . S
O1501 Eu1481 2.326 . S
O1501 C1489 1.242 . S
O1502 Tb1480 2.324 . S
O1502 C1489 1.258 . S
O1503 Eu1481 2.500 . S
O1503 C1486 1.273 . S
O1504 Eu1481 2.473 . S
O1504 C1486 1.257 . S
H1505 C1491 0.929 . S
H1506 C1493 0.931 . S
H1507 C1495 0.929 . S
O1508 Tb1509 2.292 . S
O1508 C1511 1.255 . S
Tb1509 O1508 2.292 . S
Tb1509 O1525 2.326 . S
Tb1509 O1527 2.500 . S
Tb1509 O1528 2.473 . S
Tb1509 O1531 2.324 . S
Eu1510 O1514 2.292 . S
Eu1510 C1515 2.852 1_556 S
Eu1510 O1526 2.324 . S
Eu1510 O1530 2.326 . S
Eu1510 O1532 2.500 1_556 S
Eu1510 O1533 2.473 . S
C1511 O1508 1.255 . S
C1511 O1512 1.247 . S
O1512 C1511 1.247 . S
C1513 O1525 1.242 . S
C1513 O1526 1.258 . S
O1514 Eu1510 2.292 . S
O1514 C1516 1.255 . S
C1515 Eu1510 2.852 1_554 S
C1515 C1519 1.503 . S
C1515 O1532 1.273 . S
C1515 O1533 1.257 1_554 S
C1516 O1514 1.255 . S
C1516 O1517 1.247 . S
O1517 C1516 1.247 . S
C1518 O1530 1.242 . S
C1518 O1531 1.258 . S
C1519 C1515 1.503 . S
C1519 C1520 1.384 . S
C1519 C1524 1.392 . S
C1520 C1519 1.384 . S
C1520 C1521 1.407 . S
C1520 H1534 0.921 1_554 S
C1521 C1520 1.407 . S
C1521 C1522 1.389 . S
C1522 C1521 1.389 . S
C1522 C1523 1.399 . S
C1522 H1535 0.931 . S
C1523 C1522 1.399 . S
C1523 C1524 1.390 . S
C1524 C1519 1.392 . S
C1524 C1523 1.390 . S
C1524 H1536 0.929 . S
O1525 Tb1509 2.326 . S
O1525 C1513 1.242 . S
O1526 Eu1510 2.324 . S
O1526 C1513 1.258 . S
O1527 Tb1509 2.500 . S
O1527 C1529 1.273 . S
O1528 Tb1509 2.473 . S
O1528 C1529 1.257 . S
C1529 O1527 1.273 . S
C1529 O1528 1.257 . S
O1530 Eu1510 2.326 . S
O1530 C1518 1.242 . S
O1531 Tb1509 2.324 . S
O1531 C1518 1.258 . S
O1532 Eu1510 2.500 1_554 S
O1532 C1515 1.273 . S
O1533 Eu1510 2.473 . S
O1533 C1515 1.257 1_556 S
H1534 C1520 0.921 1_556 S
H1535 C1522 0.931 . S
H1536 C1524 0.929 . S
O1537 Tb1538 2.292 . S
O1537 C1540 1.255 . S
Tb1538 O1537 2.292 . S
Tb1538 O1554 2.326 . S
Tb1538 O1556 2.500 . S
Tb1538 O1557 2.473 . S
Tb1538 O1560 2.324 . S
Eu1539 O1543 2.292 . S
Eu1539 C1544 2.852 . S
Eu1539 O1555 2.324 . S
Eu1539 O1559 2.326 . S
Eu1539 O1561 2.500 . S
Eu1539 O1562 2.473 . S
C1540 O1537 1.255 . S
C1540 O1541 1.247 . S
O1541 C1540 1.247 . S
C1542 O1554 1.242 . S
C1542 O1555 1.258 . S
O1543 Eu1539 2.292 . S
O1543 C1545 1.255 . S
C1544 Eu1539 2.852 . S
C1544 C1548 1.503 . S
C1544 O1561 1.273 . S
C1544 O1562 1.257 . S
C1545 O1543 1.255 . S
C1545 O1546 1.247 . S
O1546 C1545 1.247 . S
C1547 O1559 1.242 . S
C1547 O1560 1.258 . S
C1548 C1544 1.503 . S
C1548 C1549 1.379 . S
C1548 C1553 1.392 . S
C1549 C1548 1.379 . S
C1549 C1550 1.404 . S
C1549 H1563 0.929 . S
C1550 C1549 1.404 . S
C1550 C1551 1.389 . S
C1551 C1550 1.389 . S
C1551 C1552 1.399 . S
C1551 H1564 0.931 . S
C1552 C1551 1.399 . S
C1552 C1553 1.390 . S
C1553 C1548 1.392 . S
C1553 C1552 1.390 . S
C1553 H1565 0.929 . S
O1554 Tb1538 2.326 . S
O1554 C1542 1.242 . S
O1555 Eu1539 2.324 . S
O1555 C1542 1.258 . S
O1556 Tb1538 2.500 . S
O1556 C1558 1.273 . S
O1557 Tb1538 2.473 . S
O1557 C1558 1.257 . S
C1558 O1556 1.273 . S
C1558 O1557 1.257 . S
O1559 Eu1539 2.326 . S
O1559 C1547 1.242 . S
O1560 Tb1538 2.324 . S
O1560 C1547 1.258 . S
O1561 Eu1539 2.500 . S
O1561 C1544 1.273 . S
O1562 Eu1539 2.473 . S
O1562 C1544 1.257 . S
H1563 C1549 0.929 . S
H1564 C1551 0.931 . S
H1565 C1553 0.929 . S
O1566 Tb1567 2.292 . S
O1566 C1569 1.255 . S
Tb1567 O1566 2.292 . S
Tb1567 O1583 2.326 1_655 S
Tb1567 O1585 2.500 1_655 S
Tb1567 O1586 2.473 1_655 S
Tb1567 O1589 2.324 1_655 S
Eu1568 O1572 2.292 . S
Eu1568 C1573 2.852 1_455 S
Eu1568 O1584 2.324 . S
Eu1568 O1588 2.326 . S
Eu1568 O1590 2.500 . S
Eu1568 O1591 2.473 1_455 S
C1569 O1566 1.255 . S
C1569 O1570 1.247 . S
O1570 C1569 1.247 . S
C1571 O1583 1.242 . S
C1571 O1584 1.258 . S
O1572 Eu1568 2.292 . S
O1572 C1574 1.255 . S
C1573 Eu1568 2.852 1_655 S
C1573 C1577 1.503 . S
C1573 O1590 1.273 1_655 S
C1573 O1591 1.257 . S
C1574 O1572 1.255 . S
C1574 O1575 1.247 . S
O1575 C1574 1.247 . S
C1576 O1588 1.242 . S
C1576 O1589 1.258 . S
C1577 C1573 1.503 . S
C1577 C1578 1.379 . S
C1577 C1582 1.392 . S
C1578 C1577 1.379 . S
C1578 C1579 1.404 . S
C1578 H1592 0.929 . S
C1579 C1578 1.404 . S
C1579 C1580 1.389 . S
C1580 C1579 1.389 . S
C1580 C1581 1.399 . S
C1580 H1593 0.931 . S
C1581 C1580 1.399 . S
C1581 C1582 1.390 . S
C1582 C1577 1.392 . S
C1582 C1581 1.390 . S
C1582 H1594 0.929 . S
O1583 Tb1567 2.326 1_455 S
O1583 C1571 1.242 . S
O1584 Eu1568 2.324 . S
O1584 C1571 1.258 . S
O1585 Tb1567 2.500 1_455 S
O1585 C1587 1.273 . S
O1586 Tb1567 2.473 1_455 S
O1586 C1587 1.257 . S
C1587 O1585 1.273 . S
C1587 O1586 1.257 . S
O1588 Eu1568 2.326 . S
O1588 C1576 1.242 . S
O1589 Tb1567 2.324 1_455 S
O1589 C1576 1.258 . S
O1590 Eu1568 2.500 . S
O1590 C1573 1.273 1_455 S
O1591 Eu1568 2.473 1_655 S
O1591 C1573 1.257 . S
H1592 C1578 0.929 . S
H1593 C1580 0.931 . S
H1594 C1582 0.929 . S
O1595 Tb1596 2.292 . S
O1595 C1598 1.255 . S
Tb1596 O1595 2.292 . S
Tb1596 O1612 2.326 . S
Tb1596 O1614 2.500 . S
Tb1596 O1615 2.473 . S
Tb1596 O1618 2.324 . S
Eu1597 O1601 2.292 . S
Eu1597 C1602 2.852 . S
Eu1597 O1613 2.324 . S
Eu1597 O1617 2.326 . S
Eu1597 O1619 2.500 . S
Eu1597 O1620 2.473 . S
C1598 O1595 1.255 . S
C1598 O1599 1.247 . S
O1599 C1598 1.247 . S
C1600 O1612 1.242 . S
C1600 O1613 1.258 . S
O1601 Eu1597 2.292 . S
O1601 C1603 1.255 . S
C1602 Eu1597 2.852 . S
C1602 C1606 1.503 . S
C1602 O1619 1.273 . S
C1602 O1620 1.257 . S
C1603 O1601 1.255 . S
C1603 O1604 1.247 . S
O1604 C1603 1.247 . S
C1605 O1617 1.242 . S
C1605 O1618 1.258 . S
C1606 C1602 1.503 . S
C1606 C1607 1.379 . S
C1606 C1611 1.392 . S
C1607 C1606 1.379 . S
C1607 C1608 1.404 . S
C1607 H1621 0.929 . S
C1608 C1607 1.404 . S
C1608 C1609 1.389 . S
C1609 C1608 1.389 . S
C1609 C1610 1.399 . S
C1609 H1622 0.931 . S
C1610 C1609 1.399 . S
C1610 C1611 1.390 . S
C1611 C1606 1.392 . S
C1611 C1610 1.390 . S
C1611 H1623 0.929 . S
O1612 Tb1596 2.326 . S
O1612 C1600 1.242 . S
O1613 Eu1597 2.324 . S
O1613 C1600 1.258 . S
O1614 Tb1596 2.500 . S
O1614 C1616 1.273 . S
O1615 Tb1596 2.473 . S
O1615 C1616 1.257 . S
C1616 O1614 1.273 . S
C1616 O1615 1.257 . S
O1617 Eu1597 2.326 . S
O1617 C1605 1.242 . S
O1618 Tb1596 2.324 . S
O1618 C1605 1.258 . S
O1619 Eu1597 2.500 . S
O1619 C1602 1.273 . S
O1620 Eu1597 2.473 . S
O1620 C1602 1.257 . S
H1621 C1607 0.929 . S
H1622 C1609 0.931 . S
H1623 C1611 0.929 . S
O1624 Tb1625 2.292 . S
O1624 C1627 1.255 . S
Tb1625 O1624 2.292 . S
Tb1625 O1641 2.326 . S
Tb1625 O1643 2.500 . S
Tb1625 O1644 2.473 . S
Tb1625 O1647 2.324 . S
Eu1626 O1630 2.292 . S
Eu1626 C1631 2.852 . S
Eu1626 O1642 2.324 . S
Eu1626 O1646 2.326 . S
Eu1626 O1648 2.500 . S
Eu1626 O1649 2.473 . S
C1627 O1624 1.255 . S
C1627 O1628 1.247 . S
O1628 C1627 1.247 . S
C1629 O1641 1.242 . S
C1629 O1642 1.258 . S
O1630 Eu1626 2.292 . S
O1630 C1632 1.255 . S
C1631 Eu1626 2.852 . S
C1631 C1635 1.503 . S
C1631 O1648 1.273 . S
C1631 O1649 1.257 . S
C1632 O1630 1.255 . S
C1632 O1633 1.247 . S
O1633 C1632 1.247 . S
C1634 O1646 1.242 . S
C1634 O1647 1.258 . S
C1635 C1631 1.503 . S
C1635 C1636 1.379 . S
C1635 C1640 1.392 . S
C1636 C1635 1.379 . S
C1636 C1637 1.404 . S
C1636 H1650 0.929 . S
C1637 C1636 1.404 . S
C1637 C1638 1.389 . S
C1638 C1637 1.389 . S
C1638 C1639 1.399 . S
C1638 H1651 0.931 . S
C1639 C1638 1.399 . S
C1639 C1640 1.390 . S
C1640 C1635 1.392 . S
C1640 C1639 1.390 . S
C1640 H1652 0.929 . S
O1641 Tb1625 2.326 . S
O1641 C1629 1.242 . S
O1642 Eu1626 2.324 . S
O1642 C1629 1.258 . S
O1643 Tb1625 2.500 . S
O1643 C1645 1.273 . S
O1644 Tb1625 2.473 . S
O1644 C1645 1.257 . S
C1645 O1643 1.273 . S
C1645 O1644 1.257 . S
O1646 Eu1626 2.326 . S
O1646 C1634 1.242 . S
O1647 Tb1625 2.324 . S
O1647 C1634 1.258 . S
O1648 Eu1626 2.500 . S
O1648 C1631 1.273 . S
O1649 Eu1626 2.473 . S
O1649 C1631 1.257 . S
H1650 C1636 0.929 . S
H1651 C1638 0.931 . S
H1652 C1640 0.929 . S
O1653 Tb1654 2.292 . S
O1653 C1656 1.255 . S
Tb1654 O1653 2.292 . S
Tb1654 O1670 2.326 . S
Tb1654 O1672 2.500 . S
Tb1654 O1673 2.473 . S
Tb1654 O1676 2.324 . S
Eu1655 O1659 2.292 . S
Eu1655 C1660 2.852 . S
Eu1655 O1671 2.324 . S
Eu1655 O1675 2.326 . S
Eu1655 O1677 2.500 . S
Eu1655 O1678 2.473 . S
C1656 O1653 1.255 . S
C1656 O1657 1.247 . S
O1657 C1656 1.247 . S
C1658 O1670 1.242 . S
C1658 O1671 1.258 . S
O1659 Eu1655 2.292 . S
O1659 C1661 1.255 . S
C1660 Eu1655 2.852 . S
C1660 C1664 1.503 . S
C1660 O1677 1.273 . S
C1660 O1678 1.257 . S
C1661 O1659 1.255 . S
C1661 O1662 1.247 . S
O1662 C1661 1.247 . S
C1663 O1675 1.242 . S
C1663 O1676 1.258 . S
C1664 C1660 1.503 . S
C1664 C1665 1.379 . S
C1664 C1669 1.392 . S
C1665 C1664 1.379 . S
C1665 C1666 1.404 . S
C1665 H1679 0.929 . S
C1666 C1665 1.404 . S
C1666 C1667 1.389 . S
C1667 C1666 1.389 . S
C1667 C1668 1.399 . S
C1667 H1680 0.931 . S
C1668 C1667 1.399 . S
C1668 C1669 1.390 . S
C1669 C1664 1.392 . S
C1669 C1668 1.390 . S
C1669 H1681 0.929 . S
O1670 Tb1654 2.326 . S
O1670 C1658 1.242 . S
O1671 Eu1655 2.324 . S
O1671 C1658 1.258 . S
O1672 Tb1654 2.500 . S
O1672 C1674 1.273 . S
O1673 Tb1654 2.473 . S
O1673 C1674 1.257 . S
C1674 O1672 1.273 . S
C1674 O1673 1.257 . S
O1675 Eu1655 2.326 . S
O1675 C1663 1.242 . S
O1676 Tb1654 2.324 . S
O1676 C1663 1.258 . S
O1677 Eu1655 2.500 . S
O1677 C1660 1.273 . S
O1678 Eu1655 2.473 . S
O1678 C1660 1.257 . S
H1679 C1665 0.929 . S
H1680 C1667 0.931 . S
H1681 C1669 0.929 . S
O1682 Tb1683 2.292 . S
O1682 C1685 1.255 . S
Tb1683 O1682 2.292 . S
Tb1683 O1699 2.326 . S
Tb1683 O1701 2.500 . S
Tb1683 O1702 2.473 . S
Tb1683 O1705 2.324 . S
Eu1684 O1688 2.292 . S
Eu1684 C1689 2.852 1_655 S
Eu1684 O1700 2.324 . S
Eu1684 O1704 2.326 . S
Eu1684 O1706 2.500 1_655 S
Eu1684 O1707 2.473 . S
C1685 O1682 1.255 . S
C1685 O1686 1.247 . S
O1686 C1685 1.247 . S
C1687 O1699 1.242 . S
C1687 O1700 1.258 . S
O1688 Eu1684 2.292 . S
O1688 C1690 1.255 . S
C1689 Eu1684 2.852 1_455 S
C1689 C1693 1.503 . S
C1689 O1706 1.273 . S
C1689 O1707 1.257 1_455 S
C1690 O1688 1.255 . S
C1690 O1691 1.247 . S
O1691 C1690 1.247 . S
C1692 O1704 1.242 . S
C1692 O1705 1.258 . S
C1693 C1689 1.503 . S
C1693 C1694 1.383 . S
C1693 C1698 1.392 . S
C1694 C1693 1.383 . S
C1694 C1695 1.407 . S
C1694 H1708 0.922 1_455 S
C1695 C1694 1.407 . S
C1695 C1696 1.389 . S
C1696 C1695 1.389 . S
C1696 C1697 1.399 . S
C1696 H1709 0.931 . S
C1697 C1696 1.399 . S
C1697 C1698 1.390 . S
C1698 C1693 1.392 . S
C1698 C1697 1.390 . S
C1698 H1710 0.929 . S
O1699 Tb1683 2.326 . S
O1699 C1687 1.242 . S
O1700 Eu1684 2.324 . S
O1700 C1687 1.258 . S
O1701 Tb1683 2.500 . S
O1701 C1703 1.273 . S
O1702 Tb1683 2.473 . S
O1702 C1703 1.257 . S
C1703 O1701 1.273 . S
C1703 O1702 1.257 . S
O1704 Eu1684 2.326 . S
O1704 C1692 1.242 . S
O1705 Tb1683 2.324 . S
O1705 C1692 1.258 . S
O1706 Eu1684 2.500 1_455 S
O1706 C1689 1.273 . S
O1707 Eu1684 2.473 . S
O1707 C1689 1.257 1_655 S
H1708 C1694 0.922 1_655 S
H1709 C1696 0.931 . S
H1710 C1698 0.929 . S
O1711 Tb1712 2.292 . S
O1711 C1714 1.255 . S
Tb1712 O1711 2.292 . S
Tb1712 O1728 2.326 . S
Tb1712 O1730 2.500 . S
Tb1712 O1731 2.473 . S
Tb1712 O1734 2.324 . S
Eu1713 O1717 2.292 . S
Eu1713 C1718 2.852 . S
Eu1713 O1729 2.324 . S
Eu1713 O1733 2.326 . S
Eu1713 O1735 2.500 . S
Eu1713 O1736 2.473 . S
C1714 O1711 1.255 . S
C1714 O1715 1.247 . S
O1715 C1714 1.247 . S
C1716 O1728 1.242 . S
C1716 O1729 1.258 . S
O1717 Eu1713 2.292 . S
O1717 C1719 1.255 . S
C1718 Eu1713 2.852 . S
C1718 C1722 1.503 . S
C1718 O1735 1.273 . S
C1718 O1736 1.257 . S
C1719 O1717 1.255 . S
C1719 O1720 1.247 . S
O1720 C1719 1.247 . S
C1721 O1733 1.242 . S
C1721 O1734 1.258 . S
C1722 C1718 1.503 . S
C1722 C1723 1.379 . S
C1722 C1727 1.392 . S
C1723 C1722 1.379 . S
C1723 C1724 1.404 . S
C1723 H1737 0.929 . S
C1724 C1723 1.404 . S
C1724 C1725 1.389 . S
C1725 C1724 1.389 . S
C1725 C1726 1.399 . S
C1725 H1738 0.931 . S
C1726 C1725 1.399 . S
C1726 C1727 1.390 . S
C1727 C1722 1.392 . S
C1727 C1726 1.390 . S
C1727 H1739 0.929 . S
O1728 Tb1712 2.326 . S
O1728 C1716 1.242 . S
O1729 Eu1713 2.324 . S
O1729 C1716 1.258 . S
O1730 Tb1712 2.500 . S
O1730 C1732 1.273 . S
O1731 Tb1712 2.473 . S
O1731 C1732 1.257 . S
C1732 O1730 1.273 . S
C1732 O1731 1.257 . S
O1733 Eu1713 2.326 . S
O1733 C1721 1.242 . S
O1734 Tb1712 2.324 . S
O1734 C1721 1.258 . S
O1735 Eu1713 2.500 . S
O1735 C1718 1.273 . S
O1736 Eu1713 2.473 . S
O1736 C1718 1.257 . S
H1737 C1723 0.929 . S
H1738 C1725 0.931 . S
H1739 C1727 0.929 . S
O1740 Tb1741 2.292 . S
O1740 C1743 1.255 . S
Tb1741 O1740 2.292 . S
Tb1741 O1757 2.326 . S
Tb1741 O1759 2.500 . S
Tb1741 O1760 2.473 . S
Tb1741 O1763 2.324 . S
Eu1742 O1746 2.292 . S
Eu1742 C1747 2.852 . S
Eu1742 O1758 2.324 . S
Eu1742 O1762 2.326 . S
Eu1742 O1764 2.500 . S
Eu1742 O1765 2.473 . S
C1743 O1740 1.255 . S
C1743 O1744 1.247 . S
O1744 C1743 1.247 . S
C1745 O1757 1.242 . S
C1745 O1758 1.258 . S
O1746 Eu1742 2.292 . S
O1746 C1748 1.255 . S
C1747 Eu1742 2.852 . S
C1747 C1751 1.503 . S
C1747 O1764 1.273 . S
C1747 O1765 1.257 . S
C1748 O1746 1.255 . S
C1748 O1749 1.247 . S
O1749 C1748 1.247 . S
C1750 O1762 1.242 . S
C1750 O1763 1.258 . S
C1751 C1747 1.503 . S
C1751 C1752 1.379 . S
C1751 C1756 1.392 . S
C1752 C1751 1.379 . S
C1752 C1753 1.404 . S
C1752 H1766 0.929 . S
C1753 C1752 1.404 . S
C1753 C1754 1.389 . S
C1754 C1753 1.389 . S
C1754 C1755 1.399 . S
C1754 H1767 0.931 . S
C1755 C1754 1.399 . S
C1755 C1756 1.390 . S
C1756 C1751 1.392 . S
C1756 C1755 1.390 . S
C1756 H1768 0.929 . S
O1757 Tb1741 2.326 . S
O1757 C1745 1.242 . S
O1758 Eu1742 2.324 . S
O1758 C1745 1.258 . S
O1759 Tb1741 2.500 . S
O1759 C1761 1.273 . S
O1760 Tb1741 2.473 . S
O1760 C1761 1.257 . S
C1761 O1759 1.273 . S
C1761 O1760 1.257 . S
O1762 Eu1742 2.326 . S
O1762 C1750 1.242 . S
O1763 Tb1741 2.324 . S
O1763 C1750 1.258 . S
O1764 Eu1742 2.500 . S
O1764 C1747 1.273 . S
O1765 Eu1742 2.473 . S
O1765 C1747 1.257 . S
H1766 C1752 0.929 . S
H1767 C1754 0.931 . S
H1768 C1756 0.929 . S
O1769 Tb1770 2.292 . S
O1769 C1772 1.255 . S
Tb1770 O1769 2.292 . S
Tb1770 O1786 2.326 . S
Tb1770 O1788 2.500 . S
Tb1770 O1789 2.473 . S
Tb1770 O1792 2.324 . S
Eu1771 O1775 2.292 . S
Eu1771 C1776 2.852 . S
Eu1771 O1787 2.324 . S
Eu1771 O1791 2.326 . S
Eu1771 O1793 2.500 . S
Eu1771 O1794 2.473 . S
C1772 O1769 1.255 . S
C1772 O1773 1.247 . S
O1773 C1772 1.247 . S
C1774 O1786 1.242 . S
C1774 O1787 1.258 . S
O1775 Eu1771 2.292 . S
O1775 C1777 1.255 . S
C1776 Eu1771 2.852 . S
C1776 C1780 1.503 . S
C1776 O1793 1.273 . S
C1776 O1794 1.257 . S
C1777 O1775 1.255 . S
C1777 O1778 1.247 . S
O1778 C1777 1.247 . S
C1779 O1791 1.242 . S
C1779 O1792 1.258 . S
C1780 C1776 1.503 . S
C1780 C1781 1.379 . S
C1780 C1785 1.392 . S
C1781 C1780 1.379 . S
C1781 C1782 1.404 . S
C1781 H1795 0.929 . S
C1782 C1781 1.404 . S
C1782 C1783 1.389 . S
C1783 C1782 1.389 . S
C1783 C1784 1.399 . S
C1783 H1796 0.931 . S
C1784 C1783 1.399 . S
C1784 C1785 1.390 . S
C1785 C1780 1.392 . S
C1785 C1784 1.390 . S
C1785 H1797 0.929 . S
O1786 Tb1770 2.326 . S
O1786 C1774 1.242 . S
O1787 Eu1771 2.324 . S
O1787 C1774 1.258 . S
O1788 Tb1770 2.500 . S
O1788 C1790 1.273 . S
O1789 Tb1770 2.473 . S
O1789 C1790 1.257 . S
C1790 O1788 1.273 . S
C1790 O1789 1.257 . S
O1791 Eu1771 2.326 . S
O1791 C1779 1.242 . S
O1792 Tb1770 2.324 . S
O1792 C1779 1.258 . S
O1793 Eu1771 2.500 . S
O1793 C1776 1.273 . S
O1794 Eu1771 2.473 . S
O1794 C1776 1.257 . S
H1795 C1781 0.929 . S
H1796 C1783 0.931 . S
H1797 C1785 0.929 . S
O1798 Tb1799 2.292 . S
O1798 C1801 1.255 . S
Tb1799 O1798 2.292 . S
Tb1799 O1815 2.326 . S
Tb1799 O1817 2.500 . S
Tb1799 O1818 2.473 . S
Tb1799 O1821 2.324 . S
Eu1800 O1804 2.292 . S
Eu1800 C1805 2.852 1_655 S
Eu1800 O1816 2.324 . S
Eu1800 O1820 2.326 . S
Eu1800 O1822 2.500 1_655 S
Eu1800 O1823 2.473 . S
C1801 O1798 1.255 . S
C1801 O1802 1.247 . S
O1802 C1801 1.247 . S
C1803 O1815 1.242 . S
C1803 O1816 1.258 . S
O1804 Eu1800 2.292 . S
O1804 C1806 1.255 . S
C1805 Eu1800 2.852 1_455 S
C1805 C1809 1.503 . S
C1805 O1822 1.273 . S
C1805 O1823 1.257 1_455 S
C1806 O1804 1.255 . S
C1806 O1807 1.247 . S
O1807 C1806 1.247 . S
C1808 O1820 1.242 . S
C1808 O1821 1.258 . S
C1809 C1805 1.503 . S
C1809 C1810 1.382 . S
C1809 C1814 1.392 . S
C1810 C1809 1.382 . S
C1810 C1811 1.406 . S
C1810 H1824 0.925 1_455 S
C1811 C1810 1.406 . S
C1811 C1812 1.389 . S
C1812 C1811 1.389 . S
C1812 C1813 1.399 . S
C1812 H1825 0.931 . S
C1813 C1812 1.399 . S
C1813 C1814 1.390 . S
C1814 C1809 1.392 . S
C1814 C1813 1.390 . S
C1814 H1826 0.929 . S
O1815 Tb1799 2.326 . S
O1815 C1803 1.242 . S
O1816 Eu1800 2.324 . S
O1816 C1803 1.258 . S
O1817 Tb1799 2.500 . S
O1817 C1819 1.273 . S
O1818 Tb1799 2.473 . S
O1818 C1819 1.257 . S
C1819 O1817 1.273 . S
C1819 O1818 1.257 . S
O1820 Eu1800 2.326 . S
O1820 C1808 1.242 . S
O1821 Tb1799 2.324 . S
O1821 C1808 1.258 . S
O1822 Eu1800 2.500 1_455 S
O1822 C1805 1.273 . S
O1823 Eu1800 2.473 . S
O1823 C1805 1.257 1_655 S
H1824 C1810 0.925 1_655 S
H1825 C1812 0.931 . S
H1826 C1814 0.929 . S
O1827 Tb1828 2.292 . S
O1827 C1830 1.255 . S
Tb1828 O1827 2.292 . S
Tb1828 O1844 2.326 . S
Tb1828 O1846 2.500 . S
Tb1828 O1847 2.473 . S
Tb1828 O1850 2.324 . S
Eu1829 O1833 2.292 . S
Eu1829 C1834 2.852 . S
Eu1829 O1845 2.324 . S
Eu1829 O1849 2.326 . S
Eu1829 O1851 2.500 . S
Eu1829 O1852 2.473 . S
C1830 O1827 1.255 . S
C1830 O1831 1.247 . S
O1831 C1830 1.247 . S
C1832 O1844 1.242 . S
C1832 O1845 1.258 . S
O1833 Eu1829 2.292 . S
O1833 C1835 1.255 . S
C1834 Eu1829 2.852 . S
C1834 C1838 1.503 . S
C1834 O1851 1.273 . S
C1834 O1852 1.257 . S
C1835 O1833 1.255 . S
C1835 O1836 1.247 . S
O1836 C1835 1.247 . S
C1837 O1849 1.242 . S
C1837 O1850 1.258 . S
C1838 C1834 1.503 . S
C1838 C1839 1.379 . S
C1838 C1843 1.392 . S
C1839 C1838 1.379 . S
C1839 C1840 1.404 . S
C1839 H1853 0.929 . S
C1840 C1839 1.404 . S
C1840 C1841 1.389 . S
C1841 C1840 1.389 . S
C1841 C1842 1.399 . S
C1841 H1854 0.931 . S
C1842 C1841 1.399 . S
C1842 C1843 1.390 . S
C1843 C1838 1.392 . S
C1843 C1842 1.390 . S
C1843 H1855 0.929 . S
O1844 Tb1828 2.326 . S
O1844 C1832 1.242 . S
O1845 Eu1829 2.324 . S
O1845 C1832 1.258 . S
O1846 Tb1828 2.500 . S
O1846 C1848 1.273 . S
O1847 Tb1828 2.473 . S
O1847 C1848 1.257 . S
C1848 O1846 1.273 . S
C1848 O1847 1.257 . S
O1849 Eu1829 2.326 . S
O1849 C1837 1.242 . S
O1850 Tb1828 2.324 . S
O1850 C1837 1.258 . S
O1851 Eu1829 2.500 . S
O1851 C1834 1.273 . S
O1852 Eu1829 2.473 . S
O1852 C1834 1.257 . S
H1853 C1839 0.929 . S
H1854 C1841 0.931 . S
H1855 C1843 0.929 . S
O1856 Tb1857 2.292 . S
O1856 C1859 1.255 . S
Tb1857 O1856 2.292 . S
Tb1857 O1873 2.326 . S
Tb1857 O1875 2.500 . S
Tb1857 O1876 2.473 . S
Tb1857 O1879 2.324 . S
Eu1858 O1862 2.292 . S
Eu1858 C1863 2.852 . S
Eu1858 O1874 2.324 . S
Eu1858 O1878 2.326 . S
Eu1858 O1880 2.500 . S
Eu1858 O1881 2.473 . S
C1859 O1856 1.255 . S
C1859 O1860 1.247 . S
O1860 C1859 1.247 . S
C1861 O1873 1.242 . S
C1861 O1874 1.258 . S
O1862 Eu1858 2.292 . S
O1862 C1864 1.255 . S
C1863 Eu1858 2.852 . S
C1863 C1867 1.503 . S
C1863 O1880 1.273 . S
C1863 O1881 1.257 . S
C1864 O1862 1.255 . S
C1864 O1865 1.247 . S
O1865 C1864 1.247 . S
C1866 O1878 1.242 . S
C1866 O1879 1.258 . S
C1867 C1863 1.503 . S
C1867 C1868 1.379 . S
C1867 C1872 1.392 . S
C1868 C1867 1.379 . S
C1868 C1869 1.404 . S
C1868 H1882 0.929 . S
C1869 C1868 1.404 . S
C1869 C1870 1.389 . S
C1870 C1869 1.389 . S
C1870 C1871 1.399 . S
C1870 H1883 0.931 . S
C1871 C1870 1.399 . S
C1871 C1872 1.390 . S
C1872 C1867 1.392 . S
C1872 C1871 1.390 . S
C1872 H1884 0.929 . S
O1873 Tb1857 2.326 . S
O1873 C1861 1.242 . S
O1874 Eu1858 2.324 . S
O1874 C1861 1.258 . S
O1875 Tb1857 2.500 . S
O1875 C1877 1.273 . S
O1876 Tb1857 2.473 . S
O1876 C1877 1.257 . S
C1877 O1875 1.273 . S
C1877 O1876 1.257 . S
O1878 Eu1858 2.326 . S
O1878 C1866 1.242 . S
O1879 Tb1857 2.324 . S
O1879 C1866 1.258 . S
O1880 Eu1858 2.500 . S
O1880 C1863 1.273 . S
O1881 Eu1858 2.473 . S
O1881 C1863 1.257 . S
H1882 C1868 0.929 . S
H1883 C1870 0.931 . S
H1884 C1872 0.929 . S
O1885 Tb1886 2.292 . S
O1885 C1888 1.255 . S
Tb1886 O1885 2.292 . S
Tb1886 O1902 2.326 . S
Tb1886 O1904 2.500 . S
Tb1886 O1905 2.473 . S
Tb1886 O1908 2.324 . S
Eu1887 O1891 2.292 . S
Eu1887 C1892 2.852 1_565 S
Eu1887 O1903 2.324 . S
Eu1887 O1907 2.326 . S
Eu1887 O1909 2.500 1_565 S
Eu1887 O1910 2.473 . S
C1888 O1885 1.255 . S
C1888 O1889 1.247 . S
O1889 C1888 1.247 . S
C1890 O1902 1.242 . S
C1890 O1903 1.258 . S
O1891 Eu1887 2.292 . S
O1891 C1893 1.255 . S
C1892 Eu1887 2.852 1_545 S
C1892 C1896 1.503 . S
C1892 O1909 1.273 . S
C1892 O1910 1.257 1_545 S
C1893 O1891 1.255 . S
C1893 O1894 1.247 . S
O1894 C1893 1.247 . S
C1895 O1907 1.242 . S
C1895 O1908 1.258 . S
C1896 C1892 1.503 . S
C1896 C1897 1.379 . S
C1896 C1901 1.392 . S
C1897 C1896 1.379 . S
C1897 C1898 1.404 . S
C1897 H1911 0.929 1_545 S
C1898 C1897 1.404 . S
C1898 C1899 1.389 . S
C1899 C1898 1.389 . S
C1899 C1900 1.399 . S
C1899 H1912 0.931 . S
C1900 C1899 1.399 . S
C1900 C1901 1.390 . S
C1901 C1896 1.392 . S
C1901 C1900 1.390 . S
C1901 H1913 0.929 . S
O1902 Tb1886 2.326 . S
O1902 C1890 1.242 . S
O1903 Eu1887 2.324 . S
O1903 C1890 1.258 . S
O1904 Tb1886 2.500 . S
O1904 C1906 1.273 . S
O1905 Tb1886 2.473 . S
O1905 C1906 1.257 . S
C1906 O1904 1.273 . S
C1906 O1905 1.257 . S
O1907 Eu1887 2.326 . S
O1907 C1895 1.242 . S
O1908 Tb1886 2.324 . S
O1908 C1895 1.258 . S
O1909 Eu1887 2.500 1_545 S
O1909 C1892 1.273 . S
O1910 Eu1887 2.473 . S
O1910 C1892 1.257 1_565 S
H1911 C1897 0.929 1_565 S
H1912 C1899 0.931 . S
H1913 C1901 0.929 . S
O1914 Tb1915 2.292 . S
O1914 C1917 1.255 . S
Tb1915 O1914 2.292 . S
Tb1915 O1931 2.326 . S
Tb1915 O1933 2.500 . S
Tb1915 O1934 2.473 . S
Tb1915 O1937 2.324 . S
Eu1916 O1920 2.292 . S
Eu1916 C1921 2.852 . S
Eu1916 O1932 2.324 . S
Eu1916 O1936 2.326 . S
Eu1916 O1938 2.500 . S
Eu1916 O1939 2.473 . S
C1917 O1914 1.255 . S
C1917 O1918 1.247 . S
O1918 C1917 1.247 . S
C1919 O1931 1.242 . S
C1919 O1932 1.258 . S
O1920 Eu1916 2.292 . S
O1920 C1922 1.255 . S
C1921 Eu1916 2.852 . S
C1921 C1925 1.503 . S
C1921 O1938 1.273 . S
C1921 O1939 1.257 . S
C1922 O1920 1.255 . S
C1922 O1923 1.247 . S
O1923 C1922 1.247 . S
C1924 O1936 1.242 . S
C1924 O1937 1.258 . S
C1925 C1921 1.503 . S
C1925 C1926 1.379 . S
C1925 C1930 1.392 . S
C1926 C1925 1.379 . S
C1926 C1927 1.404 . S
C1926 H1940 0.929 . S
C1927 C1926 1.404 . S
C1927 C1928 1.389 . S
C1928 C1927 1.389 . S
C1928 C1929 1.399 . S
C1928 H1941 0.931 . S
C1929 C1928 1.399 . S
C1929 C1930 1.390 . S
C1930 C1925 1.392 . S
C1930 C1929 1.390 . S
C1930 H1942 0.929 . S
O1931 Tb1915 2.326 . S
O1931 C1919 1.242 . S
O1932 Eu1916 2.324 . S
O1932 C1919 1.258 . S
O1933 Tb1915 2.500 . S
O1933 C1935 1.273 . S
O1934 Tb1915 2.473 . S
O1934 C1935 1.257 . S
C1935 O1933 1.273 . S
C1935 O1934 1.257 . S
O1936 Eu1916 2.326 . S
O1936 C1924 1.242 . S
O1937 Tb1915 2.324 . S
O1937 C1924 1.258 . S
O1938 Eu1916 2.500 . S
O1938 C1921 1.273 . S
O1939 Eu1916 2.473 . S
O1939 C1921 1.257 . S
H1940 C1926 0.929 . S
H1941 C1928 0.931 . S
H1942 C1930 0.929 . S
O1943 Tb1944 2.289 . S
O1943 C1946 1.255 . S
Tb1944 O1943 2.289 . S
Tb1944 O1960 2.327 1_556 S
Tb1944 O1962 2.501 1_556 S
Tb1944 O1963 2.477 1_556 S
Tb1944 O1966 2.326 1_556 S
Eu1945 O1949 2.292 . S
Eu1945 C1950 2.852 1_554 S
Eu1945 O1961 2.324 . S
Eu1945 O1965 2.326 . S
Eu1945 O1967 2.500 1_545 S
Eu1945 O1968 2.473 1_554 S
C1946 O1943 1.255 . S
C1946 O1947 1.247 . S
O1947 C1946 1.247 . S
C1948 O1960 1.242 . S
C1948 O1961 1.258 . S
O1949 Eu1945 2.292 . S
O1949 C1951 1.255 . S
C1950 Eu1945 2.852 1_556 S
C1950 C1954 1.503 1_545 S
C1950 O1967 1.273 1_546 S
C1950 O1968 1.257 . S
C1951 O1949 1.255 . S
C1951 O1952 1.247 . S
O1952 C1951 1.247 . S
C1953 O1965 1.242 . S
C1953 O1966 1.258 . S
C1954 C1950 1.503 1_565 S
C1954 C1955 1.379 1_565 S
C1954 C1959 1.392 . S
C1955 C1954 1.379 1_545 S
C1955 C1956 1.403 1_545 S
C1955 H1969 0.929 . S
C1956 C1955 1.403 1_565 S
C1956 C1957 1.391 . S
C1957 C1956 1.391 . S
C1957 C1958 1.399 . S
C1957 H1970 0.931 . S
C1958 C1957 1.399 . S
C1958 C1959 1.390 . S
C1959 C1954 1.392 . S
C1959 C1958 1.390 . S
C1959 H1971 0.929 . S
O1960 Tb1944 2.327 1_554 S
O1960 C1948 1.242 . S
O1961 Eu1945 2.324 . S
O1961 C1948 1.258 . S
O1962 Tb1944 2.501 1_554 S
O1962 C1964 1.273 . S
O1963 Tb1944 2.477 1_554 S
O1963 C1964 1.257 . S
C1964 O1962 1.273 . S
C1964 O1963 1.257 . S
O1965 Eu1945 2.326 . S
O1965 C1953 1.242 . S
O1966 Tb1944 2.326 1_554 S
O1966 C1953 1.258 . S
O1967 Eu1945 2.500 1_565 S
O1967 C1950 1.273 1_564 S
O1968 Eu1945 2.473 1_556 S
O1968 C1950 1.257 . S
H1969 C1955 0.929 . S
H1970 C1957 0.931 . S
H1971 C1959 0.929 . S
O1972 Tb1973 2.292 . S
O1972 C1975 1.255 . S
Tb1973 O1972 2.292 . S
Tb1973 O1989 2.326 . S
Tb1973 O1991 2.500 . S
Tb1973 O1992 2.473 . S
Tb1973 O1995 2.324 . S
Eu1974 O1978 2.292 . S
Eu1974 C1979 2.852 . S
Eu1974 O1990 2.324 . S
Eu1974 O1994 2.326 . S
Eu1974 O1996 2.500 . S
Eu1974 O1997 2.473 . S
C1975 O1972 1.255 . S
C1975 O1976 1.247 . S
O1976 C1975 1.247 . S
C1977 O1989 1.242 . S
C1977 O1990 1.258 . S
O1978 Eu1974 2.292 . S
O1978 C1980 1.255 . S
C1979 Eu1974 2.852 . S
C1979 C1983 1.503 . S
C1979 O1996 1.273 . S
C1979 O1997 1.257 . S
C1980 O1978 1.255 . S
C1980 O1981 1.247 . S
O1981 C1980 1.247 . S
C1982 O1994 1.242 . S
C1982 O1995 1.258 . S
C1983 C1979 1.503 . S
C1983 C1984 1.379 . S
C1983 C1988 1.392 . S
C1984 C1983 1.379 . S
C1984 C1985 1.404 . S
C1984 H1998 0.929 . S
C1985 C1984 1.404 . S
C1985 C1986 1.389 . S
C1986 C1985 1.389 . S
C1986 C1987 1.399 . S
C1986 H1999 0.931 . S
C1987 C1986 1.399 . S
C1987 C1988 1.390 . S
C1988 C1983 1.392 . S
C1988 C1987 1.390 . S
C1988 H2000 0.929 . S
O1989 Tb1973 2.326 . S
O1989 C1977 1.242 . S
O1990 Eu1974 2.324 . S
O1990 C1977 1.258 . S
O1991 Tb1973 2.500 . S
O1991 C1993 1.273 . S
O1992 Tb1973 2.473 . S
O1992 C1993 1.257 . S
C1993 O1991 1.273 . S
C1993 O1992 1.257 . S
O1994 Eu1974 2.326 . S
O1994 C1982 1.242 . S
O1995 Tb1973 2.324 . S
O1995 C1982 1.258 . S
O1996 Eu1974 2.500 . S
O1996 C1979 1.273 . S
O1997 Eu1974 2.473 . S
O1997 C1979 1.257 . S
H1998 C1984 0.929 . S
H1999 C1986 0.931 . S
H2000 C1988 0.929 . S
O2001 Tb2002 2.292 . S
O2001 C2004 1.255 . S
Tb2002 O2001 2.292 . S
Tb2002 O2018 2.326 1_554 S
Tb2002 O2020 2.500 1_554 S
Tb2002 O2021 2.473 1_554 S
Tb2002 O2024 2.324 1_554 S
Eu2003 O2007 2.292 . S
Eu2003 C2008 2.852 1_556 S
Eu2003 O2019 2.324 . S
Eu2003 O2023 2.326 . S
Eu2003 O2025 2.500 . S
Eu2003 O2026 2.473 1_556 S
C2004 O2001 1.255 . S
C2004 O2005 1.247 . S
O2005 C2004 1.247 . S
C2006 O2018 1.242 . S
C2006 O2019 1.258 . S
O2007 Eu2003 2.292 . S
O2007 C2009 1.255 . S
C2008 Eu2003 2.852 1_554 S
C2008 C2012 1.503 . S
C2008 O2025 1.273 1_554 S
C2008 O2026 1.257 . S
C2009 O2007 1.255 . S
C2009 O2010 1.247 . S
O2010 C2009 1.247 . S
C2011 O2023 1.242 . S
C2011 O2024 1.258 . S
C2012 C2008 1.503 . S
C2012 C2013 1.379 . S
C2012 C2017 1.392 . S
C2013 C2012 1.379 . S
C2013 C2014 1.404 . S
C2013 H2027 0.929 . S
C2014 C2013 1.404 . S
C2014 C2015 1.389 . S
C2015 C2014 1.389 . S
C2015 C2016 1.399 . S
C2015 H2028 0.931 . S
C2016 C2015 1.399 . S
C2016 C2017 1.390 . S
C2017 C2012 1.392 . S
C2017 C2016 1.390 . S
C2017 H2029 0.929 . S
O2018 Tb2002 2.326 1_556 S
O2018 C2006 1.242 . S
O2019 Eu2003 2.324 . S
O2019 C2006 1.258 . S
O2020 Tb2002 2.500 1_556 S
O2020 C2022 1.273 . S
O2021 Tb2002 2.473 1_556 S
O2021 C2022 1.257 . S
C2022 O2020 1.273 . S
C2022 O2021 1.257 . S
O2023 Eu2003 2.326 . S
O2023 C2011 1.242 . S
O2024 Tb2002 2.324 1_556 S
O2024 C2011 1.258 . S
O2025 Eu2003 2.500 . S
O2025 C2008 1.273 1_556 S
O2026 Eu2003 2.473 1_554 S
O2026 C2008 1.257 . S
H2027 C2013 0.929 . S
H2028 C2015 0.931 . S
H2029 C2017 0.929 . S
O2030 Tb2031 2.292 . S
O2030 C2033 1.255 . S
Tb2031 O2030 2.292 . S
Tb2031 O2047 2.326 . S
Tb2031 O2049 2.500 . S
Tb2031 O2050 2.473 . S
Tb2031 O2053 2.324 . S
Eu2032 O2036 2.292 . S
Eu2032 C2037 2.852 . S
Eu2032 O2048 2.324 . S
Eu2032 O2052 2.326 . S
Eu2032 O2054 2.500 . S
Eu2032 O2055 2.473 . S
C2033 O2030 1.255 . S
C2033 O2034 1.247 . S
O2034 C2033 1.247 . S
C2035 O2047 1.242 . S
C2035 O2048 1.258 . S
O2036 Eu2032 2.292 . S
O2036 C2038 1.255 . S
C2037 Eu2032 2.852 . S
C2037 C2041 1.503 . S
C2037 O2054 1.273 . S
C2037 O2055 1.257 . S
C2038 O2036 1.255 . S
C2038 O2039 1.247 . S
O2039 C2038 1.247 . S
C2040 O2052 1.242 . S
C2040 O2053 1.258 . S
C2041 C2037 1.503 . S
C2041 C2042 1.379 . S
C2041 C2046 1.392 . S
C2042 C2041 1.379 . S
C2042 C2043 1.404 . S
C2042 H2056 0.929 . S
C2043 C2042 1.404 . S
C2043 C2044 1.389 . S
C2044 C2043 1.389 . S
C2044 C2045 1.399 . S
C2044 H2057 0.931 . S
C2045 C2044 1.399 . S
C2045 C2046 1.390 . S
C2046 C2041 1.392 . S
C2046 C2045 1.390 . S
C2046 H2058 0.929 . S
O2047 Tb2031 2.326 . S
O2047 C2035 1.242 . S
O2048 Eu2032 2.324 . S
O2048 C2035 1.258 . S
O2049 Tb2031 2.500 . S
O2049 C2051 1.273 . S
O2050 Tb2031 2.473 . S
O2050 C2051 1.257 . S
C2051 O2049 1.273 . S
C2051 O2050 1.257 . S
O2052 Eu2032 2.326 . S
O2052 C2040 1.242 . S
O2053 Tb2031 2.324 . S
O2053 C2040 1.258 . S
O2054 Eu2032 2.500 . S
O2054 C2037 1.273 . S
O2055 Eu2032 2.473 . S
O2055 C2037 1.257 . S
H2056 C2042 0.929 . S
H2057 C2044 0.931 . S
H2058 C2046 0.929 . S
O2059 Tb2060 2.292 . S
O2059 C2062 1.255 . S
Tb2060 O2059 2.292 . S
Tb2060 O2076 2.326 . S
Tb2060 O2078 2.500 . S
Tb2060 O2079 2.473 . S
Tb2060 O2082 2.324 . S
Eu2061 O2065 2.292 . S
Eu2061 C2066 2.852 . S
Eu2061 O2077 2.324 . S
Eu2061 O2081 2.326 . S
Eu2061 O2083 2.500 . S
Eu2061 O2084 2.473 . S
C2062 O2059 1.255 . S
C2062 O2063 1.247 . S
O2063 C2062 1.247 . S
C2064 O2076 1.242 . S
C2064 O2077 1.258 . S
O2065 Eu2061 2.292 . S
O2065 C2067 1.255 . S
C2066 Eu2061 2.852 . S
C2066 C2070 1.503 . S
C2066 O2083 1.273 . S
C2066 O2084 1.257 . S
C2067 O2065 1.255 . S
C2067 O2068 1.247 . S
O2068 C2067 1.247 . S
C2069 O2081 1.242 . S
C2069 O2082 1.258 . S
C2070 C2066 1.503 . S
C2070 C2071 1.379 . S
C2070 C2075 1.392 . S
C2071 C2070 1.379 . S
C2071 C2072 1.404 . S
C2071 H2085 0.929 . S
C2072 C2071 1.404 . S
C2072 C2073 1.389 . S
C2073 C2072 1.389 . S
C2073 C2074 1.399 . S
C2073 H2086 0.931 . S
C2074 C2073 1.399 . S
C2074 C2075 1.390 . S
C2075 C2070 1.392 . S
C2075 C2074 1.390 . S
C2075 H2087 0.929 . S
O2076 Tb2060 2.326 . S
O2076 C2064 1.242 . S
O2077 Eu2061 2.324 . S
O2077 C2064 1.258 . S
O2078 Tb2060 2.500 . S
O2078 C2080 1.273 . S
O2079 Tb2060 2.473 . S
O2079 C2080 1.257 . S
C2080 O2078 1.273 . S
C2080 O2079 1.257 . S
O2081 Eu2061 2.326 . S
O2081 C2069 1.242 . S
O2082 Tb2060 2.324 . S
O2082 C2069 1.258 . S
O2083 Eu2061 2.500 . S
O2083 C2066 1.273 . S
O2084 Eu2061 2.473 . S
O2084 C2066 1.257 . S
H2085 C2071 0.929 . S
H2086 C2073 0.931 . S
H2087 C2075 0.929 . S
O2088 Tb2089 2.292 . S
O2088 C2091 1.255 . S
Tb2089 O2088 2.292 . S
Tb2089 O2105 2.326 . S
Tb2089 O2107 2.500 . S
Tb2089 O2108 2.473 . S
Tb2089 O2111 2.324 . S
Eu2090 O2094 2.292 . S
Eu2090 C2095 2.852 . S
Eu2090 O2106 2.324 . S
Eu2090 O2110 2.326 . S
Eu2090 O2112 2.500 . S
Eu2090 O2113 2.473 . S
C2091 O2088 1.255 . S
C2091 O2092 1.247 . S
O2092 C2091 1.247 . S
C2093 O2105 1.242 . S
C2093 O2106 1.258 . S
O2094 Eu2090 2.292 . S
O2094 C2096 1.255 . S
C2095 Eu2090 2.852 . S
C2095 C2099 1.503 . S
C2095 O2112 1.273 . S
C2095 O2113 1.257 . S
C2096 O2094 1.255 . S
C2096 O2097 1.247 . S
O2097 C2096 1.247 . S
C2098 O2110 1.242 . S
C2098 O2111 1.258 . S
C2099 C2095 1.503 . S
C2099 C2100 1.379 . S
C2099 C2104 1.392 . S
C2100 C2099 1.379 . S
C2100 C2101 1.404 . S
C2100 H2114 0.929 . S
C2101 C2100 1.404 . S
C2101 C2102 1.389 . S
C2102 C2101 1.389 . S
C2102 C2103 1.399 . S
C2102 H2115 0.931 . S
C2103 C2102 1.399 . S
C2103 C2104 1.390 . S
C2104 C2099 1.392 . S
C2104 C2103 1.390 . S
C2104 H2116 0.929 . S
O2105 Tb2089 2.326 . S
O2105 C2093 1.242 . S
O2106 Eu2090 2.324 . S
O2106 C2093 1.258 . S
O2107 Tb2089 2.500 . S
O2107 C2109 1.273 . S
O2108 Tb2089 2.473 . S
O2108 C2109 1.257 . S
C2109 O2107 1.273 . S
C2109 O2108 1.257 . S
O2110 Eu2090 2.326 . S
O2110 C2098 1.242 . S
O2111 Tb2089 2.324 . S
O2111 C2098 1.258 . S
O2112 Eu2090 2.500 . S
O2112 C2095 1.273 . S
O2113 Eu2090 2.473 . S
O2113 C2095 1.257 . S
H2114 C2100 0.929 . S
H2115 C2102 0.931 . S
H2116 C2104 0.929 . S
O2117 Tb2118 2.292 . S
O2117 C2120 1.255 . S
Tb2118 O2117 2.292 . S
Tb2118 O2134 2.326 . S
Tb2118 O2136 2.500 . S
Tb2118 O2137 2.473 . S
Tb2118 O2140 2.324 . S
Eu2119 O2123 2.292 . S
Eu2119 C2124 2.852 . S
Eu2119 O2135 2.324 . S
Eu2119 O2139 2.326 . S
Eu2119 O2141 2.500 . S
Eu2119 O2142 2.473 . S
C2120 O2117 1.255 . S
C2120 O2121 1.247 . S
O2121 C2120 1.247 . S
C2122 O2134 1.242 . S
C2122 O2135 1.258 . S
O2123 Eu2119 2.292 . S
O2123 C2125 1.255 . S
C2124 Eu2119 2.852 . S
C2124 C2128 1.503 . S
C2124 O2141 1.273 . S
C2124 O2142 1.257 . S
C2125 O2123 1.255 . S
C2125 O2126 1.247 . S
O2126 C2125 1.247 . S
C2127 O2139 1.242 . S
C2127 O2140 1.258 . S
C2128 C2124 1.503 . S
C2128 C2129 1.379 . S
C2128 C2133 1.392 . S
C2129 C2128 1.379 . S
C2129 C2130 1.404 . S
C2129 H2143 0.929 . S
C2130 C2129 1.404 . S
C2130 C2131 1.389 . S
C2131 C2130 1.389 . S
C2131 C2132 1.399 . S
C2131 H2144 0.931 . S
C2132 C2131 1.399 . S
C2132 C2133 1.390 . S
C2133 C2128 1.392 . S
C2133 C2132 1.390 . S
C2133 H2145 0.929 . S
O2134 Tb2118 2.326 . S
O2134 C2122 1.242 . S
O2135 Eu2119 2.324 . S
O2135 C2122 1.258 . S
O2136 Tb2118 2.500 . S
O2136 C2138 1.273 . S
O2137 Tb2118 2.473 . S
O2137 C2138 1.257 . S
C2138 O2136 1.273 . S
C2138 O2137 1.257 . S
O2139 Eu2119 2.326 . S
O2139 C2127 1.242 . S
O2140 Tb2118 2.324 . S
O2140 C2127 1.258 . S
O2141 Eu2119 2.500 . S
O2141 C2124 1.273 . S
O2142 Eu2119 2.473 . S
O2142 C2124 1.257 . S
H2143 C2129 0.929 . S
H2144 C2131 0.931 . S
H2145 C2133 0.929 . S
O2146 Tb2147 2.292 . S
O2146 C2149 1.255 . S
Tb2147 O2146 2.292 . S
Tb2147 O2163 2.326 1_455 S
Tb2147 O2165 2.500 1_455 S
Tb2147 O2166 2.473 1_455 S
Tb2147 O2169 2.324 1_455 S
Eu2148 O2152 2.292 . S
Eu2148 C2153 2.864 1_655 S
Eu2148 O2164 2.324 . S
Eu2148 O2168 2.326 . S
Eu2148 O2170 2.500 1_556 S
Eu2148 O2171 2.473 1_655 S
C2149 O2146 1.255 . S
C2149 O2150 1.247 . S
O2150 C2149 1.247 . S
C2151 O2163 1.242 . S
C2151 O2164 1.258 . S
O2152 Eu2148 2.292 . S
O2152 C2154 1.255 . S
C2153 Eu2148 2.864 1_455 S
C2153 C2157 1.497 1_556 S
C2153 O2170 1.264 1_456 S
C2153 O2171 1.274 . S
C2154 O2152 1.255 . S
C2154 O2155 1.247 . S
O2155 C2154 1.247 . S
C2156 O2168 1.242 . S
C2156 O2169 1.258 . S
C2157 C2153 1.497 1_554 S
C2157 C2158 1.379 1_554 S
C2157 C2162 1.392 . S
C2158 C2157 1.379 1_556 S
C2158 C2159 1.404 1_556 S
C2158 H2172 0.929 . S
C2159 C2158 1.404 1_554 S
C2159 C2160 1.389 . S
C2160 C2159 1.389 . S
C2160 C2161 1.399 . S
C2160 H2173 0.931 . S
C2161 C2160 1.399 . S
C2161 C2162 1.390 . S
C2162 C2157 1.392 . S
C2162 C2161 1.390 . S
C2162 H2174 0.929 . S
O2163 Tb2147 2.326 1_655 S
O2163 C2151 1.242 . S
O2164 Eu2148 2.324 . S
O2164 C2151 1.258 . S
O2165 Tb2147 2.500 1_655 S
O2165 C2167 1.273 . S
O2166 Tb2147 2.473 1_655 S
O2166 C2167 1.257 . S
C2167 O2165 1.273 . S
C2167 O2166 1.257 . S
O2168 Eu2148 2.326 . S
O2168 C2156 1.242 . S
O2169 Tb2147 2.324 1_655 S
O2169 C2156 1.258 . S
O2170 Eu2148 2.500 1_554 S
O2170 C2153 1.264 1_654 S
O2171 Eu2148 2.473 1_455 S
O2171 C2153 1.274 . S
H2172 C2158 0.929 . S
H2173 C2160 0.931 . S
H2174 C2162 0.929 . S
O2175 Tb2176 2.292 . S
O2175 C2178 1.255 . S
Tb2176 O2175 2.292 . S
Tb2176 O2192 2.326 . S
Tb2176 O2194 2.500 . S
Tb2176 O2195 2.473 . S
Tb2176 O2198 2.324 . S
Eu2177 O2181 2.292 . S
Eu2177 C2182 2.852 . S
Eu2177 O2193 2.324 . S
Eu2177 O2197 2.326 . S
Eu2177 O2199 2.500 . S
Eu2177 O2200 2.473 . S
C2178 O2175 1.255 . S
C2178 O2179 1.247 . S
O2179 C2178 1.247 . S
C2180 O2192 1.242 . S
C2180 O2193 1.258 . S
O2181 Eu2177 2.292 . S
O2181 C2183 1.255 . S
C2182 Eu2177 2.852 . S
C2182 C2186 1.503 . S
C2182 O2199 1.273 . S
C2182 O2200 1.257 . S
C2183 O2181 1.255 . S
C2183 O2184 1.247 . S
O2184 C2183 1.247 . S
C2185 O2197 1.242 . S
C2185 O2198 1.258 . S
C2186 C2182 1.503 . S
C2186 C2187 1.379 . S
C2186 C2191 1.392 . S
C2187 C2186 1.379 . S
C2187 C2188 1.404 . S
C2187 H2201 0.929 . S
C2188 C2187 1.404 . S
C2188 C2189 1.389 . S
C2189 C2188 1.389 . S
C2189 C2190 1.399 . S
C2189 H2202 0.931 . S
C2190 C2189 1.399 . S
C2190 C2191 1.390 . S
C2191 C2186 1.392 . S
C2191 C2190 1.390 . S
C2191 H2203 0.929 . S
O2192 Tb2176 2.326 . S
O2192 C2180 1.242 . S
O2193 Eu2177 2.324 . S
O2193 C2180 1.258 . S
O2194 Tb2176 2.500 . S
O2194 C2196 1.273 . S
O2195 Tb2176 2.473 . S
O2195 C2196 1.257 . S
C2196 O2194 1.273 . S
C2196 O2195 1.257 . S
O2197 Eu2177 2.326 . S
O2197 C2185 1.242 . S
O2198 Tb2176 2.324 . S
O2198 C2185 1.258 . S
O2199 Eu2177 2.500 . S
O2199 C2182 1.273 . S
O2200 Eu2177 2.473 . S
O2200 C2182 1.257 . S
H2201 C2187 0.929 . S
H2202 C2189 0.931 . S
H2203 C2191 0.929 . S
O2204 Tb2205 2.292 . S
O2204 C2207 1.255 . S
Tb2205 O2204 2.292 . S
Tb2205 O2221 2.326 . S
Tb2205 O2223 2.500 . S
Tb2205 O2224 2.473 . S
Tb2205 O2227 2.324 . S
Eu2206 O2210 2.292 . S
Eu2206 C2211 2.852 1_554 S
Eu2206 O2222 2.324 . S
Eu2206 O2226 2.326 . S
Eu2206 O2228 2.500 1_554 S
Eu2206 O2229 2.473 . S
C2207 O2204 1.255 . S
C2207 O2208 1.247 . S
O2208 C2207 1.247 . S
C2209 O2221 1.242 . S
C2209 O2222 1.258 . S
O2210 Eu2206 2.292 . S
O2210 C2212 1.255 . S
C2211 Eu2206 2.852 1_556 S
C2211 C2215 1.503 . S
C2211 O2228 1.273 . S
C2211 O2229 1.257 1_556 S
C2212 O2210 1.255 . S
C2212 O2213 1.247 . S
O2213 C2212 1.247 . S
C2214 O2226 1.242 . S
C2214 O2227 1.258 . S
C2215 C2211 1.503 . S
C2215 C2216 1.379 . S
C2215 C2220 1.392 . S
C2216 C2215 1.379 . S
C2216 C2217 1.404 . S
C2216 H2230 0.929 1_556 S
C2217 C2216 1.404 . S
C2217 C2218 1.389 . S
C2218 C2217 1.389 . S
C2218 C2219 1.399 . S
C2218 H2231 0.931 . S
C2219 C2218 1.399 . S
C2219 C2220 1.390 . S
C2220 C2215 1.392 . S
C2220 C2219 1.390 . S
C2220 H2232 0.929 . S
O2221 Tb2205 2.326 . S
O2221 C2209 1.242 . S
O2222 Eu2206 2.324 . S
O2222 C2209 1.258 . S
O2223 Tb2205 2.500 . S
O2223 C2225 1.273 . S
O2224 Tb2205 2.473 . S
O2224 C2225 1.257 . S
C2225 O2223 1.273 . S
C2225 O2224 1.257 . S
O2226 Eu2206 2.326 . S
O2226 C2214 1.242 . S
O2227 Tb2205 2.324 . S
O2227 C2214 1.258 . S
O2228 Eu2206 2.500 1_556 S
O2228 C2211 1.273 . S
O2229 Eu2206 2.473 . S
O2229 C2211 1.257 1_554 S
H2230 C2216 0.929 1_554 S
H2231 C2218 0.931 . S
H2232 C2220 0.929 . S
O2233 Tb2234 2.292 . S
O2233 C2236 1.255 . S
Tb2234 O2233 2.292 . S
Tb2234 O2250 2.326 . S
Tb2234 O2252 2.500 . S
Tb2234 O2253 2.473 . S
Tb2234 O2256 2.324 . S
Eu2235 O2239 2.292 . S
Eu2235 C2240 2.852 . S
Eu2235 O2251 2.324 . S
Eu2235 O2255 2.326 . S
Eu2235 O2257 2.500 . S
Eu2235 O2258 2.473 . S
C2236 O2233 1.255 . S
C2236 O2237 1.247 . S
O2237 C2236 1.247 . S
C2238 O2250 1.242 . S
C2238 O2251 1.258 . S
O2239 Eu2235 2.292 . S
O2239 C2241 1.255 . S
C2240 Eu2235 2.852 . S
C2240 C2244 1.503 . S
C2240 O2257 1.273 . S
C2240 O2258 1.257 . S
C2241 O2239 1.255 . S
C2241 O2242 1.247 . S
O2242 C2241 1.247 . S
C2243 O2255 1.242 . S
C2243 O2256 1.258 . S
C2244 C2240 1.503 . S
C2244 C2245 1.379 . S
C2244 C2249 1.392 . S
C2245 C2244 1.379 . S
C2245 C2246 1.404 . S
C2245 H2259 0.929 . S
C2246 C2245 1.404 . S
C2246 C2247 1.389 . S
C2247 C2246 1.389 . S
C2247 C2248 1.399 . S
C2247 H2260 0.931 . S
C2248 C2247 1.399 . S
C2248 C2249 1.390 . S
C2249 C2244 1.392 . S
C2249 C2248 1.390 . S
C2249 H2261 0.929 . S
O2250 Tb2234 2.326 . S
O2250 C2238 1.242 . S
O2251 Eu2235 2.324 . S
O2251 C2238 1.258 . S
O2252 Tb2234 2.500 . S
O2252 C2254 1.273 . S
O2253 Tb2234 2.473 . S
O2253 C2254 1.257 . S
C2254 O2252 1.273 . S
C2254 O2253 1.257 . S
O2255 Eu2235 2.326 . S
O2255 C2243 1.242 . S
O2256 Tb2234 2.324 . S
O2256 C2243 1.258 . S
O2257 Eu2235 2.500 . S
O2257 C2240 1.273 . S
O2258 Eu2235 2.473 . S
O2258 C2240 1.257 . S
H2259 C2245 0.929 . S
H2260 C2247 0.931 . S
H2261 C2249 0.929 . S
O2262 Tb2263 2.292 . S
O2262 C2265 1.255 . S
Tb2263 O2262 2.292 . S
Tb2263 O2279 2.326 1_455 S
Tb2263 O2281 2.500 1_455 S
Tb2263 O2282 2.473 1_455 S
Tb2263 O2285 2.324 1_455 S
Eu2264 O2268 2.292 . S
Eu2264 C2269 2.852 1_655 S
Eu2264 O2280 2.324 . S
Eu2264 O2284 2.326 . S
Eu2264 O2286 2.500 . S
Eu2264 O2287 2.473 1_655 S
C2265 O2262 1.255 . S
C2265 O2266 1.247 . S
O2266 C2265 1.247 . S
C2267 O2279 1.242 . S
C2267 O2280 1.258 . S
O2268 Eu2264 2.292 . S
O2268 C2270 1.255 . S
C2269 Eu2264 2.852 1_455 S
C2269 C2273 1.503 . S
C2269 O2286 1.273 1_455 S
C2269 O2287 1.257 . S
C2270 O2268 1.255 . S
C2270 O2271 1.247 . S
O2271 C2270 1.247 . S
C2272 O2284 1.242 . S
C2272 O2285 1.258 . S
C2273 C2269 1.503 . S
C2273 C2274 1.379 . S
C2273 C2278 1.392 . S
C2274 C2273 1.379 . S
C2274 C2275 1.404 . S
C2274 H2288 0.929 . S
C2275 C2274 1.404 . S
C2275 C2276 1.389 . S
C2276 C2275 1.389 . S
C2276 C2277 1.399 . S
C2276 H2289 0.931 . S
C2277 C2276 1.399 . S
C2277 C2278 1.390 . S
C2278 C2273 1.392 . S
C2278 C2277 1.390 . S
C2278 H2290 0.929 . S
O2279 Tb2263 2.326 1_655 S
O2279 C2267 1.242 . S
O2280 Eu2264 2.324 . S
O2280 C2267 1.258 . S
O2281 Tb2263 2.500 1_655 S
O2281 C2283 1.273 . S
O2282 Tb2263 2.473 1_655 S
O2282 C2283 1.257 . S
C2283 O2281 1.273 . S
C2283 O2282 1.257 . S
O2284 Eu2264 2.326 . S
O2284 C2272 1.242 . S
O2285 Tb2263 2.324 1_655 S
O2285 C2272 1.258 . S
O2286 Eu2264 2.500 . S
O2286 C2269 1.273 1_655 S
O2287 Eu2264 2.473 1_455 S
O2287 C2269 1.257 . S
H2288 C2274 0.929 . S
H2289 C2276 0.931 . S
H2290 C2278 0.929 . S
O2291 Tb2292 2.292 . S
O2291 C2294 1.255 . S
Tb2292 O2291 2.292 . S
Tb2292 O2308 2.326 . S
Tb2292 O2310 2.500 . S
Tb2292 O2311 2.473 . S
Tb2292 O2314 2.324 . S
Eu2293 O2297 2.292 . S
Eu2293 C2298 2.852 . S
Eu2293 O2309 2.324 . S
Eu2293 O2313 2.326 . S
Eu2293 O2315 2.500 . S
Eu2293 O2316 2.473 . S
C2294 O2291 1.255 . S
C2294 O2295 1.247 . S
O2295 C2294 1.247 . S
C2296 O2308 1.242 . S
C2296 O2309 1.258 . S
O2297 Eu2293 2.292 . S
O2297 C2299 1.255 . S
C2298 Eu2293 2.852 . S
C2298 C2302 1.503 . S
C2298 O2315 1.273 . S
C2298 O2316 1.257 . S
C2299 O2297 1.255 . S
C2299 O2300 1.247 . S
O2300 C2299 1.247 . S
C2301 O2313 1.242 . S
C2301 O2314 1.258 . S
C2302 C2298 1.503 . S
C2302 C2303 1.379 . S
C2302 C2307 1.392 . S
C2303 C2302 1.379 . S
C2303 C2304 1.404 . S
C2303 H2317 0.929 . S
C2304 C2303 1.404 . S
C2304 C2305 1.389 . S
C2305 C2304 1.389 . S
C2305 C2306 1.399 . S
C2305 H2318 0.931 . S
C2306 C2305 1.399 . S
C2306 C2307 1.390 . S
C2307 C2302 1.392 . S
C2307 C2306 1.390 . S
C2307 H2319 0.929 . S
O2308 Tb2292 2.326 . S
O2308 C2296 1.242 . S
O2309 Eu2293 2.324 . S
O2309 C2296 1.258 . S
O2310 Tb2292 2.500 . S
O2310 C2312 1.273 . S
O2311 Tb2292 2.473 . S
O2311 C2312 1.257 . S
C2312 O2310 1.273 . S
C2312 O2311 1.257 . S
O2313 Eu2293 2.326 . S
O2313 C2301 1.242 . S
O2314 Tb2292 2.324 . S
O2314 C2301 1.258 . S
O2315 Eu2293 2.500 . S
O2315 C2298 1.273 . S
O2316 Eu2293 2.473 . S
O2316 C2298 1.257 . S
H2317 C2303 0.929 . S
H2318 C2305 0.931 . S
H2319 C2307 0.929 . S
O2320 Tb2321 2.292 . S
O2320 C2323 1.255 . S
Tb2321 O2320 2.292 . S
Tb2321 O2337 2.326 . S
Tb2321 O2339 2.500 . S
Tb2321 O2340 2.473 . S
Tb2321 O2343 2.324 . S
Eu2322 O2326 2.292 . S
Eu2322 C2327 2.852 . S
Eu2322 O2338 2.324 . S
Eu2322 O2342 2.326 . S
Eu2322 O2344 2.500 . S
Eu2322 O2345 2.473 . S
C2323 O2320 1.255 . S
C2323 O2324 1.247 . S
O2324 C2323 1.247 . S
C2325 O2337 1.242 . S
C2325 O2338 1.258 . S
O2326 Eu2322 2.292 . S
O2326 C2328 1.255 . S
C2327 Eu2322 2.852 . S
C2327 C2331 1.503 . S
C2327 O2344 1.273 . S
C2327 O2345 1.257 . S
C2328 O2326 1.255 . S
C2328 O2329 1.247 . S
O2329 C2328 1.247 . S
C2330 O2342 1.242 . S
C2330 O2343 1.258 . S
C2331 C2327 1.503 . S
C2331 C2332 1.379 . S
C2331 C2336 1.392 . S
C2332 C2331 1.379 . S
C2332 C2333 1.404 . S
C2332 H2346 0.929 . S
C2333 C2332 1.404 . S
C2333 C2334 1.389 . S
C2334 C2333 1.389 . S
C2334 C2335 1.399 . S
C2334 H2347 0.931 . S
C2335 C2334 1.399 . S
C2335 C2336 1.390 . S
C2336 C2331 1.392 . S
C2336 C2335 1.390 . S
C2336 H2348 0.929 . S
O2337 Tb2321 2.326 . S
O2337 C2325 1.242 . S
O2338 Eu2322 2.324 . S
O2338 C2325 1.258 . S
O2339 Tb2321 2.500 . S
O2339 C2341 1.273 . S
O2340 Tb2321 2.473 . S
O2340 C2341 1.257 . S
C2341 O2339 1.273 . S
C2341 O2340 1.257 . S
O2342 Eu2322 2.326 . S
O2342 C2330 1.242 . S
O2343 Tb2321 2.324 . S
O2343 C2330 1.258 . S
O2344 Eu2322 2.500 . S
O2344 C2327 1.273 . S
O2345 Eu2322 2.473 . S
O2345 C2327 1.257 . S
H2346 C2332 0.929 . S
H2347 C2334 0.931 . S
H2348 C2336 0.929 . S
O2349 Tb2350 2.292 . S
O2349 C2352 1.255 . S
Tb2350 O2349 2.292 . S
Tb2350 O2366 2.326 . S
Tb2350 O2368 2.500 . S
Tb2350 O2369 2.473 . S
Tb2350 O2372 2.324 . S
Eu2351 O2355 2.292 . S
Eu2351 C2356 2.852 . S
Eu2351 O2367 2.324 . S
Eu2351 O2371 2.326 . S
Eu2351 O2373 2.500 . S
Eu2351 O2374 2.473 . S
C2352 O2349 1.255 . S
C2352 O2353 1.247 . S
O2353 C2352 1.247 . S
C2354 O2366 1.242 . S
C2354 O2367 1.258 . S
O2355 Eu2351 2.292 . S
O2355 C2357 1.255 . S
C2356 Eu2351 2.852 . S
C2356 C2360 1.503 . S
C2356 O2373 1.273 . S
C2356 O2374 1.257 . S
C2357 O2355 1.255 . S
C2357 O2358 1.247 . S
O2358 C2357 1.247 . S
C2359 O2371 1.242 . S
C2359 O2372 1.258 . S
C2360 C2356 1.503 . S
C2360 C2361 1.379 . S
C2360 C2365 1.392 . S
C2361 C2360 1.379 . S
C2361 C2362 1.404 . S
C2361 H2375 0.929 . S
C2362 C2361 1.404 . S
C2362 C2363 1.389 . S
C2363 C2362 1.389 . S
C2363 C2364 1.399 . S
C2363 H2376 0.931 . S
C2364 C2363 1.399 . S
C2364 C2365 1.390 . S
C2365 C2360 1.392 . S
C2365 C2364 1.390 . S
C2365 H2377 0.929 . S
O2366 Tb2350 2.326 . S
O2366 C2354 1.242 . S
O2367 Eu2351 2.324 . S
O2367 C2354 1.258 . S
O2368 Tb2350 2.500 . S
O2368 C2370 1.273 . S
O2369 Tb2350 2.473 . S
O2369 C2370 1.257 . S
C2370 O2368 1.273 . S
C2370 O2369 1.257 . S
O2371 Eu2351 2.326 . S
O2371 C2359 1.242 . S
O2372 Tb2350 2.324 . S
O2372 C2359 1.258 . S
O2373 Eu2351 2.500 . S
O2373 C2356 1.273 . S
O2374 Eu2351 2.473 . S
O2374 C2356 1.257 . S
H2375 C2361 0.929 . S
H2376 C2363 0.931 . S
H2377 C2365 0.929 . S
O2378 Tb2379 2.292 . S
O2378 C2381 1.255 . S
Tb2379 O2378 2.292 . S
Tb2379 O2395 2.326 . S
Tb2379 O2397 2.500 . S
Tb2379 O2398 2.473 . S
Tb2379 O2401 2.324 . S
Eu2380 O2384 2.292 . S
Eu2380 C2385 2.852 1_455 S
Eu2380 O2396 2.324 . S
Eu2380 O2400 2.326 . S
Eu2380 O2402 2.500 1_455 S
Eu2380 O2403 2.473 . S
C2381 O2378 1.255 . S
C2381 O2382 1.247 . S
O2382 C2381 1.247 . S
C2383 O2395 1.242 . S
C2383 O2396 1.258 . S
O2384 Eu2380 2.292 . S
O2384 C2386 1.255 . S
C2385 Eu2380 2.852 1_655 S
C2385 C2389 1.503 . S
C2385 O2402 1.273 . S
C2385 O2403 1.257 1_655 S
C2386 O2384 1.255 . S
C2386 O2387 1.247 . S
O2387 C2386 1.247 . S
C2388 O2400 1.242 . S
C2388 O2401 1.258 . S
C2389 C2385 1.503 . S
C2389 C2390 1.390 . S
C2389 C2394 1.392 . S
C2390 C2389 1.390 . S
C2390 C2391 1.411 . S
C2390 H2404 0.913 1_655 S
C2391 C2390 1.411 . S
C2391 C2392 1.389 . S
C2392 C2391 1.389 . S
C2392 C2393 1.399 . S
C2392 H2405 0.931 . S
C2393 C2392 1.399 . S
C2393 C2394 1.390 . S
C2394 C2389 1.392 . S
C2394 C2393 1.390 . S
C2394 H2406 0.929 . S
O2395 Tb2379 2.326 . S
O2395 C2383 1.242 . S
O2396 Eu2380 2.324 . S
O2396 C2383 1.258 . S
O2397 Tb2379 2.500 . S
O2397 C2399 1.273 . S
O2398 Tb2379 2.473 . S
O2398 C2399 1.257 . S
C2399 O2397 1.273 . S
C2399 O2398 1.257 . S
O2400 Eu2380 2.326 . S
O2400 C2388 1.242 . S
O2401 Tb2379 2.324 . S
O2401 C2388 1.258 . S
O2402 Eu2380 2.500 1_655 S
O2402 C2385 1.273 . S
O2403 Eu2380 2.473 . S
O2403 C2385 1.257 1_455 S
H2404 C2390 0.913 1_455 S
H2405 C2392 0.931 . S
H2406 C2394 0.929 . S
O2407 Tb2408 2.292 . S
O2407 C2410 1.255 . S
Tb2408 O2407 2.292 . S
Tb2408 O2424 2.326 . S
Tb2408 O2426 2.500 . S
Tb2408 O2427 2.473 . S
Tb2408 O2430 2.324 . S
Eu2409 O2413 2.292 . S
Eu2409 C2414 2.852 . S
Eu2409 O2425 2.324 . S
Eu2409 O2429 2.326 . S
Eu2409 O2431 2.500 . S
Eu2409 O2432 2.473 . S
C2410 O2407 1.255 . S
C2410 O2411 1.247 . S
O2411 C2410 1.247 . S
C2412 O2424 1.242 . S
C2412 O2425 1.258 . S
O2413 Eu2409 2.292 . S
O2413 C2415 1.255 . S
C2414 Eu2409 2.852 . S
C2414 C2418 1.503 . S
C2414 O2431 1.273 . S
C2414 O2432 1.257 . S
C2415 O2413 1.255 . S
C2415 O2416 1.247 . S
O2416 C2415 1.247 . S
C2417 O2429 1.242 . S
C2417 O2430 1.258 . S
C2418 C2414 1.503 . S
C2418 C2419 1.379 . S
C2418 C2423 1.392 . S
C2419 C2418 1.379 . S
C2419 C2420 1.404 . S
C2419 H2433 0.929 . S
C2420 C2419 1.404 . S
C2420 C2421 1.389 . S
C2421 C2420 1.389 . S
C2421 C2422 1.399 . S
C2421 H2434 0.931 . S
C2422 C2421 1.399 . S
C2422 C2423 1.390 . S
C2423 C2418 1.392 . S
C2423 C2422 1.390 . S
C2423 H2435 0.929 . S
O2424 Tb2408 2.326 . S
O2424 C2412 1.242 . S
O2425 Eu2409 2.324 . S
O2425 C2412 1.258 . S
O2426 Tb2408 2.500 . S
O2426 C2428 1.273 . S
O2427 Tb2408 2.473 . S
O2427 C2428 1.257 . S
C2428 O2426 1.273 . S
C2428 O2427 1.257 . S
O2429 Eu2409 2.326 . S
O2429 C2417 1.242 . S
O2430 Tb2408 2.324 . S
O2430 C2417 1.258 . S
O2431 Eu2409 2.500 . S
O2431 C2414 1.273 . S
O2432 Eu2409 2.473 . S
O2432 C2414 1.257 . S
H2433 C2419 0.929 . S
H2434 C2421 0.931 . S
H2435 C2423 0.929 . S
O2436 Tb2437 2.292 . S
O2436 C2439 1.255 . S
Tb2437 O2436 2.292 . S
Tb2437 O2453 2.326 . S
Tb2437 O2455 2.500 . S
Tb2437 O2456 2.473 . S
Tb2437 O2459 2.324 . S
Eu2438 O2442 2.292 . S
Eu2438 C2443 2.852 . S
Eu2438 O2454 2.324 . S
Eu2438 O2458 2.326 . S
Eu2438 O2460 2.500 . S
Eu2438 O2461 2.473 . S
C2439 O2436 1.255 . S
C2439 O2440 1.247 . S
O2440 C2439 1.247 . S
C2441 O2453 1.242 . S
C2441 O2454 1.258 . S
O2442 Eu2438 2.292 . S
O2442 C2444 1.255 . S
C2443 Eu2438 2.852 . S
C2443 C2447 1.503 . S
C2443 O2460 1.273 . S
C2443 O2461 1.257 . S
C2444 O2442 1.255 . S
C2444 O2445 1.247 . S
O2445 C2444 1.247 . S
C2446 O2458 1.242 . S
C2446 O2459 1.258 . S
C2447 C2443 1.503 . S
C2447 C2448 1.379 . S
C2447 C2452 1.392 . S
C2448 C2447 1.379 . S
C2448 C2449 1.404 . S
C2448 H2462 0.929 . S
C2449 C2448 1.404 . S
C2449 C2450 1.389 . S
C2450 C2449 1.389 . S
C2450 C2451 1.399 . S
C2450 H2463 0.931 . S
C2451 C2450 1.399 . S
C2451 C2452 1.390 . S
C2452 C2447 1.392 . S
C2452 C2451 1.390 . S
C2452 H2464 0.929 . S
O2453 Tb2437 2.326 . S
O2453 C2441 1.242 . S
O2454 Eu2438 2.324 . S
O2454 C2441 1.258 . S
O2455 Tb2437 2.500 . S
O2455 C2457 1.273 . S
O2456 Tb2437 2.473 . S
O2456 C2457 1.257 . S
C2457 O2455 1.273 . S
C2457 O2456 1.257 . S
O2458 Eu2438 2.326 . S
O2458 C2446 1.242 . S
O2459 Tb2437 2.324 . S
O2459 C2446 1.258 . S
O2460 Eu2438 2.500 . S
O2460 C2443 1.273 . S
O2461 Eu2438 2.473 . S
O2461 C2443 1.257 . S
H2462 C2448 0.929 . S
H2463 C2450 0.931 . S
H2464 C2452 0.929 . S
O2465 Tb2466 2.292 . S
O2465 C2468 1.255 . S
Tb2466 O2465 2.292 . S
Tb2466 O2482 2.326 . S
Tb2466 O2484 2.500 . S
Tb2466 O2485 2.473 . S
Tb2466 O2488 2.324 . S
Eu2467 O2471 2.292 . S
Eu2467 C2472 2.852 . S
Eu2467 O2483 2.324 . S
Eu2467 O2487 2.326 . S
Eu2467 O2489 2.500 . S
Eu2467 O2490 2.473 . S
C2468 O2465 1.255 . S
C2468 O2469 1.247 . S
O2469 C2468 1.247 . S
C2470 O2482 1.242 . S
C2470 O2483 1.258 . S
O2471 Eu2467 2.292 . S
O2471 C2473 1.255 . S
C2472 Eu2467 2.852 . S
C2472 C2476 1.503 . S
C2472 O2489 1.273 . S
C2472 O2490 1.257 . S
C2473 O2471 1.255 . S
C2473 O2474 1.247 . S
O2474 C2473 1.247 . S
C2475 O2487 1.242 . S
C2475 O2488 1.258 . S
C2476 C2472 1.503 . S
C2476 C2477 1.379 . S
C2476 C2481 1.392 . S
C2477 C2476 1.379 . S
C2477 C2478 1.404 . S
C2477 H2491 0.929 . S
C2478 C2477 1.404 . S
C2478 C2479 1.389 . S
C2479 C2478 1.389 . S
C2479 C2480 1.399 . S
C2479 H2492 0.931 . S
C2480 C2479 1.399 . S
C2480 C2481 1.390 . S
C2481 C2476 1.392 . S
C2481 C2480 1.390 . S
C2481 H2493 0.929 . S
O2482 Tb2466 2.326 . S
O2482 C2470 1.242 . S
O2483 Eu2467 2.324 . S
O2483 C2470 1.258 . S
O2484 Tb2466 2.500 . S
O2484 C2486 1.273 . S
O2485 Tb2466 2.473 . S
O2485 C2486 1.257 . S
C2486 O2484 1.273 . S
C2486 O2485 1.257 . S
O2487 Eu2467 2.326 . S
O2487 C2475 1.242 . S
O2488 Tb2466 2.324 . S
O2488 C2475 1.258 . S
O2489 Eu2467 2.500 . S
O2489 C2472 1.273 . S
O2490 Eu2467 2.473 . S
O2490 C2472 1.257 . S
H2491 C2477 0.929 . S
H2492 C2479 0.931 . S
H2493 C2481 0.929 . S
O2494 Tb2495 2.292 . S
O2494 C2497 1.255 . S
Tb2495 O2494 2.292 . S
Tb2495 O2511 2.326 . S
Tb2495 O2513 2.500 . S
Tb2495 O2514 2.473 . S
Tb2495 O2517 2.324 . S
Eu2496 O2500 2.292 . S
Eu2496 C2501 2.852 1_455 S
Eu2496 O2512 2.324 . S
Eu2496 O2516 2.326 . S
Eu2496 O2518 2.500 1_455 S
Eu2496 O2519 2.473 . S
C2497 O2494 1.255 . S
C2497 O2498 1.247 . S
O2498 C2497 1.247 . S
C2499 O2511 1.242 . S
C2499 O2512 1.258 . S
O2500 Eu2496 2.292 . S
O2500 C2502 1.255 . S
C2501 Eu2496 2.852 1_655 S
C2501 C2505 1.503 . S
C2501 O2518 1.273 . S
C2501 O2519 1.257 1_655 S
C2502 O2500 1.255 . S
C2502 O2503 1.247 . S
O2503 C2502 1.247 . S
C2504 O2516 1.242 . S
C2504 O2517 1.258 . S
C2505 C2501 1.503 . S
C2505 C2506 1.390 . S
C2505 C2510 1.392 . S
C2506 C2505 1.390 . S
C2506 C2507 1.410 . S
C2506 H2520 0.913 1_655 S
C2507 C2506 1.410 . S
C2507 C2508 1.389 . S
C2508 C2507 1.389 . S
C2508 C2509 1.399 . S
C2508 H2521 0.931 . S
C2509 C2508 1.399 . S
C2509 C2510 1.390 . S
C2510 C2505 1.392 . S
C2510 C2509 1.390 . S
C2510 H2522 0.929 . S
O2511 Tb2495 2.326 . S
O2511 C2499 1.242 . S
O2512 Eu2496 2.324 . S
O2512 C2499 1.258 . S
O2513 Tb2495 2.500 . S
O2513 C2515 1.273 . S
O2514 Tb2495 2.473 . S
O2514 C2515 1.257 . S
C2515 O2513 1.273 . S
C2515 O2514 1.257 . S
O2516 Eu2496 2.326 . S
O2516 C2504 1.242 . S
O2517 Tb2495 2.324 . S
O2517 C2504 1.258 . S
O2518 Eu2496 2.500 1_655 S
O2518 C2501 1.273 . S
O2519 Eu2496 2.473 . S
O2519 C2501 1.257 1_455 S
H2520 C2506 0.913 1_455 S
H2521 C2508 0.931 . S
H2522 C2510 0.929 . S
O2523 Tb2524 2.292 . S
O2523 C2526 1.255 . S
Tb2524 O2523 2.292 . S
Tb2524 O2540 2.326 . S
Tb2524 O2542 2.500 . S
Tb2524 O2543 2.473 . S
Tb2524 O2546 2.324 . S
Eu2525 O2529 2.292 . S
Eu2525 C2530 2.852 . S
Eu2525 O2541 2.324 . S
Eu2525 O2545 2.326 . S
Eu2525 O2547 2.500 . S
Eu2525 O2548 2.473 . S
C2526 O2523 1.255 . S
C2526 O2527 1.247 . S
O2527 C2526 1.247 . S
C2528 O2540 1.242 . S
C2528 O2541 1.258 . S
O2529 Eu2525 2.292 . S
O2529 C2531 1.255 . S
C2530 Eu2525 2.852 . S
C2530 C2534 1.503 . S
C2530 O2547 1.273 . S
C2530 O2548 1.257 . S
C2531 O2529 1.255 . S
C2531 O2532 1.247 . S
O2532 C2531 1.247 . S
C2533 O2545 1.242 . S
C2533 O2546 1.258 . S
C2534 C2530 1.503 . S
C2534 C2535 1.379 . S
C2534 C2539 1.392 . S
C2535 C2534 1.379 . S
C2535 C2536 1.404 . S
C2535 H2549 0.929 . S
C2536 C2535 1.404 . S
C2536 C2537 1.389 . S
C2537 C2536 1.389 . S
C2537 C2538 1.399 . S
C2537 H2550 0.931 . S
C2538 C2537 1.399 . S
C2538 C2539 1.390 . S
C2539 C2534 1.392 . S
C2539 C2538 1.390 . S
C2539 H2551 0.929 . S
O2540 Tb2524 2.326 . S
O2540 C2528 1.242 . S
O2541 Eu2525 2.324 . S
O2541 C2528 1.258 . S
O2542 Tb2524 2.500 . S
O2542 C2544 1.273 . S
O2543 Tb2524 2.473 . S
O2543 C2544 1.257 . S
C2544 O2542 1.273 . S
C2544 O2543 1.257 . S
O2545 Eu2525 2.326 . S
O2545 C2533 1.242 . S
O2546 Tb2524 2.324 . S
O2546 C2533 1.258 . S
O2547 Eu2525 2.500 . S
O2547 C2530 1.273 . S
O2548 Eu2525 2.473 . S
O2548 C2530 1.257 . S
H2549 C2535 0.929 . S
H2550 C2537 0.931 . S
H2551 C2539 0.929 . S
O2552 Tb2553 2.292 . S
O2552 C2555 1.255 . S
Tb2553 O2552 2.292 . S
Tb2553 O2569 2.326 . S
Tb2553 O2571 2.500 . S
Tb2553 O2572 2.473 . S
Tb2553 O2575 2.324 . S
Eu2554 O2558 2.292 . S
Eu2554 C2559 2.852 . S
Eu2554 O2570 2.324 . S
Eu2554 O2574 2.326 . S
Eu2554 O2576 2.500 . S
Eu2554 O2577 2.473 . S
C2555 O2552 1.255 . S
C2555 O2556 1.247 . S
O2556 C2555 1.247 . S
C2557 O2569 1.242 . S
C2557 O2570 1.258 . S
O2558 Eu2554 2.292 . S
O2558 C2560 1.255 . S
C2559 Eu2554 2.852 . S
C2559 C2563 1.503 . S
C2559 O2576 1.273 . S
C2559 O2577 1.257 . S
C2560 O2558 1.255 . S
C2560 O2561 1.247 . S
O2561 C2560 1.247 . S
C2562 O2574 1.242 . S
C2562 O2575 1.258 . S
C2563 C2559 1.503 . S
C2563 C2564 1.379 . S
C2563 C2568 1.392 . S
C2564 C2563 1.379 . S
C2564 C2565 1.404 . S
C2564 H2578 0.929 . S
C2565 C2564 1.404 . S
C2565 C2566 1.389 . S
C2566 C2565 1.389 . S
C2566 C2567 1.399 . S
C2566 H2579 0.931 . S
C2567 C2566 1.399 . S
C2567 C2568 1.390 . S
C2568 C2563 1.392 . S
C2568 C2567 1.390 . S
C2568 H2580 0.929 . S
O2569 Tb2553 2.326 . S
O2569 C2557 1.242 . S
O2570 Eu2554 2.324 . S
O2570 C2557 1.258 . S
O2571 Tb2553 2.500 . S
O2571 C2573 1.273 . S
O2572 Tb2553 2.473 . S
O2572 C2573 1.257 . S
C2573 O2571 1.273 . S
C2573 O2572 1.257 . S
O2574 Eu2554 2.326 . S
O2574 C2562 1.242 . S
O2575 Tb2553 2.324 . S
O2575 C2562 1.258 . S
O2576 Eu2554 2.500 . S
O2576 C2559 1.273 . S
O2577 Eu2554 2.473 . S
O2577 C2559 1.257 . S
H2578 C2564 0.929 . S
H2579 C2566 0.931 . S
H2580 C2568 0.929 . S
O2581 Tb2582 2.292 . S
O2581 C2584 1.255 . S
Tb2582 O2581 2.292 . S
Tb2582 O2598 2.326 . S
Tb2582 O2600 2.500 . S
Tb2582 O2601 2.473 . S
Tb2582 O2604 2.324 . S
Eu2583 O2587 2.292 . S
Eu2583 C2588 2.852 1_545 S
Eu2583 O2599 2.324 . S
Eu2583 O2603 2.326 . S
Eu2583 O2605 2.500 1_545 S
Eu2583 O2606 2.473 . S
C2584 O2581 1.255 . S
C2584 O2585 1.247 . S
O2585 C2584 1.247 . S
C2586 O2598 1.242 . S
C2586 O2599 1.258 . S
O2587 Eu2583 2.292 . S
O2587 C2589 1.255 . S
C2588 Eu2583 2.852 1_565 S
C2588 C2592 1.503 . S
C2588 O2605 1.273 . S
C2588 O2606 1.257 1_565 S
C2589 O2587 1.255 . S
C2589 O2590 1.247 . S
O2590 C2589 1.247 . S
C2591 O2603 1.242 . S
C2591 O2604 1.258 . S
C2592 C2588 1.503 . S
C2592 C2593 1.379 . S
C2592 C2597 1.392 . S
C2593 C2592 1.379 . S
C2593 C2594 1.404 . S
C2593 H2607 0.929 1_565 S
C2594 C2593 1.404 . S
C2594 C2595 1.389 . S
C2595 C2594 1.389 . S
C2595 C2596 1.399 . S
C2595 H2608 0.931 . S
C2596 C2595 1.399 . S
C2596 C2597 1.390 . S
C2597 C2592 1.392 . S
C2597 C2596 1.390 . S
C2597 H2609 0.929 . S
O2598 Tb2582 2.326 . S
O2598 C2586 1.242 . S
O2599 Eu2583 2.324 . S
O2599 C2586 1.258 . S
O2600 Tb2582 2.500 . S
O2600 C2602 1.273 . S
O2601 Tb2582 2.473 . S
O2601 C2602 1.257 . S
C2602 O2600 1.273 . S
C2602 O2601 1.257 . S
O2603 Eu2583 2.326 . S
O2603 C2591 1.242 . S
O2604 Tb2582 2.324 . S
O2604 C2591 1.258 . S
O2605 Eu2583 2.500 1_565 S
O2605 C2588 1.273 . S
O2606 Eu2583 2.473 . S
O2606 C2588 1.257 1_545 S
H2607 C2593 0.929 1_545 S
H2608 C2595 0.931 . S
H2609 C2597 0.929 . S
O2610 Tb2611 2.292 . S
O2610 C2613 1.255 . S
Tb2611 O2610 2.292 . S
Tb2611 O2627 2.326 . S
Tb2611 O2629 2.500 . S
Tb2611 O2630 2.473 . S
Tb2611 O2633 2.324 . S
Eu2612 O2616 2.292 . S
Eu2612 C2617 2.852 . S
Eu2612 O2628 2.324 . S
Eu2612 O2632 2.326 . S
Eu2612 O2634 2.500 . S
Eu2612 O2635 2.473 . S
C2613 O2610 1.255 . S
C2613 O2614 1.247 . S
O2614 C2613 1.247 . S
C2615 O2627 1.242 . S
C2615 O2628 1.258 . S
O2616 Eu2612 2.292 . S
O2616 C2618 1.255 . S
C2617 Eu2612 2.852 . S
C2617 C2621 1.503 . S
C2617 O2634 1.273 . S
C2617 O2635 1.257 . S
C2618 O2616 1.255 . S
C2618 O2619 1.247 . S
O2619 C2618 1.247 . S
C2620 O2632 1.242 . S
C2620 O2633 1.258 . S
C2621 C2617 1.503 . S
C2621 C2622 1.379 . S
C2621 C2626 1.392 . S
C2622 C2621 1.379 . S
C2622 C2623 1.404 . S
C2622 H2636 0.929 . S
C2623 C2622 1.404 . S
C2623 C2624 1.389 . S
C2624 C2623 1.389 . S
C2624 C2625 1.399 . S
C2624 H2637 0.931 . S
C2625 C2624 1.399 . S
C2625 C2626 1.390 . S
C2626 C2621 1.392 . S
C2626 C2625 1.390 . S
C2626 H2638 0.929 . S
O2627 Tb2611 2.326 . S
O2627 C2615 1.242 . S
O2628 Eu2612 2.324 . S
O2628 C2615 1.258 . S
O2629 Tb2611 2.500 . S
O2629 C2631 1.273 . S
O2630 Tb2611 2.473 . S
O2630 C2631 1.257 . S
C2631 O2629 1.273 . S
C2631 O2630 1.257 . S
O2632 Eu2612 2.326 . S
O2632 C2620 1.242 . S
O2633 Tb2611 2.324 . S
O2633 C2620 1.258 . S
O2634 Eu2612 2.500 . S
O2634 C2617 1.273 . S
O2635 Eu2612 2.473 . S
O2635 C2617 1.257 . S
H2636 C2622 0.929 . S
H2637 C2624 0.931 . S
H2638 C2626 0.929 . S
O2639 Tb2640 2.292 . S
O2639 C2642 1.255 . S
Tb2640 O2639 2.292 . S
Tb2640 O2656 2.326 1_554 S
Tb2640 O2658 2.500 1_554 S
Tb2640 O2659 2.473 1_554 S
Tb2640 O2662 2.324 1_554 S
Eu2641 O2645 2.292 . S
Eu2641 C2646 2.858 1_556 S
Eu2641 O2657 2.324 . S
Eu2641 O2661 2.326 . S
Eu2641 O2663 2.500 1_565 S
Eu2641 O2664 2.473 1_556 S
C2642 O2639 1.255 . S
C2642 O2643 1.247 . S
O2643 C2642 1.247 . S
C2644 O2656 1.242 . S
C2644 O2657 1.258 . S
O2645 Eu2641 2.292 . S
O2645 C2647 1.255 . S
C2646 Eu2641 2.858 1_554 S
C2646 C2650 1.499 1_565 S
C2646 O2663 1.268 1_564 S
C2646 O2664 1.266 . S
C2647 O2645 1.255 . S
C2647 O2648 1.247 . S
O2648 C2647 1.247 . S
C2649 O2661 1.242 . S
C2649 O2662 1.258 . S
C2650 C2646 1.499 1_545 S
C2650 C2651 1.379 1_545 S
C2650 C2655 1.392 . S
C2651 C2650 1.379 1_565 S
C2651 C2652 1.404 1_565 S
C2651 H2665 0.929 . S
C2652 C2651 1.404 1_545 S
C2652 C2653 1.389 . S
C2653 C2652 1.389 . S
C2653 C2654 1.399 . S
C2653 H2666 0.931 . S
C2654 C2653 1.399 . S
C2654 C2655 1.390 . S
C2655 C2650 1.392 . S
C2655 C2654 1.390 . S
C2655 H2667 0.929 . S
O2656 Tb2640 2.326 1_556 S
O2656 C2644 1.242 . S
O2657 Eu2641 2.324 . S
O2657 C2644 1.258 . S
O2658 Tb2640 2.500 1_556 S
O2658 C2660 1.273 . S
O2659 Tb2640 2.473 1_556 S
O2659 C2660 1.257 . S
C2660 O2658 1.273 . S
C2660 O2659 1.257 . S
O2661 Eu2641 2.326 . S
O2661 C2649 1.242 . S
O2662 Tb2640 2.324 1_556 S
O2662 C2649 1.258 . S
O2663 Eu2641 2.500 1_545 S
O2663 C2646 1.268 1_546 S
O2664 Eu2641 2.473 1_554 S
O2664 C2646 1.266 . S
H2665 C2651 0.929 . S
H2666 C2653 0.931 . S
H2667 C2655 0.929 . S
O2668 Tb2669 2.292 . S
O2668 C2671 1.255 . S
Tb2669 O2668 2.292 . S
Tb2669 O2685 2.326 . S
Tb2669 O2687 2.500 . S
Tb2669 O2688 2.473 . S
Tb2669 O2691 2.324 . S
Eu2670 O2674 2.292 . S
Eu2670 C2675 2.852 . S
Eu2670 O2686 2.324 . S
Eu2670 O2690 2.326 . S
Eu2670 O2692 2.500 . S
Eu2670 O2693 2.473 . S
C2671 O2668 1.255 . S
C2671 O2672 1.247 . S
O2672 C2671 1.247 . S
C2673 O2685 1.242 . S
C2673 O2686 1.258 . S
O2674 Eu2670 2.292 . S
O2674 C2676 1.255 . S
C2675 Eu2670 2.852 . S
C2675 C2679 1.503 . S
C2675 O2692 1.273 . S
C2675 O2693 1.257 . S
C2676 O2674 1.255 . S
C2676 O2677 1.247 . S
O2677 C2676 1.247 . S
C2678 O2690 1.242 . S
C2678 O2691 1.258 . S
C2679 C2675 1.503 . S
C2679 C2680 1.379 . S
C2679 C2684 1.392 . S
C2680 C2679 1.379 . S
C2680 C2681 1.404 . S
C2680 H2694 0.929 . S
C2681 C2680 1.404 . S
C2681 C2682 1.389 . S
C2682 C2681 1.389 . S
C2682 C2683 1.399 . S
C2682 H2695 0.931 . S
C2683 C2682 1.399 . S
C2683 C2684 1.390 . S
C2684 C2679 1.392 . S
C2684 C2683 1.390 . S
C2684 H2696 0.929 . S
O2685 Tb2669 2.326 . S
O2685 C2673 1.242 . S
O2686 Eu2670 2.324 . S
O2686 C2673 1.258 . S
O2687 Tb2669 2.500 . S
O2687 C2689 1.273 . S
O2688 Tb2669 2.473 . S
O2688 C2689 1.257 . S
C2689 O2687 1.273 . S
C2689 O2688 1.257 . S
O2690 Eu2670 2.326 . S
O2690 C2678 1.242 . S
O2691 Tb2669 2.324 . S
O2691 C2678 1.258 . S
O2692 Eu2670 2.500 . S
O2692 C2675 1.273 . S
O2693 Eu2670 2.473 . S
O2693 C2675 1.257 . S
H2694 C2680 0.929 . S
H2695 C2682 0.931 . S
H2696 C2684 0.929 . S
O2697 Tb2698 2.292 . S
O2697 C2700 1.255 . S
Tb2698 O2697 2.292 . S
Tb2698 O2714 2.326 1_556 S
Tb2698 O2716 2.500 1_556 S
Tb2698 O2717 2.473 1_556 S
Tb2698 O2720 2.324 1_556 S
Eu2699 O2703 2.292 . S
Eu2699 C2704 2.852 1_554 S
Eu2699 O2715 2.324 . S
Eu2699 O2719 2.326 . S
Eu2699 O2721 2.500 . S
Eu2699 O2722 2.473 1_554 S
C2700 O2697 1.255 . S
C2700 O2701 1.247 . S
O2701 C2700 1.247 . S
C2702 O2714 1.242 . S
C2702 O2715 1.258 . S
O2703 Eu2699 2.292 . S
O2703 C2705 1.255 . S
C2704 Eu2699 2.852 1_556 S
C2704 C2708 1.503 . S
C2704 O2721 1.273 1_556 S
C2704 O2722 1.257 . S
C2705 O2703 1.255 . S
C2705 O2706 1.247 . S
O2706 C2705 1.247 . S
C2707 O2719 1.242 . S
C2707 O2720 1.258 . S
C2708 C2704 1.503 . S
C2708 C2709 1.379 . S
C2708 C2713 1.392 . S
C2709 C2708 1.379 . S
C2709 C2710 1.404 . S
C2709 H2723 0.929 . S
C2710 C2709 1.404 . S
C2710 C2711 1.389 . S
C2711 C2710 1.389 . S
C2711 C2712 1.399 . S
C2711 H2724 0.931 . S
C2712 C2711 1.399 . S
C2712 C2713 1.390 . S
C2713 C2708 1.392 . S
C2713 C2712 1.390 . S
C2713 H2725 0.929 . S
O2714 Tb2698 2.326 1_554 S
O2714 C2702 1.242 . S
O2715 Eu2699 2.324 . S
O2715 C2702 1.258 . S
O2716 Tb2698 2.500 1_554 S
O2716 C2718 1.273 . S
O2717 Tb2698 2.473 1_554 S
O2717 C2718 1.257 . S
C2718 O2716 1.273 . S
C2718 O2717 1.257 . S
O2719 Eu2699 2.326 . S
O2719 C2707 1.242 . S
O2720 Tb2698 2.324 1_554 S
O2720 C2707 1.258 . S
O2721 Eu2699 2.500 . S
O2721 C2704 1.273 1_554 S
O2722 Eu2699 2.473 1_556 S
O2722 C2704 1.257 . S
H2723 C2709 0.929 . S
H2724 C2711 0.931 . S
H2725 C2713 0.929 . S
O2726 Tb2727 2.292 . S
O2726 C2729 1.255 . S
Tb2727 O2726 2.292 . S
Tb2727 O2743 2.326 . S
Tb2727 O2745 2.500 . S
Tb2727 O2746 2.473 . S
Tb2727 O2749 2.324 . S
Eu2728 O2732 2.292 . S
Eu2728 C2733 2.852 . S
Eu2728 O2744 2.324 . S
Eu2728 O2748 2.326 . S
Eu2728 O2750 2.500 . S
Eu2728 O2751 2.473 . S
C2729 O2726 1.255 . S
C2729 O2730 1.247 . S
O2730 C2729 1.247 . S
C2731 O2743 1.242 . S
C2731 O2744 1.258 . S
O2732 Eu2728 2.292 . S
O2732 C2734 1.255 . S
C2733 Eu2728 2.852 . S
C2733 C2737 1.503 . S
C2733 O2750 1.273 . S
C2733 O2751 1.257 . S
C2734 O2732 1.255 . S
C2734 O2735 1.247 . S
O2735 C2734 1.247 . S
C2736 O2748 1.242 . S
C2736 O2749 1.258 . S
C2737 C2733 1.503 . S
C2737 C2738 1.379 . S
C2737 C2742 1.392 . S
C2738 C2737 1.379 . S
C2738 C2739 1.404 . S
C2738 H2752 0.929 . S
C2739 C2738 1.404 . S
C2739 C2740 1.389 . S
C2740 C2739 1.389 . S
C2740 C2741 1.399 . S
C2740 H2753 0.931 . S
C2741 C2740 1.399 . S
C2741 C2742 1.390 . S
C2742 C2737 1.392 . S
C2742 C2741 1.390 . S
C2742 H2754 0.929 . S
O2743 Tb2727 2.326 . S
O2743 C2731 1.242 . S
O2744 Eu2728 2.324 . S
O2744 C2731 1.258 . S
O2745 Tb2727 2.500 . S
O2745 C2747 1.273 . S
O2746 Tb2727 2.473 . S
O2746 C2747 1.257 . S
C2747 O2745 1.273 . S
C2747 O2746 1.257 . S
O2748 Eu2728 2.326 . S
O2748 C2736 1.242 . S
O2749 Tb2727 2.324 . S
O2749 C2736 1.258 . S
O2750 Eu2728 2.500 . S
O2750 C2733 1.273 . S
O2751 Eu2728 2.473 . S
O2751 C2733 1.257 . S
H2752 C2738 0.929 . S
H2753 C2740 0.931 . S
H2754 C2742 0.929 . S
O2755 Tb2756 2.292 . S
O2755 C2758 1.255 . S
Tb2756 O2755 2.292 . S
Tb2756 O2772 2.326 . S
Tb2756 O2774 2.500 . S
Tb2756 O2775 2.473 . S
Tb2756 O2778 2.324 . S
Eu2757 O2761 2.292 . S
Eu2757 C2762 2.852 . S
Eu2757 O2773 2.324 . S
Eu2757 O2777 2.326 . S
Eu2757 O2779 2.500 . S
Eu2757 O2780 2.473 . S
C2758 O2755 1.255 . S
C2758 O2759 1.247 . S
O2759 C2758 1.247 . S
C2760 O2772 1.242 . S
C2760 O2773 1.258 . S
O2761 Eu2757 2.292 . S
O2761 C2763 1.255 . S
C2762 Eu2757 2.852 . S
C2762 C2766 1.503 . S
C2762 O2779 1.273 . S
C2762 O2780 1.257 . S
C2763 O2761 1.255 . S
C2763 O2764 1.247 . S
O2764 C2763 1.247 . S
C2765 O2777 1.242 . S
C2765 O2778 1.258 . S
C2766 C2762 1.503 . S
C2766 C2767 1.379 . S
C2766 C2771 1.392 . S
C2767 C2766 1.379 . S
C2767 C2768 1.404 . S
C2767 H2781 0.929 . S
C2768 C2767 1.404 . S
C2768 C2769 1.389 . S
C2769 C2768 1.389 . S
C2769 C2770 1.399 . S
C2769 H2782 0.931 . S
C2770 C2769 1.399 . S
C2770 C2771 1.390 . S
C2771 C2766 1.392 . S
C2771 C2770 1.390 . S
C2771 H2783 0.929 . S
O2772 Tb2756 2.326 . S
O2772 C2760 1.242 . S
O2773 Eu2757 2.324 . S
O2773 C2760 1.258 . S
O2774 Tb2756 2.500 . S
O2774 C2776 1.273 . S
O2775 Tb2756 2.473 . S
O2775 C2776 1.257 . S
C2776 O2774 1.273 . S
C2776 O2775 1.257 . S
O2777 Eu2757 2.326 . S
O2777 C2765 1.242 . S
O2778 Tb2756 2.324 . S
O2778 C2765 1.258 . S
O2779 Eu2757 2.500 . S
O2779 C2762 1.273 . S
O2780 Eu2757 2.473 . S
O2780 C2762 1.257 . S
H2781 C2767 0.929 . S
H2782 C2769 0.931 . S
H2783 C2771 0.929 . S
C15 C2507 3.819 1_455 S
C44 C1144 3.421 . S
C73 C2449 3.487 . S
C1086 C102 3.529 . S
C131 C2391 3.794 1_455 S
C1028 C160 4.126 . S
C2333 C189 3.636 . S
C218 C970 3.521 . S
C247 C1318 3.802 1_545 S
C1347 C276 3.610 . S
C1173 C305 3.851 1_545 S
C334 C1373 3.466 . S
C363 C2652 3.953 1_565 S
C392 C2681 3.578 . S
C421 C2594 3.821 1_545 S
C450 C1231 3.463 . S
C479 C2217 3.800 1_554 S
C508 C709 3.871 1_556 S
C2130 C537 3.591 . S
C767 C566 3.662 . S
C595 C796 3.575 . S
C2275 C624 3.790 . S
C2304 C653 3.443 . S
C2246 C682 4.266 . S
C1811 C711 3.788 1_455 S
C448 C740 3.527 . S
C769 C1753 3.577 . S
C798 C390 3.529 . S
C1695 C827 3.734 1_455 S
C332 C856 3.968 . S
C885 C1637 3.622 . S
C274 C914 3.546 . S
C943 C622 3.773 1_565 S
C651 C972 3.625 . S
C1001 C477 3.848 1_545 S
C1030 C680 3.690 . S
C1956 C1059 4.126 1_565 S
C1088 C1985 3.454 . S
C1898 C1117 3.800 1_545 S
C535 C1146 3.534 . S
C1521 C1175 3.892 1_554 S
C1204 C13 3.807 1_554 S
C1233 C1434 3.546 . S
C1262 C71 3.647 . S
C100 C1291 3.256 . S
C1579 C1320 3.800 . S
C1349 C1608 3.458 . S
C1550 C1376 2.720 . S
C1115 C1407 3.645 . S
C1436 C2536 3.488 . S
C1465 C1057 3.812 . S
C2478 C1494 3.530 . S
C999 C1523 3.780 . S
C2420 C1552 4.158 . S
C1581 C941 3.942 1_655 S
C2362 C1610 3.510 . S
C1639 C2710 3.631 . S
C2739 C1668 3.612 . S
C2565 C1697 3.538 . S
C2765 C1726 3.452 . S
C1260 C1755 3.523 . S
C1289 C1784 3.479 . S
C1202 C1813 3.809 . S
C2623 C1842 3.450 . S
C825 C1871 3.680 . S
C2101 C1900 3.544 . S
C738 C1929 3.606 . S
C1958 C2159 4.019 1_556 S
C2188 C1987 3.582 . S
C2016 C883 3.820 1_554 S
C912 C2045 3.360 . S
C854 C2074 4.321 . S
C419 C2103 3.508 . S
C2132 C1840 3.582 . S
C361 C2161 4.005 1_655 S
C2190 C1782 3.523 . S
C2219 C303 3.726 . S
C2248 C1724 3.979 . S
C2277 C245 3.897 1_455 S
C2306 C1666 3.538 . S
C2335 C2014 3.580 . S
C2364 C2043 3.614 . S
C2393 C1869 3.594 . S
C2422 C2072 3.669 . S
C564 C2451 3.752 . S
C593 C2480 3.377 . S
C2509 C506 3.782 . S
C2538 C1927 3.519 . S
C2567 C129 3.731 . S
C2596 C1405 3.531 . S
C2625 C42 3.528 . S
C1463 C2654 4.035 1_556 S
C2683 C1492 3.236 . S
C2712 C187 3.831 1_556 S
C216 C2741 3.408 . S
C2768 C158 2.748 . S
C503 C8 2.331 . S
C37 C532 2.289 . S
C561 C66 2.230 . S
C1982 C95 2.291 . S
C1866 C124 2.214 . S
C153 C677 2.685 . S
C182 C2011 2.144 . S
C211 C648 2.376 . S
C1576 C240 2.303 . S
C269 C1605 2.287 . S
C1518 C298 2.187 . S
C1547 C327 2.472 . S
C356 C1460 2.353 . S
C1489 C385 2.267 . S
C1402 C414 2.254 . S
C443 C1431 2.447 . S
C300 C472 2.356 . S
C1808 C501 2.206 . S
C1837 C530 2.369 . S
C559 C1750 2.181 . S
C588 C387 2.392 . S
C617 C242 2.233 . S
C1663 C646 2.272 . S
C675 C1721 2.519 . S
C1199 C704 2.321 . S
C733 C1228 2.337 . S
C1257 C762 2.388 . S
C2678 C791 2.501 . S
C2562 C820 2.221 . S
C849 C1371 1.648 . S
C878 C2707 2.127 . S
C907 C1344 2.275 . S
C936 C2272 2.361 . S
C2301 C965 2.169 . S
C2214 C994 2.207 . S
C2243 C1023 2.799 . S
C2156 C1052 2.482 . S
C2185 C1081 2.225 . S
C1110 C2098 2.352 . S
C1139 C2127 2.375 . S
C1168 C996 2.291 . S
C2504 C1197 2.210 . S
C2533 C1226 2.285 . S
C2446 C1255 2.044 . S
C1083 C1284 2.342 . S
C1313 C938 2.247 . S
C2359 C1342 2.258 . S
C1378 C2417 4.381 . S
C1400 C1895 2.388 . S
C1924 C1429 2.227 . S
C1953 C1458 2.158 . S
C590 C1487 2.371 . S
C1516 C474 2.145 . S
C2069 C1545 2.751 . S
C619 C1574 2.242 . S
C1603 C2040 2.353 . S
C184 C1632 2.404 . S
C213 C1661 2.377 . S
C126 C1690 2.109 . S
C155 C1719 2.441 . S
C68 C1748 2.372 . S
C1777 C97 2.319 . S
C1806 C10 2.182 . S
C1835 C39 2.418 . S
C1864 C1692 2.435 . S
C416 C1893 2.119 . S
C445 C1922 2.436 . S
C358 C1951 2.148 . S
C1980 C1779 2.382 . S
C1634 C2009 2.330 . S
C2038 C271 2.330 . S
C329 C2067 2.562 . S
C2591 C2096 2.400 . S
C2620 C2125 2.296 . S
C2649 C2154 2.314 . S
C1286 C2183 2.560 . S
C2212 C1170 2.157 . S
C2763 C2241 1.608 . S
C1315 C2270 2.207 . S
C2736 C2299 2.234 . S
C2328 C880 2.442 . S
C2357 C909 2.251 . S
C2386 C822 2.146 . S
C851 C2415 2.767 . S
C2444 C764 2.476 . S
C793 C2473 2.271 . S
C2502 C706 2.225 . S
C2531 C735 2.350 . S
C2560 C2388 2.373 . S
C2589 C1112 2.149 . S
C1141 C2618 2.349 . S
C1054 C2647 2.066 . S
C2475 C2676 2.320 . S
C2330 C2705 2.338 . S
C2734 C967 2.316 . S
C1025 C2770 4.405 . S
C224 C21 0.360 . S
C137 C50 0.273 . S
C166 C79 0.344 . S
C195 C108 0.473 . S
C601 C253 0.330 . S
C1906 C282 0.362 . S
C1935 C311 0.386 . S
C340 C1964 0.367 . S
C369 C2080 0.526 . S
C630 C398 0.431 . S
C2051 C427 0.295 . S
C485 C456 0.275 . S
C1674 C514 0.364 . S
C1703 C543 0.379 . S
C1732 C572 0.254 . S
C1819 C659 0.422 . S
C688 C1761 0.613 . S
C717 C920 0.345 . S
C833 C746 0.237 . S
C862 C775 0.878 . S
C804 C891 0.305 . S
C1297 C949 0.724 . S
C978 C2602 0.329 . S
C2631 C1007 0.320 . S
C2660 C1036 0.283 . S
C1065 C2760 1.260 . S
C1326 C1094 0.420 . S
C2747 C1123 0.261 . S
C1152 C1181 0.299 . S
C2370 C1210 0.325 . S
C2399 C1239 0.339 . S
C2428 C1268 0.580 . S
C2515 C1355 0.387 . S
C1368 C2457 1.117 . S
C1616 C1413 0.414 . S
C1529 C1442 0.347 . S
C1558 C1471 0.293 . S
C1500 C1587 0.398 . S
C1645 C1993 0.438 . S
C1790 C2022 0.370 . S
C1877 C1848 0.344 . S
C2109 C2312 0.393 . S
C2225 C2138 0.335 . S
C2254 C2167 0.707 . S
C2283 C2196 0.373 . S
C2341 C2689 0.501 . S
C2486 C2718 0.197 . S
C2573 C2544 0.335 . S
C1455 C5 3.592 1_455 S
C1484 C34 3.943 1_455 S
C1397 C63 3.887 . S
C92 C1426 3.857 . S
C1571 C121 3.627 1_455 S
C150 C1600 3.756 . S
C1513 C179 3.881 . S
C1542 C208 3.747 1_455 S
C237 C353 3.603 1_565 S
C382 C266 3.886 . S
C295 C411 3.546 1_545 S
C324 C440 3.966 1_554 S
C1948 C469 3.723 1_554 S
C498 C2006 3.609 1_554 S
C643 C527 3.907 . S
C1861 C556 4.020 . S
C2064 C585 3.943 1_545 S
C614 C1890 3.869 . S
C672 C1977 3.974 . S
C2151 C701 3.640 1_655 S
C730 C2180 3.964 1_455 S
C2093 C759 4.078 . S
C788 C2122 3.889 . S
C2267 C817 3.629 1_655 S
C846 C2296 3.400 . S
C2209 C875 3.866 . S
C904 C2238 3.370 1_455 S
C1049 C933 3.302 1_565 S
C1078 C962 3.722 . S
C1107 C991 3.602 1_545 S
C1136 C1020 3.766 1_554 S
C1165 C2644 3.509 1_554 S
C1194 C2702 3.617 1_556 S
C1223 C1339 3.827 . S
C1252 C2557 3.884 . S
C1281 C2758 2.685 1_545 S
C1310 C2586 3.832 . S
C2673 C1366 2.699 . S
C1745 C1629 4.014 . S
C1774 C1658 3.985 1_556 S
C1803 C1687 3.827 . S
C1716 C1832 3.987 . S
C1919 C2035 3.984 1_545 S
C2325 C2441 3.718 . S
C2470 C2354 3.815 1_554 S
C2383 C2499 3.838 . S
C2412 C2528 3.795 . S
C2731 C2615 3.906 1_545 S
C1540 C3 2.898 . S
C32 C1569 2.504 . S
C61 C1598 2.555 . S
C1511 C90 2.538 . S
C1482 C119 2.716 . S
C148 C1395 2.853 . S
C177 C1424 2.442 . S
C1453 C206 2.463 . S
C2062 C235 2.411 . S
C612 C264 2.568 . S
C293 C2033 2.524 . S
C467 C322 2.589 . S
C351 C583 2.406 . S
C1888 C380 2.417 . S
C1917 C409 2.741 . S
C1946 C438 2.462 . S
C1772 C496 2.429 . S
C1801 C525 2.529 . S
C1830 C554 2.490 . S
C1685 C641 2.436 . S
C1627 C670 2.316 . S
C699 C2236 2.997 . S
C2265 C728 2.596 . S
C757 C2294 2.331 . S
C786 C2207 2.514 . S
C2178 C815 2.682 . S
C844 C2091 2.801 . S
C873 C2120 2.532 . S
C902 C2149 2.308 . S
C931 C2776 1.629 . S
C960 C1308 2.533 . S
C989 C2729 2.548 . S
C1163 C1018 2.813 . S
C1047 C1279 2.212 . S
C1076 C2584 2.645 . S
C1105 C2613 2.725 . S
C2642 C1134 2.441 . S
C1192 C2468 2.648 . S
C1221 C2497 2.528 . S
C1250 C2526 2.443 . S
C1337 C2381 2.484 . S
C1384 C2323 1.588 . S
C2004 C1656 2.749 . S
C1859 C1714 2.575 . S
C1743 C1975 2.423 . S
C2352 C2700 2.731 . S
C2410 C2555 2.740 . S
C2671 C2439 2.274 . S
