# Generated by pormake.
# Topology mdf, (4)-cn, num edge types: 1
# Building blocks:
#     Node 0, Type 0, BuildingBlock: NAHDIM_clean_sbu_0, # of connection points: 4
#     Node 1, Type 0, BuildingBlock: NAHDIM_clean_sbu_0, # of connection points: 4
#     Node 2, Type 0, BuildingBlock: NAHDIM_clean_sbu_0, # of connection points: 4
#     Node 3, Type 0, BuildingBlock: NAHDIM_clean_sbu_0, # of connection points: 4
#     Node 4, Type 0, BuildingBlock: NAHDIM_clean_sbu_0, # of connection points: 4
#     Node 5, Type 0, BuildingBlock: NAHDIM_clean_sbu_0, # of connection points: 4
#     Node 6, Type 0, BuildingBlock: NAHDIM_clean_sbu_0, # of connection points: 4
#     Node 7, Type 0, BuildingBlock: NAHDIM_clean_sbu_0, # of connection points: 4
#     Edge 8, Type (0, 0), BuildingBlock: XUDNAN_clean_linker_2, # of connection points: 2
#     Edge 9, Type (0, 0), BuildingBlock: XUDNAN_clean_linker_2, # of connection points: 2
#     Edge 10, Type (0, 0), BuildingBlock: XUDNAN_clean_linker_2, # of connection points: 2
#     Edge 11, Type (0, 0), BuildingBlock: XUDNAN_clean_linker_2, # of connection points: 2
#     Edge 12, Type (0, 0), BuildingBlock: XUDNAN_clean_linker_2, # of connection points: 2
#     Edge 13, Type (0, 0), BuildingBlock: XUDNAN_clean_linker_2, # of connection points: 2
#     Edge 14, Type (0, 0), BuildingBlock: XUDNAN_clean_linker_2, # of connection points: 2
#     Edge 15, Type (0, 0), BuildingBlock: XUDNAN_clean_linker_2, # of connection points: 2
#     Edge 16, Type (0, 0), BuildingBlock: XUDNAN_clean_linker_2, # of connection points: 2
#     Edge 17, Type (0, 0), BuildingBlock: XUDNAN_clean_linker_2, # of connection points: 2
#     Edge 18, Type (0, 0), BuildingBlock: XUDNAN_clean_linker_2, # of connection points: 2
#     Edge 19, Type (0, 0), BuildingBlock: XUDNAN_clean_linker_2, # of connection points: 2
#     Edge 20, Type (0, 0), BuildingBlock: XUDNAN_clean_linker_2, # of connection points: 2
#     Edge 21, Type (0, 0), BuildingBlock: XUDNAN_clean_linker_2, # of connection points: 2
#     Edge 22, Type (0, 0), BuildingBlock: XUDNAN_clean_linker_2, # of connection points: 2
#     Edge 23, Type (0, 0), BuildingBlock: XUDNAN_clean_linker_2, # of connection points: 2
# Relax obj value: 0.050
# Max RMSD: 0.056
# Mean RMSD: 0.056
data_MOF--net-mdf--node1-NAHDIM_clean_sbu_0--edge1-XUDNAN_clean_linker_2
_symmetry_space_group_name_H-M    P1
_symmetry_Int_Tables_number       1
_symmetry_cell_setting            triclinic
loop_
_symmetry_equiv_pos_as_xyz
'x, y, z'
_cell_length_a     35.025968
_cell_length_b     35.166485
_cell_length_c     14.833888
_cell_angle_alpha  90.012041
_cell_angle_beta   90.058876
_cell_angle_gamma 95.672571
loop_
_atom_site_label
_atom_site_type_symbol
_atom_site_fract_x
_atom_site_fract_y
_atom_site_fract_z
_atom_type_partial_charge
C0 C 0.24088 0.59407 0.54426 0.0
O1 O 0.24504 0.61843 0.47702 0.0
O2 O 0.27916 0.58344 0.32589 0.0
Zn3 Zn 0.26903 0.54015 0.4158 0.0
O4 O 0.22552 0.50161 0.37463 0.0
C5 C 0.34114 0.50313 0.3891 0.0
O6 O 0.33274 0.50154 0.30283 0.0
O7 O 0.25014 0.56036 0.53326 0.0
C8 C 0.22577 0.47236 0.32428 0.0
O9 O 0.25823 0.46372 0.28933 0.0
C10 C 0.27795 0.57837 0.24102 0.0
O11 O 0.2695 0.54371 0.20917 0.0
O12 O 0.3185 0.51713 0.44424 0.0
C13 C 0.38921 0.77935 0.49564 0.0
O14 O 0.36686 0.78296 0.56554 0.0
O15 O 0.40104 0.72465 0.70874 0.0
Zn16 Zn 0.44246 0.7425 0.61882 0.0
O17 O 0.48172 0.7818 0.67627 0.0
C18 C 0.4964 0.68279 0.61875 0.0
O19 O 0.50977 0.69868 0.69395 0.0
O20 O 0.4205 0.76426 0.5057 0.0
C21 C 0.49036 0.77946 0.75932 0.0
O22 O 0.47336 0.75142 0.80765 0.0
C23 C 0.38671 0.74669 0.76471 0.0
O24 O 0.39751 0.78353 0.76203 0.0
O25 O 0.46877 0.6965 0.5783 0.0
C26 C 0.30165 0.91293 0.96387 0.0
O27 O 0.31647 0.91657 0.88263 0.0
O28 O 0.24306 0.94859 0.7754 0.0
Zn29 Zn 0.25385 0.97058 0.8997 0.0
O30 O 0.29086 0.01792 0.88782 0.0
C31 C 0.18888 0.01331 0.91222 0.0
O32 O 0.20396 0.02808 0.83741 0.0
O33 O 0.27471 0.93285 0.98542 0.0
C34 C 0.31712 0.02145 0.82845 0.0
O35 O 0.32176 0.99258 0.77469 0.0
C36 C 0.23294 0.91343 0.76105 0.0
O37 O 0.22955 0.88973 0.82967 0.0
O38 O 0.205 0.98702 0.95147 0.0
C39 C 0.09595 0.70657 0.02506 0.0
O40 O 0.08619 0.69404 0.10603 0.0
O41 O 0.09589 0.79674 0.17187 0.0
Zn42 Zn 0.05695 0.76823 0.08925 0.0
O43 O 0.02042 0.73037 0.15724 0.0
C44 C 0.01775 0.83425 0.08465 0.0
O45 O 0.03078 0.83457 0.16773 0.0
O46 O 0.08594 0.73871 0.99946 0.0
C47 C 0.98881 0.71839 0.1197 0.0
O48 O 0.9806 0.73209 0.04038 0.0
C49 C 0.11001 0.78271 0.24183 0.0
O50 O 0.09939 0.74702 0.26364 0.0
O51 O 0.02551 0.80747 0.03205 0.0
C52 C 0.72209 0.09929 0.98836 0.0
O53 O 0.70767 0.11086 0.91251 0.0
O54 O 0.76277 0.07075 0.77041 0.0
Zn55 Zn 0.75279 0.03803 0.88115 0.0
O56 O 0.70901 0.99677 0.86177 0.0
C57 C 0.81245 0.98411 0.87885 0.0
O58 O 0.79197 0.96603 0.81495 0.0
O59 O 0.74104 0.07027 0.98808 0.0
C60 C 0.69823 0.97589 0.92878 0.0
O61 O 0.71588 0.98212 0.00638 0.0
C62 C 0.75655 0.05642 0.6925 0.0
O63 O 0.7424 0.02052 0.68566 0.0
O64 O 0.80107 0.0141 0.91343 0.0
C65 C 0.91086 0.28539 0.97419 0.0
O66 O 0.90933 0.30553 0.04849 0.0
O67 O 0.90482 0.21059 0.16677 0.0
Zn68 Zn 0.94836 0.23497 0.09107 0.0
O69 O 0.98041 0.27787 0.15479 0.0
C70 C 0.98824 0.16845 0.11931 0.0
O71 O 0.97145 0.1695 0.1983 0.0
O72 O 0.92659 0.25434 0.97625 0.0
C73 C 0.01392 0.287 0.12377 0.0
O74 O 0.02532 0.2686 0.05318 0.0
C75 C 0.89486 0.21998 0.24542 0.0
O76 O 0.91319 0.24985 0.285 0.0
O77 O 0.98254 0.19377 0.06095 0.0
C78 C 0.78184 0.40827 0.48065 0.0
O79 O 0.78606 0.4043 0.39331 0.0
O80 O 0.71379 0.42448 0.32126 0.0
Zn81 Zn 0.73761 0.46308 0.41107 0.0
O82 O 0.78192 0.49816 0.36247 0.0
C83 C 0.66828 0.49877 0.40138 0.0
O84 O 0.66952 0.4842 0.32004 0.0
O85 O 0.76061 0.43299 0.50953 0.0
C86 C 0.78194 0.52396 0.30249 0.0
O87 O 0.74992 0.52912 0.26006 0.0
C88 C 0.72551 0.41648 0.24318 0.0
O89 O 0.75723 0.43474 0.21162 0.0
O90 O 0.69539 0.49405 0.4563 0.0
C91 C 0.62573 0.23182 0.50962 0.0
O92 O 0.63077 0.22574 0.596 0.0
O93 O 0.59604 0.28538 0.69553 0.0
Zn94 Zn 0.56572 0.27304 0.58022 0.0
O95 O 0.52144 0.23365 0.60907 0.0
C96 C 0.54645 0.3517 0.57769 0.0
O97 O 0.5675 0.35431 0.65116 0.0
O98 O 0.59937 0.25204 0.48535 0.0
C99 C 0.49438 0.24405 0.65751 0.0
O100 O 0.49593 0.27983 0.68394 0.0
C101 C 0.59011 0.266 0.76755 0.0
O102 O 0.56495 0.23577 0.76749 0.0
O103 O 0.54288 0.32031 0.53436 0.0
H104 H 0.35262 0.67349 0.78031 0.0
H105 H 0.36768 0.78226 0.92027 0.0
H106 H 0.33591 0.75223 0.05483 0.0
H107 H 0.25783 0.64084 0.884 0.0
H108 H 0.26895 0.59188 0.88753 0.0
H109 H 0.28844 0.62323 0.79924 0.0
H110 H 0.35708 0.6082 0.84296 0.0
H111 H 0.33791 0.57717 0.93166 0.0
H112 H 0.37352 0.61626 0.95726 0.0
H113 H 0.31046 0.70815 0.18019 0.0
H114 H 0.28975 0.65471 0.28286 0.0
H115 H 0.28961 0.57535 0.05866 0.0
C116 C 0.34851 0.6912 0.83856 0.0
C117 C 0.36277 0.73019 0.83999 0.0
C118 C 0.3569 0.75236 0.91762 0.0
C119 C 0.33888 0.73554 0.99437 0.0
C120 C 0.32626 0.69668 0.99168 0.0
C121 C 0.33025 0.67497 0.91517 0.0
C122 C 0.316 0.63346 0.93087 0.0
C123 C 0.28071 0.62165 0.87189 0.0
C124 C 0.34804 0.60726 0.91476 0.0
C125 C 0.30519 0.63475 0.02949 0.0
C126 C 0.31087 0.67153 0.0632 0.0
C127 C 0.30523 0.67936 0.15411 0.0
C128 C 0.29364 0.64878 0.21199 0.0
C129 C 0.28789 0.61083 0.17881 0.0
C130 C 0.29331 0.60402 0.08604 0.0
H131 H 0.3297 0.82181 0.45082 0.0
H132 H 0.42479 0.76785 0.3356 0.0
H133 H 0.40955 0.79245 0.18578 0.0
H134 H 0.26511 0.80616 0.25543 0.0
H135 H 0.24633 0.85184 0.26589 0.0
H136 H 0.26206 0.82808 0.36472 0.0
H137 H 0.30836 0.88696 0.40617 0.0
H138 H 0.29255 0.91165 0.30892 0.0
H139 H 0.34288 0.90664 0.32432 0.0
H140 H 0.38763 0.82641 0.05127 0.0
H141 H 0.35952 0.86715 0.93887 0.0
H142 H 0.27879 0.89995 0.13984 0.0
C143 C 0.34704 0.8148 0.39391 0.0
C144 C 0.37854 0.79293 0.40521 0.0
C145 C 0.40064 0.78465 0.32895 0.0
C146 C 0.39213 0.79837 0.24336 0.0
C147 C 0.36138 0.82033 0.23479 0.0
C148 C 0.33901 0.82842 0.30773 0.0
C149 C 0.30872 0.85425 0.28034 0.0
C150 C 0.26816 0.83383 0.29228 0.0
C151 C 0.31345 0.89212 0.33305 0.0
C152 C 0.31844 0.86026 0.18137 0.0
C153 C 0.3486 0.84004 0.15642 0.0
C154 C 0.36367 0.84203 0.06952 0.0
C155 C 0.34759 0.86539 0.00623 0.0
C156 C 0.31696 0.88682 0.03033 0.0
C157 C 0.30207 0.88384 0.11905 0.0
H158 H 0.13948 0.76391 0.40506 0.0
H159 H 0.13838 0.85744 0.21451 0.0
H160 H 0.17648 0.89996 0.32078 0.0
H161 H 0.12519 0.81736 0.59757 0.0
H162 H 0.15541 0.79121 0.66795 0.0
H163 H 0.13213 0.76865 0.57061 0.0
H164 H 0.19957 0.75264 0.51701 0.0
H165 H 0.22356 0.77888 0.60906 0.0
H166 H 0.2363 0.79101 0.49486 0.0
H167 H 0.20893 0.93387 0.45529 0.0
H168 H 0.23163 0.95604 0.60599 0.0
H169 H 0.21043 0.84015 0.70761 0.0
C170 C 0.14787 0.79312 0.38474 0.0
C171 C 0.13592 0.80728 0.30143 0.0
C172 C 0.1472 0.84587 0.27802 0.0
C173 C 0.16895 0.87025 0.33783 0.0
C174 C 0.17945 0.85556 0.42047 0.0
C175 C 0.16942 0.81782 0.44358 0.0
C176 C 0.18142 0.80978 0.539 0.0
C177 C 0.14649 0.79591 0.59727 0.0
C178 C 0.21196 0.7813 0.53996 0.0
C179 C 0.19843 0.84908 0.56745 0.0
C180 C 0.19772 0.87505 0.49777 0.0
C181 C 0.21002 0.91363 0.50996 0.0
C182 C 0.22277 0.92596 0.59592 0.0
C183 C 0.22276 0.89983 0.66877 0.0
C184 C 0.211 0.86083 0.65342 0.0
H185 H 0.1311 0.72825 0.86529 0.0
H186 H 0.11275 0.63299 0.05146 0.0
H187 H 0.15054 0.59438 0.95269 0.0
H188 H 0.12388 0.67326 0.66169 0.0
H189 H 0.16034 0.70452 0.60623 0.0
H190 H 0.13171 0.7226 0.69459 0.0
H191 H 0.19599 0.74727 0.77164 0.0
H192 H 0.22546 0.724 0.69308 0.0
H193 H 0.22754 0.71325 0.8111 0.0
H194 H 0.18812 0.56524 0.82878 0.0
H195 H 0.22282 0.54855 0.69163 0.0
H196 H 0.21707 0.66349 0.58916 0.0
C197 C 0.13498 0.69927 0.88538 0.0
C198 C 0.11876 0.6836 0.96584 0.0
C199 C 0.12485 0.64564 0.99 0.0
C200 C 0.14632 0.62346 0.93442 0.0
C201 C 0.16175 0.63976 0.85528 0.0
C202 C 0.15651 0.67684 0.83117 0.0
C203 C 0.17579 0.68752 0.74245 0.0
C204 C 0.14622 0.69762 0.67198 0.0
C205 C 0.20804 0.72001 0.75537 0.0
C206 C 0.19196 0.65051 0.7191 0.0
C207 C 0.18373 0.62326 0.7851 0.0
C208 C 0.19481 0.58645 0.77683 0.0
C209 C 0.21457 0.57727 0.69869 0.0
C210 C 0.22271 0.60472 0.62952 0.0
C211 C 0.21151 0.64188 0.64079 0.0
H212 H 0.78927 0.13074 0.6826 0.0
H213 H 0.75123 0.0322 0.51747 0.0
H214 H 0.77665 0.06664 0.38241 0.0
H215 H 0.77042 0.20438 0.51089 0.0
H216 H 0.81238 0.23507 0.54343 0.0
H217 H 0.78704 0.20468 0.62598 0.0
H218 H 0.84984 0.1753 0.66474 0.0
H219 H 0.87552 0.20507 0.58189 0.0
H220 H 0.87593 0.15392 0.57647 0.0
H221 H 0.81168 0.10852 0.26849 0.0
H222 H 0.85428 0.155 0.18265 0.0
H223 H 0.87009 0.22694 0.42055 0.0
C224 C 0.78552 0.11671 0.61776 0.0
C225 C 0.76819 0.07874 0.61069 0.0
C226 C 0.76426 0.06127 0.5247 0.0
C227 C 0.77849 0.08067 0.44742 0.0
C228 C 0.79605 0.11775 0.45692 0.0
C229 C 0.79938 0.13577 0.53973 0.0
C230 C 0.82194 0.17473 0.53217 0.0
C231 C 0.79641 0.2066 0.55443 0.0
C232 C 0.85793 0.17737 0.59237 0.0
C233 C 0.8323 0.17499 0.43295 0.0
C234 C 0.81643 0.14213 0.39062 0.0
C235 C 0.82368 0.13468 0.30043 0.0
C236 C 0.84811 0.16127 0.25231 0.0
C237 C 0.86561 0.1947 0.29474 0.0
C238 C 0.85694 0.20187 0.38591 0.0
H239 H 0.87798 0.35206 0.9441 0.0
H240 H 0.90498 0.24764 0.81254 0.0
H241 H 0.87581 0.26843 0.67175 0.0
H242 H 0.78627 0.35935 0.8347 0.0
H243 H 0.79424 0.41059 0.83018 0.0
H244 H 0.81629 0.38502 0.91822 0.0
H245 H 0.88222 0.41996 0.86463 0.0
H246 H 0.85884 0.44249 0.77366 0.0
H247 H 0.89736 0.41362 0.74992 0.0
H248 H 0.84403 0.30035 0.54552 0.0
H249 H 0.8089 0.34005 0.44359 0.0
H250 H 0.80143 0.42327 0.65742 0.0
C251 C 0.87785 0.33358 0.88569 0.0
C252 C 0.89384 0.29822 0.88942 0.0
C253 C 0.89306 0.2749 0.81135 0.0
C254 C 0.87657 0.28645 0.731 0.0
C255 C 0.86113 0.32145 0.72966 0.0
C256 C 0.86157 0.34469 0.80483 0.0
C257 C 0.84285 0.38089 0.78522 0.0
C258 C 0.80787 0.38415 0.84595 0.0
C259 C 0.87207 0.41633 0.79386 0.0
C260 C 0.83081 0.37378 0.68818 0.0
C261 C 0.84213 0.33958 0.65712 0.0
C262 C 0.83466 0.32697 0.56934 0.0
C263 C 0.81475 0.34976 0.51199 0.0
C264 C 0.80218 0.38453 0.54298 0.0
C265 C 0.81032 0.3966 0.63231 0.0
H266 H 0.74031 0.39286 0.07113 0.0
H267 H 0.65892 0.37402 0.29112 0.0
H268 H 0.61874 0.32804 0.19742 0.0
H269 H 0.67603 0.3929 0.89458 0.0
H270 H 0.70364 0.36696 0.81747 0.0
H271 H 0.72735 0.39473 0.90672 0.0
H272 H 0.75702 0.33271 0.96686 0.0
H273 H 0.73378 0.30735 0.87248 0.0
H274 H 0.72519 0.29027 0.98582 0.0
H275 H 0.5856 0.28672 0.07722 0.0
H276 H 0.55947 0.25752 0.93571 0.0
H277 H 0.66058 0.30591 0.79187 0.0
C278 C 0.71427 0.37876 0.09998 0.0
C279 C 0.70275 0.38721 0.18836 0.0
C280 C 0.6684 0.3681 0.22353 0.0
C281 C 0.6454 0.3418 0.17098 0.0
C282 C 0.65725 0.33464 0.08359 0.0
C283 C 0.69093 0.35239 0.04848 0.0
C284 C 0.69621 0.34088 0.95132 0.0
C285 C 0.70108 0.37595 0.88884 0.0
C286 C 0.73007 0.3164 0.94346 0.0
C287 C 0.65865 0.31677 0.93485 0.0
C288 C 0.63739 0.31205 0.01318 0.0
C289 C 0.60194 0.29029 0.01541 0.0
C290 C 0.58741 0.27376 0.93485 0.0
C291 C 0.60789 0.2799 0.85303 0.0
C292 C 0.64421 0.30119 0.85345 0.0
H293 H 0.67819 0.15905 0.0189 0.0
H294 H 0.75096 0.08353 0.15373 0.0
H295 H 0.73792 0.11332 0.29906 0.0
H296 H 0.7041 0.24343 0.16359 0.0
H297 H 0.65605 0.25748 0.16518 0.0
H298 H 0.67289 0.23329 0.06801 0.0
H299 H 0.6159 0.18111 0.08029 0.0
H300 H 0.59818 0.20548 0.17583 0.0
H301 H 0.60708 0.156 0.18539 0.0
H302 H 0.71595 0.14863 0.43044 0.0
H303 H 0.68145 0.18433 0.54167 0.0
H304 H 0.62179 0.23659 0.32437 0.0
C305 C 0.69196 0.14924 0.07876 0.0
C306 C 0.71575 0.11901 0.07458 0.0
C307 C 0.73276 0.10669 0.15481 0.0
C308 C 0.72582 0.12361 0.2378 0.0
C309 C 0.70222 0.15313 0.23975 0.0
C310 C 0.68543 0.1659 0.16257 0.0
C311 C 0.65905 0.19631 0.18479 0.0
C312 C 0.67395 0.23491 0.14282 0.0
C313 C 0.6176 0.18395 0.15483 0.0
C314 C 0.66265 0.19748 0.28673 0.0
C315 C 0.68834 0.17289 0.31665 0.0
C316 C 0.69586 0.16812 0.40793 0.0
C317 C 0.67604 0.18852 0.47064 0.0
C318 C 0.64872 0.21312 0.44192 0.0
C319 C 0.64248 0.21803 0.34853 0.0
H320 H 0.37863 0.44474 0.32047 0.0
H321 H 0.38353 0.529 0.53475 0.0
H322 H 0.44179 0.5039 0.59547 0.0
H323 H 0.40225 0.36928 0.45691 0.0
H324 H 0.43016 0.34745 0.3729 0.0
H325 H 0.39231 0.37538 0.33878 0.0
H326 H 0.44053 0.41829 0.24128 0.0
H327 H 0.4786 0.39043 0.27535 0.0
H328 H 0.48338 0.44142 0.29263 0.0
H329 H 0.49684 0.46739 0.63828 0.0
H330 H 0.54117 0.41866 0.66863 0.0
H331 H 0.49863 0.35567 0.43124 0.0
C332 C 0.39247 0.45831 0.37913 0.0
C333 C 0.37687 0.48899 0.4226 0.0
C334 C 0.3951 0.50547 0.50052 0.0
C335 C 0.42832 0.49159 0.53508 0.0
C336 C 0.44272 0.46095 0.49145 0.0
C337 C 0.42524 0.44428 0.41559 0.0
C338 C 0.44425 0.4093 0.38698 0.0
C339 C 0.41553 0.37323 0.38907 0.0
C340 C 0.46279 0.41523 0.2935 0.0
C341 C 0.47443 0.40832 0.45999 0.0
C342 C 0.47361 0.43887 0.51832 0.0
C343 C 0.49788 0.44344 0.59282 0.0
C344 C 0.52299 0.41556 0.60946 0.0
C345 C 0.52334 0.38321 0.55255 0.0
C346 C 0.49919 0.38009 0.47587 0.0
H347 H 0.65665 0.95315 0.7766 0.0
H348 H 0.66787 0.9285 0.0618 0.0
H349 H 0.61538 0.8767 0.04929 0.0
H350 H 0.55314 0.93533 0.76609 0.0
H351 H 0.55288 0.91351 0.65609 0.0
H352 H 0.5911 0.9492 0.68719 0.0
H353 H 0.64115 0.90193 0.65035 0.0
H354 H 0.6031 0.86612 0.61909 0.0
H355 H 0.63741 0.85572 0.70404 0.0
H356 H 0.56244 0.82724 0.00656 0.0
H357 H 0.51254 0.78266 0.93586 0.0
H358 H 0.53511 0.83877 0.67781 0.0
C359 C 0.648 0.93693 0.83648 0.0
C360 C 0.66642 0.94498 0.92028 0.0
C361 C 0.65427 0.92296 0.99688 0.0
C362 C 0.62442 0.89345 0.99053 0.0
C363 C 0.60693 0.88625 0.90711 0.0
C364 C 0.6182 0.90728 0.83137 0.0
C365 C 0.59482 0.89322 0.74963 0.0
C366 C 0.57161 0.92469 0.7126 0.0
C367 C 0.62067 0.87836 0.67648 0.0
C368 C 0.5688 0.86092 0.79133 0.0
C369 C 0.57627 0.85751 0.88229 0.0
C370 C 0.55628 0.82963 0.9354 0.0
C371 C 0.52796 0.80441 0.89449 0.0
C372 C 0.51983 0.80713 0.80122 0.0
C373 C 0.54053 0.83596 0.74926 0.0
H374 H 0.03393 0.16285 0.97056 0.0
H375 H 1.00173 0.10719 0.22437 0.0
H376 H 0.04686 0.05902 0.19471 0.0
H377 H 0.04624 0.07594 0.84318 0.0
H378 H 0.08692 0.09786 0.78147 0.0
H379 H 0.05026 0.1265 0.81999 0.0
H380 H 0.1017 0.17146 0.90366 0.0
H381 H 0.13849 0.14301 0.86546 0.0
H382 H 0.1328 0.15162 0.98426 0.0
H383 H 0.09776 0.0187 0.14084 0.0
H384 H 0.15141 0.98998 0.06794 0.0
H385 H 0.15043 0.07226 0.84987 0.0
C386 C 0.03603 0.1403 0.0195 0.0
C387 C 0.01421 0.13875 0.09971 0.0
C388 C 0.01812 0.10898 0.1624 0.0
C389 C 0.04361 0.0814 0.14607 0.0
C390 C 0.06493 0.08397 0.06671 0.0
C391 C 0.06139 0.11263 0.00441 0.0
C392 C 0.08878 0.10992 0.92631 0.0
C393 C 0.06673 0.10208 0.83749 0.0
C394 C 0.11712 0.14615 0.91959 0.0
C395 C 0.10878 0.07566 0.95519 0.0
C396 C 0.09439 0.06089 0.03595 0.0
C397 C 0.1091 0.02987 0.07728 0.0
C398 C 0.13959 0.01377 0.03536 0.0
C399 C 0.15514 0.02882 0.95313 0.0
C400 C 0.13912 0.05994 0.91242 0.0
H401 H 0.91556 0.69311 0.06721 0.0
H402 H 1.00246 0.67479 0.26727 0.0
H403 H 0.95934 0.62233 0.33359 0.0
H404 H 0.83419 0.67581 0.21563 0.0
H405 H 0.80369 0.65224 0.13037 0.0
H406 H 0.8415 0.68816 0.09853 0.0
H407 H 0.86921 0.6399 0.99058 0.0
H408 H 0.83161 0.60375 0.02243 0.0
H409 H 0.88112 0.59466 0.03399 0.0
H410 H 0.90755 0.57095 0.37554 0.0
H411 H 0.84926 0.52666 0.3968 0.0
H412 H 0.79515 0.57941 0.17165 0.0
C413 C 0.92554 0.67814 0.12508 0.0
C414 C 0.96245 0.68802 0.16199 0.0
C415 C 0.9743 0.66781 0.238 0.0
C416 C 0.95006 0.63789 0.27593 0.0
C417 C 0.914 0.62869 0.23742 0.0
C418 C 0.90163 0.6484 0.16416 0.0
C419 C 0.86131 0.63317 0.13645 0.0
C420 C 0.83354 0.6642 0.14584 0.0
C421 C 0.86081 0.6169 0.04015 0.0
C422 C 0.85292 0.60176 0.20557 0.0
C423 C 0.88382 0.59952 0.26272 0.0
C424 C 0.88313 0.57253 0.33144 0.0
C425 C 0.84985 0.54742 0.34276 0.0
C426 C 0.81749 0.54956 0.28605 0.0
C427 C 0.81929 0.57706 0.21628 0.0
H428 H 0.37884 0.03783 0.71586 0.0
H429 H 0.30812 0.08905 0.91346 0.0
H430 H 0.34517 0.15155 0.88914 0.0
H431 H 0.46806 0.09236 0.77697 0.0
H432 H 0.48514 0.09656 0.66248 0.0
H433 H 0.4531 0.05576 0.69565 0.0
H434 H 0.40609 0.07042 0.56814 0.0
H435 H 0.43788 0.1114 0.53491 0.0
H436 H 0.38865 0.11692 0.56275 0.0
H437 H 0.38865 0.2087 0.84108 0.0
H438 H 0.43803 0.25618 0.7784 0.0
H439 H 0.48139 0.16778 0.61383 0.0
C440 C 0.3712 0.06215 0.75426 0.0
C441 C 0.34052 0.05852 0.81652 0.0
C442 C 0.33154 0.09106 0.86554 0.0
C443 C 0.35234 0.12674 0.85203 0.0
C444 C 0.38216 0.12938 0.78963 0.0
C445 C 0.3918 0.09795 0.74199 0.0
C446 C 0.42539 0.10856 0.67952 0.0
C447 C 0.45997 0.08703 0.70523 0.0
C448 C 0.41379 0.1014 0.58046 0.0
C449 C 0.43301 0.15089 0.69932 0.0
C450 C 0.40763 0.16231 0.76273 0.0
C451 C 0.40877 0.20009 0.79156 0.0
C452 C 0.43689 0.22687 0.75532 0.0
C453 C 0.46363 0.21574 0.69121 0.0
C454 C 0.46141 0.17721 0.66271 0.0
H455 H 0.84426 0.9188 0.82676 0.0
H456 H 0.86055 0.01543 0.01006 0.0
H457 H 0.91759 0.98963 0.07363 0.0
H458 H 0.86922 0.84893 0.98051 0.0
H459 H 0.89406 0.82212 0.89963 0.0
H460 H 0.85612 0.84948 0.86297 0.0
H461 H 0.90231 0.88581 0.74884 0.0
H462 H 0.94045 0.8585 0.7852 0.0
H463 H 0.94702 0.90997 0.7882 0.0
H464 H 0.96949 0.95169 0.12542 0.0
H465 H 0.01376 0.90371 0.16215 0.0
H466 H 0.9656 0.83157 0.94447 0.0
C467 C 0.86008 0.93477 0.87951 0.0
C468 C 0.84785 0.96921 0.91328 0.0
C469 C 0.86927 0.98904 0.98286 0.0
C470 C 0.90182 0.97467 0.01936 0.0
C471 C 0.91284 0.94053 0.9853 0.0
C472 C 0.89281 0.92085 0.91672 0.0
C473 C 0.91002 0.88393 0.89526 0.0
C474 C 0.8806 0.84906 0.91054 0.0
C475 C 0.92589 0.8846 0.79863 0.0
C476 C 0.94218 0.88551 0.96418 0.0
C477 C 0.94336 0.91861 0.01482 0.0
C478 C 0.96915 0.92586 0.08562 0.0
C479 C 0.99411 0.89836 0.10611 0.0
C480 C 0.99326 0.86401 0.0559 0.0
C481 C 0.9673 0.85782 0.98309 0.0
H482 H 0.08975 0.30648 0.0853 0.0
H483 H 0.99742 0.33654 0.25826 0.0
H484 H 0.04148 0.38764 0.32774 0.0
H485 H 0.16466 0.32079 0.25042 0.0
H486 H 0.20029 0.33996 0.17065 0.0
H487 H 0.16129 0.30631 0.13385 0.0
H488 H 0.1427 0.3545 0.01316 0.0
H489 H 0.18164 0.38832 0.04959 0.0
H490 H 0.13336 0.40191 0.04723 0.0
H491 H 0.09566 0.43595 0.37678 0.0
H492 H 0.15608 0.47646 0.40537 0.0
H493 H 0.21322 0.41353 0.20234 0.0
C494 C 0.07868 0.32382 0.13765 0.0
C495 C 0.04006 0.31758 0.16618 0.0
C496 C 0.02687 0.34079 0.23532 0.0
C497 C 0.05168 0.3699 0.27507 0.0
C498 C 0.08957 0.37527 0.24521 0.0
C499 C 0.10304 0.35277 0.17832 0.0
C500 C 0.14513 0.36399 0.15918 0.0
C501 C 0.16926 0.33079 0.17979 0.0
C502 C 0.15104 0.37802 0.0615 0.0
C503 C 0.15331 0.39639 0.22578 0.0
C504 C 0.12086 0.40258 0.27445 0.0
C505 C 0.12126 0.43128 0.33923 0.0
C506 C 0.15575 0.45418 0.35486 0.0
C507 C 0.18948 0.44814 0.30629 0.0
C508 C 0.18805 0.41879 0.24094 0.0
H509 H 0.56038 0.65086 0.67861 0.0
H510 H 0.47363 0.64142 0.46821 0.0
H511 H 0.50578 0.58987 0.39674 0.0
H512 H 0.63906 0.63897 0.53992 0.0
H513 H 0.66352 0.61108 0.61936 0.0
H514 H 0.63177 0.64459 0.65931 0.0
H515 H 0.5926 0.59056 0.74818 0.0
H516 H 0.6244 0.55686 0.70873 0.0
H517 H 0.57346 0.54789 0.68978 0.0
H518 H 0.54969 0.54319 0.34167 0.0
H519 H 0.60237 0.50419 0.30639 0.0
H520 H 0.66102 0.54341 0.55239 0.0
C521 C 0.54781 0.63762 0.6182 0.0
C522 C 0.51443 0.65024 0.57907 0.0
C523 C 0.49915 0.6323 0.49951 0.0
C524 C 0.51715 0.6029 0.45851 0.0
C525 C 0.55032 0.59159 0.49803 0.0
C526 C 0.56543 0.60822 0.57631 0.0
C527 C 0.60246 0.59201 0.60238 0.0
C528 C 0.63619 0.62355 0.60537 0.0
C529 C 0.59795 0.57056 0.69263 0.0
C530 C 0.60647 0.56463 0.52484 0.0
C531 C 0.57579 0.56453 0.46609 0.0
C532 C 0.57369 0.54277 0.38757 0.0
C533 C 0.60389 0.5208 0.36801 0.0
C534 C 0.6359 0.52073 0.42658 0.0
C535 C 0.63686 0.54264 0.50662 0.0
loop_
_geom_bond_atom_site_label_1
_geom_bond_atom_site_label_2
_geom_bond_distance
_geom_bond_site_symmetry_2
_ccdc_geom_bond_type
C0 O1 1.160 . S
C0 O7 1.185 . S
O1 C0 1.160 . S
O2 Zn3 1.899 . S
O2 C10 1.284 . S
Zn3 O2 1.899 . S
Zn3 O4 2.032 . S
Zn3 O7 2.086 . S
Zn3 O12 1.977 . S
O4 Zn3 2.032 . S
O4 C8 1.278 . S
C5 O6 1.203 . S
C5 O12 1.267 . S
O6 C5 1.203 . S
O7 C0 1.185 . S
O7 Zn3 2.086 . S
C8 O4 1.278 . S
C8 O9 1.211 . S
O9 C8 1.211 . S
C10 O2 1.284 . S
C10 O11 1.273 . S
O11 C10 1.273 . S
O12 Zn3 1.977 . S
O12 C5 1.267 . S
C13 O14 1.160 . S
C13 O20 1.185 . S
O14 C13 1.160 . S
O15 Zn16 1.899 . S
O15 C23 1.284 . S
Zn16 O15 1.899 . S
Zn16 O17 2.032 . S
Zn16 O20 2.086 . S
Zn16 O25 1.977 . S
O17 Zn16 2.032 . S
O17 C21 1.278 . S
C18 O19 1.203 . S
C18 O25 1.267 . S
O19 C18 1.203 . S
O20 C13 1.185 . S
O20 Zn16 2.086 . S
C21 O17 1.278 . S
C21 O22 1.211 . S
O22 C21 1.211 . S
C23 O15 1.284 . S
C23 O24 1.273 . S
O24 C23 1.273 . S
O25 Zn16 1.977 . S
O25 C18 1.267 . S
C26 O27 1.160 1_554 S
C26 O33 1.185 . S
O27 C26 1.160 1_556 S
O28 Zn29 1.899 . S
O28 C36 1.284 . S
Zn29 O28 1.899 . S
Zn29 O30 2.032 . S
Zn29 O33 2.086 1_556 S
Zn29 O38 1.977 . S
O30 Zn29 2.032 . S
O30 C34 1.278 1_565 S
C31 O32 1.199 1_545 S
C31 O38 1.252 1_545 S
O32 C31 1.199 1_565 S
O33 C26 1.185 . S
O33 Zn29 2.086 1_554 S
C34 O30 1.278 1_545 S
C34 O35 1.211 . S
O35 C34 1.211 . S
C36 O28 1.284 . S
C36 O37 1.273 . S
O37 C36 1.273 . S
O38 Zn29 1.977 . S
O38 C31 1.252 1_565 S
C39 O40 1.160 1_556 S
C39 O46 1.185 . S
O40 C39 1.160 1_554 S
O41 Zn42 1.899 . S
O41 C49 1.284 . S
Zn42 O41 1.899 . S
Zn42 O43 2.032 . S
Zn42 O46 2.086 1_554 S
Zn42 O51 1.977 . S
O43 Zn42 2.032 . S
O43 C47 1.278 1_455 S
C44 O45 1.199 1_655 S
C44 O51 1.252 1_655 S
O45 C44 1.199 1_455 S
O46 C39 1.185 . S
O46 Zn42 2.086 1_556 S
C47 O43 1.278 1_655 S
C47 O48 1.211 . S
O48 C47 1.211 . S
C49 O41 1.284 . S
C49 O50 1.273 . S
O50 C49 1.273 . S
O51 Zn42 1.977 . S
O51 C44 1.252 1_455 S
C52 O53 1.160 1_554 S
C52 O59 1.185 . S
O53 C52 1.160 1_556 S
O54 Zn55 1.899 . S
O54 C62 1.284 . S
Zn55 O54 1.899 . S
Zn55 O56 2.032 . S
Zn55 O59 2.086 1_556 S
Zn55 O64 1.977 . S
O56 Zn55 2.032 . S
O56 C60 1.278 1_545 S
C57 O58 1.199 1_565 S
C57 O64 1.252 1_565 S
O58 C57 1.199 1_545 S
O59 C52 1.185 . S
O59 Zn55 2.086 1_554 S
C60 O56 1.278 1_565 S
C60 O61 1.211 . S
O61 C60 1.211 . S
C62 O54 1.284 . S
C62 O63 1.273 . S
O63 C62 1.273 . S
O64 Zn55 1.977 . S
O64 C57 1.252 1_545 S
C65 O66 1.160 1_556 S
C65 O72 1.185 . S
O66 C65 1.160 1_554 S
O67 Zn68 1.899 . S
O67 C75 1.284 . S
Zn68 O67 1.899 . S
Zn68 O69 2.032 . S
Zn68 O72 2.086 1_554 S
Zn68 O77 1.977 . S
O69 Zn68 2.032 . S
O69 C73 1.278 1_655 S
C70 O71 1.199 1_455 S
C70 O77 1.252 1_455 S
O71 C70 1.199 1_655 S
O72 C65 1.185 . S
O72 Zn68 2.086 1_556 S
C73 O69 1.278 1_455 S
C73 O74 1.211 . S
O74 C73 1.211 . S
C75 O67 1.284 . S
C75 O76 1.273 . S
O76 C75 1.273 . S
O77 Zn68 1.977 . S
O77 C70 1.252 1_655 S
C78 O79 1.160 . S
C78 O85 1.185 . S
O79 C78 1.160 . S
O80 Zn81 1.899 . S
O80 C88 1.284 . S
Zn81 O80 1.899 . S
Zn81 O82 2.032 . S
Zn81 O85 2.086 . S
Zn81 O90 1.977 . S
O82 Zn81 2.032 . S
O82 C86 1.278 . S
C83 O84 1.203 . S
C83 O90 1.267 . S
O84 C83 1.203 . S
O85 C78 1.185 . S
O85 Zn81 2.086 . S
C86 O82 1.278 . S
C86 O87 1.211 . S
O87 C86 1.211 . S
C88 O80 1.284 . S
C88 O89 1.273 . S
O89 C88 1.273 . S
O90 Zn81 1.977 . S
O90 C83 1.267 . S
C91 O92 1.160 . S
C91 O98 1.185 . S
O92 C91 1.160 . S
O93 Zn94 1.899 . S
O93 C101 1.284 . S
Zn94 O93 1.899 . S
Zn94 O95 2.032 . S
Zn94 O98 2.086 . S
Zn94 O103 1.977 . S
O95 Zn94 2.032 . S
O95 C99 1.278 . S
C96 O97 1.203 . S
C96 O103 1.267 . S
O97 C96 1.203 . S
O98 C91 1.185 . S
O98 Zn94 2.086 . S
C99 O95 1.278 . S
C99 O100 1.211 . S
O100 C99 1.211 . S
C101 O93 1.284 . S
C101 O102 1.273 . S
O102 C101 1.273 . S
O103 Zn94 1.977 . S
O103 C96 1.267 . S
H104 C116 0.930 . S
H105 C118 0.930 . S
H106 C119 0.930 1_554 S
H107 C123 0.959 . S
H108 C123 0.959 . S
H109 C123 0.961 . S
H110 C124 0.960 . S
H111 C124 0.961 . S
H112 C124 0.959 . S
H113 C127 0.929 . S
H114 C128 0.931 . S
H115 C130 0.930 . S
C116 H104 0.930 . S
C116 C117 1.399 . S
C116 C121 1.399 . S
C117 C116 1.399 . S
C117 C118 1.376 . S
C118 H105 0.930 . S
C118 C117 1.376 . S
C118 C119 1.388 . S
C119 H106 0.930 1_556 S
C119 C118 1.388 . S
C119 C120 1.390 . S
C120 C119 1.390 . S
C120 C121 1.394 . S
C120 C126 1.465 1_556 S
C121 C116 1.399 . S
C121 C120 1.394 . S
C121 C122 1.516 . S
C122 C121 1.516 . S
C122 C123 1.502 . S
C122 C124 1.561 . S
C122 C125 1.526 1_556 S
C123 H107 0.959 . S
C123 H108 0.959 . S
C123 H109 0.961 . S
C123 C122 1.502 . S
C124 H110 0.960 . S
C124 H111 0.961 . S
C124 H112 0.959 . S
C124 C122 1.561 . S
C125 C122 1.526 1_554 S
C125 C126 1.396 . S
C125 C130 1.390 . S
C126 C120 1.465 1_554 S
C126 C125 1.396 . S
C126 C127 1.399 . S
C127 H113 0.929 . S
C127 C126 1.399 . S
C127 C128 1.385 . S
C128 H114 0.931 . S
C128 C127 1.385 . S
C128 C129 1.389 . S
C129 C128 1.389 . S
C129 C130 1.387 . S
C130 H115 0.930 . S
C130 C125 1.390 . S
C130 C129 1.387 . S
H131 C143 0.930 . S
H132 C145 0.930 . S
H133 C146 0.930 . S
H134 C150 0.959 . S
H135 C150 0.959 . S
H136 C150 0.961 . S
H137 C151 0.960 . S
H138 C151 0.961 . S
H139 C151 0.959 . S
H140 C154 0.929 . S
H141 C155 0.931 1_556 S
H142 C157 0.930 . S
C143 H131 0.930 . S
C143 C144 1.399 . S
C143 C148 1.399 . S
C144 C143 1.399 . S
C144 C145 1.376 . S
C145 H132 0.930 . S
C145 C144 1.376 . S
C145 C146 1.388 . S
C146 H133 0.930 . S
C146 C145 1.388 . S
C146 C147 1.390 . S
C147 C146 1.390 . S
C147 C148 1.394 . S
C147 C153 1.465 . S
C148 C143 1.399 . S
C148 C147 1.394 . S
C148 C149 1.516 . S
C149 C148 1.516 . S
C149 C150 1.502 . S
C149 C151 1.561 . S
C149 C152 1.526 . S
C150 H134 0.959 . S
C150 H135 0.959 . S
C150 H136 0.961 . S
C150 C149 1.502 . S
C151 H137 0.960 . S
C151 H138 0.961 . S
C151 H139 0.959 . S
C151 C149 1.561 . S
C152 C149 1.526 . S
C152 C153 1.396 . S
C152 C157 1.390 . S
C153 C147 1.465 . S
C153 C152 1.396 . S
C153 C154 1.399 . S
C154 H140 0.929 . S
C154 C153 1.399 . S
C154 C155 1.385 . S
C155 H141 0.931 1_554 S
C155 C154 1.385 . S
C155 C156 1.389 . S
C156 C155 1.389 . S
C156 C157 1.387 . S
C157 H142 0.930 . S
C157 C152 1.390 . S
C157 C156 1.387 . S
H158 C170 0.930 . S
H159 C172 0.930 . S
H160 C173 0.930 . S
H161 C177 0.959 . S
H162 C177 0.959 . S
H163 C177 0.961 . S
H164 C178 0.960 . S
H165 C178 0.961 . S
H166 C178 0.959 . S
H167 C181 0.929 . S
H168 C182 0.931 . S
H169 C184 0.930 . S
C170 H158 0.930 . S
C170 C171 1.399 . S
C170 C175 1.399 . S
C171 C170 1.399 . S
C171 C172 1.376 . S
C172 H159 0.930 . S
C172 C171 1.376 . S
C172 C173 1.388 . S
C173 H160 0.930 . S
C173 C172 1.388 . S
C173 C174 1.390 . S
C174 C173 1.390 . S
C174 C175 1.394 . S
C174 C180 1.465 . S
C175 C170 1.399 . S
C175 C174 1.394 . S
C175 C176 1.516 . S
C176 C175 1.516 . S
C176 C177 1.502 . S
C176 C178 1.561 . S
C176 C179 1.526 . S
C177 H161 0.959 . S
C177 H162 0.959 . S
C177 H163 0.961 . S
C177 C176 1.502 . S
C178 H164 0.960 . S
C178 H165 0.961 . S
C178 H166 0.959 . S
C178 C176 1.561 . S
C179 C176 1.526 . S
C179 C180 1.396 . S
C179 C184 1.390 . S
C180 C174 1.465 . S
C180 C179 1.396 . S
C180 C181 1.399 . S
C181 H167 0.929 . S
C181 C180 1.399 . S
C181 C182 1.385 . S
C182 H168 0.931 . S
C182 C181 1.385 . S
C182 C183 1.389 . S
C183 C182 1.389 . S
C183 C184 1.387 . S
C184 H169 0.930 . S
C184 C179 1.390 . S
C184 C183 1.387 . S
H185 C197 0.930 . S
H186 C199 0.930 . S
H187 C200 0.930 . S
H188 C204 0.959 . S
H189 C204 0.959 . S
H190 C204 0.961 . S
H191 C205 0.960 . S
H192 C205 0.961 . S
H193 C205 0.959 . S
H194 C208 0.929 . S
H195 C209 0.931 . S
H196 C211 0.930 . S
C197 H185 0.930 . S
C197 C198 1.399 . S
C197 C202 1.399 . S
C198 C197 1.399 . S
C198 C199 1.376 . S
C199 H186 0.930 . S
C199 C198 1.376 . S
C199 C200 1.388 . S
C200 H187 0.930 . S
C200 C199 1.388 . S
C200 C201 1.390 . S
C201 C200 1.390 . S
C201 C202 1.394 . S
C201 C207 1.465 . S
C202 C197 1.399 . S
C202 C201 1.394 . S
C202 C203 1.516 . S
C203 C202 1.516 . S
C203 C204 1.502 . S
C203 C205 1.561 . S
C203 C206 1.526 . S
C204 H188 0.959 . S
C204 H189 0.959 . S
C204 H190 0.961 . S
C204 C203 1.502 . S
C205 H191 0.960 . S
C205 H192 0.961 . S
C205 H193 0.959 . S
C205 C203 1.561 . S
C206 C203 1.526 . S
C206 C207 1.396 . S
C206 C211 1.390 . S
C207 C201 1.465 . S
C207 C206 1.396 . S
C207 C208 1.399 . S
C208 H194 0.929 . S
C208 C207 1.399 . S
C208 C209 1.385 . S
C209 H195 0.931 . S
C209 C208 1.385 . S
C209 C210 1.389 . S
C210 C209 1.389 . S
C210 C211 1.387 . S
C211 H196 0.930 . S
C211 C206 1.390 . S
C211 C210 1.387 . S
H212 C224 0.930 . S
H213 C226 0.930 . S
H214 C227 0.930 . S
H215 C231 0.959 . S
H216 C231 0.959 . S
H217 C231 0.961 . S
H218 C232 0.960 . S
H219 C232 0.961 . S
H220 C232 0.959 . S
H221 C235 0.929 . S
H222 C236 0.931 . S
H223 C238 0.930 . S
C224 H212 0.930 . S
C224 C225 1.399 . S
C224 C229 1.399 . S
C225 C224 1.399 . S
C225 C226 1.376 . S
C226 H213 0.930 . S
C226 C225 1.376 . S
C226 C227 1.388 . S
C227 H214 0.930 . S
C227 C226 1.388 . S
C227 C228 1.390 . S
C228 C227 1.390 . S
C228 C229 1.394 . S
C228 C234 1.465 . S
C229 C224 1.399 . S
C229 C228 1.394 . S
C229 C230 1.516 . S
C230 C229 1.516 . S
C230 C231 1.502 . S
C230 C232 1.561 . S
C230 C233 1.526 . S
C231 H215 0.959 . S
C231 H216 0.959 . S
C231 H217 0.961 . S
C231 C230 1.502 . S
C232 H218 0.960 . S
C232 H219 0.961 . S
C232 H220 0.959 . S
C232 C230 1.561 . S
C233 C230 1.526 . S
C233 C234 1.396 . S
C233 C238 1.390 . S
C234 C228 1.465 . S
C234 C233 1.396 . S
C234 C235 1.399 . S
C235 H221 0.929 . S
C235 C234 1.399 . S
C235 C236 1.385 . S
C236 H222 0.931 . S
C236 C235 1.385 . S
C236 C237 1.389 . S
C237 C236 1.389 . S
C237 C238 1.387 . S
C238 H223 0.930 . S
C238 C233 1.390 . S
C238 C237 1.387 . S
H239 C251 0.930 . S
H240 C253 0.930 . S
H241 C254 0.930 . S
H242 C258 0.959 . S
H243 C258 0.959 . S
H244 C258 0.961 . S
H245 C259 0.960 . S
H246 C259 0.961 . S
H247 C259 0.959 . S
H248 C262 0.929 . S
H249 C263 0.931 . S
H250 C265 0.930 . S
C251 H239 0.930 . S
C251 C252 1.399 . S
C251 C256 1.399 . S
C252 C251 1.399 . S
C252 C253 1.376 . S
C253 H240 0.930 . S
C253 C252 1.376 . S
C253 C254 1.388 . S
C254 H241 0.930 . S
C254 C253 1.388 . S
C254 C255 1.390 . S
C255 C254 1.390 . S
C255 C256 1.394 . S
C255 C261 1.465 . S
C256 C251 1.399 . S
C256 C255 1.394 . S
C256 C257 1.516 . S
C257 C256 1.516 . S
C257 C258 1.502 . S
C257 C259 1.561 . S
C257 C260 1.526 . S
C258 H242 0.959 . S
C258 H243 0.959 . S
C258 H244 0.961 . S
C258 C257 1.502 . S
C259 H245 0.960 . S
C259 H246 0.961 . S
C259 H247 0.959 . S
C259 C257 1.561 . S
C260 C257 1.526 . S
C260 C261 1.396 . S
C260 C265 1.390 . S
C261 C255 1.465 . S
C261 C260 1.396 . S
C261 C262 1.399 . S
C262 H248 0.929 . S
C262 C261 1.399 . S
C262 C263 1.385 . S
C263 H249 0.931 . S
C263 C262 1.385 . S
C263 C264 1.389 . S
C264 C263 1.389 . S
C264 C265 1.387 . S
C265 H250 0.930 . S
C265 C260 1.390 . S
C265 C264 1.387 . S
H266 C278 0.930 . S
H267 C280 0.930 . S
H268 C281 0.930 . S
H269 C285 0.959 . S
H270 C285 0.959 . S
H271 C285 0.961 . S
H272 C286 0.960 . S
H273 C286 0.961 1_556 S
H274 C286 0.959 . S
H275 C289 0.929 . S
H276 C290 0.931 . S
H277 C292 0.930 . S
C278 H266 0.930 . S
C278 C279 1.399 . S
C278 C283 1.399 . S
C279 C278 1.399 . S
C279 C280 1.376 . S
C280 H267 0.930 . S
C280 C279 1.376 . S
C280 C281 1.388 . S
C281 H268 0.930 . S
C281 C280 1.388 . S
C281 C282 1.390 . S
C282 C281 1.390 . S
C282 C283 1.394 . S
C282 C288 1.465 1_554 S
C283 C278 1.399 . S
C283 C282 1.394 . S
C283 C284 1.516 1_554 S
C284 C283 1.516 1_556 S
C284 C285 1.502 . S
C284 C286 1.561 1_556 S
C284 C287 1.526 . S
C285 H269 0.959 . S
C285 H270 0.959 . S
C285 H271 0.961 . S
C285 C284 1.502 . S
C286 H272 0.960 . S
C286 H273 0.961 1_554 S
C286 H274 0.959 . S
C286 C284 1.561 1_554 S
C287 C284 1.526 . S
C287 C288 1.396 . S
C287 C292 1.390 . S
C288 C282 1.465 1_556 S
C288 C287 1.396 . S
C288 C289 1.399 . S
C289 H275 0.929 . S
C289 C288 1.399 . S
C289 C290 1.385 . S
C290 H276 0.931 . S
C290 C289 1.385 . S
C290 C291 1.389 . S
C291 C290 1.389 . S
C291 C292 1.387 . S
C292 H277 0.930 . S
C292 C287 1.390 . S
C292 C291 1.387 . S
H293 C305 0.930 . S
H294 C307 0.930 . S
H295 C308 0.930 . S
H296 C312 0.959 . S
H297 C312 0.959 . S
H298 C312 0.961 . S
H299 C313 0.960 . S
H300 C313 0.961 . S
H301 C313 0.959 . S
H302 C316 0.929 . S
H303 C317 0.931 . S
H304 C319 0.930 . S
C305 H293 0.930 . S
C305 C306 1.399 . S
C305 C310 1.399 . S
C306 C305 1.399 . S
C306 C307 1.376 . S
C307 H294 0.930 . S
C307 C306 1.376 . S
C307 C308 1.388 . S
C308 H295 0.930 . S
C308 C307 1.388 . S
C308 C309 1.390 . S
C309 C308 1.390 . S
C309 C310 1.394 . S
C309 C315 1.465 . S
C310 C305 1.399 . S
C310 C309 1.394 . S
C310 C311 1.516 . S
C311 C310 1.516 . S
C311 C312 1.502 . S
C311 C313 1.561 . S
C311 C314 1.526 . S
C312 H296 0.959 . S
C312 H297 0.959 . S
C312 H298 0.961 . S
C312 C311 1.502 . S
C313 H299 0.960 . S
C313 H300 0.961 . S
C313 H301 0.959 . S
C313 C311 1.561 . S
C314 C311 1.526 . S
C314 C315 1.396 . S
C314 C319 1.390 . S
C315 C309 1.465 . S
C315 C314 1.396 . S
C315 C316 1.399 . S
C316 H302 0.929 . S
C316 C315 1.399 . S
C316 C317 1.385 . S
C317 H303 0.931 . S
C317 C316 1.385 . S
C317 C318 1.389 . S
C318 C317 1.389 . S
C318 C319 1.387 . S
C319 H304 0.930 . S
C319 C314 1.390 . S
C319 C318 1.387 . S
H320 C332 0.930 . S
H321 C334 0.930 . S
H322 C335 0.930 . S
H323 C339 0.959 . S
H324 C339 0.959 . S
H325 C339 0.961 . S
H326 C340 0.960 . S
H327 C340 0.961 . S
H328 C340 0.959 . S
H329 C343 0.929 . S
H330 C344 0.931 . S
H331 C346 0.930 . S
C332 H320 0.930 . S
C332 C333 1.399 . S
C332 C337 1.399 . S
C333 C332 1.399 . S
C333 C334 1.376 . S
C334 H321 0.930 . S
C334 C333 1.376 . S
C334 C335 1.388 . S
C335 H322 0.930 . S
C335 C334 1.388 . S
C335 C336 1.390 . S
C336 C335 1.390 . S
C336 C337 1.394 . S
C336 C342 1.465 . S
C337 C332 1.399 . S
C337 C336 1.394 . S
C337 C338 1.516 . S
C338 C337 1.516 . S
C338 C339 1.502 . S
C338 C340 1.561 . S
C338 C341 1.526 . S
C339 H323 0.959 . S
C339 H324 0.959 . S
C339 H325 0.961 . S
C339 C338 1.502 . S
C340 H326 0.960 . S
C340 H327 0.961 . S
C340 H328 0.959 . S
C340 C338 1.561 . S
C341 C338 1.526 . S
C341 C342 1.396 . S
C341 C346 1.390 . S
C342 C336 1.465 . S
C342 C341 1.396 . S
C342 C343 1.399 . S
C343 H329 0.929 . S
C343 C342 1.399 . S
C343 C344 1.385 . S
C344 H330 0.931 . S
C344 C343 1.385 . S
C344 C345 1.389 . S
C345 C344 1.389 . S
C345 C346 1.387 . S
C346 H331 0.930 . S
C346 C341 1.390 . S
C346 C345 1.387 . S
H347 C359 0.930 . S
H348 C361 0.930 . S
H349 C362 0.930 . S
H350 C366 0.959 . S
H351 C366 0.959 . S
H352 C366 0.961 . S
H353 C367 0.960 . S
H354 C367 0.961 . S
H355 C367 0.959 . S
H356 C370 0.929 . S
H357 C371 0.931 . S
H358 C373 0.930 . S
C359 H347 0.930 . S
C359 C360 1.399 . S
C359 C364 1.399 . S
C360 C359 1.399 . S
C360 C361 1.376 . S
C361 H348 0.930 . S
C361 C360 1.376 . S
C361 C362 1.388 . S
C362 H349 0.930 . S
C362 C361 1.388 . S
C362 C363 1.390 . S
C363 C362 1.390 . S
C363 C364 1.394 . S
C363 C369 1.465 . S
C364 C359 1.399 . S
C364 C363 1.394 . S
C364 C365 1.516 . S
C365 C364 1.516 . S
C365 C366 1.502 . S
C365 C367 1.561 . S
C365 C368 1.526 . S
C366 H350 0.959 . S
C366 H351 0.959 . S
C366 H352 0.961 . S
C366 C365 1.502 . S
C367 H353 0.960 . S
C367 H354 0.961 . S
C367 H355 0.959 . S
C367 C365 1.561 . S
C368 C365 1.526 . S
C368 C369 1.396 . S
C368 C373 1.390 . S
C369 C363 1.465 . S
C369 C368 1.396 . S
C369 C370 1.399 . S
C370 H356 0.929 . S
C370 C369 1.399 . S
C370 C371 1.385 . S
C371 H357 0.931 . S
C371 C370 1.385 . S
C371 C372 1.389 . S
C372 C371 1.389 . S
C372 C373 1.387 . S
C373 H358 0.930 . S
C373 C368 1.390 . S
C373 C372 1.387 . S
H374 C386 0.930 . S
H375 C388 0.930 . S
H376 C389 0.930 . S
H377 C393 0.959 . S
H378 C393 0.959 . S
H379 C393 0.961 . S
H380 C394 0.960 . S
H381 C394 0.961 . S
H382 C394 0.959 . S
H383 C397 0.929 . S
H384 C398 0.931 . S
H385 C400 0.930 . S
C386 H374 0.930 . S
C386 C387 1.399 1_556 S
C386 C391 1.399 . S
C387 C386 1.399 1_554 S
C387 C388 1.376 . S
C388 H375 0.930 . S
C388 C387 1.376 . S
C388 C389 1.388 . S
C389 H376 0.930 . S
C389 C388 1.388 . S
C389 C390 1.390 . S
C390 C389 1.390 . S
C390 C391 1.394 1_554 S
C390 C396 1.465 . S
C391 C386 1.399 . S
C391 C390 1.394 1_556 S
C391 C392 1.516 . S
C392 C391 1.516 . S
C392 C393 1.502 . S
C392 C394 1.561 . S
C392 C395 1.526 . S
C393 H377 0.959 . S
C393 H378 0.959 . S
C393 H379 0.961 . S
C393 C392 1.502 . S
C394 H380 0.960 . S
C394 H381 0.961 . S
C394 H382 0.959 . S
C394 C392 1.561 . S
C395 C392 1.526 . S
C395 C396 1.396 1_556 S
C395 C400 1.390 . S
C396 C390 1.465 . S
C396 C395 1.396 1_554 S
C396 C397 1.399 . S
C397 H383 0.929 . S
C397 C396 1.399 . S
C397 C398 1.385 . S
C398 H384 0.931 . S
C398 C397 1.385 . S
C398 C399 1.389 1_554 S
C399 C398 1.389 1_556 S
C399 C400 1.387 . S
C400 H385 0.930 . S
C400 C395 1.390 . S
C400 C399 1.387 . S
H401 C413 0.930 . S
H402 C415 0.930 1_455 S
H403 C416 0.930 . S
H404 C420 0.959 . S
H405 C420 0.959 . S
H406 C420 0.961 . S
H407 C421 0.960 . S
H408 C421 0.961 . S
H409 C421 0.959 . S
H410 C424 0.929 . S
H411 C425 0.931 . S
H412 C427 0.930 . S
C413 H401 0.930 . S
C413 C414 1.399 . S
C413 C418 1.399 . S
C414 C413 1.399 . S
C414 C415 1.376 . S
C415 H402 0.930 1_655 S
C415 C414 1.376 . S
C415 C416 1.388 . S
C416 H403 0.930 . S
C416 C415 1.388 . S
C416 C417 1.390 . S
C417 C416 1.390 . S
C417 C418 1.394 . S
C417 C423 1.465 . S
C418 C413 1.399 . S
C418 C417 1.394 . S
C418 C419 1.516 . S
C419 C418 1.516 . S
C419 C420 1.502 . S
C419 C421 1.561 . S
C419 C422 1.526 . S
C420 H404 0.959 . S
C420 H405 0.959 . S
C420 H406 0.961 . S
C420 C419 1.502 . S
C421 H407 0.960 . S
C421 H408 0.961 . S
C421 H409 0.959 . S
C421 C419 1.561 . S
C422 C419 1.526 . S
C422 C423 1.396 . S
C422 C427 1.390 . S
C423 C417 1.465 . S
C423 C422 1.396 . S
C423 C424 1.399 . S
C424 H410 0.929 . S
C424 C423 1.399 . S
C424 C425 1.385 . S
C425 H411 0.931 . S
C425 C424 1.385 . S
C425 C426 1.389 . S
C426 C425 1.389 . S
C426 C427 1.387 . S
C427 H412 0.930 . S
C427 C422 1.390 . S
C427 C426 1.387 . S
H428 C440 0.930 . S
H429 C442 0.930 . S
H430 C443 0.930 . S
H431 C447 0.959 . S
H432 C447 0.959 . S
H433 C447 0.961 . S
H434 C448 0.960 . S
H435 C448 0.961 . S
H436 C448 0.959 . S
H437 C451 0.929 . S
H438 C452 0.931 . S
H439 C454 0.930 . S
C440 H428 0.930 . S
C440 C441 1.399 . S
C440 C445 1.399 . S
C441 C440 1.399 . S
C441 C442 1.376 . S
C442 H429 0.930 . S
C442 C441 1.376 . S
C442 C443 1.388 . S
C443 H430 0.930 . S
C443 C442 1.388 . S
C443 C444 1.390 . S
C444 C443 1.390 . S
C444 C445 1.394 . S
C444 C450 1.465 . S
C445 C440 1.399 . S
C445 C444 1.394 . S
C445 C446 1.516 . S
C446 C445 1.516 . S
C446 C447 1.502 . S
C446 C448 1.561 . S
C446 C449 1.526 . S
C447 H431 0.959 . S
C447 H432 0.959 . S
C447 H433 0.961 . S
C447 C446 1.502 . S
C448 H434 0.960 . S
C448 H435 0.961 . S
C448 H436 0.959 . S
C448 C446 1.561 . S
C449 C446 1.526 . S
C449 C450 1.396 . S
C449 C454 1.390 . S
C450 C444 1.465 . S
C450 C449 1.396 . S
C450 C451 1.399 . S
C451 H437 0.929 . S
C451 C450 1.399 . S
C451 C452 1.385 . S
C452 H438 0.931 . S
C452 C451 1.385 . S
C452 C453 1.389 . S
C453 C452 1.389 . S
C453 C454 1.387 . S
C454 H439 0.930 . S
C454 C449 1.390 . S
C454 C453 1.387 . S
H455 C467 0.930 . S
H456 C469 0.930 . S
H457 C470 0.930 . S
H458 C474 0.959 . S
H459 C474 0.959 . S
H460 C474 0.961 . S
H461 C475 0.960 . S
H462 C475 0.961 . S
H463 C475 0.959 . S
H464 C478 0.929 . S
H465 C479 0.931 . S
H466 C481 0.930 . S
C467 H455 0.930 . S
C467 C468 1.399 . S
C467 C472 1.399 . S
C468 C467 1.399 . S
C468 C469 1.376 1_556 S
C469 H456 0.930 . S
C469 C468 1.376 1_554 S
C469 C470 1.388 . S
C470 H457 0.930 . S
C470 C469 1.388 . S
C470 C471 1.390 . S
C471 C470 1.390 . S
C471 C472 1.394 1_554 S
C471 C477 1.465 . S
C472 C467 1.399 . S
C472 C471 1.394 1_556 S
C472 C473 1.516 . S
C473 C472 1.516 . S
C473 C474 1.502 . S
C473 C475 1.561 . S
C473 C476 1.526 . S
C474 H458 0.959 . S
C474 H459 0.959 . S
C474 H460 0.961 . S
C474 C473 1.502 . S
C475 H461 0.960 . S
C475 H462 0.961 . S
C475 H463 0.959 . S
C475 C473 1.561 . S
C476 C473 1.526 . S
C476 C477 1.396 1_556 S
C476 C481 1.390 . S
C477 C471 1.465 . S
C477 C476 1.396 1_554 S
C477 C478 1.399 . S
C478 H464 0.929 . S
C478 C477 1.399 . S
C478 C479 1.385 . S
C479 H465 0.931 . S
C479 C478 1.385 . S
C479 C480 1.389 . S
C480 C479 1.389 . S
C480 C481 1.387 1_554 S
C481 H466 0.930 . S
C481 C476 1.390 . S
C481 C480 1.387 1_556 S
H482 C494 0.930 . S
H483 C496 0.930 . S
H484 C497 0.930 . S
H485 C501 0.959 . S
H486 C501 0.959 . S
H487 C501 0.961 . S
H488 C502 0.960 . S
H489 C502 0.961 . S
H490 C502 0.959 . S
H491 C505 0.929 . S
H492 C506 0.931 . S
H493 C508 0.930 . S
C494 H482 0.930 . S
C494 C495 1.399 . S
C494 C499 1.399 . S
C495 C494 1.399 . S
C495 C496 1.376 . S
C496 H483 0.930 . S
C496 C495 1.376 . S
C496 C497 1.388 . S
C497 H484 0.930 . S
C497 C496 1.388 . S
C497 C498 1.390 . S
C498 C497 1.390 . S
C498 C499 1.394 . S
C498 C504 1.465 . S
C499 C494 1.399 . S
C499 C498 1.394 . S
C499 C500 1.516 . S
C500 C499 1.516 . S
C500 C501 1.502 . S
C500 C502 1.561 . S
C500 C503 1.526 . S
C501 H485 0.959 . S
C501 H486 0.959 . S
C501 H487 0.961 . S
C501 C500 1.502 . S
C502 H488 0.960 . S
C502 H489 0.961 . S
C502 H490 0.959 . S
C502 C500 1.561 . S
C503 C500 1.526 . S
C503 C504 1.396 . S
C503 C508 1.390 . S
C504 C498 1.465 . S
C504 C503 1.396 . S
C504 C505 1.399 . S
C505 H491 0.929 . S
C505 C504 1.399 . S
C505 C506 1.385 . S
C506 H492 0.931 . S
C506 C505 1.385 . S
C506 C507 1.389 . S
C507 C506 1.389 . S
C507 C508 1.387 . S
C508 H493 0.930 . S
C508 C503 1.390 . S
C508 C507 1.387 . S
H509 C521 0.930 . S
H510 C523 0.930 . S
H511 C524 0.930 . S
H512 C528 0.959 . S
H513 C528 0.959 . S
H514 C528 0.961 . S
H515 C529 0.960 . S
H516 C529 0.961 . S
H517 C529 0.959 . S
H518 C532 0.929 . S
H519 C533 0.931 . S
H520 C535 0.930 . S
C521 H509 0.930 . S
C521 C522 1.399 . S
C521 C526 1.399 . S
C522 C521 1.399 . S
C522 C523 1.376 . S
C523 H510 0.930 . S
C523 C522 1.376 . S
C523 C524 1.388 . S
C524 H511 0.930 . S
C524 C523 1.388 . S
C524 C525 1.390 . S
C525 C524 1.390 . S
C525 C526 1.394 . S
C525 C531 1.465 . S
C526 C521 1.399 . S
C526 C525 1.394 . S
C526 C527 1.516 . S
C527 C526 1.516 . S
C527 C528 1.502 . S
C527 C529 1.561 . S
C527 C530 1.526 . S
C528 H512 0.959 . S
C528 H513 0.959 . S
C528 H514 0.961 . S
C528 C527 1.502 . S
C529 H515 0.960 . S
C529 H516 0.961 . S
C529 H517 0.959 . S
C529 C527 1.561 . S
C530 C527 1.526 . S
C530 C531 1.396 . S
C530 C535 1.390 . S
C531 C525 1.465 . S
C531 C530 1.396 . S
C531 C532 1.399 . S
C532 H518 0.929 . S
C532 C531 1.399 . S
C532 C533 1.385 . S
C533 H519 0.931 . S
C533 C532 1.385 . S
C533 C534 1.389 . S
C534 C533 1.389 . S
C534 C535 1.387 . S
C535 H520 0.930 . S
C535 C530 1.390 . S
C535 C534 1.387 . S
C117 C23 1.350 . S
C129 C10 1.400 . S
C144 C13 1.411 . S
C156 C26 1.379 . S
C171 C49 1.385 . S
C183 C36 1.364 . S
C198 C39 1.384 . S
C210 C0 1.412 . S
C225 C62 1.371 . S
C237 C75 1.377 . S
C252 C65 1.406 . S
C264 C78 1.371 . S
C279 C88 1.387 . S
C291 C101 1.361 . S
C306 C52 1.410 . S
C318 C91 1.391 . S
C333 C5 1.441 . S
C345 C96 1.401 . S
C360 C60 1.393 . S
C372 C21 1.421 . S
C387 C70 1.418 . S
C399 C31 1.477 . S
C414 C47 1.464 . S
C426 C86 1.453 . S
C441 C34 1.396 . S
C453 C99 1.427 . S
C468 C57 1.479 . S
C480 C44 1.412 . S
C495 C73 1.459 . S
C507 C8 1.432 . S
C522 C18 1.451 . S
C534 C83 1.394 . S
