# Generated by pormake.
# Topology wno, (7)-cn, num edge types: 1
# Building blocks:
#     Node 0, Type 0, BuildingBlock: OLANEW_clean_sbu_3, # of connection points: 7
#     Node 1, Type 0, BuildingBlock: OLANEW_clean_sbu_3, # of connection points: 7
#     Node 2, Type 0, BuildingBlock: OLANEW_clean_sbu_3, # of connection points: 7
#     Node 3, Type 0, BuildingBlock: OLANEW_clean_sbu_3, # of connection points: 7
#     Node 4, Type 0, BuildingBlock: OLANEW_clean_sbu_3, # of connection points: 7
#     Node 5, Type 0, BuildingBlock: OLANEW_clean_sbu_3, # of connection points: 7
#     Node 6, Type 0, BuildingBlock: OLANEW_clean_sbu_3, # of connection points: 7
#     Node 7, Type 0, BuildingBlock: OLANEW_clean_sbu_3, # of connection points: 7
#     Node 8, Type 0, BuildingBlock: OLANEW_clean_sbu_3, # of connection points: 7
#     Node 9, Type 0, BuildingBlock: OLANEW_clean_sbu_3, # of connection points: 7
#     Node 10, Type 0, BuildingBlock: OLANEW_clean_sbu_3, # of connection points: 7
#     Node 11, Type 0, BuildingBlock: OLANEW_clean_sbu_3, # of connection points: 7
#     Node 12, Type 0, BuildingBlock: OLANEW_clean_sbu_3, # of connection points: 7
#     Node 13, Type 0, BuildingBlock: OLANEW_clean_sbu_3, # of connection points: 7
#     Node 14, Type 0, BuildingBlock: OLANEW_clean_sbu_3, # of connection points: 7
#     Node 15, Type 0, BuildingBlock: OLANEW_clean_sbu_3, # of connection points: 7
#     Node 16, Type 0, BuildingBlock: OLANEW_clean_sbu_3, # of connection points: 7
#     Node 17, Type 0, BuildingBlock: OLANEW_clean_sbu_3, # of connection points: 7
#     Edge 18, Type (0, 0), BuildingBlock: MIFKUJ_clean_linker_0, # of connection points: 2
#     Edge 19, Type (0, 0), BuildingBlock: MIFKUJ_clean_linker_0, # of connection points: 2
#     Edge 20, Type (0, 0), BuildingBlock: MIFKUJ_clean_linker_0, # of connection points: 2
#     Edge 21, Type (0, 0), BuildingBlock: MIFKUJ_clean_linker_0, # of connection points: 2
#     Edge 22, Type (0, 0), BuildingBlock: MIFKUJ_clean_linker_0, # of connection points: 2
#     Edge 23, Type (0, 0), BuildingBlock: MIFKUJ_clean_linker_0, # of connection points: 2
#     Edge 24, Type (0, 0), BuildingBlock: MIFKUJ_clean_linker_0, # of connection points: 2
#     Edge 25, Type (0, 0), BuildingBlock: MIFKUJ_clean_linker_0, # of connection points: 2
#     Edge 26, Type (0, 0), BuildingBlock: MIFKUJ_clean_linker_0, # of connection points: 2
#     Edge 27, Type (0, 0), BuildingBlock: MIFKUJ_clean_linker_0, # of connection points: 2
#     Edge 28, Type (0, 0), BuildingBlock: MIFKUJ_clean_linker_0, # of connection points: 2
#     Edge 29, Type (0, 0), BuildingBlock: MIFKUJ_clean_linker_0, # of connection points: 2
#     Edge 30, Type (0, 0), BuildingBlock: MIFKUJ_clean_linker_0, # of connection points: 2
#     Edge 31, Type (0, 0), BuildingBlock: MIFKUJ_clean_linker_0, # of connection points: 2
#     Edge 32, Type (0, 0), BuildingBlock: MIFKUJ_clean_linker_0, # of connection points: 2
#     Edge 33, Type (0, 0), BuildingBlock: MIFKUJ_clean_linker_0, # of connection points: 2
#     Edge 34, Type (0, 0), BuildingBlock: MIFKUJ_clean_linker_0, # of connection points: 2
#     Edge 35, Type (0, 0), BuildingBlock: MIFKUJ_clean_linker_0, # of connection points: 2
#     Edge 36, Type (0, 0), BuildingBlock: MIFKUJ_clean_linker_0, # of connection points: 2
#     Edge 37, Type (0, 0), BuildingBlock: MIFKUJ_clean_linker_0, # of connection points: 2
#     Edge 38, Type (0, 0), BuildingBlock: MIFKUJ_clean_linker_0, # of connection points: 2
#     Edge 39, Type (0, 0), BuildingBlock: MIFKUJ_clean_linker_0, # of connection points: 2
#     Edge 40, Type (0, 0), BuildingBlock: MIFKUJ_clean_linker_0, # of connection points: 2
#     Edge 41, Type (0, 0), BuildingBlock: MIFKUJ_clean_linker_0, # of connection points: 2
#     Edge 42, Type (0, 0), BuildingBlock: MIFKUJ_clean_linker_0, # of connection points: 2
#     Edge 43, Type (0, 0), BuildingBlock: MIFKUJ_clean_linker_0, # of connection points: 2
#     Edge 44, Type (0, 0), BuildingBlock: MIFKUJ_clean_linker_0, # of connection points: 2
#     Edge 45, Type (0, 0), BuildingBlock: MIFKUJ_clean_linker_0, # of connection points: 2
#     Edge 46, Type (0, 0), BuildingBlock: MIFKUJ_clean_linker_0, # of connection points: 2
#     Edge 47, Type (0, 0), BuildingBlock: MIFKUJ_clean_linker_0, # of connection points: 2
#     Edge 48, Type (0, 0), BuildingBlock: MIFKUJ_clean_linker_0, # of connection points: 2
#     Edge 49, Type (0, 0), BuildingBlock: MIFKUJ_clean_linker_0, # of connection points: 2
#     Edge 50, Type (0, 0), BuildingBlock: MIFKUJ_clean_linker_0, # of connection points: 2
#     Edge 51, Type (0, 0), BuildingBlock: MIFKUJ_clean_linker_0, # of connection points: 2
#     Edge 52, Type (0, 0), BuildingBlock: MIFKUJ_clean_linker_0, # of connection points: 2
#     Edge 53, Type (0, 0), BuildingBlock: MIFKUJ_clean_linker_0, # of connection points: 2
#     Edge 54, Type (0, 0), BuildingBlock: MIFKUJ_clean_linker_0, # of connection points: 2
#     Edge 55, Type (0, 0), BuildingBlock: MIFKUJ_clean_linker_0, # of connection points: 2
#     Edge 56, Type (0, 0), BuildingBlock: MIFKUJ_clean_linker_0, # of connection points: 2
#     Edge 57, Type (0, 0), BuildingBlock: MIFKUJ_clean_linker_0, # of connection points: 2
#     Edge 58, Type (0, 0), BuildingBlock: MIFKUJ_clean_linker_0, # of connection points: 2
#     Edge 59, Type (0, 0), BuildingBlock: MIFKUJ_clean_linker_0, # of connection points: 2
#     Edge 60, Type (0, 0), BuildingBlock: MIFKUJ_clean_linker_0, # of connection points: 2
#     Edge 61, Type (0, 0), BuildingBlock: MIFKUJ_clean_linker_0, # of connection points: 2
#     Edge 62, Type (0, 0), BuildingBlock: MIFKUJ_clean_linker_0, # of connection points: 2
#     Edge 63, Type (0, 0), BuildingBlock: MIFKUJ_clean_linker_0, # of connection points: 2
#     Edge 64, Type (0, 0), BuildingBlock: MIFKUJ_clean_linker_0, # of connection points: 2
#     Edge 65, Type (0, 0), BuildingBlock: MIFKUJ_clean_linker_0, # of connection points: 2
#     Edge 66, Type (0, 0), BuildingBlock: MIFKUJ_clean_linker_0, # of connection points: 2
#     Edge 67, Type (0, 0), BuildingBlock: MIFKUJ_clean_linker_0, # of connection points: 2
#     Edge 68, Type (0, 0), BuildingBlock: MIFKUJ_clean_linker_0, # of connection points: 2
#     Edge 69, Type (0, 0), BuildingBlock: MIFKUJ_clean_linker_0, # of connection points: 2
#     Edge 70, Type (0, 0), BuildingBlock: MIFKUJ_clean_linker_0, # of connection points: 2
#     Edge 71, Type (0, 0), BuildingBlock: MIFKUJ_clean_linker_0, # of connection points: 2
#     Edge 72, Type (0, 0), BuildingBlock: MIFKUJ_clean_linker_0, # of connection points: 2
#     Edge 73, Type (0, 0), BuildingBlock: MIFKUJ_clean_linker_0, # of connection points: 2
#     Edge 74, Type (0, 0), BuildingBlock: MIFKUJ_clean_linker_0, # of connection points: 2
#     Edge 75, Type (0, 0), BuildingBlock: MIFKUJ_clean_linker_0, # of connection points: 2
#     Edge 76, Type (0, 0), BuildingBlock: MIFKUJ_clean_linker_0, # of connection points: 2
#     Edge 77, Type (0, 0), BuildingBlock: MIFKUJ_clean_linker_0, # of connection points: 2
#     Edge 78, Type (0, 0), BuildingBlock: MIFKUJ_clean_linker_0, # of connection points: 2
#     Edge 79, Type (0, 0), BuildingBlock: MIFKUJ_clean_linker_0, # of connection points: 2
#     Edge 80, Type (0, 0), BuildingBlock: MIFKUJ_clean_linker_0, # of connection points: 2
# Relax obj value: 0.247
# Max RMSD: 0.259
# Mean RMSD: 0.259
data_MOF--net-wno--node1-OLANEW_clean_sbu_3--edge1-MIFKUJ_clean_linker_0
_symmetry_space_group_name_H-M    P1
_symmetry_Int_Tables_number       1
_symmetry_cell_setting            triclinic
loop_
_symmetry_equiv_pos_as_xyz
'x, y, z'
_cell_length_a     80.634979
_cell_length_b     80.606694
_cell_length_c     56.669855
_cell_angle_alpha  89.941446
_cell_angle_beta   90.034473
_cell_angle_gamma 119.99957
loop_
_atom_site_label
_atom_site_type_symbol
_atom_site_fract_x
_atom_site_fract_y
_atom_site_fract_z
_atom_type_partial_charge
C0 C 0.1709 0.29278 0.12342 0.0
C1 C 0.16308 0.2747 0.11291 0.0
C2 C 0.17575 0.2698 0.10173 0.0
C3 C 0.19572 0.28277 0.10142 0.0
C4 C 0.20249 0.30056 0.11233 0.0
N5 N 0.18985 0.30431 0.12264 0.0
C6 C 0.22227 0.31673 0.11376 0.0
C7 C 0.24198 0.35036 0.12752 0.0
C8 C 0.25614 0.34969 0.14125 0.0
C9 C 0.27357 0.36639 0.14549 0.0
C10 C 0.27704 0.38382 0.13593 0.0
C11 C 0.26313 0.38453 0.12196 0.0
C12 C 0.24567 0.36787 0.11773 0.0
Cd13 Cd 0.25662 0.31798 0.07297 0.0
Cd14 Cd 0.23389 0.29345 0.04354 0.0
C15 C 0.16775 0.3256 0.16729 0.0
C16 C 0.15537 0.34523 0.18357 0.0
C17 C 0.1587 0.34067 0.20629 0.0
C18 C 0.16595 0.32835 0.2097 0.0
C19 C 0.16992 0.32032 0.19022 0.0
C20 C 0.16011 0.33774 0.16394 0.0
Co21 Co 0.19921 0.32798 0.13628 0.0
N22 N 0.20654 0.32119 0.16612 0.0
N23 N 0.20814 0.35184 0.14956 0.0
C24 C 0.21378 0.35377 0.17197 0.0
C25 C 0.21774 0.37049 0.18407 0.0
C26 C 0.21517 0.38436 0.17191 0.0
C27 C 0.20844 0.38117 0.14837 0.0
C28 C 0.20469 0.36406 0.1375 0.0
N29 N 0.19294 0.33873 0.10911 0.0
N30 N 0.22396 0.33334 0.12324 0.0
N31 N 0.17319 0.31839 0.14743 0.0
O32 O 0.25551 0.31006 0.01184 0.0
O33 O 0.27187 0.3332 0.03712 0.0
C34 C 0.29 0.34958 0.09392 0.0
O35 O 0.27917 0.35215 0.07995 0.0
O36 O 0.2849 0.3323 0.09901 0.0
C37 C 0.25284 0.27234 0.05477 0.0
O38 O 0.26259 0.28985 0.06157 0.0
O39 O 0.23519 0.26526 0.05011 0.0
C40 C 0.21332 0.33656 0.18125 0.0
O41 O 0.21781 0.33555 0.20333 0.0
O42 O 0.22692 0.31819 0.05999 0.0
O43 O 0.20559 0.29497 0.03774 0.0
C44 C 0.19625 0.3567 0.11416 0.0
O45 O 0.19351 0.36719 0.09857 0.0
C46 C 0.18812 0.3306 0.08603 0.0
C47 C 0.20217 0.32974 0.07331 0.0
C48 C 0.19739 0.3172 0.05437 0.0
C49 C 0.17895 0.30928 0.04441 0.0
C50 C 0.16494 0.31282 0.0548 0.0
C51 C 0.16952 0.3225 0.07683 0.0
C52 C 0.26948 0.32652 0.01646 0.0
O53 O 0.23747 0.31417 0.10961 0.0
C54 C 0.21094 0.31044 0.0489 0.0
C55 C 0.20855 0.30477 0.17132 0.0
C56 C 0.19299 0.28611 0.16901 0.0
C57 C 0.19443 0.27042 0.17663 0.0
C58 C 0.21103 0.27321 0.18781 0.0
C59 C 0.22624 0.29185 0.19172 0.0
C60 C 0.22542 0.30741 0.18211 0.0
C61 C 0.16131 0.30074 0.13785 0.0
O62 O 0.14318 0.29049 0.14388 0.0
H63 H 0.14785 0.26465 0.11351 0.0
H64 H 0.17011 0.25593 0.09341 0.0
H65 H 0.20541 0.2791 0.09274 0.0
H66 H 0.25373 0.33633 0.14873 0.0
H67 H 0.29055 0.39672 0.13917 0.0
H68 H 0.23521 0.36862 0.10655 0.0
H69 H 0.155 0.34619 0.22162 0.0
H70 H 0.17503 0.31033 0.19288 0.0
H71 H 0.15787 0.34126 0.14621 0.0
H72 H 0.2222 0.37258 0.20235 0.0
H73 H 0.21795 0.39735 0.18088 0.0
H74 H 0.20587 0.39149 0.13928 0.0
H75 H 0.21663 0.33733 0.08007 0.0
H76 H 0.17586 0.30062 0.02873 0.0
H77 H 0.15882 0.32362 0.08709 0.0
H78 H 0.17931 0.28355 0.16286 0.0
H79 H 0.21144 0.26094 0.19488 0.0
H80 H 0.23723 0.32175 0.18518 0.0
C81 C 0.71241 0.87954 0.12423 0.0
C82 C 0.73095 0.89081 0.11526 0.0
C83 C 0.73526 0.90789 0.10315 0.0
C84 C 0.72128 0.91347 0.10052 0.0
C85 C 0.70308 0.90152 0.10999 0.0
N86 N 0.6998 0.88544 0.12086 0.0
C87 C 0.68629 0.90425 0.11007 0.0
C88 C 0.65197 0.8889 0.12192 0.0
C89 C 0.65085 0.90412 0.13235 0.0
C90 C 0.63319 0.90327 0.13462 0.0
C91 C 0.61656 0.88748 0.12607 0.0
C92 C 0.61762 0.8726 0.11495 0.0
C93 C 0.63524 0.87333 0.11279 0.0
Cd94 Cd 0.68445 0.93694 0.06642 0.0
Cd95 Cd 0.71675 0.93429 0.00656 0.0
C96 C 0.67836 0.84164 0.16615 0.0
C97 C 0.66048 0.80835 0.17846 0.0
C98 C 0.66054 0.81424 0.20164 0.0
C99 C 0.67006 0.83364 0.20765 0.0
C100 C 0.67969 0.84736 0.18993 0.0
C101 C 0.66911 0.82204 0.16054 0.0
Co102 Co 0.67624 0.87096 0.13478 0.0
N103 N 0.68312 0.88604 0.16333 0.0
N104 N 0.65268 0.85612 0.14868 0.0
C105 C 0.65076 0.86098 0.17055 0.0
C106 C 0.63447 0.8484 0.18348 0.0
C107 C 0.62103 0.83096 0.1727 0.0
C108 C 0.62423 0.82631 0.1497 0.0
C109 C 0.64092 0.83957 0.13795 0.0
N110 N 0.66566 0.85291 0.10871 0.0
N111 N 0.66997 0.88931 0.12013 0.0
N112 N 0.68668 0.85571 0.14772 0.0
O113 O 0.69149 0.93526 0.98637 0.0
O114 O 0.68429 0.93805 0.02284 0.0
C115 C 0.65164 0.93947 0.08367 0.0
O116 O 0.65051 0.93046 0.06475 0.0
O117 O 0.66764 0.94713 0.09421 0.0
C118 C 0.72456 0.97441 0.04478 0.0
O119 O 0.71353 0.9706 0.0626 0.0
O120 O 0.72197 0.96069 0.03151 0.0
C121 C 0.66784 0.87852 0.17857 0.0
O122 O 0.66869 0.88602 0.19945 0.0
O123 O 0.68594 0.9075 0.05542 0.0
O124 O 0.70221 0.90387 0.02611 0.0
C125 C 0.64825 0.83775 0.11486 0.0
O126 O 0.63793 0.82371 0.10016 0.0
C127 C 0.67324 0.85602 0.08534 0.0
C128 C 0.67408 0.87098 0.07233 0.0
C129 C 0.68551 0.87779 0.05229 0.0
C130 C 0.69304 0.86684 0.04253 0.0
C131 C 0.6899 0.84993 0.05382 0.0
C132 C 0.68066 0.845 0.07588 0.0
C133 C 0.68264 0.94011 0.00085 0.0
O134 O 0.68787 0.92128 0.10366 0.0
C135 C 0.69094 0.89715 0.04361 0.0
C136 C 0.69944 0.90466 0.16673 0.0
C137 C 0.71779 0.90722 0.16991 0.0
C138 C 0.73276 0.92496 0.17731 0.0
C139 C 0.72926 0.93989 0.18256 0.0
C140 C 0.71062 0.93707 0.18038 0.0
C141 C 0.69636 0.91995 0.17056 0.0
C142 C 0.70487 0.86239 0.13943 0.0
O143 O 0.7156 0.85537 0.14668 0.0
H144 H 0.7418 0.88683 0.11786 0.0
H145 H 0.74949 0.91691 0.09611 0.0
H146 H 0.72462 0.92663 0.0915 0.0
H147 H 0.66352 0.91667 0.13868 0.0
H148 H 0.60293 0.88689 0.1278 0.0
H149 H 0.63577 0.86195 0.1035 0.0
H150 H 0.65383 0.8035 0.21537 0.0
H151 H 0.68789 0.86237 0.19454 0.0
H152 H 0.66889 0.81756 0.14246 0.0
H153 H 0.63246 0.85161 0.20144 0.0
H154 H 0.6084 0.82086 0.18236 0.0
H155 H 0.61427 0.81272 0.14171 0.0
H156 H 0.66653 0.878 0.07854 0.0
H157 H 0.70132 0.8714 0.02637 0.0
H158 H 0.67927 0.83277 0.08558 0.0
H159 H 0.72041 0.89541 0.16794 0.0
H160 H 0.7408 0.95293 0.18997 0.0
H161 H 0.68204 0.91756 0.16833 0.0
C162 C 0.12336 0.83472 0.12703 0.0
C163 C 0.11207 0.84217 0.1187 0.0
C164 C 0.09463 0.82952 0.10724 0.0
C165 C 0.08871 0.80986 0.10468 0.0
C166 C 0.10071 0.80343 0.11347 0.0
N167 N 0.11716 0.81615 0.12368 0.0
C168 C 0.09752 0.78373 0.11376 0.0
C169 C 0.11268 0.76432 0.12473 0.0
C170 C 0.09727 0.74801 0.13506 0.0
C171 C 0.09798 0.73115 0.13777 0.0
C172 C 0.11377 0.73015 0.12959 0.0
C173 C 0.12869 0.74591 0.11823 0.0
C174 C 0.12811 0.76286 0.1157 0.0
Cd175 Cd 0.06442 0.74956 0.07175 0.0
Cd176 Cd 0.07003 0.76463 0.03123 0.0
C177 C 0.16021 0.83747 0.16932 0.0
C178 C 0.19202 0.84823 0.18542 0.0
C179 C 0.18449 0.84615 0.20818 0.0
C180 C 0.16519 0.8402 0.21184 0.0
C181 C 0.153 0.83587 0.19238 0.0
C182 C 0.1798 0.844 0.16588 0.0
Co183 Co 0.13172 0.80689 0.13693 0.0
N184 N 0.11739 0.79915 0.16615 0.0
N185 N 0.14665 0.79797 0.15015 0.0
C186 C 0.14249 0.79171 0.17232 0.0
C187 C 0.15516 0.7877 0.18456 0.0
C188 C 0.17202 0.79097 0.17282 0.0
C189 C 0.17604 0.79845 0.14961 0.0
C190 C 0.16274 0.80222 0.13859 0.0
N191 N 0.14917 0.81408 0.11017 0.0
N192 N 0.11263 0.78214 0.12293 0.0
N193 N 0.14758 0.83259 0.14942 0.0
O194 O 0.07589 0.742 0.01271 0.0
O195 O 0.05365 0.72635 0.0391 0.0
C196 C 0.0636 0.71736 0.09377 0.0
O197 O 0.07552 0.72671 0.07746 0.0
O198 O 0.0527 0.72363 0.10068 0.0
C199 C 0.0262 0.74959 0.04269 0.0
O200 O 0.03185 0.74725 0.06295 0.0
O201 O 0.03804 0.75657 0.0258 0.0
C202 C 0.1254 0.79174 0.18119 0.0
O203 O 0.11807 0.78479 0.20206 0.0
O204 O 0.09506 0.77895 0.05945 0.0
O205 O 0.09694 0.79565 0.02775 0.0
C206 C 0.16413 0.81128 0.11552 0.0
O207 O 0.17759 0.81442 0.10013 0.0
C208 C 0.14562 0.81839 0.0869 0.0
C209 C 0.1309 0.80393 0.07423 0.0
C210 C 0.12402 0.80787 0.05368 0.0
C211 C 0.13471 0.82598 0.04308 0.0
C212 C 0.15142 0.84023 0.05425 0.0
C213 C 0.15635 0.83665 0.07682 0.0
C214 C 0.0621 0.72644 0.02022 0.0
O215 O 0.07993 0.76841 0.10891 0.0
C216 C 0.10476 0.79327 0.04583 0.0
C217 C 0.09849 0.79605 0.16988 0.0
C218 C 0.09516 0.81131 0.17326 0.0
C219 C 0.07712 0.80766 0.18061 0.0
C220 C 0.06258 0.78889 0.18527 0.0
C221 C 0.06594 0.7734 0.18245 0.0
C222 C 0.08368 0.77736 0.17333 0.0
C223 C 0.14082 0.84419 0.14166 0.0
O224 O 0.14787 0.86184 0.14932 0.0
H225 H 0.11631 0.85707 0.12131 0.0
H226 H 0.08558 0.83487 0.10071 0.0
H227 H 0.07523 0.80011 0.09627 0.0
H228 H 0.08459 0.74808 0.14088 0.0
H229 H 0.11425 0.71706 0.13161 0.0
H230 H 0.1395 0.77458 0.10619 0.0
H231 H 0.19386 0.84973 0.22338 0.0
H232 H 0.13803 0.83133 0.19509 0.0
H233 H 0.18542 0.84571 0.14813 0.0
H234 H 0.15245 0.78277 0.20266 0.0
H235 H 0.18217 0.78817 0.18192 0.0
H236 H 0.18923 0.80156 0.1409 0.0
H237 H 0.12411 0.78958 0.08121 0.0
H238 H 0.13004 0.82907 0.02654 0.0
H239 H 0.16853 0.8478 0.08624 0.0
H240 H 0.10657 0.82595 0.17127 0.0
H241 H 0.0493 0.78694 0.19238 0.0
H242 H 0.08692 0.76613 0.17052 0.0
C243 C 0.83314 0.71415 0.87568 0.0
C244 C 0.84047 0.7318 0.88717 0.0
C245 C 0.82741 0.73587 0.89892 0.0
C246 C 0.80754 0.72246 0.89896 0.0
C247 C 0.80125 0.70514 0.88705 0.0
N248 N 0.81424 0.70223 0.8761 0.0
C249 C 0.78167 0.68859 0.88538 0.0
C250 C 0.76275 0.6556 0.86927 0.0
C251 C 0.74871 0.65652 0.85558 0.0
C252 C 0.73179 0.63977 0.84971 0.0
C253 C 0.7287 0.62203 0.85762 0.0
C254 C 0.74239 0.62106 0.87175 0.0
C255 C 0.75933 0.63778 0.87764 0.0
Cd256 Cd 0.74884 0.68519 0.9306 0.0
Cd257 Cd 0.77784 0.71013 0.99723 0.0
C258 C 0.83897 0.68111 0.83398 0.0
C259 C 0.85546 0.66363 0.82443 0.0
C260 C 0.85371 0.66661 0.80054 0.0
C261 C 0.84338 0.67529 0.79275 0.0
C262 C 0.83682 0.68341 0.80969 0.0
C263 C 0.84822 0.67106 0.84136 0.0
Co264 Co 0.80564 0.67893 0.86172 0.0
N265 N 0.79869 0.68618 0.83191 0.0
N266 N 0.79744 0.65547 0.84771 0.0
C267 C 0.79233 0.65398 0.82512 0.0
C268 C 0.78897 0.63764 0.81257 0.0
C269 C 0.7916 0.6237 0.82449 0.0
C270 C 0.79781 0.62647 0.84824 0.0
C271 C 0.80096 0.64322 0.85956 0.0
N272 N 0.81172 0.66794 0.88874 0.0
N273 N 0.7805 0.67263 0.87455 0.0
N274 N 0.83196 0.68925 0.85113 0.0
O275 O 0.74953 0.68237 0.01101 0.0
O276 O 0.74915 0.68205 0.97278 0.0
C277 C 0.71326 0.65196 0.91822 0.0
O278 O 0.7283 0.65092 0.92146 0.0
O279 O 0.7147 0.66819 0.92149 0.0
C280 C 0.75231 0.72539 0.95585 0.0
O281 O 0.74632 0.71473 0.9375 0.0
O282 O 0.76131 0.72206 0.97191 0.0
C283 C 0.79262 0.67123 0.81624 0.0
O284 O 0.78842 0.6726 0.79416 0.0
O285 O 0.77836 0.68734 0.94522 0.0
O286 O 0.79665 0.69913 0.97686 0.0
C287 C 0.80886 0.6502 0.88322 0.0
O288 O 0.81173 0.63964 0.89855 0.0
C289 C 0.81659 0.67582 0.91198 0.0
C290 C 0.8025 0.67629 0.9253 0.0
C291 C 0.80688 0.6858 0.94678 0.0
C292 C 0.82491 0.69205 0.95695 0.0
C293 C 0.83938 0.69052 0.94467 0.0
C294 C 0.83507 0.68288 0.92144 0.0
C295 C 0.73997 0.67657 0.99203 0.0
O296 O 0.7661 0.69001 0.89159 0.0
C297 C 0.793 0.69045 0.95723 0.0
C298 C 0.79561 0.70207 0.82759 0.0
C299 C 0.81016 0.72098 0.83152 0.0
C300 C 0.80705 0.7362 0.82694 0.0
C301 C 0.78982 0.73284 0.81701 0.0
C302 C 0.77571 0.71414 0.81068 0.0
C303 C 0.77838 0.69883 0.81719 0.0
C304 C 0.8433 0.70683 0.86119 0.0
O305 O 0.86172 0.71714 0.85663 0.0
H306 H 0.85564 0.74212 0.88698 0.0
H307 H 0.83269 0.7494 0.90799 0.0
H308 H 0.79758 0.72546 0.90819 0.0
H309 H 0.75087 0.67013 0.84932 0.0
H310 H 0.7156 0.60908 0.85309 0.0
H311 H 0.76962 0.6368 0.88891 0.0
H312 H 0.86022 0.66156 0.7878 0.0
H313 H 0.82977 0.69116 0.80415 0.0
H314 H 0.84964 0.66901 0.85999 0.0
H315 H 0.78494 0.6359 0.79413 0.0
H316 H 0.78927 0.611 0.81517 0.0
H317 H 0.80045 0.61614 0.85715 0.0
H318 H 0.78809 0.66964 0.91845 0.0
H319 H 0.82728 0.69796 0.9745 0.0
H320 H 0.84578 0.6824 0.91048 0.0
H321 H 0.82418 0.72419 0.83714 0.0
H322 H 0.78802 0.74501 0.81321 0.0
H323 H 0.76757 0.68433 0.8128 0.0
C324 C 0.29049 0.11893 0.87395 0.0
C325 C 0.27297 0.10891 0.88581 0.0
C326 C 0.26931 0.09245 0.89895 0.0
C327 C 0.28299 0.08634 0.9 0.0
C328 C 0.30017 0.09704 0.8877 0.0
N329 N 0.30267 0.1123 0.87543 0.0
C330 C 0.31704 0.09443 0.88689 0.0
C331 C 0.35031 0.10918 0.87108 0.0
C332 C 0.35083 0.09604 0.85535 0.0
C333 C 0.36835 0.09786 0.84872 0.0
C334 C 0.38539 0.11239 0.85838 0.0
C335 C 0.38492 0.12517 0.87462 0.0
C336 C 0.36744 0.1236 0.88093 0.0
Cd337 Cd 0.31981 0.06354 0.93243 0.0
Cd338 Cd 0.29554 0.06854 0.9966 0.0
C339 C 0.32386 0.15733 0.83153 0.0
C340 C 0.34113 0.19156 0.82351 0.0
C341 C 0.34251 0.18776 0.79978 0.0
C342 C 0.33429 0.16898 0.79131 0.0
C343 C 0.32433 0.15373 0.80724 0.0
C344 C 0.33192 0.17634 0.83952 0.0
Co345 Co 0.32581 0.12668 0.86068 0.0
N346 N 0.31875 0.11105 0.83185 0.0
N347 N 0.34915 0.14165 0.84634 0.0
C348 C 0.35077 0.13709 0.82423 0.0
C349 C 0.36714 0.1496 0.81137 0.0
C350 C 0.38097 0.16668 0.82248 0.0
C351 C 0.37806 0.17106 0.84574 0.0
C352 C 0.3613 0.15789 0.85742 0.0
N353 N 0.33654 0.14498 0.8867 0.0
N354 N 0.33273 0.10901 0.87543 0.0
N355 N 0.31499 0.14169 0.84806 0.0
O356 O 0.32334 0.06849 0.01257 0.0
O357 O 0.32218 0.06642 0.97446 0.0
C358 C 0.35294 0.06135 0.91799 0.0
O359 O 0.35254 0.06818 0.93801 0.0
O360 O 0.33817 0.05549 0.90519 0.0
C361 C 0.27907 0.02667 0.95722 0.0
O362 O 0.29038 0.03143 0.93948 0.0
O363 O 0.28186 0.03879 0.97336 0.0
C364 C 0.33366 0.11964 0.81605 0.0
O365 O 0.33233 0.11343 0.79428 0.0
O366 O 0.31913 0.09299 0.94246 0.0
O367 O 0.3063 0.09802 0.97444 0.0
C368 C 0.35425 0.15969 0.88068 0.0
O369 O 0.36485 0.17359 0.89543 0.0
C370 C 0.32915 0.14229 0.91023 0.0
C371 C 0.32947 0.12829 0.92397 0.0
C372 C 0.31938 0.12245 0.94508 0.0
C373 C 0.31222 0.13365 0.95496 0.0
C374 C 0.3139 0.14979 0.94272 0.0
C375 C 0.32168 0.15335 0.91958 0.0
C376 C 0.32963 0.06531 0.99364 0.0
O377 O 0.31603 0.0778 0.894 0.0
C378 C 0.31521 0.10377 0.95498 0.0
C379 C 0.30344 0.09148 0.8288 0.0
C380 C 0.28441 0.08608 0.83393 0.0
C381 C 0.26991 0.06705 0.83169 0.0
C382 C 0.27395 0.05337 0.82271 0.0
C383 C 0.29249 0.05881 0.81464 0.0
C384 C 0.30725 0.07768 0.81889 0.0
C385 C 0.29746 0.1357 0.85814 0.0
O386 O 0.28711 0.14367 0.85304 0.0
H387 H 0.26245 0.11349 0.88487 0.0
H388 H 0.25589 0.08446 0.90832 0.0
H389 H 0.2803 0.07392 0.91029 0.0
H390 H 0.33777 0.08459 0.848 0.0
H391 H 0.39892 0.11367 0.85339 0.0
H392 H 0.36732 0.13374 0.8933 0.0
H393 H 0.34937 0.1997 0.78757 0.0
H394 H 0.31716 0.13915 0.80085 0.0
H395 H 0.33093 0.17919 0.85799 0.0
H396 H 0.36901 0.14657 0.79327 0.0
H397 H 0.39369 0.1767 0.8129 0.0
H398 H 0.38833 0.1844 0.85401 0.0
H399 H 0.33698 0.12127 0.91757 0.0
H400 H 0.30561 0.1298 0.97219 0.0
H401 H 0.32193 0.16454 0.90874 0.0
H402 H 0.28045 0.09649 0.83881 0.0
H403 H 0.26228 0.03881 0.82081 0.0
H404 H 0.32162 0.082 0.81321 0.0
C405 C 0.87921 0.16771 0.87536 0.0
C406 C 0.89056 0.16051 0.88428 0.0
C407 C 0.90807 0.1735 0.89534 0.0
C408 C 0.91398 0.19321 0.89701 0.0
C409 C 0.9019 0.19936 0.8877 0.0
N410 N 0.88545 0.18638 0.87777 0.0
C411 C 0.90492 0.21897 0.88676 0.0
C412 C 0.89005 0.23822 0.87425 0.0
C413 C 0.90559 0.25394 0.86315 0.0
C414 C 0.90547 0.27105 0.85973 0.0
C415 C 0.8901 0.27284 0.86779 0.0
C416 C 0.875 0.25763 0.87972 0.0
C417 C 0.87502 0.24046 0.88305 0.0
Cd418 Cd 0.93822 0.25431 0.92767 0.0
Cd419 Cd 0.9418 0.23206 0.95389 0.0
C420 C 0.84028 0.16321 0.83508 0.0
C421 C 0.80743 0.15222 0.82344 0.0
C422 C 0.8131 0.15466 0.79982 0.0
C423 C 0.83178 0.15959 0.79328 0.0
C424 C 0.8455 0.16411 0.81115 0.0
C425 C 0.82107 0.15645 0.84118 0.0
Co426 Co 0.87052 0.1952 0.86444 0.0
N427 N 0.88412 0.20211 0.83458 0.0
N428 N 0.85513 0.2036 0.8512 0.0
C429 C 0.85843 0.20874 0.82858 0.0
C430 C 0.8453 0.21214 0.81644 0.0
C431 C 0.82885 0.20939 0.82875 0.0
C432 C 0.82567 0.20299 0.85245 0.0
C433 C 0.83942 0.19982 0.86335 0.0
N434 N 0.85375 0.18883 0.89178 0.0
N435 N 0.88977 0.22033 0.87733 0.0
N436 N 0.85452 0.16911 0.85323 0.0
O437 O 0.95123 0.25678 0.98327 0.0
O438 O 0.93495 0.26768 0.96427 0.0
C439 C 0.9413 0.28763 0.9049 0.0
O440 O 0.92778 0.27752 0.9191 0.0
O441 O 0.95311 0.28191 0.90061 0.0
C442 C 0.98084 0.25095 0.94294 0.0
O443 O 0.97262 0.2608 0.93878 0.0
O444 O 0.9707 0.23285 0.94444 0.0
C445 C 0.87519 0.20836 0.81924 0.0
O446 O 0.88162 0.21429 0.79777 0.0
O447 O 0.90873 0.22431 0.93998 0.0
O448 O 0.91189 0.20381 0.96233 0.0
C449 C 0.83873 0.1916 0.88679 0.0
O450 O 0.82555 0.18866 0.90251 0.0
C451 C 0.85757 0.18436 0.9148 0.0
C452 C 0.87257 0.19867 0.92726 0.0
C453 C 0.8809 0.19427 0.94604 0.0
C454 C 0.87091 0.17573 0.95597 0.0
C455 C 0.85347 0.1616 0.9457 0.0
C456 C 0.84753 0.16581 0.92416 0.0
C457 C 0.94445 0.26793 0.98216 0.0
O458 O 0.92243 0.23442 0.8914 0.0
C459 C 0.90116 0.20842 0.9512 0.0
C460 C 0.90348 0.20655 0.8308 0.0
C461 C 0.9086 0.19232 0.83062 0.0
C462 C 0.92724 0.19701 0.8245 0.0
C463 C 0.94063 0.21573 0.81777 0.0
C464 C 0.9353 0.22989 0.81698 0.0
C465 C 0.91706 0.22527 0.82472 0.0
C466 C 0.86151 0.15778 0.86125 0.0
O467 O 0.85411 0.13981 0.85472 0.0
H468 H 0.88628 0.14553 0.88245 0.0
H469 H 0.91716 0.16835 0.90233 0.0
H470 H 0.92746 0.20319 0.90524 0.0
H471 H 0.91788 0.25314 0.85723 0.0
H472 H 0.89005 0.28611 0.86518 0.0
H473 H 0.86355 0.22918 0.89304 0.0
H474 H 0.80243 0.15165 0.78633 0.0
H475 H 0.86011 0.16821 0.80664 0.0
H476 H 0.81685 0.15458 0.85957 0.0
H477 H 0.84735 0.21623 0.79801 0.0
H478 H 0.81834 0.21171 0.81975 0.0
H479 H 0.81274 0.20017 0.86161 0.0
H480 H 0.87895 0.2131 0.9205 0.0
H481 H 0.87674 0.17221 0.97115 0.0
H482 H 0.83507 0.15492 0.9149 0.0
H483 H 0.89815 0.17756 0.83421 0.0
H484 H 0.95459 0.2187 0.8118 0.0
H485 H 0.91275 0.23598 0.82426 0.0
C486 C 0.83726 0.62258 0.46018 0.0
C487 C 0.82986 0.60412 0.45092 0.0
C488 C 0.84272 0.59949 0.4397 0.0
C489 C 0.86249 0.61313 0.43812 0.0
C490 C 0.86885 0.63129 0.44777 0.0
N491 N 0.856 0.6348 0.45801 0.0
C492 C 0.88848 0.64786 0.44853 0.0
C493 C 0.90765 0.68198 0.46066 0.0
C494 C 0.92294 0.68235 0.47305 0.0
C495 C 0.94027 0.69949 0.47556 0.0
C496 C 0.94262 0.71631 0.46538 0.0
C497 C 0.92766 0.71598 0.4526 0.0
C498 C 0.91024 0.6989 0.45023 0.0
Cd499 Cd 0.92306 0.65038 0.40672 0.0
Cd500 Cd 0.90722 0.63817 0.36235 0.0
C501 C 0.83272 0.65744 0.4997 0.0
C502 C 0.81914 0.67744 0.51013 0.0
C503 C 0.82143 0.67467 0.53397 0.0
C504 C 0.82851 0.66279 0.541 0.0
C505 C 0.83414 0.6541 0.52383 0.0
C506 C 0.82472 0.66874 0.49285 0.0
Co507 Co 0.86489 0.65869 0.47086 0.0
N508 N 0.87223 0.6525 0.50097 0.0
N509 N 0.87334 0.68269 0.48349 0.0
C510 C 0.87823 0.68475 0.5062 0.0
C511 C 0.88138 0.70132 0.51798 0.0
C512 C 0.87862 0.71484 0.50526 0.0
C513 C 0.87238 0.71137 0.48153 0.0
C514 C 0.86946 0.69442 0.471 0.0
N515 N 0.85822 0.66864 0.44328 0.0
N516 N 0.88983 0.66439 0.45781 0.0
N517 N 0.83886 0.6488 0.48219 0.0
O518 O 0.93304 0.6674 0.34821 0.0
O519 O 0.94715 0.65949 0.37537 0.0
C520 C 0.95481 0.68352 0.42739 0.0
O521 O 0.94625 0.68481 0.40917 0.0
O522 O 0.94785 0.667 0.43681 0.0
C523 C 0.92101 0.60926 0.38247 0.0
O524 O 0.92557 0.62027 0.40051 0.0
O525 O 0.91307 0.612 0.36473 0.0
C526 C 0.87783 0.66775 0.51607 0.0
O527 O 0.88273 0.66727 0.53809 0.0
O528 O 0.89334 0.64969 0.39172 0.0
O529 O 0.87702 0.6363 0.35938 0.0
C530 C 0.86111 0.68654 0.44779 0.0
O531 O 0.85807 0.69657 0.43182 0.0
C532 C 0.85372 0.66031 0.4203 0.0
C533 C 0.86817 0.66009 0.40759 0.0
C534 C 0.86437 0.64992 0.38655 0.0
C535 C 0.84626 0.64276 0.37591 0.0
C536 C 0.83186 0.64482 0.38745 0.0
C537 C 0.83547 0.65295 0.41023 0.0
C538 C 0.9481 0.66864 0.35677 0.0
O539 O 0.90397 0.64585 0.44387 0.0
C540 C 0.87916 0.64571 0.3781 0.0
C541 C 0.87761 0.63823 0.50544 0.0
C542 C 0.86437 0.61858 0.50384 0.0
C543 C 0.86945 0.60516 0.51134 0.0
C544 C 0.8874 0.61122 0.52149 0.0
C545 C 0.90031 0.63086 0.52436 0.0
C546 C 0.89581 0.64407 0.51474 0.0
C547 C 0.82742 0.63051 0.47416 0.0
O548 O 0.80935 0.62015 0.48036 0.0
H549 H 0.81482 0.59357 0.45253 0.0
H550 H 0.83741 0.58532 0.43242 0.0
H551 H 0.87234 0.60959 0.42963 0.0
H552 H 0.9216 0.66943 0.48056 0.0
H553 H 0.95611 0.7295 0.46708 0.0
H554 H 0.89905 0.69885 0.43973 0.0
H555 H 0.8169 0.68125 0.54728 0.0
H556 H 0.83934 0.6446 0.52912 0.0
H557 H 0.82279 0.67062 0.47431 0.0
H558 H 0.88528 0.70351 0.53646 0.0
H559 H 0.88074 0.7277 0.51398 0.0
H560 H 0.86944 0.72129 0.47207 0.0
H561 H 0.88248 0.6674 0.41477 0.0
H562 H 0.84327 0.63542 0.3591 0.0
H563 H 0.82439 0.65397 0.41981 0.0
H564 H 0.84991 0.61351 0.49803 0.0
H565 H 0.89054 0.60062 0.52859 0.0
H566 H 0.90597 0.65922 0.51661 0.0
C567 C 0.37895 0.21446 0.45687 0.0
C568 C 0.39764 0.22541 0.44823 0.0
C569 C 0.40263 0.24284 0.43658 0.0
C570 C 0.38913 0.24908 0.43399 0.0
C571 C 0.37073 0.23743 0.44309 0.0
N572 N 0.36686 0.22106 0.4537 0.0
C573 C 0.35426 0.24069 0.4428 0.0
C574 C 0.32011 0.22632 0.45525 0.0
C575 C 0.32022 0.24177 0.46689 0.0
C576 C 0.30301 0.24113 0.47236 0.0
C577 C 0.28559 0.22532 0.4657 0.0
C578 C 0.28541 0.21049 0.45279 0.0
C579 C 0.3026 0.21108 0.4474 0.0
Cd580 Cd 0.3541 0.27237 0.39735 0.0
Cd581 Cd 0.38844 0.27274 0.33952 0.0
C582 C 0.34262 0.17504 0.49564 0.0
C583 C 0.32077 0.14155 0.504 0.0
C584 C 0.31923 0.14644 0.52718 0.0
C585 C 0.33243 0.16451 0.53645 0.0
C586 C 0.34396 0.17906 0.5201 0.0
C587 C 0.33214 0.15599 0.48795 0.0
Co588 Co 0.34275 0.20636 0.46609 0.0
N589 N 0.3487 0.21998 0.4959 0.0
N590 N 0.31857 0.19112 0.47839 0.0
C591 C 0.31616 0.1944 0.50082 0.0
C592 C 0.29938 0.18121 0.51247 0.0
C593 C 0.28605 0.16471 0.49995 0.0
C594 C 0.28988 0.16151 0.47655 0.0
C595 C 0.30701 0.17532 0.46613 0.0
N596 N 0.33301 0.18963 0.4386 0.0
N597 N 0.3375 0.22572 0.45209 0.0
N598 N 0.35223 0.19016 0.47864 0.0
O599 O 0.36498 0.27641 0.31764 0.0
O600 O 0.35789 0.2744 0.35484 0.0
C601 C 0.32011 0.27457 0.40714 0.0
O602 O 0.31892 0.25862 0.40229 0.0
O603 O 0.33672 0.28922 0.40644 0.0
C604 C 0.39791 0.31167 0.38054 0.0
O605 O 0.38396 0.305 0.39524 0.0
O606 O 0.39854 0.30128 0.36405 0.0
C607 C 0.33314 0.21108 0.51065 0.0
O608 O 0.33336 0.21712 0.53227 0.0
O609 O 0.35641 0.24457 0.38517 0.0
O610 O 0.37336 0.24102 0.35697 0.0
C611 C 0.31513 0.17458 0.44316 0.0
O612 O 0.30529 0.1613 0.42736 0.0
C613 C 0.34186 0.19312 0.41588 0.0
C614 C 0.34374 0.2085 0.40286 0.0
C615 C 0.35522 0.21471 0.38275 0.0
C616 C 0.36197 0.2031 0.37321 0.0
C617 C 0.358 0.18589 0.38454 0.0
C618 C 0.34857 0.18141 0.40659 0.0
C619 C 0.35549 0.27857 0.33398 0.0
O620 O 0.35639 0.25803 0.43657 0.0
C621 C 0.36141 0.23415 0.37381 0.0
C622 C 0.36361 0.23931 0.49994 0.0
C623 C 0.38298 0.24451 0.49995 0.0
C624 C 0.39698 0.26328 0.50549 0.0
C625 C 0.39166 0.27673 0.51191 0.0
C626 C 0.37217 0.27126 0.51316 0.0
C627 C 0.35847 0.25288 0.50608 0.0
C628 C 0.37063 0.19679 0.47122 0.0
O629 O 0.38069 0.18892 0.47812 0.0
H630 H 0.40808 0.22086 0.45064 0.0
H631 H 0.41699 0.25161 0.42977 0.0
H632 H 0.39297 0.26246 0.4252 0.0
H633 H 0.3335 0.25422 0.47204 0.0
H634 H 0.27228 0.22484 0.46993 0.0
H635 H 0.30217 0.19968 0.43699 0.0
H636 H 0.30905 0.13508 0.53846 0.0
H637 H 0.35401 0.19339 0.52603 0.0
H638 H 0.33312 0.15245 0.46975 0.0
H639 H 0.29692 0.18324 0.53074 0.0
H640 H 0.27306 0.15415 0.50859 0.0
H641 H 0.28007 0.14852 0.46727 0.0
H642 H 0.33678 0.21613 0.40904 0.0
H643 H 0.37048 0.20751 0.35722 0.0
H644 H 0.34609 0.16879 0.41628 0.0
H645 H 0.38732 0.23405 0.49665 0.0
H646 H 0.40267 0.29086 0.51739 0.0
H647 H 0.34346 0.24857 0.50702 0.0
C648 C 0.7887 0.16723 0.46086 0.0
C649 C 0.77797 0.17484 0.45114 0.0
C650 C 0.76052 0.16212 0.43974 0.0
C651 C 0.7541 0.14228 0.43847 0.0
C652 C 0.76558 0.1357 0.44858 0.0
N653 N 0.78195 0.14842 0.45892 0.0
C654 C 0.76219 0.11596 0.44954 0.0
C655 C 0.77634 0.09629 0.46274 0.0
C656 C 0.7609 0.08124 0.47481 0.0
C657 C 0.76032 0.0638 0.47834 0.0
C658 C 0.77496 0.0611 0.46955 0.0
C659 C 0.79005 0.07575 0.45691 0.0
C660 C 0.79072 0.09324 0.45345 0.0
Cd661 Cd 0.72899 0.08219 0.40714 0.0
Cd662 Cd 0.73394 0.09887 0.36504 0.0
C663 C 0.82792 0.17146 0.50054 0.0
C664 C 0.86135 0.18338 0.51003 0.0
C665 C 0.85666 0.18115 0.53398 0.0
C666 C 0.83819 0.17601 0.54174 0.0
C667 C 0.82371 0.17094 0.52476 0.0
C668 C 0.84692 0.17853 0.4932 0.0
Co669 Co 0.79662 0.13926 0.47217 0.0
N670 N 0.78299 0.13231 0.50224 0.0
N671 N 0.81187 0.13058 0.48525 0.0
C672 C 0.80905 0.12611 0.50809 0.0
C673 C 0.82231 0.12289 0.52019 0.0
C674 C 0.83847 0.12518 0.50764 0.0
C675 C 0.84129 0.13105 0.48376 0.0
C676 C 0.82742 0.13406 0.47291 0.0
N677 N 0.8134 0.14556 0.44475 0.0
N678 N 0.77713 0.11433 0.45918 0.0
N679 N 0.81294 0.16533 0.48334 0.0
O680 O 0.73982 0.07728 0.34396 0.0
O681 O 0.72384 0.06012 0.37459 0.0
C682 C 0.72712 0.04966 0.42995 0.0
O683 O 0.74003 0.05951 0.41486 0.0
O684 O 0.71567 0.05562 0.43553 0.0
C685 C 0.69015 0.08242 0.37805 0.0
O686 O 0.69602 0.07881 0.39739 0.0
O687 O 0.70177 0.09072 0.36125 0.0
C688 C 0.79263 0.12695 0.51772 0.0
O689 O 0.78715 0.12224 0.53975 0.0
O690 O 0.7586 0.11259 0.39449 0.0
O691 O 0.7608 0.13009 0.36347 0.0
C692 C 0.82813 0.1423 0.44953 0.0
O693 O 0.84125 0.14513 0.43377 0.0
C694 C 0.81 0.15056 0.42181 0.0
C695 C 0.79465 0.13681 0.40936 0.0
C696 C 0.78778 0.14158 0.38949 0.0
C697 C 0.79893 0.15983 0.37928 0.0
C698 C 0.8165 0.17331 0.38984 0.0
C699 C 0.82153 0.16877 0.41185 0.0
C700 C 0.73026 0.06117 0.35392 0.0
O701 O 0.74463 0.10068 0.44454 0.0
C702 C 0.76841 0.12734 0.38149 0.0
C703 C 0.76323 0.12664 0.50629 0.0
C704 C 0.75644 0.13951 0.50365 0.0
C705 C 0.73762 0.13404 0.51004 0.0
C706 C 0.72572 0.11604 0.52008 0.0
C707 C 0.73278 0.1035 0.52401 0.0
C708 C 0.75097 0.10846 0.51574 0.0
C709 C 0.80639 0.17693 0.47499 0.0
O710 O 0.81444 0.19511 0.48081 0.0
H711 H 0.78271 0.18996 0.4525 0.0
H712 H 0.75192 0.16761 0.43208 0.0
H713 H 0.74073 0.13253 0.42983 0.0
H714 H 0.74925 0.08288 0.48141 0.0
H715 H 0.77447 0.04757 0.47223 0.0
H716 H 0.80221 0.10416 0.44306 0.0
H717 H 0.86796 0.18457 0.54671 0.0
H718 H 0.80926 0.16678 0.53016 0.0
H719 H 0.85039 0.18028 0.47457 0.0
H720 H 0.82059 0.1193 0.53878 0.0
H721 H 0.84909 0.123 0.5166 0.0
H722 H 0.85409 0.13369 0.47443 0.0
H723 H 0.78745 0.12234 0.41609 0.0
H724 H 0.79418 0.16335 0.36311 0.0
H725 H 0.83418 0.17926 0.4212 0.0
H726 H 0.76573 0.15398 0.49772 0.0
H727 H 0.71163 0.11254 0.52622 0.0
H728 H 0.75618 0.09854 0.51843 0.0
C729 C 0.49993 0.04552 0.20764 0.0
C730 C 0.50818 0.06319 0.21925 0.0
C731 C 0.4959 0.06796 0.23169 0.0
C732 C 0.47589 0.05522 0.23223 0.0
C733 C 0.46868 0.03783 0.22018 0.0
N734 N 0.48096 0.03424 0.20862 0.0
C735 C 0.44873 0.02198 0.21859 0.0
C736 C 0.42822 0.98893 0.20345 0.0
C737 C 0.41346 0.99026 0.19199 0.0
C738 C 0.39554 0.97393 0.18872 0.0
C739 C 0.39214 0.95619 0.19704 0.0
C740 C 0.40661 0.9548 0.20883 0.0
C741 C 0.42457 0.9711 0.21207 0.0
Cd742 Cd 0.41465 0.02009 0.26134 0.0
Cd743 Cd 0.44539 0.04744 0.32588 0.0
C744 C 0.5025 0.01401 0.16134 0.0
C745 C 0.5158 0.9959 0.14208 0.0
C746 C 0.51632 0.00523 0.1209 0.0
C747 C 0.50919 0.01778 0.11925 0.0
C748 C 0.50249 0.02237 0.13952 0.0
C749 C 0.50897 1.00062 0.16257 0.0
Co750 Co 0.47114 0.01097 0.19385 0.0
N751 N 0.46434 0.01909 0.16461 0.0
N752 N 0.46183 0.98752 0.17945 0.0
C753 C 0.45701 0.98669 0.15681 0.0
C754 C 0.45321 0.97044 0.14374 0.0
C755 C 0.45527 0.95596 0.15515 0.0
C756 C 0.46144 0.95814 0.1789 0.0
C757 C 0.46504 0.97483 0.19077 0.0
N758 N 0.47685 0.99927 0.22041 0.0
N759 N 0.44653 0.00573 0.20741 0.0
N760 N 0.49714 0.02022 0.18237 0.0
O761 O 0.41593 0.02251 0.34232 0.0
O762 O 0.41353 0.01939 0.30417 0.0
C763 C 0.37981 0.98689 0.2461 0.0
O764 O 0.38981 0.98575 0.26267 0.0
O765 O 0.3858 0.00335 0.23717 0.0
C766 C 0.41863 0.0603 0.28388 0.0
O767 O 0.41197 0.05003 0.26536 0.0
O768 O 0.42782 0.05603 0.29845 0.0
C769 C 0.45804 0.00444 0.14848 0.0
O770 O 0.45308 0.00607 0.12686 0.0
O771 O 0.44375 0.01999 0.27419 0.0
O772 O 0.46173 0.03287 0.30606 0.0
C773 C 0.47332 0.98138 0.21443 0.0
O774 O 0.47571 0.97029 0.22941 0.0
C775 C 0.48145 0.00672 0.24391 0.0
C776 C 0.4673 0.00721 0.25717 0.0
C777 C 0.47182 0.01778 0.27794 0.0
C778 C 0.49007 0.02471 0.28795 0.0
C779 C 0.50442 0.02269 0.27602 0.0
C780 C 0.50001 0.01432 0.25321 0.0
C781 C 0.40551 0.01509 0.32423 0.0
O782 O 0.43381 0.02455 0.22441 0.0
C783 C 0.45807 0.02326 0.28707 0.0
C784 C 0.45992 0.03429 0.16213 0.0
C785 C 0.47351 0.0533 0.16738 0.0
C786 C 0.46861 0.0676 0.16613 0.0
C787 C 0.45052 0.06333 0.15817 0.0
C788 C 0.4373 0.04474 0.15028 0.0
C789 C 0.44194 0.03022 0.1534 0.0
C790 C 0.50918 0.03765 0.19244 0.0
O791 O 0.52732 0.04783 0.18642 0.0
H792 H 0.52346 0.07302 0.21863 0.0
H793 H 0.50189 0.08152 0.24086 0.0
H794 H 0.4665 0.05877 0.24189 0.0
H795 H 0.41569 0.00388 0.18574 0.0
H796 H 0.37825 0.94357 0.19456 0.0
H797 H 0.43535 0.96981 0.22187 0.0
H798 H 0.52231 0.00279 0.10509 0.0
H799 H 0.49753 0.0326 0.13844 0.0
H800 H 0.50874 0.99414 0.17938 0.0
H801 H 0.44932 0.96918 0.12528 0.0
H802 H 0.45262 0.94332 0.14542 0.0
H803 H 0.46377 0.94745 0.18737 0.0
H804 H 0.45284 1.0002 0.25045 0.0
H805 H 0.49286 0.03162 0.30496 0.0
H806 H 0.51082 0.01383 0.24242 0.0
H807 H 0.48796 0.05727 0.17206 0.0
H808 H 0.44735 0.07486 0.15725 0.0
H809 H 0.43192 0.01574 0.14806 0.0
C810 C 0.95826 0.45717 0.20603 0.0
C811 C 0.93955 0.44589 0.21445 0.0
C812 C 0.93461 0.42816 0.22523 0.0
C813 C 0.94816 0.42194 0.2271 0.0
C814 C 0.96657 0.43395 0.21826 0.0
N815 N 0.97045 0.45064 0.20863 0.0
C816 C 0.98301 0.43068 0.21765 0.0
C817 C 0.0175 0.44581 0.20679 0.0
C818 C 0.01826 0.43085 0.19502 0.0
C819 C 0.03563 0.43111 0.19269 0.0
C820 C 0.05231 0.44601 0.20252 0.0
C821 C 0.05158 0.46056 0.21496 0.0
C822 C 0.03425 0.46043 0.21717 0.0
Cd823 Cd 0.98287 0.39607 0.2585 0.0
Cd824 Cd 0.96248 0.39636 0.2938 0.0
C825 C 0.9935 0.49622 0.16646 0.0
C826 C 0.01473 0.52939 0.1555 0.0
C827 C 0.01167 0.52416 0.13175 0.0
C828 C 0.99853 0.50539 0.12486 0.0
C829 C 0.98955 0.4913 0.14241 0.0
C830 C 0.00556 0.51541 0.17295 0.0
Co831 Co 0.99442 0.46547 0.19586 0.0
N832 N 0.98806 0.45207 0.16585 0.0
N833 N 0.01844 0.48075 0.1832 0.0
C834 C 0.02061 0.47752 0.16067 0.0
C835 C 0.03739 0.49061 0.14893 0.0
C836 C 0.05099 0.50693 0.16152 0.0
C837 C 0.04744 0.51004 0.18509 0.0
C838 C 0.0303 0.49634 0.19559 0.0
N839 N 0.00458 0.48204 0.22346 0.0
N840 N 0.99977 0.44592 0.20886 0.0
N841 N 0.98479 0.48179 0.18438 0.0
O842 O 0.98121 0.39321 0.32373 0.0
O843 O 0.99617 0.38983 0.29339 0.0
C844 C 0.01547 0.39624 0.23801 0.0
O845 O 0.01676 0.40592 0.25631 0.0
O846 O 0.99899 0.38689 0.22847 0.0
C847 C 0.93783 0.35546 0.27814 0.0
O848 O 0.95362 0.36204 0.26664 0.0
O849 O 0.93424 0.36694 0.28924 0.0
C850 C 0.00352 0.4609 0.15095 0.0
O851 O 0.00326 0.4546 0.12947 0.0
O852 O 0.9833 0.42616 0.2719 0.0
O853 O 0.9631 0.42568 0.29837 0.0
C854 C 0.02248 0.49701 0.2188 0.0
O855 O 0.03265 0.51 0.23475 0.0
C856 C 0.99627 0.47809 0.24647 0.0
C857 C 0.99507 0.46271 0.25858 0.0
C858 C 0.98303 0.45507 0.27801 0.0
C859 C 0.97546 0.46569 0.28852 0.0
C860 C 0.97921 0.48336 0.27851 0.0
C861 C 0.98887 0.4889 0.25658 0.0
C862 C 0.99369 0.3897 0.31544 0.0
O863 O 0.98067 0.41299 0.22197 0.0
C864 C 0.97683 0.43501 0.28421 0.0
C865 C 0.97272 0.43299 0.16144 0.0
C866 C 0.95361 0.42866 0.16071 0.0
C867 C 0.93924 0.41033 0.15413 0.0
C868 C 0.94392 0.39646 0.1475 0.0
C869 C 0.96318 0.40097 0.14721 0.0
C870 C 0.97722 0.41895 0.15528 0.0
C871 C 0.96644 0.47502 0.19213 0.0
O872 O 0.95617 0.48272 0.18547 0.0
H873 H 0.92903 0.45039 0.21242 0.0
H874 H 0.92022 0.41912 0.23183 0.0
H875 H 0.94434 0.4083 0.23511 0.0
H876 H 0.0055 0.41891 0.18779 0.0
H877 H 0.06572 0.44613 0.20077 0.0
H878 H 0.03393 0.47149 0.22748 0.0
H879 H 0.01894 0.53516 0.11845 0.0
H880 H 0.97938 0.47667 0.13751 0.0
H881 H 0.00767 0.51939 0.19142 0.0
H882 H 0.03969 0.48862 0.13059 0.0
H883 H 0.06401 0.5174 0.15283 0.0
H884 H 0.0575 0.52287 0.19446 0.0
H885 H 0.00253 0.45581 0.25161 0.0
H886 H 0.96697 0.46031 0.30442 0.0
H887 H 0.99052 0.50139 0.24729 0.0
H888 H 0.94983 0.4395 0.16421 0.0
H889 H 0.93262 0.38275 0.14126 0.0
H890 H 0.99208 0.42265 0.15522 0.0
C891 C 0.55133 0.50623 0.20702 0.0
C892 C 0.56216 0.49854 0.21622 0.0
C893 C 0.57954 0.51111 0.22786 0.0
C894 C 0.58578 0.53088 0.22994 0.0
C895 C 0.57424 0.53754 0.22024 0.0
N896 N 0.55803 0.52499 0.20946 0.0
C897 C 0.57723 0.55715 0.22051 0.0
C898 C 0.5631 0.57687 0.20725 0.0
C899 C 0.57874 0.59181 0.1953 0.0
C900 C 0.57896 0.60889 0.19024 0.0
C901 C 0.56376 0.61135 0.19735 0.0
C902 C 0.54854 0.5969 0.21005 0.0
C903 C 0.54827 0.57978 0.21512 0.0
Cd904 Cd 0.60809 0.58822 0.26618 0.0
Cd905 Cd 0.60682 0.55542 0.32934 0.0
C906 C 0.51267 0.50258 0.16679 0.0
C907 C 0.47936 0.48872 0.15465 0.0
C908 C 0.48508 0.49069 0.1311 0.0
C909 C 0.50421 0.49756 0.12493 0.0
C910 C 0.5181 0.5037 0.14288 0.0
C911 C 0.49317 0.49457 0.17262 0.0
Co912 Co 0.54297 0.5341 0.19746 0.0
N913 N 0.55633 0.54217 0.16732 0.0
N914 N 0.52726 0.54266 0.18564 0.0
C915 C 0.53002 0.54813 0.16311 0.0
C916 C 0.51639 0.55126 0.15181 0.0
C917 C 0.50001 0.54788 0.16478 0.0
C918 C 0.49738 0.54111 0.18828 0.0
C919 C 0.51161 0.53824 0.19834 0.0
N920 N 0.52659 0.52688 0.22537 0.0
N921 N 0.56219 0.55881 0.21124 0.0
N922 N 0.52681 0.50828 0.18518 0.0
O923 O 0.609 0.58362 0.34691 0.0
O924 O 0.60705 0.58583 0.30893 0.0
C925 C 0.6097 0.62429 0.25731 0.0
O926 O 0.59376 0.60893 0.25982 0.0
O927 O 0.62461 0.62295 0.2599 0.0
C928 C 0.64524 0.58424 0.28619 0.0
O929 O 0.64107 0.59128 0.26842 0.0
O930 O 0.63213 0.57439 0.30097 0.0
C931 C 0.54677 0.54827 0.15283 0.0
O932 O 0.55223 0.55392 0.131 0.0
O933 O 0.58132 0.55746 0.28051 0.0
O934 O 0.57574 0.53751 0.31025 0.0
C935 C 0.51139 0.52956 0.22127 0.0
O936 O 0.49817 0.52578 0.23729 0.0
C937 C 0.5301 0.52101 0.2478 0.0
C938 C 0.5455 0.53422 0.26106 0.0
C939 C 0.55119 0.52871 0.28142 0.0
C940 C 0.53936 0.51018 0.29056 0.0
C941 C 0.52239 0.49698 0.2787 0.0
C942 C 0.5182 0.50245 0.25675 0.0
C943 C 0.61114 0.59394 0.32895 0.0
O944 O 0.59443 0.57242 0.22677 0.0
C945 C 0.57013 0.5421 0.29168 0.0
C946 C 0.57561 0.54665 0.16226 0.0
C947 C 0.58094 0.53257 0.16307 0.0
C948 C 0.59926 0.5369 0.15601 0.0
C949 C 0.61212 0.55502 0.1471 0.0
C950 C 0.60657 0.56894 0.1448 0.0
C951 C 0.58875 0.56492 0.15369 0.0
C952 C 0.53358 0.49668 0.19291 0.0
O953 O 0.52597 0.47875 0.18608 0.0
H954 H 0.55752 0.48348 0.21435 0.0
H955 H 0.58819 0.50556 0.23518 0.0
H956 H 0.59901 0.54048 0.23893 0.0
H957 H 0.59069 0.59027 0.1897 0.0
H958 H 0.56396 0.62458 0.19341 0.0
H959 H 0.53661 0.56898 0.22543 0.0
H960 H 0.47427 0.48601 0.11737 0.0
H961 H 0.53296 0.50891 0.13839 0.0
H962 H 0.48882 0.49272 0.19096 0.0
H963 H 0.51801 0.55559 0.13348 0.0
H964 H 0.48912 0.54996 0.15641 0.0
H965 H 0.48449 0.53774 0.19791 0.0
H966 H 0.55334 0.5489 0.25514 0.0
H967 H 0.54327 0.5062 0.30701 0.0
H968 H 0.50588 0.49238 0.24655 0.0
H969 H 0.57082 0.51804 0.16797 0.0
H970 H 0.62577 0.55756 0.14046 0.0
H971 H 0.58452 0.57569 0.1524 0.0
C972 C 0.50484 0.95645 0.79283 0.0
C973 C 0.49697 0.93808 0.78312 0.0
C974 C 0.50924 0.93355 0.77031 0.0
C975 C 0.5289 0.94719 0.76756 0.0
C976 C 0.53575 0.96523 0.77781 0.0
N977 N 0.5235 0.96862 0.78978 0.0
C978 C 0.55526 0.98193 0.77703 0.0
C979 C 0.57509 0.01585 0.78966 0.0
C980 C 0.59077 0.01575 0.80036 0.0
C981 C 0.60828 0.03274 0.80265 0.0
C982 C 0.61034 0.04992 0.7941 0.0
C983 C 0.59495 0.05009 0.78302 0.0
C984 C 0.5774 0.03312 0.78075 0.0
Cd985 Cd 0.58769 0.98381 0.73101 0.0
Cd986 Cd 0.55574 0.9565 0.66759 0.0
C987 C 0.5023 0.9903 0.83575 0.0
C988 C 0.48658 0.00701 0.85145 0.0
C989 C 0.49044 0.00333 0.87429 0.0
C990 C 0.49923 0.99244 0.87825 0.0
C991 C 0.50496 0.98566 0.85894 0.0
C992 C 0.49294 1.00087 0.83204 0.0
Co993 Co 0.53282 0.99265 0.80241 0.0
N994 N 0.54198 0.98717 0.83163 0.0
N995 N 0.54157 0.01679 0.81482 0.0
C996 C 0.54769 0.01929 0.83706 0.0
C997 C 0.55099 0.03585 0.84901 0.0
C998 C 0.54707 0.04889 0.837 0.0
C999 C 0.53957 0.04494 0.81383 0.0
C1000 C 0.53656 0.02802 0.80311 0.0
N1001 N 0.52452 0.00199 0.77568 0.0
N1002 N 0.55707 0.99843 0.78712 0.0
N1003 N 0.50738 0.98259 0.81599 0.0
O1004 O 0.58295 0.98305 0.65025 0.0
O1005 O 0.58853 0.98604 0.68804 0.0
C1006 C 0.62307 0.01611 0.74723 0.0
O1007 O 0.61129 0.01874 0.73511 0.0
O1008 O 0.61863 0.99884 0.75081 0.0
C1009 C 0.58519 0.94418 0.70575 0.0
O1010 O 0.59116 0.95448 0.72439 0.0
O1011 O 0.57498 0.94705 0.69108 0.0
C1012 C 0.54825 0.00265 0.84649 0.0
O1013 O 0.55397 0.00247 0.86819 0.0
O1014 O 0.55713 0.98173 0.71983 0.0
O1015 O 0.53808 0.96832 0.68898 0.0
C1016 C 0.52714 0.01975 0.78049 0.0
O1017 O 0.52303 0.02939 0.76512 0.0
C1018 C 0.51912 0.99346 0.75282 0.0
C1019 C 0.53298 0.99293 0.73908 0.0
C1020 C 0.52811 0.98241 0.71832 0.0
C1021 C 0.50967 0.97543 0.70885 0.0
C1022 C 0.49568 0.97773 0.72118 0.0
C1023 C 0.50047 0.98615 0.74392 0.0
C1024 C 0.59493 0.98973 0.66707 0.0
O1025 O 0.57041 0.98014 0.7698 0.0
C1026 C 0.54205 0.97771 0.7081 0.0
C1027 C 0.54715 0.9727 0.83567 0.0
C1028 C 0.5336 0.95311 0.83449 0.0
C1029 C 0.53851 0.93948 0.84152 0.0
C1030 C 0.55667 0.94528 0.85081 0.0
C1031 C 0.56992 0.96486 0.85328 0.0
C1032 C 0.56552 0.97829 0.84422 0.0
C1033 C 0.49562 0.96434 0.80802 0.0
O1034 O 0.47797 0.95378 0.8157 0.0
H1035 H 0.48199 0.92758 0.78547 0.0
H1036 H 0.50355 0.91946 0.76258 0.0
H1037 H 0.53828 0.94379 0.75764 0.0
H1038 H 0.58952 0.00258 0.8069 0.0
H1039 H 0.62391 0.06306 0.79584 0.0
H1040 H 0.56584 0.03346 0.77156 0.0
H1041 H 0.48582 0.00839 0.88929 0.0
H1042 H 0.51107 0.97655 0.86188 0.0
H1043 H 0.4899 0.0035 0.81424 0.0
H1044 H 0.55585 0.03838 0.86715 0.0
H1045 H 0.54929 0.06172 0.84587 0.0
H1046 H 0.53576 0.05447 0.80497 0.0
H1047 H 0.54765 1.00038 0.74501 0.0
H1048 H 0.50649 0.9685 0.69181 0.0
H1049 H 0.48991 0.98708 0.75476 0.0
H1050 H 0.519 0.94825 0.82947 0.0
H1051 H 0.55977 0.93457 0.85765 0.0
H1052 H 0.57597 0.99338 0.84594 0.0
C1053 C 0.04602 0.54796 0.79119 0.0
C1054 C 0.06471 0.55929 0.78274 0.0
C1055 C 0.06928 0.57649 0.77078 0.0
C1056 C 0.05538 0.58215 0.76783 0.0
C1057 C 0.03701 0.57013 0.77678 0.0
N1058 N 0.03345 0.55387 0.78743 0.0
C1059 C 0.02042 0.5732 0.77689 0.0
C1060 C 0.98615 0.55845 0.78864 0.0
C1061 C 0.98539 0.57416 0.7982 0.0
C1062 C 0.96796 0.57385 0.79991 0.0
C1063 C 0.95117 0.55812 0.79162 0.0
C1064 C 0.95187 0.5428 0.78122 0.0
C1065 C 0.96927 0.543 0.77963 0.0
Cd1066 Cd 0.01786 0.60497 0.73244 0.0
Cd1067 Cd 0.05126 0.60443 0.67609 0.0
C1068 C 0.01124 0.50956 0.83196 0.0
C1069 C 0.99085 0.47626 0.84321 0.0
C1070 C 0.99395 0.48165 0.8669 0.0
C1071 C 0.00665 0.50059 0.8736 0.0
C1072 C 0.01509 0.51468 0.85597 0.0
C1073 C 0.99966 0.49023 0.82564 0.0
Co1074 Co 0.00985 0.5396 0.8014 0.0
N1075 N 0.0172 0.55436 0.83021 0.0
N1076 N 0.98628 0.52503 0.81545 0.0
C1077 C 0.9848 0.52955 0.83767 0.0
C1078 C 0.96844 0.51711 0.85057 0.0
C1079 C 0.95451 0.50008 0.83946 0.0
C1080 C 0.95733 0.49565 0.81618 0.0
C1081 C 0.9741 0.50876 0.80445 0.0
N1082 N 0.99885 0.52173 0.77521 0.0
N1083 N 0.004 0.55848 0.78711 0.0
N1084 N 0.01987 0.52389 0.8139 0.0
O1085 O 0.02723 0.60606 0.65341 0.0
O1086 O 0.01912 0.60691 0.68977 0.0
C1087 C 0.98482 0.60681 0.74898 0.0
O1088 O 0.98341 0.59662 0.73111 0.0
O1089 O 1.00126 0.6161 0.75834 0.0
C1090 C 0.06075 0.64506 0.71235 0.0
O1091 O 0.04652 0.63815 0.72663 0.0
O1092 O 0.06254 0.63468 0.69684 0.0
C1093 C 1.00222 0.54667 0.84587 0.0
O1094 O 0.0033 0.55424 0.86676 0.0
O1095 O 0.01862 0.57571 0.72241 0.0
O1096 O 0.0367 0.57349 0.6945 0.0
C1097 C 0.98121 0.5069 0.78123 0.0
O1098 O 0.97058 0.4931 0.76637 0.0
C1099 C 0.00642 0.52473 0.75187 0.0
C1100 C 0.0072 0.53963 0.73892 0.0
C1101 C 0.01862 0.54645 0.71891 0.0
C1102 C 0.02596 0.53546 0.70895 0.0
C1103 C 0.02275 0.5184 0.72003 0.0
C1104 C 0.01373 0.51364 0.74233 0.0
C1105 C 0.0173 0.60934 0.66801 0.0
O1106 O 0.02226 0.59029 0.77014 0.0
C1107 C 0.02437 0.56597 0.7108 0.0
C1108 C 0.03341 0.57303 0.83351 0.0
C1109 C 0.05161 0.57561 0.83795 0.0
C1110 C 0.06628 0.59342 0.84556 0.0
C1111 C 0.06267 0.60846 0.84947 0.0
C1112 C 0.0442 0.60581 0.84558 0.0
C1113 C 0.03021 0.58836 0.83607 0.0
C1114 C 0.03822 0.5307 0.80616 0.0
O1115 O 0.04875 0.52345 0.81344 0.0
H1116 H 0.0755 0.55526 0.78564 0.0
H1117 H 0.08365 0.58557 0.76417 0.0
H1118 H 0.05895 0.59546 0.75906 0.0
H1119 H 0.99818 0.58677 0.80415 0.0
H1120 H 0.93771 0.55794 0.7929 0.0
H1121 H 0.96951 0.53135 0.77069 0.0
H1122 H 0.98713 0.47066 0.88033 0.0
H1123 H 0.02492 0.52943 0.86076 0.0
H1124 H 0.99765 0.48614 0.80721 0.0
H1125 H 0.96671 0.52012 0.86873 0.0
H1126 H 0.9418 0.49009 0.84909 0.0
H1127 H 0.94703 0.4823 0.80796 0.0
H1128 H 0.9998 0.54674 0.7454 0.0
H1129 H 0.03436 0.54026 0.69289 0.0
H1130 H 0.0121 0.50134 0.75205 0.0
H1131 H 0.05426 0.56376 0.83667 0.0
H1132 H 0.07403 0.62154 0.85701 0.0
H1133 H 0.01599 0.58577 0.83269 0.0
C1134 C 0.45727 0.50134 0.79169 0.0
C1135 C 0.44564 0.50817 0.78264 0.0
C1136 C 0.42821 0.49488 0.77168 0.0
C1137 C 0.42262 0.47524 0.7703 0.0
C1138 C 0.43498 0.46948 0.77974 0.0
N1139 N 0.45139 0.48274 0.78943 0.0
C1140 C 0.43232 0.45002 0.78101 0.0
C1141 C 0.44806 0.43153 0.79342 0.0
C1142 C 0.43298 0.4157 0.80493 0.0
C1143 C 0.43388 0.39904 0.80872 0.0
C1144 C 0.44958 0.39783 0.80062 0.0
C1145 C 0.46419 0.41312 0.78823 0.0
C1146 C 0.46339 0.42985 0.78453 0.0
Cd1147 Cd 0.39898 0.41528 0.74015 0.0
Cd1148 Cd 0.39726 0.43763 0.70993 0.0
C1149 C 0.49586 0.50661 0.83301 0.0
C1150 C 0.52893 0.51998 0.84495 0.0
C1151 C 0.52332 0.51782 0.86858 0.0
C1152 C 0.50419 0.51084 0.87484 0.0
C1153 C 0.49035 0.50515 0.8569 0.0
C1154 C 0.51522 0.51448 0.8271 0.0
Co1155 Co 0.46649 0.47433 0.8033 0.0
N1156 N 0.45245 0.46715 0.83285 0.0
N1157 N 0.48203 0.46635 0.8171 0.0
C1158 C 0.47831 0.46086 0.83956 0.0
C1159 C 0.49133 0.45751 0.85204 0.0
C1160 C 0.5081 0.46063 0.84022 0.0
C1161 C 0.51168 0.46733 0.81666 0.0
C1162 C 0.49802 0.47042 0.80539 0.0
N1163 N 0.48379 0.48101 0.77636 0.0
N1164 N 0.44774 0.44909 0.79033 0.0
N1165 N 0.48183 0.50042 0.81462 0.0
O1166 O 0.39358 0.41609 0.67873 0.0
O1167 O 0.40048 0.40008 0.70447 0.0
C1168 C 0.39474 0.38158 0.76325 0.0
O1169 O 0.40911 0.39198 0.75028 0.0
O1170 O 0.38273 0.38724 0.76629 0.0
C1171 C 0.3574 0.41932 0.7221 0.0
O1172 O 0.36508 0.40962 0.72936 0.0
O1173 O 0.36801 0.43666 0.71613 0.0
C1174 C 0.46118 0.4608 0.84837 0.0
O1175 O 0.45432 0.4545 0.8696 0.0
O1176 O 0.42862 0.44579 0.72776 0.0
O1177 O 0.42642 0.46654 0.7046 0.0
C1178 C 0.49898 0.47866 0.78191 0.0
O1179 O 0.51245 0.48178 0.76655 0.0
C1180 C 0.48025 0.4853 0.7531 0.0
C1181 C 0.4649 0.47115 0.74095 0.0
C1182 C 0.45678 0.47572 0.72215 0.0
C1183 C 0.46703 0.49417 0.71206 0.0
C1184 C 0.48492 0.50779 0.72169 0.0
C1185 C 0.491 0.50355 0.74305 0.0
C1186 C 0.3966 0.40247 0.68355 0.0
O1187 O 0.4149 0.43436 0.77674 0.0
C1188 C 0.43662 0.46175 0.71658 0.0
C1189 C 0.43312 0.46288 0.83634 0.0
C1190 C 0.42819 0.47726 0.83643 0.0
C1191 C 0.40953 0.47273 0.84224 0.0
C1192 C 0.39595 0.45404 0.84879 0.0
C1193 C 0.40112 0.43978 0.84974 0.0
C1194 C 0.41936 0.44421 0.84231 0.0
C1195 C 0.47476 0.51153 0.8061 0.0
O1196 O 0.48179 0.52948 0.81256 0.0
H1197 H 0.44963 0.52308 0.78437 0.0
H1198 H 0.4189 0.49973 0.76461 0.0
H1199 H 0.40918 0.46501 0.76221 0.0
H1200 H 0.4205 0.41609 0.81095 0.0
H1201 H 0.45023 0.3849 0.80353 0.0
H1202 H 0.47453 0.44123 0.77429 0.0
H1203 H 0.53416 0.5222 0.88224 0.0
H1204 H 0.47548 0.49982 0.86141 0.0
H1205 H 0.51954 0.51633 0.80874 0.0
H1206 H 0.48893 0.45315 0.87037 0.0
H1207 H 0.51851 0.45833 0.84949 0.0
H1208 H 0.52481 0.47036 0.80785 0.0
H1209 H 0.45825 0.45674 0.74778 0.0
H1210 H 0.46134 0.49781 0.69684 0.0
H1211 H 0.50378 0.51436 0.75188 0.0
H1212 H 0.43879 0.492 0.83303 0.0
H1213 H 0.38195 0.45113 0.85453 0.0
H1214 H 0.4235 0.43338 0.843 0.0
C1215 C 0.16761 0.37724 0.54068 0.0
C1216 C 0.17501 0.39599 0.54898 0.0
C1217 C 0.16224 0.40086 0.55992 0.0
C1218 C 0.14253 0.38721 0.56201 0.0
C1219 C 0.13618 0.36877 0.55329 0.0
N1220 N 0.14897 0.36494 0.54358 0.0
C1221 C 0.11649 0.35232 0.55266 0.0
C1222 C 0.09715 0.31769 0.54196 0.0
C1223 C 0.08102 0.31687 0.5312 0.0
C1224 C 0.06417 0.29932 0.5283 0.0
C1225 C 0.06305 0.28249 0.53663 0.0
C1226 C 0.07865 0.28326 0.54833 0.0
C1227 C 0.09556 0.30077 0.55109 0.0
Cd1228 Cd 0.08255 0.35301 0.59302 0.0
Cd1229 Cd 0.10271 0.37096 0.62803 0.0
C1230 C 0.17058 0.34385 0.49781 0.0
C1231 C 0.18569 0.32713 0.48043 0.0
C1232 C 0.17954 0.32936 0.45818 0.0
C1233 C 0.17023 0.33984 0.45533 0.0
C1234 C 0.16658 0.3479 0.47503 0.0
C1235 C 0.1805 0.33373 0.50051 0.0
Co1236 Co 0.13972 0.34115 0.53024 0.0
N1237 N 0.13189 0.34775 0.50103 0.0
N1238 N 0.13088 0.31735 0.51696 0.0
C1239 C 0.12418 0.3151 0.49502 0.0
C1240 C 0.11975 0.29826 0.48293 0.0
C1241 C 0.12307 0.28465 0.49458 0.0
C1242 C 0.13095 0.28822 0.51758 0.0
C1243 C 0.1351 0.30545 0.52847 0.0
N1244 N 0.14669 0.33067 0.55702 0.0
N1245 N 0.11495 0.33551 0.54399 0.0
N1246 N 0.16555 0.35108 0.51805 0.0
O1247 O 0.08183 0.35161 0.65817 0.0
O1248 O 0.06373 0.33713 0.62757 0.0
C1249 C 0.04939 0.32255 0.57069 0.0
O1250 O 0.05921 0.31943 0.58573 0.0
O1251 O 0.05543 0.33998 0.56515 0.0
C1252 C 0.08786 0.39731 0.61663 0.0
O1253 O 0.07857 0.3827 0.60314 0.0
O1254 O 0.10239 0.39931 0.62765 0.0
C1255 C 0.12407 0.33216 0.48622 0.0
O1256 O 0.11743 0.33266 0.46518 0.0
O1257 O 0.11261 0.35227 0.60489 0.0
O1258 O 0.13205 0.37203 0.632 0.0
C1259 C 0.14407 0.313 0.55157 0.0
O1260 O 0.14721 0.30265 0.56694 0.0
C1261 C 0.15121 0.33869 0.58016 0.0
C1262 C 0.13719 0.33998 0.59242 0.0
C1263 C 0.14201 0.35293 0.61084 0.0
C1264 C 0.16064 0.36161 0.62027 0.0
C1265 C 0.17445 0.3574 0.61086 0.0
C1266 C 0.16964 0.3465 0.58973 0.0
C1267 C 0.06606 0.33886 0.64968 0.0
O1268 O 0.10122 0.3548 0.55658 0.0
C1269 C 0.128 0.35884 0.61713 0.0
C1270 C 0.1288 0.36357 0.49741 0.0
C1271 C 0.14405 0.38236 0.49533 0.0
C1272 C 0.14049 0.39704 0.48889 0.0
C1273 C 0.12182 0.3929 0.48379 0.0
C1274 C 0.10652 0.37389 0.48509 0.0
C1275 C 0.1102 0.35971 0.49326 0.0
C1276 C 0.17718 0.36929 0.52625 0.0
O1277 O 0.19487 0.37996 0.51873 0.0
H1278 H 0.18996 0.4066 0.54665 0.0
H1279 H 0.16755 0.41527 0.5664 0.0
H1280 H 0.13269 0.39099 0.57005 0.0
H1281 H 0.08125 0.32964 0.5251 0.0
H1282 H 0.04997 0.26894 0.53444 0.0
H1283 H 0.10719 0.30106 0.56082 0.0
H1284 H 0.18301 0.32379 0.44269 0.0
H1285 H 0.16055 0.35712 0.47262 0.0
H1286 H 0.18486 0.33184 0.51792 0.0
H1287 H 0.11437 0.29586 0.46503 0.0
H1288 H 0.1199 0.27154 0.48562 0.0
H1289 H 0.13395 0.27805 0.52629 0.0
H1290 H 0.12265 0.33208 0.58604 0.0
H1291 H 0.16429 0.37179 0.63448 0.0
H1292 H 0.17977 0.34381 0.58051 0.0
H1293 H 0.15866 0.38561 0.49765 0.0
H1294 H 0.11972 0.40435 0.47736 0.0
H1295 H 0.09874 0.34507 0.49446 0.0
C1296 C 0.62686 0.78942 0.54303 0.0
C1297 C 0.60896 0.77964 0.55408 0.0
C1298 C 0.60403 0.76229 0.56595 0.0
C1299 C 0.61684 0.75508 0.56652 0.0
C1300 C 0.63443 0.76558 0.555 0.0
N1301 N 0.63815 0.7817 0.54389 0.0
C1302 C 0.65062 0.7619 0.55412 0.0
C1303 C 0.68391 0.77523 0.53942 0.0
C1304 C 0.68285 0.76034 0.52547 0.0
C1305 C 0.69943 0.75967 0.5202 0.0
C1306 C 0.71713 0.77376 0.52893 0.0
C1307 C 0.71823 0.7884 0.5432 0.0
C1308 C 0.70167 0.78911 0.5485 0.0
Cd1309 Cd 0.65253 0.73134 0.59881 0.0
Cd1310 Cd 0.6262 0.73435 0.66417 0.0
C1311 C 0.66115 0.82676 0.50055 0.0
C1312 C 0.68047 0.86024 0.48907 0.0
C1313 C 0.67979 0.85456 0.46563 0.0
C1314 C 0.66924 0.83527 0.45911 0.0
C1315 C 0.65931 0.82141 0.4766 0.0
C1316 C 0.67125 0.84629 0.50666 0.0
Co1317 Co 0.66189 0.79584 0.53039 0.0
N1318 N 0.6552 0.78159 0.50068 0.0
N1319 N 0.68583 0.81058 0.51731 0.0
C1320 C 0.68792 0.80666 0.49505 0.0
C1321 C 0.70469 0.81936 0.48301 0.0
C1322 C 0.71847 0.83591 0.49507 0.0
C1323 C 0.71514 0.8396 0.51847 0.0
C1324 C 0.69797 0.8263 0.5293 0.0
N1325 N 0.67249 0.81285 0.55756 0.0
N1326 N 0.66711 0.77652 0.54402 0.0
N1327 N 0.65253 0.81237 0.51863 0.0
O1328 O 0.65246 0.73101 0.67892 0.0
O1329 O 0.65321 0.733 0.64081 0.0
C1330 C 0.68572 0.72815 0.58716 0.0
O1331 O 0.68737 0.74423 0.59249 0.0
O1332 O 0.66894 0.71375 0.58801 0.0
C1333 C 0.61074 0.69403 0.62258 0.0
O1334 O 0.62254 0.69941 0.60527 0.0
O1335 O 0.613 0.70548 0.63937 0.0
C1336 C 0.67073 0.7899 0.48577 0.0
O1337 O 0.66981 0.78434 0.46375 0.0
O1338 O 0.65022 0.75906 0.61263 0.0
O1339 O 0.63762 0.76486 0.64407 0.0
C1340 C 0.69048 0.82748 0.55252 0.0
O1341 O 0.70085 0.84084 0.568 0.0
C1342 C 0.66406 0.80987 0.58051 0.0
C1343 C 0.66248 0.79479 0.59388 0.0
C1344 C 0.65168 0.78914 0.61453 0.0
C1345 C 0.64488 0.80083 0.62385 0.0
C1346 C 0.64829 0.81769 0.6119 0.0
C1347 C 0.65742 0.82171 0.58961 0.0
C1348 C 0.65863 0.72848 0.65947 0.0
O1349 O 0.64842 0.74453 0.56009 0.0
C1350 C 0.64663 0.77028 0.62465 0.0
C1351 C 0.6384 0.76349 0.49536 0.0
C1352 C 0.62 0.76101 0.49787 0.0
C1353 C 0.60389 0.7439 0.49116 0.0
C1354 C 0.60601 0.72953 0.48042 0.0
C1355 C 0.62439 0.73249 0.47565 0.0
C1356 C 0.64039 0.74885 0.48463 0.0
C1357 C 0.63499 0.80692 0.52835 0.0
O1358 O 0.62521 0.81542 0.52286 0.0
H1359 H 0.59911 0.78505 0.55347 0.0
H1360 H 0.59032 0.75447 0.57473 0.0
H1361 H 0.6132 0.74199 0.57591 0.0
H1362 H 0.66927 0.74938 0.51849 0.0
H1363 H 0.72995 0.77322 0.52486 0.0
H1364 H 0.70272 0.80038 0.55981 0.0
H1365 H 0.68673 0.86541 0.45206 0.0
H1366 H 0.65047 0.80654 0.47165 0.0
H1367 H 0.67189 0.85052 0.52493 0.0
H1368 H 0.70688 0.8169 0.46479 0.0
H1369 H 0.73149 0.84607 0.48612 0.0
H1370 H 0.72539 0.85255 0.52749 0.0
H1371 H 0.66928 0.78701 0.58761 0.0
H1372 H 0.63671 0.79668 0.6401 0.0
H1373 H 0.6597 0.83407 0.57949 0.0
H1374 H 0.6179 0.77251 0.50356 0.0
H1375 H 0.59335 0.71677 0.47426 0.0
H1376 H 0.65455 0.75099 0.48132 0.0
C1377 C 0.21495 0.83858 0.54461 0.0
C1378 C 0.22508 0.83093 0.5559 0.0
C1379 C 0.24241 0.84376 0.56746 0.0
C1380 C 0.24929 0.86372 0.56748 0.0
C1381 C 0.23847 0.87035 0.55572 0.0
N1382 N 0.22237 0.85755 0.54493 0.0
C1383 C 0.24178 0.89007 0.55423 0.0
C1384 C 0.22813 0.90938 0.53813 0.0
C1385 C 0.24297 0.9229 0.52381 0.0
C1386 C 0.24323 0.93972 0.51709 0.0
C1387 C 0.22881 0.94322 0.52477 0.0
C1388 C 0.21432 0.93009 0.53957 0.0
C1389 C 0.21402 0.91326 0.54632 0.0
Cd1390 Cd 0.27109 0.92211 0.59969 0.0
Cd1391 Cd 0.26727 0.89552 0.66719 0.0
C1392 C 0.17833 0.83438 0.50057 0.0
C1393 C 0.14576 0.82089 0.4855 0.0
C1394 C 0.15277 0.82222 0.46259 0.0
C1395 C 0.17219 0.82918 0.45831 0.0
C1396 C 0.18504 0.83529 0.47735 0.0
C1397 C 0.15861 0.82685 0.50462 0.0
Co1398 Co 0.20787 0.86654 0.53094 0.0
N1399 N 0.22182 0.87343 0.50106 0.0
N1400 N 0.19279 0.87512 0.51734 0.0
C1401 C 0.19639 0.88046 0.49481 0.0
C1402 C 0.18354 0.88421 0.48257 0.0
C1403 C 0.16715 0.88176 0.49474 0.0
C1404 C 0.16376 0.87537 0.51843 0.0
C1405 C 0.17722 0.87181 0.52945 0.0
N1406 N 0.19115 0.86065 0.55824 0.0
N1407 N 0.22703 0.89151 0.54376 0.0
N1408 N 0.1915 0.84037 0.52009 0.0
O1409 O 0.26505 0.92313 0.67932 0.0
O1410 O 0.26647 0.9213 0.64137 0.0
C1411 C 0.27371 0.95835 0.58943 0.0
O1412 O 0.25768 0.94287 0.58927 0.0
O1413 O 0.28825 0.95697 0.5948 0.0
C1414 C 0.30853 0.92061 0.62592 0.0
O1415 O 0.30315 0.92474 0.6066 0.0
O1416 O 0.29668 0.91213 0.64266 0.0
C1417 C 0.21319 0.88001 0.48569 0.0
O1418 O 0.21907 0.88489 0.46382 0.0
O1419 O 0.24455 0.89191 0.61474 0.0
O1420 O 0.23778 0.87368 0.64642 0.0
C1421 C 0.17638 0.86377 0.55304 0.0
O1422 O 0.16306 0.86088 0.56852 0.0
C1423 C 0.19409 0.85505 0.58114 0.0
C1424 C 0.20924 0.86838 0.59459 0.0
C1425 C 0.21465 0.86305 0.61534 0.0
C1426 C 0.20287 0.84449 0.62443 0.0
C1427 C 0.18621 0.83111 0.61215 0.0
C1428 C 0.18229 0.83647 0.58997 0.0
C1429 C 0.2678 0.93119 0.65937 0.0
O1430 O 0.25889 0.90551 0.56038 0.0
C1431 C 0.23306 0.87695 0.62631 0.0
C1432 C 0.24011 0.87508 0.49614 0.0
C1433 C 0.243 0.85947 0.49928 0.0
C1434 C 0.26057 0.86104 0.49378 0.0
C1435 C 0.27504 0.87779 0.48362 0.0
C1436 C 0.27172 0.89288 0.478 0.0
C1437 C 0.2547 0.89185 0.48563 0.0
C1438 C 0.1974 0.82872 0.53011 0.0
O1439 O 0.18949 0.81046 0.52468 0.0
H1440 H 0.21993 0.81569 0.5557 0.0
H1441 H 0.2505 0.83823 0.57641 0.0
H1442 H 0.26238 0.8735 0.57662 0.0
H1443 H 0.25418 0.92036 0.51762 0.0
H1444 H 0.22903 0.95624 0.51958 0.0
H1445 H 0.20284 0.90335 0.55798 0.0
H1446 H 0.14289 0.8174 0.44779 0.0
H1447 H 0.20009 0.84049 0.47418 0.0
H1448 H 0.15337 0.82568 0.5225 0.0
H1449 H 0.18579 0.88842 0.46418 0.0
H1450 H 0.15687 0.88439 0.48566 0.0
H1451 H 0.15094 0.87291 0.52754 0.0
H1452 H 0.21715 0.883 0.58842 0.0
H1453 H 0.20655 0.84062 0.64113 0.0
H1454 H 0.17029 0.82627 0.57943 0.0
H1455 H 0.23155 0.84574 0.50476 0.0
H1456 H 0.2883 0.87839 0.47872 0.0
H1457 H 0.25214 0.90352 0.48173 0.0
H1458 H 0.13897 0.31541 0.43036 0.0
H1459 H 0.13725 0.31352 0.38721 0.0
H1460 H 0.19014 0.36746 0.38268 0.0
H1461 H 0.19173 0.36936 0.4259 0.0
H1462 H 0.16513 0.36151 0.34475 0.0
H1463 H 0.19412 0.32959 0.3842 0.0
H1464 H 0.19563 0.30806 0.41402 0.0
H1465 H 0.14488 0.26059 0.38501 0.0
H1466 H 0.14306 0.28188 0.35502 0.0
H1467 H 0.19738 0.34993 0.23592 0.0
H1468 H 0.19843 0.3508 0.27914 0.0
H1469 H 0.14241 0.30031 0.28161 0.0
H1470 H 0.14137 0.2995 0.23829 0.0
H1471 H 0.1694 0.30451 0.32047 0.0
H1472 H 0.14072 0.33824 0.28138 0.0
H1473 H 0.14105 0.36062 0.25139 0.0
H1474 H 0.19382 0.40569 0.27976 0.0
H1475 H 0.19377 0.38355 0.30996 0.0
C1476 C 0.14965 0.32729 0.42008 0.0
C1477 C 0.16539 0.34259 0.43121 0.0
C1478 C 0.1488 0.32613 0.3955 0.0
C1479 C 0.1638 0.34016 0.38185 0.0
C1480 C 0.17846 0.35649 0.39294 0.0
C1481 C 0.1793 0.35765 0.41756 0.0
C1482 C 0.16567 0.33641 0.35671 0.0
C1483 C 0.16618 0.34913 0.33948 0.0
C1484 C 0.16712 0.32028 0.34984 0.0
C1485 C 0.16837 0.30734 0.3675 0.0
C1486 C 0.18324 0.31457 0.38424 0.0
C1487 C 0.18417 0.30242 0.40115 0.0
C1488 C 0.1703 0.28299 0.40148 0.0
C1489 C 0.15558 0.27565 0.38476 0.0
C1490 C 0.15463 0.28774 0.36775 0.0
C1491 C 0.18575 0.33851 0.24576 0.0
C1492 C 0.16938 0.32456 0.23404 0.0
C1493 C 0.18628 0.33908 0.27036 0.0
C1494 C 0.17038 0.32576 0.28345 0.0
C1495 C 0.15482 0.31065 0.27176 0.0
C1496 C 0.15426 0.31013 0.2471 0.0
C1497 C 0.16864 0.32949 0.30859 0.0
C1498 C 0.16824 0.31681 0.3258 0.0
C1499 C 0.16752 0.34578 0.31547 0.0
C1500 C 0.16729 0.35925 0.29782 0.0
C1501 C 0.1524 0.35292 0.28119 0.0
C1502 C 0.15253 0.36556 0.26418 0.0
C1503 C 0.16748 0.38455 0.26362 0.0
C1504 C 0.18226 0.39098 0.28021 0.0
C1505 C 0.18215 0.37841 0.29733 0.0
H1506 H 0.16759 0.39429 0.25037 0.0
H1507 H 0.171 0.27362 0.41464 0.0
H1508 H 0.63923 0.82224 0.23606 0.0
H1509 H 0.63904 0.82331 0.27906 0.0
H1510 H 0.70075 0.85692 0.27939 0.0
H1511 H 0.70095 0.85547 0.23605 0.0
H1512 H 0.68807 0.82598 0.30732 0.0
H1513 H 0.67279 0.87626 0.29874 0.0
H1514 H 0.65495 0.89138 0.28312 0.0
H1515 H 0.6027 0.84567 0.31181 0.0
H1516 H 0.62022 0.83023 0.32748 0.0
H1517 H 0.69935 0.84612 0.42959 0.0
H1518 H 0.6987 0.84515 0.3866 0.0
H1519 H 0.63692 0.81293 0.38795 0.0
H1520 H 0.63759 0.8144 0.43132 0.0
H1521 H 0.64909 0.84278 0.35909 0.0
H1522 H 0.66317 0.79218 0.36697 0.0
H1523 H 0.6798 0.7758 0.38215 0.0
H1524 H 0.73312 0.82066 0.35452 0.0
H1525 H 0.7167 0.83734 0.33914 0.0
C1526 C 0.65273 0.83031 0.2453 0.0
C1527 C 0.67011 0.83874 0.23279 0.0
C1528 C 0.65261 0.83096 0.2699 0.0
C1529 C 0.66988 0.84022 0.28254 0.0
C1530 C 0.68725 0.84968 0.27 0.0
C1531 C 0.68737 0.84903 0.24527 0.0
C1532 C 0.66973 0.83827 0.30867 0.0
C1533 C 0.67985 0.83003 0.31868 0.0
C1534 C 0.65834 0.84273 0.32344 0.0
C1535 C 0.64779 0.85203 0.31413 0.0
C1536 C 0.65748 0.86938 0.30159 0.0
C1537 C 0.64743 0.87803 0.29277 0.0
C1538 C 0.6277 0.86947 0.29643 0.0
C1539 C 0.61798 0.85229 0.30899 0.0
C1540 C 0.62797 0.84361 0.3179 0.0
C1541 C 0.68563 0.83845 0.42072 0.0
C1542 C 0.66852 0.83042 0.43374 0.0
C1543 C 0.68527 0.83784 0.39611 0.0
C1544 C 0.66776 0.82895 0.38393 0.0
C1545 C 0.65061 0.81991 0.39696 0.0
C1546 C 0.65098 0.82056 0.42171 0.0
C1547 C 0.66757 0.83064 0.35776 0.0
C1548 C 0.65735 0.8388 0.34774 0.0
C1549 C 0.67877 0.82598 0.34293 0.0
C1550 C 0.68874 0.81606 0.35209 0.0
C1551 C 0.67846 0.79861 0.36426 0.0
C1552 C 0.68786 0.78925 0.37287 0.0
C1553 C 0.70755 0.7972 0.36941 0.0
C1554 C 0.71787 0.81451 0.35721 0.0
C1555 C 0.70851 0.82389 0.34847 0.0
H1556 H 0.71481 0.78994 0.37612 0.0
H1557 H 0.61994 0.87617 0.28956 0.0
H1558 H 0.19512 0.86092 0.43217 0.0
H1559 H 0.19527 0.86275 0.38898 0.0
H1560 H 0.16063 0.80118 0.38528 0.0
H1561 H 0.16111 0.79937 0.42829 0.0
H1562 H 0.18322 0.81492 0.34677 0.0
H1563 H 0.13986 0.82873 0.3901 0.0
H1564 H 0.13282 0.84632 0.42034 0.0
H1565 H 0.16825 0.89921 0.38375 0.0
H1566 H 0.17578 0.88196 0.35349 0.0
H1567 H 0.14175 0.80787 0.23675 0.0
H1568 H 0.14094 0.80519 0.27993 0.0
H1569 H 0.17528 0.86669 0.28549 0.0
H1570 H 0.17553 0.86934 0.24253 0.0
H1571 H 0.15236 0.85247 0.32314 0.0
H1572 H 0.19593 0.83865 0.27999 0.0
H1573 H 0.20302 0.82107 0.24979 0.0
H1574 H 0.16711 0.76812 0.28599 0.0
H1575 H 0.15955 0.78537 0.31621 0.0
C1576 C 0.18848 0.84778 0.42206 0.0
C1577 C 0.17818 0.83002 0.43347 0.0
C1578 C 0.18829 0.84882 0.3974 0.0
C1579 C 0.17747 0.83212 0.38393 0.0
C1580 C 0.16895 0.81425 0.39525 0.0
C1581 C 0.16928 0.81322 0.41983 0.0
C1582 C 0.17269 0.83327 0.35885 0.0
C1583 C 0.17636 0.82302 0.34164 0.0
C1584 C 0.16372 0.84384 0.35208 0.0
C1585 C 0.15849 0.85409 0.36964 0.0
C1586 C 0.14617 0.84412 0.38852 0.0
C1587 C 0.14212 0.85403 0.4057 0.0
C1588 C 0.15011 0.87388 0.404 0.0
C1589 C 0.16209 0.88384 0.38505 0.0
C1590 C 0.16625 0.87401 0.36788 0.0
C1591 C 0.14821 0.8208 0.24729 0.0
C1592 C 0.15866 0.8388 0.23646 0.0
C1593 C 0.148 0.81928 0.27192 0.0
C1594 C 0.15854 0.83572 0.28591 0.0
C1595 C 0.16717 0.85381 0.27511 0.0
C1596 C 0.16725 0.85533 0.25057 0.0
C1597 C 0.16295 0.83418 0.31103 0.0
C1598 C 0.15919 0.84435 0.32826 0.0
C1599 C 0.17184 0.82352 0.31781 0.0
C1600 C 0.17707 0.81327 0.30026 0.0
C1601 C 0.18953 0.82326 0.28149 0.0
C1602 C 0.19361 0.81335 0.26434 0.0
C1603 C 0.18549 0.79348 0.26594 0.0
C1604 C 0.17337 0.7835 0.28476 0.0
C1605 C 0.16919 0.79333 0.30191 0.0
H1606 H 0.18862 0.78583 0.25261 0.0
H1607 H 0.14701 0.88153 0.41734 0.0
H1608 H 0.85975 0.67176 0.56852 0.0
H1609 H 0.86085 0.67293 0.61192 0.0
H1610 H 0.79961 0.6494 0.6138 0.0
H1611 H 0.79848 0.64762 0.57086 0.0
H1612 H 0.85134 0.69431 0.63927 0.0
H1613 H 0.78062 0.62655 0.653 0.0
H1614 H 0.76281 0.5926 0.64067 0.0
H1615 H 0.81574 0.59249 0.63284 0.0
H1616 H 0.83379 0.62652 0.64466 0.0
H1617 H 0.8391 0.70136 0.76446 0.0
H1618 H 0.83334 0.69914 0.7217 0.0
H1619 H 0.83368 0.64569 0.72053 0.0
H1620 H 0.83599 0.64621 0.76254 0.0
H1621 H 0.81004 0.64097 0.69308 0.0
H1622 H 0.87456 0.69796 0.7042 0.0
H1623 H 0.89696 0.731 0.71734 0.0
H1624 H 0.86527 0.75159 0.67816 0.0
H1625 H 0.84262 0.71868 0.66499 0.0
C1626 C 0.84651 0.66612 0.57835 0.0
C1627 C 0.82902 0.65938 0.56651 0.0
C1628 C 0.84715 0.66704 0.60306 0.0
C1629 C 0.83029 0.66118 0.61613 0.0
C1630 C 0.81274 0.65363 0.60421 0.0
C1631 C 0.8121 0.65263 0.57968 0.0
C1632 C 0.83096 0.66416 0.64201 0.0
C1633 C 0.84256 0.68263 0.6512 0.0
C1634 C 0.81928 0.6491 0.65747 0.0
C1635 C 0.80847 0.629 0.64942 0.0
C1636 C 0.78839 0.61926 0.6485 0.0
C1637 C 0.77828 0.60005 0.64156 0.0
C1638 C 0.78814 0.59041 0.63592 0.0
C1639 C 0.80813 0.6 0.63705 0.0
C1640 C 0.8183 0.61927 0.64369 0.0
C1641 C 0.83749 0.68896 0.75505 0.0
C1642 C 0.8388 0.67434 0.76706 0.0
C1643 C 0.83457 0.68787 0.73047 0.0
C1644 C 0.83359 0.67249 0.71745 0.0
C1645 C 0.83435 0.65778 0.72974 0.0
C1646 C 0.83622 0.65836 0.75405 0.0
C1647 C 0.8317 0.67096 0.69118 0.0
C1648 C 0.81924 0.65278 0.68154 0.0
C1649 C 0.84333 0.68621 0.67559 0.0
C1650 C 0.85678 0.70586 0.68389 0.0
C1651 C 0.87231 0.70953 0.69855 0.0
C1652 C 0.88506 0.72823 0.70597 0.0
C1653 C 0.8825 0.74337 0.69866 0.0
C1654 C 0.86721 0.73986 0.68388 0.0
C1655 C 0.85442 0.72119 0.67644 0.0
H1656 H 0.8924 0.75783 0.70439 0.0
H1657 H 0.78028 0.57549 0.63074 0.0
H1658 H 0.30641 0.14365 0.76083 0.0
H1659 H 0.30839 0.14336 0.71747 0.0
H1660 H 0.3674 0.18833 0.72048 0.0
H1661 H 0.3659 0.18806 0.76351 0.0
H1662 H 0.33365 0.19104 0.68945 0.0
H1663 H 0.369 0.15675 0.70709 0.0
H1664 H 0.37044 0.1297 0.72536 0.0
H1665 H 0.32055 0.08987 0.68644 0.0
H1666 H 0.31859 0.1167 0.66834 0.0
H1667 H 0.34907 0.19801 0.56408 0.0
H1668 H 0.35348 0.20047 0.60678 0.0
H1669 H 0.32354 0.13874 0.61189 0.0
H1670 H 0.32302 0.13634 0.57031 0.0
H1671 H 0.34597 0.14723 0.64102 0.0
H1672 H 0.30597 0.17572 0.62524 0.0
H1673 H 0.29842 0.19939 0.60828 0.0
H1674 H 0.34724 0.24487 0.64328 0.0
H1675 H 0.35521 0.22148 0.66017 0.0
C1676 C 0.31993 0.15308 0.75227 0.0
C1677 C 0.33591 0.16608 0.76562 0.0
C1678 C 0.32098 0.15305 0.72754 0.0
C1679 C 0.33797 0.16606 0.71587 0.0
C1680 C 0.35411 0.17837 0.72917 0.0
C1681 C 0.35319 0.17818 0.75376 0.0
C1682 C 0.33887 0.16737 0.68978 0.0
C1683 C 0.33631 0.1815 0.67866 0.0
C1684 C 0.34204 0.15474 0.67592 0.0
C1685 C 0.34351 0.13873 0.68661 0.0
C1686 C 0.35821 0.14223 0.70265 0.0
C1687 C 0.35914 0.12694 0.71293 0.0
C1688 C 0.34556 0.10808 0.70714 0.0
C1689 C 0.33104 0.10448 0.69097 0.0
C1690 C 0.33002 0.11972 0.68071 0.0
C1691 C 0.34372 0.18493 0.57418 0.0
C1692 C 0.33484 0.16689 0.56292 0.0
C1693 C 0.3459 0.18636 0.59893 0.0
C1694 C 0.33834 0.16977 0.6132 0.0
C1695 C 0.32962 0.15194 0.60187 0.0
C1696 C 0.32861 0.15057 0.57744 0.0
C1697 C 0.3395 0.17029 0.63974 0.0
C1698 C 0.34288 0.15671 0.65129 0.0
C1699 C 0.33612 0.18286 0.65389 0.0
C1700 C 0.33132 0.19689 0.64369 0.0
C1701 C 0.31515 0.19078 0.62918 0.0
C1702 C 0.3108 0.20414 0.61959 0.0
C1703 C 0.32238 0.22362 0.62462 0.0
C1704 C 0.33831 0.22978 0.63933 0.0
C1705 C 0.34276 0.21648 0.6489 0.0
H1706 H 0.31899 0.23394 0.61719 0.0
H1707 H 0.3463 0.09626 0.71511 0.0
H1708 H 0.86469 0.18402 0.76811 0.0
H1709 H 0.8681 0.18628 0.72507 0.0
H1710 H 0.81085 0.13788 0.71804 0.0
H1711 H 0.80872 0.13389 0.76021 0.0
H1712 H 0.82684 0.13635 0.68391 0.0
H1713 H 0.82816 0.19323 0.71937 0.0
H1714 H 0.84322 0.22239 0.74403 0.0
H1715 H 0.89456 0.24502 0.70255 0.0
H1716 H 0.87991 0.21588 0.67792 0.0
H1717 H 0.80596 0.15232 0.56838 0.0
H1718 H 0.80367 0.15071 0.61145 0.0
H1719 H 0.86149 0.19838 0.61631 0.0
H1720 H 0.86264 0.20183 0.57402 0.0
H1721 H 0.84601 0.20048 0.65124 0.0
H1722 H 0.84387 0.14329 0.61537 0.0
H1723 H 0.82803 0.11432 0.59043 0.0
H1724 H 0.7772 0.09236 0.63281 0.0
H1725 H 0.79266 0.12127 0.65778 0.0
C1726 C 0.85311 0.17357 0.75731 0.0
C1727 C 0.83601 0.15938 0.76769 0.0
C1728 C 0.85489 0.17508 0.73262 0.0
C1729 C 0.83928 0.16298 0.71802 0.0
C1730 C 0.82304 0.14776 0.72855 0.0
C1731 C 0.82167 0.14571 0.75292 0.0
C1732 C 0.83888 0.16635 0.69211 0.0
C1733 C 0.83095 0.15041 0.67691 0.0
C1734 C 0.84449 0.18467 0.68248 0.0
C1735 C 0.853 0.20233 0.69697 0.0
C1736 C 0.84266 0.20443 0.71555 0.0
C1737 C 0.85114 0.22093 0.72954 0.0
C1738 C 0.86985 0.23552 0.72489 0.0
C1739 C 0.88009 0.23369 0.70617 0.0
C1740 C 0.87172 0.21719 0.69221 0.0
C1741 C 0.81795 0.16276 0.57866 0.0
C1742 C 0.8349 0.17654 0.56758 0.0
C1743 C 0.81679 0.16162 0.60337 0.0
C1744 C 0.83286 0.17365 0.61734 0.0
C1745 C 0.84899 0.18852 0.60622 0.0
C1746 C 0.84979 0.19023 0.58179 0.0
C1747 C 0.83377 0.17045 0.64318 0.0
C1748 C 0.84188 0.18642 0.6583 0.0
C1749 C 0.82822 0.15215 0.65278 0.0
C1750 C 0.81938 0.13446 0.63832 0.0
C1751 C 0.82934 0.13224 0.61937 0.0
C1752 C 0.82041 0.11587 0.6052 0.0
C1753 C 0.80162 0.10153 0.61001 0.0
C1754 C 0.79175 0.10347 0.62909 0.0
C1755 C 0.80059 0.11984 0.64326 0.0
H1756 H 0.79471 0.0889 0.59898 0.0
H1757 H 0.8764 0.24826 0.73575 0.0
H1758 H 0.53199 0.00646 0.90416 0.0
H1759 H 0.53347 0.0094 0.94738 0.0
H1760 H 0.47211 0.97355 0.9511 0.0
H1761 H 0.47067 0.97016 0.90815 0.0
H1762 H 0.48906 0.01403 0.96595 0.0
H1763 H 0.49032 0.95715 0.97982 0.0
H1764 H 0.4997 0.9324 0.97908 0.0
H1765 H 0.55502 0.97261 0.00689 0.0
H1766 H 0.54606 0.99775 0.0075 0.0
H1767 H 0.47691 0.00745 0.09399 0.0
H1768 H 0.47524 0.0054 0.05088 0.0
H1769 H 0.53685 0.03839 0.04722 0.0
H1770 H 0.53848 0.04086 0.09026 0.0
H1771 H 0.51894 0.99859 0.03251 0.0
H1772 H 0.51579 0.05602 0.01632 0.0
H1773 H 0.50353 0.07858 0.01727 0.0
H1774 H 0.44796 0.03365 0.99594 0.0
H1775 H 0.45994 0.01084 0.99469 0.0
C1776 C 0.51901 0.99829 0.91436 0.0
C1777 C 0.50124 0.98799 0.90298 0.0
C1778 C 0.51983 1.00011 0.93899 0.0
C1779 C 0.50286 0.99182 0.95232 0.0
C1780 C 0.48533 0.98001 0.9411 0.0
C1781 C 0.48455 0.97797 0.91663 0.0
C1782 C 0.503 0.99837 0.97673 0.0
C1783 C 0.49539 0.01046 0.98061 0.0
C1784 C 0.51146 0.9939 0.99564 0.0
C1785 C 0.51761 0.97943 0.99337 0.0
C1786 C 0.50464 0.96087 0.98528 0.0
C1787 C 0.50983 0.94672 0.98504 0.0
C1788 C 0.52792 0.95093 0.99297 0.0
C1789 C 0.541 0.96938 0.00078 0.0
C1790 C 0.53587 0.98359 0.00106 0.0
C1791 C 0.48997 0.0154 0.08392 0.0
C1792 C 0.50781 0.02439 0.09538 0.0
C1793 C 0.48904 0.01402 0.05928 0.0
C1794 C 0.50595 0.02152 0.04594 0.0
C1795 C 0.52365 0.03249 0.05723 0.0
C1796 C 0.52457 0.03406 0.08179 0.0
C1797 C 0.50539 0.01459 0.0216 0.0
C1798 C 0.51279 0.00229 0.01778 0.0
C1799 C 0.49639 0.01855 0.00285 0.0
C1800 C 0.48874 0.03174 0.00552 0.0
C1801 C 0.5009 0.0509 0.01212 0.0
C1802 C 0.49405 0.06377 0.01251 0.0
C1803 C 0.47505 0.05759 0.0064 0.0
C1804 C 0.46272 0.03843 0.00047 0.0
C1805 C 0.46954 0.02556 -0.00016 0.0
H1806 H 0.46987 0.06765 0.00628 0.0
H1807 H 0.53169 0.93982 0.99334 0.0
H1808 H 0.99269 0.52718 0.09303 0.0
H1809 H 0.99397 0.52585 0.0505 0.0
H1810 H 0.99436 0.47257 0.05544 0.0
H1811 H 0.99496 0.47493 0.09866 0.0
H1812 H 0.02083 0.49443 0.02761 0.0
H1813 H 0.9547 0.47826 0.03074 0.0
H1814 H 0.92737 0.48199 0.04294 0.0
H1815 H 0.95405 0.53809 0.01185 0.0
H1816 H 0.98159 0.53476 -0.00037 0.0
H1817 H 0.01478 0.48008 0.90455 0.0
H1818 H 0.01279 0.4803 0.94708 0.0
H1819 H 0.00927 0.53202 0.94362 0.0
H1820 H 0.00863 0.53015 0.90034 0.0
H1821 H 0.98382 0.51005 0.97089 0.0
H1822 H 0.05056 0.52653 0.96882 0.0
H1823 H 0.07777 0.52256 0.95666 0.0
H1824 H 0.04986 0.46574 0.98575 0.0
H1825 H 0.02249 0.46934 0.99799 0.0
C1826 C 0.99294 0.51508 0.08512 0.0
C1827 C 0.99429 0.50144 0.09927 0.0
C1828 C 0.99332 0.51415 0.06063 0.0
C1829 C 0.9941 0.49903 0.04948 0.0
C1830 C 0.99386 0.48447 0.06356 0.0
C1831 C 0.994 0.48569 0.08827 0.0
C1832 C 0.99728 0.49967 0.02349 0.0
C1833 C 0.01249 0.4975 0.01517 0.0
C1834 C 0.98691 0.50437 0.0072 0.0
C1835 C 0.97024 0.50628 0.01437 0.0
C1836 C 0.95477 0.49142 0.0266 0.0
C1837 C 0.93923 0.49346 0.03349 0.0
C1838 C 0.93899 0.51027 0.0282 0.0
C1839 C 0.95425 0.52506 0.01593 0.0
C1840 C 0.96979 0.52308 0.00896 0.0
C1841 C 0.01358 0.49151 0.91286 0.0
C1842 C 0.01115 0.50467 0.89911 0.0
C1843 C 0.0129 0.49191 0.93737 0.0
C1844 C 0.01106 0.50628 0.94896 0.0
C1845 C 0.01052 0.52063 0.93522 0.0
C1846 C 0.01041 0.51975 0.91047 0.0
C1847 C 0.00755 0.50504 0.97496 0.0
C1848 C 0.99223 0.50704 0.9833 0.0
C1849 C 0.01783 0.5002 0.99128 0.0
C1850 C 0.03446 0.49819 0.98421 0.0
C1851 C 0.05022 0.51318 0.97256 0.0
C1852 C 0.06567 0.51099 0.96568 0.0
C1853 C 0.06553 0.4939 0.9704 0.0
C1854 C 0.04997 0.47898 0.98212 0.0
C1855 C 0.03452 0.48111 0.9891 0.0
H1856 H 0.07748 0.49222 0.96501 0.0
H1857 H 0.92697 0.51184 0.03359 0.0
H1858 H 0.48689 0.4678 0.09448 0.0
H1859 H 0.48701 0.4695 0.05168 0.0
H1860 H 0.53191 0.52873 0.05465 0.0
H1861 H 0.53089 0.52727 0.09796 0.0
H1862 H 0.50437 0.52607 0.0291 0.0
H1863 H 0.53712 0.48964 0.02926 0.0
H1864 H 0.54227 0.46285 0.03983 0.0
H1865 H 0.48773 0.42279 0.00995 0.0
H1866 H 0.48218 0.44931 0.99937 0.0
H1867 H 0.52142 0.53944 0.90683 0.0
H1868 H 0.52032 0.53638 0.94952 0.0
H1869 H 0.47526 0.4774 0.94358 0.0
H1870 H 0.47722 0.48025 0.90038 0.0
H1871 H 0.50168 0.4791 0.97063 0.0
H1872 H 0.46868 0.51457 0.96997 0.0
H1873 H 0.46267 0.54076 0.95921 0.0
H1874 H 0.51635 0.58182 0.99015 0.0
H1875 H 0.52276 0.5559 0.00092 0.0
C1876 C 0.49712 0.48107 0.08598 0.0
C1877 C 0.50872 0.49749 0.09954 0.0
C1878 C 0.4973 0.48199 0.06141 0.0
C1879 C 0.50949 0.49923 0.04972 0.0
C1880 C 0.52229 0.51526 0.06322 0.0
C1881 C 0.5219 0.5144 0.08796 0.0
C1882 C 0.50713 0.50108 0.0239 0.0
C1883 C 0.50418 0.516 0.01627 0.0
C1884 C 0.50588 0.48742 0.00719 0.0
C1885 C 0.50919 0.47147 0.01369 0.0
C1886 C 0.52617 0.47511 0.02509 0.0
C1887 C 0.52917 0.45997 0.03105 0.0
C1888 C 0.51532 0.44113 0.02561 0.0
C1889 C 0.49845 0.43739 0.01416 0.0
C1890 C 0.49539 0.45247 0.00814 0.0
C1891 C 0.51097 0.52593 0.91464 0.0
C1892 C 0.4995 0.51002 0.90029 0.0
C1893 C 0.51023 0.52422 0.93914 0.0
C1894 C 0.49764 0.50668 0.94997 0.0
C1895 C 0.48514 0.49109 0.93568 0.0
C1896 C 0.48607 0.49276 0.91101 0.0
C1897 C 0.49918 0.50423 0.97582 0.0
C1898 C 0.50189 0.48917 0.98347 0.0
C1899 C 0.50007 0.51767 0.99259 0.0
C1900 C 0.49625 0.53329 0.98611 0.0
C1901 C 0.47926 0.5292 0.97434 0.0
C1902 C 0.47577 0.54399 0.96828 0.0
C1903 C 0.48913 0.56294 0.97396 0.0
C1904 C 0.506 0.56714 0.98577 0.0
C1905 C 0.50955 0.55239 0.9919 0.0
H1906 H 0.48641 0.57438 0.96923 0.0
H1907 H 0.51767 0.42944 0.03024 0.0
H1908 H 0.32326 0.27371 0.35661 0.0
H1909 H 0.30189 0.28523 0.34279 0.0
H1910 H 0.34112 0.31556 0.28589 0.0
H1911 H 0.36245 0.30454 0.29991 0.0
H1912 H 0.32093 0.33262 0.29607 0.0
H1913 H 0.30957 0.26853 0.28059 0.0
H1914 H 0.3037 0.23658 0.29236 0.0
H1915 H 0.2525 0.22575 0.3287 0.0
H1916 H 0.25832 0.25785 0.31751 0.0
H1917 H 0.2656 0.31191 0.18869 0.0
H1918 H 0.28838 0.31764 0.22095 0.0
H1919 H 0.24101 0.28724 0.269 0.0
H1920 H 0.21854 0.28085 0.23688 0.0
H1921 H 0.2633 0.27295 0.2699 0.0
H1922 H 0.27293 0.33692 0.27068 0.0
H1923 H 0.28153 0.36862 0.25447 0.0
H1924 H 0.33846 0.37979 0.23991 0.0
H1925 H 0.33011 0.34801 0.25548 0.0
C1926 C 0.32752 0.28335 0.34167 0.0
C1927 C 0.34406 0.28771 0.32878 0.0
C1928 C 0.31541 0.29 0.33385 0.0
C1929 C 0.31974 0.30086 0.31296 0.0
C1930 C 0.33741 0.30707 0.3019 0.0
C1931 C 0.34941 0.30045 0.30966 0.0
C1932 C 0.30464 0.30192 0.29937 0.0
C1933 C 0.30816 0.31966 0.29044 0.0
C1934 C 0.28814 0.28496 0.29196 0.0
C1935 C 0.28453 0.26565 0.29855 0.0
C1936 C 0.29714 0.25938 0.29124 0.0
C1937 C 0.29383 0.24126 0.29781 0.0
C1938 C 0.27778 0.22916 0.31135 0.0
C1939 C 0.26498 0.23516 0.3183 0.0
C1940 C 0.26829 0.25333 0.3119 0.0
C1941 C 0.26022 0.30642 0.20617 0.0
C1942 C 0.24043 0.29538 0.21029 0.0
C1943 C 0.27316 0.30996 0.22462 0.0
C1944 C 0.26636 0.30294 0.24743 0.0
C1945 C 0.24657 0.29271 0.25156 0.0
C1946 C 0.23376 0.28885 0.23317 0.0
C1947 C 0.27941 0.3037 0.26632 0.0
C1948 C 0.27559 0.28613 0.27603 0.0
C1949 C 0.29586 0.32082 0.27372 0.0
C1950 C 0.3008 0.33992 0.26409 0.0
C1951 C 0.28722 0.34601 0.26378 0.0
C1952 C 0.29207 0.36404 0.25472 0.0
C1953 C 0.31051 0.37619 0.24612 0.0
C1954 C 0.32416 0.37036 0.24654 0.0
C1955 C 0.31937 0.35233 0.25548 0.0
H1956 H 0.31424 0.39014 0.23917 0.0
H1957 H 0.27522 0.21512 0.31638 0.0
H1958 H 0.69743 0.02686 0.35877 0.0
H1959 H 0.6848 1.0004 0.33027 0.0
H1960 H 0.73763 0.02973 0.29098 0.0
H1961 H 0.75011 0.05627 0.31891 0.0
H1962 H 0.70307 0.02312 0.26719 0.0
H1963 H 0.72826 0.99181 0.31836 0.0
H1964 H 0.72968 0.9751 0.35409 0.0
H1965 H 0.67078 0.93191 0.34462 0.0
H1966 H 0.6689 0.94859 0.30904 0.0
H1967 H 0.73144 0.97623 0.18667 0.0
H1968 H 0.72464 0.99449 0.21558 0.0
H1969 H 0.66981 0.94474 0.23043 0.0
H1970 H 0.67685 0.92612 0.20343 0.0
H1971 H 0.69142 0.95671 0.26835 0.0
H1972 H 0.67424 0.98463 0.20674 0.0
H1973 H 0.67801 1.00086 0.16871 0.0
H1974 H 0.72544 0.05227 0.19628 0.0
H1975 H 0.72327 0.03594 0.23372 0.0
C1976 C 0.70651 0.02734 0.34439 0.0
C1977 C 0.72456 0.04365 0.34056 0.0
C1978 C 0.69927 0.01227 0.32823 0.0
C1979 C 0.71024 0.01345 0.30852 0.0
C1980 C 0.72896 0.02885 0.30606 0.0
C1981 C 0.73605 0.04395 0.32191 0.0
C1982 C 0.70178 1.00042 0.28851 0.0
C1983 C 0.70049 0.00856 0.26718 0.0
C1984 C 0.69737 0.98119 0.28929 0.0
C1985 C 0.69831 0.97172 0.31134 0.0
C1986 C 0.71549 0.97898 0.32415 0.0
C1987 C 0.71641 0.96945 0.34431 0.0
C1988 C 0.70029 0.95252 0.35172 0.0
C1989 C 0.68322 0.94509 0.33896 0.0
C1990 C 0.68221 0.9546 0.31882 0.0
C1991 C 0.71782 0.96926 0.19579 0.0
C1992 C 0.7049 0.94962 0.19277 0.0
C1993 C 0.71382 0.97977 0.21204 0.0
C1994 C 0.69672 0.97084 0.22509 0.0
C1995 C 0.68304 0.95183 0.22045 0.0
C1996 C 0.68713 0.94126 0.20466 0.0
C1997 C 0.69476 0.98012 0.24636 0.0
C1998 C 0.6935 0.9711 0.26808 0.0
C1999 C 0.69747 0.99882 0.24581 0.0
C2000 C 0.69859 0.0089 0.22326 0.0
C2001 C 0.6857 0.99929 0.20468 0.0
C2002 C 0.68762 0.00852 0.18311 0.0
C2003 C 0.7018 0.02764 0.18016 0.0
C2004 C 0.71438 0.03748 0.19861 0.0
C2005 C 0.71294 0.02816 0.21996 0.0
H2006 H 0.70306 0.03481 0.16355 0.0
H2007 H 0.70107 0.94512 0.36726 0.0
H2008 H 0.96026 0.70084 0.33107 0.0
H2009 H 0.98629 0.71374 0.30237 0.0
H2010 H 1.00204 0.67213 0.32393 0.0
H2011 H 0.97618 0.6594 0.35333 0.0
H2012 H 0.03335 0.71664 0.3046 0.0
H2013 H 0.97878 0.65343 0.28488 0.0
H2014 H 0.94413 0.63073 0.28888 0.0
H2015 H 0.9317 0.67131 0.25598 0.0
H2016 H 0.96629 0.69432 0.25207 0.0
H2017 H 0.07452 0.74559 0.19749 0.0
H2018 H 0.05568 0.71882 0.22239 0.0
H2019 H 0.00896 0.73025 0.21879 0.0
H2020 H 0.02684 0.75611 0.19089 0.0
H2021 H 0.99645 0.69298 0.2299 0.0
H2022 H 0.04712 0.75654 0.25562 0.0
H2023 H 0.08057 0.78314 0.25486 0.0
H2024 H 0.09996 0.74516 0.27887 0.0
H2025 H 0.06661 0.71825 0.27935 0.0
C2026 C 0.96967 0.69488 0.3302 0.0
C2027 C 0.96609 0.67893 0.34381 0.0
C2028 C 0.98459 0.70234 0.31406 0.0
C2029 C 0.99576 0.69365 0.31104 0.0
C2030 C 0.99352 0.67898 0.32625 0.0
C2031 C 0.97872 0.67169 0.34281 0.0
C2032 C 0.00621 0.69715 0.28881 0.0
C2033 C 0.02561 0.71096 0.28819 0.0
C2034 C 0.99579 0.68989 0.26764 0.0
C2035 C 0.97507 0.67551 0.26807 0.0
C2036 C 0.96863 0.65744 0.27838 0.0
C2037 C 0.94902 0.64455 0.28071 0.0
C2038 C 0.93572 0.64957 0.27266 0.0
C2039 C 0.94202 0.66742 0.26213 0.0
C2040 C 0.96162 0.68036 0.25978 0.0
C2041 C 0.05993 0.74216 0.20041 0.0
C2042 C 0.05269 0.75401 0.19251 0.0
C2043 C 0.04916 0.72664 0.2151 0.0
C2044 C 0.03139 0.72319 0.22321 0.0
C2045 C 0.02296 0.73306 0.21306 0.0
C2046 C 0.03344 0.7482 0.19751 0.0
C2047 C 0.0237 0.71273 0.24549 0.0
C2048 C 0.00466 0.69781 0.24612 0.0
C2049 C 0.0345 0.71907 0.26671 0.0
C2050 C 0.05444 0.73537 0.26728 0.0
C2051 C 0.05853 0.75387 0.2607 0.0
C2052 C 0.07747 0.76899 0.26027 0.0
C2053 C 0.09239 0.76583 0.26675 0.0
C2054 C 0.08839 0.74757 0.2738 0.0
C2055 C 0.06948 0.73238 0.27413 0.0
H2056 H 0.10704 0.77753 0.26635 0.0
H2057 H 0.92055 0.63962 0.27461 0.0
H2058 H 0.7771 0.73712 0.77454 0.0
H2059 H 0.75297 0.73059 0.74485 0.0
H2060 H 0.71475 0.67648 0.77787 0.0
H2061 H 0.73863 0.68327 0.80883 0.0
H2062 H 0.72027 0.67662 0.72432 0.0
H2063 H 0.69941 0.70282 0.78413 0.0
H2064 H 0.70119 0.72443 0.81604 0.0
H2065 H 0.72655 0.77221 0.76831 0.0
H2066 H 0.72515 0.75093 0.73619 0.0
H2067 H 0.64377 0.69141 0.67087 0.0
H2068 H 0.66225 0.67776 0.68751 0.0
H2069 H 0.71449 0.72761 0.66514 0.0
H2070 H 0.69598 0.74137 0.64848 0.0
H2071 H 0.69648 0.72236 0.71575 0.0
H2072 H 0.71371 0.69182 0.65435 0.0
H2073 H 0.70694 0.66719 0.62428 0.0
H2074 H 0.6819 0.62323 0.67712 0.0
H2075 H 0.68813 0.64756 0.70747 0.0
C2076 C 0.76343 0.72405 0.7761 0.0
C2077 C 0.75987 0.71083 0.79434 0.0
C2078 C 0.74975 0.7202 0.7588 0.0
C2079 C 0.73225 0.70299 0.7591 0.0
C2080 C 0.72834 0.68974 0.77726 0.0
C2081 C 0.742 0.6937 0.79492 0.0
C2082 C 0.71815 0.6997 0.74049 0.0
C2083 C 0.71469 0.68632 0.72251 0.0
C2084 C 0.71084 0.71227 0.73839 0.0
C2085 C 0.71235 0.7253 0.75782 0.0
C2086 C 0.7056 0.71798 0.78052 0.0
C2087 C 0.70647 0.73015 0.79862 0.0
C2088 C 0.71402 0.74969 0.79422 0.0
C2089 C 0.72072 0.75708 0.77171 0.0
C2090 C 0.71988 0.74496 0.75354 0.0
C2091 C 0.65915 0.6989 0.6683 0.0
C2092 C 0.66865 0.71758 0.6591 0.0
C2093 C 0.66966 0.69096 0.67752 0.0
C2094 C 0.68967 0.70183 0.67789 0.0
C2095 C 0.699 0.71902 0.66494 0.0
C2096 C 0.68847 0.72697 0.65563 0.0
C2097 C 0.69952 0.70011 0.69881 0.0
C2098 C 0.7019 0.7125 0.71747 0.0
C2099 C 0.70511 0.68618 0.70161 0.0
C2100 C 0.70128 0.67157 0.68322 0.0
C2101 C 0.70656 0.67691 0.65957 0.0
C2102 C 0.70287 0.66299 0.64245 0.0
C2103 C 0.69402 0.64366 0.64878 0.0
C2104 C 0.68879 0.63821 0.67223 0.0
C2105 C 0.69241 0.65207 0.6894 0.0
H2106 H 0.69122 0.63292 0.63552 0.0
H2107 H 0.71464 0.75908 0.80825 0.0
H2108 H 0.25071 0.95175 0.67006 0.0
H2109 H 0.26764 0.98454 0.68484 0.0
H2110 H 0.32155 0.98959 0.66459 0.0
H2111 H 0.3044 0.95692 0.64874 0.0
H2112 H 0.3152 0.98829 0.71327 0.0
H2113 H 0.31885 0.0283 0.65104 0.0
H2114 H 0.30951 0.03987 0.61601 0.0
H2115 H 0.26288 0.03816 0.65454 0.0
H2116 H 0.27205 0.02683 0.68993 0.0
H2117 H 0.32526 0.0559 0.80859 0.0
H2118 H 0.33236 0.04167 0.77459 0.0
H2119 H 0.27426 0.01846 0.7502 0.0
H2120 H 0.26737 0.0334 0.7826 0.0
H2121 H 0.30043 0.0409 0.71703 0.0
H2122 H 0.29248 0.99223 0.7754 0.0
H2123 H 0.3011 0.97842 0.80882 0.0
H2124 H 0.35487 0.99394 0.77588 0.0
H2125 H 0.34682 0.00835 0.74256 0.0
C2126 C 0.26604 0.96033 0.66737 0.0
C2127 C 0.27632 0.952 0.65835 0.0
C2128 C 0.27576 0.97908 0.67578 0.0
C2129 C 0.29589 0.98946 0.67596 0.0
C2130 C 0.30603 0.98189 0.66445 0.0
C2131 C 0.29623 0.96326 0.65539 0.0
C2132 C 0.30539 0.00473 0.69382 0.0
C2133 C 0.31267 1.0003 0.71389 0.0
C2134 C 0.30216 0.02036 0.69451 0.0
C2135 C 0.29615 0.02668 0.67316 0.0
C2136 C 0.30652 0.03026 0.65201 0.0
C2137 C 0.30127 0.03681 0.63208 0.0
C2138 C 0.28552 0.03961 0.63297 0.0
C2139 C 0.27507 0.03598 0.65386 0.0
C2140 C 0.28036 0.02961 0.67391 0.0
C2141 C 0.31395 0.0477 0.79604 0.0
C2142 C 0.2958 0.04625 0.79825 0.0
C2143 C 0.31804 0.03946 0.77671 0.0
C2144 C 0.30395 0.02941 0.75961 0.0
C2145 C 0.28545 0.02648 0.763 0.0
C2146 C 0.28144 0.03484 0.78193 0.0
C2147 C 0.30816 0.02302 0.73705 0.0
C2148 C 0.30377 0.02944 0.71614 0.0
C2149 C 0.31387 0.00907 0.73571 0.0
C2150 C 0.31922 0.00178 0.75672 0.0
C2151 C 0.30634 0.99312 0.77553 0.0
C2152 C 0.31107 0.98506 0.79439 0.0
C2153 C 0.32851 0.9853 0.79448 0.0
C2154 C 0.34135 0.99374 0.77579 0.0
C2155 C 0.33676 0.00197 0.757 0.0
H2156 H 0.33211 0.97898 0.80905 0.0
H2157 H 0.28147 0.04464 0.6175 0.0
H2158 H 0.92264 0.24802 0.78757 0.0
H2159 H 0.94148 0.27422 0.761 0.0
H2160 H 0.99333 0.27905 0.78934 0.0
H2161 H 0.9745 0.2531 0.81728 0.0
H2162 H 0.99519 0.31556 0.76916 0.0
H2163 H 0.97394 0.24681 0.75163 0.0
H2164 H 0.94773 0.21324 0.74918 0.0
H2165 H 0.91725 0.22979 0.70132 0.0
H2166 H 0.94314 0.26356 0.70392 0.0
H2167 H 0.06668 0.32974 0.69558 0.0
H2168 H 0.03946 0.31538 0.72256 0.0
H2169 H 1.00136 0.30984 0.6657 0.0
H2170 H 0.0285 0.32365 0.63835 0.0
H2171 H 0.98609 0.27852 0.69542 0.0
H2172 H 0.00987 0.34463 0.70278 0.0
H2173 H 0.03577 0.37838 0.70278 0.0
H2174 H 0.05927 0.36845 0.7657 0.0
H2175 H 0.03347 0.3346 0.76605 0.0
C2176 C 0.93806 0.25519 0.78925 0.0
C2177 C 0.94709 0.24827 0.80449 0.0
C2178 C 0.94879 0.27025 0.77393 0.0
C2179 C 0.96864 0.27832 0.7732 0.0
C2180 C 0.97792 0.27291 0.78988 0.0
C2181 C 0.96717 0.25789 0.80548 0.0
C2182 C 0.97893 0.28828 0.75176 0.0
C2183 C 0.99314 0.3076 0.75296 0.0
C2184 C 0.97554 0.278 0.73037 0.0
C2185 C 0.96035 0.25766 0.72814 0.0
C2186 C 0.9616 0.24328 0.74068 0.0
C2187 C 0.9468 0.22424 0.73929 0.0
C2188 C 0.9308 0.2194 0.72516 0.0
C2189 C 0.92961 0.23358 0.71232 0.0
C2190 C 0.94434 0.25267 0.71375 0.0
C2191 C 0.05248 0.32522 0.68882 0.0
C2192 C 0.04963 0.32788 0.66509 0.0
C2193 C 0.03701 0.31718 0.70417 0.0
C2194 C 0.01864 0.31217 0.6961 0.0
C2195 C 0.01553 0.31386 0.67216 0.0
C2196 C 0.031 0.32164 0.65665 0.0
C2197 C 0.00297 0.3055 0.71321 0.0
C2198 C 0.98766 0.28678 0.71121 0.0
C2199 C 0.00494 0.31652 0.73349 0.0
C2200 C 0.01968 0.33713 0.73453 0.0
C2201 C 0.02049 0.34969 0.71672 0.0
C2202 C 0.03517 0.36882 0.71662 0.0
C2203 C 0.04914 0.37556 0.73426 0.0
C2204 C 0.04837 0.36322 0.75212 0.0
C2205 C 0.03365 0.34409 0.75237 0.0
H2206 H 0.06059 0.39034 0.73406 0.0
H2207 H 0.91934 0.20465 0.72412 0.0
H2208 H 0.9982 0.62317 0.69457 0.0
H2209 H 0.98206 0.64016 0.6797 0.0
H2210 H 0.99598 0.63258 0.60838 0.0
H2211 H 0.0119 0.61601 0.62284 0.0
H2212 H 1.00215 0.66802 0.61431 0.0
H2213 H 0.95147 0.601 0.63604 0.0
H2214 H 0.93331 0.5761 0.66593 0.0
H2215 H 0.92031 0.61479 0.70273 0.0
H2216 H 0.93858 0.63995 0.67315 0.0
H2217 H 0.92799 0.62054 0.52801 0.0
H2218 H 0.95234 0.63031 0.55926 0.0
H2219 H 0.93235 0.66593 0.59032 0.0
H2220 H 0.90834 0.65652 0.5594 0.0
H2221 H 0.93128 0.63236 0.61797 0.0
H2222 H 0.9698 0.68897 0.57366 0.0
H2223 H 0.98643 0.7078 0.5385 0.0
H2224 H 0.02398 0.68446 0.53927 0.0
H2225 H 0.00659 0.6642 0.57323 0.0
C2226 C 0.99762 0.62506 0.67573 0.0
C2227 C 0.00609 0.61806 0.65981 0.0
C2228 C 0.98863 0.63494 0.66732 0.0
C2229 C 0.98808 0.63786 0.64297 0.0
C2230 C 0.99654 0.63083 0.62728 0.0
C2231 C 0.00541 0.62107 0.63556 0.0
C2232 C 0.97735 0.64648 0.63264 0.0
C2233 C 0.98664 0.66049 0.61514 0.0
C2234 C 0.95724 0.63731 0.63474 0.0
C2235 C 0.94653 0.62235 0.65263 0.0
C2236 C 0.94482 0.60419 0.65061 0.0
C2237 C 0.93451 0.59004 0.66747 0.0
C2238 C 0.92568 0.59387 0.68624 0.0
C2239 C 0.92718 0.61186 0.68821 0.0
C2240 C 0.93753 0.62607 0.67144 0.0
C2241 C 0.92911 0.63073 0.54125 0.0
C2242 C 0.9164 0.63785 0.54122 0.0
C2243 C 0.94304 0.63642 0.55888 0.0
C2244 C 0.94416 0.64903 0.57675 0.0
C2245 C 0.93183 0.65647 0.57641 0.0
C2246 C 0.91816 0.65105 0.55871 0.0
C2247 C 0.95604 0.65187 0.59765 0.0
C2248 C 0.94681 0.64053 0.61744 0.0
C2249 C 0.97623 0.66273 0.59682 0.0
C2250 C 0.98671 0.6749 0.57612 0.0
C2251 C 0.98136 0.68753 0.56616 0.0
C2252 C 0.99098 0.69853 0.54639 0.0
C2253 C 0.00641 0.69754 0.53681 0.0
C2254 C 0.01206 0.68528 0.54674 0.0
C2255 C 1.00221 0.67391 0.56617 0.0
H2256 H 0.01398 0.70623 0.52167 0.0
H2257 H 0.91768 0.58289 0.69925 0.0
H2258 H 0.38412 0.36499 0.69197 0.0
H2259 H 0.37258 0.33928 0.66301 0.0
H2260 H 0.38894 0.38081 0.60675 0.0
H2261 H 0.3994 0.40651 0.63583 0.0
H2262 H 0.35477 0.35286 0.59915 0.0
H2263 H 0.41447 0.35658 0.62547 0.0
H2264 H 0.43666 0.35415 0.65335 0.0
H2265 H 0.3943 0.29593 0.66894 0.0
H2266 H 0.37169 0.29816 0.64161 0.0
H2267 H 0.38628 0.31004 0.50987 0.0
H2268 H 0.37976 0.3295 0.53751 0.0
H2269 H 0.33739 0.27828 0.57268 0.0
H2270 H 0.34378 0.25888 0.5457 0.0
H2271 H 0.37642 0.30525 0.59465 0.0
H2272 H 0.31955 0.29907 0.56403 0.0
H2273 H 0.29666 0.29964 0.5357 0.0
H2274 H 0.33257 0.36045 0.52767 0.0
H2275 H 0.35594 0.36023 0.55555 0.0
C2276 C 0.38552 0.36865 0.67339 0.0
C2277 C 0.39266 0.38768 0.66598 0.0
C2278 C 0.37891 0.35394 0.65689 0.0
C2279 C 0.37999 0.35816 0.63275 0.0
C2280 C 0.38785 0.37727 0.62535 0.0
C2281 C 0.39396 0.39193 0.64187 0.0
C2282 C 0.37245 0.34276 0.61503 0.0
C2283 C 0.35969 0.34258 0.59794 0.0
C2284 C 0.37791 0.3286 0.61448 0.0
C2285 C 0.39127 0.32766 0.63176 0.0
C2286 C 0.40978 0.34337 0.63512 0.0
C2287 C 0.42245 0.342 0.65079 0.0
C2288 C 0.41687 0.32492 0.66297 0.0
C2289 C 0.3986 0.30917 0.65954 0.0
C2290 C 0.38582 0.3105 0.64404 0.0
C2291 C 0.37514 0.30297 0.523 0.0
C2292 C 0.36572 0.28302 0.52577 0.0
C2293 C 0.37119 0.31402 0.53845 0.0
C2294 C 0.35795 0.30517 0.55681 0.0
C2295 C 0.34732 0.28523 0.55825 0.0
C2296 C 0.35114 0.27421 0.54283 0.0
C2297 C 0.35992 0.3163 0.57801 0.0
C2298 C 0.37141 0.31547 0.59597 0.0
C2299 C 0.3533 0.32944 0.57929 0.0
C2300 C 0.33969 0.32958 0.56169 0.0
C2301 C 0.32278 0.31253 0.55591 0.0
C2302 C 0.30965 0.3128 0.54 0.0
C2303 C 0.31319 0.33006 0.52982 0.0
C2304 C 0.32988 0.34708 0.53552 0.0
C2305 C 0.34308 0.34688 0.55138 0.0
H2306 H 0.30296 0.33025 0.51758 0.0
H2307 H 0.42673 0.32388 0.67503 0.0
H2308 H 0.60924 0.97983 0.63063 0.0
H2309 H 0.64196 0.99492 0.61748 0.0
H2310 H 0.65999 0.03146 0.67904 0.0
H2311 H 0.62642 0.0163 0.69213 0.0
H2312 H 0.66876 0.05191 0.64222 0.0
H2313 H 0.68242 0.00362 0.66249 0.0
H2314 H 0.67724 0.97111 0.66897 0.0
H2315 H 0.66839 0.9596 0.5947 0.0
H2316 H 0.67325 0.9919 0.58777 0.0
H2317 H 0.74883 0.09627 0.56157 0.0
H2318 H 0.73281 0.07242 0.59242 0.0
H2319 H 0.67926 0.05028 0.55517 0.0
H2320 H 0.69523 0.07451 0.52407 0.0
H2321 H 0.69947 0.02544 0.59035 0.0
H2322 H 0.66626 0.0666 0.58393 0.0
H2323 H 0.67128 0.09901 0.57656 0.0
H2324 H 0.71827 0.12271 0.62548 0.0
H2325 H 0.71368 0.09043 0.63274 0.0
C2326 C 0.62018 0.99093 0.64158 0.0
C2327 C 0.61531 0.99753 0.66183 0.0
C2328 C 0.63906 0.99922 0.63437 0.0
C2329 C 0.65359 0.01433 0.64726 0.0
C2330 C 0.649 0.01976 0.66883 0.0
C2331 C 0.62988 0.0113 0.67617 0.0
C2332 C 0.67166 0.02716 0.63477 0.0
C2333 C 0.67587 0.04614 0.63156 0.0
C2334 C 0.68108 0.01982 0.62064 0.0
C2335 C 0.67828 1.00031 0.62461 0.0
C2336 C 0.6793 0.99415 0.64753 0.0
C2337 C 0.67642 0.97574 0.65129 0.0
C2338 C 0.6725 0.9633 0.63226 0.0
C2339 C 0.67149 0.96926 0.60942 0.0
C2340 C 0.67438 0.98767 0.60556 0.0
C2341 C 0.73373 0.08596 0.55953 0.0
C2342 C 0.72317 0.08723 0.5405 0.0
C2343 C 0.72469 0.0723 0.57712 0.0
C2344 C 0.705 0.05965 0.57587 0.0
C2345 C 0.69458 0.05996 0.55616 0.0
C2346 C 0.70359 0.07384 0.53862 0.0
C2347 C 0.69483 0.04903 0.59711 0.0
C2348 C 0.69262 0.03098 0.6018 0.0
C2349 C 0.68715 0.05701 0.61272 0.0
C2350 C 0.68972 0.07626 0.60875 0.0
C2351 C 0.67768 0.07877 0.59304 0.0
C2352 C 0.68047 0.09709 0.58885 0.0
C2353 C 0.69511 0.11292 0.60052 0.0
C2354 C 0.70698 0.11045 0.61641 0.0
C2355 C 0.70432 0.09217 0.62052 0.0
H2356 H 0.69723 0.12709 0.5973 0.0
H2357 H 0.67023 0.94903 0.63521 0.0
H2358 H 0.32256 0.02978 0.98244 0.0
H2359 H 0.33941 0.01442 -0.00011 0.0
H2360 H 0.38311 0.0693 0.02614 0.0
H2361 H 0.36601 0.0844 0.00946 0.0
H2362 H 0.39626 0.042 0.01726 0.0
H2363 H 0.34195 0.04688 0.05645 0.0
H2364 H 0.30782 0.03778 0.05513 0.0
H2365 H 0.29174 0.97849 0.04915 0.0
H2366 H 0.32583 0.98733 0.05012 0.0
H2367 H 0.43354 0.07017 0.12167 0.0
H2368 H 0.41078 0.06277 0.09028 0.0
H2369 H 0.38071 0.00335 0.11083 0.0
H2370 H 0.40239 0.01087 0.14443 0.0
H2371 H 0.35668 0.01653 0.08973 0.0
H2372 H 0.41096 0.01178 0.06787 0.0
H2373 H 0.44519 0.02202 0.07243 0.0
H2374 H 0.46064 0.07774 0.0456 0.0
H2375 H 0.42652 0.06776 0.04059 0.0
C2376 C 0.33632 0.03863 0.99085 0.0
C2377 C 0.34309 0.05818 0.99484 0.0
C2378 C 0.34589 0.02986 0.00081 0.0
C2379 C 0.36235 0.04071 0.01454 0.0
C2380 C 0.37045 0.06069 0.01556 0.0
C2381 C 0.3607 0.06934 0.00608 0.0
C2382 C 0.36838 0.03163 0.03268 0.0
C2383 C 0.38746 0.0358 0.03282 0.0
C2384 C 0.35675 0.02306 0.05282 0.0
C2385 C 0.33634 0.01774 0.05327 0.0
C2386 C 0.3311 0.03191 0.05491 0.0
C2387 C 0.31179 0.02681 0.05415 0.0
C2388 C 0.29762 0.00757 0.05204 0.0
C2389 C 0.30273 0.99338 0.05076 0.0
C2390 C 0.32204 0.99843 0.0514 0.0
C2391 C 0.42171 0.05565 0.12057 0.0
C2392 C 0.42045 0.04105 0.1354 0.0
C2393 C 0.40877 0.05138 0.1022 0.0
C2394 C 0.39467 0.03239 0.09763 0.0
C2395 C 0.39186 0.01804 0.11375 0.0
C2396 C 0.40452 0.0224 0.13274 0.0
C2397 C 0.38478 0.02787 0.07455 0.0
C2398 C 0.36512 0.02131 0.07367 0.0
C2399 C 0.39569 0.03358 0.05349 0.0
C2400 C 0.41619 0.03898 0.0537 0.0
C2401 C 0.42168 0.02613 0.06263 0.0
C2402 C 0.44105 0.03191 0.06537 0.0
C2403 C 0.45507 0.05053 0.05935 0.0
C2404 C 0.44975 0.06331 0.0502 0.0
C2405 C 0.4304 0.05754 0.04716 0.0
H2406 H 0.47006 0.05504 0.06171 0.0
H2407 H 0.28268 0.00364 0.0514 0.0
H2408 H 0.99429 0.41223 0.11871 0.0
H2409 H 1.00101 0.39236 0.09305 0.0
H2410 H 0.95198 0.34179 0.12064 0.0
H2411 H 0.94547 0.3616 0.14761 0.0
H2412 H 0.98667 0.33836 0.10317 0.0
H2413 H 0.94078 0.36088 0.08045 0.0
H2414 H 0.93523 0.38827 0.07721 0.0
H2415 H 0.985 0.41797 0.03321 0.0
H2416 H 0.99095 0.39081 0.0365 0.0
H2417 H 0.92287 0.27794 0.00887 0.0
H2418 H 0.93485 0.30562 0.03558 0.0
H2419 H 0.99292 0.32265 0.01591 0.0
H2420 H 0.98102 0.29446 0.9904 0.0
H2421 H 0.96216 0.34773 0.02667 0.0
H2422 H 0.0126 0.33018 0.05461 0.0
H2423 H 0.01968 0.30371 0.05591 0.0
H2424 H 0.96456 0.26684 0.08688 0.0
H2425 H 0.95709 0.29307 0.08528 0.0
C2426 C 0.9854 0.39684 0.12037 0.0
C2427 C 0.96914 0.3885 0.13515 0.0
C2428 C 0.98935 0.38553 0.10559 0.0
C2429 C 0.97693 0.36575 0.10496 0.0
C2430 C 0.96176 0.35711 0.12111 0.0
C2431 C 0.95786 0.36845 0.13616 0.0
C2432 C 0.97684 0.35497 0.08408 0.0
C2433 C 0.98163 0.34059 0.08636 0.0
C2434 C 0.97066 0.35822 0.06206 0.0
C2435 C 0.96629 0.37388 0.05873 0.0
C2436 C 0.95047 0.37324 0.07002 0.0
C2437 C 0.9473 0.38873 0.06823 0.0
C2438 C 0.95976 0.40485 0.055 0.0
C2439 C 0.97535 0.40546 0.04342 0.0
C2440 C 0.97862 0.39002 0.04521 0.0
C2441 C 0.93816 0.28753 0.01059 0.0
C2442 C 0.95114 0.28391 0.99852 0.0
C2443 C 0.94496 0.30338 0.02547 0.0
C2444 C 0.96474 0.3159 0.02782 0.0
C2445 C 0.97765 0.31284 0.01469 0.0
C2446 C 0.97088 0.29674 0.00037 0.0
C2447 C 0.97166 0.33091 0.04589 0.0
C2448 C 0.96795 0.346 0.04319 0.0
C2449 C 0.97945 0.32875 0.06721 0.0
C2450 C 0.98437 0.31351 0.06999 0.0
C2451 C 1.00211 0.31646 0.06192 0.0
C2452 C 0.00613 0.30149 0.06254 0.0
C2453 C 0.99259 0.28361 0.07153 0.0
C2454 C 0.97503 0.2807 0.07995 0.0
C2455 C 0.97088 0.29559 0.07916 0.0
H2456 H 0.9957 0.27201 0.07193 0.0
H2457 H 0.95733 0.41687 0.05372 0.0
H2458 H 0.6456 0.59228 0.14149 0.0
H2459 H 0.6628 0.61457 0.10925 0.0
H2460 H 0.60937 0.60599 0.08112 0.0
H2461 H 0.59213 0.58366 0.11271 0.0
H2462 H 0.65505 0.59903 0.0655 0.0
H2463 H 0.61525 0.63963 0.05129 0.0
H2464 H 0.60439 0.65882 0.07362 0.0
H2465 H 0.65197 0.67739 0.12106 0.0
H2466 H 0.66292 0.65814 0.09917 0.0
H2467 H 0.71094 0.64392 0.97092 0.0
H2468 H 0.67761 0.62674 0.98511 0.0
H2469 H 0.69042 0.67431 0.03145 0.0
H2470 H 0.72239 0.69162 0.01589 0.0
H2471 H 0.65641 0.65636 0.03146 0.0
H2472 H 0.70465 0.63496 0.0385 0.0
H2473 H 0.72311 0.62032 0.0234 0.0
H2474 H 0.67091 0.57018 0.0025 0.0
H2475 H 0.65224 0.58465 0.01729 0.0
C2476 C 0.63759 0.59551 0.12875 0.0
C2477 C 0.6175 0.58593 0.12947 0.0
C2478 C 0.64741 0.60832 0.11048 0.0
C2479 C 0.63728 0.61173 0.09275 0.0
C2480 C 0.61745 0.6037 0.09474 0.0
C2481 C 0.60762 0.59088 0.11292 0.0
C2482 C 0.64675 0.62037 0.07018 0.0
C2483 C 0.65546 0.61164 0.05804 0.0
C2484 C 0.64675 0.63639 0.06028 0.0
C2485 C 0.63978 0.6474 0.07373 0.0
C2486 C 0.62332 0.64778 0.06652 0.0
C2487 C 0.61716 0.65864 0.07911 0.0
C2488 C 0.62751 0.66934 0.09871 0.0
C2489 C 0.64395 0.66907 0.10591 0.0
C2490 C 0.65006 0.65811 0.09352 0.0
C2491 C 0.70615 0.65092 0.98322 0.0
C2492 C 0.71922 0.66859 0.9933 0.0
C2493 C 0.68719 0.6411 0.99149 0.0
C2494 C 0.6818 0.64864 0.01058 0.0
C2495 C 0.6941 0.66773 0.01729 0.0
C2496 C 0.71261 0.67762 0.00862 0.0
C2497 C 0.66653 0.6362 0.0276 0.0
C2498 C 0.6559 0.64361 0.03857 0.0
C2499 C 0.66583 0.61961 0.03737 0.0
C2500 C 0.67712 0.61112 0.02824 0.0
C2501 C 0.69717 0.6209 0.03046 0.0
C2502 C 0.70765 0.61263 0.02199 0.0
C2503 C 0.6982 0.59441 0.01178 0.0
C2504 C 0.67823 0.58438 0.01016 0.0
C2505 C 0.6677 0.59264 0.01846 0.0
H2506 H 0.70634 0.58801 0.00528 0.0
H2507 H 0.62278 0.67783 0.10834 0.0
H2508 H 0.68768 0.95627 0.95782 0.0
H2509 H 0.67401 0.97466 0.94245 0.0
H2510 H 0.64536 0.96904 0.00884 0.0
H2511 H 0.65929 0.95029 0.02461 0.0
H2512 H 0.62108 0.95572 0.97447 0.0
H2513 H 0.67543 0.01509 0.98567 0.0
H2514 H 0.70956 0.03971 0.98842 0.0
H2515 H 0.71618 0.03531 0.91394 0.0
H2516 H 0.68217 0.01047 0.91072 0.0
H2517 H 0.57619 0.98701 0.89146 0.0
H2518 H 0.60017 0.99503 0.92227 0.0
H2519 H 0.6241 0.96597 0.88344 0.0
H2520 H 0.59959 0.95734 0.85258 0.0
H2521 H 0.65038 0.00754 0.91462 0.0
H2522 H 0.60059 0.93793 0.9129 0.0
H2523 H 0.56686 0.91211 0.91093 0.0
H2524 H 0.55341 0.93639 0.97015 0.0
H2525 H 0.58695 0.96275 0.97194 0.0
C2526 C 0.67857 0.95897 0.96932 0.0
C2527 C 0.67407 0.95133 0.99221 0.0
C2528 C 0.67115 0.96999 0.96067 0.0
C2529 C 0.65895 0.97359 0.97462 0.0
C2530 C 0.65499 0.96665 0.99791 0.0
C2531 C 0.66266 0.9557 0.00674 0.0
C2532 C 0.64724 0.98039 0.96261 0.0
C2533 C 0.62748 0.96757 0.96207 0.0
C2534 C 0.65553 0.99582 0.94633 0.0
C2535 C 0.67611 0.01088 0.94796 0.0
C2536 C 0.68415 0.01929 0.96987 0.0
C2537 C 0.7035 0.03331 0.97151 0.0
C2538 C 0.71502 0.03909 0.95136 0.0
C2539 C 0.70721 0.03086 0.92952 0.0
C2540 C 0.68786 0.01684 0.92777 0.0
C2541 C 0.58688 0.98275 0.88918 0.0
C2542 C 0.58612 0.97153 0.86976 0.0
C2543 C 0.60059 0.98746 0.90669 0.0
C2544 C 0.61388 0.98124 0.90487 0.0
C2545 C 0.61401 0.97108 0.8848 0.0
C2546 C 0.59997 0.96599 0.86742 0.0
C2547 C 0.62495 0.98198 0.92579 0.0
C2548 C 0.64418 0.99632 0.92782 0.0
C2549 C 0.61632 0.96799 0.94358 0.0
C2550 C 0.5961 0.95251 0.94218 0.0
C2551 C 0.59033 0.93797 0.92517 0.0
C2552 C 0.57126 0.92322 0.92413 0.0
C2553 C 0.55794 0.92271 0.94029 0.0
C2554 C 0.56368 0.93693 0.95751 0.0
C2555 C 0.58269 0.95181 0.9585 0.0
H2556 H 0.54319 0.91122 0.93958 0.0
H2557 H 0.72998 0.04995 0.95268 0.0
H2558 H 0.06622 0.64493 0.85251 0.0
H2559 H 0.05954 0.66291 0.88186 0.0
H2560 H 1.00203 0.61578 0.88987 0.0
H2561 H 0.00856 0.59719 0.86251 0.0
H2562 H 0.01056 0.6573 0.90226 0.0
H2563 H 0.02525 0.60653 0.91966 0.0
H2564 H 0.04334 0.58993 0.91147 0.0
H2565 H 0.09611 0.64165 0.92614 0.0
H2566 H 0.07834 0.6587 0.93369 0.0
H2567 H 0.02619 0.69509 0.02097 0.0
H2568 H 0.01331 0.66809 0.99321 0.0
H2569 H 0.06907 0.69179 0.96079 0.0
H2570 H 0.08189 0.71854 0.98817 0.0
H2571 H 0.05035 0.65236 0.96584 0.0
H2572 H 0.03558 0.70363 0.94501 0.0
H2573 H 0.01768 0.72059 0.95194 0.0
H2574 H 0.96454 0.66788 0.94379 0.0
H2575 H 0.98211 0.65044 0.93786 0.0
C2576 C 0.052 0.63847 0.86004 0.0
C2577 C 0.03837 0.61919 0.8557 0.0
C2578 C 0.04809 0.64896 0.87642 0.0
C2579 C 0.03043 0.64036 0.88821 0.0
C2580 C 0.01572 0.62255 0.88087 0.0
C2581 C 0.01969 0.61189 0.86499 0.0
C2582 C 0.02949 0.64683 0.91205 0.0
C2583 C 0.019 0.65606 0.91633 0.0
C2584 C 0.03988 0.64437 0.93049 0.0
C2585 C 0.05049 0.63392 0.92696 0.0
C2586 C 0.04072 0.61439 0.92095 0.0
C2587 C 0.05091 0.60491 0.91641 0.0
C2588 C 0.07087 0.61474 0.91823 0.0
C2589 C 0.08066 0.63406 0.92468 0.0
C2590 C 0.07054 0.64364 0.92906 0.0
C2591 C 0.03573 0.69423 0.00819 0.0
C2592 C 0.05495 0.70894 0.00631 0.0
C2593 C 0.02835 0.67887 0.99245 0.0
C2594 C 0.04025 0.67818 0.97497 0.0
C2595 C 0.0597 0.69218 0.97423 0.0
C2596 C 0.06699 0.7075 0.98971 0.0
C2597 C 0.03273 0.66428 0.95565 0.0
C2598 C 0.04135 0.65313 0.95213 0.0
C2599 C 0.02058 0.665 0.93809 0.0
C2600 C 0.01016 0.67566 0.94147 0.0
C2601 C 0.02008 0.6956 0.94505 0.0
C2602 C 0.00998 0.70529 0.94886 0.0
C2603 C 0.98997 0.69528 0.94857 0.0
C2604 C 0.98003 0.67557 0.94435 0.0
C2605 C 0.99004 0.66576 0.94086 0.0
H2606 H 0.98218 0.70281 0.95147 0.0
H2607 H 0.07874 0.60739 0.91468 0.0
H2608 H 0.26651 0.3261 0.9686 0.0
H2609 H 0.29299 0.34109 0.94047 0.0
H2610 H 0.33343 0.363 0.99815 0.0
H2611 H 0.30702 0.34904 0.02619 0.0
H2612 H 0.34393 0.3889 0.96732 0.0
H2613 H 0.33022 0.32579 0.96483 0.0
H2614 H 0.30957 0.29067 0.96546 0.0
H2615 H 0.28678 0.29242 0.89758 0.0
H2616 H 0.30722 0.32762 0.89662 0.0
H2617 H 0.41329 0.42246 0.88087 0.0
H2618 H 0.39388 0.3958 0.90675 0.0
H2619 H 0.34264 0.38946 0.87443 0.0
H2620 H 0.3621 0.41606 0.84749 0.0
H2621 H 0.34404 0.35264 0.89645 0.0
H2622 H 0.35589 0.42011 0.91179 0.0
H2623 H 0.37965 0.45455 0.91507 0.0
H2624 H 0.41189 0.44189 0.96502 0.0
H2625 H 0.38842 0.40734 0.96171 0.0
C2626 C 0.28105 0.33428 0.97514 0.0
C2627 C 0.28482 0.33655 0.99936 0.0
C2628 C 0.29615 0.3426 0.95918 0.0
C2629 C 0.31515 0.35267 0.96732 0.0
C2630 C 0.31888 0.35519 0.99156 0.0
C2631 C 0.30378 0.34731 0.00749 0.0
C2632 C 0.331 0.36123 0.95031 0.0
C2633 C 0.34421 0.38083 0.95215 0.0
C2634 C 0.33182 0.3506 0.93096 0.0
C2635 C 0.32026 0.32935 0.93064 0.0
C2636 C 0.32083 0.31868 0.95 0.0
C2637 C 0.30915 0.29877 0.95044 0.0
C2638 C 0.29687 0.28932 0.93157 0.0
C2639 C 0.29635 0.29977 0.91215 0.0
C2640 C 0.30805 0.3197 0.9116 0.0
C2641 C 0.39793 0.41488 0.8783 0.0
C2642 C 0.38917 0.42146 0.86216 0.0
C2643 C 0.3869 0.39956 0.89313 0.0
C2644 C 0.36698 0.39079 0.89232 0.0
C2645 C 0.35809 0.39606 0.87494 0.0
C2646 C 0.36917 0.41143 0.85992 0.0
C2647 C 0.35595 0.3803 0.91306 0.0
C2648 C 0.34392 0.36042 0.91199 0.0
C2649 C 0.35688 0.39045 0.9338 0.0
C2650 C 0.37053 0.41122 0.93637 0.0
C2651 C 0.36809 0.4247 0.9234 0.0
C2652 C 0.3815 0.44422 0.92525 0.0
C2653 C 0.39729 0.45041 0.94022 0.0
C2654 C 0.39966 0.43708 0.95342 0.0
C2655 C 0.38631 0.41754 0.95157 0.0
H2656 H 0.40767 0.46552 0.94161 0.0
H2657 H 0.28774 0.27391 0.93199 0.0
H2658 H 0.00343 0.36251 0.30771 0.0
H2659 H 0.02051 0.35249 0.33503 0.0
H2660 H 0.02613 0.3956 0.38464 0.0
H2661 H 0.00853 0.40515 0.3579 0.0
H2662 H 0.06132 0.39192 0.37163 0.0
H2663 H 0.99165 0.35555 0.39228 0.0
H2664 H 0.9586 0.33131 0.38164 0.0
H2665 H 0.976 0.28937 0.3722 0.0
H2666 H 0.00931 0.31353 0.38223 0.0
H2667 H 0.08686 0.39366 0.48339 0.0
H2668 H 0.06193 0.38816 0.4548 0.0
H2669 H 0.05844 0.33522 0.43345 0.0
H2670 H 0.08361 0.34077 0.4606 0.0
H2671 H 0.02355 0.3368 0.42528 0.0
H2672 H 0.09024 0.36831 0.40827 0.0
H2673 H 0.12421 0.39032 0.41761 0.0
H2674 H 0.1146 0.4381 0.41497 0.0
H2675 H 0.08038 0.41625 0.40643 0.0
C2676 C 0.00845 0.36985 0.32444 0.0
C2677 C 0.00469 0.38447 0.33103 0.0
C2678 C 0.01811 0.36413 0.33988 0.0
C2679 C 0.02439 0.37336 0.36163 0.0
C2680 C 0.02124 0.38839 0.36781 0.0
C2681 C 0.01118 0.39375 0.35271 0.0
C2682 C 0.03375 0.36728 0.37882 0.0
C2683 C 0.05316 0.37981 0.38327 0.0
C2684 C 0.02314 0.35096 0.39315 0.0
C2685 C 0.00302 0.33642 0.38767 0.0
C2686 C 0.98849 0.34123 0.38768 0.0
C2687 C 0.9697 0.32749 0.38179 0.0
C2688 C 0.96521 0.30882 0.37616 0.0
C2689 C 0.9795 0.30384 0.37649 0.0
C2690 C 0.99834 0.31756 0.38225 0.0
C2691 C 0.08045 0.38061 0.47309 0.0
C2692 C 0.08776 0.36805 0.47391 0.0
C2693 C 0.066 0.37732 0.45708 0.0
C2694 C 0.05881 0.36149 0.44184 0.0
C2695 C 0.06389 0.34748 0.44513 0.0
C2696 C 0.07845 0.35083 0.46083 0.0
C2697 C 0.05067 0.3624 0.41909 0.0
C2698 C 0.03178 0.3487 0.4134 0.0
C2699 C 0.06192 0.37729 0.40304 0.0
C2700 C 0.08269 0.39061 0.407 0.0
C2701 C 0.09533 0.38349 0.40988 0.0
C2702 C 0.11463 0.39593 0.41505 0.0
C2703 C 0.12155 0.4156 0.41695 0.0
C2704 C 0.1092 0.42285 0.41356 0.0
C2705 C 0.08984 0.41044 0.40859 0.0
H2706 H 0.1365 0.42521 0.42098 0.0
H2707 H 0.95065 0.29822 0.37162 0.0
H2708 H 0.64866 0.71755 0.47582 0.0
H2709 H 0.65388 0.70048 0.4432 0.0
H2710 H 0.61257 0.70642 0.401 0.0
H2711 H 0.60712 0.72293 0.43321 0.0
H2712 H 0.60467 0.67034 0.40405 0.0
H2713 H 0.66145 0.73254 0.39291 0.0
H2714 H 0.69267 0.75986 0.40461 0.0
H2715 H 0.71656 0.7229 0.40903 0.0
H2716 H 0.68534 0.69516 0.39851 0.0
H2717 H 0.60188 0.61935 0.3094 0.0
H2718 H 0.61324 0.65202 0.32381 0.0
H2719 H 0.65407 0.64764 0.36883 0.0
H2720 H 0.64299 0.61536 0.35428 0.0
H2721 H 0.66439 0.68555 0.36148 0.0
H2722 H 0.61017 0.62552 0.38725 0.0
H2723 H 0.58028 0.59504 0.38022 0.0
H2724 H 0.55351 0.62586 0.35363 0.0
H2725 H 0.58346 0.65652 0.36003 0.0
C2726 C 0.64066 0.71505 0.45958 0.0
C2727 C 0.62707 0.72105 0.45725 0.0
C2728 C 0.64384 0.70558 0.44091 0.0
C2729 C 0.6337 0.70235 0.41965 0.0
C2730 C 0.62051 0.70875 0.41727 0.0
C2731 C 0.61719 0.71791 0.43584 0.0
C2732 C 0.63486 0.69049 0.4006 0.0
C2733 C 0.61771 0.674 0.39445 0.0
C2734 C 0.65207 0.69481 0.38879 0.0
C2735 C 0.67088 0.71164 0.39515 0.0
C2736 C 0.67325 0.73014 0.39668 0.0
C2737 C 0.69098 0.74573 0.40305 0.0
C2738 C 0.70657 0.74313 0.40745 0.0
C2739 C 0.70447 0.7249 0.40562 0.0
C2740 C 0.68673 0.70922 0.39955 0.0
C2741 C 0.61388 0.62578 0.32149 0.0
C2742 C 0.62113 0.61481 0.33151 0.0
C2743 C 0.62046 0.64445 0.3296 0.0
C2744 C 0.63406 0.65193 0.34794 0.0
C2745 C 0.64342 0.64206 0.35492 0.0
C2746 C 0.63684 0.6235 0.34691 0.0
C2747 C 0.63409 0.66602 0.36462 0.0
C2748 C 0.65137 0.68249 0.3707 0.0
C2749 C 0.61719 0.66155 0.37712 0.0
C2750 C 0.59906 0.64323 0.3738 0.0
C2751 C 0.59793 0.62576 0.37977 0.0
C2752 C 0.581 0.60847 0.37589 0.0
C2753 C 0.56502 0.60851 0.36641 0.0
C2754 C 0.56592 0.62585 0.36088 0.0
C2755 C 0.58287 0.64318 0.3646 0.0
H2756 H 0.55191 0.5951 0.36341 0.0
H2757 H 0.72029 0.75525 0.41228 0.0
H2758 H 0.28292 0.93142 0.47707 0.0
H2759 H 0.30008 0.95421 0.44496 0.0
H2760 H 0.30429 0.91002 0.40719 0.0
H2761 H 0.28716 0.88737 0.43851 0.0
H2762 H 0.33856 0.94329 0.41274 0.0
H2763 H 0.2724 0.92327 0.39222 0.0
H2764 H 0.241 0.9207 0.39896 0.0
H2765 H 0.26767 0.982 0.40129 0.0
H2766 H 0.29931 0.98495 0.39509 0.0
H2767 H 0.38073 0.97841 0.3105 0.0
H2768 H 0.34911 0.95809 0.32814 0.0
H2769 H 0.35245 0.00748 0.36217 0.0
H2770 H 0.38385 0.02779 0.34444 0.0
H2771 H 0.31331 0.97414 0.35892 0.0
H2772 H 0.37743 0.99449 0.38978 0.0
H2773 H 0.41035 1.00022 0.38548 0.0
H2774 H 0.38819 0.94125 0.36664 0.0
H2775 H 0.35513 0.93525 0.3707 0.0
C2776 C 0.28759 0.92664 0.46191 0.0
C2777 C 0.28397 0.90765 0.46053 0.0
C2778 C 0.29721 0.9396 0.44357 0.0
C2779 C 0.30322 0.93366 0.42369 0.0
C2780 C 0.29972 0.91483 0.42242 0.0
C2781 C 0.2902 0.90198 0.44057 0.0
C2782 C 0.31451 0.94705 0.40468 0.0
C2783 C 0.33287 0.94982 0.40088 0.0
C2784 C 0.30736 0.95618 0.38978 0.0
C2785 C 0.28829 0.95432 0.39353 0.0
C2786 C 0.27162 0.9362 0.39447 0.0
C2787 C 0.25376 0.93468 0.39814 0.0
C2788 C 0.25235 0.95117 0.40064 0.0
C2789 C 0.26879 0.96923 0.39942 0.0
C2790 C 0.28669 0.97084 0.39585 0.0
C2791 C 0.37418 0.98501 0.32063 0.0
C2792 C 0.38471 0.00439 0.32684 0.0
C2793 C 0.35609 0.97347 0.33056 0.0
C2794 C 0.34881 0.98132 0.34694 0.0
C2795 C 0.35792 1.00121 0.34972 0.0
C2796 C 0.37596 0.01271 0.33988 0.0
C2797 C 0.33672 0.96929 0.36647 0.0
C2798 C 0.31866 0.96727 0.3707 0.0
C2799 C 0.34413 0.96104 0.38228 0.0
C2800 C 0.36391 0.96448 0.38031 0.0
C2801 C 0.37962 0.98279 0.38463 0.0
C2802 C 0.39828 0.98608 0.38225 0.0
C2803 C 0.40136 0.97113 0.37569 0.0
C2804 C 0.38578 0.95282 0.37166 0.0
C2805 C 0.36709 0.94946 0.37403 0.0
H2806 H 0.41582 0.97371 0.37381 0.0
H2807 H 0.23851 0.94996 0.40344 0.0
H2808 H 0.28578 0.14108 0.97665 0.0
H2809 H 0.27788 0.16267 0.99687 0.0
H2810 H 0.31836 0.20954 0.95361 0.0
H2811 H 0.32803 0.18849 0.93508 0.0
H2812 H 0.32082 0.22301 0.99399 0.0
H2813 H 0.26596 0.18371 0.9462 0.0
H2814 H 0.2395 0.15335 0.93078 0.0
H2815 H 0.2155 0.13767 0.00034 0.0
H2816 H 0.24195 0.16782 0.01624 0.0
H2817 H 0.28382 0.28454 0.0261 0.0
H2818 H 0.29521 0.265 0.00686 0.0
H2819 H 0.25488 0.21594 0.04754 0.0
H2820 H 0.24236 0.23523 0.06509 0.0
H2821 H 0.25292 0.20437 0.00687 0.0
H2822 H 0.31002 0.24523 0.05397 0.0
H2823 H 0.33694 0.2763 0.067 0.0
H2824 H 0.35667 0.29024 0.99546 0.0
H2825 H 0.32979 0.25935 0.982 0.0
C2826 C 0.29339 0.156 0.97156 0.0
C2827 C 0.30771 0.16278 0.95399 0.0
C2828 C 0.28849 0.16839 0.98296 0.0
C2829 C 0.29711 0.18782 0.97655 0.0
C2830 C 0.31132 0.19465 0.95896 0.0
C2831 C 0.31663 0.18239 0.948 0.0
C2832 C 0.29152 0.20103 0.98833 0.0
C2833 C 0.30594 0.21897 0.99655 0.0
C2834 C 0.27214 0.19593 0.99204 0.0
C2835 C 0.25601 0.17796 0.98243 0.0
C2836 C 0.25508 0.17375 0.95822 0.0
C2837 C 0.24008 0.15658 0.94939 0.0
C2838 C 0.22585 0.14358 0.96458 0.0
C2839 C 0.22654 0.14775 0.9886 0.0
C2840 C 0.24152 0.16489 0.99752 0.0
C2841 C 0.27775 0.2697 0.03137 0.0
C2842 C 0.26244 0.2615 0.04747 0.0
C2843 C 0.28433 0.25845 0.02037 0.0
C2844 C 0.27629 0.23886 0.0259 0.0
C2845 C 0.26144 0.23093 0.04276 0.0
C2846 C 0.2544 0.24201 0.05308 0.0
C2847 C 0.28222 0.22623 0.01315 0.0
C2848 C 0.26782 0.2084 0.00452 0.0
C2849 C 0.30162 0.23159 0.00877 0.0
C2850 C 0.31783 0.25005 0.01699 0.0
C2851 C 0.32006 0.25496 0.04103 0.0
C2852 C 0.33532 0.27253 0.04848 0.0
C2853 C 0.34848 0.28525 0.03207 0.0
C2854 C 0.34646 0.28039 0.00816 0.0
C2855 C 0.33125 0.26285 0.00062 0.0
H2856 H 0.36027 0.29885 0.03787 0.0
H2857 H 0.21427 0.13028 0.95772 0.0
H2858 H 0.83761 0.12583 0.92592 0.0
H2859 H 0.81518 0.09509 0.94412 0.0
H2860 H 0.81834 0.12404 0.00943 0.0
H2861 H 0.84146 0.15467 0.99149 0.0
H2862 H 0.81686 0.09311 0.02025 0.0
H2863 H 0.77914 0.10684 0.96796 0.0
H2864 H 0.76991 0.11533 0.93031 0.0
H2865 H 0.76283 0.0638 0.89871 0.0
H2866 H 0.77238 0.05516 0.93604 0.0
H2867 H 0.73456 0.00872 0.06732 0.0
H2868 H 0.75512 0.04138 0.05203 0.0
H2869 H 0.76437 0.01816 0.98816 0.0
H2870 H 0.74416 0.98583 0.00317 0.0
H2871 H 0.75728 0.04734 0.97842 0.0
H2872 H 0.79802 0.03615 0.03175 0.0
H2873 H 0.80665 0.02854 0.07042 0.0
H2874 H 0.80613 0.07691 0.10131 0.0
H2875 H 0.79722 0.08463 0.06286 0.0
C2876 C 0.83361 0.12558 0.94422 0.0
C2877 C 0.84129 0.14268 0.95727 0.0
C2878 C 0.8206 0.108 0.95459 0.0
C2879 C 0.81451 0.10711 0.97808 0.0
C2880 C 0.82263 0.12418 0.99129 0.0
C2881 C 0.83593 0.14172 0.98105 0.0
C2882 C 0.7999 0.08844 0.98893 0.0
C2883 C 0.8037 0.08332 0.01118 0.0
C2884 C 0.78262 0.07539 0.97726 0.0
C2885 C 0.77665 0.08043 0.95479 0.0
C2886 C 0.77574 0.09737 0.95295 0.0
C2887 C 0.77045 0.10222 0.93165 0.0
C2888 C 0.76584 0.09014 0.91211 0.0
C2889 C 0.76645 0.07317 0.91385 0.0
C2890 C 0.7718 0.06828 0.93508 0.0
C2891 C 0.74112 0.01059 0.05013 0.0
C2892 C 0.73786 0.99452 0.03674 0.0
C2893 C 0.75283 0.02928 0.04134 0.0
C2894 C 0.76143 0.03232 0.0189 0.0
C2895 C 0.75795 0.0163 0.00546 0.0
C2896 C 0.74647 0.99773 0.01426 0.0
C2897 C 0.7745 0.05204 0.00944 0.0
C2898 C 0.77038 0.05732 0.98748 0.0
C2899 C 0.7913 0.06541 0.02151 0.0
C2900 C 0.79675 0.06082 0.04453 0.0
C2901 C 0.7996 0.04506 0.04684 0.0
C2902 C 0.80456 0.04075 0.0687 0.0
C2903 C 0.80688 0.0522 0.08833 0.0
C2904 C 0.80429 0.06803 0.08611 0.0
C2905 C 0.79929 0.07238 0.06429 0.0
H2906 H 0.81072 0.04883 0.10524 0.0
H2907 H 0.76176 0.09393 0.89563 0.0
H2908 H 0.85648 0.715 0.98325 0.0
H2909 H 0.88494 0.72171 0.00409 0.0
H2910 H 0.89751 0.69072 0.95183 0.0
H2911 H 0.867 0.68069 0.93301 0.0
H2912 H 0.90816 0.68422 0.9892 0.0
H2913 H 0.91985 0.74492 0.95778 0.0
H2914 H 0.91265 0.77097 0.9515 0.0
H2915 H 0.91518 0.78075 0.02622 0.0
H2916 H 0.92218 0.75462 0.03296 0.0
H2917 H 0.00882 0.73296 0.00184 0.0
H2918 H 0.97582 0.72117 0.98994 0.0
H2919 H 0.96358 0.73655 0.05793 0.0
H2920 H 0.99704 0.74822 0.07032 0.0
H2921 H 0.95183 0.75028 0.01753 0.0
H2922 H 0.94516 0.69152 0.04648 0.0
H2923 H 0.95279 0.66562 0.05064 0.0
H2924 H 0.94211 0.65285 0.97683 0.0
H2925 H 0.93505 0.6791 0.97199 0.0
C2926 C 0.86462 0.70883 0.97623 0.0
C2927 C 0.85858 0.6968 0.95615 0.0
C2928 C 0.88157 0.71336 0.98806 0.0
C2929 C 0.89399 0.70734 0.97934 0.0
C2930 C 0.88837 0.69572 0.95907 0.0
C2931 C 0.87085 0.69028 0.9479 0.0
C2932 C 0.91259 0.71285 0.9915 0.0
C2933 C 0.91779 0.69877 0.99499 0.0
C2934 C 0.92509 0.73169 -2e-05 0.0
C2935 C 0.92141 0.74774 0.99587 0.0
C2936 C 0.91884 0.75262 0.97286 0.0
C2937 C 0.91478 0.76738 0.96923 0.0
C2938 C 0.91343 0.77749 0.98845 0.0
C2939 C 0.91622 0.77291 0.01135 0.0
C2940 C 0.92027 0.75815 0.01508 0.0
C2941 C 0.99915 0.73383 0.0144 0.0
C2942 C 0.00563 0.74177 0.03697 0.0
C2943 C 0.9802 0.72692 0.00757 0.0
C2944 C 0.96718 0.72791 0.02302 0.0
C2945 C 0.97342 0.73562 0.04575 0.0
C2946 C 0.99248 0.74224 0.05283 0.0
C2947 C 0.94745 0.72178 0.01452 0.0
C2948 C 0.94209 0.73575 0.01173 0.0
C2949 C 0.93506 0.70299 0.00613 0.0
C2950 C 0.93974 0.68744 0.00885 0.0
C2951 C 0.94472 0.6834 0.03105 0.0
C2952 C 0.94894 0.66864 0.03352 0.0
C2953 C 0.94806 0.65769 0.01396 0.0
C2954 C 0.94294 0.66146 0.9919 0.0
C2955 C 0.93884 0.67628 0.98928 0.0
H2956 H 0.95126 0.64622 0.01593 0.0
H2957 H 0.91024 0.78888 0.98561 0.0
H2958 H 0.66904 0.81994 0.02479 0.0
H2959 H 0.67895 0.79903 0.00552 0.0
H2960 H 0.73452 0.83076 0.03841 0.0
H2961 H 0.72461 0.85192 0.05729 0.0
H2962 H 0.73843 0.82368 0.99374 0.0
H2963 H 0.69996 0.78613 0.05859 0.0
H2964 H 0.67109 0.77103 0.08361 0.0
H2965 H 0.63769 0.7372 0.02486 0.0
H2966 H 0.66633 0.75232 0.99937 0.0
H2967 H 0.77036 0.75657 0.98433 0.0
H2968 H 0.75864 0.77753 0.99807 0.0
H2969 H 0.70843 0.74723 0.95444 0.0
H2970 H 0.72024 0.7261 0.94038 0.0
H2971 H 0.70037 0.75297 0.00214 0.0
H2972 H 0.74049 0.7903 0.93802 0.0
H2973 H 0.77018 0.8056 0.91449 0.0
H2974 H 0.80131 0.83993 0.97412 0.0
H2975 H 0.77185 0.82462 0.99812 0.0
C2976 C 0.68335 0.82237 0.02785 0.0
C2977 C 0.69608 0.83739 0.0425 0.0
C2978 C 0.68899 0.81039 0.01695 0.0
C2979 C 0.70743 0.8131 0.02071 0.0
C2980 C 0.72023 0.82832 0.03523 0.0
C2981 C 0.71458 0.84035 0.04607 0.0
C2982 C 0.71338 0.80013 0.00944 0.0
C2983 C 0.73018 0.80824 0.99582 0.0
C2984 C 0.70245 0.7799 0.01163 0.0
C2985 C 0.68527 0.77048 0.02701 0.0
C2986 C 0.68644 0.77554 0.05096 0.0
C2987 C 0.67012 0.76698 0.06523 0.0
C2988 C 0.65255 0.7532 0.05582 0.0
C2989 C 0.6513 0.7479 0.03212 0.0
C2990 C 0.66758 0.75644 0.01776 0.0
C2991 C 0.75698 0.75454 0.97728 0.0
C2992 C 0.74638 0.73979 0.961 0.0
C2993 C 0.75025 0.76652 0.98524 0.0
C2994 C 0.73266 0.76402 0.97729 0.0
C2995 C 0.72206 0.74945 0.96081 0.0
C2996 C 0.72894 0.73755 0.95256 0.0
C2997 C 0.72547 0.77659 0.98662 0.0
C2998 C 0.70848 0.7684 -8e-05 0.0
C2999 C 0.73631 0.79677 0.98437 0.0
C3000 C 0.75399 0.80621 0.9699 0.0
C3001 C 0.75369 0.80103 0.94615 0.0
C3002 C 0.77047 0.80971 0.93273 0.0
C3003 C 0.78763 0.8237 0.94281 0.0
C3004 C 0.78802 0.82908 0.96633 0.0
C3005 C 0.77127 0.82042 0.97985 0.0
H3006 H 0.80061 0.8304 0.93239 0.0
H3007 H 0.63993 0.7466 0.06688 0.0
H3008 H 0.27699 0.99356 0.94014 0.0
H3009 H 0.2554 0.96066 0.95385 0.0
H3010 H 0.22623 0.98119 0.99857 0.0
H3011 H 0.24775 0.01382 0.98534 0.0
H3012 H 0.23567 0.95925 0.02313 0.0
H3013 H 0.20648 0.95456 0.94622 0.0
H3014 H 0.20613 0.95568 0.90273 0.0
H3015 H 0.22293 0.9129 0.89911 0.0
H3016 H 0.22362 0.91172 0.94259 0.0
H3017 H 0.1554 0.87509 0.0642 0.0
H3018 H 0.17662 0.90571 0.04466 0.0
H3019 H 0.19729 0.87731 0.99862 0.0
H3020 H 0.17521 0.84657 0.01736 0.0
H3021 H 0.19462 0.90228 0.97411 0.0
H3022 H 0.22319 0.90512 0.04865 0.0
H3023 H 0.22408 0.90248 0.09194 0.0
H3024 H 0.2109 0.9476 0.10011 0.0
H3025 H 0.20967 0.95033 0.05685 0.0
C3026 C 0.26567 0.99096 0.95245 0.0
C3027 C 0.26411 0.00636 0.96161 0.0
C3028 C 0.25336 0.97214 0.96037 0.0
C3029 C 0.23915 0.96836 0.97736 0.0
C3030 C 0.23713 0.98366 0.98564 0.0
C3031 C 0.24941 0.00235 0.97791 0.0
C3032 C 0.22694 0.94884 0.98768 0.0
C3033 C 0.22654 0.94685 0.01237 0.0
C3034 C 0.21563 0.93238 0.97375 0.0
C3035 C 0.21533 0.93323 0.94764 0.0
C3036 C 0.21027 0.94553 0.93614 0.0
C3037 C 0.20998 0.94615 0.9115 0.0
C3038 C 0.21457 0.93442 0.89817 0.0
C3039 C 0.21942 0.92201 0.90945 0.0
C3040 C 0.21976 0.92136 0.93409 0.0
C3041 C 0.16444 0.87549 0.04981 0.0
C3042 C 0.16383 0.85865 0.04226 0.0
C3043 C 0.17667 0.89296 0.03875 0.0
C3044 C 0.18899 0.89402 0.02044 0.0
C3045 C 0.18805 0.877 0.01269 0.0
C3046 C 0.17551 0.85947 0.02342 0.0
C3047 C 0.20292 0.91283 0.00958 0.0
C3048 C 0.20378 0.91466 0.98486 0.0
C3049 C 0.21499 0.92909 0.02346 0.0
C3050 C 0.21622 0.92785 0.04949 0.0
C3051 C 0.22043 0.91444 0.05968 0.0
C3052 C 0.22098 0.91292 0.08421 0.0
C3053 C 0.21752 0.92484 0.09876 0.0
C3054 C 0.21358 0.93837 0.08881 0.0
C3055 C 0.21297 0.93993 0.06428 0.0
H3056 H 0.21792 0.92362 0.11775 0.0
H3057 H 0.21431 0.9349 0.87909 0.0
H3058 H 0.99955 0.28161 0.9722 0.0
H3059 H 0.0306 0.29312 0.99116 0.0
H3060 H 0.03954 0.25338 0.94961 0.0
H3061 H 0.00764 0.24075 0.93228 0.0
H3062 H 0.04928 0.25122 0.99035 0.0
H3063 H 0.06466 0.30851 0.94366 0.0
H3064 H 0.06018 0.33541 0.93136 0.0
H3065 H 0.06677 0.35471 0.00315 0.0
H3066 H 0.07113 0.32787 0.01589 0.0
H3067 H 0.1453 0.28401 0.02129 0.0
H3068 H 0.11593 0.27598 0.00083 0.0
H3069 H 0.1099 0.31743 0.0424 0.0
H3070 H 0.14059 0.32749 0.06073 0.0
H3071 H 0.09845 0.31922 0.00291 0.0
H3072 H 0.08299 0.26434 0.05086 0.0
H3073 H 0.08691 0.2379 0.06637 0.0
H3074 H 0.07882 0.21399 0.99679 0.0
H3075 H 0.07508 0.24042 0.98083 0.0
C3076 C 0.00835 0.27565 0.96674 0.0
C3077 C 1.00124 0.26044 0.9505 0.0
C3078 C 0.02626 0.28232 0.97756 0.0
C3079 C 0.03791 0.27448 0.97167 0.0
C3080 C 0.03101 0.25976 0.95466 0.0
C3081 C 0.01282 0.25263 0.94452 0.0
C3082 C 0.05657 0.2805 0.98419 0.0
C3083 C 0.06013 0.26614 0.99266 0.0
C3084 C 0.07056 0.29993 0.98852 0.0
C3085 C 0.06807 0.31611 0.98072 0.0
C3086 C 0.06507 0.31845 0.95681 0.0
C3087 C 0.06257 0.3337 0.94977 0.0
C3088 C 0.06315 0.34673 0.96647 0.0
C3089 C 0.06631 0.3446 0.99024 0.0
C3090 C 0.06882 0.3294 0.99736 0.0
C3091 C 0.13814 0.29183 0.026 0.0
C3092 C 0.14581 0.3065 0.04314 0.0
C3093 C 0.12086 0.28682 0.01446 0.0
C3094 C 0.11012 0.29563 0.02036 0.0
C3095 C 0.11764 0.3102 0.03744 0.0
C3096 C 0.13525 0.31571 0.04839 0.0
C3097 C 0.09129 0.28993 0.00857 0.0
C3098 C 0.08764 0.30431 0.00044 0.0
C3099 C 0.07701 0.27053 0.00498 0.0
C3100 C 0.07889 0.25443 0.01464 0.0
C3101 C 0.08211 0.25348 0.03887 0.0
C3102 C 0.08431 0.2385 0.04773 0.0
C3103 C 0.08315 0.2243 0.03257 0.0
C3104 C 0.07972 0.22501 0.00852 0.0
C3105 C 0.07754 0.23997 -0.00044 0.0
H3106 H 0.08489 0.21273 0.03946 0.0
H3107 H 0.06119 0.35851 0.96098 0.0
H3108 H 0.99835 0.52261 0.28028 0.0
H3109 H 0.98896 0.54338 0.30039 0.0
H3110 H 0.93766 0.4938 0.32565 0.0
H3111 H 0.94645 0.47289 0.30456 0.0
H3112 H 0.92995 0.52041 0.30985 0.0
H3113 H 0.97834 0.52124 0.36192 0.0
H3114 H 0.01055 0.52629 0.37051 0.0
H3115 H 0.03586 0.5848 0.34775 0.0
H3116 H 0.00382 0.58004 0.33881 0.0
H3117 H 0.90095 0.57017 0.38564 0.0
H3118 H 0.91142 0.54806 0.37165 0.0
H3119 H 0.96693 0.59621 0.35472 0.0
H3120 H 0.95676 0.61806 0.37013 0.0
H3121 H 0.97286 0.56986 0.36706 0.0
H3122 H 0.9284 0.57105 0.3124 0.0
H3123 H 0.89813 0.56812 0.29816 0.0
H3124 H 0.86769 0.50903 0.31926 0.0
H3125 H 0.89776 0.51168 0.33386 0.0
C3126 C 0.98492 0.51606 0.28985 0.0
C3127 C 0.97319 0.49597 0.29071 0.0
C3128 C 0.97971 0.52801 0.30167 0.0
C3129 C 0.96275 0.52021 0.31498 0.0
C3130 C 0.95089 0.5002 0.31568 0.0
C3131 C 0.95604 0.48822 0.30373 0.0
C3132 C 0.95711 0.53289 0.32766 0.0
C3133 C 0.93919 0.53098 0.3227 0.0
C3134 C 0.96947 0.5473 0.34367 0.0
C3135 C 0.98869 0.55025 0.3496 0.0
C3136 C 0.99078 0.53516 0.35869 0.0
C3137 C 0.009 0.53797 0.36362 0.0
C3138 C 0.02524 0.55584 0.35965 0.0
C3139 C 0.02327 0.57097 0.35083 0.0
C3140 C 0.00508 0.56823 0.34588 0.0
C3141 C 0.91558 0.57589 0.37972 0.0
C3142 C 0.9282 0.59574 0.37947 0.0
C3143 C 0.9215 0.5633 0.37128 0.0
C3144 C 0.93988 0.57036 0.36144 0.0
C3145 C 0.95271 0.59024 0.36216 0.0
C3146 C 0.94693 0.60276 0.37112 0.0
C3147 C 0.9455 0.55729 0.34948 0.0
C3148 C 0.96347 0.55917 0.35443 0.0
C3149 C 0.93341 0.54319 0.33289 0.0
C3150 C 0.91527 0.54163 0.32449 0.0
C3151 C 0.91522 0.55749 0.31419 0.0
C3152 C 0.89811 0.55586 0.30602 0.0
C3153 C 0.88099 0.53842 0.30788 0.0
C3154 C 0.88095 0.52254 0.31788 0.0
C3155 C 0.89802 0.52409 0.3261 0.0
H3156 H 0.86776 0.53718 0.30151 0.0
H3157 H 0.03933 0.55798 0.36344 0.0
H3158 H 0.4367 0.33045 0.37574 0.0
H3159 H 0.45718 0.36325 0.36116 0.0
H3160 H 0.40877 0.37217 0.36136 0.0
H3161 H 0.38839 0.33959 0.3769 0.0
H3162 H 0.43269 0.3787 0.31479 0.0
H3163 H 0.43666 0.39692 0.39692 0.0
H3164 H 0.44258 0.39458 0.43916 0.0
H3165 H 0.50013 0.40817 0.42347 0.0
H3166 H 0.49445 0.41032 0.38107 0.0
H3167 H 0.48298 0.47686 0.27829 0.0
H3168 H 0.46148 0.44629 0.29748 0.0
H3169 H 0.51016 0.44305 0.32302 0.0
H3170 H 0.53172 0.47338 0.30359 0.0
H3171 H 0.48492 0.43378 0.35745 0.0
H3172 H 0.48326 0.41638 0.27744 0.0
H3173 H 0.47918 0.4169 0.23442 0.0
H3174 H 0.41979 0.39896 0.244 0.0
H3175 H 0.42362 0.39909 0.28714 0.0
C3176 C 0.43062 0.33968 0.37359 0.0
C3177 C 0.41107 0.33261 0.37808 0.0
C3178 C 0.44227 0.35834 0.365 0.0
C3179 C 0.4345 0.37014 0.36003 0.0
C3180 C 0.41509 0.36334 0.36511 0.0
C3181 C 0.40353 0.34483 0.37434 0.0
C3182 C 0.44649 0.38909 0.34835 0.0
C3183 C 0.44387 0.39091 0.32417 0.0
C3184 C 0.46158 0.40471 0.36035 0.0
C3185 C 0.46506 0.40358 0.38582 0.0
C3186 C 0.45052 0.39923 0.40246 0.0
C3187 C 0.45385 0.39798 0.42643 0.0
C3188 C 0.47171 0.40117 0.43399 0.0
C3189 C 0.4863 0.40568 0.41759 0.0
C3190 C 0.48304 0.40693 0.39359 0.0
C3191 C 0.48915 0.46954 0.28768 0.0
C3192 C 0.50918 0.47775 0.28936 0.0
C3193 C 0.4768 0.45204 0.29878 0.0
C3194 C 0.48413 0.44224 0.31176 0.0
C3195 C 0.50409 0.45034 0.31333 0.0
C3196 C 0.51644 0.46778 0.3022 0.0
C3197 C 0.47107 0.42362 0.32377 0.0
C3198 C 0.4736 0.42174 0.34799 0.0
C3199 C 0.45615 0.40781 0.31162 0.0
C3200 C 0.45381 0.40804 0.28563 0.0
C3201 C 0.46938 0.41286 0.27043 0.0
C3202 C 0.46712 0.41306 0.24599 0.0
C3203 C 0.44926 0.40814 0.23647 0.0
C3204 C 0.43364 0.40299 0.25139 0.0
C3205 C 0.43586 0.40297 0.27585 0.0
H3206 H 0.44749 0.4082 0.21754 0.0
H3207 H 0.47425 0.40019 0.45256 0.0
H3208 H 0.53041 0.01038 0.26716 0.0
H3209 H 0.56095 0.02047 0.28592 0.0
H3210 H 0.55224 0.05818 0.33164 0.0
H3211 H 0.52324 0.05055 0.31063 0.0
H3212 H 0.58644 0.07484 0.32383 0.0
H3213 H 0.54498 0.00899 0.34719 0.0
H3214 H 0.52297 0.97453 0.34023 0.0
H3215 H 0.56671 0.971 0.30116 0.0
H3216 H 0.58891 0.00546 0.30769 0.0
H3217 H 0.66237 0.08651 0.40193 0.0
H3218 H 0.62934 0.07544 0.38821 0.0
H3219 H 0.63894 0.04861 0.32802 0.0
H3220 H 0.6716 0.05977 0.34136 0.0
H3221 H 0.60326 0.0258 0.34729 0.0
H3222 H 0.64345 0.09171 0.32232 0.0
H3223 H 0.66531 0.12627 0.32856 0.0
H3224 H 0.62311 0.12916 0.37179 0.0
H3225 H 0.60108 0.09454 0.36606 0.0
C3226 C 0.53503 0.0212 0.28074 0.0
C3227 C 0.52369 0.02926 0.2873 0.0
C3228 C 0.55249 0.02663 0.29202 0.0
C3229 C 0.55877 0.03954 0.31107 0.0
C3230 C 0.54777 0.04795 0.31731 0.0
C3231 C 0.53074 0.04318 0.30539 0.0
C3232 C 0.57687 0.04459 0.32423 0.0
C3233 C 0.58979 0.06396 0.32937 0.0
C3234 C 0.58175 0.03064 0.33126 0.0
C3235 C 0.56856 0.00982 0.32784 0.0
C3236 C 0.54988 1.00086 0.33709 0.0
C3237 C 0.53738 0.98133 0.3332 0.0
C3238 C 0.54343 0.97059 0.32023 0.0
C3239 C 0.56204 0.97933 0.3112 0.0
C3240 C 0.5746 0.99885 0.31503 0.0
C3241 C 0.65722 0.07798 0.38603 0.0
C3242 C 0.6695 0.07402 0.37266 0.0
C3243 C 0.63844 0.07176 0.37811 0.0
C3244 C 0.63167 0.06127 0.35694 0.0
C3245 C 0.64374 0.05662 0.34435 0.0
C3246 C 0.66244 0.06306 0.35198 0.0
C3247 C 0.61251 0.05588 0.34689 0.0
C3248 C 0.59953 0.0365 0.34219 0.0
C3249 C 0.60747 0.06976 0.34048 0.0
C3250 C 0.62074 0.09051 0.34403 0.0
C3251 C 0.63891 0.09969 0.33335 0.0
C3252 C 0.65131 0.11929 0.33675 0.0
C3253 C 0.64563 0.12989 0.35063 0.0
C3254 C 0.62751 0.12092 0.3611 0.0
C3255 C 0.61507 0.10131 0.35778 0.0
H3256 H 0.65525 0.14507 0.35322 0.0
H3257 H 0.53372 0.95549 0.3172 0.0
H3258 H 0.42556 0.07874 0.32609 0.0
H3259 H 0.41302 0.09861 0.34082 0.0
H3260 H 0.38484 0.09322 0.2743 0.0
H3261 H 0.39717 0.07278 0.2593 0.0
H3262 H 0.4053 0.13158 0.29308 0.0
H3263 H 0.35846 0.06841 0.31825 0.0
H3264 H 0.34613 0.03688 0.33733 0.0
H3265 H 0.36871 0.06431 0.40392 0.0
H3266 H 0.38152 0.096 0.38519 0.0
H3267 H 0.35397 0.17513 0.33829 0.0
H3268 H 0.3628 0.15344 0.31939 0.0
H3269 H 0.38361 0.1452 0.38603 0.0
H3270 H 0.37447 0.16671 0.40512 0.0
H3271 H 0.36445 0.11228 0.36469 0.0
H3272 H 0.41418 0.17448 0.34085 0.0
H3273 H 0.42778 0.2068 0.32364 0.0
H3274 H 0.4019 0.18234 0.2569 0.0
H3275 H 0.38793 0.14985 0.27381 0.0
C3276 C 0.41684 0.08182 0.31436 0.0
C3277 C 0.41248 0.07414 0.29136 0.0
C3278 C 0.40954 0.09312 0.32296 0.0
C3279 C 0.39779 0.09723 0.30881 0.0
C3280 C 0.39382 0.09015 0.28558 0.0
C3281 C 0.40094 0.07854 0.27699 0.0
C3282 C 0.39003 0.10916 0.31849 0.0
C3283 C 0.39605 0.12722 0.30846 0.0
C3284 C 0.37847 0.10372 0.33904 0.0
C3285 C 0.37113 0.08463 0.35023 0.0
C3286 C 0.36102 0.06774 0.33689 0.0
C3287 C 0.3539 0.04983 0.34767 0.0
C3288 C 0.35665 0.04861 0.37181 0.0
C3289 C 0.3666 0.06528 0.38522 0.0
C3290 C 0.37379 0.08322 0.37453 0.0
C3291 C 0.36058 0.16883 0.3489 0.0
C3292 C 0.36364 0.17277 0.3732 0.0
C3293 C 0.36564 0.15641 0.33804 0.0
C3294 C 0.37417 0.14784 0.35114 0.0
C3295 C 0.37706 0.1516 0.37549 0.0
C3296 C 0.37183 0.1639 0.38641 0.0
C3297 C 0.37996 0.13487 0.33952 0.0
C3298 C 0.37357 0.11662 0.34919 0.0
C3299 C 0.39145 0.14025 0.31889 0.0
C3300 C 0.39985 0.15975 0.30866 0.0
C3301 C 0.41127 0.176 0.32255 0.0
C3302 C 0.41906 0.19435 0.31284 0.0
C3303 C 0.41566 0.19662 0.28921 0.0
C3304 C 0.4045 0.18055 0.27522 0.0
C3305 C 0.39665 0.16217 0.28485 0.0
H3306 H 0.42171 0.21084 0.28172 0.0
H3307 H 0.35103 0.03475 0.38017 0.0
H3308 H 0.8552 0.18992 0.38394 0.0
H3309 H 0.87675 0.21945 0.36281 0.0
H3310 H 0.82925 0.22828 0.34774 0.0
H3311 H 0.80756 0.19837 0.36818 0.0
H3312 H 0.84949 0.23616 0.31046 0.0
H3313 H 0.86552 0.25372 0.39167 0.0
H3314 H 0.87553 0.2509 0.4319 0.0
H3315 H 0.92908 0.25961 0.40503 0.0
H3316 H 0.91924 0.26209 0.36455 0.0
H3317 H 0.89947 0.33621 0.28665 0.0
H3318 H 0.8803 0.30408 0.30327 0.0
H3319 H 0.92907 0.2958 0.2996 0.0
H3320 H 0.94834 0.32802 0.28253 0.0
H3321 H 0.91038 0.28702 0.34493 0.0
H3322 H 0.89397 0.2706 0.26369 0.0
H3323 H 0.88356 0.27421 0.22403 0.0
H3324 H 0.83017 0.26468 0.25259 0.0
H3325 H 0.84037 0.26125 0.29248 0.0
C3326 C 0.84939 0.19827 0.3763 0.0
C3327 C 0.82966 0.19183 0.37786 0.0
C3328 C 0.86175 0.21521 0.36424 0.0
C3329 C 0.85481 0.22643 0.35388 0.0
C3330 C 0.83508 0.21999 0.35549 0.0
C3331 C 0.82265 0.20287 0.36723 0.0
C3332 C 0.86791 0.24461 0.34096 0.0
C3333 C 0.86267 0.24732 0.31822 0.0
C3334 C 0.88549 0.25912 0.35062 0.0
C3335 C 0.89154 0.25787 0.37501 0.0
C3336 C 0.87938 0.25489 0.3943 0.0
C3337 C 0.88502 0.25335 0.41716 0.0
C3338 C 0.9029 0.255 0.42101 0.0
C3339 C 0.91521 0.25827 0.40201 0.0
C3340 C 0.9096 0.25974 0.37911 0.0
C3341 C 0.90599 0.32736 0.28872 0.0
C3342 C 0.92537 0.33461 0.28289 0.0
C3343 C 0.89503 0.30901 0.29839 0.0
C3344 C 0.90321 0.29748 0.30279 0.0
C3345 C 0.92243 0.30442 0.2964 0.0
C3346 C 0.93335 0.32273 0.2863 0.0
C3347 C 0.89169 0.27853 0.31475 0.0
C3348 C 0.89723 0.27573 0.33725 0.0
C3349 C 0.87428 0.26399 0.30507 0.0
C3350 C 0.86799 0.2658 0.28108 0.0
C3351 C 0.88006 0.26939 0.26153 0.0
C3352 C 0.87419 0.27139 0.23901 0.0
C3353 C 0.85623 0.26971 0.2358 0.0
C3354 C 0.84408 0.26598 0.2551 0.0
C3355 C 0.84989 0.26398 0.27766 0.0
H3356 H 0.85172 0.27128 0.21835 0.0
H3357 H 0.90723 0.25379 0.43872 0.0
H3358 H 0.67888 0.61468 0.26902 0.0
H3359 H 0.71138 0.62687 0.28462 0.0
H3360 H 0.68972 0.58007 0.33427 0.0
H3361 H 0.65743 0.56806 0.31908 0.0
H3362 H 0.71284 0.61306 0.3562 0.0
H3363 H 0.71589 0.58267 0.28292 0.0
H3364 H 0.71385 0.57864 0.23967 0.0
H3365 H 0.75735 0.63756 0.23089 0.0
H3366 H 0.75945 0.64199 0.27408 0.0
H3367 H 0.79622 0.6171 0.40146 0.0
H3368 H 0.76549 0.60785 0.38247 0.0
H3369 H 0.79488 0.651 0.32895 0.0
H3370 H 0.82564 0.65919 0.34711 0.0
H3371 H 0.7686 0.62332 0.30825 0.0
H3372 H 0.76794 0.65527 0.37842 0.0
H3373 H 0.77102 0.66239 0.42104 0.0
H3374 H 0.72454 0.60577 0.43542 0.0
H3375 H 0.72131 0.59822 0.3929 0.0
C3376 C 0.68111 0.60678 0.28292 0.0
C3377 C 0.66546 0.59028 0.29263 0.0
C3378 C 0.69973 0.61382 0.29194 0.0
C3379 C 0.70313 0.60441 0.31071 0.0
C3380 C 0.68757 0.58771 0.31994 0.0
C3381 C 0.66906 0.58075 0.31105 0.0
C3382 C 0.72267 0.61187 0.32124 0.0
C3383 C 0.72499 0.61513 0.34573 0.0
C3384 C 0.73885 0.61547 0.3076 0.0
C3385 C 0.73769 0.6127 0.28169 0.0
C3386 C 0.72493 0.59479 0.27175 0.0
C3387 C 0.72377 0.59243 0.24725 0.0
C3388 C 0.73542 0.60785 0.23254 0.0
C3389 C 0.74831 0.62564 0.2423 0.0
C3390 C 0.74949 0.62807 0.26678 0.0
C3391 C 0.79603 0.62447 0.38555 0.0
C3392 C 0.81323 0.63882 0.3757 0.0
C3393 C 0.77844 0.61935 0.3748 0.0
C3394 C 0.7776 0.62901 0.35447 0.0
C3395 C 0.79494 0.64327 0.34457 0.0
C3396 C 0.81255 0.648 0.35496 0.0
C3397 C 0.75875 0.6241 0.34339 0.0
C3398 C 0.75655 0.6214 0.3188 0.0
C3399 C 0.74281 0.62155 0.35688 0.0
C3400 C 0.74447 0.62614 0.38246 0.0
C3401 C 0.75842 0.64431 0.39068 0.0
C3402 C 0.7602 0.64842 0.41482 0.0
C3403 C 0.74801 0.63453 0.43093 0.0
C3404 C 0.73397 0.61651 0.42292 0.0
C3405 C 0.73214 0.61232 0.39879 0.0
H3406 H 0.74944 0.63773 0.44962 0.0
H3407 H 0.7345 0.606 0.21358 0.0
H3408 H 0.63344 0.83804 0.58998 0.0
H3409 H 0.6249 0.86037 0.60784 0.0
H3410 H 0.64106 0.84973 0.67629 0.0
H3411 H 0.64983 0.82757 0.65857 0.0
H3412 H 0.60855 0.85008 0.67979 0.0
H3413 H 0.66943 0.89097 0.64525 0.0
H3414 H 0.69393 0.90408 0.61399 0.0
H3415 H 0.65935 0.92073 0.57404 0.0
H3416 H 0.63441 0.90733 0.60483 0.0
H3417 H 0.60341 0.92923 0.73281 0.0
H3418 H 0.6162 0.90878 0.71918 0.0
H3419 H 0.59724 0.91027 0.64848 0.0
H3420 H 0.58435 0.9302 0.6618 0.0
H3421 H 0.63398 0.91604 0.64897 0.0
H3422 H 0.57198 0.87191 0.68197 0.0
H3423 H 0.54771 0.85898 0.71354 0.0
H3424 H 0.5857 0.8493 0.75702 0.0
H3425 H 0.61034 0.86247 0.7258 0.0
C3426 C 0.63537 0.84056 0.6088 0.0
C3427 C 0.64243 0.83096 0.62274 0.0
C3428 C 0.63045 0.85336 0.61903 0.0
C3429 C 0.63254 0.85701 0.64345 0.0
C3430 C 0.63928 0.84723 0.65745 0.0
C3431 C 0.64422 0.83444 0.64724 0.0
C3432 C 0.62751 0.87084 0.65441 0.0
C3433 C 0.6144 0.8646 0.67325 0.0
C3434 C 0.63492 0.88981 0.64586 0.0
C3435 C 0.64991 0.89792 0.62727 0.0
C3436 C 0.66693 0.89724 0.6297 0.0
C3437 C 0.68092 0.90475 0.61206 0.0
C3438 C 0.67817 0.91317 0.592 0.0
C3439 C 0.66144 0.91415 0.58956 0.0
C3440 C 0.64736 0.90659 0.6071 0.0
C3441 C 0.60185 0.92507 0.71442 0.0
C3442 C 0.59253 0.93117 0.69857 0.0
C3443 C 0.60922 0.91342 0.70662 0.0
C3444 C 0.60766 0.90791 0.68275 0.0
C3445 C 0.59867 0.91429 0.66693 0.0
C3446 C 0.5911 0.92559 0.67472 0.0
C3447 C 0.61484 0.89512 0.67401 0.0
C3448 C 0.62834 0.90157 0.6556 0.0
C3449 C 0.60789 0.8764 0.68299 0.0
C3450 C 0.59308 0.8684 0.70169 0.0
C3451 C 0.57522 0.86718 0.69835 0.0
C3452 C 0.56139 0.85979 0.71616 0.0
C3453 C 0.56518 0.85338 0.73731 0.0
C3454 C 0.5828 0.85431 0.74065 0.0
C3455 C 0.5967 0.86174 0.72291 0.0
H3456 H 0.55445 0.84765 0.75108 0.0
H3457 H 0.68902 0.91898 0.57837 0.0
H3458 H 0.09959 0.66651 0.71532 0.0
H3459 H 0.11993 0.69897 0.6996 0.0
H3460 H 0.06962 0.70226 0.68213 0.0
H3461 H 0.04928 0.67001 0.69861 0.0
H3462 H 0.09698 0.71192 0.6436 0.0
H3463 H 0.09466 0.72931 0.72375 0.0
H3464 H 0.09695 0.72721 0.76691 0.0
H3465 H 0.15604 0.74272 0.76041 0.0
H3466 H 0.15401 0.74466 0.71712 0.0
H3467 H 0.1469 0.81066 0.61013 0.0
H3468 H 0.12514 0.77973 0.62823 0.0
H3469 H 0.17334 0.77692 0.65644 0.0
H3470 H 0.19525 0.80768 0.63804 0.0
H3471 H 0.14589 0.76715 0.68962 0.0
H3472 H 0.14853 0.74963 0.60968 0.0
H3473 H 0.14673 0.75208 0.5665 0.0
H3474 H 0.08765 0.73675 0.57203 0.0
H3475 H 0.08917 0.73448 0.61534 0.0
C3476 C 0.09294 0.67449 0.70899 0.0
C3477 C 0.07291 0.66601 0.70896 0.0
C3478 C 0.10454 0.69292 0.69972 0.0
C3479 C 0.09633 0.70307 0.68957 0.0
C3480 C 0.0763 0.69476 0.68988 0.0
C3481 C 0.06471 0.67648 0.69969 0.0
C3482 C 0.10875 0.72211 0.6782 0.0
C3483 C 0.10746 0.72409 0.65371 0.0
C3484 C 0.12276 0.73788 0.69121 0.0
C3485 C 0.12413 0.73695 0.7172 0.0
C3486 C 0.1081 0.73213 0.73151 0.0
C3487 C 0.10936 0.73099 0.756 0.0
C3488 C 0.12662 0.73478 0.7664 0.0
C3489 C 0.14267 0.73977 0.75232 0.0
C3490 C 0.14149 0.74091 0.72782 0.0
C3491 C 0.15295 0.80337 0.61987 0.0
C3492 C 0.17293 0.8118 0.62253 0.0
C3493 C 0.14043 0.78567 0.63033 0.0
C3494 C 0.14754 0.77586 0.64367 0.0
C3495 C 0.16746 0.7842 0.64636 0.0
C3496 C 0.17999 0.80188 0.63585 0.0
C3497 C 0.13423 0.75702 0.65497 0.0
C3498 C 0.13537 0.75503 0.67946 0.0
C3499 C 0.12016 0.74124 0.6419 0.0
C3500 C 0.11901 0.74205 0.6158 0.0
C3501 C 0.13517 0.74687 0.60171 0.0
C3502 C 0.13421 0.74823 0.57721 0.0
C3503 C 0.1171 0.74462 0.56653 0.0
C3504 C 0.1009 0.73956 0.58033 0.0
C3505 C 0.10179 0.73821 0.60487 0.0
H3506 H 0.11639 0.74572 0.54756 0.0
H3507 H 0.12756 0.73389 0.78536 0.0
H3508 H 0.33761 0.3877 0.69487 0.0
H3509 H 0.30587 0.37608 0.67707 0.0
H3510 H 0.29929 0.41807 0.71661 0.0
H3511 H 0.33145 0.43037 0.73353 0.0
H3512 H 0.26483 0.37377 0.71207 0.0
H3513 H 0.3113 0.43237 0.67031 0.0
H3514 H 0.34076 0.45182 0.6473 0.0
H3515 H 0.32139 0.40772 0.59465 0.0
H3516 H 0.29201 0.3878 0.61768 0.0
H3517 H 0.18448 0.36894 0.65745 0.0
H3518 H 0.21464 0.37938 0.67695 0.0
H3519 H 0.23754 0.36915 0.61338 0.0
H3520 H 0.20865 0.36182 0.59248 0.0
H3521 H 0.26426 0.39637 0.6308 0.0
H3522 H 0.21935 0.33735 0.6675 0.0
H3523 H 0.1896 0.31451 0.68806 0.0
H3524 H 0.20498 0.35304 0.74683 0.0
H3525 H 0.23471 0.37622 0.72649 0.0
C3526 C 0.32916 0.3941 0.70024 0.0
C3527 C 0.33683 0.40976 0.71584 0.0
C3528 C 0.31112 0.38755 0.68992 0.0
C3529 C 0.30027 0.39626 0.69548 0.0
C3530 C 0.30744 0.41116 0.71211 0.0
C3531 C 0.32573 0.41811 0.72184 0.0
C3532 C 0.28202 0.39064 0.68291 0.0
C3533 C 0.2646 0.37877 0.69436 0.0
C3534 C 0.28178 0.39657 0.65949 0.0
C3535 C 0.29964 0.40844 0.64597 0.0
C3536 C 0.31348 0.42666 0.65407 0.0
C3537 C 0.33013 0.43781 0.64096 0.0
C3538 C 0.33299 0.43097 0.61959 0.0
C3539 C 0.3192 0.41297 0.61126 0.0
C3540 C 0.30257 0.40174 0.62435 0.0
C3541 C 0.19595 0.36942 0.64708 0.0
C3542 C 0.19348 0.36425 0.62297 0.0
C3543 C 0.21326 0.37493 0.6587 0.0
C3544 C 0.22839 0.37441 0.64711 0.0
C3545 C 0.22616 0.36955 0.62305 0.0
C3546 C 0.20919 0.36491 0.61108 0.0
C3547 C 0.24662 0.37927 0.6598 0.0
C3548 C 0.26418 0.39106 0.64842 0.0
C3549 C 0.24693 0.37262 0.68297 0.0
C3550 C 0.22919 0.35859 0.69539 0.0
C3551 C 0.21635 0.34099 0.68477 0.0
C3552 C 0.19949 0.32798 0.69638 0.0
C3553 C 0.19539 0.33234 0.71871 0.0
C3554 C 0.20817 0.34969 0.72952 0.0
C3555 C 0.22504 0.36276 0.71797 0.0
H3556 H 0.18232 0.32226 0.72767 0.0
H3557 H 0.34586 0.43966 0.60943 0.0
H3558 H 0.04058 0.50017 0.73967 0.0
H3559 H 0.05012 0.47923 0.71981 0.0
H3560 H 0.02813 0.48712 0.65396 0.0
H3561 H 0.01835 0.50785 0.67371 0.0
H3562 H 0.01788 0.44859 0.66271 0.0
H3563 H 0.07516 0.51172 0.66356 0.0
H3564 H 0.09988 0.54096 0.68333 0.0
H3565 H 0.11548 0.5071 0.72654 0.0
H3566 H 0.0907 0.47765 0.70721 0.0
H3567 H 0.06219 0.4055 0.59332 0.0
H3568 H 0.04954 0.42583 0.60805 0.0
H3569 H 0.08174 0.43554 0.67245 0.0
H3570 H 0.09503 0.41671 0.65755 0.0
H3571 H 0.08637 0.46683 0.66107 0.0
H3572 H 0.03017 0.40443 0.66604 0.0
H3573 H 0.00374 0.37331 0.65244 0.0
H3574 H 0.98444 0.40213 0.60566 0.0
H3575 H 0.0109 0.43343 0.61879 0.0
C3576 C 0.03766 0.49735 0.721 0.0
C3577 C 0.0288 0.50577 0.70824 0.0
C3578 C 0.0432 0.48545 0.70964 0.0
C3579 C 0.03993 0.4817 0.68534 0.0
C3580 C 0.0308 0.48982 0.67268 0.0
C3581 C 0.02539 0.50181 0.68397 0.0
C3582 C 0.04647 0.4697 0.67299 0.0
C3583 C 0.03288 0.45262 0.66205 0.0
C3584 C 0.06595 0.47473 0.67268 0.0
C3585 C 0.08101 0.49249 0.68403 0.0
C3586 C 0.0838 0.51051 0.67736 0.0
C3587 C 0.09783 0.52712 0.68847 0.0
C3588 C 0.10922 0.52588 0.7062 0.0
C3589 C 0.10664 0.50804 0.71281 0.0
C3590 C 0.09264 0.49139 0.70175 0.0
C3591 C 0.0667 0.41223 0.61045 0.0
C3592 C 0.08002 0.40982 0.62391 0.0
C3593 C 0.0593 0.42368 0.61902 0.0
C3594 C 0.06467 0.43238 0.64148 0.0
C3595 C 0.07756 0.42943 0.65495 0.0
C3596 C 0.08523 0.41858 0.64626 0.0
C3597 C 0.05774 0.44512 0.6512 0.0
C3598 C 0.07132 0.46259 0.66154 0.0
C3599 C 0.03816 0.44005 0.65164 0.0
C3600 C 0.0227 0.42126 0.64309 0.0
C3601 C 0.02045 0.40413 0.65261 0.0
C3602 C 0.00542 0.38646 0.64505 0.0
C3603 C 0.99248 0.38574 0.62811 0.0
C3604 C 0.99452 0.4027 0.61871 0.0
C3605 C 0.00953 0.4204 0.62619 0.0
H3606 H 0.98082 0.37205 0.62233 0.0
H3607 H 0.12006 0.53876 0.7148 0.0
H3608 H 0.47844 0.53764 0.71438 0.0
H3609 H 0.49985 0.56841 0.69525 0.0
H3610 H 0.54054 0.54957 0.68155 0.0
H3611 H 0.51965 0.51943 0.70208 0.0
H3612 H 0.55978 0.58401 0.69269 0.0
H3613 H 0.50879 0.55209 0.6373 0.0
H3614 H 0.47527 0.53467 0.62362 0.0
H3615 H 0.46847 0.5825 0.64258 0.0
H3616 H 0.5019 0.60012 0.65664 0.0
H3617 H 0.61349 0.66224 0.6118 0.0
H3618 H 0.59237 0.6293 0.62587 0.0
H3619 H 0.55489 0.64689 0.65718 0.0
H3620 H 0.57594 0.67965 0.64348 0.0
H3621 H 0.53496 0.61205 0.63425 0.0
H3622 H 0.58791 0.64345 0.68952 0.0
H3623 H 0.62173 0.65936 0.70205 0.0
H3624 H 0.62544 0.61035 0.68015 0.0
H3625 H 0.59177 0.59429 0.66705 0.0
C3626 C 0.49197 0.54017 0.70722 0.0
C3627 C 0.49741 0.52622 0.70954 0.0
C3628 C 0.50418 0.55769 0.6961 0.0
C3629 C 0.52178 0.56134 0.68633 0.0
C3630 C 0.52713 0.54728 0.68881 0.0
C3631 C 0.51516 0.53 0.70044 0.0
C3632 C 0.53472 0.57984 0.67387 0.0
C3633 C 0.55434 0.58991 0.6796 0.0
C3634 C 0.52783 0.58784 0.65684 0.0
C3635 C 0.5078 0.57737 0.64817 0.0
C3636 C 0.50011 0.55885 0.63865 0.0
C3637 C 0.48114 0.54895 0.63082 0.0
C3638 C 0.46974 0.55746 0.63227 0.0
C3639 C 0.47732 0.57592 0.64148 0.0
C3640 C 0.49628 0.58589 0.64935 0.0
C3641 C 0.60046 0.65892 0.62109 0.0
C3642 C 0.59625 0.67351 0.62626 0.0
C3643 C 0.58854 0.64016 0.62942 0.0
C3644 C 0.57211 0.63562 0.64283 0.0
C3645 C 0.56746 0.64999 0.64693 0.0
C3646 C 0.57946 0.66871 0.63897 0.0
C3647 C 0.55986 0.61616 0.65321 0.0
C3648 C 0.54037 0.60596 0.64712 0.0
C3649 C 0.56699 0.60788 0.66949 0.0
C3650 C 0.58737 0.61777 0.67696 0.0
C3651 C 0.596 0.63616 0.68707 0.0
C3652 C 0.61514 0.64519 0.69434 0.0
C3653 C 0.62574 0.63589 0.69183 0.0
C3654 C 0.61723 0.61756 0.68202 0.0
C3655 C 0.59813 0.6085 0.67465 0.0
H3656 H 0.64051 0.64284 0.69758 0.0
H3657 H 0.45504 0.54976 0.62622 0.0
H3658 H 0.32843 0.94401 0.66184 0.0
H3659 H 0.36159 0.95523 0.67355 0.0
H3660 H 0.36826 0.92548 0.61438 0.0
H3661 H 0.33498 0.91466 0.60211 0.0
H3662 H 0.37895 0.91729 0.6602 0.0
H3663 H 0.3919 0.97151 0.61212 0.0
H3664 H 0.38825 0.9985 0.59816 0.0
H3665 H 0.40279 0.02393 0.66707 0.0
H3666 H 0.40627 0.99696 0.68155 0.0
H3667 H 0.47537 0.9487 0.6887 0.0
H3668 H 0.44596 0.94103 0.66847 0.0
H3669 H 0.44114 0.9833 0.70987 0.0
H3670 H 0.4719 0.99282 0.72819 0.0
H3671 H 0.43008 0.98508 0.66928 0.0
H3672 H 0.41384 0.93097 0.71941 0.0
H3673 H 0.41738 0.90451 0.73568 0.0
H3674 H 0.40774 0.87894 0.66694 0.0
H3675 H 0.40437 0.90538 0.6502 0.0
C3676 C 0.33706 0.94009 0.65112 0.0
C3677 C 0.32916 0.92846 0.63108 0.0
C3678 C 0.35603 0.94656 0.65779 0.0
C3679 C 0.36747 0.94125 0.64485 0.0
C3680 C 0.35971 0.92981 0.62459 0.0
C3681 C 0.34076 0.92369 0.61754 0.0
C3682 C 0.38699 0.94665 0.65364 0.0
C3683 C 0.39028 0.9321 0.66179 0.0
C3684 C 0.40153 0.966 0.65655 0.0
C3685 C 0.39915 0.98209 0.64797 0.0
C3686 C 0.39411 0.98274 0.62437 0.0
C3687 C 0.39213 0.99807 0.61634 0.0
C3688 C 0.39524 0.01289 0.63173 0.0
C3689 C 0.40036 0.01243 0.65518 0.0
C3690 C 0.40235 0.99713 0.66329 0.0
C3691 C 0.46844 0.95678 0.69332 0.0
C3692 C 0.47644 0.97158 0.71024 0.0
C3693 C 0.4512 0.952 0.68195 0.0
C3694 C 0.44086 0.9612 0.68787 0.0
C3695 C 0.44866 0.97584 0.7049 0.0
C3696 C 0.46623 0.98107 0.71576 0.0
C3697 C 0.42207 0.95571 0.67626 0.0
C3698 C 0.41885 0.97024 0.66764 0.0
C3699 C 0.40739 0.93634 0.67341 0.0
C3700 C 0.409 0.92022 0.68353 0.0
C3701 C 0.41254 0.91973 0.70776 0.0
C3702 C 0.41452 0.90475 0.71706 0.0
C3703 C 0.41283 0.89008 0.70234 0.0
C3704 C 0.40906 0.89032 0.67831 0.0
C3705 C 0.40709 0.90529 0.66891 0.0
H3706 H 0.4144 0.8785 0.70957 0.0
H3707 H 0.39372 0.02476 0.62547 0.0
H3708 H 0.30198 0.38797 0.09151 0.0
H3709 H 0.33228 0.41478 0.10564 0.0
H3710 H 0.34985 0.37495 0.12916 0.0
H3711 H 0.31933 0.34819 0.11609 0.0
H3712 H 0.35787 0.40026 0.16145 0.0
H3713 H 0.36634 0.40453 0.07543 0.0
H3714 H 0.35884 0.40931 0.03462 0.0
H3715 H 0.3657 0.46391 0.05386 0.0
H3716 H 0.37303 0.45936 0.09482 0.0
H3717 H 0.45836 0.45207 0.16901 0.0
H3718 H 0.42408 0.43124 0.16252 0.0
H3719 H 0.4192 0.48021 0.14188 0.0
H3720 H 0.45385 0.50092 0.14736 0.0
H3721 H 0.40255 0.4543 0.1106 0.0
H3722 H 0.39864 0.4531 0.1939 0.0
H3723 H 0.40678 0.44989 0.23494 0.0
H3724 H 0.39026 0.3911 0.22224 0.0
H3725 H 0.3827 0.39414 0.18094 0.0
C3726 C 0.31229 0.38495 0.09981 0.0
C3727 C 0.30817 0.36592 0.10285 0.0
C3728 C 0.32971 0.40032 0.10769 0.0
C3729 C 0.34358 0.397 0.11824 0.0
C3730 C 0.33943 0.37797 0.12117 0.0
C3731 C 0.32193 0.36264 0.11369 0.0
C3732 C 0.36221 0.41304 0.12699 0.0
C3733 C 0.36772 0.41197 0.15022 0.0
C3734 C 0.37471 0.42898 0.11284 0.0
C3735 C 0.36998 0.43147 0.08827 0.0
C3736 C 0.36606 0.41746 0.07101 0.0
C3737 C 0.36189 0.42016 0.04783 0.0
C3738 C 0.36173 0.43687 0.04167 0.0
C3739 C 0.36578 0.45095 0.05866 0.0
C3740 C 0.36995 0.44832 0.08184 0.0
C3741 C 0.44978 0.45846 0.16417 0.0
C3742 C 0.45858 0.4781 0.15925 0.0
C3743 C 0.43017 0.44654 0.16027 0.0
C3744 C 0.41886 0.45409 0.15185 0.0
C3745 C 0.42752 0.47398 0.14837 0.0
C3746 C 0.44723 0.48587 0.1519 0.0
C3747 C 0.39855 0.44098 0.14474 0.0
C3748 C 0.39266 0.44269 0.12193 0.0
C3749 C 0.38557 0.42574 0.15934 0.0
C3750 C 0.39017 0.42388 0.18424 0.0
C3751 C 0.39693 0.43954 0.19978 0.0
C3752 C 0.40148 0.43776 0.22311 0.0
C3753 C 0.3991 0.42033 0.23119 0.0
C3754 C 0.39219 0.40464 0.21596 0.0
C3755 C 0.38779 0.40638 0.19257 0.0
H3756 H 0.40257 0.41897 0.24928 0.0
H3757 H 0.35852 0.43894 0.02372 0.0
H3758 H 0.51475 0.97285 0.10556 0.0
H3759 H 0.53514 0.95963 0.10028 0.0
H3760 H 0.55027 0.96867 0.17423 0.0
H3761 H 0.53337 0.98658 0.17805 0.0
H3762 H 0.57907 0.97661 0.15658 0.0
H3763 H 0.52045 0.91994 0.13787 0.0
H3764 H 0.48901 0.90089 0.11855 0.0
H3765 H 0.51606 0.91513 0.05051 0.0
H3766 H 0.5476 0.93437 0.06936 0.0
H3767 H 0.64388 0.94313 0.12969 0.0
H3768 H 0.61703 0.94548 0.14552 0.0
H3769 H 0.59698 0.9447 0.07457 0.0
H3770 H 0.62263 0.94002 0.05907 0.0
H3771 H 0.56808 0.92694 0.09757 0.0
H3772 H 0.62582 0.99029 0.12208 0.0
H3773 H 0.65405 0.01196 0.14616 0.0
H3774 H 0.62491 0.98143 0.20893 0.0
H3775 H 0.5966 0.95969 0.18526 0.0
C3776 C 0.52284 0.97269 0.12071 0.0
C3777 C 0.52326 0.98211 0.14186 0.0
C3778 C 0.53402 0.96412 0.11786 0.0
C3779 C 0.54438 0.96257 0.13682 0.0
C3780 C 0.54288 0.96986 0.15894 0.0
C3781 C 0.53281 0.97986 0.16131 0.0
C3782 C 0.55839 0.95559 0.13282 0.0
C3783 C 0.57628 0.96535 0.14406 0.0
C3784 C 0.55531 0.94097 0.11638 0.0
C3785 C 0.53641 0.92859 0.10508 0.0
C3786 C 0.51969 0.91895 0.11879 0.0
C3787 C 0.50185 0.90815 0.10791 0.0
C3788 C 0.50054 0.90679 0.08332 0.0
C3789 C 0.51709 0.91613 0.06955 0.0
C3790 C 0.53496 0.92693 0.08033 0.0
C3791 C 0.63359 0.94324 0.11751 0.0
C3792 C 0.63532 0.94122 0.09311 0.0
C3793 C 0.61833 0.94499 0.12658 0.0
C3794 C 0.60496 0.94591 0.11141 0.0
C3795 C 0.60685 0.94398 0.08694 0.0
C3796 C 0.62162 0.94137 0.07796 0.0
C3797 C 0.58892 0.94867 0.12055 0.0
C3798 C 0.57059 0.93796 0.11035 0.0
C3799 C 0.59132 0.96194 0.13856 0.0
C3800 C 0.60927 0.97329 0.1519 0.0
C3801 C 0.62563 0.98802 0.14094 0.0
C3802 C 0.64156 1.00039 0.15455 0.0
C3803 C 0.64119 0.99813 0.17906 0.0
C3804 C 0.62514 0.9832 0.18997 0.0
C3805 C 0.60919 0.97087 0.17649 0.0
H3806 H 0.65325 0.00803 0.18966 0.0
H3807 H 0.48671 0.8985 0.07494 0.0
H3808 H 0.08836 0.70369 0.08807 0.0
H3809 H 0.08505 0.67381 0.10341 0.0
H3810 H 0.03096 0.66009 0.13507 0.0
H3811 H 0.03483 0.69044 0.12103 0.0
H3812 H 0.04859 0.65089 0.16419 0.0
H3813 H 0.03742 0.64018 0.0799 0.0
H3814 H 0.04526 0.64585 0.03751 0.0
H3815 H 0.09371 0.63814 0.0481 0.0
H3816 H 0.08632 0.63269 0.0906 0.0
H3817 H 0.99955 0.55009 0.17213 0.0
H3818 H 0.01276 0.58437 0.16615 0.0
H3819 H 0.06612 0.58955 0.14277 0.0
H3820 H 0.05239 0.55487 0.14774 0.0
H3821 H 0.05398 0.60469 0.11162 0.0
H3822 H 0.06191 0.61123 0.19556 0.0
H3823 H 0.05087 0.60186 0.23654 0.0
H3824 H 0.00607 0.6151 0.22535 0.0
H3825 H 0.01669 0.62432 0.18422 0.0
C3826 C 0.07583 0.69434 0.09845 0.0
C3827 C 0.06189 0.69948 0.10343 0.0
C3828 C 0.07386 0.67715 0.10705 0.0
C3829 C 0.05758 0.66442 0.12012 0.0
C3830 C 0.0437 0.66962 0.12512 0.0
C3831 C 0.0459 0.68699 0.11703 0.0
C3832 C 0.05485 0.64574 0.12882 0.0
C3833 C 0.04968 0.64078 0.15258 0.0
C3834 C 0.05684 0.63265 0.11401 0.0
C3835 C 0.06147 0.63631 0.08851 0.0
C3836 C 0.04986 0.6399 0.07323 0.0
C3837 C 0.0542 0.64303 0.04917 0.0
C3838 C 0.07001 0.64243 0.04014 0.0
C3839 C 0.0815 0.63866 0.05513 0.0
C3840 C 0.07725 0.63556 0.0792 0.0
C3841 C 0.0144 0.55873 0.16685 0.0
C3842 C 0.02511 0.55002 0.16079 0.0
C3843 C 0.02195 0.57834 0.16326 0.0
C3844 C 0.04054 0.58966 0.15414 0.0
C3845 C 0.05177 0.58114 0.14983 0.0
C3846 C 0.04407 0.56143 0.15302 0.0
C3847 C 0.04729 0.60976 0.14673 0.0
C3848 C 0.05325 0.61498 0.12327 0.0
C3849 C 0.04586 0.62301 0.1617 0.0
C3850 C 0.04011 0.61848 0.18681 0.0
C3851 C 0.04973 0.61218 0.20186 0.0
C3852 C 0.04352 0.60685 0.2251 0.0
C3853 C 0.02778 0.60788 0.23354 0.0
C3854 C 0.01828 0.61434 0.2188 0.0
C3855 C 0.02443 0.61968 0.19554 0.0
H3856 H 0.02294 0.60367 0.25151 0.0
H3857 H 0.07332 0.64482 0.0215 0.0
H3858 H 0.67787 0.64848 0.9173 0.0
H3859 H 0.6484 0.62222 0.90074 0.0
H3860 H 0.6783 0.59213 0.8827 0.0
H3861 H 0.70778 0.61813 0.90009 0.0
H3862 H 0.65445 0.59601 0.84446 0.0
H3863 H 0.65123 0.57439 0.92433 0.0
H3864 H 0.6525 0.57726 0.96766 0.0
H3865 H 0.60579 0.58851 0.96651 0.0
H3866 H 0.60445 0.58605 0.9231 0.0
H3867 H 0.55314 0.50597 0.84877 0.0
H3868 H 0.58776 0.52558 0.85587 0.0
H3869 H 0.58501 0.57659 0.84076 0.0
H3870 H 0.55064 0.55703 0.83314 0.0
H3871 H 0.59698 0.55776 0.89425 0.0
H3872 H 0.61281 0.59313 0.81397 0.0
H3873 H 0.60851 0.58819 0.7709 0.0
H3874 H 0.6287 0.548 0.77422 0.0
H3875 H 0.63273 0.55248 0.81741 0.0
C3876 C 0.67817 0.63623 0.90998 0.0
C3877 C 0.69518 0.63543 0.9098 0.0
C3878 C 0.66134 0.62127 0.90049 0.0
C3879 C 0.66127 0.60536 0.89037 0.0
C3880 C 0.67815 0.60439 0.89029 0.0
C3881 C 0.69493 0.6192 0.90026 0.0
C3882 C 0.64338 0.58981 0.88005 0.0
C3883 C 0.64199 0.58747 0.8554 0.0
C3884 C 0.62709 0.5787 0.89428 0.0
C3885 C 0.62788 0.58023 0.92041 0.0
C3886 C 0.64137 0.57769 0.93328 0.0
C3887 C 0.64207 0.57921 0.95788 0.0
C3888 C 0.62927 0.58314 0.96983 0.0
C3889 C 0.61571 0.58551 0.95722 0.0
C3890 C 0.61497 0.58404 0.93262 0.0
C3891 C 0.56024 0.52128 0.84566 0.0
C3892 C 0.54952 0.53009 0.84 0.0
C3893 C 0.57988 0.53244 0.84992 0.0
C3894 C 0.58886 0.55246 0.84862 0.0
C3895 C 0.57839 0.56113 0.84124 0.0
C3896 C 0.55882 0.54998 0.83676 0.0
C3897 C 0.60806 0.56441 0.85886 0.0
C3898 C 0.60961 0.56609 0.88346 0.0
C3899 C 0.62438 0.57496 0.84469 0.0
C3900 C 0.62309 0.57314 0.81876 0.0
C3901 C 0.61635 0.58327 0.80546 0.0
C3902 C 0.61391 0.58051 0.78107 0.0
C3903 C 0.61834 0.56779 0.76982 0.0
C3904 C 0.62527 0.55785 0.78295 0.0
C3905 C 0.62763 0.56048 0.80737 0.0
H3906 H 0.6164 0.56564 0.75095 0.0
H3907 H 0.62979 0.5843 0.98886 0.0
H3908 H 0.3681 0.07061 0.87448 0.0
H3909 H 0.39591 0.07001 0.85886 0.0
H3910 H 0.40178 0.04684 0.92513 0.0
H3911 H 0.37576 0.05064 0.94178 0.0
H3912 H 0.4345 0.0655 0.9092 0.0
H3913 H 0.37534 0.01898 0.86862 0.0
H3914 H 0.3465 0.01121 0.84519 0.0
H3915 H 0.38176 0.04855 0.7898 0.0
H3916 H 0.41077 0.05666 0.81297 0.0
H3917 H 0.45087 0.99201 0.86834 0.0
H3918 H 0.4326 0.00833 0.874 0.0
H3919 H 0.47551 0.05734 0.83578 0.0
H3920 H 0.49441 0.04109 0.83069 0.0
H3921 H 0.42357 0.03237 0.83216 0.0
H3922 H 0.48333 0.07667 0.8732 0.0
H3923 H 0.51116 0.08285 0.89768 0.0
H3924 H 0.47353 0.04678 0.95229 0.0
H3925 H 0.44545 0.04025 0.92806 0.0
C3926 C 0.37577 0.06602 0.88583 0.0
C3927 C 0.36994 0.06086 0.90926 0.0
C3928 C 0.39144 0.06522 0.87678 0.0
C3929 C 0.4006 0.05752 0.89032 0.0
C3930 C 0.39499 0.05271 0.91408 0.0
C3931 C 0.38002 0.05473 0.9236 0.0
C3932 C 0.41525 0.05359 0.87954 0.0
C3933 C 0.43202 0.05832 0.89231 0.0
C3934 C 0.41253 0.04458 0.85715 0.0
C3935 C 0.39516 0.03863 0.84265 0.0
C3936 C 0.37691 0.02548 0.85142 0.0
C3937 C 0.36055 0.02108 0.83823 0.0
C3938 C 0.36231 0.02959 0.81618 0.0
C3939 C 0.38043 0.04212 0.80698 0.0
C3940 C 0.39683 0.04659 0.8201 0.0
C3941 C 0.45622 0.00611 0.86069 0.0
C3942 C 0.47401 0.01535 0.84912 0.0
C3943 C 0.44584 0.01543 0.86404 0.0
C3944 C 0.4529 0.0341 0.85568 0.0
C3945 C 0.47001 0.04298 0.84261 0.0
C3946 C 0.48063 0.03365 0.83945 0.0
C3947 C 0.44234 0.04408 0.86198 0.0
C3948 C 0.42619 0.04015 0.84864 0.0
C3949 C 0.44553 0.05362 0.88384 0.0
C3950 C 0.46232 0.05781 0.8987 0.0
C3951 C 0.481 0.06993 0.89036 0.0
C3952 C 0.49681 0.07355 0.90423 0.0
C3953 C 0.4941 0.06521 0.92655 0.0
C3954 C 0.47558 0.05328 0.93506 0.0
C3955 C 0.45972 0.04963 0.92127 0.0
H3956 H 0.50635 0.06799 0.93727 0.0
H3957 H 0.34963 0.02649 0.80621 0.0
H3958 H 0.91625 0.3012 0.90708 0.0
H3959 H 0.9211 0.33192 0.89235 0.0
H3960 H 0.97675 0.34588 0.86601 0.0
H3961 H 0.97191 0.31511 0.88031 0.0
H3962 H 0.97607 0.3749 0.89467 0.0
H3963 H 0.94084 0.33265 0.82893 0.0
H3964 H 0.91283 0.30471 0.81136 0.0
H3965 H 0.87665 0.32677 0.83349 0.0
H3966 H 0.90439 0.35466 0.85159 0.0
H3967 H 0.00655 0.456 0.82633 0.0
H3968 H 0.99412 0.4218 0.83328 0.0
H3969 H 0.94082 0.41579 0.85799 0.0
H3970 H 0.95343 0.45019 0.85147 0.0
H3971 H 0.93744 0.3826 0.83191 0.0
H3972 H 0.96616 0.4207 0.89899 0.0
H3973 H 0.98972 0.44774 0.92292 0.0
H3974 H 0.03294 0.43358 0.90525 0.0
H3975 H 0.00953 0.40634 0.88118 0.0
C3976 C 0.92945 0.31073 0.89794 0.0
C3977 C 0.94368 0.30568 0.8948 0.0
C3978 C 0.93217 0.32826 0.88952 0.0
C3979 C 0.94926 0.34115 0.87804 0.0
C3980 C 0.96345 0.33612 0.8748 0.0
C3981 C 0.96063 0.31849 0.88291 0.0
C3982 C 0.95278 0.3602 0.87013 0.0
C3983 C 0.96781 0.37656 0.88069 0.0
C3984 C 0.94127 0.36236 0.85287 0.0
C3985 C 0.92467 0.34563 0.84184 0.0
C3986 C 0.92689 0.33145 0.83024 0.0
C3987 C 0.91106 0.31564 0.82015 0.0
C3988 C 0.89296 0.31394 0.82135 0.0
C3989 C 0.89067 0.32808 0.8326 0.0
C3990 C 0.90644 0.34389 0.84278 0.0
C3991 C 0.99185 0.44717 0.83208 0.0
C3992 C 0.98083 0.45557 0.83813 0.0
C3993 C 0.98485 0.42772 0.83634 0.0
C3994 C 0.96667 0.41639 0.84643 0.0
C3995 C 0.95487 0.42432 0.85017 0.0
C3996 C 0.96199 0.44387 0.84624 0.0
C3997 C 0.96119 0.39716 0.85578 0.0
C3998 C 0.94575 0.38087 0.84575 0.0
C3999 C 0.97179 0.39498 0.8742 0.0
C4000 C 0.98617 0.41165 0.88801 0.0
C4001 C 0.98075 0.42349 0.89996 0.0
C4002 C 0.99405 0.43879 0.91365 0.0
C4003 C 0.01287 0.44246 0.91551 0.0
C4004 C 0.01838 0.43075 0.90374 0.0
C4005 C 0.00508 0.41533 0.89012 0.0
H4006 H 0.02315 0.45433 0.92613 0.0
H4007 H 0.88073 0.30169 0.81353 0.0
H4008 H 0.97345 0.68653 0.46898 0.0
H4009 H 0.00436 0.71294 0.48204 0.0
H4010 H 0.00827 0.74435 0.41868 0.0
H4011 H 0.97723 0.71804 0.40559 0.0
H4012 H 0.04132 0.74484 0.42644 0.0
H4013 H 1.00021 0.75865 0.46973 0.0
H4014 H 0.9747 0.75566 0.49633 0.0
H4015 H 1.00138 0.74394 0.55454 0.0
H4016 H 0.02683 0.74638 0.52821 0.0
H4017 H 0.12195 0.83052 0.46321 0.0
H4018 H 0.0876 0.80944 0.45694 0.0
H4019 H 0.0876 0.76919 0.5071 0.0
H4020 H 0.12223 0.79009 0.51297 0.0
H4021 H 0.05268 0.77521 0.50543 0.0
H4022 H 0.09405 0.761 0.45653 0.0
H4023 H 0.12163 0.77202 0.42964 0.0
H4024 H 0.09457 0.79123 0.38002 0.0
H4025 H 0.06699 0.7807 0.40687 0.0
C4026 C 0.98078 0.69914 0.45793 0.0
C4027 C 0.97282 0.70017 0.43626 0.0
C4028 C 0.99845 0.71427 0.46546 0.0
C4029 C 0.00868 0.7307 0.45141 0.0
C4030 C 1.00068 0.73184 0.42985 0.0
C4031 C 0.98287 0.71682 0.42245 0.0
C4032 C 0.02802 0.74627 0.45884 0.0
C4033 C 0.04368 0.75155 0.44364 0.0
C4034 C 0.03128 0.7552 0.48125 0.0
C4035 C 0.0153 0.75239 0.49687 0.0
C4036 C 1.00044 0.75502 0.48809 0.0
C4037 C 0.98602 0.75349 0.50315 0.0
C4038 C 0.98633 0.74944 0.52706 0.0
C4039 C 1.00111 0.747 0.53599 0.0
C4040 C 0.01551 0.74839 0.52099 0.0
C4041 C 0.11448 0.81748 0.47351 0.0
C4042 C 0.12474 0.81182 0.48841 0.0
C4043 C 0.0949 0.80544 0.46984 0.0
C4044 C 0.08518 0.78765 0.48126 0.0
C4045 C 0.09492 0.78288 0.49809 0.0
C4046 C 0.11464 0.79487 0.50159 0.0
C4047 C 0.06569 0.77318 0.47337 0.0
C4048 C 0.05012 0.76824 0.48838 0.0
C4049 C 0.06245 0.76493 0.45059 0.0
C4050 C 0.0785 0.77019 0.43382 0.0
C4051 C 0.094 0.76763 0.43993 0.0
C4052 C 0.10964 0.77381 0.4247 0.0
C4053 C 0.10987 0.78235 0.40316 0.0
C4054 C 0.09438 0.78462 0.39673 0.0
C4055 C 0.07873 0.77853 0.41194 0.0
H4056 H 0.12202 0.78719 0.39143 0.0
H4057 H 0.97517 0.74832 0.53869 0.0
H4058 H 0.28719 0.24709 0.428 0.0
H4059 H 0.26327 0.25194 0.44868 0.0
H4060 H 0.29045 0.30996 0.42216 0.0
H4061 H 0.31548 0.30568 0.40417 0.0
H4062 H 0.28434 0.31191 0.4643 0.0
H4063 H 0.24251 0.26555 0.40367 0.0
H4064 H 0.22618 0.23392 0.38419 0.0
H4065 H 0.20146 0.2069 0.45039 0.0
H4066 H 0.2178 0.23832 0.47027 0.0
H4067 H 0.21884 0.34216 0.45682 0.0
H4068 H 0.23982 0.32895 0.45188 0.0
H4069 H 0.20525 0.28334 0.50055 0.0
H4070 H 0.18345 0.29644 0.50493 0.0
H4071 H 0.21383 0.27025 0.45975 0.0
H4072 H 0.24987 0.31751 0.51753 0.0
H4073 H 0.26357 0.34949 0.53571 0.0
H4074 H 0.298 0.37506 0.47407 0.0
H4075 H 0.28435 0.34329 0.45539 0.0
C4076 C 0.28801 0.26085 0.42681 0.0
C4077 C 0.30346 0.27613 0.41511 0.0
C4078 C 0.27415 0.26358 0.43833 0.0
C4079 C 0.27488 0.28139 0.43717 0.0
C4080 C 0.28962 0.29618 0.42387 0.0
C4081 C 0.30389 0.2937 0.41334 0.0
C4082 C 0.26126 0.28539 0.45053 0.0
C4083 C 0.26893 0.30277 0.46304 0.0
C4084 C 0.24107 0.27305 0.4505 0.0
C4085 C 0.23159 0.25422 0.43848 0.0
C4086 C 0.23373 0.25283 0.41408 0.0
C4087 C 0.22444 0.23495 0.40297 0.0
C4088 C 0.21285 0.21841 0.41606 0.0
C4089 C 0.21049 0.21971 0.44028 0.0
C4090 C 0.21976 0.23753 0.45147 0.0
C4091 C 0.21583 0.32946 0.46677 0.0
C4092 C 0.19959 0.3203 0.48128 0.0
C4093 C 0.22789 0.32196 0.46402 0.0
C4094 C 0.22431 0.30532 0.47611 0.0
C4095 C 0.20833 0.29629 0.49118 0.0
C4096 C 0.19604 0.30382 0.49387 0.0
C4097 C 0.23704 0.29729 0.47158 0.0
C4098 C 0.22927 0.27914 0.46118 0.0
C4099 C 0.25715 0.30891 0.47343 0.0
C4100 C 0.26611 0.32797 0.48509 0.0
C4101 C 0.26039 0.32995 0.50787 0.0
C4102 C 0.26813 0.34805 0.51825 0.0
C4103 C 0.28166 0.36429 0.50607 0.0
C4104 C 0.28756 0.36246 0.48352 0.0
C4105 C 0.27987 0.3444 0.47306 0.0
H4106 H 0.28757 0.3783 0.51409 0.0
H4107 H 0.20565 0.20459 0.40742 0.0
H4108 H 0.69696 0.02204 0.45497 0.0
H4109 H 0.69213 0.9911 0.46818 0.0
H4110 H 0.74714 0.00491 0.43954 0.0
H4111 H 0.75165 0.0356 0.4253 0.0
H4112 H 0.72254 0.96915 0.4301 0.0
H4113 H 0.73923 0.00703 0.50013 0.0
H4114 H 0.73688 0.02855 0.52911 0.0
H4115 H 0.67916 0.98528 0.54539 0.0
H4116 H 0.68103 0.96363 0.5162 0.0
H4117 H 0.71758 0.88764 0.48214 0.0
H4118 H 0.72946 0.92196 0.47692 0.0
H4119 H 0.67444 0.91355 0.49845 0.0
H4120 H 0.6628 0.87935 0.50431 0.0
H4121 H 0.70261 0.94783 0.51263 0.0
H4122 H 0.68571 0.91119 0.4397 0.0
H4123 H 0.68859 0.88979 0.41095 0.0
H4124 H 0.74804 0.9311 0.40082 0.0
H4125 H 0.7456 0.95261 0.42982 0.0
C4126 C 0.70811 0.01857 0.45163 0.0
C4127 C 0.72479 0.03141 0.43934 0.0
C4128 C 0.70535 1.00086 0.45925 0.0
C4129 C 0.71943 0.99573 0.45532 0.0
C4130 C 0.73608 0.0085 0.4429 0.0
C4131 C 0.73869 0.02611 0.4349 0.0
C4132 C 0.71666 0.97704 0.46412 0.0
C4133 C 0.71851 0.96466 0.44826 0.0
C4134 C 0.71121 0.97097 0.48776 0.0
C4135 C 0.71023 0.98376 0.50584 0.0
C4136 C 0.72601 0.00213 0.50983 0.0
C4137 C 0.72476 0.01436 0.52629 0.0
C4138 C 0.70787 0.0083 0.53906 0.0
C4139 C 0.69223 0.98996 0.53549 0.0
C4140 C 0.69338 0.9777 0.51899 0.0
C4141 C 0.70836 0.89334 0.48671 0.0
C4142 C 0.68934 0.88098 0.49374 0.0
C4143 C 0.71503 0.91286 0.48341 0.0
C4144 C 0.70266 0.92023 0.48661 0.0
C4145 C 0.68421 0.90818 0.49571 0.0
C4146 C 0.6776 0.88867 0.49927 0.0
C4147 C 0.7082 0.93992 0.47857 0.0
C4148 C 0.70685 0.95246 0.49455 0.0
C4149 C 0.71422 0.94615 0.45509 0.0
C4150 C 0.71551 0.93345 0.43709 0.0
C4151 C 0.69942 0.91569 0.4314 0.0
C4152 C 0.70097 0.90353 0.41507 0.0
C4153 C 0.71849 0.90907 0.4041 0.0
C4154 C 0.73448 0.92682 0.40935 0.0
C4155 C 0.73302 0.939 0.42573 0.0
H4156 H 0.71968 0.89963 0.3915 0.0
H4157 H 0.7069 0.01784 0.55168 0.0
H4158 H 0.21685 0.87835 0.15787 0.0
H4159 H 0.25153 0.89797 0.16416 0.0
H4160 H 0.24895 0.8573 0.21558 0.0
H4161 H 0.21454 0.83727 0.20865 0.0
H4162 H 0.26176 0.89689 0.23202 0.0
H4163 H 0.27444 0.86131 0.17505 0.0
H4164 H 0.27138 0.84607 0.13638 0.0
H4165 H 0.29641 0.90102 0.10247 0.0
H4166 H 0.29936 0.91659 0.14095 0.0
H4167 H 0.3593 0.95155 0.26684 0.0
H4168 H 0.32919 0.92423 0.25297 0.0
H4169 H 0.33031 0.95669 0.19184 0.0
H4170 H 0.36031 0.984 0.20558 0.0
H4171 H 0.31878 0.91889 0.18061 0.0
H4172 H 0.30379 0.95395 0.23736 0.0
H4173 H 0.30562 0.969 0.27586 0.0
H4174 H 0.28359 0.9145 0.31024 0.0
H4175 H 0.28191 0.89916 0.27195 0.0
C4176 C 0.22384 0.87316 0.16965 0.0
C4177 C 0.213 0.85648 0.18307 0.0
C4178 C 0.2436 0.88445 0.1734 0.0
C4179 C 0.25265 0.87919 0.19063 0.0
C4180 C 0.24216 0.86165 0.20237 0.0
C4181 C 0.22254 0.85024 0.19835 0.0
C4182 C 0.27224 0.89313 0.19868 0.0
C4183 C 0.27431 0.90145 0.221 0.0
C4184 C 0.28842 0.89929 0.18402 0.0
C4185 C 0.28696 0.8901 0.16086 0.0
C4186 C 0.27915 0.87014 0.15933 0.0
C4187 C 0.27747 0.86144 0.13745 0.0
C4188 C 0.28366 0.87256 0.11697 0.0
C4189 C 0.29161 0.89242 0.11835 0.0
C4190 C 0.29332 0.9012 0.1402 0.0
C4191 C 0.35319 0.9528 0.25037 0.0
C4192 C 0.36207 0.96999 0.23743 0.0
C4193 C 0.336 0.9372 0.24246 0.0
C4194 C 0.32745 0.93848 0.22143 0.0
C4195 C 0.33666 0.95538 0.20809 0.0
C4196 C 0.35372 0.97103 0.21608 0.0
C4197 C 0.30834 0.92271 0.21404 0.0
C4198 C 0.30629 0.91415 0.1918 0.0
C4199 C 0.29209 0.91629 0.22878 0.0
C4200 C 0.293 0.92546 0.25183 0.0
C4201 C 0.29952 0.9452 0.25316 0.0
C4202 C 0.3005 0.95378 0.27494 0.0
C4203 C 0.29481 0.94273 0.29551 0.0
C4204 C 0.28805 0.92306 0.29431 0.0
C4205 C 0.28708 0.91441 0.27257 0.0
H4206 H 0.2956 0.9494 0.31236 0.0
H4207 H 0.28233 0.8658 0.10004 0.0
H4208 H 0.12435 0.33697 0.15618 0.0
H4209 H 0.10304 0.35026 0.16054 0.0
H4210 H 0.14162 0.3907 0.21183 0.0
H4211 H 0.16326 0.37804 0.20676 0.0
H4212 H 0.08538 0.34779 0.20221 0.0
H4213 H 0.13578 0.4263 0.21784 0.0
H4214 H 0.16791 0.45172 0.20538 0.0
H4215 H 0.15856 0.42652 0.13643 0.0
H4216 H 0.12645 0.40089 0.14858 0.0
H4217 H 0.04788 0.40412 0.26217 0.0
H4218 H 0.07427 0.39957 0.2488 0.0
H4219 H 0.04765 0.38192 0.1805 0.0
H4220 H 0.02079 0.38568 0.194 0.0
H4221 H 0.0985 0.41482 0.19813 0.0
H4222 H 0.03842 0.34783 0.18823 0.0
H4223 H 0.00877 0.32231 0.20645 0.0
H4224 H 0.04019 0.32435 0.26867 0.0
H4225 H 0.06992 0.35021 0.25095 0.0
C4226 C 0.12865 0.34923 0.1676 0.0
C4227 C 0.14537 0.35639 0.18125 0.0
C4228 C 0.11637 0.35667 0.1703 0.0
C4229 C 0.12067 0.37144 0.18656 0.0
C4230 C 0.13806 0.3795 0.19894 0.0
C4231 C 0.15038 0.37217 0.19613 0.0
C4232 C 0.10604 0.37682 0.19255 0.0
C4233 C 0.08817 0.3624 0.20077 0.0
C4234 C 0.10991 0.39599 0.19188 0.0
C4235 C 0.12874 0.41179 0.18407 0.0
C4236 C 0.14053 0.42633 0.19995 0.0
C4237 C 0.15877 0.44069 0.193 0.0
C4238 C 0.16526 0.44075 0.17011 0.0
C4239 C 0.15353 0.42645 0.15414 0.0
C4240 C 0.13533 0.41198 0.16107 0.0
C4241 C 0.04773 0.39944 0.24421 0.0
C4242 C 0.03218 0.39512 0.22916 0.0
C4243 C 0.06284 0.39691 0.23662 0.0
C4244 C 0.06282 0.39034 0.21373 0.0
C4245 C 0.0478 0.38686 0.19831 0.0
C4246 C 0.03246 0.38896 0.20605 0.0
C4247 C 0.07763 0.38558 0.20655 0.0
C4248 C 0.09562 0.40017 0.19883 0.0
C4249 C 0.07406 0.36659 0.20797 0.0
C4250 C 0.05624 0.3511 0.21845 0.0
C4251 C 0.03892 0.34299 0.2059 0.0
C4252 C 0.02213 0.32845 0.21612 0.0
C4253 C 0.02258 0.32177 0.23875 0.0
C4254 C 0.03984 0.32959 0.2512 0.0
C4255 C 0.05664 0.34421 0.2411 0.0
H4256 H 0.00957 0.31049 0.24661 0.0
H4257 H 0.17938 0.45187 0.16476 0.0
H4258 H 0.58122 0.63012 0.24009 0.0
H4259 H 0.58479 0.65975 0.22293 0.0
H4260 H 0.64459 0.68959 0.24183 0.0
H4261 H 0.64131 0.65997 0.25805 0.0
H4262 H 0.62421 0.70994 0.25217 0.0
H4263 H 0.63393 0.67463 0.1886 0.0
H4264 H 0.62421 0.64708 0.16198 0.0
H4265 H 0.57661 0.65233 0.13763 0.0
H4266 H 0.58591 0.67975 0.16436 0.0
H4267 H 0.67964 0.78947 0.18451 0.0
H4268 H 0.66509 0.7555 0.19447 0.0
H4269 H 0.60942 0.74695 0.17627 0.0
H4270 H 0.62402 0.7813 0.16691 0.0
H4271 H 0.62074 0.7146 0.16509 0.0
H4272 H 0.61174 0.75136 0.22443 0.0
H4273 H 0.62158 0.77998 0.24904 0.0
H4274 H 0.66521 0.77195 0.28139 0.0
H4275 H 0.65601 0.74357 0.25641 0.0
C4276 C 0.5951 0.64301 0.2406 0.0
C4277 C 0.61104 0.64262 0.25004 0.0
C4278 C 0.59711 0.65992 0.23084 0.0
C4279 C 0.615 0.67682 0.23093 0.0
C4280 C 0.63067 0.67669 0.24151 0.0
C4281 C 0.62877 0.65974 0.25076 0.0
C4282 C 0.61784 0.69456 0.21927 0.0
C4283 C 0.62337 0.71093 0.23316 0.0
C4284 C 0.61616 0.69571 0.1945 0.0
C4285 C 0.61041 0.67901 0.1788 0.0
C4286 C 0.62123 0.66973 0.17783 0.0
C4287 C 0.61584 0.65418 0.16266 0.0
C4288 C 0.59972 0.64787 0.14826 0.0
C4289 C 0.58902 0.65716 0.1489 0.0
C4290 C 0.59435 0.6727 0.16405 0.0
C4291 C 0.66444 0.78013 0.18149 0.0
C4292 C 0.65293 0.78778 0.17463 0.0
C4293 C 0.65613 0.76081 0.18741 0.0
C4294 C 0.6362 0.74886 0.18632 0.0
C4295 C 0.62484 0.75601 0.17713 0.0
C4296 C 0.63317 0.77551 0.17158 0.0
C4297 C 0.62746 0.72991 0.19797 0.0
C4298 C 0.621 0.71343 0.18415 0.0
C4299 C 0.62791 0.72855 0.22284 0.0
C4300 C 0.63336 0.74546 0.23824 0.0
C4301 C 0.62361 0.75583 0.23653 0.0
C4302 C 0.62904 0.77199 0.2506 0.0
C4303 C 0.64406 0.77782 0.26671 0.0
C4304 C 0.65362 0.76745 0.26884 0.0
C4305 C 0.64831 0.75132 0.25471 0.0
H4306 H 0.64824 0.79033 0.2776 0.0
H4307 H 0.59561 0.63587 0.13647 0.0
H4308 H 0.78237 0.16419 0.81181 0.0
H4309 H 0.74832 0.14272 0.80357 0.0
H4310 H 0.75186 0.09582 0.83497 0.0
H4311 H 0.7859 0.1173 0.8432 0.0
H4312 H 0.74151 0.09132 0.78627 0.0
H4313 H 0.72347 0.10976 0.85937 0.0
H4314 H 0.72565 0.13475 0.88636 0.0
H4315 H 0.70287 0.15529 0.83254 0.0
H4316 H 0.70079 0.13055 0.80512 0.0
H4317 H 0.6502 0.01347 0.77284 0.0
H4318 H 0.67958 0.03925 0.7897 0.0
H4319 H 0.66611 0.08094 0.76193 0.0
H4320 H 0.63627 0.05495 0.745 0.0
H4321 H 0.68141 0.09074 0.80691 0.0
H4322 H 0.69824 0.07505 0.73436 0.0
H4323 H 0.69945 0.05494 0.70243 0.0
H4324 H 0.72781 0.03476 0.74864 0.0
H4325 H 0.72643 0.05446 0.78103 0.0
C4326 C 0.77558 0.14953 0.81807 0.0
C4327 C 0.78666 0.14235 0.82817 0.0
C4328 C 0.75619 0.13724 0.81316 0.0
C4329 C 0.74765 0.11764 0.81838 0.0
C4330 C 0.75824 0.1109 0.83071 0.0
C4331 C 0.77759 0.12322 0.83575 0.0
C4332 C 0.72879 0.10383 0.80806 0.0
C4333 C 0.72829 0.0909 0.79114 0.0
C4334 C 0.71185 0.10423 0.81327 0.0
C4335 C 0.712 0.11832 0.83019 0.0
C4336 C 0.71891 0.11959 0.8533 0.0
C4337 C 0.72016 0.13373 0.86866 0.0
C4338 C 0.71441 0.14661 0.86116 0.0
C4339 C 0.70729 0.14529 0.83833 0.0
C4340 C 0.70602 0.13117 0.82289 0.0
C4341 C 0.6534 0.0281 0.77024 0.0
C4342 C 0.64096 0.03213 0.75728 0.0
C4343 C 0.67025 0.04285 0.77995 0.0
C4344 C 0.6752 0.06207 0.77688 0.0
C4345 C 0.66261 0.06622 0.76448 0.0
C4346 C 0.64565 0.05137 0.75466 0.0
C4347 C 0.69397 0.07755 0.78588 0.0
C4348 C 0.69457 0.09098 0.80222 0.0
C4349 C 0.71124 0.0781 0.77959 0.0
C4350 C 0.71202 0.06608 0.76023 0.0
C4351 C 0.70455 0.06616 0.73781 0.0
C4352 C 0.70529 0.05486 0.71961 0.0
C4353 C 0.71365 0.04353 0.72352 0.0
C4354 C 0.7213 0.04351 0.74565 0.0
C4355 C 0.72054 0.05474 0.76394 0.0
H4356 H 0.71423 0.03481 0.7094 0.0
H4357 H 0.71547 0.1576 0.87304 0.0
H4358 H 0.95097 0.59865 0.72724 0.0
H4359 H 0.92503 0.60292 0.74375 0.0
H4360 H 0.95536 0.62106 0.80979 0.0
H4361 H 0.98141 0.61749 0.79336 0.0
H4362 H 0.90673 0.58996 0.80435 0.0
H4363 H 0.96499 0.65687 0.79177 0.0
H4364 H 0.98994 0.67908 0.76413 0.0
H4365 H 0.94698 0.66743 0.71169 0.0
H4366 H 0.92184 0.64506 0.73903 0.0
H4367 H 0.89092 0.6759 0.84298 0.0
H4368 H 0.91023 0.66075 0.8351 0.0
H4369 H 0.86044 0.61149 0.80622 0.0
H4370 H 0.84114 0.62613 0.81537 0.0
H4371 H 0.91664 0.6552 0.79125 0.0
H4372 H 0.86618 0.57619 0.79655 0.0
H4373 H 0.83817 0.55274 0.8195 0.0
H4374 H 0.86167 0.58657 0.88206 0.0
H4375 H 0.88974 0.61031 0.85937 0.0
C4376 C 0.95197 0.60335 0.74534 0.0
C4377 C 0.9683 0.60787 0.75893 0.0
C4378 C 0.93713 0.60569 0.75476 0.0
C4379 C 0.93824 0.61215 0.77806 0.0
C4380 C 0.95415 0.6159 0.79187 0.0
C4381 C 0.96911 0.61401 0.78235 0.0
C4382 C 0.92413 0.61723 0.78737 0.0
C4383 C 0.90882 0.60419 0.80149 0.0
C4384 C 0.92664 0.63562 0.78342 0.0
C4385 C 0.94164 0.64933 0.76732 0.0
C4386 C 0.96092 0.65906 0.77432 0.0
C4387 C 0.97508 0.67165 0.75873 0.0
C4388 C 0.97005 0.67466 0.73616 0.0
C4389 C 0.95085 0.6651 0.72917 0.0
C4390 C 0.93666 0.65249 0.7447 0.0
C4391 C 0.88393 0.66133 0.83642 0.0
C4392 C 0.86454 0.65207 0.83005 0.0
C4393 C 0.89501 0.65279 0.83148 0.0
C4394 C 0.88691 0.63496 0.81989 0.0
C4395 C 0.8671 0.62499 0.81558 0.0
C4396 C 0.856 0.63336 0.82093 0.0
C4397 C 0.89953 0.62828 0.80932 0.0
C4398 C 0.91451 0.641 0.7945 0.0
C4399 C 0.89632 0.60942 0.81226 0.0
C4400 C 0.88004 0.59493 0.82633 0.0
C4401 C 0.86543 0.5785 0.81526 0.0
C4402 C 0.8495 0.56524 0.82817 0.0
C4403 C 0.84815 0.56815 0.85223 0.0
C4404 C 0.86273 0.58435 0.86342 0.0
C4405 C 0.87862 0.59774 0.85053 0.0
H4406 H 0.83581 0.55787 0.8622 0.0
H4407 H 0.98103 0.6844 0.72411 0.0
H4408 H 0.37795 0.21957 0.83049 0.0
H4409 H 0.38999 0.25402 0.82537 0.0
H4410 H 0.33194 0.24305 0.82202 0.0
H4411 H 0.31995 0.20873 0.82759 0.0
H4412 H 0.35661 0.26108 0.78033 0.0
H4413 H 0.35625 0.26773 0.86597 0.0
H4414 H 0.36563 0.2635 0.90599 0.0
H4415 H 0.425 0.29743 0.88717 0.0
H4416 H 0.41595 0.3017 0.84695 0.0
H4417 H 0.36123 0.3516 0.77944 0.0
H4418 H 0.35548 0.32036 0.79329 0.0
H4419 H 0.41527 0.33873 0.7841 0.0
H4420 H 0.42094 0.36967 0.7688 0.0
H4421 H 0.39386 0.31785 0.83146 0.0
H4422 H 0.39701 0.31371 0.74882 0.0
H4423 H 0.39103 0.31698 0.70702 0.0
H4424 H 0.33124 0.27658 0.71638 0.0
H4425 H 0.33672 0.27377 0.75867 0.0
C4426 C 0.36785 0.22472 0.82995 0.0
C4427 C 0.34806 0.21167 0.82991 0.0
C4428 C 0.3747 0.24432 0.82674 0.0
C4429 C 0.36183 0.25101 0.82311 0.0
C4430 C 0.34208 0.23813 0.82479 0.0
C4431 C 0.33524 0.21861 0.82833 0.0
C4432 C 0.36876 0.27086 0.81483 0.0
C4433 C 0.3645 0.27349 0.79159 0.0
C4434 C 0.38001 0.28702 0.82911 0.0
C4435 C 0.38543 0.28495 0.85345 0.0
C4436 C 0.3713 0.27422 0.87035 0.0
C4437 C 0.37655 0.27183 0.89307 0.0
C4438 C 0.3959 0.28017 0.89911 0.0
C4439 C 0.41002 0.29099 0.88247 0.0
C4440 C 0.40484 0.29344 0.85973 0.0
C4441 C 0.3732 0.34907 0.7805 0.0
C4442 C 0.3916 0.3632 0.77325 0.0
C4443 C 0.36988 0.33121 0.78838 0.0
C4444 C 0.38496 0.32729 0.78975 0.0
C4445 C 0.40346 0.34153 0.78324 0.0
C4446 C 0.40668 0.35919 0.77458 0.0
C4447 C 0.38099 0.30801 0.79723 0.0
C4448 C 0.38591 0.30546 0.82019 0.0
C4449 C 0.3708 0.29188 0.78243 0.0
C4450 C 0.36722 0.2939 0.75714 0.0
C4451 C 0.3825 0.30588 0.74216 0.0
C4452 C 0.37921 0.30757 0.7183 0.0
C4453 C 0.36076 0.29702 0.70901 0.0
C4454 C 0.34553 0.28481 0.72362 0.0
C4455 C 0.3487 0.28324 0.74759 0.0
H4456 H 0.35827 0.29826 0.69048 0.0
H4457 H 0.39993 0.27826 0.91669 0.0
H4458 H 0.02092 0.32493 0.54742 0.0
H4459 H 0.98999 0.29846 0.53429 0.0
H4460 H 0.00595 0.25774 0.55885 0.0
H4461 H 0.03659 0.28411 0.57299 0.0
H4462 H 0.98811 0.25018 0.51134 0.0
H4463 H 0.97792 0.2587 0.59057 0.0
H4464 H 0.97828 0.27468 0.62775 0.0
H4465 H 0.94239 0.29404 0.59659 0.0
H4466 H 0.94218 0.27854 0.55898 0.0
H4467 H 0.88769 0.17228 0.51778 0.0
H4468 H 0.92204 0.1944 0.52373 0.0
H4469 H 0.91531 0.24104 0.49797 0.0
H4470 H 0.88109 0.21891 0.49164 0.0
H4471 H 0.92889 0.24264 0.54815 0.0
H4472 H 0.94153 0.23173 0.46673 0.0
H4473 H 0.93841 0.20952 0.43487 0.0
H4474 H 0.96738 0.1878 0.47755 0.0
H4475 H 0.97047 0.20976 0.50978 0.0
C4476 C 0.01792 0.31036 0.54989 0.0
C4477 C 0.03126 0.30663 0.56112 0.0
C4478 C 1.00024 0.29526 0.54242 0.0
C4479 C 0.99572 0.27617 0.54559 0.0
C4480 C 0.0092 0.27238 0.55617 0.0
C4481 C 0.02668 0.28746 0.56423 0.0
C4482 C 0.97662 0.26031 0.53848 0.0
C4483 C 0.97518 0.24845 0.5195 0.0
C4484 C 0.95974 0.25775 0.54947 0.0
C4485 C 0.96035 0.26776 0.57175 0.0
C4486 C 0.9704 0.26667 0.59146 0.0
C4487 C 0.97051 0.27557 0.61267 0.0
C4488 C 0.96044 0.28545 0.61449 0.0
C4489 C 0.95025 0.28645 0.59511 0.0
C4490 C 0.95016 0.27763 0.57382 0.0
C4491 C 0.89381 0.18706 0.51219 0.0
C4492 C 0.88189 0.19393 0.50405 0.0
C4493 C 0.91333 0.1997 0.51587 0.0
C4494 C 0.92107 0.21935 0.51159 0.0
C4495 C 0.90952 0.22591 0.50145 0.0
C4496 C 0.89008 0.21324 0.49747 0.0
C4497 C 0.94044 0.23331 0.52029 0.0
C4498 C 0.94188 0.2446 0.53985 0.0
C4499 C 0.95721 0.23482 0.51042 0.0
C4500 C 0.95619 0.22233 0.49066 0.0
C4501 C 0.94722 0.2222 0.46932 0.0
C4502 C 0.94544 0.20965 0.4512 0.0
C4503 C 0.95268 0.19725 0.45419 0.0
C4504 C 0.9618 0.19744 0.47525 0.0
C4505 C 0.96361 0.20996 0.49342 0.0
H4506 H 0.95123 0.18749 0.44018 0.0
H4507 H 0.96048 0.29227 0.63096 0.0
H4508 H 0.68788 0.6955 0.58416 0.0
H4509 H 0.71395 0.69183 0.56781 0.0
H4510 H 0.74655 0.75255 0.55425 0.0
H4511 H 0.72076 0.75644 0.57159 0.0
H4512 H 0.74414 0.72858 0.51445 0.0
H4513 H 0.76166 0.73883 0.59477 0.0
H4514 H 0.75929 0.73541 0.63802 0.0
H4515 H 0.7474 0.67739 0.63211 0.0
H4516 H 0.74906 0.68021 0.58874 0.0
H4517 H 0.83204 0.71538 0.51544 0.0
H4518 H 0.81143 0.72898 0.52404 0.0
H4519 H 0.76179 0.67532 0.50511 0.0
H4520 H 0.78238 0.66186 0.49608 0.0
H4521 H 0.77679 0.70094 0.56078 0.0
H4522 H 0.75071 0.69205 0.4771 0.0
H4523 H 0.75931 0.69868 0.43497 0.0
H4524 H 0.79422 0.75869 0.45019 0.0
H4525 H 0.78599 0.75229 0.49248 0.0
C4526 C 0.70066 0.70812 0.57791 0.0
C4527 C 0.70219 0.72626 0.57899 0.0
C4528 C 0.71554 0.70599 0.56854 0.0
C4529 C 0.73213 0.72189 0.55966 0.0
C4530 C 0.73381 0.74007 0.56087 0.0
C4531 C 0.7191 0.74228 0.57082 0.0
C4532 C 0.74749 0.71925 0.54899 0.0
C4533 C 0.75134 0.72266 0.52469 0.0
C4534 C 0.75716 0.71179 0.56231 0.0
C4535 C 0.75525 0.70967 0.58839 0.0
C4536 C 0.75819 0.72521 0.60262 0.0
C4537 C 0.75704 0.72341 0.62719 0.0
C4538 C 0.75322 0.70621 0.6378 0.0
C4539 C 0.75039 0.69072 0.62386 0.0
C4540 C 0.75136 0.69239 0.59927 0.0
C4541 C 0.81684 0.70694 0.51174 0.0
C4542 C 0.80876 0.68771 0.50475 0.0
C4543 C 0.80508 0.71461 0.51695 0.0
C4544 C 0.78513 0.70313 0.51521 0.0
C4545 C 0.77719 0.68448 0.50622 0.0
C4546 C 0.78895 0.67686 0.50081 0.0
C4547 C 0.77256 0.70938 0.52633 0.0
C4548 C 0.76944 0.70679 0.55072 0.0
C4549 C 0.76378 0.71776 0.51327 0.0
C4550 C 0.76775 0.72171 0.48782 0.0
C4551 C 0.7602 0.70665 0.47141 0.0
C4552 C 0.76503 0.71035 0.44754 0.0
C4553 C 0.77729 0.7291 0.4399 0.0
C4554 C 0.78469 0.74418 0.45612 0.0
C4555 C 0.77994 0.74053 0.48002 0.0
H4556 H 0.78107 0.73194 0.42142 0.0
H4557 H 0.75242 0.70486 0.65683 0.0
H4558 H 0.28661 0.11118 0.48853 0.0
H4559 H 0.27595 0.0773 0.49649 0.0
H4560 H 0.33198 0.09405 0.52486 0.0
H4561 H 0.34293 0.12692 0.51401 0.0
H4562 H 0.32101 0.06282 0.51074 0.0
H4563 H 0.28619 0.0865 0.55841 0.0
H4564 H 0.26427 0.09935 0.56304 0.0
H4565 H 0.22002 0.05049 0.52665 0.0
H4566 H 0.24174 0.03744 0.52169 0.0
H4567 H 0.30392 0.99427 0.59708 0.0
H4568 H 0.30935 0.0242 0.57941 0.0
H4569 H 0.25396 0.99419 0.54582 0.0
H4570 H 0.24805 0.96436 0.56473 0.0
H4571 H 0.2613 0.02877 0.55769 0.0
H4572 H 0.29916 0.00473 0.51714 0.0
H4573 H 0.32317 0.99424 0.51703 0.0
H4574 H 0.36496 0.04813 0.54683 0.0
H4575 H 0.34118 0.05886 0.54724 0.0
C4576 C 0.29678 0.10726 0.49518 0.0
C4577 C 0.31564 0.12147 0.50031 0.0
C4578 C 0.2906 0.088 0.50044 0.0
C4579 C 0.30285 0.08295 0.5123 0.0
C4580 C 0.32206 0.0972 0.51575 0.0
C4581 C 0.32844 0.1161 0.5094 0.0
C4582 C 0.29594 0.06348 0.52269 0.0
C4583 C 0.30801 0.0556 0.52117 0.0
C4584 C 0.27875 0.05348 0.53598 0.0
C4585 C 0.2656 0.06109 0.53953 0.0
C4586 C 0.27178 0.07852 0.55142 0.0
C4587 C 0.2594 0.08584 0.55407 0.0
C4588 C 0.24077 0.07576 0.5451 0.0
C4589 C 0.23445 0.05829 0.53357 0.0
C4590 C 0.24677 0.05091 0.53086 0.0
C4591 C 0.29279 0.99409 0.5862 0.0
C4592 C 0.27575 0.97686 0.58172 0.0
C4593 C 0.29593 0.01122 0.57599 0.0
C4594 C 0.28238 0.01141 0.56053 0.0
C4595 C 0.26479 0.99443 0.55737 0.0
C4596 C 0.26146 0.97735 0.56806 0.0
C4597 C 0.28697 0.02897 0.54671 0.0
C4598 C 0.2743 0.03617 0.54729 0.0
C4599 C 0.30403 0.03887 0.53332 0.0
C4600 C 0.3184 0.03255 0.53224 0.0
C4601 C 0.31348 0.01432 0.52362 0.0
C4602 C 0.32704 0.00834 0.52354 0.0
C4603 C 0.34557 0.0205 0.53192 0.0
C4604 C 0.35062 0.03872 0.54031 0.0
C4605 C 0.33713 0.04478 0.54041 0.0
H4606 H 0.35602 0.01582 0.53192 0.0
H4607 H 0.23123 0.08147 0.54711 0.0
loop_
_geom_bond_atom_site_label_1
_geom_bond_atom_site_label_2
_geom_bond_distance
_geom_bond_site_symmetry_2
_ccdc_geom_bond_type
C0 C1 1.359 . S
C0 N5 1.330 . S
C0 C61 1.504 . S
C1 C0 1.359 . S
C1 C2 1.366 . S
C1 H63 0.929 . S
C2 C1 1.366 . S
C2 C3 1.415 . S
C2 H64 0.932 . S
C3 C2 1.415 . S
C3 C4 1.366 . S
C3 H65 0.931 . S
C4 C3 1.366 . S
C4 N5 1.325 . S
C4 C6 1.516 . S
N5 C0 1.330 . S
N5 C4 1.325 . S
N5 Co21 1.869 . S
C6 C4 1.516 . S
C6 N30 1.316 . S
C6 O53 1.263 . S
C7 C8 1.421 . S
C7 C12 1.360 . S
C7 N30 1.436 . S
C8 C7 1.421 . S
C8 C9 1.379 . S
C8 H66 0.929 . S
C9 C8 1.379 . S
C9 C10 1.417 . S
C10 C9 1.417 . S
C10 C11 1.352 . S
C10 H67 0.929 . S
C11 C10 1.352 . S
C11 C12 1.393 . S
C12 C7 1.360 . S
C12 C11 1.393 . S
C12 H68 0.931 . S
Cd13 O33 2.329 . S
Cd13 O35 2.350 . S
Cd13 O36 2.277 . S
Cd13 O38 2.173 . S
Cd13 O42 2.263 . S
Cd13 O53 2.366 . S
Cd14 O32 2.352 . S
Cd14 O39 2.250 . S
Cd14 O43 2.308 . S
C15 C19 1.403 . S
C15 C20 1.370 . S
C15 N31 1.423 . S
C16 C17 1.389 . S
C16 C20 1.389 . S
C17 C16 1.389 . S
C17 C18 1.379 . S
C17 H69 0.929 . S
C18 C17 1.379 . S
C18 C19 1.405 . S
C19 C15 1.403 . S
C19 C18 1.405 . S
C19 H70 0.932 . S
C20 C15 1.370 . S
C20 C16 1.389 . S
C20 H71 0.931 . S
Co21 N5 1.869 . S
Co21 N22 1.955 . S
Co21 N23 1.864 . S
Co21 N29 1.958 . S
Co21 N30 1.953 . S
Co21 N31 1.974 . S
N22 Co21 1.955 . S
N22 C40 1.329 . S
N22 C55 1.432 . S
N23 Co21 1.864 . S
N23 C24 1.327 . S
N23 C28 1.342 . S
C24 N23 1.327 . S
C24 C25 1.407 . S
C24 C40 1.481 . S
C25 C24 1.407 . S
C25 C26 1.364 . S
C25 H72 0.930 . S
C26 C25 1.364 . S
C26 C27 1.390 . S
C26 H73 0.931 . S
C27 C26 1.390 . S
C27 C28 1.346 . S
C27 H74 0.930 . S
C28 N23 1.342 . S
C28 C27 1.346 . S
C28 C44 1.516 . S
N29 Co21 1.958 . S
N29 C44 1.324 . S
N29 C46 1.427 . S
N30 C6 1.316 . S
N30 C7 1.436 . S
N30 Co21 1.953 . S
N31 C15 1.423 . S
N31 Co21 1.974 . S
N31 C61 1.309 . S
O32 Cd14 2.352 . S
O32 C52 1.235 . S
O33 Cd13 2.329 . S
O33 C52 1.270 . S
C34 O35 1.270 . S
C34 O36 1.248 . S
O35 Cd13 2.350 . S
O35 C34 1.270 . S
O36 Cd13 2.277 . S
O36 C34 1.248 . S
C37 O38 1.277 . S
C37 O39 1.230 . S
O38 Cd13 2.173 . S
O38 C37 1.277 . S
O39 Cd14 2.250 . S
O39 C37 1.230 . S
C40 N22 1.329 . S
C40 C24 1.481 . S
C40 O41 1.246 . S
O41 C40 1.246 . S
O42 Cd13 2.263 . S
O42 C54 1.258 . S
O43 Cd14 2.308 . S
O43 C54 1.274 . S
C44 C28 1.516 . S
C44 N29 1.324 . S
C44 O45 1.238 . S
O45 C44 1.238 . S
C46 N29 1.427 . S
C46 C47 1.394 . S
C46 C51 1.395 . S
C47 C46 1.394 . S
C47 C48 1.380 . S
C47 H75 0.929 . S
C48 C47 1.380 . S
C48 C49 1.384 . S
C48 C54 1.495 . S
C49 C48 1.384 . S
C49 C50 1.382 . S
C49 H76 0.930 . S
C50 C49 1.382 . S
C50 C51 1.398 . S
C51 C46 1.395 . S
C51 C50 1.398 . S
C51 H77 0.930 . S
C52 O32 1.235 . S
C52 O33 1.270 . S
O53 C6 1.263 . S
O53 Cd13 2.366 . S
C54 O42 1.258 . S
C54 O43 1.274 . S
C54 C48 1.495 . S
C55 N22 1.432 . S
C55 C56 1.381 . S
C55 C60 1.385 . S
C56 C55 1.381 . S
C56 C57 1.371 . S
C56 H78 0.932 . S
C57 C56 1.371 . S
C57 C58 1.400 . S
C58 C57 1.400 . S
C58 C59 1.351 . S
C58 H79 0.930 . S
C59 C58 1.351 . S
C59 C60 1.388 . S
C60 C55 1.385 . S
C60 C59 1.388 . S
C60 H80 0.929 . S
C61 C0 1.504 . S
C61 N31 1.309 . S
C61 O62 1.258 . S
O62 C61 1.258 . S
H63 C1 0.929 . S
H64 C2 0.932 . S
H65 C3 0.931 . S
H66 C8 0.929 . S
H67 C10 0.929 . S
H68 C12 0.931 . S
H69 C17 0.929 . S
H70 C19 0.932 . S
H71 C20 0.931 . S
H72 C25 0.930 . S
H73 C26 0.931 . S
H74 C27 0.930 . S
H75 C47 0.929 . S
H76 C49 0.930 . S
H77 C51 0.930 . S
H78 C56 0.932 . S
H79 C58 0.930 . S
H80 C60 0.929 . S
C81 C82 1.359 . S
C81 N86 1.330 . S
C81 C142 1.504 . S
C82 C81 1.359 . S
C82 C83 1.366 . S
C82 H144 0.929 . S
C83 C82 1.366 . S
C83 C84 1.415 . S
C83 H145 0.932 . S
C84 C83 1.415 . S
C84 C85 1.366 . S
C84 H146 0.931 . S
C85 C84 1.366 . S
C85 N86 1.325 . S
C85 C87 1.516 . S
N86 C81 1.330 . S
N86 C85 1.325 . S
N86 Co102 1.869 . S
C87 C85 1.516 . S
C87 N111 1.316 . S
C87 O134 1.263 . S
C88 C89 1.421 . S
C88 C93 1.360 . S
C88 N111 1.436 . S
C89 C88 1.421 . S
C89 C90 1.379 . S
C89 H147 0.929 . S
C90 C89 1.379 . S
C90 C91 1.417 . S
C91 C90 1.417 . S
C91 C92 1.352 . S
C91 H148 0.929 . S
C92 C91 1.352 . S
C92 C93 1.393 . S
C93 C88 1.360 . S
C93 C92 1.393 . S
C93 H149 0.931 . S
Cd94 O114 2.329 . S
Cd94 O116 2.350 . S
Cd94 O117 2.277 . S
Cd94 O119 2.173 . S
Cd94 O123 2.263 . S
Cd94 O134 2.366 . S
Cd95 O113 2.352 . S
Cd95 O120 2.250 . S
Cd95 O124 2.308 . S
C96 C100 1.403 . S
C96 C101 1.370 . S
C96 N112 1.423 . S
C97 C98 1.389 . S
C97 C101 1.389 . S
C98 C97 1.389 . S
C98 C99 1.379 . S
C98 H150 0.929 . S
C99 C98 1.379 . S
C99 C100 1.405 . S
C100 C96 1.403 . S
C100 C99 1.405 . S
C100 H151 0.932 . S
C101 C96 1.370 . S
C101 C97 1.389 . S
C101 H152 0.931 . S
Co102 N86 1.869 . S
Co102 N103 1.955 . S
Co102 N104 1.864 . S
Co102 N110 1.958 . S
Co102 N111 1.953 . S
Co102 N112 1.974 . S
N103 Co102 1.955 . S
N103 C121 1.329 . S
N103 C136 1.432 . S
N104 Co102 1.864 . S
N104 C105 1.327 . S
N104 C109 1.342 . S
C105 N104 1.327 . S
C105 C106 1.407 . S
C105 C121 1.481 . S
C106 C105 1.407 . S
C106 C107 1.364 . S
C106 H153 0.930 . S
C107 C106 1.364 . S
C107 C108 1.390 . S
C107 H154 0.931 . S
C108 C107 1.390 . S
C108 C109 1.346 . S
C108 H155 0.930 . S
C109 N104 1.342 . S
C109 C108 1.346 . S
C109 C125 1.516 . S
N110 Co102 1.958 . S
N110 C125 1.324 . S
N110 C127 1.427 . S
N111 C87 1.316 . S
N111 C88 1.436 . S
N111 Co102 1.953 . S
N112 C96 1.423 . S
N112 Co102 1.974 . S
N112 C142 1.309 . S
O113 Cd95 2.352 . S
O113 C133 1.235 . S
O114 Cd94 2.329 . S
O114 C133 1.270 . S
C115 O116 1.270 . S
C115 O117 1.248 . S
O116 Cd94 2.350 . S
O116 C115 1.270 . S
O117 Cd94 2.277 . S
O117 C115 1.248 . S
C118 O119 1.277 . S
C118 O120 1.230 . S
O119 Cd94 2.173 . S
O119 C118 1.277 . S
O120 Cd95 2.250 . S
O120 C118 1.230 . S
C121 N103 1.329 . S
C121 C105 1.481 . S
C121 O122 1.246 . S
O122 C121 1.246 . S
O123 Cd94 2.263 . S
O123 C135 1.258 . S
O124 Cd95 2.308 . S
O124 C135 1.274 . S
C125 C109 1.516 . S
C125 N110 1.324 . S
C125 O126 1.238 . S
O126 C125 1.238 . S
C127 N110 1.427 . S
C127 C128 1.394 . S
C127 C132 1.395 . S
C128 C127 1.394 . S
C128 C129 1.380 . S
C128 H156 0.929 . S
C129 C128 1.380 . S
C129 C130 1.384 . S
C129 C135 1.495 . S
C130 C129 1.384 . S
C130 C131 1.382 . S
C130 H157 0.930 . S
C131 C130 1.382 . S
C131 C132 1.398 . S
C132 C127 1.395 . S
C132 C131 1.398 . S
C132 H158 0.930 . S
C133 O113 1.235 . S
C133 O114 1.270 . S
O134 C87 1.263 . S
O134 Cd94 2.366 . S
C135 O123 1.258 . S
C135 O124 1.274 . S
C135 C129 1.495 . S
C136 N103 1.432 . S
C136 C137 1.381 . S
C136 C141 1.385 . S
C137 C136 1.381 . S
C137 C138 1.371 . S
C137 H159 0.932 . S
C138 C137 1.371 . S
C138 C139 1.400 . S
C139 C138 1.400 . S
C139 C140 1.351 . S
C139 H160 0.930 . S
C140 C139 1.351 . S
C140 C141 1.388 . S
C141 C136 1.385 . S
C141 C140 1.388 . S
C141 H161 0.929 . S
C142 C81 1.504 . S
C142 N112 1.309 . S
C142 O143 1.258 . S
O143 C142 1.258 . S
H144 C82 0.929 . S
H145 C83 0.932 . S
H146 C84 0.931 . S
H147 C89 0.929 . S
H148 C91 0.929 . S
H149 C93 0.931 . S
H150 C98 0.929 . S
H151 C100 0.932 . S
H152 C101 0.931 . S
H153 C106 0.930 . S
H154 C107 0.931 . S
H155 C108 0.930 . S
H156 C128 0.929 . S
H157 C130 0.930 . S
H158 C132 0.930 . S
H159 C137 0.932 . S
H160 C139 0.930 . S
H161 C141 0.929 . S
C162 C163 1.359 . S
C162 N167 1.330 . S
C162 C223 1.504 . S
C163 C162 1.359 . S
C163 C164 1.366 . S
C163 H225 0.929 . S
C164 C163 1.366 . S
C164 C165 1.415 . S
C164 H226 0.932 . S
C165 C164 1.415 . S
C165 C166 1.366 . S
C165 H227 0.931 . S
C166 C165 1.366 . S
C166 N167 1.325 . S
C166 C168 1.516 . S
N167 C162 1.330 . S
N167 C166 1.325 . S
N167 Co183 1.869 . S
C168 C166 1.516 . S
C168 N192 1.316 . S
C168 O215 1.263 . S
C169 C170 1.421 . S
C169 C174 1.360 . S
C169 N192 1.436 . S
C170 C169 1.421 . S
C170 C171 1.379 . S
C170 H228 0.929 . S
C171 C170 1.379 . S
C171 C172 1.417 . S
C172 C171 1.417 . S
C172 C173 1.352 . S
C172 H229 0.929 . S
C173 C172 1.352 . S
C173 C174 1.393 . S
C174 C169 1.360 . S
C174 C173 1.393 . S
C174 H230 0.931 . S
Cd175 O195 2.329 . S
Cd175 O197 2.350 . S
Cd175 O198 2.277 . S
Cd175 O200 2.173 . S
Cd175 O204 2.263 . S
Cd175 O215 2.366 . S
Cd176 O194 2.352 . S
Cd176 O201 2.250 . S
Cd176 O205 2.308 . S
C177 C181 1.403 . S
C177 C182 1.370 . S
C177 N193 1.423 . S
C178 C179 1.389 . S
C178 C182 1.389 . S
C179 C178 1.389 . S
C179 C180 1.379 . S
C179 H231 0.929 . S
C180 C179 1.379 . S
C180 C181 1.405 . S
C181 C177 1.403 . S
C181 C180 1.405 . S
C181 H232 0.932 . S
C182 C177 1.370 . S
C182 C178 1.389 . S
C182 H233 0.931 . S
Co183 N167 1.869 . S
Co183 N184 1.955 . S
Co183 N185 1.864 . S
Co183 N191 1.958 . S
Co183 N192 1.953 . S
Co183 N193 1.974 . S
N184 Co183 1.955 . S
N184 C202 1.329 . S
N184 C217 1.432 . S
N185 Co183 1.864 . S
N185 C186 1.327 . S
N185 C190 1.342 . S
C186 N185 1.327 . S
C186 C187 1.407 . S
C186 C202 1.481 . S
C187 C186 1.407 . S
C187 C188 1.364 . S
C187 H234 0.930 . S
C188 C187 1.364 . S
C188 C189 1.390 . S
C188 H235 0.931 . S
C189 C188 1.390 . S
C189 C190 1.346 . S
C189 H236 0.930 . S
C190 N185 1.342 . S
C190 C189 1.346 . S
C190 C206 1.516 . S
N191 Co183 1.958 . S
N191 C206 1.324 . S
N191 C208 1.427 . S
N192 C168 1.316 . S
N192 C169 1.436 . S
N192 Co183 1.953 . S
N193 C177 1.423 . S
N193 Co183 1.974 . S
N193 C223 1.309 . S
O194 Cd176 2.352 . S
O194 C214 1.235 . S
O195 Cd175 2.329 . S
O195 C214 1.270 . S
C196 O197 1.270 . S
C196 O198 1.248 . S
O197 Cd175 2.350 . S
O197 C196 1.270 . S
O198 Cd175 2.277 . S
O198 C196 1.248 . S
C199 O200 1.277 . S
C199 O201 1.230 . S
O200 Cd175 2.173 . S
O200 C199 1.277 . S
O201 Cd176 2.250 . S
O201 C199 1.230 . S
C202 N184 1.329 . S
C202 C186 1.481 . S
C202 O203 1.246 . S
O203 C202 1.246 . S
O204 Cd175 2.263 . S
O204 C216 1.258 . S
O205 Cd176 2.308 . S
O205 C216 1.274 . S
C206 C190 1.516 . S
C206 N191 1.324 . S
C206 O207 1.238 . S
O207 C206 1.238 . S
C208 N191 1.427 . S
C208 C209 1.394 . S
C208 C213 1.395 . S
C209 C208 1.394 . S
C209 C210 1.380 . S
C209 H237 0.929 . S
C210 C209 1.380 . S
C210 C211 1.384 . S
C210 C216 1.495 . S
C211 C210 1.384 . S
C211 C212 1.382 . S
C211 H238 0.930 . S
C212 C211 1.382 . S
C212 C213 1.398 . S
C213 C208 1.395 . S
C213 C212 1.398 . S
C213 H239 0.930 . S
C214 O194 1.235 . S
C214 O195 1.270 . S
O215 C168 1.263 . S
O215 Cd175 2.366 . S
C216 O204 1.258 . S
C216 O205 1.274 . S
C216 C210 1.495 . S
C217 N184 1.432 . S
C217 C218 1.381 . S
C217 C222 1.385 . S
C218 C217 1.381 . S
C218 C219 1.371 . S
C218 H240 0.932 . S
C219 C218 1.371 . S
C219 C220 1.400 . S
C220 C219 1.400 . S
C220 C221 1.351 . S
C220 H241 0.930 . S
C221 C220 1.351 . S
C221 C222 1.388 . S
C222 C217 1.385 . S
C222 C221 1.388 . S
C222 H242 0.929 . S
C223 C162 1.504 . S
C223 N193 1.309 . S
C223 O224 1.258 . S
O224 C223 1.258 . S
H225 C163 0.929 . S
H226 C164 0.932 . S
H227 C165 0.931 . S
H228 C170 0.929 . S
H229 C172 0.929 . S
H230 C174 0.931 . S
H231 C179 0.929 . S
H232 C181 0.932 . S
H233 C182 0.931 . S
H234 C187 0.930 . S
H235 C188 0.931 . S
H236 C189 0.930 . S
H237 C209 0.929 . S
H238 C211 0.930 . S
H239 C213 0.930 . S
H240 C218 0.932 . S
H241 C220 0.930 . S
H242 C222 0.929 . S
C243 C244 1.359 . S
C243 N248 1.330 . S
C243 C304 1.504 . S
C244 C243 1.359 . S
C244 C245 1.366 . S
C244 H306 0.929 . S
C245 C244 1.366 . S
C245 C246 1.415 . S
C245 H307 0.932 . S
C246 C245 1.415 . S
C246 C247 1.366 . S
C246 H308 0.931 . S
C247 C246 1.366 . S
C247 N248 1.325 . S
C247 C249 1.516 . S
N248 C243 1.330 . S
N248 C247 1.325 . S
N248 Co264 1.869 . S
C249 C247 1.516 . S
C249 N273 1.316 . S
C249 O296 1.263 . S
C250 C251 1.421 . S
C250 C255 1.360 . S
C250 N273 1.436 . S
C251 C250 1.421 . S
C251 C252 1.379 . S
C251 H309 0.929 . S
C252 C251 1.379 . S
C252 C253 1.417 . S
C253 C252 1.417 . S
C253 C254 1.352 . S
C253 H310 0.929 . S
C254 C253 1.352 . S
C254 C255 1.393 . S
C255 C250 1.360 . S
C255 C254 1.393 . S
C255 H311 0.931 . S
Cd256 O276 2.329 . S
Cd256 O278 2.350 . S
Cd256 O279 2.277 . S
Cd256 O281 2.173 . S
Cd256 O285 2.263 . S
Cd256 O296 2.366 . S
Cd257 O275 2.352 . S
Cd257 O282 2.250 . S
Cd257 O286 2.308 . S
C258 C262 1.403 . S
C258 C263 1.370 . S
C258 N274 1.423 . S
C259 C260 1.389 . S
C259 C263 1.389 . S
C260 C259 1.389 . S
C260 C261 1.379 . S
C260 H312 0.929 . S
C261 C260 1.379 . S
C261 C262 1.405 . S
C262 C258 1.403 . S
C262 C261 1.405 . S
C262 H313 0.932 . S
C263 C258 1.370 . S
C263 C259 1.389 . S
C263 H314 0.931 . S
Co264 N248 1.869 . S
Co264 N265 1.955 . S
Co264 N266 1.864 . S
Co264 N272 1.958 . S
Co264 N273 1.953 . S
Co264 N274 1.974 . S
N265 Co264 1.955 . S
N265 C283 1.329 . S
N265 C298 1.432 . S
N266 Co264 1.864 . S
N266 C267 1.327 . S
N266 C271 1.342 . S
C267 N266 1.327 . S
C267 C268 1.407 . S
C267 C283 1.481 . S
C268 C267 1.407 . S
C268 C269 1.364 . S
C268 H315 0.930 . S
C269 C268 1.364 . S
C269 C270 1.390 . S
C269 H316 0.931 . S
C270 C269 1.390 . S
C270 C271 1.346 . S
C270 H317 0.930 . S
C271 N266 1.342 . S
C271 C270 1.346 . S
C271 C287 1.516 . S
N272 Co264 1.958 . S
N272 C287 1.324 . S
N272 C289 1.427 . S
N273 C249 1.316 . S
N273 C250 1.436 . S
N273 Co264 1.953 . S
N274 C258 1.423 . S
N274 Co264 1.974 . S
N274 C304 1.309 . S
O275 Cd257 2.352 . S
O275 C295 1.235 . S
O276 Cd256 2.329 . S
O276 C295 1.270 . S
C277 O278 1.270 . S
C277 O279 1.248 . S
O278 Cd256 2.350 . S
O278 C277 1.270 . S
O279 Cd256 2.277 . S
O279 C277 1.248 . S
C280 O281 1.277 . S
C280 O282 1.230 . S
O281 Cd256 2.173 . S
O281 C280 1.277 . S
O282 Cd257 2.250 . S
O282 C280 1.230 . S
C283 N265 1.329 . S
C283 C267 1.481 . S
C283 O284 1.246 . S
O284 C283 1.246 . S
O285 Cd256 2.263 . S
O285 C297 1.258 . S
O286 Cd257 2.308 . S
O286 C297 1.274 . S
C287 C271 1.516 . S
C287 N272 1.324 . S
C287 O288 1.238 . S
O288 C287 1.238 . S
C289 N272 1.427 . S
C289 C290 1.394 . S
C289 C294 1.395 . S
C290 C289 1.394 . S
C290 C291 1.380 . S
C290 H318 0.929 . S
C291 C290 1.380 . S
C291 C292 1.384 . S
C291 C297 1.495 . S
C292 C291 1.384 . S
C292 C293 1.382 . S
C292 H319 0.930 . S
C293 C292 1.382 . S
C293 C294 1.398 . S
C294 C289 1.395 . S
C294 C293 1.398 . S
C294 H320 0.930 . S
C295 O275 1.235 . S
C295 O276 1.270 . S
O296 C249 1.263 . S
O296 Cd256 2.366 . S
C297 O285 1.258 . S
C297 O286 1.274 . S
C297 C291 1.495 . S
C298 N265 1.432 . S
C298 C299 1.381 . S
C298 C303 1.385 . S
C299 C298 1.381 . S
C299 C300 1.371 . S
C299 H321 0.932 . S
C300 C299 1.371 . S
C300 C301 1.400 . S
C301 C300 1.400 . S
C301 C302 1.351 . S
C301 H322 0.930 . S
C302 C301 1.351 . S
C302 C303 1.388 . S
C303 C298 1.385 . S
C303 C302 1.388 . S
C303 H323 0.929 . S
C304 C243 1.504 . S
C304 N274 1.309 . S
C304 O305 1.258 . S
O305 C304 1.258 . S
H306 C244 0.929 . S
H307 C245 0.932 . S
H308 C246 0.931 . S
H309 C251 0.929 . S
H310 C253 0.929 . S
H311 C255 0.931 . S
H312 C260 0.929 . S
H313 C262 0.932 . S
H314 C263 0.931 . S
H315 C268 0.930 . S
H316 C269 0.931 . S
H317 C270 0.930 . S
H318 C290 0.929 . S
H319 C292 0.930 . S
H320 C294 0.930 . S
H321 C299 0.932 . S
H322 C301 0.930 . S
H323 C303 0.929 . S
C324 C325 1.359 . S
C324 N329 1.330 . S
C324 C385 1.504 . S
C325 C324 1.359 . S
C325 C326 1.366 . S
C325 H387 0.929 . S
C326 C325 1.366 . S
C326 C327 1.415 . S
C326 H388 0.932 . S
C327 C326 1.415 . S
C327 C328 1.366 . S
C327 H389 0.931 . S
C328 C327 1.366 . S
C328 N329 1.325 . S
C328 C330 1.516 . S
N329 C324 1.330 . S
N329 C328 1.325 . S
N329 Co345 1.869 . S
C330 C328 1.516 . S
C330 N354 1.316 . S
C330 O377 1.263 . S
C331 C332 1.421 . S
C331 C336 1.360 . S
C331 N354 1.436 . S
C332 C331 1.421 . S
C332 C333 1.379 . S
C332 H390 0.929 . S
C333 C332 1.379 . S
C333 C334 1.417 . S
C334 C333 1.417 . S
C334 C335 1.352 . S
C334 H391 0.929 . S
C335 C334 1.352 . S
C335 C336 1.393 . S
C336 C331 1.360 . S
C336 C335 1.393 . S
C336 H392 0.931 . S
Cd337 O357 2.329 . S
Cd337 O359 2.350 . S
Cd337 O360 2.277 . S
Cd337 O362 2.173 . S
Cd337 O366 2.263 . S
Cd337 O377 2.366 . S
Cd338 O356 2.352 . S
Cd338 O363 2.250 . S
Cd338 O367 2.308 . S
C339 C343 1.403 . S
C339 C344 1.370 . S
C339 N355 1.423 . S
C340 C341 1.389 . S
C340 C344 1.389 . S
C341 C340 1.389 . S
C341 C342 1.379 . S
C341 H393 0.929 . S
C342 C341 1.379 . S
C342 C343 1.405 . S
C343 C339 1.403 . S
C343 C342 1.405 . S
C343 H394 0.932 . S
C344 C339 1.370 . S
C344 C340 1.389 . S
C344 H395 0.931 . S
Co345 N329 1.869 . S
Co345 N346 1.955 . S
Co345 N347 1.864 . S
Co345 N353 1.958 . S
Co345 N354 1.953 . S
Co345 N355 1.974 . S
N346 Co345 1.955 . S
N346 C364 1.329 . S
N346 C379 1.432 . S
N347 Co345 1.864 . S
N347 C348 1.327 . S
N347 C352 1.342 . S
C348 N347 1.327 . S
C348 C349 1.407 . S
C348 C364 1.481 . S
C349 C348 1.407 . S
C349 C350 1.364 . S
C349 H396 0.930 . S
C350 C349 1.364 . S
C350 C351 1.390 . S
C350 H397 0.931 . S
C351 C350 1.390 . S
C351 C352 1.346 . S
C351 H398 0.930 . S
C352 N347 1.342 . S
C352 C351 1.346 . S
C352 C368 1.516 . S
N353 Co345 1.958 . S
N353 C368 1.324 . S
N353 C370 1.427 . S
N354 C330 1.316 . S
N354 C331 1.436 . S
N354 Co345 1.953 . S
N355 C339 1.423 . S
N355 Co345 1.974 . S
N355 C385 1.309 . S
O356 Cd338 2.352 . S
O356 C376 1.235 . S
O357 Cd337 2.329 . S
O357 C376 1.270 . S
C358 O359 1.270 . S
C358 O360 1.248 . S
O359 Cd337 2.350 . S
O359 C358 1.270 . S
O360 Cd337 2.277 . S
O360 C358 1.248 . S
C361 O362 1.277 . S
C361 O363 1.230 . S
O362 Cd337 2.173 . S
O362 C361 1.277 . S
O363 Cd338 2.250 . S
O363 C361 1.230 . S
C364 N346 1.329 . S
C364 C348 1.481 . S
C364 O365 1.246 . S
O365 C364 1.246 . S
O366 Cd337 2.263 . S
O366 C378 1.258 . S
O367 Cd338 2.308 . S
O367 C378 1.274 . S
C368 C352 1.516 . S
C368 N353 1.324 . S
C368 O369 1.238 . S
O369 C368 1.238 . S
C370 N353 1.427 . S
C370 C371 1.394 . S
C370 C375 1.395 . S
C371 C370 1.394 . S
C371 C372 1.380 . S
C371 H399 0.929 . S
C372 C371 1.380 . S
C372 C373 1.384 . S
C372 C378 1.495 . S
C373 C372 1.384 . S
C373 C374 1.382 . S
C373 H400 0.930 . S
C374 C373 1.382 . S
C374 C375 1.398 . S
C375 C370 1.395 . S
C375 C374 1.398 . S
C375 H401 0.930 . S
C376 O356 1.235 . S
C376 O357 1.270 . S
O377 C330 1.263 . S
O377 Cd337 2.366 . S
C378 O366 1.258 . S
C378 O367 1.274 . S
C378 C372 1.495 . S
C379 N346 1.432 . S
C379 C380 1.381 . S
C379 C384 1.385 . S
C380 C379 1.381 . S
C380 C381 1.371 . S
C380 H402 0.932 . S
C381 C380 1.371 . S
C381 C382 1.400 . S
C382 C381 1.400 . S
C382 C383 1.351 . S
C382 H403 0.930 . S
C383 C382 1.351 . S
C383 C384 1.388 . S
C384 C379 1.385 . S
C384 C383 1.388 . S
C384 H404 0.929 . S
C385 C324 1.504 . S
C385 N355 1.309 . S
C385 O386 1.258 . S
O386 C385 1.258 . S
H387 C325 0.929 . S
H388 C326 0.932 . S
H389 C327 0.931 . S
H390 C332 0.929 . S
H391 C334 0.929 . S
H392 C336 0.931 . S
H393 C341 0.929 . S
H394 C343 0.932 . S
H395 C344 0.931 . S
H396 C349 0.930 . S
H397 C350 0.931 . S
H398 C351 0.930 . S
H399 C371 0.929 . S
H400 C373 0.930 . S
H401 C375 0.930 . S
H402 C380 0.932 . S
H403 C382 0.930 . S
H404 C384 0.929 . S
C405 C406 1.359 . S
C405 N410 1.330 . S
C405 C466 1.504 . S
C406 C405 1.359 . S
C406 C407 1.366 . S
C406 H468 0.929 . S
C407 C406 1.366 . S
C407 C408 1.415 . S
C407 H469 0.932 . S
C408 C407 1.415 . S
C408 C409 1.366 . S
C408 H470 0.931 . S
C409 C408 1.366 . S
C409 N410 1.325 . S
C409 C411 1.516 . S
N410 C405 1.330 . S
N410 C409 1.325 . S
N410 Co426 1.869 . S
C411 C409 1.516 . S
C411 N435 1.316 . S
C411 O458 1.263 . S
C412 C413 1.421 . S
C412 C417 1.360 . S
C412 N435 1.436 . S
C413 C412 1.421 . S
C413 C414 1.379 . S
C413 H471 0.929 . S
C414 C413 1.379 . S
C414 C415 1.417 . S
C415 C414 1.417 . S
C415 C416 1.352 . S
C415 H472 0.929 . S
C416 C415 1.352 . S
C416 C417 1.393 . S
C417 C412 1.360 . S
C417 C416 1.393 . S
C417 H473 0.931 . S
Cd418 O438 2.329 . S
Cd418 O440 2.350 . S
Cd418 O441 2.277 . S
Cd418 O443 2.173 . S
Cd418 O447 2.263 . S
Cd418 O458 2.366 . S
Cd419 O437 2.352 . S
Cd419 O444 2.250 . S
Cd419 O448 2.308 . S
C420 C424 1.403 . S
C420 C425 1.370 . S
C420 N436 1.423 . S
C421 C422 1.389 . S
C421 C425 1.389 . S
C422 C421 1.389 . S
C422 C423 1.379 . S
C422 H474 0.929 . S
C423 C422 1.379 . S
C423 C424 1.405 . S
C424 C420 1.403 . S
C424 C423 1.405 . S
C424 H475 0.932 . S
C425 C420 1.370 . S
C425 C421 1.389 . S
C425 H476 0.931 . S
Co426 N410 1.869 . S
Co426 N427 1.955 . S
Co426 N428 1.864 . S
Co426 N434 1.958 . S
Co426 N435 1.953 . S
Co426 N436 1.974 . S
N427 Co426 1.955 . S
N427 C445 1.329 . S
N427 C460 1.432 . S
N428 Co426 1.864 . S
N428 C429 1.327 . S
N428 C433 1.342 . S
C429 N428 1.327 . S
C429 C430 1.407 . S
C429 C445 1.481 . S
C430 C429 1.407 . S
C430 C431 1.364 . S
C430 H477 0.930 . S
C431 C430 1.364 . S
C431 C432 1.390 . S
C431 H478 0.931 . S
C432 C431 1.390 . S
C432 C433 1.346 . S
C432 H479 0.930 . S
C433 N428 1.342 . S
C433 C432 1.346 . S
C433 C449 1.516 . S
N434 Co426 1.958 . S
N434 C449 1.324 . S
N434 C451 1.427 . S
N435 C411 1.316 . S
N435 C412 1.436 . S
N435 Co426 1.953 . S
N436 C420 1.423 . S
N436 Co426 1.974 . S
N436 C466 1.309 . S
O437 Cd419 2.352 . S
O437 C457 1.235 . S
O438 Cd418 2.329 . S
O438 C457 1.270 . S
C439 O440 1.270 . S
C439 O441 1.248 . S
O440 Cd418 2.350 . S
O440 C439 1.270 . S
O441 Cd418 2.277 . S
O441 C439 1.248 . S
C442 O443 1.277 . S
C442 O444 1.230 . S
O443 Cd418 2.173 . S
O443 C442 1.277 . S
O444 Cd419 2.250 . S
O444 C442 1.230 . S
C445 N427 1.329 . S
C445 C429 1.481 . S
C445 O446 1.246 . S
O446 C445 1.246 . S
O447 Cd418 2.263 . S
O447 C459 1.258 . S
O448 Cd419 2.308 . S
O448 C459 1.274 . S
C449 C433 1.516 . S
C449 N434 1.324 . S
C449 O450 1.238 . S
O450 C449 1.238 . S
C451 N434 1.427 . S
C451 C452 1.394 . S
C451 C456 1.395 . S
C452 C451 1.394 . S
C452 C453 1.380 . S
C452 H480 0.929 . S
C453 C452 1.380 . S
C453 C454 1.384 . S
C453 C459 1.495 . S
C454 C453 1.384 . S
C454 C455 1.382 . S
C454 H481 0.930 . S
C455 C454 1.382 . S
C455 C456 1.398 . S
C456 C451 1.395 . S
C456 C455 1.398 . S
C456 H482 0.930 . S
C457 O437 1.235 . S
C457 O438 1.270 . S
O458 C411 1.263 . S
O458 Cd418 2.366 . S
C459 O447 1.258 . S
C459 O448 1.274 . S
C459 C453 1.495 . S
C460 N427 1.432 . S
C460 C461 1.381 . S
C460 C465 1.385 . S
C461 C460 1.381 . S
C461 C462 1.371 . S
C461 H483 0.932 . S
C462 C461 1.371 . S
C462 C463 1.400 . S
C463 C462 1.400 . S
C463 C464 1.351 . S
C463 H484 0.930 . S
C464 C463 1.351 . S
C464 C465 1.388 . S
C465 C460 1.385 . S
C465 C464 1.388 . S
C465 H485 0.929 . S
C466 C405 1.504 . S
C466 N436 1.309 . S
C466 O467 1.258 . S
O467 C466 1.258 . S
H468 C406 0.929 . S
H469 C407 0.932 . S
H470 C408 0.931 . S
H471 C413 0.929 . S
H472 C415 0.929 . S
H473 C417 0.931 . S
H474 C422 0.929 . S
H475 C424 0.932 . S
H476 C425 0.931 . S
H477 C430 0.930 . S
H478 C431 0.931 . S
H479 C432 0.930 . S
H480 C452 0.929 . S
H481 C454 0.930 . S
H482 C456 0.930 . S
H483 C461 0.932 . S
H484 C463 0.930 . S
H485 C465 0.929 . S
C486 C487 1.359 . S
C486 N491 1.330 . S
C486 C547 1.504 . S
C487 C486 1.359 . S
C487 C488 1.366 . S
C487 H549 0.929 . S
C488 C487 1.366 . S
C488 C489 1.415 . S
C488 H550 0.932 . S
C489 C488 1.415 . S
C489 C490 1.366 . S
C489 H551 0.931 . S
C490 C489 1.366 . S
C490 N491 1.325 . S
C490 C492 1.516 . S
N491 C486 1.330 . S
N491 C490 1.325 . S
N491 Co507 1.869 . S
C492 C490 1.516 . S
C492 N516 1.316 . S
C492 O539 1.263 . S
C493 C494 1.421 . S
C493 C498 1.360 . S
C493 N516 1.436 . S
C494 C493 1.421 . S
C494 C495 1.379 . S
C494 H552 0.929 . S
C495 C494 1.379 . S
C495 C496 1.417 . S
C496 C495 1.417 . S
C496 C497 1.352 . S
C496 H553 0.929 . S
C497 C496 1.352 . S
C497 C498 1.393 . S
C498 C493 1.360 . S
C498 C497 1.393 . S
C498 H554 0.931 . S
Cd499 O519 2.329 . S
Cd499 O521 2.350 . S
Cd499 O522 2.277 . S
Cd499 O524 2.173 . S
Cd499 O528 2.263 . S
Cd499 O539 2.366 . S
Cd500 O518 2.352 . S
Cd500 O525 2.250 . S
Cd500 O529 2.308 . S
C501 C505 1.403 . S
C501 C506 1.370 . S
C501 N517 1.423 . S
C502 C503 1.389 . S
C502 C506 1.389 . S
C503 C502 1.389 . S
C503 C504 1.379 . S
C503 H555 0.929 . S
C504 C503 1.379 . S
C504 C505 1.405 . S
C505 C501 1.403 . S
C505 C504 1.405 . S
C505 H556 0.932 . S
C506 C501 1.370 . S
C506 C502 1.389 . S
C506 H557 0.931 . S
Co507 N491 1.869 . S
Co507 N508 1.955 . S
Co507 N509 1.864 . S
Co507 N515 1.958 . S
Co507 N516 1.953 . S
Co507 N517 1.974 . S
N508 Co507 1.955 . S
N508 C526 1.329 . S
N508 C541 1.432 . S
N509 Co507 1.864 . S
N509 C510 1.327 . S
N509 C514 1.342 . S
C510 N509 1.327 . S
C510 C511 1.407 . S
C510 C526 1.481 . S
C511 C510 1.407 . S
C511 C512 1.364 . S
C511 H558 0.930 . S
C512 C511 1.364 . S
C512 C513 1.390 . S
C512 H559 0.931 . S
C513 C512 1.390 . S
C513 C514 1.346 . S
C513 H560 0.930 . S
C514 N509 1.342 . S
C514 C513 1.346 . S
C514 C530 1.516 . S
N515 Co507 1.958 . S
N515 C530 1.324 . S
N515 C532 1.427 . S
N516 C492 1.316 . S
N516 C493 1.436 . S
N516 Co507 1.953 . S
N517 C501 1.423 . S
N517 Co507 1.974 . S
N517 C547 1.309 . S
O518 Cd500 2.352 . S
O518 C538 1.235 . S
O519 Cd499 2.329 . S
O519 C538 1.270 . S
C520 O521 1.270 . S
C520 O522 1.248 . S
O521 Cd499 2.350 . S
O521 C520 1.270 . S
O522 Cd499 2.277 . S
O522 C520 1.248 . S
C523 O524 1.277 . S
C523 O525 1.230 . S
O524 Cd499 2.173 . S
O524 C523 1.277 . S
O525 Cd500 2.250 . S
O525 C523 1.230 . S
C526 N508 1.329 . S
C526 C510 1.481 . S
C526 O527 1.246 . S
O527 C526 1.246 . S
O528 Cd499 2.263 . S
O528 C540 1.258 . S
O529 Cd500 2.308 . S
O529 C540 1.274 . S
C530 C514 1.516 . S
C530 N515 1.324 . S
C530 O531 1.238 . S
O531 C530 1.238 . S
C532 N515 1.427 . S
C532 C533 1.394 . S
C532 C537 1.395 . S
C533 C532 1.394 . S
C533 C534 1.380 . S
C533 H561 0.929 . S
C534 C533 1.380 . S
C534 C535 1.384 . S
C534 C540 1.495 . S
C535 C534 1.384 . S
C535 C536 1.382 . S
C535 H562 0.930 . S
C536 C535 1.382 . S
C536 C537 1.398 . S
C537 C532 1.395 . S
C537 C536 1.398 . S
C537 H563 0.930 . S
C538 O518 1.235 . S
C538 O519 1.270 . S
O539 C492 1.263 . S
O539 Cd499 2.366 . S
C540 O528 1.258 . S
C540 O529 1.274 . S
C540 C534 1.495 . S
C541 N508 1.432 . S
C541 C542 1.381 . S
C541 C546 1.385 . S
C542 C541 1.381 . S
C542 C543 1.371 . S
C542 H564 0.932 . S
C543 C542 1.371 . S
C543 C544 1.400 . S
C544 C543 1.400 . S
C544 C545 1.351 . S
C544 H565 0.930 . S
C545 C544 1.351 . S
C545 C546 1.388 . S
C546 C541 1.385 . S
C546 C545 1.388 . S
C546 H566 0.929 . S
C547 C486 1.504 . S
C547 N517 1.309 . S
C547 O548 1.258 . S
O548 C547 1.258 . S
H549 C487 0.929 . S
H550 C488 0.932 . S
H551 C489 0.931 . S
H552 C494 0.929 . S
H553 C496 0.929 . S
H554 C498 0.931 . S
H555 C503 0.929 . S
H556 C505 0.932 . S
H557 C506 0.931 . S
H558 C511 0.930 . S
H559 C512 0.931 . S
H560 C513 0.930 . S
H561 C533 0.929 . S
H562 C535 0.930 . S
H563 C537 0.930 . S
H564 C542 0.932 . S
H565 C544 0.930 . S
H566 C546 0.929 . S
C567 C568 1.359 . S
C567 N572 1.330 . S
C567 C628 1.504 . S
C568 C567 1.359 . S
C568 C569 1.366 . S
C568 H630 0.929 . S
C569 C568 1.366 . S
C569 C570 1.415 . S
C569 H631 0.932 . S
C570 C569 1.415 . S
C570 C571 1.366 . S
C570 H632 0.931 . S
C571 C570 1.366 . S
C571 N572 1.325 . S
C571 C573 1.516 . S
N572 C567 1.330 . S
N572 C571 1.325 . S
N572 Co588 1.869 . S
C573 C571 1.516 . S
C573 N597 1.316 . S
C573 O620 1.263 . S
C574 C575 1.421 . S
C574 C579 1.360 . S
C574 N597 1.436 . S
C575 C574 1.421 . S
C575 C576 1.379 . S
C575 H633 0.929 . S
C576 C575 1.379 . S
C576 C577 1.417 . S
C577 C576 1.417 . S
C577 C578 1.352 . S
C577 H634 0.929 . S
C578 C577 1.352 . S
C578 C579 1.393 . S
C579 C574 1.360 . S
C579 C578 1.393 . S
C579 H635 0.931 . S
Cd580 O600 2.329 . S
Cd580 O602 2.350 . S
Cd580 O603 2.277 . S
Cd580 O605 2.173 . S
Cd580 O609 2.263 . S
Cd580 O620 2.366 . S
Cd581 O599 2.352 . S
Cd581 O606 2.250 . S
Cd581 O610 2.308 . S
C582 C586 1.403 . S
C582 C587 1.370 . S
C582 N598 1.423 . S
C583 C584 1.389 . S
C583 C587 1.389 . S
C584 C583 1.389 . S
C584 C585 1.379 . S
C584 H636 0.929 . S
C585 C584 1.379 . S
C585 C586 1.405 . S
C586 C582 1.403 . S
C586 C585 1.405 . S
C586 H637 0.932 . S
C587 C582 1.370 . S
C587 C583 1.389 . S
C587 H638 0.931 . S
Co588 N572 1.869 . S
Co588 N589 1.955 . S
Co588 N590 1.864 . S
Co588 N596 1.958 . S
Co588 N597 1.953 . S
Co588 N598 1.974 . S
N589 Co588 1.955 . S
N589 C607 1.329 . S
N589 C622 1.432 . S
N590 Co588 1.864 . S
N590 C591 1.327 . S
N590 C595 1.342 . S
C591 N590 1.327 . S
C591 C592 1.407 . S
C591 C607 1.481 . S
C592 C591 1.407 . S
C592 C593 1.364 . S
C592 H639 0.930 . S
C593 C592 1.364 . S
C593 C594 1.390 . S
C593 H640 0.931 . S
C594 C593 1.390 . S
C594 C595 1.346 . S
C594 H641 0.930 . S
C595 N590 1.342 . S
C595 C594 1.346 . S
C595 C611 1.516 . S
N596 Co588 1.958 . S
N596 C611 1.324 . S
N596 C613 1.427 . S
N597 C573 1.316 . S
N597 C574 1.436 . S
N597 Co588 1.953 . S
N598 C582 1.423 . S
N598 Co588 1.974 . S
N598 C628 1.309 . S
O599 Cd581 2.352 . S
O599 C619 1.235 . S
O600 Cd580 2.329 . S
O600 C619 1.270 . S
C601 O602 1.270 . S
C601 O603 1.248 . S
O602 Cd580 2.350 . S
O602 C601 1.270 . S
O603 Cd580 2.277 . S
O603 C601 1.248 . S
C604 O605 1.277 . S
C604 O606 1.230 . S
O605 Cd580 2.173 . S
O605 C604 1.277 . S
O606 Cd581 2.250 . S
O606 C604 1.230 . S
C607 N589 1.329 . S
C607 C591 1.481 . S
C607 O608 1.246 . S
O608 C607 1.246 . S
O609 Cd580 2.263 . S
O609 C621 1.258 . S
O610 Cd581 2.308 . S
O610 C621 1.274 . S
C611 C595 1.516 . S
C611 N596 1.324 . S
C611 O612 1.238 . S
O612 C611 1.238 . S
C613 N596 1.427 . S
C613 C614 1.394 . S
C613 C618 1.395 . S
C614 C613 1.394 . S
C614 C615 1.380 . S
C614 H642 0.929 . S
C615 C614 1.380 . S
C615 C616 1.384 . S
C615 C621 1.495 . S
C616 C615 1.384 . S
C616 C617 1.382 . S
C616 H643 0.930 . S
C617 C616 1.382 . S
C617 C618 1.398 . S
C618 C613 1.395 . S
C618 C617 1.398 . S
C618 H644 0.930 . S
C619 O599 1.235 . S
C619 O600 1.270 . S
O620 C573 1.263 . S
O620 Cd580 2.366 . S
C621 O609 1.258 . S
C621 O610 1.274 . S
C621 C615 1.495 . S
C622 N589 1.432 . S
C622 C623 1.381 . S
C622 C627 1.385 . S
C623 C622 1.381 . S
C623 C624 1.371 . S
C623 H645 0.932 . S
C624 C623 1.371 . S
C624 C625 1.400 . S
C625 C624 1.400 . S
C625 C626 1.351 . S
C625 H646 0.930 . S
C626 C625 1.351 . S
C626 C627 1.388 . S
C627 C622 1.385 . S
C627 C626 1.388 . S
C627 H647 0.929 . S
C628 C567 1.504 . S
C628 N598 1.309 . S
C628 O629 1.258 . S
O629 C628 1.258 . S
H630 C568 0.929 . S
H631 C569 0.932 . S
H632 C570 0.931 . S
H633 C575 0.929 . S
H634 C577 0.929 . S
H635 C579 0.931 . S
H636 C584 0.929 . S
H637 C586 0.932 . S
H638 C587 0.931 . S
H639 C592 0.930 . S
H640 C593 0.931 . S
H641 C594 0.930 . S
H642 C614 0.929 . S
H643 C616 0.930 . S
H644 C618 0.930 . S
H645 C623 0.932 . S
H646 C625 0.930 . S
H647 C627 0.929 . S
C648 C649 1.359 . S
C648 N653 1.330 . S
C648 C709 1.504 . S
C649 C648 1.359 . S
C649 C650 1.366 . S
C649 H711 0.929 . S
C650 C649 1.366 . S
C650 C651 1.415 . S
C650 H712 0.932 . S
C651 C650 1.415 . S
C651 C652 1.366 . S
C651 H713 0.931 . S
C652 C651 1.366 . S
C652 N653 1.325 . S
C652 C654 1.516 . S
N653 C648 1.330 . S
N653 C652 1.325 . S
N653 Co669 1.869 . S
C654 C652 1.516 . S
C654 N678 1.316 . S
C654 O701 1.263 . S
C655 C656 1.421 . S
C655 C660 1.360 . S
C655 N678 1.436 . S
C656 C655 1.421 . S
C656 C657 1.379 . S
C656 H714 0.929 . S
C657 C656 1.379 . S
C657 C658 1.417 . S
C658 C657 1.417 . S
C658 C659 1.352 . S
C658 H715 0.929 . S
C659 C658 1.352 . S
C659 C660 1.393 . S
C660 C655 1.360 . S
C660 C659 1.393 . S
C660 H716 0.931 . S
Cd661 O681 2.329 . S
Cd661 O683 2.350 . S
Cd661 O684 2.277 . S
Cd661 O686 2.173 . S
Cd661 O690 2.263 . S
Cd661 O701 2.366 . S
Cd662 O680 2.352 . S
Cd662 O687 2.250 . S
Cd662 O691 2.308 . S
C663 C667 1.403 . S
C663 C668 1.370 . S
C663 N679 1.423 . S
C664 C665 1.389 . S
C664 C668 1.389 . S
C665 C664 1.389 . S
C665 C666 1.379 . S
C665 H717 0.929 . S
C666 C665 1.379 . S
C666 C667 1.405 . S
C667 C663 1.403 . S
C667 C666 1.405 . S
C667 H718 0.932 . S
C668 C663 1.370 . S
C668 C664 1.389 . S
C668 H719 0.931 . S
Co669 N653 1.869 . S
Co669 N670 1.955 . S
Co669 N671 1.864 . S
Co669 N677 1.958 . S
Co669 N678 1.953 . S
Co669 N679 1.974 . S
N670 Co669 1.955 . S
N670 C688 1.329 . S
N670 C703 1.432 . S
N671 Co669 1.864 . S
N671 C672 1.327 . S
N671 C676 1.342 . S
C672 N671 1.327 . S
C672 C673 1.407 . S
C672 C688 1.481 . S
C673 C672 1.407 . S
C673 C674 1.364 . S
C673 H720 0.930 . S
C674 C673 1.364 . S
C674 C675 1.390 . S
C674 H721 0.931 . S
C675 C674 1.390 . S
C675 C676 1.346 . S
C675 H722 0.930 . S
C676 N671 1.342 . S
C676 C675 1.346 . S
C676 C692 1.516 . S
N677 Co669 1.958 . S
N677 C692 1.324 . S
N677 C694 1.427 . S
N678 C654 1.316 . S
N678 C655 1.436 . S
N678 Co669 1.953 . S
N679 C663 1.423 . S
N679 Co669 1.974 . S
N679 C709 1.309 . S
O680 Cd662 2.352 . S
O680 C700 1.235 . S
O681 Cd661 2.329 . S
O681 C700 1.270 . S
C682 O683 1.270 . S
C682 O684 1.248 . S
O683 Cd661 2.350 . S
O683 C682 1.270 . S
O684 Cd661 2.277 . S
O684 C682 1.248 . S
C685 O686 1.277 . S
C685 O687 1.230 . S
O686 Cd661 2.173 . S
O686 C685 1.277 . S
O687 Cd662 2.250 . S
O687 C685 1.230 . S
C688 N670 1.329 . S
C688 C672 1.481 . S
C688 O689 1.246 . S
O689 C688 1.246 . S
O690 Cd661 2.263 . S
O690 C702 1.258 . S
O691 Cd662 2.308 . S
O691 C702 1.274 . S
C692 C676 1.516 . S
C692 N677 1.324 . S
C692 O693 1.238 . S
O693 C692 1.238 . S
C694 N677 1.427 . S
C694 C695 1.394 . S
C694 C699 1.395 . S
C695 C694 1.394 . S
C695 C696 1.380 . S
C695 H723 0.929 . S
C696 C695 1.380 . S
C696 C697 1.384 . S
C696 C702 1.495 . S
C697 C696 1.384 . S
C697 C698 1.382 . S
C697 H724 0.930 . S
C698 C697 1.382 . S
C698 C699 1.398 . S
C699 C694 1.395 . S
C699 C698 1.398 . S
C699 H725 0.930 . S
C700 O680 1.235 . S
C700 O681 1.270 . S
O701 C654 1.263 . S
O701 Cd661 2.366 . S
C702 O690 1.258 . S
C702 O691 1.274 . S
C702 C696 1.495 . S
C703 N670 1.432 . S
C703 C704 1.381 . S
C703 C708 1.385 . S
C704 C703 1.381 . S
C704 C705 1.371 . S
C704 H726 0.932 . S
C705 C704 1.371 . S
C705 C706 1.400 . S
C706 C705 1.400 . S
C706 C707 1.351 . S
C706 H727 0.930 . S
C707 C706 1.351 . S
C707 C708 1.388 . S
C708 C703 1.385 . S
C708 C707 1.388 . S
C708 H728 0.929 . S
C709 C648 1.504 . S
C709 N679 1.309 . S
C709 O710 1.258 . S
O710 C709 1.258 . S
H711 C649 0.929 . S
H712 C650 0.932 . S
H713 C651 0.931 . S
H714 C656 0.929 . S
H715 C658 0.929 . S
H716 C660 0.931 . S
H717 C665 0.929 . S
H718 C667 0.932 . S
H719 C668 0.931 . S
H720 C673 0.930 . S
H721 C674 0.931 . S
H722 C675 0.930 . S
H723 C695 0.929 . S
H724 C697 0.930 . S
H725 C699 0.930 . S
H726 C704 0.932 . S
H727 C706 0.930 . S
H728 C708 0.929 . S
C729 C730 1.359 . S
C729 N734 1.330 . S
C729 C790 1.504 . S
C730 C729 1.359 . S
C730 C731 1.366 . S
C730 H792 0.929 . S
C731 C730 1.366 . S
C731 C732 1.415 . S
C731 H793 0.932 . S
C732 C731 1.415 . S
C732 C733 1.366 . S
C732 H794 0.931 . S
C733 C732 1.366 . S
C733 N734 1.325 . S
C733 C735 1.558 . S
N734 C729 1.330 . S
N734 C733 1.325 . S
N734 Co750 1.845 1_545 S
C735 C733 1.558 . S
C735 N759 1.255 1_545 S
C735 O782 1.286 1_545 S
C736 C737 1.421 . S
C736 C741 1.360 . S
C736 N759 1.436 . S
C737 C736 1.421 . S
C737 C738 1.379 . S
C737 H795 0.929 . S
C738 C737 1.379 . S
C738 C739 1.417 . S
C739 C738 1.417 . S
C739 C740 1.352 . S
C739 H796 0.929 . S
C740 C739 1.352 . S
C740 C741 1.393 . S
C741 C736 1.360 . S
C741 C740 1.393 . S
C741 H797 0.931 . S
Cd742 O762 2.329 . S
Cd742 O764 2.350 . S
Cd742 O765 2.277 . S
Cd742 O767 2.173 1_565 S
Cd742 O771 2.263 . S
Cd742 O782 2.366 . S
Cd743 O761 2.352 . S
Cd743 O768 2.250 . S
Cd743 O772 2.308 . S
C744 C748 1.403 . S
C744 C749 1.368 . S
C744 N760 1.423 . S
C745 C746 1.389 1_565 S
C745 C749 1.390 1_565 S
C746 C745 1.389 1_545 S
C746 C747 1.379 . S
C746 H798 0.929 1_545 S
C747 C746 1.379 . S
C747 C748 1.405 . S
C748 C744 1.403 . S
C748 C747 1.405 . S
C748 H799 0.932 . S
C749 C744 1.368 . S
C749 C745 1.390 1_545 S
C749 H800 0.931 1_545 S
Co750 N734 1.845 1_565 S
Co750 N751 1.946 1_565 S
Co750 N752 1.889 . S
Co750 N758 1.974 . S
Co750 N759 1.950 . S
Co750 N760 1.969 1_565 S
N751 Co750 1.946 1_545 S
N751 C769 1.329 1_545 S
N751 C784 1.432 . S
N752 Co750 1.889 . S
N752 C753 1.327 . S
N752 C757 1.342 . S
C753 N752 1.327 . S
C753 C754 1.407 . S
C753 C769 1.481 . S
C754 C753 1.407 . S
C754 C755 1.364 . S
C754 H801 0.930 . S
C755 C754 1.364 . S
C755 C756 1.390 . S
C755 H802 0.931 . S
C756 C755 1.390 . S
C756 C757 1.346 . S
C756 H803 0.930 . S
C757 N752 1.342 . S
C757 C756 1.346 . S
C757 C773 1.516 . S
N758 Co750 1.974 . S
N758 C773 1.324 . S
N758 C775 1.427 . S
N759 C735 1.255 1_565 S
N759 C736 1.436 . S
N759 Co750 1.950 . S
N760 C744 1.423 . S
N760 Co750 1.969 1_545 S
N760 C790 1.309 . S
O761 Cd743 2.352 . S
O761 C781 1.235 1_545 S
O762 Cd742 2.329 . S
O762 C781 1.270 . S
C763 O764 1.270 . S
C763 O765 1.248 . S
O764 Cd742 2.350 . S
O764 C763 1.270 . S
O765 Cd742 2.277 . S
O765 C763 1.248 . S
C766 O767 1.277 . S
C766 O768 1.230 . S
O767 Cd742 2.173 1_545 S
O767 C766 1.277 . S
O768 Cd743 2.250 . S
O768 C766 1.230 . S
C769 N751 1.329 1_565 S
C769 C753 1.481 . S
C769 O770 1.246 . S
O770 C769 1.246 . S
O771 Cd742 2.263 . S
O771 C783 1.258 1_565 S
O772 Cd743 2.308 . S
O772 C783 1.274 . S
C773 C757 1.516 . S
C773 N758 1.324 . S
C773 O774 1.238 . S
O774 C773 1.238 . S
C775 N758 1.427 . S
C775 C776 1.394 . S
C775 C780 1.395 1_565 S
C776 C775 1.394 . S
C776 C777 1.380 1_565 S
C776 H804 0.929 . S
C777 C776 1.380 1_545 S
C777 C778 1.384 . S
C777 C783 1.495 . S
C778 C777 1.384 . S
C778 C779 1.382 . S
C778 H805 0.930 . S
C779 C778 1.382 . S
C779 C780 1.398 . S
C780 C775 1.395 1_545 S
C780 C779 1.398 . S
C780 H806 0.930 . S
C781 O761 1.235 1_565 S
C781 O762 1.270 . S
O782 C735 1.286 1_565 S
O782 Cd742 2.366 . S
C783 O771 1.258 1_545 S
C783 O772 1.274 . S
C783 C777 1.495 . S
C784 N751 1.432 . S
C784 C785 1.381 . S
C784 C789 1.385 . S
C785 C784 1.381 . S
C785 C786 1.371 . S
C785 H807 0.932 . S
C786 C785 1.371 . S
C786 C787 1.400 . S
C787 C786 1.400 . S
C787 C788 1.351 . S
C787 H808 0.930 . S
C788 C787 1.351 . S
C788 C789 1.388 . S
C789 C784 1.385 . S
C789 C788 1.388 . S
C789 H809 0.929 . S
C790 C729 1.504 . S
C790 N760 1.309 . S
C790 O791 1.258 . S
O791 C790 1.258 . S
H792 C730 0.929 . S
H793 C731 0.932 . S
H794 C732 0.931 . S
H795 C737 0.929 . S
H796 C739 0.929 . S
H797 C741 0.931 . S
H798 C746 0.929 1_565 S
H799 C748 0.932 . S
H800 C749 0.931 1_565 S
H801 C754 0.930 . S
H802 C755 0.931 . S
H803 C756 0.930 . S
H804 C776 0.929 . S
H805 C778 0.930 . S
H806 C780 0.930 . S
H807 C785 0.932 . S
H808 C787 0.930 . S
H809 C789 0.929 . S
C810 C811 1.359 . S
C810 N815 1.330 . S
C810 C871 1.504 . S
C811 C810 1.359 . S
C811 C812 1.366 . S
C811 H873 0.929 . S
C812 C811 1.366 . S
C812 C813 1.415 . S
C812 H874 0.932 . S
C813 C812 1.415 . S
C813 C814 1.366 . S
C813 H875 0.931 . S
C814 C813 1.366 . S
C814 N815 1.325 . S
C814 C816 1.586 . S
N815 C810 1.330 . S
N815 C814 1.325 . S
N815 Co831 1.855 1_655 S
C816 C814 1.586 . S
C816 N840 1.300 1_655 S
C816 O863 1.222 1_655 S
C817 C818 1.421 . S
C817 C822 1.360 . S
C817 N840 1.436 . S
C818 C817 1.421 . S
C818 C819 1.379 . S
C818 H876 0.929 . S
C819 C818 1.379 . S
C819 C820 1.417 . S
C820 C819 1.417 . S
C820 C821 1.352 . S
C820 H877 0.929 . S
C821 C820 1.352 . S
C821 C822 1.393 . S
C822 C817 1.360 . S
C822 C821 1.393 . S
C822 H878 0.931 . S
Cd823 O843 2.329 . S
Cd823 O845 2.350 . S
Cd823 O846 2.277 . S
Cd823 O848 2.173 1_455 S
Cd823 O852 2.263 . S
Cd823 O863 2.366 . S
Cd824 O842 2.352 . S
Cd824 O849 2.250 . S
Cd824 O853 2.308 . S
C825 C829 1.403 . S
C825 C830 1.369 . S
C825 N841 1.423 . S
C826 C827 1.389 1_455 S
C826 C830 1.389 1_455 S
C827 C826 1.389 1_655 S
C827 C828 1.379 . S
C827 H879 0.929 1_655 S
C828 C827 1.379 . S
C828 C829 1.405 . S
C829 C825 1.403 . S
C829 C828 1.405 . S
C829 H880 0.932 . S
C830 C825 1.369 . S
C830 C826 1.389 1_655 S
C830 H881 0.931 1_655 S
Co831 N815 1.855 1_455 S
Co831 N832 1.958 1_455 S
Co831 N833 1.879 . S
Co831 N839 1.960 . S
Co831 N840 1.974 . S
Co831 N841 1.948 1_455 S
N832 Co831 1.958 1_655 S
N832 C850 1.329 1_655 S
N832 C865 1.432 . S
N833 Co831 1.879 . S
N833 C834 1.327 . S
N833 C838 1.342 . S
C834 N833 1.327 . S
C834 C835 1.407 . S
C834 C850 1.481 . S
C835 C834 1.407 . S
C835 C836 1.364 . S
C835 H882 0.930 . S
C836 C835 1.364 . S
C836 C837 1.390 . S
C836 H883 0.931 . S
C837 C836 1.390 . S
C837 C838 1.346 . S
C837 H884 0.930 . S
C838 N833 1.342 . S
C838 C837 1.346 . S
C838 C854 1.516 . S
N839 Co831 1.960 . S
N839 C854 1.324 . S
N839 C856 1.427 . S
N840 C816 1.300 1_455 S
N840 C817 1.436 . S
N840 Co831 1.974 . S
N841 C825 1.423 . S
N841 Co831 1.948 1_655 S
N841 C871 1.309 . S
O842 Cd824 2.352 . S
O842 C862 1.235 1_655 S
O843 Cd823 2.329 . S
O843 C862 1.270 . S
C844 O845 1.270 . S
C844 O846 1.248 . S
O845 Cd823 2.350 . S
O845 C844 1.270 . S
O846 Cd823 2.277 . S
O846 C844 1.248 . S
C847 O848 1.277 . S
C847 O849 1.230 . S
O848 Cd823 2.173 1_655 S
O848 C847 1.277 . S
O849 Cd824 2.250 . S
O849 C847 1.230 . S
C850 N832 1.329 1_455 S
C850 C834 1.481 . S
C850 O851 1.246 . S
O851 C850 1.246 . S
O852 Cd823 2.263 . S
O852 C864 1.258 1_455 S
O853 Cd824 2.308 . S
O853 C864 1.274 . S
C854 C838 1.516 . S
C854 N839 1.324 . S
C854 O855 1.238 . S
O855 C854 1.238 . S
C856 N839 1.427 . S
C856 C857 1.394 . S
C856 C861 1.395 1_455 S
C857 C856 1.394 . S
C857 C858 1.380 1_455 S
C857 H885 0.929 . S
C858 C857 1.380 1_655 S
C858 C859 1.384 . S
C858 C864 1.495 . S
C859 C858 1.384 . S
C859 C860 1.382 . S
C859 H886 0.930 . S
C860 C859 1.382 . S
C860 C861 1.398 . S
C861 C856 1.395 1_655 S
C861 C860 1.398 . S
C861 H887 0.930 . S
C862 O842 1.235 1_455 S
C862 O843 1.270 . S
O863 C816 1.222 1_455 S
O863 Cd823 2.366 . S
C864 O852 1.258 1_655 S
C864 O853 1.274 . S
C864 C858 1.495 . S
C865 N832 1.432 . S
C865 C866 1.381 . S
C865 C870 1.385 . S
C866 C865 1.381 . S
C866 C867 1.371 . S
C866 H888 0.932 . S
C867 C866 1.371 . S
C867 C868 1.400 . S
C868 C867 1.400 . S
C868 C869 1.351 . S
C868 H889 0.930 . S
C869 C868 1.351 . S
C869 C870 1.388 . S
C870 C865 1.385 . S
C870 C869 1.388 . S
C870 H890 0.929 . S
C871 C810 1.504 . S
C871 N841 1.309 . S
C871 O872 1.258 . S
O872 C871 1.258 . S
H873 C811 0.929 . S
H874 C812 0.932 . S
H875 C813 0.931 . S
H876 C818 0.929 . S
H877 C820 0.929 . S
H878 C822 0.931 . S
H879 C827 0.929 1_455 S
H880 C829 0.932 . S
H881 C830 0.931 1_455 S
H882 C835 0.930 . S
H883 C836 0.931 . S
H884 C837 0.930 . S
H885 C857 0.929 . S
H886 C859 0.930 . S
H887 C861 0.930 . S
H888 C866 0.932 . S
H889 C868 0.930 . S
H890 C870 0.929 . S
C891 C892 1.359 . S
C891 N896 1.330 . S
C891 C952 1.504 . S
C892 C891 1.359 . S
C892 C893 1.366 . S
C892 H954 0.929 . S
C893 C892 1.366 . S
C893 C894 1.415 . S
C893 H955 0.932 . S
C894 C893 1.415 . S
C894 C895 1.366 . S
C894 H956 0.931 . S
C895 C894 1.366 . S
C895 N896 1.325 . S
C895 C897 1.516 . S
N896 C891 1.330 . S
N896 C895 1.325 . S
N896 Co912 1.869 . S
C897 C895 1.516 . S
C897 N921 1.316 . S
C897 O944 1.263 . S
C898 C899 1.421 . S
C898 C903 1.360 . S
C898 N921 1.436 . S
C899 C898 1.421 . S
C899 C900 1.379 . S
C899 H957 0.929 . S
C900 C899 1.379 . S
C900 C901 1.417 . S
C901 C900 1.417 . S
C901 C902 1.352 . S
C901 H958 0.929 . S
C902 C901 1.352 . S
C902 C903 1.393 . S
C903 C898 1.360 . S
C903 C902 1.393 . S
C903 H959 0.931 . S
Cd904 O924 2.329 . S
Cd904 O926 2.350 . S
Cd904 O927 2.277 . S
Cd904 O929 2.173 . S
Cd904 O933 2.263 . S
Cd904 O944 2.366 . S
Cd905 O923 2.352 . S
Cd905 O930 2.250 . S
Cd905 O934 2.308 . S
C906 C910 1.403 . S
C906 C911 1.370 . S
C906 N922 1.423 . S
C907 C908 1.389 . S
C907 C911 1.389 . S
C908 C907 1.389 . S
C908 C909 1.379 . S
C908 H960 0.929 . S
C909 C908 1.379 . S
C909 C910 1.405 . S
C910 C906 1.403 . S
C910 C909 1.405 . S
C910 H961 0.932 . S
C911 C906 1.370 . S
C911 C907 1.389 . S
C911 H962 0.931 . S
Co912 N896 1.869 . S
Co912 N913 1.955 . S
Co912 N914 1.864 . S
Co912 N920 1.958 . S
Co912 N921 1.953 . S
Co912 N922 1.974 . S
N913 Co912 1.955 . S
N913 C931 1.329 . S
N913 C946 1.432 . S
N914 Co912 1.864 . S
N914 C915 1.327 . S
N914 C919 1.342 . S
C915 N914 1.327 . S
C915 C916 1.407 . S
C915 C931 1.481 . S
C916 C915 1.407 . S
C916 C917 1.364 . S
C916 H963 0.930 . S
C917 C916 1.364 . S
C917 C918 1.390 . S
C917 H964 0.931 . S
C918 C917 1.390 . S
C918 C919 1.346 . S
C918 H965 0.930 . S
C919 N914 1.342 . S
C919 C918 1.346 . S
C919 C935 1.516 . S
N920 Co912 1.958 . S
N920 C935 1.324 . S
N920 C937 1.427 . S
N921 C897 1.316 . S
N921 C898 1.436 . S
N921 Co912 1.953 . S
N922 C906 1.423 . S
N922 Co912 1.974 . S
N922 C952 1.309 . S
O923 Cd905 2.352 . S
O923 C943 1.235 . S
O924 Cd904 2.329 . S
O924 C943 1.270 . S
C925 O926 1.270 . S
C925 O927 1.248 . S
O926 Cd904 2.350 . S
O926 C925 1.270 . S
O927 Cd904 2.277 . S
O927 C925 1.248 . S
C928 O929 1.277 . S
C928 O930 1.230 . S
O929 Cd904 2.173 . S
O929 C928 1.277 . S
O930 Cd905 2.250 . S
O930 C928 1.230 . S
C931 N913 1.329 . S
C931 C915 1.481 . S
C931 O932 1.246 . S
O932 C931 1.246 . S
O933 Cd904 2.263 . S
O933 C945 1.258 . S
O934 Cd905 2.308 . S
O934 C945 1.274 . S
C935 C919 1.516 . S
C935 N920 1.324 . S
C935 O936 1.238 . S
O936 C935 1.238 . S
C937 N920 1.427 . S
C937 C938 1.394 . S
C937 C942 1.395 . S
C938 C937 1.394 . S
C938 C939 1.380 . S
C938 H966 0.929 . S
C939 C938 1.380 . S
C939 C940 1.384 . S
C939 C945 1.495 . S
C940 C939 1.384 . S
C940 C941 1.382 . S
C940 H967 0.930 . S
C941 C940 1.382 . S
C941 C942 1.398 . S
C942 C937 1.395 . S
C942 C941 1.398 . S
C942 H968 0.930 . S
C943 O923 1.235 . S
C943 O924 1.270 . S
O944 C897 1.263 . S
O944 Cd904 2.366 . S
C945 O933 1.258 . S
C945 O934 1.274 . S
C945 C939 1.495 . S
C946 N913 1.432 . S
C946 C947 1.381 . S
C946 C951 1.385 . S
C947 C946 1.381 . S
C947 C948 1.371 . S
C947 H969 0.932 . S
C948 C947 1.371 . S
C948 C949 1.400 . S
C949 C948 1.400 . S
C949 C950 1.351 . S
C949 H970 0.930 . S
C950 C949 1.351 . S
C950 C951 1.388 . S
C951 C946 1.385 . S
C951 C950 1.388 . S
C951 H971 0.929 . S
C952 C891 1.504 . S
C952 N922 1.309 . S
C952 O953 1.258 . S
O953 C952 1.258 . S
H954 C892 0.929 . S
H955 C893 0.932 . S
H956 C894 0.931 . S
H957 C899 0.929 . S
H958 C901 0.929 . S
H959 C903 0.931 . S
H960 C908 0.929 . S
H961 C910 0.932 . S
H962 C911 0.931 . S
H963 C916 0.930 . S
H964 C917 0.931 . S
H965 C918 0.930 . S
H966 C938 0.929 . S
H967 C940 0.930 . S
H968 C942 0.930 . S
H969 C947 0.932 . S
H970 C949 0.930 . S
H971 C951 0.929 . S
C972 C973 1.359 . S
C972 N977 1.330 . S
C972 C1033 1.504 . S
C973 C972 1.359 . S
C973 C974 1.366 . S
C973 H1035 0.929 . S
C974 C973 1.366 . S
C974 C975 1.415 . S
C974 H1036 0.932 . S
C975 C974 1.415 . S
C975 C976 1.366 . S
C975 H1037 0.931 . S
C976 C975 1.366 . S
C976 N977 1.325 . S
C976 C978 1.558 . S
N977 C972 1.330 . S
N977 C976 1.325 . S
N977 Co993 1.845 1_565 S
C978 C976 1.558 . S
C978 N1002 1.255 1_565 S
C978 O1025 1.286 1_565 S
C979 C980 1.421 . S
C979 C984 1.360 . S
C979 N1002 1.436 . S
C980 C979 1.421 . S
C980 C981 1.379 . S
C980 H1038 0.929 . S
C981 C980 1.379 . S
C981 C982 1.417 . S
C982 C981 1.417 . S
C982 C983 1.352 . S
C982 H1039 0.929 . S
C983 C982 1.352 . S
C983 C984 1.393 . S
C984 C979 1.360 . S
C984 C983 1.393 . S
C984 H1040 0.931 . S
Cd985 O1005 2.329 . S
Cd985 O1007 2.350 . S
Cd985 O1008 2.277 . S
Cd985 O1010 2.173 1_545 S
Cd985 O1014 2.263 . S
Cd985 O1025 2.366 . S
Cd986 O1004 2.352 . S
Cd986 O1011 2.250 . S
Cd986 O1015 2.308 . S
C987 C991 1.403 . S
C987 C992 1.368 . S
C987 N1003 1.423 . S
C988 C989 1.389 1_545 S
C988 C992 1.390 1_545 S
C989 C988 1.389 1_565 S
C989 C990 1.379 . S
C989 H1041 0.929 1_565 S
C990 C989 1.379 . S
C990 C991 1.405 . S
C991 C987 1.403 . S
C991 C990 1.405 . S
C991 H1042 0.932 . S
C992 C987 1.368 . S
C992 C988 1.390 1_565 S
C992 H1043 0.931 1_565 S
Co993 N977 1.845 1_545 S
Co993 N994 1.946 1_545 S
Co993 N995 1.889 . S
Co993 N1001 1.974 . S
Co993 N1002 1.950 . S
Co993 N1003 1.969 1_545 S
N994 Co993 1.946 1_565 S
N994 C1012 1.329 1_565 S
N994 C1027 1.432 . S
N995 Co993 1.889 . S
N995 C996 1.327 . S
N995 C1000 1.342 . S
C996 N995 1.327 . S
C996 C997 1.407 . S
C996 C1012 1.481 . S
C997 C996 1.407 . S
C997 C998 1.364 . S
C997 H1044 0.930 . S
C998 C997 1.364 . S
C998 C999 1.390 . S
C998 H1045 0.931 . S
C999 C998 1.390 . S
C999 C1000 1.346 . S
C999 H1046 0.930 . S
C1000 N995 1.342 . S
C1000 C999 1.346 . S
C1000 C1016 1.516 . S
N1001 Co993 1.974 . S
N1001 C1016 1.324 . S
N1001 C1018 1.427 . S
N1002 C978 1.255 1_545 S
N1002 C979 1.436 . S
N1002 Co993 1.950 . S
N1003 C987 1.423 . S
N1003 Co993 1.969 1_565 S
N1003 C1033 1.309 . S
O1004 Cd986 2.352 . S
O1004 C1024 1.235 1_565 S
O1005 Cd985 2.329 . S
O1005 C1024 1.270 . S
C1006 O1007 1.270 . S
C1006 O1008 1.248 . S
O1007 Cd985 2.350 . S
O1007 C1006 1.270 . S
O1008 Cd985 2.277 . S
O1008 C1006 1.248 . S
C1009 O1010 1.277 . S
C1009 O1011 1.230 . S
O1010 Cd985 2.173 1_565 S
O1010 C1009 1.277 . S
O1011 Cd986 2.250 . S
O1011 C1009 1.230 . S
C1012 N994 1.329 1_545 S
C1012 C996 1.481 . S
C1012 O1013 1.246 . S
O1013 C1012 1.246 . S
O1014 Cd985 2.263 . S
O1014 C1026 1.258 1_545 S
O1015 Cd986 2.308 . S
O1015 C1026 1.274 . S
C1016 C1000 1.516 . S
C1016 N1001 1.324 . S
C1016 O1017 1.238 . S
O1017 C1016 1.238 . S
C1018 N1001 1.427 . S
C1018 C1019 1.394 . S
C1018 C1023 1.395 1_545 S
C1019 C1018 1.394 . S
C1019 C1020 1.380 1_545 S
C1019 H1047 0.929 . S
C1020 C1019 1.380 1_565 S
C1020 C1021 1.384 . S
C1020 C1026 1.495 . S
C1021 C1020 1.384 . S
C1021 C1022 1.382 . S
C1021 H1048 0.930 . S
C1022 C1021 1.382 . S
C1022 C1023 1.398 . S
C1023 C1018 1.395 1_565 S
C1023 C1022 1.398 . S
C1023 H1049 0.930 . S
C1024 O1004 1.235 1_545 S
C1024 O1005 1.270 . S
O1025 C978 1.286 1_545 S
O1025 Cd985 2.366 . S
C1026 O1014 1.258 1_565 S
C1026 O1015 1.274 . S
C1026 C1020 1.495 . S
C1027 N994 1.432 . S
C1027 C1028 1.381 . S
C1027 C1032 1.385 . S
C1028 C1027 1.381 . S
C1028 C1029 1.371 . S
C1028 H1050 0.932 . S
C1029 C1028 1.371 . S
C1029 C1030 1.400 . S
C1030 C1029 1.400 . S
C1030 C1031 1.351 . S
C1030 H1051 0.930 . S
C1031 C1030 1.351 . S
C1031 C1032 1.388 . S
C1032 C1027 1.385 . S
C1032 C1031 1.388 . S
C1032 H1052 0.929 . S
C1033 C972 1.504 . S
C1033 N1003 1.309 . S
C1033 O1034 1.258 . S
O1034 C1033 1.258 . S
H1035 C973 0.929 . S
H1036 C974 0.932 . S
H1037 C975 0.931 . S
H1038 C980 0.929 . S
H1039 C982 0.929 . S
H1040 C984 0.931 . S
H1041 C989 0.929 1_545 S
H1042 C991 0.932 . S
H1043 C992 0.931 1_545 S
H1044 C997 0.930 . S
H1045 C998 0.931 . S
H1046 C999 0.930 . S
H1047 C1019 0.929 . S
H1048 C1021 0.930 . S
H1049 C1023 0.930 . S
H1050 C1028 0.932 . S
H1051 C1030 0.930 . S
H1052 C1032 0.929 . S
C1053 C1054 1.359 . S
C1053 N1058 1.330 . S
C1053 C1114 1.504 . S
C1054 C1053 1.359 . S
C1054 C1055 1.366 . S
C1054 H1116 0.929 . S
C1055 C1054 1.366 . S
C1055 C1056 1.415 . S
C1055 H1117 0.932 . S
C1056 C1055 1.415 . S
C1056 C1057 1.366 . S
C1056 H1118 0.931 . S
C1057 C1056 1.366 . S
C1057 N1058 1.325 . S
C1057 C1059 1.586 . S
N1058 C1053 1.330 . S
N1058 C1057 1.325 . S
N1058 Co1074 1.855 1_455 S
C1059 C1057 1.586 . S
C1059 N1083 1.300 1_455 S
C1059 O1106 1.222 1_455 S
C1060 C1061 1.421 . S
C1060 C1065 1.360 . S
C1060 N1083 1.436 . S
C1061 C1060 1.421 . S
C1061 C1062 1.379 . S
C1061 H1119 0.929 . S
C1062 C1061 1.379 . S
C1062 C1063 1.417 . S
C1063 C1062 1.417 . S
C1063 C1064 1.352 . S
C1063 H1120 0.929 . S
C1064 C1063 1.352 . S
C1064 C1065 1.393 . S
C1065 C1060 1.360 . S
C1065 C1064 1.393 . S
C1065 H1121 0.931 . S
Cd1066 O1086 2.329 . S
Cd1066 O1088 2.350 . S
Cd1066 O1089 2.277 . S
Cd1066 O1091 2.173 1_655 S
Cd1066 O1095 2.263 . S
Cd1066 O1106 2.366 . S
Cd1067 O1085 2.352 . S
Cd1067 O1092 2.250 . S
Cd1067 O1096 2.308 . S
C1068 C1072 1.403 . S
C1068 C1073 1.369 . S
C1068 N1084 1.423 . S
C1069 C1070 1.389 1_655 S
C1069 C1073 1.389 1_655 S
C1070 C1069 1.389 1_455 S
C1070 C1071 1.379 . S
C1070 H1122 0.929 1_455 S
C1071 C1070 1.379 . S
C1071 C1072 1.405 . S
C1072 C1068 1.403 . S
C1072 C1071 1.405 . S
C1072 H1123 0.932 . S
C1073 C1068 1.369 . S
C1073 C1069 1.389 1_455 S
C1073 H1124 0.931 1_455 S
Co1074 N1058 1.855 1_655 S
Co1074 N1075 1.958 1_655 S
Co1074 N1076 1.879 . S
Co1074 N1082 1.960 . S
Co1074 N1083 1.974 . S
Co1074 N1084 1.948 1_655 S
N1075 Co1074 1.958 1_455 S
N1075 C1093 1.329 1_455 S
N1075 C1108 1.432 . S
N1076 Co1074 1.879 . S
N1076 C1077 1.327 . S
N1076 C1081 1.342 . S
C1077 N1076 1.327 . S
C1077 C1078 1.407 . S
C1077 C1093 1.481 . S
C1078 C1077 1.407 . S
C1078 C1079 1.364 . S
C1078 H1125 0.930 . S
C1079 C1078 1.364 . S
C1079 C1080 1.390 . S
C1079 H1126 0.931 . S
C1080 C1079 1.390 . S
C1080 C1081 1.346 . S
C1080 H1127 0.930 . S
C1081 N1076 1.342 . S
C1081 C1080 1.346 . S
C1081 C1097 1.516 . S
N1082 Co1074 1.960 . S
N1082 C1097 1.324 . S
N1082 C1099 1.427 . S
N1083 C1059 1.300 1_655 S
N1083 C1060 1.436 . S
N1083 Co1074 1.974 . S
N1084 C1068 1.423 . S
N1084 Co1074 1.948 1_455 S
N1084 C1114 1.309 . S
O1085 Cd1067 2.352 . S
O1085 C1105 1.235 1_455 S
O1086 Cd1066 2.329 . S
O1086 C1105 1.270 . S
C1087 O1088 1.270 . S
C1087 O1089 1.248 . S
O1088 Cd1066 2.350 . S
O1088 C1087 1.270 . S
O1089 Cd1066 2.277 . S
O1089 C1087 1.248 . S
C1090 O1091 1.277 . S
C1090 O1092 1.230 . S
O1091 Cd1066 2.173 1_455 S
O1091 C1090 1.277 . S
O1092 Cd1067 2.250 . S
O1092 C1090 1.230 . S
C1093 N1075 1.329 1_655 S
C1093 C1077 1.481 . S
C1093 O1094 1.246 . S
O1094 C1093 1.246 . S
O1095 Cd1066 2.263 . S
O1095 C1107 1.258 1_655 S
O1096 Cd1067 2.308 . S
O1096 C1107 1.274 . S
C1097 C1081 1.516 . S
C1097 N1082 1.324 . S
C1097 O1098 1.238 . S
O1098 C1097 1.238 . S
C1099 N1082 1.427 . S
C1099 C1100 1.394 . S
C1099 C1104 1.395 1_655 S
C1100 C1099 1.394 . S
C1100 C1101 1.380 1_655 S
C1100 H1128 0.929 . S
C1101 C1100 1.380 1_455 S
C1101 C1102 1.384 . S
C1101 C1107 1.495 . S
C1102 C1101 1.384 . S
C1102 C1103 1.382 . S
C1102 H1129 0.930 . S
C1103 C1102 1.382 . S
C1103 C1104 1.398 . S
C1104 C1099 1.395 1_455 S
C1104 C1103 1.398 . S
C1104 H1130 0.930 . S
C1105 O1085 1.235 1_655 S
C1105 O1086 1.270 . S
O1106 C1059 1.222 1_655 S
O1106 Cd1066 2.366 . S
C1107 O1095 1.258 1_455 S
C1107 O1096 1.274 . S
C1107 C1101 1.495 . S
C1108 N1075 1.432 . S
C1108 C1109 1.381 . S
C1108 C1113 1.385 . S
C1109 C1108 1.381 . S
C1109 C1110 1.371 . S
C1109 H1131 0.932 . S
C1110 C1109 1.371 . S
C1110 C1111 1.400 . S
C1111 C1110 1.400 . S
C1111 C1112 1.351 . S
C1111 H1132 0.930 . S
C1112 C1111 1.351 . S
C1112 C1113 1.388 . S
C1113 C1108 1.385 . S
C1113 C1112 1.388 . S
C1113 H1133 0.929 . S
C1114 C1053 1.504 . S
C1114 N1084 1.309 . S
C1114 O1115 1.258 . S
O1115 C1114 1.258 . S
H1116 C1054 0.929 . S
H1117 C1055 0.932 . S
H1118 C1056 0.931 . S
H1119 C1061 0.929 . S
H1120 C1063 0.929 . S
H1121 C1065 0.931 . S
H1122 C1070 0.929 1_655 S
H1123 C1072 0.932 . S
H1124 C1073 0.931 1_655 S
H1125 C1078 0.930 . S
H1126 C1079 0.931 . S
H1127 C1080 0.930 . S
H1128 C1100 0.929 . S
H1129 C1102 0.930 . S
H1130 C1104 0.930 . S
H1131 C1109 0.932 . S
H1132 C1111 0.930 . S
H1133 C1113 0.929 . S
C1134 C1135 1.359 . S
C1134 N1139 1.330 . S
C1134 C1195 1.504 . S
C1135 C1134 1.359 . S
C1135 C1136 1.366 . S
C1135 H1197 0.929 . S
C1136 C1135 1.366 . S
C1136 C1137 1.415 . S
C1136 H1198 0.932 . S
C1137 C1136 1.415 . S
C1137 C1138 1.366 . S
C1137 H1199 0.931 . S
C1138 C1137 1.366 . S
C1138 N1139 1.325 . S
C1138 C1140 1.516 . S
N1139 C1134 1.330 . S
N1139 C1138 1.325 . S
N1139 Co1155 1.869 . S
C1140 C1138 1.516 . S
C1140 N1164 1.316 . S
C1140 O1187 1.263 . S
C1141 C1142 1.421 . S
C1141 C1146 1.360 . S
C1141 N1164 1.436 . S
C1142 C1141 1.421 . S
C1142 C1143 1.379 . S
C1142 H1200 0.929 . S
C1143 C1142 1.379 . S
C1143 C1144 1.417 . S
C1144 C1143 1.417 . S
C1144 C1145 1.352 . S
C1144 H1201 0.929 . S
C1145 C1144 1.352 . S
C1145 C1146 1.393 . S
C1146 C1141 1.360 . S
C1146 C1145 1.393 . S
C1146 H1202 0.931 . S
Cd1147 O1167 2.329 . S
Cd1147 O1169 2.350 . S
Cd1147 O1170 2.277 . S
Cd1147 O1172 2.173 . S
Cd1147 O1176 2.263 . S
Cd1147 O1187 2.366 . S
Cd1148 O1166 2.352 . S
Cd1148 O1173 2.250 . S
Cd1148 O1177 2.308 . S
C1149 C1153 1.403 . S
C1149 C1154 1.370 . S
C1149 N1165 1.423 . S
C1150 C1151 1.389 . S
C1150 C1154 1.389 . S
C1151 C1150 1.389 . S
C1151 C1152 1.379 . S
C1151 H1203 0.929 . S
C1152 C1151 1.379 . S
C1152 C1153 1.405 . S
C1153 C1149 1.403 . S
C1153 C1152 1.405 . S
C1153 H1204 0.932 . S
C1154 C1149 1.370 . S
C1154 C1150 1.389 . S
C1154 H1205 0.931 . S
Co1155 N1139 1.869 . S
Co1155 N1156 1.955 . S
Co1155 N1157 1.864 . S
Co1155 N1163 1.958 . S
Co1155 N1164 1.953 . S
Co1155 N1165 1.974 . S
N1156 Co1155 1.955 . S
N1156 C1174 1.329 . S
N1156 C1189 1.432 . S
N1157 Co1155 1.864 . S
N1157 C1158 1.327 . S
N1157 C1162 1.342 . S
C1158 N1157 1.327 . S
C1158 C1159 1.407 . S
C1158 C1174 1.481 . S
C1159 C1158 1.407 . S
C1159 C1160 1.364 . S
C1159 H1206 0.930 . S
C1160 C1159 1.364 . S
C1160 C1161 1.390 . S
C1160 H1207 0.931 . S
C1161 C1160 1.390 . S
C1161 C1162 1.346 . S
C1161 H1208 0.930 . S
C1162 N1157 1.342 . S
C1162 C1161 1.346 . S
C1162 C1178 1.516 . S
N1163 Co1155 1.958 . S
N1163 C1178 1.324 . S
N1163 C1180 1.427 . S
N1164 C1140 1.316 . S
N1164 C1141 1.436 . S
N1164 Co1155 1.953 . S
N1165 C1149 1.423 . S
N1165 Co1155 1.974 . S
N1165 C1195 1.309 . S
O1166 Cd1148 2.352 . S
O1166 C1186 1.235 . S
O1167 Cd1147 2.329 . S
O1167 C1186 1.270 . S
C1168 O1169 1.270 . S
C1168 O1170 1.248 . S
O1169 Cd1147 2.350 . S
O1169 C1168 1.270 . S
O1170 Cd1147 2.277 . S
O1170 C1168 1.248 . S
C1171 O1172 1.277 . S
C1171 O1173 1.230 . S
O1172 Cd1147 2.173 . S
O1172 C1171 1.277 . S
O1173 Cd1148 2.250 . S
O1173 C1171 1.230 . S
C1174 N1156 1.329 . S
C1174 C1158 1.481 . S
C1174 O1175 1.246 . S
O1175 C1174 1.246 . S
O1176 Cd1147 2.263 . S
O1176 C1188 1.258 . S
O1177 Cd1148 2.308 . S
O1177 C1188 1.274 . S
C1178 C1162 1.516 . S
C1178 N1163 1.324 . S
C1178 O1179 1.238 . S
O1179 C1178 1.238 . S
C1180 N1163 1.427 . S
C1180 C1181 1.394 . S
C1180 C1185 1.395 . S
C1181 C1180 1.394 . S
C1181 C1182 1.380 . S
C1181 H1209 0.929 . S
C1182 C1181 1.380 . S
C1182 C1183 1.384 . S
C1182 C1188 1.495 . S
C1183 C1182 1.384 . S
C1183 C1184 1.382 . S
C1183 H1210 0.930 . S
C1184 C1183 1.382 . S
C1184 C1185 1.398 . S
C1185 C1180 1.395 . S
C1185 C1184 1.398 . S
C1185 H1211 0.930 . S
C1186 O1166 1.235 . S
C1186 O1167 1.270 . S
O1187 C1140 1.263 . S
O1187 Cd1147 2.366 . S
C1188 O1176 1.258 . S
C1188 O1177 1.274 . S
C1188 C1182 1.495 . S
C1189 N1156 1.432 . S
C1189 C1190 1.381 . S
C1189 C1194 1.385 . S
C1190 C1189 1.381 . S
C1190 C1191 1.371 . S
C1190 H1212 0.932 . S
C1191 C1190 1.371 . S
C1191 C1192 1.400 . S
C1192 C1191 1.400 . S
C1192 C1193 1.351 . S
C1192 H1213 0.930 . S
C1193 C1192 1.351 . S
C1193 C1194 1.388 . S
C1194 C1189 1.385 . S
C1194 C1193 1.388 . S
C1194 H1214 0.929 . S
C1195 C1134 1.504 . S
C1195 N1165 1.309 . S
C1195 O1196 1.258 . S
O1196 C1195 1.258 . S
H1197 C1135 0.929 . S
H1198 C1136 0.932 . S
H1199 C1137 0.931 . S
H1200 C1142 0.929 . S
H1201 C1144 0.929 . S
H1202 C1146 0.931 . S
H1203 C1151 0.929 . S
H1204 C1153 0.932 . S
H1205 C1154 0.931 . S
H1206 C1159 0.930 . S
H1207 C1160 0.931 . S
H1208 C1161 0.930 . S
H1209 C1181 0.929 . S
H1210 C1183 0.930 . S
H1211 C1185 0.930 . S
H1212 C1190 0.932 . S
H1213 C1192 0.930 . S
H1214 C1194 0.929 . S
C1215 C1216 1.359 . S
C1215 N1220 1.330 . S
C1215 C1276 1.504 . S
C1216 C1215 1.359 . S
C1216 C1217 1.366 . S
C1216 H1278 0.929 . S
C1217 C1216 1.366 . S
C1217 C1218 1.415 . S
C1217 H1279 0.932 . S
C1218 C1217 1.415 . S
C1218 C1219 1.366 . S
C1218 H1280 0.931 . S
C1219 C1218 1.366 . S
C1219 N1220 1.325 . S
C1219 C1221 1.516 . S
N1220 C1215 1.330 . S
N1220 C1219 1.325 . S
N1220 Co1236 1.869 . S
C1221 C1219 1.516 . S
C1221 N1245 1.316 . S
C1221 O1268 1.263 . S
C1222 C1223 1.421 . S
C1222 C1227 1.360 . S
C1222 N1245 1.436 . S
C1223 C1222 1.421 . S
C1223 C1224 1.379 . S
C1223 H1281 0.929 . S
C1224 C1223 1.379 . S
C1224 C1225 1.417 . S
C1225 C1224 1.417 . S
C1225 C1226 1.352 . S
C1225 H1282 0.929 . S
C1226 C1225 1.352 . S
C1226 C1227 1.393 . S
C1227 C1222 1.360 . S
C1227 C1226 1.393 . S
C1227 H1283 0.931 . S
Cd1228 O1248 2.329 . S
Cd1228 O1250 2.350 . S
Cd1228 O1251 2.277 . S
Cd1228 O1253 2.173 . S
Cd1228 O1257 2.263 . S
Cd1228 O1268 2.366 . S
Cd1229 O1247 2.352 . S
Cd1229 O1254 2.250 . S
Cd1229 O1258 2.308 . S
C1230 C1234 1.403 . S
C1230 C1235 1.370 . S
C1230 N1246 1.423 . S
C1231 C1232 1.389 . S
C1231 C1235 1.389 . S
C1232 C1231 1.389 . S
C1232 C1233 1.379 . S
C1232 H1284 0.929 . S
C1233 C1232 1.379 . S
C1233 C1234 1.405 . S
C1234 C1230 1.403 . S
C1234 C1233 1.405 . S
C1234 H1285 0.932 . S
C1235 C1230 1.370 . S
C1235 C1231 1.389 . S
C1235 H1286 0.931 . S
Co1236 N1220 1.869 . S
Co1236 N1237 1.955 . S
Co1236 N1238 1.864 . S
Co1236 N1244 1.958 . S
Co1236 N1245 1.953 . S
Co1236 N1246 1.974 . S
N1237 Co1236 1.955 . S
N1237 C1255 1.329 . S
N1237 C1270 1.432 . S
N1238 Co1236 1.864 . S
N1238 C1239 1.327 . S
N1238 C1243 1.342 . S
C1239 N1238 1.327 . S
C1239 C1240 1.407 . S
C1239 C1255 1.481 . S
C1240 C1239 1.407 . S
C1240 C1241 1.364 . S
C1240 H1287 0.930 . S
C1241 C1240 1.364 . S
C1241 C1242 1.390 . S
C1241 H1288 0.931 . S
C1242 C1241 1.390 . S
C1242 C1243 1.346 . S
C1242 H1289 0.930 . S
C1243 N1238 1.342 . S
C1243 C1242 1.346 . S
C1243 C1259 1.516 . S
N1244 Co1236 1.958 . S
N1244 C1259 1.324 . S
N1244 C1261 1.427 . S
N1245 C1221 1.316 . S
N1245 C1222 1.436 . S
N1245 Co1236 1.953 . S
N1246 C1230 1.423 . S
N1246 Co1236 1.974 . S
N1246 C1276 1.309 . S
O1247 Cd1229 2.352 . S
O1247 C1267 1.235 . S
O1248 Cd1228 2.329 . S
O1248 C1267 1.270 . S
C1249 O1250 1.270 . S
C1249 O1251 1.248 . S
O1250 Cd1228 2.350 . S
O1250 C1249 1.270 . S
O1251 Cd1228 2.277 . S
O1251 C1249 1.248 . S
C1252 O1253 1.277 . S
C1252 O1254 1.230 . S
O1253 Cd1228 2.173 . S
O1253 C1252 1.277 . S
O1254 Cd1229 2.250 . S
O1254 C1252 1.230 . S
C1255 N1237 1.329 . S
C1255 C1239 1.481 . S
C1255 O1256 1.246 . S
O1256 C1255 1.246 . S
O1257 Cd1228 2.263 . S
O1257 C1269 1.258 . S
O1258 Cd1229 2.308 . S
O1258 C1269 1.274 . S
C1259 C1243 1.516 . S
C1259 N1244 1.324 . S
C1259 O1260 1.238 . S
O1260 C1259 1.238 . S
C1261 N1244 1.427 . S
C1261 C1262 1.394 . S
C1261 C1266 1.395 . S
C1262 C1261 1.394 . S
C1262 C1263 1.380 . S
C1262 H1290 0.929 . S
C1263 C1262 1.380 . S
C1263 C1264 1.384 . S
C1263 C1269 1.495 . S
C1264 C1263 1.384 . S
C1264 C1265 1.382 . S
C1264 H1291 0.930 . S
C1265 C1264 1.382 . S
C1265 C1266 1.398 . S
C1266 C1261 1.395 . S
C1266 C1265 1.398 . S
C1266 H1292 0.930 . S
C1267 O1247 1.235 . S
C1267 O1248 1.270 . S
O1268 C1221 1.263 . S
O1268 Cd1228 2.366 . S
C1269 O1257 1.258 . S
C1269 O1258 1.274 . S
C1269 C1263 1.495 . S
C1270 N1237 1.432 . S
C1270 C1271 1.381 . S
C1270 C1275 1.385 . S
C1271 C1270 1.381 . S
C1271 C1272 1.371 . S
C1271 H1293 0.932 . S
C1272 C1271 1.371 . S
C1272 C1273 1.400 . S
C1273 C1272 1.400 . S
C1273 C1274 1.351 . S
C1273 H1294 0.930 . S
C1274 C1273 1.351 . S
C1274 C1275 1.388 . S
C1275 C1270 1.385 . S
C1275 C1274 1.388 . S
C1275 H1295 0.929 . S
C1276 C1215 1.504 . S
C1276 N1246 1.309 . S
C1276 O1277 1.258 . S
O1277 C1276 1.258 . S
H1278 C1216 0.929 . S
H1279 C1217 0.932 . S
H1280 C1218 0.931 . S
H1281 C1223 0.929 . S
H1282 C1225 0.929 . S
H1283 C1227 0.931 . S
H1284 C1232 0.929 . S
H1285 C1234 0.932 . S
H1286 C1235 0.931 . S
H1287 C1240 0.930 . S
H1288 C1241 0.931 . S
H1289 C1242 0.930 . S
H1290 C1262 0.929 . S
H1291 C1264 0.930 . S
H1292 C1266 0.930 . S
H1293 C1271 0.932 . S
H1294 C1273 0.930 . S
H1295 C1275 0.929 . S
C1296 C1297 1.359 . S
C1296 N1301 1.330 . S
C1296 C1357 1.504 . S
C1297 C1296 1.359 . S
C1297 C1298 1.366 . S
C1297 H1359 0.929 . S
C1298 C1297 1.366 . S
C1298 C1299 1.415 . S
C1298 H1360 0.932 . S
C1299 C1298 1.415 . S
C1299 C1300 1.366 . S
C1299 H1361 0.931 . S
C1300 C1299 1.366 . S
C1300 N1301 1.325 . S
C1300 C1302 1.516 . S
N1301 C1296 1.330 . S
N1301 C1300 1.325 . S
N1301 Co1317 1.869 . S
C1302 C1300 1.516 . S
C1302 N1326 1.316 . S
C1302 O1349 1.263 . S
C1303 C1304 1.421 . S
C1303 C1308 1.360 . S
C1303 N1326 1.436 . S
C1304 C1303 1.421 . S
C1304 C1305 1.379 . S
C1304 H1362 0.929 . S
C1305 C1304 1.379 . S
C1305 C1306 1.417 . S
C1306 C1305 1.417 . S
C1306 C1307 1.352 . S
C1306 H1363 0.929 . S
C1307 C1306 1.352 . S
C1307 C1308 1.393 . S
C1308 C1303 1.360 . S
C1308 C1307 1.393 . S
C1308 H1364 0.931 . S
Cd1309 O1329 2.329 . S
Cd1309 O1331 2.350 . S
Cd1309 O1332 2.277 . S
Cd1309 O1334 2.173 . S
Cd1309 O1338 2.263 . S
Cd1309 O1349 2.366 . S
Cd1310 O1328 2.352 . S
Cd1310 O1335 2.250 . S
Cd1310 O1339 2.308 . S
C1311 C1315 1.403 . S
C1311 C1316 1.370 . S
C1311 N1327 1.423 . S
C1312 C1313 1.389 . S
C1312 C1316 1.389 . S
C1313 C1312 1.389 . S
C1313 C1314 1.379 . S
C1313 H1365 0.929 . S
C1314 C1313 1.379 . S
C1314 C1315 1.405 . S
C1315 C1311 1.403 . S
C1315 C1314 1.405 . S
C1315 H1366 0.932 . S
C1316 C1311 1.370 . S
C1316 C1312 1.389 . S
C1316 H1367 0.931 . S
Co1317 N1301 1.869 . S
Co1317 N1318 1.955 . S
Co1317 N1319 1.864 . S
Co1317 N1325 1.958 . S
Co1317 N1326 1.953 . S
Co1317 N1327 1.974 . S
N1318 Co1317 1.955 . S
N1318 C1336 1.329 . S
N1318 C1351 1.432 . S
N1319 Co1317 1.864 . S
N1319 C1320 1.327 . S
N1319 C1324 1.342 . S
C1320 N1319 1.327 . S
C1320 C1321 1.407 . S
C1320 C1336 1.481 . S
C1321 C1320 1.407 . S
C1321 C1322 1.364 . S
C1321 H1368 0.930 . S
C1322 C1321 1.364 . S
C1322 C1323 1.390 . S
C1322 H1369 0.931 . S
C1323 C1322 1.390 . S
C1323 C1324 1.346 . S
C1323 H1370 0.930 . S
C1324 N1319 1.342 . S
C1324 C1323 1.346 . S
C1324 C1340 1.516 . S
N1325 Co1317 1.958 . S
N1325 C1340 1.324 . S
N1325 C1342 1.427 . S
N1326 C1302 1.316 . S
N1326 C1303 1.436 . S
N1326 Co1317 1.953 . S
N1327 C1311 1.423 . S
N1327 Co1317 1.974 . S
N1327 C1357 1.309 . S
O1328 Cd1310 2.352 . S
O1328 C1348 1.235 . S
O1329 Cd1309 2.329 . S
O1329 C1348 1.270 . S
C1330 O1331 1.270 . S
C1330 O1332 1.248 . S
O1331 Cd1309 2.350 . S
O1331 C1330 1.270 . S
O1332 Cd1309 2.277 . S
O1332 C1330 1.248 . S
C1333 O1334 1.277 . S
C1333 O1335 1.230 . S
O1334 Cd1309 2.173 . S
O1334 C1333 1.277 . S
O1335 Cd1310 2.250 . S
O1335 C1333 1.230 . S
C1336 N1318 1.329 . S
C1336 C1320 1.481 . S
C1336 O1337 1.246 . S
O1337 C1336 1.246 . S
O1338 Cd1309 2.263 . S
O1338 C1350 1.258 . S
O1339 Cd1310 2.308 . S
O1339 C1350 1.274 . S
C1340 C1324 1.516 . S
C1340 N1325 1.324 . S
C1340 O1341 1.238 . S
O1341 C1340 1.238 . S
C1342 N1325 1.427 . S
C1342 C1343 1.394 . S
C1342 C1347 1.395 . S
C1343 C1342 1.394 . S
C1343 C1344 1.380 . S
C1343 H1371 0.929 . S
C1344 C1343 1.380 . S
C1344 C1345 1.384 . S
C1344 C1350 1.495 . S
C1345 C1344 1.384 . S
C1345 C1346 1.382 . S
C1345 H1372 0.930 . S
C1346 C1345 1.382 . S
C1346 C1347 1.398 . S
C1347 C1342 1.395 . S
C1347 C1346 1.398 . S
C1347 H1373 0.930 . S
C1348 O1328 1.235 . S
C1348 O1329 1.270 . S
O1349 C1302 1.263 . S
O1349 Cd1309 2.366 . S
C1350 O1338 1.258 . S
C1350 O1339 1.274 . S
C1350 C1344 1.495 . S
C1351 N1318 1.432 . S
C1351 C1352 1.381 . S
C1351 C1356 1.385 . S
C1352 C1351 1.381 . S
C1352 C1353 1.371 . S
C1352 H1374 0.932 . S
C1353 C1352 1.371 . S
C1353 C1354 1.400 . S
C1354 C1353 1.400 . S
C1354 C1355 1.351 . S
C1354 H1375 0.930 . S
C1355 C1354 1.351 . S
C1355 C1356 1.388 . S
C1356 C1351 1.385 . S
C1356 C1355 1.388 . S
C1356 H1376 0.929 . S
C1357 C1296 1.504 . S
C1357 N1327 1.309 . S
C1357 O1358 1.258 . S
O1358 C1357 1.258 . S
H1359 C1297 0.929 . S
H1360 C1298 0.932 . S
H1361 C1299 0.931 . S
H1362 C1304 0.929 . S
H1363 C1306 0.929 . S
H1364 C1308 0.931 . S
H1365 C1313 0.929 . S
H1366 C1315 0.932 . S
H1367 C1316 0.931 . S
H1368 C1321 0.930 . S
H1369 C1322 0.931 . S
H1370 C1323 0.930 . S
H1371 C1343 0.929 . S
H1372 C1345 0.930 . S
H1373 C1347 0.930 . S
H1374 C1352 0.932 . S
H1375 C1354 0.930 . S
H1376 C1356 0.929 . S
C1377 C1378 1.359 . S
C1377 N1382 1.330 . S
C1377 C1438 1.504 . S
C1378 C1377 1.359 . S
C1378 C1379 1.366 . S
C1378 H1440 0.929 . S
C1379 C1378 1.366 . S
C1379 C1380 1.415 . S
C1379 H1441 0.932 . S
C1380 C1379 1.415 . S
C1380 C1381 1.366 . S
C1380 H1442 0.931 . S
C1381 C1380 1.366 . S
C1381 N1382 1.325 . S
C1381 C1383 1.516 . S
N1382 C1377 1.330 . S
N1382 C1381 1.325 . S
N1382 Co1398 1.869 . S
C1383 C1381 1.516 . S
C1383 N1407 1.316 . S
C1383 O1430 1.263 . S
C1384 C1385 1.421 . S
C1384 C1389 1.360 . S
C1384 N1407 1.436 . S
C1385 C1384 1.421 . S
C1385 C1386 1.379 . S
C1385 H1443 0.929 . S
C1386 C1385 1.379 . S
C1386 C1387 1.417 . S
C1387 C1386 1.417 . S
C1387 C1388 1.352 . S
C1387 H1444 0.929 . S
C1388 C1387 1.352 . S
C1388 C1389 1.393 . S
C1389 C1384 1.360 . S
C1389 C1388 1.393 . S
C1389 H1445 0.931 . S
Cd1390 O1410 2.329 . S
Cd1390 O1412 2.350 . S
Cd1390 O1413 2.277 . S
Cd1390 O1415 2.173 . S
Cd1390 O1419 2.263 . S
Cd1390 O1430 2.366 . S
Cd1391 O1409 2.352 . S
Cd1391 O1416 2.250 . S
Cd1391 O1420 2.308 . S
C1392 C1396 1.403 . S
C1392 C1397 1.370 . S
C1392 N1408 1.423 . S
C1393 C1394 1.389 . S
C1393 C1397 1.389 . S
C1394 C1393 1.389 . S
C1394 C1395 1.379 . S
C1394 H1446 0.929 . S
C1395 C1394 1.379 . S
C1395 C1396 1.405 . S
C1396 C1392 1.403 . S
C1396 C1395 1.405 . S
C1396 H1447 0.932 . S
C1397 C1392 1.370 . S
C1397 C1393 1.389 . S
C1397 H1448 0.931 . S
Co1398 N1382 1.869 . S
Co1398 N1399 1.955 . S
Co1398 N1400 1.864 . S
Co1398 N1406 1.958 . S
Co1398 N1407 1.953 . S
Co1398 N1408 1.974 . S
N1399 Co1398 1.955 . S
N1399 C1417 1.329 . S
N1399 C1432 1.432 . S
N1400 Co1398 1.864 . S
N1400 C1401 1.327 . S
N1400 C1405 1.342 . S
C1401 N1400 1.327 . S
C1401 C1402 1.407 . S
C1401 C1417 1.481 . S
C1402 C1401 1.407 . S
C1402 C1403 1.364 . S
C1402 H1449 0.930 . S
C1403 C1402 1.364 . S
C1403 C1404 1.390 . S
C1403 H1450 0.931 . S
C1404 C1403 1.390 . S
C1404 C1405 1.346 . S
C1404 H1451 0.930 . S
C1405 N1400 1.342 . S
C1405 C1404 1.346 . S
C1405 C1421 1.516 . S
N1406 Co1398 1.958 . S
N1406 C1421 1.324 . S
N1406 C1423 1.427 . S
N1407 C1383 1.316 . S
N1407 C1384 1.436 . S
N1407 Co1398 1.953 . S
N1408 C1392 1.423 . S
N1408 Co1398 1.974 . S
N1408 C1438 1.309 . S
O1409 Cd1391 2.352 . S
O1409 C1429 1.235 . S
O1410 Cd1390 2.329 . S
O1410 C1429 1.270 . S
C1411 O1412 1.270 . S
C1411 O1413 1.248 . S
O1412 Cd1390 2.350 . S
O1412 C1411 1.270 . S
O1413 Cd1390 2.277 . S
O1413 C1411 1.248 . S
C1414 O1415 1.277 . S
C1414 O1416 1.230 . S
O1415 Cd1390 2.173 . S
O1415 C1414 1.277 . S
O1416 Cd1391 2.250 . S
O1416 C1414 1.230 . S
C1417 N1399 1.329 . S
C1417 C1401 1.481 . S
C1417 O1418 1.246 . S
O1418 C1417 1.246 . S
O1419 Cd1390 2.263 . S
O1419 C1431 1.258 . S
O1420 Cd1391 2.308 . S
O1420 C1431 1.274 . S
C1421 C1405 1.516 . S
C1421 N1406 1.324 . S
C1421 O1422 1.238 . S
O1422 C1421 1.238 . S
C1423 N1406 1.427 . S
C1423 C1424 1.394 . S
C1423 C1428 1.395 . S
C1424 C1423 1.394 . S
C1424 C1425 1.380 . S
C1424 H1452 0.929 . S
C1425 C1424 1.380 . S
C1425 C1426 1.384 . S
C1425 C1431 1.495 . S
C1426 C1425 1.384 . S
C1426 C1427 1.382 . S
C1426 H1453 0.930 . S
C1427 C1426 1.382 . S
C1427 C1428 1.398 . S
C1428 C1423 1.395 . S
C1428 C1427 1.398 . S
C1428 H1454 0.930 . S
C1429 O1409 1.235 . S
C1429 O1410 1.270 . S
O1430 C1383 1.263 . S
O1430 Cd1390 2.366 . S
C1431 O1419 1.258 . S
C1431 O1420 1.274 . S
C1431 C1425 1.495 . S
C1432 N1399 1.432 . S
C1432 C1433 1.381 . S
C1432 C1437 1.385 . S
C1433 C1432 1.381 . S
C1433 C1434 1.371 . S
C1433 H1455 0.932 . S
C1434 C1433 1.371 . S
C1434 C1435 1.400 . S
C1435 C1434 1.400 . S
C1435 C1436 1.351 . S
C1435 H1456 0.930 . S
C1436 C1435 1.351 . S
C1436 C1437 1.388 . S
C1437 C1432 1.385 . S
C1437 C1436 1.388 . S
C1437 H1457 0.929 . S
C1438 C1377 1.504 . S
C1438 N1408 1.309 . S
C1438 O1439 1.258 . S
O1439 C1438 1.258 . S
H1440 C1378 0.929 . S
H1441 C1379 0.932 . S
H1442 C1380 0.931 . S
H1443 C1385 0.929 . S
H1444 C1387 0.929 . S
H1445 C1389 0.931 . S
H1446 C1394 0.929 . S
H1447 C1396 0.932 . S
H1448 C1397 0.931 . S
H1449 C1402 0.930 . S
H1450 C1403 0.931 . S
H1451 C1404 0.930 . S
H1452 C1424 0.929 . S
H1453 C1426 0.930 . S
H1454 C1428 0.930 . S
H1455 C1433 0.932 . S
H1456 C1435 0.930 . S
H1457 C1437 0.929 . S
H1458 C1476 0.951 . S
H1459 C1478 0.951 . S
H1460 C1480 0.950 . S
H1461 C1481 0.950 . S
H1462 C1483 0.950 . S
H1463 C1486 0.950 . S
H1464 C1487 0.950 . S
H1465 C1489 0.950 . S
H1466 C1490 0.950 . S
H1467 C1491 0.951 . S
H1468 C1493 0.951 . S
H1469 C1495 0.950 . S
H1470 C1496 0.950 . S
H1471 C1498 0.950 . S
H1472 C1501 0.950 . S
H1473 C1502 0.950 . S
H1474 C1504 0.950 . S
H1475 C1505 0.950 . S
C1476 H1458 0.951 . S
C1476 C1477 1.366 . S
C1476 C1478 1.388 . S
C1477 C1476 1.366 . S
C1477 C1481 1.385 . S
C1478 H1459 0.951 . S
C1478 C1476 1.388 . S
C1478 C1479 1.366 . S
C1479 C1478 1.366 . S
C1479 C1480 1.414 . S
C1479 C1482 1.499 . S
C1480 H1460 0.950 . S
C1480 C1479 1.414 . S
C1480 C1481 1.374 . S
C1481 H1461 0.950 . S
C1481 C1477 1.385 . S
C1481 C1480 1.374 . S
C1482 C1479 1.499 . S
C1482 C1483 1.373 . S
C1482 C1484 1.389 . S
C1483 H1462 0.950 . S
C1483 C1482 1.373 . S
C1483 C1499 1.377 . S
C1484 C1482 1.389 . S
C1484 C1485 1.524 . S
C1484 C1498 1.377 . S
C1485 C1484 1.524 . S
C1485 C1486 1.397 . S
C1485 C1490 1.363 . S
C1486 H1463 0.950 . S
C1486 C1485 1.397 . S
C1486 C1487 1.334 . S
C1487 H1464 0.950 . S
C1487 C1486 1.334 . S
C1487 C1488 1.287 . S
C1488 C1487 1.287 . S
C1488 C1489 1.524 . S
C1488 H1507 0.913 . S
C1489 H1465 0.950 . S
C1489 C1488 1.524 . S
C1489 C1490 1.415 . S
C1490 H1466 0.950 . S
C1490 C1485 1.363 . S
C1490 C1489 1.415 . S
C1491 H1467 0.951 . S
C1491 C1492 1.366 . S
C1491 C1493 1.388 . S
C1492 C1491 1.366 . S
C1492 C1496 1.385 . S
C1493 H1468 0.951 . S
C1493 C1491 1.388 . S
C1493 C1494 1.366 . S
C1494 C1493 1.366 . S
C1494 C1495 1.414 . S
C1494 C1497 1.499 . S
C1495 H1469 0.950 . S
C1495 C1494 1.414 . S
C1495 C1496 1.374 . S
C1496 H1470 0.950 . S
C1496 C1492 1.385 . S
C1496 C1495 1.374 . S
C1497 C1494 1.499 . S
C1497 C1498 1.373 . S
C1497 C1499 1.389 . S
C1498 H1471 0.950 . S
C1498 C1484 1.377 . S
C1498 C1497 1.373 . S
C1499 C1483 1.377 . S
C1499 C1497 1.389 . S
C1499 C1500 1.524 . S
C1500 C1499 1.524 . S
C1500 C1501 1.397 . S
C1500 C1505 1.363 . S
C1501 H1472 0.950 . S
C1501 C1500 1.397 . S
C1501 C1502 1.334 . S
C1502 H1473 0.950 . S
C1502 C1501 1.334 . S
C1502 C1503 1.287 . S
C1503 C1502 1.287 . S
C1503 C1504 1.524 . S
C1503 H1506 0.999 . S
C1504 H1474 0.950 . S
C1504 C1503 1.524 . S
C1504 C1505 1.415 . S
C1505 H1475 0.950 . S
C1505 C1500 1.363 . S
C1505 C1504 1.415 . S
H1506 C1503 0.999 . S
H1507 C1488 0.913 . S
H1508 C1526 0.951 . S
H1509 C1528 0.951 . S
H1510 C1530 0.950 . S
H1511 C1531 0.950 . S
H1512 C1533 0.950 . S
H1513 C1536 0.950 . S
H1514 C1537 0.950 . S
H1515 C1539 0.950 . S
H1516 C1540 0.950 . S
H1517 C1541 0.951 . S
H1518 C1543 0.951 . S
H1519 C1545 0.950 . S
H1520 C1546 0.950 . S
H1521 C1548 0.950 . S
H1522 C1551 0.950 . S
H1523 C1552 0.950 . S
H1524 C1554 0.950 . S
H1525 C1555 0.950 . S
C1526 H1508 0.951 . S
C1526 C1527 1.366 . S
C1526 C1528 1.388 . S
C1527 C1526 1.366 . S
C1527 C1531 1.385 . S
C1528 H1509 0.951 . S
C1528 C1526 1.388 . S
C1528 C1529 1.366 . S
C1529 C1528 1.366 . S
C1529 C1530 1.414 . S
C1529 C1532 1.499 . S
C1530 H1510 0.950 . S
C1530 C1529 1.414 . S
C1530 C1531 1.374 . S
C1531 H1511 0.950 . S
C1531 C1527 1.385 . S
C1531 C1530 1.374 . S
C1532 C1529 1.499 . S
C1532 C1533 1.373 . S
C1532 C1534 1.389 . S
C1533 H1512 0.950 . S
C1533 C1532 1.373 . S
C1533 C1549 1.377 . S
C1534 C1532 1.389 . S
C1534 C1535 1.524 . S
C1534 C1548 1.377 . S
C1535 C1534 1.524 . S
C1535 C1536 1.397 . S
C1535 C1540 1.363 . S
C1536 H1513 0.950 . S
C1536 C1535 1.397 . S
C1536 C1537 1.334 . S
C1537 H1514 0.950 . S
C1537 C1536 1.334 . S
C1537 C1538 1.287 . S
C1538 C1537 1.287 . S
C1538 C1539 1.524 . S
C1538 H1557 0.913 . S
C1539 H1515 0.950 . S
C1539 C1538 1.524 . S
C1539 C1540 1.415 . S
C1540 H1516 0.950 . S
C1540 C1535 1.363 . S
C1540 C1539 1.415 . S
C1541 H1517 0.951 . S
C1541 C1542 1.366 . S
C1541 C1543 1.388 . S
C1542 C1541 1.366 . S
C1542 C1546 1.385 . S
C1543 H1518 0.951 . S
C1543 C1541 1.388 . S
C1543 C1544 1.366 . S
C1544 C1543 1.366 . S
C1544 C1545 1.414 . S
C1544 C1547 1.499 . S
C1545 H1519 0.950 . S
C1545 C1544 1.414 . S
C1545 C1546 1.374 . S
C1546 H1520 0.950 . S
C1546 C1542 1.385 . S
C1546 C1545 1.374 . S
C1547 C1544 1.499 . S
C1547 C1548 1.373 . S
C1547 C1549 1.389 . S
C1548 H1521 0.950 . S
C1548 C1534 1.377 . S
C1548 C1547 1.373 . S
C1549 C1533 1.377 . S
C1549 C1547 1.389 . S
C1549 C1550 1.524 . S
C1550 C1549 1.524 . S
C1550 C1551 1.397 . S
C1550 C1555 1.363 . S
C1551 H1522 0.950 . S
C1551 C1550 1.397 . S
C1551 C1552 1.334 . S
C1552 H1523 0.950 . S
C1552 C1551 1.334 . S
C1552 C1553 1.287 . S
C1553 C1552 1.287 . S
C1553 C1554 1.524 . S
C1553 H1556 0.999 . S
C1554 H1524 0.950 . S
C1554 C1553 1.524 . S
C1554 C1555 1.415 . S
C1555 H1525 0.950 . S
C1555 C1550 1.363 . S
C1555 C1554 1.415 . S
H1556 C1553 0.999 . S
H1557 C1538 0.913 . S
H1558 C1576 0.951 . S
H1559 C1578 0.951 . S
H1560 C1580 0.950 . S
H1561 C1581 0.950 . S
H1562 C1583 0.950 . S
H1563 C1586 0.950 . S
H1564 C1587 0.950 . S
H1565 C1589 0.950 . S
H1566 C1590 0.950 . S
H1567 C1591 0.951 . S
H1568 C1593 0.951 . S
H1569 C1595 0.950 . S
H1570 C1596 0.950 . S
H1571 C1598 0.950 . S
H1572 C1601 0.950 . S
H1573 C1602 0.950 . S
H1574 C1604 0.950 . S
H1575 C1605 0.950 . S
C1576 H1558 0.951 . S
C1576 C1577 1.366 . S
C1576 C1578 1.388 . S
C1577 C1576 1.366 . S
C1577 C1581 1.385 . S
C1578 H1559 0.951 . S
C1578 C1576 1.388 . S
C1578 C1579 1.366 . S
C1579 C1578 1.366 . S
C1579 C1580 1.414 . S
C1579 C1582 1.499 . S
C1580 H1560 0.950 . S
C1580 C1579 1.414 . S
C1580 C1581 1.374 . S
C1581 H1561 0.950 . S
C1581 C1577 1.385 . S
C1581 C1580 1.374 . S
C1582 C1579 1.499 . S
C1582 C1583 1.373 . S
C1582 C1584 1.389 . S
C1583 H1562 0.950 . S
C1583 C1582 1.373 . S
C1583 C1599 1.377 . S
C1584 C1582 1.389 . S
C1584 C1585 1.524 . S
C1584 C1598 1.377 . S
C1585 C1584 1.524 . S
C1585 C1586 1.397 . S
C1585 C1590 1.363 . S
C1586 H1563 0.950 . S
C1586 C1585 1.397 . S
C1586 C1587 1.334 . S
C1587 H1564 0.950 . S
C1587 C1586 1.334 . S
C1587 C1588 1.287 . S
C1588 C1587 1.287 . S
C1588 C1589 1.524 . S
C1588 H1607 0.913 . S
C1589 H1565 0.950 . S
C1589 C1588 1.524 . S
C1589 C1590 1.415 . S
C1590 H1566 0.950 . S
C1590 C1585 1.363 . S
C1590 C1589 1.415 . S
C1591 H1567 0.951 . S
C1591 C1592 1.366 . S
C1591 C1593 1.388 . S
C1592 C1591 1.366 . S
C1592 C1596 1.385 . S
C1593 H1568 0.951 . S
C1593 C1591 1.388 . S
C1593 C1594 1.366 . S
C1594 C1593 1.366 . S
C1594 C1595 1.414 . S
C1594 C1597 1.499 . S
C1595 H1569 0.950 . S
C1595 C1594 1.414 . S
C1595 C1596 1.374 . S
C1596 H1570 0.950 . S
C1596 C1592 1.385 . S
C1596 C1595 1.374 . S
C1597 C1594 1.499 . S
C1597 C1598 1.373 . S
C1597 C1599 1.389 . S
C1598 H1571 0.950 . S
C1598 C1584 1.377 . S
C1598 C1597 1.373 . S
C1599 C1583 1.377 . S
C1599 C1597 1.389 . S
C1599 C1600 1.524 . S
C1600 C1599 1.524 . S
C1600 C1601 1.397 . S
C1600 C1605 1.363 . S
C1601 H1572 0.950 . S
C1601 C1600 1.397 . S
C1601 C1602 1.334 . S
C1602 H1573 0.950 . S
C1602 C1601 1.334 . S
C1602 C1603 1.287 . S
C1603 C1602 1.287 . S
C1603 C1604 1.524 . S
C1603 H1606 0.999 . S
C1604 H1574 0.950 . S
C1604 C1603 1.524 . S
C1604 C1605 1.415 . S
C1605 H1575 0.950 . S
C1605 C1600 1.363 . S
C1605 C1604 1.415 . S
H1606 C1603 0.999 . S
H1607 C1588 0.913 . S
H1608 C1626 0.951 . S
H1609 C1628 0.951 . S
H1610 C1630 0.950 . S
H1611 C1631 0.950 . S
H1612 C1633 0.950 . S
H1613 C1636 0.950 . S
H1614 C1637 0.950 . S
H1615 C1639 0.950 . S
H1616 C1640 0.950 . S
H1617 C1641 0.951 . S
H1618 C1643 0.951 . S
H1619 C1645 0.950 . S
H1620 C1646 0.950 . S
H1621 C1648 0.950 . S
H1622 C1651 0.950 . S
H1623 C1652 0.950 . S
H1624 C1654 0.950 . S
H1625 C1655 0.950 . S
C1626 H1608 0.951 . S
C1626 C1627 1.366 . S
C1626 C1628 1.388 . S
C1627 C1626 1.366 . S
C1627 C1631 1.385 . S
C1628 H1609 0.951 . S
C1628 C1626 1.388 . S
C1628 C1629 1.366 . S
C1629 C1628 1.366 . S
C1629 C1630 1.414 . S
C1629 C1632 1.499 . S
C1630 H1610 0.950 . S
C1630 C1629 1.414 . S
C1630 C1631 1.374 . S
C1631 H1611 0.950 . S
C1631 C1627 1.385 . S
C1631 C1630 1.374 . S
C1632 C1629 1.499 . S
C1632 C1633 1.373 . S
C1632 C1634 1.389 . S
C1633 H1612 0.950 . S
C1633 C1632 1.373 . S
C1633 C1649 1.377 . S
C1634 C1632 1.389 . S
C1634 C1635 1.524 . S
C1634 C1648 1.377 . S
C1635 C1634 1.524 . S
C1635 C1636 1.397 . S
C1635 C1640 1.363 . S
C1636 H1613 0.950 . S
C1636 C1635 1.397 . S
C1636 C1637 1.334 . S
C1637 H1614 0.950 . S
C1637 C1636 1.334 . S
C1637 C1638 1.287 . S
C1638 C1637 1.287 . S
C1638 C1639 1.524 . S
C1638 H1657 0.913 . S
C1639 H1615 0.950 . S
C1639 C1638 1.524 . S
C1639 C1640 1.415 . S
C1640 H1616 0.950 . S
C1640 C1635 1.363 . S
C1640 C1639 1.415 . S
C1641 H1617 0.951 . S
C1641 C1642 1.366 . S
C1641 C1643 1.388 . S
C1642 C1641 1.366 . S
C1642 C1646 1.385 . S
C1643 H1618 0.951 . S
C1643 C1641 1.388 . S
C1643 C1644 1.366 . S
C1644 C1643 1.366 . S
C1644 C1645 1.414 . S
C1644 C1647 1.499 . S
C1645 H1619 0.950 . S
C1645 C1644 1.414 . S
C1645 C1646 1.374 . S
C1646 H1620 0.950 . S
C1646 C1642 1.385 . S
C1646 C1645 1.374 . S
C1647 C1644 1.499 . S
C1647 C1648 1.373 . S
C1647 C1649 1.389 . S
C1648 H1621 0.950 . S
C1648 C1634 1.377 . S
C1648 C1647 1.373 . S
C1649 C1633 1.377 . S
C1649 C1647 1.389 . S
C1649 C1650 1.524 . S
C1650 C1649 1.524 . S
C1650 C1651 1.397 . S
C1650 C1655 1.363 . S
C1651 H1622 0.950 . S
C1651 C1650 1.397 . S
C1651 C1652 1.334 . S
C1652 H1623 0.950 . S
C1652 C1651 1.334 . S
C1652 C1653 1.287 . S
C1653 C1652 1.287 . S
C1653 C1654 1.524 . S
C1653 H1656 0.999 . S
C1654 H1624 0.950 . S
C1654 C1653 1.524 . S
C1654 C1655 1.415 . S
C1655 H1625 0.950 . S
C1655 C1650 1.363 . S
C1655 C1654 1.415 . S
H1656 C1653 0.999 . S
H1657 C1638 0.913 . S
H1658 C1676 0.951 . S
H1659 C1678 0.951 . S
H1660 C1680 0.950 . S
H1661 C1681 0.950 . S
H1662 C1683 0.950 . S
H1663 C1686 0.950 . S
H1664 C1687 0.950 . S
H1665 C1689 0.950 . S
H1666 C1690 0.950 . S
H1667 C1691 0.951 . S
H1668 C1693 0.951 . S
H1669 C1695 0.950 . S
H1670 C1696 0.950 . S
H1671 C1698 0.950 . S
H1672 C1701 0.950 . S
H1673 C1702 0.950 . S
H1674 C1704 0.950 . S
H1675 C1705 0.950 . S
C1676 H1658 0.951 . S
C1676 C1677 1.366 . S
C1676 C1678 1.388 . S
C1677 C1676 1.366 . S
C1677 C1681 1.385 . S
C1678 H1659 0.951 . S
C1678 C1676 1.388 . S
C1678 C1679 1.366 . S
C1679 C1678 1.366 . S
C1679 C1680 1.414 . S
C1679 C1682 1.499 . S
C1680 H1660 0.950 . S
C1680 C1679 1.414 . S
C1680 C1681 1.374 . S
C1681 H1661 0.950 . S
C1681 C1677 1.385 . S
C1681 C1680 1.374 . S
C1682 C1679 1.499 . S
C1682 C1683 1.373 . S
C1682 C1684 1.389 . S
C1683 H1662 0.950 . S
C1683 C1682 1.373 . S
C1683 C1699 1.377 . S
C1684 C1682 1.389 . S
C1684 C1685 1.524 . S
C1684 C1698 1.377 . S
C1685 C1684 1.524 . S
C1685 C1686 1.397 . S
C1685 C1690 1.363 . S
C1686 H1663 0.950 . S
C1686 C1685 1.397 . S
C1686 C1687 1.334 . S
C1687 H1664 0.950 . S
C1687 C1686 1.334 . S
C1687 C1688 1.287 . S
C1688 C1687 1.287 . S
C1688 C1689 1.524 . S
C1688 H1707 0.913 . S
C1689 H1665 0.950 . S
C1689 C1688 1.524 . S
C1689 C1690 1.415 . S
C1690 H1666 0.950 . S
C1690 C1685 1.363 . S
C1690 C1689 1.415 . S
C1691 H1667 0.951 . S
C1691 C1692 1.366 . S
C1691 C1693 1.388 . S
C1692 C1691 1.366 . S
C1692 C1696 1.385 . S
C1693 H1668 0.951 . S
C1693 C1691 1.388 . S
C1693 C1694 1.366 . S
C1694 C1693 1.366 . S
C1694 C1695 1.414 . S
C1694 C1697 1.499 . S
C1695 H1669 0.950 . S
C1695 C1694 1.414 . S
C1695 C1696 1.374 . S
C1696 H1670 0.950 . S
C1696 C1692 1.385 . S
C1696 C1695 1.374 . S
C1697 C1694 1.499 . S
C1697 C1698 1.373 . S
C1697 C1699 1.389 . S
C1698 H1671 0.950 . S
C1698 C1684 1.377 . S
C1698 C1697 1.373 . S
C1699 C1683 1.377 . S
C1699 C1697 1.389 . S
C1699 C1700 1.524 . S
C1700 C1699 1.524 . S
C1700 C1701 1.397 . S
C1700 C1705 1.363 . S
C1701 H1672 0.950 . S
C1701 C1700 1.397 . S
C1701 C1702 1.334 . S
C1702 H1673 0.950 . S
C1702 C1701 1.334 . S
C1702 C1703 1.287 . S
C1703 C1702 1.287 . S
C1703 C1704 1.524 . S
C1703 H1706 0.999 . S
C1704 H1674 0.950 . S
C1704 C1703 1.524 . S
C1704 C1705 1.415 . S
C1705 H1675 0.950 . S
C1705 C1700 1.363 . S
C1705 C1704 1.415 . S
H1706 C1703 0.999 . S
H1707 C1688 0.913 . S
H1708 C1726 0.951 . S
H1709 C1728 0.951 . S
H1710 C1730 0.950 . S
H1711 C1731 0.950 . S
H1712 C1733 0.950 . S
H1713 C1736 0.950 . S
H1714 C1737 0.950 . S
H1715 C1739 0.950 . S
H1716 C1740 0.950 . S
H1717 C1741 0.951 . S
H1718 C1743 0.951 . S
H1719 C1745 0.950 . S
H1720 C1746 0.950 . S
H1721 C1748 0.950 . S
H1722 C1751 0.950 . S
H1723 C1752 0.950 . S
H1724 C1754 0.950 . S
H1725 C1755 0.950 . S
C1726 H1708 0.951 . S
C1726 C1727 1.366 . S
C1726 C1728 1.388 . S
C1727 C1726 1.366 . S
C1727 C1731 1.385 . S
C1728 H1709 0.951 . S
C1728 C1726 1.388 . S
C1728 C1729 1.366 . S
C1729 C1728 1.366 . S
C1729 C1730 1.414 . S
C1729 C1732 1.499 . S
C1730 H1710 0.950 . S
C1730 C1729 1.414 . S
C1730 C1731 1.374 . S
C1731 H1711 0.950 . S
C1731 C1727 1.385 . S
C1731 C1730 1.374 . S
C1732 C1729 1.499 . S
C1732 C1733 1.373 . S
C1732 C1734 1.389 . S
C1733 H1712 0.950 . S
C1733 C1732 1.373 . S
C1733 C1749 1.377 . S
C1734 C1732 1.389 . S
C1734 C1735 1.524 . S
C1734 C1748 1.377 . S
C1735 C1734 1.524 . S
C1735 C1736 1.397 . S
C1735 C1740 1.363 . S
C1736 H1713 0.950 . S
C1736 C1735 1.397 . S
C1736 C1737 1.334 . S
C1737 H1714 0.950 . S
C1737 C1736 1.334 . S
C1737 C1738 1.287 . S
C1738 C1737 1.287 . S
C1738 C1739 1.524 . S
C1738 H1757 0.913 . S
C1739 H1715 0.950 . S
C1739 C1738 1.524 . S
C1739 C1740 1.415 . S
C1740 H1716 0.950 . S
C1740 C1735 1.363 . S
C1740 C1739 1.415 . S
C1741 H1717 0.951 . S
C1741 C1742 1.366 . S
C1741 C1743 1.388 . S
C1742 C1741 1.366 . S
C1742 C1746 1.385 . S
C1743 H1718 0.951 . S
C1743 C1741 1.388 . S
C1743 C1744 1.366 . S
C1744 C1743 1.366 . S
C1744 C1745 1.414 . S
C1744 C1747 1.499 . S
C1745 H1719 0.950 . S
C1745 C1744 1.414 . S
C1745 C1746 1.374 . S
C1746 H1720 0.950 . S
C1746 C1742 1.385 . S
C1746 C1745 1.374 . S
C1747 C1744 1.499 . S
C1747 C1748 1.373 . S
C1747 C1749 1.389 . S
C1748 H1721 0.950 . S
C1748 C1734 1.377 . S
C1748 C1747 1.373 . S
C1749 C1733 1.377 . S
C1749 C1747 1.389 . S
C1749 C1750 1.524 . S
C1750 C1749 1.524 . S
C1750 C1751 1.397 . S
C1750 C1755 1.363 . S
C1751 H1722 0.950 . S
C1751 C1750 1.397 . S
C1751 C1752 1.334 . S
C1752 H1723 0.950 . S
C1752 C1751 1.334 . S
C1752 C1753 1.287 . S
C1753 C1752 1.287 . S
C1753 C1754 1.524 . S
C1753 H1756 0.999 . S
C1754 H1724 0.950 . S
C1754 C1753 1.524 . S
C1754 C1755 1.415 . S
C1755 H1725 0.950 . S
C1755 C1750 1.363 . S
C1755 C1754 1.415 . S
H1756 C1753 0.999 . S
H1757 C1738 0.913 . S
H1758 C1776 0.951 . S
H1759 C1778 0.950 . S
H1760 C1780 0.950 . S
H1761 C1781 0.950 . S
H1762 C1783 0.950 . S
H1763 C1786 0.950 . S
H1764 C1787 0.950 . S
H1765 C1789 0.950 . S
H1766 C1790 0.948 1_554 S
H1767 C1791 0.951 . S
H1768 C1793 0.950 . S
H1769 C1795 0.950 . S
H1770 C1796 0.950 . S
H1771 C1798 0.950 . S
H1772 C1801 0.950 . S
H1773 C1802 0.950 . S
H1774 C1804 0.950 . S
H1775 C1805 0.948 1_556 S
C1776 H1758 0.951 . S
C1776 C1777 1.366 . S
C1776 C1778 1.388 . S
C1777 C1776 1.366 . S
C1777 C1781 1.385 . S
C1778 H1759 0.950 . S
C1778 C1776 1.388 . S
C1778 C1779 1.366 . S
C1779 C1778 1.366 . S
C1779 C1780 1.414 . S
C1779 C1782 1.499 . S
C1780 H1760 0.950 . S
C1780 C1779 1.414 . S
C1780 C1781 1.374 . S
C1781 H1761 0.950 . S
C1781 C1777 1.385 . S
C1781 C1780 1.374 . S
C1782 C1779 1.499 . S
C1782 C1783 1.373 1_565 S
C1782 C1784 1.389 . S
C1783 H1762 0.950 . S
C1783 C1782 1.373 1_545 S
C1783 C1799 1.377 1_556 S
C1784 C1782 1.389 . S
C1784 C1785 1.524 . S
C1784 C1798 1.377 1_556 S
C1785 C1784 1.524 . S
C1785 C1786 1.397 . S
C1785 C1790 1.363 . S
C1786 H1763 0.950 . S
C1786 C1785 1.397 . S
C1786 C1787 1.334 . S
C1787 H1764 0.950 . S
C1787 C1786 1.334 . S
C1787 C1788 1.287 . S
C1788 C1787 1.287 . S
C1788 C1789 1.524 . S
C1788 H1807 0.913 . S
C1789 H1765 0.950 . S
C1789 C1788 1.524 . S
C1789 C1790 1.415 . S
C1790 H1766 0.948 1_556 S
C1790 C1785 1.363 . S
C1790 C1789 1.415 . S
C1791 H1767 0.951 . S
C1791 C1792 1.366 . S
C1791 C1793 1.388 . S
C1792 C1791 1.366 . S
C1792 C1796 1.385 . S
C1793 H1768 0.950 . S
C1793 C1791 1.388 . S
C1793 C1794 1.366 . S
C1794 C1793 1.366 . S
C1794 C1795 1.414 . S
C1794 C1797 1.499 . S
C1795 H1769 0.950 . S
C1795 C1794 1.414 . S
C1795 C1796 1.374 . S
C1796 H1770 0.950 . S
C1796 C1792 1.385 . S
C1796 C1795 1.374 . S
C1797 C1794 1.499 . S
C1797 C1798 1.373 1_545 S
C1797 C1799 1.389 . S
C1798 H1771 0.950 . S
C1798 C1784 1.377 1_554 S
C1798 C1797 1.373 1_565 S
C1799 C1783 1.377 1_554 S
C1799 C1797 1.389 . S
C1799 C1800 1.524 . S
C1800 C1799 1.524 . S
C1800 C1801 1.397 . S
C1800 C1805 1.363 . S
C1801 H1772 0.950 . S
C1801 C1800 1.397 . S
C1801 C1802 1.334 . S
C1802 H1773 0.950 . S
C1802 C1801 1.334 . S
C1802 C1803 1.287 . S
C1803 C1802 1.287 . S
C1803 C1804 1.524 . S
C1803 H1806 0.999 . S
C1804 H1774 0.950 . S
C1804 C1803 1.524 . S
C1804 C1805 1.415 . S
C1805 H1775 0.948 1_554 S
C1805 C1800 1.363 . S
C1805 C1804 1.415 . S
H1806 C1803 0.999 . S
H1807 C1788 0.913 . S
H1808 C1826 0.951 . S
H1809 C1828 0.951 . S
H1810 C1830 0.950 . S
H1811 C1831 0.950 . S
H1812 C1833 0.950 . S
H1813 C1836 0.950 . S
H1814 C1837 0.950 . S
H1815 C1839 0.950 . S
H1816 C1840 0.950 . S
H1817 C1841 0.951 . S
H1818 C1843 0.951 . S
H1819 C1845 0.950 . S
H1820 C1846 0.950 . S
H1821 C1848 0.950 . S
H1822 C1851 0.950 . S
H1823 C1852 0.950 . S
H1824 C1854 0.950 . S
H1825 C1855 0.950 . S
C1826 H1808 0.951 . S
C1826 C1827 1.366 . S
C1826 C1828 1.388 . S
C1827 C1826 1.366 . S
C1827 C1831 1.385 . S
C1828 H1809 0.951 . S
C1828 C1826 1.388 . S
C1828 C1829 1.366 . S
C1829 C1828 1.366 . S
C1829 C1830 1.414 . S
C1829 C1832 1.499 . S
C1830 H1810 0.950 . S
C1830 C1829 1.414 . S
C1830 C1831 1.374 . S
C1831 H1811 0.950 . S
C1831 C1827 1.385 . S
C1831 C1830 1.374 . S
C1832 C1829 1.499 . S
C1832 C1833 1.373 1_655 S
C1832 C1834 1.389 . S
C1833 H1812 0.950 . S
C1833 C1832 1.373 1_455 S
C1833 C1849 1.377 1_554 S
C1834 C1832 1.389 . S
C1834 C1835 1.524 . S
C1834 C1848 1.377 1_554 S
C1835 C1834 1.524 . S
C1835 C1836 1.397 . S
C1835 C1840 1.363 . S
C1836 H1813 0.950 . S
C1836 C1835 1.397 . S
C1836 C1837 1.334 . S
C1837 H1814 0.950 . S
C1837 C1836 1.334 . S
C1837 C1838 1.287 . S
C1838 C1837 1.287 . S
C1838 C1839 1.524 . S
C1838 H1857 0.913 . S
C1839 H1815 0.950 . S
C1839 C1838 1.524 . S
C1839 C1840 1.415 . S
C1840 H1816 0.950 . S
C1840 C1835 1.363 . S
C1840 C1839 1.415 . S
C1841 H1817 0.951 . S
C1841 C1842 1.366 . S
C1841 C1843 1.388 . S
C1842 C1841 1.366 . S
C1842 C1846 1.385 . S
C1843 H1818 0.951 . S
C1843 C1841 1.388 . S
C1843 C1844 1.366 . S
C1844 C1843 1.366 . S
C1844 C1845 1.414 . S
C1844 C1847 1.499 . S
C1845 H1819 0.950 . S
C1845 C1844 1.414 . S
C1845 C1846 1.374 . S
C1846 H1820 0.950 . S
C1846 C1842 1.385 . S
C1846 C1845 1.374 . S
C1847 C1844 1.499 . S
C1847 C1848 1.373 1_455 S
C1847 C1849 1.389 . S
C1848 H1821 0.950 . S
C1848 C1834 1.377 1_556 S
C1848 C1847 1.373 1_655 S
C1849 C1833 1.377 1_556 S
C1849 C1847 1.389 . S
C1849 C1850 1.524 . S
C1850 C1849 1.524 . S
C1850 C1851 1.397 . S
C1850 C1855 1.363 . S
C1851 H1822 0.950 . S
C1851 C1850 1.397 . S
C1851 C1852 1.334 . S
C1852 H1823 0.950 . S
C1852 C1851 1.334 . S
C1852 C1853 1.287 . S
C1853 C1852 1.287 . S
C1853 C1854 1.524 . S
C1853 H1856 0.999 . S
C1854 H1824 0.950 . S
C1854 C1853 1.524 . S
C1854 C1855 1.415 . S
C1855 H1825 0.950 . S
C1855 C1850 1.363 . S
C1855 C1854 1.415 . S
H1856 C1853 0.999 . S
H1857 C1838 0.913 . S
H1858 C1876 0.951 . S
H1859 C1878 0.951 . S
H1860 C1880 0.950 . S
H1861 C1881 0.950 . S
H1862 C1883 0.950 . S
H1863 C1886 0.950 . S
H1864 C1887 0.950 . S
H1865 C1889 0.950 . S
H1866 C1890 0.950 . S
H1867 C1891 0.951 . S
H1868 C1893 0.951 . S
H1869 C1895 0.950 . S
H1870 C1896 0.950 . S
H1871 C1898 0.950 . S
H1872 C1901 0.950 . S
H1873 C1902 0.950 . S
H1874 C1904 0.950 . S
H1875 C1905 0.950 . S
C1876 H1858 0.951 . S
C1876 C1877 1.366 . S
C1876 C1878 1.388 . S
C1877 C1876 1.366 . S
C1877 C1881 1.385 . S
C1878 H1859 0.951 . S
C1878 C1876 1.388 . S
C1878 C1879 1.366 . S
C1879 C1878 1.366 . S
C1879 C1880 1.414 . S
C1879 C1882 1.499 . S
C1880 H1860 0.950 . S
C1880 C1879 1.414 . S
C1880 C1881 1.374 . S
C1881 H1861 0.950 . S
C1881 C1877 1.385 . S
C1881 C1880 1.374 . S
C1882 C1879 1.499 . S
C1882 C1883 1.373 . S
C1882 C1884 1.389 . S
C1883 H1862 0.950 . S
C1883 C1882 1.373 . S
C1883 C1899 1.377 1_554 S
C1884 C1882 1.389 . S
C1884 C1885 1.524 . S
C1884 C1898 1.377 1_554 S
C1885 C1884 1.524 . S
C1885 C1886 1.397 . S
C1885 C1890 1.363 . S
C1886 H1863 0.950 . S
C1886 C1885 1.397 . S
C1886 C1887 1.334 . S
C1887 H1864 0.950 . S
C1887 C1886 1.334 . S
C1887 C1888 1.287 . S
C1888 C1887 1.287 . S
C1888 C1889 1.524 . S
C1888 H1907 0.913 . S
C1889 H1865 0.950 . S
C1889 C1888 1.524 . S
C1889 C1890 1.415 . S
C1890 H1866 0.950 . S
C1890 C1885 1.363 . S
C1890 C1889 1.415 . S
C1891 H1867 0.951 . S
C1891 C1892 1.366 . S
C1891 C1893 1.388 . S
C1892 C1891 1.366 . S
C1892 C1896 1.385 . S
C1893 H1868 0.951 . S
C1893 C1891 1.388 . S
C1893 C1894 1.366 . S
C1894 C1893 1.366 . S
C1894 C1895 1.414 . S
C1894 C1897 1.499 . S
C1895 H1869 0.950 . S
C1895 C1894 1.414 . S
C1895 C1896 1.374 . S
C1896 H1870 0.950 . S
C1896 C1892 1.385 . S
C1896 C1895 1.374 . S
C1897 C1894 1.499 . S
C1897 C1898 1.373 . S
C1897 C1899 1.389 . S
C1898 H1871 0.950 . S
C1898 C1884 1.377 1_556 S
C1898 C1897 1.373 . S
C1899 C1883 1.377 1_556 S
C1899 C1897 1.389 . S
C1899 C1900 1.524 . S
C1900 C1899 1.524 . S
C1900 C1901 1.397 . S
C1900 C1905 1.363 . S
C1901 H1872 0.950 . S
C1901 C1900 1.397 . S
C1901 C1902 1.334 . S
C1902 H1873 0.950 . S
C1902 C1901 1.334 . S
C1902 C1903 1.287 . S
C1903 C1902 1.287 . S
C1903 C1904 1.524 . S
C1903 H1906 0.999 . S
C1904 H1874 0.950 . S
C1904 C1903 1.524 . S
C1904 C1905 1.415 . S
C1905 H1875 0.950 . S
C1905 C1900 1.363 . S
C1905 C1904 1.415 . S
H1906 C1903 0.999 . S
H1907 C1888 0.913 . S
H1908 C1926 0.951 . S
H1909 C1928 0.951 . S
H1910 C1930 0.950 . S
H1911 C1931 0.950 . S
H1912 C1933 0.950 . S
H1913 C1936 0.950 . S
H1914 C1937 0.950 . S
H1915 C1939 0.950 . S
H1916 C1940 0.950 . S
H1917 C1941 0.951 . S
H1918 C1943 0.951 . S
H1919 C1945 0.950 . S
H1920 C1946 0.950 . S
H1921 C1948 0.950 . S
H1922 C1951 0.950 . S
H1923 C1952 0.950 . S
H1924 C1954 0.950 . S
H1925 C1955 0.950 . S
C1926 H1908 0.951 . S
C1926 C1927 1.366 . S
C1926 C1928 1.388 . S
C1927 C1926 1.366 . S
C1927 C1931 1.385 . S
C1928 H1909 0.951 . S
C1928 C1926 1.388 . S
C1928 C1929 1.366 . S
C1929 C1928 1.366 . S
C1929 C1930 1.414 . S
C1929 C1932 1.499 . S
C1930 H1910 0.950 . S
C1930 C1929 1.414 . S
C1930 C1931 1.374 . S
C1931 H1911 0.950 . S
C1931 C1927 1.385 . S
C1931 C1930 1.374 . S
C1932 C1929 1.499 . S
C1932 C1933 1.373 . S
C1932 C1934 1.389 . S
C1933 H1912 0.950 . S
C1933 C1932 1.373 . S
C1933 C1949 1.377 . S
C1934 C1932 1.389 . S
C1934 C1935 1.524 . S
C1934 C1948 1.377 . S
C1935 C1934 1.524 . S
C1935 C1936 1.397 . S
C1935 C1940 1.363 . S
C1936 H1913 0.950 . S
C1936 C1935 1.397 . S
C1936 C1937 1.334 . S
C1937 H1914 0.950 . S
C1937 C1936 1.334 . S
C1937 C1938 1.287 . S
C1938 C1937 1.287 . S
C1938 C1939 1.524 . S
C1938 H1957 0.913 . S
C1939 H1915 0.950 . S
C1939 C1938 1.524 . S
C1939 C1940 1.415 . S
C1940 H1916 0.950 . S
C1940 C1935 1.363 . S
C1940 C1939 1.415 . S
C1941 H1917 0.951 . S
C1941 C1942 1.366 . S
C1941 C1943 1.388 . S
C1942 C1941 1.366 . S
C1942 C1946 1.385 . S
C1943 H1918 0.951 . S
C1943 C1941 1.388 . S
C1943 C1944 1.366 . S
C1944 C1943 1.366 . S
C1944 C1945 1.414 . S
C1944 C1947 1.499 . S
C1945 H1919 0.950 . S
C1945 C1944 1.414 . S
C1945 C1946 1.374 . S
C1946 H1920 0.950 . S
C1946 C1942 1.385 . S
C1946 C1945 1.374 . S
C1947 C1944 1.499 . S
C1947 C1948 1.373 . S
C1947 C1949 1.389 . S
C1948 H1921 0.950 . S
C1948 C1934 1.377 . S
C1948 C1947 1.373 . S
C1949 C1933 1.377 . S
C1949 C1947 1.389 . S
C1949 C1950 1.524 . S
C1950 C1949 1.524 . S
C1950 C1951 1.397 . S
C1950 C1955 1.363 . S
C1951 H1922 0.950 . S
C1951 C1950 1.397 . S
C1951 C1952 1.334 . S
C1952 H1923 0.950 . S
C1952 C1951 1.334 . S
C1952 C1953 1.287 . S
C1953 C1952 1.287 . S
C1953 C1954 1.524 . S
C1953 H1956 0.999 . S
C1954 H1924 0.950 . S
C1954 C1953 1.524 . S
C1954 C1955 1.415 . S
C1955 H1925 0.950 . S
C1955 C1950 1.363 . S
C1955 C1954 1.415 . S
H1956 C1953 0.999 . S
H1957 C1938 0.913 . S
H1958 C1976 0.951 . S
H1959 C1978 0.907 1_565 S
H1960 C1980 0.950 . S
H1961 C1981 0.950 . S
H1962 C1983 0.950 . S
H1963 C1986 0.950 . S
H1964 C1987 0.950 . S
H1965 C1989 0.950 . S
H1966 C1990 0.950 . S
H1967 C1991 0.951 . S
H1968 C1993 0.951 . S
H1969 C1995 0.950 . S
H1970 C1996 0.950 . S
H1971 C1998 0.950 . S
H1972 C2001 0.950 . S
H1973 C2002 0.950 1_565 S
H1974 C2004 0.950 . S
H1975 C2005 0.950 . S
C1976 H1958 0.951 . S
C1976 C1977 1.366 . S
C1976 C1978 1.423 . S
C1977 C1976 1.366 . S
C1977 C1981 1.385 . S
C1978 H1959 0.907 1_545 S
C1978 C1976 1.423 . S
C1978 C1979 1.377 . S
C1979 C1978 1.377 . S
C1979 C1980 1.414 . S
C1979 C1982 1.503 . S
C1980 H1960 0.950 . S
C1980 C1979 1.414 . S
C1980 C1981 1.374 . S
C1981 H1961 0.950 . S
C1981 C1977 1.385 . S
C1981 C1980 1.374 . S
C1982 C1979 1.503 . S
C1982 C1983 1.378 . S
C1982 C1984 1.380 1_545 S
C1983 H1962 0.950 . S
C1983 C1982 1.378 . S
C1983 C1999 1.377 1_545 S
C1984 C1982 1.380 1_565 S
C1984 C1985 1.524 . S
C1984 C1998 1.377 . S
C1985 C1984 1.524 . S
C1985 C1986 1.397 . S
C1985 C1990 1.363 . S
C1986 H1963 0.950 . S
C1986 C1985 1.397 . S
C1986 C1987 1.334 . S
C1987 H1964 0.950 . S
C1987 C1986 1.334 . S
C1987 C1988 1.287 . S
C1988 C1987 1.287 . S
C1988 C1989 1.524 . S
C1988 H2007 0.913 . S
C1989 H1965 0.950 . S
C1989 C1988 1.524 . S
C1989 C1990 1.415 . S
C1990 H1966 0.950 . S
C1990 C1985 1.363 . S
C1990 C1989 1.415 . S
C1991 H1967 0.951 . S
C1991 C1992 1.366 . S
C1991 C1993 1.388 . S
C1992 C1991 1.366 . S
C1992 C1996 1.385 . S
C1993 H1968 0.951 . S
C1993 C1991 1.388 . S
C1993 C1994 1.366 . S
C1994 C1993 1.366 . S
C1994 C1995 1.414 . S
C1994 C1997 1.499 . S
C1995 H1969 0.950 . S
C1995 C1994 1.414 . S
C1995 C1996 1.374 . S
C1996 H1970 0.950 . S
C1996 C1992 1.385 . S
C1996 C1995 1.374 . S
C1997 C1994 1.499 . S
C1997 C1998 1.373 . S
C1997 C1999 1.389 . S
C1998 H1971 0.950 . S
C1998 C1984 1.377 . S
C1998 C1997 1.373 . S
C1999 C1983 1.377 1_565 S
C1999 C1997 1.389 . S
C1999 C2000 1.524 1_565 S
C2000 C1999 1.524 1_545 S
C2000 C2001 1.397 1_545 S
C2000 C2005 1.363 . S
C2001 H1972 0.950 . S
C2001 C2000 1.397 1_565 S
C2001 C2002 1.334 1_565 S
C2002 H1973 0.950 1_545 S
C2002 C2001 1.334 1_545 S
C2002 C2003 1.287 . S
C2003 C2002 1.287 . S
C2003 C2004 1.524 . S
C2003 H2006 0.999 . S
C2004 H1974 0.950 . S
C2004 C2003 1.524 . S
C2004 C2005 1.415 . S
C2005 H1975 0.950 . S
C2005 C2000 1.363 . S
C2005 C2004 1.415 . S
H2006 C2003 0.999 . S
H2007 C1988 0.913 . S
H2008 C2026 0.951 . S
H2009 C2028 0.951 . S
H2010 C2030 0.950 1_455 S
H2011 C2031 0.950 . S
H2012 C2033 0.950 . S
H2013 C2036 0.950 . S
H2014 C2037 0.950 . S
H2015 C2039 0.950 . S
H2016 C2040 0.950 . S
H2017 C2041 0.951 . S
H2018 C2043 0.951 . S
H2019 C2045 0.950 . S
H2020 C2046 0.950 . S
H2021 C2048 0.954 . S
H2022 C2051 0.950 . S
H2023 C2052 0.950 . S
H2024 C2054 0.950 . S
H2025 C2055 0.950 . S
C2026 H2008 0.951 . S
C2026 C2027 1.366 . S
C2026 C2028 1.388 . S
C2027 C2026 1.366 . S
C2027 C2031 1.385 . S
C2028 H2009 0.951 . S
C2028 C2026 1.388 . S
C2028 C2029 1.366 . S
C2029 C2028 1.366 . S
C2029 C2030 1.414 . S
C2029 C2032 1.502 . S
C2030 H2010 0.950 1_655 S
C2030 C2029 1.414 . S
C2030 C2031 1.374 . S
C2031 H2011 0.950 . S
C2031 C2027 1.385 . S
C2031 C2030 1.374 . S
C2032 C2029 1.502 . S
C2032 C2033 1.365 1_655 S
C2032 C2034 1.394 . S
C2033 H2012 0.950 . S
C2033 C2032 1.365 1_455 S
C2033 C2049 1.377 . S
C2034 C2032 1.394 . S
C2034 C2035 1.524 . S
C2034 C2048 1.379 . S
C2035 C2034 1.524 . S
C2035 C2036 1.397 . S
C2035 C2040 1.363 . S
C2036 H2013 0.950 . S
C2036 C2035 1.397 . S
C2036 C2037 1.334 . S
C2037 H2014 0.950 . S
C2037 C2036 1.334 . S
C2037 C2038 1.287 . S
C2038 C2037 1.287 . S
C2038 C2039 1.524 . S
C2038 H2057 0.913 . S
C2039 H2015 0.950 . S
C2039 C2038 1.524 . S
C2039 C2040 1.415 . S
C2040 H2016 0.950 . S
C2040 C2035 1.363 . S
C2040 C2039 1.415 . S
C2041 H2017 0.951 . S
C2041 C2042 1.366 . S
C2041 C2043 1.388 . S
C2042 C2041 1.366 . S
C2042 C2046 1.385 . S
C2043 H2018 0.951 . S
C2043 C2041 1.388 . S
C2043 C2044 1.366 . S
C2044 C2043 1.366 . S
C2044 C2045 1.414 . S
C2044 C2047 1.499 . S
C2045 H2019 0.950 . S
C2045 C2044 1.414 . S
C2045 C2046 1.374 . S
C2046 H2020 0.950 . S
C2046 C2042 1.385 . S
C2046 C2045 1.374 . S
C2047 C2044 1.499 . S
C2047 C2048 1.367 1_455 S
C2047 C2049 1.389 . S
C2048 H2021 0.954 . S
C2048 C2034 1.379 . S
C2048 C2047 1.367 1_655 S
C2049 C2033 1.377 . S
C2049 C2047 1.389 . S
C2049 C2050 1.524 . S
C2050 C2049 1.524 . S
C2050 C2051 1.397 . S
C2050 C2055 1.363 . S
C2051 H2022 0.950 . S
C2051 C2050 1.397 . S
C2051 C2052 1.334 . S
C2052 H2023 0.950 . S
C2052 C2051 1.334 . S
C2052 C2053 1.287 . S
C2053 C2052 1.287 . S
C2053 C2054 1.524 . S
C2053 H2056 0.999 . S
C2054 H2024 0.950 . S
C2054 C2053 1.524 . S
C2054 C2055 1.415 . S
C2055 H2025 0.950 . S
C2055 C2050 1.363 . S
C2055 C2054 1.415 . S
H2056 C2053 0.999 . S
H2057 C2038 0.913 . S
H2058 C2076 0.951 . S
H2059 C2078 0.951 . S
H2060 C2080 0.950 . S
H2061 C2081 0.950 . S
H2062 C2083 0.950 . S
H2063 C2086 0.950 . S
H2064 C2087 0.950 . S
H2065 C2089 0.950 . S
H2066 C2090 0.950 . S
H2067 C2091 0.951 . S
H2068 C2093 0.951 . S
H2069 C2095 0.950 . S
H2070 C2096 0.950 . S
H2071 C2098 0.950 . S
H2072 C2101 0.950 . S
H2073 C2102 0.950 . S
H2074 C2104 0.950 . S
H2075 C2105 0.950 . S
C2076 H2058 0.951 . S
C2076 C2077 1.366 . S
C2076 C2078 1.388 . S
C2077 C2076 1.366 . S
C2077 C2081 1.385 . S
C2078 H2059 0.951 . S
C2078 C2076 1.388 . S
C2078 C2079 1.366 . S
C2079 C2078 1.366 . S
C2079 C2080 1.414 . S
C2079 C2082 1.499 . S
C2080 H2060 0.950 . S
C2080 C2079 1.414 . S
C2080 C2081 1.374 . S
C2081 H2061 0.950 . S
C2081 C2077 1.385 . S
C2081 C2080 1.374 . S
C2082 C2079 1.499 . S
C2082 C2083 1.373 . S
C2082 C2084 1.389 . S
C2083 H2062 0.950 . S
C2083 C2082 1.373 . S
C2083 C2099 1.377 . S
C2084 C2082 1.389 . S
C2084 C2085 1.524 . S
C2084 C2098 1.377 . S
C2085 C2084 1.524 . S
C2085 C2086 1.397 . S
C2085 C2090 1.363 . S
C2086 H2063 0.950 . S
C2086 C2085 1.397 . S
C2086 C2087 1.334 . S
C2087 H2064 0.950 . S
C2087 C2086 1.334 . S
C2087 C2088 1.287 . S
C2088 C2087 1.287 . S
C2088 C2089 1.524 . S
C2088 H2107 0.913 . S
C2089 H2065 0.950 . S
C2089 C2088 1.524 . S
C2089 C2090 1.415 . S
C2090 H2066 0.950 . S
C2090 C2085 1.363 . S
C2090 C2089 1.415 . S
C2091 H2067 0.951 . S
C2091 C2092 1.366 . S
C2091 C2093 1.388 . S
C2092 C2091 1.366 . S
C2092 C2096 1.385 . S
C2093 H2068 0.951 . S
C2093 C2091 1.388 . S
C2093 C2094 1.366 . S
C2094 C2093 1.366 . S
C2094 C2095 1.414 . S
C2094 C2097 1.499 . S
C2095 H2069 0.950 . S
C2095 C2094 1.414 . S
C2095 C2096 1.374 . S
C2096 H2070 0.950 . S
C2096 C2092 1.385 . S
C2096 C2095 1.374 . S
C2097 C2094 1.499 . S
C2097 C2098 1.373 . S
C2097 C2099 1.389 . S
C2098 H2071 0.950 . S
C2098 C2084 1.377 . S
C2098 C2097 1.373 . S
C2099 C2083 1.377 . S
C2099 C2097 1.389 . S
C2099 C2100 1.524 . S
C2100 C2099 1.524 . S
C2100 C2101 1.397 . S
C2100 C2105 1.363 . S
C2101 H2072 0.950 . S
C2101 C2100 1.397 . S
C2101 C2102 1.334 . S
C2102 H2073 0.950 . S
C2102 C2101 1.334 . S
C2102 C2103 1.287 . S
C2103 C2102 1.287 . S
C2103 C2104 1.524 . S
C2103 H2106 0.999 . S
C2104 H2074 0.950 . S
C2104 C2103 1.524 . S
C2104 C2105 1.415 . S
C2105 H2075 0.950 . S
C2105 C2100 1.363 . S
C2105 C2104 1.415 . S
H2106 C2103 0.999 . S
H2107 C2088 0.913 . S
H2108 C2126 0.951 . S
H2109 C2128 0.951 . S
H2110 C2130 0.950 . S
H2111 C2131 0.950 . S
H2112 C2133 0.950 . S
H2113 C2136 0.950 . S
H2114 C2137 0.950 . S
H2115 C2139 0.950 . S
H2116 C2140 0.950 . S
H2117 C2141 0.951 . S
H2118 C2143 0.951 . S
H2119 C2145 0.950 . S
H2120 C2146 0.950 . S
H2121 C2148 0.950 . S
H2122 C2151 0.950 . S
H2123 C2152 0.950 . S
H2124 C2154 0.950 . S
H2125 C2155 0.953 . S
C2126 H2108 0.951 . S
C2126 C2127 1.366 . S
C2126 C2128 1.388 . S
C2127 C2126 1.366 . S
C2127 C2131 1.385 . S
C2128 H2109 0.951 . S
C2128 C2126 1.388 . S
C2128 C2129 1.366 . S
C2129 C2128 1.366 . S
C2129 C2130 1.414 . S
C2129 C2132 1.499 1_565 S
C2130 H2110 0.950 . S
C2130 C2129 1.414 . S
C2130 C2131 1.374 . S
C2131 H2111 0.950 . S
C2131 C2127 1.385 . S
C2131 C2130 1.374 . S
C2132 C2129 1.499 1_545 S
C2132 C2133 1.373 1_545 S
C2132 C2134 1.389 . S
C2133 H2112 0.950 . S
C2133 C2132 1.373 1_565 S
C2133 C2149 1.377 1_565 S
C2134 C2132 1.389 . S
C2134 C2135 1.524 . S
C2134 C2148 1.377 . S
C2135 C2134 1.524 . S
C2135 C2136 1.397 . S
C2135 C2140 1.363 . S
C2136 H2113 0.950 . S
C2136 C2135 1.397 . S
C2136 C2137 1.334 . S
C2137 H2114 0.950 . S
C2137 C2136 1.334 . S
C2137 C2138 1.287 . S
C2138 C2137 1.287 . S
C2138 C2139 1.524 . S
C2138 H2157 0.913 . S
C2139 H2115 0.950 . S
C2139 C2138 1.524 . S
C2139 C2140 1.415 . S
C2140 H2116 0.950 . S
C2140 C2135 1.363 . S
C2140 C2139 1.415 . S
C2141 H2117 0.951 . S
C2141 C2142 1.366 . S
C2141 C2143 1.388 . S
C2142 C2141 1.366 . S
C2142 C2146 1.385 . S
C2143 H2118 0.951 . S
C2143 C2141 1.388 . S
C2143 C2144 1.366 . S
C2144 C2143 1.366 . S
C2144 C2145 1.414 . S
C2144 C2147 1.499 . S
C2145 H2119 0.950 . S
C2145 C2144 1.414 . S
C2145 C2146 1.374 . S
C2146 H2120 0.950 . S
C2146 C2142 1.385 . S
C2146 C2145 1.374 . S
C2147 C2144 1.499 . S
C2147 C2148 1.373 . S
C2147 C2149 1.389 . S
C2148 H2121 0.950 . S
C2148 C2134 1.377 . S
C2148 C2147 1.373 . S
C2149 C2133 1.377 1_545 S
C2149 C2147 1.389 . S
C2149 C2150 1.520 1_545 S
C2150 C2149 1.520 1_565 S
C2150 C2151 1.398 . S
C2150 C2155 1.380 1_565 S
C2151 H2122 0.950 . S
C2151 C2150 1.398 . S
C2151 C2152 1.334 . S
C2152 H2123 0.950 . S
C2152 C2151 1.334 . S
C2152 C2153 1.287 . S
C2153 C2152 1.287 . S
C2153 C2154 1.524 . S
C2153 H2156 0.999 . S
C2154 H2124 0.950 . S
C2154 C2153 1.524 . S
C2154 C2155 1.400 1_565 S
C2155 H2125 0.953 . S
C2155 C2150 1.380 1_545 S
C2155 C2154 1.400 1_545 S
H2156 C2153 0.999 . S
H2157 C2138 0.913 . S
H2158 C2176 0.951 . S
H2159 C2178 0.951 . S
H2160 C2180 0.950 . S
H2161 C2181 0.950 . S
H2162 C2183 0.950 1_455 S
H2163 C2186 0.950 . S
H2164 C2187 0.950 . S
H2165 C2189 0.950 . S
H2166 C2190 0.950 . S
H2167 C2191 0.951 . S
H2168 C2193 0.951 . S
H2169 C2195 0.954 1_655 S
H2170 C2196 0.950 . S
H2171 C2198 0.950 . S
H2172 C2201 0.950 . S
H2173 C2202 0.950 . S
H2174 C2204 0.950 . S
H2175 C2205 0.950 . S
C2176 H2158 0.951 . S
C2176 C2177 1.366 . S
C2176 C2178 1.388 . S
C2177 C2176 1.366 . S
C2177 C2181 1.385 . S
C2178 H2159 0.951 . S
C2178 C2176 1.388 . S
C2178 C2179 1.366 . S
C2179 C2178 1.366 . S
C2179 C2180 1.414 . S
C2179 C2182 1.499 . S
C2180 H2160 0.950 . S
C2180 C2179 1.414 . S
C2180 C2181 1.374 . S
C2181 H2161 0.950 . S
C2181 C2177 1.385 . S
C2181 C2180 1.374 . S
C2182 C2179 1.499 . S
C2182 C2183 1.373 . S
C2182 C2184 1.389 . S
C2183 H2162 0.950 1_655 S
C2183 C2182 1.373 . S
C2183 C2199 1.377 1_655 S
C2184 C2182 1.389 . S
C2184 C2185 1.524 . S
C2184 C2198 1.377 . S
C2185 C2184 1.524 . S
C2185 C2186 1.397 . S
C2185 C2190 1.363 . S
C2186 H2163 0.950 . S
C2186 C2185 1.397 . S
C2186 C2187 1.334 . S
C2187 H2164 0.950 . S
C2187 C2186 1.334 . S
C2187 C2188 1.287 . S
C2188 C2187 1.287 . S
C2188 C2189 1.524 . S
C2188 H2207 0.913 . S
C2189 H2165 0.950 . S
C2189 C2188 1.524 . S
C2189 C2190 1.415 . S
C2190 H2166 0.950 . S
C2190 C2185 1.363 . S
C2190 C2189 1.415 . S
C2191 H2167 0.951 . S
C2191 C2192 1.366 . S
C2191 C2193 1.388 . S
C2192 C2191 1.366 . S
C2192 C2196 1.385 . S
C2193 H2168 0.951 . S
C2193 C2191 1.388 . S
C2193 C2194 1.366 . S
C2194 C2193 1.366 . S
C2194 C2195 1.412 . S
C2194 C2197 1.490 1_455 S
C2195 H2169 0.954 1_455 S
C2195 C2194 1.412 . S
C2195 C2196 1.373 . S
C2196 H2170 0.950 . S
C2196 C2192 1.385 . S
C2196 C2195 1.373 . S
C2197 C2194 1.490 1_655 S
C2197 C2198 1.383 . S
C2197 C2199 1.387 1_655 S
C2198 H2171 0.950 . S
C2198 C2184 1.377 . S
C2198 C2197 1.383 . S
C2199 C2183 1.377 1_455 S
C2199 C2197 1.387 1_455 S
C2199 C2200 1.524 . S
C2200 C2199 1.524 . S
C2200 C2201 1.397 . S
C2200 C2205 1.363 . S
C2201 H2172 0.950 . S
C2201 C2200 1.397 . S
C2201 C2202 1.334 . S
C2202 H2173 0.950 . S
C2202 C2201 1.334 . S
C2202 C2203 1.287 . S
C2203 C2202 1.287 . S
C2203 C2204 1.524 . S
C2203 H2206 0.999 . S
C2204 H2174 0.950 . S
C2204 C2203 1.524 . S
C2204 C2205 1.415 . S
C2205 H2175 0.950 . S
C2205 C2200 1.363 . S
C2205 C2204 1.415 . S
H2206 C2203 0.999 . S
H2207 C2188 0.913 . S
H2208 C2226 0.951 . S
H2209 C2228 0.951 . S
H2210 C2230 0.950 . S
H2211 C2231 0.952 . S
H2212 C2233 0.950 . S
H2213 C2236 0.950 . S
H2214 C2237 0.950 . S
H2215 C2239 0.950 . S
H2216 C2240 0.950 . S
H2217 C2241 0.951 . S
H2218 C2243 0.951 . S
H2219 C2245 0.950 . S
H2220 C2246 0.950 . S
H2221 C2248 0.950 . S
H2222 C2251 0.950 . S
H2223 C2252 0.950 . S
H2224 C2254 0.950 . S
H2225 C2255 0.986 . S
C2226 H2208 0.951 . S
C2226 C2227 1.366 . S
C2226 C2228 1.388 . S
C2227 C2226 1.366 . S
C2227 C2231 1.384 1_655 S
C2228 H2209 0.951 . S
C2228 C2226 1.388 . S
C2228 C2229 1.366 . S
C2229 C2228 1.366 . S
C2229 C2230 1.414 . S
C2229 C2232 1.499 . S
C2230 H2210 0.950 . S
C2230 C2229 1.414 . S
C2230 C2231 1.373 1_655 S
C2231 H2211 0.952 . S
C2231 C2227 1.384 1_455 S
C2231 C2230 1.373 1_455 S
C2232 C2229 1.499 . S
C2232 C2233 1.373 . S
C2232 C2234 1.389 . S
C2233 H2212 0.950 . S
C2233 C2232 1.373 . S
C2233 C2249 1.377 . S
C2234 C2232 1.389 . S
C2234 C2235 1.524 . S
C2234 C2248 1.377 . S
C2235 C2234 1.524 . S
C2235 C2236 1.397 . S
C2235 C2240 1.363 . S
C2236 H2213 0.950 . S
C2236 C2235 1.397 . S
C2236 C2237 1.334 . S
C2237 H2214 0.950 . S
C2237 C2236 1.334 . S
C2237 C2238 1.287 . S
C2238 C2237 1.287 . S
C2238 C2239 1.524 . S
C2238 H2257 0.913 . S
C2239 H2215 0.950 . S
C2239 C2238 1.524 . S
C2239 C2240 1.415 . S
C2240 H2216 0.950 . S
C2240 C2235 1.363 . S
C2240 C2239 1.415 . S
C2241 H2217 0.951 . S
C2241 C2242 1.366 . S
C2241 C2243 1.388 . S
C2242 C2241 1.366 . S
C2242 C2246 1.385 . S
C2243 H2218 0.951 . S
C2243 C2241 1.388 . S
C2243 C2244 1.366 . S
C2244 C2243 1.366 . S
C2244 C2245 1.414 . S
C2244 C2247 1.499 . S
C2245 H2219 0.950 . S
C2245 C2244 1.414 . S
C2245 C2246 1.374 . S
C2246 H2220 0.950 . S
C2246 C2242 1.385 . S
C2246 C2245 1.374 . S
C2247 C2244 1.499 . S
C2247 C2248 1.373 . S
C2247 C2249 1.389 . S
C2248 H2221 0.950 . S
C2248 C2234 1.377 . S
C2248 C2247 1.373 . S
C2249 C2233 1.377 . S
C2249 C2247 1.389 . S
C2249 C2250 1.524 . S
C2250 C2249 1.524 . S
C2250 C2251 1.397 . S
C2250 C2255 1.304 1_655 S
C2251 H2222 0.950 . S
C2251 C2250 1.397 . S
C2251 C2252 1.334 . S
C2252 H2223 0.950 . S
C2252 C2251 1.334 . S
C2252 C2253 1.287 1_655 S
C2253 C2252 1.287 1_455 S
C2253 C2254 1.524 . S
C2253 H2256 0.999 . S
C2254 H2224 0.950 . S
C2254 C2253 1.524 . S
C2254 C2255 1.442 . S
C2255 H2225 0.986 . S
C2255 C2250 1.304 1_455 S
C2255 C2254 1.442 . S
H2256 C2253 0.999 . S
H2257 C2238 0.913 . S
H2258 C2276 0.951 . S
H2259 C2278 0.951 . S
H2260 C2280 0.950 . S
H2261 C2281 0.950 . S
H2262 C2283 0.950 . S
H2263 C2286 0.950 . S
H2264 C2287 0.950 . S
H2265 C2289 0.950 . S
H2266 C2290 0.950 . S
H2267 C2291 0.951 . S
H2268 C2293 0.951 . S
H2269 C2295 0.950 . S
H2270 C2296 0.950 . S
H2271 C2298 0.950 . S
H2272 C2301 0.950 . S
H2273 C2302 0.950 . S
H2274 C2304 0.950 . S
H2275 C2305 0.950 . S
C2276 H2258 0.951 . S
C2276 C2277 1.366 . S
C2276 C2278 1.388 . S
C2277 C2276 1.366 . S
C2277 C2281 1.385 . S
C2278 H2259 0.951 . S
C2278 C2276 1.388 . S
C2278 C2279 1.366 . S
C2279 C2278 1.366 . S
C2279 C2280 1.414 . S
C2279 C2282 1.499 . S
C2280 H2260 0.950 . S
C2280 C2279 1.414 . S
C2280 C2281 1.374 . S
C2281 H2261 0.950 . S
C2281 C2277 1.385 . S
C2281 C2280 1.374 . S
C2282 C2279 1.499 . S
C2282 C2283 1.373 . S
C2282 C2284 1.389 . S
C2283 H2262 0.950 . S
C2283 C2282 1.373 . S
C2283 C2299 1.377 . S
C2284 C2282 1.389 . S
C2284 C2285 1.524 . S
C2284 C2298 1.377 . S
C2285 C2284 1.524 . S
C2285 C2286 1.397 . S
C2285 C2290 1.363 . S
C2286 H2263 0.950 . S
C2286 C2285 1.397 . S
C2286 C2287 1.334 . S
C2287 H2264 0.950 . S
C2287 C2286 1.334 . S
C2287 C2288 1.287 . S
C2288 C2287 1.287 . S
C2288 C2289 1.524 . S
C2288 H2307 0.913 . S
C2289 H2265 0.950 . S
C2289 C2288 1.524 . S
C2289 C2290 1.415 . S
C2290 H2266 0.950 . S
C2290 C2285 1.363 . S
C2290 C2289 1.415 . S
C2291 H2267 0.951 . S
C2291 C2292 1.366 . S
C2291 C2293 1.388 . S
C2292 C2291 1.366 . S
C2292 C2296 1.385 . S
C2293 H2268 0.951 . S
C2293 C2291 1.388 . S
C2293 C2294 1.366 . S
C2294 C2293 1.366 . S
C2294 C2295 1.414 . S
C2294 C2297 1.499 . S
C2295 H2269 0.950 . S
C2295 C2294 1.414 . S
C2295 C2296 1.374 . S
C2296 H2270 0.950 . S
C2296 C2292 1.385 . S
C2296 C2295 1.374 . S
C2297 C2294 1.499 . S
C2297 C2298 1.373 . S
C2297 C2299 1.389 . S
C2298 H2271 0.950 . S
C2298 C2284 1.377 . S
C2298 C2297 1.373 . S
C2299 C2283 1.377 . S
C2299 C2297 1.389 . S
C2299 C2300 1.524 . S
C2300 C2299 1.524 . S
C2300 C2301 1.397 . S
C2300 C2305 1.363 . S
C2301 H2272 0.950 . S
C2301 C2300 1.397 . S
C2301 C2302 1.334 . S
C2302 H2273 0.950 . S
C2302 C2301 1.334 . S
C2302 C2303 1.287 . S
C2303 C2302 1.287 . S
C2303 C2304 1.524 . S
C2303 H2306 0.999 . S
C2304 H2274 0.950 . S
C2304 C2303 1.524 . S
C2304 C2305 1.415 . S
C2305 H2275 0.950 . S
C2305 C2300 1.363 . S
C2305 C2304 1.415 . S
H2306 C2303 0.999 . S
H2307 C2288 0.913 . S
H2308 C2326 0.951 . S
H2309 C2328 0.934 1_565 S
H2310 C2330 0.950 . S
H2311 C2331 0.950 . S
H2312 C2333 0.950 . S
H2313 C2336 0.950 1_545 S
H2314 C2337 0.950 . S
H2315 C2339 0.950 . S
H2316 C2340 0.950 . S
H2317 C2341 0.951 . S
H2318 C2343 0.951 . S
H2319 C2345 0.950 . S
H2320 C2346 0.950 . S
H2321 C2348 0.950 . S
H2322 C2351 0.950 . S
H2323 C2352 0.950 . S
H2324 C2354 0.950 . S
H2325 C2355 0.950 . S
C2326 H2308 0.951 . S
C2326 C2327 1.366 1_565 S
C2326 C2328 1.388 1_565 S
C2327 C2326 1.366 1_545 S
C2327 C2331 1.385 . S
C2328 H2309 0.934 1_545 S
C2328 C2326 1.388 1_545 S
C2328 C2329 1.366 . S
C2329 C2328 1.366 . S
C2329 C2330 1.414 . S
C2329 C2332 1.499 . S
C2330 H2310 0.950 . S
C2330 C2329 1.414 . S
C2330 C2331 1.374 . S
C2331 H2311 0.950 . S
C2331 C2327 1.385 . S
C2331 C2330 1.374 . S
C2332 C2329 1.499 . S
C2332 C2333 1.373 . S
C2332 C2334 1.389 . S
C2333 H2312 0.950 . S
C2333 C2332 1.373 . S
C2333 C2349 1.377 . S
C2334 C2332 1.389 . S
C2334 C2335 1.552 . S
C2334 C2348 1.377 . S
C2335 C2334 1.552 . S
C2335 C2336 1.385 1_545 S
C2335 C2340 1.349 1_545 S
C2336 H2313 0.950 1_565 S
C2336 C2335 1.385 1_565 S
C2336 C2337 1.334 . S
C2337 H2314 0.950 . S
C2337 C2336 1.334 . S
C2337 C2338 1.287 . S
C2338 C2337 1.287 . S
C2338 C2339 1.524 . S
C2338 H2357 0.913 . S
C2339 H2315 0.950 . S
C2339 C2338 1.524 . S
C2339 C2340 1.415 . S
C2340 H2316 0.950 . S
C2340 C2335 1.349 1_565 S
C2340 C2339 1.415 . S
C2341 H2317 0.951 . S
C2341 C2342 1.366 . S
C2341 C2343 1.388 . S
C2342 C2341 1.366 . S
C2342 C2346 1.385 . S
C2343 H2318 0.951 . S
C2343 C2341 1.388 . S
C2343 C2344 1.366 . S
C2344 C2343 1.366 . S
C2344 C2345 1.414 . S
C2344 C2347 1.499 . S
C2345 H2319 0.950 . S
C2345 C2344 1.414 . S
C2345 C2346 1.374 . S
C2346 H2320 0.950 . S
C2346 C2342 1.385 . S
C2346 C2345 1.374 . S
C2347 C2344 1.499 . S
C2347 C2348 1.373 . S
C2347 C2349 1.389 . S
C2348 H2321 0.950 . S
C2348 C2334 1.377 . S
C2348 C2347 1.373 . S
C2349 C2333 1.377 . S
C2349 C2347 1.389 . S
C2349 C2350 1.524 . S
C2350 C2349 1.524 . S
C2350 C2351 1.397 . S
C2350 C2355 1.363 . S
C2351 H2322 0.950 . S
C2351 C2350 1.397 . S
C2351 C2352 1.334 . S
C2352 H2323 0.950 . S
C2352 C2351 1.334 . S
C2352 C2353 1.287 . S
C2353 C2352 1.287 . S
C2353 C2354 1.524 . S
C2353 H2356 0.999 . S
C2354 H2324 0.950 . S
C2354 C2353 1.524 . S
C2354 C2355 1.415 . S
C2355 H2325 0.950 . S
C2355 C2350 1.363 . S
C2355 C2354 1.415 . S
H2356 C2353 0.999 . S
H2357 C2338 0.913 . S
H2358 C2376 0.951 . S
H2359 C2378 0.951 . S
H2360 C2380 0.950 1_554 S
H2361 C2381 0.950 . S
H2362 C2383 0.950 . S
H2363 C2386 0.950 . S
H2364 C2387 0.950 . S
H2365 C2389 0.950 . S
H2366 C2390 0.950 . S
H2367 C2391 0.951 . S
H2368 C2393 0.951 . S
H2369 C2395 0.922 1_565 S
H2370 C2396 0.950 1_565 S
H2371 C2398 0.950 . S
H2372 C2401 0.950 . S
H2373 C2402 0.950 . S
H2374 C2404 0.950 . S
H2375 C2405 0.950 . S
C2376 H2358 0.951 . S
C2376 C2377 1.366 . S
C2376 C2378 1.388 1_556 S
C2377 C2376 1.366 . S
C2377 C2381 1.385 . S
C2378 H2359 0.951 . S
C2378 C2376 1.388 1_554 S
C2378 C2379 1.366 . S
C2379 C2378 1.366 . S
C2379 C2380 1.414 1_554 S
C2379 C2382 1.499 . S
C2380 H2360 0.950 1_556 S
C2380 C2379 1.414 1_556 S
C2380 C2381 1.374 . S
C2381 H2361 0.950 . S
C2381 C2377 1.385 . S
C2381 C2380 1.374 . S
C2382 C2379 1.499 . S
C2382 C2383 1.373 . S
C2382 C2384 1.389 . S
C2383 H2362 0.950 . S
C2383 C2382 1.373 . S
C2383 C2399 1.377 . S
C2384 C2382 1.389 . S
C2384 C2385 1.524 . S
C2384 C2398 1.377 . S
C2385 C2384 1.524 . S
C2385 C2386 1.397 . S
C2385 C2390 1.363 1_545 S
C2386 H2363 0.950 . S
C2386 C2385 1.397 . S
C2386 C2387 1.334 . S
C2387 H2364 0.950 . S
C2387 C2386 1.334 . S
C2387 C2388 1.287 . S
C2388 C2387 1.287 . S
C2388 C2389 1.524 1_545 S
C2388 H2407 0.913 . S
C2389 H2365 0.950 . S
C2389 C2388 1.524 1_565 S
C2389 C2390 1.415 . S
C2390 H2366 0.950 . S
C2390 C2385 1.363 1_565 S
C2390 C2389 1.415 . S
C2391 H2367 0.951 . S
C2391 C2392 1.366 . S
C2391 C2393 1.388 . S
C2392 C2391 1.366 . S
C2392 C2396 1.385 . S
C2393 H2368 0.951 . S
C2393 C2391 1.388 . S
C2393 C2394 1.366 . S
C2394 C2393 1.366 . S
C2394 C2395 1.414 . S
C2394 C2397 1.499 . S
C2395 H2369 0.922 1_545 S
C2395 C2394 1.414 . S
C2395 C2396 1.374 . S
C2396 H2370 0.950 1_545 S
C2396 C2392 1.385 . S
C2396 C2395 1.374 . S
C2397 C2394 1.499 . S
C2397 C2398 1.373 . S
C2397 C2399 1.389 . S
C2398 H2371 0.950 . S
C2398 C2384 1.377 . S
C2398 C2397 1.373 . S
C2399 C2383 1.377 . S
C2399 C2397 1.389 . S
C2399 C2400 1.524 . S
C2400 C2399 1.524 . S
C2400 C2401 1.397 . S
C2400 C2405 1.363 . S
C2401 H2372 0.950 . S
C2401 C2400 1.397 . S
C2401 C2402 1.334 . S
C2402 H2373 0.950 . S
C2402 C2401 1.334 . S
C2402 C2403 1.287 . S
C2403 C2402 1.287 . S
C2403 C2404 1.524 . S
C2403 H2406 0.999 . S
C2404 H2374 0.950 . S
C2404 C2403 1.524 . S
C2404 C2405 1.415 . S
C2405 H2375 0.950 . S
C2405 C2400 1.363 . S
C2405 C2404 1.415 . S
H2406 C2403 0.999 . S
H2407 C2388 0.913 . S
H2408 C2426 0.951 . S
H2409 C2428 0.951 . S
H2410 C2430 0.950 . S
H2411 C2431 0.950 . S
H2412 C2433 0.950 . S
H2413 C2436 0.950 . S
H2414 C2437 0.950 . S
H2415 C2439 0.950 . S
H2416 C2440 0.950 . S
H2417 C2441 0.951 . S
H2418 C2443 0.951 . S
H2419 C2445 0.950 . S
H2420 C2446 0.950 . S
H2421 C2448 0.950 . S
H2422 C2451 0.950 . S
H2423 C2452 0.950 1_455 S
H2424 C2454 0.950 . S
H2425 C2455 0.950 . S
C2426 H2408 0.951 . S
C2426 C2427 1.366 . S
C2426 C2428 1.388 . S
C2427 C2426 1.366 . S
C2427 C2431 1.385 . S
C2428 H2409 0.951 . S
C2428 C2426 1.388 . S
C2428 C2429 1.366 . S
C2429 C2428 1.366 . S
C2429 C2430 1.414 . S
C2429 C2432 1.499 . S
C2430 H2410 0.950 . S
C2430 C2429 1.414 . S
C2430 C2431 1.374 . S
C2431 H2411 0.950 . S
C2431 C2427 1.385 . S
C2431 C2430 1.374 . S
C2432 C2429 1.499 . S
C2432 C2433 1.373 . S
C2432 C2434 1.389 . S
C2433 H2412 0.950 . S
C2433 C2432 1.373 . S
C2433 C2449 1.377 . S
C2434 C2432 1.389 . S
C2434 C2435 1.524 . S
C2434 C2448 1.377 . S
C2435 C2434 1.524 . S
C2435 C2436 1.397 . S
C2435 C2440 1.363 . S
C2436 H2413 0.950 . S
C2436 C2435 1.397 . S
C2436 C2437 1.334 . S
C2437 H2414 0.950 . S
C2437 C2436 1.334 . S
C2437 C2438 1.287 . S
C2438 C2437 1.287 . S
C2438 C2439 1.524 . S
C2438 H2457 0.913 . S
C2439 H2415 0.950 . S
C2439 C2438 1.524 . S
C2439 C2440 1.415 . S
C2440 H2416 0.950 . S
C2440 C2435 1.363 . S
C2440 C2439 1.415 . S
C2441 H2417 0.951 . S
C2441 C2442 1.366 . S
C2441 C2443 1.388 1_556 S
C2442 C2441 1.366 . S
C2442 C2446 1.385 . S
C2443 H2418 0.951 . S
C2443 C2441 1.388 1_554 S
C2443 C2444 1.366 . S
C2444 C2443 1.366 . S
C2444 C2445 1.414 1_554 S
C2444 C2447 1.499 . S
C2445 H2419 0.950 . S
C2445 C2444 1.414 1_556 S
C2445 C2446 1.374 . S
C2446 H2420 0.950 . S
C2446 C2442 1.385 . S
C2446 C2445 1.374 . S
C2447 C2444 1.499 . S
C2447 C2448 1.373 . S
C2447 C2449 1.389 . S
C2448 H2421 0.950 . S
C2448 C2434 1.377 . S
C2448 C2447 1.373 . S
C2449 C2433 1.377 . S
C2449 C2447 1.389 . S
C2449 C2450 1.524 . S
C2450 C2449 1.524 . S
C2450 C2451 1.397 . S
C2450 C2455 1.363 . S
C2451 H2422 0.950 . S
C2451 C2450 1.397 . S
C2451 C2452 1.334 . S
C2452 H2423 0.950 1_655 S
C2452 C2451 1.334 . S
C2452 C2453 1.287 . S
C2453 C2452 1.287 . S
C2453 C2454 1.524 . S
C2453 H2456 0.999 . S
C2454 H2424 0.950 . S
C2454 C2453 1.524 . S
C2454 C2455 1.415 . S
C2455 H2425 0.950 . S
C2455 C2450 1.363 . S
C2455 C2454 1.415 . S
H2456 C2453 0.999 . S
H2457 C2438 0.913 . S
H2458 C2476 0.951 . S
H2459 C2478 0.951 . S
H2460 C2480 0.950 . S
H2461 C2481 0.950 . S
H2462 C2483 0.950 . S
H2463 C2486 0.950 . S
H2464 C2487 0.950 . S
H2465 C2489 0.950 . S
H2466 C2490 0.950 . S
H2467 C2491 0.951 . S
H2468 C2493 0.951 . S
H2469 C2495 0.950 . S
H2470 C2496 0.950 . S
H2471 C2498 0.950 . S
H2472 C2501 0.950 . S
H2473 C2502 0.950 . S
H2474 C2504 0.944 1_556 S
H2475 C2505 0.950 . S
C2476 H2458 0.951 . S
C2476 C2477 1.366 . S
C2476 C2478 1.388 . S
C2477 C2476 1.366 . S
C2477 C2481 1.385 . S
C2478 H2459 0.951 . S
C2478 C2476 1.388 . S
C2478 C2479 1.366 . S
C2479 C2478 1.366 . S
C2479 C2480 1.414 . S
C2479 C2482 1.499 . S
C2480 H2460 0.950 . S
C2480 C2479 1.414 . S
C2480 C2481 1.374 . S
C2481 H2461 0.950 . S
C2481 C2477 1.385 . S
C2481 C2480 1.374 . S
C2482 C2479 1.499 . S
C2482 C2483 1.373 . S
C2482 C2484 1.389 . S
C2483 H2462 0.950 . S
C2483 C2482 1.373 . S
C2483 C2499 1.377 . S
C2484 C2482 1.389 . S
C2484 C2485 1.524 . S
C2484 C2498 1.377 . S
C2485 C2484 1.524 . S
C2485 C2486 1.397 . S
C2485 C2490 1.363 . S
C2486 H2463 0.950 . S
C2486 C2485 1.397 . S
C2486 C2487 1.334 . S
C2487 H2464 0.950 . S
C2487 C2486 1.334 . S
C2487 C2488 1.287 . S
C2488 C2487 1.287 . S
C2488 C2489 1.524 . S
C2488 H2507 0.913 . S
C2489 H2465 0.950 . S
C2489 C2488 1.524 . S
C2489 C2490 1.415 . S
C2490 H2466 0.950 . S
C2490 C2485 1.363 . S
C2490 C2489 1.415 . S
C2491 H2467 0.951 . S
C2491 C2492 1.366 . S
C2491 C2493 1.388 . S
C2492 C2491 1.366 . S
C2492 C2496 1.385 . S
C2493 H2468 0.951 . S
C2493 C2491 1.388 . S
C2493 C2494 1.366 1_556 S
C2494 C2493 1.366 1_554 S
C2494 C2495 1.414 . S
C2494 C2497 1.499 . S
C2495 H2469 0.950 . S
C2495 C2494 1.414 . S
C2495 C2496 1.374 1_554 S
C2496 H2470 0.950 . S
C2496 C2492 1.385 . S
C2496 C2495 1.374 1_556 S
C2497 C2494 1.499 . S
C2497 C2498 1.373 . S
C2497 C2499 1.389 . S
C2498 H2471 0.950 . S
C2498 C2484 1.377 . S
C2498 C2497 1.373 . S
C2499 C2483 1.377 . S
C2499 C2497 1.389 . S
C2499 C2500 1.524 . S
C2500 C2499 1.524 . S
C2500 C2501 1.397 . S
C2500 C2505 1.363 . S
C2501 H2472 0.950 . S
C2501 C2500 1.397 . S
C2501 C2502 1.334 . S
C2502 H2473 0.950 . S
C2502 C2501 1.334 . S
C2502 C2503 1.287 . S
C2503 C2502 1.287 . S
C2503 C2504 1.524 . S
C2503 H2506 0.999 1_554 S
C2504 H2474 0.944 1_554 S
C2504 C2503 1.524 . S
C2504 C2505 1.415 . S
C2505 H2475 0.950 . S
C2505 C2500 1.363 . S
C2505 C2504 1.415 . S
H2506 C2503 0.999 1_556 S
H2507 C2488 0.913 . S
H2508 C2526 0.951 . S
H2509 C2528 0.951 . S
H2510 C2530 0.950 . S
H2511 C2531 0.950 . S
H2512 C2533 0.950 . S
H2513 C2536 0.950 . S
H2514 C2537 0.950 . S
H2515 C2539 0.950 . S
H2516 C2540 0.950 . S
H2517 C2541 0.951 . S
H2518 C2543 0.951 . S
H2519 C2545 0.950 . S
H2520 C2546 0.950 . S
H2521 C2548 0.950 . S
H2522 C2551 0.950 . S
H2523 C2552 0.950 . S
H2524 C2554 0.950 . S
H2525 C2555 0.950 . S
C2526 H2508 0.951 . S
C2526 C2527 1.366 . S
C2526 C2528 1.388 1_554 S
C2527 C2526 1.366 . S
C2527 C2531 1.385 . S
C2528 H2509 0.951 . S
C2528 C2526 1.388 1_556 S
C2528 C2529 1.366 . S
C2529 C2528 1.366 . S
C2529 C2530 1.414 1_556 S
C2529 C2532 1.499 . S
C2530 H2510 0.950 . S
C2530 C2529 1.414 1_554 S
C2530 C2531 1.374 . S
C2531 H2511 0.950 . S
C2531 C2527 1.385 . S
C2531 C2530 1.374 . S
C2532 C2529 1.499 . S
C2532 C2533 1.373 . S
C2532 C2534 1.389 . S
C2533 H2512 0.950 . S
C2533 C2532 1.373 . S
C2533 C2549 1.377 . S
C2534 C2532 1.389 . S
C2534 C2535 1.524 . S
C2534 C2548 1.377 . S
C2535 C2534 1.524 . S
C2535 C2536 1.397 1_565 S
C2535 C2540 1.363 . S
C2536 H2513 0.950 . S
C2536 C2535 1.397 1_545 S
C2536 C2537 1.334 . S
C2537 H2514 0.950 . S
C2537 C2536 1.334 . S
C2537 C2538 1.287 . S
C2538 C2537 1.287 . S
C2538 C2539 1.524 . S
C2538 H2557 0.913 . S
C2539 H2515 0.950 . S
C2539 C2538 1.524 . S
C2539 C2540 1.415 1_545 S
C2540 H2516 0.950 . S
C2540 C2535 1.363 . S
C2540 C2539 1.415 1_565 S
C2541 H2517 0.951 . S
C2541 C2542 1.366 . S
C2541 C2543 1.388 . S
C2542 C2541 1.366 . S
C2542 C2546 1.385 . S
C2543 H2518 0.951 . S
C2543 C2541 1.388 . S
C2543 C2544 1.366 . S
C2544 C2543 1.366 . S
C2544 C2545 1.414 . S
C2544 C2547 1.499 . S
C2545 H2519 0.950 . S
C2545 C2544 1.414 . S
C2545 C2546 1.374 . S
C2546 H2520 0.950 . S
C2546 C2542 1.385 . S
C2546 C2545 1.374 . S
C2547 C2544 1.499 . S
C2547 C2548 1.373 . S
C2547 C2549 1.389 . S
C2548 H2521 0.950 . S
C2548 C2534 1.377 . S
C2548 C2547 1.373 . S
C2549 C2533 1.377 . S
C2549 C2547 1.389 . S
C2549 C2550 1.524 . S
C2550 C2549 1.524 . S
C2550 C2551 1.397 . S
C2550 C2555 1.363 . S
C2551 H2522 0.950 . S
C2551 C2550 1.397 . S
C2551 C2552 1.334 . S
C2552 H2523 0.950 . S
C2552 C2551 1.334 . S
C2552 C2553 1.287 . S
C2553 C2552 1.287 . S
C2553 C2554 1.524 . S
C2553 H2556 0.999 . S
C2554 H2524 0.950 . S
C2554 C2553 1.524 . S
C2554 C2555 1.415 . S
C2555 H2525 0.950 . S
C2555 C2550 1.363 . S
C2555 C2554 1.415 . S
H2556 C2553 0.999 . S
H2557 C2538 0.913 . S
H2558 C2576 0.951 . S
H2559 C2578 0.951 . S
H2560 C2580 0.907 1_655 S
H2561 C2581 0.950 1_655 S
H2562 C2583 0.950 . S
H2563 C2586 0.950 . S
H2564 C2587 0.950 . S
H2565 C2589 0.950 . S
H2566 C2590 0.950 . S
H2567 C2591 0.951 . S
H2568 C2593 0.951 1_556 S
H2569 C2595 0.950 . S
H2570 C2596 0.950 . S
H2571 C2598 0.950 . S
H2572 C2601 0.950 . S
H2573 C2602 0.950 . S
H2574 C2604 0.950 . S
H2575 C2605 0.950 . S
C2576 H2558 0.951 . S
C2576 C2577 1.366 . S
C2576 C2578 1.388 . S
C2577 C2576 1.366 . S
C2577 C2581 1.385 . S
C2578 H2559 0.951 . S
C2578 C2576 1.388 . S
C2578 C2579 1.366 . S
C2579 C2578 1.366 . S
C2579 C2580 1.414 . S
C2579 C2582 1.499 . S
C2580 H2560 0.907 1_455 S
C2580 C2579 1.414 . S
C2580 C2581 1.374 . S
C2581 H2561 0.950 1_455 S
C2581 C2577 1.385 . S
C2581 C2580 1.374 . S
C2582 C2579 1.499 . S
C2582 C2583 1.373 . S
C2582 C2584 1.389 . S
C2583 H2562 0.950 . S
C2583 C2582 1.373 . S
C2583 C2599 1.377 . S
C2584 C2582 1.389 . S
C2584 C2585 1.524 . S
C2584 C2598 1.377 . S
C2585 C2584 1.524 . S
C2585 C2586 1.397 . S
C2585 C2590 1.363 . S
C2586 H2563 0.950 . S
C2586 C2585 1.397 . S
C2586 C2587 1.334 . S
C2587 H2564 0.950 . S
C2587 C2586 1.334 . S
C2587 C2588 1.287 . S
C2588 C2587 1.287 . S
C2588 C2589 1.524 . S
C2588 H2607 0.913 . S
C2589 H2565 0.950 . S
C2589 C2588 1.524 . S
C2589 C2590 1.415 . S
C2590 H2566 0.950 . S
C2590 C2585 1.363 . S
C2590 C2589 1.415 . S
C2591 H2567 0.951 . S
C2591 C2592 1.366 . S
C2591 C2593 1.388 . S
C2592 C2591 1.366 . S
C2592 C2596 1.385 . S
C2593 H2568 0.951 1_554 S
C2593 C2591 1.388 . S
C2593 C2594 1.366 1_554 S
C2594 C2593 1.366 1_556 S
C2594 C2595 1.414 . S
C2594 C2597 1.499 . S
C2595 H2569 0.950 . S
C2595 C2594 1.414 . S
C2595 C2596 1.374 1_556 S
C2596 H2570 0.950 . S
C2596 C2592 1.385 . S
C2596 C2595 1.374 1_554 S
C2597 C2594 1.499 . S
C2597 C2598 1.373 . S
C2597 C2599 1.389 . S
C2598 H2571 0.950 . S
C2598 C2584 1.377 . S
C2598 C2597 1.373 . S
C2599 C2583 1.377 . S
C2599 C2597 1.389 . S
C2599 C2600 1.524 . S
C2600 C2599 1.524 . S
C2600 C2601 1.397 . S
C2600 C2605 1.363 1_455 S
C2601 H2572 0.950 . S
C2601 C2600 1.397 . S
C2601 C2602 1.334 . S
C2602 H2573 0.950 . S
C2602 C2601 1.334 . S
C2602 C2603 1.287 1_455 S
C2603 C2602 1.287 1_655 S
C2603 C2604 1.524 . S
C2603 H2606 0.999 . S
C2604 H2574 0.950 . S
C2604 C2603 1.524 . S
C2604 C2605 1.415 . S
C2605 H2575 0.950 . S
C2605 C2600 1.363 1_655 S
C2605 C2604 1.415 . S
H2606 C2603 0.999 . S
H2607 C2588 0.913 . S
H2608 C2626 0.951 . S
H2609 C2628 0.951 . S
H2610 C2630 0.950 . S
H2611 C2631 0.950 . S
H2612 C2633 0.950 . S
H2613 C2636 0.950 . S
H2614 C2637 0.950 . S
H2615 C2639 0.950 . S
H2616 C2640 0.950 . S
H2617 C2641 0.951 . S
H2618 C2643 0.951 . S
H2619 C2645 0.950 . S
H2620 C2646 0.950 . S
H2621 C2648 0.950 . S
H2622 C2651 0.950 . S
H2623 C2652 0.950 . S
H2624 C2654 0.950 . S
H2625 C2655 0.950 . S
C2626 H2608 0.951 . S
C2626 C2627 1.366 . S
C2626 C2628 1.388 1_554 S
C2627 C2626 1.366 . S
C2627 C2631 1.385 . S
C2628 H2609 0.951 . S
C2628 C2626 1.388 1_556 S
C2628 C2629 1.366 . S
C2629 C2628 1.366 . S
C2629 C2630 1.414 1_556 S
C2629 C2632 1.499 . S
C2630 H2610 0.950 . S
C2630 C2629 1.414 1_554 S
C2630 C2631 1.374 . S
C2631 H2611 0.950 . S
C2631 C2627 1.385 . S
C2631 C2630 1.374 . S
C2632 C2629 1.499 . S
C2632 C2633 1.373 . S
C2632 C2634 1.389 . S
C2633 H2612 0.950 . S
C2633 C2632 1.373 . S
C2633 C2649 1.377 . S
C2634 C2632 1.389 . S
C2634 C2635 1.524 . S
C2634 C2648 1.377 . S
C2635 C2634 1.524 . S
C2635 C2636 1.397 . S
C2635 C2640 1.363 . S
C2636 H2613 0.950 . S
C2636 C2635 1.397 . S
C2636 C2637 1.334 . S
C2637 H2614 0.950 . S
C2637 C2636 1.334 . S
C2637 C2638 1.287 . S
C2638 C2637 1.287 . S
C2638 C2639 1.524 . S
C2638 H2657 0.913 . S
C2639 H2615 0.950 . S
C2639 C2638 1.524 . S
C2639 C2640 1.415 . S
C2640 H2616 0.950 . S
C2640 C2635 1.363 . S
C2640 C2639 1.415 . S
C2641 H2617 0.951 . S
C2641 C2642 1.366 . S
C2641 C2643 1.388 . S
C2642 C2641 1.366 . S
C2642 C2646 1.385 . S
C2643 H2618 0.951 . S
C2643 C2641 1.388 . S
C2643 C2644 1.366 . S
C2644 C2643 1.366 . S
C2644 C2645 1.414 . S
C2644 C2647 1.499 . S
C2645 H2619 0.950 . S
C2645 C2644 1.414 . S
C2645 C2646 1.374 . S
C2646 H2620 0.950 . S
C2646 C2642 1.385 . S
C2646 C2645 1.374 . S
C2647 C2644 1.499 . S
C2647 C2648 1.373 . S
C2647 C2649 1.389 . S
C2648 H2621 0.950 . S
C2648 C2634 1.377 . S
C2648 C2647 1.373 . S
C2649 C2633 1.377 . S
C2649 C2647 1.389 . S
C2649 C2650 1.524 . S
C2650 C2649 1.524 . S
C2650 C2651 1.397 . S
C2650 C2655 1.363 . S
C2651 H2622 0.950 . S
C2651 C2650 1.397 . S
C2651 C2652 1.334 . S
C2652 H2623 0.950 . S
C2652 C2651 1.334 . S
C2652 C2653 1.287 . S
C2653 C2652 1.287 . S
C2653 C2654 1.524 . S
C2653 H2656 0.999 . S
C2654 H2624 0.950 . S
C2654 C2653 1.524 . S
C2654 C2655 1.415 . S
C2655 H2625 0.950 . S
C2655 C2650 1.363 . S
C2655 C2654 1.415 . S
H2656 C2653 0.999 . S
H2657 C2638 0.913 . S
H2658 C2676 0.951 . S
H2659 C2678 0.951 . S
H2660 C2680 0.950 . S
H2661 C2681 0.950 . S
H2662 C2683 0.950 . S
H2663 C2686 0.950 . S
H2664 C2687 0.950 . S
H2665 C2689 0.950 . S
H2666 C2690 0.950 1_455 S
H2667 C2691 0.951 . S
H2668 C2693 0.951 . S
H2669 C2695 0.950 . S
H2670 C2696 0.950 . S
H2671 C2698 0.950 . S
H2672 C2701 0.950 . S
H2673 C2702 0.950 . S
H2674 C2704 0.950 . S
H2675 C2705 0.950 . S
C2676 H2658 0.951 . S
C2676 C2677 1.366 . S
C2676 C2678 1.388 . S
C2677 C2676 1.366 . S
C2677 C2681 1.385 . S
C2678 H2659 0.951 . S
C2678 C2676 1.388 . S
C2678 C2679 1.366 . S
C2679 C2678 1.366 . S
C2679 C2680 1.414 . S
C2679 C2682 1.499 . S
C2680 H2660 0.950 . S
C2680 C2679 1.414 . S
C2680 C2681 1.374 . S
C2681 H2661 0.950 . S
C2681 C2677 1.385 . S
C2681 C2680 1.374 . S
C2682 C2679 1.499 . S
C2682 C2683 1.373 . S
C2682 C2684 1.389 . S
C2683 H2662 0.950 . S
C2683 C2682 1.373 . S
C2683 C2699 1.377 . S
C2684 C2682 1.389 . S
C2684 C2685 1.524 . S
C2684 C2698 1.377 . S
C2685 C2684 1.524 . S
C2685 C2686 1.397 1_455 S
C2685 C2690 1.363 1_455 S
C2686 H2663 0.950 . S
C2686 C2685 1.397 1_655 S
C2686 C2687 1.334 . S
C2687 H2664 0.950 . S
C2687 C2686 1.334 . S
C2687 C2688 1.287 . S
C2688 C2687 1.287 . S
C2688 C2689 1.524 . S
C2688 H2707 0.913 . S
C2689 H2665 0.950 . S
C2689 C2688 1.524 . S
C2689 C2690 1.415 . S
C2690 H2666 0.950 1_655 S
C2690 C2685 1.363 1_655 S
C2690 C2689 1.415 . S
C2691 H2667 0.951 . S
C2691 C2692 1.366 . S
C2691 C2693 1.388 . S
C2692 C2691 1.366 . S
C2692 C2696 1.385 . S
C2693 H2668 0.951 . S
C2693 C2691 1.388 . S
C2693 C2694 1.366 . S
C2694 C2693 1.366 . S
C2694 C2695 1.414 . S
C2694 C2697 1.499 . S
C2695 H2669 0.950 . S
C2695 C2694 1.414 . S
C2695 C2696 1.374 . S
C2696 H2670 0.950 . S
C2696 C2692 1.385 . S
C2696 C2695 1.374 . S
C2697 C2694 1.499 . S
C2697 C2698 1.373 . S
C2697 C2699 1.389 . S
C2698 H2671 0.950 . S
C2698 C2684 1.377 . S
C2698 C2697 1.373 . S
C2699 C2683 1.377 . S
C2699 C2697 1.389 . S
C2699 C2700 1.524 . S
C2700 C2699 1.524 . S
C2700 C2701 1.397 . S
C2700 C2705 1.363 . S
C2701 H2672 0.950 . S
C2701 C2700 1.397 . S
C2701 C2702 1.334 . S
C2702 H2673 0.950 . S
C2702 C2701 1.334 . S
C2702 C2703 1.287 . S
C2703 C2702 1.287 . S
C2703 C2704 1.524 . S
C2703 H2706 0.999 . S
C2704 H2674 0.950 . S
C2704 C2703 1.524 . S
C2704 C2705 1.415 . S
C2705 H2675 0.950 . S
C2705 C2700 1.363 . S
C2705 C2704 1.415 . S
H2706 C2703 0.999 . S
H2707 C2688 0.913 . S
H2708 C2726 0.951 . S
H2709 C2728 0.951 . S
H2710 C2730 0.950 . S
H2711 C2731 0.950 . S
H2712 C2733 0.950 . S
H2713 C2736 0.950 . S
H2714 C2737 0.950 . S
H2715 C2739 0.950 . S
H2716 C2740 0.950 . S
H2717 C2741 0.951 . S
H2718 C2743 0.951 . S
H2719 C2745 0.950 . S
H2720 C2746 0.950 . S
H2721 C2748 0.950 . S
H2722 C2751 0.950 . S
H2723 C2752 0.950 . S
H2724 C2754 0.950 . S
H2725 C2755 0.950 . S
C2726 H2708 0.951 . S
C2726 C2727 1.366 . S
C2726 C2728 1.388 . S
C2727 C2726 1.366 . S
C2727 C2731 1.385 . S
C2728 H2709 0.951 . S
C2728 C2726 1.388 . S
C2728 C2729 1.366 . S
C2729 C2728 1.366 . S
C2729 C2730 1.414 . S
C2729 C2732 1.499 . S
C2730 H2710 0.950 . S
C2730 C2729 1.414 . S
C2730 C2731 1.374 . S
C2731 H2711 0.950 . S
C2731 C2727 1.385 . S
C2731 C2730 1.374 . S
C2732 C2729 1.499 . S
C2732 C2733 1.373 . S
C2732 C2734 1.389 . S
C2733 H2712 0.950 . S
C2733 C2732 1.373 . S
C2733 C2749 1.377 . S
C2734 C2732 1.389 . S
C2734 C2735 1.524 . S
C2734 C2748 1.377 . S
C2735 C2734 1.524 . S
C2735 C2736 1.397 . S
C2735 C2740 1.363 . S
C2736 H2713 0.950 . S
C2736 C2735 1.397 . S
C2736 C2737 1.334 . S
C2737 H2714 0.950 . S
C2737 C2736 1.334 . S
C2737 C2738 1.287 . S
C2738 C2737 1.287 . S
C2738 C2739 1.524 . S
C2738 H2757 0.913 . S
C2739 H2715 0.950 . S
C2739 C2738 1.524 . S
C2739 C2740 1.415 . S
C2740 H2716 0.950 . S
C2740 C2735 1.363 . S
C2740 C2739 1.415 . S
C2741 H2717 0.951 . S
C2741 C2742 1.366 . S
C2741 C2743 1.388 . S
C2742 C2741 1.366 . S
C2742 C2746 1.385 . S
C2743 H2718 0.951 . S
C2743 C2741 1.388 . S
C2743 C2744 1.366 . S
C2744 C2743 1.366 . S
C2744 C2745 1.414 . S
C2744 C2747 1.499 . S
C2745 H2719 0.950 . S
C2745 C2744 1.414 . S
C2745 C2746 1.374 . S
C2746 H2720 0.950 . S
C2746 C2742 1.385 . S
C2746 C2745 1.374 . S
C2747 C2744 1.499 . S
C2747 C2748 1.373 . S
C2747 C2749 1.389 . S
C2748 H2721 0.950 . S
C2748 C2734 1.377 . S
C2748 C2747 1.373 . S
C2749 C2733 1.377 . S
C2749 C2747 1.389 . S
C2749 C2750 1.524 . S
C2750 C2749 1.524 . S
C2750 C2751 1.397 . S
C2750 C2755 1.363 . S
C2751 H2722 0.950 . S
C2751 C2750 1.397 . S
C2751 C2752 1.334 . S
C2752 H2723 0.950 . S
C2752 C2751 1.334 . S
C2752 C2753 1.287 . S
C2753 C2752 1.287 . S
C2753 C2754 1.524 . S
C2753 H2756 0.999 . S
C2754 H2724 0.950 . S
C2754 C2753 1.524 . S
C2754 C2755 1.415 . S
C2755 H2725 0.950 . S
C2755 C2750 1.363 . S
C2755 C2754 1.415 . S
H2756 C2753 0.999 . S
H2757 C2738 0.913 . S
H2758 C2776 0.951 . S
H2759 C2778 0.951 . S
H2760 C2780 0.950 . S
H2761 C2781 0.950 . S
H2762 C2783 0.950 . S
H2763 C2786 0.950 . S
H2764 C2787 0.950 . S
H2765 C2789 0.950 . S
H2766 C2790 0.950 . S
H2767 C2791 0.951 . S
H2768 C2793 0.951 . S
H2769 C2795 0.950 1_545 S
H2770 C2796 0.950 . S
H2771 C2798 0.950 . S
H2772 C2801 0.950 . S
H2773 C2802 0.950 . S
H2774 C2804 0.950 . S
H2775 C2805 0.950 . S
C2776 H2758 0.951 . S
C2776 C2777 1.366 . S
C2776 C2778 1.388 . S
C2777 C2776 1.366 . S
C2777 C2781 1.385 . S
C2778 H2759 0.951 . S
C2778 C2776 1.388 . S
C2778 C2779 1.366 . S
C2779 C2778 1.366 . S
C2779 C2780 1.414 . S
C2779 C2782 1.499 . S
C2780 H2760 0.950 . S
C2780 C2779 1.414 . S
C2780 C2781 1.374 . S
C2781 H2761 0.950 . S
C2781 C2777 1.385 . S
C2781 C2780 1.374 . S
C2782 C2779 1.499 . S
C2782 C2783 1.373 . S
C2782 C2784 1.389 . S
C2783 H2762 0.950 . S
C2783 C2782 1.373 . S
C2783 C2799 1.377 . S
C2784 C2782 1.389 . S
C2784 C2785 1.524 . S
C2784 C2798 1.377 . S
C2785 C2784 1.524 . S
C2785 C2786 1.397 . S
C2785 C2790 1.363 . S
C2786 H2763 0.950 . S
C2786 C2785 1.397 . S
C2786 C2787 1.334 . S
C2787 H2764 0.950 . S
C2787 C2786 1.334 . S
C2787 C2788 1.287 . S
C2788 C2787 1.287 . S
C2788 C2789 1.524 . S
C2788 H2807 0.913 . S
C2789 H2765 0.950 . S
C2789 C2788 1.524 . S
C2789 C2790 1.415 . S
C2790 H2766 0.950 . S
C2790 C2785 1.363 . S
C2790 C2789 1.415 . S
C2791 H2767 0.951 . S
C2791 C2792 1.366 . S
C2791 C2793 1.388 . S
C2792 C2791 1.366 . S
C2792 C2796 1.385 1_565 S
C2793 H2768 0.951 . S
C2793 C2791 1.388 . S
C2793 C2794 1.366 . S
C2794 C2793 1.366 . S
C2794 C2795 1.414 . S
C2794 C2797 1.499 . S
C2795 H2769 0.950 1_565 S
C2795 C2794 1.414 . S
C2795 C2796 1.374 1_565 S
C2796 H2770 0.950 . S
C2796 C2792 1.385 1_545 S
C2796 C2795 1.374 1_545 S
C2797 C2794 1.499 . S
C2797 C2798 1.373 . S
C2797 C2799 1.389 . S
C2798 H2771 0.950 . S
C2798 C2784 1.377 . S
C2798 C2797 1.373 . S
C2799 C2783 1.377 . S
C2799 C2797 1.389 . S
C2799 C2800 1.524 . S
C2800 C2799 1.524 . S
C2800 C2801 1.397 . S
C2800 C2805 1.363 . S
C2801 H2772 0.950 . S
C2801 C2800 1.397 . S
C2801 C2802 1.334 . S
C2802 H2773 0.950 . S
C2802 C2801 1.334 . S
C2802 C2803 1.287 . S
C2803 C2802 1.287 . S
C2803 C2804 1.524 . S
C2803 H2806 0.999 . S
C2804 H2774 0.950 . S
C2804 C2803 1.524 . S
C2804 C2805 1.415 . S
C2805 H2775 0.950 . S
C2805 C2800 1.363 . S
C2805 C2804 1.415 . S
H2806 C2803 0.999 . S
H2807 C2788 0.913 . S
H2808 C2826 0.951 . S
H2809 C2828 0.953 . S
H2810 C2830 0.950 . S
H2811 C2831 0.950 . S
H2812 C2833 0.950 . S
H2813 C2836 0.950 . S
H2814 C2837 0.950 . S
H2815 C2839 0.950 1_554 S
H2816 C2840 0.950 . S
H2817 C2841 0.951 . S
H2818 C2843 0.954 1_556 S
H2819 C2845 0.950 . S
H2820 C2846 0.950 . S
H2821 C2848 0.950 . S
H2822 C2851 0.950 . S
H2823 C2852 0.950 . S
H2824 C2854 0.950 1_556 S
H2825 C2855 0.950 . S
C2826 H2808 0.951 . S
C2826 C2827 1.366 . S
C2826 C2828 1.388 . S
C2827 C2826 1.366 . S
C2827 C2831 1.385 . S
C2828 H2809 0.953 . S
C2828 C2826 1.388 . S
C2828 C2829 1.366 . S
C2829 C2828 1.366 . S
C2829 C2830 1.414 . S
C2829 C2832 1.499 . S
C2830 H2810 0.950 . S
C2830 C2829 1.414 . S
C2830 C2831 1.374 . S
C2831 H2811 0.950 . S
C2831 C2827 1.385 . S
C2831 C2830 1.374 . S
C2832 C2829 1.499 . S
C2832 C2833 1.373 . S
C2832 C2834 1.389 . S
C2833 H2812 0.950 . S
C2833 C2832 1.373 . S
C2833 C2849 1.377 1_556 S
C2834 C2832 1.389 . S
C2834 C2835 1.524 . S
C2834 C2848 1.377 1_556 S
C2835 C2834 1.524 . S
C2835 C2836 1.397 . S
C2835 C2840 1.363 1_556 S
C2836 H2813 0.950 . S
C2836 C2835 1.397 . S
C2836 C2837 1.334 . S
C2837 H2814 0.950 . S
C2837 C2836 1.334 . S
C2837 C2838 1.287 . S
C2838 C2837 1.287 . S
C2838 C2839 1.524 . S
C2838 H2857 0.913 . S
C2839 H2815 0.950 1_556 S
C2839 C2838 1.524 . S
C2839 C2840 1.415 1_556 S
C2840 H2816 0.950 . S
C2840 C2835 1.363 1_554 S
C2840 C2839 1.415 1_554 S
C2841 H2817 0.951 . S
C2841 C2842 1.366 . S
C2841 C2843 1.388 . S
C2842 C2841 1.366 . S
C2842 C2846 1.385 . S
C2843 H2818 0.954 1_554 S
C2843 C2841 1.388 . S
C2843 C2844 1.366 . S
C2844 C2843 1.366 . S
C2844 C2845 1.414 . S
C2844 C2847 1.499 . S
C2845 H2819 0.950 . S
C2845 C2844 1.414 . S
C2845 C2846 1.374 . S
C2846 H2820 0.950 . S
C2846 C2842 1.385 . S
C2846 C2845 1.374 . S
C2847 C2844 1.499 . S
C2847 C2848 1.373 . S
C2847 C2849 1.389 . S
C2848 H2821 0.950 . S
C2848 C2834 1.377 1_554 S
C2848 C2847 1.373 . S
C2849 C2833 1.377 1_554 S
C2849 C2847 1.389 . S
C2849 C2850 1.524 . S
C2850 C2849 1.524 . S
C2850 C2851 1.397 . S
C2850 C2855 1.363 1_554 S
C2851 H2822 0.950 . S
C2851 C2850 1.397 . S
C2851 C2852 1.334 . S
C2852 H2823 0.950 . S
C2852 C2851 1.334 . S
C2852 C2853 1.287 . S
C2853 C2852 1.287 . S
C2853 C2854 1.524 . S
C2853 H2856 0.999 . S
C2854 H2824 0.950 1_554 S
C2854 C2853 1.524 . S
C2854 C2855 1.415 1_554 S
C2855 H2825 0.950 . S
C2855 C2850 1.363 1_556 S
C2855 C2854 1.415 1_556 S
H2856 C2853 0.999 . S
H2857 C2838 0.913 . S
H2858 C2876 0.951 . S
H2859 C2878 0.951 . S
H2860 C2880 0.950 1_554 S
H2861 C2881 0.950 . S
H2862 C2883 0.950 . S
H2863 C2886 0.950 . S
H2864 C2887 0.950 . S
H2865 C2889 0.950 . S
H2866 C2890 0.950 . S
H2867 C2891 0.951 . S
H2868 C2893 0.951 . S
H2869 C2895 0.950 1_556 S
H2870 C2896 0.950 . S
H2871 C2898 0.950 . S
H2872 C2901 0.950 . S
H2873 C2902 0.950 . S
H2874 C2904 0.950 . S
H2875 C2905 0.950 . S
C2876 H2858 0.951 . S
C2876 C2877 1.366 . S
C2876 C2878 1.388 . S
C2877 C2876 1.366 . S
C2877 C2881 1.385 . S
C2878 H2859 0.951 . S
C2878 C2876 1.388 . S
C2878 C2879 1.366 . S
C2879 C2878 1.366 . S
C2879 C2880 1.414 . S
C2879 C2882 1.499 . S
C2880 H2860 0.950 1_556 S
C2880 C2879 1.414 . S
C2880 C2881 1.374 . S
C2881 H2861 0.950 . S
C2881 C2877 1.385 . S
C2881 C2880 1.374 . S
C2882 C2879 1.499 . S
C2882 C2883 1.373 1_556 S
C2882 C2884 1.389 . S
C2883 H2862 0.950 . S
C2883 C2882 1.373 1_554 S
C2883 C2899 1.377 . S
C2884 C2882 1.389 . S
C2884 C2885 1.524 . S
C2884 C2898 1.377 . S
C2885 C2884 1.524 . S
C2885 C2886 1.397 . S
C2885 C2890 1.363 . S
C2886 H2863 0.950 . S
C2886 C2885 1.397 . S
C2886 C2887 1.334 . S
C2887 H2864 0.950 . S
C2887 C2886 1.334 . S
C2887 C2888 1.287 . S
C2888 C2887 1.287 . S
C2888 C2889 1.524 . S
C2888 H2907 0.913 . S
C2889 H2865 0.950 . S
C2889 C2888 1.524 . S
C2889 C2890 1.415 . S
C2890 H2866 0.950 . S
C2890 C2885 1.363 . S
C2890 C2889 1.415 . S
C2891 H2867 0.951 . S
C2891 C2892 1.366 1_545 S
C2891 C2893 1.388 . S
C2892 C2891 1.366 1_565 S
C2892 C2896 1.385 . S
C2893 H2868 0.951 . S
C2893 C2891 1.388 . S
C2893 C2894 1.366 . S
C2894 C2893 1.366 . S
C2894 C2895 1.414 . S
C2894 C2897 1.499 . S
C2895 H2869 0.950 1_554 S
C2895 C2894 1.414 . S
C2895 C2896 1.374 1_545 S
C2896 H2870 0.950 . S
C2896 C2892 1.385 . S
C2896 C2895 1.374 1_565 S
C2897 C2894 1.499 . S
C2897 C2898 1.373 1_554 S
C2897 C2899 1.389 . S
C2898 H2871 0.950 . S
C2898 C2884 1.377 . S
C2898 C2897 1.373 1_556 S
C2899 C2883 1.377 . S
C2899 C2897 1.389 . S
C2899 C2900 1.524 . S
C2900 C2899 1.524 . S
C2900 C2901 1.397 . S
C2900 C2905 1.363 . S
C2901 H2872 0.950 . S
C2901 C2900 1.397 . S
C2901 C2902 1.334 . S
C2902 H2873 0.950 . S
C2902 C2901 1.334 . S
C2902 C2903 1.287 . S
C2903 C2902 1.287 . S
C2903 C2904 1.524 . S
C2903 H2906 0.999 . S
C2904 H2874 0.950 . S
C2904 C2903 1.524 . S
C2904 C2905 1.415 . S
C2905 H2875 0.950 . S
C2905 C2900 1.363 . S
C2905 C2904 1.415 . S
H2906 C2903 0.999 . S
H2907 C2888 0.913 . S
H2908 C2926 0.951 . S
H2909 C2928 0.951 1_554 S
H2910 C2930 0.950 . S
H2911 C2931 0.950 . S
H2912 C2933 0.950 . S
H2913 C2936 0.950 . S
H2914 C2937 0.950 . S
H2915 C2939 0.950 . S
H2916 C2940 0.950 . S
H2917 C2941 0.924 1_455 S
H2918 C2943 0.951 1_556 S
H2919 C2945 0.950 . S
H2920 C2946 0.950 . S
H2921 C2948 0.950 . S
H2922 C2951 0.950 . S
H2923 C2952 0.950 . S
H2924 C2954 0.950 . S
H2925 C2955 0.950 . S
C2926 H2908 0.951 . S
C2926 C2927 1.366 . S
C2926 C2928 1.388 . S
C2927 C2926 1.366 . S
C2927 C2931 1.385 . S
C2928 H2909 0.951 1_556 S
C2928 C2926 1.388 . S
C2928 C2929 1.366 . S
C2929 C2928 1.366 . S
C2929 C2930 1.414 . S
C2929 C2932 1.499 . S
C2930 H2910 0.950 . S
C2930 C2929 1.414 . S
C2930 C2931 1.374 . S
C2931 H2911 0.950 . S
C2931 C2927 1.385 . S
C2931 C2930 1.374 . S
C2932 C2929 1.499 . S
C2932 C2933 1.373 . S
C2932 C2934 1.397 . S
C2933 H2912 0.950 . S
C2933 C2932 1.373 . S
C2933 C2949 1.372 1_556 S
C2934 C2932 1.397 . S
C2934 C2935 1.525 . S
C2934 C2948 1.368 1_556 S
C2935 C2934 1.525 . S
C2935 C2936 1.397 . S
C2935 C2940 1.363 1_556 S
C2936 H2913 0.950 . S
C2936 C2935 1.397 . S
C2936 C2937 1.334 . S
C2937 H2914 0.950 . S
C2937 C2936 1.334 . S
C2937 C2938 1.287 . S
C2938 C2937 1.287 . S
C2938 C2939 1.524 1_556 S
C2938 H2957 0.913 . S
C2939 H2915 0.950 . S
C2939 C2938 1.524 1_554 S
C2939 C2940 1.415 . S
C2940 H2916 0.950 . S
C2940 C2935 1.363 1_554 S
C2940 C2939 1.415 . S
C2941 H2917 0.924 1_655 S
C2941 C2942 1.366 1_655 S
C2941 C2943 1.415 . S
C2942 C2941 1.366 1_455 S
C2942 C2946 1.385 1_455 S
C2943 H2918 0.951 1_554 S
C2943 C2941 1.415 . S
C2943 C2944 1.366 . S
C2944 C2943 1.366 . S
C2944 C2945 1.414 . S
C2944 C2947 1.499 . S
C2945 H2919 0.950 . S
C2945 C2944 1.414 . S
C2945 C2946 1.374 . S
C2946 H2920 0.950 . S
C2946 C2942 1.385 1_655 S
C2946 C2945 1.374 . S
C2947 C2944 1.499 . S
C2947 C2948 1.373 . S
C2947 C2949 1.393 . S
C2948 H2921 0.950 . S
C2948 C2934 1.368 1_554 S
C2948 C2947 1.373 . S
C2949 C2933 1.372 1_554 S
C2949 C2947 1.393 . S
C2949 C2950 1.525 . S
C2950 C2949 1.525 . S
C2950 C2951 1.397 . S
C2950 C2955 1.363 1_554 S
C2951 H2922 0.950 . S
C2951 C2950 1.397 . S
C2951 C2952 1.334 . S
C2952 H2923 0.950 . S
C2952 C2951 1.334 . S
C2952 C2953 1.287 . S
C2953 C2952 1.287 . S
C2953 C2954 1.524 1_554 S
C2953 H2956 0.999 . S
C2954 H2924 0.950 . S
C2954 C2953 1.524 1_556 S
C2954 C2955 1.415 . S
C2955 H2925 0.950 . S
C2955 C2950 1.363 1_556 S
C2955 C2954 1.415 . S
H2956 C2953 0.999 . S
H2957 C2938 0.913 . S
H2958 C2976 0.951 . S
H2959 C2978 0.951 . S
H2960 C2980 0.950 . S
H2961 C2981 0.950 . S
H2962 C2983 0.950 . S
H2963 C2986 0.950 . S
H2964 C2987 0.950 . S
H2965 C2989 0.950 . S
H2966 C2990 0.981 . S
H2967 C2991 0.951 . S
H2968 C2993 0.951 . S
H2969 C2995 0.950 . S
H2970 C2996 0.950 . S
H2971 C2998 0.950 . S
H2972 C3001 0.950 . S
H2973 C3002 0.950 . S
H2974 C3004 0.950 . S
H2975 C3005 0.972 . S
C2976 H2958 0.951 . S
C2976 C2977 1.366 . S
C2976 C2978 1.388 . S
C2977 C2976 1.366 . S
C2977 C2981 1.385 . S
C2978 H2959 0.951 . S
C2978 C2976 1.388 . S
C2978 C2979 1.366 . S
C2979 C2978 1.366 . S
C2979 C2980 1.414 . S
C2979 C2982 1.499 . S
C2980 H2960 0.950 . S
C2980 C2979 1.414 . S
C2980 C2981 1.374 . S
C2981 H2961 0.950 . S
C2981 C2977 1.385 . S
C2981 C2980 1.374 . S
C2982 C2979 1.499 . S
C2982 C2983 1.371 1_554 S
C2982 C2984 1.389 . S
C2983 H2962 0.950 . S
C2983 C2982 1.371 1_556 S
C2983 C2999 1.378 . S
C2984 C2982 1.389 . S
C2984 C2985 1.524 . S
C2984 C2998 1.383 . S
C2985 C2984 1.524 . S
C2985 C2986 1.397 . S
C2985 C2990 1.363 . S
C2986 H2963 0.950 . S
C2986 C2985 1.397 . S
C2986 C2987 1.334 . S
C2987 H2964 0.950 . S
C2987 C2986 1.334 . S
C2987 C2988 1.287 . S
C2988 C2987 1.287 . S
C2988 C2989 1.524 . S
C2988 H3007 0.913 . S
C2989 H2965 0.950 . S
C2989 C2988 1.524 . S
C2989 C2990 1.415 . S
C2990 H2966 0.981 . S
C2990 C2985 1.363 . S
C2990 C2989 1.415 . S
C2991 H2967 0.951 . S
C2991 C2992 1.366 . S
C2991 C2993 1.388 . S
C2992 C2991 1.366 . S
C2992 C2996 1.385 . S
C2993 H2968 0.951 . S
C2993 C2991 1.388 . S
C2993 C2994 1.366 . S
C2994 C2993 1.366 . S
C2994 C2995 1.414 . S
C2994 C2997 1.499 . S
C2995 H2969 0.950 . S
C2995 C2994 1.414 . S
C2995 C2996 1.374 . S
C2996 H2970 0.950 . S
C2996 C2992 1.385 . S
C2996 C2995 1.374 . S
C2997 C2994 1.499 . S
C2997 C2998 1.367 1_556 S
C2997 C2999 1.389 . S
C2998 H2971 0.950 . S
C2998 C2984 1.383 . S
C2998 C2997 1.367 1_554 S
C2999 C2983 1.378 . S
C2999 C2997 1.389 . S
C2999 C3000 1.524 . S
C3000 C2999 1.524 . S
C3000 C3001 1.397 . S
C3000 C3005 1.363 . S
C3001 H2972 0.950 . S
C3001 C3000 1.397 . S
C3001 C3002 1.334 . S
C3002 H2973 0.950 . S
C3002 C3001 1.334 . S
C3002 C3003 1.287 . S
C3003 C3002 1.287 . S
C3003 C3004 1.524 . S
C3003 H3006 0.999 . S
C3004 H2974 0.950 . S
C3004 C3003 1.524 . S
C3004 C3005 1.415 . S
C3005 H2975 0.972 . S
C3005 C3000 1.363 . S
C3005 C3004 1.415 . S
H3006 C3003 0.999 . S
H3007 C2988 0.913 . S
H3008 C3026 0.951 . S
H3009 C3028 0.951 . S
H3010 C3030 0.950 . S
H3011 C3031 0.950 . S
H3012 C3033 0.950 . S
H3013 C3036 0.950 . S
H3014 C3037 0.950 . S
H3015 C3039 0.950 . S
H3016 C3040 0.950 . S
H3017 C3041 0.951 . S
H3018 C3043 0.951 . S
H3019 C3045 0.950 . S
H3020 C3046 0.950 . S
H3021 C3048 0.950 . S
H3022 C3051 0.950 . S
H3023 C3052 0.950 . S
H3024 C3054 0.950 . S
H3025 C3055 0.950 . S
C3026 H3008 0.951 . S
C3026 C3027 1.366 1_565 S
C3026 C3028 1.388 . S
C3027 C3026 1.366 1_545 S
C3027 C3031 1.385 . S
C3028 H3009 0.951 . S
C3028 C3026 1.388 . S
C3028 C3029 1.366 . S
C3029 C3028 1.366 . S
C3029 C3030 1.414 . S
C3029 C3032 1.499 . S
C3030 H3010 0.950 . S
C3030 C3029 1.414 . S
C3030 C3031 1.374 1_565 S
C3031 H3011 0.950 . S
C3031 C3027 1.385 . S
C3031 C3030 1.374 1_545 S
C3032 C3029 1.499 . S
C3032 C3033 1.373 1_556 S
C3032 C3034 1.389 . S
C3033 H3012 0.950 . S
C3033 C3032 1.373 1_554 S
C3033 C3049 1.377 . S
C3034 C3032 1.389 . S
C3034 C3035 1.524 . S
C3034 C3048 1.377 . S
C3035 C3034 1.524 . S
C3035 C3036 1.397 . S
C3035 C3040 1.363 . S
C3036 H3013 0.950 . S
C3036 C3035 1.397 . S
C3036 C3037 1.334 . S
C3037 H3014 0.950 . S
C3037 C3036 1.334 . S
C3037 C3038 1.287 . S
C3038 C3037 1.287 . S
C3038 C3039 1.524 . S
C3038 H3057 0.913 . S
C3039 H3015 0.950 . S
C3039 C3038 1.524 . S
C3039 C3040 1.415 . S
C3040 H3016 0.950 . S
C3040 C3035 1.363 . S
C3040 C3039 1.415 . S
C3041 H3017 0.951 . S
C3041 C3042 1.366 . S
C3041 C3043 1.388 . S
C3042 C3041 1.366 . S
C3042 C3046 1.385 . S
C3043 H3018 0.951 . S
C3043 C3041 1.388 . S
C3043 C3044 1.366 . S
C3044 C3043 1.366 . S
C3044 C3045 1.414 . S
C3044 C3047 1.499 . S
C3045 H3019 0.950 . S
C3045 C3044 1.414 . S
C3045 C3046 1.374 . S
C3046 H3020 0.950 . S
C3046 C3042 1.385 . S
C3046 C3045 1.374 . S
C3047 C3044 1.499 . S
C3047 C3048 1.373 1_554 S
C3047 C3049 1.389 . S
C3048 H3021 0.950 . S
C3048 C3034 1.377 . S
C3048 C3047 1.373 1_556 S
C3049 C3033 1.377 . S
C3049 C3047 1.389 . S
C3049 C3050 1.524 . S
C3050 C3049 1.524 . S
C3050 C3051 1.397 . S
C3050 C3055 1.363 . S
C3051 H3022 0.950 . S
C3051 C3050 1.397 . S
C3051 C3052 1.334 . S
C3052 H3023 0.950 . S
C3052 C3051 1.334 . S
C3052 C3053 1.287 . S
C3053 C3052 1.287 . S
C3053 C3054 1.524 . S
C3053 H3056 0.999 . S
C3054 H3024 0.950 . S
C3054 C3053 1.524 . S
C3054 C3055 1.415 . S
C3055 H3025 0.950 . S
C3055 C3050 1.363 . S
C3055 C3054 1.415 . S
H3056 C3053 0.999 . S
H3057 C3038 0.913 . S
H3058 C3076 0.951 1_655 S
H3059 C3078 0.926 1_554 S
H3060 C3080 0.950 . S
H3061 C3081 0.950 . S
H3062 C3083 0.950 . S
H3063 C3086 0.950 . S
H3064 C3087 0.950 . S
H3065 C3089 0.950 1_554 S
H3066 C3090 0.950 . S
H3067 C3091 0.951 . S
H3068 C3093 0.933 1_556 S
H3069 C3095 0.950 . S
H3070 C3096 0.950 . S
H3071 C3098 0.950 . S
H3072 C3101 0.950 . S
H3073 C3102 0.950 . S
H3074 C3104 0.950 1_556 S
H3075 C3105 0.950 . S
C3076 H3058 0.951 1_455 S
C3076 C3077 1.366 1_455 S
C3076 C3078 1.388 . S
C3077 C3076 1.366 1_655 S
C3077 C3081 1.385 1_655 S
C3078 H3059 0.926 1_556 S
C3078 C3076 1.388 . S
C3078 C3079 1.366 . S
C3079 C3078 1.366 . S
C3079 C3080 1.414 . S
C3079 C3082 1.499 . S
C3080 H3060 0.950 . S
C3080 C3079 1.414 . S
C3080 C3081 1.374 . S
C3081 H3061 0.950 . S
C3081 C3077 1.385 1_455 S
C3081 C3080 1.374 . S
C3082 C3079 1.499 . S
C3082 C3083 1.373 . S
C3082 C3084 1.389 . S
C3083 H3062 0.950 . S
C3083 C3082 1.373 . S
C3083 C3099 1.377 1_556 S
C3084 C3082 1.389 . S
C3084 C3085 1.524 . S
C3084 C3098 1.377 1_556 S
C3085 C3084 1.524 . S
C3085 C3086 1.397 . S
C3085 C3090 1.363 1_556 S
C3086 H3063 0.950 . S
C3086 C3085 1.397 . S
C3086 C3087 1.334 . S
C3087 H3064 0.950 . S
C3087 C3086 1.334 . S
C3087 C3088 1.287 . S
C3088 C3087 1.287 . S
C3088 C3089 1.524 . S
C3088 H3107 0.913 . S
C3089 H3065 0.950 1_556 S
C3089 C3088 1.524 . S
C3089 C3090 1.415 1_556 S
C3090 H3066 0.950 . S
C3090 C3085 1.363 1_554 S
C3090 C3089 1.415 1_554 S
C3091 H3067 0.951 . S
C3091 C3092 1.366 . S
C3091 C3093 1.388 . S
C3092 C3091 1.366 . S
C3092 C3096 1.385 . S
C3093 H3068 0.933 1_554 S
C3093 C3091 1.388 . S
C3093 C3094 1.366 . S
C3094 C3093 1.366 . S
C3094 C3095 1.414 . S
C3094 C3097 1.499 . S
C3095 H3069 0.950 . S
C3095 C3094 1.414 . S
C3095 C3096 1.374 . S
C3096 H3070 0.950 . S
C3096 C3092 1.385 . S
C3096 C3095 1.374 . S
C3097 C3094 1.499 . S
C3097 C3098 1.373 . S
C3097 C3099 1.389 . S
C3098 H3071 0.950 . S
C3098 C3084 1.377 1_554 S
C3098 C3097 1.373 . S
C3099 C3083 1.377 1_554 S
C3099 C3097 1.389 . S
C3099 C3100 1.524 . S
C3100 C3099 1.524 . S
C3100 C3101 1.397 . S
C3100 C3105 1.363 1_554 S
C3101 H3072 0.950 . S
C3101 C3100 1.397 . S
C3101 C3102 1.334 . S
C3102 H3073 0.950 . S
C3102 C3101 1.334 . S
C3102 C3103 1.287 . S
C3103 C3102 1.287 . S
C3103 C3104 1.524 . S
C3103 H3106 0.999 . S
C3104 H3074 0.950 1_554 S
C3104 C3103 1.524 . S
C3104 C3105 1.415 1_554 S
C3105 H3075 0.950 . S
C3105 C3100 1.363 1_556 S
C3105 C3104 1.415 1_556 S
H3106 C3103 0.999 . S
H3107 C3088 0.913 . S
H3108 C3126 0.951 . S
H3109 C3128 0.951 . S
H3110 C3130 0.950 . S
H3111 C3131 0.950 . S
H3112 C3133 0.950 . S
H3113 C3136 0.950 . S
H3114 C3137 0.950 . S
H3115 C3139 0.950 . S
H3116 C3140 0.983 . S
H3117 C3141 0.951 . S
H3118 C3143 0.951 . S
H3119 C3145 0.950 . S
H3120 C3146 0.950 . S
H3121 C3148 0.950 . S
H3122 C3151 0.950 . S
H3123 C3152 0.950 . S
H3124 C3154 0.950 . S
H3125 C3155 0.950 . S
C3126 H3108 0.951 . S
C3126 C3127 1.366 . S
C3126 C3128 1.388 . S
C3127 C3126 1.366 . S
C3127 C3131 1.385 . S
C3128 H3109 0.951 . S
C3128 C3126 1.388 . S
C3128 C3129 1.366 . S
C3129 C3128 1.366 . S
C3129 C3130 1.414 . S
C3129 C3132 1.499 . S
C3130 H3110 0.950 . S
C3130 C3129 1.414 . S
C3130 C3131 1.374 . S
C3131 H3111 0.950 . S
C3131 C3127 1.385 . S
C3131 C3130 1.374 . S
C3132 C3129 1.499 . S
C3132 C3133 1.373 . S
C3132 C3134 1.389 . S
C3133 H3112 0.950 . S
C3133 C3132 1.373 . S
C3133 C3149 1.377 . S
C3134 C3132 1.389 . S
C3134 C3135 1.524 . S
C3134 C3148 1.377 . S
C3135 C3134 1.524 . S
C3135 C3136 1.397 . S
C3135 C3140 1.363 1_655 S
C3136 H3113 0.950 . S
C3136 C3135 1.397 . S
C3136 C3137 1.334 1_655 S
C3137 H3114 0.950 . S
C3137 C3136 1.334 1_455 S
C3137 C3138 1.287 . S
C3138 C3137 1.287 . S
C3138 C3139 1.524 . S
C3138 H3157 0.913 . S
C3139 H3115 0.950 . S
C3139 C3138 1.524 . S
C3139 C3140 1.415 . S
C3140 H3116 0.983 . S
C3140 C3135 1.363 1_455 S
C3140 C3139 1.415 . S
C3141 H3117 0.951 . S
C3141 C3142 1.366 . S
C3141 C3143 1.388 . S
C3142 C3141 1.366 . S
C3142 C3146 1.385 . S
C3143 H3118 0.951 . S
C3143 C3141 1.388 . S
C3143 C3144 1.366 . S
C3144 C3143 1.366 . S
C3144 C3145 1.414 . S
C3144 C3147 1.499 . S
C3145 H3119 0.950 . S
C3145 C3144 1.414 . S
C3145 C3146 1.374 . S
C3146 H3120 0.950 . S
C3146 C3142 1.385 . S
C3146 C3145 1.374 . S
C3147 C3144 1.499 . S
C3147 C3148 1.373 . S
C3147 C3149 1.389 . S
C3148 H3121 0.950 . S
C3148 C3134 1.377 . S
C3148 C3147 1.373 . S
C3149 C3133 1.377 . S
C3149 C3147 1.389 . S
C3149 C3150 1.524 . S
C3150 C3149 1.524 . S
C3150 C3151 1.397 . S
C3150 C3155 1.363 . S
C3151 H3122 0.950 . S
C3151 C3150 1.397 . S
C3151 C3152 1.334 . S
C3152 H3123 0.950 . S
C3152 C3151 1.334 . S
C3152 C3153 1.287 . S
C3153 C3152 1.287 . S
C3153 C3154 1.524 . S
C3153 H3156 0.999 . S
C3154 H3124 0.950 . S
C3154 C3153 1.524 . S
C3154 C3155 1.415 . S
C3155 H3125 0.950 . S
C3155 C3150 1.363 . S
C3155 C3154 1.415 . S
H3156 C3153 0.999 . S
H3157 C3138 0.913 . S
H3158 C3176 0.951 . S
H3159 C3178 0.951 . S
H3160 C3180 0.950 . S
H3161 C3181 0.950 . S
H3162 C3183 0.950 . S
H3163 C3186 0.950 . S
H3164 C3187 0.950 . S
H3165 C3189 0.950 . S
H3166 C3190 0.950 . S
H3167 C3191 0.951 . S
H3168 C3193 0.951 . S
H3169 C3195 0.950 . S
H3170 C3196 0.950 . S
H3171 C3198 0.950 . S
H3172 C3201 0.950 . S
H3173 C3202 0.950 . S
H3174 C3204 0.950 . S
H3175 C3205 0.950 . S
C3176 H3158 0.951 . S
C3176 C3177 1.366 . S
C3176 C3178 1.388 . S
C3177 C3176 1.366 . S
C3177 C3181 1.385 . S
C3178 H3159 0.951 . S
C3178 C3176 1.388 . S
C3178 C3179 1.366 . S
C3179 C3178 1.366 . S
C3179 C3180 1.414 . S
C3179 C3182 1.499 . S
C3180 H3160 0.950 . S
C3180 C3179 1.414 . S
C3180 C3181 1.374 . S
C3181 H3161 0.950 . S
C3181 C3177 1.385 . S
C3181 C3180 1.374 . S
C3182 C3179 1.499 . S
C3182 C3183 1.373 . S
C3182 C3184 1.389 . S
C3183 H3162 0.950 . S
C3183 C3182 1.373 . S
C3183 C3199 1.377 . S
C3184 C3182 1.389 . S
C3184 C3185 1.524 . S
C3184 C3198 1.377 . S
C3185 C3184 1.524 . S
C3185 C3186 1.397 . S
C3185 C3190 1.363 . S
C3186 H3163 0.950 . S
C3186 C3185 1.397 . S
C3186 C3187 1.334 . S
C3187 H3164 0.950 . S
C3187 C3186 1.334 . S
C3187 C3188 1.287 . S
C3188 C3187 1.287 . S
C3188 C3189 1.524 . S
C3188 H3207 0.913 . S
C3189 H3165 0.950 . S
C3189 C3188 1.524 . S
C3189 C3190 1.415 . S
C3190 H3166 0.950 . S
C3190 C3185 1.363 . S
C3190 C3189 1.415 . S
C3191 H3167 0.951 . S
C3191 C3192 1.366 . S
C3191 C3193 1.388 . S
C3192 C3191 1.366 . S
C3192 C3196 1.385 . S
C3193 H3168 0.951 . S
C3193 C3191 1.388 . S
C3193 C3194 1.366 . S
C3194 C3193 1.366 . S
C3194 C3195 1.414 . S
C3194 C3197 1.499 . S
C3195 H3169 0.950 . S
C3195 C3194 1.414 . S
C3195 C3196 1.374 . S
C3196 H3170 0.950 . S
C3196 C3192 1.385 . S
C3196 C3195 1.374 . S
C3197 C3194 1.499 . S
C3197 C3198 1.373 . S
C3197 C3199 1.389 . S
C3198 H3171 0.950 . S
C3198 C3184 1.377 . S
C3198 C3197 1.373 . S
C3199 C3183 1.377 . S
C3199 C3197 1.389 . S
C3199 C3200 1.524 . S
C3200 C3199 1.524 . S
C3200 C3201 1.397 . S
C3200 C3205 1.363 . S
C3201 H3172 0.950 . S
C3201 C3200 1.397 . S
C3201 C3202 1.334 . S
C3202 H3173 0.950 . S
C3202 C3201 1.334 . S
C3202 C3203 1.287 . S
C3203 C3202 1.287 . S
C3203 C3204 1.524 . S
C3203 H3206 0.999 . S
C3204 H3174 0.950 . S
C3204 C3203 1.524 . S
C3204 C3205 1.415 . S
C3205 H3175 0.950 . S
C3205 C3200 1.363 . S
C3205 C3204 1.415 . S
H3206 C3203 0.999 . S
H3207 C3188 0.913 . S
H3208 C3226 0.951 . S
H3209 C3228 0.951 . S
H3210 C3230 0.950 . S
H3211 C3231 0.950 . S
H3212 C3233 0.950 . S
H3213 C3236 0.950 . S
H3214 C3237 0.950 . S
H3215 C3239 0.950 . S
H3216 C3240 0.950 . S
H3217 C3241 0.951 . S
H3218 C3243 0.951 . S
H3219 C3245 0.950 . S
H3220 C3246 0.950 . S
H3221 C3248 0.950 . S
H3222 C3251 0.950 . S
H3223 C3252 0.950 . S
H3224 C3254 0.950 . S
H3225 C3255 0.950 . S
C3226 H3208 0.951 . S
C3226 C3227 1.366 . S
C3226 C3228 1.388 . S
C3227 C3226 1.366 . S
C3227 C3231 1.385 . S
C3228 H3209 0.951 . S
C3228 C3226 1.388 . S
C3228 C3229 1.366 . S
C3229 C3228 1.366 . S
C3229 C3230 1.414 . S
C3229 C3232 1.499 . S
C3230 H3210 0.950 . S
C3230 C3229 1.414 . S
C3230 C3231 1.374 . S
C3231 H3211 0.950 . S
C3231 C3227 1.385 . S
C3231 C3230 1.374 . S
C3232 C3229 1.499 . S
C3232 C3233 1.373 . S
C3232 C3234 1.389 . S
C3233 H3212 0.950 . S
C3233 C3232 1.373 . S
C3233 C3249 1.377 . S
C3234 C3232 1.389 . S
C3234 C3235 1.524 . S
C3234 C3248 1.377 . S
C3235 C3234 1.524 . S
C3235 C3236 1.397 . S
C3235 C3240 1.363 . S
C3236 H3213 0.950 . S
C3236 C3235 1.397 . S
C3236 C3237 1.334 1_545 S
C3237 H3214 0.950 . S
C3237 C3236 1.334 1_565 S
C3237 C3238 1.287 . S
C3238 C3237 1.287 . S
C3238 C3239 1.524 . S
C3238 H3257 0.913 . S
C3239 H3215 0.950 . S
C3239 C3238 1.524 . S
C3239 C3240 1.415 1_565 S
C3240 H3216 0.950 . S
C3240 C3235 1.363 . S
C3240 C3239 1.415 1_545 S
C3241 H3217 0.951 . S
C3241 C3242 1.366 . S
C3241 C3243 1.388 . S
C3242 C3241 1.366 . S
C3242 C3246 1.385 . S
C3243 H3218 0.951 . S
C3243 C3241 1.388 . S
C3243 C3244 1.366 . S
C3244 C3243 1.366 . S
C3244 C3245 1.414 . S
C3244 C3247 1.499 . S
C3245 H3219 0.950 . S
C3245 C3244 1.414 . S
C3245 C3246 1.374 . S
C3246 H3220 0.950 . S
C3246 C3242 1.385 . S
C3246 C3245 1.374 . S
C3247 C3244 1.499 . S
C3247 C3248 1.373 . S
C3247 C3249 1.389 . S
C3248 H3221 0.950 . S
C3248 C3234 1.377 . S
C3248 C3247 1.373 . S
C3249 C3233 1.377 . S
C3249 C3247 1.389 . S
C3249 C3250 1.524 . S
C3250 C3249 1.524 . S
C3250 C3251 1.397 . S
C3250 C3255 1.363 . S
C3251 H3222 0.950 . S
C3251 C3250 1.397 . S
C3251 C3252 1.334 . S
C3252 H3223 0.950 . S
C3252 C3251 1.334 . S
C3252 C3253 1.287 . S
C3253 C3252 1.287 . S
C3253 C3254 1.524 . S
C3253 H3256 0.999 . S
C3254 H3224 0.950 . S
C3254 C3253 1.524 . S
C3254 C3255 1.415 . S
C3255 H3225 0.950 . S
C3255 C3250 1.363 . S
C3255 C3254 1.415 . S
H3256 C3253 0.999 . S
H3257 C3238 0.913 . S
H3258 C3276 0.951 . S
H3259 C3278 0.951 . S
H3260 C3280 0.950 . S
H3261 C3281 0.950 . S
H3262 C3283 0.950 . S
H3263 C3286 0.950 . S
H3264 C3287 0.950 . S
H3265 C3289 0.950 . S
H3266 C3290 0.950 . S
H3267 C3291 0.951 . S
H3268 C3293 0.951 . S
H3269 C3295 0.950 . S
H3270 C3296 0.950 . S
H3271 C3298 0.950 . S
H3272 C3301 0.950 . S
H3273 C3302 0.950 . S
H3274 C3304 0.950 . S
H3275 C3305 0.950 . S
C3276 H3258 0.951 . S
C3276 C3277 1.366 . S
C3276 C3278 1.388 . S
C3277 C3276 1.366 . S
C3277 C3281 1.385 . S
C3278 H3259 0.951 . S
C3278 C3276 1.388 . S
C3278 C3279 1.366 . S
C3279 C3278 1.366 . S
C3279 C3280 1.414 . S
C3279 C3282 1.499 . S
C3280 H3260 0.950 . S
C3280 C3279 1.414 . S
C3280 C3281 1.374 . S
C3281 H3261 0.950 . S
C3281 C3277 1.385 . S
C3281 C3280 1.374 . S
C3282 C3279 1.499 . S
C3282 C3283 1.373 . S
C3282 C3284 1.389 . S
C3283 H3262 0.950 . S
C3283 C3282 1.373 . S
C3283 C3299 1.377 . S
C3284 C3282 1.389 . S
C3284 C3285 1.524 . S
C3284 C3298 1.377 . S
C3285 C3284 1.524 . S
C3285 C3286 1.397 . S
C3285 C3290 1.363 . S
C3286 H3263 0.950 . S
C3286 C3285 1.397 . S
C3286 C3287 1.334 . S
C3287 H3264 0.950 . S
C3287 C3286 1.334 . S
C3287 C3288 1.287 . S
C3288 C3287 1.287 . S
C3288 C3289 1.524 . S
C3288 H3307 0.913 . S
C3289 H3265 0.950 . S
C3289 C3288 1.524 . S
C3289 C3290 1.415 . S
C3290 H3266 0.950 . S
C3290 C3285 1.363 . S
C3290 C3289 1.415 . S
C3291 H3267 0.951 . S
C3291 C3292 1.366 . S
C3291 C3293 1.388 . S
C3292 C3291 1.366 . S
C3292 C3296 1.385 . S
C3293 H3268 0.951 . S
C3293 C3291 1.388 . S
C3293 C3294 1.366 . S
C3294 C3293 1.366 . S
C3294 C3295 1.414 . S
C3294 C3297 1.499 . S
C3295 H3269 0.950 . S
C3295 C3294 1.414 . S
C3295 C3296 1.374 . S
C3296 H3270 0.950 . S
C3296 C3292 1.385 . S
C3296 C3295 1.374 . S
C3297 C3294 1.499 . S
C3297 C3298 1.373 . S
C3297 C3299 1.389 . S
C3298 H3271 0.950 . S
C3298 C3284 1.377 . S
C3298 C3297 1.373 . S
C3299 C3283 1.377 . S
C3299 C3297 1.389 . S
C3299 C3300 1.524 . S
C3300 C3299 1.524 . S
C3300 C3301 1.397 . S
C3300 C3305 1.363 . S
C3301 H3272 0.950 . S
C3301 C3300 1.397 . S
C3301 C3302 1.334 . S
C3302 H3273 0.950 . S
C3302 C3301 1.334 . S
C3302 C3303 1.287 . S
C3303 C3302 1.287 . S
C3303 C3304 1.524 . S
C3303 H3306 0.999 . S
C3304 H3274 0.950 . S
C3304 C3303 1.524 . S
C3304 C3305 1.415 . S
C3305 H3275 0.950 . S
C3305 C3300 1.363 . S
C3305 C3304 1.415 . S
H3306 C3303 0.999 . S
H3307 C3288 0.913 . S
H3308 C3326 0.951 . S
H3309 C3328 0.951 . S
H3310 C3330 0.950 . S
H3311 C3331 0.950 . S
H3312 C3333 0.950 . S
H3313 C3336 0.950 . S
H3314 C3337 0.950 . S
H3315 C3339 0.950 . S
H3316 C3340 0.950 . S
H3317 C3341 0.951 . S
H3318 C3343 0.951 . S
H3319 C3345 0.950 . S
H3320 C3346 0.950 . S
H3321 C3348 0.950 . S
H3322 C3351 0.950 . S
H3323 C3352 0.950 . S
H3324 C3354 0.950 . S
H3325 C3355 0.950 . S
C3326 H3308 0.951 . S
C3326 C3327 1.366 . S
C3326 C3328 1.388 . S
C3327 C3326 1.366 . S
C3327 C3331 1.385 . S
C3328 H3309 0.951 . S
C3328 C3326 1.388 . S
C3328 C3329 1.366 . S
C3329 C3328 1.366 . S
C3329 C3330 1.414 . S
C3329 C3332 1.499 . S
C3330 H3310 0.950 . S
C3330 C3329 1.414 . S
C3330 C3331 1.374 . S
C3331 H3311 0.950 . S
C3331 C3327 1.385 . S
C3331 C3330 1.374 . S
C3332 C3329 1.499 . S
C3332 C3333 1.373 . S
C3332 C3334 1.389 . S
C3333 H3312 0.950 . S
C3333 C3332 1.373 . S
C3333 C3349 1.377 . S
C3334 C3332 1.389 . S
C3334 C3335 1.524 . S
C3334 C3348 1.377 . S
C3335 C3334 1.524 . S
C3335 C3336 1.397 . S
C3335 C3340 1.363 . S
C3336 H3313 0.950 . S
C3336 C3335 1.397 . S
C3336 C3337 1.334 . S
C3337 H3314 0.950 . S
C3337 C3336 1.334 . S
C3337 C3338 1.287 . S
C3338 C3337 1.287 . S
C3338 C3339 1.524 . S
C3338 H3357 0.913 . S
C3339 H3315 0.950 . S
C3339 C3338 1.524 . S
C3339 C3340 1.415 . S
C3340 H3316 0.950 . S
C3340 C3335 1.363 . S
C3340 C3339 1.415 . S
C3341 H3317 0.951 . S
C3341 C3342 1.366 . S
C3341 C3343 1.388 . S
C3342 C3341 1.366 . S
C3342 C3346 1.385 . S
C3343 H3318 0.951 . S
C3343 C3341 1.388 . S
C3343 C3344 1.366 . S
C3344 C3343 1.366 . S
C3344 C3345 1.414 . S
C3344 C3347 1.499 . S
C3345 H3319 0.950 . S
C3345 C3344 1.414 . S
C3345 C3346 1.374 . S
C3346 H3320 0.950 . S
C3346 C3342 1.385 . S
C3346 C3345 1.374 . S
C3347 C3344 1.499 . S
C3347 C3348 1.373 . S
C3347 C3349 1.389 . S
C3348 H3321 0.950 . S
C3348 C3334 1.377 . S
C3348 C3347 1.373 . S
C3349 C3333 1.377 . S
C3349 C3347 1.389 . S
C3349 C3350 1.524 . S
C3350 C3349 1.524 . S
C3350 C3351 1.397 . S
C3350 C3355 1.363 . S
C3351 H3322 0.950 . S
C3351 C3350 1.397 . S
C3351 C3352 1.334 . S
C3352 H3323 0.950 . S
C3352 C3351 1.334 . S
C3352 C3353 1.287 . S
C3353 C3352 1.287 . S
C3353 C3354 1.524 . S
C3353 H3356 0.999 . S
C3354 H3324 0.950 . S
C3354 C3353 1.524 . S
C3354 C3355 1.415 . S
C3355 H3325 0.950 . S
C3355 C3350 1.363 . S
C3355 C3354 1.415 . S
H3356 C3353 0.999 . S
H3357 C3338 0.913 . S
H3358 C3376 0.951 . S
H3359 C3378 0.951 . S
H3360 C3380 0.950 . S
H3361 C3381 0.950 . S
H3362 C3383 0.950 . S
H3363 C3386 0.950 . S
H3364 C3387 0.950 . S
H3365 C3389 0.950 . S
H3366 C3390 0.950 . S
H3367 C3391 0.951 . S
H3368 C3393 0.951 . S
H3369 C3395 0.950 . S
H3370 C3396 0.950 . S
H3371 C3398 0.950 . S
H3372 C3401 0.950 . S
H3373 C3402 0.950 . S
H3374 C3404 0.950 . S
H3375 C3405 0.950 . S
C3376 H3358 0.951 . S
C3376 C3377 1.366 . S
C3376 C3378 1.388 . S
C3377 C3376 1.366 . S
C3377 C3381 1.385 . S
C3378 H3359 0.951 . S
C3378 C3376 1.388 . S
C3378 C3379 1.366 . S
C3379 C3378 1.366 . S
C3379 C3380 1.414 . S
C3379 C3382 1.499 . S
C3380 H3360 0.950 . S
C3380 C3379 1.414 . S
C3380 C3381 1.374 . S
C3381 H3361 0.950 . S
C3381 C3377 1.385 . S
C3381 C3380 1.374 . S
C3382 C3379 1.499 . S
C3382 C3383 1.373 . S
C3382 C3384 1.389 . S
C3383 H3362 0.950 . S
C3383 C3382 1.373 . S
C3383 C3399 1.377 . S
C3384 C3382 1.389 . S
C3384 C3385 1.524 . S
C3384 C3398 1.377 . S
C3385 C3384 1.524 . S
C3385 C3386 1.397 . S
C3385 C3390 1.363 . S
C3386 H3363 0.950 . S
C3386 C3385 1.397 . S
C3386 C3387 1.334 . S
C3387 H3364 0.950 . S
C3387 C3386 1.334 . S
C3387 C3388 1.287 . S
C3388 C3387 1.287 . S
C3388 C3389 1.524 . S
C3388 H3407 0.913 . S
C3389 H3365 0.950 . S
C3389 C3388 1.524 . S
C3389 C3390 1.415 . S
C3390 H3366 0.950 . S
C3390 C3385 1.363 . S
C3390 C3389 1.415 . S
C3391 H3367 0.951 . S
C3391 C3392 1.366 . S
C3391 C3393 1.388 . S
C3392 C3391 1.366 . S
C3392 C3396 1.385 . S
C3393 H3368 0.951 . S
C3393 C3391 1.388 . S
C3393 C3394 1.366 . S
C3394 C3393 1.366 . S
C3394 C3395 1.414 . S
C3394 C3397 1.499 . S
C3395 H3369 0.950 . S
C3395 C3394 1.414 . S
C3395 C3396 1.374 . S
C3396 H3370 0.950 . S
C3396 C3392 1.385 . S
C3396 C3395 1.374 . S
C3397 C3394 1.499 . S
C3397 C3398 1.373 . S
C3397 C3399 1.389 . S
C3398 H3371 0.950 . S
C3398 C3384 1.377 . S
C3398 C3397 1.373 . S
C3399 C3383 1.377 . S
C3399 C3397 1.389 . S
C3399 C3400 1.524 . S
C3400 C3399 1.524 . S
C3400 C3401 1.397 . S
C3400 C3405 1.363 . S
C3401 H3372 0.950 . S
C3401 C3400 1.397 . S
C3401 C3402 1.334 . S
C3402 H3373 0.950 . S
C3402 C3401 1.334 . S
C3402 C3403 1.287 . S
C3403 C3402 1.287 . S
C3403 C3404 1.524 . S
C3403 H3406 0.999 . S
C3404 H3374 0.950 . S
C3404 C3403 1.524 . S
C3404 C3405 1.415 . S
C3405 H3375 0.950 . S
C3405 C3400 1.363 . S
C3405 C3404 1.415 . S
H3406 C3403 0.999 . S
H3407 C3388 0.913 . S
H3408 C3426 0.951 . S
H3409 C3428 0.951 . S
H3410 C3430 0.950 . S
H3411 C3431 0.950 . S
H3412 C3433 0.950 . S
H3413 C3436 0.950 . S
H3414 C3437 0.950 . S
H3415 C3439 0.950 . S
H3416 C3440 0.950 . S
H3417 C3441 0.951 . S
H3418 C3443 0.951 . S
H3419 C3445 0.950 . S
H3420 C3446 0.950 . S
H3421 C3448 0.950 . S
H3422 C3451 0.950 . S
H3423 C3452 0.950 . S
H3424 C3454 0.950 . S
H3425 C3455 0.950 . S
C3426 H3408 0.951 . S
C3426 C3427 1.366 . S
C3426 C3428 1.388 . S
C3427 C3426 1.366 . S
C3427 C3431 1.385 . S
C3428 H3409 0.951 . S
C3428 C3426 1.388 . S
C3428 C3429 1.366 . S
C3429 C3428 1.366 . S
C3429 C3430 1.414 . S
C3429 C3432 1.499 . S
C3430 H3410 0.950 . S
C3430 C3429 1.414 . S
C3430 C3431 1.374 . S
C3431 H3411 0.950 . S
C3431 C3427 1.385 . S
C3431 C3430 1.374 . S
C3432 C3429 1.499 . S
C3432 C3433 1.373 . S
C3432 C3434 1.389 . S
C3433 H3412 0.950 . S
C3433 C3432 1.373 . S
C3433 C3449 1.377 . S
C3434 C3432 1.389 . S
C3434 C3435 1.524 . S
C3434 C3448 1.377 . S
C3435 C3434 1.524 . S
C3435 C3436 1.397 . S
C3435 C3440 1.363 . S
C3436 H3413 0.950 . S
C3436 C3435 1.397 . S
C3436 C3437 1.334 . S
C3437 H3414 0.950 . S
C3437 C3436 1.334 . S
C3437 C3438 1.287 . S
C3438 C3437 1.287 . S
C3438 C3439 1.524 . S
C3438 H3457 0.913 . S
C3439 H3415 0.950 . S
C3439 C3438 1.524 . S
C3439 C3440 1.415 . S
C3440 H3416 0.950 . S
C3440 C3435 1.363 . S
C3440 C3439 1.415 . S
C3441 H3417 0.951 . S
C3441 C3442 1.366 . S
C3441 C3443 1.388 . S
C3442 C3441 1.366 . S
C3442 C3446 1.385 . S
C3443 H3418 0.951 . S
C3443 C3441 1.388 . S
C3443 C3444 1.366 . S
C3444 C3443 1.366 . S
C3444 C3445 1.414 . S
C3444 C3447 1.499 . S
C3445 H3419 0.950 . S
C3445 C3444 1.414 . S
C3445 C3446 1.374 . S
C3446 H3420 0.950 . S
C3446 C3442 1.385 . S
C3446 C3445 1.374 . S
C3447 C3444 1.499 . S
C3447 C3448 1.373 . S
C3447 C3449 1.389 . S
C3448 H3421 0.950 . S
C3448 C3434 1.377 . S
C3448 C3447 1.373 . S
C3449 C3433 1.377 . S
C3449 C3447 1.389 . S
C3449 C3450 1.524 . S
C3450 C3449 1.524 . S
C3450 C3451 1.397 . S
C3450 C3455 1.363 . S
C3451 H3422 0.950 . S
C3451 C3450 1.397 . S
C3451 C3452 1.334 . S
C3452 H3423 0.950 . S
C3452 C3451 1.334 . S
C3452 C3453 1.287 . S
C3453 C3452 1.287 . S
C3453 C3454 1.524 . S
C3453 H3456 0.999 . S
C3454 H3424 0.950 . S
C3454 C3453 1.524 . S
C3454 C3455 1.415 . S
C3455 H3425 0.950 . S
C3455 C3450 1.363 . S
C3455 C3454 1.415 . S
H3456 C3453 0.999 . S
H3457 C3438 0.913 . S
H3458 C3476 0.951 . S
H3459 C3478 0.951 . S
H3460 C3480 0.950 . S
H3461 C3481 0.950 . S
H3462 C3483 0.950 . S
H3463 C3486 0.950 . S
H3464 C3487 0.950 . S
H3465 C3489 0.950 . S
H3466 C3490 0.950 . S
H3467 C3491 0.951 . S
H3468 C3493 0.951 . S
H3469 C3495 0.950 . S
H3470 C3496 0.950 . S
H3471 C3498 0.950 . S
H3472 C3501 0.950 . S
H3473 C3502 0.950 . S
H3474 C3504 0.950 . S
H3475 C3505 0.950 . S
C3476 H3458 0.951 . S
C3476 C3477 1.366 . S
C3476 C3478 1.388 . S
C3477 C3476 1.366 . S
C3477 C3481 1.385 . S
C3478 H3459 0.951 . S
C3478 C3476 1.388 . S
C3478 C3479 1.366 . S
C3479 C3478 1.366 . S
C3479 C3480 1.414 . S
C3479 C3482 1.499 . S
C3480 H3460 0.950 . S
C3480 C3479 1.414 . S
C3480 C3481 1.374 . S
C3481 H3461 0.950 . S
C3481 C3477 1.385 . S
C3481 C3480 1.374 . S
C3482 C3479 1.499 . S
C3482 C3483 1.373 . S
C3482 C3484 1.389 . S
C3483 H3462 0.950 . S
C3483 C3482 1.373 . S
C3483 C3499 1.377 . S
C3484 C3482 1.389 . S
C3484 C3485 1.524 . S
C3484 C3498 1.377 . S
C3485 C3484 1.524 . S
C3485 C3486 1.397 . S
C3485 C3490 1.363 . S
C3486 H3463 0.950 . S
C3486 C3485 1.397 . S
C3486 C3487 1.334 . S
C3487 H3464 0.950 . S
C3487 C3486 1.334 . S
C3487 C3488 1.287 . S
C3488 C3487 1.287 . S
C3488 C3489 1.524 . S
C3488 H3507 0.913 . S
C3489 H3465 0.950 . S
C3489 C3488 1.524 . S
C3489 C3490 1.415 . S
C3490 H3466 0.950 . S
C3490 C3485 1.363 . S
C3490 C3489 1.415 . S
C3491 H3467 0.951 . S
C3491 C3492 1.366 . S
C3491 C3493 1.388 . S
C3492 C3491 1.366 . S
C3492 C3496 1.385 . S
C3493 H3468 0.951 . S
C3493 C3491 1.388 . S
C3493 C3494 1.366 . S
C3494 C3493 1.366 . S
C3494 C3495 1.414 . S
C3494 C3497 1.499 . S
C3495 H3469 0.950 . S
C3495 C3494 1.414 . S
C3495 C3496 1.374 . S
C3496 H3470 0.950 . S
C3496 C3492 1.385 . S
C3496 C3495 1.374 . S
C3497 C3494 1.499 . S
C3497 C3498 1.373 . S
C3497 C3499 1.389 . S
C3498 H3471 0.950 . S
C3498 C3484 1.377 . S
C3498 C3497 1.373 . S
C3499 C3483 1.377 . S
C3499 C3497 1.389 . S
C3499 C3500 1.524 . S
C3500 C3499 1.524 . S
C3500 C3501 1.397 . S
C3500 C3505 1.363 . S
C3501 H3472 0.950 . S
C3501 C3500 1.397 . S
C3501 C3502 1.334 . S
C3502 H3473 0.950 . S
C3502 C3501 1.334 . S
C3502 C3503 1.287 . S
C3503 C3502 1.287 . S
C3503 C3504 1.524 . S
C3503 H3506 0.999 . S
C3504 H3474 0.950 . S
C3504 C3503 1.524 . S
C3504 C3505 1.415 . S
C3505 H3475 0.950 . S
C3505 C3500 1.363 . S
C3505 C3504 1.415 . S
H3506 C3503 0.999 . S
H3507 C3488 0.913 . S
H3508 C3526 0.951 . S
H3509 C3528 0.951 . S
H3510 C3530 0.950 . S
H3511 C3531 0.950 . S
H3512 C3533 0.950 . S
H3513 C3536 0.950 . S
H3514 C3537 0.950 . S
H3515 C3539 0.950 . S
H3516 C3540 0.950 . S
H3517 C3541 0.951 . S
H3518 C3543 0.951 . S
H3519 C3545 0.950 . S
H3520 C3546 0.950 . S
H3521 C3548 0.950 . S
H3522 C3551 0.950 . S
H3523 C3552 0.950 . S
H3524 C3554 0.950 . S
H3525 C3555 0.950 . S
C3526 H3508 0.951 . S
C3526 C3527 1.366 . S
C3526 C3528 1.388 . S
C3527 C3526 1.366 . S
C3527 C3531 1.385 . S
C3528 H3509 0.951 . S
C3528 C3526 1.388 . S
C3528 C3529 1.366 . S
C3529 C3528 1.366 . S
C3529 C3530 1.414 . S
C3529 C3532 1.499 . S
C3530 H3510 0.950 . S
C3530 C3529 1.414 . S
C3530 C3531 1.374 . S
C3531 H3511 0.950 . S
C3531 C3527 1.385 . S
C3531 C3530 1.374 . S
C3532 C3529 1.499 . S
C3532 C3533 1.373 . S
C3532 C3534 1.389 . S
C3533 H3512 0.950 . S
C3533 C3532 1.373 . S
C3533 C3549 1.377 . S
C3534 C3532 1.389 . S
C3534 C3535 1.524 . S
C3534 C3548 1.377 . S
C3535 C3534 1.524 . S
C3535 C3536 1.397 . S
C3535 C3540 1.363 . S
C3536 H3513 0.950 . S
C3536 C3535 1.397 . S
C3536 C3537 1.334 . S
C3537 H3514 0.950 . S
C3537 C3536 1.334 . S
C3537 C3538 1.287 . S
C3538 C3537 1.287 . S
C3538 C3539 1.524 . S
C3538 H3557 0.913 . S
C3539 H3515 0.950 . S
C3539 C3538 1.524 . S
C3539 C3540 1.415 . S
C3540 H3516 0.950 . S
C3540 C3535 1.363 . S
C3540 C3539 1.415 . S
C3541 H3517 0.951 . S
C3541 C3542 1.366 . S
C3541 C3543 1.388 . S
C3542 C3541 1.366 . S
C3542 C3546 1.385 . S
C3543 H3518 0.951 . S
C3543 C3541 1.388 . S
C3543 C3544 1.366 . S
C3544 C3543 1.366 . S
C3544 C3545 1.414 . S
C3544 C3547 1.499 . S
C3545 H3519 0.950 . S
C3545 C3544 1.414 . S
C3545 C3546 1.374 . S
C3546 H3520 0.950 . S
C3546 C3542 1.385 . S
C3546 C3545 1.374 . S
C3547 C3544 1.499 . S
C3547 C3548 1.373 . S
C3547 C3549 1.389 . S
C3548 H3521 0.950 . S
C3548 C3534 1.377 . S
C3548 C3547 1.373 . S
C3549 C3533 1.377 . S
C3549 C3547 1.389 . S
C3549 C3550 1.524 . S
C3550 C3549 1.524 . S
C3550 C3551 1.397 . S
C3550 C3555 1.363 . S
C3551 H3522 0.950 . S
C3551 C3550 1.397 . S
C3551 C3552 1.334 . S
C3552 H3523 0.950 . S
C3552 C3551 1.334 . S
C3552 C3553 1.287 . S
C3553 C3552 1.287 . S
C3553 C3554 1.524 . S
C3553 H3556 0.999 . S
C3554 H3524 0.950 . S
C3554 C3553 1.524 . S
C3554 C3555 1.415 . S
C3555 H3525 0.950 . S
C3555 C3550 1.363 . S
C3555 C3554 1.415 . S
H3556 C3553 0.999 . S
H3557 C3538 0.913 . S
H3558 C3576 0.951 . S
H3559 C3578 0.951 . S
H3560 C3580 0.950 . S
H3561 C3581 0.950 . S
H3562 C3583 0.950 . S
H3563 C3586 0.950 . S
H3564 C3587 0.950 . S
H3565 C3589 0.950 . S
H3566 C3590 0.950 . S
H3567 C3591 0.951 . S
H3568 C3593 0.951 . S
H3569 C3595 0.950 . S
H3570 C3596 0.950 . S
H3571 C3598 0.950 . S
H3572 C3601 0.950 . S
H3573 C3602 0.950 . S
H3574 C3604 0.950 . S
H3575 C3605 0.950 . S
C3576 H3558 0.951 . S
C3576 C3577 1.366 . S
C3576 C3578 1.388 . S
C3577 C3576 1.366 . S
C3577 C3581 1.385 . S
C3578 H3559 0.951 . S
C3578 C3576 1.388 . S
C3578 C3579 1.366 . S
C3579 C3578 1.366 . S
C3579 C3580 1.414 . S
C3579 C3582 1.499 . S
C3580 H3560 0.950 . S
C3580 C3579 1.414 . S
C3580 C3581 1.374 . S
C3581 H3561 0.950 . S
C3581 C3577 1.385 . S
C3581 C3580 1.374 . S
C3582 C3579 1.499 . S
C3582 C3583 1.373 . S
C3582 C3584 1.389 . S
C3583 H3562 0.950 . S
C3583 C3582 1.373 . S
C3583 C3599 1.377 . S
C3584 C3582 1.389 . S
C3584 C3585 1.524 . S
C3584 C3598 1.377 . S
C3585 C3584 1.524 . S
C3585 C3586 1.397 . S
C3585 C3590 1.363 . S
C3586 H3563 0.950 . S
C3586 C3585 1.397 . S
C3586 C3587 1.334 . S
C3587 H3564 0.950 . S
C3587 C3586 1.334 . S
C3587 C3588 1.287 . S
C3588 C3587 1.287 . S
C3588 C3589 1.524 . S
C3588 H3607 0.913 . S
C3589 H3565 0.950 . S
C3589 C3588 1.524 . S
C3589 C3590 1.415 . S
C3590 H3566 0.950 . S
C3590 C3585 1.363 . S
C3590 C3589 1.415 . S
C3591 H3567 0.951 . S
C3591 C3592 1.366 . S
C3591 C3593 1.388 . S
C3592 C3591 1.366 . S
C3592 C3596 1.385 . S
C3593 H3568 0.951 . S
C3593 C3591 1.388 . S
C3593 C3594 1.366 . S
C3594 C3593 1.366 . S
C3594 C3595 1.414 . S
C3594 C3597 1.499 . S
C3595 H3569 0.950 . S
C3595 C3594 1.414 . S
C3595 C3596 1.374 . S
C3596 H3570 0.950 . S
C3596 C3592 1.385 . S
C3596 C3595 1.374 . S
C3597 C3594 1.499 . S
C3597 C3598 1.373 . S
C3597 C3599 1.389 . S
C3598 H3571 0.950 . S
C3598 C3584 1.377 . S
C3598 C3597 1.373 . S
C3599 C3583 1.377 . S
C3599 C3597 1.389 . S
C3599 C3600 1.524 . S
C3600 C3599 1.524 . S
C3600 C3601 1.397 . S
C3600 C3605 1.363 . S
C3601 H3572 0.950 . S
C3601 C3600 1.397 . S
C3601 C3602 1.334 . S
C3602 H3573 0.950 . S
C3602 C3601 1.334 . S
C3602 C3603 1.287 1_455 S
C3603 C3602 1.287 1_655 S
C3603 C3604 1.524 . S
C3603 H3606 0.999 . S
C3604 H3574 0.950 . S
C3604 C3603 1.524 . S
C3604 C3605 1.415 1_655 S
C3605 H3575 0.950 . S
C3605 C3600 1.363 . S
C3605 C3604 1.415 1_455 S
H3606 C3603 0.999 . S
H3607 C3588 0.913 . S
H3608 C3626 0.951 . S
H3609 C3628 0.951 . S
H3610 C3630 0.950 . S
H3611 C3631 0.950 . S
H3612 C3633 0.950 . S
H3613 C3636 0.950 . S
H3614 C3637 0.950 . S
H3615 C3639 0.950 . S
H3616 C3640 0.950 . S
H3617 C3641 0.951 . S
H3618 C3643 0.951 . S
H3619 C3645 0.950 . S
H3620 C3646 0.950 . S
H3621 C3648 0.950 . S
H3622 C3651 0.950 . S
H3623 C3652 0.950 . S
H3624 C3654 0.950 . S
H3625 C3655 0.950 . S
C3626 H3608 0.951 . S
C3626 C3627 1.366 . S
C3626 C3628 1.388 . S
C3627 C3626 1.366 . S
C3627 C3631 1.385 . S
C3628 H3609 0.951 . S
C3628 C3626 1.388 . S
C3628 C3629 1.366 . S
C3629 C3628 1.366 . S
C3629 C3630 1.414 . S
C3629 C3632 1.499 . S
C3630 H3610 0.950 . S
C3630 C3629 1.414 . S
C3630 C3631 1.374 . S
C3631 H3611 0.950 . S
C3631 C3627 1.385 . S
C3631 C3630 1.374 . S
C3632 C3629 1.499 . S
C3632 C3633 1.373 . S
C3632 C3634 1.389 . S
C3633 H3612 0.950 . S
C3633 C3632 1.373 . S
C3633 C3649 1.377 . S
C3634 C3632 1.389 . S
C3634 C3635 1.524 . S
C3634 C3648 1.377 . S
C3635 C3634 1.524 . S
C3635 C3636 1.397 . S
C3635 C3640 1.363 . S
C3636 H3613 0.950 . S
C3636 C3635 1.397 . S
C3636 C3637 1.334 . S
C3637 H3614 0.950 . S
C3637 C3636 1.334 . S
C3637 C3638 1.287 . S
C3638 C3637 1.287 . S
C3638 C3639 1.524 . S
C3638 H3657 0.913 . S
C3639 H3615 0.950 . S
C3639 C3638 1.524 . S
C3639 C3640 1.415 . S
C3640 H3616 0.950 . S
C3640 C3635 1.363 . S
C3640 C3639 1.415 . S
C3641 H3617 0.951 . S
C3641 C3642 1.366 . S
C3641 C3643 1.388 . S
C3642 C3641 1.366 . S
C3642 C3646 1.385 . S
C3643 H3618 0.951 . S
C3643 C3641 1.388 . S
C3643 C3644 1.366 . S
C3644 C3643 1.366 . S
C3644 C3645 1.414 . S
C3644 C3647 1.499 . S
C3645 H3619 0.950 . S
C3645 C3644 1.414 . S
C3645 C3646 1.374 . S
C3646 H3620 0.950 . S
C3646 C3642 1.385 . S
C3646 C3645 1.374 . S
C3647 C3644 1.499 . S
C3647 C3648 1.373 . S
C3647 C3649 1.389 . S
C3648 H3621 0.950 . S
C3648 C3634 1.377 . S
C3648 C3647 1.373 . S
C3649 C3633 1.377 . S
C3649 C3647 1.389 . S
C3649 C3650 1.524 . S
C3650 C3649 1.524 . S
C3650 C3651 1.397 . S
C3650 C3655 1.363 . S
C3651 H3622 0.950 . S
C3651 C3650 1.397 . S
C3651 C3652 1.334 . S
C3652 H3623 0.950 . S
C3652 C3651 1.334 . S
C3652 C3653 1.287 . S
C3653 C3652 1.287 . S
C3653 C3654 1.524 . S
C3653 H3656 0.999 . S
C3654 H3624 0.950 . S
C3654 C3653 1.524 . S
C3654 C3655 1.415 . S
C3655 H3625 0.950 . S
C3655 C3650 1.363 . S
C3655 C3654 1.415 . S
H3656 C3653 0.999 . S
H3657 C3638 0.913 . S
H3658 C3676 0.951 . S
H3659 C3678 0.951 . S
H3660 C3680 0.950 . S
H3661 C3681 0.950 . S
H3662 C3683 0.950 . S
H3663 C3686 0.950 . S
H3664 C3687 0.950 . S
H3665 C3689 0.950 . S
H3666 C3690 0.950 . S
H3667 C3691 0.951 . S
H3668 C3693 0.951 . S
H3669 C3695 0.950 . S
H3670 C3696 0.950 . S
H3671 C3698 0.950 . S
H3672 C3701 0.950 . S
H3673 C3702 0.950 . S
H3674 C3704 0.950 . S
H3675 C3705 0.950 . S
C3676 H3658 0.951 . S
C3676 C3677 1.366 . S
C3676 C3678 1.388 . S
C3677 C3676 1.366 . S
C3677 C3681 1.385 . S
C3678 H3659 0.951 . S
C3678 C3676 1.388 . S
C3678 C3679 1.366 . S
C3679 C3678 1.366 . S
C3679 C3680 1.414 . S
C3679 C3682 1.499 . S
C3680 H3660 0.950 . S
C3680 C3679 1.414 . S
C3680 C3681 1.374 . S
C3681 H3661 0.950 . S
C3681 C3677 1.385 . S
C3681 C3680 1.374 . S
C3682 C3679 1.499 . S
C3682 C3683 1.373 . S
C3682 C3684 1.389 . S
C3683 H3662 0.950 . S
C3683 C3682 1.373 . S
C3683 C3699 1.377 . S
C3684 C3682 1.389 . S
C3684 C3685 1.524 . S
C3684 C3698 1.377 . S
C3685 C3684 1.524 . S
C3685 C3686 1.397 . S
C3685 C3690 1.363 . S
C3686 H3663 0.950 . S
C3686 C3685 1.397 . S
C3686 C3687 1.334 . S
C3687 H3664 0.950 . S
C3687 C3686 1.334 . S
C3687 C3688 1.287 1_565 S
C3688 C3687 1.287 1_545 S
C3688 C3689 1.524 . S
C3688 H3707 0.913 . S
C3689 H3665 0.950 . S
C3689 C3688 1.524 . S
C3689 C3690 1.415 1_545 S
C3690 H3666 0.950 . S
C3690 C3685 1.363 . S
C3690 C3689 1.415 1_565 S
C3691 H3667 0.951 . S
C3691 C3692 1.366 . S
C3691 C3693 1.388 . S
C3692 C3691 1.366 . S
C3692 C3696 1.385 . S
C3693 H3668 0.951 . S
C3693 C3691 1.388 . S
C3693 C3694 1.366 . S
C3694 C3693 1.366 . S
C3694 C3695 1.414 . S
C3694 C3697 1.499 . S
C3695 H3669 0.950 . S
C3695 C3694 1.414 . S
C3695 C3696 1.374 . S
C3696 H3670 0.950 . S
C3696 C3692 1.385 . S
C3696 C3695 1.374 . S
C3697 C3694 1.499 . S
C3697 C3698 1.373 . S
C3697 C3699 1.389 . S
C3698 H3671 0.950 . S
C3698 C3684 1.377 . S
C3698 C3697 1.373 . S
C3699 C3683 1.377 . S
C3699 C3697 1.389 . S
C3699 C3700 1.524 . S
C3700 C3699 1.524 . S
C3700 C3701 1.397 . S
C3700 C3705 1.363 . S
C3701 H3672 0.950 . S
C3701 C3700 1.397 . S
C3701 C3702 1.334 . S
C3702 H3673 0.950 . S
C3702 C3701 1.334 . S
C3702 C3703 1.287 . S
C3703 C3702 1.287 . S
C3703 C3704 1.524 . S
C3703 H3706 0.999 . S
C3704 H3674 0.950 . S
C3704 C3703 1.524 . S
C3704 C3705 1.415 . S
C3705 H3675 0.950 . S
C3705 C3700 1.363 . S
C3705 C3704 1.415 . S
H3706 C3703 0.999 . S
H3707 C3688 0.913 . S
H3708 C3726 0.951 . S
H3709 C3728 0.951 . S
H3710 C3730 0.950 . S
H3711 C3731 0.950 . S
H3712 C3733 0.950 . S
H3713 C3736 0.950 . S
H3714 C3737 0.950 . S
H3715 C3739 0.950 . S
H3716 C3740 0.950 . S
H3717 C3741 0.951 . S
H3718 C3743 0.951 . S
H3719 C3745 0.950 . S
H3720 C3746 0.950 . S
H3721 C3748 0.950 . S
H3722 C3751 0.950 . S
H3723 C3752 0.950 . S
H3724 C3754 0.950 . S
H3725 C3755 0.950 . S
C3726 H3708 0.951 . S
C3726 C3727 1.366 . S
C3726 C3728 1.388 . S
C3727 C3726 1.366 . S
C3727 C3731 1.385 . S
C3728 H3709 0.951 . S
C3728 C3726 1.388 . S
C3728 C3729 1.366 . S
C3729 C3728 1.366 . S
C3729 C3730 1.414 . S
C3729 C3732 1.499 . S
C3730 H3710 0.950 . S
C3730 C3729 1.414 . S
C3730 C3731 1.374 . S
C3731 H3711 0.950 . S
C3731 C3727 1.385 . S
C3731 C3730 1.374 . S
C3732 C3729 1.499 . S
C3732 C3733 1.373 . S
C3732 C3734 1.389 . S
C3733 H3712 0.950 . S
C3733 C3732 1.373 . S
C3733 C3749 1.377 . S
C3734 C3732 1.389 . S
C3734 C3735 1.524 . S
C3734 C3748 1.377 . S
C3735 C3734 1.524 . S
C3735 C3736 1.397 . S
C3735 C3740 1.363 . S
C3736 H3713 0.950 . S
C3736 C3735 1.397 . S
C3736 C3737 1.334 . S
C3737 H3714 0.950 . S
C3737 C3736 1.334 . S
C3737 C3738 1.287 . S
C3738 C3737 1.287 . S
C3738 C3739 1.524 . S
C3738 H3757 0.913 . S
C3739 H3715 0.950 . S
C3739 C3738 1.524 . S
C3739 C3740 1.415 . S
C3740 H3716 0.950 . S
C3740 C3735 1.363 . S
C3740 C3739 1.415 . S
C3741 H3717 0.951 . S
C3741 C3742 1.366 . S
C3741 C3743 1.388 . S
C3742 C3741 1.366 . S
C3742 C3746 1.385 . S
C3743 H3718 0.951 . S
C3743 C3741 1.388 . S
C3743 C3744 1.366 . S
C3744 C3743 1.366 . S
C3744 C3745 1.414 . S
C3744 C3747 1.499 . S
C3745 H3719 0.950 . S
C3745 C3744 1.414 . S
C3745 C3746 1.374 . S
C3746 H3720 0.950 . S
C3746 C3742 1.385 . S
C3746 C3745 1.374 . S
C3747 C3744 1.499 . S
C3747 C3748 1.373 . S
C3747 C3749 1.389 . S
C3748 H3721 0.950 . S
C3748 C3734 1.377 . S
C3748 C3747 1.373 . S
C3749 C3733 1.377 . S
C3749 C3747 1.389 . S
C3749 C3750 1.524 . S
C3750 C3749 1.524 . S
C3750 C3751 1.397 . S
C3750 C3755 1.363 . S
C3751 H3722 0.950 . S
C3751 C3750 1.397 . S
C3751 C3752 1.334 . S
C3752 H3723 0.950 . S
C3752 C3751 1.334 . S
C3752 C3753 1.287 . S
C3753 C3752 1.287 . S
C3753 C3754 1.524 . S
C3753 H3756 0.999 . S
C3754 H3724 0.950 . S
C3754 C3753 1.524 . S
C3754 C3755 1.415 . S
C3755 H3725 0.950 . S
C3755 C3750 1.363 . S
C3755 C3754 1.415 . S
H3756 C3753 0.999 . S
H3757 C3738 0.913 . S
H3758 C3776 0.951 . S
H3759 C3778 0.951 . S
H3760 C3780 0.950 . S
H3761 C3781 0.950 . S
H3762 C3783 0.950 . S
H3763 C3786 0.950 . S
H3764 C3787 0.950 . S
H3765 C3789 0.950 . S
H3766 C3790 0.950 . S
H3767 C3791 0.951 . S
H3768 C3793 0.951 . S
H3769 C3795 0.950 . S
H3770 C3796 0.950 . S
H3771 C3798 0.950 . S
H3772 C3801 0.950 . S
H3773 C3802 0.950 . S
H3774 C3804 0.950 . S
H3775 C3805 0.950 . S
C3776 H3758 0.951 . S
C3776 C3777 1.366 . S
C3776 C3778 1.388 . S
C3777 C3776 1.366 . S
C3777 C3781 1.385 . S
C3778 H3759 0.951 . S
C3778 C3776 1.388 . S
C3778 C3779 1.366 . S
C3779 C3778 1.366 . S
C3779 C3780 1.414 . S
C3779 C3782 1.499 . S
C3780 H3760 0.950 . S
C3780 C3779 1.414 . S
C3780 C3781 1.374 . S
C3781 H3761 0.950 . S
C3781 C3777 1.385 . S
C3781 C3780 1.374 . S
C3782 C3779 1.499 . S
C3782 C3783 1.373 . S
C3782 C3784 1.389 . S
C3783 H3762 0.950 . S
C3783 C3782 1.373 . S
C3783 C3799 1.377 . S
C3784 C3782 1.389 . S
C3784 C3785 1.524 . S
C3784 C3798 1.377 . S
C3785 C3784 1.524 . S
C3785 C3786 1.397 . S
C3785 C3790 1.363 . S
C3786 H3763 0.950 . S
C3786 C3785 1.397 . S
C3786 C3787 1.334 . S
C3787 H3764 0.950 . S
C3787 C3786 1.334 . S
C3787 C3788 1.287 . S
C3788 C3787 1.287 . S
C3788 C3789 1.524 . S
C3788 H3807 0.913 . S
C3789 H3765 0.950 . S
C3789 C3788 1.524 . S
C3789 C3790 1.415 . S
C3790 H3766 0.950 . S
C3790 C3785 1.363 . S
C3790 C3789 1.415 . S
C3791 H3767 0.951 . S
C3791 C3792 1.366 . S
C3791 C3793 1.388 . S
C3792 C3791 1.366 . S
C3792 C3796 1.385 . S
C3793 H3768 0.951 . S
C3793 C3791 1.388 . S
C3793 C3794 1.366 . S
C3794 C3793 1.366 . S
C3794 C3795 1.414 . S
C3794 C3797 1.499 . S
C3795 H3769 0.950 . S
C3795 C3794 1.414 . S
C3795 C3796 1.374 . S
C3796 H3770 0.950 . S
C3796 C3792 1.385 . S
C3796 C3795 1.374 . S
C3797 C3794 1.499 . S
C3797 C3798 1.373 . S
C3797 C3799 1.389 . S
C3798 H3771 0.950 . S
C3798 C3784 1.377 . S
C3798 C3797 1.373 . S
C3799 C3783 1.377 . S
C3799 C3797 1.389 . S
C3799 C3800 1.524 . S
C3800 C3799 1.524 . S
C3800 C3801 1.397 . S
C3800 C3805 1.363 . S
C3801 H3772 0.950 . S
C3801 C3800 1.397 . S
C3801 C3802 1.334 . S
C3802 H3773 0.950 . S
C3802 C3801 1.334 . S
C3802 C3803 1.287 . S
C3803 C3802 1.287 . S
C3803 C3804 1.524 . S
C3803 H3806 0.999 . S
C3804 H3774 0.950 . S
C3804 C3803 1.524 . S
C3804 C3805 1.415 . S
C3805 H3775 0.950 . S
C3805 C3800 1.363 . S
C3805 C3804 1.415 . S
H3806 C3803 0.999 . S
H3807 C3788 0.913 . S
H3808 C3826 0.951 . S
H3809 C3828 0.951 . S
H3810 C3830 0.950 . S
H3811 C3831 0.950 . S
H3812 C3833 0.950 . S
H3813 C3836 0.950 . S
H3814 C3837 0.950 . S
H3815 C3839 0.950 . S
H3816 C3840 0.950 . S
H3817 C3841 0.951 1_655 S
H3818 C3843 0.951 . S
H3819 C3845 0.950 . S
H3820 C3846 0.950 . S
H3821 C3848 0.950 . S
H3822 C3851 0.950 . S
H3823 C3852 0.950 . S
H3824 C3854 0.950 1_655 S
H3825 C3855 0.950 . S
C3826 H3808 0.951 . S
C3826 C3827 1.366 . S
C3826 C3828 1.388 . S
C3827 C3826 1.366 . S
C3827 C3831 1.385 . S
C3828 H3809 0.951 . S
C3828 C3826 1.388 . S
C3828 C3829 1.366 . S
C3829 C3828 1.366 . S
C3829 C3830 1.414 . S
C3829 C3832 1.499 . S
C3830 H3810 0.950 . S
C3830 C3829 1.414 . S
C3830 C3831 1.374 . S
C3831 H3811 0.950 . S
C3831 C3827 1.385 . S
C3831 C3830 1.374 . S
C3832 C3829 1.499 . S
C3832 C3833 1.373 . S
C3832 C3834 1.389 . S
C3833 H3812 0.950 . S
C3833 C3832 1.373 . S
C3833 C3849 1.377 . S
C3834 C3832 1.389 . S
C3834 C3835 1.524 . S
C3834 C3848 1.377 . S
C3835 C3834 1.524 . S
C3835 C3836 1.397 . S
C3835 C3840 1.363 . S
C3836 H3813 0.950 . S
C3836 C3835 1.397 . S
C3836 C3837 1.334 . S
C3837 H3814 0.950 . S
C3837 C3836 1.334 . S
C3837 C3838 1.287 . S
C3838 C3837 1.287 . S
C3838 C3839 1.524 . S
C3838 H3857 0.913 . S
C3839 H3815 0.950 . S
C3839 C3838 1.524 . S
C3839 C3840 1.415 . S
C3840 H3816 0.950 . S
C3840 C3835 1.363 . S
C3840 C3839 1.415 . S
C3841 H3817 0.951 1_455 S
C3841 C3842 1.366 . S
C3841 C3843 1.388 . S
C3842 C3841 1.366 . S
C3842 C3846 1.385 . S
C3843 H3818 0.951 . S
C3843 C3841 1.388 . S
C3843 C3844 1.366 . S
C3844 C3843 1.366 . S
C3844 C3845 1.414 . S
C3844 C3847 1.499 . S
C3845 H3819 0.950 . S
C3845 C3844 1.414 . S
C3845 C3846 1.374 . S
C3846 H3820 0.950 . S
C3846 C3842 1.385 . S
C3846 C3845 1.374 . S
C3847 C3844 1.499 . S
C3847 C3848 1.373 . S
C3847 C3849 1.389 . S
C3848 H3821 0.950 . S
C3848 C3834 1.377 . S
C3848 C3847 1.373 . S
C3849 C3833 1.377 . S
C3849 C3847 1.389 . S
C3849 C3850 1.524 . S
C3850 C3849 1.524 . S
C3850 C3851 1.397 . S
C3850 C3855 1.363 . S
C3851 H3822 0.950 . S
C3851 C3850 1.397 . S
C3851 C3852 1.334 . S
C3852 H3823 0.950 . S
C3852 C3851 1.334 . S
C3852 C3853 1.287 . S
C3853 C3852 1.287 . S
C3853 C3854 1.524 . S
C3853 H3856 0.999 . S
C3854 H3824 0.950 1_455 S
C3854 C3853 1.524 . S
C3854 C3855 1.415 . S
C3855 H3825 0.950 . S
C3855 C3850 1.363 . S
C3855 C3854 1.415 . S
H3856 C3853 0.999 . S
H3857 C3838 0.913 . S
H3858 C3876 0.951 . S
H3859 C3878 0.951 . S
H3860 C3880 0.950 . S
H3861 C3881 0.950 . S
H3862 C3883 0.950 . S
H3863 C3886 0.950 . S
H3864 C3887 0.950 . S
H3865 C3889 0.950 . S
H3866 C3890 0.950 . S
H3867 C3891 0.951 . S
H3868 C3893 0.951 . S
H3869 C3895 0.950 . S
H3870 C3896 0.950 . S
H3871 C3898 0.950 . S
H3872 C3901 0.950 . S
H3873 C3902 0.950 . S
H3874 C3904 0.950 . S
H3875 C3905 0.950 . S
C3876 H3858 0.951 . S
C3876 C3877 1.366 . S
C3876 C3878 1.388 . S
C3877 C3876 1.366 . S
C3877 C3881 1.385 . S
C3878 H3859 0.951 . S
C3878 C3876 1.388 . S
C3878 C3879 1.366 . S
C3879 C3878 1.366 . S
C3879 C3880 1.414 . S
C3879 C3882 1.499 . S
C3880 H3860 0.950 . S
C3880 C3879 1.414 . S
C3880 C3881 1.374 . S
C3881 H3861 0.950 . S
C3881 C3877 1.385 . S
C3881 C3880 1.374 . S
C3882 C3879 1.499 . S
C3882 C3883 1.373 . S
C3882 C3884 1.389 . S
C3883 H3862 0.950 . S
C3883 C3882 1.373 . S
C3883 C3899 1.377 . S
C3884 C3882 1.389 . S
C3884 C3885 1.524 . S
C3884 C3898 1.377 . S
C3885 C3884 1.524 . S
C3885 C3886 1.397 . S
C3885 C3890 1.363 . S
C3886 H3863 0.950 . S
C3886 C3885 1.397 . S
C3886 C3887 1.334 . S
C3887 H3864 0.950 . S
C3887 C3886 1.334 . S
C3887 C3888 1.287 . S
C3888 C3887 1.287 . S
C3888 C3889 1.524 . S
C3888 H3907 0.913 . S
C3889 H3865 0.950 . S
C3889 C3888 1.524 . S
C3889 C3890 1.415 . S
C3890 H3866 0.950 . S
C3890 C3885 1.363 . S
C3890 C3889 1.415 . S
C3891 H3867 0.951 . S
C3891 C3892 1.366 . S
C3891 C3893 1.388 . S
C3892 C3891 1.366 . S
C3892 C3896 1.385 . S
C3893 H3868 0.951 . S
C3893 C3891 1.388 . S
C3893 C3894 1.366 . S
C3894 C3893 1.366 . S
C3894 C3895 1.414 . S
C3894 C3897 1.499 . S
C3895 H3869 0.950 . S
C3895 C3894 1.414 . S
C3895 C3896 1.374 . S
C3896 H3870 0.950 . S
C3896 C3892 1.385 . S
C3896 C3895 1.374 . S
C3897 C3894 1.499 . S
C3897 C3898 1.373 . S
C3897 C3899 1.389 . S
C3898 H3871 0.950 . S
C3898 C3884 1.377 . S
C3898 C3897 1.373 . S
C3899 C3883 1.377 . S
C3899 C3897 1.389 . S
C3899 C3900 1.524 . S
C3900 C3899 1.524 . S
C3900 C3901 1.397 . S
C3900 C3905 1.363 . S
C3901 H3872 0.950 . S
C3901 C3900 1.397 . S
C3901 C3902 1.334 . S
C3902 H3873 0.950 . S
C3902 C3901 1.334 . S
C3902 C3903 1.287 . S
C3903 C3902 1.287 . S
C3903 C3904 1.524 . S
C3903 H3906 0.999 . S
C3904 H3874 0.950 . S
C3904 C3903 1.524 . S
C3904 C3905 1.415 . S
C3905 H3875 0.950 . S
C3905 C3900 1.363 . S
C3905 C3904 1.415 . S
H3906 C3903 0.999 . S
H3907 C3888 0.913 . S
H3908 C3926 0.951 . S
H3909 C3928 0.951 . S
H3910 C3930 0.950 . S
H3911 C3931 0.950 . S
H3912 C3933 0.950 . S
H3913 C3936 0.950 . S
H3914 C3937 0.950 . S
H3915 C3939 0.950 . S
H3916 C3940 0.950 . S
H3917 C3941 0.951 . S
H3918 C3943 0.951 . S
H3919 C3945 0.950 . S
H3920 C3946 0.950 . S
H3921 C3948 0.950 . S
H3922 C3951 0.950 . S
H3923 C3952 0.950 . S
H3924 C3954 0.950 . S
H3925 C3955 0.950 . S
C3926 H3908 0.951 . S
C3926 C3927 1.366 . S
C3926 C3928 1.388 . S
C3927 C3926 1.366 . S
C3927 C3931 1.385 . S
C3928 H3909 0.951 . S
C3928 C3926 1.388 . S
C3928 C3929 1.366 . S
C3929 C3928 1.366 . S
C3929 C3930 1.414 . S
C3929 C3932 1.499 . S
C3930 H3910 0.950 . S
C3930 C3929 1.414 . S
C3930 C3931 1.374 . S
C3931 H3911 0.950 . S
C3931 C3927 1.385 . S
C3931 C3930 1.374 . S
C3932 C3929 1.499 . S
C3932 C3933 1.373 . S
C3932 C3934 1.389 . S
C3933 H3912 0.950 . S
C3933 C3932 1.373 . S
C3933 C3949 1.377 . S
C3934 C3932 1.389 . S
C3934 C3935 1.524 . S
C3934 C3948 1.377 . S
C3935 C3934 1.524 . S
C3935 C3936 1.397 . S
C3935 C3940 1.363 . S
C3936 H3913 0.950 . S
C3936 C3935 1.397 . S
C3936 C3937 1.334 . S
C3937 H3914 0.950 . S
C3937 C3936 1.334 . S
C3937 C3938 1.287 . S
C3938 C3937 1.287 . S
C3938 C3939 1.524 . S
C3938 H3957 0.913 . S
C3939 H3915 0.950 . S
C3939 C3938 1.524 . S
C3939 C3940 1.415 . S
C3940 H3916 0.950 . S
C3940 C3935 1.363 . S
C3940 C3939 1.415 . S
C3941 H3917 0.951 . S
C3941 C3942 1.366 . S
C3941 C3943 1.388 . S
C3942 C3941 1.366 . S
C3942 C3946 1.385 . S
C3943 H3918 0.951 . S
C3943 C3941 1.388 . S
C3943 C3944 1.366 . S
C3944 C3943 1.366 . S
C3944 C3945 1.414 . S
C3944 C3947 1.499 . S
C3945 H3919 0.950 . S
C3945 C3944 1.414 . S
C3945 C3946 1.374 . S
C3946 H3920 0.950 . S
C3946 C3942 1.385 . S
C3946 C3945 1.374 . S
C3947 C3944 1.499 . S
C3947 C3948 1.373 . S
C3947 C3949 1.389 . S
C3948 H3921 0.950 . S
C3948 C3934 1.377 . S
C3948 C3947 1.373 . S
C3949 C3933 1.377 . S
C3949 C3947 1.389 . S
C3949 C3950 1.524 . S
C3950 C3949 1.524 . S
C3950 C3951 1.397 . S
C3950 C3955 1.363 . S
C3951 H3922 0.950 . S
C3951 C3950 1.397 . S
C3951 C3952 1.334 . S
C3952 H3923 0.950 . S
C3952 C3951 1.334 . S
C3952 C3953 1.287 . S
C3953 C3952 1.287 . S
C3953 C3954 1.524 . S
C3953 H3956 0.999 . S
C3954 H3924 0.950 . S
C3954 C3953 1.524 . S
C3954 C3955 1.415 . S
C3955 H3925 0.950 . S
C3955 C3950 1.363 . S
C3955 C3954 1.415 . S
H3956 C3953 0.999 . S
H3957 C3938 0.913 . S
H3958 C3976 0.951 . S
H3959 C3978 0.951 . S
H3960 C3980 0.950 . S
H3961 C3981 0.950 . S
H3962 C3983 0.950 . S
H3963 C3986 0.950 . S
H3964 C3987 0.950 . S
H3965 C3989 0.950 . S
H3966 C3990 0.950 . S
H3967 C3991 0.951 1_455 S
H3968 C3993 0.951 . S
H3969 C3995 0.950 . S
H3970 C3996 0.950 . S
H3971 C3998 0.950 . S
H3972 C4001 0.950 . S
H3973 C4002 0.950 . S
H3974 C4004 0.950 . S
H3975 C4005 0.950 . S
C3976 H3958 0.951 . S
C3976 C3977 1.366 . S
C3976 C3978 1.388 . S
C3977 C3976 1.366 . S
C3977 C3981 1.385 . S
C3978 H3959 0.951 . S
C3978 C3976 1.388 . S
C3978 C3979 1.366 . S
C3979 C3978 1.366 . S
C3979 C3980 1.414 . S
C3979 C3982 1.499 . S
C3980 H3960 0.950 . S
C3980 C3979 1.414 . S
C3980 C3981 1.374 . S
C3981 H3961 0.950 . S
C3981 C3977 1.385 . S
C3981 C3980 1.374 . S
C3982 C3979 1.499 . S
C3982 C3983 1.373 . S
C3982 C3984 1.389 . S
C3983 H3962 0.950 . S
C3983 C3982 1.373 . S
C3983 C3999 1.377 . S
C3984 C3982 1.389 . S
C3984 C3985 1.524 . S
C3984 C3998 1.377 . S
C3985 C3984 1.524 . S
C3985 C3986 1.397 . S
C3985 C3990 1.363 . S
C3986 H3963 0.950 . S
C3986 C3985 1.397 . S
C3986 C3987 1.334 . S
C3987 H3964 0.950 . S
C3987 C3986 1.334 . S
C3987 C3988 1.287 . S
C3988 C3987 1.287 . S
C3988 C3989 1.524 . S
C3988 H4007 0.913 . S
C3989 H3965 0.950 . S
C3989 C3988 1.524 . S
C3989 C3990 1.415 . S
C3990 H3966 0.950 . S
C3990 C3985 1.363 . S
C3990 C3989 1.415 . S
C3991 H3967 0.951 1_655 S
C3991 C3992 1.366 . S
C3991 C3993 1.388 . S
C3992 C3991 1.366 . S
C3992 C3996 1.385 . S
C3993 H3968 0.951 . S
C3993 C3991 1.388 . S
C3993 C3994 1.366 . S
C3994 C3993 1.366 . S
C3994 C3995 1.414 . S
C3994 C3997 1.499 . S
C3995 H3969 0.950 . S
C3995 C3994 1.414 . S
C3995 C3996 1.374 . S
C3996 H3970 0.950 . S
C3996 C3992 1.385 . S
C3996 C3995 1.374 . S
C3997 C3994 1.499 . S
C3997 C3998 1.373 . S
C3997 C3999 1.389 . S
C3998 H3971 0.950 . S
C3998 C3984 1.377 . S
C3998 C3997 1.373 . S
C3999 C3983 1.377 . S
C3999 C3997 1.389 . S
C3999 C4000 1.524 . S
C4000 C3999 1.524 . S
C4000 C4001 1.397 . S
C4000 C4005 1.363 1_655 S
C4001 H3972 0.950 . S
C4001 C4000 1.397 . S
C4001 C4002 1.334 . S
C4002 H3973 0.950 . S
C4002 C4001 1.334 . S
C4002 C4003 1.287 1_655 S
C4003 C4002 1.287 1_455 S
C4003 C4004 1.524 . S
C4003 H4006 0.999 . S
C4004 H3974 0.950 . S
C4004 C4003 1.524 . S
C4004 C4005 1.415 . S
C4005 H3975 0.950 . S
C4005 C4000 1.363 1_455 S
C4005 C4004 1.415 . S
H4006 C4003 0.999 . S
H4007 C3988 0.913 . S
H4008 C4026 0.951 . S
H4009 C4028 0.951 . S
H4010 C4030 0.950 . S
H4011 C4031 0.950 . S
H4012 C4033 0.950 . S
H4013 C4036 0.950 . S
H4014 C4037 0.950 1_655 S
H4015 C4039 0.950 . S
H4016 C4040 0.950 . S
H4017 C4041 0.951 . S
H4018 C4043 0.951 . S
H4019 C4045 0.950 . S
H4020 C4046 0.950 . S
H4021 C4048 0.950 . S
H4022 C4051 0.950 . S
H4023 C4052 0.950 . S
H4024 C4054 0.950 . S
H4025 C4055 0.950 . S
C4026 H4008 0.951 . S
C4026 C4027 1.366 . S
C4026 C4028 1.388 1_655 S
C4027 C4026 1.366 . S
C4027 C4031 1.385 . S
C4028 H4009 0.951 . S
C4028 C4026 1.388 1_455 S
C4028 C4029 1.366 . S
C4029 C4028 1.366 . S
C4029 C4030 1.414 . S
C4029 C4032 1.499 . S
C4030 H4010 0.950 . S
C4030 C4029 1.414 . S
C4030 C4031 1.374 1_455 S
C4031 H4011 0.950 . S
C4031 C4027 1.385 . S
C4031 C4030 1.374 1_655 S
C4032 C4029 1.499 . S
C4032 C4033 1.373 . S
C4032 C4034 1.389 . S
C4033 H4012 0.950 . S
C4033 C4032 1.373 . S
C4033 C4049 1.377 . S
C4034 C4032 1.389 . S
C4034 C4035 1.524 . S
C4034 C4048 1.377 . S
C4035 C4034 1.524 . S
C4035 C4036 1.397 . S
C4035 C4040 1.363 . S
C4036 H4013 0.950 . S
C4036 C4035 1.397 . S
C4036 C4037 1.334 . S
C4037 H4014 0.950 1_455 S
C4037 C4036 1.334 . S
C4037 C4038 1.287 . S
C4038 C4037 1.287 . S
C4038 C4039 1.524 . S
C4038 H4057 0.913 1_455 S
C4039 H4015 0.950 . S
C4039 C4038 1.524 . S
C4039 C4040 1.415 . S
C4040 H4016 0.950 . S
C4040 C4035 1.363 . S
C4040 C4039 1.415 . S
C4041 H4017 0.951 . S
C4041 C4042 1.366 . S
C4041 C4043 1.388 . S
C4042 C4041 1.366 . S
C4042 C4046 1.385 . S
C4043 H4018 0.951 . S
C4043 C4041 1.388 . S
C4043 C4044 1.366 . S
C4044 C4043 1.366 . S
C4044 C4045 1.414 . S
C4044 C4047 1.499 . S
C4045 H4019 0.950 . S
C4045 C4044 1.414 . S
C4045 C4046 1.374 . S
C4046 H4020 0.950 . S
C4046 C4042 1.385 . S
C4046 C4045 1.374 . S
C4047 C4044 1.499 . S
C4047 C4048 1.373 . S
C4047 C4049 1.389 . S
C4048 H4021 0.950 . S
C4048 C4034 1.377 . S
C4048 C4047 1.373 . S
C4049 C4033 1.377 . S
C4049 C4047 1.389 . S
C4049 C4050 1.524 . S
C4050 C4049 1.524 . S
C4050 C4051 1.397 . S
C4050 C4055 1.363 . S
C4051 H4022 0.950 . S
C4051 C4050 1.397 . S
C4051 C4052 1.334 . S
C4052 H4023 0.950 . S
C4052 C4051 1.334 . S
C4052 C4053 1.287 . S
C4053 C4052 1.287 . S
C4053 C4054 1.524 . S
C4053 H4056 0.999 . S
C4054 H4024 0.950 . S
C4054 C4053 1.524 . S
C4054 C4055 1.415 . S
C4055 H4025 0.950 . S
C4055 C4050 1.363 . S
C4055 C4054 1.415 . S
H4056 C4053 0.999 . S
H4057 C4038 0.913 1_655 S
H4058 C4076 0.951 . S
H4059 C4078 0.951 . S
H4060 C4080 0.950 . S
H4061 C4081 0.950 . S
H4062 C4083 0.950 . S
H4063 C4086 0.950 . S
H4064 C4087 0.950 . S
H4065 C4089 0.950 . S
H4066 C4090 0.950 . S
H4067 C4091 0.951 . S
H4068 C4093 0.951 . S
H4069 C4095 0.950 . S
H4070 C4096 0.950 . S
H4071 C4098 0.950 . S
H4072 C4101 0.950 . S
H4073 C4102 0.950 . S
H4074 C4104 0.950 . S
H4075 C4105 0.950 . S
C4076 H4058 0.951 . S
C4076 C4077 1.366 . S
C4076 C4078 1.388 . S
C4077 C4076 1.366 . S
C4077 C4081 1.385 . S
C4078 H4059 0.951 . S
C4078 C4076 1.388 . S
C4078 C4079 1.366 . S
C4079 C4078 1.366 . S
C4079 C4080 1.414 . S
C4079 C4082 1.499 . S
C4080 H4060 0.950 . S
C4080 C4079 1.414 . S
C4080 C4081 1.374 . S
C4081 H4061 0.950 . S
C4081 C4077 1.385 . S
C4081 C4080 1.374 . S
C4082 C4079 1.499 . S
C4082 C4083 1.373 . S
C4082 C4084 1.389 . S
C4083 H4062 0.950 . S
C4083 C4082 1.373 . S
C4083 C4099 1.377 . S
C4084 C4082 1.389 . S
C4084 C4085 1.524 . S
C4084 C4098 1.377 . S
C4085 C4084 1.524 . S
C4085 C4086 1.397 . S
C4085 C4090 1.363 . S
C4086 H4063 0.950 . S
C4086 C4085 1.397 . S
C4086 C4087 1.334 . S
C4087 H4064 0.950 . S
C4087 C4086 1.334 . S
C4087 C4088 1.287 . S
C4088 C4087 1.287 . S
C4088 C4089 1.524 . S
C4088 H4107 0.913 . S
C4089 H4065 0.950 . S
C4089 C4088 1.524 . S
C4089 C4090 1.415 . S
C4090 H4066 0.950 . S
C4090 C4085 1.363 . S
C4090 C4089 1.415 . S
C4091 H4067 0.951 . S
C4091 C4092 1.366 . S
C4091 C4093 1.388 . S
C4092 C4091 1.366 . S
C4092 C4096 1.385 . S
C4093 H4068 0.951 . S
C4093 C4091 1.388 . S
C4093 C4094 1.366 . S
C4094 C4093 1.366 . S
C4094 C4095 1.414 . S
C4094 C4097 1.499 . S
C4095 H4069 0.950 . S
C4095 C4094 1.414 . S
C4095 C4096 1.374 . S
C4096 H4070 0.950 . S
C4096 C4092 1.385 . S
C4096 C4095 1.374 . S
C4097 C4094 1.499 . S
C4097 C4098 1.373 . S
C4097 C4099 1.389 . S
C4098 H4071 0.950 . S
C4098 C4084 1.377 . S
C4098 C4097 1.373 . S
C4099 C4083 1.377 . S
C4099 C4097 1.389 . S
C4099 C4100 1.524 . S
C4100 C4099 1.524 . S
C4100 C4101 1.397 . S
C4100 C4105 1.363 . S
C4101 H4072 0.950 . S
C4101 C4100 1.397 . S
C4101 C4102 1.334 . S
C4102 H4073 0.950 . S
C4102 C4101 1.334 . S
C4102 C4103 1.287 . S
C4103 C4102 1.287 . S
C4103 C4104 1.524 . S
C4103 H4106 0.999 . S
C4104 H4074 0.950 . S
C4104 C4103 1.524 . S
C4104 C4105 1.415 . S
C4105 H4075 0.950 . S
C4105 C4100 1.363 . S
C4105 C4104 1.415 . S
H4106 C4103 0.999 . S
H4107 C4088 0.913 . S
H4108 C4126 0.951 . S
H4109 C4128 0.951 . S
H4110 C4130 0.950 . S
H4111 C4131 0.950 . S
H4112 C4133 0.950 . S
H4113 C4136 0.950 . S
H4114 C4137 0.985 . S
H4115 C4139 0.950 . S
H4116 C4140 0.950 . S
H4117 C4141 0.951 . S
H4118 C4143 0.951 . S
H4119 C4145 0.950 . S
H4120 C4146 0.950 . S
H4121 C4148 0.950 . S
H4122 C4151 0.950 . S
H4123 C4152 0.950 . S
H4124 C4154 0.950 . S
H4125 C4155 0.950 . S
C4126 H4108 0.951 . S
C4126 C4127 1.366 . S
C4126 C4128 1.388 1_545 S
C4127 C4126 1.366 . S
C4127 C4131 1.385 . S
C4128 H4109 0.951 . S
C4128 C4126 1.388 1_565 S
C4128 C4129 1.366 . S
C4129 C4128 1.366 . S
C4129 C4130 1.414 . S
C4129 C4132 1.499 . S
C4130 H4110 0.950 . S
C4130 C4129 1.414 . S
C4130 C4131 1.374 1_565 S
C4131 H4111 0.950 . S
C4131 C4127 1.385 . S
C4131 C4130 1.374 1_545 S
C4132 C4129 1.499 . S
C4132 C4133 1.373 . S
C4132 C4134 1.389 . S
C4133 H4112 0.950 . S
C4133 C4132 1.373 . S
C4133 C4149 1.377 . S
C4134 C4132 1.389 . S
C4134 C4135 1.524 . S
C4134 C4148 1.377 . S
C4135 C4134 1.524 . S
C4135 C4136 1.397 . S
C4135 C4140 1.363 . S
C4136 H4113 0.950 . S
C4136 C4135 1.397 . S
C4136 C4137 1.334 . S
C4137 H4114 0.985 . S
C4137 C4136 1.334 . S
C4137 C4138 1.287 . S
C4138 C4137 1.287 . S
C4138 C4139 1.524 . S
C4138 H4157 0.913 . S
C4139 H4115 0.950 . S
C4139 C4138 1.524 . S
C4139 C4140 1.415 . S
C4140 H4116 0.950 . S
C4140 C4135 1.363 . S
C4140 C4139 1.415 . S
C4141 H4117 0.951 . S
C4141 C4142 1.366 . S
C4141 C4143 1.388 . S
C4142 C4141 1.366 . S
C4142 C4146 1.385 . S
C4143 H4118 0.951 . S
C4143 C4141 1.388 . S
C4143 C4144 1.366 . S
C4144 C4143 1.366 . S
C4144 C4145 1.414 . S
C4144 C4147 1.499 . S
C4145 H4119 0.950 . S
C4145 C4144 1.414 . S
C4145 C4146 1.374 . S
C4146 H4120 0.950 . S
C4146 C4142 1.385 . S
C4146 C4145 1.374 . S
C4147 C4144 1.499 . S
C4147 C4148 1.373 . S
C4147 C4149 1.389 . S
C4148 H4121 0.950 . S
C4148 C4134 1.377 . S
C4148 C4147 1.373 . S
C4149 C4133 1.377 . S
C4149 C4147 1.389 . S
C4149 C4150 1.524 . S
C4150 C4149 1.524 . S
C4150 C4151 1.397 . S
C4150 C4155 1.363 . S
C4151 H4122 0.950 . S
C4151 C4150 1.397 . S
C4151 C4152 1.334 . S
C4152 H4123 0.950 . S
C4152 C4151 1.334 . S
C4152 C4153 1.287 . S
C4153 C4152 1.287 . S
C4153 C4154 1.524 . S
C4153 H4156 0.999 . S
C4154 H4124 0.950 . S
C4154 C4153 1.524 . S
C4154 C4155 1.415 . S
C4155 H4125 0.950 . S
C4155 C4150 1.363 . S
C4155 C4154 1.415 . S
H4156 C4153 0.999 . S
H4157 C4138 0.913 . S
H4158 C4176 0.951 . S
H4159 C4178 0.951 . S
H4160 C4180 0.950 . S
H4161 C4181 0.950 . S
H4162 C4183 0.950 . S
H4163 C4186 0.950 . S
H4164 C4187 0.950 . S
H4165 C4189 0.950 . S
H4166 C4190 0.950 . S
H4167 C4191 0.951 . S
H4168 C4193 0.951 . S
H4169 C4195 0.950 . S
H4170 C4196 0.950 . S
H4171 C4198 0.950 . S
H4172 C4201 0.950 . S
H4173 C4202 0.950 . S
H4174 C4204 0.950 . S
H4175 C4205 0.950 . S
C4176 H4158 0.951 . S
C4176 C4177 1.366 . S
C4176 C4178 1.388 . S
C4177 C4176 1.366 . S
C4177 C4181 1.385 . S
C4178 H4159 0.951 . S
C4178 C4176 1.388 . S
C4178 C4179 1.366 . S
C4179 C4178 1.366 . S
C4179 C4180 1.414 . S
C4179 C4182 1.499 . S
C4180 H4160 0.950 . S
C4180 C4179 1.414 . S
C4180 C4181 1.374 . S
C4181 H4161 0.950 . S
C4181 C4177 1.385 . S
C4181 C4180 1.374 . S
C4182 C4179 1.499 . S
C4182 C4183 1.373 . S
C4182 C4184 1.389 . S
C4183 H4162 0.950 . S
C4183 C4182 1.373 . S
C4183 C4199 1.377 . S
C4184 C4182 1.389 . S
C4184 C4185 1.524 . S
C4184 C4198 1.377 . S
C4185 C4184 1.524 . S
C4185 C4186 1.397 . S
C4185 C4190 1.363 . S
C4186 H4163 0.950 . S
C4186 C4185 1.397 . S
C4186 C4187 1.334 . S
C4187 H4164 0.950 . S
C4187 C4186 1.334 . S
C4187 C4188 1.287 . S
C4188 C4187 1.287 . S
C4188 C4189 1.524 . S
C4188 H4207 0.913 . S
C4189 H4165 0.950 . S
C4189 C4188 1.524 . S
C4189 C4190 1.415 . S
C4190 H4166 0.950 . S
C4190 C4185 1.363 . S
C4190 C4189 1.415 . S
C4191 H4167 0.951 . S
C4191 C4192 1.366 . S
C4191 C4193 1.388 . S
C4192 C4191 1.366 . S
C4192 C4196 1.385 . S
C4193 H4168 0.951 . S
C4193 C4191 1.388 . S
C4193 C4194 1.366 . S
C4194 C4193 1.366 . S
C4194 C4195 1.414 . S
C4194 C4197 1.499 . S
C4195 H4169 0.950 . S
C4195 C4194 1.414 . S
C4195 C4196 1.374 . S
C4196 H4170 0.950 . S
C4196 C4192 1.385 . S
C4196 C4195 1.374 . S
C4197 C4194 1.499 . S
C4197 C4198 1.373 . S
C4197 C4199 1.389 . S
C4198 H4171 0.950 . S
C4198 C4184 1.377 . S
C4198 C4197 1.373 . S
C4199 C4183 1.377 . S
C4199 C4197 1.389 . S
C4199 C4200 1.524 . S
C4200 C4199 1.524 . S
C4200 C4201 1.397 . S
C4200 C4205 1.363 . S
C4201 H4172 0.950 . S
C4201 C4200 1.397 . S
C4201 C4202 1.334 . S
C4202 H4173 0.950 . S
C4202 C4201 1.334 . S
C4202 C4203 1.287 . S
C4203 C4202 1.287 . S
C4203 C4204 1.524 . S
C4203 H4206 0.999 . S
C4204 H4174 0.950 . S
C4204 C4203 1.524 . S
C4204 C4205 1.415 . S
C4205 H4175 0.950 . S
C4205 C4200 1.363 . S
C4205 C4204 1.415 . S
H4206 C4203 0.999 . S
H4207 C4188 0.913 . S
H4208 C4226 0.951 . S
H4209 C4228 0.951 . S
H4210 C4230 0.950 . S
H4211 C4231 0.950 . S
H4212 C4233 0.950 . S
H4213 C4236 0.950 . S
H4214 C4237 0.950 . S
H4215 C4239 0.950 . S
H4216 C4240 0.950 . S
H4217 C4241 0.951 . S
H4218 C4243 0.951 . S
H4219 C4245 0.950 . S
H4220 C4246 0.950 . S
H4221 C4248 0.950 . S
H4222 C4251 0.950 . S
H4223 C4252 0.950 . S
H4224 C4254 0.950 . S
H4225 C4255 0.950 . S
C4226 H4208 0.951 . S
C4226 C4227 1.366 . S
C4226 C4228 1.388 . S
C4227 C4226 1.366 . S
C4227 C4231 1.385 . S
C4228 H4209 0.951 . S
C4228 C4226 1.388 . S
C4228 C4229 1.366 . S
C4229 C4228 1.366 . S
C4229 C4230 1.414 . S
C4229 C4232 1.499 . S
C4230 H4210 0.950 . S
C4230 C4229 1.414 . S
C4230 C4231 1.374 . S
C4231 H4211 0.950 . S
C4231 C4227 1.385 . S
C4231 C4230 1.374 . S
C4232 C4229 1.499 . S
C4232 C4233 1.373 . S
C4232 C4234 1.389 . S
C4233 H4212 0.950 . S
C4233 C4232 1.373 . S
C4233 C4249 1.377 . S
C4234 C4232 1.389 . S
C4234 C4235 1.524 . S
C4234 C4248 1.377 . S
C4235 C4234 1.524 . S
C4235 C4236 1.397 . S
C4235 C4240 1.363 . S
C4236 H4213 0.950 . S
C4236 C4235 1.397 . S
C4236 C4237 1.334 . S
C4237 H4214 0.950 . S
C4237 C4236 1.334 . S
C4237 C4238 1.287 . S
C4238 C4237 1.287 . S
C4238 C4239 1.524 . S
C4238 H4257 0.913 . S
C4239 H4215 0.950 . S
C4239 C4238 1.524 . S
C4239 C4240 1.415 . S
C4240 H4216 0.950 . S
C4240 C4235 1.363 . S
C4240 C4239 1.415 . S
C4241 H4217 0.951 . S
C4241 C4242 1.366 . S
C4241 C4243 1.388 . S
C4242 C4241 1.366 . S
C4242 C4246 1.385 . S
C4243 H4218 0.951 . S
C4243 C4241 1.388 . S
C4243 C4244 1.366 . S
C4244 C4243 1.366 . S
C4244 C4245 1.414 . S
C4244 C4247 1.499 . S
C4245 H4219 0.950 . S
C4245 C4244 1.414 . S
C4245 C4246 1.374 . S
C4246 H4220 0.950 . S
C4246 C4242 1.385 . S
C4246 C4245 1.374 . S
C4247 C4244 1.499 . S
C4247 C4248 1.373 . S
C4247 C4249 1.389 . S
C4248 H4221 0.950 . S
C4248 C4234 1.377 . S
C4248 C4247 1.373 . S
C4249 C4233 1.377 . S
C4249 C4247 1.389 . S
C4249 C4250 1.524 . S
C4250 C4249 1.524 . S
C4250 C4251 1.397 . S
C4250 C4255 1.363 . S
C4251 H4222 0.950 . S
C4251 C4250 1.397 . S
C4251 C4252 1.334 . S
C4252 H4223 0.950 . S
C4252 C4251 1.334 . S
C4252 C4253 1.287 . S
C4253 C4252 1.287 . S
C4253 C4254 1.524 . S
C4253 H4256 0.999 . S
C4254 H4224 0.950 . S
C4254 C4253 1.524 . S
C4254 C4255 1.415 . S
C4255 H4225 0.950 . S
C4255 C4250 1.363 . S
C4255 C4254 1.415 . S
H4256 C4253 0.999 . S
H4257 C4238 0.913 . S
H4258 C4276 0.951 . S
H4259 C4278 0.951 . S
H4260 C4280 0.950 . S
H4261 C4281 0.950 . S
H4262 C4283 0.950 . S
H4263 C4286 0.950 . S
H4264 C4287 0.950 . S
H4265 C4289 0.950 . S
H4266 C4290 0.950 . S
H4267 C4291 0.951 . S
H4268 C4293 0.951 . S
H4269 C4295 0.950 . S
H4270 C4296 0.950 . S
H4271 C4298 0.950 . S
H4272 C4301 0.950 . S
H4273 C4302 0.950 . S
H4274 C4304 0.950 . S
H4275 C4305 0.950 . S
C4276 H4258 0.951 . S
C4276 C4277 1.366 . S
C4276 C4278 1.388 . S
C4277 C4276 1.366 . S
C4277 C4281 1.385 . S
C4278 H4259 0.951 . S
C4278 C4276 1.388 . S
C4278 C4279 1.366 . S
C4279 C4278 1.366 . S
C4279 C4280 1.414 . S
C4279 C4282 1.499 . S
C4280 H4260 0.950 . S
C4280 C4279 1.414 . S
C4280 C4281 1.374 . S
C4281 H4261 0.950 . S
C4281 C4277 1.385 . S
C4281 C4280 1.374 . S
C4282 C4279 1.499 . S
C4282 C4283 1.373 . S
C4282 C4284 1.389 . S
C4283 H4262 0.950 . S
C4283 C4282 1.373 . S
C4283 C4299 1.377 . S
C4284 C4282 1.389 . S
C4284 C4285 1.524 . S
C4284 C4298 1.377 . S
C4285 C4284 1.524 . S
C4285 C4286 1.397 . S
C4285 C4290 1.363 . S
C4286 H4263 0.950 . S
C4286 C4285 1.397 . S
C4286 C4287 1.334 . S
C4287 H4264 0.950 . S
C4287 C4286 1.334 . S
C4287 C4288 1.287 . S
C4288 C4287 1.287 . S
C4288 C4289 1.524 . S
C4288 H4307 0.913 . S
C4289 H4265 0.950 . S
C4289 C4288 1.524 . S
C4289 C4290 1.415 . S
C4290 H4266 0.950 . S
C4290 C4285 1.363 . S
C4290 C4289 1.415 . S
C4291 H4267 0.951 . S
C4291 C4292 1.366 . S
C4291 C4293 1.388 . S
C4292 C4291 1.366 . S
C4292 C4296 1.385 . S
C4293 H4268 0.951 . S
C4293 C4291 1.388 . S
C4293 C4294 1.366 . S
C4294 C4293 1.366 . S
C4294 C4295 1.414 . S
C4294 C4297 1.499 . S
C4295 H4269 0.950 . S
C4295 C4294 1.414 . S
C4295 C4296 1.374 . S
C4296 H4270 0.950 . S
C4296 C4292 1.385 . S
C4296 C4295 1.374 . S
C4297 C4294 1.499 . S
C4297 C4298 1.373 . S
C4297 C4299 1.389 . S
C4298 H4271 0.950 . S
C4298 C4284 1.377 . S
C4298 C4297 1.373 . S
C4299 C4283 1.377 . S
C4299 C4297 1.389 . S
C4299 C4300 1.524 . S
C4300 C4299 1.524 . S
C4300 C4301 1.397 . S
C4300 C4305 1.363 . S
C4301 H4272 0.950 . S
C4301 C4300 1.397 . S
C4301 C4302 1.334 . S
C4302 H4273 0.950 . S
C4302 C4301 1.334 . S
C4302 C4303 1.287 . S
C4303 C4302 1.287 . S
C4303 C4304 1.524 . S
C4303 H4306 0.999 . S
C4304 H4274 0.950 . S
C4304 C4303 1.524 . S
C4304 C4305 1.415 . S
C4305 H4275 0.950 . S
C4305 C4300 1.363 . S
C4305 C4304 1.415 . S
H4306 C4303 0.999 . S
H4307 C4288 0.913 . S
H4308 C4326 0.951 . S
H4309 C4328 0.951 . S
H4310 C4330 0.950 . S
H4311 C4331 0.950 . S
H4312 C4333 0.950 . S
H4313 C4336 0.950 . S
H4314 C4337 0.950 . S
H4315 C4339 0.950 . S
H4316 C4340 0.950 . S
H4317 C4341 0.951 . S
H4318 C4343 0.951 . S
H4319 C4345 0.950 . S
H4320 C4346 0.950 . S
H4321 C4348 0.950 . S
H4322 C4351 0.950 . S
H4323 C4352 0.950 . S
H4324 C4354 0.950 . S
H4325 C4355 0.950 . S
C4326 H4308 0.951 . S
C4326 C4327 1.366 . S
C4326 C4328 1.388 . S
C4327 C4326 1.366 . S
C4327 C4331 1.385 . S
C4328 H4309 0.951 . S
C4328 C4326 1.388 . S
C4328 C4329 1.366 . S
C4329 C4328 1.366 . S
C4329 C4330 1.414 . S
C4329 C4332 1.499 . S
C4330 H4310 0.950 . S
C4330 C4329 1.414 . S
C4330 C4331 1.374 . S
C4331 H4311 0.950 . S
C4331 C4327 1.385 . S
C4331 C4330 1.374 . S
C4332 C4329 1.499 . S
C4332 C4333 1.373 . S
C4332 C4334 1.389 . S
C4333 H4312 0.950 . S
C4333 C4332 1.373 . S
C4333 C4349 1.377 . S
C4334 C4332 1.389 . S
C4334 C4335 1.524 . S
C4334 C4348 1.377 . S
C4335 C4334 1.524 . S
C4335 C4336 1.397 . S
C4335 C4340 1.363 . S
C4336 H4313 0.950 . S
C4336 C4335 1.397 . S
C4336 C4337 1.334 . S
C4337 H4314 0.950 . S
C4337 C4336 1.334 . S
C4337 C4338 1.287 . S
C4338 C4337 1.287 . S
C4338 C4339 1.524 . S
C4338 H4357 0.913 . S
C4339 H4315 0.950 . S
C4339 C4338 1.524 . S
C4339 C4340 1.415 . S
C4340 H4316 0.950 . S
C4340 C4335 1.363 . S
C4340 C4339 1.415 . S
C4341 H4317 0.951 . S
C4341 C4342 1.366 . S
C4341 C4343 1.388 . S
C4342 C4341 1.366 . S
C4342 C4346 1.385 . S
C4343 H4318 0.951 . S
C4343 C4341 1.388 . S
C4343 C4344 1.366 . S
C4344 C4343 1.366 . S
C4344 C4345 1.414 . S
C4344 C4347 1.499 . S
C4345 H4319 0.950 . S
C4345 C4344 1.414 . S
C4345 C4346 1.374 . S
C4346 H4320 0.950 . S
C4346 C4342 1.385 . S
C4346 C4345 1.374 . S
C4347 C4344 1.499 . S
C4347 C4348 1.373 . S
C4347 C4349 1.389 . S
C4348 H4321 0.950 . S
C4348 C4334 1.377 . S
C4348 C4347 1.373 . S
C4349 C4333 1.377 . S
C4349 C4347 1.389 . S
C4349 C4350 1.524 . S
C4350 C4349 1.524 . S
C4350 C4351 1.397 . S
C4350 C4355 1.363 . S
C4351 H4322 0.950 . S
C4351 C4350 1.397 . S
C4351 C4352 1.334 . S
C4352 H4323 0.950 . S
C4352 C4351 1.334 . S
C4352 C4353 1.287 . S
C4353 C4352 1.287 . S
C4353 C4354 1.524 . S
C4353 H4356 0.999 . S
C4354 H4324 0.950 . S
C4354 C4353 1.524 . S
C4354 C4355 1.415 . S
C4355 H4325 0.950 . S
C4355 C4350 1.363 . S
C4355 C4354 1.415 . S
H4356 C4353 0.999 . S
H4357 C4338 0.913 . S
H4358 C4376 0.951 . S
H4359 C4378 0.951 . S
H4360 C4380 0.950 . S
H4361 C4381 0.950 . S
H4362 C4383 0.950 . S
H4363 C4386 0.950 . S
H4364 C4387 0.950 . S
H4365 C4389 0.950 . S
H4366 C4390 0.950 . S
H4367 C4391 0.951 . S
H4368 C4393 0.951 . S
H4369 C4395 0.950 . S
H4370 C4396 0.950 . S
H4371 C4398 0.950 . S
H4372 C4401 0.950 . S
H4373 C4402 0.950 . S
H4374 C4404 0.950 . S
H4375 C4405 0.950 . S
C4376 H4358 0.951 . S
C4376 C4377 1.366 . S
C4376 C4378 1.388 . S
C4377 C4376 1.366 . S
C4377 C4381 1.385 . S
C4378 H4359 0.951 . S
C4378 C4376 1.388 . S
C4378 C4379 1.366 . S
C4379 C4378 1.366 . S
C4379 C4380 1.414 . S
C4379 C4382 1.499 . S
C4380 H4360 0.950 . S
C4380 C4379 1.414 . S
C4380 C4381 1.374 . S
C4381 H4361 0.950 . S
C4381 C4377 1.385 . S
C4381 C4380 1.374 . S
C4382 C4379 1.499 . S
C4382 C4383 1.373 . S
C4382 C4384 1.389 . S
C4383 H4362 0.950 . S
C4383 C4382 1.373 . S
C4383 C4399 1.377 . S
C4384 C4382 1.389 . S
C4384 C4385 1.524 . S
C4384 C4398 1.377 . S
C4385 C4384 1.524 . S
C4385 C4386 1.397 . S
C4385 C4390 1.363 . S
C4386 H4363 0.950 . S
C4386 C4385 1.397 . S
C4386 C4387 1.334 . S
C4387 H4364 0.950 . S
C4387 C4386 1.334 . S
C4387 C4388 1.287 . S
C4388 C4387 1.287 . S
C4388 C4389 1.524 . S
C4388 H4407 0.913 . S
C4389 H4365 0.950 . S
C4389 C4388 1.524 . S
C4389 C4390 1.415 . S
C4390 H4366 0.950 . S
C4390 C4385 1.363 . S
C4390 C4389 1.415 . S
C4391 H4367 0.951 . S
C4391 C4392 1.366 . S
C4391 C4393 1.388 . S
C4392 C4391 1.366 . S
C4392 C4396 1.385 . S
C4393 H4368 0.951 . S
C4393 C4391 1.388 . S
C4393 C4394 1.366 . S
C4394 C4393 1.366 . S
C4394 C4395 1.414 . S
C4394 C4397 1.499 . S
C4395 H4369 0.950 . S
C4395 C4394 1.414 . S
C4395 C4396 1.374 . S
C4396 H4370 0.950 . S
C4396 C4392 1.385 . S
C4396 C4395 1.374 . S
C4397 C4394 1.499 . S
C4397 C4398 1.373 . S
C4397 C4399 1.389 . S
C4398 H4371 0.950 . S
C4398 C4384 1.377 . S
C4398 C4397 1.373 . S
C4399 C4383 1.377 . S
C4399 C4397 1.389 . S
C4399 C4400 1.524 . S
C4400 C4399 1.524 . S
C4400 C4401 1.397 . S
C4400 C4405 1.363 . S
C4401 H4372 0.950 . S
C4401 C4400 1.397 . S
C4401 C4402 1.334 . S
C4402 H4373 0.950 . S
C4402 C4401 1.334 . S
C4402 C4403 1.287 . S
C4403 C4402 1.287 . S
C4403 C4404 1.524 . S
C4403 H4406 0.999 . S
C4404 H4374 0.950 . S
C4404 C4403 1.524 . S
C4404 C4405 1.415 . S
C4405 H4375 0.950 . S
C4405 C4400 1.363 . S
C4405 C4404 1.415 . S
H4406 C4403 0.999 . S
H4407 C4388 0.913 . S
H4408 C4426 0.951 . S
H4409 C4428 0.951 . S
H4410 C4430 0.950 . S
H4411 C4431 0.950 . S
H4412 C4433 0.950 . S
H4413 C4436 0.950 . S
H4414 C4437 0.950 . S
H4415 C4439 0.950 . S
H4416 C4440 0.950 . S
H4417 C4441 0.951 . S
H4418 C4443 0.951 . S
H4419 C4445 0.950 . S
H4420 C4446 0.950 . S
H4421 C4448 0.950 . S
H4422 C4451 0.950 . S
H4423 C4452 0.950 . S
H4424 C4454 0.950 . S
H4425 C4455 0.950 . S
C4426 H4408 0.951 . S
C4426 C4427 1.366 . S
C4426 C4428 1.388 . S
C4427 C4426 1.366 . S
C4427 C4431 1.385 . S
C4428 H4409 0.951 . S
C4428 C4426 1.388 . S
C4428 C4429 1.366 . S
C4429 C4428 1.366 . S
C4429 C4430 1.414 . S
C4429 C4432 1.499 . S
C4430 H4410 0.950 . S
C4430 C4429 1.414 . S
C4430 C4431 1.374 . S
C4431 H4411 0.950 . S
C4431 C4427 1.385 . S
C4431 C4430 1.374 . S
C4432 C4429 1.499 . S
C4432 C4433 1.373 . S
C4432 C4434 1.389 . S
C4433 H4412 0.950 . S
C4433 C4432 1.373 . S
C4433 C4449 1.377 . S
C4434 C4432 1.389 . S
C4434 C4435 1.524 . S
C4434 C4448 1.377 . S
C4435 C4434 1.524 . S
C4435 C4436 1.397 . S
C4435 C4440 1.363 . S
C4436 H4413 0.950 . S
C4436 C4435 1.397 . S
C4436 C4437 1.334 . S
C4437 H4414 0.950 . S
C4437 C4436 1.334 . S
C4437 C4438 1.287 . S
C4438 C4437 1.287 . S
C4438 C4439 1.524 . S
C4438 H4457 0.913 . S
C4439 H4415 0.950 . S
C4439 C4438 1.524 . S
C4439 C4440 1.415 . S
C4440 H4416 0.950 . S
C4440 C4435 1.363 . S
C4440 C4439 1.415 . S
C4441 H4417 0.951 . S
C4441 C4442 1.366 . S
C4441 C4443 1.388 . S
C4442 C4441 1.366 . S
C4442 C4446 1.385 . S
C4443 H4418 0.951 . S
C4443 C4441 1.388 . S
C4443 C4444 1.366 . S
C4444 C4443 1.366 . S
C4444 C4445 1.414 . S
C4444 C4447 1.499 . S
C4445 H4419 0.950 . S
C4445 C4444 1.414 . S
C4445 C4446 1.374 . S
C4446 H4420 0.950 . S
C4446 C4442 1.385 . S
C4446 C4445 1.374 . S
C4447 C4444 1.499 . S
C4447 C4448 1.373 . S
C4447 C4449 1.389 . S
C4448 H4421 0.950 . S
C4448 C4434 1.377 . S
C4448 C4447 1.373 . S
C4449 C4433 1.377 . S
C4449 C4447 1.389 . S
C4449 C4450 1.524 . S
C4450 C4449 1.524 . S
C4450 C4451 1.397 . S
C4450 C4455 1.363 . S
C4451 H4422 0.950 . S
C4451 C4450 1.397 . S
C4451 C4452 1.334 . S
C4452 H4423 0.950 . S
C4452 C4451 1.334 . S
C4452 C4453 1.287 . S
C4453 C4452 1.287 . S
C4453 C4454 1.524 . S
C4453 H4456 0.999 . S
C4454 H4424 0.950 . S
C4454 C4453 1.524 . S
C4454 C4455 1.415 . S
C4455 H4425 0.950 . S
C4455 C4450 1.363 . S
C4455 C4454 1.415 . S
H4456 C4453 0.999 . S
H4457 C4438 0.913 . S
H4458 C4476 0.951 . S
H4459 C4478 0.951 . S
H4460 C4480 0.950 . S
H4461 C4481 0.950 . S
H4462 C4483 0.950 . S
H4463 C4486 0.950 . S
H4464 C4487 0.950 . S
H4465 C4489 0.950 . S
H4466 C4490 0.950 . S
H4467 C4491 0.951 . S
H4468 C4493 0.951 . S
H4469 C4495 0.950 . S
H4470 C4496 0.950 . S
H4471 C4498 0.950 . S
H4472 C4501 0.950 . S
H4473 C4502 0.950 . S
H4474 C4504 0.950 . S
H4475 C4505 0.950 . S
C4476 H4458 0.951 . S
C4476 C4477 1.366 . S
C4476 C4478 1.388 1_455 S
C4477 C4476 1.366 . S
C4477 C4481 1.385 . S
C4478 H4459 0.951 . S
C4478 C4476 1.388 1_655 S
C4478 C4479 1.366 . S
C4479 C4478 1.366 . S
C4479 C4480 1.414 . S
C4479 C4482 1.499 . S
C4480 H4460 0.950 . S
C4480 C4479 1.414 . S
C4480 C4481 1.374 1_655 S
C4481 H4461 0.950 . S
C4481 C4477 1.385 . S
C4481 C4480 1.374 1_455 S
C4482 C4479 1.499 . S
C4482 C4483 1.373 . S
C4482 C4484 1.389 . S
C4483 H4462 0.950 . S
C4483 C4482 1.373 . S
C4483 C4499 1.377 . S
C4484 C4482 1.389 . S
C4484 C4485 1.524 . S
C4484 C4498 1.377 . S
C4485 C4484 1.524 . S
C4485 C4486 1.397 . S
C4485 C4490 1.363 . S
C4486 H4463 0.950 . S
C4486 C4485 1.397 . S
C4486 C4487 1.334 . S
C4487 H4464 0.950 . S
C4487 C4486 1.334 . S
C4487 C4488 1.287 . S
C4488 C4487 1.287 . S
C4488 C4489 1.524 . S
C4488 H4507 0.913 . S
C4489 H4465 0.950 . S
C4489 C4488 1.524 . S
C4489 C4490 1.415 . S
C4490 H4466 0.950 . S
C4490 C4485 1.363 . S
C4490 C4489 1.415 . S
C4491 H4467 0.951 . S
C4491 C4492 1.366 . S
C4491 C4493 1.388 . S
C4492 C4491 1.366 . S
C4492 C4496 1.385 . S
C4493 H4468 0.951 . S
C4493 C4491 1.388 . S
C4493 C4494 1.366 . S
C4494 C4493 1.366 . S
C4494 C4495 1.414 . S
C4494 C4497 1.499 . S
C4495 H4469 0.950 . S
C4495 C4494 1.414 . S
C4495 C4496 1.374 . S
C4496 H4470 0.950 . S
C4496 C4492 1.385 . S
C4496 C4495 1.374 . S
C4497 C4494 1.499 . S
C4497 C4498 1.373 . S
C4497 C4499 1.389 . S
C4498 H4471 0.950 . S
C4498 C4484 1.377 . S
C4498 C4497 1.373 . S
C4499 C4483 1.377 . S
C4499 C4497 1.389 . S
C4499 C4500 1.524 . S
C4500 C4499 1.524 . S
C4500 C4501 1.397 . S
C4500 C4505 1.363 . S
C4501 H4472 0.950 . S
C4501 C4500 1.397 . S
C4501 C4502 1.334 . S
C4502 H4473 0.950 . S
C4502 C4501 1.334 . S
C4502 C4503 1.287 . S
C4503 C4502 1.287 . S
C4503 C4504 1.524 . S
C4503 H4506 0.999 . S
C4504 H4474 0.950 . S
C4504 C4503 1.524 . S
C4504 C4505 1.415 . S
C4505 H4475 0.950 . S
C4505 C4500 1.363 . S
C4505 C4504 1.415 . S
H4506 C4503 0.999 . S
H4507 C4488 0.913 . S
H4508 C4526 0.951 . S
H4509 C4528 0.951 . S
H4510 C4530 0.950 . S
H4511 C4531 0.950 . S
H4512 C4533 0.950 . S
H4513 C4536 0.950 . S
H4514 C4537 0.950 . S
H4515 C4539 0.950 . S
H4516 C4540 0.950 . S
H4517 C4541 0.951 . S
H4518 C4543 0.951 . S
H4519 C4545 0.950 . S
H4520 C4546 0.950 . S
H4521 C4548 0.950 . S
H4522 C4551 0.950 . S
H4523 C4552 0.950 . S
H4524 C4554 0.950 . S
H4525 C4555 0.950 . S
C4526 H4508 0.951 . S
C4526 C4527 1.366 . S
C4526 C4528 1.388 . S
C4527 C4526 1.366 . S
C4527 C4531 1.385 . S
C4528 H4509 0.951 . S
C4528 C4526 1.388 . S
C4528 C4529 1.366 . S
C4529 C4528 1.366 . S
C4529 C4530 1.414 . S
C4529 C4532 1.499 . S
C4530 H4510 0.950 . S
C4530 C4529 1.414 . S
C4530 C4531 1.374 . S
C4531 H4511 0.950 . S
C4531 C4527 1.385 . S
C4531 C4530 1.374 . S
C4532 C4529 1.499 . S
C4532 C4533 1.373 . S
C4532 C4534 1.389 . S
C4533 H4512 0.950 . S
C4533 C4532 1.373 . S
C4533 C4549 1.377 . S
C4534 C4532 1.389 . S
C4534 C4535 1.524 . S
C4534 C4548 1.377 . S
C4535 C4534 1.524 . S
C4535 C4536 1.397 . S
C4535 C4540 1.363 . S
C4536 H4513 0.950 . S
C4536 C4535 1.397 . S
C4536 C4537 1.334 . S
C4537 H4514 0.950 . S
C4537 C4536 1.334 . S
C4537 C4538 1.287 . S
C4538 C4537 1.287 . S
C4538 C4539 1.524 . S
C4538 H4557 0.913 . S
C4539 H4515 0.950 . S
C4539 C4538 1.524 . S
C4539 C4540 1.415 . S
C4540 H4516 0.950 . S
C4540 C4535 1.363 . S
C4540 C4539 1.415 . S
C4541 H4517 0.951 . S
C4541 C4542 1.366 . S
C4541 C4543 1.388 . S
C4542 C4541 1.366 . S
C4542 C4546 1.385 . S
C4543 H4518 0.951 . S
C4543 C4541 1.388 . S
C4543 C4544 1.366 . S
C4544 C4543 1.366 . S
C4544 C4545 1.414 . S
C4544 C4547 1.499 . S
C4545 H4519 0.950 . S
C4545 C4544 1.414 . S
C4545 C4546 1.374 . S
C4546 H4520 0.950 . S
C4546 C4542 1.385 . S
C4546 C4545 1.374 . S
C4547 C4544 1.499 . S
C4547 C4548 1.373 . S
C4547 C4549 1.389 . S
C4548 H4521 0.950 . S
C4548 C4534 1.377 . S
C4548 C4547 1.373 . S
C4549 C4533 1.377 . S
C4549 C4547 1.389 . S
C4549 C4550 1.524 . S
C4550 C4549 1.524 . S
C4550 C4551 1.397 . S
C4550 C4555 1.363 . S
C4551 H4522 0.950 . S
C4551 C4550 1.397 . S
C4551 C4552 1.334 . S
C4552 H4523 0.950 . S
C4552 C4551 1.334 . S
C4552 C4553 1.287 . S
C4553 C4552 1.287 . S
C4553 C4554 1.524 . S
C4553 H4556 0.999 . S
C4554 H4524 0.950 . S
C4554 C4553 1.524 . S
C4554 C4555 1.415 . S
C4555 H4525 0.950 . S
C4555 C4550 1.363 . S
C4555 C4554 1.415 . S
H4556 C4553 0.999 . S
H4557 C4538 0.913 . S
H4558 C4576 0.951 . S
H4559 C4578 0.951 . S
H4560 C4580 0.950 . S
H4561 C4581 0.950 . S
H4562 C4583 0.950 . S
H4563 C4586 0.950 . S
H4564 C4587 0.950 . S
H4565 C4589 0.950 . S
H4566 C4590 0.950 . S
H4567 C4591 0.951 . S
H4568 C4593 0.951 . S
H4569 C4595 0.950 . S
H4570 C4596 0.950 . S
H4571 C4598 0.950 . S
H4572 C4601 0.950 . S
H4573 C4602 0.950 . S
H4574 C4604 0.950 . S
H4575 C4605 0.950 . S
C4576 H4558 0.951 . S
C4576 C4577 1.366 . S
C4576 C4578 1.388 . S
C4577 C4576 1.366 . S
C4577 C4581 1.385 . S
C4578 H4559 0.951 . S
C4578 C4576 1.388 . S
C4578 C4579 1.366 . S
C4579 C4578 1.366 . S
C4579 C4580 1.414 . S
C4579 C4582 1.499 . S
C4580 H4560 0.950 . S
C4580 C4579 1.414 . S
C4580 C4581 1.374 . S
C4581 H4561 0.950 . S
C4581 C4577 1.385 . S
C4581 C4580 1.374 . S
C4582 C4579 1.499 . S
C4582 C4583 1.373 . S
C4582 C4584 1.389 . S
C4583 H4562 0.950 . S
C4583 C4582 1.373 . S
C4583 C4599 1.377 . S
C4584 C4582 1.389 . S
C4584 C4585 1.524 . S
C4584 C4598 1.377 . S
C4585 C4584 1.524 . S
C4585 C4586 1.397 . S
C4585 C4590 1.363 . S
C4586 H4563 0.950 . S
C4586 C4585 1.397 . S
C4586 C4587 1.334 . S
C4587 H4564 0.950 . S
C4587 C4586 1.334 . S
C4587 C4588 1.287 . S
C4588 C4587 1.287 . S
C4588 C4589 1.524 . S
C4588 H4607 0.913 . S
C4589 H4565 0.950 . S
C4589 C4588 1.524 . S
C4589 C4590 1.415 . S
C4590 H4566 0.950 . S
C4590 C4585 1.363 . S
C4590 C4589 1.415 . S
C4591 H4567 0.951 . S
C4591 C4592 1.366 . S
C4591 C4593 1.388 1_565 S
C4592 C4591 1.366 . S
C4592 C4596 1.385 . S
C4593 H4568 0.951 . S
C4593 C4591 1.388 1_545 S
C4593 C4594 1.366 . S
C4594 C4593 1.366 . S
C4594 C4595 1.414 . S
C4594 C4597 1.499 . S
C4595 H4569 0.950 . S
C4595 C4594 1.414 . S
C4595 C4596 1.374 1_545 S
C4596 H4570 0.950 . S
C4596 C4592 1.385 . S
C4596 C4595 1.374 1_565 S
C4597 C4594 1.499 . S
C4597 C4598 1.373 . S
C4597 C4599 1.389 . S
C4598 H4571 0.950 . S
C4598 C4584 1.377 . S
C4598 C4597 1.373 . S
C4599 C4583 1.377 . S
C4599 C4597 1.389 . S
C4599 C4600 1.524 . S
C4600 C4599 1.524 . S
C4600 C4601 1.397 . S
C4600 C4605 1.363 . S
C4601 H4572 0.950 . S
C4601 C4600 1.397 . S
C4601 C4602 1.334 . S
C4602 H4573 0.950 . S
C4602 C4601 1.334 . S
C4602 C4603 1.287 . S
C4603 C4602 1.287 . S
C4603 C4604 1.524 . S
C4603 H4606 0.999 . S
C4604 H4574 0.950 . S
C4604 C4603 1.524 . S
C4604 C4605 1.415 . S
C4605 H4575 0.950 . S
C4605 C4600 1.363 . S
C4605 C4604 1.415 . S
H4606 C4603 0.999 . S
H4607 C4588 0.913 . S
C1477 C1233 1.549 . S
C1492 C18 1.549 . S
C1527 C99 1.549 . S
C1542 C1314 1.549 . S
C1577 C1395 1.549 . S
C1592 C180 1.549 . S
C1627 C504 1.548 . S
C1642 C261 1.548 . S
C1677 C342 1.549 . S
C1692 C585 1.549 . S
C1727 C423 1.549 . S
C1742 C666 1.549 . S
C1777 C990 1.548 . S
C1792 C747 1.548 . S
C1827 C828 1.548 . S
C1842 C1071 1.548 . S
C1877 C909 1.548 . S
C1892 C1152 1.548 . S
C1927 C619 0.726 . S
C1942 C59 0.613 . S
C1977 C700 0.723 . S
C1992 C140 0.611 . S
C2027 C538 0.725 . S
C2042 C221 0.615 . S
C2077 C302 0.612 . S
C2092 C1348 0.721 . S
C2127 C1429 0.722 . S
C2142 C383 0.611 . S
C2177 C464 0.615 . S
C2192 C1267 0.724 . S
C2227 C1105 0.724 . S
C2242 C545 0.611 . S
C2277 C1186 0.724 . S
C2292 C626 0.611 . S
C2327 C1024 0.722 . S
C2342 C707 0.614 . S
C2377 C376 0.725 . S
C2392 C788 0.615 . S
C2427 C869 0.615 . S
C2442 C457 0.724 . S
C2477 C950 0.612 . S
C2492 C295 0.725 . S
C2527 C133 0.723 . S
C2542 C1031 0.614 . S
C2577 C1112 0.615 . S
C2592 C214 0.724 . S
C2627 C52 0.724 . S
C2642 C1193 0.615 . S
C2677 C862 0.724 . S
C2692 C1274 0.615 . S
C2727 C1355 0.613 . S
C2742 C943 0.726 . S
C2777 C1436 0.614 . S
C2792 C781 0.726 . S
C2827 C374 3.362 . S
C2842 C37 3.143 . S
C2877 C455 3.362 . S
C2892 C118 3.142 . S
C2927 C293 3.362 . S
C2942 C199 3.142 . S
C2977 C131 3.362 . S
C2992 C280 3.142 . S
C3027 C361 3.142 . S
C3042 C212 3.362 . S
C3077 C442 3.142 . S
C3092 C50 3.362 . S
C3127 C860 3.362 . S
C3142 C523 3.143 . S
C3177 C604 3.143 . S
C3192 C941 3.362 . S
C3227 C779 3.362 . S
C3242 C685 3.142 . S
C3277 C766 3.143 . S
C3292 C617 3.362 . S
C3327 C698 3.362 . S
C3342 C847 3.142 . S
C3377 C928 3.142 . S
C3392 C536 3.362 . S
C3427 C1346 3.362 . S
C3442 C1009 3.142 . S
C3477 C1090 3.142 . S
C3492 C1427 3.362 . S
C3527 C1171 3.142 . S
C3542 C1265 3.362 . S
C3577 C1103 3.362 . S
C3592 C1252 3.143 . S
C3627 C1184 3.362 . S
C3642 C1333 3.143 . S
C3677 C1414 3.142 . S
C3692 C1022 3.361 . S
C3727 C34 1.475 . S
C3742 C907 1.453 . S
C3777 C745 1.453 . S
C3792 C115 1.475 . S
C3827 C196 1.475 . S
C3842 C826 1.453 . S
C3877 C277 1.475 . S
C3892 C1150 1.453 . S
C3927 C358 1.475 . S
C3942 C988 1.453 . S
C3977 C439 1.474 . S
C3992 C1069 1.454 . S
C4027 C520 1.473 . S
C4042 C1393 1.454 . S
C4077 C601 1.474 . S
C4092 C1231 1.453 . S
C4127 C682 1.474 . S
C4142 C1312 1.454 . S
C4177 C178 1.452 . S
C4192 C763 1.475 . S
C4227 C16 1.453 . S
C4242 C844 1.475 . S
C4277 C925 1.475 . S
C4292 C97 1.454 . S
C4327 C421 1.452 . S
C4342 C1006 1.475 . S
C4377 C1087 1.475 . S
C4392 C259 1.452 . S
C4427 C340 1.453 . S
C4442 C1168 1.475 . S
C4477 C1249 1.475 . S
C4492 C664 1.452 . S
C4527 C1330 1.474 . S
C4542 C502 1.452 . S
C4577 C583 1.453 . S
C4592 C1411 1.475 . S
