# Generated by pormake.
# Topology qtz-h, (3)-cn, num edge types: 1
# Building blocks:
#     Node 0, Type 0, BuildingBlock: WUSLED_clean_sbu_0, # of connection points: 3
#     Node 1, Type 0, BuildingBlock: WUSLED_clean_sbu_0, # of connection points: 3
#     Node 2, Type 0, BuildingBlock: WUSLED_clean_sbu_0, # of connection points: 3
#     Node 3, Type 0, BuildingBlock: WUSLED_clean_sbu_0, # of connection points: 3
#     Node 4, Type 0, BuildingBlock: WUSLED_clean_sbu_0, # of connection points: 3
#     Node 5, Type 0, BuildingBlock: WUSLED_clean_sbu_0, # of connection points: 3
#     Node 6, Type 0, BuildingBlock: WUSLED_clean_sbu_0, # of connection points: 3
#     Node 7, Type 0, BuildingBlock: WUSLED_clean_sbu_0, # of connection points: 3
#     Node 8, Type 0, BuildingBlock: WUSLED_clean_sbu_0, # of connection points: 3
#     Node 9, Type 0, BuildingBlock: WUSLED_clean_sbu_0, # of connection points: 3
#     Node 10, Type 0, BuildingBlock: WUSLED_clean_sbu_0, # of connection points: 3
#     Node 11, Type 0, BuildingBlock: WUSLED_clean_sbu_0, # of connection points: 3
#     Edge 12, Type (0, 0), BuildingBlock: MIFKUJ_clean_linker_0, # of connection points: 2
#     Edge 13, Type (0, 0), BuildingBlock: MIFKUJ_clean_linker_0, # of connection points: 2
#     Edge 14, Type (0, 0), BuildingBlock: MIFKUJ_clean_linker_0, # of connection points: 2
#     Edge 15, Type (0, 0), BuildingBlock: MIFKUJ_clean_linker_0, # of connection points: 2
#     Edge 16, Type (0, 0), BuildingBlock: MIFKUJ_clean_linker_0, # of connection points: 2
#     Edge 17, Type (0, 0), BuildingBlock: MIFKUJ_clean_linker_0, # of connection points: 2
#     Edge 18, Type (0, 0), BuildingBlock: MIFKUJ_clean_linker_0, # of connection points: 2
#     Edge 19, Type (0, 0), BuildingBlock: MIFKUJ_clean_linker_0, # of connection points: 2
#     Edge 20, Type (0, 0), BuildingBlock: MIFKUJ_clean_linker_0, # of connection points: 2
#     Edge 21, Type (0, 0), BuildingBlock: MIFKUJ_clean_linker_0, # of connection points: 2
#     Edge 22, Type (0, 0), BuildingBlock: MIFKUJ_clean_linker_0, # of connection points: 2
#     Edge 23, Type (0, 0), BuildingBlock: MIFKUJ_clean_linker_0, # of connection points: 2
#     Edge 24, Type (0, 0), BuildingBlock: MIFKUJ_clean_linker_0, # of connection points: 2
#     Edge 25, Type (0, 0), BuildingBlock: MIFKUJ_clean_linker_0, # of connection points: 2
#     Edge 26, Type (0, 0), BuildingBlock: MIFKUJ_clean_linker_0, # of connection points: 2
#     Edge 27, Type (0, 0), BuildingBlock: MIFKUJ_clean_linker_0, # of connection points: 2
#     Edge 28, Type (0, 0), BuildingBlock: MIFKUJ_clean_linker_0, # of connection points: 2
#     Edge 29, Type (0, 0), BuildingBlock: MIFKUJ_clean_linker_0, # of connection points: 2
# Relax obj value: 0.120
# Max RMSD: 0.102
# Mean RMSD: 0.102
data_MOF--net-qtz-h--node1-WUSLED_clean_sbu_0--edge1-MIFKUJ_clean_linker_0
_symmetry_space_group_name_H-M    P1
_symmetry_Int_Tables_number       1
_symmetry_cell_setting            triclinic
loop_
_symmetry_equiv_pos_as_xyz
'x, y, z'
_cell_length_a     88.753135
_cell_length_b     88.916629
_cell_length_c     131.86719
_cell_angle_alpha  90.436226
_cell_angle_beta   89.823635
_cell_angle_gamma 120.19685
loop_
_atom_site_label
_atom_site_type_symbol
_atom_site_fract_x
_atom_site_fract_y
_atom_site_fract_z
_atom_type_partial_charge
C0 C 0.5659 0.13809 0.12852 0.0
C1 C 0.56098 0.12755 0.1198 0.0
C2 C 0.55048 0.10169 0.13021 0.0
C3 C 0.55329 0.10952 0.12063 0.0
C4 C 0.55563 0.11233 0.13893 0.0
C5 C 0.56324 0.1304 0.13809 0.0
U6 U 0.58737 0.17812 0.11218 0.0
O7 O 0.58377 0.20076 0.1112 0.0
O8 O 0.60944 0.20447 0.11516 0.0
C9 C 0.5997 0.21167 0.11434 0.0
C10 C 0.57391 0.15705 0.12762 0.0
C11 C 0.60105 0.22323 0.12275 0.0
C12 C 0.59108 0.22798 0.13899 0.0
C13 C 0.59009 0.21672 0.13123 0.0
C14 C 0.61432 0.25231 0.13001 0.0
C15 C 0.60314 0.24592 0.13843 0.0
C16 C 0.61324 0.24105 0.12222 0.0
C17 C 0.59361 0.17111 0.08406 0.0
C18 C 0.59901 0.19151 0.07046 0.0
C19 C 0.60195 0.16621 0.06737 0.0
C20 C 0.59748 0.16114 0.07744 0.0
C21 C 0.60262 0.18136 0.06373 0.0
C22 C 0.5946 0.18646 0.08057 0.0
C23 C 0.58802 0.16489 0.09445 0.0
O24 O 0.59067 0.1654 0.12557 0.0
O25 O 0.56508 0.16225 0.12212 0.0
O26 O 0.57452 0.16577 0.09782 0.0
O27 O 0.60053 0.16982 0.10119 0.0
H28 H 0.5631 0.13329 0.11233 0.0
H29 H 0.54972 0.10171 0.11376 0.0
H30 H 0.55352 0.10667 0.14641 0.0
H31 H 0.56701 0.13837 0.1449 0.0
H32 H 0.58245 0.22265 0.14545 0.0
H33 H 0.58069 0.20295 0.13181 0.0
H34 H 0.62363 0.26608 0.12932 0.0
H35 H 0.62181 0.24629 0.11572 0.0
H36 H 0.59955 0.20332 0.06789 0.0
H37 H 0.60439 0.15796 0.06236 0.0
H38 H 0.59673 0.14924 0.08001 0.0
H39 H 0.59174 0.19439 0.0856 0.0
C40 C 0.44171 0.56745 0.46402 0.0
C41 C 0.4513 0.56689 0.45571 0.0
C42 C 0.46333 0.55284 0.46603 0.0
C43 C 0.46202 0.55967 0.4567 0.0
C44 C 0.45375 0.55355 0.47437 0.0
C45 C 0.44302 0.56081 0.47337 0.0
U46 U 0.4208 0.58504 0.44668 0.0
O47 O 0.39373 0.57938 0.44547 0.0
O48 O 0.41483 0.6061 0.44844 0.0
C49 C 0.39791 0.59543 0.44778 0.0
C50 C 0.42987 0.57434 0.46279 0.0
C51 C 0.38736 0.59712 0.45582 0.0
C52 C 0.38059 0.59771 0.47363 0.0
C53 C 0.39101 0.59639 0.46609 0.0
C54 C 0.36277 0.60039 0.46069 0.0
C55 C 0.3663 0.59964 0.47101 0.0
C56 C 0.37323 0.59916 0.45317 0.0
C57 C 0.43329 0.58824 0.41857 0.0
C58 C 0.41757 0.59233 0.40482 0.0
C59 C 0.44393 0.59144 0.40131 0.0
C60 C 0.44569 0.58919 0.41162 0.0
C61 C 0.42968 0.59271 0.39776 0.0
C62 C 0.41936 0.59009 0.41516 0.0
C63 C 0.43471 0.58442 0.42921 0.0
O64 O 0.4374 0.59081 0.46018 0.0
O65 O 0.41577 0.5643 0.45747 0.0
O66 O 0.42084 0.57088 0.43299 0.0
O67 O 0.44182 0.59785 0.43543 0.0
H68 H 0.45031 0.57183 0.4484 0.0
H69 H 0.46898 0.55908 0.45008 0.0
H70 H 0.45461 0.54857 0.48169 0.0
H71 H 0.43566 0.56112 0.47986 0.0
H72 H 0.38352 0.59688 0.4815 0.0
H73 H 0.40182 0.59469 0.46826 0.0
H74 H 0.35198 0.60207 0.45843 0.0
H75 H 0.37024 0.59974 0.44527 0.0
H76 H 0.4064 0.59317 0.40232 0.0
H77 H 0.45365 0.59199 0.3961 0.0
H78 H 0.45657 0.58786 0.41414 0.0
H79 H 0.40967 0.5894 0.42045 0.0
C80 C 0.88538 0.43774 0.79624 0.0
C81 C 0.89587 0.44318 0.78753 0.0
C82 C 0.92187 0.45886 0.79798 0.0
C83 C 0.91394 0.45361 0.78839 0.0
C84 C 0.91127 0.45356 0.80669 0.0
C85 C 0.89315 0.44304 0.80582 0.0
U86 U 0.84576 0.41577 0.77943 0.0
O87 O 0.82355 0.38908 0.77908 0.0
O88 O 0.81901 0.41097 0.78144 0.0
C89 C 0.81224 0.39398 0.78142 0.0
C90 C 0.86642 0.4264 0.79528 0.0
C91 C 0.80051 0.38463 0.78992 0.0
C92 C 0.79495 0.36966 0.80603 0.0
C93 C 0.8065 0.37953 0.79833 0.0
C94 C 0.77145 0.37049 0.79723 0.0
C95 C 0.77727 0.36488 0.80551 0.0
C96 C 0.78298 0.38023 0.78948 0.0
C97 C 0.85425 0.42395 0.7508 0.0
C98 C 0.83264 0.41697 0.73756 0.0
C99 C 0.86168 0.42291 0.7332 0.0
C100 C 0.86635 0.42561 0.74342 0.0
C101 C 0.84478 0.41852 0.73015 0.0
C102 C 0.83732 0.41957 0.74784 0.0
C103 C 0.8597 0.42668 0.76148 0.0
O104 O 0.85799 0.43415 0.79215 0.0
O105 O 0.86144 0.41149 0.79065 0.0
O106 O 0.859 0.41321 0.76597 0.0
O107 O 0.85407 0.43502 0.7672 0.0
H108 H 0.89005 0.43928 0.78006 0.0
H109 H 0.92171 0.45768 0.78154 0.0
H110 H 0.917 0.45728 0.81418 0.0
H111 H 0.88522 0.43894 0.81261 0.0
H112 H 0.79984 0.36571 0.81238 0.0
H113 H 0.82003 0.38295 0.79888 0.0
H114 H 0.75788 0.36691 0.7966 0.0
H115 H 0.77815 0.38408 0.78305 0.0
H116 H 0.81951 0.41352 0.73542 0.0
H117 H 0.8714 0.42449 0.72766 0.0
H118 H 0.87947 0.42901 0.74557 0.0
H119 H 0.82775 0.41812 0.75345 0.0
C120 C 0.45806 0.87888 0.12979 0.0
C121 C 0.45957 0.88875 0.12121 0.0
C122 C 0.47225 0.91518 0.13149 0.0
C123 C 0.46661 0.90672 0.12204 0.0
C124 C 0.47068 0.9052 0.14009 0.0
C125 C 0.46362 0.88717 0.13924 0.0
U126 U 0.43831 0.83915 0.11305 0.0
O127 O 0.443 0.81719 0.11177 0.0
O128 O 0.41681 0.8124 0.11546 0.0
C129 C 0.42702 0.80573 0.11452 0.0
C130 C 0.45083 0.86002 0.1288 0.0
C131 C 0.42564 0.79388 0.12262 0.0
C132 C 0.43216 0.78883 0.13971 0.0
C133 C 0.43328 0.80029 0.13215 0.0
C134 C 0.41557 0.76444 0.12832 0.0
C135 C 0.42337 0.77076 0.13787 0.0
C136 C 0.41671 0.77592 0.12078 0.0
C137 C 0.43226 0.84663 0.08498 0.0
C138 C 0.43311 0.83139 0.06979 0.0
C139 C 0.41955 0.84916 0.06927 0.0
C140 C 0.42335 0.85323 0.07953 0.0
C141 C 0.42472 0.83851 0.06421 0.0
C142 C 0.43682 0.83539 0.08009 0.0
C143 C 0.43746 0.85249 0.09553 0.0
O144 O 0.4341 0.85105 0.12666 0.0
O145 O 0.4602 0.85544 0.12324 0.0
O146 O 0.45124 0.85222 0.09892 0.0
O147 O 0.42475 0.84702 0.10219 0.0
H148 H 0.45538 0.88254 0.11384 0.0
H149 H 0.46788 0.91402 0.11524 0.0
H150 H 0.47474 0.91128 0.14749 0.0
H151 H 0.46252 0.87971 0.14594 0.0
H152 H 0.43848 0.79414 0.14692 0.0
H153 H 0.44023 0.81416 0.13369 0.0
H154 H 0.40847 0.75061 0.1267 0.0
H155 H 0.41067 0.77077 0.11347 0.0
H156 H 0.43739 0.82324 0.06612 0.0
H157 H 0.41275 0.85457 0.06526 0.0
H158 H 0.41963 0.86185 0.08318 0.0
H159 H 0.44364 0.83005 0.08415 0.0
C160 C 0.58784 0.45446 0.46271 0.0
C161 C 0.58366 0.46087 0.45413 0.0
C162 C 0.56702 0.47 0.4646 0.0
C163 C 0.5734 0.46863 0.45507 0.0
C164 C 0.57102 0.46331 0.47316 0.0
C165 C 0.5814 0.45563 0.47222 0.0
U166 U 0.60864 0.43529 0.44603 0.0
O167 O 0.63516 0.43935 0.44571 0.0
O168 O 0.61289 0.41317 0.44829 0.0
C169 C 0.62995 0.42312 0.44808 0.0
C170 C 0.59891 0.44659 0.46174 0.0
C171 C 0.63943 0.42078 0.45647 0.0
C172 C 0.65285 0.42874 0.47315 0.0
C173 C 0.64301 0.4305 0.46547 0.0
C174 C 0.65517 0.40715 0.46301 0.0
C175 C 0.6592 0.41716 0.47197 0.0
C176 C 0.64541 0.40898 0.45533 0.0
C177 C 0.59946 0.43263 0.4175 0.0
C178 C 0.61773 0.43178 0.40399 0.0
C179 C 0.58802 0.42443 0.4004 0.0
C180 C 0.58575 0.42734 0.41057 0.0
C181 C 0.60411 0.42687 0.39697 0.0
C182 C 0.61539 0.43456 0.41419 0.0
C183 C 0.59707 0.43675 0.428 0.0
O184 O 0.59078 0.43018 0.45886 0.0
O185 O 0.61369 0.45613 0.45692 0.0
O186 O 0.61077 0.44994 0.43226 0.0
O187 O 0.58866 0.42338 0.43406 0.0
H188 H 0.58839 0.45992 0.4467 0.0
H189 H 0.57033 0.47343 0.44831 0.0
H190 H 0.56639 0.46429 0.48061 0.0
H191 H 0.58448 0.45071 0.47892 0.0
H192 H 0.65585 0.43679 0.47988 0.0
H193 H 0.63845 0.43966 0.46649 0.0
H194 H 0.65958 0.39789 0.46192 0.0
H195 H 0.64267 0.4013 0.44845 0.0
H196 H 0.6302 0.43358 0.40158 0.0
H197 H 0.57735 0.42085 0.39515 0.0
H198 H 0.57337 0.42579 0.41299 0.0
H199 H 0.62612 0.4385 0.41945 0.0
C200 C 0.14542 0.58635 0.79586 0.0
C201 C 0.13508 0.57822 0.7873 0.0
C202 C 0.10899 0.56494 0.7978 0.0
C203 C 0.11704 0.56763 0.78826 0.0
C204 C 0.11945 0.57312 0.80638 0.0
C205 C 0.13754 0.58374 0.8054 0.0
U206 U 0.18508 0.60543 0.77906 0.0
O207 O 0.20769 0.63185 0.77802 0.0
O208 O 0.21156 0.60993 0.78153 0.0
C209 C 0.21875 0.6269 0.78078 0.0
C210 C 0.16437 0.59757 0.79479 0.0
C211 C 0.23067 0.63708 0.78906 0.0
C212 C 0.23584 0.64983 0.80594 0.0
C213 C 0.22429 0.63979 0.79822 0.0
C214 C 0.26021 0.65427 0.79547 0.0
C215 C 0.25396 0.65727 0.80464 0.0
C216 C 0.24865 0.64428 0.78775 0.0
C217 C 0.17726 0.59201 0.75087 0.0
C218 C 0.19244 0.60794 0.73572 0.0
C219 C 0.17468 0.57651 0.73514 0.0
C220 C 0.17065 0.57639 0.7454 0.0
C221 C 0.18532 0.59231 0.73012 0.0
C222 C 0.18847 0.6078 0.74601 0.0
C223 C 0.17145 0.59148 0.76142 0.0
O224 O 0.17282 0.58937 0.79253 0.0
O225 O 0.1693 0.61157 0.78931 0.0
O226 O 0.17224 0.60574 0.76493 0.0
O227 O 0.17652 0.58392 0.76802 0.0
H228 H 0.14098 0.58014 0.77986 0.0
H229 H 0.10937 0.56176 0.78148 0.0
H230 H 0.1137 0.57117 0.81385 0.0
H231 H 0.14536 0.58991 0.81209 0.0
H232 H 0.23058 0.65203 0.81285 0.0
H233 H 0.2104 0.63428 0.79936 0.0
H234 H 0.27405 0.65954 0.79427 0.0
H235 H 0.25377 0.64221 0.78074 0.0
H236 H 0.20056 0.62035 0.73208 0.0
H237 H 0.16927 0.56421 0.73112 0.0
H238 H 0.16205 0.56407 0.74901 0.0
H239 H 0.19383 0.62005 0.75009 0.0
C240 C 0.88388 0.45901 0.55666 0.0
C241 C 0.89468 0.46496 0.56525 0.0
C242 C 0.92036 0.47507 0.55458 0.0
C243 C 0.91275 0.47297 0.56421 0.0
C244 C 0.90947 0.4689 0.54599 0.0
C245 C 0.89135 0.46096 0.54704 0.0
U246 U 0.84459 0.43739 0.57367 0.0
O247 O 0.8214 0.4401 0.57501 0.0
O248 O 0.81843 0.41463 0.57134 0.0
C249 C 0.81072 0.4239 0.57225 0.0
C250 C 0.86486 0.45053 0.55781 0.0
C251 C 0.79855 0.42164 0.56407 0.0
C252 C 0.79299 0.42773 0.547 0.0
C253 C 0.80472 0.42948 0.55461 0.0
C254 C 0.76882 0.41004 0.55819 0.0
C255 C 0.77489 0.41807 0.54872 0.0
C256 C 0.78057 0.41183 0.56579 0.0
C257 C 0.85375 0.43316 0.60165 0.0
C258 C 0.83238 0.42416 0.6152 0.0
C259 C 0.86131 0.42897 0.61863 0.0
C260 C 0.86584 0.4333 0.60849 0.0
C261 C 0.84455 0.4244 0.62213 0.0
C262 C 0.83694 0.42846 0.60502 0.0
C263 C 0.85917 0.43832 0.59112 0.0
O264 O 0.85702 0.43391 0.56007 0.0
O265 O 0.85941 0.45925 0.56332 0.0
O266 O 0.85736 0.4512 0.58776 0.0
O267 O 0.85426 0.42553 0.58454 0.0
H268 H 0.88912 0.46337 0.57276 0.0
H269 H 0.92077 0.47732 0.57098 0.0
H270 H 0.91496 0.47042 0.53847 0.0
H271 H 0.88318 0.45637 0.54034 0.0
H272 H 0.79812 0.43425 0.53985 0.0
H273 H 0.8186 0.43712 0.55316 0.0
H274 H 0.75498 0.4023 0.55971 0.0
H275 H 0.7756 0.40564 0.57305 0.0
H276 H 0.81935 0.42057 0.61765 0.0
H277 H 0.87109 0.4296 0.62378 0.0
H278 H 0.87889 0.43696 0.60601 0.0
H279 H 0.82743 0.42825 0.5998 0.0
C280 C 0.44104 0.88056 0.88981 0.0
C281 C 0.44571 0.89149 0.89836 0.0
C282 C 0.4614 0.91696 0.88767 0.0
C283 C 0.45574 0.90952 0.8973 0.0
C284 C 0.45692 0.90594 0.87913 0.0
C285 C 0.44676 0.88786 0.88019 0.0
U286 U 0.42157 0.84167 0.90698 0.0
O287 O 0.39519 0.81898 0.90792 0.0
O288 O 0.41747 0.81524 0.90505 0.0
C289 C 0.40042 0.80795 0.90553 0.0
C290 C 0.43022 0.86162 0.89096 0.0
C291 C 0.39064 0.79572 0.89728 0.0
C292 C 0.37813 0.78988 0.88036 0.0
C293 C 0.38819 0.80171 0.88797 0.0
C294 C 0.37325 0.76596 0.89121 0.0
C295 C 0.37039 0.77184 0.88192 0.0
C296 C 0.38326 0.77781 0.89882 0.0
C297 C 0.43254 0.85114 0.93529 0.0
C298 C 0.41696 0.83086 0.94889 0.0
C299 C 0.44243 0.85883 0.95267 0.0
C300 C 0.44439 0.86291 0.94237 0.0
C301 C 0.42851 0.84291 0.95607 0.0
C302 C 0.41896 0.83497 0.93856 0.0
C303 C 0.4341 0.85642 0.92464 0.0
O304 O 0.43866 0.85372 0.89378 0.0
O305 O 0.41563 0.85642 0.896 0.0
O306 O 0.41997 0.85511 0.92061 0.0
O307 O 0.44218 0.85096 0.9186 0.0
H308 H 0.44153 0.88606 0.90586 0.0
H309 H 0.45921 0.91764 0.90403 0.0
H310 H 0.46101 0.9113 0.87161 0.0
H311 H 0.4433 0.87959 0.87352 0.0
H312 H 0.37604 0.79487 0.87336 0.0
H313 H 0.39383 0.81553 0.88666 0.0
H314 H 0.36774 0.75219 0.89261 0.0
H315 H 0.38511 0.77298 0.90596 0.0
H316 H 0.40607 0.81854 0.95128 0.0
H317 H 0.45173 0.86825 0.95798 0.0
H318 H 0.45499 0.87542 0.93996 0.0
H319 H 0.40969 0.82572 0.93316 0.0
C320 C 0.56969 0.4367 0.22371 0.0
C321 C 0.57017 0.44707 0.23191 0.0
C322 C 0.55496 0.45822 0.22189 0.0
C323 C 0.5629 0.45775 0.23101 0.0
C324 C 0.55455 0.4478 0.21368 0.0
C325 C 0.56188 0.43714 0.21459 0.0
U326 U 0.58947 0.41681 0.24035 0.0
O327 O 0.58465 0.39009 0.2413 0.0
O328 O 0.61086 0.41151 0.23764 0.0
C329 C 0.60056 0.39459 0.23841 0.0
C330 C 0.57694 0.42515 0.22476 0.0
C331 C 0.60176 0.38416 0.23009 0.0
C332 C 0.59311 0.3708 0.2134 0.0
C333 C 0.59217 0.38117 0.22112 0.0
C334 C 0.61353 0.36664 0.22345 0.0
C335 C 0.60374 0.36336 0.2145 0.0
C336 C 0.61251 0.37694 0.23119 0.0
C337 C 0.5957 0.42952 0.26849 0.0
C338 C 0.59776 0.41267 0.2823 0.0
C339 C 0.60609 0.44286 0.28504 0.0
C340 C 0.60205 0.44403 0.27495 0.0
C341 C 0.60376 0.42711 0.28886 0.0
C342 C 0.59385 0.41389 0.27218 0.0
C343 C 0.59048 0.43079 0.2581 0.0
O344 O 0.59367 0.433 0.22693 0.0
O345 O 0.56753 0.41125 0.23028 0.0
O346 O 0.57661 0.41686 0.25458 0.0
O347 O 0.60317 0.43812 0.25145 0.0
H348 H 0.57605 0.44678 0.23905 0.0
H349 H 0.5632 0.4654 0.23752 0.0
H350 H 0.54869 0.44799 0.20652 0.0
H351 H 0.56139 0.42918 0.20819 0.0
H352 H 0.58558 0.36868 0.20655 0.0
H353 H 0.5839 0.38677 0.22013 0.0
H354 H 0.62168 0.36095 0.22458 0.0
H355 H 0.62 0.37913 0.23807 0.0
H356 H 0.596 0.40043 0.28501 0.0
H357 H 0.61049 0.45415 0.28994 0.0
H358 H 0.60355 0.45618 0.27224 0.0
H359 H 0.5891 0.40256 0.26728 0.0
C360 C 0.14357 0.56826 0.55546 0.0
C361 C 0.13348 0.56704 0.56396 0.0
C362 C 0.10731 0.5545 0.55351 0.0
C363 C 0.11554 0.56024 0.563 0.0
C364 C 0.11752 0.55583 0.54499 0.0
C365 C 0.13553 0.56267 0.54597 0.0
U366 U 0.18218 0.58458 0.57283 0.0
O367 O 0.20343 0.57868 0.57361 0.0
O368 O 0.20943 0.6056 0.57145 0.0
C369 C 0.21549 0.59481 0.57168 0.0
C370 C 0.16233 0.57487 0.55664 0.0
C371 C 0.2277 0.59687 0.56354 0.0
C372 C 0.23512 0.5987 0.54567 0.0
C373 C 0.22342 0.59702 0.55332 0.0
C374 C 0.2554 0.6 0.55838 0.0
C375 C 0.25125 0.60016 0.5481 0.0
C376 C 0.24374 0.59838 0.56602 0.0
C377 C 0.1728 0.58648 0.60113 0.0
C378 C 0.19303 0.59095 0.61476 0.0
C379 C 0.16505 0.5883 0.61855 0.0
C380 C 0.16101 0.58637 0.60823 0.0
C381 C 0.18098 0.59032 0.62196 0.0
C382 C 0.18895 0.58901 0.6044 0.0
C383 C 0.16762 0.58318 0.59042 0.0
O384 O 0.17155 0.59119 0.55964 0.0
O385 O 0.16617 0.56446 0.56159 0.0
O386 O 0.16784 0.56982 0.58626 0.0
O387 O 0.17414 0.59691 0.58455 0.0
H388 H 0.13948 0.57119 0.57137 0.0
H389 H 0.10806 0.55915 0.56974 0.0
H390 H 0.11162 0.55168 0.53757 0.0
H391 H 0.14314 0.5635 0.53934 0.0
H392 H 0.23157 0.59899 0.53785 0.0
H393 H 0.21105 0.59582 0.55127 0.0
H394 H 0.26755 0.6008 0.56053 0.0
H395 H 0.24718 0.59817 0.57387 0.0
H396 H 0.20536 0.59239 0.61715 0.0
H397 H 0.15563 0.58808 0.62388 0.0
H398 H 0.14852 0.58451 0.60581 0.0
H399 H 0.19821 0.58913 0.59898 0.0
C400 C 0.5869 0.14008 0.88898 0.0
C401 C 0.5782 0.1298 0.89741 0.0
C402 C 0.56549 0.10372 0.88682 0.0
C403 C 0.56757 0.1118 0.89634 0.0
C404 C 0.57423 0.11411 0.87838 0.0
C405 C 0.58485 0.13216 0.87946 0.0
U406 U 0.60941 0.17911 0.9063 0.0
O407 O 0.63616 0.20131 0.90644 0.0
O408 O 0.61413 0.20582 0.90492 0.0
C409 C 0.63115 0.21266 0.90467 0.0
C410 C 0.59844 0.15894 0.89019 0.0
C411 C 0.64015 0.22459 0.89625 0.0
C412 C 0.65049 0.2297 0.87884 0.0
C413 C 0.64096 0.21819 0.88662 0.0
C414 C 0.65803 0.25412 0.89014 0.0
C415 C 0.65929 0.2478 0.88055 0.0
C416 C 0.64857 0.24259 0.89793 0.0
C417 C 0.60196 0.17037 0.93492 0.0
C418 C 0.60642 0.19086 0.94851 0.0
C419 C 0.60587 0.16394 0.95224 0.0
C420 C 0.60308 0.15931 0.942 0.0
C421 C 0.60755 0.17975 0.95562 0.0
C422 C 0.60375 0.18626 0.93822 0.0
C423 C 0.59893 0.16491 0.9242 0.0
O424 O 0.59087 0.1674 0.89366 0.0
O425 O 0.61337 0.16357 0.89467 0.0
O426 O 0.61232 0.16568 0.91944 0.0
O427 O 0.59031 0.1704 0.91872 0.0
H428 H 0.57976 0.13571 0.90483 0.0
H429 H 0.56125 0.10416 0.90301 0.0
H430 H 0.57277 0.10831 0.87093 0.0
H431 H 0.59151 0.13992 0.87288 0.0
H432 H 0.65104 0.22444 0.87151 0.0
H433 H 0.63444 0.2043 0.88519 0.0
H434 H 0.6648 0.26797 0.89172 0.0
H435 H 0.64808 0.24774 0.90532 0.0
H436 H 0.60778 0.20317 0.9509 0.0
H437 H 0.60641 0.15499 0.95755 0.0
H438 H 0.60171 0.14699 0.9396 0.0
H439 H 0.60306 0.19507 0.93286 0.0
C440 C 0.46042 0.58614 0.22391 0.0
C441 C 0.4679 0.5829 0.23237 0.0
C442 C 0.47581 0.56519 0.222 0.0
C443 C 0.4756 0.5726 0.23141 0.0
C444 C 0.46811 0.56828 0.21356 0.0
C445 C 0.46051 0.57873 0.21451 0.0
U446 U 0.43913 0.60483 0.24054 0.0
O447 O 0.44255 0.63103 0.24159 0.0
O448 O 0.41685 0.60874 0.23785 0.0
C449 C 0.4265 0.62575 0.23864 0.0
C450 C 0.45223 0.59692 0.22493 0.0
C451 C 0.42482 0.63567 0.23029 0.0
C452 C 0.43389 0.64957 0.21386 0.0
C453 C 0.43519 0.63958 0.22158 0.0
C454 C 0.41151 0.65147 0.22339 0.0
C455 C 0.4221 0.65574 0.2147 0.0
C456 C 0.41289 0.64155 0.23112 0.0
C457 C 0.43391 0.59217 0.26877 0.0
C458 C 0.43443 0.60825 0.2839 0.0
C459 C 0.42169 0.57695 0.28455 0.0
C460 C 0.42543 0.57668 0.27429 0.0
C461 C 0.42649 0.59278 0.28955 0.0
C462 C 0.43809 0.60795 0.27359 0.0
C463 C 0.43913 0.59154 0.25823 0.0
O464 O 0.43554 0.58837 0.22716 0.0
O465 O 0.46111 0.61126 0.23032 0.0
O466 O 0.42641 0.58361 0.25162 0.0
O467 O 0.45251 0.60586 0.25472 0.0
H468 H 0.46775 0.58832 0.23974 0.0
H469 H 0.48119 0.57024 0.23808 0.0
H470 H 0.46816 0.56281 0.2062 0.0
H471 H 0.45472 0.58102 0.20791 0.0
H472 H 0.4424 0.65277 0.20735 0.0
H473 H 0.44446 0.6351 0.2208 0.0
H474 H 0.40209 0.65573 0.22421 0.0
H475 H 0.4047 0.63855 0.23777 0.0
H476 H 0.43841 0.62067 0.28752 0.0
H477 H 0.41524 0.56476 0.28862 0.0
H478 H 0.42201 0.56436 0.2707 0.0
H479 H 0.44458 0.62009 0.26948 0.0
H480 H 0.57641 0.33768 0.20385 0.0
H481 H 0.57726 0.31817 0.19098 0.0
H482 H 0.6331 0.34321 0.19425 0.0
H483 H 0.63239 0.36303 0.20701 0.0
H484 H 0.62273 0.33737 0.17424 0.0
H485 H 0.6081 0.30489 0.20513 0.0
H486 H 0.59136 0.29218 0.22079 0.0
H487 H 0.54481 0.26184 0.20327 0.0
H488 H 0.56123 0.27457 0.1875 0.0
H489 H 0.63197 0.27263 0.14756 0.0
H490 H 0.63288 0.29283 0.16058 0.0
H491 H 0.57668 0.26683 0.16039 0.0
H492 H 0.5757 0.24648 0.14748 0.0
H493 H 0.58828 0.27347 0.17918 0.0
H494 H 0.60247 0.30639 0.14834 0.0
H495 H 0.61895 0.31925 0.13262 0.0
H496 H 0.66595 0.34884 0.14989 0.0
H497 H 0.64979 0.33597 0.16572 0.0
C498 C 0.58889 0.33917 0.20175 0.0
C499 C 0.60433 0.35187 0.20646 0.0
C500 C 0.58934 0.32791 0.19446 0.0
C501 C 0.60522 0.32912 0.19175 0.0
C502 C 0.6207 0.34203 0.19627 0.0
C503 C 0.62026 0.35324 0.2036 0.0
C504 C 0.6056 0.31678 0.18427 0.0
C505 C 0.6154 0.3234 0.17537 0.0
C506 C 0.59576 0.29856 0.18567 0.0
C507 C 0.58587 0.29081 0.19514 0.0
C508 C 0.59427 0.29561 0.20462 0.0
C509 C 0.58484 0.28839 0.21352 0.0
C510 C 0.56703 0.27624 0.21303 0.0
C511 C 0.55861 0.27127 0.20364 0.0
C512 C 0.56797 0.27847 0.19472 0.0
C513 C 0.61982 0.27128 0.15027 0.0
C514 C 0.60376 0.25799 0.14648 0.0
C515 C 0.62035 0.28284 0.1577 0.0
C516 C 0.60485 0.28151 0.16137 0.0
C517 C 0.58881 0.26811 0.15769 0.0
C518 C 0.58826 0.25647 0.15033 0.0
C519 C 0.60528 0.29401 0.16907 0.0
C520 C 0.59564 0.28743 0.17803 0.0
C521 C 0.61523 0.31226 0.1677 0.0
C522 C 0.62495 0.32008 0.1582 0.0
C523 C 0.61635 0.31554 0.14878 0.0
C524 C 0.62562 0.32285 0.13985 0.0
C525 C 0.64349 0.33482 0.14025 0.0
C526 C 0.65211 0.33955 0.14959 0.0
C527 C 0.6429 0.33226 0.15854 0.0
H528 H 0.65065 0.34047 0.13333 0.0
H529 H 0.55975 0.27066 0.21993 0.0
H530 H 0.37621 0.61828 0.48878 0.0
H531 H 0.35739 0.61976 0.50188 0.0
H532 H 0.31197 0.58467 0.48436 0.0
H533 H 0.33071 0.58325 0.47122 0.0
H534 H 0.3086 0.6107 0.49166 0.0
H535 H 0.32503 0.57091 0.50526 0.0
H536 H 0.34554 0.56148 0.51069 0.0
H537 H 0.36809 0.6032 0.53249 0.0
H538 H 0.34786 0.61303 0.52709 0.0
H539 H 0.24355 0.58287 0.52986 0.0
H540 H 0.26385 0.58463 0.51674 0.0
H541 H 0.30714 0.62193 0.53488 0.0
H542 H 0.2869 0.6205 0.54798 0.0
H543 H 0.31252 0.59632 0.52748 0.0
H544 H 0.29503 0.63524 0.51434 0.0
H545 H 0.27427 0.64437 0.50896 0.0
H546 H 0.2534 0.60392 0.48633 0.0
H547 H 0.27388 0.59439 0.49168 0.0
C548 C 0.36221 0.61079 0.48776 0.0
C549 C 0.35495 0.60062 0.47898 0.0
C550 C 0.35146 0.61166 0.49525 0.0
C551 C 0.33324 0.60217 0.49416 0.0
C552 C 0.32599 0.59213 0.48535 0.0
C553 C 0.33672 0.59135 0.47784 0.0
C554 C 0.32169 0.60266 0.50217 0.0
C555 C 0.30932 0.60736 0.49947 0.0
C556 C 0.32292 0.59874 0.51242 0.0
C557 C 0.33505 0.59281 0.5157 0.0
C558 C 0.33445 0.57816 0.51116 0.0
C559 C 0.34601 0.57272 0.51424 0.0
C560 C 0.35814 0.58177 0.52191 0.0
C561 C 0.35871 0.59623 0.52653 0.0
C562 C 0.34719 0.60173 0.52347 0.0
C563 C 0.25736 0.59166 0.53101 0.0
C564 C 0.26357 0.60156 0.53999 0.0
C565 C 0.26896 0.59261 0.52351 0.0
C566 C 0.287 0.60351 0.52481 0.0
C567 C 0.29327 0.61341 0.53374 0.0
C568 C 0.28167 0.61251 0.54123 0.0
C569 C 0.29934 0.6042 0.51695 0.0
C570 C 0.31185 0.59973 0.51968 0.0
C571 C 0.29821 0.60828 0.50673 0.0
C572 C 0.28589 0.614 0.50348 0.0
C573 C 0.28592 0.6282 0.50828 0.0
C574 C 0.27422 0.63346 0.50522 0.0
C575 C 0.26249 0.6247 0.49732 0.0
C576 C 0.26248 0.61068 0.49245 0.0
C577 C 0.27414 0.60535 0.49549 0.0
H578 H 0.25345 0.6288 0.49497 0.0
H579 H 0.36708 0.57754 0.52428 0.0
H580 H 0.68218 0.24476 0.86801 0.0
H581 H 0.70144 0.26546 0.85533 0.0
H582 H 0.68112 0.29934 0.86234 0.0
H583 H 0.66154 0.2785 0.87496 0.0
H584 H 0.68482 0.29604 0.84155 0.0
H585 H 0.71926 0.309 0.87177 0.0
H586 H 0.73179 0.30215 0.88648 0.0
H587 H 0.75787 0.28423 0.86651 0.0
H588 H 0.74528 0.29073 0.85168 0.0
H589 H 0.75226 0.36887 0.81533 0.0
H590 H 0.73167 0.34987 0.82823 0.0
H591 H 0.75341 0.3161 0.82609 0.0
H592 H 0.77421 0.33524 0.81341 0.0
H593 H 0.74865 0.32067 0.84505 0.0
H594 H 0.71348 0.30622 0.81488 0.0
H595 H 0.70061 0.31223 0.80001 0.0
H596 H 0.67569 0.33208 0.81951 0.0
H597 H 0.68861 0.32638 0.8345 0.0
C598 C 0.68162 0.2565 0.86677 0.0
C599 C 0.67036 0.26002 0.87251 0.0
C600 C 0.69274 0.26838 0.85957 0.0
C601 C 0.69284 0.28402 0.85798 0.0
C602 C 0.68128 0.28737 0.86349 0.0
C603 C 0.6702 0.27553 0.87074 0.0
C604 C 0.70531 0.29698 0.85072 0.0
C605 C 0.6988 0.30164 0.84237 0.0
C606 C 0.7235 0.30401 0.85172 0.0
C607 C 0.7312 0.30022 0.86062 0.0
C608 C 0.72756 0.30347 0.87052 0.0
C609 C 0.73469 0.29967 0.87888 0.0
C610 C 0.74559 0.29272 0.87743 0.0
C611 C 0.74941 0.2896 0.86762 0.0
C612 C 0.7423 0.29336 0.85924 0.0
C613 C 0.75258 0.35736 0.81761 0.0
C614 C 0.76484 0.35354 0.81338 0.0
C615 C 0.74079 0.34648 0.82496 0.0
C616 C 0.74082 0.33141 0.82805 0.0
C617 C 0.75314 0.32766 0.82386 0.0
C618 C 0.76504 0.33862 0.81662 0.0
C619 C 0.7282 0.31956 0.83573 0.0
C620 C 0.73469 0.31514 0.8442 0.0
C621 C 0.70998 0.31267 0.8348 0.0
C622 C 0.70216 0.31604 0.8258 0.0
C623 C 0.70536 0.31198 0.81599 0.0
C624 C 0.69804 0.31532 0.80754 0.0
C625 C 0.68738 0.32258 0.80881 0.0
C626 C 0.68397 0.32648 0.81854 0.0
C627 C 0.69128 0.32319 0.82701 0.0
H628 H 0.68172 0.32515 0.80226 0.0
H629 H 0.75109 0.28979 0.88391 0.0
H630 H 0.41824 0.68427 0.21708 0.0
H631 H 0.41722 0.70287 0.2039 0.0
H632 H 0.42324 0.6715 0.18094 0.0
H633 H 0.42392 0.65257 0.19407 0.0
H634 H 0.44527 0.70631 0.17801 0.0
H635 H 0.38436 0.6683 0.18438 0.0
H636 H 0.35784 0.65323 0.19485 0.0
H637 H 0.36447 0.70241 0.20455 0.0
H638 H 0.39119 0.71779 0.19425 0.0
H639 H 0.4269 0.74209 0.13535 0.0
H640 H 0.42567 0.72207 0.14833 0.0
H641 H 0.41742 0.75197 0.17131 0.0
H642 H 0.41799 0.77173 0.1583 0.0
H643 H 0.39626 0.71765 0.1742 0.0
H644 H 0.45725 0.75573 0.16819 0.0
H645 H 0.48396 0.77105 0.15788 0.0
H646 H 0.47743 0.7221 0.14777 0.0
H647 H 0.45053 0.70647 0.15791 0.0
C648 C 0.41907 0.68113 0.20923 0.0
C649 C 0.42112 0.66687 0.20665 0.0
C650 C 0.41854 0.69183 0.2017 0.0
C651 C 0.42003 0.68849 0.19144 0.0
C652 C 0.4221 0.67431 0.18882 0.0
C653 C 0.42256 0.66356 0.19634 0.0
C654 C 0.41989 0.70009 0.18345 0.0
C655 C 0.43444 0.70859 0.17707 0.0
C656 C 0.40596 0.70341 0.18242 0.0
C657 C 0.38988 0.6942 0.18862 0.0
C658 C 0.38025 0.67591 0.18882 0.0
C659 C 0.36517 0.66731 0.19471 0.0
C660 C 0.3595 0.67686 0.20039 0.0
C661 C 0.36889 0.69503 0.20016 0.0
C662 C 0.384 0.7037 0.19429 0.0
C663 C 0.42462 0.74431 0.14315 0.0
C664 C 0.42257 0.75855 0.14578 0.0
C665 C 0.42409 0.73295 0.15058 0.0
C666 C 0.42168 0.73565 0.16081 0.0
C667 C 0.41937 0.74968 0.16346 0.0
C668 C 0.41986 0.76105 0.15603 0.0
C669 C 0.42164 0.72387 0.16875 0.0
C670 C 0.40707 0.71535 0.17513 0.0
C671 C 0.43559 0.72057 0.16981 0.0
C672 C 0.45179 0.72993 0.16373 0.0
C673 C 0.46144 0.74823 0.1637 0.0
C674 C 0.47662 0.75697 0.1579 0.0
C675 C 0.48236 0.74755 0.15215 0.0
C676 C 0.47295 0.72937 0.15221 0.0
C677 C 0.45775 0.72057 0.15799 0.0
H678 H 0.49412 0.75435 0.14767 0.0
H679 H 0.34781 0.67018 0.20494 0.0
H680 H 0.74508 0.41969 0.55115 0.0
H681 H 0.72486 0.41795 0.53805 0.0
H682 H 0.75628 0.41195 0.51514 0.0
H683 H 0.77649 0.41348 0.52823 0.0
H684 H 0.74751 0.43585 0.50977 0.0
H685 H 0.71775 0.37746 0.52231 0.0
H686 H 0.70482 0.35466 0.53534 0.0
H687 H 0.66913 0.3719 0.54372 0.0
H688 H 0.68202 0.39498 0.53083 0.0
H689 H 0.68806 0.41393 0.46926 0.0
H690 H 0.70686 0.41256 0.48223 0.0
H691 H 0.67515 0.41695 0.50561 0.0
H692 H 0.65579 0.41757 0.49266 0.0
H693 H 0.68403 0.39333 0.51064 0.0
H694 H 0.71415 0.45211 0.49853 0.0
H695 H 0.7271 0.47515 0.48564 0.0
H696 H 0.76216 0.45746 0.47663 0.0
H697 H 0.74925 0.43415 0.48939 0.0
C698 C 0.74757 0.41774 0.54335 0.0
C699 C 0.7624 0.41668 0.54075 0.0
C700 C 0.73601 0.41679 0.53586 0.0
C701 C 0.73897 0.41466 0.52563 0.0
C702 C 0.75376 0.41361 0.523 0.0
C703 C 0.76533 0.41455 0.53048 0.0
C704 C 0.72691 0.41402 0.51764 0.0
C705 C 0.73367 0.42638 0.50987 0.0
C706 C 0.70878 0.40195 0.51793 0.0
C707 C 0.70097 0.38805 0.52567 0.0
C708 C 0.70724 0.37648 0.52699 0.0
C709 C 0.6999 0.36349 0.53434 0.0
C710 C 0.68619 0.36186 0.54037 0.0
C711 C 0.67977 0.37319 0.53905 0.0
C712 C 0.68707 0.38622 0.53171 0.0
C713 C 0.6849 0.41434 0.47716 0.0
C714 C 0.67041 0.41591 0.47991 0.0
C715 C 0.69579 0.41375 0.48457 0.0
C716 C 0.69258 0.41493 0.49489 0.0
C717 C 0.67794 0.41611 0.49769 0.0
C718 C 0.66697 0.41663 0.49027 0.0
C719 C 0.70464 0.41516 0.50276 0.0
C720 C 0.69788 0.40276 0.51052 0.0
C721 C 0.72277 0.42723 0.50249 0.0
C722 C 0.73062 0.44129 0.49485 0.0
C723 C 0.72453 0.45305 0.49375 0.0
C724 C 0.73188 0.46617 0.48648 0.0
C725 C 0.74541 0.46774 0.4803 0.0
C726 C 0.75166 0.45622 0.48141 0.0
C727 C 0.74434 0.44306 0.48867 0.0
H728 H 0.75108 0.4779 0.47467 0.0
H729 H 0.68052 0.35179 0.54605 0.0
H730 H 0.28524 0.68745 0.80243 0.0
H731 H 0.30538 0.70572 0.81573 0.0
H732 H 0.27074 0.67073 0.83849 0.0
H733 H 0.25061 0.6522 0.82522 0.0
H734 H 0.28195 0.70458 0.84322 0.0
H735 H 0.3078 0.67092 0.8327 0.0
H736 H 0.31972 0.65848 0.82048 0.0
H737 H 0.35935 0.70986 0.81183 0.0
H738 H 0.34751 0.72263 0.8239 0.0
H739 H 0.3398 0.74114 0.88465 0.0
H740 H 0.32068 0.72083 0.87169 0.0
H741 H 0.35548 0.75386 0.84833 0.0
H742 H 0.3751 0.77392 0.86129 0.0
H743 H 0.3441 0.72035 0.84407 0.0
H744 H 0.31792 0.75407 0.85407 0.0
H745 H 0.30602 0.7668 0.86611 0.0
H746 H 0.267 0.71563 0.87551 0.0
H747 H 0.27883 0.7026 0.86362 0.0
C748 C 0.28199 0.68348 0.81025 0.0
C749 C 0.26631 0.6683 0.81275 0.0
C750 C 0.29351 0.69397 0.81785 0.0
C751 C 0.28963 0.6895 0.8281 0.0
C752 C 0.27397 0.67443 0.83063 0.0
C753 C 0.26245 0.66389 0.82303 0.0
C754 C 0.30172 0.7008 0.83617 0.0
C755 C 0.29547 0.70781 0.84351 0.0
C756 C 0.31947 0.70536 0.83638 0.0
C757 C 0.32666 0.69773 0.82913 0.0
C758 C 0.31897 0.67957 0.82813 0.0
C759 C 0.32573 0.67246 0.82124 0.0
C760 C 0.34026 0.68337 0.81536 0.0
C761 C 0.34808 0.70142 0.81638 0.0
C762 C 0.34136 0.7086 0.82325 0.0
C763 C 0.34356 0.74399 0.87677 0.0
C764 C 0.35899 0.75922 0.87402 0.0
C765 C 0.33249 0.73244 0.86936 0.0
C766 C 0.3365 0.73595 0.85903 0.0
C767 C 0.35207 0.75093 0.85625 0.0
C768 C 0.3632 0.76246 0.86367 0.0
C769 C 0.32432 0.72415 0.85112 0.0
C770 C 0.33056 0.71707 0.84381 0.0
C771 C 0.30656 0.71956 0.85091 0.0
C772 C 0.29937 0.72737 0.85803 0.0
C773 C 0.30688 0.74554 0.85876 0.0
C774 C 0.30014 0.7528 0.86555 0.0
C775 C 0.28579 0.74203 0.87159 0.0
C776 C 0.27813 0.72396 0.87084 0.0
C777 C 0.28484 0.71662 0.86407 0.0
H778 H 0.28059 0.74768 0.87684 0.0
H779 H 0.34548 0.67784 0.81004 0.0
H780 H 0.46123 0.93527 0.12207 0.0
H781 H 0.47477 0.96692 0.12253 0.0
H782 H 0.51389 0.97025 0.14322 0.0
H783 H 0.50053 0.93853 0.1427 0.0
H784 H 0.50163 0.99208 0.14874 0.0
H785 H 0.52382 0.9791 0.11876 0.0
H786 H 0.52178 0.96435 0.10248 0.0
H787 H 0.4924 0.98594 0.08971 0.0
H788 H 0.49404 1.00062 0.10596 0.0
H789 H 0.56015 0.08313 0.14237 0.0
H790 H 0.54687 0.05148 0.14331 0.0
H791 H 0.5088 0.04527 0.12089 0.0
H792 H 0.52211 0.07686 0.11986 0.0
H793 H 0.52144 0.02481 0.11651 0.0
H794 H 0.49861 0.03733 0.14646 0.0
H795 H 0.50023 0.05191 0.16273 0.0
H796 H 0.53038 0.03122 0.17557 0.0
H797 H 0.52913 0.0167 0.15932 0.0
C798 C 0.47277 0.94272 0.12668 0.0
C799 C 0.47989 0.93436 0.13227 0.0
C800 C 0.48046 0.96081 0.12696 0.0
C801 C 0.49547 0.97095 0.1328 0.0
C802 C 0.50232 0.96266 0.13865 0.0
C803 C 0.49463 0.94453 0.13837 0.0
C804 C 0.5042 0.99022 0.13261 0.0
C805 C 0.50619 0.99929 0.14172 0.0
C806 C 0.50983 0.99956 0.12342 0.0
C807 C 0.50892 0.99083 0.11361 0.0
C808 C 0.51681 0.9806 0.1125 0.0
C809 C 0.51574 0.97226 0.10328 0.0
C810 C 0.50693 0.97417 0.09507 0.0
C811 C 0.4992 0.98446 0.09607 0.0
C812 C 0.50021 0.9928 0.10529 0.0
C813 C 0.54884 0.075 0.13772 0.0
C814 C 0.54218 0.08249 0.13104 0.0
C815 C 0.54125 0.05692 0.13827 0.0
C816 C 0.52672 0.04597 0.13224 0.0
C817 C 0.52002 0.05344 0.12559 0.0
C818 C 0.52766 0.07149 0.125 0.0
C819 C 0.51871 0.02674 0.13264 0.0
C820 C 0.5169 0.01766 0.12355 0.0
C821 C 0.51321 0.01741 0.14185 0.0
C822 C 0.51393 0.02608 0.15164 0.0
C823 C 0.5057 0.036 0.15273 0.0
C824 C 0.50653 0.04424 0.16195 0.0
C825 C 0.51544 0.04253 0.17017 0.0
C826 C 0.5235 0.03255 0.16919 0.0
C827 C 0.52273 0.0243 0.15998 0.0
H828 H 0.51607 0.04892 0.17731 0.0
H829 H 0.50612 0.96771 0.08794 0.0
H830 H 0.57294 0.50024 0.45584 0.0
H831 H 0.55519 0.5141 0.45718 0.0
H832 H 0.5194 0.47313 0.47694 0.0
H833 H 0.537 0.45903 0.47551 0.0
H834 H 0.50262 0.4807 0.46196 0.0
H835 H 0.5471 0.51193 0.48682 0.0
H836 H 0.57724 0.52884 0.49322 0.0
H837 H 0.5884 0.5691 0.47169 0.0
H838 H 0.55838 0.55232 0.46505 0.0
H839 H 0.45583 0.52299 0.47608 0.0
H840 H 0.4735 0.50901 0.47693 0.0
H841 H 0.51309 0.54986 0.45863 0.0
H842 H 0.49578 0.56422 0.45803 0.0
H843 H 0.52756 0.54176 0.47382 0.0
H844 H 0.48421 0.51041 0.4483 0.0
H845 H 0.45444 0.49364 0.44134 0.0
H846 H 0.44152 0.45378 0.46347 0.0
H847 H 0.47117 0.47045 0.47065 0.0
C848 C 0.56125 0.49414 0.46044 0.0
C849 C 0.55636 0.47854 0.46557 0.0
C850 C 0.5512 0.50214 0.46126 0.0
C851 C 0.53606 0.49473 0.46723 0.0
C852 C 0.53107 0.4791 0.47232 0.0
C853 C 0.54119 0.47113 0.47155 0.0
C854 C 0.52535 0.50319 0.46801 0.0
C855 C 0.50796 0.49394 0.46472 0.0
C856 C 0.53248 0.52062 0.47138 0.0
C857 C 0.55052 0.53079 0.47538 0.0
C858 C 0.55601 0.52433 0.4834 0.0
C859 C 0.57307 0.5339 0.48708 0.0
C860 C 0.58474 0.55001 0.48285 0.0
C861 C 0.57936 0.55661 0.47495 0.0
C862 C 0.56231 0.54708 0.47123 0.0
C863 C 0.46841 0.52913 0.47236 0.0
C864 C 0.47435 0.54468 0.46694 0.0
C865 C 0.47842 0.52103 0.47277 0.0
C866 C 0.49451 0.52825 0.46772 0.0
C867 C 0.50068 0.544 0.46254 0.0
C868 C 0.4907 0.55212 0.46213 0.0
C869 C 0.50483 0.5193 0.4677 0.0
C870 C 0.52215 0.52846 0.47113 0.0
C871 C 0.49768 0.50183 0.4644 0.0
C872 C 0.47985 0.49177 0.46009 0.0
C873 C 0.47498 0.49814 0.45174 0.0
C874 C 0.45813 0.48864 0.44774 0.0
C875 C 0.44608 0.47268 0.45198 0.0
C876 C 0.45086 0.46616 0.46021 0.0
C877 C 0.46768 0.47563 0.46424 0.0
H878 H 0.43304 0.46534 0.44887 0.0
H879 H 0.59794 0.55741 0.48571 0.0
H880 H 0.94638 0.45496 0.78759 0.0
H881 H 0.97808 0.47304 0.78869 0.0
H882 H 0.97275 0.50506 0.81152 0.0
H883 H 0.94093 0.48719 0.8103 0.0
H884 H 0.99663 0.52448 0.79695 0.0
H885 H 0.98495 0.47649 0.81833 0.0
H886 H 0.97236 0.44556 0.82274 0.0
H887 H 1.00129 0.43902 0.79867 0.0
H888 H 1.01388 0.46987 0.79401 0.0
H889 H 0.08671 0.57047 0.80962 0.0
H890 H 0.055 0.55233 0.81079 0.0
H891 H 0.05595 0.51625 0.7891 0.0
H892 H 0.08768 0.53396 0.78817 0.0
H893 H 0.03411 0.49918 0.80422 0.0
H894 H 0.0444 0.54615 0.78213 0.0
H895 H 0.05675 0.57683 0.7772 0.0
H896 H 0.03026 0.58503 0.80205 0.0
H897 H 0.01793 0.55444 0.80722 0.0
C898 C 0.95194 0.4659 0.79281 0.0
C899 C 0.94115 0.46965 0.79885 0.0
C900 C 0.97006 0.47613 0.7935 0.0
C901 C 0.97778 0.49029 0.80027 0.0
C902 C 0.96706 0.49414 0.80628 0.0
C903 C 0.9489 0.48386 0.80563 0.0
C904 C 0.99704 0.50123 0.80089 0.0
C905 C 1.00483 0.51902 0.79872 0.0
C906 C 1.00772 0.494 0.80295 0.0
C907 C 1.00025 0.47547 0.80577 0.0
C908 C 0.98853 0.46843 0.81393 0.0
C909 C 0.98141 0.45092 0.81648 0.0
C910 C 0.98599 0.44033 0.81097 0.0
C911 C 0.99774 0.44724 0.80292 0.0
C912 C 1.00489 0.46474 0.80033 0.0
C913 C 0.0802 0.55856 0.8052 0.0
C914 C 0.08974 0.55373 0.79876 0.0
C915 C 0.06205 0.54829 0.8058 0.0
C916 C 0.05306 0.53305 0.79993 0.0
C917 C 0.06258 0.528 0.79367 0.0
C918 C 0.08072 0.53823 0.79308 0.0
C919 C 0.03373 0.52243 0.8002 0.0
C920 C 0.02592 0.50468 0.80253 0.0
C921 C 0.02303 0.52968 0.79823 0.0
C922 C 0.0304 0.54806 0.79513 0.0
C923 C 0.04132 0.55454 0.7866 0.0
C924 C 0.0483 0.5719 0.78375 0.0
C925 C 0.04434 0.58289 0.78932 0.0
C926 C 0.03335 0.57652 0.79775 0.0
C927 C 0.02635 0.55916 0.80064 0.0
H928 H 0.04975 0.59633 0.78711 0.0
H929 H 0.98046 0.42677 0.81296 0.0
H930 H 0.08416 0.52597 0.5424 0.0
H931 H 0.05243 0.51271 0.54167 0.0
H932 H 0.0553 0.55234 0.56197 0.0
H933 H 0.087 0.56576 0.56266 0.0
H934 H 0.03075 0.52018 0.5679 0.0
H935 H 0.04703 0.55275 0.53683 0.0
H936 H 0.06145 0.56184 0.52018 0.0
H937 H 0.03157 0.50929 0.50914 0.0
H938 H 0.01714 0.49984 0.52578 0.0
H939 H 0.94505 0.50465 0.56406 0.0
H940 H 0.97671 0.51802 0.56305 0.0
H941 H 0.97092 0.47823 0.54187 0.0
H942 H 0.93915 0.46485 0.54278 0.0
H943 H 0.99686 0.50939 0.53614 0.0
H944 H 0.98036 0.47661 0.56684 0.0
H945 H 0.96596 0.46693 0.58345 0.0
H946 H 0.99636 0.51894 0.59521 0.0
H947 H 1.01077 0.52899 0.57862 0.0
C948 C 0.07807 0.53202 0.54658 0.0
C949 C 0.08813 0.54691 0.5526 0.0
C950 C 0.05992 0.5244 0.54617 0.0
C951 C 0.0515 0.53158 0.55173 0.0
C952 C 0.06152 0.54654 0.55765 0.0
C953 C 0.07963 0.55416 0.55806 0.0
C954 C 0.03221 0.5232 0.55168 0.0
C955 C 0.02336 0.51803 0.56097 0.0
C956 C 0.02252 0.51989 0.5426 0.0
C957 C 0.03114 0.52556 0.53258 0.0
C958 C 0.04364 0.54311 0.53088 0.0
C959 C 0.05179 0.54833 0.52144 0.0
C960 C 0.04746 0.53614 0.51362 0.0
C961 C 0.03493 0.51871 0.51521 0.0
C962 C 0.02675 0.51342 0.52464 0.0
C963 C 0.95052 0.49871 0.55921 0.0
C964 C 0.93961 0.48361 0.55356 0.0
C965 C 0.96862 0.50637 0.55864 0.0
C966 C 0.9762 0.49896 0.55252 0.0
C967 C 0.96536 0.48415 0.54666 0.0
C968 C 0.94722 0.47654 0.54717 0.0
C969 C 0.99542 0.50657 0.55239 0.0
C970 C 1.00425 0.51152 0.54307 0.0
C971 C 1.00511 0.50959 0.56144 0.0
C972 C 0.99653 0.50358 0.57145 0.0
C973 C 0.98388 0.48601 0.57294 0.0
C974 C 0.97573 0.48045 0.58236 0.0
C975 C 0.98021 0.49232 0.59038 0.0
C976 C 0.99288 0.50976 0.58899 0.0
C977 C 1.00106 0.51539 0.57959 0.0
H978 H 0.97388 0.48799 0.59766 0.0
H979 H 0.05379 0.54021 0.50631 0.0
H980 H 0.49062 0.93593 0.87611 0.0
H981 H 0.50823 0.96767 0.87479 0.0
H982 H 0.47356 0.97305 0.89555 0.0
H983 H 0.45577 0.94138 0.89678 0.0
H984 H 0.48204 0.99488 0.87933 0.0
H985 H 0.51177 0.97921 0.90383 0.0
H986 H 0.52609 0.96346 0.91011 0.0
H987 H 0.56432 0.98558 0.88645 0.0
H988 H 0.55007 1.00129 0.87993 0.0
H989 H 0.53369 0.08246 0.89548 0.0
H990 H 0.51611 0.05077 0.89438 0.0
H991 H 0.55438 0.04978 0.87457 0.0
H992 H 0.57231 0.0815 0.87587 0.0
H993 H 0.5445 0.02563 0.88914 0.0
H994 H 0.51568 0.0427 0.8652 0.0
H995 H 0.50139 0.05857 0.85905 0.0
H996 H 0.46149 0.03394 0.88163 0.0
H997 H 0.47568 0.0181 0.88802 0.0
C998 C 0.48667 0.94388 0.88032 0.0
C999 C 0.47187 0.93617 0.88659 0.0
C1000 C 0.4968 0.962 0.87961 0.0
C1001 C 0.49228 0.97271 0.88515 0.0
C1002 C 0.4773 0.96503 0.89123 0.0
C1003 C 0.46723 0.94694 0.89199 0.0
C1004 C 0.50327 0.99194 0.88474 0.0
C1005 C 0.49566 1.00163 0.88156 0.0
C1006 C 0.52114 1.00069 0.88741 0.0
C1007 C 0.52973 0.99126 0.89132 0.0
C1008 C 0.52313 0.98059 0.89991 0.0
C1009 C 0.53126 0.9717 0.90352 0.0
C1010 C 0.54607 0.97348 0.89866 0.0
C1011 C 0.55282 0.98419 0.89019 0.0
C1012 C 0.54473 0.9931 0.88653 0.0
C1013 C 0.53841 0.0755 0.89091 0.0
C1014 C 0.55441 0.08451 0.88577 0.0
C1015 C 0.52826 0.0574 0.89021 0.0
C1016 C 0.53384 0.04791 0.88431 0.0
C1017 C 0.54979 0.05685 0.87914 0.0
C1018 C 0.55995 0.07498 0.87982 0.0
C1019 C 0.52325 0.02863 0.88379 0.0
C1020 C 0.53093 0.01891 0.88682 0.0
C1021 C 0.50544 0.01985 0.88097 0.0
C1022 C 0.49684 0.02933 0.87714 0.0
C1023 C 0.50394 0.04077 0.86891 0.0
C1024 C 0.49584 0.04974 0.86537 0.0
C1025 C 0.48057 0.04729 0.86997 0.0
C1026 C 0.47333 0.03584 0.87809 0.0
C1027 C 0.48139 0.02685 0.88166 0.0
H1028 H 0.47431 0.05425 0.86722 0.0
H1029 H 0.55235 0.96659 0.90148 0.0
H1030 H 0.50713 0.57181 0.22966 0.0
H1031 H 0.5203 0.55341 0.22855 0.0
H1032 H 0.47634 0.5155 0.21108 0.0
H1033 H 0.46297 0.5338 0.21225 0.0
H1034 H 0.48538 0.50071 0.22657 0.0
H1035 H 0.51377 0.54049 0.19934 0.0
H1036 H 0.53029 0.56928 0.19132 0.0
H1037 H 0.5734 0.58291 0.21136 0.0
H1038 H 0.55703 0.55428 0.2196 0.0
H1039 H 0.52389 0.45009 0.21298 0.0
H1040 H 0.51042 0.46821 0.21199 0.0
H1041 H 0.55413 0.50942 0.22808 0.0
H1042 H 0.56791 0.49157 0.22884 0.0
H1043 H 0.54455 0.52205 0.21243 0.0
H1044 H 0.51612 0.48338 0.24022 0.0
H1045 H 0.49977 0.45497 0.24869 0.0
H1046 H 0.457 0.43967 0.22811 0.0
H1047 H 0.4732 0.46792 0.21942 0.0
C1048 C 0.50025 0.55954 0.2256 0.0
C1049 C 0.48402 0.55424 0.22104 0.0
C1050 C 0.50784 0.5491 0.22491 0.0
C1051 C 0.49935 0.53316 0.21967 0.0
C1052 C 0.48312 0.52779 0.21513 0.0
C1053 C 0.47557 0.5383 0.21575 0.0
C1054 C 0.5073 0.52196 0.21913 0.0
C1055 C 0.49819 0.50525 0.22332 0.0
C1056 C 0.52419 0.52807 0.21511 0.0
C1057 C 0.5341 0.54529 0.21015 0.0
C1058 C 0.52671 0.54967 0.20209 0.0
C1059 C 0.53606 0.56596 0.1975 0.0
C1060 C 0.55287 0.57793 0.20084 0.0
C1061 C 0.56037 0.57363 0.20878 0.0
C1062 C 0.55107 0.55737 0.21341 0.0
C1063 C 0.53074 0.46308 0.2162 0.0
C1064 C 0.54695 0.46936 0.22103 0.0
C1065 C 0.52295 0.47336 0.21571 0.0
C1066 C 0.53117 0.49009 0.22007 0.0
C1067 C 0.54752 0.49653 0.2247 0.0
C1068 C 0.55531 0.48626 0.2252 0.0
C1069 C 0.52267 0.50082 0.21992 0.0
C1070 C 0.53169 0.51746 0.21561 0.0
C1071 C 0.50573 0.49468 0.22388 0.0
C1072 C 0.49595 0.47769 0.22909 0.0
C1073 C 0.50329 0.4739 0.23744 0.0
C1074 C 0.49404 0.45784 0.24229 0.0
C1075 C 0.47738 0.44551 0.23892 0.0
C1076 C 0.46992 0.44923 0.2307 0.0
C1077 C 0.47912 0.46526 0.22581 0.0
H1078 H 0.47023 0.43308 0.24269 0.0
H1079 H 0.56008 0.59053 0.19727 0.0
H1080 H 0.59105 0.19272 0.96729 0.0
H1081 H 0.5931 0.19717 0.9857 0.0
H1082 H 0.63171 0.18133 0.98708 0.0
H1083 H 0.62962 0.17677 0.96872 0.0
H1084 H 0.60663 0.16393 1.00031 0.0
H1085 H 0.6422 0.22395 0.99127 0.0
H1086 H 0.64937 0.25116 0.98252 0.0
H1087 H 0.60636 0.25165 0.99719 0.0
H1088 H 0.59878 0.2243 1.00593 0.0
H1089 H 0.62747 0.1805 0.05185 0.0
H1090 H 0.63094 0.18431 0.03349 0.0
H1091 H 0.58955 0.19632 0.03259 0.0
H1092 H 0.58595 0.19247 0.05098 0.0
H1093 H 0.61644 0.21657 0.01923 0.0
H1094 H 0.58019 0.15612 0.02756 0.0
H1095 H 0.57285 0.12891 0.03637 0.0
H1096 H 0.61706 0.12927 0.02279 0.0
H1097 H 0.62483 0.15665 0.01402 0.0
C1098 C 0.60021 0.19052 0.97151 0.0
C1099 C 0.61008 0.18427 0.96658 0.0
C1100 C 0.60139 0.19308 0.98202 0.0
C1101 C 0.6126 0.18963 0.98778 0.0
C1102 C 0.62291 0.18399 0.98281 0.0
C1103 C 0.62167 0.18135 0.97233 0.0
C1104 C 0.61263 0.19053 0.99903 0.0
C1105 C 0.60908 0.17557 1.00443 0.0
C1106 C 0.61528 0.20552 1.00441 0.0
C1107 C 0.61982 0.22197 0.99917 0.0
C1108 C 0.63417 0.22977 0.99256 0.0
C1109 C 0.63833 0.24524 0.98762 0.0
C1110 C 0.6283 0.2531 0.98927 0.0
C1111 C 0.61411 0.24553 0.9959 0.0
C1112 C 0.60989 0.23006 1.00086 0.0
C1113 C 0.61919 0.18407 0.04776 0.0
C1114 C 0.60628 0.18595 0.05285 0.0
C1115 C 0.62123 0.18631 0.03728 0.0
C1116 C 0.61031 0.19033 0.03167 0.0
C1117 C 0.5981 0.19321 0.03678 0.0
C1118 C 0.59608 0.19102 0.04729 0.0
C1119 C 0.61069 0.19007 0.02043 0.0
C1120 C 0.61414 0.20504 0.01506 0.0
C1121 C 0.60792 0.17508 0.01502 0.0
C1122 C 0.60319 0.15852 0.02021 0.0
C1123 C 0.58842 0.15047 0.02651 0.0
C1124 C 0.58417 0.13501 0.03149 0.0
C1125 C 0.59451 0.12739 0.03016 0.0
C1126 C 0.60909 0.1352 0.02383 0.0
C1127 C 0.61341 0.15068 0.01884 0.0
H1128 H 0.5912 0.11542 0.03403 0.0
H1129 H 0.63154 0.26508 0.98544 0.0
H1130 H 0.416 0.61247 0.30041 0.0
H1131 H 0.4132 0.61355 0.31888 0.0
H1132 H 0.42887 0.57514 0.32228 0.0
H1133 H 0.43191 0.57415 0.30397 0.0
H1134 H 0.401 0.56797 0.33412 0.0
H1135 H 0.45743 0.61818 0.3262 0.0
H1136 H 0.4769 0.64598 0.31771 0.0
H1137 H 0.44937 0.669 0.33155 0.0
H1138 H 0.42958 0.64124 0.34003 0.0
H1139 H 0.43393 0.57397 0.38273 0.0
H1140 H 0.42997 0.57519 0.36455 0.0
H1141 H 0.41508 0.61398 0.36944 0.0
H1142 H 0.4195 0.61318 0.38776 0.0
H1143 H 0.43789 0.62233 0.3536 0.0
H1144 H 0.38423 0.57337 0.36353 0.0
H1145 H 0.36495 0.5457 0.37218 0.0
H1146 H 0.38666 0.5203 0.35464 0.0
H1147 H 0.40627 0.54788 0.34599 0.0
C1148 C 0.4189 0.60431 0.30511 0.0
C1149 C 0.42412 0.59318 0.3007 0.0
C1150 C 0.41726 0.60491 0.31565 0.0
C1151 C 0.42088 0.59446 0.32195 0.0
C1152 C 0.42587 0.58322 0.31756 0.0
C1153 C 0.42754 0.58262 0.30707 0.0
C1154 C 0.41987 0.59529 0.33315 0.0
C1155 C 0.4091 0.57983 0.33839 0.0
C1156 C 0.42997 0.61091 0.3387 0.0
C1157 C 0.4419 0.62759 0.33364 0.0
C1158 C 0.45544 0.62913 0.32736 0.0
C1159 C 0.46655 0.64488 0.32257 0.0
C1160 C 0.46434 0.65923 0.32406 0.0
C1161 C 0.45105 0.65787 0.33039 0.0
C1162 C 0.43989 0.64213 0.33519 0.0
C1163 C 0.42997 0.5829 0.37996 0.0
C1164 C 0.4271 0.59353 0.3867 0.0
C1165 C 0.42752 0.58343 0.36956 0.0
C1166 C 0.422 0.5945 0.36565 0.0
C1167 C 0.41925 0.60527 0.37232 0.0
C1168 C 0.42168 0.60472 0.38277 0.0
C1169 C 0.41947 0.59486 0.35456 0.0
C1170 C 0.42952 0.61052 0.34935 0.0
C1171 C 0.40866 0.57942 0.34901 0.0
C1172 C 0.3968 0.56274 0.35415 0.0
C1173 C 0.38498 0.56192 0.36156 0.0
C1174 C 0.37398 0.54624 0.36646 0.0
C1175 C 0.3746 0.53126 0.36397 0.0
C1176 C 0.3862 0.53192 0.35656 0.0
C1177 C 0.39724 0.54757 0.35165 0.0
H1178 H 0.36607 0.51914 0.36777 0.0
H1179 H 0.47295 0.67142 0.32035 0.0
H1180 H 0.85191 0.39996 0.71638 0.0
H1181 H 0.84779 0.39861 0.69802 0.0
H1182 H 0.82312 0.42965 0.70078 0.0
H1183 H 0.82722 0.43105 0.71924 0.0
H1184 H 0.80747 0.40338 0.68592 0.0
H1185 H 0.86443 0.44955 0.69497 0.0
H1186 H 0.89294 0.46281 0.70358 0.0
H1187 H 0.90544 0.42836 0.68746 0.0
H1188 H 0.87686 0.41469 0.67887 0.0
H1189 H 0.82666 0.43503 0.63445 0.0
H1190 H 0.82247 0.4312 0.65282 0.0
H1191 H 0.84866 0.40143 0.65283 0.0
H1192 H 0.85271 0.40502 0.6345 0.0
H1193 H 0.86267 0.42795 0.66641 0.0
H1194 H 0.80535 0.38198 0.65715 0.0
H1195 H 0.77678 0.36908 0.64864 0.0
H1196 H 0.76504 0.40392 0.66494 0.0
H1197 H 0.79367 0.41721 0.67345 0.0
C1198 C 0.8455 0.40639 0.71309 0.0
C1199 C 0.84015 0.41585 0.71922 0.0
C1200 C 0.84309 0.40556 0.70261 0.0
C1201 C 0.83542 0.41428 0.69804 0.0
C1202 C 0.8291 0.42286 0.70417 0.0
C1203 C 0.83145 0.42365 0.7147 0.0
C1204 C 0.83542 0.41557 0.68684 0.0
C1205 C 0.81953 0.40894 0.68164 0.0
C1206 C 0.85116 0.42268 0.68127 0.0
C1207 C 0.86844 0.43099 0.68634 0.0
C1208 C 0.8732 0.44471 0.69331 0.0
C1209 C 0.88938 0.45231 0.69818 0.0
C1210 C 0.90098 0.4464 0.69608 0.0
C1211 C 0.89643 0.43291 0.68908 0.0
C1212 C 0.88025 0.42523 0.68421 0.0
C1213 C 0.83118 0.42734 0.63833 0.0
C1214 C 0.84018 0.42047 0.63303 0.0
C1215 C 0.82879 0.42519 0.64883 0.0
C1216 C 0.83528 0.41605 0.65419 0.0
C1217 C 0.84365 0.40862 0.64885 0.0
C1218 C 0.84602 0.41074 0.63838 0.0
C1219 C 0.83469 0.41541 0.66542 0.0
C1220 C 0.85056 0.42234 0.67066 0.0
C1221 C 0.81895 0.40868 0.67097 0.0
C1222 C 0.80174 0.40072 0.66586 0.0
C1223 C 0.79675 0.38701 0.65885 0.0
C1224 C 0.78053 0.3796 0.65404 0.0
C1225 C 0.76913 0.38571 0.65622 0.0
C1226 C 0.7739 0.39922 0.66325 0.0
C1227 C 0.79012 0.40668 0.66807 0.0
H1228 H 0.75657 0.37995 0.6525 0.0
H1229 H 0.9135 0.45231 0.69986 0.0
H1230 H 0.42908 0.86227 0.04982 0.0
H1231 H 0.42568 0.85811 0.03153 0.0
H1232 H 0.41202 0.8045 0.03484 0.0
H1233 H 0.41513 0.80848 0.0533 0.0
H1234 H 0.43606 0.82091 0.01978 0.0
H1235 H 0.38076 0.81324 0.02872 0.0
H1236 H 0.36006 0.81999 0.03722 0.0
H1237 H 0.38168 0.86828 0.02115 0.0
H1238 H 0.4027 0.86195 0.01266 0.0
H1239 H 0.41927 0.81239 0.96602 0.0
H1240 H 0.41491 0.807 0.98432 0.0
H1241 H 0.42729 0.86003 0.98927 0.0
H1242 H 0.43115 0.86533 0.97109 0.0
H1243 H 0.39932 0.83778 1.00014 0.0
H1244 H 0.45728 0.84715 0.99338 0.0
H1245 H 0.47838 0.8407 0.9851 0.0
H1246 H 0.45148 0.78898 0.99719 0.0
H1247 H 0.43009 0.79506 1.00544 0.0
C1248 C 0.42502 0.84948 0.04672 0.0
C1249 C 0.42221 0.83566 0.05306 0.0
C1250 C 0.42314 0.84715 0.03624 0.0
C1251 C 0.41836 0.83093 0.03184 0.0
C1252 C 0.41566 0.8171 0.0381 0.0
C1253 C 0.4175 0.81942 0.04863 0.0
C1254 C 0.4168 0.82884 0.02065 0.0
C1255 C 0.42774 0.82421 0.01548 0.0
C1256 C 0.40606 0.83331 0.01505 0.0
C1257 C 0.39338 0.83716 0.0201 0.0
C1258 C 0.38119 0.82536 0.02705 0.0
C1259 C 0.36938 0.8291 0.03186 0.0
C1260 C 0.36957 0.84457 0.02974 0.0
C1261 C 0.38155 0.85631 0.02279 0.0
C1262 C 0.3934 0.85263 0.01796 0.0
C1263 C 0.42092 0.82284 0.97102 0.0
C1264 C 0.42571 0.83934 0.96712 0.0
C1265 C 0.41854 0.81977 0.98146 0.0
C1266 C 0.42092 0.83316 0.98816 0.0
C1267 C 0.4254 0.84952 0.98425 0.0
C1268 C 0.42779 0.85258 0.97385 0.0
C1269 C 0.41903 0.83046 0.99928 0.0
C1270 C 0.40739 0.83415 1.00445 0.0
C1271 C 0.42911 0.82512 1.00486 0.0
C1272 C 0.44197 0.82148 0.99991 0.0
C1273 C 0.45579 0.83435 0.9942 0.0
C1274 C 0.46781 0.83078 0.98952 0.0
C1275 C 0.46624 0.81442 0.99059 0.0
C1276 C 0.45266 0.80163 0.99635 0.0
C1277 C 0.44059 0.80513 1.00103 0.0
H1278 H 0.47556 0.81168 0.98697 0.0
H1279 H 0.36042 0.84744 0.03347 0.0
H1280 H 0.58224 0.40136 0.38373 0.0
H1281 H 0.58558 0.40037 0.36534 0.0
H1282 H 0.63547 0.44768 0.36704 0.0
H1283 H 0.6321 0.44887 0.3854 0.0
H1284 H 0.61406 0.44934 0.3529 0.0
H1285 H 0.63369 0.40992 0.36162 0.0
H1286 H 0.63226 0.38447 0.3699 0.0
H1287 H 0.58533 0.35046 0.35354 0.0
H1288 H 0.58633 0.37573 0.34526 0.0
H1289 H 0.63123 0.44997 0.30066 0.0
H1290 H 0.6345 0.44881 0.31901 0.0
H1291 H 0.58605 0.3999 0.32011 0.0
H1292 H 0.58284 0.40089 0.30175 0.0
H1293 H 0.60921 0.39959 0.3329 0.0
H1294 H 0.58767 0.43836 0.3256 0.0
H1295 H 0.588 0.4634 0.31745 0.0
H1296 H 0.63727 0.49811 0.33144 0.0
H1297 H 0.63734 0.47324 0.33956 0.0
C1298 C 0.59398 0.41147 0.38019 0.0
C1299 C 0.60689 0.42522 0.386 0.0
C1300 C 0.59594 0.41082 0.3697 0.0
C1301 C 0.61082 0.42391 0.36484 0.0
C1302 C 0.62392 0.43742 0.37065 0.0
C1303 C 0.62202 0.43802 0.38115 0.0
C1304 C 0.61208 0.42421 0.35362 0.0
C1305 C 0.61336 0.43861 0.34853 0.0
C1306 C 0.61065 0.40999 0.34793 0.0
C1307 C 0.61001 0.39475 0.35289 0.0
C1308 C 0.62298 0.39703 0.35985 0.0
C1309 C 0.62226 0.38263 0.36453 0.0
C1310 C 0.60869 0.36586 0.36226 0.0
C1311 C 0.59582 0.36346 0.35529 0.0
C1312 C 0.59647 0.37782 0.3506 0.0
C1313 C 0.62134 0.43892 0.30481 0.0
C1314 C 0.6067 0.42559 0.29979 0.0
C1315 C 0.62323 0.43826 0.31529 0.0
C1316 C 0.61036 0.42441 0.32096 0.0
C1317 C 0.59613 0.41071 0.31589 0.0
C1318 C 0.59432 0.41128 0.3054 0.0
C1319 C 0.61114 0.4247 0.33221 0.0
C1320 C 0.61015 0.4104 0.33729 0.0
C1321 C 0.61267 0.43895 0.33793 0.0
C1322 C 0.6126 0.45393 0.33309 0.0
C1323 C 0.59863 0.45132 0.32688 0.0
C1324 C 0.59874 0.46548 0.32227 0.0
C1325 C 0.61267 0.48233 0.3239 0.0
C1326 C 0.6265 0.48505 0.33017 0.0
C1327 C 0.62648 0.47093 0.33478 0.0
H1328 H 0.61273 0.49328 0.32033 0.0
H1329 H 0.60816 0.35473 0.36589 0.0
H1330 H 0.16153 0.57242 0.71563 0.0
H1331 H 0.16568 0.57291 0.69736 0.0
H1332 H 0.21932 0.61345 0.70089 0.0
H1333 H 0.21536 0.61285 0.71933 0.0
H1334 H 0.20275 0.62057 0.68576 0.0
H1335 H 0.21077 0.57343 0.69475 0.0
H1336 H 0.20415 0.54615 0.70321 0.0
H1337 H 0.1558 0.51869 0.6869 0.0
H1338 H 0.162 0.54586 0.67845 0.0
H1339 H 0.21155 0.61183 0.63208 0.0
H1340 H 0.21692 0.61305 0.65039 0.0
H1341 H 0.16386 0.57193 0.65501 0.0
H1342 H 0.15857 0.57032 0.6368 0.0
H1343 H 0.18621 0.56671 0.66604 0.0
H1344 H 0.17646 0.61477 0.65921 0.0
H1345 H 0.18274 0.64214 0.65097 0.0
H1346 H 0.23453 0.66782 0.66335 0.0
H1347 H 0.22861 0.64052 0.67157 0.0
C1348 C 0.17433 0.58123 0.71258 0.0
C1349 C 0.18816 0.59248 0.71898 0.0
C1350 C 0.17666 0.58153 0.70211 0.0
C1351 C 0.19288 0.59305 0.69777 0.0
C1352 C 0.20672 0.60442 0.70409 0.0
C1353 C 0.2044 0.60409 0.71461 0.0
C1354 C 0.19497 0.59343 0.6866 0.0
C1355 C 0.19952 0.6089 0.68144 0.0
C1356 C 0.19059 0.57815 0.68097 0.0
C1357 C 0.18682 0.56173 0.686 0.0
C1358 C 0.19867 0.56161 0.69301 0.0
C1359 C 0.195 0.54615 0.6978 0.0
C1360 C 0.17955 0.53071 0.69561 0.0
C1361 C 0.16776 0.53067 0.6886 0.0
C1362 C 0.17136 0.54609 0.68379 0.0
C1363 C 0.2011 0.60296 0.637 0.0
C1364 C 0.18459 0.59108 0.633 0.0
C1365 C 0.20415 0.60375 0.64746 0.0
C1366 C 0.19073 0.59269 0.65407 0.0
C1367 C 0.17439 0.58061 0.65006 0.0
C1368 C 0.17133 0.57983 0.63965 0.0
C1369 C 0.19339 0.59368 0.66522 0.0
C1370 C 0.18977 0.57847 0.67036 0.0
C1371 C 0.19863 0.60919 0.67082 0.0
C1372 C 0.20217 0.62557 0.66589 0.0
C1373 C 0.18923 0.62622 0.6601 0.0
C1374 C 0.19272 0.64172 0.65545 0.0
C1375 C 0.20904 0.65669 0.6566 0.0
C1376 C 0.2219 0.6562 0.66244 0.0
C1377 C 0.21849 0.64073 0.6671 0.0
H1378 H 0.21171 0.66868 0.653 0.0
H1379 H 0.17674 0.51876 0.69932 0.0
loop_
_geom_bond_atom_site_label_1
_geom_bond_atom_site_label_2
_geom_bond_distance
_geom_bond_site_symmetry_2
_ccdc_geom_bond_type
C0 C1 1.264 . S
C0 C5 1.479 . S
C0 C10 1.465 . S
C1 C0 1.264 . S
C1 C3 1.339 . S
C1 H28 0.931 . S
C2 C3 1.395 . S
C2 C4 1.320 . S
C3 C1 1.339 . S
C3 C2 1.395 . S
C3 H29 0.929 . S
C4 C2 1.320 . S
C4 C5 1.405 . S
C4 H30 0.930 . S
C5 C0 1.479 . S
C5 C4 1.405 . S
C5 H31 0.931 . S
U6 O7 2.454 . S
U6 O8 2.458 . S
U6 C9 2.984 . S
U6 C10 2.847 . S
U6 C23 2.882 . S
U6 O24 2.441 . S
U6 O25 2.420 . S
U6 O26 2.455 . S
U6 O27 2.449 . S
O7 U6 2.454 . S
O7 C9 1.353 . S
O8 U6 2.458 . S
O8 C9 1.286 . S
C9 U6 2.984 . S
C9 O7 1.353 . S
C9 O8 1.286 . S
C9 C11 1.363 . S
C10 C0 1.465 . S
C10 U6 2.847 . S
C10 O24 1.249 . S
C10 O25 1.202 . S
C11 C9 1.363 . S
C11 C13 1.408 . S
C11 C16 1.342 . S
C12 C13 1.310 . S
C12 C15 1.461 . S
C12 H32 0.932 . S
C13 C11 1.408 . S
C13 C12 1.310 . S
C13 H33 0.930 . S
C14 C15 1.474 . S
C14 C16 1.285 . S
C14 H34 0.929 . S
C15 C12 1.461 . S
C15 C14 1.474 . S
C16 C11 1.342 . S
C16 C14 1.285 . S
C16 H35 0.930 . S
C17 C20 1.424 . S
C17 C22 1.245 . S
C17 C23 1.428 . S
C18 C21 1.260 . S
C18 C22 1.477 . S
C18 H36 0.932 . S
C19 C20 1.384 . S
C19 C21 1.479 . S
C19 H37 0.929 . S
C20 C17 1.424 . S
C20 C19 1.384 . S
C20 H38 0.928 . S
C21 C18 1.260 . S
C21 C19 1.479 . S
C22 C17 1.245 . S
C22 C18 1.477 . S
C22 H39 0.932 . S
C23 U6 2.882 . S
C23 C17 1.428 . S
C23 O26 1.301 . S
C23 O27 1.282 . S
O24 U6 2.441 . S
O24 C10 1.249 . S
O25 U6 2.420 . S
O25 C10 1.202 . S
O26 U6 2.455 . S
O26 C23 1.301 . S
O27 U6 2.449 . S
O27 C23 1.282 . S
H28 C1 0.931 . S
H29 C3 0.929 . S
H30 C4 0.930 . S
H31 C5 0.931 . S
H32 C12 0.932 . S
H33 C13 0.930 . S
H34 C14 0.929 . S
H35 C16 0.930 . S
H36 C18 0.932 . S
H37 C19 0.929 . S
H38 C20 0.928 . S
H39 C22 0.932 . S
C40 C41 1.264 . S
C40 C45 1.479 . S
C40 C50 1.465 . S
C41 C40 1.264 . S
C41 C43 1.339 . S
C41 H68 0.931 . S
C42 C43 1.395 . S
C42 C44 1.320 . S
C43 C41 1.339 . S
C43 C42 1.395 . S
C43 H69 0.929 . S
C44 C42 1.320 . S
C44 C45 1.405 . S
C44 H70 0.930 . S
C45 C40 1.479 . S
C45 C44 1.405 . S
C45 H71 0.931 . S
U46 O47 2.454 . S
U46 O48 2.458 . S
U46 C49 2.984 . S
U46 C50 2.847 . S
U46 C63 2.882 . S
U46 O64 2.441 . S
U46 O65 2.420 . S
U46 O66 2.455 . S
U46 O67 2.449 . S
O47 U46 2.454 . S
O47 C49 1.353 . S
O48 U46 2.458 . S
O48 C49 1.286 . S
C49 U46 2.984 . S
C49 O47 1.353 . S
C49 O48 1.286 . S
C49 C51 1.363 . S
C50 C40 1.465 . S
C50 U46 2.847 . S
C50 O64 1.249 . S
C50 O65 1.202 . S
C51 C49 1.363 . S
C51 C53 1.408 . S
C51 C56 1.342 . S
C52 C53 1.310 . S
C52 C55 1.461 . S
C52 H72 0.932 . S
C53 C51 1.408 . S
C53 C52 1.310 . S
C53 H73 0.930 . S
C54 C55 1.474 . S
C54 C56 1.285 . S
C54 H74 0.929 . S
C55 C52 1.461 . S
C55 C54 1.474 . S
C56 C51 1.342 . S
C56 C54 1.285 . S
C56 H75 0.930 . S
C57 C60 1.424 . S
C57 C62 1.245 . S
C57 C63 1.428 . S
C58 C61 1.260 . S
C58 C62 1.477 . S
C58 H76 0.932 . S
C59 C60 1.384 . S
C59 C61 1.479 . S
C59 H77 0.929 . S
C60 C57 1.424 . S
C60 C59 1.384 . S
C60 H78 0.928 . S
C61 C58 1.260 . S
C61 C59 1.479 . S
C62 C57 1.245 . S
C62 C58 1.477 . S
C62 H79 0.932 . S
C63 U46 2.882 . S
C63 C57 1.428 . S
C63 O66 1.301 . S
C63 O67 1.282 . S
O64 U46 2.441 . S
O64 C50 1.249 . S
O65 U46 2.420 . S
O65 C50 1.202 . S
O66 U46 2.455 . S
O66 C63 1.301 . S
O67 U46 2.449 . S
O67 C63 1.282 . S
H68 C41 0.931 . S
H69 C43 0.929 . S
H70 C44 0.930 . S
H71 C45 0.931 . S
H72 C52 0.932 . S
H73 C53 0.930 . S
H74 C54 0.929 . S
H75 C56 0.930 . S
H76 C58 0.932 . S
H77 C59 0.929 . S
H78 C60 0.928 . S
H79 C62 0.932 . S
C80 C81 1.264 . S
C80 C85 1.479 . S
C80 C90 1.465 . S
C81 C80 1.264 . S
C81 C83 1.339 . S
C81 H108 0.931 . S
C82 C83 1.395 . S
C82 C84 1.320 . S
C83 C81 1.339 . S
C83 C82 1.395 . S
C83 H109 0.929 . S
C84 C82 1.320 . S
C84 C85 1.405 . S
C84 H110 0.930 . S
C85 C80 1.479 . S
C85 C84 1.405 . S
C85 H111 0.931 . S
U86 O87 2.454 . S
U86 O88 2.458 . S
U86 C89 2.984 . S
U86 C90 2.847 . S
U86 C103 2.882 . S
U86 O104 2.441 . S
U86 O105 2.420 . S
U86 O106 2.455 . S
U86 O107 2.449 . S
O87 U86 2.454 . S
O87 C89 1.353 . S
O88 U86 2.458 . S
O88 C89 1.286 . S
C89 U86 2.984 . S
C89 O87 1.353 . S
C89 O88 1.286 . S
C89 C91 1.363 . S
C90 C80 1.465 . S
C90 U86 2.847 . S
C90 O104 1.249 . S
C90 O105 1.202 . S
C91 C89 1.363 . S
C91 C93 1.408 . S
C91 C96 1.342 . S
C92 C93 1.310 . S
C92 C95 1.461 . S
C92 H112 0.932 . S
C93 C91 1.408 . S
C93 C92 1.310 . S
C93 H113 0.930 . S
C94 C95 1.474 . S
C94 C96 1.285 . S
C94 H114 0.929 . S
C95 C92 1.461 . S
C95 C94 1.474 . S
C96 C91 1.342 . S
C96 C94 1.285 . S
C96 H115 0.930 . S
C97 C100 1.424 . S
C97 C102 1.245 . S
C97 C103 1.428 . S
C98 C101 1.260 . S
C98 C102 1.477 . S
C98 H116 0.932 . S
C99 C100 1.384 . S
C99 C101 1.479 . S
C99 H117 0.929 . S
C100 C97 1.424 . S
C100 C99 1.384 . S
C100 H118 0.928 . S
C101 C98 1.260 . S
C101 C99 1.479 . S
C102 C97 1.245 . S
C102 C98 1.477 . S
C102 H119 0.932 . S
C103 U86 2.882 . S
C103 C97 1.428 . S
C103 O106 1.301 . S
C103 O107 1.282 . S
O104 U86 2.441 . S
O104 C90 1.249 . S
O105 U86 2.420 . S
O105 C90 1.202 . S
O106 U86 2.455 . S
O106 C103 1.301 . S
O107 U86 2.449 . S
O107 C103 1.282 . S
H108 C81 0.931 . S
H109 C83 0.929 . S
H110 C84 0.930 . S
H111 C85 0.931 . S
H112 C92 0.932 . S
H113 C93 0.930 . S
H114 C94 0.929 . S
H115 C96 0.930 . S
H116 C98 0.932 . S
H117 C99 0.929 . S
H118 C100 0.928 . S
H119 C102 0.932 . S
C120 C121 1.264 . S
C120 C125 1.479 . S
C120 C130 1.465 . S
C121 C120 1.264 . S
C121 C123 1.339 . S
C121 H148 0.931 . S
C122 C123 1.395 . S
C122 C124 1.320 . S
C123 C121 1.339 . S
C123 C122 1.395 . S
C123 H149 0.929 . S
C124 C122 1.320 . S
C124 C125 1.405 . S
C124 H150 0.930 . S
C125 C120 1.479 . S
C125 C124 1.405 . S
C125 H151 0.931 . S
U126 O127 2.454 . S
U126 O128 2.458 . S
U126 C129 2.984 . S
U126 C130 2.847 . S
U126 C143 2.882 . S
U126 O144 2.441 . S
U126 O145 2.420 . S
U126 O146 2.455 . S
U126 O147 2.449 . S
O127 U126 2.454 . S
O127 C129 1.353 . S
O128 U126 2.458 . S
O128 C129 1.286 . S
C129 U126 2.984 . S
C129 O127 1.353 . S
C129 O128 1.286 . S
C129 C131 1.363 . S
C130 C120 1.465 . S
C130 U126 2.847 . S
C130 O144 1.249 . S
C130 O145 1.202 . S
C131 C129 1.363 . S
C131 C133 1.408 . S
C131 C136 1.342 . S
C132 C133 1.310 . S
C132 C135 1.461 . S
C132 H152 0.932 . S
C133 C131 1.408 . S
C133 C132 1.310 . S
C133 H153 0.930 . S
C134 C135 1.474 . S
C134 C136 1.285 . S
C134 H154 0.929 . S
C135 C132 1.461 . S
C135 C134 1.474 . S
C136 C131 1.342 . S
C136 C134 1.285 . S
C136 H155 0.930 . S
C137 C140 1.424 . S
C137 C142 1.245 . S
C137 C143 1.428 . S
C138 C141 1.260 . S
C138 C142 1.477 . S
C138 H156 0.932 . S
C139 C140 1.384 . S
C139 C141 1.479 . S
C139 H157 0.929 . S
C140 C137 1.424 . S
C140 C139 1.384 . S
C140 H158 0.928 . S
C141 C138 1.260 . S
C141 C139 1.479 . S
C142 C137 1.245 . S
C142 C138 1.477 . S
C142 H159 0.932 . S
C143 U126 2.882 . S
C143 C137 1.428 . S
C143 O146 1.301 . S
C143 O147 1.282 . S
O144 U126 2.441 . S
O144 C130 1.249 . S
O145 U126 2.420 . S
O145 C130 1.202 . S
O146 U126 2.455 . S
O146 C143 1.301 . S
O147 U126 2.449 . S
O147 C143 1.282 . S
H148 C121 0.931 . S
H149 C123 0.929 . S
H150 C124 0.930 . S
H151 C125 0.931 . S
H152 C132 0.932 . S
H153 C133 0.930 . S
H154 C134 0.929 . S
H155 C136 0.930 . S
H156 C138 0.932 . S
H157 C139 0.929 . S
H158 C140 0.928 . S
H159 C142 0.932 . S
C160 C161 1.264 . S
C160 C165 1.479 . S
C160 C170 1.465 . S
C161 C160 1.264 . S
C161 C163 1.339 . S
C161 H188 0.931 . S
C162 C163 1.395 . S
C162 C164 1.320 . S
C163 C161 1.339 . S
C163 C162 1.395 . S
C163 H189 0.929 . S
C164 C162 1.320 . S
C164 C165 1.405 . S
C164 H190 0.930 . S
C165 C160 1.479 . S
C165 C164 1.405 . S
C165 H191 0.931 . S
U166 O167 2.454 . S
U166 O168 2.458 . S
U166 C169 2.984 . S
U166 C170 2.847 . S
U166 C183 2.882 . S
U166 O184 2.441 . S
U166 O185 2.420 . S
U166 O186 2.455 . S
U166 O187 2.449 . S
O167 U166 2.454 . S
O167 C169 1.353 . S
O168 U166 2.458 . S
O168 C169 1.286 . S
C169 U166 2.984 . S
C169 O167 1.353 . S
C169 O168 1.286 . S
C169 C171 1.363 . S
C170 C160 1.465 . S
C170 U166 2.847 . S
C170 O184 1.249 . S
C170 O185 1.202 . S
C171 C169 1.363 . S
C171 C173 1.408 . S
C171 C176 1.342 . S
C172 C173 1.310 . S
C172 C175 1.461 . S
C172 H192 0.932 . S
C173 C171 1.408 . S
C173 C172 1.310 . S
C173 H193 0.930 . S
C174 C175 1.474 . S
C174 C176 1.285 . S
C174 H194 0.929 . S
C175 C172 1.461 . S
C175 C174 1.474 . S
C176 C171 1.342 . S
C176 C174 1.285 . S
C176 H195 0.930 . S
C177 C180 1.424 . S
C177 C182 1.245 . S
C177 C183 1.428 . S
C178 C181 1.260 . S
C178 C182 1.477 . S
C178 H196 0.932 . S
C179 C180 1.384 . S
C179 C181 1.479 . S
C179 H197 0.929 . S
C180 C177 1.424 . S
C180 C179 1.384 . S
C180 H198 0.928 . S
C181 C178 1.260 . S
C181 C179 1.479 . S
C182 C177 1.245 . S
C182 C178 1.477 . S
C182 H199 0.932 . S
C183 U166 2.882 . S
C183 C177 1.428 . S
C183 O186 1.301 . S
C183 O187 1.282 . S
O184 U166 2.441 . S
O184 C170 1.249 . S
O185 U166 2.420 . S
O185 C170 1.202 . S
O186 U166 2.455 . S
O186 C183 1.301 . S
O187 U166 2.449 . S
O187 C183 1.282 . S
H188 C161 0.931 . S
H189 C163 0.929 . S
H190 C164 0.930 . S
H191 C165 0.931 . S
H192 C172 0.932 . S
H193 C173 0.930 . S
H194 C174 0.929 . S
H195 C176 0.930 . S
H196 C178 0.932 . S
H197 C179 0.929 . S
H198 C180 0.928 . S
H199 C182 0.932 . S
C200 C201 1.264 . S
C200 C205 1.479 . S
C200 C210 1.465 . S
C201 C200 1.264 . S
C201 C203 1.339 . S
C201 H228 0.931 . S
C202 C203 1.395 . S
C202 C204 1.320 . S
C203 C201 1.339 . S
C203 C202 1.395 . S
C203 H229 0.929 . S
C204 C202 1.320 . S
C204 C205 1.405 . S
C204 H230 0.930 . S
C205 C200 1.479 . S
C205 C204 1.405 . S
C205 H231 0.931 . S
U206 O207 2.454 . S
U206 O208 2.458 . S
U206 C209 2.984 . S
U206 C210 2.847 . S
U206 C223 2.882 . S
U206 O224 2.441 . S
U206 O225 2.420 . S
U206 O226 2.455 . S
U206 O227 2.449 . S
O207 U206 2.454 . S
O207 C209 1.353 . S
O208 U206 2.458 . S
O208 C209 1.286 . S
C209 U206 2.984 . S
C209 O207 1.353 . S
C209 O208 1.286 . S
C209 C211 1.363 . S
C210 C200 1.465 . S
C210 U206 2.847 . S
C210 O224 1.249 . S
C210 O225 1.202 . S
C211 C209 1.363 . S
C211 C213 1.408 . S
C211 C216 1.342 . S
C212 C213 1.310 . S
C212 C215 1.461 . S
C212 H232 0.932 . S
C213 C211 1.408 . S
C213 C212 1.310 . S
C213 H233 0.930 . S
C214 C215 1.474 . S
C214 C216 1.285 . S
C214 H234 0.929 . S
C215 C212 1.461 . S
C215 C214 1.474 . S
C216 C211 1.342 . S
C216 C214 1.285 . S
C216 H235 0.930 . S
C217 C220 1.424 . S
C217 C222 1.245 . S
C217 C223 1.428 . S
C218 C221 1.260 . S
C218 C222 1.477 . S
C218 H236 0.932 . S
C219 C220 1.384 . S
C219 C221 1.479 . S
C219 H237 0.929 . S
C220 C217 1.424 . S
C220 C219 1.384 . S
C220 H238 0.928 . S
C221 C218 1.260 . S
C221 C219 1.479 . S
C222 C217 1.245 . S
C222 C218 1.477 . S
C222 H239 0.932 . S
C223 U206 2.882 . S
C223 C217 1.428 . S
C223 O226 1.301 . S
C223 O227 1.282 . S
O224 U206 2.441 . S
O224 C210 1.249 . S
O225 U206 2.420 . S
O225 C210 1.202 . S
O226 U206 2.455 . S
O226 C223 1.301 . S
O227 U206 2.449 . S
O227 C223 1.282 . S
H228 C201 0.931 . S
H229 C203 0.929 . S
H230 C204 0.930 . S
H231 C205 0.931 . S
H232 C212 0.932 . S
H233 C213 0.930 . S
H234 C214 0.929 . S
H235 C216 0.930 . S
H236 C218 0.932 . S
H237 C219 0.929 . S
H238 C220 0.928 . S
H239 C222 0.932 . S
C240 C241 1.264 . S
C240 C245 1.479 . S
C240 C250 1.465 . S
C241 C240 1.264 . S
C241 C243 1.339 . S
C241 H268 0.931 . S
C242 C243 1.395 . S
C242 C244 1.320 . S
C243 C241 1.339 . S
C243 C242 1.395 . S
C243 H269 0.929 . S
C244 C242 1.320 . S
C244 C245 1.405 . S
C244 H270 0.930 . S
C245 C240 1.479 . S
C245 C244 1.405 . S
C245 H271 0.931 . S
U246 O247 2.454 . S
U246 O248 2.458 . S
U246 C249 2.984 . S
U246 C250 2.847 . S
U246 C263 2.882 . S
U246 O264 2.441 . S
U246 O265 2.420 . S
U246 O266 2.455 . S
U246 O267 2.449 . S
O247 U246 2.454 . S
O247 C249 1.353 . S
O248 U246 2.458 . S
O248 C249 1.286 . S
C249 U246 2.984 . S
C249 O247 1.353 . S
C249 O248 1.286 . S
C249 C251 1.363 . S
C250 C240 1.465 . S
C250 U246 2.847 . S
C250 O264 1.249 . S
C250 O265 1.202 . S
C251 C249 1.363 . S
C251 C253 1.408 . S
C251 C256 1.342 . S
C252 C253 1.310 . S
C252 C255 1.461 . S
C252 H272 0.932 . S
C253 C251 1.408 . S
C253 C252 1.310 . S
C253 H273 0.930 . S
C254 C255 1.474 . S
C254 C256 1.285 . S
C254 H274 0.929 . S
C255 C252 1.461 . S
C255 C254 1.474 . S
C256 C251 1.342 . S
C256 C254 1.285 . S
C256 H275 0.930 . S
C257 C260 1.424 . S
C257 C262 1.245 . S
C257 C263 1.428 . S
C258 C261 1.260 . S
C258 C262 1.477 . S
C258 H276 0.932 . S
C259 C260 1.384 . S
C259 C261 1.479 . S
C259 H277 0.929 . S
C260 C257 1.424 . S
C260 C259 1.384 . S
C260 H278 0.928 . S
C261 C258 1.260 . S
C261 C259 1.479 . S
C262 C257 1.245 . S
C262 C258 1.477 . S
C262 H279 0.932 . S
C263 U246 2.882 . S
C263 C257 1.428 . S
C263 O266 1.301 . S
C263 O267 1.282 . S
O264 U246 2.441 . S
O264 C250 1.249 . S
O265 U246 2.420 . S
O265 C250 1.202 . S
O266 U246 2.455 . S
O266 C263 1.301 . S
O267 U246 2.449 . S
O267 C263 1.282 . S
H268 C241 0.931 . S
H269 C243 0.929 . S
H270 C244 0.930 . S
H271 C245 0.931 . S
H272 C252 0.932 . S
H273 C253 0.930 . S
H274 C254 0.929 . S
H275 C256 0.930 . S
H276 C258 0.932 . S
H277 C259 0.929 . S
H278 C260 0.928 . S
H279 C262 0.932 . S
C280 C281 1.264 . S
C280 C285 1.479 . S
C280 C290 1.465 . S
C281 C280 1.264 . S
C281 C283 1.339 . S
C281 H308 0.931 . S
C282 C283 1.395 . S
C282 C284 1.320 . S
C283 C281 1.339 . S
C283 C282 1.395 . S
C283 H309 0.929 . S
C284 C282 1.320 . S
C284 C285 1.405 . S
C284 H310 0.930 . S
C285 C280 1.479 . S
C285 C284 1.405 . S
C285 H311 0.931 . S
U286 O287 2.454 . S
U286 O288 2.458 . S
U286 C289 2.984 . S
U286 C290 2.847 . S
U286 C303 2.882 . S
U286 O304 2.441 . S
U286 O305 2.420 . S
U286 O306 2.455 . S
U286 O307 2.449 . S
O287 U286 2.454 . S
O287 C289 1.353 . S
O288 U286 2.458 . S
O288 C289 1.286 . S
C289 U286 2.984 . S
C289 O287 1.353 . S
C289 O288 1.286 . S
C289 C291 1.363 . S
C290 C280 1.465 . S
C290 U286 2.847 . S
C290 O304 1.249 . S
C290 O305 1.202 . S
C291 C289 1.363 . S
C291 C293 1.408 . S
C291 C296 1.342 . S
C292 C293 1.310 . S
C292 C295 1.461 . S
C292 H312 0.932 . S
C293 C291 1.408 . S
C293 C292 1.310 . S
C293 H313 0.930 . S
C294 C295 1.474 . S
C294 C296 1.285 . S
C294 H314 0.929 . S
C295 C292 1.461 . S
C295 C294 1.474 . S
C296 C291 1.342 . S
C296 C294 1.285 . S
C296 H315 0.930 . S
C297 C300 1.424 . S
C297 C302 1.245 . S
C297 C303 1.428 . S
C298 C301 1.260 . S
C298 C302 1.477 . S
C298 H316 0.932 . S
C299 C300 1.384 . S
C299 C301 1.479 . S
C299 H317 0.929 . S
C300 C297 1.424 . S
C300 C299 1.384 . S
C300 H318 0.928 . S
C301 C298 1.260 . S
C301 C299 1.479 . S
C302 C297 1.245 . S
C302 C298 1.477 . S
C302 H319 0.932 . S
C303 U286 2.882 . S
C303 C297 1.428 . S
C303 O306 1.301 . S
C303 O307 1.282 . S
O304 U286 2.441 . S
O304 C290 1.249 . S
O305 U286 2.420 . S
O305 C290 1.202 . S
O306 U286 2.455 . S
O306 C303 1.301 . S
O307 U286 2.449 . S
O307 C303 1.282 . S
H308 C281 0.931 . S
H309 C283 0.929 . S
H310 C284 0.930 . S
H311 C285 0.931 . S
H312 C292 0.932 . S
H313 C293 0.930 . S
H314 C294 0.929 . S
H315 C296 0.930 . S
H316 C298 0.932 . S
H317 C299 0.929 . S
H318 C300 0.928 . S
H319 C302 0.932 . S
C320 C321 1.264 . S
C320 C325 1.479 . S
C320 C330 1.465 . S
C321 C320 1.264 . S
C321 C323 1.339 . S
C321 H348 0.931 . S
C322 C323 1.395 . S
C322 C324 1.320 . S
C323 C321 1.339 . S
C323 C322 1.395 . S
C323 H349 0.929 . S
C324 C322 1.320 . S
C324 C325 1.405 . S
C324 H350 0.930 . S
C325 C320 1.479 . S
C325 C324 1.405 . S
C325 H351 0.931 . S
U326 O327 2.454 . S
U326 O328 2.458 . S
U326 C329 2.984 . S
U326 C330 2.847 . S
U326 C343 2.882 . S
U326 O344 2.441 . S
U326 O345 2.420 . S
U326 O346 2.455 . S
U326 O347 2.449 . S
O327 U326 2.454 . S
O327 C329 1.353 . S
O328 U326 2.458 . S
O328 C329 1.286 . S
C329 U326 2.984 . S
C329 O327 1.353 . S
C329 O328 1.286 . S
C329 C331 1.363 . S
C330 C320 1.465 . S
C330 U326 2.847 . S
C330 O344 1.249 . S
C330 O345 1.202 . S
C331 C329 1.363 . S
C331 C333 1.408 . S
C331 C336 1.342 . S
C332 C333 1.310 . S
C332 C335 1.461 . S
C332 H352 0.932 . S
C333 C331 1.408 . S
C333 C332 1.310 . S
C333 H353 0.930 . S
C334 C335 1.474 . S
C334 C336 1.285 . S
C334 H354 0.929 . S
C335 C332 1.461 . S
C335 C334 1.474 . S
C336 C331 1.342 . S
C336 C334 1.285 . S
C336 H355 0.930 . S
C337 C340 1.424 . S
C337 C342 1.245 . S
C337 C343 1.428 . S
C338 C341 1.260 . S
C338 C342 1.477 . S
C338 H356 0.932 . S
C339 C340 1.384 . S
C339 C341 1.479 . S
C339 H357 0.929 . S
C340 C337 1.424 . S
C340 C339 1.384 . S
C340 H358 0.928 . S
C341 C338 1.260 . S
C341 C339 1.479 . S
C342 C337 1.245 . S
C342 C338 1.477 . S
C342 H359 0.932 . S
C343 U326 2.882 . S
C343 C337 1.428 . S
C343 O346 1.301 . S
C343 O347 1.282 . S
O344 U326 2.441 . S
O344 C330 1.249 . S
O345 U326 2.420 . S
O345 C330 1.202 . S
O346 U326 2.455 . S
O346 C343 1.301 . S
O347 U326 2.449 . S
O347 C343 1.282 . S
H348 C321 0.931 . S
H349 C323 0.929 . S
H350 C324 0.930 . S
H351 C325 0.931 . S
H352 C332 0.932 . S
H353 C333 0.930 . S
H354 C334 0.929 . S
H355 C336 0.930 . S
H356 C338 0.932 . S
H357 C339 0.929 . S
H358 C340 0.928 . S
H359 C342 0.932 . S
C360 C361 1.264 . S
C360 C365 1.479 . S
C360 C370 1.465 . S
C361 C360 1.264 . S
C361 C363 1.339 . S
C361 H388 0.931 . S
C362 C363 1.395 . S
C362 C364 1.320 . S
C363 C361 1.339 . S
C363 C362 1.395 . S
C363 H389 0.929 . S
C364 C362 1.320 . S
C364 C365 1.405 . S
C364 H390 0.930 . S
C365 C360 1.479 . S
C365 C364 1.405 . S
C365 H391 0.931 . S
U366 O367 2.454 . S
U366 O368 2.458 . S
U366 C369 2.984 . S
U366 C370 2.847 . S
U366 C383 2.882 . S
U366 O384 2.441 . S
U366 O385 2.420 . S
U366 O386 2.455 . S
U366 O387 2.449 . S
O367 U366 2.454 . S
O367 C369 1.353 . S
O368 U366 2.458 . S
O368 C369 1.286 . S
C369 U366 2.984 . S
C369 O367 1.353 . S
C369 O368 1.286 . S
C369 C371 1.363 . S
C370 C360 1.465 . S
C370 U366 2.847 . S
C370 O384 1.249 . S
C370 O385 1.202 . S
C371 C369 1.363 . S
C371 C373 1.408 . S
C371 C376 1.342 . S
C372 C373 1.310 . S
C372 C375 1.461 . S
C372 H392 0.932 . S
C373 C371 1.408 . S
C373 C372 1.310 . S
C373 H393 0.930 . S
C374 C375 1.474 . S
C374 C376 1.285 . S
C374 H394 0.929 . S
C375 C372 1.461 . S
C375 C374 1.474 . S
C376 C371 1.342 . S
C376 C374 1.285 . S
C376 H395 0.930 . S
C377 C380 1.424 . S
C377 C382 1.245 . S
C377 C383 1.428 . S
C378 C381 1.260 . S
C378 C382 1.477 . S
C378 H396 0.932 . S
C379 C380 1.384 . S
C379 C381 1.479 . S
C379 H397 0.929 . S
C380 C377 1.424 . S
C380 C379 1.384 . S
C380 H398 0.928 . S
C381 C378 1.260 . S
C381 C379 1.479 . S
C382 C377 1.245 . S
C382 C378 1.477 . S
C382 H399 0.932 . S
C383 U366 2.882 . S
C383 C377 1.428 . S
C383 O386 1.301 . S
C383 O387 1.282 . S
O384 U366 2.441 . S
O384 C370 1.249 . S
O385 U366 2.420 . S
O385 C370 1.202 . S
O386 U366 2.455 . S
O386 C383 1.301 . S
O387 U366 2.449 . S
O387 C383 1.282 . S
H388 C361 0.931 . S
H389 C363 0.929 . S
H390 C364 0.930 . S
H391 C365 0.931 . S
H392 C372 0.932 . S
H393 C373 0.930 . S
H394 C374 0.929 . S
H395 C376 0.930 . S
H396 C378 0.932 . S
H397 C379 0.929 . S
H398 C380 0.928 . S
H399 C382 0.932 . S
C400 C401 1.264 . S
C400 C405 1.479 . S
C400 C410 1.465 . S
C401 C400 1.264 . S
C401 C403 1.339 . S
C401 H428 0.931 . S
C402 C403 1.395 . S
C402 C404 1.320 . S
C403 C401 1.339 . S
C403 C402 1.395 . S
C403 H429 0.929 . S
C404 C402 1.320 . S
C404 C405 1.405 . S
C404 H430 0.930 . S
C405 C400 1.479 . S
C405 C404 1.405 . S
C405 H431 0.931 . S
U406 O407 2.454 . S
U406 O408 2.458 . S
U406 C409 2.984 . S
U406 C410 2.847 . S
U406 C423 2.882 . S
U406 O424 2.441 . S
U406 O425 2.420 . S
U406 O426 2.455 . S
U406 O427 2.449 . S
O407 U406 2.454 . S
O407 C409 1.353 . S
O408 U406 2.458 . S
O408 C409 1.286 . S
C409 U406 2.984 . S
C409 O407 1.353 . S
C409 O408 1.286 . S
C409 C411 1.363 . S
C410 C400 1.465 . S
C410 U406 2.847 . S
C410 O424 1.249 . S
C410 O425 1.202 . S
C411 C409 1.363 . S
C411 C413 1.408 . S
C411 C416 1.342 . S
C412 C413 1.310 . S
C412 C415 1.461 . S
C412 H432 0.932 . S
C413 C411 1.408 . S
C413 C412 1.310 . S
C413 H433 0.930 . S
C414 C415 1.474 . S
C414 C416 1.285 . S
C414 H434 0.929 . S
C415 C412 1.461 . S
C415 C414 1.474 . S
C416 C411 1.342 . S
C416 C414 1.285 . S
C416 H435 0.930 . S
C417 C420 1.424 . S
C417 C422 1.245 . S
C417 C423 1.428 . S
C418 C421 1.260 . S
C418 C422 1.477 . S
C418 H436 0.932 . S
C419 C420 1.384 . S
C419 C421 1.479 . S
C419 H437 0.929 . S
C420 C417 1.424 . S
C420 C419 1.384 . S
C420 H438 0.928 . S
C421 C418 1.260 . S
C421 C419 1.479 . S
C422 C417 1.245 . S
C422 C418 1.477 . S
C422 H439 0.932 . S
C423 U406 2.882 . S
C423 C417 1.428 . S
C423 O426 1.301 . S
C423 O427 1.282 . S
O424 U406 2.441 . S
O424 C410 1.249 . S
O425 U406 2.420 . S
O425 C410 1.202 . S
O426 U406 2.455 . S
O426 C423 1.301 . S
O427 U406 2.449 . S
O427 C423 1.282 . S
H428 C401 0.931 . S
H429 C403 0.929 . S
H430 C404 0.930 . S
H431 C405 0.931 . S
H432 C412 0.932 . S
H433 C413 0.930 . S
H434 C414 0.929 . S
H435 C416 0.930 . S
H436 C418 0.932 . S
H437 C419 0.929 . S
H438 C420 0.928 . S
H439 C422 0.932 . S
C440 C441 1.264 . S
C440 C445 1.479 . S
C440 C450 1.465 . S
C441 C440 1.264 . S
C441 C443 1.339 . S
C441 H468 0.931 . S
C442 C443 1.395 . S
C442 C444 1.320 . S
C443 C441 1.339 . S
C443 C442 1.395 . S
C443 H469 0.929 . S
C444 C442 1.320 . S
C444 C445 1.405 . S
C444 H470 0.930 . S
C445 C440 1.479 . S
C445 C444 1.405 . S
C445 H471 0.931 . S
U446 O447 2.454 . S
U446 O448 2.458 . S
U446 C449 2.984 . S
U446 C450 2.847 . S
U446 C463 2.882 . S
U446 O464 2.441 . S
U446 O465 2.420 . S
U446 O466 2.455 . S
U446 O467 2.449 . S
O447 U446 2.454 . S
O447 C449 1.353 . S
O448 U446 2.458 . S
O448 C449 1.286 . S
C449 U446 2.984 . S
C449 O447 1.353 . S
C449 O448 1.286 . S
C449 C451 1.363 . S
C450 C440 1.465 . S
C450 U446 2.847 . S
C450 O464 1.249 . S
C450 O465 1.202 . S
C451 C449 1.363 . S
C451 C453 1.408 . S
C451 C456 1.342 . S
C452 C453 1.310 . S
C452 C455 1.461 . S
C452 H472 0.932 . S
C453 C451 1.408 . S
C453 C452 1.310 . S
C453 H473 0.930 . S
C454 C455 1.474 . S
C454 C456 1.285 . S
C454 H474 0.929 . S
C455 C452 1.461 . S
C455 C454 1.474 . S
C456 C451 1.342 . S
C456 C454 1.285 . S
C456 H475 0.930 . S
C457 C460 1.424 . S
C457 C462 1.245 . S
C457 C463 1.428 . S
C458 C461 1.260 . S
C458 C462 1.477 . S
C458 H476 0.932 . S
C459 C460 1.384 . S
C459 C461 1.479 . S
C459 H477 0.929 . S
C460 C457 1.424 . S
C460 C459 1.384 . S
C460 H478 0.928 . S
C461 C458 1.260 . S
C461 C459 1.479 . S
C462 C457 1.245 . S
C462 C458 1.477 . S
C462 H479 0.932 . S
C463 U446 2.882 . S
C463 C457 1.428 . S
C463 O466 1.301 . S
C463 O467 1.282 . S
O464 U446 2.441 . S
O464 C450 1.249 . S
O465 U446 2.420 . S
O465 C450 1.202 . S
O466 U446 2.455 . S
O466 C463 1.301 . S
O467 U446 2.449 . S
O467 C463 1.282 . S
H468 C441 0.931 . S
H469 C443 0.929 . S
H470 C444 0.930 . S
H471 C445 0.931 . S
H472 C452 0.932 . S
H473 C453 0.930 . S
H474 C454 0.929 . S
H475 C456 0.930 . S
H476 C458 0.932 . S
H477 C459 0.929 . S
H478 C460 0.928 . S
H479 C462 0.932 . S
H480 C498 0.951 . S
H481 C500 0.951 . S
H482 C502 0.950 . S
H483 C503 0.950 . S
H484 C505 0.950 . S
H485 C508 0.950 . S
H486 C509 0.950 . S
H487 C511 0.950 . S
H488 C512 0.950 . S
H489 C513 0.951 . S
H490 C515 0.951 . S
H491 C517 0.950 . S
H492 C518 0.950 . S
H493 C520 0.950 . S
H494 C523 0.950 . S
H495 C524 0.950 . S
H496 C526 0.950 . S
H497 C527 0.950 . S
C498 H480 0.951 . S
C498 C499 1.366 . S
C498 C500 1.388 . S
C499 C498 1.366 . S
C499 C503 1.385 . S
C500 H481 0.951 . S
C500 C498 1.388 . S
C500 C501 1.366 . S
C501 C500 1.366 . S
C501 C502 1.414 . S
C501 C504 1.499 . S
C502 H482 0.950 . S
C502 C501 1.414 . S
C502 C503 1.374 . S
C503 H483 0.950 . S
C503 C499 1.385 . S
C503 C502 1.374 . S
C504 C501 1.499 . S
C504 C505 1.373 . S
C504 C506 1.389 . S
C505 H484 0.950 . S
C505 C504 1.373 . S
C505 C521 1.377 . S
C506 C504 1.389 . S
C506 C507 1.524 . S
C506 C520 1.377 . S
C507 C506 1.524 . S
C507 C508 1.397 . S
C507 C512 1.363 . S
C508 H485 0.950 . S
C508 C507 1.397 . S
C508 C509 1.334 . S
C509 H486 0.950 . S
C509 C508 1.334 . S
C509 C510 1.287 . S
C510 C509 1.287 . S
C510 C511 1.524 . S
C510 H529 0.913 . S
C511 H487 0.950 . S
C511 C510 1.524 . S
C511 C512 1.415 . S
C512 H488 0.950 . S
C512 C507 1.363 . S
C512 C511 1.415 . S
C513 H489 0.951 . S
C513 C514 1.366 . S
C513 C515 1.388 . S
C514 C513 1.366 . S
C514 C518 1.385 . S
C515 H490 0.951 . S
C515 C513 1.388 . S
C515 C516 1.366 . S
C516 C515 1.366 . S
C516 C517 1.414 . S
C516 C519 1.499 . S
C517 H491 0.950 . S
C517 C516 1.414 . S
C517 C518 1.374 . S
C518 H492 0.950 . S
C518 C514 1.385 . S
C518 C517 1.374 . S
C519 C516 1.499 . S
C519 C520 1.373 . S
C519 C521 1.389 . S
C520 H493 0.950 . S
C520 C506 1.377 . S
C520 C519 1.373 . S
C521 C505 1.377 . S
C521 C519 1.389 . S
C521 C522 1.524 . S
C522 C521 1.524 . S
C522 C523 1.397 . S
C522 C527 1.363 . S
C523 H494 0.950 . S
C523 C522 1.397 . S
C523 C524 1.334 . S
C524 H495 0.950 . S
C524 C523 1.334 . S
C524 C525 1.287 . S
C525 C524 1.287 . S
C525 C526 1.524 . S
C525 H528 0.999 . S
C526 H496 0.950 . S
C526 C525 1.524 . S
C526 C527 1.415 . S
C527 H497 0.950 . S
C527 C522 1.363 . S
C527 C526 1.415 . S
H528 C525 0.999 . S
H529 C510 0.913 . S
H530 C548 0.951 . S
H531 C550 0.951 . S
H532 C552 0.950 . S
H533 C553 0.950 . S
H534 C555 0.950 . S
H535 C558 0.950 . S
H536 C559 0.950 . S
H537 C561 0.950 . S
H538 C562 0.950 . S
H539 C563 0.951 . S
H540 C565 0.951 . S
H541 C567 0.950 . S
H542 C568 0.950 . S
H543 C570 0.950 . S
H544 C573 0.950 . S
H545 C574 0.950 . S
H546 C576 0.950 . S
H547 C577 0.950 . S
C548 H530 0.951 . S
C548 C549 1.366 . S
C548 C550 1.388 . S
C549 C548 1.366 . S
C549 C553 1.385 . S
C550 H531 0.951 . S
C550 C548 1.388 . S
C550 C551 1.366 . S
C551 C550 1.366 . S
C551 C552 1.414 . S
C551 C554 1.499 . S
C552 H532 0.950 . S
C552 C551 1.414 . S
C552 C553 1.374 . S
C553 H533 0.950 . S
C553 C549 1.385 . S
C553 C552 1.374 . S
C554 C551 1.499 . S
C554 C555 1.373 . S
C554 C556 1.389 . S
C555 H534 0.950 . S
C555 C554 1.373 . S
C555 C571 1.377 . S
C556 C554 1.389 . S
C556 C557 1.524 . S
C556 C570 1.377 . S
C557 C556 1.524 . S
C557 C558 1.397 . S
C557 C562 1.363 . S
C558 H535 0.950 . S
C558 C557 1.397 . S
C558 C559 1.334 . S
C559 H536 0.950 . S
C559 C558 1.334 . S
C559 C560 1.287 . S
C560 C559 1.287 . S
C560 C561 1.524 . S
C560 H579 0.913 . S
C561 H537 0.950 . S
C561 C560 1.524 . S
C561 C562 1.415 . S
C562 H538 0.950 . S
C562 C557 1.363 . S
C562 C561 1.415 . S
C563 H539 0.951 . S
C563 C564 1.366 . S
C563 C565 1.388 . S
C564 C563 1.366 . S
C564 C568 1.385 . S
C565 H540 0.951 . S
C565 C563 1.388 . S
C565 C566 1.366 . S
C566 C565 1.366 . S
C566 C567 1.414 . S
C566 C569 1.499 . S
C567 H541 0.950 . S
C567 C566 1.414 . S
C567 C568 1.374 . S
C568 H542 0.950 . S
C568 C564 1.385 . S
C568 C567 1.374 . S
C569 C566 1.499 . S
C569 C570 1.373 . S
C569 C571 1.389 . S
C570 H543 0.950 . S
C570 C556 1.377 . S
C570 C569 1.373 . S
C571 C555 1.377 . S
C571 C569 1.389 . S
C571 C572 1.524 . S
C572 C571 1.524 . S
C572 C573 1.397 . S
C572 C577 1.363 . S
C573 H544 0.950 . S
C573 C572 1.397 . S
C573 C574 1.334 . S
C574 H545 0.950 . S
C574 C573 1.334 . S
C574 C575 1.287 . S
C575 C574 1.287 . S
C575 C576 1.524 . S
C575 H578 0.999 . S
C576 H546 0.950 . S
C576 C575 1.524 . S
C576 C577 1.415 . S
C577 H547 0.950 . S
C577 C572 1.363 . S
C577 C576 1.415 . S
H578 C575 0.999 . S
H579 C560 0.913 . S
H580 C598 0.951 . S
H581 C600 0.951 . S
H582 C602 0.950 . S
H583 C603 0.950 . S
H584 C605 0.950 . S
H585 C608 0.950 . S
H586 C609 0.950 . S
H587 C611 0.950 . S
H588 C612 0.950 . S
H589 C613 0.951 . S
H590 C615 0.951 . S
H591 C617 0.950 . S
H592 C618 0.950 . S
H593 C620 0.950 . S
H594 C623 0.950 . S
H595 C624 0.950 . S
H596 C626 0.950 . S
H597 C627 0.950 . S
C598 H580 0.951 . S
C598 C599 1.366 . S
C598 C600 1.388 . S
C599 C598 1.366 . S
C599 C603 1.385 . S
C600 H581 0.951 . S
C600 C598 1.388 . S
C600 C601 1.366 . S
C601 C600 1.366 . S
C601 C602 1.414 . S
C601 C604 1.499 . S
C602 H582 0.950 . S
C602 C601 1.414 . S
C602 C603 1.374 . S
C603 H583 0.950 . S
C603 C599 1.385 . S
C603 C602 1.374 . S
C604 C601 1.499 . S
C604 C605 1.373 . S
C604 C606 1.389 . S
C605 H584 0.950 . S
C605 C604 1.373 . S
C605 C621 1.377 . S
C606 C604 1.389 . S
C606 C607 1.524 . S
C606 C620 1.377 . S
C607 C606 1.524 . S
C607 C608 1.397 . S
C607 C612 1.363 . S
C608 H585 0.950 . S
C608 C607 1.397 . S
C608 C609 1.334 . S
C609 H586 0.950 . S
C609 C608 1.334 . S
C609 C610 1.287 . S
C610 C609 1.287 . S
C610 C611 1.524 . S
C610 H629 0.913 . S
C611 H587 0.950 . S
C611 C610 1.524 . S
C611 C612 1.415 . S
C612 H588 0.950 . S
C612 C607 1.363 . S
C612 C611 1.415 . S
C613 H589 0.951 . S
C613 C614 1.366 . S
C613 C615 1.388 . S
C614 C613 1.366 . S
C614 C618 1.385 . S
C615 H590 0.951 . S
C615 C613 1.388 . S
C615 C616 1.366 . S
C616 C615 1.366 . S
C616 C617 1.414 . S
C616 C619 1.499 . S
C617 H591 0.950 . S
C617 C616 1.414 . S
C617 C618 1.374 . S
C618 H592 0.950 . S
C618 C614 1.385 . S
C618 C617 1.374 . S
C619 C616 1.499 . S
C619 C620 1.373 . S
C619 C621 1.389 . S
C620 H593 0.950 . S
C620 C606 1.377 . S
C620 C619 1.373 . S
C621 C605 1.377 . S
C621 C619 1.389 . S
C621 C622 1.524 . S
C622 C621 1.524 . S
C622 C623 1.397 . S
C622 C627 1.363 . S
C623 H594 0.950 . S
C623 C622 1.397 . S
C623 C624 1.334 . S
C624 H595 0.950 . S
C624 C623 1.334 . S
C624 C625 1.287 . S
C625 C624 1.287 . S
C625 C626 1.524 . S
C625 H628 0.999 . S
C626 H596 0.950 . S
C626 C625 1.524 . S
C626 C627 1.415 . S
C627 H597 0.950 . S
C627 C622 1.363 . S
C627 C626 1.415 . S
H628 C625 0.999 . S
H629 C610 0.913 . S
H630 C648 0.951 . S
H631 C650 0.951 . S
H632 C652 0.950 . S
H633 C653 0.950 . S
H634 C655 0.950 . S
H635 C658 0.950 . S
H636 C659 0.950 . S
H637 C661 0.950 . S
H638 C662 0.950 . S
H639 C663 0.951 . S
H640 C665 0.951 . S
H641 C667 0.950 . S
H642 C668 0.950 . S
H643 C670 0.950 . S
H644 C673 0.950 . S
H645 C674 0.950 . S
H646 C676 0.950 . S
H647 C677 0.950 . S
C648 H630 0.951 . S
C648 C649 1.366 . S
C648 C650 1.388 . S
C649 C648 1.366 . S
C649 C653 1.385 . S
C650 H631 0.951 . S
C650 C648 1.388 . S
C650 C651 1.366 . S
C651 C650 1.366 . S
C651 C652 1.414 . S
C651 C654 1.499 . S
C652 H632 0.950 . S
C652 C651 1.414 . S
C652 C653 1.374 . S
C653 H633 0.950 . S
C653 C649 1.385 . S
C653 C652 1.374 . S
C654 C651 1.499 . S
C654 C655 1.373 . S
C654 C656 1.389 . S
C655 H634 0.950 . S
C655 C654 1.373 . S
C655 C671 1.377 . S
C656 C654 1.389 . S
C656 C657 1.524 . S
C656 C670 1.377 . S
C657 C656 1.524 . S
C657 C658 1.397 . S
C657 C662 1.363 . S
C658 H635 0.950 . S
C658 C657 1.397 . S
C658 C659 1.334 . S
C659 H636 0.950 . S
C659 C658 1.334 . S
C659 C660 1.287 . S
C660 C659 1.287 . S
C660 C661 1.524 . S
C660 H679 0.913 . S
C661 H637 0.950 . S
C661 C660 1.524 . S
C661 C662 1.415 . S
C662 H638 0.950 . S
C662 C657 1.363 . S
C662 C661 1.415 . S
C663 H639 0.951 . S
C663 C664 1.366 . S
C663 C665 1.388 . S
C664 C663 1.366 . S
C664 C668 1.385 . S
C665 H640 0.951 . S
C665 C663 1.388 . S
C665 C666 1.366 . S
C666 C665 1.366 . S
C666 C667 1.414 . S
C666 C669 1.499 . S
C667 H641 0.950 . S
C667 C666 1.414 . S
C667 C668 1.374 . S
C668 H642 0.950 . S
C668 C664 1.385 . S
C668 C667 1.374 . S
C669 C666 1.499 . S
C669 C670 1.373 . S
C669 C671 1.389 . S
C670 H643 0.950 . S
C670 C656 1.377 . S
C670 C669 1.373 . S
C671 C655 1.377 . S
C671 C669 1.389 . S
C671 C672 1.524 . S
C672 C671 1.524 . S
C672 C673 1.397 . S
C672 C677 1.363 . S
C673 H644 0.950 . S
C673 C672 1.397 . S
C673 C674 1.334 . S
C674 H645 0.950 . S
C674 C673 1.334 . S
C674 C675 1.287 . S
C675 C674 1.287 . S
C675 C676 1.524 . S
C675 H678 0.999 . S
C676 H646 0.950 . S
C676 C675 1.524 . S
C676 C677 1.415 . S
C677 H647 0.950 . S
C677 C672 1.363 . S
C677 C676 1.415 . S
H678 C675 0.999 . S
H679 C660 0.913 . S
H680 C698 0.951 . S
H681 C700 0.951 . S
H682 C702 0.950 . S
H683 C703 0.950 . S
H684 C705 0.950 . S
H685 C708 0.950 . S
H686 C709 0.950 . S
H687 C711 0.950 . S
H688 C712 0.950 . S
H689 C713 0.951 . S
H690 C715 0.951 . S
H691 C717 0.950 . S
H692 C718 0.950 . S
H693 C720 0.950 . S
H694 C723 0.950 . S
H695 C724 0.950 . S
H696 C726 0.950 . S
H697 C727 0.950 . S
C698 H680 0.951 . S
C698 C699 1.366 . S
C698 C700 1.388 . S
C699 C698 1.366 . S
C699 C703 1.385 . S
C700 H681 0.951 . S
C700 C698 1.388 . S
C700 C701 1.366 . S
C701 C700 1.366 . S
C701 C702 1.414 . S
C701 C704 1.499 . S
C702 H682 0.950 . S
C702 C701 1.414 . S
C702 C703 1.374 . S
C703 H683 0.950 . S
C703 C699 1.385 . S
C703 C702 1.374 . S
C704 C701 1.499 . S
C704 C705 1.373 . S
C704 C706 1.389 . S
C705 H684 0.950 . S
C705 C704 1.373 . S
C705 C721 1.377 . S
C706 C704 1.389 . S
C706 C707 1.524 . S
C706 C720 1.377 . S
C707 C706 1.524 . S
C707 C708 1.397 . S
C707 C712 1.363 . S
C708 H685 0.950 . S
C708 C707 1.397 . S
C708 C709 1.334 . S
C709 H686 0.950 . S
C709 C708 1.334 . S
C709 C710 1.287 . S
C710 C709 1.287 . S
C710 C711 1.524 . S
C710 H729 0.913 . S
C711 H687 0.950 . S
C711 C710 1.524 . S
C711 C712 1.415 . S
C712 H688 0.950 . S
C712 C707 1.363 . S
C712 C711 1.415 . S
C713 H689 0.951 . S
C713 C714 1.366 . S
C713 C715 1.388 . S
C714 C713 1.366 . S
C714 C718 1.385 . S
C715 H690 0.951 . S
C715 C713 1.388 . S
C715 C716 1.366 . S
C716 C715 1.366 . S
C716 C717 1.414 . S
C716 C719 1.499 . S
C717 H691 0.950 . S
C717 C716 1.414 . S
C717 C718 1.374 . S
C718 H692 0.950 . S
C718 C714 1.385 . S
C718 C717 1.374 . S
C719 C716 1.499 . S
C719 C720 1.373 . S
C719 C721 1.389 . S
C720 H693 0.950 . S
C720 C706 1.377 . S
C720 C719 1.373 . S
C721 C705 1.377 . S
C721 C719 1.389 . S
C721 C722 1.524 . S
C722 C721 1.524 . S
C722 C723 1.397 . S
C722 C727 1.363 . S
C723 H694 0.950 . S
C723 C722 1.397 . S
C723 C724 1.334 . S
C724 H695 0.950 . S
C724 C723 1.334 . S
C724 C725 1.287 . S
C725 C724 1.287 . S
C725 C726 1.524 . S
C725 H728 0.999 . S
C726 H696 0.950 . S
C726 C725 1.524 . S
C726 C727 1.415 . S
C727 H697 0.950 . S
C727 C722 1.363 . S
C727 C726 1.415 . S
H728 C725 0.999 . S
H729 C710 0.913 . S
H730 C748 0.951 . S
H731 C750 0.951 . S
H732 C752 0.950 . S
H733 C753 0.950 . S
H734 C755 0.950 . S
H735 C758 0.950 . S
H736 C759 0.950 . S
H737 C761 0.950 . S
H738 C762 0.950 . S
H739 C763 0.951 . S
H740 C765 0.951 . S
H741 C767 0.950 . S
H742 C768 0.950 . S
H743 C770 0.950 . S
H744 C773 0.950 . S
H745 C774 0.950 . S
H746 C776 0.950 . S
H747 C777 0.950 . S
C748 H730 0.951 . S
C748 C749 1.366 . S
C748 C750 1.388 . S
C749 C748 1.366 . S
C749 C753 1.385 . S
C750 H731 0.951 . S
C750 C748 1.388 . S
C750 C751 1.366 . S
C751 C750 1.366 . S
C751 C752 1.414 . S
C751 C754 1.499 . S
C752 H732 0.950 . S
C752 C751 1.414 . S
C752 C753 1.374 . S
C753 H733 0.950 . S
C753 C749 1.385 . S
C753 C752 1.374 . S
C754 C751 1.499 . S
C754 C755 1.373 . S
C754 C756 1.389 . S
C755 H734 0.950 . S
C755 C754 1.373 . S
C755 C771 1.377 . S
C756 C754 1.389 . S
C756 C757 1.524 . S
C756 C770 1.377 . S
C757 C756 1.524 . S
C757 C758 1.397 . S
C757 C762 1.363 . S
C758 H735 0.950 . S
C758 C757 1.397 . S
C758 C759 1.334 . S
C759 H736 0.950 . S
C759 C758 1.334 . S
C759 C760 1.287 . S
C760 C759 1.287 . S
C760 C761 1.524 . S
C760 H779 0.913 . S
C761 H737 0.950 . S
C761 C760 1.524 . S
C761 C762 1.415 . S
C762 H738 0.950 . S
C762 C757 1.363 . S
C762 C761 1.415 . S
C763 H739 0.951 . S
C763 C764 1.366 . S
C763 C765 1.388 . S
C764 C763 1.366 . S
C764 C768 1.385 . S
C765 H740 0.951 . S
C765 C763 1.388 . S
C765 C766 1.366 . S
C766 C765 1.366 . S
C766 C767 1.414 . S
C766 C769 1.499 . S
C767 H741 0.950 . S
C767 C766 1.414 . S
C767 C768 1.374 . S
C768 H742 0.950 . S
C768 C764 1.385 . S
C768 C767 1.374 . S
C769 C766 1.499 . S
C769 C770 1.373 . S
C769 C771 1.389 . S
C770 H743 0.950 . S
C770 C756 1.377 . S
C770 C769 1.373 . S
C771 C755 1.377 . S
C771 C769 1.389 . S
C771 C772 1.524 . S
C772 C771 1.524 . S
C772 C773 1.397 . S
C772 C777 1.363 . S
C773 H744 0.950 . S
C773 C772 1.397 . S
C773 C774 1.334 . S
C774 H745 0.950 . S
C774 C773 1.334 . S
C774 C775 1.287 . S
C775 C774 1.287 . S
C775 C776 1.524 . S
C775 H778 0.999 . S
C776 H746 0.950 . S
C776 C775 1.524 . S
C776 C777 1.415 . S
C777 H747 0.950 . S
C777 C772 1.363 . S
C777 C776 1.415 . S
H778 C775 0.999 . S
H779 C760 0.913 . S
H780 C798 0.951 . S
H781 C800 0.951 . S
H782 C802 0.950 . S
H783 C803 0.950 . S
H784 C805 0.950 . S
H785 C808 0.950 . S
H786 C809 0.950 . S
H787 C811 0.950 . S
H788 C812 0.942 . S
H789 C813 0.951 . S
H790 C815 0.951 . S
H791 C817 0.950 . S
H792 C818 0.950 . S
H793 C820 0.950 . S
H794 C823 0.950 . S
H795 C824 0.950 . S
H796 C826 0.950 . S
H797 C827 0.959 1_565 S
C798 H780 0.951 . S
C798 C799 1.366 . S
C798 C800 1.388 . S
C799 C798 1.366 . S
C799 C803 1.385 . S
C800 H781 0.951 . S
C800 C798 1.388 . S
C800 C801 1.366 . S
C801 C800 1.366 . S
C801 C802 1.414 . S
C801 C804 1.499 . S
C802 H782 0.950 . S
C802 C801 1.414 . S
C802 C803 1.374 . S
C803 H783 0.950 . S
C803 C799 1.385 . S
C803 C802 1.374 . S
C804 C801 1.499 . S
C804 C805 1.373 . S
C804 C806 1.389 . S
C805 H784 0.950 . S
C805 C804 1.373 . S
C805 C821 1.377 1_565 S
C806 C804 1.389 . S
C806 C807 1.524 . S
C806 C820 1.377 1_565 S
C807 C806 1.524 . S
C807 C808 1.397 . S
C807 C812 1.363 . S
C808 H785 0.950 . S
C808 C807 1.397 . S
C808 C809 1.334 . S
C809 H786 0.950 . S
C809 C808 1.334 . S
C809 C810 1.287 . S
C810 C809 1.287 . S
C810 C811 1.524 . S
C810 H829 0.913 . S
C811 H787 0.950 . S
C811 C810 1.524 . S
C811 C812 1.415 . S
C812 H788 0.942 . S
C812 C807 1.363 . S
C812 C811 1.415 . S
C813 H789 0.951 . S
C813 C814 1.366 . S
C813 C815 1.388 . S
C814 C813 1.366 . S
C814 C818 1.385 . S
C815 H790 0.951 . S
C815 C813 1.388 . S
C815 C816 1.366 . S
C816 C815 1.366 . S
C816 C817 1.414 . S
C816 C819 1.499 . S
C817 H791 0.950 . S
C817 C816 1.414 . S
C817 C818 1.374 . S
C818 H792 0.950 . S
C818 C814 1.385 . S
C818 C817 1.374 . S
C819 C816 1.499 . S
C819 C820 1.373 . S
C819 C821 1.389 . S
C820 H793 0.950 . S
C820 C806 1.377 1_545 S
C820 C819 1.373 . S
C821 C805 1.377 1_545 S
C821 C819 1.389 . S
C821 C822 1.524 . S
C822 C821 1.524 . S
C822 C823 1.397 . S
C822 C827 1.363 . S
C823 H794 0.950 . S
C823 C822 1.397 . S
C823 C824 1.334 . S
C824 H795 0.950 . S
C824 C823 1.334 . S
C824 C825 1.287 . S
C825 C824 1.287 . S
C825 C826 1.524 . S
C825 H828 0.999 . S
C826 H796 0.950 . S
C826 C825 1.524 . S
C826 C827 1.415 . S
C827 H797 0.959 1_545 S
C827 C822 1.363 . S
C827 C826 1.415 . S
H828 C825 0.999 . S
H829 C810 0.913 . S
H830 C848 0.951 . S
H831 C850 0.951 . S
H832 C852 0.950 . S
H833 C853 0.950 . S
H834 C855 0.950 . S
H835 C858 0.950 . S
H836 C859 0.950 . S
H837 C861 0.950 . S
H838 C862 0.950 . S
H839 C863 0.951 . S
H840 C865 0.951 . S
H841 C867 0.950 . S
H842 C868 0.950 . S
H843 C870 0.950 . S
H844 C873 0.950 . S
H845 C874 0.950 . S
H846 C876 0.950 . S
H847 C877 0.950 . S
C848 H830 0.951 . S
C848 C849 1.366 . S
C848 C850 1.388 . S
C849 C848 1.366 . S
C849 C853 1.385 . S
C850 H831 0.951 . S
C850 C848 1.388 . S
C850 C851 1.366 . S
C851 C850 1.366 . S
C851 C852 1.414 . S
C851 C854 1.499 . S
C852 H832 0.950 . S
C852 C851 1.414 . S
C852 C853 1.374 . S
C853 H833 0.950 . S
C853 C849 1.385 . S
C853 C852 1.374 . S
C854 C851 1.499 . S
C854 C855 1.373 . S
C854 C856 1.389 . S
C855 H834 0.950 . S
C855 C854 1.373 . S
C855 C871 1.377 . S
C856 C854 1.389 . S
C856 C857 1.524 . S
C856 C870 1.377 . S
C857 C856 1.524 . S
C857 C858 1.397 . S
C857 C862 1.363 . S
C858 H835 0.950 . S
C858 C857 1.397 . S
C858 C859 1.334 . S
C859 H836 0.950 . S
C859 C858 1.334 . S
C859 C860 1.287 . S
C860 C859 1.287 . S
C860 C861 1.524 . S
C860 H879 0.913 . S
C861 H837 0.950 . S
C861 C860 1.524 . S
C861 C862 1.415 . S
C862 H838 0.950 . S
C862 C857 1.363 . S
C862 C861 1.415 . S
C863 H839 0.951 . S
C863 C864 1.366 . S
C863 C865 1.388 . S
C864 C863 1.366 . S
C864 C868 1.385 . S
C865 H840 0.951 . S
C865 C863 1.388 . S
C865 C866 1.366 . S
C866 C865 1.366 . S
C866 C867 1.414 . S
C866 C869 1.499 . S
C867 H841 0.950 . S
C867 C866 1.414 . S
C867 C868 1.374 . S
C868 H842 0.950 . S
C868 C864 1.385 . S
C868 C867 1.374 . S
C869 C866 1.499 . S
C869 C870 1.373 . S
C869 C871 1.389 . S
C870 H843 0.950 . S
C870 C856 1.377 . S
C870 C869 1.373 . S
C871 C855 1.377 . S
C871 C869 1.389 . S
C871 C872 1.524 . S
C872 C871 1.524 . S
C872 C873 1.397 . S
C872 C877 1.363 . S
C873 H844 0.950 . S
C873 C872 1.397 . S
C873 C874 1.334 . S
C874 H845 0.950 . S
C874 C873 1.334 . S
C874 C875 1.287 . S
C875 C874 1.287 . S
C875 C876 1.524 . S
C875 H878 0.999 . S
C876 H846 0.950 . S
C876 C875 1.524 . S
C876 C877 1.415 . S
C877 H847 0.950 . S
C877 C872 1.363 . S
C877 C876 1.415 . S
H878 C875 0.999 . S
H879 C860 0.913 . S
H880 C898 0.951 . S
H881 C900 0.951 . S
H882 C902 0.950 . S
H883 C903 0.950 . S
H884 C905 0.950 . S
H885 C908 0.950 . S
H886 C909 0.950 . S
H887 C911 0.950 . S
H888 C912 0.950 . S
H889 C913 0.951 . S
H890 C915 0.951 . S
H891 C917 0.950 . S
H892 C918 0.950 . S
H893 C920 0.950 . S
H894 C923 0.950 . S
H895 C924 0.950 . S
H896 C926 0.950 . S
H897 C927 0.950 . S
C898 H880 0.951 . S
C898 C899 1.366 . S
C898 C900 1.388 . S
C899 C898 1.366 . S
C899 C903 1.385 . S
C900 H881 0.951 . S
C900 C898 1.388 . S
C900 C901 1.366 . S
C901 C900 1.366 . S
C901 C902 1.414 . S
C901 C904 1.499 . S
C902 H882 0.950 . S
C902 C901 1.414 . S
C902 C903 1.374 . S
C903 H883 0.950 . S
C903 C899 1.385 . S
C903 C902 1.374 . S
C904 C901 1.499 . S
C904 C905 1.373 . S
C904 C906 1.389 . S
C905 H884 0.950 . S
C905 C904 1.373 . S
C905 C921 1.377 1_655 S
C906 C904 1.389 . S
C906 C907 1.524 . S
C906 C920 1.377 1_655 S
C907 C906 1.524 . S
C907 C908 1.397 . S
C907 C912 1.363 . S
C908 H885 0.950 . S
C908 C907 1.397 . S
C908 C909 1.334 . S
C909 H886 0.950 . S
C909 C908 1.334 . S
C909 C910 1.287 . S
C910 C909 1.287 . S
C910 C911 1.524 . S
C910 H929 0.913 . S
C911 H887 0.950 . S
C911 C910 1.524 . S
C911 C912 1.415 . S
C912 H888 0.950 . S
C912 C907 1.363 . S
C912 C911 1.415 . S
C913 H889 0.951 . S
C913 C914 1.366 . S
C913 C915 1.388 . S
C914 C913 1.366 . S
C914 C918 1.385 . S
C915 H890 0.951 . S
C915 C913 1.388 . S
C915 C916 1.366 . S
C916 C915 1.366 . S
C916 C917 1.414 . S
C916 C919 1.499 . S
C917 H891 0.950 . S
C917 C916 1.414 . S
C917 C918 1.374 . S
C918 H892 0.950 . S
C918 C914 1.385 . S
C918 C917 1.374 . S
C919 C916 1.499 . S
C919 C920 1.373 . S
C919 C921 1.389 . S
C920 H893 0.950 . S
C920 C906 1.377 1_455 S
C920 C919 1.373 . S
C921 C905 1.377 1_455 S
C921 C919 1.389 . S
C921 C922 1.524 . S
C922 C921 1.524 . S
C922 C923 1.397 . S
C922 C927 1.363 . S
C923 H894 0.950 . S
C923 C922 1.397 . S
C923 C924 1.334 . S
C924 H895 0.950 . S
C924 C923 1.334 . S
C924 C925 1.287 . S
C925 C924 1.287 . S
C925 C926 1.524 . S
C925 H928 0.999 . S
C926 H896 0.950 . S
C926 C925 1.524 . S
C926 C927 1.415 . S
C927 H897 0.950 . S
C927 C922 1.363 . S
C927 C926 1.415 . S
H928 C925 0.999 . S
H929 C910 0.913 . S
H930 C948 0.951 . S
H931 C950 0.951 . S
H932 C952 0.950 . S
H933 C953 0.950 . S
H934 C955 0.950 . S
H935 C958 0.950 . S
H936 C959 0.950 . S
H937 C961 0.950 . S
H938 C962 0.950 . S
H939 C963 0.951 . S
H940 C965 0.951 . S
H941 C967 0.950 . S
H942 C968 0.950 . S
H943 C970 0.950 . S
H944 C973 0.950 . S
H945 C974 0.950 . S
H946 C976 0.950 . S
H947 C977 0.950 . S
C948 H930 0.951 . S
C948 C949 1.366 . S
C948 C950 1.388 . S
C949 C948 1.366 . S
C949 C953 1.385 . S
C950 H931 0.951 . S
C950 C948 1.388 . S
C950 C951 1.366 . S
C951 C950 1.366 . S
C951 C952 1.414 . S
C951 C954 1.499 . S
C952 H932 0.950 . S
C952 C951 1.414 . S
C952 C953 1.374 . S
C953 H933 0.950 . S
C953 C949 1.385 . S
C953 C952 1.374 . S
C954 C951 1.499 . S
C954 C955 1.373 . S
C954 C956 1.389 . S
C955 H934 0.950 . S
C955 C954 1.373 . S
C955 C971 1.377 1_455 S
C956 C954 1.389 . S
C956 C957 1.524 . S
C956 C970 1.377 1_455 S
C957 C956 1.524 . S
C957 C958 1.397 . S
C957 C962 1.363 . S
C958 H935 0.950 . S
C958 C957 1.397 . S
C958 C959 1.334 . S
C959 H936 0.950 . S
C959 C958 1.334 . S
C959 C960 1.287 . S
C960 C959 1.287 . S
C960 C961 1.524 . S
C960 H979 0.913 . S
C961 H937 0.950 . S
C961 C960 1.524 . S
C961 C962 1.415 . S
C962 H938 0.950 . S
C962 C957 1.363 . S
C962 C961 1.415 . S
C963 H939 0.951 . S
C963 C964 1.366 . S
C963 C965 1.388 . S
C964 C963 1.366 . S
C964 C968 1.385 . S
C965 H940 0.951 . S
C965 C963 1.388 . S
C965 C966 1.366 . S
C966 C965 1.366 . S
C966 C967 1.414 . S
C966 C969 1.499 . S
C967 H941 0.950 . S
C967 C966 1.414 . S
C967 C968 1.374 . S
C968 H942 0.950 . S
C968 C964 1.385 . S
C968 C967 1.374 . S
C969 C966 1.499 . S
C969 C970 1.373 . S
C969 C971 1.389 . S
C970 H943 0.950 . S
C970 C956 1.377 1_655 S
C970 C969 1.373 . S
C971 C955 1.377 1_655 S
C971 C969 1.389 . S
C971 C972 1.524 . S
C972 C971 1.524 . S
C972 C973 1.397 . S
C972 C977 1.363 . S
C973 H944 0.950 . S
C973 C972 1.397 . S
C973 C974 1.334 . S
C974 H945 0.950 . S
C974 C973 1.334 . S
C974 C975 1.287 . S
C975 C974 1.287 . S
C975 C976 1.524 . S
C975 H978 0.999 . S
C976 H946 0.950 . S
C976 C975 1.524 . S
C976 C977 1.415 . S
C977 H947 0.950 . S
C977 C972 1.363 . S
C977 C976 1.415 . S
H978 C975 0.999 . S
H979 C960 0.913 . S
H980 C998 0.951 . S
H981 C1000 0.951 . S
H982 C1002 0.950 . S
H983 C1003 0.950 . S
H984 C1005 0.950 . S
H985 C1008 0.950 . S
H986 C1009 0.950 . S
H987 C1011 0.950 1_545 S
H988 C1012 0.950 1_545 S
H989 C1013 0.951 . S
H990 C1015 0.951 . S
H991 C1017 0.950 . S
H992 C1018 0.950 . S
H993 C1020 0.950 . S
H994 C1023 0.950 . S
H995 C1024 0.950 . S
H996 C1026 0.951 1_565 S
H997 C1027 0.950 1_565 S
C998 H980 0.951 . S
C998 C999 1.366 . S
C998 C1000 1.388 . S
C999 C998 1.366 . S
C999 C1003 1.385 . S
C1000 H981 0.951 . S
C1000 C998 1.388 . S
C1000 C1001 1.366 . S
C1001 C1000 1.366 . S
C1001 C1002 1.414 . S
C1001 C1004 1.499 . S
C1002 H982 0.950 . S
C1002 C1001 1.414 . S
C1002 C1003 1.374 . S
C1003 H983 0.950 . S
C1003 C999 1.385 . S
C1003 C1002 1.374 . S
C1004 C1001 1.499 . S
C1004 C1005 1.373 . S
C1004 C1006 1.389 . S
C1005 H984 0.950 . S
C1005 C1004 1.373 . S
C1005 C1021 1.377 1_565 S
C1006 C1004 1.389 . S
C1006 C1007 1.524 . S
C1006 C1020 1.377 1_565 S
C1007 C1006 1.524 . S
C1007 C1008 1.397 . S
C1007 C1012 1.363 . S
C1008 H985 0.950 . S
C1008 C1007 1.397 . S
C1008 C1009 1.334 . S
C1009 H986 0.950 . S
C1009 C1008 1.334 . S
C1009 C1010 1.287 . S
C1010 C1009 1.287 . S
C1010 C1011 1.524 . S
C1010 H1029 0.913 . S
C1011 H987 0.950 1_565 S
C1011 C1010 1.524 . S
C1011 C1012 1.415 . S
C1012 H988 0.950 1_565 S
C1012 C1007 1.363 . S
C1012 C1011 1.415 . S
C1013 H989 0.951 . S
C1013 C1014 1.366 . S
C1013 C1015 1.388 . S
C1014 C1013 1.366 . S
C1014 C1018 1.385 . S
C1015 H990 0.951 . S
C1015 C1013 1.388 . S
C1015 C1016 1.366 . S
C1016 C1015 1.366 . S
C1016 C1017 1.414 . S
C1016 C1019 1.499 . S
C1017 H991 0.950 . S
C1017 C1016 1.414 . S
C1017 C1018 1.374 . S
C1018 H992 0.950 . S
C1018 C1014 1.385 . S
C1018 C1017 1.374 . S
C1019 C1016 1.499 . S
C1019 C1020 1.373 . S
C1019 C1021 1.389 . S
C1020 H993 0.950 . S
C1020 C1006 1.377 1_545 S
C1020 C1019 1.373 . S
C1021 C1005 1.377 1_545 S
C1021 C1019 1.389 . S
C1021 C1022 1.524 . S
C1022 C1021 1.524 . S
C1022 C1023 1.397 . S
C1022 C1027 1.363 . S
C1023 H994 0.950 . S
C1023 C1022 1.397 . S
C1023 C1024 1.334 . S
C1024 H995 0.950 . S
C1024 C1023 1.334 . S
C1024 C1025 1.287 . S
C1025 C1024 1.287 . S
C1025 C1026 1.524 . S
C1025 H1028 0.999 . S
C1026 H996 0.951 1_545 S
C1026 C1025 1.524 . S
C1026 C1027 1.415 . S
C1027 H997 0.950 1_545 S
C1027 C1022 1.363 . S
C1027 C1026 1.415 . S
H1028 C1025 0.999 . S
H1029 C1010 0.913 . S
H1030 C1048 0.951 . S
H1031 C1050 0.951 . S
H1032 C1052 0.950 . S
H1033 C1053 0.950 . S
H1034 C1055 0.950 . S
H1035 C1058 0.950 . S
H1036 C1059 0.950 . S
H1037 C1061 0.950 . S
H1038 C1062 0.950 . S
H1039 C1063 0.951 . S
H1040 C1065 0.951 . S
H1041 C1067 0.950 . S
H1042 C1068 0.950 . S
H1043 C1070 0.950 . S
H1044 C1073 0.950 . S
H1045 C1074 0.950 . S
H1046 C1076 0.950 . S
H1047 C1077 0.950 . S
C1048 H1030 0.951 . S
C1048 C1049 1.366 . S
C1048 C1050 1.388 . S
C1049 C1048 1.366 . S
C1049 C1053 1.385 . S
C1050 H1031 0.951 . S
C1050 C1048 1.388 . S
C1050 C1051 1.366 . S
C1051 C1050 1.366 . S
C1051 C1052 1.414 . S
C1051 C1054 1.499 . S
C1052 H1032 0.950 . S
C1052 C1051 1.414 . S
C1052 C1053 1.374 . S
C1053 H1033 0.950 . S
C1053 C1049 1.385 . S
C1053 C1052 1.374 . S
C1054 C1051 1.499 . S
C1054 C1055 1.373 . S
C1054 C1056 1.389 . S
C1055 H1034 0.950 . S
C1055 C1054 1.373 . S
C1055 C1071 1.377 . S
C1056 C1054 1.389 . S
C1056 C1057 1.524 . S
C1056 C1070 1.377 . S
C1057 C1056 1.524 . S
C1057 C1058 1.397 . S
C1057 C1062 1.363 . S
C1058 H1035 0.950 . S
C1058 C1057 1.397 . S
C1058 C1059 1.334 . S
C1059 H1036 0.950 . S
C1059 C1058 1.334 . S
C1059 C1060 1.287 . S
C1060 C1059 1.287 . S
C1060 C1061 1.524 . S
C1060 H1079 0.913 . S
C1061 H1037 0.950 . S
C1061 C1060 1.524 . S
C1061 C1062 1.415 . S
C1062 H1038 0.950 . S
C1062 C1057 1.363 . S
C1062 C1061 1.415 . S
C1063 H1039 0.951 . S
C1063 C1064 1.366 . S
C1063 C1065 1.388 . S
C1064 C1063 1.366 . S
C1064 C1068 1.385 . S
C1065 H1040 0.951 . S
C1065 C1063 1.388 . S
C1065 C1066 1.366 . S
C1066 C1065 1.366 . S
C1066 C1067 1.414 . S
C1066 C1069 1.499 . S
C1067 H1041 0.950 . S
C1067 C1066 1.414 . S
C1067 C1068 1.374 . S
C1068 H1042 0.950 . S
C1068 C1064 1.385 . S
C1068 C1067 1.374 . S
C1069 C1066 1.499 . S
C1069 C1070 1.373 . S
C1069 C1071 1.389 . S
C1070 H1043 0.950 . S
C1070 C1056 1.377 . S
C1070 C1069 1.373 . S
C1071 C1055 1.377 . S
C1071 C1069 1.389 . S
C1071 C1072 1.524 . S
C1072 C1071 1.524 . S
C1072 C1073 1.397 . S
C1072 C1077 1.363 . S
C1073 H1044 0.950 . S
C1073 C1072 1.397 . S
C1073 C1074 1.334 . S
C1074 H1045 0.950 . S
C1074 C1073 1.334 . S
C1074 C1075 1.287 . S
C1075 C1074 1.287 . S
C1075 C1076 1.524 . S
C1075 H1078 0.999 . S
C1076 H1046 0.950 . S
C1076 C1075 1.524 . S
C1076 C1077 1.415 . S
C1077 H1047 0.950 . S
C1077 C1072 1.363 . S
C1077 C1076 1.415 . S
H1078 C1075 0.999 . S
H1079 C1060 0.913 . S
H1080 C1098 0.951 . S
H1081 C1100 0.951 . S
H1082 C1102 0.950 . S
H1083 C1103 0.950 . S
H1084 C1105 0.950 . S
H1085 C1108 0.950 . S
H1086 C1109 0.950 . S
H1087 C1111 0.950 . S
H1088 C1112 0.876 1_554 S
H1089 C1113 0.951 . S
H1090 C1115 0.951 . S
H1091 C1117 0.950 . S
H1092 C1118 0.950 . S
H1093 C1120 0.950 . S
H1094 C1123 0.950 . S
H1095 C1124 0.950 . S
H1096 C1126 0.950 . S
H1097 C1127 0.880 1_556 S
C1098 H1080 0.951 . S
C1098 C1099 1.366 . S
C1098 C1100 1.388 . S
C1099 C1098 1.366 . S
C1099 C1103 1.385 . S
C1100 H1081 0.951 . S
C1100 C1098 1.388 . S
C1100 C1101 1.366 . S
C1101 C1100 1.366 . S
C1101 C1102 1.414 . S
C1101 C1104 1.499 . S
C1102 H1082 0.950 . S
C1102 C1101 1.414 . S
C1102 C1103 1.374 . S
C1103 H1083 0.950 . S
C1103 C1099 1.385 . S
C1103 C1102 1.374 . S
C1104 C1101 1.499 . S
C1104 C1105 1.373 . S
C1104 C1106 1.389 . S
C1105 H1084 0.950 . S
C1105 C1104 1.373 . S
C1105 C1121 1.377 1_556 S
C1106 C1104 1.389 . S
C1106 C1107 1.524 . S
C1106 C1120 1.377 1_556 S
C1107 C1106 1.524 . S
C1107 C1108 1.397 . S
C1107 C1112 1.363 . S
C1108 H1085 0.950 . S
C1108 C1107 1.397 . S
C1108 C1109 1.334 . S
C1109 H1086 0.950 . S
C1109 C1108 1.334 . S
C1109 C1110 1.287 . S
C1110 C1109 1.287 . S
C1110 C1111 1.524 . S
C1110 H1129 0.913 . S
C1111 H1087 0.950 . S
C1111 C1110 1.524 . S
C1111 C1112 1.415 . S
C1112 H1088 0.876 1_556 S
C1112 C1107 1.363 . S
C1112 C1111 1.415 . S
C1113 H1089 0.951 . S
C1113 C1114 1.366 . S
C1113 C1115 1.388 . S
C1114 C1113 1.366 . S
C1114 C1118 1.385 . S
C1115 H1090 0.951 . S
C1115 C1113 1.388 . S
C1115 C1116 1.366 . S
C1116 C1115 1.366 . S
C1116 C1117 1.414 . S
C1116 C1119 1.499 . S
C1117 H1091 0.950 . S
C1117 C1116 1.414 . S
C1117 C1118 1.374 . S
C1118 H1092 0.950 . S
C1118 C1114 1.385 . S
C1118 C1117 1.374 . S
C1119 C1116 1.499 . S
C1119 C1120 1.373 . S
C1119 C1121 1.389 . S
C1120 H1093 0.950 . S
C1120 C1106 1.377 1_554 S
C1120 C1119 1.373 . S
C1121 C1105 1.377 1_554 S
C1121 C1119 1.389 . S
C1121 C1122 1.524 . S
C1122 C1121 1.524 . S
C1122 C1123 1.397 . S
C1122 C1127 1.363 . S
C1123 H1094 0.950 . S
C1123 C1122 1.397 . S
C1123 C1124 1.334 . S
C1124 H1095 0.950 . S
C1124 C1123 1.334 . S
C1124 C1125 1.287 . S
C1125 C1124 1.287 . S
C1125 C1126 1.524 . S
C1125 H1128 0.999 . S
C1126 H1096 0.950 . S
C1126 C1125 1.524 . S
C1126 C1127 1.415 . S
C1127 H1097 0.880 1_554 S
C1127 C1122 1.363 . S
C1127 C1126 1.415 . S
H1128 C1125 0.999 . S
H1129 C1110 0.913 . S
H1130 C1148 0.951 . S
H1131 C1150 0.951 . S
H1132 C1152 0.950 . S
H1133 C1153 0.950 . S
H1134 C1155 0.950 . S
H1135 C1158 0.950 . S
H1136 C1159 0.950 . S
H1137 C1161 0.950 . S
H1138 C1162 0.950 . S
H1139 C1163 0.951 . S
H1140 C1165 0.951 . S
H1141 C1167 0.950 . S
H1142 C1168 0.950 . S
H1143 C1170 0.950 . S
H1144 C1173 0.950 . S
H1145 C1174 0.950 . S
H1146 C1176 0.950 . S
H1147 C1177 0.950 . S
C1148 H1130 0.951 . S
C1148 C1149 1.366 . S
C1148 C1150 1.388 . S
C1149 C1148 1.366 . S
C1149 C1153 1.385 . S
C1150 H1131 0.951 . S
C1150 C1148 1.388 . S
C1150 C1151 1.366 . S
C1151 C1150 1.366 . S
C1151 C1152 1.414 . S
C1151 C1154 1.499 . S
C1152 H1132 0.950 . S
C1152 C1151 1.414 . S
C1152 C1153 1.374 . S
C1153 H1133 0.950 . S
C1153 C1149 1.385 . S
C1153 C1152 1.374 . S
C1154 C1151 1.499 . S
C1154 C1155 1.373 . S
C1154 C1156 1.389 . S
C1155 H1134 0.950 . S
C1155 C1154 1.373 . S
C1155 C1171 1.377 . S
C1156 C1154 1.389 . S
C1156 C1157 1.524 . S
C1156 C1170 1.377 . S
C1157 C1156 1.524 . S
C1157 C1158 1.397 . S
C1157 C1162 1.363 . S
C1158 H1135 0.950 . S
C1158 C1157 1.397 . S
C1158 C1159 1.334 . S
C1159 H1136 0.950 . S
C1159 C1158 1.334 . S
C1159 C1160 1.287 . S
C1160 C1159 1.287 . S
C1160 C1161 1.524 . S
C1160 H1179 0.913 . S
C1161 H1137 0.950 . S
C1161 C1160 1.524 . S
C1161 C1162 1.415 . S
C1162 H1138 0.950 . S
C1162 C1157 1.363 . S
C1162 C1161 1.415 . S
C1163 H1139 0.951 . S
C1163 C1164 1.366 . S
C1163 C1165 1.388 . S
C1164 C1163 1.366 . S
C1164 C1168 1.385 . S
C1165 H1140 0.951 . S
C1165 C1163 1.388 . S
C1165 C1166 1.366 . S
C1166 C1165 1.366 . S
C1166 C1167 1.414 . S
C1166 C1169 1.499 . S
C1167 H1141 0.950 . S
C1167 C1166 1.414 . S
C1167 C1168 1.374 . S
C1168 H1142 0.950 . S
C1168 C1164 1.385 . S
C1168 C1167 1.374 . S
C1169 C1166 1.499 . S
C1169 C1170 1.373 . S
C1169 C1171 1.389 . S
C1170 H1143 0.950 . S
C1170 C1156 1.377 . S
C1170 C1169 1.373 . S
C1171 C1155 1.377 . S
C1171 C1169 1.389 . S
C1171 C1172 1.524 . S
C1172 C1171 1.524 . S
C1172 C1173 1.397 . S
C1172 C1177 1.363 . S
C1173 H1144 0.950 . S
C1173 C1172 1.397 . S
C1173 C1174 1.334 . S
C1174 H1145 0.950 . S
C1174 C1173 1.334 . S
C1174 C1175 1.287 . S
C1175 C1174 1.287 . S
C1175 C1176 1.524 . S
C1175 H1178 0.999 . S
C1176 H1146 0.950 . S
C1176 C1175 1.524 . S
C1176 C1177 1.415 . S
C1177 H1147 0.950 . S
C1177 C1172 1.363 . S
C1177 C1176 1.415 . S
H1178 C1175 0.999 . S
H1179 C1160 0.913 . S
H1180 C1198 0.951 . S
H1181 C1200 0.951 . S
H1182 C1202 0.950 . S
H1183 C1203 0.950 . S
H1184 C1205 0.950 . S
H1185 C1208 0.950 . S
H1186 C1209 0.950 . S
H1187 C1211 0.950 . S
H1188 C1212 0.950 . S
H1189 C1213 0.951 . S
H1190 C1215 0.951 . S
H1191 C1217 0.950 . S
H1192 C1218 0.950 . S
H1193 C1220 0.950 . S
H1194 C1223 0.950 . S
H1195 C1224 0.950 . S
H1196 C1226 0.950 . S
H1197 C1227 0.950 . S
C1198 H1180 0.951 . S
C1198 C1199 1.366 . S
C1198 C1200 1.388 . S
C1199 C1198 1.366 . S
C1199 C1203 1.385 . S
C1200 H1181 0.951 . S
C1200 C1198 1.388 . S
C1200 C1201 1.366 . S
C1201 C1200 1.366 . S
C1201 C1202 1.414 . S
C1201 C1204 1.499 . S
C1202 H1182 0.950 . S
C1202 C1201 1.414 . S
C1202 C1203 1.374 . S
C1203 H1183 0.950 . S
C1203 C1199 1.385 . S
C1203 C1202 1.374 . S
C1204 C1201 1.499 . S
C1204 C1205 1.373 . S
C1204 C1206 1.389 . S
C1205 H1184 0.950 . S
C1205 C1204 1.373 . S
C1205 C1221 1.377 . S
C1206 C1204 1.389 . S
C1206 C1207 1.524 . S
C1206 C1220 1.377 . S
C1207 C1206 1.524 . S
C1207 C1208 1.397 . S
C1207 C1212 1.363 . S
C1208 H1185 0.950 . S
C1208 C1207 1.397 . S
C1208 C1209 1.334 . S
C1209 H1186 0.950 . S
C1209 C1208 1.334 . S
C1209 C1210 1.287 . S
C1210 C1209 1.287 . S
C1210 C1211 1.524 . S
C1210 H1229 0.913 . S
C1211 H1187 0.950 . S
C1211 C1210 1.524 . S
C1211 C1212 1.415 . S
C1212 H1188 0.950 . S
C1212 C1207 1.363 . S
C1212 C1211 1.415 . S
C1213 H1189 0.951 . S
C1213 C1214 1.366 . S
C1213 C1215 1.388 . S
C1214 C1213 1.366 . S
C1214 C1218 1.385 . S
C1215 H1190 0.951 . S
C1215 C1213 1.388 . S
C1215 C1216 1.366 . S
C1216 C1215 1.366 . S
C1216 C1217 1.414 . S
C1216 C1219 1.499 . S
C1217 H1191 0.950 . S
C1217 C1216 1.414 . S
C1217 C1218 1.374 . S
C1218 H1192 0.950 . S
C1218 C1214 1.385 . S
C1218 C1217 1.374 . S
C1219 C1216 1.499 . S
C1219 C1220 1.373 . S
C1219 C1221 1.389 . S
C1220 H1193 0.950 . S
C1220 C1206 1.377 . S
C1220 C1219 1.373 . S
C1221 C1205 1.377 . S
C1221 C1219 1.389 . S
C1221 C1222 1.524 . S
C1222 C1221 1.524 . S
C1222 C1223 1.397 . S
C1222 C1227 1.363 . S
C1223 H1194 0.950 . S
C1223 C1222 1.397 . S
C1223 C1224 1.334 . S
C1224 H1195 0.950 . S
C1224 C1223 1.334 . S
C1224 C1225 1.287 . S
C1225 C1224 1.287 . S
C1225 C1226 1.524 . S
C1225 H1228 0.999 . S
C1226 H1196 0.950 . S
C1226 C1225 1.524 . S
C1226 C1227 1.415 . S
C1227 H1197 0.950 . S
C1227 C1222 1.363 . S
C1227 C1226 1.415 . S
H1228 C1225 0.999 . S
H1229 C1210 0.913 . S
H1230 C1248 0.951 . S
H1231 C1250 0.951 . S
H1232 C1252 0.950 . S
H1233 C1253 0.950 . S
H1234 C1255 0.950 . S
H1235 C1258 0.950 . S
H1236 C1259 0.950 . S
H1237 C1261 0.975 . S
H1238 C1262 0.950 1_556 S
H1239 C1263 0.951 . S
H1240 C1265 0.951 . S
H1241 C1267 0.950 . S
H1242 C1268 0.950 . S
H1243 C1270 0.950 . S
H1244 C1273 0.950 . S
H1245 C1274 0.950 . S
H1246 C1276 0.973 . S
H1247 C1277 0.950 1_554 S
C1248 H1230 0.951 . S
C1248 C1249 1.366 . S
C1248 C1250 1.388 . S
C1249 C1248 1.366 . S
C1249 C1253 1.385 . S
C1250 H1231 0.951 . S
C1250 C1248 1.388 . S
C1250 C1251 1.366 . S
C1251 C1250 1.366 . S
C1251 C1252 1.414 . S
C1251 C1254 1.499 . S
C1252 H1232 0.950 . S
C1252 C1251 1.414 . S
C1252 C1253 1.374 . S
C1253 H1233 0.950 . S
C1253 C1249 1.385 . S
C1253 C1252 1.374 . S
C1254 C1251 1.499 . S
C1254 C1255 1.373 . S
C1254 C1256 1.389 . S
C1255 H1234 0.950 . S
C1255 C1254 1.373 . S
C1255 C1271 1.377 1_554 S
C1256 C1254 1.389 . S
C1256 C1257 1.524 . S
C1256 C1270 1.377 1_554 S
C1257 C1256 1.524 . S
C1257 C1258 1.397 . S
C1257 C1262 1.363 . S
C1258 H1235 0.950 . S
C1258 C1257 1.397 . S
C1258 C1259 1.334 . S
C1259 H1236 0.950 . S
C1259 C1258 1.334 . S
C1259 C1260 1.287 . S
C1260 C1259 1.287 . S
C1260 C1261 1.524 . S
C1260 H1279 0.913 . S
C1261 H1237 0.975 . S
C1261 C1260 1.524 . S
C1261 C1262 1.415 . S
C1262 H1238 0.950 1_554 S
C1262 C1257 1.363 . S
C1262 C1261 1.415 . S
C1263 H1239 0.951 . S
C1263 C1264 1.366 . S
C1263 C1265 1.388 . S
C1264 C1263 1.366 . S
C1264 C1268 1.385 . S
C1265 H1240 0.951 . S
C1265 C1263 1.388 . S
C1265 C1266 1.366 . S
C1266 C1265 1.366 . S
C1266 C1267 1.414 . S
C1266 C1269 1.499 . S
C1267 H1241 0.950 . S
C1267 C1266 1.414 . S
C1267 C1268 1.374 . S
C1268 H1242 0.950 . S
C1268 C1264 1.385 . S
C1268 C1267 1.374 . S
C1269 C1266 1.499 . S
C1269 C1270 1.373 . S
C1269 C1271 1.389 . S
C1270 H1243 0.950 . S
C1270 C1256 1.377 1_556 S
C1270 C1269 1.373 . S
C1271 C1255 1.377 1_556 S
C1271 C1269 1.389 . S
C1271 C1272 1.524 . S
C1272 C1271 1.524 . S
C1272 C1273 1.397 . S
C1272 C1277 1.363 . S
C1273 H1244 0.950 . S
C1273 C1272 1.397 . S
C1273 C1274 1.334 . S
C1274 H1245 0.950 . S
C1274 C1273 1.334 . S
C1274 C1275 1.287 . S
C1275 C1274 1.287 . S
C1275 C1276 1.524 . S
C1275 H1278 0.999 . S
C1276 H1246 0.973 . S
C1276 C1275 1.524 . S
C1276 C1277 1.415 . S
C1277 H1247 0.950 1_556 S
C1277 C1272 1.363 . S
C1277 C1276 1.415 . S
H1278 C1275 0.999 . S
H1279 C1260 0.913 . S
H1280 C1298 0.951 . S
H1281 C1300 0.951 . S
H1282 C1302 0.950 . S
H1283 C1303 0.950 . S
H1284 C1305 0.950 . S
H1285 C1308 0.950 . S
H1286 C1309 0.950 . S
H1287 C1311 0.950 . S
H1288 C1312 0.950 . S
H1289 C1313 0.951 . S
H1290 C1315 0.951 . S
H1291 C1317 0.950 . S
H1292 C1318 0.950 . S
H1293 C1320 0.950 . S
H1294 C1323 0.950 . S
H1295 C1324 0.950 . S
H1296 C1326 0.950 . S
H1297 C1327 0.950 . S
C1298 H1280 0.951 . S
C1298 C1299 1.366 . S
C1298 C1300 1.388 . S
C1299 C1298 1.366 . S
C1299 C1303 1.385 . S
C1300 H1281 0.951 . S
C1300 C1298 1.388 . S
C1300 C1301 1.366 . S
C1301 C1300 1.366 . S
C1301 C1302 1.414 . S
C1301 C1304 1.499 . S
C1302 H1282 0.950 . S
C1302 C1301 1.414 . S
C1302 C1303 1.374 . S
C1303 H1283 0.950 . S
C1303 C1299 1.385 . S
C1303 C1302 1.374 . S
C1304 C1301 1.499 . S
C1304 C1305 1.373 . S
C1304 C1306 1.389 . S
C1305 H1284 0.950 . S
C1305 C1304 1.373 . S
C1305 C1321 1.377 . S
C1306 C1304 1.389 . S
C1306 C1307 1.524 . S
C1306 C1320 1.377 . S
C1307 C1306 1.524 . S
C1307 C1308 1.397 . S
C1307 C1312 1.363 . S
C1308 H1285 0.950 . S
C1308 C1307 1.397 . S
C1308 C1309 1.334 . S
C1309 H1286 0.950 . S
C1309 C1308 1.334 . S
C1309 C1310 1.287 . S
C1310 C1309 1.287 . S
C1310 C1311 1.524 . S
C1310 H1329 0.913 . S
C1311 H1287 0.950 . S
C1311 C1310 1.524 . S
C1311 C1312 1.415 . S
C1312 H1288 0.950 . S
C1312 C1307 1.363 . S
C1312 C1311 1.415 . S
C1313 H1289 0.951 . S
C1313 C1314 1.366 . S
C1313 C1315 1.388 . S
C1314 C1313 1.366 . S
C1314 C1318 1.385 . S
C1315 H1290 0.951 . S
C1315 C1313 1.388 . S
C1315 C1316 1.366 . S
C1316 C1315 1.366 . S
C1316 C1317 1.414 . S
C1316 C1319 1.499 . S
C1317 H1291 0.950 . S
C1317 C1316 1.414 . S
C1317 C1318 1.374 . S
C1318 H1292 0.950 . S
C1318 C1314 1.385 . S
C1318 C1317 1.374 . S
C1319 C1316 1.499 . S
C1319 C1320 1.373 . S
C1319 C1321 1.389 . S
C1320 H1293 0.950 . S
C1320 C1306 1.377 . S
C1320 C1319 1.373 . S
C1321 C1305 1.377 . S
C1321 C1319 1.389 . S
C1321 C1322 1.524 . S
C1322 C1321 1.524 . S
C1322 C1323 1.397 . S
C1322 C1327 1.363 . S
C1323 H1294 0.950 . S
C1323 C1322 1.397 . S
C1323 C1324 1.334 . S
C1324 H1295 0.950 . S
C1324 C1323 1.334 . S
C1324 C1325 1.287 . S
C1325 C1324 1.287 . S
C1325 C1326 1.524 . S
C1325 H1328 0.999 . S
C1326 H1296 0.950 . S
C1326 C1325 1.524 . S
C1326 C1327 1.415 . S
C1327 H1297 0.950 . S
C1327 C1322 1.363 . S
C1327 C1326 1.415 . S
H1328 C1325 0.999 . S
H1329 C1310 0.913 . S
H1330 C1348 0.951 . S
H1331 C1350 0.951 . S
H1332 C1352 0.950 . S
H1333 C1353 0.950 . S
H1334 C1355 0.950 . S
H1335 C1358 0.950 . S
H1336 C1359 0.950 . S
H1337 C1361 0.950 . S
H1338 C1362 0.950 . S
H1339 C1363 0.951 . S
H1340 C1365 0.951 . S
H1341 C1367 0.950 . S
H1342 C1368 0.950 . S
H1343 C1370 0.950 . S
H1344 C1373 0.950 . S
H1345 C1374 0.950 . S
H1346 C1376 0.950 . S
H1347 C1377 0.950 . S
C1348 H1330 0.951 . S
C1348 C1349 1.366 . S
C1348 C1350 1.388 . S
C1349 C1348 1.366 . S
C1349 C1353 1.385 . S
C1350 H1331 0.951 . S
C1350 C1348 1.388 . S
C1350 C1351 1.366 . S
C1351 C1350 1.366 . S
C1351 C1352 1.414 . S
C1351 C1354 1.499 . S
C1352 H1332 0.950 . S
C1352 C1351 1.414 . S
C1352 C1353 1.374 . S
C1353 H1333 0.950 . S
C1353 C1349 1.385 . S
C1353 C1352 1.374 . S
C1354 C1351 1.499 . S
C1354 C1355 1.373 . S
C1354 C1356 1.389 . S
C1355 H1334 0.950 . S
C1355 C1354 1.373 . S
C1355 C1371 1.377 . S
C1356 C1354 1.389 . S
C1356 C1357 1.524 . S
C1356 C1370 1.377 . S
C1357 C1356 1.524 . S
C1357 C1358 1.397 . S
C1357 C1362 1.363 . S
C1358 H1335 0.950 . S
C1358 C1357 1.397 . S
C1358 C1359 1.334 . S
C1359 H1336 0.950 . S
C1359 C1358 1.334 . S
C1359 C1360 1.287 . S
C1360 C1359 1.287 . S
C1360 C1361 1.524 . S
C1360 H1379 0.913 . S
C1361 H1337 0.950 . S
C1361 C1360 1.524 . S
C1361 C1362 1.415 . S
C1362 H1338 0.950 . S
C1362 C1357 1.363 . S
C1362 C1361 1.415 . S
C1363 H1339 0.951 . S
C1363 C1364 1.366 . S
C1363 C1365 1.388 . S
C1364 C1363 1.366 . S
C1364 C1368 1.385 . S
C1365 H1340 0.951 . S
C1365 C1363 1.388 . S
C1365 C1366 1.366 . S
C1366 C1365 1.366 . S
C1366 C1367 1.414 . S
C1366 C1369 1.499 . S
C1367 H1341 0.950 . S
C1367 C1366 1.414 . S
C1367 C1368 1.374 . S
C1368 H1342 0.950 . S
C1368 C1364 1.385 . S
C1368 C1367 1.374 . S
C1369 C1366 1.499 . S
C1369 C1370 1.373 . S
C1369 C1371 1.389 . S
C1370 H1343 0.950 . S
C1370 C1356 1.377 . S
C1370 C1369 1.373 . S
C1371 C1355 1.377 . S
C1371 C1369 1.389 . S
C1371 C1372 1.524 . S
C1372 C1371 1.524 . S
C1372 C1373 1.397 . S
C1372 C1377 1.363 . S
C1373 H1344 0.950 . S
C1373 C1372 1.397 . S
C1373 C1374 1.334 . S
C1374 H1345 0.950 . S
C1374 C1373 1.334 . S
C1374 C1375 1.287 . S
C1375 C1374 1.287 . S
C1375 C1376 1.524 . S
C1375 H1378 0.999 . S
C1376 H1346 0.950 . S
C1376 C1375 1.524 . S
C1376 C1377 1.415 . S
C1377 H1347 0.950 . S
C1377 C1372 1.363 . S
C1377 C1376 1.415 . S
H1378 C1375 0.999 . S
H1379 C1360 0.913 . S
C499 C335 1.355 . S
C514 C15 1.354 . S
C549 C55 1.355 . S
C564 C375 1.354 . S
C599 C415 1.351 . S
C614 C95 1.351 . S
C649 C455 1.354 . S
C664 C135 1.355 . S
C699 C255 1.354 . S
C714 C175 1.355 . S
C749 C215 1.351 . S
C764 C295 1.351 . S
C799 C122 1.692 . S
C814 C2 1.691 . S
C849 C162 1.690 . S
C864 C42 1.690 . S
C899 C82 1.688 . S
C914 C202 1.688 . S
C949 C362 1.691 . S
C964 C242 1.691 . S
C999 C282 1.688 . S
C1014 C402 1.687 . S
C1049 C442 1.690 . S
C1064 C322 1.690 . S
C1099 C421 1.733 . S
C1114 C21 1.733 . S
C1149 C461 1.735 . S
C1164 C61 1.735 . S
C1199 C101 1.733 . S
C1214 C261 1.732 . S
C1249 C141 1.732 . S
C1264 C301 1.732 . S
C1299 C181 1.732 . S
C1314 C341 1.733 . S
C1349 C221 1.732 . S
C1364 C381 1.731 . S
