# Generated by pormake.
# Topology uox, (4)-cn, num edge types: 1
# Building blocks:
#     Node 0, Type 0, BuildingBlock: QUQFOY_clean_sbu_1, # of connection points: 4
#     Node 1, Type 0, BuildingBlock: QUQFOY_clean_sbu_1, # of connection points: 4
#     Node 2, Type 0, BuildingBlock: QUQFOY_clean_sbu_1, # of connection points: 4
#     Node 3, Type 0, BuildingBlock: QUQFOY_clean_sbu_1, # of connection points: 4
#     Node 4, Type 0, BuildingBlock: QUQFOY_clean_sbu_1, # of connection points: 4
#     Node 5, Type 0, BuildingBlock: QUQFOY_clean_sbu_1, # of connection points: 4
#     Node 6, Type 0, BuildingBlock: QUQFOY_clean_sbu_1, # of connection points: 4
#     Node 7, Type 0, BuildingBlock: QUQFOY_clean_sbu_1, # of connection points: 4
#     Node 8, Type 0, BuildingBlock: QUQFOY_clean_sbu_1, # of connection points: 4
#     Node 9, Type 0, BuildingBlock: QUQFOY_clean_sbu_1, # of connection points: 4
#     Node 10, Type 0, BuildingBlock: QUQFOY_clean_sbu_1, # of connection points: 4
#     Node 11, Type 0, BuildingBlock: QUQFOY_clean_sbu_1, # of connection points: 4
#     Node 12, Type 0, BuildingBlock: QUQFOY_clean_sbu_1, # of connection points: 4
#     Node 13, Type 0, BuildingBlock: QUQFOY_clean_sbu_1, # of connection points: 4
#     Node 14, Type 0, BuildingBlock: QUQFOY_clean_sbu_1, # of connection points: 4
#     Node 15, Type 0, BuildingBlock: QUQFOY_clean_sbu_1, # of connection points: 4
#     Node 16, Type 0, BuildingBlock: QUQFOY_clean_sbu_1, # of connection points: 4
#     Node 17, Type 0, BuildingBlock: QUQFOY_clean_sbu_1, # of connection points: 4
#     Node 18, Type 0, BuildingBlock: QUQFOY_clean_sbu_1, # of connection points: 4
#     Node 19, Type 0, BuildingBlock: QUQFOY_clean_sbu_1, # of connection points: 4
#     Node 20, Type 0, BuildingBlock: QUQFOY_clean_sbu_1, # of connection points: 4
#     Node 21, Type 0, BuildingBlock: QUQFOY_clean_sbu_1, # of connection points: 4
#     Node 22, Type 0, BuildingBlock: QUQFOY_clean_sbu_1, # of connection points: 4
#     Node 23, Type 0, BuildingBlock: QUQFOY_clean_sbu_1, # of connection points: 4
#     Node 24, Type 0, BuildingBlock: QUQFOY_clean_sbu_1, # of connection points: 4
#     Node 25, Type 0, BuildingBlock: QUQFOY_clean_sbu_1, # of connection points: 4
#     Node 26, Type 0, BuildingBlock: QUQFOY_clean_sbu_1, # of connection points: 4
#     Node 27, Type 0, BuildingBlock: QUQFOY_clean_sbu_1, # of connection points: 4
#     Node 28, Type 0, BuildingBlock: QUQFOY_clean_sbu_1, # of connection points: 4
#     Node 29, Type 0, BuildingBlock: QUQFOY_clean_sbu_1, # of connection points: 4
#     Node 30, Type 0, BuildingBlock: QUQFOY_clean_sbu_1, # of connection points: 4
#     Node 31, Type 0, BuildingBlock: QUQFOY_clean_sbu_1, # of connection points: 4
#     Edge 32, Type (0, 0), BuildingBlock: AJUNOK_clean_linker_0, # of connection points: 2
#     Edge 33, Type (0, 0), BuildingBlock: AJUNOK_clean_linker_0, # of connection points: 2
#     Edge 34, Type (0, 0), BuildingBlock: AJUNOK_clean_linker_0, # of connection points: 2
#     Edge 35, Type (0, 0), BuildingBlock: AJUNOK_clean_linker_0, # of connection points: 2
#     Edge 36, Type (0, 0), BuildingBlock: AJUNOK_clean_linker_0, # of connection points: 2
#     Edge 37, Type (0, 0), BuildingBlock: AJUNOK_clean_linker_0, # of connection points: 2
#     Edge 38, Type (0, 0), BuildingBlock: AJUNOK_clean_linker_0, # of connection points: 2
#     Edge 39, Type (0, 0), BuildingBlock: AJUNOK_clean_linker_0, # of connection points: 2
#     Edge 40, Type (0, 0), BuildingBlock: AJUNOK_clean_linker_0, # of connection points: 2
#     Edge 41, Type (0, 0), BuildingBlock: AJUNOK_clean_linker_0, # of connection points: 2
#     Edge 42, Type (0, 0), BuildingBlock: AJUNOK_clean_linker_0, # of connection points: 2
#     Edge 43, Type (0, 0), BuildingBlock: AJUNOK_clean_linker_0, # of connection points: 2
#     Edge 44, Type (0, 0), BuildingBlock: AJUNOK_clean_linker_0, # of connection points: 2
#     Edge 45, Type (0, 0), BuildingBlock: AJUNOK_clean_linker_0, # of connection points: 2
#     Edge 46, Type (0, 0), BuildingBlock: AJUNOK_clean_linker_0, # of connection points: 2
#     Edge 47, Type (0, 0), BuildingBlock: AJUNOK_clean_linker_0, # of connection points: 2
#     Edge 48, Type (0, 0), BuildingBlock: AJUNOK_clean_linker_0, # of connection points: 2
#     Edge 49, Type (0, 0), BuildingBlock: AJUNOK_clean_linker_0, # of connection points: 2
#     Edge 50, Type (0, 0), BuildingBlock: AJUNOK_clean_linker_0, # of connection points: 2
#     Edge 51, Type (0, 0), BuildingBlock: AJUNOK_clean_linker_0, # of connection points: 2
#     Edge 52, Type (0, 0), BuildingBlock: AJUNOK_clean_linker_0, # of connection points: 2
#     Edge 53, Type (0, 0), BuildingBlock: AJUNOK_clean_linker_0, # of connection points: 2
#     Edge 54, Type (0, 0), BuildingBlock: AJUNOK_clean_linker_0, # of connection points: 2
#     Edge 55, Type (0, 0), BuildingBlock: AJUNOK_clean_linker_0, # of connection points: 2
#     Edge 56, Type (0, 0), BuildingBlock: AJUNOK_clean_linker_0, # of connection points: 2
#     Edge 57, Type (0, 0), BuildingBlock: AJUNOK_clean_linker_0, # of connection points: 2
#     Edge 58, Type (0, 0), BuildingBlock: AJUNOK_clean_linker_0, # of connection points: 2
#     Edge 59, Type (0, 0), BuildingBlock: AJUNOK_clean_linker_0, # of connection points: 2
#     Edge 60, Type (0, 0), BuildingBlock: AJUNOK_clean_linker_0, # of connection points: 2
#     Edge 61, Type (0, 0), BuildingBlock: AJUNOK_clean_linker_0, # of connection points: 2
#     Edge 62, Type (0, 0), BuildingBlock: AJUNOK_clean_linker_0, # of connection points: 2
#     Edge 63, Type (0, 0), BuildingBlock: AJUNOK_clean_linker_0, # of connection points: 2
#     Edge 64, Type (0, 0), BuildingBlock: AJUNOK_clean_linker_0, # of connection points: 2
#     Edge 65, Type (0, 0), BuildingBlock: AJUNOK_clean_linker_0, # of connection points: 2
#     Edge 66, Type (0, 0), BuildingBlock: AJUNOK_clean_linker_0, # of connection points: 2
#     Edge 67, Type (0, 0), BuildingBlock: AJUNOK_clean_linker_0, # of connection points: 2
#     Edge 68, Type (0, 0), BuildingBlock: AJUNOK_clean_linker_0, # of connection points: 2
#     Edge 69, Type (0, 0), BuildingBlock: AJUNOK_clean_linker_0, # of connection points: 2
#     Edge 70, Type (0, 0), BuildingBlock: AJUNOK_clean_linker_0, # of connection points: 2
#     Edge 71, Type (0, 0), BuildingBlock: AJUNOK_clean_linker_0, # of connection points: 2
#     Edge 72, Type (0, 0), BuildingBlock: AJUNOK_clean_linker_0, # of connection points: 2
#     Edge 73, Type (0, 0), BuildingBlock: AJUNOK_clean_linker_0, # of connection points: 2
#     Edge 74, Type (0, 0), BuildingBlock: AJUNOK_clean_linker_0, # of connection points: 2
#     Edge 75, Type (0, 0), BuildingBlock: AJUNOK_clean_linker_0, # of connection points: 2
#     Edge 76, Type (0, 0), BuildingBlock: AJUNOK_clean_linker_0, # of connection points: 2
#     Edge 77, Type (0, 0), BuildingBlock: AJUNOK_clean_linker_0, # of connection points: 2
#     Edge 78, Type (0, 0), BuildingBlock: AJUNOK_clean_linker_0, # of connection points: 2
#     Edge 79, Type (0, 0), BuildingBlock: AJUNOK_clean_linker_0, # of connection points: 2
#     Edge 80, Type (0, 0), BuildingBlock: AJUNOK_clean_linker_0, # of connection points: 2
#     Edge 81, Type (0, 0), BuildingBlock: AJUNOK_clean_linker_0, # of connection points: 2
#     Edge 82, Type (0, 0), BuildingBlock: AJUNOK_clean_linker_0, # of connection points: 2
#     Edge 83, Type (0, 0), BuildingBlock: AJUNOK_clean_linker_0, # of connection points: 2
#     Edge 84, Type (0, 0), BuildingBlock: AJUNOK_clean_linker_0, # of connection points: 2
#     Edge 85, Type (0, 0), BuildingBlock: AJUNOK_clean_linker_0, # of connection points: 2
#     Edge 86, Type (0, 0), BuildingBlock: AJUNOK_clean_linker_0, # of connection points: 2
#     Edge 87, Type (0, 0), BuildingBlock: AJUNOK_clean_linker_0, # of connection points: 2
#     Edge 88, Type (0, 0), BuildingBlock: AJUNOK_clean_linker_0, # of connection points: 2
#     Edge 89, Type (0, 0), BuildingBlock: AJUNOK_clean_linker_0, # of connection points: 2
#     Edge 90, Type (0, 0), BuildingBlock: AJUNOK_clean_linker_0, # of connection points: 2
#     Edge 91, Type (0, 0), BuildingBlock: AJUNOK_clean_linker_0, # of connection points: 2
#     Edge 92, Type (0, 0), BuildingBlock: AJUNOK_clean_linker_0, # of connection points: 2
#     Edge 93, Type (0, 0), BuildingBlock: AJUNOK_clean_linker_0, # of connection points: 2
#     Edge 94, Type (0, 0), BuildingBlock: AJUNOK_clean_linker_0, # of connection points: 2
#     Edge 95, Type (0, 0), BuildingBlock: AJUNOK_clean_linker_0, # of connection points: 2
# Relax obj value: 0.077
# Max RMSD: 0.138
# Mean RMSD: 0.138
data_MOF--net-uox--node1-QUQFOY_clean_sbu_1--edge1-AJUNOK_clean_linker_0
_symmetry_space_group_name_H-M    P1
_symmetry_Int_Tables_number       1
_symmetry_cell_setting            triclinic
loop_
_symmetry_equiv_pos_as_xyz
'x, y, z'
_cell_length_a     34.92624
_cell_length_b     34.931012
_cell_length_c     65.394535
_cell_angle_alpha  90.018922
_cell_angle_beta   89.981675
_cell_angle_gamma 90.003097
loop_
_atom_site_label
_atom_site_type_symbol
_atom_site_fract_x
_atom_site_fract_y
_atom_site_fract_z
_atom_type_partial_charge
O0 O 0.37615 0.98912 0.16197 0.0
Cd1 Cd 0.39368 0.03726 0.17763 0.0
Cd2 Cd 0.43462 0.04184 0.13887 0.0
O3 O 0.41225 0.98808 0.13425 0.0
O4 O 0.36349 0.02965 0.20321 0.0
O5 O 0.42639 0.02893 0.20307 0.0
C6 C 0.39486 0.02449 0.2131 0.0
C7 C 0.49805 0.05624 0.1303 0.0
C8 C 0.38699 0.97281 0.1456 0.0
C9 C 0.37706 0.10383 0.14927 0.0
O10 O 0.39768 0.08725 0.13595 0.0
O11 O 0.37445 0.09037 0.16733 0.0
O12 O 0.47249 0.05032 0.11646 0.0
O13 O 0.48787 0.05229 0.14919 0.0
O14 O 0.26073 0.12508 0.41248 0.0
Cd15 Cd 0.21308 0.14289 0.4285 0.0
Cd16 Cd 0.20654 0.18255 0.38955 0.0
O17 O 0.2598 0.15957 0.38419 0.0
O18 O 0.22109 0.11305 0.45416 0.0
O19 O 0.22197 0.17592 0.45379 0.0
C20 C 0.22618 0.14452 0.46396 0.0
C21 C 0.19263 0.24656 0.3823 0.0
C22 C 0.27594 0.13507 0.39566 0.0
C23 C 0.14462 0.12613 0.40117 0.0
O24 O 0.16041 0.14629 0.38738 0.0
O25 O 0.15955 0.12359 0.41889 0.0
O26 O 0.19721 0.22175 0.36791 0.0
O27 O 0.19778 0.23523 0.40091 0.0
O28 O 0.12748 0.01081 0.66289 0.0
Cd29 Cd 0.10831 0.9637 0.67895 0.0
Cd30 Cd 0.06795 0.95717 0.64027 0.0
O31 O 0.09147 0.01019 0.63516 0.0
O32 O 0.13537 0.97178 0.70551 0.0
O33 O 0.07257 0.9728 0.70307 0.0
C34 C 0.10276 0.97692 0.71424 0.0
C35 C 0.00486 0.94411 0.63052 0.0
C36 C 0.11705 0.02589 0.64611 0.0
C37 C 0.12425 0.8949 0.65198 0.0
O38 O 0.10387 0.91076 0.63831 0.0
O39 O 0.12733 0.90992 0.66966 0.0
O40 O 0.03157 0.94875 0.61717 0.0
O41 O 0.01375 0.94848 0.64956 0.0
O42 O 0.24243 0.87601 0.9124 0.0
Cd43 Cd 0.29042 0.85792 0.928 0.0
Cd44 Cd 0.29469 0.8172 0.88924 0.0
O45 O 0.24111 0.83996 0.88467 0.0
O46 O 0.28305 0.88765 0.95377 0.0
O47 O 0.28183 0.82477 0.95326 0.0
C48 C 0.27765 0.85612 0.96347 0.0
C49 C 0.3085 0.75373 0.88054 0.0
C50 C 0.22604 0.86531 0.89604 0.0
C51 C 0.35715 0.8742 0.89967 0.0
O52 O 0.34039 0.85378 0.88633 0.0
O53 O 0.34372 0.87683 0.91774 0.0
O54 O 0.30276 0.77943 0.86675 0.0
O55 O 0.30473 0.76383 0.89945 0.0
O56 O 0.37316 0.00904 0.34981 0.0
Cd57 Cd 0.39117 0.9613 0.33389 0.0
Cd58 Cd 0.43338 0.95616 0.37136 0.0
O59 O 0.41121 0.00973 0.37674 0.0
O60 O 0.3619 0.96854 0.30798 0.0
O61 O 0.42479 0.96977 0.30881 0.0
C62 C 0.39363 0.97349 0.29838 0.0
C63 C 0.49768 0.9418 0.37765 0.0
C64 C 0.38482 0.02494 0.36614 0.0
C65 C 0.37568 0.89419 0.36195 0.0
O66 O 0.39688 0.91059 0.37507 0.0
O67 O 0.37228 0.90798 0.34401 0.0
O68 O 0.47381 0.94733 0.3924 0.0
O69 O 0.48527 0.9463 0.35919 0.0
O70 O 0.24288 0.12442 0.60029 0.0
Cd71 Cd 0.29086 0.14228 0.58456 0.0
Cd72 Cd 0.29553 0.18302 0.62269 0.0
O73 O 0.24205 0.16072 0.62793 0.0
O74 O 0.28331 0.11257 0.55882 0.0
O75 O 0.28234 0.17545 0.55932 0.0
C76 C 0.2781 0.14411 0.5491 0.0
C77 C 0.30962 0.24732 0.62881 0.0
C78 C 0.22675 0.1353 0.6167 0.0
C79 C 0.35767 0.12587 0.61275 0.0
O80 O 0.34108 0.14648 0.62607 0.0
O81 O 0.34414 0.12319 0.59471 0.0
O82 O 0.30441 0.22355 0.64364 0.0
O83 O 0.30504 0.23475 0.61038 0.0
O84 O 0.1281 0.99122 0.8507 0.0
Cd85 Cd 0.10966 0.03904 0.83499 0.0
Cd86 Cd 0.06857 0.0445 0.87256 0.0
O87 O 0.09074 0.99096 0.87792 0.0
O88 O 0.13635 0.0312 0.8083 0.0
O89 O 0.07354 0.03106 0.81094 0.0
C90 C 0.10357 0.02668 0.79966 0.0
C91 C 0.00438 0.05886 0.87915 0.0
C92 C 0.1168 0.97554 0.86717 0.0
C93 C 0.12647 0.10612 0.86277 0.0
O94 O 0.10528 0.08997 0.87599 0.0
O95 O 0.12952 0.09222 0.84483 0.0
O96 O 0.02851 0.05353 0.89379 0.0
O97 O 0.0165 0.05424 0.86064 0.0
O98 O 0.26111 0.87522 0.10025 0.0
Cd99 Cd 0.2134 0.8576 0.08418 0.0
Cd100 Cd 0.20784 0.81529 0.12189 0.0
O101 O 0.26137 0.8375 0.12732 0.0
O102 O 0.22098 0.88739 0.05846 0.0
O103 O 0.22204 0.8245 0.05891 0.0
C104 C 0.22599 0.85586 0.04868 0.0
C105 C 0.19342 0.7511 0.12842 0.0
C106 C 0.2768 0.86367 0.11665 0.0
C107 C 0.14596 0.87299 0.11216 0.0
O108 O 0.1622 0.8518 0.12532 0.0
O109 O 0.15997 0.87644 0.09426 0.0
O110 O 0.19881 0.77518 0.14308 0.0
O111 O 0.19809 0.76323 0.10991 0.0
O112 O 0.62679 0.00965 0.84934 0.0
Cd113 Cd 0.60837 0.9615 0.83394 0.0
Cd114 Cd 0.5688 0.95665 0.87234 0.0
O115 O 0.59123 0.01028 0.87726 0.0
O116 O 0.63535 0.96916 0.80732 0.0
O117 O 0.57253 0.96946 0.80976 0.0
C118 C 0.60269 0.97387 0.79858 0.0
C119 C 0.50473 0.94225 0.87919 0.0
C120 C 0.61628 0.02572 0.86585 0.0
C121 C 0.62609 0.89475 0.86192 0.0
O122 O 0.60559 0.91116 0.87536 0.0
O123 O 0.62838 0.90841 0.84389 0.0
O124 O 0.52904 0.94767 0.89374 0.0
O125 O 0.5166 0.94686 0.86062 0.0
O126 O 0.74277 0.88037 0.59748 0.0
Cd127 Cd 0.78938 0.86116 0.581 0.0
Cd128 Cd 0.7967 0.81972 0.61869 0.0
O129 O 0.74378 0.84281 0.62461 0.0
O130 O 0.78035 0.88718 0.55425 0.0
O131 O 0.77984 0.82445 0.55738 0.0
C132 C 0.77519 0.85419 0.54593 0.0
C133 C 0.81046 0.75642 0.62781 0.0
C134 C 0.72803 0.86914 0.6142 0.0
C135 C 0.85841 0.87693 0.60749 0.0
O136 O 0.8428 0.8559 0.62096 0.0
O137 O 0.84328 0.8805 0.58987 0.0
O138 O 0.80586 0.78271 0.64139 0.0
O139 O 0.80566 0.76582 0.60886 0.0
O140 O 0.87502 0.98935 0.34868 0.0
Cd141 Cd 0.89269 0.03693 0.33256 0.0
Cd142 Cd 0.93458 0.04274 0.37093 0.0
O143 O 0.91217 0.98913 0.37598 0.0
O144 O 0.86276 0.02883 0.30694 0.0
O145 O 0.92566 0.02811 0.30724 0.0
C146 C 0.89423 0.02363 0.29713 0.0
C147 C 0.99791 0.05711 0.37981 0.0
C148 C 0.88624 0.97368 0.36515 0.0
C149 C 0.87666 0.10438 0.36039 0.0
O150 O 0.89771 0.08828 0.37368 0.0
O151 O 0.87355 0.09031 0.34249 0.0
O152 O 0.97203 0.05152 0.39352 0.0
O153 O 0.98811 0.05291 0.36088 0.0
O154 O 0.76092 0.12507 0.0983 0.0
Cd155 Cd 0.71326 0.14399 0.08267 0.0
Cd156 Cd 0.70675 0.18191 0.12162 0.0
O157 O 0.76002 0.15881 0.12686 0.0
O158 O 0.72146 0.11717 0.05606 0.0
O159 O 0.72179 0.17996 0.05858 0.0
C160 C 0.72626 0.14986 0.04738 0.0
C161 C 0.69275 0.24594 0.12875 0.0
C162 C 0.77613 0.13456 0.1152 0.0
C163 C 0.64485 0.12585 0.10966 0.0
O164 O 0.66063 0.14561 0.12362 0.0
O165 O 0.6598 0.12393 0.09191 0.0
O166 O 0.69728 0.22123 0.1432 0.0
O167 O 0.69806 0.23449 0.11016 0.0
O168 O 0.62902 0.99282 0.66241 0.0
Cd169 Cd 0.60926 0.03978 0.6784 0.0
Cd170 Cd 0.56972 0.04564 0.64018 0.0
O171 O 0.59327 0.9928 0.63457 0.0
O172 O 0.63584 0.03168 0.70508 0.0
O173 O 0.5731 0.03011 0.70227 0.0
C174 C 0.60311 0.02604 0.71359 0.0
C175 C 0.50548 0.05881 0.63321 0.0
C176 C 0.61876 0.97736 0.64569 0.0
C177 C 0.62528 0.10843 0.65143 0.0
O178 O 0.60537 0.09212 0.63771 0.0
O179 O 0.628 0.09377 0.66921 0.0
O180 O 0.53014 0.05452 0.61871 0.0
O181 O 0.51713 0.05374 0.65178 0.0
O182 O 0.76027 0.87416 0.4101 0.0
Cd183 Cd 0.71196 0.85587 0.42539 0.0
Cd184 Cd 0.7075 0.81614 0.387 0.0
O185 O 0.76127 0.83846 0.38224 0.0
O186 O 0.71914 0.88359 0.45182 0.0
O187 O 0.71975 0.82073 0.44987 0.0
C188 C 0.72386 0.8512 0.46082 0.0
C189 C 0.69292 0.75201 0.38046 0.0
C190 C 0.77657 0.86355 0.39369 0.0
C191 C 0.64539 0.87322 0.39718 0.0
O192 O 0.66202 0.85288 0.38375 0.0
O193 O 0.6589 0.8755 0.41524 0.0
O194 O 0.69864 0.77599 0.36579 0.0
O195 O 0.69742 0.76422 0.39898 0.0
O196 O 0.8738 0.00796 0.16043 0.0
Cd197 Cd 0.89197 0.96026 0.17631 0.0
Cd198 Cd 0.93383 0.95527 0.13857 0.0
O199 O 0.9115 0.00883 0.13334 0.0
O200 O 0.86239 0.96743 0.20213 0.0
O201 O 0.92527 0.96887 0.2015 0.0
C202 C 0.89398 0.97255 0.21183 0.0
C203 C 0.99811 0.94097 0.13213 0.0
C204 C 0.88521 0.02394 0.14407 0.0
C205 C 0.87642 0.89314 0.14821 0.0
O206 O 0.89732 0.90965 0.135 0.0
O207 O 0.87327 0.90685 0.16619 0.0
O208 O 0.97415 0.94651 0.11743 0.0
O209 O 0.9858 0.94543 0.15062 0.0
O210 O 0.74191 0.12456 0.91109 0.0
Cd211 Cd 0.78946 0.14367 0.9268 0.0
Cd212 Cd 0.79469 0.18432 0.8888 0.0
O213 O 0.74109 0.16185 0.88386 0.0
O214 O 0.78184 0.11697 0.95348 0.0
O215 O 0.78089 0.17975 0.95083 0.0
C216 C 0.77683 0.1497 0.96211 0.0
C217 C 0.80907 0.24778 0.88034 0.0
C218 C 0.72599 0.13568 0.89466 0.0
C219 C 0.85664 0.12695 0.8991 0.0
O220 O 0.8402 0.14756 0.88574 0.0
O221 O 0.8429 0.12432 0.91709 0.0
O222 O 0.80324 0.22227 0.86646 0.0
O223 O 0.805 0.23754 0.89921 0.0
O224 O 0.87358 0.4936 0.66147 0.0
Cd225 Cd 0.89332 0.54095 0.67711 0.0
Cd226 Cd 0.93219 0.54584 0.63823 0.0
O227 O 0.90836 0.49283 0.63328 0.0
O228 O 0.86436 0.53444 0.70319 0.0
O229 O 0.92716 0.53182 0.70206 0.0
C230 C 0.89611 0.52894 0.71266 0.0
C231 C 0.99642 0.55889 0.63116 0.0
C232 C 0.88323 0.4777 0.64477 0.0
C233 C 0.87732 0.60905 0.64955 0.0
O234 O 0.89662 0.59239 0.6357 0.0
O235 O 0.87512 0.59471 0.66742 0.0
O236 O 0.9718 0.55419 0.61669 0.0
O237 O 0.98475 0.55421 0.64976 0.0
O238 O 0.76093 0.62475 0.91164 0.0
Cd239 Cd 0.71262 0.64428 0.9265 0.0
Cd240 Cd 0.70959 0.68335 0.88823 0.0
O241 O 0.76333 0.66066 0.8839 0.0
O242 O 0.71885 0.61749 0.95324 0.0
O243 O 0.72055 0.68025 0.95063 0.0
C244 C 0.72397 0.65014 0.96193 0.0
C245 C 0.6955 0.74756 0.88172 0.0
C246 C 0.7779 0.63522 0.89539 0.0
C247 C 0.64658 0.62716 0.898 0.0
O248 O 0.66393 0.64693 0.88461 0.0
O249 O 0.65947 0.62518 0.9162 0.0
O250 O 0.70149 0.72364 0.86703 0.0
O251 O 0.69951 0.73524 0.90024 0.0
O252 O 0.62744 0.508 0.16122 0.0
Cd253 Cd 0.60837 0.46061 0.17709 0.0
Cd254 Cd 0.56717 0.45533 0.13953 0.0
O255 O 0.58962 0.5088 0.13419 0.0
O256 O 0.63495 0.46851 0.20379 0.0
O257 O 0.57218 0.46939 0.20104 0.0
C258 C 0.60217 0.4736 0.21236 0.0
C259 C 0.50304 0.44095 0.13268 0.0
C260 C 0.61608 0.52386 0.14481 0.0
C261 C 0.62466 0.39332 0.14943 0.0
O262 O 0.60377 0.40973 0.13619 0.0
O263 O 0.62764 0.4071 0.16741 0.0
O264 O 0.52739 0.44633 0.11814 0.0
O265 O 0.51488 0.44561 0.15124 0.0
O266 O 0.74062 0.37398 0.40984 0.0
Cd267 Cd 0.78901 0.35537 0.42493 0.0
Cd268 Cd 0.79297 0.3159 0.38656 0.0
O269 O 0.73927 0.33839 0.38194 0.0
O270 O 0.78228 0.3828 0.45149 0.0
O271 O 0.78145 0.31997 0.44933 0.0
C272 C 0.77763 0.35033 0.46041 0.0
C273 C 0.80738 0.25172 0.38013 0.0
C274 C 0.72416 0.36352 0.39344 0.0
C275 C 0.85532 0.37272 0.39653 0.0
O276 O 0.8385 0.3525 0.38313 0.0
O277 O 0.84202 0.37493 0.41464 0.0
O278 O 0.80155 0.27558 0.36542 0.0
O279 O 0.80306 0.26407 0.39863 0.0
O280 O 0.87785 0.51071 0.84994 0.0
Cd281 Cd 0.89561 0.46377 0.83328 0.0
Cd282 Cd 0.93598 0.45571 0.87194 0.0
O283 O 0.91301 0.50874 0.87796 0.0
O284 O 0.86562 0.47301 0.80779 0.0
O285 O 0.92852 0.47334 0.808 0.0
C286 C 0.89707 0.47833 0.79799 0.0
C287 C 0.99998 0.44152 0.87919 0.0
C288 C 0.88798 0.52514 0.86693 0.0
C289 C 0.87906 0.39442 0.85988 0.0
O290 O 0.89963 0.40958 0.87371 0.0
O291 O 0.87619 0.41001 0.84235 0.0
O292 O 0.97504 0.44554 0.89357 0.0
O293 O 0.98878 0.44736 0.86061 0.0
O294 O 0.74028 0.6241 0.09821 0.0
Cd295 Cd 0.78773 0.64313 0.08241 0.0
Cd296 Cd 0.79458 0.68135 0.12103 0.0
O297 O 0.74141 0.65829 0.1266 0.0
O298 O 0.77921 0.6166 0.05576 0.0
O299 O 0.77895 0.67937 0.05847 0.0
C300 C 0.77434 0.64939 0.04719 0.0
C301 C 0.80862 0.74546 0.12788 0.0
C302 C 0.72523 0.63381 0.11513 0.0
C303 C 0.8564 0.62523 0.10915 0.0
O304 O 0.84072 0.64512 0.1231 0.0
O305 O 0.84132 0.62312 0.09145 0.0
O306 O 0.8042 0.72094 0.14242 0.0
O307 O 0.80318 0.73378 0.10934 0.0
O308 O 0.62557 0.48975 0.34866 0.0
Cd309 Cd 0.60694 0.53743 0.3329 0.0
Cd310 Cd 0.56611 0.54283 0.37084 0.0
O311 O 0.58861 0.48933 0.37604 0.0
O312 O 0.63401 0.52958 0.30631 0.0
O313 O 0.57119 0.52899 0.30872 0.0
C314 C 0.60138 0.5247 0.29756 0.0
C315 C 0.50205 0.5571 0.37794 0.0
C316 C 0.61455 0.474 0.36516 0.0
C317 C 0.62361 0.60473 0.36062 0.0
O318 O 0.60272 0.58849 0.37394 0.0
O319 O 0.6265 0.59078 0.34267 0.0
O320 O 0.52658 0.55183 0.39239 0.0
O321 O 0.51367 0.55243 0.35934 0.0
O322 O 0.75955 0.37853 0.59743 0.0
Cd323 Cd 0.71311 0.35919 0.58086 0.0
Cd324 Cd 0.70482 0.31889 0.61932 0.0
O325 O 0.75741 0.3428 0.62526 0.0
O326 O 0.72246 0.38542 0.55418 0.0
O327 O 0.72279 0.32269 0.55714 0.0
C328 C 0.72754 0.35251 0.54576 0.0
C329 C 0.69151 0.25573 0.62897 0.0
C330 C 0.77365 0.36834 0.6145 0.0
C331 C 0.64328 0.37552 0.60689 0.0
O332 O 0.65832 0.35478 0.62066 0.0
O333 O 0.65912 0.37877 0.58943 0.0
O334 O 0.69536 0.28254 0.64233 0.0
O335 O 0.69676 0.26456 0.60998 0.0
O336 O 0.12768 0.5088 0.34909 0.0
Cd337 Cd 0.11026 0.46109 0.33294 0.0
Cd338 Cd 0.06717 0.45569 0.37024 0.0
O339 O 0.0891 0.50924 0.37583 0.0
O340 O 0.14002 0.46892 0.30722 0.0
O341 O 0.0771 0.46959 0.3077 0.0
C342 C 0.10845 0.47389 0.29748 0.0
C343 C 0.00294 0.44118 0.37666 0.0
C344 C 0.11565 0.52457 0.36539 0.0
C345 C 0.12533 0.39393 0.36098 0.0
O346 O 0.10377 0.41024 0.37397 0.0
O347 O 0.12912 0.40773 0.34306 0.0
O348 O 0.02691 0.44667 0.39135 0.0
O349 O 0.01522 0.44576 0.35817 0.0
O350 O 0.24124 0.37324 0.09904 0.0
Cd351 Cd 0.28955 0.35465 0.08383 0.0
Cd352 Cd 0.29365 0.31503 0.12214 0.0
O353 O 0.2399 0.33737 0.12682 0.0
O354 O 0.28241 0.38177 0.05723 0.0
O355 O 0.28171 0.31896 0.05957 0.0
C356 C 0.27761 0.34919 0.04843 0.0
C357 C 0.3081 0.25097 0.12888 0.0
C358 C 0.22478 0.3626 0.1154 0.0
C359 C 0.35586 0.37215 0.11215 0.0
O360 O 0.33907 0.3518 0.1255 0.0
O361 O 0.34261 0.37438 0.09403 0.0
O362 O 0.30231 0.27512 0.14347 0.0
O363 O 0.30379 0.26297 0.11032 0.0
O364 O 0.3756 0.49042 0.84923 0.0
Cd365 Cd 0.39288 0.53753 0.83255 0.0
Cd366 Cd 0.43457 0.54567 0.8706 0.0
O367 O 0.41197 0.4926 0.8768 0.0
O368 O 0.36304 0.52853 0.80698 0.0
O369 O 0.42594 0.52848 0.8073 0.0
C370 C 0.39458 0.52369 0.79718 0.0
C371 C 0.49868 0.55992 0.87751 0.0
C372 C 0.38652 0.47607 0.8661 0.0
C373 C 0.37706 0.60683 0.85931 0.0
O374 O 0.39825 0.59173 0.87287 0.0
O375 O 0.37349 0.5912 0.84181 0.0
O376 O 0.47403 0.5557 0.89201 0.0
O377 O 0.48714 0.55426 0.85898 0.0
O378 O 0.2587 0.62456 0.59857 0.0
Cd379 Cd 0.2111 0.64303 0.5827 0.0
Cd380 Cd 0.20563 0.68457 0.62079 0.0
O381 O 0.25916 0.66206 0.62575 0.0
O382 O 0.21914 0.61602 0.55611 0.0
O383 O 0.21963 0.67884 0.55858 0.0
C384 C 0.22406 0.64868 0.5474 0.0
C385 C 0.19164 0.74783 0.62996 0.0
C386 C 0.27445 0.63591 0.61501 0.0
C387 C 0.14388 0.62664 0.61044 0.0
O388 O 0.16008 0.64778 0.62366 0.0
O389 O 0.15775 0.62352 0.59249 0.0
O390 O 0.1972 0.72175 0.64355 0.0
O391 O 0.19559 0.73825 0.61098 0.0
O392 O 0.12667 0.4886 0.16047 0.0
Cd393 Cd 0.10913 0.53639 0.17649 0.0
Cd394 Cd 0.06694 0.54189 0.13825 0.0
O395 O 0.08936 0.4883 0.13322 0.0
O396 O 0.13917 0.52887 0.20213 0.0
O397 O 0.07628 0.52801 0.20189 0.0
C398 C 0.10774 0.524 0.21202 0.0
C399 C 0.00344 0.55612 0.1297 0.0
C400 C 0.11534 0.47288 0.14402 0.0
C401 C 0.12484 0.60363 0.14844 0.0
O402 O 0.10369 0.58744 0.13523 0.0
O403 O 0.12812 0.58967 0.16636 0.0
O404 O 0.02905 0.55045 0.11586 0.0
O405 O 0.01361 0.55205 0.14858 0.0
O406 O 0.26204 0.37627 0.91257 0.0
Cd407 Cd 0.21421 0.35681 0.92792 0.0
Cd408 Cd 0.21009 0.31717 0.88987 0.0
O409 O 0.26363 0.33984 0.885 0.0
O410 O 0.22147 0.38317 0.95474 0.0
O411 O 0.22272 0.32044 0.95181 0.0
C412 C 0.22666 0.35035 0.96322 0.0
C413 C 0.19584 0.25305 0.88313 0.0
C414 C 0.27849 0.36555 0.89621 0.0
C415 C 0.14755 0.37385 0.89991 0.0
O416 O 0.16447 0.35368 0.88652 0.0
O417 O 0.16081 0.3761 0.91803 0.0
O418 O 0.20148 0.27721 0.86854 0.0
O419 O 0.20025 0.26506 0.90168 0.0
O420 O 0.37507 0.51102 0.6604 0.0
Cd421 Cd 0.39329 0.46295 0.67593 0.0
Cd422 Cd 0.43317 0.45839 0.63675 0.0
O423 O 0.41012 0.51183 0.63229 0.0
O424 O 0.36348 0.46973 0.70172 0.0
O425 O 0.42635 0.47107 0.70128 0.0
C426 C 0.39497 0.47461 0.71154 0.0
C427 C 0.49651 0.44462 0.62785 0.0
C428 C 0.38522 0.52713 0.64385 0.0
C429 C 0.37672 0.39595 0.64771 0.0
O430 O 0.39675 0.41256 0.63416 0.0
O431 O 0.37444 0.40966 0.66573 0.0
O432 O 0.47065 0.45019 0.61412 0.0
O433 O 0.48665 0.44863 0.64679 0.0
O434 O 0.24022 0.62382 0.41155 0.0
Cd435 Cd 0.28824 0.64249 0.42698 0.0
Cd436 Cd 0.29274 0.68274 0.38903 0.0
O437 O 0.23912 0.6604 0.38403 0.0
O438 O 0.28072 0.6157 0.45366 0.0
O439 O 0.28002 0.67849 0.45106 0.0
C440 C 0.27578 0.64842 0.46231 0.0
C441 C 0.3072 0.74686 0.3824 0.0
C442 C 0.22395 0.6348 0.3952 0.0
C443 C 0.35486 0.62544 0.39887 0.0
O444 O 0.33819 0.64605 0.38559 0.0
O445 O 0.34146 0.62288 0.41695 0.0
O446 O 0.30152 0.72276 0.36777 0.0
O447 O 0.30277 0.73478 0.40093 0.0
C448 C 0.42816 0.99525 0.26654 0.0
C449 C 0.39378 0.98509 0.27643 0.0
C450 C 0.42839 0.00826 0.24616 0.0
C451 C 0.39421 0.01181 0.23487 0.0
H452 H 0.45516 0.99349 0.27463 0.0
H453 H 0.45557 0.01568 0.23924 0.0
S454 S 0.29648 0.98757 0.2534 0.0
N455 N 0.32467 0.97854 0.27303 0.0
N456 N 0.32504 0.00302 0.23509 0.0
C457 C 0.35967 0.00141 0.24456 0.0
C458 C 0.35947 0.98804 0.2652 0.0
C459 C 0.26006 0.17836 0.51652 0.0
C460 C 0.26558 0.14386 0.52729 0.0
C461 C 0.24682 0.17849 0.49618 0.0
C462 C 0.23841 0.14414 0.48581 0.0
H463 H 0.26594 0.20555 0.52384 0.0
H464 H 0.24338 0.20576 0.48853 0.0
S465 S 0.24727 0.04592 0.50722 0.0
N466 N 0.26112 0.07433 0.52595 0.0
N467 N 0.23622 0.07459 0.48809 0.0
C468 C 0.2436 0.10946 0.49647 0.0
C469 C 0.25719 0.10932 0.51708 0.0
C470 C 0.13568 0.00791 0.76704 0.0
C471 C 0.10144 0.01489 0.77778 0.0
C472 C 0.13547 0.99521 0.74675 0.0
C473 C 0.10103 0.98894 0.73609 0.0
H474 H 0.16318 0.01202 0.77437 0.0
H475 H 0.16284 0.99047 0.73937 0.0
S476 S 0.00318 0.00301 0.75704 0.0
N477 N 0.03185 0.01453 0.77616 0.0
N478 N 0.03146 0.99086 0.73786 0.0
C479 C 0.06643 0.99584 0.74656 0.0
C480 C 0.06663 0.00877 0.76739 0.0
C481 C 0.26047 0.82198 0.99622 0.0
C482 C 0.26497 0.85641 0.98526 0.0
C483 C 0.24729 0.82186 0.01658 0.0
C484 C 0.23791 0.85616 0.02678 0.0
H485 H 0.26721 0.79484 0.98906 0.0
H486 H 0.24474 0.79466 0.02441 0.0
S487 S 0.24336 0.95412 1.00471 0.0
N488 N 0.25814 0.92577 0.98615 0.0
N489 N 0.23335 0.92553 0.02404 0.0
C490 C 0.24192 0.89074 0.01588 0.0
C491 C 0.25546 0.89088 0.99527 0.0
C492 C 0.63526 0.99356 0.76626 0.0
C493 C 0.60088 0.98614 0.77678 0.0
C494 C 0.63534 0.00689 0.74609 0.0
C495 C 0.60105 0.01339 0.73533 0.0
H496 H 0.66265 0.98934 0.77368 0.0
H497 H 0.66281 0.01194 0.73888 0.0
S498 S 0.50292 0.99828 0.75567 0.0
N499 N 0.53131 0.98628 0.77483 0.0
N500 N 0.53147 0.01114 0.73674 0.0
C501 C 0.56631 0.00601 0.74556 0.0
C502 C 0.56622 0.99245 0.76627 0.0
C503 C 0.74235 0.88475 0.49306 0.0
C504 C 0.73579 0.85003 0.48269 0.0
C505 C 0.75546 0.88546 0.51326 0.0
C506 C 0.76257 0.85151 0.52421 0.0
H507 H 0.73764 0.91191 0.48548 0.0
H508 H 0.75988 0.91315 0.52035 0.0
S509 S 0.74976 0.75274 0.50431 0.0
N510 N 0.73736 0.78053 0.48499 0.0
N511 N 0.7618 0.78188 0.52314 0.0
C512 C 0.75601 0.81644 0.51414 0.0
C513 C 0.74267 0.81571 0.49339 0.0
C514 C 0.92821 0.00641 0.26433 0.0
C515 C 0.89383 0.01102 0.27534 0.0
C516 C 0.9282 0.9934 0.24394 0.0
C517 C 0.89382 0.9843 0.23376 0.0
H518 H 0.95541 0.01293 0.27147 0.0
H519 H 0.95537 0.99074 0.23608 0.0
S520 S 0.79591 0.99027 0.25592 0.0
N521 N 0.8244 0.00469 0.27449 0.0
N522 N 0.82441 0.9802 0.23654 0.0
C523 C 0.85928 0.98843 0.2447 0.0
C524 C 0.85927 0.0018 0.26535 0.0
C525 C 0.75857 0.11738 0.99473 0.0
C526 C 0.76484 0.1517 0.98396 0.0
C527 C 0.74565 0.11741 0.01498 0.0
C528 C 0.73844 0.15176 0.02556 0.0
H529 H 0.76343 0.08994 0.98746 0.0
H530 H 0.74152 0.08999 0.02239 0.0
S531 S 0.75036 0.24977 1.00451 0.0
N532 N 0.76278 0.22128 0.98547 0.0
N533 N 0.73869 0.22133 0.0237 0.0
C534 C 0.74463 0.18645 0.01507 0.0
C535 C 0.75778 0.18642 0.99428 0.0
C536 C 0.93053 0.5066 0.74441 0.0
C537 C 0.89631 0.5177 0.73466 0.0
C538 C 0.93068 0.49378 0.76483 0.0
C539 C 0.89658 0.49137 0.77628 0.0
H540 H 0.95742 0.50738 0.73617 0.0
H541 H 0.95771 0.48548 0.77162 0.0
S542 S 0.7994 0.51873 0.75822 0.0
N543 N 0.82753 0.52662 0.73841 0.0
N544 N 0.82775 0.50251 0.77642 0.0
C545 C 0.86225 0.50286 0.76676 0.0
C546 C 0.86213 0.51603 0.74608 0.0
C547 C 0.75426 0.61731 0.01482 0.0
C548 C 0.76198 0.65153 0.02542 0.0
C549 C 0.74136 0.61752 0.99458 0.0
C550 C 0.73562 0.65194 0.98382 0.0
H551 H 0.75803 0.58982 0.02221 0.0
H552 H 0.73617 0.59016 0.98728 0.0
S553 S 0.75137 0.74975 1.00445 0.0
N554 N 0.76263 0.7211 0.02362 0.0
N555 N 0.73858 0.72148 0.98539 0.0
C556 C 0.74309 0.68654 0.99418 0.0
C557 C 0.75621 0.68633 0.01497 0.0
C558 C 0.63408 0.50577 0.26514 0.0
C559 C 0.59965 0.51254 0.27573 0.0
C560 C 0.63427 0.49271 0.24491 0.0
C561 C 0.60003 0.48585 0.23416 0.0
H562 H 0.66145 0.51034 0.27254 0.0
H563 H 0.66177 0.48819 0.23764 0.0
S564 S 0.50178 0.4991 0.25472 0.0
N565 N 0.53008 0.5113 0.27388 0.0
N566 N 0.53043 0.48696 0.23569 0.0
C567 C 0.56523 0.49253 0.24448 0.0
C568 C 0.56503 0.50582 0.26525 0.0
C569 C 0.7473 0.38408 0.51317 0.0
C570 C 0.74002 0.35003 0.52401 0.0
C571 C 0.76007 0.38355 0.4929 0.0
C572 C 0.76612 0.34894 0.48235 0.0
H573 H 0.74322 0.41169 0.52039 0.0
H574 H 0.7649 0.41078 0.48541 0.0
S575 S 0.75166 0.25145 0.50364 0.0
N576 N 0.74018 0.28042 0.52265 0.0
N577 N 0.764 0.27942 0.48437 0.0
C578 C 0.75914 0.31451 0.49294 0.0
C579 C 0.74614 0.31506 0.51376 0.0
C580 C 0.07409 0.49162 0.26489 0.0
C581 C 0.10863 0.48604 0.27561 0.0
C582 C 0.07389 0.5044 0.24446 0.0
C583 C 0.10823 0.51226 0.23395 0.0
H584 H 0.04691 0.48614 0.27231 0.0
H585 H 0.04658 0.50792 0.23686 0.0
S586 S 0.20658 0.50288 0.25516 0.0
N587 N 0.1782 0.48976 0.27405 0.0
N588 N 0.17783 0.5138 0.23603 0.0
C589 C 0.14296 0.50698 0.24456 0.0
C590 C 0.14316 0.49386 0.26525 0.0
C591 C 0.25875 0.38202 0.01605 0.0
C592 C 0.26558 0.34754 0.02658 0.0
C593 C 0.24567 0.38229 0.99584 0.0
C594 C 0.23885 0.3481 0.98503 0.0
H595 H 0.26327 0.40935 0.0235 0.0
H596 H 0.24112 0.40982 0.98862 0.0
S597 S 0.25227 0.24978 0.0054 0.0
N598 N 0.26444 0.27798 0.0246 0.0
N599 N 0.24007 0.2785 0.98643 0.0
C600 C 0.2456 0.31326 0.99527 0.0
C601 C 0.2589 0.31297 0.01604 0.0
C602 C 0.42882 0.50655 0.76444 0.0
C603 C 0.39433 0.51146 0.77532 0.0
C604 C 0.42895 0.49408 0.74396 0.0
C605 C 0.3946 0.48587 0.73354 0.0
H606 H 0.456 0.51242 0.77177 0.0
H607 H 0.45621 0.49114 0.73622 0.0
S608 S 0.29641 0.49327 0.7552 0.0
N609 N 0.32481 0.50657 0.77404 0.0
N610 N 0.32507 0.48311 0.73591 0.0
C611 C 0.35994 0.49037 0.74433 0.0
C612 C 0.3598 0.50318 0.76508 0.0
C613 C 0.24351 0.61616 0.51501 0.0
C614 C 0.23643 0.65052 0.52561 0.0
C615 C 0.25677 0.6161 0.49482 0.0
C616 C 0.26351 0.65041 0.48412 0.0
H617 H 0.23903 0.58875 0.52238 0.0
H618 H 0.2615 0.58865 0.48753 0.0
S619 S 0.24944 0.74851 0.5047 0.0
N620 N 0.23725 0.72009 0.52381 0.0
N621 N 0.26195 0.71999 0.48569 0.0
C622 C 0.25654 0.68514 0.49444 0.0
C623 C 0.24305 0.6852 0.51517 0.0
C624 C 0.36021 0.93264 0.11752 0.0
C625 C 0.36588 0.93857 0.13856 0.0
C626 C 0.33301 0.90626 0.11051 0.0
C627 C 0.31092 0.88445 0.12426 0.0
H628 H 0.37482 0.95037 0.10639 0.0
H629 H 0.32794 0.90435 0.09419 0.0
S630 S 0.31994 0.88456 0.18082 0.0
N631 N 0.35094 0.91712 0.17303 0.0
N632 N 0.30015 0.86715 0.15986 0.0
C633 C 0.31892 0.88757 0.14528 0.0
C634 C 0.34629 0.91479 0.15242 0.0
C635 C 0.31496 0.1076 0.36728 0.0
C636 C 0.30994 0.11386 0.38834 0.0
C637 C 0.34129 0.08047 0.36014 0.0
C638 C 0.36395 0.059 0.37377 0.0
H639 H 0.29661 0.12173 0.35627 0.0
H640 H 0.34251 0.07497 0.34384 0.0
S641 S 0.3664 0.06976 0.43023 0.0
N642 N 0.33316 0.10018 0.42263 0.0
N643 N 0.38301 0.04949 0.40921 0.0
C644 C 0.3617 0.06759 0.39476 0.0
C645 C 0.33455 0.09491 0.40204 0.0
C646 C 0.16064 0.08144 0.65209 0.0
C647 C 0.13837 0.05962 0.63842 0.0
C648 C 0.18711 0.10844 0.64497 0.0
C649 C 0.19266 0.1142 0.62391 0.0
H650 H 0.15896 0.07636 0.66841 0.0
H651 H 0.20515 0.12289 0.65602 0.0
S652 S 0.13749 0.06901 0.58187 0.0
N653 N 0.12033 0.04923 0.60288 0.0
N654 N 0.17048 0.09965 0.58954 0.0
C655 C 0.16852 0.09486 0.61015 0.0
C656 C 0.14121 0.06768 0.61739 0.0
C657 C 0.15952 0.91944 0.86099 0.0
C658 C 0.13773 0.94152 0.87476 0.0
C659 C 0.18592 0.89226 0.86798 0.0
C660 C 0.1919 0.8866 0.88902 0.0
H661 H 0.15755 0.92448 0.84467 0.0
H662 H 0.2036 0.87761 0.85684 0.0
S663 S 0.13804 0.93262 0.93133 0.0
N664 N 0.12056 0.95236 0.91038 0.0
N665 N 0.17058 0.90161 0.92351 0.0
C666 C 0.16819 0.90622 0.9029 0.0
C667 C 0.14094 0.93357 0.89578 0.0
C668 C 0.67057 0.0921 0.90093 0.0
C669 C 0.69207 0.11443 0.88716 0.0
C670 C 0.64352 0.06552 0.89396 0.0
C671 C 0.63743 0.05991 0.87293 0.0
H672 H 0.67595 0.09381 0.91723 0.0
H673 H 0.62933 0.04746 0.90509 0.0
S674 S 0.68176 0.1152 0.83066 0.0
N675 N 0.70182 0.13247 0.85158 0.0
N676 N 0.65135 0.08211 0.83848 0.0
C677 C 0.65646 0.08412 0.85906 0.0
C678 C 0.68366 0.11154 0.86617 0.0
C679 C 0.64518 0.93869 0.61689 0.0
C680 C 0.64043 0.94391 0.63806 0.0
C681 C 0.67204 0.91257 0.60926 0.0
C682 C 0.69471 0.89029 0.62249 0.0
H683 H 0.62991 0.95662 0.60612 0.0
H684 H 0.67624 0.91108 0.59286 0.0
S685 S 0.68864 0.88883 0.67917 0.0
N686 N 0.65721 0.92155 0.67211 0.0
N687 N 0.70737 0.87208 0.65779 0.0
C688 C 0.68786 0.8929 0.64365 0.0
C689 C 0.66084 0.91986 0.65143 0.0
C690 C 0.81683 0.89061 0.36571 0.0
C691 C 0.81087 0.88468 0.38672 0.0
C692 C 0.84336 0.91776 0.3588 0.0
C693 C 0.86529 0.93956 0.37264 0.0
H694 H 0.79903 0.87624 0.35453 0.0
H695 H 0.84529 0.92303 0.3425 0.0
S696 S 0.86522 0.92966 0.42915 0.0
N697 N 0.83246 0.89898 0.42124 0.0
N698 N 0.8827 0.94968 0.40827 0.0
C699 C 0.86214 0.93127 0.39362 0.0
C700 C 0.83477 0.90394 0.40066 0.0
C701 C 0.8152 0.10652 0.14339 0.0
C702 C 0.81009 0.1131 0.12236 0.0
C703 C 0.84157 0.0793 0.15036 0.0
C704 C 0.8642 0.05804 0.13661 0.0
H705 H 0.79691 0.1205 0.15449 0.0
H706 H 0.84288 0.07359 0.16664 0.0
S707 S 0.86641 0.06963 0.08019 0.0
N708 N 0.83318 0.09992 0.08798 0.0
N709 N 0.8831 0.04905 0.10109 0.0
C710 C 0.86184 0.06691 0.11566 0.0
C711 C 0.83464 0.09434 0.10854 0.0
C712 C 0.83026 0.41086 0.6092 0.0
C713 C 0.80686 0.38984 0.62267 0.0
C714 C 0.85717 0.43724 0.61653 0.0
C715 C 0.86127 0.444 0.63762 0.0
H716 H 0.82664 0.40816 0.59281 0.0
H717 H 0.87305 0.45413 0.60554 0.0
S718 S 0.81072 0.39273 0.67938 0.0
N719 N 0.79259 0.37459 0.65818 0.0
N720 N 0.84288 0.42444 0.67195 0.0
C721 C 0.84004 0.42122 0.65129 0.0
C722 C 0.81293 0.39403 0.64382 0.0
C723 C 0.8459 0.58173 0.86079 0.0
C724 C 0.8668 0.55896 0.87463 0.0
C725 C 0.81927 0.60879 0.86768 0.0
C726 C 0.81217 0.61372 0.88867 0.0
H727 H 0.84875 0.57735 0.84446 0.0
H728 H 0.80234 0.624 0.85643 0.0
S729 S 0.86352 0.56584 0.93125 0.0
N730 N 0.88197 0.54672 0.91036 0.0
N731 N 0.83158 0.59731 0.92329 0.0
C732 C 0.835 0.59341 0.90269 0.0
C733 C 0.86247 0.56614 0.89567 0.0
C734 C 0.68658 0.60604 0.14357 0.0
C735 C 0.69139 0.61241 0.1225 0.0
C736 C 0.66021 0.57899 0.15075 0.0
C737 C 0.63728 0.55771 0.13716 0.0
H738 H 0.70507 0.62009 0.15455 0.0
H739 H 0.6591 0.57346 0.16704 0.0
S740 S 0.63434 0.56868 0.08071 0.0
N741 N 0.6678 0.59893 0.08827 0.0
N742 N 0.61786 0.5484 0.10175 0.0
C743 C 0.6394 0.56633 0.11617 0.0
C744 C 0.66661 0.59357 0.10885 0.0
C745 C 0.68395 0.39091 0.36555 0.0
C746 C 0.68995 0.38486 0.38655 0.0
C747 C 0.65747 0.41815 0.3587 0.0
C748 C 0.63563 0.43993 0.37259 0.0
H749 H 0.70166 0.37652 0.35432 0.0
H750 H 0.65548 0.42348 0.34241 0.0
S751 S 0.63592 0.42986 0.4291 0.0
N752 N 0.66857 0.39912 0.42111 0.0
N753 N 0.61841 0.44999 0.40826 0.0
C754 C 0.63886 0.43158 0.39356 0.0
C755 C 0.66618 0.40415 0.40054 0.0
C756 C 0.15842 0.58075 0.3596 0.0
C757 C 0.13627 0.55863 0.37317 0.0
C758 C 0.1846 0.60794 0.36683 0.0
C759 C 0.18999 0.61355 0.38791 0.0
H760 H 0.15692 0.57573 0.34327 0.0
H761 H 0.20258 0.62262 0.35584 0.0
S762 S 0.13498 0.56745 0.42974 0.0
N763 N 0.11809 0.54772 0.40864 0.0
N764 N 0.16774 0.59847 0.42221 0.0
C765 C 0.16591 0.59389 0.40159 0.0
C766 C 0.13887 0.56654 0.39422 0.0
C767 C 0.18453 0.38966 0.14339 0.0
C768 C 0.19055 0.38382 0.12237 0.0
C769 C 0.15806 0.41684 0.15032 0.0
C770 C 0.13622 0.43875 0.13651 0.0
H771 H 0.20225 0.37517 0.15456 0.0
H772 H 0.15608 0.42203 0.16663 0.0
S773 S 0.1365 0.4292 0.07997 0.0
N774 N 0.16915 0.39838 0.08785 0.0
N775 N 0.11899 0.44913 0.10087 0.0
C776 C 0.13944 0.43058 0.11551 0.0
C777 C 0.16676 0.40323 0.10844 0.0
C778 C 0.34438 0.41928 0.8606 0.0
C779 C 0.36585 0.4422 0.87411 0.0
C780 C 0.31829 0.39206 0.8679 0.0
C781 C 0.31231 0.38716 0.88899 0.0
H782 H 0.34636 0.42363 0.84423 0.0
H783 H 0.30086 0.37673 0.85691 0.0
S784 S 0.36553 0.43548 0.93077 0.0
N785 N 0.38279 0.45464 0.90961 0.0
N786 N 0.33337 0.40379 0.9233 0.0
C787 C 0.33572 0.40765 0.90265 0.0
C788 C 0.36265 0.43506 0.89522 0.0
C789 C 0.35782 0.56691 0.6158 0.0
C790 C 0.3637 0.56112 0.63683 0.0
C791 C 0.33051 0.59318 0.60881 0.0
C792 C 0.3085 0.61502 0.62258 0.0
H793 H 0.37243 0.54921 0.60465 0.0
H794 H 0.32535 0.59502 0.5925 0.0
S795 S 0.31785 0.61517 0.67913 0.0
N796 N 0.3489 0.58267 0.67131 0.0
N797 N 0.29788 0.63242 0.65818 0.0
C798 C 0.31661 0.61198 0.64359 0.0
C799 C 0.3441 0.58487 0.65071 0.0
C800 C 0.34344 0.16473 0.15896 0.0
C801 C 0.35668 0.13973 0.14365 0.0
C802 C 0.32663 0.20001 0.15399 0.0
C803 C 0.32207 0.21168 0.13349 0.0
H804 H 0.34704 0.15757 0.17495 0.0
H805 H 0.31794 0.21863 0.1664 0.0
S806 S 0.34842 0.155 0.08755 0.0
N807 N 0.36152 0.12796 0.10701 0.0
N808 N 0.32991 0.19405 0.09775 0.0
C809 C 0.33369 0.18624 0.11801 0.0
C810 C 0.35102 0.15039 0.12306 0.0
C811 C 0.09576 0.10378 0.37578 0.0
C812 C 0.10827 0.10581 0.39625 0.0
C813 C 0.06084 0.08662 0.37056 0.0
C814 C 0.03667 0.07096 0.38558 0.0
H815 H 0.11285 0.11597 0.36359 0.0
H816 H 0.05227 0.08669 0.35463 0.0
S817 S 0.05688 0.06646 0.44132 0.0
N818 N 0.09433 0.08876 0.43156 0.0
N819 N 0.02862 0.05673 0.42177 0.0
C820 C 0.04925 0.07169 0.40606 0.0
C821 C 0.08502 0.08901 0.41138 0.0
C822 C 0.14611 0.84622 0.62639 0.0
C823 C 0.14419 0.85844 0.64692 0.0
C824 C 0.16285 0.81119 0.62101 0.0
C825 C 0.17818 0.78662 0.63592 0.0
H826 H 0.13416 0.86364 0.61428 0.0
H827 H 0.16272 0.80289 0.60504 0.0
S828 S 0.18276 0.80589 0.69176 0.0
N829 N 0.16095 0.84376 0.68217 0.0
N830 N 0.19222 0.77782 0.67209 0.0
C831 C 0.17756 0.79888 0.65647 0.0
C832 C 0.16067 0.83477 0.66195 0.0
C833 C 0.4538 0.92377 0.90435 0.0
C834 C 0.46539 0.92846 0.88385 0.0
C835 C 0.4184 0.9072 0.90934 0.0
C836 C 0.3932 0.89433 0.89404 0.0
H837 H 0.47256 0.93218 0.91675 0.0
H838 H 0.41129 0.90349 0.92534 0.0
S839 S 0.40823 0.90303 0.83794 0.0
N840 N 0.4475 0.92112 0.84811 0.0
N841 N 0.38119 0.88996 0.85742 0.0
C842 C 0.4038 0.90011 0.87345 0.0
C843 C 0.43977 0.91719 0.86838 0.0
C844 C 0.32497 0.79817 0.35735 0.0
C845 C 0.32111 0.78618 0.37783 0.0
C846 C 0.34167 0.83349 0.35237 0.0
C847 C 0.35553 0.85821 0.36765 0.0
H848 H 0.31577 0.77978 0.34495 0.0
H849 H 0.34469 0.84091 0.33637 0.0
S850 S 0.34937 0.842 0.42374 0.0
N851 N 0.33036 0.80317 0.41357 0.0
N852 N 0.3618 0.86935 0.40427 0.0
C853 C 0.35062 0.84721 0.38824 0.0
C854 C 0.33339 0.81133 0.39331 0.0
C855 C 0.41922 0.09362 0.60302 0.0
C856 C 0.39365 0.10569 0.61833 0.0
C857 C 0.4547 0.07728 0.60801 0.0
C858 C 0.46598 0.07201 0.62852 0.0
H859 H 0.41237 0.09788 0.58703 0.0
H860 H 0.47379 0.06956 0.59562 0.0
S861 S 0.40763 0.09492 0.67439 0.0
N862 N 0.38083 0.10847 0.65492 0.0
N863 N 0.44731 0.07769 0.66423 0.0
C864 C 0.43993 0.08233 0.64398 0.0
C865 C 0.40388 0.09921 0.6389 0.0
C866 C 0.16031 0.16685 0.85307 0.0
C867 C 0.14702 0.14191 0.86838 0.0
C868 C 0.17722 0.20209 0.85803 0.0
C869 C 0.18187 0.21375 0.87852 0.0
H870 H 0.15661 0.15969 0.83707 0.0
H871 H 0.18591 0.22068 0.84562 0.0
S872 S 0.15558 0.1571 0.92447 0.0
N873 N 0.14231 0.13011 0.905 0.0
N874 N 0.17415 0.19612 0.91427 0.0
C875 C 0.17025 0.18833 0.89401 0.0
C876 C 0.1528 0.15254 0.88896 0.0
C877 C 0.08531 0.90693 0.10238 0.0
C878 C 0.10985 0.89306 0.11774 0.0
C879 C 0.04986 0.92349 0.10725 0.0
C880 C 0.03754 0.92719 0.12769 0.0
H881 H 0.09299 0.90403 0.08641 0.0
H882 H 0.03163 0.93271 0.09479 0.0
S883 S 0.09274 0.8988 0.17378 0.0
N884 N 0.12043 0.88659 0.15439 0.0
N885 N 0.05401 0.91776 0.16348 0.0
C886 C 0.0625 0.9149 0.14325 0.0
C887 C 0.09852 0.89781 0.13829 0.0
C888 C 0.67665 0.79872 0.85679 0.0
C889 C 0.68155 0.78691 0.87724 0.0
C890 C 0.65971 0.83401 0.85196 0.0
C891 C 0.64668 0.85889 0.86738 0.0
H892 H 0.68512 0.78018 0.8443 0.0
H893 H 0.65581 0.84126 0.836 0.0
S894 S 0.65601 0.84333 0.92341 0.0
N895 N 0.67437 0.80435 0.91305 0.0
N896 N 0.64252 0.87046 0.90405 0.0
C897 C 0.65274 0.84812 0.88792 0.0
C898 C 0.67019 0.81226 0.89282 0.0
C899 C 0.94104 0.91598 0.63902 0.0
C900 C 0.96614 0.931 0.62427 0.0
C901 C 0.90616 0.89924 0.6334 0.0
C902 C 0.89462 0.89706 0.61277 0.0
H903 H 0.94884 0.91599 0.65506 0.0
H904 H 0.88833 0.88748 0.6454 0.0
S905 S 0.94861 0.93501 0.56826 0.0
N906 N 0.9761 0.94463 0.58814 0.0
N907 N 0.91037 0.9134 0.5776 0.0
C908 C 0.91875 0.91336 0.59789 0.0
C909 C 0.95451 0.93022 0.60362 0.0
C910 C 0.82562 0.20016 0.35529 0.0
C911 C 0.82144 0.21237 0.37572 0.0
C912 C 0.84252 0.16484 0.35047 0.0
C913 C 0.85627 0.14035 0.36588 0.0
H914 H 0.81654 0.21838 0.3428 0.0
H915 H 0.8458 0.15724 0.33451 0.0
S916 S 0.84924 0.15717 0.42191 0.0
N917 N 0.83024 0.19581 0.41154 0.0
N918 N 0.86204 0.12966 0.40256 0.0
C919 C 0.85102 0.15156 0.38642 0.0
C920 C 0.83359 0.18744 0.39132 0.0
C921 C 0.59572 0.10313 0.13481 0.0
C922 C 0.60852 0.10535 0.11439 0.0
C923 C 0.56076 0.08584 0.13986 0.0
C924 C 0.53687 0.07021 0.12471 0.0
H925 H 0.61257 0.1153 0.1471 0.0
H926 H 0.55197 0.08579 0.15575 0.0
S927 S 0.55793 0.06613 0.06904 0.0
N928 N 0.59516 0.08849 0.079 0.0
N929 N 0.52941 0.05618 0.08846 0.0
C930 C 0.54976 0.0711 0.10428 0.0
C931 C 0.58554 0.08857 0.09914 0.0
C932 C 0.66452 0.19147 0.62022 0.0
C933 C 0.67843 0.21692 0.63512 0.0
C934 C 0.64804 0.15637 0.6257 0.0
C935 C 0.64502 0.14495 0.64632 0.0
H936 H 0.66526 0.19913 0.60417 0.0
H937 H 0.63717 0.13824 0.61358 0.0
S938 S 0.67975 0.19997 0.69122 0.0
N939 N 0.68999 0.22742 0.67141 0.0
N940 N 0.65924 0.16133 0.68167 0.0
C941 C 0.66013 0.1695 0.66136 0.0
C942 C 0.67673 0.20546 0.65578 0.0
C943 C 0.54925 0.92349 0.40242 0.0
C944 C 0.53711 0.92796 0.38201 0.0
C945 C 0.58467 0.90678 0.40718 0.0
C946 C 0.60936 0.89354 0.39173 0.0
H947 H 0.53089 0.93218 0.41495 0.0
H948 H 0.59218 0.90325 0.42314 0.0
S949 S 0.5928 0.90155 0.33573 0.0
N950 N 0.55393 0.92002 0.34615 0.0
N951 N 0.62032 0.88859 0.35503 0.0
C952 C 0.59823 0.89911 0.3712 0.0
C953 C 0.56223 0.91634 0.36637 0.0
C954 C 0.8269 0.79654 0.15297 0.0
C955 C 0.82227 0.78486 0.13248 0.0
C956 C 0.84342 0.83196 0.15792 0.0
C957 C 0.85634 0.85708 0.1426 0.0
H958 H 0.81846 0.77784 0.16538 0.0
H959 H 0.84708 0.83915 0.17391 0.0
S960 S 0.84785 0.8418 0.08652 0.0
N961 N 0.82972 0.80258 0.09672 0.0
N962 N 0.86085 0.86894 0.10597 0.0
C963 C 0.85063 0.8464 0.12202 0.0
C964 C 0.83356 0.81042 0.11698 0.0
C965 C 0.9532 0.07744 0.90413 0.0
C966 C 0.96496 0.07258 0.88367 0.0
C967 C 0.91775 0.09401 0.909 0.0
C968 C 0.89268 0.10671 0.8936 0.0
H969 H 0.97186 0.06918 0.9166 0.0
H970 H 0.91051 0.09789 0.92497 0.0
S971 S 0.90812 0.09738 0.83757 0.0
N972 N 0.94734 0.07947 0.84787 0.0
N973 N 0.88092 0.11065 0.85695 0.0
C974 C 0.90343 0.10071 0.87306 0.0
C975 C 0.93945 0.08362 0.86811 0.0
C976 C 0.83832 0.69269 0.6187 0.0
C977 C 0.82382 0.7176 0.63371 0.0
C978 C 0.85498 0.65758 0.62401 0.0
C979 C 0.85763 0.64566 0.64456 0.0
H980 H 0.83787 0.70079 0.60271 0.0
H981 H 0.86628 0.63988 0.61183 0.0
S982 S 0.82141 0.6992 0.68967 0.0
N983 N 0.81137 0.72705 0.67 0.0
N984 N 0.84248 0.66101 0.67995 0.0
C985 C 0.842 0.6697 0.65969 0.0
C986 C 0.82519 0.70563 0.65428 0.0
C987 C 0.58503 0.59477 0.90765 0.0
C988 C 0.61046 0.60719 0.89235 0.0
C989 C 0.54955 0.57842 0.90267 0.0
C990 C 0.5381 0.57348 0.88217 0.0
H991 H 0.59202 0.59868 0.92365 0.0
H992 H 0.53063 0.57034 0.91506 0.0
S993 S 0.59575 0.59782 0.83626 0.0
N994 N 0.62277 0.61095 0.85574 0.0
N995 N 0.55628 0.58017 0.84643 0.0
C996 C 0.56392 0.5843 0.8667 0.0
C997 C 0.59998 0.60118 0.87177 0.0
C998 C 0.65739 0.33194 0.15907 0.0
C999 C 0.64493 0.35739 0.1438 0.0
C1000 C 0.67396 0.29657 0.15403 0.0
C1001 C 0.6791 0.28529 0.13351 0.0
H1002 H 0.65329 0.33882 0.17508 0.0
H1003 H 0.68201 0.27758 0.1664 0.0
S1004 S 0.65501 0.34329 0.0877 0.0
N1005 N 0.64151 0.37004 0.10722 0.0
N1006 N 0.67272 0.3038 0.09781 0.0
C1007 C 0.66832 0.31121 0.11808 0.0
C1008 C 0.6512 0.34712 0.12321 0.0
C1009 C 0.91618 0.40615 0.40639 0.0
C1010 C 0.89134 0.39298 0.39099 0.0
C1011 C 0.95157 0.42283 0.40155 0.0
C1012 C 0.96355 0.42733 0.3811 0.0
H1013 H 0.90879 0.4026 0.42236 0.0
H1014 H 0.97003 0.43148 0.41403 0.0
S1015 S 0.90747 0.40107 0.33495 0.0
N1016 N 0.88009 0.3881 0.35432 0.0
N1017 N 0.94644 0.41948 0.34529 0.0
C1018 C 0.9383 0.41577 0.36552 0.0
C1019 C 0.90231 0.39858 0.37044 0.0
C1020 C 0.85643 0.34517 0.88497 0.0
C1021 C 0.85854 0.3581 0.86458 0.0
C1022 C 0.83899 0.31028 0.88998 0.0
C1023 C 0.82314 0.28657 0.87481 0.0
H1024 H 0.86875 0.3619 0.89726 0.0
H1025 H 0.83902 0.30137 0.90585 0.0
S1026 S 0.81882 0.308 0.8192 0.0
N1027 N 0.84141 0.34506 0.82919 0.0
N1028 N 0.80885 0.2794 0.83857 0.0
C1029 C 0.82396 0.29958 0.85441 0.0
C1030 C 0.84156 0.33532 0.84931 0.0
C1031 C 0.94059 0.58539 0.1393 0.0
C1032 C 0.96456 0.56994 0.12413 0.0
C1033 C 0.90557 0.60256 0.13428 0.0
C1034 C 0.89278 0.60482 0.11386 0.0
H1035 H 0.94937 0.58531 0.15519 0.0
H1036 H 0.88865 0.61461 0.14657 0.0
S1037 S 0.94358 0.566 0.06846 0.0
N1038 N 0.97212 0.55609 0.08786 0.0
N1039 N 0.90624 0.58816 0.07844 0.0
C1040 C 0.91584 0.58819 0.09859 0.0
C1041 C 0.95169 0.57085 0.10371 0.0
C1042 C 0.65741 0.6654 0.35071 0.0
C1043 C 0.64402 0.64069 0.36611 0.0
C1044 C 0.67431 0.70071 0.35555 0.0
C1045 C 0.67884 0.7127 0.376 0.0
H1046 H 0.65386 0.65798 0.33474 0.0
H1047 H 0.68311 0.7191 0.34307 0.0
S1048 S 0.65208 0.65685 0.42215 0.0
N1049 N 0.63898 0.62953 0.40278 0.0
N1050 N 0.67077 0.69567 0.41181 0.0
C1051 C 0.66705 0.68754 0.39158 0.0
C1052 C 0.64962 0.65167 0.38665 0.0
C1053 C 0.59447 0.39845 0.6321 0.0
C1054 C 0.60692 0.39589 0.61163 0.0
C1055 C 0.55954 0.41567 0.63722 0.0
C1056 C 0.5353 0.43084 0.62211 0.0
H1057 H 0.61162 0.38667 0.64436 0.0
H1058 H 0.55104 0.41601 0.65316 0.0
S1059 S 0.55532 0.43373 0.56631 0.0
N1060 N 0.59288 0.41183 0.57621 0.0
N1061 N 0.52709 0.44399 0.58581 0.0
C1062 C 0.54782 0.42959 0.60162 0.0
C1063 C 0.58362 0.41221 0.5964 0.0
C1064 C 0.15864 0.33267 0.35168 0.0
C1065 C 0.14539 0.35801 0.36683 0.0
C1066 C 0.175 0.29729 0.35688 0.0
C1067 C 0.17915 0.28591 0.37744 0.0
H1068 H 0.15533 0.33964 0.33564 0.0
H1069 H 0.1837 0.27839 0.34459 0.0
S1070 S 0.1526 0.34355 0.42302 0.0
N1071 N 0.14008 0.37041 0.40337 0.0
N1072 N 0.17091 0.30416 0.41308 0.0
C1073 C 0.16755 0.31171 0.39277 0.0
C1074 C 0.15063 0.34762 0.38748 0.0
C1075 C 0.41701 0.40536 0.1025 0.0
C1076 C 0.39174 0.39256 0.11779 0.0
C1077 C 0.45231 0.42211 0.1075 0.0
C1078 C 0.46374 0.42707 0.12801 0.0
H1079 H 0.41004 0.40142 0.08649 0.0
H1080 H 0.47113 0.43043 0.09511 0.0
S1081 S 0.40631 0.40203 0.17389 0.0
N1082 N 0.37946 0.38862 0.1544 0.0
N1083 N 0.44559 0.42012 0.16373 0.0
C1084 C 0.43803 0.41592 0.14346 0.0
C1085 C 0.40216 0.39865 0.13838 0.0
C1086 C 0.33833 0.69104 0.88985 0.0
C1087 C 0.32211 0.71486 0.87486 0.0
C1088 C 0.3554 0.65607 0.88465 0.0
C1089 C 0.35675 0.64316 0.86423 0.0
H1090 H 0.33895 0.69994 0.90572 0.0
H1091 H 0.36807 0.63926 0.89681 0.0
S1092 S 0.3157 0.69349 0.81929 0.0
N1093 N 0.30658 0.72213 0.83878 0.0
N1094 N 0.33843 0.6563 0.82903 0.0
C1095 C 0.33934 0.66603 0.84915 0.0
C1096 C 0.32213 0.70186 0.85444 0.0
C1097 C 0.04733 0.5769 0.60589 0.0
C1098 C 0.03588 0.57223 0.62642 0.0
C1099 C 0.08272 0.59342 0.60083 0.0
C1100 C 0.10801 0.60628 0.61609 0.0
H1101 H 0.02844 0.56858 0.59353 0.0
H1102 H 0.08972 0.59721 0.58483 0.0
S1103 S 0.09348 0.59735 0.67222 0.0
N1104 N 0.0541 0.57936 0.66212 0.0
N1105 N 0.12037 0.61045 0.65268 0.0
C1106 C 0.0976 0.6004 0.6367 0.0
C1107 C 0.06167 0.58334 0.64184 0.0
C1108 C 0.15864 0.66434 0.15824 0.0
C1109 C 0.1451 0.63962 0.14288 0.0
C1110 C 0.17535 0.6997 0.15336 0.0
C1111 C 0.17954 0.71173 0.1329 0.0
H1112 H 0.15534 0.65688 0.17422 0.0
H1113 H 0.18428 0.7181 0.16581 0.0
S1114 S 0.15226 0.65589 0.08682 0.0
N1115 N 0.13954 0.6285 0.10623 0.0
N1116 N 0.17099 0.69476 0.09711 0.0
C1117 C 0.16761 0.68657 0.11735 0.0
C1118 C 0.15036 0.65064 0.12232 0.0
C1119 C 0.08575 0.40584 0.90956 0.0
C1120 C 0.11155 0.39403 0.8943 0.0
C1121 C 0.05033 0.42228 0.90451 0.0
C1122 C 0.03933 0.42793 0.88399 0.0
H1123 H 0.0924 0.40134 0.92556 0.0
H1124 H 0.03109 0.42984 0.91686 0.0
S1125 S 0.09822 0.40555 0.83823 0.0
N1126 N 0.12478 0.39173 0.85775 0.0
N1127 N 0.05844 0.42269 0.84832 0.0
C1128 C 0.06557 0.41777 0.86858 0.0
C1129 C 0.10154 0.40079 0.87372 0.0
C1130 C 0.32793 0.29919 0.65342 0.0
C1131 C 0.32313 0.28691 0.63304 0.0
C1132 C 0.34426 0.33485 0.65802 0.0
C1133 C 0.35676 0.35964 0.64245 0.0
H1134 H 0.3198 0.28078 0.66601 0.0
H1135 H 0.34808 0.34249 0.67395 0.0
S1136 S 0.34759 0.34275 0.58653 0.0
N1137 N 0.32993 0.30367 0.59712 0.0
N1138 N 0.36065 0.37052 0.60572 0.0
C1139 C 0.35085 0.34835 0.62198 0.0
C1140 C 0.33401 0.3121 0.6173 0.0
C1141 C 0.45155 0.57592 0.40329 0.0
C1142 C 0.46274 0.57084 0.38274 0.0
C1143 C 0.41623 0.59254 0.40839 0.0
C1144 C 0.39073 0.60509 0.39316 0.0
H1145 H 0.47057 0.5678 0.41562 0.0
H1146 H 0.40944 0.59661 0.42441 0.0
S1147 S 0.40458 0.59513 0.33703 0.0
N1148 N 0.44409 0.57733 0.34708 0.0
N1149 N 0.37793 0.60861 0.3566 0.0
C1150 C 0.4009 0.59886 0.37255 0.0
C1151 C 0.43678 0.58171 0.36736 0.0
loop_
_geom_bond_atom_site_label_1
_geom_bond_atom_site_label_2
_geom_bond_distance
_geom_bond_site_symmetry_2
_ccdc_geom_bond_type
O0 Cd1 2.223 . S
O0 C8 1.315 . S
Cd1 O0 2.223 . S
Cd1 O4 2.297 . S
Cd1 O5 2.439 . S
Cd1 O11 2.240 . S
Cd2 O3 2.240 . S
Cd2 O10 2.223 . S
Cd2 O12 2.297 . S
Cd2 O13 2.439 . S
O3 Cd2 2.240 . S
O3 C8 1.279 . S
O4 Cd1 2.297 . S
O4 C6 1.247 . S
O5 Cd1 2.439 . S
O5 C6 1.208 . S
C6 O4 1.247 . S
C6 O5 1.208 . S
C7 O12 1.247 . S
C7 O13 1.208 . S
C8 O0 1.315 . S
C8 O3 1.279 . S
C9 O10 1.315 . S
C9 O11 1.279 . S
O10 Cd2 2.223 . S
O10 C9 1.315 . S
O11 Cd1 2.240 . S
O11 C9 1.279 . S
O12 Cd2 2.297 . S
O12 C7 1.247 . S
O13 Cd2 2.439 . S
O13 C7 1.208 . S
O14 Cd15 2.223 . S
O14 C22 1.315 . S
Cd15 O14 2.223 . S
Cd15 O18 2.297 . S
Cd15 O19 2.439 . S
Cd15 O25 2.240 . S
Cd16 O17 2.240 . S
Cd16 O24 2.223 . S
Cd16 O26 2.297 . S
Cd16 O27 2.439 . S
O17 Cd16 2.240 . S
O17 C22 1.279 . S
O18 Cd15 2.297 . S
O18 C20 1.247 . S
O19 Cd15 2.439 . S
O19 C20 1.208 . S
C20 O18 1.247 . S
C20 O19 1.208 . S
C21 O26 1.247 . S
C21 O27 1.208 . S
C22 O14 1.315 . S
C22 O17 1.279 . S
C23 O24 1.315 . S
C23 O25 1.279 . S
O24 Cd16 2.223 . S
O24 C23 1.315 . S
O25 Cd15 2.240 . S
O25 C23 1.279 . S
O26 Cd16 2.297 . S
O26 C21 1.247 . S
O27 Cd16 2.439 . S
O27 C21 1.208 . S
O28 Cd29 2.223 . S
O28 C36 1.315 . S
Cd29 O28 2.223 . S
Cd29 O32 2.297 . S
Cd29 O33 2.439 . S
Cd29 O39 2.240 . S
Cd30 O31 2.240 . S
Cd30 O38 2.223 . S
Cd30 O40 2.297 . S
Cd30 O41 2.439 . S
O31 Cd30 2.240 . S
O31 C36 1.279 . S
O32 Cd29 2.297 . S
O32 C34 1.247 . S
O33 Cd29 2.439 . S
O33 C34 1.208 . S
C34 O32 1.247 . S
C34 O33 1.208 . S
C35 O40 1.247 1_655 S
C35 O41 1.208 1_655 S
C36 O28 1.315 . S
C36 O31 1.279 . S
C37 O38 1.315 . S
C37 O39 1.279 . S
O38 Cd30 2.223 . S
O38 C37 1.315 . S
O39 Cd29 2.240 . S
O39 C37 1.279 . S
O40 Cd30 2.297 . S
O40 C35 1.247 1_455 S
O41 Cd30 2.439 . S
O41 C35 1.208 1_455 S
O42 Cd43 2.223 . S
O42 C50 1.315 . S
Cd43 O42 2.223 . S
Cd43 O46 2.297 . S
Cd43 O47 2.439 . S
Cd43 O53 2.240 . S
Cd44 O45 2.240 . S
Cd44 O52 2.223 . S
Cd44 O54 2.297 . S
Cd44 O55 2.439 . S
O45 Cd44 2.240 . S
O45 C50 1.279 . S
O46 Cd43 2.297 . S
O46 C48 1.247 . S
O47 Cd43 2.439 . S
O47 C48 1.208 . S
C48 O46 1.247 . S
C48 O47 1.208 . S
C49 O54 1.247 . S
C49 O55 1.208 . S
C50 O42 1.315 . S
C50 O45 1.279 . S
C51 O52 1.315 . S
C51 O53 1.279 . S
O52 Cd44 2.223 . S
O52 C51 1.315 . S
O53 Cd43 2.240 . S
O53 C51 1.279 . S
O54 Cd44 2.297 . S
O54 C49 1.247 . S
O55 Cd44 2.439 . S
O55 C49 1.208 . S
O56 Cd57 2.223 . S
O56 C64 1.315 . S
Cd57 O56 2.223 . S
Cd57 O60 2.297 . S
Cd57 O61 2.439 . S
Cd57 O67 2.240 . S
Cd58 O59 2.240 . S
Cd58 O66 2.223 . S
Cd58 O68 2.297 . S
Cd58 O69 2.439 . S
O59 Cd58 2.240 . S
O59 C64 1.279 . S
O60 Cd57 2.297 . S
O60 C62 1.247 . S
O61 Cd57 2.439 . S
O61 C62 1.208 . S
C62 O60 1.247 . S
C62 O61 1.208 . S
C63 O68 1.247 . S
C63 O69 1.208 . S
C64 O56 1.315 . S
C64 O59 1.279 . S
C65 O66 1.315 . S
C65 O67 1.279 . S
O66 Cd58 2.223 . S
O66 C65 1.315 . S
O67 Cd57 2.240 . S
O67 C65 1.279 . S
O68 Cd58 2.297 . S
O68 C63 1.247 . S
O69 Cd58 2.439 . S
O69 C63 1.208 . S
O70 Cd71 2.223 . S
O70 C78 1.315 . S
Cd71 O70 2.223 . S
Cd71 O74 2.297 . S
Cd71 O75 2.439 . S
Cd71 O81 2.240 . S
Cd72 O73 2.240 . S
Cd72 O80 2.223 . S
Cd72 O82 2.297 . S
Cd72 O83 2.439 . S
O73 Cd72 2.240 . S
O73 C78 1.279 . S
O74 Cd71 2.297 . S
O74 C76 1.247 . S
O75 Cd71 2.439 . S
O75 C76 1.208 . S
C76 O74 1.247 . S
C76 O75 1.208 . S
C77 O82 1.247 . S
C77 O83 1.208 . S
C78 O70 1.315 . S
C78 O73 1.279 . S
C79 O80 1.315 . S
C79 O81 1.279 . S
O80 Cd72 2.223 . S
O80 C79 1.315 . S
O81 Cd71 2.240 . S
O81 C79 1.279 . S
O82 Cd72 2.297 . S
O82 C77 1.247 . S
O83 Cd72 2.439 . S
O83 C77 1.208 . S
O84 Cd85 2.223 . S
O84 C92 1.315 . S
Cd85 O84 2.223 . S
Cd85 O88 2.297 . S
Cd85 O89 2.439 . S
Cd85 O95 2.240 . S
Cd86 O87 2.240 . S
Cd86 O94 2.223 . S
Cd86 O96 2.297 . S
Cd86 O97 2.439 . S
O87 Cd86 2.240 . S
O87 C92 1.279 . S
O88 Cd85 2.297 . S
O88 C90 1.247 . S
O89 Cd85 2.439 . S
O89 C90 1.208 . S
C90 O88 1.247 . S
C90 O89 1.208 . S
C91 O96 1.247 1_655 S
C91 O97 1.208 1_655 S
C92 O84 1.315 . S
C92 O87 1.279 . S
C93 O94 1.315 . S
C93 O95 1.279 . S
O94 Cd86 2.223 . S
O94 C93 1.315 . S
O95 Cd85 2.240 . S
O95 C93 1.279 . S
O96 Cd86 2.297 . S
O96 C91 1.247 1_455 S
O97 Cd86 2.439 . S
O97 C91 1.208 1_455 S
O98 Cd99 2.223 . S
O98 C106 1.315 . S
Cd99 O98 2.223 . S
Cd99 O102 2.297 . S
Cd99 O103 2.439 . S
Cd99 O109 2.240 . S
Cd100 O101 2.240 . S
Cd100 O108 2.223 . S
Cd100 O110 2.297 . S
Cd100 O111 2.439 . S
O101 Cd100 2.240 . S
O101 C106 1.279 . S
O102 Cd99 2.297 . S
O102 C104 1.247 . S
O103 Cd99 2.439 . S
O103 C104 1.208 . S
C104 O102 1.247 . S
C104 O103 1.208 . S
C105 O110 1.247 . S
C105 O111 1.208 . S
C106 O98 1.315 . S
C106 O101 1.279 . S
C107 O108 1.315 . S
C107 O109 1.279 . S
O108 Cd100 2.223 . S
O108 C107 1.315 . S
O109 Cd99 2.240 . S
O109 C107 1.279 . S
O110 Cd100 2.297 . S
O110 C105 1.247 . S
O111 Cd100 2.439 . S
O111 C105 1.208 . S
O112 Cd113 2.223 . S
O112 C120 1.315 . S
Cd113 O112 2.223 . S
Cd113 O116 2.297 . S
Cd113 O117 2.439 . S
Cd113 O123 2.240 . S
Cd114 O115 2.240 . S
Cd114 O122 2.223 . S
Cd114 O124 2.297 . S
Cd114 O125 2.439 . S
O115 Cd114 2.240 . S
O115 C120 1.279 . S
O116 Cd113 2.297 . S
O116 C118 1.247 . S
O117 Cd113 2.439 . S
O117 C118 1.208 . S
C118 O116 1.247 . S
C118 O117 1.208 . S
C119 O124 1.247 . S
C119 O125 1.208 . S
C120 O112 1.315 . S
C120 O115 1.279 . S
C121 O122 1.315 . S
C121 O123 1.279 . S
O122 Cd114 2.223 . S
O122 C121 1.315 . S
O123 Cd113 2.240 . S
O123 C121 1.279 . S
O124 Cd114 2.297 . S
O124 C119 1.247 . S
O125 Cd114 2.439 . S
O125 C119 1.208 . S
O126 Cd127 2.223 . S
O126 C134 1.315 . S
Cd127 O126 2.223 . S
Cd127 O130 2.297 . S
Cd127 O131 2.439 . S
Cd127 O137 2.240 . S
Cd128 O129 2.240 . S
Cd128 O136 2.223 . S
Cd128 O138 2.297 . S
Cd128 O139 2.439 . S
O129 Cd128 2.240 . S
O129 C134 1.279 . S
O130 Cd127 2.297 . S
O130 C132 1.247 . S
O131 Cd127 2.439 . S
O131 C132 1.208 . S
C132 O130 1.247 . S
C132 O131 1.208 . S
C133 O138 1.247 . S
C133 O139 1.208 . S
C134 O126 1.315 . S
C134 O129 1.279 . S
C135 O136 1.315 . S
C135 O137 1.279 . S
O136 Cd128 2.223 . S
O136 C135 1.315 . S
O137 Cd127 2.240 . S
O137 C135 1.279 . S
O138 Cd128 2.297 . S
O138 C133 1.247 . S
O139 Cd128 2.439 . S
O139 C133 1.208 . S
O140 Cd141 2.223 . S
O140 C148 1.315 . S
Cd141 O140 2.223 . S
Cd141 O144 2.297 . S
Cd141 O145 2.439 . S
Cd141 O151 2.240 . S
Cd142 O143 2.240 . S
Cd142 O150 2.223 . S
Cd142 O152 2.297 . S
Cd142 O153 2.439 . S
O143 Cd142 2.240 . S
O143 C148 1.279 . S
O144 Cd141 2.297 . S
O144 C146 1.247 . S
O145 Cd141 2.439 . S
O145 C146 1.208 . S
C146 O144 1.247 . S
C146 O145 1.208 . S
C147 O152 1.247 1_455 S
C147 O153 1.208 1_455 S
C148 O140 1.315 . S
C148 O143 1.279 . S
C149 O150 1.315 . S
C149 O151 1.279 . S
O150 Cd142 2.223 . S
O150 C149 1.315 . S
O151 Cd141 2.240 . S
O151 C149 1.279 . S
O152 Cd142 2.297 . S
O152 C147 1.247 1_655 S
O153 Cd142 2.439 . S
O153 C147 1.208 1_655 S
O154 Cd155 2.223 . S
O154 C162 1.315 . S
Cd155 O154 2.223 . S
Cd155 O158 2.297 . S
Cd155 O159 2.439 . S
Cd155 O165 2.240 . S
Cd156 O157 2.240 . S
Cd156 O164 2.223 . S
Cd156 O166 2.297 . S
Cd156 O167 2.439 . S
O157 Cd156 2.240 . S
O157 C162 1.279 . S
O158 Cd155 2.297 . S
O158 C160 1.247 . S
O159 Cd155 2.439 . S
O159 C160 1.208 . S
C160 O158 1.247 . S
C160 O159 1.208 . S
C161 O166 1.247 . S
C161 O167 1.208 . S
C162 O154 1.315 . S
C162 O157 1.279 . S
C163 O164 1.315 . S
C163 O165 1.279 . S
O164 Cd156 2.223 . S
O164 C163 1.315 . S
O165 Cd155 2.240 . S
O165 C163 1.279 . S
O166 Cd156 2.297 . S
O166 C161 1.247 . S
O167 Cd156 2.439 . S
O167 C161 1.208 . S
O168 Cd169 2.223 . S
O168 C176 1.315 . S
Cd169 O168 2.223 . S
Cd169 O172 2.297 . S
Cd169 O173 2.439 . S
Cd169 O179 2.240 . S
Cd170 O171 2.240 . S
Cd170 O178 2.223 . S
Cd170 O180 2.297 . S
Cd170 O181 2.439 . S
O171 Cd170 2.240 . S
O171 C176 1.279 . S
O172 Cd169 2.297 . S
O172 C174 1.247 . S
O173 Cd169 2.439 . S
O173 C174 1.208 . S
C174 O172 1.247 . S
C174 O173 1.208 . S
C175 O180 1.247 . S
C175 O181 1.208 . S
C176 O168 1.315 . S
C176 O171 1.279 . S
C177 O178 1.315 . S
C177 O179 1.279 . S
O178 Cd170 2.223 . S
O178 C177 1.315 . S
O179 Cd169 2.240 . S
O179 C177 1.279 . S
O180 Cd170 2.297 . S
O180 C175 1.247 . S
O181 Cd170 2.439 . S
O181 C175 1.208 . S
O182 Cd183 2.223 . S
O182 C190 1.315 . S
Cd183 O182 2.223 . S
Cd183 O186 2.297 . S
Cd183 O187 2.439 . S
Cd183 O193 2.240 . S
Cd184 O185 2.240 . S
Cd184 O192 2.223 . S
Cd184 O194 2.297 . S
Cd184 O195 2.439 . S
O185 Cd184 2.240 . S
O185 C190 1.279 . S
O186 Cd183 2.297 . S
O186 C188 1.247 . S
O187 Cd183 2.439 . S
O187 C188 1.208 . S
C188 O186 1.247 . S
C188 O187 1.208 . S
C189 O194 1.247 . S
C189 O195 1.208 . S
C190 O182 1.315 . S
C190 O185 1.279 . S
C191 O192 1.315 . S
C191 O193 1.279 . S
O192 Cd184 2.223 . S
O192 C191 1.315 . S
O193 Cd183 2.240 . S
O193 C191 1.279 . S
O194 Cd184 2.297 . S
O194 C189 1.247 . S
O195 Cd184 2.439 . S
O195 C189 1.208 . S
O196 Cd197 2.223 . S
O196 C204 1.315 . S
Cd197 O196 2.223 . S
Cd197 O200 2.297 . S
Cd197 O201 2.439 . S
Cd197 O207 2.240 . S
Cd198 O199 2.240 . S
Cd198 O206 2.223 . S
Cd198 O208 2.297 . S
Cd198 O209 2.439 . S
O199 Cd198 2.240 . S
O199 C204 1.279 . S
O200 Cd197 2.297 . S
O200 C202 1.247 . S
O201 Cd197 2.439 . S
O201 C202 1.208 . S
C202 O200 1.247 . S
C202 O201 1.208 . S
C203 O208 1.247 1_455 S
C203 O209 1.208 1_455 S
C204 O196 1.315 . S
C204 O199 1.279 . S
C205 O206 1.315 . S
C205 O207 1.279 . S
O206 Cd198 2.223 . S
O206 C205 1.315 . S
O207 Cd197 2.240 . S
O207 C205 1.279 . S
O208 Cd198 2.297 . S
O208 C203 1.247 1_655 S
O209 Cd198 2.439 . S
O209 C203 1.208 1_655 S
O210 Cd211 2.223 . S
O210 C218 1.315 . S
Cd211 O210 2.223 . S
Cd211 O214 2.297 . S
Cd211 O215 2.439 . S
Cd211 O221 2.240 . S
Cd212 O213 2.240 . S
Cd212 O220 2.223 . S
Cd212 O222 2.297 . S
Cd212 O223 2.439 . S
O213 Cd212 2.240 . S
O213 C218 1.279 . S
O214 Cd211 2.297 . S
O214 C216 1.247 . S
O215 Cd211 2.439 . S
O215 C216 1.208 . S
C216 O214 1.247 . S
C216 O215 1.208 . S
C217 O222 1.247 . S
C217 O223 1.208 . S
C218 O210 1.315 . S
C218 O213 1.279 . S
C219 O220 1.315 . S
C219 O221 1.279 . S
O220 Cd212 2.223 . S
O220 C219 1.315 . S
O221 Cd211 2.240 . S
O221 C219 1.279 . S
O222 Cd212 2.297 . S
O222 C217 1.247 . S
O223 Cd212 2.439 . S
O223 C217 1.208 . S
O224 Cd225 2.223 . S
O224 C232 1.315 . S
Cd225 O224 2.223 . S
Cd225 O228 2.297 . S
Cd225 O229 2.439 . S
Cd225 O235 2.240 . S
Cd226 O227 2.240 . S
Cd226 O234 2.223 . S
Cd226 O236 2.297 . S
Cd226 O237 2.439 . S
O227 Cd226 2.240 . S
O227 C232 1.279 . S
O228 Cd225 2.297 . S
O228 C230 1.247 . S
O229 Cd225 2.439 . S
O229 C230 1.208 . S
C230 O228 1.247 . S
C230 O229 1.208 . S
C231 O236 1.247 1_455 S
C231 O237 1.208 1_455 S
C232 O224 1.315 . S
C232 O227 1.279 . S
C233 O234 1.315 . S
C233 O235 1.279 . S
O234 Cd226 2.223 . S
O234 C233 1.315 . S
O235 Cd225 2.240 . S
O235 C233 1.279 . S
O236 Cd226 2.297 . S
O236 C231 1.247 1_655 S
O237 Cd226 2.439 . S
O237 C231 1.208 1_655 S
O238 Cd239 2.223 . S
O238 C246 1.315 . S
Cd239 O238 2.223 . S
Cd239 O242 2.297 . S
Cd239 O243 2.439 . S
Cd239 O249 2.240 . S
Cd240 O241 2.240 . S
Cd240 O248 2.223 . S
Cd240 O250 2.297 . S
Cd240 O251 2.439 . S
O241 Cd240 2.240 . S
O241 C246 1.279 . S
O242 Cd239 2.297 . S
O242 C244 1.247 . S
O243 Cd239 2.439 . S
O243 C244 1.208 . S
C244 O242 1.247 . S
C244 O243 1.208 . S
C245 O250 1.247 . S
C245 O251 1.208 . S
C246 O238 1.315 . S
C246 O241 1.279 . S
C247 O248 1.315 . S
C247 O249 1.279 . S
O248 Cd240 2.223 . S
O248 C247 1.315 . S
O249 Cd239 2.240 . S
O249 C247 1.279 . S
O250 Cd240 2.297 . S
O250 C245 1.247 . S
O251 Cd240 2.439 . S
O251 C245 1.208 . S
O252 Cd253 2.223 . S
O252 C260 1.315 . S
Cd253 O252 2.223 . S
Cd253 O256 2.297 . S
Cd253 O257 2.439 . S
Cd253 O263 2.240 . S
Cd254 O255 2.240 . S
Cd254 O262 2.223 . S
Cd254 O264 2.297 . S
Cd254 O265 2.439 . S
O255 Cd254 2.240 . S
O255 C260 1.279 . S
O256 Cd253 2.297 . S
O256 C258 1.247 . S
O257 Cd253 2.439 . S
O257 C258 1.208 . S
C258 O256 1.247 . S
C258 O257 1.208 . S
C259 O264 1.247 . S
C259 O265 1.208 . S
C260 O252 1.315 . S
C260 O255 1.279 . S
C261 O262 1.315 . S
C261 O263 1.279 . S
O262 Cd254 2.223 . S
O262 C261 1.315 . S
O263 Cd253 2.240 . S
O263 C261 1.279 . S
O264 Cd254 2.297 . S
O264 C259 1.247 . S
O265 Cd254 2.439 . S
O265 C259 1.208 . S
O266 Cd267 2.223 . S
O266 C274 1.315 . S
Cd267 O266 2.223 . S
Cd267 O270 2.297 . S
Cd267 O271 2.439 . S
Cd267 O277 2.240 . S
Cd268 O269 2.240 . S
Cd268 O276 2.223 . S
Cd268 O278 2.297 . S
Cd268 O279 2.439 . S
O269 Cd268 2.240 . S
O269 C274 1.279 . S
O270 Cd267 2.297 . S
O270 C272 1.247 . S
O271 Cd267 2.439 . S
O271 C272 1.208 . S
C272 O270 1.247 . S
C272 O271 1.208 . S
C273 O278 1.247 . S
C273 O279 1.208 . S
C274 O266 1.315 . S
C274 O269 1.279 . S
C275 O276 1.315 . S
C275 O277 1.279 . S
O276 Cd268 2.223 . S
O276 C275 1.315 . S
O277 Cd267 2.240 . S
O277 C275 1.279 . S
O278 Cd268 2.297 . S
O278 C273 1.247 . S
O279 Cd268 2.439 . S
O279 C273 1.208 . S
O280 Cd281 2.223 . S
O280 C288 1.315 . S
Cd281 O280 2.223 . S
Cd281 O284 2.297 . S
Cd281 O285 2.439 . S
Cd281 O291 2.240 . S
Cd282 O283 2.240 . S
Cd282 O290 2.223 . S
Cd282 O292 2.297 . S
Cd282 O293 2.439 . S
O283 Cd282 2.240 . S
O283 C288 1.279 . S
O284 Cd281 2.297 . S
O284 C286 1.247 . S
O285 Cd281 2.439 . S
O285 C286 1.208 . S
C286 O284 1.247 . S
C286 O285 1.208 . S
C287 O292 1.247 1_455 S
C287 O293 1.208 1_455 S
C288 O280 1.315 . S
C288 O283 1.279 . S
C289 O290 1.315 . S
C289 O291 1.279 . S
O290 Cd282 2.223 . S
O290 C289 1.315 . S
O291 Cd281 2.240 . S
O291 C289 1.279 . S
O292 Cd282 2.297 . S
O292 C287 1.247 1_655 S
O293 Cd282 2.439 . S
O293 C287 1.208 1_655 S
O294 Cd295 2.223 . S
O294 C302 1.315 . S
Cd295 O294 2.223 . S
Cd295 O298 2.297 . S
Cd295 O299 2.439 . S
Cd295 O305 2.240 . S
Cd296 O297 2.240 . S
Cd296 O304 2.223 . S
Cd296 O306 2.297 . S
Cd296 O307 2.439 . S
O297 Cd296 2.240 . S
O297 C302 1.279 . S
O298 Cd295 2.297 . S
O298 C300 1.247 . S
O299 Cd295 2.439 . S
O299 C300 1.208 . S
C300 O298 1.247 . S
C300 O299 1.208 . S
C301 O306 1.247 . S
C301 O307 1.208 . S
C302 O294 1.315 . S
C302 O297 1.279 . S
C303 O304 1.315 . S
C303 O305 1.279 . S
O304 Cd296 2.223 . S
O304 C303 1.315 . S
O305 Cd295 2.240 . S
O305 C303 1.279 . S
O306 Cd296 2.297 . S
O306 C301 1.247 . S
O307 Cd296 2.439 . S
O307 C301 1.208 . S
O308 Cd309 2.223 . S
O308 C316 1.315 . S
Cd309 O308 2.223 . S
Cd309 O312 2.297 . S
Cd309 O313 2.439 . S
Cd309 O319 2.240 . S
Cd310 O311 2.240 . S
Cd310 O318 2.223 . S
Cd310 O320 2.297 . S
Cd310 O321 2.439 . S
O311 Cd310 2.240 . S
O311 C316 1.279 . S
O312 Cd309 2.297 . S
O312 C314 1.247 . S
O313 Cd309 2.439 . S
O313 C314 1.208 . S
C314 O312 1.247 . S
C314 O313 1.208 . S
C315 O320 1.247 . S
C315 O321 1.208 . S
C316 O308 1.315 . S
C316 O311 1.279 . S
C317 O318 1.315 . S
C317 O319 1.279 . S
O318 Cd310 2.223 . S
O318 C317 1.315 . S
O319 Cd309 2.240 . S
O319 C317 1.279 . S
O320 Cd310 2.297 . S
O320 C315 1.247 . S
O321 Cd310 2.439 . S
O321 C315 1.208 . S
O322 Cd323 2.223 . S
O322 C330 1.315 . S
Cd323 O322 2.223 . S
Cd323 O326 2.297 . S
Cd323 O327 2.439 . S
Cd323 O333 2.240 . S
Cd324 O325 2.240 . S
Cd324 O332 2.223 . S
Cd324 O334 2.297 . S
Cd324 O335 2.439 . S
O325 Cd324 2.240 . S
O325 C330 1.279 . S
O326 Cd323 2.297 . S
O326 C328 1.247 . S
O327 Cd323 2.439 . S
O327 C328 1.208 . S
C328 O326 1.247 . S
C328 O327 1.208 . S
C329 O334 1.247 . S
C329 O335 1.208 . S
C330 O322 1.315 . S
C330 O325 1.279 . S
C331 O332 1.315 . S
C331 O333 1.279 . S
O332 Cd324 2.223 . S
O332 C331 1.315 . S
O333 Cd323 2.240 . S
O333 C331 1.279 . S
O334 Cd324 2.297 . S
O334 C329 1.247 . S
O335 Cd324 2.439 . S
O335 C329 1.208 . S
O336 Cd337 2.223 . S
O336 C344 1.315 . S
Cd337 O336 2.223 . S
Cd337 O340 2.297 . S
Cd337 O341 2.439 . S
Cd337 O347 2.240 . S
Cd338 O339 2.240 . S
Cd338 O346 2.223 . S
Cd338 O348 2.297 . S
Cd338 O349 2.439 . S
O339 Cd338 2.240 . S
O339 C344 1.279 . S
O340 Cd337 2.297 . S
O340 C342 1.247 . S
O341 Cd337 2.439 . S
O341 C342 1.208 . S
C342 O340 1.247 . S
C342 O341 1.208 . S
C343 O348 1.247 1_655 S
C343 O349 1.208 1_655 S
C344 O336 1.315 . S
C344 O339 1.279 . S
C345 O346 1.315 . S
C345 O347 1.279 . S
O346 Cd338 2.223 . S
O346 C345 1.315 . S
O347 Cd337 2.240 . S
O347 C345 1.279 . S
O348 Cd338 2.297 . S
O348 C343 1.247 1_455 S
O349 Cd338 2.439 . S
O349 C343 1.208 1_455 S
O350 Cd351 2.223 . S
O350 C358 1.315 . S
Cd351 O350 2.223 . S
Cd351 O354 2.297 . S
Cd351 O355 2.439 . S
Cd351 O361 2.240 . S
Cd352 O353 2.240 . S
Cd352 O360 2.223 . S
Cd352 O362 2.297 . S
Cd352 O363 2.439 . S
O353 Cd352 2.240 . S
O353 C358 1.279 . S
O354 Cd351 2.297 . S
O354 C356 1.247 . S
O355 Cd351 2.439 . S
O355 C356 1.208 . S
C356 O354 1.247 . S
C356 O355 1.208 . S
C357 O362 1.247 . S
C357 O363 1.208 . S
C358 O350 1.315 . S
C358 O353 1.279 . S
C359 O360 1.315 . S
C359 O361 1.279 . S
O360 Cd352 2.223 . S
O360 C359 1.315 . S
O361 Cd351 2.240 . S
O361 C359 1.279 . S
O362 Cd352 2.297 . S
O362 C357 1.247 . S
O363 Cd352 2.439 . S
O363 C357 1.208 . S
O364 Cd365 2.223 . S
O364 C372 1.315 . S
Cd365 O364 2.223 . S
Cd365 O368 2.297 . S
Cd365 O369 2.439 . S
Cd365 O375 2.240 . S
Cd366 O367 2.240 . S
Cd366 O374 2.223 . S
Cd366 O376 2.297 . S
Cd366 O377 2.439 . S
O367 Cd366 2.240 . S
O367 C372 1.279 . S
O368 Cd365 2.297 . S
O368 C370 1.247 . S
O369 Cd365 2.439 . S
O369 C370 1.208 . S
C370 O368 1.247 . S
C370 O369 1.208 . S
C371 O376 1.247 . S
C371 O377 1.208 . S
C372 O364 1.315 . S
C372 O367 1.279 . S
C373 O374 1.315 . S
C373 O375 1.279 . S
O374 Cd366 2.223 . S
O374 C373 1.315 . S
O375 Cd365 2.240 . S
O375 C373 1.279 . S
O376 Cd366 2.297 . S
O376 C371 1.247 . S
O377 Cd366 2.439 . S
O377 C371 1.208 . S
O378 Cd379 2.223 . S
O378 C386 1.315 . S
Cd379 O378 2.223 . S
Cd379 O382 2.297 . S
Cd379 O383 2.439 . S
Cd379 O389 2.240 . S
Cd380 O381 2.240 . S
Cd380 O388 2.223 . S
Cd380 O390 2.297 . S
Cd380 O391 2.439 . S
O381 Cd380 2.240 . S
O381 C386 1.279 . S
O382 Cd379 2.297 . S
O382 C384 1.247 . S
O383 Cd379 2.439 . S
O383 C384 1.208 . S
C384 O382 1.247 . S
C384 O383 1.208 . S
C385 O390 1.247 . S
C385 O391 1.208 . S
C386 O378 1.315 . S
C386 O381 1.279 . S
C387 O388 1.315 . S
C387 O389 1.279 . S
O388 Cd380 2.223 . S
O388 C387 1.315 . S
O389 Cd379 2.240 . S
O389 C387 1.279 . S
O390 Cd380 2.297 . S
O390 C385 1.247 . S
O391 Cd380 2.439 . S
O391 C385 1.208 . S
O392 Cd393 2.223 . S
O392 C400 1.315 . S
Cd393 O392 2.223 . S
Cd393 O396 2.297 . S
Cd393 O397 2.439 . S
Cd393 O403 2.240 . S
Cd394 O395 2.240 . S
Cd394 O402 2.223 . S
Cd394 O404 2.297 . S
Cd394 O405 2.439 . S
O395 Cd394 2.240 . S
O395 C400 1.279 . S
O396 Cd393 2.297 . S
O396 C398 1.247 . S
O397 Cd393 2.439 . S
O397 C398 1.208 . S
C398 O396 1.247 . S
C398 O397 1.208 . S
C399 O404 1.247 1_655 S
C399 O405 1.208 1_655 S
C400 O392 1.315 . S
C400 O395 1.279 . S
C401 O402 1.315 . S
C401 O403 1.279 . S
O402 Cd394 2.223 . S
O402 C401 1.315 . S
O403 Cd393 2.240 . S
O403 C401 1.279 . S
O404 Cd394 2.297 . S
O404 C399 1.247 1_455 S
O405 Cd394 2.439 . S
O405 C399 1.208 1_455 S
O406 Cd407 2.223 . S
O406 C414 1.315 . S
Cd407 O406 2.223 . S
Cd407 O410 2.297 . S
Cd407 O411 2.439 . S
Cd407 O417 2.240 . S
Cd408 O409 2.240 . S
Cd408 O416 2.223 . S
Cd408 O418 2.297 . S
Cd408 O419 2.439 . S
O409 Cd408 2.240 . S
O409 C414 1.279 . S
O410 Cd407 2.297 . S
O410 C412 1.247 . S
O411 Cd407 2.439 . S
O411 C412 1.208 . S
C412 O410 1.247 . S
C412 O411 1.208 . S
C413 O418 1.247 . S
C413 O419 1.208 . S
C414 O406 1.315 . S
C414 O409 1.279 . S
C415 O416 1.315 . S
C415 O417 1.279 . S
O416 Cd408 2.223 . S
O416 C415 1.315 . S
O417 Cd407 2.240 . S
O417 C415 1.279 . S
O418 Cd408 2.297 . S
O418 C413 1.247 . S
O419 Cd408 2.439 . S
O419 C413 1.208 . S
O420 Cd421 2.223 . S
O420 C428 1.315 . S
Cd421 O420 2.223 . S
Cd421 O424 2.297 . S
Cd421 O425 2.439 . S
Cd421 O431 2.240 . S
Cd422 O423 2.240 . S
Cd422 O430 2.223 . S
Cd422 O432 2.297 . S
Cd422 O433 2.439 . S
O423 Cd422 2.240 . S
O423 C428 1.279 . S
O424 Cd421 2.297 . S
O424 C426 1.247 . S
O425 Cd421 2.439 . S
O425 C426 1.208 . S
C426 O424 1.247 . S
C426 O425 1.208 . S
C427 O432 1.247 . S
C427 O433 1.208 . S
C428 O420 1.315 . S
C428 O423 1.279 . S
C429 O430 1.315 . S
C429 O431 1.279 . S
O430 Cd422 2.223 . S
O430 C429 1.315 . S
O431 Cd421 2.240 . S
O431 C429 1.279 . S
O432 Cd422 2.297 . S
O432 C427 1.247 . S
O433 Cd422 2.439 . S
O433 C427 1.208 . S
O434 Cd435 2.223 . S
O434 C442 1.315 . S
Cd435 O434 2.223 . S
Cd435 O438 2.297 . S
Cd435 O439 2.439 . S
Cd435 O445 2.240 . S
Cd436 O437 2.240 . S
Cd436 O444 2.223 . S
Cd436 O446 2.297 . S
Cd436 O447 2.439 . S
O437 Cd436 2.240 . S
O437 C442 1.279 . S
O438 Cd435 2.297 . S
O438 C440 1.247 . S
O439 Cd435 2.439 . S
O439 C440 1.208 . S
C440 O438 1.247 . S
C440 O439 1.208 . S
C441 O446 1.247 . S
C441 O447 1.208 . S
C442 O434 1.315 . S
C442 O437 1.279 . S
C443 O444 1.315 . S
C443 O445 1.279 . S
O444 Cd436 2.223 . S
O444 C443 1.315 . S
O445 Cd435 2.240 . S
O445 C443 1.279 . S
O446 Cd436 2.297 . S
O446 C441 1.247 . S
O447 Cd436 2.439 . S
O447 C441 1.208 . S
C448 C449 1.369 1_545 S
C448 C450 1.419 . S
C448 H452 0.930 . S
C449 C448 1.369 1_565 S
C449 C458 1.429 . S
C450 C448 1.419 . S
C450 C451 1.364 . S
C450 H453 0.929 . S
C451 C450 1.364 . S
C451 C457 1.427 1_545 S
H452 C448 0.930 . S
H453 C450 0.929 . S
S454 N455 1.613 . S
S454 N456 1.610 . S
N455 S454 1.613 . S
N455 C458 1.350 . S
N456 S454 1.610 . S
N456 C457 1.351 . S
C457 C451 1.427 1_565 S
C457 N456 1.351 . S
C457 C458 1.434 . S
C458 C449 1.429 . S
C458 N455 1.350 . S
C458 C457 1.434 . S
C459 C460 1.369 . S
C459 C461 1.419 . S
C459 H463 0.930 . S
C460 C459 1.369 . S
C460 C469 1.429 . S
C461 C459 1.419 . S
C461 C462 1.363 . S
C461 H464 0.929 . S
C462 C461 1.363 . S
C462 C468 1.428 . S
H463 C459 0.930 . S
H464 C461 0.929 . S
S465 N466 1.613 . S
S465 N467 1.610 . S
N466 S465 1.613 . S
N466 C469 1.350 . S
N467 S465 1.610 . S
N467 C468 1.351 . S
C468 C462 1.428 . S
C468 N467 1.351 . S
C468 C469 1.434 . S
C469 C460 1.429 . S
C469 N466 1.350 . S
C469 C468 1.434 . S
C470 C471 1.344 1_565 S
C470 C472 1.419 . S
C470 H474 0.930 . S
C471 C470 1.344 1_545 S
C471 C480 1.454 . S
C472 C470 1.419 . S
C472 C473 1.365 . S
C472 H475 0.929 . S
C473 C472 1.365 . S
C473 C479 1.426 1_565 S
H474 C470 0.930 . S
H475 C472 0.929 . S
S476 N477 1.613 . S
S476 N478 1.610 . S
N477 S476 1.613 . S
N477 C480 1.350 . S
N478 S476 1.610 . S
N478 C479 1.351 . S
C479 C473 1.426 1_545 S
C479 N478 1.351 . S
C479 C480 1.434 . S
C480 C471 1.454 . S
C480 N477 1.350 . S
C480 C479 1.434 . S
C481 C482 1.369 . S
C481 C483 1.419 1_556 S
C481 H485 0.930 . S
C482 C481 1.369 . S
C482 C491 1.429 . S
C483 C481 1.419 1_554 S
C483 C484 1.363 . S
C483 H486 0.929 . S
C484 C483 1.363 . S
C484 C490 1.428 . S
H485 C481 0.930 . S
H486 C483 0.929 . S
S487 N488 1.639 . S
S487 N489 1.584 1_556 S
N488 S487 1.639 . S
N488 C491 1.350 . S
N489 S487 1.584 1_554 S
N489 C490 1.351 . S
C490 C484 1.428 . S
C490 N489 1.351 . S
C490 C491 1.434 1_554 S
C491 C482 1.429 . S
C491 N488 1.350 . S
C491 C490 1.434 1_556 S
C492 C493 1.369 1_545 S
C492 C494 1.419 . S
C492 H496 0.930 . S
C493 C492 1.369 1_565 S
C493 C502 1.429 . S
C494 C492 1.419 . S
C494 C495 1.364 . S
C494 H497 0.929 . S
C495 C494 1.364 . S
C495 C501 1.427 1_545 S
H496 C492 0.930 . S
H497 C494 0.929 . S
S498 N499 1.613 . S
S498 N500 1.610 . S
N499 S498 1.613 . S
N499 C502 1.350 . S
N500 S498 1.610 . S
N500 C501 1.351 . S
C501 C495 1.427 1_565 S
C501 N500 1.351 . S
C501 C502 1.434 . S
C502 C493 1.429 . S
C502 N499 1.350 . S
C502 C501 1.434 . S
C503 C504 1.369 . S
C503 C505 1.419 . S
C503 H507 0.930 . S
C504 C503 1.369 . S
C504 C513 1.429 . S
C505 C503 1.419 . S
C505 C506 1.363 . S
C505 H508 0.929 . S
C506 C505 1.363 . S
C506 C512 1.428 . S
H507 C503 0.930 . S
H508 C505 0.929 . S
S509 N510 1.613 . S
S509 N511 1.610 . S
N510 S509 1.613 . S
N510 C513 1.350 . S
N511 S509 1.610 . S
N511 C512 1.351 . S
C512 C506 1.428 . S
C512 N511 1.351 . S
C512 C513 1.434 . S
C513 C504 1.429 . S
C513 N510 1.350 . S
C513 C512 1.434 . S
C514 C515 1.367 . S
C514 C516 1.419 . S
C514 H518 0.930 . S
C515 C514 1.367 . S
C515 C524 1.430 1_545 S
C516 C514 1.419 . S
C516 C517 1.343 1_545 S
C516 H519 0.929 . S
C517 C516 1.343 1_565 S
C517 C523 1.449 . S
H518 C514 0.930 . S
H519 C516 0.929 . S
S520 N521 1.613 . S
S520 N522 1.610 . S
N521 S520 1.613 . S
N521 C524 1.350 . S
N522 S520 1.610 . S
N522 C523 1.351 . S
C523 C517 1.449 . S
C523 N522 1.351 . S
C523 C524 1.434 . S
C524 C515 1.430 1_565 S
C524 N521 1.350 . S
C524 C523 1.434 . S
C525 C526 1.369 . S
C525 C527 1.419 1_556 S
C525 H529 0.930 . S
C526 C525 1.369 . S
C526 C535 1.429 . S
C527 C525 1.419 1_554 S
C527 C528 1.363 . S
C527 H530 0.929 . S
C528 C527 1.363 . S
C528 C534 1.428 . S
H529 C525 0.930 . S
H530 C527 0.929 . S
S531 N532 1.629 . S
S531 N533 1.594 1_556 S
N532 S531 1.629 . S
N532 C535 1.350 . S
N533 S531 1.594 1_554 S
N533 C534 1.351 . S
C534 C528 1.428 . S
C534 N533 1.351 . S
C534 C535 1.434 1_554 S
C535 C526 1.429 . S
C535 N532 1.350 . S
C535 C534 1.434 1_556 S
C536 C537 1.369 . S
C536 C538 1.419 . S
C536 H540 0.930 . S
C537 C536 1.369 . S
C537 C546 1.429 . S
C538 C536 1.419 . S
C538 C539 1.363 . S
C538 H541 0.929 . S
C539 C538 1.363 . S
C539 C545 1.428 . S
H540 C536 0.930 . S
H541 C538 0.929 . S
S542 N543 1.613 . S
S542 N544 1.610 . S
N543 S542 1.613 . S
N543 C546 1.350 . S
N544 S542 1.610 . S
N544 C545 1.351 . S
C545 C539 1.428 . S
C545 N544 1.351 . S
C545 C546 1.434 . S
C546 C537 1.429 . S
C546 N543 1.350 . S
C546 C545 1.434 . S
C547 C548 1.369 . S
C547 C549 1.419 1_554 S
C547 H551 0.930 . S
C548 C547 1.369 . S
C548 C557 1.429 . S
C549 C547 1.419 1_556 S
C549 C550 1.363 . S
C549 H552 0.929 . S
C550 C549 1.363 . S
C550 C556 1.428 . S
H551 C547 0.930 . S
H552 C549 0.929 . S
S553 N554 1.598 1_556 S
S553 N555 1.625 . S
N554 S553 1.598 1_554 S
N554 C557 1.350 . S
N555 S553 1.625 . S
N555 C556 1.351 . S
C556 C550 1.428 . S
C556 N555 1.351 . S
C556 C557 1.434 1_556 S
C557 C548 1.429 . S
C557 N554 1.350 . S
C557 C556 1.434 1_554 S
C558 C559 1.369 . S
C558 C560 1.419 . S
C558 H562 0.930 . S
C559 C558 1.369 . S
C559 C568 1.429 . S
C560 C558 1.419 . S
C560 C561 1.363 . S
C560 H563 0.929 . S
C561 C560 1.363 . S
C561 C567 1.428 . S
H562 C558 0.930 . S
H563 C560 0.929 . S
S564 N565 1.613 . S
S564 N566 1.610 . S
N565 S564 1.613 . S
N565 C568 1.350 . S
N566 S564 1.610 . S
N566 C567 1.351 . S
C567 C561 1.428 . S
C567 N566 1.351 . S
C567 C568 1.434 . S
C568 C559 1.429 . S
C568 N565 1.350 . S
C568 C567 1.434 . S
C569 C570 1.369 . S
C569 C571 1.419 . S
C569 H573 0.930 . S
C570 C569 1.369 . S
C570 C579 1.429 . S
C571 C569 1.419 . S
C571 C572 1.363 . S
C571 H574 0.929 . S
C572 C571 1.363 . S
C572 C578 1.428 . S
H573 C569 0.930 . S
H574 C571 0.929 . S
S575 N576 1.613 . S
S575 N577 1.610 . S
N576 S575 1.613 . S
N576 C579 1.350 . S
N577 S575 1.610 . S
N577 C578 1.351 . S
C578 C572 1.428 . S
C578 N577 1.351 . S
C578 C579 1.434 . S
C579 C570 1.429 . S
C579 N576 1.350 . S
C579 C578 1.434 . S
C580 C581 1.369 . S
C580 C582 1.419 . S
C580 H584 0.930 . S
C581 C580 1.369 . S
C581 C590 1.429 . S
C582 C580 1.419 . S
C582 C583 1.363 . S
C582 H585 0.929 . S
C583 C582 1.363 . S
C583 C589 1.428 . S
H584 C580 0.930 . S
H585 C582 0.929 . S
S586 N587 1.613 . S
S586 N588 1.610 . S
N587 S586 1.613 . S
N587 C590 1.350 . S
N588 S586 1.610 . S
N588 C589 1.351 . S
C589 C583 1.428 . S
C589 N588 1.351 . S
C589 C590 1.434 . S
C590 C581 1.429 . S
C590 N587 1.350 . S
C590 C589 1.434 . S
C591 C592 1.369 . S
C591 C593 1.419 1_554 S
C591 H595 0.930 . S
C592 C591 1.369 . S
C592 C601 1.429 . S
C593 C591 1.419 1_556 S
C593 C594 1.363 . S
C593 H596 0.929 . S
C594 C593 1.363 . S
C594 C600 1.428 . S
H595 C591 0.930 . S
H596 C593 0.929 . S
S597 N598 1.621 . S
S597 N599 1.603 1_554 S
N598 S597 1.621 . S
N598 C601 1.350 . S
N599 S597 1.603 1_556 S
N599 C600 1.351 . S
C600 C594 1.428 . S
C600 N599 1.351 . S
C600 C601 1.434 1_556 S
C601 C592 1.429 . S
C601 N598 1.350 . S
C601 C600 1.434 1_554 S
C602 C603 1.369 . S
C602 C604 1.419 . S
C602 H606 0.930 . S
C603 C602 1.369 . S
C603 C612 1.429 . S
C604 C602 1.419 . S
C604 C605 1.363 . S
C604 H607 0.929 . S
C605 C604 1.363 . S
C605 C611 1.428 . S
H606 C602 0.930 . S
H607 C604 0.929 . S
S608 N609 1.613 . S
S608 N610 1.610 . S
N609 S608 1.613 . S
N609 C612 1.350 . S
N610 S608 1.610 . S
N610 C611 1.351 . S
C611 C605 1.428 . S
C611 N610 1.351 . S
C611 C612 1.434 . S
C612 C603 1.429 . S
C612 N609 1.350 . S
C612 C611 1.434 . S
C613 C614 1.369 . S
C613 C615 1.419 . S
C613 H617 0.930 . S
C614 C613 1.369 . S
C614 C623 1.429 . S
C615 C613 1.419 . S
C615 C616 1.363 . S
C615 H618 0.929 . S
C616 C615 1.363 . S
C616 C622 1.428 . S
H617 C613 0.930 . S
H618 C615 0.929 . S
S619 N620 1.613 . S
S619 N621 1.610 . S
N620 S619 1.613 . S
N620 C623 1.350 . S
N621 S619 1.610 . S
N621 C622 1.351 . S
C622 C616 1.428 . S
C622 N621 1.351 . S
C622 C623 1.434 . S
C623 C614 1.429 . S
C623 N620 1.350 . S
C623 C622 1.434 . S
C624 C625 1.369 . S
C624 C626 1.419 . S
C624 H628 0.909 1_565 S
C625 C624 1.369 . S
C625 C634 1.429 . S
C626 C624 1.419 . S
C626 C627 1.363 . S
C626 H629 0.929 . S
C627 C626 1.363 . S
C627 C633 1.428 . S
H628 C624 0.909 1_545 S
H629 C626 0.929 . S
S630 N631 1.613 . S
S630 N632 1.610 . S
N631 S630 1.613 . S
N631 C634 1.350 . S
N632 S630 1.610 . S
N632 C633 1.351 . S
C633 C627 1.428 . S
C633 N632 1.351 . S
C633 C634 1.434 . S
C634 C625 1.429 . S
C634 N631 1.350 . S
C634 C633 1.434 . S
C635 C636 1.369 . S
C635 C637 1.419 . S
C635 H639 0.930 . S
C636 C635 1.369 . S
C636 C645 1.429 . S
C637 C635 1.419 . S
C637 C638 1.363 . S
C637 H640 0.929 . S
C638 C637 1.363 . S
C638 C644 1.428 . S
H639 C635 0.930 . S
H640 C637 0.929 . S
S641 N642 1.613 . S
S641 N643 1.610 . S
N642 S641 1.613 . S
N642 C645 1.350 . S
N643 S641 1.610 . S
N643 C644 1.351 . S
C644 C638 1.428 . S
C644 N643 1.351 . S
C644 C645 1.434 . S
C645 C636 1.429 . S
C645 N642 1.350 . S
C645 C644 1.434 . S
C646 C647 1.369 . S
C646 C648 1.419 . S
C646 H650 0.930 1_545 S
C647 C646 1.369 . S
C647 C656 1.429 . S
C648 C646 1.419 . S
C648 C649 1.363 . S
C648 H651 0.929 . S
C649 C648 1.363 . S
C649 C655 1.428 . S
H650 C646 0.930 1_565 S
H651 C648 0.929 . S
S652 N653 1.613 . S
S652 N654 1.610 . S
N653 S652 1.613 . S
N653 C656 1.350 . S
N654 S652 1.610 . S
N654 C655 1.351 . S
C655 C649 1.428 . S
C655 N654 1.351 . S
C655 C656 1.434 . S
C656 C647 1.429 . S
C656 N653 1.350 . S
C656 C655 1.434 . S
C657 C658 1.369 . S
C657 C659 1.419 . S
C657 H661 0.930 . S
C658 C657 1.369 . S
C658 C667 1.429 . S
C659 C657 1.419 . S
C659 C660 1.363 . S
C659 H662 0.929 . S
C660 C659 1.363 . S
C660 C666 1.428 . S
H661 C657 0.930 . S
H662 C659 0.929 . S
S663 N664 1.613 . S
S663 N665 1.610 1_545 S
N664 S663 1.613 . S
N664 C667 1.350 1_545 S
N665 S663 1.610 1_565 S
N665 C666 1.351 . S
C666 C660 1.428 . S
C666 N665 1.351 . S
C666 C667 1.434 . S
C667 C658 1.429 . S
C667 N664 1.350 1_565 S
C667 C666 1.434 . S
C668 C669 1.369 . S
C668 C670 1.419 . S
C668 H672 0.930 . S
C669 C668 1.369 . S
C669 C678 1.429 . S
C670 C668 1.419 . S
C670 C671 1.363 . S
C670 H673 0.929 . S
C671 C670 1.363 . S
C671 C677 1.428 . S
H672 C668 0.930 . S
H673 C670 0.929 . S
S674 N675 1.613 1_565 S
S674 N676 1.610 . S
N675 S674 1.613 1_545 S
N675 C678 1.350 . S
N676 S674 1.610 . S
N676 C677 1.351 1_565 S
C677 C671 1.428 . S
C677 N676 1.351 1_545 S
C677 C678 1.434 . S
C678 C669 1.429 . S
C678 N675 1.350 . S
C678 C677 1.434 . S
C679 C680 1.369 . S
C679 C681 1.419 . S
C679 H683 0.930 . S
C680 C679 1.369 . S
C680 C689 1.429 . S
C681 C679 1.419 . S
C681 C682 1.363 . S
C681 H684 0.929 . S
C682 C681 1.363 . S
C682 C688 1.428 . S
H683 C679 0.930 . S
H684 C681 0.929 . S
S685 N686 1.613 . S
S685 N687 1.610 1_545 S
N686 S685 1.613 . S
N686 C689 1.350 1_545 S
N687 S685 1.610 1_565 S
N687 C688 1.351 . S
C688 C682 1.428 . S
C688 N687 1.351 . S
C688 C689 1.434 . S
C689 C680 1.429 . S
C689 N686 1.350 1_565 S
C689 C688 1.434 . S
C690 C691 1.369 . S
C690 C692 1.419 . S
C690 H694 0.930 . S
C691 C690 1.369 . S
C691 C700 1.429 . S
C692 C690 1.419 . S
C692 C693 1.363 . S
C692 H695 0.929 . S
C693 C692 1.363 . S
C693 C699 1.428 . S
H694 C690 0.930 . S
H695 C692 0.929 . S
S696 N697 1.613 . S
S696 N698 1.610 . S
N697 S696 1.613 . S
N697 C700 1.350 . S
N698 S696 1.610 . S
N698 C699 1.351 . S
C699 C693 1.428 . S
C699 N698 1.351 . S
C699 C700 1.434 . S
C700 C691 1.429 . S
C700 N697 1.350 . S
C700 C699 1.434 . S
C701 C702 1.369 . S
C701 C703 1.419 . S
C701 H705 0.930 . S
C702 C701 1.369 . S
C702 C711 1.429 . S
C703 C701 1.419 . S
C703 C704 1.363 . S
C703 H706 0.929 . S
C704 C703 1.363 . S
C704 C710 1.428 . S
H705 C701 0.930 . S
H706 C703 0.929 . S
S707 N708 1.613 . S
S707 N709 1.610 . S
N708 S707 1.613 . S
N708 C711 1.350 . S
N709 S707 1.610 . S
N709 C710 1.351 . S
C710 C704 1.428 . S
C710 N709 1.351 . S
C710 C711 1.434 . S
C711 C702 1.429 . S
C711 N708 1.350 . S
C711 C710 1.434 . S
C712 C713 1.369 . S
C712 C714 1.419 . S
C712 H716 0.930 . S
C713 C712 1.369 . S
C713 C722 1.429 . S
C714 C712 1.419 . S
C714 C715 1.363 . S
C714 H717 0.929 . S
C715 C714 1.363 . S
C715 C721 1.428 . S
H716 C712 0.930 . S
H717 C714 0.929 . S
S718 N719 1.613 . S
S718 N720 1.610 . S
N719 S718 1.613 . S
N719 C722 1.350 . S
N720 S718 1.610 . S
N720 C721 1.351 . S
C721 C715 1.428 . S
C721 N720 1.351 . S
C721 C722 1.434 . S
C722 C713 1.429 . S
C722 N719 1.350 . S
C722 C721 1.434 . S
C723 C724 1.369 . S
C723 C725 1.419 . S
C723 H727 0.930 . S
C724 C723 1.369 . S
C724 C733 1.429 . S
C725 C723 1.419 . S
C725 C726 1.363 . S
C725 H728 0.929 . S
C726 C725 1.363 . S
C726 C732 1.428 . S
H727 C723 0.930 . S
H728 C725 0.929 . S
S729 N730 1.613 . S
S729 N731 1.610 . S
N730 S729 1.613 . S
N730 C733 1.350 . S
N731 S729 1.610 . S
N731 C732 1.351 . S
C732 C726 1.428 . S
C732 N731 1.351 . S
C732 C733 1.434 . S
C733 C724 1.429 . S
C733 N730 1.350 . S
C733 C732 1.434 . S
C734 C735 1.369 . S
C734 C736 1.419 . S
C734 H738 0.930 . S
C735 C734 1.369 . S
C735 C744 1.429 . S
C736 C734 1.419 . S
C736 C737 1.363 . S
C736 H739 0.929 . S
C737 C736 1.363 . S
C737 C743 1.428 . S
H738 C734 0.930 . S
H739 C736 0.929 . S
S740 N741 1.613 . S
S740 N742 1.610 . S
N741 S740 1.613 . S
N741 C744 1.350 . S
N742 S740 1.610 . S
N742 C743 1.351 . S
C743 C737 1.428 . S
C743 N742 1.351 . S
C743 C744 1.434 . S
C744 C735 1.429 . S
C744 N741 1.350 . S
C744 C743 1.434 . S
C745 C746 1.369 . S
C745 C747 1.419 . S
C745 H749 0.930 . S
C746 C745 1.369 . S
C746 C755 1.429 . S
C747 C745 1.419 . S
C747 C748 1.363 . S
C747 H750 0.929 . S
C748 C747 1.363 . S
C748 C754 1.428 . S
H749 C745 0.930 . S
H750 C747 0.929 . S
S751 N752 1.613 . S
S751 N753 1.610 . S
N752 S751 1.613 . S
N752 C755 1.350 . S
N753 S751 1.610 . S
N753 C754 1.351 . S
C754 C748 1.428 . S
C754 N753 1.351 . S
C754 C755 1.434 . S
C755 C746 1.429 . S
C755 N752 1.350 . S
C755 C754 1.434 . S
C756 C757 1.369 . S
C756 C758 1.419 . S
C756 H760 0.930 . S
C757 C756 1.369 . S
C757 C766 1.429 . S
C758 C756 1.419 . S
C758 C759 1.363 . S
C758 H761 0.929 . S
C759 C758 1.363 . S
C759 C765 1.428 . S
H760 C756 0.930 . S
H761 C758 0.929 . S
S762 N763 1.613 . S
S762 N764 1.610 . S
N763 S762 1.613 . S
N763 C766 1.350 . S
N764 S762 1.610 . S
N764 C765 1.351 . S
C765 C759 1.428 . S
C765 N764 1.351 . S
C765 C766 1.434 . S
C766 C757 1.429 . S
C766 N763 1.350 . S
C766 C765 1.434 . S
C767 C768 1.369 . S
C767 C769 1.419 . S
C767 H771 0.930 . S
C768 C767 1.369 . S
C768 C777 1.429 . S
C769 C767 1.419 . S
C769 C770 1.363 . S
C769 H772 0.929 . S
C770 C769 1.363 . S
C770 C776 1.428 . S
H771 C767 0.930 . S
H772 C769 0.929 . S
S773 N774 1.613 . S
S773 N775 1.610 . S
N774 S773 1.613 . S
N774 C777 1.350 . S
N775 S773 1.610 . S
N775 C776 1.351 . S
C776 C770 1.428 . S
C776 N775 1.351 . S
C776 C777 1.434 . S
C777 C768 1.429 . S
C777 N774 1.350 . S
C777 C776 1.434 . S
C778 C779 1.369 . S
C778 C780 1.419 . S
C778 H782 0.930 . S
C779 C778 1.369 . S
C779 C788 1.429 . S
C780 C778 1.419 . S
C780 C781 1.363 . S
C780 H783 0.929 . S
C781 C780 1.363 . S
C781 C787 1.428 . S
H782 C778 0.930 . S
H783 C780 0.929 . S
S784 N785 1.613 . S
S784 N786 1.610 . S
N785 S784 1.613 . S
N785 C788 1.350 . S
N786 S784 1.610 . S
N786 C787 1.351 . S
C787 C781 1.428 . S
C787 N786 1.351 . S
C787 C788 1.434 . S
C788 C779 1.429 . S
C788 N785 1.350 . S
C788 C787 1.434 . S
C789 C790 1.369 . S
C789 C791 1.419 . S
C789 H793 0.930 . S
C790 C789 1.369 . S
C790 C799 1.429 . S
C791 C789 1.419 . S
C791 C792 1.363 . S
C791 H794 0.929 . S
C792 C791 1.363 . S
C792 C798 1.428 . S
H793 C789 0.930 . S
H794 C791 0.929 . S
S795 N796 1.613 . S
S795 N797 1.610 . S
N796 S795 1.613 . S
N796 C799 1.350 . S
N797 S795 1.610 . S
N797 C798 1.351 . S
C798 C792 1.428 . S
C798 N797 1.351 . S
C798 C799 1.434 . S
C799 C790 1.429 . S
C799 N796 1.350 . S
C799 C798 1.434 . S
C800 C801 1.369 . S
C800 C802 1.419 . S
C800 H804 0.930 . S
C801 C800 1.369 . S
C801 C810 1.429 . S
C802 C800 1.419 . S
C802 C803 1.363 . S
C802 H805 0.929 . S
C803 C802 1.363 . S
C803 C809 1.428 . S
H804 C800 0.930 . S
H805 C802 0.929 . S
S806 N807 1.613 . S
S806 N808 1.610 . S
N807 S806 1.613 . S
N807 C810 1.350 . S
N808 S806 1.610 . S
N808 C809 1.351 . S
C809 C803 1.428 . S
C809 N808 1.351 . S
C809 C810 1.434 . S
C810 C801 1.429 . S
C810 N807 1.350 . S
C810 C809 1.434 . S
C811 C812 1.369 . S
C811 C813 1.419 . S
C811 H815 0.930 . S
C812 C811 1.369 . S
C812 C821 1.429 . S
C813 C811 1.419 . S
C813 C814 1.363 . S
C813 H816 0.929 . S
C814 C813 1.363 . S
C814 C820 1.428 . S
H815 C811 0.930 . S
H816 C813 0.929 . S
S817 N818 1.613 . S
S817 N819 1.610 . S
N818 S817 1.613 . S
N818 C821 1.350 . S
N819 S817 1.610 . S
N819 C820 1.351 . S
C820 C814 1.428 . S
C820 N819 1.351 . S
C820 C821 1.434 . S
C821 C812 1.429 . S
C821 N818 1.350 . S
C821 C820 1.434 . S
C822 C823 1.369 . S
C822 C824 1.419 . S
C822 H826 0.930 . S
C823 C822 1.369 . S
C823 C832 1.429 . S
C824 C822 1.419 . S
C824 C825 1.363 . S
C824 H827 0.929 . S
C825 C824 1.363 . S
C825 C831 1.428 . S
H826 C822 0.930 . S
H827 C824 0.929 . S
S828 N829 1.613 . S
S828 N830 1.610 . S
N829 S828 1.613 . S
N829 C832 1.350 . S
N830 S828 1.610 . S
N830 C831 1.351 . S
C831 C825 1.428 . S
C831 N830 1.351 . S
C831 C832 1.434 . S
C832 C823 1.429 . S
C832 N829 1.350 . S
C832 C831 1.434 . S
C833 C834 1.369 . S
C833 C835 1.419 . S
C833 H837 0.930 . S
C834 C833 1.369 . S
C834 C843 1.429 . S
C835 C833 1.419 . S
C835 C836 1.363 . S
C835 H838 0.929 . S
C836 C835 1.363 . S
C836 C842 1.428 . S
H837 C833 0.930 . S
H838 C835 0.929 . S
S839 N840 1.613 . S
S839 N841 1.610 . S
N840 S839 1.613 . S
N840 C843 1.350 . S
N841 S839 1.610 . S
N841 C842 1.351 . S
C842 C836 1.428 . S
C842 N841 1.351 . S
C842 C843 1.434 . S
C843 C834 1.429 . S
C843 N840 1.350 . S
C843 C842 1.434 . S
C844 C845 1.369 . S
C844 C846 1.419 . S
C844 H848 0.930 . S
C845 C844 1.369 . S
C845 C854 1.429 . S
C846 C844 1.419 . S
C846 C847 1.363 . S
C846 H849 0.929 . S
C847 C846 1.363 . S
C847 C853 1.428 . S
H848 C844 0.930 . S
H849 C846 0.929 . S
S850 N851 1.613 . S
S850 N852 1.610 . S
N851 S850 1.613 . S
N851 C854 1.350 . S
N852 S850 1.610 . S
N852 C853 1.351 . S
C853 C847 1.428 . S
C853 N852 1.351 . S
C853 C854 1.434 . S
C854 C845 1.429 . S
C854 N851 1.350 . S
C854 C853 1.434 . S
C855 C856 1.369 . S
C855 C857 1.419 . S
C855 H859 0.930 . S
C856 C855 1.369 . S
C856 C865 1.429 . S
C857 C855 1.419 . S
C857 C858 1.363 . S
C857 H860 0.929 . S
C858 C857 1.363 . S
C858 C864 1.428 . S
H859 C855 0.930 . S
H860 C857 0.929 . S
S861 N862 1.613 . S
S861 N863 1.610 . S
N862 S861 1.613 . S
N862 C865 1.350 . S
N863 S861 1.610 . S
N863 C864 1.351 . S
C864 C858 1.428 . S
C864 N863 1.351 . S
C864 C865 1.434 . S
C865 C856 1.429 . S
C865 N862 1.350 . S
C865 C864 1.434 . S
C866 C867 1.369 . S
C866 C868 1.419 . S
C866 H870 0.930 . S
C867 C866 1.369 . S
C867 C876 1.429 . S
C868 C866 1.419 . S
C868 C869 1.363 . S
C868 H871 0.929 . S
C869 C868 1.363 . S
C869 C875 1.428 . S
H870 C866 0.930 . S
H871 C868 0.929 . S
S872 N873 1.613 . S
S872 N874 1.610 . S
N873 S872 1.613 . S
N873 C876 1.350 . S
N874 S872 1.610 . S
N874 C875 1.351 . S
C875 C869 1.428 . S
C875 N874 1.351 . S
C875 C876 1.434 . S
C876 C867 1.429 . S
C876 N873 1.350 . S
C876 C875 1.434 . S
C877 C878 1.369 . S
C877 C879 1.419 . S
C877 H881 0.930 . S
C878 C877 1.369 . S
C878 C887 1.429 . S
C879 C877 1.419 . S
C879 C880 1.363 . S
C879 H882 0.929 . S
C880 C879 1.363 . S
C880 C886 1.428 . S
H881 C877 0.930 . S
H882 C879 0.929 . S
S883 N884 1.613 . S
S883 N885 1.610 . S
N884 S883 1.613 . S
N884 C887 1.350 . S
N885 S883 1.610 . S
N885 C886 1.351 . S
C886 C880 1.428 . S
C886 N885 1.351 . S
C886 C887 1.434 . S
C887 C878 1.429 . S
C887 N884 1.350 . S
C887 C886 1.434 . S
C888 C889 1.369 . S
C888 C890 1.419 . S
C888 H892 0.930 . S
C889 C888 1.369 . S
C889 C898 1.429 . S
C890 C888 1.419 . S
C890 C891 1.363 . S
C890 H893 0.929 . S
C891 C890 1.363 . S
C891 C897 1.428 . S
H892 C888 0.930 . S
H893 C890 0.929 . S
S894 N895 1.613 . S
S894 N896 1.610 . S
N895 S894 1.613 . S
N895 C898 1.350 . S
N896 S894 1.610 . S
N896 C897 1.351 . S
C897 C891 1.428 . S
C897 N896 1.351 . S
C897 C898 1.434 . S
C898 C889 1.429 . S
C898 N895 1.350 . S
C898 C897 1.434 . S
C899 C900 1.369 . S
C899 C901 1.419 . S
C899 H903 0.930 . S
C900 C899 1.369 . S
C900 C909 1.429 . S
C901 C899 1.419 . S
C901 C902 1.363 . S
C901 H904 0.929 . S
C902 C901 1.363 . S
C902 C908 1.428 . S
H903 C899 0.930 . S
H904 C901 0.929 . S
S905 N906 1.613 . S
S905 N907 1.610 . S
N906 S905 1.613 . S
N906 C909 1.350 . S
N907 S905 1.610 . S
N907 C908 1.351 . S
C908 C902 1.428 . S
C908 N907 1.351 . S
C908 C909 1.434 . S
C909 C900 1.429 . S
C909 N906 1.350 . S
C909 C908 1.434 . S
C910 C911 1.369 . S
C910 C912 1.419 . S
C910 H914 0.930 . S
C911 C910 1.369 . S
C911 C920 1.429 . S
C912 C910 1.419 . S
C912 C913 1.363 . S
C912 H915 0.929 . S
C913 C912 1.363 . S
C913 C919 1.428 . S
H914 C910 0.930 . S
H915 C912 0.929 . S
S916 N917 1.613 . S
S916 N918 1.610 . S
N917 S916 1.613 . S
N917 C920 1.350 . S
N918 S916 1.610 . S
N918 C919 1.351 . S
C919 C913 1.428 . S
C919 N918 1.351 . S
C919 C920 1.434 . S
C920 C911 1.429 . S
C920 N917 1.350 . S
C920 C919 1.434 . S
C921 C922 1.369 . S
C921 C923 1.419 . S
C921 H925 0.930 . S
C922 C921 1.369 . S
C922 C931 1.429 . S
C923 C921 1.419 . S
C923 C924 1.363 . S
C923 H926 0.929 . S
C924 C923 1.363 . S
C924 C930 1.428 . S
H925 C921 0.930 . S
H926 C923 0.929 . S
S927 N928 1.613 . S
S927 N929 1.610 . S
N928 S927 1.613 . S
N928 C931 1.350 . S
N929 S927 1.610 . S
N929 C930 1.351 . S
C930 C924 1.428 . S
C930 N929 1.351 . S
C930 C931 1.434 . S
C931 C922 1.429 . S
C931 N928 1.350 . S
C931 C930 1.434 . S
C932 C933 1.369 . S
C932 C934 1.419 . S
C932 H936 0.930 . S
C933 C932 1.369 . S
C933 C942 1.429 . S
C934 C932 1.419 . S
C934 C935 1.363 . S
C934 H937 0.929 . S
C935 C934 1.363 . S
C935 C941 1.428 . S
H936 C932 0.930 . S
H937 C934 0.929 . S
S938 N939 1.613 . S
S938 N940 1.610 . S
N939 S938 1.613 . S
N939 C942 1.350 . S
N940 S938 1.610 . S
N940 C941 1.351 . S
C941 C935 1.428 . S
C941 N940 1.351 . S
C941 C942 1.434 . S
C942 C933 1.429 . S
C942 N939 1.350 . S
C942 C941 1.434 . S
C943 C944 1.369 . S
C943 C945 1.419 . S
C943 H947 0.930 . S
C944 C943 1.369 . S
C944 C953 1.429 . S
C945 C943 1.419 . S
C945 C946 1.363 . S
C945 H948 0.929 . S
C946 C945 1.363 . S
C946 C952 1.428 . S
H947 C943 0.930 . S
H948 C945 0.929 . S
S949 N950 1.613 . S
S949 N951 1.610 . S
N950 S949 1.613 . S
N950 C953 1.350 . S
N951 S949 1.610 . S
N951 C952 1.351 . S
C952 C946 1.428 . S
C952 N951 1.351 . S
C952 C953 1.434 . S
C953 C944 1.429 . S
C953 N950 1.350 . S
C953 C952 1.434 . S
C954 C955 1.369 . S
C954 C956 1.419 . S
C954 H958 0.930 . S
C955 C954 1.369 . S
C955 C964 1.429 . S
C956 C954 1.419 . S
C956 C957 1.363 . S
C956 H959 0.929 . S
C957 C956 1.363 . S
C957 C963 1.428 . S
H958 C954 0.930 . S
H959 C956 0.929 . S
S960 N961 1.613 . S
S960 N962 1.610 . S
N961 S960 1.613 . S
N961 C964 1.350 . S
N962 S960 1.610 . S
N962 C963 1.351 . S
C963 C957 1.428 . S
C963 N962 1.351 . S
C963 C964 1.434 . S
C964 C955 1.429 . S
C964 N961 1.350 . S
C964 C963 1.434 . S
C965 C966 1.369 . S
C965 C967 1.419 . S
C965 H969 0.930 . S
C966 C965 1.369 . S
C966 C975 1.429 . S
C967 C965 1.419 . S
C967 C968 1.363 . S
C967 H970 0.929 . S
C968 C967 1.363 . S
C968 C974 1.428 . S
H969 C965 0.930 . S
H970 C967 0.929 . S
S971 N972 1.613 . S
S971 N973 1.610 . S
N972 S971 1.613 . S
N972 C975 1.350 . S
N973 S971 1.610 . S
N973 C974 1.351 . S
C974 C968 1.428 . S
C974 N973 1.351 . S
C974 C975 1.434 . S
C975 C966 1.429 . S
C975 N972 1.350 . S
C975 C974 1.434 . S
C976 C977 1.369 . S
C976 C978 1.419 . S
C976 H980 0.930 . S
C977 C976 1.369 . S
C977 C986 1.429 . S
C978 C976 1.419 . S
C978 C979 1.363 . S
C978 H981 0.929 . S
C979 C978 1.363 . S
C979 C985 1.428 . S
H980 C976 0.930 . S
H981 C978 0.929 . S
S982 N983 1.613 . S
S982 N984 1.610 . S
N983 S982 1.613 . S
N983 C986 1.350 . S
N984 S982 1.610 . S
N984 C985 1.351 . S
C985 C979 1.428 . S
C985 N984 1.351 . S
C985 C986 1.434 . S
C986 C977 1.429 . S
C986 N983 1.350 . S
C986 C985 1.434 . S
C987 C988 1.369 . S
C987 C989 1.419 . S
C987 H991 0.930 . S
C988 C987 1.369 . S
C988 C997 1.429 . S
C989 C987 1.419 . S
C989 C990 1.363 . S
C989 H992 0.929 . S
C990 C989 1.363 . S
C990 C996 1.428 . S
H991 C987 0.930 . S
H992 C989 0.929 . S
S993 N994 1.613 . S
S993 N995 1.610 . S
N994 S993 1.613 . S
N994 C997 1.350 . S
N995 S993 1.610 . S
N995 C996 1.351 . S
C996 C990 1.428 . S
C996 N995 1.351 . S
C996 C997 1.434 . S
C997 C988 1.429 . S
C997 N994 1.350 . S
C997 C996 1.434 . S
C998 C999 1.369 . S
C998 C1000 1.419 . S
C998 H1002 0.930 . S
C999 C998 1.369 . S
C999 C1008 1.429 . S
C1000 C998 1.419 . S
C1000 C1001 1.363 . S
C1000 H1003 0.929 . S
C1001 C1000 1.363 . S
C1001 C1007 1.428 . S
H1002 C998 0.930 . S
H1003 C1000 0.929 . S
S1004 N1005 1.613 . S
S1004 N1006 1.610 . S
N1005 S1004 1.613 . S
N1005 C1008 1.350 . S
N1006 S1004 1.610 . S
N1006 C1007 1.351 . S
C1007 C1001 1.428 . S
C1007 N1006 1.351 . S
C1007 C1008 1.434 . S
C1008 C999 1.429 . S
C1008 N1005 1.350 . S
C1008 C1007 1.434 . S
C1009 C1010 1.369 . S
C1009 C1011 1.419 . S
C1009 H1013 0.930 . S
C1010 C1009 1.369 . S
C1010 C1019 1.429 . S
C1011 C1009 1.419 . S
C1011 C1012 1.363 . S
C1011 H1014 0.929 . S
C1012 C1011 1.363 . S
C1012 C1018 1.428 . S
H1013 C1009 0.930 . S
H1014 C1011 0.929 . S
S1015 N1016 1.613 . S
S1015 N1017 1.610 . S
N1016 S1015 1.613 . S
N1016 C1019 1.350 . S
N1017 S1015 1.610 . S
N1017 C1018 1.351 . S
C1018 C1012 1.428 . S
C1018 N1017 1.351 . S
C1018 C1019 1.434 . S
C1019 C1010 1.429 . S
C1019 N1016 1.350 . S
C1019 C1018 1.434 . S
C1020 C1021 1.369 . S
C1020 C1022 1.419 . S
C1020 H1024 0.930 . S
C1021 C1020 1.369 . S
C1021 C1030 1.429 . S
C1022 C1020 1.419 . S
C1022 C1023 1.363 . S
C1022 H1025 0.929 . S
C1023 C1022 1.363 . S
C1023 C1029 1.428 . S
H1024 C1020 0.930 . S
H1025 C1022 0.929 . S
S1026 N1027 1.613 . S
S1026 N1028 1.610 . S
N1027 S1026 1.613 . S
N1027 C1030 1.350 . S
N1028 S1026 1.610 . S
N1028 C1029 1.351 . S
C1029 C1023 1.428 . S
C1029 N1028 1.351 . S
C1029 C1030 1.434 . S
C1030 C1021 1.429 . S
C1030 N1027 1.350 . S
C1030 C1029 1.434 . S
C1031 C1032 1.369 . S
C1031 C1033 1.419 . S
C1031 H1035 0.930 . S
C1032 C1031 1.369 . S
C1032 C1041 1.429 . S
C1033 C1031 1.419 . S
C1033 C1034 1.363 . S
C1033 H1036 0.929 . S
C1034 C1033 1.363 . S
C1034 C1040 1.428 . S
H1035 C1031 0.930 . S
H1036 C1033 0.929 . S
S1037 N1038 1.613 . S
S1037 N1039 1.610 . S
N1038 S1037 1.613 . S
N1038 C1041 1.350 . S
N1039 S1037 1.610 . S
N1039 C1040 1.351 . S
C1040 C1034 1.428 . S
C1040 N1039 1.351 . S
C1040 C1041 1.434 . S
C1041 C1032 1.429 . S
C1041 N1038 1.350 . S
C1041 C1040 1.434 . S
C1042 C1043 1.369 . S
C1042 C1044 1.419 . S
C1042 H1046 0.930 . S
C1043 C1042 1.369 . S
C1043 C1052 1.429 . S
C1044 C1042 1.419 . S
C1044 C1045 1.363 . S
C1044 H1047 0.929 . S
C1045 C1044 1.363 . S
C1045 C1051 1.428 . S
H1046 C1042 0.930 . S
H1047 C1044 0.929 . S
S1048 N1049 1.613 . S
S1048 N1050 1.610 . S
N1049 S1048 1.613 . S
N1049 C1052 1.350 . S
N1050 S1048 1.610 . S
N1050 C1051 1.351 . S
C1051 C1045 1.428 . S
C1051 N1050 1.351 . S
C1051 C1052 1.434 . S
C1052 C1043 1.429 . S
C1052 N1049 1.350 . S
C1052 C1051 1.434 . S
C1053 C1054 1.369 . S
C1053 C1055 1.419 . S
C1053 H1057 0.930 . S
C1054 C1053 1.369 . S
C1054 C1063 1.429 . S
C1055 C1053 1.419 . S
C1055 C1056 1.363 . S
C1055 H1058 0.929 . S
C1056 C1055 1.363 . S
C1056 C1062 1.428 . S
H1057 C1053 0.930 . S
H1058 C1055 0.929 . S
S1059 N1060 1.613 . S
S1059 N1061 1.610 . S
N1060 S1059 1.613 . S
N1060 C1063 1.350 . S
N1061 S1059 1.610 . S
N1061 C1062 1.351 . S
C1062 C1056 1.428 . S
C1062 N1061 1.351 . S
C1062 C1063 1.434 . S
C1063 C1054 1.429 . S
C1063 N1060 1.350 . S
C1063 C1062 1.434 . S
C1064 C1065 1.369 . S
C1064 C1066 1.419 . S
C1064 H1068 0.930 . S
C1065 C1064 1.369 . S
C1065 C1074 1.429 . S
C1066 C1064 1.419 . S
C1066 C1067 1.363 . S
C1066 H1069 0.929 . S
C1067 C1066 1.363 . S
C1067 C1073 1.428 . S
H1068 C1064 0.930 . S
H1069 C1066 0.929 . S
S1070 N1071 1.613 . S
S1070 N1072 1.610 . S
N1071 S1070 1.613 . S
N1071 C1074 1.350 . S
N1072 S1070 1.610 . S
N1072 C1073 1.351 . S
C1073 C1067 1.428 . S
C1073 N1072 1.351 . S
C1073 C1074 1.434 . S
C1074 C1065 1.429 . S
C1074 N1071 1.350 . S
C1074 C1073 1.434 . S
C1075 C1076 1.369 . S
C1075 C1077 1.419 . S
C1075 H1079 0.930 . S
C1076 C1075 1.369 . S
C1076 C1085 1.429 . S
C1077 C1075 1.419 . S
C1077 C1078 1.363 . S
C1077 H1080 0.929 . S
C1078 C1077 1.363 . S
C1078 C1084 1.428 . S
H1079 C1075 0.930 . S
H1080 C1077 0.929 . S
S1081 N1082 1.613 . S
S1081 N1083 1.610 . S
N1082 S1081 1.613 . S
N1082 C1085 1.350 . S
N1083 S1081 1.610 . S
N1083 C1084 1.351 . S
C1084 C1078 1.428 . S
C1084 N1083 1.351 . S
C1084 C1085 1.434 . S
C1085 C1076 1.429 . S
C1085 N1082 1.350 . S
C1085 C1084 1.434 . S
C1086 C1087 1.369 . S
C1086 C1088 1.419 . S
C1086 H1090 0.930 . S
C1087 C1086 1.369 . S
C1087 C1096 1.429 . S
C1088 C1086 1.419 . S
C1088 C1089 1.363 . S
C1088 H1091 0.929 . S
C1089 C1088 1.363 . S
C1089 C1095 1.428 . S
H1090 C1086 0.930 . S
H1091 C1088 0.929 . S
S1092 N1093 1.613 . S
S1092 N1094 1.610 . S
N1093 S1092 1.613 . S
N1093 C1096 1.350 . S
N1094 S1092 1.610 . S
N1094 C1095 1.351 . S
C1095 C1089 1.428 . S
C1095 N1094 1.351 . S
C1095 C1096 1.434 . S
C1096 C1087 1.429 . S
C1096 N1093 1.350 . S
C1096 C1095 1.434 . S
C1097 C1098 1.369 . S
C1097 C1099 1.419 . S
C1097 H1101 0.930 . S
C1098 C1097 1.369 . S
C1098 C1107 1.429 . S
C1099 C1097 1.419 . S
C1099 C1100 1.363 . S
C1099 H1102 0.929 . S
C1100 C1099 1.363 . S
C1100 C1106 1.428 . S
H1101 C1097 0.930 . S
H1102 C1099 0.929 . S
S1103 N1104 1.613 . S
S1103 N1105 1.610 . S
N1104 S1103 1.613 . S
N1104 C1107 1.350 . S
N1105 S1103 1.610 . S
N1105 C1106 1.351 . S
C1106 C1100 1.428 . S
C1106 N1105 1.351 . S
C1106 C1107 1.434 . S
C1107 C1098 1.429 . S
C1107 N1104 1.350 . S
C1107 C1106 1.434 . S
C1108 C1109 1.369 . S
C1108 C1110 1.419 . S
C1108 H1112 0.930 . S
C1109 C1108 1.369 . S
C1109 C1118 1.429 . S
C1110 C1108 1.419 . S
C1110 C1111 1.363 . S
C1110 H1113 0.929 . S
C1111 C1110 1.363 . S
C1111 C1117 1.428 . S
H1112 C1108 0.930 . S
H1113 C1110 0.929 . S
S1114 N1115 1.613 . S
S1114 N1116 1.610 . S
N1115 S1114 1.613 . S
N1115 C1118 1.350 . S
N1116 S1114 1.610 . S
N1116 C1117 1.351 . S
C1117 C1111 1.428 . S
C1117 N1116 1.351 . S
C1117 C1118 1.434 . S
C1118 C1109 1.429 . S
C1118 N1115 1.350 . S
C1118 C1117 1.434 . S
C1119 C1120 1.369 . S
C1119 C1121 1.419 . S
C1119 H1123 0.930 . S
C1120 C1119 1.369 . S
C1120 C1129 1.429 . S
C1121 C1119 1.419 . S
C1121 C1122 1.363 . S
C1121 H1124 0.929 . S
C1122 C1121 1.363 . S
C1122 C1128 1.428 . S
H1123 C1119 0.930 . S
H1124 C1121 0.929 . S
S1125 N1126 1.613 . S
S1125 N1127 1.610 . S
N1126 S1125 1.613 . S
N1126 C1129 1.350 . S
N1127 S1125 1.610 . S
N1127 C1128 1.351 . S
C1128 C1122 1.428 . S
C1128 N1127 1.351 . S
C1128 C1129 1.434 . S
C1129 C1120 1.429 . S
C1129 N1126 1.350 . S
C1129 C1128 1.434 . S
C1130 C1131 1.369 . S
C1130 C1132 1.419 . S
C1130 H1134 0.930 . S
C1131 C1130 1.369 . S
C1131 C1140 1.429 . S
C1132 C1130 1.419 . S
C1132 C1133 1.363 . S
C1132 H1135 0.929 . S
C1133 C1132 1.363 . S
C1133 C1139 1.428 . S
H1134 C1130 0.930 . S
H1135 C1132 0.929 . S
S1136 N1137 1.613 . S
S1136 N1138 1.610 . S
N1137 S1136 1.613 . S
N1137 C1140 1.350 . S
N1138 S1136 1.610 . S
N1138 C1139 1.351 . S
C1139 C1133 1.428 . S
C1139 N1138 1.351 . S
C1139 C1140 1.434 . S
C1140 C1131 1.429 . S
C1140 N1137 1.350 . S
C1140 C1139 1.434 . S
C1141 C1142 1.369 . S
C1141 C1143 1.419 . S
C1141 H1145 0.930 . S
C1142 C1141 1.369 . S
C1142 C1151 1.429 . S
C1143 C1141 1.419 . S
C1143 C1144 1.363 . S
C1143 H1146 0.929 . S
C1144 C1143 1.363 . S
C1144 C1150 1.428 . S
H1145 C1141 0.930 . S
H1146 C1143 0.929 . S
S1147 N1148 1.613 . S
S1147 N1149 1.610 . S
N1148 S1147 1.613 . S
N1148 C1151 1.350 . S
N1149 S1147 1.610 . S
N1149 C1150 1.351 . S
C1150 C1144 1.428 . S
C1150 N1149 1.351 . S
C1150 C1151 1.434 . S
C1151 C1142 1.429 . S
C1151 N1148 1.350 . S
C1151 C1150 1.434 . S
C449 C62 1.527 . S
C451 C6 1.535 . S
C460 C76 1.529 . S
C462 C20 1.529 . S
C471 C90 1.537 . S
C473 C34 1.536 . S
C482 C48 1.533 . S
C484 C104 1.527 . S
C493 C118 1.527 . S
C495 C174 1.535 . S
C504 C188 1.527 . S
C506 C132 1.535 . S
C515 C146 1.535 . S
C517 C202 1.535 . S
C526 C216 1.536 . S
C528 C160 1.532 . S
C537 C230 1.527 . S
C539 C286 1.535 . S
C548 C300 1.533 . S
C550 C244 1.535 . S
C559 C314 1.537 . S
C561 C258 1.530 . S
C570 C328 1.531 . S
C572 C272 1.535 . S
C581 C342 1.535 . S
C583 C398 1.527 . S
C592 C356 1.534 . S
C594 C412 1.533 . S
C603 C370 1.534 . S
C605 C426 1.527 . S
C614 C384 1.526 . S
C616 C440 1.534 . S
C625 C8 1.708 1_565 S
C627 C106 1.710 . S
C636 C22 1.707 . S
C638 C64 1.710 1_545 S
C647 C36 1.710 1_545 S
C649 C78 1.708 . S
C658 C92 1.708 1_565 S
C660 C50 1.708 . S
C669 C218 1.709 . S
C671 C120 1.707 1_545 S
C680 C176 1.709 1_565 S
C682 C134 1.708 . S
C691 C190 1.707 . S
C693 C148 1.710 1_565 S
C702 C162 1.707 . S
C704 C204 1.710 1_545 S
C713 C330 1.707 . S
C715 C232 1.709 . S
C724 C288 1.708 . S
C726 C246 1.708 . S
C735 C302 1.707 . S
C737 C260 1.709 . S
C746 C274 1.709 . S
C748 C316 1.710 . S
C757 C344 1.709 . S
C759 C442 1.709 . S
C768 C358 1.707 . S
C770 C400 1.709 . S
C779 C372 1.711 . S
C781 C414 1.707 . S
C790 C428 1.708 . S
C792 C386 1.710 . S
C801 C9 1.448 . S
C803 C357 1.454 . S
C812 C23 1.454 . S
C814 C147 1.451 . S
C823 C37 1.455 . S
C825 C385 1.452 . S
C834 C119 1.457 . S
C836 C51 1.449 . S
C845 C441 1.456 . S
C847 C65 1.449 . S
C856 C79 1.452 . S
C858 C175 1.455 . S
C867 C93 1.451 . S
C869 C413 1.456 . S
C878 C107 1.449 . S
C880 C203 1.453 . S
C889 C245 1.454 . S
C891 C121 1.449 . S
C900 C35 1.453 . S
C902 C135 1.454 . S
C911 C273 1.454 . S
C913 C149 1.449 . S
C922 C163 1.455 . S
C924 C7 1.451 . S
C933 C329 1.452 . S
C935 C177 1.454 . S
C944 C63 1.454 . S
C946 C191 1.449 . S
C955 C301 1.457 . S
C957 C205 1.451 . S
C966 C91 1.456 . S
C968 C219 1.451 . S
C977 C133 1.450 . S
C979 C233 1.454 . S
C988 C247 1.449 . S
C990 C371 1.453 . S
C999 C261 1.450 . S
C1001 C161 1.456 . S
C1010 C275 1.448 . S
C1012 C343 1.455 . S
C1021 C289 1.452 . S
C1023 C217 1.451 . S
C1032 C399 1.450 . S
C1034 C303 1.452 . S
C1043 C317 1.448 . S
C1045 C189 1.455 . S
C1054 C331 1.451 . S
C1056 C427 1.451 . S
C1065 C345 1.448 . S
C1067 C21 1.455 . S
C1076 C359 1.448 . S
C1078 C259 1.456 . S
C1087 C49 1.450 . S
C1089 C373 1.452 . S
C1098 C231 1.452 . S
C1100 C387 1.450 . S
C1109 C401 1.450 . S
C1111 C105 1.456 . S
C1120 C415 1.449 . S
C1122 C287 1.456 . S
C1131 C77 1.456 . S
C1133 C429 1.449 . S
C1142 C315 1.455 . S
C1144 C443 1.453 . S
