# Generated by pormake.
# Topology kag, (6)-cn, num edge types: 1
# Building blocks:
#     Node 0, Type 0, BuildingBlock: GEDQOX_clean_sbu_0, # of connection points: 6
#     Node 1, Type 0, BuildingBlock: GEDQOX_clean_sbu_0, # of connection points: 6
#     Node 2, Type 0, BuildingBlock: GEDQOX_clean_sbu_0, # of connection points: 6
#     Edge 3, Type (0, 0), BuildingBlock: ZUJKAS_clean_linker_0, # of connection points: 2
#     Edge 4, Type (0, 0), BuildingBlock: ZUJKAS_clean_linker_0, # of connection points: 2
#     Edge 5, Type (0, 0), BuildingBlock: ZUJKAS_clean_linker_0, # of connection points: 2
#     Edge 6, Type (0, 0), BuildingBlock: ZUJKAS_clean_linker_0, # of connection points: 2
#     Edge 7, Type (0, 0), BuildingBlock: ZUJKAS_clean_linker_0, # of connection points: 2
#     Edge 8, Type (0, 0), BuildingBlock: ZUJKAS_clean_linker_0, # of connection points: 2
#     Edge 9, Type (0, 0), BuildingBlock: ZUJKAS_clean_linker_0, # of connection points: 2
#     Edge 10, Type (0, 0), BuildingBlock: ZUJKAS_clean_linker_0, # of connection points: 2
#     Edge 11, Type (0, 0), BuildingBlock: ZUJKAS_clean_linker_0, # of connection points: 2
# Relax obj value: 0.055
# Max RMSD: 0.171
# Mean RMSD: 0.098
data_MOF--net-kag--node1-GEDQOX_clean_sbu_0--edge1-ZUJKAS_clean_linker_0
_symmetry_space_group_name_H-M    P1
_symmetry_Int_Tables_number       1
_symmetry_cell_setting            triclinic
loop_
_symmetry_equiv_pos_as_xyz
'x, y, z'
_cell_length_a     58.985692
_cell_length_b     51.304173
_cell_length_c     19.150312
_cell_angle_alpha  94.626395
_cell_angle_beta   89.151082
_cell_angle_gamma 137.47316
loop_
_atom_site_label
_atom_site_type_symbol
_atom_site_fract_x
_atom_site_fract_y
_atom_site_fract_z
_atom_type_partial_charge
Nd0 Nd 1.03155 0.56522 0.03173 0.0
Nd1 Nd 0.04742 0.51634 0.98519 0.0
C2 C 1.01706 0.59721 0.10364 0.0
C3 C 0.99314 0.59859 0.09729 0.0
C4 C 0.99033 0.61486 0.15412 0.0
C5 C 0.9673 0.61581 0.14951 0.0
C6 C 0.94659 0.60046 0.08781 0.0
C7 C 0.94956 0.58414 0.03084 0.0
C8 C 0.97262 0.58319 0.03558 0.0
C9 C 1.02777 0.55131 0.88609 0.0
C10 C 0.96865 0.46904 1.00014 0.0
C11 C 0.06189 0.48457 0.9124 0.0
C12 C 0.08649 0.48422 0.91767 0.0
C13 C 0.08391 0.46013 0.86905 0.0
C14 C 0.10745 0.45994 0.8726 0.0
C15 C 0.13405 0.48392 0.92494 0.0
C16 C 0.13645 0.50803 0.97375 0.0
C17 C 0.11284 0.50815 0.97016 0.0
C18 C 0.05093 0.52999 0.13078 0.0
C19 C 0.11058 0.61219 0.01944 0.0
O20 O 1.00408 0.56357 0.11477 0.0
O21 O 0.04042 0.6151 0.05837 0.0
O22 O 1.02281 0.57017 0.91705 0.0
O23 O 1.03348 0.54073 0.93332 0.0
O24 O 0.97931 0.50123 0.02938 0.0
O25 O 0.98927 0.46864 0.97282 0.0
O26 O 0.07402 0.5177 0.90037 0.0
O27 O 0.03922 0.4669 0.95919 0.0
O28 O 0.05585 0.51107 0.09986 0.0
O29 O 0.0453 0.54066 0.08355 0.0
O30 O 0.09997 0.57999 0.99066 0.0
O31 O 0.08984 0.61287 0.04469 0.0
H32 H 1.00582 0.62663 0.20235 0.0
H33 H 0.96536 0.62802 0.19479 0.0
H34 H 0.93431 0.57245 0.98229 0.0
H35 H 0.97442 0.57041 0.99117 0.0
H36 H 0.0638 0.44162 0.82799 0.0
H37 H 0.10511 0.44145 0.83358 0.0
H38 H 0.15637 0.52651 0.01516 0.0
H39 H 0.11515 0.52694 0.00821 0.0
Nd40 Nd 0.53396 0.06019 0.0093 0.0
Nd41 Nd 0.54981 1.01727 0.0247 0.0
C42 C 0.53108 0.10796 0.98744 0.0
C43 C 0.53037 0.1359 0.97862 0.0
C44 C 0.51498 0.13284 0.91826 0.0
C45 C 0.51438 0.15941 0.91144 0.0
C46 C 0.52925 0.1897 0.96476 0.0
C47 C 0.54452 0.19248 0.02506 0.0
C48 C 0.54509 0.16604 0.03185 0.0
C49 C 0.53166 0.04362 0.14413 0.0
C50 C 0.61228 0.10856 0.02159 0.0
C51 C 0.55783 0.97554 0.06285 0.0
C52 C 0.55077 0.94108 0.04733 0.0
C53 C 0.52771 0.9088 0.08568 0.0
C54 C 0.5248 0.87895 0.0793 0.0
C55 C 0.54517 0.88086 0.03498 0.0
C56 C 0.56743 0.91256 0.99496 0.0
C57 C 0.57023 0.94225 1.00108 0.0
C58 C 0.55006 1.03047 0.88775 0.0
C59 C 0.46932 0.96756 0.00753 0.0
O60 O 0.51799 0.07885 0.94115 0.0
O61 O 0.54557 0.11127 0.04375 0.0
O62 O 0.50994 0.0404 0.11491 0.0
O63 O 0.55417 0.05592 0.10302 0.0
O64 O 0.59027 0.10416 0.98708 0.0
O65 O 0.60155 0.08011 0.05586 0.0
O66 O 0.53403 0.97092 0.08498 0.0
O67 O 0.57782 1.00376 0.02295 0.0
O68 O 0.57 1.03044 0.91491 0.0
O69 O 0.52898 1.02065 0.93074 0.0
O70 O 0.49123 0.96781 0.02464 0.0
O71 O 0.47949 0.99946 0.99228 0.0
H72 H 0.50343 0.10996 0.87631 0.0
H73 H 0.50262 0.1565 0.864 0.0
H74 H 0.55567 0.21485 0.06785 0.0
H75 H 0.55701 0.16919 0.07929 0.0
H76 H 0.51275 0.90725 0.12265 0.0
H77 H 0.50759 0.85519 0.1114 0.0
H78 H 0.58316 0.91476 0.95952 0.0
H79 H 0.5885 0.96676 0.97112 0.0
Nd80 Nd 0.49672 0.50108 0.98252 0.0
Nd81 Nd 0.57497 0.56543 0.02289 0.0
C82 C 0.43553 0.45997 0.93057 0.0
C83 C 0.41341 0.46418 0.9312 0.0
C84 C 0.38595 0.44141 0.88184 0.0
C85 C 0.36451 0.44482 0.88223 0.0
C86 C 0.37017 0.47114 0.93209 0.0
C87 C 0.39806 0.49426 0.98108 0.0
C88 C 0.41947 0.49078 0.98064 0.0
C89 C 0.5151 0.51073 0.12145 0.0
C90 C 0.54034 0.59374 0.01645 0.0
C91 C 0.63222 0.60533 0.09453 0.0
C92 C 0.65866 0.60781 0.08863 0.0
C93 C 0.68249 0.62553 0.14475 0.0
C94 C 0.70652 0.62601 0.14117 0.0
C95 C 0.70712 0.60871 0.08128 0.0
C96 C 0.68323 0.59125 0.02485 0.0
C97 C 0.65918 0.59071 0.02861 0.0
C98 C 0.564 0.55178 0.87753 0.0
C99 C 0.53157 0.47394 0.97755 0.0
O100 O 0.46233 0.48397 0.8951 0.0
O101 O 0.4416 0.45505 0.99069 0.0
O102 O 0.48946 0.47726 0.08707 0.0
O103 O 0.52945 0.5378 0.08295 0.0
O104 O 0.5116 0.5574 0.99494 0.0
O105 O 0.56797 0.60416 0.03398 0.0
O106 O 0.60309 0.5721 0.11139 0.0
O107 O 0.62953 0.61927 0.04488 0.0
O108 O 0.59366 0.57702 0.90991 0.0
O109 O 0.54245 0.53568 0.9228 0.0
O110 O 0.55741 0.50738 0.01485 0.0
O111 O 0.5066 0.46634 0.94959 0.0
H112 H 0.38105 0.42091 0.84301 0.0
H113 H 0.34365 0.42705 0.84303 0.0
H114 H 0.403 0.51453 0.02062 0.0
H115 H 0.44059 0.50861 0.01922 0.0
H116 H 0.6822 0.63847 0.19183 0.0
H117 H 0.72413 0.63917 0.18605 0.0
H118 H 0.68315 0.57807 0.97761 0.0
H119 H 0.64076 0.57661 0.98491 0.0
H120 H 1.02128 0.58084 0.7873 0.0
H121 H 1.02483 0.57647 0.66044 0.0
H122 H 0.04207 0.50903 0.68139 0.0
H123 H 0.0377 0.51263 0.80905 0.0
H124 H 0.07646 0.60268 0.58461 0.0
H125 H 0.96777 0.44312 0.52608 0.0
H126 H 0.97514 0.46795 0.60978 0.0
H127 H 0.99854 0.45843 0.59009 0.0
C128 C 1.02562 0.56481 0.76502 0.0
C129 C 1.02929 0.54714 0.8086 0.0
C130 C 1.02775 0.56244 0.69221 0.0
C131 C 1.0334 0.5421 0.66052 0.0
C132 C 1.03709 0.52433 0.70395 0.0
H133 H 0.05773 0.50083 0.22977 0.0
H134 H 0.054 0.50508 0.35658 0.0
C135 C 1.03491 0.52669 0.77717 0.0
C136 C 1.03609 0.5405 0.58248 0.0
H137 H 1.00188 0.47841 0.43206 0.0
C138 C 0.06004 0.57546 0.55131 0.0
C139 C 1.0147 0.50508 0.53846 0.0
C140 C 0.98737 0.46649 0.56753 0.0
C141 C 0.06361 0.576 0.47822 0.0
C142 C 0.04224 0.54059 0.43421 0.0
C143 C 1.01828 0.50563 0.46537 0.0
C144 C 0.04499 0.539 0.35621 0.0
C145 C 0.09091 0.61458 0.44909 0.0
C146 C 0.04109 0.55654 0.31266 0.0
C147 C 0.04335 0.55423 0.23947 0.0
C148 C 0.04929 0.53409 0.20822 0.0
C149 C 0.05316 0.51663 0.25192 0.0
C150 C 0.05093 0.51893 0.32469 0.0
H151 H 0.11042 0.63803 0.49056 0.0
H152 H 0.10325 0.61317 0.40708 0.0
H153 H 0.07968 0.6225 0.42616 0.0
H154 H 1.03588 0.57163 0.3351 0.0
H155 H 0.04032 0.56804 0.20744 0.0
H156 H 0.57918 0.05729 0.22027 0.0
H157 H 0.58157 0.05389 0.34688 0.0
H158 H 0.48969 1.01973 0.3646 0.0
H159 H 0.48694 1.02254 0.23866 0.0
H160 H 0.58503 0.09596 0.45728 0.0
H161 H 0.46999 0.93831 0.46493 0.0
H162 H 0.48936 0.95944 0.38427 0.0
H163 H 0.46293 0.96198 0.42256 0.0
C164 C 0.55937 0.04872 0.25119 0.0
C165 C 0.53286 0.04013 0.21963 0.0
C166 C 0.56077 0.04684 0.32344 0.0
C167 C 0.53555 1.03603 0.36512 0.0
C168 C 0.50904 1.02733 0.33341 0.0
H169 H 0.50309 1.01865 0.81386 0.0
H170 H 0.49989 1.02151 0.68718 0.0
C171 C 0.50763 1.02919 0.26142 0.0
C172 C 0.53757 1.03539 0.4422 0.0
H173 H 0.49488 0.97705 0.57496 0.0
C174 C 0.56543 0.0699 0.48296 0.0
C175 C 0.51186 1.00143 0.47577 0.0
C176 C 0.48199 0.96309 0.43464 0.0
C177 C 0.56805 0.07153 0.55639 0.0
C178 C 0.54235 0.03759 0.58992 0.0
C179 C 0.51445 1.0031 0.54923 0.0
C180 C 0.54463 0.03692 0.66683 0.0
C181 C 0.59803 0.10977 0.5976 0.0
C182 C 0.57066 0.04437 0.69724 0.0
C183 C 0.57247 0.04269 0.76914 0.0
C184 C 0.54819 1.03332 0.81219 0.0
C185 C 0.52216 1.02599 0.78193 0.0
C186 C 0.52029 1.02756 0.70967 0.0
H187 H 0.61043 0.13464 0.56716 0.0
H188 H 0.59062 0.11363 0.64765 0.0
H189 H 0.61673 0.11042 0.6104 0.0
H190 H 0.58935 0.05095 0.6651 0.0
H191 H 0.5928 0.04843 0.79091 0.0
H192 H 0.61064 0.58726 0.78027 0.0
H193 H 0.60206 0.5801 0.65272 0.0
H194 H 0.4951 0.49589 0.67045 0.0
H195 H 0.50366 0.50303 0.79883 0.0
H196 H 0.56486 0.51413 0.55645 0.0
H197 H 0.51644 0.57449 0.55047 0.0
H198 H 0.53767 0.58065 0.6279 0.0
H199 H 0.4946 0.53531 0.60411 0.0
C200 C 0.58524 0.56718 0.75716 0.0
C201 C 0.55782 0.5459 0.79989 0.0
C202 C 0.58038 0.56311 0.68406 0.0
C203 C 0.54799 0.53788 0.65168 0.0
C204 C 0.52042 0.51611 0.69412 0.0
H205 H 0.48714 0.45466 0.20755 0.0
H206 H 0.49611 0.46198 0.33514 0.0
C207 C 0.52529 0.52007 0.76753 0.0
C208 C 0.54342 0.53426 0.57358 0.0
H209 H 0.5164 0.54906 0.44147 0.0
C210 C 0.55421 0.52172 0.53139 0.0
C211 C 0.52998 0.54469 0.54059 0.0
C212 C 0.51923 0.55987 0.58287 0.0
C213 C 0.55148 0.51878 0.45754 0.0
C214 C 0.53742 0.52844 0.42457 0.0
C215 C 0.52706 0.54152 0.46665 0.0
C216 C 0.53269 0.52441 0.3465 0.0
C217 C 0.5641 0.50584 0.41523 0.0
C218 C 0.55011 0.55705 0.31 0.0
C219 C 0.54515 0.55295 0.23663 0.0
C220 C 0.52229 0.51604 0.19851 0.0
C221 C 0.50498 0.4835 0.23524 0.0
C222 C 0.51014 0.48764 0.30828 0.0
H223 H 0.58103 0.50808 0.44771 0.0
H224 H 0.54237 0.4751 0.39372 0.0
H225 H 0.5778 0.52339 0.37038 0.0
H226 H 0.56759 0.58572 0.33832 0.0
H227 H 0.55878 0.57856 0.20992 0.0
H228 H 0.2024 0.54616 0.95167 0.0
H229 H 0.24371 0.54585 0.95382 0.0
H230 H 0.16416 0.42152 0.90758 0.0
H231 H 0.12271 0.42148 0.90583 0.0
H232 H 0.24896 0.50774 0.03746 0.0
H233 H 0.22925 0.45744 0.75503 0.0
H234 H 0.21403 0.47559 0.79104 0.0
H235 H 0.19137 0.42675 0.80091 0.0
C236 C 0.19365 0.5187 0.94249 0.0
C237 C 0.15923 0.48385 0.92806 0.0
C238 C 0.21732 0.51861 0.94342 0.0
C239 C 0.20707 0.48375 0.92961 0.0
C240 C 0.17271 0.44886 0.91668 0.0
H241 H 0.30148 0.41215 0.91265 0.0
H242 H 0.26322 0.41695 0.91331 0.0
C243 C 0.14905 0.4489 0.91569 0.0
C244 C 0.23222 0.48371 0.92938 0.0
H245 H 0.26226 0.45805 0.82658 0.0
C246 C 0.25208 0.49715 0.99126 0.0
C247 C 0.23627 0.46996 0.86895 0.0
C248 C 0.21685 0.45695 0.79999 0.0
C249 C 0.2752 0.49613 0.99494 0.0
C250 C 0.27887 0.48183 0.93478 0.0
C251 C 0.2593 0.46885 0.87269 0.0
C252 C 0.30241 0.47938 0.93534 0.0
C253 C 0.2948 0.5093 0.06368 0.0
C254 C 0.33722 0.51295 0.94684 0.0
C255 C 0.35924 0.51035 0.94605 0.0
C256 C 0.34686 0.4741 0.93335 0.0
C257 C 0.31194 0.44057 0.92163 0.0
C258 C 0.29 0.44322 0.92238 0.0
H259 H 0.28355 0.51088 0.10849 0.0
H260 H 0.29611 0.48944 0.07414 0.0
H261 H 0.32087 0.53864 0.06098 0.0
H262 H 0.3474 0.54123 0.9555 0.0
H263 H 0.38599 0.5368 0.95415 0.0
H264 H 0.6429 0.1711 0.94986 0.0
H265 H 0.70297 0.23078 0.94565 0.0
H266 H 0.72575 0.18955 0.08466 0.0
H267 H 0.6655 0.12969 0.08966 0.0
H268 H 0.76329 0.26645 0.12225 0.0
H269 H 0.77099 0.24449 0.83852 0.0
H270 H 0.73955 0.24204 0.85678 0.0
H271 H 0.73522 0.20617 0.88592 0.0
C272 C 0.66059 0.17455 0.97956 0.0
C273 C 0.64912 0.14525 0.01993 0.0
C274 C 0.6951 0.20875 0.97667 0.0
C275 C 0.71919 0.21465 0.01383 0.0
C276 C 0.70782 0.18574 0.05508 0.0
H277 H 0.93568 0.39521 0.95155 0.0
H278 H 0.87599 0.33397 0.95592 0.0
C279 C 0.67326 0.15142 0.05784 0.0
C280 C 0.75607 0.2512 0.01063 0.0
H281 H 0.81882 0.3068 0.89727 0.0
C282 C 0.77541 0.27516 0.07303 0.0
C283 C 0.77226 0.26258 0.94667 0.0
C284 C 0.75357 0.23734 0.87821 0.0
C285 C 0.81002 0.3103 0.07307 0.0
C286 C 0.82594 0.32241 0.00876 0.0
C287 C 0.80677 0.29799 0.94656 0.0
C288 C 0.8624 0.36009 0.00504 0.0
C289 C 0.82932 0.33382 0.14239 0.0
C290 C 0.8749 0.3956 0.02981 0.0
C291 C 0.90911 0.43076 0.02744 0.0
C292 C 0.93187 0.43155 0.9997 0.0
C293 C 0.91913 0.39599 0.97343 0.0
C294 C 0.88487 0.3608 0.97589 0.0
H295 H 0.81632 0.31582 0.18699 0.0
H296 H 0.85504 0.34729 0.14309 0.0
H297 H 0.83155 0.35731 0.15079 0.0
H298 H 0.85814 0.39619 0.05094 0.0
H299 H 0.91769 0.45737 0.04776 0.0
H300 H 0.49021 0.80163 0.03268 0.0
H301 H 0.48963 0.75328 0.03158 0.0
H302 H 0.59768 0.84394 0.03079 0.0
H303 H 0.59855 0.8924 0.03293 0.0
H304 H 0.51686 0.73867 0.92931 0.0
H305 H 0.5773 0.78328 0.19701 0.0
H306 H 0.55855 0.79717 0.16879 0.0
H307 H 0.59917 0.82167 0.14138 0.0
C308 C 0.51387 0.81133 0.03277 0.0
C309 C 0.54442 0.851 0.03288 0.0
C310 C 0.51349 0.78362 0.03183 0.0
C311 C 0.54364 0.79498 0.03196 0.0
C312 C 0.57413 0.83448 0.03163 0.0
H313 H 0.59522 0.67321 0.03888 0.0
H314 H 0.59593 0.72165 0.04128 0.0
C315 C 0.57453 0.86214 0.03209 0.0
C316 C 0.54326 0.76556 0.03119 0.0
H317 H 0.56892 0.73642 0.12631 0.0
C318 C 0.52809 0.73803 0.97249 0.0
C319 C 0.55816 0.76493 0.0873 0.0
C320 C 0.57401 0.7931 0.15254 0.0
C321 C 0.52792 0.71035 0.96779 0.0
C322 C 0.54252 0.70939 0.02428 0.0
C323 C 0.55773 0.73702 0.08297 0.0
C324 C 0.54202 0.6798 0.02374 0.0
C325 C 0.51291 0.68314 0.90131 0.0
C326 C 0.5115 0.64002 0.01456 0.0
C327 C 0.51105 0.6123 0.01258 0.0
C328 C 0.54109 0.62355 0.02092 0.0
C329 C 0.5716 0.6634 0.03215 0.0
C330 C 0.57204 0.69118 0.03353 0.0
H331 H 0.51255 0.69518 0.85618 0.0
H332 H 0.5271 0.67703 0.88778 0.0
H333 H 0.48655 0.65533 0.90887 0.0
H334 H 0.48788 0.6303 0.00904 0.0
H335 H 0.487 0.58196 0.00459 0.0
H336 H 0.95507 0.65903 0.1377 0.0
H337 H 0.91388 0.65939 0.13394 0.0
H338 H 0.84147 0.54499 0.02191 0.0
H339 H 0.8821 0.54379 0.02749 0.0
H340 H 0.88058 0.65195 0.01809 0.0
H341 H 0.78978 0.53252 0.18583 0.0
H342 H 0.83219 0.55654 0.18015 0.0
H343 H 0.80052 0.5204 0.11149 0.0
C344 C 0.93027 0.63372 0.11295 0.0
C345 C 0.92187 0.60124 0.08339 0.0
C346 C 0.90682 0.63411 0.11041 0.0
C347 C 0.87443 0.60199 0.07862 0.0
C348 C 0.86612 0.56982 0.04788 0.0
H349 H 0.69737 0.54966 0.02679 0.0
H350 H 0.73833 0.54891 0.02252 0.0
C351 C 0.88954 0.56938 0.05039 0.0
C352 C 0.84952 0.60243 0.07717 0.0
H353 H 0.77277 0.55635 0.13211 0.0
C354 C 0.85704 0.63112 0.04315 0.0
C355 C 0.81877 0.57517 0.10977 0.0
C356 C 0.80985 0.5446 0.14944 0.0
C357 C 0.83447 0.63299 0.04002 0.0
C358 C 0.80382 0.60589 0.07304 0.0
C359 C 0.79624 0.57708 0.10676 0.0
C360 C 0.77936 0.60706 0.07384 0.0
C361 C 0.8434 0.6635 1.00014 0.0
C362 C 0.78869 0.63991 0.10457 0.0
C363 C 0.76541 0.6406 0.10647 0.0
C364 C 0.73215 0.6083 0.07822 0.0
C365 C 0.72286 0.57532 0.04793 0.0
C366 C 0.74619 0.57471 0.04592 0.0
H367 H 0.86253 0.6744 0.96189 0.0
H368 H 0.82084 0.65203 0.97146 0.0
H369 H 0.85405 0.68846 0.03774 0.0
H370 H 0.81393 0.66493 0.12779 0.0
H371 H 0.77357 0.66658 0.12975 0.0
H372 H 0.1622 0.62127 0.99906 0.0
H373 H 0.22236 0.68136 1.00014 0.0
H374 H 0.2034 0.74756 0.04338 0.0
H375 H 0.14319 0.68742 0.04486 0.0
H376 H 0.25773 0.73758 0.91966 0.0
H377 H 0.27772 0.80257 0.18843 0.0
H378 H 0.23906 0.75309 0.1581 0.0
H379 H 0.24641 0.79228 0.13646 0.0
C380 C 0.17075 0.64857 0.00951 0.0
C381 C 0.14757 0.64922 0.02239 0.0
C382 C 0.20535 0.6831 0.00997 0.0
C383 C 0.21795 0.71945 0.02303 0.0
C384 C 0.1948 0.72019 0.03526 0.0
H385 H 0.41697 0.95794 0.99851 0.0
H386 H 0.35669 0.89813 1.00159 0.0
C387 C 0.16016 0.6856 0.03565 0.0
C388 C 0.25502 0.75621 0.02127 0.0
H389 H 0.32285 0.84387 0.11375 0.0
C390 C 0.27188 0.76061 0.96249 0.0
C391 C 0.27396 0.78665 0.07695 0.0
C392 C 0.25845 0.78331 0.14382 0.0
C393 C 0.30657 0.79435 0.95744 0.0
C394 C 0.32526 0.82483 0.01257 0.0
C395 C 0.30855 0.82064 0.07126 0.0
C396 C 0.36217 0.86122 0.01022 0.0
C397 C 0.32297 0.7975 0.89251 0.0
C398 C 0.38561 0.86069 0.01445 0.0
C399 C 0.42026 0.895 0.01325 0.0
C400 C 0.43238 0.93075 0.00723 0.0
C401 C 0.40875 0.93108 1.00272 0.0
C402 C 0.37416 0.89684 0.00471 0.0
H403 H 0.30418 0.7748 0.84945 0.0
H404 H 0.33938 0.82644 0.87346 0.0
H405 H 0.33899 0.79422 0.9055 0.0
H406 H 0.3771 0.83371 0.01942 0.0
H407 H 0.43754 0.89346 0.01706 0.0
H408 H 0.57977 0.48058 0.02148 0.0
H409 H 0.57741 0.43089 0.01207 0.0
H410 H 0.47849 0.34903 0.90721 0.0
H411 H 0.48077 0.39883 0.91546 0.0
H412 H 0.53264 0.36134 0.06831 0.0
H413 H 0.52579 0.33615 0.77828 0.0
H414 H 0.53747 0.37759 0.82171 0.0
H415 H 0.49405 0.33096 0.81092 0.0
C416 C 0.55754 0.45212 0.99588 0.0
C417 C 0.53046 0.44385 0.96913 0.0
C418 C 0.55625 0.42367 0.9906 0.0
C419 C 0.52797 0.38625 0.95819 0.0
C420 C 0.50091 0.37786 0.93114 0.0
H421 H 0.47801 0.1764 0.9109 0.0
H422 H 0.47677 0.22304 0.90757 0.0
C423 C 0.50218 0.40638 0.93628 0.0
C424 C 0.52645 0.35583 0.95573 0.0
H425 H 0.51925 0.29404 0.84449 0.0
C426 C 0.52978 0.34671 0.0193 0.0
C427 C 0.52251 0.33649 0.89185 0.0
C428 C 0.52004 0.34594 0.82172 0.0
C429 C 0.52923 0.31889 0.02084 0.0
C430 C 0.5258 0.29997 0.95699 0.0
C431 C 0.52192 0.30856 0.8934 0.0
C432 C 0.52707 0.27196 0.95548 0.0
C433 C 0.5319 0.30963 0.09104 0.0
C434 C 0.55606 0.28408 0.98172 0.0
C435 C 0.55693 0.2576 0.98334 0.0
C436 C 0.52884 0.21825 0.95855 0.0
C437 C 0.50018 0.20644 0.93009 0.0
C438 C 0.49936 0.23304 0.92844 0.0
H439 H 0.52529 0.31851 0.13422 0.0
H440 H 0.51522 0.27815 0.0907 0.0
H441 H 0.55817 0.32558 0.10255 0.0
H442 H 0.57806 0.31412 1.00131 0.0
H443 H 0.57973 0.26805 0.00408 0.0
loop_
_geom_bond_atom_site_label_1
_geom_bond_atom_site_label_2
_geom_bond_distance
_geom_bond_site_symmetry_2
_ccdc_geom_bond_type
Nd0 C2 2.836 1_556 S
Nd0 O20 2.500 1_556 S
Nd0 O21 2.492 . S
Nd0 O22 2.487 . S
Nd0 O23 2.682 1_655 S
Nd0 O24 2.410 . S
Nd0 O29 2.414 1_556 S
Nd0 O31 2.424 1_656 S
Nd1 C11 2.836 1_554 S
Nd1 O23 2.414 1_554 S
Nd1 O25 2.424 1_454 S
Nd1 O26 2.500 1_554 S
Nd1 O27 2.492 . S
Nd1 O28 2.487 . S
Nd1 O29 2.682 1_455 S
Nd1 O30 2.410 . S
C2 Nd0 2.836 1_554 S
C2 C3 1.498 . S
C2 O20 1.258 . S
C2 O21 1.239 1_554 S
C3 C2 1.498 . S
C3 C4 1.366 . S
C3 C8 1.407 1_554 S
C4 C3 1.366 . S
C4 C5 1.392 . S
C4 H32 0.930 . S
C5 C4 1.392 . S
C5 C6 1.398 . S
C5 H33 0.929 . S
C6 C5 1.398 . S
C6 C7 1.352 1_554 S
C7 C6 1.352 1_556 S
C7 C8 1.384 . S
C7 H34 0.930 . S
C8 C3 1.407 1_556 S
C8 C7 1.384 . S
C8 H35 0.929 . S
C9 O22 1.234 1_455 S
C9 O23 1.276 . S
C10 O24 1.251 . S
C10 O25 1.269 . S
C11 Nd1 2.836 1_556 S
C11 C12 1.498 . S
C11 O26 1.258 . S
C11 O27 1.239 1_556 S
C12 C11 1.498 . S
C12 C13 1.366 . S
C12 C17 1.407 1_556 S
C13 C12 1.366 . S
C13 C14 1.392 . S
C13 H36 0.930 . S
C14 C13 1.392 . S
C14 C15 1.398 . S
C14 H37 0.929 . S
C15 C14 1.398 . S
C15 C16 1.352 1_556 S
C16 C15 1.352 1_554 S
C16 C17 1.384 . S
C16 H38 0.930 . S
C17 C12 1.407 1_554 S
C17 C16 1.384 . S
C17 H39 0.929 . S
C18 O28 1.241 . S
C18 O29 1.273 1_455 S
C19 O30 1.251 . S
C19 O31 1.269 . S
O20 Nd0 2.500 1_554 S
O20 C2 1.258 . S
O21 Nd0 2.492 . S
O21 C2 1.239 1_556 S
O22 Nd0 2.487 . S
O22 C9 1.234 1_655 S
O23 Nd0 2.682 1_455 S
O23 Nd1 2.414 1_556 S
O23 C9 1.276 . S
O24 Nd0 2.410 . S
O24 C10 1.251 . S
O25 Nd1 2.424 1_656 S
O25 C10 1.269 . S
O26 Nd1 2.500 1_556 S
O26 C11 1.258 . S
O27 Nd1 2.492 . S
O27 C11 1.239 1_554 S
O28 Nd1 2.487 . S
O28 C18 1.241 . S
O29 Nd0 2.414 1_554 S
O29 Nd1 2.682 1_655 S
O29 C18 1.273 1_655 S
O30 Nd1 2.410 . S
O30 C19 1.251 . S
O31 Nd0 2.424 1_454 S
O31 C19 1.269 . S
H32 C4 0.930 . S
H33 C5 0.929 . S
H34 C7 0.930 . S
H35 C8 0.929 . S
H36 C13 0.930 . S
H37 C14 0.929 . S
H38 C16 0.930 . S
H39 C17 0.929 . S
Nd40 C42 2.836 . S
Nd40 O60 2.500 1_554 S
Nd40 O61 2.492 . S
Nd40 O62 2.487 . S
Nd40 O63 2.682 1_545 S
Nd40 O64 2.410 . S
Nd40 O69 2.414 1_554 S
Nd40 O71 2.424 1_545 S
Nd41 C51 2.836 . S
Nd41 O63 2.414 1_556 S
Nd41 O65 2.424 1_565 S
Nd41 O66 2.500 1_556 S
Nd41 O67 2.492 . S
Nd41 O68 2.487 . S
Nd41 O69 2.682 1_565 S
Nd41 O70 2.410 . S
C42 Nd40 2.836 . S
C42 C43 1.498 . S
C42 O60 1.258 1_554 S
C42 O61 1.239 . S
C43 C42 1.498 . S
C43 C44 1.366 1_554 S
C43 C48 1.407 . S
C44 C43 1.366 1_556 S
C44 C45 1.392 . S
C44 H72 0.930 . S
C45 C44 1.392 . S
C45 C46 1.398 1_556 S
C45 H73 0.929 . S
C46 C45 1.398 1_554 S
C46 C47 1.352 . S
C47 C46 1.352 . S
C47 C48 1.384 . S
C47 H74 0.930 . S
C48 C43 1.407 . S
C48 C47 1.384 . S
C48 H75 0.929 . S
C49 O62 1.241 . S
C49 O63 1.273 1_545 S
C50 O64 1.251 . S
C50 O65 1.268 1_554 S
C51 Nd41 2.836 . S
C51 C52 1.498 . S
C51 O66 1.258 1_556 S
C51 O67 1.239 . S
C52 C51 1.498 . S
C52 C53 1.366 1_556 S
C52 C57 1.407 . S
C53 C52 1.366 1_554 S
C53 C54 1.392 . S
C53 H76 0.930 . S
C54 C53 1.392 . S
C54 C55 1.398 1_554 S
C54 H77 0.929 . S
C55 C54 1.398 1_556 S
C55 C56 1.352 . S
C56 C55 1.352 . S
C56 C57 1.384 . S
C56 H78 0.930 . S
C57 C52 1.407 . S
C57 C56 1.384 . S
C57 H79 0.929 . S
C58 O68 1.241 . S
C58 O69 1.273 1_565 S
C59 O70 1.251 . S
C59 O71 1.268 1_556 S
O60 Nd40 2.500 1_556 S
O60 C42 1.258 1_556 S
O61 Nd40 2.492 . S
O61 C42 1.239 . S
O62 Nd40 2.487 . S
O62 C49 1.241 . S
O63 Nd40 2.682 1_565 S
O63 Nd41 2.414 1_554 S
O63 C49 1.273 1_565 S
O64 Nd40 2.410 . S
O64 C50 1.251 . S
O65 Nd41 2.424 1_545 S
O65 C50 1.268 1_556 S
O66 Nd41 2.500 1_554 S
O66 C51 1.258 1_554 S
O67 Nd41 2.492 . S
O67 C51 1.239 . S
O68 Nd41 2.487 . S
O68 C58 1.241 . S
O69 Nd40 2.414 1_556 S
O69 Nd41 2.682 1_545 S
O69 C58 1.273 1_545 S
O70 Nd41 2.410 . S
O70 C59 1.251 . S
O71 Nd40 2.424 1_565 S
O71 C59 1.268 1_554 S
H72 C44 0.930 . S
H73 C45 0.929 . S
H74 C47 0.930 . S
H75 C48 0.929 . S
H76 C53 0.930 . S
H77 C54 0.929 . S
H78 C56 0.930 . S
H79 C57 0.929 . S
Nd80 C82 2.836 1_554 S
Nd80 O100 2.500 1_554 S
Nd80 O101 2.492 . S
Nd80 O102 2.487 . S
Nd80 O103 2.682 . S
Nd80 O104 2.410 . S
Nd80 O109 2.414 1_554 S
Nd80 O111 2.425 1_554 S
Nd81 C91 2.836 1_556 S
Nd81 O103 2.414 1_556 S
Nd81 O105 2.424 1_556 S
Nd81 O106 2.500 1_556 S
Nd81 O107 2.492 . S
Nd81 O108 2.487 . S
Nd81 O109 2.682 . S
Nd81 O110 2.410 . S
C82 Nd80 2.836 1_556 S
C82 C83 1.498 . S
C82 O100 1.258 . S
C82 O101 1.239 1_556 S
C83 C82 1.498 . S
C83 C84 1.366 . S
C83 C88 1.407 1_556 S
C84 C83 1.366 . S
C84 C85 1.392 . S
C84 H112 0.930 . S
C85 C84 1.392 . S
C85 C86 1.398 . S
C85 H113 0.929 . S
C86 C85 1.398 . S
C86 C87 1.352 1_556 S
C87 C86 1.352 1_554 S
C87 C88 1.384 . S
C87 H114 0.930 . S
C88 C83 1.407 1_554 S
C88 C87 1.384 . S
C88 H115 0.929 . S
C89 O102 1.241 . S
C89 O103 1.273 . S
C90 O104 1.251 . S
C90 O105 1.268 . S
C91 Nd81 2.836 1_554 S
C91 C92 1.498 . S
C91 O106 1.258 . S
C91 O107 1.239 1_554 S
C92 C91 1.498 . S
C92 C93 1.366 . S
C92 C97 1.407 1_554 S
C93 C92 1.366 . S
C93 C94 1.392 . S
C93 H116 0.930 . S
C94 C93 1.392 . S
C94 C95 1.398 . S
C94 H117 0.929 . S
C95 C94 1.398 . S
C95 C96 1.352 1_554 S
C96 C95 1.352 1_556 S
C96 C97 1.384 . S
C96 H118 0.930 . S
C97 C92 1.407 1_556 S
C97 C96 1.384 . S
C97 H119 0.929 . S
C98 O108 1.241 . S
C98 O109 1.273 . S
C99 O110 1.251 . S
C99 O111 1.271 . S
O100 Nd80 2.500 1_556 S
O100 C82 1.258 . S
O101 Nd80 2.492 . S
O101 C82 1.239 1_554 S
O102 Nd80 2.487 . S
O102 C89 1.241 . S
O103 Nd80 2.682 . S
O103 Nd81 2.414 1_554 S
O103 C89 1.273 . S
O104 Nd80 2.410 . S
O104 C90 1.251 . S
O105 Nd81 2.424 1_554 S
O105 C90 1.268 . S
O106 Nd81 2.500 1_554 S
O106 C91 1.258 . S
O107 Nd81 2.492 . S
O107 C91 1.239 1_556 S
O108 Nd81 2.487 . S
O108 C98 1.241 . S
O109 Nd80 2.414 1_556 S
O109 Nd81 2.682 . S
O109 C98 1.273 . S
O110 Nd81 2.410 . S
O110 C99 1.251 . S
O111 Nd80 2.425 1_556 S
O111 C99 1.271 . S
H112 C84 0.930 . S
H113 C85 0.929 . S
H114 C87 0.930 . S
H115 C88 0.929 . S
H116 C93 0.930 . S
H117 C94 0.929 . S
H118 C96 0.930 . S
H119 C97 0.929 . S
H120 C128 0.929 . S
H121 C130 0.930 . S
H122 C132 0.930 . S
H123 C135 0.929 . S
H124 C138 0.930 . S
H125 C140 0.960 . S
H126 C140 0.960 1_655 S
H127 C140 0.960 . S
C128 H120 0.929 . S
C128 C129 1.377 1_655 S
C128 C130 1.384 . S
C129 C128 1.377 1_455 S
C129 C135 1.390 . S
C130 H121 0.930 . S
C130 C128 1.384 . S
C130 C131 1.362 1_655 S
C131 C130 1.362 1_455 S
C131 C132 1.410 . S
C131 C136 1.489 1_455 S
C132 H122 0.930 . S
C132 C131 1.410 . S
C132 C135 1.386 . S
H133 C149 0.930 . S
H134 C150 0.931 . S
C135 H123 0.929 . S
C135 C129 1.390 . S
C135 C132 1.386 . S
C136 C131 1.489 1_655 S
C136 C138 1.405 . S
C136 C139 1.393 1_655 S
H137 C143 0.930 . S
C138 H124 0.930 . S
C138 C136 1.405 . S
C138 C141 1.403 . S
C139 C136 1.393 1_455 S
C139 C140 1.524 . S
C139 C143 1.400 . S
C140 H125 0.960 . S
C140 H126 0.960 1_455 S
C140 H127 0.960 . S
C140 C139 1.524 . S
C141 C138 1.403 . S
C141 C142 1.392 . S
C141 C145 1.495 . S
C142 C141 1.392 . S
C142 C143 1.385 1_655 S
C142 C144 1.477 . S
C143 H137 0.930 . S
C143 C139 1.400 . S
C143 C142 1.385 1_455 S
C144 C142 1.477 . S
C144 C146 1.415 . S
C144 C150 1.349 1_655 S
C145 C141 1.495 . S
C145 H151 0.959 . S
C145 H152 0.961 1_655 S
C145 H153 0.960 . S
C146 C144 1.415 . S
C146 C147 1.394 . S
C146 H154 0.930 . S
C147 C146 1.394 . S
C147 C148 1.416 . S
C147 H155 0.929 . S
C148 C147 1.416 . S
C148 C149 1.346 1_655 S
C149 H133 0.930 . S
C149 C148 1.346 1_455 S
C149 C150 1.379 . S
C150 H134 0.931 . S
C150 C144 1.349 1_455 S
C150 C149 1.379 . S
H151 C145 0.959 . S
H152 C145 0.961 1_455 S
H153 C145 0.960 . S
H154 C146 0.930 . S
H155 C147 0.929 . S
H156 C164 0.911 1_565 S
H157 C166 0.918 . S
H158 C168 0.930 . S
H159 C171 0.929 . S
H160 C174 0.930 . S
H161 C176 0.960 . S
H162 C176 0.960 . S
H163 C176 0.960 . S
C164 H156 0.911 1_545 S
C164 C165 1.384 . S
C164 C166 1.385 . S
C165 C164 1.384 . S
C165 C171 1.390 . S
C166 H157 0.918 . S
C166 C164 1.385 . S
C166 C167 1.381 . S
C167 C166 1.381 . S
C167 C168 1.400 . S
C167 C172 1.490 . S
C168 H158 0.930 . S
C168 C167 1.400 . S
C168 C171 1.386 . S
H169 C185 0.930 . S
H170 C186 0.931 . S
C171 H159 0.929 . S
C171 C165 1.390 . S
C171 C168 1.386 . S
C172 C167 1.490 . S
C172 C174 1.395 . S
C172 C175 1.403 1_545 S
H173 C179 0.930 . S
C174 H160 0.930 . S
C174 C172 1.395 . S
C174 C177 1.403 . S
C175 C172 1.403 1_565 S
C175 C176 1.524 . S
C175 C179 1.400 . S
C176 H161 0.960 . S
C176 H162 0.960 . S
C176 H163 0.960 . S
C176 C175 1.524 . S
C177 C174 1.403 . S
C177 C178 1.392 . S
C177 C181 1.495 . S
C178 C177 1.392 . S
C178 C179 1.385 1_545 S
C178 C180 1.478 . S
C179 H173 0.930 . S
C179 C175 1.400 . S
C179 C178 1.385 1_565 S
C180 C178 1.478 . S
C180 C182 1.381 . S
C180 C186 1.383 . S
C181 C177 1.495 . S
C181 H187 0.959 . S
C181 H188 0.961 . S
C181 H189 0.960 . S
C182 C180 1.381 . S
C182 C183 1.392 1_545 S
C182 H190 0.927 . S
C183 C182 1.392 1_565 S
C183 C184 1.370 1_565 S
C183 H191 0.945 . S
C184 C183 1.370 1_545 S
C184 C185 1.377 . S
C185 H169 0.930 . S
C185 C184 1.377 . S
C185 C186 1.379 . S
C186 H170 0.931 . S
C186 C180 1.383 . S
C186 C185 1.379 . S
H187 C181 0.959 . S
H188 C181 0.961 . S
H189 C181 0.960 . S
H190 C182 0.927 . S
H191 C183 0.945 . S
H192 C200 0.929 . S
H193 C202 0.930 . S
H194 C204 0.930 . S
H195 C207 0.929 . S
H196 C210 0.930 . S
H197 C212 0.960 . S
H198 C212 0.960 . S
H199 C212 0.960 . S
C200 H192 0.929 . S
C200 C201 1.377 . S
C200 C202 1.384 . S
C201 C200 1.377 . S
C201 C207 1.390 . S
C202 H193 0.930 . S
C202 C200 1.384 . S
C202 C203 1.372 . S
C203 C202 1.372 . S
C203 C204 1.400 . S
C203 C208 1.490 . S
C204 H194 0.930 . S
C204 C203 1.400 . S
C204 C207 1.386 . S
H205 C221 0.930 . S
H206 C222 0.931 . S
C207 H195 0.929 . S
C207 C201 1.390 . S
C207 C204 1.386 . S
C208 C203 1.490 . S
C208 C210 1.395 . S
C208 C211 1.403 . S
H209 C215 0.930 . S
C210 H196 0.930 . S
C210 C208 1.395 . S
C210 C213 1.403 . S
C211 C208 1.403 . S
C211 C212 1.524 . S
C211 C215 1.400 . S
C212 H197 0.960 . S
C212 H198 0.960 . S
C212 H199 0.960 . S
C212 C211 1.524 . S
C213 C210 1.403 . S
C213 C214 1.392 . S
C213 C217 1.495 . S
C214 C213 1.392 . S
C214 C215 1.385 . S
C214 C216 1.478 . S
C215 H209 0.930 . S
C215 C211 1.400 . S
C215 C214 1.385 . S
C216 C214 1.478 . S
C216 C218 1.381 . S
C216 C222 1.383 . S
C217 C213 1.495 . S
C217 H223 0.959 . S
C217 H224 0.961 . S
C217 H225 0.960 . S
C218 C216 1.381 . S
C218 C219 1.394 . S
C218 H226 0.930 . S
C219 C218 1.394 . S
C219 C220 1.383 . S
C219 H227 0.929 . S
C220 C219 1.383 . S
C220 C221 1.377 . S
C221 H205 0.930 . S
C221 C220 1.377 . S
C221 C222 1.379 . S
C222 H206 0.931 . S
C222 C216 1.383 . S
C222 C221 1.379 . S
H223 C217 0.959 . S
H224 C217 0.961 . S
H225 C217 0.960 . S
H226 C218 0.930 . S
H227 C219 0.929 . S
H228 C236 0.929 . S
H229 C238 0.930 . S
H230 C240 0.930 . S
H231 C243 0.929 . S
H232 C246 0.930 . S
H233 C248 0.960 . S
H234 C248 0.960 . S
H235 C248 0.960 . S
C236 H228 0.929 . S
C236 C237 1.377 1_554 S
C236 C238 1.384 . S
C237 C236 1.377 1_556 S
C237 C243 1.390 . S
C238 H229 0.930 . S
C238 C236 1.384 . S
C238 C239 1.372 1_554 S
C239 C238 1.372 1_556 S
C239 C240 1.400 . S
C239 C244 1.490 . S
C240 H230 0.930 . S
C240 C239 1.400 . S
C240 C243 1.386 . S
H241 C257 0.930 . S
H242 C258 0.931 . S
C243 H231 0.929 . S
C243 C237 1.390 . S
C243 C240 1.386 . S
C244 C239 1.490 . S
C244 C246 1.395 1_556 S
C244 C247 1.403 . S
H245 C251 0.930 . S
C246 H232 0.930 . S
C246 C244 1.395 1_554 S
C246 C249 1.403 . S
C247 C244 1.403 . S
C247 C248 1.524 . S
C247 C251 1.400 . S
C248 H233 0.960 . S
C248 H234 0.960 . S
C248 H235 0.960 . S
C248 C247 1.524 . S
C249 C246 1.403 . S
C249 C250 1.392 1_554 S
C249 C253 1.495 . S
C250 C249 1.392 1_556 S
C250 C251 1.385 . S
C250 C252 1.478 . S
C251 H245 0.930 . S
C251 C247 1.400 . S
C251 C250 1.385 . S
C252 C250 1.478 . S
C252 C254 1.381 1_556 S
C252 C258 1.383 . S
C253 C249 1.495 . S
C253 H259 0.959 . S
C253 H260 0.961 . S
C253 H261 0.960 . S
C254 C252 1.381 1_554 S
C254 C255 1.394 . S
C254 H262 0.930 . S
C255 C254 1.394 . S
C255 C256 1.383 1_554 S
C255 H263 0.929 . S
C256 C255 1.383 1_556 S
C256 C257 1.377 . S
C257 H241 0.930 . S
C257 C256 1.377 . S
C257 C258 1.379 . S
C258 H242 0.931 . S
C258 C252 1.383 . S
C258 C257 1.379 . S
H259 C253 0.959 . S
H260 C253 0.961 . S
H261 C253 0.960 . S
H262 C254 0.930 . S
H263 C255 0.929 . S
H264 C272 0.929 . S
H265 C274 0.930 . S
H266 C276 0.930 . S
H267 C279 0.929 . S
H268 C282 0.930 . S
H269 C284 0.960 . S
H270 C284 0.960 . S
H271 C284 0.960 . S
C272 H264 0.929 . S
C272 C273 1.383 . S
C272 C274 1.384 . S
C273 C272 1.383 . S
C273 C279 1.386 1_556 S
C274 H265 0.930 . S
C274 C272 1.384 . S
C274 C275 1.372 . S
C275 C274 1.372 . S
C275 C276 1.400 1_556 S
C275 C280 1.489 . S
C276 H266 0.930 . S
C276 C275 1.400 1_554 S
C276 C279 1.386 . S
H277 C293 0.930 . S
H278 C294 0.931 . S
C279 H267 0.929 . S
C279 C273 1.386 1_554 S
C279 C276 1.386 . S
C280 C275 1.489 . S
C280 C282 1.390 1_556 S
C280 C283 1.408 . S
H281 C287 0.930 . S
C282 H268 0.930 . S
C282 C280 1.390 1_554 S
C282 C285 1.403 . S
C283 C280 1.408 . S
C283 C284 1.524 . S
C283 C287 1.400 . S
C284 H269 0.960 . S
C284 H270 0.960 . S
C284 H271 0.960 . S
C284 C283 1.524 . S
C285 C282 1.403 . S
C285 C286 1.392 . S
C285 C289 1.495 . S
C286 C285 1.392 . S
C286 C287 1.385 1_554 S
C286 C288 1.478 . S
C287 H281 0.930 . S
C287 C283 1.400 . S
C287 C286 1.385 1_556 S
C288 C286 1.478 . S
C288 C290 1.381 1_554 S
C288 C294 1.383 . S
C289 C285 1.495 . S
C289 H295 0.959 . S
C289 H296 0.961 . S
C289 H297 0.960 . S
C290 C288 1.381 1_556 S
C290 C291 1.394 . S
C290 H298 0.930 . S
C291 C290 1.394 . S
C291 C292 1.383 1_556 S
C291 H299 0.929 . S
C292 C291 1.383 1_554 S
C292 C293 1.377 . S
C293 H277 0.930 . S
C293 C292 1.377 . S
C293 C294 1.379 . S
C294 H278 0.931 . S
C294 C288 1.383 . S
C294 C293 1.379 . S
H295 C289 0.959 . S
H296 C289 0.961 . S
H297 C289 0.960 . S
H298 C290 0.930 . S
H299 C291 0.929 . S
H300 C308 0.929 . S
H301 C310 0.930 . S
H302 C312 0.930 . S
H303 C315 0.929 . S
H304 C318 0.930 . S
H305 C320 0.960 . S
H306 C320 0.960 . S
H307 C320 0.972 . S
C308 H300 0.929 . S
C308 C309 1.377 1_554 S
C308 C310 1.384 . S
C309 C308 1.377 1_556 S
C309 C315 1.390 . S
C310 H301 0.930 . S
C310 C308 1.384 . S
C310 C311 1.376 . S
C311 C310 1.376 . S
C311 C312 1.395 1_554 S
C311 C316 1.490 . S
C312 H302 0.930 . S
C312 C311 1.395 1_556 S
C312 C315 1.386 . S
H313 C329 0.930 . S
H314 C330 0.931 . S
C315 H303 0.929 . S
C315 C309 1.390 . S
C315 C312 1.386 . S
C316 C311 1.490 . S
C316 C318 1.394 1_554 S
C316 C319 1.404 . S
H317 C323 0.930 . S
C318 H304 0.930 . S
C318 C316 1.394 1_556 S
C318 C321 1.403 . S
C319 C316 1.404 . S
C319 C320 1.524 . S
C319 C323 1.400 . S
C320 H305 0.960 . S
C320 H306 0.960 . S
C320 H307 0.972 . S
C320 C319 1.524 . S
C321 C318 1.403 . S
C321 C322 1.392 . S
C321 C325 1.495 . S
C322 C321 1.392 . S
C322 C323 1.385 1_556 S
C322 C324 1.478 . S
C323 H317 0.930 . S
C323 C319 1.400 . S
C323 C322 1.385 1_554 S
C324 C322 1.478 . S
C324 C326 1.381 1_556 S
C324 C330 1.383 . S
C325 C321 1.495 . S
C325 H331 0.959 . S
C325 H332 0.961 . S
C325 H333 0.960 1_556 S
C326 C324 1.381 1_554 S
C326 C327 1.394 . S
C326 H334 0.930 . S
C327 C326 1.394 . S
C327 C328 1.384 1_554 S
C327 H335 0.929 . S
C328 C327 1.384 1_556 S
C328 C329 1.376 . S
C329 H313 0.930 . S
C329 C328 1.376 . S
C329 C330 1.379 . S
C330 H314 0.931 . S
C330 C324 1.383 . S
C330 C329 1.379 . S
H331 C325 0.959 . S
H332 C325 0.961 . S
H333 C325 0.960 1_554 S
H334 C326 0.930 . S
H335 C327 0.929 . S
H336 C344 0.929 . S
H337 C346 0.930 . S
H338 C348 0.930 . S
H339 C351 0.929 . S
H340 C354 0.930 . S
H341 C356 0.960 1_556 S
H342 C356 0.960 . S
H343 C356 0.960 1_556 S
C344 H336 0.929 . S
C344 C345 1.377 . S
C344 C346 1.384 . S
C345 C344 1.377 . S
C345 C351 1.390 1_554 S
C346 H337 0.930 . S
C346 C344 1.384 . S
C346 C347 1.372 . S
C347 C346 1.372 . S
C347 C348 1.400 1_554 S
C347 C352 1.490 . S
C348 H338 0.930 . S
C348 C347 1.400 1_556 S
C348 C351 1.386 . S
H349 C365 0.930 . S
H350 C366 0.931 . S
C351 H339 0.929 . S
C351 C345 1.390 1_556 S
C351 C348 1.386 . S
C352 C347 1.490 . S
C352 C354 1.395 . S
C352 C355 1.403 . S
H353 C359 0.930 . S
C354 H340 0.930 . S
C354 C352 1.395 . S
C354 C357 1.403 . S
C355 C352 1.403 . S
C355 C356 1.524 . S
C355 C359 1.400 . S
C356 H341 0.960 1_554 S
C356 H342 0.960 . S
C356 H343 0.960 1_554 S
C356 C355 1.524 . S
C357 C354 1.403 . S
C357 C358 1.392 . S
C357 C361 1.495 . S
C358 C357 1.392 . S
C358 C359 1.385 . S
C358 C360 1.478 . S
C359 H353 0.930 . S
C359 C355 1.400 . S
C359 C358 1.385 . S
C360 C358 1.478 . S
C360 C362 1.381 . S
C360 C366 1.383 1_554 S
C361 C357 1.495 . S
C361 H367 0.959 . S
C361 H368 0.961 . S
C361 H369 0.960 . S
C362 C360 1.381 . S
C362 C363 1.394 . S
C362 H370 0.930 . S
C363 C362 1.394 . S
C363 C364 1.383 . S
C363 H371 0.929 . S
C364 C363 1.383 . S
C364 C365 1.377 1_554 S
C365 H349 0.930 . S
C365 C364 1.377 1_556 S
C365 C366 1.379 . S
C366 H350 0.931 . S
C366 C360 1.383 1_556 S
C366 C365 1.379 . S
H367 C361 0.959 . S
H368 C361 0.961 . S
H369 C361 0.960 . S
H370 C362 0.930 . S
H371 C363 0.929 . S
H372 C380 0.929 . S
H373 C382 0.930 . S
H374 C384 0.930 . S
H375 C387 0.929 . S
H376 C390 0.930 . S
H377 C392 0.960 . S
H378 C392 0.960 . S
H379 C392 0.960 1_556 S
C380 H372 0.929 . S
C380 C381 1.377 . S
C380 C382 1.384 . S
C381 C380 1.377 . S
C381 C387 1.390 1_554 S
C382 H373 0.930 . S
C382 C380 1.384 . S
C382 C383 1.372 . S
C383 C382 1.372 . S
C383 C384 1.400 1_554 S
C383 C388 1.490 . S
C384 H374 0.930 . S
C384 C383 1.400 1_556 S
C384 C387 1.386 . S
H385 C401 0.930 . S
H386 C402 0.931 . S
C387 H375 0.929 . S
C387 C381 1.390 1_556 S
C387 C384 1.386 . S
C388 C383 1.490 . S
C388 C390 1.395 1_554 S
C388 C391 1.403 . S
H389 C395 0.930 . S
C390 H376 0.930 . S
C390 C388 1.395 1_556 S
C390 C393 1.403 . S
C391 C388 1.403 . S
C391 C392 1.524 . S
C391 C395 1.400 . S
C392 H377 0.960 . S
C392 H378 0.960 . S
C392 H379 0.960 1_554 S
C392 C391 1.524 . S
C393 C390 1.403 . S
C393 C394 1.393 1_556 S
C393 C397 1.495 . S
C394 C393 1.393 1_554 S
C394 C395 1.387 . S
C394 C396 1.475 1_554 S
C395 H389 0.930 . S
C395 C391 1.400 . S
C395 C394 1.387 . S
C396 C394 1.475 1_556 S
C396 C398 1.381 1_556 S
C396 C402 1.383 . S
C397 C393 1.495 . S
C397 H403 0.959 . S
C397 H404 0.961 . S
C397 H405 0.960 1_556 S
C398 C396 1.381 1_554 S
C398 C399 1.394 . S
C398 H406 0.930 . S
C399 C398 1.394 . S
C399 C400 1.383 1_554 S
C399 H407 0.929 . S
C400 C399 1.383 1_556 S
C400 C401 1.377 . S
C401 H385 0.930 . S
C401 C400 1.377 . S
C401 C402 1.379 . S
C402 H386 0.931 . S
C402 C396 1.383 . S
C402 C401 1.379 . S
H403 C397 0.959 . S
H404 C397 0.961 . S
H405 C397 0.960 1_554 S
H406 C398 0.930 . S
H407 C399 0.929 . S
H408 C416 0.929 . S
H409 C418 0.930 . S
H410 C420 0.930 . S
H411 C423 0.929 . S
H412 C426 0.930 . S
H413 C428 0.960 . S
H414 C428 0.960 . S
H415 C428 0.960 . S
C416 H408 0.929 . S
C416 C417 1.377 1_554 S
C416 C418 1.384 . S
C417 C416 1.377 1_556 S
C417 C423 1.390 . S
C418 H409 0.930 . S
C418 C416 1.384 . S
C418 C419 1.372 . S
C419 C418 1.372 . S
C419 C420 1.400 1_554 S
C419 C424 1.490 . S
C420 H410 0.930 . S
C420 C419 1.400 1_556 S
C420 C423 1.386 . S
H421 C437 0.930 . S
H422 C438 0.931 . S
C423 H411 0.929 . S
C423 C417 1.390 . S
C423 C420 1.386 . S
C424 C419 1.490 . S
C424 C426 1.395 . S
C424 C427 1.403 1_554 S
H425 C431 0.930 . S
C426 H412 0.930 . S
C426 C424 1.395 . S
C426 C429 1.403 . S
C427 C424 1.403 1_556 S
C427 C428 1.524 . S
C427 C431 1.400 . S
C428 H413 0.960 . S
C428 H414 0.960 . S
C428 H415 0.960 . S
C428 C427 1.524 . S
C429 C426 1.403 . S
C429 C430 1.392 . S
C429 C433 1.495 . S
C430 C429 1.392 . S
C430 C431 1.385 1_554 S
C430 C432 1.478 . S
C431 H425 0.930 . S
C431 C427 1.400 . S
C431 C430 1.385 1_556 S
C432 C430 1.478 . S
C432 C434 1.381 . S
C432 C438 1.383 1_554 S
C433 C429 1.495 . S
C433 H439 0.959 . S
C433 H440 0.961 . S
C433 H441 0.960 . S
C434 C432 1.381 . S
C434 C435 1.394 . S
C434 H442 0.930 . S
C435 C434 1.394 . S
C435 C436 1.383 . S
C435 H443 0.929 . S
C436 C435 1.383 . S
C436 C437 1.377 1_554 S
C437 H421 0.930 . S
C437 C436 1.377 1_556 S
C437 C438 1.379 . S
C438 H422 0.931 . S
C438 C432 1.383 1_556 S
C438 C437 1.379 . S
H439 C433 0.959 . S
H440 C433 0.961 . S
H441 C433 0.960 . S
H442 C434 0.930 . S
H443 C435 0.929 . S
C129 C9 1.447 . S
C148 C18 1.457 1_655 S
C165 C49 1.460 . S
C184 C58 1.453 1_545 S
C201 C98 1.444 . S
C220 C89 1.466 . S
C237 C15 0.910 . S
C256 C86 0.903 . S
C273 C50 2.588 1_556 S
C292 C10 2.621 1_554 S
C309 C55 1.915 . S
C328 C90 1.947 1_556 S
C345 C6 0.910 . S
C364 C95 0.914 . S
C381 C19 2.619 . S
C400 C59 2.593 . S
C417 C99 1.953 . S
C436 C46 1.905 . S
