# Generated by pormake.
# Topology oof, (8)-cn, num edge types: 1
# Building blocks:
#     Node 0, Type 0, BuildingBlock: AJUNOK_clean_sbu_0, # of connection points: 8
#     Node 1, Type 0, BuildingBlock: AJUNOK_clean_sbu_0, # of connection points: 8
#     Node 2, Type 0, BuildingBlock: AJUNOK_clean_sbu_0, # of connection points: 8
#     Node 3, Type 0, BuildingBlock: AJUNOK_clean_sbu_0, # of connection points: 8
#     Edge 4, Type (0, 0), BuildingBlock: AJUNOK_clean_linker_0, # of connection points: 2
#     Edge 5, Type (0, 0), BuildingBlock: AJUNOK_clean_linker_0, # of connection points: 2
#     Edge 6, Type (0, 0), BuildingBlock: AJUNOK_clean_linker_0, # of connection points: 2
#     Edge 7, Type (0, 0), BuildingBlock: AJUNOK_clean_linker_0, # of connection points: 2
#     Edge 8, Type (0, 0), BuildingBlock: AJUNOK_clean_linker_0, # of connection points: 2
#     Edge 9, Type (0, 0), BuildingBlock: AJUNOK_clean_linker_0, # of connection points: 2
#     Edge 10, Type (0, 0), BuildingBlock: AJUNOK_clean_linker_0, # of connection points: 2
#     Edge 11, Type (0, 0), BuildingBlock: AJUNOK_clean_linker_0, # of connection points: 2
#     Edge 12, Type (0, 0), BuildingBlock: AJUNOK_clean_linker_0, # of connection points: 2
#     Edge 13, Type (0, 0), BuildingBlock: AJUNOK_clean_linker_0, # of connection points: 2
#     Edge 14, Type (0, 0), BuildingBlock: AJUNOK_clean_linker_0, # of connection points: 2
#     Edge 15, Type (0, 0), BuildingBlock: AJUNOK_clean_linker_0, # of connection points: 2
#     Edge 16, Type (0, 0), BuildingBlock: AJUNOK_clean_linker_0, # of connection points: 2
#     Edge 17, Type (0, 0), BuildingBlock: AJUNOK_clean_linker_0, # of connection points: 2
#     Edge 18, Type (0, 0), BuildingBlock: AJUNOK_clean_linker_0, # of connection points: 2
#     Edge 19, Type (0, 0), BuildingBlock: AJUNOK_clean_linker_0, # of connection points: 2
# Relax obj value: 0.055
# Max RMSD: 0.149
# Mean RMSD: 0.148
data_MOF--net-oof--node1-AJUNOK_clean_sbu_0--edge1-AJUNOK_clean_linker_0
_symmetry_space_group_name_H-M    P1
_symmetry_Int_Tables_number       1
_symmetry_cell_setting            triclinic
loop_
_symmetry_equiv_pos_as_xyz
'x, y, z'
_cell_length_a     10.129129
_cell_length_b     52.343278
_cell_length_c     17.100232
_cell_angle_alpha  103.05273
_cell_angle_beta   91.56648
_cell_angle_gamma 82.111746
loop_
_atom_site_label
_atom_site_type_symbol
_atom_site_fract_x
_atom_site_fract_y
_atom_site_fract_z
_atom_type_partial_charge
Cd0 Cd 0.91617 0.10437 0.22996 0.0
Cd1 Cd 0.93778 0.18591 0.39372 0.0
C2 C 0.01977 0.13281 0.10217 0.0
N3 N 0.90281 0.13116 0.13668 0.0
C4 C 0.77939 0.151 0.03937 0.0
C5 C 0.8985 0.15172 0.00011 0.0
C6 C 0.01996 0.14309 0.03359 0.0
C7 C 0.7838 0.14052 0.10791 0.0
H8 H 0.11284 0.12467 0.12508 0.0
H9 H 0.6921 0.13857 0.13539 0.0
C10 C 0.69017 0.15765 0.35667 0.0
C11 C 0.88985 0.19992 0.58463 0.0
C12 C 0.88235 0.19676 0.66318 0.0
C13 C 0.90432 0.17128 0.67825 0.0
C14 C 0.93095 0.14942 0.61323 0.0
C15 C 0.93882 0.15351 0.53546 0.0
N16 N 0.91956 0.1785 0.52286 0.0
H17 H 0.87201 0.21956 0.57321 0.0
H18 H 0.96124 0.13681 0.48523 0.0
C19 C 0.75972 0.20577 0.24856 0.0
N20 N 0.88435 0.19694 0.27092 0.0
C21 C 0.97955 0.20714 0.15731 0.0
C22 C 0.85315 0.21775 0.135 0.0
C23 C 0.7416 0.21621 0.17994 0.0
C24 C -0.00715 0.19678 0.22574 0.0
H25 H 0.67525 0.20559 0.2853 0.0
H26 H 0.09075 0.1894 0.24451 0.0
C27 C 0.16261 0.127 0.3095 0.0
C28 C 0.91038 0.059 0.10953 0.0
N29 N 0.90913 0.07954 0.32592 0.0
C30 C 0.00853 0.0588 0.31509 0.0
C31 C 0.01418 0.04013 0.36183 0.0
C32 C 0.91655 0.04276 0.42059 0.0
C33 C 0.81562 0.06463 0.43171 0.0
C34 C 0.81345 0.08293 0.38299 0.0
C35 C 0.0942 0.22654 0.43808 0.0
O36 O 0.7911 0.14357 0.31901 0.0
O37 O 0.70547 0.1803 0.39896 0.0
O38 O 0.05834 0.14327 0.33088 0.0
O39 O 0.14773 0.10524 0.26271 0.0
O40 O 0.01352 0.07048 0.12532 0.0
O41 O 0.80292 0.06999 0.14745 0.0
O42 O 0.14096 0.20344 0.40095 0.0
O43 O 0.97046 0.23126 0.45466 0.0
H44 H 0.08234 0.05647 0.26863 0.0
H45 H 0.73426 0.09939 0.38945 0.0
H46 H 0.68373 0.15752 0.01546 0.0
H47 H 0.11391 0.14277 0.00442 0.0
H48 H 0.85892 0.21403 0.71164 0.0
H49 H 0.94799 0.12945 0.6227 0.0
H50 H 0.06773 0.20733 0.12318 0.0
H51 H 0.64235 0.22403 0.16418 0.0
H52 H 0.09401 0.02368 0.35186 0.0
H53 H 0.73762 0.06713 0.47593 0.0
Cd54 Cd 0.00463 0.81797 0.64004 0.0
Cd55 Cd 0.01736 0.90374 0.8084 0.0
C56 C 0.17001 0.82684 0.48767 0.0
N57 N 0.047 0.83131 0.52223 0.0
C58 C 0.95065 0.84744 0.41057 0.0
C59 C 0.07592 0.84255 0.37268 0.0
C60 C 0.18692 0.8325 0.41279 0.0
C61 C 0.93842 0.84161 0.48558 0.0
H62 H 0.25499 0.81843 0.51708 0.0
H63 H 0.84152 0.84461 0.51385 0.0
C64 C 0.77847 0.87346 0.74981 0.0
C65 C 0.94707 0.87982 0.952 0.0
C66 C 0.95725 0.871 0.02304 0.0
C67 C 0.08331 0.86374 0.05333 0.0
C68 C 0.19711 0.86414 0.00861 0.0
C69 C 0.18226 0.87326 0.93735 0.0
N70 N 0.05842 0.88132 0.91167 0.0
H71 H 0.85001 0.88666 0.93095 0.0
H72 H 0.26928 0.87504 0.90469 0.0
C73 C 0.88567 0.94376 0.7128 0.0
N74 N -0.00694 0.92465 0.70108 0.0
C75 C 0.06244 0.93969 0.58869 0.0
C76 C 0.95692 0.96069 0.60324 0.0
C77 C 0.86525 0.96197 0.66427 0.0
C78 C 0.07904 0.92171 0.63896 0.0
H79 H 0.81841 0.94555 0.76231 0.0
H80 H 0.16272 0.90618 0.63008 0.0
C81 C 0.24718 0.84641 0.70927 0.0
C82 C 0.85521 0.77814 0.56384 0.0
N83 N 0.07505 0.79715 0.74325 0.0
C84 C 0.14929 0.77292 0.72382 0.0
C85 C 0.18909 0.75915 0.78327 0.0
C86 C 0.15173 0.77046 0.86335 0.0
C87 C 0.07612 0.79565 0.88189 0.0
C88 C 0.03899 0.80879 0.82042 0.0
C89 C -3e-05 0.95214 0.91791 0.0
O90 O 0.88222 0.85851 0.7193 0.0
O91 O 0.7914 0.89621 0.7909 0.0
O92 O 0.14285 0.86236 0.73344 0.0
O93 O 0.23397 0.82386 0.66605 0.0
O94 O 0.80084 0.80012 0.6056 0.0
O95 O 0.98134 0.77486 0.5569 0.0
O96 O 0.90587 0.93805 0.9056 0.0
O97 O 0.11012 0.94279 0.88063 0.0
H98 H 0.1759 0.76411 0.66188 0.0
H99 H 0.97987 0.82808 0.83395 0.0
H100 H 0.86229 0.85505 0.38155 0.0
H101 H 0.28567 0.82896 0.38653 0.0
H102 H 0.86736 0.87079 0.05568 0.0
H103 H 0.29604 0.85886 0.03064 0.0
H104 H 0.13441 0.93792 0.54142 0.0
H105 H 0.78053 0.97738 0.67589 0.0
H106 H 0.24544 0.73958 0.76651 0.0
H107 H 0.04574 0.80498 0.94308 0.0
Cd108 Cd 0.37217 0.57645 0.16245 0.0
Cd109 Cd 0.39554 0.65753 0.32437 0.0
C110 C 0.48473 0.59258 0.0087 0.0
N111 N 0.37797 0.59898 0.05931 0.0
C112 C 0.25762 0.62353 0.97171 0.0
C113 C 0.36358 0.61596 0.91627 0.0
C114 C 0.4796 0.60091 0.93668 0.0
C115 C 0.26628 0.61447 0.04285 0.0
H116 H 0.57042 0.57941 0.02128 0.0
H117 H 0.18192 0.6189 0.08338 0.0
C118 C 0.13849 0.6316 0.27416 0.0
C119 C 0.25913 0.65729 0.49169 0.0
C120 C 0.24928 0.65215 0.56781 0.0
C121 C 0.3438 0.63319 0.59155 0.0
C122 C 0.44318 0.619 0.53694 0.0
C123 C 0.44834 0.62454 0.46101 0.0
N124 N 0.35807 0.64363 0.4405 0.0
H125 H 0.19135 0.67295 0.4747 0.0
H126 H 0.52758 0.61444 0.41959 0.0
C127 C 0.25437 0.70332 0.24151 0.0
N128 N 0.33284 0.67953 0.22228 0.0
C129 C 0.35105 0.68342 0.08658 0.0
C130 C 0.2735 0.70841 0.10522 0.0
C131 C 0.22331 0.71818 0.18359 0.0
C132 C 0.38005 0.66929 0.14649 0.0
H133 H 0.21794 0.71097 0.30231 0.0
H134 H 0.4417 0.65029 0.13278 0.0
C135 C 0.61264 0.60284 0.21294 0.0
C136 C 0.35196 0.52817 0.05461 0.0
N137 N 0.44003 0.55705 0.26993 0.0
C138 C 0.54257 0.53687 0.25508 0.0
C139 C 0.57144 0.52043 0.30879 0.0
C140 C 0.4935 0.52466 0.37824 0.0
C141 C 0.39325 0.54659 0.39458 0.0
C142 C 0.36726 0.56255 0.33882 0.0
C143 C 0.54799 0.69562 0.40796 0.0
O144 O 0.23688 0.61539 0.24185 0.0
O145 O 0.15965 0.65386 0.31654 0.0
O146 O 0.50496 0.6169 0.24067 0.0
O147 O 0.60515 0.58014 0.1696 0.0
O148 O 0.33921 0.5496 0.03158 0.0
O149 O 0.32929 0.53031 0.12844 0.0
O150 O 0.60429 0.67284 0.37326 0.0
O151 O 0.42207 0.70009 0.40305 0.0
H152 H 0.59721 0.53259 0.19914 0.0
H153 H 0.28505 0.57847 0.3486 0.0
H154 H 0.16765 0.6357 0.95933 0.0
H155 H 0.56293 0.59432 0.89535 0.0
H156 H 0.17255 0.66369 0.609 0.0
H157 H 0.51766 0.60425 0.55359 0.0
H158 H 0.38906 0.6749 0.02641 0.0
H159 H 0.16333 0.73739 0.20039 0.0
H160 H 0.65132 0.50406 0.2949 0.0
H161 H 0.3314 0.55055 0.44777 0.0
Cd162 Cd 0.69127 0.31993 0.64451 0.0
Cd163 Cd 0.72143 0.39938 0.80578 0.0
C164 C 0.78693 0.31532 0.46454 0.0
N165 N 0.70946 0.33207 0.52322 0.0
C166 C 0.6236 0.35866 0.43198 0.0
C167 C 0.69825 0.34107 0.36931 0.0
C168 C 0.78317 0.31952 0.38668 0.0
C169 C 0.63012 0.35365 0.50891 0.0
H170 H 0.84747 0.29808 0.47755 0.0
H171 H 0.56874 0.36647 0.55664 0.0
C172 C 0.47366 0.37658 0.75138 0.0
C173 C 0.58727 0.39174 0.9652 0.0
C174 C 0.57764 0.38303 0.03584 0.0
C175 C 0.65971 0.3602 0.04663 0.0
C176 C 0.74535 0.34595 0.98379 0.0
C177 C 0.75229 0.35547 0.91415 0.0
N178 N 0.67623 0.37834 0.90714 0.0
H179 H 0.53008 0.4102 0.95893 0.0
H180 H 0.82301 0.3453 0.86748 0.0
C181 C 0.54565 0.44119 0.71984 0.0
N182 N 0.64359 0.42017 0.7025 0.0
C183 C 0.67846 0.42897 0.5739 0.0
C184 C 0.57987 0.45119 0.59103 0.0
C185 C 0.51155 0.45691 0.66456 0.0
C186 C 0.70907 0.41367 0.63093 0.0
H187 H 0.49794 0.44648 0.77817 0.0
H188 H 0.78896 0.3973 0.61958 0.0
C189 C 0.94894 0.34525 0.69107 0.0
C190 C 0.50111 0.28775 0.57788 0.0
N191 N 0.75016 0.29724 0.74569 0.0
C192 C 0.87099 0.2829 0.75228 0.0
C193 C 0.89394 0.2694 0.81434 0.0
C194 C 0.79068 0.27039 0.86854 0.0
C195 C 0.66714 0.28511 0.85978 0.0
C196 C 0.64929 0.29861 0.79796 0.0
C197 C 0.77311 0.44659 0.90797 0.0
O198 O 0.58016 0.36206 0.72265 0.0
O199 O 0.48539 0.39858 0.79803 0.0
O200 O 0.84695 0.36024 0.72322 0.0
O201 O 0.93177 0.32327 0.6452 0.0
O202 O 0.47625 0.30677 0.6382 0.0
O203 O 0.62012 0.2823 0.5513 0.0
O204 O 0.79072 0.44305 0.83314 0.0
O205 O 0.78046 0.42573 0.93417 0.0
H206 H 0.94912 0.28179 0.70938 0.0
H207 H 0.55447 0.31024 0.79144 0.0
H208 H 0.55914 0.37582 0.42129 0.0
H209 H 0.84208 0.30552 0.33993 0.0
H210 H 0.51271 0.395 0.08342 0.0
H211 H 0.80982 0.32822 0.98973 0.0
H212 H 0.73561 0.42417 0.51868 0.0
H213 H 0.43493 0.47383 0.68011 0.0
H214 H -0.00967 0.25804 0.81938 0.0
H215 H 0.58594 0.28648 0.90111 0.0
C216 C 0.81392 0.14631 0.85918 0.0
C217 C 0.89578 0.15857 0.9202 0.0
C218 C 0.81704 0.15054 0.78116 0.0
C219 C 0.90036 0.16757 0.76159 0.0
H220 H 0.74976 0.13268 0.87114 0.0
H221 H 0.75387 0.14041 0.73575 0.0
S222 S 0.1316 0.20501 0.89942 0.0
N223 N 0.0618 0.18865 0.95549 0.0
N224 N 0.06512 0.19709 0.80939 0.0
C225 C 0.98054 0.18041 0.82226 0.0
C226 C 0.97918 0.17574 0.90133 0.0
C227 C 0.02509 0.87186 0.27584 0.0
C228 C 0.08899 0.84797 0.29171 0.0
C229 C 0.02705 0.8769 0.19899 0.0
C230 C 0.09339 0.85833 0.13485 0.0
H231 H 0.97208 0.88674 0.32315 0.0
H232 H 0.97504 0.89546 0.18946 0.0
S233 S 0.27759 0.79288 0.14415 0.0
N234 N 0.2216 0.80553 0.23654 0.0
N235 N 0.22656 0.81535 0.09198 0.0
C236 C 0.16088 0.83467 0.14994 0.0
C237 C 0.15837 0.82941 0.22839 0.0
C238 C 0.46039 0.63021 0.80216 0.0
C239 C 0.35182 0.62205 0.83526 0.0
C240 C 0.45689 0.63371 0.72324 0.0
C241 C 0.34418 0.62949 0.67477 0.0
H242 H 0.54935 0.63372 0.83734 0.0
H243 H 0.54286 0.63987 0.69999 0.0
S244 S 0.03504 0.60745 0.73092 0.0
N245 N 0.1294 0.60918 0.81177 0.0
N246 N 0.12197 0.6167 0.66433 0.0
C247 C 0.23418 0.62179 0.70708 0.0
C248 C 0.23811 0.61787 0.78713 0.0
C249 C 0.79106 0.34789 0.16192 0.0
C250 C 0.66631 0.35308 0.12613 0.0
C251 C 0.80056 0.34377 0.24019 0.0
C252 C 0.6857 0.34479 0.28576 0.0
H253 H 0.88227 0.34785 0.13023 0.0
H254 H 0.89859 0.34041 0.26593 0.0
S255 S 0.33583 0.35432 0.21629 0.0
N256 N 0.42579 0.35664 0.13971 0.0
N257 N 0.44362 0.34901 0.28699 0.0
C258 C 0.56045 0.34903 0.24976 0.0
C259 C 0.55077 0.35314 0.16997 0.0
C260 C 0.52698 0.13028 0.28074 0.0
C261 C 0.55822 0.14861 0.34975 0.0
C262 C 0.3986 0.12329 0.26906 0.0
C263 C 0.29775 0.13395 0.32683 0.0
H264 H 0.60102 0.12175 0.2344 0.0
H265 H 0.37762 0.10983 0.21341 0.0
S266 S 0.33812 0.1776 0.52662 0.0
N267 N 0.48372 0.17453 0.48177 0.0
N268 N 0.244 0.15981 0.46157 0.0
C269 C 0.33031 0.15065 0.39892 0.0
C270 C 0.46038 0.15836 0.41003 0.0
C271 C 0.53822 0.88453 0.72765 0.0
C272 C 0.64516 0.86562 0.73922 0.0
C273 C 0.4077 0.87864 0.72264 0.0
C274 C 0.38065 0.85358 0.72807 0.0
H275 H 0.55575 0.904 0.72193 0.0
H276 H 0.32838 0.89352 0.71224 0.0
S277 S 0.62167 0.79953 0.77737 0.0
N278 N 0.71353 0.82262 0.76969 0.0
N279 N 0.46712 0.81114 0.75789 0.0
C280 C 0.4856 0.83499 0.74417 0.0
C281 C 0.61859 0.84109 0.75007 0.0
C282 C 0.84898 0.59283 0.24724 0.0
C283 C 0.74321 0.6114 0.2321 0.0
C284 C 0.97742 0.59958 0.26074 0.0
C285 C 0.00316 0.62517 0.26022 0.0
H286 H 0.83235 0.57289 0.24837 0.0
H287 H 0.05678 0.58477 0.2722 0.0
S288 S 0.76451 0.6798 0.21281 0.0
N289 N 0.67508 0.65542 0.20897 0.0
N290 N 0.91658 0.6686 0.23788 0.0
C291 C 0.89895 0.64386 0.24425 0.0
C292 C 0.7685 0.63683 0.2292 0.0
C293 C 0.17807 0.34715 0.64545 0.0
C294 C 0.08234 0.35309 0.70712 0.0
C295 C 0.30471 0.35514 0.65969 0.0
C296 C 0.34113 0.3681 0.73672 0.0
H297 H 0.15386 0.33686 0.5855 0.0
H298 H 0.37416 0.35129 0.61007 0.0
S299 S 0.12605 0.388 0.91839 0.0
N300 N 0.03054 0.37334 0.84719 0.0
N301 N 0.27118 0.38684 0.87515 0.0
C302 C 0.24597 0.37416 0.79874 0.0
C303 C 0.11605 0.36684 0.78372 0.0
C304 C 0.27937 0.27325 0.58383 0.0
C305 C 0.39364 0.27353 0.53917 0.0
C306 C 0.17625 0.25946 0.54878 0.0
C307 C 0.18506 0.24568 0.46832 0.0
H308 H 0.27124 0.28309 0.64681 0.0
H309 H 0.09303 0.25837 0.58585 0.0
S310 S 0.44726 0.24528 0.32166 0.0
N311 N 0.49927 0.26238 0.40751 0.0
N312 N 0.30499 0.23607 0.34195 0.0
C313 C 0.29393 0.24725 0.42175 0.0
C314 C 0.39877 0.26128 0.4572 0.0
C315 C 0.72957 0.23747 0.94218 0.0
C316 C 0.8111 0.25654 0.93517 0.0
C317 C 0.74327 0.22502 0.00706 0.0
C318 C 0.83887 0.23126 0.0671 0.0
H319 H 0.65504 0.23211 0.897 0.0
H320 H 0.67977 0.21018 0.00977 0.0
S321 S 0.06856 0.28153 0.07927 0.0
N322 N 0.986 0.28196 0.99486 0.0
N323 N 0.01059 0.259 0.11765 0.0
C324 C 0.91944 0.25064 0.06118 0.0
C325 C 0.90596 0.26315 0.99493 0.0
C326 C 0.76463 0.71302 0.44228 0.0
C327 C 0.62522 0.71635 0.45041 0.0
C328 C 0.83851 0.73313 0.4792 0.0
C329 C 0.77541 0.75722 0.52554 0.0
H330 H 0.8171 0.6949 0.40649 0.0
H331 H 0.94568 0.72977 0.47097 0.0
S332 S 0.41345 0.77485 0.56888 0.0
N333 N 0.42765 0.74483 0.51122 0.0
N334 N 0.56571 0.78286 0.57909 0.0
C335 C 0.63623 0.76057 0.53491 0.0
C336 C 0.56136 0.74007 0.49779 0.0
C337 C 0.11497 0.73653 0.03405 0.0
C338 C 0.24542 0.72438 0.04362 0.0
C339 C 0.08601 0.75181 0.97662 0.0
C340 C 0.18633 0.75541 0.92646 0.0
H341 H 0.03423 0.73393 0.07054 0.0
H342 H 0.98384 0.76043 0.97033 0.0
S343 S 0.54574 0.72997 0.93227 0.0
N344 N 0.47728 0.71853 0.00164 0.0
N345 N 0.42223 0.74701 0.8931 0.0
C346 C 0.31746 0.74381 0.93628 0.0
C347 C 0.34713 0.72833 0.99492 0.0
C348 C 0.03533 0.02377 0.00576 0.0
C349 C 0.92282 0.03249 0.05619 0.0
C350 C 0.06146 -0.00243 0.96258 0.0
C351 C 0.97597 0.97914 0.9683 0.0
H352 H 0.10512 0.03723 0.00033 0.0
H353 H 0.14859 0.99182 0.92401 0.0
S354 S 0.66919 0.99182 0.09339 0.0
N355 N 0.72598 0.02064 0.11007 0.0
N356 N 0.77455 0.97125 0.02899 0.0
C357 C 0.86245 0.98761 0.01819 0.0
C358 C 0.83572 0.01435 0.06194 0.0
C359 C 0.9376 0.99528 0.42957 0.0
C360 C 0.92079 0.0223 0.46847 0.0
C361 C 0.94956 0.97544 0.47337 0.0
C362 C 0.94477 0.9819 0.55766 0.0
H363 H 0.94147 0.98944 0.36463 0.0
H364 H 0.96155 0.95492 0.44105 0.0
S365 S 0.91157 0.0496 0.68828 0.0
N366 N 0.9056 0.05441 0.59601 0.0
N367 N 0.92826 0.0172 0.67858 0.0
C368 C 0.92878 0.00884 0.59731 0.0
C369 C 0.91649 0.02902 0.55267 0.0
C370 C 0.50563 0.48647 0.0517 0.0
C371 C 0.44862 0.50594 0.01146 0.0
C372 C 0.61889 0.46889 0.02148 0.0
C373 C 0.67985 0.4698 0.94918 0.0
H374 H 0.46477 0.48516 0.10835 0.0
H375 H 0.6562 0.45389 0.05405 0.0
S376 S 0.57269 0.51765 0.82153 0.0
N377 N 0.46302 0.52528 0.89548 0.0
N378 N 0.67738 0.49264 0.83977 0.0
C379 C 0.62545 0.48951 0.90901 0.0
C380 C 0.50893 0.50722 0.93926 0.0
C381 C 0.54723 0.497 0.56567 0.0
C382 C 0.55453 0.46945 0.53542 0.0
C383 C 0.52654 0.51473 0.51469 0.0
C384 C 0.51324 0.50559 0.43141 0.0
H385 H 0.55992 0.50493 0.6292 0.0
H386 H 0.52323 0.53571 0.54049 0.0
S387 S 0.51315 0.43561 0.32259 0.0
N388 N 0.5386 0.43407 0.41731 0.0
N389 N 0.50069 0.46732 0.32136 0.0
C390 C 0.51805 0.47814 0.40043 0.0
C391 C 0.53861 0.46011 0.4524 0.0
loop_
_geom_bond_atom_site_label_1
_geom_bond_atom_site_label_2
_geom_bond_distance
_geom_bond_site_symmetry_2
_ccdc_geom_bond_type
Cd0 N3 2.334 1_455 S
Cd0 N29 2.304 . S
Cd0 O36 2.268 1_455 S
Cd0 O39 2.273 . S
Cd0 O40 2.417 1_455 S
Cd0 O41 2.330 . S
Cd1 N16 2.304 1_655 S
Cd1 N20 2.334 . S
Cd1 O37 2.273 . S
Cd1 O38 2.268 1_655 S
Cd1 O42 2.417 1_655 S
Cd1 O43 2.330 . S
C2 N3 1.332 1_455 S
C2 C6 1.381 1_554 S
C2 H8 0.931 . S
N3 Cd0 2.334 1_655 S
N3 C2 1.332 1_655 S
N3 C7 1.328 . S
C4 C5 1.396 . S
C4 C7 1.378 1_556 S
C4 H46 0.931 . S
C5 C4 1.396 . S
C5 C6 1.382 1_655 S
C6 C2 1.381 1_556 S
C6 C5 1.382 1_455 S
C6 H47 0.930 . S
C7 N3 1.328 . S
C7 C4 1.378 1_554 S
C7 H9 0.930 . S
H8 C2 0.931 . S
H9 C7 0.930 . S
C10 O36 1.238 . S
C10 O37 1.253 . S
C11 C12 1.379 . S
C11 N16 1.337 1_655 S
C11 H17 0.929 . S
C12 C11 1.379 . S
C12 C13 1.380 1_655 S
C12 H48 0.929 . S
C13 C12 1.380 1_455 S
C13 C14 1.399 . S
C14 C13 1.399 . S
C14 C15 1.376 . S
C14 H49 0.931 . S
C15 C14 1.376 . S
C15 N16 1.338 . S
C15 H18 0.930 . S
N16 Cd1 2.304 1_455 S
N16 C11 1.337 1_455 S
N16 C15 1.338 . S
H17 C11 0.929 . S
H18 C15 0.930 . S
C19 N20 1.332 . S
C19 C23 1.381 . S
C19 H25 0.931 . S
N20 Cd1 2.334 . S
N20 C19 1.332 . S
N20 C24 1.328 1_655 S
C21 C22 1.396 1_455 S
C21 C24 1.378 . S
C21 H50 0.931 . S
C22 C21 1.396 1_655 S
C22 C23 1.382 . S
C23 C19 1.381 . S
C23 C22 1.382 . S
C23 H51 0.930 . S
C24 N20 1.328 1_455 S
C24 C21 1.378 . S
C24 H26 0.930 . S
H25 C19 0.931 . S
H26 C24 0.930 . S
C27 O38 1.238 . S
C27 O39 1.253 . S
C28 O40 1.239 . S
C28 O41 1.230 1_655 S
N29 Cd0 2.304 . S
N29 C30 1.337 . S
N29 C34 1.338 1_455 S
C30 N29 1.337 . S
C30 C31 1.379 . S
C30 H44 0.929 . S
C31 C30 1.379 . S
C31 C32 1.380 . S
C31 H52 0.929 . S
C32 C31 1.380 . S
C32 C33 1.399 1_455 S
C33 C32 1.399 1_655 S
C33 C34 1.376 . S
C33 H53 0.931 . S
C34 N29 1.338 1_655 S
C34 C33 1.376 . S
C34 H45 0.930 . S
C35 O42 1.239 . S
C35 O43 1.230 1_455 S
O36 Cd0 2.268 1_655 S
O36 C10 1.238 . S
O37 Cd1 2.273 . S
O37 C10 1.253 . S
O38 Cd1 2.268 1_455 S
O38 C27 1.238 . S
O39 Cd0 2.273 . S
O39 C27 1.253 . S
O40 Cd0 2.417 1_655 S
O40 C28 1.239 . S
O41 Cd0 2.330 . S
O41 C28 1.230 1_455 S
O42 Cd1 2.417 1_455 S
O42 C35 1.239 . S
O43 Cd1 2.330 . S
O43 C35 1.230 1_655 S
H44 C30 0.929 . S
H45 C34 0.930 . S
H46 C4 0.931 . S
H47 C6 0.930 . S
H48 C12 0.929 . S
H49 C14 0.931 . S
H50 C21 0.931 . S
H51 C23 0.930 . S
H52 C31 0.929 . S
H53 C33 0.931 . S
Cd54 N57 2.334 . S
Cd54 N83 2.304 . S
Cd54 O90 2.268 1_455 S
Cd54 O93 2.273 . S
Cd54 O94 2.417 1_455 S
Cd54 O95 2.330 . S
Cd55 N70 2.304 . S
Cd55 N74 2.334 1_455 S
Cd55 O91 2.273 1_455 S
Cd55 O92 2.268 . S
Cd55 O96 2.417 . S
Cd55 O97 2.330 1_455 S
C56 N57 1.332 . S
C56 C60 1.381 . S
C56 H62 0.931 . S
N57 Cd54 2.334 . S
N57 C56 1.332 . S
N57 C61 1.328 1_455 S
C58 C59 1.396 1_655 S
C58 C61 1.378 . S
C58 H100 0.931 . S
C59 C58 1.396 1_455 S
C59 C60 1.382 . S
C60 C56 1.381 . S
C60 C59 1.382 . S
C60 H101 0.930 . S
C61 N57 1.328 1_655 S
C61 C58 1.378 . S
C61 H63 0.930 . S
H62 C56 0.931 . S
H63 C61 0.930 . S
C64 O90 1.238 . S
C64 O91 1.253 . S
C65 C66 1.379 1_556 S
C65 N70 1.337 1_655 S
C65 H71 0.929 . S
C66 C65 1.379 1_554 S
C66 C67 1.380 1_655 S
C66 H102 0.929 . S
C67 C66 1.380 1_455 S
C67 C68 1.399 . S
C68 C67 1.399 . S
C68 C69 1.376 1_554 S
C68 H103 0.931 . S
C69 C68 1.376 1_556 S
C69 N70 1.338 . S
C69 H72 0.930 . S
N70 Cd55 2.304 . S
N70 C65 1.337 1_455 S
N70 C69 1.338 . S
H71 C65 0.929 . S
H72 C69 0.930 . S
C73 N74 1.332 . S
C73 C77 1.381 . S
C73 H79 0.931 . S
N74 Cd55 2.334 1_655 S
N74 C73 1.332 . S
N74 C78 1.328 1_655 S
C75 C76 1.396 1_455 S
C75 C78 1.378 . S
C75 H104 0.931 . S
C76 C75 1.396 1_655 S
C76 C77 1.382 . S
C77 C73 1.381 . S
C77 C76 1.382 . S
C77 H105 0.930 . S
C78 N74 1.328 1_455 S
C78 C75 1.378 . S
C78 H80 0.930 . S
H79 C73 0.931 . S
H80 C78 0.930 . S
C81 O92 1.238 . S
C81 O93 1.253 . S
C82 O94 1.239 . S
C82 O95 1.230 1_655 S
N83 Cd54 2.304 . S
N83 C84 1.337 . S
N83 C88 1.338 1_455 S
C84 N83 1.337 . S
C84 C85 1.379 . S
C84 H98 0.929 . S
C85 C84 1.379 . S
C85 C86 1.380 . S
C85 H106 0.929 . S
C86 C85 1.380 . S
C86 C87 1.399 1_455 S
C87 C86 1.399 1_655 S
C87 C88 1.376 . S
C87 H107 0.931 . S
C88 N83 1.338 1_655 S
C88 C87 1.376 . S
C88 H99 0.930 . S
C89 O96 1.239 . S
C89 O97 1.230 1_455 S
O90 Cd54 2.268 1_655 S
O90 C64 1.238 . S
O91 Cd55 2.273 1_655 S
O91 C64 1.253 . S
O92 Cd55 2.268 . S
O92 C81 1.238 . S
O93 Cd54 2.273 . S
O93 C81 1.253 . S
O94 Cd54 2.417 1_655 S
O94 C82 1.239 . S
O95 Cd54 2.330 . S
O95 C82 1.230 1_455 S
O96 Cd55 2.417 . S
O96 C89 1.239 . S
O97 Cd55 2.330 1_655 S
O97 C89 1.230 1_655 S
H98 C84 0.929 . S
H99 C88 0.930 . S
H100 C58 0.931 . S
H101 C60 0.930 . S
H102 C66 0.929 . S
H103 C68 0.931 . S
H104 C75 0.931 . S
H105 C77 0.930 . S
H106 C85 0.929 . S
H107 C87 0.931 . S
Cd108 N111 2.334 . S
Cd108 N137 2.304 . S
Cd108 O144 2.268 . S
Cd108 O147 2.273 . S
Cd108 O148 2.417 . S
Cd108 O149 2.330 . S
Cd109 N124 2.304 . S
Cd109 N128 2.334 . S
Cd109 O145 2.273 . S
Cd109 O146 2.268 . S
Cd109 O150 2.417 . S
Cd109 O151 2.330 . S
C110 N111 1.332 . S
C110 C114 1.381 1_554 S
C110 H116 0.931 . S
N111 Cd108 2.334 . S
N111 C110 1.332 . S
N111 C115 1.328 . S
C112 C113 1.396 . S
C112 C115 1.378 1_556 S
C112 H154 0.931 . S
C113 C112 1.396 . S
C113 C114 1.382 . S
C114 C110 1.381 1_556 S
C114 C113 1.382 . S
C114 H155 0.930 . S
C115 N111 1.328 . S
C115 C112 1.378 1_554 S
C115 H117 0.930 . S
H116 C110 0.931 . S
H117 C115 0.930 . S
C118 O144 1.238 . S
C118 O145 1.253 . S
C119 C120 1.379 . S
C119 N124 1.337 . S
C119 H125 0.929 . S
C120 C119 1.379 . S
C120 C121 1.380 . S
C120 H156 0.929 . S
C121 C120 1.380 . S
C121 C122 1.399 . S
C122 C121 1.399 . S
C122 C123 1.376 . S
C122 H157 0.931 . S
C123 C122 1.376 . S
C123 N124 1.338 . S
C123 H126 0.930 . S
N124 Cd109 2.304 . S
N124 C119 1.337 . S
N124 C123 1.338 . S
H125 C119 0.929 . S
H126 C123 0.930 . S
C127 N128 1.332 . S
C127 C131 1.381 . S
C127 H133 0.931 . S
N128 Cd109 2.334 . S
N128 C127 1.332 . S
N128 C132 1.328 . S
C129 C130 1.396 . S
C129 C132 1.378 . S
C129 H158 0.931 . S
C130 C129 1.396 . S
C130 C131 1.382 . S
C131 C127 1.381 . S
C131 C130 1.382 . S
C131 H159 0.930 . S
C132 N128 1.328 . S
C132 C129 1.378 . S
C132 H134 0.930 . S
H133 C127 0.931 . S
H134 C132 0.930 . S
C135 O146 1.238 . S
C135 O147 1.253 . S
C136 O148 1.239 . S
C136 O149 1.230 . S
N137 Cd108 2.304 . S
N137 C138 1.337 . S
N137 C142 1.338 . S
C138 N137 1.337 . S
C138 C139 1.379 . S
C138 H152 0.929 . S
C139 C138 1.379 . S
C139 C140 1.380 . S
C139 H160 0.929 . S
C140 C139 1.380 . S
C140 C141 1.399 . S
C141 C140 1.399 . S
C141 C142 1.376 . S
C141 H161 0.931 . S
C142 N137 1.338 . S
C142 C141 1.376 . S
C142 H153 0.930 . S
C143 O150 1.239 . S
C143 O151 1.230 . S
O144 Cd108 2.268 . S
O144 C118 1.238 . S
O145 Cd109 2.273 . S
O145 C118 1.253 . S
O146 Cd109 2.268 . S
O146 C135 1.238 . S
O147 Cd108 2.273 . S
O147 C135 1.253 . S
O148 Cd108 2.417 . S
O148 C136 1.239 . S
O149 Cd108 2.330 . S
O149 C136 1.230 . S
O150 Cd109 2.417 . S
O150 C143 1.239 . S
O151 Cd109 2.330 . S
O151 C143 1.230 . S
H152 C138 0.929 . S
H153 C142 0.930 . S
H154 C112 0.931 . S
H155 C114 0.930 . S
H156 C120 0.929 . S
H157 C122 0.931 . S
H158 C129 0.931 . S
H159 C131 0.930 . S
H160 C139 0.929 . S
H161 C141 0.931 . S
Cd162 N165 2.334 . S
Cd162 N191 2.304 . S
Cd162 O198 2.268 . S
Cd162 O201 2.273 . S
Cd162 O202 2.417 . S
Cd162 O203 2.330 . S
Cd163 N178 2.304 . S
Cd163 N182 2.334 . S
Cd163 O199 2.273 . S
Cd163 O200 2.268 . S
Cd163 O204 2.417 . S
Cd163 O205 2.330 . S
C164 N165 1.332 . S
C164 C168 1.381 . S
C164 H170 0.931 . S
N165 Cd162 2.334 . S
N165 C164 1.332 . S
N165 C169 1.328 . S
C166 C167 1.396 . S
C166 C169 1.378 . S
C166 H208 0.931 . S
C167 C166 1.396 . S
C167 C168 1.382 . S
C168 C164 1.381 . S
C168 C167 1.382 . S
C168 H209 0.930 . S
C169 N165 1.328 . S
C169 C166 1.378 . S
C169 H171 0.930 . S
H170 C164 0.931 . S
H171 C169 0.930 . S
C172 O198 1.238 . S
C172 O199 1.253 . S
C173 C174 1.379 1_556 S
C173 N178 1.337 . S
C173 H179 0.929 . S
C174 C173 1.379 1_554 S
C174 C175 1.380 . S
C174 H210 0.929 . S
C175 C174 1.380 . S
C175 C176 1.399 . S
C176 C175 1.399 . S
C176 C177 1.376 1_554 S
C176 H211 0.931 . S
C177 C176 1.376 1_556 S
C177 N178 1.338 . S
C177 H180 0.930 . S
N178 Cd163 2.304 . S
N178 C173 1.337 . S
N178 C177 1.338 . S
H179 C173 0.929 . S
H180 C177 0.930 . S
C181 N182 1.332 . S
C181 C185 1.381 . S
C181 H187 0.931 . S
N182 Cd163 2.334 . S
N182 C181 1.332 . S
N182 C186 1.328 . S
C183 C184 1.396 . S
C183 C186 1.378 . S
C183 H212 0.931 . S
C184 C183 1.396 . S
C184 C185 1.382 . S
C185 C181 1.381 . S
C185 C184 1.382 . S
C185 H213 0.930 . S
C186 N182 1.328 . S
C186 C183 1.378 . S
C186 H188 0.930 . S
H187 C181 0.931 . S
H188 C186 0.930 . S
C189 O200 1.238 . S
C189 O201 1.253 . S
C190 O202 1.239 . S
C190 O203 1.230 . S
N191 Cd162 2.304 . S
N191 C192 1.337 . S
N191 C196 1.338 . S
C192 N191 1.337 . S
C192 C193 1.379 . S
C192 H206 0.929 . S
C193 C192 1.379 . S
C193 C194 1.380 . S
C193 H214 0.929 . S
C194 C193 1.380 . S
C194 C195 1.399 . S
C195 C194 1.399 . S
C195 C196 1.376 . S
C195 H215 0.931 . S
C196 N191 1.338 . S
C196 C195 1.376 . S
C196 H207 0.930 . S
C197 O204 1.239 . S
C197 O205 1.230 . S
O198 Cd162 2.268 . S
O198 C172 1.238 . S
O199 Cd163 2.273 . S
O199 C172 1.253 . S
O200 Cd163 2.268 . S
O200 C189 1.238 . S
O201 Cd162 2.273 . S
O201 C189 1.253 . S
O202 Cd162 2.417 . S
O202 C190 1.239 . S
O203 Cd162 2.330 . S
O203 C190 1.230 . S
O204 Cd163 2.417 . S
O204 C197 1.239 . S
O205 Cd163 2.330 . S
O205 C197 1.230 . S
H206 C192 0.929 . S
H207 C196 0.930 . S
H208 C166 0.931 . S
H209 C168 0.930 . S
H210 C174 0.929 . S
H211 C176 0.931 . S
H212 C183 0.931 . S
H213 C185 0.930 . S
H214 C193 0.929 . S
H215 C195 0.931 . S
C216 C217 1.369 . S
C216 C218 1.419 . S
C216 H220 0.930 . S
C217 C216 1.369 . S
C217 C226 1.429 1_655 S
C218 C216 1.419 . S
C218 C219 1.363 1_655 S
C218 H221 0.929 . S
C219 C218 1.363 1_455 S
C219 C225 1.428 . S
H220 C216 0.930 . S
H221 C218 0.929 . S
S222 N223 1.613 . S
S222 N224 1.610 . S
N223 S222 1.613 . S
N223 C226 1.350 . S
N224 S222 1.610 . S
N224 C225 1.351 . S
C225 C219 1.428 . S
C225 N224 1.351 . S
C225 C226 1.434 . S
C226 C217 1.429 1_455 S
C226 N223 1.350 . S
C226 C225 1.434 . S
C227 C228 1.369 1_655 S
C227 C229 1.419 1_655 S
C227 H231 0.930 . S
C228 C227 1.369 1_455 S
C228 C237 1.429 . S
C229 C227 1.419 1_455 S
C229 C230 1.363 . S
C229 H232 0.929 . S
C230 C229 1.363 . S
C230 C236 1.428 . S
H231 C227 0.930 . S
H232 C229 0.929 . S
S233 N234 1.613 . S
S233 N235 1.610 . S
N234 S233 1.613 . S
N234 C237 1.350 . S
N235 S233 1.610 . S
N235 C236 1.351 . S
C236 C230 1.428 . S
C236 N235 1.351 . S
C236 C237 1.434 . S
C237 C228 1.429 . S
C237 N234 1.350 . S
C237 C236 1.434 . S
C238 C239 1.369 . S
C238 C240 1.419 . S
C238 H242 0.930 . S
C239 C238 1.369 . S
C239 C248 1.429 . S
C240 C238 1.419 . S
C240 C241 1.363 . S
C240 H243 0.929 . S
C241 C240 1.363 . S
C241 C247 1.428 . S
H242 C238 0.930 . S
H243 C240 0.929 . S
S244 N245 1.613 . S
S244 N246 1.610 . S
N245 S244 1.613 . S
N245 C248 1.350 . S
N246 S244 1.610 . S
N246 C247 1.351 . S
C247 C241 1.428 . S
C247 N246 1.351 . S
C247 C248 1.434 . S
C248 C239 1.429 . S
C248 N245 1.350 . S
C248 C247 1.434 . S
C249 C250 1.369 . S
C249 C251 1.419 . S
C249 H253 0.930 . S
C250 C249 1.369 . S
C250 C259 1.429 . S
C251 C249 1.419 . S
C251 C252 1.363 . S
C251 H254 0.929 . S
C252 C251 1.363 . S
C252 C258 1.428 . S
H253 C249 0.930 . S
H254 C251 0.929 . S
S255 N256 1.613 . S
S255 N257 1.610 . S
N256 S255 1.613 . S
N256 C259 1.350 . S
N257 S255 1.610 . S
N257 C258 1.351 . S
C258 C252 1.428 . S
C258 N257 1.351 . S
C258 C259 1.434 . S
C259 C250 1.429 . S
C259 N256 1.350 . S
C259 C258 1.434 . S
C260 C261 1.369 . S
C260 C262 1.419 . S
C260 H264 0.930 . S
C261 C260 1.369 . S
C261 C270 1.429 . S
C262 C260 1.419 . S
C262 C263 1.363 . S
C262 H265 0.929 . S
C263 C262 1.363 . S
C263 C269 1.428 . S
H264 C260 0.930 . S
H265 C262 0.929 . S
S266 N267 1.613 . S
S266 N268 1.610 . S
N267 S266 1.613 . S
N267 C270 1.350 . S
N268 S266 1.610 . S
N268 C269 1.351 . S
C269 C263 1.428 . S
C269 N268 1.351 . S
C269 C270 1.434 . S
C270 C261 1.429 . S
C270 N267 1.350 . S
C270 C269 1.434 . S
C271 C272 1.369 . S
C271 C273 1.419 . S
C271 H275 0.930 . S
C272 C271 1.369 . S
C272 C281 1.429 . S
C273 C271 1.419 . S
C273 C274 1.363 . S
C273 H276 0.929 . S
C274 C273 1.363 . S
C274 C280 1.428 . S
H275 C271 0.930 . S
H276 C273 0.929 . S
S277 N278 1.613 . S
S277 N279 1.610 . S
N278 S277 1.613 . S
N278 C281 1.350 . S
N279 S277 1.610 . S
N279 C280 1.351 . S
C280 C274 1.428 . S
C280 N279 1.351 . S
C280 C281 1.434 . S
C281 C272 1.429 . S
C281 N278 1.350 . S
C281 C280 1.434 . S
C282 C283 1.369 . S
C282 C284 1.419 1_655 S
C282 H286 0.930 . S
C283 C282 1.369 . S
C283 C292 1.429 . S
C284 C282 1.419 1_455 S
C284 C285 1.363 . S
C284 H287 0.929 . S
C285 C284 1.363 . S
C285 C291 1.428 . S
H286 C282 0.930 . S
H287 C284 0.929 . S
S288 N289 1.613 . S
S288 N290 1.610 1_655 S
N289 S288 1.613 . S
N289 C292 1.350 . S
N290 S288 1.610 1_455 S
N290 C291 1.351 . S
C291 C285 1.428 . S
C291 N290 1.351 . S
C291 C292 1.434 1_455 S
C292 C283 1.429 . S
C292 N289 1.350 . S
C292 C291 1.434 1_655 S
C293 C294 1.369 . S
C293 C295 1.419 1_655 S
C293 H297 0.930 . S
C294 C293 1.369 . S
C294 C303 1.429 . S
C295 C293 1.419 1_455 S
C295 C296 1.363 . S
C295 H298 0.929 . S
C296 C295 1.363 . S
C296 C302 1.428 . S
H297 C293 0.930 . S
H298 C295 0.929 . S
S299 N300 1.613 . S
S299 N301 1.610 1_655 S
N300 S299 1.613 . S
N300 C303 1.350 . S
N301 S299 1.610 1_455 S
N301 C302 1.351 . S
C302 C296 1.428 . S
C302 N301 1.351 . S
C302 C303 1.434 1_455 S
C303 C294 1.429 . S
C303 N300 1.350 . S
C303 C302 1.434 1_655 S
C304 C305 1.369 . S
C304 C306 1.419 . S
C304 H308 0.930 . S
C305 C304 1.369 . S
C305 C314 1.429 . S
C306 C304 1.419 . S
C306 C307 1.363 . S
C306 H309 0.929 . S
C307 C306 1.363 . S
C307 C313 1.428 . S
H308 C304 0.930 . S
H309 C306 0.929 . S
S310 N311 1.613 . S
S310 N312 1.610 . S
N311 S310 1.613 . S
N311 C314 1.350 . S
N312 S310 1.610 . S
N312 C313 1.351 . S
C313 C307 1.428 . S
C313 N312 1.351 . S
C313 C314 1.434 . S
C314 C305 1.429 . S
C314 N311 1.350 . S
C314 C313 1.434 . S
C315 C316 1.369 1_554 S
C315 C317 1.419 . S
C315 H319 0.930 . S
C316 C315 1.369 1_556 S
C316 C325 1.429 . S
C317 C315 1.419 . S
C317 C318 1.363 . S
C317 H320 0.929 . S
C318 C317 1.363 . S
C318 C324 1.428 1_554 S
H319 C315 0.930 . S
H320 C317 0.929 . S
S321 N322 1.613 1_455 S
S321 N323 1.610 . S
N322 S321 1.613 1_655 S
N322 C325 1.350 . S
N323 S321 1.610 . S
N323 C324 1.351 1_455 S
C324 C318 1.428 1_556 S
C324 N323 1.351 1_655 S
C324 C325 1.434 . S
C325 C316 1.429 . S
C325 N322 1.350 . S
C325 C324 1.434 . S
C326 C327 1.369 . S
C326 C328 1.419 . S
C326 H330 0.930 . S
C327 C326 1.369 . S
C327 C336 1.429 . S
C328 C326 1.419 . S
C328 C329 1.363 . S
C328 H331 0.929 . S
C329 C328 1.363 . S
C329 C335 1.428 . S
H330 C326 0.930 . S
H331 C328 0.929 . S
S332 N333 1.613 . S
S332 N334 1.610 . S
N333 S332 1.613 . S
N333 C336 1.350 . S
N334 S332 1.610 . S
N334 C335 1.351 . S
C335 C329 1.428 . S
C335 N334 1.351 . S
C335 C336 1.434 . S
C336 C327 1.429 . S
C336 N333 1.350 . S
C336 C335 1.434 . S
C337 C338 1.369 . S
C337 C339 1.419 1_554 S
C337 H341 0.930 . S
C338 C337 1.369 . S
C338 C347 1.429 . S
C339 C337 1.419 1_556 S
C339 C340 1.363 . S
C339 H342 0.929 . S
C340 C339 1.363 . S
C340 C346 1.428 . S
H341 C337 0.930 . S
H342 C339 0.929 . S
S343 N344 1.613 . S
S343 N345 1.614 . S
N344 S343 1.613 . S
N344 C347 1.350 . S
N345 S343 1.614 . S
N345 C346 1.353 1_554 S
C346 C340 1.428 . S
C346 N345 1.353 1_556 S
C346 C347 1.434 1_556 S
C347 C338 1.429 . S
C347 N344 1.350 . S
C347 C346 1.434 1_554 S
C348 C349 1.369 1_456 S
C348 C350 1.387 1_545 S
C348 H352 0.930 . S
C349 C348 1.369 1_654 S
C349 C358 1.436 . S
C350 C348 1.387 1_565 S
C350 C351 1.407 . S
C350 H353 0.924 . S
C351 C350 1.407 . S
C351 C357 1.428 1_456 S
H352 C348 0.930 . S
H353 C350 0.924 . S
S354 N355 1.613 . S
S354 N356 1.610 . S
N355 S354 1.613 . S
N355 C358 1.347 1_565 S
N356 S354 1.610 . S
N356 C357 1.351 . S
C357 C351 1.428 1_654 S
C357 N356 1.351 . S
C357 C358 1.428 1_565 S
C358 C349 1.436 . S
C358 N355 1.347 1_545 S
C358 C357 1.428 1_545 S
C359 C360 1.386 . S
C359 C361 1.397 1_545 S
C359 H363 0.936 1_545 S
C360 C359 1.386 . S
C360 C369 1.429 1_455 S
C361 C359 1.397 1_565 S
C361 C362 1.363 1_455 S
C361 H364 0.929 . S
C362 C361 1.363 1_655 S
C362 C368 1.430 1_565 S
H363 C359 0.936 1_565 S
H364 C361 0.929 . S
S365 N366 1.613 . S
S365 N367 1.610 . S
N366 S365 1.613 . S
N366 C369 1.350 . S
N367 S365 1.610 . S
N367 C368 1.351 . S
C368 C362 1.430 1_545 S
C368 N367 1.351 . S
C368 C369 1.432 . S
C369 C360 1.429 1_655 S
C369 N366 1.350 . S
C369 C368 1.432 . S
C370 C371 1.369 . S
C370 C372 1.419 . S
C370 H374 0.930 . S
C371 C370 1.369 . S
C371 C380 1.429 1_554 S
C372 C370 1.419 . S
C372 C373 1.363 1_554 S
C372 H375 0.929 . S
C373 C372 1.363 1_556 S
C373 C379 1.428 . S
H374 C370 0.930 . S
H375 C372 0.929 . S
S376 N377 1.613 . S
S376 N378 1.610 . S
N377 S376 1.613 . S
N377 C380 1.350 . S
N378 S376 1.610 . S
N378 C379 1.351 . S
C379 C373 1.428 . S
C379 N378 1.351 . S
C379 C380 1.434 . S
C380 C371 1.429 1_556 S
C380 N377 1.350 . S
C380 C379 1.434 . S
C381 C382 1.369 . S
C381 C383 1.419 . S
C381 H385 0.930 . S
C382 C381 1.369 . S
C382 C391 1.429 . S
C383 C381 1.419 . S
C383 C384 1.363 . S
C383 H386 0.929 . S
C384 C383 1.363 . S
C384 C390 1.428 . S
H385 C381 0.930 . S
H386 C383 0.929 . S
S387 N388 1.613 . S
S387 N389 1.610 . S
N388 S387 1.613 . S
N388 C391 1.350 . S
N389 S387 1.610 . S
N389 C390 1.351 . S
C390 C384 1.428 . S
C390 N389 1.351 . S
C390 C391 1.434 . S
C391 C382 1.429 . S
C391 N388 1.350 . S
C391 C390 1.434 . S
C217 C5 1.793 . S
C219 C13 1.787 . S
C228 C59 1.785 . S
C230 C67 1.794 . S
C239 C113 1.788 . S
C241 C121 1.790 . S
C250 C175 1.793 . S
C252 C167 1.788 . S
C261 C10 0.945 . S
C263 C27 0.948 . S
C272 C64 0.948 . S
C274 C81 0.946 . S
C283 C135 0.948 . S
C285 C118 0.946 . S
C294 C189 0.948 . S
C296 C172 0.946 . S
C305 C190 1.688 . S
C307 C35 1.678 . S
C316 C194 2.034 . S
C318 C22 2.035 . S
C327 C143 1.690 . S
C329 C82 1.679 . S
C338 C130 2.030 . S
C340 C86 2.037 . S
C349 C28 0.844 . S
C351 C89 0.839 . S
C360 C32 1.895 . S
C362 C76 1.891 . S
C371 C136 0.839 . S
C373 C197 0.842 . S
C382 C184 1.894 . S
C384 C140 1.891 . S
