# Generated by pormake.
# Topology lta, (4)-cn, num edge types: 1
# Building blocks:
#     Node 0, Type 0, BuildingBlock: AZAVOO_clean_sbu_0, # of connection points: 4
#     Node 1, Type 0, BuildingBlock: AZAVOO_clean_sbu_0, # of connection points: 4
#     Node 2, Type 0, BuildingBlock: AZAVOO_clean_sbu_0, # of connection points: 4
#     Node 3, Type 0, BuildingBlock: AZAVOO_clean_sbu_0, # of connection points: 4
#     Node 4, Type 0, BuildingBlock: AZAVOO_clean_sbu_0, # of connection points: 4
#     Node 5, Type 0, BuildingBlock: AZAVOO_clean_sbu_0, # of connection points: 4
#     Node 6, Type 0, BuildingBlock: AZAVOO_clean_sbu_0, # of connection points: 4
#     Node 7, Type 0, BuildingBlock: AZAVOO_clean_sbu_0, # of connection points: 4
#     Node 8, Type 0, BuildingBlock: AZAVOO_clean_sbu_0, # of connection points: 4
#     Node 9, Type 0, BuildingBlock: AZAVOO_clean_sbu_0, # of connection points: 4
#     Node 10, Type 0, BuildingBlock: AZAVOO_clean_sbu_0, # of connection points: 4
#     Node 11, Type 0, BuildingBlock: AZAVOO_clean_sbu_0, # of connection points: 4
#     Node 12, Type 0, BuildingBlock: AZAVOO_clean_sbu_0, # of connection points: 4
#     Node 13, Type 0, BuildingBlock: AZAVOO_clean_sbu_0, # of connection points: 4
#     Node 14, Type 0, BuildingBlock: AZAVOO_clean_sbu_0, # of connection points: 4
#     Node 15, Type 0, BuildingBlock: AZAVOO_clean_sbu_0, # of connection points: 4
#     Node 16, Type 0, BuildingBlock: AZAVOO_clean_sbu_0, # of connection points: 4
#     Node 17, Type 0, BuildingBlock: AZAVOO_clean_sbu_0, # of connection points: 4
#     Node 18, Type 0, BuildingBlock: AZAVOO_clean_sbu_0, # of connection points: 4
#     Node 19, Type 0, BuildingBlock: AZAVOO_clean_sbu_0, # of connection points: 4
#     Node 20, Type 0, BuildingBlock: AZAVOO_clean_sbu_0, # of connection points: 4
#     Node 21, Type 0, BuildingBlock: AZAVOO_clean_sbu_0, # of connection points: 4
#     Node 22, Type 0, BuildingBlock: AZAVOO_clean_sbu_0, # of connection points: 4
#     Node 23, Type 0, BuildingBlock: AZAVOO_clean_sbu_0, # of connection points: 4
#     Edge 24, Type (0, 0), BuildingBlock: TEMPAE_clean_linker_10, # of connection points: 2
#     Edge 25, Type (0, 0), BuildingBlock: TEMPAE_clean_linker_10, # of connection points: 2
#     Edge 26, Type (0, 0), BuildingBlock: TEMPAE_clean_linker_10, # of connection points: 2
#     Edge 27, Type (0, 0), BuildingBlock: TEMPAE_clean_linker_10, # of connection points: 2
#     Edge 28, Type (0, 0), BuildingBlock: TEMPAE_clean_linker_10, # of connection points: 2
#     Edge 29, Type (0, 0), BuildingBlock: TEMPAE_clean_linker_10, # of connection points: 2
#     Edge 30, Type (0, 0), BuildingBlock: TEMPAE_clean_linker_10, # of connection points: 2
#     Edge 31, Type (0, 0), BuildingBlock: TEMPAE_clean_linker_10, # of connection points: 2
#     Edge 32, Type (0, 0), BuildingBlock: TEMPAE_clean_linker_10, # of connection points: 2
#     Edge 33, Type (0, 0), BuildingBlock: TEMPAE_clean_linker_10, # of connection points: 2
#     Edge 34, Type (0, 0), BuildingBlock: TEMPAE_clean_linker_10, # of connection points: 2
#     Edge 35, Type (0, 0), BuildingBlock: TEMPAE_clean_linker_10, # of connection points: 2
#     Edge 36, Type (0, 0), BuildingBlock: TEMPAE_clean_linker_10, # of connection points: 2
#     Edge 37, Type (0, 0), BuildingBlock: TEMPAE_clean_linker_10, # of connection points: 2
#     Edge 38, Type (0, 0), BuildingBlock: TEMPAE_clean_linker_10, # of connection points: 2
#     Edge 39, Type (0, 0), BuildingBlock: TEMPAE_clean_linker_10, # of connection points: 2
#     Edge 40, Type (0, 0), BuildingBlock: TEMPAE_clean_linker_10, # of connection points: 2
#     Edge 41, Type (0, 0), BuildingBlock: TEMPAE_clean_linker_10, # of connection points: 2
#     Edge 42, Type (0, 0), BuildingBlock: TEMPAE_clean_linker_10, # of connection points: 2
#     Edge 43, Type (0, 0), BuildingBlock: TEMPAE_clean_linker_10, # of connection points: 2
#     Edge 44, Type (0, 0), BuildingBlock: TEMPAE_clean_linker_10, # of connection points: 2
#     Edge 45, Type (0, 0), BuildingBlock: TEMPAE_clean_linker_10, # of connection points: 2
#     Edge 46, Type (0, 0), BuildingBlock: TEMPAE_clean_linker_10, # of connection points: 2
#     Edge 47, Type (0, 0), BuildingBlock: TEMPAE_clean_linker_10, # of connection points: 2
#     Edge 48, Type (0, 0), BuildingBlock: TEMPAE_clean_linker_10, # of connection points: 2
#     Edge 49, Type (0, 0), BuildingBlock: TEMPAE_clean_linker_10, # of connection points: 2
#     Edge 50, Type (0, 0), BuildingBlock: TEMPAE_clean_linker_10, # of connection points: 2
#     Edge 51, Type (0, 0), BuildingBlock: TEMPAE_clean_linker_10, # of connection points: 2
#     Edge 52, Type (0, 0), BuildingBlock: TEMPAE_clean_linker_10, # of connection points: 2
#     Edge 53, Type (0, 0), BuildingBlock: TEMPAE_clean_linker_10, # of connection points: 2
#     Edge 54, Type (0, 0), BuildingBlock: TEMPAE_clean_linker_10, # of connection points: 2
#     Edge 55, Type (0, 0), BuildingBlock: TEMPAE_clean_linker_10, # of connection points: 2
#     Edge 56, Type (0, 0), BuildingBlock: TEMPAE_clean_linker_10, # of connection points: 2
#     Edge 57, Type (0, 0), BuildingBlock: TEMPAE_clean_linker_10, # of connection points: 2
#     Edge 58, Type (0, 0), BuildingBlock: TEMPAE_clean_linker_10, # of connection points: 2
#     Edge 59, Type (0, 0), BuildingBlock: TEMPAE_clean_linker_10, # of connection points: 2
#     Edge 60, Type (0, 0), BuildingBlock: TEMPAE_clean_linker_10, # of connection points: 2
#     Edge 61, Type (0, 0), BuildingBlock: TEMPAE_clean_linker_10, # of connection points: 2
#     Edge 62, Type (0, 0), BuildingBlock: TEMPAE_clean_linker_10, # of connection points: 2
#     Edge 63, Type (0, 0), BuildingBlock: TEMPAE_clean_linker_10, # of connection points: 2
#     Edge 64, Type (0, 0), BuildingBlock: TEMPAE_clean_linker_10, # of connection points: 2
#     Edge 65, Type (0, 0), BuildingBlock: TEMPAE_clean_linker_10, # of connection points: 2
#     Edge 66, Type (0, 0), BuildingBlock: TEMPAE_clean_linker_10, # of connection points: 2
#     Edge 67, Type (0, 0), BuildingBlock: TEMPAE_clean_linker_10, # of connection points: 2
#     Edge 68, Type (0, 0), BuildingBlock: TEMPAE_clean_linker_10, # of connection points: 2
#     Edge 69, Type (0, 0), BuildingBlock: TEMPAE_clean_linker_10, # of connection points: 2
#     Edge 70, Type (0, 0), BuildingBlock: TEMPAE_clean_linker_10, # of connection points: 2
#     Edge 71, Type (0, 0), BuildingBlock: TEMPAE_clean_linker_10, # of connection points: 2
# Relax obj value: 0.171
# Max RMSD: 0.067
# Mean RMSD: 0.067
data_MOF--net-lta--node1-AZAVOO_clean_sbu_0--edge1-TEMPAE_clean_linker_10
_symmetry_space_group_name_H-M    P1
_symmetry_Int_Tables_number       1
_symmetry_cell_setting            triclinic
loop_
_symmetry_equiv_pos_as_xyz
'x, y, z'
_cell_length_a     56.828204
_cell_length_b     56.826629
_cell_length_c     56.845603
_cell_angle_alpha  89.993307
_cell_angle_beta   89.991225
_cell_angle_gamma 89.971545
loop_
_atom_site_label
_atom_site_type_symbol
_atom_site_fract_x
_atom_site_fract_y
_atom_site_fract_z
_atom_type_partial_charge
Mg0 Mg 0.12177 0.30317 0.54324 0.0
O1 O 0.12345 0.3256 0.50954 0.0
O2 O 0.09246 0.34978 0.50994 0.0
Mg3 Mg 0.07101 0.34333 0.54324 0.0
C4 C 0.11117 0.34199 0.50024 0.0
C5 C 0.15979 0.2669 0.53458 0.0
O6 O 0.14065 0.25487 0.53943 0.0
O7 O 0.1349 0.33478 0.56509 0.0
O8 O 0.10209 0.35676 0.56472 0.0
O9 O 0.09806 0.27721 0.52495 0.0
O10 O 0.08523 0.30762 0.54523 0.0
C11 C 0.12328 0.35311 0.57113 0.0
C12 C 0.08054 0.28991 0.53199 0.0
O13 O 0.15882 0.28925 0.53551 0.0
Mg14 Mg 0.69326 0.12552 0.54268 0.0
O15 O 0.66978 0.12517 0.50974 0.0
O16 O 0.64662 0.09351 0.51186 0.0
Mg17 Mg 0.65525 0.07335 0.54552 0.0
C18 C 0.65349 0.11215 0.50138 0.0
C19 C 0.72596 0.1679 0.53916 0.0
O20 O 0.73781 0.15281 0.55209 0.0
O21 O 0.66189 0.13815 0.56506 0.0
O22 O 0.64135 0.10448 0.56667 0.0
O23 O 0.71968 0.10253 0.52428 0.0
O24 O 0.69046 0.08897 0.54585 0.0
C25 C 0.64436 0.12601 0.57224 0.0
C26 C 0.7079 0.08468 0.53208 0.0
O27 O 0.70509 0.16265 0.5331 0.0
Mg28 Mg 0.87988 0.69962 0.54682 0.0
O29 O 0.87942 0.67629 0.51377 0.0
O30 O 0.91101 0.65295 0.51545 0.0
Mg31 Mg 0.93186 0.66114 0.5488 0.0
C32 C 0.89228 0.65996 0.5052 0.0
C33 C 0.84099 0.73461 0.5373 0.0
O34 O 0.85971 0.74715 0.5425 0.0
O35 O 0.86733 0.66812 0.56923 0.0
O36 O 0.90109 0.64765 0.57064 0.0
O37 O 0.90303 0.72578 0.52806 0.0
O38 O 0.9165 0.69639 0.54937 0.0
C39 C 0.87963 0.65069 0.57648 0.0
C40 C 0.92083 0.71377 0.53559 0.0
O41 O 0.84255 0.7123 0.53828 0.0
Mg42 Mg 0.30555 0.87398 0.54232 0.0
O43 O 0.3292 0.87454 0.50949 0.0
O44 O 0.35213 0.90636 0.51174 0.0
Mg45 Mg 0.34328 0.92631 0.54545 0.0
C46 C 0.34542 0.88769 0.5012 0.0
C47 C 0.27329 0.83124 0.53886 0.0
O48 O 0.26137 0.84608 0.552 0.0
O49 O 0.33684 0.86145 0.56482 0.0
O50 O 0.35732 0.89515 0.56647 0.0
O51 O 0.27912 0.8968 0.5238 0.0
O52 O 0.30812 0.91054 0.54554 0.0
C53 C 0.35435 0.8736 0.572 0.0
C54 C 0.29077 0.91472 0.53165 0.0
O55 O 0.29403 0.8368 0.53264 0.0
Mg56 Mg 0.12183 0.69074 0.45402 0.0
O57 O 0.12151 0.66786 0.48724 0.0
O58 O 0.08892 0.64598 0.48648 0.0
Mg59 Mg 0.06785 0.65531 0.45345 0.0
C60 C 0.10817 0.65221 0.49626 0.0
C61 C 0.16575 0.72137 0.45503 0.0
O62 O 0.15116 0.73301 0.44138 0.0
O63 O 0.13228 0.65831 0.43198 0.0
O64 O 0.09728 0.64008 0.43081 0.0
O65 O 0.10069 0.71857 0.47262 0.0
O66 O 0.08512 0.68966 0.45206 0.0
C67 C 0.11882 0.64179 0.42473 0.0
C68 C 0.08208 0.70752 0.46559 0.0
O69 O 0.15965 0.70114 0.46233 0.0
Mg70 Mg 0.30704 0.11815 0.45371 0.0
O71 O 0.33036 0.11768 0.48679 0.0
O72 O 0.35206 0.08494 0.48696 0.0
Mg73 Mg 0.34467 0.06538 0.45271 0.0
C74 C 0.3455 0.10421 0.49645 0.0
C75 C 0.28911 0.1599 0.48381 0.0
O76 O 0.29224 0.14337 0.49966 0.0
O77 O 0.33909 0.1302 0.43196 0.0
O78 O 0.35984 0.09659 0.43244 0.0
O79 O 0.28011 0.09553 0.47181 0.0
O80 O 0.3097 0.0815 0.45105 0.0
C81 C 0.35714 0.118 0.42624 0.0
C82 C 0.29193 0.07751 0.46447 0.0
O83 O 0.29469 0.15565 0.46253 0.0
Mg84 Mg 0.87752 0.30908 0.45404 0.0
O85 O 0.87808 0.33223 0.48711 0.0
O86 O 0.91053 0.35429 0.48585 0.0
Mg87 Mg 0.93109 0.34516 0.45246 0.0
C88 C 0.89146 0.34797 0.49591 0.0
C89 C 0.83386 0.27801 0.45569 0.0
O90 O 0.84833 0.26652 0.44178 0.0
O91 O 0.86633 0.34122 0.43192 0.0
O92 O 0.90103 0.36003 0.43046 0.0
O93 O 0.89938 0.28171 0.47255 0.0
O94 O 0.91415 0.31065 0.45143 0.0
C95 C 0.87944 0.35801 0.42463 0.0
C96 C 0.9177 0.29298 0.46507 0.0
O97 O 0.83995 0.29824 0.463 0.0
Mg98 Mg 0.69189 0.88065 0.45552 0.0
O99 O 0.66861 0.88097 0.48867 0.0
O100 O 0.64698 0.91376 0.48911 0.0
Mg101 Mg 0.65406 0.93329 0.45478 0.0
C102 C 0.65357 0.89444 0.49849 0.0
C103 C 0.70992 0.83879 0.48555 0.0
O104 O 0.70645 0.85512 0.50152 0.0
O105 O 0.65983 0.86851 0.43382 0.0
O106 O 0.63888 0.90199 0.43467 0.0
O107 O 0.71877 0.9034 0.47354 0.0
O108 O 0.68905 0.91727 0.45287 0.0
C109 C 0.64164 0.88062 0.42835 0.0
C110 C 0.70686 0.92136 0.46619 0.0
O111 O 0.7045 0.84318 0.46425 0.0
Mg112 Mg 0.54593 0.11967 0.29833 0.0
O113 O 0.51252 0.11799 0.32086 0.0
O114 O 0.51322 0.08447 0.3413 0.0
Mg115 Mg 0.54704 0.06456 0.33198 0.0
C116 C 0.50332 0.10385 0.33566 0.0
C117 C 0.544 0.16473 0.26925 0.0
O118 O 0.55813 0.15102 0.25711 0.0
O119 O 0.56735 0.12954 0.33136 0.0
O120 O 0.56896 0.09394 0.34835 0.0
O121 O 0.52804 0.09891 0.26967 0.0
O122 O 0.54874 0.083 0.29828 0.0
C123 C 0.57473 0.11563 0.34747 0.0
C124 C 0.53545 0.08015 0.28023 0.0
O125 O 0.53676 0.15761 0.28916 0.0
Mg126 Mg 0.88337 0.55064 0.3037 0.0
O127 O 0.88288 0.51752 0.32662 0.0
O128 O 0.91508 0.5177 0.34907 0.0
Mg129 Mg 0.93667 0.55052 0.3401 0.0
C130 C 0.89579 0.50824 0.34247 0.0
C131 C 0.84013 0.54789 0.27202 0.0
O132 O 0.85548 0.55958 0.25927 0.0
O133 O 0.87263 0.57286 0.33588 0.0
O134 O 0.9073 0.57368 0.35473 0.0
O135 O 0.90465 0.53159 0.2763 0.0
O136 O 0.92015 0.55201 0.30534 0.0
C137 C 0.88586 0.58004 0.35261 0.0
C138 C 0.92322 0.53829 0.28763 0.0
O139 O 0.84556 0.54264 0.29306 0.0
Mg140 Mg 0.4541 0.88067 0.29864 0.0
O141 O 0.48751 0.88188 0.32121 0.0
O142 O 0.48704 0.91532 0.34181 0.0
Mg143 Mg 0.45341 0.93557 0.33261 0.0
C144 C 0.49679 0.89589 0.33609 0.0
C145 C 0.45656 0.83653 0.26861 0.0
O146 O 0.44367 0.85118 0.25619 0.0
O147 O 0.43255 0.87078 0.33157 0.0
O148 O 0.43121 0.90628 0.34878 0.0
O149 O 0.47215 0.90144 0.27007 0.0
O150 O 0.45163 0.91737 0.2988 0.0
C151 C 0.42526 0.88464 0.34776 0.0
C152 C 0.4649 0.92021 0.28073 0.0
O153 O 0.46283 0.84269 0.28916 0.0
Mg154 Mg 0.12244 0.45106 0.29988 0.0
O155 O 0.12179 0.4832 0.32417 0.0
O156 O 0.08944 0.48112 0.34633 0.0
Mg157 Mg 0.06886 0.44811 0.33581 0.0
C158 C 0.10848 0.49141 0.34028 0.0
C159 C 0.16626 0.45479 0.26901 0.0
O160 O 0.1519 0.44171 0.25647 0.0
O161 O 0.13364 0.42781 0.33124 0.0
O162 O 0.09882 0.42529 0.34964 0.0
O163 O 0.10078 0.47074 0.27322 0.0
O164 O 0.0857 0.44861 0.30121 0.0
C165 C 0.12043 0.41957 0.3475 0.0
C166 C 0.08235 0.4631 0.28417 0.0
O167 O 0.16005 0.46059 0.28969 0.0
Mg168 Mg 0.54325 0.87773 0.6983 0.0
O169 O 0.50906 0.87807 0.67679 0.0
O170 O 0.5083 0.91073 0.65499 0.0
Mg171 Mg 0.54262 0.93064 0.66122 0.0
C172 C 0.49896 0.89151 0.66191 0.0
C173 C 0.54 0.83488 0.73065 0.0
O174 O 0.5524 0.84999 0.74301 0.0
O175 O 0.56361 0.86596 0.66535 0.0
O176 O 0.56245 0.89971 0.64487 0.0
O177 O 0.52615 0.9001 0.72611 0.0
O178 O 0.54595 0.91432 0.69595 0.0
C179 C 0.56869 0.87826 0.6472 0.0
C180 C 0.53315 0.9182 0.71419 0.0
O181 O 0.53439 0.84031 0.70971 0.0
Mg182 Mg 0.12272 0.54237 0.69742 0.0
O183 O 0.12175 0.50874 0.67518 0.0
O184 O 0.08888 0.50919 0.65371 0.0
Mg185 Mg 0.06868 0.54307 0.66204 0.0
C186 C 0.10809 0.49937 0.66004 0.0
C187 C 0.1675 0.54151 0.72733 0.0
O188 O 0.15393 0.55649 0.73859 0.0
O189 O 0.13353 0.56359 0.66456 0.0
O190 O 0.09857 0.56468 0.64622 0.0
O191 O 0.10097 0.52477 0.72556 0.0
O192 O 0.08612 0.54527 0.69623 0.0
C193 C 0.1202 0.57053 0.64779 0.0
C194 C 0.08261 0.53222 0.71434 0.0
O195 O 0.16039 0.53332 0.70779 0.0
Mg196 Mg 0.45459 0.12055 0.69708 0.0
O197 O 0.48876 0.12053 0.67556 0.0
O198 O 0.48963 0.08802 0.65357 0.0
Mg199 Mg 0.45557 0.06768 0.66002 0.0
C200 C 0.49888 0.10727 0.66053 0.0
C201 C 0.45682 0.16371 0.72911 0.0
O202 O 0.44399 0.14879 0.74126 0.0
O203 O 0.43412 0.13214 0.66417 0.0
O204 O 0.43518 0.09832 0.64382 0.0
O205 O 0.47186 0.0984 0.72494 0.0
O206 O 0.45223 0.08394 0.69479 0.0
C207 C 0.42885 0.11974 0.64616 0.0
C208 C 0.46503 0.08021 0.71306 0.0
O209 O 0.46307 0.15803 0.70842 0.0
Mg210 Mg 0.87934 0.45775 0.69722 0.0
O211 O 0.88009 0.4916 0.67526 0.0
O212 O 0.91242 0.49098 0.65301 0.0
Mg213 Mg 0.93277 0.45709 0.66093 0.0
C214 C 0.89343 0.50091 0.6598 0.0
C215 C 0.83516 0.45876 0.72802 0.0
O216 O 0.84889 0.44375 0.73903 0.0
O217 O 0.86792 0.43682 0.66438 0.0
O218 O 0.90259 0.43561 0.64549 0.0
O219 O 0.9015 0.47494 0.72523 0.0
O220 O 0.91594 0.45478 0.69546 0.0
C221 C 0.88096 0.42988 0.64738 0.0
C222 C 0.9197 0.46759 0.7137 0.0
O223 O 0.84189 0.46688 0.70831 0.0
Mg224 Mg 0.30399 0.54785 0.12016 0.0
O225 O 0.32416 0.51278 0.11938 0.0
O226 O 0.34405 0.51046 0.08558 0.0
Mg227 Mg 0.33895 0.54504 0.0659 0.0
C228 C 0.3377 0.50174 0.10527 0.0
C229 C 0.27265 0.54518 0.16363 0.0
O230 O 0.26019 0.55765 0.14866 0.0
O231 O 0.33814 0.56706 0.13038 0.0
O232 O 0.3575 0.56405 0.0961 0.0
O233 O 0.27469 0.53171 0.0991 0.0
O234 O 0.305 0.55015 0.08346 0.0
C235 C 0.35621 0.57079 0.11748 0.0
C236 C 0.28614 0.53803 0.08047 0.0
O237 O 0.29354 0.53951 0.15799 0.0
Mg238 Mg 0.30157 0.45238 0.88259 0.0
O239 O 0.32488 0.48527 0.88375 0.0
O240 O 0.34504 0.48475 0.91748 0.0
Mg241 Mg 0.33531 0.45124 0.93765 0.0
C242 C 0.33969 0.49443 0.89791 0.0
C243 C 0.27123 0.45584 0.83902 0.0
O244 O 0.25846 0.44404 0.85428 0.0
O245 O 0.33412 0.43018 0.87289 0.0
O246 O 0.35132 0.42884 0.90838 0.0
O247 O 0.27342 0.4713 0.90309 0.0
O248 O 0.30156 0.45017 0.91931 0.0
C249 C 0.35023 0.4228 0.88678 0.0
C250 C 0.28389 0.46403 0.92194 0.0
O251 O 0.29224 0.46107 0.84457 0.0
Mg252 Mg 0.54625 0.30528 0.8779 0.0
O253 O 0.51288 0.32814 0.87883 0.0
O254 O 0.51461 0.35082 0.91084 0.0
Mg255 Mg 0.54874 0.34272 0.93043 0.0
C256 C 0.50418 0.344 0.89216 0.0
C257 C 0.5431 0.27326 0.835 0.0
O258 O 0.55686 0.26162 0.84949 0.0
O259 O 0.56783 0.33717 0.8654 0.0
O260 O 0.5691 0.35756 0.89917 0.0
O261 O 0.52843 0.27831 0.90055 0.0
O262 O 0.54963 0.30767 0.91443 0.0
C263 C 0.57457 0.35485 0.87758 0.0
C264 C 0.53606 0.29002 0.91851 0.0
O265 O 0.53646 0.29381 0.84079 0.0
Mg266 Mg 0.69652 0.54671 0.88228 0.0
O267 O 0.67505 0.51243 0.88179 0.0
O268 O 0.6527 0.5113 0.91408 0.0
Mg269 Mg 0.65807 0.54558 0.93418 0.0
C270 C 0.66003 0.50213 0.89493 0.0
C271 C 0.73038 0.54274 0.8408 0.0
O272 O 0.74273 0.5538 0.85691 0.0
O273 O 0.66392 0.5673 0.86987 0.0
O274 O 0.64237 0.56532 0.90287 0.0
O275 O 0.72375 0.52939 0.90512 0.0
O276 O 0.69326 0.54905 0.91885 0.0
C277 C 0.64529 0.57191 0.88161 0.0
C278 C 0.71139 0.53616 0.923 0.0
O279 O 0.7089 0.53823 0.84507 0.0
Mg280 Mg 0.45251 0.69375 0.87978 0.0
O281 O 0.48795 0.67416 0.88087 0.0
O282 O 0.49003 0.65415 0.91461 0.0
Mg283 Mg 0.4553 0.65889 0.93408 0.0
C284 C 0.49895 0.66067 0.89507 0.0
C285 C 0.45387 0.72471 0.83598 0.0
O286 O 0.4403 0.73648 0.85056 0.0
O287 O 0.43386 0.65935 0.86946 0.0
O288 O 0.4366 0.6401 0.90382 0.0
O289 O 0.46793 0.7234 0.90086 0.0
O290 O 0.44994 0.69279 0.91647 0.0
C291 C 0.43009 0.64129 0.88236 0.0
C292 C 0.46165 0.71191 0.91948 0.0
O293 O 0.46083 0.70434 0.84201 0.0
Mg294 Mg 0.69691 0.45736 0.1261 0.0
O295 O 0.67287 0.48985 0.12502 0.0
O296 O 0.64999 0.4868 0.09323 0.0
Mg297 Mg 0.65962 0.45306 0.07357 0.0
C298 C 0.65651 0.49768 0.11177 0.0
C299 C 0.72843 0.46055 0.16941 0.0
O300 O 0.7398 0.446 0.15548 0.0
O301 O 0.66575 0.43474 0.13875 0.0
O302 O 0.64583 0.43195 0.10479 0.0
O303 O 0.72327 0.476 0.10338 0.0
O304 O 0.69467 0.4538 0.08954 0.0
C305 C 0.64864 0.42684 0.12646 0.0
C306 C 0.71185 0.46794 0.08542 0.0
O307 O 0.70818 0.46767 0.16316 0.0
Mg308 Mg 0.54523 0.69918 0.11786 0.0
O309 O 0.51227 0.67602 0.11645 0.0
O310 O 0.51268 0.65615 0.08255 0.0
Mg311 Mg 0.54631 0.66585 0.06255 0.0
C312 C 0.50302 0.6614 0.10216 0.0
C313 C 0.54357 0.72826 0.1627 0.0
O314 O 0.5574 0.74033 0.14864 0.0
O315 O 0.56734 0.6665 0.12736 0.0
O316 O 0.56863 0.64961 0.09172 0.0
O317 O 0.52641 0.72749 0.09741 0.0
O318 O 0.54763 0.69941 0.08119 0.0
C319 C 0.57469 0.65049 0.11333 0.0
C320 C 0.5338 0.7171 0.07856 0.0
O321 O 0.5364 0.70821 0.1559 0.0
Mg322 Mg 0.45578 0.30698 0.12064 0.0
O323 O 0.49021 0.32824 0.12152 0.0
O324 O 0.49187 0.35047 0.0892 0.0
Mg325 Mg 0.45796 0.34504 0.06852 0.0
C326 C 0.50075 0.3432 0.1085 0.0
C327 C 0.45802 0.27364 0.16262 0.0
O328 O 0.44606 0.26173 0.14682 0.0
O329 O 0.43511 0.33972 0.13247 0.0
O330 O 0.4378 0.36106 0.09939 0.0
O331 O 0.47325 0.27946 0.09831 0.0
O332 O 0.454 0.30998 0.08405 0.0
C333 C 0.43082 0.35832 0.12055 0.0
C334 C 0.4668 0.29171 0.08023 0.0
O335 O 0.46365 0.29478 0.158 0.0
C336 C 0.11756 0.38208 0.36897 0.0
C337 C 0.12965 0.40321 0.36526 0.0
C338 C 0.11982 0.36974 0.39016 0.0
C339 C 0.13426 0.37902 0.4082 0.0
C340 C 0.14847 0.399 0.40353 0.0
C341 C 0.14598 0.41094 0.38197 0.0
C342 C 0.10458 0.34835 0.39419 0.0
C343 C 0.16432 0.40928 0.42216 0.0
C344 C 0.10648 0.37177 0.46826 0.0
C345 C 0.11859 0.35229 0.4774 0.0
C346 C 0.1122 0.38116 0.44622 0.0
C347 C 0.13052 0.37086 0.43281 0.0
C348 C 0.14344 0.35175 0.44221 0.0
C349 C 0.13731 0.34266 0.46442 0.0
C350 C 0.09798 0.40165 0.43693 0.0
C351 C 0.16314 0.34038 0.42851 0.0
H352 H 0.10485 0.37623 0.35599 0.0
H353 H 0.15512 0.42746 0.37916 0.0
H354 H 0.11459 0.3343 0.40329 0.0
H355 H 0.0895 0.35323 0.40561 0.0
H356 H 0.09751 0.34118 0.37744 0.0
H357 H 0.17769 0.42125 0.41443 0.0
H358 H 0.15354 0.41951 0.43483 0.0
H359 H 0.17342 0.39518 0.43214 0.0
H360 H 0.09218 0.37956 0.47818 0.0
H361 H 0.14688 0.32768 0.47135 0.0
H362 H 0.08803 0.39611 0.42108 0.0
H363 H 0.10982 0.41623 0.43163 0.0
H364 H 0.08526 0.40848 0.45011 0.0
H365 H 0.15567 0.3302 0.41364 0.0
H366 H 0.17374 0.32825 0.43959 0.0
H367 H 0.17496 0.35394 0.42092 0.0
C368 C 0.62198 0.10677 0.47121 0.0
C369 C 0.64233 0.11857 0.47865 0.0
C370 C 0.61193 0.11134 0.44918 0.0
C371 C 0.62252 0.12806 0.43403 0.0
C372 C 0.64246 0.1408 0.44178 0.0
C373 C 0.65213 0.13593 0.46404 0.0
C374 C 0.59052 0.09745 0.44171 0.0
C375 C 0.65422 0.15878 0.42617 0.0
C376 C 0.61063 0.11076 0.37124 0.0
C377 C 0.5905 0.12402 0.36618 0.0
C378 C 0.62268 0.11361 0.39251 0.0
C379 C 0.6141 0.12988 0.4093 0.0
C380 C 0.595 0.14483 0.40337 0.0
C381 C 0.58338 0.14175 0.38171 0.0
C382 C 0.64315 0.09751 0.39789 0.0
C383 C 0.58545 0.16251 0.42071 0.0
H384 H 0.61404 0.09358 0.48246 0.0
H385 H 0.66779 0.14525 0.46967 0.0
H386 H 0.5765 0.10947 0.4354 0.0
H387 H 0.59523 0.08563 0.4269 0.0
H388 H 0.5833 0.08654 0.45624 0.0
H389 H 0.66718 0.16963 0.43597 0.0
H390 H 0.66355 0.14965 0.41166 0.0
H391 H 0.64095 0.17058 0.41806 0.0
H392 H 0.61608 0.09704 0.35913 0.0
H393 H 0.56765 0.15184 0.37783 0.0
H394 H 0.63755 0.08401 0.41084 0.0
H395 H 0.65789 0.10752 0.40583 0.0
H396 H 0.64969 0.08836 0.3819 0.0
H397 H 0.57485 0.1532 0.43421 0.0
H398 H 0.57402 0.17576 0.41199 0.0
H399 H 0.59996 0.17174 0.42995 0.0
C400 C 0.8669 0.6578 0.46893 0.0
C401 C 0.88561 0.64893 0.48247 0.0
C402 C 0.86149 0.64813 0.44679 0.0
C403 C 0.87511 0.6292 0.43803 0.0
C404 C 0.89342 0.61966 0.452 0.0
C405 C 0.89843 0.62963 0.47396 0.0
C406 C 0.8418 0.6587 0.43245 0.0
C407 C 0.90836 0.59939 0.44339 0.0
C408 C 0.86074 0.58823 0.3875 0.0
C409 C 0.8769 0.59616 0.3707 0.0
C410 C 0.85813 0.60021 0.40901 0.0
C411 C 0.872 0.62045 0.41354 0.0
C412 C 0.88642 0.62977 0.39551 0.0
C413 C 0.88886 0.61736 0.37437 0.0
C414 C 0.84241 0.58981 0.4277 0.0
C415 C 0.9013 0.65144 0.39941 0.0
H416 H 0.85679 0.67264 0.47536 0.0
H417 H 0.91275 0.62245 0.48431 0.0
H418 H 0.84929 0.66833 0.41721 0.0
H419 H 0.83022 0.64469 0.42535 0.0
H420 H 0.83095 0.67116 0.44291 0.0
H421 H 0.92094 0.59312 0.45697 0.0
H422 H 0.89701 0.58443 0.43807 0.0
H423 H 0.91852 0.60492 0.42767 0.0
H424 H 0.85176 0.57163 0.38472 0.0
H425 H 0.90146 0.62333 0.36134 0.0
H426 H 0.83283 0.60381 0.43734 0.0
H427 H 0.85336 0.58014 0.44066 0.0
H428 H 0.82945 0.57731 0.4201 0.0
H429 H 0.89094 0.66548 0.40814 0.0
H430 H 0.90851 0.65846 0.38265 0.0
H431 H 0.91627 0.64697 0.41113 0.0
C432 C 0.34707 0.86404 0.4638 0.0
C433 C 0.35672 0.88141 0.47851 0.0
C434 C 0.35688 0.85928 0.44157 0.0
C435 C 0.37681 0.87213 0.43397 0.0
C436 C 0.38724 0.88887 0.4492 0.0
C437 C 0.37704 0.89333 0.47119 0.0
C438 C 0.3453 0.8413 0.42586 0.0
C439 C 0.40862 0.90288 0.44188 0.0
C440 C 0.41641 0.85855 0.38196 0.0
C441 C 0.40937 0.87625 0.36636 0.0
C442 C 0.40463 0.85545 0.40354 0.0
C443 C 0.38544 0.87035 0.4093 0.0
C444 C 0.37696 0.8866 0.39244 0.0
C445 C 0.38918 0.88948 0.37127 0.0
C446 C 0.41409 0.83782 0.42096 0.0
C447 C 0.35639 0.90263 0.39765 0.0
H448 H 0.33143 0.85464 0.46932 0.0
H449 H 0.38486 0.90653 0.48252 0.0
H450 H 0.33609 0.85042 0.41126 0.0
H451 H 0.35867 0.82952 0.41787 0.0
H452 H 0.33226 0.83041 0.43554 0.0
H453 H 0.41569 0.9138 0.45647 0.0
H454 H 0.42275 0.89093 0.43566 0.0
H455 H 0.40396 0.91469 0.42705 0.0
H456 H 0.43219 0.8485 0.37821 0.0
H457 H 0.3838 0.90318 0.35911 0.0
H458 H 0.39955 0.82851 0.43006 0.0
H459 H 0.42452 0.84717 0.43456 0.0
H460 H 0.42568 0.82462 0.41235 0.0
H461 H 0.34163 0.89258 0.40549 0.0
H462 H 0.34995 0.91175 0.38161 0.0
H463 H 0.36185 0.91617 0.41062 0.0
C464 C 0.14265 0.57728 0.61093 0.0
C465 C 0.12903 0.58628 0.62936 0.0
C466 C 0.14418 0.58939 0.5894 0.0
C467 C 0.13168 0.61079 0.58644 0.0
C468 C 0.11991 0.62097 0.6059 0.0
C469 C 0.1186 0.60847 0.62709 0.0
C470 C 0.15711 0.57806 0.56917 0.0
C471 C 0.10651 0.64381 0.60365 0.0
C472 C 0.1354 0.64819 0.53097 0.0
C473 C 0.11511 0.64094 0.5188 0.0
C474 C 0.14157 0.63804 0.55268 0.0
C475 C 0.12712 0.62028 0.56245 0.0
C476 C 0.107 0.61249 0.54997 0.0
C477 C 0.10126 0.6229 0.52837 0.0
C478 C 0.16317 0.64674 0.56544 0.0
C479 C 0.0911 0.59354 0.55973 0.0
H480 H 0.15036 0.5599 0.61263 0.0
H481 H 0.10784 0.61521 0.64134 0.0
H482 H 0.14419 0.56969 0.55716 0.0
H483 H 0.16697 0.59139 0.55887 0.0
H484 H 0.16957 0.56431 0.57534 0.0
H485 H 0.10155 0.65112 0.62109 0.0
H486 H 0.11705 0.65712 0.59404 0.0
H487 H 0.09016 0.64074 0.59342 0.0
H488 H 0.14631 0.66204 0.52371 0.0
H489 H 0.08567 0.61701 0.51911 0.0
H490 H 0.17438 0.6317 0.57087 0.0
H491 H 0.15781 0.65614 0.58168 0.0
H492 H 0.17383 0.65891 0.55446 0.0
H493 H 0.10145 0.5775 0.56379 0.0
H494 H 0.07678 0.58872 0.54733 0.0
H495 H 0.083 0.59967 0.5764 0.0
C496 C 0.36896 0.09477 0.5324 0.0
C497 C 0.35594 0.11116 0.51934 0.0
C498 C 0.37933 0.10096 0.55388 0.0
C499 C 0.37685 0.12422 0.56251 0.0
C500 C 0.36362 0.14087 0.54955 0.0
C501 C 0.35323 0.13412 0.52813 0.0
C502 C 0.39307 0.08254 0.56728 0.0
C503 C 0.36076 0.16585 0.55811 0.0
C504 C 0.39013 0.1256 0.62753 0.0
C505 C 0.41442 0.12949 0.62715 0.0
C506 C 0.37694 0.12622 0.60667 0.0
C507 C 0.38849 0.13072 0.58504 0.0
C508 C 0.4126 0.13709 0.58504 0.0
C509 C 0.42536 0.13616 0.60615 0.0
C510 C 0.35129 0.1194 0.6075 0.0
C511 C 0.42552 0.14232 0.56245 0.0
H512 H 0.37102 0.07697 0.52588 0.0
H513 H 0.34326 0.14694 0.51812 0.0
H514 H 0.41164 0.08822 0.56924 0.0
H515 H 0.38567 0.08044 0.58522 0.0
H516 H 0.39284 0.06513 0.5584 0.0
H517 H 0.34887 0.1763 0.54663 0.0
H518 H 0.35364 0.16599 0.57628 0.0
H519 H 0.37819 0.17461 0.55867 0.0
H520 H 0.38184 0.11998 0.64378 0.0
H521 H 0.44428 0.13874 0.60589 0.0
H522 H 0.34936 0.10091 0.60151 0.0
H523 H 0.34068 0.13061 0.59556 0.0
H524 H 0.344 0.12078 0.62559 0.0
H525 H 0.42896 0.12561 0.55295 0.0
H526 H 0.44266 0.15112 0.56576 0.0
H527 H 0.41476 0.15366 0.55076 0.0
C528 C 0.88177 0.39183 0.62685 0.0
C529 C 0.87177 0.41422 0.62904 0.0
C530 C 0.88024 0.3793 0.60568 0.0
C531 C 0.86871 0.38965 0.58618 0.0
C532 C 0.85663 0.41131 0.58907 0.0
C533 C 0.85837 0.42344 0.61057 0.0
C534 C 0.89323 0.35621 0.6035 0.0
C535 C 0.84394 0.42283 0.5688 0.0
C536 C 0.89893 0.37704 0.5281 0.0
C537 C 0.88475 0.35927 0.51851 0.0
C538 C 0.8934 0.3875 0.54973 0.0
C539 C 0.87314 0.38006 0.56221 0.0
C540 C 0.85838 0.36256 0.55243 0.0
C541 C 0.86437 0.35234 0.5307 0.0
C542 C 0.90965 0.40614 0.55951 0.0
C543 C 0.83662 0.35424 0.56518 0.0
H544 H 0.89239 0.38492 0.64113 0.0
H545 H 0.85101 0.44097 0.61221 0.0
H546 H 0.88247 0.34309 0.59388 0.0
H547 H 0.90966 0.35897 0.59331 0.0
H548 H 0.89799 0.34883 0.62097 0.0
H549 H 0.83174 0.43684 0.57492 0.0
H550 H 0.85703 0.43092 0.55679 0.0
H551 H 0.83384 0.40967 0.55853 0.0
H552 H 0.91461 0.38267 0.51884 0.0
H553 H 0.8532 0.33871 0.52342 0.0
H554 H 0.91756 0.39988 0.57622 0.0
H555 H 0.8996 0.42239 0.56352 0.0
H556 H 0.92409 0.41066 0.54714 0.0
H557 H 0.84178 0.34484 0.58149 0.0
H558 H 0.8258 0.3422 0.55423 0.0
H559 H 0.82564 0.36948 0.57052 0.0
C560 C 0.57194 0.86338 0.60662 0.0
C561 C 0.58289 0.86842 0.62806 0.0
C562 C 0.585 0.86254 0.58569 0.0
C563 C 0.60944 0.86739 0.58632 0.0
C564 C 0.62087 0.8702 0.60829 0.0
C565 C 0.60737 0.87071 0.62899 0.0
C566 C 0.57217 0.85908 0.5627 0.0
C567 C 0.64687 0.87538 0.60979 0.0
C568 C 0.64473 0.86407 0.5294 0.0
C569 C 0.64319 0.8874 0.52136 0.0
C570 C 0.63406 0.85719 0.55065 0.0
C571 C 0.62181 0.87409 0.56423 0.0
C572 C 0.6207 0.89776 0.55644 0.0
C573 C 0.63126 0.90406 0.53509 0.0
C574 C 0.63543 0.83178 0.55827 0.0
C575 C 0.6081 0.91646 0.57055 0.0
H576 H 0.55291 0.86202 0.60595 0.0
H577 H 0.6157 0.87508 0.64559 0.0
H578 H 0.57002 0.87635 0.55384 0.0
H579 H 0.58237 0.84752 0.55074 0.0
H580 H 0.55442 0.85132 0.56539 0.0
H581 H 0.65376 0.87268 0.62788 0.0
H582 H 0.65697 0.86414 0.59745 0.0
H583 H 0.65 0.89399 0.60474 0.0
H584 H 0.65387 0.85105 0.51887 0.0
H585 H 0.63017 0.92216 0.52915 0.0
H586 H 0.61758 0.8239 0.5579 0.0
H587 H 0.64191 0.83053 0.57664 0.0
H588 H 0.64716 0.82122 0.54673 0.0
H589 H 0.58915 0.912 0.57204 0.0
H590 H 0.60964 0.9342 0.56247 0.0
H591 H 0.61537 0.91724 0.58864 0.0
C592 C 0.39747 0.1332 0.42144 0.0
C593 C 0.37571 0.12785 0.41129 0.0
C594 C 0.41797 0.13399 0.4077 0.0
C595 C 0.41659 0.12881 0.38335 0.0
C596 C 0.39428 0.12557 0.37272 0.0
C597 C 0.37403 0.1251 0.38689 0.0
C598 C 0.44134 0.13788 0.4197 0.0
C599 C 0.39197 0.12002 0.34686 0.0
C600 C 0.47202 0.13342 0.34589 0.0
C601 C 0.48069 0.11028 0.34702 0.0
C602 C 0.45107 0.1398 0.35743 0.0
C603 C 0.4384 0.12259 0.3702 0.0
C604 C 0.44682 0.09912 0.37098 0.0
C605 C 0.46788 0.0933 0.35951 0.0
C606 C 0.44274 0.165 0.35635 0.0
C607 C 0.43372 0.08012 0.38418 0.0
H608 H 0.39874 0.13486 0.44041 0.0
H609 H 0.3572 0.12045 0.37918 0.0
H610 H 0.45055 0.12076 0.42162 0.0
H611 H 0.45275 0.14956 0.40903 0.0
H612 H 0.43915 0.1457 0.43748 0.0
H613 H 0.37359 0.1222 0.34058 0.0
H614 H 0.40367 0.13144 0.33621 0.0
H615 H 0.39739 0.10151 0.34375 0.0
H616 H 0.48184 0.1467 0.33635 0.0
H617 H 0.4743 0.07536 0.36035 0.0
H618 H 0.44293 0.17275 0.37426 0.0
H619 H 0.42432 0.16577 0.34994 0.0
H620 H 0.45392 0.176 0.34468 0.0
H621 H 0.43279 0.08466 0.40314 0.0
H622 H 0.44222 0.0626 0.38242 0.0
H623 H 0.41539 0.07882 0.37759 0.0
C624 C 0.85813 0.39544 0.41802 0.0
C625 C 0.87031 0.37617 0.40874 0.0
C626 C 0.85724 0.41687 0.40568 0.0
C627 C 0.86897 0.41887 0.38375 0.0
C628 C 0.87908 0.39863 0.37332 0.0
C629 C 0.87976 0.37753 0.38606 0.0
C630 C 0.84603 0.43794 0.4173 0.0
C631 C 0.89162 0.39986 0.34993 0.0
C632 C 0.86713 0.47477 0.34681 0.0
C633 C 0.88824 0.48579 0.35352 0.0
C634 C 0.86019 0.45325 0.3569 0.0
C635 C 0.87472 0.4425 0.374 0.0
C636 C 0.8958 0.45374 0.38112 0.0
C637 C 0.90227 0.47519 0.37083 0.0
C638 C 0.83758 0.44184 0.34893 0.0
C639 C 0.91186 0.44287 0.39933 0.0
H640 H 0.85122 0.39445 0.43578 0.0
H641 H 0.88948 0.36263 0.37911 0.0
H642 H 0.85997 0.44919 0.42506 0.0
H643 H 0.8363 0.44875 0.40428 0.0
H644 H 0.83376 0.43265 0.43157 0.0
H645 H 0.89495 0.38208 0.3425 0.0
H646 H 0.88127 0.41022 0.33704 0.0
H647 H 0.9088 0.40883 0.35228 0.0
H648 H 0.85608 0.48282 0.33352 0.0
H649 H 0.91854 0.48354 0.37624 0.0
H650 H 0.82647 0.43735 0.36434 0.0
H651 H 0.84158 0.42514 0.33964 0.0
H652 H 0.82731 0.45335 0.33691 0.0
H653 H 0.90199 0.43952 0.41583 0.0
H654 H 0.9272 0.45424 0.40348 0.0
H655 H 0.91849 0.42567 0.39289 0.0
C656 C 0.53257 0.90622 0.35948 0.0
C657 C 0.51932 0.88923 0.3475 0.0
C658 C 0.55345 0.90019 0.37116 0.0
C659 C 0.56122 0.87648 0.37113 0.0
C660 C 0.54814 0.85925 0.35881 0.0
C661 C 0.5274 0.86585 0.34702 0.0
C662 C 0.56702 0.91921 0.38384 0.0
C663 C 0.55575 0.83381 0.35856 0.0
C664 C 0.62523 0.87257 0.38896 0.0
C665 C 0.62306 0.87078 0.41341 0.0
C666 C 0.6052 0.87221 0.37446 0.0
C667 C 0.58262 0.87002 0.38482 0.0
C668 C 0.58069 0.86573 0.4093 0.0
C669 C 0.60097 0.86643 0.42336 0.0
C670 C 0.60809 0.87682 0.34848 0.0
C671 C 0.55703 0.86293 0.42103 0.0
H672 H 0.52661 0.92434 0.35978 0.0
H673 H 0.51723 0.85257 0.33787 0.0
H674 H 0.56753 0.91535 0.40296 0.0
H675 H 0.58547 0.91966 0.37747 0.0
H676 H 0.55914 0.93693 0.38131 0.0
H677 H 0.54456 0.82286 0.34686 0.0
H678 H 0.57431 0.83232 0.35268 0.0
H679 H 0.55483 0.82653 0.37665 0.0
H680 H 0.64232 0.87644 0.38138 0.0
H681 H 0.59933 0.86549 0.44235 0.0
H682 H 0.6034 0.89539 0.34468 0.0
H683 H 0.59616 0.86548 0.33802 0.0
H684 H 0.62648 0.87378 0.34258 0.0
H685 H 0.54827 0.88035 0.42219 0.0
H686 H 0.5587 0.85567 0.43911 0.0
H687 H 0.54546 0.8512 0.41058 0.0
C688 C 0.11662 0.62135 0.38668 0.0
C689 C 0.12754 0.6236 0.40861 0.0
C690 C 0.11812 0.60033 0.37389 0.0
C691 C 0.13055 0.58102 0.38356 0.0
C692 C 0.14343 0.58398 0.40472 0.0
C693 C 0.14174 0.60536 0.41708 0.0
C694 C 0.10433 0.59808 0.3513 0.0
C695 C 0.15702 0.56389 0.41551 0.0
C696 C 0.10141 0.52246 0.37069 0.0
C697 C 0.11518 0.51369 0.35218 0.0
C698 C 0.10682 0.54393 0.38155 0.0
C699 C 0.1265 0.55708 0.37373 0.0
C700 C 0.14091 0.54808 0.35554 0.0
C701 C 0.13508 0.52648 0.34496 0.0
C702 C 0.091 0.55285 0.40097 0.0
C703 C 0.16204 0.56157 0.34677 0.0
H704 H 0.10542 0.63546 0.38034 0.0
H705 H 0.14983 0.60704 0.43428 0.0
H706 H 0.11489 0.58902 0.33763 0.0
H707 H 0.08836 0.58731 0.35452 0.0
H708 H 0.0987 0.61549 0.3444 0.0
H709 H 0.16956 0.57013 0.42914 0.0
H710 H 0.14453 0.55145 0.4239 0.0
H711 H 0.1669 0.55403 0.40187 0.0
H712 H 0.08612 0.51269 0.37657 0.0
H713 H 0.14593 0.51985 0.33074 0.0
H714 H 0.08227 0.56938 0.39529 0.0
H715 H 0.10153 0.55697 0.41688 0.0
H716 H 0.07717 0.53993 0.40584 0.0
H717 H 0.15612 0.57782 0.33772 0.0
H718 H 0.17283 0.55108 0.33429 0.0
H719 H 0.17329 0.56706 0.36174 0.0
C720 C 0.36999 0.86717 0.61189 0.0
C721 C 0.37211 0.86341 0.58766 0.0
C722 C 0.38992 0.86684 0.62648 0.0
C723 C 0.41237 0.86282 0.6164 0.0
C724 C 0.41411 0.8564 0.59238 0.0
C725 C 0.3939 0.85697 0.57821 0.0
C726 C 0.38722 0.87358 0.65201 0.0
C727 C 0.43763 0.85169 0.58098 0.0
C728 C 0.46297 0.90032 0.63826 0.0
C729 C 0.4761 0.88425 0.65159 0.0
C730 C 0.442 0.89357 0.62721 0.0
C731 C 0.43393 0.87008 0.62937 0.0
C732 C 0.44678 0.85384 0.64319 0.0
C733 C 0.46771 0.86113 0.65421 0.0
C734 C 0.4287 0.91158 0.61283 0.0
C735 C 0.43876 0.82866 0.64585 0.0
H736 H 0.35314 0.8726 0.61904 0.0
H737 H 0.39551 0.8545 0.55935 0.0
H738 H 0.39893 0.86285 0.66335 0.0
H739 H 0.3923 0.8923 0.65429 0.0
H740 H 0.36877 0.87145 0.65814 0.0
H741 H 0.43565 0.8428 0.56369 0.0
H742 H 0.44692 0.86863 0.57814 0.0
H743 H 0.44886 0.84064 0.5925 0.0
H744 H 0.46916 0.91825 0.63628 0.0
H745 H 0.47777 0.84855 0.66443 0.0
H746 H 0.41033 0.91307 0.61927 0.0
H747 H 0.42792 0.90589 0.59418 0.0
H748 H 0.43696 0.92928 0.61355 0.0
H749 H 0.42005 0.82803 0.65138 0.0
H750 H 0.44952 0.81881 0.65886 0.0
H751 H 0.44001 0.81957 0.62863 0.0
C752 C 0.13765 0.46737 0.65203 0.0
C753 C 0.11489 0.47663 0.64909 0.0
C754 C 0.14439 0.44625 0.64102 0.0
C755 C 0.12795 0.43403 0.62689 0.0
C756 C 0.10487 0.4431 0.62418 0.0
C757 C 0.09868 0.46427 0.63522 0.0
C758 C 0.16916 0.43719 0.64421 0.0
C759 C 0.08667 0.43052 0.60942 0.0
C760 C 0.14086 0.39232 0.57688 0.0
C761 C 0.13356 0.37095 0.58665 0.0
C762 C 0.14165 0.41285 0.59058 0.0
C763 C 0.13452 0.41191 0.61445 0.0
C764 C 0.12947 0.38984 0.62491 0.0
C765 C 0.129 0.36957 0.6108 0.0
C766 C 0.14749 0.43592 0.5788 0.0
C767 C 0.12186 0.38798 0.65028 0.0
H768 H 0.15036 0.47681 0.66266 0.0
H769 H 0.08103 0.47114 0.63293 0.0
H770 H 0.16883 0.41886 0.6509 0.0
H771 H 0.17831 0.43686 0.62697 0.0
H772 H 0.17954 0.44821 0.65657 0.0
H773 H 0.06937 0.43963 0.60955 0.0
H774 H 0.09284 0.42924 0.59095 0.0
H775 H 0.08414 0.41232 0.61601 0.0
H776 H 0.14392 0.3934 0.55807 0.0
H777 H 0.12286 0.35307 0.61819 0.0
H778 H 0.15859 0.44703 0.59039 0.0
H779 H 0.13098 0.44573 0.57526 0.0
H780 H 0.1568 0.43323 0.56182 0.0
H781 H 0.13282 0.39938 0.66171 0.0
H782 H 0.12291 0.36959 0.65682 0.0
H783 H 0.10336 0.39403 0.65191 0.0
C784 C 0.53033 0.13765 0.6536 0.0
C785 C 0.52169 0.11472 0.65021 0.0
C786 C 0.55134 0.14508 0.64284 0.0
C787 C 0.56402 0.1292 0.62846 0.0
C788 C 0.55561 0.10592 0.62537 0.0
C789 C 0.53458 0.09902 0.63621 0.0
C790 C 0.55972 0.17002 0.64647 0.0
C791 C 0.5687 0.08829 0.61035 0.0
C792 C 0.60514 0.14344 0.57843 0.0
C793 C 0.62662 0.13616 0.58796 0.0
C794 C 0.58471 0.1439 0.5923 0.0
C795 C 0.58592 0.13654 0.61609 0.0
C796 C 0.60811 0.13167 0.62635 0.0
C797 C 0.62826 0.13145 0.61206 0.0
C798 C 0.56148 0.14953 0.58073 0.0
C799 C 0.61026 0.1239 0.65164 0.0
H800 H 0.52047 0.14995 0.66434 0.0
H801 H 0.52818 0.08125 0.63358 0.0
H802 H 0.57825 0.17011 0.65259 0.0
H803 H 0.55922 0.17964 0.62949 0.0
H804 H 0.54875 0.1797 0.65943 0.0
H805 H 0.56007 0.07076 0.6102 0.0
H806 H 0.56983 0.09478 0.59198 0.0
H807 H 0.58696 0.08613 0.61692 0.0
H808 H 0.60388 0.14663 0.55965 0.0
H809 H 0.64486 0.12538 0.61927 0.0
H810 H 0.55023 0.16025 0.59254 0.0
H811 H 0.55196 0.1329 0.57697 0.0
H812 H 0.56392 0.15914 0.56389 0.0
H813 H 0.59862 0.13446 0.66322 0.0
H814 H 0.62864 0.12536 0.65812 0.0
H815 H 0.60472 0.10523 0.65313 0.0
C816 C 0.86507 0.53463 0.65486 0.0
C817 C 0.8866 0.52382 0.64916 0.0
C818 C 0.85852 0.55625 0.64471 0.0
C819 C 0.87388 0.56735 0.62857 0.0
C820 C 0.89555 0.55648 0.6227 0.0
C821 C 0.9016 0.53491 0.63301 0.0
C822 C 0.83528 0.56726 0.65133 0.0
C823 C 0.91254 0.56775 0.60561 0.0
C824 C 0.85871 0.61308 0.58273 0.0
C825 C 0.86968 0.63291 0.59232 0.0
C826 C 0.85764 0.5919 0.59545 0.0
C827 C 0.86804 0.59066 0.61809 0.0
C828 C 0.87686 0.6114 0.6287 0.0
C829 C 0.8777 0.63229 0.61558 0.0
C830 C 0.84782 0.57028 0.58358 0.0
C831 C 0.88797 0.61098 0.65282 0.0
H832 H 0.85328 0.5262 0.66725 0.0
H833 H 0.91825 0.52678 0.62844 0.0
H834 H 0.83831 0.58461 0.65976 0.0
H835 H 0.82459 0.57045 0.63532 0.0
H836 H 0.825 0.55606 0.66362 0.0
H837 H 0.92852 0.55686 0.60271 0.0
H838 H 0.90378 0.57061 0.5884 0.0
H839 H 0.91809 0.58522 0.61231 0.0
H840 H 0.85297 0.6135 0.56454 0.0
H841 H 0.88658 0.64758 0.62277 0.0
H842 H 0.83752 0.55949 0.59616 0.0
H843 H 0.86257 0.55927 0.57704 0.0
H844 H 0.83642 0.57493 0.5684 0.0
H845 H 0.87732 0.60032 0.66521 0.0
H846 H 0.89007 0.62898 0.66016 0.0
H847 H 0.90564 0.60274 0.65163 0.0
C848 C 0.34944 0.47242 0.13615 0.0
C849 C 0.34745 0.47863 0.11232 0.0
C850 C 0.36117 0.45171 0.14297 0.0
C851 C 0.37085 0.43682 0.12551 0.0
C852 C 0.3677 0.44238 0.10141 0.0
C853 C 0.3562 0.46327 0.09514 0.0
C854 C 0.36426 0.44646 0.16881 0.0
C855 C 0.37737 0.42678 0.08217 0.0
C856 C 0.42566 0.40004 0.13109 0.0
C857 C 0.41629 0.37731 0.1303 0.0
C858 C 0.41091 0.41977 0.13223 0.0
C859 C 0.38619 0.41658 0.13195 0.0
C860 C 0.37673 0.39355 0.13345 0.0
C861 C 0.39199 0.37407 0.13268 0.0
C862 C 0.42178 0.44398 0.13112 0.0
C863 C 0.35052 0.38937 0.13325 0.0
H864 H 0.34273 0.48425 0.14954 0.0
H865 H 0.35444 0.46779 0.07669 0.0
H866 H 0.36053 0.42767 0.17255 0.0
H867 H 0.38279 0.44985 0.17391 0.0
H868 H 0.35265 0.45756 0.17996 0.0
H869 H 0.37171 0.43257 0.06439 0.0
H870 H 0.39689 0.42693 0.08278 0.0
H871 H 0.37157 0.40834 0.08485 0.0
H872 H 0.44449 0.40244 0.12903 0.0
H873 H 0.38479 0.35643 0.13168 0.0
H874 H 0.41281 0.45616 0.14346 0.0
H875 H 0.41967 0.45121 0.1131 0.0
H876 H 0.44085 0.4436 0.1354 0.0
H877 H 0.34127 0.4023 0.14457 0.0
H878 H 0.34605 0.37132 0.13927 0.0
H879 H 0.34381 0.39161 0.11505 0.0
C880 C 0.39186 0.62285 0.87287 0.0
C881 C 0.41642 0.6213 0.87347 0.0
C882 C 0.37796 0.60241 0.87269 0.0
C883 C 0.38904 0.58005 0.87289 0.0
C884 C 0.41386 0.57858 0.87108 0.0
C885 C 0.42729 0.59927 0.87175 0.0
C886 C 0.3516 0.6048 0.87479 0.0
C887 C 0.42637 0.55514 0.87074 0.0
C888 C 0.36153 0.53097 0.90878 0.0
C889 C 0.35136 0.51681 0.89135 0.0
C890 C 0.37326 0.55186 0.90294 0.0
C891 C 0.37527 0.55862 0.87902 0.0
C892 C 0.36486 0.54454 0.86133 0.0
C893 C 0.35285 0.52387 0.86772 0.0
C894 C 0.38377 0.56657 0.92243 0.0
C895 C 0.36694 0.55098 0.83565 0.0
H896 H 0.38355 0.63994 0.8747 0.0
H897 H 0.44633 0.59817 0.87256 0.0
H898 H 0.3425 0.5921 0.86311 0.0
H899 H 0.34623 0.60079 0.89313 0.0
H900 H 0.34554 0.62287 0.87042 0.0
H901 H 0.44503 0.55693 0.86519 0.0
H902 H 0.426 0.54734 0.88863 0.0
H903 H 0.41739 0.54269 0.85869 0.0
H904 H 0.36026 0.52575 0.92708 0.0
H905 H 0.34513 0.51294 0.85414 0.0
H906 H 0.37715 0.58491 0.92132 0.0
H907 H 0.40319 0.56724 0.92047 0.0
H908 H 0.37959 0.5595 0.94017 0.0
H909 H 0.36068 0.56923 0.83271 0.0
H910 H 0.35676 0.5389 0.82415 0.0
H911 H 0.3857 0.55038 0.83026 0.0
C912 C 0.47308 0.37447 0.89847 0.0
C913 C 0.48122 0.35482 0.88594 0.0
C914 C 0.45101 0.38437 0.89375 0.0
C915 C 0.43652 0.37435 0.87613 0.0
C916 C 0.44487 0.35501 0.86285 0.0
C917 C 0.46716 0.34547 0.86788 0.0
C918 C 0.44286 0.40511 0.90828 0.0
C919 C 0.42994 0.34385 0.84395 0.0
C920 C 0.3731 0.38623 0.89115 0.0
C921 C 0.36881 0.40687 0.87842 0.0
C922 C 0.39435 0.37401 0.88873 0.0
C923 C 0.41191 0.38297 0.87352 0.0
C924 C 0.40681 0.40264 0.85902 0.0
C925 C 0.38515 0.4144 0.86161 0.0
C926 C 0.39885 0.35292 0.90428 0.0
C927 C 0.425 0.41265 0.8425 0.0
H928 H 0.48387 0.38202 0.91225 0.0
H929 H 0.47331 0.33034 0.85803 0.0
H930 H 0.43708 0.41967 0.89664 0.0
H931 H 0.42752 0.39988 0.91917 0.0
H932 H 0.45685 0.41182 0.92016 0.0
H933 H 0.44005 0.33101 0.83322 0.0
H934 H 0.4149 0.33453 0.85219 0.0
H935 H 0.42253 0.35751 0.83212 0.0
H936 H 0.36039 0.38052 0.9042 0.0
H937 H 0.38189 0.43055 0.85199 0.0
H938 H 0.41105 0.35797 0.91866 0.0
H939 H 0.40732 0.33855 0.89416 0.0
H940 H 0.38238 0.3461 0.9123 0.0
H941 H 0.43821 0.42268 0.8528 0.0
H942 H 0.41699 0.42473 0.82938 0.0
H943 H 0.43446 0.3984 0.83308 0.0
C944 C 0.65289 0.47088 0.8644 0.0
C945 C 0.6502 0.4791 0.88756 0.0
C946 C 0.64243 0.44966 0.85711 0.0
C947 C 0.62914 0.43633 0.87341 0.0
C948 C 0.62689 0.44428 0.89694 0.0
C949 C 0.63735 0.46554 0.90367 0.0
C950 C 0.64513 0.4418 0.8319 0.0
C951 C 0.61309 0.43049 0.91501 0.0
C952 C 0.57926 0.39457 0.86089 0.0
C953 C 0.58953 0.37314 0.8673 0.0
C954 C 0.59273 0.41525 0.86009 0.0
C955 C 0.61688 0.41434 0.86624 0.0
C956 C 0.62776 0.39226 0.87021 0.0
C957 C 0.61386 0.37185 0.87079 0.0
C958 C 0.58048 0.43835 0.85545 0.0
C959 C 0.65346 0.39045 0.87666 0.0
H960 H 0.66274 0.48128 0.8518 0.0
H961 H 0.63534 0.4716 0.92163 0.0
H962 H 0.65134 0.4233 0.83116 0.0
H963 H 0.62778 0.44243 0.82298 0.0
H964 H 0.65765 0.45304 0.82195 0.0
H965 H 0.61364 0.43876 0.93271 0.0
H966 H 0.59443 0.42908 0.90945 0.0
H967 H 0.62017 0.41234 0.91644 0.0
H968 H 0.56033 0.39554 0.85862 0.0
H969 H 0.62165 0.35527 0.87617 0.0
H970 H 0.59152 0.44997 0.84432 0.0
H971 H 0.57742 0.44755 0.8724 0.0
H972 H 0.5632 0.43576 0.84668 0.0
H973 H 0.66427 0.40251 0.86579 0.0
H974 H 0.66019 0.37222 0.8745 0.0
H975 H 0.65576 0.39565 0.89534 0.0
C976 C 0.60406 0.57607 0.86894 0.0
C977 C 0.62634 0.58618 0.87141 0.0
C978 C 0.58386 0.59017 0.86756 0.0
C979 C 0.5861 0.61494 0.86931 0.0
C980 C 0.6088 0.62526 0.86949 0.0
C981 C 0.62876 0.61067 0.87051 0.0
C982 C 0.56005 0.57842 0.86691 0.0
C983 C 0.61198 0.65155 0.87127 0.0
C984 C 0.52948 0.65055 0.86471 0.0
C985 C 0.52237 0.65132 0.88836 0.0
C986 C 0.55065 0.6395 0.85814 0.0
C987 C 0.56506 0.62921 0.87566 0.0
C988 C 0.55846 0.63098 0.89964 0.0
C989 C 0.53719 0.64188 0.90566 0.0
C990 C 0.55702 0.6379 0.83242 0.0
C991 C 0.57347 0.62058 0.91898 0.0
H992 H 0.60228 0.55708 0.86993 0.0
H993 H 0.64604 0.61842 0.87285 0.0
H994 H 0.55198 0.57917 0.88467 0.0
H995 H 0.5481 0.5877 0.85458 0.0
H996 H 0.56135 0.55966 0.86154 0.0
H997 H 0.63014 0.65696 0.86643 0.0
H998 H 0.5993 0.66094 0.85978 0.0
H999 H 0.60859 0.6572 0.88965 0.0
H1000 H 0.5181 0.65779 0.85122 0.0
H1001 H 0.53197 0.64267 0.92399 0.0
H1002 H 0.55462 0.61953 0.82629 0.0
H1003 H 0.57578 0.64254 0.82965 0.0
H1004 H 0.54592 0.64961 0.82138 0.0
H1005 H 0.57403 0.60115 0.91715 0.0
H1006 H 0.56669 0.62491 0.93679 0.0
H1007 H 0.59181 0.62712 0.91756 0.0
C1008 C 0.62403 0.52682 0.10626 0.0
C1009 C 0.64484 0.52026 0.11779 0.0
C1010 C 0.61348 0.54871 0.11044 0.0
C1011 C 0.62406 0.56462 0.12644 0.0
C1012 C 0.64449 0.55776 0.13893 0.0
C1013 C 0.65462 0.53561 0.1345 0.0
C1014 C 0.59155 0.55521 0.09688 0.0
C1015 C 0.65627 0.57422 0.15611 0.0
C1016 C 0.61052 0.62672 0.1077 0.0
C1017 C 0.59077 0.63191 0.12148 0.0
C1018 C 0.62294 0.60567 0.11072 0.0
C1019 C 0.61511 0.58921 0.12768 0.0
C1020 C 0.59635 0.59525 0.14301 0.0
C1021 C 0.58438 0.61672 0.13977 0.0
C1022 C 0.64303 0.60016 0.09421 0.0
C1023 C 0.58758 0.57824 0.16138 0.0
H1024 H 0.61611 0.51497 0.09359 0.0
H1025 H 0.67064 0.53067 0.1436 0.0
H1026 H 0.5777 0.56166 0.10903 0.0
H1027 H 0.59561 0.56969 0.08442 0.0
H1028 H 0.58439 0.54014 0.0867 0.0
H1029 H 0.66978 0.56509 0.1669 0.0
H1030 H 0.66494 0.5887 0.14631 0.0
H1031 H 0.64309 0.58233 0.16802 0.0
H1032 H 0.61543 0.63858 0.09358 0.0
H1033 H 0.56894 0.62069 0.15025 0.0
H1034 H 0.63732 0.58666 0.08131 0.0
H1035 H 0.65823 0.59286 0.10404 0.0
H1036 H 0.64896 0.61596 0.08434 0.0
H1037 H 0.57706 0.56427 0.15272 0.0
H1038 H 0.57628 0.58711 0.17465 0.0
H1039 H 0.60249 0.56956 0.17053 0.0
C1040 C 0.37453 0.60904 0.12729 0.0
C1041 C 0.37621 0.5845 0.12633 0.0
C1042 C 0.39491 0.62305 0.12746 0.0
C1043 C 0.41732 0.61209 0.12687 0.0
C1044 C 0.41893 0.58725 0.1283 0.0
C1045 C 0.39831 0.57373 0.12766 0.0
C1046 C 0.39238 0.64943 0.1258 0.0
C1047 C 0.44243 0.57485 0.1282 0.0
C1048 C 0.46622 0.64008 0.09112 0.0
C1049 C 0.48057 0.64984 0.10863 0.0
C1050 C 0.44527 0.62841 0.09689 0.0
C1051 C 0.43865 0.62604 0.12081 0.0
C1052 C 0.45288 0.63609 0.13859 0.0
C1053 C 0.4736 0.64806 0.13227 0.0
C1054 C 0.43039 0.6183 0.07732 0.0
C1055 C 0.44659 0.63362 0.16427 0.0
H1056 H 0.35738 0.61729 0.12576 0.0
H1057 H 0.3995 0.55471 0.12658 0.0
H1058 H 0.40518 0.6584 0.13747 0.0
H1059 H 0.39613 0.6551 0.1075 0.0
H1060 H 0.37433 0.65532 0.1305 0.0
H1061 H 0.44078 0.55607 0.13337 0.0
H1062 H 0.4501 0.57563 0.11026 0.0
H1063 H 0.45493 0.58365 0.14034 0.0
H1064 H 0.47136 0.64161 0.07282 0.0
H1065 H 0.48467 0.65548 0.14591 0.0
H1066 H 0.41206 0.62489 0.07872 0.0
H1067 H 0.42976 0.59885 0.07889 0.0
H1068 H 0.43731 0.62285 0.05961 0.0
H1069 H 0.4283 0.6397 0.16739 0.0
H1070 H 0.45865 0.64376 0.17584 0.0
H1071 H 0.44738 0.6148 0.16941 0.0
C1072 C 0.61008 0.42119 0.14551 0.0
C1073 C 0.63085 0.4113 0.13679 0.0
C1074 C 0.58922 0.40797 0.14631 0.0
C1075 C 0.58931 0.38448 0.13795 0.0
C1076 C 0.61092 0.37371 0.13174 0.0
C1077 C 0.63147 0.38736 0.13108 0.0
C1078 C 0.56665 0.42008 0.15332 0.0
C1079 C 0.6119 0.34867 0.12294 0.0
C1080 C 0.53269 0.34848 0.13877 0.0
C1081 C 0.52374 0.35297 0.11615 0.0
C1082 C 0.55407 0.35849 0.14625 0.0
C1083 C 0.56677 0.37325 0.13073 0.0
C1084 C 0.55796 0.37757 0.10781 0.0
C1085 C 0.53661 0.36743 0.10086 0.0
C1086 C 0.5629 0.35353 0.17079 0.0
C1087 C 0.57101 0.39307 0.09058 0.0
H1088 H 0.60959 0.43985 0.1495 0.0
H1089 H 0.64753 0.37988 0.12396 0.0
H1090 H 0.55675 0.42506 0.13724 0.0
H1091 H 0.55529 0.40815 0.16379 0.0
H1092 H 0.57005 0.4363 0.16368 0.0
H1093 H 0.63009 0.34153 0.12348 0.0
H1094 H 0.60026 0.33709 0.13347 0.0
H1095 H 0.60566 0.34811 0.10445 0.0
H1096 H 0.52286 0.33738 0.15076 0.0
H1097 H 0.52998 0.37095 0.08333 0.0
H1098 H 0.56341 0.37013 0.18105 0.0
H1099 H 0.58114 0.3466 0.17013 0.0
H1100 H 0.55163 0.34068 0.18026 0.0
H1101 H 0.57302 0.41102 0.09797 0.0
H1102 H 0.56184 0.39447 0.07337 0.0
H1103 H 0.58893 0.38597 0.08746 0.0
C1104 C 0.0377 0.29955 0.53222 0.0
C1105 C 0.05626 0.28585 0.52341 0.0
C1106 C 0.01495 0.29767 0.52295 0.0
C1107 C 0.01044 0.2813 0.50476 0.0
C1108 C 0.02875 0.26641 0.49672 0.0
C1109 C 0.05153 0.26896 0.50605 0.0
C1110 C 0.99598 0.31403 0.53192 0.0
C1111 C 0.02448 0.2484 0.47769 0.0
C1112 C 0.94541 0.27176 0.49224 0.0
C1113 C 0.9417 0.28768 0.47375 0.0
C1114 C 0.96801 0.26845 0.50178 0.0
C1115 C 0.98718 0.28159 0.49277 0.0
C1116 C 0.98367 0.29686 0.47343 0.0
C1117 C 0.96105 0.2995 0.46402 0.0
C1118 C 0.9712 0.25162 0.52207 0.0
C1119 C 0.00358 0.31134 0.46338 0.0
H1120 H 0.041 0.31217 0.54609 0.0
H1121 H 0.06571 0.2581 0.49936 0.0
H1122 H 0.99024 0.32593 0.51754 0.0
H1123 H 0.98036 0.30381 0.53761 0.0
H1124 H 0.00207 0.32496 0.54693 0.0
H1125 H 0.0396 0.23618 0.4756 0.0
H1126 H 0.00845 0.23798 0.48164 0.0
H1127 H 0.02148 0.25747 0.46067 0.0
H1128 H 0.93058 0.26235 0.49968 0.0
H1129 H 0.9585 0.31133 0.44931 0.0
H1130 H 0.97466 0.26169 0.53842 0.0
H1131 H 0.98662 0.24004 0.51898 0.0
H1132 H 0.9554 0.24047 0.52491 0.0
H1133 H 0.01002 0.32388 0.47688 0.0
H1134 H 0.99815 0.32151 0.44759 0.0
H1135 H 0.01856 0.29981 0.45851 0.0
C1136 C 0.69966 0.04158 0.53315 0.0
C1137 C 0.71244 0.06043 0.52364 0.0
C1138 C 0.70175 0.01881 0.52394 0.0
C1139 C 0.71746 0.01461 0.50509 0.0
C1140 C 0.73152 0.03324 0.49634 0.0
C1141 C 0.72872 0.05602 0.50562 0.0
C1142 C 0.68627 0.99951 0.53366 0.0
C1143 C 0.74884 0.0293 0.4766 0.0
C1144 C 0.72819 0.94976 0.49252 0.0
C1145 C 0.7117 0.94554 0.47465 0.0
C1146 C 0.73126 0.97249 0.50182 0.0
C1147 C 0.71728 0.99127 0.49324 0.0
C1148 C 0.70137 0.98725 0.47453 0.0
C1149 C 0.69899 0.96453 0.46531 0.0
C1150 C 0.74879 0.97622 0.5214 0.0
C1151 C 0.68598 0.00673 0.46497 0.0
H1152 H 0.68755 0.04464 0.54752 0.0
H1153 H 0.73888 0.07043 0.49837 0.0
H1154 H 0.67395 0.99338 0.51981 0.0
H1155 H 0.6971 0.98418 0.53901 0.0
H1156 H 0.67579 0.00542 0.54907 0.0
H1157 H 0.76061 0.04468 0.47399 0.0
H1158 H 0.75978 0.01352 0.48017 0.0
H1159 H 0.73917 0.02605 0.45997 0.0
H1160 H 0.73829 0.93523 0.49965 0.0
H1161 H 0.68672 0.96161 0.45104 0.0
H1162 H 0.7393 0.97958 0.53812 0.0
H1163 H 0.75986 0.99188 0.51774 0.0
H1164 H 0.76043 0.96071 0.5239 0.0
H1165 H 0.67387 0.013 0.47895 0.0
H1166 H 0.67529 0.00093 0.44967 0.0
H1167 H 0.69692 0.02194 0.4595 0.0
C1168 C 0.94932 0.73394 0.50846 0.0
C1169 C 0.945 0.71791 0.52672 0.0
C1170 C 0.97193 0.73617 0.49864 0.0
C1171 C 0.99045 0.72177 0.50706 0.0
C1172 C 0.98639 0.70639 0.52621 0.0
C1173 C 0.96382 0.7049 0.53598 0.0
C1174 C 0.97575 0.75321 0.47864 0.0
C1175 C 0.00558 0.69055 0.53562 0.0
C1176 C 0.03865 0.70126 0.46598 0.0
C1177 C 0.05833 0.71335 0.47464 0.0
C1178 C 0.01631 0.70449 0.47586 0.0
C1179 C 0.01338 0.72074 0.49449 0.0
C1180 C 0.03286 0.73417 0.50234 0.0
C1181 C 0.05519 0.73018 0.49243 0.0
C1182 C 0.99607 0.68964 0.46709 0.0
C1183 C 0.03028 0.75208 0.52176 0.0
H1184 H 0.93494 0.7443 0.50141 0.0
H1185 H 0.96085 0.69302 0.55057 0.0
H1186 H 0.99203 0.7636 0.48153 0.0
H1187 H 0.97804 0.74331 0.46198 0.0
H1188 H 0.9607 0.76551 0.47651 0.0
H1189 H 0.99985 0.68047 0.55135 0.0
H1190 H 0.01098 0.67787 0.52178 0.0
H1191 H 0.02132 0.70105 0.54036 0.0
H1192 H 0.04072 0.68876 0.45176 0.0
H1193 H 0.07026 0.73983 0.49902 0.0
H1194 H 0.98109 0.70101 0.46189 0.0
H1195 H 0.98981 0.67796 0.48143 0.0
H1196 H 0.00107 0.67853 0.4518 0.0
H1197 H 0.01477 0.7635 0.51852 0.0
H1198 H 0.04616 0.76334 0.5235 0.0
H1199 H 0.02732 0.74293 0.53874 0.0
C1200 C 0.27053 0.04932 0.49096 0.0
C1201 C 0.28707 0.05339 0.4731 0.0
C1202 C 0.26744 0.02667 0.50045 0.0
C1203 C 0.28146 0.00783 0.49209 0.0
C1204 C 0.29744 0.01169 0.47339 0.0
C1205 C 0.29981 0.03433 0.46396 0.0
C1206 C 0.24982 0.02309 0.51999 0.0
C1207 C 0.31288 0.99215 0.46407 0.0
C1208 C 0.2989 0.95785 0.5325 0.0
C1209 C 0.28621 0.93892 0.52306 0.0
C1210 C 0.29685 0.98054 0.52309 0.0
C1211 C 0.28124 0.98459 0.50413 0.0
C1212 C 0.26724 0.96588 0.49546 0.0
C1213 C 0.27001 0.94318 0.50493 0.0
C1214 C 0.31227 0.99993 0.53274 0.0
C1215 C 0.25 0.96966 0.47562 0.0
H1216 H 0.2604 0.06391 0.49793 0.0
H1217 H 0.31211 0.03713 0.44969 0.0
H1218 H 0.23878 0.00739 0.51643 0.0
H1219 H 0.25924 0.01988 0.53678 0.0
H1220 H 0.23816 0.03861 0.52231 0.0
H1221 H 0.32366 0.99783 0.44878 0.0
H1222 H 0.32491 0.98599 0.47816 0.0
H1223 H 0.30198 0.9769 0.45866 0.0
H1224 H 0.31094 0.95491 0.54696 0.0
H1225 H 0.25991 0.9287 0.49773 0.0
H1226 H 0.3014 0.0153 0.53791 0.0
H1227 H 0.32465 0.00596 0.51889 0.0
H1228 H 0.32267 0.99415 0.54824 0.0
H1229 H 0.23906 0.98548 0.47899 0.0
H1230 H 0.23823 0.95426 0.4731 0.0
H1231 H 0.25976 0.97275 0.459 0.0
C1232 C 0.49137 0.94708 0.25758 0.0
C1233 C 0.47362 0.94396 0.27445 0.0
C1234 C 0.50129 0.96942 0.25361 0.0
C1235 C 0.4936 0.98885 0.26722 0.0
C1236 C 0.47483 0.98598 0.2833 0.0
C1237 C 0.46483 0.96369 0.28639 0.0
C1238 C 0.52068 0.97199 0.23566 0.0
C1239 C 0.46622 0.00612 0.2984 0.0
C1240 C 0.53589 0.03666 0.2857 0.0
C1241 C 0.5268 0.05637 0.27396 0.0
C1242 C 0.52591 0.01434 0.28278 0.0
C1243 C 0.50683 0.01143 0.26706 0.0
C1244 C 0.49885 0.03085 0.2536 0.0
C1245 C 0.50877 0.05322 0.2574 0.0
C1246 C 0.53484 0.99421 0.2977 0.0
C1247 C 0.47911 0.02825 0.23604 0.0
H1248 H 0.49799 0.932 0.24795 0.0
H1249 H 0.45053 0.96166 0.29881 0.0
H1250 H 0.5182 0.98825 0.22513 0.0
H1251 H 0.53786 0.97346 0.24478 0.0
H1252 H 0.52146 0.95666 0.22355 0.0
H1253 H 0.45078 0.00119 0.30931 0.0
H1254 H 0.48057 0.01197 0.31029 0.0
H1255 H 0.46132 0.02136 0.28725 0.0
H1256 H 0.55039 0.03873 0.29787 0.0
H1257 H 0.50191 0.06829 0.24794 0.0
H1258 H 0.53947 0.97895 0.28647 0.0
H1259 H 0.52077 0.9884 0.30994 0.0
H1260 H 0.55054 0.99915 0.30824 0.0
H1261 H 0.48137 0.01196 0.22551 0.0
H1262 H 0.47811 0.04355 0.22392 0.0
H1263 H 0.46211 0.02683 0.24551 0.0
C1264 C 0.96647 0.53632 0.29509 0.0
C1265 C 0.94685 0.52857 0.28229 0.0
C1266 C 0.98855 0.52571 0.2923 0.0
C1267 C 0.99132 0.50734 0.27572 0.0
C1268 C 0.97199 0.50047 0.26158 0.0
C1269 C 0.94988 0.51102 0.26519 0.0
C1270 C 0.00862 0.53342 0.30794 0.0
C1271 C 0.97445 0.48142 0.24325 0.0
C1272 C 0.05528 0.49162 0.26392 0.0
C1273 C 0.05856 0.47274 0.27948 0.0
C1274 C 0.03307 0.50225 0.26134 0.0
C1275 C 0.01388 0.49405 0.27498 0.0
C1276 C 0.01689 0.47431 0.28986 0.0
C1277 C 0.03907 0.46371 0.29163 0.0
C1278 C 0.03037 0.52283 0.24478 0.0
C1279 C 0.99699 0.46513 0.30491 0.0
H1280 H 0.96454 0.55036 0.30779 0.0
H1281 H 0.93489 0.50516 0.25497 0.0
H1282 H 0.01414 0.51855 0.31934 0.0
H1283 H 0.02405 0.5385 0.29714 0.0
H1284 H 0.00377 0.54853 0.31936 0.0
H1285 H 0.95884 0.48048 0.23152 0.0
H1286 H 0.99036 0.48445 0.23235 0.0
H1287 H 0.97661 0.46412 0.25203 0.0
H1288 H 0.07017 0.49852 0.2542 0.0
H1289 H 0.04122 0.44866 0.3031 0.0
H1290 H 0.02841 0.5393 0.25507 0.0
H1291 H 0.01427 0.5208 0.23392 0.0
H1292 H 0.04579 0.52476 0.23293 0.0
H1293 H 0.99165 0.47883 0.31777 0.0
H1294 H 0.00194 0.44898 0.31476 0.0
H1295 H 0.98141 0.46115 0.29387 0.0
C1296 C 0.53383 0.96141 0.70676 0.0
C1297 C 0.52461 0.94229 0.71933 0.0
C1298 C 0.5243 0.98402 0.70911 0.0
C1299 C 0.50536 0.98776 0.72483 0.0
C1300 C 0.49697 0.96888 0.73877 0.0
C1301 C 0.50661 0.94627 0.73575 0.0
C1302 C 0.53371 0.00362 0.69379 0.0
C1303 C 0.47713 0.97232 0.75608 0.0
C1304 C 0.49137 0.05238 0.73517 0.0
C1305 C 0.47367 0.0562 0.71839 0.0
C1306 C 0.50101 0.02982 0.73853 0.0
C1307 C 0.49293 0.01081 0.72459 0.0
C1308 C 0.47431 0.0144 0.70846 0.0
C1309 C 0.46477 0.03696 0.70577 0.0
C1310 C 0.5205 0.02655 0.75626 0.0
C1311 C 0.46524 0.99467 0.69313 0.0
H1312 H 0.54817 0.95866 0.69452 0.0
H1313 H 0.49958 0.93163 0.74574 0.0
H1314 H 0.51983 0.00943 0.68134 0.0
H1315 H 0.53855 0.01904 0.70471 0.0
H1316 H 0.54938 0.99811 0.68348 0.0
H1317 H 0.47502 0.95693 0.76795 0.0
H1318 H 0.48019 0.98827 0.76691 0.0
H1319 H 0.4604 0.97498 0.74639 0.0
H1320 H 0.49815 0.0671 0.7452 0.0
H1321 H 0.45064 0.03959 0.69325 0.0
H1322 H 0.53742 0.02378 0.74693 0.0
H1323 H 0.51722 0.01071 0.7672 0.0
H1324 H 0.52239 0.04206 0.76801 0.0
H1325 H 0.4794 0.98872 0.68105 0.0
H1326 H 0.44982 1.00007 0.6824 0.0
H1327 H 0.46014 0.97935 0.70408 0.0
C1328 C 0.948 0.4928 0.73653 0.0
C1329 C 0.94388 0.47549 0.71943 0.0
C1330 C 0.97077 0.50178 0.74023 0.0
C1331 C 0.98966 0.4935 0.72622 0.0
C1332 C 0.98575 0.4752 0.70982 0.0
C1333 C 0.963 0.46623 0.70687 0.0
C1334 C 0.9744 0.52082 0.75836 0.0
C1335 C 0.00532 0.46597 0.69434 0.0
C1336 C 0.03926 0.53392 0.70819 0.0
C1337 C 0.05852 0.52409 0.72009 0.0
C1338 C 0.01657 0.52478 0.7109 0.0
C1339 C 0.01284 0.50566 0.7264 0.0
C1340 C 0.03187 0.49674 0.73982 0.0
C1341 C 0.0546 0.50596 0.73637 0.0
C1342 C 0.99684 0.53472 0.69608 0.0
C1343 C 0.02845 0.4768 0.757 0.0
H1344 H 0.93337 0.4998 0.74657 0.0
H1345 H 0.96016 0.45233 0.69417 0.0
H1346 H 0.99041 0.51724 0.76895 0.0
H1347 H 0.97703 0.53796 0.74939 0.0
H1348 H 0.95908 0.52247 0.77039 0.0
H1349 H 0.99963 0.45082 0.68339 0.0
H1350 H 0.01152 0.48019 0.68247 0.0
H1351 H 0.02053 0.4604 0.70521 0.0
H1352 H 0.04198 0.54842 0.69614 0.0
H1353 H 0.06934 0.49849 0.74588 0.0
H1354 H 0.98172 0.53972 0.70735 0.0
H1355 H 0.99055 0.5211 0.68359 0.0
H1356 H 0.00241 0.55041 0.68584 0.0
H1357 H 0.01249 0.47976 0.76786 0.0
H1358 H 0.04385 0.47463 0.76884 0.0
H1359 H 0.02585 0.46012 0.7472 0.0
C1360 C 0.28949 0.4645 0.96541 0.0
C1361 C 0.27805 0.47352 0.9455 0.0
C1362 C 0.28699 0.47515 0.98747 0.0
C1363 C 0.27204 0.49492 0.9899 0.0
C1364 C 0.25893 0.50299 0.97029 0.0
C1365 C 0.26226 0.49232 0.94821 0.0
C1366 C 0.30149 0.46609 0.00784 0.0
C1367 C 0.24224 0.52354 0.97239 0.0
C1368 C 0.2623 0.5121 0.05375 0.0
C1369 C 0.27986 0.52918 0.05678 0.0
C1370 C 0.2583 0.50185 0.03158 0.0
C1371 C 0.27252 0.50855 0.01223 0.0
C1372 C 0.28934 0.52669 0.01498 0.0
C1373 C 0.29252 0.537 0.03711 0.0
C1374 C 0.23967 0.4831 0.02914 0.0
C1375 C 0.30505 0.53424 0.99489 0.0
H1376 H 0.30109 0.44948 0.96369 0.0
H1377 H 0.25307 0.49918 0.93298 0.0
H1378 H 0.31429 0.47977 0.01336 0.0
H1379 H 0.29004 0.4623 0.02317 0.0
H1380 H 0.31139 0.44985 0.0033 0.0
H1381 H 0.23043 0.52495 0.95688 0.0
H1382 H 0.23135 0.52194 0.98851 0.0
H1383 H 0.25245 0.54011 0.97384 0.0
H1384 H 0.25217 0.50621 0.06879 0.0
H1385 H 0.30557 0.55074 0.03909 0.0
H1386 H 0.24819 0.46558 0.02787 0.0
H1387 H 0.22931 0.48578 0.01282 0.0
H1388 H 0.22748 0.48291 0.04442 0.0
H1389 H 0.31654 0.51935 0.98961 0.0
H1390 H 0.31641 0.54942 0.99963 0.0
H1391 H 0.29432 0.53913 0.97935 0.0
C1392 C 0.53684 0.29782 0.96169 0.0
C1393 C 0.52741 0.28531 0.94264 0.0
C1394 C 0.52724 0.29575 0.98429 0.0
C1395 C 0.50801 0.2804 0.98809 0.0
C1396 C 0.49937 0.26655 0.96927 0.0
C1397 C 0.50909 0.26927 0.94668 0.0
C1398 C 0.53692 0.31095 0.00384 0.0
C1399 C 0.4792 0.24964 0.97276 0.0
C1400 C 0.49341 0.26982 0.05252 0.0
C1401 C 0.47582 0.28673 0.0563 0.0
C1402 C 0.50331 0.26662 0.03006 0.0
C1403 C 0.4956 0.28087 0.01112 0.0
C1404 C 0.47717 0.29723 0.01467 0.0
C1405 C 0.46736 0.29977 0.03713 0.0
C1406 C 0.52261 0.24865 0.02682 0.0
C1407 C 0.46849 0.31287 0.99499 0.0
H1408 H 0.55141 0.30976 0.95889 0.0
H1409 H 0.50188 0.25933 0.9321 0.0
H1410 H 0.52328 0.32371 0.00957 0.0
H1411 H 0.54151 0.29999 0.01931 0.0
H1412 H 0.5528 0.32093 0.99832 0.0
H1413 H 0.47675 0.23787 0.95735 0.0
H1414 H 0.48213 0.23869 0.98865 0.0
H1415 H 0.46268 0.25967 0.97555 0.0
H1416 H 0.49986 0.25949 0.06719 0.0
H1417 H 0.45335 0.31242 0.03972 0.0
H1418 H 0.53961 0.25778 0.02389 0.0
H1419 H 0.51911 0.23767 0.01106 0.0
H1420 H 0.52446 0.23696 0.04237 0.0
H1421 H 0.48293 0.32464 0.98911 0.0
H1422 H 0.4533 0.32393 0.0004 0.0
H1423 H 0.46317 0.30209 0.97963 0.0
C1424 C 0.70281 0.53603 0.96602 0.0
C1425 C 0.71603 0.52733 0.94708 0.0
C1426 C 0.70499 0.52639 0.98859 0.0
C1427 C 0.72121 0.50791 0.99251 0.0
C1428 C 0.73564 0.49994 0.97381 0.0
C1429 C 0.73277 0.50967 0.95122 0.0
C1430 C 0.68915 0.53531 0.008 0.0
C1431 C 0.75347 0.4806 0.97745 0.0
C1432 C 0.73239 0.49498 0.05716 0.0
C1433 C 0.71643 0.47661 0.06126 0.0
C1434 C 0.73517 0.50457 0.03452 0.0
C1435 C 0.72143 0.49577 0.0157 0.0
C1436 C 0.70607 0.47656 0.01957 0.0
C1437 C 0.70398 0.46706 0.04222 0.0
C1438 C 0.7521 0.52472 0.03096 0.0
C1439 C 0.69096 0.46674 1.00003 0.0
H1440 H 0.69029 0.55011 0.96316 0.0
H1441 H 0.74324 0.50302 0.93673 0.0
H1442 H 0.67729 0.52096 0.01391 0.0
H1443 H 0.69977 0.5408 0.02341 0.0
H1444 H 0.67817 0.55046 0.00229 0.0
H1445 H 0.76527 0.47846 0.96201 0.0
H1446 H 0.76436 0.48427 0.99323 0.0
H1447 H 0.74424 0.46369 0.98056 0.0
H1448 H 0.74229 0.50228 0.07172 0.0
H1449 H 0.69211 0.45244 0.04505 0.0
H1450 H 0.74209 0.54117 0.02775 0.0
H1451 H 0.76327 0.52153 0.01526 0.0
H1452 H 0.76366 0.52743 0.04648 0.0
H1453 H 0.67835 0.48039 0.99402 0.0
H1454 H 0.68082 0.451 0.00566 0.0
H1455 H 0.70201 0.46187 0.98471 0.0
C1456 C 0.46253 0.70573 0.9629 0.0
C1457 C 0.47001 0.71862 0.94324 0.0
C1458 C 0.47243 0.70949 0.98512 0.0
C1459 C 0.48978 0.72712 0.98797 0.0
C1460 C 0.49605 0.74152 0.96863 0.0
C1461 C 0.48625 0.73695 0.94637 0.0
C1462 C 0.46537 0.69356 0.00521 0.0
C1463 C 0.51391 0.76099 0.97117 0.0
C1464 C 0.50509 0.73797 0.05213 0.0
C1465 C 0.52443 0.72289 0.05495 0.0
C1466 C 0.49449 0.74095 0.02995 0.0
C1467 C 0.50323 0.7282 0.01039 0.0
C1468 C 0.52357 0.71407 0.01294 0.0
C1469 C 0.53409 0.7119 0.03509 0.0
C1470 C 0.47329 0.75678 0.02773 0.0
C1471 C 0.53339 0.69999 0.99262 0.0
H1472 H 0.4494 0.69209 0.96084 0.0
H1473 H 0.49184 0.74727 0.93134 0.0
H1474 H 0.48068 0.68273 0.01067 0.0
H1475 H 0.45989 0.70413 0.02066 0.0
H1476 H 0.45072 0.68155 0.00038 0.0
H1477 H 0.51365 0.77316 0.95587 0.0
H1478 H 0.51064 0.77125 0.98745 0.0
H1479 H 0.53179 0.75328 0.97257 0.0
H1480 H 0.49772 0.74681 0.06734 0.0
H1481 H 0.54951 0.70084 0.03694 0.0
H1482 H 0.45715 0.7459 0.02638 0.0
H1483 H 0.47444 0.76761 0.01152 0.0
H1484 H 0.47142 0.76865 0.04314 0.0
H1485 H 0.52032 0.6866 0.98702 0.0
H1486 H 0.55002 0.69081 0.99726 0.0
H1487 H 0.53677 0.7116 0.97732 0.0
C1488 C 0.20261 0.26633 0.52299 0.0
C1489 C 0.18137 0.25435 0.52692 0.0
C1490 C 0.22286 0.25418 0.5154 0.0
C1491 C 0.22171 0.22958 0.5115 0.0
C1492 C 0.20026 0.21751 0.51531 0.0
C1493 C 0.18047 0.22999 0.52304 0.0
C1494 C 0.24547 0.26759 0.51171 0.0
C1495 C 0.19818 0.1913 0.51127 0.0
C1496 C 0.26339 0.19418 0.47324 0.0
C1497 C 0.27573 0.18132 0.49031 0.0
C1498 C 0.24687 0.2114 0.47982 0.0
C1499 C 0.24283 0.21596 0.504 0.0
C1500 C 0.25678 0.20449 0.52116 0.0
C1501 C 0.27297 0.18723 0.5141 0.0
C1502 C 0.23238 0.22324 0.46098 0.0
C1503 C 0.25332 0.20905 0.54709 0.0
H1504 H 0.20345 0.28515 0.52593 0.0
H1505 H 0.16414 0.22055 0.52589 0.0
H1506 H 0.25932 0.26058 0.52355 0.0
H1507 H 0.25178 0.26515 0.49341 0.0
H1508 H 0.24338 0.28672 0.51514 0.0
H1509 H 0.18007 0.18468 0.51445 0.0
H1510 H 0.20324 0.18695 0.49292 0.0
H1511 H 0.21042 0.18175 0.52311 0.0
H1512 H 0.26547 0.18976 0.45481 0.0
H1513 H 0.28272 0.1776 0.52738 0.0
H1514 H 0.2308 0.24238 0.46445 0.0
H1515 H 0.21434 0.21576 0.46106 0.0
H1516 H 0.24004 0.22066 0.44318 0.0
H1517 H 0.25203 0.2282 0.55062 0.0
H1518 H 0.26788 0.20163 0.55783 0.0
H1519 H 0.23659 0.20086 0.55294 0.0
C1520 C 0.76156 0.19327 0.53499 0.0
C1521 C 0.73808 0.18865 0.52897 0.0
C1522 C 0.77459 0.21054 0.52314 0.0
C1523 C 0.76388 0.22365 0.50486 0.0
C1524 C 0.73977 0.22011 0.49965 0.0
C1525 C 0.72715 0.20259 0.51175 0.0
C1526 C 0.80024 0.2138 0.52932 0.0
C1527 C 0.72765 0.23393 0.4805 0.0
C1528 C 0.80019 0.2759 0.48427 0.0
C1529 C 0.81309 0.26583 0.46576 0.0
C1530 C 0.783 0.26286 0.49637 0.0
C1531 C 0.7787 0.2392 0.48984 0.0
C1532 C 0.7906 0.22949 0.47022 0.0
C1533 C 0.80758 0.24293 0.45841 0.0
C1534 C 0.77045 0.27394 0.51698 0.0
C1535 C 0.78649 0.20436 0.46258 0.0
H1536 H 0.77013 0.18276 0.5484 0.0
H1537 H 0.70897 0.19923 0.50705 0.0
H1538 H 0.81136 0.2081 0.51431 0.0
H1539 H 0.80408 0.23265 0.5326 0.0
H1540 H 0.80544 0.20353 0.54511 0.0
H1541 H 0.70825 0.23152 0.48086 0.0
H1542 H 0.73166 0.25296 0.48216 0.0
H1543 H 0.73426 0.22808 0.46309 0.0
H1544 H 0.80422 0.29364 0.49001 0.0
H1545 H 0.81727 0.23505 0.44399 0.0
H1546 H 0.77719 0.26623 0.53359 0.0
H1547 H 0.7513 0.27024 0.51618 0.0
H1548 H 0.7731 0.2933 0.51763 0.0
H1549 H 0.793 0.19219 0.4764 0.0
H1550 H 0.7956 0.20012 0.44582 0.0
H1551 H 0.7674 0.20097 0.46033 0.0
C1552 C 0.7984 0.73405 0.52485 0.0
C1553 C 0.81921 0.7466 0.52932 0.0
C1554 C 0.77796 0.74569 0.51701 0.0
C1555 C 0.77845 0.77036 0.5134 0.0
C1556 C 0.79946 0.783 0.51773 0.0
C1557 C 0.81947 0.77102 0.52569 0.0
C1558 C 0.75582 0.73167 0.51274 0.0
C1559 C 0.80084 0.80931 0.51403 0.0
C1560 C 0.73652 0.80519 0.47491 0.0
C1561 C 0.72359 0.81752 0.49194 0.0
C1562 C 0.75333 0.78828 0.48154 0.0
C1563 C 0.75707 0.78347 0.50572 0.0
C1564 C 0.74253 0.79433 0.52278 0.0
C1565 C 0.72606 0.8113 0.5157 0.0
C1566 C 0.76843 0.77709 0.46278 0.0
C1567 C 0.74565 0.78948 0.54871 0.0
H1568 H 0.79806 0.71518 0.52758 0.0
H1569 H 0.83545 0.78089 0.52895 0.0
H1570 H 0.74158 0.73807 0.52446 0.0
H1571 H 0.74973 0.73422 0.49437 0.0
H1572 H 0.75843 0.71256 0.51591 0.0
H1573 H 0.8187 0.81641 0.5176 0.0
H1574 H 0.79597 0.81375 0.49566 0.0
H1575 H 0.78814 0.81835 0.52578 0.0
H1576 H 0.73466 0.80985 0.45651 0.0
H1577 H 0.71587 0.82052 0.52894 0.0
H1578 H 0.77053 0.75796 0.46606 0.0
H1579 H 0.78624 0.78508 0.46322 0.0
H1580 H 0.76097 0.77965 0.4449 0.0
H1581 H 0.74743 0.77032 0.552 0.0
H1582 H 0.73069 0.79632 0.55929 0.0
H1583 H 0.76203 0.79805 0.55498 0.0
C1584 C 0.19209 0.75639 0.45778 0.0
C1585 C 0.18664 0.73343 0.46499 0.0
C1586 C 0.20909 0.76977 0.46964 0.0
C1587 C 0.22107 0.75992 0.48913 0.0
C1588 C 0.21686 0.73619 0.49548 0.0
C1589 C 0.19964 0.72321 0.48335 0.0
C1590 C 0.2131 0.79498 0.46221 0.0
C1591 C 0.22952 0.72495 0.51594 0.0
C1592 C 0.27237 0.7967 0.51127 0.0
C1593 C 0.26134 0.81043 0.5286 0.0
C1594 C 0.25987 0.77917 0.49907 0.0
C1595 C 0.2358 0.7754 0.50429 0.0
C1596 C 0.22501 0.78828 0.52269 0.0
C1597 C 0.23792 0.80556 0.53464 0.0
C1598 C 0.27208 0.76558 0.4798 0.0
C1599 C 0.1994 0.78477 0.52888 0.0
H1600 H 0.18232 0.76438 0.44348 0.0
H1601 H 0.19566 0.70543 0.48897 0.0
H1602 H 0.20654 0.807 0.47613 0.0
H1603 H 0.23216 0.79846 0.45997 0.0
H1604 H 0.20395 0.79932 0.44549 0.0
H1605 H 0.22703 0.70557 0.51634 0.0
H1606 H 0.24863 0.72883 0.51518 0.0
H1607 H 0.2227 0.73238 0.53265 0.0
H1608 H 0.29051 0.80025 0.50655 0.0
H1609 H 0.22929 0.81591 0.54814 0.0
H1610 H 0.26548 0.77158 0.46244 0.0
H1611 H 0.26813 0.74652 0.48128 0.0
H1612 H 0.29147 0.76805 0.48023 0.0
H1613 H 0.18821 0.79052 0.51395 0.0
H1614 H 0.19415 0.79488 0.54477 0.0
H1615 H 0.1957 0.76587 0.53202 0.0
C1616 C 0.51454 0.1977 0.26853 0.0
C1617 C 0.53345 0.18579 0.25798 0.0
C1618 C 0.50192 0.21502 0.25616 0.0
C1619 C 0.50833 0.22045 0.23271 0.0
C1620 C 0.52835 0.20961 0.22259 0.0
C1621 C 0.54068 0.19247 0.23535 0.0
C1622 C 0.48089 0.22644 0.26769 0.0
C1623 C 0.53588 0.21497 0.19767 0.0
C1624 C 0.46281 0.23755 0.18718 0.0
C1625 C 0.46812 0.26133 0.1833 0.0
C1626 C 0.47495 0.22439 0.20415 0.0
C1627 C 0.49279 0.23528 0.2177 0.0
C1628 C 0.49716 0.25966 0.21499 0.0
C1629 C 0.4848 0.27241 0.19776 0.0
C1630 C 0.46964 0.19845 0.20653 0.0
C1631 C 0.5158 0.27197 0.22933 0.0
H1632 H 0.5089 0.19276 0.28607 0.0
H1633 H 0.5554 0.18355 0.22713 0.0
H1634 H 0.48095 0.24572 0.2646 0.0
H1635 H 0.46451 0.21932 0.25982 0.0
H1636 H 0.48041 0.22313 0.28695 0.0
H1637 H 0.55297 0.20663 0.19314 0.0
H1638 H 0.52233 0.20845 0.18522 0.0
H1639 H 0.53745 0.23424 0.19503 0.0
H1640 H 0.44981 0.22887 0.17625 0.0
H1641 H 0.48894 0.29082 0.19499 0.0
H1642 H 0.46649 0.19384 0.22523 0.0
H1643 H 0.48501 0.18804 0.20046 0.0
H1644 H 0.45402 0.19309 0.19608 0.0
H1645 H 0.51433 0.26709 0.24817 0.0
H1646 H 0.51461 0.29142 0.22773 0.0
H1647 H 0.53347 0.26635 0.22322 0.0
C1648 C 0.80493 0.52117 0.27267 0.0
C1649 C 0.81894 0.53768 0.26075 0.0
C1650 C 0.78715 0.50869 0.26084 0.0
C1651 C 0.78338 0.51277 0.23656 0.0
C1652 C 0.79649 0.53043 0.22485 0.0
C1653 C 0.81404 0.54269 0.2371 0.0
C1654 C 0.77333 0.49023 0.27401 0.0
C1655 C 0.79298 0.53544 0.19899 0.0
C1656 C 0.76368 0.46433 0.19532 0.0
C1657 C 0.74076 0.47149 0.18963 0.0
C1658 C 0.77727 0.4769 0.21162 0.0
C1659 C 0.76769 0.4971 0.22262 0.0
C1660 C 0.74401 0.5035 0.2182 0.0
C1661 C 0.73081 0.49063 0.2017 0.0
C1662 C 0.80241 0.46938 0.21592 0.0
C1663 C 0.73306 0.52472 0.22981 0.0
H1664 H 0.8085 0.51726 0.29098 0.0
H1665 H 0.82461 0.55555 0.22779 0.0
H1666 H 0.75428 0.49174 0.26999 0.0
H1667 H 0.77912 0.47248 0.2683 0.0
H1668 H 0.77583 0.49161 0.29334 0.0
H1669 H 0.80322 0.55096 0.19297 0.0
H1670 H 0.79857 0.51992 0.18852 0.0
H1671 H 0.77409 0.53857 0.19517 0.0
H1672 H 0.77145 0.44944 0.18627 0.0
H1673 H 0.71306 0.49623 0.19753 0.0
H1674 H 0.80593 0.46804 0.23506 0.0
H1675 H 0.81456 0.48284 0.20867 0.0
H1676 H 0.80654 0.45218 0.20759 0.0
H1677 H 0.73698 0.52488 0.24893 0.0
H1678 H 0.71368 0.52525 0.22734 0.0
H1679 H 0.74069 0.54098 0.22215 0.0
C1680 C 0.51477 0.72903 0.19624 0.0
C1681 C 0.53314 0.73977 0.18367 0.0
C1682 C 0.50211 0.74156 0.21342 0.0
C1683 C 0.50788 0.76536 0.21799 0.0
C1684 C 0.52742 0.7757 0.20652 0.0
C1685 C 0.53985 0.76276 0.18959 0.0
C1686 C 0.48167 0.72977 0.22559 0.0
C1687 C 0.53426 0.80102 0.21091 0.0
C1688 C 0.46127 0.81025 0.23377 0.0
C1689 C 0.4669 0.81544 0.25722 0.0
C1690 C 0.47366 0.793 0.22122 0.0
C1691 C 0.49204 0.78045 0.23242 0.0
C1692 C 0.4967 0.78438 0.25657 0.0
C1693 C 0.48411 0.80192 0.2687 0.0
C1694 C 0.46805 0.78933 0.1955 0.0
C1695 C 0.51586 0.77107 0.26924 0.0
H1696 H 0.50956 0.71121 0.19192 0.0
H1697 H 0.55416 0.77114 0.18017 0.0
H1698 H 0.48181 0.73371 0.24471 0.0
H1699 H 0.46492 0.73669 0.21832 0.0
H1700 H 0.48191 0.71037 0.22314 0.0
H1701 H 0.55107 0.80578 0.20215 0.0
H1702 H 0.52022 0.81282 0.20419 0.0
H1703 H 0.53604 0.80437 0.23005 0.0
H1704 H 0.44786 0.82042 0.2248 0.0
H1705 H 0.48848 0.80568 0.28687 0.0
H1706 H 0.46539 0.77037 0.19176 0.0
H1707 H 0.48309 0.79538 0.18461 0.0
H1708 H 0.45206 0.7991 0.18993 0.0
H1709 H 0.51498 0.75202 0.26504 0.0
H1710 H 0.51473 0.77332 0.28863 0.0
H1711 H 0.53329 0.77755 0.26331 0.0
C1712 C 0.19282 0.46002 0.23443 0.0
C1713 C 0.187 0.46586 0.25768 0.0
C1714 C 0.20969 0.47292 0.22188 0.0
C1715 C 0.22115 0.49212 0.23286 0.0
C1716 C 0.21657 0.49711 0.25683 0.0
C1717 C 0.1995 0.48393 0.26897 0.0
C1718 C 0.21414 0.46689 0.19638 0.0
C1719 C 0.22865 0.51722 0.26926 0.0
C1720 C 0.27231 0.51679 0.19754 0.0
C1721 C 0.26102 0.53439 0.18436 0.0
C1722 C 0.25995 0.50373 0.21454 0.0
C1723 C 0.23576 0.50834 0.21835 0.0
C1724 C 0.22474 0.52711 0.20621 0.0
C1725 C 0.2375 0.53992 0.18944 0.0
C1726 C 0.27242 0.4841 0.22737 0.0
C1727 C 0.199 0.53272 0.20982 0.0
H1728 H 0.18344 0.44595 0.22561 0.0
H1729 H 0.19523 0.48851 0.28699 0.0
H1730 H 0.20749 0.48132 0.18502 0.0
H1731 H 0.23328 0.46516 0.19303 0.0
H1732 H 0.20534 0.45027 0.19105 0.0
H1733 H 0.22598 0.51653 0.28861 0.0
H1734 H 0.24781 0.51711 0.26552 0.0
H1735 H 0.22151 0.53416 0.26267 0.0
H1736 H 0.29052 0.51246 0.19384 0.0
H1737 H 0.22867 0.55363 0.17953 0.0
H1738 H 0.26638 0.4669 0.22038 0.0
H1739 H 0.26813 0.4845 0.2464 0.0
H1740 H 0.29183 0.48513 0.22524 0.0
H1741 H 0.18811 0.51795 0.20314 0.0
H1742 H 0.1936 0.54907 0.20056 0.0
H1743 H 0.19507 0.53474 0.22882 0.0
C1744 C 0.48287 0.72657 0.80267 0.0
C1745 C 0.46425 0.73679 0.8153 0.0
C1746 C 0.49543 0.73958 0.78578 0.0
C1747 C 0.48924 0.76334 0.78152 0.0
C1748 C 0.46948 0.77319 0.79307 0.0
C1749 C 0.45722 0.7598 0.80977 0.0
C1750 C 0.51617 0.72834 0.77359 0.0
C1751 C 0.46218 0.79843 0.78896 0.0
C1752 C 0.53512 0.80902 0.76581 0.0
C1753 C 0.52962 0.81395 0.74228 0.0
C1754 C 0.5229 0.79168 0.7784 0.0
C1755 C 0.50475 0.77883 0.76717 0.0
C1756 C 0.50011 0.78264 0.74299 0.0
C1757 C 0.51258 0.80021 0.73082 0.0
C1758 C 0.52851 0.7881 0.80413 0.0
C1759 C 0.48111 0.7691 0.73032 0.0
H1760 H 0.48837 0.70876 0.80673 0.0
H1761 H 0.44271 0.76778 0.81925 0.0
H1762 H 0.51588 0.73228 0.75448 0.0
H1763 H 0.53273 0.73572 0.78082 0.0
H1764 H 0.51648 0.70894 0.77604 0.0
H1765 H 0.44525 0.80277 0.79771 0.0
H1766 H 0.47596 0.81041 0.79587 0.0
H1767 H 0.46041 0.80197 0.76985 0.0
H1768 H 0.54839 0.81938 0.77477 0.0
H1769 H 0.50828 0.8038 0.71259 0.0
H1770 H 0.5315 0.76918 0.80787 0.0
H1771 H 0.51334 0.79389 0.81498 0.0
H1772 H 0.54432 0.79813 0.80973 0.0
H1773 H 0.48247 0.75003 0.73427 0.0
H1774 H 0.48199 0.77162 0.71096 0.0
H1775 H 0.4636 0.77512 0.73653 0.0
C1776 C 0.27201 0.48214 0.80345 0.0
C1777 C 0.25994 0.46607 0.81783 0.0
C1778 C 0.26021 0.49453 0.78555 0.0
C1779 C 0.2358 0.49086 0.78212 0.0
C1780 C 0.22391 0.47369 0.7957 0.0
C1781 C 0.23613 0.46147 0.81329 0.0
C1782 C 0.27359 0.51239 0.77117 0.0
C1783 C 0.19789 0.46917 0.79262 0.0
C1784 C 0.19463 0.5391 0.76179 0.0
C1785 C 0.18825 0.53116 0.73933 0.0
C1786 C 0.21129 0.52694 0.77534 0.0
C1787 C 0.22196 0.50637 0.76616 0.0
C1788 C 0.21696 0.49928 0.74282 0.0
C1789 C 0.2001 0.51174 0.72966 0.0
C1790 C 0.2162 0.53519 0.80012 0.0
C1791 C 0.22824 0.47768 0.73226 0.0
H1792 H 0.29044 0.48573 0.80674 0.0
H1793 H 0.22669 0.44896 0.82415 0.0
H1794 H 0.26925 0.51062 0.75223 0.0
H1795 H 0.26839 0.53039 0.77669 0.0
H1796 H 0.29293 0.51059 0.77342 0.0
H1797 H 0.19163 0.45414 0.80343 0.0
H1798 H 0.18782 0.4851 0.79777 0.0
H1799 H 0.19382 0.46549 0.7739 0.0
H1800 H 0.18578 0.55423 0.76933 0.0
H1801 H 0.19543 0.50556 0.71224 0.0
H1802 H 0.23542 0.53624 0.80328 0.0
H1803 H 0.20887 0.52231 0.81283 0.0
H1804 H 0.20829 0.5527 0.80378 0.0
H1805 H 0.2474 0.47737 0.73599 0.0
H1806 H 0.22556 0.47675 0.71292 0.0
H1807 H 0.22046 0.4617 0.74032 0.0
C1808 C 0.48453 0.19811 0.7297 0.0
C1809 C 0.46706 0.18464 0.74083 0.0
C1810 C 0.49695 0.21556 0.74207 0.0
C1811 C 0.4918 0.21954 0.76611 0.0
C1812 C 0.47319 0.20702 0.77697 0.0
C1813 C 0.46104 0.18978 0.7642 0.0
C1814 C 0.51645 0.22875 0.72979 0.0
C1815 C 0.46704 0.2108 0.80255 0.0
C1816 C 0.539 0.23785 0.80937 0.0
C1817 C 0.53245 0.26107 0.81456 0.0
C1818 C 0.52665 0.22456 0.79267 0.0
C1819 C 0.50729 0.23476 0.78075 0.0
C1820 C 0.50153 0.25866 0.78475 0.0
C1821 C 0.51416 0.27156 0.80166 0.0
C1822 C 0.53346 0.19914 0.78886 0.0
C1823 C 0.48121 0.27024 0.77216 0.0
H1824 H 0.48923 0.19436 0.7116 0.0
H1825 H 0.44743 0.17964 0.77289 0.0
H1826 H 0.51532 0.24785 0.73365 0.0
H1827 H 0.53371 0.22246 0.7364 0.0
H1828 H 0.51597 0.22618 0.71042 0.0
H1829 H 0.45088 0.20114 0.8078 0.0
H1830 H 0.48181 0.2047 0.81378 0.0
H1831 H 0.46439 0.2298 0.80618 0.0
H1832 H 0.55323 0.22965 0.81907 0.0
H1833 H 0.50904 0.28953 0.80545 0.0
H1834 H 0.53563 0.19548 0.76982 0.0
H1835 H 0.51924 0.18751 0.79547 0.0
H1836 H 0.55007 0.19445 0.79804 0.0
H1837 H 0.48181 0.26628 0.75306 0.0
H1838 H 0.48117 0.28964 0.77458 0.0
H1839 H 0.46439 0.26314 0.77907 0.0
C1840 C 0.73051 0.51709 0.80477 0.0
C1841 C 0.74231 0.53268 0.81987 0.0
C1842 C 0.74267 0.50502 0.78691 0.0
C1843 C 0.76718 0.50858 0.78418 0.0
C1844 C 0.77887 0.52523 0.79855 0.0
C1845 C 0.7663 0.53709 0.81615 0.0
C1846 C 0.72953 0.48761 0.77177 0.0
C1847 C 0.80498 0.52965 0.79618 0.0
C1848 C 0.80816 0.46065 0.76264 0.0
C1849 C 0.81464 0.46913 0.74039 0.0
C1850 C 0.79162 0.47261 0.77651 0.0
C1851 C 0.78122 0.49357 0.76792 0.0
C1852 C 0.78643 0.50133 0.74483 0.0
C1853 C 0.80311 0.48902 0.73132 0.0
C1854 C 0.78644 0.46362 0.80097 0.0
C1855 C 0.77551 0.52343 0.73493 0.0
H1856 H 0.71194 0.51363 0.80745 0.0
H1857 H 0.77555 0.54923 0.82759 0.0
H1858 H 0.73399 0.49018 0.75294 0.0
H1859 H 0.73487 0.46946 0.77659 0.0
H1860 H 0.71016 0.48915 0.77394 0.0
H1861 H 0.81109 0.5443 0.80757 0.0
H1862 H 0.81483 0.5135 0.80105 0.0
H1863 H 0.80949 0.53386 0.77767 0.0
H1864 H 0.81679 0.44517 0.76972 0.0
H1865 H 0.8079 0.49565 0.71409 0.0
H1866 H 0.76718 0.46263 0.80394 0.0
H1867 H 0.79375 0.47604 0.81415 0.0
H1868 H 0.79419 0.44595 0.80416 0.0
H1869 H 0.75628 0.5237 0.73827 0.0
H1870 H 0.77862 0.52516 0.71571 0.0
H1871 H 0.7832 0.53901 0.74383 0.0
loop_
_geom_bond_atom_site_label_1
_geom_bond_atom_site_label_2
_geom_bond_distance
_geom_bond_site_symmetry_2
_ccdc_geom_bond_type
Mg0 O1 2.028 . S
Mg0 O7 1.986 . S
Mg0 O9 2.114 . S
Mg0 O10 2.251 . S
Mg0 O13 2.010 . S
O1 Mg0 2.028 . S
O1 C4 1.250 . S
O2 Mg3 2.028 . S
O2 C4 1.248 . S
Mg3 O2 2.028 . S
Mg3 O8 2.032 . S
Mg3 O10 2.079 . S
C4 O1 1.250 . S
C4 O2 1.248 . S
C5 O6 1.264 . S
C5 O13 1.249 . S
O6 C5 1.264 . S
O7 Mg0 1.986 . S
O7 C11 1.246 . S
O8 Mg3 2.032 . S
O8 C11 1.259 . S
O9 Mg0 2.114 . S
O9 C12 1.252 . S
O10 Mg0 2.251 . S
O10 Mg3 2.079 . S
O10 C12 1.273 . S
C11 O7 1.246 . S
C11 O8 1.259 . S
C12 O9 1.252 . S
C12 O10 1.273 . S
O13 Mg0 2.010 . S
O13 C5 1.249 . S
Mg14 O15 2.028 . S
Mg14 O21 1.986 . S
Mg14 O23 2.114 . S
Mg14 O24 2.251 . S
Mg14 O27 2.010 . S
O15 Mg14 2.028 . S
O15 C18 1.250 . S
O16 Mg17 2.028 . S
O16 C18 1.248 . S
Mg17 O16 2.028 . S
Mg17 O22 2.032 . S
Mg17 O24 2.079 . S
C18 O15 1.250 . S
C18 O16 1.248 . S
C19 O20 1.264 . S
C19 O27 1.249 . S
O20 C19 1.264 . S
O21 Mg14 1.986 . S
O21 C25 1.246 . S
O22 Mg17 2.032 . S
O22 C25 1.259 . S
O23 Mg14 2.114 . S
O23 C26 1.252 . S
O24 Mg14 2.251 . S
O24 Mg17 2.079 . S
O24 C26 1.273 . S
C25 O21 1.246 . S
C25 O22 1.259 . S
C26 O23 1.252 . S
C26 O24 1.273 . S
O27 Mg14 2.010 . S
O27 C19 1.249 . S
Mg28 O29 2.028 . S
Mg28 O35 1.986 . S
Mg28 O37 2.114 . S
Mg28 O38 2.251 . S
Mg28 O41 2.010 . S
O29 Mg28 2.028 . S
O29 C32 1.250 . S
O30 Mg31 2.028 . S
O30 C32 1.248 . S
Mg31 O30 2.028 . S
Mg31 O36 2.032 . S
Mg31 O38 2.079 . S
C32 O29 1.250 . S
C32 O30 1.248 . S
C33 O34 1.264 . S
C33 O41 1.249 . S
O34 C33 1.264 . S
O35 Mg28 1.986 . S
O35 C39 1.246 . S
O36 Mg31 2.032 . S
O36 C39 1.259 . S
O37 Mg28 2.114 . S
O37 C40 1.252 . S
O38 Mg28 2.251 . S
O38 Mg31 2.079 . S
O38 C40 1.273 . S
C39 O35 1.246 . S
C39 O36 1.259 . S
C40 O37 1.252 . S
C40 O38 1.273 . S
O41 Mg28 2.010 . S
O41 C33 1.249 . S
Mg42 O43 2.028 . S
Mg42 O49 1.986 . S
Mg42 O51 2.114 . S
Mg42 O52 2.251 . S
Mg42 O55 2.010 . S
O43 Mg42 2.028 . S
O43 C46 1.250 . S
O44 Mg45 2.028 . S
O44 C46 1.248 . S
Mg45 O44 2.028 . S
Mg45 O50 2.032 . S
Mg45 O52 2.079 . S
C46 O43 1.250 . S
C46 O44 1.248 . S
C47 O48 1.264 . S
C47 O55 1.249 . S
O48 C47 1.264 . S
O49 Mg42 1.986 . S
O49 C53 1.246 . S
O50 Mg45 2.032 . S
O50 C53 1.259 . S
O51 Mg42 2.114 . S
O51 C54 1.252 . S
O52 Mg42 2.251 . S
O52 Mg45 2.079 . S
O52 C54 1.273 . S
C53 O49 1.246 . S
C53 O50 1.259 . S
C54 O51 1.252 . S
C54 O52 1.273 . S
O55 Mg42 2.010 . S
O55 C47 1.249 . S
Mg56 O57 2.028 . S
Mg56 O63 1.986 . S
Mg56 O65 2.114 . S
Mg56 O66 2.251 . S
Mg56 O69 2.010 . S
O57 Mg56 2.028 . S
O57 C60 1.250 . S
O58 Mg59 2.028 . S
O58 C60 1.248 . S
Mg59 O58 2.028 . S
Mg59 O64 2.032 . S
Mg59 O66 2.079 . S
C60 O57 1.250 . S
C60 O58 1.248 . S
C61 O62 1.264 . S
C61 O69 1.249 . S
O62 C61 1.264 . S
O63 Mg56 1.986 . S
O63 C67 1.246 . S
O64 Mg59 2.032 . S
O64 C67 1.259 . S
O65 Mg56 2.114 . S
O65 C68 1.252 . S
O66 Mg56 2.251 . S
O66 Mg59 2.079 . S
O66 C68 1.273 . S
C67 O63 1.246 . S
C67 O64 1.259 . S
C68 O65 1.252 . S
C68 O66 1.273 . S
O69 Mg56 2.010 . S
O69 C61 1.249 . S
Mg70 O71 2.028 . S
Mg70 O77 1.986 . S
Mg70 O79 2.114 . S
Mg70 O80 2.251 . S
Mg70 O83 2.010 . S
O71 Mg70 2.028 . S
O71 C74 1.250 . S
O72 Mg73 2.028 . S
O72 C74 1.248 . S
Mg73 O72 2.028 . S
Mg73 O78 2.032 . S
Mg73 O80 2.079 . S
C74 O71 1.250 . S
C74 O72 1.248 . S
C75 O76 1.264 . S
C75 O83 1.249 . S
O76 C75 1.264 . S
O77 Mg70 1.986 . S
O77 C81 1.246 . S
O78 Mg73 2.032 . S
O78 C81 1.259 . S
O79 Mg70 2.114 . S
O79 C82 1.252 . S
O80 Mg70 2.251 . S
O80 Mg73 2.079 . S
O80 C82 1.273 . S
C81 O77 1.246 . S
C81 O78 1.259 . S
C82 O79 1.252 . S
C82 O80 1.273 . S
O83 Mg70 2.010 . S
O83 C75 1.249 . S
Mg84 O85 2.028 . S
Mg84 O91 1.986 . S
Mg84 O93 2.114 . S
Mg84 O94 2.251 . S
Mg84 O97 2.010 . S
O85 Mg84 2.028 . S
O85 C88 1.250 . S
O86 Mg87 2.028 . S
O86 C88 1.248 . S
Mg87 O86 2.028 . S
Mg87 O92 2.032 . S
Mg87 O94 2.079 . S
C88 O85 1.250 . S
C88 O86 1.248 . S
C89 O90 1.264 . S
C89 O97 1.249 . S
O90 C89 1.264 . S
O91 Mg84 1.986 . S
O91 C95 1.246 . S
O92 Mg87 2.032 . S
O92 C95 1.259 . S
O93 Mg84 2.114 . S
O93 C96 1.252 . S
O94 Mg84 2.251 . S
O94 Mg87 2.079 . S
O94 C96 1.273 . S
C95 O91 1.246 . S
C95 O92 1.259 . S
C96 O93 1.252 . S
C96 O94 1.273 . S
O97 Mg84 2.010 . S
O97 C89 1.249 . S
Mg98 O99 2.028 . S
Mg98 O105 1.986 . S
Mg98 O107 2.114 . S
Mg98 O108 2.251 . S
Mg98 O111 2.010 . S
O99 Mg98 2.028 . S
O99 C102 1.250 . S
O100 Mg101 2.028 . S
O100 C102 1.248 . S
Mg101 O100 2.028 . S
Mg101 O106 2.032 . S
Mg101 O108 2.079 . S
C102 O99 1.250 . S
C102 O100 1.248 . S
C103 O104 1.264 . S
C103 O111 1.249 . S
O104 C103 1.264 . S
O105 Mg98 1.986 . S
O105 C109 1.246 . S
O106 Mg101 2.032 . S
O106 C109 1.259 . S
O107 Mg98 2.114 . S
O107 C110 1.252 . S
O108 Mg98 2.251 . S
O108 Mg101 2.079 . S
O108 C110 1.273 . S
C109 O105 1.246 . S
C109 O106 1.259 . S
C110 O107 1.252 . S
C110 O108 1.273 . S
O111 Mg98 2.010 . S
O111 C103 1.249 . S
Mg112 O113 2.028 . S
Mg112 O119 1.986 . S
Mg112 O121 2.114 . S
Mg112 O122 2.251 . S
Mg112 O125 2.010 . S
O113 Mg112 2.028 . S
O113 C116 1.250 . S
O114 Mg115 2.028 . S
O114 C116 1.248 . S
Mg115 O114 2.028 . S
Mg115 O120 2.032 . S
Mg115 O122 2.079 . S
C116 O113 1.250 . S
C116 O114 1.248 . S
C117 O118 1.264 . S
C117 O125 1.249 . S
O118 C117 1.264 . S
O119 Mg112 1.986 . S
O119 C123 1.246 . S
O120 Mg115 2.032 . S
O120 C123 1.259 . S
O121 Mg112 2.114 . S
O121 C124 1.252 . S
O122 Mg112 2.251 . S
O122 Mg115 2.079 . S
O122 C124 1.273 . S
C123 O119 1.246 . S
C123 O120 1.259 . S
C124 O121 1.252 . S
C124 O122 1.273 . S
O125 Mg112 2.010 . S
O125 C117 1.249 . S
Mg126 O127 2.028 . S
Mg126 O133 1.986 . S
Mg126 O135 2.114 . S
Mg126 O136 2.251 . S
Mg126 O139 2.010 . S
O127 Mg126 2.028 . S
O127 C130 1.250 . S
O128 Mg129 2.028 . S
O128 C130 1.248 . S
Mg129 O128 2.028 . S
Mg129 O134 2.032 . S
Mg129 O136 2.079 . S
C130 O127 1.250 . S
C130 O128 1.248 . S
C131 O132 1.264 . S
C131 O139 1.249 . S
O132 C131 1.264 . S
O133 Mg126 1.986 . S
O133 C137 1.246 . S
O134 Mg129 2.032 . S
O134 C137 1.259 . S
O135 Mg126 2.114 . S
O135 C138 1.252 . S
O136 Mg126 2.251 . S
O136 Mg129 2.079 . S
O136 C138 1.273 . S
C137 O133 1.246 . S
C137 O134 1.259 . S
C138 O135 1.252 . S
C138 O136 1.273 . S
O139 Mg126 2.010 . S
O139 C131 1.249 . S
Mg140 O141 2.028 . S
Mg140 O147 1.986 . S
Mg140 O149 2.114 . S
Mg140 O150 2.251 . S
Mg140 O153 2.010 . S
O141 Mg140 2.028 . S
O141 C144 1.250 . S
O142 Mg143 2.028 . S
O142 C144 1.248 . S
Mg143 O142 2.028 . S
Mg143 O148 2.032 . S
Mg143 O150 2.079 . S
C144 O141 1.250 . S
C144 O142 1.248 . S
C145 O146 1.264 . S
C145 O153 1.249 . S
O146 C145 1.264 . S
O147 Mg140 1.986 . S
O147 C151 1.246 . S
O148 Mg143 2.032 . S
O148 C151 1.259 . S
O149 Mg140 2.114 . S
O149 C152 1.252 . S
O150 Mg140 2.251 . S
O150 Mg143 2.079 . S
O150 C152 1.273 . S
C151 O147 1.246 . S
C151 O148 1.259 . S
C152 O149 1.252 . S
C152 O150 1.273 . S
O153 Mg140 2.010 . S
O153 C145 1.249 . S
Mg154 O155 2.028 . S
Mg154 O161 1.986 . S
Mg154 O163 2.114 . S
Mg154 O164 2.251 . S
Mg154 O167 2.010 . S
O155 Mg154 2.028 . S
O155 C158 1.250 . S
O156 Mg157 2.028 . S
O156 C158 1.248 . S
Mg157 O156 2.028 . S
Mg157 O162 2.032 . S
Mg157 O164 2.079 . S
C158 O155 1.250 . S
C158 O156 1.248 . S
C159 O160 1.264 . S
C159 O167 1.249 . S
O160 C159 1.264 . S
O161 Mg154 1.986 . S
O161 C165 1.246 . S
O162 Mg157 2.032 . S
O162 C165 1.259 . S
O163 Mg154 2.114 . S
O163 C166 1.252 . S
O164 Mg154 2.251 . S
O164 Mg157 2.079 . S
O164 C166 1.273 . S
C165 O161 1.246 . S
C165 O162 1.259 . S
C166 O163 1.252 . S
C166 O164 1.273 . S
O167 Mg154 2.010 . S
O167 C159 1.249 . S
Mg168 O169 2.028 . S
Mg168 O175 1.986 . S
Mg168 O177 2.114 . S
Mg168 O178 2.251 . S
Mg168 O181 2.010 . S
O169 Mg168 2.028 . S
O169 C172 1.250 . S
O170 Mg171 2.028 . S
O170 C172 1.248 . S
Mg171 O170 2.028 . S
Mg171 O176 2.032 . S
Mg171 O178 2.079 . S
C172 O169 1.250 . S
C172 O170 1.248 . S
C173 O174 1.264 . S
C173 O181 1.249 . S
O174 C173 1.264 . S
O175 Mg168 1.986 . S
O175 C179 1.246 . S
O176 Mg171 2.032 . S
O176 C179 1.259 . S
O177 Mg168 2.114 . S
O177 C180 1.252 . S
O178 Mg168 2.251 . S
O178 Mg171 2.079 . S
O178 C180 1.273 . S
C179 O175 1.246 . S
C179 O176 1.259 . S
C180 O177 1.252 . S
C180 O178 1.273 . S
O181 Mg168 2.010 . S
O181 C173 1.249 . S
Mg182 O183 2.028 . S
Mg182 O189 1.986 . S
Mg182 O191 2.114 . S
Mg182 O192 2.251 . S
Mg182 O195 2.010 . S
O183 Mg182 2.028 . S
O183 C186 1.250 . S
O184 Mg185 2.028 . S
O184 C186 1.248 . S
Mg185 O184 2.028 . S
Mg185 O190 2.032 . S
Mg185 O192 2.079 . S
C186 O183 1.250 . S
C186 O184 1.248 . S
C187 O188 1.264 . S
C187 O195 1.249 . S
O188 C187 1.264 . S
O189 Mg182 1.986 . S
O189 C193 1.246 . S
O190 Mg185 2.032 . S
O190 C193 1.259 . S
O191 Mg182 2.114 . S
O191 C194 1.252 . S
O192 Mg182 2.251 . S
O192 Mg185 2.079 . S
O192 C194 1.273 . S
C193 O189 1.246 . S
C193 O190 1.259 . S
C194 O191 1.252 . S
C194 O192 1.273 . S
O195 Mg182 2.010 . S
O195 C187 1.249 . S
Mg196 O197 2.028 . S
Mg196 O203 1.986 . S
Mg196 O205 2.114 . S
Mg196 O206 2.251 . S
Mg196 O209 2.010 . S
O197 Mg196 2.028 . S
O197 C200 1.250 . S
O198 Mg199 2.028 . S
O198 C200 1.248 . S
Mg199 O198 2.028 . S
Mg199 O204 2.032 . S
Mg199 O206 2.079 . S
C200 O197 1.250 . S
C200 O198 1.248 . S
C201 O202 1.264 . S
C201 O209 1.249 . S
O202 C201 1.264 . S
O203 Mg196 1.986 . S
O203 C207 1.246 . S
O204 Mg199 2.032 . S
O204 C207 1.259 . S
O205 Mg196 2.114 . S
O205 C208 1.252 . S
O206 Mg196 2.251 . S
O206 Mg199 2.079 . S
O206 C208 1.273 . S
C207 O203 1.246 . S
C207 O204 1.259 . S
C208 O205 1.252 . S
C208 O206 1.273 . S
O209 Mg196 2.010 . S
O209 C201 1.249 . S
Mg210 O211 2.028 . S
Mg210 O217 1.986 . S
Mg210 O219 2.114 . S
Mg210 O220 2.251 . S
Mg210 O223 2.010 . S
O211 Mg210 2.028 . S
O211 C214 1.250 . S
O212 Mg213 2.028 . S
O212 C214 1.248 . S
Mg213 O212 2.028 . S
Mg213 O218 2.032 . S
Mg213 O220 2.079 . S
C214 O211 1.250 . S
C214 O212 1.248 . S
C215 O216 1.264 . S
C215 O223 1.249 . S
O216 C215 1.264 . S
O217 Mg210 1.986 . S
O217 C221 1.246 . S
O218 Mg213 2.032 . S
O218 C221 1.259 . S
O219 Mg210 2.114 . S
O219 C222 1.252 . S
O220 Mg210 2.251 . S
O220 Mg213 2.079 . S
O220 C222 1.273 . S
C221 O217 1.246 . S
C221 O218 1.259 . S
C222 O219 1.252 . S
C222 O220 1.273 . S
O223 Mg210 2.010 . S
O223 C215 1.249 . S
Mg224 O225 2.028 . S
Mg224 O231 1.986 . S
Mg224 O233 2.114 . S
Mg224 O234 2.251 . S
Mg224 O237 2.010 . S
O225 Mg224 2.028 . S
O225 C228 1.250 . S
O226 Mg227 2.028 . S
O226 C228 1.248 . S
Mg227 O226 2.028 . S
Mg227 O232 2.032 . S
Mg227 O234 2.079 . S
C228 O225 1.250 . S
C228 O226 1.248 . S
C229 O230 1.264 . S
C229 O237 1.249 . S
O230 C229 1.264 . S
O231 Mg224 1.986 . S
O231 C235 1.246 . S
O232 Mg227 2.032 . S
O232 C235 1.259 . S
O233 Mg224 2.114 . S
O233 C236 1.252 . S
O234 Mg224 2.251 . S
O234 Mg227 2.079 . S
O234 C236 1.273 . S
C235 O231 1.246 . S
C235 O232 1.259 . S
C236 O233 1.252 . S
C236 O234 1.273 . S
O237 Mg224 2.010 . S
O237 C229 1.249 . S
Mg238 O239 2.028 . S
Mg238 O245 1.986 . S
Mg238 O247 2.114 . S
Mg238 O248 2.251 . S
Mg238 O251 2.010 . S
O239 Mg238 2.028 . S
O239 C242 1.250 . S
O240 Mg241 2.028 . S
O240 C242 1.248 . S
Mg241 O240 2.028 . S
Mg241 O246 2.032 . S
Mg241 O248 2.079 . S
C242 O239 1.250 . S
C242 O240 1.248 . S
C243 O244 1.264 . S
C243 O251 1.249 . S
O244 C243 1.264 . S
O245 Mg238 1.986 . S
O245 C249 1.246 . S
O246 Mg241 2.032 . S
O246 C249 1.259 . S
O247 Mg238 2.114 . S
O247 C250 1.252 . S
O248 Mg238 2.251 . S
O248 Mg241 2.079 . S
O248 C250 1.273 . S
C249 O245 1.246 . S
C249 O246 1.259 . S
C250 O247 1.252 . S
C250 O248 1.273 . S
O251 Mg238 2.010 . S
O251 C243 1.249 . S
Mg252 O253 2.028 . S
Mg252 O259 1.986 . S
Mg252 O261 2.114 . S
Mg252 O262 2.251 . S
Mg252 O265 2.010 . S
O253 Mg252 2.028 . S
O253 C256 1.250 . S
O254 Mg255 2.028 . S
O254 C256 1.248 . S
Mg255 O254 2.028 . S
Mg255 O260 2.032 . S
Mg255 O262 2.079 . S
C256 O253 1.250 . S
C256 O254 1.248 . S
C257 O258 1.264 . S
C257 O265 1.249 . S
O258 C257 1.264 . S
O259 Mg252 1.986 . S
O259 C263 1.246 . S
O260 Mg255 2.032 . S
O260 C263 1.259 . S
O261 Mg252 2.114 . S
O261 C264 1.252 . S
O262 Mg252 2.251 . S
O262 Mg255 2.079 . S
O262 C264 1.273 . S
C263 O259 1.246 . S
C263 O260 1.259 . S
C264 O261 1.252 . S
C264 O262 1.273 . S
O265 Mg252 2.010 . S
O265 C257 1.249 . S
Mg266 O267 2.028 . S
Mg266 O273 1.986 . S
Mg266 O275 2.114 . S
Mg266 O276 2.251 . S
Mg266 O279 2.010 . S
O267 Mg266 2.028 . S
O267 C270 1.250 . S
O268 Mg269 2.028 . S
O268 C270 1.248 . S
Mg269 O268 2.028 . S
Mg269 O274 2.032 . S
Mg269 O276 2.079 . S
C270 O267 1.250 . S
C270 O268 1.248 . S
C271 O272 1.264 . S
C271 O279 1.249 . S
O272 C271 1.264 . S
O273 Mg266 1.986 . S
O273 C277 1.246 . S
O274 Mg269 2.032 . S
O274 C277 1.259 . S
O275 Mg266 2.114 . S
O275 C278 1.252 . S
O276 Mg266 2.251 . S
O276 Mg269 2.079 . S
O276 C278 1.273 . S
C277 O273 1.246 . S
C277 O274 1.259 . S
C278 O275 1.252 . S
C278 O276 1.273 . S
O279 Mg266 2.010 . S
O279 C271 1.249 . S
Mg280 O281 2.028 . S
Mg280 O287 1.986 . S
Mg280 O289 2.114 . S
Mg280 O290 2.251 . S
Mg280 O293 2.010 . S
O281 Mg280 2.028 . S
O281 C284 1.250 . S
O282 Mg283 2.028 . S
O282 C284 1.248 . S
Mg283 O282 2.028 . S
Mg283 O288 2.032 . S
Mg283 O290 2.079 . S
C284 O281 1.250 . S
C284 O282 1.248 . S
C285 O286 1.264 . S
C285 O293 1.249 . S
O286 C285 1.264 . S
O287 Mg280 1.986 . S
O287 C291 1.246 . S
O288 Mg283 2.032 . S
O288 C291 1.259 . S
O289 Mg280 2.114 . S
O289 C292 1.252 . S
O290 Mg280 2.251 . S
O290 Mg283 2.079 . S
O290 C292 1.273 . S
C291 O287 1.246 . S
C291 O288 1.259 . S
C292 O289 1.252 . S
C292 O290 1.273 . S
O293 Mg280 2.010 . S
O293 C285 1.249 . S
Mg294 O295 2.028 . S
Mg294 O301 1.986 . S
Mg294 O303 2.114 . S
Mg294 O304 2.251 . S
Mg294 O307 2.010 . S
O295 Mg294 2.028 . S
O295 C298 1.250 . S
O296 Mg297 2.028 . S
O296 C298 1.248 . S
Mg297 O296 2.028 . S
Mg297 O302 2.032 . S
Mg297 O304 2.079 . S
C298 O295 1.250 . S
C298 O296 1.248 . S
C299 O300 1.264 . S
C299 O307 1.249 . S
O300 C299 1.264 . S
O301 Mg294 1.986 . S
O301 C305 1.246 . S
O302 Mg297 2.032 . S
O302 C305 1.259 . S
O303 Mg294 2.114 . S
O303 C306 1.252 . S
O304 Mg294 2.251 . S
O304 Mg297 2.079 . S
O304 C306 1.273 . S
C305 O301 1.246 . S
C305 O302 1.259 . S
C306 O303 1.252 . S
C306 O304 1.273 . S
O307 Mg294 2.010 . S
O307 C299 1.249 . S
Mg308 O309 2.028 . S
Mg308 O315 1.986 . S
Mg308 O317 2.114 . S
Mg308 O318 2.251 . S
Mg308 O321 2.010 . S
O309 Mg308 2.028 . S
O309 C312 1.250 . S
O310 Mg311 2.028 . S
O310 C312 1.248 . S
Mg311 O310 2.028 . S
Mg311 O316 2.032 . S
Mg311 O318 2.079 . S
C312 O309 1.250 . S
C312 O310 1.248 . S
C313 O314 1.264 . S
C313 O321 1.249 . S
O314 C313 1.264 . S
O315 Mg308 1.986 . S
O315 C319 1.246 . S
O316 Mg311 2.032 . S
O316 C319 1.259 . S
O317 Mg308 2.114 . S
O317 C320 1.252 . S
O318 Mg308 2.251 . S
O318 Mg311 2.079 . S
O318 C320 1.273 . S
C319 O315 1.246 . S
C319 O316 1.259 . S
C320 O317 1.252 . S
C320 O318 1.273 . S
O321 Mg308 2.010 . S
O321 C313 1.249 . S
Mg322 O323 2.028 . S
Mg322 O329 1.986 . S
Mg322 O331 2.114 . S
Mg322 O332 2.251 . S
Mg322 O335 2.010 . S
O323 Mg322 2.028 . S
O323 C326 1.250 . S
O324 Mg325 2.028 . S
O324 C326 1.248 . S
Mg325 O324 2.028 . S
Mg325 O330 2.032 . S
Mg325 O332 2.079 . S
C326 O323 1.250 . S
C326 O324 1.248 . S
C327 O328 1.264 . S
C327 O335 1.249 . S
O328 C327 1.264 . S
O329 Mg322 1.986 . S
O329 C333 1.246 . S
O330 Mg325 2.032 . S
O330 C333 1.259 . S
O331 Mg322 2.114 . S
O331 C334 1.252 . S
O332 Mg322 2.251 . S
O332 Mg325 2.079 . S
O332 C334 1.273 . S
C333 O329 1.246 . S
C333 O330 1.259 . S
C334 O331 1.252 . S
C334 O332 1.273 . S
O335 Mg322 2.010 . S
O335 C327 1.249 . S
C336 C337 1.391 . S
C336 C338 1.394 . S
C336 H352 0.931 . S
C337 C336 1.391 . S
C337 C341 1.376 . S
C338 C336 1.394 . S
C338 C339 1.369 . S
C338 C342 1.531 . S
C339 C338 1.369 . S
C339 C340 1.410 . S
C339 C347 1.503 . S
C340 C339 1.410 . S
C340 C341 1.392 . S
C340 C343 1.511 . S
C341 C337 1.376 . S
C341 C340 1.392 . S
C341 H353 0.929 . S
C342 C338 1.531 . S
C342 H354 0.960 . S
C342 H355 0.962 . S
C342 H356 0.960 . S
C343 C340 1.511 . S
C343 H357 0.961 . S
C343 H358 0.961 . S
C343 H359 0.961 . S
C344 C345 1.370 . S
C344 C346 1.363 . S
C344 H360 0.931 . S
C345 C344 1.370 . S
C345 C349 1.408 . S
C346 C344 1.363 . S
C346 C347 1.370 . S
C346 C350 1.524 . S
C347 C339 1.503 . S
C347 C346 1.370 . S
C347 C348 1.403 . S
C348 C347 1.403 . S
C348 C349 1.404 . S
C348 C351 1.539 . S
C349 C345 1.408 . S
C349 C348 1.404 . S
C349 H361 0.930 . S
C350 C346 1.524 . S
C350 H362 0.956 . S
C350 H363 0.961 . S
C350 H364 0.961 . S
C351 C348 1.539 . S
C351 H365 0.958 . S
C351 H366 0.961 . S
C351 H367 0.960 . S
H352 C336 0.931 . S
H353 C341 0.929 . S
H354 C342 0.960 . S
H355 C342 0.962 . S
H356 C342 0.960 . S
H357 C343 0.961 . S
H358 C343 0.961 . S
H359 C343 0.961 . S
H360 C344 0.931 . S
H361 C349 0.930 . S
H362 C350 0.956 . S
H363 C350 0.961 . S
H364 C350 0.961 . S
H365 C351 0.958 . S
H366 C351 0.961 . S
H367 C351 0.960 . S
C368 C369 1.391 . S
C368 C370 1.394 . S
C368 H384 0.931 . S
C369 C368 1.391 . S
C369 C373 1.376 . S
C370 C368 1.394 . S
C370 C371 1.369 . S
C370 C374 1.531 . S
C371 C370 1.369 . S
C371 C372 1.410 . S
C371 C379 1.503 . S
C372 C371 1.410 . S
C372 C373 1.392 . S
C372 C375 1.511 . S
C373 C369 1.376 . S
C373 C372 1.392 . S
C373 H385 0.929 . S
C374 C370 1.531 . S
C374 H386 0.960 . S
C374 H387 0.962 . S
C374 H388 0.960 . S
C375 C372 1.511 . S
C375 H389 0.961 . S
C375 H390 0.961 . S
C375 H391 0.961 . S
C376 C377 1.370 . S
C376 C378 1.363 . S
C376 H392 0.931 . S
C377 C376 1.370 . S
C377 C381 1.408 . S
C378 C376 1.363 . S
C378 C379 1.370 . S
C378 C382 1.524 . S
C379 C371 1.503 . S
C379 C378 1.370 . S
C379 C380 1.403 . S
C380 C379 1.403 . S
C380 C381 1.404 . S
C380 C383 1.539 . S
C381 C377 1.408 . S
C381 C380 1.404 . S
C381 H393 0.930 . S
C382 C378 1.524 . S
C382 H394 0.956 . S
C382 H395 0.961 . S
C382 H396 0.961 . S
C383 C380 1.539 . S
C383 H397 0.958 . S
C383 H398 0.961 . S
C383 H399 0.960 . S
H384 C368 0.931 . S
H385 C373 0.929 . S
H386 C374 0.960 . S
H387 C374 0.962 . S
H388 C374 0.960 . S
H389 C375 0.961 . S
H390 C375 0.961 . S
H391 C375 0.961 . S
H392 C376 0.931 . S
H393 C381 0.930 . S
H394 C382 0.956 . S
H395 C382 0.961 . S
H396 C382 0.961 . S
H397 C383 0.958 . S
H398 C383 0.961 . S
H399 C383 0.960 . S
C400 C401 1.391 . S
C400 C402 1.394 . S
C400 H416 0.931 . S
C401 C400 1.391 . S
C401 C405 1.376 . S
C402 C400 1.394 . S
C402 C403 1.369 . S
C402 C406 1.531 . S
C403 C402 1.369 . S
C403 C404 1.410 . S
C403 C411 1.503 . S
C404 C403 1.410 . S
C404 C405 1.392 . S
C404 C407 1.511 . S
C405 C401 1.376 . S
C405 C404 1.392 . S
C405 H417 0.929 . S
C406 C402 1.531 . S
C406 H418 0.960 . S
C406 H419 0.962 . S
C406 H420 0.960 . S
C407 C404 1.511 . S
C407 H421 0.961 . S
C407 H422 0.961 . S
C407 H423 0.961 . S
C408 C409 1.370 . S
C408 C410 1.363 . S
C408 H424 0.931 . S
C409 C408 1.370 . S
C409 C413 1.408 . S
C410 C408 1.363 . S
C410 C411 1.370 . S
C410 C414 1.524 . S
C411 C403 1.503 . S
C411 C410 1.370 . S
C411 C412 1.403 . S
C412 C411 1.403 . S
C412 C413 1.404 . S
C412 C415 1.539 . S
C413 C409 1.408 . S
C413 C412 1.404 . S
C413 H425 0.930 . S
C414 C410 1.524 . S
C414 H426 0.956 . S
C414 H427 0.961 . S
C414 H428 0.961 . S
C415 C412 1.539 . S
C415 H429 0.958 . S
C415 H430 0.961 . S
C415 H431 0.960 . S
H416 C400 0.931 . S
H417 C405 0.929 . S
H418 C406 0.960 . S
H419 C406 0.962 . S
H420 C406 0.960 . S
H421 C407 0.961 . S
H422 C407 0.961 . S
H423 C407 0.961 . S
H424 C408 0.931 . S
H425 C413 0.930 . S
H426 C414 0.956 . S
H427 C414 0.961 . S
H428 C414 0.961 . S
H429 C415 0.958 . S
H430 C415 0.961 . S
H431 C415 0.960 . S
C432 C433 1.391 . S
C432 C434 1.394 . S
C432 H448 0.931 . S
C433 C432 1.391 . S
C433 C437 1.376 . S
C434 C432 1.394 . S
C434 C435 1.369 . S
C434 C438 1.531 . S
C435 C434 1.369 . S
C435 C436 1.410 . S
C435 C443 1.503 . S
C436 C435 1.410 . S
C436 C437 1.392 . S
C436 C439 1.511 . S
C437 C433 1.376 . S
C437 C436 1.392 . S
C437 H449 0.929 . S
C438 C434 1.531 . S
C438 H450 0.960 . S
C438 H451 0.962 . S
C438 H452 0.960 . S
C439 C436 1.511 . S
C439 H453 0.961 . S
C439 H454 0.961 . S
C439 H455 0.961 . S
C440 C441 1.370 . S
C440 C442 1.363 . S
C440 H456 0.931 . S
C441 C440 1.370 . S
C441 C445 1.408 . S
C442 C440 1.363 . S
C442 C443 1.370 . S
C442 C446 1.524 . S
C443 C435 1.503 . S
C443 C442 1.370 . S
C443 C444 1.403 . S
C444 C443 1.403 . S
C444 C445 1.404 . S
C444 C447 1.539 . S
C445 C441 1.408 . S
C445 C444 1.404 . S
C445 H457 0.930 . S
C446 C442 1.524 . S
C446 H458 0.956 . S
C446 H459 0.961 . S
C446 H460 0.961 . S
C447 C444 1.539 . S
C447 H461 0.958 . S
C447 H462 0.961 . S
C447 H463 0.960 . S
H448 C432 0.931 . S
H449 C437 0.929 . S
H450 C438 0.960 . S
H451 C438 0.962 . S
H452 C438 0.960 . S
H453 C439 0.961 . S
H454 C439 0.961 . S
H455 C439 0.961 . S
H456 C440 0.931 . S
H457 C445 0.930 . S
H458 C446 0.956 . S
H459 C446 0.961 . S
H460 C446 0.961 . S
H461 C447 0.958 . S
H462 C447 0.961 . S
H463 C447 0.960 . S
C464 C465 1.391 . S
C464 C466 1.394 . S
C464 H480 0.931 . S
C465 C464 1.391 . S
C465 C469 1.376 . S
C466 C464 1.394 . S
C466 C467 1.369 . S
C466 C470 1.531 . S
C467 C466 1.369 . S
C467 C468 1.410 . S
C467 C475 1.503 . S
C468 C467 1.410 . S
C468 C469 1.392 . S
C468 C471 1.511 . S
C469 C465 1.376 . S
C469 C468 1.392 . S
C469 H481 0.929 . S
C470 C466 1.531 . S
C470 H482 0.960 . S
C470 H483 0.962 . S
C470 H484 0.960 . S
C471 C468 1.511 . S
C471 H485 0.961 . S
C471 H486 0.961 . S
C471 H487 0.961 . S
C472 C473 1.370 . S
C472 C474 1.363 . S
C472 H488 0.931 . S
C473 C472 1.370 . S
C473 C477 1.408 . S
C474 C472 1.363 . S
C474 C475 1.370 . S
C474 C478 1.524 . S
C475 C467 1.503 . S
C475 C474 1.370 . S
C475 C476 1.403 . S
C476 C475 1.403 . S
C476 C477 1.404 . S
C476 C479 1.539 . S
C477 C473 1.408 . S
C477 C476 1.404 . S
C477 H489 0.930 . S
C478 C474 1.524 . S
C478 H490 0.956 . S
C478 H491 0.961 . S
C478 H492 0.961 . S
C479 C476 1.539 . S
C479 H493 0.958 . S
C479 H494 0.961 . S
C479 H495 0.960 . S
H480 C464 0.931 . S
H481 C469 0.929 . S
H482 C470 0.960 . S
H483 C470 0.962 . S
H484 C470 0.960 . S
H485 C471 0.961 . S
H486 C471 0.961 . S
H487 C471 0.961 . S
H488 C472 0.931 . S
H489 C477 0.930 . S
H490 C478 0.956 . S
H491 C478 0.961 . S
H492 C478 0.961 . S
H493 C479 0.958 . S
H494 C479 0.961 . S
H495 C479 0.960 . S
C496 C497 1.391 . S
C496 C498 1.394 . S
C496 H512 0.931 . S
C497 C496 1.391 . S
C497 C501 1.376 . S
C498 C496 1.394 . S
C498 C499 1.369 . S
C498 C502 1.531 . S
C499 C498 1.369 . S
C499 C500 1.410 . S
C499 C507 1.503 . S
C500 C499 1.410 . S
C500 C501 1.392 . S
C500 C503 1.511 . S
C501 C497 1.376 . S
C501 C500 1.392 . S
C501 H513 0.929 . S
C502 C498 1.531 . S
C502 H514 0.960 . S
C502 H515 0.962 . S
C502 H516 0.960 . S
C503 C500 1.511 . S
C503 H517 0.961 . S
C503 H518 0.961 . S
C503 H519 0.961 . S
C504 C505 1.370 . S
C504 C506 1.363 . S
C504 H520 0.931 . S
C505 C504 1.370 . S
C505 C509 1.408 . S
C506 C504 1.363 . S
C506 C507 1.370 . S
C506 C510 1.524 . S
C507 C499 1.503 . S
C507 C506 1.370 . S
C507 C508 1.403 . S
C508 C507 1.403 . S
C508 C509 1.404 . S
C508 C511 1.539 . S
C509 C505 1.408 . S
C509 C508 1.404 . S
C509 H521 0.930 . S
C510 C506 1.524 . S
C510 H522 0.956 . S
C510 H523 0.961 . S
C510 H524 0.961 . S
C511 C508 1.539 . S
C511 H525 0.958 . S
C511 H526 0.961 . S
C511 H527 0.960 . S
H512 C496 0.931 . S
H513 C501 0.929 . S
H514 C502 0.960 . S
H515 C502 0.962 . S
H516 C502 0.960 . S
H517 C503 0.961 . S
H518 C503 0.961 . S
H519 C503 0.961 . S
H520 C504 0.931 . S
H521 C509 0.930 . S
H522 C510 0.956 . S
H523 C510 0.961 . S
H524 C510 0.961 . S
H525 C511 0.958 . S
H526 C511 0.961 . S
H527 C511 0.960 . S
C528 C529 1.391 . S
C528 C530 1.394 . S
C528 H544 0.931 . S
C529 C528 1.391 . S
C529 C533 1.376 . S
C530 C528 1.394 . S
C530 C531 1.369 . S
C530 C534 1.531 . S
C531 C530 1.369 . S
C531 C532 1.410 . S
C531 C539 1.503 . S
C532 C531 1.410 . S
C532 C533 1.392 . S
C532 C535 1.511 . S
C533 C529 1.376 . S
C533 C532 1.392 . S
C533 H545 0.929 . S
C534 C530 1.531 . S
C534 H546 0.960 . S
C534 H547 0.962 . S
C534 H548 0.960 . S
C535 C532 1.511 . S
C535 H549 0.961 . S
C535 H550 0.961 . S
C535 H551 0.961 . S
C536 C537 1.370 . S
C536 C538 1.363 . S
C536 H552 0.931 . S
C537 C536 1.370 . S
C537 C541 1.408 . S
C538 C536 1.363 . S
C538 C539 1.370 . S
C538 C542 1.524 . S
C539 C531 1.503 . S
C539 C538 1.370 . S
C539 C540 1.403 . S
C540 C539 1.403 . S
C540 C541 1.404 . S
C540 C543 1.539 . S
C541 C537 1.408 . S
C541 C540 1.404 . S
C541 H553 0.930 . S
C542 C538 1.524 . S
C542 H554 0.956 . S
C542 H555 0.961 . S
C542 H556 0.961 . S
C543 C540 1.539 . S
C543 H557 0.958 . S
C543 H558 0.961 . S
C543 H559 0.960 . S
H544 C528 0.931 . S
H545 C533 0.929 . S
H546 C534 0.960 . S
H547 C534 0.962 . S
H548 C534 0.960 . S
H549 C535 0.961 . S
H550 C535 0.961 . S
H551 C535 0.961 . S
H552 C536 0.931 . S
H553 C541 0.930 . S
H554 C542 0.956 . S
H555 C542 0.961 . S
H556 C542 0.961 . S
H557 C543 0.958 . S
H558 C543 0.961 . S
H559 C543 0.960 . S
C560 C561 1.391 . S
C560 C562 1.394 . S
C560 H576 0.931 . S
C561 C560 1.391 . S
C561 C565 1.376 . S
C562 C560 1.394 . S
C562 C563 1.369 . S
C562 C566 1.531 . S
C563 C562 1.369 . S
C563 C564 1.410 . S
C563 C571 1.503 . S
C564 C563 1.410 . S
C564 C565 1.392 . S
C564 C567 1.511 . S
C565 C561 1.376 . S
C565 C564 1.392 . S
C565 H577 0.929 . S
C566 C562 1.531 . S
C566 H578 0.960 . S
C566 H579 0.962 . S
C566 H580 0.960 . S
C567 C564 1.511 . S
C567 H581 0.961 . S
C567 H582 0.961 . S
C567 H583 0.961 . S
C568 C569 1.370 . S
C568 C570 1.363 . S
C568 H584 0.931 . S
C569 C568 1.370 . S
C569 C573 1.408 . S
C570 C568 1.363 . S
C570 C571 1.370 . S
C570 C574 1.524 . S
C571 C563 1.503 . S
C571 C570 1.370 . S
C571 C572 1.403 . S
C572 C571 1.403 . S
C572 C573 1.404 . S
C572 C575 1.539 . S
C573 C569 1.408 . S
C573 C572 1.404 . S
C573 H585 0.930 . S
C574 C570 1.524 . S
C574 H586 0.956 . S
C574 H587 0.961 . S
C574 H588 0.961 . S
C575 C572 1.539 . S
C575 H589 0.958 . S
C575 H590 0.961 . S
C575 H591 0.960 . S
H576 C560 0.931 . S
H577 C565 0.929 . S
H578 C566 0.960 . S
H579 C566 0.962 . S
H580 C566 0.960 . S
H581 C567 0.961 . S
H582 C567 0.961 . S
H583 C567 0.961 . S
H584 C568 0.931 . S
H585 C573 0.930 . S
H586 C574 0.956 . S
H587 C574 0.961 . S
H588 C574 0.961 . S
H589 C575 0.958 . S
H590 C575 0.961 . S
H591 C575 0.960 . S
C592 C593 1.391 . S
C592 C594 1.394 . S
C592 H608 0.931 . S
C593 C592 1.391 . S
C593 C597 1.376 . S
C594 C592 1.394 . S
C594 C595 1.369 . S
C594 C598 1.531 . S
C595 C594 1.369 . S
C595 C596 1.410 . S
C595 C603 1.503 . S
C596 C595 1.410 . S
C596 C597 1.392 . S
C596 C599 1.511 . S
C597 C593 1.376 . S
C597 C596 1.392 . S
C597 H609 0.929 . S
C598 C594 1.531 . S
C598 H610 0.960 . S
C598 H611 0.962 . S
C598 H612 0.960 . S
C599 C596 1.511 . S
C599 H613 0.961 . S
C599 H614 0.961 . S
C599 H615 0.961 . S
C600 C601 1.370 . S
C600 C602 1.363 . S
C600 H616 0.931 . S
C601 C600 1.370 . S
C601 C605 1.408 . S
C602 C600 1.363 . S
C602 C603 1.370 . S
C602 C606 1.524 . S
C603 C595 1.503 . S
C603 C602 1.370 . S
C603 C604 1.403 . S
C604 C603 1.403 . S
C604 C605 1.404 . S
C604 C607 1.539 . S
C605 C601 1.408 . S
C605 C604 1.404 . S
C605 H617 0.930 . S
C606 C602 1.524 . S
C606 H618 0.956 . S
C606 H619 0.961 . S
C606 H620 0.961 . S
C607 C604 1.539 . S
C607 H621 0.958 . S
C607 H622 0.961 . S
C607 H623 0.960 . S
H608 C592 0.931 . S
H609 C597 0.929 . S
H610 C598 0.960 . S
H611 C598 0.962 . S
H612 C598 0.960 . S
H613 C599 0.961 . S
H614 C599 0.961 . S
H615 C599 0.961 . S
H616 C600 0.931 . S
H617 C605 0.930 . S
H618 C606 0.956 . S
H619 C606 0.961 . S
H620 C606 0.961 . S
H621 C607 0.958 . S
H622 C607 0.961 . S
H623 C607 0.960 . S
C624 C625 1.391 . S
C624 C626 1.394 . S
C624 H640 0.931 . S
C625 C624 1.391 . S
C625 C629 1.376 . S
C626 C624 1.394 . S
C626 C627 1.369 . S
C626 C630 1.531 . S
C627 C626 1.369 . S
C627 C628 1.410 . S
C627 C635 1.503 . S
C628 C627 1.410 . S
C628 C629 1.392 . S
C628 C631 1.511 . S
C629 C625 1.376 . S
C629 C628 1.392 . S
C629 H641 0.929 . S
C630 C626 1.531 . S
C630 H642 0.960 . S
C630 H643 0.962 . S
C630 H644 0.960 . S
C631 C628 1.511 . S
C631 H645 0.961 . S
C631 H646 0.961 . S
C631 H647 0.961 . S
C632 C633 1.370 . S
C632 C634 1.363 . S
C632 H648 0.931 . S
C633 C632 1.370 . S
C633 C637 1.408 . S
C634 C632 1.363 . S
C634 C635 1.370 . S
C634 C638 1.524 . S
C635 C627 1.503 . S
C635 C634 1.370 . S
C635 C636 1.403 . S
C636 C635 1.403 . S
C636 C637 1.404 . S
C636 C639 1.539 . S
C637 C633 1.408 . S
C637 C636 1.404 . S
C637 H649 0.930 . S
C638 C634 1.524 . S
C638 H650 0.956 . S
C638 H651 0.961 . S
C638 H652 0.961 . S
C639 C636 1.539 . S
C639 H653 0.958 . S
C639 H654 0.961 . S
C639 H655 0.960 . S
H640 C624 0.931 . S
H641 C629 0.929 . S
H642 C630 0.960 . S
H643 C630 0.962 . S
H644 C630 0.960 . S
H645 C631 0.961 . S
H646 C631 0.961 . S
H647 C631 0.961 . S
H648 C632 0.931 . S
H649 C637 0.930 . S
H650 C638 0.956 . S
H651 C638 0.961 . S
H652 C638 0.961 . S
H653 C639 0.958 . S
H654 C639 0.961 . S
H655 C639 0.960 . S
C656 C657 1.391 . S
C656 C658 1.394 . S
C656 H672 0.931 . S
C657 C656 1.391 . S
C657 C661 1.376 . S
C658 C656 1.394 . S
C658 C659 1.369 . S
C658 C662 1.531 . S
C659 C658 1.369 . S
C659 C660 1.410 . S
C659 C667 1.503 . S
C660 C659 1.410 . S
C660 C661 1.392 . S
C660 C663 1.511 . S
C661 C657 1.376 . S
C661 C660 1.392 . S
C661 H673 0.929 . S
C662 C658 1.531 . S
C662 H674 0.960 . S
C662 H675 0.962 . S
C662 H676 0.960 . S
C663 C660 1.511 . S
C663 H677 0.961 . S
C663 H678 0.961 . S
C663 H679 0.961 . S
C664 C665 1.370 . S
C664 C666 1.363 . S
C664 H680 0.931 . S
C665 C664 1.370 . S
C665 C669 1.408 . S
C666 C664 1.363 . S
C666 C667 1.370 . S
C666 C670 1.524 . S
C667 C659 1.503 . S
C667 C666 1.370 . S
C667 C668 1.403 . S
C668 C667 1.403 . S
C668 C669 1.404 . S
C668 C671 1.539 . S
C669 C665 1.408 . S
C669 C668 1.404 . S
C669 H681 0.930 . S
C670 C666 1.524 . S
C670 H682 0.956 . S
C670 H683 0.961 . S
C670 H684 0.961 . S
C671 C668 1.539 . S
C671 H685 0.958 . S
C671 H686 0.961 . S
C671 H687 0.960 . S
H672 C656 0.931 . S
H673 C661 0.929 . S
H674 C662 0.960 . S
H675 C662 0.962 . S
H676 C662 0.960 . S
H677 C663 0.961 . S
H678 C663 0.961 . S
H679 C663 0.961 . S
H680 C664 0.931 . S
H681 C669 0.930 . S
H682 C670 0.956 . S
H683 C670 0.961 . S
H684 C670 0.961 . S
H685 C671 0.958 . S
H686 C671 0.961 . S
H687 C671 0.960 . S
C688 C689 1.391 . S
C688 C690 1.394 . S
C688 H704 0.931 . S
C689 C688 1.391 . S
C689 C693 1.376 . S
C690 C688 1.394 . S
C690 C691 1.369 . S
C690 C694 1.531 . S
C691 C690 1.369 . S
C691 C692 1.410 . S
C691 C699 1.503 . S
C692 C691 1.410 . S
C692 C693 1.392 . S
C692 C695 1.511 . S
C693 C689 1.376 . S
C693 C692 1.392 . S
C693 H705 0.929 . S
C694 C690 1.531 . S
C694 H706 0.960 . S
C694 H707 0.962 . S
C694 H708 0.960 . S
C695 C692 1.511 . S
C695 H709 0.961 . S
C695 H710 0.961 . S
C695 H711 0.961 . S
C696 C697 1.370 . S
C696 C698 1.363 . S
C696 H712 0.931 . S
C697 C696 1.370 . S
C697 C701 1.408 . S
C698 C696 1.363 . S
C698 C699 1.370 . S
C698 C702 1.524 . S
C699 C691 1.503 . S
C699 C698 1.370 . S
C699 C700 1.403 . S
C700 C699 1.403 . S
C700 C701 1.404 . S
C700 C703 1.539 . S
C701 C697 1.408 . S
C701 C700 1.404 . S
C701 H713 0.930 . S
C702 C698 1.524 . S
C702 H714 0.956 . S
C702 H715 0.961 . S
C702 H716 0.961 . S
C703 C700 1.539 . S
C703 H717 0.958 . S
C703 H718 0.961 . S
C703 H719 0.960 . S
H704 C688 0.931 . S
H705 C693 0.929 . S
H706 C694 0.960 . S
H707 C694 0.962 . S
H708 C694 0.960 . S
H709 C695 0.961 . S
H710 C695 0.961 . S
H711 C695 0.961 . S
H712 C696 0.931 . S
H713 C701 0.930 . S
H714 C702 0.956 . S
H715 C702 0.961 . S
H716 C702 0.961 . S
H717 C703 0.958 . S
H718 C703 0.961 . S
H719 C703 0.960 . S
C720 C721 1.391 . S
C720 C722 1.394 . S
C720 H736 0.931 . S
C721 C720 1.391 . S
C721 C725 1.376 . S
C722 C720 1.394 . S
C722 C723 1.369 . S
C722 C726 1.531 . S
C723 C722 1.369 . S
C723 C724 1.410 . S
C723 C731 1.503 . S
C724 C723 1.410 . S
C724 C725 1.392 . S
C724 C727 1.511 . S
C725 C721 1.376 . S
C725 C724 1.392 . S
C725 H737 0.929 . S
C726 C722 1.531 . S
C726 H738 0.960 . S
C726 H739 0.962 . S
C726 H740 0.960 . S
C727 C724 1.511 . S
C727 H741 0.961 . S
C727 H742 0.961 . S
C727 H743 0.961 . S
C728 C729 1.370 . S
C728 C730 1.363 . S
C728 H744 0.931 . S
C729 C728 1.370 . S
C729 C733 1.408 . S
C730 C728 1.363 . S
C730 C731 1.370 . S
C730 C734 1.524 . S
C731 C723 1.503 . S
C731 C730 1.370 . S
C731 C732 1.403 . S
C732 C731 1.403 . S
C732 C733 1.404 . S
C732 C735 1.539 . S
C733 C729 1.408 . S
C733 C732 1.404 . S
C733 H745 0.930 . S
C734 C730 1.524 . S
C734 H746 0.956 . S
C734 H747 0.961 . S
C734 H748 0.961 . S
C735 C732 1.539 . S
C735 H749 0.958 . S
C735 H750 0.961 . S
C735 H751 0.960 . S
H736 C720 0.931 . S
H737 C725 0.929 . S
H738 C726 0.960 . S
H739 C726 0.962 . S
H740 C726 0.960 . S
H741 C727 0.961 . S
H742 C727 0.961 . S
H743 C727 0.961 . S
H744 C728 0.931 . S
H745 C733 0.930 . S
H746 C734 0.956 . S
H747 C734 0.961 . S
H748 C734 0.961 . S
H749 C735 0.958 . S
H750 C735 0.961 . S
H751 C735 0.960 . S
C752 C753 1.391 . S
C752 C754 1.394 . S
C752 H768 0.931 . S
C753 C752 1.391 . S
C753 C757 1.376 . S
C754 C752 1.394 . S
C754 C755 1.369 . S
C754 C758 1.531 . S
C755 C754 1.369 . S
C755 C756 1.410 . S
C755 C763 1.503 . S
C756 C755 1.410 . S
C756 C757 1.392 . S
C756 C759 1.511 . S
C757 C753 1.376 . S
C757 C756 1.392 . S
C757 H769 0.929 . S
C758 C754 1.531 . S
C758 H770 0.960 . S
C758 H771 0.962 . S
C758 H772 0.960 . S
C759 C756 1.511 . S
C759 H773 0.961 . S
C759 H774 0.961 . S
C759 H775 0.961 . S
C760 C761 1.370 . S
C760 C762 1.363 . S
C760 H776 0.931 . S
C761 C760 1.370 . S
C761 C765 1.408 . S
C762 C760 1.363 . S
C762 C763 1.370 . S
C762 C766 1.524 . S
C763 C755 1.503 . S
C763 C762 1.370 . S
C763 C764 1.403 . S
C764 C763 1.403 . S
C764 C765 1.404 . S
C764 C767 1.539 . S
C765 C761 1.408 . S
C765 C764 1.404 . S
C765 H777 0.930 . S
C766 C762 1.524 . S
C766 H778 0.956 . S
C766 H779 0.961 . S
C766 H780 0.961 . S
C767 C764 1.539 . S
C767 H781 0.958 . S
C767 H782 0.961 . S
C767 H783 0.960 . S
H768 C752 0.931 . S
H769 C757 0.929 . S
H770 C758 0.960 . S
H771 C758 0.962 . S
H772 C758 0.960 . S
H773 C759 0.961 . S
H774 C759 0.961 . S
H775 C759 0.961 . S
H776 C760 0.931 . S
H777 C765 0.930 . S
H778 C766 0.956 . S
H779 C766 0.961 . S
H780 C766 0.961 . S
H781 C767 0.958 . S
H782 C767 0.961 . S
H783 C767 0.960 . S
C784 C785 1.391 . S
C784 C786 1.394 . S
C784 H800 0.931 . S
C785 C784 1.391 . S
C785 C789 1.376 . S
C786 C784 1.394 . S
C786 C787 1.369 . S
C786 C790 1.531 . S
C787 C786 1.369 . S
C787 C788 1.410 . S
C787 C795 1.503 . S
C788 C787 1.410 . S
C788 C789 1.392 . S
C788 C791 1.511 . S
C789 C785 1.376 . S
C789 C788 1.392 . S
C789 H801 0.929 . S
C790 C786 1.531 . S
C790 H802 0.960 . S
C790 H803 0.962 . S
C790 H804 0.960 . S
C791 C788 1.511 . S
C791 H805 0.961 . S
C791 H806 0.961 . S
C791 H807 0.961 . S
C792 C793 1.370 . S
C792 C794 1.363 . S
C792 H808 0.931 . S
C793 C792 1.370 . S
C793 C797 1.408 . S
C794 C792 1.363 . S
C794 C795 1.370 . S
C794 C798 1.524 . S
C795 C787 1.503 . S
C795 C794 1.370 . S
C795 C796 1.403 . S
C796 C795 1.403 . S
C796 C797 1.404 . S
C796 C799 1.539 . S
C797 C793 1.408 . S
C797 C796 1.404 . S
C797 H809 0.930 . S
C798 C794 1.524 . S
C798 H810 0.956 . S
C798 H811 0.961 . S
C798 H812 0.961 . S
C799 C796 1.539 . S
C799 H813 0.958 . S
C799 H814 0.961 . S
C799 H815 0.960 . S
H800 C784 0.931 . S
H801 C789 0.929 . S
H802 C790 0.960 . S
H803 C790 0.962 . S
H804 C790 0.960 . S
H805 C791 0.961 . S
H806 C791 0.961 . S
H807 C791 0.961 . S
H808 C792 0.931 . S
H809 C797 0.930 . S
H810 C798 0.956 . S
H811 C798 0.961 . S
H812 C798 0.961 . S
H813 C799 0.958 . S
H814 C799 0.961 . S
H815 C799 0.960 . S
C816 C817 1.391 . S
C816 C818 1.394 . S
C816 H832 0.931 . S
C817 C816 1.391 . S
C817 C821 1.376 . S
C818 C816 1.394 . S
C818 C819 1.369 . S
C818 C822 1.531 . S
C819 C818 1.369 . S
C819 C820 1.410 . S
C819 C827 1.503 . S
C820 C819 1.410 . S
C820 C821 1.392 . S
C820 C823 1.511 . S
C821 C817 1.376 . S
C821 C820 1.392 . S
C821 H833 0.929 . S
C822 C818 1.531 . S
C822 H834 0.960 . S
C822 H835 0.962 . S
C822 H836 0.960 . S
C823 C820 1.511 . S
C823 H837 0.961 . S
C823 H838 0.961 . S
C823 H839 0.961 . S
C824 C825 1.370 . S
C824 C826 1.363 . S
C824 H840 0.931 . S
C825 C824 1.370 . S
C825 C829 1.408 . S
C826 C824 1.363 . S
C826 C827 1.370 . S
C826 C830 1.524 . S
C827 C819 1.503 . S
C827 C826 1.370 . S
C827 C828 1.403 . S
C828 C827 1.403 . S
C828 C829 1.404 . S
C828 C831 1.539 . S
C829 C825 1.408 . S
C829 C828 1.404 . S
C829 H841 0.930 . S
C830 C826 1.524 . S
C830 H842 0.956 . S
C830 H843 0.961 . S
C830 H844 0.961 . S
C831 C828 1.539 . S
C831 H845 0.958 . S
C831 H846 0.961 . S
C831 H847 0.960 . S
H832 C816 0.931 . S
H833 C821 0.929 . S
H834 C822 0.960 . S
H835 C822 0.962 . S
H836 C822 0.960 . S
H837 C823 0.961 . S
H838 C823 0.961 . S
H839 C823 0.961 . S
H840 C824 0.931 . S
H841 C829 0.930 . S
H842 C830 0.956 . S
H843 C830 0.961 . S
H844 C830 0.961 . S
H845 C831 0.958 . S
H846 C831 0.961 . S
H847 C831 0.960 . S
C848 C849 1.391 . S
C848 C850 1.394 . S
C848 H864 0.931 . S
C849 C848 1.391 . S
C849 C853 1.376 . S
C850 C848 1.394 . S
C850 C851 1.369 . S
C850 C854 1.531 . S
C851 C850 1.369 . S
C851 C852 1.410 . S
C851 C859 1.503 . S
C852 C851 1.410 . S
C852 C853 1.392 . S
C852 C855 1.511 . S
C853 C849 1.376 . S
C853 C852 1.392 . S
C853 H865 0.929 . S
C854 C850 1.531 . S
C854 H866 0.960 . S
C854 H867 0.962 . S
C854 H868 0.960 . S
C855 C852 1.511 . S
C855 H869 0.961 . S
C855 H870 0.961 . S
C855 H871 0.961 . S
C856 C857 1.370 . S
C856 C858 1.363 . S
C856 H872 0.931 . S
C857 C856 1.370 . S
C857 C861 1.408 . S
C858 C856 1.363 . S
C858 C859 1.370 . S
C858 C862 1.524 . S
C859 C851 1.503 . S
C859 C858 1.370 . S
C859 C860 1.403 . S
C860 C859 1.403 . S
C860 C861 1.404 . S
C860 C863 1.539 . S
C861 C857 1.408 . S
C861 C860 1.404 . S
C861 H873 0.930 . S
C862 C858 1.524 . S
C862 H874 0.956 . S
C862 H875 0.961 . S
C862 H876 0.961 . S
C863 C860 1.539 . S
C863 H877 0.958 . S
C863 H878 0.961 . S
C863 H879 0.960 . S
H864 C848 0.931 . S
H865 C853 0.929 . S
H866 C854 0.960 . S
H867 C854 0.962 . S
H868 C854 0.960 . S
H869 C855 0.961 . S
H870 C855 0.961 . S
H871 C855 0.961 . S
H872 C856 0.931 . S
H873 C861 0.930 . S
H874 C862 0.956 . S
H875 C862 0.961 . S
H876 C862 0.961 . S
H877 C863 0.958 . S
H878 C863 0.961 . S
H879 C863 0.960 . S
C880 C881 1.391 . S
C880 C882 1.394 . S
C880 H896 0.931 . S
C881 C880 1.391 . S
C881 C885 1.376 . S
C882 C880 1.394 . S
C882 C883 1.369 . S
C882 C886 1.531 . S
C883 C882 1.369 . S
C883 C884 1.410 . S
C883 C891 1.503 . S
C884 C883 1.410 . S
C884 C885 1.392 . S
C884 C887 1.511 . S
C885 C881 1.376 . S
C885 C884 1.392 . S
C885 H897 0.929 . S
C886 C882 1.531 . S
C886 H898 0.960 . S
C886 H899 0.962 . S
C886 H900 0.960 . S
C887 C884 1.511 . S
C887 H901 0.961 . S
C887 H902 0.961 . S
C887 H903 0.961 . S
C888 C889 1.370 . S
C888 C890 1.363 . S
C888 H904 0.931 . S
C889 C888 1.370 . S
C889 C893 1.408 . S
C890 C888 1.363 . S
C890 C891 1.370 . S
C890 C894 1.524 . S
C891 C883 1.503 . S
C891 C890 1.370 . S
C891 C892 1.403 . S
C892 C891 1.403 . S
C892 C893 1.404 . S
C892 C895 1.539 . S
C893 C889 1.408 . S
C893 C892 1.404 . S
C893 H905 0.930 . S
C894 C890 1.524 . S
C894 H906 0.956 . S
C894 H907 0.961 . S
C894 H908 0.961 . S
C895 C892 1.539 . S
C895 H909 0.958 . S
C895 H910 0.961 . S
C895 H911 0.960 . S
H896 C880 0.931 . S
H897 C885 0.929 . S
H898 C886 0.960 . S
H899 C886 0.962 . S
H900 C886 0.960 . S
H901 C887 0.961 . S
H902 C887 0.961 . S
H903 C887 0.961 . S
H904 C888 0.931 . S
H905 C893 0.930 . S
H906 C894 0.956 . S
H907 C894 0.961 . S
H908 C894 0.961 . S
H909 C895 0.958 . S
H910 C895 0.961 . S
H911 C895 0.960 . S
C912 C913 1.391 . S
C912 C914 1.394 . S
C912 H928 0.931 . S
C913 C912 1.391 . S
C913 C917 1.376 . S
C914 C912 1.394 . S
C914 C915 1.369 . S
C914 C918 1.531 . S
C915 C914 1.369 . S
C915 C916 1.410 . S
C915 C923 1.503 . S
C916 C915 1.410 . S
C916 C917 1.392 . S
C916 C919 1.511 . S
C917 C913 1.376 . S
C917 C916 1.392 . S
C917 H929 0.929 . S
C918 C914 1.531 . S
C918 H930 0.960 . S
C918 H931 0.962 . S
C918 H932 0.960 . S
C919 C916 1.511 . S
C919 H933 0.961 . S
C919 H934 0.961 . S
C919 H935 0.961 . S
C920 C921 1.370 . S
C920 C922 1.363 . S
C920 H936 0.931 . S
C921 C920 1.370 . S
C921 C925 1.408 . S
C922 C920 1.363 . S
C922 C923 1.370 . S
C922 C926 1.524 . S
C923 C915 1.503 . S
C923 C922 1.370 . S
C923 C924 1.403 . S
C924 C923 1.403 . S
C924 C925 1.404 . S
C924 C927 1.539 . S
C925 C921 1.408 . S
C925 C924 1.404 . S
C925 H937 0.930 . S
C926 C922 1.524 . S
C926 H938 0.956 . S
C926 H939 0.961 . S
C926 H940 0.961 . S
C927 C924 1.539 . S
C927 H941 0.958 . S
C927 H942 0.961 . S
C927 H943 0.960 . S
H928 C912 0.931 . S
H929 C917 0.929 . S
H930 C918 0.960 . S
H931 C918 0.962 . S
H932 C918 0.960 . S
H933 C919 0.961 . S
H934 C919 0.961 . S
H935 C919 0.961 . S
H936 C920 0.931 . S
H937 C925 0.930 . S
H938 C926 0.956 . S
H939 C926 0.961 . S
H940 C926 0.961 . S
H941 C927 0.958 . S
H942 C927 0.961 . S
H943 C927 0.960 . S
C944 C945 1.391 . S
C944 C946 1.394 . S
C944 H960 0.931 . S
C945 C944 1.391 . S
C945 C949 1.376 . S
C946 C944 1.394 . S
C946 C947 1.369 . S
C946 C950 1.531 . S
C947 C946 1.369 . S
C947 C948 1.410 . S
C947 C955 1.503 . S
C948 C947 1.410 . S
C948 C949 1.392 . S
C948 C951 1.511 . S
C949 C945 1.376 . S
C949 C948 1.392 . S
C949 H961 0.929 . S
C950 C946 1.531 . S
C950 H962 0.960 . S
C950 H963 0.962 . S
C950 H964 0.960 . S
C951 C948 1.511 . S
C951 H965 0.961 . S
C951 H966 0.961 . S
C951 H967 0.961 . S
C952 C953 1.370 . S
C952 C954 1.363 . S
C952 H968 0.931 . S
C953 C952 1.370 . S
C953 C957 1.408 . S
C954 C952 1.363 . S
C954 C955 1.370 . S
C954 C958 1.524 . S
C955 C947 1.503 . S
C955 C954 1.370 . S
C955 C956 1.403 . S
C956 C955 1.403 . S
C956 C957 1.404 . S
C956 C959 1.539 . S
C957 C953 1.408 . S
C957 C956 1.404 . S
C957 H969 0.930 . S
C958 C954 1.524 . S
C958 H970 0.956 . S
C958 H971 0.961 . S
C958 H972 0.961 . S
C959 C956 1.539 . S
C959 H973 0.958 . S
C959 H974 0.961 . S
C959 H975 0.960 . S
H960 C944 0.931 . S
H961 C949 0.929 . S
H962 C950 0.960 . S
H963 C950 0.962 . S
H964 C950 0.960 . S
H965 C951 0.961 . S
H966 C951 0.961 . S
H967 C951 0.961 . S
H968 C952 0.931 . S
H969 C957 0.930 . S
H970 C958 0.956 . S
H971 C958 0.961 . S
H972 C958 0.961 . S
H973 C959 0.958 . S
H974 C959 0.961 . S
H975 C959 0.960 . S
C976 C977 1.391 . S
C976 C978 1.394 . S
C976 H992 0.931 . S
C977 C976 1.391 . S
C977 C981 1.376 . S
C978 C976 1.394 . S
C978 C979 1.369 . S
C978 C982 1.531 . S
C979 C978 1.369 . S
C979 C980 1.410 . S
C979 C987 1.503 . S
C980 C979 1.410 . S
C980 C981 1.392 . S
C980 C983 1.511 . S
C981 C977 1.376 . S
C981 C980 1.392 . S
C981 H993 0.929 . S
C982 C978 1.531 . S
C982 H994 0.960 . S
C982 H995 0.962 . S
C982 H996 0.960 . S
C983 C980 1.511 . S
C983 H997 0.961 . S
C983 H998 0.961 . S
C983 H999 0.961 . S
C984 C985 1.370 . S
C984 C986 1.363 . S
C984 H1000 0.931 . S
C985 C984 1.370 . S
C985 C989 1.408 . S
C986 C984 1.363 . S
C986 C987 1.370 . S
C986 C990 1.524 . S
C987 C979 1.503 . S
C987 C986 1.370 . S
C987 C988 1.403 . S
C988 C987 1.403 . S
C988 C989 1.404 . S
C988 C991 1.539 . S
C989 C985 1.408 . S
C989 C988 1.404 . S
C989 H1001 0.930 . S
C990 C986 1.524 . S
C990 H1002 0.956 . S
C990 H1003 0.961 . S
C990 H1004 0.961 . S
C991 C988 1.539 . S
C991 H1005 0.958 . S
C991 H1006 0.961 . S
C991 H1007 0.960 . S
H992 C976 0.931 . S
H993 C981 0.929 . S
H994 C982 0.960 . S
H995 C982 0.962 . S
H996 C982 0.960 . S
H997 C983 0.961 . S
H998 C983 0.961 . S
H999 C983 0.961 . S
H1000 C984 0.931 . S
H1001 C989 0.930 . S
H1002 C990 0.956 . S
H1003 C990 0.961 . S
H1004 C990 0.961 . S
H1005 C991 0.958 . S
H1006 C991 0.961 . S
H1007 C991 0.960 . S
C1008 C1009 1.391 . S
C1008 C1010 1.394 . S
C1008 H1024 0.931 . S
C1009 C1008 1.391 . S
C1009 C1013 1.376 . S
C1010 C1008 1.394 . S
C1010 C1011 1.369 . S
C1010 C1014 1.531 . S
C1011 C1010 1.369 . S
C1011 C1012 1.410 . S
C1011 C1019 1.503 . S
C1012 C1011 1.410 . S
C1012 C1013 1.392 . S
C1012 C1015 1.511 . S
C1013 C1009 1.376 . S
C1013 C1012 1.392 . S
C1013 H1025 0.929 . S
C1014 C1010 1.531 . S
C1014 H1026 0.960 . S
C1014 H1027 0.962 . S
C1014 H1028 0.960 . S
C1015 C1012 1.511 . S
C1015 H1029 0.961 . S
C1015 H1030 0.961 . S
C1015 H1031 0.961 . S
C1016 C1017 1.370 . S
C1016 C1018 1.363 . S
C1016 H1032 0.931 . S
C1017 C1016 1.370 . S
C1017 C1021 1.408 . S
C1018 C1016 1.363 . S
C1018 C1019 1.370 . S
C1018 C1022 1.524 . S
C1019 C1011 1.503 . S
C1019 C1018 1.370 . S
C1019 C1020 1.403 . S
C1020 C1019 1.403 . S
C1020 C1021 1.404 . S
C1020 C1023 1.539 . S
C1021 C1017 1.408 . S
C1021 C1020 1.404 . S
C1021 H1033 0.930 . S
C1022 C1018 1.524 . S
C1022 H1034 0.956 . S
C1022 H1035 0.961 . S
C1022 H1036 0.961 . S
C1023 C1020 1.539 . S
C1023 H1037 0.958 . S
C1023 H1038 0.961 . S
C1023 H1039 0.960 . S
H1024 C1008 0.931 . S
H1025 C1013 0.929 . S
H1026 C1014 0.960 . S
H1027 C1014 0.962 . S
H1028 C1014 0.960 . S
H1029 C1015 0.961 . S
H1030 C1015 0.961 . S
H1031 C1015 0.961 . S
H1032 C1016 0.931 . S
H1033 C1021 0.930 . S
H1034 C1022 0.956 . S
H1035 C1022 0.961 . S
H1036 C1022 0.961 . S
H1037 C1023 0.958 . S
H1038 C1023 0.961 . S
H1039 C1023 0.960 . S
C1040 C1041 1.391 . S
C1040 C1042 1.394 . S
C1040 H1056 0.931 . S
C1041 C1040 1.391 . S
C1041 C1045 1.376 . S
C1042 C1040 1.394 . S
C1042 C1043 1.369 . S
C1042 C1046 1.531 . S
C1043 C1042 1.369 . S
C1043 C1044 1.410 . S
C1043 C1051 1.503 . S
C1044 C1043 1.410 . S
C1044 C1045 1.392 . S
C1044 C1047 1.511 . S
C1045 C1041 1.376 . S
C1045 C1044 1.392 . S
C1045 H1057 0.929 . S
C1046 C1042 1.531 . S
C1046 H1058 0.960 . S
C1046 H1059 0.962 . S
C1046 H1060 0.960 . S
C1047 C1044 1.511 . S
C1047 H1061 0.961 . S
C1047 H1062 0.961 . S
C1047 H1063 0.961 . S
C1048 C1049 1.370 . S
C1048 C1050 1.363 . S
C1048 H1064 0.931 . S
C1049 C1048 1.370 . S
C1049 C1053 1.408 . S
C1050 C1048 1.363 . S
C1050 C1051 1.370 . S
C1050 C1054 1.524 . S
C1051 C1043 1.503 . S
C1051 C1050 1.370 . S
C1051 C1052 1.403 . S
C1052 C1051 1.403 . S
C1052 C1053 1.404 . S
C1052 C1055 1.539 . S
C1053 C1049 1.408 . S
C1053 C1052 1.404 . S
C1053 H1065 0.930 . S
C1054 C1050 1.524 . S
C1054 H1066 0.956 . S
C1054 H1067 0.961 . S
C1054 H1068 0.961 . S
C1055 C1052 1.539 . S
C1055 H1069 0.958 . S
C1055 H1070 0.961 . S
C1055 H1071 0.960 . S
H1056 C1040 0.931 . S
H1057 C1045 0.929 . S
H1058 C1046 0.960 . S
H1059 C1046 0.962 . S
H1060 C1046 0.960 . S
H1061 C1047 0.961 . S
H1062 C1047 0.961 . S
H1063 C1047 0.961 . S
H1064 C1048 0.931 . S
H1065 C1053 0.930 . S
H1066 C1054 0.956 . S
H1067 C1054 0.961 . S
H1068 C1054 0.961 . S
H1069 C1055 0.958 . S
H1070 C1055 0.961 . S
H1071 C1055 0.960 . S
C1072 C1073 1.391 . S
C1072 C1074 1.394 . S
C1072 H1088 0.931 . S
C1073 C1072 1.391 . S
C1073 C1077 1.376 . S
C1074 C1072 1.394 . S
C1074 C1075 1.369 . S
C1074 C1078 1.531 . S
C1075 C1074 1.369 . S
C1075 C1076 1.410 . S
C1075 C1083 1.503 . S
C1076 C1075 1.410 . S
C1076 C1077 1.392 . S
C1076 C1079 1.511 . S
C1077 C1073 1.376 . S
C1077 C1076 1.392 . S
C1077 H1089 0.929 . S
C1078 C1074 1.531 . S
C1078 H1090 0.960 . S
C1078 H1091 0.962 . S
C1078 H1092 0.960 . S
C1079 C1076 1.511 . S
C1079 H1093 0.961 . S
C1079 H1094 0.961 . S
C1079 H1095 0.961 . S
C1080 C1081 1.370 . S
C1080 C1082 1.363 . S
C1080 H1096 0.931 . S
C1081 C1080 1.370 . S
C1081 C1085 1.408 . S
C1082 C1080 1.363 . S
C1082 C1083 1.370 . S
C1082 C1086 1.524 . S
C1083 C1075 1.503 . S
C1083 C1082 1.370 . S
C1083 C1084 1.403 . S
C1084 C1083 1.403 . S
C1084 C1085 1.404 . S
C1084 C1087 1.539 . S
C1085 C1081 1.408 . S
C1085 C1084 1.404 . S
C1085 H1097 0.930 . S
C1086 C1082 1.524 . S
C1086 H1098 0.956 . S
C1086 H1099 0.961 . S
C1086 H1100 0.961 . S
C1087 C1084 1.539 . S
C1087 H1101 0.958 . S
C1087 H1102 0.961 . S
C1087 H1103 0.960 . S
H1088 C1072 0.931 . S
H1089 C1077 0.929 . S
H1090 C1078 0.960 . S
H1091 C1078 0.962 . S
H1092 C1078 0.960 . S
H1093 C1079 0.961 . S
H1094 C1079 0.961 . S
H1095 C1079 0.961 . S
H1096 C1080 0.931 . S
H1097 C1085 0.930 . S
H1098 C1086 0.956 . S
H1099 C1086 0.961 . S
H1100 C1086 0.961 . S
H1101 C1087 0.958 . S
H1102 C1087 0.961 . S
H1103 C1087 0.960 . S
C1104 C1105 1.391 . S
C1104 C1106 1.394 . S
C1104 H1120 0.931 . S
C1105 C1104 1.391 . S
C1105 C1109 1.376 . S
C1106 C1104 1.394 . S
C1106 C1107 1.369 . S
C1106 C1110 1.531 . S
C1107 C1106 1.369 . S
C1107 C1108 1.410 . S
C1107 C1115 1.503 1_455 S
C1108 C1107 1.410 . S
C1108 C1109 1.392 . S
C1108 C1111 1.511 . S
C1109 C1105 1.376 . S
C1109 C1108 1.392 . S
C1109 H1121 0.929 . S
C1110 C1106 1.531 . S
C1110 H1122 0.960 1_455 S
C1110 H1123 0.962 . S
C1110 H1124 0.960 . S
C1111 C1108 1.511 . S
C1111 H1125 0.961 . S
C1111 H1126 0.961 . S
C1111 H1127 0.961 . S
C1112 C1113 1.370 . S
C1112 C1114 1.363 . S
C1112 H1128 0.931 . S
C1113 C1112 1.370 . S
C1113 C1117 1.408 . S
C1114 C1112 1.363 . S
C1114 C1115 1.370 . S
C1114 C1118 1.524 . S
C1115 C1107 1.503 1_655 S
C1115 C1114 1.370 . S
C1115 C1116 1.403 . S
C1116 C1115 1.403 . S
C1116 C1117 1.404 . S
C1116 C1119 1.539 . S
C1117 C1113 1.408 . S
C1117 C1116 1.404 . S
C1117 H1129 0.930 . S
C1118 C1114 1.524 . S
C1118 H1130 0.956 . S
C1118 H1131 0.947 1_655 S
C1118 H1132 0.961 . S
C1119 C1116 1.539 . S
C1119 H1133 0.958 . S
C1119 H1134 0.961 . S
C1119 H1135 0.960 1_655 S
H1120 C1104 0.931 . S
H1121 C1109 0.929 . S
H1122 C1110 0.960 1_655 S
H1123 C1110 0.962 . S
H1124 C1110 0.960 . S
H1125 C1111 0.961 . S
H1126 C1111 0.961 . S
H1127 C1111 0.961 . S
H1128 C1112 0.931 . S
H1129 C1117 0.930 . S
H1130 C1118 0.956 . S
H1131 C1118 0.947 1_455 S
H1132 C1118 0.961 . S
H1133 C1119 0.958 . S
H1134 C1119 0.961 . S
H1135 C1119 0.960 1_455 S
C1136 C1137 1.391 . S
C1136 C1138 1.394 . S
C1136 H1152 0.931 . S
C1137 C1136 1.391 . S
C1137 C1141 1.376 . S
C1138 C1136 1.394 . S
C1138 C1139 1.369 . S
C1138 C1142 1.531 . S
C1139 C1138 1.369 . S
C1139 C1140 1.410 . S
C1139 C1147 1.503 1_545 S
C1140 C1139 1.410 . S
C1140 C1141 1.392 . S
C1140 C1143 1.511 . S
C1141 C1137 1.376 . S
C1141 C1140 1.392 . S
C1141 H1153 0.929 . S
C1142 C1138 1.531 . S
C1142 H1154 0.960 1_545 S
C1142 H1155 0.962 . S
C1142 H1156 0.960 . S
C1143 C1140 1.511 . S
C1143 H1157 0.961 . S
C1143 H1158 0.961 . S
C1143 H1159 0.961 . S
C1144 C1145 1.370 . S
C1144 C1146 1.363 . S
C1144 H1160 0.931 . S
C1145 C1144 1.370 . S
C1145 C1149 1.408 . S
C1146 C1144 1.363 . S
C1146 C1147 1.370 . S
C1146 C1150 1.524 . S
C1147 C1139 1.503 1_565 S
C1147 C1146 1.370 . S
C1147 C1148 1.403 . S
C1148 C1147 1.403 . S
C1148 C1149 1.404 . S
C1148 C1151 1.539 . S
C1149 C1145 1.408 . S
C1149 C1148 1.404 . S
C1149 H1161 0.930 . S
C1150 C1146 1.524 . S
C1150 H1162 0.956 . S
C1150 H1163 0.961 1_565 S
C1150 H1164 0.961 . S
C1151 C1148 1.539 . S
C1151 H1165 0.958 . S
C1151 H1166 0.961 . S
C1151 H1167 0.960 1_565 S
H1152 C1136 0.931 . S
H1153 C1141 0.929 . S
H1154 C1142 0.960 1_565 S
H1155 C1142 0.962 . S
H1156 C1142 0.960 . S
H1157 C1143 0.961 . S
H1158 C1143 0.961 . S
H1159 C1143 0.961 . S
H1160 C1144 0.931 . S
H1161 C1149 0.930 . S
H1162 C1150 0.956 . S
H1163 C1150 0.961 1_545 S
H1164 C1150 0.961 . S
H1165 C1151 0.958 . S
H1166 C1151 0.961 . S
H1167 C1151 0.960 1_545 S
C1168 C1169 1.391 . S
C1168 C1170 1.394 . S
C1168 H1184 0.931 . S
C1169 C1168 1.391 . S
C1169 C1173 1.376 . S
C1170 C1168 1.394 . S
C1170 C1171 1.369 . S
C1170 C1174 1.531 . S
C1171 C1170 1.369 . S
C1171 C1172 1.410 . S
C1171 C1179 1.503 1_655 S
C1172 C1171 1.410 . S
C1172 C1173 1.392 . S
C1172 C1175 1.511 . S
C1173 C1169 1.376 . S
C1173 C1172 1.392 . S
C1173 H1185 0.929 . S
C1174 C1170 1.531 . S
C1174 H1186 0.960 . S
C1174 H1187 0.962 . S
C1174 H1188 0.960 . S
C1175 C1172 1.511 . S
C1175 H1189 0.961 . S
C1175 H1190 0.961 1_655 S
C1175 H1191 0.961 . S
C1176 C1177 1.370 . S
C1176 C1178 1.363 . S
C1176 H1192 0.931 . S
C1177 C1176 1.370 . S
C1177 C1181 1.408 . S
C1178 C1176 1.363 . S
C1178 C1179 1.370 . S
C1178 C1182 1.524 . S
C1179 C1171 1.503 1_455 S
C1179 C1178 1.370 . S
C1179 C1180 1.403 . S
C1180 C1179 1.403 . S
C1180 C1181 1.404 . S
C1180 C1183 1.539 . S
C1181 C1177 1.408 . S
C1181 C1180 1.404 . S
C1181 H1193 0.930 . S
C1182 C1178 1.524 . S
C1182 H1194 0.956 1_455 S
C1182 H1195 0.934 1_455 S
C1182 H1196 0.961 . S
C1183 C1180 1.539 . S
C1183 H1197 0.958 . S
C1183 H1198 0.961 . S
C1183 H1199 0.960 . S
H1184 C1168 0.931 . S
H1185 C1173 0.929 . S
H1186 C1174 0.960 . S
H1187 C1174 0.962 . S
H1188 C1174 0.960 . S
H1189 C1175 0.961 . S
H1190 C1175 0.961 1_455 S
H1191 C1175 0.961 . S
H1192 C1176 0.931 . S
H1193 C1181 0.930 . S
H1194 C1182 0.956 1_655 S
H1195 C1182 0.934 1_655 S
H1196 C1182 0.961 . S
H1197 C1183 0.958 . S
H1198 C1183 0.961 . S
H1199 C1183 0.960 . S
C1200 C1201 1.391 . S
C1200 C1202 1.394 . S
C1200 H1216 0.931 . S
C1201 C1200 1.391 . S
C1201 C1205 1.376 . S
C1202 C1200 1.394 . S
C1202 C1203 1.369 . S
C1202 C1206 1.531 . S
C1203 C1202 1.369 . S
C1203 C1204 1.410 . S
C1203 C1211 1.503 1_545 S
C1204 C1203 1.410 . S
C1204 C1205 1.392 . S
C1204 C1207 1.511 . S
C1205 C1201 1.376 . S
C1205 C1204 1.392 . S
C1205 H1217 0.929 . S
C1206 C1202 1.531 . S
C1206 H1218 0.960 1_545 S
C1206 H1219 0.962 . S
C1206 H1220 0.960 . S
C1207 C1204 1.511 . S
C1207 H1221 0.961 . S
C1207 H1222 0.961 . S
C1207 H1223 0.961 . S
C1208 C1209 1.370 . S
C1208 C1210 1.363 . S
C1208 H1224 0.931 . S
C1209 C1208 1.370 . S
C1209 C1213 1.408 . S
C1210 C1208 1.363 . S
C1210 C1211 1.370 . S
C1210 C1214 1.524 . S
C1211 C1203 1.503 1_565 S
C1211 C1210 1.370 . S
C1211 C1212 1.403 . S
C1212 C1211 1.403 . S
C1212 C1213 1.404 . S
C1212 C1215 1.539 . S
C1213 C1209 1.408 . S
C1213 C1212 1.404 . S
C1213 H1225 0.930 . S
C1214 C1210 1.524 . S
C1214 H1226 0.956 1_565 S
C1214 H1227 0.961 1_565 S
C1214 H1228 0.961 . S
C1215 C1212 1.539 . S
C1215 H1229 0.958 . S
C1215 H1230 0.961 . S
C1215 H1231 0.960 . S
H1216 C1200 0.931 . S
H1217 C1205 0.929 . S
H1218 C1206 0.960 1_565 S
H1219 C1206 0.962 . S
H1220 C1206 0.960 . S
H1221 C1207 0.961 . S
H1222 C1207 0.961 . S
H1223 C1207 0.961 . S
H1224 C1208 0.931 . S
H1225 C1213 0.930 . S
H1226 C1214 0.956 1_545 S
H1227 C1214 0.961 1_545 S
H1228 C1214 0.961 . S
H1229 C1215 0.958 . S
H1230 C1215 0.961 . S
H1231 C1215 0.960 . S
C1232 C1233 1.391 . S
C1232 C1234 1.394 . S
C1232 H1248 0.931 . S
C1233 C1232 1.391 . S
C1233 C1237 1.376 . S
C1234 C1232 1.394 . S
C1234 C1235 1.369 . S
C1234 C1238 1.531 . S
C1235 C1234 1.369 . S
C1235 C1236 1.410 . S
C1235 C1243 1.503 1_565 S
C1236 C1235 1.410 . S
C1236 C1237 1.392 . S
C1236 C1239 1.511 . S
C1237 C1233 1.376 . S
C1237 C1236 1.392 . S
C1237 H1249 0.929 . S
C1238 C1234 1.531 . S
C1238 H1250 0.956 . S
C1238 H1251 0.962 . S
C1238 H1252 0.960 . S
C1239 C1236 1.511 . S
C1239 H1253 0.961 . S
C1239 H1254 0.961 1_565 S
C1239 H1255 0.961 . S
C1240 C1241 1.370 . S
C1240 C1242 1.363 . S
C1240 H1256 0.931 . S
C1241 C1240 1.370 . S
C1241 C1245 1.408 . S
C1242 C1240 1.363 . S
C1242 C1243 1.370 . S
C1242 C1246 1.524 . S
C1243 C1235 1.503 1_545 S
C1243 C1242 1.370 . S
C1243 C1244 1.403 . S
C1244 C1243 1.403 . S
C1244 C1245 1.404 . S
C1244 C1247 1.539 . S
C1245 C1241 1.408 . S
C1245 C1244 1.404 . S
C1245 H1257 0.930 . S
C1246 C1242 1.524 . S
C1246 H1258 0.956 1_545 S
C1246 H1259 0.961 1_545 S
C1246 H1260 0.961 . S
C1247 C1244 1.539 . S
C1247 H1261 0.958 . S
C1247 H1262 0.961 . S
C1247 H1263 0.960 . S
H1248 C1232 0.931 . S
H1249 C1237 0.929 . S
H1250 C1238 0.956 . S
H1251 C1238 0.962 . S
H1252 C1238 0.960 . S
H1253 C1239 0.961 . S
H1254 C1239 0.961 1_545 S
H1255 C1239 0.961 . S
H1256 C1240 0.931 . S
H1257 C1245 0.930 . S
H1258 C1246 0.956 1_565 S
H1259 C1246 0.961 1_565 S
H1260 C1246 0.961 . S
H1261 C1247 0.958 . S
H1262 C1247 0.961 . S
H1263 C1247 0.960 . S
C1264 C1265 1.391 . S
C1264 C1266 1.394 . S
C1264 H1280 0.931 . S
C1265 C1264 1.391 . S
C1265 C1269 1.376 . S
C1266 C1264 1.394 . S
C1266 C1267 1.369 . S
C1266 C1270 1.531 . S
C1267 C1266 1.369 . S
C1267 C1268 1.410 . S
C1267 C1275 1.503 1_655 S
C1268 C1267 1.410 . S
C1268 C1269 1.392 . S
C1268 C1271 1.511 . S
C1269 C1265 1.376 . S
C1269 C1268 1.392 . S
C1269 H1281 0.929 . S
C1270 C1266 1.531 . S
C1270 H1282 0.960 1_655 S
C1270 H1283 0.962 . S
C1270 H1284 0.960 . S
C1271 C1268 1.511 . S
C1271 H1285 0.961 . S
C1271 H1286 0.961 . S
C1271 H1287 0.961 . S
C1272 C1273 1.370 . S
C1272 C1274 1.363 . S
C1272 H1288 0.931 . S
C1273 C1272 1.370 . S
C1273 C1277 1.408 . S
C1274 C1272 1.363 . S
C1274 C1275 1.370 . S
C1274 C1278 1.524 . S
C1275 C1267 1.503 1_455 S
C1275 C1274 1.370 . S
C1275 C1276 1.403 . S
C1276 C1275 1.403 . S
C1276 C1277 1.404 . S
C1276 C1279 1.539 . S
C1277 C1273 1.408 . S
C1277 C1276 1.404 . S
C1277 H1289 0.930 . S
C1278 C1274 1.524 . S
C1278 H1290 0.956 . S
C1278 H1291 0.993 . S
C1278 H1292 0.961 . S
C1279 C1276 1.539 . S
C1279 H1293 0.958 . S
C1279 H1294 0.961 . S
C1279 H1295 0.960 1_455 S
H1280 C1264 0.931 . S
H1281 C1269 0.929 . S
H1282 C1270 0.960 1_455 S
H1283 C1270 0.962 . S
H1284 C1270 0.960 . S
H1285 C1271 0.961 . S
H1286 C1271 0.961 . S
H1287 C1271 0.961 . S
H1288 C1272 0.931 . S
H1289 C1277 0.930 . S
H1290 C1278 0.956 . S
H1291 C1278 0.993 . S
H1292 C1278 0.961 . S
H1293 C1279 0.958 . S
H1294 C1279 0.961 . S
H1295 C1279 0.960 1_655 S
C1296 C1297 1.391 . S
C1296 C1298 1.394 . S
C1296 H1312 0.931 . S
C1297 C1296 1.391 . S
C1297 C1301 1.376 . S
C1298 C1296 1.394 . S
C1298 C1299 1.369 . S
C1298 C1302 1.531 . S
C1299 C1298 1.369 . S
C1299 C1300 1.410 . S
C1299 C1307 1.503 1_565 S
C1300 C1299 1.410 . S
C1300 C1301 1.392 . S
C1300 C1303 1.511 . S
C1301 C1297 1.376 . S
C1301 C1300 1.392 . S
C1301 H1313 0.929 . S
C1302 C1298 1.531 . S
C1302 H1314 0.960 1_565 S
C1302 H1315 0.962 . S
C1302 H1316 0.960 . S
C1303 C1300 1.511 . S
C1303 H1317 0.961 . S
C1303 H1318 0.961 . S
C1303 H1319 0.961 . S
C1304 C1305 1.370 . S
C1304 C1306 1.363 . S
C1304 H1320 0.931 . S
C1305 C1304 1.370 . S
C1305 C1309 1.408 . S
C1306 C1304 1.363 . S
C1306 C1307 1.370 . S
C1306 C1310 1.524 . S
C1307 C1299 1.503 1_545 S
C1307 C1306 1.370 . S
C1307 C1308 1.403 . S
C1308 C1307 1.403 . S
C1308 C1309 1.404 . S
C1308 C1311 1.539 . S
C1309 C1305 1.408 . S
C1309 C1308 1.404 . S
C1309 H1321 0.930 . S
C1310 C1306 1.524 . S
C1310 H1322 0.956 . S
C1310 H1323 0.961 1_545 S
C1310 H1324 0.961 . S
C1311 C1308 1.539 . S
C1311 H1325 0.958 . S
C1311 H1326 0.961 . S
C1311 H1327 0.960 1_545 S
H1312 C1296 0.931 . S
H1313 C1301 0.929 . S
H1314 C1302 0.960 1_545 S
H1315 C1302 0.962 . S
H1316 C1302 0.960 . S
H1317 C1303 0.961 . S
H1318 C1303 0.961 . S
H1319 C1303 0.961 . S
H1320 C1304 0.931 . S
H1321 C1309 0.930 . S
H1322 C1310 0.956 . S
H1323 C1310 0.961 1_565 S
H1324 C1310 0.961 . S
H1325 C1311 0.958 . S
H1326 C1311 0.961 . S
H1327 C1311 0.960 1_565 S
C1328 C1329 1.391 . S
C1328 C1330 1.394 . S
C1328 H1344 0.931 . S
C1329 C1328 1.391 . S
C1329 C1333 1.376 . S
C1330 C1328 1.394 . S
C1330 C1331 1.369 . S
C1330 C1334 1.531 . S
C1331 C1330 1.369 . S
C1331 C1332 1.410 . S
C1331 C1339 1.503 1_655 S
C1332 C1331 1.410 . S
C1332 C1333 1.392 . S
C1332 C1335 1.511 . S
C1333 C1329 1.376 . S
C1333 C1332 1.392 . S
C1333 H1345 0.929 . S
C1334 C1330 1.531 . S
C1334 H1346 0.960 1_655 S
C1334 H1347 0.962 . S
C1334 H1348 0.960 . S
C1335 C1332 1.511 . S
C1335 H1349 0.961 . S
C1335 H1350 0.954 1_655 S
C1335 H1351 0.961 . S
C1336 C1337 1.370 . S
C1336 C1338 1.363 . S
C1336 H1352 0.931 . S
C1337 C1336 1.370 . S
C1337 C1341 1.408 . S
C1338 C1336 1.363 . S
C1338 C1339 1.370 . S
C1338 C1342 1.524 . S
C1339 C1331 1.503 1_455 S
C1339 C1338 1.370 . S
C1339 C1340 1.403 . S
C1340 C1339 1.403 . S
C1340 C1341 1.404 . S
C1340 C1343 1.539 . S
C1341 C1337 1.408 . S
C1341 C1340 1.404 . S
C1341 H1353 0.930 . S
C1342 C1338 1.524 . S
C1342 H1354 0.956 1_455 S
C1342 H1355 0.961 1_455 S
C1342 H1356 0.961 . S
C1343 C1340 1.539 . S
C1343 H1357 0.958 . S
C1343 H1358 0.961 . S
C1343 H1359 0.960 . S
H1344 C1328 0.931 . S
H1345 C1333 0.929 . S
H1346 C1334 0.960 1_455 S
H1347 C1334 0.962 . S
H1348 C1334 0.960 . S
H1349 C1335 0.961 . S
H1350 C1335 0.954 1_455 S
H1351 C1335 0.961 . S
H1352 C1336 0.931 . S
H1353 C1341 0.930 . S
H1354 C1342 0.956 1_655 S
H1355 C1342 0.961 1_655 S
H1356 C1342 0.961 . S
H1357 C1343 0.958 . S
H1358 C1343 0.961 . S
H1359 C1343 0.960 . S
C1360 C1361 1.391 . S
C1360 C1362 1.394 . S
C1360 H1376 0.931 . S
C1361 C1360 1.391 . S
C1361 C1365 1.376 . S
C1362 C1360 1.394 . S
C1362 C1363 1.369 . S
C1362 C1366 1.531 . S
C1363 C1362 1.369 . S
C1363 C1364 1.410 . S
C1363 C1371 1.503 1_556 S
C1364 C1363 1.410 . S
C1364 C1365 1.392 . S
C1364 C1367 1.511 . S
C1365 C1361 1.376 . S
C1365 C1364 1.392 . S
C1365 H1377 0.929 . S
C1366 C1362 1.531 . S
C1366 H1378 0.960 . S
C1366 H1379 0.962 . S
C1366 H1380 0.960 . S
C1367 C1364 1.511 . S
C1367 H1381 0.961 . S
C1367 H1382 0.961 1_556 S
C1367 H1383 0.961 . S
C1368 C1369 1.370 . S
C1368 C1370 1.363 . S
C1368 H1384 0.931 . S
C1369 C1368 1.370 . S
C1369 C1373 1.408 . S
C1370 C1368 1.363 . S
C1370 C1371 1.370 . S
C1370 C1374 1.524 . S
C1371 C1363 1.503 1_554 S
C1371 C1370 1.370 . S
C1371 C1372 1.403 . S
C1372 C1371 1.403 . S
C1372 C1373 1.404 . S
C1372 C1375 1.539 . S
C1373 C1369 1.408 . S
C1373 C1372 1.404 . S
C1373 H1385 0.930 . S
C1374 C1370 1.524 . S
C1374 H1386 0.956 . S
C1374 H1387 0.961 . S
C1374 H1388 0.961 . S
C1375 C1372 1.539 . S
C1375 H1389 0.958 . S
C1375 H1390 0.961 . S
C1375 H1391 0.960 1_554 S
H1376 C1360 0.931 . S
H1377 C1365 0.929 . S
H1378 C1366 0.960 . S
H1379 C1366 0.962 . S
H1380 C1366 0.960 . S
H1381 C1367 0.961 . S
H1382 C1367 0.961 1_554 S
H1383 C1367 0.961 . S
H1384 C1368 0.931 . S
H1385 C1373 0.930 . S
H1386 C1374 0.956 . S
H1387 C1374 0.961 . S
H1388 C1374 0.961 . S
H1389 C1375 0.958 . S
H1390 C1375 0.961 . S
H1391 C1375 0.960 1_556 S
C1392 C1393 1.391 . S
C1392 C1394 1.394 . S
C1392 H1408 0.931 . S
C1393 C1392 1.391 . S
C1393 C1397 1.376 . S
C1394 C1392 1.394 . S
C1394 C1395 1.369 . S
C1394 C1398 1.531 . S
C1395 C1394 1.369 . S
C1395 C1396 1.410 . S
C1395 C1403 1.503 1_556 S
C1396 C1395 1.410 . S
C1396 C1397 1.392 . S
C1396 C1399 1.511 . S
C1397 C1393 1.376 . S
C1397 C1396 1.392 . S
C1397 H1409 0.929 . S
C1398 C1394 1.531 . S
C1398 H1410 0.960 1_556 S
C1398 H1411 0.962 . S
C1398 H1412 0.960 . S
C1399 C1396 1.511 . S
C1399 H1413 0.961 . S
C1399 H1414 0.961 . S
C1399 H1415 0.961 . S
C1400 C1401 1.370 . S
C1400 C1402 1.363 . S
C1400 H1416 0.931 . S
C1401 C1400 1.370 . S
C1401 C1405 1.408 . S
C1402 C1400 1.363 . S
C1402 C1403 1.370 . S
C1402 C1406 1.524 . S
C1403 C1395 1.503 1_554 S
C1403 C1402 1.370 . S
C1403 C1404 1.403 . S
C1404 C1403 1.403 . S
C1404 C1405 1.404 . S
C1404 C1407 1.539 . S
C1405 C1401 1.408 . S
C1405 C1404 1.404 . S
C1405 H1417 0.930 . S
C1406 C1402 1.524 . S
C1406 H1418 0.956 . S
C1406 H1419 0.941 1_554 S
C1406 H1420 0.961 . S
C1407 C1404 1.539 . S
C1407 H1421 0.958 . S
C1407 H1422 0.961 . S
C1407 H1423 0.960 1_554 S
H1408 C1392 0.931 . S
H1409 C1397 0.929 . S
H1410 C1398 0.960 1_554 S
H1411 C1398 0.962 . S
H1412 C1398 0.960 . S
H1413 C1399 0.961 . S
H1414 C1399 0.961 . S
H1415 C1399 0.961 . S
H1416 C1400 0.931 . S
H1417 C1405 0.930 . S
H1418 C1406 0.956 . S
H1419 C1406 0.941 1_556 S
H1420 C1406 0.961 . S
H1421 C1407 0.958 . S
H1422 C1407 0.961 . S
H1423 C1407 0.960 1_556 S
C1424 C1425 1.391 . S
C1424 C1426 1.394 . S
C1424 H1440 0.931 . S
C1425 C1424 1.391 . S
C1425 C1429 1.376 . S
C1426 C1424 1.394 . S
C1426 C1427 1.369 . S
C1426 C1430 1.531 . S
C1427 C1426 1.369 . S
C1427 C1428 1.410 . S
C1427 C1435 1.503 1_556 S
C1428 C1427 1.410 . S
C1428 C1429 1.392 . S
C1428 C1431 1.511 . S
C1429 C1425 1.376 . S
C1429 C1428 1.392 . S
C1429 H1441 0.929 . S
C1430 C1426 1.531 . S
C1430 H1442 0.960 1_556 S
C1430 H1443 0.962 . S
C1430 H1444 0.960 . S
C1431 C1428 1.511 . S
C1431 H1445 0.961 . S
C1431 H1446 0.961 . S
C1431 H1447 0.961 . S
C1432 C1433 1.370 . S
C1432 C1434 1.363 . S
C1432 H1448 0.931 . S
C1433 C1432 1.370 . S
C1433 C1437 1.408 . S
C1434 C1432 1.363 . S
C1434 C1435 1.370 . S
C1434 C1438 1.524 . S
C1435 C1427 1.503 1_554 S
C1435 C1434 1.370 . S
C1435 C1436 1.403 . S
C1436 C1435 1.403 . S
C1436 C1437 1.404 . S
C1436 C1439 1.539 . S
C1437 C1433 1.408 . S
C1437 C1436 1.404 . S
C1437 H1449 0.930 . S
C1438 C1434 1.524 . S
C1438 H1450 0.956 . S
C1438 H1451 0.964 . S
C1438 H1452 0.961 . S
C1439 C1436 1.539 . S
C1439 H1453 0.958 . S
C1439 H1454 0.961 . S
C1439 H1455 0.960 1_554 S
H1440 C1424 0.931 . S
H1441 C1429 0.929 . S
H1442 C1430 0.960 1_554 S
H1443 C1430 0.962 . S
H1444 C1430 0.960 . S
H1445 C1431 0.961 . S
H1446 C1431 0.961 . S
H1447 C1431 0.961 . S
H1448 C1432 0.931 . S
H1449 C1437 0.930 . S
H1450 C1438 0.956 . S
H1451 C1438 0.964 . S
H1452 C1438 0.961 . S
H1453 C1439 0.958 . S
H1454 C1439 0.961 . S
H1455 C1439 0.960 1_556 S
C1456 C1457 1.391 . S
C1456 C1458 1.394 . S
C1456 H1472 0.931 . S
C1457 C1456 1.391 . S
C1457 C1461 1.376 . S
C1458 C1456 1.394 . S
C1458 C1459 1.369 . S
C1458 C1462 1.531 . S
C1459 C1458 1.369 . S
C1459 C1460 1.410 . S
C1459 C1467 1.503 1_556 S
C1460 C1459 1.410 . S
C1460 C1461 1.392 . S
C1460 C1463 1.511 . S
C1461 C1457 1.376 . S
C1461 C1460 1.392 . S
C1461 H1473 0.929 . S
C1462 C1458 1.531 . S
C1462 H1474 0.960 1_556 S
C1462 H1475 0.962 . S
C1462 H1476 0.960 . S
C1463 C1460 1.511 . S
C1463 H1477 0.961 . S
C1463 H1478 0.961 . S
C1463 H1479 0.961 . S
C1464 C1465 1.370 . S
C1464 C1466 1.363 . S
C1464 H1480 0.931 . S
C1465 C1464 1.370 . S
C1465 C1469 1.408 . S
C1466 C1464 1.363 . S
C1466 C1467 1.370 . S
C1466 C1470 1.524 . S
C1467 C1459 1.503 1_554 S
C1467 C1466 1.370 . S
C1467 C1468 1.403 . S
C1468 C1467 1.403 . S
C1468 C1469 1.404 . S
C1468 C1471 1.539 . S
C1469 C1465 1.408 . S
C1469 C1468 1.404 . S
C1469 H1481 0.930 . S
C1470 C1466 1.524 . S
C1470 H1482 0.956 . S
C1470 H1483 0.980 . S
C1470 H1484 0.961 . S
C1471 C1468 1.539 . S
C1471 H1485 0.958 . S
C1471 H1486 0.961 . S
C1471 H1487 0.960 1_554 S
H1472 C1456 0.931 . S
H1473 C1461 0.929 . S
H1474 C1462 0.960 1_554 S
H1475 C1462 0.962 . S
H1476 C1462 0.960 . S
H1477 C1463 0.961 . S
H1478 C1463 0.961 . S
H1479 C1463 0.961 . S
H1480 C1464 0.931 . S
H1481 C1469 0.930 . S
H1482 C1470 0.956 . S
H1483 C1470 0.980 . S
H1484 C1470 0.961 . S
H1485 C1471 0.958 . S
H1486 C1471 0.961 . S
H1487 C1471 0.960 1_556 S
C1488 C1489 1.391 . S
C1488 C1490 1.394 . S
C1488 H1504 0.931 . S
C1489 C1488 1.391 . S
C1489 C1493 1.376 . S
C1490 C1488 1.394 . S
C1490 C1491 1.369 . S
C1490 C1494 1.531 . S
C1491 C1490 1.369 . S
C1491 C1492 1.410 . S
C1491 C1499 1.503 . S
C1492 C1491 1.410 . S
C1492 C1493 1.392 . S
C1492 C1495 1.511 . S
C1493 C1489 1.376 . S
C1493 C1492 1.392 . S
C1493 H1505 0.929 . S
C1494 C1490 1.531 . S
C1494 H1506 0.960 . S
C1494 H1507 0.962 . S
C1494 H1508 0.960 . S
C1495 C1492 1.511 . S
C1495 H1509 0.961 . S
C1495 H1510 0.961 . S
C1495 H1511 0.961 . S
C1496 C1497 1.370 . S
C1496 C1498 1.363 . S
C1496 H1512 0.931 . S
C1497 C1496 1.370 . S
C1497 C1501 1.408 . S
C1498 C1496 1.363 . S
C1498 C1499 1.370 . S
C1498 C1502 1.524 . S
C1499 C1491 1.503 . S
C1499 C1498 1.370 . S
C1499 C1500 1.403 . S
C1500 C1499 1.403 . S
C1500 C1501 1.404 . S
C1500 C1503 1.539 . S
C1501 C1497 1.408 . S
C1501 C1500 1.404 . S
C1501 H1513 0.930 . S
C1502 C1498 1.524 . S
C1502 H1514 0.956 . S
C1502 H1515 0.961 . S
C1502 H1516 0.961 . S
C1503 C1500 1.539 . S
C1503 H1517 0.958 . S
C1503 H1518 0.961 . S
C1503 H1519 0.960 . S
H1504 C1488 0.931 . S
H1505 C1493 0.929 . S
H1506 C1494 0.960 . S
H1507 C1494 0.962 . S
H1508 C1494 0.960 . S
H1509 C1495 0.961 . S
H1510 C1495 0.961 . S
H1511 C1495 0.961 . S
H1512 C1496 0.931 . S
H1513 C1501 0.930 . S
H1514 C1502 0.956 . S
H1515 C1502 0.961 . S
H1516 C1502 0.961 . S
H1517 C1503 0.958 . S
H1518 C1503 0.961 . S
H1519 C1503 0.960 . S
C1520 C1521 1.391 . S
C1520 C1522 1.394 . S
C1520 H1536 0.931 . S
C1521 C1520 1.391 . S
C1521 C1525 1.376 . S
C1522 C1520 1.394 . S
C1522 C1523 1.369 . S
C1522 C1526 1.531 . S
C1523 C1522 1.369 . S
C1523 C1524 1.410 . S
C1523 C1531 1.503 . S
C1524 C1523 1.410 . S
C1524 C1525 1.392 . S
C1524 C1527 1.511 . S
C1525 C1521 1.376 . S
C1525 C1524 1.392 . S
C1525 H1537 0.929 . S
C1526 C1522 1.531 . S
C1526 H1538 0.960 . S
C1526 H1539 0.962 . S
C1526 H1540 0.960 . S
C1527 C1524 1.511 . S
C1527 H1541 0.961 . S
C1527 H1542 0.961 . S
C1527 H1543 0.961 . S
C1528 C1529 1.370 . S
C1528 C1530 1.363 . S
C1528 H1544 0.931 . S
C1529 C1528 1.370 . S
C1529 C1533 1.408 . S
C1530 C1528 1.363 . S
C1530 C1531 1.370 . S
C1530 C1534 1.524 . S
C1531 C1523 1.503 . S
C1531 C1530 1.370 . S
C1531 C1532 1.403 . S
C1532 C1531 1.403 . S
C1532 C1533 1.404 . S
C1532 C1535 1.539 . S
C1533 C1529 1.408 . S
C1533 C1532 1.404 . S
C1533 H1545 0.930 . S
C1534 C1530 1.524 . S
C1534 H1546 0.956 . S
C1534 H1547 0.961 . S
C1534 H1548 0.961 . S
C1535 C1532 1.539 . S
C1535 H1549 0.958 . S
C1535 H1550 0.961 . S
C1535 H1551 0.960 . S
H1536 C1520 0.931 . S
H1537 C1525 0.929 . S
H1538 C1526 0.960 . S
H1539 C1526 0.962 . S
H1540 C1526 0.960 . S
H1541 C1527 0.961 . S
H1542 C1527 0.961 . S
H1543 C1527 0.961 . S
H1544 C1528 0.931 . S
H1545 C1533 0.930 . S
H1546 C1534 0.956 . S
H1547 C1534 0.961 . S
H1548 C1534 0.961 . S
H1549 C1535 0.958 . S
H1550 C1535 0.961 . S
H1551 C1535 0.960 . S
C1552 C1553 1.391 . S
C1552 C1554 1.394 . S
C1552 H1568 0.931 . S
C1553 C1552 1.391 . S
C1553 C1557 1.376 . S
C1554 C1552 1.394 . S
C1554 C1555 1.369 . S
C1554 C1558 1.531 . S
C1555 C1554 1.369 . S
C1555 C1556 1.410 . S
C1555 C1563 1.503 . S
C1556 C1555 1.410 . S
C1556 C1557 1.392 . S
C1556 C1559 1.511 . S
C1557 C1553 1.376 . S
C1557 C1556 1.392 . S
C1557 H1569 0.929 . S
C1558 C1554 1.531 . S
C1558 H1570 0.960 . S
C1558 H1571 0.962 . S
C1558 H1572 0.960 . S
C1559 C1556 1.511 . S
C1559 H1573 0.961 . S
C1559 H1574 0.961 . S
C1559 H1575 0.961 . S
C1560 C1561 1.370 . S
C1560 C1562 1.363 . S
C1560 H1576 0.931 . S
C1561 C1560 1.370 . S
C1561 C1565 1.408 . S
C1562 C1560 1.363 . S
C1562 C1563 1.370 . S
C1562 C1566 1.524 . S
C1563 C1555 1.503 . S
C1563 C1562 1.370 . S
C1563 C1564 1.403 . S
C1564 C1563 1.403 . S
C1564 C1565 1.404 . S
C1564 C1567 1.539 . S
C1565 C1561 1.408 . S
C1565 C1564 1.404 . S
C1565 H1577 0.930 . S
C1566 C1562 1.524 . S
C1566 H1578 0.956 . S
C1566 H1579 0.961 . S
C1566 H1580 0.961 . S
C1567 C1564 1.539 . S
C1567 H1581 0.958 . S
C1567 H1582 0.961 . S
C1567 H1583 0.960 . S
H1568 C1552 0.931 . S
H1569 C1557 0.929 . S
H1570 C1558 0.960 . S
H1571 C1558 0.962 . S
H1572 C1558 0.960 . S
H1573 C1559 0.961 . S
H1574 C1559 0.961 . S
H1575 C1559 0.961 . S
H1576 C1560 0.931 . S
H1577 C1565 0.930 . S
H1578 C1566 0.956 . S
H1579 C1566 0.961 . S
H1580 C1566 0.961 . S
H1581 C1567 0.958 . S
H1582 C1567 0.961 . S
H1583 C1567 0.960 . S
C1584 C1585 1.391 . S
C1584 C1586 1.394 . S
C1584 H1600 0.931 . S
C1585 C1584 1.391 . S
C1585 C1589 1.376 . S
C1586 C1584 1.394 . S
C1586 C1587 1.369 . S
C1586 C1590 1.531 . S
C1587 C1586 1.369 . S
C1587 C1588 1.410 . S
C1587 C1595 1.503 . S
C1588 C1587 1.410 . S
C1588 C1589 1.392 . S
C1588 C1591 1.511 . S
C1589 C1585 1.376 . S
C1589 C1588 1.392 . S
C1589 H1601 0.929 . S
C1590 C1586 1.531 . S
C1590 H1602 0.960 . S
C1590 H1603 0.962 . S
C1590 H1604 0.960 . S
C1591 C1588 1.511 . S
C1591 H1605 0.961 . S
C1591 H1606 0.961 . S
C1591 H1607 0.961 . S
C1592 C1593 1.370 . S
C1592 C1594 1.363 . S
C1592 H1608 0.931 . S
C1593 C1592 1.370 . S
C1593 C1597 1.408 . S
C1594 C1592 1.363 . S
C1594 C1595 1.370 . S
C1594 C1598 1.524 . S
C1595 C1587 1.503 . S
C1595 C1594 1.370 . S
C1595 C1596 1.403 . S
C1596 C1595 1.403 . S
C1596 C1597 1.404 . S
C1596 C1599 1.539 . S
C1597 C1593 1.408 . S
C1597 C1596 1.404 . S
C1597 H1609 0.930 . S
C1598 C1594 1.524 . S
C1598 H1610 0.956 . S
C1598 H1611 0.961 . S
C1598 H1612 0.961 . S
C1599 C1596 1.539 . S
C1599 H1613 0.958 . S
C1599 H1614 0.961 . S
C1599 H1615 0.960 . S
H1600 C1584 0.931 . S
H1601 C1589 0.929 . S
H1602 C1590 0.960 . S
H1603 C1590 0.962 . S
H1604 C1590 0.960 . S
H1605 C1591 0.961 . S
H1606 C1591 0.961 . S
H1607 C1591 0.961 . S
H1608 C1592 0.931 . S
H1609 C1597 0.930 . S
H1610 C1598 0.956 . S
H1611 C1598 0.961 . S
H1612 C1598 0.961 . S
H1613 C1599 0.958 . S
H1614 C1599 0.961 . S
H1615 C1599 0.960 . S
C1616 C1617 1.391 . S
C1616 C1618 1.394 . S
C1616 H1632 0.931 . S
C1617 C1616 1.391 . S
C1617 C1621 1.376 . S
C1618 C1616 1.394 . S
C1618 C1619 1.369 . S
C1618 C1622 1.531 . S
C1619 C1618 1.369 . S
C1619 C1620 1.410 . S
C1619 C1627 1.503 . S
C1620 C1619 1.410 . S
C1620 C1621 1.392 . S
C1620 C1623 1.511 . S
C1621 C1617 1.376 . S
C1621 C1620 1.392 . S
C1621 H1633 0.929 . S
C1622 C1618 1.531 . S
C1622 H1634 0.960 . S
C1622 H1635 0.962 . S
C1622 H1636 0.960 . S
C1623 C1620 1.511 . S
C1623 H1637 0.961 . S
C1623 H1638 0.961 . S
C1623 H1639 0.961 . S
C1624 C1625 1.370 . S
C1624 C1626 1.363 . S
C1624 H1640 0.931 . S
C1625 C1624 1.370 . S
C1625 C1629 1.408 . S
C1626 C1624 1.363 . S
C1626 C1627 1.370 . S
C1626 C1630 1.524 . S
C1627 C1619 1.503 . S
C1627 C1626 1.370 . S
C1627 C1628 1.403 . S
C1628 C1627 1.403 . S
C1628 C1629 1.404 . S
C1628 C1631 1.539 . S
C1629 C1625 1.408 . S
C1629 C1628 1.404 . S
C1629 H1641 0.930 . S
C1630 C1626 1.524 . S
C1630 H1642 0.956 . S
C1630 H1643 0.961 . S
C1630 H1644 0.961 . S
C1631 C1628 1.539 . S
C1631 H1645 0.958 . S
C1631 H1646 0.961 . S
C1631 H1647 0.960 . S
H1632 C1616 0.931 . S
H1633 C1621 0.929 . S
H1634 C1622 0.960 . S
H1635 C1622 0.962 . S
H1636 C1622 0.960 . S
H1637 C1623 0.961 . S
H1638 C1623 0.961 . S
H1639 C1623 0.961 . S
H1640 C1624 0.931 . S
H1641 C1629 0.930 . S
H1642 C1630 0.956 . S
H1643 C1630 0.961 . S
H1644 C1630 0.961 . S
H1645 C1631 0.958 . S
H1646 C1631 0.961 . S
H1647 C1631 0.960 . S
C1648 C1649 1.391 . S
C1648 C1650 1.394 . S
C1648 H1664 0.931 . S
C1649 C1648 1.391 . S
C1649 C1653 1.376 . S
C1650 C1648 1.394 . S
C1650 C1651 1.369 . S
C1650 C1654 1.531 . S
C1651 C1650 1.369 . S
C1651 C1652 1.410 . S
C1651 C1659 1.503 . S
C1652 C1651 1.410 . S
C1652 C1653 1.392 . S
C1652 C1655 1.511 . S
C1653 C1649 1.376 . S
C1653 C1652 1.392 . S
C1653 H1665 0.929 . S
C1654 C1650 1.531 . S
C1654 H1666 0.960 . S
C1654 H1667 0.962 . S
C1654 H1668 0.960 . S
C1655 C1652 1.511 . S
C1655 H1669 0.961 . S
C1655 H1670 0.961 . S
C1655 H1671 0.961 . S
C1656 C1657 1.370 . S
C1656 C1658 1.363 . S
C1656 H1672 0.931 . S
C1657 C1656 1.370 . S
C1657 C1661 1.408 . S
C1658 C1656 1.363 . S
C1658 C1659 1.370 . S
C1658 C1662 1.524 . S
C1659 C1651 1.503 . S
C1659 C1658 1.370 . S
C1659 C1660 1.403 . S
C1660 C1659 1.403 . S
C1660 C1661 1.404 . S
C1660 C1663 1.539 . S
C1661 C1657 1.408 . S
C1661 C1660 1.404 . S
C1661 H1673 0.930 . S
C1662 C1658 1.524 . S
C1662 H1674 0.956 . S
C1662 H1675 0.961 . S
C1662 H1676 0.961 . S
C1663 C1660 1.539 . S
C1663 H1677 0.958 . S
C1663 H1678 0.961 . S
C1663 H1679 0.960 . S
H1664 C1648 0.931 . S
H1665 C1653 0.929 . S
H1666 C1654 0.960 . S
H1667 C1654 0.962 . S
H1668 C1654 0.960 . S
H1669 C1655 0.961 . S
H1670 C1655 0.961 . S
H1671 C1655 0.961 . S
H1672 C1656 0.931 . S
H1673 C1661 0.930 . S
H1674 C1662 0.956 . S
H1675 C1662 0.961 . S
H1676 C1662 0.961 . S
H1677 C1663 0.958 . S
H1678 C1663 0.961 . S
H1679 C1663 0.960 . S
C1680 C1681 1.391 . S
C1680 C1682 1.394 . S
C1680 H1696 0.931 . S
C1681 C1680 1.391 . S
C1681 C1685 1.376 . S
C1682 C1680 1.394 . S
C1682 C1683 1.369 . S
C1682 C1686 1.531 . S
C1683 C1682 1.369 . S
C1683 C1684 1.410 . S
C1683 C1691 1.503 . S
C1684 C1683 1.410 . S
C1684 C1685 1.392 . S
C1684 C1687 1.511 . S
C1685 C1681 1.376 . S
C1685 C1684 1.392 . S
C1685 H1697 0.929 . S
C1686 C1682 1.531 . S
C1686 H1698 0.960 . S
C1686 H1699 0.962 . S
C1686 H1700 0.960 . S
C1687 C1684 1.511 . S
C1687 H1701 0.961 . S
C1687 H1702 0.961 . S
C1687 H1703 0.961 . S
C1688 C1689 1.370 . S
C1688 C1690 1.363 . S
C1688 H1704 0.931 . S
C1689 C1688 1.370 . S
C1689 C1693 1.408 . S
C1690 C1688 1.363 . S
C1690 C1691 1.370 . S
C1690 C1694 1.524 . S
C1691 C1683 1.503 . S
C1691 C1690 1.370 . S
C1691 C1692 1.403 . S
C1692 C1691 1.403 . S
C1692 C1693 1.404 . S
C1692 C1695 1.539 . S
C1693 C1689 1.408 . S
C1693 C1692 1.404 . S
C1693 H1705 0.930 . S
C1694 C1690 1.524 . S
C1694 H1706 0.956 . S
C1694 H1707 0.961 . S
C1694 H1708 0.961 . S
C1695 C1692 1.539 . S
C1695 H1709 0.958 . S
C1695 H1710 0.961 . S
C1695 H1711 0.960 . S
H1696 C1680 0.931 . S
H1697 C1685 0.929 . S
H1698 C1686 0.960 . S
H1699 C1686 0.962 . S
H1700 C1686 0.960 . S
H1701 C1687 0.961 . S
H1702 C1687 0.961 . S
H1703 C1687 0.961 . S
H1704 C1688 0.931 . S
H1705 C1693 0.930 . S
H1706 C1694 0.956 . S
H1707 C1694 0.961 . S
H1708 C1694 0.961 . S
H1709 C1695 0.958 . S
H1710 C1695 0.961 . S
H1711 C1695 0.960 . S
C1712 C1713 1.391 . S
C1712 C1714 1.394 . S
C1712 H1728 0.931 . S
C1713 C1712 1.391 . S
C1713 C1717 1.376 . S
C1714 C1712 1.394 . S
C1714 C1715 1.369 . S
C1714 C1718 1.531 . S
C1715 C1714 1.369 . S
C1715 C1716 1.410 . S
C1715 C1723 1.503 . S
C1716 C1715 1.410 . S
C1716 C1717 1.392 . S
C1716 C1719 1.511 . S
C1717 C1713 1.376 . S
C1717 C1716 1.392 . S
C1717 H1729 0.929 . S
C1718 C1714 1.531 . S
C1718 H1730 0.960 . S
C1718 H1731 0.962 . S
C1718 H1732 0.960 . S
C1719 C1716 1.511 . S
C1719 H1733 0.961 . S
C1719 H1734 0.961 . S
C1719 H1735 0.961 . S
C1720 C1721 1.370 . S
C1720 C1722 1.363 . S
C1720 H1736 0.931 . S
C1721 C1720 1.370 . S
C1721 C1725 1.408 . S
C1722 C1720 1.363 . S
C1722 C1723 1.370 . S
C1722 C1726 1.524 . S
C1723 C1715 1.503 . S
C1723 C1722 1.370 . S
C1723 C1724 1.403 . S
C1724 C1723 1.403 . S
C1724 C1725 1.404 . S
C1724 C1727 1.539 . S
C1725 C1721 1.408 . S
C1725 C1724 1.404 . S
C1725 H1737 0.930 . S
C1726 C1722 1.524 . S
C1726 H1738 0.956 . S
C1726 H1739 0.961 . S
C1726 H1740 0.961 . S
C1727 C1724 1.539 . S
C1727 H1741 0.958 . S
C1727 H1742 0.961 . S
C1727 H1743 0.960 . S
H1728 C1712 0.931 . S
H1729 C1717 0.929 . S
H1730 C1718 0.960 . S
H1731 C1718 0.962 . S
H1732 C1718 0.960 . S
H1733 C1719 0.961 . S
H1734 C1719 0.961 . S
H1735 C1719 0.961 . S
H1736 C1720 0.931 . S
H1737 C1725 0.930 . S
H1738 C1726 0.956 . S
H1739 C1726 0.961 . S
H1740 C1726 0.961 . S
H1741 C1727 0.958 . S
H1742 C1727 0.961 . S
H1743 C1727 0.960 . S
C1744 C1745 1.391 . S
C1744 C1746 1.394 . S
C1744 H1760 0.931 . S
C1745 C1744 1.391 . S
C1745 C1749 1.376 . S
C1746 C1744 1.394 . S
C1746 C1747 1.369 . S
C1746 C1750 1.531 . S
C1747 C1746 1.369 . S
C1747 C1748 1.410 . S
C1747 C1755 1.503 . S
C1748 C1747 1.410 . S
C1748 C1749 1.392 . S
C1748 C1751 1.511 . S
C1749 C1745 1.376 . S
C1749 C1748 1.392 . S
C1749 H1761 0.929 . S
C1750 C1746 1.531 . S
C1750 H1762 0.960 . S
C1750 H1763 0.962 . S
C1750 H1764 0.960 . S
C1751 C1748 1.511 . S
C1751 H1765 0.961 . S
C1751 H1766 0.961 . S
C1751 H1767 0.961 . S
C1752 C1753 1.370 . S
C1752 C1754 1.363 . S
C1752 H1768 0.931 . S
C1753 C1752 1.370 . S
C1753 C1757 1.408 . S
C1754 C1752 1.363 . S
C1754 C1755 1.370 . S
C1754 C1758 1.524 . S
C1755 C1747 1.503 . S
C1755 C1754 1.370 . S
C1755 C1756 1.403 . S
C1756 C1755 1.403 . S
C1756 C1757 1.404 . S
C1756 C1759 1.539 . S
C1757 C1753 1.408 . S
C1757 C1756 1.404 . S
C1757 H1769 0.930 . S
C1758 C1754 1.524 . S
C1758 H1770 0.956 . S
C1758 H1771 0.961 . S
C1758 H1772 0.961 . S
C1759 C1756 1.539 . S
C1759 H1773 0.958 . S
C1759 H1774 0.961 . S
C1759 H1775 0.960 . S
H1760 C1744 0.931 . S
H1761 C1749 0.929 . S
H1762 C1750 0.960 . S
H1763 C1750 0.962 . S
H1764 C1750 0.960 . S
H1765 C1751 0.961 . S
H1766 C1751 0.961 . S
H1767 C1751 0.961 . S
H1768 C1752 0.931 . S
H1769 C1757 0.930 . S
H1770 C1758 0.956 . S
H1771 C1758 0.961 . S
H1772 C1758 0.961 . S
H1773 C1759 0.958 . S
H1774 C1759 0.961 . S
H1775 C1759 0.960 . S
C1776 C1777 1.391 . S
C1776 C1778 1.394 . S
C1776 H1792 0.931 . S
C1777 C1776 1.391 . S
C1777 C1781 1.376 . S
C1778 C1776 1.394 . S
C1778 C1779 1.369 . S
C1778 C1782 1.531 . S
C1779 C1778 1.369 . S
C1779 C1780 1.410 . S
C1779 C1787 1.503 . S
C1780 C1779 1.410 . S
C1780 C1781 1.392 . S
C1780 C1783 1.511 . S
C1781 C1777 1.376 . S
C1781 C1780 1.392 . S
C1781 H1793 0.929 . S
C1782 C1778 1.531 . S
C1782 H1794 0.960 . S
C1782 H1795 0.962 . S
C1782 H1796 0.960 . S
C1783 C1780 1.511 . S
C1783 H1797 0.961 . S
C1783 H1798 0.961 . S
C1783 H1799 0.961 . S
C1784 C1785 1.370 . S
C1784 C1786 1.363 . S
C1784 H1800 0.931 . S
C1785 C1784 1.370 . S
C1785 C1789 1.408 . S
C1786 C1784 1.363 . S
C1786 C1787 1.370 . S
C1786 C1790 1.524 . S
C1787 C1779 1.503 . S
C1787 C1786 1.370 . S
C1787 C1788 1.403 . S
C1788 C1787 1.403 . S
C1788 C1789 1.404 . S
C1788 C1791 1.539 . S
C1789 C1785 1.408 . S
C1789 C1788 1.404 . S
C1789 H1801 0.930 . S
C1790 C1786 1.524 . S
C1790 H1802 0.956 . S
C1790 H1803 0.961 . S
C1790 H1804 0.961 . S
C1791 C1788 1.539 . S
C1791 H1805 0.958 . S
C1791 H1806 0.961 . S
C1791 H1807 0.960 . S
H1792 C1776 0.931 . S
H1793 C1781 0.929 . S
H1794 C1782 0.960 . S
H1795 C1782 0.962 . S
H1796 C1782 0.960 . S
H1797 C1783 0.961 . S
H1798 C1783 0.961 . S
H1799 C1783 0.961 . S
H1800 C1784 0.931 . S
H1801 C1789 0.930 . S
H1802 C1790 0.956 . S
H1803 C1790 0.961 . S
H1804 C1790 0.961 . S
H1805 C1791 0.958 . S
H1806 C1791 0.961 . S
H1807 C1791 0.960 . S
C1808 C1809 1.391 . S
C1808 C1810 1.394 . S
C1808 H1824 0.931 . S
C1809 C1808 1.391 . S
C1809 C1813 1.376 . S
C1810 C1808 1.394 . S
C1810 C1811 1.369 . S
C1810 C1814 1.531 . S
C1811 C1810 1.369 . S
C1811 C1812 1.410 . S
C1811 C1819 1.503 . S
C1812 C1811 1.410 . S
C1812 C1813 1.392 . S
C1812 C1815 1.511 . S
C1813 C1809 1.376 . S
C1813 C1812 1.392 . S
C1813 H1825 0.929 . S
C1814 C1810 1.531 . S
C1814 H1826 0.960 . S
C1814 H1827 0.962 . S
C1814 H1828 0.960 . S
C1815 C1812 1.511 . S
C1815 H1829 0.961 . S
C1815 H1830 0.961 . S
C1815 H1831 0.961 . S
C1816 C1817 1.370 . S
C1816 C1818 1.363 . S
C1816 H1832 0.931 . S
C1817 C1816 1.370 . S
C1817 C1821 1.408 . S
C1818 C1816 1.363 . S
C1818 C1819 1.370 . S
C1818 C1822 1.524 . S
C1819 C1811 1.503 . S
C1819 C1818 1.370 . S
C1819 C1820 1.403 . S
C1820 C1819 1.403 . S
C1820 C1821 1.404 . S
C1820 C1823 1.539 . S
C1821 C1817 1.408 . S
C1821 C1820 1.404 . S
C1821 H1833 0.930 . S
C1822 C1818 1.524 . S
C1822 H1834 0.956 . S
C1822 H1835 0.961 . S
C1822 H1836 0.961 . S
C1823 C1820 1.539 . S
C1823 H1837 0.958 . S
C1823 H1838 0.961 . S
C1823 H1839 0.960 . S
H1824 C1808 0.931 . S
H1825 C1813 0.929 . S
H1826 C1814 0.960 . S
H1827 C1814 0.962 . S
H1828 C1814 0.960 . S
H1829 C1815 0.961 . S
H1830 C1815 0.961 . S
H1831 C1815 0.961 . S
H1832 C1816 0.931 . S
H1833 C1821 0.930 . S
H1834 C1822 0.956 . S
H1835 C1822 0.961 . S
H1836 C1822 0.961 . S
H1837 C1823 0.958 . S
H1838 C1823 0.961 . S
H1839 C1823 0.960 . S
C1840 C1841 1.391 . S
C1840 C1842 1.394 . S
C1840 H1856 0.931 . S
C1841 C1840 1.391 . S
C1841 C1845 1.376 . S
C1842 C1840 1.394 . S
C1842 C1843 1.369 . S
C1842 C1846 1.531 . S
C1843 C1842 1.369 . S
C1843 C1844 1.410 . S
C1843 C1851 1.503 . S
C1844 C1843 1.410 . S
C1844 C1845 1.392 . S
C1844 C1847 1.511 . S
C1845 C1841 1.376 . S
C1845 C1844 1.392 . S
C1845 H1857 0.929 . S
C1846 C1842 1.531 . S
C1846 H1858 0.960 . S
C1846 H1859 0.962 . S
C1846 H1860 0.960 . S
C1847 C1844 1.511 . S
C1847 H1861 0.961 . S
C1847 H1862 0.961 . S
C1847 H1863 0.961 . S
C1848 C1849 1.370 . S
C1848 C1850 1.363 . S
C1848 H1864 0.931 . S
C1849 C1848 1.370 . S
C1849 C1853 1.408 . S
C1850 C1848 1.363 . S
C1850 C1851 1.370 . S
C1850 C1854 1.524 . S
C1851 C1843 1.503 . S
C1851 C1850 1.370 . S
C1851 C1852 1.403 . S
C1852 C1851 1.403 . S
C1852 C1853 1.404 . S
C1852 C1855 1.539 . S
C1853 C1849 1.408 . S
C1853 C1852 1.404 . S
C1853 H1865 0.930 . S
C1854 C1850 1.524 . S
C1854 H1866 0.956 . S
C1854 H1867 0.961 . S
C1854 H1868 0.961 . S
C1855 C1852 1.539 . S
C1855 H1869 0.958 . S
C1855 H1870 0.961 . S
C1855 H1871 0.960 . S
H1856 C1840 0.931 . S
H1857 C1845 0.929 . S
H1858 C1846 0.960 . S
H1859 C1846 0.962 . S
H1860 C1846 0.960 . S
H1861 C1847 0.961 . S
H1862 C1847 0.961 . S
H1863 C1847 0.961 . S
H1864 C1848 0.931 . S
H1865 C1853 0.930 . S
H1866 C1854 0.956 . S
H1867 C1854 0.961 . S
H1868 C1854 0.961 . S
H1869 C1855 0.958 . S
H1870 C1855 0.961 . S
H1871 C1855 0.960 . S
C337 C165 1.425 . S
C345 C4 1.403 . S
C369 C18 1.417 . S
C377 C123 1.407 . S
C401 C32 1.382 . S
C409 C137 1.392 . S
C433 C46 1.355 . S
C441 C151 1.381 . S
C465 C193 1.357 . S
C473 C60 1.373 . S
C497 C74 1.355 . S
C505 C207 1.382 . S
C529 C221 1.422 . S
C537 C88 1.402 . S
C561 C179 1.395 . S
C569 C102 1.390 . S
C593 C81 1.360 . S
C601 C116 1.375 . S
C625 C95 1.354 . S
C633 C130 1.372 . S
C657 C144 1.348 . S
C665 C109 1.379 . S
C689 C67 1.424 . S
C697 C158 1.403 . S
C721 C53 1.416 . S
C729 C172 1.399 . S
C753 C186 1.394 . S
C761 C11 1.397 . S
C785 C200 1.396 . S
C793 C25 1.398 . S
C817 C214 1.374 . S
C825 C39 1.389 . S
C849 C228 1.421 . S
C857 C333 1.408 . S
C881 C291 1.417 . S
C889 C242 1.399 . S
C913 C256 1.415 . S
C921 C249 1.406 . S
C945 C270 1.421 . S
C953 C263 1.408 . S
C977 C277 1.364 . S
C985 C284 1.377 . S
C1009 C298 1.419 . S
C1017 C319 1.407 . S
C1041 C235 1.397 . S
C1049 C312 1.390 . S
C1073 C305 1.371 . S
C1081 C326 1.380 . S
C1105 C12 1.298 . S
C1113 C96 1.315 . S
C1137 C26 1.298 . S
C1145 C110 1.314 . S
C1169 C40 1.333 . S
C1177 C68 1.324 . S
C1201 C82 1.308 . S
C1209 C54 1.312 . S
C1233 C152 1.330 . S
C1241 C124 1.321 . S
C1265 C138 1.300 . S
C1273 C166 1.316 . S
C1297 C180 1.298 . S
C1305 C208 1.313 . S
C1329 C222 1.313 . S
C1337 C194 1.313 . S
C1361 C250 1.316 . S
C1369 C236 1.324 . S
C1393 C264 1.298 . S
C1401 C334 1.314 . S
C1425 C278 1.299 . S
C1433 C306 1.315 . S
C1457 C292 1.299 . S
C1465 C320 1.316 . S
C1489 C5 0.826 . S
C1497 C75 0.922 . S
C1521 C19 0.938 . S
C1529 C89 0.878 . S
C1553 C33 0.828 . S
C1561 C103 0.931 . S
C1585 C61 0.907 . S
C1593 C47 0.880 . S
C1617 C117 0.940 . S
C1625 C327 0.942 . S
C1649 C131 0.860 . S
C1657 C299 0.946 . S
C1681 C313 0.919 . S
C1689 C145 0.946 . S
C1713 C159 0.856 . S
C1721 C229 0.896 . S
C1745 C285 0.911 . S
C1753 C173 0.947 . S
C1777 C243 0.828 . S
C1785 C187 0.930 . S
C1809 C201 0.896 . S
C1817 C257 0.948 . S
C1841 C271 0.828 . S
C1849 C215 0.931 . S
