# Generated by pormake.
# Topology qtz-e, (6)-cn, num edge types: 1
# Building blocks:
#     Node 0, Type 0, BuildingBlock: INOVEN_clean_sbu_0, # of connection points: 6
#     Node 1, Type 0, BuildingBlock: INOVEN_clean_sbu_0, # of connection points: 6
#     Node 2, Type 0, BuildingBlock: INOVEN_clean_sbu_0, # of connection points: 6
#     Node 3, Type 0, BuildingBlock: INOVEN_clean_sbu_0, # of connection points: 6
#     Node 4, Type 0, BuildingBlock: INOVEN_clean_sbu_0, # of connection points: 6
#     Node 5, Type 0, BuildingBlock: INOVEN_clean_sbu_0, # of connection points: 6
#     Edge 6, Type (0, 0), BuildingBlock: OJICUG_clean_linker_0, # of connection points: 2
#     Edge 7, Type (0, 0), BuildingBlock: OJICUG_clean_linker_0, # of connection points: 2
#     Edge 8, Type (0, 0), BuildingBlock: OJICUG_clean_linker_0, # of connection points: 2
#     Edge 9, Type (0, 0), BuildingBlock: OJICUG_clean_linker_0, # of connection points: 2
#     Edge 10, Type (0, 0), BuildingBlock: OJICUG_clean_linker_0, # of connection points: 2
#     Edge 11, Type (0, 0), BuildingBlock: OJICUG_clean_linker_0, # of connection points: 2
#     Edge 12, Type (0, 0), BuildingBlock: OJICUG_clean_linker_0, # of connection points: 2
#     Edge 13, Type (0, 0), BuildingBlock: OJICUG_clean_linker_0, # of connection points: 2
#     Edge 14, Type (0, 0), BuildingBlock: OJICUG_clean_linker_0, # of connection points: 2
#     Edge 15, Type (0, 0), BuildingBlock: OJICUG_clean_linker_0, # of connection points: 2
#     Edge 16, Type (0, 0), BuildingBlock: OJICUG_clean_linker_0, # of connection points: 2
#     Edge 17, Type (0, 0), BuildingBlock: OJICUG_clean_linker_0, # of connection points: 2
#     Edge 18, Type (0, 0), BuildingBlock: OJICUG_clean_linker_0, # of connection points: 2
#     Edge 19, Type (0, 0), BuildingBlock: OJICUG_clean_linker_0, # of connection points: 2
#     Edge 20, Type (0, 0), BuildingBlock: OJICUG_clean_linker_0, # of connection points: 2
#     Edge 21, Type (0, 0), BuildingBlock: OJICUG_clean_linker_0, # of connection points: 2
#     Edge 22, Type (0, 0), BuildingBlock: OJICUG_clean_linker_0, # of connection points: 2
#     Edge 23, Type (0, 0), BuildingBlock: OJICUG_clean_linker_0, # of connection points: 2
# Relax obj value: 0.082
# Max RMSD: 0.178
# Mean RMSD: 0.178
data_MOF--net-qtz-e--node1-INOVEN_clean_sbu_0--edge1-OJICUG_clean_linker_0
_symmetry_space_group_name_H-M    P1
_symmetry_Int_Tables_number       1
_symmetry_cell_setting            triclinic
loop_
_symmetry_equiv_pos_as_xyz
'x, y, z'
_cell_length_a     19.513813
_cell_length_b     19.326276
_cell_length_c     41.567724
_cell_angle_alpha  89.881833
_cell_angle_beta   89.828998
_cell_angle_gamma 119.74389
loop_
_atom_site_label
_atom_site_type_symbol
_atom_site_fract_x
_atom_site_fract_y
_atom_site_fract_z
_atom_type_partial_charge
Gd0 Gd 0.1859 0.50881 0.09132 0.0
Gd1 Gd 0.15624 0.35296 0.05974 0.0
C2 C 0.14366 0.35618 0.13766 0.0
C3 C 0.18351 0.61788 0.12619 0.0
C4 C 0.21144 0.64376 0.15887 0.0
C5 C 0.25802 0.61687 0.17416 0.0
C6 C 0.19241 0.69553 0.17488 0.0
C7 C 0.26622 0.69326 0.22157 0.0
C8 C 0.21967 0.72023 0.20606 0.0
C9 C 0.28501 0.64122 0.20536 0.0
C10 C 0.31874 0.5064 0.07606 0.0
C11 C 0.19228 0.50173 1.01619 0.0
C12 C 0.16871 0.24028 0.03112 0.0
C13 C 0.18169 0.22307 0.99736 0.0
C14 C 0.15772 0.25062 0.97064 0.0
C15 C 0.22453 0.1835 0.99179 0.0
C16 C 0.22157 0.20111 0.93351 0.0
C17 C 0.24425 0.17274 0.9604 0.0
C18 C 0.17696 0.23928 0.93908 0.0
C19 C 0.03536 0.38569 0.0577 0.0
O20 O 0.17447 0.4345 0.13505 0.0
O21 O 0.12772 0.30975 0.11187 0.0
O22 O 0.23903 0.63227 0.1053 0.0
O23 O 0.12294 0.54616 0.12362 0.0
O24 O 0.31152 0.56925 0.07448 0.0
O25 O 0.25626 0.44795 0.08712 0.0
O26 O 0.21048 0.44546 1.02122 0.0
O27 O 0.16688 0.52942 0.03962 0.0
O28 O 0.10055 0.23439 0.03849 0.0
O29 O 0.22825 0.30256 0.04415 0.0
O30 O 0.0529 0.35414 0.03376 0.0
O31 O 0.0812 0.39578 0.08038 0.0
H32 H 0.27362 0.57716 0.16192 0.0
H33 H 0.15628 0.71646 0.16335 0.0
H34 H 0.20289 0.75906 0.21831 0.0
H35 H 0.32076 0.61967 0.21675 0.0
H36 H 0.12563 0.28242 0.97418 0.0
H37 H 0.24426 0.16215 1.01188 0.0
H38 H 0.27787 0.14242 0.9572 0.0
H39 H 0.15919 0.26281 0.9191 0.0
Gd40 Gd 0.73413 0.23604 0.42125 0.0
Gd41 Gd 0.83718 0.1736 0.39448 0.0
C42 C 0.80454 0.15419 0.47107 0.0
C43 C 0.63972 0.27092 0.45123 0.0
C44 C 0.61391 0.26567 0.48458 0.0
C45 C 0.66589 0.27654 0.50985 0.0
C46 C 0.5386 0.25383 0.49133 0.0
C47 C 0.56755 0.2643 0.54847 0.0
C48 C 0.51541 0.25304 0.52314 0.0
C49 C 0.6429 0.27596 0.54157 0.0
C50 C 0.87778 0.35223 0.40319 0.0
C51 C 0.75679 0.23902 0.34677 0.0
C52 C 0.94772 0.16008 0.36569 0.0
C53 C 0.98016 0.18589 0.33241 0.0
C54 C -0.00571 0.13617 0.31204 0.0
C55 C -0.00553 0.25991 0.32021 0.0
C56 C 0.03792 0.23496 0.26831 0.0
C57 C 0.02271 0.28393 0.28877 0.0
C58 C 0.02271 0.1603 0.28038 0.0
C59 C 0.67793 0.07344 0.39201 0.0
O60 O 0.76684 0.19487 0.4668 0.0
O61 O 0.83754 0.1369 0.44655 0.0
O62 O 0.71444 0.32143 0.44636 0.0
O63 O 0.61463 0.20367 0.43573 0.0
O64 O 0.81274 0.35243 0.39794 0.0
O65 O 0.86447 0.28869 0.41754 0.0
O66 O 0.82317 0.24104 0.35415 0.0
O67 O 0.70172 0.22243 0.36877 0.0
O68 O 0.8752 0.10078 0.36803 0.0
O69 O 0.96181 0.21713 0.38612 0.0
O70 O 0.72519 0.08104 0.36856 0.0
O71 O 0.71752 0.1175 0.4146 0.0
H72 H 0.7246 0.28623 0.50506 0.0
H73 H 0.49815 0.24592 0.47203 0.0
H74 H 0.45697 0.24413 0.52796 0.0
H75 H 0.68354 0.28333 0.56071 0.0
H76 H 0.98329 0.07855 0.32059 0.0
H77 H 0.9833 0.29949 0.33493 0.0
H78 H 0.0316 0.3409 0.28038 0.0
H79 H 0.03383 0.1209 0.26555 0.0
Gd80 Gd 0.48059 0.68988 0.76998 0.0
Gd81 Gd 0.63399 0.81289 0.73053 0.0
C82 C 0.64813 0.78271 0.8075 0.0
C83 C 0.36824 0.56284 0.79606 0.0
C84 C 0.31601 0.55118 0.82337 0.0
C85 C 0.30455 0.61379 0.8338 0.0
C86 C 0.28644 0.48148 0.84178 0.0
C87 C 0.24178 0.54047 0.8826 0.0
C88 C 0.24926 0.47596 0.87117 0.0
C89 C 0.26789 0.60859 0.86327 0.0
C90 C 0.49291 0.83578 0.77061 0.0
C91 C 0.46763 0.73782 0.698 0.0
C92 C 0.74879 0.92444 0.69729 0.0
C93 C 0.75746 0.9549 0.66364 0.0
C94 C 0.83028 0.98618 0.64745 0.0
C95 C 0.69365 0.95347 0.64739 0.0
C96 C 0.77635 0.01723 0.59988 0.0
C97 C 0.70299 0.98429 0.61603 0.0
C98 C 0.83961 0.01676 0.61597 0.0
C99 C 0.57756 0.65302 0.72332 0.0
O100 O 0.57227 0.72823 0.80823 0.0
O101 O 0.6849 0.82533 0.78126 0.0
O102 O 0.35823 0.59611 0.77037 0.0
O103 O 0.44249 0.59233 0.80374 0.0
O104 O 0.43896 0.77471 0.78613 0.0
O105 O 0.54004 0.81651 0.75826 0.0
O106 O 0.53387 0.80501 0.70266 0.0
O107 O 0.44412 0.67594 0.71761 0.0
O108 O 0.7395 0.85293 0.70092 0.0
O109 O 0.70305 0.93733 0.71658 0.0
O110 O 0.60439 0.70307 0.69945 0.0
O111 O 0.58278 0.69044 0.74846 0.0
H112 H 0.32696 0.66812 0.81991 0.0
H113 H 0.29562 0.43302 0.83424 0.0
H114 H 0.23075 0.42309 0.88579 0.0
H115 H 0.26243 0.65883 0.87146 0.0
H116 H 0.88039 0.98775 0.65932 0.0
H117 H 0.63648 0.92894 0.659 0.0
H118 H 0.65235 0.982 0.60437 0.0
H119 H 0.89703 0.04187 0.60456 0.0
Gd120 Gd 0.73413 0.48744 0.09016 0.0
Gd121 Gd 0.79896 0.65245 0.06401 0.0
C122 C 0.82127 0.6379 0.14023 0.0
C123 C 0.69823 0.35467 0.11803 0.0
C124 C 0.71499 0.3324 0.14919 0.0
C125 C 0.65987 0.25947 0.16292 0.0
C126 C 0.77823 0.38869 0.16744 0.0
C127 C 0.72823 0.30111 0.21387 0.0
C128 C 0.7848 0.3732 0.19962 0.0
C129 C 0.66649 0.24374 0.19514 0.0
C130 C 0.61957 0.51877 0.07313 0.0
C131 C 0.72742 0.50892 1.01552 0.0
C132 C 0.82173 0.78218 0.03653 0.0
C133 C 0.80122 0.7921 1.0029 0.0
C134 C 0.85731 0.85079 0.98222 0.0
C135 C 0.72659 0.73825 0.99035 0.0
C136 C 0.76547 0.79885 0.9369 0.0
C137 C 0.70899 0.74177 0.95801 0.0
C138 C 0.83956 0.8544 0.9496 0.0
C139 C 0.89418 0.58649 0.05961 0.0
O140 O 0.78108 0.55955 0.13591 0.0
O141 O 0.83643 0.68829 0.11587 0.0
O142 O 0.65487 0.38874 0.11991 0.0
O143 O 0.75756 0.39016 0.0978 0.0
O144 O 0.619 0.45283 0.0678 0.0
O145 O 0.6829 0.56825 0.0872 0.0
O146 O 0.72933 0.57566 1.0233 0.0
O147 O 0.74305 0.46834 0.03706 0.0
O148 O 0.87802 0.76452 0.03966 0.0
O149 O 0.76223 0.7402 0.05599 0.0
O150 O 0.88552 0.6261 0.0363 0.0
O151 O 0.85313 0.5849 0.083 0.0
H152 H 0.61011 0.21607 0.14908 0.0
H153 H 0.82046 0.44588 0.15721 0.0
H154 H 0.83257 0.41876 0.21362 0.0
H155 H 0.62295 0.18728 0.20548 0.0
H156 H 0.9155 0.89273 0.99111 0.0
H157 H 0.68179 0.69191 1.00536 0.0
H158 H 0.65071 0.69897 0.9495 0.0
H159 H 0.88464 0.89905 0.93415 0.0
Gd160 Gd 0.30159 0.78108 0.42784 0.0
Gd161 Gd 0.18383 0.81798 0.39391 0.0
C162 C 0.19696 0.83408 0.47179 0.0
C163 C 0.40477 0.77817 0.46536 0.0
C164 C 0.4031 0.76583 0.50024 0.0
C165 C 0.33533 0.70468 0.5154 0.0
C166 C 0.46791 0.81791 0.51885 0.0
C167 C 0.39759 0.74785 0.56732 0.0
C168 C 0.46512 0.80917 0.5522 0.0
C169 C 0.33295 0.69531 0.54871 0.0
C170 C 0.16669 0.65105 0.4113 0.0
C171 C 0.28892 0.76634 0.3531 0.0
C172 C 0.06512 0.81243 0.36332 0.0
C173 C 0.03542 0.79346 0.32949 0.0
C174 C 0.00217 0.83505 0.31437 0.0
C175 C 0.03656 0.73108 0.31248 0.0
C176 C 0.96797 0.7494 0.26674 0.0
C177 C 0.00315 0.70927 0.2817 0.0
C178 C 0.96924 0.81362 0.28335 0.0
C179 C 0.33885 0.93326 0.39138 0.0
O180 O 0.23983 0.7983 0.47027 0.0
O181 O 0.17054 0.85228 0.44532 0.0
O182 O 0.35454 0.71664 0.44876 0.0
O183 O 0.40853 0.8446 0.45606 0.0
O184 O 0.23513 0.65578 0.41039 0.0
O185 O 0.17177 0.71471 0.42211 0.0
O186 O 0.21721 0.75553 0.35712 0.0
O187 O 0.34154 0.79215 0.37643 0.0
O188 O 0.131 0.87919 0.3684 0.0
O189 O 0.06085 0.75317 0.3802 0.0
O190 O 0.29139 0.91593 0.36713 0.0
O191 O 0.30111 0.89007 0.41477 0.0
H192 H 0.28385 0.66448 0.50158 0.0
H193 H 0.52031 0.86568 0.50762 0.0
H194 H 0.51606 0.84988 0.56619 0.0
H195 H 0.28032 0.64799 0.55997 0.0
H196 H 0.00034 0.88332 0.3268 0.0
H197 H 0.06229 0.69811 0.32318 0.0
H198 H 0.00482 0.66056 0.26959 0.0
H199 H 0.9426 0.84586 0.27279 0.0
Gd200 Gd 0.4853 0.25285 0.75506 0.0
Gd201 Gd 0.32278 0.14906 0.72782 0.0
C202 C 0.33198 0.18268 0.80406 0.0
C203 C 0.61263 0.3492 0.78509 0.0
C204 C 0.63121 0.38261 0.81735 0.0
C205 C 0.70429 0.40184 0.83069 0.0
C206 C 0.57285 0.38432 0.8365 0.0
C207 C 0.6596 0.4208 0.8827 0.0
C208 C 0.58704 0.4035 0.86899 0.0
C209 C 0.7185 0.42089 0.8632 0.0
C210 C 0.457 0.10601 0.73901 0.0
C211 C 0.46832 0.23109 0.68044 0.0
C212 C 0.20132 0.03682 0.69883 0.0
C213 C 0.19484 0.00511 0.66542 0.0
C214 C 0.13312 -0.00592 0.64479 0.0
C215 C 0.25219 0.98777 0.65343 0.0
C216 C 0.1853 0.94696 0.60138 0.0
C217 C 0.2475 0.95926 0.62205 0.0
C218 C 0.12847 0.96556 0.61316 0.0
C219 C 0.3811 0.30982 0.72423 0.0
O220 O 0.40985 0.22184 0.80017 0.0
O221 O 0.28327 0.14889 0.77939 0.0
O222 O 0.58366 0.27209 0.78445 0.0
O223 O 0.57556 0.37387 0.76607 0.0
O224 O 0.52137 0.1713 0.73245 0.0
O225 O 0.40801 0.12154 0.75268 0.0
O226 O 0.40485 0.16356 0.68787 0.0
O227 O 0.50668 0.28558 0.70257 0.0
O228 O 0.21269 0.1093 0.70152 0.0
O229 O 0.24483 0.02314 0.71898 0.0
O230 O 0.34228 0.26161 0.701 0.0
O231 O 0.38505 0.27035 0.74729 0.0
H232 H 0.7494 0.3996 0.81619 0.0
H233 H 0.51557 0.36825 0.82661 0.0
H234 H 0.54047 0.40251 0.88359 0.0
H235 H 0.77529 0.43522 0.87312 0.0
H236 H 0.08833 0.00741 0.65315 0.0
H237 H 0.30149 -0.00325 0.66825 0.0
H238 H 0.29358 0.94768 0.61386 0.0
H239 H 0.07957 0.95678 0.59815 0.0
C240 C 0.28833 0.67691 0.3109 0.0
C241 C 0.30919 0.7541 0.32073 0.0
H242 H 0.25823 0.59679 0.2712 0.0
C243 C 0.32643 0.81356 0.29771 0.0
H244 H 0.27229 0.62982 0.3285 0.0
C245 C 0.31808 0.79499 0.26511 0.0
C246 C 0.29112 0.71631 0.25518 0.0
H247 H 0.33969 0.87268 0.30494 0.0
H248 H 0.32803 0.84107 0.24779 0.0
C249 C 0.27976 0.6581 0.27821 0.0
C250 C 0.44483 0.18869 0.62352 0.0
C251 C 0.49457 0.24315 0.64674 0.0
H252 H 0.42935 0.15271 0.57442 0.0
C253 C 0.56787 0.30697 0.63728 0.0
H254 H 0.38756 0.13916 0.62992 0.0
C255 C 0.59162 0.31487 0.6051 0.0
C256 C 0.54194 0.25946 0.58211 0.0
H257 H 0.60705 0.3499 0.65469 0.0
H258 H 0.64867 0.36409 0.59817 0.0
C259 C 0.46825 0.19676 0.59158 0.0
C260 C 0.24808 0.59515 0.97 0.0
C261 C 0.18952 0.52247 0.98265 0.0
H262 H 0.31065 0.65803 0.92757 0.0
C263 C 0.13948 0.46119 0.96184 0.0
H264 H 0.28807 0.64238 0.98583 0.0
C265 C 0.15208 0.46969 0.92876 0.0
C266 C 0.21546 0.53946 0.91606 0.0
H267 H 0.09429 0.40436 0.9713 0.0
H268 H 0.11564 0.41971 0.91333 0.0
C269 C 0.26094 0.60375 0.93675 0.0
C270 C 0.81458 0.29231 0.29327 0.0
C271 C 0.74771 0.25787 0.31342 0.0
H272 H 0.86029 0.33107 0.24603 0.0
C273 C 0.67386 0.23879 0.30084 0.0
H274 H 0.87257 0.30828 0.30227 0.0
C275 C 0.66708 0.25277 0.26831 0.0
C276 C 0.73414 0.28616 0.24819 0.0
H277 H 0.62149 0.21194 0.31589 0.0
H278 H 0.60966 0.23784 0.25893 0.0
C279 C 0.80783 0.30602 0.26103 0.0
C280 C 0.39629 0.66265 0.64909 0.0
C281 C 0.42698 0.73196 0.66775 0.0
H282 H 0.36291 0.61373 0.60169 0.0
C283 C 0.43413 0.8021 0.65443 0.0
H284 H 0.39093 0.60817 0.65888 0.0
C285 C 0.41909 0.80552 0.62201 0.0
C286 C 0.39622 0.7387 0.60249 0.0
H287 H 0.45696 0.85611 0.66857 0.0
H288 H 0.42972 0.86166 0.61179 0.0
C289 C 0.38086 0.66603 0.61645 0.0
C290 C 0.72514 0.4263 0.96878 0.0
C291 C 0.70589 0.48086 0.98234 0.0
H292 H 0.72545 0.36432 0.92612 0.0
C293 C 0.66898 0.51301 0.96328 0.0
H294 H 0.75385 0.401 0.98298 0.0
C295 C 0.65316 0.49253 0.93109 0.0
C296 C 0.67406 0.43962 0.9172 0.0
H297 H 0.6529 0.55489 0.97312 0.0
H298 H 0.62619 0.51961 0.91687 0.0
C299 C 0.70961 0.40605 0.93631 0.0
C300 C 0.40097 0.44135 0.07912 0.0
C301 C 0.39611 0.51053 0.07496 0.0
H302 H 0.47554 0.39027 0.08167 0.0
C303 C 0.46608 0.58424 0.07086 0.0
H304 H 0.3484 0.38418 0.08289 0.0
C305 C 0.53986 0.58837 0.07102 0.0
C306 C 0.54415 0.5186 0.07462 0.0
H307 H 0.46386 0.63876 0.0678 0.0
H308 H 0.59301 0.64538 0.06773 0.0
C309 C 0.47406 0.4452 0.0786 0.0
C310 C 0.0952 0.50355 0.40426 0.0
C311 C 0.09298 0.57483 0.40816 0.0
H312 H 0.02808 0.37603 0.40024 0.0
C313 C 0.02012 0.57196 0.41008 0.0
H314 H 0.15096 0.50422 0.40284 0.0
C315 C 0.95052 0.49927 0.4078 0.0
C316 C 0.95251 0.42783 0.4045 0.0
H317 H 0.01674 0.6256 0.41367 0.0
H318 H 0.89496 0.499 0.40942 0.0
C319 C 0.02528 0.43029 0.40285 0.0
C320 C 0.40963 0.97503 0.76665 0.0
C321 C 0.46057 0.03254 0.74455 0.0
H322 H 0.38185 0.86888 0.79284 0.0
C323 C 0.52247 0.02484 0.73079 0.0
H324 H 0.36197 0.97987 0.77783 0.0
C325 C 0.53449 0.96187 0.73962 0.0
C326 C 0.48488 0.9056 0.76237 0.0
H327 H 0.56275 0.06858 0.71366 0.0
H328 H 0.58234 0.95728 0.72863 0.0
C329 C 0.42186 0.91225 0.77555 0.0
C330 C 0.49547 0.52394 0.69295 0.0
C331 C 0.52927 0.56509 0.72167 0.0
H332 H 0.4205 0.40963 0.67105 0.0
C333 C 0.51282 0.52175 0.7505 0.0
H334 H 0.50676 0.55611 0.67042 0.0
C335 C 0.46302 0.43959 0.75098 0.0
C336 C 0.42909 0.39782 0.72253 0.0
H337 H 0.53852 0.55155 0.77297 0.0
H338 H 0.45162 0.40855 0.77382 0.0
C339 C 0.44552 0.44056 0.69338 0.0
C340 C 0.96715 0.44753 0.08529 0.0
C341 C -0.00922 0.42904 0.05619 0.0
H342 H 0.9207 0.51319 0.10902 0.0
C343 C 0.98078 0.46131 1.02737 0.0
H344 H 0.97396 0.42334 0.10783 0.0
C345 C 0.95011 0.51366 1.02804 0.0
C346 C 0.92875 0.53365 0.0575 0.0
H347 H -0.00066 0.44857 1.00464 0.0
H348 H 0.94335 0.53855 1.0057 0.0
C349 C 0.93702 0.49938 0.08597 0.0
C350 C 0.46775 0.98645 0.36092 0.0
C351 C 0.4261 0.97554 0.38991 0.0
H352 H 0.58101 0.02482 0.33867 0.0
C353 C 0.46813 -0.00179 0.41886 0.0
H354 H 0.43685 0.96987 0.33824 0.0
C355 C 0.54935 0.02793 0.41918 0.0
C356 C 0.59115 0.03729 0.39047 0.0
H357 H 0.43779 0.99157 0.44151 0.0
H358 H 0.57958 0.04373 0.4421 0.0
C359 C 0.54989 0.01684 0.3612 0.0
C360 C 0.3515 0.2043 0.86385 0.0
C361 C 0.30065 0.18229 0.83715 0.0
H362 H 0.36711 0.22777 0.91442 0.0
C363 C 0.22252 0.16555 0.84247 0.0
H364 H 0.4122 0.21818 0.86092 0.0
C365 C 0.19664 0.17189 0.87352 0.0
C366 C 0.24781 0.1939 0.90017 0.0
H367 H 0.18179 0.14918 0.82256 0.0
H368 H 0.13633 0.159 0.87671 0.0
C369 C 0.32548 0.20959 0.89476 0.0
C370 C 0.04433 0.21094 0.20817 0.0
C371 C 0.06989 0.26294 0.23481 0.0
H372 H 0.04731 0.19869 0.15671 0.0
C373 C 0.1249 0.34374 0.22905 0.0
H374 H 0.00185 0.14838 0.21147 0.0
C375 C 0.15073 0.37238 0.19782 0.0
C376 C 0.12291 0.32141 0.17098 0.0
H377 H 0.14783 0.38561 0.24878 0.0
H378 H 0.19174 0.43544 0.19475 0.0
C379 C 0.07046 0.2398 0.17666 0.0
C380 C 0.75077 0.09941 0.55944 0.0
C381 C 0.78685 0.05397 0.56694 0.0
H382 H 0.72854 0.16631 0.52432 0.0
C383 C 0.83227 0.0443 0.5427 0.0
H384 H 0.71652 0.10969 0.57741 0.0
C385 C 0.83965 0.0776 0.51174 0.0
C386 C 0.8025 0.12221 0.50427 0.0
H387 H 0.8607 0.00941 0.54741 0.0
H388 H 0.87364 0.06754 0.49359 0.0
C389 C 0.75852 0.13289 0.5288 0.0
C390 C 0.67378 0.72076 0.85496 0.0
C391 C 0.6917 0.79059 0.83784 0.0
H392 H 0.68483 0.66868 0.89856 0.0
C393 C 0.74146 0.8646 0.85229 0.0
H394 H 0.63623 0.66275 0.8444 0.0
C395 C 0.76841 0.86812 0.88407 0.0
C396 C 0.74626 0.79766 0.90185 0.0
H397 H 0.7557 0.91939 0.8398 0.0
H398 H 0.8033 0.92582 0.89521 0.0
C399 C 0.70106 0.7242 0.88625 0.0
C400 C 0.93629 0.77688 0.21019 0.0
C401 C 0.9282 0.72228 0.23454 0.0
H402 H 0.90989 0.794 0.16151 0.0
C403 C 0.88175 0.64045 0.22781 0.0
H404 H 0.97175 0.84035 0.21433 0.0
C405 C 0.84573 0.61396 0.19774 0.0
C406 C 0.85529 0.66819 0.17303 0.0
H407 H 0.87271 0.59636 0.24595 0.0
H408 H 0.81102 0.55037 0.19384 0.0
C409 C 0.90079 0.75024 0.1798 0.0
C410 C 0.1577 0.94191 0.54099 0.0
C411 C 0.18032 0.91378 0.56808 0.0
H412 H 0.14468 0.93928 0.48939 0.0
C413 C 0.20125 0.85466 0.56302 0.0
H414 H 0.14135 0.98754 0.54378 0.0
C415 C 0.20301 0.82713 0.53206 0.0
C416 C 0.18377 0.85738 0.50475 0.0
H417 H 0.21717 0.82975 0.5831 0.0
H418 H 0.22128 0.78283 0.5296 0.0
C419 C 0.15952 0.91417 0.50972 0.0
loop_
_geom_bond_atom_site_label_1
_geom_bond_atom_site_label_2
_geom_bond_distance
_geom_bond_site_symmetry_2
_ccdc_geom_bond_type
Gd0 C3 2.818 . S
Gd0 O20 2.377 . S
Gd0 O22 2.448 . S
Gd0 O23 2.506 . S
Gd0 O24 2.435 . S
Gd0 O25 2.717 . S
Gd0 O27 2.395 . S
Gd0 O31 2.327 . S
Gd1 C12 2.818 1_554 S
Gd1 O21 2.395 . S
Gd1 O25 2.327 . S
Gd1 O26 2.377 1_554 S
Gd1 O28 2.448 1_554 S
Gd1 O29 2.506 1_554 S
Gd1 O30 2.435 . S
Gd1 O31 2.717 . S
C2 O20 1.240 . S
C2 O21 1.240 . S
C3 Gd0 2.818 . S
C3 C4 1.510 . S
C3 O22 1.249 . S
C3 O23 1.252 . S
C4 C3 1.510 . S
C4 C5 1.404 . S
C4 C6 1.352 . S
C5 C4 1.404 . S
C5 C9 1.389 . S
C5 H32 0.930 . S
C6 C4 1.352 . S
C6 C8 1.374 . S
C6 H33 0.931 . S
C7 C8 1.359 . S
C7 C9 1.364 . S
C8 C6 1.374 . S
C8 C7 1.359 . S
C8 H34 0.931 . S
C9 C5 1.389 . S
C9 C7 1.364 . S
C9 H35 0.931 . S
C10 O24 1.256 . S
C10 O25 1.257 . S
C11 O26 1.240 . S
C11 O27 1.240 1_556 S
C12 Gd1 2.818 1_556 S
C12 C13 1.510 . S
C12 O28 1.249 . S
C12 O29 1.252 . S
C13 C12 1.510 . S
C13 C14 1.404 . S
C13 C15 1.352 . S
C14 C13 1.404 . S
C14 C18 1.389 . S
C14 H36 0.930 . S
C15 C13 1.352 . S
C15 C17 1.374 . S
C15 H37 0.931 . S
C16 C17 1.359 . S
C16 C18 1.364 . S
C17 C15 1.374 . S
C17 C16 1.359 . S
C17 H38 0.931 . S
C18 C14 1.389 . S
C18 C16 1.364 . S
C18 H39 0.931 . S
C19 O30 1.256 . S
C19 O31 1.257 . S
O20 Gd0 2.377 . S
O20 C2 1.240 . S
O21 Gd1 2.395 . S
O21 C2 1.240 . S
O22 Gd0 2.448 . S
O22 C3 1.249 . S
O23 Gd0 2.506 . S
O23 C3 1.252 . S
O24 Gd0 2.435 . S
O24 C10 1.256 . S
O25 Gd0 2.717 . S
O25 Gd1 2.327 . S
O25 C10 1.257 . S
O26 Gd1 2.377 1_556 S
O26 C11 1.240 . S
O27 Gd0 2.395 . S
O27 C11 1.240 1_554 S
O28 Gd1 2.448 1_556 S
O28 C12 1.249 . S
O29 Gd1 2.506 1_556 S
O29 C12 1.252 . S
O30 Gd1 2.435 . S
O30 C19 1.256 . S
O31 Gd0 2.327 . S
O31 Gd1 2.717 . S
O31 C19 1.257 . S
H32 C5 0.930 . S
H33 C6 0.931 . S
H34 C8 0.931 . S
H35 C9 0.931 . S
H36 C14 0.930 . S
H37 C15 0.931 . S
H38 C17 0.931 . S
H39 C18 0.931 . S
Gd40 C43 2.818 . S
Gd40 O60 2.377 . S
Gd40 O62 2.448 . S
Gd40 O63 2.506 . S
Gd40 O64 2.435 . S
Gd40 O65 2.717 . S
Gd40 O67 2.395 . S
Gd40 O71 2.327 . S
Gd41 C52 2.818 . S
Gd41 O61 2.395 . S
Gd41 O65 2.327 . S
Gd41 O66 2.377 . S
Gd41 O68 2.448 . S
Gd41 O69 2.506 . S
Gd41 O70 2.435 . S
Gd41 O71 2.717 . S
C42 O60 1.240 . S
C42 O61 1.240 . S
C43 Gd40 2.818 . S
C43 C44 1.510 . S
C43 O62 1.249 . S
C43 O63 1.252 . S
C44 C43 1.510 . S
C44 C45 1.404 . S
C44 C46 1.352 . S
C45 C44 1.404 . S
C45 C49 1.389 . S
C45 H72 0.930 . S
C46 C44 1.352 . S
C46 C48 1.374 . S
C46 H73 0.931 . S
C47 C48 1.359 . S
C47 C49 1.364 . S
C48 C46 1.374 . S
C48 C47 1.359 . S
C48 H74 0.931 . S
C49 C45 1.389 . S
C49 C47 1.364 . S
C49 H75 0.931 . S
C50 O64 1.256 . S
C50 O65 1.257 . S
C51 O66 1.240 . S
C51 O67 1.240 . S
C52 Gd41 2.818 . S
C52 C53 1.510 . S
C52 O68 1.249 . S
C52 O69 1.252 . S
C53 C52 1.510 . S
C53 C54 1.404 . S
C53 C55 1.352 1_655 S
C54 C53 1.404 . S
C54 C58 1.389 . S
C54 H76 0.930 . S
C55 C53 1.352 1_455 S
C55 C57 1.374 . S
C55 H77 0.931 . S
C56 C57 1.359 . S
C56 C58 1.364 1_455 S
C57 C55 1.374 . S
C57 C56 1.359 . S
C57 H78 0.931 . S
C58 C54 1.389 . S
C58 C56 1.364 1_655 S
C58 H79 0.931 . S
C59 O70 1.256 . S
C59 O71 1.257 . S
O60 Gd40 2.377 . S
O60 C42 1.240 . S
O61 Gd41 2.395 . S
O61 C42 1.240 . S
O62 Gd40 2.448 . S
O62 C43 1.249 . S
O63 Gd40 2.506 . S
O63 C43 1.252 . S
O64 Gd40 2.435 . S
O64 C50 1.256 . S
O65 Gd40 2.717 . S
O65 Gd41 2.327 . S
O65 C50 1.257 . S
O66 Gd41 2.377 . S
O66 C51 1.240 . S
O67 Gd40 2.395 . S
O67 C51 1.240 . S
O68 Gd41 2.448 . S
O68 C52 1.249 . S
O69 Gd41 2.506 . S
O69 C52 1.252 . S
O70 Gd41 2.435 . S
O70 C59 1.256 . S
O71 Gd40 2.327 . S
O71 Gd41 2.717 . S
O71 C59 1.257 . S
H72 C45 0.930 . S
H73 C46 0.931 . S
H74 C48 0.931 . S
H75 C49 0.931 . S
H76 C54 0.930 . S
H77 C55 0.931 . S
H78 C57 0.931 . S
H79 C58 0.931 . S
Gd80 C83 2.818 . S
Gd80 O100 2.377 . S
Gd80 O102 2.448 . S
Gd80 O103 2.506 . S
Gd80 O104 2.435 . S
Gd80 O105 2.717 . S
Gd80 O107 2.395 . S
Gd80 O111 2.327 . S
Gd81 C92 2.818 . S
Gd81 O101 2.395 . S
Gd81 O105 2.327 . S
Gd81 O106 2.377 . S
Gd81 O108 2.448 . S
Gd81 O109 2.506 . S
Gd81 O110 2.435 . S
Gd81 O111 2.717 . S
C82 O100 1.240 . S
C82 O101 1.240 . S
C83 Gd80 2.818 . S
C83 C84 1.510 . S
C83 O102 1.249 . S
C83 O103 1.252 . S
C84 C83 1.510 . S
C84 C85 1.404 . S
C84 C86 1.352 . S
C85 C84 1.404 . S
C85 C89 1.389 . S
C85 H112 0.930 . S
C86 C84 1.352 . S
C86 C88 1.374 . S
C86 H113 0.931 . S
C87 C88 1.359 . S
C87 C89 1.364 . S
C88 C86 1.374 . S
C88 C87 1.359 . S
C88 H114 0.931 . S
C89 C85 1.389 . S
C89 C87 1.364 . S
C89 H115 0.931 . S
C90 O104 1.256 . S
C90 O105 1.257 . S
C91 O106 1.240 . S
C91 O107 1.240 . S
C92 Gd81 2.818 . S
C92 C93 1.510 . S
C92 O108 1.249 . S
C92 O109 1.252 . S
C93 C92 1.510 . S
C93 C94 1.404 . S
C93 C95 1.352 1_565 S
C94 C93 1.404 . S
C94 C98 1.389 . S
C94 H116 0.930 . S
C95 C93 1.352 1_545 S
C95 C97 1.374 . S
C95 H117 0.931 . S
C96 C97 1.359 . S
C96 C98 1.364 1_545 S
C97 C95 1.374 . S
C97 C96 1.359 . S
C97 H118 0.931 . S
C98 C94 1.389 . S
C98 C96 1.364 1_565 S
C98 H119 0.931 . S
C99 O110 1.256 . S
C99 O111 1.257 . S
O100 Gd80 2.377 . S
O100 C82 1.240 . S
O101 Gd81 2.395 . S
O101 C82 1.240 . S
O102 Gd80 2.448 . S
O102 C83 1.249 . S
O103 Gd80 2.506 . S
O103 C83 1.252 . S
O104 Gd80 2.435 . S
O104 C90 1.256 . S
O105 Gd80 2.717 . S
O105 Gd81 2.327 . S
O105 C90 1.257 . S
O106 Gd81 2.377 . S
O106 C91 1.240 . S
O107 Gd80 2.395 . S
O107 C91 1.240 . S
O108 Gd81 2.448 . S
O108 C92 1.249 . S
O109 Gd81 2.506 . S
O109 C92 1.252 . S
O110 Gd81 2.435 . S
O110 C99 1.256 . S
O111 Gd80 2.327 . S
O111 Gd81 2.717 . S
O111 C99 1.257 . S
H112 C85 0.930 . S
H113 C86 0.931 . S
H114 C88 0.931 . S
H115 C89 0.931 . S
H116 C94 0.930 . S
H117 C95 0.931 . S
H118 C97 0.931 . S
H119 C98 0.931 . S
Gd120 C123 2.818 . S
Gd120 O140 2.377 . S
Gd120 O142 2.448 . S
Gd120 O143 2.506 . S
Gd120 O144 2.435 . S
Gd120 O145 2.717 . S
Gd120 O147 2.395 . S
Gd120 O151 2.327 . S
Gd121 C132 2.818 1_554 S
Gd121 O141 2.395 . S
Gd121 O145 2.327 . S
Gd121 O146 2.377 1_554 S
Gd121 O148 2.448 1_554 S
Gd121 O149 2.506 1_554 S
Gd121 O150 2.435 . S
Gd121 O151 2.717 . S
C122 O140 1.240 . S
C122 O141 1.240 . S
C123 Gd120 2.818 . S
C123 C124 1.510 . S
C123 O142 1.249 . S
C123 O143 1.252 . S
C124 C123 1.510 . S
C124 C125 1.404 . S
C124 C126 1.352 . S
C125 C124 1.404 . S
C125 C129 1.389 . S
C125 H152 0.930 . S
C126 C124 1.352 . S
C126 C128 1.374 . S
C126 H153 0.931 . S
C127 C128 1.359 . S
C127 C129 1.364 . S
C128 C126 1.374 . S
C128 C127 1.359 . S
C128 H154 0.931 . S
C129 C125 1.389 . S
C129 C127 1.364 . S
C129 H155 0.931 . S
C130 O144 1.256 . S
C130 O145 1.257 . S
C131 O146 1.240 . S
C131 O147 1.240 1_556 S
C132 Gd121 2.818 1_556 S
C132 C133 1.510 . S
C132 O148 1.249 . S
C132 O149 1.252 . S
C133 C132 1.510 . S
C133 C134 1.404 . S
C133 C135 1.352 . S
C134 C133 1.404 . S
C134 C138 1.389 . S
C134 H156 0.930 . S
C135 C133 1.352 . S
C135 C137 1.374 . S
C135 H157 0.931 . S
C136 C137 1.359 . S
C136 C138 1.364 . S
C137 C135 1.374 . S
C137 C136 1.359 . S
C137 H158 0.931 . S
C138 C134 1.389 . S
C138 C136 1.364 . S
C138 H159 0.931 . S
C139 O150 1.256 . S
C139 O151 1.257 . S
O140 Gd120 2.377 . S
O140 C122 1.240 . S
O141 Gd121 2.395 . S
O141 C122 1.240 . S
O142 Gd120 2.448 . S
O142 C123 1.249 . S
O143 Gd120 2.506 . S
O143 C123 1.252 . S
O144 Gd120 2.435 . S
O144 C130 1.256 . S
O145 Gd120 2.717 . S
O145 Gd121 2.327 . S
O145 C130 1.257 . S
O146 Gd121 2.377 1_556 S
O146 C131 1.240 . S
O147 Gd120 2.395 . S
O147 C131 1.240 1_554 S
O148 Gd121 2.448 1_556 S
O148 C132 1.249 . S
O149 Gd121 2.506 1_556 S
O149 C132 1.252 . S
O150 Gd121 2.435 . S
O150 C139 1.256 . S
O151 Gd120 2.327 . S
O151 Gd121 2.717 . S
O151 C139 1.257 . S
H152 C125 0.930 . S
H153 C126 0.931 . S
H154 C128 0.931 . S
H155 C129 0.931 . S
H156 C134 0.930 . S
H157 C135 0.931 . S
H158 C137 0.931 . S
H159 C138 0.931 . S
Gd160 C163 2.818 . S
Gd160 O180 2.377 . S
Gd160 O182 2.448 . S
Gd160 O183 2.506 . S
Gd160 O184 2.435 . S
Gd160 O185 2.717 . S
Gd160 O187 2.395 . S
Gd160 O191 2.327 . S
Gd161 C172 2.818 . S
Gd161 O181 2.395 . S
Gd161 O185 2.327 . S
Gd161 O186 2.377 . S
Gd161 O188 2.448 . S
Gd161 O189 2.506 . S
Gd161 O190 2.435 . S
Gd161 O191 2.717 . S
C162 O180 1.240 . S
C162 O181 1.240 . S
C163 Gd160 2.818 . S
C163 C164 1.510 . S
C163 O182 1.249 . S
C163 O183 1.252 . S
C164 C163 1.510 . S
C164 C165 1.404 . S
C164 C166 1.352 . S
C165 C164 1.404 . S
C165 C169 1.389 . S
C165 H192 0.930 . S
C166 C164 1.352 . S
C166 C168 1.374 . S
C166 H193 0.931 . S
C167 C168 1.359 . S
C167 C169 1.364 . S
C168 C166 1.374 . S
C168 C167 1.359 . S
C168 H194 0.931 . S
C169 C165 1.389 . S
C169 C167 1.364 . S
C169 H195 0.931 . S
C170 O184 1.256 . S
C170 O185 1.257 . S
C171 O186 1.240 . S
C171 O187 1.240 . S
C172 Gd161 2.818 . S
C172 C173 1.510 . S
C172 O188 1.249 . S
C172 O189 1.252 . S
C173 C172 1.510 . S
C173 C174 1.404 . S
C173 C175 1.352 1_455 S
C174 C173 1.404 . S
C174 C178 1.389 . S
C174 H196 0.930 . S
C175 C173 1.352 1_655 S
C175 C177 1.374 . S
C175 H197 0.931 . S
C176 C177 1.359 . S
C176 C178 1.364 1_655 S
C177 C175 1.374 . S
C177 C176 1.359 . S
C177 H198 0.931 . S
C178 C174 1.389 . S
C178 C176 1.364 1_455 S
C178 H199 0.931 . S
C179 O190 1.256 . S
C179 O191 1.257 . S
O180 Gd160 2.377 . S
O180 C162 1.240 . S
O181 Gd161 2.395 . S
O181 C162 1.240 . S
O182 Gd160 2.448 . S
O182 C163 1.249 . S
O183 Gd160 2.506 . S
O183 C163 1.252 . S
O184 Gd160 2.435 . S
O184 C170 1.256 . S
O185 Gd160 2.717 . S
O185 Gd161 2.327 . S
O185 C170 1.257 . S
O186 Gd161 2.377 . S
O186 C171 1.240 . S
O187 Gd160 2.395 . S
O187 C171 1.240 . S
O188 Gd161 2.448 . S
O188 C172 1.249 . S
O189 Gd161 2.506 . S
O189 C172 1.252 . S
O190 Gd161 2.435 . S
O190 C179 1.256 . S
O191 Gd160 2.327 . S
O191 Gd161 2.717 . S
O191 C179 1.257 . S
H192 C165 0.930 . S
H193 C166 0.931 . S
H194 C168 0.931 . S
H195 C169 0.931 . S
H196 C174 0.930 . S
H197 C175 0.931 . S
H198 C177 0.931 . S
H199 C178 0.931 . S
Gd200 C203 2.818 . S
Gd200 O220 2.377 . S
Gd200 O222 2.448 . S
Gd200 O223 2.506 . S
Gd200 O224 2.435 . S
Gd200 O225 2.717 . S
Gd200 O227 2.395 . S
Gd200 O231 2.327 . S
Gd201 C212 2.818 . S
Gd201 O221 2.395 . S
Gd201 O225 2.327 . S
Gd201 O226 2.377 . S
Gd201 O228 2.448 . S
Gd201 O229 2.506 . S
Gd201 O230 2.435 . S
Gd201 O231 2.717 . S
C202 O220 1.240 . S
C202 O221 1.240 . S
C203 Gd200 2.818 . S
C203 C204 1.510 . S
C203 O222 1.249 . S
C203 O223 1.252 . S
C204 C203 1.510 . S
C204 C205 1.404 . S
C204 C206 1.352 . S
C205 C204 1.404 . S
C205 C209 1.389 . S
C205 H232 0.930 . S
C206 C204 1.352 . S
C206 C208 1.374 . S
C206 H233 0.931 . S
C207 C208 1.359 . S
C207 C209 1.364 . S
C208 C206 1.374 . S
C208 C207 1.359 . S
C208 H234 0.931 . S
C209 C205 1.389 . S
C209 C207 1.364 . S
C209 H235 0.931 . S
C210 O224 1.256 . S
C210 O225 1.257 . S
C211 O226 1.240 . S
C211 O227 1.240 . S
C212 Gd201 2.818 . S
C212 C213 1.510 . S
C212 O228 1.249 . S
C212 O229 1.252 . S
C213 C212 1.510 . S
C213 C214 1.404 . S
C213 C215 1.352 1_545 S
C214 C213 1.404 . S
C214 C218 1.389 . S
C214 H236 0.930 . S
C215 C213 1.352 1_565 S
C215 C217 1.374 . S
C215 H237 0.931 . S
C216 C217 1.359 . S
C216 C218 1.364 1_565 S
C217 C215 1.374 . S
C217 C216 1.359 . S
C217 H238 0.931 . S
C218 C214 1.389 . S
C218 C216 1.364 1_545 S
C218 H239 0.931 . S
C219 O230 1.256 . S
C219 O231 1.257 . S
O220 Gd200 2.377 . S
O220 C202 1.240 . S
O221 Gd201 2.395 . S
O221 C202 1.240 . S
O222 Gd200 2.448 . S
O222 C203 1.249 . S
O223 Gd200 2.506 . S
O223 C203 1.252 . S
O224 Gd200 2.435 . S
O224 C210 1.256 . S
O225 Gd200 2.717 . S
O225 Gd201 2.327 . S
O225 C210 1.257 . S
O226 Gd201 2.377 . S
O226 C211 1.240 . S
O227 Gd200 2.395 . S
O227 C211 1.240 . S
O228 Gd201 2.448 . S
O228 C212 1.249 . S
O229 Gd201 2.506 . S
O229 C212 1.252 . S
O230 Gd201 2.435 . S
O230 C219 1.256 . S
O231 Gd200 2.327 . S
O231 Gd201 2.717 . S
O231 C219 1.257 . S
H232 C205 0.930 . S
H233 C206 0.931 . S
H234 C208 0.931 . S
H235 C209 0.931 . S
H236 C214 0.930 . S
H237 C215 0.931 . S
H238 C217 0.931 . S
H239 C218 0.931 . S
C240 C241 1.387 . S
C240 H244 0.950 . S
C240 C249 1.390 . S
C241 C240 1.387 . S
C241 C243 1.387 . S
H242 C249 0.950 . S
C243 C241 1.387 . S
C243 C245 1.390 . S
C243 H247 0.950 . S
H244 C240 0.950 . S
C245 C243 1.390 . S
C245 C246 1.387 . S
C245 H248 0.950 . S
C246 C245 1.387 . S
C246 C249 1.387 . S
H247 C243 0.950 . S
H248 C245 0.950 . S
C249 C240 1.390 . S
C249 H242 0.950 . S
C249 C246 1.387 . S
C250 C251 1.387 . S
C250 H254 0.950 . S
C250 C259 1.390 . S
C251 C250 1.387 . S
C251 C253 1.387 . S
H252 C259 0.950 . S
C253 C251 1.387 . S
C253 C255 1.390 . S
C253 H257 0.950 . S
H254 C250 0.950 . S
C255 C253 1.390 . S
C255 C256 1.387 . S
C255 H258 0.950 . S
C256 C255 1.387 . S
C256 C259 1.387 . S
H257 C253 0.950 . S
H258 C255 0.950 . S
C259 C250 1.390 . S
C259 H252 0.950 . S
C259 C256 1.387 . S
C260 C261 1.387 . S
C260 H264 0.950 . S
C260 C269 1.390 . S
C261 C260 1.387 . S
C261 C263 1.387 . S
H262 C269 0.950 . S
C263 C261 1.387 . S
C263 C265 1.390 . S
C263 H267 0.950 . S
H264 C260 0.950 . S
C265 C263 1.390 . S
C265 C266 1.387 . S
C265 H268 0.950 . S
C266 C265 1.387 . S
C266 C269 1.387 . S
H267 C263 0.950 . S
H268 C265 0.950 . S
C269 C260 1.390 . S
C269 H262 0.950 . S
C269 C266 1.387 . S
C270 C271 1.387 . S
C270 H274 0.950 . S
C270 C279 1.390 . S
C271 C270 1.387 . S
C271 C273 1.387 . S
H272 C279 0.950 . S
C273 C271 1.387 . S
C273 C275 1.390 . S
C273 H277 0.950 . S
H274 C270 0.950 . S
C275 C273 1.390 . S
C275 C276 1.387 . S
C275 H278 0.950 . S
C276 C275 1.387 . S
C276 C279 1.387 . S
H277 C273 0.950 . S
H278 C275 0.950 . S
C279 C270 1.390 . S
C279 H272 0.950 . S
C279 C276 1.387 . S
C280 C281 1.387 . S
C280 H284 0.950 . S
C280 C289 1.390 . S
C281 C280 1.387 . S
C281 C283 1.387 . S
H282 C289 0.950 . S
C283 C281 1.387 . S
C283 C285 1.390 . S
C283 H287 0.950 . S
H284 C280 0.950 . S
C285 C283 1.390 . S
C285 C286 1.387 . S
C285 H288 0.950 . S
C286 C285 1.387 . S
C286 C289 1.387 . S
H287 C283 0.950 . S
H288 C285 0.950 . S
C289 C280 1.390 . S
C289 H282 0.950 . S
C289 C286 1.387 . S
C290 C291 1.387 . S
C290 H294 0.950 . S
C290 C299 1.390 . S
C291 C290 1.387 . S
C291 C293 1.387 . S
H292 C299 0.950 . S
C293 C291 1.387 . S
C293 C295 1.390 . S
C293 H297 0.950 . S
H294 C290 0.950 . S
C295 C293 1.390 . S
C295 C296 1.387 . S
C295 H298 0.950 . S
C296 C295 1.387 . S
C296 C299 1.387 . S
H297 C293 0.950 . S
H298 C295 0.950 . S
C299 C290 1.390 . S
C299 H292 0.950 . S
C299 C296 1.387 . S
C300 C301 1.387 . S
C300 H304 0.950 . S
C300 C309 1.390 . S
C301 C300 1.387 . S
C301 C303 1.387 . S
H302 C309 0.950 . S
C303 C301 1.387 . S
C303 C305 1.390 . S
C303 H307 0.950 . S
H304 C300 0.950 . S
C305 C303 1.390 . S
C305 C306 1.387 . S
C305 H308 0.950 . S
C306 C305 1.387 . S
C306 C309 1.387 . S
H307 C303 0.950 . S
H308 C305 0.950 . S
C309 C300 1.390 . S
C309 H302 0.950 . S
C309 C306 1.387 . S
C310 C311 1.387 . S
C310 H314 0.950 . S
C310 C319 1.390 1_455 S
C311 C310 1.387 . S
C311 C313 1.387 . S
H312 C319 0.950 . S
C313 C311 1.387 . S
C313 C315 1.390 1_455 S
C313 H317 0.950 . S
H314 C310 0.950 . S
C315 C313 1.390 1_655 S
C315 C316 1.387 . S
C315 H318 0.950 . S
C316 C315 1.387 . S
C316 C319 1.387 . S
H317 C313 0.950 . S
H318 C315 0.950 . S
C319 C310 1.390 1_655 S
C319 H312 0.950 . S
C319 C316 1.387 . S
C320 C321 1.387 . S
C320 H324 0.950 . S
C320 C329 1.390 1_545 S
C321 C320 1.387 . S
C321 C323 1.387 . S
H322 C329 0.950 . S
C323 C321 1.387 . S
C323 C325 1.390 1_545 S
C323 H327 0.950 . S
H324 C320 0.950 . S
C325 C323 1.390 1_565 S
C325 C326 1.387 . S
C325 H328 0.950 . S
C326 C325 1.387 . S
C326 C329 1.387 . S
H327 C323 0.950 . S
H328 C325 0.950 . S
C329 C320 1.390 1_565 S
C329 H322 0.950 . S
C329 C326 1.387 . S
C330 C331 1.387 . S
C330 H334 0.950 . S
C330 C339 1.390 . S
C331 C330 1.387 . S
C331 C333 1.387 . S
H332 C339 0.950 . S
C333 C331 1.387 . S
C333 C335 1.390 . S
C333 H337 0.950 . S
H334 C330 0.950 . S
C335 C333 1.390 . S
C335 C336 1.387 . S
C335 H338 0.950 . S
C336 C335 1.387 . S
C336 C339 1.387 . S
H337 C333 0.950 . S
H338 C335 0.950 . S
C339 C330 1.390 . S
C339 H332 0.950 . S
C339 C336 1.387 . S
C340 C341 1.387 . S
C340 H344 0.950 . S
C340 C349 1.390 1_455 S
C341 C340 1.387 . S
C341 C343 1.387 . S
H342 C349 0.950 . S
C343 C341 1.387 . S
C343 C345 1.390 1_455 S
C343 H347 0.950 1_554 S
H344 C340 0.950 . S
C345 C343 1.390 1_655 S
C345 C346 1.387 . S
C345 H348 0.950 1_554 S
C346 C345 1.387 . S
C346 C349 1.387 . S
H347 C343 0.950 1_556 S
H348 C345 0.950 1_556 S
C349 C340 1.390 1_655 S
C349 H342 0.950 . S
C349 C346 1.387 . S
C350 C351 1.387 . S
C350 H354 0.950 . S
C350 C359 1.390 1_565 S
C351 C350 1.387 . S
C351 C353 1.387 . S
H352 C359 0.950 . S
C353 C351 1.387 . S
C353 C355 1.390 1_565 S
C353 H357 0.950 . S
H354 C350 0.950 . S
C355 C353 1.390 1_545 S
C355 C356 1.387 . S
C355 H358 0.950 . S
C356 C355 1.387 . S
C356 C359 1.387 . S
H357 C353 0.950 . S
H358 C355 0.950 . S
C359 C350 1.390 1_545 S
C359 H352 0.950 . S
C359 C356 1.387 . S
C360 C361 1.387 . S
C360 H364 0.950 . S
C360 C369 1.390 . S
C361 C360 1.387 . S
C361 C363 1.387 . S
H362 C369 0.950 . S
C363 C361 1.387 . S
C363 C365 1.390 . S
C363 H367 0.950 . S
H364 C360 0.950 . S
C365 C363 1.390 . S
C365 C366 1.387 . S
C365 H368 0.950 . S
C366 C365 1.387 . S
C366 C369 1.387 . S
H367 C363 0.950 . S
H368 C365 0.950 . S
C369 C360 1.390 . S
C369 H362 0.950 . S
C369 C366 1.387 . S
C370 C371 1.387 1_655 S
C370 H374 0.950 . S
C370 C379 1.390 1_655 S
C371 C370 1.387 1_455 S
C371 C373 1.387 . S
H372 C379 0.950 1_655 S
C373 C371 1.387 . S
C373 C375 1.390 . S
C373 H377 0.950 . S
H374 C370 0.950 . S
C375 C373 1.390 . S
C375 C376 1.387 . S
C375 H378 0.950 . S
C376 C375 1.387 . S
C376 C379 1.387 . S
H377 C373 0.950 . S
H378 C375 0.950 . S
C379 C370 1.390 1_455 S
C379 H372 0.950 1_455 S
C379 C376 1.387 . S
C380 C381 1.387 . S
C380 H384 0.950 . S
C380 C389 1.390 . S
C381 C380 1.387 . S
C381 C383 1.387 1_545 S
H382 C389 0.950 . S
C383 C381 1.387 1_565 S
C383 C385 1.390 1_565 S
C383 H387 0.950 . S
H384 C380 0.950 . S
C385 C383 1.390 1_545 S
C385 C386 1.387 . S
C385 H388 0.950 1_545 S
C386 C385 1.387 . S
C386 C389 1.387 . S
H387 C383 0.950 . S
H388 C385 0.950 1_565 S
C389 C380 1.390 . S
C389 H382 0.950 . S
C389 C386 1.387 . S
C390 C391 1.387 . S
C390 H394 0.950 . S
C390 C399 1.390 . S
C391 C390 1.387 . S
C391 C393 1.387 . S
H392 C399 0.950 . S
C393 C391 1.387 . S
C393 C395 1.390 . S
C393 H397 0.950 . S
H394 C390 0.950 . S
C395 C393 1.390 . S
C395 C396 1.387 . S
C395 H398 0.950 . S
C396 C395 1.387 . S
C396 C399 1.387 . S
H397 C393 0.950 . S
H398 C395 0.950 . S
C399 C390 1.390 . S
C399 H392 0.950 . S
C399 C396 1.387 . S
C400 C401 1.387 . S
C400 H404 0.950 . S
C400 C409 1.390 . S
C401 C400 1.387 . S
C401 C403 1.387 . S
H402 C409 0.950 . S
C403 C401 1.387 . S
C403 C405 1.390 . S
C403 H407 0.950 . S
H404 C400 0.950 . S
C405 C403 1.390 . S
C405 C406 1.387 . S
C405 H408 0.950 . S
C406 C405 1.387 . S
C406 C409 1.387 . S
H407 C403 0.950 . S
H408 C405 0.950 . S
C409 C400 1.390 . S
C409 H402 0.950 . S
C409 C406 1.387 . S
C410 C411 1.387 1_545 S
C410 H414 0.950 . S
C410 C419 1.390 1_545 S
C411 C410 1.387 1_565 S
C411 C413 1.387 . S
H412 C419 0.950 1_545 S
C413 C411 1.387 . S
C413 C415 1.390 . S
C413 H417 0.950 . S
H414 C410 0.950 . S
C415 C413 1.390 . S
C415 C416 1.387 . S
C415 H418 0.950 . S
C416 C415 1.387 . S
C416 C419 1.387 . S
H417 C413 0.950 . S
H418 C415 0.950 . S
C419 C410 1.390 1_565 S
C419 H412 0.950 1_565 S
C419 C416 1.387 . S
C241 C171 1.238 . S
C246 C7 1.244 . S
C251 C211 1.239 . S
C256 C47 1.245 . S
C261 C11 1.237 . S
C266 C87 1.244 . S
C271 C51 1.239 . S
C276 C127 1.245 . S
C281 C91 1.237 . S
C286 C167 1.243 . S
C291 C131 1.237 . S
C296 C207 1.244 . S
C301 C10 1.320 . S
C306 C130 1.320 . S
C311 C170 1.320 . S
C316 C50 1.320 . S
C321 C210 1.314 . S
C326 C90 1.314 . S
C331 C99 1.554 . S
C336 C219 1.554 . S
C341 C19 1.556 . S
C346 C139 1.556 . S
C351 C179 1.555 . S
C356 C59 1.555 . S
C361 C202 1.429 . S
C366 C16 1.373 . S
C371 C56 1.374 . S
C376 C2 1.430 . S
C381 C96 1.371 . S
C386 C42 1.429 . S
C391 C82 1.429 . S
C396 C136 1.373 . S
C401 C176 1.374 . S
C406 C122 1.430 . S
C411 C216 1.374 . S
C416 C162 1.430 . S
