# Generated by pormake.
# Topology hbo, (4)-cn, num edge types: 1
# Building blocks:
#     Node 0, Type 0, BuildingBlock: CEKHIL_clean_sbu_0, # of connection points: 4
#     Node 1, Type 0, BuildingBlock: CEKHIL_clean_sbu_0, # of connection points: 4
#     Node 2, Type 0, BuildingBlock: CEKHIL_clean_sbu_0, # of connection points: 4
#     Node 3, Type 0, BuildingBlock: CEKHIL_clean_sbu_0, # of connection points: 4
#     Node 4, Type 0, BuildingBlock: CEKHIL_clean_sbu_0, # of connection points: 4
#     Node 5, Type 0, BuildingBlock: CEKHIL_clean_sbu_0, # of connection points: 4
#     Node 6, Type 0, BuildingBlock: CEKHIL_clean_sbu_0, # of connection points: 4
#     Node 7, Type 0, BuildingBlock: CEKHIL_clean_sbu_0, # of connection points: 4
#     Node 8, Type 0, BuildingBlock: CEKHIL_clean_sbu_0, # of connection points: 4
#     Node 9, Type 0, BuildingBlock: CEKHIL_clean_sbu_0, # of connection points: 4
#     Node 10, Type 0, BuildingBlock: CEKHIL_clean_sbu_0, # of connection points: 4
#     Node 11, Type 0, BuildingBlock: CEKHIL_clean_sbu_0, # of connection points: 4
#     Node 12, Type 0, BuildingBlock: CEKHIL_clean_sbu_0, # of connection points: 4
#     Node 13, Type 0, BuildingBlock: CEKHIL_clean_sbu_0, # of connection points: 4
#     Node 14, Type 0, BuildingBlock: CEKHIL_clean_sbu_0, # of connection points: 4
#     Node 15, Type 0, BuildingBlock: CEKHIL_clean_sbu_0, # of connection points: 4
#     Node 16, Type 0, BuildingBlock: CEKHIL_clean_sbu_0, # of connection points: 4
#     Node 17, Type 0, BuildingBlock: CEKHIL_clean_sbu_0, # of connection points: 4
#     Node 18, Type 0, BuildingBlock: CEKHIL_clean_sbu_0, # of connection points: 4
#     Node 19, Type 0, BuildingBlock: CEKHIL_clean_sbu_0, # of connection points: 4
#     Node 20, Type 0, BuildingBlock: CEKHIL_clean_sbu_0, # of connection points: 4
#     Node 21, Type 0, BuildingBlock: CEKHIL_clean_sbu_0, # of connection points: 4
#     Node 22, Type 0, BuildingBlock: CEKHIL_clean_sbu_0, # of connection points: 4
#     Node 23, Type 0, BuildingBlock: CEKHIL_clean_sbu_0, # of connection points: 4
#     Edge 24, Type (0, 0), BuildingBlock: KIFKEQ_clean_linker_1, # of connection points: 2
#     Edge 25, Type (0, 0), BuildingBlock: KIFKEQ_clean_linker_1, # of connection points: 2
#     Edge 26, Type (0, 0), BuildingBlock: KIFKEQ_clean_linker_1, # of connection points: 2
#     Edge 27, Type (0, 0), BuildingBlock: KIFKEQ_clean_linker_1, # of connection points: 2
#     Edge 28, Type (0, 0), BuildingBlock: KIFKEQ_clean_linker_1, # of connection points: 2
#     Edge 29, Type (0, 0), BuildingBlock: KIFKEQ_clean_linker_1, # of connection points: 2
#     Edge 30, Type (0, 0), BuildingBlock: KIFKEQ_clean_linker_1, # of connection points: 2
#     Edge 31, Type (0, 0), BuildingBlock: KIFKEQ_clean_linker_1, # of connection points: 2
#     Edge 32, Type (0, 0), BuildingBlock: KIFKEQ_clean_linker_1, # of connection points: 2
#     Edge 33, Type (0, 0), BuildingBlock: KIFKEQ_clean_linker_1, # of connection points: 2
#     Edge 34, Type (0, 0), BuildingBlock: KIFKEQ_clean_linker_1, # of connection points: 2
#     Edge 35, Type (0, 0), BuildingBlock: KIFKEQ_clean_linker_1, # of connection points: 2
#     Edge 36, Type (0, 0), BuildingBlock: KIFKEQ_clean_linker_1, # of connection points: 2
#     Edge 37, Type (0, 0), BuildingBlock: KIFKEQ_clean_linker_1, # of connection points: 2
#     Edge 38, Type (0, 0), BuildingBlock: KIFKEQ_clean_linker_1, # of connection points: 2
#     Edge 39, Type (0, 0), BuildingBlock: KIFKEQ_clean_linker_1, # of connection points: 2
#     Edge 40, Type (0, 0), BuildingBlock: KIFKEQ_clean_linker_1, # of connection points: 2
#     Edge 41, Type (0, 0), BuildingBlock: KIFKEQ_clean_linker_1, # of connection points: 2
#     Edge 42, Type (0, 0), BuildingBlock: KIFKEQ_clean_linker_1, # of connection points: 2
#     Edge 43, Type (0, 0), BuildingBlock: KIFKEQ_clean_linker_1, # of connection points: 2
#     Edge 44, Type (0, 0), BuildingBlock: KIFKEQ_clean_linker_1, # of connection points: 2
#     Edge 45, Type (0, 0), BuildingBlock: KIFKEQ_clean_linker_1, # of connection points: 2
#     Edge 46, Type (0, 0), BuildingBlock: KIFKEQ_clean_linker_1, # of connection points: 2
#     Edge 47, Type (0, 0), BuildingBlock: KIFKEQ_clean_linker_1, # of connection points: 2
#     Edge 48, Type (0, 0), BuildingBlock: KIFKEQ_clean_linker_1, # of connection points: 2
#     Edge 49, Type (0, 0), BuildingBlock: KIFKEQ_clean_linker_1, # of connection points: 2
#     Edge 50, Type (0, 0), BuildingBlock: KIFKEQ_clean_linker_1, # of connection points: 2
#     Edge 51, Type (0, 0), BuildingBlock: KIFKEQ_clean_linker_1, # of connection points: 2
#     Edge 52, Type (0, 0), BuildingBlock: KIFKEQ_clean_linker_1, # of connection points: 2
#     Edge 53, Type (0, 0), BuildingBlock: KIFKEQ_clean_linker_1, # of connection points: 2
#     Edge 54, Type (0, 0), BuildingBlock: KIFKEQ_clean_linker_1, # of connection points: 2
#     Edge 55, Type (0, 0), BuildingBlock: KIFKEQ_clean_linker_1, # of connection points: 2
#     Edge 56, Type (0, 0), BuildingBlock: KIFKEQ_clean_linker_1, # of connection points: 2
#     Edge 57, Type (0, 0), BuildingBlock: KIFKEQ_clean_linker_1, # of connection points: 2
#     Edge 58, Type (0, 0), BuildingBlock: KIFKEQ_clean_linker_1, # of connection points: 2
#     Edge 59, Type (0, 0), BuildingBlock: KIFKEQ_clean_linker_1, # of connection points: 2
#     Edge 60, Type (0, 0), BuildingBlock: KIFKEQ_clean_linker_1, # of connection points: 2
#     Edge 61, Type (0, 0), BuildingBlock: KIFKEQ_clean_linker_1, # of connection points: 2
#     Edge 62, Type (0, 0), BuildingBlock: KIFKEQ_clean_linker_1, # of connection points: 2
#     Edge 63, Type (0, 0), BuildingBlock: KIFKEQ_clean_linker_1, # of connection points: 2
#     Edge 64, Type (0, 0), BuildingBlock: KIFKEQ_clean_linker_1, # of connection points: 2
#     Edge 65, Type (0, 0), BuildingBlock: KIFKEQ_clean_linker_1, # of connection points: 2
#     Edge 66, Type (0, 0), BuildingBlock: KIFKEQ_clean_linker_1, # of connection points: 2
#     Edge 67, Type (0, 0), BuildingBlock: KIFKEQ_clean_linker_1, # of connection points: 2
#     Edge 68, Type (0, 0), BuildingBlock: KIFKEQ_clean_linker_1, # of connection points: 2
#     Edge 69, Type (0, 0), BuildingBlock: KIFKEQ_clean_linker_1, # of connection points: 2
#     Edge 70, Type (0, 0), BuildingBlock: KIFKEQ_clean_linker_1, # of connection points: 2
#     Edge 71, Type (0, 0), BuildingBlock: KIFKEQ_clean_linker_1, # of connection points: 2
# Relax obj value: 0.228
# Max RMSD: 0.244
# Mean RMSD: 0.240
data_MOF--net-hbo--node1-CEKHIL_clean_sbu_0--edge1-KIFKEQ_clean_linker_1
_symmetry_space_group_name_H-M    P1
_symmetry_Int_Tables_number       1
_symmetry_cell_setting            triclinic
loop_
_symmetry_equiv_pos_as_xyz
'x, y, z'
_cell_length_a     53.543682
_cell_length_b     52.805519
_cell_length_c     52.689737
_cell_angle_alpha  89.874297
_cell_angle_beta   89.835134
_cell_angle_gamma 89.085493
loop_
_atom_site_label
_atom_site_type_symbol
_atom_site_fract_x
_atom_site_fract_y
_atom_site_fract_z
_atom_type_partial_charge
Co0 Co 0.12438 0.34771 0.22826 0.0
O1 O 0.09004 0.35714 0.23245 0.0
O2 O 0.10914 0.35231 0.1952 0.0
C3 C 0.12535 0.3156 0.25622 0.0
O4 O 0.1595 0.33734 0.21722 0.0
Co5 Co 0.16 0.35457 0.2743 0.0
O6 O 0.18442 0.33714 0.25165 0.0
C7 C 0.14028 0.39895 0.24746 0.0
C8 C 0.08891 0.35785 0.20788 0.0
C9 C 0.18062 0.33288 0.22816 0.0
O10 O 0.13351 0.38447 0.22925 0.0
O11 O 0.14873 0.39055 0.2686 0.0
O12 O 0.11676 0.3121 0.23348 0.0
O13 O 0.12992 0.33882 0.26209 0.0
Co14 Co 0.1153 0.65173 0.72069 0.0
O15 O 0.08082 0.6509 0.71087 0.0
O16 O 0.09501 0.64446 0.75 0.0
C17 C 0.12653 0.68749 0.70128 0.0
O18 O 0.14917 0.65203 0.73803 0.0
Co19 Co 0.15663 0.64507 0.67988 0.0
O20 O 0.17948 0.6529 0.7083 0.0
C21 C 0.12877 0.60077 0.69599 0.0
C22 C 0.07617 0.6457 0.73452 0.0
C23 C 0.17223 0.65376 0.73135 0.0
O24 O 0.11851 0.61454 0.71328 0.0
O25 O 0.14361 0.60959 0.67922 0.0
O26 O 0.11447 0.6883 0.72272 0.0
O27 O 0.12779 0.66549 0.6904 0.0
Co28 Co 0.86612 0.63135 0.24587 0.0
O29 O 0.89984 0.62364 0.25559 0.0
O30 O 0.88603 0.62503 0.21593 0.0
C31 C 0.86067 0.66528 0.27078 0.0
O32 O 0.83316 0.64013 0.22862 0.0
Co33 Co 0.82309 0.62797 0.28552 0.0
O34 O 0.80226 0.64216 0.25777 0.0
C35 C 0.8485 0.58187 0.26743 0.0
C36 C 0.90465 0.62186 0.23148 0.0
C37 C 0.81039 0.64477 0.23519 0.0
O38 O 0.85773 0.59442 0.24878 0.0
O39 O 0.83637 0.59232 0.28566 0.0
O40 O 0.87229 0.66739 0.24922 0.0
O41 O 0.85525 0.64252 0.27768 0.0
Co42 Co 0.87436 0.34269 0.72186 0.0
O43 O 0.9095 0.3423 0.71473 0.0
O44 O 0.89252 0.35154 0.7521 0.0
C45 C 0.86453 0.30597 0.70369 0.0
O46 O 0.83907 0.34377 0.73645 0.0
Co47 Co 0.83652 0.347 0.67762 0.0
O48 O 0.81209 0.33797 0.70442 0.0
C49 C 0.86275 0.39235 0.69358 0.0
C50 C 0.91255 0.34884 0.73826 0.0
C51 C 0.81695 0.33958 0.72803 0.0
O52 O 0.87226 0.37939 0.71192 0.0
O53 O 0.84881 0.38273 0.67657 0.0
O54 O 0.87446 0.30626 0.72615 0.0
O55 O 0.86436 0.32735 0.69156 0.0
Co56 Co 0.22509 0.13392 0.36094 0.0
O57 O 0.20962 0.13106 0.39354 0.0
O58 O 0.25051 0.13077 0.38701 0.0
C59 C 0.20129 0.16654 0.3474 0.0
O60 O 0.24745 0.13776 0.32966 0.0
Co61 Co 0.19351 0.12359 0.31277 0.0
O62 O 0.22279 0.13792 0.29513 0.0
C63 C 0.21054 0.08084 0.34442 0.0
C64 C 0.23193 0.13003 0.403 0.0
C65 C 0.24401 0.14068 0.30559 0.0
O66 O 0.22437 0.09603 0.357 0.0
O67 O 0.1953 0.08837 0.3272 0.0
O68 O 0.22041 0.1705 0.36188 0.0
O69 O 0.19578 0.1431 0.34372 0.0
Co70 Co 0.35399 0.74421 0.85715 0.0
O71 O 0.38645 0.75448 0.86799 0.0
O72 O 0.37511 0.71466 0.8622 0.0
C73 C 0.35031 0.77214 0.82536 0.0
O74 O 0.32263 0.72655 0.84499 0.0
Co75 Co 0.30853 0.78182 0.86013 0.0
O76 O 0.29001 0.75414 0.84395 0.0
C77 C 0.33208 0.7617 0.90641 0.0
C78 C 0.39247 0.73058 0.86804 0.0
C79 C 0.29966 0.73227 0.84017 0.0
O80 O 0.34261 0.74383 0.89352 0.0
O81 O 0.31998 0.78013 0.89618 0.0
O82 O 0.36288 0.75116 0.82199 0.0
O83 O 0.34242 0.77646 0.84811 0.0
Co84 Co 0.76536 0.8536 0.36647 0.0
O85 O 0.77842 0.85732 0.39989 0.0
O86 O 0.73814 0.85904 0.3903 0.0
C87 C 0.7885 0.81958 0.35591 0.0
O88 O 0.74542 0.84955 0.33381 0.0
Co89 Co 0.80127 0.86096 0.32059 0.0
O90 O 0.77263 0.84791 0.30114 0.0
C91 C 0.78341 0.90529 0.34914 0.0
C92 C 0.75549 0.86007 0.40752 0.0
C93 C 0.75057 0.84618 0.31011 0.0
O94 O 0.76803 0.89106 0.36104 0.0
O95 O 0.79976 0.89672 0.33346 0.0
O96 O 0.76827 0.81699 0.36925 0.0
O97 O 0.79542 0.84258 0.35184 0.0
Co98 Co 0.63531 0.24185 0.84858 0.0
O99 O 0.60272 0.23198 0.85928 0.0
O100 O 0.61441 0.27169 0.85376 0.0
C101 C 0.63873 0.21394 0.81677 0.0
O102 O 0.66736 0.25874 0.83671 0.0
Co103 Co 0.67933 0.20254 0.85247 0.0
O104 O 0.69819 0.22921 0.83471 0.0
C105 C 0.65837 0.22602 0.89848 0.0
C106 C 0.59686 0.25589 0.85959 0.0
C107 C 0.68994 0.25175 0.83131 0.0
O108 O 0.64652 0.24245 0.88489 0.0
O109 O 0.6704 0.20708 0.88911 0.0
O110 O 0.6266 0.23517 0.81338 0.0
O111 O 0.64614 0.20936 0.83962 0.0
Co112 Co 0.26426 0.87445 0.64144 0.0
O113 O 0.27495 0.90789 0.63309 0.0
O114 O 0.23545 0.89597 0.63529 0.0
C115 C 0.28941 0.86894 0.67502 0.0
O116 O 0.24624 0.84189 0.6502 0.0
Co117 Co 0.30159 0.82861 0.63932 0.0
O118 O 0.27451 0.81069 0.65736 0.0
C119 C 0.28083 0.8502 0.59203 0.0
C120 C 0.25141 0.91394 0.63153 0.0
C121 C 0.25213 0.81929 0.65748 0.0
O122 O 0.26581 0.86449 0.60481 0.0
O123 O 0.2978 0.8362 0.60221 0.0
O124 O 0.26849 0.88152 0.67741 0.0
O125 O 0.29544 0.86237 0.65221 0.0
Co126 Co 0.62312 0.76014 0.14568 0.0
O127 O 0.58831 0.76798 0.14161 0.0
O128 O 0.60507 0.72922 0.14099 0.0
C129 C 0.631 0.78494 0.17911 0.0
O130 O 0.65768 0.74469 0.1501 0.0
Co131 Co 0.66247 0.80151 0.13619 0.0
O132 O 0.68677 0.77493 0.14751 0.0
C133 C 0.63537 0.78081 0.09325 0.0
C134 C 0.58534 0.74374 0.13893 0.0
C135 C 0.68039 0.75208 0.1514 0.0
O136 O 0.62778 0.76308 0.10796 0.0
O137 O 0.64748 0.79986 0.10128 0.0
O138 O 0.62057 0.76309 0.18239 0.0
O139 O 0.63303 0.79239 0.15578 0.0
Co140 Co 0.7311 0.12072 0.63171 0.0
O141 O 0.72144 0.08745 0.62143 0.0
O142 O 0.76054 0.10007 0.62596 0.0
C143 C 0.70455 0.12407 0.6646 0.0
O144 O 0.74831 0.15295 0.64268 0.0
Co145 Co 0.69355 0.16636 0.63095 0.0
O146 O 0.71957 0.18333 0.65116 0.0
C147 C 0.71576 0.14724 0.58312 0.0
C148 C 0.74516 0.08194 0.62096 0.0
C149 C 0.74199 0.17491 0.65133 0.0
O150 O 0.7307 0.13248 0.59549 0.0
O151 O 0.69847 0.16058 0.59367 0.0
O152 O 0.72558 0.11175 0.66711 0.0
O153 O 0.69931 0.13181 0.64194 0.0
Co154 Co 0.37869 0.22691 0.14665 0.0
O155 O 0.414 0.22091 0.14408 0.0
O156 O 0.39539 0.25868 0.14151 0.0
C157 C 0.37074 0.20258 0.1807 0.0
O158 O 0.34307 0.24049 0.14926 0.0
Co159 Co 0.34209 0.18295 0.13753 0.0
O160 O 0.31673 0.20773 0.15016 0.0
C161 C 0.36741 0.2056 0.09393 0.0
C162 C 0.41589 0.24518 0.14059 0.0
C163 C 0.32111 0.23131 0.15211 0.0
O164 O 0.37577 0.22273 0.10881 0.0
O165 O 0.35486 0.18671 0.10185 0.0
O166 O 0.37982 0.22509 0.18356 0.0
O167 O 0.37017 0.1944 0.15756 0.0
Co168 Co 0.84437 0.61011 0.7633 0.0
O169 O 0.85053 0.57484 0.76969 0.0
O170 O 0.84981 0.59268 0.73153 0.0
C171 C 0.81106 0.61538 0.78874 0.0
O172 O 0.83786 0.64549 0.74954 0.0
Co173 Co 0.85127 0.6485 0.80718 0.0
O174 O 0.83999 0.67375 0.78146 0.0
C175 C 0.89543 0.62681 0.78231 0.0
C176 C 0.85268 0.57235 0.74527 0.0
C177 C 0.83628 0.66818 0.75825 0.0
O178 O 0.88108 0.61692 0.76569 0.0
O179 O 0.88726 0.63816 0.80217 0.0
O180 O 0.80863 0.60556 0.76632 0.0
O181 O 0.83382 0.61844 0.79628 0.0
Co182 Co 0.87824 0.34275 0.24706 0.0
O183 O 0.91309 0.34816 0.25191 0.0
O184 O 0.89348 0.35173 0.21496 0.0
C185 C 0.87502 0.3064 0.26894 0.0
O186 O 0.84247 0.33775 0.23515 0.0
Co187 Co 0.84291 0.34381 0.29421 0.0
O188 O 0.81789 0.33208 0.26944 0.0
C189 C 0.86152 0.39157 0.27348 0.0
C190 C 0.91411 0.35328 0.22783 0.0
C191 C 0.82129 0.33257 0.24548 0.0
O192 O 0.8712 0.37956 0.25457 0.0
O193 O 0.85112 0.38056 0.2923 0.0
O194 O 0.88346 0.30612 0.24578 0.0
O195 O 0.87243 0.32859 0.27896 0.0
Co196 Co 0.14064 0.38289 0.76791 0.0
O197 O 0.13636 0.41844 0.77412 0.0
O198 O 0.13344 0.40017 0.73638 0.0
C199 C 0.17562 0.37669 0.79044 0.0
O200 O 0.1449 0.34713 0.75418 0.0
Co201 Co 0.13631 0.34462 0.81231 0.0
O202 O 0.15003 0.32028 0.78701 0.0
C203 C 0.0906 0.36727 0.79101 0.0
C204 C 0.13253 0.42076 0.74989 0.0
C205 C 0.15013 0.32503 0.76327 0.0
O206 O 0.10401 0.37778 0.77383 0.0
O207 O 0.09993 0.35433 0.80934 0.0
O208 O 0.17662 0.38611 0.76768 0.0
O209 O 0.15344 0.37445 0.8 0.0
Co210 Co 0.13743 0.62863 0.20942 0.0
O211 O 0.13512 0.59557 0.19454 0.0
O212 O 0.13462 0.60372 0.23589 0.0
C213 C 0.16953 0.64265 0.18652 0.0
O214 O 0.14066 0.65981 0.23175 0.0
Co215 Co 0.12547 0.6765 0.17738 0.0
O216 O 0.13585 0.69514 0.20814 0.0
C217 C 0.0849 0.64341 0.1926 0.0
C218 C 0.13393 0.58716 0.2177 0.0
C219 C 0.1407 0.68405 0.22908 0.0
O220 O 0.10013 0.63227 0.2079 0.0
O221 O 0.09167 0.6605 0.17689 0.0
O222 O 0.17335 0.62767 0.20573 0.0
O223 O 0.14644 0.64607 0.17979 0.0
Co224 Co 0.75559 0.8448 0.63544 0.0
O225 O 0.7691 0.85146 0.60252 0.0
O226 O 0.72861 0.8485 0.61128 0.0
C227 C 0.78122 0.81269 0.64651 0.0
O228 O 0.73534 0.8374 0.66731 0.0
Co229 Co 0.78922 0.85518 0.68216 0.0
O230 O 0.76095 0.84006 0.70105 0.0
C231 C 0.77104 0.8971 0.65097 0.0
C232 C 0.74615 0.85266 0.59471 0.0
C233 C 0.73985 0.83498 0.69121 0.0
O234 O 0.75447 0.88226 0.64206 0.0
O235 O 0.78885 0.88938 0.6653 0.0
O236 O 0.76223 0.80861 0.63184 0.0
O237 O 0.78587 0.83623 0.65088 0.0
Co238 Co 0.6241 0.25292 0.13632 0.0
O239 O 0.59066 0.24876 0.12498 0.0
O240 O 0.60895 0.28594 0.12962 0.0
C241 C 0.62168 0.22617 0.16934 0.0
O242 O 0.65847 0.26391 0.14833 0.0
Co243 Co 0.66043 0.20592 0.1361 0.0
O244 O 0.68281 0.22915 0.15416 0.0
C245 C 0.64826 0.23245 0.08826 0.0
C246 C 0.5892 0.27322 0.12358 0.0
C247 C 0.679 0.253 0.15549 0.0
O248 O 0.63628 0.24998 0.10032 0.0
O249 O 0.65758 0.21265 0.09888 0.0
O250 O 0.61364 0.24939 0.17163 0.0
O251 O 0.62843 0.21941 0.14682 0.0
Co252 Co 0.23352 0.15183 0.63425 0.0
O253 O 0.21672 0.14745 0.60257 0.0
O254 O 0.2579 0.14826 0.60721 0.0
C255 C 0.21031 0.18425 0.64912 0.0
O256 O 0.25712 0.15689 0.66409 0.0
Co257 Co 0.20449 0.14085 0.68411 0.0
O258 O 0.23534 0.15292 0.70058 0.0
C259 C 0.21891 0.09897 0.65078 0.0
C260 C 0.23875 0.14564 0.59234 0.0
C261 C 0.25537 0.15771 0.68848 0.0
O262 O 0.23357 0.11406 0.63903 0.0
O263 O 0.20376 0.10639 0.66816 0.0
O264 O 0.22821 0.18833 0.63296 0.0
O265 O 0.20509 0.16074 0.65304 0.0
Co266 Co 0.37705 0.74648 0.1428 0.0
O267 O 0.41169 0.74896 0.135 0.0
O268 O 0.39018 0.71325 0.13389 0.0
C269 C 0.3775 0.76947 0.17849 0.0
O270 O 0.3411 0.73707 0.15017 0.0
Co271 Co 0.34382 0.79572 0.14364 0.0
O272 O 0.31705 0.77237 0.15394 0.0
C273 C 0.35789 0.77223 0.09485 0.0
C274 C 0.41127 0.72478 0.13084 0.0
C275 C 0.32 0.74838 0.15428 0.0
O276 O 0.36845 0.75352 0.10642 0.0
O277 O 0.34863 0.79165 0.10619 0.0
O278 O 0.38413 0.7457 0.17902 0.0
O279 O 0.37368 0.77902 0.15625 0.0
Co280 Co 0.73208 0.13049 0.34345 0.0
O281 O 0.72126 0.0974 0.3532 0.0
O282 O 0.76071 0.10838 0.34741 0.0
C283 C 0.70413 0.13639 0.31236 0.0
O284 O 0.75059 0.16193 0.33242 0.0
Co285 Co 0.69738 0.17816 0.34736 0.0
O286 O 0.72422 0.19517 0.32821 0.0
C287 C 0.72086 0.15651 0.39343 0.0
C288 C 0.74476 0.09088 0.3529 0.0
C289 C 0.74582 0.18498 0.32591 0.0
O290 O 0.73378 0.14077 0.38002 0.0
O291 O 0.70436 0.17169 0.38416 0.0
O292 O 0.7245 0.12332 0.30812 0.0
O293 O 0.70045 0.14357 0.33547 0.0
Co294 Co 0.36263 0.26523 0.86916 0.0
O295 O 0.36578 0.2752 0.90398 0.0
O296 O 0.36874 0.23567 0.8901 0.0
C297 C 0.32833 0.28852 0.86047 0.0
O298 O 0.35891 0.24761 0.83499 0.0
Co299 Co 0.36865 0.30453 0.82601 0.0
O300 O 0.35734 0.27676 0.80376 0.0
C301 C 0.41289 0.28701 0.85394 0.0
C302 C 0.36907 0.25133 0.90913 0.0
C303 C 0.35567 0.25401 0.81161 0.0
O304 O 0.3996 0.26975 0.86433 0.0
O305 O 0.40373 0.30415 0.83933 0.0
O306 O 0.32649 0.26673 0.87178 0.0
O307 O 0.3508 0.29664 0.8572 0.0
Co308 Co 0.25372 0.8532 0.35264 0.0
O309 O 0.26567 0.88624 0.36102 0.0
O310 O 0.22588 0.87669 0.35561 0.0
C311 C 0.28173 0.84542 0.32185 0.0
O312 O 0.23438 0.82185 0.34253 0.0
Co313 Co 0.28737 0.80492 0.35901 0.0
O314 O 0.25951 0.7872 0.34263 0.0
C315 C 0.26552 0.83023 0.40388 0.0
C316 C 0.24249 0.89377 0.36028 0.0
C317 C 0.23853 0.7981 0.33852 0.0
O318 O 0.25171 0.84449 0.38971 0.0
O319 O 0.28213 0.81482 0.39523 0.0
O320 O 0.26174 0.85887 0.31706 0.0
O321 O 0.28503 0.83892 0.34523 0.0
Co322 Co 0.62755 0.72768 0.87046 0.0
O323 O 0.6217 0.72061 0.90563 0.0
O324 O 0.62193 0.7591 0.8885 0.0
C325 C 0.66125 0.70237 0.86555 0.0
O326 O 0.63384 0.74214 0.83526 0.0
Co327 Co 0.62221 0.68502 0.83066 0.0
O328 O 0.63726 0.71017 0.80727 0.0
C329 C 0.57757 0.70624 0.85549 0.0
C330 C 0.61952 0.74494 0.90856 0.0
C331 C 0.63892 0.73355 0.81295 0.0
O332 O 0.59082 0.72454 0.86375 0.0
O333 O 0.58694 0.68703 0.8439 0.0
O334 O 0.66342 0.72481 0.87527 0.0
O335 O 0.63862 0.69498 0.86182 0.0
H336 H 0.11573 0.55057 0.18705 0.0
H337 H 0.14941 0.56249 0.26029 0.0
H338 H 0.11522 0.50516 0.19502 0.0
H339 H 0.15056 0.517 0.26775 0.0
H340 H 0.13235 0.43532 0.2833 0.0
H341 H 0.12829 0.48085 0.27674 0.0
H342 H 0.14159 0.47017 0.19636 0.0
H343 H 0.14396 0.42465 0.20289 0.0
C344 C 0.12317 0.54337 0.20481 0.0
C345 C 0.13266 0.5599 0.22304 0.0
C346 C 0.1231 0.51733 0.20933 0.0
C347 C 0.13311 0.50723 0.23194 0.0
C348 C 0.14231 0.52399 0.2503 0.0
C349 C 0.14182 0.55008 0.246 0.0
C350 C 0.13435 0.44281 0.26426 0.0
C351 C 0.13846 0.42653 0.2436 0.0
C352 C 0.13216 0.46892 0.26047 0.0
C353 C 0.13462 0.47936 0.23599 0.0
C354 C 0.13898 0.46292 0.2154 0.0
C355 C 0.14058 0.43679 0.21913 0.0
H356 H 0.91695 0.6289 0.73597 0.0
H357 H 0.93459 0.62601 0.81582 0.0
H358 H 0.96073 0.63243 0.72569 0.0
H359 H 0.9791 0.62759 0.80557 0.0
H360 H 0.05439 0.65917 0.77939 0.0
H361 H 0.01098 0.65318 0.79201 0.0
H362 H -0.00179 0.61225 0.7222 0.0
H363 H 0.04084 0.62034 0.70899 0.0
C364 C 0.93036 0.62841 0.75134 0.0
C365 C 0.92241 0.62709 0.77669 0.0
C366 C 0.95562 0.63023 0.74545 0.0
C367 C 0.97378 0.63004 0.76472 0.0
C368 C 0.96577 0.62822 0.79017 0.0
C369 C 0.94029 0.6271 0.7961 0.0
C370 C 0.04212 0.64896 0.76686 0.0
C371 C 0.05063 0.64058 0.74309 0.0
C372 C 0.01729 0.64528 0.77413 0.0
C373 C 0.00074 0.63248 0.75803 0.0
C374 C 0.00994 0.623 0.73478 0.0
C375 C 0.03445 0.62743 0.72721 0.0
H376 H 0.89065 0.42283 0.24476 0.0
H377 H 0.83147 0.42344 0.30076 0.0
H378 H 0.88915 0.46905 0.24344 0.0
H379 H 0.82925 0.46925 0.29867 0.0
H380 H 0.84589 0.55117 0.30875 0.0
H381 H 0.85121 0.50551 0.31045 0.0
H382 H 0.8637 0.50388 0.22933 0.0
H383 H 0.85946 0.54996 0.22786 0.0
C384 C 0.87728 0.43283 0.25671 0.0
C385 C 0.86127 0.41951 0.27297 0.0
C386 C 0.87631 0.45928 0.25583 0.0
C387 C 0.85913 0.47289 0.271 0.0
C388 C 0.8431 0.45946 0.28715 0.0
C389 C 0.8443 0.43313 0.28827 0.0
C390 C 0.84977 0.54109 0.29125 0.0
C391 C 0.85203 0.55412 0.26812 0.0
C392 C 0.85273 0.51487 0.29221 0.0
C393 C 0.8576 0.50095 0.26999 0.0
C394 C 0.86023 0.51403 0.24686 0.0
C395 C 0.85763 0.5404 0.24597 0.0
H396 H 0.06414 0.3975 0.75843 0.0
H397 H 0.05475 0.34035 0.81648 0.0
H398 H 0.01999 0.39537 0.74832 0.0
H399 H 0.01032 0.33825 0.8061 0.0
H400 H 0.92634 0.35569 0.78788 0.0
H401 H 0.96857 0.36314 0.80399 0.0
H402 H -0.00262 0.35984 0.72741 0.0
H403 H 0.95562 0.35244 0.71141 0.0
C404 C 0.05264 0.38467 0.76927 0.0
C405 C 0.06312 0.36874 0.78797 0.0
C406 C 0.02733 0.38346 0.76341 0.0
C407 C 0.01187 0.36634 0.77613 0.0
C408 C 0.02186 0.35163 0.79602 0.0
C409 C 0.0473 0.3528 0.8019 0.0
C410 C 0.94174 0.35664 0.77455 0.0
C411 C 0.93772 0.35347 0.7484 0.0
C412 C 0.96584 0.36081 0.78377 0.0
C413 C 0.98615 0.36227 0.76691 0.0
C414 C 0.98201 0.35921 0.7408 0.0
C415 C 0.9581 0.35478 0.73166 0.0
H416 H 0.12079 0.46429 0.77458 0.0
H417 H 0.13401 0.43397 0.69954 0.0
H418 H 0.11598 0.5065 0.75678 0.0
H419 H 0.1291 0.47668 0.68155 0.0
H420 H 0.09081 0.57681 0.72006 0.0
H421 H 0.08777 0.53177 0.72906 0.0
H422 H 0.15405 0.51715 0.68419 0.0
H423 H 0.157 0.56238 0.67482 0.0
C424 C 0.12243 0.46663 0.75421 0.0
C425 C 0.12788 0.44588 0.73845 0.0
C426 C 0.11946 0.4908 0.74398 0.0
C427 C 0.12202 0.49485 0.71775 0.0
C428 C 0.12708 0.47405 0.70184 0.0
C429 C 0.12979 0.44968 0.71211 0.0
C430 C 0.10453 0.56398 0.71173 0.0
C431 C 0.12448 0.57321 0.69718 0.0
C432 C 0.10277 0.53819 0.71691 0.0
C433 C 0.12094 0.52106 0.70773 0.0
C434 C 0.13975 0.52995 0.69148 0.0
C435 C 0.14149 0.55585 0.68619 0.0
H436 H 0.94548 0.60977 0.25963 0.0
H437 H 0.92238 0.62774 0.18308 0.0
H438 H 0.98893 0.61149 0.24664 0.0
H439 H 0.96621 0.62909 0.16988 0.0
H440 H 0.06532 0.60189 0.21553 0.0
H441 H 0.02151 0.59179 0.22105 0.0
H442 H 0.00037 0.65878 0.17853 0.0
H443 H 0.04436 0.6687 0.17248 0.0
C444 C 0.94971 0.6136 0.23989 0.0
C445 C 0.93057 0.61884 0.22242 0.0
C446 C 0.97463 0.61443 0.23239 0.0
C447 C 0.981 0.62056 0.20725 0.0
C448 C 0.96183 0.62461 0.18945 0.0
C449 C 0.93679 0.62365 0.19696 0.0
C450 C 0.05137 0.61442 0.20718 0.0
C451 C 0.05831 0.63637 0.19395 0.0
C452 C 0.02626 0.60858 0.21034 0.0
C453 C 0.00751 0.62462 0.20047 0.0
C454 C 0.01442 0.64593 0.18617 0.0
C455 C 0.03961 0.65172 0.18288 0.0
H456 H 0.85089 0.55878 0.69504 0.0
H457 H 0.86633 0.52936 0.77007 0.0
H458 H 0.85765 0.51629 0.67728 0.0
H459 H 0.87284 0.48736 0.75254 0.0
H460 H 0.83387 0.42946 0.67125 0.0
H461 H 0.8352 0.47486 0.67994 0.0
H462 H 0.90153 0.46301 0.72517 0.0
H463 H 0.89997 0.41775 0.71697 0.0
C464 C 0.85592 0.54332 0.70767 0.0
C465 C 0.85799 0.54732 0.73394 0.0
C466 C 0.85972 0.51906 0.69752 0.0
C467 C 0.86595 0.49857 0.71349 0.0
C468 C 0.86852 0.50283 0.73966 0.0
C469 C 0.86455 0.52688 0.74975 0.0
C470 C 0.84909 0.43665 0.68251 0.0
C471 C 0.86649 0.42 0.6939 0.0
C472 C 0.84989 0.46266 0.68742 0.0
C473 C 0.86818 0.47236 0.70366 0.0
C474 C 0.88688 0.45596 0.71307 0.0
C475 C 0.886 0.43005 0.70833 0.0
H476 H 0.95089 0.37851 0.25073 0.0
H477 H 0.9309 0.34484 0.17919 0.0
H478 H 0.99263 0.38597 0.23501 0.0
H479 H 0.97342 0.3522 0.16314 0.0
H480 H 0.05963 0.32643 0.18088 0.0
H481 H 0.01436 0.33155 0.17666 0.0
H482 H 0.01917 0.40821 0.20449 0.0
H483 H 0.06421 0.40255 0.20962 0.0
C484 C 0.95539 0.37312 0.23139 0.0
C485 C 0.93787 0.36084 0.21626 0.0
C486 C 0.97925 0.37768 0.22222 0.0
C487 C 0.98633 0.36979 0.19774 0.0
C488 C 0.96843 0.35852 0.18206 0.0
C489 C 0.94419 0.35434 0.19118 0.0
C490 C 0.05106 0.34473 0.18484 0.0
C491 C 0.06509 0.36407 0.1957 0.0
C492 C 0.02516 0.34771 0.18242 0.0
C493 C 0.01319 0.3701 0.19083 0.0
C494 C 0.02787 0.3906 0.19832 0.0
C495 C 0.05362 0.38746 0.20111 0.0
H496 H 0.27528 0.16064 0.55916 0.0
H497 H 0.20827 0.11663 0.56463 0.0
H498 H 0.27595 0.15422 0.51304 0.0
H499 H 0.20961 0.10893 0.51924 0.0
H500 H 0.19569 0.13309 0.4387 0.0
H501 H 0.20008 0.13453 0.48418 0.0
H502 H 0.28024 0.12638 0.47657 0.0
H503 H 0.27578 0.12592 0.4302 0.0
C504 C 0.26101 0.14921 0.55051 0.0
C505 C 0.24139 0.13962 0.5652 0.0
C506 C 0.26146 0.14538 0.52417 0.0
C507 C 0.24251 0.1315 0.51232 0.0
C508 C 0.224 0.12044 0.52754 0.0
C509 C 0.22326 0.12475 0.55358 0.0
C510 C 0.21431 0.13142 0.44659 0.0
C511 C 0.23539 0.12932 0.43081 0.0
C512 C 0.21683 0.13204 0.47282 0.0
C513 C 0.24051 0.13023 0.48418 0.0
C514 C 0.26173 0.12795 0.46844 0.0
C515 C 0.25919 0.12753 0.44193 0.0
H516 H 0.34631 0.72252 0.93777 0.0
H517 H 0.32519 0.80191 0.93768 0.0
H518 H 0.35227 0.72423 0.98371 0.0
H519 H 0.3322 0.8039 0.98289 0.0
H520 H 0.32194 0.79529 0.06654 0.0
H521 H 0.31467 0.79085 0.0214 0.0
H522 H 0.37934 0.74102 0.01539 0.0
H523 H 0.38587 0.74455 0.06109 0.0
C524 C 0.34299 0.74029 0.94754 0.0
C525 C 0.33507 0.762 0.93418 0.0
C526 C 0.34658 0.74133 0.97378 0.0
C527 C 0.34261 0.76418 0.98698 0.0
C528 C 0.33486 0.78585 0.97347 0.0
C529 C 0.33093 0.78472 0.94745 0.0
C530 C 0.33472 0.78353 0.05556 0.0
C531 C 0.35463 0.77047 0.06723 0.0
C532 C 0.33058 0.78099 0.02966 0.0
C533 C 0.34655 0.76574 0.01473 0.0
C534 C 0.3665 0.75266 0.02642 0.0
C535 C 0.3704 0.75486 0.0525 0.0
H536 H 0.70989 0.8598 0.43198 0.0
H537 H 0.78904 0.86815 0.44462 0.0
H538 H 0.70252 0.8629 0.47796 0.0
H539 H 0.78192 0.87056 0.48973 0.0
H540 H 0.76775 0.88953 0.56769 0.0
H541 H 0.76494 0.89681 0.52217 0.0
H542 H 0.71094 0.8371 0.51626 0.0
H543 H 0.71281 0.83094 0.56242 0.0
C544 C 0.72562 0.86251 0.44451 0.0
C545 C 0.75003 0.86365 0.43474 0.0
C546 C 0.72143 0.86417 0.47077 0.0
C547 C 0.7416 0.86719 0.48751 0.0
C548 C 0.76585 0.86884 0.47746 0.0
C549 C 0.76999 0.86717 0.45149 0.0
C550 C 0.75487 0.87838 0.55668 0.0
C551 C 0.74081 0.85941 0.56825 0.0
C552 C 0.75331 0.88245 0.53064 0.0
C553 C 0.73825 0.86704 0.51549 0.0
C554 C 0.7227 0.8493 0.5274 0.0
C555 C 0.72384 0.84565 0.55373 0.0
H556 H 0.61815 0.25816 0.05491 0.0
H557 H 0.68564 0.21241 0.0595 0.0
H558 H 0.62152 0.25839 0.00867 0.0
H559 H 0.68963 0.21351 0.0136 0.0
H560 H 0.67014 0.19018 0.93378 0.0
H561 H 0.66849 0.1941 0.97954 0.0
H562 H 0.64464 0.27239 0.97212 0.0
H563 H 0.64539 0.26817 0.926 0.0
C564 C 0.63392 0.24856 0.04603 0.0
C565 C 0.65142 0.23494 0.06067 0.0
C566 C 0.63593 0.24877 0.01959 0.0
C567 C 0.65566 0.23565 0.00747 0.0
C568 C 0.67383 0.2232 0.02232 0.0
C569 C 0.67162 0.22266 0.04861 0.0
C570 C 0.66466 0.20829 0.94186 0.0
C571 C 0.65795 0.22888 0.92629 0.0
C572 C 0.66386 0.2106 0.96813 0.0
C573 C 0.65666 0.23365 0.97948 0.0
C574 C 0.65004 0.25432 0.96393 0.0
C575 C 0.65057 0.25193 0.93755 0.0
H576 H 0.24791 0.8707 0.4312 0.0
H577 H 0.27828 0.79475 0.43905 0.0
H578 H 0.25036 0.87629 0.47714 0.0
H579 H 0.28003 0.80004 0.48479 0.0
H580 H 0.31286 0.82914 0.55746 0.0
H581 H 0.30647 0.82442 0.51215 0.0
H582 H 0.23473 0.86262 0.51848 0.0
H583 H 0.24138 0.86801 0.5639 0.0
C584 C 0.25458 0.85504 0.44279 0.0
C585 C 0.26325 0.83244 0.4316 0.0
C586 C 0.25597 0.85823 0.46906 0.0
C587 C 0.26584 0.83877 0.48446 0.0
C588 C 0.27301 0.81563 0.47332 0.0
C589 C 0.27187 0.81255 0.44715 0.0
C590 C 0.29575 0.83663 0.54923 0.0
C591 C 0.27758 0.84882 0.5643 0.0
C592 C 0.29201 0.83376 0.52328 0.0
C593 C 0.26992 0.8428 0.51186 0.0
C594 C 0.25197 0.85555 0.52678 0.0
C595 C 0.25579 0.85858 0.55277 0.0
H596 H 0.62447 0.73786 0.06766 0.0
H597 H 0.63488 0.81814 0.05684 0.0
H598 H 0.61709 0.73287 0.02278 0.0
H599 H 0.62613 0.81341 0.01159 0.0
H600 H 0.64218 0.78599 0.92876 0.0
H601 H 0.64342 0.79742 0.97364 0.0
H602 H 0.58914 0.73973 0.99008 0.0
H603 H 0.58953 0.72731 0.94563 0.0
C604 C 0.62481 0.75457 0.05569 0.0
C605 C 0.63034 0.77838 0.06581 0.0
C606 C 0.62028 0.75176 0.02987 0.0
C607 C 0.62065 0.77279 0.01342 0.0
C608 C 0.62591 0.79675 0.0236 0.0
C609 C 0.63088 0.79949 0.04952 0.0
C610 C 0.63022 0.77618 0.94203 0.0
C611 C 0.61604 0.75559 0.93403 0.0
C612 C 0.63084 0.78273 0.96774 0.0
C613 C 0.61685 0.76908 0.9857 0.0
C614 C 0.6009 0.75003 0.97702 0.0
C615 C 0.60086 0.74306 0.95154 0.0
H616 H 0.75444 0.12914 0.5538 0.0
H617 H 0.68385 0.16994 0.54961 0.0
H618 H 0.75924 0.13311 0.50791 0.0
H619 H 0.6883 0.17318 0.50398 0.0
H620 H 0.71032 0.19504 0.42609 0.0
H621 H 0.71237 0.19405 0.47218 0.0
H622 H 0.74089 0.11703 0.46938 0.0
H623 H 0.73971 0.11838 0.42314 0.0
C624 C 0.73991 0.13884 0.54311 0.0
C625 C 0.71877 0.14924 0.55536 0.0
C626 C 0.74265 0.14106 0.51684 0.0
C627 C 0.72424 0.1536 0.50236 0.0
C628 C 0.70311 0.1639 0.51465 0.0
C629 C 0.70045 0.16185 0.54083 0.0
C630 C 0.71725 0.17798 0.43532 0.0
C631 C 0.72451 0.15666 0.4211 0.0
C632 C 0.71834 0.17738 0.46171 0.0
C633 C 0.72636 0.15531 0.47441 0.0
C634 C 0.73476 0.13437 0.46014 0.0
C635 C 0.73397 0.13509 0.43367 0.0
H636 H 0.34485 0.18057 0.05478 0.0
H637 H 0.39943 0.23791 0.07047 0.0
H638 H 0.34834 0.18966 0.00948 0.0
H639 H 0.40324 0.24653 0.0253 0.0
H640 H 0.37209 0.20251 0.927 0.0
H641 H 0.37509 0.18883 0.97136 0.0
H642 H 0.37567 0.2671 -0.00492 0.0
H643 H 0.37313 0.28064 0.95113 0.0
C644 C 0.35789 0.1948 0.04857 0.0
C645 C 0.37154 0.2088 0.0663 0.0
C646 C 0.35998 0.19991 0.02259 0.0
C647 C 0.37583 0.21904 0.01383 0.0
C648 C 0.39046 0.23205 0.03148 0.0
C649 C 0.3883 0.22705 0.05739 0.0
C650 C 0.37311 0.21673 0.94173 0.0
C651 C 0.37231 0.24264 0.9356 0.0
C652 C 0.3747 0.2089 0.96711 0.0
C653 C 0.37567 0.22687 0.98674 0.0
C654 C 0.37537 0.25275 0.98044 0.0
C655 C 0.37372 0.26053 0.95521 0.0
H656 H 0.56215 0.26708 0.08121 0.0
H657 H 0.56124 0.30349 0.15435 0.0
H658 H 0.51662 0.2684 0.08033 0.0
H659 H 0.51552 0.30422 0.15389 0.0
H660 H 0.4567 0.22051 0.12249 0.0
H661 H 0.49709 0.23781 0.11202 0.0
H662 H 0.47089 0.31252 0.13356 0.0
H663 H 0.42969 0.29502 0.14384 0.0
C664 C 0.55216 0.27666 0.09642 0.0
C665 C 0.56497 0.28506 0.11789 0.0
C666 C 0.52614 0.27723 0.09604 0.0
C667 C 0.51265 0.28574 0.11736 0.0
C668 C 0.52549 0.29754 0.13722 0.0
C669 C 0.55165 0.29723 0.13745 0.0
C670 C 0.4594 0.24065 0.12489 0.0
C671 C 0.44014 0.25638 0.13416 0.0
C672 C 0.48246 0.25065 0.11854 0.0
C673 C 0.48698 0.2766 0.12157 0.0
C674 C 0.46775 0.2925 0.13082 0.0
C675 C 0.44432 0.28249 0.13676 0.0
H676 H 0.54443 0.6673 0.85703 0.0
H677 H 0.5491 0.74863 0.86318 0.0
H678 H 0.49952 0.67008 0.86478 0.0
H679 H 0.50433 0.75165 0.86951 0.0
H680 H 0.42708 0.75339 0.8972 0.0
H681 H 0.47187 0.74481 0.89773 0.0
H682 H 0.46168 0.68235 0.84593 0.0
H683 H 0.41669 0.6901 0.84689 0.0
C684 C 0.5358 0.68578 0.8598 0.0
C685 C 0.55027 0.70774 0.8595 0.0
C686 C 0.51005 0.6874 0.86419 0.0
C687 C 0.49817 0.71108 0.86797 0.0
C688 C 0.51278 0.73301 0.86743 0.0
C689 C 0.5385 0.73133 0.86352 0.0
C690 C 0.43446 0.73747 0.88643 0.0
C691 C 0.41858 0.7225 0.87187 0.0
C692 C 0.46014 0.7327 0.88646 0.0
C693 C 0.47059 0.7133 0.87132 0.0
C694 C 0.45441 0.69737 0.85793 0.0
C695 C 0.4286 0.70181 0.85841 0.0
H696 H 0.80454 0.94316 0.32112 0.0
H697 H 0.75746 0.92992 0.38652 0.0
H698 H 0.79742 0.98863 0.32565 0.0
H699 H 0.75086 0.97532 0.3913 0.0
H700 H 0.79199 0.07073 0.34956 0.0
H701 H 0.80419 0.02601 0.35212 0.0
H702 H 0.72742 0.00663 0.36709 0.0
H703 H 0.71537 0.05112 0.36506 0.0
C704 C 0.79301 0.94995 0.33669 0.0
C705 C 0.78127 0.93291 0.35322 0.0
C706 C 0.78906 0.97601 0.33937 0.0
C707 C 0.77341 0.98551 0.35871 0.0
C708 C 0.76264 0.96852 0.37594 0.0
C709 C 0.76648 0.94251 0.37319 0.0
C710 C 0.77782 0.05691 0.35376 0.0
C711 C 0.75271 0.06436 0.35697 0.0
C712 C 0.78478 0.03133 0.35507 0.0
C713 C 0.76676 0.01282 0.3597 0.0
C714 C 0.74181 0.02045 0.36381 0.0
C715 C 0.73487 0.04595 0.36249 0.0
H716 H 0.44958 0.30977 0.82616 0.0
H717 H 0.4377 0.26348 0.89272 0.0
H718 H 0.49459 0.30565 0.83197 0.0
H719 H 0.48262 0.26014 0.89908 0.0
H720 H 0.55896 0.22657 0.87583 0.0
H721 H 0.51497 0.23745 0.87786 0.0
H722 H 0.5313 0.31464 0.85679 0.0
H723 H 0.57578 0.30337 0.85399 0.0
C724 C 0.45657 0.29908 0.84228 0.0
C725 C 0.4401 0.28656 0.8587 0.0
C726 C 0.48239 0.2969 0.84575 0.0
C727 C 0.49225 0.28237 0.86586 0.0
C728 C 0.47568 0.27102 0.88306 0.0
C729 C 0.44992 0.27294 0.87943 0.0
C730 C 0.55328 0.24598 0.87193 0.0
C731 C 0.57081 0.26406 0.86448 0.0
C732 C 0.52798 0.25229 0.87332 0.0
C733 C 0.51952 0.27692 0.8674 0.0
C734 C 0.53719 0.2954 0.86113 0.0
C735 C 0.56266 0.28902 0.85971 0.0
H736 H 0.2736 0.93263 0.37053 0.0
H737 H 0.19636 0.91623 0.35492 0.0
H738 H 0.26395 0.97773 0.36924 0.0
H739 H 0.18653 0.96158 0.35418 0.0
H740 H 0.18948 0.04181 0.31832 0.0
H741 H 0.19537 -0.00341 0.32557 0.0
H742 H 0.24218 0.01225 0.39013 0.0
H743 H 0.2368 0.0575 0.3826 0.0
C744 C 0.25445 0.93866 0.36724 0.0
C745 C 0.23577 0.92089 0.36264 0.0
C746 C 0.24888 0.96455 0.36665 0.0
C747 C 0.22449 0.97327 0.36148 0.0
C748 C 0.20558 0.95545 0.35785 0.0
C749 C 0.21116 0.92949 0.35846 0.0
C750 C 0.2009 0.03565 0.33418 0.0
C751 C 0.21286 0.05334 0.34971 0.0
C752 C 0.20412 0.00969 0.33844 0.0
C753 C 0.21929 0.00081 0.35839 0.0
C754 C 0.23066 0.01848 0.37437 0.0
C755 C 0.22752 0.04444 0.37007 0.0
H756 H 0.56925 0.69493 0.1443 0.0
H757 H 0.5461 0.76953 0.11898 0.0
H758 H 0.52716 0.67923 0.13549 0.0
H759 H 0.50472 0.75401 0.11003 0.0
H760 H 0.4358 0.72828 0.08647 0.0
H761 H 0.48107 0.724 0.08225 0.0
H762 H 0.48495 0.69064 0.15707 0.0
H763 H 0.43953 0.69435 0.16085 0.0
C764 C 0.55529 0.70783 0.13657 0.0
C765 C 0.56074 0.7335 0.1326 0.0
C766 C 0.53135 0.69884 0.13145 0.0
C767 C 0.51283 0.71529 0.12173 0.0
C768 C 0.51874 0.7407 0.11696 0.0
C769 C 0.54235 0.74972 0.12246 0.0
C770 C 0.44625 0.7186 0.10129 0.0
C771 C 0.43449 0.71167 0.12397 0.0
C772 C 0.47212 0.71632 0.09899 0.0
C773 C 0.48648 0.70764 0.11962 0.0
C774 C 0.47432 0.69738 0.14088 0.0
C775 C 0.44834 0.69944 0.14305 0.0
H776 H 0.72915 0.92427 0.63923 0.0
H777 H 0.80904 0.93076 0.64697 0.0
H778 H 0.72587 0.96871 0.62794 0.0
H779 H 0.80614 0.97507 0.63403 0.0
H780 H 0.78562 0.05992 0.64329 0.0
H781 H 0.79377 0.01476 0.64817 0.0
H782 H 0.73247 -0.00083 0.59743 0.0
H783 H 0.72336 0.04439 0.59424 0.0
C784 C 0.74607 0.93521 0.6382 0.0
C785 C 0.7693 0.92416 0.6442 0.0
C786 C 0.74428 0.96068 0.63138 0.0
C787 C 0.76578 0.97563 0.62978 0.0
C788 C 0.78912 0.96436 0.63541 0.0
C789 C 0.79082 0.93895 0.64281 0.0
C790 C 0.77428 0.04678 0.63278 0.0
C791 C 0.75371 0.05549 0.61864 0.0
C792 C 0.77895 0.02082 0.63551 0.0
C793 C 0.76344 0.00312 0.62366 0.0
C794 C 0.74426 0.01213 0.60761 0.0
C795 C 0.7392 0.03804 0.60547 0.0
H796 H 0.24188 0.07724 0.60977 0.0
H797 H 0.19826 0.05921 0.67643 0.0
H798 H 0.24608 0.03237 0.60001 0.0
H799 H 0.20297 0.01425 0.66689 0.0
H800 H 0.20448 0.9346 0.637 0.0
H801 H 0.19324 0.9797 0.63757 0.0
H802 H 0.26966 -0.00185 0.61967 0.0
H803 H 0.28068 0.95343 0.61865 0.0
C804 C 0.23317 0.06372 0.62235 0.0
C805 C 0.22009 0.07179 0.64414 0.0
C806 C 0.23556 0.03801 0.61672 0.0
C807 C 0.22503 0.01977 0.63278 0.0
C808 C 0.21107 0.02786 0.65398 0.0
C809 C 0.20857 0.05362 0.65958 0.0
C810 C 0.2187 0.94833 0.63267 0.0
C811 C 0.24349 0.94056 0.62802 0.0
C812 C 0.21231 0.97412 0.63317 0.0
C813 C 0.2306 0.99247 0.62888 0.0
C814 C 0.25506 0.98452 0.62282 0.0
C815 C 0.26143 0.95886 0.6224 0.0
H816 H 0.15966 0.31537 0.29425 0.0
H817 H 0.10837 0.26738 0.25452 0.0
H818 H 0.17619 0.279 0.31706 0.0
H819 H 0.12336 0.23099 0.27889 0.0
H820 H 0.17695 0.16702 0.30209 0.0
H821 H 0.15654 0.20312 0.28162 0.0
H822 H 0.1716 0.249 0.34772 0.0
H823 H 0.19377 0.21335 0.36695 0.0
C824 C 0.15153 0.29707 0.29083 0.0
C825 C 0.13296 0.29412 0.27243 0.0
C826 C 0.16085 0.27612 0.30412 0.0
C827 C 0.15127 0.2518 0.29986 0.0
C828 C 0.13174 0.24919 0.28226 0.0
C829 C 0.12292 0.27008 0.26846 0.0
C830 C 0.1758 0.18487 0.31213 0.0
C831 C 0.18713 0.18761 0.33587 0.0
C832 C 0.16389 0.20558 0.30055 0.0
C833 C 0.16245 0.22924 0.31285 0.0
C834 C 0.17291 0.23143 0.33723 0.0
C835 C 0.18546 0.21095 0.3484 0.0
H836 H 0.3073 0.70868 0.79526 0.0
H837 H 0.25591 0.71448 0.85812 0.0
H838 H 0.27678 0.68495 0.77127 0.0
H839 H 0.2259 0.68888 0.83527 0.0
H840 H 0.22096 0.63801 0.73222 0.0
H841 H 0.25309 0.65039 0.76222 0.0
H842 H 0.19801 0.69535 0.80319 0.0
H843 H 0.16592 0.6814 0.77428 0.0
C844 C 0.28975 0.70393 0.80423 0.0
C845 C 0.28375 0.71334 0.82834 0.0
C846 C 0.2722 0.69022 0.79058 0.0
C847 C 0.24851 0.68518 0.80107 0.0
C848 C 0.24352 0.69302 0.82615 0.0
C849 C 0.26078 0.70738 0.83944 0.0
C850 C 0.21578 0.65015 0.748 0.0
C851 C 0.19103 0.65881 0.75097 0.0
C852 C 0.23421 0.65745 0.7651 0.0
C853 C 0.22841 0.67419 0.78513 0.0
C854 C 0.20334 0.68208 0.78845 0.0
C855 C 0.18483 0.67422 0.77174 0.0
H856 H 0.82131 0.66873 0.30329 0.0
H857 H 0.8809 0.71208 0.27031 0.0
H858 H 0.80535 0.70635 0.32451 0.0
H859 H 0.86619 0.74957 0.29307 0.0
H860 H 0.81639 0.81768 0.31265 0.0
H861 H 0.83503 0.78023 0.293 0.0
H862 H 0.81064 0.73488 0.35673 0.0
H863 H 0.79039 0.77208 0.37513 0.0
C864 C 0.83126 0.68627 0.30101 0.0
C865 C 0.85221 0.68762 0.28511 0.0
C866 C 0.82226 0.70788 0.31336 0.0
C867 C 0.83446 0.73116 0.31063 0.0
C868 C 0.85595 0.73219 0.29523 0.0
C869 C 0.86453 0.71069 0.28234 0.0
C870 C 0.81513 0.79967 0.32238 0.0
C871 C 0.80179 0.79759 0.34518 0.0
C872 C 0.82598 0.77818 0.31127 0.0
C873 C 0.82425 0.75434 0.32313 0.0
C874 C 0.81177 0.75268 0.34661 0.0
C875 C 0.80034 0.77402 0.35731 0.0
H876 H 0.82033 0.33395 0.77967 0.0
H877 H 0.76739 0.33319 0.71785 0.0
H878 H 0.78814 0.31852 0.8084 0.0
H879 H 0.73551 0.31743 0.74648 0.0
H880 H 0.67903 0.29634 0.80632 0.0
H881 H 0.70861 0.32403 0.78459 0.0
H882 H 0.7698 0.27615 0.80998 0.0
H883 H 0.74061 0.24888 0.83165 0.0
C884 C 0.80176 0.33095 0.77228 0.0
C885 C 0.79659 0.33442 0.74635 0.0
C886 C 0.78335 0.32203 0.78873 0.0
C887 C 0.75939 0.31648 0.77963 0.0
C888 C 0.75372 0.32168 0.75413 0.0
C889 C 0.77212 0.33052 0.73766 0.0
C890 C 0.69883 0.29204 0.80758 0.0
C891 C 0.70746 0.27027 0.82043 0.0
C892 C 0.71573 0.30782 0.79508 0.0
C893 C 0.74152 0.30225 0.79557 0.0
C894 C 0.75011 0.28118 0.80949 0.0
C895 C 0.73331 0.26536 0.82169 0.0
H896 H 0.20411 0.81922 0.64024 0.0
H897 H 0.25515 0.77961 0.69046 0.0
H898 H 0.17196 0.78786 0.64959 0.0
H899 H 0.22275 0.74881 0.70018 0.0
H900 H 0.14902 0.69528 0.65522 0.0
H901 H 0.1782 0.72915 0.64422 0.0
H902 H 0.16994 0.7603 0.7194 0.0
H903 H 0.14044 0.72721 0.73028 0.0
C904 C 0.20832 0.80406 0.65351 0.0
C905 C 0.23208 0.80182 0.66466 0.0
C906 C 0.19005 0.78611 0.65865 0.0
C907 C 0.19515 0.76606 0.67542 0.0
C908 C 0.21859 0.76416 0.6871 0.0
C909 C 0.23702 0.78174 0.68156 0.0
C910 C 0.15316 0.70961 0.6692 0.0
C911 C 0.14239 0.70872 0.69351 0.0
C912 C 0.16974 0.72889 0.66292 0.0
C913 C 0.17608 0.74712 0.68104 0.0
C914 C 0.16515 0.74641 0.70518 0.0
C915 C 0.14824 0.72753 0.71129 0.0
H916 H 0.67525 0.71379 0.18507 0.0
H917 H 0.72884 0.74869 0.13531 0.0
H918 H 0.70742 0.68534 0.20112 0.0
H919 H 0.76099 0.7188 0.14976 0.0
H920 H 0.76421 0.62872 0.22245 0.0
H921 H 0.73335 0.65132 0.19669 0.0
H922 H 0.78677 0.71068 0.18318 0.0
H923 H 0.81797 0.68666 0.20696 0.0
C924 C 0.69389 0.71488 0.17712 0.0
C925 C 0.69966 0.73347 0.15912 0.0
C926 C 0.71241 0.69835 0.18613 0.0
C927 C 0.73706 0.69953 0.17681 0.0
C928 C 0.74247 0.71758 0.1579 0.0
C929 C 0.72404 0.73463 0.14944 0.0
C930 C 0.76937 0.64627 0.21327 0.0
C931 C 0.7933 0.65604 0.2165 0.0
C932 C 0.75164 0.65947 0.1988 0.0
C933 C 0.75718 0.68328 0.1882 0.0
C934 C 0.78168 0.69235 0.19061 0.0
C935 C 0.79964 0.67867 0.20436 0.0
H936 H 0.73791 0.21165 0.68733 0.0
H937 H 0.79029 0.17675 0.63499 0.0
H938 H 0.7698 0.24179 0.7 0.0
H939 H 0.82193 0.20745 0.64727 0.0
H940 H 0.84864 0.295 0.65577 0.0
H941 H 0.82043 0.26096 0.64337 0.0
H942 H 0.81714 0.23552 0.72114 0.0
H943 H 0.84573 0.26885 0.73348 0.0
C944 C 0.75625 0.21039 0.67863 0.0
C945 C 0.76169 0.19189 0.66023 0.0
C946 C 0.77443 0.22755 0.6859 0.0
C947 C 0.79813 0.22684 0.67447 0.0
C948 C 0.80369 0.2083 0.65621 0.0
C949 C 0.78569 0.19072 0.64937 0.0
C950 C 0.84218 0.28186 0.67008 0.0
C951 C 0.84943 0.28443 0.69551 0.0
C952 C 0.82616 0.26246 0.663 0.0
C953 C 0.81676 0.24581 0.68139 0.0
C954 C 0.82423 0.24819 0.70672 0.0
C955 C 0.84065 0.26717 0.71368 0.0
H956 H 0.2299 0.33066 0.24087 0.0
H957 H 0.17835 0.30917 0.18197 0.0
H958 H 0.26357 0.30848 0.2188 0.0
H959 H 0.21237 0.28703 0.15972 0.0
H960 H 0.2714 0.22041 0.15483 0.0
H961 H 0.23745 0.24782 0.16969 0.0
H962 H 0.28917 0.30894 0.17937 0.0
H963 H 0.32332 0.28152 0.16473 0.0
C964 C 0.22579 0.32144 0.22305 0.0
C965 C 0.20138 0.32152 0.21328 0.0
C966 C 0.24517 0.3089 0.2103 0.0
C967 C 0.24058 0.29601 0.18757 0.0
C968 C 0.21636 0.29669 0.17733 0.0
C969 C 0.19695 0.30946 0.19 0.0
C970 C 0.27555 0.23976 0.15987 0.0
C971 C 0.30015 0.24868 0.15881 0.0
C972 C 0.25603 0.25552 0.16819 0.0
C973 C 0.2607 0.28047 0.17575 0.0
C974 C 0.28511 0.28969 0.17387 0.0
C975 C 0.30463 0.27399 0.1654 0.0
H976 H 0.34643 0.15763 0.1788 0.0
H977 H 0.36378 0.21914 0.22938 0.0
H978 H 0.31867 0.14004 0.21082 0.0
H979 H 0.33569 0.20169 0.26131 0.0
H980 H 0.24423 0.14318 0.25395 0.0
H981 H 0.27789 0.15539 0.22603 0.0
H982 H 0.32612 0.16564 0.29062 0.0
H983 H 0.29196 0.15355 0.31908 0.0
C984 C 0.34459 0.16721 0.19688 0.0
C985 C 0.35704 0.18993 0.20144 0.0
C986 C 0.3286 0.1572 0.21519 0.0
C987 C 0.32472 0.16968 0.23846 0.0
C988 C 0.33836 0.19157 0.24363 0.0
C989 C 0.35436 0.20162 0.22527 0.0
C990 C 0.26198 0.14788 0.26239 0.0
C991 C 0.2653 0.14737 0.28888 0.0
C992 C 0.28141 0.15469 0.24626 0.0
C993 C 0.30477 0.16124 0.25607 0.0
C994 C 0.30829 0.16071 0.28253 0.0
C995 C 0.28876 0.15371 0.29879 0.0
H996 H 0.30998 0.8035 0.82117 0.0
H997 H 0.37746 0.7796 0.78252 0.0
H998 H 0.29854 0.82999 0.78528 0.0
H999 H 0.36718 0.80766 0.74715 0.0
H1000 H 0.32336 0.83011 0.67615 0.0
H1001 H 0.34044 0.80926 0.71323 0.0
H1002 H 0.30487 0.86579 0.76121 0.0
H1003 H 0.28604 0.8854 0.72384 0.0
C1004 C 0.3226 0.80436 0.80511 0.0
C1005 C 0.34439 0.78936 0.80434 0.0
C1006 C 0.31622 0.81979 0.7846 0.0
C1007 C 0.3319 0.82104 0.76316 0.0
C1008 C 0.35433 0.80676 0.76301 0.0
C1009 C 0.36032 0.79076 0.78327 0.0
C1010 C 0.31926 0.83815 0.69459 0.0
C1011 C 0.30292 0.859 0.6972 0.0
C1012 C 0.32933 0.82635 0.71596 0.0
C1013 C 0.32383 0.83559 0.74039 0.0
C1014 C 0.3089 0.85765 0.74278 0.0
C1015 C 0.29827 0.86904 0.72139 0.0
H1016 H 0.75376 0.84381 0.25857 0.0
H1017 H 0.70156 0.83472 0.32061 0.0
H1018 H 0.72177 0.83215 0.22867 0.0
H1019 H 0.66912 0.8233 0.29019 0.0
H1020 H 0.63462 0.76957 0.22846 0.0
H1021 H 0.66093 0.7873 0.26146 0.0
H1022 H 0.68256 0.84715 0.21027 0.0
H1023 H 0.65664 0.82913 0.17711 0.0
C1024 C 0.73538 0.83953 0.26589 0.0
C1025 C 0.73031 0.84012 0.2921 0.0
C1026 C 0.71692 0.83307 0.24862 0.0
C1027 C 0.69285 0.82699 0.25702 0.0
C1028 C 0.68756 0.82782 0.28318 0.0
C1029 C 0.7061 0.83443 0.30057 0.0
C1030 C 0.64469 0.78674 0.22439 0.0
C1031 C 0.64385 0.79779 0.2001 0.0
C1032 C 0.65965 0.79697 0.24335 0.0
C1033 C 0.67404 0.81845 0.23838 0.0
C1034 C 0.67202 0.83031 0.21452 0.0
C1035 C 0.6571 0.82007 0.19557 0.0
H1036 H 0.67011 0.16245 0.66657 0.0
H1037 H 0.70631 0.10502 0.71261 0.0
H1038 H 0.65163 0.18121 0.70407 0.0
H1039 H 0.68605 0.12249 0.7503 0.0
H1040 H 0.67869 0.18193 0.8129 0.0
H1041 H 0.69117 0.15686 0.77639 0.0
H1042 H 0.6239 0.18113 0.7372 0.0
H1043 H 0.61265 0.20783 0.77323 0.0
C1044 C 0.67366 0.15347 0.6847 0.0
C1045 C 0.69011 0.13266 0.68679 0.0
C1046 C 0.66277 0.16407 0.70631 0.0
C1047 C 0.66753 0.15361 0.73043 0.0
C1048 C 0.68256 0.13156 0.73218 0.0
C1049 C 0.69401 0.12139 0.71059 0.0
C1050 C 0.66658 0.18177 0.79649 0.0
C1051 C 0.64495 0.19701 0.79562 0.0
C1052 C 0.67355 0.16715 0.77559 0.0
C1053 C 0.65863 0.16695 0.75363 0.0
C1054 C 0.63623 0.18128 0.75345 0.0
C1055 C 0.62966 0.19648 0.7741 0.0
H1056 H 0.78393 0.76308 0.63312 0.0
H1057 H 0.80587 0.81521 0.6916 0.0
H1058 H 0.80025 0.72782 0.65817 0.0
H1059 H 0.82009 0.78012 0.71775 0.0
H1060 H 0.8018 0.6684 0.72055 0.0
H1061 H 0.79062 0.70336 0.69242 0.0
H1062 H 0.84818 0.74873 0.72663 0.0
H1063 H 0.85761 0.71434 0.75604 0.0
C1064 C 0.79222 0.76694 0.65141 0.0
C1065 C 0.79347 0.79181 0.66052 0.0
C1066 C 0.80132 0.74671 0.66598 0.0
C1067 C 0.81118 0.75085 0.69035 0.0
C1068 C 0.81304 0.77597 0.69902 0.0
C1069 C 0.80464 0.79622 0.68409 0.0
C1070 C 0.81194 0.68594 0.72195 0.0
C1071 C 0.83034 0.68889 0.7405 0.0
C1072 C 0.80577 0.70596 0.70566 0.0
C1073 C 0.81845 0.72912 0.70707 0.0
C1074 C 0.83747 0.73158 0.72527 0.0
C1075 C 0.84306 0.71183 0.74206 0.0
H1076 H 0.72824 0.24001 0.15719 0.0
H1077 H 0.67645 0.30084 0.17588 0.0
H1078 H 0.76217 0.26356 0.17574 0.0
H1079 H 0.7108 0.32459 0.19458 0.0
H1080 H 0.77204 0.33194 0.25868 0.0
H1081 H 0.7373 0.31665 0.23365 0.0
H1082 H 0.78713 0.30312 0.17037 0.0
H1083 H 0.82214 0.31834 0.19549 0.0
C1084 C 0.72411 0.25853 0.16512 0.0
C1085 C 0.69959 0.26847 0.16531 0.0
C1086 C 0.74365 0.27213 0.17549 0.0
C1087 C 0.73913 0.29592 0.18652 0.0
C1088 C 0.71474 0.30623 0.18623 0.0
C1089 C 0.69514 0.29269 0.17551 0.0
C1090 C 0.7756 0.326 0.23932 0.0
C1091 C 0.79993 0.32607 0.22916 0.0
C1092 C 0.75561 0.31748 0.22493 0.0
C1093 C 0.75955 0.30864 0.20013 0.0
C1094 C 0.78365 0.30969 0.18954 0.0
C1095 C 0.80365 0.31847 0.20388 0.0
H1096 H 0.16165 0.27575 0.77504 0.0
H1097 H 0.15356 0.32707 0.71137 0.0
H1098 H 0.17409 0.24192 0.74625 0.0
H1099 H 0.16562 0.29292 0.68253 0.0
H1100 H 0.22016 0.23457 0.64589 0.0
H1101 H 0.20367 0.26853 0.67264 0.0
H1102 H 0.15796 0.21477 0.71273 0.0
H1103 H 0.17483 0.18068 0.68622 0.0
C1104 C 0.16232 0.27981 0.75489 0.0
C1105 C 0.1567 0.30421 0.74556 0.0
C1106 C 0.16928 0.26032 0.73837 0.0
C1107 C 0.17082 0.26474 0.71212 0.0
C1108 C 0.16486 0.28902 0.70271 0.0
C1109 C 0.15785 0.30854 0.71924 0.0
C1110 C 0.20644 0.23004 0.66029 0.0
C1111 C 0.19886 0.20497 0.66407 0.0
C1112 C 0.19689 0.24952 0.67551 0.0
C1113 C 0.17957 0.24432 0.69484 0.0
C1114 C 0.17154 0.21931 0.6982 0.0
C1115 C 0.18108 0.19982 0.68294 0.0
H1116 H 0.16909 0.69192 0.17076 0.0
H1117 H 0.21681 0.62595 0.17944 0.0
H1118 H 0.20545 0.71777 0.16261 0.0
H1119 H 0.25308 0.65096 0.16888 0.0
H1120 H 0.31584 0.70505 0.18188 0.0
H1121 H 0.2788 0.67944 0.18728 0.0
H1122 H 0.23768 0.73037 0.1375 0.0
H1123 H 0.27425 0.75687 0.13407 0.0
C1124 C 0.18735 0.68286 0.17013 0.0
C1125 C 0.1903 0.65712 0.17601 0.0
C1126 C 0.20829 0.69761 0.16533 0.0
C1127 C 0.23249 0.68666 0.16552 0.0
C1128 C 0.23499 0.66038 0.16952 0.0
C1129 C 0.21417 0.6459 0.17516 0.0
C1130 C 0.29876 0.71071 0.17231 0.0
C1131 C 0.29772 0.7329 0.15776 0.0
C1132 C 0.27754 0.69592 0.17508 0.0
C1133 C 0.25507 0.70257 0.16263 0.0
C1134 C 0.25433 0.72478 0.14782 0.0
C1135 C 0.27532 0.73995 0.14572 0.0
H1136 H 0.85384 0.30294 0.31568 0.0
H1137 H 0.86642 0.26062 0.24656 0.0
H1138 H 0.82432 0.27126 0.32995 0.0
H1139 H 0.83689 0.22876 0.26108 0.0
H1140 H 0.79234 0.16937 0.30985 0.0
H1141 H 0.82736 0.1961 0.29756 0.0
H1142 H 0.78131 0.26283 0.3098 0.0
H1143 H 0.74641 0.23643 0.3219 0.0
C1144 C 0.85071 0.28661 0.30378 0.0
C1145 C 0.86209 0.28447 0.27983 0.0
C1146 C 0.83375 0.26856 0.31191 0.0
C1147 C 0.82806 0.24792 0.29636 0.0
C1148 C 0.84098 0.24458 0.27336 0.0
C1149 C 0.85787 0.26279 0.2651 0.0
C1150 C 0.78968 0.18974 0.30983 0.0
C1151 C 0.76661 0.20079 0.31694 0.0
C1152 C 0.8097 0.20497 0.30277 0.0
C1153 C 0.80705 0.23144 0.30313 0.0
C1154 C 0.78392 0.24243 0.30982 0.0
C1155 C 0.76388 0.22729 0.31653 0.0
H1156 H 0.22298 0.37648 0.77188 0.0
H1157 H 0.17921 0.35273 0.83645 0.0
H1158 H 0.25986 0.35619 0.78999 0.0
H1159 H 0.21647 0.33289 0.85504 0.0
H1160 H 0.27998 0.27348 0.86207 0.0
H1161 H 0.2432 0.29638 0.8467 0.0
H1162 H 0.2896 0.35878 0.82401 0.0
H1163 H 0.32653 0.3355 0.83879 0.0
C1164 C 0.22131 0.3672 0.79014 0.0
C1165 C 0.19819 0.36611 0.80273 0.0
C1166 C 0.24252 0.35569 0.8006 0.0
C1167 C 0.24112 0.3429 0.82395 0.0
C1168 C 0.21808 0.34232 0.83685 0.0
C1169 C 0.19679 0.35381 0.82632 0.0
C1170 C 0.28232 0.29212 0.85384 0.0
C1171 C 0.30611 0.3027 0.85154 0.0
C1172 C 0.26121 0.30532 0.84523 0.0
C1173 C 0.26345 0.32943 0.8342 0.0
C1174 C 0.28728 0.34011 0.83215 0.0
C1175 C 0.30842 0.32684 0.84068 0.0
H1176 H 0.20706 0.81105 0.30013 0.0
H1177 H 0.22557 0.7505 0.35212 0.0
H1178 H 0.17927 0.78319 0.27729 0.0
H1179 H 0.19627 0.72298 0.33077 0.0
H1180 H 0.17538 0.67156 0.26459 0.0
H1181 H 0.19506 0.69967 0.29452 0.0
H1182 H 0.14384 0.76004 0.27248 0.0
H1183 H 0.1255 0.7321 0.24111 0.0
C1184 C 0.20449 0.79194 0.3071 0.0
C1185 C 0.21857 0.78275 0.32761 0.0
C1186 C 0.18842 0.77591 0.29414 0.0
C1187 C 0.18561 0.75051 0.30185 0.0
C1188 C 0.19846 0.74206 0.32365 0.0
C1189 C 0.21508 0.75787 0.3361 0.0
C1190 C 0.16807 0.69072 0.2665 0.0
C1191 C 0.1491 0.69974 0.25042 0.0
C1192 C 0.17927 0.70693 0.28383 0.0
C1193 C 0.17133 0.73243 0.28593 0.0
C1194 C 0.15105 0.74083 0.27098 0.0
C1195 C 0.14031 0.72477 0.25316 0.0
H1196 H 0.7625 0.61385 0.7743 0.0
H1197 H 0.81015 0.63908 0.83494 0.0
H1198 H 0.72651 0.63298 0.79528 0.0
H1199 H 0.77379 0.6577 0.85651 0.0
H1200 H 0.7098 0.71673 0.86622 0.0
H1201 H 0.74604 0.69344 0.85014 0.0
H1202 H 0.69892 0.63061 0.83098 0.0
H1203 H 0.66246 0.65436 0.84637 0.0
C1204 C 0.76523 0.62318 0.79235 0.0
C1205 C 0.78917 0.62511 0.80292 0.0
C1206 C 0.74452 0.63399 0.80449 0.0
C1207 C 0.74723 0.64689 0.82758 0.0
C1208 C 0.77112 0.64817 0.83856 0.0
C1209 C 0.79192 0.6374 0.82632 0.0
C1210 C 0.7072 0.69787 0.85872 0.0
C1211 C 0.68329 0.68741 0.85736 0.0
C1212 C 0.72802 0.68443 0.84969 0.0
C1213 C 0.72541 0.66016 0.83923 0.0
C1214 C 0.70153 0.64942 0.83858 0.0
C1215 C 0.68066 0.66295 0.84748 0.0
H1216 H 0.73897 0.83534 0.74295 0.0
H1217 H 0.69695 0.81054 0.67786 0.0
H1218 H 0.71037 0.81351 0.77094 0.0
H1219 H 0.66795 0.78887 0.70616 0.0
H1220 H 0.65163 0.72304 0.76363 0.0
H1221 H 0.67184 0.75085 0.73328 0.0
H1222 H 0.66765 0.81217 0.7873 0.0
H1223 H 0.64777 0.78429 0.81794 0.0
C1224 C 0.72339 0.82555 0.7346 0.0
C1225 C 0.72041 0.8245 0.70812 0.0
C1226 C 0.70684 0.81319 0.75071 0.0
C1227 C 0.68693 0.79938 0.74077 0.0
C1228 C 0.68328 0.79916 0.71435 0.0
C1229 C 0.6998 0.8117 0.69816 0.0
C1230 C 0.6547 0.74254 0.76899 0.0
C1231 C 0.64834 0.7513 0.79341 0.0
C1232 C 0.66613 0.75854 0.75146 0.0
C1233 C 0.6715 0.78366 0.75795 0.0
C1234 C 0.66405 0.79279 0.78188 0.0
C1235 C 0.65258 0.77681 0.79942 0.0
H1236 H 0.71205 0.13183 0.26148 0.0
H1237 H 0.65963 0.1615 0.31685 0.0
H1238 H 0.68738 0.15096 0.22758 0.0
H1239 H 0.63448 0.18003 0.28287 0.0
H1240 H 0.62346 0.24032 0.21899 0.0
H1241 H 0.63975 0.21528 0.25429 0.0
H1242 H 0.64854 0.15057 0.20472 0.0
H1243 H 0.63301 0.17593 0.16926 0.0
C1244 C 0.695 0.14205 0.26634 0.0
C1245 C 0.68788 0.14544 0.29173 0.0
C1246 C 0.68075 0.15286 0.24693 0.0
C1247 C 0.65901 0.16709 0.25258 0.0
C1248 C 0.65133 0.16949 0.27797 0.0
C1249 C 0.66568 0.15881 0.29738 0.0
C1250 C 0.62845 0.22062 0.21579 0.0
C1251 C 0.62735 0.21011 0.19141 0.0
C1252 C 0.63767 0.20622 0.23601 0.0
C1253 C 0.64571 0.18102 0.23219 0.0
C1254 C 0.64299 0.17009 0.2081 0.0
C1255 C 0.63399 0.18455 0.18786 0.0
H1256 H 0.27368 0.13731 0.7321 0.0
H1257 H 0.28428 0.19841 0.67898 0.0
H1258 H 0.30404 0.15581 0.76066 0.0
H1259 H 0.31302 0.21828 0.70817 0.0
H1260 H 0.36751 0.25053 0.76134 0.0
H1261 H 0.34936 0.22247 0.72998 0.0
H1262 H 0.30522 0.18783 0.78926 0.0
H1263 H 0.32493 0.21453 0.8205 0.0
C1264 C 0.28278 0.15465 0.72651 0.0
C1265 C 0.27672 0.1665 0.70344 0.0
C1266 C 0.29995 0.1655 0.743 0.0
C1267 C 0.31078 0.18898 0.73722 0.0
C1268 C 0.30552 0.20008 0.71339 0.0
C1269 C 0.28891 0.18878 0.69657 0.0
C1270 C 0.35433 0.23645 0.7676 0.0
C1271 C 0.34754 0.23472 0.79329 0.0
C1272 C 0.34367 0.2205 0.7496 0.0
C1273 C 0.32535 0.20299 0.75676 0.0
C1274 C 0.31948 0.20063 0.78278 0.0
C1275 C 0.33069 0.21609 0.80083 0.0
H1276 H 0.32556 0.81933 0.32764 0.0
H1277 H 0.2767 0.85224 0.27089 0.0
H1278 H 0.35341 0.80366 0.29431 0.0
H1279 H 0.30416 0.83605 0.23757 0.0
H1280 H 0.37168 0.75015 0.2261 0.0
H1281 H 0.35141 0.77097 0.26204 0.0
H1282 H 0.3453 0.84038 0.21868 0.0
H1283 H 0.36499 0.81934 0.18252 0.0
C1284 C 0.32081 0.82324 0.30803 0.0
C1285 C 0.29893 0.83685 0.30177 0.0
C1286 C 0.33672 0.81423 0.28899 0.0
C1287 C 0.33097 0.81863 0.26336 0.0
C1288 C 0.30932 0.83272 0.25717 0.0
C1289 C 0.29347 0.8418 0.27622 0.0
C1290 C 0.36643 0.76998 0.22444 0.0
C1291 C 0.36953 0.78306 0.20148 0.0
C1292 C 0.3549 0.78194 0.24504 0.0
C1293 C 0.34647 0.8072 0.24301 0.0
C1294 C 0.35114 0.82073 0.22057 0.0
C1295 C 0.36252 0.80874 0.19995 0.0
loop_
_geom_bond_atom_site_label_1
_geom_bond_atom_site_label_2
_geom_bond_distance
_geom_bond_site_symmetry_2
_ccdc_geom_bond_type
Co0 O1 2.216 . S
Co0 O2 2.091 . S
Co0 O4 2.004 . S
Co0 O10 2.021 . S
Co0 O12 2.137 . S
Co0 O13 2.244 . S
O1 Co0 2.216 . S
O1 C8 1.247 . S
O2 Co0 2.091 . S
O2 C8 1.261 . S
C3 O12 1.247 . S
C3 O13 1.272 . S
O4 Co0 2.004 . S
O4 C9 1.259 . S
Co5 O6 2.061 . S
Co5 O11 2.052 . S
Co5 O13 2.135 . S
O6 Co5 2.061 . S
O6 C9 1.235 . S
C7 O10 1.238 . S
C7 O11 1.241 . S
C8 O1 1.247 . S
C8 O2 1.261 . S
C9 O4 1.259 . S
C9 O6 1.235 . S
O10 Co0 2.021 . S
O10 C7 1.238 . S
O11 Co5 2.052 . S
O11 C7 1.241 . S
O12 Co0 2.137 . S
O12 C3 1.247 . S
O13 Co0 2.244 . S
O13 C3 1.272 . S
O13 Co5 2.135 . S
Co14 O15 2.216 . S
Co14 O16 2.091 . S
Co14 O18 2.004 . S
Co14 O24 2.021 . S
Co14 O26 2.137 . S
Co14 O27 2.244 . S
O15 Co14 2.216 . S
O15 C22 1.247 . S
O16 Co14 2.091 . S
O16 C22 1.261 . S
C17 O26 1.247 . S
C17 O27 1.272 . S
O18 Co14 2.004 . S
O18 C23 1.259 . S
Co19 O20 2.061 . S
Co19 O25 2.052 . S
Co19 O27 2.135 . S
O20 Co19 2.061 . S
O20 C23 1.235 . S
C21 O24 1.238 . S
C21 O25 1.241 . S
C22 O15 1.247 . S
C22 O16 1.261 . S
C23 O18 1.259 . S
C23 O20 1.235 . S
O24 Co14 2.021 . S
O24 C21 1.238 . S
O25 Co19 2.052 . S
O25 C21 1.241 . S
O26 Co14 2.137 . S
O26 C17 1.247 . S
O27 Co14 2.244 . S
O27 C17 1.272 . S
O27 Co19 2.135 . S
Co28 O29 2.216 . S
Co28 O30 2.091 . S
Co28 O32 2.004 . S
Co28 O38 2.021 . S
Co28 O40 2.137 . S
Co28 O41 2.244 . S
O29 Co28 2.216 . S
O29 C36 1.247 . S
O30 Co28 2.091 . S
O30 C36 1.261 . S
C31 O40 1.247 . S
C31 O41 1.272 . S
O32 Co28 2.004 . S
O32 C37 1.259 . S
Co33 O34 2.061 . S
Co33 O39 2.052 . S
Co33 O41 2.135 . S
O34 Co33 2.061 . S
O34 C37 1.235 . S
C35 O38 1.238 . S
C35 O39 1.241 . S
C36 O29 1.247 . S
C36 O30 1.261 . S
C37 O32 1.259 . S
C37 O34 1.235 . S
O38 Co28 2.021 . S
O38 C35 1.238 . S
O39 Co33 2.052 . S
O39 C35 1.241 . S
O40 Co28 2.137 . S
O40 C31 1.247 . S
O41 Co28 2.244 . S
O41 C31 1.272 . S
O41 Co33 2.135 . S
Co42 O43 2.216 . S
Co42 O44 2.091 . S
Co42 O46 2.004 . S
Co42 O52 2.021 . S
Co42 O54 2.137 . S
Co42 O55 2.244 . S
O43 Co42 2.216 . S
O43 C50 1.247 . S
O44 Co42 2.091 . S
O44 C50 1.261 . S
C45 O54 1.247 . S
C45 O55 1.272 . S
O46 Co42 2.004 . S
O46 C51 1.259 . S
Co47 O48 2.061 . S
Co47 O53 2.052 . S
Co47 O55 2.135 . S
O48 Co47 2.061 . S
O48 C51 1.235 . S
C49 O52 1.238 . S
C49 O53 1.241 . S
C50 O43 1.247 . S
C50 O44 1.261 . S
C51 O46 1.259 . S
C51 O48 1.235 . S
O52 Co42 2.021 . S
O52 C49 1.238 . S
O53 Co47 2.052 . S
O53 C49 1.241 . S
O54 Co42 2.137 . S
O54 C45 1.247 . S
O55 Co42 2.244 . S
O55 C45 1.272 . S
O55 Co47 2.135 . S
Co56 O57 2.216 . S
Co56 O58 2.091 . S
Co56 O60 2.004 . S
Co56 O66 2.021 . S
Co56 O68 2.137 . S
Co56 O69 2.244 . S
O57 Co56 2.216 . S
O57 C64 1.247 . S
O58 Co56 2.091 . S
O58 C64 1.261 . S
C59 O68 1.247 . S
C59 O69 1.272 . S
O60 Co56 2.004 . S
O60 C65 1.259 . S
Co61 O62 2.061 . S
Co61 O67 2.052 . S
Co61 O69 2.135 . S
O62 Co61 2.061 . S
O62 C65 1.235 . S
C63 O66 1.238 . S
C63 O67 1.241 . S
C64 O57 1.247 . S
C64 O58 1.261 . S
C65 O60 1.259 . S
C65 O62 1.235 . S
O66 Co56 2.021 . S
O66 C63 1.238 . S
O67 Co61 2.052 . S
O67 C63 1.241 . S
O68 Co56 2.137 . S
O68 C59 1.247 . S
O69 Co56 2.244 . S
O69 C59 1.272 . S
O69 Co61 2.135 . S
Co70 O71 2.216 . S
Co70 O72 2.091 . S
Co70 O74 2.004 . S
Co70 O80 2.021 . S
Co70 O82 2.137 . S
Co70 O83 2.244 . S
O71 Co70 2.216 . S
O71 C78 1.247 . S
O72 Co70 2.091 . S
O72 C78 1.261 . S
C73 O82 1.247 . S
C73 O83 1.272 . S
O74 Co70 2.004 . S
O74 C79 1.259 . S
Co75 O76 2.061 . S
Co75 O81 2.052 . S
Co75 O83 2.135 . S
O76 Co75 2.061 . S
O76 C79 1.235 . S
C77 O80 1.238 . S
C77 O81 1.241 . S
C78 O71 1.247 . S
C78 O72 1.261 . S
C79 O74 1.259 . S
C79 O76 1.235 . S
O80 Co70 2.021 . S
O80 C77 1.238 . S
O81 Co75 2.052 . S
O81 C77 1.241 . S
O82 Co70 2.137 . S
O82 C73 1.247 . S
O83 Co70 2.244 . S
O83 C73 1.272 . S
O83 Co75 2.135 . S
Co84 O85 2.216 . S
Co84 O86 2.091 . S
Co84 O88 2.004 . S
Co84 O94 2.021 . S
Co84 O96 2.137 . S
Co84 O97 2.244 . S
O85 Co84 2.216 . S
O85 C92 1.247 . S
O86 Co84 2.091 . S
O86 C92 1.261 . S
C87 O96 1.247 . S
C87 O97 1.272 . S
O88 Co84 2.004 . S
O88 C93 1.259 . S
Co89 O90 2.061 . S
Co89 O95 2.052 . S
Co89 O97 2.135 . S
O90 Co89 2.061 . S
O90 C93 1.235 . S
C91 O94 1.238 . S
C91 O95 1.241 . S
C92 O85 1.247 . S
C92 O86 1.261 . S
C93 O88 1.259 . S
C93 O90 1.235 . S
O94 Co84 2.021 . S
O94 C91 1.238 . S
O95 Co89 2.052 . S
O95 C91 1.241 . S
O96 Co84 2.137 . S
O96 C87 1.247 . S
O97 Co84 2.244 . S
O97 C87 1.272 . S
O97 Co89 2.135 . S
Co98 O99 2.216 . S
Co98 O100 2.091 . S
Co98 O102 2.004 . S
Co98 O108 2.021 . S
Co98 O110 2.137 . S
Co98 O111 2.244 . S
O99 Co98 2.216 . S
O99 C106 1.247 . S
O100 Co98 2.091 . S
O100 C106 1.261 . S
C101 O110 1.247 . S
C101 O111 1.272 . S
O102 Co98 2.004 . S
O102 C107 1.259 . S
Co103 O104 2.061 . S
Co103 O109 2.052 . S
Co103 O111 2.135 . S
O104 Co103 2.061 . S
O104 C107 1.235 . S
C105 O108 1.238 . S
C105 O109 1.241 . S
C106 O99 1.247 . S
C106 O100 1.261 . S
C107 O102 1.259 . S
C107 O104 1.235 . S
O108 Co98 2.021 . S
O108 C105 1.238 . S
O109 Co103 2.052 . S
O109 C105 1.241 . S
O110 Co98 2.137 . S
O110 C101 1.247 . S
O111 Co98 2.244 . S
O111 C101 1.272 . S
O111 Co103 2.135 . S
Co112 O113 2.216 . S
Co112 O114 2.091 . S
Co112 O116 2.004 . S
Co112 O122 2.021 . S
Co112 O124 2.137 . S
Co112 O125 2.244 . S
O113 Co112 2.216 . S
O113 C120 1.247 . S
O114 Co112 2.091 . S
O114 C120 1.261 . S
C115 O124 1.247 . S
C115 O125 1.272 . S
O116 Co112 2.004 . S
O116 C121 1.259 . S
Co117 O118 2.061 . S
Co117 O123 2.052 . S
Co117 O125 2.135 . S
O118 Co117 2.061 . S
O118 C121 1.235 . S
C119 O122 1.238 . S
C119 O123 1.241 . S
C120 O113 1.247 . S
C120 O114 1.261 . S
C121 O116 1.259 . S
C121 O118 1.235 . S
O122 Co112 2.021 . S
O122 C119 1.238 . S
O123 Co117 2.052 . S
O123 C119 1.241 . S
O124 Co112 2.137 . S
O124 C115 1.247 . S
O125 Co112 2.244 . S
O125 C115 1.272 . S
O125 Co117 2.135 . S
Co126 O127 2.216 . S
Co126 O128 2.091 . S
Co126 O130 2.004 . S
Co126 O136 2.021 . S
Co126 O138 2.137 . S
Co126 O139 2.244 . S
O127 Co126 2.216 . S
O127 C134 1.247 . S
O128 Co126 2.091 . S
O128 C134 1.261 . S
C129 O138 1.247 . S
C129 O139 1.272 . S
O130 Co126 2.004 . S
O130 C135 1.259 . S
Co131 O132 2.061 . S
Co131 O137 2.052 . S
Co131 O139 2.135 . S
O132 Co131 2.061 . S
O132 C135 1.235 . S
C133 O136 1.238 . S
C133 O137 1.241 . S
C134 O127 1.247 . S
C134 O128 1.261 . S
C135 O130 1.259 . S
C135 O132 1.235 . S
O136 Co126 2.021 . S
O136 C133 1.238 . S
O137 Co131 2.052 . S
O137 C133 1.241 . S
O138 Co126 2.137 . S
O138 C129 1.247 . S
O139 Co126 2.244 . S
O139 C129 1.272 . S
O139 Co131 2.135 . S
Co140 O141 2.216 . S
Co140 O142 2.091 . S
Co140 O144 2.004 . S
Co140 O150 2.021 . S
Co140 O152 2.137 . S
Co140 O153 2.244 . S
O141 Co140 2.216 . S
O141 C148 1.247 . S
O142 Co140 2.091 . S
O142 C148 1.261 . S
C143 O152 1.247 . S
C143 O153 1.272 . S
O144 Co140 2.004 . S
O144 C149 1.259 . S
Co145 O146 2.061 . S
Co145 O151 2.052 . S
Co145 O153 2.135 . S
O146 Co145 2.061 . S
O146 C149 1.235 . S
C147 O150 1.238 . S
C147 O151 1.241 . S
C148 O141 1.247 . S
C148 O142 1.261 . S
C149 O144 1.259 . S
C149 O146 1.235 . S
O150 Co140 2.021 . S
O150 C147 1.238 . S
O151 Co145 2.052 . S
O151 C147 1.241 . S
O152 Co140 2.137 . S
O152 C143 1.247 . S
O153 Co140 2.244 . S
O153 C143 1.272 . S
O153 Co145 2.135 . S
Co154 O155 2.216 . S
Co154 O156 2.091 . S
Co154 O158 2.004 . S
Co154 O164 2.021 . S
Co154 O166 2.137 . S
Co154 O167 2.244 . S
O155 Co154 2.216 . S
O155 C162 1.247 . S
O156 Co154 2.091 . S
O156 C162 1.261 . S
C157 O166 1.247 . S
C157 O167 1.272 . S
O158 Co154 2.004 . S
O158 C163 1.259 . S
Co159 O160 2.061 . S
Co159 O165 2.052 . S
Co159 O167 2.135 . S
O160 Co159 2.061 . S
O160 C163 1.235 . S
C161 O164 1.238 . S
C161 O165 1.241 . S
C162 O155 1.247 . S
C162 O156 1.261 . S
C163 O158 1.259 . S
C163 O160 1.235 . S
O164 Co154 2.021 . S
O164 C161 1.238 . S
O165 Co159 2.052 . S
O165 C161 1.241 . S
O166 Co154 2.137 . S
O166 C157 1.247 . S
O167 Co154 2.244 . S
O167 C157 1.272 . S
O167 Co159 2.135 . S
Co168 O169 2.216 . S
Co168 O170 2.091 . S
Co168 O172 2.004 . S
Co168 O178 2.021 . S
Co168 O180 2.137 . S
Co168 O181 2.244 . S
O169 Co168 2.216 . S
O169 C176 1.247 . S
O170 Co168 2.091 . S
O170 C176 1.261 . S
C171 O180 1.247 . S
C171 O181 1.272 . S
O172 Co168 2.004 . S
O172 C177 1.259 . S
Co173 O174 2.061 . S
Co173 O179 2.052 . S
Co173 O181 2.135 . S
O174 Co173 2.061 . S
O174 C177 1.235 . S
C175 O178 1.238 . S
C175 O179 1.241 . S
C176 O169 1.247 . S
C176 O170 1.261 . S
C177 O172 1.259 . S
C177 O174 1.235 . S
O178 Co168 2.021 . S
O178 C175 1.238 . S
O179 Co173 2.052 . S
O179 C175 1.241 . S
O180 Co168 2.137 . S
O180 C171 1.247 . S
O181 Co168 2.244 . S
O181 C171 1.272 . S
O181 Co173 2.135 . S
Co182 O183 2.216 . S
Co182 O184 2.091 . S
Co182 O186 2.004 . S
Co182 O192 2.021 . S
Co182 O194 2.137 . S
Co182 O195 2.244 . S
O183 Co182 2.216 . S
O183 C190 1.247 . S
O184 Co182 2.091 . S
O184 C190 1.261 . S
C185 O194 1.247 . S
C185 O195 1.272 . S
O186 Co182 2.004 . S
O186 C191 1.259 . S
Co187 O188 2.061 . S
Co187 O193 2.052 . S
Co187 O195 2.135 . S
O188 Co187 2.061 . S
O188 C191 1.235 . S
C189 O192 1.238 . S
C189 O193 1.241 . S
C190 O183 1.247 . S
C190 O184 1.261 . S
C191 O186 1.259 . S
C191 O188 1.235 . S
O192 Co182 2.021 . S
O192 C189 1.238 . S
O193 Co187 2.052 . S
O193 C189 1.241 . S
O194 Co182 2.137 . S
O194 C185 1.247 . S
O195 Co182 2.244 . S
O195 C185 1.272 . S
O195 Co187 2.135 . S
Co196 O197 2.216 . S
Co196 O198 2.091 . S
Co196 O200 2.004 . S
Co196 O206 2.021 . S
Co196 O208 2.137 . S
Co196 O209 2.244 . S
O197 Co196 2.216 . S
O197 C204 1.247 . S
O198 Co196 2.091 . S
O198 C204 1.261 . S
C199 O208 1.247 . S
C199 O209 1.272 . S
O200 Co196 2.004 . S
O200 C205 1.259 . S
Co201 O202 2.061 . S
Co201 O207 2.052 . S
Co201 O209 2.135 . S
O202 Co201 2.061 . S
O202 C205 1.235 . S
C203 O206 1.238 . S
C203 O207 1.241 . S
C204 O197 1.247 . S
C204 O198 1.261 . S
C205 O200 1.259 . S
C205 O202 1.235 . S
O206 Co196 2.021 . S
O206 C203 1.238 . S
O207 Co201 2.052 . S
O207 C203 1.241 . S
O208 Co196 2.137 . S
O208 C199 1.247 . S
O209 Co196 2.244 . S
O209 C199 1.272 . S
O209 Co201 2.135 . S
Co210 O211 2.216 . S
Co210 O212 2.091 . S
Co210 O214 2.004 . S
Co210 O220 2.021 . S
Co210 O222 2.137 . S
Co210 O223 2.244 . S
O211 Co210 2.216 . S
O211 C218 1.247 . S
O212 Co210 2.091 . S
O212 C218 1.261 . S
C213 O222 1.247 . S
C213 O223 1.272 . S
O214 Co210 2.004 . S
O214 C219 1.259 . S
Co215 O216 2.061 . S
Co215 O221 2.052 . S
Co215 O223 2.135 . S
O216 Co215 2.061 . S
O216 C219 1.235 . S
C217 O220 1.238 . S
C217 O221 1.241 . S
C218 O211 1.247 . S
C218 O212 1.261 . S
C219 O214 1.259 . S
C219 O216 1.235 . S
O220 Co210 2.021 . S
O220 C217 1.238 . S
O221 Co215 2.052 . S
O221 C217 1.241 . S
O222 Co210 2.137 . S
O222 C213 1.247 . S
O223 Co210 2.244 . S
O223 C213 1.272 . S
O223 Co215 2.135 . S
Co224 O225 2.216 . S
Co224 O226 2.091 . S
Co224 O228 2.004 . S
Co224 O234 2.021 . S
Co224 O236 2.137 . S
Co224 O237 2.244 . S
O225 Co224 2.216 . S
O225 C232 1.247 . S
O226 Co224 2.091 . S
O226 C232 1.261 . S
C227 O236 1.247 . S
C227 O237 1.272 . S
O228 Co224 2.004 . S
O228 C233 1.259 . S
Co229 O230 2.061 . S
Co229 O235 2.052 . S
Co229 O237 2.135 . S
O230 Co229 2.061 . S
O230 C233 1.235 . S
C231 O234 1.238 . S
C231 O235 1.241 . S
C232 O225 1.247 . S
C232 O226 1.261 . S
C233 O228 1.259 . S
C233 O230 1.235 . S
O234 Co224 2.021 . S
O234 C231 1.238 . S
O235 Co229 2.052 . S
O235 C231 1.241 . S
O236 Co224 2.137 . S
O236 C227 1.247 . S
O237 Co224 2.244 . S
O237 C227 1.272 . S
O237 Co229 2.135 . S
Co238 O239 2.216 . S
Co238 O240 2.091 . S
Co238 O242 2.004 . S
Co238 O248 2.021 . S
Co238 O250 2.137 . S
Co238 O251 2.244 . S
O239 Co238 2.216 . S
O239 C246 1.247 . S
O240 Co238 2.091 . S
O240 C246 1.261 . S
C241 O250 1.247 . S
C241 O251 1.272 . S
O242 Co238 2.004 . S
O242 C247 1.259 . S
Co243 O244 2.061 . S
Co243 O249 2.052 . S
Co243 O251 2.135 . S
O244 Co243 2.061 . S
O244 C247 1.235 . S
C245 O248 1.238 . S
C245 O249 1.241 . S
C246 O239 1.247 . S
C246 O240 1.261 . S
C247 O242 1.259 . S
C247 O244 1.235 . S
O248 Co238 2.021 . S
O248 C245 1.238 . S
O249 Co243 2.052 . S
O249 C245 1.241 . S
O250 Co238 2.137 . S
O250 C241 1.247 . S
O251 Co238 2.244 . S
O251 C241 1.272 . S
O251 Co243 2.135 . S
Co252 O253 2.216 . S
Co252 O254 2.091 . S
Co252 O256 2.004 . S
Co252 O262 2.021 . S
Co252 O264 2.137 . S
Co252 O265 2.244 . S
O253 Co252 2.216 . S
O253 C260 1.247 . S
O254 Co252 2.091 . S
O254 C260 1.261 . S
C255 O264 1.247 . S
C255 O265 1.272 . S
O256 Co252 2.004 . S
O256 C261 1.259 . S
Co257 O258 2.061 . S
Co257 O263 2.052 . S
Co257 O265 2.135 . S
O258 Co257 2.061 . S
O258 C261 1.235 . S
C259 O262 1.238 . S
C259 O263 1.241 . S
C260 O253 1.247 . S
C260 O254 1.261 . S
C261 O256 1.259 . S
C261 O258 1.235 . S
O262 Co252 2.021 . S
O262 C259 1.238 . S
O263 Co257 2.052 . S
O263 C259 1.241 . S
O264 Co252 2.137 . S
O264 C255 1.247 . S
O265 Co252 2.244 . S
O265 C255 1.272 . S
O265 Co257 2.135 . S
Co266 O267 2.216 . S
Co266 O268 2.091 . S
Co266 O270 2.004 . S
Co266 O276 2.021 . S
Co266 O278 2.137 . S
Co266 O279 2.244 . S
O267 Co266 2.216 . S
O267 C274 1.247 . S
O268 Co266 2.091 . S
O268 C274 1.261 . S
C269 O278 1.247 . S
C269 O279 1.272 . S
O270 Co266 2.004 . S
O270 C275 1.259 . S
Co271 O272 2.061 . S
Co271 O277 2.052 . S
Co271 O279 2.135 . S
O272 Co271 2.061 . S
O272 C275 1.235 . S
C273 O276 1.238 . S
C273 O277 1.241 . S
C274 O267 1.247 . S
C274 O268 1.261 . S
C275 O270 1.259 . S
C275 O272 1.235 . S
O276 Co266 2.021 . S
O276 C273 1.238 . S
O277 Co271 2.052 . S
O277 C273 1.241 . S
O278 Co266 2.137 . S
O278 C269 1.247 . S
O279 Co266 2.244 . S
O279 C269 1.272 . S
O279 Co271 2.135 . S
Co280 O281 2.216 . S
Co280 O282 2.091 . S
Co280 O284 2.004 . S
Co280 O290 2.021 . S
Co280 O292 2.137 . S
Co280 O293 2.244 . S
O281 Co280 2.216 . S
O281 C288 1.247 . S
O282 Co280 2.091 . S
O282 C288 1.261 . S
C283 O292 1.247 . S
C283 O293 1.272 . S
O284 Co280 2.004 . S
O284 C289 1.259 . S
Co285 O286 2.061 . S
Co285 O291 2.052 . S
Co285 O293 2.135 . S
O286 Co285 2.061 . S
O286 C289 1.235 . S
C287 O290 1.238 . S
C287 O291 1.241 . S
C288 O281 1.247 . S
C288 O282 1.261 . S
C289 O284 1.259 . S
C289 O286 1.235 . S
O290 Co280 2.021 . S
O290 C287 1.238 . S
O291 Co285 2.052 . S
O291 C287 1.241 . S
O292 Co280 2.137 . S
O292 C283 1.247 . S
O293 Co280 2.244 . S
O293 C283 1.272 . S
O293 Co285 2.135 . S
Co294 O295 2.216 . S
Co294 O296 2.091 . S
Co294 O298 2.004 . S
Co294 O304 2.021 . S
Co294 O306 2.137 . S
Co294 O307 2.244 . S
O295 Co294 2.216 . S
O295 C302 1.247 . S
O296 Co294 2.091 . S
O296 C302 1.261 . S
C297 O306 1.247 . S
C297 O307 1.272 . S
O298 Co294 2.004 . S
O298 C303 1.259 . S
Co299 O300 2.061 . S
Co299 O305 2.052 . S
Co299 O307 2.135 . S
O300 Co299 2.061 . S
O300 C303 1.235 . S
C301 O304 1.238 . S
C301 O305 1.241 . S
C302 O295 1.247 . S
C302 O296 1.261 . S
C303 O298 1.259 . S
C303 O300 1.235 . S
O304 Co294 2.021 . S
O304 C301 1.238 . S
O305 Co299 2.052 . S
O305 C301 1.241 . S
O306 Co294 2.137 . S
O306 C297 1.247 . S
O307 Co294 2.244 . S
O307 C297 1.272 . S
O307 Co299 2.135 . S
Co308 O309 2.216 . S
Co308 O310 2.091 . S
Co308 O312 2.004 . S
Co308 O318 2.021 . S
Co308 O320 2.137 . S
Co308 O321 2.244 . S
O309 Co308 2.216 . S
O309 C316 1.247 . S
O310 Co308 2.091 . S
O310 C316 1.261 . S
C311 O320 1.247 . S
C311 O321 1.272 . S
O312 Co308 2.004 . S
O312 C317 1.259 . S
Co313 O314 2.061 . S
Co313 O319 2.052 . S
Co313 O321 2.135 . S
O314 Co313 2.061 . S
O314 C317 1.235 . S
C315 O318 1.238 . S
C315 O319 1.241 . S
C316 O309 1.247 . S
C316 O310 1.261 . S
C317 O312 1.259 . S
C317 O314 1.235 . S
O318 Co308 2.021 . S
O318 C315 1.238 . S
O319 Co313 2.052 . S
O319 C315 1.241 . S
O320 Co308 2.137 . S
O320 C311 1.247 . S
O321 Co308 2.244 . S
O321 C311 1.272 . S
O321 Co313 2.135 . S
Co322 O323 2.216 . S
Co322 O324 2.091 . S
Co322 O326 2.004 . S
Co322 O332 2.021 . S
Co322 O334 2.137 . S
Co322 O335 2.244 . S
O323 Co322 2.216 . S
O323 C330 1.247 . S
O324 Co322 2.091 . S
O324 C330 1.261 . S
C325 O334 1.247 . S
C325 O335 1.272 . S
O326 Co322 2.004 . S
O326 C331 1.259 . S
Co327 O328 2.061 . S
Co327 O333 2.052 . S
Co327 O335 2.135 . S
O328 Co327 2.061 . S
O328 C331 1.235 . S
C329 O332 1.238 . S
C329 O333 1.241 . S
C330 O323 1.247 . S
C330 O324 1.261 . S
C331 O326 1.259 . S
C331 O328 1.235 . S
O332 Co322 2.021 . S
O332 C329 1.238 . S
O333 Co327 2.052 . S
O333 C329 1.241 . S
O334 Co322 2.137 . S
O334 C325 1.247 . S
O335 Co322 2.244 . S
O335 C325 1.272 . S
O335 Co327 2.135 . S
H336 C344 0.950 . S
H337 C349 0.950 . S
H338 C346 0.950 . S
H339 C348 0.950 . S
H340 C350 0.950 . S
H341 C352 0.950 . S
H342 C354 0.950 . S
H343 C355 0.950 . S
C344 H336 0.950 . S
C344 C345 1.386 . S
C344 C346 1.391 . S
C345 C344 1.386 . S
C345 C349 1.393 . S
C346 H338 0.950 . S
C346 C344 1.391 . S
C346 C347 1.400 . S
C347 C346 1.400 . S
C347 C348 1.398 . S
C347 C353 1.491 . S
C348 H339 0.950 . S
C348 C347 1.398 . S
C348 C349 1.391 . S
C349 H337 0.950 . S
C349 C345 1.393 . S
C349 C348 1.391 . S
C350 H340 0.950 . S
C350 C351 1.386 . S
C350 C352 1.391 . S
C351 C350 1.386 . S
C351 C355 1.393 . S
C352 H341 0.950 . S
C352 C350 1.391 . S
C352 C353 1.400 . S
C353 C347 1.491 . S
C353 C352 1.400 . S
C353 C354 1.398 . S
C354 H342 0.950 . S
C354 C353 1.398 . S
C354 C355 1.391 . S
C355 H343 0.950 . S
C355 C351 1.393 . S
C355 C354 1.391 . S
H356 C364 0.950 . S
H357 C369 0.950 . S
H358 C366 0.950 . S
H359 C368 0.950 . S
H360 C370 0.950 . S
H361 C372 0.950 . S
H362 C374 0.950 . S
H363 C375 0.950 . S
C364 H356 0.950 . S
C364 C365 1.386 . S
C364 C366 1.391 . S
C365 C364 1.386 . S
C365 C369 1.393 . S
C366 H358 0.950 . S
C366 C364 1.391 . S
C366 C367 1.400 . S
C367 C366 1.400 . S
C367 C368 1.398 . S
C367 C373 1.491 1_655 S
C368 H359 0.950 . S
C368 C367 1.398 . S
C368 C369 1.391 . S
C369 H357 0.950 . S
C369 C365 1.393 . S
C369 C368 1.391 . S
C370 H360 0.950 . S
C370 C371 1.386 . S
C370 C372 1.391 . S
C371 C370 1.386 . S
C371 C375 1.393 . S
C372 H361 0.950 . S
C372 C370 1.391 . S
C372 C373 1.400 . S
C373 C367 1.491 1_455 S
C373 C372 1.400 . S
C373 C374 1.398 . S
C374 H362 0.950 . S
C374 C373 1.398 . S
C374 C375 1.391 . S
C375 H363 0.950 . S
C375 C371 1.393 . S
C375 C374 1.391 . S
H376 C384 0.950 . S
H377 C389 0.950 . S
H378 C386 0.950 . S
H379 C388 0.950 . S
H380 C390 0.950 . S
H381 C392 0.950 . S
H382 C394 0.950 . S
H383 C395 0.950 . S
C384 H376 0.950 . S
C384 C385 1.386 . S
C384 C386 1.391 . S
C385 C384 1.386 . S
C385 C389 1.393 . S
C386 H378 0.950 . S
C386 C384 1.391 . S
C386 C387 1.400 . S
C387 C386 1.400 . S
C387 C388 1.398 . S
C387 C393 1.491 . S
C388 H379 0.950 . S
C388 C387 1.398 . S
C388 C389 1.391 . S
C389 H377 0.950 . S
C389 C385 1.393 . S
C389 C388 1.391 . S
C390 H380 0.950 . S
C390 C391 1.386 . S
C390 C392 1.391 . S
C391 C390 1.386 . S
C391 C395 1.393 . S
C392 H381 0.950 . S
C392 C390 1.391 . S
C392 C393 1.400 . S
C393 C387 1.491 . S
C393 C392 1.400 . S
C393 C394 1.398 . S
C394 H382 0.950 . S
C394 C393 1.398 . S
C394 C395 1.391 . S
C395 H383 0.950 . S
C395 C391 1.393 . S
C395 C394 1.391 . S
H396 C404 0.950 . S
H397 C409 0.950 . S
H398 C406 0.950 . S
H399 C408 0.950 . S
H400 C410 0.950 . S
H401 C412 0.950 . S
H402 C414 0.950 . S
H403 C415 0.950 . S
C404 H396 0.950 . S
C404 C405 1.386 . S
C404 C406 1.391 . S
C405 C404 1.386 . S
C405 C409 1.393 . S
C406 H398 0.950 . S
C406 C404 1.391 . S
C406 C407 1.400 . S
C407 C406 1.400 . S
C407 C408 1.398 . S
C407 C413 1.491 1_455 S
C408 H399 0.950 . S
C408 C407 1.398 . S
C408 C409 1.391 . S
C409 H397 0.950 . S
C409 C405 1.393 . S
C409 C408 1.391 . S
C410 H400 0.950 . S
C410 C411 1.386 . S
C410 C412 1.391 . S
C411 C410 1.386 . S
C411 C415 1.393 . S
C412 H401 0.950 . S
C412 C410 1.391 . S
C412 C413 1.400 . S
C413 C407 1.491 1_655 S
C413 C412 1.400 . S
C413 C414 1.398 . S
C414 H402 0.950 . S
C414 C413 1.398 . S
C414 C415 1.391 . S
C415 H403 0.950 . S
C415 C411 1.393 . S
C415 C414 1.391 . S
H416 C424 0.950 . S
H417 C429 0.950 . S
H418 C426 0.950 . S
H419 C428 0.950 . S
H420 C430 0.950 . S
H421 C432 0.950 . S
H422 C434 0.950 . S
H423 C435 0.950 . S
C424 H416 0.950 . S
C424 C425 1.386 . S
C424 C426 1.391 . S
C425 C424 1.386 . S
C425 C429 1.393 . S
C426 H418 0.950 . S
C426 C424 1.391 . S
C426 C427 1.400 . S
C427 C426 1.400 . S
C427 C428 1.398 . S
C427 C433 1.491 . S
C428 H419 0.950 . S
C428 C427 1.398 . S
C428 C429 1.391 . S
C429 H417 0.950 . S
C429 C425 1.393 . S
C429 C428 1.391 . S
C430 H420 0.950 . S
C430 C431 1.386 . S
C430 C432 1.391 . S
C431 C430 1.386 . S
C431 C435 1.393 . S
C432 H421 0.950 . S
C432 C430 1.391 . S
C432 C433 1.400 . S
C433 C427 1.491 . S
C433 C432 1.400 . S
C433 C434 1.398 . S
C434 H422 0.950 . S
C434 C433 1.398 . S
C434 C435 1.391 . S
C435 H423 0.950 . S
C435 C431 1.393 . S
C435 C434 1.391 . S
H436 C444 0.950 . S
H437 C449 0.950 . S
H438 C446 0.950 . S
H439 C448 0.950 . S
H440 C450 0.950 . S
H441 C452 0.950 . S
H442 C454 0.950 . S
H443 C455 0.950 . S
C444 H436 0.950 . S
C444 C445 1.386 . S
C444 C446 1.391 . S
C445 C444 1.386 . S
C445 C449 1.393 . S
C446 H438 0.950 . S
C446 C444 1.391 . S
C446 C447 1.400 . S
C447 C446 1.400 . S
C447 C448 1.398 . S
C447 C453 1.491 1_655 S
C448 H439 0.950 . S
C448 C447 1.398 . S
C448 C449 1.391 . S
C449 H437 0.950 . S
C449 C445 1.393 . S
C449 C448 1.391 . S
C450 H440 0.950 . S
C450 C451 1.386 . S
C450 C452 1.391 . S
C451 C450 1.386 . S
C451 C455 1.393 . S
C452 H441 0.950 . S
C452 C450 1.391 . S
C452 C453 1.400 . S
C453 C447 1.491 1_455 S
C453 C452 1.400 . S
C453 C454 1.398 . S
C454 H442 0.950 . S
C454 C453 1.398 . S
C454 C455 1.391 . S
C455 H443 0.950 . S
C455 C451 1.393 . S
C455 C454 1.391 . S
H456 C464 0.950 . S
H457 C469 0.950 . S
H458 C466 0.950 . S
H459 C468 0.950 . S
H460 C470 0.950 . S
H461 C472 0.950 . S
H462 C474 0.950 . S
H463 C475 0.950 . S
C464 H456 0.950 . S
C464 C465 1.386 . S
C464 C466 1.391 . S
C465 C464 1.386 . S
C465 C469 1.393 . S
C466 H458 0.950 . S
C466 C464 1.391 . S
C466 C467 1.400 . S
C467 C466 1.400 . S
C467 C468 1.398 . S
C467 C473 1.491 . S
C468 H459 0.950 . S
C468 C467 1.398 . S
C468 C469 1.391 . S
C469 H457 0.950 . S
C469 C465 1.393 . S
C469 C468 1.391 . S
C470 H460 0.950 . S
C470 C471 1.386 . S
C470 C472 1.391 . S
C471 C470 1.386 . S
C471 C475 1.393 . S
C472 H461 0.950 . S
C472 C470 1.391 . S
C472 C473 1.400 . S
C473 C467 1.491 . S
C473 C472 1.400 . S
C473 C474 1.398 . S
C474 H462 0.950 . S
C474 C473 1.398 . S
C474 C475 1.391 . S
C475 H463 0.950 . S
C475 C471 1.393 . S
C475 C474 1.391 . S
H476 C484 0.950 . S
H477 C489 0.950 . S
H478 C486 0.950 . S
H479 C488 0.950 . S
H480 C490 0.950 . S
H481 C492 0.950 . S
H482 C494 0.950 . S
H483 C495 0.950 . S
C484 H476 0.950 . S
C484 C485 1.386 . S
C484 C486 1.391 . S
C485 C484 1.386 . S
C485 C489 1.393 . S
C486 H478 0.950 . S
C486 C484 1.391 . S
C486 C487 1.400 . S
C487 C486 1.400 . S
C487 C488 1.398 . S
C487 C493 1.491 1_655 S
C488 H479 0.950 . S
C488 C487 1.398 . S
C488 C489 1.391 . S
C489 H477 0.950 . S
C489 C485 1.393 . S
C489 C488 1.391 . S
C490 H480 0.950 . S
C490 C491 1.386 . S
C490 C492 1.391 . S
C491 C490 1.386 . S
C491 C495 1.393 . S
C492 H481 0.950 . S
C492 C490 1.391 . S
C492 C493 1.400 . S
C493 C487 1.491 1_455 S
C493 C492 1.400 . S
C493 C494 1.398 . S
C494 H482 0.950 . S
C494 C493 1.398 . S
C494 C495 1.391 . S
C495 H483 0.950 . S
C495 C491 1.393 . S
C495 C494 1.391 . S
H496 C504 0.950 . S
H497 C509 0.950 . S
H498 C506 0.950 . S
H499 C508 0.950 . S
H500 C510 0.950 . S
H501 C512 0.950 . S
H502 C514 0.950 . S
H503 C515 0.950 . S
C504 H496 0.950 . S
C504 C505 1.386 . S
C504 C506 1.391 . S
C505 C504 1.386 . S
C505 C509 1.393 . S
C506 H498 0.950 . S
C506 C504 1.391 . S
C506 C507 1.400 . S
C507 C506 1.400 . S
C507 C508 1.398 . S
C507 C513 1.491 . S
C508 H499 0.950 . S
C508 C507 1.398 . S
C508 C509 1.391 . S
C509 H497 0.950 . S
C509 C505 1.393 . S
C509 C508 1.391 . S
C510 H500 0.950 . S
C510 C511 1.386 . S
C510 C512 1.391 . S
C511 C510 1.386 . S
C511 C515 1.393 . S
C512 H501 0.950 . S
C512 C510 1.391 . S
C512 C513 1.400 . S
C513 C507 1.491 . S
C513 C512 1.400 . S
C513 C514 1.398 . S
C514 H502 0.950 . S
C514 C513 1.398 . S
C514 C515 1.391 . S
C515 H503 0.950 . S
C515 C511 1.393 . S
C515 C514 1.391 . S
H516 C524 0.950 . S
H517 C529 0.950 . S
H518 C526 0.950 . S
H519 C528 0.950 . S
H520 C530 0.950 . S
H521 C532 0.950 . S
H522 C534 0.950 . S
H523 C535 0.950 . S
C524 H516 0.950 . S
C524 C525 1.386 . S
C524 C526 1.391 . S
C525 C524 1.386 . S
C525 C529 1.393 . S
C526 H518 0.950 . S
C526 C524 1.391 . S
C526 C527 1.400 . S
C527 C526 1.400 . S
C527 C528 1.398 . S
C527 C533 1.491 1_556 S
C528 H519 0.950 . S
C528 C527 1.398 . S
C528 C529 1.391 . S
C529 H517 0.950 . S
C529 C525 1.393 . S
C529 C528 1.391 . S
C530 H520 0.950 . S
C530 C531 1.386 . S
C530 C532 1.391 . S
C531 C530 1.386 . S
C531 C535 1.393 . S
C532 H521 0.950 . S
C532 C530 1.391 . S
C532 C533 1.400 . S
C533 C527 1.491 1_554 S
C533 C532 1.400 . S
C533 C534 1.398 . S
C534 H522 0.950 . S
C534 C533 1.398 . S
C534 C535 1.391 . S
C535 H523 0.950 . S
C535 C531 1.393 . S
C535 C534 1.391 . S
H536 C544 0.950 . S
H537 C549 0.950 . S
H538 C546 0.950 . S
H539 C548 0.950 . S
H540 C550 0.950 . S
H541 C552 0.950 . S
H542 C554 0.950 . S
H543 C555 0.950 . S
C544 H536 0.950 . S
C544 C545 1.386 . S
C544 C546 1.391 . S
C545 C544 1.386 . S
C545 C549 1.393 . S
C546 H538 0.950 . S
C546 C544 1.391 . S
C546 C547 1.400 . S
C547 C546 1.400 . S
C547 C548 1.398 . S
C547 C553 1.491 . S
C548 H539 0.950 . S
C548 C547 1.398 . S
C548 C549 1.391 . S
C549 H537 0.950 . S
C549 C545 1.393 . S
C549 C548 1.391 . S
C550 H540 0.950 . S
C550 C551 1.386 . S
C550 C552 1.391 . S
C551 C550 1.386 . S
C551 C555 1.393 . S
C552 H541 0.950 . S
C552 C550 1.391 . S
C552 C553 1.400 . S
C553 C547 1.491 . S
C553 C552 1.400 . S
C553 C554 1.398 . S
C554 H542 0.950 . S
C554 C553 1.398 . S
C554 C555 1.391 . S
C555 H543 0.950 . S
C555 C551 1.393 . S
C555 C554 1.391 . S
H556 C564 0.950 . S
H557 C569 0.950 . S
H558 C566 0.950 . S
H559 C568 0.950 . S
H560 C570 0.950 . S
H561 C572 0.950 . S
H562 C574 0.950 . S
H563 C575 0.950 . S
C564 H556 0.950 . S
C564 C565 1.386 . S
C564 C566 1.391 . S
C565 C564 1.386 . S
C565 C569 1.393 . S
C566 H558 0.950 . S
C566 C564 1.391 . S
C566 C567 1.400 . S
C567 C566 1.400 . S
C567 C568 1.398 . S
C567 C573 1.491 1_554 S
C568 H559 0.950 . S
C568 C567 1.398 . S
C568 C569 1.391 . S
C569 H557 0.950 . S
C569 C565 1.393 . S
C569 C568 1.391 . S
C570 H560 0.950 . S
C570 C571 1.386 . S
C570 C572 1.391 . S
C571 C570 1.386 . S
C571 C575 1.393 . S
C572 H561 0.950 . S
C572 C570 1.391 . S
C572 C573 1.400 . S
C573 C567 1.491 1_556 S
C573 C572 1.400 . S
C573 C574 1.398 . S
C574 H562 0.950 . S
C574 C573 1.398 . S
C574 C575 1.391 . S
C575 H563 0.950 . S
C575 C571 1.393 . S
C575 C574 1.391 . S
H576 C584 0.950 . S
H577 C589 0.950 . S
H578 C586 0.950 . S
H579 C588 0.950 . S
H580 C590 0.950 . S
H581 C592 0.950 . S
H582 C594 0.950 . S
H583 C595 0.950 . S
C584 H576 0.950 . S
C584 C585 1.386 . S
C584 C586 1.391 . S
C585 C584 1.386 . S
C585 C589 1.393 . S
C586 H578 0.950 . S
C586 C584 1.391 . S
C586 C587 1.400 . S
C587 C586 1.400 . S
C587 C588 1.398 . S
C587 C593 1.491 . S
C588 H579 0.950 . S
C588 C587 1.398 . S
C588 C589 1.391 . S
C589 H577 0.950 . S
C589 C585 1.393 . S
C589 C588 1.391 . S
C590 H580 0.950 . S
C590 C591 1.386 . S
C590 C592 1.391 . S
C591 C590 1.386 . S
C591 C595 1.393 . S
C592 H581 0.950 . S
C592 C590 1.391 . S
C592 C593 1.400 . S
C593 C587 1.491 . S
C593 C592 1.400 . S
C593 C594 1.398 . S
C594 H582 0.950 . S
C594 C593 1.398 . S
C594 C595 1.391 . S
C595 H583 0.950 . S
C595 C591 1.393 . S
C595 C594 1.391 . S
H596 C604 0.950 . S
H597 C609 0.950 . S
H598 C606 0.950 . S
H599 C608 0.950 . S
H600 C610 0.950 . S
H601 C612 0.950 . S
H602 C614 0.950 . S
H603 C615 0.950 . S
C604 H596 0.950 . S
C604 C605 1.386 . S
C604 C606 1.391 . S
C605 C604 1.386 . S
C605 C609 1.393 . S
C606 H598 0.950 . S
C606 C604 1.391 . S
C606 C607 1.400 . S
C607 C606 1.400 . S
C607 C608 1.398 . S
C607 C613 1.491 1_554 S
C608 H599 0.950 . S
C608 C607 1.398 . S
C608 C609 1.391 . S
C609 H597 0.950 . S
C609 C605 1.393 . S
C609 C608 1.391 . S
C610 H600 0.950 . S
C610 C611 1.386 . S
C610 C612 1.391 . S
C611 C610 1.386 . S
C611 C615 1.393 . S
C612 H601 0.950 . S
C612 C610 1.391 . S
C612 C613 1.400 . S
C613 C607 1.491 1_556 S
C613 C612 1.400 . S
C613 C614 1.398 . S
C614 H602 0.950 . S
C614 C613 1.398 . S
C614 C615 1.391 . S
C615 H603 0.950 . S
C615 C611 1.393 . S
C615 C614 1.391 . S
H616 C624 0.950 . S
H617 C629 0.950 . S
H618 C626 0.950 . S
H619 C628 0.950 . S
H620 C630 0.950 . S
H621 C632 0.950 . S
H622 C634 0.950 . S
H623 C635 0.950 . S
C624 H616 0.950 . S
C624 C625 1.386 . S
C624 C626 1.391 . S
C625 C624 1.386 . S
C625 C629 1.393 . S
C626 H618 0.950 . S
C626 C624 1.391 . S
C626 C627 1.400 . S
C627 C626 1.400 . S
C627 C628 1.398 . S
C627 C633 1.491 . S
C628 H619 0.950 . S
C628 C627 1.398 . S
C628 C629 1.391 . S
C629 H617 0.950 . S
C629 C625 1.393 . S
C629 C628 1.391 . S
C630 H620 0.950 . S
C630 C631 1.386 . S
C630 C632 1.391 . S
C631 C630 1.386 . S
C631 C635 1.393 . S
C632 H621 0.950 . S
C632 C630 1.391 . S
C632 C633 1.400 . S
C633 C627 1.491 . S
C633 C632 1.400 . S
C633 C634 1.398 . S
C634 H622 0.950 . S
C634 C633 1.398 . S
C634 C635 1.391 . S
C635 H623 0.950 . S
C635 C631 1.393 . S
C635 C634 1.391 . S
H636 C644 0.950 . S
H637 C649 0.950 . S
H638 C646 0.950 . S
H639 C648 0.950 . S
H640 C650 0.950 . S
H641 C652 0.950 . S
H642 C654 0.950 . S
H643 C655 0.950 . S
C644 H636 0.950 . S
C644 C645 1.386 . S
C644 C646 1.391 . S
C645 C644 1.386 . S
C645 C649 1.393 . S
C646 H638 0.950 . S
C646 C644 1.391 . S
C646 C647 1.400 . S
C647 C646 1.400 . S
C647 C648 1.398 . S
C647 C653 1.491 1_554 S
C648 H639 0.950 . S
C648 C647 1.398 . S
C648 C649 1.391 . S
C649 H637 0.950 . S
C649 C645 1.393 . S
C649 C648 1.391 . S
C650 H640 0.950 . S
C650 C651 1.386 . S
C650 C652 1.391 . S
C651 C650 1.386 . S
C651 C655 1.393 . S
C652 H641 0.950 . S
C652 C650 1.391 . S
C652 C653 1.400 . S
C653 C647 1.491 1_556 S
C653 C652 1.400 . S
C653 C654 1.398 . S
C654 H642 0.950 . S
C654 C653 1.398 . S
C654 C655 1.391 . S
C655 H643 0.950 . S
C655 C651 1.393 . S
C655 C654 1.391 . S
H656 C664 0.950 . S
H657 C669 0.950 . S
H658 C666 0.950 . S
H659 C668 0.950 . S
H660 C670 0.950 . S
H661 C672 0.950 . S
H662 C674 0.950 . S
H663 C675 0.950 . S
C664 H656 0.950 . S
C664 C665 1.386 . S
C664 C666 1.391 . S
C665 C664 1.386 . S
C665 C669 1.393 . S
C666 H658 0.950 . S
C666 C664 1.391 . S
C666 C667 1.400 . S
C667 C666 1.400 . S
C667 C668 1.398 . S
C667 C673 1.491 . S
C668 H659 0.950 . S
C668 C667 1.398 . S
C668 C669 1.391 . S
C669 H657 0.950 . S
C669 C665 1.393 . S
C669 C668 1.391 . S
C670 H660 0.950 . S
C670 C671 1.386 . S
C670 C672 1.391 . S
C671 C670 1.386 . S
C671 C675 1.393 . S
C672 H661 0.950 . S
C672 C670 1.391 . S
C672 C673 1.400 . S
C673 C667 1.491 . S
C673 C672 1.400 . S
C673 C674 1.398 . S
C674 H662 0.950 . S
C674 C673 1.398 . S
C674 C675 1.391 . S
C675 H663 0.950 . S
C675 C671 1.393 . S
C675 C674 1.391 . S
H676 C684 0.950 . S
H677 C689 0.950 . S
H678 C686 0.950 . S
H679 C688 0.950 . S
H680 C690 0.950 . S
H681 C692 0.950 . S
H682 C694 0.950 . S
H683 C695 0.950 . S
C684 H676 0.950 . S
C684 C685 1.386 . S
C684 C686 1.391 . S
C685 C684 1.386 . S
C685 C689 1.393 . S
C686 H678 0.950 . S
C686 C684 1.391 . S
C686 C687 1.400 . S
C687 C686 1.400 . S
C687 C688 1.398 . S
C687 C693 1.491 . S
C688 H679 0.950 . S
C688 C687 1.398 . S
C688 C689 1.391 . S
C689 H677 0.950 . S
C689 C685 1.393 . S
C689 C688 1.391 . S
C690 H680 0.950 . S
C690 C691 1.386 . S
C690 C692 1.391 . S
C691 C690 1.386 . S
C691 C695 1.393 . S
C692 H681 0.950 . S
C692 C690 1.391 . S
C692 C693 1.400 . S
C693 C687 1.491 . S
C693 C692 1.400 . S
C693 C694 1.398 . S
C694 H682 0.950 . S
C694 C693 1.398 . S
C694 C695 1.391 . S
C695 H683 0.950 . S
C695 C691 1.393 . S
C695 C694 1.391 . S
H696 C704 0.950 . S
H697 C709 0.950 . S
H698 C706 0.950 . S
H699 C708 0.950 . S
H700 C710 0.950 . S
H701 C712 0.950 . S
H702 C714 0.950 . S
H703 C715 0.950 . S
C704 H696 0.950 . S
C704 C705 1.386 . S
C704 C706 1.391 . S
C705 C704 1.386 . S
C705 C709 1.393 . S
C706 H698 0.950 . S
C706 C704 1.391 . S
C706 C707 1.400 . S
C707 C706 1.400 . S
C707 C708 1.398 . S
C707 C713 1.491 1_565 S
C708 H699 0.950 . S
C708 C707 1.398 . S
C708 C709 1.391 . S
C709 H697 0.950 . S
C709 C705 1.393 . S
C709 C708 1.391 . S
C710 H700 0.950 . S
C710 C711 1.386 . S
C710 C712 1.391 . S
C711 C710 1.386 . S
C711 C715 1.393 . S
C712 H701 0.950 . S
C712 C710 1.391 . S
C712 C713 1.400 . S
C713 C707 1.491 1_545 S
C713 C712 1.400 . S
C713 C714 1.398 . S
C714 H702 0.950 . S
C714 C713 1.398 . S
C714 C715 1.391 . S
C715 H703 0.950 . S
C715 C711 1.393 . S
C715 C714 1.391 . S
H716 C724 0.950 . S
H717 C729 0.950 . S
H718 C726 0.950 . S
H719 C728 0.950 . S
H720 C730 0.950 . S
H721 C732 0.950 . S
H722 C734 0.950 . S
H723 C735 0.950 . S
C724 H716 0.950 . S
C724 C725 1.386 . S
C724 C726 1.391 . S
C725 C724 1.386 . S
C725 C729 1.393 . S
C726 H718 0.950 . S
C726 C724 1.391 . S
C726 C727 1.400 . S
C727 C726 1.400 . S
C727 C728 1.398 . S
C727 C733 1.491 . S
C728 H719 0.950 . S
C728 C727 1.398 . S
C728 C729 1.391 . S
C729 H717 0.950 . S
C729 C725 1.393 . S
C729 C728 1.391 . S
C730 H720 0.950 . S
C730 C731 1.386 . S
C730 C732 1.391 . S
C731 C730 1.386 . S
C731 C735 1.393 . S
C732 H721 0.950 . S
C732 C730 1.391 . S
C732 C733 1.400 . S
C733 C727 1.491 . S
C733 C732 1.400 . S
C733 C734 1.398 . S
C734 H722 0.950 . S
C734 C733 1.398 . S
C734 C735 1.391 . S
C735 H723 0.950 . S
C735 C731 1.393 . S
C735 C734 1.391 . S
H736 C744 0.950 . S
H737 C749 0.950 . S
H738 C746 0.950 . S
H739 C748 0.950 . S
H740 C750 0.950 . S
H741 C752 0.950 . S
H742 C754 0.950 . S
H743 C755 0.950 . S
C744 H736 0.950 . S
C744 C745 1.386 . S
C744 C746 1.391 . S
C745 C744 1.386 . S
C745 C749 1.393 . S
C746 H738 0.950 . S
C746 C744 1.391 . S
C746 C747 1.400 . S
C747 C746 1.400 . S
C747 C748 1.398 . S
C747 C753 1.491 1_565 S
C748 H739 0.950 . S
C748 C747 1.398 . S
C748 C749 1.391 . S
C749 H737 0.950 . S
C749 C745 1.393 . S
C749 C748 1.391 . S
C750 H740 0.950 . S
C750 C751 1.386 . S
C750 C752 1.391 . S
C751 C750 1.386 . S
C751 C755 1.393 . S
C752 H741 0.950 . S
C752 C750 1.391 . S
C752 C753 1.400 . S
C753 C747 1.491 1_545 S
C753 C752 1.400 . S
C753 C754 1.398 . S
C754 H742 0.950 . S
C754 C753 1.398 . S
C754 C755 1.391 . S
C755 H743 0.950 . S
C755 C751 1.393 . S
C755 C754 1.391 . S
H756 C764 0.950 . S
H757 C769 0.950 . S
H758 C766 0.950 . S
H759 C768 0.950 . S
H760 C770 0.950 . S
H761 C772 0.950 . S
H762 C774 0.950 . S
H763 C775 0.950 . S
C764 H756 0.950 . S
C764 C765 1.386 . S
C764 C766 1.391 . S
C765 C764 1.386 . S
C765 C769 1.393 . S
C766 H758 0.950 . S
C766 C764 1.391 . S
C766 C767 1.400 . S
C767 C766 1.400 . S
C767 C768 1.398 . S
C767 C773 1.491 . S
C768 H759 0.950 . S
C768 C767 1.398 . S
C768 C769 1.391 . S
C769 H757 0.950 . S
C769 C765 1.393 . S
C769 C768 1.391 . S
C770 H760 0.950 . S
C770 C771 1.386 . S
C770 C772 1.391 . S
C771 C770 1.386 . S
C771 C775 1.393 . S
C772 H761 0.950 . S
C772 C770 1.391 . S
C772 C773 1.400 . S
C773 C767 1.491 . S
C773 C772 1.400 . S
C773 C774 1.398 . S
C774 H762 0.950 . S
C774 C773 1.398 . S
C774 C775 1.391 . S
C775 H763 0.950 . S
C775 C771 1.393 . S
C775 C774 1.391 . S
H776 C784 0.950 . S
H777 C789 0.950 . S
H778 C786 0.950 . S
H779 C788 0.950 . S
H780 C790 0.950 . S
H781 C792 0.950 . S
H782 C794 0.950 . S
H783 C795 0.950 . S
C784 H776 0.950 . S
C784 C785 1.386 . S
C784 C786 1.391 . S
C785 C784 1.386 . S
C785 C789 1.393 . S
C786 H778 0.950 . S
C786 C784 1.391 . S
C786 C787 1.400 . S
C787 C786 1.400 . S
C787 C788 1.398 . S
C787 C793 1.491 1_565 S
C788 H779 0.950 . S
C788 C787 1.398 . S
C788 C789 1.391 . S
C789 H777 0.950 . S
C789 C785 1.393 . S
C789 C788 1.391 . S
C790 H780 0.950 . S
C790 C791 1.386 . S
C790 C792 1.391 . S
C791 C790 1.386 . S
C791 C795 1.393 . S
C792 H781 0.950 . S
C792 C790 1.391 . S
C792 C793 1.400 . S
C793 C787 1.491 1_545 S
C793 C792 1.400 . S
C793 C794 1.398 . S
C794 H782 0.950 . S
C794 C793 1.398 . S
C794 C795 1.391 . S
C795 H783 0.950 . S
C795 C791 1.393 . S
C795 C794 1.391 . S
H796 C804 0.950 . S
H797 C809 0.950 . S
H798 C806 0.950 . S
H799 C808 0.950 . S
H800 C810 0.950 . S
H801 C812 0.950 . S
H802 C814 0.950 . S
H803 C815 0.950 . S
C804 H796 0.950 . S
C804 C805 1.386 . S
C804 C806 1.391 . S
C805 C804 1.386 . S
C805 C809 1.393 . S
C806 H798 0.950 . S
C806 C804 1.391 . S
C806 C807 1.400 . S
C807 C806 1.400 . S
C807 C808 1.398 . S
C807 C813 1.491 1_545 S
C808 H799 0.950 . S
C808 C807 1.398 . S
C808 C809 1.391 . S
C809 H797 0.950 . S
C809 C805 1.393 . S
C809 C808 1.391 . S
C810 H800 0.950 . S
C810 C811 1.386 . S
C810 C812 1.391 . S
C811 C810 1.386 . S
C811 C815 1.393 . S
C812 H801 0.950 . S
C812 C810 1.391 . S
C812 C813 1.400 . S
C813 C807 1.491 1_565 S
C813 C812 1.400 . S
C813 C814 1.398 . S
C814 H802 0.950 . S
C814 C813 1.398 . S
C814 C815 1.391 . S
C815 H803 0.950 . S
C815 C811 1.393 . S
C815 C814 1.391 . S
H816 C824 0.950 . S
H817 C829 0.950 . S
H818 C826 0.950 . S
H819 C828 0.950 . S
H820 C830 0.950 . S
H821 C832 0.950 . S
H822 C834 0.950 . S
H823 C835 0.950 . S
C824 H816 0.950 . S
C824 C825 1.386 . S
C824 C826 1.391 . S
C825 C824 1.386 . S
C825 C829 1.393 . S
C826 H818 0.950 . S
C826 C824 1.391 . S
C826 C827 1.400 . S
C827 C826 1.400 . S
C827 C828 1.398 . S
C827 C833 1.491 . S
C828 H819 0.950 . S
C828 C827 1.398 . S
C828 C829 1.391 . S
C829 H817 0.950 . S
C829 C825 1.393 . S
C829 C828 1.391 . S
C830 H820 0.950 . S
C830 C831 1.386 . S
C830 C832 1.391 . S
C831 C830 1.386 . S
C831 C835 1.393 . S
C832 H821 0.950 . S
C832 C830 1.391 . S
C832 C833 1.400 . S
C833 C827 1.491 . S
C833 C832 1.400 . S
C833 C834 1.398 . S
C834 H822 0.950 . S
C834 C833 1.398 . S
C834 C835 1.391 . S
C835 H823 0.950 . S
C835 C831 1.393 . S
C835 C834 1.391 . S
H836 C844 0.950 . S
H837 C849 0.950 . S
H838 C846 0.950 . S
H839 C848 0.950 . S
H840 C850 0.950 . S
H841 C852 0.950 . S
H842 C854 0.950 . S
H843 C855 0.950 . S
C844 H836 0.950 . S
C844 C845 1.386 . S
C844 C846 1.391 . S
C845 C844 1.386 . S
C845 C849 1.393 . S
C846 H838 0.950 . S
C846 C844 1.391 . S
C846 C847 1.400 . S
C847 C846 1.400 . S
C847 C848 1.398 . S
C847 C853 1.491 . S
C848 H839 0.950 . S
C848 C847 1.398 . S
C848 C849 1.391 . S
C849 H837 0.950 . S
C849 C845 1.393 . S
C849 C848 1.391 . S
C850 H840 0.950 . S
C850 C851 1.386 . S
C850 C852 1.391 . S
C851 C850 1.386 . S
C851 C855 1.393 . S
C852 H841 0.950 . S
C852 C850 1.391 . S
C852 C853 1.400 . S
C853 C847 1.491 . S
C853 C852 1.400 . S
C853 C854 1.398 . S
C854 H842 0.950 . S
C854 C853 1.398 . S
C854 C855 1.391 . S
C855 H843 0.950 . S
C855 C851 1.393 . S
C855 C854 1.391 . S
H856 C864 0.950 . S
H857 C869 0.950 . S
H858 C866 0.950 . S
H859 C868 0.950 . S
H860 C870 0.950 . S
H861 C872 0.950 . S
H862 C874 0.950 . S
H863 C875 0.950 . S
C864 H856 0.950 . S
C864 C865 1.386 . S
C864 C866 1.391 . S
C865 C864 1.386 . S
C865 C869 1.393 . S
C866 H858 0.950 . S
C866 C864 1.391 . S
C866 C867 1.400 . S
C867 C866 1.400 . S
C867 C868 1.398 . S
C867 C873 1.491 . S
C868 H859 0.950 . S
C868 C867 1.398 . S
C868 C869 1.391 . S
C869 H857 0.950 . S
C869 C865 1.393 . S
C869 C868 1.391 . S
C870 H860 0.950 . S
C870 C871 1.386 . S
C870 C872 1.391 . S
C871 C870 1.386 . S
C871 C875 1.393 . S
C872 H861 0.950 . S
C872 C870 1.391 . S
C872 C873 1.400 . S
C873 C867 1.491 . S
C873 C872 1.400 . S
C873 C874 1.398 . S
C874 H862 0.950 . S
C874 C873 1.398 . S
C874 C875 1.391 . S
C875 H863 0.950 . S
C875 C871 1.393 . S
C875 C874 1.391 . S
H876 C884 0.950 . S
H877 C889 0.950 . S
H878 C886 0.950 . S
H879 C888 0.950 . S
H880 C890 0.950 . S
H881 C892 0.950 . S
H882 C894 0.950 . S
H883 C895 0.950 . S
C884 H876 0.950 . S
C884 C885 1.386 . S
C884 C886 1.391 . S
C885 C884 1.386 . S
C885 C889 1.393 . S
C886 H878 0.950 . S
C886 C884 1.391 . S
C886 C887 1.400 . S
C887 C886 1.400 . S
C887 C888 1.398 . S
C887 C893 1.491 . S
C888 H879 0.950 . S
C888 C887 1.398 . S
C888 C889 1.391 . S
C889 H877 0.950 . S
C889 C885 1.393 . S
C889 C888 1.391 . S
C890 H880 0.950 . S
C890 C891 1.386 . S
C890 C892 1.391 . S
C891 C890 1.386 . S
C891 C895 1.393 . S
C892 H881 0.950 . S
C892 C890 1.391 . S
C892 C893 1.400 . S
C893 C887 1.491 . S
C893 C892 1.400 . S
C893 C894 1.398 . S
C894 H882 0.950 . S
C894 C893 1.398 . S
C894 C895 1.391 . S
C895 H883 0.950 . S
C895 C891 1.393 . S
C895 C894 1.391 . S
H896 C904 0.950 . S
H897 C909 0.950 . S
H898 C906 0.950 . S
H899 C908 0.950 . S
H900 C910 0.950 . S
H901 C912 0.950 . S
H902 C914 0.950 . S
H903 C915 0.950 . S
C904 H896 0.950 . S
C904 C905 1.386 . S
C904 C906 1.391 . S
C905 C904 1.386 . S
C905 C909 1.393 . S
C906 H898 0.950 . S
C906 C904 1.391 . S
C906 C907 1.400 . S
C907 C906 1.400 . S
C907 C908 1.398 . S
C907 C913 1.491 . S
C908 H899 0.950 . S
C908 C907 1.398 . S
C908 C909 1.391 . S
C909 H897 0.950 . S
C909 C905 1.393 . S
C909 C908 1.391 . S
C910 H900 0.950 . S
C910 C911 1.386 . S
C910 C912 1.391 . S
C911 C910 1.386 . S
C911 C915 1.393 . S
C912 H901 0.950 . S
C912 C910 1.391 . S
C912 C913 1.400 . S
C913 C907 1.491 . S
C913 C912 1.400 . S
C913 C914 1.398 . S
C914 H902 0.950 . S
C914 C913 1.398 . S
C914 C915 1.391 . S
C915 H903 0.950 . S
C915 C911 1.393 . S
C915 C914 1.391 . S
H916 C924 0.950 . S
H917 C929 0.950 . S
H918 C926 0.950 . S
H919 C928 0.950 . S
H920 C930 0.950 . S
H921 C932 0.950 . S
H922 C934 0.950 . S
H923 C935 0.950 . S
C924 H916 0.950 . S
C924 C925 1.386 . S
C924 C926 1.391 . S
C925 C924 1.386 . S
C925 C929 1.393 . S
C926 H918 0.950 . S
C926 C924 1.391 . S
C926 C927 1.400 . S
C927 C926 1.400 . S
C927 C928 1.398 . S
C927 C933 1.491 . S
C928 H919 0.950 . S
C928 C927 1.398 . S
C928 C929 1.391 . S
C929 H917 0.950 . S
C929 C925 1.393 . S
C929 C928 1.391 . S
C930 H920 0.950 . S
C930 C931 1.386 . S
C930 C932 1.391 . S
C931 C930 1.386 . S
C931 C935 1.393 . S
C932 H921 0.950 . S
C932 C930 1.391 . S
C932 C933 1.400 . S
C933 C927 1.491 . S
C933 C932 1.400 . S
C933 C934 1.398 . S
C934 H922 0.950 . S
C934 C933 1.398 . S
C934 C935 1.391 . S
C935 H923 0.950 . S
C935 C931 1.393 . S
C935 C934 1.391 . S
H936 C944 0.950 . S
H937 C949 0.950 . S
H938 C946 0.950 . S
H939 C948 0.950 . S
H940 C950 0.950 . S
H941 C952 0.950 . S
H942 C954 0.950 . S
H943 C955 0.950 . S
C944 H936 0.950 . S
C944 C945 1.386 . S
C944 C946 1.391 . S
C945 C944 1.386 . S
C945 C949 1.393 . S
C946 H938 0.950 . S
C946 C944 1.391 . S
C946 C947 1.400 . S
C947 C946 1.400 . S
C947 C948 1.398 . S
C947 C953 1.491 . S
C948 H939 0.950 . S
C948 C947 1.398 . S
C948 C949 1.391 . S
C949 H937 0.950 . S
C949 C945 1.393 . S
C949 C948 1.391 . S
C950 H940 0.950 . S
C950 C951 1.386 . S
C950 C952 1.391 . S
C951 C950 1.386 . S
C951 C955 1.393 . S
C952 H941 0.950 . S
C952 C950 1.391 . S
C952 C953 1.400 . S
C953 C947 1.491 . S
C953 C952 1.400 . S
C953 C954 1.398 . S
C954 H942 0.950 . S
C954 C953 1.398 . S
C954 C955 1.391 . S
C955 H943 0.950 . S
C955 C951 1.393 . S
C955 C954 1.391 . S
H956 C964 0.950 . S
H957 C969 0.950 . S
H958 C966 0.950 . S
H959 C968 0.950 . S
H960 C970 0.950 . S
H961 C972 0.950 . S
H962 C974 0.950 . S
H963 C975 0.950 . S
C964 H956 0.950 . S
C964 C965 1.386 . S
C964 C966 1.391 . S
C965 C964 1.386 . S
C965 C969 1.393 . S
C966 H958 0.950 . S
C966 C964 1.391 . S
C966 C967 1.400 . S
C967 C966 1.400 . S
C967 C968 1.398 . S
C967 C973 1.491 . S
C968 H959 0.950 . S
C968 C967 1.398 . S
C968 C969 1.391 . S
C969 H957 0.950 . S
C969 C965 1.393 . S
C969 C968 1.391 . S
C970 H960 0.950 . S
C970 C971 1.386 . S
C970 C972 1.391 . S
C971 C970 1.386 . S
C971 C975 1.393 . S
C972 H961 0.950 . S
C972 C970 1.391 . S
C972 C973 1.400 . S
C973 C967 1.491 . S
C973 C972 1.400 . S
C973 C974 1.398 . S
C974 H962 0.950 . S
C974 C973 1.398 . S
C974 C975 1.391 . S
C975 H963 0.950 . S
C975 C971 1.393 . S
C975 C974 1.391 . S
H976 C984 0.950 . S
H977 C989 0.950 . S
H978 C986 0.950 . S
H979 C988 0.950 . S
H980 C990 0.950 . S
H981 C992 0.950 . S
H982 C994 0.950 . S
H983 C995 0.950 . S
C984 H976 0.950 . S
C984 C985 1.386 . S
C984 C986 1.391 . S
C985 C984 1.386 . S
C985 C989 1.393 . S
C986 H978 0.950 . S
C986 C984 1.391 . S
C986 C987 1.400 . S
C987 C986 1.400 . S
C987 C988 1.398 . S
C987 C993 1.491 . S
C988 H979 0.950 . S
C988 C987 1.398 . S
C988 C989 1.391 . S
C989 H977 0.950 . S
C989 C985 1.393 . S
C989 C988 1.391 . S
C990 H980 0.950 . S
C990 C991 1.386 . S
C990 C992 1.391 . S
C991 C990 1.386 . S
C991 C995 1.393 . S
C992 H981 0.950 . S
C992 C990 1.391 . S
C992 C993 1.400 . S
C993 C987 1.491 . S
C993 C992 1.400 . S
C993 C994 1.398 . S
C994 H982 0.950 . S
C994 C993 1.398 . S
C994 C995 1.391 . S
C995 H983 0.950 . S
C995 C991 1.393 . S
C995 C994 1.391 . S
H996 C1004 0.950 . S
H997 C1009 0.950 . S
H998 C1006 0.950 . S
H999 C1008 0.950 . S
H1000 C1010 0.950 . S
H1001 C1012 0.950 . S
H1002 C1014 0.950 . S
H1003 C1015 0.950 . S
C1004 H996 0.950 . S
C1004 C1005 1.386 . S
C1004 C1006 1.391 . S
C1005 C1004 1.386 . S
C1005 C1009 1.393 . S
C1006 H998 0.950 . S
C1006 C1004 1.391 . S
C1006 C1007 1.400 . S
C1007 C1006 1.400 . S
C1007 C1008 1.398 . S
C1007 C1013 1.491 . S
C1008 H999 0.950 . S
C1008 C1007 1.398 . S
C1008 C1009 1.391 . S
C1009 H997 0.950 . S
C1009 C1005 1.393 . S
C1009 C1008 1.391 . S
C1010 H1000 0.950 . S
C1010 C1011 1.386 . S
C1010 C1012 1.391 . S
C1011 C1010 1.386 . S
C1011 C1015 1.393 . S
C1012 H1001 0.950 . S
C1012 C1010 1.391 . S
C1012 C1013 1.400 . S
C1013 C1007 1.491 . S
C1013 C1012 1.400 . S
C1013 C1014 1.398 . S
C1014 H1002 0.950 . S
C1014 C1013 1.398 . S
C1014 C1015 1.391 . S
C1015 H1003 0.950 . S
C1015 C1011 1.393 . S
C1015 C1014 1.391 . S
H1016 C1024 0.950 . S
H1017 C1029 0.950 . S
H1018 C1026 0.950 . S
H1019 C1028 0.950 . S
H1020 C1030 0.950 . S
H1021 C1032 0.950 . S
H1022 C1034 0.950 . S
H1023 C1035 0.950 . S
C1024 H1016 0.950 . S
C1024 C1025 1.386 . S
C1024 C1026 1.391 . S
C1025 C1024 1.386 . S
C1025 C1029 1.393 . S
C1026 H1018 0.950 . S
C1026 C1024 1.391 . S
C1026 C1027 1.400 . S
C1027 C1026 1.400 . S
C1027 C1028 1.398 . S
C1027 C1033 1.491 . S
C1028 H1019 0.950 . S
C1028 C1027 1.398 . S
C1028 C1029 1.391 . S
C1029 H1017 0.950 . S
C1029 C1025 1.393 . S
C1029 C1028 1.391 . S
C1030 H1020 0.950 . S
C1030 C1031 1.386 . S
C1030 C1032 1.391 . S
C1031 C1030 1.386 . S
C1031 C1035 1.393 . S
C1032 H1021 0.950 . S
C1032 C1030 1.391 . S
C1032 C1033 1.400 . S
C1033 C1027 1.491 . S
C1033 C1032 1.400 . S
C1033 C1034 1.398 . S
C1034 H1022 0.950 . S
C1034 C1033 1.398 . S
C1034 C1035 1.391 . S
C1035 H1023 0.950 . S
C1035 C1031 1.393 . S
C1035 C1034 1.391 . S
H1036 C1044 0.950 . S
H1037 C1049 0.950 . S
H1038 C1046 0.950 . S
H1039 C1048 0.950 . S
H1040 C1050 0.950 . S
H1041 C1052 0.950 . S
H1042 C1054 0.950 . S
H1043 C1055 0.950 . S
C1044 H1036 0.950 . S
C1044 C1045 1.386 . S
C1044 C1046 1.391 . S
C1045 C1044 1.386 . S
C1045 C1049 1.393 . S
C1046 H1038 0.950 . S
C1046 C1044 1.391 . S
C1046 C1047 1.400 . S
C1047 C1046 1.400 . S
C1047 C1048 1.398 . S
C1047 C1053 1.491 . S
C1048 H1039 0.950 . S
C1048 C1047 1.398 . S
C1048 C1049 1.391 . S
C1049 H1037 0.950 . S
C1049 C1045 1.393 . S
C1049 C1048 1.391 . S
C1050 H1040 0.950 . S
C1050 C1051 1.386 . S
C1050 C1052 1.391 . S
C1051 C1050 1.386 . S
C1051 C1055 1.393 . S
C1052 H1041 0.950 . S
C1052 C1050 1.391 . S
C1052 C1053 1.400 . S
C1053 C1047 1.491 . S
C1053 C1052 1.400 . S
C1053 C1054 1.398 . S
C1054 H1042 0.950 . S
C1054 C1053 1.398 . S
C1054 C1055 1.391 . S
C1055 H1043 0.950 . S
C1055 C1051 1.393 . S
C1055 C1054 1.391 . S
H1056 C1064 0.950 . S
H1057 C1069 0.950 . S
H1058 C1066 0.950 . S
H1059 C1068 0.950 . S
H1060 C1070 0.950 . S
H1061 C1072 0.950 . S
H1062 C1074 0.950 . S
H1063 C1075 0.950 . S
C1064 H1056 0.950 . S
C1064 C1065 1.386 . S
C1064 C1066 1.391 . S
C1065 C1064 1.386 . S
C1065 C1069 1.393 . S
C1066 H1058 0.950 . S
C1066 C1064 1.391 . S
C1066 C1067 1.400 . S
C1067 C1066 1.400 . S
C1067 C1068 1.398 . S
C1067 C1073 1.491 . S
C1068 H1059 0.950 . S
C1068 C1067 1.398 . S
C1068 C1069 1.391 . S
C1069 H1057 0.950 . S
C1069 C1065 1.393 . S
C1069 C1068 1.391 . S
C1070 H1060 0.950 . S
C1070 C1071 1.386 . S
C1070 C1072 1.391 . S
C1071 C1070 1.386 . S
C1071 C1075 1.393 . S
C1072 H1061 0.950 . S
C1072 C1070 1.391 . S
C1072 C1073 1.400 . S
C1073 C1067 1.491 . S
C1073 C1072 1.400 . S
C1073 C1074 1.398 . S
C1074 H1062 0.950 . S
C1074 C1073 1.398 . S
C1074 C1075 1.391 . S
C1075 H1063 0.950 . S
C1075 C1071 1.393 . S
C1075 C1074 1.391 . S
H1076 C1084 0.950 . S
H1077 C1089 0.950 . S
H1078 C1086 0.950 . S
H1079 C1088 0.950 . S
H1080 C1090 0.950 . S
H1081 C1092 0.950 . S
H1082 C1094 0.950 . S
H1083 C1095 0.950 . S
C1084 H1076 0.950 . S
C1084 C1085 1.386 . S
C1084 C1086 1.391 . S
C1085 C1084 1.386 . S
C1085 C1089 1.393 . S
C1086 H1078 0.950 . S
C1086 C1084 1.391 . S
C1086 C1087 1.400 . S
C1087 C1086 1.400 . S
C1087 C1088 1.398 . S
C1087 C1093 1.491 . S
C1088 H1079 0.950 . S
C1088 C1087 1.398 . S
C1088 C1089 1.391 . S
C1089 H1077 0.950 . S
C1089 C1085 1.393 . S
C1089 C1088 1.391 . S
C1090 H1080 0.950 . S
C1090 C1091 1.386 . S
C1090 C1092 1.391 . S
C1091 C1090 1.386 . S
C1091 C1095 1.393 . S
C1092 H1081 0.950 . S
C1092 C1090 1.391 . S
C1092 C1093 1.400 . S
C1093 C1087 1.491 . S
C1093 C1092 1.400 . S
C1093 C1094 1.398 . S
C1094 H1082 0.950 . S
C1094 C1093 1.398 . S
C1094 C1095 1.391 . S
C1095 H1083 0.950 . S
C1095 C1091 1.393 . S
C1095 C1094 1.391 . S
H1096 C1104 0.950 . S
H1097 C1109 0.950 . S
H1098 C1106 0.950 . S
H1099 C1108 0.950 . S
H1100 C1110 0.950 . S
H1101 C1112 0.950 . S
H1102 C1114 0.950 . S
H1103 C1115 0.950 . S
C1104 H1096 0.950 . S
C1104 C1105 1.386 . S
C1104 C1106 1.391 . S
C1105 C1104 1.386 . S
C1105 C1109 1.393 . S
C1106 H1098 0.950 . S
C1106 C1104 1.391 . S
C1106 C1107 1.400 . S
C1107 C1106 1.400 . S
C1107 C1108 1.398 . S
C1107 C1113 1.491 . S
C1108 H1099 0.950 . S
C1108 C1107 1.398 . S
C1108 C1109 1.391 . S
C1109 H1097 0.950 . S
C1109 C1105 1.393 . S
C1109 C1108 1.391 . S
C1110 H1100 0.950 . S
C1110 C1111 1.386 . S
C1110 C1112 1.391 . S
C1111 C1110 1.386 . S
C1111 C1115 1.393 . S
C1112 H1101 0.950 . S
C1112 C1110 1.391 . S
C1112 C1113 1.400 . S
C1113 C1107 1.491 . S
C1113 C1112 1.400 . S
C1113 C1114 1.398 . S
C1114 H1102 0.950 . S
C1114 C1113 1.398 . S
C1114 C1115 1.391 . S
C1115 H1103 0.950 . S
C1115 C1111 1.393 . S
C1115 C1114 1.391 . S
H1116 C1124 0.950 . S
H1117 C1129 0.950 . S
H1118 C1126 0.950 . S
H1119 C1128 0.950 . S
H1120 C1130 0.950 . S
H1121 C1132 0.950 . S
H1122 C1134 0.950 . S
H1123 C1135 0.950 . S
C1124 H1116 0.950 . S
C1124 C1125 1.386 . S
C1124 C1126 1.391 . S
C1125 C1124 1.386 . S
C1125 C1129 1.393 . S
C1126 H1118 0.950 . S
C1126 C1124 1.391 . S
C1126 C1127 1.400 . S
C1127 C1126 1.400 . S
C1127 C1128 1.398 . S
C1127 C1133 1.491 . S
C1128 H1119 0.950 . S
C1128 C1127 1.398 . S
C1128 C1129 1.391 . S
C1129 H1117 0.950 . S
C1129 C1125 1.393 . S
C1129 C1128 1.391 . S
C1130 H1120 0.950 . S
C1130 C1131 1.386 . S
C1130 C1132 1.391 . S
C1131 C1130 1.386 . S
C1131 C1135 1.393 . S
C1132 H1121 0.950 . S
C1132 C1130 1.391 . S
C1132 C1133 1.400 . S
C1133 C1127 1.491 . S
C1133 C1132 1.400 . S
C1133 C1134 1.398 . S
C1134 H1122 0.950 . S
C1134 C1133 1.398 . S
C1134 C1135 1.391 . S
C1135 H1123 0.950 . S
C1135 C1131 1.393 . S
C1135 C1134 1.391 . S
H1136 C1144 0.950 . S
H1137 C1149 0.950 . S
H1138 C1146 0.950 . S
H1139 C1148 0.950 . S
H1140 C1150 0.950 . S
H1141 C1152 0.950 . S
H1142 C1154 0.950 . S
H1143 C1155 0.950 . S
C1144 H1136 0.950 . S
C1144 C1145 1.386 . S
C1144 C1146 1.391 . S
C1145 C1144 1.386 . S
C1145 C1149 1.393 . S
C1146 H1138 0.950 . S
C1146 C1144 1.391 . S
C1146 C1147 1.400 . S
C1147 C1146 1.400 . S
C1147 C1148 1.398 . S
C1147 C1153 1.491 . S
C1148 H1139 0.950 . S
C1148 C1147 1.398 . S
C1148 C1149 1.391 . S
C1149 H1137 0.950 . S
C1149 C1145 1.393 . S
C1149 C1148 1.391 . S
C1150 H1140 0.950 . S
C1150 C1151 1.386 . S
C1150 C1152 1.391 . S
C1151 C1150 1.386 . S
C1151 C1155 1.393 . S
C1152 H1141 0.950 . S
C1152 C1150 1.391 . S
C1152 C1153 1.400 . S
C1153 C1147 1.491 . S
C1153 C1152 1.400 . S
C1153 C1154 1.398 . S
C1154 H1142 0.950 . S
C1154 C1153 1.398 . S
C1154 C1155 1.391 . S
C1155 H1143 0.950 . S
C1155 C1151 1.393 . S
C1155 C1154 1.391 . S
H1156 C1164 0.950 . S
H1157 C1169 0.950 . S
H1158 C1166 0.950 . S
H1159 C1168 0.950 . S
H1160 C1170 0.950 . S
H1161 C1172 0.950 . S
H1162 C1174 0.950 . S
H1163 C1175 0.950 . S
C1164 H1156 0.950 . S
C1164 C1165 1.386 . S
C1164 C1166 1.391 . S
C1165 C1164 1.386 . S
C1165 C1169 1.393 . S
C1166 H1158 0.950 . S
C1166 C1164 1.391 . S
C1166 C1167 1.400 . S
C1167 C1166 1.400 . S
C1167 C1168 1.398 . S
C1167 C1173 1.491 . S
C1168 H1159 0.950 . S
C1168 C1167 1.398 . S
C1168 C1169 1.391 . S
C1169 H1157 0.950 . S
C1169 C1165 1.393 . S
C1169 C1168 1.391 . S
C1170 H1160 0.950 . S
C1170 C1171 1.386 . S
C1170 C1172 1.391 . S
C1171 C1170 1.386 . S
C1171 C1175 1.393 . S
C1172 H1161 0.950 . S
C1172 C1170 1.391 . S
C1172 C1173 1.400 . S
C1173 C1167 1.491 . S
C1173 C1172 1.400 . S
C1173 C1174 1.398 . S
C1174 H1162 0.950 . S
C1174 C1173 1.398 . S
C1174 C1175 1.391 . S
C1175 H1163 0.950 . S
C1175 C1171 1.393 . S
C1175 C1174 1.391 . S
H1176 C1184 0.950 . S
H1177 C1189 0.950 . S
H1178 C1186 0.950 . S
H1179 C1188 0.950 . S
H1180 C1190 0.950 . S
H1181 C1192 0.950 . S
H1182 C1194 0.950 . S
H1183 C1195 0.950 . S
C1184 H1176 0.950 . S
C1184 C1185 1.386 . S
C1184 C1186 1.391 . S
C1185 C1184 1.386 . S
C1185 C1189 1.393 . S
C1186 H1178 0.950 . S
C1186 C1184 1.391 . S
C1186 C1187 1.400 . S
C1187 C1186 1.400 . S
C1187 C1188 1.398 . S
C1187 C1193 1.491 . S
C1188 H1179 0.950 . S
C1188 C1187 1.398 . S
C1188 C1189 1.391 . S
C1189 H1177 0.950 . S
C1189 C1185 1.393 . S
C1189 C1188 1.391 . S
C1190 H1180 0.950 . S
C1190 C1191 1.386 . S
C1190 C1192 1.391 . S
C1191 C1190 1.386 . S
C1191 C1195 1.393 . S
C1192 H1181 0.950 . S
C1192 C1190 1.391 . S
C1192 C1193 1.400 . S
C1193 C1187 1.491 . S
C1193 C1192 1.400 . S
C1193 C1194 1.398 . S
C1194 H1182 0.950 . S
C1194 C1193 1.398 . S
C1194 C1195 1.391 . S
C1195 H1183 0.950 . S
C1195 C1191 1.393 . S
C1195 C1194 1.391 . S
H1196 C1204 0.950 . S
H1197 C1209 0.950 . S
H1198 C1206 0.950 . S
H1199 C1208 0.950 . S
H1200 C1210 0.950 . S
H1201 C1212 0.950 . S
H1202 C1214 0.950 . S
H1203 C1215 0.950 . S
C1204 H1196 0.950 . S
C1204 C1205 1.386 . S
C1204 C1206 1.391 . S
C1205 C1204 1.386 . S
C1205 C1209 1.393 . S
C1206 H1198 0.950 . S
C1206 C1204 1.391 . S
C1206 C1207 1.400 . S
C1207 C1206 1.400 . S
C1207 C1208 1.398 . S
C1207 C1213 1.491 . S
C1208 H1199 0.950 . S
C1208 C1207 1.398 . S
C1208 C1209 1.391 . S
C1209 H1197 0.950 . S
C1209 C1205 1.393 . S
C1209 C1208 1.391 . S
C1210 H1200 0.950 . S
C1210 C1211 1.386 . S
C1210 C1212 1.391 . S
C1211 C1210 1.386 . S
C1211 C1215 1.393 . S
C1212 H1201 0.950 . S
C1212 C1210 1.391 . S
C1212 C1213 1.400 . S
C1213 C1207 1.491 . S
C1213 C1212 1.400 . S
C1213 C1214 1.398 . S
C1214 H1202 0.950 . S
C1214 C1213 1.398 . S
C1214 C1215 1.391 . S
C1215 H1203 0.950 . S
C1215 C1211 1.393 . S
C1215 C1214 1.391 . S
H1216 C1224 0.950 . S
H1217 C1229 0.950 . S
H1218 C1226 0.950 . S
H1219 C1228 0.950 . S
H1220 C1230 0.950 . S
H1221 C1232 0.950 . S
H1222 C1234 0.950 . S
H1223 C1235 0.950 . S
C1224 H1216 0.950 . S
C1224 C1225 1.386 . S
C1224 C1226 1.391 . S
C1225 C1224 1.386 . S
C1225 C1229 1.393 . S
C1226 H1218 0.950 . S
C1226 C1224 1.391 . S
C1226 C1227 1.400 . S
C1227 C1226 1.400 . S
C1227 C1228 1.398 . S
C1227 C1233 1.491 . S
C1228 H1219 0.950 . S
C1228 C1227 1.398 . S
C1228 C1229 1.391 . S
C1229 H1217 0.950 . S
C1229 C1225 1.393 . S
C1229 C1228 1.391 . S
C1230 H1220 0.950 . S
C1230 C1231 1.386 . S
C1230 C1232 1.391 . S
C1231 C1230 1.386 . S
C1231 C1235 1.393 . S
C1232 H1221 0.950 . S
C1232 C1230 1.391 . S
C1232 C1233 1.400 . S
C1233 C1227 1.491 . S
C1233 C1232 1.400 . S
C1233 C1234 1.398 . S
C1234 H1222 0.950 . S
C1234 C1233 1.398 . S
C1234 C1235 1.391 . S
C1235 H1223 0.950 . S
C1235 C1231 1.393 . S
C1235 C1234 1.391 . S
H1236 C1244 0.950 . S
H1237 C1249 0.950 . S
H1238 C1246 0.950 . S
H1239 C1248 0.950 . S
H1240 C1250 0.950 . S
H1241 C1252 0.950 . S
H1242 C1254 0.950 . S
H1243 C1255 0.950 . S
C1244 H1236 0.950 . S
C1244 C1245 1.386 . S
C1244 C1246 1.391 . S
C1245 C1244 1.386 . S
C1245 C1249 1.393 . S
C1246 H1238 0.950 . S
C1246 C1244 1.391 . S
C1246 C1247 1.400 . S
C1247 C1246 1.400 . S
C1247 C1248 1.398 . S
C1247 C1253 1.491 . S
C1248 H1239 0.950 . S
C1248 C1247 1.398 . S
C1248 C1249 1.391 . S
C1249 H1237 0.950 . S
C1249 C1245 1.393 . S
C1249 C1248 1.391 . S
C1250 H1240 0.950 . S
C1250 C1251 1.386 . S
C1250 C1252 1.391 . S
C1251 C1250 1.386 . S
C1251 C1255 1.393 . S
C1252 H1241 0.950 . S
C1252 C1250 1.391 . S
C1252 C1253 1.400 . S
C1253 C1247 1.491 . S
C1253 C1252 1.400 . S
C1253 C1254 1.398 . S
C1254 H1242 0.950 . S
C1254 C1253 1.398 . S
C1254 C1255 1.391 . S
C1255 H1243 0.950 . S
C1255 C1251 1.393 . S
C1255 C1254 1.391 . S
H1256 C1264 0.950 . S
H1257 C1269 0.950 . S
H1258 C1266 0.950 . S
H1259 C1268 0.950 . S
H1260 C1270 0.950 . S
H1261 C1272 0.950 . S
H1262 C1274 0.950 . S
H1263 C1275 0.950 . S
C1264 H1256 0.950 . S
C1264 C1265 1.386 . S
C1264 C1266 1.391 . S
C1265 C1264 1.386 . S
C1265 C1269 1.393 . S
C1266 H1258 0.950 . S
C1266 C1264 1.391 . S
C1266 C1267 1.400 . S
C1267 C1266 1.400 . S
C1267 C1268 1.398 . S
C1267 C1273 1.491 . S
C1268 H1259 0.950 . S
C1268 C1267 1.398 . S
C1268 C1269 1.391 . S
C1269 H1257 0.950 . S
C1269 C1265 1.393 . S
C1269 C1268 1.391 . S
C1270 H1260 0.950 . S
C1270 C1271 1.386 . S
C1270 C1272 1.391 . S
C1271 C1270 1.386 . S
C1271 C1275 1.393 . S
C1272 H1261 0.950 . S
C1272 C1270 1.391 . S
C1272 C1273 1.400 . S
C1273 C1267 1.491 . S
C1273 C1272 1.400 . S
C1273 C1274 1.398 . S
C1274 H1262 0.950 . S
C1274 C1273 1.398 . S
C1274 C1275 1.391 . S
C1275 H1263 0.950 . S
C1275 C1271 1.393 . S
C1275 C1274 1.391 . S
H1276 C1284 0.950 . S
H1277 C1289 0.950 . S
H1278 C1286 0.950 . S
H1279 C1288 0.950 . S
H1280 C1290 0.950 . S
H1281 C1292 0.950 . S
H1282 C1294 0.950 . S
H1283 C1295 0.950 . S
C1284 H1276 0.950 . S
C1284 C1285 1.386 . S
C1284 C1286 1.391 . S
C1285 C1284 1.386 . S
C1285 C1289 1.393 . S
C1286 H1278 0.950 . S
C1286 C1284 1.391 . S
C1286 C1287 1.400 . S
C1287 C1286 1.400 . S
C1287 C1288 1.398 . S
C1287 C1293 1.491 . S
C1288 H1279 0.950 . S
C1288 C1287 1.398 . S
C1288 C1289 1.391 . S
C1289 H1277 0.950 . S
C1289 C1285 1.393 . S
C1289 C1288 1.391 . S
C1290 H1280 0.950 . S
C1290 C1291 1.386 . S
C1290 C1292 1.391 . S
C1291 C1290 1.386 . S
C1291 C1295 1.393 . S
C1292 H1281 0.950 . S
C1292 C1290 1.391 . S
C1292 C1293 1.400 . S
C1293 C1287 1.491 . S
C1293 C1292 1.400 . S
C1293 C1294 1.398 . S
C1294 H1282 0.950 . S
C1294 C1293 1.398 . S
C1294 C1295 1.391 . S
C1295 H1283 0.950 . S
C1295 C1291 1.393 . S
C1295 C1294 1.391 . S
C345 C218 1.241 . S
C351 C7 1.236 . S
C365 C175 1.327 . S
C371 C22 1.348 . S
C385 C189 1.335 . S
C391 C35 1.344 . S
C405 C203 1.334 . S
C411 C50 1.352 . S
C425 C204 1.339 . S
C431 C21 1.326 . S
C445 C36 1.336 . S
C451 C217 1.319 . S
C465 C176 1.333 . S
C471 C49 1.314 . S
C485 C190 1.229 . S
C491 C8 1.230 . S
C505 C260 1.173 . S
C511 C64 1.172 . S
C525 C77 1.410 . S
C531 C273 1.421 . S
C545 C92 1.195 . S
C551 C232 1.195 . S
C565 C245 1.400 . S
C571 C105 1.407 . S
C585 C315 1.443 . S
C591 C119 1.458 . S
C605 C133 1.201 . S
C611 C330 1.206 . S
C625 C147 1.458 . S
C631 C287 1.468 . S
C645 C161 1.178 . S
C651 C302 1.184 . S
C665 C246 1.228 . S
C671 C162 1.230 . S
C685 C329 1.387 . S
C691 C78 1.395 . S
C705 C91 1.352 . S
C711 C288 1.357 . S
C725 C301 1.375 . S
C731 C106 1.384 . S
C745 C316 1.293 . S
C751 C63 1.287 . S
C765 C134 1.293 . S
C771 C274 1.294 . S
C785 C231 1.301 . S
C791 C148 1.319 . S
C805 C259 1.295 . S
C811 C120 1.312 . S
C825 C3 0.877 . S
C831 C59 0.855 . S
C845 C79 0.913 . S
C851 C23 0.913 . S
C865 C31 0.939 . S
C871 C87 0.915 . S
C885 C51 0.880 . S
C891 C107 0.870 . S
C905 C121 0.896 . S
C911 C17 0.914 . S
C925 C135 0.889 . S
C931 C37 0.865 . S
C945 C149 0.933 . S
C951 C45 0.914 . S
C965 C9 0.807 . S
C971 C163 0.830 . S
C985 C157 0.827 . S
C991 C65 0.789 . S
C1005 C73 1.001 . S
C1011 C115 0.978 . S
C1025 C93 0.836 . S
C1031 C129 0.838 . S
C1045 C143 0.999 . S
C1051 C101 0.976 . S
C1065 C227 0.878 . S
C1071 C177 0.878 . S
C1085 C247 0.876 . S
C1091 C191 0.850 . S
C1105 C205 0.850 . S
C1111 C255 0.858 . S
C1125 C213 0.884 . S
C1131 C275 0.900 . S
C1145 C185 0.921 . S
C1151 C289 0.930 . S
C1165 C199 0.967 . S
C1171 C297 0.950 . S
C1185 C317 0.850 . S
C1191 C219 0.888 . S
C1205 C171 0.965 . S
C1211 C325 0.950 . S
C1225 C233 0.839 . S
C1231 C331 0.837 . S
C1245 C283 0.975 . S
C1251 C241 0.976 . S
C1265 C261 0.823 . S
C1271 C303 0.783 . S
C1285 C311 0.977 . S
C1291 C269 0.976 . S
