# Generated by pormake.
# Topology xfw, (5)-cn, num edge types: 1
# Building blocks:
#     Node 0, Type 0, BuildingBlock: BEQFEK_clean_sbu_0, # of connection points: 5
#     Node 1, Type 0, BuildingBlock: BEQFEK_clean_sbu_0, # of connection points: 5
#     Node 2, Type 0, BuildingBlock: BEQFEK_clean_sbu_0, # of connection points: 5
#     Node 3, Type 0, BuildingBlock: BEQFEK_clean_sbu_0, # of connection points: 5
#     Node 4, Type 0, BuildingBlock: BEQFEK_clean_sbu_0, # of connection points: 5
#     Node 5, Type 0, BuildingBlock: BEQFEK_clean_sbu_0, # of connection points: 5
#     Node 6, Type 0, BuildingBlock: BEQFEK_clean_sbu_0, # of connection points: 5
#     Node 7, Type 0, BuildingBlock: BEQFEK_clean_sbu_0, # of connection points: 5
#     Edge 8, Type (0, 0), BuildingBlock: MIFKUJ_clean_linker_0, # of connection points: 2
#     Edge 9, Type (0, 0), BuildingBlock: MIFKUJ_clean_linker_0, # of connection points: 2
#     Edge 10, Type (0, 0), BuildingBlock: MIFKUJ_clean_linker_0, # of connection points: 2
#     Edge 11, Type (0, 0), BuildingBlock: MIFKUJ_clean_linker_0, # of connection points: 2
#     Edge 12, Type (0, 0), BuildingBlock: MIFKUJ_clean_linker_0, # of connection points: 2
#     Edge 13, Type (0, 0), BuildingBlock: MIFKUJ_clean_linker_0, # of connection points: 2
#     Edge 14, Type (0, 0), BuildingBlock: MIFKUJ_clean_linker_0, # of connection points: 2
#     Edge 15, Type (0, 0), BuildingBlock: MIFKUJ_clean_linker_0, # of connection points: 2
#     Edge 16, Type (0, 0), BuildingBlock: MIFKUJ_clean_linker_0, # of connection points: 2
#     Edge 17, Type (0, 0), BuildingBlock: MIFKUJ_clean_linker_0, # of connection points: 2
#     Edge 18, Type (0, 0), BuildingBlock: MIFKUJ_clean_linker_0, # of connection points: 2
#     Edge 19, Type (0, 0), BuildingBlock: MIFKUJ_clean_linker_0, # of connection points: 2
#     Edge 20, Type (0, 0), BuildingBlock: MIFKUJ_clean_linker_0, # of connection points: 2
#     Edge 21, Type (0, 0), BuildingBlock: MIFKUJ_clean_linker_0, # of connection points: 2
#     Edge 22, Type (0, 0), BuildingBlock: MIFKUJ_clean_linker_0, # of connection points: 2
#     Edge 23, Type (0, 0), BuildingBlock: MIFKUJ_clean_linker_0, # of connection points: 2
#     Edge 24, Type (0, 0), BuildingBlock: MIFKUJ_clean_linker_0, # of connection points: 2
#     Edge 25, Type (0, 0), BuildingBlock: MIFKUJ_clean_linker_0, # of connection points: 2
#     Edge 26, Type (0, 0), BuildingBlock: MIFKUJ_clean_linker_0, # of connection points: 2
#     Edge 27, Type (0, 0), BuildingBlock: MIFKUJ_clean_linker_0, # of connection points: 2
# Relax obj value: 0.341
# Max RMSD: 0.177
# Mean RMSD: 0.177
data_MOF--net-xfw--node1-BEQFEK_clean_sbu_0--edge1-MIFKUJ_clean_linker_0
_symmetry_space_group_name_H-M    P1
_symmetry_Int_Tables_number       1
_symmetry_cell_setting            triclinic
loop_
_symmetry_equiv_pos_as_xyz
'x, y, z'
_cell_length_a     36.700027
_cell_length_b     36.694341
_cell_length_c     77.141379
_cell_angle_alpha  89.993853
_cell_angle_beta   90.001984
_cell_angle_gamma 89.969859
loop_
_atom_site_label
_atom_site_type_symbol
_atom_site_fract_x
_atom_site_fract_y
_atom_site_fract_z
_atom_type_partial_charge
Co0 Co 0.23796 0.08525 0.57784 0.0
Co1 Co 0.22976 0.13688 0.61033 0.0
C2 C 0.17525 0.07865 0.60257 0.0
O3 O 0.19252 0.06899 0.58902 0.0
O4 O 0.18693 0.10405 0.61235 0.0
C5 C 0.24282 0.01698 0.56 0.0
O6 O 0.23037 0.00426 0.57478 0.0
C7 C 0.22576 0.15582 0.64733 0.0
C8 C 0.23535 0.21525 0.64688 0.0
C9 C 0.22805 0.18636 0.6579 0.0
N10 N 0.2317 0.16619 0.63084 0.0
N11 N 0.23754 0.20173 0.63068 0.0
C12 C 0.21474 0.11807 0.65248 0.0
H13 H 0.18496 0.11763 0.65499 0.0
H14 H 0.22115 0.09838 0.64201 0.0
H15 H 0.22872 0.10955 0.66454 0.0
C16 C 0.30787 0.06899 0.59489 0.0
N17 N 0.27644 0.08771 0.59398 0.0
N18 N 0.27373 0.10935 0.60755 0.0
C19 C 0.30373 0.105 0.61751 0.0
C20 C 0.32599 0.07896 0.60987 0.0
C21 C 0.32051 0.04213 0.58157 0.0
H22 H 0.3152 0.05291 0.56839 0.0
H23 H 0.30521 0.01631 0.5832 0.0
H24 H 0.35006 0.03633 0.5829 0.0
O25 O 0.22821 0.13305 0.56755 0.0
O26 O 0.21997 0.16977 0.5901 0.0
H27 H 0.3035 0.15297 0.63335 0.0
H28 H 0.3384 0.12023 0.63903 0.0
C29 C 0.3099 0.12355 0.63452 0.0
H30 H 0.29155 0.11147 0.64437 0.0
H31 H 0.24246 0.21686 0.61946 0.0
O32 O 0.24874 0.05098 0.55853 0.0
C33 C 0.2204 0.1642 0.57377 0.0
Co34 Co 0.09391 0.76285 0.42544 0.0
Co35 Co 0.13984 0.76994 0.39095 0.0
C36 C 0.08419 0.82503 0.40009 0.0
O37 O 0.07775 0.80868 0.41432 0.0
O38 O 0.10678 0.81243 0.38909 0.0
C39 C 0.0266 0.75813 0.44365 0.0
O40 O 0.01348 0.76687 0.42835 0.0
C41 C 0.16374 0.78106 0.35456 0.0
C42 C 0.2074 0.73987 0.3523 0.0
C43 C 0.18821 0.76566 0.34286 0.0
N44 N 0.16774 0.76439 0.37001 0.0
N45 N 0.19423 0.74017 0.36859 0.0
C46 C 0.13879 0.81275 0.3516 0.0
H47 H 0.14094 0.83201 0.36261 0.0
H48 H 0.11025 0.80287 0.35091 0.0
H49 H 0.1457 0.82774 0.33957 0.0
C50 C 0.07398 0.69279 0.40936 0.0
N51 N 0.09326 0.72396 0.40952 0.0
N52 N 0.11157 0.72689 0.39489 0.0
C53 C 0.10363 0.69785 0.38479 0.0
C54 C 0.07957 0.67548 0.39366 0.0
C55 C 0.05079 0.67947 0.42401 0.0
H56 H 0.06322 0.68699 0.4366 0.0
H57 H 0.0234 0.69209 0.42307 0.0
H58 H 0.0475 0.64944 0.42342 0.0
O59 O 0.14296 0.77089 0.43441 0.0
O60 O 0.17486 0.78077 0.41037 0.0
H61 H 0.14481 0.6846 0.36631 0.0
H62 H 0.09943 0.6725 0.35954 0.0
C63 C 0.11589 0.69334 0.36642 0.0
H64 H 0.11368 0.71969 0.35947 0.0
H65 H 0.20279 0.72324 0.37867 0.0
O66 O 0.06082 0.75417 0.44541 0.0
C67 C 0.17256 0.77944 0.42688 0.0
Co68 Co 0.75831 0.91009 0.57839 0.0
Co69 Co 0.77102 0.86414 0.61236 0.0
C70 C 0.82011 0.9251 0.60326 0.0
O71 O 0.8027 0.9303 0.58921 0.0
O72 O 0.81019 0.90105 0.61417 0.0
C73 C 0.74941 0.97708 0.56035 0.0
O74 O 0.75921 0.99041 0.57546 0.0
C75 C 0.77796 0.84737 0.64946 0.0
C76 C 0.76673 0.78822 0.65009 0.0
C77 C 0.77549 0.81764 0.66053 0.0
N78 N 0.77071 0.83604 0.63324 0.0
N79 N 0.76399 0.80067 0.63371 0.0
C80 C 0.79029 0.88519 0.65377 0.0
H81 H 0.81993 0.88729 0.65112 0.0
H82 H 0.77612 0.90527 0.64539 0.0
H83 H 0.78571 0.89195 0.66759 0.0
C84 C 0.68711 0.92243 0.5951 0.0
N85 N 0.7201 0.90652 0.59463 0.0
N86 N 0.7249 0.88726 0.60886 0.0
C87 C 0.69487 0.89052 0.61889 0.0
C88 C 0.67022 0.91324 0.61054 0.0
C89 C 0.6718 0.94572 0.58092 0.0
H90 H 0.67929 0.93427 0.56811 0.0
H91 H 0.68341 0.97353 0.58198 0.0
H92 H 0.64167 0.94763 0.58184 0.0
O93 O 0.77099 0.86218 0.56896 0.0
O94 O 0.7847 0.8309 0.59277 0.0
H95 H 0.69722 0.84484 0.63611 0.0
H96 H 0.66319 0.87839 0.6419 0.0
C97 C 0.69099 0.87439 0.6366 0.0
H98 H 0.71075 0.88754 0.64547 0.0
H99 H 0.75779 0.78498 0.62282 0.0
O100 O 0.74599 0.94277 0.5587 0.0
C101 C 0.78273 0.83343 0.57629 0.0
Co102 Co 0.9133 0.23868 0.42408 0.0
Co103 Co 0.86653 0.22854 0.39001 0.0
C104 C 0.92948 0.18016 0.39756 0.0
O105 O 0.93495 0.19655 0.41187 0.0
O106 O 0.90431 0.19023 0.38723 0.0
C107 C 0.98011 0.24999 0.44224 0.0
O108 O 0.99409 0.24428 0.4268 0.0
C109 C 0.84254 0.21737 0.35366 0.0
C110 C 0.79356 0.2523 0.35259 0.0
C111 C 0.81558 0.23013 0.3425 0.0
N112 N 0.83714 0.23213 0.36944 0.0
N113 N 0.80753 0.25258 0.36873 0.0
C114 C 0.8712 0.18942 0.34993 0.0
H115 H 0.87131 0.16882 0.36043 0.0
H116 H 0.89832 0.20278 0.34965 0.0
H117 H 0.86625 0.17508 0.33751 0.0
C118 C 0.9229 0.31214 0.4093 0.0
N119 N 0.90808 0.27862 0.40896 0.0
N120 N 0.88929 0.27459 0.39454 0.0
C121 C 0.89227 0.30548 0.38509 0.0
C122 C 0.91361 0.33011 0.39418 0.0
C123 C 0.94557 0.32685 0.42382 0.0
H124 H 0.93487 0.31714 0.43643 0.0
H125 H 0.97401 0.31714 0.42229 0.0
H126 H 0.94574 0.35711 0.42372 0.0
O127 O 0.86597 0.22342 0.43331 0.0
O128 O 0.83385 0.21237 0.40945 0.0
H129 H 0.84806 0.31481 0.36769 0.0
H130 H 0.89065 0.33393 0.36053 0.0
C131 C 0.87789 0.31023 0.36708 0.0
H132 H 0.88314 0.28528 0.35938 0.0
H133 H 0.79725 0.26734 0.37921 0.0
O134 O 0.94567 0.24979 0.44404 0.0
C135 C 0.83704 0.21234 0.42592 0.0
Co136 Co 0.76063 0.08535 0.08001 0.0
Co137 Co 0.76721 0.14044 0.11123 0.0
C138 C 0.82372 0.08304 0.10464 0.0
O139 O 0.80637 0.07111 0.09154 0.0
O140 O 0.81172 0.10971 0.11355 0.0
C141 C 0.75852 0.01566 0.06353 0.0
O142 O 0.77294 0.00498 0.07827 0.0
C143 C 0.77517 0.16333 0.1475 0.0
C144 C 0.74695 0.2165 0.14779 0.0
C145 C 0.76516 0.19186 0.1583 0.0
N146 N 0.76354 0.1708 0.13135 0.0
N147 N 0.74694 0.20278 0.13159 0.0
C148 C 0.79237 0.12797 0.15267 0.0
H149 H 0.78224 0.10557 0.14431 0.0
H150 H 0.78649 0.12147 0.16644 0.0
H151 H 0.82231 0.13008 0.15099 0.0
C152 C 0.69174 0.06804 0.09753 0.0
N153 N 0.72245 0.08773 0.09617 0.0
N154 N 0.72464 0.11051 0.10932 0.0
C155 C 0.69507 0.1058 0.11953 0.0
C156 C 0.67357 0.0785 0.11242 0.0
C157 C 0.67962 0.04012 0.08461 0.0
H158 H 0.68412 0.05039 0.07127 0.0
H159 H 0.69581 0.01488 0.08641 0.0
H160 H 0.65035 0.03348 0.08622 0.0
O161 O 0.76815 0.13265 0.06882 0.0
O162 O 0.77438 0.1723 0.09037 0.0
H163 H 0.6883 0.15518 0.13386 0.0
H164 H 0.66248 0.11715 0.14232 0.0
C165 C 0.68861 0.12539 0.13625 0.0
H166 H 0.71117 0.11927 0.14535 0.0
H167 H 0.73492 0.21486 0.12075 0.0
O168 O 0.7505 0.0491 0.06151 0.0
C169 C 0.77392 0.1649 0.07421 0.0
Co170 Co 0.07593 0.23293 0.91874 0.0
Co171 Co 0.13429 0.22797 0.88881 0.0
C172 C 0.07326 0.17394 0.8922 0.0
O173 O 0.05954 0.19055 0.90512 0.0
O174 O 0.10233 0.18504 0.88492 0.0
C175 C 0.02409 0.21518 0.94433 0.0
O176 O 0.034 0.18223 0.93961 0.0
C177 C 0.15667 0.22574 0.85248 0.0
C178 C 0.21582 0.23653 0.85387 0.0
C179 C 0.18779 0.22899 0.84238 0.0
N180 N 0.16583 0.23141 0.86914 0.0
N181 N 0.20121 0.23796 0.86989 0.0
C182 C 0.11949 0.21387 0.84682 0.0
H183 H 0.09847 0.22543 0.85559 0.0
H184 H 0.11366 0.22198 0.83328 0.0
H185 H 0.11792 0.18372 0.84761 0.0
C186 C 0.06438 0.30512 0.90346 0.0
N187 N 0.08218 0.27318 0.90405 0.0
N188 N 0.10625 0.27175 0.89141 0.0
C189 C 0.1045 0.3032 0.88233 0.0
C190 C 0.07763 0.32518 0.8896 0.0
C191 C 0.03589 0.31629 0.9163 0.0
H192 H 0.04597 0.31106 0.92963 0.0
H193 H 0.0111 0.2995 0.9143 0.0
H194 H 0.02877 0.34556 0.91512 0.0
O195 O 0.12196 0.22089 0.93057 0.0
O196 O 0.16408 0.21744 0.90991 0.0
H197 H 0.15566 0.30532 0.86903 0.0
H198 H 0.12329 0.33954 0.86201 0.0
C199 C 0.12649 0.31097 0.86642 0.0
H200 H 0.1174 0.29273 0.85583 0.0
H201 H 0.21547 0.24285 0.88136 0.0
O202 O 0.03872 0.24248 0.93695 0.0
C203 C 0.15472 0.21534 0.92581 0.0
Co204 Co 0.23648 0.9157 0.07908 0.0
Co205 Co 0.2284 0.86367 0.11149 0.0
C206 C 0.17579 0.92393 0.10519 0.0
O207 O 0.1925 0.9328 0.09136 0.0
O208 O 0.18687 0.89775 0.11466 0.0
C209 C 0.23945 0.98493 0.06238 0.0
O210 O 0.22663 0.99582 0.07742 0.0
C211 C 0.22187 0.84088 0.14797 0.0
C212 C 0.24748 0.7864 0.1476 0.0
C213 C 0.23118 0.81162 0.15849 0.0
N214 N 0.23208 0.83323 0.13161 0.0
N215 N 0.24714 0.80049 0.13147 0.0
C216 C 0.20667 0.87686 0.15355 0.0
H217 H 0.2171 0.89895 0.14508 0.0
H218 H 0.21393 0.88286 0.16722 0.0
H219 H 0.17655 0.87607 0.15241 0.0
C220 C 0.30815 0.92861 0.095 0.0
N221 N 0.27578 0.91153 0.09459 0.0
N222 N 0.27283 0.89012 0.10822 0.0
C223 C 0.30346 0.89316 0.11782 0.0
C224 C 0.32668 0.91781 0.10978 0.0
C225 C 0.32132 0.95424 0.08126 0.0
H226 H 0.31417 0.94347 0.06827 0.0
H227 H 0.3077 0.981 0.08295 0.0
H228 H 0.35125 0.95819 0.08198 0.0
O229 O 0.22535 0.86845 0.06842 0.0
O230 O 0.21647 0.83198 0.09106 0.0
H231 H 0.30902 0.84492 0.13311 0.0
H232 H 0.33535 0.88309 0.14102 0.0
C233 C 0.30923 0.87489 0.13494 0.0
H234 H 0.28662 0.88215 0.1438 0.0
H235 H 0.25781 0.78807 0.12042 0.0
O236 O 0.24669 0.95134 0.06022 0.0
C237 C 0.21685 0.83756 0.07472 0.0
Co238 Co 0.9148 0.76111 0.92252 0.0
Co239 Co 0.85886 0.76869 0.89174 0.0
C240 C 0.92128 0.82061 0.89634 0.0
O241 O 0.9331 0.80374 0.90961 0.0
O242 O 0.89273 0.8102 0.88839 0.0
C243 C 0.9843 0.75503 0.93927 0.0
O244 O 0.9965 0.76637 0.9242 0.0
C245 C 0.838 0.77377 0.85527 0.0
C246 C 0.77874 0.76322 0.85599 0.0
C247 C 0.80722 0.77149 0.84488 0.0
N248 N 0.8282 0.76686 0.87174 0.0
N249 N 0.79277 0.76045 0.87209 0.0
C250 C 0.87542 0.78599 0.85013 0.0
H251 H 0.89617 0.77253 0.85841 0.0
H252 H 0.88125 0.78035 0.83631 0.0
H253 H 0.87751 0.81584 0.85219 0.0
C254 C 0.92663 0.68967 0.90621 0.0
N255 N 0.90861 0.72146 0.90734 0.0
N256 N 0.88542 0.72406 0.89435 0.0
C257 C 0.8881 0.69364 0.88454 0.0
C258 C 0.91463 0.67119 0.89167 0.0
C259 C 0.95527 0.67734 0.91872 0.0
H260 H 0.9465 0.68324 0.93218 0.0
H261 H 0.98093 0.6923 0.9161 0.0
H262 H 0.96056 0.64771 0.91746 0.0
O263 O 0.86848 0.77409 0.93379 0.0
O264 O 0.82824 0.78004 0.91246 0.0
H265 H 0.83855 0.694 0.86987 0.0
H266 H 0.87049 0.65884 0.8635 0.0
C267 C 0.86778 0.68742 0.868 0.0
H268 H 0.87882 0.70569 0.85783 0.0
H269 H 0.77808 0.75479 0.88335 0.0
O270 O 0.95027 0.75014 0.94127 0.0
C271 C 0.8364 0.78122 0.92852 0.0
H272 H 0.23677 0.9428 0.5595 0.0
H273 H 0.2427 0.90224 0.53459 0.0
H274 H 0.26847 0.99408 0.50191 0.0
H275 H 0.26234 0.035 0.5268 0.0
H276 H 0.21595 0.9525 0.48791 0.0
H277 H 0.33373 0.93187 0.51137 0.0
H278 H 0.37938 0.91852 0.53394 0.0
H279 H 0.33122 0.8134 0.54238 0.0
H280 H 0.28491 0.8263 0.52004 0.0
H281 H 0.2215 0.83242 0.41815 0.0
H282 H 0.25328 0.87207 0.4387 0.0
H283 H 0.21991 0.80256 0.48088 0.0
H284 H 0.18804 0.76299 0.46048 0.0
H285 H 0.2877 0.83778 0.48696 0.0
H286 H 0.16339 0.86506 0.46884 0.0
H287 H 0.11647 0.87716 0.44667 0.0
H288 H 0.17693 0.97002 0.4288 0.0
H289 H 0.22458 0.95801 0.45069 0.0
C290 C 0.24406 0.95439 0.54706 0.0
C291 C 0.24892 0.99217 0.54513 0.0
C292 C 0.24771 0.9311 0.53284 0.0
C293 C 0.25641 0.94506 0.5164 0.0
C294 C 0.2619 0.9827 0.51448 0.0
C295 C 0.25839 0.00603 0.52873 0.0
C296 C 0.2568 0.92059 0.50107 0.0
C297 C 0.23242 0.92795 0.4875 0.0
C298 C 0.27779 0.88818 0.50066 0.0
C299 C 0.30567 0.88017 0.51408 0.0
C300 C 0.33268 0.906 0.51812 0.0
C301 C 0.35872 0.8985 0.53087 0.0
C302 C 0.35817 0.86516 0.53961 0.0
C303 C 0.33161 0.83922 0.5356 0.0
C304 C 0.30549 0.84659 0.52287 0.0
C305 C 0.22236 0.82465 0.43169 0.0
C306 C 0.2018 0.79496 0.43777 0.0
C307 C 0.24039 0.84745 0.44343 0.0
C308 C 0.23828 0.8406 0.46132 0.0
C309 C 0.22175 0.8084 0.46713 0.0
C310 C 0.20345 0.78586 0.45546 0.0
C311 C 0.24662 0.86964 0.47406 0.0
C312 C 0.27222 0.86297 0.48719 0.0
C313 C 0.22668 0.90269 0.47416 0.0
C314 C 0.19774 0.91038 0.46123 0.0
C315 C 0.16679 0.8879 0.4601 0.0
C316 C 0.14007 0.89475 0.44759 0.0
C317 C 0.14376 0.92428 0.4363 0.0
C318 C 0.17415 0.9471 0.43753 0.0
C319 C 0.20103 0.94028 0.44997 0.0
H320 H 0.12305 0.92955 0.42662 0.0
H321 H 0.37835 0.8594 0.54947 0.0
H322 H 0.84107 0.79092 0.58458 0.0
H323 H 0.88245 0.76193 0.56388 0.0
H324 H 0.80786 0.78609 0.52227 0.0
H325 H 0.76671 0.81588 0.54281 0.0
H326 H 0.85132 0.71603 0.51931 0.0
H327 H 0.86158 0.84764 0.5284 0.0
H328 H 0.8676 0.90169 0.5472 0.0
H329 H 0.96761 0.85928 0.56791 0.0
H330 H 0.96177 0.80461 0.54944 0.0
H331 H 0.95227 0.7551 0.4434 0.0
H332 H 0.91132 0.75255 0.46832 0.0
H333 H 0.00374 0.74923 0.50283 0.0
H334 H 0.04501 0.75175 0.47791 0.0
H335 H 0.95524 0.80132 0.51212 0.0
H336 H 0.95121 0.6748 0.49992 0.0
H337 H 0.94542 0.61903 0.48235 0.0
H338 H 0.83642 0.64939 0.46816 0.0
H339 H 0.84156 0.70543 0.48568 0.0
C340 C 0.83273 0.78871 0.57115 0.0
C341 C 0.80086 0.806 0.56526 0.0
C342 C 0.85648 0.77223 0.55934 0.0
C343 C 0.84829 0.77229 0.54157 0.0
C344 C 0.81456 0.78577 0.53595 0.0
C345 C 0.79114 0.80284 0.54769 0.0
C346 C 0.87715 0.76482 0.52867 0.0
C347 C 0.87404 0.7346 0.51766 0.0
C348 C 0.90712 0.78875 0.52684 0.0
C349 C 0.911 0.82186 0.53772 0.0
C350 C 0.88467 0.8497 0.53708 0.0
C351 C 0.88807 0.88046 0.54765 0.0
C352 C 0.91791 0.88386 0.55878 0.0
C353 C 0.94447 0.85656 0.55931 0.0
C354 C 0.94112 0.82568 0.5488 0.0
C355 C 0.96393 0.75346 0.45627 0.0
C356 C 0.0019 0.75385 0.45868 0.0
C357 C 0.94047 0.75173 0.47051 0.0
C358 C 0.95448 0.75044 0.48743 0.0
C359 C 0.99237 0.75009 0.48987 0.0
C360 C 0.01589 0.75151 0.47562 0.0
C361 C 0.92945 0.75256 0.50251 0.0
C362 C 0.93306 0.78214 0.5139 0.0
C363 C 0.90014 0.72789 0.50471 0.0
C364 C 0.89689 0.69447 0.494 0.0
C365 C 0.92611 0.66974 0.49294 0.0
C366 C 0.92291 0.63804 0.48302 0.0
C367 C 0.89064 0.63076 0.47406 0.0
C368 C 0.86143 0.6551 0.47508 0.0
C369 C 0.86442 0.68678 0.48506 0.0
H370 H 0.88823 0.60618 0.46639 0.0
H371 H 0.92054 0.90769 0.56695 0.0
H372 H 0.73333 0.95826 0.52683 0.0
H373 H 0.73258 0.9982 0.50142 0.0
H374 H 0.75566 0.09075 0.53409 0.0
H375 H 0.75605 0.05119 0.55954 0.0
H376 H 0.70751 0.10858 0.50872 0.0
H377 H 0.82327 0.0471 0.51339 0.0
H378 H 0.86411 0.99388 0.51538 0.0
H379 H 0.82529 0.95522 0.4662 0.0
H380 H 0.78372 0.00796 0.46406 0.0
H381 H 0.82033 0.22657 0.45961 0.0
H382 H 0.7876 0.18651 0.47953 0.0
H383 H 0.76119 0.11458 0.43716 0.0
H384 H 0.79347 0.15501 0.41704 0.0
H385 H 0.80095 0.08178 0.46402 0.0
H386 H 0.69318 0.15192 0.45761 0.0
H387 H 0.65559 0.20751 0.45615 0.0
H388 H 0.6827 0.23271 0.50895 0.0
H389 H 0.72094 0.17754 0.51066 0.0
C390 C 0.73778 0.98719 0.52864 0.0
C391 C 0.74516 0.00149 0.54519 0.0
C392 C 0.73737 0.00996 0.5141 0.0
C393 C 0.7445 0.04738 0.51584 0.0
C394 C 0.75008 0.06196 0.53244 0.0
C395 C 0.75048 0.03925 0.54698 0.0
C396 C 0.749 0.07096 0.50036 0.0
C397 C 0.72795 0.10281 0.49894 0.0
C398 C 0.77514 0.06296 0.4874 0.0
C399 C 0.8 0.03118 0.48869 0.0
C400 C 0.82317 0.02706 0.50309 0.0
C401 C 0.84649 0.99702 0.50423 0.0
C402 C 0.84719 0.97111 0.49096 0.0
C403 C 0.82462 0.97525 0.4765 0.0
C404 C 0.80116 0.0052 0.47532 0.0
C405 C 0.80646 0.20289 0.45444 0.0
C406 C 0.80955 0.19383 0.4368 0.0
C407 C 0.78771 0.18005 0.46583 0.0
C408 C 0.77206 0.14753 0.45982 0.0
C409 C 0.773 0.13962 0.44202 0.0
C410 C 0.79125 0.16286 0.43054 0.0
C411 C 0.75988 0.11975 0.47251 0.0
C412 C 0.77977 0.08715 0.4735 0.0
C413 C 0.73305 0.12735 0.48516 0.0
C414 C 0.71015 0.16066 0.48422 0.0
C415 C 0.6914 0.16947 0.46887 0.0
C416 C 0.66991 0.20088 0.46801 0.0
C417 C 0.66681 0.22366 0.48244 0.0
C418 C 0.68514 0.21504 0.49778 0.0
C419 C 0.70669 0.18366 0.49871 0.0
H420 H 0.65014 0.24796 0.48175 0.0
H421 H 0.86529 0.94789 0.49186 0.0
H422 H 0.17884 0.22428 0.58165 0.0
H423 H 0.13873 0.25675 0.56144 0.0
H424 H 0.18562 0.19748 0.51871 0.0
H425 H 0.22603 0.16541 0.53858 0.0
H426 H 0.15091 0.29147 0.5207 0.0
H427 H 0.1074 0.14603 0.51066 0.0
H428 H 0.106 0.08743 0.52639 0.0
H429 H 0.08749 0.14407 0.5743 0.0
H430 H 0.08818 0.20291 0.55877 0.0
H431 H 0.05394 0.25955 0.44247 0.0
H432 H 0.0943 0.26133 0.46765 0.0
H433 H 0.00145 0.25226 0.50165 0.0
H434 H 0.96082 0.25052 0.47651 0.0
H435 H 0.05325 0.20137 0.50856 0.0
H436 H 0.04861 0.3299 0.50115 0.0
H437 H 0.05167 0.38814 0.48529 0.0
H438 H 0.16401 0.36809 0.47299 0.0
H439 H 0.16149 0.30944 0.48856 0.0
C440 C 0.18175 0.21931 0.56788 0.0
C441 C 0.20513 0.19174 0.56175 0.0
C442 C 0.15879 0.23791 0.55637 0.0
C443 C 0.15906 0.22908 0.53868 0.0
C444 C 0.18508 0.20455 0.53235 0.0
C445 C 0.20805 0.18614 0.54376 0.0
C446 C 0.12828 0.23928 0.52736 0.0
C447 C 0.12924 0.27214 0.51812 0.0
C448 C 0.09995 0.21406 0.52424 0.0
C449 C 0.09815 0.1788 0.53358 0.0
C450 C 0.10282 0.14591 0.52453 0.0
C451 C 0.10218 0.11268 0.53341 0.0
C452 C 0.09675 0.11204 0.55134 0.0
C453 C 0.09179 0.14462 0.56042 0.0
C454 C 0.09233 0.1779 0.55159 0.0
C455 C 0.04204 0.25841 0.4553 0.0
C456 C 0.00419 0.25463 0.45748 0.0
C457 C 0.06513 0.25969 0.46969 0.0
C458 C 0.05085 0.25714 0.48653 0.0
C459 C 0.013 0.25439 0.48876 0.0
C460 C 0.98984 0.25341 0.47438 0.0
C461 C 0.07571 0.25367 0.5016 0.0
C462 C 0.07406 0.2215 0.5114 0.0
C463 C 0.10304 0.27981 0.5053 0.0
C464 C 0.10477 0.31511 0.49594 0.0
C465 C 0.0739 0.33775 0.49495 0.0
C466 C 0.07555 0.37088 0.48603 0.0
C467 C 0.108 0.38178 0.47811 0.0
C468 C 0.13889 0.3596 0.47913 0.0
C469 C 0.13738 0.32643 0.48802 0.0
H470 H 0.10922 0.40744 0.47121 0.0
H471 H 0.0963 0.0863 0.55819 0.0
H472 H 0.77844 0.82653 0.92246 0.0
H473 H 0.74606 0.86294 0.9442 0.0
H474 H 0.80349 0.80662 0.98497 0.0
H475 H 0.83589 0.77033 0.96342 0.0
H476 H 0.73167 0.82649 0.99441 0.0
H477 H 0.84105 0.87958 0.96839 0.0
H478 H 0.87741 0.90066 0.94343 0.0
H479 H 0.79241 0.97553 0.92938 0.0
H480 H 0.75531 0.95443 0.95413 0.0
H481 H 0.77657 0.94348 0.06301 0.0
H482 H 0.77174 0.9012 0.03875 0.0
H483 H 0.72245 0.98541 0.00751 0.0
H484 H 0.72782 0.02821 0.0317 0.0
H485 H 0.77574 0.95407 0.99044 0.0
H486 H 0.67252 0.91073 0.02082 0.0
H487 H 0.63657 0.88978 0.04591 0.0
H488 H 0.70767 0.79772 0.05197 0.0
H489 H 0.74433 0.81829 0.02704 0.0
C490 C 0.78321 0.82103 0.93607 0.0
C491 C 0.81011 0.79598 0.94124 0.0
C492 C 0.76477 0.84193 0.94846 0.0
C493 C 0.77282 0.83781 0.96616 0.0
C494 C 0.79692 0.81026 0.97138 0.0
C495 C 0.81557 0.78967 0.95903 0.0
C496 C 0.76114 0.86547 0.97901 0.0
C497 C 0.74108 0.85445 0.99357 0.0
C498 C 0.77278 0.90213 0.97767 0.0
C499 C 0.79525 0.91513 0.96295 0.0
C500 C 0.83003 0.90036 0.9599 0.0
C501 C 0.85077 0.91231 0.9458 0.0
C502 C 0.83718 0.93933 0.93479 0.0
C503 C 0.80286 0.95454 0.93789 0.0
C504 C 0.78196 0.94259 0.95194 0.0
C505 C 0.7643 0.95296 0.05106 0.0
C506 C 0.75279 0.98929 0.04926 0.0
C507 C 0.76128 0.92862 0.03722 0.0
C508 C 0.74632 0.93996 0.02135 0.0
C509 C 0.73397 0.97601 0.01965 0.0
C510 C 0.73709 0.00044 0.03349 0.0
C511 C 0.74683 0.91505 0.00617 0.0
C512 C 0.76513 0.92651 0.99116 0.0
C513 C 0.73341 0.87891 0.00712 0.0
C514 C 0.71131 0.86619 0.02208 0.0
C515 C 0.68065 0.88614 0.02756 0.0
C516 C 0.66012 0.87432 0.04176 0.0
C517 C 0.66988 0.8425 0.05055 0.0
C518 C 0.70014 0.82237 0.04514 0.0
C519 C 0.72076 0.83405 0.03095 0.0
H520 H 0.65396 0.83342 0.06155 0.0
H521 H 0.85328 0.94856 0.92388 0.0
H522 H 0.76374 0.16355 0.03928 0.0
H523 H 0.803 0.19271 0.01797 0.0
H524 H 0.85354 0.25612 0.05834 0.0
H525 H 0.81472 0.22645 0.07997 0.0
H526 H 0.83934 0.27604 0.01132 0.0
H527 H 0.90778 0.21189 0.0602 0.0
H528 H 0.90352 0.16361 0.08241 0.0
H529 H 0.87538 0.08559 0.04315 0.0
H530 H 0.8781 0.13383 0.02083 0.0
H531 H 0.00638 0.27778 0.96195 0.0
H532 H 0.96182 0.28448 0.98542 0.0
H533 H 0.93431 0.17053 0.98085 0.0
H534 H 0.97945 0.16344 0.95797 0.0
H535 H 0.94048 0.18617 0.01313 0.0
H536 H 0.87979 0.24247 0.96428 0.0
H537 H 0.87326 0.28668 0.94039 0.0
H538 H 0.87981 0.3752 0.97666 0.0
H539 H 0.88682 0.33148 1.00075 0.0
C540 C 0.78215 0.18477 0.0436 0.0
C541 C 0.78687 0.19194 0.06138 0.0
C542 C 0.80438 0.20163 0.03135 0.0
C543 C 0.83146 0.22606 0.03666 0.0
C544 C 0.83275 0.23723 0.05405 0.0
C545 C 0.81054 0.22019 0.0664 0.0
C546 C 0.86329 0.23122 0.0252 0.0
C547 C 0.86212 0.25724 0.01193 0.0
C548 C 0.89217 0.20578 0.02574 0.0
C549 C 0.89305 0.17639 0.03891 0.0
C550 C 0.90067 0.18443 0.05634 0.0
C551 C 0.89832 0.15715 0.06894 0.0
C552 C 0.88932 0.12153 0.06419 0.0
C553 C 0.88244 0.11317 0.04682 0.0
C554 C 0.88423 0.14049 0.03419 0.0
C555 C 0.99075 0.25421 0.96596 0.0
C556 C 0.99648 0.22006 0.95813 0.0
C557 C 0.9652 0.2581 0.97933 0.0
C558 C 0.94447 0.22807 0.98487 0.0
C559 C 0.95007 0.19409 0.97692 0.0
C560 C 0.97585 0.19008 0.96377 0.0
C561 C 0.91714 0.23136 0.99904 0.0
C562 C 0.91877 0.20623 0.01276 0.0
C563 C 0.88863 0.25752 0.99874 0.0
C564 C 0.88427 0.28375 0.98428 0.0
C565 C 0.88011 0.27137 0.96714 0.0
C566 C 0.87627 0.29633 0.95357 0.0
C567 C 0.87624 0.33373 0.957 0.0
C568 C 0.87992 0.34623 0.97402 0.0
C569 C 0.88381 0.32138 0.98763 0.0
H570 H 0.87327 0.35301 0.94647 0.0
H571 H 0.8877 0.10042 0.07396 0.0
H572 H 0.21575 0.17365 0.92063 0.0
H573 H 0.24864 0.13889 0.94282 0.0
H574 H 0.18462 0.19069 0.98271 0.0
H575 H 0.15175 0.22534 0.96072 0.0
H576 H 0.25677 0.17494 0.99331 0.0
H577 H 0.15363 0.11733 0.96414 0.0
H578 H 0.12292 0.09673 0.93747 0.0
H579 H 0.21184 0.02411 0.92666 0.0
H580 H 0.2438 0.04544 0.95294 0.0
H581 H 0.21715 0.0558 0.06152 0.0
H582 H 0.21922 0.09781 0.03712 0.0
H583 H 0.27307 0.01612 0.00607 0.0
H584 H 0.27015 0.97336 0.03042 0.0
H585 H 0.22029 0.04513 0.98831 0.0
H586 H 0.31866 0.09415 0.02052 0.0
H587 H 0.35141 0.11697 0.04622 0.0
H588 H 0.27451 0.20457 0.05118 0.0
H589 H 0.24096 0.182 0.02566 0.0
C590 C 0.20958 0.17855 0.93416 0.0
C591 C 0.18076 0.20174 0.93893 0.0
C592 C 0.22834 0.15862 0.94681 0.0
C593 C 0.21863 0.16184 0.96436 0.0
C594 C 0.19248 0.18775 0.96924 0.0
C595 C 0.17355 0.20737 0.95663 0.0
C596 C 0.23079 0.1346 0.97732 0.0
C597 C 0.249 0.14651 0.99225 0.0
C598 C 0.2213 0.09736 0.97569 0.0
C599 C 0.20132 0.08333 0.96036 0.0
C600 C 0.16675 0.09716 0.95601 0.0
C601 C 0.14916 0.08542 0.94095 0.0
C602 C 0.16543 0.05915 0.93036 0.0
C603 C 0.19932 0.04454 0.93485 0.0
C604 C 0.21726 0.05655 0.94979 0.0
C605 C 0.22982 0.04682 0.04958 0.0
C606 C 0.24343 0.01118 0.04792 0.0
C607 C 0.23123 0.07103 0.03563 0.0
C608 C 0.24682 0.06041 0.01979 0.0
C609 C 0.26103 0.02501 0.01818 0.0
C610 C 0.25936 0.00061 0.03211 0.0
C611 C 0.24569 0.0855 0.00465 0.0
C612 C 0.22919 0.07324 0.98929 0.0
C613 C 0.25697 0.12236 0.00588 0.0
C614 C 0.27717 0.13624 0.0212 0.0
C615 C 0.30859 0.11816 0.02715 0.0
C616 C 0.32732 0.13106 0.04168 0.0
C617 C 0.31503 0.16217 0.05034 0.0
C618 C 0.28401 0.18048 0.04446 0.0
C619 C 0.26516 0.16767 0.02993 0.0
H620 H 0.32956 0.17211 0.06159 0.0
H621 H 0.15171 0.05004 0.91872 0.0
H622 H 0.05829 0.76337 0.93939 0.0
H623 H 0.09928 0.76042 0.96425 0.0
H624 H 0.00898 0.73199 0.9974 0.0
H625 H 0.96763 0.73528 0.97258 0.0
H626 H 0.04682 0.78713 0.01059 0.0
H627 H 0.07562 0.66976 0.98879 0.0
H628 H 0.09204 0.62393 0.96678 0.0
H629 H 0.1937 0.67856 0.95774 0.0
H630 H 0.17772 0.72503 0.97955 0.0
H631 H 0.16514 0.78612 0.08173 0.0
H632 H 0.12782 0.75408 0.06028 0.0
H633 H 0.19581 0.79575 0.01924 0.0
H634 H 0.23286 0.82825 0.04054 0.0
H635 H 0.16603 0.72332 0.01279 0.0
H636 H 0.13042 0.84594 0.02988 0.0
H637 H 0.11407 0.89307 0.0513 0.0
H638 H 0.02397 0.82787 0.06858 0.0
H639 H 0.04033 0.77996 0.04748 0.0
C640 C 0.04717 0.75603 0.95191 0.0
C641 C 0.00964 0.74982 0.95401 0.0
C642 C 0.07071 0.7541 0.96612 0.0
C643 C 0.05726 0.74568 0.98268 0.0
C644 C 0.01996 0.73844 0.98473 0.0
C645 C 0.99638 0.74034 0.97052 0.0
C646 C 0.08162 0.74784 0.99802 0.0
C647 C 0.07241 0.77237 0.01127 0.0
C648 C 0.11536 0.72914 0.99878 0.0
C649 C 0.12534 0.70105 0.98575 0.0
C650 C 0.10138 0.67217 0.98203 0.0
C651 C 0.11062 0.64605 0.96959 0.0
C652 C 0.14383 0.64839 0.96082 0.0
C653 C 0.16796 0.67679 0.96453 0.0
C654 C 0.15885 0.703 0.97696 0.0
C655 C 0.173 0.7873 0.06821 0.0
C656 C 0.20161 0.81005 0.06277 0.0
C657 C 0.15159 0.76905 0.05597 0.0
C658 C 0.15886 0.77295 0.03819 0.0
C659 C 0.1898 0.79239 0.0329 0.0
C660 C 0.21083 0.81107 0.04508 0.0
C661 C 0.13116 0.76272 0.02511 0.0
C662 C 0.1399 0.7371 0.01227 0.0
C663 C 0.09688 0.78036 0.02466 0.0
C664 C 0.0869 0.80917 0.03729 0.0
C665 C 0.10737 0.84149 0.03838 0.0
C666 C 0.09808 0.86836 0.05044 0.0
C667 C 0.06808 0.86342 0.06133 0.0
C668 C 0.04728 0.83161 0.06017 0.0
C669 C 0.05657 0.80457 0.04818 0.0
H670 H 0.06088 0.88433 0.07061 0.0
H671 H 0.15091 0.62816 0.95118 0.0
H672 H 0.60943 0.87559 0.62006 0.0
H673 H 0.54917 0.90131 0.62672 0.0
H674 H 0.59302 0.00989 0.62163 0.0
H675 H 0.65313 0.98422 0.61521 0.0
H676 H 0.54156 0.00562 0.64778 0.0
H677 H 0.55554 0.97097 0.58781 0.0
H678 H 0.56884 0.92842 0.5639 0.0
H679 H 0.4808 0.85943 0.58025 0.0
H680 H 0.46742 0.90129 0.60448 0.0
H681 H 0.39135 0.11127 0.61655 0.0
H682 H 0.44899 0.08034 0.62328 0.0
H683 H 0.39271 0.97711 0.62493 0.0
H684 H 0.33539 0.008 0.61797 0.0
H685 H 0.44866 0.9744 0.60349 0.0
H686 H 0.42994 0.01497 0.66167 0.0
H687 H 0.41708 0.05944 0.68483 0.0
H688 H 0.51337 0.11943 0.67127 0.0
H689 H 0.52654 0.07562 0.64784 0.0
C690 C 0.60621 0.9049 0.62083 0.0
C691 C 0.63553 0.92806 0.61707 0.0
C692 C 0.57192 0.91955 0.62456 0.0
C693 C 0.56664 0.9575 0.62449 0.0
C694 C 0.59654 0.98058 0.62178 0.0
C695 C 0.63071 0.96594 0.61801 0.0
C696 C 0.52951 0.97321 0.62523 0.0
C697 C 0.52117 0.99891 0.63811 0.0
C698 C 0.5029 0.96408 0.6127 0.0
C699 C 0.51079 0.939 0.59809 0.0
C700 C 0.53923 0.94655 0.5864 0.0
C701 C 0.54676 0.92259 0.57278 0.0
C702 C 0.52575 0.89118 0.57059 0.0
C703 C 0.49711 0.88372 0.58199 0.0
C704 C 0.48956 0.90754 0.59568 0.0
C705 C 0.39133 0.08213 0.61882 0.0
C706 C 0.35927 0.06185 0.61679 0.0
C707 C 0.42414 0.06448 0.62268 0.0
C708 C 0.42512 0.02639 0.62467 0.0
C709 C 0.39259 0.00647 0.62344 0.0
C710 C 0.35994 0.02407 0.61951 0.0
C711 C 0.46039 0.0069 0.62609 0.0
C712 C 0.46859 0.98066 0.61344 0.0
C713 C 0.48681 0.01579 0.63877 0.0
C714 C 0.47908 0.04213 0.6529 0.0
C715 C 0.44823 0.03779 0.66353 0.0
C716 C 0.44091 0.06286 0.67672 0.0
C717 C 0.46435 0.09228 0.67949 0.0
C718 C 0.49522 0.09664 0.6691 0.0
C719 C 0.50265 0.07167 0.65587 0.0
H720 H 0.45863 0.11166 0.68972 0.0
H721 H 0.53159 0.87267 0.56002 0.0
H722 H 0.00685 0.66622 0.3903 0.0
H723 H 0.97443 0.60928 0.38442 0.0
H724 H 0.07723 0.55365 0.37803 0.0
H725 H 0.10968 0.61117 0.38338 0.0
H726 H 0.02619 0.52643 0.3561 0.0
H727 H 0.0347 0.55282 0.41714 0.0
H728 H 0.02781 0.59194 0.44293 0.0
H729 H 0.91242 0.5981 0.43422 0.0
H730 H 0.91867 0.55911 0.4083 0.0
H731 H 0.98371 0.34949 0.3887 0.0
H732 H 0.00727 0.41067 0.38259 0.0
H733 H 0.89744 0.45265 0.38166 0.0
H734 H 0.87379 0.39102 0.38744 0.0
H735 H 0.94666 0.48866 0.40496 0.0
H736 H 0.93945 0.45299 0.34559 0.0
H737 H 0.94913 0.4129 0.32037 0.0
H738 H 0.06499 0.42209 0.32673 0.0
H739 H 0.05602 0.4618 0.35217 0.0
C740 C 0.02239 0.64191 0.38729 0.0
C741 C 0.06059 0.64264 0.38745 0.0
C742 C 0.00393 0.60947 0.38398 0.0
C743 C 0.02344 0.57708 0.38117 0.0
C744 C 0.06167 0.57831 0.38022 0.0
C745 C 0.08017 0.61101 0.3833 0.0
C746 C 0.00415 0.5416 0.38095 0.0
C747 C 0.00897 0.51803 0.3668 0.0
C748 C 0.98123 0.53092 0.39482 0.0
C749 C 0.97719 0.55337 0.4107 0.0
C750 C 0.00787 0.56259 0.42071 0.0
C751 C 0.00408 0.5847 0.43535 0.0
C752 C 0.96973 0.59763 0.44016 0.0
C753 C 0.93902 0.58812 0.43045 0.0
C754 C 0.94265 0.56594 0.41581 0.0
C755 C 0.96469 0.37175 0.38685 0.0
C756 C 0.92709 0.36594 0.3885 0.0
C757 C 0.97808 0.40653 0.38332 0.0
C758 C 0.95404 0.43605 0.38161 0.0
C759 C 0.91633 0.4301 0.38285 0.0
C760 C 0.90289 0.39509 0.3861 0.0
C761 C 0.96877 0.47341 0.38014 0.0
C762 C 0.96335 0.49726 0.39409 0.0
C763 C 0.99148 0.484 0.36621 0.0
C764 C 0.99704 0.46016 0.35089 0.0
C765 C 0.967 0.44621 0.34172 0.0
C766 C 0.97236 0.42359 0.32736 0.0
C767 C 0.00765 0.41489 0.32197 0.0
C768 C 0.03767 0.42884 0.33092 0.0
C769 C 0.03246 0.45144 0.34531 0.0
H770 H 0.01175 0.39739 0.31085 0.0
H771 H 0.96694 0.61502 0.4514 0.0
H772 H 0.66354 0.00812 0.1215 0.0
H773 H 0.60543 0.97774 0.12735 0.0
H774 H 0.54979 0.08111 0.12365 0.0
H775 H 0.60825 0.11161 0.11808 0.0
H776 H 0.51899 0.0364 0.14844 0.0
H777 H 0.55492 0.02836 0.08829 0.0
H778 H 0.59684 0.01403 0.06424 0.0
H779 H 0.60073 0.90215 0.08044 0.0
H780 H 0.55881 0.91587 0.10464 0.0
H781 H 0.34562 0.98818 0.11523 0.0
H782 H 0.40624 0.01203 0.12195 0.0
H783 H 0.44829 0.90227 0.12448 0.0
H784 H 0.38746 0.8784 0.11749 0.0
H785 H 0.48808 0.9452 0.10325 0.0
H786 H 0.44249 0.95325 0.16097 0.0
H787 H 0.39877 0.96944 0.18397 0.0
H788 H 0.41147 0.08291 0.17181 0.0
H789 H 0.45487 0.06739 0.14854 0.0
C790 C 0.63894 0.02436 0.12239 0.0
C791 C 0.63999 0.062 0.11928 0.0
C792 C 0.60585 0.00705 0.12566 0.0
C793 C 0.57328 0.0271 0.12561 0.0
C794 C 0.57465 0.06517 0.12371 0.0
C795 C 0.6079 0.08255 0.12055 0.0
C796 C 0.53776 0.008 0.12571 0.0
C797 C 0.51207 0.01658 0.13854 0.0
C798 C 0.52911 0.98163 0.11296 0.0
C799 C 0.55407 0.97321 0.09837 0.0
C800 C 0.56486 0.00074 0.08677 0.0
C801 C 0.58852 0.99271 0.07309 0.0
C802 C 0.60157 0.95724 0.07087 0.0
C803 C 0.59068 0.92964 0.08222 0.0
C804 C 0.56689 0.93749 0.09589 0.0
C805 C 0.36778 0.96922 0.11747 0.0
C806 C 0.36218 0.93157 0.11585 0.0
C807 C 0.40227 0.9828 0.12143 0.0
C808 C 0.4317 0.9589 0.12387 0.0
C809 C 0.42587 0.92114 0.12273 0.0
C810 C 0.39124 0.90754 0.11882 0.0
C811 C 0.46901 0.97366 0.12594 0.0
C812 C 0.49509 0.96444 0.1134 0.0
C813 C 0.47776 -0.00039 0.13887 0.0
C814 C 0.45178 0.00911 0.15292 0.0
C815 C 0.43576 0.98164 0.1631 0.0
C816 C 0.41107 0.99071 0.17621 0.0
C817 C 0.4023 0.02718 0.17933 0.0
C818 C 0.41828 0.05467 0.16937 0.0
C819 C 0.44298 0.04575 0.15624 0.0
H820 H 0.38318 0.03414 0.18948 0.0
H821 H 0.62004 0.95116 0.06032 0.0
H822 H 0.00812 0.34311 0.88155 0.0
H823 H 0.98375 0.40388 0.87579 0.0
H824 H 0.09246 0.44851 0.87834 0.0
H825 H 0.11664 0.38763 0.88486 0.0
H826 H 0.04892 0.48585 0.89808 0.0
H827 H 0.04268 0.44544 0.83961 0.0
H828 H 0.02798 0.40403 0.81545 0.0
H829 H 0.91394 0.41374 0.827 0.0
H830 H 0.92796 0.45481 0.8514 0.0
H831 H 0.98438 0.66194 0.8815 0.0
H832 H 0.01495 0.60427 0.87488 0.0
H833 H 0.91252 0.54751 0.8798 0.0
H834 H 0.88181 0.60553 0.88632 0.0
H835 H 0.95758 0.51911 0.85334 0.0
H836 H 0.96589 0.55165 0.91421 0.0
H837 H 0.98064 0.59269 0.93854 0.0
H838 H 0.09204 0.59771 0.92171 0.0
H839 H 0.07788 0.55675 0.89722 0.0
C840 C 0.02678 0.3659 0.88062 0.0
C841 C 0.06415 0.36093 0.88363 0.0
C842 C 0.01293 0.40054 0.87717 0.0
C843 C 0.03631 0.43079 0.87642 0.0
C844 C 0.07394 0.42556 0.87878 0.0
C845 C 0.08777 0.39085 0.88237 0.0
C846 C 0.02092 0.46809 0.875 0.0
C847 C 0.02964 0.49332 0.88802 0.0
C848 C 0.99503 0.47765 0.86215 0.0
C849 C 0.98642 0.45305 0.84743 0.0
C850 C 0.01448 0.43855 0.83708 0.0
C851 C 0.00626 0.41516 0.82333 0.0
C852 C 0.97005 0.40621 0.81971 0.0
C853 C 0.94198 0.42069 0.82982 0.0
C854 C 0.95004 0.44408 0.8436 0.0
C855 C 0.96835 0.6372 0.88074 0.0
C856 C 0.93093 0.63781 0.88446 0.0
C857 C 0.98577 0.60437 0.87701 0.0
C858 C 0.96606 0.57163 0.87712 0.0
C859 C 0.92816 0.57254 0.87966 0.0
C860 C 0.91066 0.60553 0.88336 0.0
C861 C 0.98554 0.53634 0.87644 0.0
C862 C 0.97742 0.51161 0.86314 0.0
C863 C 0.01211 0.52715 0.88899 0.0
C864 C 0.02075 0.55147 0.9038 0.0
C865 C 0.99348 0.56166 0.91565 0.0
C866 C 0.00176 0.58482 0.92949 0.0
C867 C 0.03721 0.59794 0.93162 0.0
C868 C 0.06456 0.58763 0.92001 0.0
C869 C 0.05645 0.56436 0.90618 0.0
H870 H 0.04349 0.61603 0.94229 0.0
H871 H 0.96375 0.38809 0.80905 0.0
H872 H 0.13578 0.07978 0.63281 0.0
H873 H 0.07349 0.05693 0.63718 0.0
H874 H 0.07067 0.01972 0.58419 0.0
H875 H 0.13273 0.04144 0.5798 0.0
H876 H 0.00996 0.06771 0.59636 0.0
H877 H 0.08033 0.95866 0.61114 0.0
H878 H 0.12604 0.92534 0.62841 0.0
H879 H 0.06669 0.94949 0.675 0.0
H880 H 0.02088 0.98342 0.65799 0.0
H881 H 0.86441 0.95367 0.57871 0.0
H882 H 0.92277 0.98361 0.5828 0.0
H883 H 0.91129 0.97346 0.63831 0.0
H884 H 0.85329 0.94133 0.63416 0.0
H885 H 0.97691 0.95763 0.63024 0.0
H886 H 0.90145 0.0581 0.61613 0.0
H887 H 0.85507 0.09287 0.59996 0.0
H888 H 0.92212 0.08987 0.55437 0.0
H889 H 0.9687 0.05463 0.57018 0.0
C890 C 0.12199 0.06633 0.62217 0.0
C891 C 0.13916 0.06236 0.60597 0.0
C892 C 0.08651 0.05338 0.62469 0.0
C893 C 0.06767 0.03688 0.61096 0.0
C894 C 0.08488 0.0325 0.5949 0.0
C895 C 0.12042 0.04475 0.59247 0.0
C896 C 0.02956 0.02488 0.61295 0.0
C897 C 0.00255 0.04364 0.60374 0.0
C898 C 0.02001 0.99444 0.62317 0.0
C899 C 0.04749 0.97398 0.63334 0.0
C900 C 0.07725 0.9572 0.62509 0.0
C901 C 0.10312 0.93812 0.63482 0.0
C902 C 0.09935 0.93541 0.6528 0.0
C903 C 0.06962 0.95168 0.66107 0.0
C904 C 0.0437 0.97082 0.6514 0.0
C905 C 0.87405 0.95818 0.59181 0.0
C906 C 0.85417 0.94549 0.60613 0.0
C907 C 0.9074 0.97553 0.59415 0.0
C908 C 0.92109 0.98175 0.61089 0.0
C909 C 0.90118 0.96922 0.62527 0.0
C910 C 0.86806 0.95098 0.62291 0.0
C911 C 0.95704 -0.00029 0.6131 0.0
C912 C 0.98379 0.98221 0.62315 0.0
C913 C 0.96625 0.03183 0.60388 0.0
C914 C 0.93853 0.05355 0.59435 0.0
C915 C 0.90625 0.0647 0.60263 0.0
C916 C 0.87992 0.08451 0.59353 0.0
C917 C 0.88562 0.09354 0.57614 0.0
C918 C 0.91774 0.08287 0.56784 0.0
C919 C 0.94415 0.06304 0.57688 0.0
H920 H 0.86518 0.10882 0.56911 0.0
H921 H 0.11939 0.92062 0.66031 0.0
H922 H 0.06018 0.87285 0.42427 0.0
H923 H 0.03356 0.93272 0.41964 0.0
H924 H 0.04121 0.91766 0.36424 0.0
H925 H 0.06996 0.85802 0.3689 0.0
H926 H 0.05927 0.98371 0.37143 0.0
H927 H 0.95781 0.9109 0.38692 0.0
H928 H 0.92208 0.86638 0.40376 0.0
H929 H 0.92668 0.9362 0.44837 0.0
H930 H 0.96298 0.98089 0.4319 0.0
H931 H 0.93182 0.14029 0.36734 0.0
H932 H 0.95881 0.07961 0.36339 0.0
H933 H 0.99942 0.08246 0.4158 0.0
H934 H 0.97331 0.14287 0.41984 0.0
H935 H 0.9501 0.02054 0.40508 0.0
H936 H 0.05866 0.08948 0.38851 0.0
H937 H 0.09184 0.13338 0.37018 0.0
H938 H 0.06791 0.06914 0.32507 0.0
H939 H 0.03411 0.02511 0.34313 0.0
C940 C 0.05594 0.88211 0.41109 0.0
C941 C 0.06671 0.86061 0.39694 0.0
C942 C 0.04054 0.91633 0.40844 0.0
C943 C 0.03438 0.92937 0.39158 0.0
C944 C 0.04542 0.90807 0.37737 0.0
C945 C 0.0617 0.87401 0.38003 0.0
C946 C 0.01725 0.96564 0.38903 0.0
C947 C 0.03495 0.99147 0.37852 0.0
C948 C 0.98541 0.97592 0.39821 0.0
C949 C 0.96332 0.94919 0.40817 0.0
C950 C 0.95141 0.91668 0.40035 0.0
C951 C 0.93104 0.8914 0.40984 0.0
C952 C 0.92217 0.89843 0.42713 0.0
C953 C 0.93359 0.93079 0.43497 0.0
C954 C 0.95402 0.95613 0.42556 0.0
C955 C 0.947 0.12824 0.37792 0.0
C956 C 0.95005 0.14629 0.39397 0.0
C957 C 0.96241 0.09367 0.37562 0.0
C958 C 0.98078 0.07669 0.38936 0.0
C959 C 0.9852 0.09523 0.40508 0.0
C960 C 0.97031 0.12982 0.40733 0.0
C961 C 0.99293 0.03847 0.38809 0.0
C962 C 0.97404 0.01235 0.3978 0.0
C963 C 0.0231 0.02784 0.37794 0.0
C964 C 0.04344 0.0543 0.36713 0.0
C965 C 0.06011 0.08494 0.37466 0.0
C966 C 0.07913 0.10979 0.36432 0.0
C967 C 0.08186 0.10413 0.34646 0.0
C968 C 0.06569 0.07354 0.3389 0.0
C969 C 0.04663 0.04863 0.34918 0.0
H970 H 0.09661 0.12339 0.33848 0.0
H971 H 0.9064 0.87882 0.43445 0.0
H972 H 0.13357 0.91653 0.13444 0.0
H973 H 0.0749 0.94589 0.14036 0.0
H974 H 0.08199 0.00338 0.09167 0.0
H975 H 0.14064 0.97523 0.08592 0.0
H976 H 0.05564 0.04691 0.11531 0.0
H977 H 0.03393 0.92185 0.09689 0.0
H978 H 0.03928 0.855 0.09954 0.0
H979 H 0.98844 0.85909 0.14961 0.0
H980 H 0.98339 0.92602 0.1474 0.0
H981 H 0.85614 0.02473 0.08904 0.0
H982 H 0.91629 0.99953 0.09476 0.0
H983 H 0.93218 0.07753 0.13591 0.0
H984 H 0.87197 0.10354 0.13006 0.0
H985 H 0.94722 0.96746 0.122 0.0
H986 H 0.01586 0.10203 0.1371 0.0
H987 H 0.01235 0.16758 0.12994 0.0
H988 H 0.97066 0.14144 0.07945 0.0
H989 H 0.97272 0.07589 0.08656 0.0
C990 C 0.12279 0.93574 0.1251 0.0
C991 C 0.1417 0.94333 0.10965 0.0
C992 C 0.08923 0.95242 0.12849 0.0
C993 C 0.07388 0.97653 0.11637 0.0
C994 C 0.09333 0.98498 0.10125 0.0
C995 C 0.12687 0.96867 0.09794 0.0
C996 C 0.03677 0.99174 0.1187 0.0
C997 C 0.032 0.02953 0.11704 0.0
C998 C 0.00582 0.96914 0.12082 0.0
C999 C 0.0087 0.92893 0.12208 0.0
C1000 C 0.02414 0.90849 0.10851 0.0
C1001 C 0.02708 0.87062 0.10992 0.0
C1002 C 0.01427 0.85284 0.12473 0.0
C1003 C 0.99842 0.8729 0.13816 0.0
C1004 C 0.99554 0.9108 0.13685 0.0
C1005 C 0.87223 0.03649 0.0994 0.0
C1006 C 0.85924 0.0663 0.10905 0.0
C1007 C 0.90661 0.02191 0.10269 0.0
C1008 C 0.92881 0.03677 0.11568 0.0
C1009 C 0.91564 0.06591 0.12568 0.0
C1010 C 0.88115 0.08062 0.12238 0.0
C1011 C 0.9662 0.02242 0.11811 0.0
C1012 C 0.97097 0.98486 0.12076 0.0
C1013 C 0.99716 0.04502 0.11644 0.0
C1014 C 0.99412 0.08428 0.11242 0.0
C1015 C 0.00559 0.11039 0.12455 0.0
C1016 C 0.00367 0.1475 0.12053 0.0
C1017 C 0.99087 0.15869 0.10431 0.0
C1018 C 0.97988 0.13279 0.09211 0.0
C1019 C 0.98121 0.09569 0.09616 0.0
H1020 H 0.98969 0.18741 0.10116 0.0
H1021 H 0.01656 0.82352 0.12579 0.0
H1022 H 0.89312 0.87662 0.87724 0.0
H1023 H 0.9213 0.93573 0.87161 0.0
H1024 H 0.01986 0.89937 0.89684 0.0
H1025 H 0.99123 0.84084 0.90316 0.0
H1026 H 0.00143 0.96044 0.90961 0.0
H1027 H 0.01326 0.91618 0.85173 0.0
H1028 H 0.99332 0.88899 0.82408 0.0
H1029 H 0.91936 0.97806 0.81598 0.0
H1030 H 0.93844 0.00554 0.84371 0.0
H1031 H 0.10773 0.11506 0.87825 0.0
H1032 H 0.08218 0.05392 0.87414 0.0
H1033 H 0.97627 0.09345 0.88931 0.0
H1034 H 0.00187 0.15425 0.89422 0.0
H1035 H 0.00157 0.03102 0.85473 0.0
H1036 H 0.98302 0.06331 0.91806 0.0
H1037 H 0.00704 0.08815 0.9455 0.0
H1038 H 0.09935 0.01652 0.94213 0.0
H1039 H 0.07659 0.99246 0.91427 0.0
C1040 C 0.92101 0.88105 0.88133 0.0
C1041 C 0.93988 0.85428 0.89078 0.0
C1042 C 0.93718 0.9148 0.87801 0.0
C1043 C 0.97281 0.92201 0.88373 0.0
C1044 C 0.99228 0.89453 0.89239 0.0
C1045 C 0.97591 0.86109 0.89598 0.0
C1046 C 0.98844 0.95917 0.88231 0.0
C1047 C 0.00171 0.9755 0.89751 0.0
C1048 C 0.98862 0.97923 0.8666 0.0
C1049 C 0.97709 0.96279 0.84989 0.0
C1050 C 0.99253 0.92984 0.84413 0.0
C1051 C 0.98141 0.91439 0.82843 0.0
C1052 C 0.95505 0.93176 0.8183 0.0
C1053 C 0.93976 0.96463 0.82385 0.0
C1054 C 0.95075 0.98018 0.83955 0.0
C1055 C 0.07886 0.11086 0.88037 0.0
C1056 C 0.05679 0.13921 0.88671 0.0
C1057 C 0.06436 0.07601 0.87802 0.0
C1058 C 0.02753 0.06936 0.88159 0.0
C1059 C 0.00486 0.09819 0.88664 0.0
C1060 C 0.01949 0.13279 0.88944 0.0
C1061 C 0.01374 0.03169 0.882 0.0
C1062 C 0.0011 0.01548 0.86669 0.0
C1063 C 0.01435 0.0114 0.89752 0.0
C1064 C 0.02855 0.02673 0.91393 0.0
C1065 C 0.00884 0.05348 0.92298 0.0
C1066 C 0.02219 0.06735 0.93863 0.0
C1067 C 0.05485 0.05411 0.94549 0.0
C1068 C 0.07423 0.027 0.93672 0.0
C1069 C 0.06124 0.0134 0.92096 0.0
H1070 H 0.06507 0.06473 0.95764 0.0
H1071 H 0.94657 0.91982 0.80612 0.0
H1072 H 0.1839 0.23326 0.67512 0.0
H1073 H 0.17649 0.23974 0.70652 0.0
H1074 H 0.25472 0.15356 0.71471 0.0
H1075 H 0.26174 0.14682 0.68329 0.0
H1076 H 0.19988 0.14568 0.73641 0.0
H1077 H 0.27715 0.24478 0.71981 0.0
H1078 H 0.29551 0.29905 0.70311 0.0
H1079 H 0.20143 0.35682 0.72158 0.0
H1080 H 0.18223 0.3027 0.73822 0.0
H1081 H 0.23591 0.18557 0.82538 0.0
H1082 H 0.24242 0.17758 0.79394 0.0
H1083 H 0.15562 0.25488 0.78542 0.0
H1084 H 0.14943 0.26321 0.81684 0.0
H1085 H 0.21499 0.26675 0.76413 0.0
H1086 H 0.13876 0.16629 0.78108 0.0
H1087 H 0.12249 0.11191 0.79818 0.0
H1088 H 0.21773 0.05653 0.7794 0.0
H1089 H 0.23487 0.11082 0.76238 0.0
C1090 C 0.19929 0.21559 0.68366 0.0
C1091 C 0.22281 0.18907 0.67683 0.0
C1092 C 0.19521 0.2194 0.70159 0.0
C1093 C 0.21533 0.19738 0.71303 0.0
C1094 C 0.23873 0.1707 0.70617 0.0
C1095 C 0.24252 0.16666 0.68823 0.0
C1096 C 0.2122 0.20238 0.73212 0.0
C1097 C 0.20369 0.17208 0.74248 0.0
C1098 C 0.21654 0.23693 0.74007 0.0
C1099 C 0.22807 0.26957 0.73012 0.0
C1100 C 0.26023 0.26897 0.72021 0.0
C1101 C 0.27081 0.29972 0.71077 0.0
C1102 C 0.2496 0.33133 0.71125 0.0
C1103 C 0.21781 0.3323 0.7212 0.0
C1104 C 0.20708 0.30161 0.73065 0.0
C1105 C 0.21821 0.20072 0.81675 0.0
C1106 C 0.19156 0.22428 0.82346 0.0
C1107 C 0.22183 0.19607 0.79884 0.0
C1108 C 0.19912 0.21524 0.78735 0.0
C1109 C 0.17317 0.23957 0.79406 0.0
C1110 C 0.16937 0.244 0.81197 0.0
C1111 C 0.2026 0.21012 0.76834 0.0
C1112 C 0.21122 0.24039 0.75802 0.0
C1113 C 0.19867 0.17551 0.76046 0.0
C1114 C 0.18828 0.14276 0.77059 0.0
C1115 C 0.15639 0.14263 0.78071 0.0
C1116 C 0.14698 0.1118 0.79036 0.0
C1117 C 0.16911 0.08082 0.78991 0.0
C1118 C 0.20064 0.08057 0.77976 0.0
C1119 C 0.2102 0.11135 0.77009 0.0
H1120 H 0.16178 0.05697 0.7974 0.0
H1121 H 0.25784 0.35511 0.70393 0.0
H1122 H 0.28025 0.78487 0.18158 0.0
H1123 H 0.27312 0.77823 0.21295 0.0
H1124 H 0.16388 0.82131 0.20939 0.0
H1125 H 0.1715 0.82904 0.17807 0.0
H1126 H 0.19482 0.84907 0.23631 0.0
H1127 H 0.18292 0.72758 0.21478 0.0
H1128 H 0.20023 0.67256 0.19837 0.0
H1129 H 0.29771 0.66235 0.22878 0.0
H1130 H 0.28121 0.71762 0.24523 0.0
H1131 H 0.13522 0.78154 0.31879 0.0
H1132 H 0.14318 0.79155 0.28769 0.0
H1133 H 0.25834 0.77087 0.29275 0.0
H1134 H 0.25082 0.76231 0.32406 0.0
H1135 H 0.22393 0.73209 0.26546 0.0
H1136 H 0.23256 0.8549 0.28731 0.0
H1137 H 0.21136 0.90825 0.30393 0.0
H1138 H 0.11452 0.91345 0.27278 0.0
H1139 H 0.1349 0.85975 0.25614 0.0
C1140 C 0.25475 0.79292 0.18753 0.0
C1141 C 0.22656 0.80778 0.17746 0.0
C1142 C 0.2506 0.78896 0.20544 0.0
C1143 C 0.21773 0.79876 0.21358 0.0
C1144 C 0.18953 0.81365 0.20347 0.0
C1145 C 0.19392 0.81815 0.18558 0.0
C1146 C 0.21285 0.79367 0.2326 0.0
C1147 C 0.20073 0.8233 0.2426 0.0
C1148 C 0.22101 0.76023 0.24096 0.0
C1149 C 0.231 0.72695 0.23112 0.0
C1150 C 0.20818 0.71376 0.21788 0.0
C1151 C 0.21783 0.6825 0.20859 0.0
C1152 C 0.25009 0.66403 0.2125 0.0
C1153 C 0.27274 0.67672 0.22575 0.0
C1154 C 0.26325 0.70799 0.23507 0.0
C1155 C 0.16244 0.78037 0.31343 0.0
C1156 C 0.19263 0.77252 0.32402 0.0
C1157 C 0.16685 0.78561 0.2956 0.0
C1158 C 0.20142 0.78241 0.28797 0.0
C1159 C 0.23147 0.77368 0.29842 0.0
C1160 C 0.22713 0.76886 0.31628 0.0
C1161 C 0.20607 0.78743 0.26902 0.0
C1162 C 0.21807 0.75778 0.25908 0.0
C1163 C 0.19724 0.82061 0.26069 0.0
C1164 C 0.18509 0.85308 0.27059 0.0
C1165 C 0.2066 0.86722 0.2841 0.0
C1166 C 0.19476 0.89756 0.2935 0.0
C1167 C 0.16157 0.91417 0.28944 0.0
C1168 C 0.1402 0.90053 0.27593 0.0
C1169 C 0.1519 0.87016 0.2665 0.0
H1170 H 0.15244 0.93765 0.29674 0.0
H1171 H 0.25751 0.63983 0.20529 0.0
H1172 H 0.84654 0.73946 0.81909 0.0
H1173 H 0.84164 0.75038 0.78787 0.0
H1174 H 0.75492 0.82753 0.79703 0.0
H1175 H 0.75964 0.81624 0.82831 0.0
H1176 H 0.73834 0.78585 0.77056 0.0
H1177 H 0.84188 0.85554 0.787 0.0
H1178 H 0.90129 0.86719 0.8008 0.0
H1179 H 0.95194 0.78899 0.76712 0.0
H1180 H 0.89261 0.77627 0.75334 0.0
H1181 H 0.74277 0.85988 0.68513 0.0
H1182 H 0.74921 0.85505 0.7167 0.0
H1183 H 0.82461 0.76587 0.71017 0.0
H1184 H 0.8184 0.77087 0.67857 0.0
H1185 H 0.84699 0.81747 0.73535 0.0
H1186 H 0.74011 0.7472 0.72007 0.0
H1187 H 0.6798 0.73819 0.70665 0.0
H1188 H 0.63503 0.82296 0.73858 0.0
H1189 H 0.69524 0.83282 0.75202 0.0
C1190 C 0.82688 0.75917 0.81442 0.0
C1191 C 0.80415 0.7778 0.82605 0.0
C1192 C 0.82398 0.76532 0.7966 0.0
C1193 C 0.79843 0.79038 0.7901 0.0
C1194 C 0.775 0.80826 0.80173 0.0
C1195 C 0.77774 0.80189 0.81956 0.0
C1196 C 0.79588 0.79751 0.77117 0.0
C1197 C 0.76202 0.79332 0.76293 0.0
C1198 C 0.82683 0.80688 0.76113 0.0
C1199 C 0.86269 0.81471 0.76924 0.0
C1200 C 0.86562 0.84062 0.78261 0.0
C1201 C 0.8993 0.84744 0.79042 0.0
C1202 C 0.93038 0.82883 0.78485 0.0
C1203 C 0.92783 0.80338 0.77143 0.0
C1204 C 0.89418 0.79634 0.76361 0.0
C1205 C 0.76131 0.83982 0.69046 0.0
C1206 C 0.7807 0.81621 0.67949 0.0
C1207 C 0.76469 0.83684 0.70846 0.0
C1208 C 0.78738 0.81009 0.71576 0.0
C1209 C 0.80712 0.78681 0.70479 0.0
C1210 C 0.80348 0.78958 0.6868 0.0
C1211 C 0.7896 0.80549 0.73483 0.0
C1212 C 0.82337 0.81018 0.74306 0.0
C1213 C 0.7585 0.7971 0.74491 0.0
C1214 C 0.72225 0.791 0.73692 0.0
C1215 C 0.71747 0.76412 0.72413 0.0
C1216 C 0.68329 0.75882 0.71654 0.0
C1217 C 0.65362 0.78006 0.72172 0.0
C1218 C 0.65805 0.80657 0.73455 0.0
C1219 C 0.69218 0.81201 0.74217 0.0
H1220 H 0.62718 0.77592 0.71583 0.0
H1221 H 0.95643 0.83418 0.79091 0.0
H1222 H 0.75204 0.22552 0.32449 0.0
H1223 H 0.74392 0.21832 0.29323 0.0
H1224 H 0.8606 0.21426 0.28653 0.0
H1225 H 0.86879 0.22392 0.3176 0.0
H1226 H 0.83359 0.25423 0.26254 0.0
H1227 H 0.80437 0.13602 0.28414 0.0
H1228 H 0.77343 0.09048 0.30246 0.0
H1229 H 0.66997 0.12239 0.28133 0.0
H1230 H 0.70026 0.16851 0.26305 0.0
H1231 H 0.82727 0.17846 0.17674 0.0
H1232 H 0.83606 0.1844 0.20816 0.0
H1233 H 0.7244 0.21905 0.21381 0.0
H1234 H 0.71563 0.21362 0.18235 0.0
H1235 H 0.74948 0.16195 0.2379 0.0
H1236 H 0.78217 0.28119 0.21628 0.0
H1237 H 0.816 0.32378 0.19753 0.0
H1238 H 0.91726 0.28501 0.21848 0.0
H1239 H 0.88401 0.24177 0.23719 0.0
C1240 C 0.77595 0.2229 0.31635 0.0
C1241 C 0.81104 0.22394 0.32362 0.0
C1242 C 0.77128 0.2185 0.29848 0.0
C1243 C 0.80162 0.21477 0.2875 0.0
C1244 C 0.83672 0.21654 0.29472 0.0
C1245 C 0.84139 0.22138 0.31256 0.0
C1246 C 0.79677 0.21014 0.26846 0.0
C1247 C 0.81559 0.23365 0.25721 0.0
C1248 C 0.7729 0.18367 0.26138 0.0
C1249 C 0.75456 0.15597 0.27235 0.0
C1250 C 0.77499 0.13353 0.2835 0.0
C1251 C 0.75757 0.10758 0.29386 0.0
C1252 C 0.71975 0.10362 0.29309 0.0
C1253 C 0.69927 0.12554 0.28193 0.0
C1254 C 0.71654 0.15156 0.27156 0.0
C1255 C 0.80457 0.18708 0.18472 0.0
C1256 C 0.77067 0.19525 0.17721 0.0
C1257 C 0.80966 0.19064 0.20261 0.0
C1258 C 0.78084 0.20209 0.21326 0.0
C1259 C 0.74691 0.21006 0.20579 0.0
C1260 C 0.74199 0.20712 0.18786 0.0
C1261 C 0.7862 0.20601 0.2322 0.0
C1262 C 0.7675 0.18238 0.24336 0.0
C1263 C 0.81062 0.2319 0.23918 0.0
C1264 C 0.83062 0.25797 0.22799 0.0
C1265 C 0.81166 0.2815 0.21677 0.0
C1266 C 0.83073 0.30581 0.20618 0.0
C1267 C 0.86876 0.30703 0.20677 0.0
C1268 C 0.8878 0.284 0.21801 0.0
C1269 C 0.86886 0.2596 0.22862 0.0
H1270 H 0.88347 0.32588 0.19856 0.0
H1271 H 0.70632 0.0835 0.30111 0.0
loop_
_geom_bond_atom_site_label_1
_geom_bond_atom_site_label_2
_geom_bond_distance
_geom_bond_site_symmetry_2
_ccdc_geom_bond_type
Co0 O3 1.970 . S
Co0 N17 1.989 . S
Co0 O25 1.967 . S
Co0 O32 1.920 . S
Co1 O4 1.966 . S
Co1 N10 2.022 . S
Co1 N18 1.993 . S
Co1 O26 1.941 . S
C2 O3 1.258 . S
C2 O4 1.263 . S
O3 Co0 1.970 . S
O3 C2 1.258 . S
O4 Co1 1.966 . S
O4 C2 1.263 . S
C5 O6 1.235 1_545 S
C5 O32 1.289 . S
O6 C5 1.235 1_565 S
C7 C9 1.400 . S
C7 N10 1.351 . S
C7 C12 1.501 . S
C8 C9 1.387 . S
C8 N11 1.341 . S
C9 C7 1.400 . S
C9 C8 1.387 . S
N10 Co1 2.022 . S
N10 C7 1.351 . S
N10 N11 1.365 . S
N11 C8 1.341 . S
N11 N10 1.365 . S
N11 H31 0.862 . S
C12 C7 1.501 . S
C12 H13 0.961 . S
C12 H14 0.961 . S
C12 H15 0.960 . S
H13 C12 0.961 . S
H14 C12 0.961 . S
H15 C12 0.960 . S
C16 N17 1.342 . S
C16 C20 1.401 . S
C16 C21 1.499 . S
N17 Co0 1.989 . S
N17 C16 1.342 . S
N17 N18 1.388 . S
N18 Co1 1.993 . S
N18 N17 1.388 . S
N18 C19 1.346 . S
C19 N18 1.346 . S
C19 C20 1.396 . S
C19 C29 1.510 . S
C20 C16 1.401 . S
C20 C19 1.396 . S
C21 C16 1.499 . S
C21 H22 0.959 . S
C21 H23 0.960 . S
C21 H24 0.961 . S
H22 C21 0.959 . S
H23 C21 0.960 . S
H24 C21 0.961 . S
O25 Co0 1.967 . S
O25 C33 1.258 . S
O26 Co1 1.941 . S
O26 C33 1.266 . S
H27 C29 0.959 . S
H28 C29 0.961 . S
C29 C19 1.510 . S
C29 H27 0.959 . S
C29 H28 0.961 . S
C29 H30 0.960 . S
H30 C29 0.960 . S
H31 N11 0.862 . S
O32 Co0 1.920 . S
O32 C5 1.289 . S
C33 O25 1.258 . S
C33 O26 1.266 . S
Co34 O37 1.970 . S
Co34 N51 1.989 . S
Co34 O59 1.967 . S
Co34 O66 1.920 . S
Co35 O38 1.966 . S
Co35 N44 2.022 . S
Co35 N52 1.993 . S
Co35 O60 1.941 . S
C36 O37 1.258 . S
C36 O38 1.263 . S
O37 Co34 1.970 . S
O37 C36 1.258 . S
O38 Co35 1.966 . S
O38 C36 1.263 . S
C39 O40 1.235 1_455 S
C39 O66 1.289 . S
O40 C39 1.235 1_655 S
C41 C43 1.400 . S
C41 N44 1.351 . S
C41 C46 1.501 . S
C42 C43 1.387 . S
C42 N45 1.341 . S
C43 C41 1.400 . S
C43 C42 1.387 . S
N44 Co35 2.022 . S
N44 C41 1.351 . S
N44 N45 1.365 . S
N45 C42 1.341 . S
N45 N44 1.365 . S
N45 H65 0.862 . S
C46 C41 1.501 . S
C46 H47 0.961 . S
C46 H48 0.961 . S
C46 H49 0.960 . S
H47 C46 0.961 . S
H48 C46 0.961 . S
H49 C46 0.960 . S
C50 N51 1.342 . S
C50 C54 1.401 . S
C50 C55 1.499 . S
N51 Co34 1.989 . S
N51 C50 1.342 . S
N51 N52 1.388 . S
N52 Co35 1.993 . S
N52 N51 1.388 . S
N52 C53 1.346 . S
C53 N52 1.346 . S
C53 C54 1.396 . S
C53 C63 1.510 . S
C54 C50 1.401 . S
C54 C53 1.396 . S
C55 C50 1.499 . S
C55 H56 0.959 . S
C55 H57 0.960 . S
C55 H58 0.961 . S
H56 C55 0.959 . S
H57 C55 0.960 . S
H58 C55 0.961 . S
O59 Co34 1.967 . S
O59 C67 1.258 . S
O60 Co35 1.941 . S
O60 C67 1.266 . S
H61 C63 0.959 . S
H62 C63 0.961 . S
C63 C53 1.510 . S
C63 H61 0.959 . S
C63 H62 0.961 . S
C63 H64 0.960 . S
H64 C63 0.960 . S
H65 N45 0.862 . S
O66 Co34 1.920 . S
O66 C39 1.289 . S
C67 O59 1.258 . S
C67 O60 1.266 . S
Co68 O71 1.970 . S
Co68 N85 1.989 . S
Co68 O93 1.967 . S
Co68 O100 1.920 . S
Co69 O72 1.966 . S
Co69 N78 2.022 . S
Co69 N86 1.993 . S
Co69 O94 1.941 . S
C70 O71 1.258 . S
C70 O72 1.263 . S
O71 Co68 1.970 . S
O71 C70 1.258 . S
O72 Co69 1.966 . S
O72 C70 1.263 . S
C73 O74 1.235 1_565 S
C73 O100 1.289 . S
O74 C73 1.235 1_545 S
C75 C77 1.400 . S
C75 N78 1.351 . S
C75 C80 1.501 . S
C76 C77 1.387 . S
C76 N79 1.341 . S
C77 C75 1.400 . S
C77 C76 1.387 . S
N78 Co69 2.022 . S
N78 C75 1.351 . S
N78 N79 1.365 . S
N79 C76 1.341 . S
N79 N78 1.365 . S
N79 H99 0.862 . S
C80 C75 1.501 . S
C80 H81 0.961 . S
C80 H82 0.961 . S
C80 H83 0.960 . S
H81 C80 0.961 . S
H82 C80 0.961 . S
H83 C80 0.960 . S
C84 N85 1.342 . S
C84 C88 1.401 . S
C84 C89 1.499 . S
N85 Co68 1.989 . S
N85 C84 1.342 . S
N85 N86 1.388 . S
N86 Co69 1.993 . S
N86 N85 1.388 . S
N86 C87 1.346 . S
C87 N86 1.346 . S
C87 C88 1.396 . S
C87 C97 1.510 . S
C88 C84 1.401 . S
C88 C87 1.396 . S
C89 C84 1.499 . S
C89 H90 0.959 . S
C89 H91 0.960 . S
C89 H92 0.961 . S
H90 C89 0.959 . S
H91 C89 0.960 . S
H92 C89 0.961 . S
O93 Co68 1.967 . S
O93 C101 1.258 . S
O94 Co69 1.941 . S
O94 C101 1.266 . S
H95 C97 0.959 . S
H96 C97 0.961 . S
C97 C87 1.510 . S
C97 H95 0.959 . S
C97 H96 0.961 . S
C97 H98 0.960 . S
H98 C97 0.960 . S
H99 N79 0.862 . S
O100 Co68 1.920 . S
O100 C73 1.289 . S
C101 O93 1.258 . S
C101 O94 1.266 . S
Co102 O105 1.970 . S
Co102 N119 1.989 . S
Co102 O127 1.967 . S
Co102 O134 1.920 . S
Co103 O106 1.966 . S
Co103 N112 2.022 . S
Co103 N120 1.993 . S
Co103 O128 1.941 . S
C104 O105 1.258 . S
C104 O106 1.263 . S
O105 Co102 1.970 . S
O105 C104 1.258 . S
O106 Co103 1.966 . S
O106 C104 1.263 . S
C107 O108 1.235 1_655 S
C107 O134 1.289 . S
O108 C107 1.235 1_455 S
C109 C111 1.400 . S
C109 N112 1.351 . S
C109 C114 1.501 . S
C110 C111 1.387 . S
C110 N113 1.341 . S
C111 C109 1.400 . S
C111 C110 1.387 . S
N112 Co103 2.022 . S
N112 C109 1.351 . S
N112 N113 1.365 . S
N113 C110 1.341 . S
N113 N112 1.365 . S
N113 H133 0.862 . S
C114 C109 1.501 . S
C114 H115 0.961 . S
C114 H116 0.961 . S
C114 H117 0.960 . S
H115 C114 0.961 . S
H116 C114 0.961 . S
H117 C114 0.960 . S
C118 N119 1.342 . S
C118 C122 1.401 . S
C118 C123 1.499 . S
N119 Co102 1.989 . S
N119 C118 1.342 . S
N119 N120 1.388 . S
N120 Co103 1.993 . S
N120 N119 1.388 . S
N120 C121 1.346 . S
C121 N120 1.346 . S
C121 C122 1.396 . S
C121 C131 1.510 . S
C122 C118 1.401 . S
C122 C121 1.396 . S
C123 C118 1.499 . S
C123 H124 0.959 . S
C123 H125 0.960 . S
C123 H126 0.961 . S
H124 C123 0.959 . S
H125 C123 0.960 . S
H126 C123 0.961 . S
O127 Co102 1.967 . S
O127 C135 1.258 . S
O128 Co103 1.941 . S
O128 C135 1.266 . S
H129 C131 0.959 . S
H130 C131 0.961 . S
C131 C121 1.510 . S
C131 H129 0.959 . S
C131 H130 0.961 . S
C131 H132 0.960 . S
H132 C131 0.960 . S
H133 N113 0.862 . S
O134 Co102 1.920 . S
O134 C107 1.289 . S
C135 O127 1.258 . S
C135 O128 1.266 . S
Co136 O139 1.970 . S
Co136 N153 1.989 . S
Co136 O161 1.967 . S
Co136 O168 1.920 . S
Co137 O140 1.966 . S
Co137 N146 2.022 . S
Co137 N154 1.993 . S
Co137 O162 1.941 . S
C138 O139 1.258 . S
C138 O140 1.263 . S
O139 Co136 1.970 . S
O139 C138 1.258 . S
O140 Co137 1.966 . S
O140 C138 1.263 . S
C141 O142 1.235 1_545 S
C141 O168 1.289 . S
O142 C141 1.235 1_565 S
C143 C145 1.400 . S
C143 N146 1.351 . S
C143 C148 1.501 . S
C144 C145 1.387 . S
C144 N147 1.341 . S
C145 C143 1.400 . S
C145 C144 1.387 . S
N146 Co137 2.022 . S
N146 C143 1.351 . S
N146 N147 1.365 . S
N147 C144 1.341 . S
N147 N146 1.365 . S
N147 H167 0.862 . S
C148 C143 1.501 . S
C148 H149 0.961 . S
C148 H150 0.961 . S
C148 H151 0.960 . S
H149 C148 0.961 . S
H150 C148 0.961 . S
H151 C148 0.960 . S
C152 N153 1.342 . S
C152 C156 1.401 . S
C152 C157 1.499 . S
N153 Co136 1.989 . S
N153 C152 1.342 . S
N153 N154 1.388 . S
N154 Co137 1.993 . S
N154 N153 1.388 . S
N154 C155 1.346 . S
C155 N154 1.346 . S
C155 C156 1.396 . S
C155 C165 1.510 . S
C156 C152 1.401 . S
C156 C155 1.396 . S
C157 C152 1.499 . S
C157 H158 0.959 . S
C157 H159 0.960 . S
C157 H160 0.961 . S
H158 C157 0.959 . S
H159 C157 0.960 . S
H160 C157 0.961 . S
O161 Co136 1.967 . S
O161 C169 1.258 . S
O162 Co137 1.941 . S
O162 C169 1.266 . S
H163 C165 0.959 . S
H164 C165 0.961 . S
C165 C155 1.510 . S
C165 H163 0.959 . S
C165 H164 0.961 . S
C165 H166 0.960 . S
H166 C165 0.960 . S
H167 N147 0.862 . S
O168 Co136 1.920 . S
O168 C141 1.289 . S
C169 O161 1.258 . S
C169 O162 1.266 . S
Co170 O173 1.970 . S
Co170 N187 1.989 . S
Co170 O195 1.967 . S
Co170 O202 1.920 . S
Co171 O174 1.966 . S
Co171 N180 2.022 . S
Co171 N188 1.993 . S
Co171 O196 1.941 . S
C172 O173 1.258 . S
C172 O174 1.263 . S
O173 Co170 1.970 . S
O173 C172 1.258 . S
O174 Co171 1.966 . S
O174 C172 1.263 . S
C175 O176 1.235 1_455 S
C175 O202 1.289 . S
O176 C175 1.235 1_655 S
C177 C179 1.400 . S
C177 N180 1.351 . S
C177 C182 1.501 . S
C178 C179 1.387 . S
C178 N181 1.341 . S
C179 C177 1.400 . S
C179 C178 1.387 . S
N180 Co171 2.022 . S
N180 C177 1.351 . S
N180 N181 1.365 . S
N181 C178 1.341 . S
N181 N180 1.365 . S
N181 H201 0.862 . S
C182 C177 1.501 . S
C182 H183 0.961 . S
C182 H184 0.961 . S
C182 H185 0.960 . S
H183 C182 0.961 . S
H184 C182 0.961 . S
H185 C182 0.960 . S
C186 N187 1.342 . S
C186 C190 1.401 . S
C186 C191 1.499 . S
N187 Co170 1.989 . S
N187 C186 1.342 . S
N187 N188 1.388 . S
N188 Co171 1.993 . S
N188 N187 1.388 . S
N188 C189 1.346 . S
C189 N188 1.346 . S
C189 C190 1.396 . S
C189 C199 1.510 . S
C190 C186 1.401 . S
C190 C189 1.396 . S
C191 C186 1.499 . S
C191 H192 0.959 . S
C191 H193 0.960 . S
C191 H194 0.961 . S
H192 C191 0.959 . S
H193 C191 0.960 . S
H194 C191 0.961 . S
O195 Co170 1.967 . S
O195 C203 1.258 . S
O196 Co171 1.941 . S
O196 C203 1.266 . S
H197 C199 0.959 . S
H198 C199 0.961 . S
C199 C189 1.510 . S
C199 H197 0.959 . S
C199 H198 0.961 . S
C199 H200 0.960 . S
H200 C199 0.960 . S
H201 N181 0.862 . S
O202 Co170 1.920 . S
O202 C175 1.289 . S
C203 O195 1.258 . S
C203 O196 1.266 . S
Co204 O207 1.970 . S
Co204 N221 1.989 . S
Co204 O229 1.967 . S
Co204 O236 1.920 . S
Co205 O208 1.966 . S
Co205 N214 2.022 . S
Co205 N222 1.993 . S
Co205 O230 1.941 . S
C206 O207 1.258 . S
C206 O208 1.263 . S
O207 Co204 1.970 . S
O207 C206 1.258 . S
O208 Co205 1.966 . S
O208 C206 1.263 . S
C209 O210 1.235 1_565 S
C209 O236 1.289 . S
O210 C209 1.235 1_545 S
C211 C213 1.400 . S
C211 N214 1.351 . S
C211 C216 1.501 . S
C212 C213 1.387 . S
C212 N215 1.341 . S
C213 C211 1.400 . S
C213 C212 1.387 . S
N214 Co205 2.022 . S
N214 C211 1.351 . S
N214 N215 1.365 . S
N215 C212 1.341 . S
N215 N214 1.365 . S
N215 H235 0.862 . S
C216 C211 1.501 . S
C216 H217 0.961 . S
C216 H218 0.961 . S
C216 H219 0.960 . S
H217 C216 0.961 . S
H218 C216 0.961 . S
H219 C216 0.960 . S
C220 N221 1.342 . S
C220 C224 1.401 . S
C220 C225 1.499 . S
N221 Co204 1.989 . S
N221 C220 1.342 . S
N221 N222 1.388 . S
N222 Co205 1.993 . S
N222 N221 1.388 . S
N222 C223 1.346 . S
C223 N222 1.346 . S
C223 C224 1.396 . S
C223 C233 1.510 . S
C224 C220 1.401 . S
C224 C223 1.396 . S
C225 C220 1.499 . S
C225 H226 0.959 . S
C225 H227 0.960 . S
C225 H228 0.961 . S
H226 C225 0.959 . S
H227 C225 0.960 . S
H228 C225 0.961 . S
O229 Co204 1.967 . S
O229 C237 1.258 . S
O230 Co205 1.941 . S
O230 C237 1.266 . S
H231 C233 0.959 . S
H232 C233 0.961 . S
C233 C223 1.510 . S
C233 H231 0.959 . S
C233 H232 0.961 . S
C233 H234 0.960 . S
H234 C233 0.960 . S
H235 N215 0.862 . S
O236 Co204 1.920 . S
O236 C209 1.289 . S
C237 O229 1.258 . S
C237 O230 1.266 . S
Co238 O241 1.970 . S
Co238 N255 1.989 . S
Co238 O263 1.967 . S
Co238 O270 1.920 . S
Co239 O242 1.966 . S
Co239 N248 2.022 . S
Co239 N256 1.993 . S
Co239 O264 1.941 . S
C240 O241 1.258 . S
C240 O242 1.263 . S
O241 Co238 1.970 . S
O241 C240 1.258 . S
O242 Co239 1.966 . S
O242 C240 1.263 . S
C243 O244 1.235 1_655 S
C243 O270 1.289 . S
O244 C243 1.235 1_455 S
C245 C247 1.400 . S
C245 N248 1.351 . S
C245 C250 1.501 . S
C246 C247 1.387 . S
C246 N249 1.341 . S
C247 C245 1.400 . S
C247 C246 1.387 . S
N248 Co239 2.022 . S
N248 C245 1.351 . S
N248 N249 1.365 . S
N249 C246 1.341 . S
N249 N248 1.365 . S
N249 H269 0.862 . S
C250 C245 1.501 . S
C250 H251 0.961 . S
C250 H252 0.961 . S
C250 H253 0.960 . S
H251 C250 0.961 . S
H252 C250 0.961 . S
H253 C250 0.960 . S
C254 N255 1.342 . S
C254 C258 1.401 . S
C254 C259 1.499 . S
N255 Co238 1.989 . S
N255 C254 1.342 . S
N255 N256 1.388 . S
N256 Co239 1.993 . S
N256 N255 1.388 . S
N256 C257 1.346 . S
C257 N256 1.346 . S
C257 C258 1.396 . S
C257 C267 1.510 . S
C258 C254 1.401 . S
C258 C257 1.396 . S
C259 C254 1.499 . S
C259 H260 0.959 . S
C259 H261 0.960 . S
C259 H262 0.961 . S
H260 C259 0.959 . S
H261 C259 0.960 . S
H262 C259 0.961 . S
O263 Co238 1.967 . S
O263 C271 1.258 . S
O264 Co239 1.941 . S
O264 C271 1.266 . S
H265 C267 0.959 . S
H266 C267 0.961 . S
C267 C257 1.510 . S
C267 H265 0.959 . S
C267 H266 0.961 . S
C267 H268 0.960 . S
H268 C267 0.960 . S
H269 N249 0.862 . S
O270 Co238 1.920 . S
O270 C243 1.289 . S
C271 O263 1.258 . S
C271 O264 1.266 . S
H272 C290 0.951 . S
H273 C292 0.951 . S
H274 C294 0.950 . S
H275 C295 0.950 . S
H276 C297 0.950 . S
H277 C300 0.950 . S
H278 C301 0.950 . S
H279 C303 0.950 . S
H280 C304 0.950 . S
H281 C305 0.951 . S
H282 C307 0.951 . S
H283 C309 0.950 . S
H284 C310 0.950 . S
H285 C312 0.950 . S
H286 C315 0.950 . S
H287 C316 0.950 . S
H288 C318 0.950 1_545 S
H289 C319 0.950 . S
C290 H272 0.951 . S
C290 C291 1.366 1_565 S
C290 C292 1.388 . S
C291 C290 1.366 1_545 S
C291 C295 1.385 . S
C292 H273 0.951 . S
C292 C290 1.388 . S
C292 C293 1.366 . S
C293 C292 1.366 . S
C293 C294 1.414 . S
C293 C296 1.499 . S
C294 H274 0.950 . S
C294 C293 1.414 . S
C294 C295 1.374 1_565 S
C295 H275 0.950 . S
C295 C291 1.385 . S
C295 C294 1.374 1_545 S
C296 C293 1.499 . S
C296 C297 1.373 . S
C296 C298 1.389 . S
C297 H276 0.950 . S
C297 C296 1.373 . S
C297 C313 1.377 . S
C298 C296 1.389 . S
C298 C299 1.524 . S
C298 C312 1.377 . S
C299 C298 1.524 . S
C299 C300 1.397 . S
C299 C304 1.363 . S
C300 H277 0.950 . S
C300 C299 1.397 . S
C300 C301 1.334 . S
C301 H278 0.950 . S
C301 C300 1.334 . S
C301 C302 1.287 . S
C302 C301 1.287 . S
C302 C303 1.524 . S
C302 H321 0.913 . S
C303 H279 0.950 . S
C303 C302 1.524 . S
C303 C304 1.415 . S
C304 H280 0.950 . S
C304 C299 1.363 . S
C304 C303 1.415 . S
C305 H281 0.951 . S
C305 C306 1.366 . S
C305 C307 1.388 . S
C306 C305 1.366 . S
C306 C310 1.385 . S
C307 H282 0.951 . S
C307 C305 1.388 . S
C307 C308 1.366 . S
C308 C307 1.366 . S
C308 C309 1.414 . S
C308 C311 1.499 . S
C309 H283 0.950 . S
C309 C308 1.414 . S
C309 C310 1.374 . S
C310 H284 0.950 . S
C310 C306 1.385 . S
C310 C309 1.374 . S
C311 C308 1.499 . S
C311 C312 1.373 . S
C311 C313 1.389 . S
C312 H285 0.950 . S
C312 C298 1.377 . S
C312 C311 1.373 . S
C313 C297 1.377 . S
C313 C311 1.389 . S
C313 C314 1.524 . S
C314 C313 1.524 . S
C314 C315 1.397 . S
C314 C319 1.363 . S
C315 H286 0.950 . S
C315 C314 1.397 . S
C315 C316 1.334 . S
C316 H287 0.950 . S
C316 C315 1.334 . S
C316 C317 1.287 . S
C317 C316 1.287 . S
C317 C318 1.524 . S
C317 H320 0.999 . S
C318 H288 0.950 1_565 S
C318 C317 1.524 . S
C318 C319 1.415 . S
C319 H289 0.950 . S
C319 C314 1.363 . S
C319 C318 1.415 . S
H320 C317 0.999 . S
H321 C302 0.913 . S
H322 C340 0.951 . S
H323 C342 0.951 . S
H324 C344 0.950 . S
H325 C345 0.950 . S
H326 C347 0.950 . S
H327 C350 0.950 . S
H328 C351 0.950 . S
H329 C353 0.950 . S
H330 C354 0.950 . S
H331 C355 0.951 . S
H332 C357 0.951 . S
H333 C359 0.950 1_455 S
H334 C360 0.950 . S
H335 C362 0.950 . S
H336 C365 0.950 . S
H337 C366 0.950 . S
H338 C368 0.950 . S
H339 C369 0.950 . S
C340 H322 0.951 . S
C340 C341 1.366 . S
C340 C342 1.388 . S
C341 C340 1.366 . S
C341 C345 1.385 . S
C342 H323 0.951 . S
C342 C340 1.388 . S
C342 C343 1.366 . S
C343 C342 1.366 . S
C343 C344 1.414 . S
C343 C346 1.499 . S
C344 H324 0.950 . S
C344 C343 1.414 . S
C344 C345 1.374 . S
C345 H325 0.950 . S
C345 C341 1.385 . S
C345 C344 1.374 . S
C346 C343 1.499 . S
C346 C347 1.373 . S
C346 C348 1.389 . S
C347 H326 0.950 . S
C347 C346 1.373 . S
C347 C363 1.377 . S
C348 C346 1.389 . S
C348 C349 1.524 . S
C348 C362 1.377 . S
C349 C348 1.524 . S
C349 C350 1.397 . S
C349 C354 1.363 . S
C350 H327 0.950 . S
C350 C349 1.397 . S
C350 C351 1.334 . S
C351 H328 0.950 . S
C351 C350 1.334 . S
C351 C352 1.287 . S
C352 C351 1.287 . S
C352 C353 1.524 . S
C352 H371 0.913 . S
C353 H329 0.950 . S
C353 C352 1.524 . S
C353 C354 1.415 . S
C354 H330 0.950 . S
C354 C349 1.363 . S
C354 C353 1.415 . S
C355 H331 0.951 . S
C355 C356 1.366 1_655 S
C355 C357 1.388 . S
C356 C355 1.366 1_455 S
C356 C360 1.385 . S
C357 H332 0.951 . S
C357 C355 1.388 . S
C357 C358 1.366 . S
C358 C357 1.366 . S
C358 C359 1.414 . S
C358 C361 1.499 . S
C359 H333 0.950 1_655 S
C359 C358 1.414 . S
C359 C360 1.374 1_655 S
C360 H334 0.950 . S
C360 C356 1.385 . S
C360 C359 1.374 1_455 S
C361 C358 1.499 . S
C361 C362 1.373 . S
C361 C363 1.389 . S
C362 H335 0.950 . S
C362 C348 1.377 . S
C362 C361 1.373 . S
C363 C347 1.377 . S
C363 C361 1.389 . S
C363 C364 1.524 . S
C364 C363 1.524 . S
C364 C365 1.397 . S
C364 C369 1.363 . S
C365 H336 0.950 . S
C365 C364 1.397 . S
C365 C366 1.334 . S
C366 H337 0.950 . S
C366 C365 1.334 . S
C366 C367 1.287 . S
C367 C366 1.287 . S
C367 C368 1.524 . S
C367 H370 0.999 . S
C368 H338 0.950 . S
C368 C367 1.524 . S
C368 C369 1.415 . S
C369 H339 0.950 . S
C369 C364 1.363 . S
C369 C368 1.415 . S
H370 C367 0.999 . S
H371 C352 0.913 . S
H372 C390 0.951 . S
H373 C392 0.951 1_565 S
H374 C394 0.950 . S
H375 C395 0.950 . S
H376 C397 0.950 . S
H377 C400 0.950 . S
H378 C401 0.950 . S
H379 C403 0.950 . S
H380 C404 0.950 . S
H381 C405 0.951 . S
H382 C407 0.951 . S
H383 C409 0.950 . S
H384 C410 0.950 . S
H385 C412 0.950 . S
H386 C415 0.950 . S
H387 C416 0.950 . S
H388 C418 0.950 . S
H389 C419 0.950 . S
C390 H372 0.951 . S
C390 C391 1.366 . S
C390 C392 1.388 1_565 S
C391 C390 1.366 . S
C391 C395 1.385 1_565 S
C392 H373 0.951 1_545 S
C392 C390 1.388 1_545 S
C392 C393 1.366 . S
C393 C392 1.366 . S
C393 C394 1.414 . S
C393 C396 1.499 . S
C394 H374 0.950 . S
C394 C393 1.414 . S
C394 C395 1.374 . S
C395 H375 0.950 . S
C395 C391 1.385 1_545 S
C395 C394 1.374 . S
C396 C393 1.499 . S
C396 C397 1.373 . S
C396 C398 1.389 . S
C397 H376 0.950 . S
C397 C396 1.373 . S
C397 C413 1.377 . S
C398 C396 1.389 . S
C398 C399 1.524 . S
C398 C412 1.377 . S
C399 C398 1.524 . S
C399 C400 1.397 . S
C399 C404 1.363 . S
C400 H377 0.950 . S
C400 C399 1.397 . S
C400 C401 1.334 . S
C401 H378 0.950 . S
C401 C400 1.334 . S
C401 C402 1.287 . S
C402 C401 1.287 . S
C402 C403 1.524 . S
C402 H421 0.913 . S
C403 H379 0.950 . S
C403 C402 1.524 . S
C403 C404 1.415 . S
C404 H380 0.950 . S
C404 C399 1.363 . S
C404 C403 1.415 . S
C405 H381 0.951 . S
C405 C406 1.366 . S
C405 C407 1.388 . S
C406 C405 1.366 . S
C406 C410 1.385 . S
C407 H382 0.951 . S
C407 C405 1.388 . S
C407 C408 1.366 . S
C408 C407 1.366 . S
C408 C409 1.414 . S
C408 C411 1.499 . S
C409 H383 0.950 . S
C409 C408 1.414 . S
C409 C410 1.374 . S
C410 H384 0.950 . S
C410 C406 1.385 . S
C410 C409 1.374 . S
C411 C408 1.499 . S
C411 C412 1.373 . S
C411 C413 1.389 . S
C412 H385 0.950 . S
C412 C398 1.377 . S
C412 C411 1.373 . S
C413 C397 1.377 . S
C413 C411 1.389 . S
C413 C414 1.524 . S
C414 C413 1.524 . S
C414 C415 1.397 . S
C414 C419 1.363 . S
C415 H386 0.950 . S
C415 C414 1.397 . S
C415 C416 1.334 . S
C416 H387 0.950 . S
C416 C415 1.334 . S
C416 C417 1.287 . S
C417 C416 1.287 . S
C417 C418 1.524 . S
C417 H420 0.999 . S
C418 H388 0.950 . S
C418 C417 1.524 . S
C418 C419 1.415 . S
C419 H389 0.950 . S
C419 C414 1.363 . S
C419 C418 1.415 . S
H420 C417 0.999 . S
H421 C402 0.913 . S
H422 C440 0.951 . S
H423 C442 0.951 . S
H424 C444 0.950 . S
H425 C445 0.950 . S
H426 C447 0.950 . S
H427 C450 0.950 . S
H428 C451 0.950 . S
H429 C453 0.950 . S
H430 C454 0.950 . S
H431 C455 0.951 . S
H432 C457 0.951 . S
H433 C459 0.946 1_655 S
H434 C460 0.950 . S
H435 C462 0.950 . S
H436 C465 0.950 . S
H437 C466 0.950 . S
H438 C468 0.950 . S
H439 C469 0.950 . S
C440 H422 0.951 . S
C440 C441 1.366 . S
C440 C442 1.388 . S
C441 C440 1.366 . S
C441 C445 1.385 . S
C442 H423 0.951 . S
C442 C440 1.388 . S
C442 C443 1.366 . S
C443 C442 1.366 . S
C443 C444 1.414 . S
C443 C446 1.499 . S
C444 H424 0.950 . S
C444 C443 1.414 . S
C444 C445 1.374 . S
C445 H425 0.950 . S
C445 C441 1.385 . S
C445 C444 1.374 . S
C446 C443 1.499 . S
C446 C447 1.373 . S
C446 C448 1.389 . S
C447 H426 0.950 . S
C447 C446 1.373 . S
C447 C463 1.377 . S
C448 C446 1.389 . S
C448 C449 1.524 . S
C448 C462 1.377 . S
C449 C448 1.524 . S
C449 C450 1.397 . S
C449 C454 1.363 . S
C450 H427 0.950 . S
C450 C449 1.397 . S
C450 C451 1.334 . S
C451 H428 0.950 . S
C451 C450 1.334 . S
C451 C452 1.287 . S
C452 C451 1.287 . S
C452 C453 1.524 . S
C452 H471 0.913 . S
C453 H429 0.950 . S
C453 C452 1.524 . S
C453 C454 1.415 . S
C454 H430 0.950 . S
C454 C449 1.363 . S
C454 C453 1.415 . S
C455 H431 0.951 . S
C455 C456 1.366 1_455 S
C455 C457 1.388 . S
C456 C455 1.366 1_655 S
C456 C460 1.385 . S
C457 H432 0.951 . S
C457 C455 1.388 . S
C457 C458 1.366 . S
C458 C457 1.366 . S
C458 C459 1.414 . S
C458 C461 1.499 . S
C459 H433 0.946 1_455 S
C459 C458 1.414 . S
C459 C460 1.374 1_455 S
C460 H434 0.950 . S
C460 C456 1.385 . S
C460 C459 1.374 1_655 S
C461 C458 1.499 . S
C461 C462 1.373 . S
C461 C463 1.389 . S
C462 H435 0.950 . S
C462 C448 1.377 . S
C462 C461 1.373 . S
C463 C447 1.377 . S
C463 C461 1.389 . S
C463 C464 1.524 . S
C464 C463 1.524 . S
C464 C465 1.397 . S
C464 C469 1.363 . S
C465 H436 0.950 . S
C465 C464 1.397 . S
C465 C466 1.334 . S
C466 H437 0.950 . S
C466 C465 1.334 . S
C466 C467 1.287 . S
C467 C466 1.287 . S
C467 C468 1.524 . S
C467 H470 0.999 . S
C468 H438 0.950 . S
C468 C467 1.524 . S
C468 C469 1.415 . S
C469 H439 0.950 . S
C469 C464 1.363 . S
C469 C468 1.415 . S
H470 C467 0.999 . S
H471 C452 0.913 . S
H472 C490 0.951 . S
H473 C492 0.951 . S
H474 C494 0.950 . S
H475 C495 0.950 . S
H476 C497 0.950 . S
H477 C500 0.950 . S
H478 C501 0.950 . S
H479 C503 0.950 . S
H480 C504 0.950 . S
H481 C505 0.951 . S
H482 C507 0.951 . S
H483 C509 0.950 . S
H484 C510 0.950 . S
H485 C512 0.950 . S
H486 C515 0.950 . S
H487 C516 0.950 . S
H488 C518 0.950 . S
H489 C519 0.950 . S
C490 H472 0.951 . S
C490 C491 1.366 . S
C490 C492 1.388 . S
C491 C490 1.366 . S
C491 C495 1.385 . S
C492 H473 0.951 . S
C492 C490 1.388 . S
C492 C493 1.366 . S
C493 C492 1.366 . S
C493 C494 1.414 . S
C493 C496 1.499 . S
C494 H474 0.950 . S
C494 C493 1.414 . S
C494 C495 1.374 . S
C495 H475 0.950 . S
C495 C491 1.385 . S
C495 C494 1.374 . S
C496 C493 1.499 . S
C496 C497 1.373 . S
C496 C498 1.389 . S
C497 H476 0.950 . S
C497 C496 1.373 . S
C497 C513 1.377 1_556 S
C498 C496 1.389 . S
C498 C499 1.524 . S
C498 C512 1.377 . S
C499 C498 1.524 . S
C499 C500 1.397 . S
C499 C504 1.363 . S
C500 H477 0.950 . S
C500 C499 1.397 . S
C500 C501 1.334 . S
C501 H478 0.950 . S
C501 C500 1.334 . S
C501 C502 1.287 . S
C502 C501 1.287 . S
C502 C503 1.524 . S
C502 H521 0.913 . S
C503 H479 0.950 . S
C503 C502 1.524 . S
C503 C504 1.415 . S
C504 H480 0.950 . S
C504 C499 1.363 . S
C504 C503 1.415 . S
C505 H481 0.951 . S
C505 C506 1.366 1_565 S
C505 C507 1.388 . S
C506 C505 1.366 1_545 S
C506 C510 1.385 . S
C507 H482 0.951 . S
C507 C505 1.388 . S
C507 C508 1.366 . S
C508 C507 1.366 . S
C508 C509 1.414 . S
C508 C511 1.499 . S
C509 H483 0.950 . S
C509 C508 1.414 . S
C509 C510 1.374 1_565 S
C510 H484 0.950 . S
C510 C506 1.385 . S
C510 C509 1.374 1_545 S
C511 C508 1.499 . S
C511 C512 1.373 1_554 S
C511 C513 1.389 . S
C512 H485 0.950 . S
C512 C498 1.377 . S
C512 C511 1.373 1_556 S
C513 C497 1.377 1_554 S
C513 C511 1.389 . S
C513 C514 1.524 . S
C514 C513 1.524 . S
C514 C515 1.397 . S
C514 C519 1.363 . S
C515 H486 0.950 . S
C515 C514 1.397 . S
C515 C516 1.334 . S
C516 H487 0.950 . S
C516 C515 1.334 . S
C516 C517 1.287 . S
C517 C516 1.287 . S
C517 C518 1.524 . S
C517 H520 0.999 . S
C518 H488 0.950 . S
C518 C517 1.524 . S
C518 C519 1.415 . S
C519 H489 0.950 . S
C519 C514 1.363 . S
C519 C518 1.415 . S
H520 C517 0.999 . S
H521 C502 0.913 . S
H522 C540 0.951 . S
H523 C542 0.951 . S
H524 C544 0.950 . S
H525 C545 0.950 . S
H526 C547 0.950 . S
H527 C550 0.950 . S
H528 C551 0.950 . S
H529 C553 0.950 . S
H530 C554 0.950 . S
H531 C555 0.949 1_455 S
H532 C557 0.951 . S
H533 C559 0.950 . S
H534 C560 0.950 . S
H535 C562 0.950 . S
H536 C565 0.950 . S
H537 C566 0.950 . S
H538 C568 0.950 . S
H539 C569 0.950 1_554 S
C540 H522 0.951 . S
C540 C541 1.366 . S
C540 C542 1.388 . S
C541 C540 1.366 . S
C541 C545 1.385 . S
C542 H523 0.951 . S
C542 C540 1.388 . S
C542 C543 1.366 . S
C543 C542 1.366 . S
C543 C544 1.414 . S
C543 C546 1.499 . S
C544 H524 0.950 . S
C544 C543 1.414 . S
C544 C545 1.374 . S
C545 H525 0.950 . S
C545 C541 1.385 . S
C545 C544 1.374 . S
C546 C543 1.499 . S
C546 C547 1.373 . S
C546 C548 1.389 . S
C547 H526 0.950 . S
C547 C546 1.373 . S
C547 C563 1.377 . S
C548 C546 1.389 . S
C548 C549 1.524 . S
C548 C562 1.377 . S
C549 C548 1.524 . S
C549 C550 1.397 . S
C549 C554 1.363 . S
C550 H527 0.950 . S
C550 C549 1.397 . S
C550 C551 1.334 . S
C551 H528 0.950 . S
C551 C550 1.334 . S
C551 C552 1.287 . S
C552 C551 1.287 . S
C552 C553 1.524 . S
C552 H571 0.913 . S
C553 H529 0.950 . S
C553 C552 1.524 . S
C553 C554 1.415 . S
C554 H530 0.950 . S
C554 C549 1.363 . S
C554 C553 1.415 . S
C555 H531 0.949 1_655 S
C555 C556 1.365 1_655 S
C555 C557 1.391 . S
C556 C555 1.365 1_455 S
C556 C560 1.385 1_455 S
C557 H532 0.951 . S
C557 C555 1.391 . S
C557 C558 1.366 . S
C558 C557 1.366 . S
C558 C559 1.414 . S
C558 C561 1.499 . S
C559 H533 0.950 . S
C559 C558 1.414 . S
C559 C560 1.374 . S
C560 H534 0.950 . S
C560 C556 1.385 1_655 S
C560 C559 1.374 . S
C561 C558 1.499 . S
C561 C562 1.373 1_556 S
C561 C563 1.389 1_556 S
C562 H535 0.950 . S
C562 C548 1.377 . S
C562 C561 1.373 1_554 S
C563 C547 1.377 . S
C563 C561 1.389 1_554 S
C563 C564 1.524 1_554 S
C564 C563 1.524 1_556 S
C564 C565 1.397 . S
C564 C569 1.363 . S
C565 H536 0.950 . S
C565 C564 1.397 . S
C565 C566 1.334 . S
C566 H537 0.950 . S
C566 C565 1.334 . S
C566 C567 1.287 . S
C567 C566 1.287 . S
C567 C568 1.524 . S
C567 H570 0.999 . S
C568 H538 0.950 . S
C568 C567 1.524 . S
C568 C569 1.415 . S
C569 H539 0.950 1_556 S
C569 C564 1.363 . S
C569 C568 1.415 . S
H570 C567 0.999 . S
H571 C552 0.913 . S
H572 C590 0.951 . S
H573 C592 0.951 . S
H574 C594 0.950 . S
H575 C595 0.950 . S
H576 C597 0.950 . S
H577 C600 0.950 . S
H578 C601 0.950 . S
H579 C603 0.950 . S
H580 C604 0.950 . S
H581 C605 0.955 . S
H582 C607 0.951 . S
H583 C609 0.950 . S
H584 C610 0.940 1_565 S
H585 C612 0.950 . S
H586 C615 0.950 . S
H587 C616 0.950 . S
H588 C618 0.950 . S
H589 C619 0.950 . S
C590 H572 0.951 . S
C590 C591 1.366 . S
C590 C592 1.388 . S
C591 C590 1.366 . S
C591 C595 1.385 . S
C592 H573 0.951 . S
C592 C590 1.388 . S
C592 C593 1.366 . S
C593 C592 1.366 . S
C593 C594 1.414 . S
C593 C596 1.499 . S
C594 H574 0.950 . S
C594 C593 1.414 . S
C594 C595 1.374 . S
C595 H575 0.950 . S
C595 C591 1.385 . S
C595 C594 1.374 . S
C596 C593 1.499 . S
C596 C597 1.373 . S
C596 C598 1.389 . S
C597 H576 0.950 . S
C597 C596 1.373 . S
C597 C613 1.377 1_556 S
C598 C596 1.389 . S
C598 C599 1.524 . S
C598 C612 1.377 . S
C599 C598 1.524 . S
C599 C600 1.397 . S
C599 C604 1.363 . S
C600 H577 0.950 . S
C600 C599 1.397 . S
C600 C601 1.334 . S
C601 H578 0.950 . S
C601 C600 1.334 . S
C601 C602 1.287 . S
C602 C601 1.287 . S
C602 C603 1.524 . S
C602 H621 0.913 . S
C603 H579 0.950 . S
C603 C602 1.524 . S
C603 C604 1.415 . S
C604 H580 0.950 . S
C604 C599 1.363 . S
C604 C603 1.415 . S
C605 H581 0.955 . S
C605 C606 1.366 1_545 S
C605 C607 1.388 . S
C606 C605 1.366 1_565 S
C606 C610 1.378 1_565 S
C607 H582 0.951 . S
C607 C605 1.388 . S
C607 C608 1.366 . S
C608 C607 1.366 . S
C608 C609 1.414 . S
C608 C611 1.499 . S
C609 H583 0.950 . S
C609 C608 1.414 . S
C609 C610 1.391 . S
C610 H584 0.940 1_545 S
C610 C606 1.378 1_545 S
C610 C609 1.391 . S
C611 C608 1.499 . S
C611 C612 1.373 1_554 S
C611 C613 1.389 . S
C612 H585 0.950 . S
C612 C598 1.377 . S
C612 C611 1.373 1_556 S
C613 C597 1.377 1_554 S
C613 C611 1.389 . S
C613 C614 1.524 . S
C614 C613 1.524 . S
C614 C615 1.397 . S
C614 C619 1.363 . S
C615 H586 0.950 . S
C615 C614 1.397 . S
C615 C616 1.334 . S
C616 H587 0.950 . S
C616 C615 1.334 . S
C616 C617 1.287 . S
C617 C616 1.287 . S
C617 C618 1.524 . S
C617 H620 0.999 . S
C618 H588 0.950 . S
C618 C617 1.524 . S
C618 C619 1.415 . S
C619 H589 0.950 . S
C619 C614 1.363 . S
C619 C618 1.415 . S
H620 C617 0.999 . S
H621 C602 0.913 . S
H622 C640 0.951 . S
H623 C642 0.951 . S
H624 C644 0.950 1_655 S
H625 C645 0.950 . S
H626 C647 0.950 . S
H627 C650 0.947 1_554 S
H628 C651 0.950 . S
H629 C653 0.950 . S
H630 C654 0.950 . S
H631 C655 0.951 . S
H632 C657 0.951 . S
H633 C659 0.950 . S
H634 C660 0.950 . S
H635 C662 0.950 . S
H636 C665 0.950 . S
H637 C666 0.950 . S
H638 C668 0.950 . S
H639 C669 0.950 . S
C640 H622 0.951 . S
C640 C641 1.366 1_455 S
C640 C642 1.388 . S
C641 C640 1.366 1_655 S
C641 C645 1.385 . S
C642 H623 0.951 . S
C642 C640 1.388 . S
C642 C643 1.366 . S
C643 C642 1.366 . S
C643 C644 1.414 . S
C643 C646 1.544 . S
C644 H624 0.950 1_455 S
C644 C643 1.414 . S
C644 C645 1.374 1_455 S
C645 H625 0.950 . S
C645 C641 1.385 . S
C645 C644 1.374 1_655 S
C646 C643 1.544 . S
C646 C647 1.341 1_556 S
C646 C648 1.380 1_556 S
C647 H626 0.950 . S
C647 C646 1.341 1_554 S
C647 C663 1.377 . S
C648 C646 1.380 1_554 S
C648 C649 1.524 1_554 S
C648 C662 1.377 . S
C649 C648 1.524 1_556 S
C649 C650 1.397 . S
C649 C654 1.363 . S
C650 H627 0.947 1_556 S
C650 C649 1.397 . S
C650 C651 1.334 . S
C651 H628 0.950 . S
C651 C650 1.334 . S
C651 C652 1.287 . S
C652 C651 1.287 . S
C652 C653 1.524 . S
C652 H671 0.913 . S
C653 H629 0.950 . S
C653 C652 1.524 . S
C653 C654 1.415 . S
C654 H630 0.950 . S
C654 C649 1.363 . S
C654 C653 1.415 . S
C655 H631 0.951 . S
C655 C656 1.366 . S
C655 C657 1.388 . S
C656 C655 1.366 . S
C656 C660 1.385 . S
C657 H632 0.951 . S
C657 C655 1.388 . S
C657 C658 1.366 . S
C658 C657 1.366 . S
C658 C659 1.414 . S
C658 C661 1.499 . S
C659 H633 0.950 . S
C659 C658 1.414 . S
C659 C660 1.374 . S
C660 H634 0.950 . S
C660 C656 1.385 . S
C660 C659 1.374 . S
C661 C658 1.499 . S
C661 C662 1.373 . S
C661 C663 1.389 . S
C662 H635 0.950 . S
C662 C648 1.377 . S
C662 C661 1.373 . S
C663 C647 1.377 . S
C663 C661 1.389 . S
C663 C664 1.524 . S
C664 C663 1.524 . S
C664 C665 1.397 . S
C664 C669 1.363 . S
C665 H636 0.950 . S
C665 C664 1.397 . S
C665 C666 1.334 . S
C666 H637 0.950 . S
C666 C665 1.334 . S
C666 C667 1.287 . S
C667 C666 1.287 . S
C667 C668 1.524 . S
C667 H670 0.999 . S
C668 H638 0.950 . S
C668 C667 1.524 . S
C668 C669 1.415 . S
C669 H639 0.950 . S
C669 C664 1.363 . S
C669 C668 1.415 . S
H670 C667 0.999 . S
H671 C652 0.913 . S
H672 C690 0.951 . S
H673 C692 0.951 . S
H674 C694 0.950 1_545 S
H675 C695 0.950 . S
H676 C697 0.950 . S
H677 C700 0.950 . S
H678 C701 0.950 . S
H679 C703 0.950 . S
H680 C704 0.950 . S
H681 C705 0.951 . S
H682 C707 0.951 . S
H683 C709 0.950 1_565 S
H684 C710 0.950 . S
H685 C712 0.950 . S
H686 C715 0.950 . S
H687 C716 0.950 . S
H688 C718 0.950 . S
H689 C719 0.950 . S
C690 H672 0.951 . S
C690 C691 1.366 . S
C690 C692 1.388 . S
C691 C690 1.366 . S
C691 C695 1.385 . S
C692 H673 0.951 . S
C692 C690 1.388 . S
C692 C693 1.366 . S
C693 C692 1.366 . S
C693 C694 1.414 . S
C693 C696 1.499 . S
C694 H674 0.950 1_565 S
C694 C693 1.414 . S
C694 C695 1.374 . S
C695 H675 0.950 . S
C695 C691 1.385 . S
C695 C694 1.374 . S
C696 C693 1.499 . S
C696 C697 1.373 1_565 S
C696 C698 1.389 . S
C697 H676 0.950 . S
C697 C696 1.373 1_545 S
C697 C713 1.377 . S
C698 C696 1.389 . S
C698 C699 1.524 . S
C698 C712 1.377 . S
C699 C698 1.524 . S
C699 C700 1.397 . S
C699 C704 1.363 . S
C700 H677 0.950 . S
C700 C699 1.397 . S
C700 C701 1.334 . S
C701 H678 0.950 . S
C701 C700 1.334 . S
C701 C702 1.287 . S
C702 C701 1.287 . S
C702 C703 1.524 . S
C702 H721 0.913 . S
C703 H679 0.950 . S
C703 C702 1.524 . S
C703 C704 1.415 . S
C704 H680 0.950 . S
C704 C699 1.363 . S
C704 C703 1.415 . S
C705 H681 0.951 . S
C705 C706 1.366 . S
C705 C707 1.388 . S
C706 C705 1.366 . S
C706 C710 1.385 . S
C707 H682 0.951 . S
C707 C705 1.388 . S
C707 C708 1.366 . S
C708 C707 1.366 . S
C708 C709 1.414 . S
C708 C711 1.499 . S
C709 H683 0.950 1_545 S
C709 C708 1.414 . S
C709 C710 1.374 . S
C710 H684 0.950 . S
C710 C706 1.385 . S
C710 C709 1.374 . S
C711 C708 1.499 . S
C711 C712 1.373 1_545 S
C711 C713 1.389 . S
C712 H685 0.950 . S
C712 C698 1.377 . S
C712 C711 1.373 1_565 S
C713 C697 1.377 . S
C713 C711 1.389 . S
C713 C714 1.524 . S
C714 C713 1.524 . S
C714 C715 1.397 . S
C714 C719 1.363 . S
C715 H686 0.950 . S
C715 C714 1.397 . S
C715 C716 1.334 . S
C716 H687 0.950 . S
C716 C715 1.334 . S
C716 C717 1.287 . S
C717 C716 1.287 . S
C717 C718 1.524 . S
C717 H720 0.999 . S
C718 H688 0.950 . S
C718 C717 1.524 . S
C718 C719 1.415 . S
C719 H689 0.950 . S
C719 C714 1.363 . S
C719 C718 1.415 . S
H720 C717 0.999 . S
H721 C702 0.913 . S
H722 C740 0.951 . S
H723 C742 0.935 1_655 S
H724 C744 0.950 . S
H725 C745 0.950 . S
H726 C747 0.950 . S
H727 C750 0.950 . S
H728 C751 0.950 . S
H729 C753 0.950 . S
H730 C754 0.950 . S
H731 C755 0.951 . S
H732 C757 0.935 1_455 S
H733 C759 0.950 . S
H734 C760 0.950 . S
H735 C762 0.950 . S
H736 C765 0.950 . S
H737 C766 0.950 . S
H738 C768 0.950 . S
H739 C769 0.950 . S
C740 H722 0.951 . S
C740 C741 1.366 . S
C740 C742 1.388 . S
C741 C740 1.366 . S
C741 C745 1.385 . S
C742 H723 0.935 1_455 S
C742 C740 1.388 . S
C742 C743 1.366 . S
C743 C742 1.366 . S
C743 C744 1.414 . S
C743 C746 1.499 . S
C744 H724 0.950 . S
C744 C743 1.414 . S
C744 C745 1.374 . S
C745 H725 0.950 . S
C745 C741 1.385 . S
C745 C744 1.374 . S
C746 C743 1.499 . S
C746 C747 1.373 . S
C746 C748 1.389 . S
C747 H726 0.950 . S
C747 C746 1.373 . S
C747 C763 1.377 1_455 S
C748 C746 1.389 . S
C748 C749 1.524 . S
C748 C762 1.377 1_455 S
C749 C748 1.524 . S
C749 C750 1.397 . S
C749 C754 1.363 1_455 S
C750 H727 0.950 . S
C750 C749 1.397 . S
C750 C751 1.334 . S
C751 H728 0.950 . S
C751 C750 1.334 . S
C751 C752 1.287 . S
C752 C751 1.287 . S
C752 C753 1.524 1_455 S
C752 H771 0.913 . S
C753 H729 0.950 . S
C753 C752 1.524 1_655 S
C753 C754 1.415 . S
C754 H730 0.950 . S
C754 C749 1.363 1_655 S
C754 C753 1.415 . S
C755 H731 0.951 . S
C755 C756 1.366 . S
C755 C757 1.388 . S
C756 C755 1.366 . S
C756 C760 1.385 . S
C757 H732 0.935 1_655 S
C757 C755 1.388 . S
C757 C758 1.366 . S
C758 C757 1.366 . S
C758 C759 1.414 . S
C758 C761 1.499 . S
C759 H733 0.950 . S
C759 C758 1.414 . S
C759 C760 1.374 . S
C760 H734 0.950 . S
C760 C756 1.385 . S
C760 C759 1.374 . S
C761 C758 1.499 . S
C761 C762 1.373 . S
C761 C763 1.389 . S
C762 H735 0.950 . S
C762 C748 1.377 1_655 S
C762 C761 1.373 . S
C763 C747 1.377 1_655 S
C763 C761 1.389 . S
C763 C764 1.524 . S
C764 C763 1.524 . S
C764 C765 1.397 . S
C764 C769 1.363 1_655 S
C765 H736 0.950 . S
C765 C764 1.397 . S
C765 C766 1.334 . S
C766 H737 0.950 . S
C766 C765 1.334 . S
C766 C767 1.287 . S
C767 C766 1.287 . S
C767 C768 1.524 1_655 S
C767 H770 0.999 . S
C768 H738 0.950 . S
C768 C767 1.524 1_455 S
C768 C769 1.415 . S
C769 H739 0.950 . S
C769 C764 1.363 1_455 S
C769 C768 1.415 . S
H770 C767 0.999 . S
H771 C752 0.913 . S
H772 C790 0.951 . S
H773 C792 0.951 1_565 S
H774 C794 0.950 . S
H775 C795 0.950 . S
H776 C797 0.950 . S
H777 C800 0.950 . S
H778 C801 0.950 . S
H779 C803 0.950 . S
H780 C804 0.950 . S
H781 C805 0.951 . S
H782 C807 0.951 1_545 S
H783 C809 0.950 . S
H784 C810 0.950 . S
H785 C812 0.950 . S
H786 C815 0.950 . S
H787 C816 0.950 . S
H788 C818 0.950 . S
H789 C819 0.950 . S
C790 H772 0.951 . S
C790 C791 1.366 . S
C790 C792 1.388 . S
C791 C790 1.366 . S
C791 C795 1.385 . S
C792 H773 0.951 1_545 S
C792 C790 1.388 . S
C792 C793 1.366 . S
C793 C792 1.366 . S
C793 C794 1.414 . S
C793 C796 1.499 . S
C794 H774 0.950 . S
C794 C793 1.414 . S
C794 C795 1.374 . S
C795 H775 0.950 . S
C795 C791 1.385 . S
C795 C794 1.374 . S
C796 C793 1.499 . S
C796 C797 1.373 . S
C796 C798 1.389 1_545 S
C797 H776 0.950 . S
C797 C796 1.373 . S
C797 C813 1.377 . S
C798 C796 1.389 1_565 S
C798 C799 1.524 . S
C798 C812 1.377 . S
C799 C798 1.524 . S
C799 C800 1.397 1_565 S
C799 C804 1.363 . S
C800 H777 0.950 . S
C800 C799 1.397 1_545 S
C800 C801 1.334 . S
C801 H778 0.950 . S
C801 C800 1.334 . S
C801 C802 1.287 1_545 S
C802 C801 1.287 1_565 S
C802 C803 1.524 . S
C802 H821 0.913 . S
C803 H779 0.950 . S
C803 C802 1.524 . S
C803 C804 1.415 . S
C804 H780 0.950 . S
C804 C799 1.363 . S
C804 C803 1.415 . S
C805 H781 0.951 . S
C805 C806 1.366 . S
C805 C807 1.388 . S
C806 C805 1.366 . S
C806 C810 1.385 . S
C807 H782 0.951 1_565 S
C807 C805 1.388 . S
C807 C808 1.366 . S
C808 C807 1.366 . S
C808 C809 1.414 . S
C808 C811 1.499 . S
C809 H783 0.950 . S
C809 C808 1.414 . S
C809 C810 1.374 . S
C810 H784 0.950 . S
C810 C806 1.385 . S
C810 C809 1.374 . S
C811 C808 1.499 . S
C811 C812 1.373 . S
C811 C813 1.389 1_565 S
C812 H785 0.950 . S
C812 C798 1.377 . S
C812 C811 1.373 . S
C813 C797 1.377 . S
C813 C811 1.389 1_545 S
C813 C814 1.524 . S
C814 C813 1.524 . S
C814 C815 1.397 1_545 S
C814 C819 1.363 . S
C815 H786 0.950 . S
C815 C814 1.397 1_565 S
C815 C816 1.334 . S
C816 H787 0.950 . S
C816 C815 1.334 . S
C816 C817 1.287 1_565 S
C817 C816 1.287 1_545 S
C817 C818 1.524 . S
C817 H820 0.999 . S
C818 H788 0.950 . S
C818 C817 1.524 . S
C818 C819 1.415 . S
C819 H789 0.950 . S
C819 C814 1.363 . S
C819 C818 1.415 . S
H820 C817 0.999 . S
H821 C802 0.913 . S
H822 C840 0.951 . S
H823 C842 0.951 1_655 S
H824 C844 0.950 . S
H825 C845 0.950 . S
H826 C847 0.950 . S
H827 C850 0.950 1_455 S
H828 C851 0.950 . S
H829 C853 0.950 . S
H830 C854 0.950 . S
H831 C855 0.951 . S
H832 C857 0.951 1_455 S
H833 C859 0.950 . S
H834 C860 0.950 . S
H835 C862 0.950 . S
H836 C865 0.950 1_655 S
H837 C866 0.950 . S
H838 C868 0.950 . S
H839 C869 0.950 . S
C840 H822 0.951 . S
C840 C841 1.366 . S
C840 C842 1.388 . S
C841 C840 1.366 . S
C841 C845 1.385 . S
C842 H823 0.951 1_455 S
C842 C840 1.388 . S
C842 C843 1.366 . S
C843 C842 1.366 . S
C843 C844 1.414 . S
C843 C846 1.499 . S
C844 H824 0.950 . S
C844 C843 1.414 . S
C844 C845 1.374 . S
C845 H825 0.950 . S
C845 C841 1.385 . S
C845 C844 1.374 . S
C846 C843 1.499 . S
C846 C847 1.373 . S
C846 C848 1.389 1_455 S
C847 H826 0.950 . S
C847 C846 1.373 . S
C847 C863 1.377 . S
C848 C846 1.389 1_655 S
C848 C849 1.524 . S
C848 C862 1.377 . S
C849 C848 1.524 . S
C849 C850 1.397 . S
C849 C854 1.363 . S
C850 H827 0.950 1_655 S
C850 C849 1.397 . S
C850 C851 1.334 . S
C851 H828 0.950 . S
C851 C850 1.334 . S
C851 C852 1.287 . S
C852 C851 1.287 . S
C852 C853 1.524 . S
C852 H871 0.913 . S
C853 H829 0.950 . S
C853 C852 1.524 . S
C853 C854 1.415 . S
C854 H830 0.950 . S
C854 C849 1.363 . S
C854 C853 1.415 . S
C855 H831 0.951 . S
C855 C856 1.366 . S
C855 C857 1.388 . S
C856 C855 1.366 . S
C856 C860 1.385 . S
C857 H832 0.951 1_655 S
C857 C855 1.388 . S
C857 C858 1.366 . S
C858 C857 1.366 . S
C858 C859 1.414 . S
C858 C861 1.499 . S
C859 H833 0.950 . S
C859 C858 1.414 . S
C859 C860 1.374 . S
C860 H834 0.950 . S
C860 C856 1.385 . S
C860 C859 1.374 . S
C861 C858 1.499 . S
C861 C862 1.373 . S
C861 C863 1.389 1_655 S
C862 H835 0.950 . S
C862 C848 1.377 . S
C862 C861 1.373 . S
C863 C847 1.377 . S
C863 C861 1.389 1_455 S
C863 C864 1.524 . S
C864 C863 1.524 . S
C864 C865 1.397 . S
C864 C869 1.363 . S
C865 H836 0.950 1_455 S
C865 C864 1.397 . S
C865 C866 1.334 . S
C866 H837 0.950 . S
C866 C865 1.334 . S
C866 C867 1.287 . S
C867 C866 1.287 . S
C867 C868 1.524 . S
C867 H870 0.999 . S
C868 H838 0.950 . S
C868 C867 1.524 . S
C868 C869 1.415 . S
C869 H839 0.950 . S
C869 C864 1.363 . S
C869 C868 1.415 . S
H870 C867 0.999 . S
H871 C852 0.913 . S
H872 C890 0.951 . S
H873 C892 0.951 . S
H874 C894 0.950 . S
H875 C895 0.950 . S
H876 C897 0.950 . S
H877 C900 0.950 . S
H878 C901 0.950 . S
H879 C903 0.950 . S
H880 C904 0.950 . S
H881 C905 0.951 . S
H882 C907 0.951 . S
H883 C909 0.950 . S
H884 C910 0.950 . S
H885 C912 0.950 . S
H886 C915 0.950 . S
H887 C916 0.950 . S
H888 C918 0.950 . S
H889 C919 0.950 . S
C890 H872 0.951 . S
C890 C891 1.366 . S
C890 C892 1.388 . S
C891 C890 1.366 . S
C891 C895 1.385 . S
C892 H873 0.951 . S
C892 C890 1.388 . S
C892 C893 1.366 . S
C893 C892 1.366 . S
C893 C894 1.414 . S
C893 C896 1.499 . S
C894 H874 0.950 . S
C894 C893 1.414 . S
C894 C895 1.374 . S
C895 H875 0.950 . S
C895 C891 1.385 . S
C895 C894 1.374 . S
C896 C893 1.499 . S
C896 C897 1.373 . S
C896 C898 1.389 1_545 S
C897 H876 0.950 . S
C897 C896 1.373 . S
C897 C913 1.377 1_455 S
C898 C896 1.389 1_565 S
C898 C899 1.524 . S
C898 C912 1.377 1_455 S
C899 C898 1.524 . S
C899 C900 1.397 . S
C899 C904 1.363 . S
C900 H877 0.950 . S
C900 C899 1.397 . S
C900 C901 1.334 . S
C901 H878 0.950 . S
C901 C900 1.334 . S
C901 C902 1.287 . S
C902 C901 1.287 . S
C902 C903 1.524 . S
C902 H921 0.913 . S
C903 H879 0.950 . S
C903 C902 1.524 . S
C903 C904 1.415 . S
C904 H880 0.950 . S
C904 C899 1.363 . S
C904 C903 1.415 . S
C905 H881 0.951 . S
C905 C906 1.366 . S
C905 C907 1.388 . S
C906 C905 1.366 . S
C906 C910 1.385 . S
C907 H882 0.951 . S
C907 C905 1.388 . S
C907 C908 1.366 . S
C908 C907 1.366 . S
C908 C909 1.414 . S
C908 C911 1.499 . S
C909 H883 0.950 . S
C909 C908 1.414 . S
C909 C910 1.374 . S
C910 H884 0.950 . S
C910 C906 1.385 . S
C910 C909 1.374 . S
C911 C908 1.499 . S
C911 C912 1.373 . S
C911 C913 1.389 1_565 S
C912 H885 0.950 . S
C912 C898 1.377 1_655 S
C912 C911 1.373 . S
C913 C897 1.377 1_655 S
C913 C911 1.389 1_545 S
C913 C914 1.524 . S
C914 C913 1.524 . S
C914 C915 1.397 . S
C914 C919 1.363 . S
C915 H886 0.950 . S
C915 C914 1.397 . S
C915 C916 1.334 . S
C916 H887 0.950 . S
C916 C915 1.334 . S
C916 C917 1.287 . S
C917 C916 1.287 . S
C917 C918 1.524 . S
C917 H920 0.999 . S
C918 H888 0.950 . S
C918 C917 1.524 . S
C918 C919 1.415 . S
C919 H889 0.950 . S
C919 C914 1.363 . S
C919 C918 1.415 . S
H920 C917 0.999 . S
H921 C902 0.913 . S
H922 C940 0.951 . S
H923 C942 0.951 . S
H924 C944 0.950 . S
H925 C945 0.950 . S
H926 C947 0.950 . S
H927 C950 0.950 . S
H928 C951 0.950 . S
H929 C953 0.950 . S
H930 C954 0.950 . S
H931 C955 0.951 . S
H932 C957 0.951 . S
H933 C959 0.950 . S
H934 C960 0.950 . S
H935 C962 0.950 . S
H936 C965 0.950 . S
H937 C966 0.950 . S
H938 C968 0.950 . S
H939 C969 0.950 . S
C940 H922 0.951 . S
C940 C941 1.366 . S
C940 C942 1.388 . S
C941 C940 1.366 . S
C941 C945 1.385 . S
C942 H923 0.951 . S
C942 C940 1.388 . S
C942 C943 1.366 . S
C943 C942 1.366 . S
C943 C944 1.414 . S
C943 C946 1.499 . S
C944 H924 0.950 . S
C944 C943 1.414 . S
C944 C945 1.374 . S
C945 H925 0.950 . S
C945 C941 1.385 . S
C945 C944 1.374 . S
C946 C943 1.499 . S
C946 C947 1.373 . S
C946 C948 1.389 1_455 S
C947 H926 0.950 . S
C947 C946 1.373 . S
C947 C963 1.377 1_565 S
C948 C946 1.389 1_655 S
C948 C949 1.524 . S
C948 C962 1.377 1_565 S
C949 C948 1.524 . S
C949 C950 1.397 . S
C949 C954 1.363 . S
C950 H927 0.950 . S
C950 C949 1.397 . S
C950 C951 1.334 . S
C951 H928 0.950 . S
C951 C950 1.334 . S
C951 C952 1.287 . S
C952 C951 1.287 . S
C952 C953 1.524 . S
C952 H971 0.913 . S
C953 H929 0.950 . S
C953 C952 1.524 . S
C953 C954 1.415 . S
C954 H930 0.950 . S
C954 C949 1.363 . S
C954 C953 1.415 . S
C955 H931 0.951 . S
C955 C956 1.366 . S
C955 C957 1.388 . S
C956 C955 1.366 . S
C956 C960 1.385 . S
C957 H932 0.951 . S
C957 C955 1.388 . S
C957 C958 1.366 . S
C958 C957 1.366 . S
C958 C959 1.414 . S
C958 C961 1.499 . S
C959 H933 0.950 . S
C959 C958 1.414 . S
C959 C960 1.374 . S
C960 H934 0.950 . S
C960 C956 1.385 . S
C960 C959 1.374 . S
C961 C958 1.499 . S
C961 C962 1.373 . S
C961 C963 1.389 1_655 S
C962 H935 0.950 . S
C962 C948 1.377 1_545 S
C962 C961 1.373 . S
C963 C947 1.377 1_545 S
C963 C961 1.389 1_455 S
C963 C964 1.524 . S
C964 C963 1.524 . S
C964 C965 1.397 . S
C964 C969 1.363 . S
C965 H936 0.950 . S
C965 C964 1.397 . S
C965 C966 1.334 . S
C966 H937 0.950 . S
C966 C965 1.334 . S
C966 C967 1.287 . S
C967 C966 1.287 . S
C967 C968 1.524 . S
C967 H970 0.999 . S
C968 H938 0.950 . S
C968 C967 1.524 . S
C968 C969 1.415 . S
C969 H939 0.950 . S
C969 C964 1.363 . S
C969 C968 1.415 . S
H970 C967 0.999 . S
H971 C952 0.913 . S
H972 C990 0.951 . S
H973 C992 0.951 . S
H974 C994 0.950 . S
H975 C995 0.950 . S
H976 C997 0.950 . S
H977 C1000 0.950 . S
H978 C1001 0.950 . S
H979 C1003 0.950 . S
H980 C1004 0.950 . S
H981 C1005 0.951 . S
H982 C1007 0.951 . S
H983 C1009 0.950 . S
H984 C1010 0.950 . S
H985 C1012 0.950 . S
H986 C1015 0.950 . S
H987 C1016 0.950 . S
H988 C1018 0.950 . S
H989 C1019 0.950 . S
C990 H972 0.951 . S
C990 C991 1.366 . S
C990 C992 1.388 . S
C991 C990 1.366 . S
C991 C995 1.385 . S
C992 H973 0.951 . S
C992 C990 1.388 . S
C992 C993 1.366 . S
C993 C992 1.366 . S
C993 C994 1.414 . S
C993 C996 1.499 . S
C994 H974 0.950 . S
C994 C993 1.414 . S
C994 C995 1.374 . S
C995 H975 0.950 . S
C995 C991 1.385 . S
C995 C994 1.374 . S
C996 C993 1.499 . S
C996 C997 1.373 1_565 S
C996 C998 1.389 . S
C997 H976 0.950 . S
C997 C996 1.373 1_545 S
C997 C1013 1.377 1_455 S
C998 C996 1.389 . S
C998 C999 1.524 . S
C998 C1012 1.377 1_455 S
C999 C998 1.524 . S
C999 C1000 1.397 . S
C999 C1004 1.363 1_455 S
C1000 H977 0.950 . S
C1000 C999 1.397 . S
C1000 C1001 1.334 . S
C1001 H978 0.950 . S
C1001 C1000 1.334 . S
C1001 C1002 1.287 . S
C1002 C1001 1.287 . S
C1002 C1003 1.524 1_455 S
C1002 H1021 0.913 . S
C1003 H979 0.950 . S
C1003 C1002 1.524 1_655 S
C1003 C1004 1.415 . S
C1004 H980 0.950 . S
C1004 C999 1.363 1_655 S
C1004 C1003 1.415 . S
C1005 H981 0.951 . S
C1005 C1006 1.366 . S
C1005 C1007 1.388 . S
C1006 C1005 1.366 . S
C1006 C1010 1.385 . S
C1007 H982 0.951 . S
C1007 C1005 1.388 . S
C1007 C1008 1.366 . S
C1008 C1007 1.366 . S
C1008 C1009 1.414 . S
C1008 C1011 1.499 . S
C1009 H983 0.950 . S
C1009 C1008 1.414 . S
C1009 C1010 1.374 . S
C1010 H984 0.950 . S
C1010 C1006 1.385 . S
C1010 C1009 1.374 . S
C1011 C1008 1.499 . S
C1011 C1012 1.373 1_545 S
C1011 C1013 1.389 . S
C1012 H985 0.950 . S
C1012 C998 1.377 1_655 S
C1012 C1011 1.373 1_565 S
C1013 C997 1.377 1_655 S
C1013 C1011 1.389 . S
C1013 C1014 1.524 . S
C1014 C1013 1.524 . S
C1014 C1015 1.397 . S
C1014 C1019 1.363 1_655 S
C1015 H986 0.950 . S
C1015 C1014 1.397 . S
C1015 C1016 1.334 . S
C1016 H987 0.950 . S
C1016 C1015 1.334 . S
C1016 C1017 1.287 . S
C1017 C1016 1.287 . S
C1017 C1018 1.524 1_655 S
C1017 H1020 0.999 . S
C1018 H988 0.950 . S
C1018 C1017 1.524 1_455 S
C1018 C1019 1.415 . S
C1019 H989 0.950 . S
C1019 C1014 1.363 1_455 S
C1019 C1018 1.415 . S
H1020 C1017 0.999 . S
H1021 C1002 0.913 . S
H1022 C1040 0.951 . S
H1023 C1042 0.951 . S
H1024 C1044 0.950 1_455 S
H1025 C1045 0.950 . S
H1026 C1047 0.950 . S
H1027 C1050 0.950 1_455 S
H1028 C1051 0.950 . S
H1029 C1053 0.950 . S
H1030 C1054 0.950 1_545 S
H1031 C1055 0.951 . S
H1032 C1057 0.951 . S
H1033 C1059 0.950 1_655 S
H1034 C1060 0.950 . S
H1035 C1062 0.950 . S
H1036 C1065 0.950 1_655 S
H1037 C1066 0.950 . S
H1038 C1068 0.950 . S
H1039 C1069 0.950 1_565 S
C1040 H1022 0.951 . S
C1040 C1041 1.366 . S
C1040 C1042 1.388 . S
C1041 C1040 1.366 . S
C1041 C1045 1.385 . S
C1042 H1023 0.951 . S
C1042 C1040 1.388 . S
C1042 C1043 1.366 . S
C1043 C1042 1.366 . S
C1043 C1044 1.414 . S
C1043 C1046 1.499 . S
C1044 H1024 0.950 1_655 S
C1044 C1043 1.414 . S
C1044 C1045 1.374 . S
C1045 H1025 0.950 . S
C1045 C1041 1.385 . S
C1045 C1044 1.374 . S
C1046 C1043 1.499 . S
C1046 C1047 1.376 . S
C1046 C1048 1.389 . S
C1047 H1026 0.950 . S
C1047 C1046 1.376 . S
C1047 C1063 1.374 1_665 S
C1048 C1046 1.389 . S
C1048 C1049 1.524 . S
C1048 C1062 1.374 1_665 S
C1049 C1048 1.524 . S
C1049 C1050 1.397 . S
C1049 C1054 1.363 . S
C1050 H1027 0.950 1_655 S
C1050 C1049 1.397 . S
C1050 C1051 1.334 . S
C1051 H1028 0.950 . S
C1051 C1050 1.334 . S
C1051 C1052 1.287 . S
C1052 C1051 1.287 . S
C1052 C1053 1.524 . S
C1052 H1071 0.913 . S
C1053 H1029 0.950 . S
C1053 C1052 1.524 . S
C1053 C1054 1.415 . S
C1054 H1030 0.950 1_565 S
C1054 C1049 1.363 . S
C1054 C1053 1.415 . S
C1055 H1031 0.951 . S
C1055 C1056 1.366 . S
C1055 C1057 1.388 . S
C1056 C1055 1.366 . S
C1056 C1060 1.385 . S
C1057 H1032 0.951 . S
C1057 C1055 1.388 . S
C1057 C1058 1.366 . S
C1058 C1057 1.366 . S
C1058 C1059 1.414 . S
C1058 C1061 1.499 . S
C1059 H1033 0.950 1_455 S
C1059 C1058 1.414 . S
C1059 C1060 1.374 . S
C1060 H1034 0.950 . S
C1060 C1056 1.385 . S
C1060 C1059 1.374 . S
C1061 C1058 1.499 . S
C1061 C1062 1.376 . S
C1061 C1063 1.389 . S
C1062 H1035 0.950 . S
C1062 C1048 1.374 1_445 S
C1062 C1061 1.376 . S
C1063 C1047 1.374 1_445 S
C1063 C1061 1.389 . S
C1063 C1064 1.524 . S
C1064 C1063 1.524 . S
C1064 C1065 1.397 . S
C1064 C1069 1.363 . S
C1065 H1036 0.950 1_455 S
C1065 C1064 1.397 . S
C1065 C1066 1.334 . S
C1066 H1037 0.950 . S
C1066 C1065 1.334 . S
C1066 C1067 1.287 . S
C1067 C1066 1.287 . S
C1067 C1068 1.524 . S
C1067 H1070 0.999 . S
C1068 H1038 0.950 . S
C1068 C1067 1.524 . S
C1068 C1069 1.415 . S
C1069 H1039 0.950 1_545 S
C1069 C1064 1.363 . S
C1069 C1068 1.415 . S
H1070 C1067 0.999 . S
H1071 C1052 0.913 . S
H1072 C1090 0.951 . S
H1073 C1092 0.951 . S
H1074 C1094 0.950 . S
H1075 C1095 0.950 . S
H1076 C1097 0.950 . S
H1077 C1100 0.950 . S
H1078 C1101 0.950 . S
H1079 C1103 0.950 . S
H1080 C1104 0.950 . S
H1081 C1105 0.951 . S
H1082 C1107 0.951 . S
H1083 C1109 0.950 . S
H1084 C1110 0.950 . S
H1085 C1112 0.950 . S
H1086 C1115 0.950 . S
H1087 C1116 0.950 . S
H1088 C1118 0.950 . S
H1089 C1119 0.950 . S
C1090 H1072 0.951 . S
C1090 C1091 1.366 . S
C1090 C1092 1.388 . S
C1091 C1090 1.366 . S
C1091 C1095 1.385 . S
C1092 H1073 0.951 . S
C1092 C1090 1.388 . S
C1092 C1093 1.366 . S
C1093 C1092 1.366 . S
C1093 C1094 1.414 . S
C1093 C1096 1.499 . S
C1094 H1074 0.950 . S
C1094 C1093 1.414 . S
C1094 C1095 1.374 . S
C1095 H1075 0.950 . S
C1095 C1091 1.385 . S
C1095 C1094 1.374 . S
C1096 C1093 1.499 . S
C1096 C1097 1.373 . S
C1096 C1098 1.389 . S
C1097 H1076 0.950 . S
C1097 C1096 1.373 . S
C1097 C1113 1.377 . S
C1098 C1096 1.389 . S
C1098 C1099 1.524 . S
C1098 C1112 1.377 . S
C1099 C1098 1.524 . S
C1099 C1100 1.397 . S
C1099 C1104 1.363 . S
C1100 H1077 0.950 . S
C1100 C1099 1.397 . S
C1100 C1101 1.334 . S
C1101 H1078 0.950 . S
C1101 C1100 1.334 . S
C1101 C1102 1.287 . S
C1102 C1101 1.287 . S
C1102 C1103 1.524 . S
C1102 H1121 0.913 . S
C1103 H1079 0.950 . S
C1103 C1102 1.524 . S
C1103 C1104 1.415 . S
C1104 H1080 0.950 . S
C1104 C1099 1.363 . S
C1104 C1103 1.415 . S
C1105 H1081 0.951 . S
C1105 C1106 1.366 . S
C1105 C1107 1.388 . S
C1106 C1105 1.366 . S
C1106 C1110 1.385 . S
C1107 H1082 0.951 . S
C1107 C1105 1.388 . S
C1107 C1108 1.366 . S
C1108 C1107 1.366 . S
C1108 C1109 1.414 . S
C1108 C1111 1.499 . S
C1109 H1083 0.950 . S
C1109 C1108 1.414 . S
C1109 C1110 1.374 . S
C1110 H1084 0.950 . S
C1110 C1106 1.385 . S
C1110 C1109 1.374 . S
C1111 C1108 1.499 . S
C1111 C1112 1.373 . S
C1111 C1113 1.389 . S
C1112 H1085 0.950 . S
C1112 C1098 1.377 . S
C1112 C1111 1.373 . S
C1113 C1097 1.377 . S
C1113 C1111 1.389 . S
C1113 C1114 1.524 . S
C1114 C1113 1.524 . S
C1114 C1115 1.397 . S
C1114 C1119 1.363 . S
C1115 H1086 0.950 . S
C1115 C1114 1.397 . S
C1115 C1116 1.334 . S
C1116 H1087 0.950 . S
C1116 C1115 1.334 . S
C1116 C1117 1.287 . S
C1117 C1116 1.287 . S
C1117 C1118 1.524 . S
C1117 H1120 0.999 . S
C1118 H1088 0.950 . S
C1118 C1117 1.524 . S
C1118 C1119 1.415 . S
C1119 H1089 0.950 . S
C1119 C1114 1.363 . S
C1119 C1118 1.415 . S
H1120 C1117 0.999 . S
H1121 C1102 0.913 . S
H1122 C1140 0.951 . S
H1123 C1142 0.951 . S
H1124 C1144 0.950 . S
H1125 C1145 0.950 . S
H1126 C1147 0.950 . S
H1127 C1150 0.950 . S
H1128 C1151 0.950 . S
H1129 C1153 0.950 . S
H1130 C1154 0.950 . S
H1131 C1155 0.951 . S
H1132 C1157 0.951 . S
H1133 C1159 0.950 . S
H1134 C1160 0.950 . S
H1135 C1162 0.950 . S
H1136 C1165 0.950 . S
H1137 C1166 0.950 . S
H1138 C1168 0.950 . S
H1139 C1169 0.950 . S
C1140 H1122 0.951 . S
C1140 C1141 1.366 . S
C1140 C1142 1.388 . S
C1141 C1140 1.366 . S
C1141 C1145 1.385 . S
C1142 H1123 0.951 . S
C1142 C1140 1.388 . S
C1142 C1143 1.366 . S
C1143 C1142 1.366 . S
C1143 C1144 1.414 . S
C1143 C1146 1.499 . S
C1144 H1124 0.950 . S
C1144 C1143 1.414 . S
C1144 C1145 1.374 . S
C1145 H1125 0.950 . S
C1145 C1141 1.385 . S
C1145 C1144 1.374 . S
C1146 C1143 1.499 . S
C1146 C1147 1.373 . S
C1146 C1148 1.389 . S
C1147 H1126 0.950 . S
C1147 C1146 1.373 . S
C1147 C1163 1.377 . S
C1148 C1146 1.389 . S
C1148 C1149 1.524 . S
C1148 C1162 1.377 . S
C1149 C1148 1.524 . S
C1149 C1150 1.397 . S
C1149 C1154 1.363 . S
C1150 H1127 0.950 . S
C1150 C1149 1.397 . S
C1150 C1151 1.334 . S
C1151 H1128 0.950 . S
C1151 C1150 1.334 . S
C1151 C1152 1.287 . S
C1152 C1151 1.287 . S
C1152 C1153 1.524 . S
C1152 H1171 0.913 . S
C1153 H1129 0.950 . S
C1153 C1152 1.524 . S
C1153 C1154 1.415 . S
C1154 H1130 0.950 . S
C1154 C1149 1.363 . S
C1154 C1153 1.415 . S
C1155 H1131 0.951 . S
C1155 C1156 1.366 . S
C1155 C1157 1.388 . S
C1156 C1155 1.366 . S
C1156 C1160 1.385 . S
C1157 H1132 0.951 . S
C1157 C1155 1.388 . S
C1157 C1158 1.366 . S
C1158 C1157 1.366 . S
C1158 C1159 1.414 . S
C1158 C1161 1.499 . S
C1159 H1133 0.950 . S
C1159 C1158 1.414 . S
C1159 C1160 1.374 . S
C1160 H1134 0.950 . S
C1160 C1156 1.385 . S
C1160 C1159 1.374 . S
C1161 C1158 1.499 . S
C1161 C1162 1.373 . S
C1161 C1163 1.389 . S
C1162 H1135 0.950 . S
C1162 C1148 1.377 . S
C1162 C1161 1.373 . S
C1163 C1147 1.377 . S
C1163 C1161 1.389 . S
C1163 C1164 1.524 . S
C1164 C1163 1.524 . S
C1164 C1165 1.397 . S
C1164 C1169 1.363 . S
C1165 H1136 0.950 . S
C1165 C1164 1.397 . S
C1165 C1166 1.334 . S
C1166 H1137 0.950 . S
C1166 C1165 1.334 . S
C1166 C1167 1.287 . S
C1167 C1166 1.287 . S
C1167 C1168 1.524 . S
C1167 H1170 0.999 . S
C1168 H1138 0.950 . S
C1168 C1167 1.524 . S
C1168 C1169 1.415 . S
C1169 H1139 0.950 . S
C1169 C1164 1.363 . S
C1169 C1168 1.415 . S
H1170 C1167 0.999 . S
H1171 C1152 0.913 . S
H1172 C1190 0.951 . S
H1173 C1192 0.951 . S
H1174 C1194 0.950 . S
H1175 C1195 0.950 . S
H1176 C1197 0.950 . S
H1177 C1200 0.950 . S
H1178 C1201 0.950 . S
H1179 C1203 0.950 . S
H1180 C1204 0.950 . S
H1181 C1205 0.951 . S
H1182 C1207 0.951 . S
H1183 C1209 0.950 . S
H1184 C1210 0.950 . S
H1185 C1212 0.950 . S
H1186 C1215 0.950 . S
H1187 C1216 0.950 . S
H1188 C1218 0.950 . S
H1189 C1219 0.950 . S
C1190 H1172 0.951 . S
C1190 C1191 1.366 . S
C1190 C1192 1.388 . S
C1191 C1190 1.366 . S
C1191 C1195 1.385 . S
C1192 H1173 0.951 . S
C1192 C1190 1.388 . S
C1192 C1193 1.366 . S
C1193 C1192 1.366 . S
C1193 C1194 1.414 . S
C1193 C1196 1.499 . S
C1194 H1174 0.950 . S
C1194 C1193 1.414 . S
C1194 C1195 1.374 . S
C1195 H1175 0.950 . S
C1195 C1191 1.385 . S
C1195 C1194 1.374 . S
C1196 C1193 1.499 . S
C1196 C1197 1.373 . S
C1196 C1198 1.389 . S
C1197 H1176 0.950 . S
C1197 C1196 1.373 . S
C1197 C1213 1.377 . S
C1198 C1196 1.389 . S
C1198 C1199 1.524 . S
C1198 C1212 1.377 . S
C1199 C1198 1.524 . S
C1199 C1200 1.397 . S
C1199 C1204 1.363 . S
C1200 H1177 0.950 . S
C1200 C1199 1.397 . S
C1200 C1201 1.334 . S
C1201 H1178 0.950 . S
C1201 C1200 1.334 . S
C1201 C1202 1.287 . S
C1202 C1201 1.287 . S
C1202 C1203 1.524 . S
C1202 H1221 0.913 . S
C1203 H1179 0.950 . S
C1203 C1202 1.524 . S
C1203 C1204 1.415 . S
C1204 H1180 0.950 . S
C1204 C1199 1.363 . S
C1204 C1203 1.415 . S
C1205 H1181 0.951 . S
C1205 C1206 1.366 . S
C1205 C1207 1.388 . S
C1206 C1205 1.366 . S
C1206 C1210 1.385 . S
C1207 H1182 0.951 . S
C1207 C1205 1.388 . S
C1207 C1208 1.366 . S
C1208 C1207 1.366 . S
C1208 C1209 1.414 . S
C1208 C1211 1.499 . S
C1209 H1183 0.950 . S
C1209 C1208 1.414 . S
C1209 C1210 1.374 . S
C1210 H1184 0.950 . S
C1210 C1206 1.385 . S
C1210 C1209 1.374 . S
C1211 C1208 1.499 . S
C1211 C1212 1.373 . S
C1211 C1213 1.389 . S
C1212 H1185 0.950 . S
C1212 C1198 1.377 . S
C1212 C1211 1.373 . S
C1213 C1197 1.377 . S
C1213 C1211 1.389 . S
C1213 C1214 1.524 . S
C1214 C1213 1.524 . S
C1214 C1215 1.397 . S
C1214 C1219 1.363 . S
C1215 H1186 0.950 . S
C1215 C1214 1.397 . S
C1215 C1216 1.334 . S
C1216 H1187 0.950 . S
C1216 C1215 1.334 . S
C1216 C1217 1.287 . S
C1217 C1216 1.287 . S
C1217 C1218 1.524 . S
C1217 H1220 0.999 . S
C1218 H1188 0.950 . S
C1218 C1217 1.524 . S
C1218 C1219 1.415 . S
C1219 H1189 0.950 . S
C1219 C1214 1.363 . S
C1219 C1218 1.415 . S
H1220 C1217 0.999 . S
H1221 C1202 0.913 . S
H1222 C1240 0.951 . S
H1223 C1242 0.951 . S
H1224 C1244 0.950 . S
H1225 C1245 0.950 . S
H1226 C1247 0.950 . S
H1227 C1250 0.950 . S
H1228 C1251 0.950 . S
H1229 C1253 0.950 . S
H1230 C1254 0.950 . S
H1231 C1255 0.951 . S
H1232 C1257 0.951 . S
H1233 C1259 0.950 . S
H1234 C1260 0.950 . S
H1235 C1262 0.950 . S
H1236 C1265 0.950 . S
H1237 C1266 0.950 . S
H1238 C1268 0.950 . S
H1239 C1269 0.950 . S
C1240 H1222 0.951 . S
C1240 C1241 1.366 . S
C1240 C1242 1.388 . S
C1241 C1240 1.366 . S
C1241 C1245 1.385 . S
C1242 H1223 0.951 . S
C1242 C1240 1.388 . S
C1242 C1243 1.366 . S
C1243 C1242 1.366 . S
C1243 C1244 1.414 . S
C1243 C1246 1.499 . S
C1244 H1224 0.950 . S
C1244 C1243 1.414 . S
C1244 C1245 1.374 . S
C1245 H1225 0.950 . S
C1245 C1241 1.385 . S
C1245 C1244 1.374 . S
C1246 C1243 1.499 . S
C1246 C1247 1.373 . S
C1246 C1248 1.389 . S
C1247 H1226 0.950 . S
C1247 C1246 1.373 . S
C1247 C1263 1.377 . S
C1248 C1246 1.389 . S
C1248 C1249 1.524 . S
C1248 C1262 1.377 . S
C1249 C1248 1.524 . S
C1249 C1250 1.397 . S
C1249 C1254 1.363 . S
C1250 H1227 0.950 . S
C1250 C1249 1.397 . S
C1250 C1251 1.334 . S
C1251 H1228 0.950 . S
C1251 C1250 1.334 . S
C1251 C1252 1.287 . S
C1252 C1251 1.287 . S
C1252 C1253 1.524 . S
C1252 H1271 0.913 . S
C1253 H1229 0.950 . S
C1253 C1252 1.524 . S
C1253 C1254 1.415 . S
C1254 H1230 0.950 . S
C1254 C1249 1.363 . S
C1254 C1253 1.415 . S
C1255 H1231 0.951 . S
C1255 C1256 1.366 . S
C1255 C1257 1.388 . S
C1256 C1255 1.366 . S
C1256 C1260 1.385 . S
C1257 H1232 0.951 . S
C1257 C1255 1.388 . S
C1257 C1258 1.366 . S
C1258 C1257 1.366 . S
C1258 C1259 1.414 . S
C1258 C1261 1.499 . S
C1259 H1233 0.950 . S
C1259 C1258 1.414 . S
C1259 C1260 1.374 . S
C1260 H1234 0.950 . S
C1260 C1256 1.385 . S
C1260 C1259 1.374 . S
C1261 C1258 1.499 . S
C1261 C1262 1.373 . S
C1261 C1263 1.389 . S
C1262 H1235 0.950 . S
C1262 C1248 1.377 . S
C1262 C1261 1.373 . S
C1263 C1247 1.377 . S
C1263 C1261 1.389 . S
C1263 C1264 1.524 . S
C1264 C1263 1.524 . S
C1264 C1265 1.397 . S
C1264 C1269 1.363 . S
C1265 H1236 0.950 . S
C1265 C1264 1.397 . S
C1265 C1266 1.334 . S
C1266 H1237 0.950 . S
C1266 C1265 1.334 . S
C1266 C1267 1.287 . S
C1267 C1266 1.287 . S
C1267 C1268 1.524 . S
C1267 H1270 0.999 . S
C1268 H1238 0.950 . S
C1268 C1267 1.524 . S
C1268 C1269 1.415 . S
C1269 H1239 0.950 . S
C1269 C1264 1.363 . S
C1269 C1268 1.415 . S
H1270 C1267 0.999 . S
H1271 C1252 0.913 . S
C291 C5 0.716 . S
C306 C67 0.722 . S
C341 C101 0.722 . S
C356 C39 0.716 . S
C391 C73 0.717 . S
C406 C135 0.720 . S
C441 C33 0.722 . S
C456 C107 0.715 . S
C491 C271 0.722 . S
C506 C141 0.717 . S
C541 C169 0.722 . S
C556 C175 0.716 . S
C591 C203 0.722 . S
C606 C209 0.717 . S
C641 C243 0.716 . S
C656 C237 0.722 . S
C691 C88 1.578 . S
C706 C20 1.577 . S
C741 C54 1.578 . S
C756 C122 1.577 . S
C791 C156 1.578 . S
C806 C224 1.577 . S
C841 C190 1.578 . S
C856 C258 1.578 . S
C891 C2 0.885 . S
C906 C70 0.886 . S
C941 C36 0.886 . S
C956 C104 0.885 . S
C991 C206 0.886 . S
C1006 C138 0.885 . S
C1041 C240 0.885 . S
C1056 C172 0.886 . S
C1091 C9 1.800 . S
C1106 C179 1.800 . S
C1141 C213 1.800 . S
C1156 C43 1.800 . S
C1191 C247 1.800 . S
C1206 C77 1.800 . S
C1241 C111 1.800 . S
C1256 C145 1.800 . S
