# Generated by pormake.
# Topology smw, (6)-cn, num edge types: 1
# Building blocks:
#     Node 0, Type 0, BuildingBlock: IZENUY_clean_sbu_0, # of connection points: 6
#     Node 1, Type 0, BuildingBlock: IZENUY_clean_sbu_0, # of connection points: 6
#     Node 2, Type 0, BuildingBlock: IZENUY_clean_sbu_0, # of connection points: 6
#     Node 3, Type 0, BuildingBlock: IZENUY_clean_sbu_0, # of connection points: 6
#     Node 4, Type 0, BuildingBlock: IZENUY_clean_sbu_0, # of connection points: 6
#     Node 5, Type 0, BuildingBlock: IZENUY_clean_sbu_0, # of connection points: 6
#     Node 6, Type 0, BuildingBlock: IZENUY_clean_sbu_0, # of connection points: 6
#     Node 7, Type 0, BuildingBlock: IZENUY_clean_sbu_0, # of connection points: 6
#     Node 8, Type 0, BuildingBlock: IZENUY_clean_sbu_0, # of connection points: 6
#     Node 9, Type 0, BuildingBlock: IZENUY_clean_sbu_0, # of connection points: 6
#     Node 10, Type 0, BuildingBlock: IZENUY_clean_sbu_0, # of connection points: 6
#     Node 11, Type 0, BuildingBlock: IZENUY_clean_sbu_0, # of connection points: 6
#     Edge 12, Type (0, 0), BuildingBlock: ZUJKAS_clean_linker_0, # of connection points: 2
#     Edge 13, Type (0, 0), BuildingBlock: ZUJKAS_clean_linker_0, # of connection points: 2
#     Edge 14, Type (0, 0), BuildingBlock: ZUJKAS_clean_linker_0, # of connection points: 2
#     Edge 15, Type (0, 0), BuildingBlock: ZUJKAS_clean_linker_0, # of connection points: 2
#     Edge 16, Type (0, 0), BuildingBlock: ZUJKAS_clean_linker_0, # of connection points: 2
#     Edge 17, Type (0, 0), BuildingBlock: ZUJKAS_clean_linker_0, # of connection points: 2
#     Edge 18, Type (0, 0), BuildingBlock: ZUJKAS_clean_linker_0, # of connection points: 2
#     Edge 19, Type (0, 0), BuildingBlock: ZUJKAS_clean_linker_0, # of connection points: 2
#     Edge 20, Type (0, 0), BuildingBlock: ZUJKAS_clean_linker_0, # of connection points: 2
#     Edge 21, Type (0, 0), BuildingBlock: ZUJKAS_clean_linker_0, # of connection points: 2
#     Edge 22, Type (0, 0), BuildingBlock: ZUJKAS_clean_linker_0, # of connection points: 2
#     Edge 23, Type (0, 0), BuildingBlock: ZUJKAS_clean_linker_0, # of connection points: 2
#     Edge 24, Type (0, 0), BuildingBlock: ZUJKAS_clean_linker_0, # of connection points: 2
#     Edge 25, Type (0, 0), BuildingBlock: ZUJKAS_clean_linker_0, # of connection points: 2
#     Edge 26, Type (0, 0), BuildingBlock: ZUJKAS_clean_linker_0, # of connection points: 2
#     Edge 27, Type (0, 0), BuildingBlock: ZUJKAS_clean_linker_0, # of connection points: 2
#     Edge 28, Type (0, 0), BuildingBlock: ZUJKAS_clean_linker_0, # of connection points: 2
#     Edge 29, Type (0, 0), BuildingBlock: ZUJKAS_clean_linker_0, # of connection points: 2
#     Edge 30, Type (0, 0), BuildingBlock: ZUJKAS_clean_linker_0, # of connection points: 2
#     Edge 31, Type (0, 0), BuildingBlock: ZUJKAS_clean_linker_0, # of connection points: 2
#     Edge 32, Type (0, 0), BuildingBlock: ZUJKAS_clean_linker_0, # of connection points: 2
#     Edge 33, Type (0, 0), BuildingBlock: ZUJKAS_clean_linker_0, # of connection points: 2
#     Edge 34, Type (0, 0), BuildingBlock: ZUJKAS_clean_linker_0, # of connection points: 2
#     Edge 35, Type (0, 0), BuildingBlock: ZUJKAS_clean_linker_0, # of connection points: 2
#     Edge 36, Type (0, 0), BuildingBlock: ZUJKAS_clean_linker_0, # of connection points: 2
#     Edge 37, Type (0, 0), BuildingBlock: ZUJKAS_clean_linker_0, # of connection points: 2
#     Edge 38, Type (0, 0), BuildingBlock: ZUJKAS_clean_linker_0, # of connection points: 2
#     Edge 39, Type (0, 0), BuildingBlock: ZUJKAS_clean_linker_0, # of connection points: 2
#     Edge 40, Type (0, 0), BuildingBlock: ZUJKAS_clean_linker_0, # of connection points: 2
#     Edge 41, Type (0, 0), BuildingBlock: ZUJKAS_clean_linker_0, # of connection points: 2
#     Edge 42, Type (0, 0), BuildingBlock: ZUJKAS_clean_linker_0, # of connection points: 2
#     Edge 43, Type (0, 0), BuildingBlock: ZUJKAS_clean_linker_0, # of connection points: 2
#     Edge 44, Type (0, 0), BuildingBlock: ZUJKAS_clean_linker_0, # of connection points: 2
#     Edge 45, Type (0, 0), BuildingBlock: ZUJKAS_clean_linker_0, # of connection points: 2
#     Edge 46, Type (0, 0), BuildingBlock: ZUJKAS_clean_linker_0, # of connection points: 2
#     Edge 47, Type (0, 0), BuildingBlock: ZUJKAS_clean_linker_0, # of connection points: 2
# Relax obj value: 0.142
# Max RMSD: 0.113
# Mean RMSD: 0.113
data_MOF--net-smw--node1-IZENUY_clean_sbu_0--edge1-ZUJKAS_clean_linker_0
_symmetry_space_group_name_H-M    P1
_symmetry_Int_Tables_number       1
_symmetry_cell_setting            triclinic
loop_
_symmetry_equiv_pos_as_xyz
'x, y, z'
_cell_length_a     73.239254
_cell_length_b     73.240337
_cell_length_c     25.667339
_cell_angle_alpha  89.870837
_cell_angle_beta   90.010003
_cell_angle_gamma 120.00614
loop_
_atom_site_label
_atom_site_type_symbol
_atom_site_fract_x
_atom_site_fract_y
_atom_site_fract_z
_atom_type_partial_charge
Fe0 Fe 0.4772 0.14732 -0.00037 0.0
Fe1 Fe 0.46021 0.0998 0.00017 0.0
O2 O 0.45549 0.12123 0.00065 0.0
Fe3 Fe 0.42918 0.1164 0.0019 0.0
O4 O 0.43288 0.13092 0.94156 0.0
O5 O 0.46368 0.15821 0.96154 0.0
O6 O 0.4869 0.14303 0.9382 0.0
C7 C 0.49133 0.12865 0.93133 0.0
C8 C 0.45131 0.15159 0.06941 0.0
O9 O 0.48462 0.1133 0.96261 0.0
C10 C 0.42529 0.08546 0.06839 0.0
O11 O 0.49463 0.1411 0.03801 0.0
O12 O 0.4744 0.108 0.06139 0.0
O13 O 0.43545 0.13972 0.04153 0.0
O14 O 0.46912 0.1535 0.06052 0.0
C15 C 0.42757 0.0858 0.93155 0.0
O16 O 0.43663 0.08198 0.03749 0.0
O17 O 0.42333 0.1015 0.06252 0.0
C18 C 0.49062 0.12581 0.06825 0.0
O19 O 0.44647 0.09058 0.93888 0.0
O20 O 0.41837 0.09219 0.96224 0.0
C21 C 0.44733 0.14966 0.93332 0.0
Fe22 Fe 0.33148 0.47593 0.00361 0.0
Fe23 Fe 0.36127 0.45813 0.99151 0.0
O24 O 0.33541 0.45402 0.99747 0.0
Fe25 Fe 0.31361 0.42792 0.9971 0.0
O26 O 0.30248 0.43332 0.93992 0.0
O27 O 0.3067 0.46375 0.96678 0.0
O28 O 0.3449 0.48741 0.94225 0.0
C29 C 0.36343 0.49166 0.93167 0.0
C30 C 0.30155 0.44849 0.07203 0.0
O31 O 0.37215 0.48347 0.95772 0.0
C32 C 0.34117 0.42198 0.05618 0.0
O33 O 0.35564 0.49183 0.04166 0.0
O34 O 0.36871 0.47087 0.05446 0.0
O35 O 0.29717 0.43348 0.04086 0.0
O36 O 0.31774 0.4663 0.0652 0.0
C37 C 0.34101 0.42693 0.92036 0.0
O38 O 0.35547 0.43354 0.02418 0.0
O39 O 0.32334 0.42073 0.0546 0.0
C40 C 0.36735 0.4868 0.06701 0.0
O41 O 0.35535 0.4457 0.92815 0.0
O42 O 0.32601 0.41757 0.95264 0.0
C43 C 0.29854 0.4482 0.93583 0.0
Fe44 Fe 0.88713 0.31263 0.99845 0.0
Fe45 Fe 0.85651 0.32997 -0.0007 0.0
O46 O 0.88258 0.33428 0.99855 0.0
Fe47 Fe 0.90417 0.36036 0.99776 0.0
O48 O 0.91341 0.35597 0.9362 0.0
O49 O 0.9113 0.32598 0.95862 0.0
O50 O 0.87249 0.30242 0.93804 0.0
C51 C 0.85374 0.29829 0.93096 0.0
C52 C 0.91825 0.33921 0.06495 0.0
O53 O 0.84533 0.30567 0.96104 0.0
C54 C 0.87852 0.36492 0.06713 0.0
O55 O 0.86381 0.29541 0.03797 0.0
O56 O 0.85066 0.31549 0.06026 0.0
O57 O 0.92183 0.35424 0.03453 0.0
O58 O 0.9021 0.32127 0.05903 0.0
C59 C 0.87501 0.36286 0.93038 0.0
O60 O 0.86301 0.35355 0.03786 0.0
O61 O 0.89626 0.36646 0.05934 0.0
C62 C 0.85236 0.29934 0.06755 0.0
O63 O 0.86048 0.34412 0.9381 0.0
O64 O 0.89069 0.37143 0.96061 0.0
C65 C 0.91821 0.34187 0.92865 0.0
Fe66 Fe 0.54306 0.90253 0.99719 0.0
Fe67 Fe 0.57396 0.88567 0.99781 0.0
O68 O 0.54773 0.88106 0.99696 0.0
Fe69 Fe 0.526 0.85498 0.99614 0.0
O70 O 0.50885 0.86148 0.95787 0.0
O71 O 0.52925 0.89459 0.93528 0.0
O72 O 0.56691 0.92043 0.96092 0.0
C73 C 0.5789 0.91725 0.9316 0.0
C74 C 0.51162 0.87332 0.06489 0.0
O75 O 0.5808 0.90117 0.93788 0.0
C76 C 0.55477 0.85173 0.06412 0.0
O77 O 0.55638 0.91169 0.05897 0.0
O78 O 0.58441 0.9095 0.03861 0.0
O79 O 0.51589 0.85883 0.05747 0.0
O80 O 0.51841 0.88882 0.03396 0.0
C81 C 0.55256 0.85132 0.92753 0.0
O82 O 0.5693 0.87058 0.0578 0.0
O83 O 0.53905 0.84356 0.03387 0.0
C84 C 0.57513 0.91627 0.06785 0.0
O85 O 0.56799 0.86264 0.95723 0.0
O86 O 0.53467 0.84946 0.93516 0.0
C87 C 0.51304 0.87683 0.92784 0.0
Fe88 Fe 0.64192 0.54284 0.00187 0.0
Fe89 Fe 0.68958 0.5741 0.00037 0.0
O90 O 0.66814 0.54777 0.00149 0.0
Fe91 Fe 0.67276 0.52621 0.00219 0.0
O92 O 0.649 0.5084 0.96499 0.0
O93 O 0.63595 0.52835 0.94117 0.0
O94 O 0.64751 0.56606 0.96354 0.0
C95 C 0.66243 0.57752 0.93295 0.0
C96 C 0.64024 0.5121 0.07158 0.0
O97 O 0.68061 0.58003 0.93973 0.0
C98 C 0.70493 0.55608 0.0681 0.0
O99 O 0.64614 0.55696 0.06237 0.0
O100 O 0.67615 0.58488 0.04006 0.0
O101 O 0.65907 0.5166 0.06409 0.0
O102 O 0.63136 0.51868 0.0406 0.0
C103 C 0.70262 0.55217 0.93193 0.0
O104 O 0.70024 0.57029 0.06079 0.0
O105 O 0.69739 0.53997 0.03917 0.0
C106 C 0.66007 0.57595 0.06948 0.0
O107 O 0.70673 0.56788 0.96058 0.0
O108 O 0.68668 0.53434 0.94065 0.0
C109 C 0.63758 0.51215 0.93481 0.0
Fe110 Fe 0.09908 0.64106 0.99592 0.0
Fe111 Fe 0.11565 0.68874 0.9972 0.0
O112 O 0.12042 0.66724 0.99706 0.0
Fe113 Fe 0.14659 0.67187 0.9982 0.0
O114 O 0.14314 0.65837 0.93633 0.0
O115 O 0.11293 0.63066 0.95792 0.0
O116 O 0.08959 0.64553 0.93488 0.0
C117 C 0.08451 0.65945 0.92774 0.0
C118 C 0.12489 0.63644 0.0646 0.0
O119 O 0.0916 0.67544 0.9572 0.0
C120 C 0.14983 0.70152 0.06753 0.0
O121 O 0.0813 0.64668 0.03349 0.0
O122 O 0.10047 0.67976 0.05751 0.0
O123 O 0.14032 0.64802 0.03531 0.0
O124 O 0.10708 0.63471 0.05707 0.0
C125 C 0.14949 0.70416 0.93144 0.0
O126 O 0.13886 0.70589 0.03723 0.0
O127 O 0.15165 0.68549 0.06001 0.0
C128 C 0.08465 0.66159 0.06392 0.0
O129 O 0.13044 0.69925 0.93696 0.0
O130 O 0.15782 0.69668 0.96158 0.0
C131 C 0.12879 0.63958 0.92813 0.0
Fe132 Fe 0.88607 0.5738 0.49942 0.0
Fe133 Fe 0.85576 0.52579 0.49758 0.0
O134 O 0.88174 0.54769 0.4981 0.0
Fe135 Fe 0.90347 0.54344 0.49733 0.0
O136 O 0.92088 0.56696 0.5351 0.0
O137 O 0.9008 0.57965 0.56016 0.0
O138 O 0.86255 0.5671 0.53886 0.0
C139 C 0.85112 0.55133 0.56758 0.0
C140 C 0.91755 0.57653 0.42966 0.0
O141 O 0.84956 0.53364 0.55901 0.0
C142 C 0.87476 0.51223 0.42839 0.0
O143 O 0.87167 0.56991 0.439 0.0
O144 O 0.84452 0.53917 0.4601 0.0
O145 O 0.91288 0.55761 0.43641 0.0
O146 O 0.9104 0.58515 0.45995 0.0
C147 C 0.87763 0.51258 0.56528 0.0
O148 O 0.86015 0.51633 0.43587 0.0
O149 O 0.89028 0.51918 0.45915 0.0
C150 C 0.8529 0.55546 0.43149 0.0
O151 O 0.86229 0.50846 0.53532 0.0
O152 O 0.89534 0.52893 0.55831 0.0
C153 C 0.91709 0.57811 0.56584 0.0
Fe154 Fe 0.31316 0.8859 0.49805 0.0
Fe155 Fe 0.32984 0.8548 0.49487 0.0
O156 O 0.33454 0.88096 0.4972 0.0
Fe157 Fe 0.36073 0.90218 0.49897 0.0
O158 O 0.35623 0.91071 0.56136 0.0
O159 O 0.32667 0.90962 0.53922 0.0
O160 O 0.30259 0.87063 0.55763 0.0
C161 C 0.29752 0.8515 0.56207 0.0
C162 C 0.34033 0.91751 0.43304 0.0
O163 O 0.30503 0.84336 0.53154 0.0
C164 C 0.36512 0.877 0.42819 0.0
O165 O 0.29592 0.86302 0.45713 0.0
O166 O 0.31616 0.85019 0.43323 0.0
O167 O 0.35517 0.92053 0.46345 0.0
O168 O 0.3222 0.90157 0.43851 0.0
C169 C 0.36217 0.87211 0.56502 0.0
O170 O 0.3537 0.8614 0.45731 0.0
O171 O 0.36686 0.89477 0.43672 0.0
C172 C 0.30012 0.85208 0.4264 0.0
O173 O 0.34336 0.85783 0.5567 0.0
O174 O 0.37117 0.88787 0.53497 0.0
C175 C 0.34219 0.9155 0.56983 0.0
Fe176 Fe 0.47687 0.32999 0.50314 0.0
Fe177 Fe 0.45993 0.36058 0.50405 0.0
O178 O 0.4552 0.33443 0.50201 0.0
Fe179 Fe 0.42892 0.31299 0.49893 0.0
O180 O 0.43208 0.30143 0.55863 0.0
O181 O 0.46305 0.30517 0.5395 0.0
O182 O 0.48601 0.34327 0.56554 0.0
C183 C 0.49049 0.36204 0.5735 0.0
C184 C 0.45156 0.30075 0.43089 0.0
O185 O 0.48408 0.37106 0.54256 0.0
C186 C 0.42544 0.34085 0.43448 0.0
O187 O 0.4946 0.35405 0.4665 0.0
O188 O 0.47455 0.36714 0.44332 0.0
O189 O 0.43548 0.29644 0.45827 0.0
O190 O 0.46934 0.31644 0.44125 0.0
C191 C 0.42668 0.34128 0.57088 0.0
O192 O 0.43662 0.3553 0.46631 0.0
O193 O 0.42363 0.32285 0.43872 0.0
C194 C 0.49074 0.36548 0.4365 0.0
O195 O 0.44567 0.35545 0.56474 0.0
O196 O 0.41786 0.32591 0.53944 0.0
C197 C 0.44651 0.29713 0.5671 0.0
Fe198 Fe 0.11733 0.42888 0.49837 0.0
Fe199 Fe 0.14824 0.47679 0.49756 0.0
O200 O 0.12211 0.45519 0.49796 0.0
Fe201 Fe 0.10076 0.46004 0.49809 0.0
O202 O 0.08318 0.43664 0.5359 0.0
O203 O 0.10243 0.42272 0.55912 0.0
O204 O 0.14067 0.43501 0.53798 0.0
C205 C 0.15215 0.45058 0.56709 0.0
C206 C 0.08583 0.42712 0.42987 0.0
O207 O 0.1541 0.46846 0.55873 0.0
C208 C 0.12986 0.4913 0.42933 0.0
O209 O 0.13188 0.43294 0.43778 0.0
O210 O 0.15917 0.46331 0.46 0.0
O211 O 0.09085 0.4461 0.43723 0.0
O212 O 0.09311 0.41819 0.45886 0.0
C213 C 0.1271 0.49044 0.56589 0.0
O214 O 0.14408 0.48659 0.43603 0.0
O215 O 0.11431 0.48441 0.46008 0.0
C216 C 0.15071 0.44739 0.43048 0.0
O217 O 0.14224 0.49437 0.53546 0.0
O218 O 0.10925 0.4743 0.5592 0.0
C219 C 0.08676 0.42522 0.56632 0.0
Fe220 Fe 0.67321 0.1467 0.50218 0.0
Fe221 Fe 0.64224 0.09925 0.50066 0.0
O222 O 0.66851 0.12051 0.50074 0.0
Fe223 Fe 0.6899 0.11554 0.49914 0.0
O224 O 0.70737 0.13844 0.5396 0.0
O225 O 0.68774 0.15206 0.5627 0.0
O226 O 0.64982 0.14041 0.54133 0.0
C227 C 0.63866 0.12501 0.57121 0.0
C228 C 0.70471 0.14955 0.43306 0.0
O229 O 0.63676 0.10715 0.56302 0.0
C230 C 0.66003 0.08527 0.42918 0.0
O231 O 0.65899 0.14314 0.44132 0.0
O232 O 0.6314 0.11328 0.46481 0.0
O233 O 0.70027 0.13065 0.43918 0.0
O234 O 0.69743 0.15785 0.4637 0.0
C235 C 0.66313 0.0841 0.56552 0.0
O236 O 0.64607 0.09012 0.43842 0.0
O237 O 0.6761 0.09178 0.45826 0.0
C238 C 0.64009 0.12891 0.43427 0.0
O239 O 0.64802 0.08108 0.53617 0.0
O240 O 0.68124 0.09998 0.55902 0.0
C241 C 0.7037 0.15001 0.56951 0.0
Fe242 Fe 0.57496 0.6894 0.50094 0.0
Fe243 Fe 0.52693 0.67107 0.49518 0.0
O244 O 0.54899 0.66737 0.50075 0.0
Fe245 Fe 0.54521 0.64161 0.50613 0.0
O246 O 0.55822 0.64755 0.56882 0.0
O247 O 0.58597 0.67709 0.54393 0.0
O248 O 0.56956 0.7 0.55903 0.0
C249 C 0.55459 0.70378 0.56346 0.0
C250 C 0.58067 0.66232 0.43941 0.0
O251 O 0.53913 0.69581 0.53216 0.0
C252 C 0.51587 0.6352 0.43188 0.0
O253 O 0.5689 0.70591 0.45837 0.0
O254 O 0.53627 0.68485 0.43354 0.0
O255 O 0.56957 0.6478 0.47154 0.0
O256 O 0.58194 0.68013 0.4426 0.0
C257 C 0.51175 0.63915 0.56725 0.0
O258 O 0.51092 0.64692 0.45729 0.0
O259 O 0.53193 0.634 0.44388 0.0
C260 C 0.55386 0.70134 0.42705 0.0
O261 O 0.51577 0.6576 0.55648 0.0
O262 O 0.52014 0.63054 0.54154 0.0
C263 C 0.57704 0.66188 0.57586 0.0
H264 H 0.48315 0.18324 0.12537 0.0
H265 H 0.48064 0.20762 0.18577 0.0
H266 H 0.41334 0.17591 0.16332 0.0
H267 H 0.41561 0.15138 0.1025 0.0
H268 H 0.46097 0.23386 0.15678 0.0
H269 H 0.42407 0.18043 0.32696 0.0
H270 H 0.43881 0.1755 0.278 0.0
H271 H 0.41289 0.17087 0.26351 0.0
C272 C 0.46776 0.18127 0.13352 0.0
C273 C 0.44957 0.16536 0.10893 0.0
C274 C 0.46639 0.19526 0.16797 0.0
C275 C 0.44682 0.19347 0.17899 0.0
C276 C 0.42857 0.1774 0.1555 0.0
H277 H 0.41592 0.26626 0.39397 0.0
H278 H 0.4137 0.2407 0.32942 0.0
C279 C 0.42992 0.16345 0.12071 0.0
C280 C 0.44574 0.20902 0.21348 0.0
H281 H 0.43072 0.21525 0.33485 0.0
C282 C 0.45431 0.22984 0.19568 0.0
C283 C 0.43685 0.20358 0.26385 0.0
C284 C 0.42769 0.18142 0.28466 0.0
C285 C 0.45434 0.24547 0.2272 0.0
C286 C 0.44607 0.24022 0.27834 0.0
C287 C 0.43709 0.21926 0.29569 0.0
C288 C 0.44731 0.25635 0.31523 0.0
C289 C 0.46301 0.26739 0.20514 0.0
C290 C 0.46694 0.27361 0.3287 0.0
C291 C 0.46827 0.28832 0.36524 0.0
C292 C 0.44999 0.28589 0.3897 0.0
C293 C 0.43031 0.26861 0.37592 0.0
C294 C 0.429 0.25397 0.33908 0.0
H295 H 0.46232 0.26718 0.16189 0.0
H296 H 0.45423 0.27501 0.22011 0.0
H297 H 0.4798 0.27718 0.21663 0.0
H298 H 0.48133 0.27549 0.31177 0.0
H299 H 0.48369 0.30133 0.37514 0.0
H300 H 0.19 0.47725 0.39948 0.0
H301 H 0.21345 0.47357 0.33881 0.0
H302 H 0.166 0.40888 0.31078 0.0
H303 H 0.14208 0.41246 0.37161 0.0
H304 H 0.22841 0.44522 0.34823 0.0
H305 H 0.18441 0.43356 0.16299 0.0
H306 H 0.17881 0.4438 0.221 0.0
H307 H 0.16991 0.41616 0.21588 0.0
C308 C 0.18439 0.46222 0.3803 0.0
C309 C 0.16413 0.4451 0.39066 0.0
C310 C 0.19788 0.46017 0.34558 0.0
C311 C 0.19148 0.44101 0.32012 0.0
C312 C 0.17116 0.42391 0.32952 0.0
H313 H 0.26357 0.41327 0.09325 0.0
H314 H 0.2368 0.40969 0.15577 0.0
C315 C 0.15753 0.42596 0.36438 0.0
C316 C 0.20662 0.43907 0.28535 0.0
H317 H 0.21635 0.4332 0.15816 0.0
C318 C 0.22573 0.44247 0.3067 0.0
C319 C 0.20304 0.43539 0.23126 0.0
C320 C 0.18302 0.43216 0.2061 0.0
C321 C 0.2415 0.44263 0.27533 0.0
C322 C 0.23823 0.43964 0.221 0.0
C323 C 0.21885 0.43557 0.19983 0.0
C324 C 0.25499 0.4415 0.18518 0.0
C325 C 0.26153 0.44597 0.30068 0.0
C326 C 0.27416 0.46058 0.18102 0.0
C327 C 0.28955 0.46271 0.14536 0.0
C328 C 0.28601 0.44581 0.11282 0.0
C329 C 0.26688 0.42662 0.11768 0.0
C330 C 0.2515 0.42453 0.15332 0.0
H331 H 0.25917 0.4419 0.34281 0.0
H332 H 0.26745 0.43636 0.28146 0.0
H333 H 0.27383 0.46283 0.29714 0.0
H334 H 0.27703 0.47402 0.20455 0.0
H335 H 0.30402 0.47774 0.14256 0.0
H336 H 0.84873 0.26088 0.08694 0.0
H337 H 0.82511 0.23391 0.14864 0.0
H338 H 0.80168 0.2745 0.19909 0.0
H339 H 0.82533 0.3017 0.13767 0.0
H340 H 0.81205 0.2545 0.28138 0.0
H341 H 0.76028 0.19742 0.13099 0.0
H342 H 0.78808 0.20713 0.12407 0.0
H343 H 0.77807 0.2249 0.11651 0.0
C344 C 0.83862 0.26415 0.11121 0.0
C345 C 0.83885 0.28345 0.10703 0.0
C346 C 0.82503 0.24863 0.14624 0.0
C347 C 0.81142 0.25208 0.17775 0.0
C348 C 0.81198 0.27149 0.17478 0.0
H349 H 0.71518 0.18963 0.40661 0.0
H350 H 0.74179 0.21316 0.34483 0.0
C351 C 0.82551 0.28702 0.13965 0.0
C352 C 0.79662 0.23551 0.21411 0.0
H353 H 0.75264 0.18659 0.21879 0.0
C354 C 0.7991 0.23962 0.26774 0.0
C355 C 0.77986 0.21605 0.19615 0.0
C356 C 0.77621 0.21106 0.1388 0.0
C357 C 0.78513 0.22487 0.30397 0.0
C358 C 0.76797 0.20568 0.28598 0.0
C359 C 0.76581 0.20131 0.23243 0.0
C360 C 0.75132 0.19075 0.32198 0.0
C361 C 0.78888 0.22997 0.36128 0.0
C362 C 0.74724 0.16997 0.3282 0.0
C363 C 0.73183 0.15628 0.36359 0.0
C364 C 0.72022 0.16318 0.39305 0.0
C365 C 0.72397 0.18381 0.38522 0.0
C366 C 0.73928 0.19738 0.35002 0.0
H367 H 0.80561 0.24183 0.36923 0.0
H368 H 0.77899 0.23665 0.37441 0.0
H369 H 0.78455 0.2156 0.38472 0.0
H370 H 0.75624 0.16449 0.30643 0.0
H371 H 0.72926 0.14048 0.36848 0.0
H372 H 0.5881 0.74035 0.40805 0.0
H373 H 0.59034 0.76747 0.34833 0.0
H374 H 0.52698 0.72519 0.29582 0.0
H375 H 0.52444 0.69804 0.35581 0.0
H376 H 0.58564 0.76791 0.23987 0.0
H377 H 0.52433 0.77719 0.34342 0.0
H378 H 0.53652 0.76328 0.37146 0.0
H379 H 0.51575 0.75054 0.3243 0.0
C380 C 0.57465 0.73673 0.38362 0.0
C381 C 0.55599 0.71705 0.38723 0.0
C382 C 0.57598 0.75229 0.3495 0.0
C383 C 0.55868 0.74851 0.31845 0.0
C384 C 0.54035 0.72861 0.32034 0.0
H385 H 0.52541 0.81137 0.08956 0.0
H386 H 0.52828 0.78812 0.15274 0.0
C387 C 0.53898 0.71305 0.35446 0.0
C388 C 0.55964 0.76545 0.2846 0.0
H389 H 0.53523 0.79397 0.26069 0.0
C390 C 0.57476 0.77377 0.24464 0.0
C391 C 0.54556 0.77321 0.29125 0.0
C392 C 0.52975 0.76576 0.33523 0.0
C393 C 0.57556 0.78899 0.20972 0.0
C394 C 0.56105 0.79626 0.21549 0.0
C395 C 0.54631 0.78834 0.2563 0.0
C396 C 0.55981 0.81093 0.17752 0.0
C397 C 0.59136 0.79656 0.16575 0.0
C398 C 0.57654 0.83167 0.17085 0.0
C399 C 0.57498 0.84516 0.13447 0.0
C400 C 0.55663 0.83809 0.10423 0.0
C401 C 0.53984 0.81738 0.11183 0.0
C402 C 0.54141 0.80402 0.14806 0.0
H403 H 0.59867 0.78654 0.16097 0.0
H404 H 0.58376 0.79674 0.12844 0.0
H405 H 0.60408 0.81291 0.17392 0.0
H406 H 0.59076 0.83745 0.19387 0.0
H407 H 0.58815 0.86102 0.1298 0.0
H408 H 0.71937 0.52913 0.09053 0.0
H409 H 0.74657 0.53396 0.15255 0.0
H410 H 0.75476 0.5944 0.19636 0.0
H411 H 0.72726 0.58968 0.13418 0.0
H412 H 0.78931 0.56733 0.15468 0.0
H413 H 0.74552 0.56235 0.33648 0.0
H414 H 0.7325 0.55344 0.27435 0.0
H415 H 0.74762 0.58113 0.2881 0.0
C416 C 0.72684 0.54346 0.11336 0.0
C417 C 0.72108 0.55902 0.1073 0.0
C418 C 0.74245 0.5462 0.14874 0.0
C419 C 0.75261 0.56448 0.17915 0.0
C420 C 0.74694 0.58007 0.17358 0.0
H421 H 0.86391 0.58935 0.3664 0.0
H422 H 0.84107 0.59423 0.30484 0.0
C423 C 0.73126 0.57736 0.13797 0.0
C424 C 0.76918 0.56693 0.2163 0.0
H425 H 0.77924 0.56629 0.34597 0.0
C426 C 0.78728 0.56738 0.19653 0.0
C427 C 0.76634 0.56682 0.2708 0.0
C428 C 0.74691 0.56577 0.29401 0.0
C429 C 0.80236 0.56713 0.22984 0.0
C430 C 0.79934 0.56663 0.28433 0.0
C431 C 0.78153 0.56678 0.30413 0.0
C432 C 0.81343 0.56406 0.32133 0.0
C433 C 0.82091 0.56641 0.20654 0.0
C434 C 0.80541 0.54558 0.35121 0.0
C435 C 0.81834 0.54275 0.38629 0.0
C436 C 0.8396 0.55841 0.39255 0.0
C437 C 0.84765 0.57694 0.36243 0.0
C438 C 0.83464 0.57975 0.32717 0.0
H439 H 0.81901 0.56323 0.16399 0.0
H440 H 0.83545 0.58181 0.21274 0.0
H441 H 0.8231 0.55406 0.22586 0.0
H442 H 0.7891 0.53327 0.3472 0.0
H443 H 0.81156 0.52828 0.40875 0.0
H444 H 0.25747 0.83266 0.4357 0.0
H445 H 0.23106 0.8069 0.37645 0.0
H446 H 0.28045 0.81559 0.27002 0.0
H447 H 0.30697 0.84031 0.33104 0.0
H448 H 0.21866 0.8075 0.28438 0.0
H449 H 0.25111 0.7537 0.28173 0.0
H450 H 0.26097 0.7759 0.32521 0.0
H451 H 0.27016 0.7794 0.25876 0.0
C452 C 0.26265 0.8291 0.39953 0.0
C453 C 0.28423 0.83832 0.38799 0.0
C454 C 0.24756 0.81435 0.36571 0.0
C455 C 0.25373 0.80881 0.31926 0.0
C456 C 0.27528 0.81892 0.30647 0.0
H457 H 0.16727 0.74418 0.0639 0.0
H458 H 0.19178 0.77 0.12605 0.0
C459 C 0.29042 0.83322 0.34101 0.0
C460 C 0.23757 0.79251 0.28445 0.0
H461 H 0.22517 0.74758 0.21741 0.0
C462 C 0.22001 0.7943 0.27011 0.0
C463 C 0.23898 0.77495 0.26668 0.0
C464 C 0.2562 0.77073 0.28439 0.0
C465 C 0.20406 0.77928 0.23801 0.0
C466 C 0.20619 0.76249 0.21753 0.0
C467 C 0.22359 0.76054 0.23249 0.0
C468 C 0.19071 0.7468 0.18042 0.0
C469 C 0.18488 0.78135 0.22778 0.0
C470 C 0.18244 0.72509 0.18907 0.0
C471 C 0.16897 0.71033 0.15263 0.0
C472 C 0.1632 0.71696 0.10731 0.0
C473 C 0.17117 0.73861 0.099 0.0
C474 C 0.18507 0.75339 0.13476 0.0
H475 H 0.18216 0.78983 0.25998 0.0
H476 H 0.18739 0.79065 0.19162 0.0
H477 H 0.17046 0.7657 0.22308 0.0
H478 H 0.18658 0.71956 0.22384 0.0
H479 H 0.16305 0.69372 0.15991 0.0
H480 H 0.58727 0.72821 0.62986 0.0
H481 H 0.58885 0.7538 0.6938 0.0
H482 H 0.52632 0.73966 0.6497 0.0
H483 H 0.52448 0.7141 0.58622 0.0
H484 H 0.58394 0.79 0.67436 0.0
H485 H 0.52321 0.73262 0.80988 0.0
H486 H 0.53608 0.72499 0.76168 0.0
H487 H 0.51496 0.72945 0.74301 0.0
C488 C 0.57381 0.73047 0.63395 0.0
C489 C 0.55573 0.71906 0.60292 0.0
C490 C 0.57477 0.74512 0.67041 0.0
C491 C 0.5576 0.7484 0.67683 0.0
C492 C 0.5396 0.7371 0.64591 0.0
H493 H 0.52297 0.82506 0.8573 0.0
H494 H 0.52577 0.80119 0.79574 0.0
C495 C 0.53864 0.72256 0.60943 0.0
C496 C 0.55849 0.76396 0.71494 0.0
H497 H 0.53355 0.76873 0.82191 0.0
C498 C 0.5731 0.7854 0.70699 0.0
C499 C 0.54429 0.75784 0.75732 0.0
C500 C 0.52886 0.73496 0.76892 0.0
C501 C 0.57337 0.80098 0.73933 0.0
C502 C 0.55886 0.79486 0.7811 0.0
C503 C 0.54457 0.77338 0.78963 0.0
C504 C 0.55791 0.81043 0.81611 0.0
C505 C 0.58865 0.82387 0.72745 0.0
C506 C 0.57512 0.82363 0.84778 0.0
C507 C 0.5736 0.83737 0.88298 0.0
C508 C 0.55477 0.838 0.88748 0.0
C509 C 0.53769 0.82497 0.855 0.0
C510 C 0.53925 0.81129 0.8198 0.0
H511 H 0.59506 0.82609 0.68725 0.0
H512 H 0.58098 0.83356 0.73219 0.0
H513 H 0.60208 0.82983 0.75503 0.0
H514 H 0.58954 0.82295 0.84622 0.0
H515 H 0.58704 0.84711 0.90751 0.0
H516 H 0.74266 0.58513 0.91554 0.0
H517 H 0.76876 0.58698 0.85292 0.0
H518 H 0.72384 0.52526 0.79554 0.0
H519 H 0.69763 0.5232 0.85787 0.0
H520 H 0.78362 0.55681 0.84604 0.0
H521 H 0.74679 0.56326 0.66276 0.0
H522 H 0.74028 0.56933 0.72587 0.0
H523 H 0.72952 0.54238 0.70609 0.0
C524 C 0.73823 0.57203 0.88926 0.0
C525 C 0.71803 0.55401 0.89178 0.0
C526 C 0.75319 0.5731 0.85364 0.0
C527 C 0.74816 0.55633 0.81943 0.0
C528 C 0.72794 0.53848 0.82121 0.0
H529 H 0.82656 0.52199 0.64098 0.0
H530 H 0.80263 0.52424 0.7038 0.0
C531 C 0.71302 0.53731 0.85703 0.0
C532 C 0.76427 0.55708 0.78321 0.0
H533 H 0.77558 0.55715 0.65414 0.0
C534 C 0.78195 0.557 0.80408 0.0
C535 C 0.76208 0.55747 0.72857 0.0
C536 C 0.74375 0.55829 0.70427 0.0
C537 C 0.79728 0.5568 0.77159 0.0
C538 C 0.79478 0.55659 0.71695 0.0
C539 C 0.77736 0.55717 0.6961 0.0
C540 C 0.80999 0.55562 0.68064 0.0
C541 C 0.81611 0.55694 0.79585 0.0
C542 C 0.82198 0.57248 0.64671 0.0
C543 C 0.83571 0.57129 0.61087 0.0
C544 C 0.83752 0.55306 0.60781 0.0
C545 C 0.82557 0.53625 0.64225 0.0
C546 C 0.81195 0.53753 0.67833 0.0
H547 H 0.81805 0.56167 0.83748 0.0
H548 H 0.814 0.54086 0.7936 0.0
H549 H 0.83078 0.56784 0.77447 0.0
H550 H 0.82062 0.58654 0.64782 0.0
H551 H 0.84461 0.58451 0.5849 0.0
H552 H 0.27041 0.80956 0.55132 0.0
H553 H 0.24294 0.78587 0.61134 0.0
H554 H 0.25936 0.83771 0.71652 0.0
H555 H 0.28639 0.86182 0.65493 0.0
H556 H 0.24706 0.77493 0.70367 0.0
H557 H 0.19673 0.8113 0.7181 0.0
H558 H 0.21718 0.81931 0.66961 0.0
H559 H 0.22363 0.82933 0.73508 0.0
C560 C 0.26808 0.81598 0.58706 0.0
C561 C 0.2806 0.83754 0.59856 0.0
C562 C 0.25232 0.80241 0.62133 0.0
C563 C 0.24883 0.80997 0.66832 0.0
C564 C 0.2613 0.83155 0.67993 0.0
H565 H 0.19215 0.72859 0.93417 0.0
H566 H 0.21524 0.75461 0.87053 0.0
C567 C 0.27687 0.84529 0.64498 0.0
C568 C 0.23317 0.79482 0.70622 0.0
H569 H 0.19046 0.78464 0.78109 0.0
C570 C 0.23461 0.77703 0.72021 0.0
C571 C 0.21667 0.79731 0.72738 0.0
C572 C 0.21329 0.81523 0.71137 0.0
C573 C 0.22028 0.76186 0.75501 0.0
C574 C 0.20449 0.7649 0.77831 0.0
C575 C 0.20273 0.78245 0.76372 0.0
C576 C 0.19006 0.75021 0.81868 0.0
C577 C 0.22205 0.74251 0.76565 0.0
C578 C 0.16806 0.73981 0.81215 0.0
C579 C 0.15468 0.72508 0.84922 0.0
C580 C 0.16314 0.72047 0.89315 0.0
C581 C 0.18512 0.73145 0.90025 0.0
C582 C 0.19839 0.7463 0.86377 0.0
H583 H 0.22997 0.73925 0.73301 0.0
H584 H 0.23169 0.74513 0.80117 0.0
H585 H 0.20631 0.72836 0.77191 0.0
H586 H 0.16128 0.74272 0.77782 0.0
H587 H 0.1378 0.71694 0.84286 0.0
H588 H 0.41015 0.26896 0.61865 0.0
H589 H 0.40597 0.24211 0.68274 0.0
H590 H 0.47218 0.26281 0.67032 0.0
H591 H 0.47655 0.28942 0.60639 0.0
H592 H 0.42365 0.20964 0.66217 0.0
H593 H 0.45376 0.26288 0.83393 0.0
H594 H 0.44091 0.26769 0.77978 0.0
H595 H 0.46738 0.27269 0.77286 0.0
C596 C 0.42383 0.26784 0.62973 0.0
C597 C 0.44368 0.28131 0.60725 0.0
C598 C 0.42138 0.25247 0.66616 0.0
C599 C 0.43878 0.25056 0.68108 0.0
C600 C 0.45859 0.26409 0.65923 0.0
H601 H 0.47747 0.18722 0.89326 0.0
H602 H 0.47298 0.21002 0.83157 0.0
C603 C 0.46102 0.27927 0.62263 0.0
C604 C 0.43657 0.2344 0.71921 0.0
H605 H 0.4497 0.22894 0.84341 0.0
C606 C 0.42902 0.21367 0.70208 0.0
C607 C 0.44376 0.23988 0.77091 0.0
C608 C 0.45183 0.26196 0.79091 0.0
C609 C 0.42932 0.19841 0.73491 0.0
C610 C 0.43699 0.20402 0.78648 0.0
C611 C 0.44386 0.22463 0.80392 0.0
C612 C 0.43938 0.18931 0.82208 0.0
C613 C 0.42243 0.17679 0.71327 0.0
C614 C 0.422 0.16992 0.83712 0.0
C615 C 0.42456 0.15666 0.87217 0.0
C616 C 0.44451 0.16274 0.89343 0.0
C617 C 0.46186 0.18209 0.8779 0.0
C618 C 0.45932 0.19518 0.84264 0.0
H619 H 0.42184 0.17662 0.67 0.0
H620 H 0.43322 0.17111 0.72599 0.0
H621 H 0.40638 0.16554 0.72788 0.0
H622 H 0.40638 0.16523 0.82263 0.0
H623 H 0.41085 0.14195 0.88364 0.0
H624 H 0.15622 0.41609 0.58839 0.0
H625 H 0.17929 0.41322 0.65287 0.0
H626 H 0.20112 0.47714 0.70173 0.0
H627 H 0.17806 0.48018 0.6378 0.0
H628 H 0.22383 0.43898 0.65859 0.0
H629 H 0.18487 0.44363 0.83942 0.0
H630 H 0.17199 0.43763 0.7767 0.0
H631 H 0.1908 0.46441 0.79349 0.0
C632 C 0.16577 0.42949 0.61316 0.0
C633 C 0.16527 0.44838 0.60787 0.0
C634 C 0.17897 0.42782 0.64991 0.0
C635 C 0.19171 0.44488 0.68241 0.0
C636 C 0.19112 0.46366 0.67762 0.0
H637 H 0.28792 0.47814 0.91306 0.0
H638 H 0.26181 0.47592 0.85058 0.0
C639 C 0.17801 0.46539 0.64082 0.0
C640 C 0.20636 0.44344 0.7198 0.0
H641 H 0.21898 0.44754 0.84887 0.0
C642 C 0.22268 0.44063 0.70026 0.0
C643 C 0.20478 0.44561 0.77406 0.0
C644 C 0.18706 0.4478 0.79735 0.0
C645 C 0.23798 0.44072 0.73345 0.0
C646 C 0.23663 0.44328 0.78768 0.0
C647 C 0.22002 0.44564 0.80726 0.0
C648 C 0.25271 0.44442 0.8247 0.0
C649 C 0.25588 0.43887 0.70998 0.0
C650 C 0.25624 0.42738 0.83105 0.0
C651 C 0.27129 0.42862 0.86669 0.0
C652 C 0.28292 0.44685 0.89701 0.0
C653 C 0.27925 0.46384 0.89051 0.0
C654 C 0.2643 0.46261 0.85482 0.0
H655 H 0.25739 0.44208 0.66741 0.0
H656 H 0.27108 0.44996 0.72894 0.0
H657 H 0.25292 0.4226 0.71606 0.0
H658 H 0.24718 0.41303 0.80891 0.0
H659 H 0.27362 0.41521 0.87089 0.0
H660 H 0.86284 0.27324 0.86861 0.0
H661 H 0.8398 0.24761 0.80312 0.0
H662 H 0.7917 0.26352 0.83598 0.0
H663 H 0.8144 0.28904 0.90067 0.0
H664 H 0.79801 0.21214 0.81951 0.0
H665 H 0.79813 0.26895 0.67631 0.0
H666 H 0.81778 0.27666 0.72687 0.0
H667 H 0.7922 0.27316 0.74154 0.0
C668 C 0.84742 0.27138 0.86156 0.0
C669 C 0.8405 0.28322 0.88992 0.0
C670 C 0.83428 0.25671 0.82426 0.0
C671 C 0.81416 0.25388 0.8143 0.0
C672 C 0.8073 0.26571 0.84242 0.0
H673 H 0.70219 0.178 0.63753 0.0
H674 H 0.72982 0.2021 0.69687 0.0
C675 C 0.8203 0.28023 0.87967 0.0
C676 C 0.79985 0.23814 0.77588 0.0
H677 H 0.77082 0.23306 0.66721 0.0
C678 C 0.79226 0.21667 0.78574 0.0
C679 C 0.79238 0.24414 0.73197 0.0
C680 C 0.80068 0.26699 0.71815 0.0
C681 C 0.77665 0.20097 0.75409 0.0
C682 C 0.76871 0.20699 0.71113 0.0
C683 C 0.7768 0.22848 0.70043 0.0
C684 C 0.75161 0.19133 0.67742 0.0
C685 C 0.76818 0.17811 0.76806 0.0
C686 C 0.75465 0.17717 0.64701 0.0
C687 C 0.73885 0.16331 0.61304 0.0
C688 C 0.71976 0.16346 0.60857 0.0
C689 C 0.71667 0.17744 0.63986 0.0
C690 C 0.73246 0.19126 0.67377 0.0
H691 H 0.7725 0.1762 0.80838 0.0
H692 H 0.75074 0.16904 0.76431 0.0
H693 H 0.77485 0.17118 0.74091 0.0
H694 H 0.76944 0.17719 0.64858 0.0
H695 H 0.74182 0.15283 0.58944 0.0
H696 H 0.31166 0.92157 0.37115 0.0
H697 H 0.31913 0.95035 0.30985 0.0
H698 H 0.38535 0.9796 0.34628 0.0
H699 H 0.37813 0.95141 0.4074 0.0
H700 H 0.3702 0.00783 0.34707 0.0
H701 H 0.34742 0.95946 0.16619 0.0
H702 H 0.328 0.95121 0.21714 0.0
H703 H 0.35151 0.9498 0.22729 0.0
C704 C 0.3278 0.9341 0.36587 0.0
C705 C 0.34428 0.93416 0.39428 0.0
C706 C 0.33205 0.95051 0.33082 0.0
C707 C 0.35282 0.96708 0.32342 0.0
C708 C 0.36919 0.96706 0.35159 0.0
H709 H 0.42818 0.05093 0.09342 0.0
H710 H 0.40708 0.02311 0.1553 0.0
C711 C 0.365 0.95083 0.38648 0.0
C712 C 0.35806 0.98456 0.28619 0.0
H713 H 0.36325 0.99607 0.15623 0.0
C714 C 0.36835 0.0053 0.30532 0.0
C715 C 0.35566 0.98116 0.23181 0.0
C716 C 0.34517 0.95925 0.20905 0.0
C717 C 0.37736 0.02275 0.2715 0.0
C718 C 0.37573 0.01933 0.2171 0.0
C719 C 0.3644 0.99862 0.198 0.0
C720 C 0.38813 0.03664 0.17961 0.0
C721 C 0.38973 0.04462 0.29416 0.0
C722 C 0.38458 0.05367 0.17284 0.0
C723 C 0.39682 0.06985 0.13733 0.0
C724 C 0.41266 0.06913 0.10788 0.0
C725 C 0.4161 0.05203 0.11516 0.0
C726 C 0.40398 0.03602 0.15048 0.0
H727 H 0.39202 0.04432 0.33688 0.0
H728 H 0.40544 0.05351 0.27522 0.0
H729 H 0.38117 0.05329 0.2868 0.0
H730 H 0.37227 0.05435 0.1946 0.0
H731 H 0.39369 0.08273 0.13248 0.0
H732 H 0.40549 0.31819 0.34605 0.0
H733 H 0.38758 0.32767 0.27901 0.0
H734 H 0.39933 0.38222 0.36856 0.0
H735 H 0.41733 0.37321 0.43457 0.0
H736 H 0.35249 0.33596 0.28353 0.0
H737 H 0.42793 0.40656 0.22724 0.0
H738 H 0.42685 0.38554 0.26639 0.0
H739 H 0.42235 0.40524 0.29567 0.0
C740 C 0.4041 0.33211 0.35149 0.0
C741 C 0.41314 0.34511 0.39524 0.0
C742 C 0.39384 0.33748 0.31329 0.0
C743 C 0.39246 0.35585 0.31848 0.0
C744 C 0.40058 0.36821 0.36329 0.0
H745 H 0.32263 0.40518 0.15096 0.0
H746 H 0.33316 0.3866 0.21334 0.0
C747 C 0.4109 0.363 0.401 0.0
C748 C 0.3836 0.36301 0.27636 0.0
H749 H 0.39663 0.40472 0.19528 0.0
C750 C 0.36212 0.35088 0.26375 0.0
C751 C 0.39626 0.38239 0.25033 0.0
C752 C 0.41967 0.3956 0.26015 0.0
C753 C 0.35286 0.35795 0.2266 0.0
C754 C 0.36539 0.37777 0.20221 0.0
C755 C 0.38695 0.3896 0.21421 0.0
C756 C 0.35691 0.3866 0.16302 0.0
C757 C 0.32987 0.34405 0.21339 0.0
C758 C 0.36671 0.3928 0.11415 0.0
C759 C 0.36104 0.40369 0.07919 0.0
C760 C 0.34528 0.40854 0.09198 0.0
C761 C 0.33474 0.40155 0.13997 0.0
C762 C 0.34067 0.39083 0.17547 0.0
H763 H 0.32411 0.32734 0.22425 0.0
H764 H 0.32044 0.3495 0.23535 0.0
H765 H 0.32705 0.34484 0.17115 0.0
H766 H 0.37923 0.38971 0.10355 0.0
H767 H 0.36931 0.40864 0.0423 0.0
H768 H 0.06842 0.38499 0.40741 0.0
H769 H 0.03861 0.36372 0.3495 0.0
H770 H 0.03499 0.41898 0.30913 0.0
H771 H 0.06461 0.44034 0.36671 0.0
H772 H 0.99546 0.382 0.34116 0.0
H773 H 0.03831 0.36525 0.18613 0.0
H774 H 0.04227 0.36026 0.25272 0.0
H775 H 0.05178 0.38683 0.23127 0.0
C776 C 0.06142 0.39267 0.38584 0.0
C777 C 0.06893 0.41441 0.39182 0.0
C778 C 0.0444 0.38048 0.35277 0.0
C779 C 0.03465 0.38981 0.32507 0.0
C780 C 0.04228 0.41149 0.33034 0.0
H781 H 0.9586 0.37166 0.06816 0.0
H782 H 0.98512 0.37934 0.1345 0.0
C783 C 0.05928 0.42369 0.36317 0.0
C784 C 0.01621 0.37712 0.29114 0.0
H785 H 0.0023 0.35306 0.17244 0.0
C786 C 0.9968 0.37532 0.30466 0.0
C787 C 0.0181 0.36849 0.24363 0.0
C788 C 0.03872 0.37031 0.2271 0.0
C789 C 0.97944 0.36587 0.27084 0.0
C790 C 0.98156 0.35796 0.22244 0.0
C791 C 1.00071 0.35897 0.20987 0.0
C792 C 0.96539 0.35179 0.18124 0.0
C793 C 0.95933 0.36553 0.2856 0.0
C794 C 0.94548 0.33351 0.1852 0.0
C795 C 0.9301 0.32896 0.1469 0.0
C796 C 0.93444 0.34275 0.1045 0.0
C797 C 0.95459 0.36076 0.10045 0.0
C798 C 0.96987 0.36515 0.13823 0.0
H799 H 0.96086 0.37394 0.32275 0.0
H800 H 0.95469 0.37291 0.25433 0.0
H801 H 0.94642 0.34895 0.28997 0.0
H802 H 0.94179 0.32295 0.21811 0.0
H803 H 0.91474 0.31497 0.15106 0.0
H804 H 0.61802 0.93973 0.07985 0.0
H805 H 0.63752 0.96819 0.14259 0.0
H806 H 0.5789 0.95704 0.21001 0.0
H807 H 0.55929 0.92872 0.1476 0.0
H808 H 0.63176 0.00485 0.152 0.0
H809 H 0.61626 0.95984 0.33667 0.0
H810 H 0.61397 0.94806 0.27343 0.0
H811 H 0.59332 0.95232 0.29713 0.0
C812 C 0.60929 0.94312 0.10855 0.0
C813 C 0.5871 0.93201 0.10866 0.0
C814 C 0.62046 0.9594 0.14421 0.0
C815 C 0.60963 0.96455 0.18107 0.0
C816 C 0.58753 0.9531 0.18225 0.0
H817 H 0.63079 0.07224 0.35133 0.0
H818 H 0.6219 0.04396 0.28865 0.0
C819 C 0.57636 0.937 0.14637 0.0
C820 C 0.62117 0.98284 0.21601 0.0
H821 H 0.62881 0.99677 0.34432 0.0
C822 C 0.63142 0.00312 0.19403 0.0
C823 C 0.6208 0.98047 0.27071 0.0
C824 C 0.61066 0.959 0.29604 0.0
C825 C 0.64043 0.02116 0.22557 0.0
C826 C 0.63903 0.01878 0.28032 0.0
C827 C 0.62973 0.99851 0.30226 0.0
C828 C 0.64577 0.037 0.31549 0.0
C829 C 0.651 0.04264 0.20021 0.0
C830 C 0.66215 0.04243 0.3513 0.0
C831 C 0.66735 0.05867 0.38713 0.0
C832 C 0.65598 0.06948 0.38824 0.0
C833 C 0.63982 0.0642 0.3516 0.0
C834 C 0.63479 0.04812 0.31556 0.0
H835 H 0.65548 0.04196 0.15919 0.0
H836 H 0.63995 0.04885 0.20015 0.0
H837 H 0.66533 0.05387 0.22213 0.0
H838 H 0.6707 0.0339 0.35196 0.0
H839 H 0.67982 0.06228 0.41495 0.0
H840 H 0.6248 0.56298 0.12916 0.0
H841 H 0.61673 0.58408 0.18798 0.0
H842 H 0.67754 0.63843 0.15688 0.0
H843 H 0.68585 0.61742 0.09723 0.0
H844 H 0.6638 0.62911 0.26838 0.0
H845 H 0.60516 0.63231 0.13745 0.0
H846 H 0.60186 0.60645 0.14568 0.0
H847 H 0.62515 0.62673 0.11421 0.0
C848 C 0.63656 0.57939 0.13477 0.0
C849 C 0.65595 0.58852 0.10808 0.0
C850 C 0.63185 0.59145 0.16827 0.0
C851 C 0.6464 0.61286 0.17603 0.0
C852 C 0.66604 0.62195 0.15094 0.0
H853 H 0.6017 0.68619 0.35346 0.0
H854 H 0.62131 0.6783 0.28807 0.0
C855 C 0.67075 0.60991 0.11696 0.0
C856 C 0.64085 0.62545 0.21079 0.0
H857 H 0.60414 0.6407 0.22705 0.0
C858 C 0.65102 0.63201 0.25907 0.0
C859 C 0.62438 0.62946 0.19819 0.0
C860 C 0.61359 0.62356 0.14587 0.0
C861 C 0.64421 0.64128 0.29647 0.0
C862 C 0.62672 0.64388 0.28526 0.0
C863 C 0.61747 0.63858 0.23569 0.0
C864 C 0.61632 0.64977 0.32612 0.0
C865 C 0.65541 0.6477 0.34822 0.0
C866 C 0.60691 0.63626 0.36872 0.0
C867 C 0.59564 0.64058 0.40562 0.0
C868 C 0.59349 0.65857 0.40084 0.0
C869 C 0.60316 0.67228 0.3584 0.0
C870 C 0.61434 0.66781 0.32106 0.0
H871 H 0.67185 0.65078 0.34509 0.0
H872 H 0.65574 0.66203 0.36359 0.0
H873 H 0.64692 0.63471 0.37671 0.0
H874 H 0.60786 0.62203 0.37279 0.0
H875 H 0.58842 0.62965 0.43773 0.0
H876 H 0.93265 0.56268 0.35107 0.0
H877 H 0.96137 0.58393 0.29064 0.0
H878 H 0.96846 0.64079 0.35916 0.0
H879 H 0.93959 0.61964 0.41998 0.0
H880 H 0.96479 0.61873 0.21865 0.0
H881 H 0.02838 0.6437 0.36742 0.0
H882 H 0.00294 0.62031 0.37622 0.0
H883 H 0.00545 0.64584 0.38201 0.0
C884 C 0.9402 0.5797 0.35322 0.0
C885 C 0.93387 0.58945 0.39056 0.0
C886 C 0.95659 0.59181 0.31861 0.0
C887 C 0.96711 0.61388 0.32089 0.0
C888 C 0.9606 0.62375 0.35719 0.0
H889 H 0.08258 0.68976 0.13203 0.0
H890 H 0.0543 0.68215 0.1952 0.0
C891 C 0.94405 0.61163 0.39168 0.0
C892 C 0.98507 0.62631 0.28541 0.0
H893 H 0.03886 0.65176 0.27989 0.0
C894 C 0.981 0.62629 0.23207 0.0
C895 C 0.00616 0.63631 0.30322 0.0
C896 C 0.0112 0.63661 0.3603 0.0
C897 C 0.99749 0.6352 0.19569 0.0
C898 C 0.01855 0.64389 0.21309 0.0
C899 C 0.0227 0.64506 0.26672 0.0
C900 C 0.03596 0.64901 0.17596 0.0
C901 C 0.99219 0.63462 0.13869 0.0
C902 C 0.03523 0.63283 0.14551 0.0
C903 C 0.0512 0.63704 0.10992 0.0
C904 C 0.06843 0.6576 0.10391 0.0
C905 C 0.06948 0.6738 0.13547 0.0
C906 C 0.05336 0.66949 0.17146 0.0
H907 H 0.97686 0.63404 0.13326 0.0
H908 H 0.00464 0.64857 0.11764 0.0
H909 H 0.99087 0.62022 0.12082 0.0
H910 H 0.02223 0.61681 0.14931 0.0
H911 H 0.0499 0.62407 0.08688 0.0
H912 H 0.69213 0.08022 0.62675 0.0
H913 H 0.68501 0.05131 0.68743 0.0
H914 H 0.61867 0.02188 0.65259 0.0
H915 H 0.6255 0.05018 0.59233 0.0
H916 H 0.65965 0.03748 0.77574 0.0
H917 H 0.63001 0.9735 0.63052 0.0
H918 H 0.64471 1.00102 0.61236 0.0
H919 H 0.61678 0.98843 0.62476 0.0
C920 C 0.67605 0.06755 0.63201 0.0
C921 C 0.65944 0.06745 0.60416 0.0
C922 C 0.67202 0.05103 0.66654 0.0
C923 C 0.65137 0.03413 0.67342 0.0
C924 C 0.6348 0.03436 0.64669 0.0
H925 H 0.5794 0.95411 0.91345 0.0
H926 H 0.60103 0.98196 0.85233 0.0
C927 C 0.63877 0.05072 0.61242 0.0
C928 C 0.64653 0.01657 0.71019 0.0
H929 H 0.61779 0.96286 0.71933 0.0
C930 C 0.65092 0.02116 0.76329 0.0
C931 C 0.63552 0.99524 0.69399 0.0
C932 C 0.63169 0.98925 0.63719 0.0
C933 C 0.64309 0.00502 0.8009 0.0
C934 C 0.63024 0.9838 0.78501 0.0
C935 C 0.62735 0.97913 0.73164 0.0
C936 C 0.61771 0.9667 0.82301 0.0
C937 C 0.6481 0.01091 0.85749 0.0
C938 C 0.61931 0.94837 0.82575 0.0
C939 C 0.60673 0.93213 0.86083 0.0
C940 C 0.59219 0.9339 0.89327 0.0
C941 C 0.59049 0.95217 0.88953 0.0
C942 C 0.60302 0.96829 0.85481 0.0
H943 H 0.66337 0.02583 0.86181 0.0
H944 H 0.63563 0.01339 0.87473 0.0
H945 H 0.64883 0.99829 0.87987 0.0
H946 H 0.63035 0.94669 0.80096 0.0
H947 H 0.60839 0.91825 0.86253 0.0
H948 H 0.62435 0.57044 0.89946 0.0
H949 H 0.61679 0.59126 0.8387 0.0
H950 H 0.68335 0.63284 0.8137 0.0
H951 H 0.69122 0.61179 0.87503 0.0
H952 H 0.63133 0.63555 0.85134 0.0
H953 H 0.65697 0.61674 0.66423 0.0
H954 H 0.65127 0.60027 0.72129 0.0
H955 H 0.67494 0.62545 0.71852 0.0
C956 C 0.63748 0.58393 0.88099 0.0
C957 C 0.65843 0.58954 0.89245 0.0
C958 C 0.63309 0.59583 0.84622 0.0
C959 C 0.64948 0.61359 0.82183 0.0
C960 C 0.67047 0.61906 0.83192 0.0
H961 H 0.62005 0.68319 0.58727 0.0
H962 H 0.6408 0.67559 0.64943 0.0
C963 C 0.67493 0.60705 0.86692 0.0
C964 C 0.64405 0.62641 0.78738 0.0
H965 H 0.6391 0.63585 0.65934 0.0
C966 C 0.63335 0.63595 0.8094 0.0
C967 C 0.64683 0.627 0.73281 0.0
C968 C 0.65804 0.61678 0.70741 0.0
C969 C 0.62443 0.64515 0.77808 0.0
C970 C 0.62601 0.64453 0.72333 0.0
C971 C 0.63785 0.63619 0.70139 0.0
C972 C 0.61368 0.65037 0.68829 0.0
C973 C 0.61285 0.65492 0.8038 0.0
C974 C 0.59157 0.63874 0.68974 0.0
C975 C 0.57968 0.64296 0.65431 0.0
C976 C 0.58967 0.65889 0.61656 0.0
C977 C 0.61185 0.67088 0.616 0.0
C978 C 0.62375 0.66653 0.65134 0.0
H979 H 0.61844 0.65991 0.84432 0.0
H980 H 0.61483 0.6688 0.78143 0.0
H981 H 0.59578 0.64311 0.8055 0.0
H982 H 0.58349 0.62597 0.71741 0.0
H983 H 0.56265 0.63341 0.65583 0.0
H984 H 0.91332 0.59878 0.6512 0.0
H985 H 0.9406 0.61908 0.71667 0.0
H986 H 0.98446 0.60676 0.63361 0.0
H987 H 0.95767 0.58664 0.56887 0.0
H988 H 0.96237 0.60256 0.77831 0.0
H989 H 0.01777 0.67128 0.65921 0.0
H990 H 0.99034 0.65462 0.64204 0.0
H991 H 0.00927 0.64656 0.6271 0.0
C992 C 0.92885 0.6006 0.64676 0.0
C993 C 0.9333 0.59106 0.6049 0.0
C994 C 0.94438 0.61218 0.68407 0.0
C995 C 0.96462 0.61469 0.67935 0.0
C996 C 0.96908 0.60537 0.63737 0.0
H997 H 0.06186 0.62419 0.86844 0.0
H998 H 0.03192 0.61597 0.81204 0.0
C999 C 0.95363 0.59369 0.60062 0.0
C1000 C 0.9809 0.62557 0.71982 0.0
H1001 H 0.0326 0.66337 0.73415 0.0
C1002 C 0.97757 0.61617 0.76917 0.0
C1003 C 1.00065 0.6434 0.70789 0.0
C1004 C 0.0047 0.6547 0.65632 0.0
C1005 C 0.99401 0.62322 0.80557 0.0
C1006 C 0.01422 0.63996 0.79196 0.0
C1007 C 0.01714 0.65036 0.74415 0.0
C1008 C 0.03283 0.64558 0.825 0.0
C1009 C 0.98984 0.61225 0.85765 0.0
C1010 C 0.04367 0.66527 0.84955 0.0
C1011 C 0.06086 0.67007 0.88199 0.0
C1012 C 0.06759 0.65531 0.88988 0.0
C1013 C 0.05709 0.63591 0.86353 0.0
C1014 C 0.03988 0.6311 0.8315 0.0
H1015 H 0.97277 0.60377 0.86743 0.0
H1016 H 0.99522 0.60053 0.85633 0.0
H1017 H 0.99865 0.62369 0.88914 0.0
H1018 H 0.03856 0.67672 0.84447 0.0
H1019 H 0.06865 0.68519 0.90151 0.0
H1020 H 0.35775 0.91691 0.66652 0.0
H1021 H 0.36725 0.94427 0.73241 0.0
H1022 H 0.34659 0.97712 0.62955 0.0
H1023 H 0.33567 0.94893 0.56539 0.0
H1024 H 0.39602 0.98186 0.72731 0.0
H1025 H 0.323 0.9847 0.75963 0.0
H1026 H 0.32313 0.96362 0.7238 0.0
H1027 H 0.32981 0.98817 0.69192 0.0
C1028 C 0.35478 0.92974 0.65873 0.0
C1029 C 0.34588 0.93082 0.61125 0.0
C1030 C 0.36025 0.9454 0.69624 0.0
C1031 C 0.35744 0.96275 0.68645 0.0
C1032 C 0.34829 0.96364 0.63905 0.0
H1033 H 0.44035 0.08251 0.83467 0.0
H1034 H 0.422 0.05335 0.77338 0.0
C1035 C 0.3422 0.94761 0.60215 0.0
C1036 C 0.36608 0.98077 0.72346 0.0
H1037 H 0.3553 0.01546 0.78597 0.0
C1038 C 0.38695 0.98897 0.74058 0.0
C1039 C 0.35428 0.99003 0.74153 0.0
C1040 C 0.33125 0.981 0.72869 0.0
C1041 C 0.39642 0.0062 0.77453 0.0
C1042 C 0.38514 0.01638 0.78967 0.0
C1043 C 0.36413 0.00798 0.77348 0.0
C1044 C 0.39483 0.03545 0.82319 0.0
C1045 C 0.41824 0.01285 0.79474 0.0
C1046 C 0.38493 0.03593 0.86966 0.0
C1047 C 0.39506 0.05301 0.90376 0.0
C1048 C 0.41537 0.06966 0.89222 0.0
C1049 C 0.42479 0.06969 0.84461 0.0
C1050 C 0.41441 0.05294 0.80991 0.0
H1051 H 0.42147 0.99956 0.79392 0.0
H1052 H 0.43014 0.02555 0.76949 0.0
H1053 H 0.42035 0.01879 0.83532 0.0
H1054 H 0.36974 0.02273 0.88057 0.0
H1055 H 0.38752 0.05263 0.94039 0.0
H1056 H 0.36898 0.44212 0.83941 0.0
H1057 H 0.37683 0.42177 0.77723 0.0
H1058 H 0.328 0.3639 0.84507 0.0
H1059 H 0.31998 0.3841 0.90759 0.0
H1060 H 0.36867 0.36758 0.83899 0.0
H1061 H 0.34412 0.38522 0.6499 0.0
H1062 H 0.35999 0.40815 0.68888 0.0
H1063 H 0.33435 0.38856 0.71173 0.0
C1064 C 0.35966 0.42506 0.84061 0.0
C1065 C 0.34393 0.41473 0.87863 0.0
C1066 C 0.36408 0.41347 0.80484 0.0
C1067 C 0.35287 0.39137 0.80639 0.0
C1068 C 0.33672 0.38097 0.84315 0.0
H1069 H 0.38362 0.3218 0.57751 0.0
H1070 H 0.36288 0.33028 0.63744 0.0
C1071 C 0.33216 0.39255 0.87874 0.0
C1072 C 0.35948 0.37932 0.7729 0.0
H1073 H 0.36821 0.37203 0.64613 0.0
C1074 C 0.36824 0.36822 0.79681 0.0
C1075 C 0.35871 0.38005 0.71798 0.0
C1076 C 0.3486 0.39097 0.6905 0.0
C1077 C 0.37736 0.35881 0.7671 0.0
C1078 C 0.37779 0.3607 0.71228 0.0
C1079 C 0.36796 0.37075 0.68827 0.0
C1080 C 0.38996 0.35403 0.6794 0.0
C1081 C 0.38693 0.34736 0.79457 0.0
C1082 C 0.41199 0.36452 0.68356 0.0
C1083 C 0.42386 0.35984 0.64935 0.0
C1084 C 0.41391 0.34457 0.61031 0.0
C1085 C 0.39175 0.33359 0.6073 0.0
C1086 C 0.37988 0.33843 0.64134 0.0
H1087 H 0.38033 0.34232 0.8344 0.0
H1088 H 0.38425 0.33328 0.77216 0.0
H1089 H 0.40419 0.35808 0.79819 0.0
H1090 H 0.42005 0.37683 0.71224 0.0
H1091 H 0.44089 0.36855 0.65278 0.0
H1092 H 0.9332 0.37147 0.85121 0.0
H1093 H 0.96159 0.37922 0.78966 0.0
H1094 H 0.96858 0.32871 0.85455 0.0
H1095 H 0.94008 0.32077 0.91658 0.0
H1096 H 0.00722 0.36901 0.84433 0.0
H1097 H 0.96092 0.34441 0.66147 0.0
H1098 H 0.9554 0.36114 0.70153 0.0
H1099 H 0.94901 0.33545 0.72492 0.0
C1100 C 0.9406 0.36185 0.85218 0.0
C1101 C 0.93435 0.34549 0.88885 0.0
C1102 C 0.95677 0.36624 0.81679 0.0
C1103 C 0.96702 0.3544 0.81727 0.0
C1104 C 0.96076 0.33794 0.85343 0.0
H1105 H 0.08157 0.39124 0.62523 0.0
H1106 H 0.05311 0.37072 0.68818 0.0
C1107 C 0.94444 0.33341 0.88868 0.0
C1108 C 0.98493 0.36007 0.78143 0.0
H1109 H 0.99814 0.3681 0.65268 0.0
C1110 C 0.00528 0.36842 0.80237 0.0
C1111 C 0.98226 0.35911 0.72681 0.0
C1112 C 0.9607 0.34935 0.70224 0.0
C1113 C 0.02318 0.3773 0.77 0.0
C1114 C 0.02054 0.37752 0.7155 0.0
C1115 C 1.00011 0.36796 0.69455 0.0
C1116 C 0.03852 0.38999 0.67998 0.0
C1117 C 0.04482 0.38756 0.79429 0.0
C1118 C 0.03974 0.40757 0.65496 0.0
C1119 C 0.05574 0.41915 0.61927 0.0
C1120 C 0.07096 0.41341 0.60746 0.0
C1121 C 0.0701 0.39607 0.63355 0.0
C1122 C 0.0539 0.38437 0.66949 0.0
H1123 H 0.04416 0.38796 0.8375 0.0
H1124 H 0.05283 0.37868 0.78317 0.0
H1125 H 0.05455 0.40395 0.77956 0.0
H1126 H 0.02811 0.41225 0.66274 0.0
H1127 H 0.056 0.43253 0.60043 0.0
H1128 H 0.52869 0.16094 0.08848 0.0
H1129 H 0.55631 0.16398 0.14733 0.0
H1130 H 0.51665 0.09931 0.19506 0.0
H1131 H 0.48899 0.09597 0.13583 0.0
H1132 H 0.55622 0.15799 0.25512 0.0
H1133 H 0.57092 0.10108 0.1472 0.0
H1134 H 0.55591 0.11225 0.12 0.0
H1135 H 0.54382 0.09065 0.1654 0.0
C1136 C 0.52577 0.14734 0.11156 0.0
C1137 C 0.50668 0.12812 0.10695 0.0
C1138 C 0.5416 0.14914 0.1452 0.0
C1139 C 0.53869 0.13176 0.17471 0.0
C1140 C 0.51939 0.11278 0.17167 0.0
H1141 H 0.60045 0.09942 0.40524 0.0
H1142 H 0.57803 0.10244 0.34 0.0
C1143 C 0.50355 0.11094 0.13802 0.0
C1144 C 0.55585 0.1334 0.20856 0.0
H1145 H 0.58645 0.1112 0.23148 0.0
C1146 C 0.56303 0.14795 0.24969 0.0
C1147 C 0.56484 0.12042 0.20097 0.0
C1148 C 0.55865 0.10536 0.1557 0.0
C1149 C 0.57825 0.14914 0.28502 0.0
C1150 C 0.58664 0.1356 0.27849 0.0
C1151 C 0.57996 0.12155 0.23637 0.0
C1152 C 0.60087 0.13432 0.31748 0.0
C1153 C 0.58459 0.16418 0.33032 0.0
C1154 C 0.62134 0.15124 0.32607 0.0
C1155 C 0.63436 0.14959 0.36364 0.0
C1156 C 0.62703 0.13099 0.39315 0.0
C1157 C 0.60661 0.11405 0.38364 0.0
C1158 C 0.59373 0.11569 0.3462 0.0
H1159 H 0.57425 0.17118 0.3343 0.0
H1160 H 0.58407 0.15601 0.36726 0.0
H1161 H 0.60103 0.17719 0.32453 0.0
H1162 H 0.62724 0.16565 0.30368 0.0
H1163 H 0.65003 0.16287 0.36984 0.0
H1164 H 0.39924 0.48497 0.11818 0.0
H1165 H 0.42407 0.51026 0.18105 0.0
H1166 H 0.39276 0.54671 0.17021 0.0
H1167 H 0.36782 0.52156 0.1074 0.0
H1168 H 0.45095 0.55541 0.16075 0.0
H1169 H 0.39711 0.53798 0.32973 0.0
H1170 H 0.39123 0.51961 0.27687 0.0
H1171 H 0.3879 0.54211 0.26829 0.0
C1172 C 0.39748 0.49824 0.12948 0.0
C1173 C 0.38155 0.50126 0.10764 0.0
C1174 C 0.41171 0.51269 0.16532 0.0
C1175 C 0.41011 0.53022 0.18041 0.0
C1176 C 0.39406 0.53311 0.15945 0.0
H1177 H 0.4811 0.63474 0.39122 0.0
H1178 H 0.45614 0.61001 0.32774 0.0
C1179 C 0.37989 0.51876 0.12341 0.0
C1180 C 0.42581 0.546 0.21637 0.0
H1181 H 0.43148 0.56738 0.33732 0.0
C1182 C 0.44677 0.55802 0.19946 0.0
C1183 C 0.42017 0.54939 0.26654 0.0
C1184 C 0.39792 0.53652 0.28683 0.0
C1185 C 0.46228 0.57362 0.23128 0.0
C1186 C 0.45672 0.57688 0.28179 0.0
C1187 C 0.4357 0.56486 0.29858 0.0
C1188 C 0.47247 0.59245 0.31823 0.0
C1189 C 0.48434 0.58676 0.21002 0.0
C1190 C 0.48993 0.59078 0.33393 0.0
C1191 C 0.50432 0.60498 0.36989 0.0
C1192 C 0.50133 0.62094 0.39145 0.0
C1193 C 0.48386 0.62262 0.37545 0.0
C1194 C 0.46956 0.60849 0.33922 0.0
H1195 H 0.48451 0.58667 0.16673 0.0
H1196 H 0.49166 0.60335 0.22349 0.0
H1197 H 0.49419 0.58014 0.22389 0.0
H1198 H 0.49223 0.57823 0.31916 0.0
H1199 H 0.51751 0.60313 0.38159 0.0
H1200 H 0.84071 0.48707 0.36568 0.0
H1201 H 0.83844 0.46151 0.30036 0.0
H1202 H 0.9028 0.47849 0.33261 0.0
H1203 H 0.90531 0.50397 0.39694 0.0
H1204 H 0.89292 0.47613 0.22514 0.0
H1205 H 0.8354 0.40458 0.335 0.0
H1206 H 0.82818 0.42438 0.3234 0.0
H1207 H 0.85001 0.43015 0.36535 0.0
C1208 C 0.85438 0.4854 0.35864 0.0
C1209 C 0.87312 0.49744 0.38689 0.0
C1210 C 0.85301 0.47071 0.32159 0.0
C1211 C 0.87037 0.46793 0.31226 0.0
C1212 C 0.88919 0.48032 0.33942 0.0
H1213 H 0.90901 0.39397 0.13189 0.0
H1214 H 0.90598 0.41859 0.19063 0.0
C1215 C 0.89056 0.49486 0.37634 0.0
C1216 C 0.86928 0.45216 0.27447 0.0
H1217 H 0.84784 0.39921 0.2552 0.0
C1218 C 0.88296 0.45931 0.23147 0.0
C1219 C 0.85627 0.43024 0.28291 0.0
C1220 C 0.8417 0.42175 0.32929 0.0
C1221 C 0.88416 0.44513 0.19692 0.0
C1222 C 0.87165 0.42321 0.20627 0.0
C1223 C 0.85752 0.41603 0.24841 0.0
C1224 C 0.87319 0.40753 0.17292 0.0
C1225 C 0.89875 0.45375 0.15058 0.0
C1226 C 0.85554 0.3926 0.14513 0.0
C1227 C 0.85717 0.37841 0.11184 0.0
C1228 C 0.87649 0.37882 0.10581 0.0
C1229 C 0.89395 0.39332 0.13522 0.0
C1230 C 0.89229 0.4075 0.16856 0.0
H1231 H 0.9027 0.47015 0.14115 0.0
H1232 H 0.91368 0.45396 0.15956 0.0
H1233 H 0.89162 0.44376 0.11564 0.0
H1234 H 0.84062 0.39225 0.1483 0.0
H1235 H 0.84335 0.36739 0.09007 0.0
H1236 H 0.39521 0.90786 0.36574 0.0
H1237 H 0.41929 0.9045 0.30554 0.0
H1238 H 0.39043 0.83832 0.34252 0.0
H1239 H 0.36617 0.8414 0.40211 0.0
H1240 H 0.4481 0.89107 0.33266 0.0
H1241 H 0.39121 0.83887 0.18275 0.0
H1242 H 0.38475 0.85313 0.22961 0.0
H1243 H 0.38471 0.82949 0.24864 0.0
C1244 C 0.39381 0.89254 0.36063 0.0
C1245 C 0.37877 0.87492 0.38885 0.0
C1246 C 0.40761 0.89066 0.32632 0.0
C1247 C 0.4065 0.87112 0.31927 0.0
C1248 C 0.39132 0.85346 0.34671 0.0
H1249 H 0.48514 0.83866 0.12456 0.0
H1250 H 0.45991 0.83657 0.19093 0.0
C1251 C 0.37753 0.8553 0.381 0.0
C1252 C 0.42192 0.86947 0.28519 0.0
H1253 H 0.42648 0.84641 0.17421 0.0
C1254 C 0.44337 0.8813 0.29804 0.0
C1255 C 0.41566 0.85649 0.24044 0.0
C1256 C 0.39285 0.84388 0.22413 0.0
C1257 C 0.45881 0.8807 0.26695 0.0
C1258 C 0.45261 0.86818 0.22146 0.0
C1259 C 0.43112 0.8559 0.20931 0.0
C1260 C 0.46831 0.86929 0.18342 0.0
C1261 C 0.48164 0.89355 0.28287 0.0
C1262 C 0.48119 0.8883 0.15731 0.0
C1263 C 0.49542 0.88951 0.11958 0.0
C1264 C 0.49704 0.8717 0.1069 0.0
C1265 C 0.48429 0.85265 0.13356 0.0
C1266 C 0.46987 0.85142 0.17131 0.0
H1267 H 0.48326 0.8972 0.32518 0.0
H1268 H 0.49034 0.88515 0.27361 0.0
H1269 H 0.48915 0.90871 0.26119 0.0
H1270 H 0.47999 0.90216 0.1655 0.0
H1271 H 0.50505 0.90446 0.10003 0.0
H1272 H 0.60098 0.50264 0.10228 0.0
H1273 H 0.57814 0.47641 0.16567 0.0
H1274 H 0.62657 0.4609 0.19814 0.0
H1275 H 0.64989 0.48748 0.13442 0.0
H1276 H 0.56453 0.43283 0.16035 0.0
H1277 H 0.60768 0.4696 0.3441 0.0
H1278 H 0.61255 0.48442 0.28436 0.0
H1279 H 0.62259 0.4667 0.29231 0.0
C1280 C 0.60694 0.49379 0.12298 0.0
C1281 C 0.62726 0.49708 0.11299 0.0
C1282 C 0.59381 0.47879 0.15925 0.0
C1283 C 0.60067 0.46677 0.18661 0.0
C1284 C 0.62109 0.47021 0.17775 0.0
H1285 H 0.52932 0.36926 0.41911 0.0
H1286 H 0.55632 0.39247 0.35699 0.0
C1287 C 0.63435 0.48534 0.14129 0.0
C1288 C 0.58587 0.45016 0.22269 0.0
H1289 H 0.576 0.43715 0.35145 0.0
C1290 C 0.56709 0.43368 0.20212 0.0
C1291 C 0.58933 0.45132 0.27705 0.0
C1292 C 0.60904 0.469 0.3011 0.0
C1293 C 0.55145 0.41849 0.23459 0.0
C1294 C 0.55458 0.42005 0.28908 0.0
C1295 C 0.57366 0.43611 0.3096 0.0
C1296 C 0.53793 0.40557 0.32553 0.0
C1297 C 0.53168 0.40095 0.21034 0.0
C1298 C 0.51868 0.40533 0.32847 0.0
C1299 C 0.50318 0.39211 0.36398 0.0
C1300 C 0.50672 0.37894 0.39734 0.0
C1301 C 0.52603 0.37916 0.39398 0.0
C1302 C 0.54152 0.39244 0.35859 0.0
H1303 H 0.53409 0.39874 0.16859 0.0
H1304 H 0.52636 0.38582 0.23128 0.0
H1305 H 0.51892 0.40489 0.21278 0.0
H1306 H 0.51576 0.41562 0.30379 0.0
H1307 H 0.48854 0.39237 0.36559 0.0
H1308 H 0.15842 0.50744 0.34845 0.0
H1309 H 0.16161 0.53352 0.283 0.0
H1310 H 0.10996 0.53642 0.35496 0.0
H1311 H 0.10647 0.51053 0.41962 0.0
H1312 H 0.1224 0.52894 0.21659 0.0
H1313 H 0.16479 0.59967 0.34292 0.0
H1314 H 0.16661 0.57614 0.3522 0.0
H1315 H 0.14331 0.57648 0.37214 0.0
C1316 C 0.14778 0.51367 0.35028 0.0
C1317 C 0.13222 0.50692 0.38929 0.0
C1318 C 0.14961 0.5285 0.31294 0.0
C1319 C 0.1361 0.5369 0.31468 0.0
C1320 C 0.1206 0.53017 0.35336 0.0
H1321 H 0.09378 0.60277 0.1181 0.0
H1322 H 0.09801 0.57881 0.17713 0.0
C1323 C 0.11863 0.51531 0.39018 0.0
C1324 C 0.13762 0.5525 0.27595 0.0
H1325 H 0.15004 0.60388 0.26452 0.0
C1326 C 0.12871 0.5454 0.22661 0.0
C1327 C 0.14585 0.57388 0.28949 0.0
C1328 C 0.15583 0.58216 0.34194 0.0
C1329 C 0.12713 0.55909 0.1909 0.0
C1330 C 0.13452 0.58027 0.20532 0.0
C1331 C 0.14422 0.58756 0.25389 0.0
C1332 C 0.13201 0.59502 0.17075 0.0
C1333 C 0.11738 0.55078 0.13825 0.0
C1334 C 0.14979 0.61233 0.14894 0.0
C1335 C 0.14745 0.62601 0.11526 0.0
C1336 C 0.12727 0.62273 0.1032 0.0
C1337 C 0.10952 0.60571 0.12648 0.0
C1338 C 0.11188 0.59194 0.1599 0.0
H1339 H 0.11672 0.53565 0.12896 0.0
H1340 H 0.10103 0.54802 0.13802 0.0
H1341 H 0.12637 0.56243 0.10716 0.0
H1342 H 0.16545 0.61503 0.1573 0.0
H1343 H 0.16146 0.63905 0.09827 0.0
H1344 H 0.51346 0.90733 0.86448 0.0
H1345 H 0.48548 0.90368 0.80577 0.0
H1346 H 0.4484 0.83772 0.84509 0.0
H1347 H 0.47629 0.84107 0.90322 0.0
H1348 H 0.44869 0.84584 0.73843 0.0
H1349 H 0.42935 0.89736 0.85612 0.0
H1350 H 0.45666 0.90949 0.83819 0.0
H1351 H 0.44539 0.88693 0.88078 0.0
C1352 C 0.49942 0.89202 0.86043 0.0
C1353 C 0.49705 0.87456 0.88902 0.0
C1354 C 0.48338 0.88999 0.82714 0.0
C1355 C 0.46469 0.87052 0.822 0.0
C1356 C 0.46262 0.85291 0.84889 0.0
H1357 H 0.35302 0.83723 0.62535 0.0
H1358 H 0.37586 0.8345 0.6916 0.0
C1359 C 0.4786 0.8549 0.88215 0.0
C1360 C 0.44724 0.86854 0.78881 0.0
H1361 H 0.41396 0.88802 0.77161 0.0
C1362 C 0.44091 0.85487 0.74589 0.0
C1363 C 0.43698 0.88016 0.79914 0.0
C1364 C 0.44226 0.89416 0.84634 0.0
C1365 C 0.42528 0.85332 0.71146 0.0
C1366 C 0.41559 0.86555 0.72076 0.0
C1367 C 0.42143 0.87866 0.76467 0.0
C1368 C 0.4011 0.86678 0.68255 0.0
C1369 C 0.41992 0.83938 0.66415 0.0
C1370 C 0.40755 0.88589 0.65669 0.0
C1371 C 0.39466 0.8875 0.6193 0.0
C1372 C 0.37492 0.87001 0.60691 0.0
C1373 C 0.36816 0.85093 0.63384 0.0
C1374 C 0.38122 0.84932 0.67141 0.0
H1375 H 0.43106 0.83341 0.65855 0.0
H1376 H 0.4038 0.82563 0.66865 0.0
H1377 H 0.42006 0.84809 0.62854 0.0
H1378 H 0.42278 0.89956 0.66488 0.0
H1379 H 0.40031 0.90251 0.59981 0.0
H1380 H 0.60879 0.51313 0.86827 0.0
H1381 H 0.58414 0.48498 0.81078 0.0
H1382 H 0.60996 0.44603 0.85839 0.0
H1383 H 0.63486 0.47413 0.91557 0.0
H1384 H 0.60321 0.44561 0.75044 0.0
H1385 H 0.53234 0.43064 0.86271 0.0
H1386 H 0.54869 0.4577 0.84365 0.0
H1387 H 0.55873 0.4459 0.88838 0.0
C1388 C 0.60931 0.49862 0.86641 0.0
C1389 C 0.62367 0.49582 0.89698 0.0
C1390 C 0.59512 0.48251 0.83377 0.0
C1391 C 0.59494 0.46327 0.83125 0.0
C1392 C 0.60973 0.46069 0.86019 0.0
H1393 H 0.51441 0.35181 0.63729 0.0
H1394 H 0.53986 0.37432 0.70382 0.0
C1395 C 0.62394 0.47679 0.89284 0.0
C1396 C 0.57925 0.44586 0.79848 0.0
H1397 H 0.52632 0.41483 0.77864 0.0
C1398 C 0.5864 0.43867 0.75687 0.0
C1399 C 0.55735 0.43671 0.80743 0.0
C1400 C 0.54877 0.44296 0.85327 0.0
C1401 C 0.57215 0.4233 0.72226 0.0
C1402 C 0.55025 0.41477 0.73008 0.0
C1403 C 0.54313 0.42143 0.77279 0.0
C1404 C 0.53452 0.40054 0.69164 0.0
C1405 C 0.58059 0.417 0.67626 0.0
C1406 C 0.52279 0.40765 0.66393 0.0
C1407 C 0.50833 0.39492 0.62634 0.0
C1408 C 0.50517 0.37471 0.61564 0.0
C1409 C 0.51655 0.36733 0.64443 0.0
C1410 C 0.53116 0.3802 0.68218 0.0
H1411 H 0.59787 0.42746 0.67134 0.0
H1412 H 0.57736 0.40063 0.68197 0.0
H1413 H 0.57259 0.41738 0.63985 0.0
H1414 H 0.52509 0.42325 0.67085 0.0
H1415 H 0.49972 0.40107 0.60531 0.0
H1416 H 0.09776 0.48893 0.63491 0.0
H1417 H 0.10191 0.51645 0.69574 0.0
H1418 H 0.16648 0.55549 0.64676 0.0
H1419 H 0.16253 0.52824 0.58565 0.0
H1420 H 0.13195 0.53565 0.77854 0.0
H1421 H 0.14016 0.59361 0.62651 0.0
H1422 H 0.12978 0.56601 0.61242 0.0
H1423 H 0.15763 0.58312 0.62097 0.0
C1424 C 0.11286 0.50335 0.6371 0.0
C1425 C 0.12975 0.50643 0.60504 0.0
C1426 C 0.1152 0.51904 0.67188 0.0
C1427 C 0.13439 0.53812 0.67502 0.0
C1428 C 0.15143 0.54105 0.64414 0.0
H1429 H 0.16382 0.64903 0.86838 0.0
H1430 H 0.16762 0.62554 0.8064 0.0
C1431 C 0.14914 0.52537 0.60945 0.0
C1432 C 0.13653 0.55488 0.71086 0.0
H1433 H 0.14271 0.60431 0.71412 0.0
C1434 C 0.13441 0.5507 0.76451 0.0
C1435 C 0.13994 0.57457 0.69235 0.0
C1436 C 0.14187 0.57966 0.63492 0.0
C1437 C 0.13525 0.56556 0.80021 0.0
C1438 C 0.13789 0.58493 0.78162 0.0
C1439 C 0.14072 0.58944 0.72813 0.0
C1440 C 0.13573 0.59973 0.81677 0.0
C1441 C 0.13312 0.56032 0.85758 0.0
C1442 C 0.1164 0.59318 0.84157 0.0
C1443 C 0.11418 0.60643 0.87658 0.0
C1444 C 0.13124 0.62663 0.8875 0.0
C1445 C 0.15043 0.63354 0.86101 0.0
C1446 C 0.15263 0.62016 0.82574 0.0
H1447 H 0.13737 0.54806 0.86643 0.0
H1448 H 0.14324 0.57455 0.8812 0.0
H1449 H 0.11649 0.55413 0.86964 0.0
H1450 H 0.10303 0.57767 0.83421 0.0
H1451 H 0.09906 0.60066 0.89559 0.0
H1452 H 0.63676 0.16043 0.59398 0.0
H1453 H 0.61356 0.16403 0.6562 0.0
H1454 H 0.58732 0.09888 0.70097 0.0
H1455 H 0.61058 0.09507 0.63897 0.0
H1456 H 0.569 0.14065 0.65634 0.0
H1457 H 0.60259 0.1307 0.84085 0.0
H1458 H 0.61662 0.13677 0.77964 0.0
H1459 H 0.59632 0.11022 0.79396 0.0
C1460 C 0.6262 0.14687 0.61733 0.0
C1461 C 0.62552 0.12743 0.61141 0.0
C1462 C 0.61294 0.14899 0.65281 0.0
C1463 C 0.59888 0.13179 0.6834 0.0
C1464 C 0.59831 0.11243 0.67821 0.0
H1465 H 0.49915 0.09801 0.89883 0.0
H1466 H 0.52564 0.10099 0.83692 0.0
C1467 C 0.61155 0.11027 0.64262 0.0
C1468 C 0.58418 0.13384 0.71918 0.0
H1469 H 0.56923 0.12881 0.84661 0.0
C1470 C 0.56914 0.13829 0.69804 0.0
C1471 C 0.58457 0.13089 0.77349 0.0
C1472 C 0.60101 0.12707 0.79852 0.0
C1473 C 0.55381 0.13892 0.72963 0.0
C1474 C 0.55381 0.13532 0.78374 0.0
C1475 C 0.56927 0.13152 0.80503 0.0
C1476 C 0.53702 0.13378 0.81865 0.0
C1477 C 0.53723 0.14255 0.70471 0.0
C1478 C 0.53445 0.15123 0.82841 0.0
C1479 C 0.51915 0.14958 0.86394 0.0
C1480 C 0.50641 0.1305 0.89046 0.0
C1481 C 0.50881 0.11301 0.8795 0.0
C1482 C 0.52396 0.11465 0.84409 0.0
H1483 H 0.53716 0.14122 0.66159 0.0
H1484 H 0.52132 0.13106 0.71976 0.0
H1485 H 0.54039 0.15861 0.71459 0.0
H1486 H 0.54458 0.16622 0.80955 0.0
H1487 H 0.51771 0.16334 0.87167 0.0
H1488 H 0.48307 0.64767 0.61451 0.0
H1489 H 0.4557 0.62558 0.67812 0.0
H1490 H 0.47674 0.58018 0.67388 0.0
H1491 H 0.50388 0.60186 0.61038 0.0
H1492 H 0.42331 0.57571 0.66081 0.0
H1493 H 0.47559 0.59988 0.83464 0.0
H1494 H 0.48097 0.61696 0.77885 0.0
H1495 H 0.48571 0.59523 0.77524 0.0
C1496 C 0.48192 0.63302 0.62729 0.0
C1497 C 0.49565 0.62652 0.60724 0.0
C1498 C 0.46624 0.62042 0.66343 0.0
C1499 C 0.46427 0.60131 0.68054 0.0
C1500 C 0.47806 0.59491 0.6611 0.0
H1501 H 0.40073 0.49946 0.88976 0.0
H1502 H 0.4232 0.52712 0.82872 0.0
C1503 C 0.49355 0.60733 0.62477 0.0
C1504 C 0.44783 0.58773 0.7186 0.0
H1505 H 0.44172 0.56971 0.84361 0.0
C1506 C 0.42714 0.57457 0.70107 0.0
C1507 C 0.45302 0.58632 0.77083 0.0
C1508 C 0.47499 0.6004 0.79144 0.0
C1509 C 0.41169 0.55921 0.73397 0.0
C1510 C 0.41708 0.55731 0.7859 0.0
C1511 C 0.43759 0.57114 0.80382 0.0
C1512 C 0.40242 0.53999 0.82108 0.0
C1513 C 0.3901 0.54444 0.71212 0.0
C1514 C 0.38304 0.53782 0.83687 0.0
C1515 C 0.36995 0.52179 0.87181 0.0
C1516 C 0.37619 0.50785 0.89198 0.0
C1517 C 0.39547 0.50998 0.87541 0.0
C1518 C 0.40839 0.52582 0.84045 0.0
H1519 H 0.38983 0.54522 0.66891 0.0
H1520 H 0.38472 0.52792 0.72393 0.0
H1521 H 0.37868 0.54881 0.72769 0.0
H1522 H 0.37824 0.54877 0.82308 0.0
H1523 H 0.35526 0.52064 0.88397 0.0
H1524 H 0.8424 0.47483 0.58747 0.0
H1525 H 0.83933 0.44741 0.64713 0.0
H1526 H 0.9045 0.48645 0.69102 0.0
H1527 H 0.90786 0.51395 0.63092 0.0
H1528 H 0.89323 0.44486 0.66347 0.0
H1529 H 0.83687 0.44588 0.80694 0.0
H1530 H 0.82874 0.44314 0.74 0.0
H1531 H 0.85138 0.46714 0.76132 0.0
C1532 C 0.85607 0.47772 0.6101 0.0
C1533 C 0.87542 0.49662 0.60426 0.0
C1534 C 0.85422 0.46204 0.64442 0.0
C1535 C 0.87161 0.46499 0.67385 0.0
C1536 C 0.89086 0.48391 0.66871 0.0
H1537 H 0.9055 0.40157 0.89785 0.0
H1538 H 0.90295 0.42418 0.83223 0.0
C1539 C 0.89274 0.49962 0.6344 0.0
C1540 C 0.87007 0.44798 0.7082 0.0
H1541 H 0.84603 0.41938 0.81769 0.0
C1542 C 0.88289 0.43926 0.69713 0.0
C1543 C 0.85637 0.44054 0.75173 0.0
C1544 C 0.84265 0.44973 0.76614 0.0
C1545 C 0.88259 0.42349 0.72883 0.0
C1546 C 0.86936 0.41649 0.7732 0.0
C1547 C 0.85608 0.42475 0.7835 0.0
C1548 C 0.87058 0.40212 0.81189 0.0
C1549 C 0.89652 0.41451 0.71472 0.0
C1550 C 0.85305 0.38226 0.82286 0.0
C1551 C 0.85441 0.36916 0.86074 0.0
C1552 C 0.87326 0.37591 0.88865 0.0
C1553 C 0.89071 0.39584 0.87728 0.0
C1554 C 0.88936 0.40878 0.83947 0.0
H1555 H 0.90077 0.41681 0.67271 0.0
H1556 H 0.91133 0.4227 0.73756 0.0
H1557 H 0.88868 0.39741 0.72392 0.0
H1558 H 0.83837 0.37693 0.80212 0.0
H1559 H 0.84068 0.35394 0.86867 0.0
loop_
_geom_bond_atom_site_label_1
_geom_bond_atom_site_label_2
_geom_bond_distance
_geom_bond_site_symmetry_2
_ccdc_geom_bond_type
Fe0 O2 1.918 . S
Fe0 O5 1.997 1_554 S
Fe0 O6 2.002 1_554 S
Fe0 O11 1.976 . S
Fe0 O14 1.996 . S
Fe1 O2 1.918 . S
Fe1 O9 1.997 1_554 S
Fe1 O12 1.996 . S
Fe1 O16 1.976 . S
Fe1 O19 2.002 1_554 S
O2 Fe0 1.918 . S
O2 Fe1 1.918 . S
O2 Fe3 1.918 . S
Fe3 O2 1.918 . S
Fe3 O4 2.002 1_554 S
Fe3 O13 1.976 . S
Fe3 O17 1.996 . S
Fe3 O20 1.997 1_554 S
O4 Fe3 2.002 1_556 S
O4 C21 1.295 . S
O5 Fe0 1.997 1_556 S
O5 C21 1.235 . S
O6 Fe0 2.002 1_556 S
O6 C7 1.295 . S
C7 O6 1.295 . S
C7 O9 1.235 . S
C8 O13 1.287 . S
C8 O14 1.255 . S
O9 Fe1 1.997 1_556 S
O9 C7 1.235 . S
C10 O16 1.287 . S
C10 O17 1.255 . S
O11 Fe0 1.976 . S
O11 C18 1.287 . S
O12 Fe1 1.996 . S
O12 C18 1.255 . S
O13 Fe3 1.976 . S
O13 C8 1.287 . S
O14 Fe0 1.996 . S
O14 C8 1.255 . S
C15 O19 1.295 . S
C15 O20 1.235 . S
O16 Fe1 1.976 . S
O16 C10 1.287 . S
O17 Fe3 1.996 . S
O17 C10 1.255 . S
C18 O11 1.287 . S
C18 O12 1.255 . S
O19 Fe1 2.002 1_556 S
O19 C15 1.295 . S
O20 Fe3 1.997 1_556 S
O20 C15 1.235 . S
C21 O4 1.295 . S
C21 O5 1.235 . S
Fe22 O24 1.918 . S
Fe22 O27 1.997 1_554 S
Fe22 O28 2.002 1_554 S
Fe22 O33 1.976 . S
Fe22 O36 1.996 . S
Fe23 O24 1.918 . S
Fe23 O31 1.997 1_554 S
Fe23 O34 1.996 . S
Fe23 O38 1.976 . S
Fe23 O41 2.002 1_554 S
O24 Fe22 1.918 . S
O24 Fe23 1.918 . S
O24 Fe25 1.918 . S
Fe25 O24 1.918 . S
Fe25 O26 2.002 1_554 S
Fe25 O35 1.976 . S
Fe25 O39 1.996 . S
Fe25 O42 1.997 1_554 S
O26 Fe25 2.002 1_556 S
O26 C43 1.295 . S
O27 Fe22 1.997 1_556 S
O27 C43 1.235 . S
O28 Fe22 2.002 1_556 S
O28 C29 1.295 . S
C29 O28 1.295 . S
C29 O31 1.235 . S
C30 O35 1.287 . S
C30 O36 1.255 . S
O31 Fe23 1.997 1_556 S
O31 C29 1.235 . S
C32 O38 1.287 . S
C32 O39 1.255 . S
O33 Fe22 1.976 . S
O33 C40 1.287 . S
O34 Fe23 1.996 . S
O34 C40 1.255 . S
O35 Fe25 1.976 . S
O35 C30 1.287 . S
O36 Fe22 1.996 . S
O36 C30 1.255 . S
C37 O41 1.295 . S
C37 O42 1.235 . S
O38 Fe23 1.976 . S
O38 C32 1.287 . S
O39 Fe25 1.996 . S
O39 C32 1.255 . S
C40 O33 1.287 . S
C40 O34 1.255 . S
O41 Fe23 2.002 1_556 S
O41 C37 1.295 . S
O42 Fe25 1.997 1_556 S
O42 C37 1.235 . S
C43 O26 1.295 . S
C43 O27 1.235 . S
Fe44 O46 1.918 . S
Fe44 O49 1.997 1_554 S
Fe44 O50 2.002 1_554 S
Fe44 O55 1.976 . S
Fe44 O58 1.996 . S
Fe45 O46 1.918 . S
Fe45 O53 1.997 1_554 S
Fe45 O56 1.996 . S
Fe45 O60 1.976 . S
Fe45 O63 2.002 1_554 S
O46 Fe44 1.918 . S
O46 Fe45 1.918 . S
O46 Fe47 1.918 . S
Fe47 O46 1.918 . S
Fe47 O48 2.002 1_554 S
Fe47 O57 1.976 . S
Fe47 O61 1.996 . S
Fe47 O64 1.997 1_554 S
O48 Fe47 2.002 1_556 S
O48 C65 1.295 . S
O49 Fe44 1.997 1_556 S
O49 C65 1.235 . S
O50 Fe44 2.002 1_556 S
O50 C51 1.295 . S
C51 O50 1.295 . S
C51 O53 1.235 . S
C52 O57 1.287 . S
C52 O58 1.255 . S
O53 Fe45 1.997 1_556 S
O53 C51 1.235 . S
C54 O60 1.287 . S
C54 O61 1.255 . S
O55 Fe44 1.976 . S
O55 C62 1.287 . S
O56 Fe45 1.996 . S
O56 C62 1.255 . S
O57 Fe47 1.976 . S
O57 C52 1.287 . S
O58 Fe44 1.996 . S
O58 C52 1.255 . S
C59 O63 1.295 . S
C59 O64 1.235 . S
O60 Fe45 1.976 . S
O60 C54 1.287 . S
O61 Fe47 1.996 . S
O61 C54 1.255 . S
C62 O55 1.287 . S
C62 O56 1.255 . S
O63 Fe45 2.002 1_556 S
O63 C59 1.295 . S
O64 Fe47 1.997 1_556 S
O64 C59 1.235 . S
C65 O48 1.295 . S
C65 O49 1.235 . S
Fe66 O68 1.918 . S
Fe66 O71 1.997 1_554 S
Fe66 O72 2.002 1_554 S
Fe66 O77 1.976 . S
Fe66 O80 1.996 . S
Fe67 O68 1.918 . S
Fe67 O75 1.997 1_554 S
Fe67 O78 1.996 . S
Fe67 O82 1.976 . S
Fe67 O85 2.002 1_554 S
O68 Fe66 1.918 . S
O68 Fe67 1.918 . S
O68 Fe69 1.918 . S
Fe69 O68 1.918 . S
Fe69 O70 2.002 1_554 S
Fe69 O79 1.976 . S
Fe69 O83 1.996 . S
Fe69 O86 1.997 1_554 S
O70 Fe69 2.002 1_556 S
O70 C87 1.295 . S
O71 Fe66 1.997 1_556 S
O71 C87 1.235 . S
O72 Fe66 2.002 1_556 S
O72 C73 1.295 . S
C73 O72 1.295 . S
C73 O75 1.235 . S
C74 O79 1.287 . S
C74 O80 1.255 . S
O75 Fe67 1.997 1_556 S
O75 C73 1.235 . S
C76 O82 1.287 . S
C76 O83 1.255 . S
O77 Fe66 1.976 . S
O77 C84 1.287 . S
O78 Fe67 1.996 . S
O78 C84 1.255 . S
O79 Fe69 1.976 . S
O79 C74 1.287 . S
O80 Fe66 1.996 . S
O80 C74 1.255 . S
C81 O85 1.295 . S
C81 O86 1.235 . S
O82 Fe67 1.976 . S
O82 C76 1.287 . S
O83 Fe69 1.996 . S
O83 C76 1.255 . S
C84 O77 1.287 . S
C84 O78 1.255 . S
O85 Fe67 2.002 1_556 S
O85 C81 1.295 . S
O86 Fe69 1.997 1_556 S
O86 C81 1.235 . S
C87 O70 1.295 . S
C87 O71 1.235 . S
Fe88 O90 1.918 . S
Fe88 O93 1.997 1_554 S
Fe88 O94 2.002 1_554 S
Fe88 O99 1.976 . S
Fe88 O102 1.996 . S
Fe89 O90 1.918 . S
Fe89 O97 1.997 1_554 S
Fe89 O100 1.996 . S
Fe89 O104 1.976 . S
Fe89 O107 2.002 1_554 S
O90 Fe88 1.918 . S
O90 Fe89 1.918 . S
O90 Fe91 1.918 . S
Fe91 O90 1.918 . S
Fe91 O92 2.002 1_554 S
Fe91 O101 1.976 . S
Fe91 O105 1.996 . S
Fe91 O108 1.997 1_554 S
O92 Fe91 2.002 1_556 S
O92 C109 1.295 . S
O93 Fe88 1.997 1_556 S
O93 C109 1.235 . S
O94 Fe88 2.002 1_556 S
O94 C95 1.295 . S
C95 O94 1.295 . S
C95 O97 1.235 . S
C96 O101 1.287 . S
C96 O102 1.255 . S
O97 Fe89 1.997 1_556 S
O97 C95 1.235 . S
C98 O104 1.287 . S
C98 O105 1.255 . S
O99 Fe88 1.976 . S
O99 C106 1.287 . S
O100 Fe89 1.996 . S
O100 C106 1.255 . S
O101 Fe91 1.976 . S
O101 C96 1.287 . S
O102 Fe88 1.996 . S
O102 C96 1.255 . S
C103 O107 1.295 . S
C103 O108 1.235 . S
O104 Fe89 1.976 . S
O104 C98 1.287 . S
O105 Fe91 1.996 . S
O105 C98 1.255 . S
C106 O99 1.287 . S
C106 O100 1.255 . S
O107 Fe89 2.002 1_556 S
O107 C103 1.295 . S
O108 Fe91 1.997 1_556 S
O108 C103 1.235 . S
C109 O92 1.295 . S
C109 O93 1.235 . S
Fe110 O112 1.918 . S
Fe110 O115 1.997 1_554 S
Fe110 O116 2.002 1_554 S
Fe110 O121 1.976 . S
Fe110 O124 1.996 . S
Fe111 O112 1.918 . S
Fe111 O119 1.997 1_554 S
Fe111 O122 1.996 . S
Fe111 O126 1.976 . S
Fe111 O129 2.002 1_554 S
O112 Fe110 1.918 . S
O112 Fe111 1.918 . S
O112 Fe113 1.918 . S
Fe113 O112 1.918 . S
Fe113 O114 2.002 1_554 S
Fe113 O123 1.976 . S
Fe113 O127 1.996 . S
Fe113 O130 1.997 1_554 S
O114 Fe113 2.002 1_556 S
O114 C131 1.295 . S
O115 Fe110 1.997 1_556 S
O115 C131 1.235 . S
O116 Fe110 2.002 1_556 S
O116 C117 1.295 . S
C117 O116 1.295 . S
C117 O119 1.235 . S
C118 O123 1.287 . S
C118 O124 1.255 . S
O119 Fe111 1.997 1_556 S
O119 C117 1.235 . S
C120 O126 1.287 . S
C120 O127 1.255 . S
O121 Fe110 1.976 . S
O121 C128 1.287 . S
O122 Fe111 1.996 . S
O122 C128 1.255 . S
O123 Fe113 1.976 . S
O123 C118 1.287 . S
O124 Fe110 1.996 . S
O124 C118 1.255 . S
C125 O129 1.295 . S
C125 O130 1.235 . S
O126 Fe111 1.976 . S
O126 C120 1.287 . S
O127 Fe113 1.996 . S
O127 C120 1.255 . S
C128 O121 1.287 . S
C128 O122 1.255 . S
O129 Fe111 2.002 1_556 S
O129 C125 1.295 . S
O130 Fe113 1.997 1_556 S
O130 C125 1.235 . S
C131 O114 1.295 . S
C131 O115 1.235 . S
Fe132 O134 1.918 . S
Fe132 O137 1.997 . S
Fe132 O138 2.002 . S
Fe132 O143 1.976 . S
Fe132 O146 1.996 . S
Fe133 O134 1.918 . S
Fe133 O141 1.997 . S
Fe133 O144 1.996 . S
Fe133 O148 1.976 . S
Fe133 O151 2.002 . S
O134 Fe132 1.918 . S
O134 Fe133 1.918 . S
O134 Fe135 1.918 . S
Fe135 O134 1.918 . S
Fe135 O136 2.002 . S
Fe135 O145 1.976 . S
Fe135 O149 1.996 . S
Fe135 O152 1.997 . S
O136 Fe135 2.002 . S
O136 C153 1.295 . S
O137 Fe132 1.997 . S
O137 C153 1.235 . S
O138 Fe132 2.002 . S
O138 C139 1.295 . S
C139 O138 1.295 . S
C139 O141 1.235 . S
C140 O145 1.287 . S
C140 O146 1.255 . S
O141 Fe133 1.997 . S
O141 C139 1.235 . S
C142 O148 1.287 . S
C142 O149 1.255 . S
O143 Fe132 1.976 . S
O143 C150 1.287 . S
O144 Fe133 1.996 . S
O144 C150 1.255 . S
O145 Fe135 1.976 . S
O145 C140 1.287 . S
O146 Fe132 1.996 . S
O146 C140 1.255 . S
C147 O151 1.295 . S
C147 O152 1.235 . S
O148 Fe133 1.976 . S
O148 C142 1.287 . S
O149 Fe135 1.996 . S
O149 C142 1.255 . S
C150 O143 1.287 . S
C150 O144 1.255 . S
O151 Fe133 2.002 . S
O151 C147 1.295 . S
O152 Fe135 1.997 . S
O152 C147 1.235 . S
C153 O136 1.295 . S
C153 O137 1.235 . S
Fe154 O156 1.918 . S
Fe154 O159 1.997 . S
Fe154 O160 2.002 . S
Fe154 O165 1.976 . S
Fe154 O168 1.996 . S
Fe155 O156 1.918 . S
Fe155 O163 1.997 . S
Fe155 O166 1.996 . S
Fe155 O170 1.976 . S
Fe155 O173 2.002 . S
O156 Fe154 1.918 . S
O156 Fe155 1.918 . S
O156 Fe157 1.918 . S
Fe157 O156 1.918 . S
Fe157 O158 2.002 . S
Fe157 O167 1.976 . S
Fe157 O171 1.996 . S
Fe157 O174 1.997 . S
O158 Fe157 2.002 . S
O158 C175 1.295 . S
O159 Fe154 1.997 . S
O159 C175 1.235 . S
O160 Fe154 2.002 . S
O160 C161 1.295 . S
C161 O160 1.295 . S
C161 O163 1.235 . S
C162 O167 1.287 . S
C162 O168 1.255 . S
O163 Fe155 1.997 . S
O163 C161 1.235 . S
C164 O170 1.287 . S
C164 O171 1.255 . S
O165 Fe154 1.976 . S
O165 C172 1.287 . S
O166 Fe155 1.996 . S
O166 C172 1.255 . S
O167 Fe157 1.976 . S
O167 C162 1.287 . S
O168 Fe154 1.996 . S
O168 C162 1.255 . S
C169 O173 1.295 . S
C169 O174 1.235 . S
O170 Fe155 1.976 . S
O170 C164 1.287 . S
O171 Fe157 1.996 . S
O171 C164 1.255 . S
C172 O165 1.287 . S
C172 O166 1.255 . S
O173 Fe155 2.002 . S
O173 C169 1.295 . S
O174 Fe157 1.997 . S
O174 C169 1.235 . S
C175 O158 1.295 . S
C175 O159 1.235 . S
Fe176 O178 1.918 . S
Fe176 O181 1.997 . S
Fe176 O182 2.002 . S
Fe176 O187 1.976 . S
Fe176 O190 1.996 . S
Fe177 O178 1.918 . S
Fe177 O185 1.997 . S
Fe177 O188 1.996 . S
Fe177 O192 1.976 . S
Fe177 O195 2.002 . S
O178 Fe176 1.918 . S
O178 Fe177 1.918 . S
O178 Fe179 1.918 . S
Fe179 O178 1.918 . S
Fe179 O180 2.002 . S
Fe179 O189 1.976 . S
Fe179 O193 1.996 . S
Fe179 O196 1.997 . S
O180 Fe179 2.002 . S
O180 C197 1.295 . S
O181 Fe176 1.997 . S
O181 C197 1.235 . S
O182 Fe176 2.002 . S
O182 C183 1.295 . S
C183 O182 1.295 . S
C183 O185 1.235 . S
C184 O189 1.287 . S
C184 O190 1.255 . S
O185 Fe177 1.997 . S
O185 C183 1.235 . S
C186 O192 1.287 . S
C186 O193 1.255 . S
O187 Fe176 1.976 . S
O187 C194 1.287 . S
O188 Fe177 1.996 . S
O188 C194 1.255 . S
O189 Fe179 1.976 . S
O189 C184 1.287 . S
O190 Fe176 1.996 . S
O190 C184 1.255 . S
C191 O195 1.295 . S
C191 O196 1.235 . S
O192 Fe177 1.976 . S
O192 C186 1.287 . S
O193 Fe179 1.996 . S
O193 C186 1.255 . S
C194 O187 1.287 . S
C194 O188 1.255 . S
O195 Fe177 2.002 . S
O195 C191 1.295 . S
O196 Fe179 1.997 . S
O196 C191 1.235 . S
C197 O180 1.295 . S
C197 O181 1.235 . S
Fe198 O200 1.918 . S
Fe198 O203 1.997 . S
Fe198 O204 2.002 . S
Fe198 O209 1.976 . S
Fe198 O212 1.996 . S
Fe199 O200 1.918 . S
Fe199 O207 1.997 . S
Fe199 O210 1.996 . S
Fe199 O214 1.976 . S
Fe199 O217 2.002 . S
O200 Fe198 1.918 . S
O200 Fe199 1.918 . S
O200 Fe201 1.918 . S
Fe201 O200 1.918 . S
Fe201 O202 2.002 . S
Fe201 O211 1.976 . S
Fe201 O215 1.996 . S
Fe201 O218 1.997 . S
O202 Fe201 2.002 . S
O202 C219 1.295 . S
O203 Fe198 1.997 . S
O203 C219 1.235 . S
O204 Fe198 2.002 . S
O204 C205 1.295 . S
C205 O204 1.295 . S
C205 O207 1.235 . S
C206 O211 1.287 . S
C206 O212 1.255 . S
O207 Fe199 1.997 . S
O207 C205 1.235 . S
C208 O214 1.287 . S
C208 O215 1.255 . S
O209 Fe198 1.976 . S
O209 C216 1.287 . S
O210 Fe199 1.996 . S
O210 C216 1.255 . S
O211 Fe201 1.976 . S
O211 C206 1.287 . S
O212 Fe198 1.996 . S
O212 C206 1.255 . S
C213 O217 1.295 . S
C213 O218 1.235 . S
O214 Fe199 1.976 . S
O214 C208 1.287 . S
O215 Fe201 1.996 . S
O215 C208 1.255 . S
C216 O209 1.287 . S
C216 O210 1.255 . S
O217 Fe199 2.002 . S
O217 C213 1.295 . S
O218 Fe201 1.997 . S
O218 C213 1.235 . S
C219 O202 1.295 . S
C219 O203 1.235 . S
Fe220 O222 1.918 . S
Fe220 O225 1.997 . S
Fe220 O226 2.002 . S
Fe220 O231 1.976 . S
Fe220 O234 1.996 . S
Fe221 O222 1.918 . S
Fe221 O229 1.997 . S
Fe221 O232 1.996 . S
Fe221 O236 1.976 . S
Fe221 O239 2.002 . S
O222 Fe220 1.918 . S
O222 Fe221 1.918 . S
O222 Fe223 1.918 . S
Fe223 O222 1.918 . S
Fe223 O224 2.002 . S
Fe223 O233 1.976 . S
Fe223 O237 1.996 . S
Fe223 O240 1.997 . S
O224 Fe223 2.002 . S
O224 C241 1.295 . S
O225 Fe220 1.997 . S
O225 C241 1.235 . S
O226 Fe220 2.002 . S
O226 C227 1.295 . S
C227 O226 1.295 . S
C227 O229 1.235 . S
C228 O233 1.287 . S
C228 O234 1.255 . S
O229 Fe221 1.997 . S
O229 C227 1.235 . S
C230 O236 1.287 . S
C230 O237 1.255 . S
O231 Fe220 1.976 . S
O231 C238 1.287 . S
O232 Fe221 1.996 . S
O232 C238 1.255 . S
O233 Fe223 1.976 . S
O233 C228 1.287 . S
O234 Fe220 1.996 . S
O234 C228 1.255 . S
C235 O239 1.295 . S
C235 O240 1.235 . S
O236 Fe221 1.976 . S
O236 C230 1.287 . S
O237 Fe223 1.996 . S
O237 C230 1.255 . S
C238 O231 1.287 . S
C238 O232 1.255 . S
O239 Fe221 2.002 . S
O239 C235 1.295 . S
O240 Fe223 1.997 . S
O240 C235 1.235 . S
C241 O224 1.295 . S
C241 O225 1.235 . S
Fe242 O244 1.918 . S
Fe242 O247 1.997 . S
Fe242 O248 2.002 . S
Fe242 O253 1.976 . S
Fe242 O256 1.996 . S
Fe243 O244 1.918 . S
Fe243 O251 1.997 . S
Fe243 O254 1.996 . S
Fe243 O258 1.976 . S
Fe243 O261 2.002 . S
O244 Fe242 1.918 . S
O244 Fe243 1.918 . S
O244 Fe245 1.918 . S
Fe245 O244 1.918 . S
Fe245 O246 2.002 . S
Fe245 O255 1.976 . S
Fe245 O259 1.996 . S
Fe245 O262 1.997 . S
O246 Fe245 2.002 . S
O246 C263 1.295 . S
O247 Fe242 1.997 . S
O247 C263 1.235 . S
O248 Fe242 2.002 . S
O248 C249 1.295 . S
C249 O248 1.295 . S
C249 O251 1.235 . S
C250 O255 1.287 . S
C250 O256 1.255 . S
O251 Fe243 1.997 . S
O251 C249 1.235 . S
C252 O258 1.287 . S
C252 O259 1.255 . S
O253 Fe242 1.976 . S
O253 C260 1.287 . S
O254 Fe243 1.996 . S
O254 C260 1.255 . S
O255 Fe245 1.976 . S
O255 C250 1.287 . S
O256 Fe242 1.996 . S
O256 C250 1.255 . S
C257 O261 1.295 . S
C257 O262 1.235 . S
O258 Fe243 1.976 . S
O258 C252 1.287 . S
O259 Fe245 1.996 . S
O259 C252 1.255 . S
C260 O253 1.287 . S
C260 O254 1.255 . S
O261 Fe243 2.002 . S
O261 C257 1.295 . S
O262 Fe245 1.997 . S
O262 C257 1.235 . S
C263 O246 1.295 . S
C263 O247 1.235 . S
H264 C272 0.929 . S
H265 C274 0.930 . S
H266 C276 0.930 . S
H267 C279 0.929 . S
H268 C282 0.930 . S
H269 C284 0.960 . S
H270 C284 0.960 . S
H271 C284 0.960 . S
C272 H264 0.929 . S
C272 C273 1.377 . S
C272 C274 1.384 . S
C273 C272 1.377 . S
C273 C279 1.390 . S
C274 H265 0.930 . S
C274 C272 1.384 . S
C274 C275 1.372 . S
C275 C274 1.372 . S
C275 C276 1.400 . S
C275 C280 1.490 . S
C276 H266 0.930 . S
C276 C275 1.400 . S
C276 C279 1.386 . S
H277 C293 0.930 . S
H278 C294 0.931 . S
C279 H267 0.929 . S
C279 C273 1.390 . S
C279 C276 1.386 . S
C280 C275 1.490 . S
C280 C282 1.395 . S
C280 C283 1.403 . S
H281 C287 0.930 . S
C282 H268 0.930 . S
C282 C280 1.395 . S
C282 C285 1.403 . S
C283 C280 1.403 . S
C283 C284 1.524 . S
C283 C287 1.400 . S
C284 H269 0.960 . S
C284 H270 0.960 . S
C284 H271 0.960 . S
C284 C283 1.524 . S
C285 C282 1.403 . S
C285 C286 1.392 . S
C285 C289 1.495 . S
C286 C285 1.392 . S
C286 C287 1.385 . S
C286 C288 1.478 . S
C287 H281 0.930 . S
C287 C283 1.400 . S
C287 C286 1.385 . S
C288 C286 1.478 . S
C288 C290 1.381 . S
C288 C294 1.383 . S
C289 C285 1.495 . S
C289 H295 0.959 . S
C289 H296 0.961 . S
C289 H297 0.960 . S
C290 C288 1.381 . S
C290 C291 1.394 . S
C290 H298 0.930 . S
C291 C290 1.394 . S
C291 C292 1.383 . S
C291 H299 0.929 . S
C292 C291 1.383 . S
C292 C293 1.377 . S
C293 H277 0.930 . S
C293 C292 1.377 . S
C293 C294 1.379 . S
C294 H278 0.931 . S
C294 C288 1.383 . S
C294 C293 1.379 . S
H295 C289 0.959 . S
H296 C289 0.961 . S
H297 C289 0.960 . S
H298 C290 0.930 . S
H299 C291 0.929 . S
H300 C308 0.929 . S
H301 C310 0.930 . S
H302 C312 0.930 . S
H303 C315 0.929 . S
H304 C318 0.930 . S
H305 C320 0.960 . S
H306 C320 0.960 . S
H307 C320 0.960 . S
C308 H300 0.929 . S
C308 C309 1.377 . S
C308 C310 1.384 . S
C309 C308 1.377 . S
C309 C315 1.390 . S
C310 H301 0.930 . S
C310 C308 1.384 . S
C310 C311 1.372 . S
C311 C310 1.372 . S
C311 C312 1.400 . S
C311 C316 1.490 . S
C312 H302 0.930 . S
C312 C311 1.400 . S
C312 C315 1.386 . S
H313 C329 0.930 . S
H314 C330 0.931 . S
C315 H303 0.929 . S
C315 C309 1.390 . S
C315 C312 1.386 . S
C316 C311 1.490 . S
C316 C318 1.395 . S
C316 C319 1.403 . S
H317 C323 0.930 . S
C318 H304 0.930 . S
C318 C316 1.395 . S
C318 C321 1.403 . S
C319 C316 1.403 . S
C319 C320 1.524 . S
C319 C323 1.400 . S
C320 H305 0.960 . S
C320 H306 0.960 . S
C320 H307 0.960 . S
C320 C319 1.524 . S
C321 C318 1.403 . S
C321 C322 1.392 . S
C321 C325 1.495 . S
C322 C321 1.392 . S
C322 C323 1.385 . S
C322 C324 1.478 . S
C323 H317 0.930 . S
C323 C319 1.400 . S
C323 C322 1.385 . S
C324 C322 1.478 . S
C324 C326 1.381 . S
C324 C330 1.383 . S
C325 C321 1.495 . S
C325 H331 0.959 . S
C325 H332 0.961 . S
C325 H333 0.960 . S
C326 C324 1.381 . S
C326 C327 1.394 . S
C326 H334 0.930 . S
C327 C326 1.394 . S
C327 C328 1.383 . S
C327 H335 0.929 . S
C328 C327 1.383 . S
C328 C329 1.377 . S
C329 H313 0.930 . S
C329 C328 1.377 . S
C329 C330 1.379 . S
C330 H314 0.931 . S
C330 C324 1.383 . S
C330 C329 1.379 . S
H331 C325 0.959 . S
H332 C325 0.961 . S
H333 C325 0.960 . S
H334 C326 0.930 . S
H335 C327 0.929 . S
H336 C344 0.929 . S
H337 C346 0.930 . S
H338 C348 0.930 . S
H339 C351 0.929 . S
H340 C354 0.930 . S
H341 C356 0.960 . S
H342 C356 0.960 . S
H343 C356 0.960 . S
C344 H336 0.929 . S
C344 C345 1.377 . S
C344 C346 1.384 . S
C345 C344 1.377 . S
C345 C351 1.390 . S
C346 H337 0.930 . S
C346 C344 1.384 . S
C346 C347 1.372 . S
C347 C346 1.372 . S
C347 C348 1.400 . S
C347 C352 1.490 . S
C348 H338 0.930 . S
C348 C347 1.400 . S
C348 C351 1.386 . S
H349 C365 0.930 . S
H350 C366 0.931 . S
C351 H339 0.929 . S
C351 C345 1.390 . S
C351 C348 1.386 . S
C352 C347 1.490 . S
C352 C354 1.395 . S
C352 C355 1.403 . S
H353 C359 0.930 . S
C354 H340 0.930 . S
C354 C352 1.395 . S
C354 C357 1.403 . S
C355 C352 1.403 . S
C355 C356 1.524 . S
C355 C359 1.400 . S
C356 H341 0.960 . S
C356 H342 0.960 . S
C356 H343 0.960 . S
C356 C355 1.524 . S
C357 C354 1.403 . S
C357 C358 1.392 . S
C357 C361 1.495 . S
C358 C357 1.392 . S
C358 C359 1.385 . S
C358 C360 1.478 . S
C359 H353 0.930 . S
C359 C355 1.400 . S
C359 C358 1.385 . S
C360 C358 1.478 . S
C360 C362 1.381 . S
C360 C366 1.383 . S
C361 C357 1.495 . S
C361 H367 0.959 . S
C361 H368 0.961 . S
C361 H369 0.960 . S
C362 C360 1.381 . S
C362 C363 1.394 . S
C362 H370 0.930 . S
C363 C362 1.394 . S
C363 C364 1.383 . S
C363 H371 0.929 . S
C364 C363 1.383 . S
C364 C365 1.377 . S
C365 H349 0.930 . S
C365 C364 1.377 . S
C365 C366 1.379 . S
C366 H350 0.931 . S
C366 C360 1.383 . S
C366 C365 1.379 . S
H367 C361 0.959 . S
H368 C361 0.961 . S
H369 C361 0.960 . S
H370 C362 0.930 . S
H371 C363 0.929 . S
H372 C380 0.929 . S
H373 C382 0.930 . S
H374 C384 0.930 . S
H375 C387 0.929 . S
H376 C390 0.930 . S
H377 C392 0.960 . S
H378 C392 0.960 . S
H379 C392 0.960 . S
C380 H372 0.929 . S
C380 C381 1.377 . S
C380 C382 1.384 . S
C381 C380 1.377 . S
C381 C387 1.390 . S
C382 H373 0.930 . S
C382 C380 1.384 . S
C382 C383 1.372 . S
C383 C382 1.372 . S
C383 C384 1.400 . S
C383 C388 1.490 . S
C384 H374 0.930 . S
C384 C383 1.400 . S
C384 C387 1.386 . S
H385 C401 0.930 . S
H386 C402 0.931 . S
C387 H375 0.929 . S
C387 C381 1.390 . S
C387 C384 1.386 . S
C388 C383 1.490 . S
C388 C390 1.395 . S
C388 C391 1.403 . S
H389 C395 0.930 . S
C390 H376 0.930 . S
C390 C388 1.395 . S
C390 C393 1.403 . S
C391 C388 1.403 . S
C391 C392 1.524 . S
C391 C395 1.400 . S
C392 H377 0.960 . S
C392 H378 0.960 . S
C392 H379 0.960 . S
C392 C391 1.524 . S
C393 C390 1.403 . S
C393 C394 1.392 . S
C393 C397 1.495 . S
C394 C393 1.392 . S
C394 C395 1.385 . S
C394 C396 1.478 . S
C395 H389 0.930 . S
C395 C391 1.400 . S
C395 C394 1.385 . S
C396 C394 1.478 . S
C396 C398 1.381 . S
C396 C402 1.383 . S
C397 C393 1.495 . S
C397 H403 0.959 . S
C397 H404 0.961 . S
C397 H405 0.960 . S
C398 C396 1.381 . S
C398 C399 1.394 . S
C398 H406 0.930 . S
C399 C398 1.394 . S
C399 C400 1.383 . S
C399 H407 0.929 . S
C400 C399 1.383 . S
C400 C401 1.377 . S
C401 H385 0.930 . S
C401 C400 1.377 . S
C401 C402 1.379 . S
C402 H386 0.931 . S
C402 C396 1.383 . S
C402 C401 1.379 . S
H403 C397 0.959 . S
H404 C397 0.961 . S
H405 C397 0.960 . S
H406 C398 0.930 . S
H407 C399 0.929 . S
H408 C416 0.929 . S
H409 C418 0.930 . S
H410 C420 0.930 . S
H411 C423 0.929 . S
H412 C426 0.930 . S
H413 C428 0.960 . S
H414 C428 0.960 . S
H415 C428 0.960 . S
C416 H408 0.929 . S
C416 C417 1.377 . S
C416 C418 1.384 . S
C417 C416 1.377 . S
C417 C423 1.390 . S
C418 H409 0.930 . S
C418 C416 1.384 . S
C418 C419 1.372 . S
C419 C418 1.372 . S
C419 C420 1.400 . S
C419 C424 1.490 . S
C420 H410 0.930 . S
C420 C419 1.400 . S
C420 C423 1.386 . S
H421 C437 0.930 . S
H422 C438 0.931 . S
C423 H411 0.929 . S
C423 C417 1.390 . S
C423 C420 1.386 . S
C424 C419 1.490 . S
C424 C426 1.395 . S
C424 C427 1.403 . S
H425 C431 0.930 . S
C426 H412 0.930 . S
C426 C424 1.395 . S
C426 C429 1.403 . S
C427 C424 1.403 . S
C427 C428 1.524 . S
C427 C431 1.400 . S
C428 H413 0.960 . S
C428 H414 0.960 . S
C428 H415 0.960 . S
C428 C427 1.524 . S
C429 C426 1.403 . S
C429 C430 1.392 . S
C429 C433 1.495 . S
C430 C429 1.392 . S
C430 C431 1.385 . S
C430 C432 1.478 . S
C431 H425 0.930 . S
C431 C427 1.400 . S
C431 C430 1.385 . S
C432 C430 1.478 . S
C432 C434 1.381 . S
C432 C438 1.383 . S
C433 C429 1.495 . S
C433 H439 0.959 . S
C433 H440 0.961 . S
C433 H441 0.960 . S
C434 C432 1.381 . S
C434 C435 1.394 . S
C434 H442 0.930 . S
C435 C434 1.394 . S
C435 C436 1.383 . S
C435 H443 0.929 . S
C436 C435 1.383 . S
C436 C437 1.377 . S
C437 H421 0.930 . S
C437 C436 1.377 . S
C437 C438 1.379 . S
C438 H422 0.931 . S
C438 C432 1.383 . S
C438 C437 1.379 . S
H439 C433 0.959 . S
H440 C433 0.961 . S
H441 C433 0.960 . S
H442 C434 0.930 . S
H443 C435 0.929 . S
H444 C452 0.929 . S
H445 C454 0.930 . S
H446 C456 0.930 . S
H447 C459 0.929 . S
H448 C462 0.930 . S
H449 C464 0.960 . S
H450 C464 0.960 . S
H451 C464 0.960 . S
C452 H444 0.929 . S
C452 C453 1.377 . S
C452 C454 1.384 . S
C453 C452 1.377 . S
C453 C459 1.390 . S
C454 H445 0.930 . S
C454 C452 1.384 . S
C454 C455 1.372 . S
C455 C454 1.372 . S
C455 C456 1.400 . S
C455 C460 1.490 . S
C456 H446 0.930 . S
C456 C455 1.400 . S
C456 C459 1.386 . S
H457 C473 0.930 . S
H458 C474 0.931 . S
C459 H447 0.929 . S
C459 C453 1.390 . S
C459 C456 1.386 . S
C460 C455 1.490 . S
C460 C462 1.395 . S
C460 C463 1.403 . S
H461 C467 0.930 . S
C462 H448 0.930 . S
C462 C460 1.395 . S
C462 C465 1.403 . S
C463 C460 1.403 . S
C463 C464 1.524 . S
C463 C467 1.400 . S
C464 H449 0.960 . S
C464 H450 0.960 . S
C464 H451 0.960 . S
C464 C463 1.524 . S
C465 C462 1.403 . S
C465 C466 1.392 . S
C465 C469 1.495 . S
C466 C465 1.392 . S
C466 C467 1.385 . S
C466 C468 1.478 . S
C467 H461 0.930 . S
C467 C463 1.400 . S
C467 C466 1.385 . S
C468 C466 1.478 . S
C468 C470 1.381 . S
C468 C474 1.383 . S
C469 C465 1.495 . S
C469 H475 0.959 . S
C469 H476 0.961 . S
C469 H477 0.960 . S
C470 C468 1.381 . S
C470 C471 1.394 . S
C470 H478 0.930 . S
C471 C470 1.394 . S
C471 C472 1.383 . S
C471 H479 0.929 . S
C472 C471 1.383 . S
C472 C473 1.377 . S
C473 H457 0.930 . S
C473 C472 1.377 . S
C473 C474 1.379 . S
C474 H458 0.931 . S
C474 C468 1.383 . S
C474 C473 1.379 . S
H475 C469 0.959 . S
H476 C469 0.961 . S
H477 C469 0.960 . S
H478 C470 0.930 . S
H479 C471 0.929 . S
H480 C488 0.929 . S
H481 C490 0.930 . S
H482 C492 0.930 . S
H483 C495 0.929 . S
H484 C498 0.930 . S
H485 C500 0.960 . S
H486 C500 0.960 . S
H487 C500 0.960 . S
C488 H480 0.929 . S
C488 C489 1.377 . S
C488 C490 1.384 . S
C489 C488 1.377 . S
C489 C495 1.390 . S
C490 H481 0.930 . S
C490 C488 1.384 . S
C490 C491 1.372 . S
C491 C490 1.372 . S
C491 C492 1.400 . S
C491 C496 1.490 . S
C492 H482 0.930 . S
C492 C491 1.400 . S
C492 C495 1.386 . S
H493 C509 0.930 . S
H494 C510 0.931 . S
C495 H483 0.929 . S
C495 C489 1.390 . S
C495 C492 1.386 . S
C496 C491 1.490 . S
C496 C498 1.395 . S
C496 C499 1.403 . S
H497 C503 0.930 . S
C498 H484 0.930 . S
C498 C496 1.395 . S
C498 C501 1.403 . S
C499 C496 1.403 . S
C499 C500 1.524 . S
C499 C503 1.400 . S
C500 H485 0.960 . S
C500 H486 0.960 . S
C500 H487 0.960 . S
C500 C499 1.524 . S
C501 C498 1.403 . S
C501 C502 1.392 . S
C501 C505 1.495 . S
C502 C501 1.392 . S
C502 C503 1.385 . S
C502 C504 1.478 . S
C503 H497 0.930 . S
C503 C499 1.400 . S
C503 C502 1.385 . S
C504 C502 1.478 . S
C504 C506 1.381 . S
C504 C510 1.383 . S
C505 C501 1.495 . S
C505 H511 0.959 . S
C505 H512 0.961 . S
C505 H513 0.960 . S
C506 C504 1.381 . S
C506 C507 1.394 . S
C506 H514 0.930 . S
C507 C506 1.394 . S
C507 C508 1.383 . S
C507 H515 0.929 . S
C508 C507 1.383 . S
C508 C509 1.377 . S
C509 H493 0.930 . S
C509 C508 1.377 . S
C509 C510 1.379 . S
C510 H494 0.931 . S
C510 C504 1.383 . S
C510 C509 1.379 . S
H511 C505 0.959 . S
H512 C505 0.961 . S
H513 C505 0.960 . S
H514 C506 0.930 . S
H515 C507 0.929 . S
H516 C524 0.929 . S
H517 C526 0.930 . S
H518 C528 0.930 . S
H519 C531 0.929 . S
H520 C534 0.930 . S
H521 C536 0.960 . S
H522 C536 0.960 . S
H523 C536 0.960 . S
C524 H516 0.929 . S
C524 C525 1.377 . S
C524 C526 1.384 . S
C525 C524 1.377 . S
C525 C531 1.390 . S
C526 H517 0.930 . S
C526 C524 1.384 . S
C526 C527 1.372 . S
C527 C526 1.372 . S
C527 C528 1.400 . S
C527 C532 1.490 . S
C528 H518 0.930 . S
C528 C527 1.400 . S
C528 C531 1.386 . S
H529 C545 0.930 . S
H530 C546 0.931 . S
C531 H519 0.929 . S
C531 C525 1.390 . S
C531 C528 1.386 . S
C532 C527 1.490 . S
C532 C534 1.395 . S
C532 C535 1.403 . S
H533 C539 0.930 . S
C534 H520 0.930 . S
C534 C532 1.395 . S
C534 C537 1.403 . S
C535 C532 1.403 . S
C535 C536 1.524 . S
C535 C539 1.400 . S
C536 H521 0.960 . S
C536 H522 0.960 . S
C536 H523 0.960 . S
C536 C535 1.524 . S
C537 C534 1.403 . S
C537 C538 1.392 . S
C537 C541 1.495 . S
C538 C537 1.392 . S
C538 C539 1.385 . S
C538 C540 1.478 . S
C539 H533 0.930 . S
C539 C535 1.400 . S
C539 C538 1.385 . S
C540 C538 1.478 . S
C540 C542 1.381 . S
C540 C546 1.383 . S
C541 C537 1.495 . S
C541 H547 0.959 . S
C541 H548 0.961 . S
C541 H549 0.960 . S
C542 C540 1.381 . S
C542 C543 1.394 . S
C542 H550 0.930 . S
C543 C542 1.394 . S
C543 C544 1.383 . S
C543 H551 0.929 . S
C544 C543 1.383 . S
C544 C545 1.377 . S
C545 H529 0.930 . S
C545 C544 1.377 . S
C545 C546 1.379 . S
C546 H530 0.931 . S
C546 C540 1.383 . S
C546 C545 1.379 . S
H547 C541 0.959 . S
H548 C541 0.961 . S
H549 C541 0.960 . S
H550 C542 0.930 . S
H551 C543 0.929 . S
H552 C560 0.929 . S
H553 C562 0.930 . S
H554 C564 0.930 . S
H555 C567 0.929 . S
H556 C570 0.930 . S
H557 C572 0.960 . S
H558 C572 0.960 . S
H559 C572 0.960 . S
C560 H552 0.929 . S
C560 C561 1.377 . S
C560 C562 1.384 . S
C561 C560 1.377 . S
C561 C567 1.390 . S
C562 H553 0.930 . S
C562 C560 1.384 . S
C562 C563 1.372 . S
C563 C562 1.372 . S
C563 C564 1.400 . S
C563 C568 1.490 . S
C564 H554 0.930 . S
C564 C563 1.400 . S
C564 C567 1.386 . S
H565 C581 0.930 . S
H566 C582 0.931 . S
C567 H555 0.929 . S
C567 C561 1.390 . S
C567 C564 1.386 . S
C568 C563 1.490 . S
C568 C570 1.395 . S
C568 C571 1.403 . S
H569 C575 0.930 . S
C570 H556 0.930 . S
C570 C568 1.395 . S
C570 C573 1.403 . S
C571 C568 1.403 . S
C571 C572 1.524 . S
C571 C575 1.400 . S
C572 H557 0.960 . S
C572 H558 0.960 . S
C572 H559 0.960 . S
C572 C571 1.524 . S
C573 C570 1.403 . S
C573 C574 1.392 . S
C573 C577 1.495 . S
C574 C573 1.392 . S
C574 C575 1.385 . S
C574 C576 1.478 . S
C575 H569 0.930 . S
C575 C571 1.400 . S
C575 C574 1.385 . S
C576 C574 1.478 . S
C576 C578 1.381 . S
C576 C582 1.383 . S
C577 C573 1.495 . S
C577 H583 0.959 . S
C577 H584 0.961 . S
C577 H585 0.960 . S
C578 C576 1.381 . S
C578 C579 1.394 . S
C578 H586 0.930 . S
C579 C578 1.394 . S
C579 C580 1.383 . S
C579 H587 0.929 . S
C580 C579 1.383 . S
C580 C581 1.377 . S
C581 H565 0.930 . S
C581 C580 1.377 . S
C581 C582 1.379 . S
C582 H566 0.931 . S
C582 C576 1.383 . S
C582 C581 1.379 . S
H583 C577 0.959 . S
H584 C577 0.961 . S
H585 C577 0.960 . S
H586 C578 0.930 . S
H587 C579 0.929 . S
H588 C596 0.929 . S
H589 C598 0.930 . S
H590 C600 0.930 . S
H591 C603 0.929 . S
H592 C606 0.930 . S
H593 C608 0.960 . S
H594 C608 0.960 . S
H595 C608 0.960 . S
C596 H588 0.929 . S
C596 C597 1.377 . S
C596 C598 1.384 . S
C597 C596 1.377 . S
C597 C603 1.390 . S
C598 H589 0.930 . S
C598 C596 1.384 . S
C598 C599 1.372 . S
C599 C598 1.372 . S
C599 C600 1.400 . S
C599 C604 1.490 . S
C600 H590 0.930 . S
C600 C599 1.400 . S
C600 C603 1.386 . S
H601 C617 0.930 . S
H602 C618 0.931 . S
C603 H591 0.929 . S
C603 C597 1.390 . S
C603 C600 1.386 . S
C604 C599 1.490 . S
C604 C606 1.395 . S
C604 C607 1.403 . S
H605 C611 0.930 . S
C606 H592 0.930 . S
C606 C604 1.395 . S
C606 C609 1.403 . S
C607 C604 1.403 . S
C607 C608 1.524 . S
C607 C611 1.400 . S
C608 H593 0.960 . S
C608 H594 0.960 . S
C608 H595 0.960 . S
C608 C607 1.524 . S
C609 C606 1.403 . S
C609 C610 1.392 . S
C609 C613 1.495 . S
C610 C609 1.392 . S
C610 C611 1.385 . S
C610 C612 1.478 . S
C611 H605 0.930 . S
C611 C607 1.400 . S
C611 C610 1.385 . S
C612 C610 1.478 . S
C612 C614 1.381 . S
C612 C618 1.383 . S
C613 C609 1.495 . S
C613 H619 0.959 . S
C613 H620 0.961 . S
C613 H621 0.960 . S
C614 C612 1.381 . S
C614 C615 1.394 . S
C614 H622 0.930 . S
C615 C614 1.394 . S
C615 C616 1.383 . S
C615 H623 0.929 . S
C616 C615 1.383 . S
C616 C617 1.377 . S
C617 H601 0.930 . S
C617 C616 1.377 . S
C617 C618 1.379 . S
C618 H602 0.931 . S
C618 C612 1.383 . S
C618 C617 1.379 . S
H619 C613 0.959 . S
H620 C613 0.961 . S
H621 C613 0.960 . S
H622 C614 0.930 . S
H623 C615 0.929 . S
H624 C632 0.929 . S
H625 C634 0.930 . S
H626 C636 0.930 . S
H627 C639 0.929 . S
H628 C642 0.930 . S
H629 C644 0.960 . S
H630 C644 0.960 . S
H631 C644 0.960 . S
C632 H624 0.929 . S
C632 C633 1.377 . S
C632 C634 1.384 . S
C633 C632 1.377 . S
C633 C639 1.390 . S
C634 H625 0.930 . S
C634 C632 1.384 . S
C634 C635 1.372 . S
C635 C634 1.372 . S
C635 C636 1.400 . S
C635 C640 1.490 . S
C636 H626 0.930 . S
C636 C635 1.400 . S
C636 C639 1.386 . S
H637 C653 0.930 . S
H638 C654 0.931 . S
C639 H627 0.929 . S
C639 C633 1.390 . S
C639 C636 1.386 . S
C640 C635 1.490 . S
C640 C642 1.395 . S
C640 C643 1.403 . S
H641 C647 0.930 . S
C642 H628 0.930 . S
C642 C640 1.395 . S
C642 C645 1.403 . S
C643 C640 1.403 . S
C643 C644 1.524 . S
C643 C647 1.400 . S
C644 H629 0.960 . S
C644 H630 0.960 . S
C644 H631 0.960 . S
C644 C643 1.524 . S
C645 C642 1.403 . S
C645 C646 1.392 . S
C645 C649 1.495 . S
C646 C645 1.392 . S
C646 C647 1.385 . S
C646 C648 1.478 . S
C647 H641 0.930 . S
C647 C643 1.400 . S
C647 C646 1.385 . S
C648 C646 1.478 . S
C648 C650 1.381 . S
C648 C654 1.383 . S
C649 C645 1.495 . S
C649 H655 0.959 . S
C649 H656 0.961 . S
C649 H657 0.960 . S
C650 C648 1.381 . S
C650 C651 1.394 . S
C650 H658 0.930 . S
C651 C650 1.394 . S
C651 C652 1.383 . S
C651 H659 0.929 . S
C652 C651 1.383 . S
C652 C653 1.377 . S
C653 H637 0.930 . S
C653 C652 1.377 . S
C653 C654 1.379 . S
C654 H638 0.931 . S
C654 C648 1.383 . S
C654 C653 1.379 . S
H655 C649 0.959 . S
H656 C649 0.961 . S
H657 C649 0.960 . S
H658 C650 0.930 . S
H659 C651 0.929 . S
H660 C668 0.929 . S
H661 C670 0.930 . S
H662 C672 0.930 . S
H663 C675 0.929 . S
H664 C678 0.930 . S
H665 C680 0.960 . S
H666 C680 0.960 . S
H667 C680 0.960 . S
C668 H660 0.929 . S
C668 C669 1.377 . S
C668 C670 1.384 . S
C669 C668 1.377 . S
C669 C675 1.390 . S
C670 H661 0.930 . S
C670 C668 1.384 . S
C670 C671 1.372 . S
C671 C670 1.372 . S
C671 C672 1.400 . S
C671 C676 1.490 . S
C672 H662 0.930 . S
C672 C671 1.400 . S
C672 C675 1.386 . S
H673 C689 0.930 . S
H674 C690 0.931 . S
C675 H663 0.929 . S
C675 C669 1.390 . S
C675 C672 1.386 . S
C676 C671 1.490 . S
C676 C678 1.395 . S
C676 C679 1.403 . S
H677 C683 0.930 . S
C678 H664 0.930 . S
C678 C676 1.395 . S
C678 C681 1.403 . S
C679 C676 1.403 . S
C679 C680 1.524 . S
C679 C683 1.400 . S
C680 H665 0.960 . S
C680 H666 0.960 . S
C680 H667 0.960 . S
C680 C679 1.524 . S
C681 C678 1.403 . S
C681 C682 1.392 . S
C681 C685 1.495 . S
C682 C681 1.392 . S
C682 C683 1.385 . S
C682 C684 1.478 . S
C683 H677 0.930 . S
C683 C679 1.400 . S
C683 C682 1.385 . S
C684 C682 1.478 . S
C684 C686 1.381 . S
C684 C690 1.383 . S
C685 C681 1.495 . S
C685 H691 0.959 . S
C685 H692 0.961 . S
C685 H693 0.960 . S
C686 C684 1.381 . S
C686 C687 1.394 . S
C686 H694 0.930 . S
C687 C686 1.394 . S
C687 C688 1.383 . S
C687 H695 0.929 . S
C688 C687 1.383 . S
C688 C689 1.377 . S
C689 H673 0.930 . S
C689 C688 1.377 . S
C689 C690 1.379 . S
C690 H674 0.931 . S
C690 C684 1.383 . S
C690 C689 1.379 . S
H691 C685 0.959 . S
H692 C685 0.961 . S
H693 C685 0.960 . S
H694 C686 0.930 . S
H695 C687 0.929 . S
H696 C704 0.929 . S
H697 C706 0.930 . S
H698 C708 0.930 . S
H699 C711 0.929 . S
H700 C714 0.930 . S
H701 C716 0.960 . S
H702 C716 0.960 . S
H703 C716 0.960 . S
C704 H696 0.929 . S
C704 C705 1.377 . S
C704 C706 1.384 . S
C705 C704 1.377 . S
C705 C711 1.390 . S
C706 H697 0.930 . S
C706 C704 1.384 . S
C706 C707 1.372 . S
C707 C706 1.372 . S
C707 C708 1.400 . S
C707 C712 1.490 . S
C708 H698 0.930 . S
C708 C707 1.400 . S
C708 C711 1.386 . S
H709 C725 0.930 . S
H710 C726 0.931 . S
C711 H699 0.929 . S
C711 C705 1.390 . S
C711 C708 1.386 . S
C712 C707 1.490 . S
C712 C714 1.395 1_565 S
C712 C715 1.403 . S
H713 C719 0.930 . S
C714 H700 0.930 . S
C714 C712 1.395 1_545 S
C714 C717 1.403 . S
C715 C712 1.403 . S
C715 C716 1.524 . S
C715 C719 1.408 . S
C716 H701 0.960 . S
C716 H702 0.960 . S
C716 H703 0.960 . S
C716 C715 1.524 . S
C717 C714 1.403 . S
C717 C718 1.392 . S
C717 C721 1.495 . S
C718 C717 1.392 . S
C718 C719 1.377 1_545 S
C718 C720 1.478 . S
C719 H713 0.930 . S
C719 C715 1.408 . S
C719 C718 1.377 1_565 S
C720 C718 1.478 . S
C720 C722 1.381 . S
C720 C726 1.383 . S
C721 C717 1.495 . S
C721 H727 0.959 . S
C721 H728 0.961 . S
C721 H729 0.960 . S
C722 C720 1.381 . S
C722 C723 1.394 . S
C722 H730 0.930 . S
C723 C722 1.394 . S
C723 C724 1.383 . S
C723 H731 0.929 . S
C724 C723 1.383 . S
C724 C725 1.377 . S
C725 H709 0.930 . S
C725 C724 1.377 . S
C725 C726 1.379 . S
C726 H710 0.931 . S
C726 C720 1.383 . S
C726 C725 1.379 . S
H727 C721 0.959 . S
H728 C721 0.961 . S
H729 C721 0.960 . S
H730 C722 0.930 . S
H731 C723 0.929 . S
H732 C740 0.929 . S
H733 C742 0.930 . S
H734 C744 0.930 . S
H735 C747 0.929 . S
H736 C750 0.930 . S
H737 C752 0.960 . S
H738 C752 0.960 . S
H739 C752 0.960 . S
C740 H732 0.929 . S
C740 C741 1.377 . S
C740 C742 1.384 . S
C741 C740 1.377 . S
C741 C747 1.390 . S
C742 H733 0.930 . S
C742 C740 1.384 . S
C742 C743 1.372 . S
C743 C742 1.372 . S
C743 C744 1.400 . S
C743 C748 1.490 . S
C744 H734 0.930 . S
C744 C743 1.400 . S
C744 C747 1.386 . S
H745 C761 0.930 . S
H746 C762 0.931 . S
C747 H735 0.929 . S
C747 C741 1.390 . S
C747 C744 1.386 . S
C748 C743 1.490 . S
C748 C750 1.395 . S
C748 C751 1.403 . S
H749 C755 0.930 . S
C750 H736 0.930 . S
C750 C748 1.395 . S
C750 C753 1.403 . S
C751 C748 1.403 . S
C751 C752 1.524 . S
C751 C755 1.400 . S
C752 H737 0.960 . S
C752 H738 0.960 . S
C752 H739 0.960 . S
C752 C751 1.524 . S
C753 C750 1.403 . S
C753 C754 1.392 . S
C753 C757 1.495 . S
C754 C753 1.392 . S
C754 C755 1.385 . S
C754 C756 1.478 . S
C755 H749 0.930 . S
C755 C751 1.400 . S
C755 C754 1.385 . S
C756 C754 1.478 . S
C756 C758 1.381 . S
C756 C762 1.383 . S
C757 C753 1.495 . S
C757 H763 0.959 . S
C757 H764 0.961 . S
C757 H765 0.960 . S
C758 C756 1.381 . S
C758 C759 1.394 . S
C758 H766 0.930 . S
C759 C758 1.394 . S
C759 C760 1.383 . S
C759 H767 0.929 . S
C760 C759 1.383 . S
C760 C761 1.377 . S
C761 H745 0.930 . S
C761 C760 1.377 . S
C761 C762 1.379 . S
C762 H746 0.931 . S
C762 C756 1.383 . S
C762 C761 1.379 . S
H763 C757 0.959 . S
H764 C757 0.961 . S
H765 C757 0.960 . S
H766 C758 0.930 . S
H767 C759 0.929 . S
H768 C776 0.929 . S
H769 C778 0.930 . S
H770 C780 0.930 . S
H771 C783 0.929 . S
H772 C786 0.930 . S
H773 C788 0.960 . S
H774 C788 0.960 . S
H775 C788 0.960 . S
C776 H768 0.929 . S
C776 C777 1.377 . S
C776 C778 1.384 . S
C777 C776 1.377 . S
C777 C783 1.390 . S
C778 H769 0.930 . S
C778 C776 1.384 . S
C778 C779 1.372 . S
C779 C778 1.372 . S
C779 C780 1.400 . S
C779 C784 1.490 . S
C780 H770 0.930 . S
C780 C779 1.400 . S
C780 C783 1.386 . S
H781 C797 0.930 . S
H782 C798 0.931 . S
C783 H771 0.929 . S
C783 C777 1.390 . S
C783 C780 1.386 . S
C784 C779 1.490 . S
C784 C786 1.395 . S
C784 C787 1.403 . S
H785 C791 0.930 . S
C786 H772 0.930 . S
C786 C784 1.395 . S
C786 C789 1.403 1_455 S
C787 C784 1.403 . S
C787 C788 1.524 . S
C787 C791 1.400 1_455 S
C788 H773 0.960 . S
C788 H774 0.960 . S
C788 H775 0.960 . S
C788 C787 1.524 . S
C789 C786 1.403 1_655 S
C789 C790 1.392 . S
C789 C793 1.495 . S
C790 C789 1.392 . S
C790 C791 1.385 . S
C790 C792 1.478 . S
C791 H785 0.930 . S
C791 C787 1.400 1_655 S
C791 C790 1.385 . S
C792 C790 1.478 . S
C792 C794 1.381 . S
C792 C798 1.383 . S
C793 C789 1.495 . S
C793 H799 0.959 . S
C793 H800 0.961 . S
C793 H801 0.960 . S
C794 C792 1.381 . S
C794 C795 1.394 . S
C794 H802 0.930 . S
C795 C794 1.394 . S
C795 C796 1.383 . S
C795 H803 0.929 . S
C796 C795 1.383 . S
C796 C797 1.377 . S
C797 H781 0.930 . S
C797 C796 1.377 . S
C797 C798 1.379 . S
C798 H782 0.931 . S
C798 C792 1.383 . S
C798 C797 1.379 . S
H799 C793 0.959 . S
H800 C793 0.961 . S
H801 C793 0.960 . S
H802 C794 0.930 . S
H803 C795 0.929 . S
H804 C812 0.929 . S
H805 C814 0.930 . S
H806 C816 0.930 . S
H807 C819 0.929 . S
H808 C822 0.930 . S
H809 C824 0.960 . S
H810 C824 0.960 . S
H811 C824 0.960 . S
C812 H804 0.929 . S
C812 C813 1.377 . S
C812 C814 1.384 . S
C813 C812 1.377 . S
C813 C819 1.390 . S
C814 H805 0.930 . S
C814 C812 1.384 . S
C814 C815 1.372 . S
C815 C814 1.372 . S
C815 C816 1.400 . S
C815 C820 1.490 . S
C816 H806 0.930 . S
C816 C815 1.400 . S
C816 C819 1.386 . S
H817 C833 0.930 . S
H818 C834 0.931 . S
C819 H807 0.929 . S
C819 C813 1.390 . S
C819 C816 1.386 . S
C820 C815 1.490 . S
C820 C822 1.395 1_565 S
C820 C823 1.403 . S
H821 C827 0.935 . S
C822 H808 0.930 . S
C822 C820 1.395 1_545 S
C822 C825 1.403 . S
C823 C820 1.403 . S
C823 C824 1.524 . S
C823 C827 1.424 . S
C824 H809 0.960 . S
C824 H810 0.960 . S
C824 H811 0.960 . S
C824 C823 1.524 . S
C825 C822 1.403 . S
C825 C826 1.392 . S
C825 C829 1.495 . S
C826 C825 1.392 . S
C826 C827 1.357 1_545 S
C826 C828 1.478 . S
C827 H821 0.935 . S
C827 C823 1.424 . S
C827 C826 1.357 1_565 S
C828 C826 1.478 . S
C828 C830 1.381 . S
C828 C834 1.383 . S
C829 C825 1.495 . S
C829 H835 0.959 . S
C829 H836 0.961 . S
C829 H837 0.960 . S
C830 C828 1.381 . S
C830 C831 1.394 . S
C830 H838 0.930 . S
C831 C830 1.394 . S
C831 C832 1.383 . S
C831 H839 0.929 . S
C832 C831 1.383 . S
C832 C833 1.377 . S
C833 H817 0.930 . S
C833 C832 1.377 . S
C833 C834 1.379 . S
C834 H818 0.931 . S
C834 C828 1.383 . S
C834 C833 1.379 . S
H835 C829 0.959 . S
H836 C829 0.961 . S
H837 C829 0.960 . S
H838 C830 0.930 . S
H839 C831 0.929 . S
H840 C848 0.929 . S
H841 C850 0.930 . S
H842 C852 0.930 . S
H843 C855 0.929 . S
H844 C858 0.930 . S
H845 C860 0.960 . S
H846 C860 0.960 . S
H847 C860 0.960 . S
C848 H840 0.929 . S
C848 C849 1.377 . S
C848 C850 1.384 . S
C849 C848 1.377 . S
C849 C855 1.390 . S
C850 H841 0.930 . S
C850 C848 1.384 . S
C850 C851 1.372 . S
C851 C850 1.372 . S
C851 C852 1.400 . S
C851 C856 1.490 . S
C852 H842 0.930 . S
C852 C851 1.400 . S
C852 C855 1.386 . S
H853 C869 0.930 . S
H854 C870 0.931 . S
C855 H843 0.929 . S
C855 C849 1.390 . S
C855 C852 1.386 . S
C856 C851 1.490 . S
C856 C858 1.395 . S
C856 C859 1.403 . S
H857 C863 0.930 . S
C858 H844 0.930 . S
C858 C856 1.395 . S
C858 C861 1.403 . S
C859 C856 1.403 . S
C859 C860 1.524 . S
C859 C863 1.400 . S
C860 H845 0.960 . S
C860 H846 0.960 . S
C860 H847 0.960 . S
C860 C859 1.524 . S
C861 C858 1.403 . S
C861 C862 1.392 . S
C861 C865 1.495 . S
C862 C861 1.392 . S
C862 C863 1.385 . S
C862 C864 1.478 . S
C863 H857 0.930 . S
C863 C859 1.400 . S
C863 C862 1.385 . S
C864 C862 1.478 . S
C864 C866 1.381 . S
C864 C870 1.383 . S
C865 C861 1.495 . S
C865 H871 0.959 . S
C865 H872 0.961 . S
C865 H873 0.960 . S
C866 C864 1.381 . S
C866 C867 1.394 . S
C866 H874 0.930 . S
C867 C866 1.394 . S
C867 C868 1.383 . S
C867 H875 0.929 . S
C868 C867 1.383 . S
C868 C869 1.377 . S
C869 H853 0.930 . S
C869 C868 1.377 . S
C869 C870 1.379 . S
C870 H854 0.931 . S
C870 C864 1.383 . S
C870 C869 1.379 . S
H871 C865 0.959 . S
H872 C865 0.961 . S
H873 C865 0.960 . S
H874 C866 0.930 . S
H875 C867 0.929 . S
H876 C884 0.929 . S
H877 C886 0.930 . S
H878 C888 0.930 . S
H879 C891 0.929 . S
H880 C894 0.930 . S
H881 C896 0.960 . S
H882 C896 0.960 . S
H883 C896 0.960 . S
C884 H876 0.929 . S
C884 C885 1.377 . S
C884 C886 1.384 . S
C885 C884 1.377 . S
C885 C891 1.390 . S
C886 H877 0.930 . S
C886 C884 1.384 . S
C886 C887 1.372 . S
C887 C886 1.372 . S
C887 C888 1.400 . S
C887 C892 1.490 . S
C888 H878 0.930 . S
C888 C887 1.400 . S
C888 C891 1.386 . S
H889 C905 0.930 . S
H890 C906 0.931 . S
C891 H879 0.929 . S
C891 C885 1.390 . S
C891 C888 1.386 . S
C892 C887 1.490 . S
C892 C894 1.395 . S
C892 C895 1.403 1_655 S
H893 C899 0.930 . S
C894 H880 0.930 . S
C894 C892 1.395 . S
C894 C897 1.403 . S
C895 C892 1.403 1_455 S
C895 C896 1.524 . S
C895 C899 1.400 . S
C896 H881 0.960 . S
C896 H882 0.960 . S
C896 H883 0.960 . S
C896 C895 1.524 . S
C897 C894 1.403 . S
C897 C898 1.392 1_655 S
C897 C901 1.495 . S
C898 C897 1.392 1_455 S
C898 C899 1.385 . S
C898 C900 1.478 . S
C899 H893 0.930 . S
C899 C895 1.400 . S
C899 C898 1.385 . S
C900 C898 1.478 . S
C900 C902 1.381 . S
C900 C906 1.383 . S
C901 C897 1.495 . S
C901 H907 0.959 . S
C901 H908 0.961 . S
C901 H909 0.960 . S
C902 C900 1.381 . S
C902 C903 1.394 . S
C902 H910 0.930 . S
C903 C902 1.394 . S
C903 C904 1.383 . S
C903 H911 0.929 . S
C904 C903 1.383 . S
C904 C905 1.377 . S
C905 H889 0.930 . S
C905 C904 1.377 . S
C905 C906 1.379 . S
C906 H890 0.931 . S
C906 C900 1.383 . S
C906 C905 1.379 . S
H907 C901 0.959 . S
H908 C901 0.961 . S
H909 C901 0.960 . S
H910 C902 0.930 . S
H911 C903 0.929 . S
H912 C920 0.929 . S
H913 C922 0.930 . S
H914 C924 0.930 . S
H915 C927 0.929 . S
H916 C930 0.930 . S
H917 C932 0.960 1_565 S
H918 C932 0.960 1_565 S
H919 C932 0.960 . S
C920 H912 0.929 . S
C920 C921 1.377 . S
C920 C922 1.384 . S
C921 C920 1.377 . S
C921 C927 1.390 . S
C922 H913 0.930 . S
C922 C920 1.384 . S
C922 C923 1.372 . S
C923 C922 1.372 . S
C923 C924 1.400 . S
C923 C928 1.490 . S
C924 H914 0.930 . S
C924 C923 1.400 . S
C924 C927 1.386 . S
H925 C941 0.930 . S
H926 C942 0.931 . S
C927 H915 0.929 . S
C927 C921 1.390 . S
C927 C924 1.386 . S
C928 C923 1.490 . S
C928 C930 1.395 . S
C928 C931 1.417 . S
H929 C935 0.930 . S
C930 H916 0.930 . S
C930 C928 1.395 . S
C930 C933 1.376 1_545 S
C931 C928 1.417 . S
C931 C932 1.543 . S
C931 C935 1.365 1_545 S
C932 H917 0.960 1_545 S
C932 H918 0.960 1_545 S
C932 H919 0.960 . S
C932 C931 1.543 . S
C933 C930 1.376 1_565 S
C933 C934 1.403 . S
C933 C937 1.495 . S
C934 C933 1.403 . S
C934 C935 1.385 . S
C934 C936 1.478 . S
C935 H929 0.930 . S
C935 C931 1.365 1_565 S
C935 C934 1.385 . S
C936 C934 1.478 . S
C936 C938 1.381 . S
C936 C942 1.383 . S
C937 C933 1.495 . S
C937 H943 0.944 1_565 S
C937 H944 0.946 1_565 S
C937 H945 1.003 . S
C938 C936 1.381 . S
C938 C939 1.394 . S
C938 H946 0.930 . S
C939 C938 1.394 . S
C939 C940 1.383 . S
C939 H947 0.929 . S
C940 C939 1.383 . S
C940 C941 1.377 . S
C941 H925 0.930 . S
C941 C940 1.377 . S
C941 C942 1.379 . S
C942 H926 0.931 . S
C942 C936 1.383 . S
C942 C941 1.379 . S
H943 C937 0.944 1_545 S
H944 C937 0.946 1_545 S
H945 C937 1.003 . S
H946 C938 0.930 . S
H947 C939 0.929 . S
H948 C956 0.929 . S
H949 C958 0.930 . S
H950 C960 0.930 . S
H951 C963 0.929 . S
H952 C966 0.930 . S
H953 C968 0.960 . S
H954 C968 0.960 . S
H955 C968 0.960 . S
C956 H948 0.929 . S
C956 C957 1.377 . S
C956 C958 1.384 . S
C957 C956 1.377 . S
C957 C963 1.390 . S
C958 H949 0.930 . S
C958 C956 1.384 . S
C958 C959 1.372 . S
C959 C958 1.372 . S
C959 C960 1.400 . S
C959 C964 1.490 . S
C960 H950 0.930 . S
C960 C959 1.400 . S
C960 C963 1.386 . S
H961 C977 0.930 . S
H962 C978 0.931 . S
C963 H951 0.929 . S
C963 C957 1.390 . S
C963 C960 1.386 . S
C964 C959 1.490 . S
C964 C966 1.395 . S
C964 C967 1.403 . S
H965 C971 0.930 . S
C966 H952 0.930 . S
C966 C964 1.395 . S
C966 C969 1.403 . S
C967 C964 1.403 . S
C967 C968 1.524 . S
C967 C971 1.400 . S
C968 H953 0.960 . S
C968 H954 0.960 . S
C968 H955 0.960 . S
C968 C967 1.524 . S
C969 C966 1.403 . S
C969 C970 1.392 . S
C969 C973 1.495 . S
C970 C969 1.392 . S
C970 C971 1.385 . S
C970 C972 1.478 . S
C971 H965 0.930 . S
C971 C967 1.400 . S
C971 C970 1.385 . S
C972 C970 1.478 . S
C972 C974 1.381 . S
C972 C978 1.383 . S
C973 C969 1.495 . S
C973 H979 0.959 . S
C973 H980 0.961 . S
C973 H981 0.960 . S
C974 C972 1.381 . S
C974 C975 1.394 . S
C974 H982 0.930 . S
C975 C974 1.394 . S
C975 C976 1.383 . S
C975 H983 0.929 . S
C976 C975 1.383 . S
C976 C977 1.377 . S
C977 H961 0.930 . S
C977 C976 1.377 . S
C977 C978 1.379 . S
C978 H962 0.931 . S
C978 C972 1.383 . S
C978 C977 1.379 . S
H979 C973 0.959 . S
H980 C973 0.961 . S
H981 C973 0.960 . S
H982 C974 0.930 . S
H983 C975 0.929 . S
H984 C992 0.929 . S
H985 C994 0.930 . S
H986 C996 0.930 . S
H987 C999 0.929 . S
H988 C1002 0.930 . S
H989 C1004 0.960 . S
H990 C1004 0.960 . S
H991 C1004 0.960 . S
C992 H984 0.929 . S
C992 C993 1.377 . S
C992 C994 1.384 . S
C993 C992 1.377 . S
C993 C999 1.390 . S
C994 H985 0.930 . S
C994 C992 1.384 . S
C994 C995 1.372 . S
C995 C994 1.372 . S
C995 C996 1.400 . S
C995 C1000 1.490 . S
C996 H986 0.930 . S
C996 C995 1.400 . S
C996 C999 1.386 . S
H997 C1013 0.930 . S
H998 C1014 0.931 . S
C999 H987 0.929 . S
C999 C993 1.390 . S
C999 C996 1.386 . S
C1000 C995 1.490 . S
C1000 C1002 1.395 . S
C1000 C1003 1.403 1_655 S
H1001 C1007 0.930 . S
C1002 H988 0.930 . S
C1002 C1000 1.395 . S
C1002 C1005 1.403 . S
C1003 C1000 1.403 1_455 S
C1003 C1004 1.524 . S
C1003 C1007 1.400 . S
C1004 H989 0.960 . S
C1004 H990 0.960 . S
C1004 H991 0.960 . S
C1004 C1003 1.524 . S
C1005 C1002 1.403 . S
C1005 C1006 1.392 1_655 S
C1005 C1009 1.495 . S
C1006 C1005 1.392 1_455 S
C1006 C1007 1.385 . S
C1006 C1008 1.478 . S
C1007 H1001 0.930 . S
C1007 C1003 1.400 . S
C1007 C1006 1.385 . S
C1008 C1006 1.478 . S
C1008 C1010 1.381 . S
C1008 C1014 1.383 . S
C1009 C1005 1.495 . S
C1009 H1015 0.959 . S
C1009 H1016 0.961 . S
C1009 H1017 0.960 . S
C1010 C1008 1.381 . S
C1010 C1011 1.394 . S
C1010 H1018 0.930 . S
C1011 C1010 1.394 . S
C1011 C1012 1.383 . S
C1011 H1019 0.929 . S
C1012 C1011 1.383 . S
C1012 C1013 1.377 . S
C1013 H997 0.930 . S
C1013 C1012 1.377 . S
C1013 C1014 1.379 . S
C1014 H998 0.931 . S
C1014 C1008 1.383 . S
C1014 C1013 1.379 . S
H1015 C1009 0.959 . S
H1016 C1009 0.961 . S
H1017 C1009 0.960 . S
H1018 C1010 0.930 . S
H1019 C1011 0.929 . S
H1020 C1028 0.929 . S
H1021 C1030 0.930 . S
H1022 C1032 0.930 . S
H1023 C1035 0.929 . S
H1024 C1038 0.930 . S
H1025 C1040 0.966 1_545 S
H1026 C1040 0.960 . S
H1027 C1040 0.960 . S
C1028 H1020 0.929 . S
C1028 C1029 1.377 . S
C1028 C1030 1.384 . S
C1029 C1028 1.377 . S
C1029 C1035 1.390 . S
C1030 H1021 0.930 . S
C1030 C1028 1.384 . S
C1030 C1031 1.372 . S
C1031 C1030 1.372 . S
C1031 C1032 1.400 . S
C1031 C1036 1.490 . S
C1032 H1022 0.930 . S
C1032 C1031 1.400 . S
C1032 C1035 1.386 . S
H1033 C1049 0.930 . S
H1034 C1050 0.931 . S
C1035 H1023 0.929 . S
C1035 C1029 1.390 . S
C1035 C1032 1.386 . S
C1036 C1031 1.490 . S
C1036 C1038 1.395 . S
C1036 C1039 1.403 . S
H1037 C1043 0.930 . S
C1038 H1024 0.930 . S
C1038 C1036 1.395 . S
C1038 C1041 1.403 1_565 S
C1039 C1036 1.403 . S
C1039 C1040 1.524 . S
C1039 C1043 1.400 1_565 S
C1040 H1025 0.966 1_565 S
C1040 H1026 0.960 . S
C1040 H1027 0.960 . S
C1040 C1039 1.524 . S
C1041 C1038 1.403 1_545 S
C1041 C1042 1.392 . S
C1041 C1045 1.495 . S
C1042 C1041 1.392 . S
C1042 C1043 1.385 . S
C1042 C1044 1.478 . S
C1043 H1037 0.930 . S
C1043 C1039 1.400 1_545 S
C1043 C1042 1.385 . S
C1044 C1042 1.478 . S
C1044 C1046 1.381 . S
C1044 C1050 1.383 . S
C1045 C1041 1.495 . S
C1045 H1051 0.959 1_545 S
C1045 H1052 0.961 . S
C1045 H1053 0.960 . S
C1046 C1044 1.381 . S
C1046 C1047 1.394 . S
C1046 H1054 0.930 . S
C1047 C1046 1.394 . S
C1047 C1048 1.383 . S
C1047 H1055 0.929 . S
C1048 C1047 1.383 . S
C1048 C1049 1.377 . S
C1049 H1033 0.930 . S
C1049 C1048 1.377 . S
C1049 C1050 1.379 . S
C1050 H1034 0.931 . S
C1050 C1044 1.383 . S
C1050 C1049 1.379 . S
H1051 C1045 0.959 1_565 S
H1052 C1045 0.961 . S
H1053 C1045 0.960 . S
H1054 C1046 0.930 . S
H1055 C1047 0.929 . S
H1056 C1064 0.929 . S
H1057 C1066 0.930 . S
H1058 C1068 0.930 . S
H1059 C1071 0.929 . S
H1060 C1074 0.930 . S
H1061 C1076 0.960 . S
H1062 C1076 0.960 . S
H1063 C1076 0.960 . S
C1064 H1056 0.929 . S
C1064 C1065 1.377 . S
C1064 C1066 1.384 . S
C1065 C1064 1.377 . S
C1065 C1071 1.390 . S
C1066 H1057 0.930 . S
C1066 C1064 1.384 . S
C1066 C1067 1.372 . S
C1067 C1066 1.372 . S
C1067 C1068 1.400 . S
C1067 C1072 1.490 . S
C1068 H1058 0.930 . S
C1068 C1067 1.400 . S
C1068 C1071 1.386 . S
H1069 C1085 0.930 . S
H1070 C1086 0.931 . S
C1071 H1059 0.929 . S
C1071 C1065 1.390 . S
C1071 C1068 1.386 . S
C1072 C1067 1.490 . S
C1072 C1074 1.395 . S
C1072 C1075 1.403 . S
H1073 C1079 0.930 . S
C1074 H1060 0.930 . S
C1074 C1072 1.395 . S
C1074 C1077 1.403 . S
C1075 C1072 1.403 . S
C1075 C1076 1.524 . S
C1075 C1079 1.400 . S
C1076 H1061 0.960 . S
C1076 H1062 0.960 . S
C1076 H1063 0.960 . S
C1076 C1075 1.524 . S
C1077 C1074 1.403 . S
C1077 C1078 1.392 . S
C1077 C1081 1.495 . S
C1078 C1077 1.392 . S
C1078 C1079 1.385 . S
C1078 C1080 1.478 . S
C1079 H1073 0.930 . S
C1079 C1075 1.400 . S
C1079 C1078 1.385 . S
C1080 C1078 1.478 . S
C1080 C1082 1.381 . S
C1080 C1086 1.383 . S
C1081 C1077 1.495 . S
C1081 H1087 0.959 . S
C1081 H1088 0.961 . S
C1081 H1089 0.960 . S
C1082 C1080 1.381 . S
C1082 C1083 1.394 . S
C1082 H1090 0.930 . S
C1083 C1082 1.394 . S
C1083 C1084 1.383 . S
C1083 H1091 0.929 . S
C1084 C1083 1.383 . S
C1084 C1085 1.377 . S
C1085 H1069 0.930 . S
C1085 C1084 1.377 . S
C1085 C1086 1.379 . S
C1086 H1070 0.931 . S
C1086 C1080 1.383 . S
C1086 C1085 1.379 . S
H1087 C1081 0.959 . S
H1088 C1081 0.961 . S
H1089 C1081 0.960 . S
H1090 C1082 0.930 . S
H1091 C1083 0.929 . S
H1092 C1100 0.929 . S
H1093 C1102 0.930 . S
H1094 C1104 0.930 . S
H1095 C1107 0.929 . S
H1096 C1110 0.930 . S
H1097 C1112 0.960 . S
H1098 C1112 0.960 . S
H1099 C1112 0.960 . S
C1100 H1092 0.929 . S
C1100 C1101 1.377 . S
C1100 C1102 1.384 . S
C1101 C1100 1.377 . S
C1101 C1107 1.390 . S
C1102 H1093 0.930 . S
C1102 C1100 1.384 . S
C1102 C1103 1.372 . S
C1103 C1102 1.372 . S
C1103 C1104 1.400 . S
C1103 C1108 1.490 . S
C1104 H1094 0.930 . S
C1104 C1103 1.400 . S
C1104 C1107 1.386 . S
H1105 C1121 0.930 . S
H1106 C1122 0.931 . S
C1107 H1095 0.929 . S
C1107 C1101 1.390 . S
C1107 C1104 1.386 . S
C1108 C1103 1.490 . S
C1108 C1110 1.395 1_655 S
C1108 C1111 1.403 . S
H1109 C1115 0.919 1_655 S
C1110 H1096 0.930 . S
C1110 C1108 1.395 1_455 S
C1110 C1113 1.403 . S
C1111 C1108 1.403 . S
C1111 C1112 1.524 . S
C1111 C1115 1.394 1_655 S
C1112 H1097 0.960 . S
C1112 H1098 0.960 . S
C1112 H1099 0.960 . S
C1112 C1111 1.524 . S
C1113 C1110 1.403 . S
C1113 C1114 1.392 . S
C1113 C1117 1.495 . S
C1114 C1113 1.392 . S
C1114 C1115 1.392 . S
C1114 C1116 1.478 . S
C1115 H1109 0.919 1_455 S
C1115 C1111 1.394 1_455 S
C1115 C1114 1.392 . S
C1116 C1114 1.478 . S
C1116 C1118 1.381 . S
C1116 C1122 1.383 . S
C1117 C1113 1.495 . S
C1117 H1123 0.959 . S
C1117 H1124 0.961 . S
C1117 H1125 0.960 . S
C1118 C1116 1.381 . S
C1118 C1119 1.394 . S
C1118 H1126 0.930 . S
C1119 C1118 1.394 . S
C1119 C1120 1.383 . S
C1119 H1127 0.929 . S
C1120 C1119 1.383 . S
C1120 C1121 1.377 . S
C1121 H1105 0.930 . S
C1121 C1120 1.377 . S
C1121 C1122 1.379 . S
C1122 H1106 0.931 . S
C1122 C1116 1.383 . S
C1122 C1121 1.379 . S
H1123 C1117 0.959 . S
H1124 C1117 0.961 . S
H1125 C1117 0.960 . S
H1126 C1118 0.930 . S
H1127 C1119 0.929 . S
H1128 C1136 0.929 . S
H1129 C1138 0.930 . S
H1130 C1140 0.930 . S
H1131 C1143 0.929 . S
H1132 C1146 0.930 . S
H1133 C1148 0.960 . S
H1134 C1148 0.960 . S
H1135 C1148 0.960 . S
C1136 H1128 0.929 . S
C1136 C1137 1.377 . S
C1136 C1138 1.384 . S
C1137 C1136 1.377 . S
C1137 C1143 1.390 . S
C1138 H1129 0.930 . S
C1138 C1136 1.384 . S
C1138 C1139 1.372 . S
C1139 C1138 1.372 . S
C1139 C1140 1.400 . S
C1139 C1144 1.490 . S
C1140 H1130 0.930 . S
C1140 C1139 1.400 . S
C1140 C1143 1.386 . S
H1141 C1157 0.930 . S
H1142 C1158 0.931 . S
C1143 H1131 0.929 . S
C1143 C1137 1.390 . S
C1143 C1140 1.386 . S
C1144 C1139 1.490 . S
C1144 C1146 1.395 . S
C1144 C1147 1.403 . S
H1145 C1151 0.930 . S
C1146 H1132 0.930 . S
C1146 C1144 1.395 . S
C1146 C1149 1.403 . S
C1147 C1144 1.403 . S
C1147 C1148 1.524 . S
C1147 C1151 1.400 . S
C1148 H1133 0.960 . S
C1148 H1134 0.960 . S
C1148 H1135 0.960 . S
C1148 C1147 1.524 . S
C1149 C1146 1.403 . S
C1149 C1150 1.392 . S
C1149 C1153 1.495 . S
C1150 C1149 1.392 . S
C1150 C1151 1.385 . S
C1150 C1152 1.478 . S
C1151 H1145 0.930 . S
C1151 C1147 1.400 . S
C1151 C1150 1.385 . S
C1152 C1150 1.478 . S
C1152 C1154 1.381 . S
C1152 C1158 1.383 . S
C1153 C1149 1.495 . S
C1153 H1159 0.959 . S
C1153 H1160 0.961 . S
C1153 H1161 0.960 . S
C1154 C1152 1.381 . S
C1154 C1155 1.394 . S
C1154 H1162 0.930 . S
C1155 C1154 1.394 . S
C1155 C1156 1.383 . S
C1155 H1163 0.929 . S
C1156 C1155 1.383 . S
C1156 C1157 1.377 . S
C1157 H1141 0.930 . S
C1157 C1156 1.377 . S
C1157 C1158 1.379 . S
C1158 H1142 0.931 . S
C1158 C1152 1.383 . S
C1158 C1157 1.379 . S
H1159 C1153 0.959 . S
H1160 C1153 0.961 . S
H1161 C1153 0.960 . S
H1162 C1154 0.930 . S
H1163 C1155 0.929 . S
H1164 C1172 0.929 . S
H1165 C1174 0.930 . S
H1166 C1176 0.930 . S
H1167 C1179 0.929 . S
H1168 C1182 0.930 . S
H1169 C1184 0.960 . S
H1170 C1184 0.960 . S
H1171 C1184 0.960 . S
C1172 H1164 0.929 . S
C1172 C1173 1.377 . S
C1172 C1174 1.384 . S
C1173 C1172 1.377 . S
C1173 C1179 1.390 . S
C1174 H1165 0.930 . S
C1174 C1172 1.384 . S
C1174 C1175 1.372 . S
C1175 C1174 1.372 . S
C1175 C1176 1.400 . S
C1175 C1180 1.490 . S
C1176 H1166 0.930 . S
C1176 C1175 1.400 . S
C1176 C1179 1.386 . S
H1177 C1193 0.930 . S
H1178 C1194 0.931 . S
C1179 H1167 0.929 . S
C1179 C1173 1.390 . S
C1179 C1176 1.386 . S
C1180 C1175 1.490 . S
C1180 C1182 1.395 . S
C1180 C1183 1.403 . S
H1181 C1187 0.930 . S
C1182 H1168 0.930 . S
C1182 C1180 1.395 . S
C1182 C1185 1.403 . S
C1183 C1180 1.403 . S
C1183 C1184 1.524 . S
C1183 C1187 1.400 . S
C1184 H1169 0.960 . S
C1184 H1170 0.960 . S
C1184 H1171 0.960 . S
C1184 C1183 1.524 . S
C1185 C1182 1.403 . S
C1185 C1186 1.392 . S
C1185 C1189 1.495 . S
C1186 C1185 1.392 . S
C1186 C1187 1.385 . S
C1186 C1188 1.478 . S
C1187 H1181 0.930 . S
C1187 C1183 1.400 . S
C1187 C1186 1.385 . S
C1188 C1186 1.478 . S
C1188 C1190 1.381 . S
C1188 C1194 1.383 . S
C1189 C1185 1.495 . S
C1189 H1195 0.959 . S
C1189 H1196 0.961 . S
C1189 H1197 0.960 . S
C1190 C1188 1.381 . S
C1190 C1191 1.394 . S
C1190 H1198 0.930 . S
C1191 C1190 1.394 . S
C1191 C1192 1.383 . S
C1191 H1199 0.929 . S
C1192 C1191 1.383 . S
C1192 C1193 1.377 . S
C1193 H1177 0.930 . S
C1193 C1192 1.377 . S
C1193 C1194 1.379 . S
C1194 H1178 0.931 . S
C1194 C1188 1.383 . S
C1194 C1193 1.379 . S
H1195 C1189 0.959 . S
H1196 C1189 0.961 . S
H1197 C1189 0.960 . S
H1198 C1190 0.930 . S
H1199 C1191 0.929 . S
H1200 C1208 0.929 . S
H1201 C1210 0.930 . S
H1202 C1212 0.930 . S
H1203 C1215 0.929 . S
H1204 C1218 0.930 . S
H1205 C1220 0.960 . S
H1206 C1220 0.960 . S
H1207 C1220 0.960 . S
C1208 H1200 0.929 . S
C1208 C1209 1.377 . S
C1208 C1210 1.384 . S
C1209 C1208 1.377 . S
C1209 C1215 1.390 . S
C1210 H1201 0.930 . S
C1210 C1208 1.384 . S
C1210 C1211 1.372 . S
C1211 C1210 1.372 . S
C1211 C1212 1.400 . S
C1211 C1216 1.490 . S
C1212 H1202 0.930 . S
C1212 C1211 1.400 . S
C1212 C1215 1.386 . S
H1213 C1229 0.930 . S
H1214 C1230 0.931 . S
C1215 H1203 0.929 . S
C1215 C1209 1.390 . S
C1215 C1212 1.386 . S
C1216 C1211 1.490 . S
C1216 C1218 1.395 . S
C1216 C1219 1.403 . S
H1217 C1223 0.930 . S
C1218 H1204 0.930 . S
C1218 C1216 1.395 . S
C1218 C1221 1.403 . S
C1219 C1216 1.403 . S
C1219 C1220 1.524 . S
C1219 C1223 1.400 . S
C1220 H1205 0.960 . S
C1220 H1206 0.960 . S
C1220 H1207 0.960 . S
C1220 C1219 1.524 . S
C1221 C1218 1.403 . S
C1221 C1222 1.392 . S
C1221 C1225 1.495 . S
C1222 C1221 1.392 . S
C1222 C1223 1.385 . S
C1222 C1224 1.478 . S
C1223 H1217 0.930 . S
C1223 C1219 1.400 . S
C1223 C1222 1.385 . S
C1224 C1222 1.478 . S
C1224 C1226 1.381 . S
C1224 C1230 1.383 . S
C1225 C1221 1.495 . S
C1225 H1231 0.959 . S
C1225 H1232 0.961 . S
C1225 H1233 0.960 . S
C1226 C1224 1.381 . S
C1226 C1227 1.394 . S
C1226 H1234 0.930 . S
C1227 C1226 1.394 . S
C1227 C1228 1.383 . S
C1227 H1235 0.929 . S
C1228 C1227 1.383 . S
C1228 C1229 1.377 . S
C1229 H1213 0.930 . S
C1229 C1228 1.377 . S
C1229 C1230 1.379 . S
C1230 H1214 0.931 . S
C1230 C1224 1.383 . S
C1230 C1229 1.379 . S
H1231 C1225 0.959 . S
H1232 C1225 0.961 . S
H1233 C1225 0.960 . S
H1234 C1226 0.930 . S
H1235 C1227 0.929 . S
H1236 C1244 0.929 . S
H1237 C1246 0.930 . S
H1238 C1248 0.930 . S
H1239 C1251 0.929 . S
H1240 C1254 0.930 . S
H1241 C1256 0.960 . S
H1242 C1256 0.960 . S
H1243 C1256 0.960 . S
C1244 H1236 0.929 . S
C1244 C1245 1.377 . S
C1244 C1246 1.384 . S
C1245 C1244 1.377 . S
C1245 C1251 1.390 . S
C1246 H1237 0.930 . S
C1246 C1244 1.384 . S
C1246 C1247 1.372 . S
C1247 C1246 1.372 . S
C1247 C1248 1.400 . S
C1247 C1252 1.490 . S
C1248 H1238 0.930 . S
C1248 C1247 1.400 . S
C1248 C1251 1.386 . S
H1249 C1265 0.930 . S
H1250 C1266 0.931 . S
C1251 H1239 0.929 . S
C1251 C1245 1.390 . S
C1251 C1248 1.386 . S
C1252 C1247 1.490 . S
C1252 C1254 1.395 . S
C1252 C1255 1.403 . S
H1253 C1259 0.930 . S
C1254 H1240 0.930 . S
C1254 C1252 1.395 . S
C1254 C1257 1.403 . S
C1255 C1252 1.403 . S
C1255 C1256 1.524 . S
C1255 C1259 1.400 . S
C1256 H1241 0.960 . S
C1256 H1242 0.960 . S
C1256 H1243 0.960 . S
C1256 C1255 1.524 . S
C1257 C1254 1.403 . S
C1257 C1258 1.392 . S
C1257 C1261 1.495 . S
C1258 C1257 1.392 . S
C1258 C1259 1.385 . S
C1258 C1260 1.478 . S
C1259 H1253 0.930 . S
C1259 C1255 1.400 . S
C1259 C1258 1.385 . S
C1260 C1258 1.478 . S
C1260 C1262 1.381 . S
C1260 C1266 1.383 . S
C1261 C1257 1.495 . S
C1261 H1267 0.959 . S
C1261 H1268 0.961 . S
C1261 H1269 0.960 . S
C1262 C1260 1.381 . S
C1262 C1263 1.394 . S
C1262 H1270 0.930 . S
C1263 C1262 1.394 . S
C1263 C1264 1.383 . S
C1263 H1271 0.929 . S
C1264 C1263 1.383 . S
C1264 C1265 1.377 . S
C1265 H1249 0.930 . S
C1265 C1264 1.377 . S
C1265 C1266 1.379 . S
C1266 H1250 0.931 . S
C1266 C1260 1.383 . S
C1266 C1265 1.379 . S
H1267 C1261 0.959 . S
H1268 C1261 0.961 . S
H1269 C1261 0.960 . S
H1270 C1262 0.930 . S
H1271 C1263 0.929 . S
H1272 C1280 0.929 . S
H1273 C1282 0.930 . S
H1274 C1284 0.930 . S
H1275 C1287 0.929 . S
H1276 C1290 0.930 . S
H1277 C1292 0.960 . S
H1278 C1292 0.960 . S
H1279 C1292 0.960 . S
C1280 H1272 0.929 . S
C1280 C1281 1.377 . S
C1280 C1282 1.384 . S
C1281 C1280 1.377 . S
C1281 C1287 1.390 . S
C1282 H1273 0.930 . S
C1282 C1280 1.384 . S
C1282 C1283 1.372 . S
C1283 C1282 1.372 . S
C1283 C1284 1.400 . S
C1283 C1288 1.490 . S
C1284 H1274 0.930 . S
C1284 C1283 1.400 . S
C1284 C1287 1.386 . S
H1285 C1301 0.930 . S
H1286 C1302 0.931 . S
C1287 H1275 0.929 . S
C1287 C1281 1.390 . S
C1287 C1284 1.386 . S
C1288 C1283 1.490 . S
C1288 C1290 1.395 . S
C1288 C1291 1.403 . S
H1289 C1295 0.930 . S
C1290 H1276 0.930 . S
C1290 C1288 1.395 . S
C1290 C1293 1.403 . S
C1291 C1288 1.403 . S
C1291 C1292 1.524 . S
C1291 C1295 1.400 . S
C1292 H1277 0.960 . S
C1292 H1278 0.960 . S
C1292 H1279 0.960 . S
C1292 C1291 1.524 . S
C1293 C1290 1.403 . S
C1293 C1294 1.392 . S
C1293 C1297 1.495 . S
C1294 C1293 1.392 . S
C1294 C1295 1.385 . S
C1294 C1296 1.478 . S
C1295 H1289 0.930 . S
C1295 C1291 1.400 . S
C1295 C1294 1.385 . S
C1296 C1294 1.478 . S
C1296 C1298 1.381 . S
C1296 C1302 1.383 . S
C1297 C1293 1.495 . S
C1297 H1303 0.959 . S
C1297 H1304 0.961 . S
C1297 H1305 0.960 . S
C1298 C1296 1.381 . S
C1298 C1299 1.394 . S
C1298 H1306 0.930 . S
C1299 C1298 1.394 . S
C1299 C1300 1.383 . S
C1299 H1307 0.929 . S
C1300 C1299 1.383 . S
C1300 C1301 1.377 . S
C1301 H1285 0.930 . S
C1301 C1300 1.377 . S
C1301 C1302 1.379 . S
C1302 H1286 0.931 . S
C1302 C1296 1.383 . S
C1302 C1301 1.379 . S
H1303 C1297 0.959 . S
H1304 C1297 0.961 . S
H1305 C1297 0.960 . S
H1306 C1298 0.930 . S
H1307 C1299 0.929 . S
H1308 C1316 0.929 . S
H1309 C1318 0.930 . S
H1310 C1320 0.930 . S
H1311 C1323 0.929 . S
H1312 C1326 0.930 . S
H1313 C1328 0.960 . S
H1314 C1328 0.960 . S
H1315 C1328 0.960 . S
C1316 H1308 0.929 . S
C1316 C1317 1.377 . S
C1316 C1318 1.384 . S
C1317 C1316 1.377 . S
C1317 C1323 1.390 . S
C1318 H1309 0.930 . S
C1318 C1316 1.384 . S
C1318 C1319 1.372 . S
C1319 C1318 1.372 . S
C1319 C1320 1.400 . S
C1319 C1324 1.490 . S
C1320 H1310 0.930 . S
C1320 C1319 1.400 . S
C1320 C1323 1.386 . S
H1321 C1337 0.930 . S
H1322 C1338 0.931 . S
C1323 H1311 0.929 . S
C1323 C1317 1.390 . S
C1323 C1320 1.386 . S
C1324 C1319 1.490 . S
C1324 C1326 1.395 . S
C1324 C1327 1.403 . S
H1325 C1331 0.930 . S
C1326 H1312 0.930 . S
C1326 C1324 1.395 . S
C1326 C1329 1.403 . S
C1327 C1324 1.403 . S
C1327 C1328 1.524 . S
C1327 C1331 1.400 . S
C1328 H1313 0.960 . S
C1328 H1314 0.960 . S
C1328 H1315 0.960 . S
C1328 C1327 1.524 . S
C1329 C1326 1.403 . S
C1329 C1330 1.392 . S
C1329 C1333 1.495 . S
C1330 C1329 1.392 . S
C1330 C1331 1.385 . S
C1330 C1332 1.478 . S
C1331 H1325 0.930 . S
C1331 C1327 1.400 . S
C1331 C1330 1.385 . S
C1332 C1330 1.478 . S
C1332 C1334 1.381 . S
C1332 C1338 1.383 . S
C1333 C1329 1.495 . S
C1333 H1339 0.959 . S
C1333 H1340 0.961 . S
C1333 H1341 0.960 . S
C1334 C1332 1.381 . S
C1334 C1335 1.394 . S
C1334 H1342 0.930 . S
C1335 C1334 1.394 . S
C1335 C1336 1.383 . S
C1335 H1343 0.929 . S
C1336 C1335 1.383 . S
C1336 C1337 1.377 . S
C1337 H1321 0.930 . S
C1337 C1336 1.377 . S
C1337 C1338 1.379 . S
C1338 H1322 0.931 . S
C1338 C1332 1.383 . S
C1338 C1337 1.379 . S
H1339 C1333 0.959 . S
H1340 C1333 0.961 . S
H1341 C1333 0.960 . S
H1342 C1334 0.930 . S
H1343 C1335 0.929 . S
H1344 C1352 0.929 . S
H1345 C1354 0.930 . S
H1346 C1356 0.930 . S
H1347 C1359 0.929 . S
H1348 C1362 0.930 . S
H1349 C1364 0.960 . S
H1350 C1364 0.960 . S
H1351 C1364 0.960 . S
C1352 H1344 0.929 . S
C1352 C1353 1.377 . S
C1352 C1354 1.384 . S
C1353 C1352 1.377 . S
C1353 C1359 1.390 . S
C1354 H1345 0.930 . S
C1354 C1352 1.384 . S
C1354 C1355 1.372 . S
C1355 C1354 1.372 . S
C1355 C1356 1.400 . S
C1355 C1360 1.490 . S
C1356 H1346 0.930 . S
C1356 C1355 1.400 . S
C1356 C1359 1.386 . S
H1357 C1373 0.930 . S
H1358 C1374 0.931 . S
C1359 H1347 0.929 . S
C1359 C1353 1.390 . S
C1359 C1356 1.386 . S
C1360 C1355 1.490 . S
C1360 C1362 1.395 . S
C1360 C1363 1.403 . S
H1361 C1367 0.930 . S
C1362 H1348 0.930 . S
C1362 C1360 1.395 . S
C1362 C1365 1.403 . S
C1363 C1360 1.403 . S
C1363 C1364 1.524 . S
C1363 C1367 1.400 . S
C1364 H1349 0.960 . S
C1364 H1350 0.960 . S
C1364 H1351 0.960 . S
C1364 C1363 1.524 . S
C1365 C1362 1.403 . S
C1365 C1366 1.392 . S
C1365 C1369 1.495 . S
C1366 C1365 1.392 . S
C1366 C1367 1.385 . S
C1366 C1368 1.478 . S
C1367 H1361 0.930 . S
C1367 C1363 1.400 . S
C1367 C1366 1.385 . S
C1368 C1366 1.478 . S
C1368 C1370 1.381 . S
C1368 C1374 1.383 . S
C1369 C1365 1.495 . S
C1369 H1375 0.959 . S
C1369 H1376 0.961 . S
C1369 H1377 0.960 . S
C1370 C1368 1.381 . S
C1370 C1371 1.394 . S
C1370 H1378 0.930 . S
C1371 C1370 1.394 . S
C1371 C1372 1.383 . S
C1371 H1379 0.929 . S
C1372 C1371 1.383 . S
C1372 C1373 1.377 . S
C1373 H1357 0.930 . S
C1373 C1372 1.377 . S
C1373 C1374 1.379 . S
C1374 H1358 0.931 . S
C1374 C1368 1.383 . S
C1374 C1373 1.379 . S
H1375 C1369 0.959 . S
H1376 C1369 0.961 . S
H1377 C1369 0.960 . S
H1378 C1370 0.930 . S
H1379 C1371 0.929 . S
H1380 C1388 0.929 . S
H1381 C1390 0.930 . S
H1382 C1392 0.930 . S
H1383 C1395 0.929 . S
H1384 C1398 0.930 . S
H1385 C1400 0.960 . S
H1386 C1400 0.960 . S
H1387 C1400 0.960 . S
C1388 H1380 0.929 . S
C1388 C1389 1.377 . S
C1388 C1390 1.384 . S
C1389 C1388 1.377 . S
C1389 C1395 1.390 . S
C1390 H1381 0.930 . S
C1390 C1388 1.384 . S
C1390 C1391 1.372 . S
C1391 C1390 1.372 . S
C1391 C1392 1.400 . S
C1391 C1396 1.490 . S
C1392 H1382 0.930 . S
C1392 C1391 1.400 . S
C1392 C1395 1.386 . S
H1393 C1409 0.930 . S
H1394 C1410 0.931 . S
C1395 H1383 0.929 . S
C1395 C1389 1.390 . S
C1395 C1392 1.386 . S
C1396 C1391 1.490 . S
C1396 C1398 1.395 . S
C1396 C1399 1.403 . S
H1397 C1403 0.930 . S
C1398 H1384 0.930 . S
C1398 C1396 1.395 . S
C1398 C1401 1.403 . S
C1399 C1396 1.403 . S
C1399 C1400 1.524 . S
C1399 C1403 1.400 . S
C1400 H1385 0.960 . S
C1400 H1386 0.960 . S
C1400 H1387 0.960 . S
C1400 C1399 1.524 . S
C1401 C1398 1.403 . S
C1401 C1402 1.392 . S
C1401 C1405 1.495 . S
C1402 C1401 1.392 . S
C1402 C1403 1.385 . S
C1402 C1404 1.478 . S
C1403 H1397 0.930 . S
C1403 C1399 1.400 . S
C1403 C1402 1.385 . S
C1404 C1402 1.478 . S
C1404 C1406 1.381 . S
C1404 C1410 1.383 . S
C1405 C1401 1.495 . S
C1405 H1411 0.959 . S
C1405 H1412 0.961 . S
C1405 H1413 0.960 . S
C1406 C1404 1.381 . S
C1406 C1407 1.394 . S
C1406 H1414 0.930 . S
C1407 C1406 1.394 . S
C1407 C1408 1.383 . S
C1407 H1415 0.929 . S
C1408 C1407 1.383 . S
C1408 C1409 1.377 . S
C1409 H1393 0.930 . S
C1409 C1408 1.377 . S
C1409 C1410 1.379 . S
C1410 H1394 0.931 . S
C1410 C1404 1.383 . S
C1410 C1409 1.379 . S
H1411 C1405 0.959 . S
H1412 C1405 0.961 . S
H1413 C1405 0.960 . S
H1414 C1406 0.930 . S
H1415 C1407 0.929 . S
H1416 C1424 0.929 . S
H1417 C1426 0.930 . S
H1418 C1428 0.930 . S
H1419 C1431 0.929 . S
H1420 C1434 0.930 . S
H1421 C1436 0.960 . S
H1422 C1436 0.960 . S
H1423 C1436 0.960 . S
C1424 H1416 0.929 . S
C1424 C1425 1.377 . S
C1424 C1426 1.384 . S
C1425 C1424 1.377 . S
C1425 C1431 1.390 . S
C1426 H1417 0.930 . S
C1426 C1424 1.384 . S
C1426 C1427 1.372 . S
C1427 C1426 1.372 . S
C1427 C1428 1.400 . S
C1427 C1432 1.490 . S
C1428 H1418 0.930 . S
C1428 C1427 1.400 . S
C1428 C1431 1.386 . S
H1429 C1445 0.930 . S
H1430 C1446 0.931 . S
C1431 H1419 0.929 . S
C1431 C1425 1.390 . S
C1431 C1428 1.386 . S
C1432 C1427 1.490 . S
C1432 C1434 1.395 . S
C1432 C1435 1.403 . S
H1433 C1439 0.930 . S
C1434 H1420 0.930 . S
C1434 C1432 1.395 . S
C1434 C1437 1.403 . S
C1435 C1432 1.403 . S
C1435 C1436 1.524 . S
C1435 C1439 1.400 . S
C1436 H1421 0.960 . S
C1436 H1422 0.960 . S
C1436 H1423 0.960 . S
C1436 C1435 1.524 . S
C1437 C1434 1.403 . S
C1437 C1438 1.392 . S
C1437 C1441 1.495 . S
C1438 C1437 1.392 . S
C1438 C1439 1.385 . S
C1438 C1440 1.478 . S
C1439 H1433 0.930 . S
C1439 C1435 1.400 . S
C1439 C1438 1.385 . S
C1440 C1438 1.478 . S
C1440 C1442 1.381 . S
C1440 C1446 1.383 . S
C1441 C1437 1.495 . S
C1441 H1447 0.959 . S
C1441 H1448 0.961 . S
C1441 H1449 0.960 . S
C1442 C1440 1.381 . S
C1442 C1443 1.394 . S
C1442 H1450 0.930 . S
C1443 C1442 1.394 . S
C1443 C1444 1.383 . S
C1443 H1451 0.929 . S
C1444 C1443 1.383 . S
C1444 C1445 1.377 . S
C1445 H1429 0.930 . S
C1445 C1444 1.377 . S
C1445 C1446 1.379 . S
C1446 H1430 0.931 . S
C1446 C1440 1.383 . S
C1446 C1445 1.379 . S
H1447 C1441 0.959 . S
H1448 C1441 0.961 . S
H1449 C1441 0.960 . S
H1450 C1442 0.930 . S
H1451 C1443 0.929 . S
H1452 C1460 0.929 . S
H1453 C1462 0.930 . S
H1454 C1464 0.930 . S
H1455 C1467 0.929 . S
H1456 C1470 0.930 . S
H1457 C1472 0.960 . S
H1458 C1472 0.960 . S
H1459 C1472 0.960 . S
C1460 H1452 0.929 . S
C1460 C1461 1.377 . S
C1460 C1462 1.384 . S
C1461 C1460 1.377 . S
C1461 C1467 1.390 . S
C1462 H1453 0.930 . S
C1462 C1460 1.384 . S
C1462 C1463 1.372 . S
C1463 C1462 1.372 . S
C1463 C1464 1.400 . S
C1463 C1468 1.490 . S
C1464 H1454 0.930 . S
C1464 C1463 1.400 . S
C1464 C1467 1.386 . S
H1465 C1481 0.930 . S
H1466 C1482 0.931 . S
C1467 H1455 0.929 . S
C1467 C1461 1.390 . S
C1467 C1464 1.386 . S
C1468 C1463 1.490 . S
C1468 C1470 1.395 . S
C1468 C1471 1.403 . S
H1469 C1475 0.930 . S
C1470 H1456 0.930 . S
C1470 C1468 1.395 . S
C1470 C1473 1.403 . S
C1471 C1468 1.403 . S
C1471 C1472 1.524 . S
C1471 C1475 1.400 . S
C1472 H1457 0.960 . S
C1472 H1458 0.960 . S
C1472 H1459 0.960 . S
C1472 C1471 1.524 . S
C1473 C1470 1.403 . S
C1473 C1474 1.392 . S
C1473 C1477 1.495 . S
C1474 C1473 1.392 . S
C1474 C1475 1.385 . S
C1474 C1476 1.478 . S
C1475 H1469 0.930 . S
C1475 C1471 1.400 . S
C1475 C1474 1.385 . S
C1476 C1474 1.478 . S
C1476 C1478 1.381 . S
C1476 C1482 1.383 . S
C1477 C1473 1.495 . S
C1477 H1483 0.959 . S
C1477 H1484 0.961 . S
C1477 H1485 0.960 . S
C1478 C1476 1.381 . S
C1478 C1479 1.394 . S
C1478 H1486 0.930 . S
C1479 C1478 1.394 . S
C1479 C1480 1.383 . S
C1479 H1487 0.929 . S
C1480 C1479 1.383 . S
C1480 C1481 1.377 . S
C1481 H1465 0.930 . S
C1481 C1480 1.377 . S
C1481 C1482 1.379 . S
C1482 H1466 0.931 . S
C1482 C1476 1.383 . S
C1482 C1481 1.379 . S
H1483 C1477 0.959 . S
H1484 C1477 0.961 . S
H1485 C1477 0.960 . S
H1486 C1478 0.930 . S
H1487 C1479 0.929 . S
H1488 C1496 0.929 . S
H1489 C1498 0.930 . S
H1490 C1500 0.930 . S
H1491 C1503 0.929 . S
H1492 C1506 0.930 . S
H1493 C1508 0.960 . S
H1494 C1508 0.960 . S
H1495 C1508 0.960 . S
C1496 H1488 0.929 . S
C1496 C1497 1.377 . S
C1496 C1498 1.384 . S
C1497 C1496 1.377 . S
C1497 C1503 1.390 . S
C1498 H1489 0.930 . S
C1498 C1496 1.384 . S
C1498 C1499 1.372 . S
C1499 C1498 1.372 . S
C1499 C1500 1.400 . S
C1499 C1504 1.490 . S
C1500 H1490 0.930 . S
C1500 C1499 1.400 . S
C1500 C1503 1.386 . S
H1501 C1517 0.930 . S
H1502 C1518 0.931 . S
C1503 H1491 0.929 . S
C1503 C1497 1.390 . S
C1503 C1500 1.386 . S
C1504 C1499 1.490 . S
C1504 C1506 1.395 . S
C1504 C1507 1.403 . S
H1505 C1511 0.930 . S
C1506 H1492 0.930 . S
C1506 C1504 1.395 . S
C1506 C1509 1.403 . S
C1507 C1504 1.403 . S
C1507 C1508 1.524 . S
C1507 C1511 1.400 . S
C1508 H1493 0.960 . S
C1508 H1494 0.960 . S
C1508 H1495 0.960 . S
C1508 C1507 1.524 . S
C1509 C1506 1.403 . S
C1509 C1510 1.392 . S
C1509 C1513 1.495 . S
C1510 C1509 1.392 . S
C1510 C1511 1.385 . S
C1510 C1512 1.478 . S
C1511 H1505 0.930 . S
C1511 C1507 1.400 . S
C1511 C1510 1.385 . S
C1512 C1510 1.478 . S
C1512 C1514 1.381 . S
C1512 C1518 1.383 . S
C1513 C1509 1.495 . S
C1513 H1519 0.959 . S
C1513 H1520 0.961 . S
C1513 H1521 0.960 . S
C1514 C1512 1.381 . S
C1514 C1515 1.394 . S
C1514 H1522 0.930 . S
C1515 C1514 1.394 . S
C1515 C1516 1.383 . S
C1515 H1523 0.929 . S
C1516 C1515 1.383 . S
C1516 C1517 1.377 . S
C1517 H1501 0.930 . S
C1517 C1516 1.377 . S
C1517 C1518 1.379 . S
C1518 H1502 0.931 . S
C1518 C1512 1.383 . S
C1518 C1517 1.379 . S
H1519 C1513 0.959 . S
H1520 C1513 0.961 . S
H1521 C1513 0.960 . S
H1522 C1514 0.930 . S
H1523 C1515 0.929 . S
H1524 C1532 0.929 . S
H1525 C1534 0.930 . S
H1526 C1536 0.930 . S
H1527 C1539 0.929 . S
H1528 C1542 0.930 . S
H1529 C1544 0.960 . S
H1530 C1544 0.960 . S
H1531 C1544 0.960 . S
C1532 H1524 0.929 . S
C1532 C1533 1.377 . S
C1532 C1534 1.384 . S
C1533 C1532 1.377 . S
C1533 C1539 1.390 . S
C1534 H1525 0.930 . S
C1534 C1532 1.384 . S
C1534 C1535 1.372 . S
C1535 C1534 1.372 . S
C1535 C1536 1.400 . S
C1535 C1540 1.490 . S
C1536 H1526 0.930 . S
C1536 C1535 1.400 . S
C1536 C1539 1.386 . S
H1537 C1553 0.930 . S
H1538 C1554 0.931 . S
C1539 H1527 0.929 . S
C1539 C1533 1.390 . S
C1539 C1536 1.386 . S
C1540 C1535 1.490 . S
C1540 C1542 1.395 . S
C1540 C1543 1.403 . S
H1541 C1547 0.930 . S
C1542 H1528 0.930 . S
C1542 C1540 1.395 . S
C1542 C1545 1.403 . S
C1543 C1540 1.403 . S
C1543 C1544 1.524 . S
C1543 C1547 1.400 . S
C1544 H1529 0.960 . S
C1544 H1530 0.960 . S
C1544 H1531 0.960 . S
C1544 C1543 1.524 . S
C1545 C1542 1.403 . S
C1545 C1546 1.392 . S
C1545 C1549 1.495 . S
C1546 C1545 1.392 . S
C1546 C1547 1.385 . S
C1546 C1548 1.478 . S
C1547 H1541 0.930 . S
C1547 C1543 1.400 . S
C1547 C1546 1.385 . S
C1548 C1546 1.478 . S
C1548 C1550 1.381 . S
C1548 C1554 1.383 . S
C1549 C1545 1.495 . S
C1549 H1555 0.959 . S
C1549 H1556 0.961 . S
C1549 H1557 0.960 . S
C1550 C1548 1.381 . S
C1550 C1551 1.394 . S
C1550 H1558 0.930 . S
C1551 C1550 1.394 . S
C1551 C1552 1.383 . S
C1551 H1559 0.929 . S
C1552 C1551 1.383 . S
C1552 C1553 1.377 . S
C1553 H1537 0.930 . S
C1553 C1552 1.377 . S
C1553 C1554 1.379 . S
C1554 H1538 0.931 . S
C1554 C1548 1.383 . S
C1554 C1553 1.379 . S
H1555 C1549 0.959 . S
H1556 C1549 0.961 . S
H1557 C1549 0.960 . S
H1558 C1550 0.930 . S
H1559 C1551 0.929 . S
C273 C8 1.070 . S
C292 C184 1.061 . S
C309 C216 1.069 . S
C328 C30 1.067 . S
C345 C62 1.072 . S
C364 C228 1.066 . S
C381 C260 1.069 . S
C400 C76 1.079 . S
C417 C98 1.068 . S
C436 C150 1.073 . S
C453 C172 1.068 . S
C472 C120 1.079 . S
C489 C249 1.205 . S
C508 C81 1.212 . S
C525 C103 1.204 . S
C544 C139 1.212 . S
C561 C161 1.201 . S
C580 C125 1.202 . S
C597 C197 1.204 . S
C616 C21 1.208 . S
C633 C205 1.204 . S
C652 C43 1.211 . S
C669 C51 1.204 . S
C688 C241 1.210 . S
C705 C162 1.146 . S
C724 C10 1.140 . S
C741 C186 1.141 . S
C760 C32 1.154 . S
C777 C206 1.145 . S
C796 C52 1.129 . S
C813 C84 1.146 . S
C832 C230 1.142 . S
C849 C106 1.139 . S
C868 C250 1.142 . S
C885 C140 1.139 . S
C904 C128 1.140 . S
C921 C235 1.249 . S
C940 C73 1.252 . S
C957 C95 1.253 . S
C976 C263 1.246 . S
C993 C153 1.254 . S
C1012 C117 1.230 . S
C1029 C175 1.255 . S
C1048 C15 1.232 . S
C1065 C37 1.250 . S
C1084 C191 1.260 . S
C1101 C65 1.248 . S
C1120 C219 1.267 . S
C1137 C18 1.518 . S
C1156 C238 1.522 . S
C1173 C40 1.521 . S
C1192 C252 1.510 . S
C1209 C142 1.522 . S
C1228 C54 1.508 . S
C1245 C164 1.519 . S
C1264 C74 1.520 . S
C1281 C96 1.518 . S
C1300 C194 1.525 . S
C1317 C208 1.521 . S
C1336 C118 1.508 . S
C1353 C87 1.651 . S
C1372 C169 1.644 . S
C1389 C109 1.652 . S
C1408 C183 1.648 . S
C1425 C213 1.648 . S
C1444 C131 1.635 . S
C1461 C227 1.652 . S
C1480 C7 1.659 . S
C1497 C257 1.653 . S
C1516 C29 1.659 . S
C1533 C147 1.650 . S
C1552 C59 1.652 . S
