# Generated by pormake.
# Topology wix, (3)-cn, num edge types: 1
# Building blocks:
#     Node 0, Type 0, BuildingBlock: OLANEW_clean_sbu_2, # of connection points: 3
#     Node 1, Type 0, BuildingBlock: OLANEW_clean_sbu_2, # of connection points: 3
#     Node 2, Type 0, BuildingBlock: OLANEW_clean_sbu_2, # of connection points: 3
#     Node 3, Type 0, BuildingBlock: OLANEW_clean_sbu_2, # of connection points: 3
#     Node 4, Type 0, BuildingBlock: OLANEW_clean_sbu_2, # of connection points: 3
#     Node 5, Type 0, BuildingBlock: OLANEW_clean_sbu_2, # of connection points: 3
#     Node 6, Type 0, BuildingBlock: OLANEW_clean_sbu_2, # of connection points: 3
#     Node 7, Type 0, BuildingBlock: OLANEW_clean_sbu_2, # of connection points: 3
#     Node 8, Type 0, BuildingBlock: OLANEW_clean_sbu_2, # of connection points: 3
#     Node 9, Type 0, BuildingBlock: OLANEW_clean_sbu_2, # of connection points: 3
#     Node 10, Type 0, BuildingBlock: OLANEW_clean_sbu_2, # of connection points: 3
#     Node 11, Type 0, BuildingBlock: OLANEW_clean_sbu_2, # of connection points: 3
#     Edge 12, Type (0, 0), BuildingBlock: CIFDUS_clean_linker_0, # of connection points: 2
#     Edge 13, Type (0, 0), BuildingBlock: CIFDUS_clean_linker_0, # of connection points: 2
#     Edge 14, Type (0, 0), BuildingBlock: CIFDUS_clean_linker_0, # of connection points: 2
#     Edge 15, Type (0, 0), BuildingBlock: CIFDUS_clean_linker_0, # of connection points: 2
#     Edge 16, Type (0, 0), BuildingBlock: CIFDUS_clean_linker_0, # of connection points: 2
#     Edge 17, Type (0, 0), BuildingBlock: CIFDUS_clean_linker_0, # of connection points: 2
#     Edge 18, Type (0, 0), BuildingBlock: CIFDUS_clean_linker_0, # of connection points: 2
#     Edge 19, Type (0, 0), BuildingBlock: CIFDUS_clean_linker_0, # of connection points: 2
#     Edge 20, Type (0, 0), BuildingBlock: CIFDUS_clean_linker_0, # of connection points: 2
#     Edge 21, Type (0, 0), BuildingBlock: CIFDUS_clean_linker_0, # of connection points: 2
#     Edge 22, Type (0, 0), BuildingBlock: CIFDUS_clean_linker_0, # of connection points: 2
#     Edge 23, Type (0, 0), BuildingBlock: CIFDUS_clean_linker_0, # of connection points: 2
#     Edge 24, Type (0, 0), BuildingBlock: CIFDUS_clean_linker_0, # of connection points: 2
#     Edge 25, Type (0, 0), BuildingBlock: CIFDUS_clean_linker_0, # of connection points: 2
#     Edge 26, Type (0, 0), BuildingBlock: CIFDUS_clean_linker_0, # of connection points: 2
#     Edge 27, Type (0, 0), BuildingBlock: CIFDUS_clean_linker_0, # of connection points: 2
#     Edge 28, Type (0, 0), BuildingBlock: CIFDUS_clean_linker_0, # of connection points: 2
#     Edge 29, Type (0, 0), BuildingBlock: CIFDUS_clean_linker_0, # of connection points: 2
# Relax obj value: 0.009
# Max RMSD: 0.067
# Mean RMSD: 0.067
data_MOF--net-wix--node1-OLANEW_clean_sbu_2--edge1-CIFDUS_clean_linker_0
_symmetry_space_group_name_H-M    P1
_symmetry_Int_Tables_number       1
_symmetry_cell_setting            triclinic
loop_
_symmetry_equiv_pos_as_xyz
'x, y, z'
_cell_length_a     56.276239
_cell_length_b     56.278576
_cell_length_c     29.42995
_cell_angle_alpha  90.37886
_cell_angle_beta   89.734049
_cell_angle_gamma 119.83219
loop_
_atom_site_label
_atom_site_type_symbol
_atom_site_fract_x
_atom_site_fract_y
_atom_site_fract_z
_atom_type_partial_charge
O0 O 0.34367 0.38792 0.15311 0.0
Cd1 Cd 0.33334 0.4227 0.12561 0.0
O2 O 0.3884 0.41177 0.14401 0.0
Cd3 Cd 0.38773 0.44512 0.10758 0.0
O4 O 0.39754 0.47347 0.05091 0.0
C5 C 0.41745 0.47694 0.02576 0.0
O6 O 0.43072 0.46397 0.03592 0.0
C7 C 0.36717 0.39011 0.15718 0.0
C8 C 0.29409 0.42453 0.18178 0.0
O9 O 0.28722 0.40641 0.15039 0.0
O10 O 0.31957 0.44215 0.18641 0.0
O11 O 0.94558 0.31616 0.19896 0.0
Cd12 Cd 0.90536 0.28934 0.15129 0.0
O13 O 0.94001 0.35016 0.17763 0.0
Cd14 Cd 0.95009 0.39275 0.16972 0.0
O15 O 0.95193 0.43037 0.14659 0.0
C16 C 0.93184 0.43406 0.1551 0.0
O17 O 0.91118 0.4156 0.17902 0.0
C18 C 0.95326 0.34154 0.20058 0.0
C19 C 0.85674 0.26985 0.20033 0.0
O20 O 0.86671 0.25425 0.19129 0.0
O21 O 0.8697 0.29463 0.18625 0.0
O22 O 0.64836 0.97905 0.56137 0.0
Cd23 Cd 0.65878 0.94258 0.57708 0.0
O24 O 0.61131 0.95343 0.52132 0.0
Cd25 Cd 0.57859 0.94713 0.47416 0.0
O26 O 0.54656 0.9406 0.42554 0.0
C27 C 0.54185 0.92469 0.39173 0.0
O28 O 0.55649 0.91253 0.38677 0.0
C29 C 0.62842 0.9767 0.5378 0.0
C30 C 0.61568 0.8888 0.57065 0.0
O31 O 0.62134 0.90198 0.60841 0.0
O32 O 0.62987 0.90139 0.53557 0.0
O33 O 0.64092 0.60096 0.65786 0.0
Cd34 Cd 0.66928 0.57928 0.65341 0.0
O35 O 0.60828 0.56258 0.62963 0.0
Cd36 Cd 0.56936 0.53476 0.59657 0.0
O37 O 0.54231 0.50098 0.55171 0.0
C38 C 0.55373 0.49649 0.51795 0.0
O39 O 0.58019 0.5126 0.51184 0.0
C40 C 0.61646 0.58685 0.64364 0.0
C41 C 0.71554 0.60322 0.70881 0.0
O42 O 0.71604 0.61249 0.66894 0.0
O43 O 0.69301 0.58287 0.72275 0.0
O44 O 0.07564 0.65722 0.79257 0.0
Cd45 Cd 0.11832 0.659 0.77048 0.0
O46 O 0.05085 0.61291 0.80454 0.0
Cd47 Cd 0.08101 0.60502 0.77075 0.0
O48 O 0.09931 0.59087 0.71901 0.0
C49 C 0.10779 0.60423 0.68218 0.0
O50 O 0.10655 0.6268 0.67755 0.0
C51 C 0.05353 0.6367 0.80625 0.0
C52 C 0.15764 0.69731 0.82929 0.0
O53 O 0.15142 0.70473 0.79221 0.0
O54 O 0.14619 0.67161 0.83763 0.0
O55 O 0.41003 0.02664 0.93426 0.0
Cd56 Cd 0.43682 0.07331 0.90514 0.0
O57 O 0.44323 0.02975 0.9775 0.0
Cd58 Cd 0.47311 0.06377 0.93632 0.0
O59 O 0.49714 0.07902 0.8739 0.0
C60 C 0.52089 0.10002 0.87214 0.0
O61 O 0.53174 0.11434 0.90935 0.0
C62 C 0.41828 0.01679 0.96519 0.0
C63 C 0.42745 0.10775 0.9621 0.0
O64 O 0.41183 0.09561 0.92809 0.0
O65 O 0.44797 0.10419 0.96851 0.0
O66 O 0.50829 0.65021 0.60771 0.0
Cd67 Cd 0.48009 0.67187 0.60001 0.0
O68 O 0.48262 0.6257 0.66445 0.0
Cd69 Cd 0.47206 0.59782 0.72207 0.0
O70 O 0.46101 0.57308 0.78368 0.0
C71 C 0.4751 0.56233 0.79629 0.0
O72 O 0.49619 0.56615 0.77151 0.0
C73 C 0.50286 0.63221 0.638 0.0
C74 C 0.51177 0.72892 0.60196 0.0
O75 O 0.5019 0.71521 0.63857 0.0
O76 O 0.50657 0.71563 0.56437 0.0
O77 O 0.9205 0.65633 0.90085 0.0
Cd78 Cd 0.88692 0.66694 0.93397 0.0
O79 O 0.91061 0.62506 0.95281 0.0
Cd80 Cd 0.91666 0.59519 0.99064 0.0
O81 O 0.92146 0.56408 0.02663 0.0
C82 C 0.9426 0.56181 0.0204 0.0
O83 O 0.96164 0.57859 0.99215 0.0
C84 C 0.92447 0.63795 0.91809 0.0
C85 C 0.83906 0.64569 0.88264 0.0
O86 O 0.85957 0.66936 0.87406 0.0
O87 O 0.84122 0.63203 0.91548 0.0
O88 O 0.30438 0.8665 0.08891 0.0
Cd89 Cd 0.26804 0.82207 0.11528 0.0
O90 O 0.33495 0.86689 0.13508 0.0
Cd91 Cd 0.3746 0.88015 0.1677 0.0
O92 O 0.41067 0.89139 0.20968 0.0
C93 C 0.41709 0.90933 0.24079 0.0
O94 O 0.40213 0.92111 0.24627 0.0
C95 C 0.32872 0.87859 0.10421 0.0
C96 C 0.24338 0.78596 0.04266 0.0
O97 O 0.23682 0.80413 0.05283 0.0
O98 O 0.26157 0.7847 0.06691 0.0
O99 O 0.39159 0.25576 0.21615 0.0
Cd100 Cd 0.39386 0.21481 0.23613 0.0
O101 O 0.42126 0.27967 0.26946 0.0
Cd102 Cd 0.44371 0.31667 0.31108 0.0
O103 O 0.46518 0.35397 0.35203 0.0
C104 C 0.45252 0.35941 0.38256 0.0
O105 O 0.42631 0.3423 0.38909 0.0
C106 C 0.40555 0.27826 0.23738 0.0
C107 C 0.41003 0.19318 0.16444 0.0
O108 O 0.38493 0.18685 0.1695 0.0
O109 O 0.42758 0.21003 0.19294 0.0
O110 O 0.11003 0.42219 0.35027 0.0
Cd111 Cd 0.15144 0.44648 0.39624 0.0
O112 O 0.08739 0.44252 0.37421 0.0
Cd113 Cd 0.11611 0.46827 0.427 0.0
O114 O 0.12409 0.49212 0.48985 0.0
C115 C 0.12759 0.51623 0.48791 0.0
O116 O 0.12827 0.52676 0.44788 0.0
C117 C 0.08911 0.42519 0.34849 0.0
C118 C 0.19493 0.44845 0.34692 0.0
O119 O 0.17837 0.42707 0.36935 0.0
O120 O 0.19143 0.46926 0.34857 0.0
O121 O 0.66321 0.13181 0.42435 0.0
Cd122 Cd 0.66497 0.16908 0.37981 0.0
O123 O 0.63037 0.12712 0.47055 0.0
Cd124 Cd 0.60372 0.10988 0.52996 0.0
O125 O 0.57947 0.09925 0.59254 0.0
C126 C 0.58848 0.11532 0.62662 0.0
O127 O 0.61236 0.13785 0.62347 0.0
C128 C 0.64711 0.11954 0.45728 0.0
C129 C 0.71206 0.19139 0.32605 0.0
O130 O 0.7116 0.20293 0.36348 0.0
O131 O 0.69016 0.16974 0.31364 0.0
H132 H 0.2966 0.46799 0.22721 0.0
H133 H 0.24466 0.38124 0.20435 0.0
H134 H 0.21007 0.38077 0.25539 0.0
H135 H 0.19429 0.40504 0.3058 0.0
H136 H 0.24416 0.49242 0.32371 0.0
H137 H 0.2799 0.4927 0.27549 0.0
C138 C 0.27772 0.44901 0.23355 0.0
C139 C 0.27321 0.42467 0.21225 0.0
C140 C 0.25759 0.44902 0.26206 0.0
C141 C 0.24854 0.40026 0.22025 0.0
C142 C 0.22879 0.39995 0.24952 0.0
C143 C 0.21307 0.4241 0.29936 0.0
C144 C 0.21675 0.44863 0.31856 0.0
C145 C 0.23308 0.4242 0.27054 0.0
C146 C 0.24093 0.47328 0.30931 0.0
C147 C 0.26134 0.47343 0.28178 0.0
H148 H 0.75449 0.24371 0.32348 0.0
H149 H 0.72624 0.16308 0.26722 0.0
H150 H 0.76886 0.18005 0.22429 0.0
H151 H 0.81444 0.21772 0.20339 0.0
H152 H 0.8413 0.29911 0.2548 0.0
H153 H 0.79901 0.28201 0.29898 0.0
C154 C 0.75771 0.22991 0.30175 0.0
C155 C 0.73737 0.20218 0.29869 0.0
C156 C 0.78202 0.23994 0.2764 0.0
C157 C 0.74159 0.18455 0.27002 0.0
C158 C 0.76598 0.19421 0.24559 0.0
C159 C 0.811 0.23166 0.22436 0.0
C160 C 0.83098 0.25954 0.22624 0.0
C161 C 0.78638 0.22183 0.24867 0.0
C162 C 0.82616 0.27753 0.25288 0.0
C163 C 0.80203 0.26777 0.27818 0.0
H164 H 0.53597 0.76329 0.53059 0.0
H165 H 0.52652 0.76252 0.67633 0.0
H166 H 0.55651 0.8121 0.67907 0.0
H167 H 0.58695 0.85538 0.64064 0.0
H168 H 0.59718 0.85613 0.4951 0.0
H169 H 0.56516 0.8069 0.49178 0.0
C170 C 0.54036 0.77396 0.56294 0.0
C171 C 0.52909 0.75914 0.6032 0.0
C172 C 0.55777 0.80249 0.56435 0.0
C173 C 0.53497 0.77336 0.64481 0.0
C174 C 0.55213 0.80174 0.64645 0.0
C175 C 0.582 0.84485 0.60813 0.0
C176 C 0.59453 0.85944 0.56822 0.0
C177 C 0.56384 0.81648 0.60649 0.0
C178 C 0.5879 0.84541 0.52639 0.0
C179 C 0.56962 0.81723 0.52444 0.0
H180 H 0.72334 0.58295 0.78745 0.0
H181 H 0.76382 0.65044 0.69411 0.0
H182 H 0.8054 0.66973 0.74003 0.0
H183 H 0.8305 0.6671 0.806 0.0
H184 H 0.79045 0.59893 0.89818 0.0
H185 H 0.7485 0.58025 0.85334 0.0
C186 C 0.74121 0.60195 0.77726 0.0
C187 C 0.74044 0.61525 0.73745 0.0
C188 C 0.76517 0.61277 0.80352 0.0
C189 C 0.76385 0.63975 0.72457 0.0
C190 C 0.78765 0.65081 0.75081 0.0
C191 C 0.81259 0.64818 0.81636 0.0
C192 C 0.81363 0.63446 0.85542 0.0
C193 C 0.78858 0.63743 0.79023 0.0
C194 C 0.79024 0.6099 0.86822 0.0
C195 C 0.76622 0.59921 0.84263 0.0
H196 H 0.22121 0.79463 0.96756 0.0
H197 H 0.2359 0.73452 0.03189 0.0
H198 H 0.21143 0.70185 0.97057 0.0
H199 H 0.184 0.68978 0.90037 0.0
H200 H 0.17167 0.75102 0.83423 0.0
H201 H 0.19732 0.78393 0.89423 0.0
C202 C 0.21909 0.77439 0.96804 0.0
C203 C 0.23002 0.76683 0.00436 0.0
C204 C 0.20548 0.75596 0.93231 0.0
C205 C 0.22759 0.74075 0.00426 0.0
C206 C 0.21356 0.72207 0.96929 0.0
C207 C 0.18715 0.7104 0.89893 0.0
C208 C 0.17578 0.71787 0.86307 0.0
C209 C 0.20217 0.72936 0.93337 0.0
C210 C 0.18025 0.74475 0.8614 0.0
C211 C 0.1948 0.76356 0.89583 0.0
H212 H 0.45955 0.14085 0.03049 0.0
H213 H 0.38108 0.11169 0.96591 0.0
H214 H 0.36907 0.13612 0.022 0.0
H215 H 0.37998 0.1641 0.09136 0.0
H216 H 0.4588 0.19414 0.1551 0.0
H217 H 0.47154 0.17114 0.09729 0.0
C218 C 0.43988 0.13996 0.02853 0.0
C219 C 0.42119 0.1243 0.99419 0.0
C220 C 0.43311 0.15414 0.06085 0.0
C221 C 0.39587 0.12356 0.99196 0.0
C222 C 0.38893 0.13747 0.02412 0.0
C223 C 0.39999 0.16571 0.09251 0.0
C224 C 0.41832 0.18065 0.12771 0.0
C225 C 0.40725 0.15255 0.05903 0.0
C226 C 0.44428 0.18275 0.12842 0.0
C227 C 0.45157 0.16955 0.09542 0.0
H228 H 0.41359 0.39034 0.18369 0.0
H229 H 0.3262 0.33746 0.17008 0.0
H230 H 0.33043 0.29826 0.19375 0.0
H231 H 0.35912 0.2786 0.21586 0.0
H232 H 0.44623 0.33146 0.23112 0.0
H233 H 0.44197 0.37107 0.20945 0.0
C234 C 0.39545 0.37027 0.18611 0.0
C235 C 0.36965 0.36685 0.17485 0.0
C236 C 0.39798 0.34779 0.19999 0.0
C237 C 0.34632 0.34072 0.17856 0.0
C238 C 0.34871 0.31824 0.19194 0.0
C239 C 0.37711 0.29884 0.21449 0.0
C240 C 0.4029 0.30224 0.22538 0.0
C241 C 0.37446 0.32148 0.20227 0.0
C242 C 0.42609 0.32849 0.22373 0.0
C243 C 0.42369 0.35109 0.21103 0.0
H244 H 0.99865 0.33798 0.21741 0.0
H245 H 0.961 0.38691 0.24706 0.0
H246 H 0.00012 0.41768 0.29409 0.0
H247 H 0.04446 0.42996 0.32847 0.0
H248 H 0.08228 0.38107 0.29862 0.0
H249 H 0.0437 0.35105 0.25013 0.0
C250 C 0.9991 0.35544 0.23411 0.0
C251 C 0.9772 0.36044 0.22821 0.0
C252 C 0.02164 0.373 0.26121 0.0
C253 C 0.97797 0.38309 0.25001 0.0
C254 C 0.00021 0.40053 0.2773 0.0
C255 C 0.04433 0.41279 0.31128 0.0
C256 C 0.06623 0.40777 0.31741 0.0
C257 C 0.02212 0.39563 0.28326 0.0
C258 C 0.06574 0.38548 0.29457 0.0
C259 C 0.04364 0.36823 0.26687 0.0
H260 H 0.67074 0.02748 0.52386 0.0
H261 H 0.58253 0.98155 0.52905 0.0
H262 H 0.58049 0.02254 0.50803 0.0
H263 H 0.60401 0.07103 0.48418 0.0
H264 H 0.69219 0.11589 0.47593 0.0
H265 H 0.69413 0.07591 0.50284 0.0
C266 C 0.65107 0.02651 0.52068 0.0
C267 C 0.62681 0.00146 0.52706 0.0
C268 C 0.65011 0.05003 0.5083 0.0
C269 C 0.60146 0.00043 0.52289 0.0
C270 C 0.60031 0.02392 0.51135 0.0
C271 C 0.62361 0.07215 0.48931 0.0
C272 C 0.64795 0.09638 0.47872 0.0
C273 C 0.62451 0.04878 0.50343 0.0
C274 C 0.67323 0.09743 0.48413 0.0
C275 C 0.67434 0.07458 0.49935 0.0
H276 H 0.55757 0.65679 0.62555 0.0
H277 H 0.48706 0.57919 0.65924 0.0
H278 H 0.51592 0.55811 0.6639 0.0
H279 H 0.56135 0.56172 0.6573 0.0
H280 H 0.63196 0.63984 0.62619 0.0
H281 H 0.60302 0.66077 0.62159 0.0
C282 C 0.54858 0.63527 0.634 0.0
C283 C 0.52032 0.61962 0.6425 0.0
C284 C 0.56532 0.62338 0.63681 0.0
C285 C 0.50887 0.5918 0.65357 0.0
C286 C 0.52533 0.57968 0.6558 0.0
C287 C 0.57028 0.58324 0.64905 0.0
C288 C 0.59864 0.59914 0.64136 0.0
C289 C 0.55357 0.59525 0.64728 0.0
C290 C 0.61015 0.62719 0.63209 0.0
C291 C 0.59362 0.63916 0.62939 0.0
H292 H 0.97183 0.67475 0.87831 0.0
H293 H 0.92432 0.58921 0.91273 0.0
H294 H 0.96016 0.58123 0.88184 0.0
H295 H 0.0051 0.59869 0.84461 0.0
H296 H 0.05202 0.68435 0.80939 0.0
H297 H 0.01621 0.69201 0.84043 0.0
C298 C 0.96933 0.65435 0.87899 0.0
C299 C 0.94579 0.63276 0.89883 0.0
C300 C 0.98987 0.64989 0.86073 0.0
C301 C 0.94272 0.60641 0.89926 0.0
C302 C 0.96306 0.60176 0.88103 0.0
C303 C 0.00747 0.61902 0.84364 0.0
C304 C 0.03128 0.64088 0.82465 0.0
C305 C 0.98679 0.62339 0.8618 0.0
C306 C 0.03398 0.66711 0.8238 0.0
C307 C 0.01349 0.67156 0.84156 0.0
H308 H 0.42336 0.99625 0.04594 0.0
H309 H 0.36975 0.97736 0.93047 0.0
H310 H 0.33796 0.93286 0.96293 0.0
H311 H 0.32542 0.89929 0.02357 0.0
H312 H 0.37661 0.91947 0.14242 0.0
H313 H 0.40952 0.96314 0.10884 0.0
C314 C 0.40474 0.98234 0.02788 0.0
C315 C 0.39899 0.99007 0.98577 0.0
C316 C 0.38628 0.95687 0.04709 0.0
C317 C 0.37464 0.97198 0.963 0.0
C318 C 0.35647 0.94647 0.98146 0.0
C319 C 0.3438 0.91318 0.04223 0.0
C320 C 0.34896 0.90548 0.08484 0.0
C321 C 0.36209 0.93872 0.02343 0.0
C322 C 0.3727 0.92401 0.10866 0.0
C323 C 0.39135 0.94932 0.08974 0.0
H324 H 0.45889 0.48817 0.96667 0.0
H325 H 0.39326 0.5052 0.99292 0.0
H326 H 0.40538 0.53319 0.9244 0.0
H327 H 0.43425 0.55233 0.85654 0.0
H328 H 0.49986 0.53519 0.83071 0.0
H329 H 0.48803 0.50772 0.89961 0.0
C330 C 0.44723 0.49803 0.95752 0.0
C331 C 0.42516 0.49453 0.98492 0.0
C332 C 0.45426 0.51403 0.91808 0.0
C333 C 0.41034 0.50752 0.97249 0.0
C334 C 0.41724 0.52352 0.93326 0.0
C335 C 0.44598 0.5426 0.86594 0.0
C336 C 0.46788 0.5458 0.83834 0.0
C337 C 0.43909 0.52682 0.90571 0.0
C338 C 0.48289 0.53308 0.85121 0.0
C339 C 0.47614 0.51735 0.89065 0.0
H340 H 0.90727 0.52456 0.081 0.0
H341 H 0.98427 0.55033 0.01255 0.0
H342 H 0.98825 0.51375 0.04951 0.0
H343 H 0.96923 0.47364 0.0995 0.0
H344 H 0.892 0.44772 0.16728 0.0
H345 H 0.88889 0.48529 0.13247 0.0
C346 C 0.92498 0.52226 0.07422 0.0
C347 C 0.94538 0.54013 0.04389 0.0
C348 C 0.92711 0.50114 0.09546 0.0
C349 C 0.96822 0.53685 0.03565 0.0
C350 C 0.97052 0.51592 0.05677 0.0
C351 C 0.95178 0.47628 0.10688 0.0
C352 C 0.93085 0.4578 0.13587 0.0
C353 C 0.95 0.49783 0.08649 0.0
C354 C 0.90839 0.46157 0.14503 0.0
C355 C 0.90656 0.48304 0.12509 0.0
H356 H 0.50907 0.94758 0.39079 0.0
H357 H 0.52536 0.8902 0.3184 0.0
H358 H 0.48871 0.88087 0.26488 0.0
H359 H 0.45145 0.88827 0.23937 0.0
H360 H 0.4351 0.94561 0.31176 0.0
H361 H 0.4724 0.9557 0.36431 0.0
C362 C 0.50465 0.93306 0.36328 0.0
C363 C 0.51993 0.91956 0.35879 0.0
C364 C 0.48351 0.92775 0.33256 0.0
C365 C 0.51394 0.90087 0.32279 0.0
C366 C 0.49295 0.8955 0.29211 0.0
C367 C 0.45607 0.90304 0.26655 0.0
C368 C 0.4404 0.91608 0.27161 0.0
C369 C 0.47752 0.90871 0.29679 0.0
C370 C 0.44677 0.93521 0.30702 0.0
C371 C 0.4681 0.94099 0.33718 0.0
H372 H 0.49951 0.45787 0.52285 0.0
H373 H 0.57277 0.48179 0.44382 0.0
H374 H 0.54788 0.4419 0.39473 0.0
H375 H 0.50573 0.39964 0.37519 0.0
H376 H 0.43234 0.37541 0.45392 0.0
H377 H 0.45688 0.41599 0.502 0.0
C378 C 0.51001 0.45443 0.49478 0.0
C379 C 0.53801 0.4728 0.4872 0.0
C380 C 0.49558 0.43133 0.46664 0.0
C381 C 0.55126 0.468 0.45059 0.0
C382 C 0.53704 0.44515 0.42245 0.0
C383 C 0.49505 0.40322 0.4028 0.0
C384 C 0.46725 0.38441 0.41098 0.0
C385 C 0.50927 0.42658 0.43035 0.0
C386 C 0.45375 0.3895 0.44684 0.0
C387 C 0.46777 0.41272 0.47441 0.0
H388 H 0.11057 0.55717 0.67897 0.0
H389 H 0.12379 0.62633 0.5977 0.0
H390 H 0.13312 0.60612 0.5313 0.0
H391 H 0.13417 0.56736 0.49489 0.0
H392 H 0.12045 0.49786 0.57559 0.0
H393 H 0.11498 0.51982 0.64356 0.0
C394 C 0.11575 0.56796 0.64685 0.0
C395 C 0.11619 0.59312 0.64333 0.0
C396 C 0.1209 0.55612 0.60856 0.0
C397 C 0.12312 0.60687 0.60145 0.0
C398 C 0.12843 0.59531 0.56335 0.0
C399 C 0.13025 0.55709 0.52739 0.0
C400 C 0.12747 0.53087 0.52994 0.0
C401 C 0.12686 0.56971 0.5663 0.0
C402 C 0.12258 0.518 0.5725 0.0
C403 C 0.11937 0.53051 0.61143 0.0
H404 H 0.60266 0.14459 0.70565 0.0
H405 H 0.53771 0.07154 0.64324 0.0
H406 H 0.51092 0.06085 0.71316 0.0
H407 H 0.50608 0.07187 0.79215 0.0
H408 H 0.57118 0.14456 0.85513 0.0
H409 H 0.59768 0.15577 0.78472 0.0
C410 C 0.58264 0.12634 0.70727 0.0
C411 C 0.57226 0.1089 0.66917 0.0
C412 C 0.56733 0.12024 0.74768 0.0
C413 C 0.54626 0.08532 0.672 0.0
C414 C 0.53089 0.07919 0.71199 0.0
C415 C 0.52602 0.09024 0.79051 0.0
C416 C 0.53659 0.10734 0.82897 0.0
C417 C 0.54124 0.09647 0.75004 0.0
C418 C 0.56252 0.13101 0.82613 0.0
C419 C 0.57771 0.13743 0.78586 0.0
loop_
_geom_bond_atom_site_label_1
_geom_bond_atom_site_label_2
_geom_bond_distance
_geom_bond_site_symmetry_2
_ccdc_geom_bond_type
O0 Cd1 2.300 . S
O0 C7 1.275 . S
Cd1 O0 2.300 . S
Cd1 O9 2.381 . S
Cd1 O10 2.378 . S
O2 Cd3 2.385 . S
O2 C7 1.255 . S
Cd3 O2 2.385 . S
Cd3 O4 2.317 . S
O4 Cd3 2.317 . S
O4 C5 1.232 . S
C5 O4 1.232 . S
C5 O6 1.218 . S
O6 C5 1.218 . S
C7 O0 1.275 . S
C7 O2 1.255 . S
C8 O9 1.258 . S
C8 O10 1.256 . S
O9 Cd1 2.381 . S
O9 C8 1.258 . S
O10 Cd1 2.378 . S
O10 C8 1.256 . S
O11 Cd12 2.300 . S
O11 C18 1.275 . S
Cd12 O11 2.300 . S
Cd12 O20 2.381 . S
Cd12 O21 2.378 . S
O13 Cd14 2.385 . S
O13 C18 1.255 . S
Cd14 O13 2.385 . S
Cd14 O15 2.317 . S
O15 Cd14 2.317 . S
O15 C16 1.232 . S
C16 O15 1.232 . S
C16 O17 1.218 . S
O17 C16 1.218 . S
C18 O11 1.275 . S
C18 O13 1.255 . S
C19 O20 1.258 . S
C19 O21 1.256 . S
O20 Cd12 2.381 . S
O20 C19 1.258 . S
O21 Cd12 2.378 . S
O21 C19 1.256 . S
O22 Cd23 2.300 . S
O22 C29 1.275 . S
Cd23 O22 2.300 . S
Cd23 O31 2.381 . S
Cd23 O32 2.378 . S
O24 Cd25 2.385 . S
O24 C29 1.255 . S
Cd25 O24 2.385 . S
Cd25 O26 2.317 . S
O26 Cd25 2.317 . S
O26 C27 1.232 . S
C27 O26 1.232 . S
C27 O28 1.218 . S
O28 C27 1.218 . S
C29 O22 1.275 . S
C29 O24 1.255 . S
C30 O31 1.258 . S
C30 O32 1.256 . S
O31 Cd23 2.381 . S
O31 C30 1.258 . S
O32 Cd23 2.378 . S
O32 C30 1.256 . S
O33 Cd34 2.300 . S
O33 C40 1.275 . S
Cd34 O33 2.300 . S
Cd34 O42 2.381 . S
Cd34 O43 2.378 . S
O35 Cd36 2.385 . S
O35 C40 1.255 . S
Cd36 O35 2.385 . S
Cd36 O37 2.317 . S
O37 Cd36 2.317 . S
O37 C38 1.232 . S
C38 O37 1.232 . S
C38 O39 1.218 . S
O39 C38 1.218 . S
C40 O33 1.275 . S
C40 O35 1.255 . S
C41 O42 1.258 . S
C41 O43 1.256 . S
O42 Cd34 2.381 . S
O42 C41 1.258 . S
O43 Cd34 2.378 . S
O43 C41 1.256 . S
O44 Cd45 2.300 . S
O44 C51 1.275 . S
Cd45 O44 2.300 . S
Cd45 O53 2.381 . S
Cd45 O54 2.378 . S
O46 Cd47 2.385 . S
O46 C51 1.255 . S
Cd47 O46 2.385 . S
Cd47 O48 2.317 . S
O48 Cd47 2.317 . S
O48 C49 1.232 . S
C49 O48 1.232 . S
C49 O50 1.218 . S
O50 C49 1.218 . S
C51 O44 1.275 . S
C51 O46 1.255 . S
C52 O53 1.258 . S
C52 O54 1.256 . S
O53 Cd45 2.381 . S
O53 C52 1.258 . S
O54 Cd45 2.378 . S
O54 C52 1.256 . S
O55 Cd56 2.300 . S
O55 C62 1.275 . S
Cd56 O55 2.300 . S
Cd56 O64 2.381 1_556 S
Cd56 O65 2.378 1_556 S
O57 Cd58 2.385 . S
O57 C62 1.255 . S
Cd58 O57 2.385 . S
Cd58 O59 2.317 . S
O59 Cd58 2.317 . S
O59 C60 1.232 . S
C60 O59 1.232 . S
C60 O61 1.218 . S
O61 C60 1.218 . S
C62 O55 1.275 . S
C62 O57 1.255 . S
C63 O64 1.258 . S
C63 O65 1.256 . S
O64 Cd56 2.381 1_554 S
O64 C63 1.258 . S
O65 Cd56 2.378 1_554 S
O65 C63 1.256 . S
O66 Cd67 2.300 . S
O66 C73 1.275 . S
Cd67 O66 2.300 . S
Cd67 O75 2.381 . S
Cd67 O76 2.378 . S
O68 Cd69 2.385 . S
O68 C73 1.255 . S
Cd69 O68 2.385 . S
Cd69 O70 2.317 . S
O70 Cd69 2.317 . S
O70 C71 1.232 . S
C71 O70 1.232 . S
C71 O72 1.218 . S
O72 C71 1.218 . S
C73 O66 1.275 . S
C73 O68 1.255 . S
C74 O75 1.258 . S
C74 O76 1.256 . S
O75 Cd67 2.381 . S
O75 C74 1.258 . S
O76 Cd67 2.378 . S
O76 C74 1.256 . S
O77 Cd78 2.300 . S
O77 C84 1.275 . S
Cd78 O77 2.300 . S
Cd78 O86 2.381 . S
Cd78 O87 2.378 . S
O79 Cd80 2.385 . S
O79 C84 1.255 . S
Cd80 O79 2.385 . S
Cd80 O81 2.317 . S
O81 Cd80 2.317 . S
O81 C82 1.232 . S
C82 O81 1.232 . S
C82 O83 1.218 . S
O83 C82 1.218 . S
C84 O77 1.275 . S
C84 O79 1.255 . S
C85 O86 1.258 . S
C85 O87 1.256 . S
O86 Cd78 2.381 . S
O86 C85 1.258 . S
O87 Cd78 2.378 . S
O87 C85 1.256 . S
O88 Cd89 2.300 . S
O88 C95 1.275 . S
Cd89 O88 2.300 . S
Cd89 O97 2.381 1_554 S
Cd89 O98 2.378 1_554 S
O90 Cd91 2.385 . S
O90 C95 1.255 . S
Cd91 O90 2.385 . S
Cd91 O92 2.317 . S
O92 Cd91 2.317 . S
O92 C93 1.232 . S
C93 O92 1.232 . S
C93 O94 1.218 . S
O94 C93 1.218 . S
C95 O88 1.275 . S
C95 O90 1.255 . S
C96 O97 1.258 . S
C96 O98 1.256 . S
O97 Cd89 2.381 1_556 S
O97 C96 1.258 . S
O98 Cd89 2.378 1_556 S
O98 C96 1.256 . S
O99 Cd100 2.300 . S
O99 C106 1.275 . S
Cd100 O99 2.300 . S
Cd100 O108 2.381 . S
Cd100 O109 2.378 . S
O101 Cd102 2.385 . S
O101 C106 1.255 . S
Cd102 O101 2.385 . S
Cd102 O103 2.317 . S
O103 Cd102 2.317 . S
O103 C104 1.232 . S
C104 O103 1.232 . S
C104 O105 1.218 . S
O105 C104 1.218 . S
C106 O99 1.275 . S
C106 O101 1.255 . S
C107 O108 1.258 . S
C107 O109 1.256 . S
O108 Cd100 2.381 . S
O108 C107 1.258 . S
O109 Cd100 2.378 . S
O109 C107 1.256 . S
O110 Cd111 2.300 . S
O110 C117 1.275 . S
Cd111 O110 2.300 . S
Cd111 O119 2.381 . S
Cd111 O120 2.378 . S
O112 Cd113 2.385 . S
O112 C117 1.255 . S
Cd113 O112 2.385 . S
Cd113 O114 2.317 . S
O114 Cd113 2.317 . S
O114 C115 1.232 . S
C115 O114 1.232 . S
C115 O116 1.218 . S
O116 C115 1.218 . S
C117 O110 1.275 . S
C117 O112 1.255 . S
C118 O119 1.258 . S
C118 O120 1.256 . S
O119 Cd111 2.381 . S
O119 C118 1.258 . S
O120 Cd111 2.378 . S
O120 C118 1.256 . S
O121 Cd122 2.300 . S
O121 C128 1.275 . S
Cd122 O121 2.300 . S
Cd122 O130 2.381 . S
Cd122 O131 2.378 . S
O123 Cd124 2.385 . S
O123 C128 1.255 . S
Cd124 O123 2.385 . S
Cd124 O125 2.317 . S
O125 Cd124 2.317 . S
O125 C126 1.232 . S
C126 O125 1.232 . S
C126 O127 1.218 . S
O127 C126 1.218 . S
C128 O121 1.275 . S
C128 O123 1.255 . S
C129 O130 1.258 . S
C129 O131 1.256 . S
O130 Cd122 2.381 . S
O130 C129 1.258 . S
O131 Cd122 2.378 . S
O131 C129 1.256 . S
H132 C138 0.930 . S
H133 C141 0.930 . S
H134 C142 0.930 . S
H135 C143 0.930 . S
H136 C146 0.930 . S
H137 C147 0.930 . S
C138 H132 0.930 . S
C138 C139 1.355 . S
C138 C140 1.415 . S
C139 C138 1.355 . S
C139 C141 1.419 . S
C140 C138 1.415 . S
C140 C145 1.425 . S
C140 C147 1.409 . S
C141 H133 0.930 . S
C141 C139 1.419 . S
C141 C142 1.362 . S
C142 H134 0.930 . S
C142 C141 1.362 . S
C142 C145 1.409 . S
C143 H135 0.930 . S
C143 C144 1.355 . S
C143 C145 1.415 . S
C144 C143 1.355 . S
C144 C146 1.419 . S
C145 C140 1.425 . S
C145 C142 1.409 . S
C145 C143 1.415 . S
C146 H136 0.930 . S
C146 C144 1.419 . S
C146 C147 1.362 . S
C147 H137 0.930 . S
C147 C140 1.409 . S
C147 C146 1.362 . S
H148 C154 0.930 . S
H149 C157 0.930 . S
H150 C158 0.930 . S
H151 C159 0.930 . S
H152 C162 0.930 . S
H153 C163 0.930 . S
C154 H148 0.930 . S
C154 C155 1.355 . S
C154 C156 1.415 . S
C155 C154 1.355 . S
C155 C157 1.419 . S
C156 C154 1.415 . S
C156 C161 1.425 . S
C156 C163 1.409 . S
C157 H149 0.930 . S
C157 C155 1.419 . S
C157 C158 1.362 . S
C158 H150 0.930 . S
C158 C157 1.362 . S
C158 C161 1.409 . S
C159 H151 0.930 . S
C159 C160 1.355 . S
C159 C161 1.415 . S
C160 C159 1.355 . S
C160 C162 1.419 . S
C161 C156 1.425 . S
C161 C158 1.409 . S
C161 C159 1.415 . S
C162 H152 0.930 . S
C162 C160 1.419 . S
C162 C163 1.362 . S
C163 H153 0.930 . S
C163 C156 1.409 . S
C163 C162 1.362 . S
H164 C170 0.930 . S
H165 C173 0.930 . S
H166 C174 0.930 . S
H167 C175 0.930 . S
H168 C178 0.930 . S
H169 C179 0.930 . S
C170 H164 0.930 . S
C170 C171 1.355 . S
C170 C172 1.415 . S
C171 C170 1.355 . S
C171 C173 1.419 . S
C172 C170 1.415 . S
C172 C177 1.425 . S
C172 C179 1.409 . S
C173 H165 0.930 . S
C173 C171 1.419 . S
C173 C174 1.362 . S
C174 H166 0.930 . S
C174 C173 1.362 . S
C174 C177 1.409 . S
C175 H167 0.930 . S
C175 C176 1.355 . S
C175 C177 1.415 . S
C176 C175 1.355 . S
C176 C178 1.419 . S
C177 C172 1.425 . S
C177 C174 1.409 . S
C177 C175 1.415 . S
C178 H168 0.930 . S
C178 C176 1.419 . S
C178 C179 1.362 . S
C179 H169 0.930 . S
C179 C172 1.409 . S
C179 C178 1.362 . S
H180 C186 0.930 . S
H181 C189 0.930 . S
H182 C190 0.930 . S
H183 C191 0.930 . S
H184 C194 0.930 . S
H185 C195 0.930 . S
C186 H180 0.930 . S
C186 C187 1.355 . S
C186 C188 1.415 . S
C187 C186 1.355 . S
C187 C189 1.419 . S
C188 C186 1.415 . S
C188 C193 1.425 . S
C188 C195 1.409 . S
C189 H181 0.930 . S
C189 C187 1.419 . S
C189 C190 1.362 . S
C190 H182 0.930 . S
C190 C189 1.362 . S
C190 C193 1.409 . S
C191 H183 0.930 . S
C191 C192 1.355 . S
C191 C193 1.415 . S
C192 C191 1.355 . S
C192 C194 1.419 . S
C193 C188 1.425 . S
C193 C190 1.409 . S
C193 C191 1.415 . S
C194 H184 0.930 . S
C194 C192 1.419 . S
C194 C195 1.362 . S
C195 H185 0.930 . S
C195 C188 1.409 . S
C195 C194 1.362 . S
H196 C202 0.930 . S
H197 C205 0.930 . S
H198 C206 0.930 . S
H199 C207 0.930 . S
H200 C210 0.930 . S
H201 C211 0.930 . S
C202 H196 0.930 . S
C202 C203 1.355 . S
C202 C204 1.415 . S
C203 C202 1.355 . S
C203 C205 1.419 . S
C204 C202 1.415 . S
C204 C209 1.425 . S
C204 C211 1.409 . S
C205 H197 0.930 . S
C205 C203 1.419 . S
C205 C206 1.362 . S
C206 H198 0.930 . S
C206 C205 1.362 . S
C206 C209 1.409 . S
C207 H199 0.930 . S
C207 C208 1.355 . S
C207 C209 1.415 . S
C208 C207 1.355 . S
C208 C210 1.419 . S
C209 C204 1.425 . S
C209 C206 1.409 . S
C209 C207 1.415 . S
C210 H200 0.930 . S
C210 C208 1.419 . S
C210 C211 1.362 . S
C211 H201 0.930 . S
C211 C204 1.409 . S
C211 C210 1.362 . S
H212 C218 0.930 . S
H213 C221 0.930 . S
H214 C222 0.930 . S
H215 C223 0.930 . S
H216 C226 0.930 . S
H217 C227 0.930 . S
C218 H212 0.930 . S
C218 C219 1.355 . S
C218 C220 1.415 . S
C219 C218 1.355 . S
C219 C221 1.419 . S
C220 C218 1.415 . S
C220 C225 1.425 . S
C220 C227 1.409 . S
C221 H213 0.930 . S
C221 C219 1.419 . S
C221 C222 1.362 . S
C222 H214 0.930 . S
C222 C221 1.362 . S
C222 C225 1.409 . S
C223 H215 0.930 . S
C223 C224 1.355 . S
C223 C225 1.415 . S
C224 C223 1.355 . S
C224 C226 1.419 . S
C225 C220 1.425 . S
C225 C222 1.409 . S
C225 C223 1.415 . S
C226 H216 0.930 . S
C226 C224 1.419 . S
C226 C227 1.362 . S
C227 H217 0.930 . S
C227 C220 1.409 . S
C227 C226 1.362 . S
H228 C234 0.930 . S
H229 C237 0.930 . S
H230 C238 0.930 . S
H231 C239 0.930 . S
H232 C242 0.930 . S
H233 C243 0.930 . S
C234 H228 0.930 . S
C234 C235 1.355 . S
C234 C236 1.415 . S
C235 C234 1.355 . S
C235 C237 1.419 . S
C236 C234 1.415 . S
C236 C241 1.425 . S
C236 C243 1.409 . S
C237 H229 0.930 . S
C237 C235 1.419 . S
C237 C238 1.362 . S
C238 H230 0.930 . S
C238 C237 1.362 . S
C238 C241 1.409 . S
C239 H231 0.930 . S
C239 C240 1.355 . S
C239 C241 1.415 . S
C240 C239 1.355 . S
C240 C242 1.419 . S
C241 C236 1.425 . S
C241 C238 1.409 . S
C241 C239 1.415 . S
C242 H232 0.930 . S
C242 C240 1.419 . S
C242 C243 1.362 . S
C243 H233 0.930 . S
C243 C236 1.409 . S
C243 C242 1.362 . S
H244 C250 0.930 . S
H245 C253 0.930 . S
H246 C254 0.930 . S
H247 C255 0.930 . S
H248 C258 0.930 . S
H249 C259 0.930 . S
C250 H244 0.930 . S
C250 C251 1.355 . S
C250 C252 1.415 . S
C251 C250 1.355 . S
C251 C253 1.419 . S
C252 C250 1.415 . S
C252 C257 1.425 1_655 S
C252 C259 1.409 1_655 S
C253 H245 0.930 . S
C253 C251 1.419 . S
C253 C254 1.362 . S
C254 H246 0.930 . S
C254 C253 1.362 . S
C254 C257 1.409 1_655 S
C255 H247 0.930 . S
C255 C256 1.355 . S
C255 C257 1.415 . S
C256 C255 1.355 . S
C256 C258 1.419 . S
C257 C252 1.425 1_455 S
C257 C254 1.409 1_455 S
C257 C255 1.415 . S
C258 H248 0.930 . S
C258 C256 1.419 . S
C258 C259 1.362 . S
C259 H249 0.930 . S
C259 C252 1.409 1_455 S
C259 C258 1.362 . S
H260 C266 0.930 . S
H261 C269 0.930 . S
H262 C270 0.930 . S
H263 C271 0.930 . S
H264 C274 0.930 . S
H265 C275 0.930 . S
C266 H260 0.930 . S
C266 C267 1.355 . S
C266 C268 1.415 . S
C267 C266 1.355 . S
C267 C269 1.419 . S
C268 C266 1.415 . S
C268 C273 1.425 1_565 S
C268 C275 1.409 1_565 S
C269 H261 0.930 . S
C269 C267 1.419 . S
C269 C270 1.362 . S
C270 H262 0.930 . S
C270 C269 1.362 . S
C270 C273 1.409 1_565 S
C271 H263 0.930 . S
C271 C272 1.355 . S
C271 C273 1.415 . S
C272 C271 1.355 . S
C272 C274 1.419 . S
C273 C268 1.425 1_545 S
C273 C270 1.409 1_545 S
C273 C271 1.415 . S
C274 H264 0.930 . S
C274 C272 1.419 . S
C274 C275 1.362 . S
C275 H265 0.930 . S
C275 C268 1.409 1_545 S
C275 C274 1.362 . S
H276 C282 0.930 . S
H277 C285 0.930 . S
H278 C286 0.930 . S
H279 C287 0.930 . S
H280 C290 0.930 . S
H281 C291 0.930 . S
C282 H276 0.930 . S
C282 C283 1.355 . S
C282 C284 1.415 . S
C283 C282 1.355 . S
C283 C285 1.419 . S
C284 C282 1.415 . S
C284 C289 1.425 . S
C284 C291 1.409 . S
C285 H277 0.930 . S
C285 C283 1.419 . S
C285 C286 1.362 . S
C286 H278 0.930 . S
C286 C285 1.362 . S
C286 C289 1.409 . S
C287 H279 0.930 . S
C287 C288 1.355 . S
C287 C289 1.415 . S
C288 C287 1.355 . S
C288 C290 1.419 . S
C289 C284 1.425 . S
C289 C286 1.409 . S
C289 C287 1.415 . S
C290 H280 0.930 . S
C290 C288 1.419 . S
C290 C291 1.362 . S
C291 H281 0.930 . S
C291 C284 1.409 . S
C291 C290 1.362 . S
H292 C298 0.930 . S
H293 C301 0.930 . S
H294 C302 0.930 . S
H295 C303 0.930 . S
H296 C306 0.930 . S
H297 C307 0.930 . S
C298 H292 0.930 . S
C298 C299 1.355 . S
C298 C300 1.431 . S
C299 C298 1.355 . S
C299 C301 1.419 . S
C300 C298 1.431 . S
C300 C305 1.414 1_655 S
C300 C307 1.399 1_655 S
C301 H293 0.930 . S
C301 C299 1.419 . S
C301 C302 1.362 . S
C302 H294 0.930 . S
C302 C301 1.362 . S
C302 C305 1.399 1_655 S
C303 H295 0.930 . S
C303 C304 1.355 . S
C303 C305 1.431 . S
C304 C303 1.355 . S
C304 C306 1.419 . S
C305 C300 1.414 1_455 S
C305 C302 1.399 1_455 S
C305 C303 1.431 . S
C306 H296 0.930 . S
C306 C304 1.419 . S
C306 C307 1.362 . S
C307 H297 0.930 . S
C307 C300 1.399 1_455 S
C307 C306 1.362 . S
H308 C314 0.934 . S
H309 C317 0.930 . S
H310 C318 0.930 1_565 S
H311 C319 0.935 . S
H312 C322 0.930 . S
H313 C323 0.930 1_545 S
C314 H308 0.934 . S
C314 C315 1.348 1_554 S
C314 C316 1.417 . S
C315 C314 1.348 1_556 S
C315 C317 1.419 . S
C316 C314 1.417 . S
C316 C321 1.425 1_544 S
C316 C323 1.409 1_545 S
C317 H309 0.930 . S
C317 C315 1.419 . S
C317 C318 1.362 . S
C318 H310 0.930 1_545 S
C318 C317 1.362 . S
C318 C321 1.409 1_545 S
C319 H311 0.935 . S
C319 C320 1.346 1_556 S
C319 C321 1.418 . S
C320 C319 1.346 1_554 S
C320 C322 1.419 . S
C321 C316 1.425 1_566 S
C321 C318 1.409 1_565 S
C321 C319 1.418 . S
C322 H312 0.930 . S
C322 C320 1.419 . S
C322 C323 1.362 . S
C323 H313 0.930 1_565 S
C323 C316 1.409 1_565 S
C323 C322 1.362 . S
H324 C330 0.930 1_554 S
H325 C333 0.930 . S
H326 C334 0.930 . S
H327 C335 0.930 . S
H328 C338 0.930 . S
H329 C339 0.930 . S
C330 H324 0.930 1_556 S
C330 C331 1.355 . S
C330 C332 1.415 . S
C331 C330 1.355 . S
C331 C333 1.419 . S
C332 C330 1.415 . S
C332 C337 1.425 . S
C332 C339 1.409 . S
C333 H325 0.930 . S
C333 C331 1.419 . S
C333 C334 1.362 . S
C334 H326 0.930 . S
C334 C333 1.362 . S
C334 C337 1.409 . S
C335 H327 0.930 . S
C335 C336 1.355 . S
C335 C337 1.415 . S
C336 C335 1.355 . S
C336 C338 1.419 . S
C337 C332 1.425 . S
C337 C334 1.409 . S
C337 C335 1.415 . S
C338 H328 0.930 . S
C338 C336 1.419 . S
C338 C339 1.362 . S
C339 H329 0.930 . S
C339 C332 1.409 . S
C339 C338 1.362 . S
H340 C346 0.930 . S
H341 C349 0.930 . S
H342 C350 0.930 . S
H343 C351 0.930 . S
H344 C354 0.930 . S
H345 C355 0.930 . S
C346 H340 0.930 . S
C346 C347 1.355 . S
C346 C348 1.415 . S
C347 C346 1.355 . S
C347 C349 1.419 . S
C348 C346 1.415 . S
C348 C353 1.425 . S
C348 C355 1.409 . S
C349 H341 0.930 . S
C349 C347 1.419 . S
C349 C350 1.362 . S
C350 H342 0.930 . S
C350 C349 1.362 . S
C350 C353 1.409 . S
C351 H343 0.930 . S
C351 C352 1.355 . S
C351 C353 1.415 . S
C352 C351 1.355 . S
C352 C354 1.419 . S
C353 C348 1.425 . S
C353 C350 1.409 . S
C353 C351 1.415 . S
C354 H344 0.930 . S
C354 C352 1.419 . S
C354 C355 1.362 . S
C355 H345 0.930 . S
C355 C348 1.409 . S
C355 C354 1.362 . S
H356 C362 0.930 . S
H357 C365 0.930 . S
H358 C366 0.930 . S
H359 C367 0.930 . S
H360 C370 0.930 . S
H361 C371 0.930 . S
C362 H356 0.930 . S
C362 C363 1.355 . S
C362 C364 1.415 . S
C363 C362 1.355 . S
C363 C365 1.419 . S
C364 C362 1.415 . S
C364 C369 1.425 . S
C364 C371 1.409 . S
C365 H357 0.930 . S
C365 C363 1.419 . S
C365 C366 1.362 . S
C366 H358 0.930 . S
C366 C365 1.362 . S
C366 C369 1.409 . S
C367 H359 0.930 . S
C367 C368 1.355 . S
C367 C369 1.415 . S
C368 C367 1.355 . S
C368 C370 1.419 . S
C369 C364 1.425 . S
C369 C366 1.409 . S
C369 C367 1.415 . S
C370 H360 0.930 . S
C370 C368 1.419 . S
C370 C371 1.362 . S
C371 H361 0.930 . S
C371 C364 1.409 . S
C371 C370 1.362 . S
H372 C378 0.930 . S
H373 C381 0.930 . S
H374 C382 0.930 . S
H375 C383 0.930 . S
H376 C386 0.930 . S
H377 C387 0.930 . S
C378 H372 0.930 . S
C378 C379 1.355 . S
C378 C380 1.415 . S
C379 C378 1.355 . S
C379 C381 1.419 . S
C380 C378 1.415 . S
C380 C385 1.425 . S
C380 C387 1.409 . S
C381 H373 0.930 . S
C381 C379 1.419 . S
C381 C382 1.362 . S
C382 H374 0.930 . S
C382 C381 1.362 . S
C382 C385 1.409 . S
C383 H375 0.930 . S
C383 C384 1.355 . S
C383 C385 1.415 . S
C384 C383 1.355 . S
C384 C386 1.419 . S
C385 C380 1.425 . S
C385 C382 1.409 . S
C385 C383 1.415 . S
C386 H376 0.930 . S
C386 C384 1.419 . S
C386 C387 1.362 . S
C387 H377 0.930 . S
C387 C380 1.409 . S
C387 C386 1.362 . S
H388 C394 0.930 . S
H389 C397 0.930 . S
H390 C398 0.930 . S
H391 C399 0.930 . S
H392 C402 0.930 . S
H393 C403 0.930 . S
C394 H388 0.930 . S
C394 C395 1.355 . S
C394 C396 1.415 . S
C395 C394 1.355 . S
C395 C397 1.419 . S
C396 C394 1.415 . S
C396 C401 1.425 . S
C396 C403 1.409 . S
C397 H389 0.930 . S
C397 C395 1.419 . S
C397 C398 1.362 . S
C398 H390 0.930 . S
C398 C397 1.362 . S
C398 C401 1.409 . S
C399 H391 0.930 . S
C399 C400 1.355 . S
C399 C401 1.415 . S
C400 C399 1.355 . S
C400 C402 1.419 . S
C401 C396 1.425 . S
C401 C398 1.409 . S
C401 C399 1.415 . S
C402 H392 0.930 . S
C402 C400 1.419 . S
C402 C403 1.362 . S
C403 H393 0.930 . S
C403 C396 1.409 . S
C403 C402 1.362 . S
H404 C410 0.930 . S
H405 C413 0.930 . S
H406 C414 0.930 . S
H407 C415 0.930 . S
H408 C418 0.930 . S
H409 C419 0.930 . S
C410 H404 0.930 . S
C410 C411 1.355 . S
C410 C412 1.415 . S
C411 C410 1.355 . S
C411 C413 1.419 . S
C412 C410 1.415 . S
C412 C417 1.425 . S
C412 C419 1.409 . S
C413 H405 0.930 . S
C413 C411 1.419 . S
C413 C414 1.362 . S
C414 H406 0.930 . S
C414 C413 1.362 . S
C414 C417 1.409 . S
C415 H407 0.930 . S
C415 C416 1.355 . S
C415 C417 1.415 . S
C416 C415 1.355 . S
C416 C418 1.419 . S
C417 C412 1.425 . S
C417 C414 1.409 . S
C417 C415 1.415 . S
C418 H408 0.930 . S
C418 C416 1.419 . S
C418 C419 1.362 . S
C419 H409 0.930 . S
C419 C412 1.409 . S
C419 C418 1.362 . S
C139 C8 1.530 . S
C144 C118 1.521 . S
C155 C129 1.522 . S
C160 C19 1.527 . S
C171 C74 1.546 . S
C176 C30 1.524 . S
C187 C41 1.544 . S
C192 C85 1.522 . S
C203 C96 1.521 . S
C208 C52 1.541 . S
C219 C63 1.535 . S
C224 C107 1.520 . S
C235 C7 1.451 . S
C240 C106 1.435 . S
C251 C18 1.398 . S
C256 C117 1.409 . S
C267 C29 1.423 . S
C272 C128 1.440 . S
C283 C73 1.436 . S
C288 C40 1.452 . S
C299 C84 1.393 . S
C304 C51 1.399 . S
C315 C62 1.476 . S
C320 C95 1.470 . S
C331 C5 1.422 1_556 S
C336 C71 1.404 . S
C347 C82 1.392 1_554 S
C352 C16 1.413 . S
C363 C27 1.422 . S
C368 C93 1.404 . S
C379 C38 1.419 . S
C384 C104 1.401 . S
C395 C49 1.426 . S
C400 C115 1.431 . S
C411 C126 1.319 . S
C416 C60 1.302 . S
