# Generated by pormake.
# Topology gme, (4)-cn, num edge types: 1
# Building blocks:
#     Node 0, Type 0, BuildingBlock: CEKHIL_clean_sbu_0, # of connection points: 4
#     Node 1, Type 0, BuildingBlock: CEKHIL_clean_sbu_0, # of connection points: 4
#     Node 2, Type 0, BuildingBlock: CEKHIL_clean_sbu_0, # of connection points: 4
#     Node 3, Type 0, BuildingBlock: CEKHIL_clean_sbu_0, # of connection points: 4
#     Node 4, Type 0, BuildingBlock: CEKHIL_clean_sbu_0, # of connection points: 4
#     Node 5, Type 0, BuildingBlock: CEKHIL_clean_sbu_0, # of connection points: 4
#     Node 6, Type 0, BuildingBlock: CEKHIL_clean_sbu_0, # of connection points: 4
#     Node 7, Type 0, BuildingBlock: CEKHIL_clean_sbu_0, # of connection points: 4
#     Node 8, Type 0, BuildingBlock: CEKHIL_clean_sbu_0, # of connection points: 4
#     Node 9, Type 0, BuildingBlock: CEKHIL_clean_sbu_0, # of connection points: 4
#     Node 10, Type 0, BuildingBlock: CEKHIL_clean_sbu_0, # of connection points: 4
#     Node 11, Type 0, BuildingBlock: CEKHIL_clean_sbu_0, # of connection points: 4
#     Node 12, Type 0, BuildingBlock: CEKHIL_clean_sbu_0, # of connection points: 4
#     Node 13, Type 0, BuildingBlock: CEKHIL_clean_sbu_0, # of connection points: 4
#     Node 14, Type 0, BuildingBlock: CEKHIL_clean_sbu_0, # of connection points: 4
#     Node 15, Type 0, BuildingBlock: CEKHIL_clean_sbu_0, # of connection points: 4
#     Node 16, Type 0, BuildingBlock: CEKHIL_clean_sbu_0, # of connection points: 4
#     Node 17, Type 0, BuildingBlock: CEKHIL_clean_sbu_0, # of connection points: 4
#     Node 18, Type 0, BuildingBlock: CEKHIL_clean_sbu_0, # of connection points: 4
#     Node 19, Type 0, BuildingBlock: CEKHIL_clean_sbu_0, # of connection points: 4
#     Node 20, Type 0, BuildingBlock: CEKHIL_clean_sbu_0, # of connection points: 4
#     Node 21, Type 0, BuildingBlock: CEKHIL_clean_sbu_0, # of connection points: 4
#     Node 22, Type 0, BuildingBlock: CEKHIL_clean_sbu_0, # of connection points: 4
#     Node 23, Type 0, BuildingBlock: CEKHIL_clean_sbu_0, # of connection points: 4
#     Edge 24, Type (0, 0), BuildingBlock: ZUJKAS_clean_linker_0, # of connection points: 2
#     Edge 25, Type (0, 0), BuildingBlock: ZUJKAS_clean_linker_0, # of connection points: 2
#     Edge 26, Type (0, 0), BuildingBlock: ZUJKAS_clean_linker_0, # of connection points: 2
#     Edge 27, Type (0, 0), BuildingBlock: ZUJKAS_clean_linker_0, # of connection points: 2
#     Edge 28, Type (0, 0), BuildingBlock: ZUJKAS_clean_linker_0, # of connection points: 2
#     Edge 29, Type (0, 0), BuildingBlock: ZUJKAS_clean_linker_0, # of connection points: 2
#     Edge 30, Type (0, 0), BuildingBlock: ZUJKAS_clean_linker_0, # of connection points: 2
#     Edge 31, Type (0, 0), BuildingBlock: ZUJKAS_clean_linker_0, # of connection points: 2
#     Edge 32, Type (0, 0), BuildingBlock: ZUJKAS_clean_linker_0, # of connection points: 2
#     Edge 33, Type (0, 0), BuildingBlock: ZUJKAS_clean_linker_0, # of connection points: 2
#     Edge 34, Type (0, 0), BuildingBlock: ZUJKAS_clean_linker_0, # of connection points: 2
#     Edge 35, Type (0, 0), BuildingBlock: ZUJKAS_clean_linker_0, # of connection points: 2
#     Edge 36, Type (0, 0), BuildingBlock: ZUJKAS_clean_linker_0, # of connection points: 2
#     Edge 37, Type (0, 0), BuildingBlock: ZUJKAS_clean_linker_0, # of connection points: 2
#     Edge 38, Type (0, 0), BuildingBlock: ZUJKAS_clean_linker_0, # of connection points: 2
#     Edge 39, Type (0, 0), BuildingBlock: ZUJKAS_clean_linker_0, # of connection points: 2
#     Edge 40, Type (0, 0), BuildingBlock: ZUJKAS_clean_linker_0, # of connection points: 2
#     Edge 41, Type (0, 0), BuildingBlock: ZUJKAS_clean_linker_0, # of connection points: 2
#     Edge 42, Type (0, 0), BuildingBlock: ZUJKAS_clean_linker_0, # of connection points: 2
#     Edge 43, Type (0, 0), BuildingBlock: ZUJKAS_clean_linker_0, # of connection points: 2
#     Edge 44, Type (0, 0), BuildingBlock: ZUJKAS_clean_linker_0, # of connection points: 2
#     Edge 45, Type (0, 0), BuildingBlock: ZUJKAS_clean_linker_0, # of connection points: 2
#     Edge 46, Type (0, 0), BuildingBlock: ZUJKAS_clean_linker_0, # of connection points: 2
#     Edge 47, Type (0, 0), BuildingBlock: ZUJKAS_clean_linker_0, # of connection points: 2
#     Edge 48, Type (0, 0), BuildingBlock: ZUJKAS_clean_linker_0, # of connection points: 2
#     Edge 49, Type (0, 0), BuildingBlock: ZUJKAS_clean_linker_0, # of connection points: 2
#     Edge 50, Type (0, 0), BuildingBlock: ZUJKAS_clean_linker_0, # of connection points: 2
#     Edge 51, Type (0, 0), BuildingBlock: ZUJKAS_clean_linker_0, # of connection points: 2
#     Edge 52, Type (0, 0), BuildingBlock: ZUJKAS_clean_linker_0, # of connection points: 2
#     Edge 53, Type (0, 0), BuildingBlock: ZUJKAS_clean_linker_0, # of connection points: 2
#     Edge 54, Type (0, 0), BuildingBlock: ZUJKAS_clean_linker_0, # of connection points: 2
#     Edge 55, Type (0, 0), BuildingBlock: ZUJKAS_clean_linker_0, # of connection points: 2
#     Edge 56, Type (0, 0), BuildingBlock: ZUJKAS_clean_linker_0, # of connection points: 2
#     Edge 57, Type (0, 0), BuildingBlock: ZUJKAS_clean_linker_0, # of connection points: 2
#     Edge 58, Type (0, 0), BuildingBlock: ZUJKAS_clean_linker_0, # of connection points: 2
#     Edge 59, Type (0, 0), BuildingBlock: ZUJKAS_clean_linker_0, # of connection points: 2
#     Edge 60, Type (0, 0), BuildingBlock: ZUJKAS_clean_linker_0, # of connection points: 2
#     Edge 61, Type (0, 0), BuildingBlock: ZUJKAS_clean_linker_0, # of connection points: 2
#     Edge 62, Type (0, 0), BuildingBlock: ZUJKAS_clean_linker_0, # of connection points: 2
#     Edge 63, Type (0, 0), BuildingBlock: ZUJKAS_clean_linker_0, # of connection points: 2
#     Edge 64, Type (0, 0), BuildingBlock: ZUJKAS_clean_linker_0, # of connection points: 2
#     Edge 65, Type (0, 0), BuildingBlock: ZUJKAS_clean_linker_0, # of connection points: 2
#     Edge 66, Type (0, 0), BuildingBlock: ZUJKAS_clean_linker_0, # of connection points: 2
#     Edge 67, Type (0, 0), BuildingBlock: ZUJKAS_clean_linker_0, # of connection points: 2
#     Edge 68, Type (0, 0), BuildingBlock: ZUJKAS_clean_linker_0, # of connection points: 2
#     Edge 69, Type (0, 0), BuildingBlock: ZUJKAS_clean_linker_0, # of connection points: 2
#     Edge 70, Type (0, 0), BuildingBlock: ZUJKAS_clean_linker_0, # of connection points: 2
#     Edge 71, Type (0, 0), BuildingBlock: ZUJKAS_clean_linker_0, # of connection points: 2
# Relax obj value: 0.071
# Max RMSD: 0.095
# Mean RMSD: 0.095
data_MOF--net-gme--node1-CEKHIL_clean_sbu_0--edge1-ZUJKAS_clean_linker_0
_symmetry_space_group_name_H-M    P1
_symmetry_Int_Tables_number       1
_symmetry_cell_setting            triclinic
loop_
_symmetry_equiv_pos_as_xyz
'x, y, z'
_cell_length_a     69.913596
_cell_length_b     69.890124
_cell_length_c     73.350773
_cell_angle_alpha  90.002315
_cell_angle_beta   89.997416
_cell_angle_gamma 119.97213
loop_
_atom_site_label
_atom_site_type_symbol
_atom_site_fract_x
_atom_site_fract_y
_atom_site_fract_z
_atom_type_partial_charge
Co0 Co 0.38828 0.05963 0.12047 0.0
O1 O 0.39259 0.06372 0.09465 0.0
O2 O 0.37257 0.03128 0.10802 0.0
C3 C 0.38097 0.08729 0.12461 0.0
O4 O 0.37966 0.04968 0.14701 0.0
Co5 Co 0.41976 0.09736 0.14653 0.0
O6 O 0.39548 0.08061 0.16405 0.0
C7 C 0.43489 0.06912 0.12917 0.0
C8 C 0.38013 0.04255 0.09299 0.0
C9 C 0.38185 0.06006 0.16212 0.0
O10 O 0.4155 0.05673 0.12248 0.0
O11 O 0.44022 0.08674 0.13827 0.0
O12 O 0.36543 0.06793 0.11941 0.0
O13 O 0.40048 0.08968 0.12564 0.0
Co14 Co 0.3258 0.39126 0.62034 0.0
O15 O 0.3238 0.39382 0.59449 0.0
O16 O 0.33889 0.37609 0.60768 0.0
C17 C 0.29057 0.38214 0.62634 0.0
O18 O 0.32988 0.38497 0.64694 0.0
Co19 Co 0.31959 0.42414 0.6449 0.0
O20 O 0.32191 0.40637 0.66485 0.0
C21 C 0.361 0.43971 0.62454 0.0
C22 C 0.33364 0.38241 0.59269 0.0
C23 C 0.32734 0.39159 0.66273 0.0
O24 O 0.3552 0.41962 0.62044 0.0
O25 O 0.34819 0.44509 0.6327 0.0
O26 O 0.29516 0.36708 0.62123 0.0
O27 O 0.30692 0.40213 0.62595 0.0
Co28 Co 0.93557 0.32583 0.12186 0.0
O29 O 0.93131 0.32679 0.09613 0.0
O30 O 0.9638 0.33869 0.10925 0.0
C31 C 0.90789 0.29078 0.12562 0.0
O32 O 0.9457 0.32644 0.14821 0.0
Co33 Co 0.89784 0.31889 0.14833 0.0
O34 O 0.9151 0.31175 0.16566 0.0
C35 C 0.92517 0.36223 0.13065 0.0
C36 C 0.95247 0.33549 0.09433 0.0
C37 C 0.93557 0.3184 0.16344 0.0
O38 O 0.93842 0.35591 0.12462 0.0
O39 O 0.90728 0.34938 0.13918 0.0
O40 O 0.92715 0.29463 0.1201 0.0
O41 O 0.90563 0.30793 0.12713 0.0
Co42 Co 0.60975 0.93634 0.62102 0.0
O43 O 0.60421 0.93158 0.59534 0.0
O44 O 0.62444 0.96439 0.60807 0.0
C45 C 0.61799 0.90923 0.62482 0.0
O46 O 0.61952 0.94702 0.64725 0.0
Co47 Co 0.5803 0.89875 0.64811 0.0
O48 O 0.60502 0.91664 0.66495 0.0
C49 C 0.56296 0.92521 0.63075 0.0
C50 C 0.61635 0.95274 0.59328 0.0
C51 C 0.61818 0.93722 0.66251 0.0
O52 O 0.58213 0.93846 0.62399 0.0
O53 O 0.55866 0.90772 0.63964 0.0
O54 O 0.63302 0.92859 0.61913 0.0
O55 O 0.59844 0.90654 0.62656 0.0
Co56 Co 0.67188 0.61082 0.12244 0.0
O57 O 0.67083 0.60512 0.09678 0.0
O58 O 0.65944 0.62636 0.10959 0.0
C59 C 0.70669 0.61757 0.12629 0.0
O60 O 0.67143 0.62105 0.14852 0.0
Co61 Co 0.67818 0.58061 0.14991 0.0
O62 O 0.68656 0.606 0.16642 0.0
C63 C 0.6345 0.56511 0.13301 0.0
C64 C 0.66247 0.61788 0.0948 0.0
C65 C 0.67985 0.6197 0.16378 0.0
O66 O 0.64159 0.5841 0.12546 0.0
O67 O 0.6468 0.5601 0.14243 0.0
O68 O 0.70315 0.6331 0.12051 0.0
O69 O 0.68936 0.59833 0.12813 0.0
Co70 Co 0.05958 0.67175 0.62164 0.0
O71 O 0.06373 0.67115 0.59585 0.0
O72 O 0.03121 0.65826 0.60919 0.0
C73 C 0.08665 0.70711 0.62535 0.0
O74 O 0.04947 0.67065 0.6481 0.0
Co75 Co 0.09772 0.67987 0.64805 0.0
O76 O 0.08025 0.68681 0.6653 0.0
C77 C 0.0708 0.636 0.63093 0.0
C78 C 0.04251 0.66197 0.59418 0.0
C79 C 0.0596 0.67925 0.66321 0.0
O80 O 0.05764 0.64205 0.62421 0.0
O81 O 0.08834 0.64906 0.63979 0.0
O82 O 0.06712 0.70272 0.62008 0.0
O83 O 0.0895 0.69031 0.62677 0.0
Co84 Co 0.93645 0.60916 0.38456 0.0
O85 O 0.93174 0.60321 0.4102 0.0
O86 O 0.96437 0.62461 0.39757 0.0
C87 C 0.90835 0.61592 0.38078 0.0
O88 O 0.94713 0.61955 0.35845 0.0
Co89 Co 0.89974 0.57907 0.35707 0.0
O90 O 0.91698 0.60432 0.34048 0.0
C91 C 0.92778 0.56334 0.37401 0.0
C92 C 0.95281 0.61599 0.41231 0.0
C93 C 0.93738 0.61804 0.34314 0.0
O94 O 0.94004 0.58244 0.38128 0.0
O95 O 0.91025 0.55838 0.36493 0.0
O96 O 0.92737 0.63142 0.38667 0.0
O97 O 0.90655 0.59675 0.37885 0.0
Co98 Co 0.32693 0.93698 0.88335 0.0
O99 O 0.32801 0.93237 0.90901 0.0
O100 O 0.3402 0.96508 0.8962 0.0
C101 C 0.2917 0.90962 0.87978 0.0
O102 O 0.32751 0.94751 0.85713 0.0
Co103 Co 0.319 0.89943 0.85628 0.0
O104 O 0.3117 0.91706 0.8395 0.0
C105 C 0.36272 0.92605 0.87366 0.0
C106 C 0.3369 0.95353 0.91101 0.0
C107 C 0.31894 0.93761 0.84193 0.0
O108 O 0.35675 0.93936 0.88021 0.0
O109 O 0.34957 0.90843 0.86491 0.0
O110 O 0.29587 0.92895 0.88543 0.0
O111 O 0.30866 0.90713 0.87791 0.0
Co112 Co 0.38772 0.32562 0.38496 0.0
O113 O 0.38985 0.32472 0.41092 0.0
O114 O 0.37152 0.33837 0.3965 0.0
C115 C 0.38006 0.2906 0.38039 0.0
O116 O 0.38151 0.328 0.35796 0.0
Co117 Co 0.42151 0.31971 0.36148 0.0
O118 O 0.39958 0.31427 0.34211 0.0
C119 C 0.43566 0.36188 0.3804 0.0
C120 C 0.37766 0.3338 0.41191 0.0
C121 C 0.38555 0.32083 0.34305 0.0
O122 O 0.41543 0.35554 0.3844 0.0
O123 O 0.44168 0.34931 0.37267 0.0
O124 O 0.36437 0.29459 0.38473 0.0
O125 O 0.39973 0.30748 0.38063 0.0
Co126 Co 0.05959 0.38707 0.88515 0.0
O127 O 0.06382 0.39115 0.91097 0.0
O128 O 0.03124 0.3721 0.89762 0.0
C129 C 0.08641 0.37857 0.88083 0.0
O130 O 0.04947 0.37886 0.85862 0.0
Co131 Co 0.09785 0.41771 0.85907 0.0
O132 O 0.08033 0.39371 0.84148 0.0
C133 C 0.07074 0.43422 0.87651 0.0
C134 C 0.0426 0.37923 0.91265 0.0
C135 C 0.05965 0.38072 0.84346 0.0
O136 O 0.05781 0.41494 0.88321 0.0
O137 O 0.08825 0.43893 0.86749 0.0
O138 O 0.06685 0.36344 0.88602 0.0
O139 O 0.08947 0.39834 0.87992 0.0
Co140 Co 0.67077 0.06118 0.38461 0.0
O141 O 0.67212 0.0648 0.41055 0.0
O142 O 0.65877 0.03257 0.39661 0.0
C143 C 0.70547 0.08894 0.37942 0.0
O144 O 0.66781 0.05183 0.35774 0.0
Co145 Co 0.67547 0.10019 0.36064 0.0
O146 O 0.67695 0.08205 0.34064 0.0
C147 C 0.63321 0.07101 0.37905 0.0
C148 C 0.66334 0.04358 0.41186 0.0
C149 C 0.67161 0.06181 0.3422 0.0
O150 O 0.64051 0.05829 0.38437 0.0
O151 O 0.64507 0.0892 0.37055 0.0
O152 O 0.70201 0.06952 0.38404 0.0
O153 O 0.68832 0.09128 0.37973 0.0
Co154 Co 0.60786 0.67076 0.88615 0.0
O155 O 0.60247 0.66985 0.91184 0.0
O156 O 0.62257 0.65729 0.89875 0.0
C157 C 0.61607 0.70608 0.88241 0.0
O158 O 0.61761 0.66998 0.85997 0.0
Co159 Co 0.5783 0.67879 0.85913 0.0
O160 O 0.60335 0.68625 0.84243 0.0
C161 C 0.56102 0.63508 0.87659 0.0
C162 C 0.61461 0.66077 0.91365 0.0
C163 C 0.61653 0.67886 0.8449 0.0
O164 O 0.58028 0.64104 0.88315 0.0
O165 O 0.55659 0.64823 0.86777 0.0
O166 O 0.6311 0.70174 0.88809 0.0
O167 O 0.5965 0.68924 0.88069 0.0
Co168 Co 0.61127 0.93809 0.88316 0.0
O169 O 0.60555 0.93329 0.90881 0.0
O170 O 0.62609 0.96608 0.89614 0.0
C171 C 0.61913 0.91071 0.87938 0.0
O172 O 0.6213 0.94888 0.857 0.0
Co173 Co 0.58183 0.90087 0.85579 0.0
O174 O 0.6068 0.91865 0.83911 0.0
C175 C 0.56468 0.92742 0.87331 0.0
C176 C 0.61784 0.95443 0.9109 0.0
C177 C 0.62005 0.93917 0.84171 0.0
O178 O 0.58388 0.94056 0.88007 0.0
O179 O 0.56027 0.90993 0.86438 0.0
O180 O 0.63426 0.92997 0.88516 0.0
O181 O 0.5997 0.90828 0.8775 0.0
Co182 Co 0.67005 0.60921 0.38307 0.0
O183 O 0.66946 0.60441 0.40883 0.0
O184 O 0.65787 0.62525 0.39558 0.0
C185 C 0.70477 0.61577 0.37904 0.0
O186 O 0.66925 0.61857 0.35674 0.0
Co187 Co 0.67567 0.57777 0.35651 0.0
O188 O 0.68371 0.60246 0.3393 0.0
C189 C 0.63235 0.56312 0.37374 0.0
C190 C 0.66122 0.6173 0.41054 0.0
C191 C 0.6773 0.61646 0.34154 0.0
O192 O 0.63964 0.58245 0.38068 0.0
O193 O 0.64445 0.55763 0.36457 0.0
O194 O 0.70135 0.63151 0.38447 0.0
O195 O 0.68739 0.59649 0.37771 0.0
Co196 Co 0.06118 0.67135 0.88524 0.0
O197 O 0.06531 0.67058 0.911 0.0
O198 O 0.03286 0.65843 0.89775 0.0
C199 C 0.08874 0.70645 0.88149 0.0
O200 O 0.05123 0.67051 0.85878 0.0
Co201 Co 0.09922 0.67843 0.85908 0.0
O202 O 0.08202 0.68541 0.84155 0.0
C203 C 0.07147 0.63486 0.8763 0.0
C204 C 0.04414 0.6618 0.91273 0.0
C205 C 0.06149 0.67854 0.84359 0.0
O206 O 0.05849 0.64134 0.88266 0.0
O207 O 0.08931 0.64762 0.86766 0.0
O208 O 0.06938 0.7025 0.88683 0.0
O209 O 0.09116 0.68938 0.88013 0.0
Co210 Co 0.38857 0.06227 0.38541 0.0
O211 O 0.39105 0.0659 0.41134 0.0
O212 O 0.37262 0.03362 0.39739 0.0
C213 C 0.38075 0.08943 0.38034 0.0
O214 O 0.382 0.05291 0.35859 0.0
Co215 Co 0.42183 0.10119 0.36107 0.0
O216 O 0.3996 0.08418 0.34204 0.0
C217 C 0.43649 0.07398 0.3807 0.0
C218 C 0.37901 0.04464 0.41264 0.0
C219 C 0.38569 0.06361 0.34344 0.0
O220 O 0.41632 0.06016 0.38495 0.0
O221 O 0.44229 0.09225 0.37249 0.0
O222 O 0.36516 0.06986 0.38506 0.0
O223 O 0.40046 0.09228 0.3805 0.0
Co224 Co 0.32291 0.38776 0.88578 0.0
O225 O 0.32188 0.3886 0.9118 0.0
O226 O 0.33636 0.3717 0.89638 0.0
C227 C 0.28762 0.37928 0.88143 0.0
O228 O 0.32545 0.38301 0.85847 0.0
Co229 Co 0.31604 0.4223 0.86427 0.0
O230 O 0.31225 0.40229 0.84372 0.0
C231 C 0.35831 0.43634 0.88281 0.0
C232 C 0.33144 0.37684 0.91211 0.0
C233 C 0.31882 0.38822 0.84382 0.0
O234 O 0.35247 0.41598 0.88578 0.0
O235 O 0.34534 0.44238 0.8759 0.0
O236 O 0.29215 0.36379 0.88515 0.0
O237 O 0.30411 0.39915 0.88231 0.0
Co238 Co 0.93742 0.32674 0.3836 0.0
O239 O 0.93289 0.32869 0.40917 0.0
O240 O 0.96535 0.33893 0.39656 0.0
C241 C 0.90894 0.29204 0.3802 0.0
O242 O 0.94787 0.32628 0.35754 0.0
Co243 Co 0.90082 0.32025 0.35603 0.0
O244 O 0.91761 0.31139 0.3397 0.0
C245 C 0.92965 0.36427 0.37227 0.0
C246 C 0.95392 0.33666 0.41126 0.0
C247 C 0.93796 0.3178 0.34233 0.0
O248 O 0.94156 0.3572 0.37986 0.0
O249 O 0.91208 0.3518 0.3632 0.0
O250 O 0.92786 0.29535 0.38614 0.0
O251 O 0.90743 0.30956 0.37802 0.0
Co252 Co 0.06113 0.38826 0.61999 0.0
O253 O 0.06486 0.39302 0.59417 0.0
O254 O 0.03257 0.37335 0.60784 0.0
C255 C 0.0882 0.3799 0.62337 0.0
O256 O 0.05144 0.37943 0.64653 0.0
Co257 Co 0.0998 0.41833 0.64601 0.0
O258 O 0.08242 0.3942 0.66351 0.0
C259 C 0.07261 0.43528 0.62935 0.0
C260 C 0.04361 0.38106 0.59273 0.0
C261 C 0.06173 0.38118 0.66161 0.0
O262 O 0.05929 0.41605 0.62273 0.0
O263 O 0.09032 0.43974 0.63795 0.0
O264 O 0.06861 0.36479 0.61823 0.0
O265 O 0.0911 0.39956 0.62479 0.0
Co266 Co 0.67135 0.05961 0.12073 0.0
O267 O 0.67359 0.06439 0.0949 0.0
O268 O 0.65921 0.03153 0.10793 0.0
C269 C 0.70606 0.08664 0.12709 0.0
O270 O 0.66728 0.04893 0.14722 0.0
Co271 Co 0.6756 0.09763 0.14568 0.0
O272 O 0.67368 0.07753 0.1655 0.0
C273 C 0.63527 0.0716 0.12415 0.0
C274 C 0.66435 0.04318 0.093 0.0
C275 C 0.6692 0.05764 0.16311 0.0
O276 O 0.64143 0.05745 0.1206 0.0
O277 O 0.64764 0.08991 0.13232 0.0
O278 O 0.70242 0.06733 0.12185 0.0
O279 O 0.68914 0.08935 0.12666 0.0
Co280 Co 0.61135 0.67175 0.62037 0.0
O281 O 0.60566 0.67132 0.59477 0.0
O282 O 0.62614 0.65878 0.60715 0.0
C283 C 0.61921 0.70686 0.62476 0.0
O284 O 0.62138 0.67043 0.64633 0.0
Co285 Co 0.58179 0.67876 0.64812 0.0
O286 O 0.60669 0.68553 0.66476 0.0
C287 C 0.56478 0.63552 0.62992 0.0
C288 C 0.61785 0.66238 0.59251 0.0
C289 C 0.62006 0.6785 0.66177 0.0
O290 O 0.584 0.64185 0.6231 0.0
O291 O 0.56025 0.64828 0.63921 0.0
O292 O 0.63435 0.70284 0.61877 0.0
O293 O 0.59975 0.68985 0.62647 0.0
Co294 Co 0.93792 0.61053 0.12217 0.0
O295 O 0.93355 0.60556 0.09643 0.0
O296 O 0.96611 0.62598 0.10949 0.0
C297 C 0.9102 0.61783 0.1261 0.0
O298 O 0.94813 0.61984 0.14856 0.0
Co299 Co 0.90029 0.57972 0.14872 0.0
O300 O 0.91748 0.60424 0.16595 0.0
C301 C 0.92792 0.56388 0.13123 0.0
C302 C 0.95469 0.61806 0.09458 0.0
C303 C 0.93799 0.61788 0.16376 0.0
O304 O 0.94081 0.5833 0.12473 0.0
O305 O 0.91021 0.55888 0.14004 0.0
O306 O 0.92946 0.63331 0.12064 0.0
O307 O 0.90799 0.59844 0.12752 0.0
Co308 Co 0.32486 0.93474 0.62079 0.0
O309 O 0.32559 0.93059 0.59502 0.0
O310 O 0.33843 0.96312 0.60836 0.0
C311 C 0.28946 0.90782 0.62453 0.0
O312 O 0.3259 0.94484 0.64722 0.0
Co313 Co 0.31668 0.89646 0.64708 0.0
O314 O 0.31015 0.91409 0.66449 0.0
C315 C 0.36051 0.92332 0.62997 0.0
C316 C 0.33482 0.95183 0.59335 0.0
C317 C 0.31756 0.93473 0.6624 0.0
O318 O 0.35451 0.93662 0.62346 0.0
O319 O 0.34738 0.90564 0.63866 0.0
O320 O 0.29397 0.92735 0.61916 0.0
O321 O 0.30618 0.90483 0.62592 0.0
Co322 Co 0.39101 0.32583 0.11972 0.0
O323 O 0.39566 0.32662 0.09392 0.0
O324 O 0.3755 0.3388 0.10744 0.0
C325 C 0.3833 0.29069 0.12351 0.0
O326 O 0.38228 0.3267 0.14628 0.0
Co327 Co 0.42259 0.31888 0.14523 0.0
O328 O 0.39893 0.31231 0.16323 0.0
C329 C 0.43818 0.36201 0.12741 0.0
C330 C 0.38331 0.33548 0.09238 0.0
C331 C 0.38502 0.31892 0.16141 0.0
O332 O 0.41836 0.35579 0.12215 0.0
O333 O 0.44357 0.34912 0.13546 0.0
O334 O 0.36796 0.29478 0.11826 0.0
O335 O 0.40288 0.30766 0.12462 0.0
H336 H 0.37196 0.02066 0.33321 0.0
H337 H 0.35941 0.00461 0.30262 0.0
H338 H 0.36208 0.06472 0.28489 0.0
H339 H 0.37445 0.08066 0.31507 0.0
H340 H 0.32445 0.02424 0.27134 0.0
H341 H 0.40561 0.0288 0.26026 0.0
H342 H 0.38905 0.01372 0.27959 0.0
H343 H 0.40152 0.04322 0.2789 0.0
C344 C 0.36936 0.03019 0.32287 0.0
C345 C 0.37444 0.052 0.32644 0.0
C346 C 0.36233 0.02107 0.3054 0.0
C347 C 0.36008 0.0336 0.29143 0.0
C348 C 0.36373 0.05477 0.29543 0.0
H349 H 0.36533 0.0749 0.18826 0.0
H350 H 0.35362 0.05999 0.21877 0.0
C351 C 0.3709 0.0639 0.31268 0.0
C352 C 0.35615 0.02616 0.27214 0.0
H353 H 0.38469 0.02581 0.23451 0.0
C354 C 0.33731 0.02391 0.26331 0.0
C355 C 0.37285 0.02556 0.26168 0.0
C356 C 0.39348 0.028 0.27046 0.0
C357 C 0.33556 0.02283 0.24421 0.0
C358 C 0.35329 0.02451 0.23368 0.0
C359 C 0.37113 0.02461 0.24257 0.0
C360 C 0.35581 0.03056 0.21403 0.0
C361 C 0.31519 0.02102 0.23548 0.0
C362 C 0.36072 0.01889 0.20097 0.0
C363 C 0.36743 0.02746 0.18331 0.0
C364 C 0.36975 0.04803 0.17868 0.0
C365 C 0.36364 0.05898 0.19145 0.0
C366 C 0.35675 0.05036 0.2089 0.0
H367 H 0.30044 0.01127 0.2442 0.0
H368 H 0.31737 0.03779 0.23396 0.0
H369 H 0.31209 0.01318 0.22182 0.0
H370 H 0.36036 0.00371 0.20469 0.0
H371 H 0.37229 0.01882 0.17379 0.0
H372 H 0.34998 0.41513 0.69198 0.0
H373 H 0.35133 0.40149 0.72212 0.0
H374 H 0.31482 0.33442 0.70242 0.0
H375 H 0.31341 0.34829 0.67179 0.0
H376 H 0.29553 0.34048 0.73191 0.0
H377 H 0.38329 0.37528 0.74817 0.0
H378 H 0.37954 0.39675 0.7386 0.0
H379 H 0.37363 0.37291 0.72497 0.0
C380 C 0.34276 0.39747 0.69392 0.0
C381 C 0.33158 0.38275 0.67959 0.0
C382 C 0.34373 0.38967 0.71115 0.0
C383 C 0.33352 0.36691 0.71456 0.0
C384 C 0.32309 0.35206 0.70006 0.0
H385 H 0.33857 0.3636 0.83462 0.0
H386 H 0.34071 0.3502 0.80403 0.0
C387 C 0.32234 0.35996 0.68258 0.0
C388 C 0.33103 0.35932 0.73382 0.0
H389 H 0.35972 0.37462 0.77386 0.0
C390 C 0.30961 0.34727 0.74103 0.0
C391 C 0.34929 0.36753 0.74584 0.0
C392 C 0.37271 0.3786 0.73891 0.0
C393 C 0.30599 0.34571 0.75994 0.0
C394 C 0.3242 0.35693 0.77189 0.0
C395 C 0.34567 0.36647 0.76475 0.0
C396 C 0.3213 0.36255 0.79088 0.0
C397 C 0.28256 0.33318 0.76686 0.0
C398 C 0.30987 0.37403 0.79364 0.0
C399 C 0.30865 0.38163 0.81089 0.0
C400 C 0.31908 0.37826 0.82596 0.0
C401 C 0.33029 0.36641 0.82334 0.0
C402 C 0.33152 0.35876 0.80588 0.0
H403 H 0.27228 0.31872 0.75801 0.0
H404 H 0.28176 0.32734 0.78107 0.0
H405 H 0.27527 0.3441 0.76644 0.0
H406 H 0.30245 0.37785 0.78228 0.0
H407 H 0.29983 0.39062 0.81226 0.0
H408 H 0.91975 0.28879 0.191 0.0
H409 H 0.93636 0.29189 0.22079 0.0
H410 H 0.99557 0.35033 0.20312 0.0
H411 H 0.97876 0.34737 0.17298 0.0
H412 H 0.97612 0.29508 0.23453 0.0
H413 H 0.972 0.372 0.24536 0.0
H414 H 0.95814 0.35383 0.22642 0.0
H415 H 0.98765 0.37082 0.22637 0.0
C416 C 0.93649 0.30208 0.19329 0.0
C417 C 0.94784 0.31803 0.17975 0.0
C418 C 0.94602 0.30377 0.21033 0.0
C419 C 0.96706 0.32152 0.2143 0.0
C420 C 0.97918 0.33664 0.2004 0.0
H421 H 0.97991 0.34856 0.33165 0.0
H422 H 0.99603 0.35132 0.30126 0.0
C423 C 0.96964 0.33486 0.18317 0.0
C424 C 0.97454 0.32507 0.23358 0.0
H425 H 0.97486 0.35411 0.2711 0.0
C426 C 0.97653 0.30836 0.2425 0.0
C427 C 0.97527 0.34248 0.24398 0.0
C428 C 0.97309 0.36082 0.23517 0.0
C429 C 0.97731 0.30761 0.26161 0.0
C430 C 0.97569 0.32376 0.27205 0.0
C431 C 0.976 0.34167 0.2631 0.0
C432 C 0.96914 0.32018 0.29159 0.0
C433 C 0.97867 0.28885 0.27045 0.0
C434 C 0.94899 0.30156 0.29639 0.0
C435 C 0.93977 0.30008 0.31355 0.0
C436 C 0.95049 0.31715 0.32634 0.0
C437 C 0.97143 0.33506 0.3221 0.0
C438 C 0.98059 0.33668 0.30474 0.0
H439 H 0.98844 0.2837 0.26191 0.0
H440 H 0.98627 0.29346 0.28421 0.0
H441 H 0.96179 0.27441 0.2718 0.0
H442 H 0.93953 0.28887 0.28642 0.0
H443 H 0.92359 0.28611 0.31644 0.0
H444 H 0.63434 0.92315 0.68961 0.0
H445 H 0.64689 0.93978 0.71956 0.0
H446 H 0.64244 0.99651 0.70255 0.0
H447 H 0.62955 0.97966 0.67228 0.0
H448 H 0.68098 0.98042 0.73404 0.0
H449 H 0.59685 0.9692 0.74417 0.0
H450 H 0.60299 0.95688 0.72511 0.0
H451 H 0.61325 0.98609 0.72549 0.0
C452 C 0.63649 0.9394 0.69208 0.0
C453 C 0.63068 0.94998 0.6787 0.0
C454 C 0.64376 0.94894 0.7092 0.0
C455 C 0.64523 0.9692 0.71342 0.0
C456 C 0.64113 0.9807 0.69965 0.0
H457 H 0.62855 0.98026 0.83078 0.0
H458 H 0.64125 0.99654 0.80033 0.0
C459 C 0.63395 0.97117 0.68233 0.0
C460 C 0.64835 0.9763 0.7328 0.0
H461 H 0.61798 0.9739 0.77008 0.0
C462 C 0.66747 0.97966 0.74189 0.0
C463 C 0.63078 0.97545 0.74306 0.0
C464 C 0.60972 0.97163 0.73408 0.0
C465 C 0.66874 0.98039 0.76102 0.0
C466 C 0.6503 0.97734 0.7713 0.0
C467 C 0.63209 0.97617 0.76219 0.0
C468 C 0.64759 0.97089 0.79086 0.0
C469 C 0.68938 0.98327 0.77006 0.0
C470 C 0.64743 0.95141 0.79578 0.0
C471 C 0.64005 0.94208 0.81296 0.0
C472 C 0.63273 0.95205 0.82567 0.0
C473 C 0.63436 0.97239 0.8213 0.0
C474 C 0.64152 0.98164 0.80391 0.0
H475 H 0.70417 0.99369 0.76157 0.0
H476 H 0.69179 0.9909 0.78376 0.0
H477 H 0.68811 0.96688 0.77159 0.0
H478 H 0.65149 0.94249 0.78588 0.0
H479 H 0.6389 0.92635 0.81595 0.0
H480 H 0.64904 0.6317 0.3324 0.0
H481 H 0.64631 0.64607 0.30243 0.0
H482 H 0.70372 0.64369 0.28416 0.0
H483 H 0.7066 0.62964 0.31377 0.0
H484 H 0.70134 0.68118 0.27098 0.0
H485 H 0.62363 0.60095 0.25991 0.0
H486 H 0.62539 0.61779 0.27911 0.0
H487 H 0.64181 0.60464 0.27869 0.0
C488 C 0.66139 0.63484 0.32211 0.0
C489 C 0.67784 0.62927 0.3253 0.0
C490 C 0.65973 0.64291 0.30499 0.0
C491 C 0.67463 0.64562 0.29099 0.0
C492 C 0.69203 0.64169 0.29473 0.0
H493 H 0.71076 0.63647 0.1903 0.0
H494 H 0.70758 0.65012 0.21998 0.0
C495 C 0.69358 0.63354 0.31165 0.0
C496 C 0.67112 0.64985 0.27181 0.0
H497 H 0.64217 0.62136 0.23421 0.0
C498 C 0.68801 0.66845 0.26296 0.0
C499 C 0.65362 0.63335 0.26136 0.0
C500 C 0.63505 0.61298 0.27012 0.0
C501 C 0.68894 0.66996 0.24386 0.0
C502 C 0.67279 0.65227 0.23339 0.0
C503 C 0.65462 0.63488 0.24225 0.0
C504 C 0.67669 0.649 0.21403 0.0
C505 C 0.70796 0.68989 0.23507 0.0
C506 C 0.66054 0.64408 0.20057 0.0
C507 C 0.6624 0.63625 0.18342 0.0
C508 C 0.68017 0.63279 0.1797 0.0
C509 C 0.69689 0.63897 0.1928 0.0
C510 C 0.69518 0.647 0.20975 0.0
H511 H 0.71314 0.70489 0.24352 0.0
H512 H 0.7223 0.68723 0.234 0.0
H513 H 0.70363 0.69288 0.2212 0.0
H514 H 0.646 0.64523 0.20366 0.0
H515 H 0.64918 0.6314 0.17361 0.0
H516 H 0.0185 0.64699 0.67453 0.0
H517 H 0.00273 0.64355 0.70519 0.0
H518 H 0.05783 0.70717 0.7196 0.0
H519 H 0.07341 0.71061 0.68933 0.0
H520 H 0.02487 0.64208 0.73539 0.0
H521 H 0.00774 0.71027 0.74414 0.0
H522 H 0.01024 0.70058 0.7219 0.0
H523 H 0.03448 0.72039 0.73415 0.0
C524 C 0.02674 0.66055 0.68407 0.0
C525 C 0.04719 0.67905 0.6796 0.0
C526 C 0.01778 0.65854 0.70158 0.0
C527 C 0.02894 0.67522 0.71467 0.0
C528 C 0.04859 0.6943 0.70969 0.0
H529 H 0.07703 0.70827 0.81611 0.0
H530 H 0.06093 0.70459 0.78598 0.0
C531 C 0.05761 0.69618 0.69239 0.0
C532 C 0.02256 0.67162 0.73425 0.0
H533 H 0.02062 0.69976 0.77159 0.0
C534 C 0.0231 0.6542 0.74331 0.0
C535 C 0.02013 0.68737 0.74458 0.0
C536 C 0.01788 0.70555 0.73562 0.0
C537 C 0.02379 0.65353 0.76245 0.0
C538 C 0.02361 0.67057 0.77275 0.0
C539 C 0.02089 0.68676 0.76371 0.0
C540 C 0.0307 0.6743 0.79214 0.0
C541 C 0.02683 0.63577 0.7714 0.0
C542 C 0.01863 0.65899 0.80593 0.0
C543 C 0.02786 0.66114 0.82336 0.0
C544 C 0.04931 0.67852 0.82708 0.0
C545 C 0.06056 0.69459 0.8136 0.0
C546 C 0.05133 0.69255 0.79637 0.0
H547 H 0.02863 0.62494 0.76129 0.0
H548 H 0.04168 0.64334 0.78028 0.0
H549 H 0.0123 0.62532 0.7801 0.0
H550 H 0.00256 0.64491 0.803 0.0
H551 H 0.01884 0.64849 0.83348 0.0
H552 H 0.98059 0.63035 0.17391 0.0
H553 H 0.99686 0.64322 0.20436 0.0
H554 H 0.93876 0.64532 0.221 0.0
H555 H 0.92271 0.6328 0.19089 0.0
H556 H 0.97857 0.68012 0.23583 0.0
H557 H 0.97046 0.59719 0.24572 0.0
H558 H 0.98726 0.61414 0.22721 0.0
H559 H 0.95789 0.60285 0.22656 0.0
C560 C 0.97166 0.63422 0.18393 0.0
C561 C 0.95028 0.6303 0.18014 0.0
C562 C 0.98086 0.64139 0.20135 0.0
C563 C 0.96883 0.64484 0.21506 0.0
C564 C 0.94833 0.6427 0.2107 0.0
H565 H 0.92373 0.63583 0.31707 0.0
H566 H 0.94009 0.64896 0.28714 0.0
C567 C 0.93913 0.63545 0.19348 0.0
C568 C 0.97571 0.648 0.2345 0.0
H569 H 0.97388 0.61778 0.27171 0.0
C570 C 0.97821 0.66677 0.24366 0.0
C571 C 0.9754 0.63066 0.24472 0.0
C572 C 0.97253 0.60998 0.23567 0.0
C573 C 0.97857 0.66784 0.26279 0.0
C574 C 0.97603 0.64955 0.27301 0.0
C575 C 0.97575 0.63177 0.26386 0.0
C576 C 0.96921 0.64643 0.29248 0.0
C577 C 0.98049 0.68807 0.27189 0.0
C578 C 0.98026 0.64094 0.30568 0.0
C579 C 0.9709 0.63348 0.32299 0.0
C580 C 0.95012 0.63096 0.32713 0.0
C581 C 0.93978 0.63767 0.31426 0.0
C582 C 0.94923 0.64535 0.29716 0.0
H583 H 0.9906 0.70306 0.26352 0.0
H584 H 0.96379 0.68609 0.27328 0.0
H585 H 0.98798 0.69062 0.28566 0.0
H586 H 0.99556 0.64138 0.30229 0.0
H587 H 0.97907 0.62817 0.3326 0.0
H588 H 0.35099 0.97884 0.83077 0.0
H589 H 0.3541 0.99485 0.80026 0.0
H590 H 0.29022 0.93999 0.78613 0.0
H591 H 0.28712 0.92416 0.81626 0.0
H592 H 0.35519 0.9726 0.77008 0.0
H593 H 0.28732 0.99022 0.76164 0.0
H594 H 0.29709 0.9877 0.78384 0.0
H595 H 0.27709 0.96348 0.77167 0.0
C596 C 0.3373 0.97073 0.82134 0.0
C597 C 0.31884 0.95025 0.82582 0.0
C598 C 0.33911 0.97982 0.80392 0.0
C599 C 0.32228 0.96878 0.79094 0.0
C600 C 0.3032 0.94914 0.79597 0.0
H601 H 0.28806 0.91977 0.69008 0.0
H602 H 0.29212 0.93639 0.72003 0.0
C603 C 0.30152 0.93998 0.81318 0.0
C604 C 0.32578 0.97513 0.77136 0.0
H605 H 0.29741 0.97695 0.73415 0.0
C606 C 0.34306 0.97442 0.76221 0.0
C607 C 0.31001 0.97759 0.7611 0.0
C608 C 0.29198 0.98003 0.77014 0.0
C609 C 0.34354 0.97355 0.74309 0.0
C610 C 0.32646 0.97374 0.73286 0.0
C611 C 0.31043 0.97667 0.74197 0.0
C612 C 0.32248 0.96639 0.71355 0.0
C613 C 0.36111 0.97028 0.73407 0.0
C614 C 0.3377 0.97817 0.69962 0.0
C615 C 0.33536 0.96864 0.68231 0.0
C616 C 0.31786 0.94718 0.67883 0.0
C617 C 0.30186 0.93623 0.69242 0.0
C618 C 0.3041 0.94576 0.70954 0.0
H619 H 0.37199 0.96848 0.74414 0.0
H620 H 0.35339 0.95534 0.72529 0.0
H621 H 0.37156 0.9847 0.72526 0.0
H622 H 0.35187 0.99425 0.70238 0.0
H623 H 0.34794 0.97744 0.67209 0.0
H624 H 0.37592 0.29268 0.31477 0.0
H625 H 0.3638 0.29556 0.28433 0.0
H626 H 0.35817 0.35163 0.30127 0.0
H627 H 0.37058 0.34889 0.33214 0.0
H628 H 0.3258 0.29614 0.27 0.0
H629 H 0.40454 0.37548 0.25945 0.0
H630 H 0.40113 0.35761 0.27842 0.0
H631 H 0.38704 0.37315 0.27833 0.0
C632 C 0.37182 0.30547 0.31215 0.0
C633 C 0.3745 0.32075 0.32579 0.0
C634 C 0.36477 0.30702 0.29474 0.0
C635 C 0.36036 0.32397 0.29044 0.0
C636 C 0.36173 0.33856 0.30427 0.0
H637 H 0.373 0.34911 0.17236 0.0
H638 H 0.36022 0.35202 0.20299 0.0
C639 C 0.36867 0.3369 0.32189 0.0
C640 C 0.35645 0.32704 0.27103 0.0
H641 H 0.38481 0.35653 0.23355 0.0
C642 C 0.33836 0.30969 0.26205 0.0
C643 C 0.37273 0.3448 0.26065 0.0
C644 C 0.39254 0.36385 0.26958 0.0
C645 C 0.33708 0.30872 0.24293 0.0
C646 C 0.35454 0.32531 0.23254 0.0
C647 C 0.37148 0.34375 0.24151 0.0
C648 C 0.35792 0.32183 0.21307 0.0
C649 C 0.31762 0.2893 0.23405 0.0
C650 C 0.3605 0.30376 0.20847 0.0
C651 C 0.3679 0.3022 0.19119 0.0
C652 C 0.3729 0.31865 0.17804 0.0
C653 C 0.36906 0.33609 0.18218 0.0
C654 C 0.36185 0.3378 0.19967 0.0
H655 H 0.30251 0.28343 0.24249 0.0
H656 H 0.31438 0.29351 0.22022 0.0
H657 H 0.32103 0.27545 0.23284 0.0
H658 H 0.35814 0.29151 0.21861 0.0
H659 H 0.3707 0.28857 0.18839 0.0
H660 H 0.0207 0.37281 0.67267 0.0
H661 H 0.00523 0.362 0.70358 0.0
H662 H 0.06016 0.35369 0.71902 0.0
H663 H 0.07554 0.36439 0.68843 0.0
H664 H 0.01807 0.32157 0.73481 0.0
H665 H 0.03877 0.40912 0.74398 0.0
H666 H 0.02072 0.39356 0.72552 0.0
H667 H 0.04918 0.4007 0.72495 0.0
C668 C 0.02903 0.36797 0.68252 0.0
C669 C 0.04941 0.36962 0.67824 0.0
C670 C 0.02029 0.36197 0.70019 0.0
C671 C 0.03174 0.35737 0.71366 0.0
C672 C 0.05107 0.35722 0.70887 0.0
H673 H 0.07191 0.36093 0.81813 0.0
H674 H 0.05699 0.34979 0.78748 0.0
C675 C 0.05988 0.36339 0.69139 0.0
C676 C 0.02559 0.3554 0.73322 0.0
H677 H 0.0315 0.38765 0.77016 0.0
C678 C 0.02041 0.33583 0.74252 0.0
C679 C 0.02863 0.37401 0.74328 0.0
C680 C 0.03473 0.39562 0.73405 0.0
C681 C 0.01955 0.33483 0.76167 0.0
C682 C 0.02436 0.35397 0.77174 0.0
C683 C 0.02777 0.37296 0.76242 0.0
C684 C 0.02994 0.35608 0.79146 0.0
C685 C 0.01447 0.31356 0.77096 0.0
C686 C 0.01948 0.36298 0.80411 0.0
C687 C 0.02794 0.36918 0.82183 0.0
C688 C 0.04725 0.36906 0.82693 0.0
C689 C 0.05693 0.36106 0.81456 0.0
C690 C 0.04832 0.35456 0.79705 0.0
H691 H 0.00368 0.29906 0.76231 0.0
H692 H 0.0301 0.31346 0.77331 0.0
H693 H 0.00628 0.31178 0.78433 0.0
H694 H 0.00544 0.36455 0.8 0.0
H695 H 0.02038 0.37561 0.83103 0.0
H696 H 0.67838 0.02662 0.33523 0.0
H697 H 0.67689 0.01004 0.30507 0.0
H698 H 0.65682 0.05326 0.28049 0.0
H699 H 0.6584 0.06976 0.30998 0.0
H700 H 0.63239 0.00019 0.27145 0.0
H701 H 0.72287 0.05358 0.26061 0.0
H702 H 0.7114 0.04048 0.28226 0.0
H703 H 0.7092 0.06386 0.27515 0.0
C704 C 0.67337 0.03229 0.32339 0.0
C705 C 0.66873 0.04964 0.32494 0.0
C706 C 0.67258 0.02287 0.30623 0.0
C707 C 0.66681 0.03054 0.29062 0.0
C708 C 0.66133 0.04716 0.29237 0.0
H709 H 0.6436 0.05478 0.19147 0.0
H710 H 0.64187 0.03898 0.2214 0.0
C711 C 0.66235 0.05663 0.30926 0.0
C712 C 0.66744 0.02272 0.27199 0.0
H713 H 0.70009 0.04225 0.23424 0.0
C714 C 0.64733 0.00862 0.26335 0.0
C715 C 0.68694 0.03361 0.26147 0.0
C716 C 0.70893 0.04869 0.27026 0.0
C717 C 0.64587 0.00701 0.24425 0.0
C718 C 0.6649 0.0202 0.23363 0.0
C719 C 0.68545 0.03222 0.24235 0.0
C720 C 0.66314 0.02581 0.21439 0.0
C721 C 0.62365 0.99245 0.2356 0.0
C722 C 0.6756 0.02361 0.20033 0.0
C723 C 0.67643 0.03256 0.18298 0.0
C724 C 0.66527 0.04428 0.17973 0.0
C725 C 0.65226 0.04573 0.19362 0.0
C726 C 0.65113 0.03654 0.2107 0.0
H727 H 0.61342 0.97773 0.24422 0.0
H728 H 0.61475 0.00183 0.23436 0.0
H729 H 0.62533 0.9869 0.22181 0.0
H730 H 0.68526 0.01569 0.20296 0.0
H731 H 0.6868 0.0315 0.17252 0.0
H732 H 0.61462 0.64247 0.68021 0.0
H733 H 0.62516 0.6425 0.71215 0.0
H734 H 0.66341 0.71364 0.71123 0.0
H735 H 0.65227 0.71363 0.67958 0.0
H736 H 0.66514 0.66335 0.73675 0.0
H737 H 0.60766 0.69631 0.74334 0.0
H738 H 0.61037 0.68418 0.7225 0.0
H739 H 0.63082 0.71193 0.72855 0.0
C740 C 0.62614 0.658 0.6866 0.0
C741 C 0.63273 0.67805 0.67756 0.0
C742 C 0.63211 0.65802 0.70484 0.0
C743 C 0.64481 0.67809 0.71409 0.0
C744 C 0.6535 0.698 0.70434 0.0
H745 H 0.6447 0.71466 0.82543 0.0
H746 H 0.6573 0.71473 0.79434 0.0
C747 C 0.64724 0.69799 0.68627 0.0
C748 C 0.64501 0.67855 0.73429 0.0
H749 H 0.62433 0.69356 0.77014 0.0
C750 C 0.65634 0.67003 0.74412 0.0
C751 C 0.63318 0.68693 0.74383 0.0
C752 C 0.61964 0.69518 0.73407 0.0
C753 C 0.65657 0.67023 0.76336 0.0
C754 C 0.64499 0.67896 0.77282 0.0
C755 C 0.63352 0.68721 0.76289 0.0
C756 C 0.64356 0.6793 0.79301 0.0
C757 C 0.66936 0.6614 0.77336 0.0
C758 C 0.63273 0.6595 0.80299 0.0
C759 C 0.62591 0.65953 0.82097 0.0
C760 C 0.62954 0.67932 0.82898 0.0
C761 C 0.64188 0.69925 0.81952 0.0
C762 C 0.64903 0.69927 0.80177 0.0
H763 H 0.68201 0.66097 0.76446 0.0
H764 H 0.67763 0.67154 0.7856 0.0
H765 H 0.6578 0.64428 0.77793 0.0
H766 H 0.62791 0.64384 0.79644 0.0
H767 H 0.61606 0.64393 0.82794 0.0
H768 H 0.34204 0.08746 0.12178 0.0
H769 H 0.33647 0.11924 0.12535 0.0
H770 H 0.40531 0.16048 0.13891 0.0
H771 H 0.41094 0.12887 0.13562 0.0
H772 H 0.37614 0.16762 0.16109 0.0
H773 H 0.35965 0.16891 0.08694 0.0
H774 H 0.34238 0.14338 0.09869 0.0
H775 H 0.37133 0.15303 0.0961 0.0
C776 C 0.35592 0.10327 0.12569 0.0
C777 C 0.37697 0.10576 0.12825 0.0
C778 C 0.35273 0.12139 0.12765 0.0
C779 C 0.37056 0.14223 0.13211 0.0
C780 C 0.39136 0.14453 0.1354 0.0
H781 H 0.41247 0.27865 0.13592 0.0
H782 H 0.40614 0.24128 0.14007 0.0
C783 C 0.39456 0.12646 0.13346 0.0
C784 C 0.36804 0.16202 0.13255 0.0
H785 H 0.36023 0.19689 0.10501 0.0
C786 C 0.37243 0.17393 0.14889 0.0
C787 C 0.36316 0.17014 0.11659 0.0
C788 C 0.359 0.15836 0.09853 0.0
C789 C 0.37256 0.19405 0.14962 0.0
C790 C 0.36853 0.20258 0.13351 0.0
C791 C 0.36327 0.19024 0.11734 0.0
C792 C 0.37157 0.22508 0.13267 0.0
C793 C 0.37724 0.20612 0.16756 0.0
C794 C 0.35427 0.22837 0.12694 0.0
C795 C 0.35788 0.24976 0.12445 0.0
C796 C 0.37891 0.26816 0.12747 0.0
C797 C 0.39607 0.2648 0.13353 0.0
C798 C 0.39244 0.24346 0.13605 0.0
H799 H 0.37311 0.19464 0.17928 0.0
H800 H 0.3951 0.21848 0.16838 0.0
H801 H 0.36779 0.21495 0.16886 0.0
H802 H 0.33809 0.21437 0.1241 0.0
H803 H 0.34435 0.25186 0.11975 0.0
H804 H 0.13015 0.4093 0.6337 0.0
H805 H 0.16086 0.40257 0.63803 0.0
H806 H 0.11793 0.3334 0.6264 0.0
H807 H 0.08699 0.34011 0.62171 0.0
H808 H 0.16666 0.37456 0.66185 0.0
H809 H 0.16785 0.35212 0.58913 0.0
H810 H 0.15232 0.36488 0.59675 0.0
H811 H 0.14228 0.33614 0.60118 0.0
C812 C 0.12716 0.39261 0.63214 0.0
C813 C 0.10621 0.37525 0.62719 0.0
C814 C 0.14473 0.38879 0.63467 0.0
C815 C 0.14173 0.36755 0.63231 0.0
C816 C 0.12065 0.34999 0.62798 0.0
H817 H 0.2525 0.34216 0.62452 0.0
H818 H 0.21464 0.3349 0.62869 0.0
C819 C 0.10301 0.35382 0.62538 0.0
C820 C 0.16108 0.36435 0.63372 0.0
H821 H 0.19595 0.35448 0.60805 0.0
C822 C 0.17293 0.36987 0.65017 0.0
C823 C 0.16915 0.35816 0.61847 0.0
C824 C 0.15739 0.35261 0.60032 0.0
C825 C 0.19306 0.37012 0.65158 0.0
C826 C 0.20167 0.36502 0.63607 0.0
C827 C 0.18927 0.35838 0.61992 0.0
C828 C 0.22442 0.36865 0.63567 0.0
C829 C 0.20513 0.37626 0.66957 0.0
C830 C 0.24241 0.38999 0.6383 0.0
C831 C 0.26397 0.39417 0.63591 0.0
C832 C 0.26792 0.37711 0.63071 0.0
C833 C 0.24993 0.35561 0.62857 0.0
C834 C 0.22833 0.35144 0.63093 0.0
H835 H 0.19355 0.37253 0.68115 0.0
H836 H 0.21441 0.36738 0.67169 0.0
H837 H 0.21706 0.39427 0.66973 0.0
H838 H 0.23977 0.40361 0.64153 0.0
H839 H 0.27748 0.41092 0.6376 0.0
H840 H 0.90609 0.25128 0.11929 0.0
H841 H 0.87358 0.2142 0.12207 0.0
H842 H 0.83564 0.24271 0.14277 0.0
H843 H 0.86776 0.27962 0.13987 0.0
H844 H 0.84372 0.19066 0.15282 0.0
H845 H 0.80322 0.20885 0.09563 0.0
H846 H 0.83243 0.22534 0.10024 0.0
H847 H 0.81293 0.22903 0.11358 0.0
C848 C 0.89087 0.24958 0.12463 0.0
C849 C 0.88935 0.26833 0.12914 0.0
C850 C 0.87238 0.22843 0.12623 0.0
C851 C 0.8522 0.22584 0.13235 0.0
C852 C 0.85101 0.24445 0.13776 0.0
H853 H 0.71658 0.12686 0.1407 0.0
H854 H 0.75329 0.15928 0.14356 0.0
C855 C 0.86939 0.26552 0.13611 0.0
C856 C 0.83193 0.20394 0.13203 0.0
H857 H 0.78078 0.17637 0.11271 0.0
C858 C 0.82998 0.18738 0.14398 0.0
C859 C 0.81418 0.19977 0.12033 0.0
C860 C 0.81579 0.21659 0.10659 0.0
C861 C 0.81026 0.16695 0.14507 0.0
C862 C 0.79229 0.16311 0.13378 0.0
C863 C 0.79454 0.17948 0.12148 0.0
C864 C 0.77063 0.14255 0.13466 0.0
C865 C 0.80848 0.14994 0.15864 0.0
C866 C 0.76828 0.12227 0.12908 0.0
C867 C 0.74725 0.10363 0.12748 0.0
C868 C 0.72832 0.10513 0.13126 0.0
C869 C 0.73084 0.12522 0.1376 0.0
C870 C 0.7518 0.14375 0.13926 0.0
H871 H 0.82217 0.15705 0.16873 0.0
H872 H 0.79251 0.14266 0.16604 0.0
H873 H 0.80911 0.1364 0.15128 0.0
H874 H 0.78261 0.1211 0.12519 0.0
H875 H 0.74577 0.08835 0.1225 0.0
H876 H 0.59076 0.71848 0.63939 0.0
H877 H 0.59561 0.7555 0.64161 0.0
H878 H 0.66152 0.7833 0.61995 0.0
H879 H 0.65689 0.74613 0.6178 0.0
H880 H 0.65495 0.80777 0.65077 0.0
H881 H 0.59679 0.78753 0.59283 0.0
H882 H 0.58662 0.76769 0.61105 0.0
H883 H 0.61007 0.77167 0.59797 0.0
C884 C 0.60641 0.73247 0.63531 0.0
C885 C 0.62335 0.72942 0.62819 0.0
C886 C 0.60913 0.75358 0.63658 0.0
C887 C 0.62878 0.772 0.63069 0.0
C888 C 0.64622 0.76921 0.6245 0.0
H889 H 0.65628 0.90849 0.61862 0.0
H890 H 0.66164 0.87643 0.62104 0.0
C891 C 0.64352 0.74801 0.62326 0.0
C892 C 0.63023 0.7938 0.62974 0.0
H893 H 0.6062 0.82032 0.60928 0.0
C894 C 0.64451 0.81069 0.6416 0.0
C895 C 0.61669 0.79748 0.61762 0.0
C896 C 0.6018 0.78023 0.60401 0.0
C897 C 0.6448 0.83096 0.6422 0.0
C898 C 0.63062 0.83426 0.63055 0.0
C899 C 0.61693 0.81761 0.6183 0.0
C900 C 0.62875 0.8544 0.63124 0.0
C901 C 0.6596 0.84835 0.65571 0.0
C902 C 0.60857 0.85258 0.6363 0.0
C903 C 0.60544 0.87071 0.63484 0.0
C904 C 0.62241 0.89099 0.62821 0.0
C905 C 0.64293 0.89305 0.6238 0.0
C906 C 0.64605 0.87482 0.62525 0.0
H907 H 0.66696 0.84191 0.66569 0.0
H908 H 0.67321 0.86238 0.64828 0.0
H909 H 0.65023 0.85482 0.66324 0.0
H910 H 0.59501 0.83692 0.6409 0.0
H911 H 0.58947 0.86861 0.63842 0.0
H912 H 0.74631 0.65486 0.11956 0.0
H913 H 0.78318 0.65887 0.12176 0.0
H914 H 0.75432 0.59247 0.14262 0.0
H915 H 0.71756 0.58824 0.14031 0.0
H916 H 0.80707 0.65242 0.15199 0.0
H917 H 0.78698 0.59305 0.09501 0.0
H918 H 0.77083 0.60607 0.09993 0.0
H919 H 0.76727 0.58296 0.11331 0.0
C920 C 0.74788 0.64123 0.12482 0.0
C921 C 0.72906 0.62113 0.12954 0.0
C922 C 0.76892 0.64356 0.12609 0.0
C923 C 0.77135 0.62583 0.13207 0.0
C924 C 0.7527 0.60621 0.1377 0.0
H925 H 0.86987 0.58842 0.13967 0.0
H926 H 0.83757 0.59293 0.14237 0.0
C927 C 0.73173 0.60384 0.13639 0.0
C928 C 0.7931 0.62715 0.13139 0.0
H929 H 0.81988 0.60307 0.11146 0.0
C930 C 0.81002 0.64181 0.14305 0.0
C931 C 0.79684 0.61338 0.11957 0.0
C932 C 0.77961 0.59811 0.10611 0.0
C933 C 0.83039 0.64235 0.14372 0.0
C934 C 0.83382 0.62805 0.1323 0.0
C935 C 0.81709 0.61388 0.1203 0.0
C936 C 0.85427 0.62675 0.13285 0.0
C937 C 0.84781 0.65763 0.15701 0.0
C938 C 0.87447 0.64444 0.12687 0.0
C939 C 0.89305 0.64191 0.12532 0.0
C940 C 0.89157 0.62161 0.1296 0.0
C941 C 0.87151 0.60424 0.13619 0.0
C942 C 0.85304 0.60678 0.13777 0.0
H943 H 0.84112 0.66457 0.16716 0.0
H944 H 0.85501 0.64882 0.16437 0.0
H945 H 0.86133 0.67154 0.14942 0.0
H946 H 0.87564 0.65986 0.12274 0.0
H947 H 0.90829 0.65555 0.12016 0.0
H948 H 0.25102 0.90892 0.62119 0.0
H949 H 0.21328 0.87815 0.6256 0.0
H950 H 0.23909 0.83569 0.64048 0.0
H951 H 0.27665 0.86625 0.63635 0.0
H952 H 0.19445 0.83897 0.60641 0.0
H953 H 0.19348 0.82216 0.68017 0.0
H954 H 0.21414 0.84768 0.66989 0.0
H955 H 0.21679 0.82337 0.66884 0.0
C956 C 0.24862 0.8931 0.62567 0.0
C957 C 0.26677 0.88997 0.62843 0.0
C958 C 0.22708 0.87557 0.62819 0.0
C959 C 0.22341 0.85475 0.63366 0.0
C960 C 0.24155 0.85175 0.63671 0.0
H961 H 0.12859 0.71964 0.63579 0.0
H962 H 0.1596 0.75712 0.63914 0.0
C963 C 0.26302 0.8692 0.63419 0.0
C964 C 0.20074 0.83555 0.6346 0.0
H965 H 0.16628 0.7923 0.6618 0.0
C966 C 0.18803 0.82898 0.61861 0.0
C967 C 0.19246 0.8226 0.65055 0.0
C968 C 0.20485 0.82943 0.66838 0.0
C969 C 0.16789 0.80902 0.61779 0.0
C970 C 0.16012 0.79554 0.63352 0.0
C971 C 0.17231 0.80266 0.64976 0.0
C972 C 0.14063 0.77303 0.63286 0.0
C973 C 0.15577 0.80192 0.59984 0.0
C974 C 0.11954 0.76955 0.62862 0.0
C975 C 0.10173 0.74806 0.62658 0.0
C976 C 0.10478 0.72979 0.62888 0.0
C977 C 0.12573 0.73337 0.63384 0.0
C978 C 0.14347 0.75479 0.63582 0.0
H979 H 0.16604 0.81224 0.5883 0.0
H980 H 0.15053 0.78439 0.59691 0.0
H981 H 0.14073 0.80344 0.60055 0.0
H982 H 0.11694 0.78343 0.6266 0.0
H983 H 0.08572 0.74577 0.62288 0.0
H984 H 0.90521 0.65263 0.3884 0.0
H985 H 0.87216 0.65629 0.38575 0.0
H986 H 0.8363 0.59095 0.36257 0.0
H987 H 0.86897 0.58704 0.36536 0.0
H988 H 0.84304 0.65106 0.35495 0.0
H989 H 0.80185 0.58847 0.40947 0.0
H990 H 0.83121 0.602 0.4054 0.0
H991 H 0.81246 0.57957 0.39105 0.0
C992 C 0.89034 0.63917 0.38255 0.0
C993 C 0.88955 0.61944 0.37732 0.0
C994 C 0.87153 0.6413 0.38102 0.0
C995 C 0.85176 0.62374 0.37425 0.0
C996 C 0.85133 0.60453 0.36811 0.0
H997 H 0.71539 0.58607 0.36545 0.0
H998 H 0.7521 0.59025 0.36285 0.0
C999 C 0.87002 0.60235 0.36969 0.0
C1000 C 0.83113 0.62471 0.37461 0.0
H1001 H 0.77946 0.59912 0.39306 0.0
C1002 C 0.82914 0.63985 0.36335 0.0
C1003 C 0.81317 0.61014 0.38571 0.0
C1004 C 0.81476 0.59425 0.39873 0.0
C1005 C 0.80923 0.6402 0.36239 0.0
C1006 C 0.7911 0.62519 0.37314 0.0
C1007 C 0.79334 0.61046 0.3847 0.0
C1008 C 0.76938 0.62401 0.37253 0.0
C1009 C 0.8075 0.65609 0.34951 0.0
C1010 C 0.76698 0.64175 0.37859 0.0
C1011 C 0.74596 0.63941 0.38004 0.0
C1012 C 0.72708 0.61923 0.37564 0.0
C1013 C 0.72962 0.60178 0.36902 0.0
C1014 C 0.75058 0.60415 0.3675 0.0
H1015 H 0.8211 0.66296 0.33934 0.0
H1016 H 0.79147 0.64788 0.34217 0.0
H1017 H 0.80841 0.67004 0.35744 0.0
H1018 H 0.78125 0.65707 0.38285 0.0
H1019 H 0.74447 0.65312 0.38524 0.0
H1020 H 0.08973 0.74576 0.88666 0.0
H1021 H 0.12198 0.78298 0.88412 0.0
H1022 H 0.16156 0.75501 0.86626 0.0
H1023 H 0.12964 0.71793 0.8689 0.0
H1024 H 0.17803 0.78363 0.8971 0.0
H1025 H 0.15695 0.82152 0.83936 0.0
H1026 H 0.1364 0.80814 0.85684 0.0
H1027 H 0.14372 0.79197 0.84254 0.0
C1028 C 0.10523 0.7476 0.88191 0.0
C1029 C 0.10723 0.72896 0.87809 0.0
C1030 C 0.12358 0.76885 0.88038 0.0
C1031 C 0.14406 0.77168 0.8749 0.0
C1032 C 0.14585 0.75312 0.87047 0.0
H1033 H 0.27984 0.86915 0.86596 0.0
H1034 H 0.24281 0.83701 0.86425 0.0
C1035 C 0.1276 0.73196 0.87201 0.0
C1036 C 0.16422 0.79366 0.87539 0.0
H1037 H 0.19083 0.84406 0.8545 0.0
C1038 C 0.18079 0.79687 0.88783 0.0
C1039 C 0.16761 0.81092 0.86341 0.0
C1040 C 0.15034 0.80807 0.84967 0.0
C1041 C 0.2009 0.81676 0.88839 0.0
C1042 C 0.20466 0.83374 0.87597 0.0
C1043 C 0.18785 0.83089 0.86391 0.0
C1044 C 0.22647 0.85401 0.87485 0.0
C1045 C 0.21809 0.81938 0.90217 0.0
C1046 C 0.22935 0.87438 0.88073 0.0
C1047 C 0.25058 0.89288 0.88169 0.0
C1048 C 0.26909 0.89114 0.87677 0.0
C1049 C 0.26593 0.87095 0.87001 0.0
C1050 C 0.2448 0.85257 0.86902 0.0
H1051 H 0.21077 0.80725 0.91347 0.0
H1052 H 0.2307 0.81667 0.89533 0.0
H1053 H 0.22657 0.8363 0.90802 0.0
H1054 H 0.21533 0.87575 0.88523 0.0
H1055 H 0.25254 0.90826 0.88689 0.0
H1056 H 0.34116 0.0885 0.38033 0.0
H1057 H 0.33496 0.11965 0.37513 0.0
H1058 H 0.40462 0.16229 0.36538 0.0
H1059 H 0.41086 0.13133 0.37027 0.0
H1060 H 0.35309 0.15738 0.39576 0.0
H1061 H 0.37765 0.17897 0.32372 0.0
H1062 H 0.37159 0.15276 0.33341 0.0
H1063 H 0.39832 0.17689 0.33664 0.0
C1064 C 0.35507 0.10445 0.37678 0.0
C1065 C 0.3765 0.10751 0.37573 0.0
C1066 C 0.3515 0.12219 0.3738 0.0
C1067 C 0.36927 0.14319 0.36958 0.0
C1068 C 0.39058 0.14612 0.36815 0.0
H1069 H 0.41055 0.27861 0.37214 0.0
H1070 H 0.40435 0.24132 0.36773 0.0
C1071 C 0.39415 0.12843 0.37111 0.0
C1072 C 0.36612 0.16259 0.36848 0.0
H1073 H 0.37857 0.20783 0.34247 0.0
C1074 C 0.35819 0.1682 0.38398 0.0
C1075 C 0.3728 0.17663 0.35308 0.0
C1076 C 0.38035 0.17089 0.33571 0.0
C1077 C 0.35812 0.1882 0.38494 0.0
C1078 C 0.36582 0.20276 0.36985 0.0
C1079 C 0.37274 0.19665 0.35403 0.0
C1080 C 0.36888 0.22526 0.37094 0.0
C1081 C 0.35104 0.19417 0.40247 0.0
C1082 C 0.35091 0.2286 0.37378 0.0
C1083 C 0.35442 0.24995 0.37642 0.0
C1084 C 0.37595 0.26822 0.37614 0.0
C1085 C 0.39378 0.26485 0.37253 0.0
C1086 C 0.39027 0.24356 0.36995 0.0
H1087 H 0.3495 0.18301 0.41387 0.0
H1088 H 0.363 0.21143 0.40649 0.0
H1089 H 0.33472 0.19291 0.40045 0.0
H1090 H 0.33423 0.2147 0.37426 0.0
H1091 H 0.34036 0.25209 0.37903 0.0
H1092 H 0.24953 0.33922 0.88088 0.0
H1093 H 0.21193 0.33226 0.87557 0.0
H1094 H 0.23755 0.40192 0.86691 0.0
H1095 H 0.27499 0.40897 0.87201 0.0
H1096 H 0.19157 0.35004 0.89663 0.0
H1097 H 0.19457 0.37421 0.82444 0.0
H1098 H 0.21464 0.36811 0.83426 0.0
H1099 H 0.21724 0.39485 0.83746 0.0
C1100 C 0.24714 0.35299 0.87757 0.0
C1101 C 0.26516 0.37464 0.87689 0.0
C1102 C 0.22569 0.34898 0.87452 0.0
C1103 C 0.22202 0.36653 0.87056 0.0
C1104 C 0.24007 0.38808 0.86951 0.0
H1105 H 0.1288 0.40813 0.87175 0.0
H1106 H 0.15933 0.4011 0.86746 0.0
C1107 C 0.26145 0.3921 0.87258 0.0
C1108 C 0.19932 0.36288 0.86931 0.0
H1109 H 0.16638 0.37481 0.84303 0.0
C1110 C 0.18578 0.35497 0.88479 0.0
C1111 C 0.19189 0.36931 0.85381 0.0
C1112 C 0.20527 0.37689 0.83648 0.0
C1113 C 0.16566 0.35481 0.88568 0.0
C1114 C 0.15877 0.36236 0.87051 0.0
C1115 C 0.17174 0.36909 0.85465 0.0
C1116 C 0.13955 0.36579 0.87159 0.0
C1117 C 0.15269 0.34792 0.90325 0.0
C1118 C 0.11818 0.34817 0.87494 0.0
C1119 C 0.10066 0.35218 0.87757 0.0
C1120 C 0.10428 0.37384 0.87671 0.0
C1121 C 0.12551 0.39127 0.87258 0.0
C1122 C 0.14297 0.38728 0.87006 0.0
H1123 H 0.16235 0.3465 0.91467 0.0
H1124 H 0.14742 0.35993 0.90718 0.0
H1125 H 0.13764 0.33157 0.90135 0.0
H1126 H 0.11513 0.33141 0.87582 0.0
H1127 H 0.0844 0.33841 0.88057 0.0
H1128 H 0.74534 0.09098 0.38383 0.0
H1129 H 0.78208 0.12399 0.38138 0.0
H1130 H 0.75229 0.16206 0.36391 0.0
H1131 H 0.71568 0.12941 0.36655 0.0
H1132 H 0.80519 0.15555 0.35207 0.0
H1133 H 0.78595 0.19234 0.41141 0.0
H1134 H 0.76969 0.16342 0.40568 0.0
H1135 H 0.76593 0.18357 0.3934 0.0
C1136 C 0.74668 0.10633 0.37923 0.0
C1137 C 0.72767 0.10774 0.37563 0.0
C1138 C 0.76764 0.12512 0.37782 0.0
C1139 C 0.76978 0.14547 0.37279 0.0
C1140 C 0.7509 0.14655 0.36813 0.0
H1141 H 0.86852 0.28176 0.36715 0.0
H1142 H 0.83603 0.24512 0.36403 0.0
C1143 C 0.73002 0.12788 0.36961 0.0
C1144 C 0.79148 0.16596 0.37359 0.0
H1145 H 0.81845 0.21603 0.39479 0.0
C1146 C 0.80823 0.16875 0.36148 0.0
C1147 C 0.79536 0.18299 0.38602 0.0
C1148 C 0.77838 0.18043 0.39999 0.0
C1149 C 0.82856 0.18862 0.36101 0.0
C1150 C 0.83211 0.20586 0.37307 0.0
C1151 C 0.81555 0.2028 0.38546 0.0
C1152 C 0.85259 0.22759 0.37288 0.0
C1153 C 0.84582 0.19134 0.34731 0.0
C1154 C 0.87271 0.22979 0.3787 0.0
C1155 C 0.89136 0.25078 0.38054 0.0
C1156 C 0.89005 0.26979 0.37668 0.0
C1157 C 0.87004 0.26743 0.37029 0.0
C1158 C 0.85147 0.24652 0.36847 0.0
H1159 H 0.83909 0.17801 0.3369 0.0
H1160 H 0.85273 0.20755 0.34031 0.0
H1161 H 0.85958 0.19093 0.3545 0.0
H1162 H 0.87378 0.21536 0.38243 0.0
H1163 H 0.90658 0.25212 0.3855 0.0
H1164 H 0.58824 0.71819 0.86729 0.0
H1165 H 0.59394 0.75544 0.8642 0.0
H1166 H 0.65942 0.78247 0.88667 0.0
H1167 H 0.65395 0.74507 0.88957 0.0
H1168 H 0.6023 0.78269 0.89469 0.0
H1169 H 0.66855 0.82314 0.84257 0.0
H1170 H 0.65239 0.79348 0.84505 0.0
H1171 H 0.67393 0.80958 0.86107 0.0
C1172 C 0.604 0.73206 0.87131 0.0
C1173 C 0.62061 0.72874 0.87878 0.0
C1174 C 0.60723 0.75333 0.86951 0.0
C1175 C 0.62713 0.77169 0.8751 0.0
C1176 C 0.64408 0.76853 0.88199 0.0
H1177 H 0.65586 0.90822 0.88839 0.0
H1178 H 0.65999 0.87534 0.8868 0.0
C1179 C 0.64089 0.74717 0.88373 0.0
C1180 C 0.62898 0.79371 0.87542 0.0
H1181 H 0.65599 0.84535 0.85666 0.0
C1182 C 0.61406 0.79639 0.88639 0.0
C1183 C 0.64453 0.8116 0.86475 0.0
C1184 C 0.66071 0.80939 0.85257 0.0
C1185 C 0.61398 0.81637 0.88677 0.0
C1186 C 0.62899 0.83403 0.87564 0.0
C1187 C 0.64443 0.83167 0.86507 0.0
C1188 C 0.62804 0.85464 0.8744 0.0
C1189 C 0.59776 0.81838 0.89908 0.0
C1190 C 0.60908 0.85399 0.86737 0.0
C1191 C 0.60663 0.87256 0.86837 0.0
C1192 C 0.6232 0.8922 0.87627 0.0
C1193 C 0.6428 0.89326 0.8823 0.0
C1194 C 0.64519 0.87455 0.88138 0.0
H1195 H 0.59158 0.80572 0.91005 0.0
H1196 H 0.60538 0.835 0.90545 0.0
H1197 H 0.58336 0.81596 0.8909 0.0
H1198 H 0.59582 0.83884 0.86168 0.0
H1199 H 0.59144 0.87131 0.86343 0.0
H1200 H 0.33139 0.93205 0.94312 0.0
H1201 H 0.33843 0.94728 0.97383 0.0
H1202 H 0.36185 0.01249 0.95182 0.0
H1203 H 0.35442 0.9972 0.92078 0.0
H1204 H 0.37688 0.97812 0.98985 0.0
H1205 H 0.31576 0.0068 0.98891 0.0
H1206 H 0.31624 0.9885 0.97179 0.0
H1207 H 0.33567 0.01762 0.97078 0.0
C1208 C 0.33803 0.94966 0.94473 0.0
C1209 C 0.34224 0.96342 0.92948 0.0
C1210 C 0.34206 0.95833 0.96235 0.0
C1211 C 0.35035 0.98095 0.96517 0.0
C1212 C 0.35501 0.99489 0.94998 0.0
H1213 H 0.38992 0.06379 0.06043 0.0
H1214 H 0.38206 0.0478 0.02995 0.0
C1215 C 0.35092 0.98618 0.93225 0.0
C1216 C 0.35419 0.98972 0.98407 0.0
H1217 H 0.33905 0.01643 0.01484 0.0
C1218 C 0.36855 0.98642 0.99534 0.0
C1219 C 0.34317 0.0004 0.99125 0.0
C1220 C 0.32668 0.00339 0.98014 0.0
C1221 C 0.37251 0.9939 0.01347 0.0
C1222 C 0.36166 0.00475 0.02056 0.0
C1223 C 0.34727 0.00801 0.00935 0.0
C1224 C 0.36598 0.01395 0.03928 0.0
C1225 C 0.38865 0.99062 0.0248 0.0
C1226 C 0.35934 0.00016 0.05469 0.0
C1227 C 0.36374 0.00927 0.07228 0.0
C1228 C 0.37492 0.03231 0.07465 0.0
C1229 C 0.38137 0.04597 0.05912 0.0
C1230 C 0.37685 0.03689 0.04166 0.0
H1231 H 0.39839 0.98528 0.01641 0.0
H1232 H 0.40022 0.00613 0.03202 0.0
H1233 H 0.37948 0.97776 0.03526 0.0
H1234 H 0.3507 0.98237 0.05311 0.0
H1235 H 0.35853 0.99835 0.08397 0.0
H1236 H 0.36093 0.36106 0.42044 0.0
H1237 H 0.35321 0.36978 0.45117 0.0
H1238 H 0.37196 0.32492 0.47453 0.0
H1239 H 0.3801 0.3166 0.44429 0.0
H1240 H 0.32449 0.34279 0.47847 0.0
H1241 H 0.41114 0.38133 0.50232 0.0
H1242 H 0.4037 0.37557 0.47858 0.0
H1243 H 0.4008 0.35392 0.49361 0.0
C1244 C 0.36334 0.35308 0.43216 0.0
C1245 C 0.3714 0.33839 0.42997 0.0
C1246 C 0.35897 0.35808 0.44968 0.0
C1247 C 0.36257 0.34842 0.46517 0.0
C1248 C 0.36973 0.3331 0.46286 0.0
H1249 H 0.34875 0.35417 0.58304 0.0
H1250 H 0.3552 0.34531 0.55198 0.0
C1251 C 0.37426 0.32828 0.4455 0.0
C1252 C 0.35876 0.35405 0.48384 0.0
H1253 H 0.38384 0.37307 0.52513 0.0
C1254 C 0.33749 0.34958 0.48864 0.0
C1255 C 0.37573 0.3628 0.49713 0.0
C1256 C 0.39917 0.36889 0.49263 0.0
C1257 C 0.33261 0.35313 0.50648 0.0
C1258 C 0.34956 0.36174 0.51979 0.0
C1259 C 0.37084 0.3663 0.51497 0.0
C1260 C 0.34576 0.36697 0.53861 0.0
C1261 C 0.30921 0.34715 0.511 0.0
C1262 C 0.33881 0.3824 0.54138 0.0
C1263 C 0.33506 0.38736 0.55897 0.0
C1264 C 0.33843 0.37723 0.57425 0.0
C1265 C 0.34596 0.36218 0.57154 0.0
C1266 C 0.34961 0.35711 0.55383 0.0
H1267 H 0.29721 0.33499 0.50115 0.0
H1268 H 0.30458 0.34019 0.52496 0.0
H1269 H 0.30775 0.36224 0.51031 0.0
H1270 H 0.33636 0.3907 0.52992 0.0
H1271 H 0.32953 0.39925 0.56056 0.0
H1272 H 0.06381 0.38707 0.9451 0.0
H1273 H 0.04797 0.37904 0.97558 0.0
H1274 H 0.98273 0.35231 0.95265 0.0
H1275 H -0.00143 0.35982 0.9218 0.0
H1276 H 0.0248 0.39486 0.99275 0.0
H1277 H 0.97418 0.30359 0.98731 0.0
H1278 H 0.99479 0.32019 0.97059 0.0
H1279 H 0.96814 0.31821 0.97024 0.0
C1280 C 0.04606 0.37938 0.94647 0.0
C1281 C 0.03242 0.37403 0.931 0.0
C1282 C 0.03703 0.37482 0.96395 0.0
C1283 C 0.01416 0.36484 0.96645 0.0
C1284 C 0.00041 0.35958 0.95106 0.0
H1285 H 0.93157 0.33087 0.06205 0.0
H1286 H 0.94733 0.33864 0.03151 0.0
C1287 C 0.00946 0.364 0.93344 0.0
C1288 C 0.00504 0.36059 0.98526 0.0
H1289 H 0.96995 0.31986 0.01426 0.0
C1290 C 0.01285 0.37844 0.99747 0.0
C1291 C 0.98953 0.33915 0.99143 0.0
C1292 C 0.9813 0.31914 0.97929 0.0
C1293 C 0.00536 0.37551 0.01558 0.0
C1294 C 0.9898 0.3541 0.0217 0.0
C1295 C 0.98194 0.33625 0.00952 0.0
C1296 C 0.98075 0.34996 0.04049 0.0
C1297 C 0.01379 0.39539 0.02789 0.0
C1298 C 0.99434 0.35372 0.05577 0.0
C1299 C 0.98535 0.3493 0.07339 0.0
C1300 C 0.96262 0.34096 0.07596 0.0
C1301 C 0.94915 0.33729 0.0606 0.0
C1302 C 0.95811 0.34168 0.04309 0.0
H1303 H 0.02189 0.41111 0.02008 0.0
H1304 H 0.00013 0.39477 0.03609 0.0
H1305 H 0.02613 0.39549 0.03746 0.0
H1306 H 0.01183 0.3598 0.05404 0.0
H1307 H 0.99612 0.35219 0.08494 0.0
H1308 H 0.63882 -0.00066 0.42061 0.0
H1309 H 0.63022 0.98315 0.45141 0.0
H1310 H 0.66959 0.04802 0.47475 0.0
H1311 H 0.67784 0.0642 0.4444 0.0
H1312 H 0.65795 0.98473 0.47973 0.0
H1313 H 0.611 0.0256 0.50088 0.0
H1314 H 0.61803 0.02439 0.4774 0.0
H1315 H 0.63814 0.04466 0.49261 0.0
C1316 C 0.64562 0.01008 0.43234 0.0
C1317 C 0.65879 0.03305 0.43007 0.0
C1318 C 0.64069 0.00085 0.4499 0.0
C1319 C 0.64884 0.01446 0.46539 0.0
C1320 C 0.6626 0.03727 0.46305 0.0
H1321 H 0.6429 0.99628 0.58334 0.0
H1322 H 0.65122 0.01132 0.55219 0.0
C1323 C 0.66739 0.04646 0.44563 0.0
C1324 C 0.64329 0.00508 0.48408 0.0
H1325 H 0.6211 0.00893 0.5245 0.0
C1326 C 0.64973 0.98986 0.48947 0.0
C1327 C 0.63263 0.01188 0.49682 0.0
C1328 C 0.62435 0.02737 0.49161 0.0
C1329 C 0.64626 0.98166 0.50739 0.0
C1330 C 0.63582 0.98866 0.52016 0.0
C1331 C 0.62928 0.00376 0.51474 0.0
C1332 C 0.63077 0.9798 0.53901 0.0
C1333 C 0.65422 0.96593 0.51262 0.0
C1334 C 0.61619 0.95725 0.54189 0.0
C1335 C 0.6114 0.94869 0.55954 0.0
C1336 C 0.62101 0.96251 0.57476 0.0
C1337 C 0.63528 0.98522 0.5719 0.0
C1338 C 0.64006 0.99381 0.55414 0.0
H1339 H 0.66681 0.96674 0.50291 0.0
H1340 H 0.66138 0.96951 0.52655 0.0
H1341 H 0.64003 0.94879 0.51249 0.0
H1342 H 0.60845 0.94624 0.53045 0.0
H1343 H 0.60021 0.93114 0.56122 0.0
H1344 H 0.67097 0.60481 0.06242 0.0
H1345 H 0.66302 0.61257 0.03186 0.0
H1346 H 0.63362 0.64876 0.05465 0.0
H1347 H 0.64203 0.64143 0.08551 0.0
H1348 H 0.6236 0.60106 0.01616 0.0
H1349 H 0.6766 0.69235 0.01772 0.0
H1350 H 0.67848 0.6747 0.03472 0.0
H1351 H 0.65672 0.68129 0.03584 0.0
C1352 C 0.66286 0.61449 0.06099 0.0
C1353 C 0.65719 0.62259 0.0764 0.0
C1354 C 0.65832 0.61889 0.04348 0.0
C1355 C 0.648 0.63148 0.04094 0.0
C1356 C 0.64203 0.6394 0.05629 0.0
H1357 H 0.60164 0.66906 0.94618 0.0
H1358 H 0.60995 0.66134 0.97666 0.0
C1359 C 0.64671 0.63509 0.0739 0.0
C1360 C 0.64318 0.6358 0.02218 0.0
H1361 H 0.65337 0.67696 0.99192 0.0
C1362 C 0.63018 0.61766 0.01083 0.0
C1363 C 0.65188 0.65746 0.01523 0.0
C1364 C 0.66687 0.67758 0.02643 0.0
C1365 C 0.62534 0.6206 0.99283 0.0
C1366 C 0.6339 0.64224 0.98596 0.0
C1367 C 0.64689 0.66039 0.99726 0.0
C1368 C 0.62883 0.64644 0.9673 0.0
C1369 C 0.61075 0.60058 0.98138 0.0
C1370 C 0.63679 0.64066 0.95189 0.0
C1371 C 0.6321 0.6451 0.93434 0.0
C1372 C 0.61938 0.65538 0.93198 0.0
C1373 C 0.61143 0.66106 0.94749 0.0
C1374 C 0.61619 0.65672 0.96495 0.0
H1375 H 0.60218 0.5853 0.98972 0.0
H1376 H 0.59817 0.60292 0.97404 0.0
H1377 H 0.62099 0.59825 0.97104 0.0
H1378 H 0.64681 0.63293 0.95347 0.0
H1379 H 0.63851 0.64061 0.92266 0.0
H1380 H 0.0637 0.67229 0.56157 0.0
H1381 H 0.04771 0.66432 0.53115 0.0
H1382 H 0.98229 0.63112 0.5544 0.0
H1383 H 0.99831 0.63958 0.58519 0.0
H1384 H 0.02171 0.62511 0.51481 0.0
H1385 H 0.97801 0.673 0.51856 0.0
H1386 H 0.99811 0.67574 0.53533 0.0
H1387 H 0.97044 0.65261 0.53616 0.0
C1388 C 0.04588 0.66334 0.5603 0.0
C1389 C 0.03226 0.65662 0.57584 0.0
C1390 C 0.03677 0.65878 0.54284 0.0
C1391 C 0.01381 0.64738 0.54044 0.0
C1392 C 7e-05 0.64037 0.55591 0.0
H1393 H 0.93112 0.60127 0.44453 0.0
H1394 H 0.94652 0.60899 0.47523 0.0
C1395 C 0.00922 0.64508 0.57349 0.0
C1396 C 0.00457 0.64257 0.52167 0.0
H1397 H 0.97197 0.6513 0.49205 0.0
C1398 C 0.01088 0.63089 0.50983 0.0
C1399 C 0.99052 0.65021 0.51514 0.0
C1400 C 0.984 0.66377 0.52688 0.0
C1401 C 0.00333 0.62641 0.49173 0.0
C1402 C 0.98925 0.63399 0.48525 0.0
C1403 C 0.98284 0.64557 0.49708 0.0
C1404 C 0.98033 0.62938 0.46642 0.0
C1405 C 0.01011 0.61324 0.47979 0.0
C1406 C 0.99428 0.6384 0.45122 0.0
C1407 C 0.9855 0.63404 0.43352 0.0
C1408 C 0.96264 0.62059 0.4308 0.0
C1409 C 0.94881 0.61164 0.4461 0.0
C1410 C 0.95756 0.61607 0.4637 0.0
H1411 H 0.01724 0.60483 0.48784 0.0
H1412 H 0.99578 0.60062 0.4719 0.0
H1413 H 0.02279 0.6245 0.46992 0.0
H1414 H 0.0119 0.64898 0.45306 0.0
H1415 H 0.99655 0.64124 0.42203 0.0
H1416 H 0.64353 0.99811 0.92076 0.0
H1417 H 0.65178 0.01325 0.95188 0.0
H1418 H 0.61071 0.94789 0.97378 0.0
H1419 H 0.6025 0.93271 0.94303 0.0
H1420 H 0.62099 0.00942 0.98014 0.0
H1421 H 0.6704 0.97062 1.00035 0.0
H1422 H 0.66452 0.97343 0.97684 0.0
H1423 H 0.6438 0.95194 0.9908 0.0
C1424 C 0.63627 0.98701 0.93222 0.0
C1425 C 0.62247 0.96421 0.92942 0.0
C1426 C 0.64099 0.99566 0.94996 0.0
C1427 C 0.63215 0.98161 0.96512 0.0
C1428 C 0.61806 0.95895 0.9623 0.0
H1429 H 0.64098 -0.0008 0.08344 0.0
H1430 H 0.63248 0.98381 0.0524 0.0
C1431 C 0.6133 0.95034 0.94467 0.0
C1432 C 0.63725 0.99049 0.98395 0.0
H1433 H 0.6608 0.98756 0.02391 0.0
C1434 C 0.62982 0.00479 0.98969 0.0
C1435 C 0.64857 0.98419 0.99641 0.0
C1436 C 0.65747 0.96935 0.99081 0.0
C1437 C 0.6331 0.01272 0.00767 0.0
C1438 C 0.64456 0.00655 0.02013 0.0
C1439 C 0.65195 0.9922 0.01438 0.0
C1440 C 0.64984 0.01559 0.03893 0.0
C1441 C 0.62384 0.02726 0.01327 0.0
C1442 C 0.66279 0.03843 0.04162 0.0
C1443 C 0.66757 0.04718 0.0592 0.0
C1444 C 0.65971 0.03328 0.07454 0.0
C1445 C 0.64721 0.01032 0.07189 0.0
C1446 C 0.64235 0.00153 0.05419 0.0
H1447 H 0.6102 0.02503 0.00413 0.0
H1448 H 0.61758 0.02376 0.0275 0.0
H1449 H 0.63708 0.04482 0.01245 0.0
H1450 H 0.66925 0.04954 0.03008 0.0
H1451 H 0.67744 0.06494 0.06072 0.0
H1452 H 0.63825 0.63846 0.41956 0.0
H1453 H 0.63023 0.64638 0.45037 0.0
H1454 H 0.66593 0.61662 0.47347 0.0
H1455 H 0.67342 0.60818 0.44301 0.0
H1456 H 0.62687 0.60233 0.4902 0.0
H1457 H 0.67156 0.69387 0.48541 0.0
H1458 H 0.65089 0.68015 0.46817 0.0
H1459 H 0.67474 0.67675 0.46865 0.0
C1460 C 0.64442 0.63371 0.43123 0.0
C1461 C 0.65645 0.6227 0.42886 0.0
C1462 C 0.63996 0.63835 0.44881 0.0
C1463 C 0.64775 0.63236 0.46423 0.0
C1464 C 0.65976 0.62141 0.4618 0.0
H1465 H 0.64344 0.64442 0.58246 0.0
H1466 H 0.65076 0.63672 0.55134 0.0
C1467 C 0.66403 0.61661 0.44434 0.0
C1468 C 0.64303 0.63681 0.48299 0.0
H1469 H 0.6507 0.67805 0.51226 0.0
C1470 C 0.63213 0.6189 0.49504 0.0
C1471 C 0.64996 0.65844 0.48929 0.0
C1472 C 0.66262 0.67845 0.47728 0.0
C1473 C 0.62779 0.622 0.51315 0.0
C1474 C 0.63472 0.6436 0.51942 0.0
C1475 C 0.64548 0.66151 0.50738 0.0
C1476 C 0.63035 0.64795 0.53829 0.0
C1477 C 0.61548 0.6021 0.52533 0.0
C1478 C 0.61674 0.65706 0.54119 0.0
C1479 C 0.61261 0.66149 0.55883 0.0
C1480 C 0.62211 0.65703 0.57398 0.0
C1481 C 0.63581 0.64792 0.57107 0.0
C1482 C 0.63993 0.64345 0.55333 0.0
H1483 H 0.60716 0.58648 0.5174 0.0
H1484 H 0.62731 0.60115 0.53485 0.0
H1485 H 0.6029 0.60347 0.53358 0.0
H1486 H 0.60923 0.66067 0.52976 0.0
H1487 H 0.602 0.66853 0.56057 0.0
H1488 H 0.93309 0.6076 0.06216 0.0
H1489 H 0.94875 0.61533 0.03156 0.0
H1490 H 0.0144 0.64753 0.05425 0.0
H1491 H -0.00123 0.63987 0.08522 0.0
H1492 H 0.97981 0.65857 0.01623 0.0
H1493 H 0.01146 0.59964 0.01761 0.0
H1494 H 0.9906 0.59766 0.03326 0.0
H1495 H 0.01893 0.61852 0.03648 0.0
C1496 C 0.95089 0.61629 0.06073 0.0
C1497 C 0.96471 0.62305 0.07615 0.0
C1498 C 0.95978 0.62074 0.04319 0.0
C1499 C 0.98268 0.63183 0.04065 0.0
C1500 C 0.99664 0.63874 0.05597 0.0
H1501 H 0.06515 0.66754 0.94509 0.0
H1502 H 0.04945 0.66019 0.97562 0.0
C1503 C 0.98772 0.63442 0.07362 0.0
C1504 C 0.99172 0.63613 0.02188 0.0
H1505 H 0.01861 0.62129 0.99112 0.0
C1506 C 0.98832 0.65046 0.0107 0.0
C1507 C 0.00267 0.6254 0.01474 0.0
C1508 C 0.00607 0.6093 0.02603 0.0
C1509 C 0.99596 0.65468 0.99261 0.0
C1510 C 0.00683 0.64386 0.98541 0.0
C1511 C 0.01018 0.62949 0.99663 0.0
C1512 C 0.01587 0.64802 0.9666 0.0
C1513 C 0.99286 0.67113 0.98154 0.0
C1514 C 0.00216 0.64337 0.95126 0.0
C1515 C 0.01115 0.64764 0.93362 0.0
C1516 C 0.03397 0.6565 0.9311 0.0
C1517 C 0.04751 0.66076 0.94651 0.0
C1518 C 0.03856 0.65655 0.96402 0.0
H1519 H 0.98913 0.68182 0.99032 0.0
H1520 H 0.00783 0.68182 0.97336 0.0
H1521 H 0.97882 0.6621 0.97202 0.0
H1522 H 0.98452 0.63637 0.95291 0.0
H1523 H 0.00029 0.64409 0.92203 0.0
H1524 H 0.32872 0.93096 0.56083 0.0
H1525 H 0.33639 0.94699 0.53038 0.0
H1526 H 0.36045 0.01177 0.55351 0.0
H1527 H 0.35294 0.99577 0.58431 0.0
H1528 H 0.31877 0.97118 0.51392 0.0
H1529 H 0.41032 0.01992 0.51859 0.0
H1530 H 0.39365 0.99827 0.53457 0.0
H1531 H 0.39566 0.02484 0.53642 0.0
C1532 C 0.33577 0.94866 0.55953 0.0
C1533 C 0.34028 0.96212 0.57503 0.0
C1534 C 0.34009 0.95777 0.54207 0.0
C1535 C 0.34915 0.98056 0.53967 0.0
C1536 C 0.35376 0.99415 0.55508 0.0
H1537 H 0.38684 0.06521 0.4454 0.0
H1538 H 0.37859 0.04875 0.47565 0.0
C1539 C 0.3494 0.985 0.57265 0.0
C1540 C 0.35325 0.98981 0.52095 0.0
H1541 H 0.39408 0.02415 0.49176 0.0
C1542 C 0.33523 0.98275 0.50903 0.0
C1543 C 0.37474 0.00481 0.51463 0.0
C1544 C 0.39477 0.01232 0.52663 0.0
C1545 C 0.33808 0.99062 0.49104 0.0
C1546 C 0.35959 0.0056 0.4847 0.0
C1547 C 0.3776 0.0126 0.49662 0.0
C1548 C 0.36378 0.01507 0.46602 0.0
C1549 C 0.31798 0.98327 0.47916 0.0
C1550 C 0.35819 0.00159 0.45043 0.0
C1551 C 0.36279 0.011 0.43294 0.0
C1552 C 0.37326 0.03404 0.43083 0.0
C1553 C 0.3788 0.0474 0.4465 0.0
C1554 C 0.37411 0.03803 0.46385 0.0
H1555 H 0.30256 0.97628 0.48735 0.0
H1556 H 0.31936 0.99723 0.47092 0.0
H1557 H 0.31654 0.97025 0.46967 0.0
H1558 H 0.35058 0.98384 0.45178 0.0
H1559 H 0.35846 0.00031 0.42114 0.0
H1560 H 0.40338 0.33629 0.06051 0.0
H1561 H 0.39459 0.34317 0.02994 0.0
H1562 H 0.3429 0.35301 0.05188 0.0
H1563 H 0.35198 0.34655 0.08281 0.0
H1564 H 0.35593 0.31984 0.01121 0.0
H1565 H 0.37658 0.40705 0.01961 0.0
H1566 H 0.38478 0.39323 0.03598 0.0
H1567 H 0.35697 0.38833 0.03588 0.0
C1568 C 0.39023 0.34009 0.05891 0.0
C1569 C 0.37838 0.34092 0.0741 0.0
C1570 C 0.38521 0.34398 0.04138 0.0
C1571 C 0.36822 0.34878 0.0386 0.0
C1572 C 0.35637 0.34974 0.05374 0.0
H1573 H 0.31179 0.37475 0.94432 0.0
H1574 H 0.32066 0.36643 0.97429 0.0
C1575 C 0.36151 0.34599 0.07139 0.0
C1576 C 0.3627 0.35212 0.01975 0.0
H1577 H 0.35949 0.38951 0.99188 0.0
C1578 C 0.35676 0.33509 0.00695 0.0
C1579 C 0.36391 0.37206 0.0142 0.0
C1580 C 0.3711 0.39131 0.02707 0.0
C1581 C 0.3515 0.33727 0.98885 0.0
C1582 C 0.35257 0.35717 0.98334 0.0
C1583 C 0.35867 0.37425 0.99612 0.0
C1584 C 0.34644 0.36043 0.96467 0.0
C1585 C 0.34427 0.31803 0.97597 0.0
C1586 C 0.35777 0.3595 0.94913 0.0
C1587 C 0.35252 0.36404 0.93177 0.0
C1588 C 0.33614 0.36993 0.92982 0.0
C1589 C 0.32464 0.37044 0.94537 0.0
C1590 C 0.32969 0.3657 0.96255 0.0
H1591 H 0.33908 0.30233 0.9834 0.0
H1592 H 0.33038 0.31596 0.96726 0.0
H1593 H 0.35829 0.32116 0.96696 0.0
H1594 H 0.37106 0.35587 0.95046 0.0
H1595 H 0.36173 0.36368 0.92004 0.0
H1596 H 0.06305 0.4003 0.56065 0.0
H1597 H 0.04667 0.39257 0.5303 0.0
H1598 H 0.98409 0.34386 0.55283 0.0
H1599 H 0.00044 0.35158 0.58357 0.0
H1600 H 0.00142 0.33092 0.52005 0.0
H1601 H -0.00031 0.40909 0.51151 0.0
H1602 H 0.02521 0.41196 0.51978 0.0
H1603 H 0.00083 0.39829 0.53362 0.0
C1604 C 0.04575 0.38799 0.55924 0.0
C1605 C 0.03301 0.37657 0.57455 0.0
C1606 C 0.03643 0.38366 0.54186 0.0
C1607 C 0.01417 0.36779 0.53936 0.0
C1608 C 0.00131 0.35624 0.55454 0.0
H1609 H 0.93481 0.34047 0.44222 0.0
H1610 H 0.94981 0.34787 0.4731 0.0
C1611 C 0.01063 0.36071 0.57206 0.0
C1612 C 0.00468 0.3632 0.52075 0.0
H1613 H 0.99243 0.38679 0.48518 0.0
C1614 C -0.00067 0.34305 0.51244 0.0
C1615 C 0.00201 0.3791 0.5109 0.0
C1616 C 0.00706 0.40079 0.51939 0.0
C1617 C 0.9917 0.33854 0.49434 0.0
C1618 C 0.98948 0.35464 0.48438 0.0
C1619 C 0.99444 0.37461 0.49282 0.0
C1620 C 0.98093 0.3506 0.46547 0.0
C1621 C 0.98585 0.31656 0.486 0.0
C1622 C 0.99367 0.35005 0.45088 0.0
C1623 C 0.98521 0.34601 0.43307 0.0
C1624 C 0.96383 0.3423 0.42969 0.0
C1625 C 0.95131 0.34316 0.44436 0.0
C1626 C 0.95983 0.3474 0.46203 0.0
H1627 H 0.98557 0.30475 0.49628 0.0
H1628 H 0.96944 0.30914 0.47928 0.0
H1629 H 0.99821 0.31906 0.47539 0.0
H1630 H 0.01011 0.35269 0.45328 0.0
H1631 H 0.99521 0.3454 0.42206 0.0
H1632 H 0.43598 0.04158 0.10301 0.0
H1633 H 0.4656 0.03303 0.09757 0.0
H1634 H 0.50181 0.07388 0.1433 0.0
H1635 H 0.47263 0.08266 0.14873 0.0
H1636 H 0.51254 0.06746 0.09138 0.0
H1637 H 0.50061 0.01343 0.15067 0.0
H1638 H 0.47877 0.01735 0.14156 0.0
H1639 H 0.4994 0.03785 0.15626 0.0
C1640 C 0.45016 0.04855 0.11201 0.0
C1641 C 0.452 0.06286 0.12627 0.0
C1642 C 0.46702 0.04366 0.10887 0.0
C1643 C 0.48569 0.05263 0.12018 0.0
C1644 C 0.48735 0.06656 0.13459 0.0
H1645 H 0.61947 0.10012 0.12186 0.0
H1646 H 0.58147 0.09126 0.11694 0.0
C1647 C 0.47073 0.07168 0.13758 0.0
C1648 C 0.50438 0.04897 0.11644 0.0
H1649 H 0.5369 0.03195 0.13728 0.0
C1650 C 0.51763 0.05922 0.10115 0.0
C1651 C 0.51079 0.03797 0.12907 0.0
C1652 C 0.49655 0.02582 0.14524 0.0
C1653 C 0.5381 0.06032 0.09899 0.0
C1654 C 0.54543 0.05107 0.11253 0.0
C1655 C 0.53132 0.03919 0.12699 0.0
C1656 C 0.56866 0.0562 0.11339 0.0
C1657 C 0.55215 0.07222 0.08266 0.0
C1658 C 0.57404 0.03936 0.11311 0.0
C1659 C 0.59589 0.04439 0.1159 0.0
C1660 C 0.61255 0.06628 0.11939 0.0
C1661 C 0.60706 0.08308 0.11929 0.0
C1662 C 0.58536 0.07808 0.11631 0.0
H1663 H 0.54187 0.07206 0.07105 0.0
H1664 H 0.56365 0.08971 0.08635 0.0
H1665 H 0.56209 0.06467 0.07821 0.0
H1666 H 0.56129 0.02234 0.11106 0.0
H1667 H 0.59956 0.03106 0.11596 0.0
H1668 H 0.52352 0.6149 0.64488 0.0
H1669 H 0.49315 0.57787 0.63853 0.0
H1670 H 0.53429 0.56669 0.60136 0.0
H1671 H 0.56513 0.604 0.6076 0.0
H1672 H 0.48097 0.56152 0.59445 0.0
H1673 H 0.49855 0.51281 0.64503 0.0
H1674 H 0.50573 0.54076 0.65067 0.0
H1675 H 0.52031 0.53593 0.63282 0.0
C1676 C 0.52628 0.60464 0.63541 0.0
C1677 C 0.5468 0.61253 0.62669 0.0
C1678 C 0.50889 0.58346 0.63184 0.0
C1679 C 0.51159 0.56969 0.61953 0.0
C1680 C 0.53203 0.57717 0.61096 0.0
H1681 H 0.39571 0.43566 0.61138 0.0
H1682 H 0.4338 0.4654 0.6062 0.0
C1683 C 0.54957 0.59846 0.61456 0.0
C1684 C 0.49239 0.54792 0.61527 0.0
H1685 H 0.46236 0.49595 0.63275 0.0
C1686 C 0.47707 0.54697 0.60246 0.0
C1687 C 0.48756 0.52904 0.62565 0.0
C1688 C 0.50386 0.52945 0.63931 0.0
C1689 C 0.45631 0.52794 0.60064 0.0
C1690 C 0.45067 0.50968 0.61219 0.0
C1691 C 0.46667 0.51004 0.62399 0.0
C1692 C 0.42754 0.49159 0.61408 0.0
C1693 C 0.44022 0.52791 0.58692 0.0
C1694 C 0.41154 0.4965 0.62035 0.0
C1695 C 0.38991 0.47969 0.62337 0.0
C1696 C 0.38378 0.45748 0.62029 0.0
C1697 C 0.39983 0.45258 0.61382 0.0
C1698 C 0.42159 0.46951 0.61087 0.0
H1699 H 0.449 0.53923 0.57537 0.0
H1700 H 0.42921 0.51107 0.58146 0.0
H1701 H 0.42985 0.53377 0.59361 0.0
H1702 H 0.4159 0.5134 0.62331 0.0
H1703 H 0.37809 0.48414 0.62839 0.0
H1704 H 0.90067 0.3811 0.14042 0.0
H1705 H 0.90871 0.41869 0.13491 0.0
H1706 H 0.96976 0.43391 0.10845 0.0
H1707 H 0.96189 0.39596 0.1139 0.0
H1708 H 0.97152 0.4662 0.13607 0.0
H1709 H 0.90671 0.44413 0.08371 0.0
H1710 H 0.89702 0.42676 0.10354 0.0
H1711 H 0.91785 0.42643 0.08935 0.0
C1712 C 0.91584 0.39231 0.1334 0.0
C1713 C 0.93057 0.38538 0.12752 0.0
C1714 C 0.92035 0.41381 0.13021 0.0
C1715 C 0.93963 0.42891 0.12104 0.0
C1716 C 0.95469 0.42237 0.11543 0.0
H1717 H 0.96128 0.56514 0.11024 0.0
H1718 H 0.96891 0.53484 0.10493 0.0
C1719 C 0.95014 0.4007 0.11855 0.0
C1720 C 0.94374 0.45152 0.11776 0.0
H1721 H 0.91827 0.47815 0.10009 0.0
C1722 C 0.96036 0.46908 0.12777 0.0
C1723 C 0.92923 0.45518 0.10682 0.0
C1724 C 0.91183 0.43717 0.09509 0.0
C1725 C 0.96153 0.48974 0.12835 0.0
C1726 C 0.94574 0.49271 0.11869 0.0
C1727 C 0.9303 0.47572 0.10754 0.0
C1728 C 0.94249 0.51166 0.12232 0.0
C1729 C 0.97849 0.50777 0.14032 0.0
C1730 C 0.92522 0.50853 0.13387 0.0
C1731 C 0.92079 0.5256 0.13691 0.0
C1732 C 0.93354 0.54624 0.1284 0.0
C1733 C 0.95115 0.54947 0.11702 0.0
C1734 C 0.95556 0.53224 0.11397 0.0
H1735 H 0.99031 0.50325 0.14629 0.0
H1736 H 0.98785 0.5232 0.1323 0.0
H1737 H 0.97005 0.51125 0.15158 0.0
H1738 H 0.91498 0.49271 0.14042 0.0
H1739 H 0.9072 0.52248 0.14584 0.0
H1740 H 0.38019 0.90157 0.64457 0.0
H1741 H 0.41765 0.90887 0.63977 0.0
H1742 H 0.43113 0.96371 0.60473 0.0
H1743 H 0.39336 0.95663 0.60951 0.0
H1744 H 0.43618 0.90952 0.60375 0.0
H1745 H 0.48371 0.98813 0.64265 0.0
H1746 H 0.45472 0.96954 0.64697 0.0
H1747 H 0.46319 0.98548 0.6264 0.0
C1748 C 0.39102 0.91526 0.63587 0.0
C1749 C 0.38365 0.92846 0.62737 0.0
C1750 C 0.41248 0.91941 0.63317 0.0
C1751 C 0.42713 0.93685 0.62197 0.0
C1752 C 0.42009 0.9503 0.61358 0.0
H1753 H 0.5628 0.95813 0.61009 0.0
H1754 H 0.5315 0.96423 0.60489 0.0
C1755 C 0.39849 0.94617 0.61629 0.0
C1756 C 0.4494 0.93997 0.61878 0.0
H1757 H 0.50294 0.97027 0.63303 0.0
C1758 C 0.45089 0.92306 0.60979 0.0
C1759 C 0.46855 0.95776 0.62655 0.0
C1760 C 0.46767 0.97632 0.63626 0.0
C1761 C 0.47073 0.92271 0.60937 0.0
C1762 C 0.48945 0.93954 0.61838 0.0
C1763 C 0.48846 0.95735 0.62621 0.0
C1764 C 0.5089 0.93706 0.62197 0.0
C1765 C 0.47126 0.90374 0.60004 0.0
C1766 C 0.50658 0.92013 0.6336 0.0
C1767 C 0.52424 0.91661 0.6366 0.0
C1768 C 0.54473 0.93001 0.62808 0.0
C1769 C 0.54724 0.94745 0.61682 0.0
C1770 C 0.52942 0.95099 0.61382 0.0
H1771 H 0.45802 0.89587 0.58962 0.0
H1772 H 0.48748 0.90932 0.5934 0.0
H1773 H 0.46863 0.89102 0.61034 0.0
H1774 H 0.49093 0.90944 0.64022 0.0
H1775 H 0.52168 0.90317 0.64551 0.0
H1776 H 0.60588 0.56226 0.10612 0.0
H1777 H 0.56782 0.53219 0.10127 0.0
H1778 H 0.57228 0.4995 0.14959 0.0
H1779 H 0.61014 0.52914 0.15444 0.0
H1780 H 0.55633 0.48572 0.09741 0.0
H1781 H 0.51218 0.49896 0.15438 0.0
H1782 H 0.53796 0.52075 0.14527 0.0
H1783 H 0.53789 0.501 0.16101 0.0
C1784 C 0.59862 0.5488 0.11583 0.0
C1785 C 0.61104 0.54802 0.13063 0.0
C1786 C 0.57692 0.53168 0.11303 0.0
C1787 C 0.56722 0.51383 0.12521 0.0
C1788 C 0.57938 0.51333 0.14021 0.0
H1789 H 0.48275 0.37924 0.12981 0.0
H1790 H 0.51163 0.41759 0.12588 0.0
C1791 C 0.60108 0.5302 0.14287 0.0
C1792 C 0.54516 0.49459 0.12165 0.0
H1793 H 0.4955 0.46197 0.14229 0.0
C1794 C 0.54279 0.48075 0.10694 0.0
C1795 C 0.52748 0.4883 0.13398 0.0
C1796 C 0.52886 0.50312 0.14947 0.0
C1797 C 0.52382 0.45991 0.10512 0.0
C1798 C 0.50699 0.45282 0.1184 0.0
C1799 C 0.50856 0.4674 0.13223 0.0
C1800 C 0.48918 0.42951 0.11955 0.0
C1801 C 0.52235 0.44523 0.08948 0.0
C1802 C 0.46695 0.42358 0.11746 0.0
C1803 C 0.45029 0.40154 0.11965 0.0
C1804 C 0.45565 0.38522 0.12429 0.0
C1805 C 0.478 0.39134 0.1263 0.0
C1806 C 0.49456 0.41324 0.12393 0.0
H1807 H 0.53304 0.455 0.07792 0.0
H1808 H 0.52796 0.43374 0.09417 0.0
H1809 H 0.50508 0.43523 0.08456 0.0
H1810 H 0.46252 0.43599 0.11425 0.0
H1811 H 0.43325 0.39739 0.11806 0.0
H1812 H 0.04146 0.43633 0.60697 0.0
H1813 H 0.03517 0.46758 0.60212 0.0
H1814 H 0.08574 0.50591 0.64155 0.0
H1815 H 0.09223 0.47521 0.64644 0.0
H1816 H 0.0251 0.49333 0.62918 0.0
H1817 H 0.10495 0.54306 0.59357 0.0
H1818 H 0.09194 0.51343 0.59607 0.0
H1819 H 0.10747 0.53135 0.6146 0.0
C1820 C 0.05115 0.45139 0.61467 0.0
C1821 C 0.06756 0.45335 0.62693 0.0
C1822 C 0.04752 0.46917 0.61188 0.0
C1823 C 0.06027 0.4891 0.62126 0.0
C1824 C 0.07603 0.49078 0.63393 0.0
H1825 H 0.09 0.61529 0.64808 0.0
H1826 H 0.08362 0.5782 0.6428 0.0
C1827 C 0.0797 0.47317 0.6367 0.0
C1828 C 0.05785 0.50863 0.61783 0.0
H1829 H 0.08879 0.56316 0.60683 0.0
C1830 C 0.03874 0.50851 0.62387 0.0
C1831 C 0.07562 0.52829 0.61072 0.0
C1832 C 0.09608 0.52905 0.6032 0.0
C1833 C 0.03775 0.52812 0.62439 0.0
C1834 C 0.05629 0.5481 0.61866 0.0
C1835 C 0.07467 0.54781 0.61136 0.0
C1836 C 0.05839 0.56987 0.62234 0.0
C1837 C 0.01758 0.52771 0.63216 0.0
C1838 C 0.04609 0.57738 0.61268 0.0
C1839 C 0.04969 0.59875 0.61568 0.0
C1840 C 0.06576 0.6129 0.62829 0.0
C1841 C 0.07765 0.605 0.63815 0.0
C1842 C 0.074 0.58375 0.63519 0.0
H1843 H 0.00515 0.51104 0.63714 0.0
H1844 H 0.02238 0.53964 0.64361 0.0
H1845 H 0.00979 0.53285 0.62151 0.0
H1846 H 0.03413 0.56695 0.60256 0.0
H1847 H 0.04028 0.60434 0.60783 0.0
H1848 H 0.91031 0.52395 0.35611 0.0
H1849 H 0.92021 0.49532 0.35929 0.0
H1850 H 0.96957 0.53466 0.39925 0.0
H1851 H 0.95978 0.56374 0.3962 0.0
H1852 H 0.96642 0.50195 0.35493 0.0
H1853 H 0.92667 0.47088 0.42273 0.0
H1854 H 0.91806 0.48586 0.40796 0.0
H1855 H 0.94439 0.50012 0.41906 0.0
C1856 C 0.92327 0.52663 0.36562 0.0
C1857 C 0.93419 0.54617 0.37595 0.0
C1858 C 0.92895 0.51025 0.36736 0.0
C1859 C 0.94553 0.5129 0.37953 0.0
C1860 C 0.95664 0.53234 0.38984 0.0
H1861 H 0.9588 0.39479 0.3967 0.0
H1862 H 0.96837 0.43359 0.39987 0.0
C1863 C 0.95105 0.54891 0.38803 0.0
C1864 C 0.95069 0.4949 0.38124 0.0
H1865 H 0.9369 0.44858 0.4062 0.0
C1866 C 0.96048 0.49053 0.36633 0.0
C1867 C 0.94304 0.48019 0.39619 0.0
C1868 C 0.9324 0.48431 0.41246 0.0
C1869 C 0.96154 0.47105 0.36547 0.0
C1870 C 0.95221 0.45544 0.37972 0.0
C1871 C 0.94397 0.46059 0.39527 0.0
C1872 C 0.94777 0.43256 0.37746 0.0
C1873 C 0.97174 0.46685 0.34894 0.0
C1874 C 0.9329 0.4192 0.36395 0.0
C1875 C 0.92728 0.39715 0.36221 0.0
C1876 C 0.93643 0.38794 0.37394 0.0
C1877 C 0.95156 0.40143 0.38738 0.0
C1878 C 0.95703 0.42355 0.38923 0.0
H1879 H 0.98405 0.48258 0.34239 0.0
H1880 H 0.9799 0.45722 0.35257 0.0
H1881 H 0.95861 0.45724 0.33879 0.0
H1882 H 0.92527 0.42575 0.35495 0.0
H1883 H 0.91563 0.38731 0.35168 0.0
H1884 H 0.52278 0.90462 0.85979 0.0
H1885 H 0.49245 0.9116 0.86488 0.0
H1886 H 0.53451 0.96819 0.89802 0.0
H1887 H 0.56537 0.9614 0.893 0.0
H1888 H 0.47636 0.91446 0.90208 0.0
H1889 H 0.50375 0.98924 0.85864 0.0
H1890 H 0.51378 0.97028 0.8546 0.0
H1891 H 0.52286 0.98777 0.8743 0.0
C1892 C 0.52577 0.91864 0.86812 0.0
C1893 C 0.54659 0.93241 0.87602 0.0
C1894 C 0.50836 0.92259 0.87101 0.0
C1895 C 0.5113 0.94041 0.88177 0.0
C1896 C 0.53203 0.95444 0.88955 0.0
H1897 H 0.39651 0.96109 0.89201 0.0
H1898 H 0.43413 0.96788 0.89715 0.0
C1899 C 0.54959 0.95048 0.88668 0.0
C1900 C 0.49212 0.94341 0.88509 0.0
H1901 H 0.46703 0.97131 0.86919 0.0
C1902 C 0.47448 0.92719 0.89525 0.0
C1903 C 0.48984 0.96014 0.87627 0.0
C1904 C 0.50848 0.97791 0.86528 0.0
C1905 C 0.45409 0.92642 0.89587 0.0
C1906 C 0.45122 0.94206 0.88583 0.0
C1907 C 0.46932 0.95929 0.87679 0.0
C1908 C 0.42892 0.93879 0.88253 0.0
C1909 C 0.43542 0.90824 0.90656 0.0
C1910 C 0.41383 0.92049 0.87232 0.0
C1911 C 0.39251 0.91658 0.86932 0.0
C1912 C 0.38576 0.93097 0.87644 0.0
C1913 C 0.40111 0.94964 0.88638 0.0
C1914 C 0.4226 0.95356 0.88934 0.0
H1915 H 0.4417 0.90183 0.91751 0.0
H1916 H 0.42478 0.91409 0.91277 0.0
H1917 H 0.42509 0.89433 0.89724 0.0
H1918 H 0.41856 0.9091 0.86671 0.0
H1919 H 0.38129 0.90214 0.8615 0.0
H1920 H 0.48018 0.37867 0.38196 0.0
H1921 H 0.50884 0.41704 0.38618 0.0
H1922 H 0.45921 0.43607 0.3917 0.0
H1923 H 0.43015 0.39743 0.38756 0.0
H1924 H 0.49339 0.46051 0.36506 0.0
H1925 H 0.52811 0.45734 0.43206 0.0
H1926 H 0.52414 0.43526 0.41716 0.0
H1927 H 0.50059 0.43691 0.42491 0.0
C1928 C 0.47526 0.39091 0.38426 0.0
C1929 C 0.45285 0.38497 0.38435 0.0
C1930 C 0.49169 0.41283 0.38683 0.0
C1931 C 0.48611 0.42931 0.38949 0.0
C1932 C 0.46379 0.42351 0.38985 0.0
H1933 H 0.60368 0.56222 0.39981 0.0
H1934 H 0.56543 0.53277 0.4051 0.0
C1935 C 0.44725 0.40145 0.38748 0.0
C1936 C 0.5039 0.45268 0.3902 0.0
H1937 H 0.55269 0.48652 0.41162 0.0
C1938 C 0.50609 0.46646 0.37549 0.0
C1939 C 0.52028 0.46049 0.40392 0.0
C1940 C 0.51809 0.4468 0.42051 0.0
C1941 C 0.52521 0.48712 0.37334 0.0
C1942 C 0.5425 0.49399 0.38616 0.0
C1943 C 0.53947 0.48108 0.4017 0.0
C1944 C 0.56483 0.51274 0.38239 0.0
C1945 C 0.52723 0.501 0.35692 0.0
C1946 C 0.57707 0.51107 0.36797 0.0
C1947 C 0.59886 0.5276 0.36505 0.0
C1948 C 0.60886 0.54623 0.37647 0.0
C1949 C 0.59641 0.54811 0.39073 0.0
C1950 C 0.5746 0.53134 0.39378 0.0
H1951 H 0.51075 0.49688 0.35154 0.0
H1952 H 0.53663 0.51888 0.36029 0.0
H1953 H 0.53622 0.49779 0.34597 0.0
H1954 H 0.56992 0.49665 0.35922 0.0
H1955 H 0.60792 0.52566 0.35391 0.0
H1956 H 0.04038 0.43497 0.89998 0.0
H1957 H 0.03126 0.4645 0.90339 0.0
H1958 H 0.07884 0.50242 0.86182 0.0
H1959 H 0.08813 0.47339 0.85834 0.0
H1960 H 0.06383 0.51234 0.91131 0.0
H1961 H 0.01899 0.49857 0.846 0.0
H1962 H 0.02223 0.4773 0.85717 0.0
H1963 H 0.04443 0.49825 0.84387 0.0
C1964 C 0.04884 0.44958 0.89153 0.0
C1965 C 0.06498 0.4518 0.87887 0.0
C1966 C 0.04361 0.46639 0.89352 0.0
C1967 C 0.05419 0.48542 0.88267 0.0
C1968 C 0.07029 0.48768 0.87012 0.0
H1969 H 0.09122 0.6137 0.86072 0.0
H1970 H 0.08194 0.57545 0.86471 0.0
C1971 C 0.07567 0.47109 0.86825 0.0
C1972 C 0.04929 0.50359 0.88457 0.0
H1973 H 0.03509 0.53518 0.8588 0.0
C1974 C 0.05692 0.51706 0.90011 0.0
C1975 C 0.04018 0.50955 0.86995 0.0
C1976 C 0.03078 0.49505 0.85336 0.0
C1977 C 0.05741 0.53739 0.90069 0.0
C1978 C 0.05002 0.54418 0.88539 0.0
C1979 C 0.04082 0.52991 0.87048 0.0
C1980 C 0.05497 0.56722 0.88335 0.0
C1981 C 0.06736 0.5523 0.91699 0.0
C1982 C 0.04275 0.57517 0.89253 0.0
C1983 C 0.04797 0.59717 0.89024 0.0
C1984 C 0.06556 0.61148 0.87881 0.0
C1985 C 0.07765 0.60326 0.86968 0.0
C1986 C 0.07235 0.58136 0.87189 0.0
H1987 H 0.07233 0.54455 0.92782 0.0
H1988 H 0.0821 0.56797 0.91268 0.0
H1989 H 0.05526 0.55652 0.92278 0.0
H1990 H 0.02921 0.56438 0.90138 0.0
H1991 H 0.03834 0.60296 0.89749 0.0
H1992 H 0.6058 0.04414 0.40618 0.0
H1993 H 0.56748 0.03504 0.41215 0.0
H1994 H 0.56978 0.0733 0.36524 0.0
H1995 H 0.60781 0.08273 0.35939 0.0
H1996 H 0.555 0.07198 0.41574 0.0
H1997 H 0.51057 0.00952 0.36186 0.0
H1998 H 0.53623 0.01415 0.3718 0.0
H1999 H 0.53641 0.03273 0.35479 0.0
C2000 C 0.59801 0.05042 0.39709 0.0
C2001 C 0.60983 0.06427 0.3824 0.0
C2002 C 0.5762 0.04521 0.40051 0.0
C2003 C 0.56586 0.05336 0.38901 0.0
C2004 C 0.57746 0.0667 0.37414 0.0
H2005 H 0.48114 0.10125 0.37912 0.0
H2006 H 0.50985 0.09212 0.38531 0.0
C2007 C 0.59924 0.0722 0.37091 0.0
C2008 C 0.54355 0.04963 0.39291 0.0
H2009 H 0.49331 0.0298 0.37255 0.0
C2010 C 0.54123 0.06224 0.40668 0.0
C2011 C 0.52564 0.03678 0.38116 0.0
C2012 C 0.52717 0.02234 0.36664 0.0
C2013 C 0.52207 0.06386 0.40794 0.0
C2014 C 0.50501 0.05272 0.39501 0.0
C2015 C 0.50651 0.03849 0.38234 0.0
C2016 C 0.48724 0.05814 0.39269 0.0
C2017 C 0.5207 0.07839 0.42247 0.0
C2018 C 0.46494 0.04193 0.39455 0.0
C2019 C 0.44835 0.04711 0.391 0.0
C2020 C 0.45384 0.06848 0.38524 0.0
C2021 C 0.47626 0.08463 0.3835 0.0
C2022 C 0.49274 0.07949 0.38718 0.0
H2023 H 0.53118 0.07996 0.43441 0.0
H2024 H 0.52675 0.09517 0.4168 0.0
H2025 H 0.50342 0.07181 0.42714 0.0
H2026 H 0.4604 0.02529 0.3986 0.0
H2027 H 0.43126 0.03426 0.39244 0.0
H2028 H 0.51837 0.61657 0.86484 0.0
H2029 H 0.48844 0.57889 0.86924 0.0
H2030 H 0.53222 0.56308 0.89853 0.0
H2031 H 0.56257 0.60111 0.89434 0.0
H2032 H 0.48766 0.53898 0.85787 0.0
H2033 H 0.47773 0.5434 0.93295 0.0
H2034 H 0.49223 0.56799 0.91916 0.0
H2035 H 0.50478 0.55161 0.92408 0.0
C2036 C 0.52178 0.6052 0.87224 0.0
C2037 C 0.54296 0.61197 0.87926 0.0
C2038 C 0.5046 0.58361 0.87471 0.0
C2039 C 0.50809 0.56828 0.88429 0.0
C2040 C 0.52916 0.57479 0.89127 0.0
H2041 H 0.39473 0.4315 0.88695 0.0
H2042 H 0.43342 0.4611 0.88948 0.0
C2043 C 0.54648 0.59649 0.8888 0.0
C2044 C 0.48937 0.54555 0.88667 0.0
H2045 H 0.45048 0.51202 0.91762 0.0
C2046 C 0.4798 0.5328 0.87099 0.0
C2047 C 0.47919 0.53764 0.90382 0.0
C2048 C 0.48884 0.55081 0.92102 0.0
C2049 C 0.45966 0.5129 0.87185 0.0
C2050 C 0.44887 0.50563 0.88882 0.0
C2051 C 0.45896 0.5177 0.90467 0.0
C2052 C 0.42575 0.48747 0.88972 0.0
C2053 C 0.44925 0.50043 0.8545 0.0
C2054 C 0.40881 0.49263 0.88935 0.0
C2055 C 0.38685 0.47592 0.88772 0.0
C2056 C 0.38139 0.45367 0.88655 0.0
C2057 C 0.39839 0.44847 0.88783 0.0
C2058 C 0.42046 0.4653 0.88928 0.0
H2059 H 0.46004 0.50802 0.84243 0.0
H2060 H 0.4456 0.4831 0.85582 0.0
H2061 H 0.43334 0.49998 0.85213 0.0
H2062 H 0.41266 0.50969 0.88964 0.0
H2063 H 0.37418 0.48049 0.88696 0.0
loop_
_geom_bond_atom_site_label_1
_geom_bond_atom_site_label_2
_geom_bond_distance
_geom_bond_site_symmetry_2
_ccdc_geom_bond_type
Co0 O1 2.216 . S
Co0 O2 2.091 . S
Co0 O4 2.004 . S
Co0 O10 2.021 . S
Co0 O12 2.137 . S
Co0 O13 2.244 . S
O1 Co0 2.216 . S
O1 C8 1.247 . S
O2 Co0 2.091 . S
O2 C8 1.261 . S
C3 O12 1.247 . S
C3 O13 1.272 . S
O4 Co0 2.004 . S
O4 C9 1.259 . S
Co5 O6 2.061 . S
Co5 O11 2.052 . S
Co5 O13 2.135 . S
O6 Co5 2.061 . S
O6 C9 1.235 . S
C7 O10 1.238 . S
C7 O11 1.241 . S
C8 O1 1.247 . S
C8 O2 1.261 . S
C9 O4 1.259 . S
C9 O6 1.235 . S
O10 Co0 2.021 . S
O10 C7 1.238 . S
O11 Co5 2.052 . S
O11 C7 1.241 . S
O12 Co0 2.137 . S
O12 C3 1.247 . S
O13 Co0 2.244 . S
O13 C3 1.272 . S
O13 Co5 2.135 . S
Co14 O15 2.216 . S
Co14 O16 2.091 . S
Co14 O18 2.004 . S
Co14 O24 2.021 . S
Co14 O26 2.137 . S
Co14 O27 2.244 . S
O15 Co14 2.216 . S
O15 C22 1.247 . S
O16 Co14 2.091 . S
O16 C22 1.261 . S
C17 O26 1.247 . S
C17 O27 1.272 . S
O18 Co14 2.004 . S
O18 C23 1.259 . S
Co19 O20 2.061 . S
Co19 O25 2.052 . S
Co19 O27 2.135 . S
O20 Co19 2.061 . S
O20 C23 1.235 . S
C21 O24 1.238 . S
C21 O25 1.241 . S
C22 O15 1.247 . S
C22 O16 1.261 . S
C23 O18 1.259 . S
C23 O20 1.235 . S
O24 Co14 2.021 . S
O24 C21 1.238 . S
O25 Co19 2.052 . S
O25 C21 1.241 . S
O26 Co14 2.137 . S
O26 C17 1.247 . S
O27 Co14 2.244 . S
O27 C17 1.272 . S
O27 Co19 2.135 . S
Co28 O29 2.216 . S
Co28 O30 2.091 . S
Co28 O32 2.004 . S
Co28 O38 2.021 . S
Co28 O40 2.137 . S
Co28 O41 2.244 . S
O29 Co28 2.216 . S
O29 C36 1.247 . S
O30 Co28 2.091 . S
O30 C36 1.261 . S
C31 O40 1.247 . S
C31 O41 1.272 . S
O32 Co28 2.004 . S
O32 C37 1.259 . S
Co33 O34 2.061 . S
Co33 O39 2.052 . S
Co33 O41 2.135 . S
O34 Co33 2.061 . S
O34 C37 1.235 . S
C35 O38 1.238 . S
C35 O39 1.241 . S
C36 O29 1.247 . S
C36 O30 1.261 . S
C37 O32 1.259 . S
C37 O34 1.235 . S
O38 Co28 2.021 . S
O38 C35 1.238 . S
O39 Co33 2.052 . S
O39 C35 1.241 . S
O40 Co28 2.137 . S
O40 C31 1.247 . S
O41 Co28 2.244 . S
O41 C31 1.272 . S
O41 Co33 2.135 . S
Co42 O43 2.216 . S
Co42 O44 2.091 . S
Co42 O46 2.004 . S
Co42 O52 2.021 . S
Co42 O54 2.137 . S
Co42 O55 2.244 . S
O43 Co42 2.216 . S
O43 C50 1.247 . S
O44 Co42 2.091 . S
O44 C50 1.261 . S
C45 O54 1.247 . S
C45 O55 1.272 . S
O46 Co42 2.004 . S
O46 C51 1.259 . S
Co47 O48 2.061 . S
Co47 O53 2.052 . S
Co47 O55 2.135 . S
O48 Co47 2.061 . S
O48 C51 1.235 . S
C49 O52 1.238 . S
C49 O53 1.241 . S
C50 O43 1.247 . S
C50 O44 1.261 . S
C51 O46 1.259 . S
C51 O48 1.235 . S
O52 Co42 2.021 . S
O52 C49 1.238 . S
O53 Co47 2.052 . S
O53 C49 1.241 . S
O54 Co42 2.137 . S
O54 C45 1.247 . S
O55 Co42 2.244 . S
O55 C45 1.272 . S
O55 Co47 2.135 . S
Co56 O57 2.216 . S
Co56 O58 2.091 . S
Co56 O60 2.004 . S
Co56 O66 2.021 . S
Co56 O68 2.137 . S
Co56 O69 2.244 . S
O57 Co56 2.216 . S
O57 C64 1.247 . S
O58 Co56 2.091 . S
O58 C64 1.261 . S
C59 O68 1.247 . S
C59 O69 1.272 . S
O60 Co56 2.004 . S
O60 C65 1.259 . S
Co61 O62 2.061 . S
Co61 O67 2.052 . S
Co61 O69 2.135 . S
O62 Co61 2.061 . S
O62 C65 1.235 . S
C63 O66 1.238 . S
C63 O67 1.241 . S
C64 O57 1.247 . S
C64 O58 1.261 . S
C65 O60 1.259 . S
C65 O62 1.235 . S
O66 Co56 2.021 . S
O66 C63 1.238 . S
O67 Co61 2.052 . S
O67 C63 1.241 . S
O68 Co56 2.137 . S
O68 C59 1.247 . S
O69 Co56 2.244 . S
O69 C59 1.272 . S
O69 Co61 2.135 . S
Co70 O71 2.216 . S
Co70 O72 2.091 . S
Co70 O74 2.004 . S
Co70 O80 2.021 . S
Co70 O82 2.137 . S
Co70 O83 2.244 . S
O71 Co70 2.216 . S
O71 C78 1.247 . S
O72 Co70 2.091 . S
O72 C78 1.261 . S
C73 O82 1.247 . S
C73 O83 1.272 . S
O74 Co70 2.004 . S
O74 C79 1.259 . S
Co75 O76 2.061 . S
Co75 O81 2.052 . S
Co75 O83 2.135 . S
O76 Co75 2.061 . S
O76 C79 1.235 . S
C77 O80 1.238 . S
C77 O81 1.241 . S
C78 O71 1.247 . S
C78 O72 1.261 . S
C79 O74 1.259 . S
C79 O76 1.235 . S
O80 Co70 2.021 . S
O80 C77 1.238 . S
O81 Co75 2.052 . S
O81 C77 1.241 . S
O82 Co70 2.137 . S
O82 C73 1.247 . S
O83 Co70 2.244 . S
O83 C73 1.272 . S
O83 Co75 2.135 . S
Co84 O85 2.216 . S
Co84 O86 2.091 . S
Co84 O88 2.004 . S
Co84 O94 2.021 . S
Co84 O96 2.137 . S
Co84 O97 2.244 . S
O85 Co84 2.216 . S
O85 C92 1.247 . S
O86 Co84 2.091 . S
O86 C92 1.261 . S
C87 O96 1.247 . S
C87 O97 1.272 . S
O88 Co84 2.004 . S
O88 C93 1.259 . S
Co89 O90 2.061 . S
Co89 O95 2.052 . S
Co89 O97 2.135 . S
O90 Co89 2.061 . S
O90 C93 1.235 . S
C91 O94 1.238 . S
C91 O95 1.241 . S
C92 O85 1.247 . S
C92 O86 1.261 . S
C93 O88 1.259 . S
C93 O90 1.235 . S
O94 Co84 2.021 . S
O94 C91 1.238 . S
O95 Co89 2.052 . S
O95 C91 1.241 . S
O96 Co84 2.137 . S
O96 C87 1.247 . S
O97 Co84 2.244 . S
O97 C87 1.272 . S
O97 Co89 2.135 . S
Co98 O99 2.216 . S
Co98 O100 2.091 . S
Co98 O102 2.004 . S
Co98 O108 2.021 . S
Co98 O110 2.137 . S
Co98 O111 2.244 . S
O99 Co98 2.216 . S
O99 C106 1.247 . S
O100 Co98 2.091 . S
O100 C106 1.261 . S
C101 O110 1.247 . S
C101 O111 1.272 . S
O102 Co98 2.004 . S
O102 C107 1.259 . S
Co103 O104 2.061 . S
Co103 O109 2.052 . S
Co103 O111 2.135 . S
O104 Co103 2.061 . S
O104 C107 1.235 . S
C105 O108 1.238 . S
C105 O109 1.241 . S
C106 O99 1.247 . S
C106 O100 1.261 . S
C107 O102 1.259 . S
C107 O104 1.235 . S
O108 Co98 2.021 . S
O108 C105 1.238 . S
O109 Co103 2.052 . S
O109 C105 1.241 . S
O110 Co98 2.137 . S
O110 C101 1.247 . S
O111 Co98 2.244 . S
O111 C101 1.272 . S
O111 Co103 2.135 . S
Co112 O113 2.216 . S
Co112 O114 2.091 . S
Co112 O116 2.004 . S
Co112 O122 2.021 . S
Co112 O124 2.137 . S
Co112 O125 2.244 . S
O113 Co112 2.216 . S
O113 C120 1.247 . S
O114 Co112 2.091 . S
O114 C120 1.261 . S
C115 O124 1.247 . S
C115 O125 1.272 . S
O116 Co112 2.004 . S
O116 C121 1.259 . S
Co117 O118 2.061 . S
Co117 O123 2.052 . S
Co117 O125 2.135 . S
O118 Co117 2.061 . S
O118 C121 1.235 . S
C119 O122 1.238 . S
C119 O123 1.241 . S
C120 O113 1.247 . S
C120 O114 1.261 . S
C121 O116 1.259 . S
C121 O118 1.235 . S
O122 Co112 2.021 . S
O122 C119 1.238 . S
O123 Co117 2.052 . S
O123 C119 1.241 . S
O124 Co112 2.137 . S
O124 C115 1.247 . S
O125 Co112 2.244 . S
O125 C115 1.272 . S
O125 Co117 2.135 . S
Co126 O127 2.216 . S
Co126 O128 2.091 . S
Co126 O130 2.004 . S
Co126 O136 2.021 . S
Co126 O138 2.137 . S
Co126 O139 2.244 . S
O127 Co126 2.216 . S
O127 C134 1.247 . S
O128 Co126 2.091 . S
O128 C134 1.261 . S
C129 O138 1.247 . S
C129 O139 1.272 . S
O130 Co126 2.004 . S
O130 C135 1.259 . S
Co131 O132 2.061 . S
Co131 O137 2.052 . S
Co131 O139 2.135 . S
O132 Co131 2.061 . S
O132 C135 1.235 . S
C133 O136 1.238 . S
C133 O137 1.241 . S
C134 O127 1.247 . S
C134 O128 1.261 . S
C135 O130 1.259 . S
C135 O132 1.235 . S
O136 Co126 2.021 . S
O136 C133 1.238 . S
O137 Co131 2.052 . S
O137 C133 1.241 . S
O138 Co126 2.137 . S
O138 C129 1.247 . S
O139 Co126 2.244 . S
O139 C129 1.272 . S
O139 Co131 2.135 . S
Co140 O141 2.216 . S
Co140 O142 2.091 . S
Co140 O144 2.004 . S
Co140 O150 2.021 . S
Co140 O152 2.137 . S
Co140 O153 2.244 . S
O141 Co140 2.216 . S
O141 C148 1.247 . S
O142 Co140 2.091 . S
O142 C148 1.261 . S
C143 O152 1.247 . S
C143 O153 1.272 . S
O144 Co140 2.004 . S
O144 C149 1.259 . S
Co145 O146 2.061 . S
Co145 O151 2.052 . S
Co145 O153 2.135 . S
O146 Co145 2.061 . S
O146 C149 1.235 . S
C147 O150 1.238 . S
C147 O151 1.241 . S
C148 O141 1.247 . S
C148 O142 1.261 . S
C149 O144 1.259 . S
C149 O146 1.235 . S
O150 Co140 2.021 . S
O150 C147 1.238 . S
O151 Co145 2.052 . S
O151 C147 1.241 . S
O152 Co140 2.137 . S
O152 C143 1.247 . S
O153 Co140 2.244 . S
O153 C143 1.272 . S
O153 Co145 2.135 . S
Co154 O155 2.216 . S
Co154 O156 2.091 . S
Co154 O158 2.004 . S
Co154 O164 2.021 . S
Co154 O166 2.137 . S
Co154 O167 2.244 . S
O155 Co154 2.216 . S
O155 C162 1.247 . S
O156 Co154 2.091 . S
O156 C162 1.261 . S
C157 O166 1.247 . S
C157 O167 1.272 . S
O158 Co154 2.004 . S
O158 C163 1.259 . S
Co159 O160 2.061 . S
Co159 O165 2.052 . S
Co159 O167 2.135 . S
O160 Co159 2.061 . S
O160 C163 1.235 . S
C161 O164 1.238 . S
C161 O165 1.241 . S
C162 O155 1.247 . S
C162 O156 1.261 . S
C163 O158 1.259 . S
C163 O160 1.235 . S
O164 Co154 2.021 . S
O164 C161 1.238 . S
O165 Co159 2.052 . S
O165 C161 1.241 . S
O166 Co154 2.137 . S
O166 C157 1.247 . S
O167 Co154 2.244 . S
O167 C157 1.272 . S
O167 Co159 2.135 . S
Co168 O169 2.216 . S
Co168 O170 2.091 . S
Co168 O172 2.004 . S
Co168 O178 2.021 . S
Co168 O180 2.137 . S
Co168 O181 2.244 . S
O169 Co168 2.216 . S
O169 C176 1.247 . S
O170 Co168 2.091 . S
O170 C176 1.261 . S
C171 O180 1.247 . S
C171 O181 1.272 . S
O172 Co168 2.004 . S
O172 C177 1.259 . S
Co173 O174 2.061 . S
Co173 O179 2.052 . S
Co173 O181 2.135 . S
O174 Co173 2.061 . S
O174 C177 1.235 . S
C175 O178 1.238 . S
C175 O179 1.241 . S
C176 O169 1.247 . S
C176 O170 1.261 . S
C177 O172 1.259 . S
C177 O174 1.235 . S
O178 Co168 2.021 . S
O178 C175 1.238 . S
O179 Co173 2.052 . S
O179 C175 1.241 . S
O180 Co168 2.137 . S
O180 C171 1.247 . S
O181 Co168 2.244 . S
O181 C171 1.272 . S
O181 Co173 2.135 . S
Co182 O183 2.216 . S
Co182 O184 2.091 . S
Co182 O186 2.004 . S
Co182 O192 2.021 . S
Co182 O194 2.137 . S
Co182 O195 2.244 . S
O183 Co182 2.216 . S
O183 C190 1.247 . S
O184 Co182 2.091 . S
O184 C190 1.261 . S
C185 O194 1.247 . S
C185 O195 1.272 . S
O186 Co182 2.004 . S
O186 C191 1.259 . S
Co187 O188 2.061 . S
Co187 O193 2.052 . S
Co187 O195 2.135 . S
O188 Co187 2.061 . S
O188 C191 1.235 . S
C189 O192 1.238 . S
C189 O193 1.241 . S
C190 O183 1.247 . S
C190 O184 1.261 . S
C191 O186 1.259 . S
C191 O188 1.235 . S
O192 Co182 2.021 . S
O192 C189 1.238 . S
O193 Co187 2.052 . S
O193 C189 1.241 . S
O194 Co182 2.137 . S
O194 C185 1.247 . S
O195 Co182 2.244 . S
O195 C185 1.272 . S
O195 Co187 2.135 . S
Co196 O197 2.216 . S
Co196 O198 2.091 . S
Co196 O200 2.004 . S
Co196 O206 2.021 . S
Co196 O208 2.137 . S
Co196 O209 2.244 . S
O197 Co196 2.216 . S
O197 C204 1.247 . S
O198 Co196 2.091 . S
O198 C204 1.261 . S
C199 O208 1.247 . S
C199 O209 1.272 . S
O200 Co196 2.004 . S
O200 C205 1.259 . S
Co201 O202 2.061 . S
Co201 O207 2.052 . S
Co201 O209 2.135 . S
O202 Co201 2.061 . S
O202 C205 1.235 . S
C203 O206 1.238 . S
C203 O207 1.241 . S
C204 O197 1.247 . S
C204 O198 1.261 . S
C205 O200 1.259 . S
C205 O202 1.235 . S
O206 Co196 2.021 . S
O206 C203 1.238 . S
O207 Co201 2.052 . S
O207 C203 1.241 . S
O208 Co196 2.137 . S
O208 C199 1.247 . S
O209 Co196 2.244 . S
O209 C199 1.272 . S
O209 Co201 2.135 . S
Co210 O211 2.216 . S
Co210 O212 2.091 . S
Co210 O214 2.004 . S
Co210 O220 2.021 . S
Co210 O222 2.137 . S
Co210 O223 2.244 . S
O211 Co210 2.216 . S
O211 C218 1.247 . S
O212 Co210 2.091 . S
O212 C218 1.261 . S
C213 O222 1.247 . S
C213 O223 1.272 . S
O214 Co210 2.004 . S
O214 C219 1.259 . S
Co215 O216 2.061 . S
Co215 O221 2.052 . S
Co215 O223 2.135 . S
O216 Co215 2.061 . S
O216 C219 1.235 . S
C217 O220 1.238 . S
C217 O221 1.241 . S
C218 O211 1.247 . S
C218 O212 1.261 . S
C219 O214 1.259 . S
C219 O216 1.235 . S
O220 Co210 2.021 . S
O220 C217 1.238 . S
O221 Co215 2.052 . S
O221 C217 1.241 . S
O222 Co210 2.137 . S
O222 C213 1.247 . S
O223 Co210 2.244 . S
O223 C213 1.272 . S
O223 Co215 2.135 . S
Co224 O225 2.216 . S
Co224 O226 2.091 . S
Co224 O228 2.004 . S
Co224 O234 2.021 . S
Co224 O236 2.137 . S
Co224 O237 2.244 . S
O225 Co224 2.216 . S
O225 C232 1.247 . S
O226 Co224 2.091 . S
O226 C232 1.261 . S
C227 O236 1.247 . S
C227 O237 1.272 . S
O228 Co224 2.004 . S
O228 C233 1.259 . S
Co229 O230 2.061 . S
Co229 O235 2.052 . S
Co229 O237 2.135 . S
O230 Co229 2.061 . S
O230 C233 1.235 . S
C231 O234 1.238 . S
C231 O235 1.241 . S
C232 O225 1.247 . S
C232 O226 1.261 . S
C233 O228 1.259 . S
C233 O230 1.235 . S
O234 Co224 2.021 . S
O234 C231 1.238 . S
O235 Co229 2.052 . S
O235 C231 1.241 . S
O236 Co224 2.137 . S
O236 C227 1.247 . S
O237 Co224 2.244 . S
O237 C227 1.272 . S
O237 Co229 2.135 . S
Co238 O239 2.216 . S
Co238 O240 2.091 . S
Co238 O242 2.004 . S
Co238 O248 2.021 . S
Co238 O250 2.137 . S
Co238 O251 2.244 . S
O239 Co238 2.216 . S
O239 C246 1.247 . S
O240 Co238 2.091 . S
O240 C246 1.261 . S
C241 O250 1.247 . S
C241 O251 1.272 . S
O242 Co238 2.004 . S
O242 C247 1.259 . S
Co243 O244 2.061 . S
Co243 O249 2.052 . S
Co243 O251 2.135 . S
O244 Co243 2.061 . S
O244 C247 1.235 . S
C245 O248 1.238 . S
C245 O249 1.241 . S
C246 O239 1.247 . S
C246 O240 1.261 . S
C247 O242 1.259 . S
C247 O244 1.235 . S
O248 Co238 2.021 . S
O248 C245 1.238 . S
O249 Co243 2.052 . S
O249 C245 1.241 . S
O250 Co238 2.137 . S
O250 C241 1.247 . S
O251 Co238 2.244 . S
O251 C241 1.272 . S
O251 Co243 2.135 . S
Co252 O253 2.216 . S
Co252 O254 2.091 . S
Co252 O256 2.004 . S
Co252 O262 2.021 . S
Co252 O264 2.137 . S
Co252 O265 2.244 . S
O253 Co252 2.216 . S
O253 C260 1.247 . S
O254 Co252 2.091 . S
O254 C260 1.261 . S
C255 O264 1.247 . S
C255 O265 1.272 . S
O256 Co252 2.004 . S
O256 C261 1.259 . S
Co257 O258 2.061 . S
Co257 O263 2.052 . S
Co257 O265 2.135 . S
O258 Co257 2.061 . S
O258 C261 1.235 . S
C259 O262 1.238 . S
C259 O263 1.241 . S
C260 O253 1.247 . S
C260 O254 1.261 . S
C261 O256 1.259 . S
C261 O258 1.235 . S
O262 Co252 2.021 . S
O262 C259 1.238 . S
O263 Co257 2.052 . S
O263 C259 1.241 . S
O264 Co252 2.137 . S
O264 C255 1.247 . S
O265 Co252 2.244 . S
O265 C255 1.272 . S
O265 Co257 2.135 . S
Co266 O267 2.216 . S
Co266 O268 2.091 . S
Co266 O270 2.004 . S
Co266 O276 2.021 . S
Co266 O278 2.137 . S
Co266 O279 2.244 . S
O267 Co266 2.216 . S
O267 C274 1.247 . S
O268 Co266 2.091 . S
O268 C274 1.261 . S
C269 O278 1.247 . S
C269 O279 1.272 . S
O270 Co266 2.004 . S
O270 C275 1.259 . S
Co271 O272 2.061 . S
Co271 O277 2.052 . S
Co271 O279 2.135 . S
O272 Co271 2.061 . S
O272 C275 1.235 . S
C273 O276 1.238 . S
C273 O277 1.241 . S
C274 O267 1.247 . S
C274 O268 1.261 . S
C275 O270 1.259 . S
C275 O272 1.235 . S
O276 Co266 2.021 . S
O276 C273 1.238 . S
O277 Co271 2.052 . S
O277 C273 1.241 . S
O278 Co266 2.137 . S
O278 C269 1.247 . S
O279 Co266 2.244 . S
O279 C269 1.272 . S
O279 Co271 2.135 . S
Co280 O281 2.216 . S
Co280 O282 2.091 . S
Co280 O284 2.004 . S
Co280 O290 2.021 . S
Co280 O292 2.137 . S
Co280 O293 2.244 . S
O281 Co280 2.216 . S
O281 C288 1.247 . S
O282 Co280 2.091 . S
O282 C288 1.261 . S
C283 O292 1.247 . S
C283 O293 1.272 . S
O284 Co280 2.004 . S
O284 C289 1.259 . S
Co285 O286 2.061 . S
Co285 O291 2.052 . S
Co285 O293 2.135 . S
O286 Co285 2.061 . S
O286 C289 1.235 . S
C287 O290 1.238 . S
C287 O291 1.241 . S
C288 O281 1.247 . S
C288 O282 1.261 . S
C289 O284 1.259 . S
C289 O286 1.235 . S
O290 Co280 2.021 . S
O290 C287 1.238 . S
O291 Co285 2.052 . S
O291 C287 1.241 . S
O292 Co280 2.137 . S
O292 C283 1.247 . S
O293 Co280 2.244 . S
O293 C283 1.272 . S
O293 Co285 2.135 . S
Co294 O295 2.216 . S
Co294 O296 2.091 . S
Co294 O298 2.004 . S
Co294 O304 2.021 . S
Co294 O306 2.137 . S
Co294 O307 2.244 . S
O295 Co294 2.216 . S
O295 C302 1.247 . S
O296 Co294 2.091 . S
O296 C302 1.261 . S
C297 O306 1.247 . S
C297 O307 1.272 . S
O298 Co294 2.004 . S
O298 C303 1.259 . S
Co299 O300 2.061 . S
Co299 O305 2.052 . S
Co299 O307 2.135 . S
O300 Co299 2.061 . S
O300 C303 1.235 . S
C301 O304 1.238 . S
C301 O305 1.241 . S
C302 O295 1.247 . S
C302 O296 1.261 . S
C303 O298 1.259 . S
C303 O300 1.235 . S
O304 Co294 2.021 . S
O304 C301 1.238 . S
O305 Co299 2.052 . S
O305 C301 1.241 . S
O306 Co294 2.137 . S
O306 C297 1.247 . S
O307 Co294 2.244 . S
O307 C297 1.272 . S
O307 Co299 2.135 . S
Co308 O309 2.216 . S
Co308 O310 2.091 . S
Co308 O312 2.004 . S
Co308 O318 2.021 . S
Co308 O320 2.137 . S
Co308 O321 2.244 . S
O309 Co308 2.216 . S
O309 C316 1.247 . S
O310 Co308 2.091 . S
O310 C316 1.261 . S
C311 O320 1.247 . S
C311 O321 1.272 . S
O312 Co308 2.004 . S
O312 C317 1.259 . S
Co313 O314 2.061 . S
Co313 O319 2.052 . S
Co313 O321 2.135 . S
O314 Co313 2.061 . S
O314 C317 1.235 . S
C315 O318 1.238 . S
C315 O319 1.241 . S
C316 O309 1.247 . S
C316 O310 1.261 . S
C317 O312 1.259 . S
C317 O314 1.235 . S
O318 Co308 2.021 . S
O318 C315 1.238 . S
O319 Co313 2.052 . S
O319 C315 1.241 . S
O320 Co308 2.137 . S
O320 C311 1.247 . S
O321 Co308 2.244 . S
O321 C311 1.272 . S
O321 Co313 2.135 . S
Co322 O323 2.216 . S
Co322 O324 2.091 . S
Co322 O326 2.004 . S
Co322 O332 2.021 . S
Co322 O334 2.137 . S
Co322 O335 2.244 . S
O323 Co322 2.216 . S
O323 C330 1.247 . S
O324 Co322 2.091 . S
O324 C330 1.261 . S
C325 O334 1.247 . S
C325 O335 1.272 . S
O326 Co322 2.004 . S
O326 C331 1.259 . S
Co327 O328 2.061 . S
Co327 O333 2.052 . S
Co327 O335 2.135 . S
O328 Co327 2.061 . S
O328 C331 1.235 . S
C329 O332 1.238 . S
C329 O333 1.241 . S
C330 O323 1.247 . S
C330 O324 1.261 . S
C331 O326 1.259 . S
C331 O328 1.235 . S
O332 Co322 2.021 . S
O332 C329 1.238 . S
O333 Co327 2.052 . S
O333 C329 1.241 . S
O334 Co322 2.137 . S
O334 C325 1.247 . S
O335 Co322 2.244 . S
O335 C325 1.272 . S
O335 Co327 2.135 . S
H336 C344 0.929 . S
H337 C346 0.930 . S
H338 C348 0.930 . S
H339 C351 0.929 . S
H340 C354 0.930 . S
H341 C356 0.960 . S
H342 C356 0.960 . S
H343 C356 0.960 . S
C344 H336 0.929 . S
C344 C345 1.377 . S
C344 C346 1.384 . S
C345 C344 1.377 . S
C345 C351 1.390 . S
C346 H337 0.930 . S
C346 C344 1.384 . S
C346 C347 1.372 . S
C347 C346 1.372 . S
C347 C348 1.400 . S
C347 C352 1.490 . S
C348 H338 0.930 . S
C348 C347 1.400 . S
C348 C351 1.386 . S
H349 C365 0.930 . S
H350 C366 0.931 . S
C351 H339 0.929 . S
C351 C345 1.390 . S
C351 C348 1.386 . S
C352 C347 1.490 . S
C352 C354 1.395 . S
C352 C355 1.403 . S
H353 C359 0.930 . S
C354 H340 0.930 . S
C354 C352 1.395 . S
C354 C357 1.403 . S
C355 C352 1.403 . S
C355 C356 1.524 . S
C355 C359 1.400 . S
C356 H341 0.960 . S
C356 H342 0.960 . S
C356 H343 0.960 . S
C356 C355 1.524 . S
C357 C354 1.403 . S
C357 C358 1.392 . S
C357 C361 1.495 . S
C358 C357 1.392 . S
C358 C359 1.385 . S
C358 C360 1.478 . S
C359 H353 0.930 . S
C359 C355 1.400 . S
C359 C358 1.385 . S
C360 C358 1.478 . S
C360 C362 1.381 . S
C360 C366 1.383 . S
C361 C357 1.495 . S
C361 H367 0.959 . S
C361 H368 0.961 . S
C361 H369 0.960 . S
C362 C360 1.381 . S
C362 C363 1.394 . S
C362 H370 0.930 . S
C363 C362 1.394 . S
C363 C364 1.383 . S
C363 H371 0.929 . S
C364 C363 1.383 . S
C364 C365 1.377 . S
C365 H349 0.930 . S
C365 C364 1.377 . S
C365 C366 1.379 . S
C366 H350 0.931 . S
C366 C360 1.383 . S
C366 C365 1.379 . S
H367 C361 0.959 . S
H368 C361 0.961 . S
H369 C361 0.960 . S
H370 C362 0.930 . S
H371 C363 0.929 . S
H372 C380 0.929 . S
H373 C382 0.930 . S
H374 C384 0.930 . S
H375 C387 0.929 . S
H376 C390 0.930 . S
H377 C392 0.960 . S
H378 C392 0.960 . S
H379 C392 0.960 . S
C380 H372 0.929 . S
C380 C381 1.377 . S
C380 C382 1.384 . S
C381 C380 1.377 . S
C381 C387 1.390 . S
C382 H373 0.930 . S
C382 C380 1.384 . S
C382 C383 1.372 . S
C383 C382 1.372 . S
C383 C384 1.400 . S
C383 C388 1.490 . S
C384 H374 0.930 . S
C384 C383 1.400 . S
C384 C387 1.386 . S
H385 C401 0.930 . S
H386 C402 0.931 . S
C387 H375 0.929 . S
C387 C381 1.390 . S
C387 C384 1.386 . S
C388 C383 1.490 . S
C388 C390 1.395 . S
C388 C391 1.403 . S
H389 C395 0.930 . S
C390 H376 0.930 . S
C390 C388 1.395 . S
C390 C393 1.403 . S
C391 C388 1.403 . S
C391 C392 1.524 . S
C391 C395 1.400 . S
C392 H377 0.960 . S
C392 H378 0.960 . S
C392 H379 0.960 . S
C392 C391 1.524 . S
C393 C390 1.403 . S
C393 C394 1.392 . S
C393 C397 1.495 . S
C394 C393 1.392 . S
C394 C395 1.385 . S
C394 C396 1.478 . S
C395 H389 0.930 . S
C395 C391 1.400 . S
C395 C394 1.385 . S
C396 C394 1.478 . S
C396 C398 1.381 . S
C396 C402 1.383 . S
C397 C393 1.495 . S
C397 H403 0.959 . S
C397 H404 0.961 . S
C397 H405 0.960 . S
C398 C396 1.381 . S
C398 C399 1.394 . S
C398 H406 0.930 . S
C399 C398 1.394 . S
C399 C400 1.383 . S
C399 H407 0.929 . S
C400 C399 1.383 . S
C400 C401 1.377 . S
C401 H385 0.930 . S
C401 C400 1.377 . S
C401 C402 1.379 . S
C402 H386 0.931 . S
C402 C396 1.383 . S
C402 C401 1.379 . S
H403 C397 0.959 . S
H404 C397 0.961 . S
H405 C397 0.960 . S
H406 C398 0.930 . S
H407 C399 0.929 . S
H408 C416 0.929 . S
H409 C418 0.930 . S
H410 C420 0.930 . S
H411 C423 0.929 . S
H412 C426 0.930 . S
H413 C428 0.960 . S
H414 C428 0.960 . S
H415 C428 0.960 . S
C416 H408 0.929 . S
C416 C417 1.377 . S
C416 C418 1.384 . S
C417 C416 1.377 . S
C417 C423 1.390 . S
C418 H409 0.930 . S
C418 C416 1.384 . S
C418 C419 1.372 . S
C419 C418 1.372 . S
C419 C420 1.400 . S
C419 C424 1.490 . S
C420 H410 0.930 . S
C420 C419 1.400 . S
C420 C423 1.386 . S
H421 C437 0.930 . S
H422 C438 0.931 . S
C423 H411 0.929 . S
C423 C417 1.390 . S
C423 C420 1.386 . S
C424 C419 1.490 . S
C424 C426 1.395 . S
C424 C427 1.403 . S
H425 C431 0.930 . S
C426 H412 0.930 . S
C426 C424 1.395 . S
C426 C429 1.403 . S
C427 C424 1.403 . S
C427 C428 1.524 . S
C427 C431 1.400 . S
C428 H413 0.960 . S
C428 H414 0.960 . S
C428 H415 0.960 . S
C428 C427 1.524 . S
C429 C426 1.403 . S
C429 C430 1.392 . S
C429 C433 1.495 . S
C430 C429 1.392 . S
C430 C431 1.385 . S
C430 C432 1.478 . S
C431 H425 0.930 . S
C431 C427 1.400 . S
C431 C430 1.385 . S
C432 C430 1.478 . S
C432 C434 1.381 . S
C432 C438 1.383 . S
C433 C429 1.495 . S
C433 H439 0.959 . S
C433 H440 0.961 . S
C433 H441 0.960 . S
C434 C432 1.381 . S
C434 C435 1.394 . S
C434 H442 0.930 . S
C435 C434 1.394 . S
C435 C436 1.383 . S
C435 H443 0.929 . S
C436 C435 1.383 . S
C436 C437 1.377 . S
C437 H421 0.930 . S
C437 C436 1.377 . S
C437 C438 1.379 . S
C438 H422 0.931 . S
C438 C432 1.383 . S
C438 C437 1.379 . S
H439 C433 0.959 . S
H440 C433 0.961 . S
H441 C433 0.960 . S
H442 C434 0.930 . S
H443 C435 0.929 . S
H444 C452 0.929 . S
H445 C454 0.930 . S
H446 C456 0.930 . S
H447 C459 0.929 . S
H448 C462 0.930 . S
H449 C464 0.960 . S
H450 C464 0.960 . S
H451 C464 0.960 . S
C452 H444 0.929 . S
C452 C453 1.377 . S
C452 C454 1.384 . S
C453 C452 1.377 . S
C453 C459 1.390 . S
C454 H445 0.930 . S
C454 C452 1.384 . S
C454 C455 1.372 . S
C455 C454 1.372 . S
C455 C456 1.400 . S
C455 C460 1.490 . S
C456 H446 0.930 . S
C456 C455 1.400 . S
C456 C459 1.386 . S
H457 C473 0.930 . S
H458 C474 0.931 . S
C459 H447 0.929 . S
C459 C453 1.390 . S
C459 C456 1.386 . S
C460 C455 1.490 . S
C460 C462 1.395 . S
C460 C463 1.403 . S
H461 C467 0.930 . S
C462 H448 0.930 . S
C462 C460 1.395 . S
C462 C465 1.403 . S
C463 C460 1.403 . S
C463 C464 1.524 . S
C463 C467 1.400 . S
C464 H449 0.960 . S
C464 H450 0.960 . S
C464 H451 0.960 . S
C464 C463 1.524 . S
C465 C462 1.403 . S
C465 C466 1.392 . S
C465 C469 1.495 . S
C466 C465 1.392 . S
C466 C467 1.385 . S
C466 C468 1.478 . S
C467 H461 0.930 . S
C467 C463 1.400 . S
C467 C466 1.385 . S
C468 C466 1.478 . S
C468 C470 1.381 . S
C468 C474 1.383 . S
C469 C465 1.495 . S
C469 H475 0.959 1_565 S
C469 H476 0.961 1_565 S
C469 H477 0.960 . S
C470 C468 1.381 . S
C470 C471 1.394 . S
C470 H478 0.930 . S
C471 C470 1.394 . S
C471 C472 1.383 . S
C471 H479 0.929 . S
C472 C471 1.383 . S
C472 C473 1.377 . S
C473 H457 0.930 . S
C473 C472 1.377 . S
C473 C474 1.379 . S
C474 H458 0.931 . S
C474 C468 1.383 . S
C474 C473 1.379 . S
H475 C469 0.959 1_545 S
H476 C469 0.961 1_545 S
H477 C469 0.960 . S
H478 C470 0.930 . S
H479 C471 0.929 . S
H480 C488 0.929 . S
H481 C490 0.930 . S
H482 C492 0.930 . S
H483 C495 0.929 . S
H484 C498 0.930 . S
H485 C500 0.960 . S
H486 C500 0.960 . S
H487 C500 0.960 . S
C488 H480 0.929 . S
C488 C489 1.377 . S
C488 C490 1.384 . S
C489 C488 1.377 . S
C489 C495 1.390 . S
C490 H481 0.930 . S
C490 C488 1.384 . S
C490 C491 1.372 . S
C491 C490 1.372 . S
C491 C492 1.400 . S
C491 C496 1.490 . S
C492 H482 0.930 . S
C492 C491 1.400 . S
C492 C495 1.386 . S
H493 C509 0.930 . S
H494 C510 0.931 . S
C495 H483 0.929 . S
C495 C489 1.390 . S
C495 C492 1.386 . S
C496 C491 1.490 . S
C496 C498 1.395 . S
C496 C499 1.403 . S
H497 C503 0.930 . S
C498 H484 0.930 . S
C498 C496 1.395 . S
C498 C501 1.403 . S
C499 C496 1.403 . S
C499 C500 1.524 . S
C499 C503 1.400 . S
C500 H485 0.960 . S
C500 H486 0.960 . S
C500 H487 0.960 . S
C500 C499 1.524 . S
C501 C498 1.403 . S
C501 C502 1.392 . S
C501 C505 1.495 . S
C502 C501 1.392 . S
C502 C503 1.385 . S
C502 C504 1.478 . S
C503 H497 0.930 . S
C503 C499 1.400 . S
C503 C502 1.385 . S
C504 C502 1.478 . S
C504 C506 1.381 . S
C504 C510 1.383 . S
C505 C501 1.495 . S
C505 H511 0.959 . S
C505 H512 0.961 . S
C505 H513 0.960 . S
C506 C504 1.381 . S
C506 C507 1.394 . S
C506 H514 0.930 . S
C507 C506 1.394 . S
C507 C508 1.383 . S
C507 H515 0.929 . S
C508 C507 1.383 . S
C508 C509 1.377 . S
C509 H493 0.930 . S
C509 C508 1.377 . S
C509 C510 1.379 . S
C510 H494 0.931 . S
C510 C504 1.383 . S
C510 C509 1.379 . S
H511 C505 0.959 . S
H512 C505 0.961 . S
H513 C505 0.960 . S
H514 C506 0.930 . S
H515 C507 0.929 . S
H516 C524 0.929 . S
H517 C526 0.930 . S
H518 C528 0.930 . S
H519 C531 0.929 . S
H520 C534 0.930 . S
H521 C536 0.960 . S
H522 C536 0.960 . S
H523 C536 0.960 . S
C524 H516 0.929 . S
C524 C525 1.377 . S
C524 C526 1.384 . S
C525 C524 1.377 . S
C525 C531 1.390 . S
C526 H517 0.930 . S
C526 C524 1.384 . S
C526 C527 1.372 . S
C527 C526 1.372 . S
C527 C528 1.400 . S
C527 C532 1.490 . S
C528 H518 0.930 . S
C528 C527 1.400 . S
C528 C531 1.386 . S
H529 C545 0.930 . S
H530 C546 0.931 . S
C531 H519 0.929 . S
C531 C525 1.390 . S
C531 C528 1.386 . S
C532 C527 1.490 . S
C532 C534 1.395 . S
C532 C535 1.403 . S
H533 C539 0.930 . S
C534 H520 0.930 . S
C534 C532 1.395 . S
C534 C537 1.403 . S
C535 C532 1.403 . S
C535 C536 1.524 . S
C535 C539 1.400 . S
C536 H521 0.960 . S
C536 H522 0.960 . S
C536 H523 0.960 . S
C536 C535 1.524 . S
C537 C534 1.403 . S
C537 C538 1.392 . S
C537 C541 1.495 . S
C538 C537 1.392 . S
C538 C539 1.385 . S
C538 C540 1.478 . S
C539 H533 0.930 . S
C539 C535 1.400 . S
C539 C538 1.385 . S
C540 C538 1.478 . S
C540 C542 1.381 . S
C540 C546 1.383 . S
C541 C537 1.495 . S
C541 H547 0.959 . S
C541 H548 0.961 . S
C541 H549 0.960 . S
C542 C540 1.381 . S
C542 C543 1.394 . S
C542 H550 0.930 . S
C543 C542 1.394 . S
C543 C544 1.383 . S
C543 H551 0.929 . S
C544 C543 1.383 . S
C544 C545 1.377 . S
C545 H529 0.930 . S
C545 C544 1.377 . S
C545 C546 1.379 . S
C546 H530 0.931 . S
C546 C540 1.383 . S
C546 C545 1.379 . S
H547 C541 0.959 . S
H548 C541 0.961 . S
H549 C541 0.960 . S
H550 C542 0.930 . S
H551 C543 0.929 . S
H552 C560 0.929 . S
H553 C562 0.930 . S
H554 C564 0.930 . S
H555 C567 0.929 . S
H556 C570 0.930 . S
H557 C572 0.960 . S
H558 C572 0.960 . S
H559 C572 0.960 . S
C560 H552 0.929 . S
C560 C561 1.377 . S
C560 C562 1.384 . S
C561 C560 1.377 . S
C561 C567 1.390 . S
C562 H553 0.930 . S
C562 C560 1.384 . S
C562 C563 1.372 . S
C563 C562 1.372 . S
C563 C564 1.400 . S
C563 C568 1.490 . S
C564 H554 0.930 . S
C564 C563 1.400 . S
C564 C567 1.386 . S
H565 C581 0.930 . S
H566 C582 0.931 . S
C567 H555 0.929 . S
C567 C561 1.390 . S
C567 C564 1.386 . S
C568 C563 1.490 . S
C568 C570 1.395 . S
C568 C571 1.403 . S
H569 C575 0.930 . S
C570 H556 0.930 . S
C570 C568 1.395 . S
C570 C573 1.403 . S
C571 C568 1.403 . S
C571 C572 1.524 . S
C571 C575 1.400 . S
C572 H557 0.960 . S
C572 H558 0.960 . S
C572 H559 0.960 . S
C572 C571 1.524 . S
C573 C570 1.403 . S
C573 C574 1.392 . S
C573 C577 1.495 . S
C574 C573 1.392 . S
C574 C575 1.385 . S
C574 C576 1.478 . S
C575 H569 0.930 . S
C575 C571 1.400 . S
C575 C574 1.385 . S
C576 C574 1.478 . S
C576 C578 1.381 . S
C576 C582 1.383 . S
C577 C573 1.495 . S
C577 H583 0.959 1_655 S
C577 H584 0.961 . S
C577 H585 0.960 1_655 S
C578 C576 1.381 . S
C578 C579 1.394 . S
C578 H586 0.930 . S
C579 C578 1.394 . S
C579 C580 1.383 . S
C579 H587 0.929 . S
C580 C579 1.383 . S
C580 C581 1.377 . S
C581 H565 0.930 . S
C581 C580 1.377 . S
C581 C582 1.379 . S
C582 H566 0.931 . S
C582 C576 1.383 . S
C582 C581 1.379 . S
H583 C577 0.959 1_455 S
H584 C577 0.961 . S
H585 C577 0.960 1_455 S
H586 C578 0.930 . S
H587 C579 0.929 . S
H588 C596 0.929 . S
H589 C598 0.930 . S
H590 C600 0.930 . S
H591 C603 0.929 . S
H592 C606 0.930 . S
H593 C608 0.960 . S
H594 C608 0.960 . S
H595 C608 0.960 . S
C596 H588 0.929 . S
C596 C597 1.377 . S
C596 C598 1.384 . S
C597 C596 1.377 . S
C597 C603 1.390 . S
C598 H589 0.930 . S
C598 C596 1.384 . S
C598 C599 1.372 . S
C599 C598 1.372 . S
C599 C600 1.400 . S
C599 C604 1.490 . S
C600 H590 0.930 . S
C600 C599 1.400 . S
C600 C603 1.386 . S
H601 C617 0.930 . S
H602 C618 0.931 . S
C603 H591 0.929 . S
C603 C597 1.390 . S
C603 C600 1.386 . S
C604 C599 1.490 . S
C604 C606 1.395 . S
C604 C607 1.403 . S
H605 C611 0.930 . S
C606 H592 0.930 . S
C606 C604 1.395 . S
C606 C609 1.403 . S
C607 C604 1.403 . S
C607 C608 1.524 . S
C607 C611 1.400 . S
C608 H593 0.960 . S
C608 H594 0.960 . S
C608 H595 0.960 . S
C608 C607 1.524 . S
C609 C606 1.403 . S
C609 C610 1.392 . S
C609 C613 1.495 . S
C610 C609 1.392 . S
C610 C611 1.385 . S
C610 C612 1.478 . S
C611 H605 0.930 . S
C611 C607 1.400 . S
C611 C610 1.385 . S
C612 C610 1.478 . S
C612 C614 1.381 . S
C612 C618 1.383 . S
C613 C609 1.495 . S
C613 H619 0.959 . S
C613 H620 0.961 . S
C613 H621 0.960 . S
C614 C612 1.381 . S
C614 C615 1.394 . S
C614 H622 0.930 . S
C615 C614 1.394 . S
C615 C616 1.383 . S
C615 H623 0.929 . S
C616 C615 1.383 . S
C616 C617 1.377 . S
C617 H601 0.930 . S
C617 C616 1.377 . S
C617 C618 1.379 . S
C618 H602 0.931 . S
C618 C612 1.383 . S
C618 C617 1.379 . S
H619 C613 0.959 . S
H620 C613 0.961 . S
H621 C613 0.960 . S
H622 C614 0.930 . S
H623 C615 0.929 . S
H624 C632 0.929 . S
H625 C634 0.930 . S
H626 C636 0.930 . S
H627 C639 0.929 . S
H628 C642 0.930 . S
H629 C644 0.960 . S
H630 C644 0.960 . S
H631 C644 0.960 . S
C632 H624 0.929 . S
C632 C633 1.377 . S
C632 C634 1.384 . S
C633 C632 1.377 . S
C633 C639 1.390 . S
C634 H625 0.930 . S
C634 C632 1.384 . S
C634 C635 1.372 . S
C635 C634 1.372 . S
C635 C636 1.400 . S
C635 C640 1.490 . S
C636 H626 0.930 . S
C636 C635 1.400 . S
C636 C639 1.386 . S
H637 C653 0.930 . S
H638 C654 0.931 . S
C639 H627 0.929 . S
C639 C633 1.390 . S
C639 C636 1.386 . S
C640 C635 1.490 . S
C640 C642 1.395 . S
C640 C643 1.403 . S
H641 C647 0.930 . S
C642 H628 0.930 . S
C642 C640 1.395 . S
C642 C645 1.403 . S
C643 C640 1.403 . S
C643 C644 1.524 . S
C643 C647 1.400 . S
C644 H629 0.960 . S
C644 H630 0.960 . S
C644 H631 0.960 . S
C644 C643 1.524 . S
C645 C642 1.403 . S
C645 C646 1.392 . S
C645 C649 1.495 . S
C646 C645 1.392 . S
C646 C647 1.385 . S
C646 C648 1.478 . S
C647 H641 0.930 . S
C647 C643 1.400 . S
C647 C646 1.385 . S
C648 C646 1.478 . S
C648 C650 1.381 . S
C648 C654 1.383 . S
C649 C645 1.495 . S
C649 H655 0.959 . S
C649 H656 0.961 . S
C649 H657 0.960 . S
C650 C648 1.381 . S
C650 C651 1.394 . S
C650 H658 0.930 . S
C651 C650 1.394 . S
C651 C652 1.383 . S
C651 H659 0.929 . S
C652 C651 1.383 . S
C652 C653 1.377 . S
C653 H637 0.930 . S
C653 C652 1.377 . S
C653 C654 1.379 . S
C654 H638 0.931 . S
C654 C648 1.383 . S
C654 C653 1.379 . S
H655 C649 0.959 . S
H656 C649 0.961 . S
H657 C649 0.960 . S
H658 C650 0.930 . S
H659 C651 0.929 . S
H660 C668 0.929 . S
H661 C670 0.930 . S
H662 C672 0.930 . S
H663 C675 0.929 . S
H664 C678 0.930 . S
H665 C680 0.960 . S
H666 C680 0.960 . S
H667 C680 0.960 . S
C668 H660 0.929 . S
C668 C669 1.377 . S
C668 C670 1.384 . S
C669 C668 1.377 . S
C669 C675 1.390 . S
C670 H661 0.930 . S
C670 C668 1.384 . S
C670 C671 1.372 . S
C671 C670 1.372 . S
C671 C672 1.400 . S
C671 C676 1.490 . S
C672 H662 0.930 . S
C672 C671 1.400 . S
C672 C675 1.386 . S
H673 C689 0.930 . S
H674 C690 0.931 . S
C675 H663 0.929 . S
C675 C669 1.390 . S
C675 C672 1.386 . S
C676 C671 1.490 . S
C676 C678 1.395 . S
C676 C679 1.403 . S
H677 C683 0.930 . S
C678 H664 0.930 . S
C678 C676 1.395 . S
C678 C681 1.403 . S
C679 C676 1.403 . S
C679 C680 1.524 . S
C679 C683 1.400 . S
C680 H665 0.960 . S
C680 H666 0.960 . S
C680 H667 0.960 . S
C680 C679 1.524 . S
C681 C678 1.403 . S
C681 C682 1.392 . S
C681 C685 1.495 1_455 S
C682 C681 1.392 . S
C682 C683 1.385 . S
C682 C684 1.478 . S
C683 H677 0.930 . S
C683 C679 1.400 . S
C683 C682 1.385 . S
C684 C682 1.478 . S
C684 C686 1.381 . S
C684 C690 1.383 . S
C685 C681 1.495 1_655 S
C685 H691 0.959 . S
C685 H692 0.961 . S
C685 H693 0.960 . S
C686 C684 1.381 . S
C686 C687 1.394 . S
C686 H694 0.930 . S
C687 C686 1.394 . S
C687 C688 1.383 . S
C687 H695 0.929 . S
C688 C687 1.383 . S
C688 C689 1.377 . S
C689 H673 0.930 . S
C689 C688 1.377 . S
C689 C690 1.379 . S
C690 H674 0.931 . S
C690 C684 1.383 . S
C690 C689 1.379 . S
H691 C685 0.959 . S
H692 C685 0.961 . S
H693 C685 0.960 . S
H694 C686 0.930 . S
H695 C687 0.929 . S
H696 C704 0.929 . S
H697 C706 0.930 . S
H698 C708 0.930 . S
H699 C711 0.929 . S
H700 C714 0.930 . S
H701 C716 0.960 . S
H702 C716 0.960 . S
H703 C716 0.960 . S
C704 H696 0.929 . S
C704 C705 1.377 . S
C704 C706 1.384 . S
C705 C704 1.377 . S
C705 C711 1.390 . S
C706 H697 0.930 . S
C706 C704 1.384 . S
C706 C707 1.372 . S
C707 C706 1.372 . S
C707 C708 1.400 . S
C707 C712 1.490 . S
C708 H698 0.930 . S
C708 C707 1.400 . S
C708 C711 1.386 . S
H709 C725 0.930 . S
H710 C726 0.931 . S
C711 H699 0.929 . S
C711 C705 1.390 . S
C711 C708 1.386 . S
C712 C707 1.490 . S
C712 C714 1.395 . S
C712 C715 1.403 . S
H713 C719 0.930 . S
C714 H700 0.930 . S
C714 C712 1.395 . S
C714 C717 1.403 . S
C715 C712 1.403 . S
C715 C716 1.524 . S
C715 C719 1.400 . S
C716 H701 0.960 . S
C716 H702 0.960 . S
C716 H703 0.960 . S
C716 C715 1.524 . S
C717 C714 1.403 . S
C717 C718 1.392 . S
C717 C721 1.495 1_545 S
C718 C717 1.392 . S
C718 C719 1.385 . S
C718 C720 1.478 . S
C719 H713 0.930 . S
C719 C715 1.400 . S
C719 C718 1.385 . S
C720 C718 1.478 . S
C720 C722 1.381 . S
C720 C726 1.383 . S
C721 C717 1.495 1_565 S
C721 H727 0.959 . S
C721 H728 0.961 1_565 S
C721 H729 0.960 . S
C722 C720 1.381 . S
C722 C723 1.394 . S
C722 H730 0.930 . S
C723 C722 1.394 . S
C723 C724 1.383 . S
C723 H731 0.929 . S
C724 C723 1.383 . S
C724 C725 1.377 . S
C725 H709 0.930 . S
C725 C724 1.377 . S
C725 C726 1.379 . S
C726 H710 0.931 . S
C726 C720 1.383 . S
C726 C725 1.379 . S
H727 C721 0.959 . S
H728 C721 0.961 1_545 S
H729 C721 0.960 . S
H730 C722 0.930 . S
H731 C723 0.929 . S
H732 C740 0.929 . S
H733 C742 0.930 . S
H734 C744 0.930 . S
H735 C747 0.929 . S
H736 C750 0.930 . S
H737 C752 0.960 . S
H738 C752 0.960 . S
H739 C752 0.960 . S
C740 H732 0.929 . S
C740 C741 1.377 . S
C740 C742 1.384 . S
C741 C740 1.377 . S
C741 C747 1.390 . S
C742 H733 0.930 . S
C742 C740 1.384 . S
C742 C743 1.372 . S
C743 C742 1.372 . S
C743 C744 1.400 . S
C743 C748 1.490 . S
C744 H734 0.930 . S
C744 C743 1.400 . S
C744 C747 1.386 . S
H745 C761 0.930 . S
H746 C762 0.931 . S
C747 H735 0.929 . S
C747 C741 1.390 . S
C747 C744 1.386 . S
C748 C743 1.490 . S
C748 C750 1.395 . S
C748 C751 1.403 . S
H749 C755 0.930 . S
C750 H736 0.930 . S
C750 C748 1.395 . S
C750 C753 1.403 . S
C751 C748 1.403 . S
C751 C752 1.524 . S
C751 C755 1.400 . S
C752 H737 0.960 . S
C752 H738 0.960 . S
C752 H739 0.960 . S
C752 C751 1.524 . S
C753 C750 1.403 . S
C753 C754 1.392 . S
C753 C757 1.495 . S
C754 C753 1.392 . S
C754 C755 1.385 . S
C754 C756 1.478 . S
C755 H749 0.930 . S
C755 C751 1.400 . S
C755 C754 1.385 . S
C756 C754 1.478 . S
C756 C758 1.381 . S
C756 C762 1.383 . S
C757 C753 1.495 . S
C757 H763 0.959 . S
C757 H764 0.961 . S
C757 H765 0.960 . S
C758 C756 1.381 . S
C758 C759 1.394 . S
C758 H766 0.930 . S
C759 C758 1.394 . S
C759 C760 1.383 . S
C759 H767 0.929 . S
C760 C759 1.383 . S
C760 C761 1.377 . S
C761 H745 0.930 . S
C761 C760 1.377 . S
C761 C762 1.379 . S
C762 H746 0.931 . S
C762 C756 1.383 . S
C762 C761 1.379 . S
H763 C757 0.959 . S
H764 C757 0.961 . S
H765 C757 0.960 . S
H766 C758 0.930 . S
H767 C759 0.929 . S
H768 C776 0.929 . S
H769 C778 0.930 . S
H770 C780 0.930 . S
H771 C783 0.929 . S
H772 C786 0.930 . S
H773 C788 0.960 . S
H774 C788 0.960 . S
H775 C788 0.960 . S
C776 H768 0.929 . S
C776 C777 1.377 . S
C776 C778 1.384 . S
C777 C776 1.377 . S
C777 C783 1.390 . S
C778 H769 0.930 . S
C778 C776 1.384 . S
C778 C779 1.372 . S
C779 C778 1.372 . S
C779 C780 1.400 . S
C779 C784 1.490 . S
C780 H770 0.930 . S
C780 C779 1.400 . S
C780 C783 1.386 . S
H781 C797 0.930 . S
H782 C798 0.931 . S
C783 H771 0.929 . S
C783 C777 1.390 . S
C783 C780 1.386 . S
C784 C779 1.490 . S
C784 C786 1.395 . S
C784 C787 1.403 . S
H785 C791 0.930 . S
C786 H772 0.930 . S
C786 C784 1.395 . S
C786 C789 1.403 . S
C787 C784 1.403 . S
C787 C788 1.524 . S
C787 C791 1.400 . S
C788 H773 0.960 . S
C788 H774 0.960 . S
C788 H775 0.960 . S
C788 C787 1.524 . S
C789 C786 1.403 . S
C789 C790 1.392 . S
C789 C793 1.495 . S
C790 C789 1.392 . S
C790 C791 1.385 . S
C790 C792 1.478 . S
C791 H785 0.930 . S
C791 C787 1.400 . S
C791 C790 1.385 . S
C792 C790 1.478 . S
C792 C794 1.381 . S
C792 C798 1.383 . S
C793 C789 1.495 . S
C793 H799 0.959 . S
C793 H800 0.961 . S
C793 H801 0.960 . S
C794 C792 1.381 . S
C794 C795 1.394 . S
C794 H802 0.930 . S
C795 C794 1.394 . S
C795 C796 1.383 . S
C795 H803 0.929 . S
C796 C795 1.383 . S
C796 C797 1.377 . S
C797 H781 0.930 . S
C797 C796 1.377 . S
C797 C798 1.379 . S
C798 H782 0.931 . S
C798 C792 1.383 . S
C798 C797 1.379 . S
H799 C793 0.959 . S
H800 C793 0.961 . S
H801 C793 0.960 . S
H802 C794 0.930 . S
H803 C795 0.929 . S
H804 C812 0.929 . S
H805 C814 0.930 . S
H806 C816 0.930 . S
H807 C819 0.929 . S
H808 C822 0.930 . S
H809 C824 0.960 . S
H810 C824 0.960 . S
H811 C824 0.960 . S
C812 H804 0.929 . S
C812 C813 1.377 . S
C812 C814 1.384 . S
C813 C812 1.377 . S
C813 C819 1.390 . S
C814 H805 0.930 . S
C814 C812 1.384 . S
C814 C815 1.372 . S
C815 C814 1.372 . S
C815 C816 1.400 . S
C815 C820 1.490 . S
C816 H806 0.930 . S
C816 C815 1.400 . S
C816 C819 1.386 . S
H817 C833 0.930 . S
H818 C834 0.931 . S
C819 H807 0.929 . S
C819 C813 1.390 . S
C819 C816 1.386 . S
C820 C815 1.490 . S
C820 C822 1.395 . S
C820 C823 1.403 . S
H821 C827 0.930 . S
C822 H808 0.930 . S
C822 C820 1.395 . S
C822 C825 1.403 . S
C823 C820 1.403 . S
C823 C824 1.524 . S
C823 C827 1.400 . S
C824 H809 0.960 . S
C824 H810 0.960 . S
C824 H811 0.960 . S
C824 C823 1.524 . S
C825 C822 1.403 . S
C825 C826 1.392 . S
C825 C829 1.495 . S
C826 C825 1.392 . S
C826 C827 1.385 . S
C826 C828 1.478 . S
C827 H821 0.930 . S
C827 C823 1.400 . S
C827 C826 1.385 . S
C828 C826 1.478 . S
C828 C830 1.381 . S
C828 C834 1.383 . S
C829 C825 1.495 . S
C829 H835 0.959 . S
C829 H836 0.961 . S
C829 H837 0.960 . S
C830 C828 1.381 . S
C830 C831 1.394 . S
C830 H838 0.930 . S
C831 C830 1.394 . S
C831 C832 1.383 . S
C831 H839 0.929 . S
C832 C831 1.383 . S
C832 C833 1.377 . S
C833 H817 0.930 . S
C833 C832 1.377 . S
C833 C834 1.379 . S
C834 H818 0.931 . S
C834 C828 1.383 . S
C834 C833 1.379 . S
H835 C829 0.959 . S
H836 C829 0.961 . S
H837 C829 0.960 . S
H838 C830 0.930 . S
H839 C831 0.929 . S
H840 C848 0.929 . S
H841 C850 0.930 . S
H842 C852 0.930 . S
H843 C855 0.929 . S
H844 C858 0.930 . S
H845 C860 0.960 . S
H846 C860 0.960 . S
H847 C860 0.960 . S
C848 H840 0.929 . S
C848 C849 1.377 . S
C848 C850 1.384 . S
C849 C848 1.377 . S
C849 C855 1.390 . S
C850 H841 0.930 . S
C850 C848 1.384 . S
C850 C851 1.372 . S
C851 C850 1.372 . S
C851 C852 1.400 . S
C851 C856 1.490 . S
C852 H842 0.930 . S
C852 C851 1.400 . S
C852 C855 1.386 . S
H853 C869 0.930 . S
H854 C870 0.931 . S
C855 H843 0.929 . S
C855 C849 1.390 . S
C855 C852 1.386 . S
C856 C851 1.490 . S
C856 C858 1.395 . S
C856 C859 1.403 . S
H857 C863 0.930 . S
C858 H844 0.930 . S
C858 C856 1.395 . S
C858 C861 1.403 . S
C859 C856 1.403 . S
C859 C860 1.524 . S
C859 C863 1.400 . S
C860 H845 0.960 . S
C860 H846 0.960 . S
C860 H847 0.960 . S
C860 C859 1.524 . S
C861 C858 1.403 . S
C861 C862 1.392 . S
C861 C865 1.495 . S
C862 C861 1.392 . S
C862 C863 1.385 . S
C862 C864 1.478 . S
C863 H857 0.930 . S
C863 C859 1.400 . S
C863 C862 1.385 . S
C864 C862 1.478 . S
C864 C866 1.381 . S
C864 C870 1.383 . S
C865 C861 1.495 . S
C865 H871 0.959 . S
C865 H872 0.961 . S
C865 H873 0.960 . S
C866 C864 1.381 . S
C866 C867 1.394 . S
C866 H874 0.930 . S
C867 C866 1.394 . S
C867 C868 1.383 . S
C867 H875 0.929 . S
C868 C867 1.383 . S
C868 C869 1.377 . S
C869 H853 0.930 . S
C869 C868 1.377 . S
C869 C870 1.379 . S
C870 H854 0.931 . S
C870 C864 1.383 . S
C870 C869 1.379 . S
H871 C865 0.959 . S
H872 C865 0.961 . S
H873 C865 0.960 . S
H874 C866 0.930 . S
H875 C867 0.929 . S
H876 C884 0.929 . S
H877 C886 0.930 . S
H878 C888 0.930 . S
H879 C891 0.929 . S
H880 C894 0.930 . S
H881 C896 0.960 . S
H882 C896 0.960 . S
H883 C896 0.960 . S
C884 H876 0.929 . S
C884 C885 1.377 . S
C884 C886 1.384 . S
C885 C884 1.377 . S
C885 C891 1.390 . S
C886 H877 0.930 . S
C886 C884 1.384 . S
C886 C887 1.372 . S
C887 C886 1.372 . S
C887 C888 1.400 . S
C887 C892 1.490 . S
C888 H878 0.930 . S
C888 C887 1.400 . S
C888 C891 1.386 . S
H889 C905 0.930 . S
H890 C906 0.931 . S
C891 H879 0.929 . S
C891 C885 1.390 . S
C891 C888 1.386 . S
C892 C887 1.490 . S
C892 C894 1.395 . S
C892 C895 1.403 . S
H893 C899 0.930 . S
C894 H880 0.930 . S
C894 C892 1.395 . S
C894 C897 1.403 . S
C895 C892 1.403 . S
C895 C896 1.524 . S
C895 C899 1.400 . S
C896 H881 0.960 . S
C896 H882 0.960 . S
C896 H883 0.960 . S
C896 C895 1.524 . S
C897 C894 1.403 . S
C897 C898 1.392 . S
C897 C901 1.495 . S
C898 C897 1.392 . S
C898 C899 1.385 . S
C898 C900 1.478 . S
C899 H893 0.930 . S
C899 C895 1.400 . S
C899 C898 1.385 . S
C900 C898 1.478 . S
C900 C902 1.381 . S
C900 C906 1.383 . S
C901 C897 1.495 . S
C901 H907 0.959 . S
C901 H908 0.961 . S
C901 H909 0.960 . S
C902 C900 1.381 . S
C902 C903 1.394 . S
C902 H910 0.930 . S
C903 C902 1.394 . S
C903 C904 1.383 . S
C903 H911 0.929 . S
C904 C903 1.383 . S
C904 C905 1.377 . S
C905 H889 0.930 . S
C905 C904 1.377 . S
C905 C906 1.379 . S
C906 H890 0.931 . S
C906 C900 1.383 . S
C906 C905 1.379 . S
H907 C901 0.959 . S
H908 C901 0.961 . S
H909 C901 0.960 . S
H910 C902 0.930 . S
H911 C903 0.929 . S
H912 C920 0.929 . S
H913 C922 0.930 . S
H914 C924 0.930 . S
H915 C927 0.929 . S
H916 C930 0.930 . S
H917 C932 0.960 . S
H918 C932 0.960 . S
H919 C932 0.960 . S
C920 H912 0.929 . S
C920 C921 1.377 . S
C920 C922 1.384 . S
C921 C920 1.377 . S
C921 C927 1.390 . S
C922 H913 0.930 . S
C922 C920 1.384 . S
C922 C923 1.372 . S
C923 C922 1.372 . S
C923 C924 1.400 . S
C923 C928 1.490 . S
C924 H914 0.930 . S
C924 C923 1.400 . S
C924 C927 1.386 . S
H925 C941 0.930 . S
H926 C942 0.931 . S
C927 H915 0.929 . S
C927 C921 1.390 . S
C927 C924 1.386 . S
C928 C923 1.490 . S
C928 C930 1.395 . S
C928 C931 1.403 . S
H929 C935 0.930 . S
C930 H916 0.930 . S
C930 C928 1.395 . S
C930 C933 1.403 . S
C931 C928 1.403 . S
C931 C932 1.524 . S
C931 C935 1.400 . S
C932 H917 0.960 . S
C932 H918 0.960 . S
C932 H919 0.960 . S
C932 C931 1.524 . S
C933 C930 1.403 . S
C933 C934 1.392 . S
C933 C937 1.495 . S
C934 C933 1.392 . S
C934 C935 1.385 . S
C934 C936 1.478 . S
C935 H929 0.930 . S
C935 C931 1.400 . S
C935 C934 1.385 . S
C936 C934 1.478 . S
C936 C938 1.381 . S
C936 C942 1.383 . S
C937 C933 1.495 . S
C937 H943 0.959 . S
C937 H944 0.961 . S
C937 H945 0.960 . S
C938 C936 1.381 . S
C938 C939 1.394 . S
C938 H946 0.930 . S
C939 C938 1.394 . S
C939 C940 1.383 . S
C939 H947 0.929 . S
C940 C939 1.383 . S
C940 C941 1.377 . S
C941 H925 0.930 . S
C941 C940 1.377 . S
C941 C942 1.379 . S
C942 H926 0.931 . S
C942 C936 1.383 . S
C942 C941 1.379 . S
H943 C937 0.959 . S
H944 C937 0.961 . S
H945 C937 0.960 . S
H946 C938 0.930 . S
H947 C939 0.929 . S
H948 C956 0.929 . S
H949 C958 0.930 . S
H950 C960 0.930 . S
H951 C963 0.929 . S
H952 C966 0.930 . S
H953 C968 0.960 . S
H954 C968 0.960 . S
H955 C968 0.960 . S
C956 H948 0.929 . S
C956 C957 1.377 . S
C956 C958 1.384 . S
C957 C956 1.377 . S
C957 C963 1.390 . S
C958 H949 0.930 . S
C958 C956 1.384 . S
C958 C959 1.372 . S
C959 C958 1.372 . S
C959 C960 1.400 . S
C959 C964 1.490 . S
C960 H950 0.930 . S
C960 C959 1.400 . S
C960 C963 1.386 . S
H961 C977 0.930 . S
H962 C978 0.931 . S
C963 H951 0.929 . S
C963 C957 1.390 . S
C963 C960 1.386 . S
C964 C959 1.490 . S
C964 C966 1.395 . S
C964 C967 1.403 . S
H965 C971 0.930 . S
C966 H952 0.930 . S
C966 C964 1.395 . S
C966 C969 1.403 . S
C967 C964 1.403 . S
C967 C968 1.524 . S
C967 C971 1.400 . S
C968 H953 0.960 . S
C968 H954 0.960 . S
C968 H955 0.960 . S
C968 C967 1.524 . S
C969 C966 1.403 . S
C969 C970 1.392 . S
C969 C973 1.495 . S
C970 C969 1.392 . S
C970 C971 1.385 . S
C970 C972 1.478 . S
C971 H965 0.930 . S
C971 C967 1.400 . S
C971 C970 1.385 . S
C972 C970 1.478 . S
C972 C974 1.381 . S
C972 C978 1.383 . S
C973 C969 1.495 . S
C973 H979 0.959 . S
C973 H980 0.961 . S
C973 H981 0.960 . S
C974 C972 1.381 . S
C974 C975 1.394 . S
C974 H982 0.930 . S
C975 C974 1.394 . S
C975 C976 1.383 . S
C975 H983 0.929 . S
C976 C975 1.383 . S
C976 C977 1.377 . S
C977 H961 0.930 . S
C977 C976 1.377 . S
C977 C978 1.379 . S
C978 H962 0.931 . S
C978 C972 1.383 . S
C978 C977 1.379 . S
H979 C973 0.959 . S
H980 C973 0.961 . S
H981 C973 0.960 . S
H982 C974 0.930 . S
H983 C975 0.929 . S
H984 C992 0.929 . S
H985 C994 0.930 . S
H986 C996 0.930 . S
H987 C999 0.929 . S
H988 C1002 0.930 . S
H989 C1004 0.960 . S
H990 C1004 0.960 . S
H991 C1004 0.960 . S
C992 H984 0.929 . S
C992 C993 1.377 . S
C992 C994 1.384 . S
C993 C992 1.377 . S
C993 C999 1.390 . S
C994 H985 0.930 . S
C994 C992 1.384 . S
C994 C995 1.372 . S
C995 C994 1.372 . S
C995 C996 1.400 . S
C995 C1000 1.490 . S
C996 H986 0.930 . S
C996 C995 1.400 . S
C996 C999 1.386 . S
H997 C1013 0.930 . S
H998 C1014 0.931 . S
C999 H987 0.929 . S
C999 C993 1.390 . S
C999 C996 1.386 . S
C1000 C995 1.490 . S
C1000 C1002 1.395 . S
C1000 C1003 1.403 . S
H1001 C1007 0.930 . S
C1002 H988 0.930 . S
C1002 C1000 1.395 . S
C1002 C1005 1.403 . S
C1003 C1000 1.403 . S
C1003 C1004 1.524 . S
C1003 C1007 1.400 . S
C1004 H989 0.960 . S
C1004 H990 0.960 . S
C1004 H991 0.960 . S
C1004 C1003 1.524 . S
C1005 C1002 1.403 . S
C1005 C1006 1.392 . S
C1005 C1009 1.495 . S
C1006 C1005 1.392 . S
C1006 C1007 1.385 . S
C1006 C1008 1.478 . S
C1007 H1001 0.930 . S
C1007 C1003 1.400 . S
C1007 C1006 1.385 . S
C1008 C1006 1.478 . S
C1008 C1010 1.381 . S
C1008 C1014 1.383 . S
C1009 C1005 1.495 . S
C1009 H1015 0.959 . S
C1009 H1016 0.961 . S
C1009 H1017 0.960 . S
C1010 C1008 1.381 . S
C1010 C1011 1.394 . S
C1010 H1018 0.930 . S
C1011 C1010 1.394 . S
C1011 C1012 1.383 . S
C1011 H1019 0.929 . S
C1012 C1011 1.383 . S
C1012 C1013 1.377 . S
C1013 H997 0.930 . S
C1013 C1012 1.377 . S
C1013 C1014 1.379 . S
C1014 H998 0.931 . S
C1014 C1008 1.383 . S
C1014 C1013 1.379 . S
H1015 C1009 0.959 . S
H1016 C1009 0.961 . S
H1017 C1009 0.960 . S
H1018 C1010 0.930 . S
H1019 C1011 0.929 . S
H1020 C1028 0.929 . S
H1021 C1030 0.930 . S
H1022 C1032 0.930 . S
H1023 C1035 0.929 . S
H1024 C1038 0.930 . S
H1025 C1040 0.960 . S
H1026 C1040 0.960 . S
H1027 C1040 0.960 . S
C1028 H1020 0.929 . S
C1028 C1029 1.377 . S
C1028 C1030 1.384 . S
C1029 C1028 1.377 . S
C1029 C1035 1.390 . S
C1030 H1021 0.930 . S
C1030 C1028 1.384 . S
C1030 C1031 1.372 . S
C1031 C1030 1.372 . S
C1031 C1032 1.400 . S
C1031 C1036 1.490 . S
C1032 H1022 0.930 . S
C1032 C1031 1.400 . S
C1032 C1035 1.386 . S
H1033 C1049 0.930 . S
H1034 C1050 0.931 . S
C1035 H1023 0.929 . S
C1035 C1029 1.390 . S
C1035 C1032 1.386 . S
C1036 C1031 1.490 . S
C1036 C1038 1.395 . S
C1036 C1039 1.403 . S
H1037 C1043 0.930 . S
C1038 H1024 0.930 . S
C1038 C1036 1.395 . S
C1038 C1041 1.403 . S
C1039 C1036 1.403 . S
C1039 C1040 1.524 . S
C1039 C1043 1.400 . S
C1040 H1025 0.960 . S
C1040 H1026 0.960 . S
C1040 H1027 0.960 . S
C1040 C1039 1.524 . S
C1041 C1038 1.403 . S
C1041 C1042 1.392 . S
C1041 C1045 1.495 . S
C1042 C1041 1.392 . S
C1042 C1043 1.385 . S
C1042 C1044 1.478 . S
C1043 H1037 0.930 . S
C1043 C1039 1.400 . S
C1043 C1042 1.385 . S
C1044 C1042 1.478 . S
C1044 C1046 1.381 . S
C1044 C1050 1.383 . S
C1045 C1041 1.495 . S
C1045 H1051 0.959 . S
C1045 H1052 0.961 . S
C1045 H1053 0.960 . S
C1046 C1044 1.381 . S
C1046 C1047 1.394 . S
C1046 H1054 0.930 . S
C1047 C1046 1.394 . S
C1047 C1048 1.383 . S
C1047 H1055 0.929 . S
C1048 C1047 1.383 . S
C1048 C1049 1.377 . S
C1049 H1033 0.930 . S
C1049 C1048 1.377 . S
C1049 C1050 1.379 . S
C1050 H1034 0.931 . S
C1050 C1044 1.383 . S
C1050 C1049 1.379 . S
H1051 C1045 0.959 . S
H1052 C1045 0.961 . S
H1053 C1045 0.960 . S
H1054 C1046 0.930 . S
H1055 C1047 0.929 . S
H1056 C1064 0.929 . S
H1057 C1066 0.930 . S
H1058 C1068 0.930 . S
H1059 C1071 0.929 . S
H1060 C1074 0.930 . S
H1061 C1076 0.960 . S
H1062 C1076 0.960 . S
H1063 C1076 0.960 . S
C1064 H1056 0.929 . S
C1064 C1065 1.377 . S
C1064 C1066 1.384 . S
C1065 C1064 1.377 . S
C1065 C1071 1.390 . S
C1066 H1057 0.930 . S
C1066 C1064 1.384 . S
C1066 C1067 1.372 . S
C1067 C1066 1.372 . S
C1067 C1068 1.400 . S
C1067 C1072 1.490 . S
C1068 H1058 0.930 . S
C1068 C1067 1.400 . S
C1068 C1071 1.386 . S
H1069 C1085 0.930 . S
H1070 C1086 0.931 . S
C1071 H1059 0.929 . S
C1071 C1065 1.390 . S
C1071 C1068 1.386 . S
C1072 C1067 1.490 . S
C1072 C1074 1.395 . S
C1072 C1075 1.403 . S
H1073 C1079 0.930 . S
C1074 H1060 0.930 . S
C1074 C1072 1.395 . S
C1074 C1077 1.403 . S
C1075 C1072 1.403 . S
C1075 C1076 1.524 . S
C1075 C1079 1.400 . S
C1076 H1061 0.960 . S
C1076 H1062 0.960 . S
C1076 H1063 0.960 . S
C1076 C1075 1.524 . S
C1077 C1074 1.403 . S
C1077 C1078 1.392 . S
C1077 C1081 1.495 . S
C1078 C1077 1.392 . S
C1078 C1079 1.385 . S
C1078 C1080 1.478 . S
C1079 H1073 0.930 . S
C1079 C1075 1.400 . S
C1079 C1078 1.385 . S
C1080 C1078 1.478 . S
C1080 C1082 1.381 . S
C1080 C1086 1.383 . S
C1081 C1077 1.495 . S
C1081 H1087 0.959 . S
C1081 H1088 0.961 . S
C1081 H1089 0.960 . S
C1082 C1080 1.381 . S
C1082 C1083 1.394 . S
C1082 H1090 0.930 . S
C1083 C1082 1.394 . S
C1083 C1084 1.383 . S
C1083 H1091 0.929 . S
C1084 C1083 1.383 . S
C1084 C1085 1.377 . S
C1085 H1069 0.930 . S
C1085 C1084 1.377 . S
C1085 C1086 1.379 . S
C1086 H1070 0.931 . S
C1086 C1080 1.383 . S
C1086 C1085 1.379 . S
H1087 C1081 0.959 . S
H1088 C1081 0.961 . S
H1089 C1081 0.960 . S
H1090 C1082 0.930 . S
H1091 C1083 0.929 . S
H1092 C1100 0.929 . S
H1093 C1102 0.930 . S
H1094 C1104 0.930 . S
H1095 C1107 0.929 . S
H1096 C1110 0.930 . S
H1097 C1112 0.960 . S
H1098 C1112 0.960 . S
H1099 C1112 0.960 . S
C1100 H1092 0.929 . S
C1100 C1101 1.377 . S
C1100 C1102 1.384 . S
C1101 C1100 1.377 . S
C1101 C1107 1.390 . S
C1102 H1093 0.930 . S
C1102 C1100 1.384 . S
C1102 C1103 1.372 . S
C1103 C1102 1.372 . S
C1103 C1104 1.400 . S
C1103 C1108 1.490 . S
C1104 H1094 0.930 . S
C1104 C1103 1.400 . S
C1104 C1107 1.386 . S
H1105 C1121 0.930 . S
H1106 C1122 0.931 . S
C1107 H1095 0.929 . S
C1107 C1101 1.390 . S
C1107 C1104 1.386 . S
C1108 C1103 1.490 . S
C1108 C1110 1.395 . S
C1108 C1111 1.403 . S
H1109 C1115 0.930 . S
C1110 H1096 0.930 . S
C1110 C1108 1.395 . S
C1110 C1113 1.403 . S
C1111 C1108 1.403 . S
C1111 C1112 1.524 . S
C1111 C1115 1.400 . S
C1112 H1097 0.960 . S
C1112 H1098 0.960 . S
C1112 H1099 0.960 . S
C1112 C1111 1.524 . S
C1113 C1110 1.403 . S
C1113 C1114 1.392 . S
C1113 C1117 1.495 . S
C1114 C1113 1.392 . S
C1114 C1115 1.385 . S
C1114 C1116 1.478 . S
C1115 H1109 0.930 . S
C1115 C1111 1.400 . S
C1115 C1114 1.385 . S
C1116 C1114 1.478 . S
C1116 C1118 1.381 . S
C1116 C1122 1.383 . S
C1117 C1113 1.495 . S
C1117 H1123 0.959 . S
C1117 H1124 0.961 . S
C1117 H1125 0.960 . S
C1118 C1116 1.381 . S
C1118 C1119 1.394 . S
C1118 H1126 0.930 . S
C1119 C1118 1.394 . S
C1119 C1120 1.383 . S
C1119 H1127 0.929 . S
C1120 C1119 1.383 . S
C1120 C1121 1.377 . S
C1121 H1105 0.930 . S
C1121 C1120 1.377 . S
C1121 C1122 1.379 . S
C1122 H1106 0.931 . S
C1122 C1116 1.383 . S
C1122 C1121 1.379 . S
H1123 C1117 0.959 . S
H1124 C1117 0.961 . S
H1125 C1117 0.960 . S
H1126 C1118 0.930 . S
H1127 C1119 0.929 . S
H1128 C1136 0.929 . S
H1129 C1138 0.930 . S
H1130 C1140 0.930 . S
H1131 C1143 0.929 . S
H1132 C1146 0.930 . S
H1133 C1148 0.960 . S
H1134 C1148 0.960 . S
H1135 C1148 0.960 . S
C1136 H1128 0.929 . S
C1136 C1137 1.377 . S
C1136 C1138 1.384 . S
C1137 C1136 1.377 . S
C1137 C1143 1.390 . S
C1138 H1129 0.930 . S
C1138 C1136 1.384 . S
C1138 C1139 1.372 . S
C1139 C1138 1.372 . S
C1139 C1140 1.400 . S
C1139 C1144 1.490 . S
C1140 H1130 0.930 . S
C1140 C1139 1.400 . S
C1140 C1143 1.386 . S
H1141 C1157 0.930 . S
H1142 C1158 0.931 . S
C1143 H1131 0.929 . S
C1143 C1137 1.390 . S
C1143 C1140 1.386 . S
C1144 C1139 1.490 . S
C1144 C1146 1.395 . S
C1144 C1147 1.403 . S
H1145 C1151 0.930 . S
C1146 H1132 0.930 . S
C1146 C1144 1.395 . S
C1146 C1149 1.403 . S
C1147 C1144 1.403 . S
C1147 C1148 1.524 . S
C1147 C1151 1.400 . S
C1148 H1133 0.960 . S
C1148 H1134 0.960 . S
C1148 H1135 0.960 . S
C1148 C1147 1.524 . S
C1149 C1146 1.403 . S
C1149 C1150 1.392 . S
C1149 C1153 1.495 . S
C1150 C1149 1.392 . S
C1150 C1151 1.385 . S
C1150 C1152 1.478 . S
C1151 H1145 0.930 . S
C1151 C1147 1.400 . S
C1151 C1150 1.385 . S
C1152 C1150 1.478 . S
C1152 C1154 1.381 . S
C1152 C1158 1.383 . S
C1153 C1149 1.495 . S
C1153 H1159 0.959 . S
C1153 H1160 0.961 . S
C1153 H1161 0.960 . S
C1154 C1152 1.381 . S
C1154 C1155 1.394 . S
C1154 H1162 0.930 . S
C1155 C1154 1.394 . S
C1155 C1156 1.383 . S
C1155 H1163 0.929 . S
C1156 C1155 1.383 . S
C1156 C1157 1.377 . S
C1157 H1141 0.930 . S
C1157 C1156 1.377 . S
C1157 C1158 1.379 . S
C1158 H1142 0.931 . S
C1158 C1152 1.383 . S
C1158 C1157 1.379 . S
H1159 C1153 0.959 . S
H1160 C1153 0.961 . S
H1161 C1153 0.960 . S
H1162 C1154 0.930 . S
H1163 C1155 0.929 . S
H1164 C1172 0.929 . S
H1165 C1174 0.930 . S
H1166 C1176 0.930 . S
H1167 C1179 0.929 . S
H1168 C1182 0.930 . S
H1169 C1184 0.960 . S
H1170 C1184 0.960 . S
H1171 C1184 0.960 . S
C1172 H1164 0.929 . S
C1172 C1173 1.377 . S
C1172 C1174 1.384 . S
C1173 C1172 1.377 . S
C1173 C1179 1.390 . S
C1174 H1165 0.930 . S
C1174 C1172 1.384 . S
C1174 C1175 1.372 . S
C1175 C1174 1.372 . S
C1175 C1176 1.400 . S
C1175 C1180 1.490 . S
C1176 H1166 0.930 . S
C1176 C1175 1.400 . S
C1176 C1179 1.386 . S
H1177 C1193 0.930 . S
H1178 C1194 0.931 . S
C1179 H1167 0.929 . S
C1179 C1173 1.390 . S
C1179 C1176 1.386 . S
C1180 C1175 1.490 . S
C1180 C1182 1.395 . S
C1180 C1183 1.403 . S
H1181 C1187 0.930 . S
C1182 H1168 0.930 . S
C1182 C1180 1.395 . S
C1182 C1185 1.403 . S
C1183 C1180 1.403 . S
C1183 C1184 1.524 . S
C1183 C1187 1.400 . S
C1184 H1169 0.960 . S
C1184 H1170 0.960 . S
C1184 H1171 0.960 . S
C1184 C1183 1.524 . S
C1185 C1182 1.403 . S
C1185 C1186 1.392 . S
C1185 C1189 1.495 . S
C1186 C1185 1.392 . S
C1186 C1187 1.385 . S
C1186 C1188 1.478 . S
C1187 H1181 0.930 . S
C1187 C1183 1.400 . S
C1187 C1186 1.385 . S
C1188 C1186 1.478 . S
C1188 C1190 1.381 . S
C1188 C1194 1.383 . S
C1189 C1185 1.495 . S
C1189 H1195 0.959 . S
C1189 H1196 0.961 . S
C1189 H1197 0.960 . S
C1190 C1188 1.381 . S
C1190 C1191 1.394 . S
C1190 H1198 0.930 . S
C1191 C1190 1.394 . S
C1191 C1192 1.383 . S
C1191 H1199 0.929 . S
C1192 C1191 1.383 . S
C1192 C1193 1.377 . S
C1193 H1177 0.930 . S
C1193 C1192 1.377 . S
C1193 C1194 1.379 . S
C1194 H1178 0.931 . S
C1194 C1188 1.383 . S
C1194 C1193 1.379 . S
H1195 C1189 0.959 . S
H1196 C1189 0.961 . S
H1197 C1189 0.960 . S
H1198 C1190 0.930 . S
H1199 C1191 0.929 . S
H1200 C1208 0.929 . S
H1201 C1210 0.930 . S
H1202 C1212 0.884 1_545 S
H1203 C1215 0.929 1_545 S
H1204 C1218 0.951 . S
H1205 C1220 0.960 . S
H1206 C1220 0.960 . S
H1207 C1220 0.960 . S
C1208 H1200 0.929 . S
C1208 C1209 1.377 . S
C1208 C1210 1.384 . S
C1209 C1208 1.377 . S
C1209 C1215 1.390 . S
C1210 H1201 0.930 . S
C1210 C1208 1.384 . S
C1210 C1211 1.372 . S
C1211 C1210 1.372 . S
C1211 C1212 1.436 . S
C1211 C1216 1.490 . S
C1212 H1202 0.884 1_565 S
C1212 C1211 1.436 . S
C1212 C1215 1.396 . S
H1213 C1229 0.930 . S
H1214 C1230 0.931 . S
C1215 H1203 0.929 1_565 S
C1215 C1209 1.390 . S
C1215 C1212 1.396 . S
C1216 C1211 1.490 . S
C1216 C1218 1.385 . S
C1216 C1219 1.403 . S
H1217 C1223 0.925 1_545 S
C1218 H1204 0.951 . S
C1218 C1216 1.385 . S
C1218 C1221 1.395 1_566 S
C1219 C1216 1.403 . S
C1219 C1220 1.524 . S
C1219 C1223 1.399 1_556 S
C1220 H1205 0.960 . S
C1220 H1206 0.960 . S
C1220 H1207 0.960 . S
C1220 C1219 1.524 . S
C1221 C1218 1.395 1_544 S
C1221 C1222 1.392 . S
C1221 C1225 1.495 . S
C1222 C1221 1.392 . S
C1222 C1223 1.384 1_545 S
C1222 C1224 1.478 . S
C1223 H1217 0.925 1_565 S
C1223 C1219 1.399 1_554 S
C1223 C1222 1.384 1_565 S
C1224 C1222 1.478 . S
C1224 C1226 1.368 1_545 S
C1224 C1230 1.383 . S
C1225 C1221 1.495 . S
C1225 H1231 0.959 . S
C1225 H1232 0.961 . S
C1225 H1233 0.960 . S
C1226 C1224 1.368 1_565 S
C1226 C1227 1.390 1_565 S
C1226 H1234 0.948 . S
C1227 C1226 1.390 1_545 S
C1227 C1228 1.383 . S
C1227 H1235 0.929 1_545 S
C1228 C1227 1.383 . S
C1228 C1229 1.377 . S
C1229 H1213 0.930 . S
C1229 C1228 1.377 . S
C1229 C1230 1.379 . S
C1230 H1214 0.931 . S
C1230 C1224 1.383 . S
C1230 C1229 1.379 . S
H1231 C1225 0.959 . S
H1232 C1225 0.961 . S
H1233 C1225 0.960 . S
H1234 C1226 0.948 . S
H1235 C1227 0.929 1_565 S
H1236 C1244 0.929 . S
H1237 C1246 0.930 . S
H1238 C1248 0.930 . S
H1239 C1251 0.929 . S
H1240 C1254 0.930 . S
H1241 C1256 0.960 . S
H1242 C1256 0.960 . S
H1243 C1256 0.960 . S
C1244 H1236 0.929 . S
C1244 C1245 1.377 . S
C1244 C1246 1.384 . S
C1245 C1244 1.377 . S
C1245 C1251 1.390 . S
C1246 H1237 0.930 . S
C1246 C1244 1.384 . S
C1246 C1247 1.372 . S
C1247 C1246 1.372 . S
C1247 C1248 1.400 . S
C1247 C1252 1.490 . S
C1248 H1238 0.930 . S
C1248 C1247 1.400 . S
C1248 C1251 1.386 . S
H1249 C1265 0.930 . S
H1250 C1266 0.931 . S
C1251 H1239 0.929 . S
C1251 C1245 1.390 . S
C1251 C1248 1.386 . S
C1252 C1247 1.490 . S
C1252 C1254 1.395 . S
C1252 C1255 1.403 . S
H1253 C1259 0.930 . S
C1254 H1240 0.930 . S
C1254 C1252 1.395 . S
C1254 C1257 1.403 . S
C1255 C1252 1.403 . S
C1255 C1256 1.524 . S
C1255 C1259 1.400 . S
C1256 H1241 0.960 . S
C1256 H1242 0.960 . S
C1256 H1243 0.960 . S
C1256 C1255 1.524 . S
C1257 C1254 1.403 . S
C1257 C1258 1.392 . S
C1257 C1261 1.495 . S
C1258 C1257 1.392 . S
C1258 C1259 1.385 . S
C1258 C1260 1.478 . S
C1259 H1253 0.930 . S
C1259 C1255 1.400 . S
C1259 C1258 1.385 . S
C1260 C1258 1.478 . S
C1260 C1262 1.381 . S
C1260 C1266 1.383 . S
C1261 C1257 1.495 . S
C1261 H1267 0.959 . S
C1261 H1268 0.961 . S
C1261 H1269 0.960 . S
C1262 C1260 1.381 . S
C1262 C1263 1.394 . S
C1262 H1270 0.930 . S
C1263 C1262 1.394 . S
C1263 C1264 1.383 . S
C1263 H1271 0.929 . S
C1264 C1263 1.383 . S
C1264 C1265 1.377 . S
C1265 H1249 0.930 . S
C1265 C1264 1.377 . S
C1265 C1266 1.379 . S
C1266 H1250 0.931 . S
C1266 C1260 1.383 . S
C1266 C1265 1.379 . S
H1267 C1261 0.959 . S
H1268 C1261 0.961 . S
H1269 C1261 0.960 . S
H1270 C1262 0.930 . S
H1271 C1263 0.929 . S
H1272 C1280 0.929 . S
H1273 C1282 0.930 . S
H1274 C1284 0.880 1_655 S
H1275 C1287 0.929 1_655 S
H1276 C1290 0.930 . S
H1277 C1292 0.960 . S
H1278 C1292 0.960 . S
H1279 C1292 0.960 . S
C1280 H1272 0.929 . S
C1280 C1281 1.377 . S
C1280 C1282 1.384 . S
C1281 C1280 1.377 . S
C1281 C1287 1.390 . S
C1282 H1273 0.930 . S
C1282 C1280 1.384 . S
C1282 C1283 1.372 . S
C1283 C1282 1.372 . S
C1283 C1284 1.439 . S
C1283 C1288 1.490 . S
C1284 H1274 0.880 1_455 S
C1284 C1283 1.439 . S
C1284 C1287 1.397 . S
H1285 C1301 0.930 . S
H1286 C1302 0.931 . S
C1287 H1275 0.929 1_455 S
C1287 C1281 1.390 . S
C1287 C1284 1.397 . S
C1288 C1283 1.490 . S
C1288 C1290 1.395 . S
C1288 C1291 1.403 1_455 S
H1289 C1295 0.930 . S
C1290 H1276 0.930 . S
C1290 C1288 1.395 . S
C1290 C1293 1.403 1_556 S
C1291 C1288 1.403 1_655 S
C1291 C1292 1.524 . S
C1291 C1295 1.400 1_556 S
C1292 H1277 0.960 . S
C1292 H1278 0.960 . S
C1292 H1279 0.960 . S
C1292 C1291 1.524 . S
C1293 C1290 1.403 1_554 S
C1293 C1294 1.392 1_455 S
C1293 C1297 1.495 . S
C1294 C1293 1.392 1_655 S
C1294 C1295 1.385 . S
C1294 C1296 1.478 . S
C1295 H1289 0.930 . S
C1295 C1291 1.400 1_554 S
C1295 C1294 1.385 . S
C1296 C1294 1.478 . S
C1296 C1298 1.381 1_655 S
C1296 C1302 1.383 . S
C1297 C1293 1.495 . S
C1297 H1303 0.959 . S
C1297 H1304 0.961 . S
C1297 H1305 0.960 . S
C1298 C1296 1.381 1_455 S
C1298 C1299 1.394 1_455 S
C1298 H1306 0.930 . S
C1299 C1298 1.394 1_655 S
C1299 C1300 1.383 . S
C1299 H1307 0.934 1_655 S
C1300 C1299 1.383 . S
C1300 C1301 1.377 . S
C1301 H1285 0.930 . S
C1301 C1300 1.377 . S
C1301 C1302 1.379 . S
C1302 H1286 0.931 . S
C1302 C1296 1.383 . S
C1302 C1301 1.379 . S
H1303 C1297 0.959 . S
H1304 C1297 0.961 . S
H1305 C1297 0.960 . S
H1306 C1298 0.930 . S
H1307 C1299 0.934 1_455 S
H1308 C1316 0.929 1_565 S
H1309 C1318 0.931 1_565 S
H1310 C1320 0.930 . S
H1311 C1323 0.929 . S
H1312 C1326 0.930 . S
H1313 C1328 0.960 . S
H1314 C1328 0.960 . S
H1315 C1328 0.960 . S
C1316 H1308 0.929 1_545 S
C1316 C1317 1.377 . S
C1316 C1318 1.383 . S
C1317 C1316 1.377 . S
C1317 C1323 1.390 . S
C1318 H1309 0.931 1_545 S
C1318 C1316 1.383 . S
C1318 C1319 1.372 . S
C1319 C1318 1.372 . S
C1319 C1320 1.400 . S
C1319 C1324 1.490 . S
C1320 H1310 0.930 . S
C1320 C1319 1.400 . S
C1320 C1323 1.386 . S
H1321 C1337 0.930 . S
H1322 C1338 0.931 1_545 S
C1323 H1311 0.929 . S
C1323 C1317 1.390 . S
C1323 C1320 1.386 . S
C1324 C1319 1.490 . S
C1324 C1326 1.395 1_545 S
C1324 C1327 1.403 . S
H1325 C1331 0.930 . S
C1326 H1312 0.930 . S
C1326 C1324 1.395 1_565 S
C1326 C1329 1.403 . S
C1327 C1324 1.403 . S
C1327 C1328 1.524 . S
C1327 C1331 1.400 . S
C1328 H1313 0.960 . S
C1328 H1314 0.960 . S
C1328 H1315 0.960 . S
C1328 C1327 1.524 . S
C1329 C1326 1.403 . S
C1329 C1330 1.392 . S
C1329 C1333 1.495 . S
C1330 C1329 1.392 . S
C1330 C1331 1.385 1_565 S
C1330 C1332 1.478 . S
C1331 H1325 0.930 . S
C1331 C1327 1.400 . S
C1331 C1330 1.385 1_545 S
C1332 C1330 1.478 . S
C1332 C1334 1.381 . S
C1332 C1338 1.383 . S
C1333 C1329 1.495 . S
C1333 H1339 0.959 . S
C1333 H1340 0.961 . S
C1333 H1341 0.960 . S
C1334 C1332 1.381 . S
C1334 C1335 1.394 . S
C1334 H1342 0.930 . S
C1335 C1334 1.394 . S
C1335 C1336 1.383 . S
C1335 H1343 0.929 . S
C1336 C1335 1.383 . S
C1336 C1337 1.377 . S
C1337 H1321 0.930 . S
C1337 C1336 1.377 . S
C1337 C1338 1.379 . S
C1338 H1322 0.931 1_565 S
C1338 C1332 1.383 . S
C1338 C1337 1.379 . S
H1339 C1333 0.959 . S
H1340 C1333 0.961 . S
H1341 C1333 0.960 . S
H1342 C1334 0.930 . S
H1343 C1335 0.929 . S
H1344 C1352 0.929 . S
H1345 C1354 0.930 . S
H1346 C1356 0.930 . S
H1347 C1359 0.929 . S
H1348 C1362 0.930 . S
H1349 C1364 0.960 . S
H1350 C1364 0.960 . S
H1351 C1364 0.960 . S
C1352 H1344 0.929 . S
C1352 C1353 1.377 . S
C1352 C1354 1.384 . S
C1353 C1352 1.377 . S
C1353 C1359 1.390 . S
C1354 H1345 0.930 . S
C1354 C1352 1.384 . S
C1354 C1355 1.372 . S
C1355 C1354 1.372 . S
C1355 C1356 1.400 . S
C1355 C1360 1.490 . S
C1356 H1346 0.930 . S
C1356 C1355 1.400 . S
C1356 C1359 1.386 . S
H1357 C1373 0.930 . S
H1358 C1374 0.931 . S
C1359 H1347 0.929 . S
C1359 C1353 1.390 . S
C1359 C1356 1.386 . S
C1360 C1355 1.490 . S
C1360 C1362 1.395 . S
C1360 C1363 1.403 . S
H1361 C1367 0.930 . S
C1362 H1348 0.930 . S
C1362 C1360 1.395 . S
C1362 C1365 1.403 1_554 S
C1363 C1360 1.403 . S
C1363 C1364 1.524 . S
C1363 C1367 1.400 1_554 S
C1364 H1349 0.960 . S
C1364 H1350 0.960 . S
C1364 H1351 0.960 . S
C1364 C1363 1.524 . S
C1365 C1362 1.403 1_556 S
C1365 C1366 1.392 . S
C1365 C1369 1.495 . S
C1366 C1365 1.392 . S
C1366 C1367 1.385 . S
C1366 C1368 1.478 . S
C1367 H1361 0.930 . S
C1367 C1363 1.400 1_556 S
C1367 C1366 1.385 . S
C1368 C1366 1.478 . S
C1368 C1370 1.381 . S
C1368 C1374 1.383 . S
C1369 C1365 1.495 . S
C1369 H1375 0.959 . S
C1369 H1376 0.961 . S
C1369 H1377 0.960 . S
C1370 C1368 1.381 . S
C1370 C1371 1.394 . S
C1370 H1378 0.930 . S
C1371 C1370 1.394 . S
C1371 C1372 1.383 . S
C1371 H1379 0.929 . S
C1372 C1371 1.383 . S
C1372 C1373 1.377 . S
C1373 H1357 0.930 . S
C1373 C1372 1.377 . S
C1373 C1374 1.379 . S
C1374 H1358 0.931 . S
C1374 C1368 1.383 . S
C1374 C1373 1.379 . S
H1375 C1369 0.959 . S
H1376 C1369 0.961 . S
H1377 C1369 0.960 . S
H1378 C1370 0.930 . S
H1379 C1371 0.929 . S
H1380 C1388 0.929 . S
H1381 C1390 0.930 . S
H1382 C1392 0.930 . S
H1383 C1395 0.929 1_655 S
H1384 C1398 0.930 . S
H1385 C1400 0.960 . S
H1386 C1400 0.960 . S
H1387 C1400 0.960 . S
C1388 H1380 0.929 . S
C1388 C1389 1.377 . S
C1388 C1390 1.384 . S
C1389 C1388 1.377 . S
C1389 C1395 1.390 . S
C1390 H1381 0.930 . S
C1390 C1388 1.384 . S
C1390 C1391 1.372 . S
C1391 C1390 1.372 . S
C1391 C1392 1.400 1_455 S
C1391 C1396 1.490 . S
C1392 H1382 0.930 . S
C1392 C1391 1.400 1_655 S
C1392 C1395 1.386 1_655 S
H1393 C1409 0.930 . S
H1394 C1410 0.931 . S
C1395 H1383 0.929 1_455 S
C1395 C1389 1.390 . S
C1395 C1392 1.386 1_455 S
C1396 C1391 1.490 . S
C1396 C1398 1.395 . S
C1396 C1399 1.403 1_455 S
H1397 C1403 0.930 . S
C1398 H1384 0.930 . S
C1398 C1396 1.395 . S
C1398 C1401 1.403 . S
C1399 C1396 1.403 1_655 S
C1399 C1400 1.524 . S
C1399 C1403 1.400 . S
C1400 H1385 0.960 . S
C1400 H1386 0.960 . S
C1400 H1387 0.960 . S
C1400 C1399 1.524 . S
C1401 C1398 1.403 . S
C1401 C1402 1.392 1_455 S
C1401 C1405 1.495 . S
C1402 C1401 1.392 1_655 S
C1402 C1403 1.385 . S
C1402 C1404 1.478 . S
C1403 H1397 0.930 . S
C1403 C1399 1.400 . S
C1403 C1402 1.385 . S
C1404 C1402 1.478 . S
C1404 C1406 1.381 1_655 S
C1404 C1410 1.383 . S
C1405 C1401 1.495 . S
C1405 H1411 0.959 . S
C1405 H1412 0.961 . S
C1405 H1413 0.960 . S
C1406 C1404 1.381 1_455 S
C1406 C1407 1.381 1_455 S
C1406 H1414 0.930 . S
C1407 C1406 1.381 1_655 S
C1407 C1408 1.421 . S
C1407 H1415 0.907 1_655 S
C1408 C1407 1.421 . S
C1408 C1409 1.377 . S
C1409 H1393 0.930 . S
C1409 C1408 1.377 . S
C1409 C1410 1.379 . S
C1410 H1394 0.931 . S
C1410 C1404 1.383 . S
C1410 C1409 1.379 . S
H1411 C1405 0.959 . S
H1412 C1405 0.961 . S
H1413 C1405 0.960 . S
H1414 C1406 0.930 . S
H1415 C1407 0.907 1_455 S
H1416 C1424 0.929 1_545 S
H1417 C1426 0.930 . S
H1418 C1428 0.930 . S
H1419 C1431 0.929 . S
H1420 C1434 0.930 . S
H1421 C1436 0.960 1_554 S
H1422 C1436 0.960 . S
H1423 C1436 0.960 . S
C1424 H1416 0.929 1_565 S
C1424 C1425 1.377 . S
C1424 C1426 1.384 1_565 S
C1425 C1424 1.377 . S
C1425 C1431 1.390 . S
C1426 H1417 0.930 . S
C1426 C1424 1.384 1_545 S
C1426 C1427 1.372 1_545 S
C1427 C1426 1.372 1_565 S
C1427 C1428 1.400 . S
C1427 C1432 1.490 . S
C1428 H1418 0.930 . S
C1428 C1427 1.400 . S
C1428 C1431 1.386 . S
H1429 C1445 0.930 1_565 S
H1430 C1446 0.931 1_565 S
C1431 H1419 0.929 . S
C1431 C1425 1.390 . S
C1431 C1428 1.386 . S
C1432 C1427 1.490 . S
C1432 C1434 1.395 1_565 S
C1432 C1435 1.403 . S
H1433 C1439 0.930 . S
C1434 H1420 0.930 . S
C1434 C1432 1.395 1_545 S
C1434 C1437 1.403 1_556 S
C1435 C1432 1.403 . S
C1435 C1436 1.524 . S
C1435 C1439 1.400 1_556 S
C1436 H1421 0.960 1_556 S
C1436 H1422 0.960 . S
C1436 H1423 0.960 . S
C1436 C1435 1.524 . S
C1437 C1434 1.403 1_554 S
C1437 C1438 1.392 . S
C1437 C1441 1.495 . S
C1438 C1437 1.392 . S
C1438 C1439 1.385 1_545 S
C1438 C1440 1.478 . S
C1439 H1433 0.930 . S
C1439 C1435 1.400 1_554 S
C1439 C1438 1.385 1_565 S
C1440 C1438 1.478 . S
C1440 C1442 1.381 . S
C1440 C1446 1.383 . S
C1441 C1437 1.495 . S
C1441 H1447 0.959 1_554 S
C1441 H1448 0.961 . S
C1441 H1449 0.960 . S
C1442 C1440 1.381 . S
C1442 C1443 1.394 . S
C1442 H1450 0.930 . S
C1443 C1442 1.394 . S
C1443 C1444 1.383 . S
C1443 H1451 0.929 . S
C1444 C1443 1.383 . S
C1444 C1445 1.377 . S
C1445 H1429 0.930 1_545 S
C1445 C1444 1.377 . S
C1445 C1446 1.379 . S
C1446 H1430 0.931 1_545 S
C1446 C1440 1.383 . S
C1446 C1445 1.379 . S
H1447 C1441 0.959 1_556 S
H1448 C1441 0.961 . S
H1449 C1441 0.960 . S
H1450 C1442 0.930 . S
H1451 C1443 0.929 . S
H1452 C1460 0.929 . S
H1453 C1462 0.930 . S
H1454 C1464 0.930 . S
H1455 C1467 0.929 . S
H1456 C1470 0.930 . S
H1457 C1472 0.960 . S
H1458 C1472 0.960 . S
H1459 C1472 0.960 . S
C1460 H1452 0.929 . S
C1460 C1461 1.377 . S
C1460 C1462 1.384 . S
C1461 C1460 1.377 . S
C1461 C1467 1.390 . S
C1462 H1453 0.930 . S
C1462 C1460 1.384 . S
C1462 C1463 1.372 . S
C1463 C1462 1.372 . S
C1463 C1464 1.400 . S
C1463 C1468 1.490 . S
C1464 H1454 0.930 . S
C1464 C1463 1.400 . S
C1464 C1467 1.386 . S
H1465 C1481 0.930 . S
H1466 C1482 0.931 . S
C1467 H1455 0.929 . S
C1467 C1461 1.390 . S
C1467 C1464 1.386 . S
C1468 C1463 1.490 . S
C1468 C1470 1.395 . S
C1468 C1471 1.403 . S
H1469 C1475 0.930 . S
C1470 H1456 0.930 . S
C1470 C1468 1.395 . S
C1470 C1473 1.403 . S
C1471 C1468 1.403 . S
C1471 C1472 1.524 . S
C1471 C1475 1.400 . S
C1472 H1457 0.960 . S
C1472 H1458 0.960 . S
C1472 H1459 0.960 . S
C1472 C1471 1.524 . S
C1473 C1470 1.403 . S
C1473 C1474 1.392 . S
C1473 C1477 1.495 . S
C1474 C1473 1.392 . S
C1474 C1475 1.385 . S
C1474 C1476 1.478 . S
C1475 H1469 0.930 . S
C1475 C1471 1.400 . S
C1475 C1474 1.385 . S
C1476 C1474 1.478 . S
C1476 C1478 1.381 . S
C1476 C1482 1.383 . S
C1477 C1473 1.495 . S
C1477 H1483 0.959 . S
C1477 H1484 0.961 . S
C1477 H1485 0.960 . S
C1478 C1476 1.381 . S
C1478 C1479 1.394 . S
C1478 H1486 0.930 . S
C1479 C1478 1.394 . S
C1479 C1480 1.383 . S
C1479 H1487 0.929 . S
C1480 C1479 1.383 . S
C1480 C1481 1.377 . S
C1481 H1465 0.930 . S
C1481 C1480 1.377 . S
C1481 C1482 1.379 . S
C1482 H1466 0.931 . S
C1482 C1476 1.383 . S
C1482 C1481 1.379 . S
H1483 C1477 0.959 . S
H1484 C1477 0.961 . S
H1485 C1477 0.960 . S
H1486 C1478 0.930 . S
H1487 C1479 0.929 . S
H1488 C1496 0.929 . S
H1489 C1498 0.930 . S
H1490 C1500 0.930 1_455 S
H1491 C1503 0.929 1_455 S
H1492 C1506 0.928 . S
H1493 C1508 0.960 . S
H1494 C1508 0.960 . S
H1495 C1508 0.960 . S
C1496 H1488 0.929 . S
C1496 C1497 1.377 . S
C1496 C1498 1.384 . S
C1497 C1496 1.377 . S
C1497 C1503 1.390 . S
C1498 H1489 0.930 . S
C1498 C1496 1.384 . S
C1498 C1499 1.372 . S
C1499 C1498 1.372 . S
C1499 C1500 1.400 . S
C1499 C1504 1.490 . S
C1500 H1490 0.930 1_655 S
C1500 C1499 1.400 . S
C1500 C1503 1.386 . S
H1501 C1517 0.930 . S
H1502 C1518 0.931 . S
C1503 H1491 0.929 1_655 S
C1503 C1497 1.390 . S
C1503 C1500 1.386 . S
C1504 C1499 1.490 . S
C1504 C1506 1.392 . S
C1504 C1507 1.403 . S
H1505 C1511 0.928 . S
C1506 H1492 0.928 . S
C1506 C1504 1.392 . S
C1506 C1509 1.401 1_654 S
C1507 C1504 1.403 . S
C1507 C1508 1.524 . S
C1507 C1511 1.405 1_554 S
C1508 H1493 0.960 . S
C1508 H1494 0.960 . S
C1508 H1495 0.960 . S
C1508 C1507 1.524 . S
C1509 C1506 1.401 1_456 S
C1509 C1510 1.392 . S
C1509 C1513 1.495 . S
C1510 C1509 1.392 . S
C1510 C1511 1.390 1_455 S
C1510 C1512 1.478 . S
C1511 H1505 0.928 . S
C1511 C1507 1.405 1_556 S
C1511 C1510 1.390 1_655 S
C1512 C1510 1.478 . S
C1512 C1514 1.384 1_455 S
C1512 C1518 1.383 . S
C1513 C1509 1.495 . S
C1513 H1519 0.959 . S
C1513 H1520 0.961 . S
C1513 H1521 0.960 . S
C1514 C1512 1.384 1_655 S
C1514 C1515 1.395 1_655 S
C1514 H1522 0.926 . S
C1515 C1514 1.395 1_455 S
C1515 C1516 1.383 . S
C1515 H1523 0.929 1_455 S
C1516 C1515 1.383 . S
C1516 C1517 1.377 . S
C1517 H1501 0.930 . S
C1517 C1516 1.377 . S
C1517 C1518 1.379 . S
C1518 H1502 0.931 . S
C1518 C1512 1.383 . S
C1518 C1517 1.379 . S
H1519 C1513 0.959 . S
H1520 C1513 0.961 . S
H1521 C1513 0.960 . S
H1522 C1514 0.926 . S
H1523 C1515 0.929 1_655 S
H1524 C1532 0.929 . S
H1525 C1534 0.930 . S
H1526 C1536 0.930 . S
H1527 C1539 0.929 1_545 S
H1528 C1542 0.930 . S
H1529 C1544 0.960 . S
H1530 C1544 0.960 . S
H1531 C1544 0.960 . S
C1532 H1524 0.929 . S
C1532 C1533 1.377 . S
C1532 C1534 1.384 . S
C1533 C1532 1.377 . S
C1533 C1539 1.390 . S
C1534 H1525 0.930 . S
C1534 C1532 1.384 . S
C1534 C1535 1.372 . S
C1535 C1534 1.372 . S
C1535 C1536 1.400 1_565 S
C1535 C1540 1.490 . S
C1536 H1526 0.930 . S
C1536 C1535 1.400 1_545 S
C1536 C1539 1.386 1_545 S
H1537 C1553 0.930 . S
H1538 C1554 0.931 . S
C1539 H1527 0.929 1_565 S
C1539 C1533 1.390 . S
C1539 C1536 1.386 1_565 S
C1540 C1535 1.490 . S
C1540 C1542 1.395 . S
C1540 C1543 1.403 1_565 S
H1541 C1547 0.930 . S
C1542 H1528 0.930 . S
C1542 C1540 1.395 . S
C1542 C1545 1.403 . S
C1543 C1540 1.403 1_545 S
C1543 C1544 1.524 . S
C1543 C1547 1.400 . S
C1544 H1529 0.960 . S
C1544 H1530 0.960 . S
C1544 H1531 0.960 . S
C1544 C1543 1.524 . S
C1545 C1542 1.403 . S
C1545 C1546 1.392 1_565 S
C1545 C1549 1.495 . S
C1546 C1545 1.392 1_545 S
C1546 C1547 1.385 . S
C1546 C1548 1.478 . S
C1547 H1541 0.930 . S
C1547 C1543 1.400 . S
C1547 C1546 1.385 . S
C1548 C1546 1.478 . S
C1548 C1550 1.381 1_545 S
C1548 C1554 1.383 . S
C1549 C1545 1.495 . S
C1549 H1555 0.959 . S
C1549 H1556 0.961 . S
C1549 H1557 0.960 . S
C1550 C1548 1.381 1_565 S
C1550 C1551 1.394 1_565 S
C1550 H1558 0.930 . S
C1551 C1550 1.394 1_545 S
C1551 C1552 1.383 . S
C1551 H1559 0.929 1_545 S
C1552 C1551 1.383 . S
C1552 C1553 1.377 . S
C1553 H1537 0.930 . S
C1553 C1552 1.377 . S
C1553 C1554 1.379 . S
C1554 H1538 0.931 . S
C1554 C1548 1.383 . S
C1554 C1553 1.379 . S
H1555 C1549 0.959 . S
H1556 C1549 0.961 . S
H1557 C1549 0.960 . S
H1558 C1550 0.930 . S
H1559 C1551 0.929 1_565 S
H1560 C1568 0.929 . S
H1561 C1570 0.930 . S
H1562 C1572 0.930 . S
H1563 C1575 0.929 . S
H1564 C1578 0.930 . S
H1565 C1580 0.960 . S
H1566 C1580 0.960 . S
H1567 C1580 0.960 . S
C1568 H1560 0.929 . S
C1568 C1569 1.377 . S
C1568 C1570 1.384 . S
C1569 C1568 1.377 . S
C1569 C1575 1.390 . S
C1570 H1561 0.930 . S
C1570 C1568 1.384 . S
C1570 C1571 1.372 . S
C1571 C1570 1.372 . S
C1571 C1572 1.400 . S
C1571 C1576 1.490 . S
C1572 H1562 0.930 . S
C1572 C1571 1.400 . S
C1572 C1575 1.386 . S
H1573 C1589 0.930 . S
H1574 C1590 0.931 . S
C1575 H1563 0.929 . S
C1575 C1569 1.390 . S
C1575 C1572 1.386 . S
C1576 C1571 1.490 . S
C1576 C1578 1.395 . S
C1576 C1579 1.403 . S
H1577 C1583 0.930 . S
C1578 H1564 0.930 . S
C1578 C1576 1.395 . S
C1578 C1581 1.403 1_554 S
C1579 C1576 1.403 . S
C1579 C1580 1.524 . S
C1579 C1583 1.400 1_554 S
C1580 H1565 0.960 . S
C1580 H1566 0.960 . S
C1580 H1567 0.960 . S
C1580 C1579 1.524 . S
C1581 C1578 1.403 1_556 S
C1581 C1582 1.392 . S
C1581 C1585 1.495 . S
C1582 C1581 1.392 . S
C1582 C1583 1.385 . S
C1582 C1584 1.478 . S
C1583 H1577 0.930 . S
C1583 C1579 1.400 1_556 S
C1583 C1582 1.385 . S
C1584 C1582 1.478 . S
C1584 C1586 1.381 . S
C1584 C1590 1.383 . S
C1585 C1581 1.495 . S
C1585 H1591 0.959 . S
C1585 H1592 0.961 . S
C1585 H1593 0.960 . S
C1586 C1584 1.381 . S
C1586 C1587 1.394 . S
C1586 H1594 0.930 . S
C1587 C1586 1.394 . S
C1587 C1588 1.383 . S
C1587 H1595 0.929 . S
C1588 C1587 1.383 . S
C1588 C1589 1.377 . S
C1589 H1573 0.930 . S
C1589 C1588 1.377 . S
C1589 C1590 1.379 . S
C1590 H1574 0.931 . S
C1590 C1584 1.383 . S
C1590 C1589 1.379 . S
H1591 C1585 0.959 . S
H1592 C1585 0.961 . S
H1593 C1585 0.960 . S
H1594 C1586 0.930 . S
H1595 C1587 0.929 . S
H1596 C1604 0.929 . S
H1597 C1606 0.930 . S
H1598 C1608 0.930 1_655 S
H1599 C1611 0.929 . S
H1600 C1614 0.930 . S
H1601 C1616 0.960 . S
H1602 C1616 0.960 . S
H1603 C1616 0.960 . S
C1604 H1596 0.929 . S
C1604 C1605 1.377 . S
C1604 C1606 1.384 . S
C1605 C1604 1.377 . S
C1605 C1611 1.390 . S
C1606 H1597 0.930 . S
C1606 C1604 1.384 . S
C1606 C1607 1.372 . S
C1607 C1606 1.372 . S
C1607 C1608 1.400 . S
C1607 C1612 1.490 . S
C1608 H1598 0.930 1_455 S
C1608 C1607 1.400 . S
C1608 C1611 1.386 . S
H1609 C1625 0.930 . S
H1610 C1626 0.931 . S
C1611 H1599 0.929 . S
C1611 C1605 1.390 . S
C1611 C1608 1.386 . S
C1612 C1607 1.490 . S
C1612 C1614 1.395 1_455 S
C1612 C1615 1.403 . S
H1613 C1619 0.930 . S
C1614 H1600 0.930 . S
C1614 C1612 1.395 1_655 S
C1614 C1617 1.403 . S
C1615 C1612 1.403 . S
C1615 C1616 1.524 . S
C1615 C1619 1.400 . S
C1616 H1601 0.960 . S
C1616 H1602 0.960 . S
C1616 H1603 0.960 . S
C1616 C1615 1.524 . S
C1617 C1614 1.403 . S
C1617 C1618 1.392 . S
C1617 C1621 1.495 . S
C1618 C1617 1.392 . S
C1618 C1619 1.385 1_655 S
C1618 C1620 1.478 . S
C1619 H1613 0.930 . S
C1619 C1615 1.400 . S
C1619 C1618 1.385 1_455 S
C1620 C1618 1.478 . S
C1620 C1622 1.381 . S
C1620 C1626 1.383 . S
C1621 C1617 1.495 . S
C1621 H1627 0.959 . S
C1621 H1628 0.961 . S
C1621 H1629 0.960 . S
C1622 C1620 1.381 . S
C1622 C1623 1.394 . S
C1622 H1630 0.930 1_655 S
C1623 C1622 1.394 . S
C1623 C1624 1.383 . S
C1623 H1631 0.929 . S
C1624 C1623 1.383 . S
C1624 C1625 1.377 . S
C1625 H1609 0.930 . S
C1625 C1624 1.377 . S
C1625 C1626 1.379 . S
C1626 H1610 0.931 . S
C1626 C1620 1.383 . S
C1626 C1625 1.379 . S
H1627 C1621 0.959 . S
H1628 C1621 0.961 . S
H1629 C1621 0.960 . S
H1630 C1622 0.930 1_455 S
H1631 C1623 0.929 . S
H1632 C1640 0.929 . S
H1633 C1642 0.930 . S
H1634 C1644 0.930 . S
H1635 C1647 0.929 . S
H1636 C1650 0.930 . S
H1637 C1652 0.960 . S
H1638 C1652 0.960 . S
H1639 C1652 0.960 . S
C1640 H1632 0.929 . S
C1640 C1641 1.377 . S
C1640 C1642 1.384 . S
C1641 C1640 1.377 . S
C1641 C1647 1.390 . S
C1642 H1633 0.930 . S
C1642 C1640 1.384 . S
C1642 C1643 1.372 . S
C1643 C1642 1.372 . S
C1643 C1644 1.400 . S
C1643 C1648 1.490 . S
C1644 H1634 0.930 . S
C1644 C1643 1.400 . S
C1644 C1647 1.386 . S
H1645 C1661 0.930 . S
H1646 C1662 0.931 . S
C1647 H1635 0.929 . S
C1647 C1641 1.390 . S
C1647 C1644 1.386 . S
C1648 C1643 1.490 . S
C1648 C1650 1.395 . S
C1648 C1651 1.403 . S
H1649 C1655 0.930 . S
C1650 H1636 0.930 . S
C1650 C1648 1.395 . S
C1650 C1653 1.403 . S
C1651 C1648 1.403 . S
C1651 C1652 1.524 . S
C1651 C1655 1.400 . S
C1652 H1637 0.960 . S
C1652 H1638 0.960 . S
C1652 H1639 0.960 . S
C1652 C1651 1.524 . S
C1653 C1650 1.403 . S
C1653 C1654 1.392 . S
C1653 C1657 1.495 . S
C1654 C1653 1.392 . S
C1654 C1655 1.385 . S
C1654 C1656 1.478 . S
C1655 H1649 0.930 . S
C1655 C1651 1.400 . S
C1655 C1654 1.385 . S
C1656 C1654 1.478 . S
C1656 C1658 1.381 . S
C1656 C1662 1.383 . S
C1657 C1653 1.495 . S
C1657 H1663 0.959 . S
C1657 H1664 0.961 . S
C1657 H1665 0.960 . S
C1658 C1656 1.381 . S
C1658 C1659 1.394 . S
C1658 H1666 0.930 . S
C1659 C1658 1.394 . S
C1659 C1660 1.383 . S
C1659 H1667 0.929 . S
C1660 C1659 1.383 . S
C1660 C1661 1.377 . S
C1661 H1645 0.930 . S
C1661 C1660 1.377 . S
C1661 C1662 1.379 . S
C1662 H1646 0.931 . S
C1662 C1656 1.383 . S
C1662 C1661 1.379 . S
H1663 C1657 0.959 . S
H1664 C1657 0.961 . S
H1665 C1657 0.960 . S
H1666 C1658 0.930 . S
H1667 C1659 0.929 . S
H1668 C1676 0.929 . S
H1669 C1678 0.930 . S
H1670 C1680 0.930 . S
H1671 C1683 0.929 . S
H1672 C1686 0.930 . S
H1673 C1688 0.960 . S
H1674 C1688 0.960 . S
H1675 C1688 0.960 . S
C1676 H1668 0.929 . S
C1676 C1677 1.377 . S
C1676 C1678 1.384 . S
C1677 C1676 1.377 . S
C1677 C1683 1.390 . S
C1678 H1669 0.930 . S
C1678 C1676 1.384 . S
C1678 C1679 1.372 . S
C1679 C1678 1.372 . S
C1679 C1680 1.400 . S
C1679 C1684 1.490 . S
C1680 H1670 0.930 . S
C1680 C1679 1.400 . S
C1680 C1683 1.386 . S
H1681 C1697 0.930 . S
H1682 C1698 0.931 . S
C1683 H1671 0.929 . S
C1683 C1677 1.390 . S
C1683 C1680 1.386 . S
C1684 C1679 1.490 . S
C1684 C1686 1.395 . S
C1684 C1687 1.403 . S
H1685 C1691 0.930 . S
C1686 H1672 0.930 . S
C1686 C1684 1.395 . S
C1686 C1689 1.403 . S
C1687 C1684 1.403 . S
C1687 C1688 1.524 . S
C1687 C1691 1.400 . S
C1688 H1673 0.960 . S
C1688 H1674 0.960 . S
C1688 H1675 0.960 . S
C1688 C1687 1.524 . S
C1689 C1686 1.403 . S
C1689 C1690 1.392 . S
C1689 C1693 1.495 . S
C1690 C1689 1.392 . S
C1690 C1691 1.385 . S
C1690 C1692 1.478 . S
C1691 H1685 0.930 . S
C1691 C1687 1.400 . S
C1691 C1690 1.385 . S
C1692 C1690 1.478 . S
C1692 C1694 1.381 . S
C1692 C1698 1.383 . S
C1693 C1689 1.495 . S
C1693 H1699 0.959 . S
C1693 H1700 0.961 . S
C1693 H1701 0.960 . S
C1694 C1692 1.381 . S
C1694 C1695 1.394 . S
C1694 H1702 0.930 . S
C1695 C1694 1.394 . S
C1695 C1696 1.383 . S
C1695 H1703 0.929 . S
C1696 C1695 1.383 . S
C1696 C1697 1.377 . S
C1697 H1681 0.930 . S
C1697 C1696 1.377 . S
C1697 C1698 1.379 . S
C1698 H1682 0.931 . S
C1698 C1692 1.383 . S
C1698 C1697 1.379 . S
H1699 C1693 0.959 . S
H1700 C1693 0.961 . S
H1701 C1693 0.960 . S
H1702 C1694 0.930 . S
H1703 C1695 0.929 . S
H1704 C1712 0.929 . S
H1705 C1714 0.930 . S
H1706 C1716 0.930 . S
H1707 C1719 0.929 . S
H1708 C1722 0.930 . S
H1709 C1724 0.960 . S
H1710 C1724 0.960 . S
H1711 C1724 0.960 . S
C1712 H1704 0.929 . S
C1712 C1713 1.377 . S
C1712 C1714 1.384 . S
C1713 C1712 1.377 . S
C1713 C1719 1.390 . S
C1714 H1705 0.930 . S
C1714 C1712 1.384 . S
C1714 C1715 1.372 . S
C1715 C1714 1.372 . S
C1715 C1716 1.400 . S
C1715 C1720 1.490 . S
C1716 H1706 0.930 . S
C1716 C1715 1.400 . S
C1716 C1719 1.386 . S
H1717 C1733 0.930 . S
H1718 C1734 0.931 . S
C1719 H1707 0.929 . S
C1719 C1713 1.390 . S
C1719 C1716 1.386 . S
C1720 C1715 1.490 . S
C1720 C1722 1.395 . S
C1720 C1723 1.403 . S
H1721 C1727 0.930 . S
C1722 H1708 0.930 . S
C1722 C1720 1.395 . S
C1722 C1725 1.403 . S
C1723 C1720 1.403 . S
C1723 C1724 1.524 . S
C1723 C1727 1.400 . S
C1724 H1709 0.960 . S
C1724 H1710 0.960 . S
C1724 H1711 0.960 . S
C1724 C1723 1.524 . S
C1725 C1722 1.403 . S
C1725 C1726 1.392 . S
C1725 C1729 1.495 . S
C1726 C1725 1.392 . S
C1726 C1727 1.385 . S
C1726 C1728 1.478 . S
C1727 H1721 0.930 . S
C1727 C1723 1.400 . S
C1727 C1726 1.385 . S
C1728 C1726 1.478 . S
C1728 C1730 1.381 . S
C1728 C1734 1.383 . S
C1729 C1725 1.495 . S
C1729 H1735 0.959 1_655 S
C1729 H1736 0.961 . S
C1729 H1737 0.960 . S
C1730 C1728 1.381 . S
C1730 C1731 1.394 . S
C1730 H1738 0.930 . S
C1731 C1730 1.394 . S
C1731 C1732 1.383 . S
C1731 H1739 0.929 . S
C1732 C1731 1.383 . S
C1732 C1733 1.377 . S
C1733 H1717 0.930 . S
C1733 C1732 1.377 . S
C1733 C1734 1.379 . S
C1734 H1718 0.931 . S
C1734 C1728 1.383 . S
C1734 C1733 1.379 . S
H1735 C1729 0.959 1_455 S
H1736 C1729 0.961 . S
H1737 C1729 0.960 . S
H1738 C1730 0.930 . S
H1739 C1731 0.929 . S
H1740 C1748 0.929 . S
H1741 C1750 0.930 . S
H1742 C1752 0.930 . S
H1743 C1755 0.929 . S
H1744 C1758 0.930 . S
H1745 C1760 0.960 . S
H1746 C1760 0.960 . S
H1747 C1760 0.960 . S
C1748 H1740 0.929 . S
C1748 C1749 1.377 . S
C1748 C1750 1.384 . S
C1749 C1748 1.377 . S
C1749 C1755 1.390 . S
C1750 H1741 0.930 . S
C1750 C1748 1.384 . S
C1750 C1751 1.372 . S
C1751 C1750 1.372 . S
C1751 C1752 1.400 . S
C1751 C1756 1.490 . S
C1752 H1742 0.930 . S
C1752 C1751 1.400 . S
C1752 C1755 1.386 . S
H1753 C1769 0.930 . S
H1754 C1770 0.931 . S
C1755 H1743 0.929 . S
C1755 C1749 1.390 . S
C1755 C1752 1.386 . S
C1756 C1751 1.490 . S
C1756 C1758 1.395 . S
C1756 C1759 1.403 . S
H1757 C1763 0.930 . S
C1758 H1744 0.930 . S
C1758 C1756 1.395 . S
C1758 C1761 1.403 . S
C1759 C1756 1.403 . S
C1759 C1760 1.524 . S
C1759 C1763 1.400 . S
C1760 H1745 0.960 . S
C1760 H1746 0.960 . S
C1760 H1747 0.960 . S
C1760 C1759 1.524 . S
C1761 C1758 1.403 . S
C1761 C1762 1.392 . S
C1761 C1765 1.495 . S
C1762 C1761 1.392 . S
C1762 C1763 1.385 . S
C1762 C1764 1.478 . S
C1763 H1757 0.930 . S
C1763 C1759 1.400 . S
C1763 C1762 1.385 . S
C1764 C1762 1.478 . S
C1764 C1766 1.381 . S
C1764 C1770 1.383 . S
C1765 C1761 1.495 . S
C1765 H1771 0.959 . S
C1765 H1772 0.961 . S
C1765 H1773 0.960 . S
C1766 C1764 1.381 . S
C1766 C1767 1.394 . S
C1766 H1774 0.930 . S
C1767 C1766 1.394 . S
C1767 C1768 1.383 . S
C1767 H1775 0.929 . S
C1768 C1767 1.383 . S
C1768 C1769 1.377 . S
C1769 H1753 0.930 . S
C1769 C1768 1.377 . S
C1769 C1770 1.379 . S
C1770 H1754 0.931 . S
C1770 C1764 1.383 . S
C1770 C1769 1.379 . S
H1771 C1765 0.959 . S
H1772 C1765 0.961 . S
H1773 C1765 0.960 . S
H1774 C1766 0.930 . S
H1775 C1767 0.929 . S
H1776 C1784 0.929 . S
H1777 C1786 0.930 . S
H1778 C1788 0.930 . S
H1779 C1791 0.929 . S
H1780 C1794 0.930 . S
H1781 C1796 0.960 . S
H1782 C1796 0.960 . S
H1783 C1796 0.960 . S
C1784 H1776 0.929 . S
C1784 C1785 1.377 . S
C1784 C1786 1.384 . S
C1785 C1784 1.377 . S
C1785 C1791 1.390 . S
C1786 H1777 0.930 . S
C1786 C1784 1.384 . S
C1786 C1787 1.372 . S
C1787 C1786 1.372 . S
C1787 C1788 1.400 . S
C1787 C1792 1.490 . S
C1788 H1778 0.930 . S
C1788 C1787 1.400 . S
C1788 C1791 1.386 . S
H1789 C1805 0.930 . S
H1790 C1806 0.931 . S
C1791 H1779 0.929 . S
C1791 C1785 1.390 . S
C1791 C1788 1.386 . S
C1792 C1787 1.490 . S
C1792 C1794 1.395 . S
C1792 C1795 1.403 . S
H1793 C1799 0.930 . S
C1794 H1780 0.930 . S
C1794 C1792 1.395 . S
C1794 C1797 1.403 . S
C1795 C1792 1.403 . S
C1795 C1796 1.524 . S
C1795 C1799 1.400 . S
C1796 H1781 0.960 . S
C1796 H1782 0.960 . S
C1796 H1783 0.960 . S
C1796 C1795 1.524 . S
C1797 C1794 1.403 . S
C1797 C1798 1.392 . S
C1797 C1801 1.495 . S
C1798 C1797 1.392 . S
C1798 C1799 1.385 . S
C1798 C1800 1.478 . S
C1799 H1793 0.930 . S
C1799 C1795 1.400 . S
C1799 C1798 1.385 . S
C1800 C1798 1.478 . S
C1800 C1802 1.381 . S
C1800 C1806 1.383 . S
C1801 C1797 1.495 . S
C1801 H1807 0.959 . S
C1801 H1808 0.961 . S
C1801 H1809 0.960 . S
C1802 C1800 1.381 . S
C1802 C1803 1.394 . S
C1802 H1810 0.930 . S
C1803 C1802 1.394 . S
C1803 C1804 1.383 . S
C1803 H1811 0.929 . S
C1804 C1803 1.383 . S
C1804 C1805 1.377 . S
C1805 H1789 0.930 . S
C1805 C1804 1.377 . S
C1805 C1806 1.379 . S
C1806 H1790 0.931 . S
C1806 C1800 1.383 . S
C1806 C1805 1.379 . S
H1807 C1801 0.959 . S
H1808 C1801 0.961 . S
H1809 C1801 0.960 . S
H1810 C1802 0.930 . S
H1811 C1803 0.929 . S
H1812 C1820 0.929 . S
H1813 C1822 0.930 . S
H1814 C1824 0.930 . S
H1815 C1827 0.929 . S
H1816 C1830 0.930 . S
H1817 C1832 0.960 . S
H1818 C1832 0.960 . S
H1819 C1832 0.960 . S
C1820 H1812 0.929 . S
C1820 C1821 1.377 . S
C1820 C1822 1.384 . S
C1821 C1820 1.377 . S
C1821 C1827 1.390 . S
C1822 H1813 0.930 . S
C1822 C1820 1.384 . S
C1822 C1823 1.372 . S
C1823 C1822 1.372 . S
C1823 C1824 1.400 . S
C1823 C1828 1.490 . S
C1824 H1814 0.930 . S
C1824 C1823 1.400 . S
C1824 C1827 1.386 . S
H1825 C1841 0.930 . S
H1826 C1842 0.931 . S
C1827 H1815 0.929 . S
C1827 C1821 1.390 . S
C1827 C1824 1.386 . S
C1828 C1823 1.490 . S
C1828 C1830 1.395 . S
C1828 C1831 1.403 . S
H1829 C1835 0.930 . S
C1830 H1816 0.930 . S
C1830 C1828 1.395 . S
C1830 C1833 1.403 . S
C1831 C1828 1.403 . S
C1831 C1832 1.524 . S
C1831 C1835 1.400 . S
C1832 H1817 0.960 . S
C1832 H1818 0.960 . S
C1832 H1819 0.960 . S
C1832 C1831 1.524 . S
C1833 C1830 1.403 . S
C1833 C1834 1.392 . S
C1833 C1837 1.495 . S
C1834 C1833 1.392 . S
C1834 C1835 1.385 . S
C1834 C1836 1.478 . S
C1835 H1829 0.930 . S
C1835 C1831 1.400 . S
C1835 C1834 1.385 . S
C1836 C1834 1.478 . S
C1836 C1838 1.381 . S
C1836 C1842 1.383 . S
C1837 C1833 1.495 . S
C1837 H1843 0.959 . S
C1837 H1844 0.961 . S
C1837 H1845 0.960 . S
C1838 C1836 1.381 . S
C1838 C1839 1.394 . S
C1838 H1846 0.930 . S
C1839 C1838 1.394 . S
C1839 C1840 1.383 . S
C1839 H1847 0.929 . S
C1840 C1839 1.383 . S
C1840 C1841 1.377 . S
C1841 H1825 0.930 . S
C1841 C1840 1.377 . S
C1841 C1842 1.379 . S
C1842 H1826 0.931 . S
C1842 C1836 1.383 . S
C1842 C1841 1.379 . S
H1843 C1837 0.959 . S
H1844 C1837 0.961 . S
H1845 C1837 0.960 . S
H1846 C1838 0.930 . S
H1847 C1839 0.929 . S
H1848 C1856 0.929 . S
H1849 C1858 0.930 . S
H1850 C1860 0.930 . S
H1851 C1863 0.929 . S
H1852 C1866 0.930 . S
H1853 C1868 0.960 . S
H1854 C1868 0.960 . S
H1855 C1868 0.960 . S
C1856 H1848 0.929 . S
C1856 C1857 1.377 . S
C1856 C1858 1.384 . S
C1857 C1856 1.377 . S
C1857 C1863 1.390 . S
C1858 H1849 0.930 . S
C1858 C1856 1.384 . S
C1858 C1859 1.372 . S
C1859 C1858 1.372 . S
C1859 C1860 1.400 . S
C1859 C1864 1.490 . S
C1860 H1850 0.930 . S
C1860 C1859 1.400 . S
C1860 C1863 1.386 . S
H1861 C1877 0.930 . S
H1862 C1878 0.931 . S
C1863 H1851 0.929 . S
C1863 C1857 1.390 . S
C1863 C1860 1.386 . S
C1864 C1859 1.490 . S
C1864 C1866 1.395 . S
C1864 C1867 1.403 . S
H1865 C1871 0.930 . S
C1866 H1852 0.930 . S
C1866 C1864 1.395 . S
C1866 C1869 1.403 . S
C1867 C1864 1.403 . S
C1867 C1868 1.524 . S
C1867 C1871 1.400 . S
C1868 H1853 0.960 . S
C1868 H1854 0.960 . S
C1868 H1855 0.960 . S
C1868 C1867 1.524 . S
C1869 C1866 1.403 . S
C1869 C1870 1.392 . S
C1869 C1873 1.495 . S
C1870 C1869 1.392 . S
C1870 C1871 1.385 . S
C1870 C1872 1.478 . S
C1871 H1865 0.930 . S
C1871 C1867 1.400 . S
C1871 C1870 1.385 . S
C1872 C1870 1.478 . S
C1872 C1874 1.381 . S
C1872 C1878 1.383 . S
C1873 C1869 1.495 . S
C1873 H1879 0.971 . S
C1873 H1880 0.961 . S
C1873 H1881 0.960 . S
C1874 C1872 1.381 . S
C1874 C1875 1.394 . S
C1874 H1882 0.930 . S
C1875 C1874 1.394 . S
C1875 C1876 1.383 . S
C1875 H1883 0.929 . S
C1876 C1875 1.383 . S
C1876 C1877 1.377 . S
C1877 H1861 0.930 . S
C1877 C1876 1.377 . S
C1877 C1878 1.379 . S
C1878 H1862 0.931 . S
C1878 C1872 1.383 . S
C1878 C1877 1.379 . S
H1879 C1873 0.971 . S
H1880 C1873 0.961 . S
H1881 C1873 0.960 . S
H1882 C1874 0.930 . S
H1883 C1875 0.929 . S
H1884 C1892 0.929 . S
H1885 C1894 0.930 . S
H1886 C1896 0.930 . S
H1887 C1899 0.929 . S
H1888 C1902 0.930 . S
H1889 C1904 0.960 1_545 S
H1890 C1904 0.960 . S
H1891 C1904 0.960 . S
C1892 H1884 0.929 . S
C1892 C1893 1.377 . S
C1892 C1894 1.384 . S
C1893 C1892 1.377 . S
C1893 C1899 1.390 . S
C1894 H1885 0.930 . S
C1894 C1892 1.384 . S
C1894 C1895 1.372 . S
C1895 C1894 1.372 . S
C1895 C1896 1.400 . S
C1895 C1900 1.490 . S
C1896 H1886 0.930 . S
C1896 C1895 1.400 . S
C1896 C1899 1.386 . S
H1897 C1913 0.930 . S
H1898 C1914 0.931 . S
C1899 H1887 0.929 . S
C1899 C1893 1.390 . S
C1899 C1896 1.386 . S
C1900 C1895 1.490 . S
C1900 C1902 1.395 . S
C1900 C1903 1.403 . S
H1901 C1907 0.930 . S
C1902 H1888 0.930 . S
C1902 C1900 1.395 . S
C1902 C1905 1.403 . S
C1903 C1900 1.403 . S
C1903 C1904 1.524 . S
C1903 C1907 1.400 . S
C1904 H1889 0.960 1_565 S
C1904 H1890 0.960 . S
C1904 H1891 0.960 . S
C1904 C1903 1.524 . S
C1905 C1902 1.403 . S
C1905 C1906 1.392 . S
C1905 C1909 1.495 . S
C1906 C1905 1.392 . S
C1906 C1907 1.385 . S
C1906 C1908 1.478 . S
C1907 H1901 0.930 . S
C1907 C1903 1.400 . S
C1907 C1906 1.385 . S
C1908 C1906 1.478 . S
C1908 C1910 1.381 . S
C1908 C1914 1.383 . S
C1909 C1905 1.495 . S
C1909 H1915 0.959 . S
C1909 H1916 0.961 . S
C1909 H1917 0.960 . S
C1910 C1908 1.381 . S
C1910 C1911 1.394 . S
C1910 H1918 0.930 . S
C1911 C1910 1.394 . S
C1911 C1912 1.383 . S
C1911 H1919 0.929 . S
C1912 C1911 1.383 . S
C1912 C1913 1.377 . S
C1913 H1897 0.930 . S
C1913 C1912 1.377 . S
C1913 C1914 1.379 . S
C1914 H1898 0.931 . S
C1914 C1908 1.383 . S
C1914 C1913 1.379 . S
H1915 C1909 0.959 . S
H1916 C1909 0.961 . S
H1917 C1909 0.960 . S
H1918 C1910 0.930 . S
H1919 C1911 0.929 . S
H1920 C1928 0.929 . S
H1921 C1930 0.930 . S
H1922 C1932 0.930 . S
H1923 C1935 0.929 . S
H1924 C1938 0.930 . S
H1925 C1940 0.960 . S
H1926 C1940 0.960 . S
H1927 C1940 0.960 . S
C1928 H1920 0.929 . S
C1928 C1929 1.377 . S
C1928 C1930 1.384 . S
C1929 C1928 1.377 . S
C1929 C1935 1.390 . S
C1930 H1921 0.930 . S
C1930 C1928 1.384 . S
C1930 C1931 1.372 . S
C1931 C1930 1.372 . S
C1931 C1932 1.400 . S
C1931 C1936 1.490 . S
C1932 H1922 0.930 . S
C1932 C1931 1.400 . S
C1932 C1935 1.386 . S
H1933 C1949 0.930 . S
H1934 C1950 0.931 . S
C1935 H1923 0.929 . S
C1935 C1929 1.390 . S
C1935 C1932 1.386 . S
C1936 C1931 1.490 . S
C1936 C1938 1.395 . S
C1936 C1939 1.403 . S
H1937 C1943 0.930 . S
C1938 H1924 0.930 . S
C1938 C1936 1.395 . S
C1938 C1941 1.403 . S
C1939 C1936 1.403 . S
C1939 C1940 1.524 . S
C1939 C1943 1.400 . S
C1940 H1925 0.960 . S
C1940 H1926 0.960 . S
C1940 H1927 0.960 . S
C1940 C1939 1.524 . S
C1941 C1938 1.403 . S
C1941 C1942 1.392 . S
C1941 C1945 1.495 . S
C1942 C1941 1.392 . S
C1942 C1943 1.385 . S
C1942 C1944 1.478 . S
C1943 H1937 0.930 . S
C1943 C1939 1.400 . S
C1943 C1942 1.385 . S
C1944 C1942 1.478 . S
C1944 C1946 1.381 . S
C1944 C1950 1.383 . S
C1945 C1941 1.495 . S
C1945 H1951 0.959 . S
C1945 H1952 0.961 . S
C1945 H1953 0.960 . S
C1946 C1944 1.381 . S
C1946 C1947 1.394 . S
C1946 H1954 0.930 . S
C1947 C1946 1.394 . S
C1947 C1948 1.383 . S
C1947 H1955 0.929 . S
C1948 C1947 1.383 . S
C1948 C1949 1.377 . S
C1949 H1933 0.930 . S
C1949 C1948 1.377 . S
C1949 C1950 1.379 . S
C1950 H1934 0.931 . S
C1950 C1944 1.383 . S
C1950 C1949 1.379 . S
H1951 C1945 0.959 . S
H1952 C1945 0.961 . S
H1953 C1945 0.960 . S
H1954 C1946 0.930 . S
H1955 C1947 0.929 . S
H1956 C1964 0.929 . S
H1957 C1966 0.930 . S
H1958 C1968 0.930 . S
H1959 C1971 0.929 . S
H1960 C1974 0.930 . S
H1961 C1976 0.960 . S
H1962 C1976 0.960 . S
H1963 C1976 0.960 . S
C1964 H1956 0.929 . S
C1964 C1965 1.377 . S
C1964 C1966 1.384 . S
C1965 C1964 1.377 . S
C1965 C1971 1.390 . S
C1966 H1957 0.930 . S
C1966 C1964 1.384 . S
C1966 C1967 1.372 . S
C1967 C1966 1.372 . S
C1967 C1968 1.400 . S
C1967 C1972 1.490 . S
C1968 H1958 0.930 . S
C1968 C1967 1.400 . S
C1968 C1971 1.386 . S
H1969 C1985 0.930 . S
H1970 C1986 0.931 . S
C1971 H1959 0.929 . S
C1971 C1965 1.390 . S
C1971 C1968 1.386 . S
C1972 C1967 1.490 . S
C1972 C1974 1.395 . S
C1972 C1975 1.403 . S
H1973 C1979 0.930 . S
C1974 H1960 0.930 . S
C1974 C1972 1.395 . S
C1974 C1977 1.403 . S
C1975 C1972 1.403 . S
C1975 C1976 1.524 . S
C1975 C1979 1.400 . S
C1976 H1961 0.960 . S
C1976 H1962 0.960 . S
C1976 H1963 0.960 . S
C1976 C1975 1.524 . S
C1977 C1974 1.403 . S
C1977 C1978 1.392 . S
C1977 C1981 1.495 . S
C1978 C1977 1.392 . S
C1978 C1979 1.385 . S
C1978 C1980 1.478 . S
C1979 H1973 0.930 . S
C1979 C1975 1.400 . S
C1979 C1978 1.385 . S
C1980 C1978 1.478 . S
C1980 C1982 1.381 . S
C1980 C1986 1.383 . S
C1981 C1977 1.495 . S
C1981 H1987 0.959 . S
C1981 H1988 0.961 . S
C1981 H1989 0.960 . S
C1982 C1980 1.381 . S
C1982 C1983 1.394 . S
C1982 H1990 0.930 . S
C1983 C1982 1.394 . S
C1983 C1984 1.383 . S
C1983 H1991 0.929 . S
C1984 C1983 1.383 . S
C1984 C1985 1.377 . S
C1985 H1969 0.930 . S
C1985 C1984 1.377 . S
C1985 C1986 1.379 . S
C1986 H1970 0.931 . S
C1986 C1980 1.383 . S
C1986 C1985 1.379 . S
H1987 C1981 0.959 . S
H1988 C1981 0.961 . S
H1989 C1981 0.960 . S
H1990 C1982 0.930 . S
H1991 C1983 0.929 . S
H1992 C2000 0.929 . S
H1993 C2002 0.930 . S
H1994 C2004 0.930 . S
H1995 C2007 0.929 . S
H1996 C2010 0.930 . S
H1997 C2012 0.960 1_565 S
H1998 C2012 0.960 . S
H1999 C2012 0.960 . S
C2000 H1992 0.929 . S
C2000 C2001 1.377 . S
C2000 C2002 1.384 . S
C2001 C2000 1.377 . S
C2001 C2007 1.390 . S
C2002 H1993 0.930 . S
C2002 C2000 1.384 . S
C2002 C2003 1.372 . S
C2003 C2002 1.372 . S
C2003 C2004 1.400 . S
C2003 C2008 1.490 . S
C2004 H1994 0.930 . S
C2004 C2003 1.400 . S
C2004 C2007 1.386 . S
H2005 C2021 0.930 . S
H2006 C2022 0.931 . S
C2007 H1995 0.929 . S
C2007 C2001 1.390 . S
C2007 C2004 1.386 . S
C2008 C2003 1.490 . S
C2008 C2010 1.395 . S
C2008 C2011 1.403 . S
H2009 C2015 0.930 . S
C2010 H1996 0.930 . S
C2010 C2008 1.395 . S
C2010 C2013 1.403 . S
C2011 C2008 1.403 . S
C2011 C2012 1.524 . S
C2011 C2015 1.400 . S
C2012 H1997 0.960 1_545 S
C2012 H1998 0.960 . S
C2012 H1999 0.960 . S
C2012 C2011 1.524 . S
C2013 C2010 1.403 . S
C2013 C2014 1.392 . S
C2013 C2017 1.495 . S
C2014 C2013 1.392 . S
C2014 C2015 1.385 . S
C2014 C2016 1.478 . S
C2015 H2009 0.930 . S
C2015 C2011 1.400 . S
C2015 C2014 1.385 . S
C2016 C2014 1.478 . S
C2016 C2018 1.381 . S
C2016 C2022 1.383 . S
C2017 C2013 1.495 . S
C2017 H2023 0.959 . S
C2017 H2024 0.961 . S
C2017 H2025 0.960 . S
C2018 C2016 1.381 . S
C2018 C2019 1.394 . S
C2018 H2026 0.930 . S
C2019 C2018 1.394 . S
C2019 C2020 1.383 . S
C2019 H2027 0.929 . S
C2020 C2019 1.383 . S
C2020 C2021 1.377 . S
C2021 H2005 0.930 . S
C2021 C2020 1.377 . S
C2021 C2022 1.379 . S
C2022 H2006 0.931 . S
C2022 C2016 1.383 . S
C2022 C2021 1.379 . S
H2023 C2017 0.959 . S
H2024 C2017 0.961 . S
H2025 C2017 0.960 . S
H2026 C2018 0.930 . S
H2027 C2019 0.929 . S
H2028 C2036 0.929 . S
H2029 C2038 0.930 . S
H2030 C2040 0.930 . S
H2031 C2043 0.929 . S
H2032 C2046 0.930 . S
H2033 C2048 0.960 . S
H2034 C2048 0.960 . S
H2035 C2048 0.960 . S
C2036 H2028 0.929 . S
C2036 C2037 1.377 . S
C2036 C2038 1.384 . S
C2037 C2036 1.377 . S
C2037 C2043 1.390 . S
C2038 H2029 0.930 . S
C2038 C2036 1.384 . S
C2038 C2039 1.372 . S
C2039 C2038 1.372 . S
C2039 C2040 1.400 . S
C2039 C2044 1.490 . S
C2040 H2030 0.930 . S
C2040 C2039 1.400 . S
C2040 C2043 1.386 . S
H2041 C2057 0.930 . S
H2042 C2058 0.931 . S
C2043 H2031 0.929 . S
C2043 C2037 1.390 . S
C2043 C2040 1.386 . S
C2044 C2039 1.490 . S
C2044 C2046 1.395 . S
C2044 C2047 1.403 . S
H2045 C2051 0.930 . S
C2046 H2032 0.930 . S
C2046 C2044 1.395 . S
C2046 C2049 1.403 . S
C2047 C2044 1.403 . S
C2047 C2048 1.524 . S
C2047 C2051 1.400 . S
C2048 H2033 0.960 . S
C2048 H2034 0.960 . S
C2048 H2035 0.960 . S
C2048 C2047 1.524 . S
C2049 C2046 1.403 . S
C2049 C2050 1.392 . S
C2049 C2053 1.495 . S
C2050 C2049 1.392 . S
C2050 C2051 1.385 . S
C2050 C2052 1.478 . S
C2051 H2045 0.930 . S
C2051 C2047 1.400 . S
C2051 C2050 1.385 . S
C2052 C2050 1.478 . S
C2052 C2054 1.381 . S
C2052 C2058 1.383 . S
C2053 C2049 1.495 . S
C2053 H2059 0.959 . S
C2053 H2060 0.961 . S
C2053 H2061 0.960 . S
C2054 C2052 1.381 . S
C2054 C2055 1.394 . S
C2054 H2062 0.930 . S
C2055 C2054 1.394 . S
C2055 C2056 1.383 . S
C2055 H2063 0.929 . S
C2056 C2055 1.383 . S
C2056 C2057 1.377 . S
C2057 H2041 0.930 . S
C2057 C2056 1.377 . S
C2057 C2058 1.379 . S
C2058 H2042 0.931 . S
C2058 C2052 1.383 . S
C2058 C2057 1.379 . S
H2059 C2053 0.959 . S
H2060 C2053 0.961 . S
H2061 C2053 0.960 . S
H2062 C2054 0.930 . S
H2063 C2055 0.929 . S
C345 C219 1.173 . S
C364 C9 1.191 . S
C381 C23 1.167 . S
C400 C233 1.150 . S
C417 C37 1.164 . S
C436 C247 1.196 . S
C453 C51 1.167 . S
C472 C177 1.202 . S
C489 C191 1.174 . S
C508 C65 1.187 . S
C525 C79 1.178 . S
C544 C205 1.147 . S
C561 C303 1.169 . S
C580 C93 1.200 . S
C597 C107 1.177 . S
C616 C317 1.139 . S
C633 C121 1.166 . S
C652 C331 1.159 . S
C669 C261 1.166 . S
C688 C135 1.202 . S
C705 C149 1.174 . S
C724 C275 1.188 . S
C741 C289 1.164 . S
C760 C163 1.196 . S
C777 C3 1.613 . S
C796 C325 1.608 . S
C813 C255 1.613 . S
C832 C17 1.609 . S
C849 C31 1.614 . S
C868 C269 1.609 . S
C885 C283 1.613 . S
C904 C45 1.608 . S
C921 C59 1.613 . S
C940 C297 1.608 . S
C957 C311 1.613 . S
C976 C73 1.610 . S
C993 C87 1.613 . S
C1012 C185 1.610 . S
C1029 C199 1.613 . S
C1048 C101 1.611 . S
C1065 C213 1.613 . S
C1084 C115 1.609 . S
C1101 C227 1.613 . S
C1120 C129 1.609 . S
C1137 C143 1.614 . S
C1156 C241 1.608 . S
C1173 C157 1.612 . S
C1192 C171 1.609 . S
C1209 C106 1.168 . S
C1228 C8 1.157 . S
C1245 C120 1.168 . S
C1264 C22 1.153 . S
C1281 C134 1.173 . S
C1300 C36 1.179 . S
C1317 C148 1.169 . S
C1336 C50 1.159 . S
C1353 C64 1.170 . S
C1372 C162 1.166 . S
C1389 C78 1.171 . S
C1408 C92 1.170 . S
C1425 C176 1.173 . S
C1444 C274 1.152 . S
C1461 C190 1.173 . S
C1480 C288 1.176 . S
C1497 C302 1.168 . S
C1516 C204 1.172 . S
C1533 C316 1.168 . S
C1552 C218 1.184 . S
C1569 C330 1.170 . S
C1588 C232 1.183 . S
C1605 C260 1.168 . S
C1624 C246 1.167 . S
C1641 C7 1.609 . S
C1660 C273 1.593 . S
C1677 C287 1.603 . S
C1696 C21 1.589 . S
C1713 C35 1.601 . S
C1732 C301 1.616 . S
C1749 C315 1.605 . S
C1768 C49 1.584 . S
C1785 C63 1.609 . S
C1804 C329 1.590 . S
C1821 C259 1.603 . S
C1840 C77 1.621 . S
C1857 C91 1.601 . S
C1876 C245 1.609 . S
C1893 C175 1.604 . S
C1912 C105 1.588 . S
C1929 C119 1.601 . S
C1948 C189 1.609 . S
C1965 C133 1.608 . S
C1984 C203 1.596 . S
C2001 C147 1.609 . S
C2020 C217 1.587 . S
C2037 C161 1.607 . S
C2056 C231 1.582 . S
