# Generated by pormake.
# Topology fcq, (5)-cn, num edge types: 1
# Building blocks:
#     Node 0, Type 0, BuildingBlock: BEQFEK_clean_sbu_0, # of connection points: 5
#     Node 1, Type 0, BuildingBlock: BEQFEK_clean_sbu_0, # of connection points: 5
#     Node 2, Type 0, BuildingBlock: BEQFEK_clean_sbu_0, # of connection points: 5
#     Node 3, Type 0, BuildingBlock: BEQFEK_clean_sbu_0, # of connection points: 5
#     Node 4, Type 0, BuildingBlock: BEQFEK_clean_sbu_0, # of connection points: 5
#     Node 5, Type 0, BuildingBlock: BEQFEK_clean_sbu_0, # of connection points: 5
#     Node 6, Type 0, BuildingBlock: BEQFEK_clean_sbu_0, # of connection points: 5
#     Node 7, Type 0, BuildingBlock: BEQFEK_clean_sbu_0, # of connection points: 5
#     Node 8, Type 0, BuildingBlock: BEQFEK_clean_sbu_0, # of connection points: 5
#     Node 9, Type 0, BuildingBlock: BEQFEK_clean_sbu_0, # of connection points: 5
#     Node 10, Type 0, BuildingBlock: BEQFEK_clean_sbu_0, # of connection points: 5
#     Node 11, Type 0, BuildingBlock: BEQFEK_clean_sbu_0, # of connection points: 5
#     Node 12, Type 0, BuildingBlock: BEQFEK_clean_sbu_0, # of connection points: 5
#     Node 13, Type 0, BuildingBlock: BEQFEK_clean_sbu_0, # of connection points: 5
#     Node 14, Type 0, BuildingBlock: BEQFEK_clean_sbu_0, # of connection points: 5
#     Node 15, Type 0, BuildingBlock: BEQFEK_clean_sbu_0, # of connection points: 5
#     Node 16, Type 0, BuildingBlock: BEQFEK_clean_sbu_0, # of connection points: 5
#     Node 17, Type 0, BuildingBlock: BEQFEK_clean_sbu_0, # of connection points: 5
#     Node 18, Type 0, BuildingBlock: BEQFEK_clean_sbu_0, # of connection points: 5
#     Node 19, Type 0, BuildingBlock: BEQFEK_clean_sbu_0, # of connection points: 5
#     Node 20, Type 0, BuildingBlock: BEQFEK_clean_sbu_0, # of connection points: 5
#     Node 21, Type 0, BuildingBlock: BEQFEK_clean_sbu_0, # of connection points: 5
#     Node 22, Type 0, BuildingBlock: BEQFEK_clean_sbu_0, # of connection points: 5
#     Node 23, Type 0, BuildingBlock: BEQFEK_clean_sbu_0, # of connection points: 5
#     Node 24, Type 0, BuildingBlock: BEQFEK_clean_sbu_0, # of connection points: 5
#     Node 25, Type 0, BuildingBlock: BEQFEK_clean_sbu_0, # of connection points: 5
#     Node 26, Type 0, BuildingBlock: BEQFEK_clean_sbu_0, # of connection points: 5
#     Node 27, Type 0, BuildingBlock: BEQFEK_clean_sbu_0, # of connection points: 5
#     Node 28, Type 0, BuildingBlock: BEQFEK_clean_sbu_0, # of connection points: 5
#     Node 29, Type 0, BuildingBlock: BEQFEK_clean_sbu_0, # of connection points: 5
#     Node 30, Type 0, BuildingBlock: BEQFEK_clean_sbu_0, # of connection points: 5
#     Node 31, Type 0, BuildingBlock: BEQFEK_clean_sbu_0, # of connection points: 5
#     Node 32, Type 0, BuildingBlock: BEQFEK_clean_sbu_0, # of connection points: 5
#     Node 33, Type 0, BuildingBlock: BEQFEK_clean_sbu_0, # of connection points: 5
#     Node 34, Type 0, BuildingBlock: BEQFEK_clean_sbu_0, # of connection points: 5
#     Node 35, Type 0, BuildingBlock: BEQFEK_clean_sbu_0, # of connection points: 5
#     Node 36, Type 0, BuildingBlock: BEQFEK_clean_sbu_0, # of connection points: 5
#     Node 37, Type 0, BuildingBlock: BEQFEK_clean_sbu_0, # of connection points: 5
#     Node 38, Type 0, BuildingBlock: BEQFEK_clean_sbu_0, # of connection points: 5
#     Node 39, Type 0, BuildingBlock: BEQFEK_clean_sbu_0, # of connection points: 5
#     Node 40, Type 0, BuildingBlock: BEQFEK_clean_sbu_0, # of connection points: 5
#     Node 41, Type 0, BuildingBlock: BEQFEK_clean_sbu_0, # of connection points: 5
#     Node 42, Type 0, BuildingBlock: BEQFEK_clean_sbu_0, # of connection points: 5
#     Node 43, Type 0, BuildingBlock: BEQFEK_clean_sbu_0, # of connection points: 5
#     Node 44, Type 0, BuildingBlock: BEQFEK_clean_sbu_0, # of connection points: 5
#     Node 45, Type 0, BuildingBlock: BEQFEK_clean_sbu_0, # of connection points: 5
#     Node 46, Type 0, BuildingBlock: BEQFEK_clean_sbu_0, # of connection points: 5
#     Node 47, Type 0, BuildingBlock: BEQFEK_clean_sbu_0, # of connection points: 5
#     Edge 48, Type (0, 0), BuildingBlock: UVAHIK_clean_linker_0, # of connection points: 2
#     Edge 49, Type (0, 0), BuildingBlock: UVAHIK_clean_linker_0, # of connection points: 2
#     Edge 50, Type (0, 0), BuildingBlock: UVAHIK_clean_linker_0, # of connection points: 2
#     Edge 51, Type (0, 0), BuildingBlock: UVAHIK_clean_linker_0, # of connection points: 2
#     Edge 52, Type (0, 0), BuildingBlock: UVAHIK_clean_linker_0, # of connection points: 2
#     Edge 53, Type (0, 0), BuildingBlock: UVAHIK_clean_linker_0, # of connection points: 2
#     Edge 54, Type (0, 0), BuildingBlock: UVAHIK_clean_linker_0, # of connection points: 2
#     Edge 55, Type (0, 0), BuildingBlock: UVAHIK_clean_linker_0, # of connection points: 2
#     Edge 56, Type (0, 0), BuildingBlock: UVAHIK_clean_linker_0, # of connection points: 2
#     Edge 57, Type (0, 0), BuildingBlock: UVAHIK_clean_linker_0, # of connection points: 2
#     Edge 58, Type (0, 0), BuildingBlock: UVAHIK_clean_linker_0, # of connection points: 2
#     Edge 59, Type (0, 0), BuildingBlock: UVAHIK_clean_linker_0, # of connection points: 2
#     Edge 60, Type (0, 0), BuildingBlock: UVAHIK_clean_linker_0, # of connection points: 2
#     Edge 61, Type (0, 0), BuildingBlock: UVAHIK_clean_linker_0, # of connection points: 2
#     Edge 62, Type (0, 0), BuildingBlock: UVAHIK_clean_linker_0, # of connection points: 2
#     Edge 63, Type (0, 0), BuildingBlock: UVAHIK_clean_linker_0, # of connection points: 2
#     Edge 64, Type (0, 0), BuildingBlock: UVAHIK_clean_linker_0, # of connection points: 2
#     Edge 65, Type (0, 0), BuildingBlock: UVAHIK_clean_linker_0, # of connection points: 2
#     Edge 66, Type (0, 0), BuildingBlock: UVAHIK_clean_linker_0, # of connection points: 2
#     Edge 67, Type (0, 0), BuildingBlock: UVAHIK_clean_linker_0, # of connection points: 2
#     Edge 68, Type (0, 0), BuildingBlock: UVAHIK_clean_linker_0, # of connection points: 2
#     Edge 69, Type (0, 0), BuildingBlock: UVAHIK_clean_linker_0, # of connection points: 2
#     Edge 70, Type (0, 0), BuildingBlock: UVAHIK_clean_linker_0, # of connection points: 2
#     Edge 71, Type (0, 0), BuildingBlock: UVAHIK_clean_linker_0, # of connection points: 2
#     Edge 72, Type (0, 0), BuildingBlock: UVAHIK_clean_linker_0, # of connection points: 2
#     Edge 73, Type (0, 0), BuildingBlock: UVAHIK_clean_linker_0, # of connection points: 2
#     Edge 74, Type (0, 0), BuildingBlock: UVAHIK_clean_linker_0, # of connection points: 2
#     Edge 75, Type (0, 0), BuildingBlock: UVAHIK_clean_linker_0, # of connection points: 2
#     Edge 76, Type (0, 0), BuildingBlock: UVAHIK_clean_linker_0, # of connection points: 2
#     Edge 77, Type (0, 0), BuildingBlock: UVAHIK_clean_linker_0, # of connection points: 2
#     Edge 78, Type (0, 0), BuildingBlock: UVAHIK_clean_linker_0, # of connection points: 2
#     Edge 79, Type (0, 0), BuildingBlock: UVAHIK_clean_linker_0, # of connection points: 2
#     Edge 80, Type (0, 0), BuildingBlock: UVAHIK_clean_linker_0, # of connection points: 2
#     Edge 81, Type (0, 0), BuildingBlock: UVAHIK_clean_linker_0, # of connection points: 2
#     Edge 82, Type (0, 0), BuildingBlock: UVAHIK_clean_linker_0, # of connection points: 2
#     Edge 83, Type (0, 0), BuildingBlock: UVAHIK_clean_linker_0, # of connection points: 2
#     Edge 84, Type (0, 0), BuildingBlock: UVAHIK_clean_linker_0, # of connection points: 2
#     Edge 85, Type (0, 0), BuildingBlock: UVAHIK_clean_linker_0, # of connection points: 2
#     Edge 86, Type (0, 0), BuildingBlock: UVAHIK_clean_linker_0, # of connection points: 2
#     Edge 87, Type (0, 0), BuildingBlock: UVAHIK_clean_linker_0, # of connection points: 2
#     Edge 88, Type (0, 0), BuildingBlock: UVAHIK_clean_linker_0, # of connection points: 2
#     Edge 89, Type (0, 0), BuildingBlock: UVAHIK_clean_linker_0, # of connection points: 2
#     Edge 90, Type (0, 0), BuildingBlock: UVAHIK_clean_linker_0, # of connection points: 2
#     Edge 91, Type (0, 0), BuildingBlock: UVAHIK_clean_linker_0, # of connection points: 2
#     Edge 92, Type (0, 0), BuildingBlock: UVAHIK_clean_linker_0, # of connection points: 2
#     Edge 93, Type (0, 0), BuildingBlock: UVAHIK_clean_linker_0, # of connection points: 2
#     Edge 94, Type (0, 0), BuildingBlock: UVAHIK_clean_linker_0, # of connection points: 2
#     Edge 95, Type (0, 0), BuildingBlock: UVAHIK_clean_linker_0, # of connection points: 2
#     Edge 96, Type (0, 0), BuildingBlock: UVAHIK_clean_linker_0, # of connection points: 2
#     Edge 97, Type (0, 0), BuildingBlock: UVAHIK_clean_linker_0, # of connection points: 2
#     Edge 98, Type (0, 0), BuildingBlock: UVAHIK_clean_linker_0, # of connection points: 2
#     Edge 99, Type (0, 0), BuildingBlock: UVAHIK_clean_linker_0, # of connection points: 2
#     Edge 100, Type (0, 0), BuildingBlock: UVAHIK_clean_linker_0, # of connection points: 2
#     Edge 101, Type (0, 0), BuildingBlock: UVAHIK_clean_linker_0, # of connection points: 2
#     Edge 102, Type (0, 0), BuildingBlock: UVAHIK_clean_linker_0, # of connection points: 2
#     Edge 103, Type (0, 0), BuildingBlock: UVAHIK_clean_linker_0, # of connection points: 2
#     Edge 104, Type (0, 0), BuildingBlock: UVAHIK_clean_linker_0, # of connection points: 2
#     Edge 105, Type (0, 0), BuildingBlock: UVAHIK_clean_linker_0, # of connection points: 2
#     Edge 106, Type (0, 0), BuildingBlock: UVAHIK_clean_linker_0, # of connection points: 2
#     Edge 107, Type (0, 0), BuildingBlock: UVAHIK_clean_linker_0, # of connection points: 2
#     Edge 108, Type (0, 0), BuildingBlock: UVAHIK_clean_linker_0, # of connection points: 2
#     Edge 109, Type (0, 0), BuildingBlock: UVAHIK_clean_linker_0, # of connection points: 2
#     Edge 110, Type (0, 0), BuildingBlock: UVAHIK_clean_linker_0, # of connection points: 2
#     Edge 111, Type (0, 0), BuildingBlock: UVAHIK_clean_linker_0, # of connection points: 2
#     Edge 112, Type (0, 0), BuildingBlock: UVAHIK_clean_linker_0, # of connection points: 2
#     Edge 113, Type (0, 0), BuildingBlock: UVAHIK_clean_linker_0, # of connection points: 2
#     Edge 114, Type (0, 0), BuildingBlock: UVAHIK_clean_linker_0, # of connection points: 2
#     Edge 115, Type (0, 0), BuildingBlock: UVAHIK_clean_linker_0, # of connection points: 2
#     Edge 116, Type (0, 0), BuildingBlock: UVAHIK_clean_linker_0, # of connection points: 2
#     Edge 117, Type (0, 0), BuildingBlock: UVAHIK_clean_linker_0, # of connection points: 2
#     Edge 118, Type (0, 0), BuildingBlock: UVAHIK_clean_linker_0, # of connection points: 2
#     Edge 119, Type (0, 0), BuildingBlock: UVAHIK_clean_linker_0, # of connection points: 2
#     Edge 120, Type (0, 0), BuildingBlock: UVAHIK_clean_linker_0, # of connection points: 2
#     Edge 121, Type (0, 0), BuildingBlock: UVAHIK_clean_linker_0, # of connection points: 2
#     Edge 122, Type (0, 0), BuildingBlock: UVAHIK_clean_linker_0, # of connection points: 2
#     Edge 123, Type (0, 0), BuildingBlock: UVAHIK_clean_linker_0, # of connection points: 2
#     Edge 124, Type (0, 0), BuildingBlock: UVAHIK_clean_linker_0, # of connection points: 2
#     Edge 125, Type (0, 0), BuildingBlock: UVAHIK_clean_linker_0, # of connection points: 2
#     Edge 126, Type (0, 0), BuildingBlock: UVAHIK_clean_linker_0, # of connection points: 2
#     Edge 127, Type (0, 0), BuildingBlock: UVAHIK_clean_linker_0, # of connection points: 2
#     Edge 128, Type (0, 0), BuildingBlock: UVAHIK_clean_linker_0, # of connection points: 2
#     Edge 129, Type (0, 0), BuildingBlock: UVAHIK_clean_linker_0, # of connection points: 2
#     Edge 130, Type (0, 0), BuildingBlock: UVAHIK_clean_linker_0, # of connection points: 2
#     Edge 131, Type (0, 0), BuildingBlock: UVAHIK_clean_linker_0, # of connection points: 2
#     Edge 132, Type (0, 0), BuildingBlock: UVAHIK_clean_linker_0, # of connection points: 2
#     Edge 133, Type (0, 0), BuildingBlock: UVAHIK_clean_linker_0, # of connection points: 2
#     Edge 134, Type (0, 0), BuildingBlock: UVAHIK_clean_linker_0, # of connection points: 2
#     Edge 135, Type (0, 0), BuildingBlock: UVAHIK_clean_linker_0, # of connection points: 2
#     Edge 136, Type (0, 0), BuildingBlock: UVAHIK_clean_linker_0, # of connection points: 2
#     Edge 137, Type (0, 0), BuildingBlock: UVAHIK_clean_linker_0, # of connection points: 2
#     Edge 138, Type (0, 0), BuildingBlock: UVAHIK_clean_linker_0, # of connection points: 2
#     Edge 139, Type (0, 0), BuildingBlock: UVAHIK_clean_linker_0, # of connection points: 2
#     Edge 140, Type (0, 0), BuildingBlock: UVAHIK_clean_linker_0, # of connection points: 2
#     Edge 141, Type (0, 0), BuildingBlock: UVAHIK_clean_linker_0, # of connection points: 2
#     Edge 142, Type (0, 0), BuildingBlock: UVAHIK_clean_linker_0, # of connection points: 2
#     Edge 143, Type (0, 0), BuildingBlock: UVAHIK_clean_linker_0, # of connection points: 2
#     Edge 144, Type (0, 0), BuildingBlock: UVAHIK_clean_linker_0, # of connection points: 2
#     Edge 145, Type (0, 0), BuildingBlock: UVAHIK_clean_linker_0, # of connection points: 2
#     Edge 146, Type (0, 0), BuildingBlock: UVAHIK_clean_linker_0, # of connection points: 2
#     Edge 147, Type (0, 0), BuildingBlock: UVAHIK_clean_linker_0, # of connection points: 2
#     Edge 148, Type (0, 0), BuildingBlock: UVAHIK_clean_linker_0, # of connection points: 2
#     Edge 149, Type (0, 0), BuildingBlock: UVAHIK_clean_linker_0, # of connection points: 2
#     Edge 150, Type (0, 0), BuildingBlock: UVAHIK_clean_linker_0, # of connection points: 2
#     Edge 151, Type (0, 0), BuildingBlock: UVAHIK_clean_linker_0, # of connection points: 2
#     Edge 152, Type (0, 0), BuildingBlock: UVAHIK_clean_linker_0, # of connection points: 2
#     Edge 153, Type (0, 0), BuildingBlock: UVAHIK_clean_linker_0, # of connection points: 2
#     Edge 154, Type (0, 0), BuildingBlock: UVAHIK_clean_linker_0, # of connection points: 2
#     Edge 155, Type (0, 0), BuildingBlock: UVAHIK_clean_linker_0, # of connection points: 2
#     Edge 156, Type (0, 0), BuildingBlock: UVAHIK_clean_linker_0, # of connection points: 2
#     Edge 157, Type (0, 0), BuildingBlock: UVAHIK_clean_linker_0, # of connection points: 2
#     Edge 158, Type (0, 0), BuildingBlock: UVAHIK_clean_linker_0, # of connection points: 2
#     Edge 159, Type (0, 0), BuildingBlock: UVAHIK_clean_linker_0, # of connection points: 2
#     Edge 160, Type (0, 0), BuildingBlock: UVAHIK_clean_linker_0, # of connection points: 2
#     Edge 161, Type (0, 0), BuildingBlock: UVAHIK_clean_linker_0, # of connection points: 2
#     Edge 162, Type (0, 0), BuildingBlock: UVAHIK_clean_linker_0, # of connection points: 2
#     Edge 163, Type (0, 0), BuildingBlock: UVAHIK_clean_linker_0, # of connection points: 2
#     Edge 164, Type (0, 0), BuildingBlock: UVAHIK_clean_linker_0, # of connection points: 2
#     Edge 165, Type (0, 0), BuildingBlock: UVAHIK_clean_linker_0, # of connection points: 2
#     Edge 166, Type (0, 0), BuildingBlock: UVAHIK_clean_linker_0, # of connection points: 2
#     Edge 167, Type (0, 0), BuildingBlock: UVAHIK_clean_linker_0, # of connection points: 2
# Relax obj value: 0.398
# Max RMSD: 0.230
# Mean RMSD: 0.230
data_MOF--net-fcq--node1-BEQFEK_clean_sbu_0--edge1-UVAHIK_clean_linker_0
_symmetry_space_group_name_H-M    P1
_symmetry_Int_Tables_number       1
_symmetry_cell_setting            triclinic
loop_
_symmetry_equiv_pos_as_xyz
'x, y, z'
_cell_length_a     85.946785
_cell_length_b     85.973851
_cell_length_c     85.959322
_cell_angle_alpha  89.98639
_cell_angle_beta   89.992709
_cell_angle_gamma 89.991198
loop_
_atom_site_label
_atom_site_type_symbol
_atom_site_fract_x
_atom_site_fract_y
_atom_site_fract_z
_atom_type_partial_charge
Co0 Co 0.18384 0.19943 0.41802 0.0
Co1 Co 0.16319 0.1812 0.39428 0.0
C2 C 0.16075 0.17655 0.4291 0.0
O3 O 0.17067 0.18706 0.43226 0.0
O4 O 0.15742 0.1731 0.41511 0.0
C5 C 0.1931 0.2182 0.44403 0.0
O6 O 0.17949 0.21421 0.44974 0.0
C7 C 0.13357 0.16936 0.38382 0.0
C8 C 0.13838 0.16096 0.36002 0.0
C9 C 0.12685 0.16176 0.37128 0.0
N10 N 0.1484 0.17265 0.38026 0.0
N11 N 0.15124 0.16769 0.36599 0.0
C12 C 0.12592 0.17415 0.39873 0.0
H13 H 0.13154 0.18477 0.40344 0.0
H14 H 0.11333 0.17639 0.39693 0.0
H15 H 0.12726 0.16471 0.40743 0.0
C16 C 0.16792 0.22608 0.40354 0.0
N17 N 0.17127 0.21082 0.40413 0.0
N18 N 0.16254 0.20333 0.39403 0.0
C19 C 0.15337 0.2137 0.3866 0.0
C20 C 0.1564 0.22841 0.39253 0.0
C21 C 0.17499 0.23809 0.41396 0.0
H22 H 0.18781 0.23669 0.41413 0.0
H23 H 0.17056 0.23642 0.42597 0.0
H24 H 0.17212 0.25005 0.41004 0.0
O25 O 0.19823 0.18539 0.40677 0.0
O26 O 0.1841 0.17304 0.38905 0.0
H27 H 0.14541 0.20086 0.36678 0.0
H28 H 0.13648 0.21979 0.36895 0.0
C29 C 0.14087 0.20944 0.37527 0.0
H30 H 0.13103 0.20404 0.38162 0.0
H31 H 0.162 0.16863 0.36045 0.0
O32 O 0.19702 0.21342 0.43061 0.0
C33 C 0.19711 0.17569 0.39563 0.0
Co34 Co 0.44785 0.56154 0.83251 0.0
Co35 Co 0.43207 0.58476 0.85566 0.0
C36 C 0.4258 0.58584 0.82123 0.0
O37 O 0.43492 0.57451 0.81847 0.0
O38 O 0.42378 0.59081 0.83502 0.0
C39 C 0.46512 0.55172 0.80593 0.0
O40 O 0.46195 0.56583 0.80097 0.0
C41 C 0.42312 0.61534 0.86633 0.0
C42 C 0.41422 0.61108 0.89005 0.0
C43 C 0.41606 0.62259 0.87889 0.0
N44 N 0.4251 0.60025 0.86978 0.0
N45 N 0.41989 0.59776 0.88403 0.0
C46 C 0.42859 0.62266 0.8515 0.0
H47 H 0.4383 0.61584 0.8464 0.0
H48 H 0.43241 0.63482 0.85356 0.0
H49 H 0.41892 0.6228 0.84298 0.0
C50 C 0.47619 0.57616 0.84542 0.0
N51 N 0.46068 0.57407 0.84522 0.0
N52 N 0.45418 0.58365 0.85524 0.0
C53 C 0.46543 0.59207 0.86225 0.0
C54 C 0.47972 0.58769 0.8561 0.0
C55 C 0.48741 0.56764 0.83519 0.0
H56 H 0.48468 0.55504 0.83528 0.0
H57 H 0.48626 0.57199 0.8231 0.0
H58 H 0.4996 0.56934 0.83911 0.0
O59 O 0.434 0.54824 0.8452 0.0
O60 O 0.42237 0.56463 0.86145 0.0
H61 H 0.45355 0.60137 0.8821 0.0
H62 H 0.4732 0.60844 0.87976 0.0
C63 C 0.46246 0.605 0.87352 0.0
H64 H 0.45803 0.61528 0.86713 0.0
H65 H 0.41983 0.58691 0.88947 0.0
O66 O 0.46046 0.54755 0.81932 0.0
C67 C 0.42435 0.55095 0.85611 0.0
Co68 Co 0.81373 0.29865 0.4182 0.0
Co69 Co 0.83356 0.31684 0.39371 0.0
C70 C 0.83663 0.32223 0.42829 0.0
O71 O 0.82701 0.31157 0.43178 0.0
O72 O 0.83961 0.32557 0.41419 0.0
C73 C 0.80684 0.27951 0.44448 0.0
O74 O 0.8214 0.28237 0.44813 0.0
C75 C 0.86282 0.32877 0.38244 0.0
C76 C 0.85759 0.33647 0.35849 0.0
C77 C 0.8693 0.33602 0.36959 0.0
N78 N 0.84795 0.32532 0.37923 0.0
N79 N 0.84485 0.32989 0.36487 0.0
C80 C 0.87077 0.32436 0.39731 0.0
H81 H 0.86529 0.31384 0.40238 0.0
H82 H 0.88333 0.32212 0.39532 0.0
H83 H 0.86958 0.33401 0.4058 0.0
C84 C 0.82943 0.27192 0.40336 0.0
N85 N 0.82616 0.28719 0.40421 0.0
N86 N 0.8346 0.29472 0.39388 0.0
C87 C 0.84351 0.2844 0.3861 0.0
C88 C 0.8406 0.26965 0.39199 0.0
C89 C 0.82233 0.25973 0.41356 0.0
H90 H 0.80965 0.26182 0.41473 0.0
H91 H 0.8277 0.26035 0.42528 0.0
H92 H 0.82423 0.2479 0.40876 0.0
O93 O 0.7988 0.31204 0.40688 0.0
O94 O 0.81237 0.3243 0.38864 0.0
H95 H 0.85044 0.2969 0.3657 0.0
H96 H 0.86014 0.27839 0.36812 0.0
C97 C 0.85554 0.28874 0.37428 0.0
H98 H 0.86534 0.29468 0.38018 0.0
H99 H 0.83402 0.32872 0.35953 0.0
O100 O 0.80134 0.28495 0.43188 0.0
C101 C 0.79952 0.32146 0.39545 0.0
Co102 Co 0.55137 0.93694 0.83577 0.0
Co103 Co 0.56667 0.91431 0.85985 0.0
C104 C 0.57472 0.9129 0.82604 0.0
O105 O 0.56544 0.924 0.82293 0.0
O106 O 0.57635 0.90798 0.83989 0.0
C107 C 0.53465 0.94384 0.8083 0.0
O108 O 0.53722 0.92901 0.80564 0.0
C109 C 0.57519 0.88426 0.87282 0.0
C110 C 0.58377 0.89041 0.89626 0.0
C111 C 0.58187 0.87804 0.88611 0.0
N112 N 0.57315 0.89959 0.87505 0.0
N113 N 0.5781 0.90318 0.88916 0.0
C114 C 0.57254 0.87627 0.85756 0.0
H115 H 0.56443 0.8831 0.85022 0.0
H116 H 0.56764 0.86449 0.85925 0.0
H117 H 0.58383 0.87505 0.85142 0.0
C118 C 0.52277 0.92197 0.84769 0.0
N119 N 0.53824 0.92433 0.84805 0.0
N120 N 0.54455 0.91474 0.85821 0.0
C121 C 0.5332 0.90597 0.86462 0.0
C122 C 0.51909 0.91018 0.85801 0.0
C123 C 0.51168 0.93053 0.83736 0.0
H124 H 0.51491 0.94299 0.83676 0.0
H125 H 0.5122 0.92551 0.82549 0.0
H126 H 0.49956 0.9295 0.84171 0.0
O127 O 0.564 0.95097 0.84883 0.0
O128 O 0.57539 0.93493 0.8656 0.0
H129 H 0.54398 0.89664 0.88506 0.0
H130 H 0.525 0.8886 0.88095 0.0
C131 C 0.53599 0.89283 0.87569 0.0
H132 H 0.54149 0.88305 0.86935 0.0
H133 H 0.57819 0.91444 0.89369 0.0
O134 O 0.53936 0.9498 0.82098 0.0
C135 C 0.57324 0.94855 0.86015 0.0
Co136 Co 0.1865 0.79878 0.0826 0.0
Co137 Co 0.16411 0.81538 0.10608 0.0
C138 C 0.16253 0.82117 0.07161 0.0
O139 O 0.17322 0.81141 0.06858 0.0
O140 O 0.15831 0.82389 0.08551 0.0
C141 C 0.19554 0.78121 0.05598 0.0
O142 O 0.18127 0.78434 0.05147 0.0
C143 C 0.13411 0.82632 0.11667 0.0
C144 C 0.13852 0.83341 0.14096 0.0
C145 C 0.12718 0.83322 0.12949 0.0
N146 N 0.1489 0.82286 0.12028 0.0
N147 N 0.15148 0.82701 0.13485 0.0
C148 C 0.12671 0.82239 0.10139 0.0
H149 H 0.1323 0.81195 0.09626 0.0
H150 H 0.11406 0.82023 0.10283 0.0
H151 H 0.12834 0.83224 0.09321 0.0
C152 C 0.17139 0.77099 0.09599 0.0
N153 N 0.17397 0.78641 0.09571 0.0
N154 N 0.16455 0.79326 0.10566 0.0
C155 C 0.1557 0.78234 0.11263 0.0
C156 C 0.15968 0.7679 0.10661 0.0
C157 C 0.17947 0.75947 0.08574 0.0
H158 H 0.19213 0.76194 0.08553 0.0
H159 H 0.17489 0.76056 0.07373 0.0
H160 H 0.17758 0.74738 0.08985 0.0
O161 O 0.2002 0.81272 0.09487 0.0
O162 O 0.18448 0.82435 0.11177 0.0
H163 H 0.14677 0.79383 0.13284 0.0
H164 H 0.13794 0.77512 0.12902 0.0
C165 C 0.14264 0.78584 0.1236 0.0
H166 H 0.13313 0.79171 0.11716 0.0
H167 H 0.16216 0.82583 0.14049 0.0
O168 O 0.20011 0.78589 0.06924 0.0
C169 C 0.19795 0.82225 0.10599 0.0
Co170 Co 0.04847 0.56015 0.16265 0.0
Co171 Co 0.06542 0.58256 0.13949 0.0
C172 C 0.07162 0.5834 0.17384 0.0
O173 O 0.06159 0.57291 0.1767 0.0
O174 O 0.07437 0.58782 0.16001 0.0
C175 C 0.02997 0.55253 0.18886 0.0
O176 O 0.03232 0.56727 0.19213 0.0
C177 C 0.07714 0.61236 0.1292 0.0
C178 C 0.08373 0.60813 0.10473 0.0
C179 C 0.08406 0.61928 0.11638 0.0
N180 N 0.07317 0.59775 0.12541 0.0
N181 N 0.07704 0.59528 0.11074 0.0
C182 C 0.07364 0.61962 0.14465 0.0
H183 H 0.06315 0.61423 0.14988 0.0
H184 H 0.07177 0.63234 0.14343 0.0
H185 H 0.08358 0.61763 0.15264 0.0
C186 C 0.02084 0.57585 0.14942 0.0
N187 N 0.03624 0.57311 0.14976 0.0
N188 N 0.04327 0.58277 0.14017 0.0
C189 C 0.0325 0.59206 0.13351 0.0
C190 C 0.01795 0.58805 0.1393 0.0
C191 C 0.00905 0.56722 0.15889 0.0
H192 H 0.01208 0.5547 0.15939 0.0
H193 H 0.00893 0.57197 0.17088 0.0
H194 H 0.99722 0.56852 0.15387 0.0
O195 O 0.06186 0.54621 0.15009 0.0
O196 O 0.07372 0.56198 0.13339 0.0
H197 H 0.04396 0.60149 0.11351 0.0
H198 H 0.02566 0.61082 0.11806 0.0
C199 C 0.03627 0.60548 0.12307 0.0
H200 H 0.0426 0.61446 0.1298 0.0
H201 H 0.07544 0.58474 0.10495 0.0
O202 O 0.03548 0.54698 0.17631 0.0
C203 C 0.07133 0.54844 0.13891 0.0
Co204 Co 0.81378 0.6998 0.08006 0.0
Co205 Co 0.83481 0.68234 0.10412 0.0
C206 C 0.83648 0.67551 0.06993 0.0
O207 O 0.82612 0.68563 0.06689 0.0
O208 O 0.84087 0.673 0.08384 0.0
C209 C 0.80735 0.71796 0.05313 0.0
O210 O 0.82189 0.71463 0.04978 0.0
C211 C 0.86409 0.67171 0.11743 0.0
C212 C 0.8568 0.66227 0.14021 0.0
C213 C 0.86956 0.66408 0.13053 0.0
N214 N 0.8488 0.67438 0.11931 0.0
N215 N 0.84454 0.66888 0.13303 0.0
C216 C 0.87272 0.67478 0.10261 0.0
H217 H 0.8745 0.66363 0.09635 0.0
H218 H 0.86613 0.68293 0.09509 0.0
H219 H 0.88431 0.67986 0.10499 0.0
C220 C 0.83023 0.72695 0.0932 0.0
N221 N 0.82688 0.71167 0.09308 0.0
N222 N 0.83582 0.70447 0.10324 0.0
C223 C 0.84514 0.71505 0.11016 0.0
C224 C 0.84199 0.72958 0.10387 0.0
C225 C 0.82264 0.73883 0.08298 0.0
H226 H 0.80997 0.73658 0.08227 0.0
H227 H 0.82768 0.73806 0.07113 0.0
H228 H 0.82456 0.75077 0.0875 0.0
O229 O 0.79889 0.68738 0.09227 0.0
O230 O 0.81354 0.67488 0.10945 0.0
H231 H 0.85337 0.70289 0.13032 0.0
H232 H 0.86233 0.72166 0.12736 0.0
C233 C 0.8578 0.71114 0.12145 0.0
H234 H 0.86753 0.70554 0.11513 0.0
H235 H 0.83315 0.66911 0.13722 0.0
O236 O 0.80158 0.71311 0.06585 0.0
C237 C 0.80029 0.67785 0.10352 0.0
Co238 Co 0.9484 0.93587 0.16579 0.0
Co239 Co 0.93171 0.91514 0.141 0.0
C240 C 0.9251 0.91213 0.17529 0.0
O241 O 0.93496 0.92257 0.17885 0.0
O242 O 0.92275 0.90837 0.16119 0.0
C243 C 0.96646 0.94227 0.19269 0.0
O244 O 0.96368 0.92752 0.19558 0.0
C245 C 0.92177 0.88553 0.1289 0.0
C246 C 0.91329 0.89098 0.10527 0.0
C247 C 0.91469 0.879 0.11599 0.0
N248 N 0.9242 0.90068 0.1261 0.0
N249 N 0.91921 0.9039 0.11192 0.0
C250 C 0.92689 0.87744 0.14347 0.0
H251 H 0.93677 0.88372 0.14889 0.0
H252 H 0.93035 0.86526 0.14093 0.0
H253 H 0.91715 0.87726 0.15191 0.0
C254 C 0.97616 0.92102 0.15189 0.0
N255 N 0.96075 0.92375 0.15224 0.0
N256 N 0.95387 0.91506 0.14168 0.0
C257 C 0.96477 0.90654 0.13424 0.0
C258 C 0.97921 0.90993 0.14063 0.0
C259 C 0.98778 0.9285 0.16247 0.0
H260 H 0.98517 0.94106 0.16369 0.0
H261 H 0.98709 0.92297 0.17411 0.0
H262 H -0.00021 0.9271 0.15795 0.0
O263 O 0.9351 0.95046 0.15406 0.0
O264 O 0.92323 0.93608 0.13618 0.0
H265 H 0.95256 0.89887 0.11389 0.0
H266 H 0.97194 0.89096 0.11579 0.0
C267 C 0.96132 0.89441 0.12224 0.0
H268 H 0.95652 0.88394 0.12802 0.0
H269 H 0.91954 0.91496 0.10692 0.0
O270 O 0.96131 0.94826 0.18019 0.0
C271 C 0.92563 0.94915 0.14274 0.0
Co272 Co 0.41669 0.18423 0.19798 0.0
Co273 Co 0.39341 0.16353 0.17914 0.0
C274 C 0.42803 0.16203 0.17406 0.0
O275 O 0.43095 0.17189 0.18468 0.0
O276 O 0.41414 0.15822 0.17073 0.0
C277 C 0.44297 0.19195 0.21674 0.0
O278 O 0.44764 0.17798 0.21266 0.0
C279 C 0.38315 0.13418 0.16658 0.0
C280 C 0.3592 0.13892 0.15857 0.0
C281 C 0.3706 0.12751 0.15899 0.0
N282 N 0.37947 0.14889 0.17025 0.0
N283 N 0.36512 0.15169 0.1655 0.0
C284 C 0.39817 0.12656 0.1711 0.0
H285 H 0.40293 0.13201 0.18178 0.0
H286 H 0.39649 0.11392 0.17312 0.0
H287 H 0.40677 0.12814 0.16161 0.0
C288 C 0.40254 0.16718 0.22422 0.0
N289 N 0.40324 0.1709 0.20904 0.0
N290 N 0.39328 0.16224 0.20126 0.0
C291 C 0.38584 0.15278 0.21134 0.0
C292 C 0.3916 0.15551 0.22618 0.0
C293 C 0.41257 0.17427 0.23655 0.0
H294 H 0.41289 0.18708 0.23506 0.0
H295 H 0.42459 0.16973 0.23537 0.0
H296 H 0.40818 0.1715 0.24837 0.0
O297 O 0.40474 0.19908 0.18495 0.0
O298 O 0.38805 0.18455 0.17156 0.0
H299 H 0.36593 0.14524 0.19839 0.0
H300 H 0.36837 0.13544 0.21685 0.0
C301 C 0.37455 0.14038 0.20666 0.0
H302 H 0.38092 0.13085 0.20075 0.0
H303 H 0.35947 0.16236 0.16676 0.0
O304 O 0.42976 0.19677 0.21216 0.0
C305 C 0.39385 0.19774 0.17499 0.0
Co306 Co 0.43737 0.33556 0.05134 0.0
Co307 Co 0.41534 0.35964 0.06752 0.0
C308 C 0.414 0.32543 0.07472 0.0
O309 O 0.42445 0.32204 0.06483 0.0
O310 O 0.40981 0.33942 0.07691 0.0
C311 C 0.44454 0.30876 0.03367 0.0
O312 O 0.42972 0.30592 0.03612 0.0
C313 C 0.38515 0.36984 0.07778 0.0
C314 C 0.38899 0.39402 0.08552 0.0
C315 C 0.37785 0.38237 0.08478 0.0
N316 N 0.39996 0.37374 0.07478 0.0
N317 N 0.40221 0.38826 0.07932 0.0
C318 C 0.37811 0.35452 0.07336 0.0
H319 H 0.3842 0.34958 0.06311 0.0
H320 H 0.36555 0.35584 0.07071 0.0
H321 H 0.37942 0.34623 0.08317 0.0
C322 C 0.42216 0.34853 0.02326 0.0
N323 N 0.4247 0.34834 0.0387 0.0
N324 N 0.41542 0.35852 0.04542 0.0
C325 C 0.40669 0.36551 0.0344 0.0
C326 C 0.4106 0.35927 0.02004 0.0
C327 C 0.43042 0.33842 0.01175 0.0
H328 H 0.44293 0.3376 0.01476 0.0
H329 H 0.42529 0.32659 0.01205 0.0
H330 H 0.42925 0.34309 -0.00024 0.0
O331 O 0.45135 0.34826 0.06462 0.0
O332 O 0.43587 0.36561 0.07597 0.0
H333 H 0.39828 0.38597 0.04585 0.0
H334 H 0.38965 0.38256 0.02697 0.0
C335 C 0.39397 0.37692 0.03773 0.0
H336 H 0.38413 0.3708 0.04338 0.0
H337 H 0.41284 0.39407 0.07856 0.0
O338 O 0.45039 0.32133 0.03879 0.0
C339 C 0.44929 0.35969 0.07385 0.0
Co340 Co 0.58477 0.30951 0.19785 0.0
Co341 Co 0.60812 0.33174 0.18085 0.0
C342 C 0.57363 0.33322 0.17529 0.0
O343 O 0.57066 0.32271 0.18526 0.0
O344 O 0.58752 0.33733 0.17239 0.0
C345 C 0.55871 0.30178 0.21655 0.0
O346 O 0.55541 0.31654 0.2143 0.0
C347 C 0.61814 0.36184 0.16986 0.0
C348 C 0.64238 0.35789 0.16232 0.0
C349 C 0.63073 0.36904 0.16283 0.0
N350 N 0.62204 0.34708 0.17311 0.0
N351 N 0.63658 0.34477 0.16867 0.0
C352 C 0.60283 0.36899 0.17415 0.0
H353 H 0.59792 0.36318 0.18458 0.0
H354 H 0.60415 0.38161 0.1765 0.0
H355 H 0.59452 0.36744 0.1644 0.0
C356 C 0.59856 0.32476 0.22546 0.0
N357 N 0.59807 0.32209 0.21005 0.0
N358 N 0.60783 0.33156 0.203 0.0
C359 C 0.61481 0.3406 0.21377 0.0
C360 C 0.60901 0.33668 0.22832 0.0
C361 C 0.58879 0.31651 0.23727 0.0
H362 H 0.58803 0.30397 0.23438 0.0
H363 H 0.57691 0.32153 0.23721 0.0
H364 H 0.59373 0.31784 0.24913 0.0
O365 O 0.59685 0.29568 0.18384 0.0
O366 O 0.61375 0.31127 0.17201 0.0
H367 H 0.63123 0.35846 0.22064 0.0
H368 H 0.61892 0.36324 0.2044 0.0
C369 C 0.62558 0.35376 0.21004 0.0
H370 H 0.63465 0.34975 0.2018 0.0
H371 H 0.64241 0.33417 0.16967 0.0
O372 O 0.5712 0.29625 0.21088 0.0
C373 C 0.60791 0.29784 0.1742 0.0
Co374 Co 0.56175 0.16218 0.04803 0.0
Co375 Co 0.58547 0.13916 0.06378 0.0
C376 C 0.58588 0.17333 0.07054 0.0
O377 O 0.57472 0.17605 0.06122 0.0
O378 O 0.59103 0.15963 0.07265 0.0
C379 C 0.55257 0.18916 0.03127 0.0
O380 O 0.56696 0.19339 0.03419 0.0
C381 C 0.61257 0.12666 0.08008 0.0
C382 C 0.61449 0.10279 0.0708 0.0
C383 C 0.62186 0.11348 0.08035 0.0
N384 N 0.6006 0.12415 0.07036 0.0
N385 N 0.60161 0.10972 0.06512 0.0
C386 C 0.61413 0.14082 0.0901 0.0
H387 H 0.60252 0.14417 0.09461 0.0
H388 H 0.61884 0.15056 0.08306 0.0
H389 H 0.6219 0.1387 0.10018 0.0
C390 C 0.57689 0.15037 0.01967 0.0
N391 N 0.57457 0.1499 0.03514 0.0
N392 N 0.58508 0.14077 0.04157 0.0
C393 C 0.59475 0.13557 0.03032 0.0
C394 C 0.58978 0.14141 0.01611 0.0
C395 C 0.56729 0.15971 0.00855 0.0
H396 H 0.55485 0.15919 0.01193 0.0
H397 H 0.57117 0.17201 0.00889 0.0
H398 H 0.56859 0.15532 0.99647 0.0
O399 O 0.54845 0.14918 0.06149 0.0
O400 O 0.56512 0.13299 0.0728 0.0
H401 H 0.60754 0.11459 0.03398 0.0
H402 H 0.61822 0.12932 0.02372 0.0
C403 C 0.60978 0.12727 0.03327 0.0
H404 H 0.615 0.13127 0.04435 0.0
H405 H 0.59371 0.10474 0.05737 0.0
O406 O 0.54791 0.17585 0.03573 0.0
C407 C 0.55134 0.13811 0.07089 0.0
Co408 Co 0.41513 0.81389 0.29866 0.0
Co409 Co 0.39052 0.83256 0.31788 0.0
C410 C 0.4251 0.83606 0.32299 0.0
O411 O 0.42861 0.82694 0.3119 0.0
O412 O 0.411 0.83868 0.32662 0.0
C413 C 0.44144 0.808 0.27922 0.0
O414 O 0.44485 0.82253 0.28247 0.0
C415 C 0.3787 0.86085 0.33159 0.0
C416 C 0.35488 0.85466 0.33896 0.0
C417 C 0.36577 0.86656 0.33933 0.0
N418 N 0.37575 0.8462 0.32711 0.0
N419 N 0.36145 0.84255 0.33146 0.0
C420 C 0.39343 0.86935 0.32776 0.0
H421 H 0.39854 0.86477 0.31682 0.0
H422 H 0.39124 0.88201 0.3265 0.0
H423 H 0.40198 0.86754 0.33726 0.0
C424 C 0.39985 0.83033 0.27273 0.0
N425 N 0.40076 0.8264 0.28784 0.0
N426 N 0.39043 0.83446 0.29578 0.0
C427 C 0.38263 0.84384 0.28588 0.0
C428 C 0.38849 0.8416 0.271 0.0
C429 C 0.41009 0.82385 0.26023 0.0
H430 H 0.41145 0.81113 0.26184 0.0
H431 H 0.42172 0.82937 0.26099 0.0
H432 H 0.40518 0.82612 0.24851 0.0
O433 O 0.40443 0.79833 0.31176 0.0
O434 O 0.38613 0.81101 0.32482 0.0
H435 H 0.36226 0.85031 0.29868 0.0
H436 H 0.36483 0.8609 0.28067 0.0
C437 C 0.37091 0.85573 0.2908 0.0
H438 H 0.37688 0.86515 0.29727 0.0
H439 H 0.35631 0.83172 0.32958 0.0
O440 O 0.4289 0.80218 0.28448 0.0
C441 C 0.39324 0.79845 0.32146 0.0
Co442 Co 0.05937 0.33444 0.94742 0.0
Co443 Co 0.08226 0.35719 0.93051 0.0
C444 C 0.08328 0.32265 0.92532 0.0
O445 O 0.07253 0.32001 0.93514 0.0
O446 O 0.0877 0.33642 0.92231 0.0
C447 C 0.05064 0.30864 0.96614 0.0
O448 O 0.06535 0.30491 0.96426 0.0
C449 C 0.11262 0.36689 0.91974 0.0
C450 C 0.10886 0.3911 0.91202 0.0
C451 C 0.11996 0.3794 0.91268 0.0
N452 N 0.09785 0.37089 0.92285 0.0
N453 N 0.09566 0.38541 0.9183 0.0
C454 C 0.11961 0.35156 0.92418 0.0
H455 H 0.11362 0.34672 0.93454 0.0
H456 H 0.13221 0.3528 0.9267 0.0
H457 H 0.11812 0.34322 0.91444 0.0
C458 C 0.07437 0.34818 0.9751 0.0
N459 N 0.07196 0.34764 0.95966 0.0
N460 N 0.08179 0.35709 0.95269 0.0
C461 C 0.09087 0.36388 0.96357 0.0
C462 C 0.08655 0.35829 0.9781 0.0
C463 C 0.06567 0.3387 0.98682 0.0
H464 H 0.05316 0.33825 0.98372 0.0
H465 H 0.07038 0.32669 0.98691 0.0
H466 H 0.06691 0.34367 0.99867 0.0
O467 O 0.04594 0.34666 0.93326 0.0
O468 O 0.06193 0.36313 0.92137 0.0
H469 H 0.10089 0.38325 0.95153 0.0
H470 H 0.1091 0.37982 0.97058 0.0
C471 C 0.10444 0.37417 0.95997 0.0
H472 H 0.11383 0.36714 0.95462 0.0
H473 H 0.08508 0.39131 0.91917 0.0
O474 O 0.0456 0.32125 0.9603 0.0
C475 C 0.04836 0.3576 0.92357 0.0
Co476 Co 0.5817 0.68651 0.30087 0.0
Co477 Co 0.60582 0.66427 0.31664 0.0
C478 C 0.57151 0.66299 0.324 0.0
O479 O 0.568 0.67357 0.31425 0.0
O480 O 0.58555 0.65878 0.326 0.0
C481 C 0.55477 0.69616 0.28386 0.0
O482 O 0.54961 0.68225 0.28752 0.0
C483 C 0.61638 0.63408 0.32681 0.0
C484 C 0.64085 0.63811 0.33354 0.0
C485 C 0.62927 0.62688 0.33328 0.0
N486 N 0.62006 0.64891 0.32365 0.0
N487 N 0.63473 0.65127 0.3276 0.0
C488 C 0.60097 0.62692 0.32294 0.0
H489 H 0.59563 0.63295 0.31284 0.0
H490 H 0.6023 0.61436 0.32025 0.0
H491 H 0.59302 0.62818 0.33302 0.0
C492 C 0.59399 0.67119 0.27264 0.0
N493 N 0.59423 0.67379 0.28807 0.0
N494 N 0.60452 0.66449 0.29457 0.0
C495 C 0.61121 0.6557 0.28342 0.0
C496 C 0.60463 0.65959 0.26918 0.0
C497 C 0.58349 0.6794 0.26144 0.0
H498 H 0.58362 0.69207 0.26382 0.0
H499 H 0.57143 0.67508 0.263 0.0
H500 H 0.58711 0.67739 0.24921 0.0
O501 O 0.5946 0.70023 0.31422 0.0
O502 O 0.61204 0.68465 0.32523 0.0
H503 H 0.63191 0.64716 0.29434 0.0
H504 H 0.6278 0.63832 0.27569 0.0
C505 C 0.62256 0.64287 0.28655 0.0
H506 H 0.61648 0.6332 0.29252 0.0
H507 H 0.64045 0.66192 0.32654 0.0
O508 O 0.56831 0.70022 0.2882 0.0
C509 C 0.60613 0.69809 0.32328 0.0
Co510 Co 0.93198 0.16538 0.94909 0.0
Co511 Co 0.91301 0.13932 0.93219 0.0
C512 C 0.91012 0.17345 0.92394 0.0
O513 O 0.91929 0.17794 0.93463 0.0
O514 O 0.90733 0.15909 0.92178 0.0
C515 C 0.93924 0.19343 0.96553 0.0
O516 O 0.92551 0.1979 0.96051 0.0
C517 C 0.88391 0.12765 0.92053 0.0
C518 C 0.88902 0.1034 0.91378 0.0
C519 C 0.87741 0.11462 0.91365 0.0
N520 N 0.8987 0.12443 0.9243 0.0
N521 N 0.90172 0.10989 0.92033 0.0
C522 C 0.87605 0.14276 0.92422 0.0
H523 H 0.88152 0.14826 0.93454 0.0
H524 H 0.86346 0.14097 0.92645 0.0
H525 H 0.87737 0.15081 0.91422 0.0
C526 C 0.91502 0.15295 0.97619 0.0
N527 N 0.91911 0.15233 0.96111 0.0
N528 N 0.91121 0.14118 0.95419 0.0
C529 C 0.90191 0.13425 0.96477 0.0
C530 C 0.90392 0.14162 0.979 0.0
C531 C 0.92119 0.16459 0.98756 0.0
H532 H 0.93404 0.16518 0.98662 0.0
H533 H 0.91639 0.17623 0.98472 0.0
H534 H 0.91799 0.16154 -0.00031 0.0
O535 O 0.94731 0.1532 0.93693 0.0
O536 O 0.9344 0.13392 0.92559 0.0
H537 H 0.89567 0.11301 0.9533 0.0
H538 H 0.88584 0.11609 0.97165 0.0
C539 C 0.89029 0.12185 0.961 0.0
H540 H 0.88031 0.12713 0.95477 0.0
H541 H 0.9125 0.10451 0.9218 0.0
O542 O 0.94403 0.17981 0.96233 0.0
C543 C 0.94704 0.14118 0.92827 0.0
Co544 Co 0.19664 0.41347 0.18311 0.0
Co545 Co 0.17973 0.38908 0.16202 0.0
C546 C 0.17319 0.42321 0.15944 0.0
O547 O 0.18324 0.42658 0.16974 0.0
O548 O 0.17046 0.40919 0.15564 0.0
C549 C 0.21465 0.44045 0.18937 0.0
O550 O 0.21188 0.44322 0.17459 0.0
C551 C 0.16948 0.37618 0.1326 0.0
C552 C 0.16071 0.35293 0.1392 0.0
C553 C 0.16223 0.36305 0.12674 0.0
N554 N 0.17222 0.37391 0.14781 0.0
N555 N 0.16713 0.35993 0.15167 0.0
C556 C 0.172 0.39143 0.12454 0.0
H557 H 0.18167 0.39789 0.13013 0.0
H558 H 0.17466 0.38985 0.11205 0.0
H559 H 0.16124 0.39849 0.12547 0.0
C560 C 0.22426 0.39988 0.16784 0.0
N561 N 0.20888 0.40015 0.17071 0.0
N562 N 0.2019 0.38995 0.16166 0.0
C563 C 0.2127 0.38287 0.15272 0.0
C564 C 0.22718 0.38908 0.15626 0.0
C565 C 0.23597 0.41013 0.17562 0.0
H566 H 0.23325 0.41118 0.18818 0.0
H567 H 0.23555 0.42186 0.17028 0.0
H568 H 0.24792 0.40543 0.17425 0.0
O569 O 0.18356 0.40149 0.19783 0.0
O570 O 0.17163 0.38404 0.18297 0.0
H571 H 0.20102 0.36248 0.14445 0.0
H572 H 0.21975 0.36588 0.13549 0.0
C573 C 0.20907 0.37153 0.14003 0.0
H574 H 0.20328 0.37773 0.13033 0.0
H575 H 0.16749 0.35541 0.16294 0.0
O576 O 0.20958 0.42795 0.19543 0.0
C577 C 0.17413 0.39018 0.19621 0.0
Co578 Co 0.19792 0.5843 0.30831 0.0
Co579 Co 0.18216 0.60751 0.33151 0.0
C580 C 0.17556 0.57311 0.33231 0.0
O581 O 0.18479 0.57029 0.32108 0.0
O582 O 0.17361 0.5869 0.33728 0.0
C583 C 0.21489 0.55758 0.29854 0.0
O584 O 0.21166 0.55276 0.31268 0.0
C585 C 0.17307 0.61762 0.3622 0.0
C586 C 0.16388 0.64129 0.35834 0.0
C587 C 0.16578 0.62993 0.36964 0.0
N588 N 0.17512 0.62139 0.3472 0.0
N589 N 0.16975 0.63561 0.34494 0.0
C590 C 0.17864 0.6027 0.36927 0.0
H591 H 0.18845 0.59784 0.36243 0.0
H592 H 0.18233 0.60456 0.3815 0.0
H593 H 0.16907 0.59408 0.36916 0.0
C594 C 0.22623 0.59666 0.32347 0.0
N595 N 0.21077 0.59679 0.32106 0.0
N596 N 0.20428 0.60686 0.33061 0.0
C597 C 0.21551 0.61357 0.3393 0.0
C598 C 0.22974 0.60716 0.33517 0.0
C599 C 0.2374 0.58615 0.31523 0.0
H600 H 0.23494 0.58626 0.30257 0.0
H601 H 0.23589 0.57411 0.31959 0.0
H602 H 0.24963 0.58981 0.31718 0.0
O603 O 0.18423 0.59719 0.29502 0.0
O604 O 0.17268 0.61356 0.31137 0.0
H605 H 0.20349 0.63326 0.3488 0.0
H606 H 0.22324 0.63109 0.35565 0.0
C607 C 0.21252 0.62475 0.3523 0.0
H608 H 0.2083 0.61828 0.36262 0.0
H609 H 0.16966 0.64125 0.33419 0.0
O610 O 0.21045 0.57103 0.29431 0.0
C611 C 0.17467 0.6082 0.2977 0.0
Co612 Co 0.83214 0.54692 0.93446 0.0
Co613 Co 0.85627 0.56425 0.91344 0.0
C614 C 0.82174 0.57117 0.91227 0.0
O615 O 0.81844 0.56094 0.92244 0.0
O616 O 0.83574 0.57351 0.90806 0.0
C617 C 0.80518 0.52958 0.94362 0.0
O618 O 0.79978 0.53396 0.93001 0.0
C619 C 0.86687 0.57501 0.88348 0.0
C620 C 0.89042 0.58412 0.88816 0.0
C621 C 0.87926 0.58269 0.8766 0.0
N622 N 0.87039 0.57228 0.89843 0.0
N623 N 0.88454 0.57763 0.90118 0.0
C624 C 0.85213 0.56965 0.87589 0.0
H625 H 0.84348 0.57918 0.87611 0.0
H626 H 0.84715 0.5596 0.88229 0.0
H627 H 0.8543 0.56638 0.86359 0.0
C628 C 0.84483 0.5198 0.91778 0.0
N629 N 0.84488 0.53506 0.92115 0.0
N630 N 0.85536 0.54212 0.91249 0.0
C631 C 0.86243 0.53144 0.90339 0.0
C632 C 0.85584 0.517 0.90636 0.0
C633 C 0.83412 0.50817 0.92507 0.0
H634 H 0.83423 0.5096 0.93789 0.0
H635 H 0.8221 0.51027 0.92087 0.0
H636 H 0.83756 0.49607 0.92218 0.0
O637 O 0.84484 0.55944 0.94884 0.0
O638 O 0.86235 0.57182 0.93446 0.0
H639 H 0.88263 0.54393 0.89573 0.0
H640 H 0.8808 0.52463 0.88758 0.0
C641 C 0.87432 0.53516 0.89123 0.0
H642 H 0.86842 0.54005 0.88087 0.0
H643 H 0.89 0.57723 0.91201 0.0
O644 O 0.81887 0.5335 0.94758 0.0
C645 C 0.85628 0.56876 0.94764 0.0
Co646 Co 0.79957 0.91327 0.31472 0.0
Co647 Co 0.81729 0.8878 0.33375 0.0
C648 C 0.82378 0.92193 0.33783 0.0
O649 O 0.81317 0.9258 0.32828 0.0
O650 O 0.82685 0.90773 0.34061 0.0
C651 C 0.78158 0.94062 0.3096 0.0
O652 O 0.78494 0.94325 0.32428 0.0
C653 C 0.82802 0.87381 0.36245 0.0
C654 C 0.8375 0.85117 0.35481 0.0
C655 C 0.83564 0.86063 0.36773 0.0
N656 N 0.82537 0.87217 0.34715 0.0
N657 N 0.8309 0.85855 0.34265 0.0
C658 C 0.82502 0.88856 0.37123 0.0
H659 H 0.81562 0.89534 0.36555 0.0
H660 H 0.82172 0.88623 0.38345 0.0
H661 H 0.8358 0.89567 0.37129 0.0
C662 C 0.77258 0.89905 0.33039 0.0
N663 N 0.78781 0.8993 0.32683 0.0
N664 N 0.7951 0.88862 0.33505 0.0
C665 C 0.7846 0.8812 0.3441 0.0
C666 C 0.77006 0.88772 0.34154 0.0
C667 C 0.76072 0.90996 0.32381 0.0
H668 H 0.76266 0.91146 0.31116 0.0
H669 H 0.76186 0.92144 0.32957 0.0
H670 H 0.74873 0.90555 0.32576 0.0
O671 O 0.81237 0.90218 0.29916 0.0
O672 O 0.82447 0.8835 0.31225 0.0
H673 H 0.79695 0.86068 0.35109 0.0
H674 H 0.7781 0.86293 0.36016 0.0
C675 C 0.78861 0.86918 0.35604 0.0
H676 H 0.79413 0.87494 0.36617 0.0
H677 H 0.83069 0.85456 0.33119 0.0
O678 O 0.78624 0.92811 0.30326 0.0
C679 C 0.82165 0.89063 0.29957 0.0
Co680 Co 0.66354 0.4477 0.43471 0.0
Co681 Co 0.63924 0.4304 0.41386 0.0
C682 C 0.67359 0.42371 0.41197 0.0
O683 O 0.67687 0.43387 0.42218 0.0
O684 O 0.65958 0.42122 0.40794 0.0
C685 C 0.69042 0.4657 0.44083 0.0
O686 O 0.69317 0.46262 0.42611 0.0
C687 C 0.62838 0.41957 0.38412 0.0
C688 C 0.60495 0.41024 0.389 0.0
C689 C 0.61604 0.41171 0.37736 0.0
N690 N 0.62492 0.42236 0.39907 0.0
N691 N 0.61083 0.41688 0.40194 0.0
C692 C 0.64307 0.42495 0.37643 0.0
H693 H 0.6479 0.4352 0.3826 0.0
H694 H 0.6409 0.42792 0.36405 0.0
H695 H 0.65185 0.41554 0.3769 0.0
C696 C 0.65008 0.47498 0.41865 0.0
N697 N 0.65035 0.45967 0.42184 0.0
N698 N 0.63998 0.45253 0.4131 0.0
C699 C 0.63273 0.46319 0.40411 0.0
C700 C 0.63907 0.4777 0.40723 0.0
C701 C 0.66047 0.48682 0.42604 0.0
H702 H 0.66151 0.48449 0.43868 0.0
H703 H 0.67219 0.4861 0.4207 0.0
H704 H 0.65589 0.49877 0.42431 0.0
O705 O 0.65138 0.43488 0.44938 0.0
O706 O 0.63376 0.42266 0.43495 0.0
H707 H 0.61265 0.45058 0.39636 0.0
H708 H 0.61436 0.46992 0.38828 0.0
C709 C 0.62091 0.45942 0.3919 0.0
H710 H 0.62688 0.45461 0.38154 0.0
H711 H 0.60545 0.41726 0.41281 0.0
O712 O 0.67787 0.46086 0.44697 0.0
C713 C 0.64002 0.42545 0.44811 0.0
Co714 Co 0.29875 0.58222 0.68497 0.0
Co715 Co 0.31469 0.6073 0.66393 0.0
C716 C 0.32226 0.57334 0.66097 0.0
O717 O 0.3126 0.56969 0.67156 0.0
O718 O 0.32429 0.58745 0.65701 0.0
C719 C 0.28151 0.55472 0.69135 0.0
O720 O 0.28433 0.55189 0.67659 0.0
C721 C 0.32384 0.62126 0.63452 0.0
C722 C 0.33329 0.64404 0.64175 0.0
C723 C 0.33115 0.6345 0.62894 0.0
N724 N 0.32167 0.62293 0.6499 0.0
N725 N 0.32715 0.63666 0.65414 0.0
C726 C 0.32073 0.60647 0.62585 0.0
H727 H 0.31275 0.59886 0.63254 0.0
H728 H 0.31541 0.60889 0.61438 0.0
H729 H 0.33189 0.6003 0.62384 0.0
C730 C 0.27054 0.59533 0.67038 0.0
N731 N 0.28598 0.59538 0.67288 0.0
N732 N 0.29252 0.60589 0.66385 0.0
C733 C 0.28135 0.6128 0.65522 0.0
C734 C 0.26709 0.60618 0.65898 0.0
C735 C 0.25926 0.58482 0.67848 0.0
H736 H 0.26231 0.58389 0.69097 0.0
H737 H 0.25985 0.57308 0.67318 0.0
H738 H 0.24717 0.58923 0.6774 0.0
O739 O 0.31158 0.59428 0.69961 0.0
O740 O 0.323 0.61224 0.68499 0.0
H741 H 0.29263 0.63337 0.64682 0.0
H742 H 0.27364 0.63 0.63845 0.0
C743 C 0.28447 0.62434 0.64257 0.0
H744 H 0.28992 0.61829 0.63258 0.0
H745 H 0.3273 0.64069 0.66559 0.0
O746 O 0.28631 0.56736 0.69731 0.0
C747 C 0.32076 0.60581 0.69816 0.0
Co748 Co 0.83543 0.44909 0.55874 0.0
Co749 Co 0.85688 0.43335 0.58358 0.0
C750 C 0.82276 0.42659 0.5822 0.0
O751 O 0.82099 0.43565 0.57064 0.0
O752 O 0.83604 0.42468 0.58844 0.0
C753 C 0.8091 0.46618 0.54869 0.0
O754 O 0.80446 0.46329 0.56296 0.0
C755 C 0.86658 0.42384 0.61445 0.0
C756 C 0.8911 0.41696 0.61104 0.0
C757 C 0.87935 0.41759 0.62207 0.0
N758 N 0.87051 0.42654 0.59959 0.0
N759 N 0.88522 0.42251 0.59761 0.0
C760 C 0.85108 0.42799 0.62124 0.0
H761 H 0.84565 0.4376 0.61456 0.0
H762 H 0.8523 0.43145 0.63362 0.0
H763 H 0.84329 0.41775 0.62058 0.0
C764 C 0.84705 0.47745 0.57432 0.0
N765 N 0.84703 0.46195 0.57222 0.0
N766 N 0.85622 0.45545 0.58261 0.0
C767 C 0.86244 0.4667 0.59163 0.0
C768 C 0.85669 0.48096 0.58673 0.0
C769 C 0.83771 0.48871 0.56488 0.0
H770 H 0.83835 0.48557 0.55239 0.0
H771 H 0.82537 0.48816 0.56864 0.0
H772 H 0.84198 0.50079 0.56644 0.0
O773 O 0.84919 0.43575 0.54608 0.0
O774 O 0.86399 0.42399 0.56371 0.0
H775 H 0.88202 0.45557 0.60229 0.0
H776 H 0.87769 0.47459 0.61011 0.0
C777 C 0.87255 0.46371 0.60549 0.0
H778 H 0.8655 0.45828 0.61481 0.0
H779 H 0.89114 0.42327 0.58703 0.0
O780 O 0.82245 0.46151 0.54437 0.0
C781 C 0.85986 0.4261 0.54963 0.0
Co782 Co 0.16071 0.04902 0.56016 0.0
Co783 Co 0.14 0.06545 0.5852 0.0
C784 C 0.17407 0.07132 0.58367 0.0
O785 O 0.17534 0.06222 0.57208 0.0
O786 O 0.16098 0.07361 0.59015 0.0
C787 C 0.18636 0.03043 0.55244 0.0
O788 O 0.18887 0.03216 0.56742 0.0
C789 C 0.13026 0.07612 0.61573 0.0
C790 C 0.10586 0.08322 0.61188 0.0
C791 C 0.11755 0.08294 0.623 0.0
N792 N 0.12635 0.07281 0.60098 0.0
N793 N 0.11172 0.07696 0.59875 0.0
C794 C 0.1457 0.0721 0.62273 0.0
H795 H 0.15096 0.06205 0.6166 0.0
H796 H 0.14445 0.06933 0.63528 0.0
H797 H 0.15368 0.08216 0.62148 0.0
C798 C 0.14769 0.02102 0.57532 0.0
N799 N 0.14857 0.03654 0.57355 0.0
N800 N 0.14001 0.04331 0.58431 0.0
C801 C 0.13355 0.03223 0.59338 0.0
C802 C 0.13836 0.01776 0.58804 0.0
C803 C 0.1557 0.00943 0.56509 0.0
H804 H 0.1558 0.01359 0.55289 0.0
H805 H 0.16786 0.0079 0.5691 0.0
H806 H 0.14978 0.99796 0.56563 0.0
O807 O 0.14747 0.0626 0.54727 0.0
O808 O 0.1334 0.07493 0.56512 0.0
H809 H 0.11448 0.04355 0.60469 0.0
H810 H 0.11931 0.02479 0.61287 0.0
C811 C 0.12414 0.03555 0.60765 0.0
H812 H 0.1316 0.04136 0.61641 0.0
H813 H 0.10585 0.07586 0.58818 0.0
O814 O 0.17416 0.03631 0.54649 0.0
C815 C 0.13727 0.07269 0.55098 0.0
Co816 Co 0.68662 0.70092 0.91408 0.0
Co817 Co 0.66478 0.68247 0.89154 0.0
C818 C 0.66419 0.67747 0.92622 0.0
O819 O 0.67461 0.68771 0.92853 0.0
O820 O 0.65948 0.67431 0.91254 0.0
C821 C 0.69564 0.71946 0.94015 0.0
O822 O 0.68188 0.71547 0.94548 0.0
C823 C 0.63521 0.67015 0.88097 0.0
C824 C 0.64035 0.66211 0.85711 0.0
C825 C 0.62873 0.66255 0.8683 0.0
N826 N 0.65001 0.67378 0.87754 0.0
N827 N 0.65302 0.66904 0.86323 0.0
C828 C 0.62734 0.67465 0.89584 0.0
H829 H 0.63308 0.68497 0.90105 0.0
H830 H 0.61485 0.67719 0.8938 0.0
H831 H 0.62823 0.66492 0.90423 0.0
C832 C 0.66967 0.72742 0.90056 0.0
N833 N 0.67319 0.71219 0.90091 0.0
N834 N 0.66392 0.70464 0.89134 0.0
C835 C 0.65419 0.71495 0.88455 0.0
C836 C 0.65742 0.72967 0.89034 0.0
C837 C 0.67726 0.73949 0.91054 0.0
H838 H 0.69005 0.73791 0.91033 0.0
H839 H 0.67316 0.73812 0.9227 0.0
H840 H 0.67441 0.75141 0.90648 0.0
O841 O 0.70084 0.68754 0.90213 0.0
O842 O 0.68575 0.67441 0.88584 0.0
H843 H 0.64497 0.70193 0.8654 0.0
H844 H 0.63627 0.72091 0.86791 0.0
C845 C 0.64099 0.7106 0.87406 0.0
H846 H 0.63153 0.70535 0.88107 0.0
H847 H 0.66379 0.67025 0.85777 0.0
O848 O 0.6998 0.71488 0.92673 0.0
C849 C 0.69914 0.67748 0.8914 0.0
Co850 Co 0.948 0.06012 0.33459 0.0
Co851 Co 0.93015 0.08212 0.3574 0.0
C852 C 0.92501 0.08304 0.32275 0.0
O853 O 0.93525 0.0727 0.32006 0.0
O854 O 0.92184 0.08727 0.33656 0.0
C855 C 0.96668 0.05133 0.30865 0.0
O856 O 0.96326 0.06543 0.30382 0.0
C857 C 0.91866 0.11213 0.36708 0.0
C858 C 0.91089 0.10821 0.39126 0.0
C859 C 0.91149 0.11934 0.37959 0.0
N860 N 0.92192 0.0974 0.37106 0.0
N861 N 0.91732 0.09509 0.38554 0.0
C862 C 0.92317 0.11925 0.35183 0.0
H863 H 0.93364 0.1134 0.34706 0.0
H864 H 0.92555 0.13187 0.35316 0.0
H865 H 0.91352 0.11773 0.3434 0.0
C866 C 0.97501 0.07629 0.34837 0.0
N867 N 0.95968 0.07326 0.34773 0.0
N868 N 0.95229 0.08254 0.35742 0.0
C869 C 0.96278 0.09176 0.3646 0.0
C870 C 0.97749 0.08817 0.35896 0.0
C871 C 0.98705 0.06833 0.33864 0.0
H872 H 0.98489 0.05562 0.33855 0.0
H873 H 0.98627 0.0727 0.32653 0.0
H874 H -0.00105 0.07056 0.34311 0.0
O875 O 0.93437 0.04609 0.34684 0.0
O876 O 0.92191 0.06151 0.36341 0.0
H877 H 0.95036 0.10039 0.3844 0.0
H878 H 0.96907 0.10952 0.38136 0.0
C879 C 0.95865 0.10469 0.3755 0.0
H880 H 0.95292 0.11415 0.36889 0.0
H881 H 0.91833 0.08453 0.39143 0.0
O882 O 0.96168 0.04679 0.32181 0.0
C883 C 0.92463 0.04806 0.35785 0.0
Co884 Co 0.31131 0.79997 0.91147 0.0
Co885 Co 0.33299 0.81753 0.888 0.0
C886 C 0.33473 0.823 0.92243 0.0
O887 O 0.32439 0.81285 0.92538 0.0
O888 O 0.33875 0.82606 0.90855 0.0
C889 C 0.30437 0.78142 0.93783 0.0
O890 O 0.31913 0.78402 0.94083 0.0
C891 C 0.36261 0.82925 0.87733 0.0
C892 C 0.35795 0.83662 0.85317 0.0
C893 C 0.36936 0.83642 0.86457 0.0
N894 N 0.34786 0.82562 0.87377 0.0
N895 N 0.34512 0.82996 0.85928 0.0
C896 C 0.37018 0.82518 0.8925 0.0
H897 H 0.3647 0.81466 0.89758 0.0
H898 H 0.38283 0.8231 0.89092 0.0
H899 H 0.36858 0.83493 0.90081 0.0
C900 C 0.32712 0.77277 0.89758 0.0
N901 N 0.32401 0.78809 0.89802 0.0
N902 N 0.33326 0.79537 0.88821 0.0
C903 C 0.34257 0.78482 0.88123 0.0
C904 C 0.33908 0.77019 0.88711 0.0
C905 C 0.31935 0.76081 0.90757 0.0
H906 H 0.30674 0.76332 0.90846 0.0
H907 H 0.32451 0.76114 0.91938 0.0
H908 H 0.32099 0.74896 0.90272 0.0
O909 O 0.29703 0.81368 0.89962 0.0
O910 O 0.31227 0.82599 0.88273 0.0
H911 H 0.35148 0.79711 0.86147 0.0
H912 H 0.36051 0.7784 0.86472 0.0
C913 C 0.35565 0.78887 0.87047 0.0
H914 H 0.36506 0.7946 0.87716 0.0
H915 H 0.33443 0.82868 0.85368 0.0
O916 O 0.29853 0.78672 0.92531 0.0
C917 C 0.29892 0.82347 0.88864 0.0
Co918 Co 0.04887 0.43512 0.33197 0.0
Co919 Co 0.06669 0.41492 0.35646 0.0
C920 C 0.07257 0.41233 0.32192 0.0
O921 O 0.06194 0.42199 0.31842 0.0
O922 O 0.07572 0.40912 0.33601 0.0
C923 C 0.03088 0.44295 0.30514 0.0
O924 O 0.0349 0.42892 0.30058 0.0
C925 C 0.07818 0.38542 0.36754 0.0
C926 C 0.08554 0.39027 0.39167 0.0
C927 C 0.08512 0.3787 0.38044 0.0
N928 N 0.07487 0.4003 0.37088 0.0
N929 N 0.07923 0.40317 0.38534 0.0
C930 C 0.07389 0.37772 0.35252 0.0
H931 H 0.06353 0.38342 0.34734 0.0
H932 H 0.07143 0.36517 0.35432 0.0
H933 H 0.08369 0.37887 0.34419 0.0
C934 C 0.02195 0.41921 0.34595 0.0
N935 N 0.03721 0.42258 0.34561 0.0
N936 N 0.04452 0.41399 0.35598 0.0
C937 C 0.03401 0.4049 0.36332 0.0
C938 C 0.01941 0.40783 0.35705 0.0
C939 C 0.01008 0.42628 0.33534 0.0
H940 H 0.01176 0.43905 0.33482 0.0
H941 H 0.01163 0.42147 0.32346 0.0
H942 H 0.99807 0.42377 0.33935 0.0
O943 O 0.06231 0.4498 0.34352 0.0
O944 O 0.07439 0.436 0.36171 0.0
H945 H 0.04627 0.39745 0.38369 0.0
H946 H 0.02758 0.38817 0.38102 0.0
C947 C 0.03807 0.39264 0.37499 0.0
H948 H 0.04384 0.3828 0.36899 0.0
H949 H 0.0781 0.41395 0.3908 0.0
O950 O 0.03526 0.44776 0.31841 0.0
C951 C 0.07173 0.44891 0.35494 0.0
Co952 Co 0.68412 0.29791 0.58208 0.0
Co953 Co 0.66393 0.3161 0.6063 0.0
C954 C 0.66125 0.3213 0.5715 0.0
O955 O 0.67132 0.31099 0.56817 0.0
O956 O 0.65772 0.32426 0.58557 0.0
C957 C 0.69291 0.27964 0.55558 0.0
O958 O 0.67926 0.28388 0.55018 0.0
C959 C 0.63407 0.32672 0.61709 0.0
C960 C 0.63907 0.33746 0.63988 0.0
C961 C 0.62728 0.33499 0.62914 0.0
N962 N 0.64918 0.32463 0.62038 0.0
N963 N 0.65213 0.33095 0.63407 0.0
C964 C 0.62624 0.32023 0.60295 0.0
H965 H 0.63284 0.31013 0.59835 0.0
H966 H 0.61413 0.31667 0.6057 0.0
H967 H 0.62582 0.32923 0.59375 0.0
C968 C 0.66806 0.27128 0.59646 0.0
N969 N 0.67152 0.28652 0.59594 0.0
N970 N 0.66327 0.29394 0.60649 0.0
C971 C 0.65439 0.28353 0.61421 0.0
C972 C 0.65701 0.26888 0.60794 0.0
C973 C 0.67462 0.25937 0.58561 0.0
H974 H 0.68747 0.26048 0.58521 0.0
H975 H 0.67002 0.26145 0.57374 0.0
H976 H 0.67156 0.24738 0.5893 0.0
O977 O 0.69873 0.31145 0.59345 0.0
O978 O 0.68502 0.32432 0.61115 0.0
H979 H 0.64705 0.29711 0.63384 0.0
H980 H 0.63964 0.27744 0.63364 0.0
C981 C 0.64258 0.28765 0.62632 0.0
H982 H 0.63178 0.29168 0.62055 0.0
H983 H 0.6631 0.3312 0.63925 0.0
O984 O 0.69702 0.28401 0.56909 0.0
C985 C 0.69792 0.32129 0.60449 0.0
Co986 Co 0.55108 0.06039 0.66134 0.0
Co987 Co 0.56642 0.08349 0.63774 0.0
C988 C 0.57345 0.08485 0.67189 0.0
O989 O 0.56436 0.07354 0.67482 0.0
O990 O 0.5753 0.08979 0.65807 0.0
C991 C 0.53451 0.05133 0.68853 0.0
O992 O 0.53761 0.06566 0.69283 0.0
C993 C 0.57448 0.11395 0.62549 0.0
C994 C 0.58482 0.1083 0.60265 0.0
C995 C 0.5819 0.1205 0.61277 0.0
N996 N 0.57302 0.0986 0.62299 0.0
N997 N 0.57901 0.09531 0.60922 0.0
C998 C 0.57062 0.12171 0.64061 0.0
H999 H 0.56283 0.11427 0.6477 0.0
H1000 H 0.56478 0.13301 0.63861 0.0
H1001 H 0.58153 0.12397 0.64713 0.0
C1002 C 0.52247 0.07487 0.64895 0.0
N1003 N 0.53799 0.07279 0.64882 0.0
N1004 N 0.54428 0.08245 0.63873 0.0
C1005 C 0.53287 0.09095 0.63207 0.0
C1006 C 0.51871 0.08651 0.63847 0.0
C1007 C 0.51147 0.06624 0.65932 0.0
H1008 H 0.51443 0.05369 0.65936 0.0
H1009 H 0.51258 0.07075 0.67136 0.0
H1010 H 0.49924 0.06768 0.65544 0.0
O1011 O 0.56458 0.0469 0.64854 0.0
O1012 O 0.57595 0.06323 0.63204 0.0
H1013 H 0.54416 0.10056 0.61202 0.0
H1014 H 0.52471 0.10786 0.61523 0.0
C1015 C 0.53561 0.10411 0.621 0.0
H1016 H 0.54042 0.11415 0.62749 0.0
H1017 H 0.57978 0.0841 0.60463 0.0
O1018 O 0.53887 0.0467 0.67519 0.0
C1019 C 0.57406 0.04957 0.63747 0.0
Co1020 Co 0.31507 0.20016 0.57836 0.0
Co1021 Co 0.33457 0.18168 0.6029 0.0
C1022 C 0.33852 0.17713 0.56826 0.0
O1023 O 0.32889 0.1878 0.56476 0.0
O1024 O 0.34119 0.17352 0.58235 0.0
C1025 C 0.30827 0.21977 0.55233 0.0
O1026 O 0.32286 0.21704 0.54865 0.0
C1027 C 0.36353 0.16921 0.61454 0.0
C1028 C 0.35762 0.16094 0.63813 0.0
C1029 C 0.36957 0.1614 0.62729 0.0
N1030 N 0.34867 0.17293 0.61755 0.0
N1031 N 0.34519 0.16806 0.63171 0.0
C1032 C 0.37186 0.17373 0.59991 0.0
H1033 H 0.36676 0.18453 0.595 0.0
H1034 H 0.38445 0.17556 0.60216 0.0
H1035 H 0.37054 0.16434 0.59116 0.0
C1036 C 0.32995 0.22673 0.59403 0.0
N1037 N 0.32685 0.21145 0.59299 0.0
N1038 N 0.33537 0.20386 0.60322 0.0
C1039 C 0.34429 0.21418 0.61102 0.0
C1040 C 0.34123 0.22899 0.6053 0.0
C1041 C 0.32275 0.23895 0.58393 0.0
H1042 H 0.31011 0.23671 0.58266 0.0
H1043 H 0.32822 0.23856 0.57225 0.0
H1044 H 0.32444 0.25074 0.58891 0.0
O1045 O 0.30014 0.18616 0.58876 0.0
O1046 O 0.3133 0.1736 0.60708 0.0
H1047 H 0.35182 0.20134 0.63099 0.0
H1048 H 0.36113 0.2201 0.6288 0.0
C1049 C 0.35661 0.20979 0.6225 0.0
H1050 H 0.3664 0.20414 0.61629 0.0
H1051 H 0.33426 0.16927 0.63685 0.0
O1052 O 0.30276 0.21402 0.56478 0.0
C1053 C 0.30065 0.17638 0.59987 0.0
Co1054 Co 0.44819 0.43532 0.66405 0.0
Co1055 Co 0.43019 0.41532 0.63957 0.0
C1056 C 0.42408 0.41269 0.67395 0.0
O1057 O 0.43477 0.4223 0.6774 0.0
O1058 O 0.4209 0.40945 0.65988 0.0
C1059 C 0.46687 0.4414 0.69068 0.0
O1060 O 0.46386 0.42672 0.69371 0.0
C1061 C 0.41935 0.38585 0.62751 0.0
C1062 C 0.41005 0.39191 0.60432 0.0
C1063 C 0.41186 0.37966 0.61466 0.0
N1064 N 0.42197 0.40101 0.62486 0.0
N1065 N 0.41651 0.40457 0.61093 0.0
C1066 C 0.42232 0.37813 0.64286 0.0
H1067 H 0.43228 0.38376 0.64883 0.0
H1068 H 0.42474 0.36556 0.64157 0.0
H1069 H 0.41183 0.37941 0.65029 0.0
C1070 C 0.47507 0.41926 0.64991 0.0
N1071 N 0.4598 0.42265 0.65043 0.0
N1072 N 0.45237 0.41403 0.64019 0.0
C1073 C 0.46277 0.40483 0.63282 0.0
C1074 C 0.47745 0.40776 0.63891 0.0
C1075 C 0.48717 0.4266 0.66004 0.0
H1076 H 0.48489 0.43924 0.66116 0.0
H1077 H 0.4867 0.42125 0.67177 0.0
H1078 H 0.49901 0.42485 0.65518 0.0
O1079 O 0.43522 0.45037 0.65242 0.0
O1080 O 0.42298 0.43661 0.63432 0.0
H1081 H 0.45029 0.39728 0.61261 0.0
H1082 H 0.46895 0.38793 0.61517 0.0
C1083 C 0.45856 0.39251 0.62128 0.0
H1084 H 0.45284 0.38272 0.62743 0.0
H1085 H 0.41677 0.41573 0.60615 0.0
O1086 O 0.4617 0.44738 0.67818 0.0
C1087 C 0.42587 0.44954 0.64095 0.0
Co1088 Co 0.91464 0.6866 0.69864 0.0
Co1089 Co 0.89091 0.66535 0.68108 0.0
C1090 C 0.92533 0.66352 0.67501 0.0
O1091 O 0.92836 0.67412 0.68488 0.0
O1092 O 0.91141 0.65913 0.67257 0.0
C1093 C 0.94109 0.69404 0.71732 0.0
O1094 O 0.94502 0.67957 0.71436 0.0
C1095 C 0.8792 0.63596 0.66978 0.0
C1096 C 0.85594 0.64186 0.66061 0.0
C1097 C 0.86659 0.62981 0.66184 0.0
N1098 N 0.8763 0.65098 0.67284 0.0
N1099 N 0.86231 0.65445 0.66746 0.0
C1100 C 0.89358 0.62764 0.67503 0.0
H1101 H 0.89879 0.63358 0.68524 0.0
H1102 H 0.89089 0.61537 0.67801 0.0
H1103 H 0.90228 0.62772 0.66554 0.0
C1104 C 0.90091 0.67047 0.7258 0.0
N1105 N 0.90139 0.67362 0.71048 0.0
N1106 N 0.89116 0.66482 0.70323 0.0
C1107 C 0.8838 0.65583 0.7138 0.0
C1108 C 0.88991 0.659 0.72841 0.0
C1109 C 0.91109 0.678 0.73775 0.0
H1110 H 0.91181 0.69067 0.73553 0.0
H1111 H 0.92296 0.67299 0.73697 0.0
H1112 H 0.90655 0.67604 0.74968 0.0
O1113 O 0.90245 0.70129 0.68585 0.0
O1114 O 0.88593 0.68631 0.6728 0.0
H1115 H 0.86391 0.64791 0.70099 0.0
H1116 H 0.86559 0.63965 0.72024 0.0
C1117 C 0.87217 0.64349 0.70984 0.0
H1118 H 0.87831 0.63326 0.70496 0.0
H1119 H 0.85732 0.66549 0.66806 0.0
O1120 O 0.9283 0.69928 0.71207 0.0
C1121 C 0.89159 0.69963 0.67593 0.0
Co1122 Co 0.93694 0.83636 0.55037 0.0
Co1123 Co 0.91316 0.85983 0.56511 0.0
C1124 C 0.91379 0.82596 0.57392 0.0
O1125 O 0.92454 0.82272 0.56427 0.0
O1126 O 0.90877 0.83978 0.57547 0.0
C1127 C 0.94703 0.80917 0.53442 0.0
O1128 O 0.93285 0.80444 0.53765 0.0
C1129 C 0.8827 0.86965 0.5759 0.0
C1130 C 0.88482 0.89517 0.57776 0.0
C1131 C 0.8747 0.88289 0.58028 0.0
N1132 N 0.897 0.87378 0.57118 0.0
N1133 N 0.89821 0.88908 0.57225 0.0
C1134 C 0.87652 0.85337 0.57536 0.0
H1135 H 0.88162 0.847 0.56536 0.0
H1136 H 0.86365 0.85333 0.57431 0.0
H1137 H 0.87976 0.84725 0.58625 0.0
C1138 C 0.92139 0.84677 0.52156 0.0
N1139 N 0.92374 0.8477 0.537 0.0
N1140 N 0.91354 0.85738 0.54308 0.0
C1141 C 0.90423 0.86279 0.53165 0.0
C1142 C 0.90887 0.85615 0.51765 0.0
C1143 C 0.93076 0.83685 0.51076 0.0
H1144 H 0.94326 0.83757 0.51386 0.0
H1145 H 0.92694 0.82458 0.51188 0.0
H1146 H 0.92925 0.84056 0.49849 0.0
O1147 O 0.94985 0.85043 0.56319 0.0
O1148 O 0.9333 0.86741 0.57351 0.0
H1149 H 0.89382 0.88376 0.54001 0.0
H1150 H 0.88389 0.87536 0.52347 0.0
C1151 C 0.8902 0.87272 0.5344 0.0
H1152 H 0.88217 0.86662 0.54243 0.0
H1153 H 0.90821 0.89534 0.56939 0.0
O1154 O 0.9512 0.82275 0.5385 0.0
C1155 C 0.94706 0.86215 0.57182 0.0
Co1156 Co 0.07867 0.81543 0.6994 0.0
Co1157 Co 0.10379 0.83364 0.68044 0.0
C1158 C 0.06922 0.83782 0.67508 0.0
O1159 O 0.06543 0.82866 0.68607 0.0
O1160 O 0.08341 0.84022 0.6716 0.0
C1161 C 0.05171 0.80803 0.71789 0.0
O1162 O 0.04646 0.82154 0.71303 0.0
C1163 C 0.11717 0.86225 0.66885 0.0
C1164 C 0.13906 0.85449 0.65782 0.0
C1165 C 0.12978 0.86744 0.66027 0.0
N1166 N 0.11895 0.84696 0.67146 0.0
N1167 N 0.13213 0.84239 0.665 0.0
C1168 C 0.10267 0.87108 0.67284 0.0
H1169 H 0.0963 0.8652 0.6824 0.0
H1170 H 0.10535 0.88315 0.6764 0.0
H1171 H 0.09505 0.87159 0.66242 0.0
C1172 C 0.09376 0.83171 0.72541 0.0
N1173 N 0.09303 0.82779 0.71031 0.0
N1174 N 0.1038 0.83543 0.70254 0.0
C1175 C 0.11187 0.84438 0.71261 0.0
C1176 C 0.10564 0.8424 0.72737 0.0
C1177 C 0.08282 0.82582 0.73761 0.0
H1178 H 0.0821 0.81296 0.73692 0.0
H1179 H 0.07105 0.83064 0.73544 0.0
H1180 H 0.08666 0.82917 0.74947 0.0
O1181 O 0.08939 0.7997 0.68651 0.0
O1182 O 0.10802 0.81206 0.67362 0.0
H1183 H 0.13217 0.85021 0.69933 0.0
H1184 H 0.13124 0.85943 0.71823 0.0
C1185 C 0.12433 0.85563 0.70802 0.0
H1186 H 0.11888 0.86604 0.7027 0.0
H1187 H 0.13608 0.83091 0.66496 0.0
O1188 O 0.0652 0.80359 0.71379 0.0
C1189 C 0.10075 0.79961 0.677 0.0
Co1190 Co 0.06214 0.66398 0.54739 0.0
Co1191 Co 0.08309 0.64021 0.5654 0.0
C1192 C 0.08469 0.67445 0.57168 0.0
O1193 O 0.07445 0.67729 0.5614 0.0
O1194 O 0.08907 0.6606 0.57449 0.0
C1195 C 0.05603 0.6909 0.52928 0.0
O1196 O 0.07071 0.69379 0.53238 0.0
C1197 C 0.11241 0.62737 0.57636 0.0
C1198 C 0.10543 0.60454 0.58589 0.0
C1199 C 0.11805 0.6144 0.5841 0.0
N1200 N 0.09717 0.62523 0.57361 0.0
N1201 N 0.09309 0.61149 0.57917 0.0
C1202 C 0.12077 0.64235 0.57327 0.0
H1203 H 0.12159 0.64906 0.58425 0.0
H1204 H 0.11444 0.64934 0.56447 0.0
H1205 H 0.13273 0.64024 0.56901 0.0
C1206 C 0.07861 0.65032 0.52053 0.0
N1207 N 0.07524 0.65076 0.5358 0.0
N1208 N 0.08413 0.64072 0.54322 0.0
C1209 C 0.09344 0.63355 0.5328 0.0
C1210 C 0.09033 0.63955 0.51813 0.0
C1211 C 0.07108 0.66036 0.50847 0.0
H1212 H 0.05842 0.66127 0.51077 0.0
H1213 H 0.07623 0.67217 0.50897 0.0
H1214 H 0.0729 0.65557 0.49662 0.0
O1215 O 0.04724 0.65205 0.56007 0.0
O1216 O 0.06182 0.63512 0.57302 0.0
H1217 H 0.1015 0.61351 0.54525 0.0
H1218 H 0.11076 0.61631 0.52659 0.0
C1219 C 0.10605 0.6223 0.53699 0.0
H1220 H 0.11569 0.62868 0.54269 0.0
H1221 H 0.08177 0.60712 0.57889 0.0
O1222 O 0.05002 0.67826 0.53403 0.0
C1223 C 0.04859 0.64107 0.56991 0.0
Co1224 Co 0.91281 0.31098 0.79811 0.0
Co1225 Co 0.88878 0.33173 0.81598 0.0
C1226 C 0.92304 0.33384 0.82215 0.0
O1227 O 0.9262 0.32375 0.81181 0.0
O1228 O 0.90908 0.33771 0.82511 0.0
C1229 C 0.9398 0.30447 0.78009 0.0
O1230 O 0.94294 0.31911 0.78314 0.0
C1231 C 0.87632 0.36114 0.82667 0.0
C1232 C 0.85313 0.35478 0.83578 0.0
C1233 C 0.86331 0.36715 0.83401 0.0
N1234 N 0.87391 0.34594 0.82407 0.0
N1235 N 0.85998 0.3422 0.82941 0.0
C1236 C 0.89156 0.36911 0.8238 0.0
H1237 H 0.89782 0.36344 0.81404 0.0
H1238 H 0.88999 0.38161 0.82114 0.0
H1239 H 0.89884 0.36817 0.83442 0.0
C1240 C 0.89937 0.32752 0.77118 0.0
N1241 N 0.89958 0.32396 0.78641 0.0
N1242 N 0.8894 0.33273 0.79379 0.0
C1243 C 0.88234 0.34212 0.78336 0.0
C1244 C 0.88858 0.33923 0.76876 0.0
C1245 C 0.90982 0.32041 0.75923 0.0
H1246 H 0.91078 0.30771 0.76122 0.0
H1247 H 0.92157 0.32564 0.76021 0.0
H1248 H 0.90536 0.32252 0.74729 0.0
O1249 O 0.90063 0.29603 0.81069 0.0
O1250 O 0.8836 0.31063 0.82356 0.0
H1251 H 0.86229 0.35017 0.79583 0.0
H1252 H 0.86493 0.35921 0.77705 0.0
C1253 C 0.87102 0.35469 0.78748 0.0
H1254 H 0.87735 0.36446 0.79301 0.0
H1255 H 0.85536 0.33098 0.82913 0.0
O1256 O 0.92704 0.2987 0.78484 0.0
C1257 C 0.88948 0.29742 0.82035 0.0
Co1258 Co 0.56053 0.83336 0.44893 0.0
Co1259 Co 0.58318 0.85679 0.43262 0.0
C1260 C 0.58412 0.82242 0.42614 0.0
O1261 O 0.57351 0.81939 0.43599 0.0
O1262 O 0.58851 0.8363 0.42359 0.0
C1263 C 0.55154 0.80668 0.46633 0.0
O1264 O 0.56585 0.80229 0.4632 0.0
C1265 C 0.61358 0.86679 0.42241 0.0
C1266 C 0.60999 0.89127 0.41552 0.0
C1267 C 0.62105 0.87952 0.41593 0.0
N1268 N 0.59878 0.87071 0.42544 0.0
N1269 N 0.59668 0.88539 0.42139 0.0
C1270 C 0.62049 0.85131 0.42644 0.0
H1271 H 0.61439 0.84619 0.4366 0.0
H1272 H 0.63308 0.85244 0.42911 0.0
H1273 H 0.61908 0.84328 0.41644 0.0
C1274 C 0.57569 0.84622 0.47693 0.0
N1275 N 0.57327 0.84605 0.46148 0.0
N1276 N 0.58284 0.85594 0.45477 0.0
C1277 C 0.59166 0.86277 0.46582 0.0
C1278 C 0.58748 0.85669 0.4802 0.0
C1279 C 0.56719 0.8362 0.48835 0.0
H1280 H 0.55459 0.83615 0.48559 0.0
H1281 H 0.57163 0.82412 0.48751 0.0
H1282 H 0.56884 0.84041 0.50045 0.0
O1283 O 0.54698 0.8461 0.43527 0.0
O1284 O 0.56283 0.86306 0.42387 0.0
H1285 H 0.60067 0.88308 0.45458 0.0
H1286 H 0.60936 0.87909 0.47332 0.0
C1287 C 0.60474 0.87377 0.46253 0.0
H1288 H 0.6143 0.86739 0.45668 0.0
H1289 H 0.58611 0.89129 0.42235 0.0
O1290 O 0.54687 0.81991 0.46167 0.0
C1291 C 0.5493 0.85739 0.42595 0.0
Co1292 Co 0.08441 0.1858 0.80358 0.0
Co1293 Co 0.10775 0.16257 0.81938 0.0
C1294 C 0.07367 0.16201 0.8268 0.0
O1295 O 0.07092 0.17317 0.81744 0.0
O1296 O 0.08741 0.15678 0.82865 0.0
C1297 C 0.05724 0.19498 0.78683 0.0
O1298 O 0.05255 0.18088 0.79038 0.0
C1299 C 0.1207 0.13349 0.8314 0.0
C1300 C 0.14595 0.13817 0.83171 0.0
C1301 C 0.13487 0.12707 0.83529 0.0
N1302 N 0.1231 0.14786 0.82579 0.0
N1303 N 0.13826 0.15058 0.82594 0.0
C1304 C 0.10515 0.12581 0.83268 0.0
H1305 H 0.09742 0.12967 0.8231 0.0
H1306 H 0.10631 0.11295 0.83234 0.0
H1307 H 0.09988 0.12907 0.84398 0.0
C1308 C 0.09629 0.17026 0.77531 0.0
N1309 N 0.09657 0.1728 0.79076 0.0
N1310 N 0.10629 0.16294 0.7973 0.0
C1311 C 0.11241 0.15371 0.78619 0.0
C1312 C 0.10624 0.15805 0.77192 0.0
C1313 C 0.08635 0.17907 0.76407 0.0
H1314 H 0.08666 0.19165 0.76686 0.0
H1315 H 0.07416 0.17495 0.76507 0.0
H1316 H 0.09034 0.17733 0.75191 0.0
O1317 O 0.09756 0.19947 0.81648 0.0
O1318 O 0.11374 0.18308 0.82819 0.0
H1319 H 0.13371 0.14391 0.79447 0.0
H1320 H 0.12491 0.13304 0.77879 0.0
C1321 C 0.12252 0.13991 0.78944 0.0
H1322 H 0.11673 0.1323 0.7981 0.0
H1323 H 0.14334 0.16097 0.82225 0.0
O1324 O 0.07071 0.19939 0.79106 0.0
C1325 C 0.10863 0.1968 0.82595 0.0
Co1326 Co 0.4365 0.66132 0.45049 0.0
Co1327 Co 0.41323 0.63924 0.43319 0.0
C1328 C 0.41365 0.67336 0.42691 0.0
O1329 O 0.42471 0.67537 0.43653 0.0
O1330 O 0.40795 0.65993 0.42457 0.0
C1331 C 0.44362 0.68775 0.4686 0.0
O1332 O 0.42887 0.69074 0.46588 0.0
C1333 C 0.38338 0.62867 0.4216 0.0
C1334 C 0.38809 0.60451 0.41427 0.0
C1335 C 0.37665 0.61589 0.41442 0.0
N1336 N 0.39814 0.62513 0.42525 0.0
N1337 N 0.40089 0.61063 0.42095 0.0
C1338 C 0.37578 0.64382 0.42562 0.0
H1339 H 0.38161 0.64925 0.43577 0.0
H1340 H 0.36325 0.64209 0.42823 0.0
H1341 H 0.37681 0.65188 0.41562 0.0
C1342 C 0.42002 0.64869 0.47788 0.0
N1343 N 0.42289 0.64894 0.4625 0.0
N1344 N 0.41301 0.63965 0.45538 0.0
C1345 C 0.40345 0.63326 0.4661 0.0
C1346 C 0.40749 0.63895 0.48067 0.0
C1347 C 0.42877 0.65795 0.48973 0.0
H1348 H 0.44132 0.65818 0.48678 0.0
H1349 H 0.42428 0.67004 0.48984 0.0
H1350 H 0.42727 0.65294 0.50154 0.0
O1351 O 0.45042 0.6483 0.43777 0.0
O1352 O 0.43394 0.63333 0.42459 0.0
H1353 H 0.39332 0.61401 0.45395 0.0
H1354 H 0.38485 0.61764 0.47284 0.0
C1355 C 0.38978 0.62317 0.46229 0.0
H1356 H 0.38059 0.63034 0.45679 0.0
H1357 H 0.41159 0.60505 0.42224 0.0
O1358 O 0.44945 0.67514 0.46354 0.0
C1359 C 0.44773 0.63786 0.42762 0.0
Co1360 Co 0.70018 0.91431 0.68531 0.0
Co1361 Co 0.68038 0.89087 0.6658 0.0
C1362 C 0.6762 0.92557 0.66319 0.0
O1363 O 0.68731 0.92853 0.6725 0.0
O1364 O 0.67225 0.91165 0.66017 0.0
C1365 C 0.72039 0.93987 0.69155 0.0
O1366 O 0.71733 0.94343 0.677 0.0
C1367 C 0.66687 0.88013 0.63702 0.0
C1368 C 0.65842 0.85652 0.64261 0.0
C1369 C 0.65883 0.86759 0.63087 0.0
N1370 N 0.6708 0.87677 0.65174 0.0
N1371 N 0.6658 0.86261 0.65504 0.0
C1372 C 0.67152 0.89482 0.62889 0.0
H1373 H 0.68242 0.8995 0.63397 0.0
H1374 H 0.67322 0.89275 0.61626 0.0
H1375 H 0.66224 0.90367 0.63043 0.0
C1376 C 0.72587 0.89826 0.66886 0.0
N1377 N 0.71072 0.89985 0.67251 0.0
N1378 N 0.70244 0.89023 0.66395 0.0
C1379 C 0.71211 0.88238 0.6544 0.0
C1380 C 0.72722 0.88722 0.65722 0.0
C1381 C 0.73862 0.90824 0.67525 0.0
H1382 H 0.73723 0.90947 0.68801 0.0
H1383 H 0.73789 0.91995 0.66989 0.0
H1384 H 0.75025 0.90328 0.67268 0.0
O1385 O 0.68676 0.90354 0.70066 0.0
O1386 O 0.6734 0.88602 0.68722 0.0
H1387 H 0.69843 0.86279 0.64731 0.0
H1388 H 0.71703 0.86437 0.63756 0.0
C1389 C 0.707 0.87101 0.64226 0.0
H1390 H 0.70133 0.87736 0.63258 0.0
H1391 H 0.66719 0.85723 0.66583 0.0
O1392 O 0.71472 0.92748 0.69729 0.0
C1393 C 0.67683 0.89256 0.70006 0.0
Co1394 Co 0.69943 0.08099 0.81035 0.0
Co1395 Co 0.68189 0.10571 0.8305 0.0
C1396 C 0.67587 0.0712 0.83341 0.0
O1397 O 0.68634 0.06754 0.82361 0.0
O1398 O 0.67287 0.08533 0.83655 0.0
C1399 C 0.71718 0.05397 0.8021 0.0
O1400 O 0.71287 0.049 0.8159 0.0
C1401 C 0.67043 0.11719 0.8599 0.0
C1402 C 0.66234 0.14096 0.85446 0.0
C1403 C 0.66303 0.13003 0.86632 0.0
N1404 N 0.67368 0.12029 0.84495 0.0
N1405 N 0.6689 0.13454 0.84174 0.0
C1406 C 0.67506 0.10239 0.86785 0.0
H1407 H 0.6854 0.09724 0.86209 0.0
H1408 H 0.67769 0.1045 0.88031 0.0
H1409 H 0.66539 0.09389 0.86701 0.0
C1410 C 0.72645 0.09455 0.82646 0.0
N1411 N 0.71123 0.09456 0.82289 0.0
N1412 N 0.70405 0.10508 0.8314 0.0
C1413 C 0.71461 0.1122 0.84059 0.0
C1414 C 0.72909 0.1056 0.83786 0.0
C1415 C 0.73812 0.08352 0.81971 0.0
H1416 H 0.73681 0.08312 0.80689 0.0
H1417 H 0.73597 0.0717 0.82441 0.0
H1418 H 0.7502 0.08706 0.8226 0.0
O1419 O 0.68609 0.09263 0.79559 0.0
O1420 O 0.67423 0.11093 0.80941 0.0
H1421 H 0.70214 0.13241 0.84821 0.0
H1422 H 0.7212 0.13023 0.85686 0.0
C1423 C 0.71069 0.12393 0.85283 0.0
H1424 H 0.70542 0.11794 0.86296 0.0
H1425 H 0.66984 0.13976 0.83082 0.0
O1426 O 0.71301 0.06744 0.79764 0.0
C1427 C 0.67681 0.10415 0.79649 0.0
Co1428 Co 0.33456 0.04992 0.43762 0.0
Co1429 Co 0.357 0.06479 0.41308 0.0
C1430 C 0.32292 0.07224 0.41358 0.0
O1431 O 0.32058 0.06335 0.42517 0.0
O1432 O 0.33644 0.07379 0.40778 0.0
C1433 C 0.30776 0.03335 0.44697 0.0
O1434 O 0.30374 0.03618 0.43249 0.0
C1435 C 0.36671 0.0734 0.38207 0.0
C1436 C 0.39094 0.08129 0.38532 0.0
C1437 C 0.37922 0.07999 0.3743 0.0
N1438 N 0.37073 0.07118 0.39698 0.0
N1439 N 0.38528 0.07579 0.39887 0.0
C1440 C 0.35133 0.06861 0.37542 0.0
H1441 H 0.34626 0.05894 0.3823 0.0
H1442 H 0.35263 0.06499 0.36309 0.0
H1443 H 0.34317 0.07857 0.37594 0.0
C1444 C 0.34615 0.02106 0.42289 0.0
N1445 N 0.34629 0.03661 0.42464 0.0
N1446 N 0.35591 0.04273 0.41441 0.0
C1447 C 0.36227 0.03119 0.40587 0.0
C1448 C 0.35614 0.01712 0.41089 0.0
C1449 C 0.33638 0.01013 0.43227 0.0
H1450 H 0.33671 0.01351 0.44471 0.0
H1451 H 0.32417 0.01076 0.42814 0.0
H1452 H 0.34052 0.99795 0.43109 0.0
O1453 O 0.34829 0.0633 0.45034 0.0
O1454 O 0.36392 0.07434 0.43293 0.0
H1455 H 0.38216 0.04214 0.3956 0.0
H1456 H 0.37852 0.02265 0.3886 0.0
C1457 C 0.37299 0.03367 0.39238 0.0
H1458 H 0.36632 0.03849 0.38246 0.0
H1459 H 0.39118 0.07558 0.40947 0.0
O1460 O 0.32098 0.0379 0.45178 0.0
C1461 C 0.35931 0.07261 0.44692 0.0
Co1462 Co 0.29935 0.4134 0.81131 0.0
Co1463 Co 0.31721 0.39086 0.83363 0.0
C1464 C 0.3224 0.42549 0.83406 0.0
O1465 O 0.31215 0.42804 0.82369 0.0
O1466 O 0.32555 0.41175 0.83853 0.0
C1467 C 0.28083 0.43929 0.80195 0.0
O1468 O 0.28419 0.44439 0.81596 0.0
C1469 C 0.32917 0.38124 0.86356 0.0
C1470 C 0.33667 0.357 0.85954 0.0
C1471 C 0.33646 0.36871 0.87063 0.0
N1472 N 0.32549 0.37723 0.84893 0.0
N1473 N 0.32992 0.3627 0.84658 0.0
C1474 C 0.325 0.39658 0.87069 0.0
H1475 H 0.3144 0.40139 0.86511 0.0
H1476 H 0.32299 0.39536 0.88339 0.0
H1477 H 0.33467 0.40492 0.86879 0.0
C1478 C 0.27235 0.39988 0.82773 0.0
N1479 N 0.28768 0.40043 0.82464 0.0
N1480 N 0.29506 0.39086 0.83405 0.0
C1481 C 0.28458 0.38386 0.84342 0.0
C1482 C 0.26988 0.38948 0.83978 0.0
C1483 C 0.26034 0.40959 0.8197 0.0
H1484 H 0.26243 0.40948 0.80697 0.0
H1485 H 0.26125 0.42176 0.82388 0.0
H1486 H 0.24842 0.40524 0.82206 0.0
O1487 O 0.31303 0.40104 0.79745 0.0
O1488 O 0.32551 0.3847 0.81309 0.0
H1489 H 0.29684 0.36409 0.85232 0.0
H1490 H 0.27829 0.3676 0.86164 0.0
C1491 C 0.28873 0.3732 0.85653 0.0
H1492 H 0.29471 0.37993 0.86576 0.0
H1493 H 0.32861 0.35679 0.83606 0.0
O1494 O 0.28574 0.42601 0.79773 0.0
C1495 C 0.32282 0.39012 0.79957 0.0
Co1496 Co 0.16157 0.94749 0.93921 0.0
Co1497 Co 0.13933 0.93148 0.9152 0.0
C1498 C 0.17353 0.92489 0.91572 0.0
O1499 O 0.17605 0.93459 0.9266 0.0
O1500 O 0.15989 0.92244 0.91063 0.0
C1501 C 0.18781 0.9651 0.94845 0.0
O1502 O 0.19195 0.96243 0.93398 0.0
C1503 C 0.13017 0.92055 0.88469 0.0
C1504 C 0.10511 0.91555 0.88737 0.0
C1505 C 0.11734 0.91467 0.8769 0.0
N1506 N 0.12581 0.92447 0.89916 0.0
N1507 N 0.11079 0.92153 0.90071 0.0
C1508 C 0.14616 0.92326 0.87829 0.0
H1509 H 0.15166 0.9334 0.88407 0.0
H1510 H 0.14574 0.92534 0.86556 0.0
H1511 H 0.15348 0.91287 0.88056 0.0
C1512 C 0.14931 0.97568 0.92395 0.0
N1513 N 0.14933 0.9602 0.92615 0.0
N1514 N 0.14036 0.95361 0.91564 0.0
C1515 C 0.13458 0.96473 0.90618 0.0
C1516 C 0.14021 0.97911 0.91107 0.0
C1517 C 0.15803 0.98701 0.93389 0.0
H1518 H 0.15745 0.98338 0.94625 0.0
H1519 H 0.1704 0.98724 0.93023 0.0
H1520 H 0.15315 -0.00109 0.93275 0.0
O1521 O 0.14842 0.93372 0.95214 0.0
O1522 O 0.13235 0.9225 0.93526 0.0
H1523 H 0.11485 0.95459 0.89491 0.0
H1524 H 0.12185 0.97206 0.88555 0.0
C1525 C 0.12538 0.96136 0.89178 0.0
H1526 H 0.13248 0.95419 0.88378 0.0
H1527 H 0.1045 0.92338 0.91092 0.0
O1528 O 0.17475 0.96008 0.95326 0.0
C1529 C 0.13734 0.92436 0.9491 0.0
Co1530 Co 0.79928 0.0845 0.19023 0.0
Co1531 Co 0.81424 0.1069 0.16568 0.0
C1532 C 0.82101 0.07269 0.16567 0.0
O1533 O 0.81221 0.07029 0.17734 0.0
O1534 O 0.82275 0.08628 0.16008 0.0
C1535 C 0.78242 0.05802 0.20072 0.0
O1536 O 0.78502 0.05316 0.18647 0.0
C1537 C 0.82334 0.11747 0.13487 0.0
C1538 C 0.82964 0.14207 0.13875 0.0
C1539 C 0.82924 0.13053 0.12749 0.0
N1540 N 0.82062 0.12101 0.14984 0.0
N1541 N 0.82431 0.13576 0.15209 0.0
C1542 C 0.81951 0.10208 0.12768 0.0
H1543 H 0.81029 0.09607 0.13441 0.0
H1544 H 0.81565 0.10362 0.11545 0.0
H1545 H 0.83003 0.09466 0.12771 0.0
C1546 C 0.77045 0.09648 0.17583 0.0
N1547 N 0.78599 0.09664 0.17761 0.0
N1548 N 0.79215 0.10601 0.16717 0.0
C1549 C 0.78066 0.112 0.1583 0.0
C1550 C 0.76651 0.106 0.16342 0.0
C1551 C 0.75955 0.08702 0.18559 0.0
H1552 H 0.7631 0.08763 0.19797 0.0
H1553 H 0.76003 0.07471 0.18177 0.0
H1554 H 0.7474 0.09126 0.18448 0.0
O1555 O 0.81313 0.09774 0.20282 0.0
O1556 O 0.82427 0.11336 0.18551 0.0
H1557 H 0.79127 0.13155 0.14708 0.0
H1558 H 0.77253 0.12643 0.13914 0.0
C1559 C 0.78344 0.12175 0.14413 0.0
H1560 H 0.78918 0.11458 0.13511 0.0
H1561 H 0.82347 0.14144 0.16279 0.0
O1562 O 0.78723 0.07139 0.20478 0.0
C1563 C 0.82263 0.10858 0.19944 0.0
Co1564 Co 0.33442 0.94706 0.0605 0.0
Co1565 Co 0.35762 0.92969 0.0826 0.0
C1566 C 0.32316 0.92412 0.08382 0.0
O1567 O 0.32032 0.93423 0.07342 0.0
O1568 O 0.337 0.92112 0.08801 0.0
C1569 C 0.30843 0.96595 0.05388 0.0
O1570 O 0.30595 0.96369 0.06879 0.0
C1571 C 0.36724 0.91905 0.11285 0.0
C1572 C 0.39125 0.91065 0.10925 0.0
C1573 C 0.37955 0.91181 0.12031 0.0
N1574 N 0.37132 0.9218 0.09805 0.0
N1575 N 0.38572 0.91685 0.09593 0.0
C1576 C 0.35203 0.92401 0.11978 0.0
H1577 H 0.34743 0.93436 0.11358 0.0
H1578 H 0.35337 0.92675 0.13232 0.0
H1579 H 0.34345 0.91445 0.11853 0.0
C1580 C 0.34857 0.97445 0.07582 0.0
N1581 N 0.34771 0.95905 0.07325 0.0
N1582 N 0.35744 0.95184 0.08264 0.0
C1583 C 0.36479 0.96251 0.0915 0.0
C1584 C 0.35926 0.97715 0.08754 0.0
C1585 C 0.33913 0.98645 0.06746 0.0
H1586 H 0.33811 0.98338 0.05498 0.0
H1587 H 0.32732 0.98693 0.07263 0.0
H1588 H 0.34452 0.99814 0.06851 0.0
O1589 O 0.34661 0.93335 0.04648 0.0
O1590 O 0.36337 0.92118 0.06201 0.0
H1591 H 0.38194 0.96918 0.10873 0.0
H1592 H 0.36939 0.95333 0.11413 0.0
C1593 C 0.37589 0.95867 0.10436 0.0
H1594 H 0.38462 0.95016 0.10017 0.0
H1595 H 0.39165 0.91741 0.08535 0.0
O1596 O 0.3206 0.96026 0.04768 0.0
C1597 C 0.35766 0.92367 0.04856 0.0
Co1598 Co 0.66709 0.54877 0.06462 0.0
Co1599 Co 0.64243 0.56668 0.08452 0.0
C1600 C 0.67695 0.57273 0.08743 0.0
O1601 O 0.68041 0.56238 0.07745 0.0
O1602 O 0.66284 0.5755 0.09097 0.0
C1603 C 0.69376 0.53012 0.05779 0.0
O1604 O 0.69747 0.53326 0.07228 0.0
C1605 C 0.63035 0.57814 0.11367 0.0
C1606 C 0.60704 0.58706 0.10758 0.0
C1607 C 0.61761 0.58594 0.11972 0.0
N1608 N 0.6276 0.57505 0.09863 0.0
N1609 N 0.6136 0.58029 0.09504 0.0
C1610 C 0.6447 0.57302 0.12213 0.0
H1611 H 0.64993 0.56274 0.11634 0.0
H1612 H 0.64196 0.57019 0.13443 0.0
H1613 H 0.65338 0.58253 0.12196 0.0
C1614 C 0.6527 0.5219 0.08044 0.0
N1615 N 0.65331 0.53717 0.07715 0.0
N1616 N 0.64275 0.54454 0.08547 0.0
C1617 C 0.63503 0.53407 0.09428 0.0
C1618 C 0.64124 0.51943 0.09149 0.0
C1619 C 0.6632 0.50989 0.07347 0.0
H1620 H 0.66427 0.51186 0.06077 0.0
H1621 H 0.67491 0.51088 0.07879 0.0
H1622 H 0.6587 0.49796 0.07552 0.0
O1623 O 0.65566 0.5618 0.04962 0.0
O1624 O 0.63774 0.57445 0.06323 0.0
H1625 H 0.61472 0.54682 0.10114 0.0
H1626 H 0.6163 0.52775 0.10988 0.0
C1627 C 0.6229 0.53815 0.10608 0.0
H1628 H 0.62859 0.54334 0.11641 0.0
H1629 H 0.60869 0.5796 0.08396 0.0
O1630 O 0.681 0.53523 0.05234 0.0
C1631 C 0.64444 0.57144 0.05036 0.0
C1632 C 0.09953 0.35601 0.36933 0.0
C1633 C 0.09162 0.36286 0.38187 0.0
C1634 C 0.10549 0.34098 0.37056 0.0
C1635 C 0.11868 0.31207 0.39892 0.0
H1636 H 0.11354 0.2832 0.36462 0.0
C1637 C 0.13907 0.24869 0.40352 0.0
C1638 C 0.14702 0.2426 0.39065 0.0
C1639 C 0.13118 0.2628 0.40235 0.0
C1640 C 0.11519 0.29117 0.37423 0.0
H1641 H 0.0843 0.35967 0.40577 0.0
H1642 H 0.0948 0.33327 0.40799 0.0
H1643 H 0.102 0.3091 0.36305 0.0
H1644 H 0.15278 0.24602 0.36642 0.0
H1645 H 0.13907 0.27095 0.36429 0.0
H1646 H 0.13207 0.29431 0.41002 0.0
C1647 C 0.09626 0.33952 0.39714 0.0
C1648 C 0.10857 0.30598 0.37334 0.0
C1649 C 0.09024 0.35459 0.39588 0.0
C1650 C 0.14662 0.25055 0.37644 0.0
C1651 C 0.13876 0.26474 0.37525 0.0
C1652 C 0.12534 0.29729 0.39979 0.0
C1653 C 0.10384 0.33254 0.38443 0.0
C1654 C 0.11032 0.31661 0.38565 0.0
C1655 C 0.13115 0.27114 0.38828 0.0
C1656 C 0.12371 0.28669 0.38743 0.0
H1657 H 0.1014 0.36235 0.35861 0.0
H1658 H 0.11164 0.33608 0.36071 0.0
H1659 H 0.12042 0.32009 0.40849 0.0
H1660 H 0.13917 0.24261 0.41457 0.0
H1661 H 0.12518 0.26724 0.41251 0.0
C1662 C 0.5016 0.60272 0.84467 0.0
C1663 C 0.49472 0.59579 0.85774 0.0
C1664 C 0.51592 0.61022 0.84594 0.0
C1665 C 0.55119 0.61152 0.86986 0.0
H1666 H 0.55795 0.6512 0.84947 0.0
C1667 C 0.60666 0.64751 0.8799 0.0
C1668 C 0.61323 0.65521 0.86707 0.0
C1669 C 0.59213 0.64041 0.87871 0.0
C1670 C 0.55631 0.64004 0.85506 0.0
H1671 H 0.4972 0.5911 0.88233 0.0
H1672 H 0.52238 0.60434 0.88467 0.0
H1673 H 0.53253 0.63868 0.84777 0.0
H1674 H 0.61007 0.66098 0.84276 0.0
H1675 H 0.58467 0.64831 0.84054 0.0
H1676 H 0.57497 0.61275 0.87704 0.0
C1677 C 0.51673 0.60392 0.87342 0.0
C1678 C 0.54175 0.63289 0.85413 0.0
C1679 C 0.50232 0.59647 0.87214 0.0
C1680 C 0.60516 0.6553 0.85288 0.0
C1681 C 0.5906 0.64815 0.85166 0.0
C1682 C 0.56576 0.61862 0.87075 0.0
C1683 C 0.52367 0.61086 0.86032 0.0
C1684 C 0.53904 0.61857 0.86153 0.0
C1685 C 0.58391 0.64064 0.86458 0.0
C1686 C 0.56848 0.63298 0.86339 0.0
H1687 H 0.49586 0.60232 0.83345 0.0
H1688 H 0.52106 0.61529 0.83561 0.0
H1689 H 0.54952 0.60036 0.87547 0.0
H1690 H 0.61284 0.64664 0.89082 0.0
H1691 H 0.58731 0.6348 0.8889 0.0
C1692 C 0.85757 0.24851 0.40185 0.0
C1693 C 0.84959 0.25533 0.38938 0.0
C1694 C 0.86531 0.2344 0.39988 0.0
C1695 C 0.88704 0.20827 0.39046 0.0
H1696 H 0.86438 0.17527 0.36969 0.0
C1697 C 0.90589 0.14393 0.39402 0.0
C1698 C 0.90488 0.13517 0.38029 0.0
C1699 C 0.89967 0.15893 0.39466 0.0
C1700 C 0.87096 0.1844 0.37534 0.0
H1701 H 0.8435 0.25318 0.36507 0.0
H1702 H 0.85715 0.22834 0.3615 0.0
H1703 H 0.85317 0.20126 0.371 0.0
H1704 H 0.89563 0.13481 0.35681 0.0
H1705 H 0.88531 0.16109 0.3577 0.0
H1706 H 0.90481 0.1914 0.39486 0.0
C1707 C 0.85736 0.23387 0.37282 0.0
C1708 C 0.86454 0.19929 0.37606 0.0
C1709 C 0.84967 0.24806 0.3748 0.0
C1710 C 0.89715 0.14149 0.36736 0.0
C1711 C 0.89097 0.15646 0.36797 0.0
C1712 C 0.89349 0.19338 0.38969 0.0
C1713 C 0.86513 0.22684 0.3854 0.0
C1714 C 0.87245 0.21134 0.38373 0.0
C1715 C 0.89218 0.16538 0.3816 0.0
C1716 C 0.88547 0.18126 0.38221 0.0
H1717 H 0.85763 0.254 0.41319 0.0
H1718 H 0.87103 0.22919 0.40983 0.0
H1719 H 0.89347 0.21739 0.3963 0.0
H1720 H 0.91163 0.13923 0.40421 0.0
H1721 H 0.90054 0.16541 0.40543 0.0
C1722 C 0.39126 0.85157 0.87624 0.0
C1723 C 0.38495 0.84357 0.86348 0.0
C1724 C 0.40605 0.85814 0.87535 0.0
C1725 C 0.43486 0.8732 0.84799 0.0
H1726 H 0.46352 0.86732 0.88236 0.0
C1727 C 0.49809 0.89495 0.84533 0.0
C1728 C 0.50421 0.90174 0.85883 0.0
C1729 C 0.48382 0.88727 0.84577 0.0
C1730 C 0.4556 0.86922 0.87276 0.0
H1731 H 0.38879 0.83683 0.83951 0.0
H1732 H 0.41477 0.84849 0.83787 0.0
H1733 H 0.43799 0.85498 0.8831 0.0
H1734 H 0.50047 0.90601 0.88333 0.0
H1735 H 0.47525 0.89275 0.88416 0.0
H1736 H 0.4523 0.88768 0.83776 0.0
C1737 C 0.40829 0.84947 0.84863 0.0
C1738 C 0.441 0.86211 0.87316 0.0
C1739 C 0.39348 0.84279 0.84957 0.0
C1740 C 0.49595 0.9007 0.87283 0.0
C1741 C 0.48159 0.89308 0.87328 0.0
C1742 C 0.44942 0.88039 0.84763 0.0
C1743 C 0.41476 0.85707 0.86159 0.0
C1744 C 0.43046 0.8641 0.86082 0.0
C1745 C 0.47533 0.88634 0.85972 0.0
C1746 C 0.45994 0.87852 0.86003 0.0
H1747 H 0.38469 0.85305 0.88687 0.0
H1748 H 0.41056 0.8643 0.88537 0.0
H1749 H 0.42688 0.8751 0.83842 0.0
H1750 H 0.50441 0.89555 0.83444 0.0
H1751 H 0.47949 0.88198 0.83519 0.0
C1752 C 0.15037 0.74544 0.12252 0.0
C1753 C 0.15107 0.7532 0.1082 0.0
C1754 C 0.1427 0.73115 0.12367 0.0
C1755 C 0.13521 0.69673 0.11912 0.0
H1756 H 0.09481 0.69065 0.09993 0.0
C1757 C 0.09996 0.64065 0.12808 0.0
C1758 C 0.09153 0.63473 0.11541 0.0
C1759 C 0.10701 0.65522 0.1272 0.0
C1760 C 0.10618 0.6921 0.10517 0.0
H1761 H 0.14423 0.75256 0.08398 0.0
H1762 H 0.13077 0.72759 0.08595 0.0
H1763 H 0.10724 0.71615 0.09875 0.0
H1764 H 0.08447 0.63904 0.09162 0.0
H1765 H 0.09711 0.66448 0.08991 0.0
H1766 H 0.13435 0.67267 0.1253 0.0
C1767 C 0.13606 0.7325 0.09629 0.0
C1768 C 0.11325 0.70671 0.10455 0.0
C1769 C 0.14382 0.74669 0.09513 0.0
C1770 C 0.09072 0.64345 0.10163 0.0
C1771 C 0.09785 0.65804 0.10071 0.0
C1772 C 0.1282 0.6821 0.11964 0.0
C1773 C 0.13553 0.72452 0.11054 0.0
C1774 C 0.12783 0.70916 0.11153 0.0
C1775 C 0.10603 0.66411 0.11353 0.0
C1776 C 0.11358 0.67962 0.1127 0.0
H1777 H 0.15595 0.75033 0.13271 0.0
H1778 H 0.14235 0.72529 0.13482 0.0
H1779 H 0.14657 0.69823 0.12437 0.0
H1780 H 0.10139 0.63395 0.13863 0.0
H1781 H 0.11314 0.65955 0.13732 0.0
C1782 C 0.88624 0.64126 0.13675 0.0
C1783 C 0.88501 0.65703 0.13278 0.0
C1784 C 0.90082 0.63417 0.13776 0.0
C1785 C 0.94119 0.63849 0.12405 0.0
H1786 H 0.95014 0.60844 0.15646 0.0
C1787 C 0.99597 0.59914 0.12374 0.0
C1788 C 0.00333 0.59691 0.13811 0.0
C1789 C 0.98169 0.60692 0.12299 0.0
C1790 C 0.94786 0.61689 0.1474 0.0
H1791 H 0.89793 0.67811 0.128 0.0
H1792 H 0.92347 0.66574 0.12965 0.0
H1793 H 0.92497 0.62147 0.15603 0.0
H1794 H 0.00203 0.60134 0.16287 0.0
H1795 H 0.9772 0.61499 0.16162 0.0
H1796 H 0.9642 0.63406 0.11556 0.0
C1797 C 0.91318 0.65872 0.13149 0.0
C1798 C 0.93338 0.62423 0.14706 0.0
C1799 C 0.89858 0.66579 0.13049 0.0
C1800 C 0.99642 0.60279 0.15167 0.0
C1801 C 0.98221 0.61054 0.15095 0.0
C1802 C 0.95568 0.63112 0.12437 0.0
C1803 C 0.91444 0.64278 0.13493 0.0
C1804 C 0.92989 0.63512 0.13539 0.0
C1805 C 0.97459 0.61256 0.13663 0.0
C1806 C 0.95917 0.62027 0.13608 0.0
H1807 H 0.87589 0.63429 0.1386 0.0
H1808 H 0.9014 0.62185 0.14034 0.0
H1809 H 0.93877 0.6467 0.1148 0.0
H1810 H 0.0011 0.59457 0.11317 0.0
H1811 H 0.97603 0.60819 0.1118 0.0
C1812 C 0.90113 0.85574 0.12688 0.0
C1813 C 0.90852 0.86307 0.11429 0.0
C1814 C 0.89528 0.84071 0.12539 0.0
C1815 C 0.88088 0.81287 0.09671 0.0
H1816 H 0.88697 0.78303 0.13004 0.0
C1817 C 0.85863 0.75 0.09207 0.0
C1818 C 0.85131 0.74386 0.10529 0.0
C1819 C 0.86682 0.76396 0.09298 0.0
C1820 C 0.88506 0.79128 0.1207 0.0
H1821 H 0.91502 0.86074 0.09007 0.0
H1822 H 0.90466 0.8343 0.08737 0.0
H1823 H 0.89916 0.80861 0.13167 0.0
H1824 H 0.84677 0.74716 0.1298 0.0
H1825 H 0.861 0.7718 0.13148 0.0
H1826 H 0.86655 0.79569 0.08587 0.0
C1827 C 0.90357 0.84018 0.09846 0.0
C1828 C 0.89207 0.80589 0.12162 0.0
C1829 C 0.90951 0.85526 0.09999 0.0
C1830 C 0.85247 0.75169 0.11952 0.0
C1831 C 0.86064 0.76573 0.12045 0.0
C1832 C 0.87384 0.79827 0.09581 0.0
C1833 C 0.89649 0.83274 0.11119 0.0
C1834 C 0.88992 0.81689 0.1097 0.0
C1835 C 0.86777 0.77208 0.10714 0.0
C1836 C 0.87575 0.78736 0.10786 0.0
H1837 H 0.8995 0.86171 0.13783 0.0
H1838 H 0.88948 0.83546 0.13527 0.0
H1839 H 0.87885 0.82118 0.08746 0.0
H1840 H 0.85795 0.74402 0.081 0.0
H1841 H 0.8724 0.7684 0.08259 0.0
C1842 C -0.00015 0.89318 0.15183 0.0
C1843 C 0.99374 0.90105 0.13892 0.0
C1844 C 0.01392 0.88522 0.15067 0.0
C1845 C 0.04146 0.86824 0.12243 0.0
H1846 H 0.07065 0.87191 0.15667 0.0
C1847 C 0.1053 0.84852 0.11792 0.0
C1848 C 0.11156 0.84031 0.13058 0.0
C1849 C 0.09064 0.85537 0.11898 0.0
C1850 C 0.06254 0.87062 0.14711 0.0
H1851 H 0.99726 0.90685 0.1147 0.0
H1852 H 0.02212 0.89299 0.1126 0.0
H1853 H 0.04557 0.88504 0.15815 0.0
H1854 H 0.10771 0.83331 0.15447 0.0
H1855 H 0.08196 0.84537 0.15638 0.0
H1856 H 0.05858 0.85397 0.11132 0.0
C1857 C 0.01593 0.89277 0.12357 0.0
C1858 C 0.04818 0.87814 0.14794 0.0
C1859 C 0.00177 0.90072 0.12474 0.0
C1860 C 0.10306 0.83945 0.14449 0.0
C1861 C 0.08838 0.84637 0.14559 0.0
C1862 C 0.05586 0.86076 0.12157 0.0
C1863 C 0.02221 0.88504 0.13658 0.0
C1864 C 0.03747 0.87703 0.13562 0.0
C1865 C 0.082 0.85434 0.1328 0.0
C1866 C 0.06655 0.8619 0.1339 0.0
H1867 H 0.99372 0.89321 0.16284 0.0
H1868 H 0.01828 0.87915 0.16082 0.0
H1869 H 0.03338 0.86698 0.11284 0.0
H1870 H 0.11185 0.85003 0.10728 0.0
H1871 H 0.08621 0.86178 0.10907 0.0
C1872 C 0.40195 0.13831 0.24695 0.0
C1873 C 0.38925 0.14605 0.24025 0.0
C1874 C 0.40011 0.12994 0.26072 0.0
C1875 C 0.37569 0.12828 0.29544 0.0
H1876 H 0.3956 0.0883 0.30193 0.0
C1877 C 0.36671 0.09353 0.35176 0.0
C1878 C 0.37976 0.08614 0.35825 0.0
C1879 C 0.36739 0.09989 0.33686 0.0
C1880 C 0.3901 0.09952 0.30034 0.0
H1881 H 0.3647 0.15111 0.24233 0.0
H1882 H 0.36136 0.13638 0.26656 0.0
H1883 H 0.39732 0.10092 0.27653 0.0
H1884 H 0.40389 0.08 0.35443 0.0
H1885 H 0.40522 0.09144 0.32839 0.0
H1886 H 0.36874 0.12711 0.31927 0.0
C1887 C 0.37276 0.13683 0.26119 0.0
C1888 C 0.39104 0.10671 0.28579 0.0
C1889 C 0.37461 0.14514 0.24734 0.0
C1890 C 0.3936 0.08546 0.34961 0.0
C1891 C 0.39432 0.0919 0.33469 0.0
C1892 C 0.37481 0.12113 0.30998 0.0
C1893 C 0.38553 0.12924 0.26808 0.0
C1894 C 0.38389 0.12119 0.28322 0.0
C1895 C 0.38121 0.09926 0.32818 0.0
C1896 C 0.38203 0.10669 0.31262 0.0
H1897 H 0.41335 0.13887 0.24159 0.0
H1898 H 0.4102 0.12437 0.26583 0.0
H1899 H 0.3703 0.13956 0.29388 0.0
H1900 H 0.35607 0.09488 0.35831 0.0
H1901 H 0.35706 0.1054 0.33219 0.0
C1902 C 0.40151 0.37536 0.99759 0.0
C1903 C 0.40218 0.36098 0.00522 0.0
C1904 C 0.39395 0.37664 0.98325 0.0
C1905 C 0.38649 0.37259 0.94876 0.0
H1906 H 0.34656 0.35261 0.94219 0.0
C1907 C 0.35151 0.38096 0.89232 0.0
C1908 C 0.34366 0.36801 0.88622 0.0
C1909 C 0.35836 0.38029 0.907 0.0
C1910 C 0.35779 0.35809 0.94378 0.0
H1911 H 0.39547 0.33674 0.00426 0.0
H1912 H 0.38225 0.33891 0.97919 0.0
H1913 H 0.35882 0.35143 0.96776 0.0
H1914 H 0.33739 0.34397 0.89037 0.0
H1915 H 0.34967 0.34263 0.916 0.0
H1916 H 0.38564 0.37904 0.92476 0.0
C1917 C 0.38744 0.34922 0.98425 0.0
C1918 C 0.36477 0.35746 0.95843 0.0
C1919 C 0.39508 0.34794 0.99849 0.0
C1920 C 0.34319 0.35419 0.8949 0.0
C1921 C 0.35012 0.35348 0.9096 0.0
C1922 C 0.37955 0.37315 0.93409 0.0
C1923 C 0.38687 0.36356 0.97643 0.0
C1924 C 0.3792 0.36469 0.96105 0.0
C1925 C 0.35774 0.36656 0.91583 0.0
C1926 C 0.36513 0.36589 0.93143 0.0
H1927 H 0.40702 0.38552 0.00262 0.0
H1928 H 0.39358 0.38786 0.97752 0.0
H1929 H 0.39773 0.37805 0.95039 0.0
H1930 H 0.35265 0.39158 0.88568 0.0
H1931 H 0.36408 0.39059 0.91146 0.0
C1932 C 0.62474 0.34694 0.25052 0.0
C1933 C 0.61041 0.34557 0.24289 0.0
C1934 C 0.62567 0.35477 0.26474 0.0
C1935 C 0.60511 0.38319 0.28949 0.0
H1936 H 0.62765 0.3633 0.32311 0.0
C1937 C 0.60139 0.40451 0.35326 0.0
C1938 C 0.61535 0.40464 0.36171 0.0
C1939 C 0.60078 0.39764 0.33852 0.0
C1940 C 0.62147 0.36912 0.3138 0.0
H1941 H 0.58593 0.35144 0.24366 0.0
H1942 H 0.58749 0.36509 0.26852 0.0
H1943 H 0.6272 0.35121 0.2975 0.0
H1944 H 0.63933 0.39674 0.36182 0.0
H1945 H 0.63848 0.38544 0.33602 0.0
H1946 H 0.59941 0.40113 0.3058 0.0
C1947 C 0.59802 0.36024 0.26357 0.0
C1948 C 0.62123 0.36219 0.29913 0.0
C1949 C 0.59709 0.35235 0.24944 0.0
C1950 C 0.62857 0.39745 0.35535 0.0
C1951 C 0.62799 0.39065 0.34066 0.0
C1952 C 0.60541 0.39017 0.30417 0.0
C1953 C 0.61229 0.36142 0.27144 0.0
C1954 C 0.61302 0.36913 0.28684 0.0
C1955 C 0.6141 0.39065 0.33206 0.0
C1956 C 0.61358 0.3832 0.31649 0.0
H1957 H 0.63511 0.34172 0.24562 0.0
H1958 H 0.63684 0.35562 0.27051 0.0
H1959 H 0.59881 0.38888 0.28018 0.0
H1960 H 0.59098 0.4098 0.35802 0.0
H1961 H 0.58983 0.39761 0.33228 0.0
C1962 C 0.65601 0.14629 0.88942 0.0
C1963 C 0.65623 0.13171 0.88204 0.0
C1964 C 0.64945 0.14793 0.90422 0.0
C1965 C 0.63964 0.12575 0.93925 0.0
H1966 H 0.60947 0.15835 0.94708 0.0
C1967 C 0.60156 0.12615 0.99442 0.0
C1968 C 0.59796 0.14058 0.00107 0.0
C1969 C 0.60919 0.12543 0.98008 0.0
C1970 C 0.61806 0.14933 0.94519 0.0
H1971 H 0.64855 0.10773 0.88393 0.0
H1972 H 0.63775 0.11046 0.90988 0.0
H1973 H 0.62221 0.15681 0.92177 0.0
H1974 H 0.59989 0.16555 0.99848 0.0
H1975 H 0.61354 0.16438 0.97363 0.0
H1976 H 0.63572 0.11834 0.96265 0.0
C1977 C 0.64301 0.12052 0.9044 0.0
C1978 C 0.62532 0.14845 0.93068 0.0
C1979 C 0.64938 0.11892 0.88957 0.0
C1980 C 0.60232 0.15429 0.99338 0.0
C1981 C 0.61009 0.15359 0.97914 0.0
C1982 C 0.63252 0.12673 0.95381 0.0
C1983 C 0.64302 0.13501 0.91189 0.0
C1984 C 0.63604 0.13655 0.92753 0.0
C1985 C 0.61354 0.13916 0.97226 0.0
C1986 C 0.62152 0.13843 0.95692 0.0
H1987 H 0.66104 0.15639 0.8838 0.0
H1988 H 0.64956 0.15925 0.90975 0.0
H1989 H 0.64801 0.11657 0.93715 0.0
H1990 H 0.59825 0.11546 0.00021 0.0
H1991 H 0.61144 0.11412 0.97503 0.0
C1992 C 0.39348 0.90647 0.14528 0.0
C1993 C 0.37992 0.90545 0.13627 0.0
C1994 C 0.39373 0.90053 0.16043 0.0
C1995 C 0.37346 0.87255 0.18599 0.0
H1996 H 0.39394 0.89532 0.21911 0.0
C1997 C 0.39853 0.8594 0.25062 0.0
C1998 C 0.38596 0.85125 0.25709 0.0
C1999 C 0.39681 0.86734 0.2366 0.0
C2000 C 0.38822 0.88882 0.20996 0.0
H2001 H 0.35633 0.89649 0.13562 0.0
H2002 H 0.35655 0.8867 0.16209 0.0
H2003 H 0.39332 0.90621 0.19288 0.0
H2004 H 0.36168 0.84526 0.25445 0.0
H2005 H 0.35853 0.8593 0.22977 0.0
H2006 H 0.36847 0.85511 0.20302 0.0
C2007 C 0.36699 0.89213 0.15758 0.0
C2008 C 0.38792 0.89502 0.19494 0.0
C2009 C 0.36677 0.89801 0.14248 0.0
C2010 C 0.37148 0.85154 0.24962 0.0
C2011 C 0.36975 0.85945 0.2355 0.0
C2012 C 0.37372 0.86639 0.20101 0.0
C2013 C 0.38045 0.89334 0.16675 0.0
C2014 C 0.38063 0.8869 0.18277 0.0
C2015 C 0.38248 0.86722 0.22874 0.0
C2016 C 0.3812 0.87439 0.21312 0.0
H2017 H 0.40384 0.91198 0.14067 0.0
H2018 H 0.40438 0.9014 0.16712 0.0
H2019 H 0.36795 0.86589 0.17683 0.0
H2020 H 0.4098 0.85931 0.25627 0.0
H2021 H 0.40687 0.87306 0.23161 0.0
C2022 C 0.13943 0.35721 0.10991 0.0
C2023 C 0.15521 0.36112 0.11125 0.0
C2024 C 0.13235 0.35664 0.0953 0.0
C2025 C 0.13672 0.37161 0.0554 0.0
H2026 H 0.10668 0.33951 0.04539 0.0
C2027 C 0.09756 0.37338 0.00044 0.0
C2028 C 0.09543 0.35919 0.99272 0.0
C2029 C 0.10529 0.37379 0.01477 0.0
C2030 C 0.11512 0.3485 0.04797 0.0
H2031 H 0.17632 0.36628 0.09852 0.0
H2032 H 0.16397 0.36534 0.07291 0.0
H2033 H 0.11963 0.33917 0.07058 0.0
H2034 H 0.10002 0.33444 0.99336 0.0
H2035 H 0.11359 0.33511 0.01826 0.0
H2036 H 0.13236 0.38079 0.03264 0.0
C2037 C 0.15693 0.36319 0.08314 0.0
C2038 C 0.12241 0.34839 0.06246 0.0
C2039 C 0.16399 0.36375 0.09776 0.0
C2040 C 0.10139 0.34549 -0.00073 0.0
C2041 C 0.10909 0.34588 0.01352 0.0
C2042 C 0.12939 0.37174 0.04089 0.0
C2043 C 0.14098 0.35986 0.08178 0.0
C2044 C 0.13332 0.35992 0.06633 0.0
C2045 C 0.11096 0.35999 0.02153 0.0
C2046 C 0.11856 0.36014 0.037 0.0
H2047 H 0.13245 0.35511 0.1202 0.0
H2048 H 0.12002 0.35413 0.09464 0.0
H2049 H 0.14493 0.38077 0.05812 0.0
H2050 H 0.09294 0.38405 0.99558 0.0
H2051 H 0.10647 0.38483 0.02073 0.0
C2052 C 0.62059 0.65057 0.24664 0.0
C2053 C 0.60621 0.65131 0.25427 0.0
C2054 C 0.6218 0.64317 0.23221 0.0
C2055 C 0.60221 0.6147 0.20679 0.0
H2056 H 0.62544 0.63516 0.17398 0.0
C2057 C 0.60165 0.59313 0.14298 0.0
C2058 C 0.61602 0.59315 0.13524 0.0
C2059 C 0.60018 0.60013 0.1576 0.0
C2060 C 0.61905 0.62921 0.18307 0.0
H2061 H 0.58189 0.64488 0.2532 0.0
H2062 H 0.58392 0.63201 0.22793 0.0
H2063 H 0.62383 0.64718 0.19959 0.0
H2064 H 0.63984 0.60143 0.13625 0.0
H2065 H 0.63749 0.61303 0.16184 0.0
H2066 H 0.59749 0.59667 0.19027 0.0
C2067 C 0.59429 0.63699 0.23307 0.0
C2068 C 0.61815 0.63609 0.19773 0.0
C2069 C 0.59309 0.64443 0.24743 0.0
C2070 C 0.62878 0.60063 0.14217 0.0
C2071 C 0.62734 0.60758 0.15673 0.0
C2072 C 0.60316 0.60777 0.19212 0.0
C2073 C 0.60863 0.63636 0.22525 0.0
C2074 C 0.60975 0.6289 0.20976 0.0
C2075 C 0.61303 0.60742 0.16463 0.0
C2076 C 0.61163 0.61493 0.18011 0.0
H2077 H 0.63082 0.65589 0.25173 0.0
H2078 H 0.63304 0.64272 0.22652 0.0
H2079 H 0.59578 0.60881 0.21589 0.0
H2080 H 0.59158 0.58762 0.13777 0.0
H2081 H 0.58894 0.60002 0.16329 0.0
C2082 C 0.88562 0.15295 0.99828 0.0
C2083 C 0.89423 0.14013 0.99304 0.0
C2084 C 0.87705 0.15201 0.01202 0.0
C2085 C 0.86037 0.12414 0.04025 0.0
H2086 H 0.86295 0.15913 0.06864 0.0
C2087 C 0.84366 0.11956 0.10475 0.0
C2088 C 0.83521 0.13184 0.11143 0.0
C2089 C 0.84951 0.12082 0.08968 0.0
C2090 C 0.86192 0.14937 0.06074 0.0
H2091 H 0.90067 0.11627 0.99771 0.0
H2092 H 0.88579 0.11457 0.02196 0.0
H2093 H 0.87568 0.16062 0.04335 0.0
H2094 H 0.82673 0.15529 0.10785 0.0
H2095 H 0.83707 0.15757 0.08137 0.0
H2096 H 0.84687 0.11278 0.05782 0.0
C2097 C 0.88543 0.12529 0.01535 0.0
C2098 C 0.86921 0.15021 0.04625 0.0
C2099 C 0.89397 0.12624 0.00155 0.0
C2100 C 0.83308 0.1456 0.10289 0.0
C2101 C 0.83901 0.1469 0.08779 0.0
C2102 C 0.85312 0.12329 0.05476 0.0
C2103 C 0.87701 0.13823 0.02082 0.0
C2104 C 0.86864 0.13755 0.0359 0.0
C2105 C 0.84723 0.13448 0.08103 0.0
C2106 C 0.85396 0.13583 0.06522 0.0
H2107 H 0.8856 0.16374 0.99176 0.0
H2108 H 0.87049 0.16209 0.01577 0.0
H2109 H 0.8595 0.1143 0.03244 0.0
H2110 H 0.84618 0.10911 0.11127 0.0
H2111 H 0.85619 0.11123 0.08496 0.0
C2112 C 0.3531 0.39654 0.09061 0.0
C2113 C 0.36207 0.38294 0.09156 0.0
C2114 C 0.33816 0.39699 0.09706 0.0
C2115 C 0.31334 0.37707 0.12606 0.0
H2116 H 0.2796 0.39738 0.10405 0.0
C2117 C 0.24965 0.37323 0.14687 0.0
C2118 C 0.24174 0.38746 0.14742 0.0
C2119 C 0.264 0.37218 0.13928 0.0
C2120 C 0.28894 0.39173 0.11034 0.0
H2121 H 0.36288 0.35952 0.10095 0.0
H2122 H 0.33675 0.36005 0.11154 0.0
H2123 H 0.30558 0.39692 0.09256 0.0
H2124 H 0.24209 0.41161 0.1403 0.0
H2125 H 0.26716 0.40983 0.12702 0.0
H2126 H 0.29668 0.37185 0.1438 0.0
C2127 C 0.34114 0.37038 0.10581 0.0
C2128 C 0.30382 0.39153 0.10381 0.0
C2129 C 0.35603 0.36996 0.09944 0.0
C2130 C 0.24809 0.40052 0.14 0.0
C2131 C 0.26234 0.39947 0.13233 0.0
C2132 C 0.29845 0.3772 0.13254 0.0
C2133 C 0.33201 0.38388 0.10469 0.0
C2134 C 0.3162 0.38422 0.11162 0.0
C2135 C 0.27053 0.38534 0.13205 0.0
C2136 C 0.28612 0.38458 0.12477 0.0
H2137 H 0.35759 0.40677 0.08478 0.0
H2138 H 0.33152 0.40767 0.09624 0.0
H2139 H 0.32266 0.37158 0.13251 0.0
H2140 H 0.2449 0.36306 0.1526 0.0
H2141 H 0.27002 0.36111 0.13912 0.0
C2142 C 0.35281 0.60075 0.40743 0.0
C2143 C 0.36116 0.61477 0.40704 0.0
C2144 C 0.33826 0.59963 0.40021 0.0
C2145 C 0.30573 0.62366 0.38599 0.0
H2146 H 0.29627 0.58798 0.3601 0.0
C2147 C 0.25258 0.62225 0.34496 0.0
C2148 C 0.24449 0.60816 0.34383 0.0
C2149 C 0.26666 0.62294 0.35307 0.0
C2150 C 0.29864 0.59793 0.36745 0.0
H2151 H 0.36135 0.63824 0.39773 0.0
H2152 H 0.33595 0.63644 0.38556 0.0
H2153 H 0.32103 0.58911 0.37391 0.0
H2154 H 0.24437 0.58383 0.3503 0.0
H2155 H 0.26883 0.58501 0.36466 0.0
H2156 H 0.28335 0.63249 0.37959 0.0
C2157 C 0.34037 0.62645 0.39184 0.0
C2158 C 0.31282 0.59856 0.37536 0.0
C2159 C 0.3549 0.62752 0.39896 0.0
C2160 C 0.25055 0.5948 0.35095 0.0
C2161 C 0.26457 0.59548 0.35909 0.0
C2162 C 0.29152 0.623 0.37814 0.0
C2163 C 0.33187 0.61253 0.39243 0.0
C2164 C 0.31655 0.61148 0.38462 0.0
C2165 C 0.27283 0.60954 0.36021 0.0
C2166 C 0.28784 0.61017 0.36871 0.0
H2167 H 0.35746 0.59069 0.41344 0.0
H2168 H 0.33194 0.58875 0.40086 0.0
H2169 H 0.30821 0.63368 0.39321 0.0
H2170 H 0.24811 0.63264 0.33941 0.0
H2171 H 0.27284 0.63391 0.35353 0.0
C2172 C 0.85783 0.38482 0.85626 0.0
C2173 C 0.86138 0.38287 0.84047 0.0
C2174 C 0.8573 0.39971 0.86274 0.0
C2175 C 0.85315 0.44119 0.85284 0.0
H2176 H 0.87331 0.44759 0.8927 0.0
C2177 C 0.84458 0.49652 0.88944 0.0
C2178 C 0.85753 0.5026 0.89726 0.0
C2179 C 0.84565 0.48237 0.88162 0.0
C2180 C 0.86778 0.44602 0.88149 0.0
H2181 H 0.86598 0.39474 0.81874 0.0
H2182 H 0.86528 0.42081 0.83006 0.0
H2183 H 0.87348 0.4218 0.88087 0.0
H2184 H 0.88177 0.49904 0.90298 0.0
H2185 H 0.88377 0.47416 0.88911 0.0
H2186 H 0.84755 0.46544 0.8534 0.0
C2187 C 0.86305 0.41089 0.8375 0.0
C2188 C 0.86769 0.43122 0.87482 0.0
C2189 C 0.86363 0.396 0.83106 0.0
C2190 C 0.87169 0.49452 0.89692 0.0
C2191 C 0.87276 0.48029 0.88912 0.0
C2192 C 0.8532 0.45599 0.85953 0.0
C2193 C 0.86013 0.41288 0.85347 0.0
C2194 C 0.86029 0.42863 0.86047 0.0
C2195 C 0.8597 0.47401 0.88151 0.0
C2196 C 0.86044 0.45853 0.87397 0.0
H2197 H 0.85594 0.37481 0.86369 0.0
H2198 H 0.85472 0.4009 0.87502 0.0
H2199 H 0.84729 0.43954 0.8418 0.0
H2200 H 0.83356 0.50263 0.88959 0.0
H2201 H 0.83534 0.47775 0.87604 0.0
C2202 C 0.64331 0.86768 0.40143 0.0
C2203 C 0.63699 0.88035 0.40958 0.0
C2204 C 0.65832 0.86845 0.39533 0.0
C2205 C 0.68778 0.89611 0.38194 0.0
H2206 H 0.71563 0.86075 0.38545 0.0
C2207 C 0.7506 0.89901 0.3596 0.0
C2208 C 0.75601 0.88613 0.35121 0.0
C2209 C 0.73671 0.89814 0.36791 0.0
C2210 C 0.70794 0.87066 0.38426 0.0
H2211 H 0.64115 0.90397 0.41725 0.0
H2212 H 0.66751 0.90538 0.40652 0.0
H2213 H 0.69007 0.85982 0.3978 0.0
H2214 H 0.75158 0.86217 0.34501 0.0
H2215 H 0.72701 0.86058 0.35945 0.0
H2216 H 0.70547 0.90687 0.36819 0.0
C2217 C 0.66086 0.8948 0.40498 0.0
C2218 C 0.69332 0.87014 0.39135 0.0
C2219 C 0.64582 0.89399 0.41114 0.0
C2220 C 0.74758 0.8722 0.35152 0.0
C2221 C 0.7336 0.87131 0.3598 0.0
C2222 C 0.70236 0.89662 0.37482 0.0
C2223 C 0.66727 0.88199 0.39706 0.0
C2224 C 0.68306 0.88283 0.39019 0.0
C2225 C 0.7279 0.88437 0.3679 0.0
C2226 C 0.71258 0.88388 0.37584 0.0
H2227 H 0.63656 0.85726 0.3994 0.0
H2228 H 0.66278 0.85855 0.38893 0.0
H2229 H 0.68003 0.90596 0.38063 0.0
H2230 H 0.75706 0.90983 0.35959 0.0
H2231 H 0.73281 0.9083 0.37427 0.0
C2232 C 0.6234 0.50018 0.39752 0.0
C2233 C 0.63749 0.49201 0.39799 0.0
C2234 C 0.62244 0.5143 0.3895 0.0
C2235 C 0.64739 0.54622 0.37523 0.0
H2236 H 0.61076 0.55778 0.35159 0.0
C2237 C 0.64415 0.60243 0.33839 0.0
C2238 C 0.63035 0.61104 0.33984 0.0
C2239 C 0.64519 0.58748 0.34472 0.0
C2240 C 0.62103 0.55472 0.35822 0.0
H2241 H 0.66144 0.49162 0.39024 0.0
H2242 H 0.65976 0.5161 0.37599 0.0
H2243 H 0.612 0.53223 0.36392 0.0
H2244 H 0.60725 0.61122 0.35002 0.0
H2245 H 0.60894 0.58513 0.36072 0.0
H2246 H 0.65639 0.56873 0.36954 0.0
C2247 C 0.64954 0.5119 0.38203 0.0
C2248 C 0.62172 0.54012 0.36531 0.0
C2249 C 0.65049 0.49787 0.39009 0.0
C2250 C 0.61778 0.60462 0.34805 0.0
C2251 C 0.61877 0.58969 0.3543 0.0
C2252 C 0.64672 0.56078 0.36808 0.0
C2253 C 0.63557 0.52039 0.38181 0.0
C2254 C 0.63489 0.53574 0.37396 0.0
C2255 C 0.63246 0.58094 0.35266 0.0
C2256 C 0.63349 0.56522 0.3596 0.0
H2257 H 0.61329 0.49585 0.40368 0.0
H2258 H 0.61156 0.52065 0.3897 0.0
H2259 H 0.65759 0.54332 0.38203 0.0
H2260 H 0.65407 0.60719 0.33224 0.0
H2261 H 0.65589 0.58097 0.34328 0.0
C2262 C 0.24565 0.59411 0.64384 0.0
C2263 C 0.25227 0.60748 0.65044 0.0
C2264 C 0.23128 0.59489 0.63638 0.0
C2265 C 0.20394 0.62167 0.61743 0.0
H2266 H 0.17392 0.58911 0.62618 0.0
C2267 C 0.14708 0.6149 0.58248 0.0
C2268 C 0.13352 0.61239 0.5912 0.0
C2269 C 0.16167 0.6141 0.58959 0.0
C2270 C 0.18214 0.59832 0.62368 0.0
H2271 H 0.24931 0.63214 0.65441 0.0
H2272 H 0.22403 0.63361 0.64118 0.0
H2273 H 0.19921 0.5887 0.63901 0.0
H2274 H 0.12444 0.6063 0.61388 0.0
H2275 H 0.14996 0.6048 0.62636 0.0
H2276 H 0.18677 0.63137 0.60221 0.0
C2277 C 0.23003 0.62255 0.6417 0.0
C2278 C 0.19667 0.59801 0.63092 0.0
C2279 C 0.24444 0.62174 0.64925 0.0
C2280 C 0.13477 0.60834 0.60695 0.0
C2281 C 0.14935 0.60749 0.61407 0.0
C2282 C 0.18942 0.62193 0.61013 0.0
C2283 C 0.22325 0.60908 0.63534 0.0
C2284 C 0.20774 0.60965 0.62784 0.0
C2285 C 0.16294 0.61058 0.6055 0.0
C2286 C 0.17838 0.61025 0.61317 0.0
H2287 H 0.2516 0.58302 0.64449 0.0
H2288 H 0.22649 0.58438 0.63136 0.0
H2289 H 0.21228 0.63073 0.61477 0.0
H2290 H 0.14643 0.61739 0.57015 0.0
H2291 H 0.17196 0.61614 0.58261 0.0
C2292 C 0.85086 0.60663 0.65397 0.0
C2293 C 0.86524 0.61435 0.65447 0.0
C2294 C 0.84957 0.59214 0.64669 0.0
C2295 C 0.86944 0.56707 0.61784 0.0
H2296 H 0.84512 0.53411 0.63672 0.0
C2297 C 0.87212 0.50349 0.59659 0.0
C2298 C 0.85776 0.496 0.59482 0.0
C2299 C 0.8729 0.51795 0.60398 0.0
C2300 C 0.85186 0.54325 0.63127 0.0
H2301 H 0.88927 0.61344 0.64676 0.0
H2302 H 0.88724 0.58803 0.63481 0.0
H2303 H 0.84642 0.55953 0.6493 0.0
H2304 H 0.83302 0.49735 0.59935 0.0
H2305 H 0.83433 0.52264 0.61229 0.0
H2306 H 0.87502 0.55072 0.59992 0.0
C2307 C 0.87694 0.59307 0.64003 0.0
C2308 C 0.85256 0.55781 0.63843 0.0
C2309 C 0.87819 0.60752 0.64723 0.0
C2310 C 0.84421 0.50301 0.60061 0.0
C2311 C 0.84499 0.51738 0.60808 0.0
C2312 C 0.86882 0.5525 0.61074 0.0
C2313 C 0.86262 0.5852 0.63965 0.0
C2314 C 0.86142 0.56987 0.63183 0.0
C2315 C 0.85933 0.52502 0.60978 0.0
C2316 C 0.86005 0.54044 0.6174 0.0
H2317 H 0.84065 0.61177 0.65928 0.0
H2318 H 0.83832 0.58649 0.64638 0.0
H2319 H 0.87613 0.57619 0.61229 0.0
H2320 H 0.88267 0.49824 0.59212 0.0
H2321 H 0.88412 0.52354 0.60526 0.0
C2322 C 0.15056 0.99457 0.60014 0.0
C2323 C 0.137 0.0026 0.59592 0.0
C2324 C 0.14962 0.97995 0.60706 0.0
C2325 C 0.12338 0.95405 0.62871 0.0
H2326 H 0.15262 0.92228 0.61555 0.0
C2327 C 0.13068 0.8964 0.66203 0.0
C2328 C 0.13178 0.88283 0.65305 0.0
C2329 C 0.13139 0.91099 0.65494 0.0
C2330 C 0.1443 0.93098 0.61927 0.0
H2331 H 0.11185 0.00188 0.59555 0.0
H2332 H 0.11011 0.97611 0.60774 0.0
H2333 H 0.15303 0.94773 0.60309 0.0
H2334 H 0.13517 0.87367 0.62985 0.0
H2335 H 0.13639 0.8992 0.61736 0.0
H2336 H 0.1145 0.9372 0.64474 0.0
C2337 C 0.12147 0.9812 0.60583 0.0
C2338 C 0.14464 0.94561 0.61225 0.0
C2339 C 0.12244 0.99589 0.59887 0.0
C2340 C 0.13426 0.88403 0.63698 0.0
C2341 C 0.13497 0.89862 0.62986 0.0
C2342 C 0.12305 0.93941 0.63575 0.0
C2343 C 0.13508 0.97304 0.60987 0.0
C2344 C 0.13426 0.95734 0.61697 0.0
C2345 C 0.13333 0.91225 0.63875 0.0
C2346 C 0.13357 0.92775 0.63116 0.0
H2347 H 0.16192 -0.00035 0.59812 0.0
H2348 H 0.1603 0.97411 0.61031 0.0
H2349 H 0.11531 0.96288 0.63267 0.0
H2350 H 0.12929 0.89572 0.67453 0.0
H2351 H 0.1305 0.92128 0.66215 0.0
C2352 C 0.64559 0.75174 0.8755 0.0
C2353 C 0.64754 0.74364 0.88951 0.0
C2354 C 0.63727 0.76574 0.87527 0.0
C2355 C 0.62603 0.79772 0.90136 0.0
H2356 H 0.59785 0.80919 0.86806 0.0
C2357 C 0.6038 0.86035 0.89269 0.0
C2358 C 0.58826 0.86227 0.88812 0.0
C2359 C 0.61036 0.84551 0.89337 0.0
C2360 C 0.60558 0.80609 0.87752 0.0
H2361 H 0.64195 0.74315 0.91405 0.0
H2362 H 0.62731 0.76746 0.91369 0.0
H2363 H 0.61016 0.78357 0.86786 0.0
H2364 H 0.56697 0.8503 0.88198 0.0
H2365 H 0.57846 0.82429 0.88301 0.0
H2366 H 0.62139 0.82013 0.9111 0.0
C2367 C 0.63239 0.76328 0.90294 0.0
C2368 C 0.61275 0.79149 0.8773 0.0
C2369 C 0.64068 0.74936 0.90315 0.0
C2370 C 0.57915 0.84911 0.88495 0.0
C2371 C 0.58571 0.83426 0.8856 0.0
C2372 C 0.6189 0.81229 0.90156 0.0
C2373 C 0.63083 0.77178 0.88907 0.0
C2374 C 0.62305 0.78717 0.88923 0.0
C2375 C 0.60144 0.83233 0.88961 0.0
C2376 C 0.60864 0.81666 0.88962 0.0
H2377 H 0.65089 0.7475 0.86488 0.0
H2378 H 0.63635 0.77209 0.86443 0.0
H2379 H 0.63406 0.7948 0.91063 0.0
H2380 H 0.61102 0.87036 0.89522 0.0
H2381 H 0.62254 0.84441 0.89641 0.0
C2382 C -0.00088 0.09806 0.37566 0.0
C2383 C 0.99198 0.09704 0.36104 0.0
C2384 C 0.01333 0.1058 0.37726 0.0
C2385 C 0.03893 0.13449 0.35821 0.0
H2386 H 0.07173 0.11373 0.3812 0.0
C2387 C 0.10293 0.15503 0.35619 0.0
C2388 C 0.11118 0.15479 0.37027 0.0
C2389 C 0.08812 0.14835 0.35523 0.0
C2390 C 0.06265 0.11979 0.37491 0.0
H2391 H 0.99362 0.10343 0.33674 0.0
H2392 H 0.01847 0.11694 0.33948 0.0
H2393 H 0.046 0.10194 0.37977 0.0
H2394 H 0.11085 0.14644 0.39409 0.0
H2395 H 0.08492 0.13542 0.39263 0.0
H2396 H 0.05556 0.15237 0.35336 0.0
C2397 C 0.01313 0.11189 0.34972 0.0
C2398 C 0.04791 0.11303 0.37411 0.0
C2399 C -0.00099 0.10409 0.34812 0.0
C2400 C 0.10455 0.1474 0.38325 0.0
C2401 C 0.08978 0.14079 0.38232 0.0
C2402 C 0.05366 0.1413 0.35907 0.0
C2403 C 0.02052 0.11271 0.36427 0.0
C2404 C 0.03593 0.12027 0.3657 0.0
C2405 C 0.08137 0.14119 0.36831 0.0
C2406 C 0.0657 0.134 0.36739 0.0
H2407 H 0.99385 0.09262 0.38574 0.0
H2408 H 0.01872 0.10637 0.38864 0.0
H2409 H 0.02986 0.14041 0.35178 0.0
H2410 H 0.10787 0.16048 0.34596 0.0
H2411 H 0.08206 0.14861 0.34419 0.0
C2412 C 0.41038 0.64676 0.89402 0.0
C2413 C 0.41001 0.63864 0.87986 0.0
C2414 C 0.40408 0.66173 0.89507 0.0
C2415 C 0.39195 0.69532 0.87114 0.0
H2416 H 0.36488 0.70464 0.90598 0.0
C2417 C 0.35042 0.7482 0.87183 0.0
C2418 C 0.34861 0.75601 0.88601 0.0
C2419 C 0.359 0.73439 0.87117 0.0
C2420 C 0.37259 0.70233 0.89629 0.0
H2421 H 0.40183 0.63944 0.85599 0.0
H2422 H 0.39123 0.66552 0.85771 0.0
H2423 H 0.3783 0.67971 0.90498 0.0
H2424 H 0.35453 0.75605 0.91048 0.0
H2425 H 0.36966 0.73206 0.90937 0.0
H2426 H 0.38615 0.7179 0.86239 0.0
C2427 C 0.39681 0.66058 0.86787 0.0
C2428 C 0.38028 0.68804 0.89573 0.0
C2429 C 0.40303 0.64565 0.86685 0.0
C2430 C 0.35567 0.75006 0.89945 0.0
C2431 C 0.36426 0.73633 0.89881 0.0
C2432 C 0.38429 0.70964 0.87172 0.0
C2433 C 0.39724 0.66877 0.88198 0.0
C2434 C 0.38993 0.68434 0.88308 0.0
C2435 C 0.3659 0.72824 0.8847 0.0
C2436 C 0.37443 0.71325 0.88424 0.0
H2437 H 0.41556 0.64155 0.90426 0.0
H2438 H 0.40459 0.6678 0.9061 0.0
H2439 H 0.39947 0.69284 0.86133 0.0
H2440 H 0.34496 0.75262 0.86136 0.0
H2441 H 0.35989 0.72834 0.86016 0.0
C2442 C 0.89321 0.34168 0.35403 0.0
C2443 C 0.88502 0.34279 0.3681 0.0
C2444 C 0.90819 0.34792 0.35274 0.0
C2445 C 0.94172 0.36032 0.3765 0.0
H2446 H 0.95312 0.38403 0.33988 0.0
C2447 C 0.99719 0.39831 0.3732 0.0
C2448 C 0.00511 0.39862 0.35896 0.0
C2449 C 0.98294 0.39055 0.37444 0.0
C2450 C 0.95021 0.37725 0.35009 0.0
H2451 H 0.88554 0.35231 0.39146 0.0
H2452 H 0.91165 0.36295 0.3893 0.0
H2453 H 0.92737 0.3723 0.34149 0.0
H2454 H 0.00494 0.39078 0.33505 0.0
H2455 H 0.9802 0.37701 0.3372 0.0
H2456 H 0.96454 0.36532 0.38513 0.0
C2457 C 0.90677 0.35684 0.37943 0.0
C2458 C 0.93545 0.37054 0.35101 0.0
C2459 C 0.89183 0.35066 0.38069 0.0
C2460 C -0.00111 0.39075 0.34611 0.0
C2461 C 0.98472 0.38297 0.34734 0.0
C2462 C 0.9565 0.36699 0.37557 0.0
C2463 C 0.91516 0.35545 0.36548 0.0
C2464 C 0.93102 0.36208 0.36425 0.0
C2465 C 0.97645 0.38299 0.36144 0.0
C2466 C 0.96089 0.37559 0.36238 0.0
H2467 H 0.88814 0.33578 0.34412 0.0
H2468 H 0.91439 0.34665 0.34184 0.0
H2469 H 0.9387 0.35367 0.38677 0.0
H2470 H 0.00181 0.40443 0.3832 0.0
H2471 H 0.97679 0.3909 0.38543 0.0
C2472 C 0.60412 0.13844 0.60826 0.0
C2473 C 0.58829 0.13634 0.61155 0.0
C2474 C 0.61062 0.15332 0.60847 0.0
C2475 C 0.60089 0.19494 0.606 0.0
H2476 H 0.64115 0.20014 0.62574 0.0
C2477 C 0.63891 0.24917 0.5972 0.0
C2478 C 0.6474 0.25485 0.6099 0.0
C2479 C 0.63053 0.23536 0.59847 0.0
C2480 C 0.62982 0.19892 0.62037 0.0
H2481 H 0.56653 0.14805 0.61645 0.0
H2482 H 0.57791 0.17409 0.61715 0.0
H2483 H 0.62884 0.17459 0.6255 0.0
H2484 H 0.65368 0.25099 0.63395 0.0
H2485 H 0.63883 0.2267 0.63632 0.0
H2486 H 0.60186 0.21929 0.60092 0.0
C2487 C 0.58536 0.16427 0.61455 0.0
C2488 C 0.62287 0.18425 0.62003 0.0
C2489 C 0.57888 0.14937 0.61436 0.0
C2490 C 0.64713 0.24676 0.62405 0.0
C2491 C 0.63876 0.23287 0.62533 0.0
C2492 C 0.60786 0.20961 0.60631 0.0
C2493 C 0.60136 0.16636 0.61186 0.0
C2494 C 0.60842 0.18207 0.61269 0.0
C2495 C 0.63049 0.22696 0.61249 0.0
C2496 C 0.62248 0.21171 0.61333 0.0
H2497 H 0.61158 0.12854 0.60597 0.0
H2498 H 0.62292 0.1546 0.60602 0.0
H2499 H 0.58979 0.19362 0.6002 0.0
H2500 H 0.63898 0.25531 0.58619 0.0
H2501 H 0.62446 0.23103 0.58831 0.0
C2502 C 0.39165 0.14618 0.616 0.0
C2503 C 0.38495 0.15386 0.62877 0.0
C2504 C 0.40623 0.13919 0.6173 0.0
C2505 C 0.43368 0.12278 0.6455 0.0
H2506 H 0.46376 0.12887 0.61239 0.0
C2507 C 0.49692 0.10122 0.65049 0.0
C2508 C 0.50365 0.09458 0.6372 0.0
C2509 C 0.48254 0.10869 0.64956 0.0
C2510 C 0.45543 0.1269 0.62164 0.0
H2511 H 0.38786 0.1596 0.65313 0.0
H2512 H 0.41347 0.14728 0.65546 0.0
H2513 H 0.43841 0.1415 0.61083 0.0
H2514 H 0.50083 0.09034 0.61257 0.0
H2515 H 0.47549 0.1033 0.61086 0.0
H2516 H 0.4506 0.10803 0.65623 0.0
C2517 C 0.40747 0.14683 0.64439 0.0
C2518 C 0.44093 0.13417 0.62077 0.0
C2519 C 0.39286 0.1539 0.64306 0.0
C2520 C 0.49585 0.09553 0.62292 0.0
C2521 C 0.48141 0.10298 0.62197 0.0
C2522 C 0.44816 0.11545 0.64634 0.0
C2523 C 0.41435 0.13953 0.63146 0.0
C2524 C 0.42989 0.13215 0.63266 0.0
C2525 C 0.47458 0.10961 0.63531 0.0
C2526 C 0.45919 0.11741 0.63441 0.0
H2527 H 0.38554 0.14528 0.60505 0.0
H2528 H 0.41104 0.13329 0.60726 0.0
H2529 H 0.42532 0.12084 0.65473 0.0
H2530 H 0.50285 0.10069 0.66161 0.0
H2531 H 0.47775 0.11389 0.65999 0.0
C2532 C 0.35784 0.24988 0.59439 0.0
C2533 C 0.3505 0.24325 0.60737 0.0
C2534 C 0.36518 0.26426 0.59558 0.0
C2535 C 0.38194 0.29251 0.62282 0.0
H2536 H 0.37248 0.32193 0.5899 0.0
C2537 C 0.41455 0.35076 0.61578 0.0
C2538 C 0.40533 0.36392 0.61295 0.0
C2539 C 0.40802 0.3359 0.61524 0.0
C2540 C 0.37516 0.31388 0.59922 0.0
H2541 H 0.34547 0.24595 0.63187 0.0
H2542 H 0.35852 0.27131 0.63407 0.0
H2543 H 0.36095 0.29604 0.58932 0.0
H2544 H 0.38235 0.37201 0.60658 0.0
H2545 H 0.37088 0.34599 0.60549 0.0
H2546 H 0.39607 0.31046 0.63277 0.0
C2547 C 0.35858 0.26533 0.62299 0.0
C2548 C 0.36869 0.29901 0.59881 0.0
C2549 C 0.35116 0.25089 0.62176 0.0
C2550 C 0.38965 0.362 0.60887 0.0
C2551 C 0.38312 0.34713 0.60825 0.0
C2552 C 0.3885 0.30738 0.62318 0.0
C2553 C 0.36536 0.2723 0.6098 0.0
C2554 C 0.37207 0.28815 0.61056 0.0
C2555 C 0.3922 0.33395 0.61164 0.0
C2556 C 0.3852 0.3182 0.61135 0.0
H2557 H 0.35759 0.24406 0.58322 0.0
H2558 H 0.37057 0.26919 0.58531 0.0
H2559 H 0.38477 0.28434 0.63199 0.0
H2560 H 0.42682 0.35195 0.61837 0.0
H2561 H 0.41538 0.32593 0.61752 0.0
C2562 C 0.49912 0.39764 0.62234 0.0
C2563 C 0.49175 0.39855 0.63685 0.0
C2564 C 0.51325 0.38971 0.62085 0.0
C2565 C 0.53864 0.3609 0.64041 0.0
H2566 H 0.57155 0.38142 0.61737 0.0
C2567 C 0.6031 0.3417 0.64387 0.0
C2568 C 0.61139 0.34147 0.62981 0.0
C2569 C 0.58811 0.34804 0.64446 0.0
C2570 C 0.56243 0.37544 0.62369 0.0
H2571 H 0.49289 0.39172 0.66106 0.0
H2572 H 0.51761 0.37801 0.65856 0.0
H2573 H 0.54575 0.3931 0.61833 0.0
H2574 H 0.61092 0.34857 0.60559 0.0
H2575 H 0.58474 0.35908 0.60647 0.0
H2576 H 0.5554 0.3433 0.64588 0.0
C2577 C 0.51251 0.38323 0.64829 0.0
C2578 C 0.54764 0.38212 0.6242 0.0
C2579 C 0.49845 0.39117 0.64976 0.0
C2580 C 0.60461 0.34799 0.61645 0.0
C2581 C 0.58969 0.3543 0.61703 0.0
C2582 C 0.55344 0.35421 0.63989 0.0
C2583 C 0.52016 0.38255 0.63386 0.0
C2584 C 0.53561 0.37497 0.63263 0.0
C2585 C 0.58127 0.35442 0.63102 0.0
C2586 C 0.56551 0.36144 0.63157 0.0
H2587 H 0.49413 0.40335 0.61227 0.0
H2588 H 0.51881 0.38925 0.60955 0.0
H2589 H 0.52954 0.35503 0.64685 0.0
H2590 H 0.60817 0.33692 0.65436 0.0
H2591 H 0.582 0.34818 0.65547 0.0
C2592 C 0.90087 0.6424 0.74935 0.0
C2593 C 0.88796 0.64992 0.7428 0.0
C2594 C 0.89944 0.6343 0.76333 0.0
C2595 C 0.87557 0.6326 0.79858 0.0
H2596 H 0.89625 0.59299 0.80495 0.0
C2597 C 0.86692 0.59684 0.85438 0.0
C2598 C 0.88003 0.58957 0.86086 0.0
C2599 C 0.86767 0.60364 0.83969 0.0
C2600 C 0.89056 0.60412 0.80339 0.0
H2601 H 0.86344 0.65492 0.74544 0.0
H2602 H 0.8608 0.64058 0.76999 0.0
H2603 H 0.89753 0.6056 0.77952 0.0
H2604 H 0.90439 0.58419 0.85733 0.0
H2605 H 0.90583 0.59634 0.83159 0.0
H2606 H 0.86875 0.63126 0.82245 0.0
C2607 C 0.87206 0.64102 0.76435 0.0
C2608 C 0.89125 0.61131 0.78883 0.0
C2609 C 0.87351 0.6491 0.7503 0.0
C2610 C 0.89405 0.58955 0.85249 0.0
C2611 C 0.89483 0.59639 0.83774 0.0
C2612 C 0.87491 0.62543 0.81313 0.0
C2613 C 0.88505 0.63362 0.77105 0.0
C2614 C 0.88379 0.62565 0.78629 0.0
C2615 C 0.88163 0.60354 0.8312 0.0
C2616 C 0.88241 0.61112 0.81571 0.0
H2617 H 0.91213 0.6429 0.74368 0.0
H2618 H 0.90969 0.62889 0.76827 0.0
H2619 H 0.86995 0.64377 0.79705 0.0
H2620 H 0.85612 0.59765 0.86077 0.0
H2621 H 0.85728 0.60899 0.83497 0.0
C2622 C 0.8584 0.85469 0.38462 0.0
C2623 C 0.84252 0.85813 0.38321 0.0
C2624 C 0.86531 0.85377 0.3993 0.0
C2625 C 0.85979 0.86745 0.4395 0.0
H2626 H 0.89137 0.83673 0.44916 0.0
C2627 C 0.89792 0.87059 0.49488 0.0
C2628 C 0.9007 0.85649 0.50258 0.0
C2629 C 0.89058 0.87067 0.48036 0.0
C2630 C 0.88249 0.84533 0.44668 0.0
H2631 H 0.82107 0.86199 0.39583 0.0
H2632 H 0.8331 0.86043 0.42155 0.0
H2633 H 0.87865 0.83625 0.42382 0.0
H2634 H 0.89777 0.83151 0.50156 0.0
H2635 H 0.88489 0.83159 0.47627 0.0
H2636 H 0.86347 0.87638 0.46245 0.0
C2637 C 0.84034 0.85893 0.41134 0.0
C2638 C 0.87532 0.84514 0.43211 0.0
C2639 C 0.83346 0.85985 0.39666 0.0
C2640 C 0.8959 0.84251 0.4957 0.0
C2641 C 0.88858 0.84256 0.48123 0.0
C2642 C 0.86698 0.86765 0.45406 0.0
C2643 C 0.8564 0.85617 0.41282 0.0
C2644 C 0.86388 0.85619 0.42836 0.0
C2645 C 0.88592 0.85663 0.47335 0.0
C2646 C 0.87839 0.85657 0.45782 0.0
H2647 H 0.86559 0.85328 0.37435 0.0
H2648 H 0.87772 0.8517 0.40004 0.0
H2649 H 0.85116 0.87625 0.43689 0.0
H2650 H 0.90166 0.88149 0.49998 0.0
H2651 H 0.88882 0.88169 0.4745 0.0
C2652 C 0.12909 0.89877 0.85557 0.0
C2653 C 0.11676 0.90793 0.86111 0.0
C2654 C 0.12866 0.89254 0.84062 0.0
C2655 C 0.10931 0.89688 0.8025 0.0
H2656 H 0.12443 0.85488 0.79593 0.0
C2657 C 0.09655 0.86114 0.74732 0.0
C2658 C 0.10853 0.85184 0.74133 0.0
C2659 C 0.09859 0.86911 0.76129 0.0
C2660 C 0.12039 0.8667 0.79754 0.0
H2661 H 0.09397 0.91719 0.85567 0.0
H2662 H 0.093 0.90598 0.82952 0.0
H2663 H 0.12538 0.86618 0.82188 0.0
H2664 H 0.13209 0.84373 0.74473 0.0
H2665 H 0.13578 0.85775 0.76934 0.0
H2666 H 0.10402 0.89721 0.77816 0.0
C2667 C 0.10325 0.90403 0.83659 0.0
C2668 C 0.12091 0.87319 0.81241 0.0
C2669 C 0.10372 0.91033 0.85158 0.0
C2670 C 0.12275 0.85091 0.74921 0.0
C2671 C 0.12479 0.85882 0.76327 0.0
C2672 C 0.10873 0.89036 0.78763 0.0
C2673 C 0.11576 0.89512 0.83093 0.0
C2674 C 0.11532 0.88833 0.81507 0.0
C2675 C 0.11264 0.86783 0.76954 0.0
C2676 C 0.11419 0.87518 0.78503 0.0
H2677 H 0.13903 0.8962 0.86285 0.0
H2678 H 0.13852 0.88578 0.83662 0.0
H2679 H 0.10516 0.90867 0.80412 0.0
H2680 H 0.08548 0.86196 0.74135 0.0
H2681 H 0.08897 0.87582 0.7659 0.0
C2682 C 0.10691 0.65062 0.49723 0.0
C2683 C 0.09957 0.63764 0.50384 0.0
C2684 C 0.11514 0.64919 0.48333 0.0
C2685 C 0.11723 0.6252 0.44829 0.0
H2686 H 0.15662 0.64628 0.44181 0.0
C2687 C 0.15244 0.61718 0.39213 0.0
C2688 C 0.15944 0.63043 0.38561 0.0
C2689 C 0.14595 0.61774 0.40697 0.0
C2690 C 0.14555 0.64046 0.4434 0.0
H2691 H 0.09505 0.61302 0.50143 0.0
H2692 H 0.10958 0.6104 0.47699 0.0
H2693 H 0.14403 0.64746 0.46726 0.0
H2694 H 0.16471 0.65477 0.38927 0.0
H2695 H 0.15308 0.65587 0.41525 0.0
H2696 H 0.11856 0.61841 0.42442 0.0
C2697 C 0.10891 0.6217 0.48252 0.0
C2698 C 0.13838 0.6411 0.45797 0.0
C2699 C 0.10072 0.62314 0.4965 0.0
C2700 C 0.15957 0.64435 0.39413 0.0
C2701 C 0.15301 0.64493 0.40902 0.0
C2702 C 0.12437 0.62461 0.43372 0.0
C2703 C 0.11611 0.63475 0.47575 0.0
C2704 C 0.12412 0.63351 0.46054 0.0
C2705 C 0.14608 0.63162 0.41556 0.0
C2706 C 0.1386 0.63225 0.4311 0.0
H2707 H 0.10617 0.66191 0.50278 0.0
H2708 H 0.1204 0.65948 0.47831 0.0
H2709 H 0.10611 0.61948 0.44984 0.0
H2710 H 0.15152 0.60646 0.38565 0.0
H2711 H 0.14077 0.60727 0.41168 0.0
C2712 C 0.86755 0.40359 0.6447 0.0
C2713 C 0.88025 0.41147 0.63811 0.0
C2714 C 0.86858 0.39735 0.65963 0.0
C2715 C 0.89672 0.38238 0.68762 0.0
H2716 H 0.86245 0.38594 0.71679 0.0
C2717 C 0.90048 0.35686 0.74926 0.0
C2718 C 0.8873 0.34901 0.75478 0.0
C2719 C 0.89966 0.36572 0.73571 0.0
C2720 C 0.87205 0.38473 0.70872 0.0
H2721 H 0.90413 0.41865 0.64176 0.0
H2722 H 0.90599 0.40762 0.66796 0.0
H2723 H 0.86115 0.39945 0.69184 0.0
H2724 H 0.86293 0.34421 0.75082 0.0
H2725 H 0.86144 0.35957 0.72683 0.0
H2726 H 0.9075 0.3674 0.70427 0.0
C2727 C 0.89519 0.40642 0.66159 0.0
C2728 C 0.87133 0.3925 0.69447 0.0
C2729 C 0.89412 0.41275 0.64664 0.0
C2730 C 0.87319 0.35029 0.74673 0.0
C2731 C 0.87237 0.35911 0.73309 0.0
C2732 C 0.89742 0.37456 0.70183 0.0
C2733 C 0.88241 0.39866 0.66821 0.0
C2734 C 0.8836 0.39129 0.68374 0.0
C2735 C 0.88565 0.36681 0.72736 0.0
C2736 C 0.88505 0.37556 0.7125 0.0
H2737 H 0.85696 0.40172 0.63819 0.0
H2738 H 0.85868 0.39107 0.66427 0.0
H2739 H 0.90625 0.38104 0.67948 0.0
H2740 H 0.91144 0.35611 0.75545 0.0
H2741 H 0.91002 0.37172 0.73178 0.0
C2742 C 0.60236 0.84525 0.50215 0.0
C2743 C 0.59571 0.85838 0.49512 0.0
C2744 C 0.60958 0.84647 0.51662 0.0
C2745 C 0.60983 0.8702 0.55192 0.0
H2746 H 0.64897 0.84928 0.56016 0.0
C2747 C 0.64383 0.87926 0.60885 0.0
C2748 C 0.65136 0.86635 0.61545 0.0
C2749 C 0.63704 0.87822 0.59416 0.0
C2750 C 0.63794 0.85501 0.55811 0.0
H2751 H 0.59135 0.88304 0.49737 0.0
H2752 H 0.60409 0.8853 0.52283 0.0
H2753 H 0.63755 0.84801 0.53421 0.0
H2754 H 0.65704 0.84203 0.61226 0.0
H2755 H 0.64489 0.84007 0.58659 0.0
H2756 H 0.61008 0.87706 0.57583 0.0
C2757 C 0.60366 0.87404 0.51719 0.0
C2758 C 0.63144 0.85434 0.54324 0.0
C2759 C 0.5965 0.87281 0.50263 0.0
C2760 C 0.65148 0.8522 0.60733 0.0
C2761 C 0.64464 0.85114 0.5926 0.0
C2762 C 0.61629 0.87082 0.56681 0.0
C2763 C 0.6102 0.86085 0.52435 0.0
C2764 C 0.61732 0.86193 0.54 0.0
C2765 C 0.63744 0.86418 0.58582 0.0
C2766 C 0.63043 0.86325 0.57007 0.0
H2767 H 0.60186 0.834 0.49649 0.0
H2768 H 0.61436 0.83609 0.52192 0.0
H2769 H 0.59881 0.87594 0.54983 0.0
H2770 H 0.64299 0.89015 0.61508 0.0
H2771 H 0.63165 0.8885 0.58928 0.0
C2772 C 0.12227 0.14802 0.74988 0.0
C2773 C 0.10769 0.14983 0.75696 0.0
C2774 C 0.1235 0.14041 0.73557 0.0
C2775 C 0.1036 0.11239 0.71027 0.0
H2776 H 0.12751 0.13171 0.67726 0.0
C2777 C 0.10253 0.08961 0.647 0.0
C2778 C 0.11662 0.08986 0.63873 0.0
C2779 C 0.10143 0.09663 0.66163 0.0
C2780 C 0.12097 0.12602 0.68641 0.0
H2781 H 0.08305 0.14503 0.75506 0.0
H2782 H 0.08516 0.13165 0.73003 0.0
H2783 H 0.126 0.14423 0.70263 0.0
H2784 H 0.14033 0.09854 0.63897 0.0
H2785 H 0.13871 0.10994 0.66467 0.0
H2786 H 0.09873 0.09407 0.69416 0.0
C2787 C 0.09562 0.13607 0.73548 0.0
C2788 C 0.12009 0.13323 0.70092 0.0
C2789 C 0.09439 0.1438 0.7497 0.0
C2790 C 0.1295 0.09749 0.64527 0.0
C2791 C 0.12846 0.10438 0.65991 0.0
C2792 C 0.10459 0.1051 0.69579 0.0
C2793 C 0.11017 0.13436 0.72824 0.0
C2794 C 0.11137 0.12651 0.71298 0.0
C2795 C 0.1144 0.10411 0.66825 0.0
C2796 C 0.11328 0.11183 0.68367 0.0
H2797 H 0.13265 0.15261 0.75535 0.0
H2798 H 0.13487 0.13914 0.73028 0.0
H2799 H 0.09692 0.10689 0.71943 0.0
H2800 H 0.09234 0.084 0.64214 0.0
H2801 H 0.09035 0.09644 0.66762 0.0
C2802 C 0.32906 0.63441 0.59994 0.0
C2803 C 0.33798 0.63678 0.6134 0.0
C2804 C 0.336 0.63517 0.58527 0.0
C2805 C 0.37058 0.64983 0.56447 0.0
H2806 H 0.36033 0.6176 0.53459 0.0
C2807 C 0.39256 0.65218 0.50152 0.0
C2808 C 0.3983 0.63832 0.49512 0.0
C2809 C 0.3846 0.65202 0.51564 0.0
C2810 C 0.36337 0.62661 0.54285 0.0
H2811 H 0.36086 0.64253 0.62221 0.0
H2812 H 0.37306 0.64386 0.59657 0.0
H2813 H 0.34765 0.61776 0.56001 0.0
H2814 H 0.40016 0.61342 0.49811 0.0
H2815 H 0.38618 0.61304 0.52302 0.0
H2816 H 0.38654 0.6585 0.54749 0.0
C2817 C 0.36072 0.64141 0.5973 0.0
C2818 C 0.35598 0.62682 0.55733 0.0
C2819 C 0.35377 0.64065 0.61196 0.0
C2820 C 0.3957 0.62421 0.50285 0.0
C2821 C 0.38771 0.62403 0.51704 0.0
C2822 C 0.37794 0.64964 0.55001 0.0
C2823 C 0.35196 0.63843 0.5838 0.0
C2824 C 0.35953 0.63842 0.5683 0.0
C2825 C 0.38224 0.63798 0.52366 0.0
C2826 C 0.37441 0.63804 0.53903 0.0
H2827 H 0.31673 0.63198 0.60076 0.0
H2828 H 0.32886 0.6332 0.57507 0.0
H2829 H 0.37348 0.65898 0.57263 0.0
H2830 H 0.39431 0.66318 0.49562 0.0
H2831 H 0.38028 0.66291 0.52027 0.0
C2832 C 0.84789 0.89406 0.58194 0.0
C2833 C 0.85916 0.88364 0.58744 0.0
C2834 C 0.8329 0.89401 0.58831 0.0
C2835 C 0.8065 0.86925 0.61223 0.0
H2836 H 0.7837 0.90775 0.61791 0.0
C2837 C 0.75383 0.87645 0.6534 0.0
C2838 C 0.741 0.88454 0.64746 0.0
C2839 C 0.76754 0.87543 0.64474 0.0
C2840 C 0.78989 0.8969 0.61623 0.0
H2841 H 0.86411 0.86573 0.60445 0.0
H2842 H 0.83825 0.86595 0.61591 0.0
H2843 H 0.80931 0.90831 0.60567 0.0
H2844 H 0.73203 0.89772 0.62799 0.0
H2845 H 0.75618 0.89615 0.61282 0.0
H2846 H 0.78726 0.85799 0.62341 0.0
C2847 C 0.84061 0.87369 0.60625 0.0
C2848 C 0.80454 0.89719 0.60917 0.0
C2849 C 0.85546 0.87361 0.59976 0.0
C2850 C 0.74184 0.89133 0.63266 0.0
C2851 C 0.75562 0.89053 0.62409 0.0
C2852 C 0.79197 0.869 0.61948 0.0
C2853 C 0.82904 0.88371 0.60047 0.0
C2854 C 0.8131 0.88339 0.60723 0.0
C2855 C 0.76864 0.88272 0.63014 0.0
C2856 C 0.7836 0.88283 0.62164 0.0
H2857 H 0.85055 0.90191 0.57245 0.0
H2858 H 0.82427 0.90182 0.58348 0.0
H2859 H 0.81257 0.85834 0.6106 0.0
H2860 H 0.75335 0.87127 0.66488 0.0
H2861 H 0.77747 0.86945 0.64969 0.0
C2862 C 0.85556 0.12559 0.89798 0.0
C2863 C 0.86185 0.11318 0.90653 0.0
C2864 C 0.84072 0.1245 0.89156 0.0
C2865 C 0.81145 0.09663 0.87829 0.0
H2866 H 0.78346 0.13187 0.88192 0.0
C2867 C 0.74859 0.09393 0.85567 0.0
C2868 C 0.74319 0.10696 0.84748 0.0
C2869 C 0.76251 0.09464 0.86396 0.0
C2870 C 0.79119 0.122 0.88069 0.0
H2871 H 0.85793 0.08959 0.91443 0.0
H2872 H 0.83182 0.08759 0.90309 0.0
H2873 H 0.809 0.13286 0.89427 0.0
H2874 H 0.74769 0.13098 0.8416 0.0
H2875 H 0.77226 0.1323 0.85601 0.0
H2876 H 0.7938 0.08587 0.86448 0.0
C2877 C 0.83837 0.09824 0.90152 0.0
C2878 C 0.80579 0.12255 0.88778 0.0
C2879 C 0.85326 0.09938 0.90802 0.0
C2880 C 0.75167 0.12085 0.84796 0.0
C2881 C 0.76566 0.12158 0.85622 0.0
C2882 C 0.79687 0.0961 0.87115 0.0
C2883 C 0.8319 0.11088 0.89338 0.0
C2884 C 0.81611 0.10992 0.88654 0.0
C2885 C 0.77133 0.1084 0.86416 0.0
C2886 C 0.78661 0.10882 0.87218 0.0
H2887 H 0.86218 0.1361 0.89599 0.0
H2888 H 0.83623 0.13425 0.88496 0.0
H2889 H 0.81924 0.08682 0.87697 0.0
H2890 H 0.7421 0.08313 0.85551 0.0
H2891 H 0.76638 0.08439 0.87018 0.0
C2892 C 0.37139 0.99385 0.40253 0.0
C2893 C 0.35722 0.00188 0.40319 0.0
C2894 C 0.37207 0.97909 0.39575 0.0
C2895 C 0.36694 0.94437 0.39018 0.0
H2896 H 0.34689 0.93675 0.35048 0.0
C2897 C 0.37664 0.88797 0.35568 0.0
C2898 C 0.3641 0.88166 0.34733 0.0
C2899 C 0.3753 0.90243 0.36286 0.0
C2900 C 0.35234 0.93862 0.36168 0.0
H2901 H 0.33275 0.00118 0.39731 0.0
H2902 H 0.33391 0.97539 0.38536 0.0
H2903 H 0.34586 0.96267 0.36199 0.0
H2904 H 0.34005 0.88505 0.34068 0.0
H2905 H 0.33755 0.91035 0.35352 0.0
H2906 H 0.37329 0.92033 0.39002 0.0
C2907 C 0.34449 0.98045 0.38999 0.0
C2908 C 0.35181 0.95348 0.36823 0.0
C2909 C 0.34379 0.99511 0.39687 0.0
C2910 C 0.34995 0.88978 0.34687 0.0
C2911 C 0.34858 0.90429 0.35411 0.0
C2912 C 0.36738 0.92949 0.3837 0.0
C2913 C 0.35861 0.97224 0.38944 0.0
C2914 C 0.35918 0.95651 0.38249 0.0
C2915 C 0.36131 0.91084 0.36207 0.0
C2916 C 0.36018 0.92647 0.36932 0.0
H2917 H 0.38184 -0.00109 0.40744 0.0
H2918 H 0.38313 0.97305 0.39537 0.0
H2919 H 0.3725 0.94633 0.40132 0.0
H2920 H 0.3875 0.8817 0.35678 0.0
H2921 H 0.38536 0.90713 0.36881 0.0
C2922 C 0.14442 0.39391 0.90656 0.0
C2923 C 0.13579 0.38007 0.90598 0.0
C2924 C 0.15932 0.3946 0.90003 0.0
C2925 C 0.18453 0.37465 0.87135 0.0
H2926 H 0.21762 0.39714 0.89217 0.0
C2927 C 0.24814 0.37302 0.84984 0.0
C2928 C 0.2554 0.38757 0.84872 0.0
C2929 C 0.23391 0.37158 0.85759 0.0
C2930 C 0.20846 0.39087 0.88621 0.0
H2931 H 0.13559 0.35641 0.89719 0.0
H2932 H 0.16167 0.35735 0.88652 0.0
H2933 H 0.19186 0.39588 0.90407 0.0
H2934 H 0.25397 0.41191 0.85496 0.0
H2935 H 0.2291 0.40945 0.86854 0.0
H2936 H 0.20116 0.36961 0.85353 0.0
C2937 C 0.15703 0.3677 0.892 0.0
C2938 C 0.1937 0.39021 0.89298 0.0
C2939 C 0.14216 0.36706 0.89844 0.0
C2940 C 0.24849 0.40058 0.85571 0.0
C2941 C 0.23435 0.39915 0.86354 0.0
C2942 C 0.1993 0.37524 0.86464 0.0
C2943 C 0.1658 0.38147 0.8927 0.0
C2944 C 0.18154 0.38214 0.8856 0.0
C2945 C 0.22683 0.38467 0.86442 0.0
C2946 C 0.21139 0.38342 0.87196 0.0
H2947 H 0.13969 0.40418 0.91212 0.0
H2948 H 0.16565 0.40548 0.90052 0.0
H2949 H 0.17537 0.36857 0.86521 0.0
H2950 H 0.25333 0.36287 0.84446 0.0
H2951 H 0.22841 0.36026 0.85821 0.0
C2952 C 0.15366 0.00197 0.89947 0.0
C2953 C 0.13971 0.99409 0.90267 0.0
C2954 C 0.15345 0.01635 0.892 0.0
C2955 C 0.1328 0.0401 0.86476 0.0
H2956 H 0.15107 0.07551 0.88599 0.0
C2957 C 0.14512 0.09996 0.83578 0.0
C2958 C 0.13738 0.1122 0.84326 0.0
C2959 C 0.14596 0.08533 0.84286 0.0
C2960 C 0.14601 0.06568 0.87995 0.0
H2961 H 0.11462 0.99491 0.90051 0.0
H2962 H 0.1143 0.01996 0.8867 0.0
H2963 H 0.15094 0.04995 0.89866 0.0
H2964 H 0.12483 0.1192 0.86393 0.0
H2965 H 0.12682 0.09376 0.87663 0.0
H2966 H 0.12814 0.05581 0.84592 0.0
C2967 C 0.12534 0.01497 0.89017 0.0
C2968 C 0.14593 0.05114 0.88715 0.0
C2969 C 0.12553 0.00069 0.89798 0.0
C2970 C 0.13091 0.10986 0.85805 0.0
C2971 C 0.13205 0.09538 0.86527 0.0
C2972 C 0.13318 0.05459 0.8574 0.0
C2973 C 0.13931 0.02295 0.88729 0.0
C2974 C 0.13923 0.03828 0.87965 0.0
C2975 C 0.13936 0.08296 0.85763 0.0
C2976 C 0.13971 0.06749 0.865 0.0
H2977 H 0.16477 0.99699 0.90272 0.0
H2978 H 0.16435 0.02227 0.88976 0.0
H2979 H 0.12766 0.03027 0.85877 0.0
H2980 H 0.15004 0.10158 0.82429 0.0
H2981 H 0.15169 0.07587 0.83683 0.0
C2982 C 0.74406 0.09243 0.15112 0.0
C2983 C 0.7514 0.10642 0.15527 0.0
C2984 C 0.72999 0.09261 0.14303 0.0
C2985 C 0.70784 0.11553 0.11571 0.0
H2986 H 0.67189 0.0924 0.13018 0.0
C2987 C 0.64759 0.12412 0.08852 0.0
C2988 C 0.63716 0.11158 0.08795 0.0
C2989 C 0.66175 0.12272 0.09626 0.0
C2990 C 0.68189 0.09869 0.1258 0.0
H2991 H 0.74972 0.13153 0.15465 0.0
H2992 H 0.72528 0.13188 0.13989 0.0
H2993 H 0.69606 0.09166 0.1451 0.0
H2994 H 0.63382 0.08735 0.09393 0.0
H2995 H 0.65895 0.08463 0.10706 0.0
H2996 H 0.69404 0.12223 0.0962 0.0
C2997 C 0.73044 0.1208 0.14297 0.0
C2998 C 0.69567 0.09834 0.13442 0.0
C2999 C 0.74439 0.12061 0.15133 0.0
C3000 C 0.64155 0.09728 0.09448 0.0
C3001 C 0.65587 0.09579 0.1021 0.0
C3002 C 0.69418 0.11567 0.10695 0.0
C3003 C 0.72317 0.10679 0.13873 0.0
C3004 C 0.70867 0.10692 0.12954 0.0
C3005 C 0.66605 0.10858 0.10326 0.0
C3006 C 0.68095 0.10744 0.112 0.0
H3007 H 0.74934 0.08133 0.15388 0.0
H3008 H 0.72465 0.08167 0.13978 0.0
H3009 H 0.71784 0.12201 0.11159 0.0
H3010 H 0.64484 0.1351 0.08301 0.0
H3011 H 0.66917 0.13287 0.09698 0.0
C3012 C 0.38257 0.10548 0.14425 0.0
C3013 C 0.36964 0.11191 0.15188 0.0
C3014 C 0.38177 0.09067 0.13773 0.0
C3015 C 0.35923 0.05417 0.13925 0.0
H3016 H 0.37943 0.04616 0.09969 0.0
C3017 C 0.34843 -0.00113 0.10312 0.0
C3018 C 0.36135 0.99181 0.0961 0.0
C3019 C 0.34999 0.01315 0.11063 0.0
C3020 C 0.37392 0.04818 0.11084 0.0
H3021 H 0.34549 0.10824 0.15805 0.0
H3022 H 0.34392 0.08235 0.14633 0.0
H3023 H 0.38056 0.07213 0.11098 0.0
H3024 H 0.38598 0.99379 0.09139 0.0
H3025 H 0.3888 0.01896 0.10461 0.0
H3026 H 0.35236 0.03024 0.13891 0.0
C3027 C 0.35485 0.0886 0.14581 0.0
C3028 C 0.37454 0.06305 0.11731 0.0
C3029 C 0.35569 0.10345 0.1524 0.0
C3030 C 0.37592 -0.00092 0.09682 0.0
C3031 C 0.37747 0.01346 0.10426 0.0
C3032 C 0.35854 0.03932 0.13273 0.0
C3033 C 0.36793 0.08202 0.13848 0.0
C3034 C 0.36719 0.06622 0.13158 0.0
C3035 C 0.36448 0.02066 0.11116 0.0
C3036 C 0.36583 0.03619 0.11844 0.0
H3037 H 0.3933 0.11195 0.1431 0.0
H3038 H 0.39207 0.08594 0.13222 0.0
H3039 H 0.35368 0.05616 0.15038 0.0
H3040 H 0.33709 0.99339 0.10267 0.0
H3041 H 0.33975 0.0185 0.11567 0.0
C3042 C 0.61858 0.39091 0.14803 0.0
C3043 C 0.63143 0.38481 0.15606 0.0
C3044 C 0.61913 0.40583 0.14171 0.0
C3045 C 0.64026 0.44307 0.14439 0.0
H3046 H 0.62195 0.45049 0.10381 0.0
C3047 C 0.6514 0.49863 0.10872 0.0
C3048 C 0.63886 0.50509 0.10052 0.0
C3049 C 0.64973 0.48447 0.11642 0.0
C3050 C 0.62691 0.44865 0.11525 0.0
H3051 H 0.65517 0.38919 0.1632 0.0
H3052 H 0.6563 0.41531 0.1519 0.0
H3053 H 0.62106 0.42449 0.11504 0.0
H3054 H 0.61474 0.50218 0.094 0.0
H3055 H 0.6117 0.47725 0.1076 0.0
H3056 H 0.64631 0.46723 0.14444 0.0
C3057 C 0.64562 0.40869 0.15088 0.0
C3058 C 0.62643 0.43375 0.12168 0.0
C3059 C 0.64504 0.39373 0.15723 0.0
C3060 C 0.62451 0.49737 0.10035 0.0
C3061 C 0.62284 0.48311 0.10801 0.0
C3062 C 0.64078 0.45797 0.13793 0.0
C3063 C 0.63263 0.41492 0.14309 0.0
C3064 C 0.63314 0.43078 0.1363 0.0
C3065 C 0.6355 0.47645 0.11599 0.0
C3066 C 0.63417 0.46089 0.12326 0.0
H3067 H 0.60813 0.3841 0.14638 0.0
H3068 H 0.60891 0.41028 0.13584 0.0
H3069 H 0.6453 0.44122 0.15579 0.0
H3070 H 0.66257 0.50446 0.10896 0.0
H3071 H 0.65974 0.47956 0.1223 0.0
C3072 C 0.29486 0.08021 0.41365 0.0
C3073 C 0.30983 0.08146 0.40719 0.0
C3074 C 0.28278 0.08973 0.40842 0.0
C3075 C 0.27644 0.12761 0.38956 0.0
H3076 H 0.23342 0.11404 0.38963 0.0
C3077 C 0.20954 0.15316 0.38177 0.0
C3078 C 0.21092 0.16626 0.39147 0.0
C3079 C 0.22209 0.14295 0.37988 0.0
C3080 C 0.24538 0.11799 0.38925 0.0
H3081 H 0.32366 0.09341 0.38976 0.0
H3082 H 0.30252 0.10974 0.38041 0.0
H3083 H 0.25412 0.09501 0.39318 0.0
H3084 H 0.22687 0.17941 0.40597 0.0
H3085 H 0.24854 0.16164 0.40281 0.0
H3086 H 0.2677 0.15059 0.38571 0.0
C3087 C 0.30019 0.10157 0.38972 0.0
C3088 C 0.25724 0.1071 0.39151 0.0
C3089 C 0.3123 0.0921 0.39501 0.0
C3090 C 0.22536 0.1694 0.39847 0.0
C3091 C 0.23786 0.15924 0.39656 0.0
C3092 C 0.26459 0.13848 0.38724 0.0
C3093 C 0.28535 0.10069 0.39654 0.0
C3094 C 0.27289 0.11184 0.39211 0.0
C3095 C 0.23626 0.14567 0.38758 0.0
C3096 C 0.2489 0.13387 0.38751 0.0
H3097 H 0.29253 0.07214 0.42305 0.0
H3098 H 0.27157 0.08888 0.41411 0.0
H3099 H 0.28834 0.13171 0.39005 0.0
H3100 H 0.1986 0.15042 0.37616 0.0
H3101 H 0.22056 0.13271 0.3727 0.0
C3102 C 0.32501 0.45374 0.84062 0.0
C3103 C 0.33122 0.43865 0.8407 0.0
C3104 C 0.33369 0.46625 0.84635 0.0
C3105 C 0.37054 0.47594 0.86793 0.0
H3106 H 0.36657 0.51476 0.84532 0.0
C3107 C 0.41821 0.52269 0.85902 0.0
C3108 C 0.41381 0.53831 0.86103 0.0
C3109 C 0.40728 0.51079 0.86074 0.0
C3110 C 0.36762 0.50407 0.85191 0.0
H3111 H 0.35128 0.42473 0.84699 0.0
H3112 H 0.36674 0.4465 0.8561 0.0
H3113 H 0.34887 0.49351 0.83963 0.0
H3114 H 0.39476 0.55366 0.86722 0.0
H3115 H 0.37554 0.53281 0.86973 0.0
H3116 H 0.39019 0.4864 0.87928 0.0
C3117 C 0.35498 0.44877 0.85222 0.0
C3118 C 0.35742 0.49185 0.84872 0.0
C3119 C 0.34616 0.43624 0.84684 0.0
C3120 C 0.39851 0.54173 0.86568 0.0
C3121 C 0.3875 0.52984 0.86706 0.0
C3122 C 0.38097 0.48808 0.87085 0.0
C3123 C 0.34894 0.464 0.85193 0.0
C3124 C 0.35887 0.4775 0.8565 0.0
C3125 C 0.39172 0.51434 0.86419 0.0
C3126 C 0.37969 0.50216 0.86272 0.0
H3127 H 0.31342 0.4559 0.83615 0.0
H3128 H 0.32843 0.47769 0.84628 0.0
H3129 H 0.37182 0.46526 0.87447 0.0
H3130 H 0.42994 0.51973 0.85546 0.0
H3131 H 0.41077 0.49891 0.85838 0.0
C3132 C 0.70172 0.41642 0.40983 0.0
C3133 C 0.68622 0.41419 0.40514 0.0
C3134 C 0.7135 0.40669 0.40431 0.0
C3135 C 0.71902 0.36726 0.38869 0.0
H3136 H 0.76159 0.38146 0.38425 0.0
C3137 C 0.78603 0.34229 0.37998 0.0
C3138 C 0.78537 0.33025 0.39105 0.0
C3139 C 0.77316 0.35195 0.37753 0.0
C3140 C 0.74974 0.37729 0.38512 0.0
H3141 H 0.67106 0.40028 0.3905 0.0
H3142 H 0.69167 0.38361 0.38056 0.0
H3143 H 0.74077 0.4004 0.38721 0.0
H3144 H 0.77034 0.31836 0.40751 0.0
H3145 H 0.74817 0.33526 0.40347 0.0
H3146 H 0.72799 0.34415 0.38662 0.0
C3147 C 0.69467 0.3927 0.38874 0.0
C3148 C 0.73781 0.38816 0.38705 0.0
C3149 C 0.68287 0.40235 0.39436 0.0
C3150 C 0.77131 0.32755 0.39894 0.0
C3151 C 0.7585 0.3372 0.39652 0.0
C3152 C 0.73093 0.3564 0.38664 0.0
C3153 C 0.71009 0.39457 0.39387 0.0
C3154 C 0.72238 0.38325 0.38938 0.0
C3155 C 0.75938 0.34976 0.38608 0.0
C3156 C 0.74649 0.36126 0.38537 0.0
H3157 H 0.70474 0.42542 0.41812 0.0
H3158 H 0.72518 0.40834 0.40873 0.0
H3159 H 0.7073 0.36302 0.39052 0.0
H3160 H 0.79666 0.34462 0.37362 0.0
H3161 H 0.77414 0.36138 0.36923 0.0
C3162 C 0.67297 0.04385 0.84288 0.0
C3163 C 0.66674 0.05882 0.84104 0.0
C3164 C 0.66406 0.032 0.84954 0.0
C3165 C 0.62616 0.02428 0.87009 0.0
H3166 H 0.63133 0.98353 0.85151 0.0
C3167 C 0.57898 0.97695 0.86246 0.0
C3168 C 0.5833 0.96145 0.86539 0.0
C3169 C 0.58977 0.98896 0.86424 0.0
C3170 C 0.62993 0.99478 0.85701 0.0
H3171 H 0.64645 0.07326 0.84494 0.0
H3172 H 0.63058 0.05248 0.85562 0.0
H3173 H 0.6493 0.0042 0.84479 0.0
H3174 H 0.60195 0.94651 0.87352 0.0
H3175 H 0.62093 0.96752 0.87618 0.0
H3176 H 0.6059 0.01486 0.8813 0.0
C3177 C 0.6425 0.04988 0.85254 0.0
C3178 C 0.64029 0.00668 0.85323 0.0
C3179 C 0.65156 0.06181 0.84625 0.0
C3180 C 0.59827 0.95834 0.8712 0.0
C3181 C 0.60915 0.97032 0.87267 0.0
C3182 C 0.61558 0.01243 0.87359 0.0
C3183 C 0.64856 0.03473 0.85412 0.0
C3184 C 0.63842 0.0217 0.8595 0.0
C3185 C 0.60512 0.98564 0.86871 0.0
C3186 C 0.61729 0.99764 0.86692 0.0
H3187 H 0.68475 0.04129 0.83919 0.0
H3188 H 0.66933 0.02065 0.85093 0.0
H3189 H 0.62452 0.03554 0.87547 0.0
H3190 H 0.5675 0.9797 0.85804 0.0
H3191 H 0.58643 0.00069 0.86103 0.0
C3192 C 0.20772 0.84756 0.11635 0.0
C3193 C 0.21087 0.8325 0.1108 0.0
C3194 C 0.21972 0.85841 0.11786 0.0
C3195 C 0.26146 0.86475 0.12073 0.0
H3196 H 0.25544 0.89779 0.09063 0.0
C3197 C 0.31279 0.90022 0.09661 0.0
C3198 C 0.31022 0.91525 0.09078 0.0
C3199 C 0.3004 0.89131 0.10215 0.0
C3200 C 0.25727 0.88898 0.09942 0.0
H3201 H 0.22913 0.81658 0.10375 0.0
H3202 H 0.25018 0.83548 0.10688 0.0
H3203 H 0.2343 0.87992 0.09617 0.0
H3204 H 0.29289 0.93316 0.08704 0.0
H3205 H 0.27136 0.918 0.09749 0.0
H3206 H 0.28434 0.87382 0.12423 0.0
C3207 C 0.23841 0.83888 0.10984 0.0
C3208 C 0.24512 0.87868 0.10252 0.0
C3209 C 0.22637 0.82812 0.10799 0.0
C3210 C 0.29514 0.92149 0.09125 0.0
C3211 C 0.28279 0.91273 0.09716 0.0
C3212 C 0.27353 0.8753 0.11793 0.0
C3213 C 0.23508 0.85425 0.11423 0.0
C3214 C 0.24724 0.86629 0.1129 0.0
C3215 C 0.28517 0.89735 0.10234 0.0
C3216 C 0.27176 0.88731 0.1069 0.0
H3217 H 0.19588 0.85128 0.11854 0.0
H3218 H 0.21694 0.87022 0.12125 0.0
H3219 H 0.2633 0.85527 0.12883 0.0
H3220 H 0.32431 0.8951 0.09634 0.0
H3221 H 0.30275 0.87947 0.10572 0.0
C3222 C 0.17033 0.45081 0.15084 0.0
C3223 C 0.16407 0.43581 0.1522 0.0
C3224 C 0.16133 0.46298 0.14492 0.0
C3225 C 0.12283 0.4719 0.12602 0.0
H3226 H 0.12906 0.51169 0.1463 0.0
C3227 C 0.07667 0.51992 0.13669 0.0
C3228 C 0.0812 0.53535 0.13372 0.0
C3229 C 0.08718 0.50771 0.13452 0.0
C3230 C 0.12734 0.50071 0.14035 0.0
H3231 H 0.14366 0.42161 0.14813 0.0
H3232 H 0.12762 0.44291 0.13874 0.0
H3233 H 0.14696 0.49053 0.15149 0.0
H3234 H 0.09995 0.55 0.12528 0.0
H3235 H 0.11845 0.52865 0.12198 0.0
H3236 H 0.10235 0.48207 0.1159 0.0
C3237 C 0.13963 0.44533 0.14163 0.0
C3238 C 0.13766 0.48854 0.14324 0.0
C3239 C 0.14878 0.43308 0.14716 0.0
C3240 C 0.09611 0.53823 0.12763 0.0
C3241 C 0.10671 0.52606 0.12578 0.0
C3242 C 0.11228 0.48402 0.12342 0.0
C3243 C 0.14569 0.46052 0.14065 0.0
C3244 C 0.13547 0.47387 0.13629 0.0
C3245 C 0.10246 0.51077 0.12963 0.0
C3246 C 0.11439 0.49846 0.1307 0.0
H3247 H 0.18219 0.45316 0.15441 0.0
H3248 H 0.16663 0.47435 0.14392 0.0
H3249 H 0.1209 0.46093 0.12015 0.0
H3250 H 0.06524 0.51735 0.14132 0.0
H3251 H 0.0837 0.49601 0.13766 0.0
C3252 C 0.68598 0.59393 0.10536 0.0
C3253 C 0.68948 0.5823 0.0944 0.0
C3254 C 0.69764 0.60375 0.111 0.0
C3255 C 0.74074 0.60943 0.11203 0.0
H3256 H 0.72955 0.65307 0.114 0.0
C3257 C 0.772 0.67148 0.10128 0.0
C3258 C 0.78645 0.66882 0.10846 0.0
C3259 C 0.75954 0.66142 0.10382 0.0
C3260 C 0.73289 0.64093 0.11353 0.0
H3261 H 0.70812 0.57163 0.08111 0.0
H3262 H 0.72827 0.58904 0.0905 0.0
H3263 H 0.7094 0.6337 0.10993 0.0
H3264 H 0.79876 0.65411 0.12489 0.0
H3265 H 0.77683 0.63667 0.12955 0.0
H3266 H 0.76436 0.61678 0.11449 0.0
C3267 C 0.71661 0.59037 0.09507 0.0
C3268 C 0.72128 0.62977 0.11139 0.0
C3269 C 0.70499 0.58044 0.08956 0.0
C3270 C 0.78782 0.65644 0.11907 0.0
C3271 C 0.77529 0.64637 0.12166 0.0
C3272 C 0.75237 0.62062 0.11401 0.0
C3273 C 0.71304 0.60232 0.10568 0.0
C3274 C 0.72511 0.6139 0.11017 0.0
C3275 C 0.76114 0.64848 0.11369 0.0
C3276 C 0.74862 0.63654 0.11432 0.0
H3277 H 0.67418 0.59572 0.10933 0.0
H3278 H 0.6945 0.61265 0.11934 0.0
H3279 H 0.74408 0.5973 0.11147 0.0
H3280 H 0.77048 0.68093 0.09308 0.0
H3281 H 0.74892 0.66335 0.09732 0.0
C3282 C 0.91916 0.97737 0.1451 0.0
C3283 C 0.91593 0.96275 0.13854 0.0
C3284 C 0.90862 0.9896 0.1436 0.0
C3285 C 0.88654 0.01559 0.13546 0.0
H3286 H 0.84391 0.00394 0.14457 0.0
C3287 C 0.83984 0.06214 0.14607 0.0
C3288 C 0.82996 0.05962 0.15886 0.0
C3289 C 0.84912 0.05016 0.14026 0.0
C3290 C 0.85576 0.00739 0.14202 0.0
H3291 H 0.89956 0.94985 0.12431 0.0
H3292 H 0.88116 0.97134 0.12156 0.0
H3293 H 0.86325 0.98377 0.13976 0.0
H3294 H 0.82181 0.0423 0.17532 0.0
H3295 H 0.83836 0.02151 0.16551 0.0
H3296 H 0.87934 0.03913 0.13866 0.0
C3297 C 0.89177 0.97321 0.12808 0.0
C3298 C 0.86681 0.99583 0.13903 0.0
C3299 C 0.90238 0.96095 0.12956 0.0
C3300 C 0.82928 0.04467 0.16545 0.0
C3301 C 0.83869 0.0327 0.15973 0.0
C3302 C 0.87553 0.02713 0.13851 0.0
C3303 C 0.89457 0.98753 0.13548 0.0
C3304 C 0.88241 -0.0002 0.13612 0.0
C3305 C 0.84891 0.03538 0.14722 0.0
C3306 C 0.86009 0.02316 0.1422 0.0
H3307 H 0.92953 0.9792 0.15203 0.0
H3308 H 0.9111 0.0004 0.14957 0.0
H3309 H 0.89842 0.01904 0.13305 0.0
H3310 H 0.84071 0.07348 0.14071 0.0
H3311 H 0.85666 0.05258 0.13046 0.0
C3312 C 0.38591 0.21008 0.15 0.0
C3313 C 0.38934 0.21155 0.16589 0.0
C3314 C 0.38467 0.22329 0.14061 0.0
C3315 C 0.39771 0.2645 0.14053 0.0
H3316 H 0.37633 0.2651 0.1008 0.0
C3317 C 0.40008 0.31685 0.09876 0.0
C3318 C 0.40717 0.31306 0.08451 0.0
C3319 C 0.3949 0.30514 0.10875 0.0
C3320 C 0.38227 0.26507 0.11191 0.0
H3321 H 0.39275 0.22786 0.18476 0.0
H3322 H 0.3895 0.25095 0.16866 0.0
H3323 H 0.37153 0.2438 0.11901 0.0
H3324 H 0.41361 0.29409 0.06917 0.0
H3325 H 0.40415 0.27359 0.08657 0.0
H3326 H 0.40818 0.28596 0.13343 0.0
C3327 C 0.38859 0.23966 0.16318 0.0
C3328 C 0.37964 0.25284 0.12233 0.0
C3329 C 0.39028 0.22644 0.17248 0.0
C3330 C 0.40829 0.29735 0.08012 0.0
C3331 C 0.4028 0.28564 0.08999 0.0
C3332 C 0.40003 0.27687 0.13029 0.0
C3333 C 0.38646 0.23828 0.14699 0.0
C3334 C 0.3876 0.25219 0.13665 0.0
C3335 C 0.39639 0.28946 0.10452 0.0
C3336 C 0.39258 0.27709 0.11579 0.0
H3337 H 0.38524 0.19871 0.14461 0.0
H3338 H 0.3832 0.22161 0.12822 0.0
H3339 H 0.4044 0.26436 0.15119 0.0
H3340 H 0.39905 0.32884 0.10248 0.0
H3341 H 0.38998 0.30831 0.11991 0.0
C3342 C 0.54573 0.34113 0.17267 0.0
C3343 C 0.56081 0.34047 0.16647 0.0
C3344 C 0.53354 0.3475 0.16399 0.0
C3345 C 0.525 0.36943 0.12703 0.0
H3346 H 0.48512 0.34876 0.13103 0.0
C3347 C 0.47775 0.36138 0.07957 0.0
C3348 C 0.46231 0.36451 0.08395 0.0
C3349 C 0.48982 0.36291 0.09035 0.0
C3350 C 0.49613 0.3548 0.12996 0.0
H3351 H 0.57508 0.3461 0.14646 0.0
H3352 H 0.55381 0.35627 0.13097 0.0
H3353 H 0.50601 0.34217 0.14884 0.0
H3354 H 0.4475 0.37258 0.10274 0.0
H3355 H 0.4686 0.37473 0.1217 0.0
H3356 H 0.51518 0.38107 0.10721 0.0
C3357 C 0.55132 0.35251 0.14272 0.0
C3358 C 0.50814 0.35111 0.14023 0.0
C3359 C 0.56355 0.34651 0.15156 0.0
C3360 C 0.45929 0.37015 0.099 0.0
C3361 C 0.47131 0.37134 0.10987 0.0
C3362 C 0.51306 0.37283 0.11651 0.0
C3363 C 0.53609 0.35298 0.14874 0.0
C3364 C 0.52285 0.35817 0.13878 0.0
C3365 C 0.48657 0.36729 0.10574 0.0
C3366 C 0.49861 0.36539 0.11781 0.0
H3367 H 0.54335 0.33674 0.18425 0.0
H3368 H 0.52211 0.34799 0.16923 0.0
H3369 H 0.53599 0.37543 0.12574 0.0
H3370 H 0.48041 0.35705 0.06803 0.0
H3371 H 0.50151 0.35963 0.08696 0.0
C3372 C 0.59286 0.20139 0.07374 0.0
C3373 C 0.59252 0.18621 0.07972 0.0
C3374 C 0.59848 0.21367 0.08281 0.0
C3375 C 0.61884 0.22243 0.12059 0.0
H3376 H 0.59722 0.26177 0.11626 0.0
C3377 C 0.60946 0.26941 0.16817 0.0
C3378 C 0.61246 0.28489 0.16385 0.0
C3379 C 0.61102 0.25741 0.15732 0.0
C3380 C 0.60351 0.2509 0.11744 0.0
H3381 H 0.59771 0.17193 0.09981 0.0
H3382 H 0.60667 0.19328 0.1159 0.0
H3383 H 0.59171 0.24083 0.09814 0.0
H3384 H 0.62024 0.29985 0.14505 0.0
H3385 H 0.62248 0.27886 0.12599 0.0
H3386 H 0.62969 0.23243 0.14076 0.0
C3387 C 0.60329 0.19579 0.10403 0.0
C3388 C 0.60044 0.23888 0.10699 0.0
C3389 C 0.59804 0.18349 0.09483 0.0
C3390 C 0.61791 0.28803 0.14875 0.0
C3391 C 0.61914 0.27607 0.13782 0.0
C3392 C 0.62162 0.23437 0.13128 0.0
C3393 C 0.60347 0.2111 0.09822 0.0
C3394 C 0.60789 0.22437 0.10852 0.0
C3395 C 0.61532 0.26074 0.14193 0.0
C3396 C 0.61385 0.24864 0.12985 0.0
H3397 H 0.5888 0.20377 0.06205 0.0
H3398 H 0.59876 0.22519 0.07773 0.0
H3399 H 0.62512 0.2116 0.12197 0.0
H3400 H 0.60527 0.26666 0.17974 0.0
H3401 H 0.60793 0.24567 0.1607 0.0
C3402 C 0.45602 0.15439 0.17126 0.0
C3403 C 0.44093 0.15509 0.16507 0.0
C3404 C 0.46824 0.14823 0.16248 0.0
C3405 C 0.47688 0.12671 0.12536 0.0
H3406 H 0.51658 0.14773 0.12927 0.0
C3407 C 0.52314 0.13501 0.07724 0.0
C3408 C 0.53881 0.13284 0.08138 0.0
C3409 C 0.51138 0.13318 0.0883 0.0
C3410 C 0.50564 0.14156 0.12823 0.0
H3411 H 0.42673 0.14976 0.14493 0.0
H3412 H 0.44806 0.1399 0.12931 0.0
H3413 H 0.49573 0.15396 0.14725 0.0
H3414 H 0.55438 0.1261 0.10008 0.0
H3415 H 0.53378 0.12337 0.11953 0.0
H3416 H 0.4867 0.11526 0.10544 0.0
C3417 C 0.4505 0.14349 0.14113 0.0
C3418 C 0.49365 0.14507 0.13859 0.0
C3419 C 0.43824 0.14932 0.15003 0.0
C3420 C 0.5424 0.12779 0.09653 0.0
C3421 C 0.53066 0.12629 0.10767 0.0
C3422 C 0.4888 0.12347 0.11477 0.0
C3423 C 0.46573 0.14297 0.14716 0.0
C3424 C 0.47898 0.13792 0.13715 0.0
C3425 C 0.51512 0.12943 0.10375 0.0
C3426 C 0.50319 0.13104 0.11601 0.0
H3427 H 0.45837 0.15856 0.18292 0.0
H3428 H 0.47968 0.1477 0.16772 0.0
H3429 H 0.46592 0.12064 0.12407 0.0
H3430 H 0.52004 0.13886 0.06564 0.0
H3431 H 0.49948 0.13575 0.08504 0.0
C3432 C 0.41527 0.70133 0.41892 0.0
C3433 C 0.40803 0.68672 0.4176 0.0
C3434 C 0.41113 0.7135 0.40901 0.0
C3435 C 0.3814 0.72825 0.38209 0.0
H3436 H 0.41671 0.74676 0.36094 0.0
C3437 C 0.38066 0.78449 0.34386 0.0
C3438 C 0.38999 0.78409 0.3304 0.0
C3439 C 0.38031 0.77175 0.354 0.0
C3440 C 0.40673 0.74164 0.36669 0.0
H3441 H 0.39023 0.67375 0.40525 0.0
H3442 H 0.38289 0.69512 0.38809 0.0
H3443 H 0.42107 0.727 0.38075 0.0
H3444 H 0.40501 0.76946 0.3163 0.0
H3445 H 0.40438 0.74739 0.33398 0.0
H3446 H 0.36709 0.74311 0.36795 0.0
C3447 C 0.39177 0.69707 0.39682 0.0
C3448 C 0.40923 0.73047 0.37815 0.0
C3449 C 0.39603 0.68482 0.40663 0.0
C3450 C 0.39789 0.77027 0.32667 0.0
C3451 C 0.39758 0.75762 0.3368 0.0
C3452 C 0.37889 0.73965 0.37072 0.0
C3453 C 0.39956 0.71139 0.39767 0.0
C3454 C 0.39662 0.72363 0.38593 0.0
C3455 C 0.3893 0.75848 0.35085 0.0
C3456 C 0.39156 0.74633 0.36283 0.0
H3457 H 0.42449 0.70325 0.42729 0.0
H3458 H 0.4172 0.7245 0.41 0.0
H3459 H 0.37149 0.72314 0.38796 0.0
H3460 H 0.37438 0.79493 0.34704 0.0
H3461 H 0.37382 0.77267 0.36477 0.0
C3462 C 0.93321 0.34636 0.84632 0.0
C3463 C 0.93582 0.34093 0.83115 0.0
C3464 C 0.94553 0.35205 0.85526 0.0
C3465 C 0.98876 0.35049 0.85715 0.0
H3466 H 0.98241 0.37946 0.89115 0.0
C3467 C 0.03853 0.36759 0.8981 0.0
C3468 C 0.03545 0.36245 0.91332 0.0
C3469 C 0.02644 0.36898 0.88732 0.0
C3470 C 0.98433 0.37148 0.88159 0.0
H3471 H 0.95312 0.33806 0.81304 0.0
H3472 H 0.97446 0.34875 0.82825 0.0
H3473 H 0.96121 0.37436 0.87291 0.0
H3474 H 0.01724 0.35609 0.92958 0.0
H3475 H 0.99607 0.35897 0.91081 0.0
H3476 H 0.01193 0.34779 0.86583 0.0
C3477 C 0.96309 0.34799 0.8336 0.0
C3478 C 0.97217 0.3684 0.87122 0.0
C3479 C 0.95083 0.34194 0.82481 0.0
C3480 C 0.01994 0.36 0.91791 0.0
C3481 C 0.00784 0.36171 0.90721 0.0
C3482 C 0.00097 0.35384 0.86729 0.0
C3483 C 0.96071 0.35279 0.84909 0.0
C3484 C 0.97409 0.35755 0.85908 0.0
C3485 C 0.01106 0.36563 0.89169 0.0
C3486 C 0.99876 0.36408 0.87979 0.0
H3487 H 0.92174 0.34568 0.85151 0.0
H3488 H 0.94319 0.35534 0.86718 0.0
H3489 H 0.9907 0.34183 0.84823 0.0
H3490 H 0.05036 0.3695 0.89422 0.0
H3491 H 0.02916 0.37204 0.8754 0.0
C3492 C 0.59682 0.8125 0.402 0.0
C3493 C 0.59109 0.80966 0.41702 0.0
C3494 C 0.60234 0.80027 0.39285 0.0
C3495 C 0.59992 0.75712 0.38998 0.0
H3496 H 0.62895 0.76376 0.35606 0.0
C3497 C 0.61717 0.70802 0.34824 0.0
C3498 C 0.6112 0.71108 0.33332 0.0
C3499 C 0.61873 0.72005 0.35906 0.0
C3500 C 0.62096 0.76176 0.3656 0.0
H3501 H 0.58752 0.79205 0.43467 0.0
H3502 H 0.598 0.77082 0.41913 0.0
H3503 H 0.62427 0.78459 0.37483 0.0
H3504 H 0.60351 0.72923 0.31757 0.0
H3505 H 0.60675 0.75032 0.3364 0.0
H3506 H 0.59688 0.73418 0.38079 0.0
C3507 C 0.59757 0.78232 0.41403 0.0
C3508 C 0.61811 0.77371 0.37627 0.0
C3509 C 0.59165 0.7945 0.42302 0.0
C3510 C 0.60809 0.72654 0.32901 0.0
C3511 C 0.60999 0.7386 0.33973 0.0
C3512 C 0.60308 0.74509 0.37956 0.0
C3513 C 0.60264 0.78494 0.39865 0.0
C3514 C 0.60721 0.7717 0.38839 0.0
C3515 C 0.61474 0.73534 0.35501 0.0
C3516 C 0.61334 0.74743 0.36711 0.0
H3517 H 0.59647 0.82409 0.39706 0.0
H3518 H 0.60583 0.80283 0.38103 0.0
H3519 H 0.59122 0.7551 0.39885 0.0
H3520 H 0.6196 0.69622 0.35193 0.0
H3521 H 0.6224 0.71731 0.37081 0.0
C3522 C 0.96078 0.1267 0.90694 0.0
C3523 C 0.96137 0.13691 0.91971 0.0
C3524 C 0.97366 0.12502 0.89712 0.0
C3525 C 0.0158 0.13446 0.89311 0.0
H3526 H 0.00558 0.13935 0.84944 0.0
C3527 C 0.04557 0.16135 0.83471 0.0
C3528 C 0.06075 0.15542 0.83614 0.0
C3529 C 0.03362 0.15584 0.84426 0.0
C3530 C 0.00863 0.13798 0.86159 0.0
H3531 H 0.97636 0.15239 0.93286 0.0
H3532 H 0.99863 0.14958 0.91578 0.0
H3533 H 0.98486 0.13495 0.86827 0.0
H3534 H 0.07505 0.13867 0.84843 0.0
H3535 H 0.05421 0.12888 0.86483 0.0
H3536 H 0.03946 0.13839 0.88657 0.0
C3537 C 0.9883 0.14281 0.91331 0.0
C3538 C 0.99678 0.13523 0.87236 0.0
C3539 C 0.97545 0.14451 0.92307 0.0
C3540 C 0.06356 0.14352 0.84701 0.0
C3541 C 0.0516 0.13797 0.85651 0.0
C3542 C 0.02765 0.13725 0.88235 0.0
C3543 C 0.9874 0.13345 0.89994 0.0
C3544 C 0.00018 0.13383 0.8883 0.0
C3545 C 0.03654 0.14424 0.85542 0.0
C3546 C 0.02416 0.13943 0.86651 0.0
H3547 H 0.95013 0.12061 0.90404 0.0
H3548 H 0.9727 0.11753 0.88704 0.0
H3549 H 0.01883 0.13325 0.90528 0.0
H3550 H 0.04296 0.17052 0.82647 0.0
H3551 H 0.02221 0.16109 0.84324 0.0
C3552 C 0.09732 0.40071 0.31214 0.0
C3553 C 0.08185 0.40515 0.30941 0.0
C3554 C 0.10657 0.39517 0.29999 0.0
C3555 C 0.10823 0.39559 0.25674 0.0
H3556 H 0.14427 0.36934 0.26374 0.0
C3557 C 0.14963 0.37902 0.20718 0.0
C3558 C 0.16445 0.3855 0.20963 0.0
C3559 C 0.13919 0.3775 0.21954 0.0
C3560 C 0.13415 0.37656 0.26165 0.0
H3561 H 0.06355 0.40632 0.29213 0.0
H3562 H 0.07933 0.39581 0.2711 0.0
H3563 H 0.12578 0.37377 0.2849 0.0
H3564 H 0.18044 0.39419 0.2271 0.0
H3565 H 0.16227 0.39111 0.24879 0.0
H3566 H 0.11657 0.39814 0.23342 0.0
C3567 C 0.08466 0.39728 0.28241 0.0
C3568 C 0.12362 0.37926 0.27377 0.0
C3569 C 0.07554 0.40321 0.29448 0.0
C3570 C 0.16907 0.38924 0.22486 0.0
C3571 C 0.15873 0.38741 0.23727 0.0
C3572 C 0.11853 0.39259 0.24457 0.0
C3573 C 0.10044 0.39358 0.28487 0.0
C3574 C 0.11071 0.38914 0.27159 0.0
C3575 C 0.14353 0.38208 0.2346 0.0
C3576 C 0.13173 0.38333 0.24701 0.0
H3577 H 0.10249 0.40212 0.32355 0.0
H3578 H 0.11868 0.39273 0.30239 0.0
H3579 H 0.0987 0.40353 0.25457 0.0
H3580 H 0.14572 0.37606 0.19557 0.0
H3581 H 0.12752 0.37334 0.21725 0.0
C3582 C 0.16845 0.61088 0.26942 0.0
C3583 C 0.16415 0.61312 0.28503 0.0
C3584 C 0.15745 0.6124 0.25756 0.0
C3585 C 0.1178 0.60321 0.25143 0.0
H3586 H 0.12143 0.62483 0.21203 0.0
C3587 C 0.07465 0.59047 0.20192 0.0
C3588 C 0.08063 0.59029 0.18674 0.0
C3589 C 0.08347 0.59652 0.21417 0.0
C3590 C 0.1203 0.61855 0.22288 0.0
H3591 H 0.14521 0.61962 0.3004 0.0
H3592 H 0.12586 0.6218 0.27963 0.0
H3593 H 0.14 0.63027 0.23285 0.0
H3594 H 0.10043 0.59642 0.17239 0.0
H3595 H 0.11616 0.60606 0.19374 0.0
H3596 H 0.09903 0.59055 0.24138 0.0
C3597 C 0.1378 0.61908 0.27663 0.0
C3598 C 0.13085 0.62183 0.23483 0.0
C3599 C 0.14888 0.61789 0.28847 0.0
C3600 C 0.09549 0.59647 0.18398 0.0
C3601 C 0.10447 0.60216 0.19627 0.0
C3602 C 0.1075 0.59965 0.2394 0.0
C3603 C 0.14191 0.61589 0.26115 0.0
C3604 C 0.12977 0.61405 0.24913 0.0
C3605 C 0.09865 0.60215 0.21159 0.0
C3606 C 0.10873 0.60709 0.22485 0.0
H3607 H 0.18015 0.60723 0.26645 0.0
H3608 H 0.16085 0.60981 0.2457 0.0
H3609 H 0.11691 0.59688 0.26229 0.0
H3610 H 0.06312 0.58598 0.20434 0.0
H3611 H 0.07837 0.59665 0.22569 0.0
C3612 C 0.8358 0.66633 0.04236 0.0
C3613 C 0.84276 0.66584 0.05714 0.0
C3614 C 0.84047 0.65605 0.03072 0.0
C3615 C 0.8708 0.63011 0.01654 0.0
H3616 H 0.83617 0.60584 0.00079 0.0
C3617 C 0.86929 0.59165 0.96034 0.0
C3618 C 0.86101 0.57758 0.96164 0.0
C3619 C 0.87045 0.6017 0.97312 0.0
C3620 C 0.84598 0.61244 0.00515 0.0
H3621 H 0.86079 0.6548 0.07098 0.0
H3622 H 0.86906 0.63689 0.05043 0.0
H3623 H 0.83149 0.6259 0.02021 0.0
H3624 H 0.84906 0.56224 0.97777 0.0
H3625 H 0.85106 0.57976 -0.00011 0.0
H3626 H 0.88522 0.61672 0.00106 0.0
C3627 C 0.85993 0.64522 0.04799 0.0
C3628 C 0.84327 0.624 0.01614 0.0
C3629 C 0.85512 0.6554 0.05975 0.0
C3630 C 0.85527 0.57311 0.97629 0.0
C3631 C 0.8564 0.58312 0.98897 0.0
C3632 C 0.87349 0.61864 0.00526 0.0
C3633 C 0.85233 0.64519 0.03354 0.0
C3634 C 0.85562 0.63297 0.02191 0.0
C3635 C 0.86335 0.59779 0.98732 0.0
C3636 C 0.86107 0.60967 -0.00045 0.0
H3637 H 0.82632 0.67427 0.0399 0.0
H3638 H 0.83453 0.6563 0.01961 0.0
H3639 H 0.88048 0.63692 0.02086 0.0
H3640 H 0.8739 0.5954 0.94923 0.0
H3641 H 0.87587 0.61296 0.97157 0.0
C3642 C 0.90414 0.89378 0.18403 0.0
C3643 C 0.91565 0.9048 0.18771 0.0
C3644 C 0.89442 0.88778 0.19559 0.0
C3645 C 0.88917 0.88531 0.23859 0.0
H3646 H 0.84533 0.88401 0.22801 0.0
C3647 C 0.82776 0.89477 0.27144 0.0
C3648 C 0.8305 0.8866 0.28534 0.0
C3649 C 0.83761 0.8929 0.25869 0.0
C3650 C 0.85753 0.88427 0.23115 0.0
H3651 H 0.92626 0.9178 0.20658 0.0
H3652 H 0.90908 0.9077 0.22662 0.0
H3653 H 0.86446 0.88881 0.20773 0.0
H3654 H 0.84514 0.86922 0.29634 0.0
H3655 H 0.86225 0.8658 0.27392 0.0
H3656 H 0.88214 0.8818 0.26218 0.0
C3657 C 0.90773 0.90342 0.21485 0.0
C3658 C 0.86854 0.88684 0.21948 0.0
C3659 C 0.91752 0.90933 0.20331 0.0
C3660 C 0.84276 0.87577 0.28584 0.0
C3661 C 0.85263 0.87389 0.27304 0.0
C3662 C 0.87814 0.88283 0.25028 0.0
C3663 C 0.89589 0.89276 0.2111 0.0
C3664 C 0.88447 0.88783 0.22313 0.0
C3665 C 0.85043 0.88277 0.25947 0.0
C3666 C 0.86216 0.88274 0.24676 0.0
H3667 H 0.90235 0.89003 0.17214 0.0
H3668 H 0.88557 0.87943 0.19233 0.0
H3669 H 0.90135 0.88572 0.24176 0.0
H3670 H 0.8184 0.90316 0.27059 0.0
H3671 H 0.83564 0.90007 0.24852 0.0
C3672 C 0.64239 0.41929 0.4764 0.0
C3673 C 0.63538 0.41628 0.46194 0.0
C3674 C 0.64036 0.40909 0.48884 0.0
C3675 C 0.63178 0.38806 0.51542 0.0
H3676 H 0.63639 0.34465 0.50416 0.0
C3677 C 0.64253 0.34171 0.56232 0.0
C3678 C 0.65398 0.33055 0.55889 0.0
C3679 C 0.63642 0.35118 0.55063 0.0
C3680 C 0.63514 0.35672 0.50752 0.0
H3681 H 0.61973 0.40078 0.4496 0.0
H3682 H 0.61596 0.38308 0.47151 0.0
H3683 H 0.63222 0.36397 0.48391 0.0
H3684 H 0.66775 0.32039 0.54033 0.0
H3685 H 0.65759 0.3373 0.52007 0.0
H3686 H 0.63584 0.38104 0.53887 0.0
C3687 C 0.62332 0.39318 0.47307 0.0
C3688 C 0.63248 0.3678 0.49591 0.0
C3689 C 0.62539 0.4034 0.46055 0.0
C3690 C 0.65892 0.32884 0.5434 0.0
C3691 C 0.65296 0.33847 0.53173 0.0
C3692 C 0.6346 0.37703 0.527 0.0
C3693 C 0.63119 0.39566 0.48721 0.0
C3694 C 0.63123 0.38367 0.49968 0.0
C3695 C 0.6418 0.34993 0.53524 0.0
C3696 C 0.63674 0.36126 0.52315 0.0
H3697 H 0.6501 0.42913 0.47793 0.0
H3698 H 0.64675 0.41133 0.49947 0.0
H3699 H 0.63059 0.40015 0.51877 0.0
H3700 H 0.63848 0.34341 0.57411 0.0
H3701 H 0.62766 0.35968 0.55374 0.0
C3702 C 0.40634 0.60515 0.81123 0.0
C3703 C 0.41674 0.59285 0.80834 0.0
C3704 C 0.39689 0.61098 0.79938 0.0
C3705 C 0.39046 0.61011 0.75647 0.0
H3706 H 0.34739 0.61671 0.76814 0.0
C3707 C 0.32734 0.60383 0.72639 0.0
C3708 C 0.33028 0.61048 0.71174 0.0
C3709 C 0.33777 0.6059 0.73864 0.0
C3710 C 0.35938 0.61497 0.76468 0.0
H3711 H 0.42565 0.57735 0.79052 0.0
H3712 H 0.40885 0.58718 0.76998 0.0
H3713 H 0.36668 0.61176 0.7882 0.0
H3714 H 0.34594 0.62548 0.69882 0.0
H3715 H 0.36411 0.62925 0.72035 0.0
H3716 H 0.38293 0.6123 0.73286 0.0
C3717 C 0.40822 0.59258 0.78134 0.0
C3718 C 0.3705 0.6123 0.77621 0.0
C3719 C 0.41778 0.58684 0.79317 0.0
C3720 C 0.34337 0.62013 0.70993 0.0
C3721 C 0.35384 0.62219 0.72223 0.0
C3722 C 0.37931 0.61269 0.74492 0.0
C3723 C 0.39747 0.60455 0.78436 0.0
C3724 C 0.38612 0.60942 0.77222 0.0
C3725 C 0.35139 0.61471 0.73658 0.0
C3726 C 0.36355 0.6147 0.74887 0.0
H3727 H 0.40519 0.61007 0.82276 0.0
H3728 H 0.38893 0.62037 0.80207 0.0
H3729 H 0.40243 0.60822 0.753 0.0
H3730 H 0.31733 0.5964 0.72824 0.0
H3731 H 0.33555 0.59983 0.74945 0.0
C3732 C 0.87105 0.40061 0.5413 0.0
C3733 C 0.8658 0.4156 0.53739 0.0
C3734 C 0.87315 0.38938 0.52973 0.0
C3735 C 0.87638 0.38201 0.48775 0.0
H3736 H 0.84692 0.34873 0.49535 0.0
C3737 C 0.84974 0.3463 0.43791 0.0
C3738 C 0.84425 0.3312 0.4408 0.0
C3739 C 0.85597 0.35523 0.44996 0.0
C3740 C 0.85554 0.35761 0.49307 0.0
H3741 H 0.86017 0.43105 0.51827 0.0
H3742 H 0.86419 0.41152 0.49805 0.0
H3743 H 0.85299 0.36693 0.51599 0.0
H3744 H 0.84185 0.3132 0.45828 0.0
H3745 H 0.85342 0.32845 0.47916 0.0
H3746 H 0.87899 0.37274 0.46482 0.0
C3747 C 0.8665 0.40842 0.51004 0.0
C3748 C 0.85897 0.3681 0.50496 0.0
C3749 C 0.86412 0.41956 0.52162 0.0
C3750 C 0.84576 0.32492 0.45579 0.0
C3751 C 0.85233 0.33372 0.46777 0.0
C3752 C 0.87321 0.3713 0.47592 0.0
C3753 C 0.87036 0.39307 0.51407 0.0
C3754 C 0.86908 0.38062 0.50228 0.0
C3755 C 0.85718 0.34915 0.46512 0.0
C3756 C 0.86236 0.35923 0.47826 0.0
H3757 H 0.87244 0.39719 0.55335 0.0
H3758 H 0.87619 0.37762 0.53308 0.0
H3759 H 0.88427 0.39156 0.48545 0.0
H3760 H 0.8487 0.35145 0.42646 0.0
H3761 H 0.85928 0.36711 0.44743 0.0
C3762 C 0.13295 0.07956 0.52305 0.0
C3763 C 0.13163 0.0835 0.53886 0.0
C3764 C 0.13081 0.09084 0.51155 0.0
C3765 C 0.13953 0.13092 0.50633 0.0
H3766 H 0.11812 0.1272 0.46683 0.0
C3767 C 0.15248 0.17402 0.45692 0.0
C3768 C 0.15329 0.16779 0.44186 0.0
C3769 C 0.14607 0.16535 0.46909 0.0
C3770 C 0.1243 0.12837 0.47774 0.0
H3771 H 0.12595 0.10207 0.55499 0.0
H3772 H 0.12262 0.12187 0.53485 0.0
H3773 H 0.1129 0.1084 0.48751 0.0
H3774 H 0.14777 0.14772 0.42762 0.0
H3775 H 0.13745 0.13229 0.44887 0.0
H3776 H 0.15188 0.14999 0.49644 0.0
C3777 C 0.12518 0.11002 0.53141 0.0
C3778 C 0.12116 0.11769 0.4896 0.0
C3779 C 0.12703 0.09866 0.5429 0.0
C3780 C 0.14727 0.15286 0.43912 0.0
C3781 C 0.14118 0.14405 0.45133 0.0
C3782 C 0.14292 0.14138 0.4944 0.0
C3783 C 0.12756 0.1063 0.51569 0.0
C3784 C 0.12895 0.11874 0.5039 0.0
C3785 C 0.14066 0.15009 0.46655 0.0
C3786 C 0.13559 0.14008 0.4798 0.0
H3787 H 0.13641 0.06794 0.51958 0.0
H3788 H 0.13278 0.08772 0.4995 0.0
H3789 H 0.14587 0.13183 0.51719 0.0
H3790 H 0.15682 0.18561 0.45932 0.0
H3791 H 0.14553 0.17058 0.48053 0.0
C3792 C 0.79384 0.57967 0.91114 0.0
C3793 C 0.80917 0.58092 0.9056 0.0
C3794 C 0.7822 0.58955 0.90555 0.0
C3795 C 0.75773 0.60781 0.8881 0.0
H3796 H 0.76937 0.65093 0.88195 0.0
C3797 C 0.71103 0.65461 0.87756 0.0
C3798 C 0.71278 0.66794 0.88688 0.0
C3799 C 0.7234 0.64416 0.87573 0.0
C3800 C 0.76591 0.63894 0.88361 0.0
H3801 H 0.82414 0.5933 0.88948 0.0
H3802 H 0.80378 0.61003 0.87929 0.0
H3803 H 0.78937 0.63175 0.88736 0.0
H3804 H 0.72924 0.6813 0.90061 0.0
H3805 H 0.75049 0.6631 0.8977 0.0
H3806 H 0.73415 0.61523 0.88545 0.0
C3807 C 0.80079 0.60169 0.88825 0.0
C3808 C 0.77742 0.62786 0.88652 0.0
C3809 C 0.81247 0.59196 0.89399 0.0
C3810 C 0.72742 0.67111 0.89342 0.0
C3811 C 0.73971 0.66068 0.89164 0.0
C3812 C 0.74619 0.61893 0.88535 0.0
C3813 C 0.78555 0.60081 0.89414 0.0
C3814 C 0.77346 0.6122 0.88919 0.0
C3815 C 0.73774 0.64683 0.88317 0.0
C3816 C 0.7501 0.63471 0.88349 0.0
H3817 H 0.79087 0.57134 0.92012 0.0
H3818 H 0.77068 0.58868 0.91058 0.0
H3819 H 0.75426 0.59582 0.88977 0.0
H3820 H 0.69993 0.65186 0.87227 0.0
H3821 H 0.72157 0.63375 0.86888 0.0
C3822 C 0.84868 0.93162 0.34927 0.0
C3823 C 0.83306 0.93424 0.34534 0.0
C3824 C 0.85792 0.94379 0.35482 0.0
C3825 C 0.85888 0.98703 0.35483 0.0
H3826 H 0.89593 0.98046 0.37973 0.0
C3827 C 0.90019 0.03722 0.3693 0.0
C3828 C 0.91502 0.03472 0.36288 0.0
C3829 C 0.88988 0.02481 0.37125 0.0
C3830 C 0.88553 0.98244 0.37289 0.0
H3831 H 0.81447 0.95125 0.34522 0.0
H3832 H 0.83023 0.97225 0.35574 0.0
H3833 H 0.87766 0.95902 0.37579 0.0
H3834 H 0.93117 0.01712 0.35472 0.0
H3835 H 0.91322 0.9954 0.35846 0.0
H3836 H 0.86675 0.01047 0.35208 0.0
C3837 C 0.83568 0.96106 0.35384 0.0
C3838 C 0.87512 0.97015 0.37048 0.0
C3839 C 0.82657 0.94899 0.34791 0.0
C3840 C 0.91978 0.01942 0.3596 0.0
C3841 C 0.90956 0.00698 0.36182 0.0
C3842 C 0.86908 -0.00066 0.35752 0.0
C3843 C 0.85162 0.95878 0.35691 0.0
C3844 C 0.86182 0.97219 0.3611 0.0
C3845 C 0.89434 0.00966 0.36711 0.0
C3846 C 0.88265 0.99708 0.36628 0.0
H3847 H 0.85397 0.92034 0.34736 0.0
H3848 H 0.87015 0.94154 0.3568 0.0
H3849 H 0.84904 0.98909 0.34725 0.0
H3850 H 0.89617 0.04888 0.37193 0.0
H3851 H 0.8782 0.02713 0.37539 0.0
C3852 C 0.28865 0.84899 0.87936 0.0
C3853 C 0.28578 0.83369 0.8844 0.0
C3854 C 0.27655 0.85981 0.87868 0.0
C3855 C 0.23496 0.86637 0.87701 0.0
H3856 H 0.24124 0.89732 0.9092 0.0
C3857 C 0.18389 0.90119 0.90259 0.0
C3858 C 0.18658 0.91592 0.90909 0.0
C3859 C 0.19624 0.89229 0.89696 0.0
C3860 C 0.23934 0.8891 0.89986 0.0
H3861 H 0.26784 0.81737 0.89134 0.0
H3862 H 0.24658 0.83624 0.8896 0.0
H3863 H 0.26226 0.87968 0.90246 0.0
H3864 H 0.20414 0.93326 0.91412 0.0
H3865 H 0.22565 0.91814 0.90352 0.0
H3866 H 0.21217 0.87585 0.8741 0.0
C3867 C 0.25824 0.83984 0.88643 0.0
C3868 C 0.25141 0.87893 0.89609 0.0
C3869 C 0.27039 0.82909 0.88746 0.0
C3870 C 0.20178 0.92183 0.90936 0.0
C3871 C 0.21412 0.91309 0.90336 0.0
C3872 C 0.22297 0.87681 0.8805 0.0
C3873 C 0.26134 0.8554 0.88262 0.0
C3874 C 0.2492 0.8673 0.88488 0.0
C3875 C 0.21157 0.89805 0.89733 0.0
C3876 C 0.22485 0.88808 0.89228 0.0
H3877 H 0.3004 0.85291 0.877 0.0
H3878 H 0.27916 0.87179 0.87573 0.0
H3879 H 0.23307 0.85747 0.86829 0.0
H3880 H 0.17227 0.89631 0.90231 0.0
H3881 H 0.19374 0.88069 0.89276 0.0
C3882 C 0.09411 0.46163 0.36877 0.0
C3883 C 0.08101 0.46283 0.35904 0.0
C3884 C 0.10437 0.47417 0.37036 0.0
C3885 C 0.12947 0.4969 0.36009 0.0
H3886 H 0.11613 0.5399 0.35764 0.0
C3887 C 0.16765 0.54504 0.33353 0.0
C3888 C 0.16637 0.5603 0.33926 0.0
C3889 C 0.15808 0.53323 0.33931 0.0
C3890 C 0.12014 0.528 0.3586 0.0
H3891 H 0.06782 0.47852 0.34428 0.0
H3892 H 0.08568 0.50015 0.34688 0.0
H3893 H 0.09712 0.51969 0.36306 0.0
H3894 H 0.1543 0.57494 0.35594 0.0
H3895 H 0.13804 0.5543 0.36631 0.0
H3896 H 0.1525 0.50522 0.3556 0.0
C3897 C 0.08806 0.48963 0.35339 0.0
C3898 C 0.10919 0.51638 0.36153 0.0
C3899 C 0.07784 0.47714 0.3518 0.0
C3900 C 0.15567 0.56333 0.35127 0.0
C3901 C 0.14621 0.55151 0.35713 0.0
C3902 C 0.14045 0.50854 0.35724 0.0
C3903 C 0.10169 0.48816 0.3623 0.0
C3904 C 0.11363 0.50065 0.36185 0.0
C3905 C 0.14708 0.53637 0.35103 0.0
C3906 C 0.13585 0.52419 0.35603 0.0
H3907 H 0.09686 0.45079 0.37458 0.0
H3908 H 0.11465 0.47275 0.37751 0.0
H3909 H 0.1333 0.4849 0.36015 0.0
H3910 H 0.17574 0.54228 0.32428 0.0
H3911 H 0.15893 0.52177 0.33416 0.0
C3912 C 0.81081 0.40734 0.60068 0.0
C3913 C 0.80929 0.41745 0.58789 0.0
C3914 C 0.79846 0.39773 0.60514 0.0
C3915 C 0.76583 0.37763 0.58781 0.0
H3916 H 0.75146 0.37043 0.63002 0.0
C3917 C 0.71081 0.3448 0.61619 0.0
C3918 C 0.71194 0.33067 0.608 0.0
C3919 C 0.72338 0.35517 0.61645 0.0
C3920 C 0.7554 0.37236 0.6182 0.0
H3921 H 0.79332 0.42584 0.57019 0.0
H3922 H 0.77193 0.40889 0.57785 0.0
H3923 H 0.77155 0.3902 0.625 0.0
H3924 H 0.72763 0.31569 0.59504 0.0
H3925 H 0.74938 0.33376 0.5955 0.0
H3926 H 0.74993 0.35982 0.58095 0.0
C3927 C 0.7827 0.40842 0.58439 0.0
C3928 C 0.76688 0.38359 0.61534 0.0
C3929 C 0.79496 0.41813 0.58003 0.0
C3930 C 0.72627 0.32657 0.60125 0.0
C3931 C 0.73873 0.33692 0.60146 0.0
C3932 C 0.7546 0.36632 0.59068 0.0
C3933 C 0.78443 0.39793 0.59679 0.0
C3934 C 0.77212 0.38635 0.60009 0.0
C3935 C 0.7372 0.35156 0.6085 0.0
C3936 C 0.74929 0.36354 0.60589 0.0
H3937 H 0.82166 0.40649 0.60698 0.0
H3938 H 0.80012 0.38966 0.61468 0.0
H3939 H 0.76978 0.3794 0.57597 0.0
H3940 H 0.69995 0.34828 0.62154 0.0
H3941 H 0.72194 0.3664 0.62197 0.0
C3942 C 0.65219 0.93595 0.65055 0.0
C3943 C 0.66737 0.93847 0.65603 0.0
C3944 C 0.64343 0.94825 0.64457 0.0
C3945 C 0.64163 0.99142 0.64523 0.0
H3946 H 0.60804 0.98439 0.61592 0.0
C3947 C 0.59979 0.04037 0.62758 0.0
C3948 C 0.58458 0.03692 0.63253 0.0
C3949 C 0.61089 0.02854 0.62631 0.0
C3950 C 0.61749 0.98651 0.62399 0.0
H3951 H 0.6856 0.95564 0.6588 0.0
H3952 H 0.67062 0.97699 0.6477 0.0
H3953 H 0.62644 0.96346 0.6215 0.0
H3954 H 0.56869 0.01833 0.63867 0.0
H3955 H 0.58798 0.99763 0.63597 0.0
H3956 H 0.63265 0.01452 0.64757 0.0
C3957 C 0.66519 0.96567 0.64856 0.0
C3958 C 0.62795 0.97451 0.62734 0.0
C3959 C 0.67384 0.95341 0.65486 0.0
C3960 C 0.58034 0.02132 0.63488 0.0
C3961 C 0.59135 0.00947 0.63329 0.0
C3962 C 0.63139 0.00349 0.64161 0.0
C3963 C 0.64974 0.96333 0.6436 0.0
C3964 C 0.63989 0.97664 0.63838 0.0
C3965 C 0.60684 0.01306 0.6296 0.0
C3966 C 0.619 0.00102 0.63128 0.0
H3967 H 0.64685 0.92456 0.65135 0.0
H3968 H 0.63151 0.94595 0.64121 0.0
H3969 H 0.65044 0.99353 0.65397 0.0
H3970 H 0.60342 0.05229 0.62575 0.0
H3971 H 0.62278 0.03155 0.62341 0.0
C3972 C 0.18672 0.0912 0.60098 0.0
C3973 C 0.1879 0.08017 0.58894 0.0
C3974 C 0.19937 0.10072 0.60473 0.0
C3975 C 0.23276 0.11821 0.58577 0.0
H3976 H 0.24648 0.12949 0.62727 0.0
C3977 C 0.28736 0.15358 0.61258 0.0
C3978 C 0.28661 0.16688 0.60304 0.0
C3979 C 0.27483 0.14317 0.61319 0.0
C3980 C 0.24275 0.12639 0.61564 0.0
H3981 H 0.20361 0.06993 0.57202 0.0
H3982 H 0.22556 0.08662 0.57849 0.0
H3983 H 0.22608 0.10971 0.62394 0.0
H3984 H 0.27161 0.1803 0.58775 0.0
H3985 H 0.24996 0.16217 0.58882 0.0
H3986 H 0.24919 0.13487 0.5774 0.0
C3987 C 0.21481 0.08796 0.58492 0.0
C3988 C 0.23108 0.11516 0.61374 0.0
C3989 C 0.20222 0.07839 0.58125 0.0
C3990 C 0.2727 0.17008 0.59505 0.0
C3991 C 0.26028 0.15968 0.59561 0.0
C3992 C 0.24421 0.12951 0.58767 0.0
C3993 C 0.21339 0.09947 0.59644 0.0
C3994 C 0.22602 0.11096 0.59876 0.0
C3995 C 0.26143 0.14587 0.60424 0.0
C3996 C 0.24927 0.13378 0.6026 0.0
H3997 H 0.17587 0.09289 0.60715 0.0
H3998 H 0.19795 0.10956 0.6136 0.0
H3999 H 0.22897 0.11534 0.57409 0.0
H4000 H 0.29788 0.1508 0.61893 0.0
H4001 H 0.27598 0.13259 0.61995 0.0
C4002 C 0.4047 0.46279 0.62571 0.0
C4003 C 0.41704 0.46365 0.63643 0.0
C4004 C 0.39485 0.47555 0.62343 0.0
C4005 C 0.3694 0.49849 0.63194 0.0
H4006 H 0.38289 0.54126 0.63663 0.0
C4007 C 0.33043 0.54548 0.65862 0.0
C4008 C 0.33181 0.56099 0.65365 0.0
C4009 C 0.34022 0.534 0.65265 0.0
C4010 C 0.37887 0.52943 0.63501 0.0
H4011 H 0.42933 0.47898 0.65229 0.0
H4012 H 0.41212 0.50097 0.64852 0.0
H4013 H 0.40209 0.52097 0.632 0.0
H4014 H 0.34416 0.57645 0.63796 0.0
H4015 H 0.36113 0.55632 0.62738 0.0
H4016 H 0.3462 0.50694 0.63507 0.0
C4017 C 0.41006 0.49055 0.64175 0.0
C4018 C 0.38991 0.51776 0.63254 0.0
C4019 C 0.4199 0.47785 0.64402 0.0
C4020 C 0.34285 0.56464 0.64213 0.0
C4021 C 0.35263 0.55311 0.63611 0.0
C4022 C 0.35836 0.51017 0.63434 0.0
C4023 C 0.39714 0.48942 0.63179 0.0
C4024 C 0.38536 0.50209 0.6315 0.0
C4025 C 0.3516 0.5377 0.64148 0.0
C4026 C 0.363 0.52571 0.63643 0.0
H4027 H 0.40223 0.45206 0.61958 0.0
H4028 H 0.38515 0.47438 0.61547 0.0
H4029 H 0.36545 0.48655 0.63129 0.0
H4030 H 0.32206 0.54224 0.66747 0.0
H4031 H 0.33925 0.52231 0.65725 0.0
C4032 C 0.88421 0.71143 0.65051 0.0
C4033 C 0.88709 0.7132 0.66647 0.0
C4034 C 0.88331 0.72446 0.64083 0.0
C4035 C 0.89662 0.76558 0.64051 0.0
H4036 H 0.8767 0.76572 0.60003 0.0
C4037 C 0.90027 0.81749 0.59821 0.0
C4038 C 0.90737 0.81361 0.58399 0.0
C4039 C 0.89508 0.80585 0.60828 0.0
C4040 C 0.88225 0.7658 0.61135 0.0
H4041 H 0.88978 0.72986 0.68515 0.0
H4042 H 0.88711 0.75265 0.66852 0.0
H4043 H 0.87114 0.74469 0.61835 0.0
H4044 H 0.91401 0.79454 0.56887 0.0
H4045 H 0.90456 0.77415 0.58642 0.0
H4046 H 0.90746 0.78688 0.6335 0.0
C4047 C 0.88639 0.74125 0.66322 0.0
C4048 C 0.87917 0.75373 0.62183 0.0
C4049 C 0.88773 0.72821 0.67282 0.0
C4050 C 0.90866 0.79786 0.57979 0.0
C4051 C 0.90317 0.78622 0.58974 0.0
C4052 C 0.89939 0.77778 0.63018 0.0
C4053 C 0.88491 0.73956 0.64698 0.0
C4054 C 0.88658 0.75328 0.63646 0.0
C4055 C 0.8966 0.79014 0.60417 0.0
C4056 C 0.89247 0.77784 0.61543 0.0
H4057 H 0.88379 0.69995 0.64531 0.0
H4058 H 0.88232 0.72256 0.62842 0.0
H4059 H 0.9029 0.76556 0.65142 0.0
H4060 H 0.89916 0.82952 0.60181 0.0
H4061 H 0.89006 0.8091 0.61937 0.0
C4062 C 0.05984 0.85028 0.65053 0.0
C4063 C 0.0569 0.84549 0.66587 0.0
C4064 C 0.04791 0.8565 0.64141 0.0
C4065 C 0.00471 0.8575 0.63938 0.0
H4066 H 0.01295 0.88472 0.60435 0.0
C4067 C 0.95637 0.87392 0.5967 0.0
C4068 C 0.95974 0.86803 0.58181 0.0
C4069 C 0.96825 0.87577 0.60766 0.0
C4070 C 0.01048 0.87726 0.6142 0.0
H4071 H 0.03946 0.84434 0.68403 0.0
H4072 H 0.01884 0.85591 0.66845 0.0
H4073 H 0.03365 0.87923 0.62304 0.0
H4074 H 0.97827 0.86096 0.56623 0.0
H4075 H -0.00095 0.86463 0.58526 0.0
H4076 H 0.98154 0.85563 0.6305 0.0
C4077 C 0.03014 0.85426 0.66315 0.0
C4078 C 0.02236 0.87395 0.62484 0.0
C4079 C 0.04199 0.8477 0.67215 0.0
C4080 C 0.97534 0.86546 0.57764 0.0
C4081 C 0.98723 0.86761 0.5885 0.0
C4082 C 0.9928 0.86108 0.62895 0.0
C4083 C 0.03282 0.85841 0.64752 0.0
C4084 C 0.01976 0.86365 0.63734 0.0
C4085 C 0.9837 0.87211 0.60379 0.0
C4086 C 0.99567 0.87066 0.61606 0.0
H4087 H 0.07122 0.84868 0.64536 0.0
H4088 H 0.05045 0.85925 0.62939 0.0
H4089 H 0.00222 0.8493 0.6486 0.0
H4090 H 0.94446 0.87595 0.60028 0.0
H4091 H 0.96528 0.87931 0.61938 0.0
C4092 C 0.11449 0.78499 0.65572 0.0
C4093 C 0.1043 0.78503 0.66855 0.0
C4094 C 0.11553 0.77192 0.64608 0.0
C4095 C 0.08995 0.74154 0.63264 0.0
H4096 H 0.12637 0.72261 0.61386 0.0
C4097 C 0.08442 0.70243 0.57953 0.0
C4098 C 0.09065 0.68742 0.58131 0.0
C4099 C 0.08843 0.71427 0.58984 0.0
C4100 C 0.11615 0.72782 0.61906 0.0
H4101 H 0.08837 0.77086 0.68211 0.0
H4102 H 0.09016 0.74821 0.66527 0.0
H4103 H 0.1296 0.74278 0.63393 0.0
H4104 H 0.10682 0.67338 0.59472 0.0
H4105 H 0.11391 0.69426 0.61272 0.0
H4106 H 0.07648 0.72692 0.61775 0.0
C4107 C 0.09715 0.75835 0.66256 0.0
C4108 C 0.11798 0.73933 0.63046 0.0
C4109 C 0.09615 0.77133 0.6722 0.0
C4110 C 0.10173 0.68478 0.59308 0.0
C4111 C 0.10586 0.69673 0.60334 0.0
C4112 C 0.08814 0.73029 0.62116 0.0
C4113 C 0.10637 0.75873 0.6491 0.0
C4114 C 0.10487 0.74622 0.63738 0.0
C4115 C 0.09886 0.71143 0.60207 0.0
C4116 C 0.10118 0.72335 0.61422 0.0
H4117 H 0.12101 0.79532 0.65263 0.0
H4118 H 0.12272 0.77249 0.63574 0.0
H4119 H 0.07965 0.74682 0.63762 0.0
H4120 H 0.07596 0.70493 0.57052 0.0
H4121 H 0.08303 0.72559 0.58852 0.0
C4122 C 0.03631 0.62731 0.5926 0.0
C4123 C 0.0348 0.63669 0.57928 0.0
C4124 C 0.02389 0.6257 0.603 0.0
C4125 C 0.00124 0.63596 0.62814 0.0
H4126 H 0.95808 0.63801 0.61525 0.0
C4127 C 0.95337 0.66228 0.6669 0.0
C4128 C 0.93808 0.65662 0.66566 0.0
C4129 C 0.96511 0.65656 0.6572 0.0
C4130 C 0.97003 0.63716 0.61916 0.0
H4131 H 0.01865 0.65075 0.56586 0.0
H4132 H 0.99725 0.64816 0.58398 0.0
H4133 H 0.97809 0.6324 0.59612 0.0
H4134 H 0.92333 0.6401 0.65356 0.0
H4135 H 0.94382 0.62975 0.63714 0.0
H4136 H 0.99315 0.64064 0.6512 0.0
C4137 C 0.00792 0.64192 0.58643 0.0
C4138 C 0.98154 0.63413 0.60811 0.0
C4139 C 0.02028 0.6435 0.57605 0.0
C4140 C 0.93494 0.64473 0.65488 0.0
C4141 C 0.9467 0.63888 0.64533 0.0
C4142 C 0.9897 0.63886 0.63922 0.0
C4143 C 0.00971 0.63341 0.60028 0.0
C4144 C 0.99733 0.63396 0.61237 0.0
C4145 C 0.96187 0.64493 0.64613 0.0
C4146 C 0.97399 0.63994 0.6348 0.0
H4147 H 0.04731 0.62182 0.5954 0.0
H4148 H 0.02555 0.61882 0.61343 0.0
H4149 H 0.01328 0.63603 0.63184 0.0
H4150 H 0.95621 0.67146 0.67504 0.0
H4151 H 0.97659 0.66168 0.65801 0.0
C4152 C 0.8805 0.28517 0.84504 0.0
C4153 C 0.88468 0.28364 0.82934 0.0
C4154 C 0.87901 0.27202 0.85446 0.0
C4155 C 0.89308 0.23125 0.85552 0.0
H4156 H 0.87022 0.23057 0.89441 0.0
C4157 C 0.89722 0.18033 0.8988 0.0
C4158 C 0.90305 0.185 0.91336 0.0
C4159 C 0.89172 0.19134 0.88822 0.0
C4160 C 0.87657 0.23061 0.88353 0.0
H4161 H 0.88908 0.26723 0.81075 0.0
H4162 H 0.88547 0.24421 0.82688 0.0
H4163 H 0.8653 0.25132 0.8756 0.0
H4164 H 0.90688 0.20476 0.92856 0.0
H4165 H 0.89693 0.22401 0.91009 0.0
H4166 H 0.90417 0.21043 0.86347 0.0
C4167 C 0.88414 0.25554 0.83221 0.0
C4168 C 0.87386 0.24253 0.87278 0.0
C4169 C 0.88605 0.26871 0.8229 0.0
C4170 C 0.90257 0.20083 0.91739 0.0
C4171 C 0.89678 0.21182 0.9069 0.0
C4172 C 0.8955 0.2192 0.8661 0.0
C4173 C 0.88131 0.25702 0.84829 0.0
C4174 C 0.88239 0.24324 0.85879 0.0
C4175 C 0.89162 0.20718 0.89212 0.0
C4176 C 0.88755 0.21898 0.88032 0.0
H4177 H 0.87946 0.29657 0.85032 0.0
H4178 H 0.87699 0.27376 0.86677 0.0
H4179 H 0.90018 0.23148 0.84512 0.0
H4180 H 0.89741 0.16821 0.89535 0.0
H4181 H 0.88778 0.18753 0.87687 0.0
C4182 C 0.4349 0.84775 0.34771 0.0
C4183 C 0.43763 0.84329 0.33225 0.0
C4184 C 0.44704 0.85339 0.35692 0.0
C4185 C 0.49025 0.85305 0.3587 0.0
H4186 H 0.48304 0.8796 0.39446 0.0
C4187 C 0.5394 0.86857 0.40101 0.0
C4188 C 0.53633 0.86253 0.4159 0.0
C4189 C 0.52735 0.87035 0.39024 0.0
C4190 C 0.4852 0.87231 0.38442 0.0
H4191 H 0.45492 0.84213 0.31395 0.0
H4192 H 0.47594 0.85272 0.32969 0.0
H4193 H 0.46204 0.87515 0.37582 0.0
H4194 H 0.51815 0.85491 0.43164 0.0
H4195 H 0.49705 0.85844 0.41291 0.0
H4196 H 0.51345 0.85037 0.36732 0.0
C4197 C 0.46462 0.85125 0.33501 0.0
C4198 C 0.47317 0.8696 0.37381 0.0
C4199 C 0.45255 0.84526 0.32592 0.0
C4200 C 0.52085 0.85952 0.42023 0.0
C4201 C 0.50878 0.8616 0.40955 0.0
C4202 C 0.50233 0.85604 0.36911 0.0
C4203 C 0.46215 0.85503 0.35077 0.0
C4204 C 0.4754 0.85958 0.36102 0.0
C4205 C 0.51202 0.86645 0.3943 0.0
C4206 C 0.49982 0.86539 0.38224 0.0
H4207 H 0.42351 0.84631 0.35292 0.0
H4208 H 0.44464 0.85588 0.36902 0.0
H4209 H 0.49245 0.84503 0.34925 0.0
H4210 H 0.55121 0.87095 0.39732 0.0
H4211 H 0.53009 0.87414 0.37854 0.0
C4212 C 0.09067 0.29456 0.92332 0.0
C4213 C 0.09049 0.30955 0.91688 0.0
C4214 C 0.097 0.28211 0.91501 0.0
C4215 C 0.1197 0.27246 0.87879 0.0
H4216 H 0.09795 0.23317 0.88283 0.0
C4217 C 0.11184 0.22513 0.83157 0.0
C4218 C 0.11388 0.20957 0.83616 0.0
C4219 C 0.11358 0.23717 0.84234 0.0
C4220 C 0.10431 0.244 0.88177 0.0
H4221 H 0.09696 0.32336 0.8968 0.0
H4222 H 0.10709 0.30163 0.88192 0.0
H4223 H 0.09143 0.25447 0.90015 0.0
H4224 H 0.12031 0.19448 0.85534 0.0
H4225 H 0.12285 0.21556 0.87428 0.0
H4226 H 0.13162 0.26206 0.85944 0.0
C4227 C 0.10296 0.29943 0.89361 0.0
C4228 C 0.10064 0.25625 0.89176 0.0
C4229 C 0.09699 0.31192 0.90209 0.0
C4230 C 0.11873 0.20636 0.85145 0.0
C4231 C 0.12012 0.21838 0.8623 0.0
C4232 C 0.12309 0.26028 0.86855 0.0
C4233 C 0.10293 0.28429 0.89987 0.0
C4234 C 0.10809 0.27077 0.89026 0.0
C4235 C 0.11708 0.23381 0.85793 0.0
C4236 C 0.11527 0.24603 0.86986 0.0
H4237 H 0.08594 0.29246 0.93482 0.0
H4238 H 0.09711 0.27075 0.92044 0.0
H4239 H 0.12599 0.28328 0.87748 0.0
H4240 H 0.10814 0.22794 0.81985 0.0
H4241 H 0.11109 0.24899 0.83874 0.0
C4242 C 0.5633 0.64803 0.34754 0.0
C4243 C 0.55925 0.6559 0.33377 0.0
C4244 C 0.55179 0.64231 0.35745 0.0
C4245 C 0.51142 0.62994 0.36056 0.0
H4246 H 0.51303 0.64754 0.40203 0.0
C4247 C 0.45833 0.63104 0.40154 0.0
C4248 C 0.46071 0.63286 0.41758 0.0
C4249 C 0.47102 0.63015 0.3914 0.0
C4250 C 0.51252 0.64209 0.39069 0.0
H4251 H 0.53996 0.66329 0.31926 0.0
H4252 H 0.5198 0.65296 0.33658 0.0
H4253 H 0.5339 0.65285 0.38381 0.0
H4254 H 0.47803 0.63357 0.43584 0.0
H4255 H 0.50017 0.63088 0.41835 0.0
H4256 H 0.49018 0.61895 0.36743 0.0
C4257 C 0.53192 0.65137 0.33965 0.0
C4258 C 0.52447 0.6453 0.3802 0.0
C4259 C 0.54344 0.65736 0.32982 0.0
C4260 C 0.47591 0.63233 0.42347 0.0
C4261 C 0.48859 0.631 0.4134 0.0
C4262 C 0.49958 0.62643 0.37119 0.0
C4263 C 0.53601 0.64408 0.35368 0.0
C4264 C 0.52389 0.63949 0.36498 0.0
C4265 C 0.48636 0.63071 0.39716 0.0
C4266 C 0.49981 0.63272 0.38633 0.0
H4267 H 0.57537 0.64671 0.35093 0.0
H4268 H 0.55521 0.6367 0.36821 0.0
H4269 H 0.51082 0.62524 0.34888 0.0
H4270 H 0.44671 0.63154 0.39668 0.0
H4271 H 0.46872 0.63007 0.37903 0.0
C4272 C 0.58285 0.91166 0.7981 0.0
C4273 C 0.58421 0.90605 0.81339 0.0
C4274 C 0.59251 0.906 0.78634 0.0
C4275 C 0.6308 0.88797 0.78073 0.0
H4276 H 0.61664 0.88504 0.73802 0.0
C4277 C 0.65539 0.87813 0.71372 0.0
C4278 C 0.66802 0.88851 0.71432 0.0
C4279 C 0.64565 0.87622 0.72663 0.0
C4280 C 0.62078 0.88549 0.7499 0.0
H4281 H 0.59646 0.88964 0.82819 0.0
H4282 H 0.61322 0.87965 0.80757 0.0
H4283 H 0.59778 0.88893 0.75876 0.0
H4284 H 0.68091 0.90422 0.72932 0.0
H4285 H 0.66389 0.90109 0.7516 0.0
H4286 H 0.65383 0.88466 0.77185 0.0
C4287 C 0.6048 0.8886 0.80475 0.0
C4288 C 0.60997 0.88794 0.76178 0.0
C4289 C 0.59514 0.89428 0.81655 0.0
C4290 C 0.67125 0.89619 0.7284 0.0
C4291 C 0.66152 0.8943 0.74126 0.0
C4292 C 0.64161 0.88547 0.76885 0.0
C4293 C 0.60374 0.89455 0.78956 0.0
C4294 C 0.6149 0.88968 0.77728 0.0
C4295 C 0.64836 0.88464 0.74039 0.0
C4296 C 0.63678 0.88466 0.75325 0.0
H4297 H 0.57456 0.92071 0.79523 0.0
H4298 H 0.59152 0.91103 0.77483 0.0
H4299 H 0.63502 0.88932 0.79253 0.0
H4300 H 0.65263 0.87194 0.7031 0.0
H4301 H 0.63575 0.8685 0.72567 0.0
C4302 C 0.59313 0.10406 0.6817 0.0
C4303 C 0.58263 0.09187 0.68468 0.0
C4304 C 0.6027 0.1098 0.69352 0.0
C4305 C 0.60864 0.1095 0.73641 0.0
H4306 H 0.6522 0.11398 0.72553 0.0
C4307 C 0.67065 0.10126 0.76821 0.0
C4308 C 0.66771 0.10856 0.78254 0.0
C4309 C 0.66063 0.10341 0.75563 0.0
C4310 C 0.64007 0.11285 0.72875 0.0
H4311 H 0.57356 0.07657 0.70261 0.0
H4312 H 0.5904 0.08636 0.72309 0.0
H4313 H 0.63306 0.1095 0.70513 0.0
H4314 H 0.65246 0.12473 0.79453 0.0
H4315 H 0.63501 0.12858 0.77245 0.0
H4316 H 0.61577 0.1119 0.76011 0.0
C4317 C 0.59111 0.09166 0.71168 0.0
C4318 C 0.62906 0.11044 0.71704 0.0
C4319 C 0.58153 0.08594 0.69988 0.0
C4320 C 0.65503 0.11885 0.78369 0.0
C4321 C 0.64497 0.12098 0.77107 0.0
C4322 C 0.61966 0.11187 0.74813 0.0
C4323 C 0.602 0.10348 0.70859 0.0
C4324 C 0.61328 0.10829 0.72077 0.0
C4325 C 0.64742 0.11293 0.75705 0.0
C4326 C 0.63555 0.11311 0.74447 0.0
H4327 H 0.59422 0.10897 0.67014 0.0
H4328 H 0.61082 0.11905 0.69081 0.0
H4329 H 0.59654 0.10815 0.73966 0.0
H4330 H 0.68035 0.09332 0.76687 0.0
H4331 H 0.66281 0.0969 0.74507 0.0
C4332 C 0.3633 0.07936 0.47492 0.0
C4333 C 0.36523 0.08315 0.45913 0.0
C4334 C 0.36589 0.09052 0.48643 0.0
C4335 C 0.35951 0.13101 0.49149 0.0
H4336 H 0.3801 0.12612 0.5313 0.0
C4337 C 0.34772 0.17452 0.54074 0.0
C4338 C 0.34624 0.16825 0.55574 0.0
C4339 C 0.35408 0.16565 0.52869 0.0
C4340 C 0.37416 0.12763 0.5203 0.0
H4341 H 0.37236 0.10128 0.44308 0.0
H4342 H 0.37644 0.12092 0.46324 0.0
H4343 H 0.38457 0.10706 0.51069 0.0
H4344 H 0.35063 0.14793 0.57003 0.0
H4345 H 0.36086 0.13219 0.54898 0.0
H4346 H 0.34807 0.15072 0.5012 0.0
C4347 C 0.37309 0.10926 0.46665 0.0
C4348 C 0.37687 0.11679 0.50848 0.0
C4349 C 0.37081 0.098 0.45515 0.0
C4350 C 0.35165 0.1531 0.55858 0.0
C4351 C 0.35768 0.14411 0.54647 0.0
C4352 C 0.35652 0.14165 0.50338 0.0
C4353 C 0.37018 0.10574 0.48233 0.0
C4354 C 0.36935 0.11826 0.49408 0.0
C4355 C 0.35876 0.15015 0.53129 0.0
C4356 C 0.36354 0.13994 0.51808 0.0
H4357 H 0.35908 0.06798 0.47833 0.0
H4358 H 0.36348 0.08757 0.49845 0.0
H4359 H 0.35338 0.13226 0.48055 0.0
H4360 H 0.34385 0.18626 0.53828 0.0
H4361 H 0.35509 0.17089 0.51729 0.0
C4362 C 0.32796 0.38818 0.771 0.0
C4363 C 0.33265 0.38517 0.78637 0.0
C4364 C 0.33841 0.3863 0.75869 0.0
C4365 C 0.37862 0.39252 0.75153 0.0
H4366 H 0.37168 0.37336 0.71132 0.0
C4367 C 0.42128 0.40368 0.70144 0.0
C4368 C 0.41489 0.40549 0.68653 0.0
C4369 C 0.4123 0.39765 0.71357 0.0
C4370 C 0.37375 0.37893 0.72242 0.0
H4371 H 0.35165 0.3769 0.8008 0.0
H4372 H 0.37002 0.37405 0.77928 0.0
H4373 H 0.35335 0.36863 0.73255 0.0
H4374 H 0.39424 0.40214 0.67248 0.0
H4375 H 0.37827 0.39254 0.69374 0.0
H4376 H 0.3982 0.40381 0.74141 0.0
C4377 C 0.35821 0.37771 0.77681 0.0
C4378 C 0.36332 0.37607 0.73458 0.0
C4379 C 0.34768 0.3793 0.78909 0.0
C4380 C 0.39947 0.40083 0.68387 0.0
C4381 C 0.39036 0.39518 0.69608 0.0
C4382 C 0.38883 0.39567 0.73932 0.0
C4383 C 0.35379 0.38164 0.76159 0.0
C4384 C 0.36561 0.38297 0.74918 0.0
C4385 C 0.39657 0.3937 0.71118 0.0
C4386 C 0.38645 0.3891 0.72451 0.0
H4387 H 0.31644 0.39266 0.76855 0.0
H4388 H 0.33478 0.38949 0.74705 0.0
H4389 H 0.38048 0.39819 0.76263 0.0
H4390 H 0.43323 0.40695 0.70375 0.0
H4391 H 0.41769 0.39629 0.72487 0.0
C4392 C 0.12702 0.89865 0.95779 0.0
C4393 C 0.13194 0.91379 0.96152 0.0
C4394 C 0.12553 0.88741 0.96944 0.0
C4395 C 0.12249 0.87977 0.01112 0.0
H4396 H 0.154 0.84825 0.00427 0.0
C4397 C 0.1487 0.84467 0.06164 0.0
C4398 C 0.15517 0.82995 0.05882 0.0
C4399 C 0.14265 0.8535 0.04942 0.0
C4400 C 0.14483 0.85662 0.00633 0.0
H4401 H 0.13771 0.92945 0.98043 0.0
H4402 H 0.1346 0.90988 0.00084 0.0
H4403 H 0.14755 0.86628 0.98354 0.0
H4404 H 0.15957 0.81249 0.0412 0.0
H4405 H 0.14828 0.82748 0.01997 0.0
H4406 H 0.11957 0.87012 0.03384 0.0
C4407 C 0.13213 0.90669 0.9889 0.0
C4408 C 0.1412 0.86701 0.99441 0.0
C4409 C 0.13396 0.91785 0.97723 0.0
C4410 C 0.15487 0.82392 0.04365 0.0
C4411 C 0.14846 0.83259 0.03147 0.0
C4412 C 0.12584 0.86913 0.02297 0.0
C4413 C 0.12855 0.89125 0.98502 0.0
C4414 C 0.1303 0.8789 0.99683 0.0
C4415 C 0.14258 0.84766 0.03411 0.0
C4416 C 0.13741 0.85768 0.0209 0.0
H4417 H 0.12546 0.89516 0.94578 0.0
H4418 H 0.12275 0.87555 0.96622 0.0
H4419 H 0.114 0.88886 0.0132 0.0
H4420 H 0.14882 0.84964 0.07322 0.0
H4421 H 0.13856 0.86512 0.05198 0.0
C4422 C 0.84884 0.118 0.20767 0.0
C4423 C 0.8335 0.11391 0.21161 0.0
C4424 C 0.86019 0.11935 0.21925 0.0
C4425 C 0.86779 0.12319 0.261 0.0
H4426 H 0.89858 0.09082 0.25485 0.0
C4427 C 0.90165 0.09672 0.3122 0.0
C4428 C 0.91637 0.0901 0.30968 0.0
C4429 C 0.89306 0.10271 0.29979 0.0
C4430 C 0.89041 0.10022 0.2567 0.0
H4431 H 0.81768 0.10948 0.23074 0.0
H4432 H 0.83743 0.11236 0.25098 0.0
H4433 H 0.88089 0.09745 0.23387 0.0
H4434 H 0.93401 0.08527 0.29234 0.0
H4435 H 0.91938 0.09638 0.27075 0.0
H4436 H 0.87728 0.1261 0.28379 0.0
C4437 C 0.8407 0.11429 0.23896 0.0
C4438 C 0.88022 0.10396 0.24464 0.0
C4439 C 0.82942 0.1126 0.22739 0.0
C4440 C 0.92258 0.0901 0.29458 0.0
C4441 C 0.91413 0.09641 0.2822 0.0
C4442 C 0.87822 0.1197 0.27299 0.0
C4443 C 0.85628 0.11703 0.23493 0.0
C4444 C 0.86857 0.11518 0.24682 0.0
C4445 C 0.89911 0.10254 0.28457 0.0
C4446 C 0.88938 0.10781 0.27118 0.0
H4447 H 0.85234 0.119 0.19561 0.0
H4448 H 0.87216 0.1215 0.2159 0.0
H4449 H 0.85891 0.13193 0.26291 0.0
H4450 H 0.89653 0.09683 0.32372 0.0
H4451 H 0.88145 0.10699 0.30214 0.0
C4452 C 0.35949 0.91831 0.02002 0.0
C4453 C 0.36241 0.91366 0.03542 0.0
C4454 C 0.36123 0.90775 0.00779 0.0
C4455 C 0.35396 0.86796 0.00058 0.0
H4456 H 0.37497 0.87358 0.96108 0.0
C4457 C 0.34257 0.8255 0.95033 0.0
C4458 C 0.34179 0.83186 0.93532 0.0
C4459 C 0.34853 0.83425 0.96266 0.0
C4460 C 0.36887 0.87189 0.97197 0.0
H4461 H 0.37029 0.89462 0.05 0.0
H4462 H 0.37283 0.87605 0.02861 0.0
H4463 H 0.37971 0.8919 0.9823 0.0
H4464 H 0.34685 0.8522 0.92131 0.0
H4465 H 0.3563 0.86779 0.94286 0.0
H4466 H 0.34213 0.84885 0.99021 0.0
C4467 C 0.36941 0.88791 0.02606 0.0
C4468 C 0.37175 0.88231 0.98413 0.0
C4469 C 0.368 0.89855 0.03825 0.0
C4470 C 0.34737 0.84699 0.93278 0.0
C4471 C 0.35294 0.85589 0.94517 0.0
C4472 C 0.35079 0.85779 0.98835 0.0
C4473 C 0.36563 0.89233 0.0108 0.0
C4474 C 0.36418 0.88049 0.99846 0.0
C4475 C 0.35344 0.84972 0.96034 0.0
C4476 C 0.35803 0.85971 0.97378 0.0
H4477 H 0.35522 0.92989 0.0175 0.0
H4478 H 0.35816 0.91136 0.9961 0.0
H4479 H 0.34781 0.86649 0.01149 0.0
H4480 H 0.33856 0.81376 0.95255 0.0
H4481 H 0.3491 0.82889 0.97404 0.0
C4482 C 0.64691 0.65673 0.9374 0.0
C4483 C 0.65816 0.66841 0.93959 0.0
C4484 C 0.6424 0.64717 0.94976 0.0
C4485 C 0.65902 0.63046 0.98441 0.0
H4486 H 0.61699 0.61796 0.99525 0.0
C4487 C 0.63129 0.59406 0.03724 0.0
C4488 C 0.64077 0.58074 0.03632 0.0
C4489 C 0.63062 0.60456 0.02479 0.0
C4490 C 0.62875 0.6214 0.9923 0.0
H4491 H 0.67294 0.67966 0.95671 0.0
H4492 H 0.66526 0.66278 0.97816 0.0
H4493 H 0.62117 0.63806 0.97526 0.0
H4494 H 0.65571 0.56725 0.02103 0.0
H4495 H 0.65462 0.5856 -0.00046 0.0
H4496 H 0.66669 0.61369 0.00109 0.0
C4497 C 0.65995 0.66107 0.96686 0.0
C4498 C 0.63114 0.63281 0.98091 0.0
C4499 C 0.66433 0.67073 0.95456 0.0
C4500 C 0.64848 0.57749 0.02226 0.0
C4501 C 0.64789 0.588 0.00993 0.0
C4502 C 0.65665 0.61893 0.99554 0.0
C4503 C 0.6492 0.649 0.96449 0.0
C4504 C 0.64632 0.63744 0.97691 0.0
C4505 C 0.63946 0.60189 0.01132 0.0
C4506 C 0.64153 0.61423 -0.00047 0.0
H4507 H 0.64196 0.65458 0.92603 0.0
H4508 H 0.63418 0.63786 0.94762 0.0
H4509 H 0.67084 0.63367 0.98142 0.0
H4510 H 0.62515 0.59687 0.04788 0.0
H4511 H 0.62402 0.61522 0.02609 0.0
C4512 C 0.21864 0.23174 0.44726 0.0
C4513 C 0.20449 0.22668 0.4537 0.0
C4514 C 0.2304 0.23759 0.4568 0.0
C4515 C 0.23985 0.24967 0.49742 0.0
H4516 H 0.27848 0.22795 0.48904 0.0
C4517 C 0.28199 0.22964 0.54478 0.0
C4518 C 0.29789 0.22796 0.54135 0.0
C4519 C 0.27168 0.23516 0.53352 0.0
C4520 C 0.26797 0.23448 0.49141 0.0
H4521 H 0.19112 0.2249 0.47503 0.0
H4522 H 0.21175 0.23472 0.49172 0.0
H4523 H 0.2579 0.22757 0.46983 0.0
H4524 H 0.31566 0.23205 0.52389 0.0
H4525 H 0.29763 0.24182 0.50426 0.0
H4526 H 0.24977 0.25587 0.51943 0.0
C4527 C 0.21373 0.23438 0.47928 0.0
C4528 C 0.25611 0.23426 0.48036 0.0
C4529 C 0.20193 0.22861 0.46972 0.0
C4530 C 0.30344 0.23301 0.52683 0.0
C4531 C 0.29311 0.23857 0.51556 0.0
C4532 C 0.25175 0.2499 0.50851 0.0
C4533 C 0.2283 0.23841 0.47299 0.0
C4534 C 0.24172 0.24138 0.48345 0.0
C4535 C 0.27705 0.23917 0.51861 0.0
C4536 C 0.26573 0.24182 0.50584 0.0
H4537 H 0.22087 0.23063 0.4349 0.0
H4538 H 0.24138 0.24088 0.45156 0.0
H4539 H 0.22898 0.2555 0.50003 0.0
H4540 H 0.27735 0.22598 0.55591 0.0
H4541 H 0.25937 0.23532 0.53623 0.0
C4542 C 0.4769 0.52555 0.80112 0.0
C4543 C 0.47277 0.54036 0.79556 0.0
C4544 C 0.48224 0.51412 0.7909 0.0
C4545 C 0.49501 0.5069 0.75003 0.0
H4546 H 0.47225 0.46836 0.75551 0.0
C4547 C 0.47635 0.46733 0.6998 0.0
C4548 C 0.47459 0.45129 0.70242 0.0
C4549 C 0.48136 0.4771 0.71175 0.0
C4550 C 0.47904 0.47886 0.75394 0.0
H4551 H 0.47195 0.55511 0.7751 0.0
H4552 H 0.48088 0.53509 0.75722 0.0
H4553 H 0.47163 0.48784 0.77584 0.0
H4554 H 0.478 0.43273 0.71919 0.0
H4555 H 0.48687 0.44982 0.74003 0.0
H4556 H 0.50175 0.49809 0.72771 0.0
C4557 C 0.48023 0.53233 0.7695 0.0
C4558 C 0.47868 0.49007 0.76564 0.0
C4559 C 0.47498 0.54379 0.77974 0.0
C4560 C 0.47903 0.44507 0.71687 0.0
C4561 C 0.48408 0.45486 0.72882 0.0
C4562 C 0.49535 0.49566 0.73829 0.0
C4563 C 0.48347 0.51722 0.77489 0.0
C4564 C 0.48626 0.50442 0.76363 0.0
C4565 C 0.48476 0.47104 0.72655 0.0
C4566 C 0.48696 0.48172 0.73993 0.0
H4567 H 0.47555 0.52262 0.81331 0.0
H4568 H 0.48492 0.50268 0.79546 0.0
H4569 H 0.50118 0.51774 0.74825 0.0
H4570 H 0.47313 0.47247 0.68876 0.0
H4571 H 0.48163 0.48952 0.70964 0.0
C4572 C 0.71858 0.26659 0.55141 0.0
C4573 C 0.70419 0.27156 0.54544 0.0
C4574 C 0.73021 0.26119 0.54144 0.0
C4575 C 0.73883 0.25004 0.50038 0.0
H4576 H 0.77748 0.2719 0.5083 0.0
C4577 C 0.7805 0.27003 0.4524 0.0
C4578 C 0.79645 0.27156 0.45565 0.0
C4579 C 0.77024 0.26472 0.46381 0.0
C4580 C 0.76695 0.26535 0.50603 0.0
H4581 H 0.69029 0.27364 0.52449 0.0
H4582 H 0.71066 0.26457 0.50706 0.0
H4583 H 0.75724 0.27192 0.52789 0.0
H4584 H 0.81434 0.26747 0.47298 0.0
H4585 H 0.79643 0.25802 0.49286 0.0
H4586 H 0.74839 0.24413 0.47813 0.0
C4587 C 0.71295 0.26466 0.51945 0.0
C4588 C 0.7553 0.26536 0.51732 0.0
C4589 C 0.70128 0.26998 0.52944 0.0
C4590 C 0.80209 0.26661 0.47018 0.0
C4591 C 0.79182 0.26125 0.48158 0.0
C4592 C 0.75052 0.25002 0.48906 0.0
C4593 C 0.72772 0.26072 0.52528 0.0
C4594 C 0.74092 0.25814 0.51443 0.0
C4595 C 0.77572 0.26075 0.4787 0.0
C4596 C 0.76452 0.25811 0.49158 0.0
H4597 H 0.7211 0.26743 0.56373 0.0
H4598 H 0.74137 0.25796 0.54632 0.0
H4599 H 0.72796 0.24416 0.49792 0.0
H4600 H 0.77579 0.27365 0.44129 0.0
H4601 H 0.75791 0.26463 0.46122 0.0
C4602 C 0.52564 0.04431 0.71532 0.0
C4603 C 0.52742 0.04027 0.69959 0.0
C4604 C 0.52099 0.03319 0.7262 0.0
C4605 C 0.52345 0.99114 0.73176 0.0
H4606 H 0.5011 0.0002 0.76988 0.0
C4607 C 0.52319 0.94731 0.78178 0.0
C4608 C 0.52761 0.95374 0.79614 0.0
C4609 C 0.51845 0.95693 0.76957 0.0
C4610 C 0.50732 0.99749 0.75927 0.0
H4611 H 0.52449 0.02174 0.68271 0.0
H4612 H 0.51615 0.00238 0.70167 0.0
H4613 H 0.501 0.01914 0.74867 0.0
H4614 H 0.52951 0.97519 0.80931 0.0
H4615 H 0.52151 0.99196 0.78796 0.0
H4616 H 0.53029 0.96982 0.74248 0.0
C4617 C 0.51871 0.01405 0.70566 0.0
C4618 C 0.50728 0.00833 0.74714 0.0
C4619 C 0.52345 0.02516 0.69479 0.0
C4620 C 0.52627 0.96988 0.79835 0.0
C4621 C 0.52156 0.97949 0.78614 0.0
C4622 C 0.52347 0.98032 0.74384 0.0
C4623 C 0.51793 0.01781 0.72156 0.0
C4624 C 0.51572 0.00545 0.73342 0.0
C4625 C 0.51804 0.97316 0.77148 0.0
C4626 C 0.51577 0.98355 0.7579 0.0
H4627 H 0.52855 0.05588 0.71938 0.0
H4628 H 0.52066 0.03645 0.73836 0.0
H4629 H 0.53029 0.98862 0.72148 0.0
H4630 H 0.52391 0.9349 0.77976 0.0
H4631 H 0.51558 0.9517 0.75848 0.0
C4632 C 0.22175 0.76996 0.05008 0.0
C4633 C 0.20668 0.77391 0.04511 0.0
C4634 C 0.23295 0.76511 0.03935 0.0
C4635 C 0.23904 0.75359 0.99789 0.0
H4636 H 0.27769 0.77625 0.00301 0.0
C4637 C 0.27819 0.77278 0.94722 0.0
C4638 C 0.29431 0.77399 0.94964 0.0
C4639 C 0.2684 0.76793 0.95925 0.0
C4640 C 0.26714 0.76952 0.00152 0.0
H4641 H 0.19126 0.77491 0.02516 0.0
H4642 H 0.21085 0.76686 0.00643 0.0
H4643 H 0.25867 0.77634 0.02381 0.0
H4644 H 0.31295 0.76987 0.96617 0.0
H4645 H 0.29585 0.76133 0.98713 0.0
H4646 H 0.24734 0.74745 0.97519 0.0
C4647 C 0.21401 0.76727 0.01861 0.0
C4648 C 0.2562 0.76956 0.01349 0.0
C4649 C 0.20278 0.77201 0.02936 0.0
C4650 C 0.30055 0.76925 0.96399 0.0
C4651 C 0.29076 0.76439 0.97601 0.0
C4652 C 0.25 0.7536 0.98586 0.0
C4653 C 0.22935 0.76423 0.02341 0.0
C4654 C 0.24184 0.76195 0.01167 0.0
C4655 C 0.27455 0.76418 0.97393 0.0
C4656 C 0.26399 0.76191 0.98741 0.0
H4657 H 0.22505 0.7711 0.06218 0.0
H4658 H 0.24458 0.76256 0.04347 0.0
H4659 H 0.22819 0.7474 0.99622 0.0
H4660 H 0.27302 0.77626 0.93626 0.0
H4661 H 0.25595 0.76802 0.9573 0.0
C4662 C 0.0179 0.46835 0.29945 0.0
C4663 C 0.02298 0.45369 0.29431 0.0
C4664 C 0.0126 0.47942 0.2888 0.0
C4665 C 0.00205 0.48576 0.24714 0.0
H4666 H 0.02294 0.52519 0.25361 0.0
C4667 C 0.02164 0.52609 0.19769 0.0
C4668 C 0.02242 0.5422 0.20033 0.0
C4669 C 0.01659 0.51606 0.20943 0.0
C4670 C 0.01667 0.51443 0.25173 0.0
H4671 H 0.02543 0.43873 0.27414 0.0
H4672 H 0.01658 0.45813 0.25555 0.0
H4673 H 0.02307 0.50589 0.27412 0.0
H4674 H 0.01729 0.56054 0.21689 0.0
H4675 H 0.00835 0.54303 0.23733 0.0
H4676 H 0.99635 0.49416 0.22436 0.0
C4677 C 0.01647 0.46106 0.2678 0.0
C4678 C 0.01674 0.50331 0.26354 0.0
C4679 C 0.02166 0.44996 0.27846 0.0
C4680 C 0.01702 0.54817 0.21456 0.0
C4681 C 0.01194 0.53814 0.22629 0.0
C4682 C 0.00201 0.4969 0.23528 0.0
C4683 C 0.01238 0.47609 0.27279 0.0
C4684 C 0.00983 0.48868 0.26123 0.0
C4685 C 0.01216 0.52195 0.22403 0.0
C4686 C 0.00972 0.51118 0.23731 0.0
H4687 H 0.01855 0.4715 0.31163 0.0
H4688 H 0.00923 0.49079 0.29306 0.0
H4689 H 0.99641 0.47469 0.24509 0.0
H4690 H 0.02563 0.52112 0.18682 0.0
H4691 H 0.01705 0.50365 0.20735 0.0
C4692 C 0.70379 0.72941 0.96624 0.0
C4693 C 0.70692 0.72751 0.95031 0.0
C4694 C 0.71541 0.73464 0.97632 0.0
C4695 C 0.75766 0.73287 0.97912 0.0
H4696 H 0.75063 0.7546 0.01801 0.0
C4697 C 0.80344 0.7306 0.02718 0.0
C4698 C 0.79738 0.72595 0.04163 0.0
C4699 C 0.79357 0.73616 0.01553 0.0
C4700 C 0.75279 0.74857 0.00716 0.0
H4701 H 0.72418 0.73099 0.93222 0.0
H4702 H 0.74438 0.7403 0.9498 0.0
H4703 H 0.73059 0.75502 0.99784 0.0
H4704 H 0.77638 0.72456 0.0556 0.0
H4705 H 0.75917 0.73391 0.03522 0.0
H4706 H 0.77945 0.72575 0.98861 0.0
C4707 C 0.73308 0.73739 0.95455 0.0
C4708 C 0.74133 0.74881 0.99562 0.0
C4709 C 0.72149 0.73209 0.94449 0.0
C4710 C 0.78141 0.72794 0.04454 0.0
C4711 C 0.77155 0.73345 0.03289 0.0
C4712 C 0.76909 0.73263 0.99062 0.0
C4713 C 0.73035 0.73815 0.97066 0.0
C4714 C 0.74344 0.74052 0.98168 0.0
C4715 C 0.77744 0.73715 0.01809 0.0
C4716 C 0.76658 0.74004 0.00497 0.0
H4717 H 0.69265 0.72606 0.97108 0.0
H4718 H 0.71293 0.73496 0.98867 0.0
H4719 H 0.75961 0.72616 0.96863 0.0
H4720 H 0.81573 0.7294 0.02464 0.0
H4721 H 0.79849 0.73916 0.00432 0.0
C4722 C 0.97899 0.02546 0.30363 0.0
C4723 C 0.97465 0.04026 0.29822 0.0
C4724 C 0.98432 0.01415 0.29326 0.0
C4725 C 0.99614 0.0072 0.25203 0.0
H4726 H 0.97326 0.96877 0.2578 0.0
C4727 C 0.97582 0.96819 0.20196 0.0
C4728 C 0.97419 0.95212 0.20445 0.0
C4729 C 0.98111 0.97786 0.21388 0.0
C4730 C 0.98008 0.97923 0.25613 0.0
H4731 H 0.97358 0.05519 0.2779 0.0
H4732 H 0.98246 0.03539 0.25978 0.0
H4733 H 0.97338 0.98805 0.27832 0.0
H4734 H 0.97804 0.93341 0.22095 0.0
H4735 H 0.98738 0.9503 0.24173 0.0
H4736 H 0.00213 0.99857 0.22942 0.0
C4737 C 0.98198 0.03253 0.27204 0.0
C4738 C 0.98016 0.99033 0.26795 0.0
C4739 C 0.97675 0.04386 0.28242 0.0
C4740 C 0.97897 0.94578 0.21873 0.0
C4741 C 0.98429 0.95544 0.23065 0.0
C4742 C 0.99604 0.99607 0.24017 0.0
C4743 C 0.98531 0.01738 0.27726 0.0
C4744 C 0.98777 0.00465 0.26585 0.0
C4745 C 0.98493 0.97164 0.22852 0.0
C4746 C 0.98759 0.98218 0.24192 0.0
H4747 H 0.97773 0.0224 0.31579 0.0
H4748 H 0.98709 0.00269 0.2977 0.0
H4749 H 0.00234 0.01801 0.25017 0.0
H4750 H 0.97234 0.97344 0.19105 0.0
H4751 H 0.98133 0.99029 0.21189 0.0
C4752 C 0.44851 0.21736 0.22978 0.0
C4753 C 0.45371 0.2027 0.22476 0.0
C4754 C 0.45911 0.22847 0.23506 0.0
C4755 C 0.50084 0.23501 0.2454 0.0
H4756 H 0.49408 0.2743 0.22432 0.0
C4757 C 0.55 0.27532 0.22501 0.0
C4758 C 0.54733 0.29143 0.22423 0.0
C4759 C 0.53834 0.2653 0.23023 0.0
C4760 C 0.49605 0.26357 0.23063 0.0
H4761 H 0.47393 0.18778 0.22244 0.0
H4762 H 0.49244 0.20725 0.23123 0.0
H4763 H 0.47362 0.25495 0.22448 0.0
H4764 H 0.5308 0.30977 0.2295 0.0
H4765 H 0.51048 0.29225 0.23872 0.0
H4766 H 0.52366 0.24349 0.25081 0.0
C4767 C 0.48018 0.21015 0.23132 0.0
C4768 C 0.48426 0.25244 0.23074 0.0
C4769 C 0.46956 0.199 0.22616 0.0
C4770 C 0.53315 0.29739 0.22977 0.0
C4771 C 0.52149 0.28736 0.23502 0.0
C4772 C 0.51268 0.24617 0.24525 0.0
C4773 C 0.47514 0.2252 0.23531 0.0
C4774 C 0.48667 0.23784 0.23772 0.0
C4775 C 0.52378 0.27117 0.23482 0.0
C4776 C 0.51055 0.2604 0.23746 0.0
H4777 H 0.43631 0.22047 0.22908 0.0
H4778 H 0.45481 0.23984 0.23837 0.0
H4779 H 0.50297 0.22398 0.2511 0.0
H4780 H 0.56084 0.27037 0.22092 0.0
H4781 H 0.54044 0.25288 0.2298 0.0
C4782 C 0.44825 0.28251 0.02169 0.0
C4783 C 0.45457 0.29682 0.02643 0.0
C4784 C 0.45797 0.27043 0.01683 0.0
C4785 C 0.4986 0.26046 0.00575 0.0
H4786 H 0.48977 0.22226 0.02803 0.0
C4787 C 0.54553 0.21606 0.0228 0.0
C4788 C 0.54145 0.20033 0.02441 0.0
C4789 C 0.53437 0.22705 0.01846 0.0
C4790 C 0.49228 0.23266 0.02138 0.0
H4791 H 0.47594 0.31004 0.02877 0.0
H4792 H 0.49289 0.28892 0.02052 0.0
H4793 H 0.47095 0.24324 0.02842 0.0
H4794 H 0.52283 0.18355 0.02151 0.0
H4795 H 0.50342 0.20269 0.01366 0.0
H4796 H 0.52024 0.24998 -0.00082 0.0
C4797 C 0.48043 0.28704 0.02043 0.0
C4798 C 0.48146 0.24473 0.02162 0.0
C4799 C 0.47072 0.29912 0.02529 0.0
C4800 C 0.52627 0.19564 0.02058 0.0
C4801 C 0.51514 0.20661 0.01614 0.0
C4802 C 0.50944 0.24833 0.00546 0.0
C4803 C 0.4742 0.27242 0.01661 0.0
C4804 C 0.48467 0.25892 0.01417 0.0
C4805 C 0.51893 0.22251 0.01554 0.0
C4806 C 0.50658 0.23445 0.01363 0.0
H4807 H 0.43584 0.28041 0.02227 0.0
H4808 H 0.45281 0.25937 0.01372 0.0
H4809 H 0.5013 0.27119 -0.00028 0.0
H4810 H 0.55715 0.22005 0.02562 0.0
H4811 H 0.53768 0.2392 0.01827 0.0
C4812 C 0.55037 0.72201 0.27127 0.0
C4813 C 0.54455 0.70747 0.27593 0.0
C4814 C 0.54034 0.73345 0.26557 0.0
C4815 C 0.49968 0.74102 0.25248 0.0
H4816 H 0.50574 0.78011 0.27412 0.0
C4817 C 0.45004 0.78189 0.26975 0.0
C4818 C 0.45295 0.79789 0.27142 0.0
C4819 C 0.46184 0.77185 0.26491 0.0
C4820 C 0.50401 0.76946 0.26762 0.0
H4821 H 0.52382 0.69314 0.27731 0.0
H4822 H 0.50628 0.71318 0.26771 0.0
H4823 H 0.5257 0.76028 0.27543 0.0
H4824 H 0.47006 0.8161 0.2679 0.0
H4825 H 0.49063 0.79855 0.25926 0.0
H4826 H 0.47758 0.75005 0.24531 0.0
C4827 C 0.51861 0.71573 0.26826 0.0
C4828 C 0.5155 0.75804 0.26838 0.0
C4829 C 0.52866 0.70426 0.27389 0.0
C4830 C 0.46752 0.8038 0.26694 0.0
C4831 C 0.47932 0.79375 0.26204 0.0
C4832 C 0.48816 0.75248 0.2517 0.0
C4833 C 0.52428 0.7306 0.26447 0.0
C4834 C 0.51327 0.74351 0.26124 0.0
C4835 C 0.47678 0.77759 0.26155 0.0
C4836 C 0.49 0.76664 0.25969 0.0
H4837 H 0.56261 0.72476 0.27248 0.0
H4838 H 0.5451 0.7447 0.26249 0.0
H4839 H 0.49773 0.73003 0.24664 0.0
H4840 H 0.4389 0.77697 0.27299 0.0
H4841 H 0.45949 0.75947 0.26478 0.0
C4842 C 0.02368 0.30054 0.97354 0.0
C4843 C 0.03976 0.29758 0.97355 0.0
C4844 C 0.01321 0.28914 0.97848 0.0
C4845 C 0.01079 0.24684 0.97984 0.0
H4846 H 0.97028 0.25493 0.99797 0.0
C4847 C 0.96416 0.19963 0.9792 0.0
C4848 C 0.94979 0.20461 0.9732 0.0
C4849 C 0.97514 0.21044 0.98433 0.0
C4850 C 0.98156 0.25249 0.99293 0.0
H4851 H 0.05755 0.28085 0.97995 0.0
H4852 H 0.03926 0.26102 0.98873 0.0
H4853 H 0.99007 0.27536 0.99803 0.0
H4854 H 0.93522 0.22476 0.96891 0.0
H4855 H 0.95447 0.24363 0.97749 0.0
H4856 H 0.0022 0.2243 0.97408 0.0
C4857 C 0.03474 0.27203 0.98459 0.0
C4858 C 0.99289 0.26417 0.99297 0.0
C4859 C 0.04521 0.28341 0.9796 0.0
C4860 C 0.94622 0.22055 0.9734 0.0
C4861 C 0.95723 0.23138 0.97844 0.0
C4862 C -0.00049 0.2352 0.9798 0.0
C4863 C 0.01861 0.27458 0.98359 0.0
C4864 C 0.00748 0.2616 0.98602 0.0
C4865 C 0.97201 0.22647 0.98347 0.0
C4866 C 0.98462 0.23802 0.98595 0.0
H4867 H 0.01911 0.31138 0.96903 0.0
H4868 H 0.00087 0.29145 0.97742 0.0
H4869 H 0.0218 0.24452 0.97416 0.0
H4870 H 0.96717 0.18739 0.97942 0.0
H4871 H 0.9863 0.20627 0.98843 0.0
C4872 C 0.22384 0.44999 0.21527 0.0
C4873 C 0.22215 0.45239 0.19919 0.0
C4874 C 0.22884 0.46206 0.2249 0.0
C4875 C 0.22688 0.5043 0.22622 0.0
H4876 H 0.24958 0.49895 0.26483 0.0
C4877 C 0.22614 0.55224 0.27222 0.0
C4878 C 0.22223 0.54696 0.28719 0.0
C4879 C 0.23112 0.54177 0.26084 0.0
C4880 C 0.24325 0.50063 0.25407 0.0
H4881 H 0.22557 0.46894 0.18043 0.0
H4882 H 0.23439 0.48999 0.19727 0.0
H4883 H 0.24959 0.4781 0.24549 0.0
H4884 H 0.22146 0.52675 0.30228 0.0
H4885 H 0.22976 0.50846 0.28238 0.0
H4886 H 0.21987 0.52642 0.23498 0.0
C4887 C 0.23158 0.47885 0.20245 0.0
C4888 C 0.24327 0.48872 0.243 0.0
C4889 C 0.22656 0.46678 0.19281 0.0
C4890 C 0.22432 0.53117 0.29083 0.0
C4891 C 0.22921 0.52069 0.27943 0.0
C4892 C 0.22683 0.51617 0.23726 0.0
C4893 C 0.23229 0.47678 0.21865 0.0
C4894 C 0.23469 0.49025 0.22916 0.0
C4895 C 0.23221 0.5258 0.26418 0.0
C4896 C 0.23462 0.5143 0.25151 0.0
H4897 H 0.22063 0.43901 0.22054 0.0
H4898 H 0.22912 0.46011 0.23735 0.0
H4899 H 0.21996 0.50579 0.21579 0.0
H4900 H 0.22487 0.56439 0.26912 0.0
H4901 H 0.23362 0.54611 0.24928 0.0
C4902 C 0.71959 0.51752 0.05301 0.0
C4903 C 0.70499 0.52227 0.0474 0.0
C4904 C 0.73101 0.5122 0.04273 0.0
C4905 C 0.7384 0.50081 0.00146 0.0
H4906 H 0.77724 0.52277 0.00801 0.0
C4907 C 0.77889 0.5204 0.95211 0.0
C4908 C 0.79492 0.52177 0.95499 0.0
C4909 C 0.76884 0.51528 0.9638 0.0
C4910 C 0.76665 0.51621 0.00612 0.0
H4911 H 0.69053 0.52409 0.02679 0.0
H4912 H 0.71049 0.51519 0.00889 0.0
H4913 H 0.75765 0.52285 0.02827 0.0
H4914 H 0.81316 0.51754 0.97193 0.0
H4915 H 0.79563 0.50844 0.99227 0.0
H4916 H 0.74724 0.49485 0.97891 0.0
C4917 C 0.71313 0.51537 0.02121 0.0
C4918 C 0.75538 0.51624 0.01778 0.0
C4919 C 0.7017 0.52062 0.03148 0.0
C4920 C 0.80083 0.51684 0.96942 0.0
C4921 C 0.79079 0.51165 0.98109 0.0
C4922 C 0.7497 0.50079 0.98975 0.0
C4923 C 0.72808 0.51159 0.02665 0.0
C4924 C 0.74093 0.50897 0.01541 0.0
C4925 C 0.77463 0.51135 0.9786 0.0
C4926 C 0.76376 0.5089 0.99179 0.0
H4927 H 0.72242 0.51846 0.06525 0.0
H4928 H 0.74234 0.50911 0.04732 0.0
H4929 H 0.72748 0.49488 -0.00062 0.0
H4930 H 0.77398 0.52404 0.94109 0.0
H4931 H 0.75645 0.5153 0.96153 0.0
C4932 C 0.77249 0.03188 0.20871 0.0
C4933 C 0.77517 0.04759 0.2123 0.0
C4934 C 0.76756 0.02154 0.22023 0.0
C4935 C 0.77077 0.01681 0.26232 0.0
H4936 H 0.74629 0.97972 0.25461 0.0
C4937 C 0.77033 0.96732 0.30664 0.0
C4938 C 0.77406 0.95281 0.30009 0.0
C4939 C 0.76545 0.9796 0.29718 0.0
C4940 C 0.75309 0.99006 0.25696 0.0
H4941 H 0.77362 0.06505 0.23046 0.0
H4942 H 0.76481 0.04703 0.25051 0.0
H4943 H 0.74668 0.00059 0.2353 0.0
H4944 H 0.77442 0.93946 0.27868 0.0
H4945 H 0.76618 0.9609 0.26219 0.0
H4946 H 0.77774 0.00611 0.2836 0.0
C4947 C 0.76686 0.04263 0.23888 0.0
C4948 C 0.75334 0.00199 0.2459 0.0
C4949 C 0.77187 0.05295 0.22738 0.0
C4950 C 0.77176 0.95053 0.28407 0.0
C4951 C 0.7669 0.9628 0.27462 0.0
C4952 C 0.77051 0.00493 0.27335 0.0
C4953 C 0.76512 0.02671 0.23555 0.0
C4954 C 0.76257 0.01529 0.24826 0.0
C4955 C 0.7642 0.97761 0.281 0.0
C4956 C 0.76206 0.99121 0.27059 0.0
H4957 H 0.77487 0.02739 0.19718 0.0
H4958 H 0.76649 0.00934 0.21728 0.0
H4959 H 0.77819 0.02677 0.26443 0.0
H4960 H 0.77181 0.9694 0.31898 0.0
H4961 H 0.76322 0.99082 0.30246 0.0
C4962 C 0.71686 0.47744 0.44396 0.0
C4963 C 0.70249 0.47319 0.4505 0.0
C4964 C 0.72908 0.48237 0.45346 0.0
C4965 C 0.73954 0.49418 0.49379 0.0
H4966 H 0.7769 0.4703 0.48551 0.0
C4967 C 0.78266 0.47567 0.54122 0.0
C4968 C 0.79837 0.47337 0.53736 0.0
C4969 C 0.77202 0.48043 0.52991 0.0
C4970 C 0.76675 0.47739 0.48785 0.0
H4971 H 0.6893 0.47187 0.47199 0.0
H4972 H 0.71067 0.48023 0.48856 0.0
H4973 H 0.75598 0.47039 0.46661 0.0
H4974 H 0.8155 0.47545 0.51894 0.0
H4975 H 0.79696 0.48399 0.49925 0.0
H4976 H 0.75017 0.50067 0.51537 0.0
C4977 C 0.71249 0.47988 0.4761 0.0
C4978 C 0.75472 0.47743 0.47698 0.0
C4979 C 0.70027 0.47496 0.4666 0.0
C4980 C 0.80342 0.47691 0.52222 0.0
C4981 C 0.79279 0.48176 0.51093 0.0
C4982 C 0.75163 0.49418 0.50467 0.0
C4983 C 0.72718 0.48315 0.46968 0.0
C4984 C 0.7408 0.48544 0.48003 0.0
C4985 C 0.77688 0.48308 0.51452 0.0
C4986 C 0.76518 0.48539 0.50202 0.0
H4987 H 0.71889 0.47638 0.43158 0.0
H4988 H 0.7402 0.48504 0.44817 0.0
H4989 H 0.72903 0.50064 0.49635 0.0
H4990 H 0.77841 0.4731 0.5528 0.0
H4991 H 0.75984 0.48116 0.53307 0.0
C4992 C 0.27215 0.54539 0.71727 0.0
C4993 C 0.27409 0.54278 0.70125 0.0
C4994 C 0.26706 0.53343 0.72699 0.0
C4995 C 0.26898 0.4912 0.72897 0.0
H4996 H 0.24565 0.49717 0.76713 0.0
C4997 C 0.26922 0.44404 0.77568 0.0
C4998 C 0.27312 0.4496 0.79055 0.0
C4999 C 0.26419 0.45429 0.76413 0.0
C5000 C 0.25215 0.49531 0.75649 0.0
H5001 H 0.27107 0.52595 0.68268 0.0
H5002 H 0.26208 0.50509 0.69969 0.0
H5003 H 0.24599 0.51771 0.74746 0.0
H5004 H 0.27368 0.47005 0.80532 0.0
H5005 H 0.26526 0.48796 0.78511 0.0
H5006 H 0.2758 0.4692 0.7382 0.0
C5007 C 0.26477 0.51631 0.70475 0.0
C5008 C 0.25233 0.50706 0.74524 0.0
C5009 C 0.26988 0.52828 0.69501 0.0
C5010 C 0.27085 0.46541 0.79395 0.0
C5011 C 0.2659 0.47568 0.78237 0.0
C5012 C 0.26881 0.47949 0.7402 0.0
C5013 C 0.26376 0.51862 0.72091 0.0
C5014 C 0.26115 0.5053 0.73157 0.0
C5015 C 0.26303 0.47031 0.76719 0.0
C5016 C 0.26079 0.48159 0.75429 0.0
H5017 H 0.27519 0.55647 0.72243 0.0
H5018 H 0.26656 0.53557 0.7394 0.0
H5019 H 0.27607 0.48954 0.71869 0.0
H5020 H 0.27063 0.43187 0.77277 0.0
H5021 H 0.26177 0.44975 0.75263 0.0
C5022 C 0.2125 0.01817 0.54895 0.0
C5023 C 0.19841 0.02333 0.54245 0.0
C5024 C 0.22483 0.01368 0.53938 0.0
C5025 C 0.2361 0.00448 0.4987 0.0
H5026 H 0.27355 0.02727 0.50931 0.0
C5027 C 0.28095 0.0242 0.4534 0.0
C5028 C 0.29656 0.02615 0.45782 0.0
C5029 C 0.26989 0.01925 0.46422 0.0
C5030 C 0.26338 0.02047 0.5063 0.0
H5031 H 0.18579 0.02669 0.52085 0.0
H5032 H 0.20736 0.01902 0.50415 0.0
H5033 H 0.25212 0.02641 0.52762 0.0
H5034 H 0.31307 0.02329 0.47668 0.0
H5035 H 0.29382 0.01434 0.4955 0.0
H5036 H 0.24726 -0.00103 0.47711 0.0
C5037 C 0.20886 0.01836 0.51664 0.0
C5038 C 0.25105 0.02 0.51682 0.0
C5039 C 0.19653 0.02288 0.52621 0.0
C5040 C 0.30108 0.02211 0.47299 0.0
C5041 C 0.29004 0.01703 0.48379 0.0
C5042 C 0.2485 0.00487 0.48817 0.0
C5043 C 0.2233 0.01422 0.52312 0.0
C5044 C 0.23712 0.01239 0.51296 0.0
C5045 C 0.27423 0.01601 0.47965 0.0
C5046 C 0.26211 0.01327 0.49167 0.0
H5047 H 0.21426 0.01821 0.56143 0.0
H5048 H 0.23575 0.01032 0.54469 0.0
H5049 H 0.22556 0.99836 0.4955 0.0
H5050 H 0.2771 0.02717 0.44178 0.0
H5051 H 0.25782 0.01878 0.46065 0.0
C5052 C 0.02533 0.80001 0.72722 0.0
C5053 C 0.04138 0.79711 0.72622 0.0
C5054 C 0.01522 0.78848 0.73261 0.0
C5055 C 0.01334 0.74618 0.73277 0.0
H5056 H 0.97343 0.75319 0.75259 0.0
C5057 C 0.96653 0.69913 0.73059 0.0
C5058 C 0.95207 0.7046 0.72529 0.0
C5059 C 0.97773 0.70952 0.73613 0.0
C5060 C 0.98456 0.75104 0.74708 0.0
H5061 H 0.0596 0.78046 0.73152 0.0
H5062 H 0.04198 0.76043 0.74109 0.0
H5063 H 0.99308 0.77375 0.75283 0.0
H5064 H 0.93758 0.72513 0.72272 0.0
H5065 H 0.95717 0.74323 0.73199 0.0
H5066 H 0.00468 0.72387 0.72629 0.0
C5067 C 0.03716 0.77146 0.73735 0.0
C5068 C 0.9958 0.7628 0.74723 0.0
C5069 C 0.04725 0.78295 0.7319 0.0
C5070 C 0.94866 0.72054 0.72661 0.0
C5071 C 0.95987 0.73092 0.73207 0.0
C5072 C 0.00214 0.73447 0.73259 0.0
C5073 C 0.02099 0.77386 0.73718 0.0
C5074 C 0.01014 0.76066 0.73965 0.0
C5075 C 0.97471 0.7256 0.73643 0.0
C5076 C 0.98743 0.73693 0.7393 0.0
H5077 H 0.02045 0.81084 0.72301 0.0
H5078 H 0.00282 0.79069 0.73221 0.0
H5079 H 0.02415 0.7442 0.72661 0.0
H5080 H 0.96943 0.68689 0.72992 0.0
H5081 H 0.98896 0.70503 0.73967 0.0
C5082 C 0.02999 0.70069 0.52071 0.0
C5083 C 0.0461 0.70306 0.52224 0.0
C5084 C 0.02023 0.71298 0.51651 0.0
C5085 C 0.01897 0.75511 0.52065 0.0
H5086 H 0.97985 0.75095 0.49857 0.0
C5087 C 0.9734 0.80359 0.52339 0.0
C5088 C 0.95835 0.79845 0.5272 0.0
C5089 C 0.98465 0.79305 0.51823 0.0
C5090 C 0.99075 0.75229 0.50475 0.0
H5091 H 0.06475 0.7198 0.51927 0.0
H5092 H 0.0477 0.74121 0.5118 0.0
H5093 H -0.00092 0.73004 0.49722 0.0
H5094 H 0.94305 0.77839 0.52774 0.0
H5095 H 0.96272 0.75999 0.51908 0.0
H5096 H 0.01048 0.77696 0.52878 0.0
C5097 C 0.0426 0.72993 0.51415 0.0
C5098 C 0.00175 0.74034 0.50396 0.0
C5099 C 0.05236 0.71765 0.51839 0.0
C5100 C 0.95455 0.78272 0.52496 0.0
C5101 C 0.96581 0.77217 0.51987 0.0
C5102 C 0.00799 0.76702 0.52145 0.0
C5103 C 0.02638 0.72787 0.51371 0.0
C5104 C 0.01581 0.74144 0.51226 0.0
C5105 C 0.9811 0.77715 0.51684 0.0
C5106 C 0.99358 0.76557 0.51387 0.0
H5107 H 0.0248 0.68956 0.52351 0.0
H5108 H 0.00779 0.711 0.51639 0.0
H5109 H 0.02956 0.75625 0.52739 0.0
H5110 H 0.97664 0.81568 0.5248 0.0
H5111 H 0.99625 0.7973 0.51574 0.0
C5112 C 0.03078 0.2023 0.77717 0.0
C5113 C 0.04655 0.20608 0.77922 0.0
C5114 C 0.02027 0.21347 0.77181 0.0
C5115 C 0.01545 0.25569 0.77239 0.0
H5116 H 0.97811 0.24653 0.74879 0.0
C5117 C 0.96641 0.30038 0.769 0.0
C5118 C 0.95179 0.29431 0.7731 0.0
C5119 C 0.97856 0.29043 0.76481 0.0
C5120 C 0.98851 0.24927 0.75535 0.0
H5121 H 0.06388 0.22417 0.77613 0.0
H5122 H 0.04556 0.24359 0.7666 0.0
H5123 H -0.00112 0.22716 0.75038 0.0
H5124 H 0.93811 0.27318 0.77484 0.0
H5125 H 0.95933 0.25585 0.76782 0.0
H5126 H 0.00492 0.27747 0.77794 0.0
C5127 C 0.04126 0.2321 0.76946 0.0
C5128 C 0.00038 0.23819 0.75628 0.0
C5129 C 0.05176 0.22096 0.77489 0.0
C5130 C 0.94926 0.27821 0.77185 0.0
C5131 C 0.96142 0.26827 0.7677 0.0
C5132 C 0.00361 0.26674 0.77146 0.0
C5133 C 0.02532 0.22863 0.76831 0.0
C5134 C 0.0138 0.24112 0.76517 0.0
C5135 C 0.97635 0.27423 0.76466 0.0
C5136 C 0.98982 0.26351 0.7633 0.0
H5137 H 0.02641 0.19092 0.78034 0.0
H5138 H 0.00805 0.21044 0.77121 0.0
H5139 H 0.02549 0.25827 0.77954 0.0
H5140 H 0.96869 0.31275 0.76966 0.0
H5141 H 0.98986 0.29539 0.76226 0.0
C5142 C 0.46981 0.69738 0.47693 0.0
C5143 C 0.45366 0.69969 0.47583 0.0
C5144 C 0.47956 0.70952 0.48154 0.0
C5145 C 0.48048 0.75177 0.47937 0.0
H5146 H 0.51974 0.74704 0.50106 0.0
C5147 C 0.52547 0.80066 0.47783 0.0
C5148 C 0.54053 0.79577 0.47375 0.0
C5149 C 0.51441 0.7899 0.4829 0.0
C5150 C 0.50881 0.74855 0.49499 0.0
H5151 H 0.43495 0.71614 0.47993 0.0
H5152 H 0.45198 0.7373 0.48806 0.0
H5153 H 0.50076 0.72587 0.50153 0.0
H5154 H 0.5561 0.77593 0.47275 0.0
H5155 H 0.53675 0.75713 0.4812 0.0
H5156 H 0.48869 0.77404 0.47215 0.0
C5157 C 0.45712 0.72618 0.48508 0.0
C5158 C 0.49794 0.73644 0.49528 0.0
C5159 C 0.44737 0.71404 0.48046 0.0
C5160 C 0.54458 0.78007 0.47574 0.0
C5161 C 0.53349 0.76929 0.48071 0.0
C5162 C 0.49133 0.76382 0.47903 0.0
C5163 C 0.47335 0.72421 0.48516 0.0
C5164 C 0.48383 0.73778 0.48712 0.0
C5165 C 0.51815 0.774 0.4839 0.0
C5166 C 0.50579 0.7622 0.48648 0.0
H5167 H 0.47501 0.68642 0.47353 0.0
H5168 H 0.49202 0.70765 0.48136 0.0
H5169 H 0.46984 0.75311 0.47275 0.0
H5170 H 0.52207 0.81273 0.47663 0.0
H5171 H 0.50278 0.79396 0.48556 0.0
C5172 C 0.73361 0.96546 0.69581 0.0
C5173 C 0.72846 0.95113 0.70174 0.0
C5174 C 0.73878 0.97713 0.70586 0.0
C5175 C 0.74868 0.98592 0.74726 0.0
H5176 H 0.72661 0.0243 0.73864 0.0
C5177 C 0.72694 0.0276 0.79464 0.0
C5178 C 0.72537 0.0435 0.79121 0.0
C5179 C 0.73259 0.0173 0.78341 0.0
C5180 C 0.73321 0.01385 0.74112 0.0
H5181 H 0.72595 0.93732 0.72273 0.0
H5182 H 0.73463 0.95772 0.74023 0.0
H5183 H 0.72751 0.00412 0.71903 0.0
H5184 H 0.72976 0.06129 0.77385 0.0
H5185 H 0.73981 0.04333 0.75435 0.0
H5186 H 0.75369 0.99551 0.76972 0.0
C5187 C 0.73483 0.95996 0.72784 0.0
C5188 C 0.73374 0.00224 0.72983 0.0
C5189 C 0.72971 0.94829 0.71779 0.0
C5190 C 0.7306 0.04905 0.77675 0.0
C5191 C 0.73633 0.03877 0.76556 0.0
C5192 C 0.74815 0.99758 0.75859 0.0
C5193 C 0.73887 0.97471 0.72204 0.0
C5194 C 0.74104 0.98794 0.73293 0.0
C5195 C 0.73688 0.02271 0.76857 0.0
C5196 C 0.73998 0.01148 0.75582 0.0
H5197 H 0.73299 0.96795 0.68347 0.0
H5198 H 0.7421 0.98828 0.70102 0.0
H5199 H 0.7546 0.97513 0.74991 0.0
H5200 H 0.72308 0.02297 0.8057 0.0
H5201 H 0.73272 0.00499 0.78609 0.0
C5202 C 0.28234 0.97845 0.05084 0.0
C5203 C 0.2964 0.97347 0.04416 0.0
C5204 C 0.27004 0.98335 0.04143 0.0
C5205 C 0.25882 0.99386 0.001 0.0
H5206 H 0.22134 0.97081 0.01091 0.0
C5207 C 0.21441 0.97473 0.95508 0.0
C5208 C 0.1988 0.9725 0.95938 0.0
C5209 C 0.22532 0.9797 0.96603 0.0
C5210 C 0.23151 0.97769 0.00811 0.0
H5211 H 0.30903 0.97087 0.02245 0.0
H5212 H 0.28751 0.97923 0.00604 0.0
H5213 H 0.24268 0.97122 0.02931 0.0
H5214 H 0.18212 0.97494 0.97816 0.0
H5215 H 0.20113 0.98392 0.9972 0.0
H5216 H 0.24777 -0.00012 0.9795 0.0
C5217 C 0.286 0.97944 0.01855 0.0
C5218 C 0.2438 0.97791 0.01869 0.0
C5219 C 0.2983 0.97452 0.02796 0.0
C5220 C 0.19412 0.97633 0.97456 0.0
C5221 C 0.20502 0.98143 0.98548 0.0
C5222 C 0.24647 0.99373 0.99042 0.0
C5223 C 0.27157 0.98339 0.02516 0.0
C5224 C 0.25775 0.98559 0.01506 0.0
C5225 C 0.22084 0.98266 0.98148 0.0
C5226 C 0.23286 0.98522 0.99365 0.0
H5227 H 0.28057 0.97795 0.06331 0.0
H5228 H 0.25912 0.98655 0.04686 0.0
H5229 H 0.26937 6e-05 0.99799 0.0
H5230 H 0.21838 0.97193 0.94346 0.0
H5231 H 0.23742 0.98035 0.96256 0.0
loop_
_geom_bond_atom_site_label_1
_geom_bond_atom_site_label_2
_geom_bond_distance
_geom_bond_site_symmetry_2
_ccdc_geom_bond_type
Co0 O3 1.970 . S
Co0 N17 1.989 . S
Co0 O25 1.967 . S
Co0 O32 1.920 . S
Co1 O4 1.966 . S
Co1 N10 2.022 . S
Co1 N18 1.993 . S
Co1 O26 1.941 . S
C2 O3 1.258 . S
C2 O4 1.263 . S
O3 Co0 1.970 . S
O3 C2 1.258 . S
O4 Co1 1.966 . S
O4 C2 1.263 . S
C5 O6 1.235 . S
C5 O32 1.289 . S
O6 C5 1.235 . S
C7 C9 1.400 . S
C7 N10 1.351 . S
C7 C12 1.501 . S
C8 C9 1.387 . S
C8 N11 1.341 . S
C9 C7 1.400 . S
C9 C8 1.387 . S
N10 Co1 2.022 . S
N10 C7 1.351 . S
N10 N11 1.365 . S
N11 C8 1.341 . S
N11 N10 1.365 . S
N11 H31 0.862 . S
C12 C7 1.501 . S
C12 H13 0.961 . S
C12 H14 0.961 . S
C12 H15 0.960 . S
H13 C12 0.961 . S
H14 C12 0.961 . S
H15 C12 0.960 . S
C16 N17 1.342 . S
C16 C20 1.401 . S
C16 C21 1.499 . S
N17 Co0 1.989 . S
N17 C16 1.342 . S
N17 N18 1.388 . S
N18 Co1 1.993 . S
N18 N17 1.388 . S
N18 C19 1.346 . S
C19 N18 1.346 . S
C19 C20 1.396 . S
C19 C29 1.510 . S
C20 C16 1.401 . S
C20 C19 1.396 . S
C21 C16 1.499 . S
C21 H22 0.959 . S
C21 H23 0.960 . S
C21 H24 0.961 . S
H22 C21 0.959 . S
H23 C21 0.960 . S
H24 C21 0.961 . S
O25 Co0 1.967 . S
O25 C33 1.258 . S
O26 Co1 1.941 . S
O26 C33 1.266 . S
H27 C29 0.959 . S
H28 C29 0.961 . S
C29 C19 1.510 . S
C29 H27 0.959 . S
C29 H28 0.961 . S
C29 H30 0.960 . S
H30 C29 0.960 . S
H31 N11 0.862 . S
O32 Co0 1.920 . S
O32 C5 1.289 . S
C33 O25 1.258 . S
C33 O26 1.266 . S
Co34 O37 1.970 . S
Co34 N51 1.989 . S
Co34 O59 1.967 . S
Co34 O66 1.920 . S
Co35 O38 1.966 . S
Co35 N44 2.022 . S
Co35 N52 1.993 . S
Co35 O60 1.941 . S
C36 O37 1.258 . S
C36 O38 1.263 . S
O37 Co34 1.970 . S
O37 C36 1.258 . S
O38 Co35 1.966 . S
O38 C36 1.263 . S
C39 O40 1.235 . S
C39 O66 1.289 . S
O40 C39 1.235 . S
C41 C43 1.400 . S
C41 N44 1.351 . S
C41 C46 1.501 . S
C42 C43 1.387 . S
C42 N45 1.341 . S
C43 C41 1.400 . S
C43 C42 1.387 . S
N44 Co35 2.022 . S
N44 C41 1.351 . S
N44 N45 1.365 . S
N45 C42 1.341 . S
N45 N44 1.365 . S
N45 H65 0.862 . S
C46 C41 1.501 . S
C46 H47 0.961 . S
C46 H48 0.961 . S
C46 H49 0.960 . S
H47 C46 0.961 . S
H48 C46 0.961 . S
H49 C46 0.960 . S
C50 N51 1.342 . S
C50 C54 1.401 . S
C50 C55 1.499 . S
N51 Co34 1.989 . S
N51 C50 1.342 . S
N51 N52 1.388 . S
N52 Co35 1.993 . S
N52 N51 1.388 . S
N52 C53 1.346 . S
C53 N52 1.346 . S
C53 C54 1.396 . S
C53 C63 1.510 . S
C54 C50 1.401 . S
C54 C53 1.396 . S
C55 C50 1.499 . S
C55 H56 0.959 . S
C55 H57 0.960 . S
C55 H58 0.961 . S
H56 C55 0.959 . S
H57 C55 0.960 . S
H58 C55 0.961 . S
O59 Co34 1.967 . S
O59 C67 1.258 . S
O60 Co35 1.941 . S
O60 C67 1.266 . S
H61 C63 0.959 . S
H62 C63 0.961 . S
C63 C53 1.510 . S
C63 H61 0.959 . S
C63 H62 0.961 . S
C63 H64 0.960 . S
H64 C63 0.960 . S
H65 N45 0.862 . S
O66 Co34 1.920 . S
O66 C39 1.289 . S
C67 O59 1.258 . S
C67 O60 1.266 . S
Co68 O71 1.970 . S
Co68 N85 1.989 . S
Co68 O93 1.967 . S
Co68 O100 1.920 . S
Co69 O72 1.966 . S
Co69 N78 2.022 . S
Co69 N86 1.993 . S
Co69 O94 1.941 . S
C70 O71 1.258 . S
C70 O72 1.263 . S
O71 Co68 1.970 . S
O71 C70 1.258 . S
O72 Co69 1.966 . S
O72 C70 1.263 . S
C73 O74 1.235 . S
C73 O100 1.289 . S
O74 C73 1.235 . S
C75 C77 1.400 . S
C75 N78 1.351 . S
C75 C80 1.501 . S
C76 C77 1.387 . S
C76 N79 1.341 . S
C77 C75 1.400 . S
C77 C76 1.387 . S
N78 Co69 2.022 . S
N78 C75 1.351 . S
N78 N79 1.365 . S
N79 C76 1.341 . S
N79 N78 1.365 . S
N79 H99 0.862 . S
C80 C75 1.501 . S
C80 H81 0.961 . S
C80 H82 0.961 . S
C80 H83 0.960 . S
H81 C80 0.961 . S
H82 C80 0.961 . S
H83 C80 0.960 . S
C84 N85 1.342 . S
C84 C88 1.401 . S
C84 C89 1.499 . S
N85 Co68 1.989 . S
N85 C84 1.342 . S
N85 N86 1.388 . S
N86 Co69 1.993 . S
N86 N85 1.388 . S
N86 C87 1.346 . S
C87 N86 1.346 . S
C87 C88 1.396 . S
C87 C97 1.510 . S
C88 C84 1.401 . S
C88 C87 1.396 . S
C89 C84 1.499 . S
C89 H90 0.959 . S
C89 H91 0.960 . S
C89 H92 0.961 . S
H90 C89 0.959 . S
H91 C89 0.960 . S
H92 C89 0.961 . S
O93 Co68 1.967 . S
O93 C101 1.258 . S
O94 Co69 1.941 . S
O94 C101 1.266 . S
H95 C97 0.959 . S
H96 C97 0.961 . S
C97 C87 1.510 . S
C97 H95 0.959 . S
C97 H96 0.961 . S
C97 H98 0.960 . S
H98 C97 0.960 . S
H99 N79 0.862 . S
O100 Co68 1.920 . S
O100 C73 1.289 . S
C101 O93 1.258 . S
C101 O94 1.266 . S
Co102 O105 1.970 . S
Co102 N119 1.989 . S
Co102 O127 1.967 . S
Co102 O134 1.920 . S
Co103 O106 1.966 . S
Co103 N112 2.022 . S
Co103 N120 1.993 . S
Co103 O128 1.941 . S
C104 O105 1.258 . S
C104 O106 1.263 . S
O105 Co102 1.970 . S
O105 C104 1.258 . S
O106 Co103 1.966 . S
O106 C104 1.263 . S
C107 O108 1.235 . S
C107 O134 1.289 . S
O108 C107 1.235 . S
C109 C111 1.400 . S
C109 N112 1.351 . S
C109 C114 1.501 . S
C110 C111 1.387 . S
C110 N113 1.341 . S
C111 C109 1.400 . S
C111 C110 1.387 . S
N112 Co103 2.022 . S
N112 C109 1.351 . S
N112 N113 1.365 . S
N113 C110 1.341 . S
N113 N112 1.365 . S
N113 H133 0.862 . S
C114 C109 1.501 . S
C114 H115 0.961 . S
C114 H116 0.961 . S
C114 H117 0.960 . S
H115 C114 0.961 . S
H116 C114 0.961 . S
H117 C114 0.960 . S
C118 N119 1.342 . S
C118 C122 1.401 . S
C118 C123 1.499 . S
N119 Co102 1.989 . S
N119 C118 1.342 . S
N119 N120 1.388 . S
N120 Co103 1.993 . S
N120 N119 1.388 . S
N120 C121 1.346 . S
C121 N120 1.346 . S
C121 C122 1.396 . S
C121 C131 1.510 . S
C122 C118 1.401 . S
C122 C121 1.396 . S
C123 C118 1.499 . S
C123 H124 0.959 . S
C123 H125 0.960 . S
C123 H126 0.961 . S
H124 C123 0.959 . S
H125 C123 0.960 . S
H126 C123 0.961 . S
O127 Co102 1.967 . S
O127 C135 1.258 . S
O128 Co103 1.941 . S
O128 C135 1.266 . S
H129 C131 0.959 . S
H130 C131 0.961 . S
C131 C121 1.510 . S
C131 H129 0.959 . S
C131 H130 0.961 . S
C131 H132 0.960 . S
H132 C131 0.960 . S
H133 N113 0.862 . S
O134 Co102 1.920 . S
O134 C107 1.289 . S
C135 O127 1.258 . S
C135 O128 1.266 . S
Co136 O139 1.970 . S
Co136 N153 1.989 . S
Co136 O161 1.967 . S
Co136 O168 1.920 . S
Co137 O140 1.966 . S
Co137 N146 2.022 . S
Co137 N154 1.993 . S
Co137 O162 1.941 . S
C138 O139 1.258 . S
C138 O140 1.263 . S
O139 Co136 1.970 . S
O139 C138 1.258 . S
O140 Co137 1.966 . S
O140 C138 1.263 . S
C141 O142 1.235 . S
C141 O168 1.289 . S
O142 C141 1.235 . S
C143 C145 1.400 . S
C143 N146 1.351 . S
C143 C148 1.501 . S
C144 C145 1.387 . S
C144 N147 1.341 . S
C145 C143 1.400 . S
C145 C144 1.387 . S
N146 Co137 2.022 . S
N146 C143 1.351 . S
N146 N147 1.365 . S
N147 C144 1.341 . S
N147 N146 1.365 . S
N147 H167 0.862 . S
C148 C143 1.501 . S
C148 H149 0.961 . S
C148 H150 0.961 . S
C148 H151 0.960 . S
H149 C148 0.961 . S
H150 C148 0.961 . S
H151 C148 0.960 . S
C152 N153 1.342 . S
C152 C156 1.401 . S
C152 C157 1.499 . S
N153 Co136 1.989 . S
N153 C152 1.342 . S
N153 N154 1.388 . S
N154 Co137 1.993 . S
N154 N153 1.388 . S
N154 C155 1.346 . S
C155 N154 1.346 . S
C155 C156 1.396 . S
C155 C165 1.510 . S
C156 C152 1.401 . S
C156 C155 1.396 . S
C157 C152 1.499 . S
C157 H158 0.959 . S
C157 H159 0.960 . S
C157 H160 0.961 . S
H158 C157 0.959 . S
H159 C157 0.960 . S
H160 C157 0.961 . S
O161 Co136 1.967 . S
O161 C169 1.258 . S
O162 Co137 1.941 . S
O162 C169 1.266 . S
H163 C165 0.959 . S
H164 C165 0.961 . S
C165 C155 1.510 . S
C165 H163 0.959 . S
C165 H164 0.961 . S
C165 H166 0.960 . S
H166 C165 0.960 . S
H167 N147 0.862 . S
O168 Co136 1.920 . S
O168 C141 1.289 . S
C169 O161 1.258 . S
C169 O162 1.266 . S
Co170 O173 1.970 . S
Co170 N187 1.989 . S
Co170 O195 1.967 . S
Co170 O202 1.920 . S
Co171 O174 1.966 . S
Co171 N180 2.022 . S
Co171 N188 1.993 . S
Co171 O196 1.941 . S
C172 O173 1.258 . S
C172 O174 1.263 . S
O173 Co170 1.970 . S
O173 C172 1.258 . S
O174 Co171 1.966 . S
O174 C172 1.263 . S
C175 O176 1.235 . S
C175 O202 1.289 . S
O176 C175 1.235 . S
C177 C179 1.400 . S
C177 N180 1.351 . S
C177 C182 1.501 . S
C178 C179 1.387 . S
C178 N181 1.341 . S
C179 C177 1.400 . S
C179 C178 1.387 . S
N180 Co171 2.022 . S
N180 C177 1.351 . S
N180 N181 1.365 . S
N181 C178 1.341 . S
N181 N180 1.365 . S
N181 H201 0.862 . S
C182 C177 1.501 . S
C182 H183 0.961 . S
C182 H184 0.961 . S
C182 H185 0.960 . S
H183 C182 0.961 . S
H184 C182 0.961 . S
H185 C182 0.960 . S
C186 N187 1.342 . S
C186 C190 1.401 . S
C186 C191 1.499 . S
N187 Co170 1.989 . S
N187 C186 1.342 . S
N187 N188 1.388 . S
N188 Co171 1.993 . S
N188 N187 1.388 . S
N188 C189 1.346 . S
C189 N188 1.346 . S
C189 C190 1.396 . S
C189 C199 1.510 . S
C190 C186 1.401 . S
C190 C189 1.396 . S
C191 C186 1.499 . S
C191 H192 0.959 . S
C191 H193 0.960 . S
C191 H194 0.961 . S
H192 C191 0.959 . S
H193 C191 0.960 . S
H194 C191 0.961 . S
O195 Co170 1.967 . S
O195 C203 1.258 . S
O196 Co171 1.941 . S
O196 C203 1.266 . S
H197 C199 0.959 . S
H198 C199 0.961 . S
C199 C189 1.510 . S
C199 H197 0.959 . S
C199 H198 0.961 . S
C199 H200 0.960 . S
H200 C199 0.960 . S
H201 N181 0.862 . S
O202 Co170 1.920 . S
O202 C175 1.289 . S
C203 O195 1.258 . S
C203 O196 1.266 . S
Co204 O207 1.970 . S
Co204 N221 1.989 . S
Co204 O229 1.967 . S
Co204 O236 1.920 . S
Co205 O208 1.966 . S
Co205 N214 2.022 . S
Co205 N222 1.993 . S
Co205 O230 1.941 . S
C206 O207 1.258 . S
C206 O208 1.263 . S
O207 Co204 1.970 . S
O207 C206 1.258 . S
O208 Co205 1.966 . S
O208 C206 1.263 . S
C209 O210 1.235 . S
C209 O236 1.289 . S
O210 C209 1.235 . S
C211 C213 1.400 . S
C211 N214 1.351 . S
C211 C216 1.501 . S
C212 C213 1.387 . S
C212 N215 1.341 . S
C213 C211 1.400 . S
C213 C212 1.387 . S
N214 Co205 2.022 . S
N214 C211 1.351 . S
N214 N215 1.365 . S
N215 C212 1.341 . S
N215 N214 1.365 . S
N215 H235 0.862 . S
C216 C211 1.501 . S
C216 H217 0.961 . S
C216 H218 0.961 . S
C216 H219 0.960 . S
H217 C216 0.961 . S
H218 C216 0.961 . S
H219 C216 0.960 . S
C220 N221 1.342 . S
C220 C224 1.401 . S
C220 C225 1.499 . S
N221 Co204 1.989 . S
N221 C220 1.342 . S
N221 N222 1.388 . S
N222 Co205 1.993 . S
N222 N221 1.388 . S
N222 C223 1.346 . S
C223 N222 1.346 . S
C223 C224 1.396 . S
C223 C233 1.510 . S
C224 C220 1.401 . S
C224 C223 1.396 . S
C225 C220 1.499 . S
C225 H226 0.959 . S
C225 H227 0.960 . S
C225 H228 0.961 . S
H226 C225 0.959 . S
H227 C225 0.960 . S
H228 C225 0.961 . S
O229 Co204 1.967 . S
O229 C237 1.258 . S
O230 Co205 1.941 . S
O230 C237 1.266 . S
H231 C233 0.959 . S
H232 C233 0.961 . S
C233 C223 1.510 . S
C233 H231 0.959 . S
C233 H232 0.961 . S
C233 H234 0.960 . S
H234 C233 0.960 . S
H235 N215 0.862 . S
O236 Co204 1.920 . S
O236 C209 1.289 . S
C237 O229 1.258 . S
C237 O230 1.266 . S
Co238 O241 1.970 . S
Co238 N255 1.989 . S
Co238 O263 1.967 . S
Co238 O270 1.920 . S
Co239 O242 1.966 . S
Co239 N248 2.022 . S
Co239 N256 1.993 . S
Co239 O264 1.941 . S
C240 O241 1.258 . S
C240 O242 1.263 . S
O241 Co238 1.970 . S
O241 C240 1.258 . S
O242 Co239 1.966 . S
O242 C240 1.263 . S
C243 O244 1.235 . S
C243 O270 1.289 . S
O244 C243 1.235 . S
C245 C247 1.400 . S
C245 N248 1.351 . S
C245 C250 1.501 . S
C246 C247 1.387 . S
C246 N249 1.341 . S
C247 C245 1.400 . S
C247 C246 1.387 . S
N248 Co239 2.022 . S
N248 C245 1.351 . S
N248 N249 1.365 . S
N249 C246 1.341 . S
N249 N248 1.365 . S
N249 H269 0.862 . S
C250 C245 1.501 . S
C250 H251 0.961 . S
C250 H252 0.961 . S
C250 H253 0.960 . S
H251 C250 0.961 . S
H252 C250 0.961 . S
H253 C250 0.960 . S
C254 N255 1.342 . S
C254 C258 1.401 . S
C254 C259 1.499 . S
N255 Co238 1.989 . S
N255 C254 1.342 . S
N255 N256 1.388 . S
N256 Co239 1.993 . S
N256 N255 1.388 . S
N256 C257 1.346 . S
C257 N256 1.346 . S
C257 C258 1.396 . S
C257 C267 1.510 . S
C258 C254 1.401 . S
C258 C257 1.396 . S
C259 C254 1.499 . S
C259 H260 0.959 . S
C259 H261 0.960 . S
C259 H262 0.961 . S
H260 C259 0.959 . S
H261 C259 0.960 . S
H262 C259 0.961 . S
O263 Co238 1.967 . S
O263 C271 1.258 . S
O264 Co239 1.941 . S
O264 C271 1.266 . S
H265 C267 0.959 . S
H266 C267 0.961 . S
C267 C257 1.510 . S
C267 H265 0.959 . S
C267 H266 0.961 . S
C267 H268 0.960 . S
H268 C267 0.960 . S
H269 N249 0.862 . S
O270 Co238 1.920 . S
O270 C243 1.289 . S
C271 O263 1.258 . S
C271 O264 1.266 . S
Co272 O275 1.970 . S
Co272 N289 1.989 . S
Co272 O297 1.967 . S
Co272 O304 1.920 . S
Co273 O276 1.966 . S
Co273 N282 2.022 . S
Co273 N290 1.993 . S
Co273 O298 1.941 . S
C274 O275 1.258 . S
C274 O276 1.263 . S
O275 Co272 1.970 . S
O275 C274 1.258 . S
O276 Co273 1.966 . S
O276 C274 1.263 . S
C277 O278 1.235 . S
C277 O304 1.289 . S
O278 C277 1.235 . S
C279 C281 1.400 . S
C279 N282 1.351 . S
C279 C284 1.501 . S
C280 C281 1.387 . S
C280 N283 1.341 . S
C281 C279 1.400 . S
C281 C280 1.387 . S
N282 Co273 2.022 . S
N282 C279 1.351 . S
N282 N283 1.365 . S
N283 C280 1.341 . S
N283 N282 1.365 . S
N283 H303 0.862 . S
C284 C279 1.501 . S
C284 H285 0.961 . S
C284 H286 0.961 . S
C284 H287 0.960 . S
H285 C284 0.961 . S
H286 C284 0.961 . S
H287 C284 0.960 . S
C288 N289 1.342 . S
C288 C292 1.401 . S
C288 C293 1.499 . S
N289 Co272 1.989 . S
N289 C288 1.342 . S
N289 N290 1.388 . S
N290 Co273 1.993 . S
N290 N289 1.388 . S
N290 C291 1.346 . S
C291 N290 1.346 . S
C291 C292 1.396 . S
C291 C301 1.510 . S
C292 C288 1.401 . S
C292 C291 1.396 . S
C293 C288 1.499 . S
C293 H294 0.959 . S
C293 H295 0.960 . S
C293 H296 0.961 . S
H294 C293 0.959 . S
H295 C293 0.960 . S
H296 C293 0.961 . S
O297 Co272 1.967 . S
O297 C305 1.258 . S
O298 Co273 1.941 . S
O298 C305 1.266 . S
H299 C301 0.959 . S
H300 C301 0.961 . S
C301 C291 1.510 . S
C301 H299 0.959 . S
C301 H300 0.961 . S
C301 H302 0.960 . S
H302 C301 0.960 . S
H303 N283 0.862 . S
O304 Co272 1.920 . S
O304 C277 1.289 . S
C305 O297 1.258 . S
C305 O298 1.266 . S
Co306 O309 1.970 . S
Co306 N323 1.989 . S
Co306 O331 1.967 . S
Co306 O338 1.920 . S
Co307 O310 1.966 . S
Co307 N316 2.022 . S
Co307 N324 1.993 . S
Co307 O332 1.941 . S
C308 O309 1.258 . S
C308 O310 1.263 . S
O309 Co306 1.970 . S
O309 C308 1.258 . S
O310 Co307 1.966 . S
O310 C308 1.263 . S
C311 O312 1.235 . S
C311 O338 1.289 . S
O312 C311 1.235 . S
C313 C315 1.400 . S
C313 N316 1.351 . S
C313 C318 1.501 . S
C314 C315 1.387 . S
C314 N317 1.341 . S
C315 C313 1.400 . S
C315 C314 1.387 . S
N316 Co307 2.022 . S
N316 C313 1.351 . S
N316 N317 1.365 . S
N317 C314 1.341 . S
N317 N316 1.365 . S
N317 H337 0.862 . S
C318 C313 1.501 . S
C318 H319 0.961 . S
C318 H320 0.961 . S
C318 H321 0.960 . S
H319 C318 0.961 . S
H320 C318 0.961 . S
H321 C318 0.960 . S
C322 N323 1.342 . S
C322 C326 1.401 . S
C322 C327 1.499 . S
N323 Co306 1.989 . S
N323 C322 1.342 . S
N323 N324 1.388 . S
N324 Co307 1.993 . S
N324 N323 1.388 . S
N324 C325 1.346 . S
C325 N324 1.346 . S
C325 C326 1.396 . S
C325 C335 1.510 . S
C326 C322 1.401 . S
C326 C325 1.396 . S
C327 C322 1.499 . S
C327 H328 0.959 . S
C327 H329 0.960 . S
C327 H330 0.961 . S
H328 C327 0.959 . S
H329 C327 0.960 . S
H330 C327 0.961 . S
O331 Co306 1.967 . S
O331 C339 1.258 . S
O332 Co307 1.941 . S
O332 C339 1.266 . S
H333 C335 0.959 . S
H334 C335 0.961 . S
C335 C325 1.510 . S
C335 H333 0.959 . S
C335 H334 0.961 . S
C335 H336 0.960 . S
H336 C335 0.960 . S
H337 N317 0.862 . S
O338 Co306 1.920 . S
O338 C311 1.289 . S
C339 O331 1.258 . S
C339 O332 1.266 . S
Co340 O343 1.970 . S
Co340 N357 1.989 . S
Co340 O365 1.967 . S
Co340 O372 1.920 . S
Co341 O344 1.966 . S
Co341 N350 2.022 . S
Co341 N358 1.993 . S
Co341 O366 1.941 . S
C342 O343 1.258 . S
C342 O344 1.263 . S
O343 Co340 1.970 . S
O343 C342 1.258 . S
O344 Co341 1.966 . S
O344 C342 1.263 . S
C345 O346 1.235 . S
C345 O372 1.289 . S
O346 C345 1.235 . S
C347 C349 1.400 . S
C347 N350 1.351 . S
C347 C352 1.501 . S
C348 C349 1.387 . S
C348 N351 1.341 . S
C349 C347 1.400 . S
C349 C348 1.387 . S
N350 Co341 2.022 . S
N350 C347 1.351 . S
N350 N351 1.365 . S
N351 C348 1.341 . S
N351 N350 1.365 . S
N351 H371 0.862 . S
C352 C347 1.501 . S
C352 H353 0.961 . S
C352 H354 0.961 . S
C352 H355 0.960 . S
H353 C352 0.961 . S
H354 C352 0.961 . S
H355 C352 0.960 . S
C356 N357 1.342 . S
C356 C360 1.401 . S
C356 C361 1.499 . S
N357 Co340 1.989 . S
N357 C356 1.342 . S
N357 N358 1.388 . S
N358 Co341 1.993 . S
N358 N357 1.388 . S
N358 C359 1.346 . S
C359 N358 1.346 . S
C359 C360 1.396 . S
C359 C369 1.510 . S
C360 C356 1.401 . S
C360 C359 1.396 . S
C361 C356 1.499 . S
C361 H362 0.959 . S
C361 H363 0.960 . S
C361 H364 0.961 . S
H362 C361 0.959 . S
H363 C361 0.960 . S
H364 C361 0.961 . S
O365 Co340 1.967 . S
O365 C373 1.258 . S
O366 Co341 1.941 . S
O366 C373 1.266 . S
H367 C369 0.959 . S
H368 C369 0.961 . S
C369 C359 1.510 . S
C369 H367 0.959 . S
C369 H368 0.961 . S
C369 H370 0.960 . S
H370 C369 0.960 . S
H371 N351 0.862 . S
O372 Co340 1.920 . S
O372 C345 1.289 . S
C373 O365 1.258 . S
C373 O366 1.266 . S
Co374 O377 1.970 . S
Co374 N391 1.989 . S
Co374 O399 1.967 . S
Co374 O406 1.920 . S
Co375 O378 1.966 . S
Co375 N384 2.022 . S
Co375 N392 1.993 . S
Co375 O400 1.941 . S
C376 O377 1.258 . S
C376 O378 1.263 . S
O377 Co374 1.970 . S
O377 C376 1.258 . S
O378 Co375 1.966 . S
O378 C376 1.263 . S
C379 O380 1.235 . S
C379 O406 1.289 . S
O380 C379 1.235 . S
C381 C383 1.400 . S
C381 N384 1.351 . S
C381 C386 1.501 . S
C382 C383 1.387 . S
C382 N385 1.341 . S
C383 C381 1.400 . S
C383 C382 1.387 . S
N384 Co375 2.022 . S
N384 C381 1.351 . S
N384 N385 1.365 . S
N385 C382 1.341 . S
N385 N384 1.365 . S
N385 H405 0.862 . S
C386 C381 1.501 . S
C386 H387 0.961 . S
C386 H388 0.961 . S
C386 H389 0.960 . S
H387 C386 0.961 . S
H388 C386 0.961 . S
H389 C386 0.960 . S
C390 N391 1.342 . S
C390 C394 1.401 . S
C390 C395 1.499 . S
N391 Co374 1.989 . S
N391 C390 1.342 . S
N391 N392 1.388 . S
N392 Co375 1.993 . S
N392 N391 1.388 . S
N392 C393 1.346 . S
C393 N392 1.346 . S
C393 C394 1.396 . S
C393 C403 1.510 . S
C394 C390 1.401 . S
C394 C393 1.396 . S
C395 C390 1.499 . S
C395 H396 0.959 . S
C395 H397 0.960 . S
C395 H398 0.961 . S
H396 C395 0.959 . S
H397 C395 0.960 . S
H398 C395 0.961 . S
O399 Co374 1.967 . S
O399 C407 1.258 . S
O400 Co375 1.941 . S
O400 C407 1.266 . S
H401 C403 0.959 . S
H402 C403 0.961 . S
C403 C393 1.510 . S
C403 H401 0.959 . S
C403 H402 0.961 . S
C403 H404 0.960 . S
H404 C403 0.960 . S
H405 N385 0.862 . S
O406 Co374 1.920 . S
O406 C379 1.289 . S
C407 O399 1.258 . S
C407 O400 1.266 . S
Co408 O411 1.970 . S
Co408 N425 1.989 . S
Co408 O433 1.967 . S
Co408 O440 1.920 . S
Co409 O412 1.966 . S
Co409 N418 2.022 . S
Co409 N426 1.993 . S
Co409 O434 1.941 . S
C410 O411 1.258 . S
C410 O412 1.263 . S
O411 Co408 1.970 . S
O411 C410 1.258 . S
O412 Co409 1.966 . S
O412 C410 1.263 . S
C413 O414 1.235 . S
C413 O440 1.289 . S
O414 C413 1.235 . S
C415 C417 1.400 . S
C415 N418 1.351 . S
C415 C420 1.501 . S
C416 C417 1.387 . S
C416 N419 1.341 . S
C417 C415 1.400 . S
C417 C416 1.387 . S
N418 Co409 2.022 . S
N418 C415 1.351 . S
N418 N419 1.365 . S
N419 C416 1.341 . S
N419 N418 1.365 . S
N419 H439 0.862 . S
C420 C415 1.501 . S
C420 H421 0.961 . S
C420 H422 0.961 . S
C420 H423 0.960 . S
H421 C420 0.961 . S
H422 C420 0.961 . S
H423 C420 0.960 . S
C424 N425 1.342 . S
C424 C428 1.401 . S
C424 C429 1.499 . S
N425 Co408 1.989 . S
N425 C424 1.342 . S
N425 N426 1.388 . S
N426 Co409 1.993 . S
N426 N425 1.388 . S
N426 C427 1.346 . S
C427 N426 1.346 . S
C427 C428 1.396 . S
C427 C437 1.510 . S
C428 C424 1.401 . S
C428 C427 1.396 . S
C429 C424 1.499 . S
C429 H430 0.959 . S
C429 H431 0.960 . S
C429 H432 0.961 . S
H430 C429 0.959 . S
H431 C429 0.960 . S
H432 C429 0.961 . S
O433 Co408 1.967 . S
O433 C441 1.258 . S
O434 Co409 1.941 . S
O434 C441 1.266 . S
H435 C437 0.959 . S
H436 C437 0.961 . S
C437 C427 1.510 . S
C437 H435 0.959 . S
C437 H436 0.961 . S
C437 H438 0.960 . S
H438 C437 0.960 . S
H439 N419 0.862 . S
O440 Co408 1.920 . S
O440 C413 1.289 . S
C441 O433 1.258 . S
C441 O434 1.266 . S
Co442 O445 1.970 . S
Co442 N459 1.989 . S
Co442 O467 1.967 . S
Co442 O474 1.920 . S
Co443 O446 1.966 . S
Co443 N452 2.022 . S
Co443 N460 1.993 . S
Co443 O468 1.941 . S
C444 O445 1.258 . S
C444 O446 1.263 . S
O445 Co442 1.970 . S
O445 C444 1.258 . S
O446 Co443 1.966 . S
O446 C444 1.263 . S
C447 O448 1.235 . S
C447 O474 1.289 . S
O448 C447 1.235 . S
C449 C451 1.400 . S
C449 N452 1.351 . S
C449 C454 1.501 . S
C450 C451 1.387 . S
C450 N453 1.341 . S
C451 C449 1.400 . S
C451 C450 1.387 . S
N452 Co443 2.022 . S
N452 C449 1.351 . S
N452 N453 1.365 . S
N453 C450 1.341 . S
N453 N452 1.365 . S
N453 H473 0.862 . S
C454 C449 1.501 . S
C454 H455 0.961 . S
C454 H456 0.961 . S
C454 H457 0.960 . S
H455 C454 0.961 . S
H456 C454 0.961 . S
H457 C454 0.960 . S
C458 N459 1.342 . S
C458 C462 1.401 . S
C458 C463 1.499 . S
N459 Co442 1.989 . S
N459 C458 1.342 . S
N459 N460 1.388 . S
N460 Co443 1.993 . S
N460 N459 1.388 . S
N460 C461 1.346 . S
C461 N460 1.346 . S
C461 C462 1.396 . S
C461 C471 1.510 . S
C462 C458 1.401 . S
C462 C461 1.396 . S
C463 C458 1.499 . S
C463 H464 0.959 . S
C463 H465 0.960 . S
C463 H466 0.961 . S
H464 C463 0.959 . S
H465 C463 0.960 . S
H466 C463 0.961 . S
O467 Co442 1.967 . S
O467 C475 1.258 . S
O468 Co443 1.941 . S
O468 C475 1.266 . S
H469 C471 0.959 . S
H470 C471 0.961 . S
C471 C461 1.510 . S
C471 H469 0.959 . S
C471 H470 0.961 . S
C471 H472 0.960 . S
H472 C471 0.960 . S
H473 N453 0.862 . S
O474 Co442 1.920 . S
O474 C447 1.289 . S
C475 O467 1.258 . S
C475 O468 1.266 . S
Co476 O479 1.970 . S
Co476 N493 1.989 . S
Co476 O501 1.967 . S
Co476 O508 1.920 . S
Co477 O480 1.966 . S
Co477 N486 2.022 . S
Co477 N494 1.993 . S
Co477 O502 1.941 . S
C478 O479 1.258 . S
C478 O480 1.263 . S
O479 Co476 1.970 . S
O479 C478 1.258 . S
O480 Co477 1.966 . S
O480 C478 1.263 . S
C481 O482 1.235 . S
C481 O508 1.289 . S
O482 C481 1.235 . S
C483 C485 1.400 . S
C483 N486 1.351 . S
C483 C488 1.501 . S
C484 C485 1.387 . S
C484 N487 1.341 . S
C485 C483 1.400 . S
C485 C484 1.387 . S
N486 Co477 2.022 . S
N486 C483 1.351 . S
N486 N487 1.365 . S
N487 C484 1.341 . S
N487 N486 1.365 . S
N487 H507 0.862 . S
C488 C483 1.501 . S
C488 H489 0.961 . S
C488 H490 0.961 . S
C488 H491 0.960 . S
H489 C488 0.961 . S
H490 C488 0.961 . S
H491 C488 0.960 . S
C492 N493 1.342 . S
C492 C496 1.401 . S
C492 C497 1.499 . S
N493 Co476 1.989 . S
N493 C492 1.342 . S
N493 N494 1.388 . S
N494 Co477 1.993 . S
N494 N493 1.388 . S
N494 C495 1.346 . S
C495 N494 1.346 . S
C495 C496 1.396 . S
C495 C505 1.510 . S
C496 C492 1.401 . S
C496 C495 1.396 . S
C497 C492 1.499 . S
C497 H498 0.959 . S
C497 H499 0.960 . S
C497 H500 0.961 . S
H498 C497 0.959 . S
H499 C497 0.960 . S
H500 C497 0.961 . S
O501 Co476 1.967 . S
O501 C509 1.258 . S
O502 Co477 1.941 . S
O502 C509 1.266 . S
H503 C505 0.959 . S
H504 C505 0.961 . S
C505 C495 1.510 . S
C505 H503 0.959 . S
C505 H504 0.961 . S
C505 H506 0.960 . S
H506 C505 0.960 . S
H507 N487 0.862 . S
O508 Co476 1.920 . S
O508 C481 1.289 . S
C509 O501 1.258 . S
C509 O502 1.266 . S
Co510 O513 1.970 . S
Co510 N527 1.989 . S
Co510 O535 1.967 . S
Co510 O542 1.920 . S
Co511 O514 1.966 . S
Co511 N520 2.022 . S
Co511 N528 1.993 . S
Co511 O536 1.941 . S
C512 O513 1.258 . S
C512 O514 1.263 . S
O513 Co510 1.970 . S
O513 C512 1.258 . S
O514 Co511 1.966 . S
O514 C512 1.263 . S
C515 O516 1.235 . S
C515 O542 1.289 . S
O516 C515 1.235 . S
C517 C519 1.400 . S
C517 N520 1.351 . S
C517 C522 1.501 . S
C518 C519 1.387 . S
C518 N521 1.341 . S
C519 C517 1.400 . S
C519 C518 1.387 . S
N520 Co511 2.022 . S
N520 C517 1.351 . S
N520 N521 1.365 . S
N521 C518 1.341 . S
N521 N520 1.365 . S
N521 H541 0.862 . S
C522 C517 1.501 . S
C522 H523 0.961 . S
C522 H524 0.961 . S
C522 H525 0.960 . S
H523 C522 0.961 . S
H524 C522 0.961 . S
H525 C522 0.960 . S
C526 N527 1.342 . S
C526 C530 1.401 . S
C526 C531 1.499 . S
N527 Co510 1.989 . S
N527 C526 1.342 . S
N527 N528 1.388 . S
N528 Co511 1.993 . S
N528 N527 1.388 . S
N528 C529 1.346 . S
C529 N528 1.346 . S
C529 C530 1.396 . S
C529 C539 1.510 . S
C530 C526 1.401 . S
C530 C529 1.396 . S
C531 C526 1.499 . S
C531 H532 0.959 . S
C531 H533 0.960 . S
C531 H534 0.961 . S
H532 C531 0.959 . S
H533 C531 0.960 . S
H534 C531 0.961 . S
O535 Co510 1.967 . S
O535 C543 1.258 . S
O536 Co511 1.941 . S
O536 C543 1.266 . S
H537 C539 0.959 . S
H538 C539 0.961 . S
C539 C529 1.510 . S
C539 H537 0.959 . S
C539 H538 0.961 . S
C539 H540 0.960 . S
H540 C539 0.960 . S
H541 N521 0.862 . S
O542 Co510 1.920 . S
O542 C515 1.289 . S
C543 O535 1.258 . S
C543 O536 1.266 . S
Co544 O547 1.970 . S
Co544 N561 1.989 . S
Co544 O569 1.967 . S
Co544 O576 1.920 . S
Co545 O548 1.966 . S
Co545 N554 2.022 . S
Co545 N562 1.993 . S
Co545 O570 1.941 . S
C546 O547 1.258 . S
C546 O548 1.263 . S
O547 Co544 1.970 . S
O547 C546 1.258 . S
O548 Co545 1.966 . S
O548 C546 1.263 . S
C549 O550 1.235 . S
C549 O576 1.289 . S
O550 C549 1.235 . S
C551 C553 1.400 . S
C551 N554 1.351 . S
C551 C556 1.501 . S
C552 C553 1.387 . S
C552 N555 1.341 . S
C553 C551 1.400 . S
C553 C552 1.387 . S
N554 Co545 2.022 . S
N554 C551 1.351 . S
N554 N555 1.365 . S
N555 C552 1.341 . S
N555 N554 1.365 . S
N555 H575 0.862 . S
C556 C551 1.501 . S
C556 H557 0.961 . S
C556 H558 0.961 . S
C556 H559 0.960 . S
H557 C556 0.961 . S
H558 C556 0.961 . S
H559 C556 0.960 . S
C560 N561 1.342 . S
C560 C564 1.401 . S
C560 C565 1.499 . S
N561 Co544 1.989 . S
N561 C560 1.342 . S
N561 N562 1.388 . S
N562 Co545 1.993 . S
N562 N561 1.388 . S
N562 C563 1.346 . S
C563 N562 1.346 . S
C563 C564 1.396 . S
C563 C573 1.510 . S
C564 C560 1.401 . S
C564 C563 1.396 . S
C565 C560 1.499 . S
C565 H566 0.959 . S
C565 H567 0.960 . S
C565 H568 0.961 . S
H566 C565 0.959 . S
H567 C565 0.960 . S
H568 C565 0.961 . S
O569 Co544 1.967 . S
O569 C577 1.258 . S
O570 Co545 1.941 . S
O570 C577 1.266 . S
H571 C573 0.959 . S
H572 C573 0.961 . S
C573 C563 1.510 . S
C573 H571 0.959 . S
C573 H572 0.961 . S
C573 H574 0.960 . S
H574 C573 0.960 . S
H575 N555 0.862 . S
O576 Co544 1.920 . S
O576 C549 1.289 . S
C577 O569 1.258 . S
C577 O570 1.266 . S
Co578 O581 1.970 . S
Co578 N595 1.989 . S
Co578 O603 1.967 . S
Co578 O610 1.920 . S
Co579 O582 1.966 . S
Co579 N588 2.022 . S
Co579 N596 1.993 . S
Co579 O604 1.941 . S
C580 O581 1.258 . S
C580 O582 1.263 . S
O581 Co578 1.970 . S
O581 C580 1.258 . S
O582 Co579 1.966 . S
O582 C580 1.263 . S
C583 O584 1.235 . S
C583 O610 1.289 . S
O584 C583 1.235 . S
C585 C587 1.400 . S
C585 N588 1.351 . S
C585 C590 1.501 . S
C586 C587 1.387 . S
C586 N589 1.341 . S
C587 C585 1.400 . S
C587 C586 1.387 . S
N588 Co579 2.022 . S
N588 C585 1.351 . S
N588 N589 1.365 . S
N589 C586 1.341 . S
N589 N588 1.365 . S
N589 H609 0.862 . S
C590 C585 1.501 . S
C590 H591 0.961 . S
C590 H592 0.961 . S
C590 H593 0.960 . S
H591 C590 0.961 . S
H592 C590 0.961 . S
H593 C590 0.960 . S
C594 N595 1.342 . S
C594 C598 1.401 . S
C594 C599 1.499 . S
N595 Co578 1.989 . S
N595 C594 1.342 . S
N595 N596 1.388 . S
N596 Co579 1.993 . S
N596 N595 1.388 . S
N596 C597 1.346 . S
C597 N596 1.346 . S
C597 C598 1.396 . S
C597 C607 1.510 . S
C598 C594 1.401 . S
C598 C597 1.396 . S
C599 C594 1.499 . S
C599 H600 0.959 . S
C599 H601 0.960 . S
C599 H602 0.961 . S
H600 C599 0.959 . S
H601 C599 0.960 . S
H602 C599 0.961 . S
O603 Co578 1.967 . S
O603 C611 1.258 . S
O604 Co579 1.941 . S
O604 C611 1.266 . S
H605 C607 0.959 . S
H606 C607 0.961 . S
C607 C597 1.510 . S
C607 H605 0.959 . S
C607 H606 0.961 . S
C607 H608 0.960 . S
H608 C607 0.960 . S
H609 N589 0.862 . S
O610 Co578 1.920 . S
O610 C583 1.289 . S
C611 O603 1.258 . S
C611 O604 1.266 . S
Co612 O615 1.970 . S
Co612 N629 1.989 . S
Co612 O637 1.967 . S
Co612 O644 1.920 . S
Co613 O616 1.966 . S
Co613 N622 2.022 . S
Co613 N630 1.993 . S
Co613 O638 1.941 . S
C614 O615 1.258 . S
C614 O616 1.263 . S
O615 Co612 1.970 . S
O615 C614 1.258 . S
O616 Co613 1.966 . S
O616 C614 1.263 . S
C617 O618 1.235 . S
C617 O644 1.289 . S
O618 C617 1.235 . S
C619 C621 1.400 . S
C619 N622 1.351 . S
C619 C624 1.501 . S
C620 C621 1.387 . S
C620 N623 1.341 . S
C621 C619 1.400 . S
C621 C620 1.387 . S
N622 Co613 2.022 . S
N622 C619 1.351 . S
N622 N623 1.365 . S
N623 C620 1.341 . S
N623 N622 1.365 . S
N623 H643 0.862 . S
C624 C619 1.501 . S
C624 H625 0.961 . S
C624 H626 0.961 . S
C624 H627 0.960 . S
H625 C624 0.961 . S
H626 C624 0.961 . S
H627 C624 0.960 . S
C628 N629 1.342 . S
C628 C632 1.401 . S
C628 C633 1.499 . S
N629 Co612 1.989 . S
N629 C628 1.342 . S
N629 N630 1.388 . S
N630 Co613 1.993 . S
N630 N629 1.388 . S
N630 C631 1.346 . S
C631 N630 1.346 . S
C631 C632 1.396 . S
C631 C641 1.510 . S
C632 C628 1.401 . S
C632 C631 1.396 . S
C633 C628 1.499 . S
C633 H634 0.959 . S
C633 H635 0.960 . S
C633 H636 0.961 . S
H634 C633 0.959 . S
H635 C633 0.960 . S
H636 C633 0.961 . S
O637 Co612 1.967 . S
O637 C645 1.258 . S
O638 Co613 1.941 . S
O638 C645 1.266 . S
H639 C641 0.959 . S
H640 C641 0.961 . S
C641 C631 1.510 . S
C641 H639 0.959 . S
C641 H640 0.961 . S
C641 H642 0.960 . S
H642 C641 0.960 . S
H643 N623 0.862 . S
O644 Co612 1.920 . S
O644 C617 1.289 . S
C645 O637 1.258 . S
C645 O638 1.266 . S
Co646 O649 1.970 . S
Co646 N663 1.989 . S
Co646 O671 1.967 . S
Co646 O678 1.920 . S
Co647 O650 1.966 . S
Co647 N656 2.022 . S
Co647 N664 1.993 . S
Co647 O672 1.941 . S
C648 O649 1.258 . S
C648 O650 1.263 . S
O649 Co646 1.970 . S
O649 C648 1.258 . S
O650 Co647 1.966 . S
O650 C648 1.263 . S
C651 O652 1.235 . S
C651 O678 1.289 . S
O652 C651 1.235 . S
C653 C655 1.400 . S
C653 N656 1.351 . S
C653 C658 1.501 . S
C654 C655 1.387 . S
C654 N657 1.341 . S
C655 C653 1.400 . S
C655 C654 1.387 . S
N656 Co647 2.022 . S
N656 C653 1.351 . S
N656 N657 1.365 . S
N657 C654 1.341 . S
N657 N656 1.365 . S
N657 H677 0.862 . S
C658 C653 1.501 . S
C658 H659 0.961 . S
C658 H660 0.961 . S
C658 H661 0.960 . S
H659 C658 0.961 . S
H660 C658 0.961 . S
H661 C658 0.960 . S
C662 N663 1.342 . S
C662 C666 1.401 . S
C662 C667 1.499 . S
N663 Co646 1.989 . S
N663 C662 1.342 . S
N663 N664 1.388 . S
N664 Co647 1.993 . S
N664 N663 1.388 . S
N664 C665 1.346 . S
C665 N664 1.346 . S
C665 C666 1.396 . S
C665 C675 1.510 . S
C666 C662 1.401 . S
C666 C665 1.396 . S
C667 C662 1.499 . S
C667 H668 0.959 . S
C667 H669 0.960 . S
C667 H670 0.961 . S
H668 C667 0.959 . S
H669 C667 0.960 . S
H670 C667 0.961 . S
O671 Co646 1.967 . S
O671 C679 1.258 . S
O672 Co647 1.941 . S
O672 C679 1.266 . S
H673 C675 0.959 . S
H674 C675 0.961 . S
C675 C665 1.510 . S
C675 H673 0.959 . S
C675 H674 0.961 . S
C675 H676 0.960 . S
H676 C675 0.960 . S
H677 N657 0.862 . S
O678 Co646 1.920 . S
O678 C651 1.289 . S
C679 O671 1.258 . S
C679 O672 1.266 . S
Co680 O683 1.970 . S
Co680 N697 1.989 . S
Co680 O705 1.967 . S
Co680 O712 1.920 . S
Co681 O684 1.966 . S
Co681 N690 2.022 . S
Co681 N698 1.993 . S
Co681 O706 1.941 . S
C682 O683 1.258 . S
C682 O684 1.263 . S
O683 Co680 1.970 . S
O683 C682 1.258 . S
O684 Co681 1.966 . S
O684 C682 1.263 . S
C685 O686 1.235 . S
C685 O712 1.289 . S
O686 C685 1.235 . S
C687 C689 1.400 . S
C687 N690 1.351 . S
C687 C692 1.501 . S
C688 C689 1.387 . S
C688 N691 1.341 . S
C689 C687 1.400 . S
C689 C688 1.387 . S
N690 Co681 2.022 . S
N690 C687 1.351 . S
N690 N691 1.365 . S
N691 C688 1.341 . S
N691 N690 1.365 . S
N691 H711 0.862 . S
C692 C687 1.501 . S
C692 H693 0.961 . S
C692 H694 0.961 . S
C692 H695 0.960 . S
H693 C692 0.961 . S
H694 C692 0.961 . S
H695 C692 0.960 . S
C696 N697 1.342 . S
C696 C700 1.401 . S
C696 C701 1.499 . S
N697 Co680 1.989 . S
N697 C696 1.342 . S
N697 N698 1.388 . S
N698 Co681 1.993 . S
N698 N697 1.388 . S
N698 C699 1.346 . S
C699 N698 1.346 . S
C699 C700 1.396 . S
C699 C709 1.510 . S
C700 C696 1.401 . S
C700 C699 1.396 . S
C701 C696 1.499 . S
C701 H702 0.959 . S
C701 H703 0.960 . S
C701 H704 0.961 . S
H702 C701 0.959 . S
H703 C701 0.960 . S
H704 C701 0.961 . S
O705 Co680 1.967 . S
O705 C713 1.258 . S
O706 Co681 1.941 . S
O706 C713 1.266 . S
H707 C709 0.959 . S
H708 C709 0.961 . S
C709 C699 1.510 . S
C709 H707 0.959 . S
C709 H708 0.961 . S
C709 H710 0.960 . S
H710 C709 0.960 . S
H711 N691 0.862 . S
O712 Co680 1.920 . S
O712 C685 1.289 . S
C713 O705 1.258 . S
C713 O706 1.266 . S
Co714 O717 1.970 . S
Co714 N731 1.989 . S
Co714 O739 1.967 . S
Co714 O746 1.920 . S
Co715 O718 1.966 . S
Co715 N724 2.022 . S
Co715 N732 1.993 . S
Co715 O740 1.941 . S
C716 O717 1.258 . S
C716 O718 1.263 . S
O717 Co714 1.970 . S
O717 C716 1.258 . S
O718 Co715 1.966 . S
O718 C716 1.263 . S
C719 O720 1.235 . S
C719 O746 1.289 . S
O720 C719 1.235 . S
C721 C723 1.400 . S
C721 N724 1.351 . S
C721 C726 1.501 . S
C722 C723 1.387 . S
C722 N725 1.341 . S
C723 C721 1.400 . S
C723 C722 1.387 . S
N724 Co715 2.022 . S
N724 C721 1.351 . S
N724 N725 1.365 . S
N725 C722 1.341 . S
N725 N724 1.365 . S
N725 H745 0.862 . S
C726 C721 1.501 . S
C726 H727 0.961 . S
C726 H728 0.961 . S
C726 H729 0.960 . S
H727 C726 0.961 . S
H728 C726 0.961 . S
H729 C726 0.960 . S
C730 N731 1.342 . S
C730 C734 1.401 . S
C730 C735 1.499 . S
N731 Co714 1.989 . S
N731 C730 1.342 . S
N731 N732 1.388 . S
N732 Co715 1.993 . S
N732 N731 1.388 . S
N732 C733 1.346 . S
C733 N732 1.346 . S
C733 C734 1.396 . S
C733 C743 1.510 . S
C734 C730 1.401 . S
C734 C733 1.396 . S
C735 C730 1.499 . S
C735 H736 0.959 . S
C735 H737 0.960 . S
C735 H738 0.961 . S
H736 C735 0.959 . S
H737 C735 0.960 . S
H738 C735 0.961 . S
O739 Co714 1.967 . S
O739 C747 1.258 . S
O740 Co715 1.941 . S
O740 C747 1.266 . S
H741 C743 0.959 . S
H742 C743 0.961 . S
C743 C733 1.510 . S
C743 H741 0.959 . S
C743 H742 0.961 . S
C743 H744 0.960 . S
H744 C743 0.960 . S
H745 N725 0.862 . S
O746 Co714 1.920 . S
O746 C719 1.289 . S
C747 O739 1.258 . S
C747 O740 1.266 . S
Co748 O751 1.970 . S
Co748 N765 1.989 . S
Co748 O773 1.967 . S
Co748 O780 1.920 . S
Co749 O752 1.966 . S
Co749 N758 2.022 . S
Co749 N766 1.993 . S
Co749 O774 1.941 . S
C750 O751 1.258 . S
C750 O752 1.263 . S
O751 Co748 1.970 . S
O751 C750 1.258 . S
O752 Co749 1.966 . S
O752 C750 1.263 . S
C753 O754 1.235 . S
C753 O780 1.289 . S
O754 C753 1.235 . S
C755 C757 1.400 . S
C755 N758 1.351 . S
C755 C760 1.501 . S
C756 C757 1.387 . S
C756 N759 1.341 . S
C757 C755 1.400 . S
C757 C756 1.387 . S
N758 Co749 2.022 . S
N758 C755 1.351 . S
N758 N759 1.365 . S
N759 C756 1.341 . S
N759 N758 1.365 . S
N759 H779 0.862 . S
C760 C755 1.501 . S
C760 H761 0.961 . S
C760 H762 0.961 . S
C760 H763 0.960 . S
H761 C760 0.961 . S
H762 C760 0.961 . S
H763 C760 0.960 . S
C764 N765 1.342 . S
C764 C768 1.401 . S
C764 C769 1.499 . S
N765 Co748 1.989 . S
N765 C764 1.342 . S
N765 N766 1.388 . S
N766 Co749 1.993 . S
N766 N765 1.388 . S
N766 C767 1.346 . S
C767 N766 1.346 . S
C767 C768 1.396 . S
C767 C777 1.510 . S
C768 C764 1.401 . S
C768 C767 1.396 . S
C769 C764 1.499 . S
C769 H770 0.959 . S
C769 H771 0.960 . S
C769 H772 0.961 . S
H770 C769 0.959 . S
H771 C769 0.960 . S
H772 C769 0.961 . S
O773 Co748 1.967 . S
O773 C781 1.258 . S
O774 Co749 1.941 . S
O774 C781 1.266 . S
H775 C777 0.959 . S
H776 C777 0.961 . S
C777 C767 1.510 . S
C777 H775 0.959 . S
C777 H776 0.961 . S
C777 H778 0.960 . S
H778 C777 0.960 . S
H779 N759 0.862 . S
O780 Co748 1.920 . S
O780 C753 1.289 . S
C781 O773 1.258 . S
C781 O774 1.266 . S
Co782 O785 1.970 . S
Co782 N799 1.989 . S
Co782 O807 1.967 . S
Co782 O814 1.920 . S
Co783 O786 1.966 . S
Co783 N792 2.022 . S
Co783 N800 1.993 . S
Co783 O808 1.941 . S
C784 O785 1.258 . S
C784 O786 1.263 . S
O785 Co782 1.970 . S
O785 C784 1.258 . S
O786 Co783 1.966 . S
O786 C784 1.263 . S
C787 O788 1.235 . S
C787 O814 1.289 . S
O788 C787 1.235 . S
C789 C791 1.400 . S
C789 N792 1.351 . S
C789 C794 1.501 . S
C790 C791 1.387 . S
C790 N793 1.341 . S
C791 C789 1.400 . S
C791 C790 1.387 . S
N792 Co783 2.022 . S
N792 C789 1.351 . S
N792 N793 1.365 . S
N793 C790 1.341 . S
N793 N792 1.365 . S
N793 H813 0.862 . S
C794 C789 1.501 . S
C794 H795 0.961 . S
C794 H796 0.961 . S
C794 H797 0.960 . S
H795 C794 0.961 . S
H796 C794 0.961 . S
H797 C794 0.960 . S
C798 N799 1.342 . S
C798 C802 1.401 . S
C798 C803 1.499 . S
N799 Co782 1.989 . S
N799 C798 1.342 . S
N799 N800 1.388 . S
N800 Co783 1.993 . S
N800 N799 1.388 . S
N800 C801 1.346 . S
C801 N800 1.346 . S
C801 C802 1.396 . S
C801 C811 1.510 . S
C802 C798 1.401 . S
C802 C801 1.396 . S
C803 C798 1.499 . S
C803 H804 0.959 . S
C803 H805 0.960 . S
C803 H806 0.961 . S
H804 C803 0.959 . S
H805 C803 0.960 . S
H806 C803 0.961 . S
O807 Co782 1.967 . S
O807 C815 1.258 . S
O808 Co783 1.941 . S
O808 C815 1.266 . S
H809 C811 0.959 . S
H810 C811 0.961 . S
C811 C801 1.510 . S
C811 H809 0.959 . S
C811 H810 0.961 . S
C811 H812 0.960 . S
H812 C811 0.960 . S
H813 N793 0.862 . S
O814 Co782 1.920 . S
O814 C787 1.289 . S
C815 O807 1.258 . S
C815 O808 1.266 . S
Co816 O819 1.970 . S
Co816 N833 1.989 . S
Co816 O841 1.967 . S
Co816 O848 1.920 . S
Co817 O820 1.966 . S
Co817 N826 2.022 . S
Co817 N834 1.993 . S
Co817 O842 1.941 . S
C818 O819 1.258 . S
C818 O820 1.263 . S
O819 Co816 1.970 . S
O819 C818 1.258 . S
O820 Co817 1.966 . S
O820 C818 1.263 . S
C821 O822 1.235 . S
C821 O848 1.289 . S
O822 C821 1.235 . S
C823 C825 1.400 . S
C823 N826 1.351 . S
C823 C828 1.501 . S
C824 C825 1.387 . S
C824 N827 1.341 . S
C825 C823 1.400 . S
C825 C824 1.387 . S
N826 Co817 2.022 . S
N826 C823 1.351 . S
N826 N827 1.365 . S
N827 C824 1.341 . S
N827 N826 1.365 . S
N827 H847 0.862 . S
C828 C823 1.501 . S
C828 H829 0.961 . S
C828 H830 0.961 . S
C828 H831 0.960 . S
H829 C828 0.961 . S
H830 C828 0.961 . S
H831 C828 0.960 . S
C832 N833 1.342 . S
C832 C836 1.401 . S
C832 C837 1.499 . S
N833 Co816 1.989 . S
N833 C832 1.342 . S
N833 N834 1.388 . S
N834 Co817 1.993 . S
N834 N833 1.388 . S
N834 C835 1.346 . S
C835 N834 1.346 . S
C835 C836 1.396 . S
C835 C845 1.510 . S
C836 C832 1.401 . S
C836 C835 1.396 . S
C837 C832 1.499 . S
C837 H838 0.959 . S
C837 H839 0.960 . S
C837 H840 0.961 . S
H838 C837 0.959 . S
H839 C837 0.960 . S
H840 C837 0.961 . S
O841 Co816 1.967 . S
O841 C849 1.258 . S
O842 Co817 1.941 . S
O842 C849 1.266 . S
H843 C845 0.959 . S
H844 C845 0.961 . S
C845 C835 1.510 . S
C845 H843 0.959 . S
C845 H844 0.961 . S
C845 H846 0.960 . S
H846 C845 0.960 . S
H847 N827 0.862 . S
O848 Co816 1.920 . S
O848 C821 1.289 . S
C849 O841 1.258 . S
C849 O842 1.266 . S
Co850 O853 1.970 . S
Co850 N867 1.989 . S
Co850 O875 1.967 . S
Co850 O882 1.920 . S
Co851 O854 1.966 . S
Co851 N860 2.022 . S
Co851 N868 1.993 . S
Co851 O876 1.941 . S
C852 O853 1.258 . S
C852 O854 1.263 . S
O853 Co850 1.970 . S
O853 C852 1.258 . S
O854 Co851 1.966 . S
O854 C852 1.263 . S
C855 O856 1.235 . S
C855 O882 1.289 . S
O856 C855 1.235 . S
C857 C859 1.400 . S
C857 N860 1.351 . S
C857 C862 1.501 . S
C858 C859 1.387 . S
C858 N861 1.341 . S
C859 C857 1.400 . S
C859 C858 1.387 . S
N860 Co851 2.022 . S
N860 C857 1.351 . S
N860 N861 1.365 . S
N861 C858 1.341 . S
N861 N860 1.365 . S
N861 H881 0.862 . S
C862 C857 1.501 . S
C862 H863 0.961 . S
C862 H864 0.961 . S
C862 H865 0.960 . S
H863 C862 0.961 . S
H864 C862 0.961 . S
H865 C862 0.960 . S
C866 N867 1.342 . S
C866 C870 1.401 . S
C866 C871 1.499 . S
N867 Co850 1.989 . S
N867 C866 1.342 . S
N867 N868 1.388 . S
N868 Co851 1.993 . S
N868 N867 1.388 . S
N868 C869 1.346 . S
C869 N868 1.346 . S
C869 C870 1.396 . S
C869 C879 1.510 . S
C870 C866 1.401 . S
C870 C869 1.396 . S
C871 C866 1.499 . S
C871 H872 0.959 . S
C871 H873 0.960 . S
C871 H874 0.961 . S
H872 C871 0.959 . S
H873 C871 0.960 . S
H874 C871 0.961 . S
O875 Co850 1.967 . S
O875 C883 1.258 . S
O876 Co851 1.941 . S
O876 C883 1.266 . S
H877 C879 0.959 . S
H878 C879 0.961 . S
C879 C869 1.510 . S
C879 H877 0.959 . S
C879 H878 0.961 . S
C879 H880 0.960 . S
H880 C879 0.960 . S
H881 N861 0.862 . S
O882 Co850 1.920 . S
O882 C855 1.289 . S
C883 O875 1.258 . S
C883 O876 1.266 . S
Co884 O887 1.970 . S
Co884 N901 1.989 . S
Co884 O909 1.967 . S
Co884 O916 1.920 . S
Co885 O888 1.966 . S
Co885 N894 2.022 . S
Co885 N902 1.993 . S
Co885 O910 1.941 . S
C886 O887 1.258 . S
C886 O888 1.263 . S
O887 Co884 1.970 . S
O887 C886 1.258 . S
O888 Co885 1.966 . S
O888 C886 1.263 . S
C889 O890 1.235 . S
C889 O916 1.289 . S
O890 C889 1.235 . S
C891 C893 1.400 . S
C891 N894 1.351 . S
C891 C896 1.501 . S
C892 C893 1.387 . S
C892 N895 1.341 . S
C893 C891 1.400 . S
C893 C892 1.387 . S
N894 Co885 2.022 . S
N894 C891 1.351 . S
N894 N895 1.365 . S
N895 C892 1.341 . S
N895 N894 1.365 . S
N895 H915 0.862 . S
C896 C891 1.501 . S
C896 H897 0.961 . S
C896 H898 0.961 . S
C896 H899 0.960 . S
H897 C896 0.961 . S
H898 C896 0.961 . S
H899 C896 0.960 . S
C900 N901 1.342 . S
C900 C904 1.401 . S
C900 C905 1.499 . S
N901 Co884 1.989 . S
N901 C900 1.342 . S
N901 N902 1.388 . S
N902 Co885 1.993 . S
N902 N901 1.388 . S
N902 C903 1.346 . S
C903 N902 1.346 . S
C903 C904 1.396 . S
C903 C913 1.510 . S
C904 C900 1.401 . S
C904 C903 1.396 . S
C905 C900 1.499 . S
C905 H906 0.959 . S
C905 H907 0.960 . S
C905 H908 0.961 . S
H906 C905 0.959 . S
H907 C905 0.960 . S
H908 C905 0.961 . S
O909 Co884 1.967 . S
O909 C917 1.258 . S
O910 Co885 1.941 . S
O910 C917 1.266 . S
H911 C913 0.959 . S
H912 C913 0.961 . S
C913 C903 1.510 . S
C913 H911 0.959 . S
C913 H912 0.961 . S
C913 H914 0.960 . S
H914 C913 0.960 . S
H915 N895 0.862 . S
O916 Co884 1.920 . S
O916 C889 1.289 . S
C917 O909 1.258 . S
C917 O910 1.266 . S
Co918 O921 1.970 . S
Co918 N935 1.989 . S
Co918 O943 1.967 . S
Co918 O950 1.920 . S
Co919 O922 1.966 . S
Co919 N928 2.022 . S
Co919 N936 1.993 . S
Co919 O944 1.941 . S
C920 O921 1.258 . S
C920 O922 1.263 . S
O921 Co918 1.970 . S
O921 C920 1.258 . S
O922 Co919 1.966 . S
O922 C920 1.263 . S
C923 O924 1.235 . S
C923 O950 1.289 . S
O924 C923 1.235 . S
C925 C927 1.400 . S
C925 N928 1.351 . S
C925 C930 1.501 . S
C926 C927 1.387 . S
C926 N929 1.341 . S
C927 C925 1.400 . S
C927 C926 1.387 . S
N928 Co919 2.022 . S
N928 C925 1.351 . S
N928 N929 1.365 . S
N929 C926 1.341 . S
N929 N928 1.365 . S
N929 H949 0.862 . S
C930 C925 1.501 . S
C930 H931 0.961 . S
C930 H932 0.961 . S
C930 H933 0.960 . S
H931 C930 0.961 . S
H932 C930 0.961 . S
H933 C930 0.960 . S
C934 N935 1.342 . S
C934 C938 1.401 . S
C934 C939 1.499 . S
N935 Co918 1.989 . S
N935 C934 1.342 . S
N935 N936 1.388 . S
N936 Co919 1.993 . S
N936 N935 1.388 . S
N936 C937 1.346 . S
C937 N936 1.346 . S
C937 C938 1.396 . S
C937 C947 1.510 . S
C938 C934 1.401 . S
C938 C937 1.396 . S
C939 C934 1.499 . S
C939 H940 0.959 . S
C939 H941 0.960 . S
C939 H942 0.961 . S
H940 C939 0.959 . S
H941 C939 0.960 . S
H942 C939 0.961 . S
O943 Co918 1.967 . S
O943 C951 1.258 . S
O944 Co919 1.941 . S
O944 C951 1.266 . S
H945 C947 0.959 . S
H946 C947 0.961 . S
C947 C937 1.510 . S
C947 H945 0.959 . S
C947 H946 0.961 . S
C947 H948 0.960 . S
H948 C947 0.960 . S
H949 N929 0.862 . S
O950 Co918 1.920 . S
O950 C923 1.289 . S
C951 O943 1.258 . S
C951 O944 1.266 . S
Co952 O955 1.970 . S
Co952 N969 1.989 . S
Co952 O977 1.967 . S
Co952 O984 1.920 . S
Co953 O956 1.966 . S
Co953 N962 2.022 . S
Co953 N970 1.993 . S
Co953 O978 1.941 . S
C954 O955 1.258 . S
C954 O956 1.263 . S
O955 Co952 1.970 . S
O955 C954 1.258 . S
O956 Co953 1.966 . S
O956 C954 1.263 . S
C957 O958 1.235 . S
C957 O984 1.289 . S
O958 C957 1.235 . S
C959 C961 1.400 . S
C959 N962 1.351 . S
C959 C964 1.501 . S
C960 C961 1.387 . S
C960 N963 1.341 . S
C961 C959 1.400 . S
C961 C960 1.387 . S
N962 Co953 2.022 . S
N962 C959 1.351 . S
N962 N963 1.365 . S
N963 C960 1.341 . S
N963 N962 1.365 . S
N963 H983 0.862 . S
C964 C959 1.501 . S
C964 H965 0.961 . S
C964 H966 0.961 . S
C964 H967 0.960 . S
H965 C964 0.961 . S
H966 C964 0.961 . S
H967 C964 0.960 . S
C968 N969 1.342 . S
C968 C972 1.401 . S
C968 C973 1.499 . S
N969 Co952 1.989 . S
N969 C968 1.342 . S
N969 N970 1.388 . S
N970 Co953 1.993 . S
N970 N969 1.388 . S
N970 C971 1.346 . S
C971 N970 1.346 . S
C971 C972 1.396 . S
C971 C981 1.510 . S
C972 C968 1.401 . S
C972 C971 1.396 . S
C973 C968 1.499 . S
C973 H974 0.959 . S
C973 H975 0.960 . S
C973 H976 0.961 . S
H974 C973 0.959 . S
H975 C973 0.960 . S
H976 C973 0.961 . S
O977 Co952 1.967 . S
O977 C985 1.258 . S
O978 Co953 1.941 . S
O978 C985 1.266 . S
H979 C981 0.959 . S
H980 C981 0.961 . S
C981 C971 1.510 . S
C981 H979 0.959 . S
C981 H980 0.961 . S
C981 H982 0.960 . S
H982 C981 0.960 . S
H983 N963 0.862 . S
O984 Co952 1.920 . S
O984 C957 1.289 . S
C985 O977 1.258 . S
C985 O978 1.266 . S
Co986 O989 1.970 . S
Co986 N1003 1.989 . S
Co986 O1011 1.967 . S
Co986 O1018 1.920 . S
Co987 O990 1.966 . S
Co987 N996 2.022 . S
Co987 N1004 1.993 . S
Co987 O1012 1.941 . S
C988 O989 1.258 . S
C988 O990 1.263 . S
O989 Co986 1.970 . S
O989 C988 1.258 . S
O990 Co987 1.966 . S
O990 C988 1.263 . S
C991 O992 1.235 . S
C991 O1018 1.289 . S
O992 C991 1.235 . S
C993 C995 1.400 . S
C993 N996 1.351 . S
C993 C998 1.501 . S
C994 C995 1.387 . S
C994 N997 1.341 . S
C995 C993 1.400 . S
C995 C994 1.387 . S
N996 Co987 2.022 . S
N996 C993 1.351 . S
N996 N997 1.365 . S
N997 C994 1.341 . S
N997 N996 1.365 . S
N997 H1017 0.862 . S
C998 C993 1.501 . S
C998 H999 0.961 . S
C998 H1000 0.961 . S
C998 H1001 0.960 . S
H999 C998 0.961 . S
H1000 C998 0.961 . S
H1001 C998 0.960 . S
C1002 N1003 1.342 . S
C1002 C1006 1.401 . S
C1002 C1007 1.499 . S
N1003 Co986 1.989 . S
N1003 C1002 1.342 . S
N1003 N1004 1.388 . S
N1004 Co987 1.993 . S
N1004 N1003 1.388 . S
N1004 C1005 1.346 . S
C1005 N1004 1.346 . S
C1005 C1006 1.396 . S
C1005 C1015 1.510 . S
C1006 C1002 1.401 . S
C1006 C1005 1.396 . S
C1007 C1002 1.499 . S
C1007 H1008 0.959 . S
C1007 H1009 0.960 . S
C1007 H1010 0.961 . S
H1008 C1007 0.959 . S
H1009 C1007 0.960 . S
H1010 C1007 0.961 . S
O1011 Co986 1.967 . S
O1011 C1019 1.258 . S
O1012 Co987 1.941 . S
O1012 C1019 1.266 . S
H1013 C1015 0.959 . S
H1014 C1015 0.961 . S
C1015 C1005 1.510 . S
C1015 H1013 0.959 . S
C1015 H1014 0.961 . S
C1015 H1016 0.960 . S
H1016 C1015 0.960 . S
H1017 N997 0.862 . S
O1018 Co986 1.920 . S
O1018 C991 1.289 . S
C1019 O1011 1.258 . S
C1019 O1012 1.266 . S
Co1020 O1023 1.970 . S
Co1020 N1037 1.989 . S
Co1020 O1045 1.967 . S
Co1020 O1052 1.920 . S
Co1021 O1024 1.966 . S
Co1021 N1030 2.022 . S
Co1021 N1038 1.993 . S
Co1021 O1046 1.941 . S
C1022 O1023 1.258 . S
C1022 O1024 1.263 . S
O1023 Co1020 1.970 . S
O1023 C1022 1.258 . S
O1024 Co1021 1.966 . S
O1024 C1022 1.263 . S
C1025 O1026 1.235 . S
C1025 O1052 1.289 . S
O1026 C1025 1.235 . S
C1027 C1029 1.400 . S
C1027 N1030 1.351 . S
C1027 C1032 1.501 . S
C1028 C1029 1.387 . S
C1028 N1031 1.341 . S
C1029 C1027 1.400 . S
C1029 C1028 1.387 . S
N1030 Co1021 2.022 . S
N1030 C1027 1.351 . S
N1030 N1031 1.365 . S
N1031 C1028 1.341 . S
N1031 N1030 1.365 . S
N1031 H1051 0.862 . S
C1032 C1027 1.501 . S
C1032 H1033 0.961 . S
C1032 H1034 0.961 . S
C1032 H1035 0.960 . S
H1033 C1032 0.961 . S
H1034 C1032 0.961 . S
H1035 C1032 0.960 . S
C1036 N1037 1.342 . S
C1036 C1040 1.401 . S
C1036 C1041 1.499 . S
N1037 Co1020 1.989 . S
N1037 C1036 1.342 . S
N1037 N1038 1.388 . S
N1038 Co1021 1.993 . S
N1038 N1037 1.388 . S
N1038 C1039 1.346 . S
C1039 N1038 1.346 . S
C1039 C1040 1.396 . S
C1039 C1049 1.510 . S
C1040 C1036 1.401 . S
C1040 C1039 1.396 . S
C1041 C1036 1.499 . S
C1041 H1042 0.959 . S
C1041 H1043 0.960 . S
C1041 H1044 0.961 . S
H1042 C1041 0.959 . S
H1043 C1041 0.960 . S
H1044 C1041 0.961 . S
O1045 Co1020 1.967 . S
O1045 C1053 1.258 . S
O1046 Co1021 1.941 . S
O1046 C1053 1.266 . S
H1047 C1049 0.959 . S
H1048 C1049 0.961 . S
C1049 C1039 1.510 . S
C1049 H1047 0.959 . S
C1049 H1048 0.961 . S
C1049 H1050 0.960 . S
H1050 C1049 0.960 . S
H1051 N1031 0.862 . S
O1052 Co1020 1.920 . S
O1052 C1025 1.289 . S
C1053 O1045 1.258 . S
C1053 O1046 1.266 . S
Co1054 O1057 1.970 . S
Co1054 N1071 1.989 . S
Co1054 O1079 1.967 . S
Co1054 O1086 1.920 . S
Co1055 O1058 1.966 . S
Co1055 N1064 2.022 . S
Co1055 N1072 1.993 . S
Co1055 O1080 1.941 . S
C1056 O1057 1.258 . S
C1056 O1058 1.263 . S
O1057 Co1054 1.970 . S
O1057 C1056 1.258 . S
O1058 Co1055 1.966 . S
O1058 C1056 1.263 . S
C1059 O1060 1.235 . S
C1059 O1086 1.289 . S
O1060 C1059 1.235 . S
C1061 C1063 1.400 . S
C1061 N1064 1.351 . S
C1061 C1066 1.501 . S
C1062 C1063 1.387 . S
C1062 N1065 1.341 . S
C1063 C1061 1.400 . S
C1063 C1062 1.387 . S
N1064 Co1055 2.022 . S
N1064 C1061 1.351 . S
N1064 N1065 1.365 . S
N1065 C1062 1.341 . S
N1065 N1064 1.365 . S
N1065 H1085 0.862 . S
C1066 C1061 1.501 . S
C1066 H1067 0.961 . S
C1066 H1068 0.961 . S
C1066 H1069 0.960 . S
H1067 C1066 0.961 . S
H1068 C1066 0.961 . S
H1069 C1066 0.960 . S
C1070 N1071 1.342 . S
C1070 C1074 1.401 . S
C1070 C1075 1.499 . S
N1071 Co1054 1.989 . S
N1071 C1070 1.342 . S
N1071 N1072 1.388 . S
N1072 Co1055 1.993 . S
N1072 N1071 1.388 . S
N1072 C1073 1.346 . S
C1073 N1072 1.346 . S
C1073 C1074 1.396 . S
C1073 C1083 1.510 . S
C1074 C1070 1.401 . S
C1074 C1073 1.396 . S
C1075 C1070 1.499 . S
C1075 H1076 0.959 . S
C1075 H1077 0.960 . S
C1075 H1078 0.961 . S
H1076 C1075 0.959 . S
H1077 C1075 0.960 . S
H1078 C1075 0.961 . S
O1079 Co1054 1.967 . S
O1079 C1087 1.258 . S
O1080 Co1055 1.941 . S
O1080 C1087 1.266 . S
H1081 C1083 0.959 . S
H1082 C1083 0.961 . S
C1083 C1073 1.510 . S
C1083 H1081 0.959 . S
C1083 H1082 0.961 . S
C1083 H1084 0.960 . S
H1084 C1083 0.960 . S
H1085 N1065 0.862 . S
O1086 Co1054 1.920 . S
O1086 C1059 1.289 . S
C1087 O1079 1.258 . S
C1087 O1080 1.266 . S
Co1088 O1091 1.970 . S
Co1088 N1105 1.989 . S
Co1088 O1113 1.967 . S
Co1088 O1120 1.920 . S
Co1089 O1092 1.966 . S
Co1089 N1098 2.022 . S
Co1089 N1106 1.993 . S
Co1089 O1114 1.941 . S
C1090 O1091 1.258 . S
C1090 O1092 1.263 . S
O1091 Co1088 1.970 . S
O1091 C1090 1.258 . S
O1092 Co1089 1.966 . S
O1092 C1090 1.263 . S
C1093 O1094 1.235 . S
C1093 O1120 1.289 . S
O1094 C1093 1.235 . S
C1095 C1097 1.400 . S
C1095 N1098 1.351 . S
C1095 C1100 1.501 . S
C1096 C1097 1.387 . S
C1096 N1099 1.341 . S
C1097 C1095 1.400 . S
C1097 C1096 1.387 . S
N1098 Co1089 2.022 . S
N1098 C1095 1.351 . S
N1098 N1099 1.365 . S
N1099 C1096 1.341 . S
N1099 N1098 1.365 . S
N1099 H1119 0.862 . S
C1100 C1095 1.501 . S
C1100 H1101 0.961 . S
C1100 H1102 0.961 . S
C1100 H1103 0.960 . S
H1101 C1100 0.961 . S
H1102 C1100 0.961 . S
H1103 C1100 0.960 . S
C1104 N1105 1.342 . S
C1104 C1108 1.401 . S
C1104 C1109 1.499 . S
N1105 Co1088 1.989 . S
N1105 C1104 1.342 . S
N1105 N1106 1.388 . S
N1106 Co1089 1.993 . S
N1106 N1105 1.388 . S
N1106 C1107 1.346 . S
C1107 N1106 1.346 . S
C1107 C1108 1.396 . S
C1107 C1117 1.510 . S
C1108 C1104 1.401 . S
C1108 C1107 1.396 . S
C1109 C1104 1.499 . S
C1109 H1110 0.959 . S
C1109 H1111 0.960 . S
C1109 H1112 0.961 . S
H1110 C1109 0.959 . S
H1111 C1109 0.960 . S
H1112 C1109 0.961 . S
O1113 Co1088 1.967 . S
O1113 C1121 1.258 . S
O1114 Co1089 1.941 . S
O1114 C1121 1.266 . S
H1115 C1117 0.959 . S
H1116 C1117 0.961 . S
C1117 C1107 1.510 . S
C1117 H1115 0.959 . S
C1117 H1116 0.961 . S
C1117 H1118 0.960 . S
H1118 C1117 0.960 . S
H1119 N1099 0.862 . S
O1120 Co1088 1.920 . S
O1120 C1093 1.289 . S
C1121 O1113 1.258 . S
C1121 O1114 1.266 . S
Co1122 O1125 1.970 . S
Co1122 N1139 1.989 . S
Co1122 O1147 1.967 . S
Co1122 O1154 1.920 . S
Co1123 O1126 1.966 . S
Co1123 N1132 2.022 . S
Co1123 N1140 1.993 . S
Co1123 O1148 1.941 . S
C1124 O1125 1.258 . S
C1124 O1126 1.263 . S
O1125 Co1122 1.970 . S
O1125 C1124 1.258 . S
O1126 Co1123 1.966 . S
O1126 C1124 1.263 . S
C1127 O1128 1.235 . S
C1127 O1154 1.289 . S
O1128 C1127 1.235 . S
C1129 C1131 1.400 . S
C1129 N1132 1.351 . S
C1129 C1134 1.501 . S
C1130 C1131 1.387 . S
C1130 N1133 1.341 . S
C1131 C1129 1.400 . S
C1131 C1130 1.387 . S
N1132 Co1123 2.022 . S
N1132 C1129 1.351 . S
N1132 N1133 1.365 . S
N1133 C1130 1.341 . S
N1133 N1132 1.365 . S
N1133 H1153 0.862 . S
C1134 C1129 1.501 . S
C1134 H1135 0.961 . S
C1134 H1136 0.961 . S
C1134 H1137 0.960 . S
H1135 C1134 0.961 . S
H1136 C1134 0.961 . S
H1137 C1134 0.960 . S
C1138 N1139 1.342 . S
C1138 C1142 1.401 . S
C1138 C1143 1.499 . S
N1139 Co1122 1.989 . S
N1139 C1138 1.342 . S
N1139 N1140 1.388 . S
N1140 Co1123 1.993 . S
N1140 N1139 1.388 . S
N1140 C1141 1.346 . S
C1141 N1140 1.346 . S
C1141 C1142 1.396 . S
C1141 C1151 1.510 . S
C1142 C1138 1.401 . S
C1142 C1141 1.396 . S
C1143 C1138 1.499 . S
C1143 H1144 0.959 . S
C1143 H1145 0.960 . S
C1143 H1146 0.961 . S
H1144 C1143 0.959 . S
H1145 C1143 0.960 . S
H1146 C1143 0.961 . S
O1147 Co1122 1.967 . S
O1147 C1155 1.258 . S
O1148 Co1123 1.941 . S
O1148 C1155 1.266 . S
H1149 C1151 0.959 . S
H1150 C1151 0.961 . S
C1151 C1141 1.510 . S
C1151 H1149 0.959 . S
C1151 H1150 0.961 . S
C1151 H1152 0.960 . S
H1152 C1151 0.960 . S
H1153 N1133 0.862 . S
O1154 Co1122 1.920 . S
O1154 C1127 1.289 . S
C1155 O1147 1.258 . S
C1155 O1148 1.266 . S
Co1156 O1159 1.970 . S
Co1156 N1173 1.989 . S
Co1156 O1181 1.967 . S
Co1156 O1188 1.920 . S
Co1157 O1160 1.966 . S
Co1157 N1166 2.022 . S
Co1157 N1174 1.993 . S
Co1157 O1182 1.941 . S
C1158 O1159 1.258 . S
C1158 O1160 1.263 . S
O1159 Co1156 1.970 . S
O1159 C1158 1.258 . S
O1160 Co1157 1.966 . S
O1160 C1158 1.263 . S
C1161 O1162 1.235 . S
C1161 O1188 1.289 . S
O1162 C1161 1.235 . S
C1163 C1165 1.400 . S
C1163 N1166 1.351 . S
C1163 C1168 1.501 . S
C1164 C1165 1.387 . S
C1164 N1167 1.341 . S
C1165 C1163 1.400 . S
C1165 C1164 1.387 . S
N1166 Co1157 2.022 . S
N1166 C1163 1.351 . S
N1166 N1167 1.365 . S
N1167 C1164 1.341 . S
N1167 N1166 1.365 . S
N1167 H1187 0.862 . S
C1168 C1163 1.501 . S
C1168 H1169 0.961 . S
C1168 H1170 0.961 . S
C1168 H1171 0.960 . S
H1169 C1168 0.961 . S
H1170 C1168 0.961 . S
H1171 C1168 0.960 . S
C1172 N1173 1.342 . S
C1172 C1176 1.401 . S
C1172 C1177 1.499 . S
N1173 Co1156 1.989 . S
N1173 C1172 1.342 . S
N1173 N1174 1.388 . S
N1174 Co1157 1.993 . S
N1174 N1173 1.388 . S
N1174 C1175 1.346 . S
C1175 N1174 1.346 . S
C1175 C1176 1.396 . S
C1175 C1185 1.510 . S
C1176 C1172 1.401 . S
C1176 C1175 1.396 . S
C1177 C1172 1.499 . S
C1177 H1178 0.959 . S
C1177 H1179 0.960 . S
C1177 H1180 0.961 . S
H1178 C1177 0.959 . S
H1179 C1177 0.960 . S
H1180 C1177 0.961 . S
O1181 Co1156 1.967 . S
O1181 C1189 1.258 . S
O1182 Co1157 1.941 . S
O1182 C1189 1.266 . S
H1183 C1185 0.959 . S
H1184 C1185 0.961 . S
C1185 C1175 1.510 . S
C1185 H1183 0.959 . S
C1185 H1184 0.961 . S
C1185 H1186 0.960 . S
H1186 C1185 0.960 . S
H1187 N1167 0.862 . S
O1188 Co1156 1.920 . S
O1188 C1161 1.289 . S
C1189 O1181 1.258 . S
C1189 O1182 1.266 . S
Co1190 O1193 1.970 . S
Co1190 N1207 1.989 . S
Co1190 O1215 1.967 . S
Co1190 O1222 1.920 . S
Co1191 O1194 1.966 . S
Co1191 N1200 2.022 . S
Co1191 N1208 1.993 . S
Co1191 O1216 1.941 . S
C1192 O1193 1.258 . S
C1192 O1194 1.263 . S
O1193 Co1190 1.970 . S
O1193 C1192 1.258 . S
O1194 Co1191 1.966 . S
O1194 C1192 1.263 . S
C1195 O1196 1.235 . S
C1195 O1222 1.289 . S
O1196 C1195 1.235 . S
C1197 C1199 1.400 . S
C1197 N1200 1.351 . S
C1197 C1202 1.501 . S
C1198 C1199 1.387 . S
C1198 N1201 1.341 . S
C1199 C1197 1.400 . S
C1199 C1198 1.387 . S
N1200 Co1191 2.022 . S
N1200 C1197 1.351 . S
N1200 N1201 1.365 . S
N1201 C1198 1.341 . S
N1201 N1200 1.365 . S
N1201 H1221 0.862 . S
C1202 C1197 1.501 . S
C1202 H1203 0.961 . S
C1202 H1204 0.961 . S
C1202 H1205 0.960 . S
H1203 C1202 0.961 . S
H1204 C1202 0.961 . S
H1205 C1202 0.960 . S
C1206 N1207 1.342 . S
C1206 C1210 1.401 . S
C1206 C1211 1.499 . S
N1207 Co1190 1.989 . S
N1207 C1206 1.342 . S
N1207 N1208 1.388 . S
N1208 Co1191 1.993 . S
N1208 N1207 1.388 . S
N1208 C1209 1.346 . S
C1209 N1208 1.346 . S
C1209 C1210 1.396 . S
C1209 C1219 1.510 . S
C1210 C1206 1.401 . S
C1210 C1209 1.396 . S
C1211 C1206 1.499 . S
C1211 H1212 0.959 . S
C1211 H1213 0.960 . S
C1211 H1214 0.961 . S
H1212 C1211 0.959 . S
H1213 C1211 0.960 . S
H1214 C1211 0.961 . S
O1215 Co1190 1.967 . S
O1215 C1223 1.258 . S
O1216 Co1191 1.941 . S
O1216 C1223 1.266 . S
H1217 C1219 0.959 . S
H1218 C1219 0.961 . S
C1219 C1209 1.510 . S
C1219 H1217 0.959 . S
C1219 H1218 0.961 . S
C1219 H1220 0.960 . S
H1220 C1219 0.960 . S
H1221 N1201 0.862 . S
O1222 Co1190 1.920 . S
O1222 C1195 1.289 . S
C1223 O1215 1.258 . S
C1223 O1216 1.266 . S
Co1224 O1227 1.970 . S
Co1224 N1241 1.989 . S
Co1224 O1249 1.967 . S
Co1224 O1256 1.920 . S
Co1225 O1228 1.966 . S
Co1225 N1234 2.022 . S
Co1225 N1242 1.993 . S
Co1225 O1250 1.941 . S
C1226 O1227 1.258 . S
C1226 O1228 1.263 . S
O1227 Co1224 1.970 . S
O1227 C1226 1.258 . S
O1228 Co1225 1.966 . S
O1228 C1226 1.263 . S
C1229 O1230 1.235 . S
C1229 O1256 1.289 . S
O1230 C1229 1.235 . S
C1231 C1233 1.400 . S
C1231 N1234 1.351 . S
C1231 C1236 1.501 . S
C1232 C1233 1.387 . S
C1232 N1235 1.341 . S
C1233 C1231 1.400 . S
C1233 C1232 1.387 . S
N1234 Co1225 2.022 . S
N1234 C1231 1.351 . S
N1234 N1235 1.365 . S
N1235 C1232 1.341 . S
N1235 N1234 1.365 . S
N1235 H1255 0.862 . S
C1236 C1231 1.501 . S
C1236 H1237 0.961 . S
C1236 H1238 0.961 . S
C1236 H1239 0.960 . S
H1237 C1236 0.961 . S
H1238 C1236 0.961 . S
H1239 C1236 0.960 . S
C1240 N1241 1.342 . S
C1240 C1244 1.401 . S
C1240 C1245 1.499 . S
N1241 Co1224 1.989 . S
N1241 C1240 1.342 . S
N1241 N1242 1.388 . S
N1242 Co1225 1.993 . S
N1242 N1241 1.388 . S
N1242 C1243 1.346 . S
C1243 N1242 1.346 . S
C1243 C1244 1.396 . S
C1243 C1253 1.510 . S
C1244 C1240 1.401 . S
C1244 C1243 1.396 . S
C1245 C1240 1.499 . S
C1245 H1246 0.959 . S
C1245 H1247 0.960 . S
C1245 H1248 0.961 . S
H1246 C1245 0.959 . S
H1247 C1245 0.960 . S
H1248 C1245 0.961 . S
O1249 Co1224 1.967 . S
O1249 C1257 1.258 . S
O1250 Co1225 1.941 . S
O1250 C1257 1.266 . S
H1251 C1253 0.959 . S
H1252 C1253 0.961 . S
C1253 C1243 1.510 . S
C1253 H1251 0.959 . S
C1253 H1252 0.961 . S
C1253 H1254 0.960 . S
H1254 C1253 0.960 . S
H1255 N1235 0.862 . S
O1256 Co1224 1.920 . S
O1256 C1229 1.289 . S
C1257 O1249 1.258 . S
C1257 O1250 1.266 . S
Co1258 O1261 1.970 . S
Co1258 N1275 1.989 . S
Co1258 O1283 1.967 . S
Co1258 O1290 1.920 . S
Co1259 O1262 1.966 . S
Co1259 N1268 2.022 . S
Co1259 N1276 1.993 . S
Co1259 O1284 1.941 . S
C1260 O1261 1.258 . S
C1260 O1262 1.263 . S
O1261 Co1258 1.970 . S
O1261 C1260 1.258 . S
O1262 Co1259 1.966 . S
O1262 C1260 1.263 . S
C1263 O1264 1.235 . S
C1263 O1290 1.289 . S
O1264 C1263 1.235 . S
C1265 C1267 1.400 . S
C1265 N1268 1.351 . S
C1265 C1270 1.501 . S
C1266 C1267 1.387 . S
C1266 N1269 1.341 . S
C1267 C1265 1.400 . S
C1267 C1266 1.387 . S
N1268 Co1259 2.022 . S
N1268 C1265 1.351 . S
N1268 N1269 1.365 . S
N1269 C1266 1.341 . S
N1269 N1268 1.365 . S
N1269 H1289 0.862 . S
C1270 C1265 1.501 . S
C1270 H1271 0.961 . S
C1270 H1272 0.961 . S
C1270 H1273 0.960 . S
H1271 C1270 0.961 . S
H1272 C1270 0.961 . S
H1273 C1270 0.960 . S
C1274 N1275 1.342 . S
C1274 C1278 1.401 . S
C1274 C1279 1.499 . S
N1275 Co1258 1.989 . S
N1275 C1274 1.342 . S
N1275 N1276 1.388 . S
N1276 Co1259 1.993 . S
N1276 N1275 1.388 . S
N1276 C1277 1.346 . S
C1277 N1276 1.346 . S
C1277 C1278 1.396 . S
C1277 C1287 1.510 . S
C1278 C1274 1.401 . S
C1278 C1277 1.396 . S
C1279 C1274 1.499 . S
C1279 H1280 0.959 . S
C1279 H1281 0.960 . S
C1279 H1282 0.961 . S
H1280 C1279 0.959 . S
H1281 C1279 0.960 . S
H1282 C1279 0.961 . S
O1283 Co1258 1.967 . S
O1283 C1291 1.258 . S
O1284 Co1259 1.941 . S
O1284 C1291 1.266 . S
H1285 C1287 0.959 . S
H1286 C1287 0.961 . S
C1287 C1277 1.510 . S
C1287 H1285 0.959 . S
C1287 H1286 0.961 . S
C1287 H1288 0.960 . S
H1288 C1287 0.960 . S
H1289 N1269 0.862 . S
O1290 Co1258 1.920 . S
O1290 C1263 1.289 . S
C1291 O1283 1.258 . S
C1291 O1284 1.266 . S
Co1292 O1295 1.970 . S
Co1292 N1309 1.989 . S
Co1292 O1317 1.967 . S
Co1292 O1324 1.920 . S
Co1293 O1296 1.966 . S
Co1293 N1302 2.022 . S
Co1293 N1310 1.993 . S
Co1293 O1318 1.941 . S
C1294 O1295 1.258 . S
C1294 O1296 1.263 . S
O1295 Co1292 1.970 . S
O1295 C1294 1.258 . S
O1296 Co1293 1.966 . S
O1296 C1294 1.263 . S
C1297 O1298 1.235 . S
C1297 O1324 1.289 . S
O1298 C1297 1.235 . S
C1299 C1301 1.400 . S
C1299 N1302 1.351 . S
C1299 C1304 1.501 . S
C1300 C1301 1.387 . S
C1300 N1303 1.341 . S
C1301 C1299 1.400 . S
C1301 C1300 1.387 . S
N1302 Co1293 2.022 . S
N1302 C1299 1.351 . S
N1302 N1303 1.365 . S
N1303 C1300 1.341 . S
N1303 N1302 1.365 . S
N1303 H1323 0.862 . S
C1304 C1299 1.501 . S
C1304 H1305 0.961 . S
C1304 H1306 0.961 . S
C1304 H1307 0.960 . S
H1305 C1304 0.961 . S
H1306 C1304 0.961 . S
H1307 C1304 0.960 . S
C1308 N1309 1.342 . S
C1308 C1312 1.401 . S
C1308 C1313 1.499 . S
N1309 Co1292 1.989 . S
N1309 C1308 1.342 . S
N1309 N1310 1.388 . S
N1310 Co1293 1.993 . S
N1310 N1309 1.388 . S
N1310 C1311 1.346 . S
C1311 N1310 1.346 . S
C1311 C1312 1.396 . S
C1311 C1321 1.510 . S
C1312 C1308 1.401 . S
C1312 C1311 1.396 . S
C1313 C1308 1.499 . S
C1313 H1314 0.959 . S
C1313 H1315 0.960 . S
C1313 H1316 0.961 . S
H1314 C1313 0.959 . S
H1315 C1313 0.960 . S
H1316 C1313 0.961 . S
O1317 Co1292 1.967 . S
O1317 C1325 1.258 . S
O1318 Co1293 1.941 . S
O1318 C1325 1.266 . S
H1319 C1321 0.959 . S
H1320 C1321 0.961 . S
C1321 C1311 1.510 . S
C1321 H1319 0.959 . S
C1321 H1320 0.961 . S
C1321 H1322 0.960 . S
H1322 C1321 0.960 . S
H1323 N1303 0.862 . S
O1324 Co1292 1.920 . S
O1324 C1297 1.289 . S
C1325 O1317 1.258 . S
C1325 O1318 1.266 . S
Co1326 O1329 1.970 . S
Co1326 N1343 1.989 . S
Co1326 O1351 1.967 . S
Co1326 O1358 1.920 . S
Co1327 O1330 1.966 . S
Co1327 N1336 2.022 . S
Co1327 N1344 1.993 . S
Co1327 O1352 1.941 . S
C1328 O1329 1.258 . S
C1328 O1330 1.263 . S
O1329 Co1326 1.970 . S
O1329 C1328 1.258 . S
O1330 Co1327 1.966 . S
O1330 C1328 1.263 . S
C1331 O1332 1.235 . S
C1331 O1358 1.289 . S
O1332 C1331 1.235 . S
C1333 C1335 1.400 . S
C1333 N1336 1.351 . S
C1333 C1338 1.501 . S
C1334 C1335 1.387 . S
C1334 N1337 1.341 . S
C1335 C1333 1.400 . S
C1335 C1334 1.387 . S
N1336 Co1327 2.022 . S
N1336 C1333 1.351 . S
N1336 N1337 1.365 . S
N1337 C1334 1.341 . S
N1337 N1336 1.365 . S
N1337 H1357 0.862 . S
C1338 C1333 1.501 . S
C1338 H1339 0.961 . S
C1338 H1340 0.961 . S
C1338 H1341 0.960 . S
H1339 C1338 0.961 . S
H1340 C1338 0.961 . S
H1341 C1338 0.960 . S
C1342 N1343 1.342 . S
C1342 C1346 1.401 . S
C1342 C1347 1.499 . S
N1343 Co1326 1.989 . S
N1343 C1342 1.342 . S
N1343 N1344 1.388 . S
N1344 Co1327 1.993 . S
N1344 N1343 1.388 . S
N1344 C1345 1.346 . S
C1345 N1344 1.346 . S
C1345 C1346 1.396 . S
C1345 C1355 1.510 . S
C1346 C1342 1.401 . S
C1346 C1345 1.396 . S
C1347 C1342 1.499 . S
C1347 H1348 0.959 . S
C1347 H1349 0.960 . S
C1347 H1350 0.961 . S
H1348 C1347 0.959 . S
H1349 C1347 0.960 . S
H1350 C1347 0.961 . S
O1351 Co1326 1.967 . S
O1351 C1359 1.258 . S
O1352 Co1327 1.941 . S
O1352 C1359 1.266 . S
H1353 C1355 0.959 . S
H1354 C1355 0.961 . S
C1355 C1345 1.510 . S
C1355 H1353 0.959 . S
C1355 H1354 0.961 . S
C1355 H1356 0.960 . S
H1356 C1355 0.960 . S
H1357 N1337 0.862 . S
O1358 Co1326 1.920 . S
O1358 C1331 1.289 . S
C1359 O1351 1.258 . S
C1359 O1352 1.266 . S
Co1360 O1363 1.970 . S
Co1360 N1377 1.989 . S
Co1360 O1385 1.967 . S
Co1360 O1392 1.920 . S
Co1361 O1364 1.966 . S
Co1361 N1370 2.022 . S
Co1361 N1378 1.993 . S
Co1361 O1386 1.941 . S
C1362 O1363 1.258 . S
C1362 O1364 1.263 . S
O1363 Co1360 1.970 . S
O1363 C1362 1.258 . S
O1364 Co1361 1.966 . S
O1364 C1362 1.263 . S
C1365 O1366 1.235 . S
C1365 O1392 1.289 . S
O1366 C1365 1.235 . S
C1367 C1369 1.400 . S
C1367 N1370 1.351 . S
C1367 C1372 1.501 . S
C1368 C1369 1.387 . S
C1368 N1371 1.341 . S
C1369 C1367 1.400 . S
C1369 C1368 1.387 . S
N1370 Co1361 2.022 . S
N1370 C1367 1.351 . S
N1370 N1371 1.365 . S
N1371 C1368 1.341 . S
N1371 N1370 1.365 . S
N1371 H1391 0.862 . S
C1372 C1367 1.501 . S
C1372 H1373 0.961 . S
C1372 H1374 0.961 . S
C1372 H1375 0.960 . S
H1373 C1372 0.961 . S
H1374 C1372 0.961 . S
H1375 C1372 0.960 . S
C1376 N1377 1.342 . S
C1376 C1380 1.401 . S
C1376 C1381 1.499 . S
N1377 Co1360 1.989 . S
N1377 C1376 1.342 . S
N1377 N1378 1.388 . S
N1378 Co1361 1.993 . S
N1378 N1377 1.388 . S
N1378 C1379 1.346 . S
C1379 N1378 1.346 . S
C1379 C1380 1.396 . S
C1379 C1389 1.510 . S
C1380 C1376 1.401 . S
C1380 C1379 1.396 . S
C1381 C1376 1.499 . S
C1381 H1382 0.959 . S
C1381 H1383 0.960 . S
C1381 H1384 0.961 . S
H1382 C1381 0.959 . S
H1383 C1381 0.960 . S
H1384 C1381 0.961 . S
O1385 Co1360 1.967 . S
O1385 C1393 1.258 . S
O1386 Co1361 1.941 . S
O1386 C1393 1.266 . S
H1387 C1389 0.959 . S
H1388 C1389 0.961 . S
C1389 C1379 1.510 . S
C1389 H1387 0.959 . S
C1389 H1388 0.961 . S
C1389 H1390 0.960 . S
H1390 C1389 0.960 . S
H1391 N1371 0.862 . S
O1392 Co1360 1.920 . S
O1392 C1365 1.289 . S
C1393 O1385 1.258 . S
C1393 O1386 1.266 . S
Co1394 O1397 1.970 . S
Co1394 N1411 1.989 . S
Co1394 O1419 1.967 . S
Co1394 O1426 1.920 . S
Co1395 O1398 1.966 . S
Co1395 N1404 2.022 . S
Co1395 N1412 1.993 . S
Co1395 O1420 1.941 . S
C1396 O1397 1.258 . S
C1396 O1398 1.263 . S
O1397 Co1394 1.970 . S
O1397 C1396 1.258 . S
O1398 Co1395 1.966 . S
O1398 C1396 1.263 . S
C1399 O1400 1.235 . S
C1399 O1426 1.289 . S
O1400 C1399 1.235 . S
C1401 C1403 1.400 . S
C1401 N1404 1.351 . S
C1401 C1406 1.501 . S
C1402 C1403 1.387 . S
C1402 N1405 1.341 . S
C1403 C1401 1.400 . S
C1403 C1402 1.387 . S
N1404 Co1395 2.022 . S
N1404 C1401 1.351 . S
N1404 N1405 1.365 . S
N1405 C1402 1.341 . S
N1405 N1404 1.365 . S
N1405 H1425 0.862 . S
C1406 C1401 1.501 . S
C1406 H1407 0.961 . S
C1406 H1408 0.961 . S
C1406 H1409 0.960 . S
H1407 C1406 0.961 . S
H1408 C1406 0.961 . S
H1409 C1406 0.960 . S
C1410 N1411 1.342 . S
C1410 C1414 1.401 . S
C1410 C1415 1.499 . S
N1411 Co1394 1.989 . S
N1411 C1410 1.342 . S
N1411 N1412 1.388 . S
N1412 Co1395 1.993 . S
N1412 N1411 1.388 . S
N1412 C1413 1.346 . S
C1413 N1412 1.346 . S
C1413 C1414 1.396 . S
C1413 C1423 1.510 . S
C1414 C1410 1.401 . S
C1414 C1413 1.396 . S
C1415 C1410 1.499 . S
C1415 H1416 0.959 . S
C1415 H1417 0.960 . S
C1415 H1418 0.961 . S
H1416 C1415 0.959 . S
H1417 C1415 0.960 . S
H1418 C1415 0.961 . S
O1419 Co1394 1.967 . S
O1419 C1427 1.258 . S
O1420 Co1395 1.941 . S
O1420 C1427 1.266 . S
H1421 C1423 0.959 . S
H1422 C1423 0.961 . S
C1423 C1413 1.510 . S
C1423 H1421 0.959 . S
C1423 H1422 0.961 . S
C1423 H1424 0.960 . S
H1424 C1423 0.960 . S
H1425 N1405 0.862 . S
O1426 Co1394 1.920 . S
O1426 C1399 1.289 . S
C1427 O1419 1.258 . S
C1427 O1420 1.266 . S
Co1428 O1431 1.970 . S
Co1428 N1445 1.989 . S
Co1428 O1453 1.967 . S
Co1428 O1460 1.920 . S
Co1429 O1432 1.966 . S
Co1429 N1438 2.022 . S
Co1429 N1446 1.993 . S
Co1429 O1454 1.941 . S
C1430 O1431 1.258 . S
C1430 O1432 1.263 . S
O1431 Co1428 1.970 . S
O1431 C1430 1.258 . S
O1432 Co1429 1.966 . S
O1432 C1430 1.263 . S
C1433 O1434 1.235 . S
C1433 O1460 1.289 . S
O1434 C1433 1.235 . S
C1435 C1437 1.400 . S
C1435 N1438 1.351 . S
C1435 C1440 1.501 . S
C1436 C1437 1.387 . S
C1436 N1439 1.341 . S
C1437 C1435 1.400 . S
C1437 C1436 1.387 . S
N1438 Co1429 2.022 . S
N1438 C1435 1.351 . S
N1438 N1439 1.365 . S
N1439 C1436 1.341 . S
N1439 N1438 1.365 . S
N1439 H1459 0.862 . S
C1440 C1435 1.501 . S
C1440 H1441 0.961 . S
C1440 H1442 0.961 . S
C1440 H1443 0.960 . S
H1441 C1440 0.961 . S
H1442 C1440 0.961 . S
H1443 C1440 0.960 . S
C1444 N1445 1.342 . S
C1444 C1448 1.401 . S
C1444 C1449 1.499 . S
N1445 Co1428 1.989 . S
N1445 C1444 1.342 . S
N1445 N1446 1.388 . S
N1446 Co1429 1.993 . S
N1446 N1445 1.388 . S
N1446 C1447 1.346 . S
C1447 N1446 1.346 . S
C1447 C1448 1.396 . S
C1447 C1457 1.510 . S
C1448 C1444 1.401 . S
C1448 C1447 1.396 . S
C1449 C1444 1.499 . S
C1449 H1450 0.959 . S
C1449 H1451 0.960 . S
C1449 H1452 0.961 . S
H1450 C1449 0.959 . S
H1451 C1449 0.960 . S
H1452 C1449 0.961 . S
O1453 Co1428 1.967 . S
O1453 C1461 1.258 . S
O1454 Co1429 1.941 . S
O1454 C1461 1.266 . S
H1455 C1457 0.959 . S
H1456 C1457 0.961 . S
C1457 C1447 1.510 . S
C1457 H1455 0.959 . S
C1457 H1456 0.961 . S
C1457 H1458 0.960 . S
H1458 C1457 0.960 . S
H1459 N1439 0.862 . S
O1460 Co1428 1.920 . S
O1460 C1433 1.289 . S
C1461 O1453 1.258 . S
C1461 O1454 1.266 . S
Co1462 O1465 1.970 . S
Co1462 N1479 1.989 . S
Co1462 O1487 1.967 . S
Co1462 O1494 1.920 . S
Co1463 O1466 1.966 . S
Co1463 N1472 2.022 . S
Co1463 N1480 1.993 . S
Co1463 O1488 1.941 . S
C1464 O1465 1.258 . S
C1464 O1466 1.263 . S
O1465 Co1462 1.970 . S
O1465 C1464 1.258 . S
O1466 Co1463 1.966 . S
O1466 C1464 1.263 . S
C1467 O1468 1.235 . S
C1467 O1494 1.289 . S
O1468 C1467 1.235 . S
C1469 C1471 1.400 . S
C1469 N1472 1.351 . S
C1469 C1474 1.501 . S
C1470 C1471 1.387 . S
C1470 N1473 1.341 . S
C1471 C1469 1.400 . S
C1471 C1470 1.387 . S
N1472 Co1463 2.022 . S
N1472 C1469 1.351 . S
N1472 N1473 1.365 . S
N1473 C1470 1.341 . S
N1473 N1472 1.365 . S
N1473 H1493 0.862 . S
C1474 C1469 1.501 . S
C1474 H1475 0.961 . S
C1474 H1476 0.961 . S
C1474 H1477 0.960 . S
H1475 C1474 0.961 . S
H1476 C1474 0.961 . S
H1477 C1474 0.960 . S
C1478 N1479 1.342 . S
C1478 C1482 1.401 . S
C1478 C1483 1.499 . S
N1479 Co1462 1.989 . S
N1479 C1478 1.342 . S
N1479 N1480 1.388 . S
N1480 Co1463 1.993 . S
N1480 N1479 1.388 . S
N1480 C1481 1.346 . S
C1481 N1480 1.346 . S
C1481 C1482 1.396 . S
C1481 C1491 1.510 . S
C1482 C1478 1.401 . S
C1482 C1481 1.396 . S
C1483 C1478 1.499 . S
C1483 H1484 0.959 . S
C1483 H1485 0.960 . S
C1483 H1486 0.961 . S
H1484 C1483 0.959 . S
H1485 C1483 0.960 . S
H1486 C1483 0.961 . S
O1487 Co1462 1.967 . S
O1487 C1495 1.258 . S
O1488 Co1463 1.941 . S
O1488 C1495 1.266 . S
H1489 C1491 0.959 . S
H1490 C1491 0.961 . S
C1491 C1481 1.510 . S
C1491 H1489 0.959 . S
C1491 H1490 0.961 . S
C1491 H1492 0.960 . S
H1492 C1491 0.960 . S
H1493 N1473 0.862 . S
O1494 Co1462 1.920 . S
O1494 C1467 1.289 . S
C1495 O1487 1.258 . S
C1495 O1488 1.266 . S
Co1496 O1499 1.970 . S
Co1496 N1513 1.989 . S
Co1496 O1521 1.967 . S
Co1496 O1528 1.920 . S
Co1497 O1500 1.966 . S
Co1497 N1506 2.022 . S
Co1497 N1514 1.993 . S
Co1497 O1522 1.941 . S
C1498 O1499 1.258 . S
C1498 O1500 1.263 . S
O1499 Co1496 1.970 . S
O1499 C1498 1.258 . S
O1500 Co1497 1.966 . S
O1500 C1498 1.263 . S
C1501 O1502 1.235 . S
C1501 O1528 1.289 . S
O1502 C1501 1.235 . S
C1503 C1505 1.400 . S
C1503 N1506 1.351 . S
C1503 C1508 1.501 . S
C1504 C1505 1.387 . S
C1504 N1507 1.341 . S
C1505 C1503 1.400 . S
C1505 C1504 1.387 . S
N1506 Co1497 2.022 . S
N1506 C1503 1.351 . S
N1506 N1507 1.365 . S
N1507 C1504 1.341 . S
N1507 N1506 1.365 . S
N1507 H1527 0.862 . S
C1508 C1503 1.501 . S
C1508 H1509 0.961 . S
C1508 H1510 0.961 . S
C1508 H1511 0.960 . S
H1509 C1508 0.961 . S
H1510 C1508 0.961 . S
H1511 C1508 0.960 . S
C1512 N1513 1.342 . S
C1512 C1516 1.401 . S
C1512 C1517 1.499 . S
N1513 Co1496 1.989 . S
N1513 C1512 1.342 . S
N1513 N1514 1.388 . S
N1514 Co1497 1.993 . S
N1514 N1513 1.388 . S
N1514 C1515 1.346 . S
C1515 N1514 1.346 . S
C1515 C1516 1.396 . S
C1515 C1525 1.510 . S
C1516 C1512 1.401 . S
C1516 C1515 1.396 . S
C1517 C1512 1.499 . S
C1517 H1518 0.959 . S
C1517 H1519 0.960 . S
C1517 H1520 0.961 . S
H1518 C1517 0.959 . S
H1519 C1517 0.960 . S
H1520 C1517 0.961 . S
O1521 Co1496 1.967 . S
O1521 C1529 1.258 . S
O1522 Co1497 1.941 . S
O1522 C1529 1.266 . S
H1523 C1525 0.959 . S
H1524 C1525 0.961 . S
C1525 C1515 1.510 . S
C1525 H1523 0.959 . S
C1525 H1524 0.961 . S
C1525 H1526 0.960 . S
H1526 C1525 0.960 . S
H1527 N1507 0.862 . S
O1528 Co1496 1.920 . S
O1528 C1501 1.289 . S
C1529 O1521 1.258 . S
C1529 O1522 1.266 . S
Co1530 O1533 1.970 . S
Co1530 N1547 1.989 . S
Co1530 O1555 1.967 . S
Co1530 O1562 1.920 . S
Co1531 O1534 1.966 . S
Co1531 N1540 2.022 . S
Co1531 N1548 1.993 . S
Co1531 O1556 1.941 . S
C1532 O1533 1.258 . S
C1532 O1534 1.263 . S
O1533 Co1530 1.970 . S
O1533 C1532 1.258 . S
O1534 Co1531 1.966 . S
O1534 C1532 1.263 . S
C1535 O1536 1.235 . S
C1535 O1562 1.289 . S
O1536 C1535 1.235 . S
C1537 C1539 1.400 . S
C1537 N1540 1.351 . S
C1537 C1542 1.501 . S
C1538 C1539 1.387 . S
C1538 N1541 1.341 . S
C1539 C1537 1.400 . S
C1539 C1538 1.387 . S
N1540 Co1531 2.022 . S
N1540 C1537 1.351 . S
N1540 N1541 1.365 . S
N1541 C1538 1.341 . S
N1541 N1540 1.365 . S
N1541 H1561 0.862 . S
C1542 C1537 1.501 . S
C1542 H1543 0.961 . S
C1542 H1544 0.961 . S
C1542 H1545 0.960 . S
H1543 C1542 0.961 . S
H1544 C1542 0.961 . S
H1545 C1542 0.960 . S
C1546 N1547 1.342 . S
C1546 C1550 1.401 . S
C1546 C1551 1.499 . S
N1547 Co1530 1.989 . S
N1547 C1546 1.342 . S
N1547 N1548 1.388 . S
N1548 Co1531 1.993 . S
N1548 N1547 1.388 . S
N1548 C1549 1.346 . S
C1549 N1548 1.346 . S
C1549 C1550 1.396 . S
C1549 C1559 1.510 . S
C1550 C1546 1.401 . S
C1550 C1549 1.396 . S
C1551 C1546 1.499 . S
C1551 H1552 0.959 . S
C1551 H1553 0.960 . S
C1551 H1554 0.961 . S
H1552 C1551 0.959 . S
H1553 C1551 0.960 . S
H1554 C1551 0.961 . S
O1555 Co1530 1.967 . S
O1555 C1563 1.258 . S
O1556 Co1531 1.941 . S
O1556 C1563 1.266 . S
H1557 C1559 0.959 . S
H1558 C1559 0.961 . S
C1559 C1549 1.510 . S
C1559 H1557 0.959 . S
C1559 H1558 0.961 . S
C1559 H1560 0.960 . S
H1560 C1559 0.960 . S
H1561 N1541 0.862 . S
O1562 Co1530 1.920 . S
O1562 C1535 1.289 . S
C1563 O1555 1.258 . S
C1563 O1556 1.266 . S
Co1564 O1567 1.970 . S
Co1564 N1581 1.989 . S
Co1564 O1589 1.967 . S
Co1564 O1596 1.920 . S
Co1565 O1568 1.966 . S
Co1565 N1574 2.022 . S
Co1565 N1582 1.993 . S
Co1565 O1590 1.941 . S
C1566 O1567 1.258 . S
C1566 O1568 1.263 . S
O1567 Co1564 1.970 . S
O1567 C1566 1.258 . S
O1568 Co1565 1.966 . S
O1568 C1566 1.263 . S
C1569 O1570 1.235 . S
C1569 O1596 1.289 . S
O1570 C1569 1.235 . S
C1571 C1573 1.400 . S
C1571 N1574 1.351 . S
C1571 C1576 1.501 . S
C1572 C1573 1.387 . S
C1572 N1575 1.341 . S
C1573 C1571 1.400 . S
C1573 C1572 1.387 . S
N1574 Co1565 2.022 . S
N1574 C1571 1.351 . S
N1574 N1575 1.365 . S
N1575 C1572 1.341 . S
N1575 N1574 1.365 . S
N1575 H1595 0.862 . S
C1576 C1571 1.501 . S
C1576 H1577 0.961 . S
C1576 H1578 0.961 . S
C1576 H1579 0.960 . S
H1577 C1576 0.961 . S
H1578 C1576 0.961 . S
H1579 C1576 0.960 . S
C1580 N1581 1.342 . S
C1580 C1584 1.401 . S
C1580 C1585 1.499 . S
N1581 Co1564 1.989 . S
N1581 C1580 1.342 . S
N1581 N1582 1.388 . S
N1582 Co1565 1.993 . S
N1582 N1581 1.388 . S
N1582 C1583 1.346 . S
C1583 N1582 1.346 . S
C1583 C1584 1.396 . S
C1583 C1593 1.510 . S
C1584 C1580 1.401 . S
C1584 C1583 1.396 . S
C1585 C1580 1.499 . S
C1585 H1586 0.959 . S
C1585 H1587 0.960 . S
C1585 H1588 0.961 . S
H1586 C1585 0.959 . S
H1587 C1585 0.960 . S
H1588 C1585 0.961 . S
O1589 Co1564 1.967 . S
O1589 C1597 1.258 . S
O1590 Co1565 1.941 . S
O1590 C1597 1.266 . S
H1591 C1593 0.959 . S
H1592 C1593 0.961 . S
C1593 C1583 1.510 . S
C1593 H1591 0.959 . S
C1593 H1592 0.961 . S
C1593 H1594 0.960 . S
H1594 C1593 0.960 . S
H1595 N1575 0.862 . S
O1596 Co1564 1.920 . S
O1596 C1569 1.289 . S
C1597 O1589 1.258 . S
C1597 O1590 1.266 . S
Co1598 O1601 1.970 . S
Co1598 N1615 1.989 . S
Co1598 O1623 1.967 . S
Co1598 O1630 1.920 . S
Co1599 O1602 1.966 . S
Co1599 N1608 2.022 . S
Co1599 N1616 1.993 . S
Co1599 O1624 1.941 . S
C1600 O1601 1.258 . S
C1600 O1602 1.263 . S
O1601 Co1598 1.970 . S
O1601 C1600 1.258 . S
O1602 Co1599 1.966 . S
O1602 C1600 1.263 . S
C1603 O1604 1.235 . S
C1603 O1630 1.289 . S
O1604 C1603 1.235 . S
C1605 C1607 1.400 . S
C1605 N1608 1.351 . S
C1605 C1610 1.501 . S
C1606 C1607 1.387 . S
C1606 N1609 1.341 . S
C1607 C1605 1.400 . S
C1607 C1606 1.387 . S
N1608 Co1599 2.022 . S
N1608 C1605 1.351 . S
N1608 N1609 1.365 . S
N1609 C1606 1.341 . S
N1609 N1608 1.365 . S
N1609 H1629 0.862 . S
C1610 C1605 1.501 . S
C1610 H1611 0.961 . S
C1610 H1612 0.961 . S
C1610 H1613 0.960 . S
H1611 C1610 0.961 . S
H1612 C1610 0.961 . S
H1613 C1610 0.960 . S
C1614 N1615 1.342 . S
C1614 C1618 1.401 . S
C1614 C1619 1.499 . S
N1615 Co1598 1.989 . S
N1615 C1614 1.342 . S
N1615 N1616 1.388 . S
N1616 Co1599 1.993 . S
N1616 N1615 1.388 . S
N1616 C1617 1.346 . S
C1617 N1616 1.346 . S
C1617 C1618 1.396 . S
C1617 C1627 1.510 . S
C1618 C1614 1.401 . S
C1618 C1617 1.396 . S
C1619 C1614 1.499 . S
C1619 H1620 0.959 . S
C1619 H1621 0.960 . S
C1619 H1622 0.961 . S
H1620 C1619 0.959 . S
H1621 C1619 0.960 . S
H1622 C1619 0.961 . S
O1623 Co1598 1.967 . S
O1623 C1631 1.258 . S
O1624 Co1599 1.941 . S
O1624 C1631 1.266 . S
H1625 C1627 0.959 . S
H1626 C1627 0.961 . S
C1627 C1617 1.510 . S
C1627 H1625 0.959 . S
C1627 H1626 0.961 . S
C1627 H1628 0.960 . S
H1628 C1627 0.960 . S
H1629 N1609 0.862 . S
O1630 Co1598 1.920 . S
O1630 C1603 1.289 . S
C1631 O1623 1.258 . S
C1631 O1624 1.266 . S
C1632 C1633 1.349 . S
C1632 C1634 1.327 . S
C1632 H1657 0.950 . S
C1633 C1632 1.349 . S
C1633 C1649 1.349 . S
C1634 C1632 1.327 . S
C1634 C1653 1.429 . S
C1634 H1658 0.950 . S
C1635 C1652 1.574 . S
C1635 C1654 1.368 . S
C1635 H1659 0.949 . S
H1636 C1640 0.949 . S
C1637 C1638 1.349 . S
C1637 C1639 1.327 . S
C1637 H1660 0.950 . S
C1638 C1637 1.349 . S
C1638 C1650 1.349 . S
C1639 C1637 1.327 . S
C1639 C1655 1.429 . S
C1639 H1661 0.950 . S
C1640 H1636 0.949 . S
C1640 C1648 1.574 . S
C1640 C1656 1.368 . S
H1641 C1649 0.950 . S
H1642 C1647 0.950 . S
H1643 C1648 0.949 . S
H1644 C1650 0.950 . S
H1645 C1651 0.950 . S
H1646 C1652 0.949 . S
C1647 H1642 0.950 . S
C1647 C1649 1.327 . S
C1647 C1653 1.429 . S
C1648 C1640 1.574 . S
C1648 H1643 0.949 . S
C1648 C1654 1.368 . S
C1649 C1633 1.349 . S
C1649 H1641 0.950 . S
C1649 C1647 1.327 . S
C1650 C1638 1.349 . S
C1650 H1644 0.950 . S
C1650 C1651 1.327 . S
C1651 H1645 0.950 . S
C1651 C1650 1.327 . S
C1651 C1655 1.429 . S
C1652 C1635 1.574 . S
C1652 H1646 0.949 . S
C1652 C1656 1.368 . S
C1653 C1634 1.429 . S
C1653 C1647 1.429 . S
C1653 C1654 1.523 . S
C1654 C1635 1.368 . S
C1654 C1648 1.368 . S
C1654 C1653 1.523 . S
C1655 C1639 1.429 . S
C1655 C1651 1.429 . S
C1655 C1656 1.523 . S
C1656 C1640 1.368 . S
C1656 C1652 1.368 . S
C1656 C1655 1.523 . S
H1657 C1632 0.950 . S
H1658 C1634 0.950 . S
H1659 C1635 0.949 . S
H1660 C1637 0.950 . S
H1661 C1639 0.950 . S
C1662 C1663 1.349 . S
C1662 C1664 1.327 . S
C1662 H1687 0.950 . S
C1663 C1662 1.349 . S
C1663 C1679 1.349 . S
C1664 C1662 1.327 . S
C1664 C1683 1.429 . S
C1664 H1688 0.950 . S
C1665 C1682 1.574 . S
C1665 C1684 1.368 . S
C1665 H1689 0.949 . S
H1666 C1670 0.949 . S
C1667 C1668 1.349 . S
C1667 C1669 1.327 . S
C1667 H1690 0.950 . S
C1668 C1667 1.349 . S
C1668 C1680 1.349 . S
C1669 C1667 1.327 . S
C1669 C1685 1.429 . S
C1669 H1691 0.950 . S
C1670 H1666 0.949 . S
C1670 C1678 1.574 . S
C1670 C1686 1.368 . S
H1671 C1679 0.950 . S
H1672 C1677 0.950 . S
H1673 C1678 0.949 . S
H1674 C1680 0.950 . S
H1675 C1681 0.950 . S
H1676 C1682 0.949 . S
C1677 H1672 0.950 . S
C1677 C1679 1.327 . S
C1677 C1683 1.429 . S
C1678 C1670 1.574 . S
C1678 H1673 0.949 . S
C1678 C1684 1.368 . S
C1679 C1663 1.349 . S
C1679 H1671 0.950 . S
C1679 C1677 1.327 . S
C1680 C1668 1.349 . S
C1680 H1674 0.950 . S
C1680 C1681 1.327 . S
C1681 H1675 0.950 . S
C1681 C1680 1.327 . S
C1681 C1685 1.429 . S
C1682 C1665 1.574 . S
C1682 H1676 0.949 . S
C1682 C1686 1.368 . S
C1683 C1664 1.429 . S
C1683 C1677 1.429 . S
C1683 C1684 1.523 . S
C1684 C1665 1.368 . S
C1684 C1678 1.368 . S
C1684 C1683 1.523 . S
C1685 C1669 1.429 . S
C1685 C1681 1.429 . S
C1685 C1686 1.523 . S
C1686 C1670 1.368 . S
C1686 C1682 1.368 . S
C1686 C1685 1.523 . S
H1687 C1662 0.950 . S
H1688 C1664 0.950 . S
H1689 C1665 0.949 . S
H1690 C1667 0.950 . S
H1691 C1669 0.950 . S
C1692 C1693 1.349 . S
C1692 C1694 1.327 . S
C1692 H1717 0.950 . S
C1693 C1692 1.349 . S
C1693 C1709 1.349 . S
C1694 C1692 1.327 . S
C1694 C1713 1.429 . S
C1694 H1718 0.950 . S
C1695 C1712 1.574 . S
C1695 C1714 1.368 . S
C1695 H1719 0.949 . S
H1696 C1700 0.949 . S
C1697 C1698 1.349 . S
C1697 C1699 1.327 . S
C1697 H1720 0.950 . S
C1698 C1697 1.349 . S
C1698 C1710 1.349 . S
C1699 C1697 1.327 . S
C1699 C1715 1.429 . S
C1699 H1721 0.950 . S
C1700 H1696 0.949 . S
C1700 C1708 1.574 . S
C1700 C1716 1.368 . S
H1701 C1709 0.950 . S
H1702 C1707 0.950 . S
H1703 C1708 0.949 . S
H1704 C1710 0.950 . S
H1705 C1711 0.950 . S
H1706 C1712 0.949 . S
C1707 H1702 0.950 . S
C1707 C1709 1.327 . S
C1707 C1713 1.429 . S
C1708 C1700 1.574 . S
C1708 H1703 0.949 . S
C1708 C1714 1.368 . S
C1709 C1693 1.349 . S
C1709 H1701 0.950 . S
C1709 C1707 1.327 . S
C1710 C1698 1.349 . S
C1710 H1704 0.950 . S
C1710 C1711 1.327 . S
C1711 H1705 0.950 . S
C1711 C1710 1.327 . S
C1711 C1715 1.429 . S
C1712 C1695 1.574 . S
C1712 H1706 0.949 . S
C1712 C1716 1.368 . S
C1713 C1694 1.429 . S
C1713 C1707 1.429 . S
C1713 C1714 1.523 . S
C1714 C1695 1.368 . S
C1714 C1708 1.368 . S
C1714 C1713 1.523 . S
C1715 C1699 1.429 . S
C1715 C1711 1.429 . S
C1715 C1716 1.523 . S
C1716 C1700 1.368 . S
C1716 C1712 1.368 . S
C1716 C1715 1.523 . S
H1717 C1692 0.950 . S
H1718 C1694 0.950 . S
H1719 C1695 0.949 . S
H1720 C1697 0.950 . S
H1721 C1699 0.950 . S
C1722 C1723 1.349 . S
C1722 C1724 1.327 . S
C1722 H1747 0.950 . S
C1723 C1722 1.349 . S
C1723 C1739 1.349 . S
C1724 C1722 1.327 . S
C1724 C1743 1.429 . S
C1724 H1748 0.950 . S
C1725 C1742 1.574 . S
C1725 C1744 1.368 . S
C1725 H1749 0.949 . S
H1726 C1730 0.949 . S
C1727 C1728 1.349 . S
C1727 C1729 1.327 . S
C1727 H1750 0.950 . S
C1728 C1727 1.349 . S
C1728 C1740 1.349 . S
C1729 C1727 1.327 . S
C1729 C1745 1.429 . S
C1729 H1751 0.950 . S
C1730 H1726 0.949 . S
C1730 C1738 1.574 . S
C1730 C1746 1.368 . S
H1731 C1739 0.950 . S
H1732 C1737 0.950 . S
H1733 C1738 0.949 . S
H1734 C1740 0.950 . S
H1735 C1741 0.950 . S
H1736 C1742 0.949 . S
C1737 H1732 0.950 . S
C1737 C1739 1.327 . S
C1737 C1743 1.429 . S
C1738 C1730 1.574 . S
C1738 H1733 0.949 . S
C1738 C1744 1.368 . S
C1739 C1723 1.349 . S
C1739 H1731 0.950 . S
C1739 C1737 1.327 . S
C1740 C1728 1.349 . S
C1740 H1734 0.950 . S
C1740 C1741 1.327 . S
C1741 H1735 0.950 . S
C1741 C1740 1.327 . S
C1741 C1745 1.429 . S
C1742 C1725 1.574 . S
C1742 H1736 0.949 . S
C1742 C1746 1.368 . S
C1743 C1724 1.429 . S
C1743 C1737 1.429 . S
C1743 C1744 1.523 . S
C1744 C1725 1.368 . S
C1744 C1738 1.368 . S
C1744 C1743 1.523 . S
C1745 C1729 1.429 . S
C1745 C1741 1.429 . S
C1745 C1746 1.523 . S
C1746 C1730 1.368 . S
C1746 C1742 1.368 . S
C1746 C1745 1.523 . S
H1747 C1722 0.950 . S
H1748 C1724 0.950 . S
H1749 C1725 0.949 . S
H1750 C1727 0.950 . S
H1751 C1729 0.950 . S
C1752 C1753 1.349 . S
C1752 C1754 1.327 . S
C1752 H1777 0.950 . S
C1753 C1752 1.349 . S
C1753 C1769 1.349 . S
C1754 C1752 1.327 . S
C1754 C1773 1.429 . S
C1754 H1778 0.950 . S
C1755 C1772 1.574 . S
C1755 C1774 1.368 . S
C1755 H1779 0.949 . S
H1756 C1760 0.949 . S
C1757 C1758 1.349 . S
C1757 C1759 1.327 . S
C1757 H1780 0.950 . S
C1758 C1757 1.349 . S
C1758 C1770 1.349 . S
C1759 C1757 1.327 . S
C1759 C1775 1.429 . S
C1759 H1781 0.950 . S
C1760 H1756 0.949 . S
C1760 C1768 1.574 . S
C1760 C1776 1.368 . S
H1761 C1769 0.950 . S
H1762 C1767 0.950 . S
H1763 C1768 0.949 . S
H1764 C1770 0.950 . S
H1765 C1771 0.950 . S
H1766 C1772 0.949 . S
C1767 H1762 0.950 . S
C1767 C1769 1.327 . S
C1767 C1773 1.429 . S
C1768 C1760 1.574 . S
C1768 H1763 0.949 . S
C1768 C1774 1.368 . S
C1769 C1753 1.349 . S
C1769 H1761 0.950 . S
C1769 C1767 1.327 . S
C1770 C1758 1.349 . S
C1770 H1764 0.950 . S
C1770 C1771 1.327 . S
C1771 H1765 0.950 . S
C1771 C1770 1.327 . S
C1771 C1775 1.429 . S
C1772 C1755 1.574 . S
C1772 H1766 0.949 . S
C1772 C1776 1.368 . S
C1773 C1754 1.429 . S
C1773 C1767 1.429 . S
C1773 C1774 1.523 . S
C1774 C1755 1.368 . S
C1774 C1768 1.368 . S
C1774 C1773 1.523 . S
C1775 C1759 1.429 . S
C1775 C1771 1.429 . S
C1775 C1776 1.523 . S
C1776 C1760 1.368 . S
C1776 C1772 1.368 . S
C1776 C1775 1.523 . S
H1777 C1752 0.950 . S
H1778 C1754 0.950 . S
H1779 C1755 0.949 . S
H1780 C1757 0.950 . S
H1781 C1759 0.950 . S
C1782 C1783 1.349 . S
C1782 C1784 1.327 . S
C1782 H1807 0.950 . S
C1783 C1782 1.349 . S
C1783 C1799 1.349 . S
C1784 C1782 1.327 . S
C1784 C1803 1.429 . S
C1784 H1808 0.950 . S
C1785 C1802 1.574 . S
C1785 C1804 1.368 . S
C1785 H1809 0.949 . S
H1786 C1790 0.949 . S
C1787 C1788 1.349 . S
C1787 C1789 1.327 . S
C1787 H1810 0.950 . S
C1788 C1787 1.349 . S
C1788 C1800 1.349 . S
C1789 C1787 1.327 . S
C1789 C1805 1.429 1_455 S
C1789 H1811 0.950 . S
C1790 H1786 0.949 . S
C1790 C1798 1.574 . S
C1790 C1806 1.368 . S
H1791 C1799 0.950 . S
H1792 C1797 0.950 . S
H1793 C1798 0.949 . S
H1794 C1800 0.950 . S
H1795 C1801 0.950 . S
H1796 C1802 0.949 . S
C1797 H1792 0.950 . S
C1797 C1799 1.327 . S
C1797 C1803 1.429 . S
C1798 C1790 1.574 . S
C1798 H1793 0.949 . S
C1798 C1804 1.368 . S
C1799 C1783 1.349 . S
C1799 H1791 0.950 . S
C1799 C1797 1.327 . S
C1800 C1788 1.349 . S
C1800 H1794 0.950 . S
C1800 C1801 1.327 1_455 S
C1801 H1795 0.950 . S
C1801 C1800 1.327 1_655 S
C1801 C1805 1.429 . S
C1802 C1785 1.574 . S
C1802 H1796 0.949 . S
C1802 C1806 1.368 . S
C1803 C1784 1.429 . S
C1803 C1797 1.429 . S
C1803 C1804 1.523 . S
C1804 C1785 1.368 . S
C1804 C1798 1.368 . S
C1804 C1803 1.523 . S
C1805 C1789 1.429 1_655 S
C1805 C1801 1.429 . S
C1805 C1806 1.523 . S
C1806 C1790 1.368 . S
C1806 C1802 1.368 . S
C1806 C1805 1.523 . S
H1807 C1782 0.950 . S
H1808 C1784 0.950 . S
H1809 C1785 0.949 . S
H1810 C1787 0.950 . S
H1811 C1789 0.950 . S
C1812 C1813 1.349 . S
C1812 C1814 1.327 . S
C1812 H1837 0.950 . S
C1813 C1812 1.349 . S
C1813 C1829 1.349 . S
C1814 C1812 1.327 . S
C1814 C1833 1.429 . S
C1814 H1838 0.950 . S
C1815 C1832 1.574 . S
C1815 C1834 1.368 . S
C1815 H1839 0.949 . S
H1816 C1820 0.949 . S
C1817 C1818 1.349 . S
C1817 C1819 1.327 . S
C1817 H1840 0.950 . S
C1818 C1817 1.349 . S
C1818 C1830 1.349 . S
C1819 C1817 1.327 . S
C1819 C1835 1.429 . S
C1819 H1841 0.950 . S
C1820 H1816 0.949 . S
C1820 C1828 1.574 . S
C1820 C1836 1.368 . S
H1821 C1829 0.950 . S
H1822 C1827 0.950 . S
H1823 C1828 0.949 . S
H1824 C1830 0.950 . S
H1825 C1831 0.950 . S
H1826 C1832 0.949 . S
C1827 H1822 0.950 . S
C1827 C1829 1.327 . S
C1827 C1833 1.429 . S
C1828 C1820 1.574 . S
C1828 H1823 0.949 . S
C1828 C1834 1.368 . S
C1829 C1813 1.349 . S
C1829 H1821 0.950 . S
C1829 C1827 1.327 . S
C1830 C1818 1.349 . S
C1830 H1824 0.950 . S
C1830 C1831 1.327 . S
C1831 H1825 0.950 . S
C1831 C1830 1.327 . S
C1831 C1835 1.429 . S
C1832 C1815 1.574 . S
C1832 H1826 0.949 . S
C1832 C1836 1.368 . S
C1833 C1814 1.429 . S
C1833 C1827 1.429 . S
C1833 C1834 1.523 . S
C1834 C1815 1.368 . S
C1834 C1828 1.368 . S
C1834 C1833 1.523 . S
C1835 C1819 1.429 . S
C1835 C1831 1.429 . S
C1835 C1836 1.523 . S
C1836 C1820 1.368 . S
C1836 C1832 1.368 . S
C1836 C1835 1.523 . S
H1837 C1812 0.950 . S
H1838 C1814 0.950 . S
H1839 C1815 0.949 . S
H1840 C1817 0.950 . S
H1841 C1819 0.950 . S
C1842 C1843 1.349 . S
C1842 C1844 1.327 1_655 S
C1842 H1867 0.950 . S
C1843 C1842 1.349 . S
C1843 C1859 1.349 . S
C1844 C1842 1.327 1_455 S
C1844 C1863 1.429 . S
C1844 H1868 0.950 . S
C1845 C1862 1.574 . S
C1845 C1864 1.368 . S
C1845 H1869 0.949 . S
H1846 C1850 0.949 . S
C1847 C1848 1.349 . S
C1847 C1849 1.327 . S
C1847 H1870 0.950 . S
C1848 C1847 1.349 . S
C1848 C1860 1.349 . S
C1849 C1847 1.327 . S
C1849 C1865 1.429 . S
C1849 H1871 0.950 . S
C1850 H1846 0.949 . S
C1850 C1858 1.574 . S
C1850 C1866 1.368 . S
H1851 C1859 0.950 . S
H1852 C1857 0.950 . S
H1853 C1858 0.949 . S
H1854 C1860 0.950 . S
H1855 C1861 0.950 . S
H1856 C1862 0.949 . S
C1857 H1852 0.950 . S
C1857 C1859 1.327 . S
C1857 C1863 1.429 1_655 S
C1858 C1850 1.574 . S
C1858 H1853 0.949 . S
C1858 C1864 1.368 . S
C1859 C1843 1.349 . S
C1859 H1851 0.950 . S
C1859 C1857 1.327 . S
C1860 C1848 1.349 . S
C1860 H1854 0.950 . S
C1860 C1861 1.327 . S
C1861 H1855 0.950 . S
C1861 C1860 1.327 . S
C1861 C1865 1.429 . S
C1862 C1845 1.574 . S
C1862 H1856 0.949 . S
C1862 C1866 1.368 . S
C1863 C1844 1.429 . S
C1863 C1857 1.429 1_455 S
C1863 C1864 1.523 . S
C1864 C1845 1.368 . S
C1864 C1858 1.368 . S
C1864 C1863 1.523 . S
C1865 C1849 1.429 . S
C1865 C1861 1.429 . S
C1865 C1866 1.523 . S
C1866 C1850 1.368 . S
C1866 C1862 1.368 . S
C1866 C1865 1.523 . S
H1867 C1842 0.950 . S
H1868 C1844 0.950 . S
H1869 C1845 0.949 . S
H1870 C1847 0.950 . S
H1871 C1849 0.950 . S
C1872 C1873 1.349 . S
C1872 C1874 1.327 . S
C1872 H1897 0.950 . S
C1873 C1872 1.349 . S
C1873 C1889 1.349 . S
C1874 C1872 1.327 . S
C1874 C1893 1.429 . S
C1874 H1898 0.950 . S
C1875 C1892 1.574 . S
C1875 C1894 1.368 . S
C1875 H1899 0.949 . S
H1876 C1880 0.949 . S
C1877 C1878 1.349 . S
C1877 C1879 1.327 . S
C1877 H1900 0.950 . S
C1878 C1877 1.349 . S
C1878 C1890 1.349 . S
C1879 C1877 1.327 . S
C1879 C1895 1.429 . S
C1879 H1901 0.950 . S
C1880 H1876 0.949 . S
C1880 C1888 1.574 . S
C1880 C1896 1.368 . S
H1881 C1889 0.950 . S
H1882 C1887 0.950 . S
H1883 C1888 0.949 . S
H1884 C1890 0.950 . S
H1885 C1891 0.950 . S
H1886 C1892 0.949 . S
C1887 H1882 0.950 . S
C1887 C1889 1.327 . S
C1887 C1893 1.429 . S
C1888 C1880 1.574 . S
C1888 H1883 0.949 . S
C1888 C1894 1.368 . S
C1889 C1873 1.349 . S
C1889 H1881 0.950 . S
C1889 C1887 1.327 . S
C1890 C1878 1.349 . S
C1890 H1884 0.950 . S
C1890 C1891 1.327 . S
C1891 H1885 0.950 . S
C1891 C1890 1.327 . S
C1891 C1895 1.429 . S
C1892 C1875 1.574 . S
C1892 H1886 0.949 . S
C1892 C1896 1.368 . S
C1893 C1874 1.429 . S
C1893 C1887 1.429 . S
C1893 C1894 1.523 . S
C1894 C1875 1.368 . S
C1894 C1888 1.368 . S
C1894 C1893 1.523 . S
C1895 C1879 1.429 . S
C1895 C1891 1.429 . S
C1895 C1896 1.523 . S
C1896 C1880 1.368 . S
C1896 C1892 1.368 . S
C1896 C1895 1.523 . S
H1897 C1872 0.950 . S
H1898 C1874 0.950 . S
H1899 C1875 0.949 . S
H1900 C1877 0.950 . S
H1901 C1879 0.950 . S
C1902 C1903 1.349 . S
C1902 C1904 1.327 . S
C1902 H1927 0.950 . S
C1903 C1902 1.349 . S
C1903 C1919 1.349 . S
C1904 C1902 1.327 . S
C1904 C1923 1.429 1_554 S
C1904 H1928 0.950 . S
C1905 C1922 1.574 . S
C1905 C1924 1.368 . S
C1905 H1929 0.949 . S
H1906 C1910 0.949 . S
C1907 C1908 1.349 . S
C1907 C1909 1.327 . S
C1907 H1930 0.950 . S
C1908 C1907 1.349 . S
C1908 C1920 1.349 . S
C1909 C1907 1.327 . S
C1909 C1925 1.429 . S
C1909 H1931 0.950 . S
C1910 H1906 0.949 . S
C1910 C1918 1.574 . S
C1910 C1926 1.368 . S
H1911 C1919 0.950 . S
H1912 C1917 0.950 . S
H1913 C1918 0.949 . S
H1914 C1920 0.950 . S
H1915 C1921 0.950 . S
H1916 C1922 0.949 . S
C1917 H1912 0.950 . S
C1917 C1919 1.327 1_556 S
C1917 C1923 1.429 . S
C1918 C1910 1.574 . S
C1918 H1913 0.949 . S
C1918 C1924 1.368 . S
C1919 C1903 1.349 . S
C1919 H1911 0.950 . S
C1919 C1917 1.327 1_554 S
C1920 C1908 1.349 . S
C1920 H1914 0.950 . S
C1920 C1921 1.327 . S
C1921 H1915 0.950 . S
C1921 C1920 1.327 . S
C1921 C1925 1.429 . S
C1922 C1905 1.574 . S
C1922 H1916 0.949 . S
C1922 C1926 1.368 . S
C1923 C1904 1.429 1_556 S
C1923 C1917 1.429 . S
C1923 C1924 1.523 . S
C1924 C1905 1.368 . S
C1924 C1918 1.368 . S
C1924 C1923 1.523 . S
C1925 C1909 1.429 . S
C1925 C1921 1.429 . S
C1925 C1926 1.523 . S
C1926 C1910 1.368 . S
C1926 C1922 1.368 . S
C1926 C1925 1.523 . S
H1927 C1902 0.950 . S
H1928 C1904 0.950 . S
H1929 C1905 0.949 . S
H1930 C1907 0.950 . S
H1931 C1909 0.950 . S
C1932 C1933 1.349 . S
C1932 C1934 1.327 . S
C1932 H1957 0.950 . S
C1933 C1932 1.349 . S
C1933 C1949 1.349 . S
C1934 C1932 1.327 . S
C1934 C1953 1.429 . S
C1934 H1958 0.950 . S
C1935 C1952 1.574 . S
C1935 C1954 1.368 . S
C1935 H1959 0.949 . S
H1936 C1940 0.949 . S
C1937 C1938 1.349 . S
C1937 C1939 1.327 . S
C1937 H1960 0.950 . S
C1938 C1937 1.349 . S
C1938 C1950 1.349 . S
C1939 C1937 1.327 . S
C1939 C1955 1.429 . S
C1939 H1961 0.950 . S
C1940 H1936 0.949 . S
C1940 C1948 1.574 . S
C1940 C1956 1.368 . S
H1941 C1949 0.950 . S
H1942 C1947 0.950 . S
H1943 C1948 0.949 . S
H1944 C1950 0.950 . S
H1945 C1951 0.950 . S
H1946 C1952 0.949 . S
C1947 H1942 0.950 . S
C1947 C1949 1.327 . S
C1947 C1953 1.429 . S
C1948 C1940 1.574 . S
C1948 H1943 0.949 . S
C1948 C1954 1.368 . S
C1949 C1933 1.349 . S
C1949 H1941 0.950 . S
C1949 C1947 1.327 . S
C1950 C1938 1.349 . S
C1950 H1944 0.950 . S
C1950 C1951 1.327 . S
C1951 H1945 0.950 . S
C1951 C1950 1.327 . S
C1951 C1955 1.429 . S
C1952 C1935 1.574 . S
C1952 H1946 0.949 . S
C1952 C1956 1.368 . S
C1953 C1934 1.429 . S
C1953 C1947 1.429 . S
C1953 C1954 1.523 . S
C1954 C1935 1.368 . S
C1954 C1948 1.368 . S
C1954 C1953 1.523 . S
C1955 C1939 1.429 . S
C1955 C1951 1.429 . S
C1955 C1956 1.523 . S
C1956 C1940 1.368 . S
C1956 C1952 1.368 . S
C1956 C1955 1.523 . S
H1957 C1932 0.950 . S
H1958 C1934 0.950 . S
H1959 C1935 0.949 . S
H1960 C1937 0.950 . S
H1961 C1939 0.950 . S
C1962 C1963 1.349 . S
C1962 C1964 1.327 . S
C1962 H1987 0.950 . S
C1963 C1962 1.349 . S
C1963 C1979 1.349 . S
C1964 C1962 1.327 . S
C1964 C1983 1.429 . S
C1964 H1988 0.950 . S
C1965 C1982 1.574 . S
C1965 C1984 1.368 . S
C1965 H1989 0.949 . S
H1966 C1970 0.949 . S
C1967 C1968 1.349 . S
C1967 C1969 1.327 . S
C1967 H1990 0.950 . S
C1968 C1967 1.349 . S
C1968 C1980 1.349 . S
C1969 C1967 1.327 . S
C1969 C1985 1.429 1_554 S
C1969 H1991 0.950 1_554 S
C1970 H1966 0.949 . S
C1970 C1978 1.574 . S
C1970 C1986 1.368 . S
H1971 C1979 0.950 . S
H1972 C1977 0.950 . S
H1973 C1978 0.949 . S
H1974 C1980 0.950 . S
H1975 C1981 0.950 . S
H1976 C1982 0.949 . S
C1977 H1972 0.950 . S
C1977 C1979 1.327 . S
C1977 C1983 1.429 . S
C1978 C1970 1.574 . S
C1978 H1973 0.949 . S
C1978 C1984 1.368 . S
C1979 C1963 1.349 . S
C1979 H1971 0.950 . S
C1979 C1977 1.327 . S
C1980 C1968 1.349 . S
C1980 H1974 0.950 . S
C1980 C1981 1.327 1_554 S
C1981 H1975 0.950 . S
C1981 C1980 1.327 1_556 S
C1981 C1985 1.429 . S
C1982 C1965 1.574 . S
C1982 H1976 0.949 . S
C1982 C1986 1.368 . S
C1983 C1964 1.429 . S
C1983 C1977 1.429 . S
C1983 C1984 1.523 . S
C1984 C1965 1.368 . S
C1984 C1978 1.368 . S
C1984 C1983 1.523 . S
C1985 C1969 1.429 1_556 S
C1985 C1981 1.429 . S
C1985 C1986 1.523 . S
C1986 C1970 1.368 . S
C1986 C1982 1.368 . S
C1986 C1985 1.523 . S
H1987 C1962 0.950 . S
H1988 C1964 0.950 . S
H1989 C1965 0.949 . S
H1990 C1967 0.950 . S
H1991 C1969 0.950 1_556 S
C1992 C1993 1.349 . S
C1992 C1994 1.327 . S
C1992 H2017 0.950 . S
C1993 C1992 1.349 . S
C1993 C2009 1.349 . S
C1994 C1992 1.327 . S
C1994 C2013 1.429 . S
C1994 H2018 0.950 . S
C1995 C2012 1.574 . S
C1995 C2014 1.368 . S
C1995 H2019 0.949 . S
H1996 C2000 0.949 . S
C1997 C1998 1.349 . S
C1997 C1999 1.327 . S
C1997 H2020 0.950 . S
C1998 C1997 1.349 . S
C1998 C2010 1.349 . S
C1999 C1997 1.327 . S
C1999 C2015 1.429 . S
C1999 H2021 0.950 . S
C2000 H1996 0.949 . S
C2000 C2008 1.574 . S
C2000 C2016 1.368 . S
H2001 C2009 0.950 . S
H2002 C2007 0.950 . S
H2003 C2008 0.949 . S
H2004 C2010 0.950 . S
H2005 C2011 0.950 . S
H2006 C2012 0.949 . S
C2007 H2002 0.950 . S
C2007 C2009 1.327 . S
C2007 C2013 1.429 . S
C2008 C2000 1.574 . S
C2008 H2003 0.949 . S
C2008 C2014 1.368 . S
C2009 C1993 1.349 . S
C2009 H2001 0.950 . S
C2009 C2007 1.327 . S
C2010 C1998 1.349 . S
C2010 H2004 0.950 . S
C2010 C2011 1.327 . S
C2011 H2005 0.950 . S
C2011 C2010 1.327 . S
C2011 C2015 1.429 . S
C2012 C1995 1.574 . S
C2012 H2006 0.949 . S
C2012 C2016 1.368 . S
C2013 C1994 1.429 . S
C2013 C2007 1.429 . S
C2013 C2014 1.523 . S
C2014 C1995 1.368 . S
C2014 C2008 1.368 . S
C2014 C2013 1.523 . S
C2015 C1999 1.429 . S
C2015 C2011 1.429 . S
C2015 C2016 1.523 . S
C2016 C2000 1.368 . S
C2016 C2012 1.368 . S
C2016 C2015 1.523 . S
H2017 C1992 0.950 . S
H2018 C1994 0.950 . S
H2019 C1995 0.949 . S
H2020 C1997 0.950 . S
H2021 C1999 0.950 . S
C2022 C2023 1.349 . S
C2022 C2024 1.327 . S
C2022 H2047 0.950 . S
C2023 C2022 1.349 . S
C2023 C2039 1.349 . S
C2024 C2022 1.327 . S
C2024 C2043 1.429 . S
C2024 H2048 0.950 . S
C2025 C2042 1.574 . S
C2025 C2044 1.368 . S
C2025 H2049 0.949 . S
H2026 C2030 0.949 . S
C2027 C2028 1.349 . S
C2027 C2029 1.327 . S
C2027 H2050 0.950 . S
C2028 C2027 1.349 . S
C2028 C2040 1.349 . S
C2029 C2027 1.327 . S
C2029 C2045 1.429 1_556 S
C2029 H2051 0.950 . S
C2030 H2026 0.949 . S
C2030 C2038 1.574 . S
C2030 C2046 1.368 . S
H2031 C2039 0.950 . S
H2032 C2037 0.950 . S
H2033 C2038 0.949 . S
H2034 C2040 0.950 . S
H2035 C2041 0.950 . S
H2036 C2042 0.949 . S
C2037 H2032 0.950 . S
C2037 C2039 1.327 . S
C2037 C2043 1.429 . S
C2038 C2030 1.574 . S
C2038 H2033 0.949 . S
C2038 C2044 1.368 . S
C2039 C2023 1.349 . S
C2039 H2031 0.950 . S
C2039 C2037 1.327 . S
C2040 C2028 1.349 . S
C2040 H2034 0.950 . S
C2040 C2041 1.327 1_556 S
C2041 H2035 0.950 . S
C2041 C2040 1.327 1_554 S
C2041 C2045 1.429 . S
C2042 C2025 1.574 . S
C2042 H2036 0.949 . S
C2042 C2046 1.368 . S
C2043 C2024 1.429 . S
C2043 C2037 1.429 . S
C2043 C2044 1.523 . S
C2044 C2025 1.368 . S
C2044 C2038 1.368 . S
C2044 C2043 1.523 . S
C2045 C2029 1.429 1_554 S
C2045 C2041 1.429 . S
C2045 C2046 1.523 . S
C2046 C2030 1.368 . S
C2046 C2042 1.368 . S
C2046 C2045 1.523 . S
H2047 C2022 0.950 . S
H2048 C2024 0.950 . S
H2049 C2025 0.949 . S
H2050 C2027 0.950 . S
H2051 C2029 0.950 . S
C2052 C2053 1.349 . S
C2052 C2054 1.327 . S
C2052 H2077 0.950 . S
C2053 C2052 1.349 . S
C2053 C2069 1.349 . S
C2054 C2052 1.327 . S
C2054 C2073 1.429 . S
C2054 H2078 0.950 . S
C2055 C2072 1.574 . S
C2055 C2074 1.368 . S
C2055 H2079 0.949 . S
H2056 C2060 0.949 . S
C2057 C2058 1.349 . S
C2057 C2059 1.327 . S
C2057 H2080 0.950 . S
C2058 C2057 1.349 . S
C2058 C2070 1.349 . S
C2059 C2057 1.327 . S
C2059 C2075 1.429 . S
C2059 H2081 0.950 . S
C2060 H2056 0.949 . S
C2060 C2068 1.574 . S
C2060 C2076 1.368 . S
H2061 C2069 0.950 . S
H2062 C2067 0.950 . S
H2063 C2068 0.949 . S
H2064 C2070 0.950 . S
H2065 C2071 0.950 . S
H2066 C2072 0.949 . S
C2067 H2062 0.950 . S
C2067 C2069 1.327 . S
C2067 C2073 1.429 . S
C2068 C2060 1.574 . S
C2068 H2063 0.949 . S
C2068 C2074 1.368 . S
C2069 C2053 1.349 . S
C2069 H2061 0.950 . S
C2069 C2067 1.327 . S
C2070 C2058 1.349 . S
C2070 H2064 0.950 . S
C2070 C2071 1.327 . S
C2071 H2065 0.950 . S
C2071 C2070 1.327 . S
C2071 C2075 1.429 . S
C2072 C2055 1.574 . S
C2072 H2066 0.949 . S
C2072 C2076 1.368 . S
C2073 C2054 1.429 . S
C2073 C2067 1.429 . S
C2073 C2074 1.523 . S
C2074 C2055 1.368 . S
C2074 C2068 1.368 . S
C2074 C2073 1.523 . S
C2075 C2059 1.429 . S
C2075 C2071 1.429 . S
C2075 C2076 1.523 . S
C2076 C2060 1.368 . S
C2076 C2072 1.368 . S
C2076 C2075 1.523 . S
H2077 C2052 0.950 . S
H2078 C2054 0.950 . S
H2079 C2055 0.949 . S
H2080 C2057 0.950 . S
H2081 C2059 0.950 . S
C2082 C2083 1.349 . S
C2082 C2084 1.321 . S
C2082 H2107 0.950 . S
C2083 C2082 1.349 . S
C2083 C2099 1.349 . S
C2084 C2082 1.321 . S
C2084 C2103 1.432 1_556 S
C2084 H2108 0.952 1_556 S
C2085 C2102 1.574 . S
C2085 C2104 1.368 . S
C2085 H2109 0.949 . S
H2086 C2090 0.949 . S
C2087 C2088 1.349 . S
C2087 C2089 1.327 . S
C2087 H2110 0.950 . S
C2088 C2087 1.349 . S
C2088 C2100 1.349 . S
C2089 C2087 1.327 . S
C2089 C2105 1.429 . S
C2089 H2111 0.950 . S
C2090 H2086 0.949 . S
C2090 C2098 1.574 . S
C2090 C2106 1.368 . S
H2091 C2099 0.950 . S
H2092 C2097 0.962 . S
H2093 C2098 0.949 . S
H2094 C2100 0.950 . S
H2095 C2101 0.950 . S
H2096 C2102 0.949 . S
C2097 H2092 0.962 . S
C2097 C2099 1.303 1_554 S
C2097 C2103 1.442 . S
C2098 C2090 1.574 . S
C2098 H2093 0.949 . S
C2098 C2104 1.368 . S
C2099 C2083 1.349 . S
C2099 H2091 0.950 . S
C2099 C2097 1.303 1_556 S
C2100 C2088 1.349 . S
C2100 H2094 0.950 . S
C2100 C2101 1.327 . S
C2101 H2095 0.950 . S
C2101 C2100 1.327 . S
C2101 C2105 1.429 . S
C2102 C2085 1.574 . S
C2102 H2096 0.949 . S
C2102 C2106 1.368 . S
C2103 C2084 1.432 1_554 S
C2103 C2097 1.442 . S
C2103 C2104 1.523 . S
C2104 C2085 1.368 . S
C2104 C2098 1.368 . S
C2104 C2103 1.523 . S
C2105 C2089 1.429 . S
C2105 C2101 1.429 . S
C2105 C2106 1.523 . S
C2106 C2090 1.368 . S
C2106 C2102 1.368 . S
C2106 C2105 1.523 . S
H2107 C2082 0.950 . S
H2108 C2084 0.952 1_554 S
H2109 C2085 0.949 . S
H2110 C2087 0.950 . S
H2111 C2089 0.950 . S
C2112 C2113 1.349 . S
C2112 C2114 1.327 . S
C2112 H2137 0.950 . S
C2113 C2112 1.349 . S
C2113 C2129 1.349 . S
C2114 C2112 1.327 . S
C2114 C2133 1.429 . S
C2114 H2138 0.950 . S
C2115 C2132 1.574 . S
C2115 C2134 1.368 . S
C2115 H2139 0.949 . S
H2116 C2120 0.949 . S
C2117 C2118 1.349 . S
C2117 C2119 1.327 . S
C2117 H2140 0.950 . S
C2118 C2117 1.349 . S
C2118 C2130 1.349 . S
C2119 C2117 1.327 . S
C2119 C2135 1.429 . S
C2119 H2141 0.950 . S
C2120 H2116 0.949 . S
C2120 C2128 1.574 . S
C2120 C2136 1.368 . S
H2121 C2129 0.950 . S
H2122 C2127 0.950 . S
H2123 C2128 0.949 . S
H2124 C2130 0.950 . S
H2125 C2131 0.950 . S
H2126 C2132 0.949 . S
C2127 H2122 0.950 . S
C2127 C2129 1.327 . S
C2127 C2133 1.429 . S
C2128 C2120 1.574 . S
C2128 H2123 0.949 . S
C2128 C2134 1.368 . S
C2129 C2113 1.349 . S
C2129 H2121 0.950 . S
C2129 C2127 1.327 . S
C2130 C2118 1.349 . S
C2130 H2124 0.950 . S
C2130 C2131 1.327 . S
C2131 H2125 0.950 . S
C2131 C2130 1.327 . S
C2131 C2135 1.429 . S
C2132 C2115 1.574 . S
C2132 H2126 0.949 . S
C2132 C2136 1.368 . S
C2133 C2114 1.429 . S
C2133 C2127 1.429 . S
C2133 C2134 1.523 . S
C2134 C2115 1.368 . S
C2134 C2128 1.368 . S
C2134 C2133 1.523 . S
C2135 C2119 1.429 . S
C2135 C2131 1.429 . S
C2135 C2136 1.523 . S
C2136 C2120 1.368 . S
C2136 C2132 1.368 . S
C2136 C2135 1.523 . S
H2137 C2112 0.950 . S
H2138 C2114 0.950 . S
H2139 C2115 0.949 . S
H2140 C2117 0.950 . S
H2141 C2119 0.950 . S
C2142 C2143 1.349 . S
C2142 C2144 1.327 . S
C2142 H2167 0.950 . S
C2143 C2142 1.349 . S
C2143 C2159 1.349 . S
C2144 C2142 1.327 . S
C2144 C2163 1.429 . S
C2144 H2168 0.950 . S
C2145 C2162 1.574 . S
C2145 C2164 1.368 . S
C2145 H2169 0.949 . S
H2146 C2150 0.949 . S
C2147 C2148 1.349 . S
C2147 C2149 1.327 . S
C2147 H2170 0.950 . S
C2148 C2147 1.349 . S
C2148 C2160 1.349 . S
C2149 C2147 1.327 . S
C2149 C2165 1.429 . S
C2149 H2171 0.950 . S
C2150 H2146 0.949 . S
C2150 C2158 1.574 . S
C2150 C2166 1.368 . S
H2151 C2159 0.950 . S
H2152 C2157 0.950 . S
H2153 C2158 0.949 . S
H2154 C2160 0.950 . S
H2155 C2161 0.950 . S
H2156 C2162 0.949 . S
C2157 H2152 0.950 . S
C2157 C2159 1.327 . S
C2157 C2163 1.429 . S
C2158 C2150 1.574 . S
C2158 H2153 0.949 . S
C2158 C2164 1.368 . S
C2159 C2143 1.349 . S
C2159 H2151 0.950 . S
C2159 C2157 1.327 . S
C2160 C2148 1.349 . S
C2160 H2154 0.950 . S
C2160 C2161 1.327 . S
C2161 H2155 0.950 . S
C2161 C2160 1.327 . S
C2161 C2165 1.429 . S
C2162 C2145 1.574 . S
C2162 H2156 0.949 . S
C2162 C2166 1.368 . S
C2163 C2144 1.429 . S
C2163 C2157 1.429 . S
C2163 C2164 1.523 . S
C2164 C2145 1.368 . S
C2164 C2158 1.368 . S
C2164 C2163 1.523 . S
C2165 C2149 1.429 . S
C2165 C2161 1.429 . S
C2165 C2166 1.523 . S
C2166 C2150 1.368 . S
C2166 C2162 1.368 . S
C2166 C2165 1.523 . S
H2167 C2142 0.950 . S
H2168 C2144 0.950 . S
H2169 C2145 0.949 . S
H2170 C2147 0.950 . S
H2171 C2149 0.950 . S
C2172 C2173 1.349 . S
C2172 C2174 1.327 . S
C2172 H2197 0.950 . S
C2173 C2172 1.349 . S
C2173 C2189 1.349 . S
C2174 C2172 1.327 . S
C2174 C2193 1.429 . S
C2174 H2198 0.950 . S
C2175 C2192 1.574 . S
C2175 C2194 1.368 . S
C2175 H2199 0.949 . S
H2176 C2180 0.949 . S
C2177 C2178 1.349 . S
C2177 C2179 1.327 . S
C2177 H2200 0.950 . S
C2178 C2177 1.349 . S
C2178 C2190 1.349 . S
C2179 C2177 1.327 . S
C2179 C2195 1.429 . S
C2179 H2201 0.950 . S
C2180 H2176 0.949 . S
C2180 C2188 1.574 . S
C2180 C2196 1.368 . S
H2181 C2189 0.950 . S
H2182 C2187 0.950 . S
H2183 C2188 0.949 . S
H2184 C2190 0.950 . S
H2185 C2191 0.950 . S
H2186 C2192 0.949 . S
C2187 H2182 0.950 . S
C2187 C2189 1.327 . S
C2187 C2193 1.429 . S
C2188 C2180 1.574 . S
C2188 H2183 0.949 . S
C2188 C2194 1.368 . S
C2189 C2173 1.349 . S
C2189 H2181 0.950 . S
C2189 C2187 1.327 . S
C2190 C2178 1.349 . S
C2190 H2184 0.950 . S
C2190 C2191 1.327 . S
C2191 H2185 0.950 . S
C2191 C2190 1.327 . S
C2191 C2195 1.429 . S
C2192 C2175 1.574 . S
C2192 H2186 0.949 . S
C2192 C2196 1.368 . S
C2193 C2174 1.429 . S
C2193 C2187 1.429 . S
C2193 C2194 1.523 . S
C2194 C2175 1.368 . S
C2194 C2188 1.368 . S
C2194 C2193 1.523 . S
C2195 C2179 1.429 . S
C2195 C2191 1.429 . S
C2195 C2196 1.523 . S
C2196 C2180 1.368 . S
C2196 C2192 1.368 . S
C2196 C2195 1.523 . S
H2197 C2172 0.950 . S
H2198 C2174 0.950 . S
H2199 C2175 0.949 . S
H2200 C2177 0.950 . S
H2201 C2179 0.950 . S
C2202 C2203 1.349 . S
C2202 C2204 1.327 . S
C2202 H2227 0.950 . S
C2203 C2202 1.349 . S
C2203 C2219 1.349 . S
C2204 C2202 1.327 . S
C2204 C2223 1.429 . S
C2204 H2228 0.950 . S
C2205 C2222 1.574 . S
C2205 C2224 1.368 . S
C2205 H2229 0.949 . S
H2206 C2210 0.949 . S
C2207 C2208 1.349 . S
C2207 C2209 1.327 . S
C2207 H2230 0.950 . S
C2208 C2207 1.349 . S
C2208 C2220 1.349 . S
C2209 C2207 1.327 . S
C2209 C2225 1.429 . S
C2209 H2231 0.950 . S
C2210 H2206 0.949 . S
C2210 C2218 1.574 . S
C2210 C2226 1.368 . S
H2211 C2219 0.950 . S
H2212 C2217 0.950 . S
H2213 C2218 0.949 . S
H2214 C2220 0.950 . S
H2215 C2221 0.950 . S
H2216 C2222 0.949 . S
C2217 H2212 0.950 . S
C2217 C2219 1.327 . S
C2217 C2223 1.429 . S
C2218 C2210 1.574 . S
C2218 H2213 0.949 . S
C2218 C2224 1.368 . S
C2219 C2203 1.349 . S
C2219 H2211 0.950 . S
C2219 C2217 1.327 . S
C2220 C2208 1.349 . S
C2220 H2214 0.950 . S
C2220 C2221 1.327 . S
C2221 H2215 0.950 . S
C2221 C2220 1.327 . S
C2221 C2225 1.429 . S
C2222 C2205 1.574 . S
C2222 H2216 0.949 . S
C2222 C2226 1.368 . S
C2223 C2204 1.429 . S
C2223 C2217 1.429 . S
C2223 C2224 1.523 . S
C2224 C2205 1.368 . S
C2224 C2218 1.368 . S
C2224 C2223 1.523 . S
C2225 C2209 1.429 . S
C2225 C2221 1.429 . S
C2225 C2226 1.523 . S
C2226 C2210 1.368 . S
C2226 C2222 1.368 . S
C2226 C2225 1.523 . S
H2227 C2202 0.950 . S
H2228 C2204 0.950 . S
H2229 C2205 0.949 . S
H2230 C2207 0.950 . S
H2231 C2209 0.950 . S
C2232 C2233 1.349 . S
C2232 C2234 1.327 . S
C2232 H2257 0.950 . S
C2233 C2232 1.349 . S
C2233 C2249 1.349 . S
C2234 C2232 1.327 . S
C2234 C2253 1.429 . S
C2234 H2258 0.950 . S
C2235 C2252 1.574 . S
C2235 C2254 1.368 . S
C2235 H2259 0.949 . S
H2236 C2240 0.949 . S
C2237 C2238 1.349 . S
C2237 C2239 1.327 . S
C2237 H2260 0.950 . S
C2238 C2237 1.349 . S
C2238 C2250 1.349 . S
C2239 C2237 1.327 . S
C2239 C2255 1.429 . S
C2239 H2261 0.950 . S
C2240 H2236 0.949 . S
C2240 C2248 1.574 . S
C2240 C2256 1.368 . S
H2241 C2249 0.950 . S
H2242 C2247 0.950 . S
H2243 C2248 0.949 . S
H2244 C2250 0.950 . S
H2245 C2251 0.950 . S
H2246 C2252 0.949 . S
C2247 H2242 0.950 . S
C2247 C2249 1.327 . S
C2247 C2253 1.429 . S
C2248 C2240 1.574 . S
C2248 H2243 0.949 . S
C2248 C2254 1.368 . S
C2249 C2233 1.349 . S
C2249 H2241 0.950 . S
C2249 C2247 1.327 . S
C2250 C2238 1.349 . S
C2250 H2244 0.950 . S
C2250 C2251 1.327 . S
C2251 H2245 0.950 . S
C2251 C2250 1.327 . S
C2251 C2255 1.429 . S
C2252 C2235 1.574 . S
C2252 H2246 0.949 . S
C2252 C2256 1.368 . S
C2253 C2234 1.429 . S
C2253 C2247 1.429 . S
C2253 C2254 1.523 . S
C2254 C2235 1.368 . S
C2254 C2248 1.368 . S
C2254 C2253 1.523 . S
C2255 C2239 1.429 . S
C2255 C2251 1.429 . S
C2255 C2256 1.523 . S
C2256 C2240 1.368 . S
C2256 C2252 1.368 . S
C2256 C2255 1.523 . S
H2257 C2232 0.950 . S
H2258 C2234 0.950 . S
H2259 C2235 0.949 . S
H2260 C2237 0.950 . S
H2261 C2239 0.950 . S
C2262 C2263 1.349 . S
C2262 C2264 1.327 . S
C2262 H2287 0.950 . S
C2263 C2262 1.349 . S
C2263 C2279 1.349 . S
C2264 C2262 1.327 . S
C2264 C2283 1.429 . S
C2264 H2288 0.950 . S
C2265 C2282 1.574 . S
C2265 C2284 1.368 . S
C2265 H2289 0.949 . S
H2266 C2270 0.949 . S
C2267 C2268 1.349 . S
C2267 C2269 1.327 . S
C2267 H2290 0.950 . S
C2268 C2267 1.349 . S
C2268 C2280 1.349 . S
C2269 C2267 1.327 . S
C2269 C2285 1.429 . S
C2269 H2291 0.950 . S
C2270 H2266 0.949 . S
C2270 C2278 1.574 . S
C2270 C2286 1.368 . S
H2271 C2279 0.950 . S
H2272 C2277 0.950 . S
H2273 C2278 0.949 . S
H2274 C2280 0.950 . S
H2275 C2281 0.950 . S
H2276 C2282 0.949 . S
C2277 H2272 0.950 . S
C2277 C2279 1.327 . S
C2277 C2283 1.429 . S
C2278 C2270 1.574 . S
C2278 H2273 0.949 . S
C2278 C2284 1.368 . S
C2279 C2263 1.349 . S
C2279 H2271 0.950 . S
C2279 C2277 1.327 . S
C2280 C2268 1.349 . S
C2280 H2274 0.950 . S
C2280 C2281 1.327 . S
C2281 H2275 0.950 . S
C2281 C2280 1.327 . S
C2281 C2285 1.429 . S
C2282 C2265 1.574 . S
C2282 H2276 0.949 . S
C2282 C2286 1.368 . S
C2283 C2264 1.429 . S
C2283 C2277 1.429 . S
C2283 C2284 1.523 . S
C2284 C2265 1.368 . S
C2284 C2278 1.368 . S
C2284 C2283 1.523 . S
C2285 C2269 1.429 . S
C2285 C2281 1.429 . S
C2285 C2286 1.523 . S
C2286 C2270 1.368 . S
C2286 C2282 1.368 . S
C2286 C2285 1.523 . S
H2287 C2262 0.950 . S
H2288 C2264 0.950 . S
H2289 C2265 0.949 . S
H2290 C2267 0.950 . S
H2291 C2269 0.950 . S
C2292 C2293 1.349 . S
C2292 C2294 1.327 . S
C2292 H2317 0.950 . S
C2293 C2292 1.349 . S
C2293 C2309 1.349 . S
C2294 C2292 1.327 . S
C2294 C2313 1.429 . S
C2294 H2318 0.950 . S
C2295 C2312 1.574 . S
C2295 C2314 1.368 . S
C2295 H2319 0.949 . S
H2296 C2300 0.949 . S
C2297 C2298 1.349 . S
C2297 C2299 1.327 . S
C2297 H2320 0.950 . S
C2298 C2297 1.349 . S
C2298 C2310 1.349 . S
C2299 C2297 1.327 . S
C2299 C2315 1.429 . S
C2299 H2321 0.950 . S
C2300 H2296 0.949 . S
C2300 C2308 1.574 . S
C2300 C2316 1.368 . S
H2301 C2309 0.950 . S
H2302 C2307 0.950 . S
H2303 C2308 0.949 . S
H2304 C2310 0.950 . S
H2305 C2311 0.950 . S
H2306 C2312 0.949 . S
C2307 H2302 0.950 . S
C2307 C2309 1.327 . S
C2307 C2313 1.429 . S
C2308 C2300 1.574 . S
C2308 H2303 0.949 . S
C2308 C2314 1.368 . S
C2309 C2293 1.349 . S
C2309 H2301 0.950 . S
C2309 C2307 1.327 . S
C2310 C2298 1.349 . S
C2310 H2304 0.950 . S
C2310 C2311 1.327 . S
C2311 H2305 0.950 . S
C2311 C2310 1.327 . S
C2311 C2315 1.429 . S
C2312 C2295 1.574 . S
C2312 H2306 0.949 . S
C2312 C2316 1.368 . S
C2313 C2294 1.429 . S
C2313 C2307 1.429 . S
C2313 C2314 1.523 . S
C2314 C2295 1.368 . S
C2314 C2308 1.368 . S
C2314 C2313 1.523 . S
C2315 C2299 1.429 . S
C2315 C2311 1.429 . S
C2315 C2316 1.523 . S
C2316 C2300 1.368 . S
C2316 C2312 1.368 . S
C2316 C2315 1.523 . S
H2317 C2292 0.950 . S
H2318 C2294 0.950 . S
H2319 C2295 0.949 . S
H2320 C2297 0.950 . S
H2321 C2299 0.950 . S
C2322 C2323 1.349 . S
C2322 C2324 1.327 1_545 S
C2322 H2347 0.950 . S
C2323 C2322 1.349 . S
C2323 C2339 1.349 . S
C2324 C2322 1.327 1_565 S
C2324 C2343 1.429 . S
C2324 H2348 0.950 . S
C2325 C2342 1.574 . S
C2325 C2344 1.368 . S
C2325 H2349 0.949 . S
H2326 C2330 0.949 . S
C2327 C2328 1.349 . S
C2327 C2329 1.327 . S
C2327 H2350 0.950 . S
C2328 C2327 1.349 . S
C2328 C2340 1.349 . S
C2329 C2327 1.327 . S
C2329 C2345 1.429 . S
C2329 H2351 0.950 . S
C2330 H2326 0.949 . S
C2330 C2338 1.574 . S
C2330 C2346 1.368 . S
H2331 C2339 0.950 . S
H2332 C2337 0.950 . S
H2333 C2338 0.949 . S
H2334 C2340 0.950 . S
H2335 C2341 0.950 . S
H2336 C2342 0.949 . S
C2337 H2332 0.950 . S
C2337 C2339 1.327 . S
C2337 C2343 1.429 1_545 S
C2338 C2330 1.574 . S
C2338 H2333 0.949 . S
C2338 C2344 1.368 . S
C2339 C2323 1.349 . S
C2339 H2331 0.950 . S
C2339 C2337 1.327 . S
C2340 C2328 1.349 . S
C2340 H2334 0.950 . S
C2340 C2341 1.327 . S
C2341 H2335 0.950 . S
C2341 C2340 1.327 . S
C2341 C2345 1.429 . S
C2342 C2325 1.574 . S
C2342 H2336 0.949 . S
C2342 C2346 1.368 . S
C2343 C2324 1.429 . S
C2343 C2337 1.429 1_565 S
C2343 C2344 1.523 . S
C2344 C2325 1.368 . S
C2344 C2338 1.368 . S
C2344 C2343 1.523 . S
C2345 C2329 1.429 . S
C2345 C2341 1.429 . S
C2345 C2346 1.523 . S
C2346 C2330 1.368 . S
C2346 C2342 1.368 . S
C2346 C2345 1.523 . S
H2347 C2322 0.950 . S
H2348 C2324 0.950 . S
H2349 C2325 0.949 . S
H2350 C2327 0.950 . S
H2351 C2329 0.950 . S
C2352 C2353 1.349 . S
C2352 C2354 1.327 . S
C2352 H2377 0.950 . S
C2353 C2352 1.349 . S
C2353 C2369 1.349 . S
C2354 C2352 1.327 . S
C2354 C2373 1.429 . S
C2354 H2378 0.950 . S
C2355 C2372 1.574 . S
C2355 C2374 1.368 . S
C2355 H2379 0.949 . S
H2356 C2360 0.949 . S
C2357 C2358 1.349 . S
C2357 C2359 1.327 . S
C2357 H2380 0.950 . S
C2358 C2357 1.349 . S
C2358 C2370 1.349 . S
C2359 C2357 1.327 . S
C2359 C2375 1.429 . S
C2359 H2381 0.950 . S
C2360 H2356 0.949 . S
C2360 C2368 1.574 . S
C2360 C2376 1.368 . S
H2361 C2369 0.950 . S
H2362 C2367 0.950 . S
H2363 C2368 0.949 . S
H2364 C2370 0.950 . S
H2365 C2371 0.950 . S
H2366 C2372 0.949 . S
C2367 H2362 0.950 . S
C2367 C2369 1.327 . S
C2367 C2373 1.429 . S
C2368 C2360 1.574 . S
C2368 H2363 0.949 . S
C2368 C2374 1.368 . S
C2369 C2353 1.349 . S
C2369 H2361 0.950 . S
C2369 C2367 1.327 . S
C2370 C2358 1.349 . S
C2370 H2364 0.950 . S
C2370 C2371 1.327 . S
C2371 H2365 0.950 . S
C2371 C2370 1.327 . S
C2371 C2375 1.429 . S
C2372 C2355 1.574 . S
C2372 H2366 0.949 . S
C2372 C2376 1.368 . S
C2373 C2354 1.429 . S
C2373 C2367 1.429 . S
C2373 C2374 1.523 . S
C2374 C2355 1.368 . S
C2374 C2368 1.368 . S
C2374 C2373 1.523 . S
C2375 C2359 1.429 . S
C2375 C2371 1.429 . S
C2375 C2376 1.523 . S
C2376 C2360 1.368 . S
C2376 C2372 1.368 . S
C2376 C2375 1.523 . S
H2377 C2352 0.950 . S
H2378 C2354 0.950 . S
H2379 C2355 0.949 . S
H2380 C2357 0.950 . S
H2381 C2359 0.950 . S
C2382 C2383 1.349 . S
C2382 C2384 1.327 1_655 S
C2382 H2407 0.950 . S
C2383 C2382 1.349 . S
C2383 C2399 1.349 . S
C2384 C2382 1.327 1_455 S
C2384 C2403 1.429 . S
C2384 H2408 0.950 . S
C2385 C2402 1.574 . S
C2385 C2404 1.368 . S
C2385 H2409 0.949 . S
H2386 C2390 0.949 . S
C2387 C2388 1.349 . S
C2387 C2389 1.327 . S
C2387 H2410 0.950 . S
C2388 C2387 1.349 . S
C2388 C2400 1.349 . S
C2389 C2387 1.327 . S
C2389 C2405 1.429 . S
C2389 H2411 0.950 . S
C2390 H2386 0.949 . S
C2390 C2398 1.574 . S
C2390 C2406 1.368 . S
H2391 C2399 0.950 . S
H2392 C2397 0.950 . S
H2393 C2398 0.949 . S
H2394 C2400 0.950 . S
H2395 C2401 0.950 . S
H2396 C2402 0.949 . S
C2397 H2392 0.950 . S
C2397 C2399 1.327 . S
C2397 C2403 1.429 1_655 S
C2398 C2390 1.574 . S
C2398 H2393 0.949 . S
C2398 C2404 1.368 . S
C2399 C2383 1.349 . S
C2399 H2391 0.950 . S
C2399 C2397 1.327 . S
C2400 C2388 1.349 . S
C2400 H2394 0.950 . S
C2400 C2401 1.327 . S
C2401 H2395 0.950 . S
C2401 C2400 1.327 . S
C2401 C2405 1.429 . S
C2402 C2385 1.574 . S
C2402 H2396 0.949 . S
C2402 C2406 1.368 . S
C2403 C2384 1.429 . S
C2403 C2397 1.429 1_455 S
C2403 C2404 1.523 . S
C2404 C2385 1.368 . S
C2404 C2398 1.368 . S
C2404 C2403 1.523 . S
C2405 C2389 1.429 . S
C2405 C2401 1.429 . S
C2405 C2406 1.523 . S
C2406 C2390 1.368 . S
C2406 C2402 1.368 . S
C2406 C2405 1.523 . S
H2407 C2382 0.950 . S
H2408 C2384 0.950 . S
H2409 C2385 0.949 . S
H2410 C2387 0.950 . S
H2411 C2389 0.950 . S
C2412 C2413 1.349 . S
C2412 C2414 1.327 . S
C2412 H2437 0.950 . S
C2413 C2412 1.349 . S
C2413 C2429 1.349 . S
C2414 C2412 1.327 . S
C2414 C2433 1.429 . S
C2414 H2438 0.950 . S
C2415 C2432 1.574 . S
C2415 C2434 1.368 . S
C2415 H2439 0.949 . S
H2416 C2420 0.949 . S
C2417 C2418 1.349 . S
C2417 C2419 1.327 . S
C2417 H2440 0.950 . S
C2418 C2417 1.349 . S
C2418 C2430 1.349 . S
C2419 C2417 1.327 . S
C2419 C2435 1.429 . S
C2419 H2441 0.950 . S
C2420 H2416 0.949 . S
C2420 C2428 1.574 . S
C2420 C2436 1.368 . S
H2421 C2429 0.950 . S
H2422 C2427 0.950 . S
H2423 C2428 0.949 . S
H2424 C2430 0.950 . S
H2425 C2431 0.950 . S
H2426 C2432 0.949 . S
C2427 H2422 0.950 . S
C2427 C2429 1.327 . S
C2427 C2433 1.429 . S
C2428 C2420 1.574 . S
C2428 H2423 0.949 . S
C2428 C2434 1.368 . S
C2429 C2413 1.349 . S
C2429 H2421 0.950 . S
C2429 C2427 1.327 . S
C2430 C2418 1.349 . S
C2430 H2424 0.950 . S
C2430 C2431 1.327 . S
C2431 H2425 0.950 . S
C2431 C2430 1.327 . S
C2431 C2435 1.429 . S
C2432 C2415 1.574 . S
C2432 H2426 0.949 . S
C2432 C2436 1.368 . S
C2433 C2414 1.429 . S
C2433 C2427 1.429 . S
C2433 C2434 1.523 . S
C2434 C2415 1.368 . S
C2434 C2428 1.368 . S
C2434 C2433 1.523 . S
C2435 C2419 1.429 . S
C2435 C2431 1.429 . S
C2435 C2436 1.523 . S
C2436 C2420 1.368 . S
C2436 C2432 1.368 . S
C2436 C2435 1.523 . S
H2437 C2412 0.950 . S
H2438 C2414 0.950 . S
H2439 C2415 0.949 . S
H2440 C2417 0.950 . S
H2441 C2419 0.950 . S
C2442 C2443 1.349 . S
C2442 C2444 1.327 . S
C2442 H2467 0.950 . S
C2443 C2442 1.349 . S
C2443 C2459 1.349 . S
C2444 C2442 1.327 . S
C2444 C2463 1.429 . S
C2444 H2468 0.950 . S
C2445 C2462 1.574 . S
C2445 C2464 1.368 . S
C2445 H2469 0.949 . S
H2446 C2450 0.949 . S
C2447 C2448 1.349 . S
C2447 C2449 1.327 1_455 S
C2447 H2470 0.950 . S
C2448 C2447 1.349 . S
C2448 C2460 1.349 . S
C2449 C2447 1.327 1_655 S
C2449 C2465 1.429 . S
C2449 H2471 0.950 . S
C2450 H2446 0.949 . S
C2450 C2458 1.574 . S
C2450 C2466 1.368 . S
H2451 C2459 0.950 . S
H2452 C2457 0.950 . S
H2453 C2458 0.949 . S
H2454 C2460 0.950 . S
H2455 C2461 0.940 1_655 S
H2456 C2462 0.949 . S
C2457 H2452 0.950 . S
C2457 C2459 1.327 . S
C2457 C2463 1.429 . S
C2458 C2450 1.574 . S
C2458 H2453 0.949 . S
C2458 C2464 1.368 . S
C2459 C2443 1.349 . S
C2459 H2451 0.950 . S
C2459 C2457 1.327 . S
C2460 C2448 1.349 . S
C2460 H2454 0.950 . S
C2460 C2461 1.350 . S
C2461 H2455 0.940 1_455 S
C2461 C2460 1.350 . S
C2461 C2465 1.415 1_455 S
C2462 C2445 1.574 . S
C2462 H2456 0.949 . S
C2462 C2466 1.368 . S
C2463 C2444 1.429 . S
C2463 C2457 1.429 . S
C2463 C2464 1.523 . S
C2464 C2445 1.368 . S
C2464 C2458 1.368 . S
C2464 C2463 1.523 . S
C2465 C2449 1.429 . S
C2465 C2461 1.415 1_655 S
C2465 C2466 1.523 . S
C2466 C2450 1.368 . S
C2466 C2462 1.368 . S
C2466 C2465 1.523 . S
H2467 C2442 0.950 . S
H2468 C2444 0.950 . S
H2469 C2445 0.949 . S
H2470 C2447 0.950 . S
H2471 C2449 0.950 . S
C2472 C2473 1.349 . S
C2472 C2474 1.327 . S
C2472 H2497 0.950 . S
C2473 C2472 1.349 . S
C2473 C2489 1.349 . S
C2474 C2472 1.327 . S
C2474 C2493 1.429 . S
C2474 H2498 0.950 . S
C2475 C2492 1.574 . S
C2475 C2494 1.368 . S
C2475 H2499 0.949 . S
H2476 C2480 0.949 . S
C2477 C2478 1.349 . S
C2477 C2479 1.327 . S
C2477 H2500 0.950 . S
C2478 C2477 1.349 . S
C2478 C2490 1.349 . S
C2479 C2477 1.327 . S
C2479 C2495 1.429 . S
C2479 H2501 0.950 . S
C2480 H2476 0.949 . S
C2480 C2488 1.574 . S
C2480 C2496 1.368 . S
H2481 C2489 0.950 . S
H2482 C2487 0.950 . S
H2483 C2488 0.949 . S
H2484 C2490 0.950 . S
H2485 C2491 0.950 . S
H2486 C2492 0.949 . S
C2487 H2482 0.950 . S
C2487 C2489 1.327 . S
C2487 C2493 1.429 . S
C2488 C2480 1.574 . S
C2488 H2483 0.949 . S
C2488 C2494 1.368 . S
C2489 C2473 1.349 . S
C2489 H2481 0.950 . S
C2489 C2487 1.327 . S
C2490 C2478 1.349 . S
C2490 H2484 0.950 . S
C2490 C2491 1.327 . S
C2491 H2485 0.950 . S
C2491 C2490 1.327 . S
C2491 C2495 1.429 . S
C2492 C2475 1.574 . S
C2492 H2486 0.949 . S
C2492 C2496 1.368 . S
C2493 C2474 1.429 . S
C2493 C2487 1.429 . S
C2493 C2494 1.523 . S
C2494 C2475 1.368 . S
C2494 C2488 1.368 . S
C2494 C2493 1.523 . S
C2495 C2479 1.429 . S
C2495 C2491 1.429 . S
C2495 C2496 1.523 . S
C2496 C2480 1.368 . S
C2496 C2492 1.368 . S
C2496 C2495 1.523 . S
H2497 C2472 0.950 . S
H2498 C2474 0.950 . S
H2499 C2475 0.949 . S
H2500 C2477 0.950 . S
H2501 C2479 0.950 . S
C2502 C2503 1.349 . S
C2502 C2504 1.327 . S
C2502 H2527 0.950 . S
C2503 C2502 1.349 . S
C2503 C2519 1.349 . S
C2504 C2502 1.327 . S
C2504 C2523 1.429 . S
C2504 H2528 0.950 . S
C2505 C2522 1.574 . S
C2505 C2524 1.368 . S
C2505 H2529 0.949 . S
H2506 C2510 0.949 . S
C2507 C2508 1.349 . S
C2507 C2509 1.327 . S
C2507 H2530 0.950 . S
C2508 C2507 1.349 . S
C2508 C2520 1.349 . S
C2509 C2507 1.327 . S
C2509 C2525 1.429 . S
C2509 H2531 0.950 . S
C2510 H2506 0.949 . S
C2510 C2518 1.574 . S
C2510 C2526 1.368 . S
H2511 C2519 0.950 . S
H2512 C2517 0.950 . S
H2513 C2518 0.949 . S
H2514 C2520 0.950 . S
H2515 C2521 0.950 . S
H2516 C2522 0.949 . S
C2517 H2512 0.950 . S
C2517 C2519 1.327 . S
C2517 C2523 1.429 . S
C2518 C2510 1.574 . S
C2518 H2513 0.949 . S
C2518 C2524 1.368 . S
C2519 C2503 1.349 . S
C2519 H2511 0.950 . S
C2519 C2517 1.327 . S
C2520 C2508 1.349 . S
C2520 H2514 0.950 . S
C2520 C2521 1.327 . S
C2521 H2515 0.950 . S
C2521 C2520 1.327 . S
C2521 C2525 1.429 . S
C2522 C2505 1.574 . S
C2522 H2516 0.949 . S
C2522 C2526 1.368 . S
C2523 C2504 1.429 . S
C2523 C2517 1.429 . S
C2523 C2524 1.523 . S
C2524 C2505 1.368 . S
C2524 C2518 1.368 . S
C2524 C2523 1.523 . S
C2525 C2509 1.429 . S
C2525 C2521 1.429 . S
C2525 C2526 1.523 . S
C2526 C2510 1.368 . S
C2526 C2522 1.368 . S
C2526 C2525 1.523 . S
H2527 C2502 0.950 . S
H2528 C2504 0.950 . S
H2529 C2505 0.949 . S
H2530 C2507 0.950 . S
H2531 C2509 0.950 . S
C2532 C2533 1.349 . S
C2532 C2534 1.327 . S
C2532 H2557 0.950 . S
C2533 C2532 1.349 . S
C2533 C2549 1.349 . S
C2534 C2532 1.327 . S
C2534 C2553 1.429 . S
C2534 H2558 0.950 . S
C2535 C2552 1.574 . S
C2535 C2554 1.368 . S
C2535 H2559 0.949 . S
H2536 C2540 0.949 . S
C2537 C2538 1.349 . S
C2537 C2539 1.327 . S
C2537 H2560 0.950 . S
C2538 C2537 1.349 . S
C2538 C2550 1.349 . S
C2539 C2537 1.327 . S
C2539 C2555 1.429 . S
C2539 H2561 0.950 . S
C2540 H2536 0.949 . S
C2540 C2548 1.574 . S
C2540 C2556 1.368 . S
H2541 C2549 0.950 . S
H2542 C2547 0.950 . S
H2543 C2548 0.949 . S
H2544 C2550 0.950 . S
H2545 C2551 0.950 . S
H2546 C2552 0.949 . S
C2547 H2542 0.950 . S
C2547 C2549 1.327 . S
C2547 C2553 1.429 . S
C2548 C2540 1.574 . S
C2548 H2543 0.949 . S
C2548 C2554 1.368 . S
C2549 C2533 1.349 . S
C2549 H2541 0.950 . S
C2549 C2547 1.327 . S
C2550 C2538 1.349 . S
C2550 H2544 0.950 . S
C2550 C2551 1.327 . S
C2551 H2545 0.950 . S
C2551 C2550 1.327 . S
C2551 C2555 1.429 . S
C2552 C2535 1.574 . S
C2552 H2546 0.949 . S
C2552 C2556 1.368 . S
C2553 C2534 1.429 . S
C2553 C2547 1.429 . S
C2553 C2554 1.523 . S
C2554 C2535 1.368 . S
C2554 C2548 1.368 . S
C2554 C2553 1.523 . S
C2555 C2539 1.429 . S
C2555 C2551 1.429 . S
C2555 C2556 1.523 . S
C2556 C2540 1.368 . S
C2556 C2552 1.368 . S
C2556 C2555 1.523 . S
H2557 C2532 0.950 . S
H2558 C2534 0.950 . S
H2559 C2535 0.949 . S
H2560 C2537 0.950 . S
H2561 C2539 0.950 . S
C2562 C2563 1.349 . S
C2562 C2564 1.327 . S
C2562 H2587 0.950 . S
C2563 C2562 1.349 . S
C2563 C2579 1.349 . S
C2564 C2562 1.327 . S
C2564 C2583 1.429 . S
C2564 H2588 0.950 . S
C2565 C2582 1.574 . S
C2565 C2584 1.368 . S
C2565 H2589 0.949 . S
H2566 C2570 0.949 . S
C2567 C2568 1.349 . S
C2567 C2569 1.327 . S
C2567 H2590 0.950 . S
C2568 C2567 1.349 . S
C2568 C2580 1.349 . S
C2569 C2567 1.327 . S
C2569 C2585 1.429 . S
C2569 H2591 0.950 . S
C2570 H2566 0.949 . S
C2570 C2578 1.574 . S
C2570 C2586 1.368 . S
H2571 C2579 0.950 . S
H2572 C2577 0.950 . S
H2573 C2578 0.949 . S
H2574 C2580 0.950 . S
H2575 C2581 0.950 . S
H2576 C2582 0.949 . S
C2577 H2572 0.950 . S
C2577 C2579 1.327 . S
C2577 C2583 1.429 . S
C2578 C2570 1.574 . S
C2578 H2573 0.949 . S
C2578 C2584 1.368 . S
C2579 C2563 1.349 . S
C2579 H2571 0.950 . S
C2579 C2577 1.327 . S
C2580 C2568 1.349 . S
C2580 H2574 0.950 . S
C2580 C2581 1.327 . S
C2581 H2575 0.950 . S
C2581 C2580 1.327 . S
C2581 C2585 1.429 . S
C2582 C2565 1.574 . S
C2582 H2576 0.949 . S
C2582 C2586 1.368 . S
C2583 C2564 1.429 . S
C2583 C2577 1.429 . S
C2583 C2584 1.523 . S
C2584 C2565 1.368 . S
C2584 C2578 1.368 . S
C2584 C2583 1.523 . S
C2585 C2569 1.429 . S
C2585 C2581 1.429 . S
C2585 C2586 1.523 . S
C2586 C2570 1.368 . S
C2586 C2582 1.368 . S
C2586 C2585 1.523 . S
H2587 C2562 0.950 . S
H2588 C2564 0.950 . S
H2589 C2565 0.949 . S
H2590 C2567 0.950 . S
H2591 C2569 0.950 . S
C2592 C2593 1.349 . S
C2592 C2594 1.327 . S
C2592 H2617 0.950 . S
C2593 C2592 1.349 . S
C2593 C2609 1.349 . S
C2594 C2592 1.327 . S
C2594 C2613 1.429 . S
C2594 H2618 0.950 . S
C2595 C2612 1.574 . S
C2595 C2614 1.368 . S
C2595 H2619 0.949 . S
H2596 C2600 0.949 . S
C2597 C2598 1.349 . S
C2597 C2599 1.327 . S
C2597 H2620 0.950 . S
C2598 C2597 1.349 . S
C2598 C2610 1.349 . S
C2599 C2597 1.327 . S
C2599 C2615 1.429 . S
C2599 H2621 0.950 . S
C2600 H2596 0.949 . S
C2600 C2608 1.574 . S
C2600 C2616 1.368 . S
H2601 C2609 0.950 . S
H2602 C2607 0.950 . S
H2603 C2608 0.949 . S
H2604 C2610 0.950 . S
H2605 C2611 0.950 . S
H2606 C2612 0.949 . S
C2607 H2602 0.950 . S
C2607 C2609 1.327 . S
C2607 C2613 1.429 . S
C2608 C2600 1.574 . S
C2608 H2603 0.949 . S
C2608 C2614 1.368 . S
C2609 C2593 1.349 . S
C2609 H2601 0.950 . S
C2609 C2607 1.327 . S
C2610 C2598 1.349 . S
C2610 H2604 0.950 . S
C2610 C2611 1.327 . S
C2611 H2605 0.950 . S
C2611 C2610 1.327 . S
C2611 C2615 1.429 . S
C2612 C2595 1.574 . S
C2612 H2606 0.949 . S
C2612 C2616 1.368 . S
C2613 C2594 1.429 . S
C2613 C2607 1.429 . S
C2613 C2614 1.523 . S
C2614 C2595 1.368 . S
C2614 C2608 1.368 . S
C2614 C2613 1.523 . S
C2615 C2599 1.429 . S
C2615 C2611 1.429 . S
C2615 C2616 1.523 . S
C2616 C2600 1.368 . S
C2616 C2612 1.368 . S
C2616 C2615 1.523 . S
H2617 C2592 0.950 . S
H2618 C2594 0.950 . S
H2619 C2595 0.949 . S
H2620 C2597 0.950 . S
H2621 C2599 0.950 . S
C2622 C2623 1.349 . S
C2622 C2624 1.327 . S
C2622 H2647 0.950 . S
C2623 C2622 1.349 . S
C2623 C2639 1.349 . S
C2624 C2622 1.327 . S
C2624 C2643 1.429 . S
C2624 H2648 0.950 . S
C2625 C2642 1.574 . S
C2625 C2644 1.368 . S
C2625 H2649 0.949 . S
H2626 C2630 0.949 . S
C2627 C2628 1.349 . S
C2627 C2629 1.327 . S
C2627 H2650 0.950 . S
C2628 C2627 1.349 . S
C2628 C2640 1.349 . S
C2629 C2627 1.327 . S
C2629 C2645 1.429 . S
C2629 H2651 0.950 . S
C2630 H2626 0.949 . S
C2630 C2638 1.574 . S
C2630 C2646 1.368 . S
H2631 C2639 0.950 . S
H2632 C2637 0.950 . S
H2633 C2638 0.949 . S
H2634 C2640 0.950 . S
H2635 C2641 0.950 . S
H2636 C2642 0.949 . S
C2637 H2632 0.950 . S
C2637 C2639 1.327 . S
C2637 C2643 1.429 . S
C2638 C2630 1.574 . S
C2638 H2633 0.949 . S
C2638 C2644 1.368 . S
C2639 C2623 1.349 . S
C2639 H2631 0.950 . S
C2639 C2637 1.327 . S
C2640 C2628 1.349 . S
C2640 H2634 0.950 . S
C2640 C2641 1.327 . S
C2641 H2635 0.950 . S
C2641 C2640 1.327 . S
C2641 C2645 1.429 . S
C2642 C2625 1.574 . S
C2642 H2636 0.949 . S
C2642 C2646 1.368 . S
C2643 C2624 1.429 . S
C2643 C2637 1.429 . S
C2643 C2644 1.523 . S
C2644 C2625 1.368 . S
C2644 C2638 1.368 . S
C2644 C2643 1.523 . S
C2645 C2629 1.429 . S
C2645 C2641 1.429 . S
C2645 C2646 1.523 . S
C2646 C2630 1.368 . S
C2646 C2642 1.368 . S
C2646 C2645 1.523 . S
H2647 C2622 0.950 . S
H2648 C2624 0.950 . S
H2649 C2625 0.949 . S
H2650 C2627 0.950 . S
H2651 C2629 0.950 . S
C2652 C2653 1.349 . S
C2652 C2654 1.327 . S
C2652 H2677 0.950 . S
C2653 C2652 1.349 . S
C2653 C2669 1.349 . S
C2654 C2652 1.327 . S
C2654 C2673 1.429 . S
C2654 H2678 0.950 . S
C2655 C2672 1.574 . S
C2655 C2674 1.368 . S
C2655 H2679 0.949 . S
H2656 C2660 0.949 . S
C2657 C2658 1.349 . S
C2657 C2659 1.327 . S
C2657 H2680 0.950 . S
C2658 C2657 1.349 . S
C2658 C2670 1.349 . S
C2659 C2657 1.327 . S
C2659 C2675 1.429 . S
C2659 H2681 0.950 . S
C2660 H2656 0.949 . S
C2660 C2668 1.574 . S
C2660 C2676 1.368 . S
H2661 C2669 0.950 . S
H2662 C2667 0.950 . S
H2663 C2668 0.949 . S
H2664 C2670 0.950 . S
H2665 C2671 0.950 . S
H2666 C2672 0.949 . S
C2667 H2662 0.950 . S
C2667 C2669 1.327 . S
C2667 C2673 1.429 . S
C2668 C2660 1.574 . S
C2668 H2663 0.949 . S
C2668 C2674 1.368 . S
C2669 C2653 1.349 . S
C2669 H2661 0.950 . S
C2669 C2667 1.327 . S
C2670 C2658 1.349 . S
C2670 H2664 0.950 . S
C2670 C2671 1.327 . S
C2671 H2665 0.950 . S
C2671 C2670 1.327 . S
C2671 C2675 1.429 . S
C2672 C2655 1.574 . S
C2672 H2666 0.949 . S
C2672 C2676 1.368 . S
C2673 C2654 1.429 . S
C2673 C2667 1.429 . S
C2673 C2674 1.523 . S
C2674 C2655 1.368 . S
C2674 C2668 1.368 . S
C2674 C2673 1.523 . S
C2675 C2659 1.429 . S
C2675 C2671 1.429 . S
C2675 C2676 1.523 . S
C2676 C2660 1.368 . S
C2676 C2672 1.368 . S
C2676 C2675 1.523 . S
H2677 C2652 0.950 . S
H2678 C2654 0.950 . S
H2679 C2655 0.949 . S
H2680 C2657 0.950 . S
H2681 C2659 0.950 . S
C2682 C2683 1.349 . S
C2682 C2684 1.327 . S
C2682 H2707 0.950 . S
C2683 C2682 1.349 . S
C2683 C2699 1.349 . S
C2684 C2682 1.327 . S
C2684 C2703 1.429 . S
C2684 H2708 0.950 . S
C2685 C2702 1.574 . S
C2685 C2704 1.368 . S
C2685 H2709 0.949 . S
H2686 C2690 0.949 . S
C2687 C2688 1.349 . S
C2687 C2689 1.327 . S
C2687 H2710 0.950 . S
C2688 C2687 1.349 . S
C2688 C2700 1.349 . S
C2689 C2687 1.327 . S
C2689 C2705 1.429 . S
C2689 H2711 0.950 . S
C2690 H2686 0.949 . S
C2690 C2698 1.574 . S
C2690 C2706 1.368 . S
H2691 C2699 0.950 . S
H2692 C2697 0.950 . S
H2693 C2698 0.949 . S
H2694 C2700 0.950 . S
H2695 C2701 0.950 . S
H2696 C2702 0.949 . S
C2697 H2692 0.950 . S
C2697 C2699 1.327 . S
C2697 C2703 1.429 . S
C2698 C2690 1.574 . S
C2698 H2693 0.949 . S
C2698 C2704 1.368 . S
C2699 C2683 1.349 . S
C2699 H2691 0.950 . S
C2699 C2697 1.327 . S
C2700 C2688 1.349 . S
C2700 H2694 0.950 . S
C2700 C2701 1.327 . S
C2701 H2695 0.950 . S
C2701 C2700 1.327 . S
C2701 C2705 1.429 . S
C2702 C2685 1.574 . S
C2702 H2696 0.949 . S
C2702 C2706 1.368 . S
C2703 C2684 1.429 . S
C2703 C2697 1.429 . S
C2703 C2704 1.523 . S
C2704 C2685 1.368 . S
C2704 C2698 1.368 . S
C2704 C2703 1.523 . S
C2705 C2689 1.429 . S
C2705 C2701 1.429 . S
C2705 C2706 1.523 . S
C2706 C2690 1.368 . S
C2706 C2702 1.368 . S
C2706 C2705 1.523 . S
H2707 C2682 0.950 . S
H2708 C2684 0.950 . S
H2709 C2685 0.949 . S
H2710 C2687 0.950 . S
H2711 C2689 0.950 . S
C2712 C2713 1.349 . S
C2712 C2714 1.327 . S
C2712 H2737 0.950 . S
C2713 C2712 1.349 . S
C2713 C2729 1.349 . S
C2714 C2712 1.327 . S
C2714 C2733 1.429 . S
C2714 H2738 0.950 . S
C2715 C2732 1.574 . S
C2715 C2734 1.368 . S
C2715 H2739 0.949 . S
H2716 C2720 0.949 . S
C2717 C2718 1.349 . S
C2717 C2719 1.327 . S
C2717 H2740 0.950 . S
C2718 C2717 1.349 . S
C2718 C2730 1.349 . S
C2719 C2717 1.327 . S
C2719 C2735 1.429 . S
C2719 H2741 0.950 . S
C2720 H2716 0.949 . S
C2720 C2728 1.574 . S
C2720 C2736 1.368 . S
H2721 C2729 0.950 . S
H2722 C2727 0.950 . S
H2723 C2728 0.949 . S
H2724 C2730 0.950 . S
H2725 C2731 0.950 . S
H2726 C2732 0.949 . S
C2727 H2722 0.950 . S
C2727 C2729 1.327 . S
C2727 C2733 1.429 . S
C2728 C2720 1.574 . S
C2728 H2723 0.949 . S
C2728 C2734 1.368 . S
C2729 C2713 1.349 . S
C2729 H2721 0.950 . S
C2729 C2727 1.327 . S
C2730 C2718 1.349 . S
C2730 H2724 0.950 . S
C2730 C2731 1.327 . S
C2731 H2725 0.950 . S
C2731 C2730 1.327 . S
C2731 C2735 1.429 . S
C2732 C2715 1.574 . S
C2732 H2726 0.949 . S
C2732 C2736 1.368 . S
C2733 C2714 1.429 . S
C2733 C2727 1.429 . S
C2733 C2734 1.523 . S
C2734 C2715 1.368 . S
C2734 C2728 1.368 . S
C2734 C2733 1.523 . S
C2735 C2719 1.429 . S
C2735 C2731 1.429 . S
C2735 C2736 1.523 . S
C2736 C2720 1.368 . S
C2736 C2732 1.368 . S
C2736 C2735 1.523 . S
H2737 C2712 0.950 . S
H2738 C2714 0.950 . S
H2739 C2715 0.949 . S
H2740 C2717 0.950 . S
H2741 C2719 0.950 . S
C2742 C2743 1.349 . S
C2742 C2744 1.327 . S
C2742 H2767 0.950 . S
C2743 C2742 1.349 . S
C2743 C2759 1.349 . S
C2744 C2742 1.327 . S
C2744 C2763 1.429 . S
C2744 H2768 0.950 . S
C2745 C2762 1.574 . S
C2745 C2764 1.368 . S
C2745 H2769 0.949 . S
H2746 C2750 0.949 . S
C2747 C2748 1.349 . S
C2747 C2749 1.327 . S
C2747 H2770 0.950 . S
C2748 C2747 1.349 . S
C2748 C2760 1.349 . S
C2749 C2747 1.327 . S
C2749 C2765 1.429 . S
C2749 H2771 0.950 . S
C2750 H2746 0.949 . S
C2750 C2758 1.574 . S
C2750 C2766 1.368 . S
H2751 C2759 0.950 . S
H2752 C2757 0.950 . S
H2753 C2758 0.949 . S
H2754 C2760 0.950 . S
H2755 C2761 0.950 . S
H2756 C2762 0.949 . S
C2757 H2752 0.950 . S
C2757 C2759 1.327 . S
C2757 C2763 1.429 . S
C2758 C2750 1.574 . S
C2758 H2753 0.949 . S
C2758 C2764 1.368 . S
C2759 C2743 1.349 . S
C2759 H2751 0.950 . S
C2759 C2757 1.327 . S
C2760 C2748 1.349 . S
C2760 H2754 0.950 . S
C2760 C2761 1.327 . S
C2761 H2755 0.950 . S
C2761 C2760 1.327 . S
C2761 C2765 1.429 . S
C2762 C2745 1.574 . S
C2762 H2756 0.949 . S
C2762 C2766 1.368 . S
C2763 C2744 1.429 . S
C2763 C2757 1.429 . S
C2763 C2764 1.523 . S
C2764 C2745 1.368 . S
C2764 C2758 1.368 . S
C2764 C2763 1.523 . S
C2765 C2749 1.429 . S
C2765 C2761 1.429 . S
C2765 C2766 1.523 . S
C2766 C2750 1.368 . S
C2766 C2762 1.368 . S
C2766 C2765 1.523 . S
H2767 C2742 0.950 . S
H2768 C2744 0.950 . S
H2769 C2745 0.949 . S
H2770 C2747 0.950 . S
H2771 C2749 0.950 . S
C2772 C2773 1.349 . S
C2772 C2774 1.327 . S
C2772 H2797 0.950 . S
C2773 C2772 1.349 . S
C2773 C2789 1.349 . S
C2774 C2772 1.327 . S
C2774 C2793 1.429 . S
C2774 H2798 0.950 . S
C2775 C2792 1.574 . S
C2775 C2794 1.368 . S
C2775 H2799 0.949 . S
H2776 C2780 0.949 . S
C2777 C2778 1.349 . S
C2777 C2779 1.327 . S
C2777 H2800 0.950 . S
C2778 C2777 1.349 . S
C2778 C2790 1.349 . S
C2779 C2777 1.327 . S
C2779 C2795 1.429 . S
C2779 H2801 0.950 . S
C2780 H2776 0.949 . S
C2780 C2788 1.574 . S
C2780 C2796 1.368 . S
H2781 C2789 0.950 . S
H2782 C2787 0.950 . S
H2783 C2788 0.949 . S
H2784 C2790 0.950 . S
H2785 C2791 0.950 . S
H2786 C2792 0.949 . S
C2787 H2782 0.950 . S
C2787 C2789 1.327 . S
C2787 C2793 1.429 . S
C2788 C2780 1.574 . S
C2788 H2783 0.949 . S
C2788 C2794 1.368 . S
C2789 C2773 1.349 . S
C2789 H2781 0.950 . S
C2789 C2787 1.327 . S
C2790 C2778 1.349 . S
C2790 H2784 0.950 . S
C2790 C2791 1.327 . S
C2791 H2785 0.950 . S
C2791 C2790 1.327 . S
C2791 C2795 1.429 . S
C2792 C2775 1.574 . S
C2792 H2786 0.949 . S
C2792 C2796 1.368 . S
C2793 C2774 1.429 . S
C2793 C2787 1.429 . S
C2793 C2794 1.523 . S
C2794 C2775 1.368 . S
C2794 C2788 1.368 . S
C2794 C2793 1.523 . S
C2795 C2779 1.429 . S
C2795 C2791 1.429 . S
C2795 C2796 1.523 . S
C2796 C2780 1.368 . S
C2796 C2792 1.368 . S
C2796 C2795 1.523 . S
H2797 C2772 0.950 . S
H2798 C2774 0.950 . S
H2799 C2775 0.949 . S
H2800 C2777 0.950 . S
H2801 C2779 0.950 . S
C2802 C2803 1.349 . S
C2802 C2804 1.327 . S
C2802 H2827 0.950 . S
C2803 C2802 1.349 . S
C2803 C2819 1.349 . S
C2804 C2802 1.327 . S
C2804 C2823 1.429 . S
C2804 H2828 0.950 . S
C2805 C2822 1.574 . S
C2805 C2824 1.368 . S
C2805 H2829 0.949 . S
H2806 C2810 0.949 . S
C2807 C2808 1.349 . S
C2807 C2809 1.327 . S
C2807 H2830 0.950 . S
C2808 C2807 1.349 . S
C2808 C2820 1.349 . S
C2809 C2807 1.327 . S
C2809 C2825 1.429 . S
C2809 H2831 0.950 . S
C2810 H2806 0.949 . S
C2810 C2818 1.574 . S
C2810 C2826 1.368 . S
H2811 C2819 0.950 . S
H2812 C2817 0.950 . S
H2813 C2818 0.949 . S
H2814 C2820 0.950 . S
H2815 C2821 0.950 . S
H2816 C2822 0.949 . S
C2817 H2812 0.950 . S
C2817 C2819 1.327 . S
C2817 C2823 1.429 . S
C2818 C2810 1.574 . S
C2818 H2813 0.949 . S
C2818 C2824 1.368 . S
C2819 C2803 1.349 . S
C2819 H2811 0.950 . S
C2819 C2817 1.327 . S
C2820 C2808 1.349 . S
C2820 H2814 0.950 . S
C2820 C2821 1.327 . S
C2821 H2815 0.950 . S
C2821 C2820 1.327 . S
C2821 C2825 1.429 . S
C2822 C2805 1.574 . S
C2822 H2816 0.949 . S
C2822 C2826 1.368 . S
C2823 C2804 1.429 . S
C2823 C2817 1.429 . S
C2823 C2824 1.523 . S
C2824 C2805 1.368 . S
C2824 C2818 1.368 . S
C2824 C2823 1.523 . S
C2825 C2809 1.429 . S
C2825 C2821 1.429 . S
C2825 C2826 1.523 . S
C2826 C2810 1.368 . S
C2826 C2822 1.368 . S
C2826 C2825 1.523 . S
H2827 C2802 0.950 . S
H2828 C2804 0.950 . S
H2829 C2805 0.949 . S
H2830 C2807 0.950 . S
H2831 C2809 0.950 . S
C2832 C2833 1.349 . S
C2832 C2834 1.327 . S
C2832 H2857 0.950 . S
C2833 C2832 1.349 . S
C2833 C2849 1.349 . S
C2834 C2832 1.327 . S
C2834 C2853 1.429 . S
C2834 H2858 0.950 . S
C2835 C2852 1.574 . S
C2835 C2854 1.368 . S
C2835 H2859 0.949 . S
H2836 C2840 0.949 . S
C2837 C2838 1.349 . S
C2837 C2839 1.327 . S
C2837 H2860 0.950 . S
C2838 C2837 1.349 . S
C2838 C2850 1.349 . S
C2839 C2837 1.327 . S
C2839 C2855 1.429 . S
C2839 H2861 0.950 . S
C2840 H2836 0.949 . S
C2840 C2848 1.574 . S
C2840 C2856 1.368 . S
H2841 C2849 0.950 . S
H2842 C2847 0.950 . S
H2843 C2848 0.949 . S
H2844 C2850 0.950 . S
H2845 C2851 0.950 . S
H2846 C2852 0.949 . S
C2847 H2842 0.950 . S
C2847 C2849 1.327 . S
C2847 C2853 1.429 . S
C2848 C2840 1.574 . S
C2848 H2843 0.949 . S
C2848 C2854 1.368 . S
C2849 C2833 1.349 . S
C2849 H2841 0.950 . S
C2849 C2847 1.327 . S
C2850 C2838 1.349 . S
C2850 H2844 0.950 . S
C2850 C2851 1.327 . S
C2851 H2845 0.950 . S
C2851 C2850 1.327 . S
C2851 C2855 1.429 . S
C2852 C2835 1.574 . S
C2852 H2846 0.949 . S
C2852 C2856 1.368 . S
C2853 C2834 1.429 . S
C2853 C2847 1.429 . S
C2853 C2854 1.523 . S
C2854 C2835 1.368 . S
C2854 C2848 1.368 . S
C2854 C2853 1.523 . S
C2855 C2839 1.429 . S
C2855 C2851 1.429 . S
C2855 C2856 1.523 . S
C2856 C2840 1.368 . S
C2856 C2852 1.368 . S
C2856 C2855 1.523 . S
H2857 C2832 0.950 . S
H2858 C2834 0.950 . S
H2859 C2835 0.949 . S
H2860 C2837 0.950 . S
H2861 C2839 0.950 . S
C2862 C2863 1.349 . S
C2862 C2864 1.327 . S
C2862 H2887 0.950 . S
C2863 C2862 1.349 . S
C2863 C2879 1.349 . S
C2864 C2862 1.327 . S
C2864 C2883 1.429 . S
C2864 H2888 0.950 . S
C2865 C2882 1.574 . S
C2865 C2884 1.368 . S
C2865 H2889 0.949 . S
H2866 C2870 0.949 . S
C2867 C2868 1.349 . S
C2867 C2869 1.327 . S
C2867 H2890 0.950 . S
C2868 C2867 1.349 . S
C2868 C2880 1.349 . S
C2869 C2867 1.327 . S
C2869 C2885 1.429 . S
C2869 H2891 0.950 . S
C2870 H2866 0.949 . S
C2870 C2878 1.574 . S
C2870 C2886 1.368 . S
H2871 C2879 0.950 . S
H2872 C2877 0.950 . S
H2873 C2878 0.949 . S
H2874 C2880 0.950 . S
H2875 C2881 0.950 . S
H2876 C2882 0.949 . S
C2877 H2872 0.950 . S
C2877 C2879 1.327 . S
C2877 C2883 1.429 . S
C2878 C2870 1.574 . S
C2878 H2873 0.949 . S
C2878 C2884 1.368 . S
C2879 C2863 1.349 . S
C2879 H2871 0.950 . S
C2879 C2877 1.327 . S
C2880 C2868 1.349 . S
C2880 H2874 0.950 . S
C2880 C2881 1.327 . S
C2881 H2875 0.950 . S
C2881 C2880 1.327 . S
C2881 C2885 1.429 . S
C2882 C2865 1.574 . S
C2882 H2876 0.949 . S
C2882 C2886 1.368 . S
C2883 C2864 1.429 . S
C2883 C2877 1.429 . S
C2883 C2884 1.523 . S
C2884 C2865 1.368 . S
C2884 C2878 1.368 . S
C2884 C2883 1.523 . S
C2885 C2869 1.429 . S
C2885 C2881 1.429 . S
C2885 C2886 1.523 . S
C2886 C2870 1.368 . S
C2886 C2882 1.368 . S
C2886 C2885 1.523 . S
H2887 C2862 0.950 . S
H2888 C2864 0.950 . S
H2889 C2865 0.949 . S
H2890 C2867 0.950 . S
H2891 C2869 0.950 . S
C2892 C2893 1.349 . S
C2892 C2894 1.327 . S
C2892 H2917 0.950 . S
C2893 C2892 1.349 . S
C2893 C2909 1.349 . S
C2894 C2892 1.327 . S
C2894 C2913 1.429 1_545 S
C2894 H2918 0.950 . S
C2895 C2912 1.574 . S
C2895 C2914 1.368 . S
C2895 H2919 0.949 . S
H2896 C2900 0.949 . S
C2897 C2898 1.349 . S
C2897 C2899 1.327 . S
C2897 H2920 0.950 . S
C2898 C2897 1.349 . S
C2898 C2910 1.349 . S
C2899 C2897 1.327 . S
C2899 C2915 1.429 . S
C2899 H2921 0.950 . S
C2900 H2896 0.949 . S
C2900 C2908 1.574 . S
C2900 C2916 1.368 . S
H2901 C2909 0.950 . S
H2902 C2907 0.950 . S
H2903 C2908 0.949 . S
H2904 C2910 0.950 . S
H2905 C2911 0.950 . S
H2906 C2912 0.949 . S
C2907 H2902 0.950 . S
C2907 C2909 1.327 1_565 S
C2907 C2913 1.429 . S
C2908 C2900 1.574 . S
C2908 H2903 0.949 . S
C2908 C2914 1.368 . S
C2909 C2893 1.349 . S
C2909 H2901 0.950 . S
C2909 C2907 1.327 1_545 S
C2910 C2898 1.349 . S
C2910 H2904 0.950 . S
C2910 C2911 1.327 . S
C2911 H2905 0.950 . S
C2911 C2910 1.327 . S
C2911 C2915 1.429 . S
C2912 C2895 1.574 . S
C2912 H2906 0.949 . S
C2912 C2916 1.368 . S
C2913 C2894 1.429 1_565 S
C2913 C2907 1.429 . S
C2913 C2914 1.523 . S
C2914 C2895 1.368 . S
C2914 C2908 1.368 . S
C2914 C2913 1.523 . S
C2915 C2899 1.429 . S
C2915 C2911 1.429 . S
C2915 C2916 1.523 . S
C2916 C2900 1.368 . S
C2916 C2912 1.368 . S
C2916 C2915 1.523 . S
H2917 C2892 0.950 . S
H2918 C2894 0.950 . S
H2919 C2895 0.949 . S
H2920 C2897 0.950 . S
H2921 C2899 0.950 . S
C2922 C2923 1.349 . S
C2922 C2924 1.327 . S
C2922 H2947 0.950 . S
C2923 C2922 1.349 . S
C2923 C2939 1.349 . S
C2924 C2922 1.327 . S
C2924 C2943 1.429 . S
C2924 H2948 0.950 . S
C2925 C2942 1.574 . S
C2925 C2944 1.368 . S
C2925 H2949 0.949 . S
H2926 C2930 0.949 . S
C2927 C2928 1.349 . S
C2927 C2929 1.327 . S
C2927 H2950 0.950 . S
C2928 C2927 1.349 . S
C2928 C2940 1.349 . S
C2929 C2927 1.327 . S
C2929 C2945 1.429 . S
C2929 H2951 0.950 . S
C2930 H2926 0.949 . S
C2930 C2938 1.574 . S
C2930 C2946 1.368 . S
H2931 C2939 0.950 . S
H2932 C2937 0.950 . S
H2933 C2938 0.949 . S
H2934 C2940 0.950 . S
H2935 C2941 0.950 . S
H2936 C2942 0.949 . S
C2937 H2932 0.950 . S
C2937 C2939 1.327 . S
C2937 C2943 1.429 . S
C2938 C2930 1.574 . S
C2938 H2933 0.949 . S
C2938 C2944 1.368 . S
C2939 C2923 1.349 . S
C2939 H2931 0.950 . S
C2939 C2937 1.327 . S
C2940 C2928 1.349 . S
C2940 H2934 0.950 . S
C2940 C2941 1.327 . S
C2941 H2935 0.950 . S
C2941 C2940 1.327 . S
C2941 C2945 1.429 . S
C2942 C2925 1.574 . S
C2942 H2936 0.949 . S
C2942 C2946 1.368 . S
C2943 C2924 1.429 . S
C2943 C2937 1.429 . S
C2943 C2944 1.523 . S
C2944 C2925 1.368 . S
C2944 C2938 1.368 . S
C2944 C2943 1.523 . S
C2945 C2929 1.429 . S
C2945 C2941 1.429 . S
C2945 C2946 1.523 . S
C2946 C2930 1.368 . S
C2946 C2942 1.368 . S
C2946 C2945 1.523 . S
H2947 C2922 0.950 . S
H2948 C2924 0.950 . S
H2949 C2925 0.949 . S
H2950 C2927 0.950 . S
H2951 C2929 0.950 . S
C2952 C2953 1.349 . S
C2952 C2954 1.327 1_565 S
C2952 H2977 0.950 . S
C2953 C2952 1.349 . S
C2953 C2969 1.349 . S
C2954 C2952 1.327 1_545 S
C2954 C2973 1.429 . S
C2954 H2978 0.950 . S
C2955 C2972 1.574 . S
C2955 C2974 1.368 . S
C2955 H2979 0.949 . S
H2956 C2960 0.949 . S
C2957 C2958 1.349 . S
C2957 C2959 1.327 . S
C2957 H2980 0.950 . S
C2958 C2957 1.349 . S
C2958 C2970 1.349 . S
C2959 C2957 1.327 . S
C2959 C2975 1.429 . S
C2959 H2981 0.950 . S
C2960 H2956 0.949 . S
C2960 C2968 1.574 . S
C2960 C2976 1.368 . S
H2961 C2969 0.950 . S
H2962 C2967 0.950 . S
H2963 C2968 0.949 . S
H2964 C2970 0.950 . S
H2965 C2971 0.950 . S
H2966 C2972 0.949 . S
C2967 H2962 0.950 . S
C2967 C2969 1.327 . S
C2967 C2973 1.429 1_565 S
C2968 C2960 1.574 . S
C2968 H2963 0.949 . S
C2968 C2974 1.368 . S
C2969 C2953 1.349 . S
C2969 H2961 0.950 . S
C2969 C2967 1.327 . S
C2970 C2958 1.349 . S
C2970 H2964 0.950 . S
C2970 C2971 1.327 . S
C2971 H2965 0.950 . S
C2971 C2970 1.327 . S
C2971 C2975 1.429 . S
C2972 C2955 1.574 . S
C2972 H2966 0.949 . S
C2972 C2976 1.368 . S
C2973 C2954 1.429 . S
C2973 C2967 1.429 1_545 S
C2973 C2974 1.523 . S
C2974 C2955 1.368 . S
C2974 C2968 1.368 . S
C2974 C2973 1.523 . S
C2975 C2959 1.429 . S
C2975 C2971 1.429 . S
C2975 C2976 1.523 . S
C2976 C2960 1.368 . S
C2976 C2972 1.368 . S
C2976 C2975 1.523 . S
H2977 C2952 0.950 . S
H2978 C2954 0.950 . S
H2979 C2955 0.949 . S
H2980 C2957 0.950 . S
H2981 C2959 0.950 . S
C2982 C2983 1.349 . S
C2982 C2984 1.327 . S
C2982 H3007 0.950 . S
C2983 C2982 1.349 . S
C2983 C2999 1.349 . S
C2984 C2982 1.327 . S
C2984 C3003 1.429 . S
C2984 H3008 0.950 . S
C2985 C3002 1.574 . S
C2985 C3004 1.368 . S
C2985 H3009 0.949 . S
H2986 C2990 0.949 . S
C2987 C2988 1.349 . S
C2987 C2989 1.327 . S
C2987 H3010 0.950 . S
C2988 C2987 1.349 . S
C2988 C3000 1.349 . S
C2989 C2987 1.327 . S
C2989 C3005 1.429 . S
C2989 H3011 0.950 . S
C2990 H2986 0.949 . S
C2990 C2998 1.574 . S
C2990 C3006 1.368 . S
H2991 C2999 0.950 . S
H2992 C2997 0.950 . S
H2993 C2998 0.949 . S
H2994 C3000 0.950 . S
H2995 C3001 0.950 . S
H2996 C3002 0.949 . S
C2997 H2992 0.950 . S
C2997 C2999 1.327 . S
C2997 C3003 1.429 . S
C2998 C2990 1.574 . S
C2998 H2993 0.949 . S
C2998 C3004 1.368 . S
C2999 C2983 1.349 . S
C2999 H2991 0.950 . S
C2999 C2997 1.327 . S
C3000 C2988 1.349 . S
C3000 H2994 0.950 . S
C3000 C3001 1.327 . S
C3001 H2995 0.950 . S
C3001 C3000 1.327 . S
C3001 C3005 1.429 . S
C3002 C2985 1.574 . S
C3002 H2996 0.949 . S
C3002 C3006 1.368 . S
C3003 C2984 1.429 . S
C3003 C2997 1.429 . S
C3003 C3004 1.523 . S
C3004 C2985 1.368 . S
C3004 C2998 1.368 . S
C3004 C3003 1.523 . S
C3005 C2989 1.429 . S
C3005 C3001 1.429 . S
C3005 C3006 1.523 . S
C3006 C2990 1.368 . S
C3006 C3002 1.368 . S
C3006 C3005 1.523 . S
H3007 C2982 0.950 . S
H3008 C2984 0.950 . S
H3009 C2985 0.949 . S
H3010 C2987 0.950 . S
H3011 C2989 0.950 . S
C3012 C3013 1.349 . S
C3012 C3014 1.327 . S
C3012 H3037 0.950 . S
C3013 C3012 1.349 . S
C3013 C3029 1.349 . S
C3014 C3012 1.327 . S
C3014 C3033 1.429 . S
C3014 H3038 0.950 . S
C3015 C3032 1.574 . S
C3015 C3034 1.368 . S
C3015 H3039 0.949 . S
H3016 C3020 0.949 . S
C3017 C3018 1.349 . S
C3017 C3019 1.327 . S
C3017 H3040 0.950 . S
C3018 C3017 1.349 . S
C3018 C3030 1.349 . S
C3019 C3017 1.327 . S
C3019 C3035 1.429 1_565 S
C3019 H3041 0.950 . S
C3020 H3016 0.949 . S
C3020 C3028 1.574 . S
C3020 C3036 1.368 . S
H3021 C3029 0.950 . S
H3022 C3027 0.950 . S
H3023 C3028 0.949 . S
H3024 C3030 0.950 . S
H3025 C3031 0.950 . S
H3026 C3032 0.949 . S
C3027 H3022 0.950 . S
C3027 C3029 1.327 . S
C3027 C3033 1.429 . S
C3028 C3020 1.574 . S
C3028 H3023 0.949 . S
C3028 C3034 1.368 . S
C3029 C3013 1.349 . S
C3029 H3021 0.950 . S
C3029 C3027 1.327 . S
C3030 C3018 1.349 . S
C3030 H3024 0.950 . S
C3030 C3031 1.327 1_565 S
C3031 H3025 0.950 . S
C3031 C3030 1.327 1_545 S
C3031 C3035 1.429 . S
C3032 C3015 1.574 . S
C3032 H3026 0.949 . S
C3032 C3036 1.368 . S
C3033 C3014 1.429 . S
C3033 C3027 1.429 . S
C3033 C3034 1.523 . S
C3034 C3015 1.368 . S
C3034 C3028 1.368 . S
C3034 C3033 1.523 . S
C3035 C3019 1.429 1_545 S
C3035 C3031 1.429 . S
C3035 C3036 1.523 . S
C3036 C3020 1.368 . S
C3036 C3032 1.368 . S
C3036 C3035 1.523 . S
H3037 C3012 0.950 . S
H3038 C3014 0.950 . S
H3039 C3015 0.949 . S
H3040 C3017 0.950 . S
H3041 C3019 0.950 . S
C3042 C3043 1.349 . S
C3042 C3044 1.327 . S
C3042 H3067 0.950 . S
C3043 C3042 1.349 . S
C3043 C3059 1.349 . S
C3044 C3042 1.327 . S
C3044 C3063 1.429 . S
C3044 H3068 0.950 . S
C3045 C3062 1.574 . S
C3045 C3064 1.368 . S
C3045 H3069 0.949 . S
H3046 C3050 0.949 . S
C3047 C3048 1.349 . S
C3047 C3049 1.327 . S
C3047 H3070 0.950 . S
C3048 C3047 1.349 . S
C3048 C3060 1.349 . S
C3049 C3047 1.327 . S
C3049 C3065 1.429 . S
C3049 H3071 0.950 . S
C3050 H3046 0.949 . S
C3050 C3058 1.574 . S
C3050 C3066 1.368 . S
H3051 C3059 0.950 . S
H3052 C3057 0.950 . S
H3053 C3058 0.949 . S
H3054 C3060 0.950 . S
H3055 C3061 0.950 . S
H3056 C3062 0.949 . S
C3057 H3052 0.950 . S
C3057 C3059 1.327 . S
C3057 C3063 1.429 . S
C3058 C3050 1.574 . S
C3058 H3053 0.949 . S
C3058 C3064 1.368 . S
C3059 C3043 1.349 . S
C3059 H3051 0.950 . S
C3059 C3057 1.327 . S
C3060 C3048 1.349 . S
C3060 H3054 0.950 . S
C3060 C3061 1.327 . S
C3061 H3055 0.950 . S
C3061 C3060 1.327 . S
C3061 C3065 1.429 . S
C3062 C3045 1.574 . S
C3062 H3056 0.949 . S
C3062 C3066 1.368 . S
C3063 C3044 1.429 . S
C3063 C3057 1.429 . S
C3063 C3064 1.523 . S
C3064 C3045 1.368 . S
C3064 C3058 1.368 . S
C3064 C3063 1.523 . S
C3065 C3049 1.429 . S
C3065 C3061 1.429 . S
C3065 C3066 1.523 . S
C3066 C3050 1.368 . S
C3066 C3062 1.368 . S
C3066 C3065 1.523 . S
H3067 C3042 0.950 . S
H3068 C3044 0.950 . S
H3069 C3045 0.949 . S
H3070 C3047 0.950 . S
H3071 C3049 0.950 . S
C3072 C3073 1.349 . S
C3072 C3074 1.327 . S
C3072 H3097 0.950 . S
C3073 C3072 1.349 . S
C3073 C3089 1.349 . S
C3074 C3072 1.327 . S
C3074 C3093 1.429 . S
C3074 H3098 0.950 . S
C3075 C3092 1.574 . S
C3075 C3094 1.368 . S
C3075 H3099 0.949 . S
H3076 C3080 0.949 . S
C3077 C3078 1.349 . S
C3077 C3079 1.327 . S
C3077 H3100 0.950 . S
C3078 C3077 1.349 . S
C3078 C3090 1.349 . S
C3079 C3077 1.327 . S
C3079 C3095 1.429 . S
C3079 H3101 0.950 . S
C3080 H3076 0.949 . S
C3080 C3088 1.574 . S
C3080 C3096 1.368 . S
H3081 C3089 0.950 . S
H3082 C3087 0.950 . S
H3083 C3088 0.949 . S
H3084 C3090 0.950 . S
H3085 C3091 0.950 . S
H3086 C3092 0.949 . S
C3087 H3082 0.950 . S
C3087 C3089 1.327 . S
C3087 C3093 1.429 . S
C3088 C3080 1.574 . S
C3088 H3083 0.949 . S
C3088 C3094 1.368 . S
C3089 C3073 1.349 . S
C3089 H3081 0.950 . S
C3089 C3087 1.327 . S
C3090 C3078 1.349 . S
C3090 H3084 0.950 . S
C3090 C3091 1.327 . S
C3091 H3085 0.950 . S
C3091 C3090 1.327 . S
C3091 C3095 1.429 . S
C3092 C3075 1.574 . S
C3092 H3086 0.949 . S
C3092 C3096 1.368 . S
C3093 C3074 1.429 . S
C3093 C3087 1.429 . S
C3093 C3094 1.523 . S
C3094 C3075 1.368 . S
C3094 C3088 1.368 . S
C3094 C3093 1.523 . S
C3095 C3079 1.429 . S
C3095 C3091 1.429 . S
C3095 C3096 1.523 . S
C3096 C3080 1.368 . S
C3096 C3092 1.368 . S
C3096 C3095 1.523 . S
H3097 C3072 0.950 . S
H3098 C3074 0.950 . S
H3099 C3075 0.949 . S
H3100 C3077 0.950 . S
H3101 C3079 0.950 . S
C3102 C3103 1.349 . S
C3102 C3104 1.327 . S
C3102 H3127 0.950 . S
C3103 C3102 1.349 . S
C3103 C3119 1.349 . S
C3104 C3102 1.327 . S
C3104 C3123 1.429 . S
C3104 H3128 0.950 . S
C3105 C3122 1.574 . S
C3105 C3124 1.368 . S
C3105 H3129 0.949 . S
H3106 C3110 0.949 . S
C3107 C3108 1.349 . S
C3107 C3109 1.327 . S
C3107 H3130 0.950 . S
C3108 C3107 1.349 . S
C3108 C3120 1.349 . S
C3109 C3107 1.327 . S
C3109 C3125 1.429 . S
C3109 H3131 0.950 . S
C3110 H3106 0.949 . S
C3110 C3118 1.574 . S
C3110 C3126 1.368 . S
H3111 C3119 0.950 . S
H3112 C3117 0.950 . S
H3113 C3118 0.949 . S
H3114 C3120 0.950 . S
H3115 C3121 0.950 . S
H3116 C3122 0.949 . S
C3117 H3112 0.950 . S
C3117 C3119 1.327 . S
C3117 C3123 1.429 . S
C3118 C3110 1.574 . S
C3118 H3113 0.949 . S
C3118 C3124 1.368 . S
C3119 C3103 1.349 . S
C3119 H3111 0.950 . S
C3119 C3117 1.327 . S
C3120 C3108 1.349 . S
C3120 H3114 0.950 . S
C3120 C3121 1.327 . S
C3121 H3115 0.950 . S
C3121 C3120 1.327 . S
C3121 C3125 1.429 . S
C3122 C3105 1.574 . S
C3122 H3116 0.949 . S
C3122 C3126 1.368 . S
C3123 C3104 1.429 . S
C3123 C3117 1.429 . S
C3123 C3124 1.523 . S
C3124 C3105 1.368 . S
C3124 C3118 1.368 . S
C3124 C3123 1.523 . S
C3125 C3109 1.429 . S
C3125 C3121 1.429 . S
C3125 C3126 1.523 . S
C3126 C3110 1.368 . S
C3126 C3122 1.368 . S
C3126 C3125 1.523 . S
H3127 C3102 0.950 . S
H3128 C3104 0.950 . S
H3129 C3105 0.949 . S
H3130 C3107 0.950 . S
H3131 C3109 0.950 . S
C3132 C3133 1.349 . S
C3132 C3134 1.327 . S
C3132 H3157 0.950 . S
C3133 C3132 1.349 . S
C3133 C3149 1.349 . S
C3134 C3132 1.327 . S
C3134 C3153 1.429 . S
C3134 H3158 0.950 . S
C3135 C3152 1.574 . S
C3135 C3154 1.368 . S
C3135 H3159 0.949 . S
H3136 C3140 0.949 . S
C3137 C3138 1.349 . S
C3137 C3139 1.327 . S
C3137 H3160 0.950 . S
C3138 C3137 1.349 . S
C3138 C3150 1.349 . S
C3139 C3137 1.327 . S
C3139 C3155 1.429 . S
C3139 H3161 0.950 . S
C3140 H3136 0.949 . S
C3140 C3148 1.574 . S
C3140 C3156 1.368 . S
H3141 C3149 0.950 . S
H3142 C3147 0.950 . S
H3143 C3148 0.949 . S
H3144 C3150 0.950 . S
H3145 C3151 0.950 . S
H3146 C3152 0.949 . S
C3147 H3142 0.950 . S
C3147 C3149 1.327 . S
C3147 C3153 1.429 . S
C3148 C3140 1.574 . S
C3148 H3143 0.949 . S
C3148 C3154 1.368 . S
C3149 C3133 1.349 . S
C3149 H3141 0.950 . S
C3149 C3147 1.327 . S
C3150 C3138 1.349 . S
C3150 H3144 0.950 . S
C3150 C3151 1.327 . S
C3151 H3145 0.950 . S
C3151 C3150 1.327 . S
C3151 C3155 1.429 . S
C3152 C3135 1.574 . S
C3152 H3146 0.949 . S
C3152 C3156 1.368 . S
C3153 C3134 1.429 . S
C3153 C3147 1.429 . S
C3153 C3154 1.523 . S
C3154 C3135 1.368 . S
C3154 C3148 1.368 . S
C3154 C3153 1.523 . S
C3155 C3139 1.429 . S
C3155 C3151 1.429 . S
C3155 C3156 1.523 . S
C3156 C3140 1.368 . S
C3156 C3152 1.368 . S
C3156 C3155 1.523 . S
H3157 C3132 0.950 . S
H3158 C3134 0.950 . S
H3159 C3135 0.949 . S
H3160 C3137 0.950 . S
H3161 C3139 0.950 . S
C3162 C3163 1.349 . S
C3162 C3164 1.327 . S
C3162 H3187 0.950 . S
C3163 C3162 1.349 . S
C3163 C3179 1.349 . S
C3164 C3162 1.327 . S
C3164 C3183 1.429 . S
C3164 H3188 0.950 . S
C3165 C3182 1.574 1_545 S
C3165 C3184 1.368 . S
C3165 H3189 0.949 . S
H3166 C3170 0.949 . S
C3167 C3168 1.349 . S
C3167 C3169 1.327 . S
C3167 H3190 0.950 . S
C3168 C3167 1.349 . S
C3168 C3180 1.349 . S
C3169 C3167 1.327 . S
C3169 C3185 1.429 . S
C3169 H3191 0.950 . S
C3170 H3166 0.949 . S
C3170 C3178 1.574 . S
C3170 C3186 1.368 . S
H3171 C3179 0.950 . S
H3172 C3177 0.950 . S
H3173 C3178 0.949 . S
H3174 C3180 0.950 . S
H3175 C3181 0.950 . S
H3176 C3182 0.949 . S
C3177 H3172 0.950 . S
C3177 C3179 1.327 . S
C3177 C3183 1.429 . S
C3178 C3170 1.574 . S
C3178 H3173 0.949 . S
C3178 C3184 1.368 1_565 S
C3179 C3163 1.349 . S
C3179 H3171 0.950 . S
C3179 C3177 1.327 . S
C3180 C3168 1.349 . S
C3180 H3174 0.950 . S
C3180 C3181 1.327 . S
C3181 H3175 0.950 . S
C3181 C3180 1.327 . S
C3181 C3185 1.429 . S
C3182 C3165 1.574 1_565 S
C3182 H3176 0.949 . S
C3182 C3186 1.368 . S
C3183 C3164 1.429 . S
C3183 C3177 1.429 . S
C3183 C3184 1.523 . S
C3184 C3165 1.368 . S
C3184 C3178 1.368 1_545 S
C3184 C3183 1.523 . S
C3185 C3169 1.429 . S
C3185 C3181 1.429 . S
C3185 C3186 1.523 . S
C3186 C3170 1.368 . S
C3186 C3182 1.368 . S
C3186 C3185 1.523 . S
H3187 C3162 0.950 . S
H3188 C3164 0.950 . S
H3189 C3165 0.949 . S
H3190 C3167 0.950 . S
H3191 C3169 0.950 . S
C3192 C3193 1.349 . S
C3192 C3194 1.327 . S
C3192 H3217 0.950 . S
C3193 C3192 1.349 . S
C3193 C3209 1.349 . S
C3194 C3192 1.327 . S
C3194 C3213 1.429 . S
C3194 H3218 0.950 . S
C3195 C3212 1.574 . S
C3195 C3214 1.368 . S
C3195 H3219 0.949 . S
H3196 C3200 0.949 . S
C3197 C3198 1.349 . S
C3197 C3199 1.327 . S
C3197 H3220 0.950 . S
C3198 C3197 1.349 . S
C3198 C3210 1.349 . S
C3199 C3197 1.327 . S
C3199 C3215 1.429 . S
C3199 H3221 0.950 . S
C3200 H3196 0.949 . S
C3200 C3208 1.574 . S
C3200 C3216 1.368 . S
H3201 C3209 0.950 . S
H3202 C3207 0.950 . S
H3203 C3208 0.949 . S
H3204 C3210 0.950 . S
H3205 C3211 0.950 . S
H3206 C3212 0.949 . S
C3207 H3202 0.950 . S
C3207 C3209 1.327 . S
C3207 C3213 1.429 . S
C3208 C3200 1.574 . S
C3208 H3203 0.949 . S
C3208 C3214 1.368 . S
C3209 C3193 1.349 . S
C3209 H3201 0.950 . S
C3209 C3207 1.327 . S
C3210 C3198 1.349 . S
C3210 H3204 0.950 . S
C3210 C3211 1.327 . S
C3211 H3205 0.950 . S
C3211 C3210 1.327 . S
C3211 C3215 1.429 . S
C3212 C3195 1.574 . S
C3212 H3206 0.949 . S
C3212 C3216 1.368 . S
C3213 C3194 1.429 . S
C3213 C3207 1.429 . S
C3213 C3214 1.523 . S
C3214 C3195 1.368 . S
C3214 C3208 1.368 . S
C3214 C3213 1.523 . S
C3215 C3199 1.429 . S
C3215 C3211 1.429 . S
C3215 C3216 1.523 . S
C3216 C3200 1.368 . S
C3216 C3212 1.368 . S
C3216 C3215 1.523 . S
H3217 C3192 0.950 . S
H3218 C3194 0.950 . S
H3219 C3195 0.949 . S
H3220 C3197 0.950 . S
H3221 C3199 0.950 . S
C3222 C3223 1.349 . S
C3222 C3224 1.327 . S
C3222 H3247 0.950 . S
C3223 C3222 1.349 . S
C3223 C3239 1.349 . S
C3224 C3222 1.327 . S
C3224 C3243 1.429 . S
C3224 H3248 0.950 . S
C3225 C3242 1.574 . S
C3225 C3244 1.368 . S
C3225 H3249 0.949 . S
H3226 C3230 0.949 . S
C3227 C3228 1.349 . S
C3227 C3229 1.327 . S
C3227 H3250 0.950 . S
C3228 C3227 1.349 . S
C3228 C3240 1.349 . S
C3229 C3227 1.327 . S
C3229 C3245 1.429 . S
C3229 H3251 0.950 . S
C3230 H3226 0.949 . S
C3230 C3238 1.574 . S
C3230 C3246 1.368 . S
H3231 C3239 0.950 . S
H3232 C3237 0.950 . S
H3233 C3238 0.949 . S
H3234 C3240 0.950 . S
H3235 C3241 0.950 . S
H3236 C3242 0.949 . S
C3237 H3232 0.950 . S
C3237 C3239 1.327 . S
C3237 C3243 1.429 . S
C3238 C3230 1.574 . S
C3238 H3233 0.949 . S
C3238 C3244 1.368 . S
C3239 C3223 1.349 . S
C3239 H3231 0.950 . S
C3239 C3237 1.327 . S
C3240 C3228 1.349 . S
C3240 H3234 0.950 . S
C3240 C3241 1.327 . S
C3241 H3235 0.950 . S
C3241 C3240 1.327 . S
C3241 C3245 1.429 . S
C3242 C3225 1.574 . S
C3242 H3236 0.949 . S
C3242 C3246 1.368 . S
C3243 C3224 1.429 . S
C3243 C3237 1.429 . S
C3243 C3244 1.523 . S
C3244 C3225 1.368 . S
C3244 C3238 1.368 . S
C3244 C3243 1.523 . S
C3245 C3229 1.429 . S
C3245 C3241 1.429 . S
C3245 C3246 1.523 . S
C3246 C3230 1.368 . S
C3246 C3242 1.368 . S
C3246 C3245 1.523 . S
H3247 C3222 0.950 . S
H3248 C3224 0.950 . S
H3249 C3225 0.949 . S
H3250 C3227 0.950 . S
H3251 C3229 0.950 . S
C3252 C3253 1.349 . S
C3252 C3254 1.327 . S
C3252 H3277 0.950 . S
C3253 C3252 1.349 . S
C3253 C3269 1.349 . S
C3254 C3252 1.327 . S
C3254 C3273 1.429 . S
C3254 H3278 0.950 . S
C3255 C3272 1.574 . S
C3255 C3274 1.368 . S
C3255 H3279 0.949 . S
H3256 C3260 0.949 . S
C3257 C3258 1.349 . S
C3257 C3259 1.327 . S
C3257 H3280 0.950 . S
C3258 C3257 1.349 . S
C3258 C3270 1.349 . S
C3259 C3257 1.327 . S
C3259 C3275 1.429 . S
C3259 H3281 0.950 . S
C3260 H3256 0.949 . S
C3260 C3268 1.574 . S
C3260 C3276 1.368 . S
H3261 C3269 0.950 . S
H3262 C3267 0.950 . S
H3263 C3268 0.949 . S
H3264 C3270 0.950 . S
H3265 C3271 0.950 . S
H3266 C3272 0.949 . S
C3267 H3262 0.950 . S
C3267 C3269 1.327 . S
C3267 C3273 1.429 . S
C3268 C3260 1.574 . S
C3268 H3263 0.949 . S
C3268 C3274 1.368 . S
C3269 C3253 1.349 . S
C3269 H3261 0.950 . S
C3269 C3267 1.327 . S
C3270 C3258 1.349 . S
C3270 H3264 0.950 . S
C3270 C3271 1.327 . S
C3271 H3265 0.950 . S
C3271 C3270 1.327 . S
C3271 C3275 1.429 . S
C3272 C3255 1.574 . S
C3272 H3266 0.949 . S
C3272 C3276 1.368 . S
C3273 C3254 1.429 . S
C3273 C3267 1.429 . S
C3273 C3274 1.523 . S
C3274 C3255 1.368 . S
C3274 C3268 1.368 . S
C3274 C3273 1.523 . S
C3275 C3259 1.429 . S
C3275 C3271 1.429 . S
C3275 C3276 1.523 . S
C3276 C3260 1.368 . S
C3276 C3272 1.368 . S
C3276 C3275 1.523 . S
H3277 C3252 0.950 . S
H3278 C3254 0.950 . S
H3279 C3255 0.949 . S
H3280 C3257 0.950 . S
H3281 C3259 0.950 . S
C3282 C3283 1.349 . S
C3282 C3284 1.327 . S
C3282 H3307 0.950 . S
C3283 C3282 1.349 . S
C3283 C3299 1.349 . S
C3284 C3282 1.327 . S
C3284 C3303 1.429 . S
C3284 H3308 0.950 . S
C3285 C3302 1.574 . S
C3285 C3304 1.368 . S
C3285 H3309 0.949 . S
H3286 C3290 0.949 . S
C3287 C3288 1.349 . S
C3287 C3289 1.327 . S
C3287 H3310 0.950 . S
C3288 C3287 1.349 . S
C3288 C3300 1.349 . S
C3289 C3287 1.327 . S
C3289 C3305 1.429 . S
C3289 H3311 0.950 . S
C3290 H3286 0.949 . S
C3290 C3298 1.574 1_545 S
C3290 C3306 1.368 . S
H3291 C3299 0.950 . S
H3292 C3297 0.950 . S
H3293 C3298 0.949 . S
H3294 C3300 0.950 . S
H3295 C3301 0.950 . S
H3296 C3302 0.949 . S
C3297 H3292 0.950 . S
C3297 C3299 1.327 . S
C3297 C3303 1.429 . S
C3298 C3290 1.574 1_565 S
C3298 H3293 0.949 . S
C3298 C3304 1.368 . S
C3299 C3283 1.349 . S
C3299 H3291 0.950 . S
C3299 C3297 1.327 . S
C3300 C3288 1.349 . S
C3300 H3294 0.950 . S
C3300 C3301 1.327 . S
C3301 H3295 0.950 . S
C3301 C3300 1.327 . S
C3301 C3305 1.429 . S
C3302 C3285 1.574 . S
C3302 H3296 0.949 . S
C3302 C3306 1.368 1_565 S
C3303 C3284 1.429 . S
C3303 C3297 1.429 . S
C3303 C3304 1.523 . S
C3304 C3285 1.368 . S
C3304 C3298 1.368 . S
C3304 C3303 1.523 . S
C3305 C3289 1.429 . S
C3305 C3301 1.429 . S
C3305 C3306 1.523 . S
C3306 C3290 1.368 . S
C3306 C3302 1.368 1_545 S
C3306 C3305 1.523 . S
H3307 C3282 0.950 . S
H3308 C3284 0.950 . S
H3309 C3285 0.949 . S
H3310 C3287 0.950 . S
H3311 C3289 0.950 . S
C3312 C3313 1.349 . S
C3312 C3314 1.327 . S
C3312 H3337 0.950 . S
C3313 C3312 1.349 . S
C3313 C3329 1.349 . S
C3314 C3312 1.327 . S
C3314 C3333 1.429 . S
C3314 H3338 0.950 . S
C3315 C3332 1.574 . S
C3315 C3334 1.368 . S
C3315 H3339 0.949 . S
H3316 C3320 0.949 . S
C3317 C3318 1.349 . S
C3317 C3319 1.327 . S
C3317 H3340 0.950 . S
C3318 C3317 1.349 . S
C3318 C3330 1.349 . S
C3319 C3317 1.327 . S
C3319 C3335 1.429 . S
C3319 H3341 0.950 . S
C3320 H3316 0.949 . S
C3320 C3328 1.574 . S
C3320 C3336 1.368 . S
H3321 C3329 0.950 . S
H3322 C3327 0.950 . S
H3323 C3328 0.949 . S
H3324 C3330 0.950 . S
H3325 C3331 0.950 . S
H3326 C3332 0.949 . S
C3327 H3322 0.950 . S
C3327 C3329 1.327 . S
C3327 C3333 1.429 . S
C3328 C3320 1.574 . S
C3328 H3323 0.949 . S
C3328 C3334 1.368 . S
C3329 C3313 1.349 . S
C3329 H3321 0.950 . S
C3329 C3327 1.327 . S
C3330 C3318 1.349 . S
C3330 H3324 0.950 . S
C3330 C3331 1.327 . S
C3331 H3325 0.950 . S
C3331 C3330 1.327 . S
C3331 C3335 1.429 . S
C3332 C3315 1.574 . S
C3332 H3326 0.949 . S
C3332 C3336 1.368 . S
C3333 C3314 1.429 . S
C3333 C3327 1.429 . S
C3333 C3334 1.523 . S
C3334 C3315 1.368 . S
C3334 C3328 1.368 . S
C3334 C3333 1.523 . S
C3335 C3319 1.429 . S
C3335 C3331 1.429 . S
C3335 C3336 1.523 . S
C3336 C3320 1.368 . S
C3336 C3332 1.368 . S
C3336 C3335 1.523 . S
H3337 C3312 0.950 . S
H3338 C3314 0.950 . S
H3339 C3315 0.949 . S
H3340 C3317 0.950 . S
H3341 C3319 0.950 . S
C3342 C3343 1.349 . S
C3342 C3344 1.327 . S
C3342 H3367 0.950 . S
C3343 C3342 1.349 . S
C3343 C3359 1.349 . S
C3344 C3342 1.327 . S
C3344 C3363 1.429 . S
C3344 H3368 0.950 . S
C3345 C3362 1.574 . S
C3345 C3364 1.368 . S
C3345 H3369 0.949 . S
H3346 C3350 0.949 . S
C3347 C3348 1.349 . S
C3347 C3349 1.327 . S
C3347 H3370 0.950 . S
C3348 C3347 1.349 . S
C3348 C3360 1.349 . S
C3349 C3347 1.327 . S
C3349 C3365 1.429 . S
C3349 H3371 0.950 . S
C3350 H3346 0.949 . S
C3350 C3358 1.574 . S
C3350 C3366 1.368 . S
H3351 C3359 0.950 . S
H3352 C3357 0.950 . S
H3353 C3358 0.949 . S
H3354 C3360 0.950 . S
H3355 C3361 0.950 . S
H3356 C3362 0.949 . S
C3357 H3352 0.950 . S
C3357 C3359 1.327 . S
C3357 C3363 1.429 . S
C3358 C3350 1.574 . S
C3358 H3353 0.949 . S
C3358 C3364 1.368 . S
C3359 C3343 1.349 . S
C3359 H3351 0.950 . S
C3359 C3357 1.327 . S
C3360 C3348 1.349 . S
C3360 H3354 0.950 . S
C3360 C3361 1.327 . S
C3361 H3355 0.950 . S
C3361 C3360 1.327 . S
C3361 C3365 1.429 . S
C3362 C3345 1.574 . S
C3362 H3356 0.949 . S
C3362 C3366 1.368 . S
C3363 C3344 1.429 . S
C3363 C3357 1.429 . S
C3363 C3364 1.523 . S
C3364 C3345 1.368 . S
C3364 C3358 1.368 . S
C3364 C3363 1.523 . S
C3365 C3349 1.429 . S
C3365 C3361 1.429 . S
C3365 C3366 1.523 . S
C3366 C3350 1.368 . S
C3366 C3362 1.368 . S
C3366 C3365 1.523 . S
H3367 C3342 0.950 . S
H3368 C3344 0.950 . S
H3369 C3345 0.949 . S
H3370 C3347 0.950 . S
H3371 C3349 0.950 . S
C3372 C3373 1.349 . S
C3372 C3374 1.327 . S
C3372 H3397 0.950 . S
C3373 C3372 1.349 . S
C3373 C3389 1.349 . S
C3374 C3372 1.327 . S
C3374 C3393 1.429 . S
C3374 H3398 0.950 . S
C3375 C3392 1.574 . S
C3375 C3394 1.368 . S
C3375 H3399 0.949 . S
H3376 C3380 0.949 . S
C3377 C3378 1.349 . S
C3377 C3379 1.327 . S
C3377 H3400 0.950 . S
C3378 C3377 1.349 . S
C3378 C3390 1.349 . S
C3379 C3377 1.327 . S
C3379 C3395 1.429 . S
C3379 H3401 0.950 . S
C3380 H3376 0.949 . S
C3380 C3388 1.574 . S
C3380 C3396 1.368 . S
H3381 C3389 0.950 . S
H3382 C3387 0.950 . S
H3383 C3388 0.949 . S
H3384 C3390 0.950 . S
H3385 C3391 0.950 . S
H3386 C3392 0.949 . S
C3387 H3382 0.950 . S
C3387 C3389 1.327 . S
C3387 C3393 1.429 . S
C3388 C3380 1.574 . S
C3388 H3383 0.949 . S
C3388 C3394 1.368 . S
C3389 C3373 1.349 . S
C3389 H3381 0.950 . S
C3389 C3387 1.327 . S
C3390 C3378 1.349 . S
C3390 H3384 0.950 . S
C3390 C3391 1.327 . S
C3391 H3385 0.950 . S
C3391 C3390 1.327 . S
C3391 C3395 1.429 . S
C3392 C3375 1.574 . S
C3392 H3386 0.949 . S
C3392 C3396 1.368 . S
C3393 C3374 1.429 . S
C3393 C3387 1.429 . S
C3393 C3394 1.523 . S
C3394 C3375 1.368 . S
C3394 C3388 1.368 . S
C3394 C3393 1.523 . S
C3395 C3379 1.429 . S
C3395 C3391 1.429 . S
C3395 C3396 1.523 . S
C3396 C3380 1.368 . S
C3396 C3392 1.368 . S
C3396 C3395 1.523 . S
H3397 C3372 0.950 . S
H3398 C3374 0.950 . S
H3399 C3375 0.949 . S
H3400 C3377 0.950 . S
H3401 C3379 0.950 . S
C3402 C3403 1.349 . S
C3402 C3404 1.327 . S
C3402 H3427 0.950 . S
C3403 C3402 1.349 . S
C3403 C3419 1.349 . S
C3404 C3402 1.327 . S
C3404 C3423 1.429 . S
C3404 H3428 0.950 . S
C3405 C3422 1.574 . S
C3405 C3424 1.368 . S
C3405 H3429 0.949 . S
H3406 C3410 0.949 . S
C3407 C3408 1.349 . S
C3407 C3409 1.327 . S
C3407 H3430 0.950 . S
C3408 C3407 1.349 . S
C3408 C3420 1.349 . S
C3409 C3407 1.327 . S
C3409 C3425 1.429 . S
C3409 H3431 0.950 . S
C3410 H3406 0.949 . S
C3410 C3418 1.574 . S
C3410 C3426 1.368 . S
H3411 C3419 0.950 . S
H3412 C3417 0.950 . S
H3413 C3418 0.949 . S
H3414 C3420 0.950 . S
H3415 C3421 0.950 . S
H3416 C3422 0.949 . S
C3417 H3412 0.950 . S
C3417 C3419 1.327 . S
C3417 C3423 1.429 . S
C3418 C3410 1.574 . S
C3418 H3413 0.949 . S
C3418 C3424 1.368 . S
C3419 C3403 1.349 . S
C3419 H3411 0.950 . S
C3419 C3417 1.327 . S
C3420 C3408 1.349 . S
C3420 H3414 0.950 . S
C3420 C3421 1.327 . S
C3421 H3415 0.950 . S
C3421 C3420 1.327 . S
C3421 C3425 1.429 . S
C3422 C3405 1.574 . S
C3422 H3416 0.949 . S
C3422 C3426 1.368 . S
C3423 C3404 1.429 . S
C3423 C3417 1.429 . S
C3423 C3424 1.523 . S
C3424 C3405 1.368 . S
C3424 C3418 1.368 . S
C3424 C3423 1.523 . S
C3425 C3409 1.429 . S
C3425 C3421 1.429 . S
C3425 C3426 1.523 . S
C3426 C3410 1.368 . S
C3426 C3422 1.368 . S
C3426 C3425 1.523 . S
H3427 C3402 0.950 . S
H3428 C3404 0.950 . S
H3429 C3405 0.949 . S
H3430 C3407 0.950 . S
H3431 C3409 0.950 . S
C3432 C3433 1.349 . S
C3432 C3434 1.327 . S
C3432 H3457 0.950 . S
C3433 C3432 1.349 . S
C3433 C3449 1.349 . S
C3434 C3432 1.327 . S
C3434 C3453 1.429 . S
C3434 H3458 0.950 . S
C3435 C3452 1.574 . S
C3435 C3454 1.368 . S
C3435 H3459 0.949 . S
H3436 C3440 0.949 . S
C3437 C3438 1.349 . S
C3437 C3439 1.327 . S
C3437 H3460 0.950 . S
C3438 C3437 1.349 . S
C3438 C3450 1.349 . S
C3439 C3437 1.327 . S
C3439 C3455 1.429 . S
C3439 H3461 0.950 . S
C3440 H3436 0.949 . S
C3440 C3448 1.574 . S
C3440 C3456 1.368 . S
H3441 C3449 0.950 . S
H3442 C3447 0.950 . S
H3443 C3448 0.949 . S
H3444 C3450 0.950 . S
H3445 C3451 0.950 . S
H3446 C3452 0.949 . S
C3447 H3442 0.950 . S
C3447 C3449 1.327 . S
C3447 C3453 1.429 . S
C3448 C3440 1.574 . S
C3448 H3443 0.949 . S
C3448 C3454 1.368 . S
C3449 C3433 1.349 . S
C3449 H3441 0.950 . S
C3449 C3447 1.327 . S
C3450 C3438 1.349 . S
C3450 H3444 0.950 . S
C3450 C3451 1.327 . S
C3451 H3445 0.950 . S
C3451 C3450 1.327 . S
C3451 C3455 1.429 . S
C3452 C3435 1.574 . S
C3452 H3446 0.949 . S
C3452 C3456 1.368 . S
C3453 C3434 1.429 . S
C3453 C3447 1.429 . S
C3453 C3454 1.523 . S
C3454 C3435 1.368 . S
C3454 C3448 1.368 . S
C3454 C3453 1.523 . S
C3455 C3439 1.429 . S
C3455 C3451 1.429 . S
C3455 C3456 1.523 . S
C3456 C3440 1.368 . S
C3456 C3452 1.368 . S
C3456 C3455 1.523 . S
H3457 C3432 0.950 . S
H3458 C3434 0.950 . S
H3459 C3435 0.949 . S
H3460 C3437 0.950 . S
H3461 C3439 0.950 . S
C3462 C3463 1.349 . S
C3462 C3464 1.327 . S
C3462 H3487 0.950 . S
C3463 C3462 1.349 . S
C3463 C3479 1.349 . S
C3464 C3462 1.327 . S
C3464 C3483 1.429 . S
C3464 H3488 0.950 . S
C3465 C3482 1.574 . S
C3465 C3484 1.368 1_455 S
C3465 H3489 0.949 . S
H3466 C3470 0.949 . S
C3467 C3468 1.349 . S
C3467 C3469 1.327 . S
C3467 H3490 0.950 . S
C3468 C3467 1.349 . S
C3468 C3480 1.349 . S
C3469 C3467 1.327 . S
C3469 C3485 1.429 . S
C3469 H3491 0.950 . S
C3470 H3466 0.949 . S
C3470 C3478 1.574 1_455 S
C3470 C3486 1.368 . S
H3471 C3479 0.950 . S
H3472 C3477 0.950 . S
H3473 C3478 0.949 . S
H3474 C3480 0.950 . S
H3475 C3481 0.950 . S
H3476 C3482 0.949 . S
C3477 H3472 0.950 . S
C3477 C3479 1.327 . S
C3477 C3483 1.429 . S
C3478 C3470 1.574 1_655 S
C3478 H3473 0.949 . S
C3478 C3484 1.368 . S
C3479 C3463 1.349 . S
C3479 H3471 0.950 . S
C3479 C3477 1.327 . S
C3480 C3468 1.349 . S
C3480 H3474 0.950 . S
C3480 C3481 1.327 . S
C3481 H3475 0.950 . S
C3481 C3480 1.327 . S
C3481 C3485 1.429 . S
C3482 C3465 1.574 . S
C3482 H3476 0.949 . S
C3482 C3486 1.368 . S
C3483 C3464 1.429 . S
C3483 C3477 1.429 . S
C3483 C3484 1.523 . S
C3484 C3465 1.368 1_655 S
C3484 C3478 1.368 . S
C3484 C3483 1.523 . S
C3485 C3469 1.429 . S
C3485 C3481 1.429 . S
C3485 C3486 1.523 . S
C3486 C3470 1.368 . S
C3486 C3482 1.368 . S
C3486 C3485 1.523 . S
H3487 C3462 0.950 . S
H3488 C3464 0.950 . S
H3489 C3465 0.949 . S
H3490 C3467 0.950 . S
H3491 C3469 0.950 . S
C3492 C3493 1.349 . S
C3492 C3494 1.327 . S
C3492 H3517 0.950 . S
C3493 C3492 1.349 . S
C3493 C3509 1.349 . S
C3494 C3492 1.327 . S
C3494 C3513 1.429 . S
C3494 H3518 0.950 . S
C3495 C3512 1.574 . S
C3495 C3514 1.368 . S
C3495 H3519 0.949 . S
H3496 C3500 0.949 . S
C3497 C3498 1.349 . S
C3497 C3499 1.327 . S
C3497 H3520 0.950 . S
C3498 C3497 1.349 . S
C3498 C3510 1.349 . S
C3499 C3497 1.327 . S
C3499 C3515 1.429 . S
C3499 H3521 0.950 . S
C3500 H3496 0.949 . S
C3500 C3508 1.574 . S
C3500 C3516 1.368 . S
H3501 C3509 0.950 . S
H3502 C3507 0.950 . S
H3503 C3508 0.949 . S
H3504 C3510 0.950 . S
H3505 C3511 0.950 . S
H3506 C3512 0.949 . S
C3507 H3502 0.950 . S
C3507 C3509 1.327 . S
C3507 C3513 1.429 . S
C3508 C3500 1.574 . S
C3508 H3503 0.949 . S
C3508 C3514 1.368 . S
C3509 C3493 1.349 . S
C3509 H3501 0.950 . S
C3509 C3507 1.327 . S
C3510 C3498 1.349 . S
C3510 H3504 0.950 . S
C3510 C3511 1.327 . S
C3511 H3505 0.950 . S
C3511 C3510 1.327 . S
C3511 C3515 1.429 . S
C3512 C3495 1.574 . S
C3512 H3506 0.949 . S
C3512 C3516 1.368 . S
C3513 C3494 1.429 . S
C3513 C3507 1.429 . S
C3513 C3514 1.523 . S
C3514 C3495 1.368 . S
C3514 C3508 1.368 . S
C3514 C3513 1.523 . S
C3515 C3499 1.429 . S
C3515 C3511 1.429 . S
C3515 C3516 1.523 . S
C3516 C3500 1.368 . S
C3516 C3512 1.368 . S
C3516 C3515 1.523 . S
H3517 C3492 0.950 . S
H3518 C3494 0.950 . S
H3519 C3495 0.949 . S
H3520 C3497 0.950 . S
H3521 C3499 0.950 . S
C3522 C3523 1.349 . S
C3522 C3524 1.327 . S
C3522 H3547 0.950 . S
C3523 C3522 1.349 . S
C3523 C3539 1.349 . S
C3524 C3522 1.327 . S
C3524 C3543 1.429 . S
C3524 H3548 0.950 . S
C3525 C3542 1.574 1_655 S
C3525 C3544 1.368 . S
C3525 H3549 0.949 . S
H3526 C3530 0.949 . S
C3527 C3528 1.349 . S
C3527 C3529 1.327 . S
C3527 H3550 0.950 . S
C3528 C3527 1.349 . S
C3528 C3540 1.349 . S
C3529 C3527 1.327 . S
C3529 C3545 1.429 . S
C3529 H3551 0.950 . S
C3530 H3526 0.949 . S
C3530 C3538 1.574 . S
C3530 C3546 1.368 1_655 S
H3531 C3539 0.950 . S
H3532 C3537 0.950 . S
H3533 C3538 0.949 . S
H3534 C3540 0.950 . S
H3535 C3541 0.950 . S
H3536 C3542 0.949 . S
C3537 H3532 0.950 . S
C3537 C3539 1.327 . S
C3537 C3543 1.429 . S
C3538 C3530 1.574 . S
C3538 H3533 0.949 . S
C3538 C3544 1.368 . S
C3539 C3523 1.349 . S
C3539 H3531 0.950 . S
C3539 C3537 1.327 . S
C3540 C3528 1.349 . S
C3540 H3534 0.950 . S
C3540 C3541 1.327 . S
C3541 H3535 0.950 . S
C3541 C3540 1.327 . S
C3541 C3545 1.429 . S
C3542 C3525 1.574 1_455 S
C3542 H3536 0.949 . S
C3542 C3546 1.368 . S
C3543 C3524 1.429 . S
C3543 C3537 1.429 . S
C3543 C3544 1.523 . S
C3544 C3525 1.368 . S
C3544 C3538 1.368 . S
C3544 C3543 1.523 . S
C3545 C3529 1.429 . S
C3545 C3541 1.429 . S
C3545 C3546 1.523 . S
C3546 C3530 1.368 1_455 S
C3546 C3542 1.368 . S
C3546 C3545 1.523 . S
H3547 C3522 0.950 . S
H3548 C3524 0.950 . S
H3549 C3525 0.949 . S
H3550 C3527 0.950 . S
H3551 C3529 0.950 . S
C3552 C3553 1.349 . S
C3552 C3554 1.327 . S
C3552 H3577 0.950 . S
C3553 C3552 1.349 . S
C3553 C3569 1.349 . S
C3554 C3552 1.327 . S
C3554 C3573 1.429 . S
C3554 H3578 0.950 . S
C3555 C3572 1.574 . S
C3555 C3574 1.368 . S
C3555 H3579 0.949 . S
H3556 C3560 0.949 . S
C3557 C3558 1.349 . S
C3557 C3559 1.327 . S
C3557 H3580 0.950 . S
C3558 C3557 1.349 . S
C3558 C3570 1.349 . S
C3559 C3557 1.327 . S
C3559 C3575 1.429 . S
C3559 H3581 0.950 . S
C3560 H3556 0.949 . S
C3560 C3568 1.574 . S
C3560 C3576 1.368 . S
H3561 C3569 0.950 . S
H3562 C3567 0.950 . S
H3563 C3568 0.949 . S
H3564 C3570 0.950 . S
H3565 C3571 0.950 . S
H3566 C3572 0.949 . S
C3567 H3562 0.950 . S
C3567 C3569 1.327 . S
C3567 C3573 1.429 . S
C3568 C3560 1.574 . S
C3568 H3563 0.949 . S
C3568 C3574 1.368 . S
C3569 C3553 1.349 . S
C3569 H3561 0.950 . S
C3569 C3567 1.327 . S
C3570 C3558 1.349 . S
C3570 H3564 0.950 . S
C3570 C3571 1.327 . S
C3571 H3565 0.950 . S
C3571 C3570 1.327 . S
C3571 C3575 1.429 . S
C3572 C3555 1.574 . S
C3572 H3566 0.949 . S
C3572 C3576 1.368 . S
C3573 C3554 1.429 . S
C3573 C3567 1.429 . S
C3573 C3574 1.523 . S
C3574 C3555 1.368 . S
C3574 C3568 1.368 . S
C3574 C3573 1.523 . S
C3575 C3559 1.429 . S
C3575 C3571 1.429 . S
C3575 C3576 1.523 . S
C3576 C3560 1.368 . S
C3576 C3572 1.368 . S
C3576 C3575 1.523 . S
H3577 C3552 0.950 . S
H3578 C3554 0.950 . S
H3579 C3555 0.949 . S
H3580 C3557 0.950 . S
H3581 C3559 0.950 . S
C3582 C3583 1.349 . S
C3582 C3584 1.327 . S
C3582 H3607 0.950 . S
C3583 C3582 1.349 . S
C3583 C3599 1.349 . S
C3584 C3582 1.327 . S
C3584 C3603 1.429 . S
C3584 H3608 0.950 . S
C3585 C3602 1.574 . S
C3585 C3604 1.368 . S
C3585 H3609 0.949 . S
H3586 C3590 0.949 . S
C3587 C3588 1.349 . S
C3587 C3589 1.327 . S
C3587 H3610 0.950 . S
C3588 C3587 1.349 . S
C3588 C3600 1.349 . S
C3589 C3587 1.327 . S
C3589 C3605 1.429 . S
C3589 H3611 0.950 . S
C3590 H3586 0.949 . S
C3590 C3598 1.574 . S
C3590 C3606 1.368 . S
H3591 C3599 0.950 . S
H3592 C3597 0.950 . S
H3593 C3598 0.949 . S
H3594 C3600 0.950 . S
H3595 C3601 0.950 . S
H3596 C3602 0.949 . S
C3597 H3592 0.950 . S
C3597 C3599 1.327 . S
C3597 C3603 1.429 . S
C3598 C3590 1.574 . S
C3598 H3593 0.949 . S
C3598 C3604 1.368 . S
C3599 C3583 1.349 . S
C3599 H3591 0.950 . S
C3599 C3597 1.327 . S
C3600 C3588 1.349 . S
C3600 H3594 0.950 . S
C3600 C3601 1.327 . S
C3601 H3595 0.950 . S
C3601 C3600 1.327 . S
C3601 C3605 1.429 . S
C3602 C3585 1.574 . S
C3602 H3596 0.949 . S
C3602 C3606 1.368 . S
C3603 C3584 1.429 . S
C3603 C3597 1.429 . S
C3603 C3604 1.523 . S
C3604 C3585 1.368 . S
C3604 C3598 1.368 . S
C3604 C3603 1.523 . S
C3605 C3589 1.429 . S
C3605 C3601 1.429 . S
C3605 C3606 1.523 . S
C3606 C3590 1.368 . S
C3606 C3602 1.368 . S
C3606 C3605 1.523 . S
H3607 C3582 0.950 . S
H3608 C3584 0.950 . S
H3609 C3585 0.949 . S
H3610 C3587 0.950 . S
H3611 C3589 0.950 . S
C3612 C3613 1.349 . S
C3612 C3614 1.327 . S
C3612 H3637 0.950 . S
C3613 C3612 1.349 . S
C3613 C3629 1.349 . S
C3614 C3612 1.327 . S
C3614 C3633 1.429 . S
C3614 H3638 0.950 . S
C3615 C3632 1.574 . S
C3615 C3634 1.368 1_556 S
C3615 H3639 0.949 . S
H3616 C3620 0.949 . S
C3617 C3618 1.349 . S
C3617 C3619 1.327 . S
C3617 H3640 0.950 . S
C3618 C3617 1.349 . S
C3618 C3630 1.349 . S
C3619 C3617 1.327 . S
C3619 C3635 1.429 . S
C3619 H3641 0.950 . S
C3620 H3616 0.949 . S
C3620 C3628 1.574 1_556 S
C3620 C3636 1.368 . S
H3621 C3629 0.950 . S
H3622 C3627 0.950 . S
H3623 C3628 0.949 . S
H3624 C3630 0.950 . S
H3625 C3631 0.950 . S
H3626 C3632 0.949 . S
C3627 H3622 0.950 . S
C3627 C3629 1.327 . S
C3627 C3633 1.429 . S
C3628 C3620 1.574 1_554 S
C3628 H3623 0.949 . S
C3628 C3634 1.368 . S
C3629 C3613 1.349 . S
C3629 H3621 0.950 . S
C3629 C3627 1.327 . S
C3630 C3618 1.349 . S
C3630 H3624 0.950 . S
C3630 C3631 1.327 . S
C3631 H3625 0.950 . S
C3631 C3630 1.327 . S
C3631 C3635 1.429 . S
C3632 C3615 1.574 . S
C3632 H3626 0.949 . S
C3632 C3636 1.368 . S
C3633 C3614 1.429 . S
C3633 C3627 1.429 . S
C3633 C3634 1.523 . S
C3634 C3615 1.368 1_554 S
C3634 C3628 1.368 . S
C3634 C3633 1.523 . S
C3635 C3619 1.429 . S
C3635 C3631 1.429 . S
C3635 C3636 1.523 . S
C3636 C3620 1.368 . S
C3636 C3632 1.368 . S
C3636 C3635 1.523 . S
H3637 C3612 0.950 . S
H3638 C3614 0.950 . S
H3639 C3615 0.949 . S
H3640 C3617 0.950 . S
H3641 C3619 0.950 . S
C3642 C3643 1.349 . S
C3642 C3644 1.327 . S
C3642 H3667 0.950 . S
C3643 C3642 1.349 . S
C3643 C3659 1.349 . S
C3644 C3642 1.327 . S
C3644 C3663 1.429 . S
C3644 H3668 0.950 . S
C3645 C3662 1.574 . S
C3645 C3664 1.368 . S
C3645 H3669 0.949 . S
H3646 C3650 0.949 . S
C3647 C3648 1.349 . S
C3647 C3649 1.327 . S
C3647 H3670 0.950 . S
C3648 C3647 1.349 . S
C3648 C3660 1.349 . S
C3649 C3647 1.327 . S
C3649 C3665 1.429 . S
C3649 H3671 0.950 . S
C3650 H3646 0.949 . S
C3650 C3658 1.574 . S
C3650 C3666 1.368 . S
H3651 C3659 0.950 . S
H3652 C3657 0.950 . S
H3653 C3658 0.949 . S
H3654 C3660 0.950 . S
H3655 C3661 0.950 . S
H3656 C3662 0.949 . S
C3657 H3652 0.950 . S
C3657 C3659 1.327 . S
C3657 C3663 1.429 . S
C3658 C3650 1.574 . S
C3658 H3653 0.949 . S
C3658 C3664 1.368 . S
C3659 C3643 1.349 . S
C3659 H3651 0.950 . S
C3659 C3657 1.327 . S
C3660 C3648 1.349 . S
C3660 H3654 0.950 . S
C3660 C3661 1.327 . S
C3661 H3655 0.950 . S
C3661 C3660 1.327 . S
C3661 C3665 1.429 . S
C3662 C3645 1.574 . S
C3662 H3656 0.949 . S
C3662 C3666 1.368 . S
C3663 C3644 1.429 . S
C3663 C3657 1.429 . S
C3663 C3664 1.523 . S
C3664 C3645 1.368 . S
C3664 C3658 1.368 . S
C3664 C3663 1.523 . S
C3665 C3649 1.429 . S
C3665 C3661 1.429 . S
C3665 C3666 1.523 . S
C3666 C3650 1.368 . S
C3666 C3662 1.368 . S
C3666 C3665 1.523 . S
H3667 C3642 0.950 . S
H3668 C3644 0.950 . S
H3669 C3645 0.949 . S
H3670 C3647 0.950 . S
H3671 C3649 0.950 . S
C3672 C3673 1.349 . S
C3672 C3674 1.327 . S
C3672 H3697 0.950 . S
C3673 C3672 1.349 . S
C3673 C3689 1.349 . S
C3674 C3672 1.327 . S
C3674 C3693 1.429 . S
C3674 H3698 0.950 . S
C3675 C3692 1.574 . S
C3675 C3694 1.368 . S
C3675 H3699 0.949 . S
H3676 C3680 0.949 . S
C3677 C3678 1.349 . S
C3677 C3679 1.327 . S
C3677 H3700 0.950 . S
C3678 C3677 1.349 . S
C3678 C3690 1.349 . S
C3679 C3677 1.327 . S
C3679 C3695 1.429 . S
C3679 H3701 0.950 . S
C3680 H3676 0.949 . S
C3680 C3688 1.574 . S
C3680 C3696 1.368 . S
H3681 C3689 0.950 . S
H3682 C3687 0.950 . S
H3683 C3688 0.949 . S
H3684 C3690 0.950 . S
H3685 C3691 0.950 . S
H3686 C3692 0.949 . S
C3687 H3682 0.950 . S
C3687 C3689 1.327 . S
C3687 C3693 1.429 . S
C3688 C3680 1.574 . S
C3688 H3683 0.949 . S
C3688 C3694 1.368 . S
C3689 C3673 1.349 . S
C3689 H3681 0.950 . S
C3689 C3687 1.327 . S
C3690 C3678 1.349 . S
C3690 H3684 0.950 . S
C3690 C3691 1.327 . S
C3691 H3685 0.950 . S
C3691 C3690 1.327 . S
C3691 C3695 1.429 . S
C3692 C3675 1.574 . S
C3692 H3686 0.949 . S
C3692 C3696 1.368 . S
C3693 C3674 1.429 . S
C3693 C3687 1.429 . S
C3693 C3694 1.523 . S
C3694 C3675 1.368 . S
C3694 C3688 1.368 . S
C3694 C3693 1.523 . S
C3695 C3679 1.429 . S
C3695 C3691 1.429 . S
C3695 C3696 1.523 . S
C3696 C3680 1.368 . S
C3696 C3692 1.368 . S
C3696 C3695 1.523 . S
H3697 C3672 0.950 . S
H3698 C3674 0.950 . S
H3699 C3675 0.949 . S
H3700 C3677 0.950 . S
H3701 C3679 0.950 . S
C3702 C3703 1.349 . S
C3702 C3704 1.327 . S
C3702 H3727 0.950 . S
C3703 C3702 1.349 . S
C3703 C3719 1.349 . S
C3704 C3702 1.327 . S
C3704 C3723 1.429 . S
C3704 H3728 0.950 . S
C3705 C3722 1.574 . S
C3705 C3724 1.368 . S
C3705 H3729 0.949 . S
H3706 C3710 0.949 . S
C3707 C3708 1.349 . S
C3707 C3709 1.327 . S
C3707 H3730 0.950 . S
C3708 C3707 1.349 . S
C3708 C3720 1.349 . S
C3709 C3707 1.327 . S
C3709 C3725 1.429 . S
C3709 H3731 0.950 . S
C3710 H3706 0.949 . S
C3710 C3718 1.574 . S
C3710 C3726 1.368 . S
H3711 C3719 0.950 . S
H3712 C3717 0.950 . S
H3713 C3718 0.949 . S
H3714 C3720 0.950 . S
H3715 C3721 0.950 . S
H3716 C3722 0.949 . S
C3717 H3712 0.950 . S
C3717 C3719 1.327 . S
C3717 C3723 1.429 . S
C3718 C3710 1.574 . S
C3718 H3713 0.949 . S
C3718 C3724 1.368 . S
C3719 C3703 1.349 . S
C3719 H3711 0.950 . S
C3719 C3717 1.327 . S
C3720 C3708 1.349 . S
C3720 H3714 0.950 . S
C3720 C3721 1.327 . S
C3721 H3715 0.950 . S
C3721 C3720 1.327 . S
C3721 C3725 1.429 . S
C3722 C3705 1.574 . S
C3722 H3716 0.949 . S
C3722 C3726 1.368 . S
C3723 C3704 1.429 . S
C3723 C3717 1.429 . S
C3723 C3724 1.523 . S
C3724 C3705 1.368 . S
C3724 C3718 1.368 . S
C3724 C3723 1.523 . S
C3725 C3709 1.429 . S
C3725 C3721 1.429 . S
C3725 C3726 1.523 . S
C3726 C3710 1.368 . S
C3726 C3722 1.368 . S
C3726 C3725 1.523 . S
H3727 C3702 0.950 . S
H3728 C3704 0.950 . S
H3729 C3705 0.949 . S
H3730 C3707 0.950 . S
H3731 C3709 0.950 . S
C3732 C3733 1.349 . S
C3732 C3734 1.327 . S
C3732 H3757 0.950 . S
C3733 C3732 1.349 . S
C3733 C3749 1.349 . S
C3734 C3732 1.327 . S
C3734 C3753 1.429 . S
C3734 H3758 0.950 . S
C3735 C3752 1.574 . S
C3735 C3754 1.368 . S
C3735 H3759 0.949 . S
H3736 C3740 0.949 . S
C3737 C3738 1.349 . S
C3737 C3739 1.327 . S
C3737 H3760 0.950 . S
C3738 C3737 1.349 . S
C3738 C3750 1.349 . S
C3739 C3737 1.327 . S
C3739 C3755 1.429 . S
C3739 H3761 0.950 . S
C3740 H3736 0.949 . S
C3740 C3748 1.574 . S
C3740 C3756 1.368 . S
H3741 C3749 0.950 . S
H3742 C3747 0.950 . S
H3743 C3748 0.949 . S
H3744 C3750 0.950 . S
H3745 C3751 0.950 . S
H3746 C3752 0.949 . S
C3747 H3742 0.950 . S
C3747 C3749 1.327 . S
C3747 C3753 1.429 . S
C3748 C3740 1.574 . S
C3748 H3743 0.949 . S
C3748 C3754 1.368 . S
C3749 C3733 1.349 . S
C3749 H3741 0.950 . S
C3749 C3747 1.327 . S
C3750 C3738 1.349 . S
C3750 H3744 0.950 . S
C3750 C3751 1.327 . S
C3751 H3745 0.950 . S
C3751 C3750 1.327 . S
C3751 C3755 1.429 . S
C3752 C3735 1.574 . S
C3752 H3746 0.949 . S
C3752 C3756 1.368 . S
C3753 C3734 1.429 . S
C3753 C3747 1.429 . S
C3753 C3754 1.523 . S
C3754 C3735 1.368 . S
C3754 C3748 1.368 . S
C3754 C3753 1.523 . S
C3755 C3739 1.429 . S
C3755 C3751 1.429 . S
C3755 C3756 1.523 . S
C3756 C3740 1.368 . S
C3756 C3752 1.368 . S
C3756 C3755 1.523 . S
H3757 C3732 0.950 . S
H3758 C3734 0.950 . S
H3759 C3735 0.949 . S
H3760 C3737 0.950 . S
H3761 C3739 0.950 . S
C3762 C3763 1.349 . S
C3762 C3764 1.327 . S
C3762 H3787 0.950 . S
C3763 C3762 1.349 . S
C3763 C3779 1.349 . S
C3764 C3762 1.327 . S
C3764 C3783 1.429 . S
C3764 H3788 0.950 . S
C3765 C3782 1.574 . S
C3765 C3784 1.368 . S
C3765 H3789 0.949 . S
H3766 C3770 0.949 . S
C3767 C3768 1.349 . S
C3767 C3769 1.327 . S
C3767 H3790 0.950 . S
C3768 C3767 1.349 . S
C3768 C3780 1.349 . S
C3769 C3767 1.327 . S
C3769 C3785 1.429 . S
C3769 H3791 0.950 . S
C3770 H3766 0.949 . S
C3770 C3778 1.574 . S
C3770 C3786 1.368 . S
H3771 C3779 0.950 . S
H3772 C3777 0.950 . S
H3773 C3778 0.949 . S
H3774 C3780 0.950 . S
H3775 C3781 0.950 . S
H3776 C3782 0.949 . S
C3777 H3772 0.950 . S
C3777 C3779 1.327 . S
C3777 C3783 1.429 . S
C3778 C3770 1.574 . S
C3778 H3773 0.949 . S
C3778 C3784 1.368 . S
C3779 C3763 1.349 . S
C3779 H3771 0.950 . S
C3779 C3777 1.327 . S
C3780 C3768 1.349 . S
C3780 H3774 0.950 . S
C3780 C3781 1.327 . S
C3781 H3775 0.950 . S
C3781 C3780 1.327 . S
C3781 C3785 1.429 . S
C3782 C3765 1.574 . S
C3782 H3776 0.949 . S
C3782 C3786 1.368 . S
C3783 C3764 1.429 . S
C3783 C3777 1.429 . S
C3783 C3784 1.523 . S
C3784 C3765 1.368 . S
C3784 C3778 1.368 . S
C3784 C3783 1.523 . S
C3785 C3769 1.429 . S
C3785 C3781 1.429 . S
C3785 C3786 1.523 . S
C3786 C3770 1.368 . S
C3786 C3782 1.368 . S
C3786 C3785 1.523 . S
H3787 C3762 0.950 . S
H3788 C3764 0.950 . S
H3789 C3765 0.949 . S
H3790 C3767 0.950 . S
H3791 C3769 0.950 . S
C3792 C3793 1.349 . S
C3792 C3794 1.327 . S
C3792 H3817 0.950 . S
C3793 C3792 1.349 . S
C3793 C3809 1.349 . S
C3794 C3792 1.327 . S
C3794 C3813 1.429 . S
C3794 H3818 0.950 . S
C3795 C3812 1.574 . S
C3795 C3814 1.368 . S
C3795 H3819 0.949 . S
H3796 C3800 0.949 . S
C3797 C3798 1.349 . S
C3797 C3799 1.327 . S
C3797 H3820 0.950 . S
C3798 C3797 1.349 . S
C3798 C3810 1.349 . S
C3799 C3797 1.327 . S
C3799 C3815 1.429 . S
C3799 H3821 0.950 . S
C3800 H3796 0.949 . S
C3800 C3808 1.574 . S
C3800 C3816 1.368 . S
H3801 C3809 0.950 . S
H3802 C3807 0.950 . S
H3803 C3808 0.949 . S
H3804 C3810 0.950 . S
H3805 C3811 0.950 . S
H3806 C3812 0.949 . S
C3807 H3802 0.950 . S
C3807 C3809 1.327 . S
C3807 C3813 1.429 . S
C3808 C3800 1.574 . S
C3808 H3803 0.949 . S
C3808 C3814 1.368 . S
C3809 C3793 1.349 . S
C3809 H3801 0.950 . S
C3809 C3807 1.327 . S
C3810 C3798 1.349 . S
C3810 H3804 0.950 . S
C3810 C3811 1.327 . S
C3811 H3805 0.950 . S
C3811 C3810 1.327 . S
C3811 C3815 1.429 . S
C3812 C3795 1.574 . S
C3812 H3806 0.949 . S
C3812 C3816 1.368 . S
C3813 C3794 1.429 . S
C3813 C3807 1.429 . S
C3813 C3814 1.523 . S
C3814 C3795 1.368 . S
C3814 C3808 1.368 . S
C3814 C3813 1.523 . S
C3815 C3799 1.429 . S
C3815 C3811 1.429 . S
C3815 C3816 1.523 . S
C3816 C3800 1.368 . S
C3816 C3812 1.368 . S
C3816 C3815 1.523 . S
H3817 C3792 0.950 . S
H3818 C3794 0.950 . S
H3819 C3795 0.949 . S
H3820 C3797 0.950 . S
H3821 C3799 0.950 . S
C3822 C3823 1.349 . S
C3822 C3824 1.327 . S
C3822 H3847 0.950 . S
C3823 C3822 1.349 . S
C3823 C3839 1.349 . S
C3824 C3822 1.327 . S
C3824 C3843 1.429 . S
C3824 H3848 0.950 . S
C3825 C3842 1.574 . S
C3825 C3844 1.368 1_545 S
C3825 H3849 0.968 . S
H3826 C3830 0.949 . S
C3827 C3828 1.349 . S
C3827 C3829 1.327 . S
C3827 H3850 0.950 . S
C3828 C3827 1.349 . S
C3828 C3840 1.349 . S
C3829 C3827 1.327 . S
C3829 C3845 1.429 . S
C3829 H3851 0.950 . S
C3830 H3826 0.949 . S
C3830 C3838 1.574 1_545 S
C3830 C3846 1.368 . S
H3831 C3839 0.950 . S
H3832 C3837 0.950 . S
H3833 C3838 0.949 . S
H3834 C3840 0.950 . S
H3835 C3841 0.950 . S
H3836 C3842 0.949 . S
C3837 H3832 0.950 . S
C3837 C3839 1.327 . S
C3837 C3843 1.429 . S
C3838 C3830 1.574 1_565 S
C3838 H3833 0.949 . S
C3838 C3844 1.368 . S
C3839 C3823 1.349 . S
C3839 H3831 0.950 . S
C3839 C3837 1.327 . S
C3840 C3828 1.349 . S
C3840 H3834 0.950 . S
C3840 C3841 1.327 . S
C3841 H3835 0.950 . S
C3841 C3840 1.327 . S
C3841 C3845 1.429 . S
C3842 C3825 1.574 . S
C3842 H3836 0.949 . S
C3842 C3846 1.368 . S
C3843 C3824 1.429 . S
C3843 C3837 1.429 . S
C3843 C3844 1.523 . S
C3844 C3825 1.368 1_565 S
C3844 C3838 1.368 . S
C3844 C3843 1.523 . S
C3845 C3829 1.429 . S
C3845 C3841 1.429 . S
C3845 C3846 1.523 . S
C3846 C3830 1.368 . S
C3846 C3842 1.368 . S
C3846 C3845 1.523 . S
H3847 C3822 0.950 . S
H3848 C3824 0.950 . S
H3849 C3825 0.968 . S
H3850 C3827 0.950 . S
H3851 C3829 0.950 . S
C3852 C3853 1.349 . S
C3852 C3854 1.327 . S
C3852 H3877 0.950 . S
C3853 C3852 1.349 . S
C3853 C3869 1.349 . S
C3854 C3852 1.327 . S
C3854 C3873 1.429 . S
C3854 H3878 0.950 . S
C3855 C3872 1.574 . S
C3855 C3874 1.368 . S
C3855 H3879 0.949 . S
H3856 C3860 0.949 . S
C3857 C3858 1.349 . S
C3857 C3859 1.327 . S
C3857 H3880 0.950 . S
C3858 C3857 1.349 . S
C3858 C3870 1.349 . S
C3859 C3857 1.327 . S
C3859 C3875 1.429 . S
C3859 H3881 0.950 . S
C3860 H3856 0.949 . S
C3860 C3868 1.574 . S
C3860 C3876 1.368 . S
H3861 C3869 0.950 . S
H3862 C3867 0.950 . S
H3863 C3868 0.949 . S
H3864 C3870 0.950 . S
H3865 C3871 0.950 . S
H3866 C3872 0.949 . S
C3867 H3862 0.950 . S
C3867 C3869 1.327 . S
C3867 C3873 1.429 . S
C3868 C3860 1.574 . S
C3868 H3863 0.949 . S
C3868 C3874 1.368 . S
C3869 C3853 1.349 . S
C3869 H3861 0.950 . S
C3869 C3867 1.327 . S
C3870 C3858 1.349 . S
C3870 H3864 0.950 . S
C3870 C3871 1.327 . S
C3871 H3865 0.950 . S
C3871 C3870 1.327 . S
C3871 C3875 1.429 . S
C3872 C3855 1.574 . S
C3872 H3866 0.949 . S
C3872 C3876 1.368 . S
C3873 C3854 1.429 . S
C3873 C3867 1.429 . S
C3873 C3874 1.523 . S
C3874 C3855 1.368 . S
C3874 C3868 1.368 . S
C3874 C3873 1.523 . S
C3875 C3859 1.429 . S
C3875 C3871 1.429 . S
C3875 C3876 1.523 . S
C3876 C3860 1.368 . S
C3876 C3872 1.368 . S
C3876 C3875 1.523 . S
H3877 C3852 0.950 . S
H3878 C3854 0.950 . S
H3879 C3855 0.949 . S
H3880 C3857 0.950 . S
H3881 C3859 0.950 . S
C3882 C3883 1.349 . S
C3882 C3884 1.327 . S
C3882 H3907 0.950 . S
C3883 C3882 1.349 . S
C3883 C3899 1.349 . S
C3884 C3882 1.327 . S
C3884 C3903 1.429 . S
C3884 H3908 0.950 . S
C3885 C3902 1.574 . S
C3885 C3904 1.368 . S
C3885 H3909 0.949 . S
H3886 C3890 0.949 . S
C3887 C3888 1.349 . S
C3887 C3889 1.327 . S
C3887 H3910 0.950 . S
C3888 C3887 1.349 . S
C3888 C3900 1.349 . S
C3889 C3887 1.327 . S
C3889 C3905 1.429 . S
C3889 H3911 0.950 . S
C3890 H3886 0.949 . S
C3890 C3898 1.574 . S
C3890 C3906 1.368 . S
H3891 C3899 0.950 . S
H3892 C3897 0.950 . S
H3893 C3898 0.949 . S
H3894 C3900 0.950 . S
H3895 C3901 0.950 . S
H3896 C3902 0.949 . S
C3897 H3892 0.950 . S
C3897 C3899 1.327 . S
C3897 C3903 1.429 . S
C3898 C3890 1.574 . S
C3898 H3893 0.949 . S
C3898 C3904 1.368 . S
C3899 C3883 1.349 . S
C3899 H3891 0.950 . S
C3899 C3897 1.327 . S
C3900 C3888 1.349 . S
C3900 H3894 0.950 . S
C3900 C3901 1.327 . S
C3901 H3895 0.950 . S
C3901 C3900 1.327 . S
C3901 C3905 1.429 . S
C3902 C3885 1.574 . S
C3902 H3896 0.949 . S
C3902 C3906 1.368 . S
C3903 C3884 1.429 . S
C3903 C3897 1.429 . S
C3903 C3904 1.523 . S
C3904 C3885 1.368 . S
C3904 C3898 1.368 . S
C3904 C3903 1.523 . S
C3905 C3889 1.429 . S
C3905 C3901 1.429 . S
C3905 C3906 1.523 . S
C3906 C3890 1.368 . S
C3906 C3902 1.368 . S
C3906 C3905 1.523 . S
H3907 C3882 0.950 . S
H3908 C3884 0.950 . S
H3909 C3885 0.949 . S
H3910 C3887 0.950 . S
H3911 C3889 0.950 . S
C3912 C3913 1.349 . S
C3912 C3914 1.327 . S
C3912 H3937 0.950 . S
C3913 C3912 1.349 . S
C3913 C3929 1.349 . S
C3914 C3912 1.327 . S
C3914 C3933 1.429 . S
C3914 H3938 0.950 . S
C3915 C3932 1.574 . S
C3915 C3934 1.368 . S
C3915 H3939 0.949 . S
H3916 C3920 0.949 . S
C3917 C3918 1.349 . S
C3917 C3919 1.327 . S
C3917 H3940 0.950 . S
C3918 C3917 1.349 . S
C3918 C3930 1.349 . S
C3919 C3917 1.327 . S
C3919 C3935 1.429 . S
C3919 H3941 0.950 . S
C3920 H3916 0.949 . S
C3920 C3928 1.574 . S
C3920 C3936 1.368 . S
H3921 C3929 0.950 . S
H3922 C3927 0.950 . S
H3923 C3928 0.949 . S
H3924 C3930 0.950 . S
H3925 C3931 0.950 . S
H3926 C3932 0.949 . S
C3927 H3922 0.950 . S
C3927 C3929 1.327 . S
C3927 C3933 1.429 . S
C3928 C3920 1.574 . S
C3928 H3923 0.949 . S
C3928 C3934 1.368 . S
C3929 C3913 1.349 . S
C3929 H3921 0.950 . S
C3929 C3927 1.327 . S
C3930 C3918 1.349 . S
C3930 H3924 0.950 . S
C3930 C3931 1.327 . S
C3931 H3925 0.950 . S
C3931 C3930 1.327 . S
C3931 C3935 1.429 . S
C3932 C3915 1.574 . S
C3932 H3926 0.949 . S
C3932 C3936 1.368 . S
C3933 C3914 1.429 . S
C3933 C3927 1.429 . S
C3933 C3934 1.523 . S
C3934 C3915 1.368 . S
C3934 C3928 1.368 . S
C3934 C3933 1.523 . S
C3935 C3919 1.429 . S
C3935 C3931 1.429 . S
C3935 C3936 1.523 . S
C3936 C3920 1.368 . S
C3936 C3932 1.368 . S
C3936 C3935 1.523 . S
H3937 C3912 0.950 . S
H3938 C3914 0.950 . S
H3939 C3915 0.949 . S
H3940 C3917 0.950 . S
H3941 C3919 0.950 . S
C3942 C3943 1.349 . S
C3942 C3944 1.327 . S
C3942 H3967 0.950 . S
C3943 C3942 1.349 . S
C3943 C3959 1.349 . S
C3944 C3942 1.327 . S
C3944 C3963 1.429 . S
C3944 H3968 0.950 . S
C3945 C3962 1.574 . S
C3945 C3964 1.368 1_545 S
C3945 H3969 0.967 . S
H3946 C3950 0.949 . S
C3947 C3948 1.349 . S
C3947 C3949 1.327 . S
C3947 H3970 0.950 . S
C3948 C3947 1.349 . S
C3948 C3960 1.349 . S
C3949 C3947 1.327 . S
C3949 C3965 1.429 . S
C3949 H3971 0.950 . S
C3950 H3946 0.949 . S
C3950 C3958 1.574 1_545 S
C3950 C3966 1.368 . S
H3951 C3959 0.950 . S
H3952 C3957 0.950 . S
H3953 C3958 0.949 . S
H3954 C3960 0.950 . S
H3955 C3961 0.950 . S
H3956 C3962 0.949 . S
C3957 H3952 0.950 . S
C3957 C3959 1.327 . S
C3957 C3963 1.429 . S
C3958 C3950 1.574 1_565 S
C3958 H3953 0.949 . S
C3958 C3964 1.368 . S
C3959 C3943 1.349 . S
C3959 H3951 0.950 . S
C3959 C3957 1.327 . S
C3960 C3948 1.349 . S
C3960 H3954 0.950 . S
C3960 C3961 1.327 . S
C3961 H3955 0.950 . S
C3961 C3960 1.327 . S
C3961 C3965 1.429 . S
C3962 C3945 1.574 . S
C3962 H3956 0.949 . S
C3962 C3966 1.368 . S
C3963 C3944 1.429 . S
C3963 C3957 1.429 . S
C3963 C3964 1.523 . S
C3964 C3945 1.368 1_565 S
C3964 C3958 1.368 . S
C3964 C3963 1.523 . S
C3965 C3949 1.429 . S
C3965 C3961 1.429 . S
C3965 C3966 1.523 . S
C3966 C3950 1.368 . S
C3966 C3962 1.368 . S
C3966 C3965 1.523 . S
H3967 C3942 0.950 . S
H3968 C3944 0.950 . S
H3969 C3945 0.967 . S
H3970 C3947 0.950 . S
H3971 C3949 0.950 . S
C3972 C3973 1.349 . S
C3972 C3974 1.327 . S
C3972 H3997 0.950 . S
C3973 C3972 1.349 . S
C3973 C3989 1.349 . S
C3974 C3972 1.327 . S
C3974 C3993 1.429 . S
C3974 H3998 0.950 . S
C3975 C3992 1.574 . S
C3975 C3994 1.368 . S
C3975 H3999 0.949 . S
H3976 C3980 0.949 . S
C3977 C3978 1.349 . S
C3977 C3979 1.327 . S
C3977 H4000 0.950 . S
C3978 C3977 1.349 . S
C3978 C3990 1.349 . S
C3979 C3977 1.327 . S
C3979 C3995 1.429 . S
C3979 H4001 0.950 . S
C3980 H3976 0.949 . S
C3980 C3988 1.574 . S
C3980 C3996 1.368 . S
H3981 C3989 0.950 . S
H3982 C3987 0.950 . S
H3983 C3988 0.949 . S
H3984 C3990 0.950 . S
H3985 C3991 0.950 . S
H3986 C3992 0.949 . S
C3987 H3982 0.950 . S
C3987 C3989 1.327 . S
C3987 C3993 1.429 . S
C3988 C3980 1.574 . S
C3988 H3983 0.949 . S
C3988 C3994 1.368 . S
C3989 C3973 1.349 . S
C3989 H3981 0.950 . S
C3989 C3987 1.327 . S
C3990 C3978 1.349 . S
C3990 H3984 0.950 . S
C3990 C3991 1.327 . S
C3991 H3985 0.950 . S
C3991 C3990 1.327 . S
C3991 C3995 1.429 . S
C3992 C3975 1.574 . S
C3992 H3986 0.949 . S
C3992 C3996 1.368 . S
C3993 C3974 1.429 . S
C3993 C3987 1.429 . S
C3993 C3994 1.523 . S
C3994 C3975 1.368 . S
C3994 C3988 1.368 . S
C3994 C3993 1.523 . S
C3995 C3979 1.429 . S
C3995 C3991 1.429 . S
C3995 C3996 1.523 . S
C3996 C3980 1.368 . S
C3996 C3992 1.368 . S
C3996 C3995 1.523 . S
H3997 C3972 0.950 . S
H3998 C3974 0.950 . S
H3999 C3975 0.949 . S
H4000 C3977 0.950 . S
H4001 C3979 0.950 . S
C4002 C4003 1.349 . S
C4002 C4004 1.327 . S
C4002 H4027 0.950 . S
C4003 C4002 1.349 . S
C4003 C4019 1.349 . S
C4004 C4002 1.327 . S
C4004 C4023 1.429 . S
C4004 H4028 0.950 . S
C4005 C4022 1.574 . S
C4005 C4024 1.368 . S
C4005 H4029 0.949 . S
H4006 C4010 0.949 . S
C4007 C4008 1.349 . S
C4007 C4009 1.327 . S
C4007 H4030 0.950 . S
C4008 C4007 1.349 . S
C4008 C4020 1.349 . S
C4009 C4007 1.327 . S
C4009 C4025 1.429 . S
C4009 H4031 0.950 . S
C4010 H4006 0.949 . S
C4010 C4018 1.574 . S
C4010 C4026 1.368 . S
H4011 C4019 0.950 . S
H4012 C4017 0.950 . S
H4013 C4018 0.949 . S
H4014 C4020 0.950 . S
H4015 C4021 0.950 . S
H4016 C4022 0.949 . S
C4017 H4012 0.950 . S
C4017 C4019 1.327 . S
C4017 C4023 1.429 . S
C4018 C4010 1.574 . S
C4018 H4013 0.949 . S
C4018 C4024 1.368 . S
C4019 C4003 1.349 . S
C4019 H4011 0.950 . S
C4019 C4017 1.327 . S
C4020 C4008 1.349 . S
C4020 H4014 0.950 . S
C4020 C4021 1.327 . S
C4021 H4015 0.950 . S
C4021 C4020 1.327 . S
C4021 C4025 1.429 . S
C4022 C4005 1.574 . S
C4022 H4016 0.949 . S
C4022 C4026 1.368 . S
C4023 C4004 1.429 . S
C4023 C4017 1.429 . S
C4023 C4024 1.523 . S
C4024 C4005 1.368 . S
C4024 C4018 1.368 . S
C4024 C4023 1.523 . S
C4025 C4009 1.429 . S
C4025 C4021 1.429 . S
C4025 C4026 1.523 . S
C4026 C4010 1.368 . S
C4026 C4022 1.368 . S
C4026 C4025 1.523 . S
H4027 C4002 0.950 . S
H4028 C4004 0.950 . S
H4029 C4005 0.949 . S
H4030 C4007 0.950 . S
H4031 C4009 0.950 . S
C4032 C4033 1.349 . S
C4032 C4034 1.327 . S
C4032 H4057 0.950 . S
C4033 C4032 1.349 . S
C4033 C4049 1.349 . S
C4034 C4032 1.327 . S
C4034 C4053 1.429 . S
C4034 H4058 0.950 . S
C4035 C4052 1.574 . S
C4035 C4054 1.368 . S
C4035 H4059 0.949 . S
H4036 C4040 0.949 . S
C4037 C4038 1.349 . S
C4037 C4039 1.327 . S
C4037 H4060 0.950 . S
C4038 C4037 1.349 . S
C4038 C4050 1.349 . S
C4039 C4037 1.327 . S
C4039 C4055 1.429 . S
C4039 H4061 0.950 . S
C4040 H4036 0.949 . S
C4040 C4048 1.574 . S
C4040 C4056 1.368 . S
H4041 C4049 0.950 . S
H4042 C4047 0.950 . S
H4043 C4048 0.949 . S
H4044 C4050 0.950 . S
H4045 C4051 0.950 . S
H4046 C4052 0.949 . S
C4047 H4042 0.950 . S
C4047 C4049 1.327 . S
C4047 C4053 1.429 . S
C4048 C4040 1.574 . S
C4048 H4043 0.949 . S
C4048 C4054 1.368 . S
C4049 C4033 1.349 . S
C4049 H4041 0.950 . S
C4049 C4047 1.327 . S
C4050 C4038 1.349 . S
C4050 H4044 0.950 . S
C4050 C4051 1.327 . S
C4051 H4045 0.950 . S
C4051 C4050 1.327 . S
C4051 C4055 1.429 . S
C4052 C4035 1.574 . S
C4052 H4046 0.949 . S
C4052 C4056 1.368 . S
C4053 C4034 1.429 . S
C4053 C4047 1.429 . S
C4053 C4054 1.523 . S
C4054 C4035 1.368 . S
C4054 C4048 1.368 . S
C4054 C4053 1.523 . S
C4055 C4039 1.429 . S
C4055 C4051 1.429 . S
C4055 C4056 1.523 . S
C4056 C4040 1.368 . S
C4056 C4052 1.368 . S
C4056 C4055 1.523 . S
H4057 C4032 0.950 . S
H4058 C4034 0.950 . S
H4059 C4035 0.949 . S
H4060 C4037 0.950 . S
H4061 C4039 0.950 . S
C4062 C4063 1.349 . S
C4062 C4064 1.327 . S
C4062 H4087 0.950 . S
C4063 C4062 1.349 . S
C4063 C4079 1.349 . S
C4064 C4062 1.327 . S
C4064 C4083 1.429 . S
C4064 H4088 0.950 . S
C4065 C4082 1.574 . S
C4065 C4084 1.368 1_655 S
C4065 H4089 0.949 . S
H4066 C4070 0.949 . S
C4067 C4068 1.349 . S
C4067 C4069 1.327 . S
C4067 H4090 0.950 . S
C4068 C4067 1.349 . S
C4068 C4080 1.349 . S
C4069 C4067 1.327 . S
C4069 C4085 1.429 . S
C4069 H4091 0.950 . S
C4070 H4066 0.949 . S
C4070 C4078 1.574 1_655 S
C4070 C4086 1.368 . S
H4071 C4079 0.950 . S
H4072 C4077 0.950 . S
H4073 C4078 0.949 . S
H4074 C4080 0.950 . S
H4075 C4081 0.950 . S
H4076 C4082 0.949 . S
C4077 H4072 0.950 . S
C4077 C4079 1.327 . S
C4077 C4083 1.429 . S
C4078 C4070 1.574 1_455 S
C4078 H4073 0.949 . S
C4078 C4084 1.368 . S
C4079 C4063 1.349 . S
C4079 H4071 0.950 . S
C4079 C4077 1.327 . S
C4080 C4068 1.349 . S
C4080 H4074 0.950 . S
C4080 C4081 1.327 . S
C4081 H4075 0.950 . S
C4081 C4080 1.327 . S
C4081 C4085 1.429 . S
C4082 C4065 1.574 . S
C4082 H4076 0.949 . S
C4082 C4086 1.368 . S
C4083 C4064 1.429 . S
C4083 C4077 1.429 . S
C4083 C4084 1.523 . S
C4084 C4065 1.368 1_455 S
C4084 C4078 1.368 . S
C4084 C4083 1.523 . S
C4085 C4069 1.429 . S
C4085 C4081 1.429 . S
C4085 C4086 1.523 . S
C4086 C4070 1.368 . S
C4086 C4082 1.368 . S
C4086 C4085 1.523 . S
H4087 C4062 0.950 . S
H4088 C4064 0.950 . S
H4089 C4065 0.949 . S
H4090 C4067 0.950 . S
H4091 C4069 0.950 . S
C4092 C4093 1.349 . S
C4092 C4094 1.327 . S
C4092 H4117 0.950 . S
C4093 C4092 1.349 . S
C4093 C4109 1.349 . S
C4094 C4092 1.327 . S
C4094 C4113 1.429 . S
C4094 H4118 0.950 . S
C4095 C4112 1.574 . S
C4095 C4114 1.368 . S
C4095 H4119 0.949 . S
H4096 C4100 0.949 . S
C4097 C4098 1.349 . S
C4097 C4099 1.327 . S
C4097 H4120 0.950 . S
C4098 C4097 1.349 . S
C4098 C4110 1.349 . S
C4099 C4097 1.327 . S
C4099 C4115 1.429 . S
C4099 H4121 0.950 . S
C4100 H4096 0.949 . S
C4100 C4108 1.574 . S
C4100 C4116 1.368 . S
H4101 C4109 0.950 . S
H4102 C4107 0.950 . S
H4103 C4108 0.949 . S
H4104 C4110 0.950 . S
H4105 C4111 0.950 . S
H4106 C4112 0.949 . S
C4107 H4102 0.950 . S
C4107 C4109 1.327 . S
C4107 C4113 1.429 . S
C4108 C4100 1.574 . S
C4108 H4103 0.949 . S
C4108 C4114 1.368 . S
C4109 C4093 1.349 . S
C4109 H4101 0.950 . S
C4109 C4107 1.327 . S
C4110 C4098 1.349 . S
C4110 H4104 0.950 . S
C4110 C4111 1.327 . S
C4111 H4105 0.950 . S
C4111 C4110 1.327 . S
C4111 C4115 1.429 . S
C4112 C4095 1.574 . S
C4112 H4106 0.949 . S
C4112 C4116 1.368 . S
C4113 C4094 1.429 . S
C4113 C4107 1.429 . S
C4113 C4114 1.523 . S
C4114 C4095 1.368 . S
C4114 C4108 1.368 . S
C4114 C4113 1.523 . S
C4115 C4099 1.429 . S
C4115 C4111 1.429 . S
C4115 C4116 1.523 . S
C4116 C4100 1.368 . S
C4116 C4112 1.368 . S
C4116 C4115 1.523 . S
H4117 C4092 0.950 . S
H4118 C4094 0.950 . S
H4119 C4095 0.949 . S
H4120 C4097 0.950 . S
H4121 C4099 0.950 . S
C4122 C4123 1.349 . S
C4122 C4124 1.327 . S
C4122 H4147 0.950 . S
C4123 C4122 1.349 . S
C4123 C4139 1.349 . S
C4124 C4122 1.327 . S
C4124 C4143 1.429 . S
C4124 H4148 0.950 . S
C4125 C4142 1.574 1_455 S
C4125 C4144 1.368 . S
C4125 H4149 0.949 . S
H4126 C4130 0.949 . S
C4127 C4128 1.349 . S
C4127 C4129 1.327 . S
C4127 H4150 0.950 . S
C4128 C4127 1.349 . S
C4128 C4140 1.349 . S
C4129 C4127 1.327 . S
C4129 C4145 1.429 . S
C4129 H4151 0.950 . S
C4130 H4126 0.949 . S
C4130 C4138 1.574 . S
C4130 C4146 1.368 1_455 S
H4131 C4139 0.950 . S
H4132 C4137 0.950 . S
H4133 C4138 0.949 . S
H4134 C4140 0.950 . S
H4135 C4141 0.950 . S
H4136 C4142 0.949 . S
C4137 H4132 0.950 . S
C4137 C4139 1.327 . S
C4137 C4143 1.429 . S
C4138 C4130 1.574 . S
C4138 H4133 0.949 . S
C4138 C4144 1.368 . S
C4139 C4123 1.349 . S
C4139 H4131 0.950 . S
C4139 C4137 1.327 . S
C4140 C4128 1.349 . S
C4140 H4134 0.950 . S
C4140 C4141 1.327 . S
C4141 H4135 0.950 . S
C4141 C4140 1.327 . S
C4141 C4145 1.429 . S
C4142 C4125 1.574 1_655 S
C4142 H4136 0.949 . S
C4142 C4146 1.368 . S
C4143 C4124 1.429 . S
C4143 C4137 1.429 . S
C4143 C4144 1.523 . S
C4144 C4125 1.368 . S
C4144 C4138 1.368 . S
C4144 C4143 1.523 . S
C4145 C4129 1.429 . S
C4145 C4141 1.429 . S
C4145 C4146 1.523 . S
C4146 C4130 1.368 1_655 S
C4146 C4142 1.368 . S
C4146 C4145 1.523 . S
H4147 C4122 0.950 . S
H4148 C4124 0.950 . S
H4149 C4125 0.949 . S
H4150 C4127 0.950 . S
H4151 C4129 0.950 . S
C4152 C4153 1.349 . S
C4152 C4154 1.327 . S
C4152 H4177 0.950 . S
C4153 C4152 1.349 . S
C4153 C4169 1.349 . S
C4154 C4152 1.327 . S
C4154 C4173 1.429 . S
C4154 H4178 0.950 . S
C4155 C4172 1.574 . S
C4155 C4174 1.368 . S
C4155 H4179 0.949 . S
H4156 C4160 0.949 . S
C4157 C4158 1.349 . S
C4157 C4159 1.327 . S
C4157 H4180 0.950 . S
C4158 C4157 1.349 . S
C4158 C4170 1.349 . S
C4159 C4157 1.327 . S
C4159 C4175 1.429 . S
C4159 H4181 0.950 . S
C4160 H4156 0.949 . S
C4160 C4168 1.574 . S
C4160 C4176 1.368 . S
H4161 C4169 0.950 . S
H4162 C4167 0.950 . S
H4163 C4168 0.949 . S
H4164 C4170 0.950 . S
H4165 C4171 0.950 . S
H4166 C4172 0.949 . S
C4167 H4162 0.950 . S
C4167 C4169 1.327 . S
C4167 C4173 1.429 . S
C4168 C4160 1.574 . S
C4168 H4163 0.949 . S
C4168 C4174 1.368 . S
C4169 C4153 1.349 . S
C4169 H4161 0.950 . S
C4169 C4167 1.327 . S
C4170 C4158 1.349 . S
C4170 H4164 0.950 . S
C4170 C4171 1.327 . S
C4171 H4165 0.950 . S
C4171 C4170 1.327 . S
C4171 C4175 1.429 . S
C4172 C4155 1.574 . S
C4172 H4166 0.949 . S
C4172 C4176 1.368 . S
C4173 C4154 1.429 . S
C4173 C4167 1.429 . S
C4173 C4174 1.523 . S
C4174 C4155 1.368 . S
C4174 C4168 1.368 . S
C4174 C4173 1.523 . S
C4175 C4159 1.429 . S
C4175 C4171 1.429 . S
C4175 C4176 1.523 . S
C4176 C4160 1.368 . S
C4176 C4172 1.368 . S
C4176 C4175 1.523 . S
H4177 C4152 0.950 . S
H4178 C4154 0.950 . S
H4179 C4155 0.949 . S
H4180 C4157 0.950 . S
H4181 C4159 0.950 . S
C4182 C4183 1.349 . S
C4182 C4184 1.327 . S
C4182 H4207 0.950 . S
C4183 C4182 1.349 . S
C4183 C4199 1.349 . S
C4184 C4182 1.327 . S
C4184 C4203 1.429 . S
C4184 H4208 0.950 . S
C4185 C4202 1.574 . S
C4185 C4204 1.368 . S
C4185 H4209 0.949 . S
H4186 C4190 0.949 . S
C4187 C4188 1.349 . S
C4187 C4189 1.327 . S
C4187 H4210 0.950 . S
C4188 C4187 1.349 . S
C4188 C4200 1.349 . S
C4189 C4187 1.327 . S
C4189 C4205 1.429 . S
C4189 H4211 0.950 . S
C4190 H4186 0.949 . S
C4190 C4198 1.574 . S
C4190 C4206 1.368 . S
H4191 C4199 0.950 . S
H4192 C4197 0.950 . S
H4193 C4198 0.949 . S
H4194 C4200 0.950 . S
H4195 C4201 0.950 . S
H4196 C4202 0.949 . S
C4197 H4192 0.950 . S
C4197 C4199 1.327 . S
C4197 C4203 1.429 . S
C4198 C4190 1.574 . S
C4198 H4193 0.949 . S
C4198 C4204 1.368 . S
C4199 C4183 1.349 . S
C4199 H4191 0.950 . S
C4199 C4197 1.327 . S
C4200 C4188 1.349 . S
C4200 H4194 0.950 . S
C4200 C4201 1.327 . S
C4201 H4195 0.950 . S
C4201 C4200 1.327 . S
C4201 C4205 1.429 . S
C4202 C4185 1.574 . S
C4202 H4196 0.949 . S
C4202 C4206 1.368 . S
C4203 C4184 1.429 . S
C4203 C4197 1.429 . S
C4203 C4204 1.523 . S
C4204 C4185 1.368 . S
C4204 C4198 1.368 . S
C4204 C4203 1.523 . S
C4205 C4189 1.429 . S
C4205 C4201 1.429 . S
C4205 C4206 1.523 . S
C4206 C4190 1.368 . S
C4206 C4202 1.368 . S
C4206 C4205 1.523 . S
H4207 C4182 0.950 . S
H4208 C4184 0.950 . S
H4209 C4185 0.949 . S
H4210 C4187 0.950 . S
H4211 C4189 0.950 . S
C4212 C4213 1.349 . S
C4212 C4214 1.327 . S
C4212 H4237 0.950 . S
C4213 C4212 1.349 . S
C4213 C4229 1.349 . S
C4214 C4212 1.327 . S
C4214 C4233 1.429 . S
C4214 H4238 0.950 . S
C4215 C4232 1.574 . S
C4215 C4234 1.368 . S
C4215 H4239 0.949 . S
H4216 C4220 0.949 . S
C4217 C4218 1.349 . S
C4217 C4219 1.327 . S
C4217 H4240 0.950 . S
C4218 C4217 1.349 . S
C4218 C4230 1.349 . S
C4219 C4217 1.327 . S
C4219 C4235 1.429 . S
C4219 H4241 0.950 . S
C4220 H4216 0.949 . S
C4220 C4228 1.574 . S
C4220 C4236 1.368 . S
H4221 C4229 0.950 . S
H4222 C4227 0.950 . S
H4223 C4228 0.949 . S
H4224 C4230 0.950 . S
H4225 C4231 0.950 . S
H4226 C4232 0.949 . S
C4227 H4222 0.950 . S
C4227 C4229 1.327 . S
C4227 C4233 1.429 . S
C4228 C4220 1.574 . S
C4228 H4223 0.949 . S
C4228 C4234 1.368 . S
C4229 C4213 1.349 . S
C4229 H4221 0.950 . S
C4229 C4227 1.327 . S
C4230 C4218 1.349 . S
C4230 H4224 0.950 . S
C4230 C4231 1.327 . S
C4231 H4225 0.950 . S
C4231 C4230 1.327 . S
C4231 C4235 1.429 . S
C4232 C4215 1.574 . S
C4232 H4226 0.949 . S
C4232 C4236 1.368 . S
C4233 C4214 1.429 . S
C4233 C4227 1.429 . S
C4233 C4234 1.523 . S
C4234 C4215 1.368 . S
C4234 C4228 1.368 . S
C4234 C4233 1.523 . S
C4235 C4219 1.429 . S
C4235 C4231 1.429 . S
C4235 C4236 1.523 . S
C4236 C4220 1.368 . S
C4236 C4232 1.368 . S
C4236 C4235 1.523 . S
H4237 C4212 0.950 . S
H4238 C4214 0.950 . S
H4239 C4215 0.949 . S
H4240 C4217 0.950 . S
H4241 C4219 0.950 . S
C4242 C4243 1.349 . S
C4242 C4244 1.327 . S
C4242 H4267 0.950 . S
C4243 C4242 1.349 . S
C4243 C4259 1.349 . S
C4244 C4242 1.327 . S
C4244 C4263 1.429 . S
C4244 H4268 0.950 . S
C4245 C4262 1.574 . S
C4245 C4264 1.368 . S
C4245 H4269 0.949 . S
H4246 C4250 0.949 . S
C4247 C4248 1.349 . S
C4247 C4249 1.327 . S
C4247 H4270 0.950 . S
C4248 C4247 1.349 . S
C4248 C4260 1.349 . S
C4249 C4247 1.327 . S
C4249 C4265 1.429 . S
C4249 H4271 0.950 . S
C4250 H4246 0.949 . S
C4250 C4258 1.574 . S
C4250 C4266 1.368 . S
H4251 C4259 0.950 . S
H4252 C4257 0.950 . S
H4253 C4258 0.949 . S
H4254 C4260 0.950 . S
H4255 C4261 0.950 . S
H4256 C4262 0.949 . S
C4257 H4252 0.950 . S
C4257 C4259 1.327 . S
C4257 C4263 1.429 . S
C4258 C4250 1.574 . S
C4258 H4253 0.949 . S
C4258 C4264 1.368 . S
C4259 C4243 1.349 . S
C4259 H4251 0.950 . S
C4259 C4257 1.327 . S
C4260 C4248 1.349 . S
C4260 H4254 0.950 . S
C4260 C4261 1.327 . S
C4261 H4255 0.950 . S
C4261 C4260 1.327 . S
C4261 C4265 1.429 . S
C4262 C4245 1.574 . S
C4262 H4256 0.949 . S
C4262 C4266 1.368 . S
C4263 C4244 1.429 . S
C4263 C4257 1.429 . S
C4263 C4264 1.523 . S
C4264 C4245 1.368 . S
C4264 C4258 1.368 . S
C4264 C4263 1.523 . S
C4265 C4249 1.429 . S
C4265 C4261 1.429 . S
C4265 C4266 1.523 . S
C4266 C4250 1.368 . S
C4266 C4262 1.368 . S
C4266 C4265 1.523 . S
H4267 C4242 0.950 . S
H4268 C4244 0.950 . S
H4269 C4245 0.949 . S
H4270 C4247 0.950 . S
H4271 C4249 0.950 . S
C4272 C4273 1.349 . S
C4272 C4274 1.327 . S
C4272 H4297 0.950 . S
C4273 C4272 1.349 . S
C4273 C4289 1.349 . S
C4274 C4272 1.327 . S
C4274 C4293 1.429 . S
C4274 H4298 0.950 . S
C4275 C4292 1.574 . S
C4275 C4294 1.368 . S
C4275 H4299 0.949 . S
H4276 C4280 0.949 . S
C4277 C4278 1.349 . S
C4277 C4279 1.327 . S
C4277 H4300 0.950 . S
C4278 C4277 1.349 . S
C4278 C4290 1.349 . S
C4279 C4277 1.327 . S
C4279 C4295 1.429 . S
C4279 H4301 0.950 . S
C4280 H4276 0.949 . S
C4280 C4288 1.574 . S
C4280 C4296 1.368 . S
H4281 C4289 0.950 . S
H4282 C4287 0.950 . S
H4283 C4288 0.949 . S
H4284 C4290 0.950 . S
H4285 C4291 0.950 . S
H4286 C4292 0.949 . S
C4287 H4282 0.950 . S
C4287 C4289 1.327 . S
C4287 C4293 1.429 . S
C4288 C4280 1.574 . S
C4288 H4283 0.949 . S
C4288 C4294 1.368 . S
C4289 C4273 1.349 . S
C4289 H4281 0.950 . S
C4289 C4287 1.327 . S
C4290 C4278 1.349 . S
C4290 H4284 0.950 . S
C4290 C4291 1.327 . S
C4291 H4285 0.950 . S
C4291 C4290 1.327 . S
C4291 C4295 1.429 . S
C4292 C4275 1.574 . S
C4292 H4286 0.949 . S
C4292 C4296 1.368 . S
C4293 C4274 1.429 . S
C4293 C4287 1.429 . S
C4293 C4294 1.523 . S
C4294 C4275 1.368 . S
C4294 C4288 1.368 . S
C4294 C4293 1.523 . S
C4295 C4279 1.429 . S
C4295 C4291 1.429 . S
C4295 C4296 1.523 . S
C4296 C4280 1.368 . S
C4296 C4292 1.368 . S
C4296 C4295 1.523 . S
H4297 C4272 0.950 . S
H4298 C4274 0.950 . S
H4299 C4275 0.949 . S
H4300 C4277 0.950 . S
H4301 C4279 0.950 . S
C4302 C4303 1.349 . S
C4302 C4304 1.327 . S
C4302 H4327 0.950 . S
C4303 C4302 1.349 . S
C4303 C4319 1.349 . S
C4304 C4302 1.327 . S
C4304 C4323 1.429 . S
C4304 H4328 0.950 . S
C4305 C4322 1.574 . S
C4305 C4324 1.368 . S
C4305 H4329 0.949 . S
H4306 C4310 0.949 . S
C4307 C4308 1.349 . S
C4307 C4309 1.327 . S
C4307 H4330 0.950 . S
C4308 C4307 1.349 . S
C4308 C4320 1.349 . S
C4309 C4307 1.327 . S
C4309 C4325 1.429 . S
C4309 H4331 0.950 . S
C4310 H4306 0.949 . S
C4310 C4318 1.574 . S
C4310 C4326 1.368 . S
H4311 C4319 0.950 . S
H4312 C4317 0.950 . S
H4313 C4318 0.949 . S
H4314 C4320 0.950 . S
H4315 C4321 0.950 . S
H4316 C4322 0.949 . S
C4317 H4312 0.950 . S
C4317 C4319 1.327 . S
C4317 C4323 1.429 . S
C4318 C4310 1.574 . S
C4318 H4313 0.949 . S
C4318 C4324 1.368 . S
C4319 C4303 1.349 . S
C4319 H4311 0.950 . S
C4319 C4317 1.327 . S
C4320 C4308 1.349 . S
C4320 H4314 0.950 . S
C4320 C4321 1.327 . S
C4321 H4315 0.950 . S
C4321 C4320 1.327 . S
C4321 C4325 1.429 . S
C4322 C4305 1.574 . S
C4322 H4316 0.949 . S
C4322 C4326 1.368 . S
C4323 C4304 1.429 . S
C4323 C4317 1.429 . S
C4323 C4324 1.523 . S
C4324 C4305 1.368 . S
C4324 C4318 1.368 . S
C4324 C4323 1.523 . S
C4325 C4309 1.429 . S
C4325 C4321 1.429 . S
C4325 C4326 1.523 . S
C4326 C4310 1.368 . S
C4326 C4322 1.368 . S
C4326 C4325 1.523 . S
H4327 C4302 0.950 . S
H4328 C4304 0.950 . S
H4329 C4305 0.949 . S
H4330 C4307 0.950 . S
H4331 C4309 0.950 . S
C4332 C4333 1.349 . S
C4332 C4334 1.327 . S
C4332 H4357 0.950 . S
C4333 C4332 1.349 . S
C4333 C4349 1.349 . S
C4334 C4332 1.327 . S
C4334 C4353 1.429 . S
C4334 H4358 0.950 . S
C4335 C4352 1.574 . S
C4335 C4354 1.368 . S
C4335 H4359 0.949 . S
H4336 C4340 0.949 . S
C4337 C4338 1.349 . S
C4337 C4339 1.327 . S
C4337 H4360 0.950 . S
C4338 C4337 1.349 . S
C4338 C4350 1.349 . S
C4339 C4337 1.327 . S
C4339 C4355 1.429 . S
C4339 H4361 0.950 . S
C4340 H4336 0.949 . S
C4340 C4348 1.574 . S
C4340 C4356 1.368 . S
H4341 C4349 0.950 . S
H4342 C4347 0.950 . S
H4343 C4348 0.949 . S
H4344 C4350 0.950 . S
H4345 C4351 0.950 . S
H4346 C4352 0.949 . S
C4347 H4342 0.950 . S
C4347 C4349 1.327 . S
C4347 C4353 1.429 . S
C4348 C4340 1.574 . S
C4348 H4343 0.949 . S
C4348 C4354 1.368 . S
C4349 C4333 1.349 . S
C4349 H4341 0.950 . S
C4349 C4347 1.327 . S
C4350 C4338 1.349 . S
C4350 H4344 0.950 . S
C4350 C4351 1.327 . S
C4351 H4345 0.950 . S
C4351 C4350 1.327 . S
C4351 C4355 1.429 . S
C4352 C4335 1.574 . S
C4352 H4346 0.949 . S
C4352 C4356 1.368 . S
C4353 C4334 1.429 . S
C4353 C4347 1.429 . S
C4353 C4354 1.523 . S
C4354 C4335 1.368 . S
C4354 C4348 1.368 . S
C4354 C4353 1.523 . S
C4355 C4339 1.429 . S
C4355 C4351 1.429 . S
C4355 C4356 1.523 . S
C4356 C4340 1.368 . S
C4356 C4352 1.368 . S
C4356 C4355 1.523 . S
H4357 C4332 0.950 . S
H4358 C4334 0.950 . S
H4359 C4335 0.949 . S
H4360 C4337 0.950 . S
H4361 C4339 0.950 . S
C4362 C4363 1.349 . S
C4362 C4364 1.327 . S
C4362 H4387 0.950 . S
C4363 C4362 1.349 . S
C4363 C4379 1.349 . S
C4364 C4362 1.327 . S
C4364 C4383 1.429 . S
C4364 H4388 0.950 . S
C4365 C4382 1.574 . S
C4365 C4384 1.368 . S
C4365 H4389 0.949 . S
H4366 C4370 0.949 . S
C4367 C4368 1.349 . S
C4367 C4369 1.327 . S
C4367 H4390 0.950 . S
C4368 C4367 1.349 . S
C4368 C4380 1.349 . S
C4369 C4367 1.327 . S
C4369 C4385 1.429 . S
C4369 H4391 0.950 . S
C4370 H4366 0.949 . S
C4370 C4378 1.574 . S
C4370 C4386 1.368 . S
H4371 C4379 0.950 . S
H4372 C4377 0.950 . S
H4373 C4378 0.949 . S
H4374 C4380 0.950 . S
H4375 C4381 0.950 . S
H4376 C4382 0.949 . S
C4377 H4372 0.950 . S
C4377 C4379 1.327 . S
C4377 C4383 1.429 . S
C4378 C4370 1.574 . S
C4378 H4373 0.949 . S
C4378 C4384 1.368 . S
C4379 C4363 1.349 . S
C4379 H4371 0.950 . S
C4379 C4377 1.327 . S
C4380 C4368 1.349 . S
C4380 H4374 0.950 . S
C4380 C4381 1.327 . S
C4381 H4375 0.950 . S
C4381 C4380 1.327 . S
C4381 C4385 1.429 . S
C4382 C4365 1.574 . S
C4382 H4376 0.949 . S
C4382 C4386 1.368 . S
C4383 C4364 1.429 . S
C4383 C4377 1.429 . S
C4383 C4384 1.523 . S
C4384 C4365 1.368 . S
C4384 C4378 1.368 . S
C4384 C4383 1.523 . S
C4385 C4369 1.429 . S
C4385 C4381 1.429 . S
C4385 C4386 1.523 . S
C4386 C4370 1.368 . S
C4386 C4382 1.368 . S
C4386 C4385 1.523 . S
H4387 C4362 0.950 . S
H4388 C4364 0.950 . S
H4389 C4365 0.949 . S
H4390 C4367 0.950 . S
H4391 C4369 0.950 . S
C4392 C4393 1.349 . S
C4392 C4394 1.327 . S
C4392 H4417 0.950 . S
C4393 C4392 1.349 . S
C4393 C4409 1.349 . S
C4394 C4392 1.327 . S
C4394 C4413 1.429 . S
C4394 H4418 0.950 . S
C4395 C4412 1.574 1_556 S
C4395 C4414 1.368 . S
C4395 H4419 0.949 . S
H4396 C4400 0.949 . S
C4397 C4398 1.349 . S
C4397 C4399 1.327 . S
C4397 H4420 0.950 . S
C4398 C4397 1.349 . S
C4398 C4410 1.349 . S
C4399 C4397 1.327 . S
C4399 C4415 1.429 . S
C4399 H4421 0.950 . S
C4400 H4396 0.949 . S
C4400 C4408 1.574 . S
C4400 C4416 1.368 1_556 S
H4401 C4409 0.950 . S
H4402 C4407 0.950 . S
H4403 C4408 0.949 . S
H4404 C4410 0.950 . S
H4405 C4411 0.950 . S
H4406 C4412 0.949 . S
C4407 H4402 0.950 . S
C4407 C4409 1.327 . S
C4407 C4413 1.429 . S
C4408 C4400 1.574 . S
C4408 H4403 0.949 . S
C4408 C4414 1.368 . S
C4409 C4393 1.349 . S
C4409 H4401 0.950 . S
C4409 C4407 1.327 . S
C4410 C4398 1.349 . S
C4410 H4404 0.950 . S
C4410 C4411 1.327 . S
C4411 H4405 0.950 . S
C4411 C4410 1.327 . S
C4411 C4415 1.429 . S
C4412 C4395 1.574 1_554 S
C4412 H4406 0.949 . S
C4412 C4416 1.368 . S
C4413 C4394 1.429 . S
C4413 C4407 1.429 . S
C4413 C4414 1.523 . S
C4414 C4395 1.368 . S
C4414 C4408 1.368 . S
C4414 C4413 1.523 . S
C4415 C4399 1.429 . S
C4415 C4411 1.429 . S
C4415 C4416 1.523 . S
C4416 C4400 1.368 1_554 S
C4416 C4412 1.368 . S
C4416 C4415 1.523 . S
H4417 C4392 0.950 . S
H4418 C4394 0.950 . S
H4419 C4395 0.949 . S
H4420 C4397 0.950 . S
H4421 C4399 0.950 . S
C4422 C4423 1.349 . S
C4422 C4424 1.327 . S
C4422 H4447 0.950 . S
C4423 C4422 1.349 . S
C4423 C4439 1.349 . S
C4424 C4422 1.327 . S
C4424 C4443 1.429 . S
C4424 H4448 0.950 . S
C4425 C4442 1.574 . S
C4425 C4444 1.368 . S
C4425 H4449 0.949 . S
H4426 C4430 0.949 . S
C4427 C4428 1.349 . S
C4427 C4429 1.327 . S
C4427 H4450 0.950 . S
C4428 C4427 1.349 . S
C4428 C4440 1.349 . S
C4429 C4427 1.327 . S
C4429 C4445 1.429 . S
C4429 H4451 0.950 . S
C4430 H4426 0.949 . S
C4430 C4438 1.574 . S
C4430 C4446 1.368 . S
H4431 C4439 0.950 . S
H4432 C4437 0.950 . S
H4433 C4438 0.949 . S
H4434 C4440 0.950 . S
H4435 C4441 0.950 . S
H4436 C4442 0.949 . S
C4437 H4432 0.950 . S
C4437 C4439 1.327 . S
C4437 C4443 1.429 . S
C4438 C4430 1.574 . S
C4438 H4433 0.949 . S
C4438 C4444 1.368 . S
C4439 C4423 1.349 . S
C4439 H4431 0.950 . S
C4439 C4437 1.327 . S
C4440 C4428 1.349 . S
C4440 H4434 0.950 . S
C4440 C4441 1.327 . S
C4441 H4435 0.950 . S
C4441 C4440 1.327 . S
C4441 C4445 1.429 . S
C4442 C4425 1.574 . S
C4442 H4436 0.949 . S
C4442 C4446 1.368 . S
C4443 C4424 1.429 . S
C4443 C4437 1.429 . S
C4443 C4444 1.523 . S
C4444 C4425 1.368 . S
C4444 C4438 1.368 . S
C4444 C4443 1.523 . S
C4445 C4429 1.429 . S
C4445 C4441 1.429 . S
C4445 C4446 1.523 . S
C4446 C4430 1.368 . S
C4446 C4442 1.368 . S
C4446 C4445 1.523 . S
H4447 C4422 0.950 . S
H4448 C4424 0.950 . S
H4449 C4425 0.949 . S
H4450 C4427 0.950 . S
H4451 C4429 0.950 . S
C4452 C4453 1.349 . S
C4452 C4454 1.327 . S
C4452 H4477 0.950 . S
C4453 C4452 1.349 . S
C4453 C4469 1.349 . S
C4454 C4452 1.327 . S
C4454 C4473 1.429 . S
C4454 H4478 0.950 . S
C4455 C4472 1.574 . S
C4455 C4474 1.368 . S
C4455 H4479 0.949 . S
H4456 C4460 0.949 . S
C4457 C4458 1.349 . S
C4457 C4459 1.327 . S
C4457 H4480 0.950 . S
C4458 C4457 1.349 . S
C4458 C4470 1.349 . S
C4459 C4457 1.327 . S
C4459 C4475 1.429 . S
C4459 H4481 0.950 . S
C4460 H4456 0.949 . S
C4460 C4468 1.574 1_556 S
C4460 C4476 1.368 . S
H4461 C4469 0.950 . S
H4462 C4467 0.950 . S
H4463 C4468 0.949 . S
H4464 C4470 0.950 . S
H4465 C4471 0.950 . S
H4466 C4472 0.949 . S
C4467 H4462 0.950 . S
C4467 C4469 1.327 . S
C4467 C4473 1.429 . S
C4468 C4460 1.574 1_554 S
C4468 H4463 0.949 . S
C4468 C4474 1.368 . S
C4469 C4453 1.349 . S
C4469 H4461 0.950 . S
C4469 C4467 1.327 . S
C4470 C4458 1.349 . S
C4470 H4464 0.950 . S
C4470 C4471 1.327 . S
C4471 H4465 0.950 . S
C4471 C4470 1.327 . S
C4471 C4475 1.429 . S
C4472 C4455 1.574 . S
C4472 H4466 0.949 . S
C4472 C4476 1.368 1_554 S
C4473 C4454 1.429 . S
C4473 C4467 1.429 . S
C4473 C4474 1.523 . S
C4474 C4455 1.368 . S
C4474 C4468 1.368 . S
C4474 C4473 1.523 . S
C4475 C4459 1.429 . S
C4475 C4471 1.429 . S
C4475 C4476 1.523 . S
C4476 C4460 1.368 . S
C4476 C4472 1.368 1_556 S
C4476 C4475 1.523 . S
H4477 C4452 0.950 . S
H4478 C4454 0.950 . S
H4479 C4455 0.949 . S
H4480 C4457 0.950 . S
H4481 C4459 0.950 . S
C4482 C4483 1.349 . S
C4482 C4484 1.327 . S
C4482 H4507 0.950 . S
C4483 C4482 1.349 . S
C4483 C4499 1.349 . S
C4484 C4482 1.327 . S
C4484 C4503 1.429 . S
C4484 H4508 0.950 . S
C4485 C4502 1.574 1_556 S
C4485 C4504 1.368 . S
C4485 H4509 0.949 . S
H4486 C4490 0.949 . S
C4487 C4488 1.349 . S
C4487 C4489 1.327 . S
C4487 H4510 0.950 . S
C4488 C4487 1.349 . S
C4488 C4500 1.349 . S
C4489 C4487 1.327 . S
C4489 C4505 1.429 . S
C4489 H4511 0.950 . S
C4490 H4486 0.949 . S
C4490 C4498 1.574 . S
C4490 C4506 1.368 . S
H4491 C4499 0.950 . S
H4492 C4497 0.950 . S
H4493 C4498 0.949 1_556 S
H4494 C4500 0.950 . S
H4495 C4501 0.950 . S
H4496 C4502 0.949 . S
C4497 H4492 0.950 . S
C4497 C4499 1.327 . S
C4497 C4503 1.429 . S
C4498 C4490 1.574 . S
C4498 H4493 0.949 1_554 S
C4498 C4504 1.368 1_554 S
C4499 C4483 1.349 . S
C4499 H4491 0.950 . S
C4499 C4497 1.327 . S
C4500 C4488 1.349 . S
C4500 H4494 0.950 . S
C4500 C4501 1.327 . S
C4501 H4495 0.950 . S
C4501 C4500 1.327 . S
C4501 C4505 1.429 . S
C4502 C4485 1.574 1_554 S
C4502 H4496 0.949 . S
C4502 C4506 1.368 . S
C4503 C4484 1.429 . S
C4503 C4497 1.429 . S
C4503 C4504 1.523 . S
C4504 C4485 1.368 . S
C4504 C4498 1.368 1_556 S
C4504 C4503 1.523 . S
C4505 C4489 1.429 . S
C4505 C4501 1.429 . S
C4505 C4506 1.523 . S
C4506 C4490 1.368 . S
C4506 C4502 1.368 . S
C4506 C4505 1.523 . S
H4507 C4482 0.950 . S
H4508 C4484 0.950 . S
H4509 C4485 0.949 . S
H4510 C4487 0.950 . S
H4511 C4489 0.950 . S
C4512 C4513 1.349 . S
C4512 C4514 1.327 . S
C4512 H4537 0.950 . S
C4513 C4512 1.349 . S
C4513 C4529 1.349 . S
C4514 C4512 1.327 . S
C4514 C4533 1.429 . S
C4514 H4538 0.950 . S
C4515 C4532 1.574 . S
C4515 C4534 1.368 . S
C4515 H4539 0.949 . S
H4516 C4520 0.949 . S
C4517 C4518 1.349 . S
C4517 C4519 1.327 . S
C4517 H4540 0.950 . S
C4518 C4517 1.349 . S
C4518 C4530 1.349 . S
C4519 C4517 1.327 . S
C4519 C4535 1.429 . S
C4519 H4541 0.950 . S
C4520 H4516 0.949 . S
C4520 C4528 1.574 . S
C4520 C4536 1.368 . S
H4521 C4529 0.950 . S
H4522 C4527 0.950 . S
H4523 C4528 0.949 . S
H4524 C4530 0.950 . S
H4525 C4531 0.950 . S
H4526 C4532 0.949 . S
C4527 H4522 0.950 . S
C4527 C4529 1.327 . S
C4527 C4533 1.429 . S
C4528 C4520 1.574 . S
C4528 H4523 0.949 . S
C4528 C4534 1.368 . S
C4529 C4513 1.349 . S
C4529 H4521 0.950 . S
C4529 C4527 1.327 . S
C4530 C4518 1.349 . S
C4530 H4524 0.950 . S
C4530 C4531 1.327 . S
C4531 H4525 0.950 . S
C4531 C4530 1.327 . S
C4531 C4535 1.429 . S
C4532 C4515 1.574 . S
C4532 H4526 0.949 . S
C4532 C4536 1.368 . S
C4533 C4514 1.429 . S
C4533 C4527 1.429 . S
C4533 C4534 1.523 . S
C4534 C4515 1.368 . S
C4534 C4528 1.368 . S
C4534 C4533 1.523 . S
C4535 C4519 1.429 . S
C4535 C4531 1.429 . S
C4535 C4536 1.523 . S
C4536 C4520 1.368 . S
C4536 C4532 1.368 . S
C4536 C4535 1.523 . S
H4537 C4512 0.950 . S
H4538 C4514 0.950 . S
H4539 C4515 0.949 . S
H4540 C4517 0.950 . S
H4541 C4519 0.950 . S
C4542 C4543 1.349 . S
C4542 C4544 1.327 . S
C4542 H4567 0.950 . S
C4543 C4542 1.349 . S
C4543 C4559 1.349 . S
C4544 C4542 1.327 . S
C4544 C4563 1.429 . S
C4544 H4568 0.950 . S
C4545 C4562 1.574 . S
C4545 C4564 1.368 . S
C4545 H4569 0.949 . S
H4546 C4550 0.949 . S
C4547 C4548 1.349 . S
C4547 C4549 1.327 . S
C4547 H4570 0.950 . S
C4548 C4547 1.349 . S
C4548 C4560 1.349 . S
C4549 C4547 1.327 . S
C4549 C4565 1.429 . S
C4549 H4571 0.950 . S
C4550 H4546 0.949 . S
C4550 C4558 1.574 . S
C4550 C4566 1.368 . S
H4551 C4559 0.950 . S
H4552 C4557 0.950 . S
H4553 C4558 0.949 . S
H4554 C4560 0.950 . S
H4555 C4561 0.950 . S
H4556 C4562 0.949 . S
C4557 H4552 0.950 . S
C4557 C4559 1.327 . S
C4557 C4563 1.429 . S
C4558 C4550 1.574 . S
C4558 H4553 0.949 . S
C4558 C4564 1.368 . S
C4559 C4543 1.349 . S
C4559 H4551 0.950 . S
C4559 C4557 1.327 . S
C4560 C4548 1.349 . S
C4560 H4554 0.950 . S
C4560 C4561 1.327 . S
C4561 H4555 0.950 . S
C4561 C4560 1.327 . S
C4561 C4565 1.429 . S
C4562 C4545 1.574 . S
C4562 H4556 0.949 . S
C4562 C4566 1.368 . S
C4563 C4544 1.429 . S
C4563 C4557 1.429 . S
C4563 C4564 1.523 . S
C4564 C4545 1.368 . S
C4564 C4558 1.368 . S
C4564 C4563 1.523 . S
C4565 C4549 1.429 . S
C4565 C4561 1.429 . S
C4565 C4566 1.523 . S
C4566 C4550 1.368 . S
C4566 C4562 1.368 . S
C4566 C4565 1.523 . S
H4567 C4542 0.950 . S
H4568 C4544 0.950 . S
H4569 C4545 0.949 . S
H4570 C4547 0.950 . S
H4571 C4549 0.950 . S
C4572 C4573 1.349 . S
C4572 C4574 1.327 . S
C4572 H4597 0.950 . S
C4573 C4572 1.349 . S
C4573 C4589 1.349 . S
C4574 C4572 1.327 . S
C4574 C4593 1.429 . S
C4574 H4598 0.950 . S
C4575 C4592 1.574 . S
C4575 C4594 1.368 . S
C4575 H4599 0.949 . S
H4576 C4580 0.949 . S
C4577 C4578 1.349 . S
C4577 C4579 1.327 . S
C4577 H4600 0.950 . S
C4578 C4577 1.349 . S
C4578 C4590 1.349 . S
C4579 C4577 1.327 . S
C4579 C4595 1.429 . S
C4579 H4601 0.950 . S
C4580 H4576 0.949 . S
C4580 C4588 1.574 . S
C4580 C4596 1.368 . S
H4581 C4589 0.950 . S
H4582 C4587 0.950 . S
H4583 C4588 0.949 . S
H4584 C4590 0.950 . S
H4585 C4591 0.950 . S
H4586 C4592 0.949 . S
C4587 H4582 0.950 . S
C4587 C4589 1.327 . S
C4587 C4593 1.429 . S
C4588 C4580 1.574 . S
C4588 H4583 0.949 . S
C4588 C4594 1.368 . S
C4589 C4573 1.349 . S
C4589 H4581 0.950 . S
C4589 C4587 1.327 . S
C4590 C4578 1.349 . S
C4590 H4584 0.950 . S
C4590 C4591 1.327 . S
C4591 H4585 0.950 . S
C4591 C4590 1.327 . S
C4591 C4595 1.429 . S
C4592 C4575 1.574 . S
C4592 H4586 0.949 . S
C4592 C4596 1.368 . S
C4593 C4574 1.429 . S
C4593 C4587 1.429 . S
C4593 C4594 1.523 . S
C4594 C4575 1.368 . S
C4594 C4588 1.368 . S
C4594 C4593 1.523 . S
C4595 C4579 1.429 . S
C4595 C4591 1.429 . S
C4595 C4596 1.523 . S
C4596 C4580 1.368 . S
C4596 C4592 1.368 . S
C4596 C4595 1.523 . S
H4597 C4572 0.950 . S
H4598 C4574 0.950 . S
H4599 C4575 0.949 . S
H4600 C4577 0.950 . S
H4601 C4579 0.950 . S
C4602 C4603 1.349 . S
C4602 C4604 1.327 . S
C4602 H4627 0.950 . S
C4603 C4602 1.349 . S
C4603 C4619 1.349 . S
C4604 C4602 1.327 . S
C4604 C4623 1.429 . S
C4604 H4628 0.950 . S
C4605 C4622 1.574 1_545 S
C4605 C4624 1.368 . S
C4605 H4629 0.949 . S
H4606 C4610 0.949 . S
C4607 C4608 1.349 . S
C4607 C4609 1.327 . S
C4607 H4630 0.950 . S
C4608 C4607 1.349 . S
C4608 C4620 1.349 . S
C4609 C4607 1.327 . S
C4609 C4625 1.429 . S
C4609 H4631 0.950 . S
C4610 H4606 0.949 . S
C4610 C4618 1.574 1_565 S
C4610 C4626 1.368 . S
H4611 C4619 0.950 . S
H4612 C4617 0.950 . S
H4613 C4618 0.949 . S
H4614 C4620 0.950 . S
H4615 C4621 0.950 . S
H4616 C4622 0.949 . S
C4617 H4612 0.950 . S
C4617 C4619 1.327 . S
C4617 C4623 1.429 . S
C4618 C4610 1.574 1_545 S
C4618 H4613 0.949 . S
C4618 C4624 1.368 . S
C4619 C4603 1.349 . S
C4619 H4611 0.950 . S
C4619 C4617 1.327 . S
C4620 C4608 1.349 . S
C4620 H4614 0.950 . S
C4620 C4621 1.327 . S
C4621 H4615 0.950 . S
C4621 C4620 1.327 . S
C4621 C4625 1.429 . S
C4622 C4605 1.574 1_565 S
C4622 H4616 0.949 . S
C4622 C4626 1.368 . S
C4623 C4604 1.429 . S
C4623 C4617 1.429 . S
C4623 C4624 1.523 . S
C4624 C4605 1.368 . S
C4624 C4618 1.368 . S
C4624 C4623 1.523 . S
C4625 C4609 1.429 . S
C4625 C4621 1.429 . S
C4625 C4626 1.523 . S
C4626 C4610 1.368 . S
C4626 C4622 1.368 . S
C4626 C4625 1.523 . S
H4627 C4602 0.950 . S
H4628 C4604 0.950 . S
H4629 C4605 0.949 . S
H4630 C4607 0.950 . S
H4631 C4609 0.950 . S
C4632 C4633 1.349 . S
C4632 C4634 1.327 . S
C4632 H4657 0.950 . S
C4633 C4632 1.349 . S
C4633 C4649 1.349 . S
C4634 C4632 1.327 . S
C4634 C4653 1.429 . S
C4634 H4658 0.950 . S
C4635 C4652 1.612 . S
C4635 C4654 1.330 1_556 S
C4635 H4659 0.952 . S
H4636 C4640 0.949 . S
C4637 C4638 1.349 . S
C4637 C4639 1.327 . S
C4637 H4660 0.950 . S
C4638 C4637 1.349 . S
C4638 C4650 1.349 . S
C4639 C4637 1.327 . S
C4639 C4655 1.429 . S
C4639 H4661 0.950 . S
C4640 H4636 0.949 . S
C4640 C4648 1.608 . S
C4640 C4656 1.334 1_554 S
H4641 C4649 0.950 . S
H4642 C4647 0.950 . S
H4643 C4648 0.949 . S
H4644 C4650 0.950 . S
H4645 C4651 0.950 . S
H4646 C4652 0.949 . S
C4647 H4642 0.950 . S
C4647 C4649 1.327 . S
C4647 C4653 1.429 . S
C4648 C4640 1.608 . S
C4648 H4643 0.949 . S
C4648 C4654 1.368 . S
C4649 C4633 1.349 . S
C4649 H4641 0.950 . S
C4649 C4647 1.327 . S
C4650 C4638 1.349 . S
C4650 H4644 0.950 . S
C4650 C4651 1.327 . S
C4651 H4645 0.950 . S
C4651 C4650 1.327 . S
C4651 C4655 1.429 . S
C4652 C4635 1.612 . S
C4652 H4646 0.949 . S
C4652 C4656 1.368 . S
C4653 C4634 1.429 . S
C4653 C4647 1.429 . S
C4653 C4654 1.523 . S
C4654 C4635 1.330 1_554 S
C4654 C4648 1.368 . S
C4654 C4653 1.523 . S
C4655 C4639 1.429 . S
C4655 C4651 1.429 . S
C4655 C4656 1.523 . S
C4656 C4640 1.334 1_556 S
C4656 C4652 1.368 . S
C4656 C4655 1.523 . S
H4657 C4632 0.950 . S
H4658 C4634 0.950 . S
H4659 C4635 0.952 . S
H4660 C4637 0.950 . S
H4661 C4639 0.950 . S
C4662 C4663 1.349 . S
C4662 C4664 1.327 . S
C4662 H4687 0.950 . S
C4663 C4662 1.349 . S
C4663 C4679 1.349 . S
C4664 C4662 1.327 . S
C4664 C4683 1.429 . S
C4664 H4688 0.950 . S
C4665 C4682 1.574 . S
C4665 C4684 1.368 . S
C4665 H4689 0.949 . S
H4666 C4670 0.949 . S
C4667 C4668 1.349 . S
C4667 C4669 1.327 . S
C4667 H4690 0.950 . S
C4668 C4667 1.349 . S
C4668 C4680 1.349 . S
C4669 C4667 1.327 . S
C4669 C4685 1.429 . S
C4669 H4691 0.950 . S
C4670 H4666 0.949 . S
C4670 C4678 1.574 . S
C4670 C4686 1.368 . S
H4671 C4679 0.950 . S
H4672 C4677 0.950 . S
H4673 C4678 0.949 . S
H4674 C4680 0.950 . S
H4675 C4681 0.950 . S
H4676 C4682 0.949 . S
C4677 H4672 0.950 . S
C4677 C4679 1.327 . S
C4677 C4683 1.429 . S
C4678 C4670 1.574 . S
C4678 H4673 0.949 . S
C4678 C4684 1.368 . S
C4679 C4663 1.349 . S
C4679 H4671 0.950 . S
C4679 C4677 1.327 . S
C4680 C4668 1.349 . S
C4680 H4674 0.950 . S
C4680 C4681 1.327 . S
C4681 H4675 0.950 . S
C4681 C4680 1.327 . S
C4681 C4685 1.429 . S
C4682 C4665 1.574 . S
C4682 H4676 0.949 . S
C4682 C4686 1.368 . S
C4683 C4664 1.429 . S
C4683 C4677 1.429 . S
C4683 C4684 1.523 . S
C4684 C4665 1.368 . S
C4684 C4678 1.368 . S
C4684 C4683 1.523 . S
C4685 C4669 1.429 . S
C4685 C4681 1.429 . S
C4685 C4686 1.523 . S
C4686 C4670 1.368 . S
C4686 C4682 1.368 . S
C4686 C4685 1.523 . S
H4687 C4662 0.950 . S
H4688 C4664 0.950 . S
H4689 C4665 0.949 . S
H4690 C4667 0.950 . S
H4691 C4669 0.950 . S
C4692 C4693 1.349 . S
C4692 C4694 1.327 . S
C4692 H4717 0.950 . S
C4693 C4692 1.349 . S
C4693 C4709 1.349 . S
C4694 C4692 1.327 . S
C4694 C4713 1.429 . S
C4694 H4718 0.950 . S
C4695 C4712 1.613 . S
C4695 C4714 1.368 . S
C4695 H4719 0.949 . S
H4696 C4700 0.949 . S
C4697 C4698 1.349 . S
C4697 C4699 1.327 . S
C4697 H4720 0.950 . S
C4698 C4697 1.349 . S
C4698 C4710 1.349 . S
C4699 C4697 1.327 . S
C4699 C4715 1.429 . S
C4699 H4721 0.950 . S
C4700 H4696 0.949 . S
C4700 C4708 1.608 . S
C4700 C4716 1.368 . S
H4701 C4709 0.950 . S
H4702 C4707 0.950 . S
H4703 C4708 0.949 . S
H4704 C4710 0.950 . S
H4705 C4711 0.950 . S
H4706 C4712 0.952 . S
C4707 H4702 0.950 . S
C4707 C4709 1.327 . S
C4707 C4713 1.429 . S
C4708 C4700 1.608 . S
C4708 H4703 0.949 . S
C4708 C4714 1.334 1_554 S
C4709 C4693 1.349 . S
C4709 H4701 0.950 . S
C4709 C4707 1.327 . S
C4710 C4698 1.349 . S
C4710 H4704 0.950 . S
C4710 C4711 1.327 . S
C4711 H4705 0.950 . S
C4711 C4710 1.327 . S
C4711 C4715 1.429 . S
C4712 C4695 1.613 . S
C4712 H4706 0.952 . S
C4712 C4716 1.329 1_556 S
C4713 C4694 1.429 . S
C4713 C4707 1.429 . S
C4713 C4714 1.523 . S
C4714 C4695 1.368 . S
C4714 C4708 1.334 1_556 S
C4714 C4713 1.523 . S
C4715 C4699 1.429 . S
C4715 C4711 1.429 . S
C4715 C4716 1.523 . S
C4716 C4700 1.368 . S
C4716 C4712 1.329 1_554 S
C4716 C4715 1.523 . S
H4717 C4692 0.950 . S
H4718 C4694 0.950 . S
H4719 C4695 0.949 . S
H4720 C4697 0.950 . S
H4721 C4699 0.950 . S
C4722 C4723 1.349 . S
C4722 C4724 1.327 . S
C4722 H4747 0.950 . S
C4723 C4722 1.349 . S
C4723 C4739 1.349 . S
C4724 C4722 1.327 . S
C4724 C4743 1.429 . S
C4724 H4748 0.950 . S
C4725 C4742 1.574 1_545 S
C4725 C4744 1.368 . S
C4725 H4749 0.949 . S
H4726 C4730 0.949 . S
C4727 C4728 1.349 . S
C4727 C4729 1.327 . S
C4727 H4750 0.950 . S
C4728 C4727 1.349 . S
C4728 C4740 1.349 . S
C4729 C4727 1.327 . S
C4729 C4745 1.429 . S
C4729 H4751 0.950 . S
C4730 H4726 0.949 . S
C4730 C4738 1.574 1_565 S
C4730 C4746 1.368 . S
H4731 C4739 0.950 . S
H4732 C4737 0.950 . S
H4733 C4738 0.949 . S
H4734 C4740 0.950 . S
H4735 C4741 0.950 . S
H4736 C4742 0.949 . S
C4737 H4732 0.950 . S
C4737 C4739 1.327 . S
C4737 C4743 1.429 . S
C4738 C4730 1.574 1_545 S
C4738 H4733 0.949 . S
C4738 C4744 1.368 . S
C4739 C4723 1.349 . S
C4739 H4731 0.950 . S
C4739 C4737 1.327 . S
C4740 C4728 1.349 . S
C4740 H4734 0.950 . S
C4740 C4741 1.327 . S
C4741 H4735 0.950 . S
C4741 C4740 1.327 . S
C4741 C4745 1.429 . S
C4742 C4725 1.574 1_565 S
C4742 H4736 0.949 . S
C4742 C4746 1.368 . S
C4743 C4724 1.429 . S
C4743 C4737 1.429 . S
C4743 C4744 1.523 . S
C4744 C4725 1.368 . S
C4744 C4738 1.368 . S
C4744 C4743 1.523 . S
C4745 C4729 1.429 . S
C4745 C4741 1.429 . S
C4745 C4746 1.523 . S
C4746 C4730 1.368 . S
C4746 C4742 1.368 . S
C4746 C4745 1.523 . S
H4747 C4722 0.950 . S
H4748 C4724 0.950 . S
H4749 C4725 0.949 . S
H4750 C4727 0.950 . S
H4751 C4729 0.950 . S
C4752 C4753 1.349 . S
C4752 C4754 1.327 . S
C4752 H4777 0.950 . S
C4753 C4752 1.349 . S
C4753 C4769 1.349 . S
C4754 C4752 1.327 . S
C4754 C4773 1.429 . S
C4754 H4778 0.950 . S
C4755 C4772 1.574 . S
C4755 C4774 1.368 . S
C4755 H4779 0.949 . S
H4756 C4760 0.949 . S
C4757 C4758 1.349 . S
C4757 C4759 1.327 . S
C4757 H4780 0.950 . S
C4758 C4757 1.349 . S
C4758 C4770 1.349 . S
C4759 C4757 1.327 . S
C4759 C4775 1.429 . S
C4759 H4781 0.950 . S
C4760 H4756 0.949 . S
C4760 C4768 1.574 . S
C4760 C4776 1.368 . S
H4761 C4769 0.950 . S
H4762 C4767 0.950 . S
H4763 C4768 0.949 . S
H4764 C4770 0.950 . S
H4765 C4771 0.950 . S
H4766 C4772 0.949 . S
C4767 H4762 0.950 . S
C4767 C4769 1.327 . S
C4767 C4773 1.429 . S
C4768 C4760 1.574 . S
C4768 H4763 0.949 . S
C4768 C4774 1.368 . S
C4769 C4753 1.349 . S
C4769 H4761 0.950 . S
C4769 C4767 1.327 . S
C4770 C4758 1.349 . S
C4770 H4764 0.950 . S
C4770 C4771 1.327 . S
C4771 H4765 0.950 . S
C4771 C4770 1.327 . S
C4771 C4775 1.429 . S
C4772 C4755 1.574 . S
C4772 H4766 0.949 . S
C4772 C4776 1.368 . S
C4773 C4754 1.429 . S
C4773 C4767 1.429 . S
C4773 C4774 1.523 . S
C4774 C4755 1.368 . S
C4774 C4768 1.368 . S
C4774 C4773 1.523 . S
C4775 C4759 1.429 . S
C4775 C4771 1.429 . S
C4775 C4776 1.523 . S
C4776 C4760 1.368 . S
C4776 C4772 1.368 . S
C4776 C4775 1.523 . S
H4777 C4752 0.950 . S
H4778 C4754 0.950 . S
H4779 C4755 0.949 . S
H4780 C4757 0.950 . S
H4781 C4759 0.950 . S
C4782 C4783 1.349 . S
C4782 C4784 1.327 . S
C4782 H4807 0.950 . S
C4783 C4782 1.349 . S
C4783 C4799 1.349 . S
C4784 C4782 1.327 . S
C4784 C4803 1.429 . S
C4784 H4808 0.950 . S
C4785 C4802 1.574 . S
C4785 C4804 1.368 . S
C4785 H4809 0.949 . S
H4786 C4790 0.949 . S
C4787 C4788 1.349 . S
C4787 C4789 1.327 . S
C4787 H4810 0.950 . S
C4788 C4787 1.349 . S
C4788 C4800 1.349 . S
C4789 C4787 1.327 . S
C4789 C4805 1.429 . S
C4789 H4811 0.950 . S
C4790 H4786 0.949 . S
C4790 C4798 1.574 . S
C4790 C4806 1.368 . S
H4791 C4799 0.950 . S
H4792 C4797 0.950 . S
H4793 C4798 0.949 . S
H4794 C4800 0.950 . S
H4795 C4801 0.950 . S
H4796 C4802 0.949 . S
C4797 H4792 0.950 . S
C4797 C4799 1.327 . S
C4797 C4803 1.429 . S
C4798 C4790 1.574 . S
C4798 H4793 0.949 . S
C4798 C4804 1.368 . S
C4799 C4783 1.349 . S
C4799 H4791 0.950 . S
C4799 C4797 1.327 . S
C4800 C4788 1.349 . S
C4800 H4794 0.950 . S
C4800 C4801 1.327 . S
C4801 H4795 0.950 . S
C4801 C4800 1.327 . S
C4801 C4805 1.429 . S
C4802 C4785 1.574 . S
C4802 H4796 0.949 . S
C4802 C4806 1.368 . S
C4803 C4784 1.429 . S
C4803 C4797 1.429 . S
C4803 C4804 1.523 . S
C4804 C4785 1.368 . S
C4804 C4798 1.368 . S
C4804 C4803 1.523 . S
C4805 C4789 1.429 . S
C4805 C4801 1.429 . S
C4805 C4806 1.523 . S
C4806 C4790 1.368 . S
C4806 C4802 1.368 . S
C4806 C4805 1.523 . S
H4807 C4782 0.950 . S
H4808 C4784 0.950 . S
H4809 C4785 0.949 . S
H4810 C4787 0.950 . S
H4811 C4789 0.950 . S
C4812 C4813 1.349 . S
C4812 C4814 1.327 . S
C4812 H4837 0.950 . S
C4813 C4812 1.349 . S
C4813 C4829 1.349 . S
C4814 C4812 1.327 . S
C4814 C4833 1.429 . S
C4814 H4838 0.950 . S
C4815 C4832 1.574 . S
C4815 C4834 1.368 . S
C4815 H4839 0.949 . S
H4816 C4820 0.949 . S
C4817 C4818 1.349 . S
C4817 C4819 1.327 . S
C4817 H4840 0.950 . S
C4818 C4817 1.349 . S
C4818 C4830 1.349 . S
C4819 C4817 1.327 . S
C4819 C4835 1.429 . S
C4819 H4841 0.950 . S
C4820 H4816 0.949 . S
C4820 C4828 1.574 . S
C4820 C4836 1.368 . S
H4821 C4829 0.950 . S
H4822 C4827 0.950 . S
H4823 C4828 0.949 . S
H4824 C4830 0.950 . S
H4825 C4831 0.950 . S
H4826 C4832 0.949 . S
C4827 H4822 0.950 . S
C4827 C4829 1.327 . S
C4827 C4833 1.429 . S
C4828 C4820 1.574 . S
C4828 H4823 0.949 . S
C4828 C4834 1.368 . S
C4829 C4813 1.349 . S
C4829 H4821 0.950 . S
C4829 C4827 1.327 . S
C4830 C4818 1.349 . S
C4830 H4824 0.950 . S
C4830 C4831 1.327 . S
C4831 H4825 0.950 . S
C4831 C4830 1.327 . S
C4831 C4835 1.429 . S
C4832 C4815 1.574 . S
C4832 H4826 0.949 . S
C4832 C4836 1.368 . S
C4833 C4814 1.429 . S
C4833 C4827 1.429 . S
C4833 C4834 1.523 . S
C4834 C4815 1.368 . S
C4834 C4828 1.368 . S
C4834 C4833 1.523 . S
C4835 C4819 1.429 . S
C4835 C4831 1.429 . S
C4835 C4836 1.523 . S
C4836 C4820 1.368 . S
C4836 C4832 1.368 . S
C4836 C4835 1.523 . S
H4837 C4812 0.950 . S
H4838 C4814 0.950 . S
H4839 C4815 0.949 . S
H4840 C4817 0.950 . S
H4841 C4819 0.950 . S
C4842 C4843 1.349 . S
C4842 C4844 1.327 . S
C4842 H4867 0.950 . S
C4843 C4842 1.349 . S
C4843 C4859 1.349 . S
C4844 C4842 1.327 . S
C4844 C4863 1.429 . S
C4844 H4868 0.950 . S
C4845 C4862 1.574 1_455 S
C4845 C4864 1.368 . S
C4845 H4869 0.949 . S
H4846 C4850 0.949 . S
C4847 C4848 1.349 . S
C4847 C4849 1.327 . S
C4847 H4870 0.950 . S
C4848 C4847 1.349 . S
C4848 C4860 1.349 . S
C4849 C4847 1.327 . S
C4849 C4865 1.429 . S
C4849 H4871 0.950 . S
C4850 H4846 0.949 . S
C4850 C4858 1.574 1_655 S
C4850 C4866 1.368 . S
H4851 C4859 0.950 . S
H4852 C4857 0.950 . S
H4853 C4858 0.949 . S
H4854 C4860 0.950 . S
H4855 C4861 0.950 . S
H4856 C4862 0.949 . S
C4857 H4852 0.950 . S
C4857 C4859 1.327 . S
C4857 C4863 1.429 . S
C4858 C4850 1.574 1_455 S
C4858 H4853 0.949 . S
C4858 C4864 1.368 . S
C4859 C4843 1.349 . S
C4859 H4851 0.950 . S
C4859 C4857 1.327 . S
C4860 C4848 1.349 . S
C4860 H4854 0.950 . S
C4860 C4861 1.327 . S
C4861 H4855 0.950 . S
C4861 C4860 1.327 . S
C4861 C4865 1.429 . S
C4862 C4845 1.574 1_655 S
C4862 H4856 0.949 . S
C4862 C4866 1.368 . S
C4863 C4844 1.429 . S
C4863 C4857 1.429 . S
C4863 C4864 1.523 . S
C4864 C4845 1.368 . S
C4864 C4858 1.368 . S
C4864 C4863 1.523 . S
C4865 C4849 1.429 . S
C4865 C4861 1.429 . S
C4865 C4866 1.523 . S
C4866 C4850 1.368 . S
C4866 C4862 1.368 . S
C4866 C4865 1.523 . S
H4867 C4842 0.950 . S
H4868 C4844 0.950 . S
H4869 C4845 0.949 . S
H4870 C4847 0.950 . S
H4871 C4849 0.950 . S
C4872 C4873 1.349 . S
C4872 C4874 1.327 . S
C4872 H4897 0.950 . S
C4873 C4872 1.349 . S
C4873 C4889 1.349 . S
C4874 C4872 1.327 . S
C4874 C4893 1.429 . S
C4874 H4898 0.950 . S
C4875 C4892 1.574 . S
C4875 C4894 1.368 . S
C4875 H4899 0.949 . S
H4876 C4880 0.949 . S
C4877 C4878 1.349 . S
C4877 C4879 1.327 . S
C4877 H4900 0.950 . S
C4878 C4877 1.349 . S
C4878 C4890 1.349 . S
C4879 C4877 1.327 . S
C4879 C4895 1.429 . S
C4879 H4901 0.950 . S
C4880 H4876 0.949 . S
C4880 C4888 1.574 . S
C4880 C4896 1.368 . S
H4881 C4889 0.950 . S
H4882 C4887 0.950 . S
H4883 C4888 0.949 . S
H4884 C4890 0.950 . S
H4885 C4891 0.950 . S
H4886 C4892 0.949 . S
C4887 H4882 0.950 . S
C4887 C4889 1.327 . S
C4887 C4893 1.429 . S
C4888 C4880 1.574 . S
C4888 H4883 0.949 . S
C4888 C4894 1.368 . S
C4889 C4873 1.349 . S
C4889 H4881 0.950 . S
C4889 C4887 1.327 . S
C4890 C4878 1.349 . S
C4890 H4884 0.950 . S
C4890 C4891 1.327 . S
C4891 H4885 0.950 . S
C4891 C4890 1.327 . S
C4891 C4895 1.429 . S
C4892 C4875 1.574 . S
C4892 H4886 0.949 . S
C4892 C4896 1.368 . S
C4893 C4874 1.429 . S
C4893 C4887 1.429 . S
C4893 C4894 1.523 . S
C4894 C4875 1.368 . S
C4894 C4888 1.368 . S
C4894 C4893 1.523 . S
C4895 C4879 1.429 . S
C4895 C4891 1.429 . S
C4895 C4896 1.523 . S
C4896 C4880 1.368 . S
C4896 C4892 1.368 . S
C4896 C4895 1.523 . S
H4897 C4872 0.950 . S
H4898 C4874 0.950 . S
H4899 C4875 0.949 . S
H4900 C4877 0.950 . S
H4901 C4879 0.950 . S
C4902 C4903 1.349 . S
C4902 C4904 1.327 . S
C4902 H4927 0.950 . S
C4903 C4902 1.349 . S
C4903 C4919 1.349 . S
C4904 C4902 1.327 . S
C4904 C4923 1.429 . S
C4904 H4928 0.950 . S
C4905 C4922 1.574 1_554 S
C4905 C4924 1.368 . S
C4905 H4929 0.949 . S
H4906 C4910 0.949 . S
C4907 C4908 1.349 . S
C4907 C4909 1.327 . S
C4907 H4930 0.950 . S
C4908 C4907 1.349 . S
C4908 C4920 1.349 . S
C4909 C4907 1.327 . S
C4909 C4925 1.429 . S
C4909 H4931 0.950 . S
C4910 H4906 0.949 . S
C4910 C4918 1.574 1_556 S
C4910 C4926 1.368 . S
H4911 C4919 0.950 . S
H4912 C4917 0.950 . S
H4913 C4918 0.949 . S
H4914 C4920 0.950 . S
H4915 C4921 0.950 . S
H4916 C4922 0.949 . S
C4917 H4912 0.950 . S
C4917 C4919 1.327 . S
C4917 C4923 1.429 . S
C4918 C4910 1.574 1_554 S
C4918 H4913 0.949 . S
C4918 C4924 1.368 . S
C4919 C4903 1.349 . S
C4919 H4911 0.950 . S
C4919 C4917 1.327 . S
C4920 C4908 1.349 . S
C4920 H4914 0.950 . S
C4920 C4921 1.327 . S
C4921 H4915 0.950 . S
C4921 C4920 1.327 . S
C4921 C4925 1.429 . S
C4922 C4905 1.574 1_556 S
C4922 H4916 0.949 . S
C4922 C4926 1.368 . S
C4923 C4904 1.429 . S
C4923 C4917 1.429 . S
C4923 C4924 1.523 . S
C4924 C4905 1.368 . S
C4924 C4918 1.368 . S
C4924 C4923 1.523 . S
C4925 C4909 1.429 . S
C4925 C4921 1.429 . S
C4925 C4926 1.523 . S
C4926 C4910 1.368 . S
C4926 C4922 1.368 . S
C4926 C4925 1.523 . S
H4927 C4902 0.950 . S
H4928 C4904 0.950 . S
H4929 C4905 0.949 . S
H4930 C4907 0.950 . S
H4931 C4909 0.950 . S
C4932 C4933 1.349 . S
C4932 C4934 1.327 . S
C4932 H4957 0.950 . S
C4933 C4932 1.349 . S
C4933 C4949 1.349 . S
C4934 C4932 1.327 . S
C4934 C4953 1.429 . S
C4934 H4958 0.950 . S
C4935 C4952 1.574 . S
C4935 C4954 1.368 . S
C4935 H4959 0.949 . S
H4936 C4940 0.949 . S
C4937 C4938 1.349 . S
C4937 C4939 1.327 . S
C4937 H4960 0.950 . S
C4938 C4937 1.349 . S
C4938 C4950 1.349 . S
C4939 C4937 1.327 . S
C4939 C4955 1.429 . S
C4939 H4961 0.950 . S
C4940 H4936 0.949 . S
C4940 C4948 1.574 . S
C4940 C4956 1.368 . S
H4941 C4949 0.950 . S
H4942 C4947 0.950 . S
H4943 C4948 0.949 . S
H4944 C4950 0.950 . S
H4945 C4951 0.950 . S
H4946 C4952 0.949 . S
C4947 H4942 0.950 . S
C4947 C4949 1.327 . S
C4947 C4953 1.429 . S
C4948 C4940 1.574 . S
C4948 H4943 0.949 . S
C4948 C4954 1.368 1_565 S
C4949 C4933 1.349 . S
C4949 H4941 0.950 . S
C4949 C4947 1.327 . S
C4950 C4938 1.349 . S
C4950 H4944 0.950 . S
C4950 C4951 1.327 . S
C4951 H4945 0.950 . S
C4951 C4950 1.327 . S
C4951 C4955 1.429 . S
C4952 C4935 1.574 . S
C4952 H4946 0.949 . S
C4952 C4956 1.368 1_545 S
C4953 C4934 1.429 . S
C4953 C4947 1.429 . S
C4953 C4954 1.523 . S
C4954 C4935 1.368 . S
C4954 C4948 1.368 1_545 S
C4954 C4953 1.523 . S
C4955 C4939 1.429 . S
C4955 C4951 1.429 . S
C4955 C4956 1.523 . S
C4956 C4940 1.368 . S
C4956 C4952 1.368 1_565 S
C4956 C4955 1.523 . S
H4957 C4932 0.950 . S
H4958 C4934 0.950 . S
H4959 C4935 0.949 . S
H4960 C4937 0.950 . S
H4961 C4939 0.950 . S
C4962 C4963 1.349 . S
C4962 C4964 1.327 . S
C4962 H4987 0.950 . S
C4963 C4962 1.349 . S
C4963 C4979 1.349 . S
C4964 C4962 1.327 . S
C4964 C4983 1.429 . S
C4964 H4988 0.950 . S
C4965 C4982 1.574 . S
C4965 C4984 1.368 . S
C4965 H4989 0.949 . S
H4966 C4970 0.949 . S
C4967 C4968 1.349 . S
C4967 C4969 1.327 . S
C4967 H4990 0.950 . S
C4968 C4967 1.349 . S
C4968 C4980 1.349 . S
C4969 C4967 1.327 . S
C4969 C4985 1.429 . S
C4969 H4991 0.950 . S
C4970 H4966 0.949 . S
C4970 C4978 1.574 . S
C4970 C4986 1.368 . S
H4971 C4979 0.950 . S
H4972 C4977 0.950 . S
H4973 C4978 0.949 . S
H4974 C4980 0.950 . S
H4975 C4981 0.950 . S
H4976 C4982 0.949 . S
C4977 H4972 0.950 . S
C4977 C4979 1.327 . S
C4977 C4983 1.429 . S
C4978 C4970 1.574 . S
C4978 H4973 0.949 . S
C4978 C4984 1.368 . S
C4979 C4963 1.349 . S
C4979 H4971 0.950 . S
C4979 C4977 1.327 . S
C4980 C4968 1.349 . S
C4980 H4974 0.950 . S
C4980 C4981 1.327 . S
C4981 H4975 0.950 . S
C4981 C4980 1.327 . S
C4981 C4985 1.429 . S
C4982 C4965 1.574 . S
C4982 H4976 0.949 . S
C4982 C4986 1.368 . S
C4983 C4964 1.429 . S
C4983 C4977 1.429 . S
C4983 C4984 1.523 . S
C4984 C4965 1.368 . S
C4984 C4978 1.368 . S
C4984 C4983 1.523 . S
C4985 C4969 1.429 . S
C4985 C4981 1.429 . S
C4985 C4986 1.523 . S
C4986 C4970 1.368 . S
C4986 C4982 1.368 . S
C4986 C4985 1.523 . S
H4987 C4962 0.950 . S
H4988 C4964 0.950 . S
H4989 C4965 0.949 . S
H4990 C4967 0.950 . S
H4991 C4969 0.950 . S
C4992 C4993 1.349 . S
C4992 C4994 1.327 . S
C4992 H5017 0.950 . S
C4993 C4992 1.349 . S
C4993 C5009 1.349 . S
C4994 C4992 1.327 . S
C4994 C5013 1.429 . S
C4994 H5018 0.950 . S
C4995 C5012 1.574 . S
C4995 C5014 1.368 . S
C4995 H5019 0.949 . S
H4996 C5000 0.949 . S
C4997 C4998 1.349 . S
C4997 C4999 1.327 . S
C4997 H5020 0.950 . S
C4998 C4997 1.349 . S
C4998 C5010 1.349 . S
C4999 C4997 1.327 . S
C4999 C5015 1.429 . S
C4999 H5021 0.950 . S
C5000 H4996 0.949 . S
C5000 C5008 1.574 . S
C5000 C5016 1.368 . S
H5001 C5009 0.950 . S
H5002 C5007 0.950 . S
H5003 C5008 0.949 . S
H5004 C5010 0.950 . S
H5005 C5011 0.950 . S
H5006 C5012 0.949 . S
C5007 H5002 0.950 . S
C5007 C5009 1.327 . S
C5007 C5013 1.429 . S
C5008 C5000 1.574 . S
C5008 H5003 0.949 . S
C5008 C5014 1.368 . S
C5009 C4993 1.349 . S
C5009 H5001 0.950 . S
C5009 C5007 1.327 . S
C5010 C4998 1.349 . S
C5010 H5004 0.950 . S
C5010 C5011 1.327 . S
C5011 H5005 0.950 . S
C5011 C5010 1.327 . S
C5011 C5015 1.429 . S
C5012 C4995 1.574 . S
C5012 H5006 0.949 . S
C5012 C5016 1.368 . S
C5013 C4994 1.429 . S
C5013 C5007 1.429 . S
C5013 C5014 1.523 . S
C5014 C4995 1.368 . S
C5014 C5008 1.368 . S
C5014 C5013 1.523 . S
C5015 C4999 1.429 . S
C5015 C5011 1.429 . S
C5015 C5016 1.523 . S
C5016 C5000 1.368 . S
C5016 C5012 1.368 . S
C5016 C5015 1.523 . S
H5017 C4992 0.950 . S
H5018 C4994 0.950 . S
H5019 C4995 0.949 . S
H5020 C4997 0.950 . S
H5021 C4999 0.950 . S
C5022 C5023 1.349 . S
C5022 C5024 1.327 . S
C5022 H5047 0.950 . S
C5023 C5022 1.349 . S
C5023 C5039 1.349 . S
C5024 C5022 1.327 . S
C5024 C5043 1.429 . S
C5024 H5048 0.950 . S
C5025 C5042 1.574 . S
C5025 C5044 1.368 . S
C5025 H5049 0.949 . S
H5026 C5030 0.949 . S
C5027 C5028 1.349 . S
C5027 C5029 1.327 . S
C5027 H5050 0.950 . S
C5028 C5027 1.349 . S
C5028 C5040 1.349 . S
C5029 C5027 1.327 . S
C5029 C5045 1.429 . S
C5029 H5051 0.950 . S
C5030 H5026 0.949 . S
C5030 C5038 1.574 . S
C5030 C5046 1.368 . S
H5031 C5039 0.950 . S
H5032 C5037 0.950 . S
H5033 C5038 0.949 . S
H5034 C5040 0.950 . S
H5035 C5041 0.950 . S
H5036 C5042 0.949 . S
C5037 H5032 0.950 . S
C5037 C5039 1.327 . S
C5037 C5043 1.429 . S
C5038 C5030 1.574 . S
C5038 H5033 0.949 . S
C5038 C5044 1.368 . S
C5039 C5023 1.349 . S
C5039 H5031 0.950 . S
C5039 C5037 1.327 . S
C5040 C5028 1.349 . S
C5040 H5034 0.950 . S
C5040 C5041 1.327 . S
C5041 H5035 0.950 . S
C5041 C5040 1.327 . S
C5041 C5045 1.429 . S
C5042 C5025 1.574 . S
C5042 H5036 0.949 . S
C5042 C5046 1.368 . S
C5043 C5024 1.429 . S
C5043 C5037 1.429 . S
C5043 C5044 1.523 . S
C5044 C5025 1.368 . S
C5044 C5038 1.368 . S
C5044 C5043 1.523 . S
C5045 C5029 1.429 . S
C5045 C5041 1.429 . S
C5045 C5046 1.523 . S
C5046 C5030 1.368 . S
C5046 C5042 1.368 . S
C5046 C5045 1.523 . S
H5047 C5022 0.950 . S
H5048 C5024 0.950 . S
H5049 C5025 0.949 . S
H5050 C5027 0.950 . S
H5051 C5029 0.950 . S
C5052 C5053 1.349 . S
C5052 C5054 1.327 . S
C5052 H5077 0.950 . S
C5053 C5052 1.349 . S
C5053 C5069 1.349 . S
C5054 C5052 1.327 . S
C5054 C5073 1.429 . S
C5054 H5078 0.950 . S
C5055 C5072 1.608 . S
C5055 C5074 1.368 . S
C5055 H5079 0.949 . S
H5056 C5060 0.949 . S
C5057 C5058 1.349 . S
C5057 C5059 1.327 . S
C5057 H5080 0.950 . S
C5058 C5057 1.349 . S
C5058 C5070 1.349 . S
C5059 C5057 1.327 . S
C5059 C5075 1.429 . S
C5059 H5081 0.950 . S
C5060 H5056 0.949 . S
C5060 C5068 1.613 . S
C5060 C5076 1.368 . S
H5061 C5069 0.950 . S
H5062 C5067 0.950 . S
H5063 C5068 0.952 . S
H5064 C5070 0.950 . S
H5065 C5071 0.950 . S
H5066 C5072 0.949 . S
C5067 H5062 0.950 . S
C5067 C5069 1.327 . S
C5067 C5073 1.429 . S
C5068 C5060 1.613 . S
C5068 H5063 0.952 . S
C5068 C5074 1.329 1_655 S
C5069 C5053 1.349 . S
C5069 H5061 0.950 . S
C5069 C5067 1.327 . S
C5070 C5058 1.349 . S
C5070 H5064 0.950 . S
C5070 C5071 1.327 . S
C5071 H5065 0.950 . S
C5071 C5070 1.327 . S
C5071 C5075 1.429 . S
C5072 C5055 1.608 . S
C5072 H5066 0.949 . S
C5072 C5076 1.334 1_455 S
C5073 C5054 1.429 . S
C5073 C5067 1.429 . S
C5073 C5074 1.523 . S
C5074 C5055 1.368 . S
C5074 C5068 1.329 1_455 S
C5074 C5073 1.523 . S
C5075 C5059 1.429 . S
C5075 C5071 1.429 . S
C5075 C5076 1.523 . S
C5076 C5060 1.368 . S
C5076 C5072 1.334 1_655 S
C5076 C5075 1.523 . S
H5077 C5052 0.950 . S
H5078 C5054 0.950 . S
H5079 C5055 0.949 . S
H5080 C5057 0.950 . S
H5081 C5059 0.950 . S
C5082 C5083 1.349 . S
C5082 C5084 1.327 . S
C5082 H5107 0.950 . S
C5083 C5082 1.349 . S
C5083 C5099 1.349 . S
C5084 C5082 1.327 . S
C5084 C5103 1.429 . S
C5084 H5108 0.950 . S
C5085 C5102 1.574 1_455 S
C5085 C5104 1.368 . S
C5085 H5109 0.949 . S
H5086 C5090 0.949 . S
C5087 C5088 1.349 . S
C5087 C5089 1.327 . S
C5087 H5110 0.950 . S
C5088 C5087 1.349 . S
C5088 C5100 1.349 . S
C5089 C5087 1.327 . S
C5089 C5105 1.429 . S
C5089 H5111 0.950 . S
C5090 H5086 0.949 . S
C5090 C5098 1.574 1_655 S
C5090 C5106 1.368 . S
H5091 C5099 0.950 . S
H5092 C5097 0.950 . S
H5093 C5098 0.949 . S
H5094 C5100 0.950 . S
H5095 C5101 0.950 . S
H5096 C5102 0.949 . S
C5097 H5092 0.950 . S
C5097 C5099 1.327 . S
C5097 C5103 1.429 . S
C5098 C5090 1.574 1_455 S
C5098 H5093 0.949 . S
C5098 C5104 1.368 . S
C5099 C5083 1.349 . S
C5099 H5091 0.950 . S
C5099 C5097 1.327 . S
C5100 C5088 1.349 . S
C5100 H5094 0.950 . S
C5100 C5101 1.327 . S
C5101 H5095 0.950 . S
C5101 C5100 1.327 . S
C5101 C5105 1.429 . S
C5102 C5085 1.574 1_655 S
C5102 H5096 0.949 . S
C5102 C5106 1.368 . S
C5103 C5084 1.429 . S
C5103 C5097 1.429 . S
C5103 C5104 1.523 . S
C5104 C5085 1.368 . S
C5104 C5098 1.368 . S
C5104 C5103 1.523 . S
C5105 C5089 1.429 . S
C5105 C5101 1.429 . S
C5105 C5106 1.523 . S
C5106 C5090 1.368 . S
C5106 C5102 1.368 . S
C5106 C5105 1.523 . S
H5107 C5082 0.950 . S
H5108 C5084 0.950 . S
H5109 C5085 0.949 . S
H5110 C5087 0.950 . S
H5111 C5089 0.950 . S
C5112 C5113 1.349 . S
C5112 C5114 1.327 . S
C5112 H5137 0.950 . S
C5113 C5112 1.349 . S
C5113 C5129 1.349 . S
C5114 C5112 1.327 . S
C5114 C5133 1.429 . S
C5114 H5138 0.950 . S
C5115 C5132 1.608 . S
C5115 C5134 1.368 . S
C5115 H5139 0.949 . S
H5116 C5120 0.949 . S
C5117 C5118 1.349 . S
C5117 C5119 1.327 . S
C5117 H5140 0.950 . S
C5118 C5117 1.349 . S
C5118 C5130 1.349 . S
C5119 C5117 1.327 . S
C5119 C5135 1.429 . S
C5119 H5141 0.950 . S
C5120 H5116 0.949 . S
C5120 C5128 1.612 . S
C5120 C5136 1.368 . S
H5121 C5129 0.950 . S
H5122 C5127 0.950 . S
H5123 C5128 0.952 . S
H5124 C5130 0.950 . S
H5125 C5131 0.950 . S
H5126 C5132 0.949 . S
C5127 H5122 0.950 . S
C5127 C5129 1.327 . S
C5127 C5133 1.429 . S
C5128 C5120 1.612 . S
C5128 H5123 0.952 . S
C5128 C5134 1.330 1_655 S
C5129 C5113 1.349 . S
C5129 H5121 0.950 . S
C5129 C5127 1.327 . S
C5130 C5118 1.349 . S
C5130 H5124 0.950 . S
C5130 C5131 1.327 . S
C5131 H5125 0.950 . S
C5131 C5130 1.327 . S
C5131 C5135 1.429 . S
C5132 C5115 1.608 . S
C5132 H5126 0.949 . S
C5132 C5136 1.334 1_455 S
C5133 C5114 1.429 . S
C5133 C5127 1.429 . S
C5133 C5134 1.523 . S
C5134 C5115 1.368 . S
C5134 C5128 1.330 1_455 S
C5134 C5133 1.523 . S
C5135 C5119 1.429 . S
C5135 C5131 1.429 . S
C5135 C5136 1.523 . S
C5136 C5120 1.368 . S
C5136 C5132 1.334 1_655 S
C5136 C5135 1.523 . S
H5137 C5112 0.950 . S
H5138 C5114 0.950 . S
H5139 C5115 0.949 . S
H5140 C5117 0.950 . S
H5141 C5119 0.950 . S
C5142 C5143 1.349 . S
C5142 C5144 1.327 . S
C5142 H5167 0.950 . S
C5143 C5142 1.349 . S
C5143 C5159 1.349 . S
C5144 C5142 1.327 . S
C5144 C5163 1.429 . S
C5144 H5168 0.950 . S
C5145 C5162 1.574 . S
C5145 C5164 1.368 . S
C5145 H5169 0.949 . S
H5146 C5150 0.949 . S
C5147 C5148 1.349 . S
C5147 C5149 1.327 . S
C5147 H5170 0.950 . S
C5148 C5147 1.349 . S
C5148 C5160 1.349 . S
C5149 C5147 1.327 . S
C5149 C5165 1.429 . S
C5149 H5171 0.950 . S
C5150 H5146 0.949 . S
C5150 C5158 1.574 . S
C5150 C5166 1.368 . S
H5151 C5159 0.950 . S
H5152 C5157 0.950 . S
H5153 C5158 0.949 . S
H5154 C5160 0.950 . S
H5155 C5161 0.950 . S
H5156 C5162 0.949 . S
C5157 H5152 0.950 . S
C5157 C5159 1.327 . S
C5157 C5163 1.429 . S
C5158 C5150 1.574 . S
C5158 H5153 0.949 . S
C5158 C5164 1.368 . S
C5159 C5143 1.349 . S
C5159 H5151 0.950 . S
C5159 C5157 1.327 . S
C5160 C5148 1.349 . S
C5160 H5154 0.950 . S
C5160 C5161 1.327 . S
C5161 H5155 0.950 . S
C5161 C5160 1.327 . S
C5161 C5165 1.429 . S
C5162 C5145 1.574 . S
C5162 H5156 0.949 . S
C5162 C5166 1.368 . S
C5163 C5144 1.429 . S
C5163 C5157 1.429 . S
C5163 C5164 1.523 . S
C5164 C5145 1.368 . S
C5164 C5158 1.368 . S
C5164 C5163 1.523 . S
C5165 C5149 1.429 . S
C5165 C5161 1.429 . S
C5165 C5166 1.523 . S
C5166 C5150 1.368 . S
C5166 C5162 1.368 . S
C5166 C5165 1.523 . S
H5167 C5142 0.950 . S
H5168 C5144 0.950 . S
H5169 C5145 0.949 . S
H5170 C5147 0.950 . S
H5171 C5149 0.950 . S
C5172 C5173 1.349 . S
C5172 C5174 1.327 . S
C5172 H5197 0.950 . S
C5173 C5172 1.349 . S
C5173 C5189 1.349 . S
C5174 C5172 1.327 . S
C5174 C5193 1.429 . S
C5174 H5198 0.950 . S
C5175 C5192 1.574 . S
C5175 C5194 1.368 . S
C5175 H5199 0.949 . S
H5176 C5180 0.949 . S
C5177 C5178 1.349 . S
C5177 C5179 1.327 . S
C5177 H5200 0.950 . S
C5178 C5177 1.349 . S
C5178 C5190 1.349 . S
C5179 C5177 1.327 . S
C5179 C5195 1.429 . S
C5179 H5201 0.950 . S
C5180 H5176 0.949 . S
C5180 C5188 1.574 . S
C5180 C5196 1.368 . S
H5181 C5189 0.950 . S
H5182 C5187 0.950 . S
H5183 C5188 0.949 . S
H5184 C5190 0.950 . S
H5185 C5191 0.950 . S
H5186 C5192 0.949 . S
C5187 H5182 0.950 . S
C5187 C5189 1.327 . S
C5187 C5193 1.429 . S
C5188 C5180 1.574 . S
C5188 H5183 0.949 . S
C5188 C5194 1.368 1_545 S
C5189 C5173 1.349 . S
C5189 H5181 0.950 . S
C5189 C5187 1.327 . S
C5190 C5178 1.349 . S
C5190 H5184 0.950 . S
C5190 C5191 1.327 . S
C5191 H5185 0.950 . S
C5191 C5190 1.327 . S
C5191 C5195 1.429 . S
C5192 C5175 1.574 . S
C5192 H5186 0.949 . S
C5192 C5196 1.368 1_565 S
C5193 C5174 1.429 . S
C5193 C5187 1.429 . S
C5193 C5194 1.523 . S
C5194 C5175 1.368 . S
C5194 C5188 1.368 1_565 S
C5194 C5193 1.523 . S
C5195 C5179 1.429 . S
C5195 C5191 1.429 . S
C5195 C5196 1.523 . S
C5196 C5180 1.368 . S
C5196 C5192 1.368 1_545 S
C5196 C5195 1.523 . S
H5197 C5172 0.950 . S
H5198 C5174 0.950 . S
H5199 C5175 0.949 . S
H5200 C5177 0.950 . S
H5201 C5179 0.950 . S
C5202 C5203 1.349 . S
C5202 C5204 1.327 . S
C5202 H5227 0.950 . S
C5203 C5202 1.349 . S
C5203 C5219 1.349 . S
C5204 C5202 1.327 . S
C5204 C5223 1.429 . S
C5204 H5228 0.950 . S
C5205 C5222 1.574 1_554 S
C5205 C5224 1.368 . S
C5205 H5229 0.949 . S
H5206 C5210 0.949 . S
C5207 C5208 1.349 . S
C5207 C5209 1.327 . S
C5207 H5230 0.950 . S
C5208 C5207 1.349 . S
C5208 C5220 1.349 . S
C5209 C5207 1.327 . S
C5209 C5225 1.429 . S
C5209 H5231 0.950 . S
C5210 H5206 0.949 . S
C5210 C5218 1.574 1_556 S
C5210 C5226 1.368 . S
H5211 C5219 0.950 . S
H5212 C5217 0.950 . S
H5213 C5218 0.949 . S
H5214 C5220 0.950 . S
H5215 C5221 0.950 . S
H5216 C5222 0.949 . S
C5217 H5212 0.950 . S
C5217 C5219 1.327 . S
C5217 C5223 1.429 . S
C5218 C5210 1.574 1_554 S
C5218 H5213 0.949 . S
C5218 C5224 1.368 . S
C5219 C5203 1.349 . S
C5219 H5211 0.950 . S
C5219 C5217 1.327 . S
C5220 C5208 1.349 . S
C5220 H5214 0.950 . S
C5220 C5221 1.327 . S
C5221 H5215 0.950 . S
C5221 C5220 1.327 . S
C5221 C5225 1.429 . S
C5222 C5205 1.574 1_556 S
C5222 H5216 0.949 . S
C5222 C5226 1.368 . S
C5223 C5204 1.429 . S
C5223 C5217 1.429 . S
C5223 C5224 1.523 . S
C5224 C5205 1.368 . S
C5224 C5218 1.368 . S
C5224 C5223 1.523 . S
C5225 C5209 1.429 . S
C5225 C5221 1.429 . S
C5225 C5226 1.523 . S
C5226 C5210 1.368 . S
C5226 C5222 1.368 . S
C5226 C5225 1.523 . S
H5227 C5202 0.950 . S
H5228 C5204 0.950 . S
H5229 C5205 0.949 . S
H5230 C5207 0.950 . S
H5231 C5209 0.950 . S
C1633 C927 1.235 . S
C1638 C20 1.270 . S
C1663 C54 1.271 . S
C1668 C825 1.235 . S
C1693 C88 1.270 . S
C1698 C859 1.235 . S
C1723 C893 1.235 . S
C1728 C122 1.270 . S
C1753 C156 1.270 . S
C1758 C179 1.235 . S
C1783 C213 1.235 . S
C1788 C190 1.271 . S
C1813 C247 1.235 . S
C1818 C224 1.271 . S
C1843 C258 1.270 . S
C1848 C145 1.235 . S
C1873 C292 1.270 . S
C1878 C1437 1.235 . S
C1903 C326 1.270 . S
C1908 C1471 1.235 . S
C1933 C360 1.271 . S
C1938 C689 1.236 . S
C1963 C1403 1.235 . S
C1968 C394 1.271 . S
C1993 C1573 1.235 . S
C1998 C428 1.270 . S
C2023 C553 1.235 . S
C2028 C462 1.270 . S
C2053 C496 1.271 . S
C2058 C1607 1.235 . S
C2083 C530 1.270 . S
C2088 C1539 1.235 . S
C2113 C315 1.235 . S
C2118 C564 1.270 . S
C2143 C1335 1.236 . S
C2148 C598 1.271 . S
C2173 C1233 1.235 . S
C2178 C632 1.270 . S
C2203 C1267 1.235 . S
C2208 C666 1.270 . S
C2233 C700 1.270 . S
C2238 C485 1.235 . S
C2263 C734 1.271 . S
C2268 C1199 1.235 . S
C2293 C1097 1.235 . S
C2298 C768 1.271 . S
C2323 C802 1.271 . S
C2328 C1165 1.235 . S
C2353 C836 1.270 . S
C2358 C111 1.235 . S
C2383 C870 1.270 . S
C2388 C9 1.235 . S
C2413 C43 1.235 . S
C2418 C904 1.270 . S
C2443 C77 1.235 . S
C2448 C938 1.270 . S
C2473 C995 1.235 . S
C2478 C972 1.271 . S
C2503 C1029 1.235 . S
C2508 C1006 1.271 . S
C2533 C1040 1.271 . S
C2538 C1063 1.236 . S
C2563 C1074 1.270 . S
C2568 C961 1.235 . S
C2593 C1108 1.270 . S
C2598 C621 1.235 . S
C2623 C655 1.235 . S
C2628 C1142 1.270 . S
C2653 C1505 1.235 . S
C2658 C1176 1.271 . S
C2683 C1210 1.271 . S
C2688 C587 1.235 . S
C2713 C757 1.235 . S
C2718 C1244 1.270 . S
C2743 C1278 1.271 . S
C2748 C1369 1.235 . S
C2773 C1312 1.270 . S
C2778 C791 1.235 . S
C2803 C723 1.235 . S
C2808 C1346 1.270 . S
C2833 C1131 1.235 . S
C2838 C1380 1.270 . S
C2863 C519 1.235 . S
C2868 C1414 1.271 . S
C2893 C1448 1.270 . S
C2898 C417 1.235 . S
C2923 C451 1.235 . S
C2928 C1482 1.270 . S
C2953 C1516 1.270 . S
C2958 C1301 1.235 . S
C2983 C1550 1.270 . S
C2988 C383 1.235 . S
C3013 C281 1.235 . S
C3018 C1584 1.270 . S
C3043 C349 1.235 . S
C3048 C1618 1.271 . S
C3073 C1430 0.511 . S
C3078 C33 0.527 . S
C3103 C1464 0.511 . S
C3108 C67 0.527 . S
C3133 C682 0.511 . S
C3138 C101 0.527 . S
C3163 C1396 0.511 . S
C3168 C135 0.527 . S
C3193 C169 0.527 . S
C3198 C1566 0.511 . S
C3223 C546 0.511 . S
C3228 C203 0.527 . S
C3253 C1600 0.511 . S
C3258 C237 0.527 . S
C3283 C271 0.527 . S
C3288 C1532 0.511 . S
C3313 C305 0.527 . S
C3318 C308 0.511 . S
C3343 C342 0.511 . S
C3348 C339 0.527 . S
C3373 C376 0.511 . S
C3378 C373 0.527 . S
C3403 C274 0.511 . S
C3408 C407 0.527 . S
C3433 C1328 0.511 . S
C3438 C441 0.527 . S
C3463 C1226 0.511 . S
C3468 C475 0.527 . S
C3493 C1260 0.511 . S
C3498 C509 0.527 . S
C3523 C543 0.527 . S
C3528 C1294 0.511 . S
C3553 C920 0.511 . S
C3558 C577 0.527 . S
C3583 C611 0.527 . S
C3588 C172 0.511 . S
C3613 C206 0.511 . S
C3618 C645 0.527 . S
C3643 C240 0.511 . S
C3648 C679 0.527 . S
C3673 C713 0.527 . S
C3678 C954 0.511 . S
C3703 C36 0.511 . S
C3708 C747 0.527 . S
C3733 C781 0.527 . S
C3738 C70 0.511 . S
C3763 C815 0.527 . S
C3768 C2 0.511 . S
C3793 C614 0.511 . S
C3798 C849 0.527 . S
C3823 C648 0.511 . S
C3828 C883 0.527 . S
C3853 C917 0.527 . S
C3858 C1498 0.511 . S
C3883 C951 0.527 . S
C3888 C580 0.511 . S
C3913 C750 0.511 . S
C3918 C985 0.527 . S
C3943 C1362 0.511 . S
C3948 C1019 0.527 . S
C3973 C784 0.511 . S
C3978 C1053 0.527 . S
C4003 C1087 0.527 . S
C4008 C716 0.511 . S
C4033 C1121 0.527 . S
C4038 C1124 0.511 . S
C4063 C1158 0.511 . S
C4068 C1155 0.527 . S
C4093 C1189 0.527 . S
C4098 C1192 0.511 . S
C4123 C1223 0.527 . S
C4128 C1090 0.511 . S
C4153 C1257 0.527 . S
C4158 C512 0.511 . S
C4183 C410 0.511 . S
C4188 C1291 0.527 . S
C4213 C444 0.511 . S
C4218 C1325 0.527 . S
C4243 C478 0.511 . S
C4248 C1359 0.527 . S
C4273 C104 0.511 . S
C4278 C1393 0.527 . S
C4303 C988 0.511 . S
C4308 C1427 0.527 . S
C4333 C1461 0.527 . S
C4338 C1022 0.511 . S
C4363 C1495 0.527 . S
C4368 C1056 0.511 . S
C4393 C1529 0.527 . S
C4398 C138 0.511 . S
C4423 C1563 0.527 . S
C4428 C852 0.511 . S
C4453 C1597 0.527 . S
C4458 C886 0.511 . S
C4483 C818 0.511 . S
C4488 C1631 0.527 . S
C4513 C5 0.700 . S
C4518 C1025 0.700 . S
C4543 C39 0.700 . S
C4548 C1059 0.700 . S
C4573 C957 0.700 . S
C4578 C73 0.700 . S
C4603 C991 0.700 . S
C4608 C107 0.700 . S
C4633 C141 0.700 . S
C4638 C889 0.700 . S
C4663 C923 0.700 . S
C4668 C175 0.700 . S
C4693 C821 0.700 . S
C4698 C209 0.700 . S
C4723 C855 0.700 . S
C4728 C243 0.700 . S
C4753 C277 0.700 . S
C4758 C345 0.700 . S
C4783 C311 0.700 . S
C4788 C379 0.700 . S
C4813 C481 0.700 . S
C4818 C413 0.700 . S
C4843 C447 0.700 . S
C4848 C515 0.700 . S
C4873 C549 0.700 . S
C4878 C583 0.700 . S
C4903 C1603 0.700 . S
C4908 C617 0.700 . S
C4933 C1535 0.700 . S
C4938 C651 0.700 . S
C4963 C685 0.700 . S
C4968 C753 0.700 . S
C4993 C719 0.700 . S
C4998 C1467 0.700 . S
C5023 C787 0.700 . S
C5028 C1433 0.700 . S
C5053 C1161 0.700 . S
C5058 C1093 0.700 . S
C5083 C1195 0.700 . S
C5088 C1127 0.700 . S
C5113 C1297 0.700 . S
C5118 C1229 0.700 . S
C5143 C1331 0.700 . S
C5148 C1263 0.700 . S
C5173 C1365 0.700 . S
C5178 C1399 0.700 . S
C5203 C1569 0.700 . S
C5208 C1501 0.700 . S
