# Generated by pormake.
# Topology wji, (4)-cn, num edge types: 1
# Building blocks:
#     Node 0, Type 0, BuildingBlock: TATPOV_clean_sbu_0, # of connection points: 4
#     Node 1, Type 0, BuildingBlock: TATPOV_clean_sbu_0, # of connection points: 4
#     Node 2, Type 0, BuildingBlock: TATPOV_clean_sbu_0, # of connection points: 4
#     Node 3, Type 0, BuildingBlock: TATPOV_clean_sbu_0, # of connection points: 4
#     Node 4, Type 0, BuildingBlock: TATPOV_clean_sbu_0, # of connection points: 4
#     Node 5, Type 0, BuildingBlock: TATPOV_clean_sbu_0, # of connection points: 4
#     Node 6, Type 0, BuildingBlock: TATPOV_clean_sbu_0, # of connection points: 4
#     Node 7, Type 0, BuildingBlock: TATPOV_clean_sbu_0, # of connection points: 4
#     Node 8, Type 0, BuildingBlock: TATPOV_clean_sbu_0, # of connection points: 4
#     Node 9, Type 0, BuildingBlock: TATPOV_clean_sbu_0, # of connection points: 4
#     Node 10, Type 0, BuildingBlock: TATPOV_clean_sbu_0, # of connection points: 4
#     Node 11, Type 0, BuildingBlock: TATPOV_clean_sbu_0, # of connection points: 4
#     Edge 12, Type (0, 0), BuildingBlock: MIFKUJ_clean_linker_0, # of connection points: 2
#     Edge 13, Type (0, 0), BuildingBlock: MIFKUJ_clean_linker_0, # of connection points: 2
#     Edge 14, Type (0, 0), BuildingBlock: MIFKUJ_clean_linker_0, # of connection points: 2
#     Edge 15, Type (0, 0), BuildingBlock: MIFKUJ_clean_linker_0, # of connection points: 2
#     Edge 16, Type (0, 0), BuildingBlock: MIFKUJ_clean_linker_0, # of connection points: 2
#     Edge 17, Type (0, 0), BuildingBlock: MIFKUJ_clean_linker_0, # of connection points: 2
#     Edge 18, Type (0, 0), BuildingBlock: MIFKUJ_clean_linker_0, # of connection points: 2
#     Edge 19, Type (0, 0), BuildingBlock: MIFKUJ_clean_linker_0, # of connection points: 2
#     Edge 20, Type (0, 0), BuildingBlock: MIFKUJ_clean_linker_0, # of connection points: 2
#     Edge 21, Type (0, 0), BuildingBlock: MIFKUJ_clean_linker_0, # of connection points: 2
#     Edge 22, Type (0, 0), BuildingBlock: MIFKUJ_clean_linker_0, # of connection points: 2
#     Edge 23, Type (0, 0), BuildingBlock: MIFKUJ_clean_linker_0, # of connection points: 2
#     Edge 24, Type (0, 0), BuildingBlock: MIFKUJ_clean_linker_0, # of connection points: 2
#     Edge 25, Type (0, 0), BuildingBlock: MIFKUJ_clean_linker_0, # of connection points: 2
#     Edge 26, Type (0, 0), BuildingBlock: MIFKUJ_clean_linker_0, # of connection points: 2
#     Edge 27, Type (0, 0), BuildingBlock: MIFKUJ_clean_linker_0, # of connection points: 2
#     Edge 28, Type (0, 0), BuildingBlock: MIFKUJ_clean_linker_0, # of connection points: 2
#     Edge 29, Type (0, 0), BuildingBlock: MIFKUJ_clean_linker_0, # of connection points: 2
#     Edge 30, Type (0, 0), BuildingBlock: MIFKUJ_clean_linker_0, # of connection points: 2
#     Edge 31, Type (0, 0), BuildingBlock: MIFKUJ_clean_linker_0, # of connection points: 2
#     Edge 32, Type (0, 0), BuildingBlock: MIFKUJ_clean_linker_0, # of connection points: 2
#     Edge 33, Type (0, 0), BuildingBlock: MIFKUJ_clean_linker_0, # of connection points: 2
#     Edge 34, Type (0, 0), BuildingBlock: MIFKUJ_clean_linker_0, # of connection points: 2
#     Edge 35, Type (0, 0), BuildingBlock: MIFKUJ_clean_linker_0, # of connection points: 2
# Relax obj value: 0.208
# Max RMSD: 0.098
# Mean RMSD: 0.098
data_MOF--net-wji--node1-TATPOV_clean_sbu_0--edge1-MIFKUJ_clean_linker_0
_symmetry_space_group_name_H-M    P1
_symmetry_Int_Tables_number       1
_symmetry_cell_setting            triclinic
loop_
_symmetry_equiv_pos_as_xyz
'x, y, z'
_cell_length_a     74.443111
_cell_length_b     74.506314
_cell_length_c     28.479535
_cell_angle_alpha  90.07073
_cell_angle_beta   90.003044
_cell_angle_gamma 119.95212
loop_
_atom_site_label
_atom_site_type_symbol
_atom_site_fract_x
_atom_site_fract_y
_atom_site_fract_z
_atom_type_partial_charge
Zn0 Zn 0.44452 0.37633 0.34451 0.0
Zn1 Zn 0.42719 0.32001 0.39544 0.0
O2 O 0.45835 0.3309 0.38004 0.0
O3 O 0.45049 0.3528 0.35351 0.0
O4 O 0.41851 0.29599 0.44011 0.0
O5 O 0.43375 0.37647 0.41059 0.0
O6 O 0.42431 0.3436 0.43163 0.0
C7 C 0.4647 0.34879 0.36343 0.0
C8 C 0.41236 0.32937 0.31988 0.0
O9 O 0.40781 0.31186 0.33676 0.0
O10 O 0.42867 0.34465 0.33646 0.0
C11 C 0.41481 0.27817 0.42676 0.0
O12 O 0.41526 0.27464 0.38169 0.0
C13 C 0.42581 0.36135 0.43989 0.0
Zn14 Zn 0.04932 0.40935 0.55529 0.0
Zn15 Zn 0.08498 0.41251 0.57483 0.0
O16 O 0.09234 0.44336 0.56635 0.0
O17 O 0.06145 0.43992 0.55709 0.0
O18 O 0.11207 0.41445 0.59472 0.0
O19 O 0.03623 0.39267 0.61343 0.0
O20 O 0.06741 0.39919 0.63378 0.0
C21 C 0.08084 0.45146 0.56148 0.0
C22 C 0.05977 0.38846 0.48759 0.0
O23 O 0.07468 0.39285 0.51606 0.0
O24 O 0.04742 0.39516 0.49493 0.0
C25 C 0.12108 0.42584 0.63021 0.0
O26 O 0.11305 0.43632 0.6493 0.0
C27 C 0.04824 0.39153 0.64318 0.0
Zn28 Zn 0.63966 0.07303 0.70453 0.0
Zn29 Zn 0.67817 0.10031 0.73325 0.0
O30 O 0.66208 0.11656 0.73108 0.0
O31 O 0.63052 0.09409 0.70706 0.0
O32 O 0.70662 0.12141 0.75845 0.0
O33 O 0.6366 0.05516 0.76101 0.0
O34 O 0.6677 0.07867 0.78524 0.0
C35 C 0.6437 0.11216 0.72021 0.0
C36 C 0.67049 0.07586 0.64067 0.0
O37 O 0.68308 0.08798 0.67181 0.0
O38 O 0.65118 0.06863 0.64528 0.0
C39 C 0.71362 0.14086 0.75694 0.0
O40 O 0.70298 0.14791 0.73458 0.0
C41 C 0.65111 0.0614 0.79092 0.0
Zn42 Zn 0.57389 0.64218 0.84099 0.0
Zn43 Zn 0.57499 0.67587 0.8715 0.0
O44 O 0.54376 0.6563 0.85526 0.0
O45 O 0.54307 0.62738 0.83604 0.0
O46 O 0.57513 0.70084 0.89976 0.0
O47 O 0.5877 0.64009 0.89995 0.0
O48 O 0.58468 0.66596 0.92816 0.0
C49 C 0.53359 0.63725 0.8432 0.0
C50 C 0.60045 0.67692 0.78521 0.0
O51 O 0.59677 0.68682 0.81688 0.0
O52 O 0.59122 0.65735 0.78587 0.0
C53 C 0.59163 0.71617 0.91577 0.0
O54 O 0.60938 0.71666 0.90994 0.0
C55 C 0.58977 0.65213 0.93348 0.0
Zn56 Zn 0.93242 0.56946 0.0589 0.0
Zn57 Zn 0.90695 0.58147 0.09506 0.0
O58 O 0.8891 0.54932 0.09092 0.0
O59 O 0.91035 0.53965 0.06143 0.0
O60 O 0.8872 0.5893 0.12563 0.0
O61 O 0.95218 0.58306 0.11339 0.0
O62 O 0.93001 0.59113 0.14429 0.0
C63 C 0.89269 0.53515 0.07694 0.0
C64 C 0.92817 0.59786 -0.00079 0.0
O65 O 0.91729 0.59866 0.03298 0.0
O66 O 0.93545 0.58575 0.00119 0.0
C67 C 0.86855 0.58201 0.11204 0.0
O68 O 0.86209 0.56994 0.07487 0.0
C69 C 0.94708 0.59108 0.14629 0.0
Zn70 Zn 0.36157 0.92866 0.17575 0.0
Zn71 Zn 0.32715 0.90164 0.2202 0.0
O72 O 0.34222 0.88521 0.20381 0.0
O73 O 0.36993 0.90742 0.16452 0.0
O74 O 0.3014 0.88032 0.25418 0.0
O75 O 0.37107 0.94607 0.23507 0.0
O76 O 0.34255 0.92329 0.27104 0.0
C77 C 0.35889 0.88958 0.18194 0.0
C78 C 0.32562 0.92572 0.13345 0.0
O79 O 0.31643 0.91339 0.16754 0.0
O80 O 0.34496 0.93363 0.12791 0.0
C81 C 0.30417 0.873 0.29207 0.0
O82 O 0.32323 0.87944 0.30627 0.0
C83 C 0.35987 0.94012 0.27159 0.0
Zn84 Zn 0.63779 0.5789 0.45896 0.0
Zn85 Zn 0.67251 0.58342 0.4217 0.0
O86 O 0.65358 0.55155 0.43168 0.0
O87 O 0.62483 0.54818 0.46177 0.0
O88 O 0.69769 0.58527 0.38932 0.0
O89 O 0.63347 0.59257 0.40211 0.0
O90 O 0.66145 0.59465 0.37067 0.0
C91 C 0.63519 0.54006 0.44716 0.0
C92 C 0.67335 0.60601 0.51325 0.0
O93 O 0.68321 0.60337 0.47971 0.0
O94 O 0.65375 0.59621 0.51367 0.0
C95 C 0.71623 0.59344 0.4043 0.0
O96 O 0.72079 0.60202 0.44616 0.0
C97 C 0.64608 0.59766 0.36818 0.0
Zn98 Zn 0.06474 0.6294 0.66966 0.0
Zn99 Zn 0.10898 0.68371 0.61904 0.0
O100 O 0.12602 0.66926 0.63501 0.0
O101 O 0.09549 0.6502 0.6617 0.0
O102 O 0.12706 0.70818 0.57742 0.0
O103 O 0.05526 0.63131 0.60343 0.0
O104 O 0.08205 0.66233 0.58029 0.0
C105 C 0.11275 0.65178 0.65103 0.0
C106 C 0.08449 0.67678 0.69348 0.0
O107 O 0.09886 0.69362 0.67688 0.0
O108 O 0.08391 0.66056 0.67781 0.0
C109 C 0.1461 0.71938 0.5881 0.0
O110 O 0.153 0.71508 0.62649 0.0
C111 C 0.0645 0.64569 0.57274 0.0
Zn112 Zn 0.43874 0.06923 0.79051 0.0
Zn113 Zn 0.42765 0.095 0.75532 0.0
O114 O 0.45851 0.11372 0.77466 0.0
O115 O 0.46594 0.0926 0.81284 0.0
O116 O 0.42035 0.11483 0.72379 0.0
O117 O 0.43647 0.0562 0.72721 0.0
O118 O 0.4243 0.07571 0.70029 0.0
C119 C 0.4713 0.1106 0.79811 0.0
C120 C 0.40139 0.06415 0.83191 0.0
O121 O 0.4051 0.07988 0.80704 0.0
O122 O 0.41345 0.05679 0.83053 0.0
C123 C 0.42462 0.13242 0.74007 0.0
O124 O 0.43369 0.13825 0.78127 0.0
C125 C 0.42883 0.06149 0.69395 0.0
Zn126 Zn 0.36032 0.43283 0.9426 0.0
Zn127 Zn 0.32346 0.42306 0.90994 0.0
O128 O 0.33966 0.45543 0.91668 0.0
O129 O 0.36916 0.46253 0.94989 0.0
O130 O 0.29597 0.41723 0.88178 0.0
O131 O 0.36687 0.42278 0.88304 0.0
O132 O 0.3353 0.41278 0.85776 0.0
C133 C 0.35727 0.46858 0.9338 0.0
C134 C 0.32808 0.40333 0.00082 0.0
O135 O 0.31618 0.40484 0.97071 0.0
O136 O 0.34754 0.41387 0.99648 0.0
C137 C 0.28745 0.4278 0.89284 0.0
O138 O 0.29599 0.44201 0.9257 0.0
C139 C 0.35296 0.41425 0.85195 0.0
Zn140 Zn 0.92596 0.35612 0.15995 0.0
Zn141 Zn 0.89706 0.32188 0.11748 0.0
O142 O 0.88363 0.34025 0.12826 0.0
O143 O 0.90743 0.36835 0.16392 0.0
O144 O 0.87416 0.29734 0.08309 0.0
O145 O 0.94492 0.36149 0.1039 0.0
O146 O 0.92015 0.33379 0.06888 0.0
C147 C 0.88945 0.35796 0.14661 0.0
C148 C 0.91748 0.31934 0.20933 0.0
O149 O 0.9057 0.31019 0.17429 0.0
O150 O 0.9267 0.33888 0.21264 0.0
C151 C 0.87485 0.2814 0.06975 0.0
O152 O 0.891 0.27959 0.08088 0.0
C153 C 0.93841 0.34936 0.06889 0.0
Zn154 Zn 0.57222 0.92674 0.27851 0.0
Zn155 Zn 0.57793 0.8966 0.25694 0.0
O156 O 0.54567 0.88306 0.25869 0.0
O157 O 0.54234 0.91079 0.25986 0.0
O158 O 0.58316 0.87359 0.23503 0.0
O159 O 0.59337 0.94556 0.23143 0.0
O160 O 0.59122 0.9172 0.20229 0.0
C161 C 0.53432 0.89138 0.25618 0.0
C162 C 0.59271 0.91934 0.35155 0.0
O163 O 0.59443 0.90819 0.31969 0.0
O164 O 0.58113 0.92701 0.34478 0.0
C165 C 0.56907 0.85474 0.23009 0.0
O166 O 0.5501 0.84896 0.24378 0.0
C167 C 0.59767 0.93654 0.19943 0.0
H168 H 0.33008 0.41176 0.09318 0.0
H169 H 0.33468 0.39113 0.15343 0.0
H170 H 0.31622 0.34109 0.05461 0.0
H171 H 0.31136 0.36172 0.99424 0.0
H172 H 0.30965 0.33102 0.16494 0.0
H173 H 0.36105 0.36883 0.04136 0.0
H174 H 0.38067 0.39959 0.99121 0.0
H175 H 0.40452 0.43804 0.1138 0.0
H176 H 0.38487 0.40748 0.16461 0.0
H177 H 0.38085 0.30088 0.26374 0.0
H178 H 0.35829 0.30722 0.21146 0.0
H179 H 0.38871 0.371 0.25703 0.0
H180 H 0.41145 0.36495 0.30738 0.0
H181 H 0.38661 0.36993 0.16733 0.0
H182 H 0.33791 0.33253 0.29194 0.0
H183 H 0.31763 0.30262 0.3439 0.0
H184 H 0.28824 0.26397 0.22392 0.0
H185 H 0.30854 0.29361 0.17121 0.0
C186 C 0.32559 0.39583 0.0853 0.0
C187 C 0.32022 0.38824 0.03931 0.0
C188 C 0.32834 0.38407 0.11967 0.0
C189 C 0.32603 0.3647 0.10825 0.0
C190 C 0.31792 0.35593 0.06419 0.0
C191 C 0.31502 0.3677 0.02977 0.0
C192 C 0.33728 0.3568 0.13666 0.0
C193 C 0.32646 0.33928 0.16522 0.0
C194 C 0.35919 0.36768 0.13708 0.0
C195 C 0.37141 0.38595 0.10667 0.0
C196 C 0.37042 0.38387 0.05755 0.0
C197 C 0.38157 0.40125 0.02904 0.0
C198 C 0.3938 0.42076 0.04931 0.0
C199 C 0.39502 0.42292 0.09815 0.0
C200 C 0.38393 0.40557 0.12681 0.0
C201 C 0.38263 0.31621 0.26247 0.0
C202 C 0.39812 0.33249 0.28914 0.0
C203 C 0.36965 0.31979 0.23288 0.0
C204 C 0.37172 0.3396 0.23033 0.0
C205 C 0.38688 0.35563 0.25795 0.0
C206 C 0.39996 0.35216 0.28672 0.0
C207 C 0.35914 0.34437 0.19734 0.0
C208 C 0.36979 0.36139 0.16727 0.0
C209 C 0.33714 0.333 0.19597 0.0
C210 C 0.32491 0.31522 0.22764 0.0
C211 C 0.32724 0.31761 0.27663 0.0
C212 C 0.31572 0.30072 0.30622 0.0
C213 C 0.3017 0.28139 0.28722 0.0
C214 C 0.29913 0.27894 0.23859 0.0
C215 C 0.31062 0.29578 0.20885 0.0
H216 H 0.2928 0.26833 0.31018 0.0
H217 H 0.40236 0.43421 0.02717 0.0
H218 H 0.05346 0.34918 0.49252 0.0
H219 H 0.03131 0.32103 0.43835 0.0
H220 H 0.03003 0.36577 0.34426 0.0
H221 H 0.05201 0.39352 0.3978 0.0
H222 H 0.99344 0.31184 0.42562 0.0
H223 H 0.01674 0.35074 0.23857 0.0
H224 H 0.04839 0.3687 0.19058 0.0
H225 H 0.0767 0.34086 0.27146 0.0
H226 H 0.04511 0.32242 0.31954 0.0
H227 H 0.92336 0.32538 0.30281 0.0
H228 H 0.94753 0.31966 0.34857 0.0
H229 H 0.95289 0.28452 0.23424 0.0
H230 H 0.92857 0.29049 0.18793 0.0
H231 H 0.98892 0.31528 0.25255 0.0
H232 H 0.94055 0.26327 0.34818 0.0
H233 H 0.90904 0.24329 0.39576 0.0
H234 H 0.93113 0.2929 0.49606 0.0
H235 H 0.96262 0.31334 0.44882 0.0
C236 C 0.04939 0.353 0.45895 0.0
C237 C 0.05447 0.37347 0.44905 0.0
C238 C 0.03654 0.3369 0.42824 0.0
C239 C 0.0289 0.34117 0.38708 0.0
C240 C 0.03592 0.36193 0.37513 0.0
C241 C 0.04853 0.37789 0.40584 0.0
C242 C 0.01062 0.32459 0.36169 0.0
C243 C 0.99251 0.31223 0.38768 0.0
C244 C 0.00947 0.3242 0.31207 0.0
C245 C 0.02846 0.33512 0.28272 0.0
C246 C 0.02961 0.34824 0.24589 0.0
C247 C 0.04758 0.35857 0.21872 0.0
C248 C 0.06454 0.35592 0.22795 0.0
C249 C 0.06356 0.34292 0.26438 0.0
C250 C 0.04563 0.33254 0.29165 0.0
C251 C 0.92882 0.31549 0.28839 0.0
C252 C 0.92416 0.30843 0.24188 0.0
C253 C 0.94269 0.31216 0.31465 0.0
C254 C 0.95221 0.3017 0.29494 0.0
C255 C 0.94577 0.29263 0.25026 0.0
C256 C 0.93169 0.29586 0.22397 0.0
C257 C 0.97158 0.30441 0.31694 0.0
C258 C 0.9899 0.31413 0.2903 0.0
C259 C 0.97294 0.30202 0.36587 0.0
C260 C 0.95405 0.28984 0.39488 0.0
C261 C 0.93867 0.26998 0.38028 0.0
C262 C 0.9208 0.25856 0.40722 0.0
C263 C 0.9181 0.26681 0.44894 0.0
C264 C 0.93328 0.2865 0.46381 0.0
C265 C 0.95118 0.29799 0.43701 0.0
H266 H 0.90424 0.25795 0.46973 0.0
H267 H 0.07845 0.36394 0.2069 0.0
H268 H 0.58447 0.92819 0.4384 0.0
H269 H 0.61001 0.9534 0.4923 0.0
H270 H 0.65929 0.95532 0.40881 0.0
H271 H 0.63358 0.92999 0.35434 0.0
H272 H 0.64352 0.9632 0.5467 0.0
H273 H 0.69355 0.00696 0.38988 0.0
H274 H 0.69176 0.00695 0.30325 0.0
H275 H 0.62626 0.9843 0.31008 0.0
H276 H 0.62777 0.98451 0.39667 0.0
H277 H 0.69842 0.06232 0.64727 0.0
H278 H 0.69825 0.03536 0.59728 0.0
H279 H 0.65577 0.04034 0.50232 0.0
H280 H 0.65607 0.06716 0.55168 0.0
H281 H 0.67899 0.02849 0.45515 0.0
H282 H 0.63848 0.00941 0.60101 0.0
H283 H 0.63521 0.00958 0.68724 0.0
H284 H 0.67434 0.98281 0.7021 0.0
H285 H 0.67807 0.98278 0.61589 0.0
C286 C 0.60071 0.93325 0.43271 0.0
C287 C 0.60706 0.92734 0.39193 0.0
C288 C 0.61534 0.94768 0.46361 0.0
C289 C 0.6366 0.95663 0.45404 0.0
C290 C 0.64296 0.94879 0.41658 0.0
C291 C 0.62824 0.93417 0.38567 0.0
C292 C 0.6512 0.97652 0.47748 0.0
C293 C 0.65179 0.97744 0.52672 0.0
C294 C 0.66175 0.99519 0.45151 0.0
C295 C 0.66075 0.99549 0.39958 0.0
C296 C 0.6788 0.00205 0.37282 0.0
C297 C 0.67783 0.00201 0.32376 0.0
C298 C 0.6589 0.99555 0.30118 0.0
C299 C 0.64091 0.98925 0.3276 0.0
C300 C 0.64182 0.98934 0.37664 0.0
C301 C 0.68995 0.05841 0.61442 0.0
C302 C 0.67713 0.06668 0.6034 0.0
C303 C 0.68967 0.04284 0.58614 0.0
C304 C 0.6766 0.03546 0.54664 0.0
C305 C 0.66592 0.04565 0.53267 0.0
C306 C 0.66611 0.06104 0.56089 0.0
C307 C 0.6709 0.01523 0.52438 0.0
C308 C 0.67179 0.01423 0.47528 0.0
C309 C 0.66119 0.99653 0.55048 0.0
C310 C 0.65877 0.99633 0.60216 0.0
C311 C 0.64647 0.00367 0.62272 0.0
C312 C 0.64454 0.00374 0.67156 0.0
C313 C 0.65461 0.99627 0.70014 0.0
C314 C 0.66659 0.98865 0.67992 0.0
C315 C 0.66864 0.98861 0.63109 0.0
H316 H 0.6531 0.99634 0.73794 0.0
H317 H 0.65817 0.99548 0.26321 0.0
H318 H 0.70404 0.64595 0.49832 0.0
H319 H 0.71031 0.67547 0.54802 0.0
H320 H 0.67048 0.63304 0.65448 0.0
H321 H 0.6646 0.60395 0.60558 0.0
H322 H 0.68123 0.68312 0.56381 0.0
H323 H 0.67415 0.65133 0.75697 0.0
H324 H 0.69152 0.63716 0.80551 0.0
H325 H 0.74462 0.66518 0.71483 0.0
H326 H 0.72775 0.67984 0.66607 0.0
H327 H 0.59911 0.66824 0.69312 0.0
H328 H 0.62858 0.67427 0.64546 0.0
H329 H 0.67025 0.7139 0.75353 0.0
H330 H 0.64031 0.70748 0.80195 0.0
H331 H 0.67827 0.68499 0.73748 0.0
H332 H 0.67516 0.73185 0.6361 0.0
H333 H 0.66044 0.74869 0.58744 0.0
H334 H 0.63323 0.69606 0.49516 0.0
H335 H 0.64747 0.67873 0.54357 0.0
C336 C 0.69764 0.64304 0.53347 0.0
C337 C 0.6838 0.62271 0.54819 0.0
C338 C 0.70104 0.65992 0.56168 0.0
C339 C 0.69083 0.65662 0.60512 0.0
C340 C 0.67891 0.63622 0.62172 0.0
C341 C 0.67546 0.61948 0.59359 0.0
C342 C 0.68866 0.67334 0.62858 0.0
C343 C 0.68099 0.6839 0.60179 0.0
C344 C 0.68937 0.67541 0.67807 0.0
C345 C 0.69966 0.66676 0.7078 0.0
C346 C 0.68962 0.65469 0.74758 0.0
C347 C 0.69936 0.6465 0.77509 0.0
C348 C 0.71916 0.65027 0.76327 0.0
C349 C 0.72927 0.66225 0.72391 0.0
C350 C 0.71961 0.67048 0.69628 0.0
C351 C 0.61455 0.67909 0.70569 0.0
C352 C 0.61745 0.6874 0.75109 0.0
C353 C 0.63151 0.68262 0.67831 0.0
C354 C 0.65181 0.69458 0.69569 0.0
C355 C 0.65479 0.70464 0.73925 0.0
C356 C 0.63768 0.70117 0.76671 0.0
C357 C 0.66877 0.69268 0.67264 0.0
C358 C 0.67928 0.68498 0.69951 0.0
C359 C 0.67115 0.69371 0.62324 0.0
C360 C 0.6625 0.704 0.59353 0.0
C361 C 0.66597 0.72381 0.60554 0.0
C362 C 0.6577 0.73345 0.57798 0.0
C363 C 0.64594 0.72347 0.5382 0.0
C364 C 0.64241 0.70381 0.5259 0.0
C365 C 0.65064 0.69409 0.55334 0.0
H366 H 0.63954 0.73095 0.51693 0.0
H367 H 0.72666 0.6439 0.7846 0.0
H368 H 0.04606 0.64342 0.70523 0.0
H369 H 0.01758 0.64082 0.75191 0.0
H370 H 0.05502 0.70472 0.79381 0.0
H371 H 0.08398 0.70753 0.74617 0.0
H372 H 0.03429 0.67608 0.86916 0.0
H373 H 0.01693 0.69494 0.72444 0.0
H374 H 0.01213 0.69418 0.63868 0.0
H375 H 0.96443 0.6303 0.64607 0.0
H376 H 0.96915 0.63055 0.73179 0.0
H377 H 0.94408 0.63975 0.00345 0.0
H378 H 0.96786 0.66447 0.94513 0.0
H379 H 0.95341 0.61389 0.85001 0.0
H380 H 0.92978 0.58944 0.90773 0.0
H381 H 0.96395 0.64885 0.80143 0.0
H382 H 0.99058 0.62749 0.93512 0.0
H383 H 0.99585 0.62513 0.01995 0.0
H384 H 0.02643 0.6914 0.03164 0.0
H385 H 0.02105 0.6941 0.94692 0.0
C386 C 0.04839 0.65697 0.72431 0.0
C387 C 0.06738 0.67565 0.72224 0.0
C388 C 0.03196 0.65551 0.75067 0.0
C389 C 0.03408 0.67264 0.77584 0.0
C390 C 0.05304 0.69137 0.77427 0.0
C391 C 0.06952 0.69294 0.74716 0.0
C392 C 0.01658 0.6701 0.80552 0.0
C393 C 0.01902 0.67085 0.85441 0.0
C394 C 0.99662 0.66298 0.7862 0.0
C395 C 0.99343 0.66278 0.73465 0.0
C396 C 0.00548 0.68069 0.70778 0.0
C397 C 0.00277 0.68036 0.65915 0.0
C398 C 0.98799 0.66221 0.63694 0.0
C399 C 0.97586 0.64436 0.66334 0.0
C400 C 0.97851 0.64461 0.71198 0.0
C401 C 0.94519 0.63411 0.96911 0.0
C402 C 0.93526 0.61273 0.96004 0.0
C403 C 0.95893 0.6482 0.93599 0.0
C404 C 0.96279 0.64098 0.89363 0.0
C405 C 0.95079 0.61987 0.88243 0.0
C406 C 0.93724 0.60586 0.91546 0.0
C407 C 0.98156 0.65405 0.86494 0.0
C408 C 0.97936 0.6551 0.81623 0.0
C409 C 0.00174 0.66257 0.88431 0.0
C410 C 0.00519 0.66098 0.93498 0.0
C411 C 0.99833 0.64154 0.95589 0.0
C412 C 0.00133 0.64014 0.0039 0.0
C413 C 0.01141 0.6581 0.0312 0.0
C414 C 0.01857 0.6775 0.01048 0.0
C415 C 0.01554 0.67898 0.96249 0.0
H416 H 0.01372 0.65699 0.06837 0.0
H417 H 0.98593 0.66197 0.59928 0.0
H418 H 0.38266 0.07866 0.89323 0.0
H419 H 0.35383 0.05721 0.94722 0.0
H420 H 0.34833 0.00198 0.88397 0.0
H421 H 0.37662 0.02306 0.831 0.0
H422 H 0.31073 0.99525 0.90968 0.0
H423 H 0.38143 0.02656 0.97918 0.0
H424 H 0.41425 0.05681 0.00526 0.0
H425 H 0.38036 0.07681 0.09212 0.0
H426 H 0.34734 0.04674 0.06612 0.0
H427 H 0.32295 0.92453 0.03886 0.0
H428 H 0.3185 0.94901 0.99048 0.0
H429 H 0.30297 0.97213 0.1138 0.0
H430 H 0.30692 0.94707 0.16225 0.0
H431 H 0.3384 0.00128 0.07081 0.0
H432 H 0.26973 0.95777 0.02352 0.0
H433 H 0.23866 0.92574 0.99762 0.0
H434 H 0.26901 0.92687 0.86859 0.0
H435 H 0.3004 0.9587 0.89392 0.0
C436 C 0.37482 0.06194 0.89029 0.0
C437 C 0.38196 0.05244 0.85861 0.0
C438 C 0.35842 0.04971 0.92105 0.0
C439 C 0.34901 0.02794 0.91992 0.0
C440 C 0.3552 0.01867 0.88555 0.0
C441 C 0.37153 0.03075 0.85552 0.0
C442 C 0.33514 0.01447 0.95788 0.0
C443 C 0.31652 0.99664 0.94523 0.0
C444 C 0.34224 0.01664 0.00476 0.0
C445 C 0.362 0.03464 0.02031 0.0
C446 C 0.38102 0.0375 0.00364 0.0
C447 C 0.39963 0.05458 0.01841 0.0
C448 C 0.39939 0.06876 0.0502 0.0
C449 C 0.38052 0.06585 0.06738 0.0
C450 C 0.36186 0.04881 0.05264 0.0
C451 C 0.31739 0.93399 0.05518 0.0
C452 C 0.31507 0.93383 0.10404 0.0
C453 C 0.31487 0.94804 0.02756 0.0
C454 C 0.3104 0.96246 0.04849 0.0
C455 C 0.30624 0.96104 0.09688 0.0
C456 C 0.30834 0.94663 0.12446 0.0
C457 C 0.31485 0.98129 0.02154 0.0
C458 C 0.33177 1.00018 0.03627 0.0
C459 C 0.30631 0.97991 0.97645 0.0
C460 C 0.28746 0.96072 0.96068 0.0
C461 C 0.26984 0.95115 0.98971 0.0
C462 C 0.25215 0.93301 0.97511 0.0
C463 C 0.25185 0.92429 0.93147 0.0
C464 C 0.26925 0.93368 0.90234 0.0
C465 C 0.28699 0.95181 0.91676 0.0
H466 H 0.23815 0.91024 0.92024 0.0
H467 H 0.41381 0.08198 0.06162 0.0
H468 H 0.60078 0.51217 0.49423 0.0
H469 H 0.57931 0.4754 0.47815 0.0
H470 H 0.62377 0.47897 0.37595 0.0
H471 H 0.64538 0.51625 0.39151 0.0
H472 H 0.58665 0.46107 0.33866 0.0
H473 H 0.61391 0.4491 0.47585 0.0
H474 H 0.62599 0.45339 0.55785 0.0
H475 H 0.56434 0.43359 0.60686 0.0
H476 H 0.55192 0.42947 0.52518 0.0
H477 H 0.49792 0.34576 0.39498 0.0
H478 H 0.53386 0.37391 0.40389 0.0
H479 H 0.51699 0.41694 0.34584 0.0
H480 H 0.4815 0.38897 0.33559 0.0
H481 H 0.54846 0.40627 0.45726 0.0
H482 H 0.55549 0.45655 0.2929 0.0
H483 H 0.54516 0.45111 0.20955 0.0
H484 H 0.54207 0.39201 0.21179 0.0
H485 H 0.55268 0.39721 0.29496 0.0
C486 C 0.60628 0.5051 0.46904 0.0
C487 C 0.62473 0.51718 0.4439 0.0
C488 C 0.59402 0.48397 0.46011 0.0
C489 C 0.59993 0.4743 0.42602 0.0
C490 C 0.61891 0.48608 0.40251 0.0
C491 C 0.63131 0.50735 0.41161 0.0
C492 C 0.58493 0.45269 0.41155 0.0
C493 C 0.57849 0.44897 0.36446 0.0
C494 C 0.57468 0.43663 0.44487 0.0
C495 C 0.58199 0.43901 0.49425 0.0
C496 C 0.60294 0.44577 0.50409 0.0
C497 C 0.60985 0.44816 0.55054 0.0
C498 C 0.59594 0.44378 0.58754 0.0
C499 C 0.57509 0.43696 0.57816 0.0
C500 C 0.5681 0.43455 0.53177 0.0
C501 C 0.502 0.36117 0.38337 0.0
C502 C 0.48682 0.36515 0.3648 0.0
C503 C 0.52253 0.37725 0.3886 0.0
C504 C 0.52826 0.39756 0.37513 0.0
C505 C 0.51316 0.40138 0.35557 0.0
C506 C 0.49275 0.38535 0.35012 0.0
C507 C 0.5494 0.41518 0.38497 0.0
C508 C 0.55695 0.41814 0.43118 0.0
C509 C 0.56096 0.43036 0.35062 0.0
C510 C 0.55482 0.42725 0.30032 0.0
C511 C 0.55276 0.44246 0.27556 0.0
C512 C 0.54681 0.4394 0.22834 0.0
C513 C 0.54293 0.42121 0.20541 0.0
C514 C 0.54503 0.40607 0.22963 0.0
C515 C 0.55099 0.40905 0.27683 0.0
H516 H 0.53831 0.41887 0.16887 0.0
H517 H 0.60133 0.44564 0.62348 0.0
H518 H 0.12175 0.48268 0.56938 0.0
H519 H 0.13454 0.51994 0.57901 0.0
H520 H 0.07169 0.5083 0.57153 0.0
H521 H 0.05909 0.47177 0.56014 0.0
H522 H 0.09443 0.54124 0.52604 0.0
H523 H 0.09935 0.51489 0.67849 0.0
H524 H 0.11186 0.49824 0.73427 0.0
H525 H 0.17478 0.54548 0.70766 0.0
H526 H 0.16261 0.56227 0.65131 0.0
H527 H 0.08398 0.61152 0.66892 0.0
H528 H 0.08626 0.58076 0.6505 0.0
H529 H 0.14946 0.61918 0.60508 0.0
H530 H 0.14722 0.65032 0.62252 0.0
H531 H 0.13475 0.57743 0.66849 0.0
H532 H 0.12553 0.60581 0.52159 0.0
H533 H 0.10878 0.62152 0.4758 0.0
H534 H 0.04912 0.56812 0.50114 0.0
H535 H 0.06551 0.55226 0.54779 0.0
C536 C 0.11075 0.48818 0.56921 0.0
C537 C 0.08939 0.47419 0.56409 0.0
C538 C 0.11805 0.50945 0.57499 0.0
C539 C 0.10407 0.51698 0.57649 0.0
C540 C 0.08286 0.50302 0.57024 0.0
C541 C 0.07564 0.48199 0.56391 0.0
C542 C 0.11089 0.53911 0.58623 0.0
C543 C 0.10341 0.54913 0.55701 0.0
C544 C 0.1228 0.54968 0.62635 0.0
C545 C 0.1301 0.53966 0.66028 0.0
C546 C 0.11586 0.52163 0.68432 0.0
C547 C 0.12288 0.51218 0.71606 0.0
C548 C 0.14411 0.52075 0.72437 0.0
C549 C 0.15835 0.53883 0.70109 0.0
C550 C 0.1514 0.54832 0.66926 0.0
C551 C 0.09847 0.61354 0.65559 0.0
C552 C 0.11532 0.63339 0.64654 0.0
C553 C 0.09976 0.59592 0.64529 0.0
C554 C 0.11798 0.59778 0.62631 0.0
C555 C 0.1353 0.61751 0.61986 0.0
C556 C 0.13395 0.63523 0.62967 0.0
C557 C 0.11783 0.579 0.60893 0.0
C558 C 0.12643 0.56969 0.63672 0.0
C559 C 0.10653 0.56881 0.56814 0.0
C560 C 0.09675 0.57792 0.53839 0.0
C561 C 0.10884 0.59747 0.51757 0.0
C562 C 0.0994 0.6064 0.49146 0.0
C563 C 0.07789 0.59585 0.48564 0.0
C564 C 0.06578 0.57628 0.50569 0.0
C565 C 0.07514 0.5673 0.5319 0.0
H566 H 0.07061 0.60282 0.46557 0.0
H567 H 0.14952 0.51342 0.74894 0.0
H568 H 0.49326 0.14263 0.73731 0.0
H569 H 0.53075 0.1596 0.72482 0.0
H570 H 0.53703 0.13066 0.84994 0.0
H571 H 0.49969 0.11368 0.86256 0.0
H572 H 0.57362 0.16925 0.82784 0.0
H573 H 0.52335 0.10287 0.75445 0.0
H574 H 0.49256 0.08179 0.70513 0.0
H575 H 0.52157 0.1234 0.58958 0.0
H576 H 0.55239 0.14491 0.63859 0.0
H577 H 0.63442 0.12239 0.80372 0.0
H578 H 0.6124 0.13754 0.81643 0.0
H579 H 0.61408 0.14994 0.66784 0.0
H580 H 0.63501 0.13334 0.65509 0.0
H581 H 0.57728 0.12997 0.69095 0.0
H582 H 0.63266 0.1898 0.75968 0.0
H583 H 0.66312 0.21052 0.80999 0.0
H584 H 0.6262 0.18301 0.93305 0.0
H585 H 0.59558 0.16188 0.88355 0.0
C586 C 0.50274 0.14069 0.7634 0.0
C587 C 0.49353 0.12647 0.80035 0.0
C588 C 0.52418 0.15038 0.75616 0.0
C589 C 0.53658 0.14602 0.78593 0.0
C590 C 0.52775 0.13418 0.82645 0.0
C591 C 0.50636 0.12438 0.83349 0.0
C592 C 0.55696 0.14932 0.76991 0.0
C593 C 0.57465 0.16089 0.7977 0.0
C594 C 0.55831 0.13875 0.72997 0.0
C595 C 0.54002 0.12559 0.70025 0.0
C596 C 0.52309 0.10755 0.71859 0.0
C597 C 0.50565 0.09554 0.69072 0.0
C598 C 0.50509 0.10128 0.64428 0.0
C599 C 0.522 0.119 0.62558 0.0
C600 C 0.53945 0.13111 0.65339 0.0
C601 C 0.63073 0.12912 0.77414 0.0
C602 C 0.63648 0.12696 0.72856 0.0
C603 C 0.61819 0.13791 0.78137 0.0
C604 C 0.61158 0.14514 0.74317 0.0
C605 C 0.61889 0.1445 0.69794 0.0
C606 C 0.63097 0.13518 0.69062 0.0
C607 C 0.59434 0.14968 0.74937 0.0
C608 C 0.57694 0.13924 0.71996 0.0
C609 C 0.59344 0.16142 0.78768 0.0
C610 C 0.6118 0.17419 0.81778 0.0
C611 C 0.63104 0.18807 0.79746 0.0
C612 C 0.64835 0.19991 0.82585 0.0
C613 C 0.6466 0.19808 0.87468 0.0
C614 C 0.62753 0.18443 0.89522 0.0
C615 C 0.61018 0.17255 0.867 0.0
H616 H 0.66002 0.20724 0.89659 0.0
H617 H 0.49156 0.09197 0.62276 0.0
H618 H 0.50631 0.65148 0.86142 0.0
H619 H 0.46835 0.63052 0.86684 0.0
H620 H 0.47149 0.57612 0.82799 0.0
H621 H 0.50868 0.59679 0.82048 0.0
H622 H 0.43885 0.57238 0.79193 0.0
H623 H 0.47103 0.5927 0.94847 0.0
H624 H 0.49088 0.61832 0.01022 0.0
H625 H 0.44777 0.64072 0.00579 0.0
H626 H 0.42779 0.61532 0.94367 0.0
H627 H 0.38819 0.49873 0.98524 0.0
H628 H 0.40918 0.53484 0.96385 0.0
H629 H 0.36641 0.52636 0.85214 0.0
H630 H 0.34557 0.48951 0.87253 0.0
H631 H 0.41083 0.56949 0.95141 0.0
H632 H 0.3944 0.55231 0.75702 0.0
H633 H 0.37876 0.5228 0.70169 0.0
H634 H 0.39666 0.48817 0.79164 0.0
H635 H 0.41255 0.51755 0.84716 0.0
C636 C 0.49879 0.63512 0.85312 0.0
C637 C 0.5106 0.6258 0.84107 0.0
C638 C 0.4771 0.62314 0.85642 0.0
C639 C 0.46697 0.60161 0.84849 0.0
C640 C 0.47876 0.59265 0.83411 0.0
C641 C 0.5002 0.60455 0.83019 0.0
C642 C 0.44458 0.58764 0.85911 0.0
C643 C 0.43254 0.57203 0.8265 0.0
C644 C 0.43614 0.58712 0.90401 0.0
C645 C 0.44813 0.60238 0.9411 0.0
C646 C 0.46589 0.60319 0.96052 0.0
C647 C 0.47714 0.61765 0.99557 0.0
C648 C 0.47064 0.6312 0.01179 0.0
C649 C 0.45283 0.63027 0.99308 0.0
C650 C 0.44154 0.61586 0.95795 0.0
C651 C 0.38289 0.5046 0.95683 0.0
C652 C 0.36555 0.49115 0.92973 0.0
C653 C 0.39488 0.5254 0.9448 0.0
C654 C 0.38975 0.5333 0.9055 0.0
C655 C 0.37095 0.52052 0.88197 0.0
C656 C 0.35895 0.49949 0.89384 0.0
C657 C 0.406 0.55339 0.88561 0.0
C658 C 0.4167 0.57033 0.91611 0.0
C659 C 0.41377 0.55463 0.83958 0.0
C660 C 0.40435 0.53696 0.80641 0.0
C661 C 0.39497 0.53838 0.76489 0.0
C662 C 0.38609 0.5217 0.73353 0.0
C663 C 0.38664 0.50359 0.74323 0.0
C664 C 0.39618 0.50217 0.78423 0.0
C665 C 0.40512 0.51882 0.81563 0.0
H666 H 0.37974 0.49069 0.71894 0.0
H667 H 0.47936 0.64237 0.03894 0.0
H668 H 0.88835 0.38554 0.20729 0.0
H669 H 0.87365 0.40788 0.1927 0.0
H670 H 0.84776 0.37607 0.06204 0.0
H671 H 0.86212 0.35326 0.07704 0.0
H672 H 0.87645 0.41875 0.05398 0.0
H673 H 0.81499 0.37526 0.13898 0.0
H674 H 0.79405 0.35351 0.20498 0.0
H675 H 0.82241 0.40608 0.29734 0.0
H676 H 0.84376 0.42811 0.23208 0.0
H677 H 0.8702 0.50662 0.0102 0.0
H678 H 0.85423 0.46898 0.01889 0.0
H679 H 0.86808 0.47695 0.16723 0.0
H680 H 0.88274 0.51434 0.15881 0.0
H681 H 0.83611 0.44031 0.15456 0.0
H682 H 0.9038 0.47953 0.0819 0.0
H683 H 0.92854 0.50251 0.02206 0.0
H684 H 0.89266 0.45908 0.91386 0.0
H685 H 0.86755 0.43596 0.97311 0.0
C686 C 0.87893 0.38284 0.17623 0.0
C687 C 0.87648 0.36777 0.14315 0.0
C688 C 0.87044 0.39554 0.16804 0.0
C689 C 0.85959 0.39361 0.12632 0.0
C690 C 0.85596 0.37768 0.09461 0.0
C691 C 0.86412 0.36465 0.10327 0.0
C692 C 0.85559 0.41049 0.11265 0.0
C693 C 0.86706 0.4231 0.075 0.0
C694 C 0.84391 0.41649 0.14111 0.0
C695 C 0.83105 0.40333 0.18057 0.0
C696 C 0.81688 0.38217 0.17342 0.0
C697 C 0.80491 0.36979 0.21071 0.0
C698 C 0.80691 0.3784 0.25534 0.0
C699 C 0.82087 0.39943 0.26275 0.0
C700 C 0.83288 0.41188 0.22558 0.0
C701 C 0.86883 0.50014 0.04493 0.0
C702 C 0.87752 0.51318 0.08393 0.0
C703 C 0.85992 0.47869 0.04987 0.0
C704 C 0.86055 0.47015 0.09346 0.0
C705 C 0.86746 0.48309 0.13319 0.0
C706 C 0.87582 0.50447 0.12844 0.0
C707 C 0.85743 0.44883 0.09664 0.0
C708 C 0.84484 0.43553 0.13247 0.0
C709 C 0.86858 0.44237 0.06736 0.0
C710 C 0.88368 0.45618 0.03177 0.0
C711 C 0.90114 0.47496 0.0453 0.0
C712 C 0.91522 0.48799 0.01152 0.0
C713 C 0.91213 0.48229 0.96417 0.0
C714 C 0.89499 0.4635 0.95053 0.0
C715 C 0.88082 0.45043 0.98418 0.0
H716 H 0.92306 0.4924 0.93806 0.0
H717 H 0.79763 0.36879 0.28416 0.0
H718 H 0.35043 0.85822 0.24429 0.0
H719 H 0.37201 0.84237 0.25795 0.0
H720 H 0.4089 0.87416 0.1366 0.0
H721 H 0.38732 0.88955 0.12238 0.0
H722 H 0.40828 0.83858 0.14731 0.0
H723 H 0.42016 0.89702 0.24768 0.0
H724 H 0.40968 0.91426 0.3069 0.0
H725 H 0.39543 0.86497 0.40432 0.0
H726 H 0.40566 0.84737 0.34542 0.0
H727 H 0.51407 0.89836 0.18712 0.0
H728 H 0.47666 0.88186 0.17542 0.0
H729 H 0.46661 0.84108 0.2922 0.0
H730 H 0.5045 0.85729 0.30301 0.0
H731 H 0.44669 0.86667 0.29652 0.0
H732 H 0.44959 0.81738 0.19649 0.0
H733 H 0.46379 0.80503 0.13425 0.0
H734 H 0.45354 0.84141 0.03239 0.0
H735 H 0.43957 0.85426 0.09408 0.0
C736 C 0.36265 0.86116 0.21953 0.0
C737 C 0.36743 0.87542 0.18273 0.0
C738 C 0.37505 0.8522 0.22755 0.0
C739 C 0.39239 0.85746 0.19896 0.0
C740 C 0.39571 0.86991 0.15934 0.0
C741 C 0.38339 0.87882 0.15134 0.0
C742 C 0.40899 0.85302 0.21334 0.0
C743 C 0.41654 0.84445 0.18019 0.0
C744 C 0.41955 0.86025 0.25672 0.0
C745 C 0.41337 0.87076 0.29204 0.0
C746 C 0.41466 0.88982 0.28165 0.0
C747 C 0.40879 0.89965 0.31514 0.0
C748 C 0.40182 0.89067 0.35928 0.0
C749 C 0.40077 0.87187 0.37006 0.0
C750 C 0.40659 0.86196 0.33666 0.0
C751 C 0.50389 0.88551 0.20951 0.0
C752 C 0.51202 0.87902 0.24585 0.0
C753 C 0.48255 0.87604 0.20271 0.0
C754 C 0.46889 0.86016 0.23273 0.0
C755 C 0.47695 0.85318 0.2684 0.0
C756 C 0.49849 0.86237 0.27448 0.0
C757 C 0.44647 0.85315 0.22955 0.0
C758 C 0.43789 0.85975 0.26468 0.0
C759 C 0.43528 0.84458 0.18755 0.0
C760 C 0.44351 0.83679 0.15004 0.0
C761 C 0.45046 0.82284 0.16087 0.0
C762 C 0.45846 0.81574 0.12566 0.0
C763 C 0.45956 0.82242 0.0794 0.0
C764 C 0.45264 0.83621 0.06823 0.0
C765 C 0.44463 0.84338 0.10331 0.0
H766 H 0.46578 0.81692 0.0522 0.0
H767 H 0.3973 0.89831 0.38517 0.0
H768 H 0.39097 0.42579 0.8159 0.0
H769 H 0.39908 0.41329 0.74416 0.0
H770 H 0.33394 0.37222 0.71887 0.0
H771 H 0.32553 0.38507 0.79042 0.0
H772 H 0.37071 0.35828 0.71587 0.0
H773 H 0.34344 0.40072 0.65024 0.0
H774 H 0.34121 0.43267 0.64907 0.0
H775 H 0.40696 0.46893 0.62734 0.0
H776 H 0.40959 0.4372 0.62909 0.0
H777 H 0.39203 0.33262 0.48834 0.0
H778 H 0.37595 0.33863 0.55699 0.0
H779 H 0.4247 0.40269 0.55997 0.0
H780 H 0.44001 0.39697 0.48983 0.0
H781 H 0.39097 0.40203 0.57281 0.0
H782 H 0.42045 0.36324 0.64012 0.0
H783 H 0.42643 0.33366 0.64808 0.0
H784 H 0.3615 0.29296 0.67323 0.0
H785 H 0.35511 0.32226 0.66484 0.0
C786 C 0.37833 0.41406 0.7952 0.0
C787 C 0.3576 0.4064 0.8087 0.0
C788 C 0.38301 0.40696 0.75432 0.0
C789 C 0.36709 0.39187 0.72659 0.0
C790 C 0.34637 0.38388 0.74011 0.0
C791 C 0.34163 0.39129 0.78071 0.0
C792 C 0.37249 0.38507 0.68288 0.0
C793 C 0.3747 0.36748 0.68404 0.0
C794 C 0.37835 0.3976 0.64239 0.0
C795 C 0.37673 0.41662 0.64023 0.0
C796 C 0.35743 0.41553 0.64559 0.0
C797 C 0.35609 0.43359 0.64475 0.0
C798 C 0.37394 0.45283 0.63827 0.0
C799 C 0.39315 0.45403 0.6324 0.0
C800 C 0.39457 0.43601 0.63325 0.0
C801 C 0.39938 0.34791 0.50404 0.0
C802 C 0.41726 0.36433 0.48395 0.0
C803 C 0.39021 0.35133 0.54333 0.0
C804 C 0.39918 0.37109 0.56408 0.0
C805 C 0.41736 0.38735 0.54451 0.0
C806 C 0.42619 0.38406 0.5046 0.0
C807 C 0.3895 0.37515 0.60536 0.0
C808 C 0.38661 0.39241 0.604 0.0
C809 C 0.38343 0.3625 0.64604 0.0
C810 C 0.38727 0.34489 0.65132 0.0
C811 C 0.40743 0.34795 0.64702 0.0
C812 C 0.4109 0.33124 0.65166 0.0
C813 C 0.39435 0.31143 0.661 0.0
C814 C 0.3743 0.3083 0.66589 0.0
C815 C 0.37075 0.32496 0.66124 0.0
H816 H 0.39706 0.29852 0.66456 0.0
H817 H 0.37288 0.46679 0.63769 0.0
H818 H 0.92764 0.33231 0.98146 0.0
H819 H 0.95059 0.3373 0.91563 0.0
H820 H 0.00359 0.3783 0.00012 0.0
H821 H 0.98057 0.37399 0.06572 0.0
H822 H 0.00783 0.39407 0.91791 0.0
H823 H 0.99225 0.32783 0.97232 0.0
H824 H 0.9705 0.29185 -0.00051 0.0
H825 H 0.93974 0.27484 0.8658 0.0
H826 H 0.96109 0.31079 0.83801 0.0
H827 H 0.07012 0.39771 0.72458 0.0
H828 H 0.05581 0.38749 0.80392 0.0
H829 H 0.99394 0.35549 0.74642 0.0
H830 H 0.00802 0.36571 0.66737 0.0
H831 H 1.00027 0.33464 0.82348 0.0
H832 H 0.01256 0.40346 0.7783 0.0
H833 H 0.03537 0.43944 0.75208 0.0
H834 H 0.07444 0.45096 0.87242 0.0
H835 H 0.05198 0.41493 0.89899 0.0
C836 C 0.94418 0.34239 0.98605 0.0
C837 C 0.9523 0.35275 0.02876 0.0
C838 C 0.95731 0.34509 0.94851 0.0
C839 C 0.97888 0.3578 0.95325 0.0
C840 C 0.98702 0.36832 0.99575 0.0
C841 C 0.97385 0.36587 0.03315 0.0
C842 C 0.99271 0.36076 0.91297 0.0
C843 C 0.00651 0.38104 0.89802 0.0
C844 C 0.99103 0.34379 0.8868 0.0
C845 C 0.97821 0.32207 0.90317 0.0
C846 C 0.98076 0.31646 0.94879 0.0
C847 C 0.96851 0.29606 0.9643 0.0
C848 C 0.95373 0.28108 0.93441 0.0
C849 C 0.9512 0.28646 0.88891 0.0
C850 C 0.9634 0.30685 0.87324 0.0
C851 C 0.0535 0.38812 0.72882 0.0
C852 C 0.04014 0.38273 0.68992 0.0
C853 C 0.04538 0.38233 0.77408 0.0
C854 C 0.02384 0.37091 0.78083 0.0
C855 C 0.0106 0.36429 0.7418 0.0
C856 C 0.01866 0.37026 0.69673 0.0
C857 C 0.01477 0.3678 0.82825 0.0
C858 C 0.00189 0.34756 0.84435 0.0
C859 C 0.01749 0.38476 0.85587 0.0
C860 C 0.03074 0.40648 0.84032 0.0
C861 C 0.02609 0.41364 0.79898 0.0
C862 C 0.03894 0.43404 0.78409 0.0
C863 C 0.05638 0.44746 0.81049 0.0
C864 C 0.06095 0.44054 0.85196 0.0
C865 C 0.04817 0.42014 0.86696 0.0
H866 H 0.06632 0.46325 0.79889 0.0
H867 H 0.94425 0.26529 0.94649 0.0
H868 H 0.62868 0.97655 0.1958 0.0
H869 H 0.64353 0.9977 0.12556 0.0
H870 H 0.60534 0.94455 0.03844 0.0
H871 H 0.59151 0.92307 0.10879 0.0
H872 H 0.63961 0.96774 0.99441 0.0
H873 H 0.59002 0.98042 0.07314 0.0
H874 H 0.57483 0.9893 0.14 0.0
H875 H 0.62989 0.0489 0.15122 0.0
H876 H 0.64551 0.04026 0.08476 0.0
H877 H 0.62352 0.02026 0.80299 0.0
H878 H 0.61948 0.99906 0.87204 0.0
H879 H 0.66938 0.05208 0.94111 0.0
H880 H 0.6737 0.0734 0.87202 0.0
H881 H 0.63199 0.03023 0.99404 0.0
H882 H 0.67882 0.01676 0.90426 0.0
H883 H 0.69002 0.00662 0.83242 0.0
H884 H 0.63535 0.94652 0.83673 0.0
H885 H 0.62363 0.95643 0.90819 0.0
C886 C 0.62383 0.96934 0.16158 0.0
C887 C 0.60879 0.94832 0.15748 0.0
C888 C 0.63222 0.98142 0.1215 0.0
C889 C 0.62504 0.97288 0.07673 0.0
C890 C 0.61102 0.95153 0.07258 0.0
C891 C 0.60308 0.93928 0.11273 0.0
C892 C 0.63064 0.98649 0.03486 0.0
C893 C 0.63784 0.98133 0.99428 0.0
C894 C 0.62842 0.00431 0.0346 0.0
C895 C 0.61901 0.00961 0.07434 0.0
C896 C 0.59893 0.99537 0.09006 0.0
C897 C 0.59024 0.00036 0.12786 0.0
C898 C 0.60141 0.01963 0.14993 0.0
C899 C 0.62127 0.03397 0.13414 0.0
C900 C 0.63004 0.02904 0.0964 0.0
C901 C 0.63366 0.0274 0.83283 0.0
C902 C 0.64886 0.04851 0.83224 0.0
C903 C 0.63143 0.01525 0.87205 0.0
C904 C 0.64423 0.02403 0.91136 0.0
C905 C 0.65943 0.04506 0.9109 0.0
C906 C 0.66187 0.05718 0.87146 0.0
C907 C 0.64096 0.01149 0.95395 0.0
C908 C 0.63405 0.0168 0.99452 0.0
C909 C 0.64296 0.99359 0.95366 0.0
C910 C 0.65026 0.9874 0.91142 0.0
C911 C 0.66911 0.00143 0.88975 0.0
C912 C 0.67557 0.99571 0.8491 0.0
C913 C 0.66338 0.97595 0.82996 0.0
C914 C 0.64476 0.96183 0.85158 0.0
C915 C 0.63822 0.96748 0.89219 0.0
H916 H 0.66838 0.97158 0.79842 0.0
H917 H 0.59466 0.02346 0.17919 0.0
H918 H 0.58099 0.66086 0.02068 0.0
H919 H 0.59246 0.65445 0.09612 0.0
H920 H 0.62917 0.63296 0.02355 0.0
H921 H 0.61667 0.63812 0.94836 0.0
H922 H 0.60968 0.60769 0.08805 0.0
H923 H 0.65015 0.68211 0.08481 0.0
H924 H 0.65581 0.71755 0.07741 0.0
H925 H 0.61653 0.70739 0.19657 0.0
H926 H 0.61046 0.6718 0.20439 0.0
H927 H 0.66604 0.60459 0.28394 0.0
H928 H 0.65862 0.61727 0.21152 0.0
H929 H 0.61107 0.62381 0.28268 0.0
H930 H 0.61831 0.61109 0.35534 0.0
H931 H 0.63654 0.65741 0.22095 0.0
H932 H 0.596 0.58262 0.22153 0.0
H933 H 0.5911 0.54746 0.22851 0.0
H934 H 0.63232 0.55942 0.11232 0.0
H935 H 0.63769 0.59478 0.10509 0.0
C936 C 0.59163 0.65491 0.02099 0.0
C937 C 0.59789 0.64987 0.97886 0.0
C938 C 0.5983 0.65139 0.06408 0.0
C939 C 0.61192 0.64346 0.06565 0.0
C940 C 0.61861 0.63901 0.02335 0.0
C941 C 0.6115 0.64198 0.9804 0.0
C942 C 0.61825 0.63856 0.11111 0.0
C943 C 0.61591 0.61877 0.11667 0.0
C944 C 0.62585 0.65274 0.14916 0.0
C945 C 0.62972 0.67424 0.14495 0.0
C946 C 0.64264 0.68741 0.1093 0.0
C947 C 0.64594 0.70753 0.10506 0.0
C948 C 0.63652 0.71471 0.13647 0.0
C949 C 0.62383 0.70181 0.17229 0.0
C950 C 0.62048 0.68167 0.17668 0.0
C951 C 0.65413 0.6089 0.28436 0.0
C952 C 0.64261 0.60664 0.32525 0.0
C953 C 0.64994 0.61614 0.24298 0.0
C954 C 0.63422 0.62132 0.24186 0.0
C955 C 0.62327 0.6199 0.283 0.0
C956 C 0.62734 0.6125 0.32433 0.0
C957 C 0.62827 0.62683 0.197 0.0
C958 C 0.63052 0.64656 0.19186 0.0
C959 C 0.62078 0.61272 0.15906 0.0
C960 C 0.6174 0.5914 0.16308 0.0
C961 C 0.60414 0.5778 0.19771 0.0
C962 C 0.60126 0.55783 0.20167 0.0
C963 C 0.61143 0.55123 0.17096 0.0
C964 C 0.62447 0.56456 0.13612 0.0
C965 C 0.62742 0.58456 0.13206 0.0
H966 H 0.60918 0.53576 0.17408 0.0
H967 H 0.63904 0.73027 0.13306 0.0
H968 H 0.08199 0.65695 0.48553 0.0
H969 H 0.06376 0.64998 0.41011 0.0
H970 H 0.00516 0.62243 0.48332 0.0
H971 H 0.02324 0.62833 0.55805 0.0
H972 H 0.00153 0.59894 0.4161 0.0
H973 H 0.02923 0.67244 0.4281 0.0
H974 H 0.05649 0.70897 0.43777 0.0
H975 H 0.087 0.705 0.31352 0.0
H976 H 0.06006 0.66836 0.30343 0.0
H977 H 0.9367 0.59832 0.23334 0.0
H978 H 0.95874 0.61037 0.30331 0.0
H979 H 0.01032 0.61598 0.22271 0.0
H980 H 0.9883 0.60357 0.15261 0.0
H981 H 0.01874 0.6508 0.28971 0.0
H982 H 0.98906 0.57627 0.2801 0.0
H983 H 0.96004 0.54049 0.27152 0.0
H984 H 0.93116 0.54796 0.39474 0.0
H985 H 0.95988 0.58392 0.40362 0.0
C986 C 0.06523 0.64956 0.48529 0.0
C987 C 0.05398 0.6431 0.52739 0.0
C988 C 0.05482 0.64566 0.44228 0.0
C989 C 0.03304 0.63583 0.44092 0.0
C990 C 0.02193 0.62989 0.48328 0.0
C991 C 0.03226 0.63331 0.52599 0.0
C992 C 0.02159 0.63077 0.39565 0.0
C993 C 0.00521 0.61043 0.38887 0.0
C994 C 0.02658 0.64555 0.35941 0.0
C995 C 0.04275 0.6676 0.3653 0.0
C996 C 0.04184 0.67932 0.40303 0.0
C997 C 0.05722 0.70005 0.40856 0.0
C998 C 0.0735 0.70928 0.37636 0.0
C999 C 0.0744 0.69782 0.33848 0.0
C1000 C 0.05907 0.67707 0.33282 0.0
C1001 C 0.95278 0.60231 0.23037 0.0
C1002 C 0.96074 0.59984 0.18762 0.0
C1003 C 0.96533 0.60919 0.27031 0.0
C1004 C 0.98607 0.61398 0.26797 0.0
C1005 C 0.99433 0.61238 0.225 0.0
C1006 C 0.9817 0.60517 0.18518 0.0
C1007 C 0.99867 0.61926 0.31119 0.0
C1008 C 0.01522 0.63948 0.31728 0.0
C1009 C 0.99366 0.60453 0.34725 0.0
C1010 C 0.97651 0.58284 0.34223 0.0
C1011 C 0.97644 0.57034 0.30512 0.0
C1012 C 0.96006 0.55002 0.30025 0.0
C1013 C 0.94374 0.54197 0.33249 0.0
C1014 C 0.9438 0.55422 0.36976 0.0
C1015 C 0.96013 0.57457 0.37475 0.0
H1016 H 0.93107 0.52624 0.32866 0.0
H1017 H 0.08539 0.72533 0.3807 0.0
H1018 H 0.39567 0.97698 0.28462 0.0
H1019 H 0.40771 0.99745 0.35657 0.0
H1020 H 0.35267 0.95219 0.42877 0.0
H1021 H 0.34032 0.93168 0.35675 0.0
H1022 H 0.36124 0.99069 0.44968 0.0
H1023 H 0.39761 0.9533 0.44613 0.0
H1024 H 0.4193 0.94025 0.4117 0.0
H1025 H 0.47008 0.00251 0.39888 0.0
H1026 H 0.44856 0.01597 0.43251 0.0
H1027 H 0.42946 0.02595 0.6745 0.0
H1028 H 0.41823 0.00548 0.60254 0.0
H1029 H 0.40648 0.05115 0.53881 0.0
H1030 H 0.41707 0.07143 0.61137 0.0
H1031 H 0.43041 0.01063 0.51589 0.0
H1032 H 0.36475 0.02775 0.46762 0.0
H1033 H 0.34087 0.03686 0.50711 0.0
H1034 H 0.34498 0.00805 0.63402 0.0
H1035 H 0.36866 0.99853 0.59511 0.0
C1036 C 0.38609 0.97136 0.31575 0.0
C1037 C 0.36705 0.95266 0.31499 0.0
C1038 C 0.39304 0.98306 0.35687 0.0
C1039 C 0.38117 0.97622 0.39805 0.0
C1040 C 0.36204 0.95772 0.3973 0.0
C1041 C 0.35505 0.94601 0.35616 0.0
C1042 C 0.38879 0.98838 0.44195 0.0
C1043 C 0.37637 0.99508 0.46416 0.0
C1044 C 0.40833 0.99368 0.46133 0.0
C1045 C 0.4214 0.98566 0.44143 0.0
C1046 C 0.41335 0.96422 0.43563 0.0
C1047 C 0.42561 0.95675 0.4163 0.0
C1048 C 0.44604 0.97055 0.40301 0.0
C1049 C 0.45424 0.99185 0.40913 0.0
C1050 C 0.44202 0.99941 0.42835 0.0
C1051 C 0.42462 0.03173 0.64509 0.0
C1052 C 0.42395 0.05021 0.6488 0.0
C1053 C 0.41824 0.02002 0.60392 0.0
C1054 C 0.41119 0.0266 0.56556 0.0
C1055 C 0.41143 0.04554 0.56836 0.0
C1056 C 0.41757 0.05716 0.60977 0.0
C1057 C 0.40301 0.01328 0.52329 0.0
C1058 C 0.41532 0.00633 0.50135 0.0
C1059 C 0.38308 0.0072 0.505 0.0
C1060 C 0.36865 0.01263 0.52857 0.0
C1061 C 0.3605 0.0233 0.5039 0.0
C1062 C 0.34701 0.02854 0.52619 0.0
C1063 C 0.34147 0.0231 0.57309 0.0
C1064 C 0.34935 0.01232 0.59775 0.0
C1065 C 0.36282 0.00703 0.57561 0.0
H1066 H 0.33104 0.02718 0.59028 0.0
H1067 H 0.45551 0.96473 0.38806 0.0
H1068 H 0.40412 0.23778 0.41094 0.0
H1069 H 0.40274 0.21266 0.46816 0.0
H1070 H 0.4185 0.25758 0.57899 0.0
H1071 H 0.41987 0.2828 0.52208 0.0
H1072 H 0.44297 0.23952 0.5795 0.0
H1073 H 0.37053 0.21734 0.57316 0.0
H1074 H 0.33685 0.20609 0.53485 0.0
H1075 H 0.33735 0.15299 0.47766 0.0
H1076 H 0.3712 0.16409 0.51511 0.0
H1077 H 0.4311 0.17084 0.76421 0.0
H1078 H 0.4266 0.19512 0.71472 0.0
H1079 H 0.4054 0.15095 0.60093 0.0
H1080 H 0.40941 0.12644 0.65044 0.0
H1081 H 0.38271 0.16925 0.60493 0.0
H1082 H 0.45546 0.19195 0.60536 0.0
H1083 H 0.48965 0.20299 0.64082 0.0
H1084 H 0.48921 0.25484 0.70558 0.0
H1085 H 0.45487 0.24394 0.671 0.0
C1086 C 0.40707 0.24226 0.44755 0.0
C1087 C 0.41215 0.26232 0.46187 0.0
C1088 C 0.40621 0.22785 0.48025 0.0
C1089 C 0.41046 0.23323 0.52788 0.0
C1090 C 0.41517 0.25311 0.54241 0.0
C1091 C 0.41587 0.26748 0.50982 0.0
C1092 C 0.41103 0.21846 0.56204 0.0
C1093 C 0.42968 0.22428 0.58572 0.0
C1094 C 0.39387 0.19839 0.56912 0.0
C1095 C 0.3735 0.19166 0.5466 0.0
C1096 C 0.36355 0.20336 0.55209 0.0
C1097 C 0.34441 0.19699 0.53059 0.0
C1098 C 0.33499 0.17887 0.50374 0.0
C1099 C 0.34468 0.16704 0.49843 0.0
C1100 C 0.36383 0.17335 0.51983 0.0
C1101 C 0.42534 0.16623 0.72877 0.0
C1102 C 0.42075 0.14673 0.71124 0.0
C1103 C 0.42285 0.18017 0.70042 0.0
C1104 C 0.41596 0.175 0.6538 0.0
C1105 C 0.41077 0.15531 0.63672 0.0
C1106 C 0.41314 0.14133 0.66509 0.0
C1107 C 0.4147 0.19027 0.62234 0.0
C1108 C 0.39595 0.18454 0.59905 0.0
C1109 C 0.43184 0.21039 0.61523 0.0
C1110 C 0.45249 0.21699 0.63603 0.0
C1111 C 0.46258 0.20561 0.62748 0.0
C1112 C 0.482 0.21186 0.64736 0.0
C1113 C 0.49157 0.22957 0.67555 0.0
C1114 C 0.48176 0.2411 0.68381 0.0
C1115 C 0.46233 0.2349 0.66406 0.0
H1116 H 0.50661 0.23439 0.69091 0.0
H1117 H 0.32017 0.17396 0.48713 0.0
H1118 H 0.26669 0.40103 0.82032 0.0
H1119 H 0.23792 0.39877 0.77403 0.0
H1120 H 0.23841 0.44714 0.85836 0.0
H1121 H 0.26687 0.44926 0.90521 0.0
H1122 H 0.19961 0.41703 0.84256 0.0
H1123 H 0.26086 0.45681 0.74841 0.0
H1124 H 0.2925 0.46317 0.70655 0.0
H1125 H 0.25643 0.41009 0.61901 0.0
H1126 H 0.22458 0.40326 0.6608 0.0
H1127 H 0.14479 0.45048 0.70209 0.0
H1128 H 0.17264 0.44906 0.74382 0.0
H1129 H 0.16611 0.40002 0.65216 0.0
H1130 H 0.13829 0.40158 0.60947 0.0
H1131 H 0.20666 0.42746 0.67001 0.0
H1132 H 0.14511 0.38885 0.76115 0.0
H1133 H 0.11344 0.38278 0.80243 0.0
H1134 H 0.15 0.43351 0.89562 0.0
H1135 H 0.18187 0.44009 0.85443 0.0
C1136 C 0.26059 0.41109 0.82924 0.0
C1137 C 0.26917 0.42539 0.86642 0.0
C1138 C 0.2442 0.40986 0.80254 0.0
C1139 C 0.23617 0.423 0.81224 0.0
C1140 C 0.24435 0.43687 0.85011 0.0
C1141 C 0.26068 0.43809 0.87685 0.0
C1142 C 0.21942 0.42256 0.78279 0.0
C1143 C 0.20126 0.41951 0.8049 0.0
C1144 C 0.22127 0.42522 0.73341 0.0
C1145 C 0.24038 0.4294 0.70807 0.0
C1146 C 0.2597 0.44641 0.72046 0.0
C1147 C 0.27767 0.45011 0.69671 0.0
C1148 C 0.27649 0.43701 0.66024 0.0
C1149 C 0.25732 0.42021 0.64733 0.0
C1150 C 0.23931 0.41642 0.67101 0.0
C1151 C 0.14932 0.43947 0.69048 0.0
C1152 C 0.13916 0.42601 0.65264 0.0
C1153 C 0.16523 0.43862 0.71456 0.0
C1154 C 0.1712 0.42415 0.70177 0.0
C1155 C 0.16167 0.41123 0.66284 0.0
C1156 C 0.14577 0.41213 0.6385 0.0
C1157 C 0.18703 0.42228 0.72994 0.0
C1158 C 0.20498 0.42484 0.70762 0.0
C1159 C 0.18499 0.41915 0.77916 0.0
C1160 C 0.16587 0.41506 0.80445 0.0
C1161 C 0.14639 0.39879 0.79027 0.0
C1162 C 0.1284 0.39525 0.81366 0.0
C1163 C 0.1297 0.40778 0.85156 0.0
C1164 C 0.14901 0.42383 0.86623 0.0
C1165 C 0.16705 0.42746 0.8429 0.0
H1166 H 0.11576 0.40502 0.86961 0.0
H1167 H 0.29042 0.4399 0.6419 0.0
H1168 H 0.84425 0.28476 0.02489 0.0
H1169 H 0.81783 0.25995 0.97179 0.0
H1170 H 0.84098 0.21774 0.99244 0.0
H1171 H 0.86807 0.24295 0.0445 0.0
H1172 H 0.83283 0.21823 0.9038 0.0
H1173 H 0.79483 0.21015 0.04456 0.0
H1174 H 0.78242 0.22117 0.11299 0.0
H1175 H 0.75449 0.24603 0.02124 0.0
H1176 H 0.76698 0.2354 0.95223 0.0
H1177 H 0.74066 0.13227 0.80399 0.0
H1178 H 0.7691 0.15541 0.85614 0.0
H1179 H 0.75651 0.2048 0.82639 0.0
H1180 H 0.72824 0.18193 0.77412 0.0
H1181 H 0.75897 0.19857 0.92198 0.0
H1182 H 0.79831 0.20664 0.78109 0.0
H1183 H 0.81034 0.19436 0.71424 0.0
H1184 H 0.83493 0.16735 0.80942 0.0
H1185 H 0.82278 0.17924 0.87688 0.0
C1186 C 0.84368 0.27015 0.01845 0.0
C1187 C 0.85822 0.26579 0.03922 0.0
C1188 C 0.82847 0.2559 0.98814 0.0
C1189 C 0.82711 0.23675 0.97864 0.0
C1190 C 0.84164 0.23236 -0.00073 0.0
C1191 C 0.85708 0.24676 0.02918 0.0
C1192 C 0.81076 0.22157 0.94649 0.0
C1193 C 0.81664 0.21367 0.9083 0.0
C1194 C 0.78961 0.21577 0.95179 0.0
C1195 C 0.782 0.22212 0.99322 0.0
C1196 C 0.78617 0.21809 0.03897 0.0
C1197 C 0.7791 0.22425 0.07787 0.0
C1198 C 0.76771 0.23434 0.07147 0.0
C1199 C 0.76333 0.23823 0.02615 0.0
C1200 C 0.77038 0.23212 0.98713 0.0
C1201 C 0.74411 0.14813 0.80809 0.0
C1202 C 0.73213 0.15522 0.78491 0.0
C1203 C 0.76038 0.16134 0.83787 0.0
C1204 C 0.7649 0.18182 0.84516 0.0
C1205 C 0.75325 0.18904 0.82135 0.0
C1206 C 0.73714 0.17594 0.79129 0.0
C1207 C 0.78113 0.19553 0.87918 0.0
C1208 C 0.77517 0.20308 0.91776 0.0
C1209 C 0.80211 0.20077 0.87454 0.0
C1210 C 0.80943 0.19363 0.83402 0.0
C1211 C 0.80611 0.19792 0.78777 0.0
C1212 C 0.81299 0.19106 0.74976 0.0
C1213 C 0.82333 0.18002 0.75757 0.0
C1214 C 0.82688 0.17587 0.80342 0.0
C1215 C 0.82002 0.18268 0.84155 0.0
H1216 H 0.82865 0.17473 0.7281 0.0
H1217 H 0.76226 0.23909 0.10162 0.0
H1218 H 0.60597 0.862 0.19199 0.0
H1219 H 0.61187 0.83896 0.14115 0.0
H1220 H 0.54773 0.79162 0.15599 0.0
H1221 H 0.54177 0.81438 0.20745 0.0
H1222 H 0.5721 0.77478 0.15774 0.0
H1223 H 0.56478 0.82328 0.05951 0.0
H1224 H 0.57308 0.85797 0.03208 0.0
H1225 H 0.63536 0.87255 0.00083 0.0
H1226 H 0.6275 0.83802 0.0287 0.0
H1227 H 0.55707 0.71427 0.95425 0.0
H1228 H 0.55555 0.73858 0.00959 0.0
H1229 H 0.62188 0.77788 0.00067 0.0
H1230 H 0.62362 0.75346 0.94562 0.0
H1231 H 0.59886 0.79946 0.99711 0.0
H1232 H 0.60503 0.74959 0.0911 0.0
H1233 H 0.59585 0.71442 0.11657 0.0
H1234 H 0.53492 0.70207 0.15472 0.0
H1235 H 0.54358 0.73703 0.12849 0.0
C1236 C 0.59316 0.84659 0.18493 0.0
C1237 C 0.57335 0.84011 0.20356 0.0
C1238 C 0.59654 0.83347 0.15562 0.0
C1239 C 0.58015 0.81368 0.14404 0.0
C1240 C 0.5606 0.80684 0.16426 0.0
C1241 C 0.55722 0.81992 0.19366 0.0
C1242 C 0.58308 0.80037 0.10947 0.0
C1243 C 0.57779 0.78014 0.12252 0.0
C1244 C 0.59089 0.80745 0.06371 0.0
C1245 C 0.59562 0.82816 0.04668 0.0
C1246 C 0.58029 0.83394 0.04712 0.0
C1247 C 0.58491 0.85357 0.03145 0.0
C1248 C 0.60475 0.86748 0.01486 0.0
C1249 C 0.62001 0.86177 0.01377 0.0
C1250 C 0.61548 0.84217 0.02948 0.0
C1251 C 0.57134 0.72818 0.96362 0.0
C1252 C 0.59049 0.7319 0.94561 0.0
C1253 C 0.57043 0.74201 0.99543 0.0
C1254 C 0.58862 0.75991 0.00953 0.0
C1255 C 0.60768 0.76411 0.99029 0.0
C1256 C 0.60864 0.75013 0.95891 0.0
C1257 C 0.58769 0.7739 0.04534 0.0
C1258 C 0.59333 0.79421 0.03248 0.0
C1259 C 0.58011 0.76687 0.09117 0.0
C1260 C 0.5749 0.74588 0.10738 0.0
C1261 C 0.58961 0.73932 0.10452 0.0
C1262 C 0.58452 0.71943 0.11918 0.0
C1263 C 0.56482 0.70601 0.13722 0.0
C1264 C 0.55018 0.71247 0.1407 0.0
C1265 C 0.55517 0.73233 0.12594 0.0
H1266 H 0.56091 0.69063 0.14857 0.0
H1267 H 0.6083 0.88267 0.00275 0.0
H1268 H 0.75745 0.60905 0.42474 0.0
H1269 H 0.78396 0.60839 0.37509 0.0
H1270 H 0.73842 0.57699 0.26644 0.0
H1271 H 0.71182 0.57731 0.31595 0.0
H1272 H 0.76144 0.55916 0.27878 0.0
H1273 H 0.77475 0.62887 0.2586 0.0
H1274 H 0.78219 0.66348 0.28484 0.0
H1275 H 0.83874 0.67384 0.3493 0.0
H1276 H 0.83149 0.63916 0.32397 0.0
H1277 H 0.82807 0.56968 0.09171 0.0
H1278 H 0.80307 0.5731 0.14093 0.0
H1279 H 0.85026 0.60509 0.24604 0.0
H1280 H 0.8755 0.60211 0.19656 0.0
H1281 H 0.82695 0.62282 0.23699 0.0
H1282 H 0.81393 0.55347 0.25756 0.0
H1283 H 0.80667 0.51882 0.23213 0.0
H1284 H 0.74972 0.50767 0.16838 0.0
H1285 H 0.75678 0.54238 0.19289 0.0
C1286 C 0.75307 0.60202 0.39026 0.0
C1287 C 0.73249 0.59326 0.37437 0.0
C1288 C 0.76828 0.60174 0.3618 0.0
C1289 C 0.76325 0.59282 0.31677 0.0
C1290 C 0.74269 0.58397 0.301 0.0
C1291 C 0.7275 0.58422 0.32939 0.0
C1292 C 0.77925 0.59233 0.28626 0.0
C1293 C 0.77563 0.57313 0.26916 0.0
C1294 C 0.79805 0.61047 0.27466 0.0
C1295 C 0.80247 0.63134 0.28979 0.0
C1296 C 0.78869 0.63846 0.27869 0.0
C1297 C 0.79289 0.6581 0.29334 0.0
C1298 C 0.8109 0.67082 0.31883 0.0
C1299 C 0.82478 0.66395 0.32961 0.0
C1300 C 0.82064 0.64432 0.31508 0.0
C1301 C 0.8332 0.57758 0.12514 0.0
C1302 C 0.85378 0.58549 0.14029 0.0
C1303 C 0.81884 0.57944 0.15338 0.0
C1304 C 0.82466 0.58902 0.19764 0.0
C1305 C 0.84537 0.59756 0.21215 0.0
C1306 C 0.85978 0.59581 0.1838 0.0
C1307 C 0.80904 0.58967 0.22921 0.0
C1308 C 0.81275 0.60887 0.24661 0.0
C1309 C 0.79032 0.57152 0.24125 0.0
C1310 C 0.78598 0.5506 0.22668 0.0
C1311 C 0.79993 0.54368 0.23782 0.0
C1312 C 0.79584 0.52403 0.22362 0.0
C1313 C 0.77777 0.51108 0.19855 0.0
C1314 C 0.76372 0.51773 0.18774 0.0
C1315 C 0.76775 0.53739 0.20182 0.0
H1316 H 0.77464 0.49587 0.18758 0.0
H1317 H 0.81412 0.68602 0.33014 0.0
H1318 H 0.18784 0.74431 0.59919 0.0
H1319 H 0.21213 0.77136 0.54673 0.0
H1320 H 0.16185 0.76032 0.45381 0.0
H1321 H 0.13735 0.73278 0.50593 0.0
H1322 H 0.19408 0.764 0.40495 0.0
H1323 H 0.18486 0.80364 0.52396 0.0
H1324 H 0.18299 0.8147 0.60457 0.0
H1325 H 0.24677 0.83249 0.62739 0.0
H1326 H 0.24895 0.82127 0.54711 0.0
H1327 H 0.26258 0.85494 0.27209 0.0
H1328 H 0.23349 0.82984 0.32002 0.0
H1329 H 0.27647 0.83138 0.42372 0.0
H1330 H 0.30549 0.85646 0.37646 0.0
H1331 H 0.24491 0.83399 0.464 0.0
H1332 H 0.2527 0.79126 0.34687 0.0
H1333 H 0.25429 0.78011 0.26615 0.0
H1334 H 0.19262 0.76855 0.23959 0.0
H1335 H 0.19077 0.7799 0.32002 0.0
C1336 C 0.18187 0.74767 0.56777 0.0
C1337 C 0.16061 0.7364 0.55688 0.0
C1338 C 0.1958 0.76325 0.53785 0.0
C1339 C 0.18881 0.76812 0.49661 0.0
C1340 C 0.1676 0.75689 0.48552 0.0
C1341 C 0.15361 0.7412 0.51543 0.0
C1342 C 0.20386 0.78453 0.46467 0.0
C1343 C 0.20493 0.77944 0.41765 0.0
C1344 C 0.21822 0.80461 0.4813 0.0
C1345 C 0.21701 0.81147 0.52959 0.0
C1346 C 0.19845 0.80978 0.54627 0.0
C1347 C 0.19734 0.8161 0.59189 0.0
C1348 C 0.21474 0.82426 0.62111 0.0
C1349 C 0.2333 0.82616 0.60472 0.0
C1350 C 0.23449 0.81984 0.55913 0.0
C1351 C 0.26582 0.84992 0.30509 0.0
C1352 C 0.28637 0.85769 0.32039 0.0
C1353 C 0.24919 0.83553 0.33236 0.0
C1354 C 0.25281 0.82864 0.37535 0.0
C1355 C 0.2733 0.8365 0.39074 0.0
C1356 C 0.28989 0.8508 0.36353 0.0
C1357 C 0.23541 0.8133 0.4047 0.0
C1358 C 0.23389 0.81863 0.45122 0.0
C1359 C 0.2206 0.7935 0.38755 0.0
C1360 C 0.22169 0.78666 0.33925 0.0
C1361 C 0.23955 0.78651 0.32368 0.0
C1362 C 0.24048 0.78012 0.27801 0.0
C1363 C 0.22359 0.77369 0.24771 0.0
C1364 C 0.2057 0.77358 0.26307 0.0
C1365 C 0.2047 0.77997 0.30869 0.0
H1366 H 0.22434 0.76875 0.21237 0.0
H1367 H 0.21384 0.82914 0.65643 0.0
loop_
_geom_bond_atom_site_label_1
_geom_bond_atom_site_label_2
_geom_bond_distance
_geom_bond_site_symmetry_2
_ccdc_geom_bond_type
Zn0 O3 2.031 . S
Zn0 O5 2.049 . S
Zn0 O10 2.067 . S
Zn1 O2 1.962 . S
Zn1 O4 1.986 . S
Zn1 O6 1.996 . S
Zn1 O9 1.943 . S
O2 Zn1 1.962 . S
O2 C7 1.254 . S
O3 Zn0 2.031 . S
O3 C7 1.269 . S
O4 Zn1 1.986 . S
O4 C11 1.262 . S
O5 Zn0 2.049 . S
O5 C13 1.260 . S
O6 Zn1 1.996 . S
O6 C13 1.257 . S
C7 O2 1.254 . S
C7 O3 1.269 . S
C8 O9 1.249 . S
C8 O10 1.270 . S
O9 Zn1 1.943 . S
O9 C8 1.249 . S
O10 Zn0 2.067 . S
O10 C8 1.270 . S
C11 O4 1.262 . S
C11 O12 1.232 . S
O12 C11 1.232 . S
C13 O5 1.260 . S
C13 O6 1.257 . S
Zn14 O17 2.031 . S
Zn14 O19 2.049 . S
Zn14 O24 2.067 . S
Zn15 O16 1.962 . S
Zn15 O18 1.986 . S
Zn15 O20 1.996 . S
Zn15 O23 1.943 . S
O16 Zn15 1.962 . S
O16 C21 1.254 . S
O17 Zn14 2.031 . S
O17 C21 1.269 . S
O18 Zn15 1.986 . S
O18 C25 1.262 . S
O19 Zn14 2.049 . S
O19 C27 1.260 . S
O20 Zn15 1.996 . S
O20 C27 1.257 . S
C21 O16 1.254 . S
C21 O17 1.269 . S
C22 O23 1.249 . S
C22 O24 1.270 . S
O23 Zn15 1.943 . S
O23 C22 1.249 . S
O24 Zn14 2.067 . S
O24 C22 1.270 . S
C25 O18 1.262 . S
C25 O26 1.232 . S
O26 C25 1.232 . S
C27 O19 1.260 . S
C27 O20 1.257 . S
Zn28 O31 2.031 . S
Zn28 O33 2.049 . S
Zn28 O38 2.067 . S
Zn29 O30 1.962 . S
Zn29 O32 1.986 . S
Zn29 O34 1.996 . S
Zn29 O37 1.943 . S
O30 Zn29 1.962 . S
O30 C35 1.254 . S
O31 Zn28 2.031 . S
O31 C35 1.269 . S
O32 Zn29 1.986 . S
O32 C39 1.262 . S
O33 Zn28 2.049 . S
O33 C41 1.260 . S
O34 Zn29 1.996 . S
O34 C41 1.257 . S
C35 O30 1.254 . S
C35 O31 1.269 . S
C36 O37 1.249 . S
C36 O38 1.270 . S
O37 Zn29 1.943 . S
O37 C36 1.249 . S
O38 Zn28 2.067 . S
O38 C36 1.270 . S
C39 O32 1.262 . S
C39 O40 1.232 . S
O40 C39 1.232 . S
C41 O33 1.260 . S
C41 O34 1.257 . S
Zn42 O45 2.031 . S
Zn42 O47 2.049 . S
Zn42 O52 2.067 . S
Zn43 O44 1.962 . S
Zn43 O46 1.986 . S
Zn43 O48 1.996 . S
Zn43 O51 1.943 . S
O44 Zn43 1.962 . S
O44 C49 1.254 . S
O45 Zn42 2.031 . S
O45 C49 1.269 . S
O46 Zn43 1.986 . S
O46 C53 1.262 . S
O47 Zn42 2.049 . S
O47 C55 1.260 1_556 S
O48 Zn43 1.996 . S
O48 C55 1.257 1_556 S
C49 O44 1.254 . S
C49 O45 1.269 . S
C50 O51 1.249 . S
C50 O52 1.270 . S
O51 Zn43 1.943 . S
O51 C50 1.249 . S
O52 Zn42 2.067 . S
O52 C50 1.270 . S
C53 O46 1.262 . S
C53 O54 1.232 . S
O54 C53 1.232 . S
C55 O47 1.260 1_554 S
C55 O48 1.257 1_554 S
Zn56 O59 2.031 . S
Zn56 O61 2.049 . S
Zn56 O66 2.067 . S
Zn57 O58 1.962 . S
Zn57 O60 1.986 . S
Zn57 O62 1.996 . S
Zn57 O65 1.943 . S
O58 Zn57 1.962 . S
O58 C63 1.254 . S
O59 Zn56 2.031 . S
O59 C63 1.269 . S
O60 Zn57 1.986 . S
O60 C67 1.262 . S
O61 Zn56 2.049 . S
O61 C69 1.260 . S
O62 Zn57 1.996 . S
O62 C69 1.257 . S
C63 O58 1.254 . S
C63 O59 1.269 . S
C64 O65 1.249 . S
C64 O66 1.270 . S
O65 Zn57 1.943 . S
O65 C64 1.249 . S
O66 Zn56 2.067 . S
O66 C64 1.270 . S
C67 O60 1.262 . S
C67 O68 1.232 . S
O68 C67 1.232 . S
C69 O61 1.260 . S
C69 O62 1.257 . S
Zn70 O73 2.031 . S
Zn70 O75 2.049 . S
Zn70 O80 2.067 . S
Zn71 O72 1.962 . S
Zn71 O74 1.986 . S
Zn71 O76 1.996 . S
Zn71 O79 1.943 . S
O72 Zn71 1.962 . S
O72 C77 1.254 . S
O73 Zn70 2.031 . S
O73 C77 1.269 . S
O74 Zn71 1.986 . S
O74 C81 1.262 . S
O75 Zn70 2.049 . S
O75 C83 1.260 . S
O76 Zn71 1.996 . S
O76 C83 1.257 . S
C77 O72 1.254 . S
C77 O73 1.269 . S
C78 O79 1.249 . S
C78 O80 1.270 . S
O79 Zn71 1.943 . S
O79 C78 1.249 . S
O80 Zn70 2.067 . S
O80 C78 1.270 . S
C81 O74 1.262 . S
C81 O82 1.232 . S
O82 C81 1.232 . S
C83 O75 1.260 . S
C83 O76 1.257 . S
Zn84 O87 2.031 . S
Zn84 O89 2.049 . S
Zn84 O94 2.067 . S
Zn85 O86 1.962 . S
Zn85 O88 1.986 . S
Zn85 O90 1.996 . S
Zn85 O93 1.943 . S
O86 Zn85 1.962 . S
O86 C91 1.254 . S
O87 Zn84 2.031 . S
O87 C91 1.269 . S
O88 Zn85 1.986 . S
O88 C95 1.262 . S
O89 Zn84 2.049 . S
O89 C97 1.260 . S
O90 Zn85 1.996 . S
O90 C97 1.257 . S
C91 O86 1.254 . S
C91 O87 1.269 . S
C92 O93 1.249 . S
C92 O94 1.270 . S
O93 Zn85 1.943 . S
O93 C92 1.249 . S
O94 Zn84 2.067 . S
O94 C92 1.270 . S
C95 O88 1.262 . S
C95 O96 1.232 . S
O96 C95 1.232 . S
C97 O89 1.260 . S
C97 O90 1.257 . S
Zn98 O101 2.031 . S
Zn98 O103 2.049 . S
Zn98 O108 2.067 . S
Zn99 O100 1.962 . S
Zn99 O102 1.986 . S
Zn99 O104 1.996 . S
Zn99 O107 1.943 . S
O100 Zn99 1.962 . S
O100 C105 1.254 . S
O101 Zn98 2.031 . S
O101 C105 1.269 . S
O102 Zn99 1.986 . S
O102 C109 1.262 . S
O103 Zn98 2.049 . S
O103 C111 1.260 . S
O104 Zn99 1.996 . S
O104 C111 1.257 . S
C105 O100 1.254 . S
C105 O101 1.269 . S
C106 O107 1.249 . S
C106 O108 1.270 . S
O107 Zn99 1.943 . S
O107 C106 1.249 . S
O108 Zn98 2.067 . S
O108 C106 1.270 . S
C109 O102 1.262 . S
C109 O110 1.232 . S
O110 C109 1.232 . S
C111 O103 1.260 . S
C111 O104 1.257 . S
Zn112 O115 2.031 . S
Zn112 O117 2.049 . S
Zn112 O122 2.067 . S
Zn113 O114 1.962 . S
Zn113 O116 1.986 . S
Zn113 O118 1.996 . S
Zn113 O121 1.943 . S
O114 Zn113 1.962 . S
O114 C119 1.254 . S
O115 Zn112 2.031 . S
O115 C119 1.269 . S
O116 Zn113 1.986 . S
O116 C123 1.262 . S
O117 Zn112 2.049 . S
O117 C125 1.260 . S
O118 Zn113 1.996 . S
O118 C125 1.257 . S
C119 O114 1.254 . S
C119 O115 1.269 . S
C120 O121 1.249 . S
C120 O122 1.270 . S
O121 Zn113 1.943 . S
O121 C120 1.249 . S
O122 Zn112 2.067 . S
O122 C120 1.270 . S
C123 O116 1.262 . S
C123 O124 1.232 . S
O124 C123 1.232 . S
C125 O117 1.260 . S
C125 O118 1.257 . S
Zn126 O129 2.031 . S
Zn126 O131 2.049 . S
Zn126 O136 2.067 . S
Zn127 O128 1.962 . S
Zn127 O130 1.986 . S
Zn127 O132 1.996 . S
Zn127 O135 1.943 . S
O128 Zn127 1.962 . S
O128 C133 1.254 . S
O129 Zn126 2.031 . S
O129 C133 1.269 . S
O130 Zn127 1.986 . S
O130 C137 1.262 . S
O131 Zn126 2.049 . S
O131 C139 1.260 . S
O132 Zn127 1.996 . S
O132 C139 1.257 . S
C133 O128 1.254 . S
C133 O129 1.269 . S
C134 O135 1.249 . S
C134 O136 1.270 . S
O135 Zn127 1.943 . S
O135 C134 1.249 . S
O136 Zn126 2.067 . S
O136 C134 1.270 . S
C137 O130 1.262 . S
C137 O138 1.232 . S
O138 C137 1.232 . S
C139 O131 1.260 . S
C139 O132 1.257 . S
Zn140 O143 2.031 . S
Zn140 O145 2.049 . S
Zn140 O150 2.067 . S
Zn141 O142 1.962 . S
Zn141 O144 1.986 . S
Zn141 O146 1.996 . S
Zn141 O149 1.943 . S
O142 Zn141 1.962 . S
O142 C147 1.254 . S
O143 Zn140 2.031 . S
O143 C147 1.269 . S
O144 Zn141 1.986 . S
O144 C151 1.262 . S
O145 Zn140 2.049 . S
O145 C153 1.260 1_554 S
O146 Zn141 1.996 . S
O146 C153 1.257 1_554 S
C147 O142 1.254 . S
C147 O143 1.269 . S
C148 O149 1.249 . S
C148 O150 1.270 . S
O149 Zn141 1.943 . S
O149 C148 1.249 . S
O150 Zn140 2.067 . S
O150 C148 1.270 . S
C151 O144 1.262 . S
C151 O152 1.232 . S
O152 C151 1.232 . S
C153 O145 1.260 1_556 S
C153 O146 1.257 1_556 S
Zn154 O157 2.031 . S
Zn154 O159 2.049 . S
Zn154 O164 2.067 . S
Zn155 O156 1.962 . S
Zn155 O158 1.986 . S
Zn155 O160 1.996 . S
Zn155 O163 1.943 . S
O156 Zn155 1.962 . S
O156 C161 1.254 . S
O157 Zn154 2.031 . S
O157 C161 1.269 . S
O158 Zn155 1.986 . S
O158 C165 1.262 . S
O159 Zn154 2.049 . S
O159 C167 1.260 . S
O160 Zn155 1.996 . S
O160 C167 1.257 . S
C161 O156 1.254 . S
C161 O157 1.269 . S
C162 O163 1.249 . S
C162 O164 1.270 . S
O163 Zn155 1.943 . S
O163 C162 1.249 . S
O164 Zn154 2.067 . S
O164 C162 1.270 . S
C165 O158 1.262 . S
C165 O166 1.232 . S
O166 C165 1.232 . S
C167 O159 1.260 . S
C167 O160 1.257 . S
H168 C186 0.951 . S
H169 C188 0.951 . S
H170 C190 0.950 . S
H171 C191 0.950 1_556 S
H172 C193 0.950 . S
H173 C196 0.950 . S
H174 C197 0.950 . S
H175 C199 0.950 . S
H176 C200 0.950 . S
H177 C201 0.951 . S
H178 C203 0.951 . S
H179 C205 0.950 . S
H180 C206 0.950 . S
H181 C208 0.950 . S
H182 C211 0.950 . S
H183 C212 0.950 . S
H184 C214 0.950 . S
H185 C215 0.950 . S
C186 H168 0.951 . S
C186 C187 1.366 . S
C186 C188 1.388 . S
C187 C186 1.366 . S
C187 C191 1.385 . S
C188 H169 0.951 . S
C188 C186 1.388 . S
C188 C189 1.366 . S
C189 C188 1.366 . S
C189 C190 1.414 . S
C189 C192 1.499 . S
C190 H170 0.950 . S
C190 C189 1.414 . S
C190 C191 1.374 . S
C191 H171 0.950 1_554 S
C191 C187 1.385 . S
C191 C190 1.374 . S
C192 C189 1.499 . S
C192 C193 1.373 . S
C192 C194 1.389 . S
C193 H172 0.950 . S
C193 C192 1.373 . S
C193 C209 1.377 . S
C194 C192 1.389 . S
C194 C195 1.524 . S
C194 C208 1.377 . S
C195 C194 1.524 . S
C195 C196 1.397 . S
C195 C200 1.363 . S
C196 H173 0.950 . S
C196 C195 1.397 . S
C196 C197 1.334 . S
C197 H174 0.950 . S
C197 C196 1.334 . S
C197 C198 1.287 . S
C198 C197 1.287 . S
C198 C199 1.524 . S
C198 H217 0.913 . S
C199 H175 0.950 . S
C199 C198 1.524 . S
C199 C200 1.415 . S
C200 H176 0.950 . S
C200 C195 1.363 . S
C200 C199 1.415 . S
C201 H177 0.951 . S
C201 C202 1.366 . S
C201 C203 1.388 . S
C202 C201 1.366 . S
C202 C206 1.385 . S
C203 H178 0.951 . S
C203 C201 1.388 . S
C203 C204 1.366 . S
C204 C203 1.366 . S
C204 C205 1.414 . S
C204 C207 1.499 . S
C205 H179 0.950 . S
C205 C204 1.414 . S
C205 C206 1.374 . S
C206 H180 0.950 . S
C206 C202 1.385 . S
C206 C205 1.374 . S
C207 C204 1.499 . S
C207 C208 1.373 . S
C207 C209 1.389 . S
C208 H181 0.950 . S
C208 C194 1.377 . S
C208 C207 1.373 . S
C209 C193 1.377 . S
C209 C207 1.389 . S
C209 C210 1.524 . S
C210 C209 1.524 . S
C210 C211 1.397 . S
C210 C215 1.363 . S
C211 H182 0.950 . S
C211 C210 1.397 . S
C211 C212 1.334 . S
C212 H183 0.950 . S
C212 C211 1.334 . S
C212 C213 1.287 . S
C213 C212 1.287 . S
C213 C214 1.524 . S
C213 H216 0.999 . S
C214 H184 0.950 . S
C214 C213 1.524 . S
C214 C215 1.415 . S
C215 H185 0.950 . S
C215 C210 1.363 . S
C215 C214 1.415 . S
H216 C213 0.999 . S
H217 C198 0.913 . S
H218 C236 0.951 . S
H219 C238 0.951 . S
H220 C240 0.950 . S
H221 C241 0.950 . S
H222 C243 0.950 . S
H223 C246 0.950 . S
H224 C247 0.950 . S
H225 C249 0.950 . S
H226 C250 0.950 . S
H227 C251 0.951 . S
H228 C253 0.951 . S
H229 C255 0.950 . S
H230 C256 0.950 . S
H231 C258 0.950 . S
H232 C261 0.950 . S
H233 C262 0.950 . S
H234 C264 0.950 . S
H235 C265 0.950 . S
C236 H218 0.951 . S
C236 C237 1.366 . S
C236 C238 1.388 . S
C237 C236 1.366 . S
C237 C241 1.385 . S
C238 H219 0.951 . S
C238 C236 1.388 . S
C238 C239 1.366 . S
C239 C238 1.366 . S
C239 C240 1.414 . S
C239 C242 1.499 . S
C240 H220 0.950 . S
C240 C239 1.414 . S
C240 C241 1.374 . S
C241 H221 0.950 . S
C241 C237 1.385 . S
C241 C240 1.374 . S
C242 C239 1.499 . S
C242 C243 1.373 . S
C242 C244 1.389 . S
C243 H222 0.950 . S
C243 C242 1.373 . S
C243 C259 1.377 1_455 S
C244 C242 1.389 . S
C244 C245 1.524 . S
C244 C258 1.377 1_455 S
C245 C244 1.524 . S
C245 C246 1.397 . S
C245 C250 1.363 . S
C246 H223 0.950 . S
C246 C245 1.397 . S
C246 C247 1.334 . S
C247 H224 0.950 . S
C247 C246 1.334 . S
C247 C248 1.287 . S
C248 C247 1.287 . S
C248 C249 1.524 . S
C248 H267 0.913 . S
C249 H225 0.950 . S
C249 C248 1.524 . S
C249 C250 1.415 . S
C250 H226 0.950 . S
C250 C245 1.363 . S
C250 C249 1.415 . S
C251 H227 0.951 . S
C251 C252 1.366 . S
C251 C253 1.388 . S
C252 C251 1.366 . S
C252 C256 1.385 . S
C253 H228 0.951 . S
C253 C251 1.388 . S
C253 C254 1.366 . S
C254 C253 1.366 . S
C254 C255 1.414 . S
C254 C257 1.499 . S
C255 H229 0.950 . S
C255 C254 1.414 . S
C255 C256 1.374 . S
C256 H230 0.950 . S
C256 C252 1.385 . S
C256 C255 1.374 . S
C257 C254 1.499 . S
C257 C258 1.373 . S
C257 C259 1.389 . S
C258 H231 0.950 . S
C258 C244 1.377 1_655 S
C258 C257 1.373 . S
C259 C243 1.377 1_655 S
C259 C257 1.389 . S
C259 C260 1.524 . S
C260 C259 1.524 . S
C260 C261 1.397 . S
C260 C265 1.363 . S
C261 H232 0.950 . S
C261 C260 1.397 . S
C261 C262 1.334 . S
C262 H233 0.950 . S
C262 C261 1.334 . S
C262 C263 1.287 . S
C263 C262 1.287 . S
C263 C264 1.524 . S
C263 H266 0.999 . S
C264 H234 0.950 . S
C264 C263 1.524 . S
C264 C265 1.415 . S
C265 H235 0.950 . S
C265 C260 1.363 . S
C265 C264 1.415 . S
H266 C263 0.999 . S
H267 C248 0.913 . S
H268 C286 0.951 . S
H269 C288 0.951 . S
H270 C290 0.950 . S
H271 C291 0.950 . S
H272 C293 0.950 . S
H273 C296 0.950 . S
H274 C297 0.950 . S
H275 C299 0.950 . S
H276 C300 0.950 . S
H277 C301 0.951 . S
H278 C303 0.951 . S
H279 C305 0.950 . S
H280 C306 0.950 . S
H281 C308 0.950 . S
H282 C311 0.950 . S
H283 C312 0.950 . S
H284 C314 0.950 . S
H285 C315 0.950 . S
C286 H268 0.951 . S
C286 C287 1.366 . S
C286 C288 1.388 . S
C287 C286 1.366 . S
C287 C291 1.385 . S
C288 H269 0.951 . S
C288 C286 1.388 . S
C288 C289 1.366 . S
C289 C288 1.366 . S
C289 C290 1.414 . S
C289 C292 1.499 . S
C290 H270 0.950 . S
C290 C289 1.414 . S
C290 C291 1.374 . S
C291 H271 0.950 . S
C291 C287 1.385 . S
C291 C290 1.374 . S
C292 C289 1.499 . S
C292 C293 1.373 . S
C292 C294 1.344 1_565 S
C293 H272 0.950 . S
C293 C292 1.373 . S
C293 C309 1.404 . S
C294 C292 1.344 1_545 S
C294 C295 1.549 . S
C294 C308 1.403 . S
C295 C294 1.549 . S
C295 C296 1.397 . S
C295 C300 1.363 . S
C296 H273 0.950 . S
C296 C295 1.397 . S
C296 C297 1.334 . S
C297 H274 0.950 . S
C297 C296 1.334 . S
C297 C298 1.287 . S
C298 C297 1.287 . S
C298 C299 1.524 . S
C298 H317 0.913 . S
C299 H275 0.950 . S
C299 C298 1.524 . S
C299 C300 1.415 . S
C300 H276 0.950 . S
C300 C295 1.363 . S
C300 C299 1.415 . S
C301 H277 0.951 . S
C301 C302 1.366 . S
C301 C303 1.388 . S
C302 C301 1.366 . S
C302 C306 1.385 . S
C303 H278 0.951 . S
C303 C301 1.388 . S
C303 C304 1.366 . S
C304 C303 1.366 . S
C304 C305 1.414 . S
C304 C307 1.499 . S
C305 H279 0.950 . S
C305 C304 1.414 . S
C305 C306 1.374 . S
C306 H280 0.950 . S
C306 C302 1.385 . S
C306 C305 1.374 . S
C307 C304 1.499 . S
C307 C308 1.373 . S
C307 C309 1.342 1_545 S
C308 H281 0.950 . S
C308 C294 1.403 . S
C308 C307 1.373 . S
C309 C293 1.404 . S
C309 C307 1.342 1_565 S
C309 C310 1.550 . S
C310 C309 1.550 . S
C310 C311 1.397 . S
C310 C315 1.363 . S
C311 H282 0.950 . S
C311 C310 1.397 . S
C311 C312 1.334 . S
C312 H283 0.950 . S
C312 C311 1.334 . S
C312 C313 1.287 . S
C313 C312 1.287 . S
C313 C314 1.524 . S
C313 H316 0.999 . S
C314 H284 0.950 . S
C314 C313 1.524 . S
C314 C315 1.415 . S
C315 H285 0.950 . S
C315 C310 1.363 . S
C315 C314 1.415 . S
H316 C313 0.999 . S
H317 C298 0.913 . S
H318 C336 0.951 . S
H319 C338 0.951 . S
H320 C340 0.950 . S
H321 C341 0.950 . S
H322 C343 0.950 . S
H323 C346 0.950 . S
H324 C347 0.950 . S
H325 C349 0.950 . S
H326 C350 0.950 . S
H327 C351 0.951 . S
H328 C353 0.951 . S
H329 C355 0.950 . S
H330 C356 0.950 . S
H331 C358 0.950 . S
H332 C361 0.950 . S
H333 C362 0.950 . S
H334 C364 0.950 . S
H335 C365 0.950 . S
C336 H318 0.951 . S
C336 C337 1.366 . S
C336 C338 1.388 . S
C337 C336 1.366 . S
C337 C341 1.385 . S
C338 H319 0.951 . S
C338 C336 1.388 . S
C338 C339 1.366 . S
C339 C338 1.366 . S
C339 C340 1.414 . S
C339 C342 1.499 . S
C340 H320 0.950 . S
C340 C339 1.414 . S
C340 C341 1.374 . S
C341 H321 0.950 . S
C341 C337 1.385 . S
C341 C340 1.374 . S
C342 C339 1.499 . S
C342 C343 1.373 . S
C342 C344 1.389 . S
C343 H322 0.950 . S
C343 C342 1.373 . S
C343 C359 1.377 . S
C344 C342 1.389 . S
C344 C345 1.524 . S
C344 C358 1.377 . S
C345 C344 1.524 . S
C345 C346 1.397 . S
C345 C350 1.363 . S
C346 H323 0.950 . S
C346 C345 1.397 . S
C346 C347 1.334 . S
C347 H324 0.950 . S
C347 C346 1.334 . S
C347 C348 1.287 . S
C348 C347 1.287 . S
C348 C349 1.524 . S
C348 H367 0.913 . S
C349 H325 0.950 . S
C349 C348 1.524 . S
C349 C350 1.415 . S
C350 H326 0.950 . S
C350 C345 1.363 . S
C350 C349 1.415 . S
C351 H327 0.951 . S
C351 C352 1.366 . S
C351 C353 1.388 . S
C352 C351 1.366 . S
C352 C356 1.385 . S
C353 H328 0.951 . S
C353 C351 1.388 . S
C353 C354 1.366 . S
C354 C353 1.366 . S
C354 C355 1.414 . S
C354 C357 1.499 . S
C355 H329 0.950 . S
C355 C354 1.414 . S
C355 C356 1.374 . S
C356 H330 0.950 . S
C356 C352 1.385 . S
C356 C355 1.374 . S
C357 C354 1.499 . S
C357 C358 1.373 . S
C357 C359 1.389 . S
C358 H331 0.950 . S
C358 C344 1.377 . S
C358 C357 1.373 . S
C359 C343 1.377 . S
C359 C357 1.389 . S
C359 C360 1.524 . S
C360 C359 1.524 . S
C360 C361 1.397 . S
C360 C365 1.363 . S
C361 H332 0.950 . S
C361 C360 1.397 . S
C361 C362 1.334 . S
C362 H333 0.950 . S
C362 C361 1.334 . S
C362 C363 1.287 . S
C363 C362 1.287 . S
C363 C364 1.524 . S
C363 H366 0.999 . S
C364 H334 0.950 . S
C364 C363 1.524 . S
C364 C365 1.415 . S
C365 H335 0.950 . S
C365 C360 1.363 . S
C365 C364 1.415 . S
H366 C363 0.999 . S
H367 C348 0.913 . S
H368 C386 0.951 . S
H369 C388 0.951 . S
H370 C390 0.950 . S
H371 C391 0.950 . S
H372 C393 0.950 . S
H373 C396 0.950 . S
H374 C397 0.950 . S
H375 C399 0.950 . S
H376 C400 0.950 . S
H377 C401 0.951 1_554 S
H378 C403 0.951 . S
H379 C405 0.950 . S
H380 C406 0.950 . S
H381 C408 0.950 . S
H382 C411 0.950 . S
H383 C412 0.950 . S
H384 C414 0.950 . S
H385 C415 0.950 . S
C386 H368 0.951 . S
C386 C387 1.366 . S
C386 C388 1.388 . S
C387 C386 1.366 . S
C387 C391 1.385 . S
C388 H369 0.951 . S
C388 C386 1.388 . S
C388 C389 1.366 . S
C389 C388 1.366 . S
C389 C390 1.414 . S
C389 C392 1.499 . S
C390 H370 0.950 . S
C390 C389 1.414 . S
C390 C391 1.374 . S
C391 H371 0.950 . S
C391 C387 1.385 . S
C391 C390 1.374 . S
C392 C389 1.499 . S
C392 C393 1.373 . S
C392 C394 1.389 1_455 S
C393 H372 0.950 . S
C393 C392 1.373 . S
C393 C409 1.377 . S
C394 C392 1.389 1_655 S
C394 C395 1.524 . S
C394 C408 1.377 . S
C395 C394 1.524 . S
C395 C396 1.397 1_655 S
C395 C400 1.363 . S
C396 H373 0.950 . S
C396 C395 1.397 1_455 S
C396 C397 1.334 . S
C397 H374 0.950 . S
C397 C396 1.334 . S
C397 C398 1.287 1_455 S
C398 C397 1.287 1_655 S
C398 C399 1.524 . S
C398 H417 0.913 . S
C399 H375 0.950 . S
C399 C398 1.524 . S
C399 C400 1.415 . S
C400 H376 0.950 . S
C400 C395 1.363 . S
C400 C399 1.415 . S
C401 H377 0.951 1_556 S
C401 C402 1.366 . S
C401 C403 1.388 . S
C402 C401 1.366 . S
C402 C406 1.385 . S
C403 H378 0.951 . S
C403 C401 1.388 . S
C403 C404 1.366 . S
C404 C403 1.366 . S
C404 C405 1.414 . S
C404 C407 1.499 . S
C405 H379 0.950 . S
C405 C404 1.414 . S
C405 C406 1.374 . S
C406 H380 0.950 . S
C406 C402 1.385 . S
C406 C405 1.374 . S
C407 C404 1.499 . S
C407 C408 1.373 . S
C407 C409 1.389 1_655 S
C408 H381 0.950 . S
C408 C394 1.377 . S
C408 C407 1.373 . S
C409 C393 1.377 . S
C409 C407 1.389 1_455 S
C409 C410 1.524 . S
C410 C409 1.524 . S
C410 C411 1.397 1_455 S
C410 C415 1.363 . S
C411 H382 0.950 . S
C411 C410 1.397 1_655 S
C411 C412 1.334 . S
C412 H383 0.950 . S
C412 C411 1.334 . S
C412 C413 1.287 1_655 S
C413 C412 1.287 1_455 S
C413 C414 1.524 . S
C413 H416 0.999 . S
C414 H384 0.950 . S
C414 C413 1.524 . S
C414 C415 1.415 . S
C415 H385 0.950 . S
C415 C410 1.363 . S
C415 C414 1.415 . S
H416 C413 0.999 . S
H417 C398 0.913 . S
H418 C436 0.951 . S
H419 C438 0.951 . S
H420 C440 0.950 . S
H421 C441 0.950 . S
H422 C443 0.950 . S
H423 C446 0.950 . S
H424 C447 0.950 . S
H425 C449 0.950 . S
H426 C450 0.950 . S
H427 C451 0.951 . S
H428 C453 0.951 . S
H429 C455 0.950 . S
H430 C456 0.950 . S
H431 C458 0.950 . S
H432 C461 0.950 . S
H433 C462 0.950 . S
H434 C464 0.950 . S
H435 C465 0.950 . S
C436 H418 0.951 . S
C436 C437 1.366 . S
C436 C438 1.388 . S
C437 C436 1.366 . S
C437 C441 1.385 . S
C438 H419 0.951 . S
C438 C436 1.388 . S
C438 C439 1.366 . S
C439 C438 1.366 . S
C439 C440 1.414 . S
C439 C442 1.499 . S
C440 H420 0.950 . S
C440 C439 1.414 . S
C440 C441 1.374 . S
C441 H421 0.950 . S
C441 C437 1.385 . S
C441 C440 1.374 . S
C442 C439 1.499 . S
C442 C443 1.373 1_545 S
C442 C444 1.389 . S
C443 H422 0.950 . S
C443 C442 1.373 1_565 S
C443 C459 1.377 1_556 S
C444 C442 1.389 . S
C444 C445 1.524 . S
C444 C458 1.377 1_556 S
C445 C444 1.524 . S
C445 C446 1.397 . S
C445 C450 1.363 1_556 S
C446 H423 0.950 . S
C446 C445 1.397 . S
C446 C447 1.334 . S
C447 H424 0.950 . S
C447 C446 1.334 . S
C447 C448 1.287 . S
C448 C447 1.287 . S
C448 C449 1.524 1_556 S
C448 H467 0.913 . S
C449 H425 0.950 . S
C449 C448 1.524 1_554 S
C449 C450 1.415 . S
C450 H426 0.950 . S
C450 C445 1.363 1_554 S
C450 C449 1.415 . S
C451 H427 0.951 . S
C451 C452 1.366 . S
C451 C453 1.388 . S
C452 C451 1.366 . S
C452 C456 1.385 . S
C453 H428 0.951 . S
C453 C451 1.388 . S
C453 C454 1.366 . S
C454 C453 1.366 . S
C454 C455 1.414 . S
C454 C457 1.499 . S
C455 H429 0.950 . S
C455 C454 1.414 . S
C455 C456 1.374 . S
C456 H430 0.950 . S
C456 C452 1.385 . S
C456 C455 1.374 . S
C457 C454 1.499 . S
C457 C458 1.373 1_565 S
C457 C459 1.389 . S
C458 H431 0.950 . S
C458 C444 1.377 1_554 S
C458 C457 1.373 1_545 S
C459 C443 1.377 1_554 S
C459 C457 1.389 . S
C459 C460 1.524 . S
C460 C459 1.524 . S
C460 C461 1.397 . S
C460 C465 1.363 1_554 S
C461 H432 0.950 . S
C461 C460 1.397 . S
C461 C462 1.334 . S
C462 H433 0.950 . S
C462 C461 1.334 . S
C462 C463 1.287 . S
C463 C462 1.287 . S
C463 C464 1.524 1_554 S
C463 H466 0.999 . S
C464 H434 0.950 . S
C464 C463 1.524 1_556 S
C464 C465 1.415 . S
C465 H435 0.950 . S
C465 C460 1.363 1_556 S
C465 C464 1.415 . S
H466 C463 0.999 . S
H467 C448 0.913 . S
H468 C486 0.951 . S
H469 C488 0.951 . S
H470 C490 0.950 . S
H471 C491 0.950 . S
H472 C493 0.950 . S
H473 C496 0.950 . S
H474 C497 0.950 . S
H475 C499 0.950 . S
H476 C500 0.950 . S
H477 C501 0.951 . S
H478 C503 0.951 . S
H479 C505 0.950 . S
H480 C506 0.950 . S
H481 C508 0.950 . S
H482 C511 0.950 . S
H483 C512 0.950 . S
H484 C514 0.950 . S
H485 C515 0.950 . S
C486 H468 0.951 . S
C486 C487 1.366 . S
C486 C488 1.388 . S
C487 C486 1.366 . S
C487 C491 1.385 . S
C488 H469 0.951 . S
C488 C486 1.388 . S
C488 C489 1.366 . S
C489 C488 1.366 . S
C489 C490 1.414 . S
C489 C492 1.499 . S
C490 H470 0.950 . S
C490 C489 1.414 . S
C490 C491 1.374 . S
C491 H471 0.950 . S
C491 C487 1.385 . S
C491 C490 1.374 . S
C492 C489 1.499 . S
C492 C493 1.373 . S
C492 C494 1.389 . S
C493 H472 0.950 . S
C493 C492 1.373 . S
C493 C509 1.377 . S
C494 C492 1.389 . S
C494 C495 1.524 . S
C494 C508 1.377 . S
C495 C494 1.524 . S
C495 C496 1.397 . S
C495 C500 1.363 . S
C496 H473 0.950 . S
C496 C495 1.397 . S
C496 C497 1.334 . S
C497 H474 0.950 . S
C497 C496 1.334 . S
C497 C498 1.287 . S
C498 C497 1.287 . S
C498 C499 1.524 . S
C498 H517 0.913 . S
C499 H475 0.950 . S
C499 C498 1.524 . S
C499 C500 1.415 . S
C500 H476 0.950 . S
C500 C495 1.363 . S
C500 C499 1.415 . S
C501 H477 0.951 . S
C501 C502 1.366 . S
C501 C503 1.388 . S
C502 C501 1.366 . S
C502 C506 1.385 . S
C503 H478 0.951 . S
C503 C501 1.388 . S
C503 C504 1.366 . S
C504 C503 1.366 . S
C504 C505 1.414 . S
C504 C507 1.499 . S
C505 H479 0.950 . S
C505 C504 1.414 . S
C505 C506 1.374 . S
C506 H480 0.950 . S
C506 C502 1.385 . S
C506 C505 1.374 . S
C507 C504 1.499 . S
C507 C508 1.373 . S
C507 C509 1.389 . S
C508 H481 0.950 . S
C508 C494 1.377 . S
C508 C507 1.373 . S
C509 C493 1.377 . S
C509 C507 1.389 . S
C509 C510 1.524 . S
C510 C509 1.524 . S
C510 C511 1.397 . S
C510 C515 1.363 . S
C511 H482 0.950 . S
C511 C510 1.397 . S
C511 C512 1.334 . S
C512 H483 0.950 . S
C512 C511 1.334 . S
C512 C513 1.287 . S
C513 C512 1.287 . S
C513 C514 1.524 . S
C513 H516 0.999 . S
C514 H484 0.950 . S
C514 C513 1.524 . S
C514 C515 1.415 . S
C515 H485 0.950 . S
C515 C510 1.363 . S
C515 C514 1.415 . S
H516 C513 0.999 . S
H517 C498 0.913 . S
H518 C536 0.951 . S
H519 C538 0.951 . S
H520 C540 0.950 . S
H521 C541 0.950 . S
H522 C543 0.950 . S
H523 C546 0.950 . S
H524 C547 0.950 . S
H525 C549 0.950 . S
H526 C550 0.950 . S
H527 C551 0.951 . S
H528 C553 0.951 . S
H529 C555 0.950 . S
H530 C556 0.950 . S
H531 C558 0.950 . S
H532 C561 0.950 . S
H533 C562 0.950 . S
H534 C564 0.950 . S
H535 C565 0.950 . S
C536 H518 0.951 . S
C536 C537 1.366 . S
C536 C538 1.388 . S
C537 C536 1.366 . S
C537 C541 1.385 . S
C538 H519 0.951 . S
C538 C536 1.388 . S
C538 C539 1.366 . S
C539 C538 1.366 . S
C539 C540 1.414 . S
C539 C542 1.499 . S
C540 H520 0.950 . S
C540 C539 1.414 . S
C540 C541 1.374 . S
C541 H521 0.950 . S
C541 C537 1.385 . S
C541 C540 1.374 . S
C542 C539 1.499 . S
C542 C543 1.373 . S
C542 C544 1.389 . S
C543 H522 0.950 . S
C543 C542 1.373 . S
C543 C559 1.377 . S
C544 C542 1.389 . S
C544 C545 1.524 . S
C544 C558 1.377 . S
C545 C544 1.524 . S
C545 C546 1.397 . S
C545 C550 1.363 . S
C546 H523 0.950 . S
C546 C545 1.397 . S
C546 C547 1.334 . S
C547 H524 0.950 . S
C547 C546 1.334 . S
C547 C548 1.287 . S
C548 C547 1.287 . S
C548 C549 1.524 . S
C548 H567 0.913 . S
C549 H525 0.950 . S
C549 C548 1.524 . S
C549 C550 1.415 . S
C550 H526 0.950 . S
C550 C545 1.363 . S
C550 C549 1.415 . S
C551 H527 0.951 . S
C551 C552 1.366 . S
C551 C553 1.388 . S
C552 C551 1.366 . S
C552 C556 1.385 . S
C553 H528 0.951 . S
C553 C551 1.388 . S
C553 C554 1.366 . S
C554 C553 1.366 . S
C554 C555 1.414 . S
C554 C557 1.499 . S
C555 H529 0.950 . S
C555 C554 1.414 . S
C555 C556 1.374 . S
C556 H530 0.950 . S
C556 C552 1.385 . S
C556 C555 1.374 . S
C557 C554 1.499 . S
C557 C558 1.373 . S
C557 C559 1.389 . S
C558 H531 0.950 . S
C558 C544 1.377 . S
C558 C557 1.373 . S
C559 C543 1.377 . S
C559 C557 1.389 . S
C559 C560 1.524 . S
C560 C559 1.524 . S
C560 C561 1.397 . S
C560 C565 1.363 . S
C561 H532 0.950 . S
C561 C560 1.397 . S
C561 C562 1.334 . S
C562 H533 0.950 . S
C562 C561 1.334 . S
C562 C563 1.287 . S
C563 C562 1.287 . S
C563 C564 1.524 . S
C563 H566 0.999 . S
C564 H534 0.950 . S
C564 C563 1.524 . S
C564 C565 1.415 . S
C565 H535 0.950 . S
C565 C560 1.363 . S
C565 C564 1.415 . S
H566 C563 0.999 . S
H567 C548 0.913 . S
H568 C586 0.951 . S
H569 C588 0.951 . S
H570 C590 0.950 . S
H571 C591 0.950 . S
H572 C593 0.950 . S
H573 C596 0.950 . S
H574 C597 0.950 . S
H575 C599 0.950 . S
H576 C600 0.950 . S
H577 C601 0.951 . S
H578 C603 0.951 . S
H579 C605 0.950 . S
H580 C606 0.950 . S
H581 C608 0.950 . S
H582 C611 0.950 . S
H583 C612 0.950 . S
H584 C614 0.950 . S
H585 C615 0.950 . S
C586 H568 0.951 . S
C586 C587 1.366 . S
C586 C588 1.388 . S
C587 C586 1.366 . S
C587 C591 1.385 . S
C588 H569 0.951 . S
C588 C586 1.388 . S
C588 C589 1.366 . S
C589 C588 1.366 . S
C589 C590 1.414 . S
C589 C592 1.499 . S
C590 H570 0.950 . S
C590 C589 1.414 . S
C590 C591 1.374 . S
C591 H571 0.950 . S
C591 C587 1.385 . S
C591 C590 1.374 . S
C592 C589 1.499 . S
C592 C593 1.373 . S
C592 C594 1.389 . S
C593 H572 0.950 . S
C593 C592 1.373 . S
C593 C609 1.377 . S
C594 C592 1.389 . S
C594 C595 1.524 . S
C594 C608 1.377 . S
C595 C594 1.524 . S
C595 C596 1.397 . S
C595 C600 1.363 . S
C596 H573 0.950 . S
C596 C595 1.397 . S
C596 C597 1.334 . S
C597 H574 0.950 . S
C597 C596 1.334 . S
C597 C598 1.287 . S
C598 C597 1.287 . S
C598 C599 1.524 . S
C598 H617 0.913 . S
C599 H575 0.950 . S
C599 C598 1.524 . S
C599 C600 1.415 . S
C600 H576 0.950 . S
C600 C595 1.363 . S
C600 C599 1.415 . S
C601 H577 0.951 . S
C601 C602 1.366 . S
C601 C603 1.388 . S
C602 C601 1.366 . S
C602 C606 1.385 . S
C603 H578 0.951 . S
C603 C601 1.388 . S
C603 C604 1.366 . S
C604 C603 1.366 . S
C604 C605 1.414 . S
C604 C607 1.499 . S
C605 H579 0.950 . S
C605 C604 1.414 . S
C605 C606 1.374 . S
C606 H580 0.950 . S
C606 C602 1.385 . S
C606 C605 1.374 . S
C607 C604 1.499 . S
C607 C608 1.373 . S
C607 C609 1.389 . S
C608 H581 0.950 . S
C608 C594 1.377 . S
C608 C607 1.373 . S
C609 C593 1.377 . S
C609 C607 1.389 . S
C609 C610 1.524 . S
C610 C609 1.524 . S
C610 C611 1.397 . S
C610 C615 1.363 . S
C611 H582 0.950 . S
C611 C610 1.397 . S
C611 C612 1.334 . S
C612 H583 0.950 . S
C612 C611 1.334 . S
C612 C613 1.287 . S
C613 C612 1.287 . S
C613 C614 1.524 . S
C613 H616 0.999 . S
C614 H584 0.950 . S
C614 C613 1.524 . S
C614 C615 1.415 . S
C615 H585 0.950 . S
C615 C610 1.363 . S
C615 C614 1.415 . S
H616 C613 0.999 . S
H617 C598 0.913 . S
H618 C636 0.951 . S
H619 C638 0.951 . S
H620 C640 0.950 . S
H621 C641 0.950 . S
H622 C643 0.950 . S
H623 C646 0.950 . S
H624 C647 0.950 . S
H625 C649 0.950 . S
H626 C650 0.950 . S
H627 C651 0.951 . S
H628 C653 0.951 . S
H629 C655 0.950 . S
H630 C656 0.950 . S
H631 C658 0.950 . S
H632 C661 0.950 . S
H633 C662 0.950 . S
H634 C664 0.950 . S
H635 C665 0.950 . S
C636 H618 0.951 . S
C636 C637 1.366 . S
C636 C638 1.388 . S
C637 C636 1.366 . S
C637 C641 1.385 . S
C638 H619 0.951 . S
C638 C636 1.388 . S
C638 C639 1.366 . S
C639 C638 1.366 . S
C639 C640 1.414 . S
C639 C642 1.499 . S
C640 H620 0.950 . S
C640 C639 1.414 . S
C640 C641 1.374 . S
C641 H621 0.950 . S
C641 C637 1.385 . S
C641 C640 1.374 . S
C642 C639 1.499 . S
C642 C643 1.373 . S
C642 C644 1.389 . S
C643 H622 0.950 . S
C643 C642 1.373 . S
C643 C659 1.377 . S
C644 C642 1.389 . S
C644 C645 1.524 . S
C644 C658 1.377 . S
C645 C644 1.524 . S
C645 C646 1.397 1_556 S
C645 C650 1.363 . S
C646 H623 0.950 . S
C646 C645 1.397 1_554 S
C646 C647 1.334 . S
C647 H624 0.950 . S
C647 C646 1.334 . S
C647 C648 1.287 . S
C648 C647 1.287 . S
C648 C649 1.524 . S
C648 H667 0.913 . S
C649 H625 0.950 . S
C649 C648 1.524 . S
C649 C650 1.415 1_554 S
C650 H626 0.950 . S
C650 C645 1.363 . S
C650 C649 1.415 1_556 S
C651 H627 0.951 . S
C651 C652 1.366 . S
C651 C653 1.388 . S
C652 C651 1.366 . S
C652 C656 1.385 . S
C653 H628 0.951 . S
C653 C651 1.388 . S
C653 C654 1.366 . S
C654 C653 1.366 . S
C654 C655 1.414 . S
C654 C657 1.499 . S
C655 H629 0.950 . S
C655 C654 1.414 . S
C655 C656 1.374 . S
C656 H630 0.950 . S
C656 C652 1.385 . S
C656 C655 1.374 . S
C657 C654 1.499 . S
C657 C658 1.373 . S
C657 C659 1.389 . S
C658 H631 0.950 . S
C658 C644 1.377 . S
C658 C657 1.373 . S
C659 C643 1.377 . S
C659 C657 1.389 . S
C659 C660 1.524 . S
C660 C659 1.524 . S
C660 C661 1.397 . S
C660 C665 1.363 . S
C661 H632 0.950 . S
C661 C660 1.397 . S
C661 C662 1.334 . S
C662 H633 0.950 . S
C662 C661 1.334 . S
C662 C663 1.287 . S
C663 C662 1.287 . S
C663 C664 1.524 . S
C663 H666 0.999 . S
C664 H634 0.950 . S
C664 C663 1.524 . S
C664 C665 1.415 . S
C665 H635 0.950 . S
C665 C660 1.363 . S
C665 C664 1.415 . S
H666 C663 0.999 . S
H667 C648 0.913 . S
H668 C686 0.951 . S
H669 C688 0.951 . S
H670 C690 0.950 . S
H671 C691 0.950 . S
H672 C693 0.950 . S
H673 C696 0.950 . S
H674 C697 0.950 . S
H675 C699 0.950 . S
H676 C700 0.950 . S
H677 C701 0.951 . S
H678 C703 0.951 . S
H679 C705 0.950 . S
H680 C706 0.950 . S
H681 C708 0.950 . S
H682 C711 0.950 . S
H683 C712 0.950 . S
H684 C714 0.950 . S
H685 C715 0.950 . S
C686 H668 0.951 . S
C686 C687 1.366 . S
C686 C688 1.388 . S
C687 C686 1.366 . S
C687 C691 1.385 . S
C688 H669 0.951 . S
C688 C686 1.388 . S
C688 C689 1.366 . S
C689 C688 1.366 . S
C689 C690 1.414 . S
C689 C692 1.499 . S
C690 H670 0.950 . S
C690 C689 1.414 . S
C690 C691 1.374 . S
C691 H671 0.950 . S
C691 C687 1.385 . S
C691 C690 1.374 . S
C692 C689 1.499 . S
C692 C693 1.373 . S
C692 C694 1.389 . S
C693 H672 0.950 . S
C693 C692 1.373 . S
C693 C709 1.377 . S
C694 C692 1.389 . S
C694 C695 1.524 . S
C694 C708 1.377 . S
C695 C694 1.524 . S
C695 C696 1.397 . S
C695 C700 1.363 . S
C696 H673 0.950 . S
C696 C695 1.397 . S
C696 C697 1.334 . S
C697 H674 0.950 . S
C697 C696 1.334 . S
C697 C698 1.287 . S
C698 C697 1.287 . S
C698 C699 1.524 . S
C698 H717 0.913 . S
C699 H675 0.950 . S
C699 C698 1.524 . S
C699 C700 1.415 . S
C700 H676 0.950 . S
C700 C695 1.363 . S
C700 C699 1.415 . S
C701 H677 0.951 . S
C701 C702 1.366 . S
C701 C703 1.388 . S
C702 C701 1.366 . S
C702 C706 1.385 . S
C703 H678 0.951 . S
C703 C701 1.388 . S
C703 C704 1.366 . S
C704 C703 1.366 . S
C704 C705 1.414 . S
C704 C707 1.499 . S
C705 H679 0.950 . S
C705 C704 1.414 . S
C705 C706 1.374 . S
C706 H680 0.950 . S
C706 C702 1.385 . S
C706 C705 1.374 . S
C707 C704 1.499 . S
C707 C708 1.373 . S
C707 C709 1.389 . S
C708 H681 0.950 . S
C708 C694 1.377 . S
C708 C707 1.373 . S
C709 C693 1.377 . S
C709 C707 1.389 . S
C709 C710 1.524 . S
C710 C709 1.524 . S
C710 C711 1.397 . S
C710 C715 1.363 1_554 S
C711 H682 0.950 . S
C711 C710 1.397 . S
C711 C712 1.334 . S
C712 H683 0.950 . S
C712 C711 1.334 . S
C712 C713 1.287 1_554 S
C713 C712 1.287 1_556 S
C713 C714 1.524 . S
C713 H716 0.999 . S
C714 H684 0.950 . S
C714 C713 1.524 . S
C714 C715 1.415 . S
C715 H685 0.950 . S
C715 C710 1.363 1_556 S
C715 C714 1.415 . S
H716 C713 0.999 . S
H717 C698 0.913 . S
H718 C736 0.951 . S
H719 C738 0.951 . S
H720 C740 0.950 . S
H721 C741 0.950 . S
H722 C743 0.950 . S
H723 C746 0.950 . S
H724 C747 0.950 . S
H725 C749 0.950 . S
H726 C750 0.950 . S
H727 C751 0.951 . S
H728 C753 0.951 . S
H729 C755 0.950 . S
H730 C756 0.950 . S
H731 C758 0.950 . S
H732 C761 0.950 . S
H733 C762 0.950 . S
H734 C764 0.950 . S
H735 C765 0.950 . S
C736 H718 0.951 . S
C736 C737 1.366 . S
C736 C738 1.388 . S
C737 C736 1.366 . S
C737 C741 1.385 . S
C738 H719 0.951 . S
C738 C736 1.388 . S
C738 C739 1.366 . S
C739 C738 1.366 . S
C739 C740 1.414 . S
C739 C742 1.499 . S
C740 H720 0.950 . S
C740 C739 1.414 . S
C740 C741 1.374 . S
C741 H721 0.950 . S
C741 C737 1.385 . S
C741 C740 1.374 . S
C742 C739 1.499 . S
C742 C743 1.373 . S
C742 C744 1.389 . S
C743 H722 0.950 . S
C743 C742 1.373 . S
C743 C759 1.377 . S
C744 C742 1.389 . S
C744 C745 1.524 . S
C744 C758 1.377 . S
C745 C744 1.524 . S
C745 C746 1.397 . S
C745 C750 1.363 . S
C746 H723 0.950 . S
C746 C745 1.397 . S
C746 C747 1.334 . S
C747 H724 0.950 . S
C747 C746 1.334 . S
C747 C748 1.287 . S
C748 C747 1.287 . S
C748 C749 1.524 . S
C748 H767 0.913 . S
C749 H725 0.950 . S
C749 C748 1.524 . S
C749 C750 1.415 . S
C750 H726 0.950 . S
C750 C745 1.363 . S
C750 C749 1.415 . S
C751 H727 0.951 . S
C751 C752 1.366 . S
C751 C753 1.388 . S
C752 C751 1.366 . S
C752 C756 1.385 . S
C753 H728 0.951 . S
C753 C751 1.388 . S
C753 C754 1.366 . S
C754 C753 1.366 . S
C754 C755 1.414 . S
C754 C757 1.499 . S
C755 H729 0.950 . S
C755 C754 1.414 . S
C755 C756 1.374 . S
C756 H730 0.950 . S
C756 C752 1.385 . S
C756 C755 1.374 . S
C757 C754 1.499 . S
C757 C758 1.373 . S
C757 C759 1.389 . S
C758 H731 0.950 . S
C758 C744 1.377 . S
C758 C757 1.373 . S
C759 C743 1.377 . S
C759 C757 1.389 . S
C759 C760 1.524 . S
C760 C759 1.524 . S
C760 C761 1.397 . S
C760 C765 1.363 . S
C761 H732 0.950 . S
C761 C760 1.397 . S
C761 C762 1.334 . S
C762 H733 0.950 . S
C762 C761 1.334 . S
C762 C763 1.287 . S
C763 C762 1.287 . S
C763 C764 1.524 . S
C763 H766 0.999 . S
C764 H734 0.950 . S
C764 C763 1.524 . S
C764 C765 1.415 . S
C765 H735 0.950 . S
C765 C760 1.363 . S
C765 C764 1.415 . S
H766 C763 0.999 . S
H767 C748 0.913 . S
H768 C786 0.951 . S
H769 C788 0.951 . S
H770 C790 0.950 . S
H771 C791 0.950 . S
H772 C793 0.950 . S
H773 C796 0.950 . S
H774 C797 0.950 . S
H775 C799 0.950 . S
H776 C800 0.950 . S
H777 C801 0.951 . S
H778 C803 0.951 . S
H779 C805 0.950 . S
H780 C806 0.950 . S
H781 C808 0.950 . S
H782 C811 0.950 . S
H783 C812 0.950 . S
H784 C814 0.950 . S
H785 C815 0.950 . S
C786 H768 0.951 . S
C786 C787 1.366 . S
C786 C788 1.388 . S
C787 C786 1.366 . S
C787 C791 1.385 . S
C788 H769 0.951 . S
C788 C786 1.388 . S
C788 C789 1.366 . S
C789 C788 1.366 . S
C789 C790 1.414 . S
C789 C792 1.499 . S
C790 H770 0.950 . S
C790 C789 1.414 . S
C790 C791 1.374 . S
C791 H771 0.950 . S
C791 C787 1.385 . S
C791 C790 1.374 . S
C792 C789 1.499 . S
C792 C793 1.373 . S
C792 C794 1.389 . S
C793 H772 0.950 . S
C793 C792 1.373 . S
C793 C809 1.377 . S
C794 C792 1.389 . S
C794 C795 1.524 . S
C794 C808 1.377 . S
C795 C794 1.524 . S
C795 C796 1.397 . S
C795 C800 1.363 . S
C796 H773 0.950 . S
C796 C795 1.397 . S
C796 C797 1.334 . S
C797 H774 0.950 . S
C797 C796 1.334 . S
C797 C798 1.287 . S
C798 C797 1.287 . S
C798 C799 1.524 . S
C798 H817 0.913 . S
C799 H775 0.950 . S
C799 C798 1.524 . S
C799 C800 1.415 . S
C800 H776 0.950 . S
C800 C795 1.363 . S
C800 C799 1.415 . S
C801 H777 0.951 . S
C801 C802 1.366 . S
C801 C803 1.388 . S
C802 C801 1.366 . S
C802 C806 1.385 . S
C803 H778 0.951 . S
C803 C801 1.388 . S
C803 C804 1.366 . S
C804 C803 1.366 . S
C804 C805 1.414 . S
C804 C807 1.499 . S
C805 H779 0.950 . S
C805 C804 1.414 . S
C805 C806 1.374 . S
C806 H780 0.950 . S
C806 C802 1.385 . S
C806 C805 1.374 . S
C807 C804 1.499 . S
C807 C808 1.373 . S
C807 C809 1.389 . S
C808 H781 0.950 . S
C808 C794 1.377 . S
C808 C807 1.373 . S
C809 C793 1.377 . S
C809 C807 1.389 . S
C809 C810 1.524 . S
C810 C809 1.524 . S
C810 C811 1.397 . S
C810 C815 1.363 . S
C811 H782 0.950 . S
C811 C810 1.397 . S
C811 C812 1.334 . S
C812 H783 0.950 . S
C812 C811 1.334 . S
C812 C813 1.287 . S
C813 C812 1.287 . S
C813 C814 1.524 . S
C813 H816 0.999 . S
C814 H784 0.950 . S
C814 C813 1.524 . S
C814 C815 1.415 . S
C815 H785 0.950 . S
C815 C810 1.363 . S
C815 C814 1.415 . S
H816 C813 0.999 . S
H817 C798 0.913 . S
H818 C836 0.951 . S
H819 C838 0.951 . S
H820 C840 0.950 . S
H821 C841 0.950 1_554 S
H822 C843 0.959 . S
H823 C846 0.950 . S
H824 C847 0.950 . S
H825 C849 0.950 . S
H826 C850 0.950 . S
H827 C851 0.951 . S
H828 C853 0.951 . S
H829 C855 0.950 . S
H830 C856 0.950 . S
H831 C858 0.959 . S
H832 C861 0.950 . S
H833 C862 0.950 . S
H834 C864 0.950 . S
H835 C865 0.950 . S
C836 H818 0.951 . S
C836 C837 1.366 . S
C836 C838 1.388 . S
C837 C836 1.366 . S
C837 C841 1.385 . S
C838 H819 0.951 . S
C838 C836 1.388 . S
C838 C839 1.366 . S
C839 C838 1.366 . S
C839 C840 1.414 . S
C839 C842 1.499 . S
C840 H820 0.950 . S
C840 C839 1.414 . S
C840 C841 1.374 . S
C841 H821 0.950 1_556 S
C841 C837 1.385 . S
C841 C840 1.374 . S
C842 C839 1.499 . S
C842 C843 1.372 1_655 S
C842 C844 1.389 . S
C843 H822 0.959 . S
C843 C842 1.372 1_455 S
C843 C859 1.380 . S
C844 C842 1.389 . S
C844 C845 1.524 . S
C844 C858 1.379 . S
C845 C844 1.524 . S
C845 C846 1.397 . S
C845 C850 1.363 . S
C846 H823 0.950 . S
C846 C845 1.397 . S
C846 C847 1.334 . S
C847 H824 0.950 . S
C847 C846 1.334 . S
C847 C848 1.287 . S
C848 C847 1.287 . S
C848 C849 1.524 . S
C848 H867 0.913 . S
C849 H825 0.950 . S
C849 C848 1.524 . S
C849 C850 1.415 . S
C850 H826 0.950 . S
C850 C845 1.363 . S
C850 C849 1.415 . S
C851 H827 0.951 . S
C851 C852 1.366 . S
C851 C853 1.388 . S
C852 C851 1.366 . S
C852 C856 1.385 . S
C853 H828 0.951 . S
C853 C851 1.388 . S
C853 C854 1.366 . S
C854 C853 1.366 . S
C854 C855 1.414 . S
C854 C857 1.499 . S
C855 H829 0.950 . S
C855 C854 1.414 . S
C855 C856 1.374 . S
C856 H830 0.950 . S
C856 C852 1.385 . S
C856 C855 1.374 . S
C857 C854 1.499 . S
C857 C858 1.373 1_455 S
C857 C859 1.389 . S
C858 H831 0.959 . S
C858 C844 1.379 . S
C858 C857 1.373 1_655 S
C859 C843 1.380 . S
C859 C857 1.389 . S
C859 C860 1.524 . S
C860 C859 1.524 . S
C860 C861 1.397 . S
C860 C865 1.363 . S
C861 H832 0.950 . S
C861 C860 1.397 . S
C861 C862 1.334 . S
C862 H833 0.950 . S
C862 C861 1.334 . S
C862 C863 1.287 . S
C863 C862 1.287 . S
C863 C864 1.524 . S
C863 H866 0.999 . S
C864 H834 0.950 . S
C864 C863 1.524 . S
C864 C865 1.415 . S
C865 H835 0.950 . S
C865 C860 1.363 . S
C865 C864 1.415 . S
H866 C863 0.999 . S
H867 C848 0.913 . S
H868 C886 0.951 . S
H869 C888 0.951 . S
H870 C890 0.950 . S
H871 C891 0.950 . S
H872 C893 0.950 1_556 S
H873 C896 0.950 . S
H874 C897 0.950 . S
H875 C899 0.950 . S
H876 C900 0.950 . S
H877 C901 0.951 . S
H878 C903 0.951 . S
H879 C905 0.950 . S
H880 C906 0.950 . S
H881 C908 0.950 1_554 S
H882 C911 0.950 . S
H883 C912 0.950 . S
H884 C914 0.950 . S
H885 C915 0.950 . S
C886 H868 0.951 . S
C886 C887 1.366 . S
C886 C888 1.388 . S
C887 C886 1.366 . S
C887 C891 1.385 . S
C888 H869 0.951 . S
C888 C886 1.388 . S
C888 C889 1.366 . S
C889 C888 1.366 . S
C889 C890 1.414 . S
C889 C892 1.499 . S
C890 H870 0.950 . S
C890 C889 1.414 . S
C890 C891 1.374 . S
C891 H871 0.950 . S
C891 C887 1.385 . S
C891 C890 1.374 . S
C892 C889 1.499 . S
C892 C893 1.377 . S
C892 C894 1.389 1_565 S
C893 H872 0.950 1_554 S
C893 C892 1.377 . S
C893 C909 1.373 1_554 S
C894 C892 1.389 1_545 S
C894 C895 1.524 . S
C894 C908 1.376 1_554 S
C895 C894 1.524 . S
C895 C896 1.397 1_545 S
C895 C900 1.363 . S
C896 H873 0.950 . S
C896 C895 1.397 1_565 S
C896 C897 1.334 . S
C897 H874 0.950 . S
C897 C896 1.334 . S
C897 C898 1.287 1_565 S
C898 C897 1.287 1_545 S
C898 C899 1.524 . S
C898 H917 0.913 . S
C899 H875 0.950 . S
C899 C898 1.524 . S
C899 C900 1.415 . S
C900 H876 0.950 . S
C900 C895 1.363 . S
C900 C899 1.415 . S
C901 H877 0.951 . S
C901 C902 1.366 . S
C901 C903 1.388 . S
C902 C901 1.366 . S
C902 C906 1.385 . S
C903 H878 0.951 . S
C903 C901 1.388 . S
C903 C904 1.366 . S
C904 C903 1.366 . S
C904 C905 1.414 . S
C904 C907 1.499 . S
C905 H879 0.950 . S
C905 C904 1.414 . S
C905 C906 1.374 . S
C906 H880 0.950 . S
C906 C902 1.385 . S
C906 C905 1.374 . S
C907 C904 1.499 . S
C907 C908 1.374 . S
C907 C909 1.389 1_545 S
C908 H881 0.950 1_556 S
C908 C894 1.376 1_556 S
C908 C907 1.374 . S
C909 C893 1.373 1_556 S
C909 C907 1.389 1_565 S
C909 C910 1.524 . S
C910 C909 1.524 . S
C910 C911 1.397 1_565 S
C910 C915 1.363 . S
C911 H882 0.950 . S
C911 C910 1.397 1_545 S
C911 C912 1.334 . S
C912 H883 0.950 . S
C912 C911 1.334 . S
C912 C913 1.287 1_545 S
C913 C912 1.287 1_565 S
C913 C914 1.524 . S
C913 H916 0.999 . S
C914 H884 0.950 . S
C914 C913 1.524 . S
C914 C915 1.415 . S
C915 H885 0.950 . S
C915 C910 1.363 . S
C915 C914 1.415 . S
H916 C913 0.999 . S
H917 C898 0.913 . S
H918 C936 0.951 . S
H919 C938 0.951 . S
H920 C940 0.950 . S
H921 C941 0.950 1_556 S
H922 C943 0.950 . S
H923 C946 0.950 . S
H924 C947 0.950 . S
H925 C949 0.950 . S
H926 C950 0.950 . S
H927 C951 0.951 . S
H928 C953 0.951 . S
H929 C955 0.950 . S
H930 C956 0.950 . S
H931 C958 0.950 . S
H932 C961 0.950 . S
H933 C962 0.950 . S
H934 C964 0.950 . S
H935 C965 0.950 . S
C936 H918 0.951 . S
C936 C937 1.366 . S
C936 C938 1.388 . S
C937 C936 1.366 . S
C937 C941 1.385 . S
C938 H919 0.951 . S
C938 C936 1.388 . S
C938 C939 1.366 . S
C939 C938 1.366 . S
C939 C940 1.414 . S
C939 C942 1.499 . S
C940 H920 0.950 . S
C940 C939 1.414 . S
C940 C941 1.374 . S
C941 H921 0.950 1_554 S
C941 C937 1.385 . S
C941 C940 1.374 . S
C942 C939 1.499 . S
C942 C943 1.373 . S
C942 C944 1.389 . S
C943 H922 0.950 . S
C943 C942 1.373 . S
C943 C959 1.377 . S
C944 C942 1.389 . S
C944 C945 1.524 . S
C944 C958 1.377 . S
C945 C944 1.524 . S
C945 C946 1.397 . S
C945 C950 1.363 . S
C946 H923 0.950 . S
C946 C945 1.397 . S
C946 C947 1.334 . S
C947 H924 0.950 . S
C947 C946 1.334 . S
C947 C948 1.287 . S
C948 C947 1.287 . S
C948 C949 1.524 . S
C948 H967 0.913 . S
C949 H925 0.950 . S
C949 C948 1.524 . S
C949 C950 1.415 . S
C950 H926 0.950 . S
C950 C945 1.363 . S
C950 C949 1.415 . S
C951 H927 0.951 . S
C951 C952 1.366 . S
C951 C953 1.388 . S
C952 C951 1.366 . S
C952 C956 1.385 . S
C953 H928 0.951 . S
C953 C951 1.388 . S
C953 C954 1.366 . S
C954 C953 1.366 . S
C954 C955 1.414 . S
C954 C957 1.499 . S
C955 H929 0.950 . S
C955 C954 1.414 . S
C955 C956 1.374 . S
C956 H930 0.950 . S
C956 C952 1.385 . S
C956 C955 1.374 . S
C957 C954 1.499 . S
C957 C958 1.373 . S
C957 C959 1.389 . S
C958 H931 0.950 . S
C958 C944 1.377 . S
C958 C957 1.373 . S
C959 C943 1.377 . S
C959 C957 1.389 . S
C959 C960 1.524 . S
C960 C959 1.524 . S
C960 C961 1.397 . S
C960 C965 1.363 . S
C961 H932 0.950 . S
C961 C960 1.397 . S
C961 C962 1.334 . S
C962 H933 0.950 . S
C962 C961 1.334 . S
C962 C963 1.287 . S
C963 C962 1.287 . S
C963 C964 1.524 . S
C963 H966 0.999 . S
C964 H934 0.950 . S
C964 C963 1.524 . S
C964 C965 1.415 . S
C965 H935 0.950 . S
C965 C960 1.363 . S
C965 C964 1.415 . S
H966 C963 0.999 . S
H967 C948 0.913 . S
H968 C986 0.951 . S
H969 C988 0.951 . S
H970 C990 0.950 . S
H971 C991 0.950 . S
H972 C993 0.950 . S
H973 C996 0.950 . S
H974 C997 0.950 . S
H975 C999 0.950 . S
H976 C1000 0.950 . S
H977 C1001 0.951 . S
H978 C1003 0.951 . S
H979 C1005 0.950 . S
H980 C1006 0.950 . S
H981 C1008 0.950 . S
H982 C1011 0.950 . S
H983 C1012 0.950 . S
H984 C1014 0.950 . S
H985 C1015 0.950 . S
C986 H968 0.951 . S
C986 C987 1.366 . S
C986 C988 1.388 . S
C987 C986 1.366 . S
C987 C991 1.385 . S
C988 H969 0.951 . S
C988 C986 1.388 . S
C988 C989 1.366 . S
C989 C988 1.366 . S
C989 C990 1.414 . S
C989 C992 1.499 . S
C990 H970 0.950 . S
C990 C989 1.414 . S
C990 C991 1.374 . S
C991 H971 0.950 . S
C991 C987 1.385 . S
C991 C990 1.374 . S
C992 C989 1.499 . S
C992 C993 1.373 1_455 S
C992 C994 1.389 . S
C993 H972 0.950 . S
C993 C992 1.373 1_655 S
C993 C1009 1.377 . S
C994 C992 1.389 . S
C994 C995 1.524 . S
C994 C1008 1.377 . S
C995 C994 1.524 . S
C995 C996 1.397 . S
C995 C1000 1.363 . S
C996 H973 0.950 . S
C996 C995 1.397 . S
C996 C997 1.334 . S
C997 H974 0.950 . S
C997 C996 1.334 . S
C997 C998 1.287 . S
C998 C997 1.287 . S
C998 C999 1.524 . S
C998 H1017 0.913 . S
C999 H975 0.950 . S
C999 C998 1.524 . S
C999 C1000 1.415 . S
C1000 H976 0.950 . S
C1000 C995 1.363 . S
C1000 C999 1.415 . S
C1001 H977 0.951 . S
C1001 C1002 1.366 . S
C1001 C1003 1.388 . S
C1002 C1001 1.366 . S
C1002 C1006 1.385 . S
C1003 H978 0.951 . S
C1003 C1001 1.388 . S
C1003 C1004 1.366 . S
C1004 C1003 1.366 . S
C1004 C1005 1.414 . S
C1004 C1007 1.499 . S
C1005 H979 0.950 . S
C1005 C1004 1.414 . S
C1005 C1006 1.374 . S
C1006 H980 0.950 . S
C1006 C1002 1.385 . S
C1006 C1005 1.374 . S
C1007 C1004 1.499 . S
C1007 C1008 1.373 1_655 S
C1007 C1009 1.389 . S
C1008 H981 0.950 . S
C1008 C994 1.377 . S
C1008 C1007 1.373 1_455 S
C1009 C993 1.377 . S
C1009 C1007 1.389 . S
C1009 C1010 1.524 . S
C1010 C1009 1.524 . S
C1010 C1011 1.397 . S
C1010 C1015 1.363 . S
C1011 H982 0.950 . S
C1011 C1010 1.397 . S
C1011 C1012 1.334 . S
C1012 H983 0.950 . S
C1012 C1011 1.334 . S
C1012 C1013 1.287 . S
C1013 C1012 1.287 . S
C1013 C1014 1.524 . S
C1013 H1016 0.999 . S
C1014 H984 0.950 . S
C1014 C1013 1.524 . S
C1014 C1015 1.415 . S
C1015 H985 0.950 . S
C1015 C1010 1.363 . S
C1015 C1014 1.415 . S
H1016 C1013 0.999 . S
H1017 C998 0.913 . S
H1018 C1036 0.951 . S
H1019 C1038 0.951 . S
H1020 C1040 0.950 . S
H1021 C1041 0.950 . S
H1022 C1043 0.935 . S
H1023 C1046 0.950 . S
H1024 C1047 0.950 . S
H1025 C1049 0.950 . S
H1026 C1050 0.950 . S
H1027 C1051 0.951 . S
H1028 C1053 0.951 . S
H1029 C1055 0.950 . S
H1030 C1056 0.950 . S
H1031 C1058 0.934 . S
H1032 C1061 0.950 . S
H1033 C1062 0.950 . S
H1034 C1064 0.950 . S
H1035 C1065 0.950 . S
C1036 H1018 0.951 . S
C1036 C1037 1.366 . S
C1036 C1038 1.388 . S
C1037 C1036 1.366 . S
C1037 C1041 1.385 . S
C1038 H1019 0.951 . S
C1038 C1036 1.388 . S
C1038 C1039 1.366 . S
C1039 C1038 1.366 . S
C1039 C1040 1.414 . S
C1039 C1042 1.499 . S
C1040 H1020 0.950 . S
C1040 C1039 1.414 . S
C1040 C1041 1.374 . S
C1041 H1021 0.950 . S
C1041 C1037 1.385 . S
C1041 C1040 1.374 . S
C1042 C1039 1.499 . S
C1042 C1043 1.416 . S
C1042 C1044 1.389 . S
C1043 H1022 0.935 . S
C1043 C1042 1.416 . S
C1043 C1059 1.351 1_565 S
C1044 C1042 1.389 . S
C1044 C1045 1.524 . S
C1044 C1058 1.349 1_565 S
C1045 C1044 1.524 . S
C1045 C1046 1.397 . S
C1045 C1050 1.363 . S
C1046 H1023 0.950 . S
C1046 C1045 1.397 . S
C1046 C1047 1.334 . S
C1047 H1024 0.950 . S
C1047 C1046 1.334 . S
C1047 C1048 1.287 . S
C1048 C1047 1.287 . S
C1048 C1049 1.524 . S
C1048 H1067 0.913 . S
C1049 H1025 0.950 . S
C1049 C1048 1.524 . S
C1049 C1050 1.415 . S
C1050 H1026 0.950 . S
C1050 C1045 1.363 . S
C1050 C1049 1.415 . S
C1051 H1027 0.951 . S
C1051 C1052 1.366 . S
C1051 C1053 1.388 . S
C1052 C1051 1.366 . S
C1052 C1056 1.385 . S
C1053 H1028 0.951 . S
C1053 C1051 1.388 . S
C1053 C1054 1.366 . S
C1054 C1053 1.366 . S
C1054 C1055 1.414 . S
C1054 C1057 1.499 . S
C1055 H1029 0.950 . S
C1055 C1054 1.414 . S
C1055 C1056 1.374 . S
C1056 H1030 0.950 . S
C1056 C1052 1.385 . S
C1056 C1055 1.374 . S
C1057 C1054 1.499 . S
C1057 C1058 1.418 . S
C1057 C1059 1.389 . S
C1058 H1031 0.934 . S
C1058 C1044 1.349 1_545 S
C1058 C1057 1.418 . S
C1059 C1043 1.351 1_545 S
C1059 C1057 1.389 . S
C1059 C1060 1.524 . S
C1060 C1059 1.524 . S
C1060 C1061 1.397 . S
C1060 C1065 1.363 . S
C1061 H1032 0.950 . S
C1061 C1060 1.397 . S
C1061 C1062 1.334 . S
C1062 H1033 0.950 . S
C1062 C1061 1.334 . S
C1062 C1063 1.287 . S
C1063 C1062 1.287 . S
C1063 C1064 1.524 . S
C1063 H1066 0.999 . S
C1064 H1034 0.950 . S
C1064 C1063 1.524 . S
C1064 C1065 1.415 . S
C1065 H1035 0.950 . S
C1065 C1060 1.363 . S
C1065 C1064 1.415 . S
H1066 C1063 0.999 . S
H1067 C1048 0.913 . S
H1068 C1086 0.951 . S
H1069 C1088 0.951 . S
H1070 C1090 0.950 . S
H1071 C1091 0.950 . S
H1072 C1093 0.950 . S
H1073 C1096 0.950 . S
H1074 C1097 0.950 . S
H1075 C1099 0.950 . S
H1076 C1100 0.950 . S
H1077 C1101 0.951 . S
H1078 C1103 0.951 . S
H1079 C1105 0.950 . S
H1080 C1106 0.950 . S
H1081 C1108 0.950 . S
H1082 C1111 0.950 . S
H1083 C1112 0.950 . S
H1084 C1114 0.950 . S
H1085 C1115 0.950 . S
C1086 H1068 0.951 . S
C1086 C1087 1.366 . S
C1086 C1088 1.388 . S
C1087 C1086 1.366 . S
C1087 C1091 1.385 . S
C1088 H1069 0.951 . S
C1088 C1086 1.388 . S
C1088 C1089 1.366 . S
C1089 C1088 1.366 . S
C1089 C1090 1.414 . S
C1089 C1092 1.499 . S
C1090 H1070 0.950 . S
C1090 C1089 1.414 . S
C1090 C1091 1.374 . S
C1091 H1071 0.950 . S
C1091 C1087 1.385 . S
C1091 C1090 1.374 . S
C1092 C1089 1.499 . S
C1092 C1093 1.373 . S
C1092 C1094 1.389 . S
C1093 H1072 0.950 . S
C1093 C1092 1.373 . S
C1093 C1109 1.377 . S
C1094 C1092 1.389 . S
C1094 C1095 1.524 . S
C1094 C1108 1.377 . S
C1095 C1094 1.524 . S
C1095 C1096 1.397 . S
C1095 C1100 1.363 . S
C1096 H1073 0.950 . S
C1096 C1095 1.397 . S
C1096 C1097 1.334 . S
C1097 H1074 0.950 . S
C1097 C1096 1.334 . S
C1097 C1098 1.287 . S
C1098 C1097 1.287 . S
C1098 C1099 1.524 . S
C1098 H1117 0.913 . S
C1099 H1075 0.950 . S
C1099 C1098 1.524 . S
C1099 C1100 1.415 . S
C1100 H1076 0.950 . S
C1100 C1095 1.363 . S
C1100 C1099 1.415 . S
C1101 H1077 0.951 . S
C1101 C1102 1.366 . S
C1101 C1103 1.388 . S
C1102 C1101 1.366 . S
C1102 C1106 1.385 . S
C1103 H1078 0.951 . S
C1103 C1101 1.388 . S
C1103 C1104 1.366 . S
C1104 C1103 1.366 . S
C1104 C1105 1.414 . S
C1104 C1107 1.499 . S
C1105 H1079 0.950 . S
C1105 C1104 1.414 . S
C1105 C1106 1.374 . S
C1106 H1080 0.950 . S
C1106 C1102 1.385 . S
C1106 C1105 1.374 . S
C1107 C1104 1.499 . S
C1107 C1108 1.373 . S
C1107 C1109 1.389 . S
C1108 H1081 0.950 . S
C1108 C1094 1.377 . S
C1108 C1107 1.373 . S
C1109 C1093 1.377 . S
C1109 C1107 1.389 . S
C1109 C1110 1.524 . S
C1110 C1109 1.524 . S
C1110 C1111 1.397 . S
C1110 C1115 1.363 . S
C1111 H1082 0.950 . S
C1111 C1110 1.397 . S
C1111 C1112 1.334 . S
C1112 H1083 0.950 . S
C1112 C1111 1.334 . S
C1112 C1113 1.287 . S
C1113 C1112 1.287 . S
C1113 C1114 1.524 . S
C1113 H1116 0.999 . S
C1114 H1084 0.950 . S
C1114 C1113 1.524 . S
C1114 C1115 1.415 . S
C1115 H1085 0.950 . S
C1115 C1110 1.363 . S
C1115 C1114 1.415 . S
H1116 C1113 0.999 . S
H1117 C1098 0.913 . S
H1118 C1136 0.951 . S
H1119 C1138 0.951 . S
H1120 C1140 0.950 . S
H1121 C1141 0.950 . S
H1122 C1143 0.950 . S
H1123 C1146 0.950 . S
H1124 C1147 0.950 . S
H1125 C1149 0.950 . S
H1126 C1150 0.950 . S
H1127 C1151 0.951 . S
H1128 C1153 0.951 . S
H1129 C1155 0.950 . S
H1130 C1156 0.950 . S
H1131 C1158 0.950 . S
H1132 C1161 0.950 . S
H1133 C1162 0.950 . S
H1134 C1164 0.950 . S
H1135 C1165 0.950 . S
C1136 H1118 0.951 . S
C1136 C1137 1.366 . S
C1136 C1138 1.388 . S
C1137 C1136 1.366 . S
C1137 C1141 1.385 . S
C1138 H1119 0.951 . S
C1138 C1136 1.388 . S
C1138 C1139 1.366 . S
C1139 C1138 1.366 . S
C1139 C1140 1.414 . S
C1139 C1142 1.499 . S
C1140 H1120 0.950 . S
C1140 C1139 1.414 . S
C1140 C1141 1.374 . S
C1141 H1121 0.950 . S
C1141 C1137 1.385 . S
C1141 C1140 1.374 . S
C1142 C1139 1.499 . S
C1142 C1143 1.373 . S
C1142 C1144 1.389 . S
C1143 H1122 0.950 . S
C1143 C1142 1.373 . S
C1143 C1159 1.377 . S
C1144 C1142 1.389 . S
C1144 C1145 1.524 . S
C1144 C1158 1.377 . S
C1145 C1144 1.524 . S
C1145 C1146 1.397 . S
C1145 C1150 1.363 . S
C1146 H1123 0.950 . S
C1146 C1145 1.397 . S
C1146 C1147 1.334 . S
C1147 H1124 0.950 . S
C1147 C1146 1.334 . S
C1147 C1148 1.287 . S
C1148 C1147 1.287 . S
C1148 C1149 1.524 . S
C1148 H1167 0.913 . S
C1149 H1125 0.950 . S
C1149 C1148 1.524 . S
C1149 C1150 1.415 . S
C1150 H1126 0.950 . S
C1150 C1145 1.363 . S
C1150 C1149 1.415 . S
C1151 H1127 0.951 . S
C1151 C1152 1.366 . S
C1151 C1153 1.388 . S
C1152 C1151 1.366 . S
C1152 C1156 1.385 . S
C1153 H1128 0.951 . S
C1153 C1151 1.388 . S
C1153 C1154 1.366 . S
C1154 C1153 1.366 . S
C1154 C1155 1.414 . S
C1154 C1157 1.499 . S
C1155 H1129 0.950 . S
C1155 C1154 1.414 . S
C1155 C1156 1.374 . S
C1156 H1130 0.950 . S
C1156 C1152 1.385 . S
C1156 C1155 1.374 . S
C1157 C1154 1.499 . S
C1157 C1158 1.373 . S
C1157 C1159 1.389 . S
C1158 H1131 0.950 . S
C1158 C1144 1.377 . S
C1158 C1157 1.373 . S
C1159 C1143 1.377 . S
C1159 C1157 1.389 . S
C1159 C1160 1.524 . S
C1160 C1159 1.524 . S
C1160 C1161 1.397 . S
C1160 C1165 1.363 . S
C1161 H1132 0.950 . S
C1161 C1160 1.397 . S
C1161 C1162 1.334 . S
C1162 H1133 0.950 . S
C1162 C1161 1.334 . S
C1162 C1163 1.287 . S
C1163 C1162 1.287 . S
C1163 C1164 1.524 . S
C1163 H1166 0.999 . S
C1164 H1134 0.950 . S
C1164 C1163 1.524 . S
C1164 C1165 1.415 . S
C1165 H1135 0.950 . S
C1165 C1160 1.363 . S
C1165 C1164 1.415 . S
H1166 C1163 0.999 . S
H1167 C1148 0.913 . S
H1168 C1186 0.951 . S
H1169 C1188 0.951 . S
H1170 C1190 0.950 . S
H1171 C1191 0.950 . S
H1172 C1193 0.950 . S
H1173 C1196 0.950 . S
H1174 C1197 0.950 . S
H1175 C1199 0.950 . S
H1176 C1200 0.950 . S
H1177 C1201 0.951 . S
H1178 C1203 0.951 . S
H1179 C1205 0.950 . S
H1180 C1206 0.950 . S
H1181 C1208 0.950 . S
H1182 C1211 0.950 . S
H1183 C1212 0.950 . S
H1184 C1214 0.950 . S
H1185 C1215 0.950 . S
C1186 H1168 0.951 . S
C1186 C1187 1.366 1_556 S
C1186 C1188 1.388 . S
C1187 C1186 1.366 1_554 S
C1187 C1191 1.385 . S
C1188 H1169 0.951 . S
C1188 C1186 1.388 . S
C1188 C1189 1.366 . S
C1189 C1188 1.366 . S
C1189 C1190 1.414 1_556 S
C1189 C1192 1.499 . S
C1190 H1170 0.950 . S
C1190 C1189 1.414 1_554 S
C1190 C1191 1.374 . S
C1191 H1171 0.950 . S
C1191 C1187 1.385 . S
C1191 C1190 1.374 . S
C1192 C1189 1.499 . S
C1192 C1193 1.373 . S
C1192 C1194 1.389 . S
C1193 H1172 0.950 . S
C1193 C1192 1.373 . S
C1193 C1209 1.377 . S
C1194 C1192 1.389 . S
C1194 C1195 1.524 . S
C1194 C1208 1.377 . S
C1195 C1194 1.524 . S
C1195 C1196 1.397 1_556 S
C1195 C1200 1.363 . S
C1196 H1173 0.950 . S
C1196 C1195 1.397 1_554 S
C1196 C1197 1.334 . S
C1197 H1174 0.950 . S
C1197 C1196 1.334 . S
C1197 C1198 1.287 . S
C1198 C1197 1.287 . S
C1198 C1199 1.524 1_554 S
C1198 H1217 0.913 . S
C1199 H1175 0.950 . S
C1199 C1198 1.524 1_556 S
C1199 C1200 1.415 . S
C1200 H1176 0.950 . S
C1200 C1195 1.363 . S
C1200 C1199 1.415 . S
C1201 H1177 0.951 . S
C1201 C1202 1.366 . S
C1201 C1203 1.388 . S
C1202 C1201 1.366 . S
C1202 C1206 1.385 . S
C1203 H1178 0.951 . S
C1203 C1201 1.388 . S
C1203 C1204 1.366 . S
C1204 C1203 1.366 . S
C1204 C1205 1.414 . S
C1204 C1207 1.499 . S
C1205 H1179 0.950 . S
C1205 C1204 1.414 . S
C1205 C1206 1.374 . S
C1206 H1180 0.950 . S
C1206 C1202 1.385 . S
C1206 C1205 1.374 . S
C1207 C1204 1.499 . S
C1207 C1208 1.373 . S
C1207 C1209 1.389 . S
C1208 H1181 0.950 . S
C1208 C1194 1.377 . S
C1208 C1207 1.373 . S
C1209 C1193 1.377 . S
C1209 C1207 1.389 . S
C1209 C1210 1.524 . S
C1210 C1209 1.524 . S
C1210 C1211 1.397 . S
C1210 C1215 1.363 . S
C1211 H1182 0.950 . S
C1211 C1210 1.397 . S
C1211 C1212 1.334 . S
C1212 H1183 0.950 . S
C1212 C1211 1.334 . S
C1212 C1213 1.287 . S
C1213 C1212 1.287 . S
C1213 C1214 1.524 . S
C1213 H1216 0.999 . S
C1214 H1184 0.950 . S
C1214 C1213 1.524 . S
C1214 C1215 1.415 . S
C1215 H1185 0.950 . S
C1215 C1210 1.363 . S
C1215 C1214 1.415 . S
H1216 C1213 0.999 . S
H1217 C1198 0.913 . S
H1218 C1236 0.951 . S
H1219 C1238 0.951 . S
H1220 C1240 0.950 . S
H1221 C1241 0.950 . S
H1222 C1243 0.950 . S
H1223 C1246 0.950 . S
H1224 C1247 0.950 . S
H1225 C1249 0.950 . S
H1226 C1250 0.950 . S
H1227 C1251 0.951 . S
H1228 C1253 0.951 . S
H1229 C1255 0.950 . S
H1230 C1256 0.950 . S
H1231 C1258 0.950 . S
H1232 C1261 0.950 . S
H1233 C1262 0.950 . S
H1234 C1264 0.950 . S
H1235 C1265 0.950 . S
C1236 H1218 0.951 . S
C1236 C1237 1.366 . S
C1236 C1238 1.388 . S
C1237 C1236 1.366 . S
C1237 C1241 1.385 . S
C1238 H1219 0.951 . S
C1238 C1236 1.388 . S
C1238 C1239 1.366 . S
C1239 C1238 1.366 . S
C1239 C1240 1.414 . S
C1239 C1242 1.499 . S
C1240 H1220 0.950 . S
C1240 C1239 1.414 . S
C1240 C1241 1.374 . S
C1241 H1221 0.950 . S
C1241 C1237 1.385 . S
C1241 C1240 1.374 . S
C1242 C1239 1.499 . S
C1242 C1243 1.373 . S
C1242 C1244 1.389 . S
C1243 H1222 0.950 . S
C1243 C1242 1.373 . S
C1243 C1259 1.377 . S
C1244 C1242 1.389 . S
C1244 C1245 1.524 . S
C1244 C1258 1.377 . S
C1245 C1244 1.524 . S
C1245 C1246 1.397 . S
C1245 C1250 1.363 1_554 S
C1246 H1223 0.950 . S
C1246 C1245 1.397 . S
C1246 C1247 1.334 . S
C1247 H1224 0.950 . S
C1247 C1246 1.334 . S
C1247 C1248 1.287 . S
C1248 C1247 1.287 . S
C1248 C1249 1.524 1_554 S
C1248 H1267 0.913 1_554 S
C1249 H1225 0.950 . S
C1249 C1248 1.524 1_556 S
C1249 C1250 1.415 . S
C1250 H1226 0.950 . S
C1250 C1245 1.363 1_556 S
C1250 C1249 1.415 . S
C1251 H1227 0.951 . S
C1251 C1252 1.366 1_554 S
C1251 C1253 1.388 . S
C1252 C1251 1.366 1_556 S
C1252 C1256 1.385 . S
C1253 H1228 0.951 . S
C1253 C1251 1.388 . S
C1253 C1254 1.366 . S
C1254 C1253 1.366 . S
C1254 C1255 1.414 1_554 S
C1254 C1257 1.499 . S
C1255 H1229 0.950 . S
C1255 C1254 1.414 1_556 S
C1255 C1256 1.374 . S
C1256 H1230 0.950 . S
C1256 C1252 1.385 . S
C1256 C1255 1.374 . S
C1257 C1254 1.499 . S
C1257 C1258 1.373 . S
C1257 C1259 1.389 . S
C1258 H1231 0.950 . S
C1258 C1244 1.377 . S
C1258 C1257 1.373 . S
C1259 C1243 1.377 . S
C1259 C1257 1.389 . S
C1259 C1260 1.524 . S
C1260 C1259 1.524 . S
C1260 C1261 1.397 . S
C1260 C1265 1.363 . S
C1261 H1232 0.950 . S
C1261 C1260 1.397 . S
C1261 C1262 1.334 . S
C1262 H1233 0.950 . S
C1262 C1261 1.334 . S
C1262 C1263 1.287 . S
C1263 C1262 1.287 . S
C1263 C1264 1.524 . S
C1263 H1266 0.999 . S
C1264 H1234 0.950 . S
C1264 C1263 1.524 . S
C1264 C1265 1.415 . S
C1265 H1235 0.950 . S
C1265 C1260 1.363 . S
C1265 C1264 1.415 . S
H1266 C1263 0.999 . S
H1267 C1248 0.913 1_556 S
H1268 C1286 0.951 . S
H1269 C1288 0.951 . S
H1270 C1290 0.950 . S
H1271 C1291 0.950 . S
H1272 C1293 0.950 . S
H1273 C1296 0.950 . S
H1274 C1297 0.950 . S
H1275 C1299 0.950 . S
H1276 C1300 0.950 . S
H1277 C1301 0.951 . S
H1278 C1303 0.951 . S
H1279 C1305 0.950 . S
H1280 C1306 0.950 . S
H1281 C1308 0.950 . S
H1282 C1311 0.950 . S
H1283 C1312 0.950 . S
H1284 C1314 0.950 . S
H1285 C1315 0.950 . S
C1286 H1268 0.951 . S
C1286 C1287 1.366 . S
C1286 C1288 1.388 . S
C1287 C1286 1.366 . S
C1287 C1291 1.385 . S
C1288 H1269 0.951 . S
C1288 C1286 1.388 . S
C1288 C1289 1.366 . S
C1289 C1288 1.366 . S
C1289 C1290 1.414 . S
C1289 C1292 1.499 . S
C1290 H1270 0.950 . S
C1290 C1289 1.414 . S
C1290 C1291 1.374 . S
C1291 H1271 0.950 . S
C1291 C1287 1.385 . S
C1291 C1290 1.374 . S
C1292 C1289 1.499 . S
C1292 C1293 1.373 . S
C1292 C1294 1.389 . S
C1293 H1272 0.950 . S
C1293 C1292 1.373 . S
C1293 C1309 1.377 . S
C1294 C1292 1.389 . S
C1294 C1295 1.524 . S
C1294 C1308 1.377 . S
C1295 C1294 1.524 . S
C1295 C1296 1.397 . S
C1295 C1300 1.363 . S
C1296 H1273 0.950 . S
C1296 C1295 1.397 . S
C1296 C1297 1.334 . S
C1297 H1274 0.950 . S
C1297 C1296 1.334 . S
C1297 C1298 1.287 . S
C1298 C1297 1.287 . S
C1298 C1299 1.524 . S
C1298 H1317 0.913 . S
C1299 H1275 0.950 . S
C1299 C1298 1.524 . S
C1299 C1300 1.415 . S
C1300 H1276 0.950 . S
C1300 C1295 1.363 . S
C1300 C1299 1.415 . S
C1301 H1277 0.951 . S
C1301 C1302 1.366 . S
C1301 C1303 1.388 . S
C1302 C1301 1.366 . S
C1302 C1306 1.385 . S
C1303 H1278 0.951 . S
C1303 C1301 1.388 . S
C1303 C1304 1.366 . S
C1304 C1303 1.366 . S
C1304 C1305 1.414 . S
C1304 C1307 1.499 . S
C1305 H1279 0.950 . S
C1305 C1304 1.414 . S
C1305 C1306 1.374 . S
C1306 H1280 0.950 . S
C1306 C1302 1.385 . S
C1306 C1305 1.374 . S
C1307 C1304 1.499 . S
C1307 C1308 1.373 . S
C1307 C1309 1.389 . S
C1308 H1281 0.950 . S
C1308 C1294 1.377 . S
C1308 C1307 1.373 . S
C1309 C1293 1.377 . S
C1309 C1307 1.389 . S
C1309 C1310 1.524 . S
C1310 C1309 1.524 . S
C1310 C1311 1.397 . S
C1310 C1315 1.363 . S
C1311 H1282 0.950 . S
C1311 C1310 1.397 . S
C1311 C1312 1.334 . S
C1312 H1283 0.950 . S
C1312 C1311 1.334 . S
C1312 C1313 1.287 . S
C1313 C1312 1.287 . S
C1313 C1314 1.524 . S
C1313 H1316 0.999 . S
C1314 H1284 0.950 . S
C1314 C1313 1.524 . S
C1314 C1315 1.415 . S
C1315 H1285 0.950 . S
C1315 C1310 1.363 . S
C1315 C1314 1.415 . S
H1316 C1313 0.999 . S
H1317 C1298 0.913 . S
H1318 C1336 0.951 . S
H1319 C1338 0.951 . S
H1320 C1340 0.950 . S
H1321 C1341 0.950 . S
H1322 C1343 0.950 . S
H1323 C1346 0.950 . S
H1324 C1347 0.950 . S
H1325 C1349 0.950 . S
H1326 C1350 0.950 . S
H1327 C1351 0.951 . S
H1328 C1353 0.951 . S
H1329 C1355 0.950 . S
H1330 C1356 0.950 . S
H1331 C1358 0.950 . S
H1332 C1361 0.950 . S
H1333 C1362 0.950 . S
H1334 C1364 0.950 . S
H1335 C1365 0.950 . S
C1336 H1318 0.951 . S
C1336 C1337 1.366 . S
C1336 C1338 1.388 . S
C1337 C1336 1.366 . S
C1337 C1341 1.385 . S
C1338 H1319 0.951 . S
C1338 C1336 1.388 . S
C1338 C1339 1.366 . S
C1339 C1338 1.366 . S
C1339 C1340 1.414 . S
C1339 C1342 1.499 . S
C1340 H1320 0.950 . S
C1340 C1339 1.414 . S
C1340 C1341 1.374 . S
C1341 H1321 0.950 . S
C1341 C1337 1.385 . S
C1341 C1340 1.374 . S
C1342 C1339 1.499 . S
C1342 C1343 1.373 . S
C1342 C1344 1.389 . S
C1343 H1322 0.950 . S
C1343 C1342 1.373 . S
C1343 C1359 1.377 . S
C1344 C1342 1.389 . S
C1344 C1345 1.524 . S
C1344 C1358 1.377 . S
C1345 C1344 1.524 . S
C1345 C1346 1.397 . S
C1345 C1350 1.363 . S
C1346 H1323 0.950 . S
C1346 C1345 1.397 . S
C1346 C1347 1.334 . S
C1347 H1324 0.950 . S
C1347 C1346 1.334 . S
C1347 C1348 1.287 . S
C1348 C1347 1.287 . S
C1348 C1349 1.524 . S
C1348 H1367 0.913 . S
C1349 H1325 0.950 . S
C1349 C1348 1.524 . S
C1349 C1350 1.415 . S
C1350 H1326 0.950 . S
C1350 C1345 1.363 . S
C1350 C1349 1.415 . S
C1351 H1327 0.951 . S
C1351 C1352 1.366 . S
C1351 C1353 1.388 . S
C1352 C1351 1.366 . S
C1352 C1356 1.385 . S
C1353 H1328 0.951 . S
C1353 C1351 1.388 . S
C1353 C1354 1.366 . S
C1354 C1353 1.366 . S
C1354 C1355 1.414 . S
C1354 C1357 1.499 . S
C1355 H1329 0.950 . S
C1355 C1354 1.414 . S
C1355 C1356 1.374 . S
C1356 H1330 0.950 . S
C1356 C1352 1.385 . S
C1356 C1355 1.374 . S
C1357 C1354 1.499 . S
C1357 C1358 1.373 . S
C1357 C1359 1.389 . S
C1358 H1331 0.950 . S
C1358 C1344 1.377 . S
C1358 C1357 1.373 . S
C1359 C1343 1.377 . S
C1359 C1357 1.389 . S
C1359 C1360 1.524 . S
C1360 C1359 1.524 . S
C1360 C1361 1.397 . S
C1360 C1365 1.363 . S
C1361 H1332 0.950 . S
C1361 C1360 1.397 . S
C1361 C1362 1.334 . S
C1362 H1333 0.950 . S
C1362 C1361 1.334 . S
C1362 C1363 1.287 . S
C1363 C1362 1.287 . S
C1363 C1364 1.524 . S
C1363 H1366 0.999 . S
C1364 H1334 0.950 . S
C1364 C1363 1.524 . S
C1364 C1365 1.415 . S
C1365 H1335 0.950 . S
C1365 C1360 1.363 . S
C1365 C1364 1.415 . S
H1366 C1363 0.999 . S
H1367 C1348 0.913 . S
C187 C134 1.554 1_554 S
C202 C8 1.553 . S
C237 C22 1.553 . S
C252 C148 1.553 . S
C287 C162 1.554 . S
C302 C36 1.554 . S
C337 C92 1.553 . S
C352 C50 1.553 . S
C387 C106 1.553 . S
C402 C64 1.554 1_556 S
C437 C120 1.554 . S
C452 C78 1.553 . S
C487 C91 1.477 . S
C502 C7 1.477 . S
C537 C21 1.477 . S
C552 C105 1.478 . S
C587 C119 1.478 . S
C602 C35 1.477 . S
C637 C49 1.477 . S
C652 C133 1.478 . S
C687 C147 1.477 . S
C702 C63 1.478 . S
C737 C77 1.478 . S
C752 C161 1.477 . S
C787 C139 0.586 . S
C802 C13 0.584 . S
C837 C153 0.584 . S
C852 C27 0.588 . S
C887 C167 0.588 . S
C902 C41 0.585 . S
C937 C55 0.584 . S
C952 C97 0.586 . S
C987 C111 0.584 . S
C1002 C69 0.586 . S
C1037 C83 0.586 . S
C1052 C125 0.584 . S
C1087 C11 1.302 . S
C1102 C123 1.303 . S
C1137 C137 1.303 . S
C1152 C25 1.303 . S
C1187 C151 1.302 . S
C1202 C39 1.301 . S
C1237 C165 1.303 . S
C1252 C53 1.302 . S
C1287 C95 1.302 . S
C1302 C67 1.302 . S
C1337 C109 1.301 . S
C1352 C81 1.302 . S
