# Generated by pormake.
# Topology wft, (7)-cn, num edge types: 1
# Building blocks:
#     Node 0, Type 0, BuildingBlock: NUHQUE_clean_sbu_2, # of connection points: 7
#     Node 1, Type 0, BuildingBlock: NUHQUE_clean_sbu_2, # of connection points: 7
#     Node 2, Type 0, BuildingBlock: NUHQUE_clean_sbu_2, # of connection points: 7
#     Node 3, Type 0, BuildingBlock: NUHQUE_clean_sbu_2, # of connection points: 7
#     Node 4, Type 0, BuildingBlock: NUHQUE_clean_sbu_2, # of connection points: 7
#     Node 5, Type 0, BuildingBlock: NUHQUE_clean_sbu_2, # of connection points: 7
#     Node 6, Type 0, BuildingBlock: NUHQUE_clean_sbu_2, # of connection points: 7
#     Node 7, Type 0, BuildingBlock: NUHQUE_clean_sbu_2, # of connection points: 7
#     Edge 8, Type (0, 0), BuildingBlock: XIVTED_clean_linker_0, # of connection points: 2
#     Edge 9, Type (0, 0), BuildingBlock: XIVTED_clean_linker_0, # of connection points: 2
#     Edge 10, Type (0, 0), BuildingBlock: XIVTED_clean_linker_0, # of connection points: 2
#     Edge 11, Type (0, 0), BuildingBlock: XIVTED_clean_linker_0, # of connection points: 2
#     Edge 12, Type (0, 0), BuildingBlock: XIVTED_clean_linker_0, # of connection points: 2
#     Edge 13, Type (0, 0), BuildingBlock: XIVTED_clean_linker_0, # of connection points: 2
#     Edge 14, Type (0, 0), BuildingBlock: XIVTED_clean_linker_0, # of connection points: 2
#     Edge 15, Type (0, 0), BuildingBlock: XIVTED_clean_linker_0, # of connection points: 2
#     Edge 16, Type (0, 0), BuildingBlock: XIVTED_clean_linker_0, # of connection points: 2
#     Edge 17, Type (0, 0), BuildingBlock: XIVTED_clean_linker_0, # of connection points: 2
#     Edge 18, Type (0, 0), BuildingBlock: XIVTED_clean_linker_0, # of connection points: 2
#     Edge 19, Type (0, 0), BuildingBlock: XIVTED_clean_linker_0, # of connection points: 2
#     Edge 20, Type (0, 0), BuildingBlock: XIVTED_clean_linker_0, # of connection points: 2
#     Edge 21, Type (0, 0), BuildingBlock: XIVTED_clean_linker_0, # of connection points: 2
#     Edge 22, Type (0, 0), BuildingBlock: XIVTED_clean_linker_0, # of connection points: 2
#     Edge 23, Type (0, 0), BuildingBlock: XIVTED_clean_linker_0, # of connection points: 2
#     Edge 24, Type (0, 0), BuildingBlock: XIVTED_clean_linker_0, # of connection points: 2
#     Edge 25, Type (0, 0), BuildingBlock: XIVTED_clean_linker_0, # of connection points: 2
#     Edge 26, Type (0, 0), BuildingBlock: XIVTED_clean_linker_0, # of connection points: 2
#     Edge 27, Type (0, 0), BuildingBlock: XIVTED_clean_linker_0, # of connection points: 2
#     Edge 28, Type (0, 0), BuildingBlock: XIVTED_clean_linker_0, # of connection points: 2
#     Edge 29, Type (0, 0), BuildingBlock: XIVTED_clean_linker_0, # of connection points: 2
#     Edge 30, Type (0, 0), BuildingBlock: XIVTED_clean_linker_0, # of connection points: 2
#     Edge 31, Type (0, 0), BuildingBlock: XIVTED_clean_linker_0, # of connection points: 2
#     Edge 32, Type (0, 0), BuildingBlock: XIVTED_clean_linker_0, # of connection points: 2
#     Edge 33, Type (0, 0), BuildingBlock: XIVTED_clean_linker_0, # of connection points: 2
#     Edge 34, Type (0, 0), BuildingBlock: XIVTED_clean_linker_0, # of connection points: 2
#     Edge 35, Type (0, 0), BuildingBlock: XIVTED_clean_linker_0, # of connection points: 2
# Relax obj value: 0.100
# Max RMSD: 0.180
# Mean RMSD: 0.180
data_MOF--net-wft--node1-NUHQUE_clean_sbu_2--edge1-XIVTED_clean_linker_0
_symmetry_space_group_name_H-M    P1
_symmetry_Int_Tables_number       1
_symmetry_cell_setting            triclinic
loop_
_symmetry_equiv_pos_as_xyz
'x, y, z'
_cell_length_a     33.425701
_cell_length_b     33.416335
_cell_length_c     35.246359
_cell_angle_alpha  90.046274
_cell_angle_beta   89.987661
_cell_angle_gamma 90.218626
loop_
_atom_site_label
_atom_site_type_symbol
_atom_site_fract_x
_atom_site_fract_y
_atom_site_fract_z
_atom_type_partial_charge
O0 O 0.31318 0.32019 0.43377 0.0
Tb1 Tb 0.33926 0.26106 0.42742 0.0
Eu2 Eu 0.33029 0.16466 0.38241 0.0
C3 C 0.27793 0.32558 0.44959 0.0
O4 O 0.25554 0.29434 0.45761 0.0
C5 C 0.30094 0.18921 0.46283 0.0
O6 O 0.36468 0.10745 0.37491 0.0
C7 C 0.26269 0.16672 0.34614 0.0
C8 C 0.40285 0.10786 0.38403 0.0
O9 O 0.4186 0.14107 0.39742 0.0
C10 C 0.38567 0.24026 0.35279 0.0
C11 C 0.23921 0.17333 0.31119 0.0
C12 C 0.19813 0.18129 0.3154 0.0
C13 C 0.17378 0.18701 0.28357 0.0
C14 C 0.19057 0.1843 0.24736 0.0
C15 C 0.23113 0.17465 0.24216 0.0
C16 C 0.25577 0.16992 0.27442 0.0
O17 O 0.29128 0.22085 0.44292 0.0
O18 O 0.322 0.16148 0.44588 0.0
O19 O 0.37235 0.28384 0.47616 0.0
O20 O 0.39095 0.22922 0.45094 0.0
C21 C 0.39802 0.25486 0.47799 0.0
O22 O 0.3802 0.20134 0.35648 0.0
O23 O 0.36335 0.26703 0.37034 0.0
O24 O 0.28498 0.13443 0.34844 0.0
O25 O 0.27787 0.19808 0.36373 0.0
H26 H 0.18505 0.18306 0.34352 0.0
H27 H 0.17143 0.18888 0.2229 0.0
H28 H 0.28711 0.16255 0.27102 0.0
O29 O 0.32295 0.65583 0.64712 0.0
Tb30 Tb 0.26254 0.63223 0.65243 0.0
Eu31 Eu 0.16657 0.64339 0.69665 0.0
C32 C 0.32993 0.69177 0.63332 0.0
O33 O 0.29979 0.71598 0.62716 0.0
C34 C 0.19332 0.67469 0.61735 0.0
O35 O 0.10906 0.60916 0.70373 0.0
C36 C 0.17072 0.70979 0.73478 0.0
C37 C 0.10016 0.58367 0.67657 0.0
O38 O 0.12438 0.58085 0.64734 0.0
C39 C 0.23891 0.58434 0.72524 0.0
C40 C 0.17403 0.73329 0.77019 0.0
C41 C 0.17912 0.775 0.76682 0.0
C42 C 0.1785 0.79967 0.79901 0.0
C43 C 0.17389 0.78212 0.83478 0.0
C44 C 0.16885 0.74056 0.83909 0.0
C45 C 0.16918 0.71599 0.80645 0.0
O46 O 0.22519 0.6824 0.63772 0.0
O47 O 0.1646 0.65418 0.63349 0.0
O48 O 0.28377 0.6 0.60263 0.0
O49 O 0.22922 0.5815 0.62821 0.0
C50 C 0.25428 0.57471 0.60066 0.0
O51 O 0.20023 0.59057 0.72066 0.0
O52 O 0.26654 0.60708 0.70924 0.0
O53 O 0.13691 0.69075 0.72803 0.0
O54 O 0.20263 0.69164 0.72125 0.0
H55 H 0.18217 0.78843 0.73895 0.0
H56 H 0.17471 0.80122 0.85966 0.0
H57 H 0.16465 0.68399 0.80911 0.0
O58 O 0.66131 0.64918 0.43307 0.0
Tb59 Tb 0.63501 0.70826 0.42722 0.0
Eu60 Eu 0.64434 0.80462 0.38258 0.0
C61 C 0.69659 0.64392 0.44886 0.0
O62 O 0.71885 0.67525 0.45689 0.0
C63 C 0.6736 0.77984 0.46287 0.0
O64 O 0.60962 0.86129 0.3732 0.0
C65 C 0.71189 0.80154 0.34623 0.0
C66 C 0.57188 0.86136 0.38382 0.0
O67 O 0.55682 0.82889 0.39934 0.0
C68 C 0.58789 0.72977 0.35313 0.0
C69 C 0.73502 0.79834 0.3106 0.0
C70 C 0.77671 0.79319 0.31361 0.0
C71 C 0.80108 0.79422 0.28125 0.0
C72 C 0.7833 0.79929 0.24566 0.0
C73 C 0.74177 0.80434 0.24169 0.0
C74 C 0.71747 0.80358 0.27448 0.0
O75 O 0.68317 0.7482 0.4429 0.0
O76 O 0.65241 0.80748 0.44604 0.0
O77 O 0.60246 0.68502 0.47607 0.0
O78 O 0.58357 0.73986 0.45158 0.0
C79 C 0.57681 0.71398 0.47846 0.0
O80 O 0.59371 0.76864 0.35696 0.0
O81 O 0.61023 0.70277 0.37031 0.0
O82 O 0.69242 0.83503 0.35262 0.0
O83 O 0.69388 0.76942 0.35972 0.0
H84 H 0.79037 0.78989 0.34134 0.0
H85 H 0.80221 0.799 0.22065 0.0
H86 H 0.6855 0.80819 0.27208 0.0
O87 O 0.65018 0.31614 0.64917 0.0
Tb88 Tb 0.71049 0.33991 0.65466 0.0
Eu89 Eu 0.80644 0.32962 0.69927 0.0
C90 C 0.6433 0.2804 0.63483 0.0
O91 O 0.67352 0.25641 0.62821 0.0
C92 C 0.78016 0.29783 0.61995 0.0
O93 O 0.86296 0.36582 0.70423 0.0
C94 C 0.80531 0.26328 0.73752 0.0
C95 C 0.8678 0.39377 0.67841 0.0
O96 O 0.84042 0.39755 0.65192 0.0
C97 C 0.73311 0.38779 0.72801 0.0
C98 C 0.80223 0.23952 0.77276 0.0
C99 C 0.79744 0.19778 0.76913 0.0
C100 C 0.79845 0.17295 0.80116 0.0
C101 C 0.80312 0.1903 0.83701 0.0
C102 C 0.80777 0.23185 0.84158 0.0
C103 C 0.80707 0.25662 0.80914 0.0
O104 O 0.74829 0.28994 0.64028 0.0
O105 O 0.80868 0.31859 0.63615 0.0
O106 O 0.68964 0.3716 0.60448 0.0
O107 O 0.74371 0.39073 0.63058 0.0
C108 C 0.71898 0.39708 0.60269 0.0
O109 O 0.77186 0.38152 0.72401 0.0
O110 O 0.70568 0.36531 0.71135 0.0
O111 O 0.83804 0.28448 0.7318 0.0
O112 O 0.77275 0.27923 0.72292 0.0
H113 H 0.79438 0.18446 0.7412 0.0
H114 H 0.80268 0.17104 0.86177 0.0
H115 H 0.81132 0.28865 0.81203 0.0
O116 O 0.81694 0.15089 0.15071 0.0
Tb117 Tb 0.84189 0.21083 0.15576 0.0
Eu118 Eu 0.82759 0.30784 0.20069 0.0
C119 C 0.78125 0.14457 0.13604 0.0
O120 O 0.75791 0.17521 0.1291 0.0
C121 C 0.80058 0.28088 0.12061 0.0
O122 O 0.86128 0.3651 0.21141 0.0
C123 C 0.76002 0.30229 0.23668 0.0
C124 C 0.8989 0.36627 0.20046 0.0
O125 O 0.9141 0.33472 0.18356 0.0
C126 C 0.88819 0.23581 0.22968 0.0
C127 C 0.73672 0.29964 0.27222 0.0
C128 C 0.69491 0.29556 0.26905 0.0
C129 C 0.6705 0.29671 0.30137 0.0
C130 C 0.68834 0.30093 0.33705 0.0
C131 C 0.73001 0.30492 0.34116 0.0
C132 C 0.75436 0.30401 0.30841 0.0
O133 O 0.79241 0.24911 0.141 0.0
O134 O 0.81993 0.31005 0.13729 0.0
O135 O 0.87361 0.18816 0.10625 0.0
O136 O 0.89222 0.24355 0.13015 0.0
C137 C 0.89873 0.2177 0.10319 0.0
O138 O 0.87947 0.27413 0.22622 0.0
O139 O 0.86807 0.20706 0.21226 0.0
O140 O 0.77753 0.33662 0.22878 0.0
O141 O 0.78008 0.27071 0.225 0.0
H142 H 0.68124 0.29282 0.24126 0.0
H143 H 0.6694 0.30059 0.36204 0.0
H144 H 0.78647 0.30772 0.31092 0.0
O145 O 0.14855 0.1583 0.93098 0.0
Tb146 Tb 0.20808 0.13313 0.92499 0.0
Eu147 Eu 0.30478 0.14251 0.8823 0.0
C148 C 0.14273 0.19436 0.94495 0.0
O149 O 0.17359 0.21798 0.9508 0.0
C150 C 0.27828 0.17248 0.96174 0.0
O151 O 0.36189 0.10854 0.8724 0.0
C152 C 0.30023 0.21008 0.84609 0.0
C153 C 0.36244 0.07063 0.88248 0.0
O154 O 0.33025 0.05501 0.89803 0.0
C155 C 0.23083 0.08564 0.85175 0.0
C156 C 0.29725 0.23311 0.81041 0.0
C157 C 0.29154 0.27476 0.81325 0.0
C158 C 0.29236 0.299 0.78078 0.0
C159 C 0.29786 0.28107 0.74529 0.0
C160 C 0.30346 0.23957 0.74153 0.0
C161 C 0.30286 0.21543 0.7744 0.0
O162 O 0.2473 0.18179 0.9408 0.0
O163 O 0.30626 0.1509 0.94583 0.0
O164 O 0.18564 0.09994 0.9738 0.0
O165 O 0.24072 0.0822 0.94899 0.0
C166 C 0.21509 0.07483 0.97594 0.0
O167 O 0.26959 0.09129 0.85658 0.0
O168 O 0.20355 0.10841 0.86802 0.0
O169 O 0.33423 0.19193 0.8534 0.0
O170 O 0.26845 0.19067 0.85851 0.0
H171 H 0.28784 0.28851 0.84091 0.0
H172 H 0.29737 0.29978 0.72017 0.0
H173 H 0.30781 0.18349 0.77212 0.0
O174 O 0.15727 0.82408 0.14958 0.0
Tb175 Tb 0.13269 0.76408 0.15491 0.0
Eu176 Eu 0.14457 0.66764 0.19883 0.0
C177 C 0.19266 0.83063 0.13441 0.0
O178 O 0.21607 0.80016 0.12697 0.0
C179 C 0.17255 0.69404 0.11876 0.0
O180 O 0.11073 0.61051 0.20973 0.0
C181 C 0.21264 0.67264 0.23414 0.0
C182 C 0.07285 0.60956 0.19963 0.0
O183 O 0.05733 0.64131 0.18343 0.0
C184 C 0.08662 0.74075 0.22906 0.0
C185 C 0.23621 0.67515 0.26953 0.0
C186 C 0.278 0.67942 0.26618 0.0
C187 C 0.30261 0.67823 0.29838 0.0
C188 C 0.28494 0.67377 0.33412 0.0
C189 C 0.24332 0.66954 0.3384 0.0
C190 C 0.21879 0.67052 0.30579 0.0
O191 O 0.18161 0.72548 0.1393 0.0
O192 O 0.15186 0.66564 0.13524 0.0
O193 O 0.10027 0.78617 0.10562 0.0
O194 O 0.08114 0.73177 0.13106 0.0
C195 C 0.07451 0.75709 0.10372 0.0
O196 O 0.09337 0.70209 0.22504 0.0
O197 O 0.10828 0.76851 0.21197 0.0
O198 O 0.19472 0.63847 0.22639 0.0
O199 O 0.19269 0.70436 0.22268 0.0
H200 H 0.29151 0.68238 0.23833 0.0
H201 H 0.30399 0.67411 0.35903 0.0
H202 H 0.18671 0.66665 0.30844 0.0
O203 O 0.82254 0.81502 0.93338 0.0
Tb204 Tb 0.76338 0.84109 0.92767 0.0
Eu205 Eu 0.66695 0.83081 0.88241 0.0
C206 C 0.82795 0.77962 0.94887 0.0
O207 O 0.79675 0.75705 0.95651 0.0
C208 C 0.69185 0.80206 0.96276 0.0
O209 O 0.6101 0.86506 0.87209 0.0
C210 C 0.67119 0.763 0.84646 0.0
C211 C 0.6097 0.90308 0.88191 0.0
O212 O 0.64194 0.91872 0.89734 0.0
C213 C 0.74162 0.88804 0.85346 0.0
C214 C 0.67478 0.73954 0.81103 0.0
C215 C 0.68039 0.69792 0.81435 0.0
C216 C 0.67994 0.67326 0.78213 0.0
C217 C 0.67497 0.69073 0.7464 0.0
C218 C 0.66946 0.73217 0.74212 0.0
C219 C 0.66965 0.75675 0.77475 0.0
O220 O 0.72347 0.79271 0.94269 0.0
O221 O 0.66399 0.82295 0.94592 0.0
O222 O 0.78648 0.87313 0.97692 0.0
O223 O 0.73187 0.89248 0.95232 0.0
C224 C 0.75764 0.89889 0.97939 0.0
O225 O 0.7028 0.88165 0.85692 0.0
O226 O 0.76882 0.86616 0.8709 0.0
O227 O 0.63738 0.78195 0.85272 0.0
O228 O 0.70298 0.78173 0.85979 0.0
H229 H 0.68366 0.68451 0.84219 0.0
H230 H 0.67576 0.67166 0.72149 0.0
H231 H 0.66474 0.78866 0.77209 0.0
H232 H 0.30064 0.20274 0.20799 0.0
H233 H 0.20985 0.17436 1.00371 0.0
H234 H 0.19468 0.13239 0.18587 0.0
H235 H 0.33826 0.17163 1.01549 0.0
H236 H 0.20328 0.17136 0.07238 0.0
H237 H 0.31625 0.20095 0.13942 0.0
C238 C 0.28108 0.18642 0.18894 0.0
C239 C 0.24581 0.16846 0.2026 0.0
C240 C 0.23295 0.17156 0.06 0.0
C241 C 0.26291 0.16716 0.12469 0.0
C242 C 0.23676 0.17367 1.02072 0.0
C243 C 0.27468 0.17339 1.00371 0.0
C244 C 0.26727 0.17001 0.08285 0.0
C245 C 0.30845 0.17186 1.02751 0.0
C246 C 0.28989 0.18559 0.14991 0.0
C247 C 0.22156 0.14768 0.17657 0.0
N248 N 0.30402 0.17055 0.06602 0.0
N249 N 0.23015 0.14823 0.13898 0.0
H250 H 0.17175 0.76198 0.07604 0.0
H251 H 0.20382 0.67448 0.87286 0.0
H252 H 0.17257 0.63335 0.06574 0.0
H253 H 0.121 0.77048 0.89485 0.0
H254 H 0.20333 0.65837 0.94128 0.0
H255 H 0.16677 0.76743 1.00732 0.0
C256 C 0.17139 0.73482 0.05935 0.0
C257 C 0.17258 0.69714 0.07676 0.0
C258 C 0.18491 0.68254 0.93077 0.0
C259 C 0.16724 0.70329 0.99769 0.0
C260 C 0.18498 0.6916 0.89182 0.0
C261 C 0.16311 0.72446 0.8782 0.0
C262 C 0.16336 0.70695 0.95596 0.0
C263 C 0.13925 0.74565 0.90415 0.0
C264 C 0.1682 0.73799 1.02008 0.0
C265 C 0.17161 0.66298 0.05339 0.0
N266 N 0.14068 0.7371 0.94172 0.0
N267 N 0.16936 0.66681 1.01487 0.0
H268 H 0.63014 0.80168 1.01461 0.0
H269 H 0.77105 0.85442 0.18739 0.0
H270 H 0.7589 0.80279 1.00679 0.0
H271 H 0.67604 0.76913 0.20692 0.0
H272 H 0.75479 0.85442 0.11992 0.0
H273 H 0.63596 0.8052 0.08449 0.0
C274 C 0.65954 0.80251 1.02753 0.0
C275 C 0.69412 0.80173 1.00481 0.0
C276 C 0.73719 0.83608 0.13907 0.0
C277 C 0.70077 0.80706 0.08395 0.0
C278 C 0.74636 0.83605 0.17757 0.0
C279 C 0.72553 0.81093 0.20277 0.0
C280 C 0.70641 0.81145 0.12543 0.0
C281 C 0.69304 0.7887 0.18845 0.0
C282 C 0.66275 0.80448 0.06722 0.0
C283 C 0.73145 0.80296 1.02298 0.0
N284 N 0.68463 0.78914 0.1505 0.0
N285 N 0.73375 0.80611 0.06132 0.0
H286 H 0.85679 0.20244 0.89656 0.0
H287 H 0.79986 0.34225 0.06869 0.0
H288 H 0.77175 0.29686 0.87626 0.0
H289 H 0.8024 0.2135 0.07681 0.0
H290 H 0.80453 0.33634 0.99896 0.0
H291 H 0.8553 0.21805 0.96418 0.0
C292 C 0.83814 0.22685 0.90626 0.0
C293 C 0.81353 0.24771 0.88077 0.0
C294 C 0.80389 0.30956 1.01624 0.0
C295 C 0.81236 0.26607 0.95824 0.0
C296 C 0.80125 0.31282 0.05586 0.0
C297 C 0.80063 0.27828 0.07861 0.0
C298 C 0.80726 0.27157 0.99963 0.0
C299 C 0.80255 0.24091 0.06055 0.0
C300 C 0.83732 0.23563 0.94484 0.0
C301 C 0.79094 0.27985 0.89494 0.0
N302 N 0.80634 0.23858 1.02227 0.0
N303 N 0.79058 0.28791 0.93295 0.0
H304 H 0.70216 0.35443 0.39652 0.0
H305 H 0.84161 0.29641 0.56796 0.0
H306 H 0.7946 0.26749 0.37517 0.0
H307 H 0.71288 0.29868 0.57612 0.0
H308 H 0.83568 0.30064 0.49817 0.0
H309 H 0.71829 0.35246 0.46399 0.0
C310 C 0.72627 0.33527 0.40595 0.0
C311 C 0.74638 0.31029 0.38021 0.0
C312 C 0.80892 0.29994 0.51548 0.0
C313 C 0.76535 0.30854 0.45754 0.0
C314 C 0.81219 0.29753 0.55513 0.0
C315 C 0.77765 0.29698 0.57792 0.0
C316 C 0.77092 0.30319 0.4989 0.0
C317 C 0.74029 0.29866 0.55986 0.0
C318 C 0.73535 0.33417 0.44445 0.0
C319 C 0.77816 0.287 0.39405 0.0
N320 N 0.73797 0.30228 0.52157 0.0
N321 N 0.78652 0.28636 0.432 0.0
H322 H 0.35355 0.26882 0.68725 0.0
H323 H 0.30046 0.12746 0.51462 0.0
H324 H 0.26862 0.17353 0.70698 0.0
H325 H 0.30218 0.25625 0.50687 0.0
H326 H 0.30425 0.1333 0.58449 0.0
H327 H 0.35369 0.25231 0.61982 0.0
C328 C 0.33532 0.24399 0.67748 0.0
C329 C 0.31025 0.22316 0.70271 0.0
C330 C 0.30359 0.16009 0.56724 0.0
C331 C 0.31087 0.2038 0.62543 0.0
C332 C 0.30146 0.15686 0.52755 0.0
C333 C 0.30073 0.19145 0.50487 0.0
C334 C 0.30641 0.19812 0.58397 0.0
C335 C 0.30224 0.2288 0.52304 0.0
C336 C 0.33542 0.23469 0.639 0.0
C337 C 0.28815 0.19053 0.68847 0.0
N338 N 0.30553 0.2311 0.56136 0.0
N339 N 0.28863 0.18201 0.65054 0.0
H340 H 0.27173 0.61998 0.39337 0.0
H341 H 0.13196 0.67679 0.56531 0.0
H342 H 0.17859 0.70635 0.37286 0.0
H343 H 0.26066 0.67351 0.57363 0.0
H344 H 0.13799 0.67299 0.4955 0.0
H345 H 0.25574 0.6214 0.46089 0.0
C346 C 0.24752 0.63891 0.403 0.0
C347 C 0.22714 0.66389 0.37748 0.0
C348 C 0.16472 0.67337 0.51285 0.0
C349 C 0.20833 0.66501 0.45487 0.0
C350 C 0.16139 0.67552 0.5525 0.0
C351 C 0.19589 0.67568 0.57534 0.0
C352 C 0.20273 0.66998 0.49628 0.0
C353 C 0.23327 0.67383 0.55732 0.0
C354 C 0.23851 0.6397 0.44153 0.0
C355 C 0.19522 0.68685 0.39157 0.0
N356 N 0.23565 0.67049 0.519 0.0
N357 N 0.18694 0.68718 0.42954 0.0
H358 H 0.62009 0.70206 0.68763 0.0
H359 H 0.67416 0.84183 0.5144 0.0
H360 H 0.70458 0.7978 0.70718 0.0
H361 H 0.67259 0.71299 0.50719 0.0
H362 H 0.6702 0.83646 0.58427 0.0
H363 H 0.62071 0.71763 0.62002 0.0
C364 C 0.6384 0.72678 0.67777 0.0
C365 C 0.66312 0.74802 0.70304 0.0
C366 C 0.67094 0.80955 0.56715 0.0
C367 C 0.66335 0.76632 0.62554 0.0
C368 C 0.67318 0.81251 0.52746 0.0
C369 C 0.67396 0.77777 0.50493 0.0
C370 C 0.66808 0.77164 0.58405 0.0
C371 C 0.67247 0.74054 0.52326 0.0
C372 C 0.63874 0.73553 0.63919 0.0
C373 C 0.68531 0.7805 0.68867 0.0
N374 N 0.66906 0.7385 0.56159 0.0
N375 N 0.68523 0.78851 0.65064 0.0
H376 H 0.48425 0.1035 0.38682 0.0
H377 H 0.49065 0.86578 0.38917 0.0
H378 H 0.37874 0.03024 0.37218 0.0
H379 H 0.59545 0.93855 0.36895 0.0
H380 H 0.4492 0.92563 0.38556 0.0
H381 H 0.52556 0.04354 0.38296 0.0
C382 C 0.46975 0.07478 0.3827 0.0
C383 C 0.42794 0.07181 0.38002 0.0
C384 C 0.48122 0.9285 0.38165 0.0
C385 C 0.47513 0.00304 0.37576 0.0
C386 C 0.50495 0.89437 0.38384 0.0
C387 C 0.54662 0.89725 0.37955 0.0
C388 C 0.49928 0.96592 0.37564 0.0
C389 C 0.56346 0.93501 0.37245 0.0
C390 C 0.4934 0.04059 0.38034 0.0
C391 C 0.41085 0.03387 0.37442 0.0
N392 N 0.53975 0.96798 0.37106 0.0
N393 N 0.4345 0.00088 0.37282 0.0
H394 H 0.89529 0.43924 0.62016 0.0
H395 H 0.05671 0.56165 0.73955 0.0
H396 H 0.91857 0.41145 0.73765 0.0
H397 H 0.06316 0.54568 0.61819 0.0
H398 H -0.0002 0.51466 0.74138 0.0
H399 H 0.95088 0.48657 0.62089 0.0
C400 C 0.91217 0.44307 0.64616 0.0
C401 C 0.90244 0.42127 0.67887 0.0
C402 C 0.0138 0.52159 0.71445 0.0
C403 C 0.96591 0.47585 0.67998 0.0
C404 C 0.04596 0.54853 0.71334 0.0
C405 C 0.0646 0.55748 0.67867 0.0
C406 C -7e-05 0.50428 0.68056 0.0
C407 C 0.04978 0.53949 0.64555 0.0
C408 C 0.94395 0.47006 0.64651 0.0
C409 C 0.92536 0.42748 0.71175 0.0
N410 N 0.01823 0.51394 0.6473 0.0
N411 N 0.956 0.45448 0.71158 0.0
H412 H 0.87483 0.44272 0.21707 0.0
H413 H 0.09719 0.53302 0.21537 0.0
H414 H 0.98014 0.37151 0.19661 0.0
H415 H -0.00846 0.60433 0.19706 0.0
H416 H 0.05461 0.47333 0.22065 0.0
H417 H 0.9175 0.50241 0.22192 0.0
C418 C 0.9069 0.43961 0.21392 0.0
C419 C 0.92396 0.40225 0.20605 0.0
C420 C 0.04082 0.50213 0.21567 0.0
C421 C 0.97278 0.47006 0.2118 0.0
C422 C 0.06506 0.53615 0.21277 0.0
C423 C 0.04787 0.57355 0.2054 0.0
C424 C -0.00084 0.50573 0.21165 0.0
C425 C 0.00607 0.57597 0.20233 0.0
C426 C 0.93119 0.47363 0.21656 0.0
C427 C 0.9657 0.39985 0.20227 0.0
N428 N 0.98313 0.54252 0.20543 0.0
N429 N -0.01131 0.43329 0.20513 0.0
H430 H 0.36737 -0.01069 0.88583 0.0
H431 H 0.60489 0.98444 0.88489 0.0
H432 H 0.43947 0.09502 0.86785 0.0
H433 H 0.53257 0.87869 0.86776 0.0
H434 H 0.5448 0.02548 0.88058 0.0
H435 H 0.42744 0.94829 0.88118 0.0
C436 C 0.39586 0.00391 0.88077 0.0
C437 C 0.39848 0.0457 0.87746 0.0
C438 C 0.54208 -0.00666 0.87747 0.0
C439 C 0.46743 -0.00116 0.87234 0.0
C440 C 0.57635 0.96983 0.88008 0.0
C441 C 0.57367 0.92802 0.87693 0.0
C442 C 0.50471 0.97491 0.8722 0.0
C443 C 0.53597 0.9108 0.8704 0.0
C444 C 0.43012 0.98042 0.87796 0.0
C445 C 0.43613 0.06292 0.87062 0.0
N446 N 0.50286 0.9343 0.86865 0.0
N447 N 0.46923 0.03943 0.86867 0.0
H448 H 0.43421 0.19674 0.30555 0.0
H449 H 0.61596 0.34724 0.3328 0.0
H450 H 0.42194 0.31416 0.35527 0.0
H451 H 0.62437 0.24044 0.26467 0.0
H452 H 0.54347 0.33834 0.33611 0.0
H453 H 0.50152 0.21471 0.28451 0.0
C454 C 0.44529 0.22661 0.31142 0.0
C455 C 0.42235 0.25382 0.33263 0.0
C456 C 0.56096 0.31708 0.31997 0.0
C457 C 0.49996 0.27433 0.30907 0.0
C458 C 0.60237 0.32211 0.31816 0.0
C459 C 0.62618 0.29431 0.29874 0.0
C460 C 0.54308 0.2836 0.30269 0.0
C461 C 0.60705 0.26253 0.27995 0.0
C462 C 0.48387 0.23681 0.29942 0.0
C463 C 0.43842 0.29212 0.33914 0.0
N464 N 0.56666 0.25768 0.28288 0.0
N465 N 0.47641 0.30097 0.32798 0.0
H466 H 0.23362 0.34328 0.8156 0.0
H467 H 0.31336 0.54972 0.72674 0.0
H468 H 0.34205 0.35523 0.75031 0.0
H469 H 0.19261 0.53271 0.76735 0.0
H470 H 0.32979 0.48233 0.74842 0.0
H471 H 0.22366 0.41604 0.81072 0.0
C472 C 0.25566 0.36134 0.80086 0.0
C473 C 0.28848 0.34326 0.78302 0.0
C474 C 0.29983 0.49355 0.75304 0.0
C475 C 0.27739 0.4262 0.77729 0.0
C476 C 0.29047 0.53223 0.74089 0.0
C477 C 0.25137 0.54695 0.74479 0.0
C478 C 0.27001 0.46932 0.76939 0.0
C479 C 0.22305 0.52259 0.76334 0.0
C480 C 0.24988 0.40276 0.79789 0.0
C481 C 0.31608 0.36796 0.76408 0.0
N482 N 0.2328 0.48491 0.77461 0.0
N483 N 0.30982 0.40803 0.76155 0.0
H484 H 0.55244 0.65538 0.35362 0.0
H485 H 0.34825 0.73466 0.26139 0.0
H486 H 0.5382 0.77429 0.30785 0.0
H487 H 0.35769 0.62821 0.32975 0.0
H488 H 0.42125 0.74324 0.26548 0.0
H489 H 0.48505 0.63863 0.33171 0.0
C490 C 0.53559 0.67773 0.33823 0.0
C491 C 0.55103 0.71649 0.33302 0.0
C492 C 0.40736 0.71773 0.27915 0.0
C493 C 0.47343 0.69755 0.30821 0.0
C494 C 0.36579 0.71273 0.27664 0.0
C495 C 0.34694 0.68095 0.29561 0.0
C496 C 0.43018 0.6905 0.30048 0.0
C497 C 0.37102 0.65345 0.31514 0.0
C498 C 0.49692 0.66821 0.32597 0.0
C499 C 0.5275 0.74415 0.31292 0.0
N500 N 0.41126 0.65899 0.31728 0.0
N501 N 0.4898 0.73429 0.30163 0.0
H502 H 0.73814 0.62908 0.81779 0.0
H503 H 0.65865 0.42243 0.72895 0.0
H504 H 0.63017 0.61695 0.75189 0.0
H505 H 0.7789 0.43919 0.77094 0.0
H506 H 0.6421 0.48987 0.75049 0.0
H507 H 0.74783 0.55622 0.81351 0.0
C508 C 0.71614 0.61097 0.80305 0.0
C509 C 0.68354 0.62901 0.78485 0.0
C510 C 0.67196 0.47857 0.75546 0.0
C511 C 0.69432 0.54597 0.77978 0.0
C512 C 0.6814 0.43987 0.74339 0.0
C513 C 0.72041 0.42507 0.74769 0.0
C514 C 0.70165 0.50278 0.77212 0.0
C515 C 0.74854 0.44936 0.76662 0.0
C516 C 0.72175 0.56949 0.80042 0.0
C517 C 0.65597 0.60424 0.76593 0.0
N518 N 0.73873 0.48709 0.77776 0.0
N519 N 0.66209 0.56413 0.76371 0.0
H520 H 0.92072 0.16132 0.24373 0.0
H521 H 0.11643 0.13678 0.31213 0.0
H522 H 0.94297 0.28756 0.2604 0.0
H523 H 0.13257 0.25307 0.26164 0.0
H524 H 0.04342 0.14553 0.30818 0.0
H525 H -0.01121 0.14745 0.26568 0.0
C526 C 0.93944 0.18604 0.25284 0.0
C527 C 0.92591 0.2257 0.24991 0.0
C528 C 0.06294 0.16918 0.29815 0.0
C529 C 0.00402 0.21002 0.27492 0.0
C530 C 0.10447 0.16441 0.30086 0.0
C531 C 0.13027 0.1943 0.28716 0.0
C532 C 0.04737 0.20426 0.28192 0.0
C533 C 0.11354 0.22939 0.27246 0.0
C534 C 0.97834 0.17806 0.26553 0.0
C535 C 0.95184 0.25648 0.26194 0.0
N536 N 0.07316 0.23342 0.27026 0.0
N537 N -0.01025 0.24803 0.27314 0.0
H538 H 0.15628 0.05061 0.85111 0.0
H539 H 0.23568 0.84458 0.76223 0.0
H540 H 0.27624 0.03481 0.80834 0.0
H541 H 0.12893 0.85539 0.83002 0.0
H542 H 0.24482 0.91759 0.76592 0.0
H543 H 0.13967 0.98292 0.82986 0.0
C544 C 0.17891 0.03335 0.83651 0.0
C545 C 0.21789 0.04846 0.83194 0.0
C546 C 0.21913 0.90398 0.77957 0.0
C547 C 0.19909 0.97052 0.80787 0.0
C548 C 0.21382 0.86242 0.77728 0.0
C549 C 0.18176 0.84397 0.79618 0.0
C550 C 0.1919 0.9272 0.80055 0.0
C551 C 0.15435 0.86841 0.81546 0.0
C552 C 0.16947 -0.0055 0.82462 0.0
C553 C 0.24591 0.02439 0.81286 0.0
N554 N 0.16016 0.90864 0.81733 0.0
N555 N 0.2361 0.98654 0.8019 0.0
H556 H 0.85614 0.84576 0.2519 0.0
H557 H 0.03694 0.69423 0.27296 0.0
H558 H 0.84653 0.73602 0.31544 0.0
H559 H 0.05022 0.81437 0.22964 0.0
H560 H 0.96934 0.71072 0.29401 0.0
H561 H 0.92853 0.83679 0.24822 0.0
C562 C 0.86947 0.81995 0.26547 0.0
C563 C 0.84536 0.79141 0.28375 0.0
C564 C -0.01272 0.73369 0.2805 0.0
C565 C 0.92834 0.78058 0.27927 0.0
C566 C 0.02602 0.72434 0.2685 0.0
C567 C 0.04938 0.75283 0.24909 0.0
C568 C 0.97145 0.77167 0.27269 0.0
C569 C 0.03346 0.79134 0.24433 0.0
C570 C 0.91082 0.81486 0.26343 0.0
C571 C 0.86411 0.7587 0.30111 0.0
N572 N -0.00466 0.7994 0.25548 0.0
N573 N 0.90447 0.75383 0.29795 0.0
H574 H 0.84979 0.1179 0.83021 0.0
H575 H 0.69669 0.93729 0.80807 0.0
H576 H 0.74041 0.12745 0.76622 0.0
H577 H 0.81562 0.92426 0.8541 0.0
H578 H 0.71435 0.00457 0.78667 0.0
H579 H 0.84029 0.04548 0.83379 0.0
C580 C 0.82398 0.10455 0.81647 0.0
C581 C 0.79566 0.12866 0.79815 0.0
C582 C 0.73682 0.98676 0.80086 0.0
C583 C 0.7842 0.04565 0.80254 0.0
C584 C 0.7268 0.94819 0.81307 0.0
C585 C 0.75456 0.92501 0.83334 0.0
C586 C 0.77475 0.0026 0.80931 0.0
C587 C 0.79312 0.9409 0.83875 0.0
C588 C 0.81857 0.06318 0.81847 0.0
C589 C 0.76293 0.10988 0.78059 0.0
N590 N 0.80183 0.97886 0.82736 0.0
N591 N 0.75775 0.06952 0.78372 0.0
H592 H 0.21345 0.34593 0.49369 0.0
H593 H 0.30171 0.5633 0.53916 0.0
H594 H 0.31789 0.39646 0.43954 0.0
H595 H 0.20103 0.51206 0.59852 0.0
H596 H 0.3018 0.50603 0.49616 0.0
H597 H 0.2021 0.40989 0.52563 0.0
C598 C 0.23365 0.37062 0.48802 0.0
C599 C 0.26697 0.36563 0.46421 0.0
C600 C 0.27945 0.50732 0.51837 0.0
C601 C 0.25429 0.43883 0.50095 0.0
C602 C 0.27942 0.54002 0.54295 0.0
C603 C 0.25165 0.54203 0.57266 0.0
C604 C 0.25165 0.4762 0.52368 0.0
C605 C 0.22314 0.51138 0.57608 0.0
C606 C 0.22721 0.40711 0.50641 0.0
C607 C 0.29204 0.39875 0.45791 0.0
N608 N 0.22412 0.47943 0.55209 0.0
N609 N 0.28539 0.43376 0.47645 0.0
H610 H 0.56461 0.66389 0.53794 0.0
H611 H 0.35257 0.7578 0.5923 0.0
H612 H 0.51557 0.76812 0.48319 0.0
H613 H 0.39877 0.6481 0.63947 0.0
H614 H 0.4161 0.76805 0.55926 0.0
H615 H 0.50819 0.66351 0.58192 0.0
C616 C 0.54197 0.68685 0.53534 0.0
C617 C 0.54436 0.71579 0.50667 0.0
C618 C 0.41249 0.74199 0.5772 0.0
C619 C 0.4796 0.71552 0.55683 0.0
C620 C 0.37627 0.73617 0.59623 0.0
C621 C 0.37013 0.70176 0.61838 0.0
C622 C 0.44281 0.71321 0.58035 0.0
C623 C 0.40198 0.67486 0.62244 0.0
C624 C 0.50979 0.68666 0.56048 0.0
C625 C 0.51456 0.74512 0.50478 0.0
N626 N 0.43676 0.68097 0.60332 0.0
N627 N 0.48315 0.74404 0.52934 0.0
H628 H 0.67253 0.40728 0.54037 0.0
H629 H 0.76094 0.6241 0.49325 0.0
H630 H 0.772 0.45992 0.60052 0.0
H631 H 0.65683 0.57286 0.43909 0.0
H632 H 0.77212 0.56057 0.52587 0.0
H633 H 0.67296 0.46381 0.49659 0.0
C634 C 0.69465 0.43072 0.54418 0.0
C635 C 0.72191 0.42933 0.57434 0.0
C636 C 0.74712 0.56309 0.50649 0.0
C637 C 0.72251 0.49431 0.52445 0.0
C638 C 0.74078 0.59932 0.48771 0.0
C639 C 0.70758 0.60401 0.46371 0.0
C640 C 0.72008 0.5313 0.50124 0.0
C641 C 0.68258 0.5708 0.45759 0.0
C642 C 0.69492 0.46299 0.51916 0.0
C643 C 0.75026 0.46014 0.57775 0.0
N644 N 0.68912 0.53603 0.47652 0.0
N645 N 0.74957 0.49167 0.55331 0.0
H646 H 0.45833 0.19971 0.48238 0.0
H647 H 0.57398 0.32281 0.6434 0.0
H648 H 0.4119 0.30536 0.53692 0.0
H649 H 0.62118 0.21602 0.59123 0.0
H650 H 0.51097 0.31195 0.60999 0.0
H651 H 0.51507 0.20055 0.5266 0.0
C652 C 0.45999 0.22286 0.50386 0.0
C653 C 0.4308 0.25278 0.50583 0.0
C654 C 0.53493 0.2906 0.60613 0.0
C655 C 0.49527 0.25401 0.55633 0.0
C656 C 0.57093 0.29675 0.62532 0.0
C657 C 0.6031 0.27055 0.61981 0.0
C658 C 0.53109 0.25818 0.58096 0.0
C659 C 0.59728 0.23715 0.59618 0.0
C660 C 0.49229 0.22334 0.52909 0.0
C661 C 0.43407 0.28198 0.53423 0.0
N662 N 0.56215 0.23219 0.57725 0.0
N663 N 0.46587 0.28204 0.55818 0.0
H664 H 0.80731 0.91014 1.03939 0.0
H665 H 0.71544 0.12299 0.09419 0.0
H666 H 0.70405 0.96064 0.9842 0.0
H667 H 0.82379 0.075 0.1425 0.0
H668 H 0.70474 0.05977 0.06071 0.0
H669 H 0.8079 0.96623 0.08379 0.0
C670 C 0.7846 0.93303 1.03678 0.0
C671 C 0.75589 0.93114 1.00787 0.0
C672 C 0.7306 0.06292 0.07898 0.0
C673 C 0.7564 -0.00445 0.05851 0.0
C674 C 0.73667 0.09897 0.09828 0.0
C675 C 0.77085 0.10452 0.12089 0.0
C676 C 0.7589 0.03217 0.08231 0.0
C677 C 0.79722 0.07225 0.12514 0.0
C678 C 0.78492 0.96503 0.06217 0.0
C679 C 0.72688 0.96125 1.00598 0.0
N680 N 0.79089 0.03765 0.10574 0.0
N681 N 0.72809 -0.00751 1.03078 0.0
H682 H 0.90883 0.16885 0.04246 0.0
H683 H 0.12255 0.25996 0.98765 0.0
H684 H 0.96067 0.27156 0.09826 0.0
H685 H 0.07245 0.15263 0.93832 0.0
H686 H 0.05963 0.27094 1.02144 0.0
H687 H 0.96448 0.16864 0.99765 0.0
C688 C 0.93192 0.19153 0.04511 0.0
C689 C 0.93055 0.21994 0.07433 0.0
C690 C 0.06225 0.24527 1.00286 0.0
C691 C -0.00549 0.21983 1.02324 0.0
C692 C 0.09813 0.23904 0.98339 0.0
C693 C 0.10298 0.20504 0.96041 0.0
C694 C 0.031 0.2173 0.9993 0.0
C695 C 0.07025 0.17904 0.95599 0.0
C696 C 0.96368 0.19143 1.01949 0.0
C697 C 0.96089 0.24895 0.07624 0.0
N698 N 0.03584 0.18551 0.97553 0.0
N699 N -0.00807 0.24792 0.05124 0.0
H700 H 0.1509 0.90021 0.14392 0.0
H701 H 0.27111 0.01537 0.98066 0.0
H702 H 0.25611 0.85238 0.08947 0.0
H703 H 0.1649 0.06066 1.03501 0.0
H704 H 0.27124 0.959 1.02529 0.0
H705 H 0.16112 0.96305 0.11008 0.0
C706 C 0.1765 0.90309 0.12526 0.0
C707 C 0.20241 0.87078 0.11921 0.0
C708 C 0.2481 0.98146 1.02764 0.0
C709 C 0.21401 0.94261 0.07988 0.0
C710 C 0.24803 0.01355 1.00218 0.0
C711 C 0.21769 0.0423 1.00398 0.0
C712 C 0.21758 0.97826 0.05497 0.0
C713 C 0.1886 0.03883 1.03245 0.0
C714 C 0.18226 0.93899 0.10581 0.0
C715 C 0.23521 0.8764 0.09484 0.0
N716 N 0.1891 0.00725 0.05664 0.0
N717 N 0.2398 0.91144 0.0757 0.0
H718 H 0.84799 0.71506 0.99292 0.0
H719 H 0.06356 0.80507 0.04259 0.0
H720 H 0.89868 0.82016 0.94008 0.0
H721 H 0.01187 0.70386 0.10079 0.0
H722 H 0.00706 0.80499 0.99876 0.0
H723 H 0.91129 0.70426 1.02606 0.0
C724 C 0.8726 0.73552 0.98778 0.0
C725 C 0.86782 0.76887 0.96399 0.0
C726 C 0.00808 0.78259 1.02091 0.0
C727 C 0.94025 0.75683 1.00213 0.0
C728 C 0.04032 0.78266 0.04597 0.0
C729 C 0.04201 0.75474 0.07556 0.0
C730 C 0.97709 0.75451 1.02559 0.0
C731 C 0.01143 0.72608 0.07845 0.0
C732 C 0.9087 0.7294 1.00686 0.0
C733 C 0.90082 0.79427 0.9584 0.0
N734 N 0.97995 0.72693 0.05397 0.0
N735 N 0.93545 0.78794 0.97761 0.0
loop_
_geom_bond_atom_site_label_1
_geom_bond_atom_site_label_2
_geom_bond_distance
_geom_bond_site_symmetry_2
_ccdc_geom_bond_type
O0 Tb1 2.292 . S
O0 C3 1.255 . S
Tb1 O0 2.292 . S
Tb1 O17 2.326 . S
Tb1 O19 2.500 . S
Tb1 O20 2.473 . S
Tb1 O23 2.324 . S
Eu2 O6 2.292 . S
Eu2 C7 2.852 . S
Eu2 O18 2.324 . S
Eu2 O22 2.326 . S
Eu2 O24 2.500 . S
Eu2 O25 2.473 . S
C3 O0 1.255 . S
C3 O4 1.247 . S
O4 C3 1.247 . S
C5 O17 1.242 . S
C5 O18 1.258 . S
O6 Eu2 2.292 . S
O6 C8 1.255 . S
C7 Eu2 2.852 . S
C7 C11 1.503 . S
C7 O24 1.273 . S
C7 O25 1.257 . S
C8 O6 1.255 . S
C8 O9 1.247 . S
O9 C8 1.247 . S
C10 O22 1.242 . S
C10 O23 1.258 . S
C11 C7 1.503 . S
C11 C12 1.379 . S
C11 C16 1.392 . S
C12 C11 1.379 . S
C12 C13 1.404 . S
C12 H26 0.929 . S
C13 C12 1.404 . S
C13 C14 1.389 . S
C14 C13 1.389 . S
C14 C15 1.399 . S
C14 H27 0.931 . S
C15 C14 1.399 . S
C15 C16 1.390 . S
C16 C11 1.392 . S
C16 C15 1.390 . S
C16 H28 0.929 . S
O17 Tb1 2.326 . S
O17 C5 1.242 . S
O18 Eu2 2.324 . S
O18 C5 1.258 . S
O19 Tb1 2.500 . S
O19 C21 1.273 . S
O20 Tb1 2.473 . S
O20 C21 1.257 . S
C21 O19 1.273 . S
C21 O20 1.257 . S
O22 Eu2 2.326 . S
O22 C10 1.242 . S
O23 Tb1 2.324 . S
O23 C10 1.258 . S
O24 Eu2 2.500 . S
O24 C7 1.273 . S
O25 Eu2 2.473 . S
O25 C7 1.257 . S
H26 C12 0.929 . S
H27 C14 0.931 . S
H28 C16 0.929 . S
O29 Tb30 2.292 . S
O29 C32 1.255 . S
Tb30 O29 2.292 . S
Tb30 O46 2.326 . S
Tb30 O48 2.500 . S
Tb30 O49 2.473 . S
Tb30 O52 2.324 . S
Eu31 O35 2.292 . S
Eu31 C36 2.852 . S
Eu31 O47 2.324 . S
Eu31 O51 2.326 . S
Eu31 O53 2.500 . S
Eu31 O54 2.473 . S
C32 O29 1.255 . S
C32 O33 1.247 . S
O33 C32 1.247 . S
C34 O46 1.242 . S
C34 O47 1.258 . S
O35 Eu31 2.292 . S
O35 C37 1.255 . S
C36 Eu31 2.852 . S
C36 C40 1.503 . S
C36 O53 1.273 . S
C36 O54 1.257 . S
C37 O35 1.255 . S
C37 O38 1.247 . S
O38 C37 1.247 . S
C39 O51 1.242 . S
C39 O52 1.258 . S
C40 C36 1.503 . S
C40 C41 1.379 . S
C40 C45 1.392 . S
C41 C40 1.379 . S
C41 C42 1.404 . S
C41 H55 0.929 . S
C42 C41 1.404 . S
C42 C43 1.389 . S
C43 C42 1.389 . S
C43 C44 1.399 . S
C43 H56 0.931 . S
C44 C43 1.399 . S
C44 C45 1.390 . S
C45 C40 1.392 . S
C45 C44 1.390 . S
C45 H57 0.929 . S
O46 Tb30 2.326 . S
O46 C34 1.242 . S
O47 Eu31 2.324 . S
O47 C34 1.258 . S
O48 Tb30 2.500 . S
O48 C50 1.273 . S
O49 Tb30 2.473 . S
O49 C50 1.257 . S
C50 O48 1.273 . S
C50 O49 1.257 . S
O51 Eu31 2.326 . S
O51 C39 1.242 . S
O52 Tb30 2.324 . S
O52 C39 1.258 . S
O53 Eu31 2.500 . S
O53 C36 1.273 . S
O54 Eu31 2.473 . S
O54 C36 1.257 . S
H55 C41 0.929 . S
H56 C43 0.931 . S
H57 C45 0.929 . S
O58 Tb59 2.292 . S
O58 C61 1.255 . S
Tb59 O58 2.292 . S
Tb59 O75 2.326 . S
Tb59 O77 2.500 . S
Tb59 O78 2.473 . S
Tb59 O81 2.324 . S
Eu60 O64 2.292 . S
Eu60 C65 2.852 . S
Eu60 O76 2.324 . S
Eu60 O80 2.326 . S
Eu60 O82 2.500 . S
Eu60 O83 2.473 . S
C61 O58 1.255 . S
C61 O62 1.247 . S
O62 C61 1.247 . S
C63 O75 1.242 . S
C63 O76 1.258 . S
O64 Eu60 2.292 . S
O64 C66 1.255 . S
C65 Eu60 2.852 . S
C65 C69 1.503 . S
C65 O82 1.273 . S
C65 O83 1.257 . S
C66 O64 1.255 . S
C66 O67 1.247 . S
O67 C66 1.247 . S
C68 O80 1.242 . S
C68 O81 1.258 . S
C69 C65 1.503 . S
C69 C70 1.379 . S
C69 C74 1.392 . S
C70 C69 1.379 . S
C70 C71 1.404 . S
C70 H84 0.929 . S
C71 C70 1.404 . S
C71 C72 1.389 . S
C72 C71 1.389 . S
C72 C73 1.399 . S
C72 H85 0.931 . S
C73 C72 1.399 . S
C73 C74 1.390 . S
C74 C69 1.392 . S
C74 C73 1.390 . S
C74 H86 0.929 . S
O75 Tb59 2.326 . S
O75 C63 1.242 . S
O76 Eu60 2.324 . S
O76 C63 1.258 . S
O77 Tb59 2.500 . S
O77 C79 1.273 . S
O78 Tb59 2.473 . S
O78 C79 1.257 . S
C79 O77 1.273 . S
C79 O78 1.257 . S
O80 Eu60 2.326 . S
O80 C68 1.242 . S
O81 Tb59 2.324 . S
O81 C68 1.258 . S
O82 Eu60 2.500 . S
O82 C65 1.273 . S
O83 Eu60 2.473 . S
O83 C65 1.257 . S
H84 C70 0.929 . S
H85 C72 0.931 . S
H86 C74 0.929 . S
O87 Tb88 2.292 . S
O87 C90 1.255 . S
Tb88 O87 2.292 . S
Tb88 O104 2.326 . S
Tb88 O106 2.500 . S
Tb88 O107 2.473 . S
Tb88 O110 2.324 . S
Eu89 O93 2.292 . S
Eu89 C94 2.852 . S
Eu89 O105 2.324 . S
Eu89 O109 2.326 . S
Eu89 O111 2.500 . S
Eu89 O112 2.473 . S
C90 O87 1.255 . S
C90 O91 1.247 . S
O91 C90 1.247 . S
C92 O104 1.242 . S
C92 O105 1.258 . S
O93 Eu89 2.292 . S
O93 C95 1.255 . S
C94 Eu89 2.852 . S
C94 C98 1.503 . S
C94 O111 1.273 . S
C94 O112 1.257 . S
C95 O93 1.255 . S
C95 O96 1.247 . S
O96 C95 1.247 . S
C97 O109 1.242 . S
C97 O110 1.258 . S
C98 C94 1.503 . S
C98 C99 1.379 . S
C98 C103 1.392 . S
C99 C98 1.379 . S
C99 C100 1.404 . S
C99 H113 0.929 . S
C100 C99 1.404 . S
C100 C101 1.389 . S
C101 C100 1.389 . S
C101 C102 1.399 . S
C101 H114 0.931 . S
C102 C101 1.399 . S
C102 C103 1.390 . S
C103 C98 1.392 . S
C103 C102 1.390 . S
C103 H115 0.929 . S
O104 Tb88 2.326 . S
O104 C92 1.242 . S
O105 Eu89 2.324 . S
O105 C92 1.258 . S
O106 Tb88 2.500 . S
O106 C108 1.273 . S
O107 Tb88 2.473 . S
O107 C108 1.257 . S
C108 O106 1.273 . S
C108 O107 1.257 . S
O109 Eu89 2.326 . S
O109 C97 1.242 . S
O110 Tb88 2.324 . S
O110 C97 1.258 . S
O111 Eu89 2.500 . S
O111 C94 1.273 . S
O112 Eu89 2.473 . S
O112 C94 1.257 . S
H113 C99 0.929 . S
H114 C101 0.931 . S
H115 C103 0.929 . S
O116 Tb117 2.292 . S
O116 C119 1.255 . S
Tb117 O116 2.292 . S
Tb117 O133 2.326 . S
Tb117 O135 2.500 . S
Tb117 O136 2.473 . S
Tb117 O139 2.324 . S
Eu118 O122 2.292 . S
Eu118 C123 2.852 . S
Eu118 O134 2.324 . S
Eu118 O138 2.326 . S
Eu118 O140 2.500 . S
Eu118 O141 2.473 . S
C119 O116 1.255 . S
C119 O120 1.247 . S
O120 C119 1.247 . S
C121 O133 1.242 . S
C121 O134 1.258 . S
O122 Eu118 2.292 . S
O122 C124 1.255 . S
C123 Eu118 2.852 . S
C123 C127 1.503 . S
C123 O140 1.273 . S
C123 O141 1.257 . S
C124 O122 1.255 . S
C124 O125 1.247 . S
O125 C124 1.247 . S
C126 O138 1.242 . S
C126 O139 1.258 . S
C127 C123 1.503 . S
C127 C128 1.379 . S
C127 C132 1.392 . S
C128 C127 1.379 . S
C128 C129 1.404 . S
C128 H142 0.929 . S
C129 C128 1.404 . S
C129 C130 1.389 . S
C130 C129 1.389 . S
C130 C131 1.399 . S
C130 H143 0.931 . S
C131 C130 1.399 . S
C131 C132 1.390 . S
C132 C127 1.392 . S
C132 C131 1.390 . S
C132 H144 0.929 . S
O133 Tb117 2.326 . S
O133 C121 1.242 . S
O134 Eu118 2.324 . S
O134 C121 1.258 . S
O135 Tb117 2.500 . S
O135 C137 1.273 . S
O136 Tb117 2.473 . S
O136 C137 1.257 . S
C137 O135 1.273 . S
C137 O136 1.257 . S
O138 Eu118 2.326 . S
O138 C126 1.242 . S
O139 Tb117 2.324 . S
O139 C126 1.258 . S
O140 Eu118 2.500 . S
O140 C123 1.273 . S
O141 Eu118 2.473 . S
O141 C123 1.257 . S
H142 C128 0.929 . S
H143 C130 0.931 . S
H144 C132 0.929 . S
O145 Tb146 2.292 . S
O145 C148 1.255 . S
Tb146 O145 2.292 . S
Tb146 O162 2.326 . S
Tb146 O164 2.500 . S
Tb146 O165 2.473 . S
Tb146 O168 2.324 . S
Eu147 O151 2.292 . S
Eu147 C152 2.852 . S
Eu147 O163 2.324 . S
Eu147 O167 2.326 . S
Eu147 O169 2.500 . S
Eu147 O170 2.473 . S
C148 O145 1.255 . S
C148 O149 1.247 . S
O149 C148 1.247 . S
C150 O162 1.242 . S
C150 O163 1.258 . S
O151 Eu147 2.292 . S
O151 C153 1.255 . S
C152 Eu147 2.852 . S
C152 C156 1.503 . S
C152 O169 1.273 . S
C152 O170 1.257 . S
C153 O151 1.255 . S
C153 O154 1.247 . S
O154 C153 1.247 . S
C155 O167 1.242 . S
C155 O168 1.258 . S
C156 C152 1.503 . S
C156 C157 1.379 . S
C156 C161 1.392 . S
C157 C156 1.379 . S
C157 C158 1.404 . S
C157 H171 0.929 . S
C158 C157 1.404 . S
C158 C159 1.389 . S
C159 C158 1.389 . S
C159 C160 1.399 . S
C159 H172 0.931 . S
C160 C159 1.399 . S
C160 C161 1.390 . S
C161 C156 1.392 . S
C161 C160 1.390 . S
C161 H173 0.929 . S
O162 Tb146 2.326 . S
O162 C150 1.242 . S
O163 Eu147 2.324 . S
O163 C150 1.258 . S
O164 Tb146 2.500 . S
O164 C166 1.273 . S
O165 Tb146 2.473 . S
O165 C166 1.257 . S
C166 O164 1.273 . S
C166 O165 1.257 . S
O167 Eu147 2.326 . S
O167 C155 1.242 . S
O168 Tb146 2.324 . S
O168 C155 1.258 . S
O169 Eu147 2.500 . S
O169 C152 1.273 . S
O170 Eu147 2.473 . S
O170 C152 1.257 . S
H171 C157 0.929 . S
H172 C159 0.931 . S
H173 C161 0.929 . S
O174 Tb175 2.292 . S
O174 C177 1.255 . S
Tb175 O174 2.292 . S
Tb175 O191 2.326 . S
Tb175 O193 2.500 . S
Tb175 O194 2.473 . S
Tb175 O197 2.324 . S
Eu176 O180 2.292 . S
Eu176 C181 2.852 . S
Eu176 O192 2.324 . S
Eu176 O196 2.326 . S
Eu176 O198 2.500 . S
Eu176 O199 2.473 . S
C177 O174 1.255 . S
C177 O178 1.247 . S
O178 C177 1.247 . S
C179 O191 1.242 . S
C179 O192 1.258 . S
O180 Eu176 2.292 . S
O180 C182 1.255 . S
C181 Eu176 2.852 . S
C181 C185 1.503 . S
C181 O198 1.273 . S
C181 O199 1.257 . S
C182 O180 1.255 . S
C182 O183 1.247 . S
O183 C182 1.247 . S
C184 O196 1.242 . S
C184 O197 1.258 . S
C185 C181 1.503 . S
C185 C186 1.379 . S
C185 C190 1.392 . S
C186 C185 1.379 . S
C186 C187 1.404 . S
C186 H200 0.929 . S
C187 C186 1.404 . S
C187 C188 1.389 . S
C188 C187 1.389 . S
C188 C189 1.399 . S
C188 H201 0.931 . S
C189 C188 1.399 . S
C189 C190 1.390 . S
C190 C185 1.392 . S
C190 C189 1.390 . S
C190 H202 0.929 . S
O191 Tb175 2.326 . S
O191 C179 1.242 . S
O192 Eu176 2.324 . S
O192 C179 1.258 . S
O193 Tb175 2.500 . S
O193 C195 1.273 . S
O194 Tb175 2.473 . S
O194 C195 1.257 . S
C195 O193 1.273 . S
C195 O194 1.257 . S
O196 Eu176 2.326 . S
O196 C184 1.242 . S
O197 Tb175 2.324 . S
O197 C184 1.258 . S
O198 Eu176 2.500 . S
O198 C181 1.273 . S
O199 Eu176 2.473 . S
O199 C181 1.257 . S
H200 C186 0.929 . S
H201 C188 0.931 . S
H202 C190 0.929 . S
O203 Tb204 2.292 . S
O203 C206 1.255 . S
Tb204 O203 2.292 . S
Tb204 O220 2.326 . S
Tb204 O222 2.500 . S
Tb204 O223 2.473 . S
Tb204 O226 2.324 . S
Eu205 O209 2.292 . S
Eu205 C210 2.852 . S
Eu205 O221 2.324 . S
Eu205 O225 2.326 . S
Eu205 O227 2.500 . S
Eu205 O228 2.473 . S
C206 O203 1.255 . S
C206 O207 1.247 . S
O207 C206 1.247 . S
C208 O220 1.242 . S
C208 O221 1.258 . S
O209 Eu205 2.292 . S
O209 C211 1.255 . S
C210 Eu205 2.852 . S
C210 C214 1.503 . S
C210 O227 1.273 . S
C210 O228 1.257 . S
C211 O209 1.255 . S
C211 O212 1.247 . S
O212 C211 1.247 . S
C213 O225 1.242 . S
C213 O226 1.258 . S
C214 C210 1.503 . S
C214 C215 1.379 . S
C214 C219 1.392 . S
C215 C214 1.379 . S
C215 C216 1.404 . S
C215 H229 0.929 . S
C216 C215 1.404 . S
C216 C217 1.389 . S
C217 C216 1.389 . S
C217 C218 1.399 . S
C217 H230 0.931 . S
C218 C217 1.399 . S
C218 C219 1.390 . S
C219 C214 1.392 . S
C219 C218 1.390 . S
C219 H231 0.929 . S
O220 Tb204 2.326 . S
O220 C208 1.242 . S
O221 Eu205 2.324 . S
O221 C208 1.258 . S
O222 Tb204 2.500 . S
O222 C224 1.273 . S
O223 Tb204 2.473 . S
O223 C224 1.257 . S
C224 O222 1.273 . S
C224 O223 1.257 . S
O225 Eu205 2.326 . S
O225 C213 1.242 . S
O226 Tb204 2.324 . S
O226 C213 1.258 . S
O227 Eu205 2.500 . S
O227 C210 1.273 . S
O228 Eu205 2.473 . S
O228 C210 1.257 . S
H229 C215 0.929 . S
H230 C217 0.931 . S
H231 C219 0.929 . S
H232 C238 0.930 . S
H233 C242 0.930 . S
H234 C247 0.929 . S
H235 C245 0.929 . S
H236 C240 0.929 . S
H237 C246 0.929 . S
C238 H232 0.930 . S
C238 C239 1.367 . S
C238 C246 1.378 . S
C239 C238 1.367 . S
C239 C247 1.433 . S
C240 H236 0.929 . S
C240 C242 1.378 1_554 S
C240 C244 1.350 . S
C241 C244 1.463 . S
C241 C246 1.350 . S
C241 N249 1.427 . S
C242 H233 0.930 . S
C242 C240 1.378 1_556 S
C242 C243 1.367 . S
C243 C242 1.367 . S
C243 C245 1.433 . S
C244 C240 1.350 . S
C244 C241 1.463 . S
C244 N248 1.427 . S
C245 H235 0.929 . S
C245 C243 1.433 . S
C245 N248 1.384 1_556 S
C246 H237 0.929 . S
C246 C238 1.378 . S
C246 C241 1.350 . S
C247 H234 0.929 . S
C247 C239 1.433 . S
C247 N249 1.384 . S
N248 C244 1.427 . S
N248 C245 1.384 1_554 S
N249 C241 1.427 . S
N249 C247 1.384 . S
H250 C256 0.930 . S
H251 C260 0.930 . S
H252 C265 0.929 . S
H253 C263 0.929 . S
H254 C258 0.929 . S
H255 C264 0.929 . S
C256 H250 0.930 . S
C256 C257 1.367 . S
C256 C264 1.378 1_554 S
C257 C256 1.367 . S
C257 C265 1.433 . S
C258 H254 0.929 . S
C258 C260 1.378 . S
C258 C262 1.350 . S
C259 C262 1.463 . S
C259 C264 1.350 . S
C259 N267 1.427 . S
C260 H251 0.930 . S
C260 C258 1.378 . S
C260 C261 1.367 . S
C261 C260 1.367 . S
C261 C263 1.433 . S
C262 C258 1.350 . S
C262 C259 1.463 . S
C262 N266 1.427 . S
C263 H253 0.929 . S
C263 C261 1.433 . S
C263 N266 1.384 . S
C264 H255 0.929 . S
C264 C256 1.378 1_556 S
C264 C259 1.350 . S
C265 H252 0.929 . S
C265 C257 1.433 . S
C265 N267 1.384 1_554 S
N266 C262 1.427 . S
N266 C263 1.384 . S
N267 C259 1.427 . S
N267 C265 1.384 1_556 S
H268 C274 0.930 . S
H269 C278 0.930 . S
H270 C283 0.929 . S
H271 C281 0.929 . S
H272 C276 0.929 . S
H273 C282 0.929 . S
C274 H268 0.930 . S
C274 C275 1.367 . S
C274 C282 1.378 1_556 S
C275 C274 1.367 . S
C275 C283 1.433 . S
C276 H272 0.929 . S
C276 C278 1.378 . S
C276 C280 1.350 . S
C277 C280 1.463 . S
C277 C282 1.350 . S
C277 N285 1.427 . S
C278 H269 0.930 . S
C278 C276 1.378 . S
C278 C279 1.367 . S
C279 C278 1.367 . S
C279 C281 1.433 . S
C280 C276 1.350 . S
C280 C277 1.463 . S
C280 N284 1.427 . S
C281 H271 0.929 . S
C281 C279 1.433 . S
C281 N284 1.384 . S
C282 H273 0.929 . S
C282 C274 1.378 1_554 S
C282 C277 1.350 . S
C283 H270 0.929 . S
C283 C275 1.433 . S
C283 N285 1.384 1_556 S
N284 C280 1.427 . S
N284 C281 1.384 . S
N285 C277 1.427 . S
N285 C283 1.384 1_554 S
H286 C292 0.930 . S
H287 C296 0.930 . S
H288 C301 0.929 . S
H289 C299 0.929 . S
H290 C294 0.929 . S
H291 C300 0.929 . S
C292 H286 0.930 . S
C292 C293 1.367 . S
C292 C300 1.378 . S
C293 C292 1.367 . S
C293 C301 1.433 . S
C294 H290 0.929 . S
C294 C296 1.378 1_556 S
C294 C298 1.350 . S
C295 C298 1.463 . S
C295 C300 1.350 . S
C295 N303 1.427 . S
C296 H287 0.930 . S
C296 C294 1.378 1_554 S
C296 C297 1.367 . S
C297 C296 1.367 . S
C297 C299 1.433 . S
C298 C294 1.350 . S
C298 C295 1.463 . S
C298 N302 1.427 . S
C299 H289 0.929 . S
C299 C297 1.433 . S
C299 N302 1.384 1_554 S
C300 H291 0.929 . S
C300 C292 1.378 . S
C300 C295 1.350 . S
C301 H288 0.929 . S
C301 C293 1.433 . S
C301 N303 1.384 . S
N302 C298 1.427 . S
N302 C299 1.384 1_556 S
N303 C295 1.427 . S
N303 C301 1.384 . S
H304 C310 0.930 . S
H305 C314 0.930 . S
H306 C319 0.929 . S
H307 C317 0.929 . S
H308 C312 0.929 . S
H309 C318 0.929 . S
C310 H304 0.930 . S
C310 C311 1.367 . S
C310 C318 1.378 . S
C311 C310 1.367 . S
C311 C319 1.433 . S
C312 H308 0.929 . S
C312 C314 1.378 . S
C312 C316 1.350 . S
C313 C316 1.463 . S
C313 C318 1.350 . S
C313 N321 1.427 . S
C314 H305 0.930 . S
C314 C312 1.378 . S
C314 C315 1.367 . S
C315 C314 1.367 . S
C315 C317 1.433 . S
C316 C312 1.350 . S
C316 C313 1.463 . S
C316 N320 1.427 . S
C317 H307 0.929 . S
C317 C315 1.433 . S
C317 N320 1.384 . S
C318 H309 0.929 . S
C318 C310 1.378 . S
C318 C313 1.350 . S
C319 H306 0.929 . S
C319 C311 1.433 . S
C319 N321 1.384 . S
N320 C316 1.427 . S
N320 C317 1.384 . S
N321 C313 1.427 . S
N321 C319 1.384 . S
H322 C328 0.930 . S
H323 C332 0.930 . S
H324 C337 0.929 . S
H325 C335 0.929 . S
H326 C330 0.929 . S
H327 C336 0.929 . S
C328 H322 0.930 . S
C328 C329 1.367 . S
C328 C336 1.378 . S
C329 C328 1.367 . S
C329 C337 1.433 . S
C330 H326 0.929 . S
C330 C332 1.378 . S
C330 C334 1.350 . S
C331 C334 1.463 . S
C331 C336 1.350 . S
C331 N339 1.427 . S
C332 H323 0.930 . S
C332 C330 1.378 . S
C332 C333 1.367 . S
C333 C332 1.367 . S
C333 C335 1.433 . S
C334 C330 1.350 . S
C334 C331 1.463 . S
C334 N338 1.427 . S
C335 H325 0.929 . S
C335 C333 1.433 . S
C335 N338 1.384 . S
C336 H327 0.929 . S
C336 C328 1.378 . S
C336 C331 1.350 . S
C337 H324 0.929 . S
C337 C329 1.433 . S
C337 N339 1.384 . S
N338 C334 1.427 . S
N338 C335 1.384 . S
N339 C331 1.427 . S
N339 C337 1.384 . S
H340 C346 0.930 . S
H341 C350 0.930 . S
H342 C355 0.929 . S
H343 C353 0.929 . S
H344 C348 0.929 . S
H345 C354 0.929 . S
C346 H340 0.930 . S
C346 C347 1.367 . S
C346 C354 1.378 . S
C347 C346 1.367 . S
C347 C355 1.433 . S
C348 H344 0.929 . S
C348 C350 1.378 . S
C348 C352 1.350 . S
C349 C352 1.463 . S
C349 C354 1.350 . S
C349 N357 1.427 . S
C350 H341 0.930 . S
C350 C348 1.378 . S
C350 C351 1.367 . S
C351 C350 1.367 . S
C351 C353 1.433 . S
C352 C348 1.350 . S
C352 C349 1.463 . S
C352 N356 1.427 . S
C353 H343 0.929 . S
C353 C351 1.433 . S
C353 N356 1.384 . S
C354 H345 0.929 . S
C354 C346 1.378 . S
C354 C349 1.350 . S
C355 H342 0.929 . S
C355 C347 1.433 . S
C355 N357 1.384 . S
N356 C352 1.427 . S
N356 C353 1.384 . S
N357 C349 1.427 . S
N357 C355 1.384 . S
H358 C364 0.930 . S
H359 C368 0.930 . S
H360 C373 0.929 . S
H361 C371 0.929 . S
H362 C366 0.929 . S
H363 C372 0.929 . S
C364 H358 0.930 . S
C364 C365 1.367 . S
C364 C372 1.378 . S
C365 C364 1.367 . S
C365 C373 1.433 . S
C366 H362 0.929 . S
C366 C368 1.378 . S
C366 C370 1.350 . S
C367 C370 1.463 . S
C367 C372 1.350 . S
C367 N375 1.427 . S
C368 H359 0.930 . S
C368 C366 1.378 . S
C368 C369 1.367 . S
C369 C368 1.367 . S
C369 C371 1.433 . S
C370 C366 1.350 . S
C370 C367 1.463 . S
C370 N374 1.427 . S
C371 H361 0.929 . S
C371 C369 1.433 . S
C371 N374 1.384 . S
C372 H363 0.929 . S
C372 C364 1.378 . S
C372 C367 1.350 . S
C373 H360 0.929 . S
C373 C365 1.433 . S
C373 N375 1.384 . S
N374 C370 1.427 . S
N374 C371 1.384 . S
N375 C367 1.427 . S
N375 C373 1.384 . S
H376 C382 0.930 . S
H377 C386 0.930 . S
H378 C391 0.929 . S
H379 C389 0.929 . S
H380 C384 0.929 . S
H381 C390 0.929 . S
C382 H376 0.930 . S
C382 C383 1.367 . S
C382 C390 1.378 . S
C383 C382 1.367 . S
C383 C391 1.433 . S
C384 H380 0.929 . S
C384 C386 1.378 . S
C384 C388 1.350 . S
C385 C388 1.463 1_545 S
C385 C390 1.350 . S
C385 N393 1.427 . S
C386 H377 0.930 . S
C386 C384 1.378 . S
C386 C387 1.367 . S
C387 C386 1.367 . S
C387 C389 1.433 . S
C388 C384 1.350 . S
C388 C385 1.463 1_565 S
C388 N392 1.427 . S
C389 H379 0.929 . S
C389 C387 1.433 . S
C389 N392 1.384 . S
C390 H381 0.929 . S
C390 C382 1.378 . S
C390 C385 1.350 . S
C391 H378 0.929 . S
C391 C383 1.433 . S
C391 N393 1.384 . S
N392 C388 1.427 . S
N392 C389 1.384 . S
N393 C385 1.427 . S
N393 C391 1.384 . S
H394 C400 0.930 . S
H395 C404 0.930 . S
H396 C409 0.929 . S
H397 C407 0.929 . S
H398 C402 0.929 . S
H399 C408 0.929 . S
C400 H394 0.930 . S
C400 C401 1.367 . S
C400 C408 1.378 . S
C401 C400 1.367 . S
C401 C409 1.433 . S
C402 H398 0.929 . S
C402 C404 1.378 . S
C402 C406 1.350 . S
C403 C406 1.463 1_655 S
C403 C408 1.350 . S
C403 N411 1.427 . S
C404 H395 0.930 . S
C404 C402 1.378 . S
C404 C405 1.367 . S
C405 C404 1.367 . S
C405 C407 1.433 . S
C406 C402 1.350 . S
C406 C403 1.463 1_455 S
C406 N410 1.427 . S
C407 H397 0.929 . S
C407 C405 1.433 . S
C407 N410 1.384 . S
C408 H399 0.929 . S
C408 C400 1.378 . S
C408 C403 1.350 . S
C409 H396 0.929 . S
C409 C401 1.433 . S
C409 N411 1.384 . S
N410 C406 1.427 . S
N410 C407 1.384 . S
N411 C403 1.427 . S
N411 C409 1.384 . S
H412 C418 0.930 . S
H413 C422 0.930 . S
H414 C427 0.929 1_455 S
H415 C425 0.929 1_655 S
H416 C420 0.929 . S
H417 C426 0.929 . S
C418 H412 0.930 . S
C418 C419 1.367 . S
C418 C426 1.378 . S
C419 C418 1.367 . S
C419 C427 1.433 . S
C420 H416 0.929 . S
C420 C422 1.378 . S
C420 C424 1.350 . S
C421 C424 1.463 1_655 S
C421 C426 1.350 . S
C421 N429 1.427 1_655 S
C422 H413 0.930 . S
C422 C420 1.378 . S
C422 C423 1.367 . S
C423 C422 1.367 . S
C423 C425 1.433 . S
C424 C420 1.350 . S
C424 C421 1.463 1_455 S
C424 N428 1.427 1_455 S
C425 H415 0.929 1_455 S
C425 C423 1.433 . S
C425 N428 1.384 1_455 S
C426 H417 0.929 . S
C426 C418 1.378 . S
C426 C421 1.350 . S
C427 H414 0.929 1_655 S
C427 C419 1.433 . S
C427 N429 1.384 1_655 S
N428 C424 1.427 1_655 S
N428 C425 1.384 1_655 S
N429 C421 1.427 1_455 S
N429 C427 1.384 1_455 S
H430 C436 0.930 1_565 S
H431 C440 0.930 1_545 S
H432 C445 0.929 . S
H433 C443 0.929 . S
H434 C438 0.929 . S
H435 C444 0.929 . S
C436 H430 0.930 1_545 S
C436 C437 1.367 . S
C436 C444 1.378 1_545 S
C437 C436 1.367 . S
C437 C445 1.433 . S
C438 H434 0.929 . S
C438 C440 1.378 1_545 S
C438 C442 1.350 1_545 S
C439 C442 1.463 1_545 S
C439 C444 1.350 1_545 S
C439 N447 1.427 . S
C440 H431 0.930 1_565 S
C440 C438 1.378 1_565 S
C440 C441 1.367 . S
C441 C440 1.367 . S
C441 C443 1.433 . S
C442 C438 1.350 1_565 S
C442 C439 1.463 1_565 S
C442 N446 1.427 . S
C443 H433 0.929 . S
C443 C441 1.433 . S
C443 N446 1.384 . S
C444 H435 0.929 . S
C444 C436 1.378 1_565 S
C444 C439 1.350 1_565 S
C445 H432 0.929 . S
C445 C437 1.433 . S
C445 N447 1.384 . S
N446 C442 1.427 . S
N446 C443 1.384 . S
N447 C439 1.427 . S
N447 C445 1.384 . S
H448 C454 0.930 . S
H449 C458 0.930 . S
H450 C463 0.929 . S
H451 C461 0.929 . S
H452 C456 0.929 . S
H453 C462 0.929 . S
C454 H448 0.930 . S
C454 C455 1.367 . S
C454 C462 1.378 . S
C455 C454 1.367 . S
C455 C463 1.433 . S
C456 H452 0.929 . S
C456 C458 1.378 . S
C456 C460 1.350 . S
C457 C460 1.463 . S
C457 C462 1.350 . S
C457 N465 1.427 . S
C458 H449 0.930 . S
C458 C456 1.378 . S
C458 C459 1.367 . S
C459 C458 1.367 . S
C459 C461 1.433 . S
C460 C456 1.350 . S
C460 C457 1.463 . S
C460 N464 1.427 . S
C461 H451 0.929 . S
C461 C459 1.433 . S
C461 N464 1.384 . S
C462 H453 0.929 . S
C462 C454 1.378 . S
C462 C457 1.350 . S
C463 H450 0.929 . S
C463 C455 1.433 . S
C463 N465 1.384 . S
N464 C460 1.427 . S
N464 C461 1.384 . S
N465 C457 1.427 . S
N465 C463 1.384 . S
H466 C472 0.930 . S
H467 C476 0.930 . S
H468 C481 0.929 . S
H469 C479 0.929 . S
H470 C474 0.929 . S
H471 C480 0.929 . S
C472 H466 0.930 . S
C472 C473 1.367 . S
C472 C480 1.378 . S
C473 C472 1.367 . S
C473 C481 1.433 . S
C474 H470 0.929 . S
C474 C476 1.378 . S
C474 C478 1.350 . S
C475 C478 1.463 . S
C475 C480 1.350 . S
C475 N483 1.427 . S
C476 H467 0.930 . S
C476 C474 1.378 . S
C476 C477 1.367 . S
C477 C476 1.367 . S
C477 C479 1.433 . S
C478 C474 1.350 . S
C478 C475 1.463 . S
C478 N482 1.427 . S
C479 H469 0.929 . S
C479 C477 1.433 . S
C479 N482 1.384 . S
C480 H471 0.929 . S
C480 C472 1.378 . S
C480 C475 1.350 . S
C481 H468 0.929 . S
C481 C473 1.433 . S
C481 N483 1.384 . S
N482 C478 1.427 . S
N482 C479 1.384 . S
N483 C475 1.427 . S
N483 C481 1.384 . S
H484 C490 0.930 . S
H485 C494 0.930 . S
H486 C499 0.929 . S
H487 C497 0.929 . S
H488 C492 0.929 . S
H489 C498 0.929 . S
C490 H484 0.930 . S
C490 C491 1.367 . S
C490 C498 1.378 . S
C491 C490 1.367 . S
C491 C499 1.433 . S
C492 H488 0.929 . S
C492 C494 1.378 . S
C492 C496 1.350 . S
C493 C496 1.463 . S
C493 C498 1.350 . S
C493 N501 1.427 . S
C494 H485 0.930 . S
C494 C492 1.378 . S
C494 C495 1.367 . S
C495 C494 1.367 . S
C495 C497 1.433 . S
C496 C492 1.350 . S
C496 C493 1.463 . S
C496 N500 1.427 . S
C497 H487 0.929 . S
C497 C495 1.433 . S
C497 N500 1.384 . S
C498 H489 0.929 . S
C498 C490 1.378 . S
C498 C493 1.350 . S
C499 H486 0.929 . S
C499 C491 1.433 . S
C499 N501 1.384 . S
N500 C496 1.427 . S
N500 C497 1.384 . S
N501 C493 1.427 . S
N501 C499 1.384 . S
H502 C508 0.930 . S
H503 C512 0.930 . S
H504 C517 0.929 . S
H505 C515 0.929 . S
H506 C510 0.929 . S
H507 C516 0.929 . S
C508 H502 0.930 . S
C508 C509 1.367 . S
C508 C516 1.378 . S
C509 C508 1.367 . S
C509 C517 1.433 . S
C510 H506 0.929 . S
C510 C512 1.378 . S
C510 C514 1.350 . S
C511 C514 1.463 . S
C511 C516 1.350 . S
C511 N519 1.427 . S
C512 H503 0.930 . S
C512 C510 1.378 . S
C512 C513 1.367 . S
C513 C512 1.367 . S
C513 C515 1.433 . S
C514 C510 1.350 . S
C514 C511 1.463 . S
C514 N518 1.427 . S
C515 H505 0.929 . S
C515 C513 1.433 . S
C515 N518 1.384 . S
C516 H507 0.929 . S
C516 C508 1.378 . S
C516 C511 1.350 . S
C517 H504 0.929 . S
C517 C509 1.433 . S
C517 N519 1.384 . S
N518 C514 1.427 . S
N518 C515 1.384 . S
N519 C511 1.427 . S
N519 C517 1.384 . S
H520 C526 0.930 . S
H521 C530 0.930 . S
H522 C535 0.929 . S
H523 C533 0.929 . S
H524 C528 0.929 . S
H525 C534 0.929 . S
C526 H520 0.930 . S
C526 C527 1.367 . S
C526 C534 1.378 1_655 S
C527 C526 1.367 . S
C527 C535 1.433 . S
C528 H524 0.929 . S
C528 C530 1.378 . S
C528 C532 1.350 . S
C529 C532 1.463 . S
C529 C534 1.350 . S
C529 N537 1.427 . S
C530 H521 0.930 . S
C530 C528 1.378 . S
C530 C531 1.367 . S
C531 C530 1.367 . S
C531 C533 1.433 . S
C532 C528 1.350 . S
C532 C529 1.463 . S
C532 N536 1.427 . S
C533 H523 0.929 . S
C533 C531 1.433 . S
C533 N536 1.384 . S
C534 H525 0.929 . S
C534 C526 1.378 1_455 S
C534 C529 1.350 . S
C535 H522 0.929 . S
C535 C527 1.433 . S
C535 N537 1.384 1_655 S
N536 C532 1.427 . S
N536 C533 1.384 . S
N537 C529 1.427 . S
N537 C535 1.384 1_455 S
H538 C544 0.930 . S
H539 C548 0.930 . S
H540 C553 0.929 . S
H541 C551 0.929 . S
H542 C546 0.929 . S
H543 C552 0.929 . S
C544 H538 0.930 . S
C544 C545 1.367 . S
C544 C552 1.378 1_545 S
C545 C544 1.367 . S
C545 C553 1.433 . S
C546 H542 0.929 . S
C546 C548 1.378 . S
C546 C550 1.350 . S
C547 C550 1.463 . S
C547 C552 1.350 . S
C547 N555 1.427 . S
C548 H539 0.930 . S
C548 C546 1.378 . S
C548 C549 1.367 . S
C549 C548 1.367 . S
C549 C551 1.433 . S
C550 C546 1.350 . S
C550 C547 1.463 . S
C550 N554 1.427 . S
C551 H541 0.929 . S
C551 C549 1.433 . S
C551 N554 1.384 . S
C552 H543 0.929 . S
C552 C544 1.378 1_565 S
C552 C547 1.350 . S
C553 H540 0.929 . S
C553 C545 1.433 . S
C553 N555 1.384 1_545 S
N554 C550 1.427 . S
N554 C551 1.384 . S
N555 C547 1.427 . S
N555 C553 1.384 1_565 S
H556 C562 0.930 . S
H557 C566 0.930 . S
H558 C571 0.929 . S
H559 C569 0.929 . S
H560 C564 0.929 . S
H561 C570 0.929 . S
C562 H556 0.930 . S
C562 C563 1.367 . S
C562 C570 1.378 . S
C563 C562 1.367 . S
C563 C571 1.433 . S
C564 H560 0.929 . S
C564 C566 1.378 1_655 S
C564 C568 1.350 . S
C565 C568 1.463 . S
C565 C570 1.350 . S
C565 N573 1.427 . S
C566 H557 0.930 . S
C566 C564 1.378 1_455 S
C566 C567 1.367 . S
C567 C566 1.367 . S
C567 C569 1.433 . S
C568 C564 1.350 . S
C568 C565 1.463 . S
C568 N572 1.427 . S
C569 H559 0.929 . S
C569 C567 1.433 . S
C569 N572 1.384 1_455 S
C570 H561 0.929 . S
C570 C562 1.378 . S
C570 C565 1.350 . S
C571 H558 0.929 . S
C571 C563 1.433 . S
C571 N573 1.384 . S
N572 C568 1.427 . S
N572 C569 1.384 1_655 S
N573 C565 1.427 . S
N573 C571 1.384 . S
H574 C580 0.930 . S
H575 C584 0.930 . S
H576 C589 0.929 . S
H577 C587 0.929 . S
H578 C582 0.929 . S
H579 C588 0.929 . S
C580 H574 0.930 . S
C580 C581 1.367 . S
C580 C588 1.378 . S
C581 C580 1.367 . S
C581 C589 1.433 . S
C582 H578 0.929 . S
C582 C584 1.378 1_545 S
C582 C586 1.350 . S
C583 C586 1.463 . S
C583 C588 1.350 . S
C583 N591 1.427 . S
C584 H575 0.930 . S
C584 C582 1.378 1_565 S
C584 C585 1.367 . S
C585 C584 1.367 . S
C585 C587 1.433 . S
C586 C582 1.350 . S
C586 C583 1.463 . S
C586 N590 1.427 . S
C587 H577 0.929 . S
C587 C585 1.433 . S
C587 N590 1.384 1_565 S
C588 H579 0.929 . S
C588 C580 1.378 . S
C588 C583 1.350 . S
C589 H576 0.929 . S
C589 C581 1.433 . S
C589 N591 1.384 . S
N590 C586 1.427 . S
N590 C587 1.384 1_545 S
N591 C583 1.427 . S
N591 C589 1.384 . S
H592 C598 0.930 . S
H593 C602 0.930 . S
H594 C607 0.929 . S
H595 C605 0.929 . S
H596 C600 0.929 . S
H597 C606 0.929 . S
C598 H592 0.930 . S
C598 C599 1.367 . S
C598 C606 1.378 . S
C599 C598 1.367 . S
C599 C607 1.433 . S
C600 H596 0.929 . S
C600 C602 1.378 . S
C600 C604 1.350 . S
C601 C604 1.463 . S
C601 C606 1.350 . S
C601 N609 1.427 . S
C602 H593 0.930 . S
C602 C600 1.378 . S
C602 C603 1.367 . S
C603 C602 1.367 . S
C603 C605 1.433 . S
C604 C600 1.350 . S
C604 C601 1.463 . S
C604 N608 1.427 . S
C605 H595 0.929 . S
C605 C603 1.433 . S
C605 N608 1.384 . S
C606 H597 0.929 . S
C606 C598 1.378 . S
C606 C601 1.350 . S
C607 H594 0.929 . S
C607 C599 1.433 . S
C607 N609 1.384 . S
N608 C604 1.427 . S
N608 C605 1.384 . S
N609 C601 1.427 . S
N609 C607 1.384 . S
H610 C616 0.930 . S
H611 C620 0.930 . S
H612 C625 0.929 . S
H613 C623 0.929 . S
H614 C618 0.929 . S
H615 C624 0.929 . S
C616 H610 0.930 . S
C616 C617 1.367 . S
C616 C624 1.378 . S
C617 C616 1.367 . S
C617 C625 1.433 . S
C618 H614 0.929 . S
C618 C620 1.378 . S
C618 C622 1.350 . S
C619 C622 1.463 . S
C619 C624 1.350 . S
C619 N627 1.427 . S
C620 H611 0.930 . S
C620 C618 1.378 . S
C620 C621 1.367 . S
C621 C620 1.367 . S
C621 C623 1.433 . S
C622 C618 1.350 . S
C622 C619 1.463 . S
C622 N626 1.427 . S
C623 H613 0.929 . S
C623 C621 1.433 . S
C623 N626 1.384 . S
C624 H615 0.929 . S
C624 C616 1.378 . S
C624 C619 1.350 . S
C625 H612 0.929 . S
C625 C617 1.433 . S
C625 N627 1.384 . S
N626 C622 1.427 . S
N626 C623 1.384 . S
N627 C619 1.427 . S
N627 C625 1.384 . S
H628 C634 0.930 . S
H629 C638 0.930 . S
H630 C643 0.929 . S
H631 C641 0.929 . S
H632 C636 0.929 . S
H633 C642 0.929 . S
C634 H628 0.930 . S
C634 C635 1.367 . S
C634 C642 1.378 . S
C635 C634 1.367 . S
C635 C643 1.433 . S
C636 H632 0.929 . S
C636 C638 1.378 . S
C636 C640 1.350 . S
C637 C640 1.463 . S
C637 C642 1.350 . S
C637 N645 1.427 . S
C638 H629 0.930 . S
C638 C636 1.378 . S
C638 C639 1.367 . S
C639 C638 1.367 . S
C639 C641 1.433 . S
C640 C636 1.350 . S
C640 C637 1.463 . S
C640 N644 1.427 . S
C641 H631 0.929 . S
C641 C639 1.433 . S
C641 N644 1.384 . S
C642 H633 0.929 . S
C642 C634 1.378 . S
C642 C637 1.350 . S
C643 H630 0.929 . S
C643 C635 1.433 . S
C643 N645 1.384 . S
N644 C640 1.427 . S
N644 C641 1.384 . S
N645 C637 1.427 . S
N645 C643 1.384 . S
H646 C652 0.930 . S
H647 C656 0.930 . S
H648 C661 0.929 . S
H649 C659 0.929 . S
H650 C654 0.929 . S
H651 C660 0.929 . S
C652 H646 0.930 . S
C652 C653 1.367 . S
C652 C660 1.378 . S
C653 C652 1.367 . S
C653 C661 1.433 . S
C654 H650 0.929 . S
C654 C656 1.378 . S
C654 C658 1.350 . S
C655 C658 1.463 . S
C655 C660 1.350 . S
C655 N663 1.427 . S
C656 H647 0.930 . S
C656 C654 1.378 . S
C656 C657 1.367 . S
C657 C656 1.367 . S
C657 C659 1.433 . S
C658 C654 1.350 . S
C658 C655 1.463 . S
C658 N662 1.427 . S
C659 H649 0.929 . S
C659 C657 1.433 . S
C659 N662 1.384 . S
C660 H651 0.929 . S
C660 C652 1.378 . S
C660 C655 1.350 . S
C661 H648 0.929 . S
C661 C653 1.433 . S
C661 N663 1.384 . S
N662 C658 1.427 . S
N662 C659 1.384 . S
N663 C655 1.427 . S
N663 C661 1.384 . S
H664 C670 0.930 . S
H665 C674 0.930 . S
H666 C679 0.930 . S
H667 C677 0.929 . S
H668 C672 0.929 1_556 S
H669 C678 0.929 . S
C670 H664 0.930 . S
C670 C671 1.367 . S
C670 C678 1.378 1_556 S
C671 C670 1.367 . S
C671 C679 1.427 1_565 S
C672 H668 0.929 1_554 S
C672 C674 1.378 . S
C672 C676 1.350 . S
C673 C676 1.469 . S
C673 C678 1.352 1_545 S
C673 N681 1.419 1_554 S
C674 H665 0.930 . S
C674 C672 1.378 . S
C674 C675 1.367 . S
C675 C674 1.367 . S
C675 C677 1.433 . S
C676 C672 1.350 . S
C676 C673 1.469 . S
C676 N680 1.427 . S
C677 H667 0.929 . S
C677 C675 1.433 . S
C677 N680 1.384 . S
C678 H669 0.929 . S
C678 C670 1.378 1_554 S
C678 C673 1.352 1_565 S
C679 H666 0.930 . S
C679 C671 1.427 1_545 S
C679 N681 1.389 . S
N680 C676 1.427 . S
N680 C677 1.384 . S
N681 C673 1.419 1_556 S
N681 C679 1.389 . S
H682 C688 0.930 . S
H683 C692 0.930 . S
H684 C697 0.929 . S
H685 C695 0.929 . S
H686 C690 0.929 1_554 S
H687 C696 0.929 . S
C688 H682 0.930 . S
C688 C689 1.367 . S
C688 C696 1.378 1_554 S
C689 C688 1.367 . S
C689 C697 1.433 1_655 S
C690 H686 0.929 1_556 S
C690 C692 1.378 . S
C690 C694 1.350 . S
C691 C694 1.470 . S
C691 C696 1.353 1_455 S
C691 N699 1.417 1_556 S
C692 H683 0.930 . S
C692 C690 1.378 . S
C692 C693 1.367 . S
C693 C692 1.367 . S
C693 C695 1.433 . S
C694 C690 1.350 . S
C694 C691 1.470 . S
C694 N698 1.427 . S
C695 H685 0.929 . S
C695 C693 1.433 . S
C695 N698 1.384 . S
C696 H687 0.929 . S
C696 C688 1.378 1_556 S
C696 C691 1.353 1_655 S
C697 H684 0.929 . S
C697 C689 1.433 1_455 S
C697 N699 1.384 . S
N698 C694 1.427 . S
N698 C695 1.384 . S
N699 C691 1.417 1_554 S
N699 C697 1.384 . S
H700 C706 0.930 . S
H701 C710 0.930 . S
H702 C715 0.929 . S
H703 C713 0.929 . S
H704 C708 0.928 1_564 S
H705 C714 0.929 . S
C706 H700 0.930 . S
C706 C707 1.367 . S
C706 C714 1.378 . S
C707 C706 1.367 . S
C707 C715 1.433 . S
C708 H704 0.928 1_546 S
C708 C710 1.379 . S
C708 C712 1.349 1_546 S
C709 C712 1.461 . S
C709 C714 1.350 . S
C709 N717 1.427 . S
C710 H701 0.930 . S
C710 C708 1.379 . S
C710 C711 1.367 . S
C711 C710 1.367 . S
C711 C713 1.433 . S
C712 C708 1.349 1_564 S
C712 C709 1.461 . S
C712 N716 1.429 1_554 S
C713 H703 0.929 . S
C713 C711 1.433 . S
C713 N716 1.384 1_545 S
C714 H705 0.929 . S
C714 C706 1.378 . S
C714 C709 1.350 . S
C715 H702 0.929 . S
C715 C707 1.433 . S
C715 N717 1.384 . S
N716 C712 1.429 1_556 S
N716 C713 1.384 1_565 S
N717 C709 1.427 . S
N717 C715 1.384 . S
H718 C724 0.930 . S
H719 C728 0.930 . S
H720 C733 0.929 . S
H721 C731 0.929 . S
H722 C726 0.929 . S
H723 C732 0.929 1_554 S
C724 H718 0.930 . S
C724 C725 1.367 . S
C724 C732 1.378 . S
C725 C724 1.367 . S
C725 C733 1.433 . S
C726 H722 0.929 . S
C726 C728 1.378 1_556 S
C726 C730 1.354 1_455 S
C727 C730 1.471 . S
C727 C732 1.350 . S
C727 N735 1.427 . S
C728 H719 0.930 . S
C728 C726 1.378 1_554 S
C728 C729 1.367 . S
C729 C728 1.367 . S
C729 C731 1.433 1_455 S
C730 C726 1.354 1_655 S
C730 C727 1.471 . S
C730 N734 1.414 1_556 S
C731 H721 0.929 . S
C731 C729 1.433 1_655 S
C731 N734 1.384 . S
C732 H723 0.929 1_556 S
C732 C724 1.378 . S
C732 C727 1.350 . S
C733 H720 0.929 . S
C733 C725 1.433 . S
C733 N735 1.384 . S
N734 C730 1.414 1_554 S
N734 C731 1.384 . S
N735 C727 1.427 . S
N735 C733 1.384 . S
C239 C15 2.151 . S
C243 C150 2.124 . S
C257 C179 2.125 . S
C261 C44 2.152 . S
C275 C208 2.127 . S
C279 C73 2.154 . S
C293 C102 2.155 . S
C297 C121 2.128 . S
C311 C131 2.157 . S
C315 C92 2.131 . S
C329 C160 2.155 . S
C333 C5 2.128 . S
C347 C189 2.155 . S
C351 C34 2.129 . S
C365 C218 2.156 . S
C369 C63 2.130 . S
C383 C8 1.186 . S
C387 C66 1.197 . S
C401 C95 1.179 . S
C405 C37 1.203 . S
C419 C124 1.183 . S
C423 C182 1.199 . S
C437 C153 1.197 . S
C441 C211 1.186 . S
C455 C10 2.056 . S
C459 C129 1.884 . S
C473 C158 1.896 . S
C477 C39 2.057 . S
C491 C68 2.044 . S
C495 C187 1.902 . S
C509 C216 1.899 . S
C513 C97 2.055 . S
C527 C126 2.043 . S
C531 C13 1.896 . S
C545 C155 2.043 . S
C549 C42 1.900 . S
C563 C71 1.888 . S
C567 C184 2.046 . S
C581 C100 1.884 . S
C585 C213 2.055 . S
C599 C3 0.885 . S
C603 C50 0.861 . S
C617 C79 0.862 . S
C621 C32 0.886 . S
C635 C108 0.872 . S
C639 C61 0.884 . S
C653 C21 0.867 . S
C657 C90 0.879 . S
C671 C224 0.872 . S
C675 C119 0.884 . S
C689 C137 0.872 . S
C693 C148 0.884 . S
C707 C177 0.875 . S
C711 C166 0.883 . S
C725 C206 0.882 . S
C729 C195 0.877 . S
