# Generated by pormake.
# Topology uml, (4)-cn, num edge types: 1
# Building blocks:
#     Node 0, Type 0, BuildingBlock: GALJAG_clean_sbu_0, # of connection points: 4
#     Node 1, Type 0, BuildingBlock: GALJAG_clean_sbu_0, # of connection points: 4
#     Node 2, Type 0, BuildingBlock: GALJAG_clean_sbu_0, # of connection points: 4
#     Node 3, Type 0, BuildingBlock: GALJAG_clean_sbu_0, # of connection points: 4
#     Node 4, Type 0, BuildingBlock: GALJAG_clean_sbu_0, # of connection points: 4
#     Node 5, Type 0, BuildingBlock: GALJAG_clean_sbu_0, # of connection points: 4
#     Node 6, Type 0, BuildingBlock: GALJAG_clean_sbu_0, # of connection points: 4
#     Node 7, Type 0, BuildingBlock: GALJAG_clean_sbu_0, # of connection points: 4
#     Node 8, Type 0, BuildingBlock: GALJAG_clean_sbu_0, # of connection points: 4
#     Node 9, Type 0, BuildingBlock: GALJAG_clean_sbu_0, # of connection points: 4
#     Node 10, Type 0, BuildingBlock: GALJAG_clean_sbu_0, # of connection points: 4
#     Node 11, Type 0, BuildingBlock: GALJAG_clean_sbu_0, # of connection points: 4
#     Node 12, Type 0, BuildingBlock: GALJAG_clean_sbu_0, # of connection points: 4
#     Node 13, Type 0, BuildingBlock: GALJAG_clean_sbu_0, # of connection points: 4
#     Node 14, Type 0, BuildingBlock: GALJAG_clean_sbu_0, # of connection points: 4
#     Node 15, Type 0, BuildingBlock: GALJAG_clean_sbu_0, # of connection points: 4
#     Node 16, Type 0, BuildingBlock: GALJAG_clean_sbu_0, # of connection points: 4
#     Node 17, Type 0, BuildingBlock: GALJAG_clean_sbu_0, # of connection points: 4
#     Node 18, Type 0, BuildingBlock: GALJAG_clean_sbu_0, # of connection points: 4
#     Node 19, Type 0, BuildingBlock: GALJAG_clean_sbu_0, # of connection points: 4
#     Node 20, Type 0, BuildingBlock: GALJAG_clean_sbu_0, # of connection points: 4
#     Node 21, Type 0, BuildingBlock: GALJAG_clean_sbu_0, # of connection points: 4
#     Node 22, Type 0, BuildingBlock: GALJAG_clean_sbu_0, # of connection points: 4
#     Node 23, Type 0, BuildingBlock: GALJAG_clean_sbu_0, # of connection points: 4
#     Node 24, Type 0, BuildingBlock: GALJAG_clean_sbu_0, # of connection points: 4
#     Node 25, Type 0, BuildingBlock: GALJAG_clean_sbu_0, # of connection points: 4
#     Node 26, Type 0, BuildingBlock: GALJAG_clean_sbu_0, # of connection points: 4
#     Node 27, Type 0, BuildingBlock: GALJAG_clean_sbu_0, # of connection points: 4
#     Node 28, Type 0, BuildingBlock: GALJAG_clean_sbu_0, # of connection points: 4
#     Node 29, Type 0, BuildingBlock: GALJAG_clean_sbu_0, # of connection points: 4
#     Node 30, Type 0, BuildingBlock: GALJAG_clean_sbu_0, # of connection points: 4
#     Node 31, Type 0, BuildingBlock: GALJAG_clean_sbu_0, # of connection points: 4
#     Node 32, Type 0, BuildingBlock: GALJAG_clean_sbu_0, # of connection points: 4
#     Node 33, Type 0, BuildingBlock: GALJAG_clean_sbu_0, # of connection points: 4
#     Node 34, Type 0, BuildingBlock: GALJAG_clean_sbu_0, # of connection points: 4
#     Node 35, Type 0, BuildingBlock: GALJAG_clean_sbu_0, # of connection points: 4
#     Edge 36, Type (0, 0), BuildingBlock: XUDNAN_clean_linker_2, # of connection points: 2
#     Edge 37, Type (0, 0), BuildingBlock: XUDNAN_clean_linker_2, # of connection points: 2
#     Edge 38, Type (0, 0), BuildingBlock: XUDNAN_clean_linker_2, # of connection points: 2
#     Edge 39, Type (0, 0), BuildingBlock: XUDNAN_clean_linker_2, # of connection points: 2
#     Edge 40, Type (0, 0), BuildingBlock: XUDNAN_clean_linker_2, # of connection points: 2
#     Edge 41, Type (0, 0), BuildingBlock: XUDNAN_clean_linker_2, # of connection points: 2
#     Edge 42, Type (0, 0), BuildingBlock: XUDNAN_clean_linker_2, # of connection points: 2
#     Edge 43, Type (0, 0), BuildingBlock: XUDNAN_clean_linker_2, # of connection points: 2
#     Edge 44, Type (0, 0), BuildingBlock: XUDNAN_clean_linker_2, # of connection points: 2
#     Edge 45, Type (0, 0), BuildingBlock: XUDNAN_clean_linker_2, # of connection points: 2
#     Edge 46, Type (0, 0), BuildingBlock: XUDNAN_clean_linker_2, # of connection points: 2
#     Edge 47, Type (0, 0), BuildingBlock: XUDNAN_clean_linker_2, # of connection points: 2
#     Edge 48, Type (0, 0), BuildingBlock: XUDNAN_clean_linker_2, # of connection points: 2
#     Edge 49, Type (0, 0), BuildingBlock: XUDNAN_clean_linker_2, # of connection points: 2
#     Edge 50, Type (0, 0), BuildingBlock: XUDNAN_clean_linker_2, # of connection points: 2
#     Edge 51, Type (0, 0), BuildingBlock: XUDNAN_clean_linker_2, # of connection points: 2
#     Edge 52, Type (0, 0), BuildingBlock: XUDNAN_clean_linker_2, # of connection points: 2
#     Edge 53, Type (0, 0), BuildingBlock: XUDNAN_clean_linker_2, # of connection points: 2
#     Edge 54, Type (0, 0), BuildingBlock: XUDNAN_clean_linker_2, # of connection points: 2
#     Edge 55, Type (0, 0), BuildingBlock: XUDNAN_clean_linker_2, # of connection points: 2
#     Edge 56, Type (0, 0), BuildingBlock: XUDNAN_clean_linker_2, # of connection points: 2
#     Edge 57, Type (0, 0), BuildingBlock: XUDNAN_clean_linker_2, # of connection points: 2
#     Edge 58, Type (0, 0), BuildingBlock: XUDNAN_clean_linker_2, # of connection points: 2
#     Edge 59, Type (0, 0), BuildingBlock: XUDNAN_clean_linker_2, # of connection points: 2
#     Edge 60, Type (0, 0), BuildingBlock: XUDNAN_clean_linker_2, # of connection points: 2
#     Edge 61, Type (0, 0), BuildingBlock: XUDNAN_clean_linker_2, # of connection points: 2
#     Edge 62, Type (0, 0), BuildingBlock: XUDNAN_clean_linker_2, # of connection points: 2
#     Edge 63, Type (0, 0), BuildingBlock: XUDNAN_clean_linker_2, # of connection points: 2
#     Edge 64, Type (0, 0), BuildingBlock: XUDNAN_clean_linker_2, # of connection points: 2
#     Edge 65, Type (0, 0), BuildingBlock: XUDNAN_clean_linker_2, # of connection points: 2
#     Edge 66, Type (0, 0), BuildingBlock: XUDNAN_clean_linker_2, # of connection points: 2
#     Edge 67, Type (0, 0), BuildingBlock: XUDNAN_clean_linker_2, # of connection points: 2
#     Edge 68, Type (0, 0), BuildingBlock: XUDNAN_clean_linker_2, # of connection points: 2
#     Edge 69, Type (0, 0), BuildingBlock: XUDNAN_clean_linker_2, # of connection points: 2
#     Edge 70, Type (0, 0), BuildingBlock: XUDNAN_clean_linker_2, # of connection points: 2
#     Edge 71, Type (0, 0), BuildingBlock: XUDNAN_clean_linker_2, # of connection points: 2
#     Edge 72, Type (0, 0), BuildingBlock: XUDNAN_clean_linker_2, # of connection points: 2
#     Edge 73, Type (0, 0), BuildingBlock: XUDNAN_clean_linker_2, # of connection points: 2
#     Edge 74, Type (0, 0), BuildingBlock: XUDNAN_clean_linker_2, # of connection points: 2
#     Edge 75, Type (0, 0), BuildingBlock: XUDNAN_clean_linker_2, # of connection points: 2
#     Edge 76, Type (0, 0), BuildingBlock: XUDNAN_clean_linker_2, # of connection points: 2
#     Edge 77, Type (0, 0), BuildingBlock: XUDNAN_clean_linker_2, # of connection points: 2
#     Edge 78, Type (0, 0), BuildingBlock: XUDNAN_clean_linker_2, # of connection points: 2
#     Edge 79, Type (0, 0), BuildingBlock: XUDNAN_clean_linker_2, # of connection points: 2
#     Edge 80, Type (0, 0), BuildingBlock: XUDNAN_clean_linker_2, # of connection points: 2
#     Edge 81, Type (0, 0), BuildingBlock: XUDNAN_clean_linker_2, # of connection points: 2
#     Edge 82, Type (0, 0), BuildingBlock: XUDNAN_clean_linker_2, # of connection points: 2
#     Edge 83, Type (0, 0), BuildingBlock: XUDNAN_clean_linker_2, # of connection points: 2
#     Edge 84, Type (0, 0), BuildingBlock: XUDNAN_clean_linker_2, # of connection points: 2
#     Edge 85, Type (0, 0), BuildingBlock: XUDNAN_clean_linker_2, # of connection points: 2
#     Edge 86, Type (0, 0), BuildingBlock: XUDNAN_clean_linker_2, # of connection points: 2
#     Edge 87, Type (0, 0), BuildingBlock: XUDNAN_clean_linker_2, # of connection points: 2
#     Edge 88, Type (0, 0), BuildingBlock: XUDNAN_clean_linker_2, # of connection points: 2
#     Edge 89, Type (0, 0), BuildingBlock: XUDNAN_clean_linker_2, # of connection points: 2
#     Edge 90, Type (0, 0), BuildingBlock: XUDNAN_clean_linker_2, # of connection points: 2
#     Edge 91, Type (0, 0), BuildingBlock: XUDNAN_clean_linker_2, # of connection points: 2
#     Edge 92, Type (0, 0), BuildingBlock: XUDNAN_clean_linker_2, # of connection points: 2
#     Edge 93, Type (0, 0), BuildingBlock: XUDNAN_clean_linker_2, # of connection points: 2
#     Edge 94, Type (0, 0), BuildingBlock: XUDNAN_clean_linker_2, # of connection points: 2
#     Edge 95, Type (0, 0), BuildingBlock: XUDNAN_clean_linker_2, # of connection points: 2
#     Edge 96, Type (0, 0), BuildingBlock: XUDNAN_clean_linker_2, # of connection points: 2
#     Edge 97, Type (0, 0), BuildingBlock: XUDNAN_clean_linker_2, # of connection points: 2
#     Edge 98, Type (0, 0), BuildingBlock: XUDNAN_clean_linker_2, # of connection points: 2
#     Edge 99, Type (0, 0), BuildingBlock: XUDNAN_clean_linker_2, # of connection points: 2
#     Edge 100, Type (0, 0), BuildingBlock: XUDNAN_clean_linker_2, # of connection points: 2
#     Edge 101, Type (0, 0), BuildingBlock: XUDNAN_clean_linker_2, # of connection points: 2
#     Edge 102, Type (0, 0), BuildingBlock: XUDNAN_clean_linker_2, # of connection points: 2
#     Edge 103, Type (0, 0), BuildingBlock: XUDNAN_clean_linker_2, # of connection points: 2
#     Edge 104, Type (0, 0), BuildingBlock: XUDNAN_clean_linker_2, # of connection points: 2
#     Edge 105, Type (0, 0), BuildingBlock: XUDNAN_clean_linker_2, # of connection points: 2
#     Edge 106, Type (0, 0), BuildingBlock: XUDNAN_clean_linker_2, # of connection points: 2
#     Edge 107, Type (0, 0), BuildingBlock: XUDNAN_clean_linker_2, # of connection points: 2
# Relax obj value: 0.085
# Max RMSD: 0.314
# Mean RMSD: 0.220
data_MOF--net-uml--node1-GALJAG_clean_sbu_0--edge1-XUDNAN_clean_linker_2
_symmetry_space_group_name_H-M    P1
_symmetry_Int_Tables_number       1
_symmetry_cell_setting            triclinic
loop_
_symmetry_equiv_pos_as_xyz
'x, y, z'
_cell_length_a     94.311546
_cell_length_b     94.125998
_cell_length_c     28.540224
_cell_angle_alpha  90.04446
_cell_angle_beta   90.033164
_cell_angle_gamma 116.26483
loop_
_atom_site_label
_atom_site_type_symbol
_atom_site_fract_x
_atom_site_fract_y
_atom_site_fract_z
_atom_type_partial_charge
In0 In 0.34939 0.08827 0.17113 0.0
O1 O 0.33775 0.06905 0.22676 0.0
O2 O 0.35135 0.09281 0.24962 0.0
C3 C 0.33543 0.07402 0.09102 0.0
C4 C 0.34115 0.1122 0.16654 0.0
C5 C 0.37687 0.08727 0.15261 0.0
O6 O 0.32892 0.06906 0.13036 0.0
O7 O 0.34855 0.08617 0.09256 0.0
O8 O 0.37626 0.10036 0.15705 0.0
O9 O 0.36409 0.07519 0.16079 0.0
C10 C 0.34283 0.07858 0.26077 0.0
O11 O 0.33119 0.0978 0.1662 0.0
O12 O 0.35545 0.11463 0.16937 0.0
In13 In 0.8977 0.25076 0.13409 0.0
O14 O 0.87233 0.23127 0.14507 0.0
O15 O 0.89001 0.22451 0.12319 0.0
C16 C 0.89623 0.27855 0.13074 0.0
C17 C 0.91266 0.25247 0.21615 0.0
C18 C 0.90779 0.25476 0.04477 0.0
O19 O 0.88383 0.26564 0.1355 0.0
O20 O 0.90903 0.27732 0.13043 0.0
O21 O 0.91608 0.25333 0.07769 0.0
O22 O 0.8944 0.25346 0.05679 0.0
C23 C 0.87576 0.22012 0.1343 0.0
O24 O 0.91805 0.25056 0.17737 0.0
O25 O 0.89995 0.25381 0.21333 0.0
In26 In 0.73652 0.61833 0.15097 0.0
O27 O 0.75807 0.6134 0.16197 0.0
O28 O 0.76182 0.63702 0.14712 0.0
C29 C 0.70929 0.59191 0.14641 0.0
C30 C 0.73228 0.62999 0.23292 0.0
C31 C 0.73435 0.62327 0.05937 0.0
O32 O 0.72231 0.5912 0.1522 0.0
O33 O 0.71018 0.60569 0.14544 0.0
O34 O 0.73414 0.63297 0.08996 0.0
O35 O 0.73622 0.61169 0.07511 0.0
C36 C 0.76791 0.62776 0.15563 0.0
O37 O 0.73213 0.63643 0.19405 0.0
O38 O 0.73441 0.61766 0.23009 0.0
In39 In 0.08948 0.34212 0.3494 0.0
O40 O 0.1153 0.34706 0.33874 0.0
O41 O 0.09887 0.32403 0.3608 0.0
C42 C 0.08922 0.37042 0.35143 0.0
C43 C 0.07513 0.3295 0.26772 0.0
C44 C 0.08004 0.33731 0.43916 0.0
O45 O 0.10203 0.36925 0.34742 0.0
O46 O 0.07681 0.35744 0.35145 0.0
O47 O 0.0717 0.32818 0.40689 0.0
O48 O 0.0931 0.3482 0.42619 0.0
C49 C 0.11293 0.33319 0.34997 0.0
O50 O 0.07011 0.32261 0.30649 0.0
O51 O 0.08707 0.34279 0.27046 0.0
In52 In 0.60646 0.74598 0.34887 0.0
O53 O 0.62259 0.74323 0.29387 0.0
O54 O 0.59901 0.73898 0.27432 0.0
C55 C 0.61298 0.74832 0.4399 0.0
C56 C 0.61416 0.77667 0.33612 0.0
C57 C 0.58691 0.71617 0.36938 0.0
O58 O 0.62269 0.74765 0.40995 0.0
O59 O 0.60074 0.7488 0.42318 0.0
O60 O 0.58142 0.72595 0.35863 0.0
O61 O 0.6018 0.72143 0.3669 0.0
C62 C 0.61207 0.73928 0.26208 0.0
O63 O 0.59973 0.76639 0.3377 0.0
O64 O 0.6242 0.77123 0.34054 0.0
In65 In 0.24765 0.8887 0.33755 0.0
O66 O 0.2442 0.90735 0.29349 0.0
O67 O 0.24953 0.89033 0.25809 0.0
C68 C 0.24666 0.89275 0.43094 0.0
C69 C 0.2197 0.86296 0.33186 0.0
C70 C 0.27844 0.89577 0.34264 0.0
O71 O 0.24586 0.9027 0.40222 0.0
O72 O 0.24747 0.88099 0.41216 0.0
O73 O 0.26812 0.88176 0.33392 0.0
O74 O 0.27317 0.90597 0.34568 0.0
C75 C 0.24644 0.90206 0.25467 0.0
O76 O 0.23268 0.86216 0.32647 0.0
O77 O 0.22096 0.87671 0.33922 0.0
In78 In 0.69496 0.92186 0.8382 0.0
O79 O 0.7139 0.93374 0.78143 0.0
O80 O 0.68995 0.92618 0.76283 0.0
C81 C 0.71573 0.92998 0.91027 0.0
C82 C 0.68245 0.89016 0.82992 0.0
C83 C 0.67298 0.92934 0.8765 0.0
O84 O 0.71009 0.93902 0.89528 0.0
O85 O 0.71146 0.91729 0.88758 0.0
O86 O 0.67201 0.91554 0.87737 0.0
O87 O 0.68516 0.93955 0.8563 0.0
C88 C 0.70411 0.93224 0.74952 0.0
O89 O 0.67407 0.89753 0.83063 0.0
O90 O 0.69715 0.89882 0.83229 0.0
In91 In 0.10745 0.74412 0.84595 0.0
O92 O 0.13128 0.76254 0.8172 0.0
O93 O 0.11736 0.77057 0.85808 0.0
C94 C 0.11077 0.71719 0.8543 0.0
C95 C 0.09166 0.74287 0.76627 0.0
C96 C 0.09575 0.74202 0.93274 0.0
O97 O 0.12189 0.73049 0.86516 0.0
O98 O 0.09874 0.71782 0.83731 0.0
O99 O 0.08675 0.73668 0.89755 0.0
O100 O 0.11034 0.74864 0.92365 0.0
C101 C 0.12974 0.77417 0.83441 0.0
O102 O 0.08736 0.74596 0.80543 0.0
O103 O 0.10363 0.74018 0.76782 0.0
In104 In 0.24743 0.37518 0.82866 0.0
O105 O 0.22742 0.38278 0.83365 0.0
O106 O 0.22166 0.35857 0.81904 0.0
C107 C 0.27613 0.39692 0.85488 0.0
C108 C 0.253 0.37288 0.73757 0.0
C109 C 0.24519 0.35964 0.90843 0.0
O110 O 0.26487 0.40073 0.8493 0.0
O111 O 0.27289 0.38273 0.84487 0.0
O112 O 0.24649 0.35391 0.86927 0.0
O113 O 0.24461 0.37279 0.90653 0.0
C114 C 0.2167 0.36882 0.82632 0.0
O115 O 0.25064 0.3618 0.76632 0.0
O116 O 0.25255 0.38503 0.75498 0.0
In117 In 0.90679 0.6655 0.66787 0.0
O118 O 0.87967 0.6563 0.67093 0.0
O119 O 0.89444 0.68112 0.67024 0.0
C120 C 0.91221 0.64023 0.65188 0.0
C121 C 0.91925 0.67573 0.75248 0.0
C122 C 0.9172 0.67968 0.58557 0.0
O123 O 0.89828 0.63887 0.65571 0.0
O124 O 0.92305 0.65404 0.65853 0.0
O125 O 0.92283 0.68668 0.62376 0.0
O126 O 0.90664 0.66561 0.58918 0.0
C127 C 0.88058 0.67014 0.67077 0.0
O128 O 0.92557 0.68301 0.71531 0.0
O129 O 0.90689 0.66289 0.74686 0.0
In130 In 0.3798 0.24916 0.67902 0.0
O131 O 0.38678 0.2287 0.67671 0.0
O132 O 0.36266 0.22358 0.68987 0.0
C133 C 0.40187 0.27692 0.64681 0.0
C134 C 0.37876 0.25521 0.77007 0.0
C135 C 0.36246 0.24726 0.60378 0.0
O136 O 0.40487 0.26504 0.64989 0.0
O137 O 0.38854 0.27472 0.66228 0.0
O138 O 0.36032 0.25289 0.64202 0.0
O139 O 0.37274 0.2421 0.60452 0.0
C140 C 0.37272 0.21827 0.68433 0.0
O141 O 0.36709 0.25202 0.74302 0.0
O142 O 0.3909 0.25532 0.751 0.0
In143 In 0.74818 0.13508 0.66741 0.0
O144 O 0.74701 0.11942 0.72976 0.0
O145 O 0.74491 0.14079 0.74252 0.0
C146 C 0.74833 0.11989 0.58809 0.0
C147 C 0.77831 0.15762 0.66475 0.0
C148 C 0.71891 0.13192 0.6508 0.0
O149 O 0.74867 0.11405 0.62787 0.0
O150 O 0.74814 0.1332 0.58904 0.0
O151 O 0.73097 0.14499 0.64356 0.0
O152 O 0.7218 0.12108 0.66765 0.0
C153 C 0.74506 0.12843 0.75939 0.0
O154 O 0.76674 0.16103 0.66182 0.0
O155 O 0.77454 0.14308 0.66988 0.0
In156 In 0.01306 0.42527 0.50554 0.0
O157 O 0.00252 0.406 0.56141 0.0
O158 O 0.01273 0.43016 0.58329 0.0
C159 C 0.00206 0.40854 0.42595 0.0
C160 C 0.00192 0.44698 0.49781 0.0
C161 C 0.04297 0.42913 0.49739 0.0
O162 O 0.99481 0.40392 0.46443 0.0
O163 O 0.01449 0.42137 0.42815 0.0
O164 O 0.03891 0.43948 0.48289 0.0
O165 O 0.03224 0.41764 0.51855 0.0
C166 C 0.00584 0.41574 0.59494 0.0
O167 O 0.01643 0.45082 0.50451 0.0
O168 O 0.99317 0.43227 0.49513 0.0
In169 In 0.56205 0.58413 0.48353 0.0
O170 O 0.58263 0.58632 0.52962 0.0
O171 O 0.56191 0.58521 0.56302 0.0
C172 C 0.57324 0.58797 0.39549 0.0
C173 C 0.54438 0.55247 0.48466 0.0
C174 C 0.55686 0.61003 0.4813 0.0
O175 O 0.58245 0.59204 0.43047 0.0
O176 O 0.55872 0.58191 0.4054 0.0
O177 O 0.5456 0.59627 0.47629 0.0
O178 O 0.57016 0.61037 0.48938 0.0
C179 C 0.57561 0.58608 0.56762 0.0
O180 O 0.53816 0.56187 0.49008 0.0
O181 O 0.55916 0.55913 0.47887 0.0
In182 In 0.41433 0.9674 0.49029 0.0
O183 O 0.41396 0.98274 0.55175 0.0
O184 O 0.40998 0.95889 0.56513 0.0
C185 C 0.41264 0.98029 0.40894 0.0
C186 C 0.44501 0.97361 0.48913 0.0
C187 C 0.38554 0.94417 0.47238 0.0
O188 O 0.41234 0.98696 0.44731 0.0
O189 O 0.41442 0.9678 0.41209 0.0
O190 O 0.39769 0.94161 0.47062 0.0
O191 O 0.38809 0.95789 0.48592 0.0
C192 C 0.41119 0.97185 0.58155 0.0
O193 O 0.43413 0.95949 0.48843 0.0
O194 O 0.44027 0.98421 0.49032 0.0
In195 In 0.74887 0.67037 0.64969 0.0
O196 O 0.73664 0.65263 0.5903 0.0
O197 O 0.74614 0.67724 0.5752 0.0
C198 C 0.74031 0.65421 0.73066 0.0
C199 C 0.77917 0.67517 0.64463 0.0
C200 C 0.73758 0.69071 0.67625 0.0
O201 O 0.7341 0.64781 0.69206 0.0
O202 O 0.75077 0.66833 0.72767 0.0
O203 O 0.75215 0.69509 0.66894 0.0
O204 O 0.72872 0.67626 0.66784 0.0
C205 C 0.73911 0.66325 0.55998 0.0
O206 O 0.77539 0.68647 0.64664 0.0
O207 O 0.76767 0.66156 0.64404 0.0
In208 In 0.30317 0.06999 0.67805 0.0
O209 O 0.30538 0.09541 0.67719 0.0
O210 O 0.3259 0.09183 0.68991 0.0
C211 C 0.27361 0.04655 0.67549 0.0
C212 C 0.31222 0.06694 0.59144 0.0
C213 C 0.30714 0.06207 0.76513 0.0
O214 O 0.27617 0.06067 0.68519 0.0
O215 O 0.28573 0.04491 0.66398 0.0
O216 O 0.31607 0.06193 0.73207 0.0
O217 O 0.29683 0.06659 0.75418 0.0
C218 C 0.32019 0.1016 0.68493 0.0
O219 O 0.31555 0.06072 0.62657 0.0
O220 O 0.30427 0.0745 0.60021 0.0
In221 In 0.92565 0.23238 0.63697 0.0
O222 O 0.90148 0.21019 0.63936 0.0
O223 O 0.90218 0.23303 0.63239 0.0
C224 C 0.94987 0.226 0.658 0.0
C225 C 0.9312 0.23948 0.54566 0.0
C226 C 0.92924 0.24775 0.7184 0.0
O227 O 0.93569 0.21532 0.65981 0.0
O228 O 0.95164 0.23941 0.64392 0.0
O229 O 0.93126 0.25496 0.6796 0.0
O230 O 0.92532 0.23312 0.71547 0.0
C231 C 0.89378 0.2183 0.63588 0.0
O232 O 0.93148 0.24957 0.57552 0.0
O233 O 0.92838 0.22601 0.562 0.0
In234 In 0.33543 0.24124 0.18101 0.0
O235 O 0.35758 0.25361 0.13702 0.0
O236 O 0.33509 0.24422 0.10264 0.0
C237 C 0.34511 0.2462 0.26993 0.0
C238 C 0.33035 0.21112 0.17058 0.0
C239 C 0.31896 0.25798 0.19222 0.0
O240 O 0.35334 0.25519 0.23742 0.0
O241 O 0.33253 0.23455 0.25719 0.0
O242 O 0.31194 0.24295 0.19111 0.0
O243 O 0.33361 0.26398 0.1845 0.0
C244 C 0.34999 0.25137 0.09893 0.0
O245 O 0.31909 0.215 0.16713 0.0
O246 O 0.34376 0.22239 0.17908 0.0
In247 In 0.75645 0.0907 0.16752 0.0
O248 O 0.7421 0.10023 0.12467 0.0
O249 O 0.75532 0.09007 0.08863 0.0
C250 C 0.75289 0.09244 0.25993 0.0
C251 C 0.78556 0.11479 0.161 0.0
C252 C 0.74058 0.05906 0.16837 0.0
O253 O 0.7459 0.09746 0.231 0.0
O254 O 0.76164 0.08692 0.24194 0.0
O255 O 0.75558 0.06606 0.166 0.0
O256 O 0.73384 0.06806 0.16793 0.0
C257 C 0.74643 0.0969 0.08575 0.0
O258 O 0.78307 0.10061 0.15256 0.0
O259 O 0.77351 0.11644 0.17314 0.0
In260 In 0.91457 0.70625 0.16717 0.0
O261 O 0.9201 0.69461 0.10713 0.0
O262 O 0.91732 0.71598 0.09432 0.0
C263 C 0.91335 0.7043 0.25814 0.0
C264 C 0.88393 0.68701 0.16083 0.0
C265 C 0.94454 0.72526 0.18406 0.0
O266 O 0.91548 0.69427 0.23268 0.0
O267 O 0.91109 0.71507 0.23693 0.0
O268 O 0.93467 0.73091 0.17637 0.0
O269 O 0.93919 0.71027 0.18062 0.0
C270 C 0.92024 0.70492 0.07809 0.0
O271 O 0.88896 0.70205 0.15959 0.0
O272 O 0.89447 0.68211 0.16449 0.0
In273 In 0.59042 0.99334 0.01614 0.0
O274 O 0.60321 0.01116 0.0745 0.0
O275 O 0.59137 0.98659 0.09163 0.0
C276 C 0.59819 0.00836 0.93373 0.0
C277 C 0.56052 0.98995 0.01893 0.0
C278 C 0.6043 0.97455 0.99722 0.0
O279 O 0.60365 0.01563 0.97192 0.0
O280 O 0.58902 0.99379 0.93768 0.0
O281 O 0.5895 0.96897 0.00371 0.0
O282 O 0.61191 0.98941 0.00135 0.0
C283 C 0.59949 0.00059 0.10575 0.0
O284 O 0.56347 0.97812 0.0149 0.0
O285 O 0.57253 0.00311 0.02265 0.0
In286 In 0.03673 0.58337 0.98491 0.0
O287 O 0.04439 0.56408 0.0017 0.0
O288 O 0.02013 0.55722 0.98489 0.0
C289 C 0.06158 0.61176 0.97491 0.0
C290 C 0.02478 0.58747 0.06642 0.0
C291 C 0.03052 0.58198 0.89291 0.0
O292 O 0.06358 0.59972 0.9861 0.0
O293 O 0.04737 0.60945 0.97208 0.0
O294 O 0.02068 0.58216 0.923 0.0
O295 O 0.04283 0.58178 0.90966 0.0
C296 C 0.03057 0.55292 0.99655 0.0
O297 O 0.01919 0.58905 0.02746 0.0
O298 O 0.03627 0.58405 0.06395 0.0
In299 In 0.41211 0.43875 0.98452 0.0
O300 O 0.41538 0.4204 0.02983 0.0
O301 O 0.41043 0.4377 0.06453 0.0
C302 C 0.41299 0.42775 0.89742 0.0
C303 C 0.4406 0.464 0.98959 0.0
C304 C 0.3832 0.43802 0.97679 0.0
O305 O 0.40669 0.41852 0.93143 0.0
O306 O 0.419 0.44225 0.90763 0.0
O307 O 0.39572 0.45084 0.97368 0.0
O308 O 0.38541 0.42604 0.98562 0.0
C309 C 0.41339 0.42591 0.06835 0.0
O310 O 0.42784 0.46538 0.99146 0.0
O311 O 0.43887 0.44995 0.98589 0.0
In312 In 0.65531 0.74845 0.85142 0.0
O313 O 0.6365 0.73128 0.90092 0.0
O314 O 0.65765 0.74881 0.93097 0.0
C315 C 0.64131 0.74144 0.76667 0.0
C316 C 0.65728 0.77779 0.85481 0.0
C317 C 0.67807 0.73929 0.83528 0.0
O318 O 0.63375 0.73555 0.80398 0.0
O319 O 0.6558 0.75044 0.77234 0.0
O320 O 0.68114 0.75353 0.84384 0.0
O321 O 0.6636 0.72962 0.83731 0.0
C322 C 0.64417 0.73749 0.93782 0.0
O323 O 0.66945 0.77539 0.85495 0.0
O324 O 0.64433 0.76544 0.85416 0.0
In325 In 0.21971 0.91709 0.83396 0.0
O326 O 0.19917 0.89916 0.79024 0.0
O327 O 0.19981 0.89391 0.86181 0.0
C328 C 0.22008 0.94514 0.81342 0.0
C329 C 0.22943 0.92083 0.92471 0.0
C330 C 0.23717 0.91422 0.76221 0.0
O331 O 0.20712 0.93281 0.81879 0.0
O332 O 0.23236 0.94329 0.82074 0.0
O333 O 0.23496 0.90619 0.79942 0.0
O334 O 0.23166 0.92415 0.76338 0.0
C335 C 0.19326 0.88924 0.82268 0.0
O336 O 0.23555 0.91557 0.89386 0.0
O337 O 0.21892 0.92447 0.90941 0.0
In338 In 0.06872 0.30011 0.84622 0.0
O339 O 0.09398 0.30184 0.84283 0.0
O340 O 0.09097 0.32285 0.85154 0.0
C341 C 0.04531 0.27156 0.82588 0.0
C342 C 0.06298 0.30109 0.93764 0.0
C343 C 0.06349 0.31173 0.7662 0.0
O344 O 0.05973 0.27448 0.82058 0.0
O345 O 0.04304 0.28271 0.84354 0.0
O346 O 0.06143 0.31683 0.80551 0.0
O347 O 0.06828 0.30117 0.76791 0.0
C348 C 0.10048 0.31683 0.84726 0.0
O349 O 0.06144 0.31046 0.90851 0.0
O350 O 0.06733 0.29124 0.92054 0.0
In351 In 0.44067 0.01427 0.99591 0.0
O352 O 0.42254 0.9956 0.94911 0.0
O353 O 0.44108 0.01556 0.91628 0.0
C354 C 0.42814 0.00534 0.08148 0.0
C355 C 0.46452 0.00588 0.99787 0.0
C356 C 0.43737 0.04118 0.00018 0.0
O357 O 0.42068 0.99857 0.04477 0.0
O358 O 0.44192 0.01614 0.07473 0.0
O359 O 0.45064 0.04123 0.00767 0.0
O360 O 0.42655 0.02799 0.9876 0.0
C361 C 0.42882 0.00256 0.91136 0.0
O362 O 0.46709 0.02014 0.99136 0.0
O363 O 0.45019 0.99626 0.00313 0.0
In364 In 0.97053 0.40548 0.01686 0.0
O365 O 0.98347 0.39715 0.96402 0.0
O366 O 0.97244 0.41133 0.93972 0.0
C367 C 0.97573 0.39583 0.10067 0.0
C368 C 0.98476 0.43714 0.02812 0.0
C369 C 0.94086 0.38225 0.0127 0.0
O370 O 0.98514 0.39795 0.06678 0.0
O371 O 0.96427 0.39891 0.09222 0.0
O372 O 0.94371 0.39584 0.02862 0.0
O373 O 0.9527 0.38112 0.99597 0.0
C374 C 0.98039 0.4039 0.92977 0.0
O375 O 0.97035 0.42986 0.01604 0.0
O376 O 0.99152 0.42838 0.03535 0.0
In377 In 0.5845 0.55787 0.9856 0.0
O378 O 0.56254 0.5337 0.98208 0.0
O379 O 0.55965 0.55485 0.97593 0.0
C380 C 0.60823 0.55072 0.00944 0.0
C381 C 0.58997 0.56736 0.89589 0.0
C382 C 0.58617 0.57438 0.06413 0.0
O383 O 0.59393 0.54113 0.01706 0.0
O384 O 0.61023 0.56328 0.98869 0.0
O385 O 0.59448 0.58106 0.02868 0.0
O386 O 0.57716 0.55985 0.05922 0.0
C387 C 0.55311 0.53992 0.9775 0.0
O388 O 0.58747 0.57553 0.92712 0.0
O389 O 0.58979 0.55456 0.90999 0.0
In390 In 0.98239 0.56902 0.48245 0.0
O391 O 0.96844 0.54204 0.48013 0.0
O392 O 0.99367 0.55235 0.4815 0.0
C393 C 0.96038 0.57898 0.50178 0.0
C394 C 0.99103 0.57872 0.39345 0.0
C395 C 0.9981 0.57732 0.56447 0.0
O396 O 0.95671 0.56441 0.49656 0.0
O397 O 0.97474 0.58819 0.4945 0.0
O398 O 0.00512 0.58194 0.52559 0.0
O399 O 0.98341 0.56873 0.5615 0.0
C400 C 0.98078 0.53987 0.4806 0.0
O401 O 0.99778 0.58744 0.4282 0.0
O402 O 0.97999 0.56539 0.40358 0.0
In403 In 0.44393 0.41077 0.48509 0.0
O404 O 0.42862 0.41358 0.42618 0.0
O405 O 0.44451 0.4039 0.4091 0.0
C406 C 0.43077 0.41359 0.56631 0.0
C407 C 0.46909 0.43939 0.48014 0.0
C408 C 0.44211 0.38207 0.50652 0.0
O409 O 0.42249 0.40772 0.53005 0.0
O410 O 0.44542 0.4183 0.56092 0.0
O411 O 0.4553 0.39426 0.50407 0.0
O412 O 0.43028 0.38447 0.49701 0.0
C413 C 0.43429 0.4081 0.39475 0.0
O414 O 0.47059 0.42669 0.48335 0.0
O415 O 0.45499 0.43752 0.47877 0.0
In416 In 0.59266 0.03902 0.5135 0.0
O417 O 0.56794 0.03764 0.50043 0.0
O418 O 0.57024 0.0164 0.5134 0.0
C419 C 0.61681 0.0677 0.52348 0.0
C420 C 0.60103 0.03063 0.43233 0.0
C421 C 0.59479 0.03466 0.60509 0.0
O422 O 0.6031 0.0663 0.51347 0.0
O423 O 0.61813 0.05492 0.52502 0.0
O424 O 0.59785 0.02651 0.57485 0.0
O425 O 0.58996 0.04424 0.58893 0.0
C426 C 0.56114 0.02265 0.50464 0.0
O427 O 0.60173 0.02435 0.47097 0.0
O428 O 0.59632 0.04128 0.435 0.0
In429 In 0.24026 0.32501 0.32985 0.0
O430 O 0.25306 0.34781 0.37163 0.0
O431 O 0.24229 0.32575 0.40853 0.0
C432 C 0.24239 0.32957 0.23738 0.0
C433 C 0.21019 0.31988 0.33772 0.0
C434 C 0.25971 0.31144 0.32592 0.0
O435 O 0.24852 0.34113 0.26575 0.0
O436 O 0.23512 0.31608 0.25599 0.0
O437 O 0.24489 0.30308 0.33039 0.0
O438 O 0.26433 0.32626 0.32615 0.0
C439 C 0.24996 0.34068 0.41077 0.0
O440 O 0.21418 0.30886 0.34586 0.0
O441 O 0.22132 0.33299 0.32583 0.0
In442 In 0.69612 0.92273 0.3169 0.0
O443 O 0.69098 0.92636 0.39198 0.0
O444 O 0.71302 0.92595 0.37787 0.0
C445 C 0.71091 0.9231 0.23697 0.0
C446 C 0.67334 0.89253 0.31742 0.0
C447 C 0.69874 0.95152 0.29519 0.0
O448 O 0.69749 0.92295 0.23894 0.0
O449 O 0.71683 0.92203 0.27597 0.0
O450 O 0.71014 0.9491 0.30957 0.0
O451 O 0.68543 0.93938 0.29457 0.0
C452 C 0.7039 0.92742 0.408 0.0
O453 O 0.68794 0.89625 0.31959 0.0
O454 O 0.67004 0.90418 0.31486 0.0
In455 In 0.0775 0.76462 0.34755 0.0
O456 O 0.09858 0.78939 0.34714 0.0
O457 O 0.10265 0.76896 0.35731 0.0
C458 C 0.04996 0.76436 0.32325 0.0
C459 C 0.07255 0.75688 0.43845 0.0
C460 C 0.07932 0.75164 0.26591 0.0
O461 O 0.06249 0.77734 0.32583 0.0
O462 O 0.05154 0.75218 0.33463 0.0
O463 O 0.07366 0.74311 0.30195 0.0
O464 O 0.08407 0.76633 0.27178 0.0
C465 C 0.10855 0.78384 0.35291 0.0
O466 O 0.07514 0.74822 0.40895 0.0
O467 O 0.07234 0.76924 0.42185 0.0
H468 H 0.31909 0.08855 0.52158 0.0
H469 H 0.31684 0.04259 0.55363 0.0
H470 H 0.32432 0.04024 0.47166 0.0
H471 H 0.30407 0.08038 0.40497 0.0
H472 H 0.31741 0.09961 0.38272 0.0
H473 H 0.31156 0.09737 0.44334 0.0
H474 H 0.34099 0.10984 0.46875 0.0
H475 H 0.34694 0.11216 0.40819 0.0
H476 H 0.35363 0.10143 0.44758 0.0
H477 H 0.33027 0.04241 0.38413 0.0
H478 H 0.33735 0.05026 0.30119 0.0
H479 H 0.33827 0.09587 0.33007 0.0
C480 C 0.32017 0.07799 0.51126 0.0
C481 C 0.31727 0.06566 0.54348 0.0
C482 C 0.31903 0.05213 0.5292 0.0
C483 C 0.32321 0.05069 0.48279 0.0
C484 C 0.3259 0.06305 0.45167 0.0
C485 C 0.32471 0.07656 0.46561 0.0
C486 C 0.32881 0.08843 0.42615 0.0
C487 C 0.31462 0.09163 0.41356 0.0
C488 C 0.34347 0.10387 0.43841 0.0
C489 C 0.33233 0.07945 0.38756 0.0
C490 C 0.33036 0.06473 0.40263 0.0
C491 C 0.33208 0.054 0.37217 0.0
C492 C 0.33605 0.05851 0.32524 0.0
C493 C 0.33856 0.07371 0.30977 0.0
C494 C 0.33671 0.08428 0.34139 0.0
H495 H 0.91952 0.25639 0.49445 0.0
H496 H 0.94605 0.22895 0.48278 0.0
H497 H 0.94691 0.23212 0.39655 0.0
H498 H 0.89486 0.23832 0.39928 0.0
H499 H 0.8933 0.25577 0.37959 0.0
H500 H 0.89712 0.25375 0.44036 0.0
H501 H 0.92237 0.28051 0.43726 0.0
H502 H 0.9186 0.28264 0.37637 0.0
H503 H 0.93731 0.28344 0.39389 0.0
H504 H 0.94349 0.23692 0.31152 0.0
H505 H 0.93381 0.2406 0.23406 0.0
H506 H 0.90749 0.26285 0.30109 0.0
C507 C 0.92589 0.25147 0.47369 0.0
C508 C 0.93302 0.24272 0.49498 0.0
C509 C 0.94071 0.23586 0.46688 0.0
C510 C 0.94129 0.23765 0.41801 0.0
C511 C 0.9339 0.24612 0.39784 0.0
C512 C 0.9262 0.25278 0.42477 0.0
C513 C 0.91755 0.25959 0.39425 0.0
C514 C 0.89965 0.25136 0.40395 0.0
C515 C 0.92437 0.27762 0.40084 0.0
C516 C 0.92134 0.25546 0.34604 0.0
C517 C 0.93109 0.24803 0.34882 0.0
C518 C 0.93591 0.2428 0.3089 0.0
C519 C 0.93039 0.24496 0.26507 0.0
C520 C 0.9199 0.25198 0.26167 0.0
C521 C 0.91552 0.25746 0.30269 0.0
H522 H 0.73389 0.6362 0.51159 0.0
H523 H 0.73611 0.68294 0.49507 0.0
H524 H 0.73223 0.67854 0.40972 0.0
H525 H 0.7563 0.63816 0.41217 0.0
H526 H 0.74536 0.61761 0.3961 0.0
H527 H 0.74615 0.62349 0.45641 0.0
H528 H 0.71554 0.61051 0.45973 0.0
H529 H 0.71464 0.6045 0.39939 0.0
H530 H 0.70474 0.61616 0.41751 0.0
H531 H 0.73011 0.66991 0.32568 0.0
H532 H 0.73069 0.65793 0.24898 0.0
H533 H 0.73081 0.61723 0.31997 0.0
C534 C 0.73315 0.64532 0.49009 0.0
C535 C 0.73512 0.65983 0.50987 0.0
C536 C 0.73454 0.67169 0.48055 0.0
C537 C 0.7323 0.66929 0.43209 0.0
C538 C 0.73074 0.65499 0.41345 0.0
C539 C 0.73114 0.6432 0.44151 0.0
C540 C 0.73053 0.62949 0.41229 0.0
C541 C 0.74547 0.62705 0.41968 0.0
C542 C 0.71547 0.61426 0.42286 0.0
C543 C 0.73003 0.63555 0.36346 0.0
C544 C 0.72994 0.65018 0.36489 0.0
C545 C 0.73004 0.65839 0.32412 0.0
C546 C 0.73038 0.65151 0.28073 0.0
C547 C 0.73077 0.63666 0.27852 0.0
C548 C 0.73044 0.62857 0.32052 0.0
H549 H 0.07013 0.32761 0.98991 0.0
H550 H 0.05126 0.27655 0.99935 0.0
H551 H 0.04907 0.27811 0.08547 0.0
H552 H 0.09485 0.3352 0.08712 0.0
H553 H 0.09277 0.3524 0.10669 0.0
H554 H 0.09031 0.34706 0.04568 0.0
H555 H 0.06247 0.34623 0.04651 0.0
H556 H 0.06485 0.35157 0.10768 0.0
H557 H 0.04801 0.33388 0.08853 0.0
H558 H 0.05036 0.28541 0.17078 0.0
H559 H 0.05792 0.29797 0.24891 0.0
H560 H 0.07811 0.34435 0.18371 0.0
C561 C 0.06515 0.31676 0.01013 0.0
C562 C 0.06057 0.30193 0.98829 0.0
C563 C 0.05466 0.28799 0.0157 0.0
C564 C 0.05331 0.28876 0.06448 0.0
C565 C 0.05815 0.30361 0.08521 0.0
C566 C 0.06412 0.31737 0.05894 0.0
C567 C 0.07033 0.33191 0.09004 0.0
C568 C 0.08812 0.34224 0.0819 0.0
C569 C 0.06084 0.34146 0.08275 0.0
C570 C 0.0672 0.32419 0.13788 0.0
C571 C 0.0598 0.30786 0.1344 0.0
C572 C 0.05608 0.29819 0.17395 0.0
C573 C 0.06036 0.30541 0.21814 0.0
C574 C 0.06858 0.32209 0.22216 0.0
C575 C 0.07179 0.33156 0.18155 0.0
H576 H 0.63994 0.75001 0.21288 0.0
H577 H 0.5896 0.71951 0.20238 0.0
H578 H 0.59299 0.71337 0.12025 0.0
H579 H 0.64339 0.767 0.10129 0.0
H580 H 0.66274 0.7685 0.0889 0.0
H581 H 0.65677 0.76884 0.14859 0.0
H582 H 0.66276 0.74517 0.16829 0.0
H583 H 0.66872 0.74474 0.10851 0.0
H584 H 0.6535 0.72716 0.1345 0.0
H585 H 0.60142 0.71175 0.03834 0.0
H586 H 0.61396 0.71645 0.9603 0.0
H587 H 0.65865 0.74903 0.02221 0.0
C588 C 0.62972 0.74179 0.19346 0.0
C589 C 0.61454 0.73509 0.21395 0.0
C590 C 0.60134 0.72472 0.18725 0.0
C591 C 0.60316 0.7211 0.1407 0.0
C592 C 0.61825 0.72805 0.12119 0.0
C593 C 0.6313 0.73828 0.14654 0.0
C594 C 0.64589 0.74533 0.1158 0.0
C595 C 0.65258 0.76349 0.11351 0.0
C596 C 0.65846 0.74029 0.1328 0.0
C597 C 0.63893 0.73771 0.06914 0.0
C598 C 0.62303 0.72755 0.07327 0.0
C599 C 0.6139 0.71957 0.0347 0.0
C600 C 0.62112 0.7223 0.99052 0.0
C601 C 0.63727 0.73306 0.9852 0.0
C602 C 0.64631 0.74064 0.02524 0.0
H603 H 0.25164 0.89295 0.16735 0.0
H604 H 0.23739 0.92552 0.23721 0.0
H605 H 0.23318 0.93505 0.16012 0.0
H606 H 0.27228 0.91908 0.06911 0.0
H607 H 0.26576 0.90305 0.02736 0.0
H608 H 0.26851 0.89944 0.08792 0.0
H609 H 0.23967 0.87746 0.0915 0.0
H610 H 0.23684 0.88099 0.03103 0.0
H611 H 0.2237 0.88207 0.07523 0.0
H612 H 0.22856 0.93953 0.07563 0.0
H613 H 0.22449 0.9392 0.9901 0.0
H614 H 0.2426 0.90439 0.97422 0.0
C615 C 0.24782 0.90222 0.16646 0.0
C616 C 0.24487 0.90852 0.20844 0.0
C617 C 0.23978 0.92056 0.20564 0.0
C618 C 0.23736 0.92605 0.16197 0.0
C619 C 0.24021 0.91947 0.1213 0.0
C620 C 0.24543 0.9079 0.12314 0.0
C621 C 0.24714 0.90245 0.07424 0.0
C622 C 0.26445 0.90624 0.06407 0.0
C623 C 0.23618 0.88469 0.06763 0.0
C624 C 0.2418 0.91257 0.04456 0.0
C625 C 0.23788 0.92232 0.07248 0.0
C626 C 0.2318 0.93211 0.05344 0.0
C627 C 0.22951 0.93183 0.00478 0.0
C628 C 0.2334 0.92192 0.97539 0.0
C629 C 0.23982 0.91233 0.99565 0.0
H630 H 0.68485 0.93116 0.67716 0.0
H631 H 0.73295 0.93977 0.70915 0.0
H632 H 0.73884 0.94102 0.62429 0.0
H633 H 0.67905 0.90567 0.58377 0.0
H634 H 0.66748 0.9127 0.54907 0.0
H635 H 0.66762 0.91435 0.61187 0.0
H636 H 0.67677 0.94462 0.60535 0.0
H637 H 0.67646 0.94304 0.54239 0.0
H638 H 0.69423 0.95657 0.57193 0.0
H639 H 0.7384 0.9383 0.53557 0.0
H640 H 0.73218 0.93373 0.45088 0.0
H641 H 0.68449 0.92732 0.47863 0.0
C642 C 0.69673 0.93367 0.66636 0.0
C643 C 0.70847 0.93542 0.69962 0.0
C644 C 0.72383 0.93852 0.68416 0.0
C645 C 0.72726 0.9392 0.63607 0.0
C646 C 0.71524 0.93692 0.60412 0.0
C647 C 0.70035 0.93444 0.61872 0.0
C648 C 0.68925 0.93156 0.57772 0.0
C649 C 0.67502 0.9151 0.58081 0.0
C650 C 0.68387 0.94474 0.57414 0.0
C651 C 0.70008 0.9324 0.53773 0.0
C652 C 0.71505 0.93554 0.55346 0.0
C653 C 0.72679 0.93606 0.52283 0.0
C654 C 0.72314 0.93338 0.47489 0.0
C655 C 0.70789 0.93025 0.45826 0.0
C656 C 0.6963 0.92983 0.49022 0.0
H657 H 0.08442 0.73988 0.48886 0.0
H658 H 0.0574 0.76683 0.50224 0.0
H659 H 0.05661 0.76335 0.58822 0.0
H660 H 0.06631 0.71224 0.58816 0.0
H661 H 0.08497 0.71287 0.60542 0.0
H662 H 0.08125 0.71532 0.5447 0.0
H663 H 0.10659 0.74204 0.54252 0.0
H664 H 0.11035 0.7397 0.6031 0.0
H665 H 0.10888 0.75728 0.58432 0.0
H666 H 0.06058 0.75878 0.67302 0.0
H667 H 0.07056 0.75503 0.74997 0.0
H668 H 0.09618 0.73236 0.68107 0.0
C669 C 0.07797 0.74466 0.50987 0.0
C670 C 0.07077 0.75342 0.48908 0.0
C671 C 0.06288 0.75997 0.51764 0.0
C672 C 0.06232 0.758 0.56642 0.0
C673 C 0.06981 0.74956 0.58606 0.0
C674 C 0.07755 0.74305 0.55868 0.0
C675 C 0.08613 0.73605 0.58865 0.0
C676 C 0.07925 0.71805 0.58129 0.0
C677 C 0.10404 0.74426 0.57908 0.0
C678 C 0.08233 0.73998 0.63707 0.0
C679 C 0.07264 0.74748 0.63492 0.0
C680 C 0.06805 0.75278 0.67518 0.0
C681 C 0.07375 0.75059 0.7187 0.0
C682 C 0.08411 0.74341 0.7214 0.0
C683 C 0.08821 0.73784 0.68007 0.0
H684 H 0.24662 0.32754 0.49763 0.0
H685 H 0.26213 0.37267 0.42647 0.0
H686 H 0.2664 0.38622 0.50321 0.0
H687 H 0.22507 0.33462 0.58596 0.0
H688 H 0.23044 0.32464 0.63149 0.0
H689 H 0.23008 0.31876 0.57135 0.0
H690 H 0.25923 0.32342 0.57794 0.0
H691 H 0.25966 0.32924 0.6383 0.0
H692 H 0.27411 0.34238 0.5976 0.0
H693 H 0.26636 0.39435 0.58745 0.0
H694 H 0.26322 0.39665 0.6727 0.0
H695 H 0.2484 0.34621 0.68838 0.0
C696 C 0.25117 0.34031 0.49816 0.0
C697 C 0.25407 0.34908 0.45617 0.0
C698 C 0.25991 0.36575 0.45828 0.0
C699 C 0.26236 0.37353 0.50167 0.0
C700 C 0.25906 0.36447 0.54245 0.0
C701 C 0.25376 0.34824 0.54103 0.0
C702 C 0.25044 0.34112 0.58968 0.0
C703 C 0.23297 0.32908 0.5949 0.0
C704 C 0.26153 0.3336 0.60157 0.0
C705 C 0.2543 0.35582 0.61874 0.0
C706 C 0.25931 0.36918 0.5909 0.0
C707 C 0.26267 0.38401 0.60964 0.0
C708 C 0.2608 0.38519 0.65803 0.0
C709 C 0.25567 0.37162 0.68709 0.0
C710 C 0.25255 0.35681 0.66711 0.0
H711 H 0.91211 0.66068 0.8369 0.0
H712 H 0.9378 0.70679 0.77229 0.0
H713 H 0.94263 0.71945 0.85026 0.0
H714 H 0.89255 0.67143 0.91984 0.0
H715 H 0.894 0.65926 0.96657 0.0
H716 H 0.89433 0.65355 0.90661 0.0
H717 H 0.92113 0.65275 0.92047 0.0
H718 H 0.92077 0.65821 0.98085 0.0
H719 H 0.93753 0.66988 0.94448 0.0
H720 H 0.94043 0.72725 0.93286 0.0
H721 H 0.93488 0.72934 0.01682 0.0
H722 H 0.91256 0.67812 0.02789 0.0
C723 C 0.91913 0.67339 0.83938 0.0
C724 C 0.92458 0.6828 0.79889 0.0
C725 C 0.93363 0.6994 0.80313 0.0
C726 C 0.93639 0.70669 0.84718 0.0
C727 C 0.93033 0.69714 0.88642 0.0
C728 C 0.92225 0.68081 0.88308 0.0
C729 C 0.91638 0.67331 0.93036 0.0
C730 C 0.89824 0.66384 0.93084 0.0
C731 C 0.92444 0.66293 0.9449 0.0
C732 C 0.92184 0.688 0.96046 0.0
C733 C 0.92982 0.70164 0.93451 0.0
C734 C 0.93459 0.71667 0.95388 0.0
C735 C 0.93128 0.71775 0.00127 0.0
C736 C 0.92351 0.70389 0.02843 0.0
C737 C 0.91884 0.68888 0.00786 0.0
H738 H 0.33597 0.24859 0.01366 0.0
H739 H 0.3817 0.26377 0.0807 0.0
H740 H 0.3945 0.26862 0.00289 0.0
H741 H 0.34219 0.22747 0.92303 0.0
H742 H 0.33181 0.23295 0.87904 0.0
H743 H 0.32651 0.23245 0.93975 0.0
H744 H 0.33112 0.26169 0.93487 0.0
H745 H 0.33635 0.26225 0.87394 0.0
H746 H 0.34985 0.27664 0.91425 0.0
H747 H 0.40181 0.26898 0.91815 0.0
H748 H 0.40324 0.26574 0.8326 0.0
H749 H 0.35274 0.25078 0.82149 0.0
C750 C 0.34872 0.25322 0.01201 0.0
C751 C 0.35788 0.25584 0.05307 0.0
C752 C 0.37449 0.26176 0.04956 0.0
C753 C 0.38186 0.26456 0.00558 0.0
C754 C 0.37242 0.26152 0.96569 0.0
C755 C 0.35623 0.25613 0.96853 0.0
C756 C 0.34865 0.25291 0.92052 0.0
C757 C 0.33658 0.23541 0.9153 0.0
C758 C 0.34105 0.26404 0.9103 0.0
C759 C 0.36305 0.25685 0.89022 0.0
C760 C 0.37666 0.26191 0.91687 0.0
C761 C 0.39128 0.26528 0.89685 0.0
C762 C 0.39196 0.26334 0.84832 0.0
C763 C 0.37811 0.2581 0.82056 0.0
C764 C 0.36354 0.255 0.84181 0.0
H765 H 0.75167 0.10698 0.80826 0.0
H766 H 0.7336 0.14182 0.82471 0.0
H767 H 0.73002 0.13605 0.90949 0.0
H768 H 0.72639 0.0787 0.8949 0.0
H769 H 0.74185 0.07398 0.91574 0.0
H770 H 0.74194 0.08002 0.85581 0.0
H771 H 0.77023 0.10262 0.86692 0.0
H772 H 0.77025 0.0966 0.92674 0.0
H773 H 0.77403 0.11671 0.91379 0.0
H774 H 0.72901 0.12694 0.99295 0.0
H775 H 0.73256 0.11661 0.06953 0.0
H776 H 0.75213 0.08846 0.99878 0.0
C777 C 0.74681 0.11327 0.82967 0.0
C778 C 0.74282 0.12478 0.80997 0.0
C779 C 0.73673 0.13295 0.83916 0.0
C780 C 0.73458 0.1297 0.88728 0.0
C781 C 0.73867 0.11832 0.90572 0.0
C782 C 0.74478 0.11031 0.87789 0.0
C783 C 0.74915 0.09937 0.90686 0.0
C784 C 0.73924 0.08199 0.89246 0.0
C785 C 0.76697 0.10412 0.90337 0.0
C786 C 0.74469 0.10257 0.95532 0.0
C787 C 0.73848 0.11338 0.95389 0.0
C788 C 0.73381 0.11842 0.9945 0.0
C789 C 0.73582 0.11246 0.03779 0.0
C790 C 0.74259 0.10173 0.04006 0.0
C791 C 0.74686 0.0966 0.99815 0.0
H792 H 0.98561 0.42532 0.86017 0.0
H793 H 0.98608 0.38039 0.89021 0.0
H794 H 0.99245 0.3782 0.80698 0.0
H795 H 0.9684 0.41603 0.74691 0.0
H796 H 0.98054 0.43532 0.72271 0.0
H797 H 0.97605 0.43325 0.78436 0.0
H798 H 0.00597 0.44701 0.80409 0.0
H799 H 0.01056 0.44923 0.74248 0.0
H800 H 0.0188 0.43931 0.7797 0.0
H801 H 0.99689 0.38028 0.71868 0.0
H802 H 0.00223 0.38793 0.63504 0.0
H803 H 0.00091 0.43246 0.66559 0.0
C804 C 0.98712 0.41505 0.84922 0.0
C805 C 0.98528 0.40296 0.88128 0.0
C806 C 0.9875 0.38978 0.866 0.0
C807 C 0.99104 0.38842 0.81886 0.0
C808 C 0.99259 0.4005 0.78791 0.0
C809 C 0.99098 0.41369 0.80274 0.0
C810 C 0.99367 0.42525 0.76307 0.0
C811 C 0.97878 0.42759 0.75372 0.0
C812 C 0.00811 0.44114 0.77293 0.0
C813 C 0.99685 0.41642 0.72332 0.0
C814 C 0.99599 0.40208 0.7381 0.0
C815 C 0.99779 0.39158 0.70689 0.0
C816 C 0.00074 0.39597 0.65952 0.0
C817 C 0.00211 0.41082 0.6442 0.0
C818 C 0.00013 0.42112 0.67658 0.0
H819 H 0.56617 0.59192 0.65315 0.0
H820 H 0.59983 0.57854 0.58658 0.0
H821 H 0.60887 0.57441 0.66445 0.0
H822 H 0.59191 0.61277 0.75443 0.0
H823 H 0.5754 0.60609 0.79427 0.0
H824 H 0.57263 0.60936 0.73342 0.0
H825 H 0.55047 0.58061 0.72702 0.0
H826 H 0.55323 0.57723 0.78764 0.0
H827 H 0.55468 0.56435 0.74311 0.0
H828 H 0.61133 0.56797 0.74843 0.0
H829 H 0.60899 0.56225 0.83348 0.0
H830 H 0.57543 0.58195 0.84619 0.0
C831 C 0.57566 0.58842 0.65504 0.0
C832 C 0.58232 0.58553 0.61395 0.0
C833 C 0.59466 0.58091 0.61769 0.0
C834 C 0.59985 0.57852 0.66174 0.0
C835 C 0.59279 0.58113 0.70162 0.0
C836 C 0.58118 0.58627 0.69873 0.0
C837 C 0.57517 0.5877 0.74688 0.0
C838 C 0.57901 0.60501 0.75789 0.0
C839 C 0.55733 0.57682 0.7514 0.0
C840 C 0.5848 0.58199 0.7772 0.0
C841 C 0.59487 0.57823 0.75038 0.0
C842 C 0.60381 0.57125 0.76995 0.0
C843 C 0.60236 0.568 0.81812 0.0
C844 C 0.59227 0.57195 0.84618 0.0
C845 C 0.58357 0.57924 0.82557 0.0
H846 H 0.43717 0.017 0.82559 0.0
H847 H 0.40654 0.97253 0.8926 0.0
H848 H 0.39727 0.96034 0.81498 0.0
H849 H 0.40983 0.01367 0.72915 0.0
H850 H 0.42558 0.02255 0.68713 0.0
H851 H 0.4291 0.02807 0.74805 0.0
H852 H 0.45241 0.02054 0.749 0.0
H853 H 0.44896 0.01498 0.6882 0.0
H854 H 0.44904 0.00093 0.73096 0.0
H855 H 0.3935 0.95226 0.73086 0.0
H856 H 0.3942 0.94924 0.64499 0.0
H857 H 0.42589 0.99928 0.63201 0.0
C858 C 0.42838 0.00475 0.82388 0.0
C859 C 0.42258 0.99568 0.865 0.0
C860 C 0.41109 0.9797 0.86147 0.0
C861 C 0.40576 0.97267 0.81758 0.0
C862 C 0.41184 0.98188 0.77767 0.0
C863 C 0.42275 0.99762 0.78035 0.0
C864 C 0.4277 0.00473 0.73199 0.0
C865 C 0.42275 0.01804 0.7236 0.0
C866 C 0.44559 0.01063 0.72463 0.0
C867 C 0.4182 0.99041 0.70175 0.0
C868 C 0.40914 0.97735 0.72887 0.0
C869 C 0.4003 0.96246 0.70919 0.0
C870 C 0.4008 0.96084 0.66051 0.0
C871 C 0.40992 0.97407 0.63213 0.0
C872 C 0.41854 0.98907 0.65296 0.0
H873 H 0.60303 0.04416 0.34628 0.0
H874 H 0.60626 0.00473 0.41589 0.0
H875 H 0.60909 0.99416 0.33904 0.0
H876 H 0.5798 0.02297 0.25297 0.0
H877 H 0.58927 0.0381 0.20942 0.0
H878 H 0.58937 0.04355 0.26987 0.0
H879 H 0.61996 0.05861 0.2685 0.0
H880 H 0.61996 0.05325 0.20784 0.0
H881 H 0.63131 0.0484 0.25023 0.0
H882 H 0.60777 0.98602 0.25519 0.0
H883 H 0.60396 0.98163 0.16978 0.0
H884 H 0.60312 0.02706 0.15421 0.0
C885 C 0.60465 0.03348 0.34539 0.0
C886 C 0.60444 0.02525 0.38697 0.0
C887 C 0.60648 0.01125 0.38443 0.0
C888 C 0.6081 0.00517 0.34097 0.0
C889 C 0.60792 0.01338 0.30053 0.0
C890 C 0.60646 0.02735 0.30235 0.0
C891 C 0.60573 0.03339 0.25366 0.0
C892 C 0.59011 0.03456 0.24606 0.0
C893 C 0.6201 0.04936 0.24453 0.0
C894 C 0.60642 0.02035 0.22414 0.0
C895 C 0.60775 0.00895 0.2519 0.0
C896 C 0.60711 0.99503 0.23301 0.0
C897 C 0.60489 0.99262 0.18458 0.0
C898 C 0.60351 0.00413 0.15561 0.0
C899 C 0.60458 0.01829 0.17555 0.0
H900 H 0.99418 0.5602 0.32555 0.0
H901 H 0.99928 0.60755 0.35202 0.0
H902 H 0.00673 0.61462 0.26873 0.0
H903 H 0.0284 0.57286 0.25195 0.0
H904 H 0.01988 0.5557 0.21443 0.0
H905 H 0.01381 0.55426 0.27471 0.0
H906 H 0.98461 0.54375 0.24814 0.0
H907 H 0.99062 0.54528 0.18772 0.0
H908 H 0.97922 0.55523 0.20765 0.0
H909 H 0.01262 0.61585 0.18073 0.0
H910 H 0.02068 0.61263 0.09997 0.0
H911 H 0.01462 0.56555 0.13532 0.0
C912 C 0.99677 0.57202 0.3136 0.0
C913 C 0.99598 0.58331 0.34463 0.0
C914 C 0.99979 0.59877 0.32842 0.0
C915 C 0.00393 0.60283 0.28125 0.0
C916 C 0.00453 0.59136 0.2513 0.0
C917 C 0.00138 0.57638 0.26722 0.0
C918 C 0.00411 0.56662 0.22934 0.0
C919 C 0.01734 0.5621 0.24346 0.0
C920 C 0.98872 0.55185 0.21753 0.0
C921 C 0.00919 0.57837 0.1894 0.0
C922 C 0.00904 0.59247 0.20226 0.0
C923 C 0.0129 0.60491 0.17047 0.0
C924 C 0.01735 0.60297 0.12474 0.0
C925 C 0.01824 0.58888 0.11196 0.0
C926 C 0.01403 0.57644 0.14456 0.0
H927 H 0.40964 0.43584 0.15618 0.0
H928 H 0.42168 0.40198 0.08446 0.0
H929 H 0.42668 0.39265 0.1607 0.0
H930 H 0.43888 0.44655 0.24419 0.0
H931 H 0.4267 0.44827 0.29038 0.0
H932 H 0.42298 0.45157 0.23047 0.0
H933 H 0.394 0.43014 0.23812 0.0
H934 H 0.39762 0.42679 0.29817 0.0
H935 H 0.39006 0.4105 0.25731 0.0
H936 H 0.43254 0.38856 0.24369 0.0
H937 H 0.43794 0.38924 0.32849 0.0
H938 H 0.42125 0.42503 0.34762 0.0
C939 C 0.41312 0.42631 0.15657 0.0
C940 C 0.41524 0.4196 0.11433 0.0
C941 C 0.41992 0.40725 0.11632 0.0
C942 C 0.42279 0.40187 0.15948 0.0
C943 C 0.42079 0.40887 0.20041 0.0
C944 C 0.41595 0.42073 0.19943 0.0
C945 C 0.41522 0.4266 0.24854 0.0
C946 C 0.42663 0.4443 0.25368 0.0
C947 C 0.39821 0.4233 0.26128 0.0
C948 C 0.42071 0.41638 0.27718 0.0
C949 C 0.42384 0.40623 0.24863 0.0
C950 C 0.42992 0.39629 0.26646 0.0
C951 C 0.43298 0.39679 0.31465 0.0
C952 C 0.42987 0.40706 0.34464 0.0
C953 C 0.42347 0.41685 0.32564 0.0
H954 H 0.35351 0.20142 0.17373 0.0
H955 H 0.30277 0.1838 0.1578 0.0
H956 H 0.29996 0.15635 0.15323 0.0
H957 H 0.35807 0.17378 0.09466 0.0
H958 H 0.37308 0.17209 0.1301 0.0
H959 H 0.37093 0.19017 0.13069 0.0
H960 H 0.36768 0.18823 0.22098 0.0
H961 H 0.36977 0.17013 0.2207 0.0
H962 H 0.35253 0.17053 0.24666 0.0
H963 H 0.3029 0.1308 0.15305 0.0
H964 H 0.31119 0.10932 0.15607 0.0
H965 H 0.36009 0.14416 0.17175 0.0
C966 C 0.34178 0.19182 0.16903 0.0
C967 C 0.32833 0.1947 0.16611 0.0
C968 C 0.31322 0.18181 0.16003 0.0
C969 C 0.31153 0.16622 0.15743 0.0
C970 C 0.32508 0.16382 0.16081 0.0
C971 C 0.33992 0.17629 0.16632 0.0
C972 C 0.35261 0.17065 0.16977 0.0
C973 C 0.36436 0.17705 0.12886 0.0
C974 C 0.36114 0.17515 0.21736 0.0
C975 C 0.34262 0.15297 0.16573 0.0
C976 C 0.32678 0.14924 0.16051 0.0
C977 C 0.31528 0.13361 0.15691 0.0
C978 C 0.32011 0.1215 0.15873 0.0
C979 C 0.33629 0.1251 0.16408 0.0
C980 C 0.34765 0.14105 0.16746 0.0
H981 H 0.7924 0.14568 0.17691 0.0
H982 H 0.81375 0.11542 0.13268 0.0
H983 H 0.83932 0.13918 0.12135 0.0
H984 H 0.81235 0.17684 0.09547 0.0
H985 H 0.81446 0.19238 0.13589 0.0
H986 H 0.79811 0.173 0.14175 0.0
H987 H 0.80626 0.17143 0.22762 0.0
H988 H 0.8226 0.19083 0.22212 0.0
H989 H 0.82609 0.17429 0.24009 0.0
H990 H 0.86236 0.16645 0.11362 0.0
H991 H 0.88117 0.19483 0.11101 0.0
H992 H 0.84442 0.20707 0.16002 0.0
C993 C 0.80246 0.144 0.16508 0.0
C994 C 0.80112 0.12869 0.15573 0.0
C995 C 0.81455 0.12704 0.14015 0.0
C996 C 0.82909 0.14046 0.13359 0.0
C997 C 0.82994 0.15539 0.1428 0.0
C998 C 0.81697 0.1572 0.15833 0.0
C999 C 0.82087 0.1745 0.16524 0.0
C1000 C 0.81085 0.17947 0.13264 0.0
C1001 C 0.81884 0.17796 0.21684 0.0
C1002 C 0.83809 0.18223 0.15101 0.0
C1003 C 0.84311 0.17101 0.13823 0.0
C1004 C 0.85855 0.17531 0.12362 0.0
C1005 C 0.86914 0.19147 0.12221 0.0
C1006 C 0.86426 0.20317 0.13528 0.0
C1007 C 0.8485 0.19842 0.14977 0.0
H1008 H 0.85807 0.6933 0.15191 0.0
H1009 H 0.87137 0.65489 0.16749 0.0
H1010 H 0.84328 0.63558 0.16801 0.0
H1011 H 0.82397 0.67693 0.22673 0.0
H1012 H 0.81231 0.68356 0.1909 0.0
H1013 H 0.83354 0.69447 0.19125 0.0
H1014 H 0.83403 0.69171 0.10098 0.0
H1015 H 0.8128 0.68082 0.10036 0.0
H1016 H 0.82474 0.67228 0.07475 0.0
H1017 H 0.81364 0.62031 0.16847 0.0
H1018 H 0.78454 0.61029 0.16635 0.0
H1019 H 0.7905 0.65844 0.14939 0.0
C1020 C 0.85506 0.68083 0.15526 0.0
C1021 C 0.86695 0.67563 0.15965 0.0
C1022 C 0.8625 0.65919 0.16401 0.0
C1023 C 0.84655 0.64809 0.16441 0.0
C1024 C 0.83512 0.65358 0.16026 0.0
C1025 C 0.83914 0.66953 0.15556 0.0
C1026 C 0.8245 0.67224 0.15161 0.0
C1027 C 0.82353 0.6824 0.19257 0.0
C1028 C 0.82399 0.6797 0.10409 0.0
C1029 C 0.81168 0.65534 0.15496 0.0
C1030 C 0.81805 0.64475 0.16006 0.0
C1031 C 0.80851 0.62848 0.16434 0.0
C1032 C 0.79201 0.6229 0.16317 0.0
C1033 C 0.78526 0.63356 0.15762 0.0
C1034 C 0.79529 0.64997 0.15354 0.0
H1035 H 0.14419 0.35058 0.32818 0.0
H1036 H 0.11005 0.30387 0.37317 0.0
H1037 H 0.13108 0.29498 0.37446 0.0
H1038 H 0.16656 0.33752 0.25242 0.0
H1039 H 0.18528 0.35375 0.26755 0.0
H1040 H 0.16747 0.35631 0.27001 0.0
H1041 H 0.17333 0.36516 0.35684 0.0
H1042 H 0.19115 0.36263 0.3546 0.0
H1043 H 0.17642 0.35242 0.39852 0.0
H1044 H 0.15619 0.2913 0.37127 0.0
H1045 H 0.18329 0.29342 0.36388 0.0
H1046 H 0.20037 0.34247 0.32101 0.0
C1047 C 0.14114 0.33848 0.33825 0.0
C1048 C 0.12553 0.32792 0.35056 0.0
C1049 C 0.12198 0.31217 0.36359 0.0
C1050 C 0.13383 0.307 0.36442 0.0
C1051 C 0.14914 0.31772 0.3521 0.0
C1052 C 0.1528 0.33313 0.33926 0.0
C1053 C 0.17014 0.34236 0.32783 0.0
C1054 C 0.17249 0.3478 0.2764 0.0
C1055 C 0.17823 0.35647 0.36146 0.0
C1056 C 0.17567 0.32977 0.33632 0.0
C1057 C 0.16344 0.31561 0.35026 0.0
C1058 C 0.16587 0.30233 0.36031 0.0
C1059 C 0.18125 0.30362 0.35603 0.0
C1060 C 0.19389 0.31807 0.34188 0.0
C1061 C 0.19096 0.33123 0.33188 0.0
H1062 H 0.64443 0.79959 0.33141 0.0
H1063 H 0.59586 0.79284 0.32908 0.0
H1064 H 0.60545 0.82197 0.32257 0.0
H1065 H 0.66 0.83434 0.40138 0.0
H1066 H 0.67854 0.84324 0.37039 0.0
H1067 H 0.66765 0.82201 0.3733 0.0
H1068 H 0.66763 0.82039 0.2826 0.0
H1069 H 0.67855 0.84162 0.27939 0.0
H1070 H 0.66002 0.83165 0.24869 0.0
H1071 H 0.62108 0.85248 0.31792 0.0
H1072 H 0.64084 0.88073 0.31546 0.0
H1073 H 0.67862 0.86638 0.32132 0.0
C1074 C 0.63574 0.80416 0.32931 0.0
C1075 C 0.61937 0.79393 0.33069 0.0
C1076 C 0.60845 0.80047 0.32797 0.0
C1077 C 0.61381 0.81699 0.3243 0.0
C1078 C 0.63009 0.82674 0.32334 0.0
C1079 C 0.64084 0.82048 0.32569 0.0
C1080 C 0.6577 0.83328 0.32477 0.0
C1081 C 0.66648 0.83321 0.37016 0.0
C1082 C 0.66649 0.83163 0.28127 0.0
C1083 C 0.65486 0.84784 0.32173 0.0
C1084 C 0.6389 0.84393 0.32083 0.0
C1085 C 0.63358 0.85561 0.3185 0.0
C1086 C 0.64488 0.87162 0.31713 0.0
C1087 C 0.66127 0.87576 0.31818 0.0
C1088 C 0.6662 0.86364 0.32042 0.0
H1089 H 0.19044 0.8624 0.33369 0.0
H1090 H 0.2139 0.83179 0.3314 0.0
H1091 H 0.18793 0.80833 0.33725 0.0
H1092 H 0.16047 0.84025 0.41624 0.0
H1093 H 0.14515 0.84354 0.38758 0.0
H1094 H 0.1655 0.85794 0.38209 0.0
H1095 H 0.16321 0.85588 0.29162 0.0
H1096 H 0.14281 0.84157 0.29679 0.0
H1097 H 0.15643 0.83676 0.26393 0.0
H1098 H 0.15975 0.78847 0.34685 0.0
H1099 H 0.13091 0.77305 0.35383 0.0
H1100 H 0.12541 0.81644 0.34769 0.0
C1101 C 0.19011 0.85075 0.3341 0.0
C1102 C 0.20418 0.84888 0.33215 0.0
C1103 C 0.20326 0.83347 0.33272 0.0
C1104 C 0.18858 0.8201 0.33618 0.0
C1105 C 0.17496 0.82238 0.33869 0.0
C1106 C 0.17556 0.83729 0.33719 0.0
C1107 C 0.15914 0.83644 0.34021 0.0
C1108 C 0.15748 0.84505 0.38415 0.0
C1109 C 0.15516 0.84305 0.29547 0.0
C1110 C 0.1492 0.8187 0.34404 0.0
C1111 C 0.15861 0.81085 0.34332 0.0
C1112 C 0.15226 0.79446 0.34717 0.0
C1113 C 0.13584 0.78582 0.3513 0.0
C1114 C 0.12589 0.79354 0.35128 0.0
C1115 C 0.13271 0.81022 0.34778 0.0
H1116 H 0.69826 0.87188 0.83301 0.0
H1117 H 0.65114 0.86923 0.82818 0.0
H1118 H 0.63958 0.84008 0.8345 0.0
H1119 H 0.68929 0.83621 0.76532 0.0
H1120 H 0.70206 0.8307 0.79997 0.0
H1121 H 0.70653 0.85128 0.79332 0.0
H1122 H 0.70696 0.85434 0.88366 0.0
H1123 H 0.70234 0.83374 0.89059 0.0
H1124 H 0.68992 0.84151 0.91733 0.0
H1125 H 0.63323 0.8115 0.84412 0.0
H1126 H 0.63237 0.78506 0.85258 0.0
H1127 H 0.68368 0.80636 0.85123 0.0
C1128 C 0.68551 0.86515 0.83278 0.0
C1129 C 0.67556 0.87275 0.83001 0.0
C1130 C 0.65895 0.86359 0.83011 0.0
C1131 C 0.65229 0.84706 0.8338 0.0
C1132 C 0.66243 0.83995 0.83726 0.0
C1133 C 0.67868 0.84867 0.83644 0.0
C1134 C 0.68693 0.83813 0.84125 0.0
C1135 C 0.69678 0.83914 0.79734 0.0
C1136 C 0.69713 0.84217 0.88587 0.0
C1137 C 0.67277 0.82212 0.84515 0.0
C1138 C 0.65876 0.82344 0.84282 0.0
C1139 C 0.64411 0.81029 0.84584 0.0
C1140 C 0.64375 0.79535 0.85078 0.0
C1141 C 0.65796 0.7937 0.8526 0.0
C1142 C 0.67264 0.80729 0.85006 0.0
H1143 H 0.17389 0.86709 0.88552 0.0
H1144 H 0.18848 0.87347 0.73986 0.0
H1145 H 0.17431 0.84457 0.72735 0.0
H1146 H 0.17717 0.83205 0.90661 0.0
H1147 H 0.15965 0.82278 0.94221 0.0
H1148 H 0.1702 0.84405 0.93962 0.0
H1149 H 0.14475 0.84579 0.91297 0.0
H1150 H 0.13403 0.82454 0.91647 0.0
H1151 H 0.13401 0.83456 0.8627 0.0
H1152 H 0.16137 0.81473 0.73341 0.0
H1153 H 0.14593 0.78634 0.75347 0.0
H1154 H 0.13768 0.79951 0.89274 0.0
C1155 C 0.17377 0.8624 0.85077 0.0
C1156 C 0.18223 0.87249 0.81362 0.0
C1157 C 0.18191 0.86596 0.76867 0.0
C1158 C 0.17403 0.84954 0.76133 0.0
C1159 C 0.16623 0.83986 0.79905 0.0
C1160 C 0.16562 0.84606 0.84252 0.0
C1161 C 0.15616 0.83305 0.87693 0.0
C1162 C 0.16642 0.83299 0.91881 0.0
C1163 C 0.14136 0.83458 0.89321 0.0
C1164 C 0.15185 0.81857 0.84629 0.0
C1165 C 0.15799 0.82273 0.8017 0.0
C1166 C 0.15628 0.81133 0.76798 0.0
C1167 C 0.14765 0.79527 0.77976 0.0
C1168 C 0.14064 0.79084 0.82449 0.0
C1169 C 0.14287 0.80264 0.85818 0.0
H1170 H 0.12464 0.30827 0.83069 0.0
H1171 H 0.11548 0.34861 0.86175 0.0
H1172 H 0.14398 0.36632 0.85826 0.0
H1173 H 0.16078 0.32158 0.89831 0.0
H1174 H 0.17045 0.31436 0.85676 0.0
H1175 H 0.14923 0.30471 0.86194 0.0
H1176 H 0.14667 0.3088 0.77311 0.0
H1177 H 0.16789 0.31854 0.76775 0.0
H1178 H 0.15636 0.32848 0.74885 0.0
H1179 H 0.17355 0.37991 0.85135 0.0
H1180 H 0.20226 0.38808 0.84311 0.0
H1181 H 0.19236 0.33918 0.81593 0.0
C1182 C 0.12866 0.32081 0.83694 0.0
C1183 C 0.11779 0.32701 0.84651 0.0
C1184 C 0.12354 0.34353 0.85433 0.0
C1185 C 0.13973 0.35374 0.85238 0.0
C1186 C 0.15014 0.34731 0.84252 0.0
C1187 C 0.14488 0.33124 0.83504 0.0
C1188 C 0.15863 0.32746 0.82512 0.0
C1189 C 0.15984 0.31637 0.86278 0.0
C1190 C 0.1573 0.32041 0.77577 0.0
C1191 C 0.17236 0.34389 0.8283 0.0
C1192 C 0.16721 0.35518 0.83831 0.0
C1193 C 0.17775 0.37117 0.84342 0.0
C1194 C 0.19401 0.37572 0.8386 0.0
C1195 C 0.19955 0.36431 0.82873 0.0
C1196 C 0.18851 0.34822 0.82325 0.0
H1197 H 0.78979 0.65242 0.64589 0.0
H1198 H 0.80582 0.70335 0.64733 0.0
H1199 H 0.83344 0.70737 0.65475 0.0
H1200 H 0.81715 0.65156 0.73078 0.0
H1201 H 0.82019 0.63604 0.70218 0.0
H1202 H 0.80168 0.63706 0.69529 0.0
H1203 H 0.80488 0.63782 0.60502 0.0
H1204 H 0.82334 0.63667 0.6116 0.0
H1205 H 0.82262 0.65271 0.57883 0.0
H1206 H 0.85894 0.7059 0.66432 0.0
H1207 H 0.88127 0.69925 0.67203 0.0
H1208 H 0.84892 0.64913 0.66441 0.0
C1209 C 0.79913 0.66442 0.64735 0.0
C1210 C 0.79571 0.6776 0.64596 0.0
C1211 C 0.80821 0.69311 0.64822 0.0
C1212 C 0.82391 0.6955 0.65254 0.0
C1213 C 0.82685 0.68225 0.65448 0.0
C1214 C 0.81486 0.66702 0.65169 0.0
C1215 C 0.82127 0.65485 0.65506 0.0
C1216 C 0.81468 0.64426 0.69841 0.0
C1217 C 0.81782 0.64493 0.60994 0.0
C1218 C 0.83877 0.66565 0.66036 0.0
C1219 C 0.84167 0.68139 0.66 0.0
C1220 C 0.85684 0.69363 0.66452 0.0
C1221 C 0.86943 0.6897 0.66899 0.0
C1222 C 0.86682 0.67366 0.66885 0.0
C1223 C 0.85125 0.66148 0.66478 0.0
H1224 H 0.34269 0.19426 0.68408 0.0
H1225 H 0.39198 0.20332 0.68632 0.0
H1226 H 0.38373 0.17442 0.6879 0.0
H1227 H 0.32777 0.16041 0.76061 0.0
H1228 H 0.30965 0.15001 0.72825 0.0
H1229 H 0.31943 0.17134 0.72819 0.0
H1230 H 0.3203 0.17135 0.63747 0.0
H1231 H 0.3105 0.15001 0.63721 0.0
H1232 H 0.32921 0.1604 0.60782 0.0
H1233 H 0.37009 0.14468 0.69021 0.0
H1234 H 0.35227 0.11612 0.68963 0.0
H1235 H 0.31163 0.12622 0.68321 0.0
C1236 C 0.35177 0.19018 0.68512 0.0
C1237 C 0.36801 0.20103 0.68538 0.0
C1238 C 0.3795 0.19521 0.6862 0.0
C1239 C 0.37491 0.17883 0.68717 0.0
C1240 C 0.35879 0.16847 0.68691 0.0
C1241 C 0.3474 0.1739 0.68562 0.0
C1242 C 0.33088 0.16028 0.68448 0.0
C1243 C 0.32138 0.16053 0.72798 0.0
C1244 C 0.32222 0.16053 0.63904 0.0
C1245 C 0.33474 0.14627 0.6855 0.0
C1246 C 0.35092 0.1513 0.68715 0.0
C1247 C 0.35742 0.14062 0.6888 0.0
C1248 C 0.34716 0.12439 0.68854 0.0
C1249 C 0.33053 0.1189 0.68634 0.0
C1250 C 0.32427 0.13004 0.68482 0.0
H1251 H 0.80451 0.15226 0.66942 0.0
H1252 H 0.78992 0.18961 0.64996 0.0
H1253 H 0.81791 0.20901 0.63968 0.0
H1254 H 0.84023 0.17555 0.73447 0.0
H1255 H 0.85126 0.16622 0.70766 0.0
H1256 H 0.83014 0.15538 0.71404 0.0
H1257 H 0.82742 0.14972 0.6248 0.0
H1258 H 0.84852 0.16062 0.61808 0.0
H1259 H 0.83553 0.16604 0.5842 0.0
H1260 H 0.84727 0.22413 0.63042 0.0
H1261 H 0.87615 0.23438 0.625 0.0
H1262 H 0.87188 0.18717 0.65045 0.0
C1263 C 0.8072 0.16454 0.66322 0.0
C1264 C 0.79504 0.16946 0.66054 0.0
C1265 C 0.79904 0.18561 0.65226 0.0
C1266 C 0.81489 0.19669 0.64629 0.0
C1267 C 0.82656 0.1914 0.64875 0.0
C1268 C 0.82293 0.17573 0.6572 0.0
C1269 C 0.8377 0.17313 0.65809 0.0
C1270 C 0.83996 0.16722 0.70645 0.0
C1271 C 0.83726 0.1617 0.61896 0.0
C1272 C 0.85026 0.18982 0.64874 0.0
C1273 C 0.84353 0.20014 0.64341 0.0
C1274 C 0.85265 0.21617 0.63459 0.0
C1275 C 0.86908 0.22186 0.63153 0.0
C1276 C 0.8763 0.21157 0.63727 0.0
C1277 C 0.86671 0.1953 0.64575 0.0
H1278 H 0.01846 0.47932 0.49864 0.0
H1279 H 0.971 0.44106 0.48755 0.0
H1280 H 0.96024 0.46061 0.48102 0.0
H1281 H 0.00844 0.50525 0.56816 0.0
H1282 H 0.02233 0.52299 0.53936 0.0
H1283 H 0.02623 0.50595 0.54273 0.0
H1284 H 0.02898 0.50606 0.45232 0.0
H1285 H 0.02508 0.52311 0.44868 0.0
H1286 H 0.01307 0.50544 0.41599 0.0
H1287 H 0.95465 0.48449 0.47694 0.0
H1288 H 0.95484 0.51089 0.47488 0.0
H1289 H 0.00598 0.53319 0.48767 0.0
C1290 C 0.00581 0.47506 0.4948 0.0
C1291 C 0.99555 0.4587 0.49364 0.0
C1292 C 0.97906 0.45357 0.48851 0.0
C1293 C 0.97284 0.46457 0.48478 0.0
C1294 C 0.98327 0.48063 0.4861 0.0
C1295 C 0.99941 0.48586 0.49089 0.0
C1296 C 0.00807 0.50375 0.4914 0.0
C1297 C 0.01678 0.50984 0.5382 0.0
C1298 C 0.01947 0.50995 0.44961 0.0
C1299 C 0.9943 0.50777 0.48635 0.0
C1300 C 0.98008 0.49431 0.48335 0.0
C1301 C 0.96572 0.49513 0.47911 0.0
C1302 C 0.96594 0.51014 0.47798 0.0
C1303 C 0.98041 0.52404 0.48098 0.0
C1304 C 0.99472 0.52277 0.48509 0.0
H1305 H 0.46825 0.4681 0.48228 0.0
H1306 H 0.50058 0.44664 0.47756 0.0
H1307 H 0.52324 0.4733 0.47853 0.0
H1308 H 0.49083 0.50155 0.40824 0.0
H1309 H 0.48608 0.51515 0.44154 0.0
H1310 H 0.47243 0.49442 0.43991 0.0
H1311 H 0.47272 0.4934 0.53061 0.0
H1312 H 0.4864 0.51413 0.53253 0.0
H1313 H 0.49131 0.49978 0.56096 0.0
H1314 H 0.54224 0.50208 0.47988 0.0
H1315 H 0.55657 0.53119 0.48177 0.0
H1316 H 0.51197 0.5342 0.48698 0.0
C1317 C 0.4801 0.469 0.48124 0.0
C1318 C 0.48268 0.4553 0.47967 0.0
C1319 C 0.49835 0.45698 0.47867 0.0
C1320 C 0.51127 0.47206 0.47924 0.0
C1321 C 0.50831 0.48531 0.48099 0.0
C1322 C 0.49313 0.48395 0.48202 0.0
C1323 C 0.49321 0.5001 0.48433 0.0
C1324 C 0.48516 0.50297 0.44091 0.0
C1325 C 0.48545 0.50196 0.52982 0.0
C1326 C 0.51084 0.51078 0.4843 0.0
C1327 C 0.5193 0.50197 0.48231 0.0
C1328 C 0.53574 0.5091 0.4815 0.0
C1329 C 0.54377 0.52566 0.48257 0.0
C1330 C 0.5354 0.53498 0.48457 0.0
C1331 C 0.51869 0.5274 0.48563 0.0
H1332 H 0.53746 0.03228 0.49637 0.0
H1333 H 0.54579 0.9905 0.50269 0.0
H1334 H 0.51716 0.97342 0.49712 0.0
H1335 H 0.5025 0.01666 0.56681 0.0
H1336 H 0.49255 0.02583 0.53344 0.0
H1337 H 0.51382 0.03491 0.53589 0.0
H1338 H 0.51504 0.03465 0.44519 0.0
H1339 H 0.49376 0.02557 0.44249 0.0
H1340 H 0.50452 0.01623 0.41411 0.0
H1341 H 0.48754 0.96067 0.49272 0.0
H1342 H 0.45889 0.95338 0.49064 0.0
H1343 H 0.4697 0.00325 0.48796 0.0
C1344 C 0.53324 0.01955 0.49623 0.0
C1345 C 0.54388 0.01275 0.4999 0.0
C1346 C 0.53788 0.99601 0.49996 0.0
C1347 C 0.52163 0.98617 0.49673 0.0
C1348 C 0.51144 0.9932 0.49349 0.0
C1349 C 0.51697 0.00949 0.49323 0.0
C1350 C 0.5034 0.01395 0.49067 0.0
C1351 C 0.50305 0.02339 0.53431 0.0
C1352 C 0.50423 0.02314 0.44541 0.0
C1353 C 0.48944 0.99765 0.48989 0.0
C1354 C 0.49433 0.98583 0.49131 0.0
C1355 C 0.48355 0.96982 0.49146 0.0
C1356 C 0.46732 0.96578 0.49028 0.0
C1357 C 0.46207 0.97772 0.48914 0.0
C1358 C 0.47334 0.99383 0.48877 0.0
H1359 H 0.49682 0.02412 0.00124 0.0
H1360 H 0.4605 0.97544 0.99958 0.0
H1361 H 0.48097 0.96597 0.00517 0.0
H1362 H 0.52567 0.01763 0.93268 0.0
H1363 H 0.5423 0.03134 0.96631 0.0
H1364 H 0.52476 0.0343 0.96122 0.0
H1365 H 0.52267 0.03457 0.05174 0.0
H1366 H 0.54016 0.03153 0.05709 0.0
H1367 H 0.52206 0.01804 0.08504 0.0
H1368 H 0.50542 0.96167 0.01079 0.0
H1369 H 0.53223 0.96309 0.01647 0.0
H1370 H 0.55248 0.01444 0.01647 0.0
C1371 C 0.49321 0.01148 0.0018 0.0
C1372 C 0.47708 0.00052 0.99987 0.0
C1373 C 0.4728 0.98406 0.00104 0.0
C1374 C 0.48434 0.97855 0.0042 0.0
C1375 C 0.50013 0.98963 0.00639 0.0
C1376 C 0.50459 0.00575 0.00528 0.0
C1377 C 0.52238 0.01512 0.00883 0.0
C1378 C 0.52917 0.02519 0.96462 0.0
C1379 C 0.52709 0.02542 0.05333 0.0
C1380 C 0.52717 0.00176 0.01201 0.0
C1381 C 0.51418 0.98714 0.01042 0.0
C1382 C 0.5157 0.97306 0.0122 0.0
C1383 C 0.53094 0.97397 0.01546 0.0
C1384 C 0.5444 0.98885 0.01714 0.0
C1385 C 0.54241 0.00288 0.01558 0.0
H1386 H 0.00209 0.52716 0.98235 0.0
H1387 H 0.05007 0.54065 0.02995 0.0
H1388 H 0.04311 0.51252 0.04618 0.0
H1389 H 0.98246 0.49614 0.0667 0.0
H1390 H 0.96774 0.48338 0.02584 0.0
H1391 H 0.9764 0.50456 0.01846 0.0
H1392 H 0.98492 0.50171 0.93404 0.0
H1393 H 0.9762 0.48052 0.94103 0.0
H1394 H 0.99668 0.49122 0.92451 0.0
H1395 H 0.03099 0.4831 0.05699 0.0
H1396 H 0.01501 0.45414 0.05825 0.0
H1397 H 0.9748 0.4596 0.00298 0.0
C1398 C 0.01115 0.5242 0.99619 0.0
C1399 C 0.02664 0.53608 0.00496 0.0
C1400 C 0.03815 0.53173 0.02292 0.0
C1401 C 0.03429 0.51581 0.03238 0.0
C1402 C 0.01888 0.50441 0.0236 0.0
C1403 C 0.00751 0.50838 0.00567 0.0
C1404 C 0.99191 0.4938 0.99846 0.0
C1405 C 0.97886 0.49452 0.02921 0.0
C1406 C 0.98715 0.49169 0.94641 0.0
C1407 C 0.9963 0.48097 0.01498 0.0
C1408 C 0.01189 0.48739 0.02957 0.0
C1409 C 0.01877 0.47794 0.04572 0.0
C1410 C 0.00957 0.4615 0.04634 0.0
C1411 C 0.99364 0.4546 0.03079 0.0
C1412 C 0.9869 0.46452 0.0154 0.0
H1413 H 0.46936 0.46342 0.99113 0.0
H1414 H 0.44755 0.49548 0.98684 0.0
H1415 H 0.47403 0.51827 0.98212 0.0
H1416 H 0.50293 0.48836 0.06272 0.0
H1417 H 0.51647 0.48281 0.03228 0.0
H1418 H 0.49582 0.4691 0.03578 0.0
H1419 H 0.49452 0.46679 0.94524 0.0
H1420 H 0.51514 0.48059 0.94142 0.0
H1421 H 0.50058 0.48446 0.91028 0.0
H1422 H 0.50265 0.53737 0.97563 0.0
H1423 H 0.53167 0.55187 0.97226 0.0
H1424 H 0.53513 0.50747 0.98208 0.0
C1425 C 0.47015 0.47525 0.98943 0.0
C1426 C 0.4564 0.47771 0.98931 0.0
C1427 C 0.45793 0.49334 0.98709 0.0
C1428 C 0.4729 0.50634 0.98426 0.0
C1429 C 0.48621 0.50348 0.98393 0.0
C1430 C 0.485 0.48834 0.98683 0.0
C1431 C 0.50116 0.48854 0.9861 0.0
C1432 C 0.50428 0.48181 0.03195 0.0
C1433 C 0.50295 0.47956 0.9432 0.0
C1434 C 0.51168 0.50617 0.98212 0.0
C1435 C 0.50277 0.51454 0.98074 0.0
C1436 C 0.50975 0.53095 0.97684 0.0
C1437 C 0.52626 0.53907 0.97483 0.0
C1438 C 0.53568 0.5308 0.9769 0.0
C1439 C 0.52825 0.51411 0.98034 0.0
H1440 H 0.40953 0.04222 0.98655 0.0
H1441 H 0.45593 0.06877 0.04799 0.0
H1442 H 0.44639 0.08645 0.08728 0.0
H1443 H 0.39772 0.07526 0.9757 0.0
H1444 H 0.37773 0.06218 0.9925 0.0
H1445 H 0.38934 0.05455 0.96046 0.0
H1446 H 0.38409 0.03363 0.02558 0.0
H1447 H 0.37274 0.04134 0.05809 0.0
H1448 H 0.38942 0.0401 0.08527 0.0
H1449 H 0.43015 0.09886 0.12872 0.0
H1450 H 0.40914 0.10385 0.1679 0.0
H1451 H 0.3737 0.06701 0.0833 0.0
C1452 C 0.41791 0.05213 0.00675 0.0
C1453 C 0.43351 0.05423 0.01384 0.0
C1454 C 0.44399 0.06711 0.04147 0.0
C1455 C 0.43864 0.07717 0.06404 0.0
C1456 C 0.42283 0.07415 0.05844 0.0
C1457 C 0.41269 0.06196 0.02999 0.0
C1458 C 0.39581 0.05949 0.03448 0.0
C1459 C 0.38981 0.0631 0.988 0.0
C1460 C 0.38489 0.04266 0.05191 0.0
C1461 C 0.39784 0.0718 0.07109 0.0
C1462 C 0.41349 0.08048 0.08389 0.0
C1463 C 0.4179 0.09219 0.11857 0.0
C1464 C 0.40596 0.09493 0.14072 0.0
C1465 C 0.38991 0.08563 0.1289 0.0
C1466 C 0.38592 0.07413 0.09335 0.0
H1467 H 0.90767 0.29257 0.04922 0.0
H1468 H 0.88502 0.29762 0.1755 0.0
H1469 H 0.88899 0.32434 0.14901 0.0
H1470 H 0.93716 0.32902 0.04527 0.0
H1471 H 0.93764 0.33135 0.98251 0.0
H1472 H 0.93003 0.3119 0.00738 0.0
H1473 H 0.90373 0.3038 0.96241 0.0
H1474 H 0.91124 0.32336 0.93738 0.0
H1475 H 0.89283 0.3153 0.96919 0.0
H1476 H 0.90055 0.35234 0.11532 0.0
H1477 H 0.91852 0.37808 0.08006 0.0
H1478 H 0.93163 0.35348 0.97305 0.0
C1479 C 0.90304 0.29911 0.07038 0.0
C1480 C 0.89597 0.29318 0.11397 0.0
C1481 C 0.89031 0.30202 0.14163 0.0
C1482 C 0.89248 0.31713 0.12671 0.0
C1483 C 0.8999 0.32286 0.08362 0.0
C1484 C 0.90482 0.3139 0.05555 0.0
C1485 C 0.91398 0.32308 0.01346 0.0
C1486 C 0.93068 0.32389 0.01216 0.0
C1487 C 0.90489 0.31596 0.96792 0.0
C1488 C 0.9145 0.33906 0.02362 0.0
C1489 C 0.90605 0.33871 0.06365 0.0
C1490 C 0.90677 0.35263 0.0832 0.0
C1491 C 0.91693 0.36723 0.06275 0.0
C1492 C 0.92633 0.36773 0.02354 0.0
C1493 C 0.92435 0.35342 0.00245 0.0
H1494 H 0.69836 0.58887 0.05941 0.0
H1495 H 0.68747 0.56633 0.19526 0.0
H1496 H 0.6604 0.54832 0.16739 0.0
H1497 H 0.66501 0.59195 0.04635 0.0
H1498 H 0.66278 0.58858 0.98401 0.0
H1499 H 0.68205 0.59624 0.00998 0.0
H1500 H 0.68632 0.57308 0.97481 0.0
H1501 H 0.667 0.56531 0.94815 0.0
H1502 H 0.67208 0.55292 0.98596 0.0
H1503 H 0.63323 0.53674 0.12905 0.0
H1504 H 0.6091 0.53374 0.08673 0.0
H1505 H 0.63823 0.5646 0.97704 0.0
C1506 C 0.69047 0.57959 0.08242 0.0
C1507 C 0.69493 0.57859 0.12887 0.0
C1508 C 0.68428 0.56687 0.15908 0.0
C1509 C 0.66892 0.55666 0.14347 0.0
C1510 C 0.66461 0.55835 0.09761 0.0
C1511 C 0.67523 0.56947 0.06741 0.0
C1512 C 0.66733 0.57085 0.02273 0.0
C1513 C 0.66941 0.5879 0.01542 0.0
C1514 C 0.67355 0.5652 0.98041 0.0
C1515 C 0.65037 0.5595 0.03342 0.0
C1516 C 0.649 0.55201 0.07608 0.0
C1517 C 0.63422 0.54224 0.09514 0.0
C1518 C 0.62056 0.54054 0.07083 0.0
C1519 C 0.62187 0.54886 0.02853 0.0
C1520 C 0.63693 0.55794 0.009 0.0
H1521 H 0.05409 0.4089 0.52852 0.0
H1522 H 0.06319 0.44607 0.42688 0.0
H1523 H 0.08116 0.43789 0.384 0.0
H1524 H 0.09416 0.40768 0.51943 0.0
H1525 H 0.08437 0.38643 0.52507 0.0
H1526 H 0.07666 0.39837 0.5551 0.0
H1527 H 0.04946 0.38213 0.51558 0.0
H1528 H 0.0571 0.3704 0.48495 0.0
H1529 H 0.04825 0.38087 0.45252 0.0
H1530 H 0.09303 0.42167 0.34267 0.0
H1531 H 0.09775 0.3996 0.30964 0.0
H1532 H 0.07883 0.37257 0.43601 0.0
C1533 C 0.06049 0.41583 0.49858 0.0
C1534 C 0.05736 0.42814 0.48116 0.0
C1535 C 0.06564 0.43673 0.44125 0.0
C1536 C 0.07583 0.43212 0.41656 0.0
C1537 C 0.07771 0.41905 0.43269 0.0
C1538 C 0.07044 0.41122 0.47343 0.0
C1539 C 0.07203 0.39606 0.47964 0.0
C1540 C 0.08243 0.39721 0.52232 0.0
C1541 C 0.05575 0.38153 0.48332 0.0
C1542 C 0.08031 0.39596 0.43452 0.0
C1543 C 0.08402 0.40951 0.40837 0.0
C1544 C 0.09052 0.41121 0.36341 0.0
C1545 C 0.0931 0.39867 0.3448 0.0
C1546 C 0.08874 0.38461 0.37083 0.0
C1547 C 0.08253 0.38341 0.41617 0.0
H1548 H 0.59669 0.70114 0.43186 0.0
H1549 H 0.5557 0.69527 0.35032 0.0
H1550 H 0.5414 0.6675 0.37914 0.0
H1551 H 0.59532 0.66482 0.40968 0.0
H1552 H 0.60174 0.66231 0.46726 0.0
H1553 H 0.60744 0.68188 0.44464 0.0
H1554 H 0.59527 0.68878 0.51754 0.0
H1555 H 0.58948 0.66915 0.54042 0.0
H1556 H 0.5749 0.67645 0.53252 0.0
H1557 H 0.53333 0.63907 0.40999 0.0
H1558 H 0.53244 0.61377 0.43858 0.0
H1559 H 0.57874 0.63977 0.50123 0.0
C1560 C 0.58461 0.69409 0.42045 0.0
C1561 C 0.57729 0.70021 0.38859 0.0
C1562 C 0.56146 0.69073 0.37483 0.0
C1563 C 0.55329 0.675 0.3911 0.0
C1564 C 0.56107 0.6692 0.42185 0.0
C1565 C 0.57635 0.67865 0.43674 0.0
C1566 C 0.58267 0.66968 0.46734 0.0
C1567 C 0.59767 0.66967 0.44592 0.0
C1568 C 0.58576 0.67642 0.51742 0.0
C1569 C 0.56887 0.65343 0.46589 0.0
C1570 C 0.55638 0.65329 0.44011 0.0
C1571 C 0.54292 0.63915 0.43097 0.0
C1572 C 0.54248 0.62484 0.44747 0.0
C1573 C 0.55548 0.62485 0.47236 0.0
C1574 C 0.56854 0.63939 0.48276 0.0
H1575 H 0.30019 0.92388 0.37624 0.0
H1576 H 0.29395 0.87677 0.33919 0.0
H1577 H 0.32099 0.88357 0.36881 0.0
H1578 H 0.34173 0.94527 0.34856 0.0
H1579 H 0.34548 0.95852 0.39762 0.0
H1580 H 0.32634 0.95 0.36998 0.0
H1581 H 0.3133 0.93892 0.4504 0.0
H1582 H 0.33242 0.94719 0.47812 0.0
H1583 H 0.31952 0.92631 0.48326 0.0
H1584 H 0.34929 0.89622 0.40479 0.0
H1585 H 0.37516 0.91314 0.4423 0.0
H1586 H 0.36063 0.9506 0.45885 0.0
C1587 C 0.30454 0.91502 0.3735 0.0
C1588 C 0.29504 0.89985 0.35494 0.0
C1589 C 0.30112 0.88854 0.35288 0.0
C1590 C 0.31643 0.89228 0.36978 0.0
C1591 C 0.32535 0.90732 0.38892 0.0
C1592 C 0.31954 0.91846 0.39069 0.0
C1593 C 0.33091 0.93351 0.41455 0.0
C1594 C 0.33644 0.94765 0.38064 0.0
C1595 C 0.3236 0.93665 0.45922 0.0
C1596 C 0.34412 0.92921 0.42611 0.0
C1597 C 0.3409 0.91414 0.41093 0.0
C1598 C 0.35184 0.908 0.417 0.0
C1599 C 0.36645 0.91763 0.43848 0.0
C1600 C 0.36983 0.9331 0.45401 0.0
C1601 C 0.35837 0.93875 0.44805 0.0
H1602 H 0.63436 0.98477 0.96444 0.0
H1603 H 0.59196 0.94212 0.99793 0.0
H1604 H 0.60519 0.92583 0.97229 0.0
H1605 H 0.64375 0.96994 0.86022 0.0
H1606 H 0.66483 0.9801 0.86926 0.0
H1607 H 0.6523 0.9883 0.8925 0.0
H1608 H 0.66359 0.98884 0.97566 0.0
H1609 H 0.6762 0.98068 0.95267 0.0
H1610 H 0.66284 0.97087 1.00013 0.0
H1611 H 0.62314 0.91433 0.94257 0.0
H1612 H 0.64397 0.90836 0.90846 0.0
H1613 H 0.67421 0.95866 0.89169 0.0
C1614 C 0.62789 0.972 0.96683 0.0
C1615 C 0.61218 0.96467 0.98349 0.0
C1616 C 0.60403 0.94794 0.98542 0.0
C1617 C 0.61146 0.93862 0.97099 0.0
C1618 C 0.62695 0.94624 0.95446 0.0
C1619 C 0.63505 0.96256 0.95214 0.0
C1620 C 0.65139 0.96785 0.93146 0.0
C1621 C 0.65316 0.97709 0.88564 0.0
C1622 C 0.66426 0.97764 0.96712 0.0
C1623 C 0.65125 0.95196 0.92236 0.0
C1624 C 0.6371 0.93964 0.9362 0.0
C1625 C 0.63425 0.92388 0.93156 0.0
C1626 C 0.64615 0.92061 0.91219 0.0
C1627 C 0.66067 0.93305 0.89731 0.0
C1628 C 0.6632 0.94891 0.90254 0.0
H1629 H 0.09003 0.68841 0.82274 0.0
H1630 H 0.1296 0.71124 0.91759 0.0
H1631 H 0.12381 0.68513 0.95264 0.0
H1632 H 0.06463 0.66509 0.90245 0.0
H1633 H 0.05436 0.64811 0.86519 0.0
H1634 H 0.064 0.66753 0.83993 0.0
H1635 H 0.08048 0.65841 0.78582 0.0
H1636 H 0.07068 0.63879 0.81046 0.0
H1637 H 0.09196 0.64928 0.81102 0.0
H1638 H 0.11048 0.65676 0.98598 0.0
H1639 H 0.09122 0.62993 0.013 0.0
H1640 H 0.06019 0.62717 0.89791 0.0
C1641 C 0.09788 0.68786 0.84962 0.0
C1642 C 0.11032 0.70179 0.86722 0.0
C1643 C 0.12015 0.70065 0.90307 0.0
C1644 C 0.1169 0.68586 0.92326 0.0
C1645 C 0.10391 0.6724 0.90675 0.0
C1646 C 0.09472 0.67333 0.87014 0.0
C1647 C 0.08023 0.65782 0.86251 0.0
C1648 C 0.06492 0.65977 0.86789 0.0
C1649 C 0.08088 0.65065 0.81461 0.0
C1650 C 0.08219 0.64819 0.90198 0.0
C1651 C 0.09608 0.65652 0.92659 0.0
C1652 C 0.09972 0.65009 0.96641 0.0
C1653 C 0.08877 0.6349 0.98159 0.0
C1654 C 0.07428 0.62668 0.95757 0.0
C1655 C 0.0712 0.63331 0.91694 0.0
H1656 H 0.35555 0.4113 0.9818 0.0
H1657 H 0.37489 0.461 0.94464 0.0
H1658 H 0.3485 0.45677 0.91545 0.0
H1659 H 0.33327 0.39694 0.88277 0.0
H1660 H 0.31701 0.38087 0.91125 0.0
H1661 H 0.33652 0.38846 0.93595 0.0
H1662 H 0.3261 0.39387 0.01477 0.0
H1663 H 0.30646 0.38614 0.99042 0.0
H1664 H 0.31547 0.40576 0.01537 0.0
H1665 H 0.31985 0.44593 0.8834 0.0
H1666 H 0.2929 0.42966 0.85098 0.0
H1667 H 0.29404 0.38742 0.90713 0.0
C1668 C 0.3542 0.42142 0.96865 0.0
C1669 C 0.36724 0.4365 0.96577 0.0
C1670 C 0.365 0.44936 0.94761 0.0
C1671 C 0.35006 0.44706 0.93093 0.0
C1672 C 0.33752 0.43185 0.93294 0.0
C1673 C 0.33952 0.4193 0.95174 0.0
C1674 C 0.32481 0.40384 0.94646 0.0
C1675 C 0.32811 0.39184 0.91737 0.0
C1676 C 0.3178 0.397 0.99462 0.0
C1677 C 0.31433 0.40946 0.92031 0.0
C1678 C 0.32161 0.42566 0.91347 0.0
C1679 C 0.31406 0.43325 0.88891 0.0
C1680 C 0.2988 0.42397 0.8706 0.0
C1681 C 0.29154 0.40732 0.87618 0.0
C1682 C 0.29939 0.40013 0.90186 0.0
H1683 H 0.94121 0.64252 0.63212 0.0
H1684 H 0.89145 0.60932 0.63069 0.0
H1685 H 0.89804 0.58931 0.5923 0.0
H1686 H 0.94987 0.63352 0.5204 0.0
H1687 H 0.96938 0.63593 0.53543 0.0
H1688 H 0.96083 0.64679 0.56701 0.0
H1689 H 0.96479 0.63518 0.64563 0.0
H1690 H 0.97362 0.62449 0.61437 0.0
H1691 H 0.95693 0.61401 0.65224 0.0
H1692 H 0.91068 0.57329 0.551 0.0
H1693 H 0.92794 0.56312 0.51204 0.0
H1694 H 0.96859 0.60816 0.53763 0.0
C1695 C 0.93168 0.63094 0.62462 0.0
C1696 C 0.91583 0.6274 0.63472 0.0
C1697 C 0.9037 0.6122 0.62362 0.0
C1698 C 0.90734 0.60081 0.60169 0.0
C1699 C 0.92312 0.6049 0.59104 0.0
C1700 C 0.93506 0.61963 0.60241 0.0
C1701 C 0.95097 0.6216 0.58543 0.0
C1702 C 0.95817 0.63526 0.54996 0.0
C1703 C 0.96224 0.62395 0.62688 0.0
C1704 C 0.94619 0.60575 0.56215 0.0
C1705 C 0.93014 0.59613 0.56601 0.0
C1706 C 0.92325 0.58077 0.54771 0.0
C1707 C 0.93309 0.57512 0.5255 0.0
C1708 C 0.94954 0.58493 0.52131 0.0
C1709 C 0.95602 0.60044 0.53957 0.0
H1710 H 0.41448 0.35576 0.5187 0.0
H1711 H 0.46521 0.37291 0.53158 0.0
H1712 H 0.46099 0.34684 0.56412 0.0
H1713 H 0.4047 0.33578 0.62499 0.0
H1714 H 0.38671 0.31978 0.60383 0.0
H1715 H 0.39404 0.33898 0.57694 0.0
H1716 H 0.39405 0.3265 0.49586 0.0
H1717 H 0.38667 0.30721 0.52258 0.0
H1718 H 0.40461 0.31469 0.48861 0.0
H1719 H 0.45034 0.31841 0.59968 0.0
H1720 H 0.4346 0.29205 0.63674 0.0
H1721 H 0.39152 0.2955 0.60172 0.0
C1722 C 0.42477 0.35401 0.52754 0.0
C1723 C 0.44018 0.36632 0.5223 0.0
C1724 C 0.45329 0.36357 0.53501 0.0
C1725 C 0.45098 0.34881 0.55347 0.0
C1726 C 0.43552 0.33697 0.55891 0.0
C1727 C 0.42268 0.33952 0.54614 0.0
C1728 C 0.40722 0.32557 0.55813 0.0
C1729 C 0.39761 0.33032 0.59305 0.0
C1730 C 0.39758 0.31805 0.51364 0.0
C1731 C 0.41326 0.3148 0.58052 0.0
C1732 C 0.42958 0.32131 0.58023 0.0
C1733 C 0.43756 0.31325 0.59991 0.0
C1734 C 0.42858 0.29831 0.6208 0.0
C1735 C 0.4119 0.29188 0.62249 0.0
C1736 C 0.40428 0.30021 0.60149 0.0
H1737 H 0.6321 0.06984 0.60349 0.0
H1738 H 0.63081 0.09781 0.48479 0.0
H1739 H 0.65567 0.12026 0.51289 0.0
H1740 H 0.65013 0.10317 0.68995 0.0
H1741 H 0.66148 0.09405 0.71608 0.0
H1742 H 0.64233 0.08188 0.69103 0.0
H1743 H 0.65481 0.06805 0.63816 0.0
H1744 H 0.67393 0.08015 0.6627 0.0
H1745 H 0.67104 0.07989 0.60021 0.0
H1746 H 0.68319 0.13761 0.54799 0.0
H1747 H 0.70971 0.14759 0.58485 0.0
H1748 H 0.69179 0.10776 0.68036 0.0
C1749 C 0.63683 0.08089 0.58416 0.0
C1750 C 0.62968 0.08225 0.54222 0.0
C1751 C 0.63612 0.09672 0.51739 0.0
C1752 C 0.6502 0.10946 0.53315 0.0
C1753 C 0.65733 0.10751 0.57413 0.0
C1754 C 0.65063 0.09358 0.59955 0.0
C1755 C 0.66112 0.0935 0.63941 0.0
C1756 C 0.6533 0.09313 0.68693 0.0
C1757 C 0.66548 0.07959 0.63478 0.0
C1758 C 0.67524 0.10924 0.63136 0.0
C1759 C 0.67284 0.11737 0.59418 0.0
C1760 C 0.68501 0.1315 0.57778 0.0
C1761 C 0.70002 0.13713 0.59898 0.0
C1762 C 0.70272 0.12848 0.63563 0.0
C1763 C 0.69001 0.11471 0.6528 0.0
H1764 H 0.67331 0.71017 0.80363 0.0
H1765 H 0.70989 0.75802 0.82586 0.0
H1766 H 0.72932 0.75091 0.78702 0.0
H1767 H 0.69823 0.68992 0.82092 0.0
H1768 H 0.68818 0.67551 0.77587 0.0
H1769 H 0.67766 0.68422 0.80857 0.0
H1770 H 0.66988 0.69314 0.73075 0.0
H1771 H 0.6806 0.68472 0.69786 0.0
H1772 H 0.68516 0.70531 0.69051 0.0
H1773 H 0.74438 0.73878 0.74201 0.0
H1774 H 0.7542 0.72216 0.6985 0.0
H1775 H 0.70738 0.68263 0.70464 0.0
C1776 C 0.68547 0.71908 0.80116 0.0
C1777 C 0.69014 0.73462 0.81797 0.0
C1778 C 0.70611 0.74601 0.81347 0.0
C1779 C 0.7172 0.7421 0.79132 0.0
C1780 C 0.71209 0.72677 0.77394 0.0
C1781 C 0.69663 0.71541 0.77901 0.0
C1782 C 0.69399 0.69995 0.75603 0.0
C1783 C 0.68924 0.68662 0.79253 0.0
C1784 C 0.68168 0.69553 0.71644 0.0
C1785 C 0.71035 0.70441 0.73686 0.0
C1786 C 0.72065 0.71991 0.74757 0.0
C1787 C 0.73643 0.72662 0.73352 0.0
C1788 C 0.74187 0.71713 0.70865 0.0
C1789 C 0.73152 0.70116 0.69802 0.0
C1790 C 0.71554 0.69484 0.71192 0.0
H1791 H 0.2354 0.95712 0.73353 0.0
H1792 H 0.2084 0.96593 0.84246 0.0
H1793 H 0.21514 0.99245 0.80799 0.0
H1794 H 0.26644 0.99312 0.73294 0.0
H1795 H 0.26991 0.99421 0.67065 0.0
H1796 H 0.26035 0.97526 0.69869 0.0
H1797 H 0.23656 0.96715 0.64202 0.0
H1798 H 0.24605 0.9862 0.61373 0.0
H1799 H 0.22639 0.97941 0.63723 0.0
H1800 H 0.22939 0.01982 0.76962 0.0
H1801 H 0.24927 0.04445 0.73295 0.0
H1802 H 0.26537 0.01657 0.64682 0.0
C1803 C 0.2305 0.96447 0.74918 0.0
C1804 C 0.22136 0.95961 0.79027 0.0
C1805 C 0.21527 0.96948 0.81051 0.0
C1806 C 0.21904 0.98451 0.79109 0.0
C1807 C 0.22855 0.98919 0.75097 0.0
C1808 C 0.23393 0.97925 0.72989 0.0
C1809 C 0.24521 0.98736 0.69019 0.0
C1810 C 0.26142 0.9875 0.69868 0.0
C1811 C 0.23812 0.97956 0.643 0.0
C1812 C 0.24616 0.00377 0.69373 0.0
C1813 C 0.2363 0.00464 0.72835 0.0
C1814 C 0.23679 0.01916 0.74159 0.0
C1815 C 0.24806 0.03311 0.72036 0.0
C1816 C 0.25874 0.03239 0.68667 0.0
C1817 C 0.25717 0.01747 0.67183 0.0
H1818 H 0.01432 0.25999 0.84929 0.0
H1819 H 0.04618 0.25275 0.75366 0.0
H1820 H 0.02334 0.23486 0.70588 0.0
H1821 H 0.97953 0.21873 0.83527 0.0
H1822 H 0.96566 0.22708 0.83875 0.0
H1823 H 0.98391 0.2359 0.87138 0.0
H1824 H 0.99061 0.26294 0.83259 0.0
H1825 H 0.97255 0.25431 0.79968 0.0
H1826 H 0.99116 0.26442 0.76954 0.0
H1827 H 0.99814 0.22381 0.65869 0.0
H1828 H 0.97276 0.21901 0.62041 0.0
H1829 H 0.95713 0.23216 0.74847 0.0
C1830 C 0.01641 0.25404 0.81949 0.0
C1831 C 0.03197 0.25762 0.80534 0.0
C1832 C 0.03433 0.24994 0.76558 0.0
C1833 C 0.02141 0.2398 0.73815 0.0
C1834 C 0.00621 0.23719 0.75164 0.0
C1835 C 0.00365 0.24381 0.79215 0.0
C1836 C 0.98656 0.24088 0.79615 0.0
C1837 C 0.97844 0.22999 0.83786 0.0
C1838 C 0.98516 0.25656 0.79964 0.0
C1839 C 0.98012 0.23252 0.75012 0.0
C1840 C 0.99152 0.23024 0.7251 0.0
C1841 C 0.98893 0.2249 0.6787 0.0
C1842 C 0.97451 0.22216 0.65719 0.0
C1843 C 0.96291 0.22463 0.68234 0.0
C1844 C 0.96561 0.22948 0.72951 0.0
H1845 H 0.28776 0.24926 0.21806 0.0
H1846 H 0.33389 0.28968 0.20446 0.0
H1847 H 0.32383 0.30664 0.24277 0.0
H1848 H 0.26537 0.27203 0.19392 0.0
H1849 H 0.24983 0.2609 0.23478 0.0
H1850 H 0.26056 0.25161 0.20604 0.0
H1851 H 0.2676 0.24406 0.28709 0.0
H1852 H 0.25716 0.25362 0.31607 0.0
H1853 H 0.27763 0.25938 0.32983 0.0
H1854 H 0.3101 0.31899 0.28644 0.0
H1855 H 0.2915 0.32782 0.32062 0.0
H1856 H 0.25317 0.28053 0.30286 0.0
C1857 C 0.29562 0.26172 0.22258 0.0
C1858 C 0.31164 0.26809 0.20851 0.0
C1859 C 0.32159 0.28447 0.21498 0.0
C1860 C 0.31604 0.29423 0.23705 0.0
C1861 C 0.30042 0.28755 0.25193 0.0
C1862 C 0.29017 0.27183 0.24404 0.0
C1863 C 0.27374 0.26808 0.26212 0.0
C1864 C 0.26166 0.26285 0.22181 0.0
C1865 C 0.26874 0.25554 0.30109 0.0
C1866 C 0.27651 0.28415 0.28143 0.0
C1867 C 0.2921 0.29505 0.27576 0.0
C1868 C 0.2978 0.31065 0.29074 0.0
C1869 C 0.28713 0.31552 0.31033 0.0
C1870 C 0.27088 0.30489 0.3142 0.0
C1871 C 0.26555 0.28888 0.30063 0.0
H1872 H 0.72717 0.97677 0.27947 0.0
H1873 H 0.67667 0.96097 0.26341 0.0
H1874 H 0.68196 0.9863 0.22394 0.0
H1875 H 0.73785 0.01745 0.30316 0.0
H1876 H 0.75608 0.02456 0.27063 0.0
H1877 H 0.74807 0.00526 0.29734 0.0
H1878 H 0.74843 0.99269 0.21658 0.0
H1879 H 0.75635 0.01199 0.18974 0.0
H1880 H 0.73837 0.99624 0.16755 0.0
H1881 H 0.69301 0.01371 0.18792 0.0
H1882 H 0.70868 0.04125 0.16115 0.0
H1883 H 0.75194 0.0384 0.1985 0.0
C1884 C 0.71717 0.97865 0.26807 0.0
C1885 C 0.70148 0.96697 0.2749 0.0
C1886 C 0.68877 0.96983 0.25885 0.0
C1887 C 0.69168 0.98412 0.23619 0.0
C1888 C 0.70735 0.99529 0.22949 0.0
C1889 C 0.71986 0.9927 0.24505 0.0
C1890 C 0.7356 0.00654 0.23384 0.0
C1891 C 0.74494 0.01389 0.27892 0.0
C1892 C 0.74525 0.00156 0.19992 0.0
C1893 C 0.73002 0.01756 0.2103 0.0
C1894 C 0.71369 0.01082 0.20784 0.0
C1895 C 0.70579 0.01903 0.18935 0.0
C1896 C 0.7148 0.03465 0.17413 0.0
C1897 C 0.73153 0.0419 0.17736 0.0
C1898 C 0.7392 0.03308 0.19479 0.0
H1899 H 0.02335 0.7371 0.31135 0.0
H1900 H 0.0422 0.78787 0.29129 0.0
H1901 H 0.0169 0.7839 0.25368 0.0
H1902 H 0.00441 0.72604 0.20265 0.0
H1903 H 0.98787 0.7087 0.22488 0.0
H1904 H 0.00681 0.71589 0.25335 0.0
H1905 H 0.99416 0.71783 0.33233 0.0
H1906 H 0.97513 0.71046 0.30423 0.0
H1907 H 0.98286 0.72904 0.33533 0.0
H1908 H 0.98886 0.77345 0.21629 0.0
H1909 H 0.96193 0.7579 0.18313 0.0
H1910 H 0.96362 0.71445 0.22559 0.0
C1911 C 0.02218 0.74748 0.29971 0.0
C1912 C 0.03471 0.76282 0.30452 0.0
C1913 C 0.03268 0.77602 0.28825 0.0
C1914 C 0.01838 0.77385 0.26678 0.0
C1915 C 0.00635 0.75843 0.26182 0.0
C1916 C 0.00821 0.74552 0.27802 0.0
C1917 C 0.99404 0.73008 0.26714 0.0
C1918 C 0.99856 0.71957 0.2351 0.0
C1919 C 0.98608 0.72135 0.31245 0.0
C1920 C 0.98384 0.73619 0.24177 0.0
C1921 C 0.99092 0.75255 0.23928 0.0
C1922 C 0.98329 0.76064 0.21798 0.0
C1923 C 0.96805 0.75175 0.19915 0.0
C1924 C 0.9608 0.73498 0.20123 0.0
C1925 C 0.96892 0.72724 0.22269 0.0
H1926 H 0.35058 0.07765 0.00792 0.0
H1927 H 0.30434 0.05418 0.07268 0.0
H1928 H 0.2923 0.04477 0.99467 0.0
H1929 H 0.33969 0.09229 0.91296 0.0
H1930 H 0.35256 0.08942 0.87135 0.0
H1931 H 0.35772 0.09193 0.93241 0.0
H1932 H 0.35974 0.06542 0.9322 0.0
H1933 H 0.35448 0.06265 0.87101 0.0
H1934 H 0.34314 0.04755 0.91289 0.0
H1935 H 0.28506 0.04238 0.91 0.0
H1936 H 0.28315 0.04592 0.82485 0.0
H1937 H 0.33423 0.06956 0.81487 0.0
C1938 C 0.33796 0.07022 0.00576 0.0
C1939 C 0.32833 0.06664 0.04605 0.0
C1940 C 0.31188 0.05695 0.04209 0.0
C1941 C 0.30499 0.05154 0.99802 0.0
C1942 C 0.31478 0.05567 0.95869 0.0
C1943 C 0.33096 0.06458 0.96226 0.0
C1944 C 0.33872 0.06856 0.91451 0.0
C1945 C 0.34769 0.08661 0.90742 0.0
C1946 C 0.34966 0.06056 0.90723 0.0
C1947 C 0.3243 0.06124 0.88332 0.0
C1948 C 0.31062 0.05371 0.90951 0.0
C1949 C 0.29569 0.0478 0.88904 0.0
C1950 C 0.29471 0.04991 0.8408 0.0
C1951 C 0.30857 0.05773 0.81364 0.0
C1952 C 0.32353 0.06307 0.83486 0.0
H1953 H 0.9257 0.24385 0.99423 0.0
H1954 H 0.90182 0.2739 0.98557 0.0
H1955 H 0.90965 0.27959 0.90271 0.0
H1956 H 0.95797 0.2654 0.90636 0.0
H1957 H 0.95652 0.24711 0.88223 0.0
H1958 H 0.95232 0.24824 0.94337 0.0
H1959 H 0.9247 0.22441 0.93288 0.0
H1960 H 0.92893 0.22323 0.87203 0.0
H1961 H 0.91151 0.22534 0.88854 0.0
H1962 H 0.91754 0.27991 0.81918 0.0
H1963 H 0.92157 0.27181 0.7396 0.0
H1964 H 0.93812 0.23971 0.80061 0.0
C1965 C 0.92257 0.25198 0.97506 0.0
C1966 C 0.91347 0.25871 0.99626 0.0
C1967 C 0.909 0.26882 0.96994 0.0
C1968 C 0.91347 0.2722 0.92296 0.0
C1969 C 0.92221 0.26517 0.90257 0.0
C1970 C 0.92656 0.25511 0.92759 0.0
C1971 C 0.93368 0.24712 0.89561 0.0
C1972 C 0.95116 0.25228 0.90762 0.0
C1973 C 0.92413 0.22896 0.89737 0.0
C1974 C 0.93199 0.25372 0.84867 0.0
C1975 C 0.9259 0.26456 0.85358 0.0
C1976 C 0.9225 0.27159 0.81486 0.0
C1977 C 0.92486 0.26699 0.76986 0.0
C1978 C 0.93014 0.2552 0.76432 0.0
C1979 C 0.93415 0.24884 0.80414 0.0
H1980 H 0.74215 0.65049 0.00887 0.0
H1981 H 0.72159 0.59934 0.99624 0.0
H1982 H 0.7187 0.60144 0.91085 0.0
H1983 H 0.71885 0.65749 0.91611 0.0
H1984 H 0.73542 0.67518 0.89581 0.0
H1985 H 0.73416 0.66955 0.95657 0.0
H1986 H 0.76184 0.6701 0.95113 0.0
H1987 H 0.76316 0.67571 0.89045 0.0
H1988 H 0.76541 0.65834 0.90704 0.0
H1989 H 0.7192 0.6092 0.82604 0.0
H1990 H 0.72465 0.62225 0.74819 0.0
H1991 H 0.74621 0.66819 0.81634 0.0
C1992 C 0.7368 0.63976 0.98812 0.0
C1993 C 0.73201 0.62477 0.00892 0.0
C1994 C 0.72536 0.61095 0.98075 0.0
C1995 C 0.72359 0.61201 0.93231 0.0
C1996 C 0.72868 0.62699 0.91257 0.0
C1997 C 0.73524 0.64062 0.93954 0.0
C1998 C 0.74097 0.65529 0.90926 0.0
C1999 C 0.7318 0.66495 0.92009 0.0
C2000 C 0.75891 0.66545 0.9148 0.0
C2001 C 0.73686 0.64778 0.86115 0.0
C2002 C 0.72953 0.63145 0.86372 0.0
C2003 C 0.72488 0.622 0.82357 0.0
C2004 C 0.72799 0.62947 0.77959 0.0
C2005 C 0.7359 0.64617 0.7764 0.0
C2006 C 0.7402 0.65537 0.81776 0.0
H2007 H 0.05396 0.29554 0.68473 0.0
H2008 H 0.06968 0.34225 0.7457 0.0
H2009 H 0.07221 0.35368 0.66622 0.0
H2010 H 0.07936 0.30546 0.59475 0.0
H2011 H 0.06607 0.29247 0.55121 0.0
H2012 H 0.06251 0.28753 0.61223 0.0
H2013 H 0.03444 0.28586 0.60535 0.0
H2014 H 0.03777 0.29054 0.54386 0.0
H2015 H 0.03198 0.3024 0.58172 0.0
H2016 H 0.07921 0.36035 0.58243 0.0
H2017 H 0.08634 0.36166 0.49899 0.0
H2018 H 0.06324 0.31043 0.49042 0.0
C2019 C 0.05738 0.3081 0.68124 0.0
C2020 C 0.06161 0.31809 0.72092 0.0
C2021 C 0.06621 0.33445 0.71553 0.0
C2022 C 0.06771 0.341 0.6706 0.0
C2023 C 0.0641 0.33091 0.63191 0.0
C2024 C 0.05857 0.31473 0.63682 0.0
C2025 C 0.05667 0.30663 0.58973 0.0
C2026 C 0.06676 0.2975 0.58685 0.0
C2027 C 0.03917 0.29571 0.57956 0.0
C2028 C 0.06295 0.32088 0.55765 0.0
C2029 C 0.06714 0.33477 0.58274 0.0
C2030 C 0.07537 0.34957 0.56209 0.0
C2031 C 0.07939 0.3502 0.51471 0.0
C2032 C 0.07485 0.33616 0.48817 0.0
C2033 C 0.06631 0.32132 0.50971 0.0
H2034 H 0.65584 0.74797 0.68128 0.0
H2035 H 0.60981 0.7305 0.74765 0.0
H2036 H 0.59762 0.73015 0.67063 0.0
H2037 H 0.65096 0.77356 0.6007 0.0
H2038 H 0.66109 0.76941 0.55302 0.0
H2039 H 0.66615 0.76735 0.61263 0.0
H2040 H 0.66057 0.73824 0.59664 0.0
H2041 H 0.65572 0.74027 0.53672 0.0
H2042 H 0.64171 0.72464 0.57272 0.0
H2043 H 0.59097 0.73421 0.58849 0.0
H2044 H 0.58951 0.73929 0.50443 0.0
H2045 H 0.63967 0.75283 0.49 0.0
C2046 C 0.64315 0.74384 0.67945 0.0
C2047 C 0.63373 0.73927 0.7203 0.0
C2048 C 0.6172 0.73395 0.71667 0.0
C2049 C 0.6102 0.73378 0.67317 0.0
C2050 C 0.61989 0.73875 0.63372 0.0
C2051 C 0.63596 0.74339 0.63626 0.0
C2052 C 0.64371 0.74827 0.58862 0.0
C2053 C 0.65621 0.76568 0.58878 0.0
C2054 C 0.65084 0.73719 0.57274 0.0
C2055 C 0.62954 0.746 0.55901 0.0
C2056 C 0.61595 0.74058 0.58586 0.0
C2057 C 0.60148 0.73826 0.567 0.0
C2058 C 0.60082 0.74131 0.51927 0.0
C2059 C 0.61449 0.74648 0.49075 0.0
C2060 C 0.62904 0.74884 0.51097 0.0
H2061 H 0.24083 0.92955 0.67879 0.0
H2062 H 0.2456 0.89027 0.74409 0.0
H2063 H 0.25028 0.88161 0.66608 0.0
H2064 H 0.21897 0.90874 0.58337 0.0
H2065 H 0.22784 0.92453 0.54136 0.0
H2066 H 0.22728 0.92911 0.60234 0.0
H2067 H 0.25766 0.9458 0.60317 0.0
H2068 H 0.25835 0.94151 0.54188 0.0
H2069 H 0.27018 0.93703 0.58353 0.0
H2070 H 0.25135 0.87559 0.58081 0.0
H2071 H 0.25024 0.87321 0.4949 0.0
H2072 H 0.24436 0.91631 0.48427 0.0
C2073 C 0.24332 0.91938 0.67693 0.0
C2074 C 0.243 0.91064 0.71765 0.0
C2075 C 0.246 0.89724 0.71351 0.0
C2076 C 0.2486 0.89222 0.66931 0.0
C2077 C 0.24823 0.90077 0.62972 0.0
C2078 C 0.24585 0.91419 0.63317 0.0
C2079 C 0.2449 0.92064 0.58512 0.0
C2080 C 0.22879 0.92075 0.57764 0.0
C2081 C 0.25859 0.93723 0.57801 0.0
C2082 C 0.2467 0.90851 0.55388 0.0
C2083 C 0.24872 0.89723 0.58042 0.0
C2084 C 0.24998 0.88446 0.55975 0.0
C2085 C 0.24925 0.88319 0.5108 0.0
C2086 C 0.24723 0.89459 0.48269 0.0
C2087 C 0.24599 0.90745 0.5047 0.0
H2088 H 0.71266 0.94488 0.17443 0.0
H2089 H 0.72749 0.90809 0.19876 0.0
H2090 H 0.73671 0.91055 0.11628 0.0
H2091 H 0.69573 0.93249 0.07181 0.0
H2092 H 0.70156 0.95158 0.04483 0.0
H2093 H 0.70022 0.94982 0.10734 0.0
H2094 H 0.72929 0.97099 0.11521 0.0
H2095 H 0.73075 0.97291 0.05231 0.0
H2096 H 0.7447 0.96841 0.08458 0.0
H2097 H 0.73781 0.91243 0.02864 0.0
H2098 H 0.73127 0.91375 0.9455 0.0
H2099 H 0.71692 0.95038 0.97911 0.0
C2100 C 0.7184 0.93777 0.16266 0.0
C2101 C 0.71944 0.92632 0.1923 0.0
C2102 C 0.72681 0.91704 0.17632 0.0
C2103 C 0.73208 0.91842 0.12968 0.0
C2104 C 0.73023 0.92941 0.10042 0.0
C2105 C 0.72385 0.93917 0.11675 0.0
C2106 C 0.72111 0.94848 0.07759 0.0
C2107 C 0.70363 0.94539 0.07527 0.0
C2108 C 0.73213 0.96625 0.08272 0.0
C2109 C 0.72569 0.94151 0.03592 0.0
C2110 C 0.73131 0.93082 0.04975 0.0
C2111 C 0.73396 0.92115 0.0174 0.0
C2112 C 0.73018 0.92195 0.97023 0.0
C2113 C 0.72377 0.93231 0.95597 0.0
C2114 C 0.72224 0.9427 0.98889 0.0
H2115 H 0.10213 0.76533 0.20124 0.0
H2116 H 0.05739 0.72431 0.22511 0.0
H2117 H 0.0565 0.71681 0.14122 0.0
H2118 H 0.09367 0.77579 0.09221 0.0
H2119 H 0.11309 0.78163 0.06788 0.0
H2120 H 0.11074 0.78288 0.13007 0.0
H2121 H 0.12484 0.76512 0.1454 0.0
H2122 H 0.12753 0.76407 0.08324 0.0
H2123 H 0.11774 0.74612 0.11682 0.0
H2124 H 0.0594 0.71601 0.05187 0.0
H2125 H 0.06764 0.71969 0.96834 0.0
H2126 H 0.11108 0.76049 0.00659 0.0
C2127 C 0.09232 0.75457 0.18897 0.0
C2128 C 0.07985 0.74533 0.21921 0.0
C2129 C 0.06714 0.73138 0.20227 0.0
C2130 C 0.0665 0.72714 0.15474 0.0
C2131 C 0.07881 0.73685 0.12531 0.0
C2132 C 0.09166 0.75007 0.14221 0.0
C2133 C 0.10332 0.75871 0.10388 0.0
C2134 C 0.10531 0.77575 0.0982 0.0
C2135 C 0.1193 0.75848 0.11287 0.0
C2136 C 0.0949 0.74855 0.06234 0.0
C2137 C 0.08073 0.73605 0.07505 0.0
C2138 C 0.07059 0.72561 0.04173 0.0
C2139 C 0.07528 0.72785 0.99444 0.0
C2140 C 0.09 0.74031 0.98134 0.0
C2141 C 0.09983 0.75077 0.01577 0.0
H2142 H 0.25008 0.35665 0.1862 0.0
H2143 H 0.23692 0.30643 0.17298 0.0
H2144 H 0.23752 0.30882 0.08684 0.0
H2145 H 0.22613 0.35838 0.09343 0.0
H2146 H 0.23999 0.37773 0.07336 0.0
H2147 H 0.23995 0.37242 0.13394 0.0
H2148 H 0.26968 0.37907 0.12834 0.0
H2149 H 0.26982 0.38447 0.06772 0.0
H2150 H 0.27619 0.36969 0.08381 0.0
H2151 H 0.23879 0.3165 0.00202 0.0
H2152 H 0.23956 0.32887 0.92481 0.0
H2153 H 0.25068 0.37363 0.99409 0.0
C2154 C 0.24755 0.34623 0.16511 0.0
C2155 C 0.24352 0.33139 0.18608 0.0
C2156 C 0.24002 0.31793 0.15747 0.0
C2157 C 0.24038 0.31917 0.10856 0.0
C2158 C 0.2442 0.33393 0.08886 0.0
C2159 C 0.24768 0.34722 0.11619 0.0
C2160 C 0.2505 0.36147 0.08627 0.0
C2161 C 0.23842 0.36787 0.09742 0.0
C2162 C 0.26756 0.37444 0.09188 0.0
C2163 C 0.2478 0.35405 0.03805 0.0
C2164 C 0.24441 0.33821 0.04014 0.0
C2165 C 0.24145 0.3289 0.99989 0.0
C2166 C 0.2419 0.33599 0.95629 0.0
C2167 C 0.24504 0.35211 0.95369 0.0
C2168 C 0.24809 0.36121 0.99511 0.0
H2169 H 0.91579 0.66583 0.50183 0.0
H2170 H 0.92686 0.71108 0.56746 0.0
H2171 H 0.92819 0.72303 0.48926 0.0
H2172 H 0.94112 0.68244 0.39599 0.0
H2173 H 0.92704 0.66709 0.35925 0.0
H2174 H 0.92918 0.66304 0.41986 0.0
H2175 H 0.89911 0.65372 0.43186 0.0
H2176 H 0.89693 0.65813 0.37176 0.0
H2177 H 0.89064 0.66704 0.41815 0.0
H2178 H 0.92419 0.72865 0.4049 0.0
H2179 H 0.91909 0.72858 0.31968 0.0
H2180 H 0.91153 0.67971 0.31107 0.0
C2181 C 0.91893 0.67836 0.49955 0.0
C2182 C 0.92123 0.68761 0.54012 0.0
C2183 C 0.92524 0.70392 0.53636 0.0
C2184 C 0.92592 0.71075 0.49225 0.0
C2185 C 0.92289 0.7011 0.45278 0.0
C2186 C 0.91989 0.68536 0.45604 0.0
C2187 C 0.91638 0.67731 0.40884 0.0
C2188 C 0.9292 0.67217 0.39518 0.0
C2189 C 0.89978 0.66323 0.40762 0.0
C2190 C 0.91719 0.69078 0.37867 0.0
C2191 C 0.92098 0.70443 0.40444 0.0
C2192 C 0.92149 0.71812 0.3842 0.0
C2193 C 0.91841 0.71792 0.33606 0.0
C2194 C 0.91495 0.70414 0.30916 0.0
C2195 C 0.91426 0.69044 0.33087 0.0
H2196 H 0.34885 0.22506 0.53667 0.0
H2197 H 0.36336 0.27447 0.56971 0.0
H2198 H 0.36015 0.27982 0.4864 0.0
H2199 H 0.36804 0.23006 0.43296 0.0
H2200 H 0.35286 0.21364 0.40215 0.0
H2201 H 0.35412 0.21312 0.46495 0.0
H2202 H 0.3251 0.20875 0.47316 0.0
H2203 H 0.32355 0.20871 0.41022 0.0
H2204 H 0.31896 0.2222 0.44466 0.0
H2205 H 0.36002 0.28038 0.3979 0.0
H2206 H 0.35732 0.27512 0.31235 0.0
H2207 H 0.34072 0.22497 0.33894 0.0
C2208 C 0.35065 0.23683 0.5265 0.0
C2209 C 0.35607 0.24933 0.5591 0.0
C2210 C 0.35879 0.26472 0.54501 0.0
C2211 C 0.35717 0.26788 0.49782 0.0
C2212 C 0.35245 0.25539 0.4659 0.0
C2213 C 0.34868 0.24006 0.47993 0.0
C2214 C 0.34431 0.22883 0.43871 0.0
C2215 C 0.3555 0.22096 0.43448 0.0
C2216 C 0.32695 0.21639 0.44187 0.0
C2217 C 0.34679 0.24032 0.39913 0.0
C2218 C 0.35166 0.25561 0.41535 0.0
C2219 C 0.35586 0.26841 0.38483 0.0
C2220 C 0.35451 0.26537 0.33648 0.0
C2221 C 0.34881 0.24967 0.31965 0.0
C2222 C 0.34501 0.23705 0.35128 0.0
H2223 H 0.74132 0.12757 0.50232 0.0
H2224 H 0.75506 0.0947 0.57257 0.0
H2225 H 0.75624 0.08295 0.49573 0.0
H2226 H 0.71667 0.1 0.41242 0.0
H2227 H 0.72259 0.11516 0.36806 0.0
H2228 H 0.72202 0.12025 0.42868 0.0
H2229 H 0.75135 0.1411 0.42375 0.0
H2230 H 0.75203 0.13606 0.36324 0.0
H2231 H 0.76607 0.13507 0.40441 0.0
H2232 H 0.75808 0.07653 0.41085 0.0
H2233 H 0.75926 0.0749 0.32471 0.0
H2234 H 0.7432 0.11133 0.31061 0.0
C2235 C 0.74445 0.1178 0.50164 0.0
C2236 C 0.74817 0.11204 0.54325 0.0
C2237 C 0.75215 0.09923 0.54101 0.0
C2238 C 0.75284 0.09251 0.4976 0.0
C2239 C 0.7493 0.09864 0.45713 0.0
C2240 C 0.74503 0.11089 0.45888 0.0
C2241 C 0.74215 0.11561 0.41041 0.0
C2242 C 0.72482 0.11257 0.40456 0.0
C2243 C 0.75358 0.13299 0.39985 0.0
C2244 C 0.74582 0.10433 0.38081 0.0
C2245 C 0.74991 0.09464 0.40843 0.0
C2246 C 0.75469 0.08389 0.38895 0.0
C2247 C 0.75537 0.0831 0.34003 0.0
C2248 C 0.75121 0.09292 0.31117 0.0
C2249 C 0.7462 0.10352 0.33189 0.0
H2250 H 0.00319 0.40622 0.15041 0.0
H2251 H 0.95293 0.37552 0.15772 0.0
H2252 H 0.95532 0.37137 0.2422 0.0
H2253 H 0.01624 0.38644 0.24688 0.0
H2254 H 0.03066 0.40541 0.26794 0.0
H2255 H 0.02588 0.40257 0.20639 0.0
H2256 H 0.01912 0.42643 0.20786 0.0
H2257 H 0.02372 0.42925 0.26923 0.0
H2258 H 0.00456 0.42643 0.24879 0.0
H2259 H 0.96211 0.37425 0.32715 0.0
H2260 H 0.97267 0.38472 0.40581 0.0
H2261 H 0.01824 0.41453 0.3439 0.0
C2262 C 0.9929 0.39804 0.16954 0.0
C2263 C 0.97797 0.3909 0.1478 0.0
C2264 C 0.96452 0.38087 0.17398 0.0
C2265 C 0.96577 0.37841 0.22187 0.0
C2266 C 0.98056 0.38616 0.24305 0.0
C2267 C 0.99392 0.39573 0.21769 0.0
C2268 C 0.00781 0.40472 0.24986 0.0
C2269 C 0.02092 0.39947 0.24231 0.0
C2270 C 0.01416 0.42276 0.24356 0.0
C2271 C 0.99997 0.39934 0.2971 0.0
C2272 C 0.98437 0.3883 0.29251 0.0
C2273 C 0.9744 0.38264 0.33127 0.0
C2274 C 0.98046 0.38866 0.37578 0.0
C2275 C 0.99623 0.40039 0.38081 0.0
C2276 C 0.00615 0.40546 0.34108 0.0
H2277 H 0.56243 0.56796 0.1253 0.0
H2278 H 0.61253 0.59758 0.10576 0.0
H2279 H 0.6148 0.60614 0.18897 0.0
H2280 H 0.55551 0.59477 0.20883 0.0
H2281 H 0.54129 0.57815 0.24123 0.0
H2282 H 0.54362 0.57638 0.17915 0.0
H2283 H 0.54873 0.55189 0.19443 0.0
H2284 H 0.54673 0.55374 0.25646 0.0
H2285 H 0.56451 0.5537 0.23339 0.0
H2286 H 0.61185 0.60792 0.27801 0.0
H2287 H 0.60346 0.60513 0.36135 0.0
H2288 H 0.55518 0.57499 0.3189 0.0
C2289 C 0.57379 0.57662 0.13822 0.0
C2290 C 0.58729 0.58222 0.10948 0.0
C2291 C 0.60202 0.59339 0.12735 0.0
C2292 C 0.60341 0.59821 0.17453 0.0
C2293 C 0.58989 0.59195 0.20262 0.0
C2294 C 0.57529 0.58167 0.18463 0.0
C2295 C 0.56268 0.5759 0.22198 0.0
C2296 C 0.55003 0.58165 0.21221 0.0
C2297 C 0.55524 0.55774 0.22683 0.0
C2298 C 0.5725 0.58403 0.26433 0.0
C2299 C 0.58816 0.59328 0.2528 0.0
C2300 C 0.59955 0.60097 0.2872 0.0
C2301 C 0.59472 0.59924 0.33438 0.0
C2302 C 0.57867 0.58994 0.34641 0.0
C2303 C 0.5675 0.58235 0.31076 0.0
H2304 H 0.43263 0.00568 0.35833 0.0
H2305 H 0.38663 0.96518 0.35625 0.0
H2306 H 0.3839 0.96945 0.27192 0.0
H2307 H 0.42417 0.02983 0.26445 0.0
H2308 H 0.44382 0.03663 0.24089 0.0
H2309 H 0.44044 0.03273 0.30275 0.0
H2310 H 0.45337 0.01356 0.29791 0.0
H2311 H 0.45652 0.01712 0.23609 0.0
H2312 H 0.44556 0.99716 0.25738 0.0
H2313 H 0.38821 0.97508 0.18649 0.0
H2314 H 0.39884 0.98243 0.10624 0.0
H2315 H 0.44235 0.01892 0.16366 0.0
C2316 C 0.4217 0.99829 0.34038 0.0
C2317 C 0.40962 0.98543 0.36337 0.0
C2318 C 0.39577 0.97535 0.3389 0.0
C2319 C 0.39415 0.97767 0.29115 0.0
C2320 C 0.40655 0.9901 0.26863 0.0
C2321 C 0.41999 0.00039 0.29252 0.0
C2322 C 0.43242 0.01145 0.25911 0.0
C2323 C 0.43538 0.02868 0.26729 0.0
C2324 C 0.44787 0.0097 0.26286 0.0
C2325 C 0.4242 0.00525 0.21278 0.0
C2326 C 0.40918 0.99314 0.21897 0.0
C2327 C 0.39982 0.98478 0.18115 0.0
C2328 C 0.40598 0.98895 0.13578 0.0
C2329 C 0.42139 0.00123 0.12887 0.0
C2330 C 0.43048 0.00955 0.16789 0.0
H2331 H 0.59483 0.99414 0.84897 0.0
H2332 H 0.60855 0.03992 0.91465 0.0
H2333 H 0.61079 0.05209 0.83632 0.0
H2334 H 0.62086 0.00912 0.7454 0.0
H2335 H 0.60647 0.99463 0.70721 0.0
H2336 H 0.60739 0.99001 0.76807 0.0
H2337 H 0.57773 0.98313 0.7774 0.0
H2338 H 0.57673 0.98788 0.71682 0.0
H2339 H 0.57096 0.99768 0.76195 0.0
H2340 H 0.60819 0.05834 0.75201 0.0
H2341 H 0.60337 0.05889 0.66707 0.0
H2342 H 0.59282 0.00925 0.65625 0.0
C2343 C 0.59858 0.00678 0.84681 0.0
C2344 C 0.6015 0.01614 0.88762 0.0
C2345 C 0.60637 0.03262 0.88362 0.0
C2346 C 0.60763 0.03958 0.83938 0.0
C2347 C 0.60426 0.02992 0.79979 0.0
C2348 C 0.60011 0.01392 0.80308 0.0
C2349 C 0.5966 0.00602 0.75544 0.0
C2350 C 0.60855 0.99957 0.74332 0.0
C2351 C 0.57949 0.99291 0.75277 0.0
C2352 C 0.59891 0.01996 0.7248 0.0
C2353 C 0.60331 0.03364 0.75107 0.0
C2354 C 0.605 0.04778 0.73103 0.0
C2355 C 0.60213 0.04794 0.68293 0.0
C2356 C 0.59778 0.03411 0.65544 0.0
C2357 C 0.59633 0.02001 0.67653 0.0
H2358 H 0.98459 0.57272 0.65109 0.0
H2359 H 0.02997 0.5897 0.58103 0.0
H2360 H 0.04325 0.5935 0.65809 0.0
H2361 H 0.99859 0.59979 0.75135 0.0
H2362 H 0.9856 0.58516 0.79189 0.0
H2363 H 0.97988 0.58458 0.7314 0.0
H2364 H 0.97592 0.5556 0.72507 0.0
H2365 H 0.98174 0.55611 0.78536 0.0
H2366 H 0.99202 0.55102 0.74008 0.0
H2367 H 0.05119 0.59336 0.74196 0.0
H2368 H 0.05369 0.59118 0.82731 0.0
H2369 H 0.00317 0.57525 0.84333 0.0
C2370 C 0.99735 0.5774 0.65197 0.0
C2371 C 0.0063 0.58091 0.61017 0.0
C2372 C 0.02294 0.58701 0.61269 0.0
C2373 C 0.03055 0.58917 0.65624 0.0
C2374 C 0.02134 0.58533 0.69677 0.0
C2375 C 0.00513 0.57977 0.69505 0.0
C2376 C 0.99793 0.57632 0.74368 0.0
C2377 C 0.99003 0.58711 0.75526 0.0
C2378 C 0.98621 0.55871 0.74883 0.0
C2379 C 0.0126 0.58049 0.77309 0.0
C2380 C 0.02596 0.58564 0.74528 0.0
C2381 C 0.04084 0.58951 0.7641 0.0
C2382 C 0.04211 0.58814 0.8126 0.0
C2383 C 0.02861 0.58305 0.84186 0.0
C2384 C 0.01369 0.57928 0.8218 0.0
H2385 H 0.44485 0.43472 0.63639 0.0
H2386 H 0.40192 0.39287 0.6013 0.0
H2387 H 0.39261 0.39145 0.68328 0.0
H2388 H 0.45056 0.42333 0.74937 0.0
H2389 H 0.45733 0.44276 0.77494 0.0
H2390 H 0.46028 0.44074 0.71345 0.0
H2391 H 0.44561 0.45757 0.69269 0.0
H2392 H 0.44284 0.45987 0.75417 0.0
H2393 H 0.42601 0.4519 0.7154 0.0
H2394 H 0.38946 0.3934 0.77177 0.0
H2395 H 0.39073 0.40091 0.85562 0.0
H2396 H 0.43481 0.44258 0.82975 0.0
C2397 C 0.43338 0.42539 0.64585 0.0
C2398 C 0.42407 0.41389 0.61278 0.0
C2399 C 0.40914 0.40187 0.6262 0.0
C2400 C 0.40383 0.40091 0.67268 0.0
C2401 C 0.41351 0.41226 0.70484 0.0
C2402 C 0.4278 0.42448 0.69162 0.0
C2403 C 0.43589 0.43536 0.73235 0.0
C2404 C 0.45196 0.43555 0.74314 0.0
C2405 C 0.43768 0.45217 0.7231 0.0
C2406 C 0.42406 0.42725 0.77087 0.0
C2407 C 0.41132 0.41381 0.75463 0.0
C2408 C 0.39928 0.40402 0.78465 0.0
C2409 C 0.40015 0.40828 0.83219 0.0
C2410 C 0.41281 0.42234 0.84883 0.0
C2411 C 0.42492 0.43184 0.81775 0.0
loop_
_geom_bond_atom_site_label_1
_geom_bond_atom_site_label_2
_geom_bond_distance
_geom_bond_site_symmetry_2
_ccdc_geom_bond_type
In0 O1 2.294 . S
In0 O2 2.326 . S
In0 O6 2.266 . S
In0 O7 2.326 . S
In0 O8 2.266 . S
In0 O9 2.326 . S
In0 O11 2.294 . S
In0 O12 2.326 . S
O1 In0 2.294 . S
O1 C10 1.240 . S
O2 In0 2.326 . S
O2 C10 1.252 . S
C3 O6 1.252 . S
C3 O7 1.260 . S
C4 O11 1.240 . S
C4 O12 1.252 . S
C5 O8 1.252 . S
C5 O9 1.260 . S
O6 In0 2.266 . S
O6 C3 1.252 . S
O7 In0 2.326 . S
O7 C3 1.260 . S
O8 In0 2.266 . S
O8 C5 1.252 . S
O9 In0 2.326 . S
O9 C5 1.260 . S
C10 O1 1.240 . S
C10 O2 1.252 . S
O11 In0 2.294 . S
O11 C4 1.240 . S
O12 In0 2.326 . S
O12 C4 1.252 . S
In13 O14 2.294 . S
In13 O15 2.326 . S
In13 O19 2.266 . S
In13 O20 2.326 . S
In13 O21 2.266 . S
In13 O22 2.326 . S
In13 O24 2.294 . S
In13 O25 2.326 . S
O14 In13 2.294 . S
O14 C23 1.240 . S
O15 In13 2.326 . S
O15 C23 1.252 . S
C16 O19 1.252 . S
C16 O20 1.260 . S
C17 O24 1.240 . S
C17 O25 1.252 . S
C18 O21 1.252 . S
C18 O22 1.260 . S
O19 In13 2.266 . S
O19 C16 1.252 . S
O20 In13 2.326 . S
O20 C16 1.260 . S
O21 In13 2.266 . S
O21 C18 1.252 . S
O22 In13 2.326 . S
O22 C18 1.260 . S
C23 O14 1.240 . S
C23 O15 1.252 . S
O24 In13 2.294 . S
O24 C17 1.240 . S
O25 In13 2.326 . S
O25 C17 1.252 . S
In26 O27 2.294 . S
In26 O28 2.326 . S
In26 O32 2.266 . S
In26 O33 2.326 . S
In26 O34 2.266 . S
In26 O35 2.326 . S
In26 O37 2.294 . S
In26 O38 2.326 . S
O27 In26 2.294 . S
O27 C36 1.240 . S
O28 In26 2.326 . S
O28 C36 1.252 . S
C29 O32 1.252 . S
C29 O33 1.260 . S
C30 O37 1.240 . S
C30 O38 1.252 . S
C31 O34 1.252 . S
C31 O35 1.260 . S
O32 In26 2.266 . S
O32 C29 1.252 . S
O33 In26 2.326 . S
O33 C29 1.260 . S
O34 In26 2.266 . S
O34 C31 1.252 . S
O35 In26 2.326 . S
O35 C31 1.260 . S
C36 O27 1.240 . S
C36 O28 1.252 . S
O37 In26 2.294 . S
O37 C30 1.240 . S
O38 In26 2.326 . S
O38 C30 1.252 . S
In39 O40 2.294 . S
In39 O41 2.326 . S
In39 O45 2.266 . S
In39 O46 2.326 . S
In39 O47 2.266 . S
In39 O48 2.326 . S
In39 O50 2.294 . S
In39 O51 2.326 . S
O40 In39 2.294 . S
O40 C49 1.240 . S
O41 In39 2.326 . S
O41 C49 1.252 . S
C42 O45 1.252 . S
C42 O46 1.260 . S
C43 O50 1.240 . S
C43 O51 1.252 . S
C44 O47 1.252 . S
C44 O48 1.260 . S
O45 In39 2.266 . S
O45 C42 1.252 . S
O46 In39 2.326 . S
O46 C42 1.260 . S
O47 In39 2.266 . S
O47 C44 1.252 . S
O48 In39 2.326 . S
O48 C44 1.260 . S
C49 O40 1.240 . S
C49 O41 1.252 . S
O50 In39 2.294 . S
O50 C43 1.240 . S
O51 In39 2.326 . S
O51 C43 1.252 . S
In52 O53 2.294 . S
In52 O54 2.326 . S
In52 O58 2.266 . S
In52 O59 2.326 . S
In52 O60 2.266 . S
In52 O61 2.326 . S
In52 O63 2.294 . S
In52 O64 2.326 . S
O53 In52 2.294 . S
O53 C62 1.240 . S
O54 In52 2.326 . S
O54 C62 1.252 . S
C55 O58 1.252 . S
C55 O59 1.260 . S
C56 O63 1.240 . S
C56 O64 1.252 . S
C57 O60 1.252 . S
C57 O61 1.260 . S
O58 In52 2.266 . S
O58 C55 1.252 . S
O59 In52 2.326 . S
O59 C55 1.260 . S
O60 In52 2.266 . S
O60 C57 1.252 . S
O61 In52 2.326 . S
O61 C57 1.260 . S
C62 O53 1.240 . S
C62 O54 1.252 . S
O63 In52 2.294 . S
O63 C56 1.240 . S
O64 In52 2.326 . S
O64 C56 1.252 . S
In65 O66 2.294 . S
In65 O67 2.326 . S
In65 O71 2.266 . S
In65 O72 2.326 . S
In65 O73 2.266 . S
In65 O74 2.326 . S
In65 O76 2.294 . S
In65 O77 2.326 . S
O66 In65 2.294 . S
O66 C75 1.240 . S
O67 In65 2.326 . S
O67 C75 1.252 . S
C68 O71 1.252 . S
C68 O72 1.260 . S
C69 O76 1.240 . S
C69 O77 1.252 . S
C70 O73 1.252 . S
C70 O74 1.260 . S
O71 In65 2.266 . S
O71 C68 1.252 . S
O72 In65 2.326 . S
O72 C68 1.260 . S
O73 In65 2.266 . S
O73 C70 1.252 . S
O74 In65 2.326 . S
O74 C70 1.260 . S
C75 O66 1.240 . S
C75 O67 1.252 . S
O76 In65 2.294 . S
O76 C69 1.240 . S
O77 In65 2.326 . S
O77 C69 1.252 . S
In78 O79 2.294 . S
In78 O80 2.326 . S
In78 O84 2.266 . S
In78 O85 2.326 . S
In78 O86 2.266 . S
In78 O87 2.326 . S
In78 O89 2.294 . S
In78 O90 2.326 . S
O79 In78 2.294 . S
O79 C88 1.240 . S
O80 In78 2.326 . S
O80 C88 1.252 . S
C81 O84 1.252 . S
C81 O85 1.260 . S
C82 O89 1.240 . S
C82 O90 1.252 . S
C83 O86 1.252 . S
C83 O87 1.260 . S
O84 In78 2.266 . S
O84 C81 1.252 . S
O85 In78 2.326 . S
O85 C81 1.260 . S
O86 In78 2.266 . S
O86 C83 1.252 . S
O87 In78 2.326 . S
O87 C83 1.260 . S
C88 O79 1.240 . S
C88 O80 1.252 . S
O89 In78 2.294 . S
O89 C82 1.240 . S
O90 In78 2.326 . S
O90 C82 1.252 . S
In91 O92 2.294 . S
In91 O93 2.326 . S
In91 O97 2.266 . S
In91 O98 2.326 . S
In91 O99 2.266 . S
In91 O100 2.326 . S
In91 O102 2.294 . S
In91 O103 2.326 . S
O92 In91 2.294 . S
O92 C101 1.240 . S
O93 In91 2.326 . S
O93 C101 1.252 . S
C94 O97 1.252 . S
C94 O98 1.260 . S
C95 O102 1.240 . S
C95 O103 1.252 . S
C96 O99 1.252 . S
C96 O100 1.260 . S
O97 In91 2.266 . S
O97 C94 1.252 . S
O98 In91 2.326 . S
O98 C94 1.260 . S
O99 In91 2.266 . S
O99 C96 1.252 . S
O100 In91 2.326 . S
O100 C96 1.260 . S
C101 O92 1.240 . S
C101 O93 1.252 . S
O102 In91 2.294 . S
O102 C95 1.240 . S
O103 In91 2.326 . S
O103 C95 1.252 . S
In104 O105 2.294 . S
In104 O106 2.326 . S
In104 O110 2.266 . S
In104 O111 2.326 . S
In104 O112 2.266 . S
In104 O113 2.326 . S
In104 O115 2.294 . S
In104 O116 2.326 . S
O105 In104 2.294 . S
O105 C114 1.240 . S
O106 In104 2.326 . S
O106 C114 1.252 . S
C107 O110 1.252 . S
C107 O111 1.260 . S
C108 O115 1.240 . S
C108 O116 1.252 . S
C109 O112 1.252 . S
C109 O113 1.260 . S
O110 In104 2.266 . S
O110 C107 1.252 . S
O111 In104 2.326 . S
O111 C107 1.260 . S
O112 In104 2.266 . S
O112 C109 1.252 . S
O113 In104 2.326 . S
O113 C109 1.260 . S
C114 O105 1.240 . S
C114 O106 1.252 . S
O115 In104 2.294 . S
O115 C108 1.240 . S
O116 In104 2.326 . S
O116 C108 1.252 . S
In117 O118 2.294 . S
In117 O119 2.326 . S
In117 O123 2.266 . S
In117 O124 2.326 . S
In117 O125 2.266 . S
In117 O126 2.326 . S
In117 O128 2.294 . S
In117 O129 2.326 . S
O118 In117 2.294 . S
O118 C127 1.240 . S
O119 In117 2.326 . S
O119 C127 1.252 . S
C120 O123 1.252 . S
C120 O124 1.260 . S
C121 O128 1.240 . S
C121 O129 1.252 . S
C122 O125 1.252 . S
C122 O126 1.260 . S
O123 In117 2.266 . S
O123 C120 1.252 . S
O124 In117 2.326 . S
O124 C120 1.260 . S
O125 In117 2.266 . S
O125 C122 1.252 . S
O126 In117 2.326 . S
O126 C122 1.260 . S
C127 O118 1.240 . S
C127 O119 1.252 . S
O128 In117 2.294 . S
O128 C121 1.240 . S
O129 In117 2.326 . S
O129 C121 1.252 . S
In130 O131 2.294 . S
In130 O132 2.326 . S
In130 O136 2.266 . S
In130 O137 2.326 . S
In130 O138 2.266 . S
In130 O139 2.326 . S
In130 O141 2.294 . S
In130 O142 2.326 . S
O131 In130 2.294 . S
O131 C140 1.240 . S
O132 In130 2.326 . S
O132 C140 1.252 . S
C133 O136 1.252 . S
C133 O137 1.260 . S
C134 O141 1.240 . S
C134 O142 1.252 . S
C135 O138 1.252 . S
C135 O139 1.260 . S
O136 In130 2.266 . S
O136 C133 1.252 . S
O137 In130 2.326 . S
O137 C133 1.260 . S
O138 In130 2.266 . S
O138 C135 1.252 . S
O139 In130 2.326 . S
O139 C135 1.260 . S
C140 O131 1.240 . S
C140 O132 1.252 . S
O141 In130 2.294 . S
O141 C134 1.240 . S
O142 In130 2.326 . S
O142 C134 1.252 . S
In143 O144 2.294 . S
In143 O145 2.326 . S
In143 O149 2.266 . S
In143 O150 2.326 . S
In143 O151 2.266 . S
In143 O152 2.326 . S
In143 O154 2.294 . S
In143 O155 2.326 . S
O144 In143 2.294 . S
O144 C153 1.240 . S
O145 In143 2.326 . S
O145 C153 1.252 . S
C146 O149 1.252 . S
C146 O150 1.260 . S
C147 O154 1.240 . S
C147 O155 1.252 . S
C148 O151 1.252 . S
C148 O152 1.260 . S
O149 In143 2.266 . S
O149 C146 1.252 . S
O150 In143 2.326 . S
O150 C146 1.260 . S
O151 In143 2.266 . S
O151 C148 1.252 . S
O152 In143 2.326 . S
O152 C148 1.260 . S
C153 O144 1.240 . S
C153 O145 1.252 . S
O154 In143 2.294 . S
O154 C147 1.240 . S
O155 In143 2.326 . S
O155 C147 1.252 . S
In156 O157 2.294 1_455 S
In156 O158 2.326 . S
In156 O162 2.267 1_455 S
In156 O163 2.326 . S
In156 O164 2.265 . S
In156 O165 2.325 . S
In156 O167 2.294 . S
In156 O168 2.327 1_455 S
O157 In156 2.294 1_655 S
O157 C166 1.240 . S
O158 In156 2.326 . S
O158 C166 1.252 1_455 S
C159 O162 1.252 . S
C159 O163 1.260 1_655 S
C160 O167 1.240 . S
C160 O168 1.252 1_455 S
C161 O164 1.252 . S
C161 O165 1.260 . S
O162 In156 2.267 1_655 S
O162 C159 1.252 . S
O163 In156 2.326 . S
O163 C159 1.260 1_455 S
O164 In156 2.265 . S
O164 C161 1.252 . S
O165 In156 2.325 . S
O165 C161 1.260 . S
C166 O157 1.240 . S
C166 O158 1.252 1_655 S
O167 In156 2.294 . S
O167 C160 1.240 . S
O168 In156 2.327 1_655 S
O168 C160 1.252 1_655 S
In169 O170 2.294 . S
In169 O171 2.326 . S
In169 O175 2.266 . S
In169 O176 2.326 . S
In169 O177 2.266 . S
In169 O178 2.326 . S
In169 O180 2.294 . S
In169 O181 2.326 . S
O170 In169 2.294 . S
O170 C179 1.240 . S
O171 In169 2.326 . S
O171 C179 1.252 . S
C172 O175 1.252 . S
C172 O176 1.260 . S
C173 O180 1.240 . S
C173 O181 1.252 . S
C174 O177 1.252 . S
C174 O178 1.260 . S
O175 In169 2.266 . S
O175 C172 1.252 . S
O176 In169 2.326 . S
O176 C172 1.260 . S
O177 In169 2.266 . S
O177 C174 1.252 . S
O178 In169 2.326 . S
O178 C174 1.260 . S
C179 O170 1.240 . S
C179 O171 1.252 . S
O180 In169 2.294 . S
O180 C173 1.240 . S
O181 In169 2.326 . S
O181 C173 1.252 . S
In182 O183 2.294 . S
In182 O184 2.326 . S
In182 O188 2.266 . S
In182 O189 2.326 . S
In182 O190 2.266 . S
In182 O191 2.326 . S
In182 O193 2.294 . S
In182 O194 2.326 . S
O183 In182 2.294 . S
O183 C192 1.240 . S
O184 In182 2.326 . S
O184 C192 1.252 . S
C185 O188 1.252 . S
C185 O189 1.260 . S
C186 O193 1.240 . S
C186 O194 1.252 . S
C187 O190 1.252 . S
C187 O191 1.260 . S
O188 In182 2.266 . S
O188 C185 1.252 . S
O189 In182 2.326 . S
O189 C185 1.260 . S
O190 In182 2.266 . S
O190 C187 1.252 . S
O191 In182 2.326 . S
O191 C187 1.260 . S
C192 O183 1.240 . S
C192 O184 1.252 . S
O193 In182 2.294 . S
O193 C186 1.240 . S
O194 In182 2.326 . S
O194 C186 1.252 . S
In195 O196 2.294 . S
In195 O197 2.326 . S
In195 O201 2.266 . S
In195 O202 2.326 . S
In195 O203 2.266 . S
In195 O204 2.326 . S
In195 O206 2.294 . S
In195 O207 2.326 . S
O196 In195 2.294 . S
O196 C205 1.240 . S
O197 In195 2.326 . S
O197 C205 1.252 . S
C198 O201 1.252 . S
C198 O202 1.260 . S
C199 O206 1.240 . S
C199 O207 1.252 . S
C200 O203 1.252 . S
C200 O204 1.260 . S
O201 In195 2.266 . S
O201 C198 1.252 . S
O202 In195 2.326 . S
O202 C198 1.260 . S
O203 In195 2.266 . S
O203 C200 1.252 . S
O204 In195 2.326 . S
O204 C200 1.260 . S
C205 O196 1.240 . S
C205 O197 1.252 . S
O206 In195 2.294 . S
O206 C199 1.240 . S
O207 In195 2.326 . S
O207 C199 1.252 . S
In208 O209 2.294 . S
In208 O210 2.326 . S
In208 O214 2.266 . S
In208 O215 2.326 . S
In208 O216 2.266 . S
In208 O217 2.326 . S
In208 O219 2.294 . S
In208 O220 2.326 . S
O209 In208 2.294 . S
O209 C218 1.240 . S
O210 In208 2.326 . S
O210 C218 1.252 . S
C211 O214 1.252 . S
C211 O215 1.260 . S
C212 O219 1.240 . S
C212 O220 1.252 . S
C213 O216 1.252 . S
C213 O217 1.260 . S
O214 In208 2.266 . S
O214 C211 1.252 . S
O215 In208 2.326 . S
O215 C211 1.260 . S
O216 In208 2.266 . S
O216 C213 1.252 . S
O217 In208 2.326 . S
O217 C213 1.260 . S
C218 O209 1.240 . S
C218 O210 1.252 . S
O219 In208 2.294 . S
O219 C212 1.240 . S
O220 In208 2.326 . S
O220 C212 1.252 . S
In221 O222 2.294 . S
In221 O223 2.326 . S
In221 O227 2.266 . S
In221 O228 2.326 . S
In221 O229 2.266 . S
In221 O230 2.326 . S
In221 O232 2.294 . S
In221 O233 2.326 . S
O222 In221 2.294 . S
O222 C231 1.240 . S
O223 In221 2.326 . S
O223 C231 1.252 . S
C224 O227 1.252 . S
C224 O228 1.260 . S
C225 O232 1.240 . S
C225 O233 1.252 . S
C226 O229 1.252 . S
C226 O230 1.260 . S
O227 In221 2.266 . S
O227 C224 1.252 . S
O228 In221 2.326 . S
O228 C224 1.260 . S
O229 In221 2.266 . S
O229 C226 1.252 . S
O230 In221 2.326 . S
O230 C226 1.260 . S
C231 O222 1.240 . S
C231 O223 1.252 . S
O232 In221 2.294 . S
O232 C225 1.240 . S
O233 In221 2.326 . S
O233 C225 1.252 . S
In234 O235 2.294 . S
In234 O236 2.326 . S
In234 O240 2.266 . S
In234 O241 2.326 . S
In234 O242 2.266 . S
In234 O243 2.326 . S
In234 O245 2.294 . S
In234 O246 2.326 . S
O235 In234 2.294 . S
O235 C244 1.240 . S
O236 In234 2.326 . S
O236 C244 1.252 . S
C237 O240 1.252 . S
C237 O241 1.260 . S
C238 O245 1.240 . S
C238 O246 1.252 . S
C239 O242 1.252 . S
C239 O243 1.260 . S
O240 In234 2.266 . S
O240 C237 1.252 . S
O241 In234 2.326 . S
O241 C237 1.260 . S
O242 In234 2.266 . S
O242 C239 1.252 . S
O243 In234 2.326 . S
O243 C239 1.260 . S
C244 O235 1.240 . S
C244 O236 1.252 . S
O245 In234 2.294 . S
O245 C238 1.240 . S
O246 In234 2.326 . S
O246 C238 1.252 . S
In247 O248 2.294 . S
In247 O249 2.326 . S
In247 O253 2.266 . S
In247 O254 2.326 . S
In247 O255 2.266 . S
In247 O256 2.326 . S
In247 O258 2.294 . S
In247 O259 2.326 . S
O248 In247 2.294 . S
O248 C257 1.240 . S
O249 In247 2.326 . S
O249 C257 1.252 . S
C250 O253 1.252 . S
C250 O254 1.260 . S
C251 O258 1.240 . S
C251 O259 1.252 . S
C252 O255 1.252 . S
C252 O256 1.260 . S
O253 In247 2.266 . S
O253 C250 1.252 . S
O254 In247 2.326 . S
O254 C250 1.260 . S
O255 In247 2.266 . S
O255 C252 1.252 . S
O256 In247 2.326 . S
O256 C252 1.260 . S
C257 O248 1.240 . S
C257 O249 1.252 . S
O258 In247 2.294 . S
O258 C251 1.240 . S
O259 In247 2.326 . S
O259 C251 1.252 . S
In260 O261 2.294 . S
In260 O262 2.326 . S
In260 O266 2.266 . S
In260 O267 2.326 . S
In260 O268 2.266 . S
In260 O269 2.326 . S
In260 O271 2.294 . S
In260 O272 2.326 . S
O261 In260 2.294 . S
O261 C270 1.240 . S
O262 In260 2.326 . S
O262 C270 1.252 . S
C263 O266 1.252 . S
C263 O267 1.260 . S
C264 O271 1.240 . S
C264 O272 1.252 . S
C265 O268 1.252 . S
C265 O269 1.260 . S
O266 In260 2.266 . S
O266 C263 1.252 . S
O267 In260 2.326 . S
O267 C263 1.260 . S
O268 In260 2.266 . S
O268 C265 1.252 . S
O269 In260 2.326 . S
O269 C265 1.260 . S
C270 O261 1.240 . S
C270 O262 1.252 . S
O271 In260 2.294 . S
O271 C264 1.240 . S
O272 In260 2.326 . S
O272 C264 1.252 . S
In273 O274 2.297 1_565 S
In273 O275 2.330 . S
In273 O279 2.264 1_564 S
In273 O280 2.322 1_554 S
In273 O281 2.265 1_554 S
In273 O282 2.325 1_554 S
In273 O284 2.294 . S
In273 O285 2.327 1_565 S
O274 In273 2.297 1_545 S
O274 C283 1.240 . S
O275 In273 2.330 . S
O275 C283 1.252 1_565 S
C276 O279 1.252 . S
C276 O280 1.260 1_545 S
C277 O284 1.240 . S
C277 O285 1.252 1_565 S
C278 O281 1.252 . S
C278 O282 1.260 . S
O279 In273 2.264 1_546 S
O279 C276 1.252 . S
O280 In273 2.322 1_556 S
O280 C276 1.260 1_565 S
O281 In273 2.265 1_556 S
O281 C278 1.252 . S
O282 In273 2.325 1_556 S
O282 C278 1.260 . S
C283 O274 1.240 . S
C283 O275 1.252 1_545 S
O284 In273 2.294 . S
O284 C277 1.240 . S
O285 In273 2.327 1_545 S
O285 C277 1.252 1_545 S
In286 O287 2.294 . S
In286 O288 2.327 . S
In286 O292 2.265 1_554 S
In286 O293 2.325 1_554 S
In286 O294 2.264 1_554 S
In286 O295 2.322 1_554 S
In286 O297 2.296 . S
In286 O298 2.330 . S
O287 In286 2.294 . S
O287 C296 1.240 . S
O288 In286 2.327 . S
O288 C296 1.252 . S
C289 O292 1.252 . S
C289 O293 1.260 . S
C290 O297 1.240 . S
C290 O298 1.252 . S
C291 O294 1.252 . S
C291 O295 1.260 . S
O292 In286 2.265 1_556 S
O292 C289 1.252 . S
O293 In286 2.325 1_556 S
O293 C289 1.260 . S
O294 In286 2.264 1_556 S
O294 C291 1.252 . S
O295 In286 2.322 1_556 S
O295 C291 1.260 . S
C296 O287 1.240 . S
C296 O288 1.252 . S
O297 In286 2.296 . S
O297 C290 1.240 . S
O298 In286 2.330 . S
O298 C290 1.252 . S
In299 O300 2.296 . S
In299 O301 2.330 . S
In299 O305 2.264 1_554 S
In299 O306 2.322 1_554 S
In299 O307 2.265 1_554 S
In299 O308 2.325 1_554 S
In299 O310 2.294 . S
In299 O311 2.327 . S
O300 In299 2.296 . S
O300 C309 1.240 . S
O301 In299 2.330 . S
O301 C309 1.252 . S
C302 O305 1.252 . S
C302 O306 1.260 . S
C303 O310 1.240 . S
C303 O311 1.252 . S
C304 O307 1.252 . S
C304 O308 1.260 . S
O305 In299 2.264 1_556 S
O305 C302 1.252 . S
O306 In299 2.322 1_556 S
O306 C302 1.260 . S
O307 In299 2.265 1_556 S
O307 C304 1.252 . S
O308 In299 2.325 1_556 S
O308 C304 1.260 . S
C309 O300 1.240 . S
C309 O301 1.252 . S
O310 In299 2.294 . S
O310 C303 1.240 . S
O311 In299 2.327 . S
O311 C303 1.252 . S
In312 O313 2.294 . S
In312 O314 2.326 . S
In312 O318 2.266 . S
In312 O319 2.326 . S
In312 O320 2.266 . S
In312 O321 2.326 . S
In312 O323 2.294 . S
In312 O324 2.326 . S
O313 In312 2.294 . S
O313 C322 1.240 . S
O314 In312 2.326 . S
O314 C322 1.252 . S
C315 O318 1.252 . S
C315 O319 1.260 . S
C316 O323 1.240 . S
C316 O324 1.252 . S
C317 O320 1.252 . S
C317 O321 1.260 . S
O318 In312 2.266 . S
O318 C315 1.252 . S
O319 In312 2.326 . S
O319 C315 1.260 . S
O320 In312 2.266 . S
O320 C317 1.252 . S
O321 In312 2.326 . S
O321 C317 1.260 . S
C322 O313 1.240 . S
C322 O314 1.252 . S
O323 In312 2.294 . S
O323 C316 1.240 . S
O324 In312 2.326 . S
O324 C316 1.252 . S
In325 O326 2.294 . S
In325 O327 2.326 . S
In325 O331 2.266 . S
In325 O332 2.326 . S
In325 O333 2.266 . S
In325 O334 2.326 . S
In325 O336 2.294 . S
In325 O337 2.326 . S
O326 In325 2.294 . S
O326 C335 1.240 . S
O327 In325 2.326 . S
O327 C335 1.252 . S
C328 O331 1.252 . S
C328 O332 1.260 . S
C329 O336 1.240 . S
C329 O337 1.252 . S
C330 O333 1.252 . S
C330 O334 1.260 . S
O331 In325 2.266 . S
O331 C328 1.252 . S
O332 In325 2.326 . S
O332 C328 1.260 . S
O333 In325 2.266 . S
O333 C330 1.252 . S
O334 In325 2.326 . S
O334 C330 1.260 . S
C335 O326 1.240 . S
C335 O327 1.252 . S
O336 In325 2.294 . S
O336 C329 1.240 . S
O337 In325 2.326 . S
O337 C329 1.252 . S
In338 O339 2.294 . S
In338 O340 2.326 . S
In338 O344 2.266 . S
In338 O345 2.326 . S
In338 O346 2.266 . S
In338 O347 2.326 . S
In338 O349 2.294 . S
In338 O350 2.326 . S
O339 In338 2.294 . S
O339 C348 1.240 . S
O340 In338 2.326 . S
O340 C348 1.252 . S
C341 O344 1.252 . S
C341 O345 1.260 . S
C342 O349 1.240 . S
C342 O350 1.252 . S
C343 O346 1.252 . S
C343 O347 1.260 . S
O344 In338 2.266 . S
O344 C341 1.252 . S
O345 In338 2.326 . S
O345 C341 1.260 . S
O346 In338 2.266 . S
O346 C343 1.252 . S
O347 In338 2.326 . S
O347 C343 1.260 . S
C348 O339 1.240 . S
C348 O340 1.252 . S
O349 In338 2.294 . S
O349 C342 1.240 . S
O350 In338 2.326 . S
O350 C342 1.252 . S
In351 O352 2.297 1_545 S
In351 O353 2.330 . S
In351 O357 2.264 1_546 S
In351 O358 2.322 1_556 S
In351 O359 2.265 1_556 S
In351 O360 2.325 1_556 S
In351 O362 2.294 . S
In351 O363 2.327 1_545 S
O352 In351 2.297 1_565 S
O352 C361 1.240 . S
O353 In351 2.330 . S
O353 C361 1.252 1_545 S
C354 O357 1.252 . S
C354 O358 1.260 1_565 S
C355 O362 1.240 . S
C355 O363 1.252 1_545 S
C356 O359 1.252 . S
C356 O360 1.260 . S
O357 In351 2.264 1_564 S
O357 C354 1.252 . S
O358 In351 2.322 1_554 S
O358 C354 1.260 1_545 S
O359 In351 2.265 1_554 S
O359 C356 1.252 . S
O360 In351 2.325 1_554 S
O360 C356 1.260 . S
C361 O352 1.240 . S
C361 O353 1.252 1_565 S
O362 In351 2.294 . S
O362 C355 1.240 . S
O363 In351 2.327 1_565 S
O363 C355 1.252 1_565 S
In364 O365 2.296 . S
In364 O366 2.330 . S
In364 O370 2.264 1_556 S
In364 O371 2.322 1_556 S
In364 O372 2.265 1_556 S
In364 O373 2.325 1_556 S
In364 O375 2.294 . S
In364 O376 2.327 . S
O365 In364 2.296 . S
O365 C374 1.240 . S
O366 In364 2.330 . S
O366 C374 1.252 . S
C367 O370 1.252 . S
C367 O371 1.260 . S
C368 O375 1.240 . S
C368 O376 1.252 . S
C369 O372 1.252 . S
C369 O373 1.260 . S
O370 In364 2.264 1_554 S
O370 C367 1.252 . S
O371 In364 2.322 1_554 S
O371 C367 1.260 . S
O372 In364 2.265 1_554 S
O372 C369 1.252 . S
O373 In364 2.325 1_554 S
O373 C369 1.260 . S
C374 O365 1.240 . S
C374 O366 1.252 . S
O375 In364 2.294 . S
O375 C368 1.240 . S
O376 In364 2.327 . S
O376 C368 1.252 . S
In377 O378 2.294 . S
In377 O379 2.327 . S
In377 O383 2.265 1_556 S
In377 O384 2.325 1_556 S
In377 O385 2.264 1_556 S
In377 O386 2.322 1_556 S
In377 O388 2.296 . S
In377 O389 2.330 . S
O378 In377 2.294 . S
O378 C387 1.240 . S
O379 In377 2.327 . S
O379 C387 1.252 . S
C380 O383 1.252 . S
C380 O384 1.260 . S
C381 O388 1.240 . S
C381 O389 1.252 . S
C382 O385 1.252 . S
C382 O386 1.260 . S
O383 In377 2.265 1_554 S
O383 C380 1.252 . S
O384 In377 2.325 1_554 S
O384 C380 1.260 . S
O385 In377 2.264 1_554 S
O385 C382 1.252 . S
O386 In377 2.322 1_554 S
O386 C382 1.260 . S
C387 O378 1.240 . S
C387 O379 1.252 . S
O388 In377 2.296 . S
O388 C381 1.240 . S
O389 In377 2.330 . S
O389 C381 1.252 . S
In390 O391 2.294 . S
In390 O392 2.327 1_655 S
In390 O396 2.265 . S
In390 O397 2.325 . S
In390 O398 2.267 1_655 S
In390 O399 2.326 . S
In390 O401 2.294 1_655 S
In390 O402 2.326 . S
O391 In390 2.294 . S
O391 C400 1.240 . S
O392 In390 2.327 1_455 S
O392 C400 1.252 1_455 S
C393 O396 1.252 . S
C393 O397 1.260 . S
C394 O401 1.240 . S
C394 O402 1.252 1_455 S
C395 O398 1.252 . S
C395 O399 1.260 1_455 S
O396 In390 2.265 . S
O396 C393 1.252 . S
O397 In390 2.325 . S
O397 C393 1.260 . S
O398 In390 2.267 1_455 S
O398 C395 1.252 . S
O399 In390 2.326 . S
O399 C395 1.260 1_655 S
C400 O391 1.240 . S
C400 O392 1.252 1_655 S
O401 In390 2.294 1_455 S
O401 C394 1.240 . S
O402 In390 2.326 . S
O402 C394 1.252 1_655 S
In403 O404 2.294 . S
In403 O405 2.326 . S
In403 O409 2.266 . S
In403 O410 2.326 . S
In403 O411 2.266 . S
In403 O412 2.326 . S
In403 O414 2.294 . S
In403 O415 2.326 . S
O404 In403 2.294 . S
O404 C413 1.240 . S
O405 In403 2.326 . S
O405 C413 1.252 . S
C406 O409 1.252 . S
C406 O410 1.260 . S
C407 O414 1.240 . S
C407 O415 1.252 . S
C408 O411 1.252 . S
C408 O412 1.260 . S
O409 In403 2.266 . S
O409 C406 1.252 . S
O410 In403 2.326 . S
O410 C406 1.260 . S
O411 In403 2.266 . S
O411 C408 1.252 . S
O412 In403 2.326 . S
O412 C408 1.260 . S
C413 O404 1.240 . S
C413 O405 1.252 . S
O414 In403 2.294 . S
O414 C407 1.240 . S
O415 In403 2.326 . S
O415 C407 1.252 . S
In416 O417 2.294 . S
In416 O418 2.326 . S
In416 O422 2.266 . S
In416 O423 2.326 . S
In416 O424 2.266 . S
In416 O425 2.326 . S
In416 O427 2.294 . S
In416 O428 2.326 . S
O417 In416 2.294 . S
O417 C426 1.240 . S
O418 In416 2.326 . S
O418 C426 1.252 . S
C419 O422 1.252 . S
C419 O423 1.260 . S
C420 O427 1.240 . S
C420 O428 1.252 . S
C421 O424 1.252 . S
C421 O425 1.260 . S
O422 In416 2.266 . S
O422 C419 1.252 . S
O423 In416 2.326 . S
O423 C419 1.260 . S
O424 In416 2.266 . S
O424 C421 1.252 . S
O425 In416 2.326 . S
O425 C421 1.260 . S
C426 O417 1.240 . S
C426 O418 1.252 . S
O427 In416 2.294 . S
O427 C420 1.240 . S
O428 In416 2.326 . S
O428 C420 1.252 . S
In429 O430 2.294 . S
In429 O431 2.326 . S
In429 O435 2.266 . S
In429 O436 2.326 . S
In429 O437 2.266 . S
In429 O438 2.326 . S
In429 O440 2.294 . S
In429 O441 2.326 . S
O430 In429 2.294 . S
O430 C439 1.240 . S
O431 In429 2.326 . S
O431 C439 1.252 . S
C432 O435 1.252 . S
C432 O436 1.260 . S
C433 O440 1.240 . S
C433 O441 1.252 . S
C434 O437 1.252 . S
C434 O438 1.260 . S
O435 In429 2.266 . S
O435 C432 1.252 . S
O436 In429 2.326 . S
O436 C432 1.260 . S
O437 In429 2.266 . S
O437 C434 1.252 . S
O438 In429 2.326 . S
O438 C434 1.260 . S
C439 O430 1.240 . S
C439 O431 1.252 . S
O440 In429 2.294 . S
O440 C433 1.240 . S
O441 In429 2.326 . S
O441 C433 1.252 . S
In442 O443 2.294 . S
In442 O444 2.326 . S
In442 O448 2.266 . S
In442 O449 2.326 . S
In442 O450 2.266 . S
In442 O451 2.326 . S
In442 O453 2.294 . S
In442 O454 2.326 . S
O443 In442 2.294 . S
O443 C452 1.240 . S
O444 In442 2.326 . S
O444 C452 1.252 . S
C445 O448 1.252 . S
C445 O449 1.260 . S
C446 O453 1.240 . S
C446 O454 1.252 . S
C447 O450 1.252 . S
C447 O451 1.260 . S
O448 In442 2.266 . S
O448 C445 1.252 . S
O449 In442 2.326 . S
O449 C445 1.260 . S
O450 In442 2.266 . S
O450 C447 1.252 . S
O451 In442 2.326 . S
O451 C447 1.260 . S
C452 O443 1.240 . S
C452 O444 1.252 . S
O453 In442 2.294 . S
O453 C446 1.240 . S
O454 In442 2.326 . S
O454 C446 1.252 . S
In455 O456 2.294 . S
In455 O457 2.326 . S
In455 O461 2.266 . S
In455 O462 2.326 . S
In455 O463 2.266 . S
In455 O464 2.326 . S
In455 O466 2.294 . S
In455 O467 2.326 . S
O456 In455 2.294 . S
O456 C465 1.240 . S
O457 In455 2.326 . S
O457 C465 1.252 . S
C458 O461 1.252 . S
C458 O462 1.260 . S
C459 O466 1.240 . S
C459 O467 1.252 . S
C460 O463 1.252 . S
C460 O464 1.260 . S
O461 In455 2.266 . S
O461 C458 1.252 . S
O462 In455 2.326 . S
O462 C458 1.260 . S
O463 In455 2.266 . S
O463 C460 1.252 . S
O464 In455 2.326 . S
O464 C460 1.260 . S
C465 O456 1.240 . S
C465 O457 1.252 . S
O466 In455 2.294 . S
O466 C459 1.240 . S
O467 In455 2.326 . S
O467 C459 1.252 . S
H468 C480 0.930 . S
H469 C482 0.930 . S
H470 C483 0.930 . S
H471 C487 0.959 . S
H472 C487 0.959 . S
H473 C487 0.961 . S
H474 C488 0.960 . S
H475 C488 0.961 . S
H476 C488 0.959 . S
H477 C491 0.929 . S
H478 C492 0.931 . S
H479 C494 0.930 . S
C480 H468 0.930 . S
C480 C481 1.399 . S
C480 C485 1.399 . S
C481 C480 1.399 . S
C481 C482 1.376 . S
C482 H469 0.930 . S
C482 C481 1.376 . S
C482 C483 1.388 . S
C483 H470 0.930 . S
C483 C482 1.388 . S
C483 C484 1.390 . S
C484 C483 1.390 . S
C484 C485 1.394 . S
C484 C490 1.465 . S
C485 C480 1.399 . S
C485 C484 1.394 . S
C485 C486 1.516 . S
C486 C485 1.516 . S
C486 C487 1.502 . S
C486 C488 1.561 . S
C486 C489 1.526 . S
C487 H471 0.959 . S
C487 H472 0.959 . S
C487 H473 0.961 . S
C487 C486 1.502 . S
C488 H474 0.960 . S
C488 H475 0.961 . S
C488 H476 0.959 . S
C488 C486 1.561 . S
C489 C486 1.526 . S
C489 C490 1.396 . S
C489 C494 1.390 . S
C490 C484 1.465 . S
C490 C489 1.396 . S
C490 C491 1.399 . S
C491 H477 0.929 . S
C491 C490 1.399 . S
C491 C492 1.385 . S
C492 H478 0.931 . S
C492 C491 1.385 . S
C492 C493 1.389 . S
C493 C492 1.389 . S
C493 C494 1.387 . S
C494 H479 0.930 . S
C494 C489 1.390 . S
C494 C493 1.387 . S
H495 C507 0.930 . S
H496 C509 0.930 . S
H497 C510 0.930 . S
H498 C514 0.959 . S
H499 C514 0.959 . S
H500 C514 0.961 . S
H501 C515 0.960 . S
H502 C515 0.961 . S
H503 C515 0.959 . S
H504 C518 0.929 . S
H505 C519 0.931 . S
H506 C521 0.930 . S
C507 H495 0.930 . S
C507 C508 1.399 . S
C507 C512 1.399 . S
C508 C507 1.399 . S
C508 C509 1.376 . S
C509 H496 0.930 . S
C509 C508 1.376 . S
C509 C510 1.388 . S
C510 H497 0.930 . S
C510 C509 1.388 . S
C510 C511 1.390 . S
C511 C510 1.390 . S
C511 C512 1.394 . S
C511 C517 1.465 . S
C512 C507 1.399 . S
C512 C511 1.394 . S
C512 C513 1.516 . S
C513 C512 1.516 . S
C513 C514 1.502 . S
C513 C515 1.561 . S
C513 C516 1.526 . S
C514 H498 0.959 . S
C514 H499 0.959 . S
C514 H500 0.961 . S
C514 C513 1.502 . S
C515 H501 0.960 . S
C515 H502 0.961 . S
C515 H503 0.959 . S
C515 C513 1.561 . S
C516 C513 1.526 . S
C516 C517 1.396 . S
C516 C521 1.390 . S
C517 C511 1.465 . S
C517 C516 1.396 . S
C517 C518 1.399 . S
C518 H504 0.929 . S
C518 C517 1.399 . S
C518 C519 1.385 . S
C519 H505 0.931 . S
C519 C518 1.385 . S
C519 C520 1.389 . S
C520 C519 1.389 . S
C520 C521 1.387 . S
C521 H506 0.930 . S
C521 C516 1.390 . S
C521 C520 1.387 . S
H522 C534 0.930 . S
H523 C536 0.930 . S
H524 C537 0.930 . S
H525 C541 0.959 . S
H526 C541 0.959 . S
H527 C541 0.961 . S
H528 C542 0.960 . S
H529 C542 0.961 . S
H530 C542 0.959 . S
H531 C545 0.929 . S
H532 C546 0.931 . S
H533 C548 0.930 . S
C534 H522 0.930 . S
C534 C535 1.399 . S
C534 C539 1.399 . S
C535 C534 1.399 . S
C535 C536 1.376 . S
C536 H523 0.930 . S
C536 C535 1.376 . S
C536 C537 1.388 . S
C537 H524 0.930 . S
C537 C536 1.388 . S
C537 C538 1.390 . S
C538 C537 1.390 . S
C538 C539 1.394 . S
C538 C544 1.465 . S
C539 C534 1.399 . S
C539 C538 1.394 . S
C539 C540 1.516 . S
C540 C539 1.516 . S
C540 C541 1.502 . S
C540 C542 1.561 . S
C540 C543 1.526 . S
C541 H525 0.959 . S
C541 H526 0.959 . S
C541 H527 0.961 . S
C541 C540 1.502 . S
C542 H528 0.960 . S
C542 H529 0.961 . S
C542 H530 0.959 . S
C542 C540 1.561 . S
C543 C540 1.526 . S
C543 C544 1.396 . S
C543 C548 1.390 . S
C544 C538 1.465 . S
C544 C543 1.396 . S
C544 C545 1.399 . S
C545 H531 0.929 . S
C545 C544 1.399 . S
C545 C546 1.385 . S
C546 H532 0.931 . S
C546 C545 1.385 . S
C546 C547 1.389 . S
C547 C546 1.389 . S
C547 C548 1.387 . S
C548 H533 0.930 . S
C548 C543 1.390 . S
C548 C547 1.387 . S
H549 C561 0.930 . S
H550 C563 0.930 . S
H551 C564 0.930 . S
H552 C568 0.959 . S
H553 C568 0.959 . S
H554 C568 0.961 . S
H555 C569 0.960 . S
H556 C569 0.961 . S
H557 C569 0.959 . S
H558 C572 0.929 . S
H559 C573 0.931 . S
H560 C575 0.930 . S
C561 H549 0.930 . S
C561 C562 1.399 . S
C561 C566 1.399 1_556 S
C562 C561 1.399 . S
C562 C563 1.376 . S
C563 H550 0.930 . S
C563 C562 1.376 . S
C563 C564 1.388 1_556 S
C564 H551 0.930 . S
C564 C563 1.388 1_554 S
C564 C565 1.390 . S
C565 C564 1.390 . S
C565 C566 1.394 . S
C565 C571 1.465 . S
C566 C561 1.399 1_554 S
C566 C565 1.394 . S
C566 C567 1.516 . S
C567 C566 1.516 . S
C567 C568 1.502 . S
C567 C569 1.561 . S
C567 C570 1.526 . S
C568 H552 0.959 . S
C568 H553 0.959 . S
C568 H554 0.961 . S
C568 C567 1.502 . S
C569 H555 0.960 . S
C569 H556 0.961 . S
C569 H557 0.959 . S
C569 C567 1.561 . S
C570 C567 1.526 . S
C570 C571 1.396 . S
C570 C575 1.390 . S
C571 C565 1.465 . S
C571 C570 1.396 . S
C571 C572 1.399 . S
C572 H558 0.929 . S
C572 C571 1.399 . S
C572 C573 1.385 . S
C573 H559 0.931 . S
C573 C572 1.385 . S
C573 C574 1.389 . S
C574 C573 1.389 . S
C574 C575 1.387 . S
C575 H560 0.930 . S
C575 C570 1.390 . S
C575 C574 1.387 . S
H576 C588 0.930 . S
H577 C590 0.930 . S
H578 C591 0.930 . S
H579 C595 0.959 . S
H580 C595 0.959 . S
H581 C595 0.961 . S
H582 C596 0.960 . S
H583 C596 0.961 . S
H584 C596 0.959 . S
H585 C599 0.929 . S
H586 C600 0.931 . S
H587 C602 0.930 . S
C588 H576 0.930 . S
C588 C589 1.399 . S
C588 C593 1.399 . S
C589 C588 1.399 . S
C589 C590 1.376 . S
C590 H577 0.930 . S
C590 C589 1.376 . S
C590 C591 1.388 . S
C591 H578 0.930 . S
C591 C590 1.388 . S
C591 C592 1.390 . S
C592 C591 1.390 . S
C592 C593 1.394 . S
C592 C598 1.465 . S
C593 C588 1.399 . S
C593 C592 1.394 . S
C593 C594 1.516 . S
C594 C593 1.516 . S
C594 C595 1.502 . S
C594 C596 1.561 . S
C594 C597 1.526 . S
C595 H579 0.959 . S
C595 H580 0.959 . S
C595 H581 0.961 . S
C595 C594 1.502 . S
C596 H582 0.960 . S
C596 H583 0.961 . S
C596 H584 0.959 . S
C596 C594 1.561 . S
C597 C594 1.526 . S
C597 C598 1.396 . S
C597 C602 1.390 1_554 S
C598 C592 1.465 . S
C598 C597 1.396 . S
C598 C599 1.399 . S
C599 H585 0.929 . S
C599 C598 1.399 . S
C599 C600 1.385 1_554 S
C600 H586 0.931 . S
C600 C599 1.385 1_556 S
C600 C601 1.389 . S
C601 C600 1.389 . S
C601 C602 1.387 . S
C602 H587 0.930 . S
C602 C597 1.390 1_556 S
C602 C601 1.387 . S
H603 C615 0.930 . S
H604 C617 0.930 . S
H605 C618 0.930 . S
H606 C622 0.959 . S
H607 C622 0.959 . S
H608 C622 0.961 . S
H609 C623 0.960 . S
H610 C623 0.961 . S
H611 C623 0.959 . S
H612 C626 0.929 . S
H613 C627 0.931 . S
H614 C629 0.930 . S
C615 H603 0.930 . S
C615 C616 1.399 . S
C615 C620 1.399 . S
C616 C615 1.399 . S
C616 C617 1.376 . S
C617 H604 0.930 . S
C617 C616 1.376 . S
C617 C618 1.388 . S
C618 H605 0.930 . S
C618 C617 1.388 . S
C618 C619 1.390 . S
C619 C618 1.390 . S
C619 C620 1.394 . S
C619 C625 1.465 . S
C620 C615 1.399 . S
C620 C619 1.394 . S
C620 C621 1.516 . S
C621 C620 1.516 . S
C621 C622 1.502 . S
C621 C623 1.561 . S
C621 C624 1.526 . S
C622 H606 0.959 . S
C622 H607 0.959 . S
C622 H608 0.961 . S
C622 C621 1.502 . S
C623 H609 0.960 . S
C623 H610 0.961 . S
C623 H611 0.959 . S
C623 C621 1.561 . S
C624 C621 1.526 . S
C624 C625 1.396 . S
C624 C629 1.390 1_554 S
C625 C619 1.465 . S
C625 C624 1.396 . S
C625 C626 1.399 . S
C626 H612 0.929 . S
C626 C625 1.399 . S
C626 C627 1.385 1_554 S
C627 H613 0.931 . S
C627 C626 1.385 1_556 S
C627 C628 1.389 . S
C628 C627 1.389 . S
C628 C629 1.387 . S
C629 H614 0.930 . S
C629 C624 1.390 1_556 S
C629 C628 1.387 . S
H630 C642 0.930 . S
H631 C644 0.930 . S
H632 C645 0.930 . S
H633 C649 0.959 . S
H634 C649 0.959 . S
H635 C649 0.961 . S
H636 C650 0.960 . S
H637 C650 0.961 . S
H638 C650 0.959 . S
H639 C653 0.929 . S
H640 C654 0.931 . S
H641 C656 0.930 . S
C642 H630 0.930 . S
C642 C643 1.399 . S
C642 C647 1.399 . S
C643 C642 1.399 . S
C643 C644 1.376 . S
C644 H631 0.930 . S
C644 C643 1.376 . S
C644 C645 1.388 . S
C645 H632 0.930 . S
C645 C644 1.388 . S
C645 C646 1.390 . S
C646 C645 1.390 . S
C646 C647 1.394 . S
C646 C652 1.465 . S
C647 C642 1.399 . S
C647 C646 1.394 . S
C647 C648 1.516 . S
C648 C647 1.516 . S
C648 C649 1.502 . S
C648 C650 1.561 . S
C648 C651 1.526 . S
C649 H633 0.959 . S
C649 H634 0.959 . S
C649 H635 0.961 . S
C649 C648 1.502 . S
C650 H636 0.960 . S
C650 H637 0.961 . S
C650 H638 0.959 . S
C650 C648 1.561 . S
C651 C648 1.526 . S
C651 C652 1.396 . S
C651 C656 1.390 . S
C652 C646 1.465 . S
C652 C651 1.396 . S
C652 C653 1.399 . S
C653 H639 0.929 . S
C653 C652 1.399 . S
C653 C654 1.385 . S
C654 H640 0.931 . S
C654 C653 1.385 . S
C654 C655 1.389 . S
C655 C654 1.389 . S
C655 C656 1.387 . S
C656 H641 0.930 . S
C656 C651 1.390 . S
C656 C655 1.387 . S
H657 C669 0.930 . S
H658 C671 0.930 . S
H659 C672 0.930 . S
H660 C676 0.959 . S
H661 C676 0.959 . S
H662 C676 0.961 . S
H663 C677 0.960 . S
H664 C677 0.961 . S
H665 C677 0.959 . S
H666 C680 0.929 . S
H667 C681 0.931 . S
H668 C683 0.930 . S
C669 H657 0.930 . S
C669 C670 1.399 . S
C669 C674 1.399 . S
C670 C669 1.399 . S
C670 C671 1.376 . S
C671 H658 0.930 . S
C671 C670 1.376 . S
C671 C672 1.388 . S
C672 H659 0.930 . S
C672 C671 1.388 . S
C672 C673 1.390 . S
C673 C672 1.390 . S
C673 C674 1.394 . S
C673 C679 1.465 . S
C674 C669 1.399 . S
C674 C673 1.394 . S
C674 C675 1.516 . S
C675 C674 1.516 . S
C675 C676 1.502 . S
C675 C677 1.561 . S
C675 C678 1.526 . S
C676 H660 0.959 . S
C676 H661 0.959 . S
C676 H662 0.961 . S
C676 C675 1.502 . S
C677 H663 0.960 . S
C677 H664 0.961 . S
C677 H665 0.959 . S
C677 C675 1.561 . S
C678 C675 1.526 . S
C678 C679 1.396 . S
C678 C683 1.390 . S
C679 C673 1.465 . S
C679 C678 1.396 . S
C679 C680 1.399 . S
C680 H666 0.929 . S
C680 C679 1.399 . S
C680 C681 1.385 . S
C681 H667 0.931 . S
C681 C680 1.385 . S
C681 C682 1.389 . S
C682 C681 1.389 . S
C682 C683 1.387 . S
C683 H668 0.930 . S
C683 C678 1.390 . S
C683 C682 1.387 . S
H684 C696 0.930 . S
H685 C698 0.930 . S
H686 C699 0.930 . S
H687 C703 0.959 . S
H688 C703 0.959 . S
H689 C703 0.961 . S
H690 C704 0.960 . S
H691 C704 0.961 . S
H692 C704 0.959 . S
H693 C707 0.929 . S
H694 C708 0.931 . S
H695 C710 0.930 . S
C696 H684 0.930 . S
C696 C697 1.399 . S
C696 C701 1.399 . S
C697 C696 1.399 . S
C697 C698 1.376 . S
C698 H685 0.930 . S
C698 C697 1.376 . S
C698 C699 1.388 . S
C699 H686 0.930 . S
C699 C698 1.388 . S
C699 C700 1.390 . S
C700 C699 1.390 . S
C700 C701 1.394 . S
C700 C706 1.465 . S
C701 C696 1.399 . S
C701 C700 1.394 . S
C701 C702 1.516 . S
C702 C701 1.516 . S
C702 C703 1.502 . S
C702 C704 1.561 . S
C702 C705 1.526 . S
C703 H687 0.959 . S
C703 H688 0.959 . S
C703 H689 0.961 . S
C703 C702 1.502 . S
C704 H690 0.960 . S
C704 H691 0.961 . S
C704 H692 0.959 . S
C704 C702 1.561 . S
C705 C702 1.526 . S
C705 C706 1.396 . S
C705 C710 1.390 . S
C706 C700 1.465 . S
C706 C705 1.396 . S
C706 C707 1.399 . S
C707 H693 0.929 . S
C707 C706 1.399 . S
C707 C708 1.385 . S
C708 H694 0.931 . S
C708 C707 1.385 . S
C708 C709 1.389 . S
C709 C708 1.389 . S
C709 C710 1.387 . S
C710 H695 0.930 . S
C710 C705 1.390 . S
C710 C709 1.387 . S
H711 C723 0.930 . S
H712 C725 0.930 . S
H713 C726 0.930 . S
H714 C730 0.959 . S
H715 C730 0.959 . S
H716 C730 0.961 . S
H717 C731 0.960 . S
H718 C731 0.961 . S
H719 C731 0.959 . S
H720 C734 0.929 . S
H721 C735 0.931 . S
H722 C737 0.930 . S
C723 H711 0.930 . S
C723 C724 1.399 . S
C723 C728 1.399 . S
C724 C723 1.399 . S
C724 C725 1.376 . S
C725 H712 0.930 . S
C725 C724 1.376 . S
C725 C726 1.388 . S
C726 H713 0.930 . S
C726 C725 1.388 . S
C726 C727 1.390 . S
C727 C726 1.390 . S
C727 C728 1.394 . S
C727 C733 1.465 . S
C728 C723 1.399 . S
C728 C727 1.394 . S
C728 C729 1.516 . S
C729 C728 1.516 . S
C729 C730 1.502 . S
C729 C731 1.561 . S
C729 C732 1.526 . S
C730 H714 0.959 . S
C730 H715 0.959 . S
C730 H716 0.961 . S
C730 C729 1.502 . S
C731 H717 0.960 . S
C731 H718 0.961 . S
C731 H719 0.959 . S
C731 C729 1.561 . S
C732 C729 1.526 . S
C732 C733 1.396 . S
C732 C737 1.390 1_556 S
C733 C727 1.465 . S
C733 C732 1.396 . S
C733 C734 1.399 . S
C734 H720 0.929 . S
C734 C733 1.399 . S
C734 C735 1.385 1_556 S
C735 H721 0.931 . S
C735 C734 1.385 1_554 S
C735 C736 1.389 . S
C736 C735 1.389 . S
C736 C737 1.387 . S
C737 H722 0.930 . S
C737 C732 1.390 1_554 S
C737 C736 1.387 . S
H738 C750 0.930 . S
H739 C752 0.930 . S
H740 C753 0.930 . S
H741 C757 0.959 . S
H742 C757 0.959 . S
H743 C757 0.961 . S
H744 C758 0.960 . S
H745 C758 0.961 . S
H746 C758 0.959 . S
H747 C761 0.929 . S
H748 C762 0.931 . S
H749 C764 0.930 . S
C750 H738 0.930 . S
C750 C751 1.399 . S
C750 C755 1.399 1_554 S
C751 C750 1.399 . S
C751 C752 1.376 . S
C752 H739 0.930 . S
C752 C751 1.376 . S
C752 C753 1.388 1_554 S
C753 H740 0.930 . S
C753 C752 1.388 1_556 S
C753 C754 1.390 . S
C754 C753 1.390 . S
C754 C755 1.394 . S
C754 C760 1.465 . S
C755 C750 1.399 1_556 S
C755 C754 1.394 . S
C755 C756 1.516 . S
C756 C755 1.516 . S
C756 C757 1.502 . S
C756 C758 1.561 . S
C756 C759 1.526 . S
C757 H741 0.959 . S
C757 H742 0.959 . S
C757 H743 0.961 . S
C757 C756 1.502 . S
C758 H744 0.960 . S
C758 H745 0.961 . S
C758 H746 0.959 . S
C758 C756 1.561 . S
C759 C756 1.526 . S
C759 C760 1.396 . S
C759 C764 1.390 . S
C760 C754 1.465 . S
C760 C759 1.396 . S
C760 C761 1.399 . S
C761 H747 0.929 . S
C761 C760 1.399 . S
C761 C762 1.385 . S
C762 H748 0.931 . S
C762 C761 1.385 . S
C762 C763 1.389 . S
C763 C762 1.389 . S
C763 C764 1.387 . S
C764 H749 0.930 . S
C764 C759 1.390 . S
C764 C763 1.387 . S
H765 C777 0.930 . S
H766 C779 0.930 . S
H767 C780 0.930 . S
H768 C784 0.959 . S
H769 C784 0.959 . S
H770 C784 0.961 . S
H771 C785 0.960 . S
H772 C785 0.961 . S
H773 C785 0.959 . S
H774 C788 0.929 . S
H775 C789 0.931 . S
H776 C791 0.930 . S
C777 H765 0.930 . S
C777 C778 1.399 . S
C777 C782 1.399 . S
C778 C777 1.399 . S
C778 C779 1.376 . S
C779 H766 0.930 . S
C779 C778 1.376 . S
C779 C780 1.388 . S
C780 H767 0.930 . S
C780 C779 1.388 . S
C780 C781 1.390 . S
C781 C780 1.390 . S
C781 C782 1.394 . S
C781 C787 1.465 . S
C782 C777 1.399 . S
C782 C781 1.394 . S
C782 C783 1.516 . S
C783 C782 1.516 . S
C783 C784 1.502 . S
C783 C785 1.561 . S
C783 C786 1.526 . S
C784 H768 0.959 . S
C784 H769 0.959 . S
C784 H770 0.961 . S
C784 C783 1.502 . S
C785 H771 0.960 . S
C785 H772 0.961 . S
C785 H773 0.959 . S
C785 C783 1.561 . S
C786 C783 1.526 . S
C786 C787 1.396 . S
C786 C791 1.390 1_556 S
C787 C781 1.465 . S
C787 C786 1.396 . S
C787 C788 1.399 . S
C788 H774 0.929 . S
C788 C787 1.399 . S
C788 C789 1.385 1_556 S
C789 H775 0.931 . S
C789 C788 1.385 1_554 S
C789 C790 1.389 . S
C790 C789 1.389 . S
C790 C791 1.387 . S
C791 H776 0.930 . S
C791 C786 1.390 1_554 S
C791 C790 1.387 . S
H792 C804 0.930 . S
H793 C806 0.930 . S
H794 C807 0.930 . S
H795 C811 0.959 . S
H796 C811 0.959 . S
H797 C811 0.961 . S
H798 C812 0.960 . S
H799 C812 0.961 . S
H800 C812 0.959 . S
H801 C815 0.929 . S
H802 C816 0.931 . S
H803 C818 0.930 . S
C804 H792 0.930 . S
C804 C805 1.399 . S
C804 C809 1.399 . S
C805 C804 1.399 . S
C805 C806 1.376 . S
C806 H793 0.930 . S
C806 C805 1.376 . S
C806 C807 1.388 . S
C807 H794 0.930 . S
C807 C806 1.388 . S
C807 C808 1.390 . S
C808 C807 1.390 . S
C808 C809 1.394 . S
C808 C814 1.465 . S
C809 C804 1.399 . S
C809 C808 1.394 . S
C809 C810 1.516 . S
C810 C809 1.516 . S
C810 C811 1.502 . S
C810 C812 1.561 1_655 S
C810 C813 1.526 . S
C811 H795 0.959 . S
C811 H796 0.959 . S
C811 H797 0.961 . S
C811 C810 1.502 . S
C812 H798 0.960 . S
C812 H799 0.961 . S
C812 H800 0.959 . S
C812 C810 1.561 1_455 S
C813 C810 1.526 . S
C813 C814 1.396 . S
C813 C818 1.390 . S
C814 C808 1.465 . S
C814 C813 1.396 . S
C814 C815 1.399 . S
C815 H801 0.929 . S
C815 C814 1.399 . S
C815 C816 1.385 . S
C816 H802 0.931 . S
C816 C815 1.385 . S
C816 C817 1.389 . S
C817 C816 1.389 . S
C817 C818 1.387 . S
C818 H803 0.930 . S
C818 C813 1.390 . S
C818 C817 1.387 . S
H819 C831 0.930 . S
H820 C833 0.930 . S
H821 C834 0.930 . S
H822 C838 0.959 . S
H823 C838 0.959 . S
H824 C838 0.961 . S
H825 C839 0.960 . S
H826 C839 0.961 . S
H827 C839 0.959 . S
H828 C842 0.929 . S
H829 C843 0.931 . S
H830 C845 0.930 . S
C831 H819 0.930 . S
C831 C832 1.399 . S
C831 C836 1.399 . S
C832 C831 1.399 . S
C832 C833 1.376 . S
C833 H820 0.930 . S
C833 C832 1.376 . S
C833 C834 1.388 . S
C834 H821 0.930 . S
C834 C833 1.388 . S
C834 C835 1.390 . S
C835 C834 1.390 . S
C835 C836 1.394 . S
C835 C841 1.465 . S
C836 C831 1.399 . S
C836 C835 1.394 . S
C836 C837 1.516 . S
C837 C836 1.516 . S
C837 C838 1.502 . S
C837 C839 1.561 . S
C837 C840 1.526 . S
C838 H822 0.959 . S
C838 H823 0.959 . S
C838 H824 0.961 . S
C838 C837 1.502 . S
C839 H825 0.960 . S
C839 H826 0.961 . S
C839 H827 0.959 . S
C839 C837 1.561 . S
C840 C837 1.526 . S
C840 C841 1.396 . S
C840 C845 1.390 . S
C841 C835 1.465 . S
C841 C840 1.396 . S
C841 C842 1.399 . S
C842 H828 0.929 . S
C842 C841 1.399 . S
C842 C843 1.385 . S
C843 H829 0.931 . S
C843 C842 1.385 . S
C843 C844 1.389 . S
C844 C843 1.389 . S
C844 C845 1.387 . S
C845 H830 0.930 . S
C845 C840 1.390 . S
C845 C844 1.387 . S
H846 C858 0.930 1_545 S
H847 C860 0.930 . S
H848 C861 0.930 . S
H849 C865 0.959 1_565 S
H850 C865 0.959 . S
H851 C865 0.961 . S
H852 C866 0.960 . S
H853 C866 0.961 . S
H854 C866 0.959 . S
H855 C869 0.929 . S
H856 C870 0.931 . S
H857 C872 0.930 1_545 S
C858 H846 0.930 1_565 S
C858 C859 1.399 . S
C858 C863 1.399 . S
C859 C858 1.399 . S
C859 C860 1.376 . S
C860 H847 0.930 . S
C860 C859 1.376 . S
C860 C861 1.388 . S
C861 H848 0.930 . S
C861 C860 1.388 . S
C861 C862 1.390 . S
C862 C861 1.390 . S
C862 C863 1.394 . S
C862 C868 1.465 . S
C863 C858 1.399 . S
C863 C862 1.394 . S
C863 C864 1.516 1_565 S
C864 C863 1.516 1_545 S
C864 C865 1.502 . S
C864 C866 1.561 . S
C864 C867 1.526 1_545 S
C865 H849 0.959 1_545 S
C865 H850 0.959 . S
C865 H851 0.961 . S
C865 C864 1.502 . S
C866 H852 0.960 . S
C866 H853 0.961 . S
C866 H854 0.959 . S
C866 C864 1.561 . S
C867 C864 1.526 1_565 S
C867 C868 1.396 . S
C867 C872 1.390 . S
C868 C862 1.465 . S
C868 C867 1.396 . S
C868 C869 1.399 . S
C869 H855 0.929 . S
C869 C868 1.399 . S
C869 C870 1.385 . S
C870 H856 0.931 . S
C870 C869 1.385 . S
C870 C871 1.389 . S
C871 C870 1.389 . S
C871 C872 1.387 . S
C872 H857 0.930 1_565 S
C872 C867 1.390 . S
C872 C871 1.387 . S
H873 C885 0.930 . S
H874 C887 0.930 1_565 S
H875 C888 0.930 . S
H876 C892 0.959 . S
H877 C892 0.959 . S
H878 C892 0.961 . S
H879 C893 0.960 . S
H880 C893 0.961 . S
H881 C893 0.959 . S
H882 C896 0.929 . S
H883 C897 0.931 . S
H884 C899 0.930 . S
C885 H873 0.930 . S
C885 C886 1.399 . S
C885 C890 1.399 . S
C886 C885 1.399 . S
C886 C887 1.376 . S
C887 H874 0.930 1_545 S
C887 C886 1.376 . S
C887 C888 1.388 1_545 S
C888 H875 0.930 . S
C888 C887 1.388 1_565 S
C888 C889 1.390 1_565 S
C889 C888 1.390 1_545 S
C889 C890 1.394 . S
C889 C895 1.465 . S
C890 C885 1.399 . S
C890 C889 1.394 . S
C890 C891 1.516 . S
C891 C890 1.516 . S
C891 C892 1.502 . S
C891 C893 1.561 . S
C891 C894 1.526 . S
C892 H876 0.959 . S
C892 H877 0.959 . S
C892 H878 0.961 . S
C892 C891 1.502 . S
C893 H879 0.960 . S
C893 H880 0.961 . S
C893 H881 0.959 . S
C893 C891 1.561 . S
C894 C891 1.526 . S
C894 C895 1.396 . S
C894 C899 1.390 . S
C895 C889 1.465 . S
C895 C894 1.396 . S
C895 C896 1.399 1_545 S
C896 H882 0.929 . S
C896 C895 1.399 1_565 S
C896 C897 1.385 . S
C897 H883 0.931 . S
C897 C896 1.385 . S
C897 C898 1.389 1_565 S
C898 C897 1.389 1_545 S
C898 C899 1.387 . S
C899 H884 0.930 . S
C899 C894 1.390 . S
C899 C898 1.387 . S
H900 C912 0.930 . S
H901 C914 0.930 . S
H902 C915 0.930 . S
H903 C919 0.959 . S
H904 C919 0.959 . S
H905 C919 0.961 . S
H906 C920 0.960 . S
H907 C920 0.961 . S
H908 C920 0.959 . S
H909 C923 0.929 . S
H910 C924 0.931 . S
H911 C926 0.930 . S
C912 H900 0.930 . S
C912 C913 1.399 . S
C912 C917 1.399 . S
C913 C912 1.399 . S
C913 C914 1.376 . S
C914 H901 0.930 . S
C914 C913 1.376 . S
C914 C915 1.388 . S
C915 H902 0.930 . S
C915 C914 1.388 . S
C915 C916 1.390 . S
C916 C915 1.390 . S
C916 C917 1.394 . S
C916 C922 1.465 . S
C917 C912 1.399 . S
C917 C916 1.394 . S
C917 C918 1.516 . S
C918 C917 1.516 . S
C918 C919 1.502 . S
C918 C920 1.561 1_455 S
C918 C921 1.526 . S
C919 H903 0.959 . S
C919 H904 0.959 . S
C919 H905 0.961 . S
C919 C918 1.502 . S
C920 H906 0.960 . S
C920 H907 0.961 . S
C920 H908 0.959 . S
C920 C918 1.561 1_655 S
C921 C918 1.526 . S
C921 C922 1.396 . S
C921 C926 1.390 . S
C922 C916 1.465 . S
C922 C921 1.396 . S
C922 C923 1.399 . S
C923 H909 0.929 . S
C923 C922 1.399 . S
C923 C924 1.385 . S
C924 H910 0.931 . S
C924 C923 1.385 . S
C924 C925 1.389 . S
C925 C924 1.389 . S
C925 C926 1.387 . S
C926 H911 0.930 . S
C926 C921 1.390 . S
C926 C925 1.387 . S
H927 C939 0.930 . S
H928 C941 0.930 . S
H929 C942 0.930 . S
H930 C946 0.959 . S
H931 C946 0.959 . S
H932 C946 0.961 . S
H933 C947 0.960 . S
H934 C947 0.961 . S
H935 C947 0.959 . S
H936 C950 0.929 . S
H937 C951 0.931 . S
H938 C953 0.930 . S
C939 H927 0.930 . S
C939 C940 1.399 . S
C939 C944 1.399 . S
C940 C939 1.399 . S
C940 C941 1.376 . S
C941 H928 0.930 . S
C941 C940 1.376 . S
C941 C942 1.388 . S
C942 H929 0.930 . S
C942 C941 1.388 . S
C942 C943 1.390 . S
C943 C942 1.390 . S
C943 C944 1.394 . S
C943 C949 1.465 . S
C944 C939 1.399 . S
C944 C943 1.394 . S
C944 C945 1.516 . S
C945 C944 1.516 . S
C945 C946 1.502 . S
C945 C947 1.561 . S
C945 C948 1.526 . S
C946 H930 0.959 . S
C946 H931 0.959 . S
C946 H932 0.961 . S
C946 C945 1.502 . S
C947 H933 0.960 . S
C947 H934 0.961 . S
C947 H935 0.959 . S
C947 C945 1.561 . S
C948 C945 1.526 . S
C948 C949 1.396 . S
C948 C953 1.390 . S
C949 C943 1.465 . S
C949 C948 1.396 . S
C949 C950 1.399 . S
C950 H936 0.929 . S
C950 C949 1.399 . S
C950 C951 1.385 . S
C951 H937 0.931 . S
C951 C950 1.385 . S
C951 C952 1.389 . S
C952 C951 1.389 . S
C952 C953 1.387 . S
C953 H938 0.930 . S
C953 C948 1.390 . S
C953 C952 1.387 . S
H954 C966 0.930 . S
H955 C968 0.930 . S
H956 C969 0.930 . S
H957 C973 0.959 . S
H958 C973 0.959 . S
H959 C973 0.961 . S
H960 C974 0.960 . S
H961 C974 0.961 . S
H962 C974 0.959 . S
H963 C977 0.929 . S
H964 C978 0.931 . S
H965 C980 0.930 . S
C966 H954 0.930 . S
C966 C967 1.399 . S
C966 C971 1.399 . S
C967 C966 1.399 . S
C967 C968 1.376 . S
C968 H955 0.930 . S
C968 C967 1.376 . S
C968 C969 1.388 . S
C969 H956 0.930 . S
C969 C968 1.388 . S
C969 C970 1.390 . S
C970 C969 1.390 . S
C970 C971 1.394 . S
C970 C976 1.465 . S
C971 C966 1.399 . S
C971 C970 1.394 . S
C971 C972 1.516 . S
C972 C971 1.516 . S
C972 C973 1.502 . S
C972 C974 1.561 . S
C972 C975 1.526 . S
C973 H957 0.959 . S
C973 H958 0.959 . S
C973 H959 0.961 . S
C973 C972 1.502 . S
C974 H960 0.960 . S
C974 H961 0.961 . S
C974 H962 0.959 . S
C974 C972 1.561 . S
C975 C972 1.526 . S
C975 C976 1.396 . S
C975 C980 1.390 . S
C976 C970 1.465 . S
C976 C975 1.396 . S
C976 C977 1.399 . S
C977 H963 0.929 . S
C977 C976 1.399 . S
C977 C978 1.385 . S
C978 H964 0.931 . S
C978 C977 1.385 . S
C978 C979 1.389 . S
C979 C978 1.389 . S
C979 C980 1.387 . S
C980 H965 0.930 . S
C980 C975 1.390 . S
C980 C979 1.387 . S
H981 C993 0.930 . S
H982 C995 0.930 . S
H983 C996 0.930 . S
H984 C1000 0.959 . S
H985 C1000 0.959 . S
H986 C1000 0.961 . S
H987 C1001 0.960 . S
H988 C1001 0.961 . S
H989 C1001 0.959 . S
H990 C1004 0.929 . S
H991 C1005 0.931 . S
H992 C1007 0.930 . S
C993 H981 0.930 . S
C993 C994 1.399 . S
C993 C998 1.399 . S
C994 C993 1.399 . S
C994 C995 1.376 . S
C995 H982 0.930 . S
C995 C994 1.376 . S
C995 C996 1.388 . S
C996 H983 0.930 . S
C996 C995 1.388 . S
C996 C997 1.390 . S
C997 C996 1.390 . S
C997 C998 1.394 . S
C997 C1003 1.465 . S
C998 C993 1.399 . S
C998 C997 1.394 . S
C998 C999 1.516 . S
C999 C998 1.516 . S
C999 C1000 1.502 . S
C999 C1001 1.561 . S
C999 C1002 1.526 . S
C1000 H984 0.959 . S
C1000 H985 0.959 . S
C1000 H986 0.961 . S
C1000 C999 1.502 . S
C1001 H987 0.960 . S
C1001 H988 0.961 . S
C1001 H989 0.959 . S
C1001 C999 1.561 . S
C1002 C999 1.526 . S
C1002 C1003 1.396 . S
C1002 C1007 1.390 . S
C1003 C997 1.465 . S
C1003 C1002 1.396 . S
C1003 C1004 1.399 . S
C1004 H990 0.929 . S
C1004 C1003 1.399 . S
C1004 C1005 1.385 . S
C1005 H991 0.931 . S
C1005 C1004 1.385 . S
C1005 C1006 1.389 . S
C1006 C1005 1.389 . S
C1006 C1007 1.387 . S
C1007 H992 0.930 . S
C1007 C1002 1.390 . S
C1007 C1006 1.387 . S
H1008 C1020 0.930 . S
H1009 C1022 0.930 . S
H1010 C1023 0.930 . S
H1011 C1027 0.959 . S
H1012 C1027 0.959 . S
H1013 C1027 0.961 . S
H1014 C1028 0.960 . S
H1015 C1028 0.961 . S
H1016 C1028 0.959 . S
H1017 C1031 0.929 . S
H1018 C1032 0.931 . S
H1019 C1034 0.930 . S
C1020 H1008 0.930 . S
C1020 C1021 1.399 . S
C1020 C1025 1.399 . S
C1021 C1020 1.399 . S
C1021 C1022 1.376 . S
C1022 H1009 0.930 . S
C1022 C1021 1.376 . S
C1022 C1023 1.388 . S
C1023 H1010 0.930 . S
C1023 C1022 1.388 . S
C1023 C1024 1.390 . S
C1024 C1023 1.390 . S
C1024 C1025 1.394 . S
C1024 C1030 1.465 . S
C1025 C1020 1.399 . S
C1025 C1024 1.394 . S
C1025 C1026 1.516 . S
C1026 C1025 1.516 . S
C1026 C1027 1.502 . S
C1026 C1028 1.561 . S
C1026 C1029 1.526 . S
C1027 H1011 0.959 . S
C1027 H1012 0.959 . S
C1027 H1013 0.961 . S
C1027 C1026 1.502 . S
C1028 H1014 0.960 . S
C1028 H1015 0.961 . S
C1028 H1016 0.959 . S
C1028 C1026 1.561 . S
C1029 C1026 1.526 . S
C1029 C1030 1.396 . S
C1029 C1034 1.390 . S
C1030 C1024 1.465 . S
C1030 C1029 1.396 . S
C1030 C1031 1.399 . S
C1031 H1017 0.929 . S
C1031 C1030 1.399 . S
C1031 C1032 1.385 . S
C1032 H1018 0.931 . S
C1032 C1031 1.385 . S
C1032 C1033 1.389 . S
C1033 C1032 1.389 . S
C1033 C1034 1.387 . S
C1034 H1019 0.930 . S
C1034 C1029 1.390 . S
C1034 C1033 1.387 . S
H1035 C1047 0.930 . S
H1036 C1049 0.930 . S
H1037 C1050 0.930 . S
H1038 C1054 0.959 . S
H1039 C1054 0.959 . S
H1040 C1054 0.961 . S
H1041 C1055 0.960 . S
H1042 C1055 0.961 . S
H1043 C1055 0.959 . S
H1044 C1058 0.929 . S
H1045 C1059 0.931 . S
H1046 C1061 0.930 . S
C1047 H1035 0.930 . S
C1047 C1048 1.399 . S
C1047 C1052 1.399 . S
C1048 C1047 1.399 . S
C1048 C1049 1.376 . S
C1049 H1036 0.930 . S
C1049 C1048 1.376 . S
C1049 C1050 1.388 . S
C1050 H1037 0.930 . S
C1050 C1049 1.388 . S
C1050 C1051 1.390 . S
C1051 C1050 1.390 . S
C1051 C1052 1.394 . S
C1051 C1057 1.465 . S
C1052 C1047 1.399 . S
C1052 C1051 1.394 . S
C1052 C1053 1.516 . S
C1053 C1052 1.516 . S
C1053 C1054 1.502 . S
C1053 C1055 1.561 . S
C1053 C1056 1.526 . S
C1054 H1038 0.959 . S
C1054 H1039 0.959 . S
C1054 H1040 0.961 . S
C1054 C1053 1.502 . S
C1055 H1041 0.960 . S
C1055 H1042 0.961 . S
C1055 H1043 0.959 . S
C1055 C1053 1.561 . S
C1056 C1053 1.526 . S
C1056 C1057 1.396 . S
C1056 C1061 1.390 . S
C1057 C1051 1.465 . S
C1057 C1056 1.396 . S
C1057 C1058 1.399 . S
C1058 H1044 0.929 . S
C1058 C1057 1.399 . S
C1058 C1059 1.385 . S
C1059 H1045 0.931 . S
C1059 C1058 1.385 . S
C1059 C1060 1.389 . S
C1060 C1059 1.389 . S
C1060 C1061 1.387 . S
C1061 H1046 0.930 . S
C1061 C1056 1.390 . S
C1061 C1060 1.387 . S
H1062 C1074 0.930 . S
H1063 C1076 0.930 . S
H1064 C1077 0.930 . S
H1065 C1081 0.959 . S
H1066 C1081 0.959 . S
H1067 C1081 0.961 . S
H1068 C1082 0.960 . S
H1069 C1082 0.961 . S
H1070 C1082 0.959 . S
H1071 C1085 0.929 . S
H1072 C1086 0.931 . S
H1073 C1088 0.930 . S
C1074 H1062 0.930 . S
C1074 C1075 1.399 . S
C1074 C1079 1.399 . S
C1075 C1074 1.399 . S
C1075 C1076 1.376 . S
C1076 H1063 0.930 . S
C1076 C1075 1.376 . S
C1076 C1077 1.388 . S
C1077 H1064 0.930 . S
C1077 C1076 1.388 . S
C1077 C1078 1.390 . S
C1078 C1077 1.390 . S
C1078 C1079 1.394 . S
C1078 C1084 1.465 . S
C1079 C1074 1.399 . S
C1079 C1078 1.394 . S
C1079 C1080 1.516 . S
C1080 C1079 1.516 . S
C1080 C1081 1.502 . S
C1080 C1082 1.561 . S
C1080 C1083 1.526 . S
C1081 H1065 0.959 . S
C1081 H1066 0.959 . S
C1081 H1067 0.961 . S
C1081 C1080 1.502 . S
C1082 H1068 0.960 . S
C1082 H1069 0.961 . S
C1082 H1070 0.959 . S
C1082 C1080 1.561 . S
C1083 C1080 1.526 . S
C1083 C1084 1.396 . S
C1083 C1088 1.390 . S
C1084 C1078 1.465 . S
C1084 C1083 1.396 . S
C1084 C1085 1.399 . S
C1085 H1071 0.929 . S
C1085 C1084 1.399 . S
C1085 C1086 1.385 . S
C1086 H1072 0.931 . S
C1086 C1085 1.385 . S
C1086 C1087 1.389 . S
C1087 C1086 1.389 . S
C1087 C1088 1.387 . S
C1088 H1073 0.930 . S
C1088 C1083 1.390 . S
C1088 C1087 1.387 . S
H1089 C1101 0.930 . S
H1090 C1103 0.930 . S
H1091 C1104 0.930 . S
H1092 C1108 0.959 . S
H1093 C1108 0.959 . S
H1094 C1108 0.961 . S
H1095 C1109 0.960 . S
H1096 C1109 0.961 . S
H1097 C1109 0.959 . S
H1098 C1112 0.929 . S
H1099 C1113 0.931 . S
H1100 C1115 0.930 . S
C1101 H1089 0.930 . S
C1101 C1102 1.399 . S
C1101 C1106 1.399 . S
C1102 C1101 1.399 . S
C1102 C1103 1.376 . S
C1103 H1090 0.930 . S
C1103 C1102 1.376 . S
C1103 C1104 1.388 . S
C1104 H1091 0.930 . S
C1104 C1103 1.388 . S
C1104 C1105 1.390 . S
C1105 C1104 1.390 . S
C1105 C1106 1.394 . S
C1105 C1111 1.465 . S
C1106 C1101 1.399 . S
C1106 C1105 1.394 . S
C1106 C1107 1.516 . S
C1107 C1106 1.516 . S
C1107 C1108 1.502 . S
C1107 C1109 1.561 . S
C1107 C1110 1.526 . S
C1108 H1092 0.959 . S
C1108 H1093 0.959 . S
C1108 H1094 0.961 . S
C1108 C1107 1.502 . S
C1109 H1095 0.960 . S
C1109 H1096 0.961 . S
C1109 H1097 0.959 . S
C1109 C1107 1.561 . S
C1110 C1107 1.526 . S
C1110 C1111 1.396 . S
C1110 C1115 1.390 . S
C1111 C1105 1.465 . S
C1111 C1110 1.396 . S
C1111 C1112 1.399 . S
C1112 H1098 0.929 . S
C1112 C1111 1.399 . S
C1112 C1113 1.385 . S
C1113 H1099 0.931 . S
C1113 C1112 1.385 . S
C1113 C1114 1.389 . S
C1114 C1113 1.389 . S
C1114 C1115 1.387 . S
C1115 H1100 0.930 . S
C1115 C1110 1.390 . S
C1115 C1114 1.387 . S
H1116 C1128 0.930 . S
H1117 C1130 0.930 . S
H1118 C1131 0.930 . S
H1119 C1135 0.959 . S
H1120 C1135 0.959 . S
H1121 C1135 0.961 . S
H1122 C1136 0.960 . S
H1123 C1136 0.961 . S
H1124 C1136 0.959 . S
H1125 C1139 0.929 . S
H1126 C1140 0.931 . S
H1127 C1142 0.930 . S
C1128 H1116 0.930 . S
C1128 C1129 1.399 . S
C1128 C1133 1.399 . S
C1129 C1128 1.399 . S
C1129 C1130 1.376 . S
C1130 H1117 0.930 . S
C1130 C1129 1.376 . S
C1130 C1131 1.388 . S
C1131 H1118 0.930 . S
C1131 C1130 1.388 . S
C1131 C1132 1.390 . S
C1132 C1131 1.390 . S
C1132 C1133 1.394 . S
C1132 C1138 1.465 . S
C1133 C1128 1.399 . S
C1133 C1132 1.394 . S
C1133 C1134 1.516 . S
C1134 C1133 1.516 . S
C1134 C1135 1.502 . S
C1134 C1136 1.561 . S
C1134 C1137 1.526 . S
C1135 H1119 0.959 . S
C1135 H1120 0.959 . S
C1135 H1121 0.961 . S
C1135 C1134 1.502 . S
C1136 H1122 0.960 . S
C1136 H1123 0.961 . S
C1136 H1124 0.959 . S
C1136 C1134 1.561 . S
C1137 C1134 1.526 . S
C1137 C1138 1.396 . S
C1137 C1142 1.390 . S
C1138 C1132 1.465 . S
C1138 C1137 1.396 . S
C1138 C1139 1.399 . S
C1139 H1125 0.929 . S
C1139 C1138 1.399 . S
C1139 C1140 1.385 . S
C1140 H1126 0.931 . S
C1140 C1139 1.385 . S
C1140 C1141 1.389 . S
C1141 C1140 1.389 . S
C1141 C1142 1.387 . S
C1142 H1127 0.930 . S
C1142 C1137 1.390 . S
C1142 C1141 1.387 . S
H1143 C1155 0.930 . S
H1144 C1157 0.930 . S
H1145 C1158 0.930 . S
H1146 C1162 0.959 . S
H1147 C1162 0.959 . S
H1148 C1162 0.961 . S
H1149 C1163 0.960 . S
H1150 C1163 0.961 . S
H1151 C1163 0.959 . S
H1152 C1166 0.929 . S
H1153 C1167 0.931 . S
H1154 C1169 0.930 . S
C1155 H1143 0.930 . S
C1155 C1156 1.399 . S
C1155 C1160 1.399 . S
C1156 C1155 1.399 . S
C1156 C1157 1.376 . S
C1157 H1144 0.930 . S
C1157 C1156 1.376 . S
C1157 C1158 1.388 . S
C1158 H1145 0.930 . S
C1158 C1157 1.388 . S
C1158 C1159 1.390 . S
C1159 C1158 1.390 . S
C1159 C1160 1.394 . S
C1159 C1165 1.465 . S
C1160 C1155 1.399 . S
C1160 C1159 1.394 . S
C1160 C1161 1.516 . S
C1161 C1160 1.516 . S
C1161 C1162 1.502 . S
C1161 C1163 1.561 . S
C1161 C1164 1.526 . S
C1162 H1146 0.959 . S
C1162 H1147 0.959 . S
C1162 H1148 0.961 . S
C1162 C1161 1.502 . S
C1163 H1149 0.960 . S
C1163 H1150 0.961 . S
C1163 H1151 0.959 . S
C1163 C1161 1.561 . S
C1164 C1161 1.526 . S
C1164 C1165 1.396 . S
C1164 C1169 1.390 . S
C1165 C1159 1.465 . S
C1165 C1164 1.396 . S
C1165 C1166 1.399 . S
C1166 H1152 0.929 . S
C1166 C1165 1.399 . S
C1166 C1167 1.385 . S
C1167 H1153 0.931 . S
C1167 C1166 1.385 . S
C1167 C1168 1.389 . S
C1168 C1167 1.389 . S
C1168 C1169 1.387 . S
C1169 H1154 0.930 . S
C1169 C1164 1.390 . S
C1169 C1168 1.387 . S
H1170 C1182 0.930 . S
H1171 C1184 0.930 . S
H1172 C1185 0.930 . S
H1173 C1189 0.959 . S
H1174 C1189 0.959 . S
H1175 C1189 0.961 . S
H1176 C1190 0.960 . S
H1177 C1190 0.961 . S
H1178 C1190 0.959 . S
H1179 C1193 0.929 . S
H1180 C1194 0.931 . S
H1181 C1196 0.930 . S
C1182 H1170 0.930 . S
C1182 C1183 1.399 . S
C1182 C1187 1.399 . S
C1183 C1182 1.399 . S
C1183 C1184 1.376 . S
C1184 H1171 0.930 . S
C1184 C1183 1.376 . S
C1184 C1185 1.388 . S
C1185 H1172 0.930 . S
C1185 C1184 1.388 . S
C1185 C1186 1.390 . S
C1186 C1185 1.390 . S
C1186 C1187 1.394 . S
C1186 C1192 1.465 . S
C1187 C1182 1.399 . S
C1187 C1186 1.394 . S
C1187 C1188 1.516 . S
C1188 C1187 1.516 . S
C1188 C1189 1.502 . S
C1188 C1190 1.561 . S
C1188 C1191 1.526 . S
C1189 H1173 0.959 . S
C1189 H1174 0.959 . S
C1189 H1175 0.961 . S
C1189 C1188 1.502 . S
C1190 H1176 0.960 . S
C1190 H1177 0.961 . S
C1190 H1178 0.959 . S
C1190 C1188 1.561 . S
C1191 C1188 1.526 . S
C1191 C1192 1.396 . S
C1191 C1196 1.390 . S
C1192 C1186 1.465 . S
C1192 C1191 1.396 . S
C1192 C1193 1.399 . S
C1193 H1179 0.929 . S
C1193 C1192 1.399 . S
C1193 C1194 1.385 . S
C1194 H1180 0.931 . S
C1194 C1193 1.385 . S
C1194 C1195 1.389 . S
C1195 C1194 1.389 . S
C1195 C1196 1.387 . S
C1196 H1181 0.930 . S
C1196 C1191 1.390 . S
C1196 C1195 1.387 . S
H1197 C1209 0.930 . S
H1198 C1211 0.930 . S
H1199 C1212 0.930 . S
H1200 C1216 0.959 . S
H1201 C1216 0.959 . S
H1202 C1216 0.961 . S
H1203 C1217 0.960 . S
H1204 C1217 0.961 . S
H1205 C1217 0.959 . S
H1206 C1220 0.929 . S
H1207 C1221 0.931 . S
H1208 C1223 0.930 . S
C1209 H1197 0.930 . S
C1209 C1210 1.399 . S
C1209 C1214 1.399 . S
C1210 C1209 1.399 . S
C1210 C1211 1.376 . S
C1211 H1198 0.930 . S
C1211 C1210 1.376 . S
C1211 C1212 1.388 . S
C1212 H1199 0.930 . S
C1212 C1211 1.388 . S
C1212 C1213 1.390 . S
C1213 C1212 1.390 . S
C1213 C1214 1.394 . S
C1213 C1219 1.465 . S
C1214 C1209 1.399 . S
C1214 C1213 1.394 . S
C1214 C1215 1.516 . S
C1215 C1214 1.516 . S
C1215 C1216 1.502 . S
C1215 C1217 1.561 . S
C1215 C1218 1.526 . S
C1216 H1200 0.959 . S
C1216 H1201 0.959 . S
C1216 H1202 0.961 . S
C1216 C1215 1.502 . S
C1217 H1203 0.960 . S
C1217 H1204 0.961 . S
C1217 H1205 0.959 . S
C1217 C1215 1.561 . S
C1218 C1215 1.526 . S
C1218 C1219 1.396 . S
C1218 C1223 1.390 . S
C1219 C1213 1.465 . S
C1219 C1218 1.396 . S
C1219 C1220 1.399 . S
C1220 H1206 0.929 . S
C1220 C1219 1.399 . S
C1220 C1221 1.385 . S
C1221 H1207 0.931 . S
C1221 C1220 1.385 . S
C1221 C1222 1.389 . S
C1222 C1221 1.389 . S
C1222 C1223 1.387 . S
C1223 H1208 0.930 . S
C1223 C1218 1.390 . S
C1223 C1222 1.387 . S
H1224 C1236 0.930 . S
H1225 C1238 0.930 . S
H1226 C1239 0.930 . S
H1227 C1243 0.959 . S
H1228 C1243 0.959 . S
H1229 C1243 0.961 . S
H1230 C1244 0.960 . S
H1231 C1244 0.961 . S
H1232 C1244 0.959 . S
H1233 C1247 0.929 . S
H1234 C1248 0.931 . S
H1235 C1250 0.930 . S
C1236 H1224 0.930 . S
C1236 C1237 1.399 . S
C1236 C1241 1.399 . S
C1237 C1236 1.399 . S
C1237 C1238 1.376 . S
C1238 H1225 0.930 . S
C1238 C1237 1.376 . S
C1238 C1239 1.388 . S
C1239 H1226 0.930 . S
C1239 C1238 1.388 . S
C1239 C1240 1.390 . S
C1240 C1239 1.390 . S
C1240 C1241 1.394 . S
C1240 C1246 1.465 . S
C1241 C1236 1.399 . S
C1241 C1240 1.394 . S
C1241 C1242 1.516 . S
C1242 C1241 1.516 . S
C1242 C1243 1.502 . S
C1242 C1244 1.561 . S
C1242 C1245 1.526 . S
C1243 H1227 0.959 . S
C1243 H1228 0.959 . S
C1243 H1229 0.961 . S
C1243 C1242 1.502 . S
C1244 H1230 0.960 . S
C1244 H1231 0.961 . S
C1244 H1232 0.959 . S
C1244 C1242 1.561 . S
C1245 C1242 1.526 . S
C1245 C1246 1.396 . S
C1245 C1250 1.390 . S
C1246 C1240 1.465 . S
C1246 C1245 1.396 . S
C1246 C1247 1.399 . S
C1247 H1233 0.929 . S
C1247 C1246 1.399 . S
C1247 C1248 1.385 . S
C1248 H1234 0.931 . S
C1248 C1247 1.385 . S
C1248 C1249 1.389 . S
C1249 C1248 1.389 . S
C1249 C1250 1.387 . S
C1250 H1235 0.930 . S
C1250 C1245 1.390 . S
C1250 C1249 1.387 . S
H1251 C1263 0.930 . S
H1252 C1265 0.930 . S
H1253 C1266 0.930 . S
H1254 C1270 0.959 . S
H1255 C1270 0.959 . S
H1256 C1270 0.961 . S
H1257 C1271 0.960 . S
H1258 C1271 0.961 . S
H1259 C1271 0.959 . S
H1260 C1274 0.929 . S
H1261 C1275 0.931 . S
H1262 C1277 0.930 . S
C1263 H1251 0.930 . S
C1263 C1264 1.399 . S
C1263 C1268 1.399 . S
C1264 C1263 1.399 . S
C1264 C1265 1.376 . S
C1265 H1252 0.930 . S
C1265 C1264 1.376 . S
C1265 C1266 1.388 . S
C1266 H1253 0.930 . S
C1266 C1265 1.388 . S
C1266 C1267 1.390 . S
C1267 C1266 1.390 . S
C1267 C1268 1.394 . S
C1267 C1273 1.465 . S
C1268 C1263 1.399 . S
C1268 C1267 1.394 . S
C1268 C1269 1.516 . S
C1269 C1268 1.516 . S
C1269 C1270 1.502 . S
C1269 C1271 1.561 . S
C1269 C1272 1.526 . S
C1270 H1254 0.959 . S
C1270 H1255 0.959 . S
C1270 H1256 0.961 . S
C1270 C1269 1.502 . S
C1271 H1257 0.960 . S
C1271 H1258 0.961 . S
C1271 H1259 0.959 . S
C1271 C1269 1.561 . S
C1272 C1269 1.526 . S
C1272 C1273 1.396 . S
C1272 C1277 1.390 . S
C1273 C1267 1.465 . S
C1273 C1272 1.396 . S
C1273 C1274 1.399 . S
C1274 H1260 0.929 . S
C1274 C1273 1.399 . S
C1274 C1275 1.385 . S
C1275 H1261 0.931 . S
C1275 C1274 1.385 . S
C1275 C1276 1.389 . S
C1276 C1275 1.389 . S
C1276 C1277 1.387 . S
C1277 H1262 0.930 . S
C1277 C1272 1.390 . S
C1277 C1276 1.387 . S
H1278 C1290 0.930 . S
H1279 C1292 0.930 . S
H1280 C1293 0.930 . S
H1281 C1297 0.959 . S
H1282 C1297 0.959 . S
H1283 C1297 0.961 . S
H1284 C1298 0.960 . S
H1285 C1298 0.961 . S
H1286 C1298 0.959 . S
H1287 C1301 0.929 . S
H1288 C1302 0.931 . S
H1289 C1304 0.930 1_455 S
C1290 H1278 0.930 . S
C1290 C1291 1.399 . S
C1290 C1295 1.399 . S
C1291 C1290 1.399 . S
C1291 C1292 1.376 1_455 S
C1292 H1279 0.930 . S
C1292 C1291 1.376 1_655 S
C1292 C1293 1.388 . S
C1293 H1280 0.930 . S
C1293 C1292 1.388 . S
C1293 C1294 1.390 . S
C1294 C1293 1.390 . S
C1294 C1295 1.394 1_655 S
C1294 C1300 1.465 . S
C1295 C1290 1.399 . S
C1295 C1294 1.394 1_455 S
C1295 C1296 1.516 . S
C1296 C1295 1.516 . S
C1296 C1297 1.502 . S
C1296 C1298 1.561 1_455 S
C1296 C1299 1.526 1_455 S
C1297 H1281 0.959 . S
C1297 H1282 0.959 . S
C1297 H1283 0.961 . S
C1297 C1296 1.502 . S
C1298 H1284 0.960 . S
C1298 H1285 0.961 . S
C1298 H1286 0.959 . S
C1298 C1296 1.561 1_655 S
C1299 C1296 1.526 1_655 S
C1299 C1300 1.396 . S
C1299 C1304 1.390 . S
C1300 C1294 1.465 . S
C1300 C1299 1.396 . S
C1300 C1301 1.399 . S
C1301 H1287 0.929 . S
C1301 C1300 1.399 . S
C1301 C1302 1.385 . S
C1302 H1288 0.931 . S
C1302 C1301 1.385 . S
C1302 C1303 1.389 . S
C1303 C1302 1.389 . S
C1303 C1304 1.387 . S
C1304 H1289 0.930 1_655 S
C1304 C1299 1.390 . S
C1304 C1303 1.387 . S
H1305 C1317 0.930 . S
H1306 C1319 0.930 . S
H1307 C1320 0.930 . S
H1308 C1324 0.959 . S
H1309 C1324 0.959 . S
H1310 C1324 0.961 . S
H1311 C1325 0.960 . S
H1312 C1325 0.961 . S
H1313 C1325 0.959 . S
H1314 C1328 0.929 . S
H1315 C1329 0.931 . S
H1316 C1331 0.930 . S
C1317 H1305 0.930 . S
C1317 C1318 1.399 . S
C1317 C1322 1.399 . S
C1318 C1317 1.399 . S
C1318 C1319 1.376 . S
C1319 H1306 0.930 . S
C1319 C1318 1.376 . S
C1319 C1320 1.388 . S
C1320 H1307 0.930 . S
C1320 C1319 1.388 . S
C1320 C1321 1.390 . S
C1321 C1320 1.390 . S
C1321 C1322 1.394 . S
C1321 C1327 1.465 . S
C1322 C1317 1.399 . S
C1322 C1321 1.394 . S
C1322 C1323 1.516 . S
C1323 C1322 1.516 . S
C1323 C1324 1.502 . S
C1323 C1325 1.561 . S
C1323 C1326 1.526 . S
C1324 H1308 0.959 . S
C1324 H1309 0.959 . S
C1324 H1310 0.961 . S
C1324 C1323 1.502 . S
C1325 H1311 0.960 . S
C1325 H1312 0.961 . S
C1325 H1313 0.959 . S
C1325 C1323 1.561 . S
C1326 C1323 1.526 . S
C1326 C1327 1.396 . S
C1326 C1331 1.390 . S
C1327 C1321 1.465 . S
C1327 C1326 1.396 . S
C1327 C1328 1.399 . S
C1328 H1314 0.929 . S
C1328 C1327 1.399 . S
C1328 C1329 1.385 . S
C1329 H1315 0.931 . S
C1329 C1328 1.385 . S
C1329 C1330 1.389 . S
C1330 C1329 1.389 . S
C1330 C1331 1.387 . S
C1331 H1316 0.930 . S
C1331 C1326 1.390 . S
C1331 C1330 1.387 . S
H1332 C1344 0.930 . S
H1333 C1346 0.930 . S
H1334 C1347 0.930 1_565 S
H1335 C1351 0.959 . S
H1336 C1351 0.959 . S
H1337 C1351 0.961 . S
H1338 C1352 0.960 1_545 S
H1339 C1352 0.961 . S
H1340 C1352 0.959 . S
H1341 C1355 0.929 . S
H1342 C1356 0.931 . S
H1343 C1358 0.930 . S
C1344 H1332 0.930 . S
C1344 C1345 1.399 . S
C1344 C1349 1.399 . S
C1345 C1344 1.399 . S
C1345 C1346 1.376 . S
C1346 H1333 0.930 . S
C1346 C1345 1.376 . S
C1346 C1347 1.388 . S
C1347 H1334 0.930 1_545 S
C1347 C1346 1.388 . S
C1347 C1348 1.376 . S
C1348 C1347 1.376 . S
C1348 C1349 1.427 . S
C1348 C1354 1.457 1_545 S
C1349 C1344 1.399 . S
C1349 C1348 1.427 . S
C1349 C1350 1.516 . S
C1350 C1349 1.516 . S
C1350 C1351 1.502 . S
C1350 C1352 1.561 1_545 S
C1350 C1353 1.526 1_545 S
C1351 H1335 0.959 . S
C1351 H1336 0.959 . S
C1351 H1337 0.961 . S
C1351 C1350 1.502 . S
C1352 H1338 0.960 1_565 S
C1352 H1339 0.961 . S
C1352 H1340 0.959 . S
C1352 C1350 1.561 1_565 S
C1353 C1350 1.526 1_565 S
C1353 C1354 1.396 . S
C1353 C1358 1.390 . S
C1354 C1348 1.457 1_565 S
C1354 C1353 1.396 . S
C1354 C1355 1.399 . S
C1355 H1341 0.929 . S
C1355 C1354 1.399 . S
C1355 C1356 1.385 . S
C1356 H1342 0.931 . S
C1356 C1355 1.385 . S
C1356 C1357 1.389 . S
C1357 C1356 1.389 . S
C1357 C1358 1.387 . S
C1358 H1343 0.930 . S
C1358 C1353 1.390 . S
C1358 C1357 1.387 . S
H1359 C1371 0.930 . S
H1360 C1373 0.930 . S
H1361 C1374 0.930 . S
H1362 C1378 0.959 . S
H1363 C1378 0.959 . S
H1364 C1378 0.961 . S
H1365 C1379 0.960 . S
H1366 C1379 0.961 . S
H1367 C1379 0.959 1_554 S
H1368 C1382 0.929 . S
H1369 C1383 0.931 . S
H1370 C1385 0.930 . S
C1371 H1359 0.930 . S
C1371 C1372 1.399 . S
C1371 C1376 1.399 . S
C1372 C1371 1.399 . S
C1372 C1373 1.376 1_546 S
C1373 H1360 0.930 . S
C1373 C1372 1.376 1_564 S
C1373 C1374 1.388 . S
C1374 H1361 0.930 . S
C1374 C1373 1.388 . S
C1374 C1375 1.390 . S
C1375 C1374 1.390 . S
C1375 C1376 1.394 1_564 S
C1375 C1381 1.465 . S
C1376 C1371 1.399 . S
C1376 C1375 1.394 1_546 S
C1376 C1377 1.516 . S
C1377 C1376 1.516 . S
C1377 C1378 1.502 . S
C1377 C1379 1.561 . S
C1377 C1380 1.526 . S
C1378 H1362 0.959 . S
C1378 H1363 0.959 . S
C1378 H1364 0.961 . S
C1378 C1377 1.502 . S
C1379 H1365 0.960 . S
C1379 H1366 0.961 . S
C1379 H1367 0.959 1_556 S
C1379 C1377 1.561 . S
C1380 C1377 1.526 . S
C1380 C1381 1.396 1_546 S
C1380 C1385 1.390 . S
C1381 C1375 1.465 . S
C1381 C1380 1.396 1_564 S
C1381 C1382 1.399 . S
C1382 H1368 0.929 . S
C1382 C1381 1.399 . S
C1382 C1383 1.385 . S
C1383 H1369 0.931 . S
C1383 C1382 1.385 . S
C1383 C1384 1.389 . S
C1384 C1383 1.389 . S
C1384 C1385 1.387 1_564 S
C1385 H1370 0.930 . S
C1385 C1380 1.390 . S
C1385 C1384 1.387 1_546 S
H1386 C1398 0.930 . S
H1387 C1400 0.930 . S
H1388 C1401 0.930 . S
H1389 C1405 0.959 . S
H1390 C1405 0.959 . S
H1391 C1405 0.961 . S
H1392 C1406 0.960 . S
H1393 C1406 0.961 . S
H1394 C1406 0.959 . S
H1395 C1409 0.929 . S
H1396 C1410 0.931 . S
H1397 C1412 0.930 . S
C1398 H1386 0.930 . S
C1398 C1399 1.399 1_556 S
C1398 C1403 1.399 . S
C1399 C1398 1.399 1_554 S
C1399 C1400 1.376 . S
C1400 H1387 0.930 . S
C1400 C1399 1.376 . S
C1400 C1401 1.388 . S
C1401 H1388 0.930 . S
C1401 C1400 1.388 . S
C1401 C1402 1.390 . S
C1402 C1401 1.390 . S
C1402 C1403 1.394 1_554 S
C1402 C1408 1.465 1_455 S
C1403 C1398 1.399 . S
C1403 C1402 1.394 1_556 S
C1403 C1404 1.516 1_455 S
C1404 C1403 1.516 1_655 S
C1404 C1405 1.502 . S
C1404 C1406 1.561 1_655 S
C1404 C1407 1.526 . S
C1405 H1389 0.959 . S
C1405 H1390 0.959 . S
C1405 H1391 0.961 . S
C1405 C1404 1.502 . S
C1406 H1392 0.960 . S
C1406 H1393 0.961 . S
C1406 H1394 0.959 . S
C1406 C1404 1.561 1_455 S
C1407 C1404 1.526 . S
C1407 C1408 1.396 1_556 S
C1407 C1412 1.390 . S
C1408 C1402 1.465 1_655 S
C1408 C1407 1.396 1_554 S
C1408 C1409 1.399 . S
C1409 H1395 0.929 . S
C1409 C1408 1.399 . S
C1409 C1410 1.385 . S
C1410 H1396 0.931 . S
C1410 C1409 1.385 . S
C1410 C1411 1.389 1_554 S
C1411 C1410 1.389 1_556 S
C1411 C1412 1.387 . S
C1412 H1397 0.930 . S
C1412 C1407 1.390 . S
C1412 C1411 1.387 . S
H1413 C1425 0.930 . S
H1414 C1427 0.930 . S
H1415 C1428 0.930 . S
H1416 C1432 0.959 . S
H1417 C1432 0.959 . S
H1418 C1432 0.961 . S
H1419 C1433 0.960 . S
H1420 C1433 0.961 . S
H1421 C1433 0.959 . S
H1422 C1436 0.929 . S
H1423 C1437 0.931 . S
H1424 C1439 0.930 . S
C1425 H1413 0.930 . S
C1425 C1426 1.399 1_556 S
C1425 C1430 1.399 . S
C1426 C1425 1.399 1_554 S
C1426 C1427 1.376 . S
C1427 H1414 0.930 . S
C1427 C1426 1.376 . S
C1427 C1428 1.388 . S
C1428 H1415 0.930 . S
C1428 C1427 1.388 . S
C1428 C1429 1.390 . S
C1429 C1428 1.390 . S
C1429 C1430 1.394 1_554 S
C1429 C1435 1.465 . S
C1430 C1425 1.399 . S
C1430 C1429 1.394 1_556 S
C1430 C1431 1.516 . S
C1431 C1430 1.516 . S
C1431 C1432 1.502 . S
C1431 C1433 1.561 . S
C1431 C1434 1.526 . S
C1432 H1416 0.959 . S
C1432 H1417 0.959 . S
C1432 H1418 0.961 . S
C1432 C1431 1.502 . S
C1433 H1419 0.960 . S
C1433 H1420 0.961 . S
C1433 H1421 0.959 . S
C1433 C1431 1.561 . S
C1434 C1431 1.526 . S
C1434 C1435 1.396 1_556 S
C1434 C1439 1.390 . S
C1435 C1429 1.465 . S
C1435 C1434 1.396 1_554 S
C1435 C1436 1.399 . S
C1436 H1422 0.929 . S
C1436 C1435 1.399 . S
C1436 C1437 1.385 . S
C1437 H1423 0.931 . S
C1437 C1436 1.385 . S
C1437 C1438 1.389 1_554 S
C1438 C1437 1.389 1_556 S
C1438 C1439 1.387 . S
C1439 H1424 0.930 . S
C1439 C1434 1.390 . S
C1439 C1438 1.387 . S
H1440 C1452 0.930 1_556 S
H1441 C1454 0.930 . S
H1442 C1455 0.930 . S
H1443 C1459 0.959 . S
H1444 C1459 0.959 . S
H1445 C1459 0.961 . S
H1446 C1460 0.960 1_556 S
H1447 C1460 0.961 . S
H1448 C1460 0.959 . S
H1449 C1463 0.929 . S
H1450 C1464 0.931 . S
H1451 C1466 0.930 . S
C1452 H1440 0.930 1_554 S
C1452 C1453 1.399 . S
C1452 C1457 1.399 . S
C1453 C1452 1.399 . S
C1453 C1454 1.376 . S
C1454 H1441 0.930 . S
C1454 C1453 1.376 . S
C1454 C1455 1.388 . S
C1455 H1442 0.930 . S
C1455 C1454 1.388 . S
C1455 C1456 1.390 . S
C1456 C1455 1.390 . S
C1456 C1457 1.394 . S
C1456 C1462 1.465 . S
C1457 C1452 1.399 . S
C1457 C1456 1.394 . S
C1457 C1458 1.516 . S
C1458 C1457 1.516 . S
C1458 C1459 1.502 1_554 S
C1458 C1460 1.561 . S
C1458 C1461 1.526 . S
C1459 H1443 0.959 . S
C1459 H1444 0.959 . S
C1459 H1445 0.961 . S
C1459 C1458 1.502 1_556 S
C1460 H1446 0.960 1_554 S
C1460 H1447 0.961 . S
C1460 H1448 0.959 . S
C1460 C1458 1.561 . S
C1461 C1458 1.526 . S
C1461 C1462 1.396 . S
C1461 C1466 1.390 . S
C1462 C1456 1.465 . S
C1462 C1461 1.396 . S
C1462 C1463 1.399 . S
C1463 H1449 0.929 . S
C1463 C1462 1.399 . S
C1463 C1464 1.385 . S
C1464 H1450 0.931 . S
C1464 C1463 1.385 . S
C1464 C1465 1.389 . S
C1465 C1464 1.389 . S
C1465 C1466 1.387 . S
C1466 H1451 0.930 . S
C1466 C1461 1.390 . S
C1466 C1465 1.387 . S
H1467 C1479 0.930 . S
H1468 C1481 0.930 . S
H1469 C1482 0.930 . S
H1470 C1486 0.959 1_554 S
H1471 C1486 0.959 . S
H1472 C1486 0.961 . S
H1473 C1487 0.960 . S
H1474 C1487 0.961 . S
H1475 C1487 0.959 1_554 S
H1476 C1490 0.929 . S
H1477 C1491 0.931 . S
H1478 C1493 0.930 1_556 S
C1479 H1467 0.930 . S
C1479 C1480 1.399 . S
C1479 C1484 1.399 . S
C1480 C1479 1.399 . S
C1480 C1481 1.376 . S
C1481 H1468 0.930 . S
C1481 C1480 1.376 . S
C1481 C1482 1.388 . S
C1482 H1469 0.930 . S
C1482 C1481 1.388 . S
C1482 C1483 1.390 . S
C1483 C1482 1.390 . S
C1483 C1484 1.394 . S
C1483 C1489 1.465 . S
C1484 C1479 1.399 . S
C1484 C1483 1.394 . S
C1484 C1485 1.516 . S
C1485 C1484 1.516 . S
C1485 C1486 1.502 1_554 S
C1485 C1487 1.561 1_554 S
C1485 C1488 1.526 . S
C1486 H1470 0.959 1_556 S
C1486 H1471 0.959 . S
C1486 H1472 0.961 . S
C1486 C1485 1.502 1_556 S
C1487 H1473 0.960 . S
C1487 H1474 0.961 . S
C1487 H1475 0.959 1_556 S
C1487 C1485 1.561 1_556 S
C1488 C1485 1.526 . S
C1488 C1489 1.396 . S
C1488 C1493 1.390 . S
C1489 C1483 1.465 . S
C1489 C1488 1.396 . S
C1489 C1490 1.399 . S
C1490 H1476 0.929 . S
C1490 C1489 1.399 . S
C1490 C1491 1.385 . S
C1491 H1477 0.931 . S
C1491 C1490 1.385 . S
C1491 C1492 1.389 . S
C1492 C1491 1.389 . S
C1492 C1493 1.387 . S
C1493 H1478 0.930 1_554 S
C1493 C1488 1.390 . S
C1493 C1492 1.387 . S
H1494 C1506 0.930 . S
H1495 C1508 0.930 . S
H1496 C1509 0.930 . S
H1497 C1513 0.959 1_556 S
H1498 C1513 0.959 1_556 S
H1499 C1513 0.961 . S
H1500 C1514 0.960 . S
H1501 C1514 0.961 . S
H1502 C1514 0.959 . S
H1503 C1517 0.929 . S
H1504 C1518 0.931 . S
H1505 C1520 0.930 . S
C1506 H1494 0.930 . S
C1506 C1507 1.399 . S
C1506 C1511 1.399 . S
C1507 C1506 1.399 . S
C1507 C1508 1.376 . S
C1508 H1495 0.930 . S
C1508 C1507 1.376 . S
C1508 C1509 1.388 . S
C1509 H1496 0.930 . S
C1509 C1508 1.388 . S
C1509 C1510 1.390 . S
C1510 C1509 1.390 . S
C1510 C1511 1.394 . S
C1510 C1516 1.465 . S
C1511 C1506 1.399 . S
C1511 C1510 1.394 . S
C1511 C1512 1.516 . S
C1512 C1511 1.516 . S
C1512 C1513 1.502 . S
C1512 C1514 1.561 . S
C1512 C1515 1.526 . S
C1513 H1497 0.959 1_554 S
C1513 H1498 0.959 1_554 S
C1513 H1499 0.961 . S
C1513 C1512 1.502 . S
C1514 H1500 0.960 . S
C1514 H1501 0.961 . S
C1514 H1502 0.959 . S
C1514 C1512 1.561 . S
C1515 C1512 1.526 . S
C1515 C1516 1.396 . S
C1515 C1520 1.390 . S
C1516 C1510 1.465 . S
C1516 C1515 1.396 . S
C1516 C1517 1.399 . S
C1517 H1503 0.929 . S
C1517 C1516 1.399 . S
C1517 C1518 1.385 . S
C1518 H1504 0.931 . S
C1518 C1517 1.385 . S
C1518 C1519 1.389 . S
C1519 C1518 1.389 . S
C1519 C1520 1.387 . S
C1520 H1505 0.930 . S
C1520 C1515 1.390 . S
C1520 C1519 1.387 . S
H1521 C1533 0.930 . S
H1522 C1535 0.930 . S
H1523 C1536 0.930 . S
H1524 C1540 0.959 . S
H1525 C1540 0.959 . S
H1526 C1540 0.961 . S
H1527 C1541 0.960 . S
H1528 C1541 0.961 . S
H1529 C1541 0.959 . S
H1530 C1544 0.929 . S
H1531 C1545 0.931 . S
H1532 C1547 0.930 . S
C1533 H1521 0.930 . S
C1533 C1534 1.399 . S
C1533 C1538 1.399 . S
C1534 C1533 1.399 . S
C1534 C1535 1.376 . S
C1535 H1522 0.930 . S
C1535 C1534 1.376 . S
C1535 C1536 1.388 . S
C1536 H1523 0.930 . S
C1536 C1535 1.388 . S
C1536 C1537 1.390 . S
C1537 C1536 1.390 . S
C1537 C1538 1.394 . S
C1537 C1543 1.465 . S
C1538 C1533 1.399 . S
C1538 C1537 1.394 . S
C1538 C1539 1.516 . S
C1539 C1538 1.516 . S
C1539 C1540 1.502 . S
C1539 C1541 1.561 . S
C1539 C1542 1.526 . S
C1540 H1524 0.959 . S
C1540 H1525 0.959 . S
C1540 H1526 0.961 . S
C1540 C1539 1.502 . S
C1541 H1527 0.960 . S
C1541 H1528 0.961 . S
C1541 H1529 0.959 . S
C1541 C1539 1.561 . S
C1542 C1539 1.526 . S
C1542 C1543 1.396 . S
C1542 C1547 1.390 . S
C1543 C1537 1.465 . S
C1543 C1542 1.396 . S
C1543 C1544 1.399 . S
C1544 H1530 0.929 . S
C1544 C1543 1.399 . S
C1544 C1545 1.385 . S
C1545 H1531 0.931 . S
C1545 C1544 1.385 . S
C1545 C1546 1.389 . S
C1546 C1545 1.389 . S
C1546 C1547 1.387 . S
C1547 H1532 0.930 . S
C1547 C1542 1.390 . S
C1547 C1546 1.387 . S
H1548 C1560 0.930 . S
H1549 C1562 0.930 . S
H1550 C1563 0.930 . S
H1551 C1567 0.959 . S
H1552 C1567 0.959 . S
H1553 C1567 0.961 . S
H1554 C1568 0.960 . S
H1555 C1568 0.961 . S
H1556 C1568 0.959 . S
H1557 C1571 0.929 . S
H1558 C1572 0.931 . S
H1559 C1574 0.930 . S
C1560 H1548 0.930 . S
C1560 C1561 1.399 . S
C1560 C1565 1.399 . S
C1561 C1560 1.399 . S
C1561 C1562 1.376 . S
C1562 H1549 0.930 . S
C1562 C1561 1.376 . S
C1562 C1563 1.388 . S
C1563 H1550 0.930 . S
C1563 C1562 1.388 . S
C1563 C1564 1.390 . S
C1564 C1563 1.390 . S
C1564 C1565 1.394 . S
C1564 C1570 1.465 . S
C1565 C1560 1.399 . S
C1565 C1564 1.394 . S
C1565 C1566 1.516 . S
C1566 C1565 1.516 . S
C1566 C1567 1.502 . S
C1566 C1568 1.561 . S
C1566 C1569 1.526 . S
C1567 H1551 0.959 . S
C1567 H1552 0.959 . S
C1567 H1553 0.961 . S
C1567 C1566 1.502 . S
C1568 H1554 0.960 . S
C1568 H1555 0.961 . S
C1568 H1556 0.959 . S
C1568 C1566 1.561 . S
C1569 C1566 1.526 . S
C1569 C1570 1.396 . S
C1569 C1574 1.390 . S
C1570 C1564 1.465 . S
C1570 C1569 1.396 . S
C1570 C1571 1.399 . S
C1571 H1557 0.929 . S
C1571 C1570 1.399 . S
C1571 C1572 1.385 . S
C1572 H1558 0.931 . S
C1572 C1571 1.385 . S
C1572 C1573 1.389 . S
C1573 C1572 1.389 . S
C1573 C1574 1.387 . S
C1574 H1559 0.930 . S
C1574 C1569 1.390 . S
C1574 C1573 1.387 . S
H1575 C1587 0.930 . S
H1576 C1589 0.930 . S
H1577 C1590 0.930 . S
H1578 C1594 0.959 . S
H1579 C1594 0.959 . S
H1580 C1594 0.961 . S
H1581 C1595 0.960 . S
H1582 C1595 0.961 . S
H1583 C1595 0.959 . S
H1584 C1598 0.929 . S
H1585 C1599 0.931 . S
H1586 C1601 0.930 . S
C1587 H1575 0.930 . S
C1587 C1588 1.399 . S
C1587 C1592 1.399 . S
C1588 C1587 1.399 . S
C1588 C1589 1.376 . S
C1589 H1576 0.930 . S
C1589 C1588 1.376 . S
C1589 C1590 1.388 . S
C1590 H1577 0.930 . S
C1590 C1589 1.388 . S
C1590 C1591 1.390 . S
C1591 C1590 1.390 . S
C1591 C1592 1.394 . S
C1591 C1597 1.465 . S
C1592 C1587 1.399 . S
C1592 C1591 1.394 . S
C1592 C1593 1.516 . S
C1593 C1592 1.516 . S
C1593 C1594 1.502 . S
C1593 C1595 1.561 . S
C1593 C1596 1.526 . S
C1594 H1578 0.959 . S
C1594 H1579 0.959 . S
C1594 H1580 0.961 . S
C1594 C1593 1.502 . S
C1595 H1581 0.960 . S
C1595 H1582 0.961 . S
C1595 H1583 0.959 . S
C1595 C1593 1.561 . S
C1596 C1593 1.526 . S
C1596 C1597 1.396 . S
C1596 C1601 1.390 . S
C1597 C1591 1.465 . S
C1597 C1596 1.396 . S
C1597 C1598 1.399 . S
C1598 H1584 0.929 . S
C1598 C1597 1.399 . S
C1598 C1599 1.385 . S
C1599 H1585 0.931 . S
C1599 C1598 1.385 . S
C1599 C1600 1.389 . S
C1600 C1599 1.389 . S
C1600 C1601 1.387 . S
C1601 H1586 0.930 . S
C1601 C1596 1.390 . S
C1601 C1600 1.387 . S
H1602 C1614 0.930 . S
H1603 C1616 0.930 . S
H1604 C1617 0.930 . S
H1605 C1621 0.959 . S
H1606 C1621 0.959 . S
H1607 C1621 0.961 . S
H1608 C1622 0.960 . S
H1609 C1622 0.961 . S
H1610 C1622 0.959 . S
H1611 C1625 0.929 . S
H1612 C1626 0.931 . S
H1613 C1628 0.930 . S
C1614 H1602 0.930 . S
C1614 C1615 1.399 . S
C1614 C1619 1.399 . S
C1615 C1614 1.399 . S
C1615 C1616 1.376 1_556 S
C1616 H1603 0.930 . S
C1616 C1615 1.376 1_554 S
C1616 C1617 1.388 . S
C1617 H1604 0.930 . S
C1617 C1616 1.388 . S
C1617 C1618 1.390 1_554 S
C1618 C1617 1.390 1_556 S
C1618 C1619 1.394 . S
C1618 C1624 1.465 . S
C1619 C1614 1.399 . S
C1619 C1618 1.394 . S
C1619 C1620 1.516 . S
C1620 C1619 1.516 . S
C1620 C1621 1.502 . S
C1620 C1622 1.561 . S
C1620 C1623 1.526 . S
C1621 H1605 0.959 . S
C1621 H1606 0.959 . S
C1621 H1607 0.961 . S
C1621 C1620 1.502 . S
C1622 H1608 0.960 . S
C1622 H1609 0.961 . S
C1622 H1610 0.959 . S
C1622 C1620 1.561 . S
C1623 C1620 1.526 . S
C1623 C1624 1.396 . S
C1623 C1628 1.390 . S
C1624 C1618 1.465 . S
C1624 C1623 1.396 . S
C1624 C1625 1.399 . S
C1625 H1611 0.929 . S
C1625 C1624 1.399 . S
C1625 C1626 1.385 . S
C1626 H1612 0.931 . S
C1626 C1625 1.385 . S
C1626 C1627 1.389 . S
C1627 C1626 1.389 . S
C1627 C1628 1.387 . S
C1628 H1613 0.930 . S
C1628 C1623 1.390 . S
C1628 C1627 1.387 . S
H1629 C1641 0.930 . S
H1630 C1643 0.930 . S
H1631 C1644 0.930 . S
H1632 C1648 0.959 . S
H1633 C1648 0.959 . S
H1634 C1648 0.961 . S
H1635 C1649 0.960 . S
H1636 C1649 0.961 . S
H1637 C1649 0.959 . S
H1638 C1652 0.929 1_554 S
H1639 C1653 0.931 . S
H1640 C1655 0.930 . S
C1641 H1629 0.930 . S
C1641 C1642 1.399 . S
C1641 C1646 1.399 . S
C1642 C1641 1.399 . S
C1642 C1643 1.376 . S
C1643 H1630 0.930 . S
C1643 C1642 1.376 . S
C1643 C1644 1.388 . S
C1644 H1631 0.930 . S
C1644 C1643 1.388 . S
C1644 C1645 1.390 . S
C1645 C1644 1.390 . S
C1645 C1646 1.394 . S
C1645 C1651 1.465 . S
C1646 C1641 1.399 . S
C1646 C1645 1.394 . S
C1646 C1647 1.516 . S
C1647 C1646 1.516 . S
C1647 C1648 1.502 . S
C1647 C1649 1.561 . S
C1647 C1650 1.526 . S
C1648 H1632 0.959 . S
C1648 H1633 0.959 . S
C1648 H1634 0.961 . S
C1648 C1647 1.502 . S
C1649 H1635 0.960 . S
C1649 H1636 0.961 . S
C1649 H1637 0.959 . S
C1649 C1647 1.561 . S
C1650 C1647 1.526 . S
C1650 C1651 1.396 . S
C1650 C1655 1.390 . S
C1651 C1645 1.465 . S
C1651 C1650 1.396 . S
C1651 C1652 1.399 . S
C1652 H1638 0.929 1_556 S
C1652 C1651 1.399 . S
C1652 C1653 1.385 1_556 S
C1653 H1639 0.931 . S
C1653 C1652 1.385 1_554 S
C1653 C1654 1.389 1_554 S
C1654 C1653 1.389 1_556 S
C1654 C1655 1.387 . S
C1655 H1640 0.930 . S
C1655 C1650 1.390 . S
C1655 C1654 1.387 . S
H1656 C1668 0.930 . S
H1657 C1670 0.930 . S
H1658 C1671 0.930 . S
H1659 C1675 0.959 . S
H1660 C1675 0.959 . S
H1661 C1675 0.961 . S
H1662 C1676 0.960 . S
H1663 C1676 0.961 . S
H1664 C1676 0.959 . S
H1665 C1679 0.929 . S
H1666 C1680 0.931 . S
H1667 C1682 0.930 . S
C1668 H1656 0.930 . S
C1668 C1669 1.399 . S
C1668 C1673 1.399 . S
C1669 C1668 1.399 . S
C1669 C1670 1.376 . S
C1670 H1657 0.930 . S
C1670 C1669 1.376 . S
C1670 C1671 1.388 . S
C1671 H1658 0.930 . S
C1671 C1670 1.388 . S
C1671 C1672 1.390 . S
C1672 C1671 1.390 . S
C1672 C1673 1.394 . S
C1672 C1678 1.465 . S
C1673 C1668 1.399 . S
C1673 C1672 1.394 . S
C1673 C1674 1.516 . S
C1674 C1673 1.516 . S
C1674 C1675 1.502 . S
C1674 C1676 1.561 . S
C1674 C1677 1.526 . S
C1675 H1659 0.959 . S
C1675 H1660 0.959 . S
C1675 H1661 0.961 . S
C1675 C1674 1.502 . S
C1676 H1662 0.960 . S
C1676 H1663 0.961 . S
C1676 H1664 0.959 . S
C1676 C1674 1.561 . S
C1677 C1674 1.526 . S
C1677 C1678 1.396 . S
C1677 C1682 1.390 . S
C1678 C1672 1.465 . S
C1678 C1677 1.396 . S
C1678 C1679 1.399 . S
C1679 H1665 0.929 . S
C1679 C1678 1.399 . S
C1679 C1680 1.385 . S
C1680 H1666 0.931 . S
C1680 C1679 1.385 . S
C1680 C1681 1.389 . S
C1681 C1680 1.389 . S
C1681 C1682 1.387 . S
C1682 H1667 0.930 . S
C1682 C1677 1.390 . S
C1682 C1681 1.387 . S
H1683 C1695 0.930 . S
H1684 C1697 0.930 . S
H1685 C1698 0.930 . S
H1686 C1702 0.959 . S
H1687 C1702 0.959 . S
H1688 C1702 0.961 . S
H1689 C1703 0.960 . S
H1690 C1703 0.961 . S
H1691 C1703 0.959 . S
H1692 C1706 0.929 . S
H1693 C1707 0.931 . S
H1694 C1709 0.930 . S
C1695 H1683 0.930 . S
C1695 C1696 1.399 . S
C1695 C1700 1.399 . S
C1696 C1695 1.399 . S
C1696 C1697 1.376 . S
C1697 H1684 0.930 . S
C1697 C1696 1.376 . S
C1697 C1698 1.388 . S
C1698 H1685 0.930 . S
C1698 C1697 1.388 . S
C1698 C1699 1.390 . S
C1699 C1698 1.390 . S
C1699 C1700 1.394 . S
C1699 C1705 1.465 . S
C1700 C1695 1.399 . S
C1700 C1699 1.394 . S
C1700 C1701 1.516 . S
C1701 C1700 1.516 . S
C1701 C1702 1.502 . S
C1701 C1703 1.561 . S
C1701 C1704 1.526 . S
C1702 H1686 0.959 . S
C1702 H1687 0.959 . S
C1702 H1688 0.961 . S
C1702 C1701 1.502 . S
C1703 H1689 0.960 . S
C1703 H1690 0.961 . S
C1703 H1691 0.959 . S
C1703 C1701 1.561 . S
C1704 C1701 1.526 . S
C1704 C1705 1.396 . S
C1704 C1709 1.390 . S
C1705 C1699 1.465 . S
C1705 C1704 1.396 . S
C1705 C1706 1.399 . S
C1706 H1692 0.929 . S
C1706 C1705 1.399 . S
C1706 C1707 1.385 . S
C1707 H1693 0.931 . S
C1707 C1706 1.385 . S
C1707 C1708 1.389 . S
C1708 C1707 1.389 . S
C1708 C1709 1.387 . S
C1709 H1694 0.930 . S
C1709 C1704 1.390 . S
C1709 C1708 1.387 . S
H1710 C1722 0.930 . S
H1711 C1724 0.930 . S
H1712 C1725 0.930 . S
H1713 C1729 0.959 . S
H1714 C1729 0.959 . S
H1715 C1729 0.961 . S
H1716 C1730 0.960 . S
H1717 C1730 0.961 . S
H1718 C1730 0.959 . S
H1719 C1733 0.929 . S
H1720 C1734 0.931 . S
H1721 C1736 0.930 . S
C1722 H1710 0.930 . S
C1722 C1723 1.399 . S
C1722 C1727 1.399 . S
C1723 C1722 1.399 . S
C1723 C1724 1.376 . S
C1724 H1711 0.930 . S
C1724 C1723 1.376 . S
C1724 C1725 1.388 . S
C1725 H1712 0.930 . S
C1725 C1724 1.388 . S
C1725 C1726 1.390 . S
C1726 C1725 1.390 . S
C1726 C1727 1.394 . S
C1726 C1732 1.465 . S
C1727 C1722 1.399 . S
C1727 C1726 1.394 . S
C1727 C1728 1.516 . S
C1728 C1727 1.516 . S
C1728 C1729 1.502 . S
C1728 C1730 1.561 . S
C1728 C1731 1.526 . S
C1729 H1713 0.959 . S
C1729 H1714 0.959 . S
C1729 H1715 0.961 . S
C1729 C1728 1.502 . S
C1730 H1716 0.960 . S
C1730 H1717 0.961 . S
C1730 H1718 0.959 . S
C1730 C1728 1.561 . S
C1731 C1728 1.526 . S
C1731 C1732 1.396 . S
C1731 C1736 1.390 . S
C1732 C1726 1.465 . S
C1732 C1731 1.396 . S
C1732 C1733 1.399 . S
C1733 H1719 0.929 . S
C1733 C1732 1.399 . S
C1733 C1734 1.385 . S
C1734 H1720 0.931 . S
C1734 C1733 1.385 . S
C1734 C1735 1.389 . S
C1735 C1734 1.389 . S
C1735 C1736 1.387 . S
C1736 H1721 0.930 . S
C1736 C1731 1.390 . S
C1736 C1735 1.387 . S
H1737 C1749 0.930 . S
H1738 C1751 0.930 . S
H1739 C1752 0.930 . S
H1740 C1756 0.959 . S
H1741 C1756 0.959 . S
H1742 C1756 0.961 . S
H1743 C1757 0.960 . S
H1744 C1757 0.961 . S
H1745 C1757 0.959 . S
H1746 C1760 0.929 . S
H1747 C1761 0.931 . S
H1748 C1763 0.930 . S
C1749 H1737 0.930 . S
C1749 C1750 1.399 . S
C1749 C1754 1.399 . S
C1750 C1749 1.399 . S
C1750 C1751 1.376 . S
C1751 H1738 0.930 . S
C1751 C1750 1.376 . S
C1751 C1752 1.388 . S
C1752 H1739 0.930 . S
C1752 C1751 1.388 . S
C1752 C1753 1.390 . S
C1753 C1752 1.390 . S
C1753 C1754 1.394 . S
C1753 C1759 1.465 . S
C1754 C1749 1.399 . S
C1754 C1753 1.394 . S
C1754 C1755 1.516 . S
C1755 C1754 1.516 . S
C1755 C1756 1.502 . S
C1755 C1757 1.561 . S
C1755 C1758 1.526 . S
C1756 H1740 0.959 . S
C1756 H1741 0.959 . S
C1756 H1742 0.961 . S
C1756 C1755 1.502 . S
C1757 H1743 0.960 . S
C1757 H1744 0.961 . S
C1757 H1745 0.959 . S
C1757 C1755 1.561 . S
C1758 C1755 1.526 . S
C1758 C1759 1.396 . S
C1758 C1763 1.390 . S
C1759 C1753 1.465 . S
C1759 C1758 1.396 . S
C1759 C1760 1.399 . S
C1760 H1746 0.929 . S
C1760 C1759 1.399 . S
C1760 C1761 1.385 . S
C1761 H1747 0.931 . S
C1761 C1760 1.385 . S
C1761 C1762 1.389 . S
C1762 C1761 1.389 . S
C1762 C1763 1.387 . S
C1763 H1748 0.930 . S
C1763 C1758 1.390 . S
C1763 C1762 1.387 . S
H1764 C1776 0.930 . S
H1765 C1778 0.930 . S
H1766 C1779 0.930 . S
H1767 C1783 0.959 . S
H1768 C1783 0.959 . S
H1769 C1783 0.961 . S
H1770 C1784 0.960 . S
H1771 C1784 0.961 . S
H1772 C1784 0.959 . S
H1773 C1787 0.929 . S
H1774 C1788 0.931 . S
H1775 C1790 0.930 . S
C1776 H1764 0.930 . S
C1776 C1777 1.399 . S
C1776 C1781 1.399 . S
C1777 C1776 1.399 . S
C1777 C1778 1.376 . S
C1778 H1765 0.930 . S
C1778 C1777 1.376 . S
C1778 C1779 1.388 . S
C1779 H1766 0.930 . S
C1779 C1778 1.388 . S
C1779 C1780 1.390 . S
C1780 C1779 1.390 . S
C1780 C1781 1.394 . S
C1780 C1786 1.465 . S
C1781 C1776 1.399 . S
C1781 C1780 1.394 . S
C1781 C1782 1.516 . S
C1782 C1781 1.516 . S
C1782 C1783 1.502 . S
C1782 C1784 1.561 . S
C1782 C1785 1.526 . S
C1783 H1767 0.959 . S
C1783 H1768 0.959 . S
C1783 H1769 0.961 . S
C1783 C1782 1.502 . S
C1784 H1770 0.960 . S
C1784 H1771 0.961 . S
C1784 H1772 0.959 . S
C1784 C1782 1.561 . S
C1785 C1782 1.526 . S
C1785 C1786 1.396 . S
C1785 C1790 1.390 . S
C1786 C1780 1.465 . S
C1786 C1785 1.396 . S
C1786 C1787 1.399 . S
C1787 H1773 0.929 . S
C1787 C1786 1.399 . S
C1787 C1788 1.385 . S
C1788 H1774 0.931 . S
C1788 C1787 1.385 . S
C1788 C1789 1.389 . S
C1789 C1788 1.389 . S
C1789 C1790 1.387 . S
C1790 H1775 0.930 . S
C1790 C1785 1.390 . S
C1790 C1789 1.387 . S
H1791 C1803 0.930 . S
H1792 C1805 0.930 . S
H1793 C1806 0.930 . S
H1794 C1810 0.959 . S
H1795 C1810 0.959 . S
H1796 C1810 0.961 . S
H1797 C1811 0.960 . S
H1798 C1811 0.961 . S
H1799 C1811 0.959 . S
H1800 C1814 0.929 . S
H1801 C1815 0.931 . S
H1802 C1817 0.930 . S
C1803 H1791 0.930 . S
C1803 C1804 1.399 . S
C1803 C1808 1.399 . S
C1804 C1803 1.399 . S
C1804 C1805 1.376 . S
C1805 H1792 0.930 . S
C1805 C1804 1.376 . S
C1805 C1806 1.388 . S
C1806 H1793 0.930 . S
C1806 C1805 1.388 . S
C1806 C1807 1.390 . S
C1807 C1806 1.390 . S
C1807 C1808 1.394 . S
C1807 C1813 1.465 1_565 S
C1808 C1803 1.399 . S
C1808 C1807 1.394 . S
C1808 C1809 1.516 . S
C1809 C1808 1.516 . S
C1809 C1810 1.502 . S
C1809 C1811 1.561 . S
C1809 C1812 1.526 1_565 S
C1810 H1794 0.959 . S
C1810 H1795 0.959 . S
C1810 H1796 0.961 . S
C1810 C1809 1.502 . S
C1811 H1797 0.960 . S
C1811 H1798 0.961 . S
C1811 H1799 0.959 . S
C1811 C1809 1.561 . S
C1812 C1809 1.526 1_545 S
C1812 C1813 1.396 . S
C1812 C1817 1.390 . S
C1813 C1807 1.465 1_545 S
C1813 C1812 1.396 . S
C1813 C1814 1.399 . S
C1814 H1800 0.929 . S
C1814 C1813 1.399 . S
C1814 C1815 1.385 . S
C1815 H1801 0.931 . S
C1815 C1814 1.385 . S
C1815 C1816 1.389 . S
C1816 C1815 1.389 . S
C1816 C1817 1.387 . S
C1817 H1802 0.930 . S
C1817 C1812 1.390 . S
C1817 C1816 1.387 . S
H1818 C1830 0.930 . S
H1819 C1832 0.930 . S
H1820 C1833 0.930 . S
H1821 C1837 0.959 . S
H1822 C1837 0.959 . S
H1823 C1837 0.961 . S
H1824 C1838 0.960 . S
H1825 C1838 0.961 . S
H1826 C1838 0.959 . S
H1827 C1841 0.929 . S
H1828 C1842 0.931 . S
H1829 C1844 0.930 . S
C1830 H1818 0.930 . S
C1830 C1831 1.399 . S
C1830 C1835 1.399 . S
C1831 C1830 1.399 . S
C1831 C1832 1.376 . S
C1832 H1819 0.930 . S
C1832 C1831 1.376 . S
C1832 C1833 1.388 . S
C1833 H1820 0.930 . S
C1833 C1832 1.388 . S
C1833 C1834 1.390 . S
C1834 C1833 1.390 . S
C1834 C1835 1.394 . S
C1834 C1840 1.465 1_455 S
C1835 C1830 1.399 . S
C1835 C1834 1.394 . S
C1835 C1836 1.516 1_455 S
C1836 C1835 1.516 1_655 S
C1836 C1837 1.502 . S
C1836 C1838 1.561 . S
C1836 C1839 1.526 . S
C1837 H1821 0.959 . S
C1837 H1822 0.959 . S
C1837 H1823 0.961 . S
C1837 C1836 1.502 . S
C1838 H1824 0.960 . S
C1838 H1825 0.961 . S
C1838 H1826 0.959 . S
C1838 C1836 1.561 . S
C1839 C1836 1.526 . S
C1839 C1840 1.396 . S
C1839 C1844 1.390 . S
C1840 C1834 1.465 1_655 S
C1840 C1839 1.396 . S
C1840 C1841 1.399 . S
C1841 H1827 0.929 . S
C1841 C1840 1.399 . S
C1841 C1842 1.385 . S
C1842 H1828 0.931 . S
C1842 C1841 1.385 . S
C1842 C1843 1.389 . S
C1843 C1842 1.389 . S
C1843 C1844 1.387 . S
C1844 H1829 0.930 . S
C1844 C1839 1.390 . S
C1844 C1843 1.387 . S
H1845 C1857 0.930 . S
H1846 C1859 0.930 . S
H1847 C1860 0.930 . S
H1848 C1864 0.959 . S
H1849 C1864 0.959 . S
H1850 C1864 0.961 . S
H1851 C1865 0.960 . S
H1852 C1865 0.961 . S
H1853 C1865 0.959 . S
H1854 C1868 0.929 . S
H1855 C1869 0.931 . S
H1856 C1871 0.930 . S
C1857 H1845 0.930 . S
C1857 C1858 1.399 . S
C1857 C1862 1.399 . S
C1858 C1857 1.399 . S
C1858 C1859 1.376 . S
C1859 H1846 0.930 . S
C1859 C1858 1.376 . S
C1859 C1860 1.388 . S
C1860 H1847 0.930 . S
C1860 C1859 1.388 . S
C1860 C1861 1.390 . S
C1861 C1860 1.390 . S
C1861 C1862 1.394 . S
C1861 C1867 1.465 . S
C1862 C1857 1.399 . S
C1862 C1861 1.394 . S
C1862 C1863 1.516 . S
C1863 C1862 1.516 . S
C1863 C1864 1.502 . S
C1863 C1865 1.561 . S
C1863 C1866 1.526 . S
C1864 H1848 0.959 . S
C1864 H1849 0.959 . S
C1864 H1850 0.961 . S
C1864 C1863 1.502 . S
C1865 H1851 0.960 . S
C1865 H1852 0.961 . S
C1865 H1853 0.959 . S
C1865 C1863 1.561 . S
C1866 C1863 1.526 . S
C1866 C1867 1.396 . S
C1866 C1871 1.390 . S
C1867 C1861 1.465 . S
C1867 C1866 1.396 . S
C1867 C1868 1.399 . S
C1868 H1854 0.929 . S
C1868 C1867 1.399 . S
C1868 C1869 1.385 . S
C1869 H1855 0.931 . S
C1869 C1868 1.385 . S
C1869 C1870 1.389 . S
C1870 C1869 1.389 . S
C1870 C1871 1.387 . S
C1871 H1856 0.930 . S
C1871 C1866 1.390 . S
C1871 C1870 1.387 . S
H1872 C1884 0.930 . S
H1873 C1886 0.930 . S
H1874 C1887 0.930 . S
H1875 C1891 0.959 . S
H1876 C1891 0.959 . S
H1877 C1891 0.886 1_565 S
H1878 C1892 0.960 . S
H1879 C1892 0.961 1_545 S
H1880 C1892 0.959 . S
H1881 C1895 0.929 . S
H1882 C1896 0.931 . S
H1883 C1898 0.930 . S
C1884 H1872 0.930 . S
C1884 C1885 1.399 . S
C1884 C1889 1.399 . S
C1885 C1884 1.399 . S
C1885 C1886 1.376 . S
C1886 H1873 0.930 . S
C1886 C1885 1.376 . S
C1886 C1887 1.388 . S
C1887 H1874 0.930 . S
C1887 C1886 1.388 . S
C1887 C1888 1.390 . S
C1888 C1887 1.390 . S
C1888 C1889 1.394 . S
C1888 C1894 1.465 1_565 S
C1889 C1884 1.399 . S
C1889 C1888 1.394 . S
C1889 C1890 1.516 1_565 S
C1890 C1889 1.516 1_545 S
C1890 C1891 1.502 . S
C1890 C1892 1.561 1_545 S
C1890 C1893 1.526 . S
C1891 H1875 0.959 . S
C1891 H1876 0.959 . S
C1891 H1877 0.886 1_545 S
C1891 C1890 1.502 . S
C1892 H1878 0.960 . S
C1892 H1879 0.961 1_565 S
C1892 H1880 0.959 . S
C1892 C1890 1.561 1_565 S
C1893 C1890 1.526 . S
C1893 C1894 1.396 . S
C1893 C1898 1.390 . S
C1894 C1888 1.465 1_545 S
C1894 C1893 1.396 . S
C1894 C1895 1.399 . S
C1895 H1881 0.929 . S
C1895 C1894 1.399 . S
C1895 C1896 1.385 . S
C1896 H1882 0.931 . S
C1896 C1895 1.385 . S
C1896 C1897 1.389 . S
C1897 C1896 1.389 . S
C1897 C1898 1.387 . S
C1898 H1883 0.930 . S
C1898 C1893 1.390 . S
C1898 C1897 1.387 . S
H1899 C1911 0.930 . S
H1900 C1913 0.930 . S
H1901 C1914 0.930 . S
H1902 C1918 0.959 1_455 S
H1903 C1918 0.959 . S
H1904 C1918 0.961 1_455 S
H1905 C1919 0.960 . S
H1906 C1919 0.961 . S
H1907 C1919 0.959 . S
H1908 C1922 0.929 . S
H1909 C1923 0.931 . S
H1910 C1925 0.930 . S
C1911 H1899 0.930 . S
C1911 C1912 1.399 . S
C1911 C1916 1.399 . S
C1912 C1911 1.399 . S
C1912 C1913 1.376 . S
C1913 H1900 0.930 . S
C1913 C1912 1.376 . S
C1913 C1914 1.388 . S
C1914 H1901 0.930 . S
C1914 C1913 1.388 . S
C1914 C1915 1.390 . S
C1915 C1914 1.390 . S
C1915 C1916 1.394 . S
C1915 C1921 1.465 1_455 S
C1916 C1911 1.399 . S
C1916 C1915 1.394 . S
C1916 C1917 1.516 1_455 S
C1917 C1916 1.516 1_655 S
C1917 C1918 1.502 . S
C1917 C1919 1.561 . S
C1917 C1920 1.526 . S
C1918 H1902 0.959 1_655 S
C1918 H1903 0.959 . S
C1918 H1904 0.961 1_655 S
C1918 C1917 1.502 . S
C1919 H1905 0.960 . S
C1919 H1906 0.961 . S
C1919 H1907 0.959 . S
C1919 C1917 1.561 . S
C1920 C1917 1.526 . S
C1920 C1921 1.396 . S
C1920 C1925 1.390 . S
C1921 C1915 1.465 1_655 S
C1921 C1920 1.396 . S
C1921 C1922 1.399 . S
C1922 H1908 0.929 . S
C1922 C1921 1.399 . S
C1922 C1923 1.385 . S
C1923 H1909 0.931 . S
C1923 C1922 1.385 . S
C1923 C1924 1.389 . S
C1924 C1923 1.389 . S
C1924 C1925 1.387 . S
C1925 H1910 0.930 . S
C1925 C1920 1.390 . S
C1925 C1924 1.387 . S
H1926 C1938 0.930 1_554 S
H1927 C1940 0.930 . S
H1928 C1941 0.930 . S
H1929 C1945 0.959 . S
H1930 C1945 0.959 . S
H1931 C1945 0.961 . S
H1932 C1946 0.960 . S
H1933 C1946 0.961 . S
H1934 C1946 0.959 . S
H1935 C1949 0.929 . S
H1936 C1950 0.931 . S
H1937 C1952 0.930 . S
C1938 H1926 0.930 1_556 S
C1938 C1939 1.399 1_556 S
C1938 C1943 1.399 . S
C1939 C1938 1.399 1_554 S
C1939 C1940 1.376 . S
C1940 H1927 0.930 . S
C1940 C1939 1.376 . S
C1940 C1941 1.388 1_554 S
C1941 H1928 0.930 . S
C1941 C1940 1.388 1_556 S
C1941 C1942 1.390 . S
C1942 C1941 1.390 . S
C1942 C1943 1.394 . S
C1942 C1948 1.465 . S
C1943 C1938 1.399 . S
C1943 C1942 1.394 . S
C1943 C1944 1.516 . S
C1944 C1943 1.516 . S
C1944 C1945 1.502 . S
C1944 C1946 1.561 . S
C1944 C1947 1.526 . S
C1945 H1929 0.959 . S
C1945 H1930 0.959 . S
C1945 H1931 0.961 . S
C1945 C1944 1.502 . S
C1946 H1932 0.960 . S
C1946 H1933 0.961 . S
C1946 H1934 0.959 . S
C1946 C1944 1.561 . S
C1947 C1944 1.526 . S
C1947 C1948 1.396 . S
C1947 C1952 1.390 . S
C1948 C1942 1.465 . S
C1948 C1947 1.396 . S
C1948 C1949 1.399 . S
C1949 H1935 0.929 . S
C1949 C1948 1.399 . S
C1949 C1950 1.385 . S
C1950 H1936 0.931 . S
C1950 C1949 1.385 . S
C1950 C1951 1.389 . S
C1951 C1950 1.389 . S
C1951 C1952 1.387 . S
C1952 H1937 0.930 . S
C1952 C1947 1.390 . S
C1952 C1951 1.387 . S
H1953 C1965 0.930 . S
H1954 C1967 0.930 . S
H1955 C1968 0.930 . S
H1956 C1972 0.959 . S
H1957 C1972 0.959 . S
H1958 C1972 0.961 . S
H1959 C1973 0.960 . S
H1960 C1973 0.961 . S
H1961 C1973 0.959 . S
H1962 C1976 0.929 . S
H1963 C1977 0.931 . S
H1964 C1979 0.930 . S
C1965 H1953 0.930 . S
C1965 C1966 1.399 . S
C1965 C1970 1.399 1_554 S
C1966 C1965 1.399 . S
C1966 C1967 1.376 . S
C1967 H1954 0.930 . S
C1967 C1966 1.376 . S
C1967 C1968 1.388 1_554 S
C1968 H1955 0.930 . S
C1968 C1967 1.388 1_556 S
C1968 C1969 1.390 . S
C1969 C1968 1.390 . S
C1969 C1970 1.394 . S
C1969 C1975 1.465 . S
C1970 C1965 1.399 1_556 S
C1970 C1969 1.394 . S
C1970 C1971 1.516 . S
C1971 C1970 1.516 . S
C1971 C1972 1.502 . S
C1971 C1973 1.561 . S
C1971 C1974 1.526 . S
C1972 H1956 0.959 . S
C1972 H1957 0.959 . S
C1972 H1958 0.961 . S
C1972 C1971 1.502 . S
C1973 H1959 0.960 . S
C1973 H1960 0.961 . S
C1973 H1961 0.959 . S
C1973 C1971 1.561 . S
C1974 C1971 1.526 . S
C1974 C1975 1.396 . S
C1974 C1979 1.390 . S
C1975 C1969 1.465 . S
C1975 C1974 1.396 . S
C1975 C1976 1.399 . S
C1976 H1962 0.929 . S
C1976 C1975 1.399 . S
C1976 C1977 1.385 . S
C1977 H1963 0.931 . S
C1977 C1976 1.385 . S
C1977 C1978 1.389 . S
C1978 C1977 1.389 . S
C1978 C1979 1.387 . S
C1979 H1964 0.930 . S
C1979 C1974 1.390 . S
C1979 C1978 1.387 . S
H1980 C1992 0.930 . S
H1981 C1994 0.930 . S
H1982 C1995 0.930 . S
H1983 C1999 0.959 . S
H1984 C1999 0.959 . S
H1985 C1999 0.961 . S
H1986 C2000 0.960 . S
H1987 C2000 0.961 . S
H1988 C2000 0.959 . S
H1989 C2003 0.929 . S
H1990 C2004 0.931 . S
H1991 C2006 0.930 . S
C1992 H1980 0.930 . S
C1992 C1993 1.399 . S
C1992 C1997 1.399 1_554 S
C1993 C1992 1.399 . S
C1993 C1994 1.376 . S
C1994 H1981 0.930 . S
C1994 C1993 1.376 . S
C1994 C1995 1.388 1_554 S
C1995 H1982 0.930 . S
C1995 C1994 1.388 1_556 S
C1995 C1996 1.390 . S
C1996 C1995 1.390 . S
C1996 C1997 1.394 . S
C1996 C2002 1.465 . S
C1997 C1992 1.399 1_556 S
C1997 C1996 1.394 . S
C1997 C1998 1.516 . S
C1998 C1997 1.516 . S
C1998 C1999 1.502 . S
C1998 C2000 1.561 . S
C1998 C2001 1.526 . S
C1999 H1983 0.959 . S
C1999 H1984 0.959 . S
C1999 H1985 0.961 . S
C1999 C1998 1.502 . S
C2000 H1986 0.960 . S
C2000 H1987 0.961 . S
C2000 H1988 0.959 . S
C2000 C1998 1.561 . S
C2001 C1998 1.526 . S
C2001 C2002 1.396 . S
C2001 C2006 1.390 . S
C2002 C1996 1.465 . S
C2002 C2001 1.396 . S
C2002 C2003 1.399 . S
C2003 H1989 0.929 . S
C2003 C2002 1.399 . S
C2003 C2004 1.385 . S
C2004 H1990 0.931 . S
C2004 C2003 1.385 . S
C2004 C2005 1.389 . S
C2005 C2004 1.389 . S
C2005 C2006 1.387 . S
C2006 H1991 0.930 . S
C2006 C2001 1.390 . S
C2006 C2005 1.387 . S
H2007 C2019 0.930 . S
H2008 C2021 0.930 . S
H2009 C2022 0.930 . S
H2010 C2026 0.959 . S
H2011 C2026 0.959 . S
H2012 C2026 0.961 . S
H2013 C2027 0.960 . S
H2014 C2027 0.961 . S
H2015 C2027 0.959 . S
H2016 C2030 0.929 . S
H2017 C2031 0.931 . S
H2018 C2033 0.930 . S
C2019 H2007 0.930 . S
C2019 C2020 1.399 . S
C2019 C2024 1.399 . S
C2020 C2019 1.399 . S
C2020 C2021 1.376 . S
C2021 H2008 0.930 . S
C2021 C2020 1.376 . S
C2021 C2022 1.388 . S
C2022 H2009 0.930 . S
C2022 C2021 1.388 . S
C2022 C2023 1.390 . S
C2023 C2022 1.390 . S
C2023 C2024 1.394 . S
C2023 C2029 1.465 . S
C2024 C2019 1.399 . S
C2024 C2023 1.394 . S
C2024 C2025 1.516 . S
C2025 C2024 1.516 . S
C2025 C2026 1.502 . S
C2025 C2027 1.561 . S
C2025 C2028 1.526 . S
C2026 H2010 0.959 . S
C2026 H2011 0.959 . S
C2026 H2012 0.961 . S
C2026 C2025 1.502 . S
C2027 H2013 0.960 . S
C2027 H2014 0.961 . S
C2027 H2015 0.959 . S
C2027 C2025 1.561 . S
C2028 C2025 1.526 . S
C2028 C2029 1.396 . S
C2028 C2033 1.390 . S
C2029 C2023 1.465 . S
C2029 C2028 1.396 . S
C2029 C2030 1.399 . S
C2030 H2016 0.929 . S
C2030 C2029 1.399 . S
C2030 C2031 1.385 . S
C2031 H2017 0.931 . S
C2031 C2030 1.385 . S
C2031 C2032 1.389 . S
C2032 C2031 1.389 . S
C2032 C2033 1.387 . S
C2033 H2018 0.930 . S
C2033 C2028 1.390 . S
C2033 C2032 1.387 . S
H2034 C2046 0.930 . S
H2035 C2048 0.930 . S
H2036 C2049 0.930 . S
H2037 C2053 0.959 . S
H2038 C2053 0.959 . S
H2039 C2053 0.961 . S
H2040 C2054 0.960 . S
H2041 C2054 0.961 . S
H2042 C2054 0.959 . S
H2043 C2057 0.929 . S
H2044 C2058 0.931 . S
H2045 C2060 0.930 . S
C2046 H2034 0.930 . S
C2046 C2047 1.399 . S
C2046 C2051 1.399 . S
C2047 C2046 1.399 . S
C2047 C2048 1.376 . S
C2048 H2035 0.930 . S
C2048 C2047 1.376 . S
C2048 C2049 1.388 . S
C2049 H2036 0.930 . S
C2049 C2048 1.388 . S
C2049 C2050 1.390 . S
C2050 C2049 1.390 . S
C2050 C2051 1.394 . S
C2050 C2056 1.465 . S
C2051 C2046 1.399 . S
C2051 C2050 1.394 . S
C2051 C2052 1.516 . S
C2052 C2051 1.516 . S
C2052 C2053 1.502 . S
C2052 C2054 1.561 . S
C2052 C2055 1.526 . S
C2053 H2037 0.959 . S
C2053 H2038 0.959 . S
C2053 H2039 0.961 . S
C2053 C2052 1.502 . S
C2054 H2040 0.960 . S
C2054 H2041 0.961 . S
C2054 H2042 0.959 . S
C2054 C2052 1.561 . S
C2055 C2052 1.526 . S
C2055 C2056 1.396 . S
C2055 C2060 1.390 . S
C2056 C2050 1.465 . S
C2056 C2055 1.396 . S
C2056 C2057 1.399 . S
C2057 H2043 0.929 . S
C2057 C2056 1.399 . S
C2057 C2058 1.385 . S
C2058 H2044 0.931 . S
C2058 C2057 1.385 . S
C2058 C2059 1.389 . S
C2059 C2058 1.389 . S
C2059 C2060 1.387 . S
C2060 H2045 0.930 . S
C2060 C2055 1.390 . S
C2060 C2059 1.387 . S
H2061 C2073 0.930 . S
H2062 C2075 0.930 . S
H2063 C2076 0.930 . S
H2064 C2080 0.959 . S
H2065 C2080 0.959 . S
H2066 C2080 0.961 . S
H2067 C2081 0.960 . S
H2068 C2081 0.961 . S
H2069 C2081 0.959 . S
H2070 C2084 0.929 . S
H2071 C2085 0.931 . S
H2072 C2087 0.930 . S
C2073 H2061 0.930 . S
C2073 C2074 1.399 . S
C2073 C2078 1.399 . S
C2074 C2073 1.399 . S
C2074 C2075 1.376 . S
C2075 H2062 0.930 . S
C2075 C2074 1.376 . S
C2075 C2076 1.388 . S
C2076 H2063 0.930 . S
C2076 C2075 1.388 . S
C2076 C2077 1.390 . S
C2077 C2076 1.390 . S
C2077 C2078 1.394 . S
C2077 C2083 1.465 . S
C2078 C2073 1.399 . S
C2078 C2077 1.394 . S
C2078 C2079 1.516 . S
C2079 C2078 1.516 . S
C2079 C2080 1.502 . S
C2079 C2081 1.561 . S
C2079 C2082 1.526 . S
C2080 H2064 0.959 . S
C2080 H2065 0.959 . S
C2080 H2066 0.961 . S
C2080 C2079 1.502 . S
C2081 H2067 0.960 . S
C2081 H2068 0.961 . S
C2081 H2069 0.959 . S
C2081 C2079 1.561 . S
C2082 C2079 1.526 . S
C2082 C2083 1.396 . S
C2082 C2087 1.390 . S
C2083 C2077 1.465 . S
C2083 C2082 1.396 . S
C2083 C2084 1.399 . S
C2084 H2070 0.929 . S
C2084 C2083 1.399 . S
C2084 C2085 1.385 . S
C2085 H2071 0.931 . S
C2085 C2084 1.385 . S
C2085 C2086 1.389 . S
C2086 C2085 1.389 . S
C2086 C2087 1.387 . S
C2087 H2072 0.930 . S
C2087 C2082 1.390 . S
C2087 C2086 1.387 . S
H2088 C2100 0.930 . S
H2089 C2102 0.930 . S
H2090 C2103 0.930 . S
H2091 C2107 0.959 . S
H2092 C2107 0.959 . S
H2093 C2107 0.961 . S
H2094 C2108 0.960 . S
H2095 C2108 0.961 . S
H2096 C2108 0.959 . S
H2097 C2111 0.929 . S
H2098 C2112 0.931 . S
H2099 C2114 0.930 1_556 S
C2100 H2088 0.930 . S
C2100 C2101 1.399 . S
C2100 C2105 1.399 . S
C2101 C2100 1.399 . S
C2101 C2102 1.376 . S
C2102 H2089 0.930 . S
C2102 C2101 1.376 . S
C2102 C2103 1.388 . S
C2103 H2090 0.930 . S
C2103 C2102 1.388 . S
C2103 C2104 1.390 . S
C2104 C2103 1.390 . S
C2104 C2105 1.394 . S
C2104 C2110 1.465 . S
C2105 C2100 1.399 . S
C2105 C2104 1.394 . S
C2105 C2106 1.516 . S
C2106 C2105 1.516 . S
C2106 C2107 1.502 . S
C2106 C2108 1.561 . S
C2106 C2109 1.526 . S
C2107 H2091 0.959 . S
C2107 H2092 0.959 . S
C2107 H2093 0.961 . S
C2107 C2106 1.502 . S
C2108 H2094 0.960 . S
C2108 H2095 0.961 . S
C2108 H2096 0.959 . S
C2108 C2106 1.561 . S
C2109 C2106 1.526 . S
C2109 C2110 1.396 . S
C2109 C2114 1.390 . S
C2110 C2104 1.465 . S
C2110 C2109 1.396 . S
C2110 C2111 1.399 . S
C2111 H2097 0.929 . S
C2111 C2110 1.399 . S
C2111 C2112 1.385 1_554 S
C2112 H2098 0.931 . S
C2112 C2111 1.385 1_556 S
C2112 C2113 1.389 . S
C2113 C2112 1.389 . S
C2113 C2114 1.387 1_556 S
C2114 H2099 0.930 1_554 S
C2114 C2109 1.390 . S
C2114 C2113 1.387 1_554 S
H2115 C2127 0.930 . S
H2116 C2129 0.930 . S
H2117 C2130 0.930 . S
H2118 C2134 0.959 . S
H2119 C2134 0.959 . S
H2120 C2134 0.961 . S
H2121 C2135 0.960 . S
H2122 C2135 0.961 . S
H2123 C2135 0.959 . S
H2124 C2138 0.929 . S
H2125 C2139 0.931 . S
H2126 C2141 0.930 . S
C2127 H2115 0.930 . S
C2127 C2128 1.399 . S
C2127 C2132 1.399 . S
C2128 C2127 1.399 . S
C2128 C2129 1.376 . S
C2129 H2116 0.930 . S
C2129 C2128 1.376 . S
C2129 C2130 1.388 . S
C2130 H2117 0.930 . S
C2130 C2129 1.388 . S
C2130 C2131 1.390 . S
C2131 C2130 1.390 . S
C2131 C2132 1.394 . S
C2131 C2137 1.465 . S
C2132 C2127 1.399 . S
C2132 C2131 1.394 . S
C2132 C2133 1.516 . S
C2133 C2132 1.516 . S
C2133 C2134 1.502 . S
C2133 C2135 1.561 . S
C2133 C2136 1.526 . S
C2134 H2118 0.959 . S
C2134 H2119 0.959 . S
C2134 H2120 0.961 . S
C2134 C2133 1.502 . S
C2135 H2121 0.960 . S
C2135 H2122 0.961 . S
C2135 H2123 0.959 . S
C2135 C2133 1.561 . S
C2136 C2133 1.526 . S
C2136 C2137 1.396 . S
C2136 C2141 1.390 1_554 S
C2137 C2131 1.465 . S
C2137 C2136 1.396 . S
C2137 C2138 1.399 . S
C2138 H2124 0.929 . S
C2138 C2137 1.399 . S
C2138 C2139 1.385 1_554 S
C2139 H2125 0.931 . S
C2139 C2138 1.385 1_556 S
C2139 C2140 1.389 . S
C2140 C2139 1.389 . S
C2140 C2141 1.387 . S
C2141 H2126 0.930 . S
C2141 C2136 1.390 1_556 S
C2141 C2140 1.387 . S
H2142 C2154 0.930 . S
H2143 C2156 0.930 . S
H2144 C2157 0.930 . S
H2145 C2161 0.959 . S
H2146 C2161 0.959 . S
H2147 C2161 0.961 . S
H2148 C2162 0.960 . S
H2149 C2162 0.961 . S
H2150 C2162 0.959 . S
H2151 C2165 0.929 . S
H2152 C2166 0.931 . S
H2153 C2168 0.930 . S
C2154 H2142 0.930 . S
C2154 C2155 1.399 . S
C2154 C2159 1.399 . S
C2155 C2154 1.399 . S
C2155 C2156 1.376 . S
C2156 H2143 0.930 . S
C2156 C2155 1.376 . S
C2156 C2157 1.388 . S
C2157 H2144 0.930 . S
C2157 C2156 1.388 . S
C2157 C2158 1.390 . S
C2158 C2157 1.390 . S
C2158 C2159 1.394 . S
C2158 C2164 1.465 . S
C2159 C2154 1.399 . S
C2159 C2158 1.394 . S
C2159 C2160 1.516 . S
C2160 C2159 1.516 . S
C2160 C2161 1.502 . S
C2160 C2162 1.561 . S
C2160 C2163 1.526 . S
C2161 H2145 0.959 . S
C2161 H2146 0.959 . S
C2161 H2147 0.961 . S
C2161 C2160 1.502 . S
C2162 H2148 0.960 . S
C2162 H2149 0.961 . S
C2162 H2150 0.959 . S
C2162 C2160 1.561 . S
C2163 C2160 1.526 . S
C2163 C2164 1.396 . S
C2163 C2168 1.390 1_554 S
C2164 C2158 1.465 . S
C2164 C2163 1.396 . S
C2164 C2165 1.399 . S
C2165 H2151 0.929 . S
C2165 C2164 1.399 . S
C2165 C2166 1.385 1_554 S
C2166 H2152 0.931 . S
C2166 C2165 1.385 1_556 S
C2166 C2167 1.389 . S
C2167 C2166 1.389 . S
C2167 C2168 1.387 . S
C2168 H2153 0.930 . S
C2168 C2163 1.390 1_556 S
C2168 C2167 1.387 . S
H2169 C2181 0.930 . S
H2170 C2183 0.930 . S
H2171 C2184 0.930 . S
H2172 C2188 0.959 . S
H2173 C2188 0.959 . S
H2174 C2188 0.961 . S
H2175 C2189 0.960 . S
H2176 C2189 0.961 . S
H2177 C2189 0.959 . S
H2178 C2192 0.929 . S
H2179 C2193 0.931 . S
H2180 C2195 0.930 . S
C2181 H2169 0.930 . S
C2181 C2182 1.399 . S
C2181 C2186 1.399 . S
C2182 C2181 1.399 . S
C2182 C2183 1.376 . S
C2183 H2170 0.930 . S
C2183 C2182 1.376 . S
C2183 C2184 1.388 . S
C2184 H2171 0.930 . S
C2184 C2183 1.388 . S
C2184 C2185 1.390 . S
C2185 C2184 1.390 . S
C2185 C2186 1.394 . S
C2185 C2191 1.465 . S
C2186 C2181 1.399 . S
C2186 C2185 1.394 . S
C2186 C2187 1.516 . S
C2187 C2186 1.516 . S
C2187 C2188 1.502 . S
C2187 C2189 1.561 . S
C2187 C2190 1.526 . S
C2188 H2172 0.959 . S
C2188 H2173 0.959 . S
C2188 H2174 0.961 . S
C2188 C2187 1.502 . S
C2189 H2175 0.960 . S
C2189 H2176 0.961 . S
C2189 H2177 0.959 . S
C2189 C2187 1.561 . S
C2190 C2187 1.526 . S
C2190 C2191 1.396 . S
C2190 C2195 1.390 . S
C2191 C2185 1.465 . S
C2191 C2190 1.396 . S
C2191 C2192 1.399 . S
C2192 H2178 0.929 . S
C2192 C2191 1.399 . S
C2192 C2193 1.385 . S
C2193 H2179 0.931 . S
C2193 C2192 1.385 . S
C2193 C2194 1.389 . S
C2194 C2193 1.389 . S
C2194 C2195 1.387 . S
C2195 H2180 0.930 . S
C2195 C2190 1.390 . S
C2195 C2194 1.387 . S
H2196 C2208 0.930 . S
H2197 C2210 0.930 . S
H2198 C2211 0.930 . S
H2199 C2215 0.959 . S
H2200 C2215 0.959 . S
H2201 C2215 0.961 . S
H2202 C2216 0.960 . S
H2203 C2216 0.961 . S
H2204 C2216 0.959 . S
H2205 C2219 0.929 . S
H2206 C2220 0.931 . S
H2207 C2222 0.930 . S
C2208 H2196 0.930 . S
C2208 C2209 1.399 . S
C2208 C2213 1.399 . S
C2209 C2208 1.399 . S
C2209 C2210 1.376 . S
C2210 H2197 0.930 . S
C2210 C2209 1.376 . S
C2210 C2211 1.388 . S
C2211 H2198 0.930 . S
C2211 C2210 1.388 . S
C2211 C2212 1.390 . S
C2212 C2211 1.390 . S
C2212 C2213 1.394 . S
C2212 C2218 1.465 . S
C2213 C2208 1.399 . S
C2213 C2212 1.394 . S
C2213 C2214 1.516 . S
C2214 C2213 1.516 . S
C2214 C2215 1.502 . S
C2214 C2216 1.561 . S
C2214 C2217 1.526 . S
C2215 H2199 0.959 . S
C2215 H2200 0.959 . S
C2215 H2201 0.961 . S
C2215 C2214 1.502 . S
C2216 H2202 0.960 . S
C2216 H2203 0.961 . S
C2216 H2204 0.959 . S
C2216 C2214 1.561 . S
C2217 C2214 1.526 . S
C2217 C2218 1.396 . S
C2217 C2222 1.390 . S
C2218 C2212 1.465 . S
C2218 C2217 1.396 . S
C2218 C2219 1.399 . S
C2219 H2205 0.929 . S
C2219 C2218 1.399 . S
C2219 C2220 1.385 . S
C2220 H2206 0.931 . S
C2220 C2219 1.385 . S
C2220 C2221 1.389 . S
C2221 C2220 1.389 . S
C2221 C2222 1.387 . S
C2222 H2207 0.930 . S
C2222 C2217 1.390 . S
C2222 C2221 1.387 . S
H2223 C2235 0.930 . S
H2224 C2237 0.930 . S
H2225 C2238 0.930 . S
H2226 C2242 0.959 . S
H2227 C2242 0.959 . S
H2228 C2242 0.961 . S
H2229 C2243 0.960 . S
H2230 C2243 0.961 . S
H2231 C2243 0.959 . S
H2232 C2246 0.929 . S
H2233 C2247 0.931 . S
H2234 C2249 0.930 . S
C2235 H2223 0.930 . S
C2235 C2236 1.399 . S
C2235 C2240 1.399 . S
C2236 C2235 1.399 . S
C2236 C2237 1.376 . S
C2237 H2224 0.930 . S
C2237 C2236 1.376 . S
C2237 C2238 1.388 . S
C2238 H2225 0.930 . S
C2238 C2237 1.388 . S
C2238 C2239 1.390 . S
C2239 C2238 1.390 . S
C2239 C2240 1.394 . S
C2239 C2245 1.465 . S
C2240 C2235 1.399 . S
C2240 C2239 1.394 . S
C2240 C2241 1.516 . S
C2241 C2240 1.516 . S
C2241 C2242 1.502 . S
C2241 C2243 1.561 . S
C2241 C2244 1.526 . S
C2242 H2226 0.959 . S
C2242 H2227 0.959 . S
C2242 H2228 0.961 . S
C2242 C2241 1.502 . S
C2243 H2229 0.960 . S
C2243 H2230 0.961 . S
C2243 H2231 0.959 . S
C2243 C2241 1.561 . S
C2244 C2241 1.526 . S
C2244 C2245 1.396 . S
C2244 C2249 1.390 . S
C2245 C2239 1.465 . S
C2245 C2244 1.396 . S
C2245 C2246 1.399 . S
C2246 H2232 0.929 . S
C2246 C2245 1.399 . S
C2246 C2247 1.385 . S
C2247 H2233 0.931 . S
C2247 C2246 1.385 . S
C2247 C2248 1.389 . S
C2248 C2247 1.389 . S
C2248 C2249 1.387 . S
C2249 H2234 0.930 . S
C2249 C2244 1.390 . S
C2249 C2248 1.387 . S
H2250 C2262 0.918 1_455 S
H2251 C2264 0.930 . S
H2252 C2265 0.930 . S
H2253 C2269 0.959 . S
H2254 C2269 0.959 . S
H2255 C2269 0.961 . S
H2256 C2270 0.960 . S
H2257 C2270 0.975 . S
H2258 C2270 0.959 . S
H2259 C2273 0.929 . S
H2260 C2274 0.931 . S
H2261 C2276 0.913 1_455 S
C2262 H2250 0.918 1_655 S
C2262 C2263 1.399 . S
C2262 C2267 1.399 . S
C2263 C2262 1.399 . S
C2263 C2264 1.376 . S
C2264 H2251 0.930 . S
C2264 C2263 1.376 . S
C2264 C2265 1.388 . S
C2265 H2252 0.930 . S
C2265 C2264 1.388 . S
C2265 C2266 1.390 . S
C2266 C2265 1.390 . S
C2266 C2267 1.394 . S
C2266 C2272 1.465 . S
C2267 C2262 1.399 . S
C2267 C2266 1.394 . S
C2267 C2268 1.516 . S
C2268 C2267 1.516 . S
C2268 C2269 1.502 1_655 S
C2268 C2270 1.561 . S
C2268 C2271 1.526 . S
C2269 H2253 0.959 . S
C2269 H2254 0.959 . S
C2269 H2255 0.961 . S
C2269 C2268 1.502 1_455 S
C2270 H2256 0.960 . S
C2270 H2257 0.975 . S
C2270 H2258 0.959 . S
C2270 C2268 1.561 . S
C2271 C2268 1.526 . S
C2271 C2272 1.396 . S
C2271 C2276 1.390 . S
C2272 C2266 1.465 . S
C2272 C2271 1.396 . S
C2272 C2273 1.399 . S
C2273 H2259 0.929 . S
C2273 C2272 1.399 . S
C2273 C2274 1.385 . S
C2274 H2260 0.931 . S
C2274 C2273 1.385 . S
C2274 C2275 1.389 . S
C2275 C2274 1.389 . S
C2275 C2276 1.387 . S
C2276 H2261 0.913 1_655 S
C2276 C2271 1.390 . S
C2276 C2275 1.387 . S
H2277 C2289 0.930 . S
H2278 C2291 0.930 . S
H2279 C2292 0.930 . S
H2280 C2296 0.959 . S
H2281 C2296 0.959 . S
H2282 C2296 0.961 . S
H2283 C2297 0.960 . S
H2284 C2297 0.961 . S
H2285 C2297 0.959 . S
H2286 C2300 0.929 . S
H2287 C2301 0.931 . S
H2288 C2303 0.930 . S
C2289 H2277 0.930 . S
C2289 C2290 1.399 . S
C2289 C2294 1.399 . S
C2290 C2289 1.399 . S
C2290 C2291 1.376 . S
C2291 H2278 0.930 . S
C2291 C2290 1.376 . S
C2291 C2292 1.388 . S
C2292 H2279 0.930 . S
C2292 C2291 1.388 . S
C2292 C2293 1.390 . S
C2293 C2292 1.390 . S
C2293 C2294 1.394 . S
C2293 C2299 1.465 . S
C2294 C2289 1.399 . S
C2294 C2293 1.394 . S
C2294 C2295 1.516 . S
C2295 C2294 1.516 . S
C2295 C2296 1.502 . S
C2295 C2297 1.561 . S
C2295 C2298 1.526 . S
C2296 H2280 0.959 . S
C2296 H2281 0.959 . S
C2296 H2282 0.961 . S
C2296 C2295 1.502 . S
C2297 H2283 0.960 . S
C2297 H2284 0.961 . S
C2297 H2285 0.959 . S
C2297 C2295 1.561 . S
C2298 C2295 1.526 . S
C2298 C2299 1.396 . S
C2298 C2303 1.390 . S
C2299 C2293 1.465 . S
C2299 C2298 1.396 . S
C2299 C2300 1.399 . S
C2300 H2286 0.929 . S
C2300 C2299 1.399 . S
C2300 C2301 1.385 . S
C2301 H2287 0.931 . S
C2301 C2300 1.385 . S
C2301 C2302 1.389 . S
C2302 C2301 1.389 . S
C2302 C2303 1.387 . S
C2303 H2288 0.930 . S
C2303 C2298 1.390 . S
C2303 C2302 1.387 . S
H2304 C2316 0.930 1_545 S
H2305 C2318 0.930 . S
H2306 C2319 0.930 . S
H2307 C2323 0.983 . S
H2308 C2323 0.959 . S
H2309 C2323 0.961 . S
H2310 C2324 0.960 . S
H2311 C2324 0.961 . S
H2312 C2324 0.959 . S
H2313 C2327 0.929 . S
H2314 C2328 0.931 . S
H2315 C2330 0.930 1_545 S
C2316 H2304 0.930 1_565 S
C2316 C2317 1.399 . S
C2316 C2321 1.399 . S
C2317 C2316 1.399 . S
C2317 C2318 1.376 . S
C2318 H2305 0.930 . S
C2318 C2317 1.376 . S
C2318 C2319 1.388 . S
C2319 H2306 0.930 . S
C2319 C2318 1.388 . S
C2319 C2320 1.390 . S
C2320 C2319 1.390 . S
C2320 C2321 1.394 . S
C2320 C2326 1.465 . S
C2321 C2316 1.399 . S
C2321 C2320 1.394 . S
C2321 C2322 1.516 1_565 S
C2322 C2321 1.516 1_545 S
C2322 C2323 1.502 . S
C2322 C2324 1.561 . S
C2322 C2325 1.526 1_545 S
C2323 H2307 0.983 . S
C2323 H2308 0.959 . S
C2323 H2309 0.961 . S
C2323 C2322 1.502 . S
C2324 H2310 0.960 . S
C2324 H2311 0.961 . S
C2324 H2312 0.959 . S
C2324 C2322 1.561 . S
C2325 C2322 1.526 1_565 S
C2325 C2326 1.396 . S
C2325 C2330 1.390 . S
C2326 C2320 1.465 . S
C2326 C2325 1.396 . S
C2326 C2327 1.399 . S
C2327 H2313 0.929 . S
C2327 C2326 1.399 . S
C2327 C2328 1.385 . S
C2328 H2314 0.931 . S
C2328 C2327 1.385 . S
C2328 C2329 1.389 . S
C2329 C2328 1.389 . S
C2329 C2330 1.387 . S
C2330 H2315 0.930 1_565 S
C2330 C2325 1.390 . S
C2330 C2329 1.387 . S
H2331 C2343 0.930 1_565 S
H2332 C2345 0.930 . S
H2333 C2346 0.930 . S
H2334 C2350 0.959 . S
H2335 C2350 0.959 . S
H2336 C2350 0.961 . S
H2337 C2351 0.960 . S
H2338 C2351 0.961 . S
H2339 C2351 0.959 . S
H2340 C2354 0.929 . S
H2341 C2355 0.931 . S
H2342 C2357 0.930 1_565 S
C2343 H2331 0.930 1_545 S
C2343 C2344 1.399 . S
C2343 C2348 1.399 . S
C2344 C2343 1.399 . S
C2344 C2345 1.376 . S
C2345 H2332 0.930 . S
C2345 C2344 1.376 . S
C2345 C2346 1.388 . S
C2346 H2333 0.930 . S
C2346 C2345 1.388 . S
C2346 C2347 1.390 . S
C2347 C2346 1.390 . S
C2347 C2348 1.394 . S
C2347 C2353 1.465 . S
C2348 C2343 1.399 . S
C2348 C2347 1.394 . S
C2348 C2349 1.516 1_545 S
C2349 C2348 1.516 1_565 S
C2349 C2350 1.502 . S
C2349 C2351 1.561 . S
C2349 C2352 1.526 1_565 S
C2350 H2334 0.959 . S
C2350 H2335 0.959 . S
C2350 H2336 0.961 . S
C2350 C2349 1.502 . S
C2351 H2337 0.960 . S
C2351 H2338 0.961 . S
C2351 H2339 0.959 . S
C2351 C2349 1.561 . S
C2352 C2349 1.526 1_545 S
C2352 C2353 1.396 . S
C2352 C2357 1.390 . S
C2353 C2347 1.465 . S
C2353 C2352 1.396 . S
C2353 C2354 1.399 . S
C2354 H2340 0.929 . S
C2354 C2353 1.399 . S
C2354 C2355 1.385 . S
C2355 H2341 0.931 . S
C2355 C2354 1.385 . S
C2355 C2356 1.389 . S
C2356 C2355 1.389 . S
C2356 C2357 1.387 . S
C2357 H2342 0.930 1_545 S
C2357 C2352 1.390 . S
C2357 C2356 1.387 . S
H2358 C2370 0.932 1_655 S
H2359 C2372 0.930 . S
H2360 C2373 0.930 . S
H2361 C2377 0.959 . S
H2362 C2377 0.959 . S
H2363 C2377 0.961 . S
H2364 C2378 0.960 . S
H2365 C2378 0.961 . S
H2366 C2378 0.959 . S
H2367 C2381 0.929 . S
H2368 C2382 0.931 . S
H2369 C2384 0.930 . S
C2370 H2358 0.932 1_455 S
C2370 C2371 1.399 . S
C2370 C2375 1.399 . S
C2371 C2370 1.399 . S
C2371 C2372 1.376 . S
C2372 H2359 0.930 . S
C2372 C2371 1.376 . S
C2372 C2373 1.388 . S
C2373 H2360 0.930 . S
C2373 C2372 1.388 . S
C2373 C2374 1.390 . S
C2374 C2373 1.390 . S
C2374 C2375 1.394 . S
C2374 C2380 1.465 . S
C2375 C2370 1.399 . S
C2375 C2374 1.394 . S
C2375 C2376 1.516 . S
C2376 C2375 1.516 . S
C2376 C2377 1.502 1_455 S
C2376 C2378 1.561 . S
C2376 C2379 1.526 . S
C2377 H2361 0.959 . S
C2377 H2362 0.959 . S
C2377 H2363 0.961 . S
C2377 C2376 1.502 1_655 S
C2378 H2364 0.960 . S
C2378 H2365 0.961 . S
C2378 H2366 0.959 . S
C2378 C2376 1.561 . S
C2379 C2376 1.526 . S
C2379 C2380 1.396 . S
C2379 C2384 1.390 . S
C2380 C2374 1.465 . S
C2380 C2379 1.396 . S
C2380 C2381 1.399 . S
C2381 H2367 0.929 . S
C2381 C2380 1.399 . S
C2381 C2382 1.385 . S
C2382 H2368 0.931 . S
C2382 C2381 1.385 . S
C2382 C2383 1.389 . S
C2383 C2382 1.389 . S
C2383 C2384 1.387 . S
C2384 H2369 0.930 . S
C2384 C2379 1.390 . S
C2384 C2383 1.387 . S
H2385 C2397 0.930 . S
H2386 C2399 0.930 . S
H2387 C2400 0.930 . S
H2388 C2404 0.959 . S
H2389 C2404 0.959 . S
H2390 C2404 0.961 . S
H2391 C2405 0.960 . S
H2392 C2405 0.961 . S
H2393 C2405 0.959 . S
H2394 C2408 0.929 . S
H2395 C2409 0.931 . S
H2396 C2411 0.930 . S
C2397 H2385 0.930 . S
C2397 C2398 1.399 . S
C2397 C2402 1.399 . S
C2398 C2397 1.399 . S
C2398 C2399 1.376 . S
C2399 H2386 0.930 . S
C2399 C2398 1.376 . S
C2399 C2400 1.388 . S
C2400 H2387 0.930 . S
C2400 C2399 1.388 . S
C2400 C2401 1.390 . S
C2401 C2400 1.390 . S
C2401 C2402 1.394 . S
C2401 C2407 1.465 . S
C2402 C2397 1.399 . S
C2402 C2401 1.394 . S
C2402 C2403 1.516 . S
C2403 C2402 1.516 . S
C2403 C2404 1.502 . S
C2403 C2405 1.561 . S
C2403 C2406 1.526 . S
C2404 H2388 0.959 . S
C2404 H2389 0.959 . S
C2404 H2390 0.961 . S
C2404 C2403 1.502 . S
C2405 H2391 0.960 . S
C2405 H2392 0.961 . S
C2405 H2393 0.959 . S
C2405 C2403 1.561 . S
C2406 C2403 1.526 . S
C2406 C2407 1.396 . S
C2406 C2411 1.390 . S
C2407 C2401 1.465 . S
C2407 C2406 1.396 . S
C2407 C2408 1.399 . S
C2408 H2394 0.929 . S
C2408 C2407 1.399 . S
C2408 C2409 1.385 . S
C2409 H2395 0.931 . S
C2409 C2408 1.385 . S
C2409 C2410 1.389 . S
C2410 C2409 1.389 . S
C2410 C2411 1.387 . S
C2411 H2396 0.930 . S
C2411 C2406 1.390 . S
C2411 C2410 1.387 . S
C481 C212 1.624 . S
C493 C10 1.620 . S
C508 C225 1.566 . S
C520 C17 1.605 . S
C535 C205 1.590 . S
C547 C30 1.625 . S
C562 C342 1.575 . S
C574 C43 1.599 . S
C589 C62 1.586 . S
C601 C322 1.599 . S
C616 C75 1.588 . S
C628 C329 1.554 . S
C643 C88 1.607 . S
C655 C452 1.599 . S
C670 C459 1.576 . S
C682 C95 1.592 . S
C697 C439 1.620 . S
C709 C108 1.591 . S
C724 C121 1.591 . S
C736 C270 1.583 . S
C751 C244 1.569 . S
C763 C134 1.578 . S
C778 C153 1.558 . S
C790 C257 1.555 . S
C805 C374 1.546 . S
C817 C166 1.534 . S
C832 C179 1.485 . S
C844 C381 1.491 . S
C859 C361 1.502 . S
C871 C192 1.474 . S
C886 C420 1.521 . S
C898 C283 1.484 . S
C913 C394 1.530 . S
C925 C290 1.539 . S
C940 C309 1.515 . S
C952 C413 1.509 . S
C967 C238 1.333 . S
C979 C4 1.303 . S
C994 C251 1.425 . S
C1006 C23 1.454 . S
C1021 C264 1.646 . S
C1033 C36 1.719 . S
C1048 C49 1.307 . S
C1060 C433 1.340 . S
C1075 C56 1.741 . S
C1087 C446 1.717 . S
C1102 C69 1.476 . S
C1114 C465 1.434 . S
C1129 C82 1.334 . S
C1141 C316 1.302 . S
C1156 C335 1.450 . S
C1168 C101 1.442 . S
C1183 C348 1.650 . S
C1195 C114 1.714 . S
C1210 C199 1.342 . S
C1222 C127 1.308 . S
C1237 C140 1.764 . S
C1249 C218 1.685 . S
C1264 C147 1.475 . S
C1276 C231 1.435 . S
C1291 C160 1.318 . S
C1303 C400 1.335 . S
C1318 C407 1.435 . S
C1330 C173 1.400 . S
C1345 C426 1.515 . S
C1357 C186 1.579 . S
C1372 C355 1.362 . S
C1384 C277 1.416 . S
C1399 C296 1.670 . S
C1411 C368 1.608 . S
C1426 C303 1.517 . S
C1438 C387 1.460 . S
C1453 C356 1.437 . S
C1465 C5 1.463 . S
C1480 C16 1.402 . S
C1492 C369 1.348 . S
C1507 C29 1.325 . S
C1519 C380 1.362 . S
C1534 C161 1.410 . S
C1546 C42 1.429 . S
C1561 C57 1.400 . S
C1573 C174 1.410 . S
C1588 C70 1.339 . S
C1600 C187 1.328 . S
C1615 C278 1.462 . S
C1627 C83 1.439 . S
C1642 C94 1.368 . S
C1654 C289 1.345 . S
C1669 C304 1.361 . S
C1681 C107 1.301 . S
C1696 C120 1.418 . S
C1708 C393 1.423 . S
C1723 C408 1.418 . S
C1735 C133 1.402 . S
C1750 C419 1.296 . S
C1762 C148 1.313 . S
C1777 C317 1.455 . S
C1789 C200 1.476 . S
C1804 C328 1.444 . S
C1816 C211 1.384 . S
C1831 C341 1.332 . S
C1843 C224 1.435 . S
C1858 C239 1.461 . S
C1870 C434 1.453 . S
C1885 C447 1.333 . S
C1897 C252 1.424 . S
C1912 C458 1.440 . S
C1924 C265 1.419 . S
C1939 C3 0.942 . S
C1951 C213 0.932 . S
C1966 C18 0.911 . S
C1978 C226 0.965 . S
C1993 C31 0.894 . S
C2005 C198 0.990 . S
C2020 C343 1.021 . S
C2032 C44 0.941 . S
C2047 C315 0.965 . S
C2059 C55 0.953 . S
C2074 C330 0.999 . S
C2086 C68 0.921 . S
C2101 C445 0.920 . S
C2113 C81 0.924 . S
C2128 C460 0.920 . S
C2140 C96 1.005 . S
C2155 C432 0.917 . S
C2167 C109 0.997 . S
C2182 C122 0.994 . S
C2194 C263 0.934 . S
C2209 C135 0.981 . S
C2221 C237 1.000 . S
C2236 C146 1.019 . S
C2248 C250 0.928 . S
C2263 C367 0.977 . S
C2275 C159 1.065 . S
C2290 C382 0.998 . S
C2302 C172 1.064 . S
C2317 C185 1.001 . S
C2329 C354 1.074 . S
C2344 C276 1.057 . S
C2356 C421 1.001 . S
C2371 C395 1.062 . S
C2383 C291 0.997 . S
C2398 C406 1.072 . S
C2410 C302 1.013 . S
