# Generated by pormake.
# Topology uoh, (4)-cn, num edge types: 1
# Building blocks:
#     Node 0, Type 0, BuildingBlock: CEKHIL_clean_sbu_0, # of connection points: 4
#     Node 1, Type 0, BuildingBlock: CEKHIL_clean_sbu_0, # of connection points: 4
#     Node 2, Type 0, BuildingBlock: CEKHIL_clean_sbu_0, # of connection points: 4
#     Node 3, Type 0, BuildingBlock: CEKHIL_clean_sbu_0, # of connection points: 4
#     Node 4, Type 0, BuildingBlock: CEKHIL_clean_sbu_0, # of connection points: 4
#     Node 5, Type 0, BuildingBlock: CEKHIL_clean_sbu_0, # of connection points: 4
#     Node 6, Type 0, BuildingBlock: CEKHIL_clean_sbu_0, # of connection points: 4
#     Node 7, Type 0, BuildingBlock: CEKHIL_clean_sbu_0, # of connection points: 4
#     Node 8, Type 0, BuildingBlock: CEKHIL_clean_sbu_0, # of connection points: 4
#     Node 9, Type 0, BuildingBlock: CEKHIL_clean_sbu_0, # of connection points: 4
#     Node 10, Type 0, BuildingBlock: CEKHIL_clean_sbu_0, # of connection points: 4
#     Node 11, Type 0, BuildingBlock: CEKHIL_clean_sbu_0, # of connection points: 4
#     Node 12, Type 0, BuildingBlock: CEKHIL_clean_sbu_0, # of connection points: 4
#     Node 13, Type 0, BuildingBlock: CEKHIL_clean_sbu_0, # of connection points: 4
#     Node 14, Type 0, BuildingBlock: CEKHIL_clean_sbu_0, # of connection points: 4
#     Node 15, Type 0, BuildingBlock: CEKHIL_clean_sbu_0, # of connection points: 4
#     Node 16, Type 0, BuildingBlock: CEKHIL_clean_sbu_0, # of connection points: 4
#     Node 17, Type 0, BuildingBlock: CEKHIL_clean_sbu_0, # of connection points: 4
#     Node 18, Type 0, BuildingBlock: CEKHIL_clean_sbu_0, # of connection points: 4
#     Node 19, Type 0, BuildingBlock: CEKHIL_clean_sbu_0, # of connection points: 4
#     Node 20, Type 0, BuildingBlock: CEKHIL_clean_sbu_0, # of connection points: 4
#     Node 21, Type 0, BuildingBlock: CEKHIL_clean_sbu_0, # of connection points: 4
#     Node 22, Type 0, BuildingBlock: CEKHIL_clean_sbu_0, # of connection points: 4
#     Node 23, Type 0, BuildingBlock: CEKHIL_clean_sbu_0, # of connection points: 4
#     Node 24, Type 0, BuildingBlock: CEKHIL_clean_sbu_0, # of connection points: 4
#     Node 25, Type 0, BuildingBlock: CEKHIL_clean_sbu_0, # of connection points: 4
#     Node 26, Type 0, BuildingBlock: CEKHIL_clean_sbu_0, # of connection points: 4
#     Node 27, Type 0, BuildingBlock: CEKHIL_clean_sbu_0, # of connection points: 4
#     Node 28, Type 0, BuildingBlock: CEKHIL_clean_sbu_0, # of connection points: 4
#     Node 29, Type 0, BuildingBlock: CEKHIL_clean_sbu_0, # of connection points: 4
#     Node 30, Type 0, BuildingBlock: CEKHIL_clean_sbu_0, # of connection points: 4
#     Node 31, Type 0, BuildingBlock: CEKHIL_clean_sbu_0, # of connection points: 4
#     Node 32, Type 0, BuildingBlock: CEKHIL_clean_sbu_0, # of connection points: 4
#     Node 33, Type 0, BuildingBlock: CEKHIL_clean_sbu_0, # of connection points: 4
#     Node 34, Type 0, BuildingBlock: CEKHIL_clean_sbu_0, # of connection points: 4
#     Node 35, Type 0, BuildingBlock: CEKHIL_clean_sbu_0, # of connection points: 4
#     Edge 36, Type (0, 0), BuildingBlock: EZIPEK_clean_linker_0, # of connection points: 2
#     Edge 37, Type (0, 0), BuildingBlock: EZIPEK_clean_linker_0, # of connection points: 2
#     Edge 38, Type (0, 0), BuildingBlock: EZIPEK_clean_linker_0, # of connection points: 2
#     Edge 39, Type (0, 0), BuildingBlock: EZIPEK_clean_linker_0, # of connection points: 2
#     Edge 40, Type (0, 0), BuildingBlock: EZIPEK_clean_linker_0, # of connection points: 2
#     Edge 41, Type (0, 0), BuildingBlock: EZIPEK_clean_linker_0, # of connection points: 2
#     Edge 42, Type (0, 0), BuildingBlock: EZIPEK_clean_linker_0, # of connection points: 2
#     Edge 43, Type (0, 0), BuildingBlock: EZIPEK_clean_linker_0, # of connection points: 2
#     Edge 44, Type (0, 0), BuildingBlock: EZIPEK_clean_linker_0, # of connection points: 2
#     Edge 45, Type (0, 0), BuildingBlock: EZIPEK_clean_linker_0, # of connection points: 2
#     Edge 46, Type (0, 0), BuildingBlock: EZIPEK_clean_linker_0, # of connection points: 2
#     Edge 47, Type (0, 0), BuildingBlock: EZIPEK_clean_linker_0, # of connection points: 2
#     Edge 48, Type (0, 0), BuildingBlock: EZIPEK_clean_linker_0, # of connection points: 2
#     Edge 49, Type (0, 0), BuildingBlock: EZIPEK_clean_linker_0, # of connection points: 2
#     Edge 50, Type (0, 0), BuildingBlock: EZIPEK_clean_linker_0, # of connection points: 2
#     Edge 51, Type (0, 0), BuildingBlock: EZIPEK_clean_linker_0, # of connection points: 2
#     Edge 52, Type (0, 0), BuildingBlock: EZIPEK_clean_linker_0, # of connection points: 2
#     Edge 53, Type (0, 0), BuildingBlock: EZIPEK_clean_linker_0, # of connection points: 2
#     Edge 54, Type (0, 0), BuildingBlock: EZIPEK_clean_linker_0, # of connection points: 2
#     Edge 55, Type (0, 0), BuildingBlock: EZIPEK_clean_linker_0, # of connection points: 2
#     Edge 56, Type (0, 0), BuildingBlock: EZIPEK_clean_linker_0, # of connection points: 2
#     Edge 57, Type (0, 0), BuildingBlock: EZIPEK_clean_linker_0, # of connection points: 2
#     Edge 58, Type (0, 0), BuildingBlock: EZIPEK_clean_linker_0, # of connection points: 2
#     Edge 59, Type (0, 0), BuildingBlock: EZIPEK_clean_linker_0, # of connection points: 2
#     Edge 60, Type (0, 0), BuildingBlock: EZIPEK_clean_linker_0, # of connection points: 2
#     Edge 61, Type (0, 0), BuildingBlock: EZIPEK_clean_linker_0, # of connection points: 2
#     Edge 62, Type (0, 0), BuildingBlock: EZIPEK_clean_linker_0, # of connection points: 2
#     Edge 63, Type (0, 0), BuildingBlock: EZIPEK_clean_linker_0, # of connection points: 2
#     Edge 64, Type (0, 0), BuildingBlock: EZIPEK_clean_linker_0, # of connection points: 2
#     Edge 65, Type (0, 0), BuildingBlock: EZIPEK_clean_linker_0, # of connection points: 2
#     Edge 66, Type (0, 0), BuildingBlock: EZIPEK_clean_linker_0, # of connection points: 2
#     Edge 67, Type (0, 0), BuildingBlock: EZIPEK_clean_linker_0, # of connection points: 2
#     Edge 68, Type (0, 0), BuildingBlock: EZIPEK_clean_linker_0, # of connection points: 2
#     Edge 69, Type (0, 0), BuildingBlock: EZIPEK_clean_linker_0, # of connection points: 2
#     Edge 70, Type (0, 0), BuildingBlock: EZIPEK_clean_linker_0, # of connection points: 2
#     Edge 71, Type (0, 0), BuildingBlock: EZIPEK_clean_linker_0, # of connection points: 2
#     Edge 72, Type (0, 0), BuildingBlock: EZIPEK_clean_linker_0, # of connection points: 2
#     Edge 73, Type (0, 0), BuildingBlock: EZIPEK_clean_linker_0, # of connection points: 2
#     Edge 74, Type (0, 0), BuildingBlock: EZIPEK_clean_linker_0, # of connection points: 2
#     Edge 75, Type (0, 0), BuildingBlock: EZIPEK_clean_linker_0, # of connection points: 2
#     Edge 76, Type (0, 0), BuildingBlock: EZIPEK_clean_linker_0, # of connection points: 2
#     Edge 77, Type (0, 0), BuildingBlock: EZIPEK_clean_linker_0, # of connection points: 2
#     Edge 78, Type (0, 0), BuildingBlock: EZIPEK_clean_linker_0, # of connection points: 2
#     Edge 79, Type (0, 0), BuildingBlock: EZIPEK_clean_linker_0, # of connection points: 2
#     Edge 80, Type (0, 0), BuildingBlock: EZIPEK_clean_linker_0, # of connection points: 2
#     Edge 81, Type (0, 0), BuildingBlock: EZIPEK_clean_linker_0, # of connection points: 2
#     Edge 82, Type (0, 0), BuildingBlock: EZIPEK_clean_linker_0, # of connection points: 2
#     Edge 83, Type (0, 0), BuildingBlock: EZIPEK_clean_linker_0, # of connection points: 2
#     Edge 84, Type (0, 0), BuildingBlock: EZIPEK_clean_linker_0, # of connection points: 2
#     Edge 85, Type (0, 0), BuildingBlock: EZIPEK_clean_linker_0, # of connection points: 2
#     Edge 86, Type (0, 0), BuildingBlock: EZIPEK_clean_linker_0, # of connection points: 2
#     Edge 87, Type (0, 0), BuildingBlock: EZIPEK_clean_linker_0, # of connection points: 2
#     Edge 88, Type (0, 0), BuildingBlock: EZIPEK_clean_linker_0, # of connection points: 2
#     Edge 89, Type (0, 0), BuildingBlock: EZIPEK_clean_linker_0, # of connection points: 2
#     Edge 90, Type (0, 0), BuildingBlock: EZIPEK_clean_linker_0, # of connection points: 2
#     Edge 91, Type (0, 0), BuildingBlock: EZIPEK_clean_linker_0, # of connection points: 2
#     Edge 92, Type (0, 0), BuildingBlock: EZIPEK_clean_linker_0, # of connection points: 2
#     Edge 93, Type (0, 0), BuildingBlock: EZIPEK_clean_linker_0, # of connection points: 2
#     Edge 94, Type (0, 0), BuildingBlock: EZIPEK_clean_linker_0, # of connection points: 2
#     Edge 95, Type (0, 0), BuildingBlock: EZIPEK_clean_linker_0, # of connection points: 2
#     Edge 96, Type (0, 0), BuildingBlock: EZIPEK_clean_linker_0, # of connection points: 2
#     Edge 97, Type (0, 0), BuildingBlock: EZIPEK_clean_linker_0, # of connection points: 2
#     Edge 98, Type (0, 0), BuildingBlock: EZIPEK_clean_linker_0, # of connection points: 2
#     Edge 99, Type (0, 0), BuildingBlock: EZIPEK_clean_linker_0, # of connection points: 2
#     Edge 100, Type (0, 0), BuildingBlock: EZIPEK_clean_linker_0, # of connection points: 2
#     Edge 101, Type (0, 0), BuildingBlock: EZIPEK_clean_linker_0, # of connection points: 2
#     Edge 102, Type (0, 0), BuildingBlock: EZIPEK_clean_linker_0, # of connection points: 2
#     Edge 103, Type (0, 0), BuildingBlock: EZIPEK_clean_linker_0, # of connection points: 2
#     Edge 104, Type (0, 0), BuildingBlock: EZIPEK_clean_linker_0, # of connection points: 2
#     Edge 105, Type (0, 0), BuildingBlock: EZIPEK_clean_linker_0, # of connection points: 2
#     Edge 106, Type (0, 0), BuildingBlock: EZIPEK_clean_linker_0, # of connection points: 2
#     Edge 107, Type (0, 0), BuildingBlock: EZIPEK_clean_linker_0, # of connection points: 2
# Relax obj value: 0.088
# Max RMSD: 0.137
# Mean RMSD: 0.137
data_MOF--net-uoh--node1-CEKHIL_clean_sbu_0--edge1-EZIPEK_clean_linker_0
_symmetry_space_group_name_H-M    P1
_symmetry_Int_Tables_number       1
_symmetry_cell_setting            triclinic
loop_
_symmetry_equiv_pos_as_xyz
'x, y, z'
_cell_length_a     64.843897
_cell_length_b     65.002332
_cell_length_c     19.850495
_cell_angle_alpha  89.941889
_cell_angle_beta   90.033543
_cell_angle_gamma 119.94538
loop_
_atom_site_label
_atom_site_type_symbol
_atom_site_fract_x
_atom_site_fract_y
_atom_site_fract_z
_atom_type_partial_charge
Co0 Co 0.23984 0.14929 0.1847 0.0
O1 O 0.21011 0.14923 0.18607 0.0
O2 O 0.24328 0.17682 0.2325 0.0
C3 C 0.23748 0.13975 0.07397 0.0
O4 O 0.27417 0.1564 0.1908 0.0
Co5 Co 0.24187 0.10397 0.15243 0.0
O6 O 0.27696 0.12557 0.15055 0.0
C7 C 0.22685 0.10977 0.28746 0.0
C8 C 0.22096 0.1691 0.21885 0.0
C9 C 0.28645 0.14666 0.17359 0.0
O10 O 0.23262 0.13126 0.27259 0.0
O11 O 0.22595 0.095 0.2433 0.0
O12 O 0.24537 0.16159 0.09242 0.0
O13 O 0.2298 0.12426 0.12197 0.0
Co14 Co 0.85722 0.08852 0.17361 0.0
O15 O 0.85722 0.05962 0.19407 0.0
O16 O 0.82776 0.06627 0.2182 0.0
C17 C 0.86931 0.09071 0.06417 0.0
O18 O 0.85062 0.11567 0.15835 0.0
Co19 Co 0.90425 0.13381 0.13749 0.0
O20 O 0.8835 0.14744 0.11737 0.0
C21 C 0.89347 0.11971 0.28004 0.0
C22 C 0.83598 0.05165 0.21818 0.0
C23 C 0.86168 0.13693 0.13465 0.0
O24 O 0.87283 0.10269 0.26283 0.0
O25 O 0.90949 0.13295 0.23743 0.0
O26 O 0.84721 0.07801 0.08208 0.0
O27 O 0.88369 0.10062 0.1144 0.0
Co28 Co 0.91607 0.76626 0.177 0.0
O29 O 0.94593 0.79551 0.18457 0.0
O30 O 0.93874 0.76091 0.22657 0.0
C31 C 0.91117 0.77019 0.06567 0.0
O32 O 0.88775 0.73233 0.17782 0.0
Co33 Co 0.87009 0.76652 0.13788 0.0
O34 O 0.85716 0.73186 0.12354 0.0
C35 C 0.88765 0.77756 0.27772 0.0
C36 C 0.95367 0.78335 0.21667 0.0
C37 C 0.86676 0.72106 0.15171 0.0
O38 O 0.90411 0.77274 0.26353 0.0
O39 O 0.874 0.77879 0.23318 0.0
O40 O 0.92448 0.76173 0.08597 0.0
O41 O 0.90281 0.77774 0.11271 0.0
Co42 Co 0.15179 0.23939 0.32337 0.0
O43 O 0.15101 0.20937 0.32092 0.0
O44 O 0.17998 0.24296 0.27938 0.0
C45 C 0.14008 0.23583 0.43107 0.0
O46 O 0.16012 0.27411 0.31848 0.0
Co47 Co 0.10723 0.24408 0.35104 0.0
O48 O 0.13017 0.27855 0.35855 0.0
C49 C 0.11518 0.23086 0.21551 0.0
C50 C 0.17151 0.22046 0.29079 0.0
C51 C 0.15133 0.28716 0.33648 0.0
O52 O 0.13496 0.23275 0.2349 0.0
O53 O 0.101 0.23358 0.25442 0.0
O54 O 0.16232 0.24354 0.41651 0.0
O55 O 0.12554 0.22957 0.38087 0.0
Co56 Co 0.76403 0.91395 0.33248 0.0
O57 O 0.79487 0.94187 0.32159 0.0
O58 O 0.7607 0.93988 0.29621 0.0
C59 C 0.77054 0.90498 0.43753 0.0
O60 O 0.72895 0.88857 0.33987 0.0
Co61 Co 0.76081 0.86527 0.34549 0.0
O62 O 0.72588 0.85244 0.33905 0.0
C63 C 0.77208 0.88875 0.21585 0.0
C64 C 0.78381 0.9525 0.2994 0.0
C65 C 0.71664 0.86571 0.33982 0.0
O66 O 0.76493 0.90267 0.23808 0.0
O67 O 0.77646 0.87588 0.25545 0.0
O68 O 0.76433 0.9209 0.42809 0.0
O69 O 0.77515 0.8969 0.38358 0.0
Co70 Co 0.09106 0.85409 0.32953 0.0
O71 O 0.06214 0.8554 0.31842 0.0
O72 O 0.06701 0.82537 0.28682 0.0
C73 C 0.09811 0.86629 0.43724 0.0
O74 O 0.11733 0.8455 0.33539 0.0
Co75 Co 0.1395 0.89969 0.35627 0.0
O76 O 0.1528 0.87799 0.35453 0.0
C77 C 0.12 0.89011 0.21963 0.0
C78 C 0.05306 0.83428 0.29262 0.0
C79 C 0.14003 0.85576 0.34377 0.0
O80 O 0.10326 0.86959 0.23903 0.0
O81 O 0.13513 0.90576 0.25969 0.0
O82 O 0.08267 0.84442 0.42264 0.0
O83 O 0.10679 0.8806 0.38648 0.0
Co84 Co 0.76995 0.85232 0.82987 0.0
O85 O 0.79948 0.85267 0.81508 0.0
O86 O 0.7637 0.82279 0.78907 0.0
C87 C 0.77866 0.86627 0.9369 0.0
O88 O 0.73558 0.84464 0.84074 0.0
Co89 Co 0.76871 0.8985 0.85682 0.0
O90 O 0.7338 0.87735 0.86635 0.0
C91 C 0.77659 0.88764 0.71912 0.0
C92 C 0.78658 0.83133 0.79155 0.0
C93 C 0.72376 0.85515 0.85456 0.0
O94 O 0.77236 0.86701 0.7388 0.0
O95 O 0.7779 0.90366 0.75911 0.0
O96 O 0.76999 0.8439 0.92328 0.0
O97 O 0.78284 0.87956 0.88441 0.0
Co98 Co 0.15777 0.91361 0.83008 0.0
O99 O 0.15766 0.94317 0.82295 0.0
O100 O 0.18728 0.9377 0.79035 0.0
C101 C 0.14427 0.90566 0.93747 0.0
O102 O 0.16517 0.88655 0.83055 0.0
Co103 Co 0.11114 0.86612 0.85112 0.0
O104 O 0.1313 0.85132 0.83821 0.0
C105 C 0.12181 0.88824 0.71831 0.0
C106 C 0.17884 0.95199 0.79749 0.0
C107 C 0.15376 0.86371 0.83118 0.0
O108 O 0.14296 0.90337 0.73797 0.0
O109 O 0.10534 0.87406 0.75818 0.0
O110 O 0.16664 0.91996 0.92492 0.0
O111 O 0.13041 0.89813 0.88556 0.0
Co112 Co 0.08853 0.23417 0.82755 0.0
O113 O 0.05871 0.20508 0.81479 0.0
O114 O 0.0652 0.24116 0.7901 0.0
C115 C 0.09593 0.22651 0.93304 0.0
O116 O 0.11587 0.26817 0.83574 0.0
Co117 Co 0.13535 0.23365 0.84344 0.0
O118 O 0.15031 0.26859 0.85406 0.0
C119 C 0.11443 0.22616 0.71118 0.0
C120 C 0.05054 0.21842 0.79249 0.0
C121 C 0.13844 0.27917 0.84628 0.0
O122 O 0.09945 0.2319 0.73402 0.0
O123 O 0.12847 0.22276 0.74841 0.0
O124 O 0.08149 0.23458 0.92238 0.0
O125 O 0.10343 0.22081 0.87971 0.0
Co126 Co 0.85669 0.76523 0.67374 0.0
O127 O 0.85574 0.79421 0.68326 0.0
O128 O 0.82775 0.7588 0.71935 0.0
C129 C 0.86766 0.7712 0.56403 0.0
O130 O 0.85107 0.73131 0.67204 0.0
Co131 Co 0.90288 0.7649 0.6399 0.0
O132 O 0.88105 0.73101 0.61691 0.0
C133 C 0.89356 0.77332 0.78046 0.0
C134 C 0.83528 0.78134 0.71217 0.0
C135 C 0.86062 0.72012 0.64456 0.0
O136 O 0.87334 0.7706 0.76266 0.0
O137 O 0.90842 0.77267 0.73916 0.0
O138 O 0.84553 0.76223 0.5816 0.0
O139 O 0.88276 0.77771 0.61324 0.0
Co140 Co 0.23573 0.08716 0.68033 0.0
O141 O 0.20909 0.05601 0.69699 0.0
O142 O 0.24653 0.06731 0.72293 0.0
C143 C 0.22485 0.08892 0.57212 0.0
O144 O 0.26784 0.11746 0.66843 0.0
Co145 Co 0.22829 0.12927 0.64948 0.0
O146 O 0.26234 0.14613 0.62343 0.0
C147 C 0.22742 0.11475 0.79083 0.0
C148 C 0.22431 0.05063 0.72146 0.0
C149 C 0.27587 0.13839 0.64341 0.0
O150 O 0.23186 0.09855 0.77117 0.0
O151 O 0.22422 0.12826 0.75042 0.0
O152 O 0.23709 0.07878 0.58775 0.0
O153 O 0.21856 0.09684 0.62344 0.0
Co154 Co 0.91369 0.15434 0.67547 0.0
O155 O 0.94266 0.15309 0.68353 0.0
O156 O 0.9378 0.18254 0.72071 0.0
C157 C 0.90746 0.1433 0.56523 0.0
O158 O 0.88702 0.16241 0.67488 0.0
Co159 Co 0.86596 0.10928 0.64387 0.0
O160 O 0.85322 0.13139 0.63609 0.0
C161 C 0.88643 0.11609 0.78026 0.0
C162 C 0.95168 0.17363 0.7127 0.0
C163 C 0.8651 0.1528 0.65649 0.0
O164 O 0.90191 0.13761 0.76489 0.0
O165 O 0.87262 0.10106 0.73637 0.0
O166 O 0.92169 0.16523 0.58231 0.0
O167 O 0.89867 0.12851 0.6149 0.0
Co168 Co 0.90359 0.48068 0.5128 0.0
O169 O 0.87431 0.48132 0.52055 0.0
O170 O 0.90978 0.51032 0.5528 0.0
C171 C 0.89843 0.46773 0.40661 0.0
O172 O 0.93782 0.48689 0.50929 0.0
Co173 Co 0.90252 0.4327 0.49138 0.0
O174 O 0.93766 0.45249 0.49486 0.0
C175 C 0.89349 0.44484 0.62556 0.0
C176 C 0.88713 0.50248 0.54536 0.0
C177 C 0.9487 0.47495 0.50276 0.0
O178 O 0.89841 0.46546 0.60393 0.0
O179 O 0.89229 0.42838 0.58773 0.0
O180 O 0.90612 0.49 0.41923 0.0
O181 O 0.89159 0.45368 0.45814 0.0
Co182 Co 0.51993 0.42127 0.51028 0.0
O183 O 0.51845 0.39175 0.53108 0.0
O184 O 0.48983 0.39962 0.55422 0.0
C185 C 0.53192 0.42245 0.40108 0.0
O186 O 0.51553 0.4498 0.49405 0.0
Co187 Co 0.56882 0.46451 0.47393 0.0
O188 O 0.54969 0.47979 0.45183 0.0
C189 C 0.55759 0.44963 0.61602 0.0
C190 C 0.49719 0.38427 0.55404 0.0
C191 C 0.52792 0.47077 0.46881 0.0
O192 O 0.53588 0.43505 0.59938 0.0
O193 O 0.57406 0.46086 0.57245 0.0
O194 O 0.50972 0.4109 0.41861 0.0
O195 O 0.54627 0.43184 0.45155 0.0
Co196 Co 0.58097 0.09789 0.5062 0.0
O197 O 0.61037 0.12727 0.5187 0.0
O198 O 0.60404 0.0919 0.55084 0.0
C199 C 0.57544 0.10395 0.39726 0.0
O200 O 0.55333 0.06374 0.4993 0.0
Co201 Co 0.53438 0.09871 0.47557 0.0
O202 O 0.51932 0.0636 0.47463 0.0
C203 C 0.55223 0.10596 0.61447 0.0
C204 C 0.6186 0.11463 0.54563 0.0
C205 C 0.53073 0.0528 0.48756 0.0
O206 O 0.56861 0.1015 0.59618 0.0
O207 O 0.53806 0.10782 0.57329 0.0
O208 O 0.58984 0.09632 0.4135 0.0
O209 O 0.56695 0.11019 0.44725 0.0
Co210 Co 0.81764 0.57114 0.6437 0.0
O211 O 0.81821 0.54188 0.63711 0.0
O212 O 0.84671 0.57688 0.60009 0.0
C213 C 0.80611 0.56604 0.75278 0.0
O214 O 0.82357 0.60519 0.64259 0.0
Co215 Co 0.77142 0.57215 0.67455 0.0
O216 O 0.79352 0.60619 0.69522 0.0
C217 C 0.78143 0.56312 0.53519 0.0
C218 C 0.83888 0.55435 0.609 0.0
C219 C 0.81405 0.61673 0.66799 0.0
O220 O 0.80142 0.56547 0.55401 0.0
O221 O 0.76655 0.5642 0.57547 0.0
O222 O 0.82831 0.57456 0.7367 0.0
O223 O 0.79134 0.55937 0.70279 0.0
Co224 Co 0.42549 0.24506 0.65692 0.0
O225 O 0.4561 0.27389 0.65495 0.0
O226 O 0.4228 0.27078 0.61565 0.0
C227 C 0.42825 0.23601 0.76587 0.0
O228 O 0.39062 0.21887 0.65228 0.0
Co229 Co 0.42253 0.19664 0.68062 0.0
O230 O 0.38767 0.18323 0.66979 0.0
C231 C 0.43722 0.2192 0.54855 0.0
C232 C 0.44548 0.28415 0.62724 0.0
C233 C 0.37836 0.19607 0.65721 0.0
O234 O 0.43096 0.23445 0.56562 0.0
O235 O 0.43933 0.20569 0.59153 0.0
O236 O 0.4214 0.25113 0.75127 0.0
O237 O 0.43517 0.22847 0.7154 0.0
Co238 Co 0.75654 0.19073 0.64618 0.0
O239 O 0.72582 0.18833 0.63654 0.0
O240 O 0.7333 0.15908 0.61684 0.0
C241 C 0.76542 0.20889 0.74674 0.0
O242 O 0.7855 0.18612 0.65243 0.0
Co243 Co 0.80247 0.23964 0.65023 0.0
O244 O 0.81895 0.22135 0.66633 0.0
C245 C 0.77964 0.22058 0.52133 0.0
C246 C 0.71802 0.16647 0.61876 0.0
C247 C 0.80818 0.19885 0.66131 0.0
O248 O 0.76448 0.20116 0.55007 0.0
O249 O 0.79502 0.23897 0.55286 0.0
O250 O 0.75187 0.18601 0.74239 0.0
O251 O 0.77132 0.22044 0.69044 0.0
Co252 Co 0.4313 0.18368 0.15875 0.0
O253 O 0.45894 0.18049 0.14465 0.0
O254 O 0.42204 0.15322 0.11771 0.0
C255 C 0.44113 0.19714 0.2665 0.0
O256 O 0.3984 0.18022 0.16839 0.0
Co257 Co 0.43616 0.2326 0.18674 0.0
O258 O 0.40163 0.21429 0.20676 0.0
C259 C 0.43864 0.21882 0.0467 0.0
C260 C 0.4445 0.15962 0.12054 0.0
C261 C 0.38921 0.19261 0.18949 0.0
O262 O 0.435 0.19851 0.06721 0.0
O263 O 0.44107 0.23542 0.0863 0.0
O264 O 0.43006 0.17465 0.25222 0.0
O265 O 0.44694 0.21084 0.21427 0.0
Co266 Co 0.82049 0.24411 0.14001 0.0
O267 O 0.82108 0.2741 0.1403 0.0
O268 O 0.85042 0.26875 0.10396 0.0
C269 C 0.80586 0.23321 0.24419 0.0
O270 O 0.82732 0.21667 0.13333 0.0
Co271 Co 0.77364 0.19592 0.15195 0.0
O272 O 0.79386 0.18121 0.14371 0.0
C273 C 0.78598 0.22169 0.02385 0.0
C274 C 0.8422 0.28307 0.11437 0.0
C275 C 0.81623 0.19382 0.13536 0.0
O276 O 0.80613 0.23728 0.04811 0.0
O277 O 0.76985 0.20457 0.0581 0.0
O278 O 0.82851 0.2475 0.23507 0.0
O279 O 0.79251 0.22732 0.19135 0.0
Co280 Co 0.75672 0.57368 0.14314 0.0
O281 O 0.72612 0.54521 0.13792 0.0
O282 O 0.73391 0.58035 0.09934 0.0
C283 C 0.76288 0.56888 0.2527 0.0
O284 O 0.78612 0.60705 0.14082 0.0
Co285 Co 0.80231 0.57154 0.17482 0.0
O286 O 0.81597 0.60594 0.19459 0.0
C287 C 0.7829 0.56223 0.03603 0.0
C288 C 0.71841 0.55808 0.10974 0.0
C289 C 0.80719 0.61753 0.1668 0.0
O290 O 0.7665 0.56669 0.0539 0.0
O291 O 0.79789 0.5617 0.07714 0.0
O292 O 0.75016 0.57838 0.23589 0.0
O293 O 0.77006 0.56102 0.2034 0.0
Co294 Co 0.51628 0.09512 0.00689 0.0
O295 O 0.51329 0.1231 0.01293 0.0
O296 O 0.48679 0.08749 0.0516 0.0
C297 C 0.52746 0.1003 0.89723 0.0
O298 O 0.51286 0.06214 0.00882 0.0
Co299 Co 0.56419 0.09768 0.9753 0.0
O300 O 0.54361 0.06344 0.95368 0.0
C301 C 0.55348 0.10568 0.115 0.0
C302 C 0.49305 0.10966 0.04235 0.0
C303 C 0.52336 0.05179 0.98205 0.0
O304 O 0.53298 0.10211 0.09641 0.0
O305 O 0.56884 0.10568 0.07436 0.0
O306 O 0.50517 0.09053 0.91388 0.0
O307 O 0.54239 0.10818 0.94687 0.0
Co308 Co 0.90688 0.42078 0.01 0.0
O309 O 0.8775 0.3913 0.02221 0.0
O310 O 0.91344 0.39675 0.04428 0.0
C311 C 0.89848 0.429 0.90674 0.0
O312 O 0.94118 0.44796 0.0014 0.0
Co313 Co 0.90675 0.46805 -0.00149 0.0
O314 O 0.94199 0.48295 0.99501 0.0
C315 C 0.89801 0.44471 0.12804 0.0
C316 C 0.89053 0.38253 0.04258 0.0
C317 C 0.95237 0.47076 -0.00338 0.0
O318 O 0.90502 0.43086 0.10444 0.0
O319 O 0.89415 0.45864 0.09168 0.0
O320 O 0.90654 0.41443 0.91428 0.0
O321 O 0.89346 0.43629 0.96156 0.0
Co322 Co 0.58028 0.48478 0.01118 0.0
O323 O 0.61083 0.48697 0.02366 0.0
O324 O 0.60228 0.51469 0.05377 0.0
C325 C 0.57649 0.47211 0.9017 0.0
O326 O 0.55177 0.48987 0.00396 0.0
Co327 Co 0.53506 0.43762 0.97888 0.0
O328 O 0.51919 0.45679 0.96819 0.0
C329 C 0.5534 0.44713 0.11807 0.0
C330 C 0.61795 0.50787 0.04869 0.0
C331 C 0.52983 0.47852 0.98555 0.0
O332 O 0.56873 0.46868 0.1019 0.0
O333 O 0.54042 0.43139 0.07464 0.0
O334 O 0.58812 0.49447 0.91756 0.0
O335 O 0.56804 0.45812 0.95307 0.0
Co336 Co 0.57669 0.81742 0.8553 0.0
O337 O 0.54839 0.82009 0.85646 0.0
O338 O 0.58457 0.84911 0.88258 0.0
C339 C 0.56903 0.7989 0.75484 0.0
O340 O 0.61042 0.82218 0.8582 0.0
Co341 Co 0.57472 0.76918 0.85616 0.0
O342 O 0.60985 0.78733 0.85314 0.0
C343 C 0.56615 0.78746 0.98173 0.0
C344 C 0.56201 0.84183 0.87596 0.0
C345 C 0.62097 0.80984 0.8563 0.0
O346 O 0.57075 0.80672 0.95153 0.0
O347 O 0.56542 0.76971 0.95179 0.0
O348 O 0.5792 0.82189 0.75837 0.0
O349 O 0.56249 0.78759 0.81149 0.0
Co350 Co 0.1902 0.75439 0.83557 0.0
O351 O 0.18993 0.72518 0.8524 0.0
O352 O 0.16064 0.73173 0.87936 0.0
C353 C 0.20208 0.75715 0.7256 0.0
O354 O 0.18411 0.78205 0.82456 0.0
Co355 Co 0.23767 0.79953 0.80019 0.0
O356 O 0.21777 0.81468 0.79114 0.0
C357 C 0.22678 0.78444 0.94223 0.0
C358 C 0.16869 0.71697 0.8766 0.0
C359 C 0.19586 0.80409 0.80754 0.0
O360 O 0.20605 0.76757 0.92506 0.0
O361 O 0.24274 0.7979 0.8998 0.0
O362 O 0.17999 0.74483 0.7436 0.0
O363 O 0.21654 0.76664 0.77588 0.0
Co364 Co 0.24529 0.42684 0.84329 0.0
O365 O 0.27587 0.45558 0.84175 0.0
O366 O 0.2699 0.41994 0.86956 0.0
C367 C 0.23267 0.43292 0.74457 0.0
O368 O 0.21721 0.39283 0.84821 0.0
Co369 Co 0.19757 0.42674 0.84618 0.0
O370 O 0.18202 0.39175 0.84364 0.0
C371 C 0.2265 0.43826 0.96857 0.0
C372 C 0.28466 0.44246 0.86107 0.0
C373 C 0.1943 0.3815 0.84674 0.0
O374 O 0.241 0.43329 0.93891 0.0
O375 O 0.20893 0.4382 0.93921 0.0
O376 O 0.24652 0.4238 0.7468 0.0
O377 O 0.22818 0.43969 0.80103 0.0
Co378 Co 0.48852 0.90556 0.98145 0.0
O379 O 0.49128 0.87746 0.97453 0.0
O380 O 0.51799 0.91312 0.93674 0.0
C381 C 0.47723 0.90029 0.09117 0.0
O382 O 0.49218 0.93864 0.98019 0.0
Co383 Co 0.44071 0.90329 0.0132 0.0
O384 O 0.46152 0.93745 0.03558 0.0
C385 C 0.45151 0.89558 0.87328 0.0
C386 C 0.51156 0.89089 0.94525 0.0
C387 C 0.48176 0.94905 0.00719 0.0
O388 O 0.47193 0.89893 0.8919 0.0
O389 O 0.43617 0.89561 0.91393 0.0
O390 O 0.49951 0.90982 0.07464 0.0
O391 O 0.46237 0.89259 0.04135 0.0
Co392 Co 0.10028 0.57787 0.97668 0.0
O393 O 0.13048 0.6067 0.96732 0.0
O394 O 0.09576 0.60306 0.93997 0.0
C395 C 0.10667 0.56938 0.08232 0.0
O396 O 0.06566 0.55122 0.98247 0.0
Co397 Co 0.09998 0.53042 0.99119 0.0
O398 O 0.06483 0.5161 0.98551 0.0
C399 C 0.10958 0.55308 0.8607 0.0
C400 C 0.11875 0.61659 0.94496 0.0
C401 C 0.05447 0.52834 0.98398 0.0
O402 O 0.10224 0.5669 0.88267 0.0
O403 O 0.11464 0.54067 0.90011 0.0
O404 O 0.09956 0.58457 0.07195 0.0
O405 O 0.11226 0.56185 0.02899 0.0
Co406 Co 0.42224 0.51671 0.9597 0.0
O407 O 0.39155 0.51398 0.94693 0.0
O408 O 0.40068 0.48656 0.91763 0.0
C409 C 0.42597 0.52972 0.0675 0.0
O410 O 0.45143 0.51267 0.9676 0.0
Co411 Co 0.46707 0.56495 0.99032 0.0
O412 O 0.4827 0.54596 0.0083 0.0
C413 C 0.45017 0.55255 0.85007 0.0
C414 C 0.38481 0.49318 0.92185 0.0
C415 C 0.47297 0.52441 0.98944 0.0
O416 O 0.43321 0.53223 0.86946 0.0
O417 O 0.46482 0.56857 0.89036 0.0
O418 O 0.41455 0.50727 0.05278 0.0
O419 O 0.4342 0.54361 0.01582 0.0
Co420 Co 0.09734 0.51415 0.47296 0.0
O421 O 0.12643 0.51389 0.45614 0.0
O422 O 0.09028 0.48458 0.43032 0.0
C423 C 0.10728 0.52777 0.57979 0.0
O424 O 0.06321 0.50729 0.4853 0.0
Co425 Co 0.09744 0.56078 0.5035 0.0
O426 O 0.0625 0.54034 0.51383 0.0
C427 C 0.10543 0.55061 0.36504 0.0
C428 C 0.11313 0.49281 0.4316 0.0
C429 C 0.05189 0.51822 0.50049 0.0
O430 O 0.10009 0.52952 0.38318 0.0
O431 O 0.10714 0.56654 0.40614 0.0
O432 O 0.09761 0.5053 0.56587 0.0
O433 O 0.11118 0.54119 0.52786 0.0
Co434 Co 0.48695 0.5785 0.45981 0.0
O435 O 0.48544 0.60741 0.4549 0.0
O436 O 0.51584 0.60388 0.41979 0.0
C437 C 0.47421 0.56979 0.5678 0.0
O438 O 0.49536 0.5521 0.45978 0.0
Co439 Co 0.44093 0.53045 0.48036 0.0
O440 O 0.46168 0.51651 0.46431 0.0
C441 C 0.45046 0.55293 0.34895 0.0
C442 C 0.50664 0.61745 0.42928 0.0
C443 C 0.48421 0.52922 0.45955 0.0
O444 O 0.4719 0.56775 0.36755 0.0
O445 O 0.43417 0.5397 0.39063 0.0
O446 O 0.49629 0.58494 0.55438 0.0
O447 O 0.46008 0.56217 0.51649 0.0
Co448 Co 0.4247 0.90535 0.48292 0.0
O449 O 0.39458 0.87662 0.47113 0.0
O450 O 0.40228 0.91251 0.43953 0.0
C451 C 0.43019 0.89885 0.59145 0.0
O452 O 0.45308 0.93908 0.48944 0.0
Co453 Co 0.47057 0.90308 0.51221 0.0
O454 O 0.48663 0.93827 0.51356 0.0
C455 C 0.45231 0.89609 0.37369 0.0
C456 C 0.38701 0.88997 0.44517 0.0
C457 C 0.47568 0.94955 0.50092 0.0
O458 O 0.43639 0.90118 0.39234 0.0
O459 O 0.46628 0.89377 0.41461 0.0
O460 O 0.4164 0.90727 0.57593 0.0
O461 O 0.43817 0.89226 0.54103 0.0
Co462 Co 0.19199 0.43356 0.3397 0.0
O463 O 0.18908 0.46163 0.34497 0.0
O464 O 0.15977 0.42486 0.36353 0.0
C465 C 0.21214 0.44294 0.2426 0.0
O466 O 0.18738 0.40005 0.33703 0.0
Co467 Co 0.24049 0.43553 0.34373 0.0
O468 O 0.22236 0.4011 0.32486 0.0
C469 C 0.21991 0.44103 0.46835 0.0
C470 C 0.16696 0.44742 0.36075 0.0
C471 C 0.19979 0.38975 0.32888 0.0
O472 O 0.20097 0.43698 0.43697 0.0
O473 O 0.23835 0.44284 0.43966 0.0
O474 O 0.1891 0.43325 0.24289 0.0
O475 O 0.22261 0.44849 0.30049 0.0
Co476 Co 0.57092 0.7585 0.35964 0.0
O477 O 0.54276 0.72767 0.36214 0.0
O478 O 0.57901 0.73451 0.38464 0.0
C479 C 0.56367 0.77001 0.26006 0.0
O480 O 0.60439 0.78751 0.3601 0.0
Co481 Co 0.56744 0.80391 0.36464 0.0
O482 O 0.60264 0.82125 0.35861 0.0
C483 C 0.55467 0.77336 0.48327 0.0
C484 C 0.55643 0.71922 0.37903 0.0
C485 C 0.61431 0.81031 0.35814 0.0
O486 O 0.56553 0.76345 0.45647 0.0
O487 O 0.55164 0.78878 0.45163 0.0
O488 O 0.57313 0.75651 0.26292 0.0
O489 O 0.55659 0.77419 0.31666 0.0
Co490 Co 0.24994 0.81985 0.33579 0.0
O491 O 0.2805 0.82197 0.34495 0.0
O492 O 0.27196 0.84915 0.381 0.0
C493 C 0.24465 0.80887 0.22594 0.0
O494 O 0.22068 0.82396 0.33293 0.0
Co495 Co 0.20523 0.77117 0.30371 0.0
O496 O 0.18833 0.78954 0.30239 0.0
C497 C 0.224 0.78159 0.44249 0.0
C498 C 0.28759 0.84235 0.37336 0.0
C499 C 0.19829 0.81134 0.31918 0.0
O500 O 0.23908 0.80307 0.42554 0.0
O501 O 0.21075 0.76559 0.39996 0.0
O502 O 0.25761 0.83099 0.24299 0.0
O503 O 0.23721 0.79396 0.27555 0.0
C504 C 0.25279 0.13459 0.8915 0.0
C505 C 0.22971 0.12036 0.86373 0.0
C506 C 0.21169 0.1195 0.97311 0.0
C507 C 0.23481 0.13274 0.0018 0.0
N508 N 0.27726 0.14984 0.99139 0.0
N509 N 0.18742 0.09605 0.87878 0.0
C510 C 0.25534 0.13952 0.96172 0.0
C511 C 0.2092 0.11186 0.90478 0.0
N512 N 0.27231 0.14379 0.85032 0.0
N513 N 0.19217 0.11514 0.01029 0.0
H514 H 0.18504 0.09046 0.82869 0.0
H515 H 0.17205 0.08708 0.90774 0.0
H516 H 0.19321 0.12051 0.06026 0.0
H517 H 0.1751 0.10788 0.99032 0.0
H518 H 0.28925 0.15682 0.86524 0.0
H519 H 0.27138 0.13945 0.79947 0.0
H520 H 0.29271 0.15278 0.96704 0.0
H521 H 0.27972 0.15378 0.04244 0.0
C522 C 0.90336 0.11553 0.89583 0.0
C523 C 0.88339 0.10856 0.85261 0.0
C524 C 0.85788 0.08271 0.94211 0.0
C525 C 0.87625 0.0943 0.99056 0.0
N526 N 0.91855 0.12071 0.00959 0.0
N527 N 0.84035 0.08944 0.84441 0.0
C528 C 0.89965 0.11055 0.96654 0.0
C529 C 0.86027 0.09329 0.87847 0.0
N530 N 0.92572 0.12534 0.86911 0.0
N531 N 0.83869 0.06085 0.95464 0.0
H532 H 0.84089 0.09846 0.80048 0.0
H533 H 0.82333 0.07951 0.86498 0.0
H534 H 0.83801 0.0506 0.99593 0.0
H535 H 0.8256 0.05153 0.91851 0.0
H536 H 0.94068 0.12877 0.89722 0.0
H537 H 0.92905 0.12758 0.8175 0.0
H538 H 0.93473 0.13553 -0.00343 0.0
H539 H 0.91839 0.11419 0.0575 0.0
C540 C 0.91158 0.79309 0.96236 0.0
C541 C 0.90607 0.77111 0.99292 0.0
C542 C 0.89335 0.75117 0.88326 0.0
C543 C 0.89789 0.77288 0.85355 0.0
N544 N 0.90711 0.81343 0.86543 0.0
N545 N 0.88813 0.72853 0.98469 0.0
C546 C 0.90566 0.79352 0.89338 0.0
C547 C 0.89614 0.74999 0.95383 0.0
N548 N 0.9237 0.81374 -0.00194 0.0
N549 N 0.88615 0.73151 0.84382 0.0
H550 H 0.88991 0.72686 0.03596 0.0
H551 H 0.87802 0.71222 0.96095 0.0
H552 H 0.88117 0.73083 0.79364 0.0
H553 H 0.88604 0.71618 0.85971 0.0
H554 H 0.93044 0.83052 0.97666 0.0
H555 H 0.92895 0.81434 0.04799 0.0
H556 H 0.90996 0.82817 0.89341 0.0
H557 H 0.90366 0.81453 0.8146 0.0
C558 C 0.11295 0.21159 0.52589 0.0
C559 C 0.13179 0.23358 0.50141 0.0
C560 C 0.13954 0.24985 0.6151 0.0
C561 C 0.11953 0.2287 0.63867 0.0
N562 N 0.08459 0.19104 0.61576 0.0
N563 N 0.15799 0.27543 0.51963 0.0
C564 C 0.10525 0.21012 0.59366 0.0
C565 C 0.14366 0.25324 0.54515 0.0
N566 N 0.10348 0.19178 0.48619 0.0
N567 N 0.15496 0.26658 0.65937 0.0
H568 H 0.16009 0.27866 0.46814 0.0
H569 H 0.16529 0.2908 0.5488 0.0
H570 H 0.15256 0.26519 0.71141 0.0
H571 H 0.1712 0.28099 0.64467 0.0
H572 H 0.09144 0.17486 0.5039 0.0
H573 H 0.10926 0.1917 0.43729 0.0
H574 H 0.07219 0.17815 0.58356 0.0
H575 H 0.07896 0.18915 0.66578 0.0
C576 C 0.75748 0.87768 0.53672 0.0
C577 C 0.77482 0.89902 0.5063 0.0
C578 C 0.79615 0.91139 0.61415 0.0
C579 C 0.77659 0.89179 0.64584 0.0
N580 N 0.73576 0.86013 0.63865 0.0
N581 N 0.81058 0.93713 0.51601 0.0
C582 C 0.75649 0.87588 0.60749 0.0
C583 C 0.7942 0.91621 0.54506 0.0
N584 N 0.74208 0.85896 0.49826 0.0
N585 N 0.81668 0.92493 0.64937 0.0
H586 H 0.8105 0.94054 0.46466 0.0
H587 H 0.8235 0.95146 0.5433 0.0
H588 H 0.81868 0.92163 0.69971 0.0
H589 H 0.83231 0.93808 0.62733 0.0
H590 H 0.73018 0.84232 0.51814 0.0
H591 H 0.74358 0.85939 0.44636 0.0
H592 H 0.71995 0.84958 0.6126 0.0
H593 H 0.73365 0.85998 0.69064 0.0
C594 C 0.11577 0.90067 0.60335 0.0
C595 C 0.11734 0.88388 0.64535 0.0
C596 C 0.11142 0.85854 0.54775 0.0
C597 C 0.10634 0.87352 0.50746 0.0
N598 N 0.10009 0.90717 0.4998 0.0
N599 N 0.11389 0.84524 0.6592 0.0
C600 C 0.10781 0.89434 0.53567 0.0
C601 C 0.11428 0.86233 0.61807 0.0
N602 N 0.12153 0.92249 0.62824 0.0
N603 N 0.11467 0.8413 0.51863 0.0
H604 H 0.11756 0.84758 0.71054 0.0
H605 H 0.1084 0.82802 0.64303 0.0
H606 H 0.11374 0.83837 0.46694 0.0
H607 H 0.12112 0.83176 0.5447 0.0
H608 H 0.12328 0.93639 0.59802 0.0
H609 H 0.12636 0.92731 0.67836 0.0
H610 H 0.09842 0.92099 0.52045 0.0
H611 H 0.09311 0.90267 0.45131 0.0
C612 C 0.78197 0.90317 0.09296 0.0
C613 C 0.77257 0.88455 0.14181 0.0
C614 C 0.77533 0.85806 0.06048 0.0
C615 C 0.78115 0.87489 0.00826 0.0
N616 N 0.79341 0.91549 0.97731 0.0
N617 N 0.75135 0.84202 0.1593 0.0
C618 C 0.78544 0.89807 0.02509 0.0
C619 C 0.76643 0.86131 0.12151 0.0
N620 N 0.78837 0.92583 0.11108 0.0
N621 N 0.77965 0.83964 0.05402 0.0
H622 H 0.74239 0.84332 0.20131 0.0
H623 H 0.74544 0.82466 0.14335 0.0
H624 H 0.78968 0.83864 0.01444 0.0
H625 H 0.77663 0.82774 0.0932 0.0
H626 H 0.79877 0.94065 0.08129 0.0
H627 H 0.7836 0.93017 0.15641 0.0
H628 H 0.79178 0.93058 0.98151 0.0
H629 H 0.80275 0.91546 0.93477 0.0
C630 C 0.1302 0.87847 0.11083 0.0
C631 C 0.12479 0.89401 0.14654 0.0
C632 C 0.132 0.91774 0.04395 0.0
C633 C 0.13508 0.90066 0.00747 0.0
N634 N 0.12984 0.86132 0.00353 0.0
N635 N 0.11716 0.92667 0.14587 0.0
C636 C 0.13181 0.87991 0.04005 0.0
C637 C 0.12471 0.91322 0.11277 0.0
N638 N 0.13551 0.86339 0.14466 0.0
N639 N 0.13632 0.93832 0.01314 0.0
H640 H 0.11171 0.92368 0.19611 0.0
H641 H 0.11453 0.9395 0.1223 0.0
H642 H 0.14059 0.94166 0.96213 0.0
H643 H 0.13695 0.95258 0.03884 0.0
H644 H 0.14179 0.85331 0.12075 0.0
H645 H 0.13663 0.86331 0.19698 0.0
H646 H 0.12537 0.84492 0.02467 0.0
H647 H 0.12999 0.86163 0.95142 0.0
C648 C 0.1248 0.23696 0.02816 0.0
C649 C 0.1015 0.22266 0.00287 0.0
C650 C 0.08757 0.20962 0.11832 0.0
C651 C 0.1099 0.22773 0.14279 0.0
N652 N 0.14773 0.26288 0.1185 0.0
N653 N 0.06006 0.19485 0.02415 0.0
C654 C 0.12795 0.24267 0.09705 0.0
C655 C 0.08262 0.2088 0.04817 0.0
N656 N 0.14408 0.24415 0.98769 0.0
N657 N 0.07157 0.19279 0.16127 0.0
H658 H 0.05624 0.19227 0.97274 0.0
H659 H 0.04513 0.18663 0.05515 0.0
H660 H 0.07494 0.19246 0.21252 0.0
H661 H 0.05594 0.17795 0.14509 0.0
H662 H 0.16154 0.25381 0.00521 0.0
H663 H 0.14244 0.23657 0.94088 0.0
H664 H 0.1603 0.27514 0.08518 0.0
H665 H 0.15015 0.26884 0.16819 0.0
C666 C 0.86117 0.75874 0.37732 0.0
C667 C 0.88212 0.77812 0.3502 0.0
C668 C 0.8938 0.79452 0.46442 0.0
C669 C 0.87448 0.77336 0.49152 0.0
N670 N 0.84469 0.73245 0.47215 0.0
N671 N 0.9201 0.81331 0.36902 0.0
C672 C 0.85959 0.75465 0.44746 0.0
C673 C 0.8991 0.79559 0.39421 0.0
N674 N 0.84254 0.74417 0.33679 0.0
N675 N 0.90623 0.81407 0.50421 0.0
H676 H 0.92384 0.81552 0.31754 0.0
H677 H 0.93427 0.82486 0.39952 0.0
H678 H 0.90239 0.81455 0.5549 0.0
H679 H 0.91888 0.83057 0.48534 0.0
H680 H 0.8262 0.73107 0.35567 0.0
H681 H 0.84217 0.74702 0.2855 0.0
H682 H 0.83504 0.71768 0.4414 0.0
H683 H 0.84451 0.72825 0.52274 0.0
C684 C 0.21145 0.1066 0.47545 0.0
C685 C 0.21906 0.09074 0.49953 0.0
C686 C 0.23083 0.08703 0.38553 0.0
C687 C 0.22281 0.10224 0.3599 0.0
N688 N 0.19795 0.11958 0.37887 0.0
N689 N 0.22196 0.0564 0.46702 0.0
C690 C 0.21096 0.11012 0.40443 0.0
C691 C 0.22422 0.07787 0.45128 0.0
N692 N 0.20426 0.11803 0.51883 0.0
N693 N 0.24595 0.08224 0.34984 0.0
H694 H 0.21419 0.04758 0.51195 0.0
H695 H 0.22442 0.046 0.43143 0.0
H696 H 0.25377 0.09046 0.30449 0.0
H697 H 0.25318 0.07242 0.37024 0.0
H698 H 0.20273 0.13265 0.5045 0.0
H699 H 0.19933 0.11282 0.56839 0.0
H700 H 0.18722 0.12373 0.40827 0.0
H701 H 0.19552 0.12048 0.32735 0.0
C702 C 0.89717 0.1494 0.4477 0.0
C703 C 0.9027 0.13595 0.49296 0.0
C704 C 0.90044 0.11032 0.39861 0.0
C705 C 0.89795 0.12574 0.35284 0.0
N706 N 0.89884 0.16294 0.33355 0.0
N707 N 0.9141 0.10606 0.50866 0.0
C708 C 0.89799 0.14628 0.37726 0.0
C709 C 0.90541 0.11692 0.46785 0.0
N710 N 0.88963 0.16414 0.47204 0.0
N711 N 0.89828 0.08949 0.37599 0.0
H712 H 0.91895 0.11091 0.55866 0.0
H713 H 0.91873 0.09381 0.49114 0.0
H714 H 0.89602 0.08473 0.32521 0.0
H715 H 0.89716 0.07628 0.40812 0.0
H716 H 0.88318 0.17273 0.4415 0.0
H717 H 0.88687 0.16523 0.52318 0.0
H718 H 0.90142 0.17935 0.34933 0.0
H719 H 0.89904 0.16138 0.28138 0.0
C720 C 0.91841 0.46971 0.22742 0.0
C721 C 0.89918 0.44858 0.20098 0.0
C722 C 0.87936 0.43907 0.31029 0.0
C723 C 0.89924 0.45966 0.33772 0.0
N724 N 0.94045 0.49054 0.32629 0.0
N725 N 0.86419 0.41048 0.21891 0.0
C726 C 0.91961 0.47377 0.29748 0.0
C727 C 0.88067 0.43225 0.24319 0.0
N728 N 0.93534 0.48624 0.18552 0.0
N729 N 0.85863 0.42708 0.34594 0.0
H730 H 0.86435 0.40529 0.16927 0.0
H731 H 0.85172 0.39693 0.24942 0.0
H732 H 0.85625 0.43207 0.39383 0.0
H733 H 0.84293 0.4135 0.3254 0.0
H734 H 0.94793 0.50325 0.20122 0.0
H735 H 0.93589 0.48369 0.13391 0.0
H736 H 0.95648 0.49946 0.30009 0.0
H737 H 0.94258 0.4936 0.37792 0.0
C738 C 0.56807 0.44475 0.23512 0.0
C739 C 0.54907 0.44021 0.19064 0.0
C740 C 0.52097 0.41613 0.27823 0.0
C741 C 0.5392 0.4256 0.3278 0.0
N742 N 0.58174 0.4468 0.34967 0.0
N743 N 0.50672 0.42511 0.17713 0.0
C744 C 0.5633 0.43945 0.30539 0.0
C745 C 0.52532 0.42703 0.21438 0.0
N746 N 0.59031 0.4524 0.2097 0.0
N747 N 0.50005 0.39559 0.2895 0.0
H748 H 0.50886 0.4336 0.13101 0.0
H749 H 0.48942 0.41716 0.19608 0.0
H750 H 0.49766 0.38449 0.33027 0.0
H751 H 0.4869 0.38764 0.25266 0.0
H752 H 0.60439 0.45373 0.23833 0.0
H753 H 0.59414 0.45515 0.15837 0.0
H754 H 0.59899 0.46015 0.33828 0.0
H755 H 0.58007 0.43923 0.39694 0.0
C756 C 0.57027 0.12515 0.29758 0.0
C757 C 0.56848 0.10419 0.32595 0.0
C758 C 0.55652 0.08441 0.21586 0.0
C759 C 0.55773 0.10514 0.18821 0.0
N760 N 0.5611 0.14339 0.20398 0.0
N761 N 0.55678 0.06272 0.31474 0.0
C762 C 0.56305 0.1249 0.2296 0.0
C763 C 0.56091 0.08354 0.28566 0.0
N764 N 0.5804 0.14577 0.33394 0.0
N765 N 0.5507 0.06531 0.17514 0.0
H766 H 0.55874 0.06081 0.36598 0.0
H767 H 0.54929 0.04649 0.28992 0.0
H768 H 0.54393 0.0639 0.12673 0.0
H769 H 0.55309 0.05113 0.18806 0.0
H770 H 0.58454 0.16217 0.31373 0.0
H771 H 0.58678 0.14706 0.38285 0.0
H772 H 0.56199 0.15706 0.23342 0.0
H773 H 0.55671 0.14412 0.15379 0.0
C774 C 0.77945 0.54396 0.85179 0.0
C775 C 0.79868 0.56509 0.82419 0.0
C776 C 0.80779 0.58336 0.93621 0.0
C777 C 0.78789 0.56282 0.96307 0.0
N778 N 0.75204 0.52545 0.94521 0.0
N779 N 0.82713 0.6068 0.8378 0.0
C780 C 0.77276 0.54374 0.92034 0.0
C781 C 0.81182 0.58526 0.86585 0.0
N782 N 0.76855 0.52367 0.81413 0.0
N783 N 0.82279 0.60137 0.97793 0.0
H784 H 0.82969 0.60932 0.78625 0.0
H785 H 0.83529 0.62269 0.86458 0.0
H786 H 0.81892 0.60225 0.0283 0.0
H787 H 0.83959 0.61486 0.9633 0.0
H788 H 0.75611 0.5072 0.83368 0.0
H789 H 0.77343 0.52265 0.7648 0.0
H790 H 0.7389 0.51243 0.9149 0.0
H791 H 0.74717 0.52431 0.99576 0.0
C792 C 0.41218 0.21177 0.87148 0.0
C793 C 0.4314 0.23066 0.83667 0.0
C794 C 0.45663 0.23946 0.93717 0.0
C795 C 0.4367 0.22207 0.97354 0.0
N796 N 0.39459 0.19365 0.97842 0.0
N797 N 0.4714 0.26403 0.83689 0.0
C798 C 0.41426 0.20862 0.94142 0.0
C799 C 0.45354 0.24491 0.86963 0.0
N800 N 0.39198 0.19653 0.83737 0.0
N801 N 0.47862 0.2502 0.96669 0.0
H802 H 0.47004 0.26816 0.78689 0.0
H803 H 0.48695 0.27671 0.8603 0.0
H804 H 0.48139 0.2465 0.01596 0.0
H805 H 0.49434 0.26125 0.94103 0.0
H806 H 0.37847 0.18069 0.85736 0.0
H807 H 0.38959 0.19887 0.7869 0.0
H808 H 0.37728 0.18583 0.95992 0.0
H809 H 0.39519 0.19034 0.02953 0.0
C810 C 0.75372 0.21598 0.86003 0.0
C811 C 0.77198 0.22044 0.81334 0.0
C812 C 0.79955 0.2269 0.90403 0.0
C813 C 0.78164 0.22296 0.95166 0.0
N814 N 0.74427 0.22152 0.9742 0.0
N815 N 0.81419 0.24213 0.79355 0.0
C816 C 0.75944 0.21995 0.92953 0.0
C817 C 0.79557 0.22979 0.83599 0.0
N818 N 0.73098 0.20769 0.83795 0.0
N819 N 0.81967 0.22646 0.92213 0.0
H820 H 0.81161 0.24782 0.74718 0.0
H821 H 0.8319 0.25021 0.80913 0.0
H822 H 0.82276 0.22241 0.97053 0.0
H823 H 0.83196 0.22731 0.88677 0.0
H824 H 0.71641 0.20144 0.87024 0.0
H825 H 0.72671 0.20629 0.7868 0.0
H826 H 0.72873 0.2213 0.95958 0.0
H827 H 0.7485 0.22562 0.02495 0.0
C828 C 0.45132 0.23412 0.42853 0.0
C829 C 0.43998 0.2151 0.47552 0.0
C830 C 0.43977 0.18825 0.3895 0.0
C831 C 0.44542 0.20553 0.33854 0.0
N832 N 0.45959 0.24703 0.3126 0.0
N833 N 0.41703 0.17227 0.49028 0.0
C834 C 0.45199 0.22911 0.35866 0.0
C835 C 0.43234 0.19163 0.45307 0.0
N836 N 0.46291 0.257 0.45086 0.0
N837 N 0.44264 0.16908 0.37891 0.0
H838 H 0.40882 0.1734 0.53409 0.0
H839 H 0.4101 0.15498 0.47231 0.0
H840 H 0.45137 0.16768 0.33653 0.0
H841 H 0.43982 0.1568 0.41678 0.0
H842 H 0.47355 0.27156 0.42041 0.0
H843 H 0.46399 0.26115 0.50155 0.0
H844 H 0.45994 0.26295 0.32249 0.0
H845 H 0.46636 0.24651 0.26566 0.0
C846 C 0.77951 0.23792 0.4098 0.0
C847 C 0.7819 0.22081 0.44789 0.0
C848 C 0.79393 0.208 0.34733 0.0
C849 C 0.79546 0.22762 0.31209 0.0
N850 N 0.79041 0.26197 0.3086 0.0
N851 N 0.79419 0.19125 0.45543 0.0
C852 C 0.78823 0.2427 0.34275 0.0
C853 C 0.78956 0.20605 0.41732 0.0
N854 N 0.76861 0.24924 0.43764 0.0
N855 N 0.79626 0.191 0.31375 0.0
H856 H 0.79141 0.18909 0.50721 0.0
H857 H 0.80278 0.18255 0.43655 0.0
H858 H 0.79912 0.1919 0.26222 0.0
H859 H 0.7929 0.17501 0.33542 0.0
H860 H 0.76434 0.26035 0.41062 0.0
H861 H 0.76183 0.24577 0.4866 0.0
H862 H 0.78806 0.27514 0.3309 0.0
H863 H 0.79596 0.26557 0.25855 0.0
C864 C 0.76896 0.54384 0.42127 0.0
C865 C 0.77777 0.56434 0.46214 0.0
C866 C 0.77984 0.58827 0.36415 0.0
C867 C 0.76875 0.56733 0.32426 0.0
N868 N 0.74967 0.52459 0.31668 0.0
N869 N 0.79183 0.60615 0.47449 0.0
C870 C 0.76269 0.54494 0.35307 0.0
C871 C 0.78326 0.58656 0.43403 0.0
N872 N 0.76682 0.52341 0.44754 0.0
N873 N 0.7882 0.61 0.33463 0.0
H874 H 0.79743 0.60636 0.52379 0.0
H875 H 0.79263 0.62196 0.4604 0.0
H876 H 0.78575 0.61207 0.28407 0.0
H877 H 0.7991 0.62609 0.35855 0.0
H878 H 0.76306 0.50859 0.41861 0.0
H879 H 0.7707 0.52196 0.49776 0.0
H880 H 0.74257 0.50763 0.33704 0.0
H881 H 0.7441 0.52449 0.26736 0.0
C882 C 0.52732 0.08367 0.71327 0.0
C883 C 0.54673 0.10477 0.68717 0.0
C884 C 0.5532 0.12357 0.79812 0.0
C885 C 0.53502 0.10175 0.82562 0.0
N886 N 0.50902 0.05952 0.81142 0.0
N887 N 0.58083 0.14341 0.70607 0.0
C888 C 0.52322 0.08139 0.78371 0.0
C889 C 0.56062 0.12425 0.73016 0.0
N890 N 0.51258 0.06572 0.67081 0.0
N891 N 0.56232 0.14398 0.83517 0.0
H892 H 0.58626 0.14478 0.65599 0.0
H893 H 0.5931 0.157 0.73681 0.0
H894 H 0.55669 0.14462 0.88386 0.0
H895 H 0.57378 0.16073 0.81533 0.0
H896 H 0.4965 0.05126 0.68621 0.0
H897 H 0.51538 0.06603 0.61906 0.0
H898 H 0.50216 0.04372 0.78438 0.0
H899 H 0.50623 0.05688 0.86289 0.0
C900 C 0.91105 0.45847 0.73943 0.0
C901 C 0.8925 0.44117 0.69907 0.0
C902 C 0.87538 0.41609 0.79875 0.0
C903 C 0.89308 0.43448 0.83894 0.0
N904 N 0.92091 0.47636 0.84868 0.0
N905 N 0.85393 0.4057 0.69258 0.0
C906 C 0.90867 0.45674 0.80977 0.0
C907 C 0.87364 0.42055 0.72934 0.0
N908 N 0.93175 0.47564 0.71124 0.0
N909 N 0.86043 0.39444 0.82673 0.0
H910 H 0.85188 0.4089 0.64221 0.0
H911 H 0.83877 0.39153 0.71362 0.0
H912 H 0.86023 0.39119 0.87829 0.0
H913 H 0.84904 0.37955 0.79842 0.0
H914 H 0.94645 0.48738 0.73987 0.0
H915 H 0.93535 0.47599 0.66006 0.0
H916 H 0.93157 0.49332 0.82879 0.0
H917 H 0.91724 0.47598 0.89944 0.0
C918 C 0.55434 0.43528 0.73659 0.0
C919 C 0.56367 0.45425 0.68926 0.0
C920 C 0.5877 0.4811 0.77946 0.0
C921 C 0.57406 0.46393 0.82929 0.0
N922 N 0.5447 0.42252 0.85198 0.0
N923 N 0.58582 0.49689 0.67173 0.0
C924 C 0.55741 0.44037 0.80716 0.0
C925 C 0.57939 0.47764 0.7123 0.0
N926 N 0.54396 0.41232 0.71447 0.0
N927 N 0.60946 0.50005 0.79469 0.0
H928 H 0.57893 0.49574 0.62362 0.0
H929 H 0.59584 0.51426 0.68947 0.0
H930 H 0.61802 0.50141 0.84034 0.0
H931 H 0.62045 0.51216 0.75831 0.0
H932 H 0.53891 0.39788 0.74652 0.0
H933 H 0.54294 0.40781 0.66373 0.0
H934 H 0.52938 0.40687 0.83829 0.0
H935 H 0.54953 0.42272 0.90186 0.0
C936 C 0.5676 0.77104 0.66442 0.0
C937 C 0.5598 0.7864 0.69005 0.0
C938 C 0.53717 0.78116 0.58641 0.0
C939 C 0.5493 0.77042 0.55692 0.0
N940 N 0.56188 0.74201 0.57924 0.0
N941 N 0.53344 0.80253 0.68131 0.0
C942 C 0.56018 0.76117 0.59938 0.0
C943 C 0.54313 0.79012 0.65309 0.0
N944 N 0.5831 0.7669 0.70024 0.0
N945 N 0.51904 0.78131 0.55172 0.0
H946 H 0.53556 0.80726 0.73201 0.0
H947 H 0.52363 0.80851 0.65461 0.0
H948 H 0.5131 0.77256 0.50563 0.0
H949 H 0.50828 0.78755 0.57103 0.0
H950 H 0.59162 0.75827 0.68035 0.0
H951 H 0.58861 0.77354 0.74837 0.0
H952 H 0.56825 0.73343 0.61007 0.0
H953 H 0.5535 0.73261 0.5356 0.0
C954 C 0.19597 0.76338 0.53911 0.0
C955 C 0.21969 0.77536 0.51532 0.0
C956 C 0.23348 0.77386 0.63006 0.0
C957 C 0.20927 0.76061 0.65218 0.0
N958 N 0.16956 0.73214 0.61276 0.0
N959 N 0.2608 0.78711 0.53488 0.0
C960 C 0.19104 0.75214 0.60248 0.0
C961 C 0.2385 0.77943 0.55996 0.0
N962 N 0.17798 0.76295 0.50213 0.0
N963 N 0.25175 0.78031 0.6745 0.0
H964 H 0.26489 0.79051 0.48384 0.0
H965 H 0.27477 0.78813 0.5634 0.0
H966 H 0.24972 0.77225 0.72117 0.0
H967 H 0.2692 0.79335 0.66388 0.0
H968 H 0.16071 0.75574 0.52086 0.0
H969 H 0.18086 0.77217 0.45688 0.0
H970 H 0.15639 0.72509 0.57572 0.0
H971 H 0.16659 0.72036 0.65213 0.0
C972 C 0.24057 0.46114 0.57395 0.0
C973 C 0.2203 0.44247 0.542 0.0
C974 C 0.2042 0.42508 0.65133 0.0
C975 C 0.22681 0.4397 0.67997 0.0
N976 N 0.26662 0.47306 0.67105 0.0
N977 N 0.18366 0.40447 0.55089 0.0
C978 C 0.24502 0.45839 0.6422 0.0
C979 C 0.20202 0.424 0.58069 0.0
N980 N 0.25526 0.48143 0.53922 0.0
N981 N 0.18487 0.41242 0.69137 0.0
H982 H 0.18184 0.40176 0.49906 0.0
H983 H 0.17149 0.38966 0.57831 0.0
H984 H 0.18603 0.41443 0.7433 0.0
H985 H 0.16757 0.40269 0.67269 0.0
H986 H 0.26927 0.49638 0.56155 0.0
H987 H 0.25185 0.48416 0.48958 0.0
H988 H 0.28149 0.48516 0.6437 0.0
H989 H 0.26987 0.47238 0.72225 0.0
C990 C 0.48188 0.91967 0.2043 0.0
C991 C 0.46961 0.89928 0.16267 0.0
C992 C 0.44336 0.87765 0.25803 0.0
C993 C 0.45768 0.89703 0.30088 0.0
N994 N 0.49278 0.93544 0.317 0.0
N995 N 0.44116 0.8573 0.1538 0.0
C996 C 0.47764 0.91768 0.27468 0.0
C997 C 0.45084 0.87785 0.19034 0.0
N998 N 0.49668 0.94135 0.17638 0.0
N999 N 0.42272 0.85903 0.28204 0.0
H1000 H 0.4468 0.85627 0.10544 0.0
H1001 H 0.42918 0.84075 0.17386 0.0
H1002 H 0.41721 0.85802 0.33192 0.0
H1003 H 0.41022 0.84559 0.25134 0.0
H1004 H 0.50393 0.95723 0.20317 0.0
H1005 H 0.49959 0.94385 0.12494 0.0
H1006 H 0.50917 0.94944 0.3016 0.0
H1007 H 0.48995 0.93538 0.36867 0.0
C1008 C 0.12747 0.58085 0.19425 0.0
C1009 C 0.11001 0.5632 0.15168 0.0
C1010 C 0.08893 0.53955 0.24924 0.0
C1011 C 0.10731 0.55576 0.29203 0.0
N1012 N 0.14679 0.5897 0.30362 0.0
N1013 N 0.07999 0.52214 0.13922 0.0
C1014 C 0.12747 0.57589 0.26419 0.0
C1015 C 0.09263 0.54136 0.17928 0.0
N1016 N 0.1439 0.60228 0.16796 0.0
N1017 N 0.06731 0.52337 0.27491 0.0
H1018 H 0.08461 0.52242 0.08926 0.0
H1019 H 0.06788 0.50537 0.15794 0.0
H1020 H 0.06314 0.52354 0.32543 0.0
H1021 H 0.05277 0.51234 0.24467 0.0
H1022 H 0.1553 0.61677 0.19759 0.0
H1023 H 0.14531 0.60583 0.11636 0.0
H1024 H 0.16278 0.60329 0.2845 0.0
H1025 H 0.14758 0.5862 0.35454 0.0
C1026 C 0.44593 0.56201 0.15898 0.0
C1027 C 0.42976 0.53808 0.13933 0.0
C1028 C 0.42978 0.52481 0.25395 0.0
C1029 C 0.44455 0.54852 0.27582 0.0
N1030 N 0.46238 0.59025 0.25062 0.0
N1031 N 0.39728 0.50081 0.18029 0.0
C1032 C 0.45163 0.56734 0.22863 0.0
C1033 C 0.41886 0.52069 0.19043 0.0
N1034 N 0.45537 0.57991 0.11264 0.0
N1035 N 0.42675 0.50601 0.29218 0.0
H1036 H 0.38676 0.49884 0.13835 0.0
H1037 H 0.38839 0.4884 0.21835 0.0
H1038 H 0.43621 0.50799 0.33647 0.0
H1039 H 0.41716 0.48854 0.27487 0.0
H1040 H 0.47054 0.59623 0.12202 0.0
H1041 H 0.44764 0.57901 0.0661 0.0
H1042 H 0.46572 0.60463 0.22011 0.0
H1043 H 0.46586 0.59458 0.30114 0.0
C1044 C 0.11852 0.5665 0.73771 0.0
C1045 C 0.109 0.54816 0.78708 0.0
C1046 C 0.10721 0.52005 0.70318 0.0
C1047 C 0.11231 0.53675 0.65094 0.0
N1048 N 0.12635 0.57786 0.62053 0.0
N1049 N 0.08641 0.50577 0.80772 0.0
C1050 C 0.11895 0.56058 0.66861 0.0
C1051 C 0.10091 0.52442 0.76704 0.0
N1052 N 0.12823 0.58968 0.75669 0.0
N1053 N 0.10983 0.50067 0.69376 0.0
H1054 H 0.07931 0.5079 0.85259 0.0
H1055 H 0.07903 0.48816 0.79214 0.0
H1056 H 0.11815 0.4987 0.65129 0.0
H1057 H 0.10737 0.48883 0.73261 0.0
H1058 H 0.13839 0.60402 0.72504 0.0
H1059 H 0.12717 0.59473 0.80538 0.0
H1060 H 0.12616 0.59365 0.62742 0.0
H1061 H 0.13388 0.57707 0.57509 0.0
C1062 C 0.45583 0.5766 0.74518 0.0
C1063 C 0.45467 0.55647 0.77691 0.0
C1064 C 0.4611 0.54284 0.66846 0.0
C1065 C 0.46548 0.56439 0.63824 0.0
N1066 N 0.46866 0.60286 0.64819 0.0
N1067 N 0.46116 0.52292 0.77082 0.0
C1068 C 0.46334 0.58163 0.67677 0.0
C1069 C 0.45853 0.54018 0.73913 0.0
N1070 N 0.4489 0.59034 0.77962 0.0
N1071 N 0.45903 0.52465 0.62964 0.0
H1072 H 0.46006 0.52045 0.82281 0.0
H1073 H 0.46688 0.51252 0.74612 0.0
H1074 H 0.46057 0.52607 0.57783 0.0
H1075 H 0.45335 0.50762 0.64799 0.0
H1076 H 0.44708 0.60385 0.75735 0.0
H1077 H 0.44288 0.58684 0.82931 0.0
H1078 H 0.47019 0.6172 0.67563 0.0
H1079 H 0.47289 0.60665 0.59731 0.0
C1080 C 0.44932 0.91755 0.77304 0.0
C1081 C 0.44746 0.89647 0.80014 0.0
C1082 C 0.43472 0.87689 0.69029 0.0
C1083 C 0.43712 0.89819 0.6625 0.0
N1084 N 0.45022 0.93997 0.67461 0.0
N1085 N 0.44326 0.85792 0.78326 0.0
C1086 C 0.44524 0.91881 0.70324 0.0
C1087 C 0.44179 0.87674 0.75821 0.0
N1088 N 0.4554 0.93658 0.81428 0.0
N1089 N 0.42419 0.85639 0.65347 0.0
H1090 H 0.44756 0.85694 0.83337 0.0
H1091 H 0.44208 0.84422 0.75339 0.0
H1092 H 0.41789 0.85538 0.6046 0.0
H1093 H 0.41964 0.83982 0.67329 0.0
H1094 H 0.45339 0.95101 0.80158 0.0
H1095 H 0.46194 0.93765 0.86285 0.0
H1096 H 0.45822 0.95613 0.69987 0.0
H1097 H 0.44852 0.94214 0.62339 0.0
C1098 C 0.22187 0.46401 0.13288 0.0
C1099 C 0.22525 0.44929 0.17854 0.0
C1100 C 0.23412 0.4302 0.08736 0.0
C1101 C 0.22989 0.44426 0.0406 0.0
N1102 N 0.22924 0.48061 0.02044 0.0
N1103 N 0.24698 0.42895 0.20014 0.0
C1104 C 0.2269 0.46327 0.06389 0.0
C1105 C 0.23548 0.43582 0.15623 0.0
N1106 N 0.21331 0.47818 0.15533 0.0
N1107 N 0.23524 0.41062 0.06781 0.0
H1108 H 0.2511 0.43597 0.24832 0.0
H1109 H 0.25588 0.42006 0.18527 0.0
H1110 H 0.23338 0.40472 0.01839 0.0
H1111 H 0.23575 0.39878 0.10234 0.0
H1112 H 0.20777 0.48716 0.1232 0.0
H1113 H 0.21101 0.48015 0.20651 0.0
H1114 H 0.2289 0.49575 0.03594 0.0
H1115 H 0.23414 0.4811 0.97014 0.0
C1116 C 0.57708 0.80367 0.09999 0.0
C1117 C 0.56154 0.78543 0.05503 0.0
C1118 C 0.54222 0.75872 0.15025 0.0
C1119 C 0.55824 0.77673 0.1942 0.0
N1120 N 0.58242 0.8186 0.21362 0.0
N1121 N 0.52404 0.74921 0.03964 0.0
C1122 C 0.57288 0.8 0.16996 0.0
C1123 C 0.54234 0.76404 0.08093 0.0
N1124 N 0.59669 0.82377 0.07725 0.0
N1125 N 0.52727 0.73647 0.17466 0.0
H1126 H 0.52308 0.75329 0.98928 0.0
H1127 H 0.50869 0.73429 0.05693 0.0
H1128 H 0.52558 0.73264 0.22611 0.0
H1129 H 0.51728 0.72181 0.14388 0.0
H1130 H 0.6098 0.83593 0.10948 0.0
H1131 H 0.60121 0.82754 0.02676 0.0
H1132 H 0.5921 0.83627 0.19827 0.0
H1133 H 0.57726 0.81626 0.26376 0.0
C1134 C 0.24126 0.78241 0.12775 0.0
C1135 C 0.23902 0.80159 0.154 0.0
C1136 C 0.23162 0.81094 0.03976 0.0
C1137 C 0.23143 0.79037 0.01486 0.0
N1138 N 0.23229 0.75432 0.03659 0.0
N1139 N 0.22643 0.8305 0.1363 0.0
C1140 C 0.23487 0.7753 0.05947 0.0
C1141 C 0.23268 0.81489 0.11034 0.0
N1142 N 0.25103 0.772 0.16623 0.0
N1143 N 0.23089 0.82687 0.99617 0.0
H1144 H 0.22583 0.83325 0.18777 0.0
H1145 H 0.21915 0.83867 0.10738 0.0
H1146 H 0.22913 0.8244 0.94419 0.0
H1147 H 0.23387 0.84349 0.01114 0.0
H1148 H 0.25529 0.75964 0.14735 0.0
H1149 H 0.25731 0.77743 0.215 0.0
H1150 H 0.23184 0.74136 0.06844 0.0
H1151 H 0.22886 0.74912 0.98624 0.0
C1152 C 0.17149 0.18374 0.24984 0.0
C1153 C 0.18446 0.20781 0.27059 0.0
C1154 C 0.22133 0.20767 0.24488 0.0
C1155 C 0.20849 0.18249 0.23759 0.0
N1156 N 0.17042 0.14631 0.25384 0.0
N1157 N 0.22275 0.24051 0.3052 0.0
C1158 C 0.18329 0.17038 0.24611 0.0
C1159 C 0.2097 0.21921 0.27335 0.0
N1160 N 0.1482 0.1737 0.23082 0.0
N1161 N 0.24406 0.22095 0.22137 0.0
H1162 H 0.21511 0.24881 0.33191 0.0
H1163 H 0.24108 0.24831 0.31227 0.0
H1164 H 0.2525 0.21395 0.19259 0.0
H1165 H 0.25314 0.23947 0.22207 0.0
H1166 H 0.13879 0.15664 0.21057 0.0
H1167 H 0.13935 0.18333 0.22656 0.0
H1168 H 0.15229 0.13741 0.26519 0.0
H1169 H 0.17808 0.13564 0.2582 0.0
C1170 C 0.81351 0.98559 0.22571 0.0
C1171 C 0.79711 0.97802 0.28 0.0
C1172 C 0.80779 0.01959 0.29929 0.0
C1173 C 0.8214 0.02631 0.23892 0.0
N1174 N 0.83045 0.01346 0.13423 0.0
N1175 N 0.77703 0.98778 0.366 0.0
C1176 C 0.82231 0.00867 0.19908 0.0
C1177 C 0.79352 0.99498 0.31554 0.0
N1178 N 0.82128 0.97119 0.19999 0.0
N1179 N 0.80961 0.03657 0.34332 0.0
H1180 H 0.76766 0.97032 0.38337 0.0
H1181 H 0.7717 0.99892 0.38804 0.0
H1182 H 0.8207 0.05469 0.33511 0.0
H1183 H 0.802 0.03268 0.39116 0.0
H1184 H 0.83489 0.97705 0.16441 0.0
H1185 H 0.81617 0.95439 0.21893 0.0
H1186 H 0.82942 1.00041 0.10159 0.0
H1187 H 0.8353 0.02953 0.11036 0.0
C1188 C 0.98538 0.80313 0.30463 0.0
C1189 C 0.97889 0.79465 0.23786 0.0
C1190 C 0.02101 0.81315 0.20598 0.0
C1191 C 0.02754 0.82046 0.27373 0.0
N1192 N 0.01613 0.8187 0.39029 0.0
N1193 N 0.98986 0.78786 0.12763 0.0
C1194 C 0.00977 0.81446 0.32388 0.0
C1195 C 0.99654 0.79853 0.18933 0.0
N1196 N 0.9683 0.80091 0.34913 0.0
N1197 N 0.03812 0.82111 0.157 0.0
H1198 H 0.97209 0.77718 0.11361 0.0
H1199 H 1.00179 0.78787 0.09254 0.0
H1200 H 0.05621 0.83203 0.16709 0.0
H1201 H 0.03434 0.8186 0.10571 0.0
H1202 H 0.97212 0.80928 0.39586 0.0
H1203 H 0.95019 0.79192 0.33751 0.0
H1204 H 0.00391 0.81248 0.42971 0.0
H1205 H 0.03374 0.82667 0.40664 0.0
C1206 C 0.82439 0.80174 0.80017 0.0
C1207 C 0.82107 0.79209 0.73451 0.0
C1208 C 0.79523 0.8083 0.70539 0.0
C1209 C 0.79757 0.81695 0.77221 0.0
N1210 N 0.80996 0.81746 0.88722 0.0
N1211 N 0.80034 0.78224 0.62827 0.0
C1212 C 0.81093 0.81243 0.8208 0.0
C1213 C 0.80548 0.79409 0.68829 0.0
N1214 N 0.8408 0.80117 0.84226 0.0
N1215 N 0.78433 0.8147 0.65745 0.0
H1216 H 0.80786 0.77199 0.61374 0.0
H1217 H 0.78722 0.78092 0.5954 0.0
H1218 H 0.77685 0.82532 0.66776 0.0
H1219 H 0.78437 0.81117 0.60632 0.0
H1220 H 0.84615 0.81045 0.88757 0.0
H1221 H 0.85034 0.79269 0.82982 0.0
H1222 H 0.81731 0.81236 0.92591 0.0
H1223 H 0.79984 0.82476 0.90464 0.0
C1224 C 0.20895 0.01926 0.81106 0.0
C1225 C 0.2163 0.02603 0.74355 0.0
C1226 C 0.19962 0.98427 0.71121 0.0
C1227 C 0.19292 0.97748 0.77923 0.0
N1228 N 0.19546 0.98844 0.89631 0.0
N1229 N 0.22312 0.01601 0.6322 0.0
C1230 C 0.19884 0.99498 0.82994 0.0
C1231 C 0.21312 0.00881 0.69457 0.0
N1232 N 0.21096 0.03593 0.85658 0.0
N1233 N 0.19193 0.96732 0.66195 0.0
H1234 H 0.23298 0.03386 0.61842 0.0
H1235 H 0.2235 0.00454 0.59629 0.0
H1236 H 0.18181 0.94918 0.67192 0.0
H1237 H 0.19388 0.97122 0.61068 0.0
H1238 H 0.20328 0.03178 0.9043 0.0
H1239 H 0.2192 0.054 0.84516 0.0
H1240 H 0.20156 1.00052 0.93597 0.0
H1241 H 0.18839 0.97088 0.91209 0.0
C1242 C 0.99494 0.19257 0.68331 0.0
C1243 C 0.97708 0.18661 0.73309 0.0
C1244 C 0.00787 0.20435 0.8205 0.0
C1245 C 0.02539 0.20809 0.77169 0.0
N1246 N 0.03584 0.20369 0.65831 0.0
N1247 N 0.96596 0.18421 0.85 0.0
C1248 C 0.01899 0.20163 0.70349 0.0
C1249 C 0.98338 0.19195 0.80197 0.0
N1250 N 0.98902 0.19049 0.61652 0.0
N1251 N 0.0147 0.21296 0.88437 0.0
H1252 H 0.94786 0.1753 0.83848 0.0
H1253 H 0.9693 0.18498 0.9015 0.0
H1254 H 0.03242 0.22159 0.90013 0.0
H1255 H 0.00313 0.21317 0.92031 0.0
H1256 H 1.00149 0.19682 0.57776 0.0
H1257 H 0.97169 0.1844 0.59965 0.0
H1258 H 0.03185 0.19663 0.60987 0.0
H1259 H 0.05378 0.21106 0.67073 0.0
C1260 C 0.86762 0.54091 0.64011 0.0
C1261 C 0.85316 0.54325 0.59055 0.0
C1262 C 0.86429 0.52231 0.50884 0.0
C1263 C 0.87638 0.51742 0.56067 0.0
N1264 N 0.88715 0.51942 0.67785 0.0
N1265 N 0.83548 0.53435 0.47998 0.0
C1266 C 0.87761 0.52619 0.62687 0.0
C1267 C 0.85089 0.53348 0.52543 0.0
N1268 N 0.87195 0.55294 0.69964 0.0
N1269 N 0.8664 0.51716 0.4433 0.0
H1270 H 0.82602 0.54314 0.48955 0.0
H1271 H 0.83084 0.52504 0.43469 0.0
H1272 H 0.87656 0.50956 0.42877 0.0
H1273 H 0.86002 0.52247 0.40263 0.0
H1274 H 0.88432 0.55399 0.73496 0.0
H1275 H 0.86466 0.56363 0.71128 0.0
H1276 H 0.88617 0.52305 0.72844 0.0
H1277 H 0.89434 0.50838 0.67047 0.0
C1278 C 0.45262 0.32599 0.64312 0.0
C1279 C 0.45859 0.31005 0.61112 0.0
C1280 C 0.48458 0.34165 0.53417 0.0
C1281 C 0.48184 0.35864 0.57205 0.0
N1282 N 0.46595 0.36705 0.67183 0.0
N1283 N 0.48751 0.30641 0.54284 0.0
C1284 C 0.46641 0.35087 0.62894 0.0
C1285 C 0.47678 0.31894 0.56181 0.0
N1286 N 0.43436 0.31758 0.68846 0.0
N1287 N 0.49383 0.34673 0.47054 0.0
H1288 H 0.48457 0.2911 0.56767 0.0
H1289 H 0.50187 0.31319 0.50956 0.0
H1290 H 0.49772 0.36235 0.44539 0.0
H1291 H 0.4945 0.33405 0.43987 0.0
H1292 H 0.42758 0.32793 0.70757 0.0
H1293 H 0.42511 0.2999 0.70406 0.0
H1294 H 0.45683 0.36236 0.71751 0.0
H1295 H 0.47651 0.38532 0.66533 0.0
C1296 C 0.65098 0.12606 0.63225 0.0
C1297 C 0.64411 0.12569 0.56414 0.0
C1298 C 0.68588 0.15139 0.53162 0.0
C1299 C 0.69283 0.15107 0.59912 0.0
N1300 N 0.68299 0.13519 0.71162 0.0
N1301 N 0.65504 0.13336 0.44682 0.0
C1302 C 0.67565 0.1374 0.64879 0.0
C1303 C 0.66159 0.13704 0.51317 0.0
N1304 N 0.63398 0.11668 0.68144 0.0
N1305 N 0.70242 0.16592 0.48543 0.0
H1306 H 0.63749 0.12258 0.43118 0.0
H1307 H 0.66716 0.13908 0.40716 0.0
H1308 H 0.72055 0.17594 0.4962 0.0
H1309 H 0.69805 0.16928 0.43777 0.0
H1310 H 0.63782 0.11869 0.73274 0.0
H1311 H 0.61579 0.10827 0.67121 0.0
H1312 H 0.6716 0.12358 0.74814 0.0
H1313 H 0.70089 0.14366 0.72559 0.0
C1314 C 0.46285 0.13503 0.1513 0.0
C1315 C 0.45353 0.14359 0.10075 0.0
C1316 C 0.4657 0.12512 0.01358 0.0
C1317 C 0.47776 0.11941 0.06337 0.0
N1318 N 0.48961 0.12029 0.17893 0.0
N1319 N 0.44712 0.14834 0.98356 0.0
C1320 C 0.47665 0.12452 0.13222 0.0
C1321 C 0.45498 0.13883 0.03176 0.0
N1322 N 0.45799 0.13649 0.21757 0.0
N1323 N 0.4642 0.11707 0.94914 0.0
H1324 H 0.43876 0.15806 0.99509 0.0
H1325 H 0.45019 0.14793 0.93224 0.0
H1326 H 0.47191 0.10704 0.93426 0.0
H1327 H 0.4537 0.11854 0.91192 0.0
H1328 H 0.46228 0.12859 0.25661 0.0
H1329 H 0.4476 0.14374 0.23303 0.0
H1330 H 0.49188 0.12626 0.2285 0.0
H1331 H 0.49952 0.11216 0.16707 0.0
C1332 C 0.88021 0.35026 0.12809 0.0
C1333 C 0.87957 0.35707 0.0605 0.0
C1334 C 0.85425 0.3153 0.02841 0.0
C1335 C 0.8559 0.30844 0.09516 0.0
N1336 N 0.87315 0.31857 0.20611 0.0
N1337 N 0.8698 0.34637 0.94376 0.0
C1338 C 0.86974 0.3257 0.14429 0.0
C1339 C 0.86764 0.33966 0.0099 0.0
N1340 N 0.88981 0.3672 0.17727 0.0
N1341 N 0.83938 0.29858 0.98319 0.0
H1342 H 0.87961 0.36402 0.92815 0.0
H1343 H 0.86366 0.33443 0.90377 0.0
H1344 H 0.82992 0.28049 0.99412 0.0
H1345 H 0.8351 0.3027 0.93642 0.0
H1346 H 0.88846 0.36332 0.22851 0.0
H1347 H 0.89765 0.38533 0.16733 0.0
H1348 H 0.88508 0.33013 0.24175 0.0
H1349 H 0.86536 0.30074 0.21997 0.0
C1350 C 0.68459 0.54847 0.02914 0.0
C1351 C 0.6926 0.54782 0.09532 0.0
C1352 C 0.65123 0.52244 0.1326 0.0
C1353 C 0.64327 0.52355 0.06699 0.0
N1354 N 0.65148 0.54152 0.95692 0.0
N1355 N 0.68353 0.53903 0.21344 0.0
C1356 C 0.65971 0.53789 0.01663 0.0
C1357 C 0.67589 0.53616 0.14805 0.0
N1358 N 0.70061 0.55788 0.97751 0.0
N1359 N 0.63522 0.50795 0.1798 0.0
H1360 H 0.70131 0.54968 0.22722 0.0
H1361 H 0.6721 0.53279 0.25466 0.0
H1362 H 0.61688 0.49918 0.17173 0.0
H1363 H 0.64009 0.50367 0.22545 0.0
H1364 H 0.6957 0.55652 0.92704 0.0
H1365 H 0.71892 0.56544 0.98426 0.0
H1366 H 0.66241 0.55372 0.92082 0.0
H1367 H 0.63338 0.53387 0.94605 0.0
C1368 C 0.52572 0.87276 0.85839 0.0
C1369 C 0.52695 0.88118 0.92495 0.0
C1370 C 0.55239 0.86499 0.95899 0.0
C1371 C 0.5518 0.8572 0.89184 0.0
N1372 N 0.54237 0.85795 0.77475 0.0
N1373 N 0.54505 0.88987 0.03493 0.0
C1374 C 0.53976 0.86237 0.84061 0.0
C1375 C 0.54149 0.87877 0.97405 0.0
N1376 N 0.51057 0.87405 0.81284 0.0
N1377 N 0.56212 0.85809 0.00913 0.0
H1378 H 0.53713 0.89989 0.04782 0.0
H1379 H 0.55741 0.89091 0.07027 0.0
H1380 H 0.57025 0.84797 0.00049 0.0
H1381 H 0.56055 0.86078 0.06012 0.0
H1382 H 0.5067 0.86573 0.76604 0.0
H1383 H 0.50064 0.88227 0.82352 0.0
H1384 H 0.5359 0.86328 0.73435 0.0
H1385 H 0.553 0.85087 0.76002 0.0
C1386 C 0.12615 0.65819 0.9656 0.0
C1387 C 0.13112 0.64241 0.92858 0.0
C1388 C 0.15582 0.67462 0.85136 0.0
C1389 C 0.15395 0.69125 0.89339 0.0
N1390 N 0.14032 0.69904 -0.00148 0.0
N1391 N 0.1576 0.63863 0.84989 0.0
C1392 C 0.13973 0.68312 0.95257 0.0
C1393 C 0.14807 0.65148 0.87573 0.0
N1394 N 0.10907 0.64957 0.01457 0.0
N1395 N 0.16413 0.68049 0.78689 0.0
H1396 H 0.15422 0.62245 0.86982 0.0
H1397 H 0.17133 0.64558 0.81452 0.0
H1398 H 0.16815 0.69661 0.76465 0.0
H1399 H 0.16396 0.66814 0.75304 0.0
H1400 H 0.10284 0.65982 0.03757 0.0
H1401 H 0.10014 0.63183 0.0296 0.0
H1402 H 0.13225 0.69411 0.04565 0.0
H1403 H 0.1508 0.71735 0.99262 0.0
C1404 C 0.32703 0.46144 0.82196 0.0
C1405 C 0.31036 0.45305 0.87571 0.0
C1406 C 0.34286 0.46625 0.95747 0.0
C1407 C 0.35952 0.47718 0.9045 0.0
N1408 N 0.36816 0.48641 0.78682 0.0
N1409 N 0.30197 0.44917 0.99492 0.0
C1410 C 0.35182 0.47493 0.83669 0.0
C1411 C 0.31813 0.45571 0.9436 0.0
N1412 N 0.3191 0.45606 0.757 0.0
N1413 N 0.35075 0.4656 0.02091 0.0
H1414 H 0.28367 0.44102 0.98697 0.0
H1415 H 0.30671 0.45334 0.04526 0.0
H1416 H 0.36875 0.47294 0.03251 0.0
H1417 H 0.33955 0.45596 0.06053 0.0
H1418 H 0.33026 0.45955 0.71573 0.0
H1419 H 0.30106 0.44634 0.74466 0.0
H1420 H 0.36366 0.48782 0.73738 0.0
H1421 H 0.38646 0.49574 0.79577 0.0
C1422 C 0.13519 0.48304 0.34568 0.0
C1423 C 0.12383 0.47853 0.40931 0.0
C1424 C 0.1401 0.45298 0.44075 0.0
C1425 C 0.15083 0.45681 0.37615 0.0
N1426 N 0.15455 0.47117 0.26222 0.0
N1427 N 0.11133 0.45589 0.51228 0.0
C1428 C 0.1472 0.47061 0.3271 0.0
C1429 C 0.12485 0.46229 0.45501 0.0
N1430 N 0.13489 0.49957 0.30363 0.0
N1431 N 0.14567 0.4418 0.48994 0.0
H1432 H 0.10045 0.46285 0.52523 0.0
H1433 H 0.10932 0.44225 0.54404 0.0
H1434 H 0.1571 0.43509 0.48227 0.0
H1435 H 0.14062 0.44092 0.54011 0.0
H1436 H 0.14521 0.50582 0.26022 0.0
H1437 H 0.12524 0.5081 0.31416 0.0
H1438 H 0.15043 0.47899 0.22258 0.0
H1439 H 0.16299 0.46191 0.24655 0.0
C1440 C 0.51189 0.65382 0.36801 0.0
C1441 C 0.52025 0.64354 0.41612 0.0
C1442 C 0.55315 0.68356 0.44334 0.0
C1443 C 0.54619 0.69311 0.38894 0.0
N1444 N 0.52381 0.68491 0.28545 0.0
N1445 N 0.55081 0.64866 0.49528 0.0
C1446 C 0.5271 0.67747 0.34685 0.0
C1447 C 0.54171 0.65839 0.45172 0.0
N1448 N 0.48916 0.64162 0.34422 0.0
N1449 N 0.56938 0.69825 0.48981 0.0
H1450 H 0.542 0.63071 0.50798 0.0
H1451 H 0.56781 0.65827 0.51592 0.0
H1452 H 0.57784 0.71667 0.48747 0.0
H1453 H 0.57288 0.69215 0.5345 0.0
H1454 H 0.48202 0.64927 0.31242 0.0
H1455 H 0.47652 0.62532 0.36369 0.0
H1456 H 0.5111 0.67345 0.25102 0.0
H1457 H 0.53573 0.70155 0.26557 0.0
C1458 C 0.35476 0.8794 0.35918 0.0
C1459 C 0.36156 0.87997 0.42737 0.0
C1460 C 0.31954 0.8575 0.46144 0.0
C1461 C 0.31279 0.85737 0.39351 0.0
N1462 N 0.32324 0.87202 0.27998 0.0
N1463 N 0.35096 0.87401 0.54515 0.0
C1464 C 0.33022 0.86955 0.34306 0.0
C1465 C 0.34408 0.87029 0.47906 0.0
N1466 N 0.37163 0.88719 0.30955 0.0
N1467 N 0.30253 0.84478 0.50869 0.0
H1468 H 0.36874 0.88348 0.56006 0.0
H1469 H 0.33915 0.86954 0.58525 0.0
H1470 H 0.28435 0.83632 0.49825 0.0
H1471 H 0.30635 0.84148 0.55712 0.0
H1472 H 0.36761 0.8848 0.25838 0.0
H1473 H 0.38976 0.89456 0.31943 0.0
H1474 H 0.33501 0.8827 0.24269 0.0
H1475 H 0.30541 0.86501 0.26669 0.0
C1476 C 0.32711 0.18125 0.14659 0.0
C1477 C 0.31274 0.16 0.18325 0.0
C1478 C 0.3488 0.1624 0.23228 0.0
C1479 C 0.36295 0.18174 0.18897 0.0
N1480 N 0.36578 0.20787 0.09845 0.0
N1481 N 0.30958 0.13028 0.26226 0.0
C1482 C 0.35218 0.19083 0.14477 0.0
C1483 C 0.32354 0.15054 0.22641 0.0
N1484 N 0.31699 0.19255 0.11398 0.0
N1485 N 0.35955 0.15607 0.28093 0.0
H1486 H 0.29114 0.12254 0.26526 0.0
H1487 H 0.3161 0.12063 0.2873 0.0
H1488 H 0.37798 0.16451 0.28687 0.0
H1489 H 0.35036 0.14382 0.31889 0.0
H1490 H 0.32682 0.20947 0.09327 0.0
H1491 H 0.29876 0.18621 0.11262 0.0
H1492 H 0.35864 0.21291 0.05903 0.0
H1493 H 0.38422 0.21562 0.09546 0.0
C1494 C 0.8406 0.17888 0.19154 0.0
C1495 C 0.82996 0.18127 0.13197 0.0
C1496 C 0.84124 0.15535 0.07188 0.0
C1497 C 0.84937 0.15091 0.13361 0.0
N1498 N 0.85225 0.15451 0.25474 0.0
N1499 N 0.81812 0.17053 0.01635 0.0
C1500 C 0.84769 0.1615 0.19424 0.0
C1501 C 0.82971 0.16915 0.07222 0.0
N1502 N 0.84441 0.19354 0.24512 0.0
N1503 N 0.84463 0.14646 0.01315 0.0
H1504 H 0.8104 0.18127 0.01416 0.0
H1505 H 0.81502 0.16013 0.97357 0.0
H1506 H 0.85196 0.13536 0.0117 0.0
H1507 H 0.84146 0.15111 0.96566 0.0
H1508 H 0.8541 0.19405 0.2876 0.0
H1509 H 0.84018 0.20704 0.24412 0.0
H1510 H 0.849 0.15992 0.30098 0.0
H1511 H 0.85702 0.14146 0.25905 0.0
C1512 C 0.81313 0.65904 0.18146 0.0
C1513 C 0.8224 0.64407 0.16287 0.0
C1514 C 0.86159 0.67966 0.14021 0.0
C1515 C 0.85216 0.69453 0.15805 0.0
N1516 N 0.82106 0.69808 0.21411 0.0
N1517 N 0.85442 0.64048 0.11186 0.0
C1518 C 0.82843 0.68411 0.183 0.0
C1519 C 0.84644 0.65449 0.13973 0.0
N1520 N 0.78953 0.64958 0.19678 0.0
N1521 N 0.88526 0.68936 0.12534 0.0
H1522 H 0.84466 0.62207 0.11046 0.0
H1523 H 0.87009 0.64706 0.08415 0.0
H1524 H 0.89696 0.7074 0.11924 0.0
H1525 H 0.89397 0.67958 0.12368 0.0
H1526 H 0.78109 0.65962 0.19876 0.0
H1527 H 0.77768 0.6316 0.20353 0.0
H1528 H 0.80544 0.69149 0.24206 0.0
H1529 H 0.83171 0.71634 0.21874 0.0
C1530 C 0.17026 0.35019 0.27879 0.0
C1531 C 0.18764 0.36344 0.32842 0.0
C1532 C 0.18561 0.32692 0.36974 0.0
C1533 C 0.16566 0.31333 0.32774 0.0
N1534 N 0.13858 0.31172 0.24166 0.0
N1535 N 0.20845 0.36386 0.4299 0.0
C1536 C 0.15782 0.32491 0.28214 0.0
C1537 C 0.19446 0.35167 0.37619 0.0
N1538 N 0.16643 0.36172 0.22684 0.0
N1539 N 0.19647 0.31643 0.4026 0.0
H1540 H 0.21454 0.38183 0.43834 0.0
H1541 H 0.21185 0.35558 0.4699 0.0
H1542 H 0.19127 0.29857 0.39692 0.0
H1543 H 0.21236 0.32601 0.42911 0.0
H1544 H 0.15584 0.35306 0.18527 0.0
H1545 H 0.17551 0.38016 0.22218 0.0
H1546 H 0.13014 0.31895 0.2137 0.0
H1547 H 0.13037 0.29328 0.2381 0.0
C1548 C 0.65381 0.83823 0.41006 0.0
C1549 C 0.64054 0.82477 0.35346 0.0
C1550 C 0.67692 0.84185 0.28501 0.0
C1551 C 0.69038 0.85378 0.34299 0.0
N1552 N 0.69258 0.86275 0.46142 0.0
N1553 N 0.63881 0.81262 0.23784 0.0
C1554 C 0.67906 0.852 0.40563 0.0
C1555 C 0.65193 0.82625 0.29107 0.0
N1556 N 0.64219 0.83793 0.46791 0.0
N1557 N 0.68809 0.84608 0.22389 0.0
H1558 H 0.62034 0.80191 0.23932 0.0
H1559 H 0.64614 0.81085 0.19316 0.0
H1560 H 0.70635 0.85754 0.21796 0.0
H1561 H 0.67928 0.83982 0.17822 0.0
H1562 H 0.65032 0.84937 0.50827 0.0
H1563 H 0.6239 0.82693 0.47458 0.0
H1564 H 0.68593 0.85973 0.51032 0.0
H1565 H 0.71095 0.87404 0.45935 0.0
C1566 C 0.16781 0.82074 0.27282 0.0
C1567 C 0.18281 0.82206 0.32668 0.0
C1568 C 0.16809 0.84362 0.39468 0.0
C1569 C 0.15233 0.84148 0.34152 0.0
N1570 N 0.13234 0.82112 0.23849 0.0
N1571 N 0.19231 0.82891 0.44507 0.0
C1572 C 0.15058 0.82785 0.28338 0.0
C1573 C 0.18164 0.83191 0.3894 0.0
N1574 N 0.17058 0.81358 0.21039 0.0
N1575 N 0.17001 0.85664 0.4508 0.0
H1576 H 0.20177 0.81982 0.4441 0.0
H1577 H 0.18984 0.83329 0.49369 0.0
H1578 H 0.15878 0.86343 0.46065 0.0
H1579 H 0.18346 0.86158 0.48645 0.0
H1580 H 0.16233 0.81524 0.16732 0.0
H1581 H 0.18282 0.80805 0.20013 0.0
H1582 H 0.12903 0.80906 0.19971 0.0
H1583 H 0.11892 0.82531 0.24318 0.0
C1584 C 0.6854 0.84226 0.91702 0.0
C1585 C 0.69725 0.84111 0.85795 0.0
C1586 C 0.65924 0.82193 0.79707 0.0
C1587 C 0.6473 0.82203 0.85658 0.0
N1588 N 0.64794 0.82799 0.97642 0.0
N1589 N 0.69384 0.823 0.74867 0.0
C1590 C 0.66009 0.83109 0.91755 0.0
C1591 C 0.68373 0.82885 0.80006 0.0
N1592 N 0.69834 0.85366 0.97306 0.0
N1593 N 0.64729 0.81583 0.73703 0.0
H1594 H 0.71126 0.82635 0.74949 0.0
H1595 H 0.68411 0.81216 0.70856 0.0
H1596 H 0.62937 0.81089 0.73279 0.0
H1597 H 0.65568 0.81797 0.69071 0.0
H1598 H 0.69129 0.85794 0.01429 0.0
H1599 H 0.71648 0.85955 0.97767 0.0
H1600 H 0.65589 0.83189 0.02378 0.0
H1601 H 0.62944 0.81969 0.9784 0.0
C1602 C 0.17902 0.82436 0.87704 0.0
C1603 C 0.1842 0.81868 0.81235 0.0
C1604 C 0.17137 0.84463 0.75925 0.0
C1605 C 0.16709 0.85083 0.82419 0.0
N1606 N 0.17288 0.85202 0.94393 0.0
N1607 N 0.18713 0.82435 0.69193 0.0
C1608 C 0.17262 0.84221 0.88285 0.0
C1609 C 0.18097 0.82918 0.75337 0.0
N1610 N 0.18003 0.81262 0.93304 0.0
N1611 N 0.16596 0.85336 0.70346 0.0
H1612 H 0.19256 0.81184 0.68535 0.0
H1613 H 0.1877 0.83319 0.64766 0.0
H1614 H 0.16093 0.86628 0.70637 0.0
H1615 H 0.16579 0.84753 0.65458 0.0
H1616 H 0.17387 0.81413 0.98018 0.0
H1617 H 0.18531 0.7999 0.93197 0.0
H1618 H 0.17889 0.84817 0.98821 0.0
H1619 H 0.16972 0.86618 0.9488 0.0
C1620 C 0.17771 0.34253 0.90708 0.0
C1621 C 0.18126 0.35522 0.84599 0.0
C1622 C 0.15546 0.3181 0.7855 0.0
C1623 C 0.15163 0.30545 0.84696 0.0
N1624 N 0.15565 0.30515 0.96744 0.0
N1625 N 0.17458 0.35609 0.72703 0.0
C1626 C 0.16195 0.31754 0.90809 0.0
C1627 C 0.1704 0.34324 0.78512 0.0
N1628 N 0.18955 0.35447 0.96392 0.0
N1629 N 0.14518 0.30592 0.72744 0.0
H1630 H 0.1873 0.37406 0.72394 0.0
H1631 H 0.16569 0.34938 0.68176 0.0
H1632 H 0.13296 0.28779 0.72651 0.0
H1633 H 0.14874 0.31334 0.67952 0.0
H1634 H 0.18988 0.34627 0.00862 0.0
H1635 H 0.20038 0.37286 0.96538 0.0
H1636 H 0.16074 0.31289 0.01481 0.0
H1637 H 0.14357 0.28698 0.96985 0.0
C1638 C 0.82424 0.67914 0.632 0.0
C1639 C 0.84856 0.69363 0.65038 0.0
C1640 C 0.85069 0.6577 0.67895 0.0
C1641 C 0.82632 0.64321 0.66085 0.0
N1642 N 0.79167 0.64009 0.60484 0.0
N1643 N 0.88329 0.69676 0.70586 0.0
C1644 C 0.8135 0.65393 0.63397 0.0
C1645 C 0.86142 0.68291 0.67695 0.0
N1646 N 0.81099 0.68933 0.61384 0.0
N1647 N 0.864 0.64757 0.69693 0.0
H1648 H 0.89213 0.71521 0.7069 0.0
H1649 H 0.89193 0.69008 0.73517 0.0
H1650 H 0.85705 0.62955 0.70563 0.0
H1651 H 0.88251 0.6569 0.69899 0.0
H1652 H 0.79248 0.68003 0.6114 0.0
H1653 H 0.81802 0.70738 0.60536 0.0
H1654 H 0.78301 0.64678 0.57568 0.0
H1655 H 0.78292 0.62164 0.60327 0.0
C1656 C 0.31649 0.15008 0.59844 0.0
C1657 C 0.30199 0.15478 0.64199 0.0
C1658 C 0.33763 0.18817 0.69243 0.0
C1659 C 0.35211 0.18373 0.64796 0.0
N1660 N 0.35535 0.16483 0.54739 0.0
N1661 N 0.29833 0.18121 0.72054 0.0
C1662 C 0.34152 0.1659 0.59767 0.0
C1663 C 0.31243 0.17483 0.68556 0.0
N1664 N 0.30634 0.13047 0.55789 0.0
N1665 N 0.34781 0.20417 0.74374 0.0
H1666 H 0.27981 0.17139 0.7203 0.0
H1667 H 0.30493 0.19723 0.74626 0.0
H1668 H 0.36611 0.21493 0.74967 0.0
H1669 H 0.33816 0.2057 0.78338 0.0
H1670 H 0.31612 0.12444 0.53124 0.0
H1671 H 0.28798 0.11937 0.5536 0.0
H1672 H 0.34856 0.15374 0.50565 0.0
H1673 H 0.37354 0.17687 0.54376 0.0
C1674 C 0.8585 0.18655 0.62312 0.0
C1675 C 0.85224 0.16634 0.66388 0.0
C1676 C 0.8188 0.16958 0.71077 0.0
C1677 C 0.82293 0.18723 0.6621 0.0
N1678 N 0.8443 0.20946 0.56338 0.0
N1679 N 0.82636 0.13837 0.74758 0.0
C1680 C 0.84216 0.19493 0.61602 0.0
C1681 C 0.83227 0.15772 0.70785 0.0
N1682 N 0.88022 0.1982 0.59237 0.0
N1683 N 0.80291 0.16503 0.76178 0.0
H1684 H 0.83712 0.13074 0.75227 0.0
H1685 H 0.81038 0.12934 0.77389 0.0
H1686 H 0.79313 0.17372 0.76636 0.0
H1687 H 0.80093 0.15424 0.80292 0.0
H1688 H 0.88639 0.21428 0.5671 0.0
H1689 H 0.89324 0.19349 0.59885 0.0
H1690 H 0.85637 0.21338 0.52413 0.0
H1691 H 0.83245 0.21563 0.55494 0.0
C1692 C 0.01375 0.50835 0.55865 0.0
C1693 C 0.02527 0.50494 0.50263 0.0
C1694 C 0.98646 0.48212 0.44592 0.0
C1695 C 0.97532 0.48746 0.49971 0.0
N1696 N 0.97991 0.51047 0.60037 0.0
N1697 N 0.02261 0.48916 0.39058 0.0
C1698 C 0.9894 0.50207 0.55387 0.0
C1699 C 0.01161 0.49178 0.44592 0.0
N1700 N 0.02585 0.51658 0.61801 0.0
N1701 N 0.97299 0.46774 0.39425 0.0
H1702 H 0.04015 0.49294 0.39033 0.0
H1703 H 0.01455 0.48383 0.34357 0.0
H1704 H 0.95526 0.46286 0.38632 0.0
H1705 H 0.97911 0.45987 0.36006 0.0
H1706 H 0.01776 0.51702 0.66291 0.0
H1707 H 0.04336 0.52031 0.62437 0.0
H1708 H 0.99011 0.52311 0.63651 0.0
H1709 H 0.96248 0.50705 0.59887 0.0
C1710 C 0.49548 0.50192 0.40273 0.0
C1711 C 0.49789 0.51657 0.45862 0.0
C1712 C 0.52156 0.50244 0.51859 0.0
C1713 C 0.51728 0.48624 0.46529 0.0
N1714 N 0.49903 0.46889 0.35896 0.0
N1715 N 0.51137 0.5297 0.57213 0.0
C1716 C 0.50393 0.48552 0.40786 0.0
C1717 C 0.51065 0.51675 0.51698 0.0
N1718 N 0.4857 0.50426 0.34418 0.0
N1719 N 0.53625 0.50428 0.57056 0.0
H1720 H 0.50457 0.54122 0.57223 0.0
H1721 H 0.51749 0.52812 0.61925 0.0
H1722 H 0.5434 0.49312 0.57567 0.0
H1723 H 0.54254 0.51768 0.60659 0.0
H1724 H 0.48525 0.49575 0.29939 0.0
H1725 H 0.47976 0.51643 0.33872 0.0
H1726 H 0.48738 0.46569 0.3191 0.0
H1727 H 0.50551 0.45707 0.36046 0.0
C1728 C 0.51732 0.01444 0.55058 0.0
C1729 C 0.51693 0.02633 0.49073 0.0
C1730 C 0.48961 0.98788 0.43753 0.0
C1731 C 0.48995 0.97599 0.49741 0.0
N1732 N 0.50213 0.97756 0.61315 0.0
N1733 N 0.50493 0.02472 0.37477 0.0
C1734 C 0.50354 0.98917 0.55422 0.0
C1735 C 0.50344 0.01314 0.43382 0.0
N1736 N 0.53093 0.02738 0.60414 0.0
N1737 N 0.47591 0.97498 0.38406 0.0
H1738 H 0.51419 0.04311 0.36988 0.0
H1739 H 0.49829 0.01637 0.3288 0.0
H1740 H 0.46758 0.95655 0.38119 0.0
H1741 H 0.47189 0.98224 0.34288 0.0
H1742 H 0.53492 0.02016 0.64547 0.0
H1743 H 0.53917 0.0458 0.60703 0.0
H1744 H 0.50891 0.98588 0.65907 0.0
H1745 H 0.49287 0.95917 0.61798 0.0
C1746 C 0.48815 0.00999 0.97253 0.0
C1747 C 0.51252 0.02547 0.98868 0.0
C1748 C 0.51703 0.99086 0.0163 0.0
C1749 C 0.49263 0.97538 0.00041 0.0
N1750 N 0.45655 0.97018 0.94814 0.0
N1751 N 0.54854 0.03065 0.04124 0.0
C1752 C 0.47853 0.98494 0.97522 0.0
C1753 C 0.52661 0.0159 0.01391 0.0
N1754 N 0.47375 0.01902 0.95574 0.0
N1755 N 0.53151 0.98186 0.03247 0.0
H1756 H 0.55661 0.04905 0.04214 0.0
H1757 H 0.55805 0.0247 0.06965 0.0
H1758 H 0.52554 0.96404 0.04177 0.0
H1759 H 0.55001 0.99198 0.03243 0.0
H1760 H 0.45525 0.00898 0.95574 0.0
H1761 H 0.47981 0.03682 0.94574 0.0
H1762 H 0.44701 0.97609 0.9198 0.0
H1763 H 0.44847 0.95178 0.94736 0.0
C1764 C 0.99199 0.49262 0.05297 0.0
C1765 C 0.97865 0.48384 0.99281 0.0
C1766 C 0.01525 0.50464 0.92582 0.0
C1767 C 0.0282 0.51508 0.98581 0.0
N1768 N 0.02883 0.52213 0.10513 0.0
N1769 N 0.97668 0.48193 0.87165 0.0
C1770 C 0.01651 0.51002 0.04905 0.0
C1771 C 0.99005 0.48997 0.92903 0.0
N1772 N 0.98134 0.48366 0.11371 0.0
N1773 N 0.02716 0.5084 0.86614 0.0
H1774 H 0.95849 0.4697 0.87246 0.0
H1775 H 0.9833 0.48796 0.82351 0.0
H1776 H 0.04543 0.52001 0.86149 0.0
H1777 H 0.01928 0.49926 0.82189 0.0
H1778 H 0.99049 0.48774 0.15928 0.0
H1779 H 0.96364 0.47017 0.11778 0.0
H1780 H 0.02087 0.52087 0.15165 0.0
H1781 H 0.04676 0.53518 0.10373 0.0
C1782 C 0.51619 0.50449 0.93088 0.0
C1783 C 0.51597 0.491 0.98732 0.0
C1784 C 0.48654 0.49834 0.04369 0.0
C1785 C 0.48774 0.51289 0.98887 0.0
N1786 N 0.50645 0.53329 0.88561 0.0
N1787 N 0.50483 0.47877 0.1025 0.0
C1788 C 0.5034 0.517 0.93397 0.0
C1789 C 0.50222 0.48895 0.04524 0.0
N1790 N 0.5282 0.50488 0.87384 0.0
N1791 N 0.47027 0.49334 0.09391 0.0
H1792 H 0.51653 0.47218 0.10561 0.0
H1793 H 0.49715 0.47874 0.14855 0.0
H1794 H 0.45909 0.50059 0.09553 0.0
H1795 H 0.46668 0.48082 0.1315 0.0
H1796 H 0.5269 0.5121 0.8283 0.0
H1797 H 0.53834 0.49651 0.87061 0.0
H1798 H 0.51939 0.53896 0.84819 0.0
H1799 H 0.49721 0.54261 0.88573 0.0
loop_
_geom_bond_atom_site_label_1
_geom_bond_atom_site_label_2
_geom_bond_distance
_geom_bond_site_symmetry_2
_ccdc_geom_bond_type
Co0 O1 2.216 . S
Co0 O2 2.091 . S
Co0 O4 2.004 . S
Co0 O10 2.021 . S
Co0 O12 2.137 . S
Co0 O13 2.244 . S
O1 Co0 2.216 . S
O1 C8 1.247 . S
O2 Co0 2.091 . S
O2 C8 1.261 . S
C3 O12 1.247 . S
C3 O13 1.272 . S
O4 Co0 2.004 . S
O4 C9 1.259 . S
Co5 O6 2.061 . S
Co5 O11 2.052 . S
Co5 O13 2.135 . S
O6 Co5 2.061 . S
O6 C9 1.235 . S
C7 O10 1.238 . S
C7 O11 1.241 . S
C8 O1 1.247 . S
C8 O2 1.261 . S
C9 O4 1.259 . S
C9 O6 1.235 . S
O10 Co0 2.021 . S
O10 C7 1.238 . S
O11 Co5 2.052 . S
O11 C7 1.241 . S
O12 Co0 2.137 . S
O12 C3 1.247 . S
O13 Co0 2.244 . S
O13 C3 1.272 . S
O13 Co5 2.135 . S
Co14 O15 2.216 . S
Co14 O16 2.091 . S
Co14 O18 2.004 . S
Co14 O24 2.021 . S
Co14 O26 2.137 . S
Co14 O27 2.244 . S
O15 Co14 2.216 . S
O15 C22 1.247 . S
O16 Co14 2.091 . S
O16 C22 1.261 . S
C17 O26 1.247 . S
C17 O27 1.272 . S
O18 Co14 2.004 . S
O18 C23 1.259 . S
Co19 O20 2.061 . S
Co19 O25 2.052 . S
Co19 O27 2.135 . S
O20 Co19 2.061 . S
O20 C23 1.235 . S
C21 O24 1.238 . S
C21 O25 1.241 . S
C22 O15 1.247 . S
C22 O16 1.261 . S
C23 O18 1.259 . S
C23 O20 1.235 . S
O24 Co14 2.021 . S
O24 C21 1.238 . S
O25 Co19 2.052 . S
O25 C21 1.241 . S
O26 Co14 2.137 . S
O26 C17 1.247 . S
O27 Co14 2.244 . S
O27 C17 1.272 . S
O27 Co19 2.135 . S
Co28 O29 2.216 . S
Co28 O30 2.091 . S
Co28 O32 2.004 . S
Co28 O38 2.021 . S
Co28 O40 2.137 . S
Co28 O41 2.244 . S
O29 Co28 2.216 . S
O29 C36 1.247 . S
O30 Co28 2.091 . S
O30 C36 1.261 . S
C31 O40 1.247 . S
C31 O41 1.272 . S
O32 Co28 2.004 . S
O32 C37 1.259 . S
Co33 O34 2.061 . S
Co33 O39 2.052 . S
Co33 O41 2.135 . S
O34 Co33 2.061 . S
O34 C37 1.235 . S
C35 O38 1.238 . S
C35 O39 1.241 . S
C36 O29 1.247 . S
C36 O30 1.261 . S
C37 O32 1.259 . S
C37 O34 1.235 . S
O38 Co28 2.021 . S
O38 C35 1.238 . S
O39 Co33 2.052 . S
O39 C35 1.241 . S
O40 Co28 2.137 . S
O40 C31 1.247 . S
O41 Co28 2.244 . S
O41 C31 1.272 . S
O41 Co33 2.135 . S
Co42 O43 2.216 . S
Co42 O44 2.091 . S
Co42 O46 2.004 . S
Co42 O52 2.021 . S
Co42 O54 2.137 . S
Co42 O55 2.244 . S
O43 Co42 2.216 . S
O43 C50 1.247 . S
O44 Co42 2.091 . S
O44 C50 1.261 . S
C45 O54 1.247 . S
C45 O55 1.272 . S
O46 Co42 2.004 . S
O46 C51 1.259 . S
Co47 O48 2.061 . S
Co47 O53 2.052 . S
Co47 O55 2.135 . S
O48 Co47 2.061 . S
O48 C51 1.235 . S
C49 O52 1.238 . S
C49 O53 1.241 . S
C50 O43 1.247 . S
C50 O44 1.261 . S
C51 O46 1.259 . S
C51 O48 1.235 . S
O52 Co42 2.021 . S
O52 C49 1.238 . S
O53 Co47 2.052 . S
O53 C49 1.241 . S
O54 Co42 2.137 . S
O54 C45 1.247 . S
O55 Co42 2.244 . S
O55 C45 1.272 . S
O55 Co47 2.135 . S
Co56 O57 2.216 . S
Co56 O58 2.091 . S
Co56 O60 2.004 . S
Co56 O66 2.021 . S
Co56 O68 2.137 . S
Co56 O69 2.244 . S
O57 Co56 2.216 . S
O57 C64 1.247 . S
O58 Co56 2.091 . S
O58 C64 1.261 . S
C59 O68 1.247 . S
C59 O69 1.272 . S
O60 Co56 2.004 . S
O60 C65 1.259 . S
Co61 O62 2.061 . S
Co61 O67 2.052 . S
Co61 O69 2.135 . S
O62 Co61 2.061 . S
O62 C65 1.235 . S
C63 O66 1.238 . S
C63 O67 1.241 . S
C64 O57 1.247 . S
C64 O58 1.261 . S
C65 O60 1.259 . S
C65 O62 1.235 . S
O66 Co56 2.021 . S
O66 C63 1.238 . S
O67 Co61 2.052 . S
O67 C63 1.241 . S
O68 Co56 2.137 . S
O68 C59 1.247 . S
O69 Co56 2.244 . S
O69 C59 1.272 . S
O69 Co61 2.135 . S
Co70 O71 2.216 . S
Co70 O72 2.091 . S
Co70 O74 2.004 . S
Co70 O80 2.021 . S
Co70 O82 2.137 . S
Co70 O83 2.244 . S
O71 Co70 2.216 . S
O71 C78 1.247 . S
O72 Co70 2.091 . S
O72 C78 1.261 . S
C73 O82 1.247 . S
C73 O83 1.272 . S
O74 Co70 2.004 . S
O74 C79 1.259 . S
Co75 O76 2.061 . S
Co75 O81 2.052 . S
Co75 O83 2.135 . S
O76 Co75 2.061 . S
O76 C79 1.235 . S
C77 O80 1.238 . S
C77 O81 1.241 . S
C78 O71 1.247 . S
C78 O72 1.261 . S
C79 O74 1.259 . S
C79 O76 1.235 . S
O80 Co70 2.021 . S
O80 C77 1.238 . S
O81 Co75 2.052 . S
O81 C77 1.241 . S
O82 Co70 2.137 . S
O82 C73 1.247 . S
O83 Co70 2.244 . S
O83 C73 1.272 . S
O83 Co75 2.135 . S
Co84 O85 2.216 . S
Co84 O86 2.091 . S
Co84 O88 2.004 . S
Co84 O94 2.021 . S
Co84 O96 2.137 . S
Co84 O97 2.244 . S
O85 Co84 2.216 . S
O85 C92 1.247 . S
O86 Co84 2.091 . S
O86 C92 1.261 . S
C87 O96 1.247 . S
C87 O97 1.272 . S
O88 Co84 2.004 . S
O88 C93 1.259 . S
Co89 O90 2.061 . S
Co89 O95 2.052 . S
Co89 O97 2.135 . S
O90 Co89 2.061 . S
O90 C93 1.235 . S
C91 O94 1.238 . S
C91 O95 1.241 . S
C92 O85 1.247 . S
C92 O86 1.261 . S
C93 O88 1.259 . S
C93 O90 1.235 . S
O94 Co84 2.021 . S
O94 C91 1.238 . S
O95 Co89 2.052 . S
O95 C91 1.241 . S
O96 Co84 2.137 . S
O96 C87 1.247 . S
O97 Co84 2.244 . S
O97 C87 1.272 . S
O97 Co89 2.135 . S
Co98 O99 2.216 . S
Co98 O100 2.091 . S
Co98 O102 2.004 . S
Co98 O108 2.021 . S
Co98 O110 2.137 . S
Co98 O111 2.244 . S
O99 Co98 2.216 . S
O99 C106 1.247 . S
O100 Co98 2.091 . S
O100 C106 1.261 . S
C101 O110 1.247 . S
C101 O111 1.272 . S
O102 Co98 2.004 . S
O102 C107 1.259 . S
Co103 O104 2.061 . S
Co103 O109 2.052 . S
Co103 O111 2.135 . S
O104 Co103 2.061 . S
O104 C107 1.235 . S
C105 O108 1.238 . S
C105 O109 1.241 . S
C106 O99 1.247 . S
C106 O100 1.261 . S
C107 O102 1.259 . S
C107 O104 1.235 . S
O108 Co98 2.021 . S
O108 C105 1.238 . S
O109 Co103 2.052 . S
O109 C105 1.241 . S
O110 Co98 2.137 . S
O110 C101 1.247 . S
O111 Co98 2.244 . S
O111 C101 1.272 . S
O111 Co103 2.135 . S
Co112 O113 2.216 . S
Co112 O114 2.091 . S
Co112 O116 2.004 . S
Co112 O122 2.021 . S
Co112 O124 2.137 . S
Co112 O125 2.244 . S
O113 Co112 2.216 . S
O113 C120 1.247 . S
O114 Co112 2.091 . S
O114 C120 1.261 . S
C115 O124 1.247 . S
C115 O125 1.272 . S
O116 Co112 2.004 . S
O116 C121 1.259 . S
Co117 O118 2.061 . S
Co117 O123 2.052 . S
Co117 O125 2.135 . S
O118 Co117 2.061 . S
O118 C121 1.235 . S
C119 O122 1.238 . S
C119 O123 1.241 . S
C120 O113 1.247 . S
C120 O114 1.261 . S
C121 O116 1.259 . S
C121 O118 1.235 . S
O122 Co112 2.021 . S
O122 C119 1.238 . S
O123 Co117 2.052 . S
O123 C119 1.241 . S
O124 Co112 2.137 . S
O124 C115 1.247 . S
O125 Co112 2.244 . S
O125 C115 1.272 . S
O125 Co117 2.135 . S
Co126 O127 2.216 . S
Co126 O128 2.091 . S
Co126 O130 2.004 . S
Co126 O136 2.021 . S
Co126 O138 2.137 . S
Co126 O139 2.244 . S
O127 Co126 2.216 . S
O127 C134 1.247 . S
O128 Co126 2.091 . S
O128 C134 1.261 . S
C129 O138 1.247 . S
C129 O139 1.272 . S
O130 Co126 2.004 . S
O130 C135 1.259 . S
Co131 O132 2.061 . S
Co131 O137 2.052 . S
Co131 O139 2.135 . S
O132 Co131 2.061 . S
O132 C135 1.235 . S
C133 O136 1.238 . S
C133 O137 1.241 . S
C134 O127 1.247 . S
C134 O128 1.261 . S
C135 O130 1.259 . S
C135 O132 1.235 . S
O136 Co126 2.021 . S
O136 C133 1.238 . S
O137 Co131 2.052 . S
O137 C133 1.241 . S
O138 Co126 2.137 . S
O138 C129 1.247 . S
O139 Co126 2.244 . S
O139 C129 1.272 . S
O139 Co131 2.135 . S
Co140 O141 2.216 . S
Co140 O142 2.091 . S
Co140 O144 2.004 . S
Co140 O150 2.021 . S
Co140 O152 2.137 . S
Co140 O153 2.244 . S
O141 Co140 2.216 . S
O141 C148 1.247 . S
O142 Co140 2.091 . S
O142 C148 1.261 . S
C143 O152 1.247 . S
C143 O153 1.272 . S
O144 Co140 2.004 . S
O144 C149 1.259 . S
Co145 O146 2.061 . S
Co145 O151 2.052 . S
Co145 O153 2.135 . S
O146 Co145 2.061 . S
O146 C149 1.235 . S
C147 O150 1.238 . S
C147 O151 1.241 . S
C148 O141 1.247 . S
C148 O142 1.261 . S
C149 O144 1.259 . S
C149 O146 1.235 . S
O150 Co140 2.021 . S
O150 C147 1.238 . S
O151 Co145 2.052 . S
O151 C147 1.241 . S
O152 Co140 2.137 . S
O152 C143 1.247 . S
O153 Co140 2.244 . S
O153 C143 1.272 . S
O153 Co145 2.135 . S
Co154 O155 2.216 . S
Co154 O156 2.091 . S
Co154 O158 2.004 . S
Co154 O164 2.021 . S
Co154 O166 2.137 . S
Co154 O167 2.244 . S
O155 Co154 2.216 . S
O155 C162 1.247 . S
O156 Co154 2.091 . S
O156 C162 1.261 . S
C157 O166 1.247 . S
C157 O167 1.272 . S
O158 Co154 2.004 . S
O158 C163 1.259 . S
Co159 O160 2.061 . S
Co159 O165 2.052 . S
Co159 O167 2.135 . S
O160 Co159 2.061 . S
O160 C163 1.235 . S
C161 O164 1.238 . S
C161 O165 1.241 . S
C162 O155 1.247 . S
C162 O156 1.261 . S
C163 O158 1.259 . S
C163 O160 1.235 . S
O164 Co154 2.021 . S
O164 C161 1.238 . S
O165 Co159 2.052 . S
O165 C161 1.241 . S
O166 Co154 2.137 . S
O166 C157 1.247 . S
O167 Co154 2.244 . S
O167 C157 1.272 . S
O167 Co159 2.135 . S
Co168 O169 2.216 . S
Co168 O170 2.091 . S
Co168 O172 2.004 . S
Co168 O178 2.021 . S
Co168 O180 2.137 . S
Co168 O181 2.244 . S
O169 Co168 2.216 . S
O169 C176 1.247 . S
O170 Co168 2.091 . S
O170 C176 1.261 . S
C171 O180 1.247 . S
C171 O181 1.272 . S
O172 Co168 2.004 . S
O172 C177 1.259 . S
Co173 O174 2.061 . S
Co173 O179 2.052 . S
Co173 O181 2.135 . S
O174 Co173 2.061 . S
O174 C177 1.235 . S
C175 O178 1.238 . S
C175 O179 1.241 . S
C176 O169 1.247 . S
C176 O170 1.261 . S
C177 O172 1.259 . S
C177 O174 1.235 . S
O178 Co168 2.021 . S
O178 C175 1.238 . S
O179 Co173 2.052 . S
O179 C175 1.241 . S
O180 Co168 2.137 . S
O180 C171 1.247 . S
O181 Co168 2.244 . S
O181 C171 1.272 . S
O181 Co173 2.135 . S
Co182 O183 2.216 . S
Co182 O184 2.091 . S
Co182 O186 2.004 . S
Co182 O192 2.021 . S
Co182 O194 2.137 . S
Co182 O195 2.244 . S
O183 Co182 2.216 . S
O183 C190 1.247 . S
O184 Co182 2.091 . S
O184 C190 1.261 . S
C185 O194 1.247 . S
C185 O195 1.272 . S
O186 Co182 2.004 . S
O186 C191 1.259 . S
Co187 O188 2.061 . S
Co187 O193 2.052 . S
Co187 O195 2.135 . S
O188 Co187 2.061 . S
O188 C191 1.235 . S
C189 O192 1.238 . S
C189 O193 1.241 . S
C190 O183 1.247 . S
C190 O184 1.261 . S
C191 O186 1.259 . S
C191 O188 1.235 . S
O192 Co182 2.021 . S
O192 C189 1.238 . S
O193 Co187 2.052 . S
O193 C189 1.241 . S
O194 Co182 2.137 . S
O194 C185 1.247 . S
O195 Co182 2.244 . S
O195 C185 1.272 . S
O195 Co187 2.135 . S
Co196 O197 2.216 . S
Co196 O198 2.091 . S
Co196 O200 2.004 . S
Co196 O206 2.021 . S
Co196 O208 2.137 . S
Co196 O209 2.244 . S
O197 Co196 2.216 . S
O197 C204 1.247 . S
O198 Co196 2.091 . S
O198 C204 1.261 . S
C199 O208 1.247 . S
C199 O209 1.272 . S
O200 Co196 2.004 . S
O200 C205 1.259 . S
Co201 O202 2.061 . S
Co201 O207 2.052 . S
Co201 O209 2.135 . S
O202 Co201 2.061 . S
O202 C205 1.235 . S
C203 O206 1.238 . S
C203 O207 1.241 . S
C204 O197 1.247 . S
C204 O198 1.261 . S
C205 O200 1.259 . S
C205 O202 1.235 . S
O206 Co196 2.021 . S
O206 C203 1.238 . S
O207 Co201 2.052 . S
O207 C203 1.241 . S
O208 Co196 2.137 . S
O208 C199 1.247 . S
O209 Co196 2.244 . S
O209 C199 1.272 . S
O209 Co201 2.135 . S
Co210 O211 2.216 . S
Co210 O212 2.091 . S
Co210 O214 2.004 . S
Co210 O220 2.021 . S
Co210 O222 2.137 . S
Co210 O223 2.244 . S
O211 Co210 2.216 . S
O211 C218 1.247 . S
O212 Co210 2.091 . S
O212 C218 1.261 . S
C213 O222 1.247 . S
C213 O223 1.272 . S
O214 Co210 2.004 . S
O214 C219 1.259 . S
Co215 O216 2.061 . S
Co215 O221 2.052 . S
Co215 O223 2.135 . S
O216 Co215 2.061 . S
O216 C219 1.235 . S
C217 O220 1.238 . S
C217 O221 1.241 . S
C218 O211 1.247 . S
C218 O212 1.261 . S
C219 O214 1.259 . S
C219 O216 1.235 . S
O220 Co210 2.021 . S
O220 C217 1.238 . S
O221 Co215 2.052 . S
O221 C217 1.241 . S
O222 Co210 2.137 . S
O222 C213 1.247 . S
O223 Co210 2.244 . S
O223 C213 1.272 . S
O223 Co215 2.135 . S
Co224 O225 2.216 . S
Co224 O226 2.091 . S
Co224 O228 2.004 . S
Co224 O234 2.021 . S
Co224 O236 2.137 . S
Co224 O237 2.244 . S
O225 Co224 2.216 . S
O225 C232 1.247 . S
O226 Co224 2.091 . S
O226 C232 1.261 . S
C227 O236 1.247 . S
C227 O237 1.272 . S
O228 Co224 2.004 . S
O228 C233 1.259 . S
Co229 O230 2.061 . S
Co229 O235 2.052 . S
Co229 O237 2.135 . S
O230 Co229 2.061 . S
O230 C233 1.235 . S
C231 O234 1.238 . S
C231 O235 1.241 . S
C232 O225 1.247 . S
C232 O226 1.261 . S
C233 O228 1.259 . S
C233 O230 1.235 . S
O234 Co224 2.021 . S
O234 C231 1.238 . S
O235 Co229 2.052 . S
O235 C231 1.241 . S
O236 Co224 2.137 . S
O236 C227 1.247 . S
O237 Co224 2.244 . S
O237 C227 1.272 . S
O237 Co229 2.135 . S
Co238 O239 2.216 . S
Co238 O240 2.091 . S
Co238 O242 2.004 . S
Co238 O248 2.021 . S
Co238 O250 2.137 . S
Co238 O251 2.244 . S
O239 Co238 2.216 . S
O239 C246 1.247 . S
O240 Co238 2.091 . S
O240 C246 1.261 . S
C241 O250 1.247 . S
C241 O251 1.272 . S
O242 Co238 2.004 . S
O242 C247 1.259 . S
Co243 O244 2.061 . S
Co243 O249 2.052 . S
Co243 O251 2.135 . S
O244 Co243 2.061 . S
O244 C247 1.235 . S
C245 O248 1.238 . S
C245 O249 1.241 . S
C246 O239 1.247 . S
C246 O240 1.261 . S
C247 O242 1.259 . S
C247 O244 1.235 . S
O248 Co238 2.021 . S
O248 C245 1.238 . S
O249 Co243 2.052 . S
O249 C245 1.241 . S
O250 Co238 2.137 . S
O250 C241 1.247 . S
O251 Co238 2.244 . S
O251 C241 1.272 . S
O251 Co243 2.135 . S
Co252 O253 2.216 . S
Co252 O254 2.091 . S
Co252 O256 2.004 . S
Co252 O262 2.021 . S
Co252 O264 2.137 . S
Co252 O265 2.244 . S
O253 Co252 2.216 . S
O253 C260 1.247 . S
O254 Co252 2.091 . S
O254 C260 1.261 . S
C255 O264 1.247 . S
C255 O265 1.272 . S
O256 Co252 2.004 . S
O256 C261 1.259 . S
Co257 O258 2.061 . S
Co257 O263 2.052 . S
Co257 O265 2.135 . S
O258 Co257 2.061 . S
O258 C261 1.235 . S
C259 O262 1.238 . S
C259 O263 1.241 . S
C260 O253 1.247 . S
C260 O254 1.261 . S
C261 O256 1.259 . S
C261 O258 1.235 . S
O262 Co252 2.021 . S
O262 C259 1.238 . S
O263 Co257 2.052 . S
O263 C259 1.241 . S
O264 Co252 2.137 . S
O264 C255 1.247 . S
O265 Co252 2.244 . S
O265 C255 1.272 . S
O265 Co257 2.135 . S
Co266 O267 2.216 . S
Co266 O268 2.091 . S
Co266 O270 2.004 . S
Co266 O276 2.021 . S
Co266 O278 2.137 . S
Co266 O279 2.244 . S
O267 Co266 2.216 . S
O267 C274 1.247 . S
O268 Co266 2.091 . S
O268 C274 1.261 . S
C269 O278 1.247 . S
C269 O279 1.272 . S
O270 Co266 2.004 . S
O270 C275 1.259 . S
Co271 O272 2.061 . S
Co271 O277 2.052 . S
Co271 O279 2.135 . S
O272 Co271 2.061 . S
O272 C275 1.235 . S
C273 O276 1.238 . S
C273 O277 1.241 . S
C274 O267 1.247 . S
C274 O268 1.261 . S
C275 O270 1.259 . S
C275 O272 1.235 . S
O276 Co266 2.021 . S
O276 C273 1.238 . S
O277 Co271 2.052 . S
O277 C273 1.241 . S
O278 Co266 2.137 . S
O278 C269 1.247 . S
O279 Co266 2.244 . S
O279 C269 1.272 . S
O279 Co271 2.135 . S
Co280 O281 2.216 . S
Co280 O282 2.091 . S
Co280 O284 2.004 . S
Co280 O290 2.021 . S
Co280 O292 2.137 . S
Co280 O293 2.244 . S
O281 Co280 2.216 . S
O281 C288 1.247 . S
O282 Co280 2.091 . S
O282 C288 1.261 . S
C283 O292 1.247 . S
C283 O293 1.272 . S
O284 Co280 2.004 . S
O284 C289 1.259 . S
Co285 O286 2.061 . S
Co285 O291 2.052 . S
Co285 O293 2.135 . S
O286 Co285 2.061 . S
O286 C289 1.235 . S
C287 O290 1.238 . S
C287 O291 1.241 . S
C288 O281 1.247 . S
C288 O282 1.261 . S
C289 O284 1.259 . S
C289 O286 1.235 . S
O290 Co280 2.021 . S
O290 C287 1.238 . S
O291 Co285 2.052 . S
O291 C287 1.241 . S
O292 Co280 2.137 . S
O292 C283 1.247 . S
O293 Co280 2.244 . S
O293 C283 1.272 . S
O293 Co285 2.135 . S
Co294 O295 2.216 . S
Co294 O296 2.091 . S
Co294 O298 2.004 . S
Co294 O304 2.021 . S
Co294 O306 2.137 1_554 S
Co294 O307 2.244 1_554 S
O295 Co294 2.216 . S
O295 C302 1.247 . S
O296 Co294 2.091 . S
O296 C302 1.261 . S
C297 O306 1.247 . S
C297 O307 1.272 . S
O298 Co294 2.004 . S
O298 C303 1.259 . S
Co299 O300 2.061 . S
Co299 O305 2.052 . S
Co299 O307 2.135 1_554 S
O300 Co299 2.061 . S
O300 C303 1.235 . S
C301 O304 1.238 . S
C301 O305 1.241 . S
C302 O295 1.247 . S
C302 O296 1.261 . S
C303 O298 1.259 . S
C303 O300 1.235 . S
O304 Co294 2.021 . S
O304 C301 1.238 . S
O305 Co299 2.052 . S
O305 C301 1.241 . S
O306 Co294 2.137 1_556 S
O306 C297 1.247 . S
O307 Co294 2.244 1_556 S
O307 C297 1.272 . S
O307 Co299 2.135 1_556 S
Co308 O309 2.216 . S
Co308 O310 2.091 . S
Co308 O312 2.004 . S
Co308 O318 2.021 . S
Co308 O320 2.137 1_554 S
Co308 O321 2.244 1_554 S
O309 Co308 2.216 . S
O309 C316 1.247 . S
O310 Co308 2.091 . S
O310 C316 1.261 . S
C311 O320 1.247 . S
C311 O321 1.272 . S
O312 Co308 2.004 . S
O312 C317 1.259 . S
Co313 O314 2.061 . S
Co313 O319 2.052 . S
Co313 O321 2.135 1_554 S
O314 Co313 2.061 . S
O314 C317 1.235 . S
C315 O318 1.238 . S
C315 O319 1.241 . S
C316 O309 1.247 . S
C316 O310 1.261 . S
C317 O312 1.259 . S
C317 O314 1.235 . S
O318 Co308 2.021 . S
O318 C315 1.238 . S
O319 Co313 2.052 . S
O319 C315 1.241 . S
O320 Co308 2.137 1_556 S
O320 C311 1.247 . S
O321 Co308 2.244 1_556 S
O321 C311 1.272 . S
O321 Co313 2.135 1_556 S
Co322 O323 2.216 . S
Co322 O324 2.091 . S
Co322 O326 2.004 . S
Co322 O332 2.021 . S
Co322 O334 2.137 1_554 S
Co322 O335 2.244 1_554 S
O323 Co322 2.216 . S
O323 C330 1.247 . S
O324 Co322 2.091 . S
O324 C330 1.261 . S
C325 O334 1.247 . S
C325 O335 1.272 . S
O326 Co322 2.004 . S
O326 C331 1.259 . S
Co327 O328 2.061 . S
Co327 O333 2.052 . S
Co327 O335 2.135 1_554 S
O328 Co327 2.061 . S
O328 C331 1.235 . S
C329 O332 1.238 . S
C329 O333 1.241 . S
C330 O323 1.247 . S
C330 O324 1.261 . S
C331 O326 1.259 . S
C331 O328 1.235 . S
O332 Co322 2.021 . S
O332 C329 1.238 . S
O333 Co327 2.052 . S
O333 C329 1.241 . S
O334 Co322 2.137 1_556 S
O334 C325 1.247 . S
O335 Co322 2.244 1_556 S
O335 C325 1.272 . S
O335 Co327 2.135 1_556 S
Co336 O337 2.216 . S
Co336 O338 2.091 . S
Co336 O340 2.004 . S
Co336 O346 2.021 . S
Co336 O348 2.137 . S
Co336 O349 2.244 . S
O337 Co336 2.216 . S
O337 C344 1.247 . S
O338 Co336 2.091 . S
O338 C344 1.261 . S
C339 O348 1.247 . S
C339 O349 1.272 . S
O340 Co336 2.004 . S
O340 C345 1.259 . S
Co341 O342 2.061 . S
Co341 O347 2.052 . S
Co341 O349 2.135 . S
O342 Co341 2.061 . S
O342 C345 1.235 . S
C343 O346 1.238 . S
C343 O347 1.241 . S
C344 O337 1.247 . S
C344 O338 1.261 . S
C345 O340 1.259 . S
C345 O342 1.235 . S
O346 Co336 2.021 . S
O346 C343 1.238 . S
O347 Co341 2.052 . S
O347 C343 1.241 . S
O348 Co336 2.137 . S
O348 C339 1.247 . S
O349 Co336 2.244 . S
O349 C339 1.272 . S
O349 Co341 2.135 . S
Co350 O351 2.216 . S
Co350 O352 2.091 . S
Co350 O354 2.004 . S
Co350 O360 2.021 . S
Co350 O362 2.137 . S
Co350 O363 2.244 . S
O351 Co350 2.216 . S
O351 C358 1.247 . S
O352 Co350 2.091 . S
O352 C358 1.261 . S
C353 O362 1.247 . S
C353 O363 1.272 . S
O354 Co350 2.004 . S
O354 C359 1.259 . S
Co355 O356 2.061 . S
Co355 O361 2.052 . S
Co355 O363 2.135 . S
O356 Co355 2.061 . S
O356 C359 1.235 . S
C357 O360 1.238 . S
C357 O361 1.241 . S
C358 O351 1.247 . S
C358 O352 1.261 . S
C359 O354 1.259 . S
C359 O356 1.235 . S
O360 Co350 2.021 . S
O360 C357 1.238 . S
O361 Co355 2.052 . S
O361 C357 1.241 . S
O362 Co350 2.137 . S
O362 C353 1.247 . S
O363 Co350 2.244 . S
O363 C353 1.272 . S
O363 Co355 2.135 . S
Co364 O365 2.216 . S
Co364 O366 2.091 . S
Co364 O368 2.004 . S
Co364 O374 2.021 . S
Co364 O376 2.137 . S
Co364 O377 2.244 . S
O365 Co364 2.216 . S
O365 C372 1.247 . S
O366 Co364 2.091 . S
O366 C372 1.261 . S
C367 O376 1.247 . S
C367 O377 1.272 . S
O368 Co364 2.004 . S
O368 C373 1.259 . S
Co369 O370 2.061 . S
Co369 O375 2.052 . S
Co369 O377 2.135 . S
O370 Co369 2.061 . S
O370 C373 1.235 . S
C371 O374 1.238 . S
C371 O375 1.241 . S
C372 O365 1.247 . S
C372 O366 1.261 . S
C373 O368 1.259 . S
C373 O370 1.235 . S
O374 Co364 2.021 . S
O374 C371 1.238 . S
O375 Co369 2.052 . S
O375 C371 1.241 . S
O376 Co364 2.137 . S
O376 C367 1.247 . S
O377 Co364 2.244 . S
O377 C367 1.272 . S
O377 Co369 2.135 . S
Co378 O379 2.216 . S
Co378 O380 2.091 . S
Co378 O382 2.004 . S
Co378 O388 2.021 . S
Co378 O390 2.137 1_556 S
Co378 O391 2.244 1_556 S
O379 Co378 2.216 . S
O379 C386 1.247 . S
O380 Co378 2.091 . S
O380 C386 1.261 . S
C381 O390 1.247 . S
C381 O391 1.272 . S
O382 Co378 2.004 . S
O382 C387 1.259 . S
Co383 O384 2.061 . S
Co383 O389 2.052 . S
Co383 O391 2.135 1_556 S
O384 Co383 2.061 . S
O384 C387 1.235 . S
C385 O388 1.238 . S
C385 O389 1.241 . S
C386 O379 1.247 . S
C386 O380 1.261 . S
C387 O382 1.259 . S
C387 O384 1.235 . S
O388 Co378 2.021 . S
O388 C385 1.238 . S
O389 Co383 2.052 . S
O389 C385 1.241 . S
O390 Co378 2.137 1_554 S
O390 C381 1.247 . S
O391 Co378 2.244 1_554 S
O391 C381 1.272 . S
O391 Co383 2.135 1_554 S
Co392 O393 2.216 . S
Co392 O394 2.091 . S
Co392 O396 2.004 . S
Co392 O402 2.021 . S
Co392 O404 2.137 1_556 S
Co392 O405 2.244 1_556 S
O393 Co392 2.216 . S
O393 C400 1.247 . S
O394 Co392 2.091 . S
O394 C400 1.261 . S
C395 O404 1.247 . S
C395 O405 1.272 . S
O396 Co392 2.004 . S
O396 C401 1.259 . S
Co397 O398 2.061 . S
Co397 O403 2.052 . S
Co397 O405 2.135 1_556 S
O398 Co397 2.061 . S
O398 C401 1.235 . S
C399 O402 1.238 . S
C399 O403 1.241 . S
C400 O393 1.247 . S
C400 O394 1.261 . S
C401 O396 1.259 . S
C401 O398 1.235 . S
O402 Co392 2.021 . S
O402 C399 1.238 . S
O403 Co397 2.052 . S
O403 C399 1.241 . S
O404 Co392 2.137 1_554 S
O404 C395 1.247 . S
O405 Co392 2.244 1_554 S
O405 C395 1.272 . S
O405 Co397 2.135 1_554 S
Co406 O407 2.216 . S
Co406 O408 2.091 . S
Co406 O410 2.004 . S
Co406 O416 2.021 . S
Co406 O418 2.137 1_556 S
Co406 O419 2.244 1_556 S
O407 Co406 2.216 . S
O407 C414 1.247 . S
O408 Co406 2.091 . S
O408 C414 1.261 . S
C409 O418 1.247 . S
C409 O419 1.272 . S
O410 Co406 2.004 . S
O410 C415 1.259 . S
Co411 O412 2.061 . S
Co411 O417 2.052 . S
Co411 O419 2.135 1_556 S
O412 Co411 2.061 . S
O412 C415 1.235 . S
C413 O416 1.238 . S
C413 O417 1.241 . S
C414 O407 1.247 . S
C414 O408 1.261 . S
C415 O410 1.259 . S
C415 O412 1.235 . S
O416 Co406 2.021 . S
O416 C413 1.238 . S
O417 Co411 2.052 . S
O417 C413 1.241 . S
O418 Co406 2.137 1_554 S
O418 C409 1.247 . S
O419 Co406 2.244 1_554 S
O419 C409 1.272 . S
O419 Co411 2.135 1_554 S
Co420 O421 2.216 . S
Co420 O422 2.091 . S
Co420 O424 2.004 . S
Co420 O430 2.021 . S
Co420 O432 2.137 . S
Co420 O433 2.244 . S
O421 Co420 2.216 . S
O421 C428 1.247 . S
O422 Co420 2.091 . S
O422 C428 1.261 . S
C423 O432 1.247 . S
C423 O433 1.272 . S
O424 Co420 2.004 . S
O424 C429 1.259 . S
Co425 O426 2.061 . S
Co425 O431 2.052 . S
Co425 O433 2.135 . S
O426 Co425 2.061 . S
O426 C429 1.235 . S
C427 O430 1.238 . S
C427 O431 1.241 . S
C428 O421 1.247 . S
C428 O422 1.261 . S
C429 O424 1.259 . S
C429 O426 1.235 . S
O430 Co420 2.021 . S
O430 C427 1.238 . S
O431 Co425 2.052 . S
O431 C427 1.241 . S
O432 Co420 2.137 . S
O432 C423 1.247 . S
O433 Co420 2.244 . S
O433 C423 1.272 . S
O433 Co425 2.135 . S
Co434 O435 2.216 . S
Co434 O436 2.091 . S
Co434 O438 2.004 . S
Co434 O444 2.021 . S
Co434 O446 2.137 . S
Co434 O447 2.244 . S
O435 Co434 2.216 . S
O435 C442 1.247 . S
O436 Co434 2.091 . S
O436 C442 1.261 . S
C437 O446 1.247 . S
C437 O447 1.272 . S
O438 Co434 2.004 . S
O438 C443 1.259 . S
Co439 O440 2.061 . S
Co439 O445 2.052 . S
Co439 O447 2.135 . S
O440 Co439 2.061 . S
O440 C443 1.235 . S
C441 O444 1.238 . S
C441 O445 1.241 . S
C442 O435 1.247 . S
C442 O436 1.261 . S
C443 O438 1.259 . S
C443 O440 1.235 . S
O444 Co434 2.021 . S
O444 C441 1.238 . S
O445 Co439 2.052 . S
O445 C441 1.241 . S
O446 Co434 2.137 . S
O446 C437 1.247 . S
O447 Co434 2.244 . S
O447 C437 1.272 . S
O447 Co439 2.135 . S
Co448 O449 2.216 . S
Co448 O450 2.091 . S
Co448 O452 2.004 . S
Co448 O458 2.021 . S
Co448 O460 2.137 . S
Co448 O461 2.244 . S
O449 Co448 2.216 . S
O449 C456 1.247 . S
O450 Co448 2.091 . S
O450 C456 1.261 . S
C451 O460 1.247 . S
C451 O461 1.272 . S
O452 Co448 2.004 . S
O452 C457 1.259 . S
Co453 O454 2.061 . S
Co453 O459 2.052 . S
Co453 O461 2.135 . S
O454 Co453 2.061 . S
O454 C457 1.235 . S
C455 O458 1.238 . S
C455 O459 1.241 . S
C456 O449 1.247 . S
C456 O450 1.261 . S
C457 O452 1.259 . S
C457 O454 1.235 . S
O458 Co448 2.021 . S
O458 C455 1.238 . S
O459 Co453 2.052 . S
O459 C455 1.241 . S
O460 Co448 2.137 . S
O460 C451 1.247 . S
O461 Co448 2.244 . S
O461 C451 1.272 . S
O461 Co453 2.135 . S
Co462 O463 2.216 . S
Co462 O464 2.091 . S
Co462 O466 2.004 . S
Co462 O472 2.021 . S
Co462 O474 2.137 . S
Co462 O475 2.244 . S
O463 Co462 2.216 . S
O463 C470 1.247 . S
O464 Co462 2.091 . S
O464 C470 1.261 . S
C465 O474 1.247 . S
C465 O475 1.272 . S
O466 Co462 2.004 . S
O466 C471 1.259 . S
Co467 O468 2.061 . S
Co467 O473 2.052 . S
Co467 O475 2.135 . S
O468 Co467 2.061 . S
O468 C471 1.235 . S
C469 O472 1.238 . S
C469 O473 1.241 . S
C470 O463 1.247 . S
C470 O464 1.261 . S
C471 O466 1.259 . S
C471 O468 1.235 . S
O472 Co462 2.021 . S
O472 C469 1.238 . S
O473 Co467 2.052 . S
O473 C469 1.241 . S
O474 Co462 2.137 . S
O474 C465 1.247 . S
O475 Co462 2.244 . S
O475 C465 1.272 . S
O475 Co467 2.135 . S
Co476 O477 2.216 . S
Co476 O478 2.091 . S
Co476 O480 2.004 . S
Co476 O486 2.021 . S
Co476 O488 2.137 . S
Co476 O489 2.244 . S
O477 Co476 2.216 . S
O477 C484 1.247 . S
O478 Co476 2.091 . S
O478 C484 1.261 . S
C479 O488 1.247 . S
C479 O489 1.272 . S
O480 Co476 2.004 . S
O480 C485 1.259 . S
Co481 O482 2.061 . S
Co481 O487 2.052 . S
Co481 O489 2.135 . S
O482 Co481 2.061 . S
O482 C485 1.235 . S
C483 O486 1.238 . S
C483 O487 1.241 . S
C484 O477 1.247 . S
C484 O478 1.261 . S
C485 O480 1.259 . S
C485 O482 1.235 . S
O486 Co476 2.021 . S
O486 C483 1.238 . S
O487 Co481 2.052 . S
O487 C483 1.241 . S
O488 Co476 2.137 . S
O488 C479 1.247 . S
O489 Co476 2.244 . S
O489 C479 1.272 . S
O489 Co481 2.135 . S
Co490 O491 2.216 . S
Co490 O492 2.091 . S
Co490 O494 2.004 . S
Co490 O500 2.021 . S
Co490 O502 2.137 . S
Co490 O503 2.244 . S
O491 Co490 2.216 . S
O491 C498 1.247 . S
O492 Co490 2.091 . S
O492 C498 1.261 . S
C493 O502 1.247 . S
C493 O503 1.272 . S
O494 Co490 2.004 . S
O494 C499 1.259 . S
Co495 O496 2.061 . S
Co495 O501 2.052 . S
Co495 O503 2.135 . S
O496 Co495 2.061 . S
O496 C499 1.235 . S
C497 O500 1.238 . S
C497 O501 1.241 . S
C498 O491 1.247 . S
C498 O492 1.261 . S
C499 O494 1.259 . S
C499 O496 1.235 . S
O500 Co490 2.021 . S
O500 C497 1.238 . S
O501 Co495 2.052 . S
O501 C497 1.241 . S
O502 Co490 2.137 . S
O502 C493 1.247 . S
O503 Co490 2.244 . S
O503 C493 1.272 . S
O503 Co495 2.135 . S
C504 C505 1.363 . S
C504 C510 1.379 . S
C504 N512 1.356 . S
C505 C504 1.363 . S
C505 C511 1.363 . S
C506 C507 1.363 1_556 S
C506 C511 1.379 . S
C506 N513 1.356 1_556 S
C507 C506 1.363 1_554 S
C507 C510 1.363 1_554 S
N508 C510 1.356 1_554 S
N508 H520 0.984 . S
N508 H521 0.985 . S
N509 C511 1.356 . S
N509 H514 0.984 . S
N509 H515 0.985 . S
C510 C504 1.379 . S
C510 C507 1.363 1_556 S
C510 N508 1.356 1_556 S
C511 C505 1.363 . S
C511 C506 1.379 . S
C511 N509 1.356 . S
N512 C504 1.356 . S
N512 H518 0.984 . S
N512 H519 0.984 . S
N513 C506 1.356 1_554 S
N513 H516 0.984 . S
N513 H517 0.985 . S
H514 N509 0.984 . S
H515 N509 0.985 . S
H516 N513 0.984 . S
H517 N513 0.985 . S
H518 N512 0.984 . S
H519 N512 0.984 . S
H520 N508 0.984 . S
H521 N508 0.985 . S
C522 C523 1.363 . S
C522 C528 1.379 . S
C522 N530 1.356 . S
C523 C522 1.363 . S
C523 C529 1.363 . S
C524 C525 1.363 1_556 S
C524 C529 1.379 . S
C524 N531 1.356 1_556 S
C525 C524 1.363 1_554 S
C525 C528 1.363 1_554 S
N526 C528 1.356 1_554 S
N526 H538 0.984 . S
N526 H539 0.985 . S
N527 C529 1.356 . S
N527 H532 0.984 . S
N527 H533 0.985 . S
C528 C522 1.379 . S
C528 C525 1.363 1_556 S
C528 N526 1.356 1_556 S
C529 C523 1.363 . S
C529 C524 1.379 . S
C529 N527 1.356 . S
N530 C522 1.356 . S
N530 H536 0.984 . S
N530 H537 0.984 . S
N531 C524 1.356 1_554 S
N531 H534 0.984 . S
N531 H535 0.985 . S
H532 N527 0.984 . S
H533 N527 0.985 . S
H534 N531 0.984 . S
H535 N531 0.985 . S
H536 N530 0.984 . S
H537 N530 0.984 . S
H538 N526 0.984 . S
H539 N526 0.985 . S
C540 C541 1.363 1_556 S
C540 C546 1.379 . S
C540 N548 1.356 1_556 S
C541 C540 1.363 1_554 S
C541 C547 1.363 1_554 S
C542 C543 1.363 . S
C542 C547 1.379 . S
C542 N549 1.356 . S
C543 C542 1.363 . S
C543 C546 1.363 . S
N544 C546 1.356 . S
N544 H556 0.984 . S
N544 H557 0.985 . S
N545 C547 1.356 1_554 S
N545 H550 0.984 . S
N545 H551 0.985 . S
C546 C540 1.379 . S
C546 C543 1.363 . S
C546 N544 1.356 . S
C547 C541 1.363 1_556 S
C547 C542 1.379 . S
C547 N545 1.356 1_556 S
N548 C540 1.356 1_554 S
N548 H554 0.984 . S
N548 H555 0.984 . S
N549 C542 1.356 . S
N549 H552 0.984 . S
N549 H553 0.985 . S
H550 N545 0.984 . S
H551 N545 0.985 . S
H552 N549 0.984 . S
H553 N549 0.985 . S
H554 N548 0.984 . S
H555 N548 0.984 . S
H556 N544 0.984 . S
H557 N544 0.985 . S
C558 C559 1.363 . S
C558 C564 1.379 . S
C558 N566 1.356 . S
C559 C558 1.363 . S
C559 C565 1.363 . S
C560 C561 1.363 . S
C560 C565 1.379 . S
C560 N567 1.356 . S
C561 C560 1.363 . S
C561 C564 1.363 . S
N562 C564 1.356 . S
N562 H574 0.984 . S
N562 H575 0.985 . S
N563 C565 1.356 . S
N563 H568 0.984 . S
N563 H569 0.985 . S
C564 C558 1.379 . S
C564 C561 1.363 . S
C564 N562 1.356 . S
C565 C559 1.363 . S
C565 C560 1.379 . S
C565 N563 1.356 . S
N566 C558 1.356 . S
N566 H572 0.984 . S
N566 H573 0.984 . S
N567 C560 1.356 . S
N567 H570 0.984 . S
N567 H571 0.985 . S
H568 N563 0.984 . S
H569 N563 0.985 . S
H570 N567 0.984 . S
H571 N567 0.985 . S
H572 N566 0.984 . S
H573 N566 0.984 . S
H574 N562 0.984 . S
H575 N562 0.985 . S
C576 C577 1.363 . S
C576 C582 1.379 . S
C576 N584 1.356 . S
C577 C576 1.363 . S
C577 C583 1.363 . S
C578 C579 1.363 . S
C578 C583 1.379 . S
C578 N585 1.356 . S
C579 C578 1.363 . S
C579 C582 1.363 . S
N580 C582 1.356 . S
N580 H592 0.984 . S
N580 H593 0.985 . S
N581 C583 1.356 . S
N581 H586 0.984 . S
N581 H587 0.985 . S
C582 C576 1.379 . S
C582 C579 1.363 . S
C582 N580 1.356 . S
C583 C577 1.363 . S
C583 C578 1.379 . S
C583 N581 1.356 . S
N584 C576 1.356 . S
N584 H590 0.984 . S
N584 H591 0.984 . S
N585 C578 1.356 . S
N585 H588 0.984 . S
N585 H589 0.985 . S
H586 N581 0.984 . S
H587 N581 0.985 . S
H588 N585 0.984 . S
H589 N585 0.985 . S
H590 N584 0.984 . S
H591 N584 0.984 . S
H592 N580 0.984 . S
H593 N580 0.985 . S
C594 C595 1.363 . S
C594 C600 1.379 . S
C594 N602 1.356 . S
C595 C594 1.363 . S
C595 C601 1.363 . S
C596 C597 1.363 . S
C596 C601 1.379 . S
C596 N603 1.356 . S
C597 C596 1.363 . S
C597 C600 1.363 . S
N598 C600 1.356 . S
N598 H610 0.984 . S
N598 H611 0.985 . S
N599 C601 1.356 . S
N599 H604 0.984 . S
N599 H605 0.985 . S
C600 C594 1.379 . S
C600 C597 1.363 . S
C600 N598 1.356 . S
C601 C595 1.363 . S
C601 C596 1.379 . S
C601 N599 1.356 . S
N602 C594 1.356 . S
N602 H608 0.984 . S
N602 H609 0.984 . S
N603 C596 1.356 . S
N603 H606 0.984 . S
N603 H607 0.985 . S
H604 N599 0.984 . S
H605 N599 0.985 . S
H606 N603 0.984 . S
H607 N603 0.985 . S
H608 N602 0.984 . S
H609 N602 0.984 . S
H610 N598 0.984 . S
H611 N598 0.985 . S
C612 C613 1.363 . S
C612 C618 1.379 . S
C612 N620 1.356 . S
C613 C612 1.363 . S
C613 C619 1.363 . S
C614 C615 1.363 1_554 S
C614 C619 1.379 . S
C614 N621 1.356 1_554 S
C615 C614 1.363 1_556 S
C615 C618 1.363 1_556 S
N616 C618 1.356 1_556 S
N616 H628 0.984 . S
N616 H629 0.985 . S
N617 C619 1.356 . S
N617 H622 0.984 . S
N617 H623 0.985 . S
C618 C612 1.379 . S
C618 C615 1.363 1_554 S
C618 N616 1.356 1_554 S
C619 C613 1.363 . S
C619 C614 1.379 . S
C619 N617 1.356 . S
N620 C612 1.356 . S
N620 H626 0.984 . S
N620 H627 0.984 . S
N621 C614 1.356 1_556 S
N621 H624 0.984 . S
N621 H625 0.985 . S
H622 N617 0.984 . S
H623 N617 0.985 . S
H624 N621 0.984 . S
H625 N621 0.985 . S
H626 N620 0.984 . S
H627 N620 0.984 . S
H628 N616 0.984 . S
H629 N616 0.985 . S
C630 C631 1.363 . S
C630 C636 1.379 . S
C630 N638 1.356 . S
C631 C630 1.363 . S
C631 C637 1.363 . S
C632 C633 1.363 1_554 S
C632 C637 1.379 . S
C632 N639 1.356 1_554 S
C633 C632 1.363 1_556 S
C633 C636 1.363 1_556 S
N634 C636 1.356 1_556 S
N634 H646 0.984 . S
N634 H647 0.985 . S
N635 C637 1.356 . S
N635 H640 0.984 . S
N635 H641 0.985 . S
C636 C630 1.379 . S
C636 C633 1.363 1_554 S
C636 N634 1.356 1_554 S
C637 C631 1.363 . S
C637 C632 1.379 . S
C637 N635 1.356 . S
N638 C630 1.356 . S
N638 H644 0.984 . S
N638 H645 0.984 . S
N639 C632 1.356 1_556 S
N639 H642 0.984 . S
N639 H643 0.985 . S
H640 N635 0.984 . S
H641 N635 0.985 . S
H642 N639 0.984 . S
H643 N639 0.985 . S
H644 N638 0.984 . S
H645 N638 0.984 . S
H646 N634 0.984 . S
H647 N634 0.985 . S
C648 C649 1.363 1_554 S
C648 C654 1.379 . S
C648 N656 1.356 1_554 S
C649 C648 1.363 1_556 S
C649 C655 1.363 1_556 S
C650 C651 1.363 . S
C650 C655 1.379 . S
C650 N657 1.356 . S
C651 C650 1.363 . S
C651 C654 1.363 . S
N652 C654 1.356 . S
N652 H664 0.984 . S
N652 H665 0.985 . S
N653 C655 1.356 1_556 S
N653 H658 0.984 . S
N653 H659 0.985 . S
C654 C648 1.379 . S
C654 C651 1.363 . S
C654 N652 1.356 . S
C655 C649 1.363 1_554 S
C655 C650 1.379 . S
C655 N653 1.356 1_554 S
N656 C648 1.356 1_556 S
N656 H662 0.984 . S
N656 H663 0.984 . S
N657 C650 1.356 . S
N657 H660 0.984 . S
N657 H661 0.985 . S
H658 N653 0.984 . S
H659 N653 0.985 . S
H660 N657 0.984 . S
H661 N657 0.985 . S
H662 N656 0.984 . S
H663 N656 0.984 . S
H664 N652 0.984 . S
H665 N652 0.985 . S
C666 C667 1.363 . S
C666 C672 1.379 . S
C666 N674 1.356 . S
C667 C666 1.363 . S
C667 C673 1.363 . S
C668 C669 1.363 . S
C668 C673 1.379 . S
C668 N675 1.356 . S
C669 C668 1.363 . S
C669 C672 1.363 . S
N670 C672 1.356 . S
N670 H682 0.984 . S
N670 H683 0.985 . S
N671 C673 1.356 . S
N671 H676 0.984 . S
N671 H677 0.985 . S
C672 C666 1.379 . S
C672 C669 1.363 . S
C672 N670 1.356 . S
C673 C667 1.363 . S
C673 C668 1.379 . S
C673 N671 1.356 . S
N674 C666 1.356 . S
N674 H680 0.984 . S
N674 H681 0.984 . S
N675 C668 1.356 . S
N675 H678 0.984 . S
N675 H679 0.985 . S
H676 N671 0.984 . S
H677 N671 0.985 . S
H678 N675 0.984 . S
H679 N675 0.985 . S
H680 N674 0.984 . S
H681 N674 0.984 . S
H682 N670 0.984 . S
H683 N670 0.985 . S
C684 C685 1.363 . S
C684 C690 1.379 . S
C684 N692 1.356 . S
C685 C684 1.363 . S
C685 C691 1.363 . S
C686 C687 1.363 . S
C686 C691 1.379 . S
C686 N693 1.356 . S
C687 C686 1.363 . S
C687 C690 1.363 . S
N688 C690 1.356 . S
N688 H700 0.984 . S
N688 H701 0.985 . S
N689 C691 1.356 . S
N689 H694 0.984 . S
N689 H695 0.985 . S
C690 C684 1.379 . S
C690 C687 1.363 . S
C690 N688 1.356 . S
C691 C685 1.363 . S
C691 C686 1.379 . S
C691 N689 1.356 . S
N692 C684 1.356 . S
N692 H698 0.984 . S
N692 H699 0.984 . S
N693 C686 1.356 . S
N693 H696 0.984 . S
N693 H697 0.985 . S
H694 N689 0.984 . S
H695 N689 0.985 . S
H696 N693 0.984 . S
H697 N693 0.985 . S
H698 N692 0.984 . S
H699 N692 0.984 . S
H700 N688 0.984 . S
H701 N688 0.985 . S
C702 C703 1.363 . S
C702 C708 1.379 . S
C702 N710 1.356 . S
C703 C702 1.363 . S
C703 C709 1.363 . S
C704 C705 1.363 . S
C704 C709 1.379 . S
C704 N711 1.356 . S
C705 C704 1.363 . S
C705 C708 1.363 . S
N706 C708 1.356 . S
N706 H718 0.984 . S
N706 H719 0.985 . S
N707 C709 1.356 . S
N707 H712 0.984 . S
N707 H713 0.985 . S
C708 C702 1.379 . S
C708 C705 1.363 . S
C708 N706 1.356 . S
C709 C703 1.363 . S
C709 C704 1.379 . S
C709 N707 1.356 . S
N710 C702 1.356 . S
N710 H716 0.984 . S
N710 H717 0.984 . S
N711 C704 1.356 . S
N711 H714 0.984 . S
N711 H715 0.985 . S
H712 N707 0.984 . S
H713 N707 0.985 . S
H714 N711 0.984 . S
H715 N711 0.985 . S
H716 N710 0.984 . S
H717 N710 0.984 . S
H718 N706 0.984 . S
H719 N706 0.985 . S
C720 C721 1.363 . S
C720 C726 1.379 . S
C720 N728 1.356 . S
C721 C720 1.363 . S
C721 C727 1.363 . S
C722 C723 1.363 . S
C722 C727 1.379 . S
C722 N729 1.356 . S
C723 C722 1.363 . S
C723 C726 1.363 . S
N724 C726 1.356 . S
N724 H736 0.984 . S
N724 H737 0.985 . S
N725 C727 1.356 . S
N725 H730 0.984 . S
N725 H731 0.985 . S
C726 C720 1.379 . S
C726 C723 1.363 . S
C726 N724 1.356 . S
C727 C721 1.363 . S
C727 C722 1.379 . S
C727 N725 1.356 . S
N728 C720 1.356 . S
N728 H734 0.984 . S
N728 H735 0.984 . S
N729 C722 1.356 . S
N729 H732 0.984 . S
N729 H733 0.985 . S
H730 N725 0.984 . S
H731 N725 0.985 . S
H732 N729 0.984 . S
H733 N729 0.985 . S
H734 N728 0.984 . S
H735 N728 0.984 . S
H736 N724 0.984 . S
H737 N724 0.985 . S
C738 C739 1.363 . S
C738 C744 1.379 . S
C738 N746 1.356 . S
C739 C738 1.363 . S
C739 C745 1.363 . S
C740 C741 1.363 . S
C740 C745 1.379 . S
C740 N747 1.356 . S
C741 C740 1.363 . S
C741 C744 1.363 . S
N742 C744 1.356 . S
N742 H754 0.984 . S
N742 H755 0.985 . S
N743 C745 1.356 . S
N743 H748 0.984 . S
N743 H749 0.985 . S
C744 C738 1.379 . S
C744 C741 1.363 . S
C744 N742 1.356 . S
C745 C739 1.363 . S
C745 C740 1.379 . S
C745 N743 1.356 . S
N746 C738 1.356 . S
N746 H752 0.984 . S
N746 H753 0.984 . S
N747 C740 1.356 . S
N747 H750 0.984 . S
N747 H751 0.985 . S
H748 N743 0.984 . S
H749 N743 0.985 . S
H750 N747 0.984 . S
H751 N747 0.985 . S
H752 N746 0.984 . S
H753 N746 0.984 . S
H754 N742 0.984 . S
H755 N742 0.985 . S
C756 C757 1.363 . S
C756 C762 1.379 . S
C756 N764 1.356 . S
C757 C756 1.363 . S
C757 C763 1.363 . S
C758 C759 1.363 . S
C758 C763 1.379 . S
C758 N765 1.356 . S
C759 C758 1.363 . S
C759 C762 1.363 . S
N760 C762 1.356 . S
N760 H772 0.984 . S
N760 H773 0.985 . S
N761 C763 1.356 . S
N761 H766 0.984 . S
N761 H767 0.985 . S
C762 C756 1.379 . S
C762 C759 1.363 . S
C762 N760 1.356 . S
C763 C757 1.363 . S
C763 C758 1.379 . S
C763 N761 1.356 . S
N764 C756 1.356 . S
N764 H770 0.984 . S
N764 H771 0.984 . S
N765 C758 1.356 . S
N765 H768 0.984 . S
N765 H769 0.985 . S
H766 N761 0.984 . S
H767 N761 0.985 . S
H768 N765 0.984 . S
H769 N765 0.985 . S
H770 N764 0.984 . S
H771 N764 0.984 . S
H772 N760 0.984 . S
H773 N760 0.985 . S
C774 C775 1.363 . S
C774 C780 1.379 . S
C774 N782 1.356 . S
C775 C774 1.363 . S
C775 C781 1.363 . S
C776 C777 1.363 . S
C776 C781 1.379 . S
C776 N783 1.356 . S
C777 C776 1.363 . S
C777 C780 1.363 . S
N778 C780 1.356 . S
N778 H790 0.984 . S
N778 H791 0.985 1_556 S
N779 C781 1.356 . S
N779 H784 0.984 . S
N779 H785 0.985 . S
C780 C774 1.379 . S
C780 C777 1.363 . S
C780 N778 1.356 . S
C781 C775 1.363 . S
C781 C776 1.379 . S
C781 N779 1.356 . S
N782 C774 1.356 . S
N782 H788 0.984 . S
N782 H789 0.984 . S
N783 C776 1.356 . S
N783 H786 0.984 1_556 S
N783 H787 0.985 . S
H784 N779 0.984 . S
H785 N779 0.985 . S
H786 N783 0.984 1_554 S
H787 N783 0.985 . S
H788 N782 0.984 . S
H789 N782 0.984 . S
H790 N778 0.984 . S
H791 N778 0.985 1_554 S
C792 C793 1.363 . S
C792 C798 1.379 . S
C792 N800 1.356 . S
C793 C792 1.363 . S
C793 C799 1.363 . S
C794 C795 1.363 . S
C794 C799 1.379 . S
C794 N801 1.356 . S
C795 C794 1.363 . S
C795 C798 1.363 . S
N796 C798 1.356 . S
N796 H808 0.984 . S
N796 H809 0.985 1_556 S
N797 C799 1.356 . S
N797 H802 0.984 . S
N797 H803 0.985 . S
C798 C792 1.379 . S
C798 C795 1.363 . S
C798 N796 1.356 . S
C799 C793 1.363 . S
C799 C794 1.379 . S
C799 N797 1.356 . S
N800 C792 1.356 . S
N800 H806 0.984 . S
N800 H807 0.984 . S
N801 C794 1.356 . S
N801 H804 0.984 1_556 S
N801 H805 0.985 . S
H802 N797 0.984 . S
H803 N797 0.985 . S
H804 N801 0.984 1_554 S
H805 N801 0.985 . S
H806 N800 0.984 . S
H807 N800 0.984 . S
H808 N796 0.984 . S
H809 N796 0.985 1_554 S
C810 C811 1.363 . S
C810 C816 1.379 . S
C810 N818 1.356 . S
C811 C810 1.363 . S
C811 C817 1.363 . S
C812 C813 1.363 . S
C812 C817 1.379 . S
C812 N819 1.356 . S
C813 C812 1.363 . S
C813 C816 1.363 . S
N814 C816 1.356 . S
N814 H826 0.984 . S
N814 H827 0.985 1_556 S
N815 C817 1.356 . S
N815 H820 0.984 . S
N815 H821 0.985 . S
C816 C810 1.379 . S
C816 C813 1.363 . S
C816 N814 1.356 . S
C817 C811 1.363 . S
C817 C812 1.379 . S
C817 N815 1.356 . S
N818 C810 1.356 . S
N818 H824 0.984 . S
N818 H825 0.984 . S
N819 C812 1.356 . S
N819 H822 0.984 1_556 S
N819 H823 0.985 . S
H820 N815 0.984 . S
H821 N815 0.985 . S
H822 N819 0.984 1_554 S
H823 N819 0.985 . S
H824 N818 0.984 . S
H825 N818 0.984 . S
H826 N814 0.984 . S
H827 N814 0.985 1_554 S
C828 C829 1.363 . S
C828 C834 1.379 . S
C828 N836 1.356 . S
C829 C828 1.363 . S
C829 C835 1.363 . S
C830 C831 1.363 . S
C830 C835 1.379 . S
C830 N837 1.356 . S
C831 C830 1.363 . S
C831 C834 1.363 . S
N832 C834 1.356 . S
N832 H844 0.984 . S
N832 H845 0.985 . S
N833 C835 1.356 . S
N833 H838 0.984 . S
N833 H839 0.985 . S
C834 C828 1.379 . S
C834 C831 1.363 . S
C834 N832 1.356 . S
C835 C829 1.363 . S
C835 C830 1.379 . S
C835 N833 1.356 . S
N836 C828 1.356 . S
N836 H842 0.984 . S
N836 H843 0.984 . S
N837 C830 1.356 . S
N837 H840 0.984 . S
N837 H841 0.985 . S
H838 N833 0.984 . S
H839 N833 0.985 . S
H840 N837 0.984 . S
H841 N837 0.985 . S
H842 N836 0.984 . S
H843 N836 0.984 . S
H844 N832 0.984 . S
H845 N832 0.985 . S
C846 C847 1.363 . S
C846 C852 1.379 . S
C846 N854 1.356 . S
C847 C846 1.363 . S
C847 C853 1.363 . S
C848 C849 1.363 . S
C848 C853 1.379 . S
C848 N855 1.356 . S
C849 C848 1.363 . S
C849 C852 1.363 . S
N850 C852 1.356 . S
N850 H862 0.984 . S
N850 H863 0.985 . S
N851 C853 1.356 . S
N851 H856 0.984 . S
N851 H857 0.985 . S
C852 C846 1.379 . S
C852 C849 1.363 . S
C852 N850 1.356 . S
C853 C847 1.363 . S
C853 C848 1.379 . S
C853 N851 1.356 . S
N854 C846 1.356 . S
N854 H860 0.984 . S
N854 H861 0.984 . S
N855 C848 1.356 . S
N855 H858 0.984 . S
N855 H859 0.985 . S
H856 N851 0.984 . S
H857 N851 0.985 . S
H858 N855 0.984 . S
H859 N855 0.985 . S
H860 N854 0.984 . S
H861 N854 0.984 . S
H862 N850 0.984 . S
H863 N850 0.985 . S
C864 C865 1.363 . S
C864 C870 1.379 . S
C864 N872 1.356 . S
C865 C864 1.363 . S
C865 C871 1.363 . S
C866 C867 1.363 . S
C866 C871 1.379 . S
C866 N873 1.356 . S
C867 C866 1.363 . S
C867 C870 1.363 . S
N868 C870 1.356 . S
N868 H880 0.984 . S
N868 H881 0.985 . S
N869 C871 1.356 . S
N869 H874 0.984 . S
N869 H875 0.985 . S
C870 C864 1.379 . S
C870 C867 1.363 . S
C870 N868 1.356 . S
C871 C865 1.363 . S
C871 C866 1.379 . S
C871 N869 1.356 . S
N872 C864 1.356 . S
N872 H878 0.984 . S
N872 H879 0.984 . S
N873 C866 1.356 . S
N873 H876 0.984 . S
N873 H877 0.985 . S
H874 N869 0.984 . S
H875 N869 0.985 . S
H876 N873 0.984 . S
H877 N873 0.985 . S
H878 N872 0.984 . S
H879 N872 0.984 . S
H880 N868 0.984 . S
H881 N868 0.985 . S
C882 C883 1.363 . S
C882 C888 1.379 . S
C882 N890 1.356 . S
C883 C882 1.363 . S
C883 C889 1.363 . S
C884 C885 1.363 . S
C884 C889 1.379 . S
C884 N891 1.356 . S
C885 C884 1.363 . S
C885 C888 1.363 . S
N886 C888 1.356 . S
N886 H898 0.984 . S
N886 H899 0.985 . S
N887 C889 1.356 . S
N887 H892 0.984 . S
N887 H893 0.985 . S
C888 C882 1.379 . S
C888 C885 1.363 . S
C888 N886 1.356 . S
C889 C883 1.363 . S
C889 C884 1.379 . S
C889 N887 1.356 . S
N890 C882 1.356 . S
N890 H896 0.984 . S
N890 H897 0.984 . S
N891 C884 1.356 . S
N891 H894 0.984 . S
N891 H895 0.985 . S
H892 N887 0.984 . S
H893 N887 0.985 . S
H894 N891 0.984 . S
H895 N891 0.985 . S
H896 N890 0.984 . S
H897 N890 0.984 . S
H898 N886 0.984 . S
H899 N886 0.985 . S
C900 C901 1.363 . S
C900 C906 1.379 . S
C900 N908 1.356 . S
C901 C900 1.363 . S
C901 C907 1.363 . S
C902 C903 1.363 . S
C902 C907 1.379 . S
C902 N909 1.356 . S
C903 C902 1.363 . S
C903 C906 1.363 . S
N904 C906 1.356 . S
N904 H916 0.984 . S
N904 H917 0.985 . S
N905 C907 1.356 . S
N905 H910 0.984 . S
N905 H911 0.985 . S
C906 C900 1.379 . S
C906 C903 1.363 . S
C906 N904 1.356 . S
C907 C901 1.363 . S
C907 C902 1.379 . S
C907 N905 1.356 . S
N908 C900 1.356 . S
N908 H914 0.984 . S
N908 H915 0.984 . S
N909 C902 1.356 . S
N909 H912 0.984 . S
N909 H913 0.985 . S
H910 N905 0.984 . S
H911 N905 0.985 . S
H912 N909 0.984 . S
H913 N909 0.985 . S
H914 N908 0.984 . S
H915 N908 0.984 . S
H916 N904 0.984 . S
H917 N904 0.985 . S
C918 C919 1.363 . S
C918 C924 1.379 . S
C918 N926 1.356 . S
C919 C918 1.363 . S
C919 C925 1.363 . S
C920 C921 1.363 . S
C920 C925 1.379 . S
C920 N927 1.356 . S
C921 C920 1.363 . S
C921 C924 1.363 . S
N922 C924 1.356 . S
N922 H934 0.984 . S
N922 H935 0.985 . S
N923 C925 1.356 . S
N923 H928 0.984 . S
N923 H929 0.985 . S
C924 C918 1.379 . S
C924 C921 1.363 . S
C924 N922 1.356 . S
C925 C919 1.363 . S
C925 C920 1.379 . S
C925 N923 1.356 . S
N926 C918 1.356 . S
N926 H932 0.984 . S
N926 H933 0.984 . S
N927 C920 1.356 . S
N927 H930 0.984 . S
N927 H931 0.985 . S
H928 N923 0.984 . S
H929 N923 0.985 . S
H930 N927 0.984 . S
H931 N927 0.985 . S
H932 N926 0.984 . S
H933 N926 0.984 . S
H934 N922 0.984 . S
H935 N922 0.985 . S
C936 C937 1.363 . S
C936 C942 1.379 . S
C936 N944 1.356 . S
C937 C936 1.363 . S
C937 C943 1.363 . S
C938 C939 1.363 . S
C938 C943 1.379 . S
C938 N945 1.356 . S
C939 C938 1.363 . S
C939 C942 1.363 . S
N940 C942 1.356 . S
N940 H952 0.984 . S
N940 H953 0.985 . S
N941 C943 1.356 . S
N941 H946 0.984 . S
N941 H947 0.985 . S
C942 C936 1.379 . S
C942 C939 1.363 . S
C942 N940 1.356 . S
C943 C937 1.363 . S
C943 C938 1.379 . S
C943 N941 1.356 . S
N944 C936 1.356 . S
N944 H950 0.984 . S
N944 H951 0.984 . S
N945 C938 1.356 . S
N945 H948 0.984 . S
N945 H949 0.985 . S
H946 N941 0.984 . S
H947 N941 0.985 . S
H948 N945 0.984 . S
H949 N945 0.985 . S
H950 N944 0.984 . S
H951 N944 0.984 . S
H952 N940 0.984 . S
H953 N940 0.985 . S
C954 C955 1.363 . S
C954 C960 1.379 . S
C954 N962 1.356 . S
C955 C954 1.363 . S
C955 C961 1.363 . S
C956 C957 1.363 . S
C956 C961 1.379 . S
C956 N963 1.356 . S
C957 C956 1.363 . S
C957 C960 1.363 . S
N958 C960 1.356 . S
N958 H970 0.984 . S
N958 H971 0.985 . S
N959 C961 1.356 . S
N959 H964 0.984 . S
N959 H965 0.985 . S
C960 C954 1.379 . S
C960 C957 1.363 . S
C960 N958 1.356 . S
C961 C955 1.363 . S
C961 C956 1.379 . S
C961 N959 1.356 . S
N962 C954 1.356 . S
N962 H968 0.984 . S
N962 H969 0.984 . S
N963 C956 1.356 . S
N963 H966 0.984 . S
N963 H967 0.985 . S
H964 N959 0.984 . S
H965 N959 0.985 . S
H966 N963 0.984 . S
H967 N963 0.985 . S
H968 N962 0.984 . S
H969 N962 0.984 . S
H970 N958 0.984 . S
H971 N958 0.985 . S
C972 C973 1.363 . S
C972 C978 1.379 . S
C972 N980 1.356 . S
C973 C972 1.363 . S
C973 C979 1.363 . S
C974 C975 1.363 . S
C974 C979 1.379 . S
C974 N981 1.356 . S
C975 C974 1.363 . S
C975 C978 1.363 . S
N976 C978 1.356 . S
N976 H988 0.984 . S
N976 H989 0.985 . S
N977 C979 1.356 . S
N977 H982 0.984 . S
N977 H983 0.985 . S
C978 C972 1.379 . S
C978 C975 1.363 . S
C978 N976 1.356 . S
C979 C973 1.363 . S
C979 C974 1.379 . S
C979 N977 1.356 . S
N980 C972 1.356 . S
N980 H986 0.984 . S
N980 H987 0.984 . S
N981 C974 1.356 . S
N981 H984 0.984 . S
N981 H985 0.985 . S
H982 N977 0.984 . S
H983 N977 0.985 . S
H984 N981 0.984 . S
H985 N981 0.985 . S
H986 N980 0.984 . S
H987 N980 0.984 . S
H988 N976 0.984 . S
H989 N976 0.985 . S
C990 C991 1.363 . S
C990 C996 1.379 . S
C990 N998 1.356 . S
C991 C990 1.363 . S
C991 C997 1.363 . S
C992 C993 1.363 . S
C992 C997 1.379 . S
C992 N999 1.356 . S
C993 C992 1.363 . S
C993 C996 1.363 . S
N994 C996 1.356 . S
N994 H1006 0.984 . S
N994 H1007 0.985 . S
N995 C997 1.356 . S
N995 H1000 0.984 . S
N995 H1001 0.985 . S
C996 C990 1.379 . S
C996 C993 1.363 . S
C996 N994 1.356 . S
C997 C991 1.363 . S
C997 C992 1.379 . S
C997 N995 1.356 . S
N998 C990 1.356 . S
N998 H1004 0.984 . S
N998 H1005 0.984 . S
N999 C992 1.356 . S
N999 H1002 0.984 . S
N999 H1003 0.985 . S
H1000 N995 0.984 . S
H1001 N995 0.985 . S
H1002 N999 0.984 . S
H1003 N999 0.985 . S
H1004 N998 0.984 . S
H1005 N998 0.984 . S
H1006 N994 0.984 . S
H1007 N994 0.985 . S
C1008 C1009 1.363 . S
C1008 C1014 1.379 . S
C1008 N1016 1.356 . S
C1009 C1008 1.363 . S
C1009 C1015 1.363 . S
C1010 C1011 1.363 . S
C1010 C1015 1.379 . S
C1010 N1017 1.356 . S
C1011 C1010 1.363 . S
C1011 C1014 1.363 . S
N1012 C1014 1.356 . S
N1012 H1024 0.984 . S
N1012 H1025 0.985 . S
N1013 C1015 1.356 . S
N1013 H1018 0.984 . S
N1013 H1019 0.985 . S
C1014 C1008 1.379 . S
C1014 C1011 1.363 . S
C1014 N1012 1.356 . S
C1015 C1009 1.363 . S
C1015 C1010 1.379 . S
C1015 N1013 1.356 . S
N1016 C1008 1.356 . S
N1016 H1022 0.984 . S
N1016 H1023 0.984 . S
N1017 C1010 1.356 . S
N1017 H1020 0.984 . S
N1017 H1021 0.985 . S
H1018 N1013 0.984 . S
H1019 N1013 0.985 . S
H1020 N1017 0.984 . S
H1021 N1017 0.985 . S
H1022 N1016 0.984 . S
H1023 N1016 0.984 . S
H1024 N1012 0.984 . S
H1025 N1012 0.985 . S
C1026 C1027 1.363 . S
C1026 C1032 1.379 . S
C1026 N1034 1.356 . S
C1027 C1026 1.363 . S
C1027 C1033 1.363 . S
C1028 C1029 1.363 . S
C1028 C1033 1.379 . S
C1028 N1035 1.356 . S
C1029 C1028 1.363 . S
C1029 C1032 1.363 . S
N1030 C1032 1.356 . S
N1030 H1042 0.984 . S
N1030 H1043 0.985 . S
N1031 C1033 1.356 . S
N1031 H1036 0.984 . S
N1031 H1037 0.985 . S
C1032 C1026 1.379 . S
C1032 C1029 1.363 . S
C1032 N1030 1.356 . S
C1033 C1027 1.363 . S
C1033 C1028 1.379 . S
C1033 N1031 1.356 . S
N1034 C1026 1.356 . S
N1034 H1040 0.984 . S
N1034 H1041 0.984 . S
N1035 C1028 1.356 . S
N1035 H1038 0.984 . S
N1035 H1039 0.985 . S
H1036 N1031 0.984 . S
H1037 N1031 0.985 . S
H1038 N1035 0.984 . S
H1039 N1035 0.985 . S
H1040 N1034 0.984 . S
H1041 N1034 0.984 . S
H1042 N1030 0.984 . S
H1043 N1030 0.985 . S
C1044 C1045 1.363 . S
C1044 C1050 1.379 . S
C1044 N1052 1.356 . S
C1045 C1044 1.363 . S
C1045 C1051 1.363 . S
C1046 C1047 1.363 . S
C1046 C1051 1.379 . S
C1046 N1053 1.356 . S
C1047 C1046 1.363 . S
C1047 C1050 1.363 . S
N1048 C1050 1.356 . S
N1048 H1060 0.984 . S
N1048 H1061 0.985 . S
N1049 C1051 1.356 . S
N1049 H1054 0.984 . S
N1049 H1055 0.985 . S
C1050 C1044 1.379 . S
C1050 C1047 1.363 . S
C1050 N1048 1.356 . S
C1051 C1045 1.363 . S
C1051 C1046 1.379 . S
C1051 N1049 1.356 . S
N1052 C1044 1.356 . S
N1052 H1058 0.984 . S
N1052 H1059 0.984 . S
N1053 C1046 1.356 . S
N1053 H1056 0.984 . S
N1053 H1057 0.985 . S
H1054 N1049 0.984 . S
H1055 N1049 0.985 . S
H1056 N1053 0.984 . S
H1057 N1053 0.985 . S
H1058 N1052 0.984 . S
H1059 N1052 0.984 . S
H1060 N1048 0.984 . S
H1061 N1048 0.985 . S
C1062 C1063 1.363 . S
C1062 C1068 1.379 . S
C1062 N1070 1.356 . S
C1063 C1062 1.363 . S
C1063 C1069 1.363 . S
C1064 C1065 1.363 . S
C1064 C1069 1.379 . S
C1064 N1071 1.356 . S
C1065 C1064 1.363 . S
C1065 C1068 1.363 . S
N1066 C1068 1.356 . S
N1066 H1078 0.984 . S
N1066 H1079 0.985 . S
N1067 C1069 1.356 . S
N1067 H1072 0.984 . S
N1067 H1073 0.985 . S
C1068 C1062 1.379 . S
C1068 C1065 1.363 . S
C1068 N1066 1.356 . S
C1069 C1063 1.363 . S
C1069 C1064 1.379 . S
C1069 N1067 1.356 . S
N1070 C1062 1.356 . S
N1070 H1076 0.984 . S
N1070 H1077 0.984 . S
N1071 C1064 1.356 . S
N1071 H1074 0.984 . S
N1071 H1075 0.985 . S
H1072 N1067 0.984 . S
H1073 N1067 0.985 . S
H1074 N1071 0.984 . S
H1075 N1071 0.985 . S
H1076 N1070 0.984 . S
H1077 N1070 0.984 . S
H1078 N1066 0.984 . S
H1079 N1066 0.985 . S
C1080 C1081 1.363 . S
C1080 C1086 1.379 . S
C1080 N1088 1.356 . S
C1081 C1080 1.363 . S
C1081 C1087 1.363 . S
C1082 C1083 1.363 . S
C1082 C1087 1.379 . S
C1082 N1089 1.356 . S
C1083 C1082 1.363 . S
C1083 C1086 1.363 . S
N1084 C1086 1.356 . S
N1084 H1096 0.984 . S
N1084 H1097 0.985 . S
N1085 C1087 1.356 . S
N1085 H1090 0.984 . S
N1085 H1091 0.985 . S
C1086 C1080 1.379 . S
C1086 C1083 1.363 . S
C1086 N1084 1.356 . S
C1087 C1081 1.363 . S
C1087 C1082 1.379 . S
C1087 N1085 1.356 . S
N1088 C1080 1.356 . S
N1088 H1094 0.984 . S
N1088 H1095 0.984 . S
N1089 C1082 1.356 . S
N1089 H1092 0.984 . S
N1089 H1093 0.985 . S
H1090 N1085 0.984 . S
H1091 N1085 0.985 . S
H1092 N1089 0.984 . S
H1093 N1089 0.985 . S
H1094 N1088 0.984 . S
H1095 N1088 0.984 . S
H1096 N1084 0.984 . S
H1097 N1084 0.985 . S
C1098 C1099 1.363 . S
C1098 C1104 1.379 . S
C1098 N1106 1.356 . S
C1099 C1098 1.363 . S
C1099 C1105 1.363 . S
C1100 C1101 1.363 . S
C1100 C1105 1.379 . S
C1100 N1107 1.356 . S
C1101 C1100 1.363 . S
C1101 C1104 1.363 . S
N1102 C1104 1.356 . S
N1102 H1114 0.984 . S
N1102 H1115 0.985 1_554 S
N1103 C1105 1.356 . S
N1103 H1108 0.984 . S
N1103 H1109 0.985 . S
C1104 C1098 1.379 . S
C1104 C1101 1.363 . S
C1104 N1102 1.356 . S
C1105 C1099 1.363 . S
C1105 C1100 1.379 . S
C1105 N1103 1.356 . S
N1106 C1098 1.356 . S
N1106 H1112 0.984 . S
N1106 H1113 0.984 . S
N1107 C1100 1.356 . S
N1107 H1110 0.984 1_554 S
N1107 H1111 0.985 . S
H1108 N1103 0.984 . S
H1109 N1103 0.985 . S
H1110 N1107 0.984 1_556 S
H1111 N1107 0.985 . S
H1112 N1106 0.984 . S
H1113 N1106 0.984 . S
H1114 N1102 0.984 . S
H1115 N1102 0.985 1_556 S
C1116 C1117 1.363 . S
C1116 C1122 1.379 . S
C1116 N1124 1.356 . S
C1117 C1116 1.363 . S
C1117 C1123 1.363 . S
C1118 C1119 1.363 . S
C1118 C1123 1.379 . S
C1118 N1125 1.356 . S
C1119 C1118 1.363 . S
C1119 C1122 1.363 . S
N1120 C1122 1.356 . S
N1120 H1132 0.984 . S
N1120 H1133 0.985 . S
N1121 C1123 1.356 . S
N1121 H1126 0.984 1_554 S
N1121 H1127 0.985 . S
C1122 C1116 1.379 . S
C1122 C1119 1.363 . S
C1122 N1120 1.356 . S
C1123 C1117 1.363 . S
C1123 C1118 1.379 . S
C1123 N1121 1.356 . S
N1124 C1116 1.356 . S
N1124 H1130 0.984 . S
N1124 H1131 0.984 1_554 S
N1125 C1118 1.356 . S
N1125 H1128 0.984 . S
N1125 H1129 0.985 . S
H1126 N1121 0.984 1_556 S
H1127 N1121 0.985 . S
H1128 N1125 0.984 . S
H1129 N1125 0.985 . S
H1130 N1124 0.984 . S
H1131 N1124 0.984 1_556 S
H1132 N1120 0.984 . S
H1133 N1120 0.985 . S
C1134 C1135 1.363 . S
C1134 C1140 1.379 . S
C1134 N1142 1.356 . S
C1135 C1134 1.363 . S
C1135 C1141 1.363 . S
C1136 C1137 1.363 . S
C1136 C1141 1.379 . S
C1136 N1143 1.356 . S
C1137 C1136 1.363 . S
C1137 C1140 1.363 . S
N1138 C1140 1.356 . S
N1138 H1150 0.984 . S
N1138 H1151 0.985 1_554 S
N1139 C1141 1.356 . S
N1139 H1144 0.984 . S
N1139 H1145 0.985 . S
C1140 C1134 1.379 . S
C1140 C1137 1.363 . S
C1140 N1138 1.356 . S
C1141 C1135 1.363 . S
C1141 C1136 1.379 . S
C1141 N1139 1.356 . S
N1142 C1134 1.356 . S
N1142 H1148 0.984 . S
N1142 H1149 0.984 . S
N1143 C1136 1.356 . S
N1143 H1146 0.984 1_554 S
N1143 H1147 0.985 . S
H1144 N1139 0.984 . S
H1145 N1139 0.985 . S
H1146 N1143 0.984 1_556 S
H1147 N1143 0.985 . S
H1148 N1142 0.984 . S
H1149 N1142 0.984 . S
H1150 N1138 0.984 . S
H1151 N1138 0.985 1_556 S
C1152 C1153 1.363 . S
C1152 C1158 1.379 . S
C1152 N1160 1.356 . S
C1153 C1152 1.363 . S
C1153 C1159 1.363 . S
C1154 C1155 1.363 . S
C1154 C1159 1.379 . S
C1154 N1161 1.356 . S
C1155 C1154 1.363 . S
C1155 C1158 1.363 . S
N1156 C1158 1.356 . S
N1156 H1168 0.984 . S
N1156 H1169 0.985 . S
N1157 C1159 1.356 . S
N1157 H1162 0.984 . S
N1157 H1163 0.985 . S
C1158 C1152 1.379 . S
C1158 C1155 1.363 . S
C1158 N1156 1.356 . S
C1159 C1153 1.363 . S
C1159 C1154 1.379 . S
C1159 N1157 1.356 . S
N1160 C1152 1.356 . S
N1160 H1166 0.984 . S
N1160 H1167 0.984 . S
N1161 C1154 1.356 . S
N1161 H1164 0.984 . S
N1161 H1165 0.985 . S
H1162 N1157 0.984 . S
H1163 N1157 0.985 . S
H1164 N1161 0.984 . S
H1165 N1161 0.985 . S
H1166 N1160 0.984 . S
H1167 N1160 0.984 . S
H1168 N1156 0.984 . S
H1169 N1156 0.985 . S
C1170 C1171 1.363 . S
C1170 C1176 1.379 1_565 S
C1170 N1178 1.356 . S
C1171 C1170 1.363 . S
C1171 C1177 1.363 . S
C1172 C1173 1.363 . S
C1172 C1177 1.379 1_545 S
C1172 N1179 1.356 . S
C1173 C1172 1.363 . S
C1173 C1176 1.363 . S
N1174 C1176 1.356 . S
N1174 H1186 0.984 . S
N1174 H1187 0.985 . S
N1175 C1177 1.356 . S
N1175 H1180 0.984 . S
N1175 H1181 0.985 . S
C1176 C1170 1.379 1_545 S
C1176 C1173 1.363 . S
C1176 N1174 1.356 . S
C1177 C1171 1.363 . S
C1177 C1172 1.379 1_565 S
C1177 N1175 1.356 . S
N1178 C1170 1.356 . S
N1178 H1184 0.984 . S
N1178 H1185 0.984 . S
N1179 C1172 1.356 . S
N1179 H1182 0.984 . S
N1179 H1183 0.985 . S
H1180 N1175 0.984 . S
H1181 N1175 0.985 . S
H1182 N1179 0.984 . S
H1183 N1179 0.985 . S
H1184 N1178 0.984 . S
H1185 N1178 0.984 . S
H1186 N1174 0.984 . S
H1187 N1174 0.985 . S
C1188 C1189 1.363 . S
C1188 C1194 1.379 1_655 S
C1188 N1196 1.356 . S
C1189 C1188 1.363 . S
C1189 C1195 1.363 . S
C1190 C1191 1.363 . S
C1190 C1195 1.379 1_455 S
C1190 N1197 1.356 . S
C1191 C1190 1.363 . S
C1191 C1194 1.363 . S
N1192 C1194 1.356 . S
N1192 H1204 0.984 . S
N1192 H1205 0.985 . S
N1193 C1195 1.356 . S
N1193 H1198 0.984 . S
N1193 H1199 0.985 . S
C1194 C1188 1.379 1_455 S
C1194 C1191 1.363 . S
C1194 N1192 1.356 . S
C1195 C1189 1.363 . S
C1195 C1190 1.379 1_655 S
C1195 N1193 1.356 . S
N1196 C1188 1.356 . S
N1196 H1202 0.984 . S
N1196 H1203 0.984 . S
N1197 C1190 1.356 . S
N1197 H1200 0.984 . S
N1197 H1201 0.985 . S
H1198 N1193 0.984 . S
H1199 N1193 0.985 . S
H1200 N1197 0.984 . S
H1201 N1197 0.985 . S
H1202 N1196 0.984 . S
H1203 N1196 0.984 . S
H1204 N1192 0.984 . S
H1205 N1192 0.985 . S
C1206 C1207 1.363 . S
C1206 C1212 1.379 . S
C1206 N1214 1.356 . S
C1207 C1206 1.363 . S
C1207 C1213 1.363 . S
C1208 C1209 1.363 . S
C1208 C1213 1.379 . S
C1208 N1215 1.356 . S
C1209 C1208 1.363 . S
C1209 C1212 1.363 . S
N1210 C1212 1.356 . S
N1210 H1222 0.984 . S
N1210 H1223 0.985 . S
N1211 C1213 1.356 . S
N1211 H1216 0.984 . S
N1211 H1217 0.985 . S
C1212 C1206 1.379 . S
C1212 C1209 1.363 . S
C1212 N1210 1.356 . S
C1213 C1207 1.363 . S
C1213 C1208 1.379 . S
C1213 N1211 1.356 . S
N1214 C1206 1.356 . S
N1214 H1220 0.984 . S
N1214 H1221 0.984 . S
N1215 C1208 1.356 . S
N1215 H1218 0.984 . S
N1215 H1219 0.985 . S
H1216 N1211 0.984 . S
H1217 N1211 0.985 . S
H1218 N1215 0.984 . S
H1219 N1215 0.985 . S
H1220 N1214 0.984 . S
H1221 N1214 0.984 . S
H1222 N1210 0.984 . S
H1223 N1210 0.985 . S
C1224 C1225 1.363 . S
C1224 C1230 1.379 1_545 S
C1224 N1232 1.356 . S
C1225 C1224 1.363 . S
C1225 C1231 1.363 . S
C1226 C1227 1.363 . S
C1226 C1231 1.379 1_565 S
C1226 N1233 1.356 . S
C1227 C1226 1.363 . S
C1227 C1230 1.363 . S
N1228 C1230 1.356 . S
N1228 H1240 0.984 . S
N1228 H1241 0.985 . S
N1229 C1231 1.356 . S
N1229 H1234 0.984 . S
N1229 H1235 0.985 . S
C1230 C1224 1.379 1_565 S
C1230 C1227 1.363 . S
C1230 N1228 1.356 . S
C1231 C1225 1.363 . S
C1231 C1226 1.379 1_545 S
C1231 N1229 1.356 . S
N1232 C1224 1.356 . S
N1232 H1238 0.984 . S
N1232 H1239 0.984 . S
N1233 C1226 1.356 . S
N1233 H1236 0.984 . S
N1233 H1237 0.985 . S
H1234 N1229 0.984 . S
H1235 N1229 0.985 . S
H1236 N1233 0.984 . S
H1237 N1233 0.985 . S
H1238 N1232 0.984 . S
H1239 N1232 0.984 . S
H1240 N1228 0.984 . S
H1241 N1228 0.985 . S
C1242 C1243 1.363 . S
C1242 C1248 1.379 1_655 S
C1242 N1250 1.356 . S
C1243 C1242 1.363 . S
C1243 C1249 1.363 . S
C1244 C1245 1.363 . S
C1244 C1249 1.379 1_455 S
C1244 N1251 1.356 . S
C1245 C1244 1.363 . S
C1245 C1248 1.363 . S
N1246 C1248 1.356 . S
N1246 H1258 0.984 . S
N1246 H1259 0.985 . S
N1247 C1249 1.356 . S
N1247 H1252 0.984 . S
N1247 H1253 0.985 . S
C1248 C1242 1.379 1_455 S
C1248 C1245 1.363 . S
C1248 N1246 1.356 . S
C1249 C1243 1.363 . S
C1249 C1244 1.379 1_655 S
C1249 N1247 1.356 . S
N1250 C1242 1.356 . S
N1250 H1256 0.984 . S
N1250 H1257 0.984 . S
N1251 C1244 1.356 . S
N1251 H1254 0.984 . S
N1251 H1255 0.985 . S
H1252 N1247 0.984 . S
H1253 N1247 0.985 . S
H1254 N1251 0.984 . S
H1255 N1251 0.985 . S
H1256 N1250 0.984 . S
H1257 N1250 0.984 . S
H1258 N1246 0.984 . S
H1259 N1246 0.985 . S
C1260 C1261 1.363 . S
C1260 C1266 1.379 . S
C1260 N1268 1.356 . S
C1261 C1260 1.363 . S
C1261 C1267 1.363 . S
C1262 C1263 1.363 . S
C1262 C1267 1.379 . S
C1262 N1269 1.356 . S
C1263 C1262 1.363 . S
C1263 C1266 1.363 . S
N1264 C1266 1.356 . S
N1264 H1276 0.984 . S
N1264 H1277 0.985 . S
N1265 C1267 1.356 . S
N1265 H1270 0.984 . S
N1265 H1271 0.985 . S
C1266 C1260 1.379 . S
C1266 C1263 1.363 . S
C1266 N1264 1.356 . S
C1267 C1261 1.363 . S
C1267 C1262 1.379 . S
C1267 N1265 1.356 . S
N1268 C1260 1.356 . S
N1268 H1274 0.984 . S
N1268 H1275 0.984 . S
N1269 C1262 1.356 . S
N1269 H1272 0.984 . S
N1269 H1273 0.985 . S
H1270 N1265 0.984 . S
H1271 N1265 0.985 . S
H1272 N1269 0.984 . S
H1273 N1269 0.985 . S
H1274 N1268 0.984 . S
H1275 N1268 0.984 . S
H1276 N1264 0.984 . S
H1277 N1264 0.985 . S
C1278 C1279 1.363 . S
C1278 C1284 1.379 . S
C1278 N1286 1.356 . S
C1279 C1278 1.363 . S
C1279 C1285 1.363 . S
C1280 C1281 1.363 . S
C1280 C1285 1.379 . S
C1280 N1287 1.356 . S
C1281 C1280 1.363 . S
C1281 C1284 1.363 . S
N1282 C1284 1.356 . S
N1282 H1294 0.984 . S
N1282 H1295 0.985 . S
N1283 C1285 1.356 . S
N1283 H1288 0.984 . S
N1283 H1289 0.985 . S
C1284 C1278 1.379 . S
C1284 C1281 1.363 . S
C1284 N1282 1.356 . S
C1285 C1279 1.363 . S
C1285 C1280 1.379 . S
C1285 N1283 1.356 . S
N1286 C1278 1.356 . S
N1286 H1292 0.984 . S
N1286 H1293 0.984 . S
N1287 C1280 1.356 . S
N1287 H1290 0.984 . S
N1287 H1291 0.985 . S
H1288 N1283 0.984 . S
H1289 N1283 0.985 . S
H1290 N1287 0.984 . S
H1291 N1287 0.985 . S
H1292 N1286 0.984 . S
H1293 N1286 0.984 . S
H1294 N1282 0.984 . S
H1295 N1282 0.985 . S
C1296 C1297 1.363 . S
C1296 C1302 1.379 . S
C1296 N1304 1.356 . S
C1297 C1296 1.363 . S
C1297 C1303 1.363 . S
C1298 C1299 1.363 . S
C1298 C1303 1.379 . S
C1298 N1305 1.356 . S
C1299 C1298 1.363 . S
C1299 C1302 1.363 . S
N1300 C1302 1.356 . S
N1300 H1312 0.984 . S
N1300 H1313 0.985 . S
N1301 C1303 1.356 . S
N1301 H1306 0.984 . S
N1301 H1307 0.985 . S
C1302 C1296 1.379 . S
C1302 C1299 1.363 . S
C1302 N1300 1.356 . S
C1303 C1297 1.363 . S
C1303 C1298 1.379 . S
C1303 N1301 1.356 . S
N1304 C1296 1.356 . S
N1304 H1310 0.984 . S
N1304 H1311 0.984 . S
N1305 C1298 1.356 . S
N1305 H1308 0.984 . S
N1305 H1309 0.985 . S
H1306 N1301 0.984 . S
H1307 N1301 0.985 . S
H1308 N1305 0.984 . S
H1309 N1305 0.985 . S
H1310 N1304 0.984 . S
H1311 N1304 0.984 . S
H1312 N1300 0.984 . S
H1313 N1300 0.985 . S
C1314 C1315 1.363 . S
C1314 C1320 1.379 . S
C1314 N1322 1.356 . S
C1315 C1314 1.363 . S
C1315 C1321 1.363 . S
C1316 C1317 1.363 . S
C1316 C1321 1.379 . S
C1316 N1323 1.356 1_554 S
C1317 C1316 1.363 . S
C1317 C1320 1.363 . S
N1318 C1320 1.356 . S
N1318 H1330 0.984 . S
N1318 H1331 0.985 . S
N1319 C1321 1.356 . S
N1319 H1324 0.984 . S
N1319 H1325 0.985 1_554 S
C1320 C1314 1.379 . S
C1320 C1317 1.363 . S
C1320 N1318 1.356 . S
C1321 C1315 1.363 . S
C1321 C1316 1.379 . S
C1321 N1319 1.356 . S
N1322 C1314 1.356 . S
N1322 H1328 0.984 . S
N1322 H1329 0.984 . S
N1323 C1316 1.356 1_556 S
N1323 H1326 0.984 . S
N1323 H1327 0.985 . S
H1324 N1319 0.984 . S
H1325 N1319 0.985 1_556 S
H1326 N1323 0.984 . S
H1327 N1323 0.985 . S
H1328 N1322 0.984 . S
H1329 N1322 0.984 . S
H1330 N1318 0.984 . S
H1331 N1318 0.985 . S
C1332 C1333 1.363 . S
C1332 C1338 1.379 . S
C1332 N1340 1.356 . S
C1333 C1332 1.363 . S
C1333 C1339 1.363 . S
C1334 C1335 1.363 . S
C1334 C1339 1.379 . S
C1334 N1341 1.356 . S
C1335 C1334 1.363 . S
C1335 C1338 1.363 . S
N1336 C1338 1.356 . S
N1336 H1348 0.984 . S
N1336 H1349 0.985 . S
N1337 C1339 1.356 1_556 S
N1337 H1342 0.984 . S
N1337 H1343 0.985 . S
C1338 C1332 1.379 . S
C1338 C1335 1.363 . S
C1338 N1336 1.356 . S
C1339 C1333 1.363 . S
C1339 C1334 1.379 . S
C1339 N1337 1.356 1_554 S
N1340 C1332 1.356 . S
N1340 H1346 0.984 . S
N1340 H1347 0.984 . S
N1341 C1334 1.356 . S
N1341 H1344 0.984 . S
N1341 H1345 0.985 1_554 S
H1342 N1337 0.984 . S
H1343 N1337 0.985 . S
H1344 N1341 0.984 . S
H1345 N1341 0.985 1_556 S
H1346 N1340 0.984 . S
H1347 N1340 0.984 . S
H1348 N1336 0.984 . S
H1349 N1336 0.985 . S
C1350 C1351 1.363 . S
C1350 C1356 1.379 . S
C1350 N1358 1.356 . S
C1351 C1350 1.363 . S
C1351 C1357 1.363 . S
C1352 C1353 1.363 . S
C1352 C1357 1.379 . S
C1352 N1359 1.356 . S
C1353 C1352 1.363 . S
C1353 C1356 1.363 . S
N1354 C1356 1.356 1_556 S
N1354 H1366 0.984 . S
N1354 H1367 0.985 . S
N1355 C1357 1.356 . S
N1355 H1360 0.984 . S
N1355 H1361 0.985 . S
C1356 C1350 1.379 . S
C1356 C1353 1.363 . S
C1356 N1354 1.356 1_554 S
C1357 C1351 1.363 . S
C1357 C1352 1.379 . S
C1357 N1355 1.356 . S
N1358 C1350 1.356 . S
N1358 H1364 0.984 1_554 S
N1358 H1365 0.984 . S
N1359 C1352 1.356 . S
N1359 H1362 0.984 . S
N1359 H1363 0.985 . S
H1360 N1355 0.984 . S
H1361 N1355 0.985 . S
H1362 N1359 0.984 . S
H1363 N1359 0.985 . S
H1364 N1358 0.984 1_556 S
H1365 N1358 0.984 . S
H1366 N1354 0.984 . S
H1367 N1354 0.985 . S
C1368 C1369 1.363 . S
C1368 C1374 1.379 . S
C1368 N1376 1.356 . S
C1369 C1368 1.363 . S
C1369 C1375 1.363 . S
C1370 C1371 1.363 . S
C1370 C1375 1.379 . S
C1370 N1377 1.356 . S
C1371 C1370 1.363 . S
C1371 C1374 1.363 . S
N1372 C1374 1.356 . S
N1372 H1384 0.984 . S
N1372 H1385 0.985 . S
N1373 C1375 1.356 1_554 S
N1373 H1378 0.984 . S
N1373 H1379 0.985 . S
C1374 C1368 1.379 . S
C1374 C1371 1.363 . S
C1374 N1372 1.356 . S
C1375 C1369 1.363 . S
C1375 C1370 1.379 . S
C1375 N1373 1.356 1_556 S
N1376 C1368 1.356 . S
N1376 H1382 0.984 . S
N1376 H1383 0.984 . S
N1377 C1370 1.356 . S
N1377 H1380 0.984 . S
N1377 H1381 0.985 1_556 S
H1378 N1373 0.984 . S
H1379 N1373 0.985 . S
H1380 N1377 0.984 . S
H1381 N1377 0.985 1_554 S
H1382 N1376 0.984 . S
H1383 N1376 0.984 . S
H1384 N1372 0.984 . S
H1385 N1372 0.985 . S
C1386 C1387 1.363 . S
C1386 C1392 1.379 . S
C1386 N1394 1.356 1_556 S
C1387 C1386 1.363 . S
C1387 C1393 1.363 . S
C1388 C1389 1.363 . S
C1388 C1393 1.379 . S
C1388 N1395 1.356 . S
C1389 C1388 1.363 . S
C1389 C1392 1.363 . S
N1390 C1392 1.356 . S
N1390 H1402 0.984 1_556 S
N1390 H1403 0.985 . S
N1391 C1393 1.356 . S
N1391 H1396 0.984 . S
N1391 H1397 0.985 . S
C1392 C1386 1.379 . S
C1392 C1389 1.363 . S
C1392 N1390 1.356 . S
C1393 C1387 1.363 . S
C1393 C1388 1.379 . S
C1393 N1391 1.356 . S
N1394 C1386 1.356 1_554 S
N1394 H1400 0.984 . S
N1394 H1401 0.984 . S
N1395 C1388 1.356 . S
N1395 H1398 0.984 . S
N1395 H1399 0.985 . S
H1396 N1391 0.984 . S
H1397 N1391 0.985 . S
H1398 N1395 0.984 . S
H1399 N1395 0.985 . S
H1400 N1394 0.984 . S
H1401 N1394 0.984 . S
H1402 N1390 0.984 1_554 S
H1403 N1390 0.985 . S
C1404 C1405 1.363 . S
C1404 C1410 1.379 . S
C1404 N1412 1.356 . S
C1405 C1404 1.363 . S
C1405 C1411 1.363 . S
C1406 C1407 1.363 . S
C1406 C1411 1.379 . S
C1406 N1413 1.356 1_556 S
C1407 C1406 1.363 . S
C1407 C1410 1.363 . S
N1408 C1410 1.356 . S
N1408 H1420 0.984 . S
N1408 H1421 0.985 . S
N1409 C1411 1.356 . S
N1409 H1414 0.984 . S
N1409 H1415 0.985 1_556 S
C1410 C1404 1.379 . S
C1410 C1407 1.363 . S
C1410 N1408 1.356 . S
C1411 C1405 1.363 . S
C1411 C1406 1.379 . S
C1411 N1409 1.356 . S
N1412 C1404 1.356 . S
N1412 H1418 0.984 . S
N1412 H1419 0.984 . S
N1413 C1406 1.356 1_554 S
N1413 H1416 0.984 . S
N1413 H1417 0.985 . S
H1414 N1409 0.984 . S
H1415 N1409 0.985 1_554 S
H1416 N1413 0.984 . S
H1417 N1413 0.985 . S
H1418 N1412 0.984 . S
H1419 N1412 0.984 . S
H1420 N1408 0.984 . S
H1421 N1408 0.985 . S
C1422 C1423 1.363 . S
C1422 C1428 1.379 . S
C1422 N1430 1.356 . S
C1423 C1422 1.363 . S
C1423 C1429 1.363 . S
C1424 C1425 1.363 . S
C1424 C1429 1.379 . S
C1424 N1431 1.356 . S
C1425 C1424 1.363 . S
C1425 C1428 1.363 . S
N1426 C1428 1.356 . S
N1426 H1438 0.984 . S
N1426 H1439 0.985 . S
N1427 C1429 1.356 . S
N1427 H1432 0.984 . S
N1427 H1433 0.985 . S
C1428 C1422 1.379 . S
C1428 C1425 1.363 . S
C1428 N1426 1.356 . S
C1429 C1423 1.363 . S
C1429 C1424 1.379 . S
C1429 N1427 1.356 . S
N1430 C1422 1.356 . S
N1430 H1436 0.984 . S
N1430 H1437 0.984 . S
N1431 C1424 1.356 . S
N1431 H1434 0.984 . S
N1431 H1435 0.985 . S
H1432 N1427 0.984 . S
H1433 N1427 0.985 . S
H1434 N1431 0.984 . S
H1435 N1431 0.985 . S
H1436 N1430 0.984 . S
H1437 N1430 0.984 . S
H1438 N1426 0.984 . S
H1439 N1426 0.985 . S
C1440 C1441 1.363 . S
C1440 C1446 1.379 . S
C1440 N1448 1.356 . S
C1441 C1440 1.363 . S
C1441 C1447 1.363 . S
C1442 C1443 1.363 . S
C1442 C1447 1.379 . S
C1442 N1449 1.356 . S
C1443 C1442 1.363 . S
C1443 C1446 1.363 . S
N1444 C1446 1.356 . S
N1444 H1456 0.984 . S
N1444 H1457 0.985 . S
N1445 C1447 1.356 . S
N1445 H1450 0.984 . S
N1445 H1451 0.985 . S
C1446 C1440 1.379 . S
C1446 C1443 1.363 . S
C1446 N1444 1.356 . S
C1447 C1441 1.363 . S
C1447 C1442 1.379 . S
C1447 N1445 1.356 . S
N1448 C1440 1.356 . S
N1448 H1454 0.984 . S
N1448 H1455 0.984 . S
N1449 C1442 1.356 . S
N1449 H1452 0.984 . S
N1449 H1453 0.985 . S
H1450 N1445 0.984 . S
H1451 N1445 0.985 . S
H1452 N1449 0.984 . S
H1453 N1449 0.985 . S
H1454 N1448 0.984 . S
H1455 N1448 0.984 . S
H1456 N1444 0.984 . S
H1457 N1444 0.985 . S
C1458 C1459 1.363 . S
C1458 C1464 1.379 . S
C1458 N1466 1.356 . S
C1459 C1458 1.363 . S
C1459 C1465 1.363 . S
C1460 C1461 1.363 . S
C1460 C1465 1.379 . S
C1460 N1467 1.356 . S
C1461 C1460 1.363 . S
C1461 C1464 1.363 . S
N1462 C1464 1.356 . S
N1462 H1474 0.984 . S
N1462 H1475 0.985 . S
N1463 C1465 1.356 . S
N1463 H1468 0.984 . S
N1463 H1469 0.985 . S
C1464 C1458 1.379 . S
C1464 C1461 1.363 . S
C1464 N1462 1.356 . S
C1465 C1459 1.363 . S
C1465 C1460 1.379 . S
C1465 N1463 1.356 . S
N1466 C1458 1.356 . S
N1466 H1472 0.984 . S
N1466 H1473 0.984 . S
N1467 C1460 1.356 . S
N1467 H1470 0.984 . S
N1467 H1471 0.985 . S
H1468 N1463 0.984 . S
H1469 N1463 0.985 . S
H1470 N1467 0.984 . S
H1471 N1467 0.985 . S
H1472 N1466 0.984 . S
H1473 N1466 0.984 . S
H1474 N1462 0.984 . S
H1475 N1462 0.985 . S
C1476 C1477 1.363 . S
C1476 C1482 1.379 . S
C1476 N1484 1.356 . S
C1477 C1476 1.363 . S
C1477 C1483 1.363 . S
C1478 C1479 1.363 . S
C1478 C1483 1.379 . S
C1478 N1485 1.356 . S
C1479 C1478 1.363 . S
C1479 C1482 1.363 . S
N1480 C1482 1.356 . S
N1480 H1492 0.984 . S
N1480 H1493 0.985 . S
N1481 C1483 1.356 . S
N1481 H1486 0.984 . S
N1481 H1487 0.985 . S
C1482 C1476 1.379 . S
C1482 C1479 1.363 . S
C1482 N1480 1.356 . S
C1483 C1477 1.363 . S
C1483 C1478 1.379 . S
C1483 N1481 1.356 . S
N1484 C1476 1.356 . S
N1484 H1490 0.984 . S
N1484 H1491 0.984 . S
N1485 C1478 1.356 . S
N1485 H1488 0.984 . S
N1485 H1489 0.985 . S
H1486 N1481 0.984 . S
H1487 N1481 0.985 . S
H1488 N1485 0.984 . S
H1489 N1485 0.985 . S
H1490 N1484 0.984 . S
H1491 N1484 0.984 . S
H1492 N1480 0.984 . S
H1493 N1480 0.985 . S
C1494 C1495 1.363 . S
C1494 C1500 1.379 . S
C1494 N1502 1.356 . S
C1495 C1494 1.363 . S
C1495 C1501 1.363 . S
C1496 C1497 1.363 . S
C1496 C1501 1.379 . S
C1496 N1503 1.356 . S
C1497 C1496 1.363 . S
C1497 C1500 1.363 . S
N1498 C1500 1.356 . S
N1498 H1510 0.984 . S
N1498 H1511 0.985 . S
N1499 C1501 1.356 . S
N1499 H1504 0.984 . S
N1499 H1505 0.985 . S
C1500 C1494 1.379 . S
C1500 C1497 1.363 . S
C1500 N1498 1.356 . S
C1501 C1495 1.363 . S
C1501 C1496 1.379 . S
C1501 N1499 1.356 . S
N1502 C1494 1.356 . S
N1502 H1508 0.984 . S
N1502 H1509 0.984 . S
N1503 C1496 1.356 . S
N1503 H1506 0.984 . S
N1503 H1507 0.985 . S
H1504 N1499 0.984 . S
H1505 N1499 0.985 . S
H1506 N1503 0.984 . S
H1507 N1503 0.985 . S
H1508 N1502 0.984 . S
H1509 N1502 0.984 . S
H1510 N1498 0.984 . S
H1511 N1498 0.985 . S
C1512 C1513 1.363 . S
C1512 C1518 1.379 . S
C1512 N1520 1.356 . S
C1513 C1512 1.363 . S
C1513 C1519 1.363 . S
C1514 C1515 1.363 . S
C1514 C1519 1.379 . S
C1514 N1521 1.356 . S
C1515 C1514 1.363 . S
C1515 C1518 1.363 . S
N1516 C1518 1.356 . S
N1516 H1528 0.984 . S
N1516 H1529 0.985 . S
N1517 C1519 1.356 . S
N1517 H1522 0.984 . S
N1517 H1523 0.985 . S
C1518 C1512 1.379 . S
C1518 C1515 1.363 . S
C1518 N1516 1.356 . S
C1519 C1513 1.363 . S
C1519 C1514 1.379 . S
C1519 N1517 1.356 . S
N1520 C1512 1.356 . S
N1520 H1526 0.984 . S
N1520 H1527 0.984 . S
N1521 C1514 1.356 . S
N1521 H1524 0.984 . S
N1521 H1525 0.985 . S
H1522 N1517 0.984 . S
H1523 N1517 0.985 . S
H1524 N1521 0.984 . S
H1525 N1521 0.985 . S
H1526 N1520 0.984 . S
H1527 N1520 0.984 . S
H1528 N1516 0.984 . S
H1529 N1516 0.985 . S
C1530 C1531 1.363 . S
C1530 C1536 1.379 . S
C1530 N1538 1.356 . S
C1531 C1530 1.363 . S
C1531 C1537 1.363 . S
C1532 C1533 1.363 . S
C1532 C1537 1.379 . S
C1532 N1539 1.356 . S
C1533 C1532 1.363 . S
C1533 C1536 1.363 . S
N1534 C1536 1.356 . S
N1534 H1546 0.984 . S
N1534 H1547 0.985 . S
N1535 C1537 1.356 . S
N1535 H1540 0.984 . S
N1535 H1541 0.985 . S
C1536 C1530 1.379 . S
C1536 C1533 1.363 . S
C1536 N1534 1.356 . S
C1537 C1531 1.363 . S
C1537 C1532 1.379 . S
C1537 N1535 1.356 . S
N1538 C1530 1.356 . S
N1538 H1544 0.984 . S
N1538 H1545 0.984 . S
N1539 C1532 1.356 . S
N1539 H1542 0.984 . S
N1539 H1543 0.985 . S
H1540 N1535 0.984 . S
H1541 N1535 0.985 . S
H1542 N1539 0.984 . S
H1543 N1539 0.985 . S
H1544 N1538 0.984 . S
H1545 N1538 0.984 . S
H1546 N1534 0.984 . S
H1547 N1534 0.985 . S
C1548 C1549 1.363 . S
C1548 C1554 1.379 . S
C1548 N1556 1.356 . S
C1549 C1548 1.363 . S
C1549 C1555 1.363 . S
C1550 C1551 1.363 . S
C1550 C1555 1.379 . S
C1550 N1557 1.356 . S
C1551 C1550 1.363 . S
C1551 C1554 1.363 . S
N1552 C1554 1.356 . S
N1552 H1564 0.984 . S
N1552 H1565 0.985 . S
N1553 C1555 1.356 . S
N1553 H1558 0.984 . S
N1553 H1559 0.985 . S
C1554 C1548 1.379 . S
C1554 C1551 1.363 . S
C1554 N1552 1.356 . S
C1555 C1549 1.363 . S
C1555 C1550 1.379 . S
C1555 N1553 1.356 . S
N1556 C1548 1.356 . S
N1556 H1562 0.984 . S
N1556 H1563 0.984 . S
N1557 C1550 1.356 . S
N1557 H1560 0.984 . S
N1557 H1561 0.985 . S
H1558 N1553 0.984 . S
H1559 N1553 0.985 . S
H1560 N1557 0.984 . S
H1561 N1557 0.985 . S
H1562 N1556 0.984 . S
H1563 N1556 0.984 . S
H1564 N1552 0.984 . S
H1565 N1552 0.985 . S
C1566 C1567 1.363 . S
C1566 C1572 1.379 . S
C1566 N1574 1.356 . S
C1567 C1566 1.363 . S
C1567 C1573 1.363 . S
C1568 C1569 1.363 . S
C1568 C1573 1.379 . S
C1568 N1575 1.356 . S
C1569 C1568 1.363 . S
C1569 C1572 1.363 . S
N1570 C1572 1.356 . S
N1570 H1582 0.984 . S
N1570 H1583 0.985 . S
N1571 C1573 1.356 . S
N1571 H1576 0.984 . S
N1571 H1577 0.985 . S
C1572 C1566 1.379 . S
C1572 C1569 1.363 . S
C1572 N1570 1.356 . S
C1573 C1567 1.363 . S
C1573 C1568 1.379 . S
C1573 N1571 1.356 . S
N1574 C1566 1.356 . S
N1574 H1580 0.984 . S
N1574 H1581 0.984 . S
N1575 C1568 1.356 . S
N1575 H1578 0.984 . S
N1575 H1579 0.985 . S
H1576 N1571 0.984 . S
H1577 N1571 0.985 . S
H1578 N1575 0.984 . S
H1579 N1575 0.985 . S
H1580 N1574 0.984 . S
H1581 N1574 0.984 . S
H1582 N1570 0.984 . S
H1583 N1570 0.985 . S
C1584 C1585 1.363 . S
C1584 C1590 1.379 . S
C1584 N1592 1.356 . S
C1585 C1584 1.363 . S
C1585 C1591 1.363 . S
C1586 C1587 1.363 . S
C1586 C1591 1.379 . S
C1586 N1593 1.356 . S
C1587 C1586 1.363 . S
C1587 C1590 1.363 . S
N1588 C1590 1.356 . S
N1588 H1600 0.984 . S
N1588 H1601 0.985 . S
N1589 C1591 1.356 . S
N1589 H1594 0.984 . S
N1589 H1595 0.985 . S
C1590 C1584 1.379 . S
C1590 C1587 1.363 . S
C1590 N1588 1.356 . S
C1591 C1585 1.363 . S
C1591 C1586 1.379 . S
C1591 N1589 1.356 . S
N1592 C1584 1.356 . S
N1592 H1598 0.984 . S
N1592 H1599 0.984 . S
N1593 C1586 1.356 . S
N1593 H1596 0.984 . S
N1593 H1597 0.985 . S
H1594 N1589 0.984 . S
H1595 N1589 0.985 . S
H1596 N1593 0.984 . S
H1597 N1593 0.985 . S
H1598 N1592 0.984 . S
H1599 N1592 0.984 . S
H1600 N1588 0.984 . S
H1601 N1588 0.985 . S
C1602 C1603 1.363 . S
C1602 C1608 1.379 . S
C1602 N1610 1.356 . S
C1603 C1602 1.363 . S
C1603 C1609 1.363 . S
C1604 C1605 1.363 . S
C1604 C1609 1.379 . S
C1604 N1611 1.356 . S
C1605 C1604 1.363 . S
C1605 C1608 1.363 . S
N1606 C1608 1.356 . S
N1606 H1618 0.984 . S
N1606 H1619 0.985 . S
N1607 C1609 1.356 . S
N1607 H1612 0.984 . S
N1607 H1613 0.985 . S
C1608 C1602 1.379 . S
C1608 C1605 1.363 . S
C1608 N1606 1.356 . S
C1609 C1603 1.363 . S
C1609 C1604 1.379 . S
C1609 N1607 1.356 . S
N1610 C1602 1.356 . S
N1610 H1616 0.984 . S
N1610 H1617 0.984 . S
N1611 C1604 1.356 . S
N1611 H1614 0.984 . S
N1611 H1615 0.985 . S
H1612 N1607 0.984 . S
H1613 N1607 0.985 . S
H1614 N1611 0.984 . S
H1615 N1611 0.985 . S
H1616 N1610 0.984 . S
H1617 N1610 0.984 . S
H1618 N1606 0.984 . S
H1619 N1606 0.985 . S
C1620 C1621 1.363 . S
C1620 C1626 1.379 . S
C1620 N1628 1.356 . S
C1621 C1620 1.363 . S
C1621 C1627 1.363 . S
C1622 C1623 1.363 . S
C1622 C1627 1.379 . S
C1622 N1629 1.356 . S
C1623 C1622 1.363 . S
C1623 C1626 1.363 . S
N1624 C1626 1.356 . S
N1624 H1636 0.984 . S
N1624 H1637 0.985 . S
N1625 C1627 1.356 . S
N1625 H1630 0.984 . S
N1625 H1631 0.985 . S
C1626 C1620 1.379 . S
C1626 C1623 1.363 . S
C1626 N1624 1.356 . S
C1627 C1621 1.363 . S
C1627 C1622 1.379 . S
C1627 N1625 1.356 . S
N1628 C1620 1.356 . S
N1628 H1634 0.984 . S
N1628 H1635 0.984 . S
N1629 C1622 1.356 . S
N1629 H1632 0.984 . S
N1629 H1633 0.985 . S
H1630 N1625 0.984 . S
H1631 N1625 0.985 . S
H1632 N1629 0.984 . S
H1633 N1629 0.985 . S
H1634 N1628 0.984 . S
H1635 N1628 0.984 . S
H1636 N1624 0.984 . S
H1637 N1624 0.985 . S
C1638 C1639 1.363 . S
C1638 C1644 1.379 . S
C1638 N1646 1.356 . S
C1639 C1638 1.363 . S
C1639 C1645 1.363 . S
C1640 C1641 1.363 . S
C1640 C1645 1.379 . S
C1640 N1647 1.356 . S
C1641 C1640 1.363 . S
C1641 C1644 1.363 . S
N1642 C1644 1.356 . S
N1642 H1654 0.984 . S
N1642 H1655 0.985 . S
N1643 C1645 1.356 . S
N1643 H1648 0.984 . S
N1643 H1649 0.985 . S
C1644 C1638 1.379 . S
C1644 C1641 1.363 . S
C1644 N1642 1.356 . S
C1645 C1639 1.363 . S
C1645 C1640 1.379 . S
C1645 N1643 1.356 . S
N1646 C1638 1.356 . S
N1646 H1652 0.984 . S
N1646 H1653 0.984 . S
N1647 C1640 1.356 . S
N1647 H1650 0.984 . S
N1647 H1651 0.985 . S
H1648 N1643 0.984 . S
H1649 N1643 0.985 . S
H1650 N1647 0.984 . S
H1651 N1647 0.985 . S
H1652 N1646 0.984 . S
H1653 N1646 0.984 . S
H1654 N1642 0.984 . S
H1655 N1642 0.985 . S
C1656 C1657 1.363 . S
C1656 C1662 1.379 . S
C1656 N1664 1.356 . S
C1657 C1656 1.363 . S
C1657 C1663 1.363 . S
C1658 C1659 1.363 . S
C1658 C1663 1.379 . S
C1658 N1665 1.356 . S
C1659 C1658 1.363 . S
C1659 C1662 1.363 . S
N1660 C1662 1.356 . S
N1660 H1672 0.984 . S
N1660 H1673 0.985 . S
N1661 C1663 1.356 . S
N1661 H1666 0.984 . S
N1661 H1667 0.985 . S
C1662 C1656 1.379 . S
C1662 C1659 1.363 . S
C1662 N1660 1.356 . S
C1663 C1657 1.363 . S
C1663 C1658 1.379 . S
C1663 N1661 1.356 . S
N1664 C1656 1.356 . S
N1664 H1670 0.984 . S
N1664 H1671 0.984 . S
N1665 C1658 1.356 . S
N1665 H1668 0.984 . S
N1665 H1669 0.985 . S
H1666 N1661 0.984 . S
H1667 N1661 0.985 . S
H1668 N1665 0.984 . S
H1669 N1665 0.985 . S
H1670 N1664 0.984 . S
H1671 N1664 0.984 . S
H1672 N1660 0.984 . S
H1673 N1660 0.985 . S
C1674 C1675 1.363 . S
C1674 C1680 1.379 . S
C1674 N1682 1.356 . S
C1675 C1674 1.363 . S
C1675 C1681 1.363 . S
C1676 C1677 1.363 . S
C1676 C1681 1.379 . S
C1676 N1683 1.356 . S
C1677 C1676 1.363 . S
C1677 C1680 1.363 . S
N1678 C1680 1.356 . S
N1678 H1690 0.984 . S
N1678 H1691 0.985 . S
N1679 C1681 1.356 . S
N1679 H1684 0.984 . S
N1679 H1685 0.985 . S
C1680 C1674 1.379 . S
C1680 C1677 1.363 . S
C1680 N1678 1.356 . S
C1681 C1675 1.363 . S
C1681 C1676 1.379 . S
C1681 N1679 1.356 . S
N1682 C1674 1.356 . S
N1682 H1688 0.984 . S
N1682 H1689 0.984 . S
N1683 C1676 1.356 . S
N1683 H1686 0.984 . S
N1683 H1687 0.985 . S
H1684 N1679 0.984 . S
H1685 N1679 0.985 . S
H1686 N1683 0.984 . S
H1687 N1683 0.985 . S
H1688 N1682 0.984 . S
H1689 N1682 0.984 . S
H1690 N1678 0.984 . S
H1691 N1678 0.985 . S
C1692 C1693 1.363 . S
C1692 C1698 1.379 1_455 S
C1692 N1700 1.356 . S
C1693 C1692 1.363 . S
C1693 C1699 1.363 . S
C1694 C1695 1.363 . S
C1694 C1699 1.379 1_655 S
C1694 N1701 1.356 . S
C1695 C1694 1.363 . S
C1695 C1698 1.363 . S
N1696 C1698 1.356 . S
N1696 H1708 0.984 . S
N1696 H1709 0.985 . S
N1697 C1699 1.356 . S
N1697 H1702 0.984 . S
N1697 H1703 0.985 . S
C1698 C1692 1.379 1_655 S
C1698 C1695 1.363 . S
C1698 N1696 1.356 . S
C1699 C1693 1.363 . S
C1699 C1694 1.379 1_455 S
C1699 N1697 1.356 . S
N1700 C1692 1.356 . S
N1700 H1706 0.984 . S
N1700 H1707 0.984 . S
N1701 C1694 1.356 . S
N1701 H1704 0.984 . S
N1701 H1705 0.985 . S
H1702 N1697 0.984 . S
H1703 N1697 0.985 . S
H1704 N1701 0.984 . S
H1705 N1701 0.985 . S
H1706 N1700 0.984 . S
H1707 N1700 0.984 . S
H1708 N1696 0.984 . S
H1709 N1696 0.985 . S
C1710 C1711 1.363 . S
C1710 C1716 1.379 . S
C1710 N1718 1.356 . S
C1711 C1710 1.363 . S
C1711 C1717 1.363 . S
C1712 C1713 1.363 . S
C1712 C1717 1.379 . S
C1712 N1719 1.356 . S
C1713 C1712 1.363 . S
C1713 C1716 1.363 . S
N1714 C1716 1.356 . S
N1714 H1726 0.984 . S
N1714 H1727 0.985 . S
N1715 C1717 1.356 . S
N1715 H1720 0.984 . S
N1715 H1721 0.985 . S
C1716 C1710 1.379 . S
C1716 C1713 1.363 . S
C1716 N1714 1.356 . S
C1717 C1711 1.363 . S
C1717 C1712 1.379 . S
C1717 N1715 1.356 . S
N1718 C1710 1.356 . S
N1718 H1724 0.984 . S
N1718 H1725 0.984 . S
N1719 C1712 1.356 . S
N1719 H1722 0.984 . S
N1719 H1723 0.985 . S
H1720 N1715 0.984 . S
H1721 N1715 0.985 . S
H1722 N1719 0.984 . S
H1723 N1719 0.985 . S
H1724 N1718 0.984 . S
H1725 N1718 0.984 . S
H1726 N1714 0.984 . S
H1727 N1714 0.985 . S
C1728 C1729 1.363 . S
C1728 C1734 1.379 1_545 S
C1728 N1736 1.356 . S
C1729 C1728 1.363 . S
C1729 C1735 1.363 . S
C1730 C1731 1.363 . S
C1730 C1735 1.379 1_565 S
C1730 N1737 1.356 . S
C1731 C1730 1.363 . S
C1731 C1734 1.363 . S
N1732 C1734 1.356 . S
N1732 H1744 0.984 . S
N1732 H1745 0.985 . S
N1733 C1735 1.356 . S
N1733 H1738 0.984 . S
N1733 H1739 0.985 . S
C1734 C1728 1.379 1_565 S
C1734 C1731 1.363 . S
C1734 N1732 1.356 . S
C1735 C1729 1.363 . S
C1735 C1730 1.379 1_545 S
C1735 N1733 1.356 . S
N1736 C1728 1.356 . S
N1736 H1742 0.984 . S
N1736 H1743 0.984 . S
N1737 C1730 1.356 . S
N1737 H1740 0.984 . S
N1737 H1741 0.985 . S
H1738 N1733 0.984 . S
H1739 N1733 0.985 . S
H1740 N1737 0.984 . S
H1741 N1737 0.985 . S
H1742 N1736 0.984 . S
H1743 N1736 0.984 . S
H1744 N1732 0.984 . S
H1745 N1732 0.985 . S
C1746 C1747 1.363 1_556 S
C1746 C1752 1.379 1_545 S
C1746 N1754 1.356 . S
C1747 C1746 1.363 1_554 S
C1747 C1753 1.363 . S
C1748 C1749 1.363 1_554 S
C1748 C1753 1.379 1_565 S
C1748 N1755 1.356 . S
C1749 C1748 1.363 1_556 S
C1749 C1752 1.363 . S
N1750 C1752 1.356 . S
N1750 H1762 0.984 . S
N1750 H1763 0.985 . S
N1751 C1753 1.356 . S
N1751 H1756 0.984 . S
N1751 H1757 0.985 . S
C1752 C1746 1.379 1_565 S
C1752 C1749 1.363 . S
C1752 N1750 1.356 . S
C1753 C1747 1.363 . S
C1753 C1748 1.379 1_545 S
C1753 N1751 1.356 . S
N1754 C1746 1.356 . S
N1754 H1760 0.984 . S
N1754 H1761 0.984 . S
N1755 C1748 1.356 . S
N1755 H1758 0.984 . S
N1755 H1759 0.985 . S
H1756 N1751 0.984 . S
H1757 N1751 0.985 . S
H1758 N1755 0.984 . S
H1759 N1755 0.985 . S
H1760 N1754 0.984 . S
H1761 N1754 0.984 . S
H1762 N1750 0.984 . S
H1763 N1750 0.985 . S
C1764 C1765 1.363 . S
C1764 C1770 1.379 1_655 S
C1764 N1772 1.356 . S
C1765 C1764 1.363 . S
C1765 C1771 1.363 1_554 S
C1766 C1767 1.363 . S
C1766 C1771 1.379 1_455 S
C1766 N1773 1.356 . S
C1767 C1766 1.363 . S
C1767 C1770 1.363 1_556 S
N1768 C1770 1.356 . S
N1768 H1780 0.984 . S
N1768 H1781 0.985 . S
N1769 C1771 1.356 . S
N1769 H1774 0.984 . S
N1769 H1775 0.985 . S
C1770 C1764 1.379 1_455 S
C1770 C1767 1.363 1_554 S
C1770 N1768 1.356 . S
C1771 C1765 1.363 1_556 S
C1771 C1766 1.379 1_655 S
C1771 N1769 1.356 . S
N1772 C1764 1.356 . S
N1772 H1778 0.984 . S
N1772 H1779 0.984 . S
N1773 C1766 1.356 . S
N1773 H1776 0.984 . S
N1773 H1777 0.985 . S
H1774 N1769 0.984 . S
H1775 N1769 0.985 . S
H1776 N1773 0.984 . S
H1777 N1773 0.985 . S
H1778 N1772 0.984 . S
H1779 N1772 0.984 . S
H1780 N1768 0.984 . S
H1781 N1768 0.985 . S
C1782 C1783 1.363 1_556 S
C1782 C1788 1.379 . S
C1782 N1790 1.356 . S
C1783 C1782 1.363 1_554 S
C1783 C1789 1.363 . S
C1784 C1785 1.363 1_554 S
C1784 C1789 1.379 . S
C1784 N1791 1.356 . S
C1785 C1784 1.363 1_556 S
C1785 C1788 1.363 . S
N1786 C1788 1.356 . S
N1786 H1798 0.984 . S
N1786 H1799 0.985 . S
N1787 C1789 1.356 . S
N1787 H1792 0.984 . S
N1787 H1793 0.985 . S
C1788 C1782 1.379 . S
C1788 C1785 1.363 . S
C1788 N1786 1.356 . S
C1789 C1783 1.363 . S
C1789 C1784 1.379 . S
C1789 N1787 1.356 . S
N1790 C1782 1.356 . S
N1790 H1796 0.984 . S
N1790 H1797 0.984 . S
N1791 C1784 1.356 . S
N1791 H1794 0.984 . S
N1791 H1795 0.985 . S
H1792 N1787 0.984 . S
H1793 N1787 0.985 . S
H1794 N1791 0.984 . S
H1795 N1791 0.985 . S
H1796 N1790 0.984 . S
H1797 N1790 0.984 . S
H1798 N1786 0.984 . S
H1799 N1786 0.985 . S
C505 C147 1.358 . S
C507 C3 1.300 . S
C523 C161 1.358 . S
C525 C17 1.301 . S
C541 C31 1.300 . S
C543 C133 1.358 . S
C559 C45 1.301 . S
C561 C119 1.358 . S
C577 C59 1.301 . S
C579 C91 1.358 . S
C595 C105 1.358 . S
C597 C73 1.301 . S
C613 C63 1.358 . S
C615 C87 1.300 . S
C631 C77 1.358 . S
C633 C101 1.301 . S
C649 C115 1.300 . S
C651 C49 1.358 . S
C667 C35 1.358 . S
C669 C129 1.301 . S
C685 C143 1.301 . S
C687 C7 1.358 . S
C703 C157 1.301 . S
C705 C21 1.358 . S
C721 C315 1.358 . S
C723 C171 1.301 . S
C739 C329 1.358 . S
C741 C185 1.301 . S
C757 C199 1.301 . S
C759 C301 1.358 . S
C775 C213 1.300 . S
C777 C287 1.358 1_556 S
C793 C227 1.300 . S
C795 C259 1.358 1_556 S
C811 C241 1.301 . S
C813 C273 1.358 1_556 S
C829 C231 1.358 . S
C831 C255 1.301 . S
C847 C245 1.358 . S
C849 C269 1.301 . S
C865 C217 1.358 . S
C867 C283 1.301 . S
C883 C203 1.358 . S
C885 C297 1.301 . S
C901 C175 1.358 . S
C903 C311 1.300 . S
C919 C189 1.358 . S
C921 C325 1.301 . S
C937 C339 1.301 . S
C939 C483 1.358 . S
C955 C497 1.358 . S
C957 C353 1.301 . S
C973 C469 1.358 . S
C975 C367 1.301 . S
C991 C381 1.301 . S
C993 C455 1.358 . S
C1009 C395 1.300 . S
C1011 C427 1.358 . S
C1027 C409 1.301 . S
C1029 C441 1.358 . S
C1045 C399 1.358 . S
C1047 C423 1.301 . S
C1063 C413 1.358 . S
C1065 C437 1.301 . S
C1081 C385 1.358 . S
C1083 C451 1.301 . S
C1099 C465 1.300 . S
C1101 C371 1.358 1_554 S
C1117 C343 1.358 1_554 S
C1119 C479 1.300 . S
C1135 C493 1.301 . S
C1137 C357 1.358 1_554 S
C1153 C50 1.524 . S
C1155 C8 1.524 . S
C1171 C64 1.524 . S
C1173 C22 1.524 . S
C1189 C36 1.524 . S
C1191 C78 1.524 . S
C1207 C134 1.524 . S
C1209 C92 1.524 . S
C1225 C148 1.524 . S
C1227 C106 1.524 . S
C1243 C162 1.524 . S
C1245 C120 1.524 . S
C1261 C218 1.524 . S
C1263 C176 1.524 . S
C1279 C232 1.524 . S
C1281 C190 1.524 . S
C1297 C204 1.524 . S
C1299 C246 1.524 . S
C1315 C260 1.524 . S
C1317 C302 1.524 . S
C1333 C316 1.524 . S
C1335 C274 1.524 . S
C1351 C288 1.524 . S
C1353 C330 1.524 . S
C1369 C386 1.524 . S
C1371 C344 1.524 . S
C1387 C400 1.524 . S
C1389 C358 1.524 . S
C1405 C372 1.524 . S
C1407 C414 1.524 . S
C1423 C428 1.524 . S
C1425 C470 1.524 . S
C1441 C442 1.524 . S
C1443 C484 1.524 . S
C1459 C456 1.524 . S
C1461 C498 1.524 . S
C1477 C9 1.493 . S
C1479 C261 1.493 . S
C1495 C275 1.493 . S
C1497 C23 1.493 . S
C1513 C289 1.493 . S
C1515 C37 1.493 . S
C1531 C471 1.493 . S
C1533 C51 1.493 . S
C1549 C485 1.493 . S
C1551 C65 1.493 . S
C1567 C499 1.493 . S
C1569 C79 1.493 . S
C1585 C93 1.493 . S
C1587 C345 1.493 . S
C1603 C359 1.493 . S
C1605 C107 1.493 . S
C1621 C373 1.493 . S
C1623 C121 1.493 . S
C1639 C135 1.493 . S
C1641 C219 1.493 . S
C1657 C149 1.493 . S
C1659 C233 1.493 . S
C1675 C163 1.493 . S
C1677 C247 1.493 . S
C1693 C429 1.493 . S
C1695 C177 1.493 . S
C1711 C443 1.493 . S
C1713 C191 1.493 . S
C1729 C205 1.493 . S
C1731 C457 1.493 . S
C1747 C303 1.493 . S
C1749 C387 1.493 . S
C1765 C317 1.493 . S
C1767 C401 1.493 . S
C1783 C331 1.493 . S
C1785 C415 1.493 . S
