# Generated by pormake.
# Topology umv, (4)-cn, num edge types: 1
# Building blocks:
#     Node 0, Type 0, BuildingBlock: QUQFOY_clean_sbu_3, # of connection points: 4
#     Node 1, Type 0, BuildingBlock: QUQFOY_clean_sbu_3, # of connection points: 4
#     Node 2, Type 0, BuildingBlock: QUQFOY_clean_sbu_3, # of connection points: 4
#     Node 3, Type 0, BuildingBlock: QUQFOY_clean_sbu_3, # of connection points: 4
#     Node 4, Type 0, BuildingBlock: QUQFOY_clean_sbu_3, # of connection points: 4
#     Node 5, Type 0, BuildingBlock: QUQFOY_clean_sbu_3, # of connection points: 4
#     Node 6, Type 0, BuildingBlock: QUQFOY_clean_sbu_3, # of connection points: 4
#     Node 7, Type 0, BuildingBlock: QUQFOY_clean_sbu_3, # of connection points: 4
#     Node 8, Type 0, BuildingBlock: QUQFOY_clean_sbu_3, # of connection points: 4
#     Node 9, Type 0, BuildingBlock: QUQFOY_clean_sbu_3, # of connection points: 4
#     Node 10, Type 0, BuildingBlock: QUQFOY_clean_sbu_3, # of connection points: 4
#     Node 11, Type 0, BuildingBlock: QUQFOY_clean_sbu_3, # of connection points: 4
#     Node 12, Type 0, BuildingBlock: QUQFOY_clean_sbu_3, # of connection points: 4
#     Node 13, Type 0, BuildingBlock: QUQFOY_clean_sbu_3, # of connection points: 4
#     Node 14, Type 0, BuildingBlock: QUQFOY_clean_sbu_3, # of connection points: 4
#     Node 15, Type 0, BuildingBlock: QUQFOY_clean_sbu_3, # of connection points: 4
#     Node 16, Type 0, BuildingBlock: QUQFOY_clean_sbu_3, # of connection points: 4
#     Node 17, Type 0, BuildingBlock: QUQFOY_clean_sbu_3, # of connection points: 4
#     Node 18, Type 0, BuildingBlock: QUQFOY_clean_sbu_3, # of connection points: 4
#     Node 19, Type 0, BuildingBlock: QUQFOY_clean_sbu_3, # of connection points: 4
#     Node 20, Type 0, BuildingBlock: QUQFOY_clean_sbu_3, # of connection points: 4
#     Node 21, Type 0, BuildingBlock: QUQFOY_clean_sbu_3, # of connection points: 4
#     Node 22, Type 0, BuildingBlock: QUQFOY_clean_sbu_3, # of connection points: 4
#     Node 23, Type 0, BuildingBlock: QUQFOY_clean_sbu_3, # of connection points: 4
#     Node 24, Type 0, BuildingBlock: QUQFOY_clean_sbu_3, # of connection points: 4
#     Node 25, Type 0, BuildingBlock: QUQFOY_clean_sbu_3, # of connection points: 4
#     Node 26, Type 0, BuildingBlock: QUQFOY_clean_sbu_3, # of connection points: 4
#     Node 27, Type 0, BuildingBlock: QUQFOY_clean_sbu_3, # of connection points: 4
#     Node 28, Type 0, BuildingBlock: QUQFOY_clean_sbu_3, # of connection points: 4
#     Node 29, Type 0, BuildingBlock: QUQFOY_clean_sbu_3, # of connection points: 4
#     Node 30, Type 0, BuildingBlock: QUQFOY_clean_sbu_3, # of connection points: 4
#     Node 31, Type 0, BuildingBlock: QUQFOY_clean_sbu_3, # of connection points: 4
#     Edge 32, Type (0, 0), BuildingBlock: AJUNOK_clean_linker_0, # of connection points: 2
#     Edge 33, Type (0, 0), BuildingBlock: AJUNOK_clean_linker_0, # of connection points: 2
#     Edge 34, Type (0, 0), BuildingBlock: AJUNOK_clean_linker_0, # of connection points: 2
#     Edge 35, Type (0, 0), BuildingBlock: AJUNOK_clean_linker_0, # of connection points: 2
#     Edge 36, Type (0, 0), BuildingBlock: AJUNOK_clean_linker_0, # of connection points: 2
#     Edge 37, Type (0, 0), BuildingBlock: AJUNOK_clean_linker_0, # of connection points: 2
#     Edge 38, Type (0, 0), BuildingBlock: AJUNOK_clean_linker_0, # of connection points: 2
#     Edge 39, Type (0, 0), BuildingBlock: AJUNOK_clean_linker_0, # of connection points: 2
#     Edge 40, Type (0, 0), BuildingBlock: AJUNOK_clean_linker_0, # of connection points: 2
#     Edge 41, Type (0, 0), BuildingBlock: AJUNOK_clean_linker_0, # of connection points: 2
#     Edge 42, Type (0, 0), BuildingBlock: AJUNOK_clean_linker_0, # of connection points: 2
#     Edge 43, Type (0, 0), BuildingBlock: AJUNOK_clean_linker_0, # of connection points: 2
#     Edge 44, Type (0, 0), BuildingBlock: AJUNOK_clean_linker_0, # of connection points: 2
#     Edge 45, Type (0, 0), BuildingBlock: AJUNOK_clean_linker_0, # of connection points: 2
#     Edge 46, Type (0, 0), BuildingBlock: AJUNOK_clean_linker_0, # of connection points: 2
#     Edge 47, Type (0, 0), BuildingBlock: AJUNOK_clean_linker_0, # of connection points: 2
#     Edge 48, Type (0, 0), BuildingBlock: AJUNOK_clean_linker_0, # of connection points: 2
#     Edge 49, Type (0, 0), BuildingBlock: AJUNOK_clean_linker_0, # of connection points: 2
#     Edge 50, Type (0, 0), BuildingBlock: AJUNOK_clean_linker_0, # of connection points: 2
#     Edge 51, Type (0, 0), BuildingBlock: AJUNOK_clean_linker_0, # of connection points: 2
#     Edge 52, Type (0, 0), BuildingBlock: AJUNOK_clean_linker_0, # of connection points: 2
#     Edge 53, Type (0, 0), BuildingBlock: AJUNOK_clean_linker_0, # of connection points: 2
#     Edge 54, Type (0, 0), BuildingBlock: AJUNOK_clean_linker_0, # of connection points: 2
#     Edge 55, Type (0, 0), BuildingBlock: AJUNOK_clean_linker_0, # of connection points: 2
#     Edge 56, Type (0, 0), BuildingBlock: AJUNOK_clean_linker_0, # of connection points: 2
#     Edge 57, Type (0, 0), BuildingBlock: AJUNOK_clean_linker_0, # of connection points: 2
#     Edge 58, Type (0, 0), BuildingBlock: AJUNOK_clean_linker_0, # of connection points: 2
#     Edge 59, Type (0, 0), BuildingBlock: AJUNOK_clean_linker_0, # of connection points: 2
#     Edge 60, Type (0, 0), BuildingBlock: AJUNOK_clean_linker_0, # of connection points: 2
#     Edge 61, Type (0, 0), BuildingBlock: AJUNOK_clean_linker_0, # of connection points: 2
#     Edge 62, Type (0, 0), BuildingBlock: AJUNOK_clean_linker_0, # of connection points: 2
#     Edge 63, Type (0, 0), BuildingBlock: AJUNOK_clean_linker_0, # of connection points: 2
#     Edge 64, Type (0, 0), BuildingBlock: AJUNOK_clean_linker_0, # of connection points: 2
#     Edge 65, Type (0, 0), BuildingBlock: AJUNOK_clean_linker_0, # of connection points: 2
#     Edge 66, Type (0, 0), BuildingBlock: AJUNOK_clean_linker_0, # of connection points: 2
#     Edge 67, Type (0, 0), BuildingBlock: AJUNOK_clean_linker_0, # of connection points: 2
#     Edge 68, Type (0, 0), BuildingBlock: AJUNOK_clean_linker_0, # of connection points: 2
#     Edge 69, Type (0, 0), BuildingBlock: AJUNOK_clean_linker_0, # of connection points: 2
#     Edge 70, Type (0, 0), BuildingBlock: AJUNOK_clean_linker_0, # of connection points: 2
#     Edge 71, Type (0, 0), BuildingBlock: AJUNOK_clean_linker_0, # of connection points: 2
#     Edge 72, Type (0, 0), BuildingBlock: AJUNOK_clean_linker_0, # of connection points: 2
#     Edge 73, Type (0, 0), BuildingBlock: AJUNOK_clean_linker_0, # of connection points: 2
#     Edge 74, Type (0, 0), BuildingBlock: AJUNOK_clean_linker_0, # of connection points: 2
#     Edge 75, Type (0, 0), BuildingBlock: AJUNOK_clean_linker_0, # of connection points: 2
#     Edge 76, Type (0, 0), BuildingBlock: AJUNOK_clean_linker_0, # of connection points: 2
#     Edge 77, Type (0, 0), BuildingBlock: AJUNOK_clean_linker_0, # of connection points: 2
#     Edge 78, Type (0, 0), BuildingBlock: AJUNOK_clean_linker_0, # of connection points: 2
#     Edge 79, Type (0, 0), BuildingBlock: AJUNOK_clean_linker_0, # of connection points: 2
#     Edge 80, Type (0, 0), BuildingBlock: AJUNOK_clean_linker_0, # of connection points: 2
#     Edge 81, Type (0, 0), BuildingBlock: AJUNOK_clean_linker_0, # of connection points: 2
#     Edge 82, Type (0, 0), BuildingBlock: AJUNOK_clean_linker_0, # of connection points: 2
#     Edge 83, Type (0, 0), BuildingBlock: AJUNOK_clean_linker_0, # of connection points: 2
#     Edge 84, Type (0, 0), BuildingBlock: AJUNOK_clean_linker_0, # of connection points: 2
#     Edge 85, Type (0, 0), BuildingBlock: AJUNOK_clean_linker_0, # of connection points: 2
#     Edge 86, Type (0, 0), BuildingBlock: AJUNOK_clean_linker_0, # of connection points: 2
#     Edge 87, Type (0, 0), BuildingBlock: AJUNOK_clean_linker_0, # of connection points: 2
#     Edge 88, Type (0, 0), BuildingBlock: AJUNOK_clean_linker_0, # of connection points: 2
#     Edge 89, Type (0, 0), BuildingBlock: AJUNOK_clean_linker_0, # of connection points: 2
#     Edge 90, Type (0, 0), BuildingBlock: AJUNOK_clean_linker_0, # of connection points: 2
#     Edge 91, Type (0, 0), BuildingBlock: AJUNOK_clean_linker_0, # of connection points: 2
#     Edge 92, Type (0, 0), BuildingBlock: AJUNOK_clean_linker_0, # of connection points: 2
#     Edge 93, Type (0, 0), BuildingBlock: AJUNOK_clean_linker_0, # of connection points: 2
#     Edge 94, Type (0, 0), BuildingBlock: AJUNOK_clean_linker_0, # of connection points: 2
#     Edge 95, Type (0, 0), BuildingBlock: AJUNOK_clean_linker_0, # of connection points: 2
# Relax obj value: 0.120
# Max RMSD: 0.106
# Mean RMSD: 0.106
data_MOF--net-umv--node1-QUQFOY_clean_sbu_3--edge1-AJUNOK_clean_linker_0
_symmetry_space_group_name_H-M    P1
_symmetry_Int_Tables_number       1
_symmetry_cell_setting            triclinic
loop_
_symmetry_equiv_pos_as_xyz
'x, y, z'
_cell_length_a     80.705827
_cell_length_b     19.763666
_cell_length_c     46.647528
_cell_angle_alpha  89.984794
_cell_angle_beta   89.900565
_cell_angle_gamma 90.117545
loop_
_atom_site_label
_atom_site_type_symbol
_atom_site_fract_x
_atom_site_fract_y
_atom_site_fract_z
_atom_type_partial_charge
C0 C 0.0367 0.06088 0.39078 0.0
O1 O 0.04429 0.10862 0.40341 0.0
Cd2 Cd 0.05386 0.20892 0.3794 0.0
O3 O 0.03287 0.0662 0.36438 0.0
Cd4 Cd 0.03505 0.15084 0.32546 0.0
C5 C 0.07601 0.13105 0.32491 0.0
O6 O 0.03285 0.25683 0.35066 0.0
O7 O 0.04627 0.25883 0.31052 0.0
O8 O 0.00564 0.14851 0.31684 0.0
C9 C 0.03959 0.29132 0.33087 0.0
O10 O 0.07551 0.16991 0.3467 0.0
C11 C 0.00675 0.14622 0.28973 0.0
O12 O 0.06279 0.10807 0.31345 0.0
O13 O 0.02116 0.13735 0.27927 0.0
C14 C 0.19057 0.14129 0.36721 0.0
O15 O 0.18337 0.10016 0.38404 0.0
Cd16 Cd 0.17185 -0.00364 0.36727 0.0
O17 O 0.19151 0.12885 0.34041 0.0
Cd18 Cd 0.18429 0.03915 0.30532 0.0
C19 C 0.14372 0.05334 0.31642 0.0
O20 O 0.1927 0.95218 0.33702 0.0
O21 O 0.17669 0.91895 0.30276 0.0
O22 O 0.21192 0.0586 0.28761 0.0
C23 C 0.18686 0.9041 0.32235 0.0
O24 O 0.14696 0.02228 0.33966 0.0
C25 C 0.20924 0.03796 0.26233 0.0
O26 O 0.15525 0.07432 0.29989 0.0
O27 O 0.19419 0.02737 0.25564 0.0
C28 C 0.04875 0.20845 0.87333 0.0
O29 O 0.05502 0.16991 0.85444 0.0
Cd30 Cd 0.06154 0.05389 0.8587 0.0
O31 O 0.04601 0.18745 0.89887 0.0
Cd32 Cd 0.04872 0.07776 0.92536 0.0
C33 C 0.09003 0.05927 0.91422 0.0
O34 O 0.03789 0.02283 0.88441 0.0
O35 O 0.0456 0.95477 0.91773 0.0
O36 O 0.02232 0.1011 0.94791 0.0
C37 C 0.03827 0.96353 0.89407 0.0
O38 O 0.08601 0.04574 0.88848 0.0
C39 C 0.02545 0.0694 0.97091 0.0
O40 O 0.07921 0.07891 0.93239 0.0
O41 O 0.04041 0.05156 0.9747 0.0
C42 C 0.20079 0.05846 0.8485 0.0
O43 O 0.19317 0.10196 0.83349 0.0
Cd44 Cd 0.17902 0.1955 0.85475 0.0
O45 O 0.20293 0.06829 0.87527 0.0
Cd46 Cd 0.19819 0.1568 0.91213 0.0
C47 C 0.15864 0.11149 0.91077 0.0
O48 O 0.1969 0.25857 0.88446 0.0
O49 O 0.18299 0.25769 0.92428 0.0
O50 O 0.22738 0.17641 0.92072 0.0
C51 C 0.18873 0.29077 0.90325 0.0
O52 O 0.15887 0.14256 0.88682 0.0
C53 C 0.2263 0.17404 0.94782 0.0
O54 O 0.17176 0.10341 0.92561 0.0
O55 O 0.21238 0.15613 0.9583 0.0
C56 C 0.92485 -0.00813 0.62785 0.0
O57 O 0.91557 0.96757 0.60847 0.0
Cd58 Cd 0.90558 0.85534 0.60527 0.0
O59 O 0.92919 0.95637 0.64941 0.0
Cd60 Cd 0.92415 0.83535 0.6624 0.0
C61 C 0.88291 0.82907 0.66657 0.0
O62 O 0.92996 0.79427 0.61419 0.0
O63 O 0.91973 0.72207 0.64418 0.0
O64 O 0.95307 0.8237 0.67579 0.0
C65 C 0.92742 0.73336 0.62099 0.0
O66 O 0.88396 0.82883 0.63939 0.0
C67 C 0.95048 0.78665 0.69751 0.0
O68 O 0.89562 0.83989 0.68206 0.0
O69 O 0.9355 0.78054 0.70552 0.0
C70 C 0.7734 0.7438 0.62591 0.0
O71 O 0.77877 0.78542 0.60735 0.0
Cd72 Cd 0.79128 0.89119 0.61907 0.0
O73 O 0.77168 0.76174 0.65205 0.0
Cd74 Cd 0.77372 0.8628 0.68341 0.0
C75 C 0.81445 0.83462 0.67839 0.0
O76 O 0.77395 0.9524 0.64934 0.0
O77 O 0.78503 0.97449 0.69038 0.0
O78 O 0.74439 0.87382 0.69179 0.0
C79 C 0.78154 -0.00578 0.66528 0.0
O80 O 0.8125 0.85577 0.65279 0.0
C81 C 0.74545 0.87761 0.7189 0.0
O82 O 0.80228 0.82791 0.69575 0.0
O83 O 0.75965 0.86657 0.72984 0.0
C84 C 0.9549 0.76912 0.12717 0.0
O85 O 0.94657 0.80265 0.14535 0.0
Cd86 Cd 0.92844 0.89247 0.13419 0.0
O87 O 0.95572 0.78832 0.10104 0.0
Cd88 Cd 0.94739 0.887 0.07093 0.0
C89 C 0.90857 0.82744 0.07295 0.0
O90 O 0.94445 0.96814 0.10794 0.0
O91 O 0.93191 -0.00786 0.06833 0.0
O92 O 0.97608 0.91745 0.06179 0.0
C93 C 0.93578 0.00915 0.0936 0.0
O94 O 0.90924 0.8453 0.09918 0.0
C95 C 0.97411 0.92868 0.03524 0.0
O96 O 0.92099 0.83412 0.05616 0.0
O97 O 0.96011 0.91304 0.02458 0.0
C98 C 0.80066 0.94876 0.10947 0.0
O99 O 0.80435 0.90401 0.12786 0.0
Cd100 Cd 0.8085 0.78791 0.11801 0.0
O101 O 0.79877 0.93325 0.08307 0.0
Cd102 Cd 0.79905 0.82835 0.05332 0.0
C103 C 0.83919 0.79767 0.06535 0.0
O104 O 0.78583 0.75992 0.08882 0.0
O105 O 0.79945 0.70528 0.05681 0.0
O106 O 0.77262 0.8571 0.03293 0.0
C107 C 0.78934 0.70382 0.07757 0.0
O108 O 0.8339 0.77987 0.08999 0.0
C109 C 0.77549 0.83136 0.00854 0.0
O110 O 0.82948 0.82493 0.04712 0.0
O111 O 0.79044 0.8151 0.00332 0.0
C112 C 0.03602 0.48745 0.84213 0.0
O113 O 0.04059 0.53034 0.86079 0.0
Cd114 Cd 0.04329 0.64906 0.8565 0.0
O115 O 0.03146 0.5062 0.81712 0.0
Cd116 Cd 0.02825 0.61657 0.79157 0.0
C117 C 0.069 0.65094 0.79607 0.0
O118 O 0.01958 0.68187 0.8321 0.0
O119 O 0.02939 0.73812 0.79663 0.0
O120 O -0.00014 0.60299 0.77563 0.0
C121 C 0.02272 0.73895 0.82121 0.0
O122 O 0.06565 0.66468 0.82214 0.0
C123 C 0.0025 0.62656 0.7507 0.0
O124 O 0.05815 0.6251 0.77938 0.0
O125 O 0.01758 0.63365 0.7433 0.0
C126 C 0.18915 0.78734 0.82778 0.0
O127 O 0.18057 0.78064 0.85035 0.0
Cd128 Cd 0.16222 0.692 0.86042 0.0
O129 O 0.18914 0.74207 0.80829 0.0
Cd130 Cd 0.17729 0.62382 0.80726 0.0
C131 C 0.13831 0.67332 0.7991 0.0
O132 O 0.17884 0.59468 0.85784 0.0
O133 O 0.16139 0.53766 0.83252 0.0
O134 O 0.20454 0.57328 0.80207 0.0
C135 C 0.16991 0.54242 0.85521 0.0
O136 O 0.14019 0.69028 0.8252 0.0
C137 C 0.20125 0.5361 0.78072 0.0
O138 O 0.15029 0.64828 0.78479 0.0
O139 O 0.187 0.54382 0.76959 0.0
C140 C 0.04989 0.79125 0.41385 0.0
O141 O 0.05973 0.78785 0.39275 0.0
Cd142 Cd 0.07331 0.68965 0.3774 0.0
O143 O 0.04659 0.73926 0.42901 0.0
Cd144 Cd 0.05621 0.61855 0.42465 0.0
C145 C 0.09643 0.64215 0.43547 0.0
O146 O 0.05269 0.60329 0.3732 0.0
O147 O 0.06968 0.53516 0.39385 0.0
O148 O 0.02846 0.57225 0.43224 0.0
C149 C 0.06015 0.54718 0.37294 0.0
O150 O 0.09588 0.66468 0.40997 0.0
C151 C 0.03246 0.5307 0.45171 0.0
O152 O 0.08326 0.624 0.44839 0.0
O153 O 0.04735 0.53347 0.46032 0.0
C154 C 0.20155 0.41437 0.39773 0.0
O155 O 0.19426 0.44225 0.37681 0.0
Cd156 Cd 0.18412 0.55248 0.37205 0.0
O157 O 0.20541 0.44745 0.42027 0.0
Cd158 Cd 0.20399 0.57156 0.43185 0.0
C159 C 0.16293 0.57258 0.437 0.0
O160 O 0.20646 0.62108 0.38433 0.0
O161 O 0.1929 0.6779 0.41613 0.0
O162 O 0.23329 0.59404 0.44012 0.0
C163 C 0.19926 0.67535 0.39136 0.0
O164 O 0.16372 0.56988 0.40975 0.0
C165 C 0.23129 0.62322 0.46409 0.0
O166 O 0.17589 0.56915 0.45253 0.0
O167 O 0.21674 0.62168 0.47459 0.0
C168 C 0.9469 0.49737 0.1504 0.0
O169 O 0.93751 0.48142 0.12973 0.0
Cd170 Cd 0.91677 0.39821 0.13016 0.0
O171 O 0.94644 0.4649 0.17404 0.0
Cd172 Cd 0.93316 0.35625 0.18956 0.0
C173 C 0.89556 0.4216 0.19461 0.0
O174 O 0.93144 0.30154 0.14334 0.0
O175 O 0.91653 0.25824 0.17726 0.0
O176 O 0.95991 0.30585 0.19912 0.0
C177 C 0.92225 0.25393 0.15204 0.0
O178 O 0.89667 0.42312 0.16739 0.0
C179 C 0.95659 0.28624 0.22435 0.0
O180 O 0.90752 0.40092 0.21003 0.0
O181 O 0.9426 0.3037 0.23444 0.0
C182 C 0.79676 0.23091 0.14319 0.0
O183 O 0.80262 0.27218 0.12498 0.0
Cd184 Cd 0.80511 0.39015 0.12922 0.0
O185 O 0.79112 0.25163 0.16725 0.0
Cd186 Cd 0.78766 0.36601 0.18962 0.0
C187 C 0.82767 0.40297 0.19251 0.0
O188 O 0.77939 0.42576 0.14687 0.0
O189 O 0.79029 0.48678 0.17986 0.0
O190 O 0.75892 0.35308 0.20436 0.0
C191 C 0.78265 0.4841 0.15621 0.0
O192 O 0.82574 0.41316 0.16579 0.0
C193 C 0.76106 0.37788 0.22917 0.0
O194 O 0.81622 0.37635 0.20765 0.0
O195 O 0.77595 0.3882 0.2368 0.0
C196 C 0.94657 0.26313 0.60083 0.0
O197 O 0.94297 0.31031 0.6182 0.0
Cd198 Cd 0.93979 0.42703 0.60703 0.0
O199 O 0.95044 0.27623 0.5748 0.0
Cd200 Cd 0.95437 0.37557 0.54252 0.0
C201 C 0.91336 0.40196 0.54816 0.0
O202 O 0.96154 0.45872 0.57726 0.0
O203 O 0.95207 0.49688 0.53746 0.0
O204 O 0.98291 0.35403 0.53014 0.0
C205 C 0.95734 0.50957 0.56244 0.0
O206 O 0.91702 0.42364 0.57313 0.0
C207 C 0.98117 0.36721 0.50367 0.0
O208 O 0.92423 0.37457 0.5319 0.0
O209 O 0.96636 0.37265 0.49454 0.0
C210 C 0.79552 0.47623 0.60663 0.0
O211 O 0.80581 0.46457 0.62652 0.0
Cd212 Cd 0.82487 0.37481 0.62747 0.0
O213 O 0.79437 0.43692 0.58502 0.0
Cd214 Cd 0.80677 0.32405 0.57321 0.0
C215 C 0.84493 0.38276 0.56196 0.0
O216 O 0.80711 0.28078 0.62197 0.0
O217 O 0.8204 0.22251 0.59036 0.0
O218 O 0.77867 0.28383 0.56447 0.0
C219 C 0.81353 0.22508 0.61476 0.0
O220 O 0.84475 0.39008 0.58904 0.0
C221 C 0.7821 0.25093 0.54192 0.0
O222 O 0.83229 0.3605 0.54868 0.0
O223 O 0.79674 0.2574 0.53226 0.0
C224 C 0.53541 -0.01954 0.8492 0.0
O225 O 0.53907 0.02627 0.86719 0.0
Cd226 Cd 0.53872 0.14559 0.86194 0.0
O227 O 0.53026 -0.00455 0.82404 0.0
Cd228 Cd 0.52419 0.10312 0.79743 0.0
C229 C 0.56398 0.15619 0.80147 0.0
O230 O 0.51431 0.16859 0.83739 0.0
O231 O 0.52167 0.22494 0.80028 0.0
O232 O 0.49645 0.07956 0.77978 0.0
C233 C 0.51581 0.22571 0.82545 0.0
O234 O 0.56052 0.16961 0.82753 0.0
C235 C 0.49949 0.09972 0.75443 0.0
O236 O 0.55368 0.1251 0.78537 0.0
O237 O 0.51465 0.10949 0.74812 0.0
C238 C 0.68415 0.23003 0.85427 0.0
O239 O 0.67383 0.21595 0.87393 0.0
Cd240 Cd 0.6525 0.13477 0.86982 0.0
O241 O 0.68397 0.19768 0.83065 0.0
Cd242 Cd 0.66949 0.09545 0.81218 0.0
C243 C 0.63251 0.16691 0.80547 0.0
O244 O 0.66621 0.03448 0.85681 0.0
O245 O 0.65212 -0.00212 0.82051 0.0
O246 O 0.69619 0.04272 0.80625 0.0
C247 C 0.65784 -0.01252 0.84538 0.0
O248 O 0.63311 0.16608 0.83272 0.0
C249 C 0.69442 0.02565 0.78029 0.0
O250 O 0.64469 0.14611 0.79046 0.0
O251 O 0.68127 0.04571 0.76791 0.0
C252 C 0.54879 0.26764 0.39085 0.0
O253 O 0.556 0.24603 0.36852 0.0
Cd254 Cd 0.56699 0.13813 0.36084 0.0
O255 O 0.54725 0.23061 0.41313 0.0
Cd256 Cd 0.55461 0.10861 0.42162 0.0
C257 C 0.59541 0.11207 0.4152 0.0
O258 O 0.54482 0.06945 0.37562 0.0
O259 O 0.56222 0.00355 0.39673 0.0
O260 O 0.52737 0.08036 0.43955 0.0
C261 C 0.55108 0.01143 0.37793 0.0
O262 O 0.59164 0.1155 0.38876 0.0
C263 C 0.5321 0.04794 0.46144 0.0
O264 O 0.58425 0.11681 0.43443 0.0
O265 O 0.54748 0.05014 0.46712 0.0
C266 C 0.70541 0.96136 0.38932 0.0
O267 O 0.70455 0.00297 0.36863 0.0
Cd268 Cd 0.69681 0.11815 0.37346 0.0
O269 O 0.70541 -0.01812 0.4153 0.0
Cd270 Cd 0.70625 0.08853 0.44359 0.0
C271 C 0.66602 0.08922 0.42632 0.0
O272 O 0.71378 0.16772 0.40745 0.0
O273 O 0.7013 0.20826 0.44439 0.0
O274 O 0.73434 0.07467 0.4594 0.0
C275 C 0.70734 0.21852 0.41969 0.0
O276 O 0.67169 0.1029 0.40142 0.0
C277 C 0.73155 0.09164 0.48522 0.0
O278 O 0.67564 0.07912 0.44769 0.0
O279 O 0.71641 0.09703 0.49273 0.0
C280 C 0.43551 0.08454 0.17486 0.0
O281 O 0.42365 0.08152 0.15719 0.0
Cd282 Cd 0.40971 -0.01869 0.14452 0.0
O283 O 0.44023 0.03204 0.18843 0.0
Cd284 Cd 0.42939 0.91235 0.18699 0.0
C285 C 0.38962 0.92461 0.20391 0.0
O286 O 0.42978 0.89454 0.13517 0.0
O287 O 0.41349 0.82988 0.15943 0.0
O288 O 0.45642 0.85583 0.19018 0.0
C289 C 0.42177 0.83962 0.13673 0.0
O290 O 0.3885 0.94705 0.17846 0.0
C291 C 0.45286 0.82053 0.21204 0.0
O292 O 0.40373 0.91324 0.21495 0.0
O293 O 0.43888 0.83179 0.22349 0.0
C294 C 0.28775 0.64502 0.15917 0.0
O295 O 0.29811 0.66205 0.14009 0.0
Cd296 Cd 0.3116 0.76553 0.13419 0.0
O297 O 0.28292 0.68676 0.17829 0.0
Cd298 Cd 0.28868 0.81149 0.18334 0.0
C299 C 0.32845 0.80307 0.20051 0.0
O300 O 0.29036 0.84711 0.13314 0.0
O301 O 0.30423 0.90546 0.16398 0.0
O302 O 0.25994 0.852 0.18621 0.0
C303 C 0.29849 0.90008 0.13889 0.0
O304 O 0.3301 0.78943 0.174 0.0
C305 C 0.26198 0.8846 0.20936 0.0
O306 O 0.31415 0.8096 0.21172 0.0
O307 O 0.27593 0.87814 0.22156 0.0
C308 C 0.45749 0.78175 0.62911 0.0
O309 O 0.45155 0.82807 0.64487 0.0
Cd310 Cd 0.4389 0.92621 0.62464 0.0
O311 O 0.4594 0.7917 0.60226 0.0
Cd312 Cd 0.45644 0.88413 0.56639 0.0
C313 C 0.41653 0.84743 0.56954 0.0
O314 O 0.45665 -0.01274 0.59385 0.0
O315 O 0.44152 -0.01376 0.55554 0.0
O316 O 0.48566 0.89892 0.55612 0.0
C317 C 0.44795 0.01964 0.57585 0.0
O318 O 0.41764 0.87781 0.59357 0.0
C319 C 0.4841 0.89768 0.52906 0.0
O320 O 0.42922 0.83705 0.55378 0.0
O321 O 0.46987 0.88165 0.5194 0.0
C322 C 0.30408 0.94905 0.61044 0.0
O323 O 0.31153 0.91638 0.62999 0.0
Cd324 Cd 0.31977 0.80169 0.62791 0.0
O325 O 0.30121 0.92205 0.58605 0.0
Cd326 Cd 0.30599 0.80907 0.56371 0.0
C327 C 0.34747 0.80299 0.57159 0.0
O328 O 0.29586 0.75664 0.60661 0.0
O329 O 0.30605 0.68849 0.57507 0.0
O330 O 0.27893 0.81835 0.54127 0.0
C331 C 0.29751 0.69702 0.59756 0.0
O332 O 0.34408 0.79152 0.59779 0.0
C333 C 0.28269 0.78408 0.51921 0.0
O334 O 0.33608 0.81829 0.55382 0.0
O335 O 0.29796 0.771 0.51571 0.0
C336 C 0.53291 0.53997 0.36283 0.0
O337 O 0.53916 0.58793 0.3773 0.0
Cd338 Cd 0.54693 0.69404 0.35732 0.0
O339 O 0.52908 0.54879 0.33652 0.0
Cd340 Cd 0.52936 0.64088 0.30007 0.0
C341 C 0.57029 0.6317 0.3 0.0
O342 O 0.52482 0.73645 0.33028 0.0
O343 O 0.53942 0.75553 0.29248 0.0
O344 O 0.50015 0.63334 0.28939 0.0
C345 C 0.53171 0.77908 0.31393 0.0
O346 O 0.56882 0.66495 0.32329 0.0
C347 C 0.50175 0.64419 0.26271 0.0
O348 O 0.55768 0.60783 0.28695 0.0
O349 O 0.51643 0.64256 0.25271 0.0
C350 C 0.68087 0.69468 0.36225 0.0
O351 O 0.67015 0.67131 0.37963 0.0
Cd352 Cd 0.65732 0.56323 0.37598 0.0
O353 O 0.68502 0.66139 0.33997 0.0
Cd354 Cd 0.67807 0.5494 0.31944 0.0
C355 C 0.63722 0.57189 0.31135 0.0
O356 O 0.68069 0.49628 0.36574 0.0
O357 O 0.67255 0.43161 0.3311 0.0
O358 O 0.70728 0.54519 0.30808 0.0
C359 C 0.67838 0.43735 0.35616 0.0
O360 O 0.63674 0.56344 0.33834 0.0
C361 C 0.70568 0.51211 0.28499 0.0
O362 O 0.65095 0.57637 0.298 0.0
O363 O 0.69099 0.50374 0.27589 0.0
C364 C 0.55181 0.70267 0.87861 0.0
O365 O 0.55803 0.66668 0.85879 0.0
Cd366 Cd 0.56251 0.54822 0.86091 0.0
O367 O 0.54827 0.67679 0.90299 0.0
Cd368 Cd 0.54978 0.56125 0.92482 0.0
C369 C 0.59068 0.53303 0.91587 0.0
O370 O 0.53749 0.51321 0.88251 0.0
O371 O 0.54643 0.44117 0.91337 0.0
O372 O 0.52351 0.58081 0.94885 0.0
C373 C 0.53788 0.45289 0.89119 0.0
O374 O 0.58679 0.52384 0.88974 0.0
C375 C 0.52726 0.5494 0.97164 0.0
O376 O 0.58001 0.55466 0.93382 0.0
O377 O 0.54228 0.53139 0.97422 0.0
C378 C 0.70625 0.49506 0.87066 0.0
O379 O 0.70196 0.52909 0.84887 0.0
Cd380 Cd 0.68163 0.61445 0.85499 0.0
O381 O 0.70428 0.51953 0.89572 0.0
Cd382 Cd 0.69686 0.62939 0.91771 0.0
C383 C 0.65996 0.55738 0.91612 0.0
O384 O 0.69271 0.70746 0.87881 0.0
O385 O 0.67794 0.72167 0.91729 0.0
O386 O 0.72512 0.66745 0.92369 0.0
C387 C 0.68194 0.74159 0.89241 0.0
O388 O 0.66177 0.56834 0.88935 0.0
C389 C 0.72341 0.68477 0.94973 0.0
O390 O 0.67122 0.57355 0.93412 0.0
O391 O 0.70975 0.66959 0.96189 0.0
C392 C 0.43839 0.51451 0.64904 0.0
O393 O 0.42916 0.50964 0.62719 0.0
Cd394 Cd 0.41152 0.41828 0.61726 0.0
O395 O 0.43899 0.46746 0.66775 0.0
Cd396 Cd 0.42668 0.3499 0.66906 0.0
C397 C 0.38738 0.39814 0.67789 0.0
O398 O 0.43004 0.32535 0.61843 0.0
O399 O 0.4135 0.25915 0.64154 0.0
O400 O 0.45418 0.30461 0.67778 0.0
C401 C 0.42288 0.26863 0.6201 0.0
O402 O 0.389 0.41596 0.65184 0.0
C403 C 0.45024 0.26557 0.6982 0.0
O404 O 0.3995 0.37258 0.69154 0.0
O405 O 0.43539 0.26974 0.70716 0.0
C406 C 0.28517 0.22273 0.63957 0.0
O407 O 0.28948 0.26661 0.62112 0.0
Cd408 Cd 0.29262 0.38474 0.62567 0.0
O409 O 0.28088 0.23978 0.665 0.0
Cd410 Cd 0.27717 0.34888 0.69174 0.0
C411 C 0.31823 0.38212 0.68623 0.0
O412 O 0.26955 0.41715 0.65165 0.0
O413 O 0.27817 0.4709 0.68862 0.0
O414 O 0.24845 0.33568 0.70631 0.0
C415 C 0.27271 0.47347 0.66321 0.0
O416 O 0.31487 0.39596 0.66019 0.0
C417 C 0.25073 0.35697 0.7317 0.0
O418 O 0.30734 0.35724 0.70323 0.0
O419 O 0.26572 0.36229 0.7399 0.0
C420 C 0.45074 0.35359 0.14871 0.0
O421 O 0.44599 0.40252 0.16427 0.0
Cd422 Cd 0.43306 0.49978 0.14351 0.0
O423 O 0.45125 0.35989 0.12149 0.0
Cd424 Cd 0.44726 0.44744 0.08367 0.0
C425 C 0.40749 0.41309 0.09486 0.0
O426 O 0.44955 0.55386 0.10842 0.0
O427 O 0.43364 0.55147 0.07105 0.0
O428 O 0.47645 0.44917 0.07245 0.0
C429 C 0.44077 0.58579 0.09037 0.0
O430 O 0.41025 0.44684 0.11767 0.0
C431 C 0.47463 0.4483 0.04545 0.0
O432 O 0.41912 0.40079 0.07697 0.0
O433 O 0.45997 0.43941 0.03605 0.0
C434 C 0.2903 0.37079 0.13124 0.0
O435 O 0.29503 0.32407 0.14794 0.0
Cd436 Cd 0.30979 0.22957 0.12942 0.0
O437 O 0.29212 0.36486 0.10414 0.0
Cd438 Cd 0.30124 0.28248 0.06692 0.0
C439 C 0.33984 0.31253 0.08751 0.0
O440 O 0.29388 0.18231 0.09192 0.0
O441 O 0.31297 0.16968 0.05987 0.0
O442 O 0.27363 0.29046 0.04879 0.0
C443 C 0.30256 0.14292 0.07677 0.0
O444 O 0.33495 0.27906 0.10932 0.0
C445 C 0.27733 0.28345 0.02255 0.0
O446 O 0.32984 0.3265 0.06717 0.0
O447 O 0.29268 0.28556 0.0162 0.0
C448 C 0.10493 0.1574 0.31029 0.0
C449 C 0.09243 0.10886 0.31496 0.0
C450 C 0.12161 0.13828 0.30777 0.0
C451 C 0.12628 0.07025 0.31073 0.0
H452 H 0.10189 0.21078 0.31012 0.0
H453 H 0.13097 0.1774 0.30586 0.0
S454 S 0.09816 0.92359 0.32083 0.0
N455 N 0.08568 -0.01028 0.31995 0.0
N456 N 0.11709 0.95387 0.31639 0.0
C457 C 0.11381 0.02099 0.31374 0.0
C458 C 0.09682 0.04029 0.31553 0.0
C459 C 0.13193 0.12569 0.93644 0.0
C460 C 0.14262 0.08439 0.92032 0.0
C461 C 0.11478 0.11303 0.93711 0.0
C462 C 0.1079 0.05944 0.92121 0.0
H463 H 0.13664 0.17121 0.94652 0.0
H464 H 0.10679 0.14902 0.94785 0.0
S465 S 0.13114 0.93105 0.8794 0.0
N466 N 0.14553 -0.01633 0.89117 0.0
N467 N 0.1134 0.95952 0.89228 0.0
C468 C 0.11873 0.01434 0.90729 0.0
C469 C 0.1361 0.02706 0.9068 0.0
C470 C 0.85874 0.8679 0.69571 0.0
C471 C 0.86642 0.81732 0.67923 0.0
C472 C 0.84142 0.86838 0.69926 0.0
C473 C 0.83148 0.81788 0.68671 0.0
H474 H 0.86588 0.9108 0.70328 0.0
H475 H 0.83569 0.91205 0.70918 0.0
S476 S 0.84604 0.66858 0.64608 0.0
N477 N 0.86312 0.71097 0.65379 0.0
N478 N 0.8307 0.71186 0.66065 0.0
C479 C 0.83926 0.76338 0.67306 0.0
C480 C 0.85675 0.76312 0.66926 0.0
C481 C 0.88292 0.84809 0.04494 0.0
C482 C 0.89235 0.80467 0.06234 0.0
C483 C 0.86557 0.84181 0.04362 0.0
C484 C 0.85723 0.79216 0.05983 0.0
H485 H 0.88878 0.89097 0.03455 0.0
H486 H 0.85861 0.87964 0.03195 0.0
S487 S 0.87686 0.65765 0.10369 0.0
N488 N 0.89251 0.70471 0.09244 0.0
N489 N 0.86006 0.6917 0.08965 0.0
C490 C 0.86679 0.74402 0.07466 0.0
C491 C 0.88434 0.75067 0.07604 0.0
C492 C 0.09386 0.7238 0.79565 0.0
C493 C 0.08615 0.66374 0.78652 0.0
C494 C 0.11111 0.7298 0.79613 0.0
C495 C 0.1213 0.67588 0.78757 0.0
H496 H 0.08653 0.76439 0.80475 0.0
H497 H 0.1165 0.77468 0.80571 0.0
S498 S 0.10718 0.51195 0.75763 0.0
N499 N 0.08986 0.55271 0.76521 0.0
N500 N 0.12248 0.56386 0.76617 0.0
C501 C 0.11377 0.61846 0.77536 0.0
C502 C 0.09609 0.61237 0.77486 0.0
C503 C 0.1253 0.67748 0.44517 0.0
C504 C 0.11286 0.62801 0.44766 0.0
C505 C 0.14206 0.65972 0.44624 0.0
C506 C 0.14688 0.59184 0.44926 0.0
H507 H 0.12207 0.72917 0.43983 0.0
H508 H 0.15125 0.69826 0.44154 0.0
S509 S 0.11916 0.44476 0.46017 0.0
N510 N 0.10646 0.50977 0.45683 0.0
N511 N 0.13811 0.47616 0.45773 0.0
C512 C 0.13465 0.54295 0.45448 0.0
C513 C 0.11754 0.5612 0.454 0.0
C514 C 0.87085 0.37466 0.2189 0.0
C515 C 0.87895 0.43106 0.20682 0.0
C516 C 0.8535 0.36888 0.21778 0.0
C517 C 0.84398 0.41958 0.20467 0.0
H518 H 0.87797 0.33125 0.22586 0.0
H519 H 0.84778 0.32152 0.22411 0.0
S520 S 0.85912 0.5845 0.17728 0.0
N521 N 0.87608 0.54361 0.18678 0.0
N522 N 0.84352 0.53353 0.18516 0.0
C523 C 0.85182 0.48011 0.1965 0.0
C524 C 0.86936 0.48573 0.19749 0.0
C525 C 0.88636 0.46025 0.54962 0.0
C526 C 0.89568 0.4043 0.54028 0.0
C527 C 0.8692 0.45562 0.55316 0.0
C528 C 0.86075 0.3952 0.54716 0.0
H529 H 0.89257 0.50579 0.5569 0.0
H530 H 0.86275 0.49748 0.56317 0.0
S531 S 0.87895 0.23833 0.51736 0.0
N532 N 0.89493 0.28987 0.52132 0.0
N533 N 0.86246 0.28148 0.52769 0.0
C534 C 0.86957 0.34174 0.53448 0.0
C535 C 0.88715 0.34627 0.53103 0.0
C536 C 0.60646 0.23145 0.80466 0.0
C537 C 0.61618 0.1799 0.79261 0.0
C538 C 0.58917 0.22756 0.8042 0.0
C539 C 0.58101 0.17182 0.79179 0.0
H540 H 0.61223 0.27112 0.81724 0.0
H541 H 0.5822 0.26509 0.8161 0.0
S542 S 0.60086 0.03147 0.75195 0.0
N543 N 0.61652 0.0779 0.76357 0.0
N544 N 0.58386 0.07042 0.76275 0.0
C545 C 0.59052 0.12498 0.77622 0.0
C546 C 0.60821 0.12913 0.77661 0.0
C547 C 0.63936 0.05276 0.40598 0.0
C548 C 0.64785 0.08349 0.42878 0.0
C549 C 0.62229 0.05985 0.40288 0.0
C550 C 0.61291 0.09796 0.42247 0.0
H551 H 0.64611 0.02567 0.38949 0.0
H552 H 0.61648 0.03714 0.38428 0.0
S553 S 0.62893 0.18247 0.48776 0.0
N554 N 0.64555 0.14874 0.47274 0.0
N555 N 0.6131 0.16169 0.46707 0.0
C556 C 0.62099 0.1248 0.44666 0.0
C557 C 0.63857 0.11764 0.44978 0.0
C558 C 0.34447 0.90053 0.21777 0.0
C559 C 0.34315 0.82981 0.21513 0.0
C560 C 0.36002 0.93234 0.2179 0.0
C561 C 0.37465 0.89411 0.21646 0.0
H562 H 0.33352 0.93186 0.21593 0.0
H563 H 0.36058 -0.01301 0.21629 0.0
S564 S 0.37771 0.70714 0.21445 0.0
N565 N 0.35759 0.72243 0.21444 0.0
N566 N 0.38686 0.78183 0.21643 0.0
C567 C 0.37344 0.8232 0.2177 0.0
C568 C 0.35763 0.79099 0.21659 0.0
C569 C 0.37603 0.75917 0.57768 0.0
C570 C 0.36515 0.80307 0.56323 0.0
C571 C 0.39318 0.76917 0.57675 0.0
C572 C 0.40005 0.82312 0.56122 0.0
H573 H 0.37119 0.71963 0.59148 0.0
H574 H 0.40101 0.73789 0.59016 0.0
S575 S 0.37727 0.94774 0.51713 0.0
N576 N 0.36263 0.89847 0.53062 0.0
N577 N 0.39503 0.91743 0.52912 0.0
C578 C 0.38951 0.86383 0.5447 0.0
C579 C 0.37197 0.85357 0.54555 0.0
C580 C 0.60937 0.53185 0.29709 0.0
C581 C 0.62138 0.58352 0.29681 0.0
C582 C 0.59249 0.54688 0.29388 0.0
C583 C 0.5872 0.61419 0.29106 0.0
H584 H 0.61291 0.48047 0.30236 0.0
H585 H 0.5835 0.50667 0.29684 0.0
S586 S 0.61391 0.76621 0.28553 0.0
N587 N 0.62704 0.70302 0.29001 0.0
N588 N 0.59525 0.73171 0.28499 0.0
C589 C 0.59919 0.66531 0.28815 0.0
C590 C 0.61635 0.64982 0.29079 0.0
C591 C 0.63358 0.57725 0.94237 0.0
C592 C 0.64346 0.53428 0.92546 0.0
C593 C 0.61618 0.57233 0.94168 0.0
C594 C 0.60828 0.52454 0.92394 0.0
H595 H 0.63919 0.61924 0.95373 0.0
H596 H 0.60894 0.61019 0.95285 0.0
S597 S 0.62889 0.39056 0.8812 0.0
N598 N 0.6443 0.43538 0.89474 0.0
N599 N 0.61174 0.42564 0.89352 0.0
C600 C 0.61815 0.47633 0.90981 0.0
C601 C 0.63574 0.48133 0.91057 0.0
C602 C 0.34554 0.33855 0.70333 0.0
C603 C 0.33552 0.39347 0.69524 0.0
C604 C 0.36293 0.34269 0.70108 0.0
C605 C 0.37063 0.40171 0.69054 0.0
H606 H 0.33992 0.29027 0.70857 0.0
H607 H 0.37019 0.29747 0.70476 0.0
S608 S 0.34995 0.56319 0.67232 0.0
N609 N 0.33462 0.51146 0.6809 0.0
N610 N 0.36713 0.51901 0.67646 0.0
C611 C 0.36079 0.45893 0.68556 0.0
C612 C 0.34324 0.45485 0.68798 0.0
C613 C 0.3653 0.34435 0.11406 0.0
C614 C 0.35717 0.33781 0.08755 0.0
C615 C 0.38157 0.36771 0.11578 0.0
C616 C 0.39063 0.38493 0.09108 0.0
H617 H 0.35898 0.33221 0.13392 0.0
H618 H 0.38711 0.37223 0.13685 0.0
S619 S 0.3754 0.37583 0.01624 0.0
N620 N 0.3595 0.34987 0.03577 0.0
N621 N 0.39045 0.39321 0.03909 0.0
C622 C 0.38287 0.37776 0.06427 0.0
C623 C 0.36604 0.35464 0.0625 0.0
C624 C -0.00414 0.19154 0.24363 0.0
C625 C -0.00729 0.16844 0.27163 0.0
C626 C 0.98399 0.22858 0.22846 0.0
C627 C 0.96846 0.24386 0.2406 0.0
H628 H 0.00792 0.18436 0.23387 0.0
H629 H 0.98727 0.24703 0.20732 0.0
S630 S 0.95307 0.18564 0.31149 0.0
N631 N 0.97221 0.15668 0.30965 0.0
N632 N 0.94987 0.22614 0.28105 0.0
C633 C 0.96471 0.21713 0.26781 0.0
C634 C 0.97683 0.17933 0.28329 0.0
C635 C 0.21981 0.96398 0.2229 0.0
C636 C 0.22309 0.01129 0.24474 0.0
C637 C 0.2325 0.92411 0.21118 0.0
C638 C 0.24893 0.92975 0.22096 0.0
H639 H 0.20721 0.95475 0.2159 0.0
H640 H 0.22927 0.88685 0.19509 0.0
S641 S 0.26454 0.05414 0.27416 0.0
N642 N 0.24437 0.06754 0.27299 0.0
N643 N 0.26813 -0.00761 0.25118 0.0
C644 C 0.25256 -0.01994 0.24136 0.0
C645 C 0.23968 0.021 0.25311 0.0
C646 C 0.01572 0.00344 0.01365 0.0
C647 C 0.01189 0.04163 0.98905 0.0
C648 C 0.00348 0.96644 0.02825 0.0
C649 C 0.98697 0.96514 0.01856 0.0
H650 H 0.02836 0.0007 0.02133 0.0
H651 H 0.00704 0.93781 0.04705 0.0
S652 S 0.97012 0.06011 0.95651 0.0
N653 N 0.99005 0.07883 0.9567 0.0
N654 N 0.96722 0.00847 0.98387 0.0
C655 C 0.98287 0.00429 0.99444 0.0
C656 C -0.00474 0.04288 0.97984 0.0
C657 C 0.23639 0.21711 0.99483 0.0
C658 C 0.23985 0.19997 0.96623 0.0
C659 C 0.24836 0.24757 0.0122 0.0
C660 C 0.26443 0.2616 0.00189 0.0
H661 H 0.22423 0.20779 0.0039 0.0
H662 H 0.24502 0.25868 0.0342 0.0
S663 S 0.27981 0.2276 0.92828 0.0
N664 N 0.26044 0.20051 0.92801 0.0
N665 N 0.28309 0.25678 0.96095 0.0
C666 C 0.26806 0.24537 0.97321 0.0
C667 C 0.25576 0.21469 0.95536 0.0
C668 C 0.96083 0.70675 0.73517 0.0
C669 C 0.96395 0.74561 0.71047 0.0
C670 C 0.97303 0.6646 0.74688 0.0
C671 C 0.98889 0.65926 0.73436 0.0
H672 H 0.94889 0.70929 0.74576 0.0
H673 H 0.97014 0.6378 0.76653 0.0
S674 S 0.00289 0.74518 0.66776 0.0
N675 N 0.98377 0.77226 0.67265 0.0
N676 N 0.00662 0.69314 0.69464 0.0
C677 C -0.00804 0.69573 0.70898 0.0
C678 C 0.97956 0.73898 0.69712 0.0
C679 C 0.70538 0.96855 0.73626 0.0
C680 C 0.70696 -0.01703 0.76562 0.0
C681 C 0.71739 0.93049 0.72175 0.0
C682 C 0.73149 0.9053 0.73599 0.0
H683 H 0.695 -0.01189 0.72416 0.0
H684 H 0.71589 0.92319 0.69889 0.0
S685 S 0.74044 0.92162 0.8137 0.0
N686 N 0.72297 0.96351 0.8091 0.0
N687 N 0.74554 0.89247 0.78174 0.0
C688 C 0.73277 0.91626 0.76568 0.0
C689 C 0.72053 0.95504 0.78049 0.0
C690 C 0.75271 0.72505 0.9538 0.0
C691 C 0.73634 0.72555 0.9642 0.0
C692 C 0.76516 0.76377 0.96689 0.0
C693 C 0.76167 0.80521 0.99069 0.0
H694 H 0.75607 0.6931 0.93584 0.0
H695 H 0.77773 0.75886 0.95901 0.0
S696 S 0.72015 0.83217 0.02336 0.0
N697 N 0.71691 0.77601 -0.00221 0.0
N698 N 0.74014 0.84964 0.02214 0.0
C699 C 0.74509 0.8094 0.00011 0.0
C700 C 0.73248 0.76918 0.98702 0.0
C701 C 0.21028 0.44943 0.74452 0.0
C702 C 0.21332 0.48491 0.77011 0.0
C703 C 0.22188 0.40333 0.73349 0.0
C704 C 0.23703 0.39074 0.74758 0.0
H705 H 0.19909 0.45879 0.73238 0.0
H706 H 0.21928 0.38017 0.71294 0.0
S707 S 0.24984 0.46255 0.81766 0.0
N708 N 0.23178 0.49824 0.811 0.0
N709 N 0.25351 0.41208 0.79021 0.0
C710 C 0.2397 0.42244 0.77418 0.0
C711 C 0.22791 0.46948 0.7854 0.0
C712 C 0.00436 0.47709 0.45105 0.0
C713 C 0.0203 0.48103 0.46319 0.0
C714 C -0.00783 0.43433 0.46252 0.0
C715 C -0.00466 0.39407 0.48678 0.0
H716 H 0.00104 0.50895 0.43307 0.0
H717 H 0.97985 0.43639 0.45336 0.0
S718 S 0.03584 0.37732 0.52379 0.0
N719 N 0.03921 0.4345 0.49863 0.0
N720 N 0.01625 0.35455 0.52034 0.0
C721 C 0.0116 0.39357 0.49776 0.0
C722 C 0.02406 0.43705 0.486 0.0
C723 C 0.24105 0.70725 0.50045 0.0
C724 C 0.24476 0.66359 0.47752 0.0
C725 C 0.25319 0.74923 0.5125 0.0
C726 C 0.26964 0.74908 0.50233 0.0
H727 H 0.22862 0.70932 0.50921 0.0
H728 H 0.2497 0.78045 0.53061 0.0
S729 S 0.28572 0.6463 0.4418 0.0
N730 N 0.266 0.62469 0.4443 0.0
N731 N 0.28885 0.70302 0.4672 0.0
C732 C 0.27346 0.70676 0.47898 0.0
C733 C 0.26105 0.66413 0.46658 0.0
C734 C 0.73089 0.40406 0.23375 0.0
C735 C 0.74689 0.40537 0.24575 0.0
C736 C 0.71775 0.43971 0.24625 0.0
C737 C 0.72004 0.47831 0.27126 0.0
H738 H 0.72854 0.37681 0.21402 0.0
H739 H 0.7057 0.43716 0.23609 0.0
S740 S 0.75925 0.49475 0.31242 0.0
N741 N 0.76407 0.44576 0.28502 0.0
N742 N 0.73943 0.5128 0.30849 0.0
C743 C 0.73588 0.47859 0.28397 0.0
C744 C 0.74925 0.442 0.27129 0.0
C745 C 0.75325 0.20503 0.53848 0.0
C746 C 0.76974 0.20499 0.5286 0.0
C747 C 0.74117 0.16347 0.52595 0.0
C748 C 0.74509 0.12012 0.50301 0.0
H749 H 0.74947 0.23885 0.55554 0.0
H750 H 0.72849 0.16825 0.53334 0.0
S751 S 0.78701 0.09292 0.47214 0.0
N752 N 0.78975 0.15207 0.49666 0.0
N753 N 0.76708 0.07402 0.47312 0.0
C754 C 0.76177 0.11625 0.4942 0.0
C755 C 0.77407 0.15878 0.50691 0.0
C756 C 0.4585 0.18053 0.7355 0.0
C757 C 0.46231 0.21661 0.71035 0.0
C758 C 0.47013 0.13734 0.74828 0.0
C759 C 0.48606 0.1284 0.73639 0.0
H760 H 0.44665 0.18751 0.74605 0.0
H761 H 0.4669 0.11395 0.76854 0.0
S762 S 0.50119 0.20218 0.66797 0.0
N763 N 0.48243 0.23385 0.67205 0.0
N764 N 0.5042 0.15273 0.69598 0.0
C765 C 0.48954 0.16009 0.71004 0.0
C766 C 0.47773 0.20432 0.69711 0.0
C767 C 0.51216 0.94995 0.52259 0.0
C768 C 0.49732 0.9258 0.5103 0.0
C769 C 0.52352 -0.0114 0.50664 0.0
C770 C 0.52034 0.00536 0.47792 0.0
H771 H 0.5148 0.94106 0.54504 0.0
H772 H 0.53459 0.0072 0.51714 0.0
S773 S 0.48456 0.94696 0.43439 0.0
N774 N 0.48102 0.9158 0.46666 0.0
N775 N 0.50221 -0.01121 0.43686 0.0
C776 C 0.506 0.97868 0.46493 0.0
C777 C 0.49456 0.93869 0.48104 0.0
C778 C 0.48012 0.76027 0.21065 0.0
C779 C 0.46438 0.76831 0.22323 0.0
C780 C 0.49169 0.71462 0.22191 0.0
C781 C 0.488 0.67529 0.24628 0.0
H782 H 0.48381 0.79118 0.19254 0.0
H783 H 0.50396 0.71348 0.21248 0.0
S784 S 0.44755 0.66854 0.28421 0.0
N785 N 0.44497 0.72653 0.25915 0.0
N786 N 0.46673 0.64107 0.28035 0.0
C787 C 0.47187 0.67901 0.25769 0.0
C788 C 0.46008 0.72553 0.24622 0.0
C789 C 0.48495 0.49805 -0.00035 0.0
C790 C 0.48847 0.46821 0.0263 0.0
C791 C 0.49753 0.52653 0.98279 0.0
C792 C 0.5142 0.52557 0.99167 0.0
H793 H 0.4723 0.50125 0.99205 0.0
H794 H 0.49412 0.54859 0.96238 0.0
S795 S 0.53008 0.45128 0.05931 0.0
N796 N 0.50987 0.43837 0.06068 0.0
N797 N 0.53359 0.49071 0.02868 0.0
C798 C 0.51795 0.49495 0.01809 0.0
C799 C 0.50508 0.46654 0.03545 0.0
C800 C 0.06551 0.44644 0.34296 0.0
C801 C 0.05411 0.49059 0.35578 0.0
C802 C 0.06039 0.38338 0.33265 0.0
C803 C 0.04386 0.36216 0.33589 0.0
H804 H 0.07856 0.4594 0.34221 0.0
H805 H 0.06964 0.34922 0.32406 0.0
S806 S 0.00916 0.46088 0.36645 0.0
N807 N 0.02544 0.51123 0.36927 0.0
N808 N 0.01597 0.39099 0.35104 0.0
C809 C 0.03223 0.40703 0.34743 0.0
C810 C 0.03733 0.47195 0.3571 0.0
C811 C 0.20727 0.75019 0.35128 0.0
C812 C 0.19497 0.72564 0.36981 0.0
C813 C 0.20409 0.80567 0.33361 0.0
C814 C 0.1884 0.83598 0.33348 0.0
H815 H 0.21973 0.72934 0.35186 0.0
H816 H 0.21416 0.82735 0.32124 0.0
S817 S 0.15143 0.7839 0.37499 0.0
N818 N 0.16612 0.73082 0.38497 0.0
N819 N 0.16008 0.83452 0.35103 0.0
C820 C 0.17563 0.80845 0.3501 0.0
C821 C 0.17895 0.75307 0.36856 0.0
C822 C 0.03732 0.90901 0.84673 0.0
C823 C 0.03329 0.90725 0.87596 0.0
C824 C 0.03305 0.85558 0.82878 0.0
C825 C 0.02449 0.79892 0.83949 0.0
H826 H 0.04423 0.95113 0.83781 0.0
H827 H 0.037 0.85792 0.80659 0.0
S828 S 0.00869 0.77658 0.91371 0.0
N829 N 0.01882 0.84925 0.91444 0.0
N830 N 0.01039 0.74823 0.88052 0.0
C831 C 0.0195 0.79865 0.86843 0.0
C832 C 0.02407 0.85294 0.88678 0.0
C833 C 0.18821 0.47555 0.88678 0.0
C834 C 0.17274 0.48293 0.87326 0.0
C835 C 0.19307 0.41322 0.89795 0.0
C836 C 0.1824 0.35751 0.89662 0.0
H837 H 0.19714 0.51659 0.88685 0.0
H838 H 0.20548 0.40778 0.90651 0.0
S839 S 0.13985 0.35247 0.86737 0.0
N840 N 0.1462 0.43091 0.86176 0.0
N841 N 0.15531 0.31374 0.88368 0.0
C842 C 0.16645 0.36525 0.88537 0.0
C843 C 0.16159 0.42829 0.8735 0.0
C844 C 0.94282 0.62586 0.6209 0.0
C845 C 0.93559 0.67888 0.60542 0.0
C846 C 0.95117 0.57394 0.6068 0.0
C847 C 0.95208 0.57231 0.57669 0.0
H848 H 0.9421 0.62463 0.6441 0.0
H849 H 0.95628 0.53339 0.61964 0.0
S850 S 0.93643 0.70371 0.52676 0.0
N851 N 0.93103 0.73084 0.55892 0.0
N852 N 0.94628 0.6316 0.53201 0.0
C853 C 0.94555 0.627 0.56106 0.0
C854 C 0.93733 0.68062 0.57554 0.0
C855 C 0.79326 0.05578 0.62348 0.0
C856 C 0.79008 0.05324 0.6531 0.0
C857 C 0.8021 0.10949 0.6115 0.0
C858 C 0.80772 0.16317 0.62865 0.0
H859 H 0.78889 0.01616 0.60936 0.0
H860 H 0.80381 0.11055 0.58845 0.0
S861 S 0.8028 0.18055 0.70723 0.0
N862 N 0.79362 0.10811 0.69942 0.0
N863 N 0.8098 0.21074 0.67649 0.0
C864 C 0.8048 0.16112 0.65826 0.0
C865 C 0.79606 0.10574 0.6706 0.0
C866 C 0.92216 0.12947 0.15096 0.0
C867 C 0.92142 0.19086 0.13595 0.0
C868 C 0.92612 0.06975 0.1367 0.0
C869 C 0.92904 0.06973 0.10702 0.0
H870 H 0.921 0.12828 0.17411 0.0
H871 H 0.92756 0.02391 0.14918 0.0
S872 S 0.92562 0.21555 0.05754 0.0
N873 N 0.92185 0.24735 0.08964 0.0
N874 N 0.92886 0.13389 0.06253 0.0
C875 C 0.92674 0.12952 0.09139 0.0
C876 C 0.92302 0.19063 0.10599 0.0
C877 C 0.77024 0.57133 0.1249 0.0
C878 C 0.78434 0.53936 0.13588 0.0
C879 C 0.77185 0.62389 0.10498 0.0
C880 C 0.78756 0.64318 0.09488 0.0
H881 H 0.75798 0.55665 0.13219 0.0
H882 H 0.76087 0.64987 0.09766 0.0
S883 S 0.82814 0.57292 0.11646 0.0
N884 N 0.81436 0.52993 0.13534 0.0
N885 N 0.81735 0.62646 0.09682 0.0
C886 C 0.80167 0.61013 0.10509 0.0
C887 C 0.80008 0.55845 0.12595 0.0
C888 C 0.52061 0.28141 0.87243 0.0
C889 C 0.51774 0.28722 0.8428 0.0
C890 C 0.52684 0.33593 0.8881 0.0
C891 C 0.53 0.39833 0.8748 0.0
H892 H 0.51902 0.23346 0.88334 0.0
H893 H 0.52958 0.32859 0.91062 0.0
S894 S 0.52163 0.44281 0.79886 0.0
N895 N 0.51645 0.36221 0.80153 0.0
N896 N 0.52787 0.4655 0.83114 0.0
C897 C 0.52578 0.40654 0.84576 0.0
C898 C 0.51966 0.35074 0.82973 0.0
C899 C 0.66643 0.84871 0.89726 0.0
C900 C 0.67353 0.79937 0.8794 0.0
C901 C 0.65993 0.90806 0.88575 0.0
C902 C 0.65998 0.91886 0.85606 0.0
H903 H 0.6667 0.84322 0.92037 0.0
H904 H 0.65564 0.94725 0.9002 0.0
S905 S 0.67529 0.80163 0.79996 0.0
N906 N 0.67892 0.76222 0.83052 0.0
N907 N 0.6664 0.87385 0.80878 0.0
C908 C 0.66589 0.86781 0.83781 0.0
C909 C 0.6728 0.80791 0.84955 0.0
C910 C 0.55323 0.85891 0.33007 0.0
C911 C 0.53637 0.8444 0.32574 0.0
C912 C 0.55802 0.91413 0.3468 0.0
C913 C 0.54606 0.95692 0.35885 0.0
H914 H 0.56271 0.82525 0.32188 0.0
H915 H 0.57108 0.9228 0.35069 0.0
S916 S 0.50045 0.94183 0.35246 0.0
N917 N 0.5078 0.87699 0.33409 0.0
N918 N 0.51681 -0.01675 0.36455 0.0
C919 C 0.52921 0.94471 0.35352 0.0
C920 C 0.52435 0.88755 0.33717 0.0
C921 C 0.6918 0.32635 0.41688 0.0
C922 C 0.70154 0.27711 0.40307 0.0
C923 C 0.68397 0.3772 0.4013 0.0
C924 C 0.68543 0.37995 0.37142 0.0
H925 H 0.68992 0.32507 0.43987 0.0
H926 H 0.67663 0.41439 0.4127 0.0
S927 S 0.71123 0.26977 0.32526 0.0
N928 N 0.71362 0.23906 0.35792 0.0
N929 N 0.69843 0.33434 0.32859 0.0
C930 C 0.69552 0.33285 0.3573 0.0
C931 C 0.70378 0.28162 0.3732 0.0
C932 C 0.44715 0.7055 0.10121 0.0
C933 C 0.43534 0.65457 0.0966 0.0
C934 C 0.44233 0.76895 0.11149 0.0
C935 C 0.42567 0.78203 0.11828 0.0
H936 H 0.4602 0.69538 0.09787 0.0
H937 H 0.45187 0.8059 0.1163 0.0
S938 S 0.39004 0.66609 0.10834 0.0
N939 N 0.40627 0.62223 0.09745 0.0
N940 N 0.39729 0.74083 0.11811 0.0
C941 C 0.41369 0.73248 0.11245 0.0
C942 C 0.41853 0.66864 0.10126 0.0
C943 C 0.28866 0.97129 0.09896 0.0
C944 C 0.30152 0.95252 0.11752 0.0
C945 C 0.28969 0.03145 0.08336 0.0
C946 C 0.30381 0.07261 0.0853 0.0
H947 H 0.27721 0.94255 0.09836 0.0
H948 H 0.279 0.04805 0.07122 0.0
S949 S 0.34178 0.0399 0.12733 0.0
N950 N 0.32945 0.9753 0.13461 0.0
N951 N 0.33152 0.08783 0.10443 0.0
C952 C 0.31735 0.05113 0.10158 0.0
C953 C 0.31617 -0.00914 0.11797 0.0
C954 C 0.41836 0.1576 0.59658 0.0
C955 C 0.42916 0.21045 0.60404 0.0
C956 C 0.42454 0.09673 0.58572 0.0
C957 C 0.4417 0.08665 0.58295 0.0
H958 H 0.40513 0.16264 0.59999 0.0
H959 H 0.41594 0.0561 0.58094 0.0
S960 S 0.47504 0.20987 0.59826 0.0
N961 N 0.45774 0.25012 0.60638 0.0
N962 N 0.4693 0.13413 0.58705 0.0
C963 C 0.45257 0.13949 0.58949 0.0
C964 C 0.4463 0.20207 0.59975 0.0
C965 C 0.28223 0.59217 0.6592 0.0
C966 C 0.27642 0.53327 0.64561 0.0
C967 C 0.28895 0.64522 0.64333 0.0
C968 C 0.29025 0.64075 0.61341 0.0
H969 H 0.28213 0.59652 0.68236 0.0
H970 H 0.29361 0.68918 0.65465 0.0
S971 S 0.27449 0.503 0.56707 0.0
N972 N 0.27043 0.47761 0.60008 0.0
N973 N 0.28366 0.57734 0.57033 0.0
C974 C 0.28374 0.58411 0.59933 0.0
C975 C 0.27657 0.53044 0.61544 0.0
C976 C 0.05036 0.90795 0.43224 0.0
C977 C 0.04158 0.8561 0.41844 0.0
C978 C 0.0472 0.976 0.42583 0.0
C979 C 0.03544 -0.00612 0.40486 0.0
H980 H 0.06087 0.89579 0.44573 0.0
H981 H 0.05529 0.01398 0.43505 0.0
S982 S 0.00685 0.87637 0.36748 0.0
N983 N 0.01886 0.82665 0.38687 0.0
N984 N 0.01293 0.9545 0.37445 0.0
C985 C 0.02523 0.94259 0.39365 0.0
C986 C 0.02834 0.87351 0.40051 0.0
C987 C 0.1945 0.29827 0.4133 0.0
C988 C 0.20391 0.34114 0.39566 0.0
C989 C 0.19112 0.23154 0.40487 0.0
C990 C 0.197 0.20616 0.3785 0.0
H991 H 0.18844 0.31814 0.43225 0.0
H992 H 0.18287 0.20153 0.4181 0.0
S993 S 0.22518 0.29529 0.32804 0.0
N994 N 0.22113 0.35156 0.35324 0.0
N995 N 0.21508 0.226 0.33746 0.0
C996 C 0.20788 0.24672 0.36231 0.0
C997 C 0.21127 0.31436 0.37092 0.0
C998 C 0.03953 0.39577 0.87839 0.0
C999 C 0.03734 0.41483 0.84951 0.0
C1000 C 0.04282 0.32869 0.88602 0.0
C1001 C 0.04422 0.27817 0.86504 0.0
H1002 H 0.03904 0.4332 0.89533 0.0
H1003 H 0.04477 0.31685 0.90844 0.0
S1004 S 0.03791 0.2999 0.78664 0.0
N1005 N 0.0356 0.37657 0.80004 0.0
N1006 N 0.04179 0.25039 0.8143 0.0
C1007 C 0.04137 0.29585 0.83617 0.0
C1008 C 0.03789 0.36415 0.82843 0.0
C1009 C 0.19483 0.9695 0.81187 0.0
C1010 C 0.20372 -0.00987 0.83642 0.0
C1011 C 0.19208 0.90071 0.80616 0.0
C1012 C 0.19831 0.85098 0.82464 0.0
H1013 H 0.18839 0.00627 0.79878 0.0
H1014 H 0.18348 0.88696 0.78931 0.0
S1015 S 0.22638 0.87738 0.88632 0.0
N1016 N 0.2219 0.95452 0.87516 0.0
N1017 N 0.21651 0.82542 0.86447 0.0
C1018 C 0.20922 0.87053 0.84649 0.0
C1019 C 0.21204 0.94028 0.85234 0.0
C1020 C 0.94274 0.1416 0.58847 0.0
C1021 C 0.94365 0.19202 0.60967 0.0
C1022 C 0.93694 0.0768 0.59494 0.0
C1023 C 0.93208 0.05929 0.62292 0.0
H1024 H 0.94578 0.15287 0.56635 0.0
H1025 H 0.93599 0.04028 0.57768 0.0
S1026 S 0.93357 0.16963 0.68695 0.0
N1027 N 0.94025 0.21815 0.66049 0.0
N1028 N 0.92962 0.09507 0.67247 0.0
C1029 C 0.93384 0.1074 0.64475 0.0
C1030 C 0.93955 0.1741 0.63815 0.0
C1031 C 0.7802 0.55828 0.63659 0.0
C1032 C 0.78521 0.53729 0.60914 0.0
C1033 C 0.77421 0.62354 0.64129 0.0
C1034 C 0.77336 0.67073 0.61876 0.0
H1035 H 0.78194 0.52543 0.65494 0.0
H1036 H 0.77174 0.63863 0.6632 0.0
S1037 S 0.78131 0.63493 0.54176 0.0
N1038 N 0.78608 0.56374 0.55833 0.0
N1039 N 0.77497 0.68747 0.56703 0.0
C1040 C 0.77641 0.64755 0.59062 0.0
C1041 C 0.78235 0.58048 0.58584 0.0
C1042 C 0.9553 0.60882 0.16975 0.0
C1043 C 0.95625 0.56087 0.14769 0.0
C1044 C 0.95733 0.67769 0.16369 0.0
C1045 C 0.96026 0.70019 0.13539 0.0
H1046 H 0.95102 0.59422 0.1909 0.0
H1047 H 0.95474 0.71355 0.18067 0.0
S1048 S 0.96988 0.59107 0.07288 0.0
N1049 N 0.96479 0.53776 0.09871 0.0
N1050 N 0.9687 0.6673 0.08721 0.0
C1051 C 0.96421 0.65154 0.11451 0.0
C1052 C 0.96211 0.58155 0.1207 0.0
C1053 C 0.79813 0.13964 0.10657 0.0
C1054 C 0.79665 0.15833 0.13561 0.0
C1055 C 0.79909 0.07185 0.09835 0.0
C1056 C 0.79876 0.01983 0.11884 0.0
H1057 H 0.79867 0.17776 0.0899 0.0
H1058 H 0.80043 0.06039 0.07576 0.0
S1059 S 0.79426 0.04146 0.19766 0.0
N1060 N 0.7943 0.11933 0.18486 0.0
N1061 N 0.79614 -0.00862 0.16953 0.0
C1062 C 0.79692 0.03759 0.14798 0.0
C1063 C 0.79582 0.10692 0.15632 0.0
C1064 C 0.54654 0.79501 0.84322 0.0
C1065 C 0.54746 0.77385 0.87206 0.0
C1066 C 0.54202 0.86116 0.83597 0.0
C1067 C 0.53844 0.90914 0.85726 0.0
H1068 H 0.54924 0.76012 0.82594 0.0
H1069 H 0.54176 0.87515 0.81352 0.0
S1070 S 0.53849 0.87947 0.93595 0.0
N1071 N 0.54395 0.80606 0.92201 0.0
N1072 N 0.5356 0.93067 0.90845 0.0
C1073 C 0.53911 0.88863 0.8862 0.0
C1074 C 0.54357 0.82099 0.89357 0.0
C1075 C 0.70376 0.37943 0.8907 0.0
C1076 C 0.70791 0.42098 0.86727 0.0
C1077 C 0.69743 0.31445 0.88636 0.0
C1078 C 0.69534 0.28841 0.85852 0.0
H1079 H 0.70353 0.39954 0.9123 0.0
H1080 H 0.69294 0.28672 0.90485 0.0
S1081 S 0.71016 0.36766 0.79111 0.0
N1082 N 0.71379 0.42494 0.8161 0.0
N1083 N 0.70198 0.30207 0.80793 0.0
C1084 C 0.70213 0.32479 0.83542 0.0
C1085 C 0.7085 0.39132 0.83984 0.0
C1086 C 0.52788 0.4165 0.35726 0.0
C1087 C 0.5329 0.47047 0.37486 0.0
C1088 C 0.53199 0.3499 0.36408 0.0
C1089 C 0.54102 0.33456 0.38895 0.0
H1090 H 0.52179 0.42583 0.33696 0.0
H1091 H 0.52892 0.31039 0.34886 0.0
S1092 S 0.55422 0.45472 0.44521 0.0
N1093 N 0.54524 0.50252 0.4207 0.0
N1094 N 0.55282 0.3762 0.43331 0.0
C1095 C 0.54454 0.38651 0.40836 0.0
C1096 C 0.54048 0.45488 0.40137 0.0
C1097 C 0.6948 0.84853 0.40408 0.0
C1098 C 0.70254 0.88894 0.38317 0.0
C1099 C 0.6881 0.78546 0.3971 0.0
C1100 C 0.68905 0.75977 0.369 0.0
H1101 H 0.69298 0.86726 0.42569 0.0
H1102 H 0.6818 0.75733 0.41382 0.0
S1103 S 0.71022 0.84146 0.30731 0.0
N1104 N 0.71233 0.89596 0.33388 0.0
N1105 N 0.69987 0.77666 0.32078 0.0
C1106 C 0.69779 0.79748 0.34832 0.0
C1107 C 0.70451 0.86218 0.3554 0.0
C1108 C 0.44228 0.26912 0.18573 0.0
C1109 C 0.452 0.28509 0.16147 0.0
C1110 C 0.43853 0.20171 0.19266 0.0
C1111 C 0.44477 0.14836 0.17607 0.0
H1112 H 0.43609 0.30872 0.19768 0.0
H1113 H 0.42951 0.19167 0.20936 0.0
S1114 S 0.47357 0.16217 0.11446 0.0
N1115 N 0.46986 0.24135 0.12378 0.0
N1116 N 0.46299 0.11474 0.13724 0.0
C1117 C 0.45606 0.16324 0.15405 0.0
C1118 C 0.45969 0.23171 0.14667 0.0
C1119 C 0.27563 0.55104 0.13216 0.0
C1120 C 0.28196 0.57482 0.15831 0.0
C1121 C 0.27686 0.48283 0.12468 0.0
C1122 C 0.28456 0.43618 0.14309 0.0
H1123 H 0.27122 0.58652 0.11618 0.0
H1124 H 0.27299 0.4678 0.10338 0.0
S1125 S 0.30007 0.47186 0.2165 0.0
N1126 N 0.2938 0.54606 0.20441 0.0
N1127 N 0.29605 0.41693 0.19073 0.0
C1128 C 0.28903 0.45804 0.17082 0.0
C1129 C 0.28775 0.52784 0.17836 0.0
C1130 C 0.44389 0.62738 0.67011 0.0
C1131 C 0.44863 0.5756 0.65132 0.0
C1132 C 0.44871 0.69452 0.66488 0.0
C1133 C 0.4582 0.71166 0.64044 0.0
H1134 H 0.43506 0.61716 0.68711 0.0
H1135 H 0.44348 0.73366 0.67837 0.0
S1136 S 0.47703 0.59054 0.58922 0.0
N1137 N 0.46575 0.54295 0.61087 0.0
N1138 N 0.47494 0.66887 0.60099 0.0
C1139 C 0.46479 0.65869 0.62388 0.0
C1140 C 0.4599 0.5906 0.62928 0.0
C1141 C 0.2973 0.03928 0.64595 0.0
C1142 C 0.29795 0.01779 0.61714 0.0
C1143 C 0.29205 0.10442 0.65325 0.0
C1144 C 0.2874 0.15085 0.632 0.0
H1145 H 0.3011 0.00588 0.66313 0.0
H1146 H 0.2924 0.11938 0.67558 0.0
S1147 S 0.28529 0.11829 0.55368 0.0
N1148 N 0.29227 0.04689 0.56743 0.0
N1149 N 0.28249 0.16968 0.58115 0.0
C1150 C 0.28727 0.12928 0.60322 0.0
C1151 C 0.29252 0.0627 0.59578 0.0
loop_
_geom_bond_atom_site_label_1
_geom_bond_atom_site_label_2
_geom_bond_distance
_geom_bond_site_symmetry_2
_ccdc_geom_bond_type
C0 O1 1.306 . S
C0 O3 1.160 . S
O1 C0 1.306 . S
O1 Cd2 2.228 . S
Cd2 O1 2.228 . S
Cd2 O6 2.273 . S
Cd2 O10 2.277 . S
O3 C0 1.160 . S
O3 Cd4 2.203 . S
Cd4 O3 2.203 . S
Cd4 O6 2.411 . S
Cd4 O7 2.333 . S
Cd4 O8 2.352 . S
Cd4 O12 2.277 . S
Cd4 O13 2.356 . S
C5 O10 1.209 . S
C5 O12 1.226 . S
O6 Cd2 2.273 . S
O6 Cd4 2.411 . S
O6 C9 1.320 . S
O7 Cd4 2.333 . S
O7 C9 1.214 . S
O8 Cd4 2.352 . S
O8 C11 1.258 . S
C9 O6 1.320 . S
C9 O7 1.214 . S
O10 Cd2 2.277 . S
O10 C5 1.209 . S
C11 O8 1.258 . S
C11 O13 1.282 . S
O12 Cd4 2.277 . S
O12 C5 1.226 . S
O13 Cd4 2.356 . S
O13 C11 1.282 . S
C14 O15 1.306 . S
C14 O17 1.160 . S
O15 C14 1.306 . S
O15 Cd16 2.228 . S
Cd16 O15 2.228 . S
Cd16 O20 2.273 . S
Cd16 O24 2.277 . S
O17 C14 1.160 . S
O17 Cd18 2.203 . S
Cd18 O17 2.203 . S
Cd18 O20 2.411 . S
Cd18 O21 2.333 1_545 S
Cd18 O22 2.352 . S
Cd18 O26 2.277 . S
Cd18 O27 2.356 . S
C19 O24 1.209 . S
C19 O26 1.226 . S
O20 Cd16 2.273 . S
O20 Cd18 2.411 . S
O20 C23 1.320 1_545 S
O21 Cd18 2.333 1_565 S
O21 C23 1.214 . S
O22 Cd18 2.352 . S
O22 C25 1.258 . S
C23 O20 1.320 1_565 S
C23 O21 1.214 . S
O24 Cd16 2.277 . S
O24 C19 1.209 . S
C25 O22 1.258 . S
C25 O27 1.282 . S
O26 Cd18 2.277 . S
O26 C19 1.226 . S
O27 Cd18 2.356 . S
O27 C25 1.282 . S
C28 O29 1.306 . S
C28 O31 1.160 . S
O29 C28 1.306 . S
O29 Cd30 2.228 . S
Cd30 O29 2.228 . S
Cd30 O34 2.273 . S
Cd30 O38 2.277 . S
O31 C28 1.160 . S
O31 Cd32 2.203 . S
Cd32 O31 2.203 . S
Cd32 O34 2.411 . S
Cd32 O35 2.333 1_545 S
Cd32 O36 2.352 . S
Cd32 O40 2.277 . S
Cd32 O41 2.356 . S
C33 O38 1.209 . S
C33 O40 1.226 . S
O34 Cd30 2.273 . S
O34 Cd32 2.411 . S
O34 C37 1.320 1_545 S
O35 Cd32 2.333 1_565 S
O35 C37 1.214 . S
O36 Cd32 2.352 . S
O36 C39 1.258 . S
C37 O34 1.320 1_565 S
C37 O35 1.214 . S
O38 Cd30 2.277 . S
O38 C33 1.209 . S
C39 O36 1.258 . S
C39 O41 1.282 . S
O40 Cd32 2.277 . S
O40 C33 1.226 . S
O41 Cd32 2.356 . S
O41 C39 1.282 . S
C42 O43 1.306 . S
C42 O45 1.160 . S
O43 C42 1.306 . S
O43 Cd44 2.228 . S
Cd44 O43 2.228 . S
Cd44 O48 2.273 . S
Cd44 O52 2.277 . S
O45 C42 1.160 . S
O45 Cd46 2.203 . S
Cd46 O45 2.203 . S
Cd46 O48 2.411 . S
Cd46 O49 2.333 . S
Cd46 O50 2.352 . S
Cd46 O54 2.277 . S
Cd46 O55 2.356 . S
C47 O52 1.209 . S
C47 O54 1.226 . S
O48 Cd44 2.273 . S
O48 Cd46 2.411 . S
O48 C51 1.320 . S
O49 Cd46 2.333 . S
O49 C51 1.214 . S
O50 Cd46 2.352 . S
O50 C53 1.258 . S
C51 O48 1.320 . S
C51 O49 1.214 . S
O52 Cd44 2.277 . S
O52 C47 1.209 . S
C53 O50 1.258 . S
C53 O55 1.282 . S
O54 Cd46 2.277 . S
O54 C47 1.226 . S
O55 Cd46 2.356 . S
O55 C53 1.282 . S
C56 O57 1.306 . S
C56 O59 1.160 . S
O57 C56 1.306 . S
O57 Cd58 2.228 . S
Cd58 O57 2.228 . S
Cd58 O62 2.273 . S
Cd58 O66 2.277 . S
O59 C56 1.160 . S
O59 Cd60 2.203 . S
Cd60 O59 2.203 . S
Cd60 O62 2.411 . S
Cd60 O63 2.333 . S
Cd60 O64 2.352 . S
Cd60 O68 2.277 . S
Cd60 O69 2.356 . S
C61 O66 1.209 . S
C61 O68 1.226 . S
O62 Cd58 2.273 . S
O62 Cd60 2.411 . S
O62 C65 1.320 . S
O63 Cd60 2.333 . S
O63 C65 1.214 . S
O64 Cd60 2.352 . S
O64 C67 1.258 . S
C65 O62 1.320 . S
C65 O63 1.214 . S
O66 Cd58 2.277 . S
O66 C61 1.209 . S
C67 O64 1.258 . S
C67 O69 1.282 . S
O68 Cd60 2.277 . S
O68 C61 1.226 . S
O69 Cd60 2.356 . S
O69 C67 1.282 . S
C70 O71 1.306 . S
C70 O73 1.160 . S
O71 C70 1.306 . S
O71 Cd72 2.228 . S
Cd72 O71 2.228 . S
Cd72 O76 2.273 . S
Cd72 O80 2.277 . S
O73 C70 1.160 . S
O73 Cd74 2.203 . S
Cd74 O73 2.203 . S
Cd74 O76 2.411 . S
Cd74 O77 2.333 1_565 S
Cd74 O78 2.352 . S
Cd74 O82 2.277 . S
Cd74 O83 2.356 . S
C75 O80 1.209 . S
C75 O82 1.226 . S
O76 Cd72 2.273 . S
O76 Cd74 2.411 . S
O76 C79 1.320 1_565 S
O77 Cd74 2.333 1_545 S
O77 C79 1.214 . S
O78 Cd74 2.352 . S
O78 C81 1.258 . S
C79 O76 1.320 1_545 S
C79 O77 1.214 . S
O80 Cd72 2.277 . S
O80 C75 1.209 . S
C81 O78 1.258 . S
C81 O83 1.282 . S
O82 Cd74 2.277 . S
O82 C75 1.226 . S
O83 Cd74 2.356 . S
O83 C81 1.282 . S
C84 O85 1.306 . S
C84 O87 1.160 . S
O85 C84 1.306 . S
O85 Cd86 2.228 . S
Cd86 O85 2.228 . S
Cd86 O90 2.273 . S
Cd86 O94 2.277 . S
O87 C84 1.160 . S
O87 Cd88 2.203 . S
Cd88 O87 2.203 . S
Cd88 O90 2.411 . S
Cd88 O91 2.333 1_565 S
Cd88 O92 2.352 . S
Cd88 O96 2.277 . S
Cd88 O97 2.356 . S
C89 O94 1.209 . S
C89 O96 1.226 . S
O90 Cd86 2.273 . S
O90 Cd88 2.411 . S
O90 C93 1.320 1_565 S
O91 Cd88 2.333 1_545 S
O91 C93 1.214 . S
O92 Cd88 2.352 . S
O92 C95 1.258 . S
C93 O90 1.320 1_545 S
C93 O91 1.214 . S
O94 Cd86 2.277 . S
O94 C89 1.209 . S
C95 O92 1.258 . S
C95 O97 1.282 . S
O96 Cd88 2.277 . S
O96 C89 1.226 . S
O97 Cd88 2.356 . S
O97 C95 1.282 . S
C98 O99 1.306 . S
C98 O101 1.160 . S
O99 C98 1.306 . S
O99 Cd100 2.228 . S
Cd100 O99 2.228 . S
Cd100 O104 2.273 . S
Cd100 O108 2.277 . S
O101 C98 1.160 . S
O101 Cd102 2.203 . S
Cd102 O101 2.203 . S
Cd102 O104 2.411 . S
Cd102 O105 2.333 . S
Cd102 O106 2.352 . S
Cd102 O110 2.277 . S
Cd102 O111 2.356 . S
C103 O108 1.209 . S
C103 O110 1.226 . S
O104 Cd100 2.273 . S
O104 Cd102 2.411 . S
O104 C107 1.320 . S
O105 Cd102 2.333 . S
O105 C107 1.214 . S
O106 Cd102 2.352 . S
O106 C109 1.258 . S
C107 O104 1.320 . S
C107 O105 1.214 . S
O108 Cd100 2.277 . S
O108 C103 1.209 . S
C109 O106 1.258 . S
C109 O111 1.282 . S
O110 Cd102 2.277 . S
O110 C103 1.226 . S
O111 Cd102 2.356 . S
O111 C109 1.282 . S
C112 O113 1.306 . S
C112 O115 1.160 . S
O113 C112 1.306 . S
O113 Cd114 2.228 . S
Cd114 O113 2.228 . S
Cd114 O118 2.273 . S
Cd114 O122 2.277 . S
O115 C112 1.160 . S
O115 Cd116 2.203 . S
Cd116 O115 2.203 . S
Cd116 O118 2.411 . S
Cd116 O119 2.333 . S
Cd116 O120 2.352 . S
Cd116 O124 2.277 . S
Cd116 O125 2.356 . S
C117 O122 1.209 . S
C117 O124 1.226 . S
O118 Cd114 2.273 . S
O118 Cd116 2.411 . S
O118 C121 1.320 . S
O119 Cd116 2.333 . S
O119 C121 1.214 . S
O120 Cd116 2.352 . S
O120 C123 1.258 . S
C121 O118 1.320 . S
C121 O119 1.214 . S
O122 Cd114 2.277 . S
O122 C117 1.209 . S
C123 O120 1.258 . S
C123 O125 1.282 . S
O124 Cd116 2.277 . S
O124 C117 1.226 . S
O125 Cd116 2.356 . S
O125 C123 1.282 . S
C126 O127 1.306 . S
C126 O129 1.160 . S
O127 C126 1.306 . S
O127 Cd128 2.228 . S
Cd128 O127 2.228 . S
Cd128 O132 2.273 . S
Cd128 O136 2.277 . S
O129 C126 1.160 . S
O129 Cd130 2.203 . S
Cd130 O129 2.203 . S
Cd130 O132 2.411 . S
Cd130 O133 2.333 . S
Cd130 O134 2.352 . S
Cd130 O138 2.277 . S
Cd130 O139 2.356 . S
C131 O136 1.209 . S
C131 O138 1.226 . S
O132 Cd128 2.273 . S
O132 Cd130 2.411 . S
O132 C135 1.320 . S
O133 Cd130 2.333 . S
O133 C135 1.214 . S
O134 Cd130 2.352 . S
O134 C137 1.258 . S
C135 O132 1.320 . S
C135 O133 1.214 . S
O136 Cd128 2.277 . S
O136 C131 1.209 . S
C137 O134 1.258 . S
C137 O139 1.282 . S
O138 Cd130 2.277 . S
O138 C131 1.226 . S
O139 Cd130 2.356 . S
O139 C137 1.282 . S
C140 O141 1.306 . S
C140 O143 1.160 . S
O141 C140 1.306 . S
O141 Cd142 2.228 . S
Cd142 O141 2.228 . S
Cd142 O146 2.273 . S
Cd142 O150 2.277 . S
O143 C140 1.160 . S
O143 Cd144 2.203 . S
Cd144 O143 2.203 . S
Cd144 O146 2.411 . S
Cd144 O147 2.333 . S
Cd144 O148 2.352 . S
Cd144 O152 2.277 . S
Cd144 O153 2.356 . S
C145 O150 1.209 . S
C145 O152 1.226 . S
O146 Cd142 2.273 . S
O146 Cd144 2.411 . S
O146 C149 1.320 . S
O147 Cd144 2.333 . S
O147 C149 1.214 . S
O148 Cd144 2.352 . S
O148 C151 1.258 . S
C149 O146 1.320 . S
C149 O147 1.214 . S
O150 Cd142 2.277 . S
O150 C145 1.209 . S
C151 O148 1.258 . S
C151 O153 1.282 . S
O152 Cd144 2.277 . S
O152 C145 1.226 . S
O153 Cd144 2.356 . S
O153 C151 1.282 . S
C154 O155 1.306 . S
C154 O157 1.160 . S
O155 C154 1.306 . S
O155 Cd156 2.228 . S
Cd156 O155 2.228 . S
Cd156 O160 2.273 . S
Cd156 O164 2.277 . S
O157 C154 1.160 . S
O157 Cd158 2.203 . S
Cd158 O157 2.203 . S
Cd158 O160 2.411 . S
Cd158 O161 2.333 . S
Cd158 O162 2.352 . S
Cd158 O166 2.277 . S
Cd158 O167 2.356 . S
C159 O164 1.209 . S
C159 O166 1.226 . S
O160 Cd156 2.273 . S
O160 Cd158 2.411 . S
O160 C163 1.320 . S
O161 Cd158 2.333 . S
O161 C163 1.214 . S
O162 Cd158 2.352 . S
O162 C165 1.258 . S
C163 O160 1.320 . S
C163 O161 1.214 . S
O164 Cd156 2.277 . S
O164 C159 1.209 . S
C165 O162 1.258 . S
C165 O167 1.282 . S
O166 Cd158 2.277 . S
O166 C159 1.226 . S
O167 Cd158 2.356 . S
O167 C165 1.282 . S
C168 O169 1.306 . S
C168 O171 1.160 . S
O169 C168 1.306 . S
O169 Cd170 2.228 . S
Cd170 O169 2.228 . S
Cd170 O174 2.273 . S
Cd170 O178 2.277 . S
O171 C168 1.160 . S
O171 Cd172 2.203 . S
Cd172 O171 2.203 . S
Cd172 O174 2.411 . S
Cd172 O175 2.333 . S
Cd172 O176 2.352 . S
Cd172 O180 2.277 . S
Cd172 O181 2.356 . S
C173 O178 1.209 . S
C173 O180 1.226 . S
O174 Cd170 2.273 . S
O174 Cd172 2.411 . S
O174 C177 1.320 . S
O175 Cd172 2.333 . S
O175 C177 1.214 . S
O176 Cd172 2.352 . S
O176 C179 1.258 . S
C177 O174 1.320 . S
C177 O175 1.214 . S
O178 Cd170 2.277 . S
O178 C173 1.209 . S
C179 O176 1.258 . S
C179 O181 1.282 . S
O180 Cd172 2.277 . S
O180 C173 1.226 . S
O181 Cd172 2.356 . S
O181 C179 1.282 . S
C182 O183 1.306 . S
C182 O185 1.160 . S
O183 C182 1.306 . S
O183 Cd184 2.228 . S
Cd184 O183 2.228 . S
Cd184 O188 2.273 . S
Cd184 O192 2.277 . S
O185 C182 1.160 . S
O185 Cd186 2.203 . S
Cd186 O185 2.203 . S
Cd186 O188 2.411 . S
Cd186 O189 2.333 . S
Cd186 O190 2.352 . S
Cd186 O194 2.277 . S
Cd186 O195 2.356 . S
C187 O192 1.209 . S
C187 O194 1.226 . S
O188 Cd184 2.273 . S
O188 Cd186 2.411 . S
O188 C191 1.320 . S
O189 Cd186 2.333 . S
O189 C191 1.214 . S
O190 Cd186 2.352 . S
O190 C193 1.258 . S
C191 O188 1.320 . S
C191 O189 1.214 . S
O192 Cd184 2.277 . S
O192 C187 1.209 . S
C193 O190 1.258 . S
C193 O195 1.282 . S
O194 Cd186 2.277 . S
O194 C187 1.226 . S
O195 Cd186 2.356 . S
O195 C193 1.282 . S
C196 O197 1.306 . S
C196 O199 1.160 . S
O197 C196 1.306 . S
O197 Cd198 2.228 . S
Cd198 O197 2.228 . S
Cd198 O202 2.273 . S
Cd198 O206 2.277 . S
O199 C196 1.160 . S
O199 Cd200 2.203 . S
Cd200 O199 2.203 . S
Cd200 O202 2.411 . S
Cd200 O203 2.333 . S
Cd200 O204 2.352 . S
Cd200 O208 2.277 . S
Cd200 O209 2.356 . S
C201 O206 1.209 . S
C201 O208 1.226 . S
O202 Cd198 2.273 . S
O202 Cd200 2.411 . S
O202 C205 1.320 . S
O203 Cd200 2.333 . S
O203 C205 1.214 . S
O204 Cd200 2.352 . S
O204 C207 1.258 . S
C205 O202 1.320 . S
C205 O203 1.214 . S
O206 Cd198 2.277 . S
O206 C201 1.209 . S
C207 O204 1.258 . S
C207 O209 1.282 . S
O208 Cd200 2.277 . S
O208 C201 1.226 . S
O209 Cd200 2.356 . S
O209 C207 1.282 . S
C210 O211 1.306 . S
C210 O213 1.160 . S
O211 C210 1.306 . S
O211 Cd212 2.228 . S
Cd212 O211 2.228 . S
Cd212 O216 2.273 . S
Cd212 O220 2.277 . S
O213 C210 1.160 . S
O213 Cd214 2.203 . S
Cd214 O213 2.203 . S
Cd214 O216 2.411 . S
Cd214 O217 2.333 . S
Cd214 O218 2.352 . S
Cd214 O222 2.277 . S
Cd214 O223 2.356 . S
C215 O220 1.209 . S
C215 O222 1.226 . S
O216 Cd212 2.273 . S
O216 Cd214 2.411 . S
O216 C219 1.320 . S
O217 Cd214 2.333 . S
O217 C219 1.214 . S
O218 Cd214 2.352 . S
O218 C221 1.258 . S
C219 O216 1.320 . S
C219 O217 1.214 . S
O220 Cd212 2.277 . S
O220 C215 1.209 . S
C221 O218 1.258 . S
C221 O223 1.282 . S
O222 Cd214 2.277 . S
O222 C215 1.226 . S
O223 Cd214 2.356 . S
O223 C221 1.282 . S
C224 O225 1.306 . S
C224 O227 1.160 . S
O225 C224 1.306 . S
O225 Cd226 2.228 . S
Cd226 O225 2.228 . S
Cd226 O230 2.273 . S
Cd226 O234 2.277 . S
O227 C224 1.160 . S
O227 Cd228 2.203 . S
Cd228 O227 2.203 . S
Cd228 O230 2.411 . S
Cd228 O231 2.333 . S
Cd228 O232 2.352 . S
Cd228 O236 2.277 . S
Cd228 O237 2.356 . S
C229 O234 1.209 . S
C229 O236 1.226 . S
O230 Cd226 2.273 . S
O230 Cd228 2.411 . S
O230 C233 1.320 . S
O231 Cd228 2.333 . S
O231 C233 1.214 . S
O232 Cd228 2.352 . S
O232 C235 1.258 . S
C233 O230 1.320 . S
C233 O231 1.214 . S
O234 Cd226 2.277 . S
O234 C229 1.209 . S
C235 O232 1.258 . S
C235 O237 1.282 . S
O236 Cd228 2.277 . S
O236 C229 1.226 . S
O237 Cd228 2.356 . S
O237 C235 1.282 . S
C238 O239 1.306 . S
C238 O241 1.160 . S
O239 C238 1.306 . S
O239 Cd240 2.228 . S
Cd240 O239 2.228 . S
Cd240 O244 2.273 . S
Cd240 O248 2.277 . S
O241 C238 1.160 . S
O241 Cd242 2.203 . S
Cd242 O241 2.203 . S
Cd242 O244 2.411 . S
Cd242 O245 2.333 1_545 S
Cd242 O246 2.352 . S
Cd242 O250 2.277 . S
Cd242 O251 2.356 . S
C243 O248 1.209 . S
C243 O250 1.226 . S
O244 Cd240 2.273 . S
O244 Cd242 2.411 . S
O244 C247 1.320 1_545 S
O245 Cd242 2.333 1_565 S
O245 C247 1.214 . S
O246 Cd242 2.352 . S
O246 C249 1.258 . S
C247 O244 1.320 1_565 S
C247 O245 1.214 . S
O248 Cd240 2.277 . S
O248 C243 1.209 . S
C249 O246 1.258 . S
C249 O251 1.282 . S
O250 Cd242 2.277 . S
O250 C243 1.226 . S
O251 Cd242 2.356 . S
O251 C249 1.282 . S
C252 O253 1.306 . S
C252 O255 1.160 . S
O253 C252 1.306 . S
O253 Cd254 2.228 . S
Cd254 O253 2.228 . S
Cd254 O258 2.273 . S
Cd254 O262 2.277 . S
O255 C252 1.160 . S
O255 Cd256 2.203 . S
Cd256 O255 2.203 . S
Cd256 O258 2.411 . S
Cd256 O259 2.333 1_545 S
Cd256 O260 2.352 . S
Cd256 O264 2.277 . S
Cd256 O265 2.356 . S
C257 O262 1.209 . S
C257 O264 1.226 . S
O258 Cd254 2.273 . S
O258 Cd256 2.411 . S
O258 C261 1.320 1_545 S
O259 Cd256 2.333 1_565 S
O259 C261 1.214 . S
O260 Cd256 2.352 . S
O260 C263 1.258 . S
C261 O258 1.320 1_565 S
C261 O259 1.214 . S
O262 Cd254 2.277 . S
O262 C257 1.209 . S
C263 O260 1.258 . S
C263 O265 1.282 . S
O264 Cd256 2.277 . S
O264 C257 1.226 . S
O265 Cd256 2.356 . S
O265 C263 1.282 . S
C266 O267 1.306 . S
C266 O269 1.160 . S
O267 C266 1.306 . S
O267 Cd268 2.228 . S
Cd268 O267 2.228 . S
Cd268 O272 2.273 . S
Cd268 O276 2.277 . S
O269 C266 1.160 . S
O269 Cd270 2.203 . S
Cd270 O269 2.203 . S
Cd270 O272 2.411 . S
Cd270 O273 2.333 . S
Cd270 O274 2.352 . S
Cd270 O278 2.277 . S
Cd270 O279 2.356 . S
C271 O276 1.209 . S
C271 O278 1.226 . S
O272 Cd268 2.273 . S
O272 Cd270 2.411 . S
O272 C275 1.320 . S
O273 Cd270 2.333 . S
O273 C275 1.214 . S
O274 Cd270 2.352 . S
O274 C277 1.258 . S
C275 O272 1.320 . S
C275 O273 1.214 . S
O276 Cd268 2.277 . S
O276 C271 1.209 . S
C277 O274 1.258 . S
C277 O279 1.282 . S
O278 Cd270 2.277 . S
O278 C271 1.226 . S
O279 Cd270 2.356 . S
O279 C277 1.282 . S
C280 O281 1.306 . S
C280 O283 1.160 . S
O281 C280 1.306 . S
O281 Cd282 2.228 . S
Cd282 O281 2.228 . S
Cd282 O286 2.273 . S
Cd282 O290 2.277 . S
O283 C280 1.160 . S
O283 Cd284 2.203 . S
Cd284 O283 2.203 . S
Cd284 O286 2.411 . S
Cd284 O287 2.333 . S
Cd284 O288 2.352 . S
Cd284 O292 2.277 . S
Cd284 O293 2.356 . S
C285 O290 1.209 . S
C285 O292 1.226 . S
O286 Cd282 2.273 . S
O286 Cd284 2.411 . S
O286 C289 1.320 . S
O287 Cd284 2.333 . S
O287 C289 1.214 . S
O288 Cd284 2.352 . S
O288 C291 1.258 . S
C289 O286 1.320 . S
C289 O287 1.214 . S
O290 Cd282 2.277 . S
O290 C285 1.209 . S
C291 O288 1.258 . S
C291 O293 1.282 . S
O292 Cd284 2.277 . S
O292 C285 1.226 . S
O293 Cd284 2.356 . S
O293 C291 1.282 . S
C294 O295 1.306 . S
C294 O297 1.160 . S
O295 C294 1.306 . S
O295 Cd296 2.228 . S
Cd296 O295 2.228 . S
Cd296 O300 2.273 . S
Cd296 O304 2.277 . S
O297 C294 1.160 . S
O297 Cd298 2.203 . S
Cd298 O297 2.203 . S
Cd298 O300 2.411 . S
Cd298 O301 2.333 1_565 S
Cd298 O302 2.352 . S
Cd298 O306 2.277 . S
Cd298 O307 2.356 . S
C299 O304 1.209 . S
C299 O306 1.226 . S
O300 Cd296 2.273 . S
O300 Cd298 2.411 . S
O300 C303 1.320 1_565 S
O301 Cd298 2.333 1_545 S
O301 C303 1.214 . S
O302 Cd298 2.352 . S
O302 C305 1.258 . S
C303 O300 1.320 1_545 S
C303 O301 1.214 . S
O304 Cd296 2.277 . S
O304 C299 1.209 . S
C305 O302 1.258 . S
C305 O307 1.282 . S
O306 Cd298 2.277 . S
O306 C299 1.226 . S
O307 Cd298 2.356 . S
O307 C305 1.282 . S
C308 O309 1.306 . S
C308 O311 1.160 . S
O309 C308 1.306 . S
O309 Cd310 2.228 . S
Cd310 O309 2.228 . S
Cd310 O314 2.273 . S
Cd310 O318 2.277 . S
O311 C308 1.160 . S
O311 Cd312 2.203 . S
Cd312 O311 2.203 . S
Cd312 O314 2.411 . S
Cd312 O315 2.333 1_565 S
Cd312 O316 2.352 . S
Cd312 O320 2.277 . S
Cd312 O321 2.356 . S
C313 O318 1.209 . S
C313 O320 1.226 . S
O314 Cd310 2.273 . S
O314 Cd312 2.411 . S
O314 C317 1.320 1_565 S
O315 Cd312 2.333 1_545 S
O315 C317 1.214 . S
O316 Cd312 2.352 . S
O316 C319 1.258 . S
C317 O314 1.320 1_545 S
C317 O315 1.214 . S
O318 Cd310 2.277 . S
O318 C313 1.209 . S
C319 O316 1.258 . S
C319 O321 1.282 . S
O320 Cd312 2.277 . S
O320 C313 1.226 . S
O321 Cd312 2.356 . S
O321 C319 1.282 . S
C322 O323 1.306 . S
C322 O325 1.160 . S
O323 C322 1.306 . S
O323 Cd324 2.228 . S
Cd324 O323 2.228 . S
Cd324 O328 2.273 . S
Cd324 O332 2.277 . S
O325 C322 1.160 . S
O325 Cd326 2.203 . S
Cd326 O325 2.203 . S
Cd326 O328 2.411 . S
Cd326 O329 2.333 . S
Cd326 O330 2.352 . S
Cd326 O334 2.277 . S
Cd326 O335 2.356 . S
C327 O332 1.209 . S
C327 O334 1.226 . S
O328 Cd324 2.273 . S
O328 Cd326 2.411 . S
O328 C331 1.320 . S
O329 Cd326 2.333 . S
O329 C331 1.214 . S
O330 Cd326 2.352 . S
O330 C333 1.258 . S
C331 O328 1.320 . S
C331 O329 1.214 . S
O332 Cd324 2.277 . S
O332 C327 1.209 . S
C333 O330 1.258 . S
C333 O335 1.282 . S
O334 Cd326 2.277 . S
O334 C327 1.226 . S
O335 Cd326 2.356 . S
O335 C333 1.282 . S
C336 O337 1.306 . S
C336 O339 1.160 . S
O337 C336 1.306 . S
O337 Cd338 2.228 . S
Cd338 O337 2.228 . S
Cd338 O342 2.273 . S
Cd338 O346 2.277 . S
O339 C336 1.160 . S
O339 Cd340 2.203 . S
Cd340 O339 2.203 . S
Cd340 O342 2.411 . S
Cd340 O343 2.333 . S
Cd340 O344 2.352 . S
Cd340 O348 2.277 . S
Cd340 O349 2.356 . S
C341 O346 1.209 . S
C341 O348 1.226 . S
O342 Cd338 2.273 . S
O342 Cd340 2.411 . S
O342 C345 1.320 . S
O343 Cd340 2.333 . S
O343 C345 1.214 . S
O344 Cd340 2.352 . S
O344 C347 1.258 . S
C345 O342 1.320 . S
C345 O343 1.214 . S
O346 Cd338 2.277 . S
O346 C341 1.209 . S
C347 O344 1.258 . S
C347 O349 1.282 . S
O348 Cd340 2.277 . S
O348 C341 1.226 . S
O349 Cd340 2.356 . S
O349 C347 1.282 . S
C350 O351 1.306 . S
C350 O353 1.160 . S
O351 C350 1.306 . S
O351 Cd352 2.228 . S
Cd352 O351 2.228 . S
Cd352 O356 2.273 . S
Cd352 O360 2.277 . S
O353 C350 1.160 . S
O353 Cd354 2.203 . S
Cd354 O353 2.203 . S
Cd354 O356 2.411 . S
Cd354 O357 2.333 . S
Cd354 O358 2.352 . S
Cd354 O362 2.277 . S
Cd354 O363 2.356 . S
C355 O360 1.209 . S
C355 O362 1.226 . S
O356 Cd352 2.273 . S
O356 Cd354 2.411 . S
O356 C359 1.320 . S
O357 Cd354 2.333 . S
O357 C359 1.214 . S
O358 Cd354 2.352 . S
O358 C361 1.258 . S
C359 O356 1.320 . S
C359 O357 1.214 . S
O360 Cd352 2.277 . S
O360 C355 1.209 . S
C361 O358 1.258 . S
C361 O363 1.282 . S
O362 Cd354 2.277 . S
O362 C355 1.226 . S
O363 Cd354 2.356 . S
O363 C361 1.282 . S
C364 O365 1.306 . S
C364 O367 1.160 . S
O365 C364 1.306 . S
O365 Cd366 2.228 . S
Cd366 O365 2.228 . S
Cd366 O370 2.273 . S
Cd366 O374 2.277 . S
O367 C364 1.160 . S
O367 Cd368 2.203 . S
Cd368 O367 2.203 . S
Cd368 O370 2.411 . S
Cd368 O371 2.333 . S
Cd368 O372 2.352 . S
Cd368 O376 2.277 . S
Cd368 O377 2.356 . S
C369 O374 1.209 . S
C369 O376 1.226 . S
O370 Cd366 2.273 . S
O370 Cd368 2.411 . S
O370 C373 1.320 . S
O371 Cd368 2.333 . S
O371 C373 1.214 . S
O372 Cd368 2.352 . S
O372 C375 1.258 . S
C373 O370 1.320 . S
C373 O371 1.214 . S
O374 Cd366 2.277 . S
O374 C369 1.209 . S
C375 O372 1.258 . S
C375 O377 1.282 . S
O376 Cd368 2.277 . S
O376 C369 1.226 . S
O377 Cd368 2.356 . S
O377 C375 1.282 . S
C378 O379 1.306 . S
C378 O381 1.160 . S
O379 C378 1.306 . S
O379 Cd380 2.228 . S
Cd380 O379 2.228 . S
Cd380 O384 2.273 . S
Cd380 O388 2.277 . S
O381 C378 1.160 . S
O381 Cd382 2.203 . S
Cd382 O381 2.203 . S
Cd382 O384 2.411 . S
Cd382 O385 2.333 . S
Cd382 O386 2.352 . S
Cd382 O390 2.277 . S
Cd382 O391 2.356 . S
C383 O388 1.209 . S
C383 O390 1.226 . S
O384 Cd380 2.273 . S
O384 Cd382 2.411 . S
O384 C387 1.320 . S
O385 Cd382 2.333 . S
O385 C387 1.214 . S
O386 Cd382 2.352 . S
O386 C389 1.258 . S
C387 O384 1.320 . S
C387 O385 1.214 . S
O388 Cd380 2.277 . S
O388 C383 1.209 . S
C389 O386 1.258 . S
C389 O391 1.282 . S
O390 Cd382 2.277 . S
O390 C383 1.226 . S
O391 Cd382 2.356 . S
O391 C389 1.282 . S
C392 O393 1.306 . S
C392 O395 1.160 . S
O393 C392 1.306 . S
O393 Cd394 2.228 . S
Cd394 O393 2.228 . S
Cd394 O398 2.273 . S
Cd394 O402 2.277 . S
O395 C392 1.160 . S
O395 Cd396 2.203 . S
Cd396 O395 2.203 . S
Cd396 O398 2.411 . S
Cd396 O399 2.333 . S
Cd396 O400 2.352 . S
Cd396 O404 2.277 . S
Cd396 O405 2.356 . S
C397 O402 1.209 . S
C397 O404 1.226 . S
O398 Cd394 2.273 . S
O398 Cd396 2.411 . S
O398 C401 1.320 . S
O399 Cd396 2.333 . S
O399 C401 1.214 . S
O400 Cd396 2.352 . S
O400 C403 1.258 . S
C401 O398 1.320 . S
C401 O399 1.214 . S
O402 Cd394 2.277 . S
O402 C397 1.209 . S
C403 O400 1.258 . S
C403 O405 1.282 . S
O404 Cd396 2.277 . S
O404 C397 1.226 . S
O405 Cd396 2.356 . S
O405 C403 1.282 . S
C406 O407 1.306 . S
C406 O409 1.160 . S
O407 C406 1.306 . S
O407 Cd408 2.228 . S
Cd408 O407 2.228 . S
Cd408 O412 2.273 . S
Cd408 O416 2.277 . S
O409 C406 1.160 . S
O409 Cd410 2.203 . S
Cd410 O409 2.203 . S
Cd410 O412 2.411 . S
Cd410 O413 2.333 . S
Cd410 O414 2.352 . S
Cd410 O418 2.277 . S
Cd410 O419 2.356 . S
C411 O416 1.209 . S
C411 O418 1.226 . S
O412 Cd408 2.273 . S
O412 Cd410 2.411 . S
O412 C415 1.320 . S
O413 Cd410 2.333 . S
O413 C415 1.214 . S
O414 Cd410 2.352 . S
O414 C417 1.258 . S
C415 O412 1.320 . S
C415 O413 1.214 . S
O416 Cd408 2.277 . S
O416 C411 1.209 . S
C417 O414 1.258 . S
C417 O419 1.282 . S
O418 Cd410 2.277 . S
O418 C411 1.226 . S
O419 Cd410 2.356 . S
O419 C417 1.282 . S
C420 O421 1.306 . S
C420 O423 1.160 . S
O421 C420 1.306 . S
O421 Cd422 2.228 . S
Cd422 O421 2.228 . S
Cd422 O426 2.273 . S
Cd422 O430 2.277 . S
O423 C420 1.160 . S
O423 Cd424 2.203 . S
Cd424 O423 2.203 . S
Cd424 O426 2.411 . S
Cd424 O427 2.333 . S
Cd424 O428 2.352 . S
Cd424 O432 2.277 . S
Cd424 O433 2.356 . S
C425 O430 1.209 . S
C425 O432 1.226 . S
O426 Cd422 2.273 . S
O426 Cd424 2.411 . S
O426 C429 1.320 . S
O427 Cd424 2.333 . S
O427 C429 1.214 . S
O428 Cd424 2.352 . S
O428 C431 1.258 . S
C429 O426 1.320 . S
C429 O427 1.214 . S
O430 Cd422 2.277 . S
O430 C425 1.209 . S
C431 O428 1.258 . S
C431 O433 1.282 . S
O432 Cd424 2.277 . S
O432 C425 1.226 . S
O433 Cd424 2.356 . S
O433 C431 1.282 . S
C434 O435 1.306 . S
C434 O437 1.160 . S
O435 C434 1.306 . S
O435 Cd436 2.228 . S
Cd436 O435 2.228 . S
Cd436 O440 2.273 . S
Cd436 O444 2.277 . S
O437 C434 1.160 . S
O437 Cd438 2.203 . S
Cd438 O437 2.203 . S
Cd438 O440 2.411 . S
Cd438 O441 2.333 . S
Cd438 O442 2.352 . S
Cd438 O446 2.277 . S
Cd438 O447 2.356 . S
C439 O444 1.209 . S
C439 O446 1.226 . S
O440 Cd436 2.273 . S
O440 Cd438 2.411 . S
O440 C443 1.320 . S
O441 Cd438 2.333 . S
O441 C443 1.214 . S
O442 Cd438 2.352 . S
O442 C445 1.258 . S
C443 O440 1.320 . S
C443 O441 1.214 . S
O444 Cd436 2.277 . S
O444 C439 1.209 . S
C445 O442 1.258 . S
C445 O447 1.282 . S
O446 Cd438 2.277 . S
O446 C439 1.226 . S
O447 Cd438 2.356 . S
O447 C445 1.282 . S
C448 C449 1.369 . S
C448 C450 1.419 . S
C448 H452 0.930 . S
C449 C448 1.369 . S
C449 C458 1.429 . S
C450 C448 1.419 . S
C450 C451 1.363 . S
C450 H453 0.929 . S
C451 C450 1.363 . S
C451 C457 1.428 . S
H452 C448 0.930 . S
H453 C450 0.929 . S
S454 N455 1.613 1_565 S
S454 N456 1.615 . S
N455 S454 1.613 1_545 S
N455 C458 1.350 . S
N456 S454 1.615 . S
N456 C457 1.343 1_565 S
C457 C451 1.428 . S
C457 N456 1.343 1_545 S
C457 C458 1.434 . S
C458 C449 1.429 . S
C458 N455 1.350 . S
C458 C457 1.434 . S
C459 C460 1.369 . S
C459 C461 1.419 . S
C459 H463 0.930 . S
C460 C459 1.369 . S
C460 C469 1.429 . S
C461 C459 1.419 . S
C461 C462 1.363 . S
C461 H464 0.929 . S
C462 C461 1.363 . S
C462 C468 1.428 . S
H463 C459 0.930 . S
H464 C461 0.929 . S
S465 N466 1.613 . S
S465 N467 1.610 . S
N466 S465 1.613 . S
N466 C469 1.350 . S
N467 S465 1.610 . S
N467 C468 1.351 . S
C468 C462 1.428 . S
C468 N467 1.351 . S
C468 C469 1.434 . S
C469 C460 1.429 . S
C469 N466 1.350 . S
C469 C468 1.434 . S
C470 C471 1.369 . S
C470 C472 1.419 . S
C470 H474 0.930 . S
C471 C470 1.369 . S
C471 C480 1.429 . S
C472 C470 1.419 . S
C472 C473 1.363 . S
C472 H475 0.929 . S
C473 C472 1.363 . S
C473 C479 1.428 . S
H474 C470 0.930 . S
H475 C472 0.929 . S
S476 N477 1.613 . S
S476 N478 1.610 . S
N477 S476 1.613 . S
N477 C480 1.350 . S
N478 S476 1.610 . S
N478 C479 1.351 . S
C479 C473 1.428 . S
C479 N478 1.351 . S
C479 C480 1.434 . S
C480 C471 1.429 . S
C480 N477 1.350 . S
C480 C479 1.434 . S
C481 C482 1.369 . S
C481 C483 1.419 . S
C481 H485 0.930 . S
C482 C481 1.369 . S
C482 C491 1.429 . S
C483 C481 1.419 . S
C483 C484 1.363 . S
C483 H486 0.929 . S
C484 C483 1.363 . S
C484 C490 1.428 . S
H485 C481 0.930 . S
H486 C483 0.929 . S
S487 N488 1.613 . S
S487 N489 1.610 . S
N488 S487 1.613 . S
N488 C491 1.350 . S
N489 S487 1.610 . S
N489 C490 1.351 . S
C490 C484 1.428 . S
C490 N489 1.351 . S
C490 C491 1.434 . S
C491 C482 1.429 . S
C491 N488 1.350 . S
C491 C490 1.434 . S
C492 C493 1.369 . S
C492 C494 1.419 . S
C492 H496 0.930 . S
C493 C492 1.369 . S
C493 C502 1.429 . S
C494 C492 1.419 . S
C494 C495 1.363 . S
C494 H497 0.929 . S
C495 C494 1.363 . S
C495 C501 1.428 . S
H496 C492 0.930 . S
H497 C494 0.929 . S
S498 N499 1.613 . S
S498 N500 1.610 . S
N499 S498 1.613 . S
N499 C502 1.350 . S
N500 S498 1.610 . S
N500 C501 1.351 . S
C501 C495 1.428 . S
C501 N500 1.351 . S
C501 C502 1.434 . S
C502 C493 1.429 . S
C502 N499 1.350 . S
C502 C501 1.434 . S
C503 C504 1.369 . S
C503 C505 1.419 . S
C503 H507 0.930 . S
C504 C503 1.369 . S
C504 C513 1.429 . S
C505 C503 1.419 . S
C505 C506 1.363 . S
C505 H508 0.929 . S
C506 C505 1.363 . S
C506 C512 1.428 . S
H507 C503 0.930 . S
H508 C505 0.929 . S
S509 N510 1.613 . S
S509 N511 1.610 . S
N510 S509 1.613 . S
N510 C513 1.350 . S
N511 S509 1.610 . S
N511 C512 1.351 . S
C512 C506 1.428 . S
C512 N511 1.351 . S
C512 C513 1.434 . S
C513 C504 1.429 . S
C513 N510 1.350 . S
C513 C512 1.434 . S
C514 C515 1.369 . S
C514 C516 1.419 . S
C514 H518 0.930 . S
C515 C514 1.369 . S
C515 C524 1.429 . S
C516 C514 1.419 . S
C516 C517 1.363 . S
C516 H519 0.929 . S
C517 C516 1.363 . S
C517 C523 1.428 . S
H518 C514 0.930 . S
H519 C516 0.929 . S
S520 N521 1.613 . S
S520 N522 1.610 . S
N521 S520 1.613 . S
N521 C524 1.350 . S
N522 S520 1.610 . S
N522 C523 1.351 . S
C523 C517 1.428 . S
C523 N522 1.351 . S
C523 C524 1.434 . S
C524 C515 1.429 . S
C524 N521 1.350 . S
C524 C523 1.434 . S
C525 C526 1.369 . S
C525 C527 1.419 . S
C525 H529 0.930 . S
C526 C525 1.369 . S
C526 C535 1.429 . S
C527 C525 1.419 . S
C527 C528 1.363 . S
C527 H530 0.929 . S
C528 C527 1.363 . S
C528 C534 1.428 . S
H529 C525 0.930 . S
H530 C527 0.929 . S
S531 N532 1.613 . S
S531 N533 1.610 . S
N532 S531 1.613 . S
N532 C535 1.350 . S
N533 S531 1.610 . S
N533 C534 1.351 . S
C534 C528 1.428 . S
C534 N533 1.351 . S
C534 C535 1.434 . S
C535 C526 1.429 . S
C535 N532 1.350 . S
C535 C534 1.434 . S
C536 C537 1.369 . S
C536 C538 1.419 . S
C536 H540 0.930 . S
C537 C536 1.369 . S
C537 C546 1.429 . S
C538 C536 1.419 . S
C538 C539 1.363 . S
C538 H541 0.929 . S
C539 C538 1.363 . S
C539 C545 1.428 . S
H540 C536 0.930 . S
H541 C538 0.929 . S
S542 N543 1.613 . S
S542 N544 1.610 . S
N543 S542 1.613 . S
N543 C546 1.350 . S
N544 S542 1.610 . S
N544 C545 1.351 . S
C545 C539 1.428 . S
C545 N544 1.351 . S
C545 C546 1.434 . S
C546 C537 1.429 . S
C546 N543 1.350 . S
C546 C545 1.434 . S
C547 C548 1.369 . S
C547 C549 1.419 . S
C547 H551 0.930 . S
C548 C547 1.369 . S
C548 C557 1.429 . S
C549 C547 1.419 . S
C549 C550 1.363 . S
C549 H552 0.929 . S
C550 C549 1.363 . S
C550 C556 1.428 . S
H551 C547 0.930 . S
H552 C549 0.929 . S
S553 N554 1.613 . S
S553 N555 1.610 . S
N554 S553 1.613 . S
N554 C557 1.350 . S
N555 S553 1.610 . S
N555 C556 1.351 . S
C556 C550 1.428 . S
C556 N555 1.351 . S
C556 C557 1.434 . S
C557 C548 1.429 . S
C557 N554 1.350 . S
C557 C556 1.434 . S
C558 C559 1.369 . S
C558 C560 1.419 . S
C558 H562 0.930 . S
C559 C558 1.369 . S
C559 C568 1.429 . S
C560 C558 1.419 . S
C560 C561 1.363 . S
C560 H563 0.929 . S
C561 C560 1.363 . S
C561 C567 1.428 . S
H562 C558 0.930 . S
H563 C560 0.929 . S
S564 N565 1.613 . S
S564 N566 1.610 . S
N565 S564 1.613 . S
N565 C568 1.350 . S
N566 S564 1.610 . S
N566 C567 1.351 . S
C567 C561 1.428 . S
C567 N566 1.351 . S
C567 C568 1.434 . S
C568 C559 1.429 . S
C568 N565 1.350 . S
C568 C567 1.434 . S
C569 C570 1.369 . S
C569 C571 1.419 . S
C569 H573 0.930 . S
C570 C569 1.369 . S
C570 C579 1.429 . S
C571 C569 1.419 . S
C571 C572 1.363 . S
C571 H574 0.929 . S
C572 C571 1.363 . S
C572 C578 1.428 . S
H573 C569 0.930 . S
H574 C571 0.929 . S
S575 N576 1.613 . S
S575 N577 1.610 . S
N576 S575 1.613 . S
N576 C579 1.350 1_545 S
N577 S575 1.610 . S
N577 C578 1.351 1_545 S
C578 C572 1.428 . S
C578 N577 1.351 1_565 S
C578 C579 1.434 . S
C579 C570 1.429 . S
C579 N576 1.350 1_565 S
C579 C578 1.434 . S
C580 C581 1.369 . S
C580 C582 1.419 . S
C580 H584 0.930 . S
C581 C580 1.369 . S
C581 C590 1.429 . S
C582 C580 1.419 . S
C582 C583 1.363 . S
C582 H585 0.929 . S
C583 C582 1.363 . S
C583 C589 1.428 . S
H584 C580 0.930 . S
H585 C582 0.929 . S
S586 N587 1.613 . S
S586 N588 1.610 . S
N587 S586 1.613 . S
N587 C590 1.350 . S
N588 S586 1.610 . S
N588 C589 1.351 . S
C589 C583 1.428 . S
C589 N588 1.351 . S
C589 C590 1.434 . S
C590 C581 1.429 . S
C590 N587 1.350 . S
C590 C589 1.434 . S
C591 C592 1.369 . S
C591 C593 1.419 . S
C591 H595 0.930 . S
C592 C591 1.369 . S
C592 C601 1.429 . S
C593 C591 1.419 . S
C593 C594 1.363 . S
C593 H596 0.929 . S
C594 C593 1.363 . S
C594 C600 1.428 . S
H595 C591 0.930 . S
H596 C593 0.929 . S
S597 N598 1.613 . S
S597 N599 1.610 . S
N598 S597 1.613 . S
N598 C601 1.350 . S
N599 S597 1.610 . S
N599 C600 1.351 . S
C600 C594 1.428 . S
C600 N599 1.351 . S
C600 C601 1.434 . S
C601 C592 1.429 . S
C601 N598 1.350 . S
C601 C600 1.434 . S
C602 C603 1.369 . S
C602 C604 1.419 . S
C602 H606 0.930 . S
C603 C602 1.369 . S
C603 C612 1.429 . S
C604 C602 1.419 . S
C604 C605 1.363 . S
C604 H607 0.929 . S
C605 C604 1.363 . S
C605 C611 1.428 . S
H606 C602 0.930 . S
H607 C604 0.929 . S
S608 N609 1.613 . S
S608 N610 1.610 . S
N609 S608 1.613 . S
N609 C612 1.350 . S
N610 S608 1.610 . S
N610 C611 1.351 . S
C611 C605 1.428 . S
C611 N610 1.351 . S
C611 C612 1.434 . S
C612 C603 1.429 . S
C612 N609 1.350 . S
C612 C611 1.434 . S
C613 C614 1.369 . S
C613 C615 1.419 . S
C613 H617 0.930 . S
C614 C613 1.369 . S
C614 C623 1.429 . S
C615 C613 1.419 . S
C615 C616 1.363 . S
C615 H618 0.929 . S
C616 C615 1.363 . S
C616 C622 1.428 . S
H617 C613 0.930 . S
H618 C615 0.929 . S
S619 N620 1.613 1_556 S
S619 N621 1.610 1_556 S
N620 S619 1.613 1_554 S
N620 C623 1.350 . S
N621 S619 1.610 1_554 S
N621 C622 1.351 . S
C622 C616 1.428 . S
C622 N621 1.351 . S
C622 C623 1.434 . S
C623 C614 1.429 . S
C623 N620 1.350 . S
C623 C622 1.434 . S
C624 C625 1.369 . S
C624 C626 1.419 . S
C624 H628 0.930 . S
C625 C624 1.369 . S
C625 C634 1.429 1_455 S
C626 C624 1.419 . S
C626 C627 1.363 1_455 S
C626 H629 0.929 . S
C627 C626 1.363 1_655 S
C627 C633 1.428 . S
H628 C624 0.930 . S
H629 C626 0.929 . S
S630 N631 1.613 . S
S630 N632 1.610 . S
N631 S630 1.613 . S
N631 C634 1.350 . S
N632 S630 1.610 . S
N632 C633 1.351 . S
C633 C627 1.428 . S
C633 N632 1.351 . S
C633 C634 1.434 . S
C634 C625 1.429 1_655 S
C634 N631 1.350 . S
C634 C633 1.434 . S
C635 C636 1.369 . S
C635 C637 1.419 1_545 S
C635 H639 0.930 . S
C636 C635 1.369 . S
C636 C645 1.429 . S
C637 C635 1.419 1_565 S
C637 C638 1.363 . S
C637 H640 0.929 . S
C638 C637 1.363 . S
C638 C644 1.428 . S
H639 C635 0.930 . S
H640 C637 0.929 . S
S641 N642 1.613 1_565 S
S641 N643 1.610 . S
N642 S641 1.613 1_545 S
N642 C645 1.350 . S
N643 S641 1.610 . S
N643 C644 1.351 . S
C644 C638 1.428 . S
C644 N643 1.351 . S
C644 C645 1.434 1_565 S
C645 C636 1.429 . S
C645 N642 1.350 . S
C645 C644 1.434 1_545 S
C646 C647 1.369 1_554 S
C646 C648 1.419 1_445 S
C646 H650 0.930 . S
C647 C646 1.369 1_556 S
C647 C656 1.429 . S
C648 C646 1.419 1_665 S
C648 C649 1.363 . S
C648 H651 0.929 . S
C649 C648 1.363 . S
C649 C655 1.428 1_554 S
H650 C646 0.930 . S
H651 C648 0.929 . S
S652 N653 1.613 1_665 S
S652 N654 1.610 . S
N653 S652 1.613 1_445 S
N653 C656 1.350 . S
N654 S652 1.610 . S
N654 C655 1.351 . S
C655 C649 1.428 1_556 S
C655 N654 1.351 . S
C655 C656 1.434 1_665 S
C656 C647 1.429 . S
C656 N653 1.350 . S
C656 C655 1.434 1_445 S
C657 C658 1.369 1_554 S
C657 C659 1.419 . S
C657 H661 0.930 . S
C658 C657 1.369 1_556 S
C658 C667 1.429 . S
C659 C657 1.419 . S
C659 C660 1.363 . S
C659 H662 0.929 . S
C660 C659 1.363 . S
C660 C666 1.428 1_554 S
H661 C657 0.930 . S
H662 C659 0.929 . S
S663 N664 1.613 . S
S663 N665 1.610 . S
N664 S663 1.613 . S
N664 C667 1.350 . S
N665 S663 1.610 . S
N665 C666 1.351 . S
C666 C660 1.428 1_556 S
C666 N665 1.351 . S
C666 C667 1.434 . S
C667 C658 1.429 . S
C667 N664 1.350 . S
C667 C666 1.434 . S
C668 C669 1.369 . S
C668 C670 1.419 . S
C668 H672 0.930 . S
C669 C668 1.369 . S
C669 C678 1.429 1_655 S
C670 C668 1.419 . S
C670 C671 1.363 1_655 S
C670 H673 0.929 . S
C671 C670 1.363 1_455 S
C671 C677 1.428 . S
H672 C668 0.930 . S
H673 C670 0.929 . S
S674 N675 1.613 . S
S674 N676 1.610 . S
N675 S674 1.613 . S
N675 C678 1.350 . S
N676 S674 1.610 . S
N676 C677 1.351 . S
C677 C671 1.428 . S
C677 N676 1.351 . S
C677 C678 1.434 . S
C678 C669 1.429 1_455 S
C678 N675 1.350 . S
C678 C677 1.434 . S
C679 C680 1.369 1_565 S
C679 C681 1.419 . S
C679 H683 0.930 . S
C680 C679 1.369 1_545 S
C680 C689 1.429 . S
C681 C679 1.419 . S
C681 C682 1.363 . S
C681 H684 0.929 . S
C682 C681 1.363 . S
C682 C688 1.428 1_565 S
H683 C679 0.930 . S
H684 C681 0.929 . S
S685 N686 1.613 . S
S685 N687 1.610 . S
N686 S685 1.613 . S
N686 C689 1.350 . S
N687 S685 1.610 . S
N687 C688 1.351 . S
C688 C682 1.428 1_545 S
C688 N687 1.351 . S
C688 C689 1.434 . S
C689 C680 1.429 . S
C689 N686 1.350 . S
C689 C688 1.434 . S
C690 C691 1.369 . S
C690 C692 1.417 . S
C690 H694 0.930 . S
C691 C690 1.369 . S
C691 C700 1.430 . S
C692 C690 1.417 . S
C692 C693 1.365 1_556 S
C692 H695 0.929 . S
C693 C692 1.365 1_554 S
C693 C699 1.428 . S
H694 C690 0.930 . S
H695 C692 0.929 . S
S696 N697 1.617 . S
S696 N698 1.610 . S
N697 S696 1.617 . S
N697 C700 1.350 1_554 S
N698 S696 1.610 . S
N698 C699 1.351 . S
C699 C693 1.428 . S
C699 N698 1.351 . S
C699 C700 1.432 1_554 S
C700 C691 1.430 . S
C700 N697 1.350 1_556 S
C700 C699 1.432 1_556 S
C701 C702 1.369 . S
C701 C703 1.419 . S
C701 H705 0.930 . S
C702 C701 1.369 . S
C702 C711 1.429 . S
C703 C701 1.419 . S
C703 C704 1.363 . S
C703 H706 0.929 . S
C704 C703 1.363 . S
C704 C710 1.428 . S
H705 C701 0.930 . S
H706 C703 0.929 . S
S707 N708 1.613 . S
S707 N709 1.610 . S
N708 S707 1.613 . S
N708 C711 1.350 . S
N709 S707 1.610 . S
N709 C710 1.351 . S
C710 C704 1.428 . S
C710 N709 1.351 . S
C710 C711 1.434 . S
C711 C702 1.429 . S
C711 N708 1.350 . S
C711 C710 1.434 . S
C712 C713 1.402 . S
C712 C714 1.387 1_455 S
C712 H716 0.930 . S
C713 C712 1.402 . S
C713 C722 1.429 . S
C714 C712 1.387 1_655 S
C714 C715 1.363 . S
C714 H717 0.929 . S
C715 C714 1.363 . S
C715 C721 1.431 . S
H716 C712 0.930 . S
H717 C714 0.929 . S
S718 N719 1.613 . S
S718 N720 1.610 . S
N719 S718 1.613 . S
N719 C722 1.350 . S
N720 S718 1.610 . S
N720 C721 1.351 1_455 S
C721 C715 1.431 . S
C721 N720 1.351 1_655 S
C721 C722 1.432 1_655 S
C722 C713 1.429 . S
C722 N719 1.350 . S
C722 C721 1.432 1_455 S
C723 C724 1.369 . S
C723 C725 1.419 . S
C723 H727 0.930 . S
C724 C723 1.369 . S
C724 C733 1.429 . S
C725 C723 1.419 . S
C725 C726 1.363 . S
C725 H728 0.929 . S
C726 C725 1.363 . S
C726 C732 1.428 . S
H727 C723 0.930 . S
H728 C725 0.929 . S
S729 N730 1.613 . S
S729 N731 1.610 . S
N730 S729 1.613 . S
N730 C733 1.350 . S
N731 S729 1.610 . S
N731 C732 1.351 . S
C732 C726 1.428 . S
C732 N731 1.351 . S
C732 C733 1.434 . S
C733 C724 1.429 . S
C733 N730 1.350 . S
C733 C732 1.434 . S
C734 C735 1.369 . S
C734 C736 1.419 . S
C734 H738 0.930 . S
C735 C734 1.369 . S
C735 C744 1.429 . S
C736 C734 1.419 . S
C736 C737 1.363 . S
C736 H739 0.929 . S
C737 C736 1.363 . S
C737 C743 1.428 . S
H738 C734 0.930 . S
H739 C736 0.929 . S
S740 N741 1.613 . S
S740 N742 1.610 . S
N741 S740 1.613 . S
N741 C744 1.350 . S
N742 S740 1.610 . S
N742 C743 1.351 . S
C743 C737 1.428 . S
C743 N742 1.351 . S
C743 C744 1.434 . S
C744 C735 1.429 . S
C744 N741 1.350 . S
C744 C743 1.434 . S
C745 C746 1.369 . S
C745 C747 1.419 . S
C745 H749 0.930 . S
C746 C745 1.369 . S
C746 C755 1.429 . S
C747 C745 1.419 . S
C747 C748 1.363 . S
C747 H750 0.929 . S
C748 C747 1.363 . S
C748 C754 1.428 . S
H749 C745 0.930 . S
H750 C747 0.929 . S
S751 N752 1.613 . S
S751 N753 1.610 . S
N752 S751 1.613 . S
N752 C755 1.350 . S
N753 S751 1.610 . S
N753 C754 1.351 . S
C754 C748 1.428 . S
C754 N753 1.351 . S
C754 C755 1.434 . S
C755 C746 1.429 . S
C755 N752 1.350 . S
C755 C754 1.434 . S
C756 C757 1.369 . S
C756 C758 1.419 . S
C756 H760 0.930 . S
C757 C756 1.369 . S
C757 C766 1.429 . S
C758 C756 1.419 . S
C758 C759 1.363 . S
C758 H761 0.929 . S
C759 C758 1.363 . S
C759 C765 1.428 . S
H760 C756 0.930 . S
H761 C758 0.929 . S
S762 N763 1.613 . S
S762 N764 1.610 . S
N763 S762 1.613 . S
N763 C766 1.350 . S
N764 S762 1.610 . S
N764 C765 1.351 . S
C765 C759 1.428 . S
C765 N764 1.351 . S
C765 C766 1.434 . S
C766 C757 1.429 . S
C766 N763 1.350 . S
C766 C765 1.434 . S
C767 C768 1.369 . S
C767 C769 1.419 1_565 S
C767 H771 0.930 . S
C768 C767 1.369 . S
C768 C777 1.429 . S
C769 C767 1.419 1_545 S
C769 C770 1.363 . S
C769 H772 0.929 . S
C770 C769 1.363 . S
C770 C776 1.428 . S
H771 C767 0.930 . S
H772 C769 0.929 . S
S773 N774 1.613 . S
S773 N775 1.615 . S
N774 S773 1.613 . S
N774 C777 1.350 . S
N775 S773 1.615 . S
N775 C776 1.351 1_565 S
C776 C770 1.428 . S
C776 N775 1.351 1_545 S
C776 C777 1.434 1_545 S
C777 C768 1.429 . S
C777 N774 1.350 . S
C777 C776 1.434 1_565 S
C778 C779 1.369 . S
C778 C780 1.419 . S
C778 H782 0.930 . S
C779 C778 1.369 . S
C779 C788 1.429 . S
C780 C778 1.419 . S
C780 C781 1.363 . S
C780 H783 0.929 . S
C781 C780 1.363 . S
C781 C787 1.428 . S
H782 C778 0.930 . S
H783 C780 0.929 . S
S784 N785 1.613 . S
S784 N786 1.610 . S
N785 S784 1.613 . S
N785 C788 1.350 . S
N786 S784 1.610 . S
N786 C787 1.351 . S
C787 C781 1.428 . S
C787 N786 1.351 . S
C787 C788 1.434 . S
C788 C779 1.429 . S
C788 N785 1.350 . S
C788 C787 1.434 . S
C789 C790 1.369 . S
C789 C791 1.435 . S
C789 H793 0.930 . S
C790 C789 1.369 . S
C790 C799 1.414 1_554 S
C791 C789 1.435 . S
C791 C792 1.345 1_554 S
C791 H794 0.933 . S
C792 C791 1.345 1_556 S
C792 C798 1.428 . S
H793 C789 0.930 . S
H794 C791 0.933 . S
S795 N796 1.613 . S
S795 N797 1.610 . S
N796 S795 1.613 . S
N796 C799 1.352 . S
N797 S795 1.610 . S
N797 C798 1.351 . S
C798 C792 1.428 . S
C798 N797 1.351 . S
C798 C799 1.449 . S
C799 C790 1.414 1_556 S
C799 N796 1.352 . S
C799 C798 1.449 . S
C800 C801 1.369 . S
C800 C802 1.419 . S
C800 H804 0.930 . S
C801 C800 1.369 . S
C801 C810 1.429 . S
C802 C800 1.419 . S
C802 C803 1.363 . S
C802 H805 0.929 . S
C803 C802 1.363 . S
C803 C809 1.428 . S
H804 C800 0.930 . S
H805 C802 0.929 . S
S806 N807 1.613 . S
S806 N808 1.610 . S
N807 S806 1.613 . S
N807 C810 1.350 . S
N808 S806 1.610 . S
N808 C809 1.351 . S
C809 C803 1.428 . S
C809 N808 1.351 . S
C809 C810 1.434 . S
C810 C801 1.429 . S
C810 N807 1.350 . S
C810 C809 1.434 . S
C811 C812 1.369 . S
C811 C813 1.419 . S
C811 H815 0.930 . S
C812 C811 1.369 . S
C812 C821 1.429 . S
C813 C811 1.419 . S
C813 C814 1.363 . S
C813 H816 0.929 . S
C814 C813 1.363 . S
C814 C820 1.428 . S
H815 C811 0.930 . S
H816 C813 0.929 . S
S817 N818 1.613 . S
S817 N819 1.610 . S
N818 S817 1.613 . S
N818 C821 1.350 . S
N819 S817 1.610 . S
N819 C820 1.351 . S
C820 C814 1.428 . S
C820 N819 1.351 . S
C820 C821 1.434 . S
C821 C812 1.429 . S
C821 N818 1.350 . S
C821 C820 1.434 . S
C822 C823 1.369 . S
C822 C824 1.419 . S
C822 H826 0.930 . S
C823 C822 1.369 . S
C823 C832 1.429 . S
C824 C822 1.419 . S
C824 C825 1.363 . S
C824 H827 0.929 . S
C825 C824 1.363 . S
C825 C831 1.428 . S
H826 C822 0.930 . S
H827 C824 0.929 . S
S828 N829 1.613 . S
S828 N830 1.610 . S
N829 S828 1.613 . S
N829 C832 1.350 . S
N830 S828 1.610 . S
N830 C831 1.351 . S
C831 C825 1.428 . S
C831 N830 1.351 . S
C831 C832 1.434 . S
C832 C823 1.429 . S
C832 N829 1.350 . S
C832 C831 1.434 . S
C833 C834 1.369 . S
C833 C835 1.419 . S
C833 H837 0.930 . S
C834 C833 1.369 . S
C834 C843 1.429 . S
C835 C833 1.419 . S
C835 C836 1.363 . S
C835 H838 0.929 . S
C836 C835 1.363 . S
C836 C842 1.428 . S
H837 C833 0.930 . S
H838 C835 0.929 . S
S839 N840 1.613 . S
S839 N841 1.610 . S
N840 S839 1.613 . S
N840 C843 1.350 . S
N841 S839 1.610 . S
N841 C842 1.351 . S
C842 C836 1.428 . S
C842 N841 1.351 . S
C842 C843 1.434 . S
C843 C834 1.429 . S
C843 N840 1.350 . S
C843 C842 1.434 . S
C844 C845 1.369 . S
C844 C846 1.419 . S
C844 H848 0.930 . S
C845 C844 1.369 . S
C845 C854 1.429 . S
C846 C844 1.419 . S
C846 C847 1.363 . S
C846 H849 0.929 . S
C847 C846 1.363 . S
C847 C853 1.428 . S
H848 C844 0.930 . S
H849 C846 0.929 . S
S850 N851 1.613 . S
S850 N852 1.610 . S
N851 S850 1.613 . S
N851 C854 1.350 . S
N852 S850 1.610 . S
N852 C853 1.351 . S
C853 C847 1.428 . S
C853 N852 1.351 . S
C853 C854 1.434 . S
C854 C845 1.429 . S
C854 N851 1.350 . S
C854 C853 1.434 . S
C855 C856 1.369 . S
C855 C857 1.419 . S
C855 H859 0.930 . S
C856 C855 1.369 . S
C856 C865 1.429 . S
C857 C855 1.419 . S
C857 C858 1.363 . S
C857 H860 0.929 . S
C858 C857 1.363 . S
C858 C864 1.428 . S
H859 C855 0.930 . S
H860 C857 0.929 . S
S861 N862 1.613 . S
S861 N863 1.610 . S
N862 S861 1.613 . S
N862 C865 1.350 . S
N863 S861 1.610 . S
N863 C864 1.351 . S
C864 C858 1.428 . S
C864 N863 1.351 . S
C864 C865 1.434 . S
C865 C856 1.429 . S
C865 N862 1.350 . S
C865 C864 1.434 . S
C866 C867 1.369 . S
C866 C868 1.419 . S
C866 H870 0.930 . S
C867 C866 1.369 . S
C867 C876 1.429 . S
C868 C866 1.419 . S
C868 C869 1.363 . S
C868 H871 0.929 . S
C869 C868 1.363 . S
C869 C875 1.428 . S
H870 C866 0.930 . S
H871 C868 0.929 . S
S872 N873 1.613 . S
S872 N874 1.610 . S
N873 S872 1.613 . S
N873 C876 1.350 . S
N874 S872 1.610 . S
N874 C875 1.351 . S
C875 C869 1.428 . S
C875 N874 1.351 . S
C875 C876 1.434 . S
C876 C867 1.429 . S
C876 N873 1.350 . S
C876 C875 1.434 . S
C877 C878 1.369 . S
C877 C879 1.419 . S
C877 H881 0.930 . S
C878 C877 1.369 . S
C878 C887 1.429 . S
C879 C877 1.419 . S
C879 C880 1.363 . S
C879 H882 0.929 . S
C880 C879 1.363 . S
C880 C886 1.428 . S
H881 C877 0.930 . S
H882 C879 0.929 . S
S883 N884 1.613 . S
S883 N885 1.610 . S
N884 S883 1.613 . S
N884 C887 1.350 . S
N885 S883 1.610 . S
N885 C886 1.351 . S
C886 C880 1.428 . S
C886 N885 1.351 . S
C886 C887 1.434 . S
C887 C878 1.429 . S
C887 N884 1.350 . S
C887 C886 1.434 . S
C888 C889 1.369 . S
C888 C890 1.419 . S
C888 H892 0.930 . S
C889 C888 1.369 . S
C889 C898 1.429 . S
C890 C888 1.419 . S
C890 C891 1.363 . S
C890 H893 0.929 . S
C891 C890 1.363 . S
C891 C897 1.428 . S
H892 C888 0.930 . S
H893 C890 0.929 . S
S894 N895 1.613 . S
S894 N896 1.610 . S
N895 S894 1.613 . S
N895 C898 1.350 . S
N896 S894 1.610 . S
N896 C897 1.351 . S
C897 C891 1.428 . S
C897 N896 1.351 . S
C897 C898 1.434 . S
C898 C889 1.429 . S
C898 N895 1.350 . S
C898 C897 1.434 . S
C899 C900 1.369 . S
C899 C901 1.419 . S
C899 H903 0.930 . S
C900 C899 1.369 . S
C900 C909 1.429 . S
C901 C899 1.419 . S
C901 C902 1.363 . S
C901 H904 0.929 . S
C902 C901 1.363 . S
C902 C908 1.428 . S
H903 C899 0.930 . S
H904 C901 0.929 . S
S905 N906 1.613 . S
S905 N907 1.610 . S
N906 S905 1.613 . S
N906 C909 1.350 . S
N907 S905 1.610 . S
N907 C908 1.351 . S
C908 C902 1.428 . S
C908 N907 1.351 . S
C908 C909 1.434 . S
C909 C900 1.429 . S
C909 N906 1.350 . S
C909 C908 1.434 . S
C910 C911 1.369 . S
C910 C912 1.419 . S
C910 H914 0.930 . S
C911 C910 1.369 . S
C911 C920 1.429 . S
C912 C910 1.419 . S
C912 C913 1.363 . S
C912 H915 0.929 . S
C913 C912 1.363 . S
C913 C919 1.428 . S
H914 C910 0.930 . S
H915 C912 0.929 . S
S916 N917 1.613 . S
S916 N918 1.610 . S
N917 S916 1.613 . S
N917 C920 1.350 . S
N918 S916 1.610 . S
N918 C919 1.351 . S
C919 C913 1.428 . S
C919 N918 1.351 . S
C919 C920 1.434 . S
C920 C911 1.429 . S
C920 N917 1.350 . S
C920 C919 1.434 . S
C921 C922 1.369 . S
C921 C923 1.419 . S
C921 H925 0.930 . S
C922 C921 1.369 . S
C922 C931 1.429 . S
C923 C921 1.419 . S
C923 C924 1.363 . S
C923 H926 0.929 . S
C924 C923 1.363 . S
C924 C930 1.428 . S
H925 C921 0.930 . S
H926 C923 0.929 . S
S927 N928 1.613 . S
S927 N929 1.610 . S
N928 S927 1.613 . S
N928 C931 1.350 . S
N929 S927 1.610 . S
N929 C930 1.351 . S
C930 C924 1.428 . S
C930 N929 1.351 . S
C930 C931 1.434 . S
C931 C922 1.429 . S
C931 N928 1.350 . S
C931 C930 1.434 . S
C932 C933 1.369 . S
C932 C934 1.419 . S
C932 H936 0.930 . S
C933 C932 1.369 . S
C933 C942 1.429 . S
C934 C932 1.419 . S
C934 C935 1.363 . S
C934 H937 0.929 . S
C935 C934 1.363 . S
C935 C941 1.428 . S
H936 C932 0.930 . S
H937 C934 0.929 . S
S938 N939 1.613 . S
S938 N940 1.610 . S
N939 S938 1.613 . S
N939 C942 1.350 . S
N940 S938 1.610 . S
N940 C941 1.351 . S
C941 C935 1.428 . S
C941 N940 1.351 . S
C941 C942 1.434 . S
C942 C933 1.429 . S
C942 N939 1.350 . S
C942 C941 1.434 . S
C943 C944 1.369 . S
C943 C945 1.419 . S
C943 H947 0.930 . S
C944 C943 1.369 . S
C944 C953 1.429 . S
C945 C943 1.419 . S
C945 C946 1.363 . S
C945 H948 0.929 . S
C946 C945 1.363 . S
C946 C952 1.428 . S
H947 C943 0.930 . S
H948 C945 0.929 . S
S949 N950 1.613 . S
S949 N951 1.610 . S
N950 S949 1.613 . S
N950 C953 1.350 . S
N951 S949 1.610 . S
N951 C952 1.351 . S
C952 C946 1.428 . S
C952 N951 1.351 . S
C952 C953 1.434 . S
C953 C944 1.429 . S
C953 N950 1.350 . S
C953 C952 1.434 . S
C954 C955 1.369 . S
C954 C956 1.419 . S
C954 H958 0.930 . S
C955 C954 1.369 . S
C955 C964 1.429 . S
C956 C954 1.419 . S
C956 C957 1.363 . S
C956 H959 0.929 . S
C957 C956 1.363 . S
C957 C963 1.428 . S
H958 C954 0.930 . S
H959 C956 0.929 . S
S960 N961 1.613 . S
S960 N962 1.610 . S
N961 S960 1.613 . S
N961 C964 1.350 . S
N962 S960 1.610 . S
N962 C963 1.351 . S
C963 C957 1.428 . S
C963 N962 1.351 . S
C963 C964 1.434 . S
C964 C955 1.429 . S
C964 N961 1.350 . S
C964 C963 1.434 . S
C965 C966 1.369 . S
C965 C967 1.419 . S
C965 H969 0.930 . S
C966 C965 1.369 . S
C966 C975 1.429 . S
C967 C965 1.419 . S
C967 C968 1.363 . S
C967 H970 0.929 . S
C968 C967 1.363 . S
C968 C974 1.428 . S
H969 C965 0.930 . S
H970 C967 0.929 . S
S971 N972 1.613 . S
S971 N973 1.610 . S
N972 S971 1.613 . S
N972 C975 1.350 . S
N973 S971 1.610 . S
N973 C974 1.351 . S
C974 C968 1.428 . S
C974 N973 1.351 . S
C974 C975 1.434 . S
C975 C966 1.429 . S
C975 N972 1.350 . S
C975 C974 1.434 . S
C976 C977 1.369 . S
C976 C978 1.419 . S
C976 H980 0.930 . S
C977 C976 1.369 . S
C977 C986 1.429 . S
C978 C976 1.419 . S
C978 C979 1.363 . S
C978 H981 0.929 . S
C979 C978 1.363 . S
C979 C985 1.428 . S
H980 C976 0.930 . S
H981 C978 0.929 . S
S982 N983 1.613 . S
S982 N984 1.610 . S
N983 S982 1.613 . S
N983 C986 1.350 . S
N984 S982 1.610 . S
N984 C985 1.351 . S
C985 C979 1.428 . S
C985 N984 1.351 . S
C985 C986 1.434 . S
C986 C977 1.429 . S
C986 N983 1.350 . S
C986 C985 1.434 . S
C987 C988 1.369 . S
C987 C989 1.419 . S
C987 H991 0.930 . S
C988 C987 1.369 . S
C988 C997 1.429 . S
C989 C987 1.419 . S
C989 C990 1.363 . S
C989 H992 0.929 . S
C990 C989 1.363 . S
C990 C996 1.428 . S
H991 C987 0.930 . S
H992 C989 0.929 . S
S993 N994 1.613 . S
S993 N995 1.610 . S
N994 S993 1.613 . S
N994 C997 1.350 . S
N995 S993 1.610 . S
N995 C996 1.351 . S
C996 C990 1.428 . S
C996 N995 1.351 . S
C996 C997 1.434 . S
C997 C988 1.429 . S
C997 N994 1.350 . S
C997 C996 1.434 . S
C998 C999 1.369 . S
C998 C1000 1.419 . S
C998 H1002 0.930 . S
C999 C998 1.369 . S
C999 C1008 1.429 . S
C1000 C998 1.419 . S
C1000 C1001 1.363 . S
C1000 H1003 0.929 . S
C1001 C1000 1.363 . S
C1001 C1007 1.428 . S
H1002 C998 0.930 . S
H1003 C1000 0.929 . S
S1004 N1005 1.613 . S
S1004 N1006 1.610 . S
N1005 S1004 1.613 . S
N1005 C1008 1.350 . S
N1006 S1004 1.610 . S
N1006 C1007 1.351 . S
C1007 C1001 1.428 . S
C1007 N1006 1.351 . S
C1007 C1008 1.434 . S
C1008 C999 1.429 . S
C1008 N1005 1.350 . S
C1008 C1007 1.434 . S
C1009 C1010 1.369 . S
C1009 C1011 1.419 . S
C1009 H1013 0.930 . S
C1010 C1009 1.369 . S
C1010 C1019 1.429 . S
C1011 C1009 1.419 . S
C1011 C1012 1.363 . S
C1011 H1014 0.929 . S
C1012 C1011 1.363 . S
C1012 C1018 1.428 . S
H1013 C1009 0.930 . S
H1014 C1011 0.929 . S
S1015 N1016 1.613 . S
S1015 N1017 1.610 . S
N1016 S1015 1.613 . S
N1016 C1019 1.350 . S
N1017 S1015 1.610 . S
N1017 C1018 1.351 . S
C1018 C1012 1.428 . S
C1018 N1017 1.351 . S
C1018 C1019 1.434 . S
C1019 C1010 1.429 . S
C1019 N1016 1.350 . S
C1019 C1018 1.434 . S
C1020 C1021 1.369 . S
C1020 C1022 1.419 . S
C1020 H1024 0.930 . S
C1021 C1020 1.369 . S
C1021 C1030 1.429 . S
C1022 C1020 1.419 . S
C1022 C1023 1.363 . S
C1022 H1025 0.929 . S
C1023 C1022 1.363 . S
C1023 C1029 1.428 . S
H1024 C1020 0.930 . S
H1025 C1022 0.929 . S
S1026 N1027 1.613 . S
S1026 N1028 1.610 . S
N1027 S1026 1.613 . S
N1027 C1030 1.350 . S
N1028 S1026 1.610 . S
N1028 C1029 1.351 . S
C1029 C1023 1.428 . S
C1029 N1028 1.351 . S
C1029 C1030 1.434 . S
C1030 C1021 1.429 . S
C1030 N1027 1.350 . S
C1030 C1029 1.434 . S
C1031 C1032 1.369 . S
C1031 C1033 1.419 . S
C1031 H1035 0.930 . S
C1032 C1031 1.369 . S
C1032 C1041 1.429 . S
C1033 C1031 1.419 . S
C1033 C1034 1.363 . S
C1033 H1036 0.929 . S
C1034 C1033 1.363 . S
C1034 C1040 1.428 . S
H1035 C1031 0.930 . S
H1036 C1033 0.929 . S
S1037 N1038 1.613 . S
S1037 N1039 1.610 . S
N1038 S1037 1.613 . S
N1038 C1041 1.350 . S
N1039 S1037 1.610 . S
N1039 C1040 1.351 . S
C1040 C1034 1.428 . S
C1040 N1039 1.351 . S
C1040 C1041 1.434 . S
C1041 C1032 1.429 . S
C1041 N1038 1.350 . S
C1041 C1040 1.434 . S
C1042 C1043 1.369 . S
C1042 C1044 1.419 . S
C1042 H1046 0.930 . S
C1043 C1042 1.369 . S
C1043 C1052 1.429 . S
C1044 C1042 1.419 . S
C1044 C1045 1.363 . S
C1044 H1047 0.929 . S
C1045 C1044 1.363 . S
C1045 C1051 1.428 . S
H1046 C1042 0.930 . S
H1047 C1044 0.929 . S
S1048 N1049 1.613 . S
S1048 N1050 1.610 . S
N1049 S1048 1.613 . S
N1049 C1052 1.350 . S
N1050 S1048 1.610 . S
N1050 C1051 1.351 . S
C1051 C1045 1.428 . S
C1051 N1050 1.351 . S
C1051 C1052 1.434 . S
C1052 C1043 1.429 . S
C1052 N1049 1.350 . S
C1052 C1051 1.434 . S
C1053 C1054 1.369 . S
C1053 C1055 1.419 . S
C1053 H1057 0.930 . S
C1054 C1053 1.369 . S
C1054 C1063 1.429 . S
C1055 C1053 1.419 . S
C1055 C1056 1.363 . S
C1055 H1058 0.929 . S
C1056 C1055 1.363 . S
C1056 C1062 1.428 . S
H1057 C1053 0.930 . S
H1058 C1055 0.929 . S
S1059 N1060 1.613 . S
S1059 N1061 1.610 . S
N1060 S1059 1.613 . S
N1060 C1063 1.350 . S
N1061 S1059 1.610 . S
N1061 C1062 1.351 . S
C1062 C1056 1.428 . S
C1062 N1061 1.351 . S
C1062 C1063 1.434 . S
C1063 C1054 1.429 . S
C1063 N1060 1.350 . S
C1063 C1062 1.434 . S
C1064 C1065 1.369 . S
C1064 C1066 1.419 . S
C1064 H1068 0.930 . S
C1065 C1064 1.369 . S
C1065 C1074 1.429 . S
C1066 C1064 1.419 . S
C1066 C1067 1.363 . S
C1066 H1069 0.929 . S
C1067 C1066 1.363 . S
C1067 C1073 1.428 . S
H1068 C1064 0.930 . S
H1069 C1066 0.929 . S
S1070 N1071 1.613 . S
S1070 N1072 1.610 . S
N1071 S1070 1.613 . S
N1071 C1074 1.350 . S
N1072 S1070 1.610 . S
N1072 C1073 1.351 . S
C1073 C1067 1.428 . S
C1073 N1072 1.351 . S
C1073 C1074 1.434 . S
C1074 C1065 1.429 . S
C1074 N1071 1.350 . S
C1074 C1073 1.434 . S
C1075 C1076 1.369 . S
C1075 C1077 1.419 . S
C1075 H1079 0.930 . S
C1076 C1075 1.369 . S
C1076 C1085 1.429 . S
C1077 C1075 1.419 . S
C1077 C1078 1.363 . S
C1077 H1080 0.929 . S
C1078 C1077 1.363 . S
C1078 C1084 1.428 . S
H1079 C1075 0.930 . S
H1080 C1077 0.929 . S
S1081 N1082 1.613 . S
S1081 N1083 1.610 . S
N1082 S1081 1.613 . S
N1082 C1085 1.350 . S
N1083 S1081 1.610 . S
N1083 C1084 1.351 . S
C1084 C1078 1.428 . S
C1084 N1083 1.351 . S
C1084 C1085 1.434 . S
C1085 C1076 1.429 . S
C1085 N1082 1.350 . S
C1085 C1084 1.434 . S
C1086 C1087 1.369 . S
C1086 C1088 1.419 . S
C1086 H1090 0.930 . S
C1087 C1086 1.369 . S
C1087 C1096 1.429 . S
C1088 C1086 1.419 . S
C1088 C1089 1.363 . S
C1088 H1091 0.929 . S
C1089 C1088 1.363 . S
C1089 C1095 1.428 . S
H1090 C1086 0.930 . S
H1091 C1088 0.929 . S
S1092 N1093 1.613 . S
S1092 N1094 1.610 . S
N1093 S1092 1.613 . S
N1093 C1096 1.350 . S
N1094 S1092 1.610 . S
N1094 C1095 1.351 . S
C1095 C1089 1.428 . S
C1095 N1094 1.351 . S
C1095 C1096 1.434 . S
C1096 C1087 1.429 . S
C1096 N1093 1.350 . S
C1096 C1095 1.434 . S
C1097 C1098 1.369 . S
C1097 C1099 1.419 . S
C1097 H1101 0.930 . S
C1098 C1097 1.369 . S
C1098 C1107 1.429 . S
C1099 C1097 1.419 . S
C1099 C1100 1.363 . S
C1099 H1102 0.929 . S
C1100 C1099 1.363 . S
C1100 C1106 1.428 . S
H1101 C1097 0.930 . S
H1102 C1099 0.929 . S
S1103 N1104 1.613 1_565 S
S1103 N1105 1.610 . S
N1104 S1103 1.613 1_545 S
N1104 C1107 1.350 1_545 S
N1105 S1103 1.610 . S
N1105 C1106 1.351 . S
C1106 C1100 1.428 . S
C1106 N1105 1.351 . S
C1106 C1107 1.434 . S
C1107 C1098 1.429 . S
C1107 N1104 1.350 1_565 S
C1107 C1106 1.434 . S
C1108 C1109 1.369 . S
C1108 C1110 1.419 . S
C1108 H1112 0.930 . S
C1109 C1108 1.369 . S
C1109 C1118 1.429 . S
C1110 C1108 1.419 . S
C1110 C1111 1.363 . S
C1110 H1113 0.929 . S
C1111 C1110 1.363 . S
C1111 C1117 1.428 . S
H1112 C1108 0.930 . S
H1113 C1110 0.929 . S
S1114 N1115 1.613 . S
S1114 N1116 1.610 . S
N1115 S1114 1.613 . S
N1115 C1118 1.350 . S
N1116 S1114 1.610 . S
N1116 C1117 1.351 . S
C1117 C1111 1.428 . S
C1117 N1116 1.351 . S
C1117 C1118 1.434 . S
C1118 C1109 1.429 . S
C1118 N1115 1.350 . S
C1118 C1117 1.434 . S
C1119 C1120 1.369 . S
C1119 C1121 1.419 . S
C1119 H1123 0.930 . S
C1120 C1119 1.369 . S
C1120 C1129 1.429 . S
C1121 C1119 1.419 . S
C1121 C1122 1.363 . S
C1121 H1124 0.929 . S
C1122 C1121 1.363 . S
C1122 C1128 1.428 . S
H1123 C1119 0.930 . S
H1124 C1121 0.929 . S
S1125 N1126 1.613 . S
S1125 N1127 1.610 . S
N1126 S1125 1.613 . S
N1126 C1129 1.350 . S
N1127 S1125 1.610 . S
N1127 C1128 1.351 . S
C1128 C1122 1.428 . S
C1128 N1127 1.351 . S
C1128 C1129 1.434 . S
C1129 C1120 1.429 . S
C1129 N1126 1.350 . S
C1129 C1128 1.434 . S
C1130 C1131 1.369 . S
C1130 C1132 1.419 . S
C1130 H1134 0.930 . S
C1131 C1130 1.369 . S
C1131 C1140 1.429 . S
C1132 C1130 1.419 . S
C1132 C1133 1.363 . S
C1132 H1135 0.929 . S
C1133 C1132 1.363 . S
C1133 C1139 1.428 . S
H1134 C1130 0.930 . S
H1135 C1132 0.929 . S
S1136 N1137 1.613 . S
S1136 N1138 1.610 . S
N1137 S1136 1.613 . S
N1137 C1140 1.350 . S
N1138 S1136 1.610 . S
N1138 C1139 1.351 . S
C1139 C1133 1.428 . S
C1139 N1138 1.351 . S
C1139 C1140 1.434 . S
C1140 C1131 1.429 . S
C1140 N1137 1.350 . S
C1140 C1139 1.434 . S
C1141 C1142 1.369 . S
C1141 C1143 1.419 . S
C1141 H1145 0.930 . S
C1142 C1141 1.369 . S
C1142 C1151 1.429 . S
C1143 C1141 1.419 . S
C1143 C1144 1.363 . S
C1143 H1146 0.929 . S
C1144 C1143 1.363 . S
C1144 C1150 1.428 . S
H1145 C1141 0.930 . S
H1146 C1143 0.929 . S
S1147 N1148 1.613 . S
S1147 N1149 1.610 . S
N1148 S1147 1.613 . S
N1148 C1151 1.350 . S
N1149 S1147 1.610 . S
N1149 C1150 1.351 . S
C1150 C1144 1.428 . S
C1150 N1149 1.351 . S
C1150 C1151 1.434 . S
C1151 C1142 1.429 . S
C1151 N1148 1.350 . S
C1151 C1150 1.434 . S
C449 C5 1.449 . S
C451 C19 1.449 . S
C460 C47 1.448 . S
C462 C33 1.449 . S
C471 C61 1.449 . S
C473 C75 1.449 . S
C482 C89 1.450 . S
C484 C103 1.450 . S
C493 C117 1.451 . S
C495 C131 1.451 . S
C504 C145 1.451 . S
C506 C159 1.451 . S
C515 C173 1.451 . S
C517 C187 1.450 . S
C526 C201 1.451 . S
C528 C215 1.450 . S
C537 C243 1.451 . S
C539 C229 1.451 . S
C548 C271 1.451 . S
C550 C257 1.451 . S
C559 C299 1.451 . S
C561 C285 1.450 . S
C570 C327 1.451 . S
C572 C313 1.450 . S
C581 C355 1.450 . S
C583 C341 1.449 . S
C592 C383 1.450 . S
C594 C369 1.450 . S
C603 C411 1.450 . S
C605 C397 1.451 . S
C614 C439 1.451 . S
C616 C425 1.451 . S
C625 C11 1.540 . S
C627 C179 1.532 . S
C636 C25 1.535 . S
C638 C305 1.536 . S
C647 C39 1.535 . S
C649 C95 1.536 . S
C658 C53 1.533 . S
C660 C445 1.538 . S
C669 C67 1.538 . S
C671 C123 1.533 . S
C680 C249 1.539 . S
C682 C81 1.532 . S
C691 C389 1.531 . S
C693 C109 1.539 . S
C702 C137 1.539 . S
C704 C417 1.532 . S
C713 C151 1.535 . S
C715 C207 1.535 . S
C724 C165 1.532 . S
C726 C333 1.538 . S
C735 C193 1.532 . S
C737 C361 1.538 . S
C746 C221 1.534 . S
C748 C277 1.536 . S
C757 C403 1.530 . S
C759 C235 1.539 . S
C768 C319 1.539 . S
C770 C263 1.533 . S
C779 C291 1.532 . S
C781 C347 1.538 . S
C790 C431 1.539 . S
C792 C375 1.532 . S
C801 C149 0.982 . S
C803 C9 0.987 . S
C812 C163 0.988 . S
C814 C23 0.983 . S
C823 C37 0.982 . S
C825 C121 0.987 . S
C834 C135 0.986 . S
C836 C51 0.984 . S
C845 C65 0.987 . S
C847 C205 0.983 . S
C856 C79 0.982 . S
C858 C219 0.987 . S
C867 C177 0.988 . S
C869 C93 0.982 . S
C878 C191 0.982 . S
C880 C107 0.987 . S
C889 C233 0.982 . S
C891 C373 0.987 . S
C900 C387 0.988 . S
C902 C247 0.982 . S
C911 C345 0.982 . S
C913 C261 0.987 . S
C922 C275 0.986 . S
C924 C359 0.983 . S
C933 C429 0.983 . S
C935 C289 0.987 . S
C944 C303 0.985 . S
C946 C443 0.985 . S
C955 C401 0.988 . S
C957 C317 0.982 . S
C966 C415 0.988 . S
C968 C331 0.982 . S
C977 C140 1.533 . S
C979 C0 1.537 1_565 S
C988 C154 1.531 . S
C990 C14 1.536 . S
C999 C112 1.535 . S
C1001 C28 1.536 . S
C1010 C42 1.537 1_565 S
C1012 C126 1.535 . S
C1021 C196 1.530 . S
C1023 C56 1.533 1_545 S
C1032 C210 1.537 . S
C1034 C70 1.533 . S
C1043 C168 1.531 . S
C1045 C84 1.536 . S
C1054 C182 1.533 . S
C1056 C98 1.531 1_545 S
C1065 C364 1.536 . S
C1067 C224 1.536 1_565 S
C1076 C378 1.531 . S
C1078 C238 1.536 . S
C1087 C336 1.530 . S
C1089 C252 1.534 . S
C1098 C266 1.530 1_565 S
C1100 C350 1.535 . S
C1109 C420 1.538 . S
C1111 C280 1.533 1_545 S
C1120 C294 1.537 . S
C1122 C434 1.532 . S
C1131 C392 1.536 . S
C1133 C308 1.536 . S
C1142 C322 1.532 1_545 S
C1144 C406 1.531 . S
