# Generated by pormake.
# Topology svo, (7)-cn, num edge types: 1
# Building blocks:
#     Node 0, Type 0, BuildingBlock: HICVOG_clean_sbu_0, # of connection points: 7
#     Node 1, Type 0, BuildingBlock: HICVOG_clean_sbu_0, # of connection points: 7
#     Node 2, Type 0, BuildingBlock: HICVOG_clean_sbu_0, # of connection points: 7
#     Node 3, Type 0, BuildingBlock: HICVOG_clean_sbu_0, # of connection points: 7
#     Node 4, Type 0, BuildingBlock: HICVOG_clean_sbu_0, # of connection points: 7
#     Node 5, Type 0, BuildingBlock: HICVOG_clean_sbu_0, # of connection points: 7
#     Node 6, Type 0, BuildingBlock: HICVOG_clean_sbu_0, # of connection points: 7
#     Node 7, Type 0, BuildingBlock: HICVOG_clean_sbu_0, # of connection points: 7
#     Node 8, Type 0, BuildingBlock: HICVOG_clean_sbu_0, # of connection points: 7
#     Node 9, Type 0, BuildingBlock: HICVOG_clean_sbu_0, # of connection points: 7
#     Node 10, Type 0, BuildingBlock: HICVOG_clean_sbu_0, # of connection points: 7
#     Node 11, Type 0, BuildingBlock: HICVOG_clean_sbu_0, # of connection points: 7
#     Node 12, Type 0, BuildingBlock: HICVOG_clean_sbu_0, # of connection points: 7
#     Node 13, Type 0, BuildingBlock: HICVOG_clean_sbu_0, # of connection points: 7
#     Node 14, Type 0, BuildingBlock: HICVOG_clean_sbu_0, # of connection points: 7
#     Node 15, Type 0, BuildingBlock: HICVOG_clean_sbu_0, # of connection points: 7
#     Edge 16, Type (0, 0), BuildingBlock: ZUJKAS_clean_linker_0, # of connection points: 2
#     Edge 17, Type (0, 0), BuildingBlock: ZUJKAS_clean_linker_0, # of connection points: 2
#     Edge 18, Type (0, 0), BuildingBlock: ZUJKAS_clean_linker_0, # of connection points: 2
#     Edge 19, Type (0, 0), BuildingBlock: ZUJKAS_clean_linker_0, # of connection points: 2
#     Edge 20, Type (0, 0), BuildingBlock: ZUJKAS_clean_linker_0, # of connection points: 2
#     Edge 21, Type (0, 0), BuildingBlock: ZUJKAS_clean_linker_0, # of connection points: 2
#     Edge 22, Type (0, 0), BuildingBlock: ZUJKAS_clean_linker_0, # of connection points: 2
#     Edge 23, Type (0, 0), BuildingBlock: ZUJKAS_clean_linker_0, # of connection points: 2
#     Edge 24, Type (0, 0), BuildingBlock: ZUJKAS_clean_linker_0, # of connection points: 2
#     Edge 25, Type (0, 0), BuildingBlock: ZUJKAS_clean_linker_0, # of connection points: 2
#     Edge 26, Type (0, 0), BuildingBlock: ZUJKAS_clean_linker_0, # of connection points: 2
#     Edge 27, Type (0, 0), BuildingBlock: ZUJKAS_clean_linker_0, # of connection points: 2
#     Edge 28, Type (0, 0), BuildingBlock: ZUJKAS_clean_linker_0, # of connection points: 2
#     Edge 29, Type (0, 0), BuildingBlock: ZUJKAS_clean_linker_0, # of connection points: 2
#     Edge 30, Type (0, 0), BuildingBlock: ZUJKAS_clean_linker_0, # of connection points: 2
#     Edge 31, Type (0, 0), BuildingBlock: ZUJKAS_clean_linker_0, # of connection points: 2
#     Edge 32, Type (0, 0), BuildingBlock: ZUJKAS_clean_linker_0, # of connection points: 2
#     Edge 33, Type (0, 0), BuildingBlock: ZUJKAS_clean_linker_0, # of connection points: 2
#     Edge 34, Type (0, 0), BuildingBlock: ZUJKAS_clean_linker_0, # of connection points: 2
#     Edge 35, Type (0, 0), BuildingBlock: ZUJKAS_clean_linker_0, # of connection points: 2
#     Edge 36, Type (0, 0), BuildingBlock: ZUJKAS_clean_linker_0, # of connection points: 2
#     Edge 37, Type (0, 0), BuildingBlock: ZUJKAS_clean_linker_0, # of connection points: 2
#     Edge 38, Type (0, 0), BuildingBlock: ZUJKAS_clean_linker_0, # of connection points: 2
#     Edge 39, Type (0, 0), BuildingBlock: ZUJKAS_clean_linker_0, # of connection points: 2
#     Edge 40, Type (0, 0), BuildingBlock: ZUJKAS_clean_linker_0, # of connection points: 2
#     Edge 41, Type (0, 0), BuildingBlock: ZUJKAS_clean_linker_0, # of connection points: 2
#     Edge 42, Type (0, 0), BuildingBlock: ZUJKAS_clean_linker_0, # of connection points: 2
#     Edge 43, Type (0, 0), BuildingBlock: ZUJKAS_clean_linker_0, # of connection points: 2
#     Edge 44, Type (0, 0), BuildingBlock: ZUJKAS_clean_linker_0, # of connection points: 2
#     Edge 45, Type (0, 0), BuildingBlock: ZUJKAS_clean_linker_0, # of connection points: 2
#     Edge 46, Type (0, 0), BuildingBlock: ZUJKAS_clean_linker_0, # of connection points: 2
#     Edge 47, Type (0, 0), BuildingBlock: ZUJKAS_clean_linker_0, # of connection points: 2
#     Edge 48, Type (0, 0), BuildingBlock: ZUJKAS_clean_linker_0, # of connection points: 2
#     Edge 49, Type (0, 0), BuildingBlock: ZUJKAS_clean_linker_0, # of connection points: 2
#     Edge 50, Type (0, 0), BuildingBlock: ZUJKAS_clean_linker_0, # of connection points: 2
#     Edge 51, Type (0, 0), BuildingBlock: ZUJKAS_clean_linker_0, # of connection points: 2
#     Edge 52, Type (0, 0), BuildingBlock: ZUJKAS_clean_linker_0, # of connection points: 2
#     Edge 53, Type (0, 0), BuildingBlock: ZUJKAS_clean_linker_0, # of connection points: 2
#     Edge 54, Type (0, 0), BuildingBlock: ZUJKAS_clean_linker_0, # of connection points: 2
#     Edge 55, Type (0, 0), BuildingBlock: ZUJKAS_clean_linker_0, # of connection points: 2
#     Edge 56, Type (0, 0), BuildingBlock: ZUJKAS_clean_linker_0, # of connection points: 2
#     Edge 57, Type (0, 0), BuildingBlock: ZUJKAS_clean_linker_0, # of connection points: 2
#     Edge 58, Type (0, 0), BuildingBlock: ZUJKAS_clean_linker_0, # of connection points: 2
#     Edge 59, Type (0, 0), BuildingBlock: ZUJKAS_clean_linker_0, # of connection points: 2
#     Edge 60, Type (0, 0), BuildingBlock: ZUJKAS_clean_linker_0, # of connection points: 2
#     Edge 61, Type (0, 0), BuildingBlock: ZUJKAS_clean_linker_0, # of connection points: 2
#     Edge 62, Type (0, 0), BuildingBlock: ZUJKAS_clean_linker_0, # of connection points: 2
#     Edge 63, Type (0, 0), BuildingBlock: ZUJKAS_clean_linker_0, # of connection points: 2
#     Edge 64, Type (0, 0), BuildingBlock: ZUJKAS_clean_linker_0, # of connection points: 2
#     Edge 65, Type (0, 0), BuildingBlock: ZUJKAS_clean_linker_0, # of connection points: 2
#     Edge 66, Type (0, 0), BuildingBlock: ZUJKAS_clean_linker_0, # of connection points: 2
#     Edge 67, Type (0, 0), BuildingBlock: ZUJKAS_clean_linker_0, # of connection points: 2
#     Edge 68, Type (0, 0), BuildingBlock: ZUJKAS_clean_linker_0, # of connection points: 2
#     Edge 69, Type (0, 0), BuildingBlock: ZUJKAS_clean_linker_0, # of connection points: 2
#     Edge 70, Type (0, 0), BuildingBlock: ZUJKAS_clean_linker_0, # of connection points: 2
#     Edge 71, Type (0, 0), BuildingBlock: ZUJKAS_clean_linker_0, # of connection points: 2
# Relax obj value: 0.203
# Max RMSD: 0.232
# Mean RMSD: 0.232
data_MOF--net-svo--node1-HICVOG_clean_sbu_0--edge1-ZUJKAS_clean_linker_0
_symmetry_space_group_name_H-M    P1
_symmetry_Int_Tables_number       1
_symmetry_cell_setting            triclinic
loop_
_symmetry_equiv_pos_as_xyz
'x, y, z'
_cell_length_a     38.606496
_cell_length_b     38.5827
_cell_length_c     97.088659
_cell_angle_alpha  90.035324
_cell_angle_beta   90.042542
_cell_angle_gamma 90.036683
loop_
_atom_site_label
_atom_site_type_symbol
_atom_site_fract_x
_atom_site_fract_y
_atom_site_fract_z
_atom_type_partial_charge
Zn0 Zn 0.17129 0.29869 0.15226 0.0
C1 C 0.1049 0.36419 0.13415 0.0
N2 N 0.08163 0.34642 0.14161 0.0
C3 C 0.10083 0.32099 0.14712 0.0
N4 N 0.13418 0.32287 0.14311 0.0
N5 N 0.13691 0.35013 0.13487 0.0
C6 C 0.20144 0.42275 0.12786 0.0
O7 O 0.21184 0.40364 0.13827 0.0
O8 O 0.16054 0.24833 0.15608 0.0
Zn9 Zn 0.17217 0.3573 0.12078 0.0
N10 N 0.17885 0.32208 0.1696 0.0
C11 C 0.18037 0.37519 0.18199 0.0
C12 C 0.1753 0.3571 0.16975 0.0
C13 C 0.18738 0.30424 0.18121 0.0
N14 N 0.18885 0.35751 0.19358 0.0
C15 C 0.19251 0.32237 0.19366 0.0
O16 O 0.21852 0.33255 0.12363 0.0
C17 C 0.23261 0.31088 0.13181 0.0
O18 O 0.21631 0.29853 0.14205 0.0
H19 H 0.16867 0.37084 0.16041 0.0
H20 H 0.1907 0.27647 0.18058 0.0
C21 C 0.15504 0.35141 0.09131 0.0
C22 C 0.13781 0.33526 0.08019 0.0
C23 C 0.115 0.29325 0.09558 0.0
C24 C 0.13241 0.3089 0.10645 0.0
N25 N 0.15167 0.33788 0.10421 0.0
N26 N 0.1181 0.30672 0.08277 0.0
H27 H 0.17051 0.37449 0.0898 0.0
C28 C 0.16438 0.22651 0.14638 0.0
O29 O 0.17132 0.238 0.13395 0.0
O30 O 0.18277 0.40872 0.11858 0.0
H31 H 0.13042 0.29806 0.11668 0.0
H32 H 0.17767 0.40308 0.18229 0.0
H33 H 0.0993 0.27042 0.09728 0.0
Zn34 Zn 0.71398 0.17462 0.15103 0.0
C35 C 0.64288 0.11237 0.13459 0.0
N36 N 0.65855 0.08857 0.14253 0.0
C37 C 0.68675 0.10562 0.14702 0.0
N38 N 0.68819 0.1382 0.14205 0.0
N39 N 0.6607 0.14241 0.13407 0.0
C40 C 0.58742 0.19789 0.12683 0.0
O41 O 0.6044 0.20357 0.13835 0.0
O42 O 0.76456 0.16332 0.15381 0.0
Zn43 Zn 0.65516 0.17686 0.11971 0.0
N44 N 0.69261 0.1807 0.16886 0.0
C45 C 0.64086 0.17943 0.18211 0.0
C46 C 0.65765 0.17691 0.16947 0.0
C47 C 0.71157 0.18743 0.18038 0.0
N48 N 0.65968 0.18591 0.19362 0.0
C49 C 0.69469 0.19021 0.19319 0.0
O50 O 0.67819 0.22387 0.12313 0.0
C51 C 0.69974 0.23773 0.13144 0.0
O52 O 0.71281 0.2207 0.14138 0.0
H53 H 0.64299 0.17163 0.16022 0.0
H54 H 0.73941 0.18987 0.17956 0.0
C55 C 0.66444 0.15864 0.09058 0.0
C56 C 0.68207 0.14151 0.07982 0.0
C57 C 0.72367 0.12117 0.09592 0.0
C58 C 0.70649 0.13845 0.10645 0.0
N59 N 0.67705 0.15647 0.10367 0.0
N60 N 0.71111 0.12308 0.08292 0.0
H61 H 0.6409 0.17305 0.08866 0.0
C62 C 0.78519 0.16687 0.14371 0.0
O63 O 0.77234 0.17431 0.13153 0.0
O64 O 0.60384 0.18539 0.11662 0.0
H65 H 0.71648 0.13731 0.11683 0.0
H66 H 0.61307 0.17622 0.18277 0.0
H67 H 0.74692 0.10646 0.09805 0.0
Zn68 Zn 0.83746 0.66066 0.12156 0.0
C69 C 0.90883 0.69413 0.14855 0.0
N70 N 0.92744 0.66822 0.14307 0.0
C71 C 0.90395 0.65133 0.13537 0.0
N72 N 0.87239 0.66637 0.13591 0.0
N73 N 0.87555 0.69327 0.14433 0.0
C74 C 0.84689 0.78959 0.14555 0.0
O75 O 0.84021 0.77612 0.1334 0.0
O76 O 0.82776 0.60935 0.11839 0.0
Zn77 Zn 0.83886 0.71879 0.15328 0.0
N78 N 0.85728 0.68309 0.10541 0.0
C79 C 0.89208 0.73044 0.098 0.0
C80 C 0.87655 0.71159 0.10848 0.0
C81 C 0.85239 0.67291 0.09208 0.0
N82 N 0.88723 0.7205 0.08478 0.0
C83 C 0.86772 0.69235 0.08134 0.0
O84 O 0.79301 0.71774 0.1435 0.0
C85 C 0.77644 0.70502 0.13337 0.0
O86 O 0.79069 0.68391 0.12501 0.0
H87 H 0.87963 0.71991 0.11901 0.0
H88 H 0.83615 0.6507 0.08996 0.0
C89 C 0.82468 0.7177 0.18253 0.0
C90 C 0.82095 0.70151 0.19546 0.0
C91 C 0.83307 0.64715 0.18497 0.0
C92 C 0.83647 0.66327 0.17222 0.0
N93 N 0.83242 0.69815 0.17125 0.0
N94 N 0.82548 0.66655 0.19623 0.0
H95 H 0.8221 0.74546 0.1814 0.0
C96 C 0.81095 0.59408 0.1279 0.0
O97 O 0.80227 0.61197 0.13889 0.0
O98 O 0.85002 0.76946 0.15583 0.0
H99 H 0.84252 0.64815 0.16315 0.0
H100 H 0.90757 0.75307 0.10034 0.0
H101 H 0.83643 0.61942 0.18593 0.0
Zn102 Zn 0.35444 0.84082 0.11984 0.0
C103 C 0.32239 0.91279 0.14692 0.0
N104 N 0.34893 0.9309 0.14162 0.0
C105 C 0.36471 0.9073 0.13362 0.0
N106 N 0.34848 0.87631 0.13384 0.0
N107 N 0.32187 0.87983 0.14234 0.0
C108 C 0.22536 0.85121 0.1442 0.0
O109 O 0.23826 0.84436 0.13198 0.0
O110 O 0.40591 0.83231 0.11678 0.0
Zn111 Zn 0.29671 0.84353 0.15164 0.0
N112 N 0.33138 0.85921 0.10359 0.0
C113 C 0.28248 0.89147 0.096 0.0
C114 C 0.30197 0.87708 0.10655 0.0
C115 C 0.34197 0.85473 0.09029 0.0
N116 N 0.2928 0.88698 0.0828 0.0
C117 C 0.32195 0.86894 0.07948 0.0
O118 O 0.29831 0.79699 0.14235 0.0
C119 C 0.31128 0.77985 0.13242 0.0
O120 O 0.33213 0.79381 0.12388 0.0
H121 H 0.29349 0.87993 0.11708 0.0
H122 H 0.36501 0.83965 0.08825 0.0
C123 C 0.29922 0.83155 0.18106 0.0
C124 C 0.31606 0.82939 0.19391 0.0
C125 C 0.36967 0.84152 0.18289 0.0
C126 C 0.35292 0.8434 0.17022 0.0
N127 N 0.31809 0.83862 0.16955 0.0
N128 N 0.35093 0.83465 0.19439 0.0
H129 H 0.27147 0.82832 0.18018 0.0
C130 C 0.42184 0.81898 0.12697 0.0
O131 O 0.40438 0.81299 0.13834 0.0
O132 O 0.24598 0.85451 0.15433 0.0
H133 H 0.36752 0.84891 0.16098 0.0
H134 H 0.25908 0.90581 0.09824 0.0
H135 H 0.39735 0.8455 0.18361 0.0
Zn136 Zn 0.17095 0.71726 0.364 0.0
C137 C 0.10761 0.65091 0.38318 0.0
N138 N 0.08296 0.6695 0.3768 0.0
C139 C 0.10121 0.6956 0.37123 0.0
N140 N 0.13527 0.69316 0.37412 0.0
N141 N 0.13938 0.66502 0.38176 0.0
C142 C 0.19784 0.58858 0.38687 0.0
O143 O 0.20413 0.60603 0.37552 0.0
O144 O 0.16111 0.76823 0.36136 0.0
Zn145 Zn 0.17688 0.65631 0.3946 0.0
N146 N 0.17346 0.69599 0.34599 0.0
C147 C 0.16674 0.64565 0.33211 0.0
C148 C 0.16596 0.66168 0.34496 0.0
C149 C 0.18212 0.71499 0.33469 0.0
N150 N 0.17533 0.66453 0.32083 0.0
C151 C 0.18329 0.69887 0.32167 0.0
O152 O 0.22366 0.67831 0.39 0.0
C153 C 0.23661 0.7004 0.38171 0.0
O154 O 0.21835 0.71476 0.37243 0.0
H155 H 0.15926 0.64693 0.35404 0.0
H156 H 0.18747 0.74233 0.3359 0.0
C157 C 0.15879 0.66295 0.424 0.0
C158 C 0.14602 0.6824 0.43524 0.0
C159 C 0.13921 0.73105 0.42045 0.0
C160 C 0.15217 0.71194 0.40949 0.0
N161 N 0.16155 0.67837 0.41141 0.0
N162 N 0.13652 0.71593 0.43299 0.0
H163 H 0.16597 0.63601 0.4251 0.0
C164 C 0.16914 0.78924 0.37093 0.0
O165 O 0.18015 0.77673 0.38274 0.0
O166 O 0.18459 0.60456 0.39705 0.0
H167 H 0.15451 0.72364 0.39943 0.0
H168 H 0.16065 0.6184 0.3311 0.0
H169 H 0.13144 0.75775 0.41904 0.0
Zn170 Zn 0.36071 0.17446 0.39482 0.0
C171 C 0.32771 0.1027 0.36773 0.0
N172 N 0.35573 0.08532 0.37213 0.0
C173 C 0.3715 0.10877 0.38024 0.0
N174 N 0.35393 0.13895 0.38089 0.0
N175 N 0.32645 0.1351 0.37286 0.0
C176 C 0.22931 0.16297 0.37012 0.0
O177 O 0.24097 0.17047 0.38249 0.0
O178 O 0.41221 0.18326 0.39741 0.0
Zn179 Zn 0.30119 0.17133 0.36366 0.0
N180 N 0.33886 0.15573 0.41116 0.0
C181 C 0.28783 0.12764 0.4191 0.0
C182 C 0.30669 0.14298 0.40858 0.0
C183 C 0.35298 0.15419 0.42403 0.0
N184 N 0.30171 0.12601 0.43189 0.0
C185 C 0.33374 0.13893 0.43482 0.0
O186 O 0.30162 0.2172 0.37334 0.0
C187 C 0.31507 0.23461 0.3831 0.0
O188 O 0.33741 0.22129 0.39121 0.0
H189 H 0.29585 0.14462 0.39834 0.0
H190 H 0.37879 0.16426 0.42571 0.0
C191 C 0.30507 0.18725 0.3346 0.0
C192 C 0.32243 0.19157 0.32194 0.0
C193 C 0.37547 0.17685 0.33295 0.0
C194 C 0.35817 0.17264 0.3454 0.0
N195 N 0.3234 0.17785 0.34599 0.0
N196 N 0.3573 0.18621 0.32159 0.0
H197 H 0.27757 0.19186 0.33556 0.0
C198 C 0.42774 0.19563 0.38694 0.0
O199 O 0.40984 0.20068 0.3756 0.0
O200 O 0.25089 0.1596 0.36033 0.0
H201 H 0.37236 0.16533 0.35454 0.0
H202 H 0.26228 0.1172 0.41716 0.0
H203 H 0.40315 0.17281 0.33232 0.0
Zn204 Zn 0.84759 0.29691 0.36279 0.0
C205 C 0.90982 0.36558 0.38119 0.0
N206 N 0.93421 0.34881 0.37391 0.0
C207 C 0.91646 0.32187 0.3687 0.0
N208 N 0.883 0.32212 0.3726 0.0
N209 N 0.87872 0.34968 0.38057 0.0
C210 C 0.82839 0.42746 0.38537 0.0
O211 O 0.83149 0.41249 0.37328 0.0
O212 O 0.85984 0.24655 0.35967 0.0
Zn213 Zn 0.84146 0.35752 0.39361 0.0
N214 N 0.84356 0.31868 0.34493 0.0
C215 C 0.8497 0.36931 0.33119 0.0
C216 C 0.85096 0.35303 0.34397 0.0
C217 C 0.83455 0.29989 0.33361 0.0
N218 N 0.84085 0.35061 0.31988 0.0
C219 C 0.833 0.31624 0.32066 0.0
O220 O 0.79524 0.33447 0.38907 0.0
C221 C 0.78241 0.31181 0.38097 0.0
O222 O 0.80051 0.29754 0.37161 0.0
H223 H 0.8581 0.3676 0.35305 0.0
H224 H 0.82935 0.27248 0.33472 0.0
C225 C 0.86005 0.34999 0.42306 0.0
C226 C 0.87342 0.33009 0.43407 0.0
C227 C 0.88105 0.28256 0.41876 0.0
C228 C 0.86761 0.30212 0.40803 0.0
N229 N 0.85755 0.33536 0.41031 0.0
N230 N 0.88359 0.29692 0.43145 0.0
H231 H 0.85225 0.37667 0.42449 0.0
C232 C 0.85709 0.22469 0.36939 0.0
O233 O 0.84907 0.23582 0.38178 0.0
O234 O 0.83252 0.40917 0.39616 0.0
H235 H 0.86539 0.29103 0.39785 0.0
H236 H 0.85573 0.39658 0.33025 0.0
H237 H 0.88934 0.25613 0.41706 0.0
Zn238 Zn 0.7205 0.84855 0.36543 0.0
C239 C 0.66136 0.90873 0.38987 0.0
N240 N 0.68393 0.93354 0.38622 0.0
C241 C 0.70707 0.91596 0.37864 0.0
N242 N 0.69908 0.88201 0.37764 0.0
N243 N 0.6704 0.87732 0.38492 0.0
C244 C 0.59147 0.8171 0.38652 0.0
O245 O 0.60947 0.81198 0.37521 0.0
O246 O 0.7714 0.85802 0.3625 0.0
Zn247 Zn 0.659 0.83607 0.39536 0.0
N248 N 0.69766 0.85134 0.34771 0.0
C249 C 0.64827 0.86723 0.33452 0.0
C250 C 0.66493 0.86421 0.34719 0.0
C251 C 0.71438 0.84099 0.33607 0.0
N252 N 0.6649 0.857 0.3229 0.0
C253 C 0.69758 0.84371 0.32323 0.0
O254 O 0.68046 0.79072 0.38884 0.0
C255 C 0.70288 0.77915 0.38039 0.0
O256 O 0.71825 0.79903 0.37192 0.0
H257 H 0.65195 0.87222 0.35652 0.0
H258 H 0.7406 0.83134 0.33688 0.0
C259 C 0.66519 0.85039 0.42525 0.0
C260 C 0.68579 0.85774 0.43693 0.0
C261 C 0.73638 0.85264 0.42312 0.0
C262 C 0.71604 0.84519 0.41171 0.0
N263 N 0.68101 0.84427 0.41294 0.0
N264 N 0.72086 0.85868 0.43539 0.0
H265 H 0.63721 0.85016 0.42581 0.0
C266 C 0.79261 0.86418 0.37222 0.0
O267 O 0.78089 0.86724 0.38486 0.0
O268 O 0.60701 0.82895 0.39708 0.0
H269 H 0.72797 0.84052 0.4018 0.0
H270 H 0.62228 0.87759 0.33392 0.0
H271 H 0.7643 0.85365 0.42226 0.0
Zn272 Zn 0.85833 0.67857 0.89527 0.0
C273 C 0.82682 0.60657 0.86794 0.0
N274 N 0.85488 0.58951 0.87249 0.0
C275 C 0.87024 0.61317 0.88062 0.0
N276 N 0.85237 0.6432 0.88116 0.0
N277 N 0.8251 0.639 0.87303 0.0
C278 C 0.72758 0.66471 0.87124 0.0
O279 O 0.74011 0.67151 0.88354 0.0
O280 O 0.9097 0.68823 0.89829 0.0
Zn281 Zn 0.79871 0.67483 0.86403 0.0
N282 N 0.83689 0.65878 0.91157 0.0
C283 C 0.79035 0.62363 0.91952 0.0
C284 C 0.80739 0.64069 0.9089 0.0
C285 C 0.84969 0.66123 0.92463 0.0
N286 N 0.80311 0.62577 0.93248 0.0
C287 C 0.83221 0.64426 0.93547 0.0
O288 O 0.79883 0.72073 0.87377 0.0
C289 C 0.81209 0.73821 0.88355 0.0
O290 O 0.83457 0.72514 0.89166 0.0
H291 H 0.79726 0.63931 0.89855 0.0
H292 H 0.87327 0.6757 0.92647 0.0
C293 C 0.80098 0.68827 0.83463 0.0
C294 C 0.81787 0.69113 0.82181 0.0
C295 C 0.87167 0.68011 0.83288 0.0
C296 C 0.85487 0.67745 0.84551 0.0
N297 N 0.81993 0.68134 0.84615 0.0
N298 N 0.85287 0.68677 0.82138 0.0
H299 H 0.77315 0.69076 0.83545 0.0
C300 C 0.92835 0.69369 0.88771 0.0
O301 O 0.91387 0.69173 0.87548 0.0
O302 O 0.74842 0.66236 0.86116 0.0
H303 H 0.86952 0.67193 0.85473 0.0
H304 H 0.76706 0.60888 0.91749 0.0
H305 H 0.89944 0.67683 0.8322 0.0
Zn306 Zn 0.34264 0.79936 0.86168 0.0
C307 C 0.40927 0.86498 0.87972 0.0
N308 N 0.43244 0.84743 0.87213 0.0
C309 C 0.41322 0.82203 0.86659 0.0
N310 N 0.3799 0.82378 0.87068 0.0
N311 N 0.37731 0.85079 0.87907 0.0
C312 C 0.30856 0.92138 0.88769 0.0
O313 O 0.29277 0.90047 0.87904 0.0
O314 O 0.35311 0.74876 0.85874 0.0
Zn315 Zn 0.34265 0.85759 0.89339 0.0
N316 N 0.3359 0.82085 0.8439 0.0
C317 C 0.33653 0.87228 0.83044 0.0
C318 C 0.34019 0.85573 0.84309 0.0
C319 C 0.32768 0.80172 0.83256 0.0
N320 N 0.32846 0.8533 0.81911 0.0
C321 C 0.32369 0.81834 0.81973 0.0
O322 O 0.29617 0.83272 0.89069 0.0
C323 C 0.28142 0.81229 0.88218 0.0
O324 O 0.2973 0.80053 0.87172 0.0
H325 H 0.3466 0.8705 0.85222 0.0
H326 H 0.32494 0.77394 0.83355 0.0
C327 C 0.35974 0.8516 0.9229 0.0
C328 C 0.37772 0.83608 0.93397 0.0
C329 C 0.40269 0.79571 0.91841 0.0
C330 C 0.38459 0.81074 0.90758 0.0
N331 N 0.36389 0.83864 0.90993 0.0
N332 N 0.39887 0.80868 0.93128 0.0
H333 H 0.3431 0.87379 0.92451 0.0
C334 C 0.3508 0.72833 0.86896 0.0
O335 O 0.34514 0.74142 0.88126 0.0
O336 O 0.33229 0.90911 0.89539 0.0
H337 H 0.38721 0.80026 0.89732 0.0
H338 H 0.34006 0.90002 0.82961 0.0
H339 H 0.41953 0.77377 0.91662 0.0
Zn340 Zn 0.21811 0.34447 0.86347 0.0
C341 C 0.14667 0.40588 0.88039 0.0
N342 N 0.16223 0.42991 0.87253 0.0
C343 C 0.19018 0.41293 0.86782 0.0
N344 N 0.19155 0.38015 0.87255 0.0
N345 N 0.1643 0.37569 0.88065 0.0
C346 C 0.08896 0.32577 0.88764 0.0
O347 O 0.10337 0.32761 0.87541 0.0
O348 O 0.26878 0.3561 0.86109 0.0
Zn349 Zn 0.15892 0.34004 0.89466 0.0
N350 N 0.1978 0.33892 0.84539 0.0
C351 C 0.14734 0.34141 0.83138 0.0
C352 C 0.1631 0.34402 0.84423 0.0
C353 C 0.21748 0.33086 0.83421 0.0
N354 N 0.16688 0.33347 0.82021 0.0
C355 C 0.20164 0.32787 0.82118 0.0
O356 O 0.1811 0.2931 0.8905 0.0
C357 C 0.20327 0.28013 0.88225 0.0
O358 O 0.21692 0.29804 0.87271 0.0
H359 H 0.14783 0.35031 0.85322 0.0
H360 H 0.24509 0.32742 0.83549 0.0
C361 C 0.17185 0.35548 0.92401 0.0
C362 C 0.19222 0.36993 0.93469 0.0
C363 C 0.23273 0.38956 0.91797 0.0
C364 C 0.21285 0.37496 0.90757 0.0
N365 N 0.18276 0.35846 0.9107 0.0
N366 N 0.22205 0.38664 0.93119 0.0
H367 H 0.14822 0.34145 0.92615 0.0
C368 C 0.28935 0.35126 0.87113 0.0
O369 O 0.27643 0.34241 0.88315 0.0
O370 O 0.10774 0.33118 0.89821 0.0
H371 H 0.22151 0.37662 0.89703 0.0
H372 H 0.11978 0.34562 0.83027 0.0
H373 H 0.25667 0.40286 0.91559 0.0
Zn374 Zn 0.67501 0.21921 0.86212 0.0
C375 C 0.6086 0.15359 0.88014 0.0
N376 N 0.58543 0.17097 0.87248 0.0
C377 C 0.60458 0.19648 0.867 0.0
N378 N 0.63783 0.19498 0.8712 0.0
N379 N 0.64049 0.16798 0.87957 0.0
C380 C 0.70823 0.09732 0.8891 0.0
O381 O 0.72386 0.11744 0.88014 0.0
O382 O 0.66466 0.2698 0.8587 0.0
Zn383 Zn 0.67507 0.1619 0.894 0.0
N384 N 0.68177 0.19653 0.8446 0.0
C385 C 0.68255 0.14392 0.83188 0.0
C386 C 0.6782 0.16152 0.84426 0.0
C387 C 0.68969 0.21483 0.83303 0.0
N388 N 0.69038 0.16207 0.82033 0.0
C389 C 0.69409 0.1972 0.82043 0.0
O390 O 0.72176 0.18589 0.89099 0.0
C391 C 0.73644 0.20637 0.88251 0.0
O392 O 0.72043 0.21835 0.87211 0.0
H393 H 0.67209 0.14742 0.85357 0.0
H394 H 0.69305 0.24257 0.83382 0.0
C395 C 0.65973 0.17286 0.92344 0.0
C396 C 0.64401 0.19155 0.93429 0.0
C397 C 0.61877 0.22965 0.91789 0.0
C398 C 0.63472 0.21156 0.9073 0.0
N399 N 0.65459 0.18339 0.91019 0.0
N400 N 0.62386 0.21935 0.93105 0.0
H401 H 0.67649 0.15099 0.92542 0.0
C402 C 0.6688 0.29117 0.86853 0.0
O403 O 0.6759 0.27912 0.88088 0.0
O404 O 0.68486 0.11039 0.89677 0.0
H405 H 0.63149 0.22023 0.89681 0.0
H406 H 0.67981 0.11604 0.83143 0.0
H407 H 0.60278 0.252 0.9157 0.0
Zn408 Zn 0.85874 0.34455 0.61946 0.0
C409 C 0.82537 0.41726 0.64592 0.0
N410 N 0.8521 0.4353 0.64072 0.0
C411 C 0.86814 0.41151 0.63289 0.0
N412 N 0.85188 0.38054 0.63313 0.0
N413 N 0.82499 0.38423 0.64145 0.0
C414 C 0.72843 0.35711 0.64471 0.0
O415 O 0.73981 0.35027 0.63225 0.0
O416 O 0.91032 0.33524 0.61742 0.0
Zn417 Zn 0.80034 0.34805 0.65093 0.0
N418 N 0.83821 0.36322 0.60284 0.0
C419 C 0.78851 0.39224 0.59416 0.0
C420 C 0.80646 0.37735 0.60503 0.0
C421 C 0.85281 0.36304 0.59006 0.0
N422 N 0.80279 0.39196 0.58143 0.0
C423 C 0.83443 0.37769 0.57889 0.0
O424 O 0.80023 0.30204 0.64135 0.0
C425 C 0.81265 0.28478 0.63136 0.0
O426 O 0.83424 0.29818 0.62297 0.0
H427 H 0.7952 0.37705 0.61522 0.0
H428 H 0.87828 0.3519 0.58875 0.0
C429 C 0.80511 0.3335 0.68001 0.0
C430 C 0.82278 0.32954 0.69263 0.0
C431 C 0.87577 0.34243 0.68122 0.0
C432 C 0.85813 0.34632 0.66882 0.0
N433 N 0.82324 0.3419 0.66846 0.0
N434 N 0.85779 0.33414 0.69275 0.0
H435 H 0.77749 0.32944 0.6792 0.0
C436 C 0.92291 0.31326 0.62581 0.0
O437 O 0.90226 0.29892 0.63493 0.0
O438 O 0.7502 0.3598 0.65448 0.0
H439 H 0.87214 0.35276 0.65952 0.0
H440 H 0.76328 0.40373 0.59578 0.0
H441 H 0.90355 0.34587 0.68169 0.0
Zn442 Zn 0.67055 0.80163 0.65161 0.0
C443 C 0.60873 0.87141 0.63416 0.0
N444 N 0.58416 0.85405 0.64112 0.0
C445 C 0.60146 0.82614 0.6457 0.0
N446 N 0.63495 0.82658 0.64179 0.0
N447 N 0.63955 0.85496 0.63434 0.0
C448 C 0.68766 0.93365 0.62808 0.0
O449 O 0.68413 0.92042 0.64047 0.0
O450 O 0.66002 0.75077 0.65411 0.0
Zn451 Zn 0.67615 0.86231 0.62092 0.0
N452 N 0.67372 0.82244 0.66971 0.0
C453 C 0.66717 0.87256 0.68373 0.0
C454 C 0.66649 0.85678 0.67084 0.0
C455 C 0.68211 0.80318 0.68098 0.0
N456 N 0.67536 0.85341 0.69498 0.0
C457 C 0.6831 0.81904 0.69405 0.0
O458 O 0.7229 0.84011 0.62534 0.0
C459 C 0.73586 0.81799 0.63361 0.0
O460 O 0.71773 0.80382 0.64298 0.0
H461 H 0.65997 0.87175 0.66179 0.0
H462 H 0.68729 0.77581 0.67974 0.0
C463 C 0.65621 0.85361 0.59175 0.0
C464 C 0.6416 0.83378 0.58099 0.0
C465 C 0.63421 0.78668 0.59647 0.0
C466 C 0.64882 0.8062 0.607 0.0
N467 N 0.65928 0.83924 0.60452 0.0
N468 N 0.63094 0.80087 0.58379 0.0
H469 H 0.66437 0.88012 0.59012 0.0
C470 C 0.66751 0.72979 0.64447 0.0
O471 O 0.67846 0.7423 0.63266 0.0
O472 O 0.68442 0.91379 0.61768 0.0
H473 H 0.65152 0.79526 0.61718 0.0
H474 H 0.66124 0.89982 0.68481 0.0
H475 H 0.62552 0.76044 0.59835 0.0
Zn476 Zn 0.21929 0.67012 0.65003 0.0
C477 C 0.15926 0.60882 0.62636 0.0
N478 N 0.18192 0.58418 0.63009 0.0
C479 C 0.20535 0.60214 0.63742 0.0
N480 N 0.19746 0.63613 0.63817 0.0
N481 N 0.16854 0.64049 0.63101 0.0
C482 C 0.08967 0.70013 0.62873 0.0
O483 O 0.10764 0.70581 0.64001 0.0
O484 O 0.27021 0.66073 0.65296 0.0
Zn485 Zn 0.15722 0.68119 0.62023 0.0
N486 N 0.19669 0.66823 0.66779 0.0
C487 C 0.1472 0.65354 0.68113 0.0
C488 C 0.16376 0.65592 0.66843 0.0
C489 C 0.21374 0.67866 0.67937 0.0
N490 N 0.16416 0.66382 0.69268 0.0
C491 C 0.19705 0.67658 0.69224 0.0
O492 O 0.17823 0.72706 0.62652 0.0
C493 C 0.20106 0.73896 0.63475 0.0
O494 O 0.21693 0.71936 0.64318 0.0
H495 H 0.15051 0.64786 0.65915 0.0
H496 H 0.24011 0.68786 0.67848 0.0
C497 C 0.16444 0.66455 0.59053 0.0
C498 C 0.18556 0.65551 0.57922 0.0
C499 C 0.23553 0.66228 0.59327 0.0
C500 C 0.2147 0.67127 0.60435 0.0
N501 N 0.17973 0.67206 0.60284 0.0
N502 N 0.22054 0.65459 0.58103 0.0
H503 H 0.1365 0.66479 0.58967 0.0
C504 C 0.29139 0.6552 0.64319 0.0
O505 O 0.27955 0.65248 0.63054 0.0
O506 O 0.10525 0.68787 0.61826 0.0
H507 H 0.22619 0.67704 0.61425 0.0
H508 H 0.12105 0.64361 0.68182 0.0
H509 H 0.2634 0.66125 0.59437 0.0
Zn510 Zn 0.33928 0.16118 0.62065 0.0
C511 C 0.41579 0.20041 0.64393 0.0
N512 N 0.43418 0.17511 0.63789 0.0
C513 C 0.40959 0.15716 0.63117 0.0
N514 N 0.37775 0.17083 0.63291 0.0
N515 N 0.38177 0.19821 0.641 0.0
C516 C 0.3571 0.29439 0.64538 0.0
O517 O 0.35027 0.28365 0.63283 0.0
O518 O 0.33076 0.10922 0.61899 0.0
Zn519 Zn 0.34655 0.22211 0.65133 0.0
N520 N 0.35333 0.18224 0.60345 0.0
C521 C 0.37346 0.23541 0.59405 0.0
C522 C 0.36167 0.21617 0.60517 0.0
C523 C 0.35606 0.16652 0.59091 0.0
N524 N 0.3761 0.22002 0.58156 0.0
C525 C 0.36769 0.1861 0.5795 0.0
O526 O 0.29948 0.22223 0.64255 0.0
C527 C 0.281 0.2076 0.63339 0.0
O528 O 0.29329 0.18431 0.62546 0.0
H529 H 0.35934 0.22807 0.6152 0.0
H530 H 0.34971 0.13933 0.58997 0.0
C531 C 0.33525 0.21648 0.68056 0.0
C532 C 0.33372 0.19873 0.69322 0.0
C533 C 0.34745 0.14628 0.6816 0.0
C534 C 0.34874 0.16394 0.66911 0.0
N535 N 0.34279 0.19864 0.66884 0.0
N536 N 0.34008 0.16401 0.69331 0.0
H537 H 0.33118 0.24417 0.67998 0.0
C538 C 0.31751 0.09452 0.62948 0.0
O539 O 0.31164 0.11331 0.64052 0.0
O540 O 0.35875 0.27223 0.65504 0.0
H541 H 0.3547 0.15017 0.65971 0.0
H542 H 0.38037 0.2624 0.5953 0.0
H543 H 0.3523 0.11869 0.682 0.0
H544 H 0.08868 0.332 0.06024 0.0
H545 H 0.09594 0.34199 0.03556 0.0
H546 H 0.20144 0.37429 0.04248 0.0
H547 H 0.19457 0.364 0.06724 0.0
H548 H 0.11917 0.40251 0.01961 0.0
H549 H 0.20634 0.28808 0.01613 0.0
H550 H 0.17859 0.29574 0.03077 0.0
H551 H 0.21783 0.32019 0.02876 0.0
C552 C 0.11331 0.34173 0.05655 0.0
C553 C 0.14107 0.34712 0.06571 0.0
C554 C 0.11735 0.34751 0.04245 0.0
C555 C 0.14931 0.35844 0.0372 0.0
C556 C 0.17662 0.36555 0.04635 0.0
H557 H 0.23667 0.37488 0.95627 0.0
H558 H 0.22402 0.37291 0.98073 0.0
C559 C 0.17255 0.35999 0.06052 0.0
C560 C 0.1546 0.35996 0.02211 0.0
H561 H 0.1974 0.32007 0.99577 0.0
C562 C 0.13626 0.38456 0.01436 0.0
C563 C 0.17662 0.3362 0.01532 0.0
C564 C 0.19583 0.30832 0.02311 0.0
C565 C 0.14016 0.38667 0.99998 0.0
C566 C 0.16237 0.363 0.9932 0.0
C567 C 0.18035 0.33816 1.00098 0.0
C568 C 0.16901 0.36458 0.97815 0.0
C569 C 0.12128 0.41482 0.99225 0.0
C570 C 0.14226 0.36024 0.96847 0.0
C571 C 0.14935 0.36161 0.9543 0.0
C572 C 0.18344 0.36703 0.94959 0.0
C573 C 0.21005 0.37091 0.95941 0.0
C574 C 0.20293 0.36967 0.97346 0.0
H575 H 0.11205 0.43565 0.99924 0.0
H576 H 0.13819 0.42656 0.98426 0.0
H577 H 0.09836 0.40346 0.98702 0.0
H578 H 0.11594 0.35566 0.97185 0.0
H579 H 0.12801 0.35899 0.94715 0.0
H580 H 0.65281 0.19662 0.06604 0.0
H581 H 0.64324 0.20149 0.04116 0.0
H582 H 0.67868 0.09648 0.03561 0.0
H583 H 0.68809 0.09127 0.06041 0.0
H584 H 0.70008 0.19085 0.02172 0.0
H585 H 0.5887 0.10275 0.01183 0.0
H586 H 0.59731 0.12125 0.0286 0.0
H587 H 0.62293 0.0857 0.02242 0.0
C588 C 0.65759 0.17423 0.05959 0.0
C589 C 0.67104 0.14347 0.06521 0.0
C590 C 0.65234 0.17714 0.04536 0.0
C591 C 0.66 0.14924 0.03658 0.0
C592 C 0.67214 0.11813 0.04223 0.0
H593 H 0.66054 0.12846 0.94659 0.0
H594 H 0.66687 0.11686 0.97129 0.0
C595 C 0.67767 0.11529 0.05639 0.0
C596 C 0.65854 0.15363 0.02144 0.0
H597 H 0.61768 0.12537 0.99231 0.0
C598 C 0.68197 0.17666 0.01529 0.0
C599 C 0.63534 0.13457 0.01309 0.0
C600 C 0.60942 0.10981 0.01927 0.0
C601 C 0.68284 0.18122 1.00096 0.0
C602 C 0.65902 0.16286 0.9926 0.0
C603 C 0.63594 0.13936 0.99874 0.0
C604 C 0.65618 0.16958 0.9776 0.0
C605 C 0.70956 0.20537 0.99491 0.0
C606 C 0.64778 0.2029 0.97298 0.0
C607 C 0.64453 0.20971 0.95896 0.0
C608 C 0.64927 0.18329 0.94912 0.0
C609 C 0.65745 0.14968 0.95377 0.0
C610 C 0.66076 0.1429 0.96791 0.0
H611 H 0.73217 0.20851 1.00189 0.0
H612 H 0.71891 0.19583 0.98478 0.0
H613 H 0.69779 0.23132 0.99339 0.0
H614 H 0.64337 0.22371 0.98027 0.0
H615 H 0.63817 0.2359 0.95584 0.0
H616 H 0.86104 0.69971 0.94925 0.0
H617 H 0.87053 0.70473 0.97416 0.0
H618 H 0.83642 0.59923 0.97964 0.0
H619 H 0.82707 0.59391 0.95484 0.0
H620 H 0.81392 0.69345 0.99359 0.0
H621 H 0.92595 0.60648 1.00354 0.0
H622 H 0.91718 0.62479 0.98676 0.0
H623 H 0.89198 0.58891 0.99294 0.0
C624 C 0.85656 0.67727 0.9557 0.0
C625 C 0.84346 0.64634 0.95006 0.0
C626 C 0.86174 0.68025 0.96994 0.0
C627 C 0.85443 0.65225 0.97871 0.0
C628 C 0.84271 0.62097 0.97304 0.0
H629 H 0.85229 0.62939 0.06862 0.0
H630 H 0.84675 0.61849 0.04383 0.0
C631 C 0.83721 0.61807 0.95887 0.0
C632 C 0.85574 0.65662 0.99387 0.0
H633 H 0.89617 0.62815 0.02306 0.0
C634 C 0.83202 0.67934 1.00004 0.0
C635 C 0.87892 0.63763 1.00225 0.0
C636 C 0.90518 0.61322 0.99608 0.0
C637 C 0.83079 0.68359 0.01439 0.0
C638 C 0.85452 0.66525 0.02278 0.0
C639 C 0.87796 0.64213 0.01662 0.0
C640 C 0.85685 0.67155 0.03784 0.0
C641 C 0.80369 0.70732 0.02042 0.0
C642 C 0.86463 0.70485 0.04268 0.0
C643 C 0.86741 0.71126 0.05676 0.0
C644 C 0.86283 0.68446 0.06644 0.0
C645 C 0.85525 0.6509 0.06157 0.0
C646 C 0.8524 0.64451 0.04737 0.0
H647 H 0.78123 0.71038 0.01337 0.0
H648 H 0.79417 0.69748 0.03048 0.0
H649 H 0.81518 0.73337 0.02208 0.0
H650 H 0.86895 0.72596 0.03553 0.0
H651 H 0.87331 0.73745 0.06004 0.0
H652 H 0.31924 0.85995 0.9472 0.0
H653 H 0.31219 0.86935 0.97203 0.0
H654 H 0.42003 0.84532 0.97845 0.0
H655 H 0.42737 0.83612 0.95374 0.0
H656 H 0.32705 0.8148 0.99172 0.0
H657 H 0.40409 0.93376 1.00205 0.0
H658 H 0.38781 0.92301 0.98512 0.0
H659 H 0.42527 0.9012 0.99183 0.0
C660 C 0.34168 0.85771 0.95384 0.0
C661 C 0.37393 0.84747 0.94849 0.0
C662 C 0.33755 0.86283 0.96804 0.0
C663 C 0.36567 0.8583 0.97706 0.0
C664 C 0.39813 0.84947 0.97166 0.0
H665 H 0.38595 0.8579 0.06701 0.0
H666 H 0.39771 0.85315 0.04226 0.0
C667 C 0.40221 0.84405 0.95754 0.0
C668 C 0.36049 0.85943 0.99218 0.0
H669 H 0.38469 0.90207 0.0215 0.0
C670 C 0.33946 0.834 0.99823 0.0
C671 C 0.37726 0.88411 1.00065 0.0
C672 C 0.3997 0.91227 0.99462 0.0
C673 C 0.33482 0.83247 0.01255 0.0
C674 C 0.351 0.85757 0.02104 0.0
C675 C 0.37238 0.8828 0.015 0.0
C676 C 0.34421 0.85932 0.03607 0.0
C677 C 0.31304 0.8036 0.01848 0.0
C678 C 0.31035 0.86459 0.04079 0.0
C679 C 0.3035 0.86694 0.05485 0.0
C680 C 0.33036 0.86439 0.06462 0.0
C681 C 0.36445 0.85924 0.05987 0.0
C682 C 0.3713 0.85686 0.0457 0.0
H683 H 0.31178 0.78101 0.01139 0.0
H684 H 0.32337 0.79477 0.02856 0.0
H685 H 0.28622 0.81311 0.02006 0.0
H686 H 0.28914 0.86732 0.03356 0.0
H687 H 0.27692 0.87094 0.05804 0.0
H688 H 0.10225 0.704 0.45539 0.0
H689 H 0.10345 0.68916 0.47976 0.0
H690 H 0.18412 0.61442 0.47207 0.0
H691 H 0.18417 0.63003 0.44768 0.0
H692 H 0.0951 0.6295 0.4953 0.0
H693 H 0.22929 0.68096 0.49926 0.0
H694 H 0.20285 0.6872 0.48416 0.0
H695 H 0.22397 0.64633 0.48709 0.0
C696 C 0.12013 0.68416 0.4588 0.0
C697 C 0.14335 0.66853 0.4495 0.0
C698 C 0.12058 0.67556 0.47276 0.0
C699 C 0.14429 0.65117 0.47778 0.0
C700 C 0.16601 0.6338 0.46844 0.0
H701 H 0.21058 0.60831 0.56118 0.0
H702 H 0.19644 0.60242 0.5368 0.0
C703 C 0.1657 0.6425 0.45443 0.0
C704 C 0.14798 0.64627 0.49288 0.0
H705 H 0.20458 0.65845 0.51946 0.0
C706 C 0.11909 0.6356 0.5006 0.0
C707 C 0.17917 0.65469 0.49978 0.0
C708 C 0.21052 0.66824 0.4922 0.0
C709 C 0.12068 0.63287 0.51504 0.0
C710 C 0.15184 0.64139 0.5219 0.0
C711 C 0.18076 0.65172 0.51416 0.0
C712 C 0.15541 0.64053 0.53712 0.0
C713 C 0.08916 0.62071 0.52282 0.0
C714 C 0.13629 0.66322 0.54552 0.0
C715 C 0.14426 0.66657 0.55956 0.0
C716 C 0.17172 0.64752 0.56533 0.0
C717 C 0.18943 0.6235 0.55702 0.0
C718 C 0.18135 0.62004 0.54308 0.0
H719 H 0.07054 0.60702 0.51599 0.0
H720 H 0.0966 0.60313 0.53138 0.0
H721 H 0.07577 0.64348 0.52733 0.0
H722 H 0.1166 0.67978 0.54108 0.0
H723 H 0.13049 0.68566 0.56563 0.0
H724 H 0.40916 0.20968 0.55895 0.0
H725 H 0.40808 0.19395 0.5347 0.0
H726 H 0.33243 0.11454 0.54318 0.0
H727 H 0.33205 0.13114 0.56748 0.0
H728 H 0.42089 0.13599 0.51979 0.0
H729 H 0.28246 0.17359 0.51511 0.0
H730 H 0.30773 0.1828 0.5303 0.0
H731 H 0.29051 0.14004 0.52749 0.0
C732 C 0.39232 0.18871 0.55574 0.0
C733 C 0.37042 0.17201 0.56526 0.0
C734 C 0.39193 0.17962 0.54183 0.0
C735 C 0.36967 0.15358 0.53705 0.0
C736 C 0.34929 0.13528 0.5466 0.0
H737 H 0.3156 0.09119 0.45403 0.0
H738 H 0.32777 0.09198 0.47866 0.0
C739 C 0.34947 0.14452 0.56057 0.0
C740 C 0.36654 0.14736 0.52199 0.0
H741 H 0.30936 0.15153 0.49518 0.0
C742 C 0.39648 0.13924 0.51441 0.0
C743 C 0.33474 0.15206 0.51495 0.0
C744 C 0.30208 0.16292 0.52233 0.0
C745 C 0.3954 0.13551 0.5 0.0
C746 C 0.36363 0.14015 0.49303 0.0
C747 C 0.33367 0.14787 0.5006 0.0
C748 C 0.36054 0.13735 0.47785 0.0
C749 C 0.4281 0.12644 0.49232 0.0
C750 C 0.37546 0.16235 0.46917 0.0
C751 C 0.36839 0.16216 0.45499 0.0
C752 C 0.34618 0.13695 0.44931 0.0
C753 C 0.33259 0.11116 0.45803 0.0
C754 C 0.33958 0.11145 0.47213 0.0
H755 H 0.44885 0.11726 0.49936 0.0
H756 H 0.42289 0.10606 0.48451 0.0
H757 H 0.43769 0.14977 0.48683 0.0
H758 H 0.39127 0.18292 0.47344 0.0
H759 H 0.37885 0.18279 0.4487 0.0
H760 H 0.81455 0.42055 0.55812 0.0
H761 H 0.82803 0.41613 0.53373 0.0
H762 H 0.89739 0.33117 0.54207 0.0
H763 H 0.8828 0.3341 0.5665 0.0
H764 H 0.88583 0.421 0.51826 0.0
H765 H 0.83146 0.28797 0.51477 0.0
H766 H 0.82641 0.31461 0.52989 0.0
H767 H 0.86645 0.29204 0.52683 0.0
C768 C 0.83279 0.40088 0.55485 0.0
C769 C 0.84724 0.37749 0.5644 0.0
C770 C 0.84062 0.39857 0.54085 0.0
C771 C 0.86315 0.37288 0.53601 0.0
C772 C 0.87928 0.35073 0.54554 0.0
H773 H 0.91901 0.30879 0.45359 0.0
H774 H 0.91905 0.32238 0.4781 0.0
C775 C 0.87124 0.3528 0.5596 0.0
C776 C 0.86812 0.36845 0.52093 0.0
H777 H 0.85665 0.31084 0.49458 0.0
C778 C 0.87951 0.3969 0.51309 0.0
C779 C 0.85945 0.33711 0.51415 0.0
C780 C 0.84494 0.30629 0.5218 0.0
C781 C 0.88277 0.39469 0.49868 0.0
C782 C 0.87434 0.36331 0.49199 0.0
C783 C 0.8632 0.33484 0.4998 0.0
C784 C 0.8769 0.35906 0.47685 0.0
C785 C 0.89545 0.42572 0.49071 0.0
C786 C 0.85348 0.37568 0.46797 0.0
C787 C 0.85317 0.36781 0.45387 0.0
C788 C 0.8763 0.34309 0.44845 0.0
C789 C 0.90063 0.32773 0.45737 0.0
C790 C 0.90082 0.33551 0.4714 0.0
H791 H 0.90642 0.44601 0.49757 0.0
H792 H 0.9155 0.41782 0.48314 0.0
H793 H 0.8735 0.43715 0.48489 0.0
H794 H 0.83445 0.39357 0.47204 0.0
H795 H 0.83367 0.37974 0.44742 0.0
H796 H 0.71433 0.89632 0.45738 0.0
H797 H 0.69719 0.89896 0.48148 0.0
H798 H 0.60746 0.83623 0.47258 0.0
H799 H 0.62508 0.83232 0.44841 0.0
H800 H 0.63935 0.92055 0.49597 0.0
H801 H 0.65973 0.77839 0.50091 0.0
H802 H 0.67312 0.80236 0.48589 0.0
H803 H 0.62833 0.79102 0.48822 0.0
C804 C 0.69073 0.88327 0.46047 0.0
C805 C 0.67134 0.86379 0.45092 0.0
C806 C 0.68087 0.88502 0.47428 0.0
C807 C 0.65143 0.86728 0.47889 0.0
C808 C 0.63066 0.84962 0.46927 0.0
H809 H 0.59144 0.81666 0.56265 0.0
H810 H 0.58979 0.82908 0.53803 0.0
C811 C 0.64058 0.84776 0.4554 0.0
C812 C 0.64445 0.8652 0.49391 0.0
H813 H 0.64277 0.80835 0.52083 0.0
C814 C 0.6398 0.89601 0.50141 0.0
C815 C 0.64546 0.83318 0.50101 0.0
C816 C 0.65222 0.79935 0.49366 0.0
C817 C 0.63613 0.89563 0.51583 0.0
C818 C 0.63753 0.86365 0.5229 0.0
C819 C 0.64157 0.83285 0.51537 0.0
C820 C 0.63575 0.86113 0.53814 0.0
C821 C 0.63068 0.92937 0.52337 0.0
C822 C 0.66177 0.87567 0.54647 0.0
C823 C 0.6628 0.86863 0.56064 0.0
C824 C 0.63794 0.84667 0.56665 0.0
C825 C 0.61111 0.8335 0.55834 0.0
C826 C 0.61005 0.84062 0.54426 0.0
H827 H 0.62124 0.95007 0.51635 0.0
H828 H 0.61184 0.92615 0.53191 0.0
H829 H 0.65567 0.93802 0.52785 0.0
H830 H 0.6823 0.89099 0.54192 0.0
H831 H 0.68417 0.87872 0.56666 0.0
H832 H 0.32486 0.95054 0.1704 0.0
H833 H 0.28458 0.99713 0.17641 0.0
H834 H 0.21715 0.96536 0.14324 0.0
H835 H 0.25687 0.91833 0.13761 0.0
H836 H 0.2785 0.04616 0.15824 0.0
H837 H 0.14608 1.00036 0.16973 0.0
H838 H 0.18325 0.97201 0.17054 0.0
H839 H 0.16241 0.98078 0.15431 0.0
C840 C 0.30039 0.95235 0.16497 0.0
C841 C 0.29348 0.93051 0.15376 0.0
C842 C 0.27749 0.97911 0.16832 0.0
C843 C 0.24768 0.98488 0.16031 0.0
C844 C 0.23936 0.96109 0.14984 0.0
H845 H 0.17127 0.17352 0.12796 0.0
H846 H 0.18608 0.11326 0.13299 0.0
C847 C 0.26205 0.934 0.14664 0.0
C848 C 0.23001 0.01913 0.16084 0.0
H849 H 0.15078 0.05889 0.16048 0.0
C850 C 0.25061 0.04885 0.15908 0.0
C851 C 0.19357 0.02286 0.16177 0.0
C852 C 0.17012 0.99228 0.16433 0.0
C853 C 0.23585 0.0818 0.15769 0.0
C854 C 0.19948 0.08528 0.15794 0.0
C855 C 0.1787 0.05598 0.16019 0.0
C856 C 0.1833 0.11926 0.1551 0.0
C857 C 0.25918 0.11272 0.15547 0.0
C858 C 0.17583 0.14222 0.16589 0.0
C859 C 0.16741 0.1768 0.16307 0.0
C860 C 0.1666 0.18891 0.14939 0.0
C861 C 0.17188 0.16514 0.1386 0.0
C862 C 0.18018 0.13063 0.14145 0.0
H863 H 0.28697 0.10622 0.15694 0.0
H864 H 0.25561 0.12264 0.14483 0.0
H865 H 0.25216 0.1339 0.16269 0.0
H866 H 0.1784 0.13389 0.1765 0.0
H867 H 0.16344 0.19442 0.17161 0.0
H868 H 0.09992 0.25583 0.1371 0.0
H869 H 0.05278 0.21453 0.14079 0.0
H870 H 0.01284 0.2789 0.1734 0.0
H871 H 0.06021 0.3201 0.16977 0.0
H872 H 0.0092 0.18073 0.16641 0.0
H873 H 0.95258 0.28815 0.13531 0.0
H874 H 0.99868 0.28104 0.13637 0.0
H875 H 0.976 0.29986 0.15065 0.0
C876 C 0.08266 0.25977 0.14574 0.0
C877 C 0.08406 0.29068 0.15336 0.0
C878 C 0.05546 0.23634 0.14775 0.0
C879 C 0.0293 0.24379 0.15733 0.0
C880 C 0.03297 0.27259 0.16604 0.0
H881 H 0.82035 0.16592 0.16828 0.0
H882 H 0.88184 0.1785 0.17188 0.0
C883 C 0.06009 0.29603 0.164 0.0
C884 C 0.99487 0.22742 0.15573 0.0
H885 H 0.91555 0.24268 0.1415 0.0
C886 C 0.98862 0.19414 0.16099 0.0
C887 C 0.96836 0.2449 0.14846 0.0
C888 C 0.97406 0.28038 0.14227 0.0
C889 C 0.95609 0.17804 0.15929 0.0
C890 C 0.92945 0.19588 0.15221 0.0
C891 C 0.93602 0.22901 0.14688 0.0
C892 C 0.8942 0.18138 0.15017 0.0
C893 C 0.9506 0.14201 0.16486 0.0
C894 C 0.8808 0.17825 0.13678 0.0
C895 C 0.84566 0.17145 0.13469 0.0
C896 C 0.82314 0.16773 0.14596 0.0
C897 C 0.83701 0.16864 0.15937 0.0
C898 C 0.87224 0.17561 0.16146 0.0
H899 H 0.97557 0.12874 0.167 0.0
H900 H 0.93586 0.14362 0.17465 0.0
H901 H 0.93534 0.12604 0.15752 0.0
H902 H 0.89728 0.18271 0.12793 0.0
H903 H 0.8359 0.17067 0.12423 0.0
H904 H 0.8442 0.83951 0.12571 0.0
H905 H 0.83054 0.90079 0.12884 0.0
H906 H 0.83076 0.88695 0.17291 0.0
H907 H 0.845 0.82565 0.16988 0.0
H908 H 0.76917 0.91823 0.1411 0.0
H909 H 0.87835 0.98158 0.16857 0.0
H910 H 0.88299 0.94093 0.15949 0.0
H911 H 0.86345 0.94194 0.17627 0.0
C912 C 0.84222 0.84965 0.13608 0.0
C913 C 0.84529 0.82761 0.14754 0.0
C914 C 0.83449 0.88472 0.13786 0.0
C915 C 0.82974 0.89851 0.15111 0.0
C916 C 0.83491 0.87707 0.1626 0.0
H917 H 0.68544 0.06149 0.16869 0.0
H918 H 0.72645 0.01392 0.17234 0.0
C919 C 0.84283 0.84194 0.16084 0.0
C920 C 0.81421 0.93344 0.15272 0.0
H921 H 0.82537 0.01356 0.16722 0.0
C922 C 0.78162 0.93909 0.14674 0.0
C923 C 0.83042 0.9606 0.16013 0.0
C924 C 0.86588 0.95619 0.1664 0.0
C925 C 0.76466 0.97096 0.14802 0.0
C926 C 0.78046 0.9979 0.15564 0.0
C927 C 0.81323 0.99262 0.16153 0.0
C928 C 0.76292 0.03179 0.15702 0.0
C929 C 0.72986 0.97569 0.14114 0.0
C930 C 0.77097 0.05855 0.14779 0.0
C931 C 0.74761 0.08575 0.14573 0.0
C932 C 0.71616 0.08663 0.15298 0.0
C933 C 0.70987 0.06172 0.1632 0.0
C934 C 0.73322 0.03454 0.16526 0.0
H935 H 0.72355 0.95404 0.13401 0.0
H936 H 0.70935 0.97699 0.14913 0.0
H937 H 0.72924 1.00036 0.13526 0.0
H938 H 0.79348 0.05654 0.14117 0.0
H939 H 0.75229 0.10365 0.13735 0.0
H940 H 0.1746 0.84487 0.12479 0.0
H941 H 0.11359 0.83133 0.12863 0.0
H942 H 0.12913 0.83854 0.17251 0.0
H943 H 0.19026 0.85254 0.16878 0.0
H944 H 0.09642 0.77165 0.1429 0.0
H945 H 0.03447 0.88655 0.16701 0.0
H946 H 0.07452 0.88923 0.15743 0.0
H947 H 0.07454 0.87293 0.17475 0.0
C948 C 0.16493 0.84441 0.13526 0.0
C949 C 0.18742 0.84942 0.14648 0.0
C950 C 0.12999 0.83672 0.13743 0.0
C951 C 0.11674 0.83403 0.15085 0.0
C952 C 0.13862 0.84103 0.16207 0.0
H953 H 0.95037 0.69482 0.17099 0.0
H954 H 0.99849 0.73538 0.17434 0.0
C955 C 0.17365 0.84884 0.1599 0.0
C956 C 0.08173 0.81905 0.15303 0.0
H957 H 1.00149 0.83424 0.16674 0.0
C958 C 0.07568 0.78543 0.14808 0.0
C959 C 0.05471 0.83704 0.15981 0.0
C960 C 0.05963 0.87356 0.16498 0.0
C961 C 0.0435 0.76922 0.14973 0.0
C962 C 0.0166 0.7869 0.15668 0.0
C963 C 0.02236 0.82066 0.16158 0.0
C964 C 0.98217 0.77042 0.15823 0.0
C965 C 0.03834 0.73328 0.14389 0.0
C966 C 0.95593 0.77799 0.1487 0.0
C967 C 0.92832 0.75493 0.14685 0.0
C968 C 0.92651 0.72426 0.15459 0.0
C969 C 0.95075 0.71873 0.16514 0.0
C970 C 0.97832 0.74179 0.16701 0.0
H971 H 0.05997 0.72537 0.13703 0.0
H972 H 0.03665 0.71433 0.15246 0.0
H973 H 0.01376 0.73187 0.13796 0.0
H974 H 0.95872 0.79966 0.14169 0.0
H975 H 0.91099 0.75895 0.13822 0.0
H976 H 0.32887 0.06391 0.34447 0.0
H977 H 0.28795 0.01743 0.33896 0.0
H978 H 0.22242 0.05049 0.37248 0.0
H979 H 0.26272 0.09741 0.37762 0.0
H980 H 0.28283 0.96918 0.35742 0.0
H981 H 0.14986 0.01452 0.34678 0.0
H982 H 0.187 0.04285 0.3455 0.0
H983 H 0.16699 0.03478 0.36195 0.0
C984 C 0.30469 0.06236 0.3501 0.0
C985 C 0.29849 0.0845 0.36128 0.0
C986 C 0.28141 0.03571 0.34702 0.0
C987 C 0.25197 0.03034 0.35528 0.0
C988 C 0.24433 0.05445 0.3657 0.0
H989 H 0.18379 0.84069 0.38931 0.0
H990 H 0.19833 0.9009 0.3841 0.0
C991 C 0.26737 0.08144 0.36863 0.0
C992 C 0.23421 0.99612 0.3551 0.0
H993 H 0.15497 0.9565 0.35659 0.0
C994 C 0.25489 0.9665 0.35689 0.0
C995 C 0.19772 0.99239 0.35454 0.0
C996 C 0.17418 0.02286 0.35195 0.0
C997 C 0.24019 0.93366 0.3587 0.0
C998 C 0.20379 0.93024 0.35893 0.0
C999 C 0.18291 0.9594 0.35656 0.0
C1000 C 0.18776 0.8965 0.3623 0.0
C1001 C 0.26371 0.90285 0.3608 0.0
C1002 C 0.17581 0.87455 0.35181 0.0
C1003 C 0.16751 0.83999 0.35474 0.0
C1004 C 0.17126 0.82694 0.3682 0.0
C1005 C 0.1809 0.8498 0.37882 0.0
C1006 C 0.18908 0.88426 0.37588 0.0
H1007 H 0.29096 0.90873 0.35797 0.0
H1008 H 0.26312 0.89509 0.37181 0.0
H1009 H 0.25467 0.88043 0.35459 0.0
H1010 H 0.17483 0.88357 0.34125 0.0
H1011 H 0.16005 0.82308 0.34634 0.0
H1012 H 0.19673 0.15996 0.34502 0.0
H1013 H 0.13611 0.17435 0.34015 0.0
H1014 H 0.11626 0.18454 0.38362 0.0
H1015 H 0.17664 0.17031 0.38864 0.0
H1016 H 0.06108 0.14811 0.35676 0.0
H1017 H 0.10982 0.28414 0.35857 0.0
H1018 H 0.13693 0.24869 0.35301 0.0
H1019 H 0.12641 0.25339 0.37088 0.0
C1020 C 0.17927 0.16433 0.35357 0.0
C1021 C 0.19165 0.16448 0.36722 0.0
C1022 C 0.14463 0.17241 0.35075 0.0
C1023 C 0.12187 0.18047 0.36153 0.0
C1024 C 0.13348 0.17817 0.37518 0.0
H1025 H 0.9222 0.25717 0.37883 0.0
H1026 H 0.96881 0.21667 0.37351 0.0
C1027 C 0.16805 0.1702 0.37802 0.0
C1028 C 0.088 0.19675 0.35862 0.0
H1029 H 0.04974 0.27616 0.35749 0.0
C1030 C 0.05846 0.17609 0.35672 0.0
C1031 C 0.08491 0.23318 0.35844 0.0
C1032 C 0.11611 0.25637 0.36027 0.0
C1033 C 0.02548 0.19118 0.35508 0.0
C1034 C 0.02217 0.22774 0.35558 0.0
C1035 C 0.05211 0.24818 0.35698 0.0
C1036 C 0.98815 0.24581 0.35605 0.0
C1037 C 0.99461 0.16785 0.3529 0.0
C1038 C 0.98249 0.27514 0.34775 0.0
C1039 C 0.95603 0.29852 0.35093 0.0
C1040 C 0.93437 0.29252 0.36226 0.0
C1041 C 0.9378 0.26161 0.36973 0.0
C1042 C 0.96459 0.23846 0.36669 0.0
H1043 H 1.0023 0.14335 0.34771 0.0
H1044 H 0.98338 0.16093 0.36305 0.0
H1045 H 0.97427 0.18074 0.34664 0.0
H1046 H 1.00035 0.28148 0.33953 0.0
H1047 H 0.95424 0.32259 0.34523 0.0
H1048 H 0.75362 0.95018 0.39372 0.0
H1049 H 0.79589 0.99221 0.38555 0.0
H1050 H 0.77295 0.9637 0.34352 0.0
H1051 H 0.72964 0.92158 0.35184 0.0
H1052 H 0.85384 0.99622 0.36901 0.0
H1053 H 0.7409 0.06403 0.34531 0.0
H1054 H 0.73524 0.02711 0.35644 0.0
H1055 H 0.75098 0.02126 0.33919 0.0
C1056 C 0.75837 0.95215 0.38274 0.0
C1057 C 0.73846 0.93293 0.37339 0.0
C1058 C 0.78259 0.97612 0.37807 0.0
C1059 C 0.78712 0.98169 0.36392 0.0
C1060 C 0.76942 0.96025 0.3545 0.0
H1061 H 0.85756 0.19232 0.34423 0.0
H1062 H 0.8494 0.13035 0.3397 0.0
C1063 C 0.745 0.93601 0.35922 0.0
C1064 C 0.80631 0.01322 0.35954 0.0
H1065 H 0.79102 0.09615 0.34887 0.0
C1066 C 0.84044 0.01783 0.36426 0.0
C1067 C 0.78887 0.04149 0.35332 0.0
C1068 C 0.75194 0.03854 0.34831 0.0
C1069 C 0.85655 0.0505 0.36387 0.0
C1070 C 0.83797 0.07928 0.35873 0.0
C1071 C 0.80515 0.07404 0.35287 0.0
C1072 C 0.84941 0.11552 0.36118 0.0
C1073 C 0.89272 0.05421 0.36954 0.0
C1074 C 0.85264 0.12771 0.37475 0.0
C1075 C 0.857 0.16306 0.37738 0.0
C1076 C 0.85815 0.18699 0.36649 0.0
C1077 C 0.85681 0.17455 0.35286 0.0
C1078 C 0.85217 0.13914 0.35024 0.0
H1079 H 0.90745 0.02962 0.3685 0.0
H1080 H 0.90715 0.07523 0.36423 0.0
H1081 H 0.89125 0.06061 0.38067 0.0
H1082 H 0.84984 0.11014 0.38337 0.0
H1083 H 0.85801 0.17174 0.38798 0.0
H1084 H 0.10647 0.76077 0.38111 0.0
H1085 H 0.06338 0.80671 0.37819 0.0
H1086 H 0.00979 0.74417 0.34816 0.0
H1087 H 0.05338 0.69852 0.35087 0.0
H1088 H 1.00847 0.82543 0.34493 0.0
H1089 H 0.96826 0.76896 0.39533 0.0
H1090 H 0.01252 0.78283 0.39347 0.0
H1091 H 0.99707 0.74637 0.38378 0.0
C1092 C 0.0869 0.75791 0.3732 0.0
C1093 C 0.08373 0.72664 0.36591 0.0
C1094 C 0.062 0.78394 0.37168 0.0
C1095 C 0.03339 0.77873 0.36299 0.0
C1096 C 0.03187 0.7488 0.3548 0.0
H1097 H 0.82532 0.83982 0.34925 0.0
H1098 H 0.88674 0.82706 0.34666 0.0
C1099 C 0.05677 0.72278 0.35633 0.0
C1100 C 1.00195 0.8003 0.36454 0.0
H1101 H 0.93163 0.8099 0.38541 0.0
C1102 C 0.9918 0.82252 0.35385 0.0
C1103 C 0.98037 0.79639 0.37619 0.0
C1104 C 0.9898 0.77226 0.38786 0.0
C1105 C 0.96017 0.8406 0.35443 0.0
C1106 C 0.93781 0.83544 0.36583 0.0
C1107 C 0.94871 0.81406 0.3767 0.0
C1108 C 0.90178 0.84906 0.36631 0.0
C1109 C 0.95109 0.86494 0.34284 0.0
C1110 C 0.88948 0.86578 0.37821 0.0
C1111 C 0.85409 0.87238 0.37986 0.0
C1112 C 0.83035 0.86257 0.3696 0.0
C1113 C 0.84294 0.84785 0.35733 0.0
C1114 C 0.87823 0.84081 0.35577 0.0
H1115 H 0.9748 0.87599 0.33807 0.0
H1116 H 0.937 0.85036 0.33472 0.0
H1117 H 0.9344 0.88656 0.34644 0.0
H1118 H 0.90709 0.87232 0.38651 0.0
H1119 H 0.84522 0.88398 0.38939 0.0
H1120 H 0.84265 0.79015 0.89883 0.0
H1121 H 0.82343 0.85043 0.90113 0.0
H1122 H 0.73499 0.82843 0.87539 0.0
H1123 H 0.75453 0.7688 0.87269 0.0
H1124 H 0.76448 0.88584 0.86735 0.0
H1125 H 0.74792 0.89285 0.92392 0.0
H1126 H 0.79079 0.87994 0.919 0.0
H1127 H 0.75451 0.85238 0.91498 0.0
C1128 C 0.81899 0.79812 0.89374 0.0
C1129 C 0.80024 0.77458 0.88554 0.0
C1130 C 0.80785 0.83258 0.89515 0.0
C1131 C 0.77738 0.84401 0.88862 0.0
C1132 C 0.75852 0.82037 0.88056 0.0
H1133 H 0.67341 0.04407 0.90201 0.0
H1134 H 0.68902 0.98228 0.90216 0.0
C1135 C 0.76981 0.78618 0.87901 0.0
C1136 C 0.76598 0.88093 0.88944 0.0
H1137 H 0.74595 0.94663 0.91175 0.0
C1138 C 0.76027 0.89898 0.87708 0.0
C1139 C 0.75986 0.89813 0.90211 0.0
C1140 C 0.76323 0.87974 0.91575 0.0
C1141 C 0.74929 0.93368 0.87701 0.0
C1142 C 0.74482 0.9514 0.88967 0.0
C1143 C 0.74975 0.93323 0.90205 0.0
C1144 C 0.73581 0.98895 0.89016 0.0
C1145 C 0.74205 0.9508 0.86333 0.0
C1146 C 0.75723 0.01335 0.88366 0.0
C1147 C 0.74824 0.0484 0.88346 0.0
C1148 C 0.71786 0.06011 0.88996 0.0
C1149 C 0.69695 0.03588 0.8969 0.0
C1150 C 0.70586 1.00059 0.89699 0.0
H1151 H 0.73606 0.93137 0.85522 0.0
H1152 H 0.72002 0.96919 0.86408 0.0
H1153 H 0.76536 0.9654 0.86 0.0
H1154 H 0.78094 1.00524 0.87865 0.0
H1155 H 0.76521 0.06636 0.87817 0.0
H1156 H 0.976 0.69851 0.86711 0.0
H1157 H 0.03569 0.71895 0.86859 0.0
H1158 H 0.02419 0.73376 0.91238 0.0
H1159 H 0.96438 0.71251 0.91102 0.0
H1160 H 0.05764 0.78253 0.8766 0.0
H1161 H 0.11559 0.68225 0.91058 0.0
H1162 H 0.07384 0.67675 0.90249 0.0
H1163 H 0.07813 0.70349 0.91756 0.0
C1164 C 0.9862 0.70577 0.8771 0.0
C1165 C 0.96534 0.7039 0.88895 0.0
C1166 C 0.02039 0.71751 0.87792 0.0
C1167 C 0.03465 0.72769 0.8906 0.0
C1168 C 0.01407 0.72544 0.90251 0.0
H1169 H 0.23992 0.82297 0.90493 0.0
H1170 H 0.17956 0.80424 0.90813 0.0
C1171 C 0.9798 0.71343 0.90171 0.0
C1172 C 0.07044 0.74217 0.89106 0.0
H1173 H 0.15164 0.72932 0.90428 0.0
C1174 C 0.07811 0.77091 0.88271 0.0
C1175 C 0.09723 0.72716 0.89906 0.0
C1176 C 0.091 0.69553 0.90785 0.0
C1177 C 0.11176 0.78464 0.88196 0.0
C1178 C 0.1386 0.76922 0.88972 0.0
C1179 C 0.13091 0.74115 0.89839 0.0
C1180 C 0.17521 0.78028 0.88806 0.0
C1181 C 0.11856 0.81535 0.87274 0.0
C1182 C 0.19274 0.77277 0.87578 0.0
C1183 C 0.22709 0.78319 0.87395 0.0
C1184 C 0.24477 0.80156 0.88435 0.0
C1185 C 0.22711 0.80903 0.89669 0.0
C1186 C 0.19267 0.79826 0.89856 0.0
H1187 H 0.09421 0.82868 0.86972 0.0
H1188 H 0.13587 0.8343 0.87793 0.0
H1189 H 0.13172 0.80637 0.86322 0.0
H1190 H 0.1798 0.75872 0.86759 0.0
H1191 H 0.23971 0.77692 0.86431 0.0
H1192 H 0.17261 0.22813 0.89741 0.0
H1193 H 0.19143 0.16766 0.89944 0.0
H1194 H 0.27886 0.18924 0.87316 0.0
H1195 H 0.25974 0.24907 0.87074 0.0
H1196 H 0.24858 0.13172 0.86535 0.0
H1197 H 0.2682 0.12574 0.92183 0.0
H1198 H 0.22515 0.13869 0.91715 0.0
H1199 H 0.26131 0.16606 0.91282 0.0
C1200 C 0.19592 0.22 0.89212 0.0
C1201 C 0.21456 0.24351 0.88389 0.0
C1202 C 0.20684 0.18545 0.89338 0.0
C1203 C 0.23695 0.17389 0.88664 0.0
C1204 C 0.25561 0.19743 0.87849 0.0
H1205 H 0.3432 0.9756 0.9 0.0
H1206 H 0.32674 0.03712 0.8999 0.0
C1207 C 0.24455 0.23172 0.87711 0.0
C1208 C 0.24834 0.137 0.88744 0.0
H1209 H 0.27007 0.0719 0.90974 0.0
C1210 C 0.25341 0.11876 0.87508 0.0
C1211 C 0.25526 0.12009 0.9001 0.0
C1212 C 0.25256 0.13873 0.91372 0.0
C1213 C 0.26463 0.08415 0.875 0.0
C1214 C 0.27 0.06673 0.88766 0.0
C1215 C 0.26559 0.08509 0.90004 0.0
C1216 C 0.27961 0.02936 0.88819 0.0
C1217 C 0.27123 0.06682 0.86131 0.0
C1218 C 0.25831 1.00445 0.88191 0.0
C1219 C 0.2678 0.96952 0.88184 0.0
C1220 C 0.29854 0.95849 0.88826 0.0
C1221 C 0.31938 0.98326 0.89495 0.0
C1222 C 0.30998 0.0184 0.89491 0.0
H1223 H 0.27653 0.08615 0.85309 0.0
H1224 H 0.2935 0.04869 0.86191 0.0
H1225 H 0.24789 0.05191 0.85822 0.0
H1226 H 0.23429 0.01204 0.877 0.0
H1227 H 0.25089 0.95112 0.87675 0.0
H1228 H 0.05339 0.30593 0.91091 0.0
H1229 H 0.99385 0.28363 0.91216 0.0
H1230 H 0.98162 0.30057 0.86854 0.0
H1231 H 0.04091 0.3221 0.86715 0.0
H1232 H 0.92984 0.31175 0.90555 0.0
H1233 H 0.95705 0.19878 0.87212 0.0
H1234 H 0.99103 0.22522 0.87939 0.0
H1235 H 0.9686 0.23898 0.86408 0.0
C1236 C 0.03792 0.30503 0.9016 0.0
C1237 C 0.05208 0.31533 0.88889 0.0
C1238 C 1.00392 0.29225 0.90233 0.0
C1239 C 0.98355 0.28956 0.89037 0.0
C1240 C 0.99715 0.3014 0.87783 0.0
H1241 H 0.778 0.24223 0.86477 0.0
H1242 H 0.83783 0.26069 0.86819 0.0
C1243 C 0.03105 0.31391 0.87707 0.0
C1244 C 0.94817 0.27421 0.89085 0.0
H1245 H 0.8972 0.21243 0.87574 0.0
C1246 C 0.9228 0.28972 0.89919 0.0
C1247 C 0.93902 0.24523 0.88264 0.0
C1248 C 0.96545 0.22585 0.87417 0.0
C1249 C 0.88823 0.27807 0.89901 0.0
C1250 C 0.87889 0.25018 0.89031 0.0
C1251 C 0.90443 0.23395 0.88233 0.0
C1252 C 0.84237 0.23893 0.88861 0.0
C1253 C 0.86152 0.29644 0.90767 0.0
C1254 C 0.82513 0.22023 0.89895 0.0
C1255 C 0.79079 0.2093 0.897 0.0
C1256 C 0.77308 0.21708 0.8847 0.0
C1257 C 0.79065 0.2358 0.87439 0.0
C1258 C 0.82492 0.24641 0.87631 0.0
H1259 H 0.8723 0.31965 0.91292 0.0
H1260 H 0.8393 0.30452 0.90115 0.0
H1261 H 0.85145 0.27838 0.91561 0.0
H1262 H 0.83831 0.21393 0.90848 0.0
H1263 H 0.77809 0.19498 0.90515 0.0
H1264 H 0.77372 0.24598 0.64907 0.0
H1265 H 0.7527 0.18696 0.64604 0.0
H1266 H 0.80219 0.18178 0.60629 0.0
H1267 H 0.8242 0.24093 0.60939 0.0
H1268 H 0.70945 0.16095 0.62681 0.0
H1269 H 0.83612 0.09308 0.6238 0.0
H1270 H 0.83237 0.13755 0.62936 0.0
H1271 H 0.83043 0.12696 0.61133 0.0
C1272 C 0.78043 0.23234 0.63969 0.0
C1273 C 0.80085 0.24832 0.62949 0.0
C1274 C 0.76827 0.1985 0.63797 0.0
C1275 C 0.77611 0.17964 0.62601 0.0
C1276 C 0.79638 0.19546 0.61575 0.0
H1277 H 0.71214 0.96665 0.60497 0.0
H1278 H 0.73203 0.02695 0.60308 0.0
C1279 C 0.80882 0.22938 0.6175 0.0
C1280 C 0.76219 0.14381 0.62433 0.0
H1281 H 0.78594 0.05888 0.62067 0.0
C1282 C 0.72623 0.13869 0.62541 0.0
C1283 C 0.78399 0.11465 0.62247 0.0
C1284 C 0.82289 0.11814 0.62179 0.0
C1285 C 0.71159 0.10534 0.6249 0.0
C1286 C 0.73344 0.07623 0.62333 0.0
C1287 C 0.76925 0.08129 0.62183 0.0
C1288 C 0.71985 0.04024 0.62417 0.0
C1289 C 0.67282 0.10143 0.62611 0.0
C1290 C 0.70639 0.02775 0.63664 0.0
C1291 C 0.69528 0.99337 0.63778 0.0
C1292 C 0.69727 0.9707 0.62645 0.0
C1293 C 0.71012 0.98346 0.61387 0.0
C1294 C 0.7216 0.01785 0.61278 0.0
H1295 H 0.65914 0.12613 0.6239 0.0
H1296 H 0.6631 0.08113 0.61897 0.0
H1297 H 0.66624 0.09343 0.63677 0.0
H1298 H 0.70517 0.04445 0.6456 0.0
H1299 H 0.68548 0.98445 0.64761 0.0
H1300 H 0.04384 0.69236 0.6072 0.0
H1301 H 0.98362 0.71269 0.60606 0.0
H1302 H 0.99143 0.75066 0.64771 0.0
H1303 H 0.05131 0.73079 0.64892 0.0
H1304 H 0.92566 0.69643 0.62271 0.0
H1305 H 0.95839 0.83604 0.6261 0.0
H1306 H 0.99022 0.80325 0.62214 0.0
H1307 H 0.97712 0.81059 0.63967 0.0
C1308 C 0.0327 0.705 0.61611 0.0
C1309 C 0.05256 0.71023 0.6281 0.0
C1310 C 0.99829 0.7166 0.61545 0.0
C1311 C 0.98326 0.73386 0.6267 0.0
C1312 C 1.00271 0.73815 0.63879 0.0
H1313 H 0.7713 0.77071 0.64918 0.0
H1314 H 0.83066 0.75063 0.64625 0.0
C1315 C 0.03695 0.72653 0.63949 0.0
C1316 C 0.94717 0.74726 0.62597 0.0
H1317 H 0.89907 0.82102 0.62975 0.0
C1318 C 0.91984 0.7237 0.62412 0.0
C1319 C 0.93958 0.78293 0.62759 0.0
C1320 C 0.96787 0.80975 0.62885 0.0
C1321 C 0.88511 0.73468 0.62441 0.0
C1322 C 0.87748 0.77009 0.62679 0.0
C1323 C 0.90486 0.79384 0.62807 0.0
C1324 C 0.84133 0.78278 0.62851 0.0
C1325 C 0.85688 0.70821 0.62216 0.0
C1326 C 0.8278 0.8085 0.61979 0.0
C1327 C 0.79372 0.82036 0.62149 0.0
C1328 C 0.77259 0.8069 0.63203 0.0
C1329 C 0.78661 0.78163 0.6409 0.0
C1330 C 0.82055 0.76983 0.63918 0.0
H1331 H 0.86666 0.68516 0.61651 0.0
H1332 H 0.84706 0.6993 0.6323 0.0
H1333 H 0.83487 0.71946 0.61631 0.0
H1334 H 0.84348 0.81912 0.61156 0.0
H1335 H 0.78387 0.83984 0.61449 0.0
H1336 H 0.3234 0.04758 0.6082 0.0
H1337 H 0.30282 0.98732 0.60775 0.0
H1338 H 0.2676 0.99737 0.64969 0.0
H1339 H 0.28764 0.05731 0.6502 0.0
H1340 H 0.32018 0.93039 0.62434 0.0
H1341 H 0.18099 0.9625 0.62969 0.0
H1342 H 0.21322 0.99448 0.62521 0.0
H1343 H 0.20751 0.98157 0.64287 0.0
C1344 C 0.31128 0.03694 0.61732 0.0
C1345 C 0.30691 0.05745 0.62919 0.0
C1346 C 0.29953 1.00249 0.61705 0.0
C1347 C 0.283 0.98802 0.6286 0.0
C1348 C 0.27949 1.00817 0.64055 0.0
H1349 H 0.24884 0.7735 0.65053 0.0
H1350 H 0.26825 0.83345 0.64828 0.0
C1351 C 0.29121 0.04246 0.64084 0.0
C1352 C 0.26969 0.95177 0.62831 0.0
H1353 H 0.19654 0.9033 0.63326 0.0
C1354 C 0.29311 0.92447 0.62619 0.0
C1355 C 0.23425 0.944 0.63051 0.0
C1356 C 0.20744 0.97218 0.63206 0.0
C1357 C 0.28228 0.88965 0.62668 0.0
C1358 C 0.24716 0.88186 0.62958 0.0
C1359 C 0.22353 0.9092 0.63122 0.0
C1360 C 0.23454 0.84555 0.63114 0.0
C1361 C 0.30856 0.86152 0.624 0.0
C1362 C 0.20813 0.83263 0.6226 0.0
C1363 C 0.19668 0.79828 0.62392 0.0
C1364 C 0.21128 0.77617 0.6339 0.0
C1365 C 0.23709 0.78958 0.64268 0.0
C1366 C 0.24847 0.82386 0.64134 0.0
H1367 H 0.33118 0.8715 0.61815 0.0
H1368 H 0.31818 0.85136 0.63398 0.0
H1369 H 0.29687 0.83968 0.61816 0.0
H1370 H 0.19675 0.84896 0.61473 0.0
H1371 H 0.17676 0.78896 0.61699 0.0
H1372 H 0.97732 0.34753 0.61354 0.0
H1373 H 0.03869 0.33082 0.61381 0.0
H1374 H 0.01306 0.23917 0.63714 0.0
H1375 H 0.95232 0.2562 0.63727 0.0
H1376 H 0.06687 0.27065 0.64811 0.0
H1377 H 0.08891 0.25784 0.5919 0.0
H1378 H 0.07333 0.29978 0.59695 0.0
H1379 H 0.04618 0.2623 0.59921 0.0
C1380 C 0.98482 0.32369 0.61862 0.0
C1381 C 0.95995 0.30315 0.62536 0.0
C1382 C 0.01988 0.31404 0.6187 0.0
C1383 C 0.03054 0.28339 0.62532 0.0
C1384 C 1.00558 0.26288 0.63195 0.0
H1385 H 0.22891 0.1763 0.61852 0.0
H1386 H 0.1684 0.19494 0.61647 0.0
C1387 C 0.97079 0.27268 0.63202 0.0
C1388 C 0.06771 0.27308 0.62595 0.0
H1389 H 0.13856 0.25354 0.6063 0.0
C1390 C 0.08249 0.26688 0.63895 0.0
C1391 C 0.08806 0.26764 0.61401 0.0
C1392 C 0.07328 0.27189 0.59972 0.0
C1393 C 0.11685 0.25551 0.64036 0.0
C1394 C 0.13756 0.25118 0.62845 0.0
C1395 C 0.1228 0.25715 0.61543 0.0
C1396 C 0.17452 0.24035 0.62935 0.0
C1397 C 0.13025 0.24737 0.65461 0.0
C1398 C 0.19827 0.25994 0.63706 0.0
C1399 C 0.23266 0.24916 0.63838 0.0
C1400 C 0.24436 0.21879 0.63182 0.0
C1401 C 0.22078 0.19971 0.62376 0.0
C1402 C 0.18619 0.21038 0.62255 0.0
H1403 H 0.10876 0.24189 0.6619 0.0
H1404 H 0.14794 0.2247 0.65446 0.0
H1405 H 0.14476 0.27007 0.65861 0.0
H1406 H 0.1902 0.28366 0.64209 0.0
H1407 H 0.25015 0.26485 0.6445 0.0
H1408 H 0.65878 0.69586 0.66905 0.0
H1409 H 0.67335 0.63528 0.67403 0.0
H1410 H 0.69549 0.61807 0.63107 0.0
H1411 H 0.68115 0.67837 0.62597 0.0
H1412 H 0.65286 0.56225 0.65848 0.0
H1413 H 0.78883 0.61032 0.65712 0.0
H1414 H 0.75257 0.63846 0.66071 0.0
H1415 H 0.76072 0.62431 0.64341 0.0
C1416 C 0.66587 0.67895 0.6606 0.0
C1417 C 0.66933 0.69206 0.64714 0.0
C1418 C 0.67405 0.64435 0.66347 0.0
C1419 C 0.68557 0.62241 0.65292 0.0
C1420 C 0.68656 0.6347 0.63934 0.0
H1421 H 0.76021 0.42276 0.63631 0.0
H1422 H 0.71994 0.46926 0.64198 0.0
C1423 C 0.6785 0.66921 0.63646 0.0
C1424 C 0.70165 0.58866 0.6562 0.0
H1425 H 0.78072 0.54985 0.65748 0.0
C1426 C 0.6808 0.55941 0.65847 0.0
C1427 C 0.73804 0.58532 0.65639 0.0
C1428 C 0.76152 0.61623 0.65438 0.0
C1429 C 0.69565 0.5264 0.66034 0.0
C1430 C 0.73213 0.52276 0.65972 0.0
C1431 C 0.75278 0.55247 0.65805 0.0
C1432 C 0.74987 0.48858 0.65925 0.0
C1433 C 0.67215 0.49582 0.66282 0.0
C1434 C 0.77952 0.48288 0.66737 0.0
C1435 C 0.80277 0.45647 0.66399 0.0
C1436 C 0.7963 0.4349 0.65266 0.0
C1437 C 0.76502 0.43826 0.64543 0.0
C1438 C 0.742 0.465 0.64866 0.0
H1439 H 0.64797 0.50395 0.66811 0.0
H1440 H 0.6647 0.48429 0.65277 0.0
H1441 H 0.68511 0.47558 0.66911 0.0
H1442 H 0.78624 0.50078 0.67555 0.0
H1443 H 0.82711 0.45471 0.66951 0.0
H1444 H 0.34413 0.64037 0.62533 0.0
H1445 H 0.40561 0.65377 0.62832 0.0
H1446 H 0.38517 0.6905 0.66949 0.0
H1447 H 0.32408 0.67616 0.66675 0.0
H1448 H 0.4276 0.71752 0.63145 0.0
H1449 H 0.47533 0.64214 0.67593 0.0
H1450 H 0.43511 0.63196 0.66731 0.0
H1451 H 0.43671 0.66557 0.68019 0.0
C1452 C 0.35289 0.65044 0.63515 0.0
C1453 C 0.32915 0.65749 0.64575 0.0
C1454 C 0.38807 0.65805 0.63685 0.0
C1455 C 0.4002 0.67292 0.64917 0.0
C1456 C 0.37677 0.67827 0.66002 0.0
H1457 H 0.553 0.82387 0.66586 0.0
H1458 H 0.50831 0.77911 0.66831 0.0
C1459 C 0.34167 0.67032 0.65838 0.0
C1460 C 0.43578 0.68762 0.64991 0.0
H1461 H 0.50801 0.69397 0.67023 0.0
C1462 C 0.44542 0.71174 0.63979 0.0
C1463 C 0.45905 0.68033 0.66083 0.0
C1464 C 0.45114 0.6533 0.67159 0.0
C1465 C 0.47688 0.72973 0.64056 0.0
C1466 C 0.49949 0.72342 0.65174 0.0
C1467 C 0.49051 0.69871 0.6617 0.0
C1468 C 0.5313 0.74438 0.65342 0.0
C1469 C 0.48526 0.75642 0.62968 0.0
C1470 C 0.55979 0.73878 0.64474 0.0
C1471 C 0.58533 0.76426 0.64338 0.0
C1472 C 0.58283 0.79545 0.65076 0.0
C1473 C 0.55585 0.79968 0.6603 0.0
C1474 C 0.53034 0.77419 0.66169 0.0
H1475 H 0.46357 0.76031 0.62232 0.0
H1476 H 0.4915 0.78168 0.63459 0.0
H1477 H 0.50842 0.74801 0.6238 0.0
H1478 H 0.56064 0.71616 0.63813 0.0
H1479 H 0.6049 0.7611 0.63549 0.0
H1480 H 0.25216 0.56902 0.62212 0.0
H1481 H 0.29483 0.52712 0.63007 0.0
H1482 H 0.272 0.55422 0.67224 0.0
H1483 H 0.22836 0.59625 0.66413 0.0
H1484 H 0.35296 0.52287 0.64672 0.0
H1485 H 0.23997 0.45377 0.66978 0.0
H1486 H 0.23433 0.49101 0.65882 0.0
H1487 H 0.24981 0.4964 0.67614 0.0
C1488 C 0.25706 0.56681 0.63308 0.0
C1489 C 0.23707 0.58556 0.64254 0.0
C1490 C 0.28149 0.54291 0.63763 0.0
C1491 C 0.28613 0.53694 0.65175 0.0
C1492 C 0.26839 0.55799 0.66128 0.0
H1493 H 0.35635 0.326 0.6707 0.0
H1494 H 0.34797 0.3878 0.67547 0.0
C1495 C 0.24378 0.58217 0.65668 0.0
C1496 C 0.30538 0.50534 0.65598 0.0
H1497 H 0.29028 0.42203 0.66623 0.0
C1498 C 0.33959 0.50104 0.65134 0.0
C1499 C 0.28797 0.47679 0.66201 0.0
C1500 C 0.25096 0.4794 0.66693 0.0
C1501 C 0.35585 0.46847 0.65164 0.0
C1502 C 0.33732 0.43943 0.6566 0.0
C1503 C 0.30438 0.44433 0.66237 0.0
C1504 C 0.349 0.40331 0.65406 0.0
C1505 C 0.39218 0.46516 0.64611 0.0
C1506 C 0.35292 0.39153 0.64047 0.0
C1507 C 0.35746 0.35628 0.6377 0.0
C1508 C 0.35804 0.33201 0.64848 0.0
C1509 C 0.35602 0.34402 0.66215 0.0
C1510 C 0.35125 0.37934 0.66491 0.0
H1511 H 0.40679 0.48976 0.6474 0.0
H1512 H 0.40655 0.44396 0.65132 0.0
H1513 H 0.39099 0.4593 0.63492 0.0
H1514 H 0.35051 0.40935 0.6319 0.0
H1515 H 0.359 0.34793 0.62707 0.0
H1516 H 0.45043 0.20031 0.66817 0.0
H1517 H 0.4962 0.24133 0.67454 0.0
H1518 H 0.46941 0.30497 0.63957 0.0
H1519 H 0.42311 0.26462 0.63359 0.0
H1520 H 0.54779 0.2456 0.65769 0.0
H1521 H 0.50051 0.37915 0.66532 0.0
H1522 H 0.47196 0.34208 0.6661 0.0
H1523 H 0.48317 0.36116 0.64976 0.0
C1524 C 0.45312 0.22416 0.66238 0.0
C1525 C 0.43295 0.22987 0.6506 0.0
C1526 C 0.4794 0.24747 0.66594 0.0
C1527 C 0.48634 0.27642 0.65757 0.0
C1528 C 0.46417 0.2835 0.64643 0.0
H1529 H 0.67532 0.35184 0.62623 0.0
H1530 H 0.61477 0.33821 0.63123 0.0
C1531 C 0.43759 0.26042 0.64301 0.0
C1532 C 0.52043 0.29429 0.65857 0.0
H1533 H 0.56001 0.37358 0.65695 0.0
C1534 C 0.55033 0.27359 0.65791 0.0
C1535 C 0.52398 0.33085 0.65869 0.0
C1536 C 0.49314 0.35452 0.66015 0.0
C1537 C 0.58336 0.2883 0.65674 0.0
C1538 C 0.58672 0.32468 0.65613 0.0
C1539 C 0.55719 0.34563 0.65733 0.0
C1540 C 0.62086 0.34054 0.65334 0.0
C1541 C 0.61451 0.26485 0.65558 0.0
C1542 C 0.64395 0.3474 0.66415 0.0
C1543 C 0.67867 0.35516 0.66135 0.0
C1544 C 0.69079 0.35585 0.64767 0.0
C1545 C 0.66692 0.35129 0.63687 0.0
C1546 C 0.63226 0.34367 0.63969 0.0
H1547 H 0.60771 0.2371 0.65701 0.0
H1548 H 0.62653 0.26802 0.64527 0.0
H1549 H 0.63421 0.27217 0.6634 0.0
H1550 H 0.63559 0.34481 0.67475 0.0
H1551 H 0.69635 0.35863 0.66991 0.0
H1552 H 0.66645 0.32436 0.84355 0.0
H1553 H 0.68147 0.38501 0.83893 0.0
H1554 H 0.69221 0.4037 0.88247 0.0
H1555 H 0.67732 0.34332 0.88724 0.0
H1556 H 0.65534 0.45905 0.85515 0.0
H1557 H 0.79155 0.41179 0.8582 0.0
H1558 H 0.75642 0.38402 0.85277 0.0
H1559 H 0.76078 0.39557 0.87058 0.0
C1560 C 0.67113 0.34157 0.85217 0.0
C1561 C 0.67114 0.32888 0.86577 0.0
C1562 C 0.67958 0.37623 0.8495 0.0
C1563 C 0.68793 0.39867 0.86037 0.0
C1564 C 0.68565 0.38672 0.87397 0.0
H1565 H 0.76195 0.59975 0.87784 0.0
H1566 H 0.7223 0.55243 0.87244 0.0
C1567 C 0.67729 0.35215 0.87666 0.0
C1568 C 0.70408 0.43271 0.85759 0.0
H1569 H 0.7831 0.47192 0.85716 0.0
C1570 C 0.68327 0.462 0.8554 0.0
C1571 C 0.74046 0.43623 0.85778 0.0
C1572 C 0.76383 0.40532 0.85989 0.0
C1573 C 0.69812 0.49515 0.85384 0.0
C1574 C 0.73457 0.4989 0.8547 0.0
C1575 C 0.7552 0.4692 0.85639 0.0
C1576 C 0.75225 0.53315 0.85519 0.0
C1577 C 0.67465 0.52574 0.85137 0.0
C1578 C 0.78173 0.53908 0.84702 0.0
C1579 C 0.80457 0.56605 0.85022 0.0
C1580 C 0.79793 0.58792 0.86144 0.0
C1581 C 0.76687 0.58411 0.86878 0.0
C1582 C 0.74423 0.55685 0.86572 0.0
H1583 H 0.65042 0.51767 0.84607 0.0
H1584 H 0.66729 0.53727 0.86142 0.0
H1585 H 0.68763 0.54598 0.8451 0.0
H1586 H 0.78858 0.52109 0.8389 0.0
H1587 H 0.82875 0.5681 0.84461 0.0
H1588 H 0.41464 0.75765 0.87724 0.0
H1589 H 0.46139 0.71598 0.87372 0.0
H1590 H 0.50122 0.77856 0.84057 0.0
H1591 H 0.45392 0.82 0.84394 0.0
H1592 H 0.50424 0.68107 0.84774 0.0
H1593 H 0.56205 0.7881 0.87883 0.0
H1594 H 0.51589 0.78099 0.87806 0.0
H1595 H 0.538 0.79966 0.86362 0.0
C1596 C 0.43166 0.76103 0.86849 0.0
C1597 C 0.43011 0.79146 0.86059 0.0
C1598 C 0.45871 0.73742 0.8666 0.0
C1599 C 0.48474 0.74425 0.8569 0.0
C1600 C 0.48114 0.77267 0.848 0.0
H1601 H 0.69304 0.66415 0.84653 0.0
H1602 H 0.63182 0.67743 0.8427 0.0
C1603 C 0.45406 0.79625 0.84989 0.0
C1604 C 0.51901 0.72756 0.8585 0.0
H1605 H 0.59825 0.74177 0.873 0.0
C1606 C 0.52491 0.69422 0.85322 0.0
C1607 C 0.54563 0.74471 0.86584 0.0
C1608 C 0.54028 0.78027 0.87201 0.0
C1609 C 0.55718 0.67772 0.855 0.0
C1610 C 0.58392 0.69516 0.8622 0.0
C1611 C 0.5777 0.72838 0.86752 0.0
C1612 C 0.61889 0.68016 0.86436 0.0
C1613 C 0.5623 0.64164 0.8494 0.0
C1614 C 0.63187 0.67665 0.8778 0.0
C1615 C 0.66687 0.6694 0.88003 0.0
C1616 C 0.68967 0.66566 0.86885 0.0
C1617 C 0.67618 0.66689 0.85538 0.0
C1618 C 0.6411 0.67428 0.85316 0.0
H1619 H 0.53721 0.62874 0.84711 0.0
H1620 H 0.57741 0.6431 0.8397 0.0
H1621 H 0.57706 0.62541 0.8568 0.0
H1622 H 0.6152 0.68118 0.88659 0.0
H1623 H 0.67633 0.66839 0.89052 0.0
H1624 H 0.25588 0.4142 0.87729 0.0
H1625 H 0.29762 0.46082 0.87343 0.0
H1626 H 0.23012 0.50507 0.84277 0.0
H1627 H 0.1886 0.45788 0.84641 0.0
H1628 H 0.32693 0.50572 0.84582 0.0
H1629 H 0.23204 0.56181 0.88297 0.0
H1630 H 0.23898 0.51569 0.88163 0.0
H1631 H 0.21566 0.53805 0.86837 0.0
C1632 C 0.2512 0.43232 0.86899 0.0
C1633 C 0.21954 0.43196 0.86186 0.0
C1634 C 0.27488 0.45923 0.86691 0.0
C1635 C 0.26692 0.48626 0.8578 0.0
C1636 C 0.23686 0.48415 0.84971 0.0
H1637 H 0.34503 0.69311 0.84456 0.0
H1638 H 0.33111 0.63174 0.84158 0.0
C1639 C 0.21321 0.45722 0.85179 0.0
C1640 C 0.2849 0.51988 0.85923 0.0
H1641 H 0.27667 0.59798 0.87531 0.0
C1642 C 0.31614 0.52597 0.85226 0.0
C1643 C 0.27084 0.54591 0.8678 0.0
C1644 C 0.23762 0.54026 0.87571 0.0
C1645 C 0.33349 0.55796 0.85354 0.0
C1646 C 0.31891 0.58429 0.86189 0.0
C1647 C 0.28791 0.57776 0.86896 0.0
C1648 C 0.33428 0.61938 0.86329 0.0
C1649 C 0.36735 0.56318 0.8461 0.0
C1650 C 0.34123 0.63279 0.87645 0.0
C1651 C 0.34869 0.66793 0.87821 0.0
C1652 C 0.34936 0.69038 0.86682 0.0
C1653 C 0.34476 0.67648 0.85354 0.0
C1654 C 0.33703 0.6413 0.8518 0.0
H1655 H 0.37975 0.53806 0.84348 0.0
H1656 H 0.36246 0.57736 0.83635 0.0
H1657 H 0.38565 0.57875 0.85241 0.0
H1658 H 0.33919 0.61635 0.88546 0.0
H1659 H 0.35238 0.67777 0.88856 0.0
H1660 H 0.60403 0.26175 0.87693 0.0
H1661 H 0.55687 0.30301 0.87336 0.0
H1662 H 0.51598 0.23843 0.84097 0.0
H1663 H 0.56338 0.19724 0.84448 0.0
H1664 H 0.51311 0.33712 0.84826 0.0
H1665 H 0.45618 0.22903 0.87887 0.0
H1666 H 0.50232 0.2357 0.87762 0.0
H1667 H 0.47894 0.21751 0.86337 0.0
C1668 C 0.58655 0.25773 0.86835 0.0
C1669 C 0.5877 0.22675 0.86077 0.0
C1670 C 0.55933 0.28115 0.86642 0.0
C1671 C 0.5329 0.27363 0.85695 0.0
C1672 C 0.5363 0.24478 0.84825 0.0
H1673 H 0.32451 0.35363 0.84661 0.0
H1674 H 0.38587 0.34081 0.84291 0.0
C1675 C 0.56345 0.22134 0.85021 0.0
C1676 C 0.49855 0.29008 0.85864 0.0
H1677 H 0.41925 0.2747 0.87285 0.0
C1678 C 0.49248 0.32361 0.8536 0.0
C1679 C 0.47199 0.27247 0.86583 0.0
C1680 C 0.47751 0.23678 0.87184 0.0
C1681 C 0.46009 0.33982 0.85543 0.0
C1682 C 0.43337 0.32186 0.86242 0.0
C1683 C 0.43977 0.28848 0.86753 0.0
C1684 C 0.39824 0.33649 0.86458 0.0
C1685 C 0.45484 0.37613 0.85011 0.0
C1686 C 0.38487 0.33888 0.878 0.0
C1687 C 0.34978 0.34578 0.88014 0.0
C1688 C 0.3273 0.35039 0.8689 0.0
C1689 C 0.34115 0.35025 0.85549 0.0
C1690 C 0.37631 0.34314 0.85335 0.0
H1691 H 0.4799 0.38938 0.84812 0.0
H1692 H 0.44022 0.375 0.84027 0.0
H1693 H 0.43958 0.39184 0.85752 0.0
H1694 H 0.40131 0.33375 0.88681 0.0
H1695 H 0.34002 0.34596 0.8906 0.0
H1696 H 0.33678 0.282 0.40258 0.0
H1697 H 0.31613 0.34164 0.40579 0.0
H1698 H 0.24689 0.32945 0.37127 0.0
H1699 H 0.26686 0.27016 0.36808 0.0
H1700 H 0.31821 0.39724 0.38772 0.0
H1701 H 0.18226 0.36635 0.401 0.0
H1702 H 0.21616 0.33412 0.40114 0.0
H1703 H 0.19583 0.34644 0.38519 0.0
C1704 C 0.31707 0.29197 0.3957 0.0
C1705 C 0.30345 0.27108 0.38511 0.0
C1706 C 0.30527 0.32607 0.39756 0.0
C1707 C 0.27943 0.33983 0.38894 0.0
C1708 C 0.26618 0.31919 0.37827 0.0
H1709 H 0.22977 0.54929 0.36727 0.0
H1710 H 0.24953 0.48945 0.36907 0.0
C1711 C 0.27791 0.28526 0.3764 0.0
C1712 C 0.26712 0.37615 0.39066 0.0
H1713 H 0.19385 0.42509 0.39433 0.0
C1714 C 0.29109 0.40331 0.38932 0.0
C1715 C 0.23178 0.38416 0.39296 0.0
C1716 C 0.20506 0.35623 0.3953 0.0
C1717 C 0.28047 0.43816 0.3896 0.0
C1718 C 0.24484 0.44611 0.39106 0.0
C1719 C 0.22108 0.41902 0.39304 0.0
C1720 C 0.2317 0.48227 0.39 0.0
C1721 C 0.30753 0.46619 0.38827 0.0
C1722 C 0.21388 0.49788 0.40099 0.0
C1723 C 0.20231 0.53226 0.39997 0.0
C1724 C 0.20813 0.55155 0.38789 0.0
C1725 C 0.22506 0.5354 0.37677 0.0
C1726 C 0.23662 0.50118 0.37781 0.0
H1727 H 0.33361 0.45666 0.39129 0.0
H1728 H 0.30889 0.47475 0.37738 0.0
H1729 H 0.30096 0.48901 0.39474 0.0
H1730 H 0.20945 0.48365 0.41044 0.0
H1731 H 0.18917 0.54383 0.40869 0.0
H1732 H 0.46645 0.22383 0.36632 0.0
H1733 H 0.52666 0.24282 0.36718 0.0
H1734 H 0.53358 0.21036 0.40958 0.0
H1735 H 0.47306 0.19085 0.40879 0.0
H1736 H 0.55569 0.29299 0.38443 0.0
H1737 H 0.61875 0.16475 0.39164 0.0
H1738 H 0.57433 0.16909 0.38608 0.0
H1739 H 0.58547 0.17537 0.40387 0.0
C1740 C 0.48073 0.22046 0.37584 0.0
C1741 C 0.46484 0.20578 0.3875 0.0
C1742 C 0.5152 0.23145 0.3763 0.0
C1743 C 0.53475 0.22784 0.3884 0.0
C1744 C 0.51915 0.21297 0.40007 0.0
H1745 H 0.73449 0.33464 0.39993 0.0
H1746 H 0.67455 0.31493 0.40277 0.0
C1747 C 0.48451 0.20195 0.39961 0.0
C1748 C 0.57116 0.24051 0.38873 0.0
H1749 H 0.65527 0.21388 0.39161 0.0
C1750 C 0.57748 0.27575 0.38609 0.0
C1751 C 0.59955 0.21791 0.39076 0.0
C1752 C 0.5944 0.17961 0.39314 0.0
C1753 C 0.61137 0.28895 0.38528 0.0
C1754 C 0.63978 0.26639 0.38735 0.0
C1755 C 0.63347 0.2312 0.39012 0.0
C1756 C 0.67625 0.27835 0.38587 0.0
C1757 C 0.6165 0.32668 0.38173 0.0
C1758 C 0.69735 0.26398 0.3756 0.0
C1759 C 0.73158 0.27509 0.37396 0.0
C1760 C 0.74567 0.30079 0.38263 0.0
C1761 C 0.72451 0.31502 0.393 0.0
C1762 C 0.69017 0.30385 0.39462 0.0
H1763 H 0.59252 0.33858 0.37752 0.0
H1764 H 0.62387 0.34113 0.39118 0.0
H1765 H 0.63762 0.32986 0.37408 0.0
H1766 H 0.68721 0.24426 0.36874 0.0
H1767 H 0.74701 0.26338 0.3659 0.0
H1768 H 0.68787 0.73142 0.40053 0.0
H1769 H 0.71023 0.67229 0.40266 0.0
H1770 H 0.7638 0.68357 0.36397 0.0
H1771 H 0.74241 0.74287 0.36193 0.0
H1772 H 0.70367 0.61481 0.38717 0.0
H1773 H 0.84192 0.65277 0.38843 0.0
H1774 H 0.80737 0.684 0.38994 0.0
H1775 H 0.82035 0.66818 0.37327 0.0
C1776 C 0.70429 0.72129 0.39243 0.0
C1777 C 0.71356 0.74212 0.38111 0.0
C1778 C 0.71714 0.68745 0.39369 0.0
C1779 C 0.73948 0.67368 0.38366 0.0
C1780 C 0.74755 0.69391 0.37207 0.0
H1781 H 0.82877 0.47522 0.36468 0.0
H1782 H 0.80791 0.53504 0.3654 0.0
C1783 C 0.735 0.72779 0.37086 0.0
C1784 C 0.75413 0.63813 0.38523 0.0
H1785 H 0.83012 0.59247 0.38509 0.0
C1786 C 0.73133 0.61001 0.38687 0.0
C1787 C 0.7903 0.63174 0.38495 0.0
C1788 C 0.81641 0.66081 0.3842 0.0
C1789 C 0.74362 0.57574 0.38772 0.0
C1790 C 0.77963 0.56939 0.38697 0.0
C1791 C 0.80249 0.59744 0.3856 0.0
C1792 C 0.79388 0.53364 0.38694 0.0
C1793 C 0.71803 0.54637 0.389 0.0
C1794 C 0.79364 0.51323 0.39892 0.0
C1795 C 0.80585 0.47899 0.39858 0.0
C1796 C 0.81822 0.46453 0.38621 0.0
C1797 C 0.81919 0.48543 0.37435 0.0
C1798 C 0.80732 0.51966 0.37473 0.0
H1799 H 0.69084 0.55523 0.38774 0.0
H1800 H 0.72354 0.52611 0.38118 0.0
H1801 H 0.72068 0.53427 0.39932 0.0
H1802 H 0.78367 0.52368 0.40848 0.0
H1803 H 0.80478 0.46363 0.4079 0.0
H1804 H 0.55261 0.78907 0.36583 0.0
H1805 H 0.49244 0.76983 0.36671 0.0
H1806 H 0.48574 0.80223 0.40913 0.0
H1807 H 0.54615 0.82197 0.40832 0.0
H1808 H 0.4638 0.71944 0.38399 0.0
H1809 H 0.40011 0.84731 0.39134 0.0
H1810 H 0.44448 0.8432 0.38571 0.0
H1811 H 0.43362 0.83699 0.40352 0.0
C1812 C 0.53836 0.79241 0.37534 0.0
C1813 C 0.55429 0.80713 0.38701 0.0
C1814 C 0.50393 0.78126 0.37583 0.0
C1815 C 0.48445 0.78475 0.38795 0.0
C1816 C 0.50009 0.79971 0.3996 0.0
H1817 H 0.28529 0.67726 0.40035 0.0
H1818 H 0.34542 0.69686 0.40284 0.0
C1819 C 0.53467 0.81087 0.39913 0.0
C1820 C 0.44812 0.77185 0.38833 0.0
H1821 H 0.36392 0.79793 0.39156 0.0
C1822 C 0.44195 0.73655 0.38572 0.0
C1823 C 0.41963 0.79426 0.39047 0.0
C1824 C 0.42457 0.83261 0.39281 0.0
C1825 C 0.40811 0.72312 0.38508 0.0
C1826 C 0.37961 0.74549 0.38727 0.0
C1827 C 0.38579 0.78074 0.38999 0.0
C1828 C 0.34315 0.73332 0.38594 0.0
C1829 C 0.40311 0.68532 0.38159 0.0
C1830 C 0.32172 0.7476 0.37575 0.0
C1831 C 0.28742 0.73654 0.37431 0.0
C1832 C 0.27356 0.711 0.38309 0.0
C1833 C 0.29509 0.69677 0.39335 0.0
C1834 C 0.32953 0.70788 0.39476 0.0
H1835 H 0.42704 0.67351 0.37732 0.0
H1836 H 0.39601 0.67093 0.39107 0.0
H1837 H 0.38182 0.68197 0.374 0.0
H1838 H 0.33161 0.76727 0.36883 0.0
H1839 H 0.27171 0.74827 0.36633 0.0
H1840 H 0.32997 0.7341 0.1119 0.0
H1841 H 0.31068 0.67396 0.10894 0.0
H1842 H 0.25009 0.68172 0.14609 0.0
H1843 H 0.26866 0.74163 0.14904 0.0
H1844 H 0.31874 0.61722 0.12572 0.0
H1845 H 0.17917 0.64494 0.11887 0.0
H1846 H 0.21189 0.6783 0.11793 0.0
H1847 H 0.19632 0.66354 0.13438 0.0
C1848 C 0.31248 0.72305 0.11943 0.0
C1849 C 0.30076 0.74294 0.13067 0.0
C1850 C 0.30145 0.68865 0.11771 0.0
C1851 C 0.27833 0.67349 0.12713 0.0
C1852 C 0.26717 0.69305 0.13848 0.0
H1853 H 0.24102 0.45908 0.14616 0.0
H1854 H 0.25962 0.51937 0.14478 0.0
C1855 C 0.2781 0.72734 0.1402 0.0
C1856 C 0.26659 0.63692 0.12542 0.0
H1857 H 0.19412 0.58602 0.12392 0.0
C1858 C 0.2915 0.61044 0.12519 0.0
C1859 C 0.23106 0.62798 0.12448 0.0
C1860 C 0.20308 0.65521 0.12378 0.0
C1861 C 0.28184 0.5753 0.12462 0.0
C1862 C 0.24625 0.5663 0.12453 0.0
C1863 C 0.22137 0.59282 0.12417 0.0
C1864 C 0.23437 0.5296 0.1253 0.0
C1865 C 0.30992 0.54815 0.12411 0.0
C1866 C 0.21285 0.51541 0.11505 0.0
C1867 C 0.20184 0.48079 0.11586 0.0
C1868 C 0.212 0.45976 0.127 0.0
C1869 C 0.23293 0.47433 0.13737 0.0
C1870 C 0.24385 0.50883 0.13655 0.0
H1871 H 0.33451 0.55893 0.11999 0.0
H1872 H 0.31507 0.53861 0.13469 0.0
H1873 H 0.30204 0.52575 0.11763 0.0
H1874 H 0.20489 0.53103 0.10634 0.0
H1875 H 0.18557 0.47048 0.10774 0.0
H1876 H 0.54718 0.2276 0.14663 0.0
H1877 H 0.48675 0.24542 0.14496 0.0
H1878 H 0.48263 0.20827 0.1031 0.0
H1879 H 0.54338 0.18991 0.10472 0.0
H1880 H 0.45822 0.29326 0.12658 0.0
H1881 H 0.39703 0.16343 0.12107 0.0
H1882 H 0.44107 0.16898 0.12694 0.0
H1883 H 0.43087 0.17329 0.10899 0.0
C1884 C 0.53348 0.22296 0.13707 0.0
C1885 C 0.55022 0.20734 0.1258 0.0
C1886 C 0.49888 0.23327 0.13613 0.0
C1887 C 0.48006 0.22804 0.12394 0.0
C1888 C 0.4965 0.21217 0.11267 0.0
H1889 H 0.27839 0.33176 0.11163 0.0
H1890 H 0.33812 0.31189 0.10815 0.0
C1891 C 0.53127 0.20184 0.1136 0.0
C1892 C 0.44354 0.24014 0.1231 0.0
H1893 H 0.35987 0.21196 0.12041 0.0
C1894 C 0.4367 0.27554 0.12511 0.0
C1895 C 0.41552 0.21693 0.1213 0.0
C1896 C 0.42126 0.17849 0.11955 0.0
C1897 C 0.40262 0.2883 0.12563 0.0
C1898 C 0.37455 0.2651 0.12387 0.0
C1899 C 0.38141 0.22976 0.12163 0.0
C1900 C 0.33795 0.27652 0.12545 0.0
C1901 C 0.39694 0.32627 0.12861 0.0
C1902 C 0.31774 0.26275 0.13612 0.0
C1903 C 0.28369 0.27392 0.13811 0.0
C1904 C 0.26886 0.29912 0.12942 0.0
C1905 C 0.28898 0.31252 0.11857 0.0
C1906 C 0.32319 0.30128 0.1166 0.0
H1907 H 0.42082 0.33906 0.13249 0.0
H1908 H 0.38895 0.3396 0.11899 0.0
H1909 H 0.37603 0.3298 0.13633 0.0
H1910 H 0.32851 0.24362 0.14308 0.0
H1911 H 0.26906 0.26279 0.14654 0.0
H1912 H 0.82328 0.54853 0.10658 0.0
H1913 H 0.80382 0.48806 0.1047 0.0
H1914 H 0.75631 0.49547 0.14476 0.0
H1915 H 0.7751 0.5556 0.14665 0.0
H1916 H 0.81758 0.43099 0.12123 0.0
H1917 H 0.67699 0.45891 0.12122 0.0
H1918 H 0.7092 0.49213 0.11846 0.0
H1919 H 0.69897 0.47797 0.13565 0.0
C1920 C 0.80859 0.53728 0.11496 0.0
C1921 C 0.80049 0.55709 0.12671 0.0
C1922 C 0.7975 0.50272 0.11388 0.0
C1923 C 0.77792 0.4874 0.12446 0.0
C1924 C 0.77056 0.50692 0.1363 0.0
H1925 H 0.7458 0.27484 0.14701 0.0
H1926 H 0.7647 0.33456 0.14386 0.0
C1927 C 0.78157 0.54133 0.13739 0.0
C1928 C 0.76576 0.45083 0.1234 0.0
H1929 H 0.69332 0.40013 0.12581 0.0
C1930 C 0.79038 0.42427 0.12208 0.0
C1931 C 0.73021 0.44196 0.12427 0.0
C1932 C 0.70228 0.46926 0.12484 0.0
C1933 C 0.78056 0.38913 0.12222 0.0
C1934 C 0.74521 0.38026 0.12396 0.0
C1935 C 0.72045 0.40684 0.12465 0.0
C1936 C 0.73358 0.34367 0.12568 0.0
C1937 C 0.8082 0.36184 0.12053 0.0
C1938 C 0.70887 0.32902 0.11676 0.0
C1939 C 0.69769 0.2947 0.11859 0.0
C1940 C 0.7108 0.27442 0.12947 0.0
C1941 C 0.73519 0.28946 0.13847 0.0
C1942 C 0.74631 0.32363 0.13663 0.0
H1943 H 0.83131 0.37232 0.11513 0.0
H1944 H 0.81664 0.35283 0.13085 0.0
H1945 H 0.7983 0.33915 0.11469 0.0
H1946 H 0.69842 0.34407 0.10831 0.0
H1947 H 0.67885 0.28408 0.11148 0.0
H1948 H 0.4672 0.82796 0.10534 0.0
H1949 H 0.52763 0.80821 0.10393 0.0
H1950 H 0.52054 0.76746 0.14516 0.0
H1951 H 0.46055 0.78672 0.14664 0.0
H1952 H 0.58535 0.82439 0.12075 0.0
H1953 H 0.55532 0.68409 0.12282 0.0
H1954 H 0.52286 0.71647 0.11914 0.0
H1955 H 0.53596 0.70826 0.13662 0.0
C1956 C 0.47853 0.81476 0.11409 0.0
C1957 C 0.45887 0.80865 0.12605 0.0
C1958 C 0.51306 0.8035 0.11327 0.0
C1959 C 0.5284 0.7857 0.12433 0.0
C1960 C 0.50905 0.78039 0.13637 0.0
H1961 H 0.73924 0.75194 0.14845 0.0
H1962 H 0.67994 0.77139 0.14475 0.0
C1963 C 0.47473 0.79166 0.13722 0.0
C1964 C 0.56475 0.77302 0.12352 0.0
H1965 H 0.61425 0.70011 0.12711 0.0
C1966 C 0.59167 0.79718 0.12198 0.0
C1967 C 0.57304 0.73743 0.12492 0.0
C1968 C 0.54527 0.70999 0.12583 0.0
C1969 C 0.62662 0.7869 0.12244 0.0
C1970 C 0.6349 0.75158 0.12466 0.0
C1971 C 0.60796 0.72723 0.12556 0.0
C1972 C 0.67122 0.73962 0.12671 0.0
C1973 C 0.65438 0.81403 0.12057 0.0
C1974 C 0.6859 0.7144 0.11805 0.0
C1975 C 0.71998 0.70294 0.12018 0.0
C1976 C 0.73995 0.71625 0.13112 0.0
C1977 C 0.72485 0.74113 0.13988 0.0
C1978 C 0.69092 0.75257 0.13772 0.0
H1979 H 0.64439 0.83702 0.11495 0.0
H1980 H 0.66345 0.82286 0.13084 0.0
H1981 H 0.67694 0.80342 0.11487 0.0
H1982 H 0.67106 0.70379 0.10956 0.0
H1983 H 0.73066 0.68373 0.11325 0.0
H1984 H 0.35087 0.22448 0.29994 0.0
H1985 H 0.32314 0.24158 0.27847 0.0
H1986 H 0.22597 0.20012 0.29281 0.0
H1987 H 0.25349 0.18242 0.31438 0.0
H1988 H 0.28854 0.19892 0.25909 0.0
H1989 H 0.20229 0.30054 0.28098 0.0
H1990 H 0.23877 0.28325 0.29037 0.0
H1991 H 0.19978 0.25824 0.2887 0.0
C1992 C 0.32357 0.21892 0.29861 0.0
C1993 C 0.30445 0.20244 0.30907 0.0
C1994 C 0.30778 0.22876 0.28629 0.0
C1995 C 0.27245 0.22245 0.2841 0.0
C1996 C 0.25316 0.20579 0.29441 0.0
H1997 H 0.18002 0.25453 0.20197 0.0
H1998 H 0.19687 0.22754 0.22373 0.0
C1999 C 0.26898 0.19586 0.30679 0.0
C2000 C 0.25632 0.23332 0.27093 0.0
H2001 H 0.19995 0.29182 0.25701 0.0
C2002 C 0.26889 0.21897 0.25861 0.0
C2003 C 0.23088 0.25963 0.27037 0.0
C2004 C 0.21719 0.2766 0.28327 0.0
C2005 C 0.25732 0.23082 0.24573 0.0
C2006 C 0.23225 0.25748 0.24517 0.0
C2007 C 0.21905 0.27125 0.25749 0.0
C2008 C 0.22153 0.27347 0.23195 0.0
C2009 C 0.27309 0.2158 0.23282 0.0
C2010 C 0.22934 0.30837 0.22944 0.0
C2011 C 0.21998 0.32386 0.217 0.0
C2012 C 0.20251 0.30485 0.20674 0.0
C2013 C 0.19429 0.26986 0.20938 0.0
C2014 C 0.20373 0.25436 0.22188 0.0
H2015 H 0.29648 0.20002 0.23507 0.0
H2016 H 0.2538 0.19888 0.22766 0.0
H2017 H 0.28029 0.23674 0.22552 0.0
H2018 H 0.24305 0.32359 0.23708 0.0
H2019 H 0.22678 0.3508 0.21539 0.0
H2020 H 0.7877 0.26131 0.31773 0.0
H2021 H 0.76871 0.23412 0.29625 0.0
H2022 H 0.83518 0.30252 0.27316 0.0
H2023 H 0.85476 0.32956 0.29456 0.0
H2024 H 0.73594 0.27171 0.27443 0.0
H2025 H 0.85551 0.20553 0.2566 0.0
H2026 H 0.84907 0.2186 0.27429 0.0
H2027 H 0.86101 0.2501 0.26154 0.0
C2028 C 0.799 0.27003 0.30814 0.0
C2029 C 0.82307 0.29745 0.3079 0.0
C2030 C 0.78792 0.25458 0.29585 0.0
C2031 C 0.80092 0.26598 0.28314 0.0
C2032 C 0.82533 0.29288 0.28288 0.0
H2033 H 0.75282 0.2308 0.19706 0.0
H2034 H 0.77941 0.2471 0.21903 0.0
C2035 C 0.83625 0.30849 0.29512 0.0
C2036 C 0.78685 0.25188 0.27009 0.0
H2037 H 0.80922 0.20954 0.2405 0.0
C2038 C 0.75184 0.25781 0.26706 0.0
C2039 C 0.80782 0.23415 0.26046 0.0
C2040 C 0.84539 0.2264 0.26338 0.0
C2041 C 0.73733 0.24716 0.2545 0.0
C2042 C 0.75822 0.22926 0.24485 0.0
C2043 C 0.79325 0.22318 0.24791 0.0
C2044 C 0.74406 0.21697 0.2315 0.0
C2045 C 0.70002 0.2562 0.25151 0.0
C2046 C 0.71607 0.19379 0.2312 0.0
C2047 C 0.70076 0.18454 0.2187 0.0
C2048 C 0.7135 0.19776 0.20619 0.0
C2049 C 0.74259 0.21976 0.20646 0.0
C2050 C 0.75773 0.22926 0.21902 0.0
H2051 H 0.69077 0.27784 0.25811 0.0
H2052 H 0.69649 0.26363 0.24055 0.0
H2053 H 0.68348 0.2333 0.25363 0.0
H2054 H 0.70565 0.18331 0.24068 0.0
H2055 H 0.67865 0.16723 0.21884 0.0
H2056 H 0.68579 0.86966 0.29759 0.0
H2057 H 0.7095 0.84974 0.27566 0.0
H2058 H 0.76966 0.77233 0.29691 0.0
H2059 H 0.74618 0.79206 0.31893 0.0
H2060 H 0.80686 0.80666 0.27621 0.0
H2061 H 0.67983 0.76027 0.25667 0.0
H2062 H 0.68004 0.80495 0.26184 0.0
H2063 H 0.68682 0.77161 0.27449 0.0
C2064 C 0.70412 0.84842 0.29764 0.0
C2065 C 0.71407 0.8326 0.31009 0.0
C2066 C 0.71757 0.837 0.28507 0.0
C2067 C 0.7409 0.80917 0.28462 0.0
C2068 C 0.75163 0.79384 0.29702 0.0
H2069 H 0.83877 0.68495 0.22176 0.0
H2070 H 0.82117 0.71354 0.24306 0.0
C2071 C 0.7383 0.80535 0.30964 0.0
C2072 C 0.75362 0.79571 0.27121 0.0
H2073 H 0.72667 0.75915 0.24097 0.0
C2074 C 0.78935 0.79623 0.26851 0.0
C2075 C 0.73073 0.78213 0.26116 0.0
C2076 C 0.69225 0.77935 0.26369 0.0
C2077 C 0.80276 0.78382 0.25598 0.0
C2078 C 0.77986 0.77013 0.24597 0.0
C2079 C 0.74414 0.76988 0.24862 0.0
C2080 C 0.79244 0.75437 0.23295 0.0
C2081 C 0.84127 0.78582 0.25349 0.0
C2082 C 0.78178 0.76755 0.22015 0.0
C2083 C 0.79171 0.75116 0.2079 0.0
C2084 C 0.81226 0.72102 0.20823 0.0
C2085 C 0.82301 0.70811 0.2211 0.0
C2086 C 0.81323 0.7246 0.23331 0.0
H2087 H 0.85387 0.80521 0.26032 0.0
H2088 H 0.85304 0.76016 0.25565 0.0
H2089 H 0.84692 0.79264 0.24261 0.0
H2090 H 0.76537 0.79028 0.21966 0.0
H2091 H 0.78224 0.76148 0.19824 0.0
H2092 H 0.16284 0.68453 0.29544 0.0
H2093 H 0.1822 0.71184 0.27409 0.0
H2094 H 0.24526 0.78309 0.29739 0.0
H2095 H 0.22677 0.75553 0.31881 0.0
H2096 H 0.17898 0.78308 0.26494 0.0
H2097 H 0.31373 0.73435 0.27081 0.0
H2098 H 0.27801 0.71728 0.2807 0.0
H2099 H 0.29692 0.75829 0.28522 0.0
C2100 C 0.18073 0.70611 0.29607 0.0
C2101 C 0.19311 0.71778 0.3089 0.0
C2102 C 0.19162 0.72178 0.28384 0.0
C2103 C 0.21539 0.74924 0.28416 0.0
C2104 C 0.22712 0.76169 0.29693 0.0
H2105 H 0.33234 0.85165 0.21967 0.0
H2106 H 0.30554 0.83513 0.24146 0.0
C2107 C 0.21617 0.74609 0.30919 0.0
C2108 C 0.22894 0.76376 0.27109 0.0
H2109 H 0.30244 0.77036 0.25177 0.0
C2110 C 0.20598 0.78041 0.26204 0.0
C2111 C 0.26413 0.7601 0.26735 0.0
C2112 C 0.28967 0.74131 0.27645 0.0
C2113 C 0.21742 0.79393 0.24938 0.0
C2114 C 0.25259 0.78999 0.24558 0.0
C2115 C 0.27551 0.77346 0.2547 0.0
C2116 C 0.2664 0.80243 0.23219 0.0
C2117 C 0.19188 0.81281 0.24033 0.0
C2118 C 0.25319 0.78974 0.21967 0.0
C2119 C 0.26838 0.79931 0.20714 0.0
C2120 C 0.29735 0.82149 0.20691 0.0
C2121 C 0.31013 0.83448 0.21946 0.0
C2122 C 0.29481 0.82511 0.23194 0.0
H2123 H 0.16926 0.82228 0.24631 0.0
H2124 H 0.20427 0.83523 0.23511 0.0
H2125 H 0.18212 0.7948 0.2323 0.0
H2126 H 0.23188 0.77148 0.21961 0.0
H2127 H 0.25831 0.78814 0.19772 0.0
H2128 H 0.72807 0.76385 0.69704 0.0
H2129 H 0.7463 0.73627 0.71854 0.0
H2130 H 0.67909 0.80422 0.74148 0.0
H2131 H 0.66029 0.83164 0.72008 0.0
H2132 H 0.77847 0.77336 0.7406 0.0
H2133 H 0.65826 0.70724 0.7578 0.0
H2134 H 0.66515 0.72059 0.74017 0.0
H2135 H 0.65295 0.75189 0.75298 0.0
C2136 C 0.71643 0.77238 0.7066 0.0
C2137 C 0.69241 0.79982 0.7068 0.0
C2138 C 0.72709 0.75671 0.7189 0.0
C2139 C 0.71369 0.76788 0.73158 0.0
C2140 C 0.68927 0.79475 0.73179 0.0
H2141 H 0.75974 0.73171 0.8179 0.0
H2142 H 0.73357 0.74833 0.79588 0.0
C2143 C 0.67878 0.81058 0.71954 0.0
C2144 C 0.72737 0.75362 0.74468 0.0
H2145 H 0.70405 0.71121 0.77414 0.0
C2146 C 0.76231 0.75947 0.74788 0.0
C2147 C 0.70609 0.7359 0.75422 0.0
C2148 C 0.66857 0.72822 0.75112 0.0
C2149 C 0.77644 0.74873 0.7605 0.0
C2150 C 0.75524 0.73083 0.77004 0.0
C2151 C 0.72028 0.72486 0.76682 0.0
C2152 C 0.76907 0.71833 0.78343 0.0
C2153 C 0.8137 0.75768 0.76365 0.0
C2154 C 0.79696 0.69508 0.78376 0.0
C2155 C 0.81203 0.68566 0.79628 0.0
C2156 C 0.79915 0.69876 0.80879 0.0
C2157 C 0.7701 0.72078 0.80849 0.0
C2158 C 0.75519 0.73045 0.7959 0.0
H2159 H 0.82317 0.77939 0.75715 0.0
H2160 H 0.81699 0.76498 0.77464 0.0
H2161 H 0.83024 0.73478 0.76154 0.0
H2162 H 0.80754 0.6847 0.77429 0.0
H2163 H 0.8341 0.66833 0.79616 0.0
H2164 H 0.28436 0.75877 0.81685 0.0
H2165 H 0.2669 0.73047 0.79539 0.0
H2166 H 0.32281 0.8073 0.77208 0.0
H2167 H 0.34098 0.83543 0.79343 0.0
H2168 H 0.2281 0.76243 0.77416 0.0
H2169 H 0.35472 0.71534 0.75467 0.0
H2170 H 0.34797 0.72762 0.77242 0.0
H2171 H 0.35424 0.76031 0.75948 0.0
C2172 C 0.29371 0.76923 0.8072 0.0
C2173 C 0.3145 0.79924 0.80691 0.0
C2174 C 0.28345 0.75312 0.79493 0.0
C2175 C 0.29398 0.76646 0.78215 0.0
C2176 C 0.31495 0.79613 0.78182 0.0
H2177 H 0.24637 0.72775 0.69624 0.0
H2178 H 0.27037 0.74781 0.71814 0.0
C2179 C 0.32507 0.81235 0.79406 0.0
C2180 C 0.28113 0.75091 0.76912 0.0
H2181 H 0.30743 0.71381 0.73892 0.0
C2182 C 0.24539 0.75148 0.76651 0.0
C2183 C 0.30378 0.73695 0.75911 0.0
C2184 C 0.3423 0.73467 0.76156 0.0
C2185 C 0.23172 0.73922 0.75401 0.0
C2186 C 0.25436 0.72528 0.74397 0.0
C2187 C 0.29012 0.7245 0.74662 0.0
C2188 C 0.24133 0.7116 0.73063 0.0
C2189 C 0.19325 0.74234 0.75151 0.0
C2190 C 0.21768 0.684 0.73033 0.0
C2191 C 0.20394 0.6724 0.71783 0.0
C2192 C 0.21389 0.6878 0.7053 0.0
C2193 C 0.23846 0.7148 0.7056 0.0
C2194 C 0.25209 0.72649 0.71815 0.0
H2195 H 0.18114 0.76173 0.75847 0.0
H2196 H 0.18777 0.74985 0.74069 0.0
H2197 H 0.18075 0.71692 0.75349 0.0
H2198 H 0.2096 0.67158 0.7398 0.0
H2199 H 0.18535 0.65136 0.71799 0.0
H2200 H 0.18697 0.34704 0.79487 0.0
H2201 H 0.2153 0.32809 0.77367 0.0
H2202 H 0.28865 0.26876 0.79741 0.0
H2203 H 0.26017 0.287 0.81871 0.0
H2204 H 0.28727 0.33355 0.76478 0.0
H2205 H 0.24148 0.19766 0.77103 0.0
H2206 H 0.22304 0.23331 0.78058 0.0
H2207 H 0.26444 0.21598 0.78542 0.0
C2208 C 0.20926 0.33011 0.79562 0.0
C2209 C 0.22125 0.31864 0.80853 0.0
C2210 C 0.2255 0.31945 0.78349 0.0
C2211 C 0.25383 0.29682 0.78398 0.0
C2212 C 0.26661 0.28606 0.79683 0.0
H2213 H 0.35647 0.18146 0.71881 0.0
H2214 H 0.34025 0.20733 0.74085 0.0
C2215 C 0.25047 0.29683 0.80901 0.0
C2216 C 0.26882 0.28329 0.77101 0.0
H2217 H 0.27618 0.20971 0.75172 0.0
C2218 C 0.28502 0.30646 0.76192 0.0
C2219 C 0.26573 0.24797 0.76732 0.0
C2220 C 0.24753 0.22221 0.77651 0.0
C2221 C 0.29848 0.29514 0.74924 0.0
C2222 C 0.29489 0.25988 0.74545 0.0
C2223 C 0.27898 0.23671 0.75463 0.0
C2224 C 0.30682 0.24633 0.73194 0.0
C2225 C 0.31683 0.32094 0.74013 0.0
C2226 C 0.29347 0.25967 0.71957 0.0
C2227 C 0.30283 0.24501 0.70691 0.0
C2228 C 0.32549 0.21646 0.7064 0.0
C2229 C 0.33895 0.20338 0.71882 0.0
C2230 C 0.32977 0.21818 0.73144 0.0
H2231 H 0.32641 0.34355 0.74612 0.0
H2232 H 0.33908 0.30879 0.73473 0.0
H2233 H 0.29843 0.33072 0.73225 0.0
H2234 H 0.27495 0.28073 0.71971 0.0
H2235 H 0.29123 0.25525 0.69761 0.0
H2236 H 0.68251 0.26582 0.81284 0.0
H2237 H 0.69814 0.29359 0.79111 0.0
H2238 H 0.741 0.19734 0.7764 0.0
H2239 H 0.72609 0.16936 0.79807 0.0
H2240 H 0.76431 0.30022 0.779 0.0
H2241 H 0.67508 0.22644 0.74524 0.0
H2242 H 0.67032 0.22779 0.76374 0.0
H2243 H 0.7013 0.19903 0.75594 0.0
C2244 C 0.69565 0.25052 0.80511 0.0
C2245 C 0.70329 0.21523 0.80736 0.0
C2246 C 0.70426 0.26646 0.79261 0.0
C2247 C 0.72023 0.24739 0.78207 0.0
C2248 C 0.728 0.21236 0.78428 0.0
H2249 H 0.85142 0.2984 0.71503 0.0
H2250 H 0.8238 0.28268 0.73667 0.0
C2251 C 0.71953 0.19644 0.79674 0.0
C2252 C 0.73012 0.26412 0.7689 0.0
H2253 H 0.72187 0.25612 0.73401 0.0
C2254 C 0.75468 0.29093 0.76916 0.0
C2255 C 0.71713 0.25237 0.75609 0.0
C2256 C 0.68923 0.22506 0.7552 0.0
C2257 C 0.76799 0.30499 0.75692 0.0
C2258 C 0.75674 0.29155 0.74411 0.0
C2259 C 0.73078 0.2661 0.74384 0.0
C2260 C 0.77321 0.30193 0.73095 0.0
C2261 C 0.79434 0.33379 0.75781 0.0
C2262 C 0.75374 0.3173 0.72039 0.0
C2263 C 0.76947 0.3264 0.7079 0.0
C2264 C 0.80496 0.31982 0.70568 0.0
C2265 C 0.82416 0.30415 0.71633 0.0
C2266 C 0.80845 0.29522 0.72877 0.0
H2267 H 0.79248 0.34792 0.76776 0.0
H2268 H 0.82074 0.32258 0.75708 0.0
H2269 H 0.79102 0.35259 0.74925 0.0
H2270 H 0.72644 0.3226 0.72186 0.0
H2271 H 0.75382 0.33906 0.70015 0.0
H2272 H 0.0538 0.36628 0.11529 0.0
H2273 H 0.02124 0.41788 0.10872 0.0
H2274 H 0.0973 0.48213 0.12898 0.0
H2275 H 0.12923 0.43015 0.13597 0.0
H2276 H 0.03423 0.48947 0.13988 0.0
H2277 H 0.02169 0.50071 0.08332 0.0
H2278 H 0.01162 0.45795 0.08937 0.0
H2279 H 0.05485 0.47468 0.09141 0.0
C2280 C 0.06445 0.39156 0.11772 0.0
C2281 C 0.09433 0.39437 0.1259 0.0
C2282 C 0.04583 0.42111 0.11394 0.0
C2283 C 0.05681 0.45404 0.11827 0.0
C2284 C 0.08844 0.45703 0.12541 0.0
H2285 H 0.95211 0.65098 0.11531 0.0
H2286 H 0.98639 0.60044 0.10855 0.0
C2287 C 0.10703 0.42737 0.12923 0.0
C2288 C 0.0322 0.4837 0.11783 0.0
H2289 H 0.97842 0.53039 0.09682 0.0
C2290 C 0.02238 0.49862 0.13043 0.0
C2291 C 0.01649 0.49559 0.10552 0.0
C2292 C 0.02695 0.48162 0.09163 0.0
C2293 C 0.99704 0.52455 0.13111 0.0
C2294 C 0.98032 0.53551 0.11889 0.0
C2295 C 0.99064 0.52132 0.10621 0.0
C2296 C 0.954 0.56355 0.11926 0.0
C2297 C 0.98865 0.54032 0.14496 0.0
C2298 C 0.92304 0.55926 0.12671 0.0
C2299 C 0.90335 0.58819 0.13055 0.0
C2300 C 0.9142 0.62158 0.12683 0.0
C2301 C 0.94296 0.62537 0.1181 0.0
C2302 C 0.96265 0.59653 0.11429 0.0
H2303 H 0.00872 0.53424 0.1528 0.0
H2304 H 0.98622 0.56893 0.14416 0.0
H2305 H 0.96356 0.52986 0.14867 0.0
H2306 H 0.91583 0.53395 0.13059 0.0
H2307 H 0.88194 0.58471 0.13762 0.0
H2308 H 0.36588 0.94096 0.10917 0.0
H2309 H 0.41453 0.97567 0.10057 0.0
H2310 H 0.47956 0.9338 0.13269 0.0
H2311 H 0.43141 0.89832 0.1408 0.0
H2312 H 0.43973 0.02597 0.11458 0.0
H2313 H 0.54974 0.94028 0.10329 0.0
H2314 H 0.50624 0.92368 0.10504 0.0
H2315 H 0.53334 0.92978 0.12001 0.0
C2316 C 0.39119 0.93778 0.11382 0.0
C2317 C 0.39529 0.91649 0.12542 0.0
C2318 C 0.41888 0.95794 0.10904 0.0
C2319 C 0.45099 0.95744 0.11591 0.0
C2320 C 0.45558 0.93415 0.12691 0.0
H2321 H 0.57799 0.11601 0.14434 0.0
H2322 H 0.52874 0.0826 0.13589 0.0
C2323 C 0.42802 0.91373 0.13157 0.0
C2324 C 0.47748 0.98484 0.11322 0.0
H2325 H 0.56482 0.99809 0.11201 0.0
C2326 C 0.46703 0.01977 0.11366 0.0
C2327 C 0.51314 0.97723 0.11171 0.0
C2328 C 0.52613 0.94066 0.10982 0.0
C2329 C 0.49129 0.04697 0.11373 0.0
C2330 C 0.52709 0.0391 0.11379 0.0
C2331 C 0.53745 1.00436 0.11222 0.0
C2332 C 0.55403 0.06555 0.11714 0.0
C2333 C 0.47816 0.0838 0.11406 0.0
C2334 C 0.58468 0.06797 0.10935 0.0
C2335 C 0.61302 0.08704 0.11429 0.0
C2336 C 0.611 0.10413 0.12702 0.0
C2337 C 0.57969 0.10385 0.13429 0.0
C2338 C 0.5515 0.08468 0.12943 0.0
H2339 H 0.45336 0.08612 0.10832 0.0
H2340 H 0.47298 0.09145 0.12488 0.0
H2341 H 0.49716 0.10221 0.10957 0.0
H2342 H 0.58743 0.05334 0.09989 0.0
H2343 H 0.63731 0.08617 0.10871 0.0
H2344 H 0.07284 0.64732 0.4073 0.0
H2345 H 0.04018 0.59692 0.41551 0.0
H2346 H 0.08571 0.5348 0.38326 0.0
H2347 H 0.11939 0.58474 0.37559 0.0
H2348 H 0.9916 0.57076 0.40119 0.0
H2349 H 0.08065 0.46307 0.41207 0.0
H2350 H 0.09584 0.50717 0.41059 0.0
H2351 H 0.09072 0.48043 0.39546 0.0
C2352 C 0.07721 0.62233 0.40251 0.0
C2353 C 0.09899 0.61954 0.39101 0.0
C2354 C 0.05828 0.59362 0.40709 0.0
C2355 C 0.06036 0.5618 0.40006 0.0
C2356 C 0.08416 0.55857 0.38915 0.0
H2357 H 0.9054 0.43026 0.37123 0.0
H2358 H 0.93796 0.48021 0.37956 0.0
C2359 C 0.10351 0.58715 0.38474 0.0
C2360 C 0.03388 0.53427 0.40246 0.0
H2361 H 0.02335 0.44647 0.40331 0.0
C2362 C 0.99866 0.54363 0.40201 0.0
C2363 C 0.04262 0.49881 0.40381 0.0
C2364 C 0.07955 0.48691 0.40567 0.0
C2365 C 0.97227 0.51855 0.40185 0.0
C2366 C 0.98125 0.48301 0.40168 0.0
C2367 C 0.01627 0.47367 0.4032 0.0
C2368 C 0.95558 0.45538 0.39833 0.0
C2369 C 0.93508 0.53054 0.40155 0.0
C2370 C 0.95386 0.42476 0.40616 0.0
C2371 C 0.93522 0.39605 0.40131 0.0
C2372 C 0.91785 0.39768 0.38863 0.0
C2373 C 0.91762 0.42888 0.38127 0.0
C2374 C 0.93635 0.45745 0.38605 0.0
H2375 H 0.93203 0.55528 0.40729 0.0
H2376 H 0.92722 0.53544 0.39073 0.0
H2377 H 0.91732 0.51096 0.40607 0.0
H2378 H 0.9686 0.42238 0.41561 0.0
H2379 H 0.93651 0.37184 0.40694 0.0
H2380 H 0.59699 0.89559 0.38007 0.0
H2381 H 0.54573 0.93064 0.38514 0.0
H2382 H 0.59978 0.97883 0.41903 0.0
H2383 H 0.65162 0.94499 0.41347 0.0
H2384 H 0.50106 0.94794 0.405 0.0
H2385 H 0.58671 0.06049 0.39423 0.0
H2386 H 0.60089 0.0164 0.39198 0.0
H2387 H 0.59951 0.03539 0.40891 0.0
C2388 C 0.59735 0.91252 0.38898 0.0
C2389 C 0.62813 0.91767 0.39639 0.0
C2390 C 0.56815 0.93287 0.3918 0.0
C2391 C 0.5693 0.95842 0.40214 0.0
C2392 C 0.59865 0.96024 0.41068 0.0
H2393 H 0.3799 0.08761 0.40683 0.0
H2394 H 0.42982 0.05455 0.41553 0.0
C2395 C 0.62806 0.94047 0.40767 0.0
C2396 C 0.5418 0.98553 0.40276 0.0
H2397 H 0.52831 0.07252 0.39847 0.0
C2398 C 0.507 0.97524 0.40374 0.0
C2399 C 0.54953 0.02121 0.40091 0.0
C2400 C 0.58611 0.0341 0.39881 0.0
C2401 C 0.47978 0.99929 0.40246 0.0
C2402 C 0.48756 0.03491 0.40056 0.0
C2403 C 0.52236 0.04535 0.40011 0.0
C2404 C 0.46035 0.06081 0.39698 0.0
C2405 C 0.44302 0.98593 0.40229 0.0
C2406 C 0.46206 0.07779 0.3842 0.0
C2407 C 0.43407 0.09729 0.37943 0.0
C2408 C 0.40397 0.10044 0.38738 0.0
C2409 C 0.40321 0.08606 0.40065 0.0
C2410 C 0.43142 0.06662 0.40549 0.0
H2411 H 0.44191 0.95732 0.40104 0.0
H2412 H 0.43024 0.9926 0.41217 0.0
H2413 H 0.42799 0.998 0.3938 0.0
H2414 H 0.48408 0.07395 0.37745 0.0
H2415 H 0.43487 0.10762 0.36905 0.0
H2416 H 0.0818 0.40449 0.87054 0.0
H2417 H 0.03393 0.43982 0.87905 0.0
H2418 H 0.09294 0.46444 0.91553 0.0
H2419 H 0.14144 0.42958 0.90672 0.0
H2420 H 0.99197 0.44765 0.90117 0.0
H2421 H 0.08396 0.55849 0.89758 0.0
H2422 H 0.09494 0.51576 0.89151 0.0
H2423 H 0.09507 0.52506 0.90965 0.0
C2424 C 0.08388 0.41617 0.88066 0.0
C2425 C 0.11498 0.41412 0.88806 0.0
C2426 C 0.05663 0.43662 0.88549 0.0
C2427 C 0.06015 0.45565 0.89776 0.0
C2428 C 0.08993 0.45069 0.90588 0.0
H2429 H 0.87635 0.5901 0.90702 0.0
H2430 H 0.92513 0.5555 0.91576 0.0
C2431 C 0.11737 0.43029 0.90098 0.0
C2432 C 0.03457 0.48351 0.90083 0.0
H2433 H 0.02558 0.57173 0.90078 0.0
C2434 C 0.9993 0.47479 0.90139 0.0
C2435 C 0.04419 0.51901 0.90096 0.0
C2436 C 0.08152 0.53035 0.8998 0.0
C2437 C 0.97337 0.50038 0.90121 0.0
C2438 C 0.98297 0.53586 0.90086 0.0
C2439 C 0.01827 0.5446 0.90117 0.0
C2440 C 0.95728 0.56361 0.89777 0.0
C2441 C 0.93599 0.48901 0.90031 0.0
C2442 C 0.96036 0.58218 0.88538 0.0
C2443 C 0.93296 0.60248 0.88059 0.0
C2444 C 0.90215 0.60485 0.88815 0.0
C2445 C 0.9002 0.58915 0.90116 0.0
C2446 C 0.9278 0.56889 0.90602 0.0
H2447 H 0.93347 0.46078 0.89825 0.0
H2448 H 0.92282 0.49467 0.9102 0.0
H2449 H 0.92227 0.50329 0.89201 0.0
H2450 H 0.98283 0.57873 0.87885 0.0
H2451 H 0.9347 0.61383 0.87041 0.0
H2452 H 0.55691 0.15173 0.89871 0.0
H2453 H 0.52469 0.10005 0.9055 0.0
H2454 H 0.60182 0.03577 0.88602 0.0
H2455 H 0.63365 0.0878 0.87891 0.0
H2456 H 0.53792 0.02839 0.8748 0.0
H2457 H 0.52637 0.01752 0.93146 0.0
H2458 H 0.51676 0.06023 0.92521 0.0
H2459 H 0.55976 0.043 0.92323 0.0
C2460 C 0.56785 0.12647 0.8965 0.0
C2461 C 0.598 0.12362 0.8885 0.0
C2462 C 0.54943 0.0969 0.90041 0.0
C2463 C 0.56082 0.06392 0.89634 0.0
C2464 C 0.59266 0.06093 0.88937 0.0
H2465 H 0.45942 0.86563 0.89902 0.0
H2466 H 0.49321 0.91659 0.90574 0.0
C2467 C 0.61112 0.09062 0.88546 0.0
C2468 C 0.53644 0.03408 0.89686 0.0
H2469 H 0.4837 0.98683 0.91807 0.0
C2470 C 0.52639 0.01912 0.8843 0.0
C2471 C 0.52114 0.0221 0.90922 0.0
C2472 C 0.53178 0.03632 0.92306 0.0
C2473 C 0.5012 0.99298 0.8837 0.0
C2474 C 0.48502 0.98177 0.89599 0.0
C2475 C 0.49554 0.99606 0.90863 0.0
C2476 C 0.45921 0.95325 0.89572 0.0
C2477 C 0.49238 0.97724 0.86989 0.0
C2478 C 0.4276 0.95722 0.88867 0.0
C2479 C 0.40813 0.92805 0.88488 0.0
C2480 C 0.42002 0.89473 0.88819 0.0
C2481 C 0.44956 0.89117 0.89652 0.0
C2482 C 0.46894 0.92024 0.90032 0.0
H2483 H 0.51177 0.98403 0.86187 0.0
H2484 H 0.49077 0.94857 0.87063 0.0
H2485 H 0.46676 0.98701 0.86646 0.0
H2486 H 0.41958 0.98255 0.88508 0.0
H2487 H 0.38595 0.93138 0.87817 0.0
H2488 H 0.15023 0.57199 0.60289 0.0
H2489 H 0.09793 0.53982 0.59653 0.0
H2490 H 0.04301 0.58844 0.63009 0.0
H2491 H 0.09471 0.62189 0.63586 0.0
H2492 H 0.07317 0.49243 0.61131 0.0
H2493 H 0.96597 0.58429 0.60379 0.0
H2494 H 0.01051 0.59846 0.60412 0.0
H2495 H 0.98645 0.5934 0.61993 0.0
C2496 C 0.12636 0.5771 0.60839 0.0
C2497 C 0.1262 0.59981 0.61969 0.0
C2498 C 0.09656 0.55841 0.60488 0.0
C2499 C 0.06622 0.56149 0.61279 0.0
C2500 C 0.06552 0.58606 0.62353 0.0
H2501 H 0.93382 0.40298 0.64141 0.0
H2502 H 0.9836 0.43628 0.63338 0.0
C2503 C 0.09514 0.60536 0.62683 0.0
C2504 C 0.03761 0.53562 0.61125 0.0
H2505 H 0.94964 0.52698 0.61227 0.0
C2506 C 0.04616 0.50014 0.6112 0.0
C2507 C 1.00221 0.54517 0.61083 0.0
C2508 C 0.99084 0.58243 0.60951 0.0
C2509 C 0.02055 0.47424 0.61158 0.0
C2510 C 0.98528 0.48391 0.61257 0.0
C2511 C 0.97662 0.51929 0.61174 0.0
C2512 C 0.95728 0.45837 0.6157 0.0
C2513 C 0.03177 0.4368 0.61103 0.0
C2514 C 0.92578 0.45895 0.6084 0.0
C2515 C 0.89713 0.44012 0.61315 0.0
C2516 C 0.89965 0.42007 0.62515 0.0
C2517 C 0.93166 0.41742 0.63188 0.0
C2518 C 0.96015 0.43656 0.62726 0.0
H2519 H 0.05568 0.43386 0.60477 0.0
H2520 H 0.03785 0.42773 0.6216 0.0
H2521 H 0.01132 0.41987 0.6066 0.0
H2522 H 0.92276 0.47556 0.59949 0.0
H2523 H 0.87237 0.44321 0.60802 0.0
H2524 H 0.6073 0.93423 0.64586 0.0
H2525 H 0.5745 0.98407 0.63753 0.0
H2526 H 0.55689 0.9317 0.59885 0.0
H2527 H 0.58908 0.88112 0.60748 0.0
H2528 H 0.57369 0.02941 0.61673 0.0
H2529 H 0.45927 0.94207 0.61297 0.0
H2530 H 0.4998 0.92809 0.62031 0.0
H2531 H 0.49507 0.93157 0.60194 0.0
C2532 C 0.59759 0.93399 0.63538 0.0
C2533 C 0.60093 0.90424 0.62722 0.0
C2534 C 0.57863 0.96236 0.63064 0.0
C2535 C 0.56236 0.96131 0.6177 0.0
C2536 C 0.56845 0.93277 0.60901 0.0
H2537 H 0.44259 0.15306 0.60659 0.0
H2538 H 0.47664 0.10309 0.59878 0.0
C2539 C 0.58734 0.90418 0.61382 0.0
C2540 C 0.53641 0.9885 0.61424 0.0
H2541 H 0.44926 1.00144 0.61041 0.0
C2542 C 0.54655 0.02336 0.6151 0.0
C2543 C 0.50087 0.98051 0.61228 0.0
C2544 C 0.48789 0.94359 0.61192 0.0
C2545 C 0.52212 0.05033 0.61487 0.0
C2546 C 0.48647 0.04234 0.61319 0.0
C2547 C 0.47653 1.00757 0.61157 0.0
C2548 C 0.45903 0.06909 0.61507 0.0
C2549 C 0.53468 0.08685 0.61749 0.0
C2550 C 0.43501 0.06544 0.62587 0.0
C2551 C 0.41462 0.09356 0.62998 0.0
C2552 C 0.41809 0.12568 0.62339 0.0
C2553 C 0.4393 0.12833 0.61172 0.0
C2554 C 0.4592 0.09999 0.60742 0.0
H2555 H 0.56164 0.0874 0.62151 0.0
H2556 H 0.53428 0.10163 0.60769 0.0
H2557 H 0.51771 0.10031 0.62501 0.0
H2558 H 0.4341 0.04181 0.63188 0.0
H2559 H 0.39888 0.09118 0.63917 0.0
loop_
_geom_bond_atom_site_label_1
_geom_bond_atom_site_label_2
_geom_bond_distance
_geom_bond_site_symmetry_2
_ccdc_geom_bond_type
Zn0 N4 2.020 . S
Zn0 O8 2.019 . S
Zn0 N10 2.119 . S
Zn0 O18 1.975 . S
C1 N2 1.334 . S
C1 N5 1.336 . S
N2 C1 1.334 . S
N2 C3 1.334 . S
C3 N2 1.334 . S
C3 N4 1.336 . S
N4 Zn0 2.020 . S
N4 C3 1.336 . S
N4 N5 1.354 . S
N5 C1 1.336 . S
N5 N4 1.354 . S
N5 Zn9 2.020 . S
C6 O7 1.244 . S
C6 O30 1.257 . S
O7 C6 1.244 . S
O8 Zn0 2.019 . S
O8 C28 1.257 . S
Zn9 N5 2.020 . S
Zn9 O16 1.975 . S
Zn9 N25 2.119 . S
Zn9 O30 2.019 . S
N10 Zn0 2.119 . S
N10 C12 1.334 . S
N10 C13 1.328 . S
C11 C12 1.391 . S
C11 N14 1.329 . S
C11 H32 0.930 . S
C12 N10 1.334 . S
C12 C11 1.391 . S
C12 H19 0.930 . S
C13 N10 1.328 . S
C13 C15 1.392 . S
C13 H20 0.930 . S
N14 C11 1.329 . S
N14 C15 1.331 . S
C15 C13 1.392 . S
C15 N14 1.331 . S
O16 Zn9 1.975 . S
O16 C17 1.252 . S
C17 O16 1.252 . S
C17 O18 1.252 . S
O18 Zn0 1.975 . S
O18 C17 1.252 . S
H19 C12 0.930 . S
H20 C13 0.930 . S
C21 C22 1.392 . S
C21 N25 1.328 . S
C21 H27 0.930 . S
C22 C21 1.392 . S
C22 N26 1.331 . S
C23 C24 1.391 . S
C23 N26 1.329 . S
C23 H33 0.930 . S
C24 C23 1.391 . S
C24 N25 1.334 . S
C24 H31 0.930 . S
N25 Zn9 2.119 . S
N25 C21 1.328 . S
N25 C24 1.334 . S
N26 C22 1.331 . S
N26 C23 1.329 . S
H27 C21 0.930 . S
C28 O8 1.257 . S
C28 O29 1.244 . S
O29 C28 1.244 . S
O30 C6 1.257 . S
O30 Zn9 2.019 . S
H31 C24 0.930 . S
H32 C11 0.930 . S
H33 C23 0.930 . S
Zn34 N38 2.020 . S
Zn34 O42 2.019 . S
Zn34 N44 2.119 . S
Zn34 O52 1.975 . S
C35 N36 1.334 . S
C35 N39 1.336 . S
N36 C35 1.334 . S
N36 C37 1.334 . S
C37 N36 1.334 . S
C37 N38 1.336 . S
N38 Zn34 2.020 . S
N38 C37 1.336 . S
N38 N39 1.354 . S
N39 C35 1.336 . S
N39 N38 1.354 . S
N39 Zn43 2.020 . S
C40 O41 1.244 . S
C40 O64 1.257 . S
O41 C40 1.244 . S
O42 Zn34 2.019 . S
O42 C62 1.257 . S
Zn43 N39 2.020 . S
Zn43 O50 1.975 . S
Zn43 N59 2.119 . S
Zn43 O64 2.019 . S
N44 Zn34 2.119 . S
N44 C46 1.334 . S
N44 C47 1.328 . S
C45 C46 1.391 . S
C45 N48 1.329 . S
C45 H66 0.930 . S
C46 N44 1.334 . S
C46 C45 1.391 . S
C46 H53 0.930 . S
C47 N44 1.328 . S
C47 C49 1.392 . S
C47 H54 0.930 . S
N48 C45 1.329 . S
N48 C49 1.331 . S
C49 C47 1.392 . S
C49 N48 1.331 . S
O50 Zn43 1.975 . S
O50 C51 1.252 . S
C51 O50 1.252 . S
C51 O52 1.252 . S
O52 Zn34 1.975 . S
O52 C51 1.252 . S
H53 C46 0.930 . S
H54 C47 0.930 . S
C55 C56 1.392 . S
C55 N59 1.328 . S
C55 H61 0.930 . S
C56 C55 1.392 . S
C56 N60 1.331 . S
C57 C58 1.391 . S
C57 N60 1.329 . S
C57 H67 0.930 . S
C58 C57 1.391 . S
C58 N59 1.334 . S
C58 H65 0.930 . S
N59 Zn43 2.119 . S
N59 C55 1.328 . S
N59 C58 1.334 . S
N60 C56 1.331 . S
N60 C57 1.329 . S
H61 C55 0.930 . S
C62 O42 1.257 . S
C62 O63 1.244 . S
O63 C62 1.244 . S
O64 C40 1.257 . S
O64 Zn43 2.019 . S
H65 C58 0.930 . S
H66 C45 0.930 . S
H67 C57 0.930 . S
Zn68 N72 2.020 . S
Zn68 O76 2.019 . S
Zn68 N78 2.119 . S
Zn68 O86 1.975 . S
C69 N70 1.334 . S
C69 N73 1.336 . S
N70 C69 1.334 . S
N70 C71 1.334 . S
C71 N70 1.334 . S
C71 N72 1.336 . S
N72 Zn68 2.020 . S
N72 C71 1.336 . S
N72 N73 1.354 . S
N73 C69 1.336 . S
N73 N72 1.354 . S
N73 Zn77 2.020 . S
C74 O75 1.244 . S
C74 O98 1.257 . S
O75 C74 1.244 . S
O76 Zn68 2.019 . S
O76 C96 1.257 . S
Zn77 N73 2.020 . S
Zn77 O84 1.975 . S
Zn77 N93 2.119 . S
Zn77 O98 2.019 . S
N78 Zn68 2.119 . S
N78 C80 1.334 . S
N78 C81 1.328 . S
C79 C80 1.391 . S
C79 N82 1.329 . S
C79 H100 0.930 . S
C80 N78 1.334 . S
C80 C79 1.391 . S
C80 H87 0.930 . S
C81 N78 1.328 . S
C81 C83 1.392 . S
C81 H88 0.930 . S
N82 C79 1.329 . S
N82 C83 1.331 . S
C83 C81 1.392 . S
C83 N82 1.331 . S
O84 Zn77 1.975 . S
O84 C85 1.252 . S
C85 O84 1.252 . S
C85 O86 1.252 . S
O86 Zn68 1.975 . S
O86 C85 1.252 . S
H87 C80 0.930 . S
H88 C81 0.930 . S
C89 C90 1.392 . S
C89 N93 1.328 . S
C89 H95 0.930 . S
C90 C89 1.392 . S
C90 N94 1.331 . S
C91 C92 1.391 . S
C91 N94 1.329 . S
C91 H101 0.930 . S
C92 C91 1.391 . S
C92 N93 1.334 . S
C92 H99 0.930 . S
N93 Zn77 2.119 . S
N93 C89 1.328 . S
N93 C92 1.334 . S
N94 C90 1.331 . S
N94 C91 1.329 . S
H95 C89 0.930 . S
C96 O76 1.257 . S
C96 O97 1.244 . S
O97 C96 1.244 . S
O98 C74 1.257 . S
O98 Zn77 2.019 . S
H99 C92 0.930 . S
H100 C79 0.930 . S
H101 C91 0.930 . S
Zn102 N106 2.020 . S
Zn102 O110 2.019 . S
Zn102 N112 2.119 . S
Zn102 O120 1.975 . S
C103 N104 1.334 . S
C103 N107 1.336 . S
N104 C103 1.334 . S
N104 C105 1.334 . S
C105 N104 1.334 . S
C105 N106 1.336 . S
N106 Zn102 2.020 . S
N106 C105 1.336 . S
N106 N107 1.354 . S
N107 C103 1.336 . S
N107 N106 1.354 . S
N107 Zn111 2.020 . S
C108 O109 1.244 . S
C108 O132 1.257 . S
O109 C108 1.244 . S
O110 Zn102 2.019 . S
O110 C130 1.257 . S
Zn111 N107 2.020 . S
Zn111 O118 1.975 . S
Zn111 N127 2.119 . S
Zn111 O132 2.019 . S
N112 Zn102 2.119 . S
N112 C114 1.334 . S
N112 C115 1.328 . S
C113 C114 1.391 . S
C113 N116 1.329 . S
C113 H134 0.930 . S
C114 N112 1.334 . S
C114 C113 1.391 . S
C114 H121 0.930 . S
C115 N112 1.328 . S
C115 C117 1.392 . S
C115 H122 0.930 . S
N116 C113 1.329 . S
N116 C117 1.331 . S
C117 C115 1.392 . S
C117 N116 1.331 . S
O118 Zn111 1.975 . S
O118 C119 1.252 . S
C119 O118 1.252 . S
C119 O120 1.252 . S
O120 Zn102 1.975 . S
O120 C119 1.252 . S
H121 C114 0.930 . S
H122 C115 0.930 . S
C123 C124 1.392 . S
C123 N127 1.328 . S
C123 H129 0.930 . S
C124 C123 1.392 . S
C124 N128 1.331 . S
C125 C126 1.391 . S
C125 N128 1.329 . S
C125 H135 0.930 . S
C126 C125 1.391 . S
C126 N127 1.334 . S
C126 H133 0.930 . S
N127 Zn111 2.119 . S
N127 C123 1.328 . S
N127 C126 1.334 . S
N128 C124 1.331 . S
N128 C125 1.329 . S
H129 C123 0.930 . S
C130 O110 1.257 . S
C130 O131 1.244 . S
O131 C130 1.244 . S
O132 C108 1.257 . S
O132 Zn111 2.019 . S
H133 C126 0.930 . S
H134 C113 0.930 . S
H135 C125 0.930 . S
Zn136 N140 2.020 . S
Zn136 O144 2.019 . S
Zn136 N146 2.119 . S
Zn136 O154 1.975 . S
C137 N138 1.334 . S
C137 N141 1.336 . S
N138 C137 1.334 . S
N138 C139 1.334 . S
C139 N138 1.334 . S
C139 N140 1.336 . S
N140 Zn136 2.020 . S
N140 C139 1.336 . S
N140 N141 1.354 . S
N141 C137 1.336 . S
N141 N140 1.354 . S
N141 Zn145 2.020 . S
C142 O143 1.244 . S
C142 O166 1.257 . S
O143 C142 1.244 . S
O144 Zn136 2.019 . S
O144 C164 1.257 . S
Zn145 N141 2.020 . S
Zn145 O152 1.975 . S
Zn145 N161 2.119 . S
Zn145 O166 2.019 . S
N146 Zn136 2.119 . S
N146 C148 1.334 . S
N146 C149 1.328 . S
C147 C148 1.391 . S
C147 N150 1.329 . S
C147 H168 0.930 . S
C148 N146 1.334 . S
C148 C147 1.391 . S
C148 H155 0.930 . S
C149 N146 1.328 . S
C149 C151 1.392 . S
C149 H156 0.930 . S
N150 C147 1.329 . S
N150 C151 1.331 . S
C151 C149 1.392 . S
C151 N150 1.331 . S
O152 Zn145 1.975 . S
O152 C153 1.252 . S
C153 O152 1.252 . S
C153 O154 1.252 . S
O154 Zn136 1.975 . S
O154 C153 1.252 . S
H155 C148 0.930 . S
H156 C149 0.930 . S
C157 C158 1.392 . S
C157 N161 1.328 . S
C157 H163 0.930 . S
C158 C157 1.392 . S
C158 N162 1.331 . S
C159 C160 1.391 . S
C159 N162 1.329 . S
C159 H169 0.930 . S
C160 C159 1.391 . S
C160 N161 1.334 . S
C160 H167 0.930 . S
N161 Zn145 2.119 . S
N161 C157 1.328 . S
N161 C160 1.334 . S
N162 C158 1.331 . S
N162 C159 1.329 . S
H163 C157 0.930 . S
C164 O144 1.257 . S
C164 O165 1.244 . S
O165 C164 1.244 . S
O166 C142 1.257 . S
O166 Zn145 2.019 . S
H167 C160 0.930 . S
H168 C147 0.930 . S
H169 C159 0.930 . S
Zn170 N174 2.020 . S
Zn170 O178 2.019 . S
Zn170 N180 2.119 . S
Zn170 O188 1.975 . S
C171 N172 1.334 . S
C171 N175 1.336 . S
N172 C171 1.334 . S
N172 C173 1.334 . S
C173 N172 1.334 . S
C173 N174 1.336 . S
N174 Zn170 2.020 . S
N174 C173 1.336 . S
N174 N175 1.354 . S
N175 C171 1.336 . S
N175 N174 1.354 . S
N175 Zn179 2.020 . S
C176 O177 1.244 . S
C176 O200 1.257 . S
O177 C176 1.244 . S
O178 Zn170 2.019 . S
O178 C198 1.257 . S
Zn179 N175 2.020 . S
Zn179 O186 1.975 . S
Zn179 N195 2.119 . S
Zn179 O200 2.019 . S
N180 Zn170 2.119 . S
N180 C182 1.334 . S
N180 C183 1.328 . S
C181 C182 1.391 . S
C181 N184 1.329 . S
C181 H202 0.930 . S
C182 N180 1.334 . S
C182 C181 1.391 . S
C182 H189 0.930 . S
C183 N180 1.328 . S
C183 C185 1.392 . S
C183 H190 0.930 . S
N184 C181 1.329 . S
N184 C185 1.331 . S
C185 C183 1.392 . S
C185 N184 1.331 . S
O186 Zn179 1.975 . S
O186 C187 1.252 . S
C187 O186 1.252 . S
C187 O188 1.252 . S
O188 Zn170 1.975 . S
O188 C187 1.252 . S
H189 C182 0.930 . S
H190 C183 0.930 . S
C191 C192 1.392 . S
C191 N195 1.328 . S
C191 H197 0.930 . S
C192 C191 1.392 . S
C192 N196 1.331 . S
C193 C194 1.391 . S
C193 N196 1.329 . S
C193 H203 0.930 . S
C194 C193 1.391 . S
C194 N195 1.334 . S
C194 H201 0.930 . S
N195 Zn179 2.119 . S
N195 C191 1.328 . S
N195 C194 1.334 . S
N196 C192 1.331 . S
N196 C193 1.329 . S
H197 C191 0.930 . S
C198 O178 1.257 . S
C198 O199 1.244 . S
O199 C198 1.244 . S
O200 C176 1.257 . S
O200 Zn179 2.019 . S
H201 C194 0.930 . S
H202 C181 0.930 . S
H203 C193 0.930 . S
Zn204 N208 2.020 . S
Zn204 O212 2.019 . S
Zn204 N214 2.119 . S
Zn204 O222 1.975 . S
C205 N206 1.334 . S
C205 N209 1.336 . S
N206 C205 1.334 . S
N206 C207 1.334 . S
C207 N206 1.334 . S
C207 N208 1.336 . S
N208 Zn204 2.020 . S
N208 C207 1.336 . S
N208 N209 1.354 . S
N209 C205 1.336 . S
N209 N208 1.354 . S
N209 Zn213 2.020 . S
C210 O211 1.244 . S
C210 O234 1.257 . S
O211 C210 1.244 . S
O212 Zn204 2.019 . S
O212 C232 1.257 . S
Zn213 N209 2.020 . S
Zn213 O220 1.975 . S
Zn213 N229 2.119 . S
Zn213 O234 2.019 . S
N214 Zn204 2.119 . S
N214 C216 1.334 . S
N214 C217 1.328 . S
C215 C216 1.391 . S
C215 N218 1.329 . S
C215 H236 0.930 . S
C216 N214 1.334 . S
C216 C215 1.391 . S
C216 H223 0.930 . S
C217 N214 1.328 . S
C217 C219 1.392 . S
C217 H224 0.930 . S
N218 C215 1.329 . S
N218 C219 1.331 . S
C219 C217 1.392 . S
C219 N218 1.331 . S
O220 Zn213 1.975 . S
O220 C221 1.252 . S
C221 O220 1.252 . S
C221 O222 1.252 . S
O222 Zn204 1.975 . S
O222 C221 1.252 . S
H223 C216 0.930 . S
H224 C217 0.930 . S
C225 C226 1.392 . S
C225 N229 1.328 . S
C225 H231 0.930 . S
C226 C225 1.392 . S
C226 N230 1.331 . S
C227 C228 1.391 . S
C227 N230 1.329 . S
C227 H237 0.930 . S
C228 C227 1.391 . S
C228 N229 1.334 . S
C228 H235 0.930 . S
N229 Zn213 2.119 . S
N229 C225 1.328 . S
N229 C228 1.334 . S
N230 C226 1.331 . S
N230 C227 1.329 . S
H231 C225 0.930 . S
C232 O212 1.257 . S
C232 O233 1.244 . S
O233 C232 1.244 . S
O234 C210 1.257 . S
O234 Zn213 2.019 . S
H235 C228 0.930 . S
H236 C215 0.930 . S
H237 C227 0.930 . S
Zn238 N242 2.020 . S
Zn238 O246 2.019 . S
Zn238 N248 2.119 . S
Zn238 O256 1.975 . S
C239 N240 1.334 . S
C239 N243 1.336 . S
N240 C239 1.334 . S
N240 C241 1.334 . S
C241 N240 1.334 . S
C241 N242 1.336 . S
N242 Zn238 2.020 . S
N242 C241 1.336 . S
N242 N243 1.354 . S
N243 C239 1.336 . S
N243 N242 1.354 . S
N243 Zn247 2.020 . S
C244 O245 1.244 . S
C244 O268 1.257 . S
O245 C244 1.244 . S
O246 Zn238 2.019 . S
O246 C266 1.257 . S
Zn247 N243 2.020 . S
Zn247 O254 1.975 . S
Zn247 N263 2.119 . S
Zn247 O268 2.019 . S
N248 Zn238 2.119 . S
N248 C250 1.334 . S
N248 C251 1.328 . S
C249 C250 1.391 . S
C249 N252 1.329 . S
C249 H270 0.930 . S
C250 N248 1.334 . S
C250 C249 1.391 . S
C250 H257 0.930 . S
C251 N248 1.328 . S
C251 C253 1.392 . S
C251 H258 0.930 . S
N252 C249 1.329 . S
N252 C253 1.331 . S
C253 C251 1.392 . S
C253 N252 1.331 . S
O254 Zn247 1.975 . S
O254 C255 1.252 . S
C255 O254 1.252 . S
C255 O256 1.252 . S
O256 Zn238 1.975 . S
O256 C255 1.252 . S
H257 C250 0.930 . S
H258 C251 0.930 . S
C259 C260 1.392 . S
C259 N263 1.328 . S
C259 H265 0.930 . S
C260 C259 1.392 . S
C260 N264 1.331 . S
C261 C262 1.391 . S
C261 N264 1.329 . S
C261 H271 0.930 . S
C262 C261 1.391 . S
C262 N263 1.334 . S
C262 H269 0.930 . S
N263 Zn247 2.119 . S
N263 C259 1.328 . S
N263 C262 1.334 . S
N264 C260 1.331 . S
N264 C261 1.329 . S
H265 C259 0.930 . S
C266 O246 1.257 . S
C266 O267 1.244 . S
O267 C266 1.244 . S
O268 C244 1.257 . S
O268 Zn247 2.019 . S
H269 C262 0.930 . S
H270 C249 0.930 . S
H271 C261 0.930 . S
Zn272 N276 2.020 . S
Zn272 O280 2.019 . S
Zn272 N282 2.119 . S
Zn272 O290 1.975 . S
C273 N274 1.334 . S
C273 N277 1.336 . S
N274 C273 1.334 . S
N274 C275 1.334 . S
C275 N274 1.334 . S
C275 N276 1.336 . S
N276 Zn272 2.020 . S
N276 C275 1.336 . S
N276 N277 1.354 . S
N277 C273 1.336 . S
N277 N276 1.354 . S
N277 Zn281 2.020 . S
C278 O279 1.244 . S
C278 O302 1.257 . S
O279 C278 1.244 . S
O280 Zn272 2.019 . S
O280 C300 1.257 . S
Zn281 N277 2.020 . S
Zn281 O288 1.975 . S
Zn281 N297 2.119 . S
Zn281 O302 2.019 . S
N282 Zn272 2.119 . S
N282 C284 1.334 . S
N282 C285 1.328 . S
C283 C284 1.391 . S
C283 N286 1.329 . S
C283 H304 0.930 . S
C284 N282 1.334 . S
C284 C283 1.391 . S
C284 H291 0.930 . S
C285 N282 1.328 . S
C285 C287 1.392 . S
C285 H292 0.930 . S
N286 C283 1.329 . S
N286 C287 1.331 . S
C287 C285 1.392 . S
C287 N286 1.331 . S
O288 Zn281 1.975 . S
O288 C289 1.252 . S
C289 O288 1.252 . S
C289 O290 1.252 . S
O290 Zn272 1.975 . S
O290 C289 1.252 . S
H291 C284 0.930 . S
H292 C285 0.930 . S
C293 C294 1.392 . S
C293 N297 1.328 . S
C293 H299 0.930 . S
C294 C293 1.392 . S
C294 N298 1.331 . S
C295 C296 1.391 . S
C295 N298 1.329 . S
C295 H305 0.930 . S
C296 C295 1.391 . S
C296 N297 1.334 . S
C296 H303 0.930 . S
N297 Zn281 2.119 . S
N297 C293 1.328 . S
N297 C296 1.334 . S
N298 C294 1.331 . S
N298 C295 1.329 . S
H299 C293 0.930 . S
C300 O280 1.257 . S
C300 O301 1.244 . S
O301 C300 1.244 . S
O302 C278 1.257 . S
O302 Zn281 2.019 . S
H303 C296 0.930 . S
H304 C283 0.930 . S
H305 C295 0.930 . S
Zn306 N310 2.020 . S
Zn306 O314 2.019 . S
Zn306 N316 2.119 . S
Zn306 O324 1.975 . S
C307 N308 1.334 . S
C307 N311 1.336 . S
N308 C307 1.334 . S
N308 C309 1.334 . S
C309 N308 1.334 . S
C309 N310 1.336 . S
N310 Zn306 2.020 . S
N310 C309 1.336 . S
N310 N311 1.354 . S
N311 C307 1.336 . S
N311 N310 1.354 . S
N311 Zn315 2.020 . S
C312 O313 1.244 . S
C312 O336 1.257 . S
O313 C312 1.244 . S
O314 Zn306 2.019 . S
O314 C334 1.257 . S
Zn315 N311 2.020 . S
Zn315 O322 1.975 . S
Zn315 N331 2.119 . S
Zn315 O336 2.019 . S
N316 Zn306 2.119 . S
N316 C318 1.334 . S
N316 C319 1.328 . S
C317 C318 1.391 . S
C317 N320 1.329 . S
C317 H338 0.930 . S
C318 N316 1.334 . S
C318 C317 1.391 . S
C318 H325 0.930 . S
C319 N316 1.328 . S
C319 C321 1.392 . S
C319 H326 0.930 . S
N320 C317 1.329 . S
N320 C321 1.331 . S
C321 C319 1.392 . S
C321 N320 1.331 . S
O322 Zn315 1.975 . S
O322 C323 1.252 . S
C323 O322 1.252 . S
C323 O324 1.252 . S
O324 Zn306 1.975 . S
O324 C323 1.252 . S
H325 C318 0.930 . S
H326 C319 0.930 . S
C327 C328 1.392 . S
C327 N331 1.328 . S
C327 H333 0.930 . S
C328 C327 1.392 . S
C328 N332 1.331 . S
C329 C330 1.391 . S
C329 N332 1.329 . S
C329 H339 0.930 . S
C330 C329 1.391 . S
C330 N331 1.334 . S
C330 H337 0.930 . S
N331 Zn315 2.119 . S
N331 C327 1.328 . S
N331 C330 1.334 . S
N332 C328 1.331 . S
N332 C329 1.329 . S
H333 C327 0.930 . S
C334 O314 1.257 . S
C334 O335 1.244 . S
O335 C334 1.244 . S
O336 C312 1.257 . S
O336 Zn315 2.019 . S
H337 C330 0.930 . S
H338 C317 0.930 . S
H339 C329 0.930 . S
Zn340 N344 2.020 . S
Zn340 O348 2.019 . S
Zn340 N350 2.119 . S
Zn340 O358 1.975 . S
C341 N342 1.334 . S
C341 N345 1.336 . S
N342 C341 1.334 . S
N342 C343 1.334 . S
C343 N342 1.334 . S
C343 N344 1.336 . S
N344 Zn340 2.020 . S
N344 C343 1.336 . S
N344 N345 1.354 . S
N345 C341 1.336 . S
N345 N344 1.354 . S
N345 Zn349 2.020 . S
C346 O347 1.244 . S
C346 O370 1.257 . S
O347 C346 1.244 . S
O348 Zn340 2.019 . S
O348 C368 1.257 . S
Zn349 N345 2.020 . S
Zn349 O356 1.975 . S
Zn349 N365 2.119 . S
Zn349 O370 2.019 . S
N350 Zn340 2.119 . S
N350 C352 1.334 . S
N350 C353 1.328 . S
C351 C352 1.391 . S
C351 N354 1.329 . S
C351 H372 0.930 . S
C352 N350 1.334 . S
C352 C351 1.391 . S
C352 H359 0.930 . S
C353 N350 1.328 . S
C353 C355 1.392 . S
C353 H360 0.930 . S
N354 C351 1.329 . S
N354 C355 1.331 . S
C355 C353 1.392 . S
C355 N354 1.331 . S
O356 Zn349 1.975 . S
O356 C357 1.252 . S
C357 O356 1.252 . S
C357 O358 1.252 . S
O358 Zn340 1.975 . S
O358 C357 1.252 . S
H359 C352 0.930 . S
H360 C353 0.930 . S
C361 C362 1.392 . S
C361 N365 1.328 . S
C361 H367 0.930 . S
C362 C361 1.392 . S
C362 N366 1.331 . S
C363 C364 1.391 . S
C363 N366 1.329 . S
C363 H373 0.930 . S
C364 C363 1.391 . S
C364 N365 1.334 . S
C364 H371 0.930 . S
N365 Zn349 2.119 . S
N365 C361 1.328 . S
N365 C364 1.334 . S
N366 C362 1.331 . S
N366 C363 1.329 . S
H367 C361 0.930 . S
C368 O348 1.257 . S
C368 O369 1.244 . S
O369 C368 1.244 . S
O370 C346 1.257 . S
O370 Zn349 2.019 . S
H371 C364 0.930 . S
H372 C351 0.930 . S
H373 C363 0.930 . S
Zn374 N378 2.020 . S
Zn374 O382 2.019 . S
Zn374 N384 2.119 . S
Zn374 O392 1.975 . S
C375 N376 1.334 . S
C375 N379 1.336 . S
N376 C375 1.334 . S
N376 C377 1.334 . S
C377 N376 1.334 . S
C377 N378 1.336 . S
N378 Zn374 2.020 . S
N378 C377 1.336 . S
N378 N379 1.354 . S
N379 C375 1.336 . S
N379 N378 1.354 . S
N379 Zn383 2.020 . S
C380 O381 1.244 . S
C380 O404 1.257 . S
O381 C380 1.244 . S
O382 Zn374 2.019 . S
O382 C402 1.257 . S
Zn383 N379 2.020 . S
Zn383 O390 1.975 . S
Zn383 N399 2.119 . S
Zn383 O404 2.019 . S
N384 Zn374 2.119 . S
N384 C386 1.334 . S
N384 C387 1.328 . S
C385 C386 1.391 . S
C385 N388 1.329 . S
C385 H406 0.930 . S
C386 N384 1.334 . S
C386 C385 1.391 . S
C386 H393 0.930 . S
C387 N384 1.328 . S
C387 C389 1.392 . S
C387 H394 0.930 . S
N388 C385 1.329 . S
N388 C389 1.331 . S
C389 C387 1.392 . S
C389 N388 1.331 . S
O390 Zn383 1.975 . S
O390 C391 1.252 . S
C391 O390 1.252 . S
C391 O392 1.252 . S
O392 Zn374 1.975 . S
O392 C391 1.252 . S
H393 C386 0.930 . S
H394 C387 0.930 . S
C395 C396 1.392 . S
C395 N399 1.328 . S
C395 H401 0.930 . S
C396 C395 1.392 . S
C396 N400 1.331 . S
C397 C398 1.391 . S
C397 N400 1.329 . S
C397 H407 0.930 . S
C398 C397 1.391 . S
C398 N399 1.334 . S
C398 H405 0.930 . S
N399 Zn383 2.119 . S
N399 C395 1.328 . S
N399 C398 1.334 . S
N400 C396 1.331 . S
N400 C397 1.329 . S
H401 C395 0.930 . S
C402 O382 1.257 . S
C402 O403 1.244 . S
O403 C402 1.244 . S
O404 C380 1.257 . S
O404 Zn383 2.019 . S
H405 C398 0.930 . S
H406 C385 0.930 . S
H407 C397 0.930 . S
Zn408 N412 2.020 . S
Zn408 O416 2.019 . S
Zn408 N418 2.119 . S
Zn408 O426 1.975 . S
C409 N410 1.334 . S
C409 N413 1.336 . S
N410 C409 1.334 . S
N410 C411 1.334 . S
C411 N410 1.334 . S
C411 N412 1.336 . S
N412 Zn408 2.020 . S
N412 C411 1.336 . S
N412 N413 1.354 . S
N413 C409 1.336 . S
N413 N412 1.354 . S
N413 Zn417 2.020 . S
C414 O415 1.244 . S
C414 O438 1.257 . S
O415 C414 1.244 . S
O416 Zn408 2.019 . S
O416 C436 1.257 . S
Zn417 N413 2.020 . S
Zn417 O424 1.975 . S
Zn417 N433 2.119 . S
Zn417 O438 2.019 . S
N418 Zn408 2.119 . S
N418 C420 1.334 . S
N418 C421 1.328 . S
C419 C420 1.391 . S
C419 N422 1.329 . S
C419 H440 0.930 . S
C420 N418 1.334 . S
C420 C419 1.391 . S
C420 H427 0.930 . S
C421 N418 1.328 . S
C421 C423 1.392 . S
C421 H428 0.930 . S
N422 C419 1.329 . S
N422 C423 1.331 . S
C423 C421 1.392 . S
C423 N422 1.331 . S
O424 Zn417 1.975 . S
O424 C425 1.252 . S
C425 O424 1.252 . S
C425 O426 1.252 . S
O426 Zn408 1.975 . S
O426 C425 1.252 . S
H427 C420 0.930 . S
H428 C421 0.930 . S
C429 C430 1.392 . S
C429 N433 1.328 . S
C429 H435 0.930 . S
C430 C429 1.392 . S
C430 N434 1.331 . S
C431 C432 1.391 . S
C431 N434 1.329 . S
C431 H441 0.930 . S
C432 C431 1.391 . S
C432 N433 1.334 . S
C432 H439 0.930 . S
N433 Zn417 2.119 . S
N433 C429 1.328 . S
N433 C432 1.334 . S
N434 C430 1.331 . S
N434 C431 1.329 . S
H435 C429 0.930 . S
C436 O416 1.257 . S
C436 O437 1.244 . S
O437 C436 1.244 . S
O438 C414 1.257 . S
O438 Zn417 2.019 . S
H439 C432 0.930 . S
H440 C419 0.930 . S
H441 C431 0.930 . S
Zn442 N446 2.020 . S
Zn442 O450 2.019 . S
Zn442 N452 2.119 . S
Zn442 O460 1.975 . S
C443 N444 1.334 . S
C443 N447 1.336 . S
N444 C443 1.334 . S
N444 C445 1.334 . S
C445 N444 1.334 . S
C445 N446 1.336 . S
N446 Zn442 2.020 . S
N446 C445 1.336 . S
N446 N447 1.354 . S
N447 C443 1.336 . S
N447 N446 1.354 . S
N447 Zn451 2.020 . S
C448 O449 1.244 . S
C448 O472 1.257 . S
O449 C448 1.244 . S
O450 Zn442 2.019 . S
O450 C470 1.257 . S
Zn451 N447 2.020 . S
Zn451 O458 1.975 . S
Zn451 N467 2.119 . S
Zn451 O472 2.019 . S
N452 Zn442 2.119 . S
N452 C454 1.334 . S
N452 C455 1.328 . S
C453 C454 1.391 . S
C453 N456 1.329 . S
C453 H474 0.930 . S
C454 N452 1.334 . S
C454 C453 1.391 . S
C454 H461 0.930 . S
C455 N452 1.328 . S
C455 C457 1.392 . S
C455 H462 0.930 . S
N456 C453 1.329 . S
N456 C457 1.331 . S
C457 C455 1.392 . S
C457 N456 1.331 . S
O458 Zn451 1.975 . S
O458 C459 1.252 . S
C459 O458 1.252 . S
C459 O460 1.252 . S
O460 Zn442 1.975 . S
O460 C459 1.252 . S
H461 C454 0.930 . S
H462 C455 0.930 . S
C463 C464 1.392 . S
C463 N467 1.328 . S
C463 H469 0.930 . S
C464 C463 1.392 . S
C464 N468 1.331 . S
C465 C466 1.391 . S
C465 N468 1.329 . S
C465 H475 0.930 . S
C466 C465 1.391 . S
C466 N467 1.334 . S
C466 H473 0.930 . S
N467 Zn451 2.119 . S
N467 C463 1.328 . S
N467 C466 1.334 . S
N468 C464 1.331 . S
N468 C465 1.329 . S
H469 C463 0.930 . S
C470 O450 1.257 . S
C470 O471 1.244 . S
O471 C470 1.244 . S
O472 C448 1.257 . S
O472 Zn451 2.019 . S
H473 C466 0.930 . S
H474 C453 0.930 . S
H475 C465 0.930 . S
Zn476 N480 2.020 . S
Zn476 O484 2.019 . S
Zn476 N486 2.119 . S
Zn476 O494 1.975 . S
C477 N478 1.334 . S
C477 N481 1.336 . S
N478 C477 1.334 . S
N478 C479 1.334 . S
C479 N478 1.334 . S
C479 N480 1.336 . S
N480 Zn476 2.020 . S
N480 C479 1.336 . S
N480 N481 1.354 . S
N481 C477 1.336 . S
N481 N480 1.354 . S
N481 Zn485 2.020 . S
C482 O483 1.244 . S
C482 O506 1.257 . S
O483 C482 1.244 . S
O484 Zn476 2.019 . S
O484 C504 1.257 . S
Zn485 N481 2.020 . S
Zn485 O492 1.975 . S
Zn485 N501 2.119 . S
Zn485 O506 2.019 . S
N486 Zn476 2.119 . S
N486 C488 1.334 . S
N486 C489 1.328 . S
C487 C488 1.391 . S
C487 N490 1.329 . S
C487 H508 0.930 . S
C488 N486 1.334 . S
C488 C487 1.391 . S
C488 H495 0.930 . S
C489 N486 1.328 . S
C489 C491 1.392 . S
C489 H496 0.930 . S
N490 C487 1.329 . S
N490 C491 1.331 . S
C491 C489 1.392 . S
C491 N490 1.331 . S
O492 Zn485 1.975 . S
O492 C493 1.252 . S
C493 O492 1.252 . S
C493 O494 1.252 . S
O494 Zn476 1.975 . S
O494 C493 1.252 . S
H495 C488 0.930 . S
H496 C489 0.930 . S
C497 C498 1.392 . S
C497 N501 1.328 . S
C497 H503 0.930 . S
C498 C497 1.392 . S
C498 N502 1.331 . S
C499 C500 1.391 . S
C499 N502 1.329 . S
C499 H509 0.930 . S
C500 C499 1.391 . S
C500 N501 1.334 . S
C500 H507 0.930 . S
N501 Zn485 2.119 . S
N501 C497 1.328 . S
N501 C500 1.334 . S
N502 C498 1.331 . S
N502 C499 1.329 . S
H503 C497 0.930 . S
C504 O484 1.257 . S
C504 O505 1.244 . S
O505 C504 1.244 . S
O506 C482 1.257 . S
O506 Zn485 2.019 . S
H507 C500 0.930 . S
H508 C487 0.930 . S
H509 C499 0.930 . S
Zn510 N514 2.020 . S
Zn510 O518 2.019 . S
Zn510 N520 2.119 . S
Zn510 O528 1.975 . S
C511 N512 1.334 . S
C511 N515 1.336 . S
N512 C511 1.334 . S
N512 C513 1.334 . S
C513 N512 1.334 . S
C513 N514 1.336 . S
N514 Zn510 2.020 . S
N514 C513 1.336 . S
N514 N515 1.354 . S
N515 C511 1.336 . S
N515 N514 1.354 . S
N515 Zn519 2.020 . S
C516 O517 1.244 . S
C516 O540 1.257 . S
O517 C516 1.244 . S
O518 Zn510 2.019 . S
O518 C538 1.257 . S
Zn519 N515 2.020 . S
Zn519 O526 1.975 . S
Zn519 N535 2.119 . S
Zn519 O540 2.019 . S
N520 Zn510 2.119 . S
N520 C522 1.334 . S
N520 C523 1.328 . S
C521 C522 1.391 . S
C521 N524 1.329 . S
C521 H542 0.930 . S
C522 N520 1.334 . S
C522 C521 1.391 . S
C522 H529 0.930 . S
C523 N520 1.328 . S
C523 C525 1.392 . S
C523 H530 0.930 . S
N524 C521 1.329 . S
N524 C525 1.331 . S
C525 C523 1.392 . S
C525 N524 1.331 . S
O526 Zn519 1.975 . S
O526 C527 1.252 . S
C527 O526 1.252 . S
C527 O528 1.252 . S
O528 Zn510 1.975 . S
O528 C527 1.252 . S
H529 C522 0.930 . S
H530 C523 0.930 . S
C531 C532 1.392 . S
C531 N535 1.328 . S
C531 H537 0.930 . S
C532 C531 1.392 . S
C532 N536 1.331 . S
C533 C534 1.391 . S
C533 N536 1.329 . S
C533 H543 0.930 . S
C534 C533 1.391 . S
C534 N535 1.334 . S
C534 H541 0.930 . S
N535 Zn519 2.119 . S
N535 C531 1.328 . S
N535 C534 1.334 . S
N536 C532 1.331 . S
N536 C533 1.329 . S
H537 C531 0.930 . S
C538 O518 1.257 . S
C538 O539 1.244 . S
O539 C538 1.244 . S
O540 C516 1.257 . S
O540 Zn519 2.019 . S
H541 C534 0.930 . S
H542 C521 0.930 . S
H543 C533 0.930 . S
H544 C552 0.929 . S
H545 C554 0.930 . S
H546 C556 0.930 . S
H547 C559 0.929 . S
H548 C562 0.930 . S
H549 C564 0.960 . S
H550 C564 0.960 . S
H551 C564 0.960 . S
C552 H544 0.929 . S
C552 C553 1.377 . S
C552 C554 1.384 . S
C553 C552 1.377 . S
C553 C559 1.390 . S
C554 H545 0.930 . S
C554 C552 1.384 . S
C554 C555 1.372 . S
C555 C554 1.372 . S
C555 C556 1.400 . S
C555 C560 1.490 . S
C556 H546 0.930 . S
C556 C555 1.400 . S
C556 C559 1.386 . S
H557 C573 0.930 . S
H558 C574 0.931 . S
C559 H547 0.929 . S
C559 C553 1.390 . S
C559 C556 1.386 . S
C560 C555 1.490 . S
C560 C562 1.395 . S
C560 C563 1.403 . S
H561 C567 0.930 . S
C562 H548 0.930 . S
C562 C560 1.395 . S
C562 C565 1.403 1_554 S
C563 C560 1.403 . S
C563 C564 1.524 . S
C563 C567 1.400 1_554 S
C564 H549 0.960 . S
C564 H550 0.960 . S
C564 H551 0.960 . S
C564 C563 1.524 . S
C565 C562 1.403 1_556 S
C565 C566 1.392 . S
C565 C569 1.495 . S
C566 C565 1.392 . S
C566 C567 1.385 . S
C566 C568 1.478 . S
C567 H561 0.930 . S
C567 C563 1.400 1_556 S
C567 C566 1.385 . S
C568 C566 1.478 . S
C568 C570 1.381 . S
C568 C574 1.383 . S
C569 C565 1.495 . S
C569 H575 0.959 . S
C569 H576 0.961 . S
C569 H577 0.960 . S
C570 C568 1.381 . S
C570 C571 1.394 . S
C570 H578 0.930 . S
C571 C570 1.394 . S
C571 C572 1.383 . S
C571 H579 0.929 . S
C572 C571 1.383 . S
C572 C573 1.377 . S
C573 H557 0.930 . S
C573 C572 1.377 . S
C573 C574 1.379 . S
C574 H558 0.931 . S
C574 C568 1.383 . S
C574 C573 1.379 . S
H575 C569 0.959 . S
H576 C569 0.961 . S
H577 C569 0.960 . S
H578 C570 0.930 . S
H579 C571 0.929 . S
H580 C588 0.929 . S
H581 C590 0.930 . S
H582 C592 0.930 . S
H583 C595 0.929 . S
H584 C598 0.930 . S
H585 C600 0.960 . S
H586 C600 0.960 . S
H587 C600 0.960 . S
C588 H580 0.929 . S
C588 C589 1.377 . S
C588 C590 1.384 . S
C589 C588 1.377 . S
C589 C595 1.390 . S
C590 H581 0.930 . S
C590 C588 1.384 . S
C590 C591 1.372 . S
C591 C590 1.372 . S
C591 C592 1.400 . S
C591 C596 1.490 . S
C592 H582 0.930 . S
C592 C591 1.400 . S
C592 C595 1.386 . S
H593 C609 0.930 . S
H594 C610 0.931 . S
C595 H583 0.929 . S
C595 C589 1.390 . S
C595 C592 1.386 . S
C596 C591 1.490 . S
C596 C598 1.395 . S
C596 C599 1.403 . S
H597 C603 0.930 . S
C598 H584 0.930 . S
C598 C596 1.395 . S
C598 C601 1.403 1_554 S
C599 C596 1.403 . S
C599 C600 1.524 . S
C599 C603 1.400 1_554 S
C600 H585 0.960 . S
C600 H586 0.960 . S
C600 H587 0.960 . S
C600 C599 1.524 . S
C601 C598 1.403 1_556 S
C601 C602 1.392 . S
C601 C605 1.495 . S
C602 C601 1.392 . S
C602 C603 1.385 . S
C602 C604 1.478 . S
C603 H597 0.930 . S
C603 C599 1.400 1_556 S
C603 C602 1.385 . S
C604 C602 1.478 . S
C604 C606 1.381 . S
C604 C610 1.383 . S
C605 C601 1.495 . S
C605 H611 0.959 . S
C605 H612 0.961 . S
C605 H613 0.960 . S
C606 C604 1.381 . S
C606 C607 1.394 . S
C606 H614 0.930 . S
C607 C606 1.394 . S
C607 C608 1.383 . S
C607 H615 0.929 . S
C608 C607 1.383 . S
C608 C609 1.377 . S
C609 H593 0.930 . S
C609 C608 1.377 . S
C609 C610 1.379 . S
C610 H594 0.931 . S
C610 C604 1.383 . S
C610 C609 1.379 . S
H611 C605 0.959 . S
H612 C605 0.961 . S
H613 C605 0.960 . S
H614 C606 0.930 . S
H615 C607 0.929 . S
H616 C624 0.929 . S
H617 C626 0.930 . S
H618 C628 0.930 . S
H619 C631 0.929 . S
H620 C634 0.930 . S
H621 C636 0.960 . S
H622 C636 0.960 . S
H623 C636 0.960 . S
C624 H616 0.929 . S
C624 C625 1.377 . S
C624 C626 1.384 . S
C625 C624 1.377 . S
C625 C631 1.390 . S
C626 H617 0.930 . S
C626 C624 1.384 . S
C626 C627 1.372 . S
C627 C626 1.372 . S
C627 C628 1.400 . S
C627 C632 1.490 . S
C628 H618 0.930 . S
C628 C627 1.400 . S
C628 C631 1.386 . S
H629 C645 0.930 . S
H630 C646 0.931 . S
C631 H619 0.929 . S
C631 C625 1.390 . S
C631 C628 1.386 . S
C632 C627 1.490 . S
C632 C634 1.395 . S
C632 C635 1.403 . S
H633 C639 0.930 . S
C634 H620 0.930 . S
C634 C632 1.395 . S
C634 C637 1.403 1_556 S
C635 C632 1.403 . S
C635 C636 1.524 . S
C635 C639 1.400 1_556 S
C636 H621 0.960 . S
C636 H622 0.960 . S
C636 H623 0.960 . S
C636 C635 1.524 . S
C637 C634 1.403 1_554 S
C637 C638 1.392 . S
C637 C641 1.495 . S
C638 C637 1.392 . S
C638 C639 1.385 . S
C638 C640 1.478 . S
C639 H633 0.930 . S
C639 C635 1.400 1_554 S
C639 C638 1.385 . S
C640 C638 1.478 . S
C640 C642 1.381 . S
C640 C646 1.383 . S
C641 C637 1.495 . S
C641 H647 0.959 . S
C641 H648 0.961 . S
C641 H649 0.960 . S
C642 C640 1.381 . S
C642 C643 1.394 . S
C642 H650 0.930 . S
C643 C642 1.394 . S
C643 C644 1.383 . S
C643 H651 0.929 . S
C644 C643 1.383 . S
C644 C645 1.377 . S
C645 H629 0.930 . S
C645 C644 1.377 . S
C645 C646 1.379 . S
C646 H630 0.931 . S
C646 C640 1.383 . S
C646 C645 1.379 . S
H647 C641 0.959 . S
H648 C641 0.961 . S
H649 C641 0.960 . S
H650 C642 0.930 . S
H651 C643 0.929 . S
H652 C660 0.929 . S
H653 C662 0.930 . S
H654 C664 0.930 . S
H655 C667 0.929 . S
H656 C670 0.930 . S
H657 C672 0.960 . S
H658 C672 0.960 . S
H659 C672 0.960 . S
C660 H652 0.929 . S
C660 C661 1.377 . S
C660 C662 1.384 . S
C661 C660 1.377 . S
C661 C667 1.390 . S
C662 H653 0.930 . S
C662 C660 1.384 . S
C662 C663 1.372 . S
C663 C662 1.372 . S
C663 C664 1.400 . S
C663 C668 1.490 . S
C664 H654 0.930 . S
C664 C663 1.400 . S
C664 C667 1.386 . S
H665 C681 0.930 . S
H666 C682 0.931 . S
C667 H655 0.929 . S
C667 C661 1.390 . S
C667 C664 1.386 . S
C668 C663 1.490 . S
C668 C670 1.395 . S
C668 C671 1.403 . S
H669 C675 0.930 . S
C670 H656 0.930 . S
C670 C668 1.395 . S
C670 C673 1.403 1_556 S
C671 C668 1.403 . S
C671 C672 1.524 . S
C671 C675 1.400 1_556 S
C672 H657 0.960 . S
C672 H658 0.960 . S
C672 H659 0.960 . S
C672 C671 1.524 . S
C673 C670 1.403 1_554 S
C673 C674 1.392 . S
C673 C677 1.495 . S
C674 C673 1.392 . S
C674 C675 1.385 . S
C674 C676 1.478 . S
C675 H669 0.930 . S
C675 C671 1.400 1_554 S
C675 C674 1.385 . S
C676 C674 1.478 . S
C676 C678 1.381 . S
C676 C682 1.383 . S
C677 C673 1.495 . S
C677 H683 0.959 . S
C677 H684 0.961 . S
C677 H685 0.960 . S
C678 C676 1.381 . S
C678 C679 1.394 . S
C678 H686 0.930 . S
C679 C678 1.394 . S
C679 C680 1.383 . S
C679 H687 0.929 . S
C680 C679 1.383 . S
C680 C681 1.377 . S
C681 H665 0.930 . S
C681 C680 1.377 . S
C681 C682 1.379 . S
C682 H666 0.931 . S
C682 C676 1.383 . S
C682 C681 1.379 . S
H683 C677 0.959 . S
H684 C677 0.961 . S
H685 C677 0.960 . S
H686 C678 0.930 . S
H687 C679 0.929 . S
H688 C696 0.929 . S
H689 C698 0.930 . S
H690 C700 0.930 . S
H691 C703 0.929 . S
H692 C706 0.930 . S
H693 C708 0.960 . S
H694 C708 0.960 . S
H695 C708 0.960 . S
C696 H688 0.929 . S
C696 C697 1.377 . S
C696 C698 1.384 . S
C697 C696 1.377 . S
C697 C703 1.390 . S
C698 H689 0.930 . S
C698 C696 1.384 . S
C698 C699 1.372 . S
C699 C698 1.372 . S
C699 C700 1.400 . S
C699 C704 1.490 . S
C700 H690 0.930 . S
C700 C699 1.400 . S
C700 C703 1.386 . S
H701 C717 0.930 . S
H702 C718 0.931 . S
C703 H691 0.929 . S
C703 C697 1.390 . S
C703 C700 1.386 . S
C704 C699 1.490 . S
C704 C706 1.395 . S
C704 C707 1.403 . S
H705 C711 0.930 . S
C706 H692 0.930 . S
C706 C704 1.395 . S
C706 C709 1.403 . S
C707 C704 1.403 . S
C707 C708 1.524 . S
C707 C711 1.400 . S
C708 H693 0.960 . S
C708 H694 0.960 . S
C708 H695 0.960 . S
C708 C707 1.524 . S
C709 C706 1.403 . S
C709 C710 1.392 . S
C709 C713 1.495 . S
C710 C709 1.392 . S
C710 C711 1.385 . S
C710 C712 1.478 . S
C711 H705 0.930 . S
C711 C707 1.400 . S
C711 C710 1.385 . S
C712 C710 1.478 . S
C712 C714 1.381 . S
C712 C718 1.383 . S
C713 C709 1.495 . S
C713 H719 0.959 . S
C713 H720 0.961 . S
C713 H721 0.960 . S
C714 C712 1.381 . S
C714 C715 1.394 . S
C714 H722 0.930 . S
C715 C714 1.394 . S
C715 C716 1.383 . S
C715 H723 0.929 . S
C716 C715 1.383 . S
C716 C717 1.377 . S
C717 H701 0.930 . S
C717 C716 1.377 . S
C717 C718 1.379 . S
C718 H702 0.931 . S
C718 C712 1.383 . S
C718 C717 1.379 . S
H719 C713 0.959 . S
H720 C713 0.961 . S
H721 C713 0.960 . S
H722 C714 0.930 . S
H723 C715 0.929 . S
H724 C732 0.929 . S
H725 C734 0.930 . S
H726 C736 0.930 . S
H727 C739 0.929 . S
H728 C742 0.930 . S
H729 C744 0.960 . S
H730 C744 0.960 . S
H731 C744 0.960 . S
C732 H724 0.929 . S
C732 C733 1.377 . S
C732 C734 1.384 . S
C733 C732 1.377 . S
C733 C739 1.390 . S
C734 H725 0.930 . S
C734 C732 1.384 . S
C734 C735 1.372 . S
C735 C734 1.372 . S
C735 C736 1.400 . S
C735 C740 1.490 . S
C736 H726 0.930 . S
C736 C735 1.400 . S
C736 C739 1.386 . S
H737 C753 0.930 . S
H738 C754 0.931 . S
C739 H727 0.929 . S
C739 C733 1.390 . S
C739 C736 1.386 . S
C740 C735 1.490 . S
C740 C742 1.395 . S
C740 C743 1.403 . S
H741 C747 0.930 . S
C742 H728 0.930 . S
C742 C740 1.395 . S
C742 C745 1.403 . S
C743 C740 1.403 . S
C743 C744 1.524 . S
C743 C747 1.400 . S
C744 H729 0.960 . S
C744 H730 0.960 . S
C744 H731 0.960 . S
C744 C743 1.524 . S
C745 C742 1.403 . S
C745 C746 1.392 . S
C745 C749 1.495 . S
C746 C745 1.392 . S
C746 C747 1.385 . S
C746 C748 1.478 . S
C747 H741 0.930 . S
C747 C743 1.400 . S
C747 C746 1.385 . S
C748 C746 1.478 . S
C748 C750 1.381 . S
C748 C754 1.383 . S
C749 C745 1.495 . S
C749 H755 0.959 . S
C749 H756 0.961 . S
C749 H757 0.960 . S
C750 C748 1.381 . S
C750 C751 1.394 . S
C750 H758 0.930 . S
C751 C750 1.394 . S
C751 C752 1.383 . S
C751 H759 0.929 . S
C752 C751 1.383 . S
C752 C753 1.377 . S
C753 H737 0.930 . S
C753 C752 1.377 . S
C753 C754 1.379 . S
C754 H738 0.931 . S
C754 C748 1.383 . S
C754 C753 1.379 . S
H755 C749 0.959 . S
H756 C749 0.961 . S
H757 C749 0.960 . S
H758 C750 0.930 . S
H759 C751 0.929 . S
H760 C768 0.929 . S
H761 C770 0.930 . S
H762 C772 0.930 . S
H763 C775 0.929 . S
H764 C778 0.930 . S
H765 C780 0.960 . S
H766 C780 0.960 . S
H767 C780 0.960 . S
C768 H760 0.929 . S
C768 C769 1.377 . S
C768 C770 1.384 . S
C769 C768 1.377 . S
C769 C775 1.390 . S
C770 H761 0.930 . S
C770 C768 1.384 . S
C770 C771 1.372 . S
C771 C770 1.372 . S
C771 C772 1.400 . S
C771 C776 1.490 . S
C772 H762 0.930 . S
C772 C771 1.400 . S
C772 C775 1.386 . S
H773 C789 0.930 . S
H774 C790 0.931 . S
C775 H763 0.929 . S
C775 C769 1.390 . S
C775 C772 1.386 . S
C776 C771 1.490 . S
C776 C778 1.395 . S
C776 C779 1.403 . S
H777 C783 0.930 . S
C778 H764 0.930 . S
C778 C776 1.395 . S
C778 C781 1.403 . S
C779 C776 1.403 . S
C779 C780 1.524 . S
C779 C783 1.400 . S
C780 H765 0.960 . S
C780 H766 0.960 . S
C780 H767 0.960 . S
C780 C779 1.524 . S
C781 C778 1.403 . S
C781 C782 1.392 . S
C781 C785 1.495 . S
C782 C781 1.392 . S
C782 C783 1.385 . S
C782 C784 1.478 . S
C783 H777 0.930 . S
C783 C779 1.400 . S
C783 C782 1.385 . S
C784 C782 1.478 . S
C784 C786 1.381 . S
C784 C790 1.383 . S
C785 C781 1.495 . S
C785 H791 0.959 . S
C785 H792 0.961 . S
C785 H793 0.960 . S
C786 C784 1.381 . S
C786 C787 1.394 . S
C786 H794 0.930 . S
C787 C786 1.394 . S
C787 C788 1.383 . S
C787 H795 0.929 . S
C788 C787 1.383 . S
C788 C789 1.377 . S
C789 H773 0.930 . S
C789 C788 1.377 . S
C789 C790 1.379 . S
C790 H774 0.931 . S
C790 C784 1.383 . S
C790 C789 1.379 . S
H791 C785 0.959 . S
H792 C785 0.961 . S
H793 C785 0.960 . S
H794 C786 0.930 . S
H795 C787 0.929 . S
H796 C804 0.929 . S
H797 C806 0.930 . S
H798 C808 0.930 . S
H799 C811 0.929 . S
H800 C814 0.930 . S
H801 C816 0.960 . S
H802 C816 0.960 . S
H803 C816 0.960 . S
C804 H796 0.929 . S
C804 C805 1.377 . S
C804 C806 1.384 . S
C805 C804 1.377 . S
C805 C811 1.390 . S
C806 H797 0.930 . S
C806 C804 1.384 . S
C806 C807 1.372 . S
C807 C806 1.372 . S
C807 C808 1.400 . S
C807 C812 1.490 . S
C808 H798 0.930 . S
C808 C807 1.400 . S
C808 C811 1.386 . S
H809 C825 0.930 . S
H810 C826 0.931 . S
C811 H799 0.929 . S
C811 C805 1.390 . S
C811 C808 1.386 . S
C812 C807 1.490 . S
C812 C814 1.395 . S
C812 C815 1.403 . S
H813 C819 0.930 . S
C814 H800 0.930 . S
C814 C812 1.395 . S
C814 C817 1.403 . S
C815 C812 1.403 . S
C815 C816 1.524 . S
C815 C819 1.400 . S
C816 H801 0.960 . S
C816 H802 0.960 . S
C816 H803 0.960 . S
C816 C815 1.524 . S
C817 C814 1.403 . S
C817 C818 1.392 . S
C817 C821 1.495 . S
C818 C817 1.392 . S
C818 C819 1.385 . S
C818 C820 1.478 . S
C819 H813 0.930 . S
C819 C815 1.400 . S
C819 C818 1.385 . S
C820 C818 1.478 . S
C820 C822 1.381 . S
C820 C826 1.383 . S
C821 C817 1.495 . S
C821 H827 0.959 . S
C821 H828 0.961 . S
C821 H829 0.960 . S
C822 C820 1.381 . S
C822 C823 1.394 . S
C822 H830 0.930 . S
C823 C822 1.394 . S
C823 C824 1.383 . S
C823 H831 0.929 . S
C824 C823 1.383 . S
C824 C825 1.377 . S
C825 H809 0.930 . S
C825 C824 1.377 . S
C825 C826 1.379 . S
C826 H810 0.931 . S
C826 C820 1.383 . S
C826 C825 1.379 . S
H827 C821 0.959 . S
H828 C821 0.961 . S
H829 C821 0.960 . S
H830 C822 0.930 . S
H831 C823 0.929 . S
H832 C840 0.929 . S
H833 C842 0.930 . S
H834 C844 0.930 . S
H835 C847 0.929 . S
H836 C850 0.930 . S
H837 C852 0.949 1_545 S
H838 C852 0.960 . S
H839 C852 0.960 . S
C840 H832 0.929 . S
C840 C841 1.377 . S
C840 C842 1.384 . S
C841 C840 1.377 . S
C841 C847 1.390 . S
C842 H833 0.930 . S
C842 C840 1.384 . S
C842 C843 1.372 . S
C843 C842 1.372 . S
C843 C844 1.400 . S
C843 C848 1.490 1_565 S
C844 H834 0.930 . S
C844 C843 1.400 . S
C844 C847 1.386 . S
H845 C861 0.930 . S
H846 C862 0.931 . S
C847 H835 0.929 . S
C847 C841 1.390 . S
C847 C844 1.386 . S
C848 C843 1.490 1_545 S
C848 C850 1.395 . S
C848 C851 1.403 . S
H849 C855 0.930 . S
C850 H836 0.930 . S
C850 C848 1.395 . S
C850 C853 1.403 . S
C851 C848 1.403 . S
C851 C852 1.524 1_545 S
C851 C855 1.400 . S
C852 H837 0.949 1_565 S
C852 H838 0.960 . S
C852 H839 0.960 . S
C852 C851 1.524 1_565 S
C853 C850 1.403 . S
C853 C854 1.392 . S
C853 C857 1.495 . S
C854 C853 1.392 . S
C854 C855 1.385 . S
C854 C856 1.478 . S
C855 H849 0.930 . S
C855 C851 1.400 . S
C855 C854 1.385 . S
C856 C854 1.478 . S
C856 C858 1.381 . S
C856 C862 1.383 . S
C857 C853 1.495 . S
C857 H863 0.959 . S
C857 H864 0.961 . S
C857 H865 0.960 . S
C858 C856 1.381 . S
C858 C859 1.394 . S
C858 H866 0.930 . S
C859 C858 1.394 . S
C859 C860 1.383 . S
C859 H867 0.929 . S
C860 C859 1.383 . S
C860 C861 1.377 . S
C861 H845 0.930 . S
C861 C860 1.377 . S
C861 C862 1.379 . S
C862 H846 0.931 . S
C862 C856 1.383 . S
C862 C861 1.379 . S
H863 C857 0.959 . S
H864 C857 0.961 . S
H865 C857 0.960 . S
H866 C858 0.930 . S
H867 C859 0.929 . S
H868 C876 0.929 . S
H869 C878 0.930 . S
H870 C880 0.930 . S
H871 C883 0.929 . S
H872 C886 0.930 1_455 S
H873 C888 0.960 . S
H874 C888 0.960 . S
H875 C888 0.960 . S
C876 H868 0.929 . S
C876 C877 1.377 . S
C876 C878 1.384 . S
C877 C876 1.377 . S
C877 C883 1.390 . S
C878 H869 0.930 . S
C878 C876 1.384 . S
C878 C879 1.372 . S
C879 C878 1.372 . S
C879 C880 1.400 . S
C879 C884 1.490 1_455 S
C880 H870 0.930 . S
C880 C879 1.400 . S
C880 C883 1.386 . S
H881 C897 0.930 . S
H882 C898 0.931 . S
C883 H871 0.929 . S
C883 C877 1.390 . S
C883 C880 1.386 . S
C884 C879 1.490 1_655 S
C884 C886 1.395 . S
C884 C887 1.403 . S
H885 C891 0.930 . S
C886 H872 0.930 1_655 S
C886 C884 1.395 . S
C886 C889 1.403 . S
C887 C884 1.403 . S
C887 C888 1.524 . S
C887 C891 1.400 . S
C888 H873 0.960 . S
C888 H874 0.960 . S
C888 H875 0.960 . S
C888 C887 1.524 . S
C889 C886 1.403 . S
C889 C890 1.392 . S
C889 C893 1.495 . S
C890 C889 1.392 . S
C890 C891 1.385 . S
C890 C892 1.478 . S
C891 H885 0.930 . S
C891 C887 1.400 . S
C891 C890 1.385 . S
C892 C890 1.478 . S
C892 C894 1.381 . S
C892 C898 1.383 . S
C893 C889 1.495 . S
C893 H899 0.959 . S
C893 H900 0.961 . S
C893 H901 0.960 . S
C894 C892 1.381 . S
C894 C895 1.394 . S
C894 H902 0.930 . S
C895 C894 1.394 . S
C895 C896 1.383 . S
C895 H903 0.929 . S
C896 C895 1.383 . S
C896 C897 1.377 . S
C897 H881 0.930 . S
C897 C896 1.377 . S
C897 C898 1.379 . S
C898 H882 0.931 . S
C898 C892 1.383 . S
C898 C897 1.379 . S
H899 C893 0.959 . S
H900 C893 0.961 . S
H901 C893 0.960 . S
H902 C894 0.930 . S
H903 C895 0.929 . S
H904 C912 0.929 . S
H905 C914 0.930 . S
H906 C916 0.930 . S
H907 C919 0.929 . S
H908 C922 0.930 . S
H909 C924 0.960 . S
H910 C924 0.960 . S
H911 C924 0.960 . S
C912 H904 0.929 . S
C912 C913 1.377 . S
C912 C914 1.384 . S
C913 C912 1.377 . S
C913 C919 1.390 . S
C914 H905 0.930 . S
C914 C912 1.384 . S
C914 C915 1.372 . S
C915 C914 1.372 . S
C915 C916 1.400 . S
C915 C920 1.490 . S
C916 H906 0.930 . S
C916 C915 1.400 . S
C916 C919 1.386 . S
H917 C933 0.930 . S
H918 C934 0.931 . S
C919 H907 0.929 . S
C919 C913 1.390 . S
C919 C916 1.386 . S
C920 C915 1.490 . S
C920 C922 1.395 . S
C920 C923 1.403 . S
H921 C927 0.930 1_545 S
C922 H908 0.930 . S
C922 C920 1.395 . S
C922 C925 1.403 . S
C923 C920 1.403 . S
C923 C924 1.524 . S
C923 C927 1.400 . S
C924 H909 0.960 . S
C924 H910 0.960 . S
C924 H911 0.960 . S
C924 C923 1.524 . S
C925 C922 1.403 . S
C925 C926 1.392 . S
C925 C929 1.495 . S
C926 C925 1.392 . S
C926 C927 1.385 . S
C926 C928 1.478 1_565 S
C927 H921 0.930 1_565 S
C927 C923 1.400 . S
C927 C926 1.385 . S
C928 C926 1.478 1_545 S
C928 C930 1.381 . S
C928 C934 1.383 . S
C929 C925 1.495 . S
C929 H935 0.959 . S
C929 H936 0.961 . S
C929 H937 0.960 . S
C930 C928 1.381 . S
C930 C931 1.394 . S
C930 H938 0.930 . S
C931 C930 1.394 . S
C931 C932 1.383 . S
C931 H939 0.929 . S
C932 C931 1.383 . S
C932 C933 1.377 . S
C933 H917 0.930 . S
C933 C932 1.377 . S
C933 C934 1.379 . S
C934 H918 0.931 . S
C934 C928 1.383 . S
C934 C933 1.379 . S
H935 C929 0.959 . S
H936 C929 0.961 . S
H937 C929 0.960 . S
H938 C930 0.930 . S
H939 C931 0.929 . S
H940 C948 0.929 . S
H941 C950 0.930 . S
H942 C952 0.930 . S
H943 C955 0.929 . S
H944 C958 0.930 . S
H945 C960 0.960 . S
H946 C960 0.960 . S
H947 C960 0.960 . S
C948 H940 0.929 . S
C948 C949 1.377 . S
C948 C950 1.384 . S
C949 C948 1.377 . S
C949 C955 1.390 . S
C950 H941 0.930 . S
C950 C948 1.384 . S
C950 C951 1.372 . S
C951 C950 1.372 . S
C951 C952 1.400 . S
C951 C956 1.490 . S
C952 H942 0.930 . S
C952 C951 1.400 . S
C952 C955 1.386 . S
H953 C969 0.930 . S
H954 C970 0.931 . S
C955 H943 0.929 . S
C955 C949 1.390 . S
C955 C952 1.386 . S
C956 C951 1.490 . S
C956 C958 1.395 . S
C956 C959 1.403 . S
H957 C963 0.930 1_655 S
C958 H944 0.930 . S
C958 C956 1.395 . S
C958 C961 1.403 . S
C959 C956 1.403 . S
C959 C960 1.524 . S
C959 C963 1.400 . S
C960 H945 0.960 . S
C960 H946 0.960 . S
C960 H947 0.960 . S
C960 C959 1.524 . S
C961 C958 1.403 . S
C961 C962 1.392 . S
C961 C965 1.495 . S
C962 C961 1.392 . S
C962 C963 1.385 . S
C962 C964 1.478 1_455 S
C963 H957 0.930 1_455 S
C963 C959 1.400 . S
C963 C962 1.385 . S
C964 C962 1.478 1_655 S
C964 C966 1.381 . S
C964 C970 1.383 . S
C965 C961 1.495 . S
C965 H971 0.959 . S
C965 H972 0.961 . S
C965 H973 0.960 . S
C966 C964 1.381 . S
C966 C967 1.394 . S
C966 H974 0.930 . S
C967 C966 1.394 . S
C967 C968 1.383 . S
C967 H975 0.929 . S
C968 C967 1.383 . S
C968 C969 1.377 . S
C969 H953 0.930 . S
C969 C968 1.377 . S
C969 C970 1.379 . S
C970 H954 0.931 . S
C970 C964 1.383 . S
C970 C969 1.379 . S
H971 C965 0.959 . S
H972 C965 0.961 . S
H973 C965 0.960 . S
H974 C966 0.930 . S
H975 C967 0.929 . S
H976 C984 0.929 . S
H977 C986 0.930 . S
H978 C988 0.930 . S
H979 C991 0.929 . S
H980 C994 0.930 . S
H981 C996 0.960 1_565 S
H982 C996 0.960 . S
H983 C996 0.960 . S
C984 H976 0.929 . S
C984 C985 1.377 . S
C984 C986 1.384 . S
C985 C984 1.377 . S
C985 C991 1.390 . S
C986 H977 0.930 . S
C986 C984 1.384 . S
C986 C987 1.372 . S
C987 C986 1.372 . S
C987 C988 1.400 . S
C987 C992 1.490 1_545 S
C988 H978 0.930 . S
C988 C987 1.400 . S
C988 C991 1.386 . S
H989 C1005 0.930 . S
H990 C1006 0.931 . S
C991 H979 0.929 . S
C991 C985 1.390 . S
C991 C988 1.386 . S
C992 C987 1.490 1_565 S
C992 C994 1.395 . S
C992 C995 1.403 . S
H993 C999 0.930 . S
C994 H980 0.930 . S
C994 C992 1.395 . S
C994 C997 1.403 . S
C995 C992 1.403 . S
C995 C996 1.524 1_565 S
C995 C999 1.400 . S
C996 H981 0.960 1_545 S
C996 H982 0.960 . S
C996 H983 0.960 . S
C996 C995 1.524 1_545 S
C997 C994 1.403 . S
C997 C998 1.392 . S
C997 C1001 1.495 . S
C998 C997 1.392 . S
C998 C999 1.385 . S
C998 C1000 1.478 . S
C999 H993 0.930 . S
C999 C995 1.400 . S
C999 C998 1.385 . S
C1000 C998 1.478 . S
C1000 C1002 1.381 . S
C1000 C1006 1.383 . S
C1001 C997 1.495 . S
C1001 H1007 0.959 . S
C1001 H1008 0.961 . S
C1001 H1009 0.960 . S
C1002 C1000 1.381 . S
C1002 C1003 1.394 . S
C1002 H1010 0.930 . S
C1003 C1002 1.394 . S
C1003 C1004 1.383 . S
C1003 H1011 0.929 . S
C1004 C1003 1.383 . S
C1004 C1005 1.377 . S
C1005 H989 0.930 . S
C1005 C1004 1.377 . S
C1005 C1006 1.379 . S
C1006 H990 0.931 . S
C1006 C1000 1.383 . S
C1006 C1005 1.379 . S
H1007 C1001 0.959 . S
H1008 C1001 0.961 . S
H1009 C1001 0.960 . S
H1010 C1002 0.930 . S
H1011 C1003 0.929 . S
H1012 C1020 0.929 . S
H1013 C1022 0.930 . S
H1014 C1024 0.930 . S
H1015 C1027 0.929 . S
H1016 C1030 0.930 . S
H1017 C1032 0.960 . S
H1018 C1032 0.960 . S
H1019 C1032 0.960 . S
C1020 H1012 0.929 . S
C1020 C1021 1.377 . S
C1020 C1022 1.384 . S
C1021 C1020 1.377 . S
C1021 C1027 1.390 . S
C1022 H1013 0.930 . S
C1022 C1020 1.384 . S
C1022 C1023 1.372 . S
C1023 C1022 1.372 . S
C1023 C1024 1.400 . S
C1023 C1028 1.490 . S
C1024 H1014 0.930 . S
C1024 C1023 1.400 . S
C1024 C1027 1.386 . S
H1025 C1041 0.930 . S
H1026 C1042 0.931 . S
C1027 H1015 0.929 . S
C1027 C1021 1.390 . S
C1027 C1024 1.386 . S
C1028 C1023 1.490 . S
C1028 C1030 1.395 . S
C1028 C1031 1.403 . S
H1029 C1035 0.930 . S
C1030 H1016 0.930 . S
C1030 C1028 1.395 . S
C1030 C1033 1.403 . S
C1031 C1028 1.403 . S
C1031 C1032 1.524 . S
C1031 C1035 1.400 . S
C1032 H1017 0.960 . S
C1032 H1018 0.960 . S
C1032 H1019 0.960 . S
C1032 C1031 1.524 . S
C1033 C1030 1.403 . S
C1033 C1034 1.392 . S
C1033 C1037 1.495 1_455 S
C1034 C1033 1.392 . S
C1034 C1035 1.385 . S
C1034 C1036 1.478 1_455 S
C1035 H1029 0.930 . S
C1035 C1031 1.400 . S
C1035 C1034 1.385 . S
C1036 C1034 1.478 1_655 S
C1036 C1038 1.381 . S
C1036 C1042 1.383 . S
C1037 C1033 1.495 1_655 S
C1037 H1043 0.947 1_655 S
C1037 H1044 0.961 . S
C1037 H1045 0.960 . S
C1038 C1036 1.381 . S
C1038 C1039 1.394 . S
C1038 H1046 0.930 . S
C1039 C1038 1.394 . S
C1039 C1040 1.383 . S
C1039 H1047 0.929 . S
C1040 C1039 1.383 . S
C1040 C1041 1.377 . S
C1041 H1025 0.930 . S
C1041 C1040 1.377 . S
C1041 C1042 1.379 . S
C1042 H1026 0.931 . S
C1042 C1036 1.383 . S
C1042 C1041 1.379 . S
H1043 C1037 0.947 1_455 S
H1044 C1037 0.961 . S
H1045 C1037 0.960 . S
H1046 C1038 0.930 . S
H1047 C1039 0.929 . S
H1048 C1056 0.929 . S
H1049 C1058 0.930 . S
H1050 C1060 0.930 . S
H1051 C1063 0.929 . S
H1052 C1066 0.930 . S
H1053 C1068 0.960 . S
H1054 C1068 0.960 . S
H1055 C1068 0.959 . S
C1056 H1048 0.929 . S
C1056 C1057 1.377 . S
C1056 C1058 1.384 . S
C1057 C1056 1.377 . S
C1057 C1063 1.390 . S
C1058 H1049 0.930 . S
C1058 C1056 1.384 . S
C1058 C1059 1.372 . S
C1059 C1058 1.372 . S
C1059 C1060 1.400 . S
C1059 C1064 1.490 1_565 S
C1060 H1050 0.930 . S
C1060 C1059 1.400 . S
C1060 C1063 1.386 . S
H1061 C1077 0.930 . S
H1062 C1078 0.931 . S
C1063 H1051 0.929 . S
C1063 C1057 1.390 . S
C1063 C1060 1.386 . S
C1064 C1059 1.490 1_545 S
C1064 C1066 1.395 . S
C1064 C1067 1.403 . S
H1065 C1071 0.930 . S
C1066 H1052 0.930 . S
C1066 C1064 1.395 . S
C1066 C1069 1.403 . S
C1067 C1064 1.403 . S
C1067 C1068 1.524 . S
C1067 C1071 1.400 . S
C1068 H1053 0.960 . S
C1068 H1054 0.960 . S
C1068 H1055 0.959 . S
C1068 C1067 1.524 . S
C1069 C1066 1.403 . S
C1069 C1070 1.392 . S
C1069 C1073 1.495 . S
C1070 C1069 1.392 . S
C1070 C1071 1.385 . S
C1070 C1072 1.478 . S
C1071 H1065 0.930 . S
C1071 C1067 1.400 . S
C1071 C1070 1.385 . S
C1072 C1070 1.478 . S
C1072 C1074 1.381 . S
C1072 C1078 1.383 . S
C1073 C1069 1.495 . S
C1073 H1079 0.959 . S
C1073 H1080 0.961 . S
C1073 H1081 0.960 . S
C1074 C1072 1.381 . S
C1074 C1075 1.394 . S
C1074 H1082 0.930 . S
C1075 C1074 1.394 . S
C1075 C1076 1.383 . S
C1075 H1083 0.929 . S
C1076 C1075 1.383 . S
C1076 C1077 1.377 . S
C1077 H1061 0.930 . S
C1077 C1076 1.377 . S
C1077 C1078 1.379 . S
C1078 H1062 0.931 . S
C1078 C1072 1.383 . S
C1078 C1077 1.379 . S
H1079 C1073 0.959 . S
H1080 C1073 0.961 . S
H1081 C1073 0.960 . S
H1082 C1074 0.930 . S
H1083 C1075 0.929 . S
H1084 C1092 0.929 . S
H1085 C1094 0.930 . S
H1086 C1096 0.930 . S
H1087 C1099 0.929 . S
H1088 C1102 0.930 1_455 S
H1089 C1104 0.960 . S
H1090 C1104 0.960 . S
H1091 C1104 0.960 . S
C1092 H1084 0.929 . S
C1092 C1093 1.377 . S
C1092 C1094 1.384 . S
C1093 C1092 1.377 . S
C1093 C1099 1.390 . S
C1094 H1085 0.930 . S
C1094 C1092 1.384 . S
C1094 C1095 1.372 . S
C1095 C1094 1.372 . S
C1095 C1096 1.400 . S
C1095 C1100 1.490 1_455 S
C1096 H1086 0.930 . S
C1096 C1095 1.400 . S
C1096 C1099 1.386 . S
H1097 C1113 0.930 . S
H1098 C1114 0.931 . S
C1099 H1087 0.929 . S
C1099 C1093 1.390 . S
C1099 C1096 1.386 . S
C1100 C1095 1.490 1_655 S
C1100 C1102 1.395 . S
C1100 C1103 1.403 . S
H1101 C1107 0.930 . S
C1102 H1088 0.930 1_655 S
C1102 C1100 1.395 . S
C1102 C1105 1.403 . S
C1103 C1100 1.403 . S
C1103 C1104 1.524 . S
C1103 C1107 1.400 . S
C1104 H1089 0.960 . S
C1104 H1090 0.960 . S
C1104 H1091 0.960 . S
C1104 C1103 1.524 . S
C1105 C1102 1.403 . S
C1105 C1106 1.392 . S
C1105 C1109 1.495 . S
C1106 C1105 1.392 . S
C1106 C1107 1.385 . S
C1106 C1108 1.478 . S
C1107 H1101 0.930 . S
C1107 C1103 1.400 . S
C1107 C1106 1.385 . S
C1108 C1106 1.478 . S
C1108 C1110 1.381 . S
C1108 C1114 1.383 . S
C1109 C1105 1.495 . S
C1109 H1115 0.959 . S
C1109 H1116 0.961 . S
C1109 H1117 0.960 . S
C1110 C1108 1.381 . S
C1110 C1111 1.394 . S
C1110 H1118 0.930 . S
C1111 C1110 1.394 . S
C1111 C1112 1.383 . S
C1111 H1119 0.929 . S
C1112 C1111 1.383 . S
C1112 C1113 1.377 . S
C1113 H1097 0.930 . S
C1113 C1112 1.377 . S
C1113 C1114 1.379 . S
C1114 H1098 0.931 . S
C1114 C1108 1.383 . S
C1114 C1113 1.379 . S
H1115 C1109 0.959 . S
H1116 C1109 0.961 . S
H1117 C1109 0.960 . S
H1118 C1110 0.930 . S
H1119 C1111 0.929 . S
H1120 C1128 0.929 . S
H1121 C1130 0.930 . S
H1122 C1132 0.930 . S
H1123 C1135 0.929 . S
H1124 C1138 0.930 . S
H1125 C1140 0.960 . S
H1126 C1140 0.960 . S
H1127 C1140 0.960 . S
C1128 H1120 0.929 . S
C1128 C1129 1.377 . S
C1128 C1130 1.384 . S
C1129 C1128 1.377 . S
C1129 C1135 1.390 . S
C1130 H1121 0.930 . S
C1130 C1128 1.384 . S
C1130 C1131 1.372 . S
C1131 C1130 1.372 . S
C1131 C1132 1.400 . S
C1131 C1136 1.490 . S
C1132 H1122 0.930 . S
C1132 C1131 1.400 . S
C1132 C1135 1.386 . S
H1133 C1149 0.930 . S
H1134 C1150 0.931 . S
C1135 H1123 0.929 . S
C1135 C1129 1.390 . S
C1135 C1132 1.386 . S
C1136 C1131 1.490 . S
C1136 C1138 1.395 . S
C1136 C1139 1.403 . S
H1137 C1143 0.930 . S
C1138 H1124 0.930 . S
C1138 C1136 1.395 . S
C1138 C1141 1.403 . S
C1139 C1136 1.403 . S
C1139 C1140 1.524 . S
C1139 C1143 1.400 . S
C1140 H1125 0.960 . S
C1140 H1126 0.960 . S
C1140 H1127 0.960 . S
C1140 C1139 1.524 . S
C1141 C1138 1.403 . S
C1141 C1142 1.392 . S
C1141 C1145 1.495 . S
C1142 C1141 1.392 . S
C1142 C1143 1.385 . S
C1142 C1144 1.478 . S
C1143 H1137 0.930 . S
C1143 C1139 1.400 . S
C1143 C1142 1.385 . S
C1144 C1142 1.478 . S
C1144 C1146 1.381 1_565 S
C1144 C1150 1.383 . S
C1145 C1141 1.495 . S
C1145 H1151 0.959 . S
C1145 H1152 0.961 . S
C1145 H1153 0.960 . S
C1146 C1144 1.381 1_545 S
C1146 C1147 1.394 . S
C1146 H1154 0.925 1_545 S
C1147 C1146 1.394 . S
C1147 C1148 1.383 . S
C1147 H1155 0.929 . S
C1148 C1147 1.383 . S
C1148 C1149 1.377 . S
C1149 H1133 0.930 . S
C1149 C1148 1.377 . S
C1149 C1150 1.379 1_545 S
C1150 H1134 0.931 . S
C1150 C1144 1.383 . S
C1150 C1149 1.379 1_565 S
H1151 C1145 0.959 . S
H1152 C1145 0.961 . S
H1153 C1145 0.960 . S
H1154 C1146 0.925 1_565 S
H1155 C1147 0.929 . S
H1156 C1164 0.929 . S
H1157 C1166 0.930 . S
H1158 C1168 0.930 . S
H1159 C1171 0.929 . S
H1160 C1174 0.930 . S
H1161 C1176 0.960 . S
H1162 C1176 0.960 . S
H1163 C1176 0.960 . S
C1164 H1156 0.929 . S
C1164 C1165 1.377 . S
C1164 C1166 1.384 1_655 S
C1165 C1164 1.377 . S
C1165 C1171 1.390 . S
C1166 H1157 0.930 . S
C1166 C1164 1.384 1_455 S
C1166 C1167 1.372 . S
C1167 C1166 1.372 . S
C1167 C1168 1.400 . S
C1167 C1172 1.490 . S
C1168 H1158 0.930 . S
C1168 C1167 1.400 . S
C1168 C1171 1.386 1_455 S
H1169 C1185 0.930 . S
H1170 C1186 0.931 . S
C1171 H1159 0.929 . S
C1171 C1165 1.390 . S
C1171 C1168 1.386 1_655 S
C1172 C1167 1.490 . S
C1172 C1174 1.395 . S
C1172 C1175 1.403 . S
H1173 C1179 0.930 . S
C1174 H1160 0.930 . S
C1174 C1172 1.395 . S
C1174 C1177 1.403 . S
C1175 C1172 1.403 . S
C1175 C1176 1.524 . S
C1175 C1179 1.400 . S
C1176 H1161 0.960 . S
C1176 H1162 0.960 . S
C1176 H1163 0.960 . S
C1176 C1175 1.524 . S
C1177 C1174 1.403 . S
C1177 C1178 1.392 . S
C1177 C1181 1.495 . S
C1178 C1177 1.392 . S
C1178 C1179 1.385 . S
C1178 C1180 1.478 . S
C1179 H1173 0.930 . S
C1179 C1175 1.400 . S
C1179 C1178 1.385 . S
C1180 C1178 1.478 . S
C1180 C1182 1.381 . S
C1180 C1186 1.383 . S
C1181 C1177 1.495 . S
C1181 H1187 0.959 . S
C1181 H1188 0.961 . S
C1181 H1189 0.960 . S
C1182 C1180 1.381 . S
C1182 C1183 1.394 . S
C1182 H1190 0.930 . S
C1183 C1182 1.394 . S
C1183 C1184 1.383 . S
C1183 H1191 0.929 . S
C1184 C1183 1.383 . S
C1184 C1185 1.377 . S
C1185 H1169 0.930 . S
C1185 C1184 1.377 . S
C1185 C1186 1.379 . S
C1186 H1170 0.931 . S
C1186 C1180 1.383 . S
C1186 C1185 1.379 . S
H1187 C1181 0.959 . S
H1188 C1181 0.961 . S
H1189 C1181 0.960 . S
H1190 C1182 0.930 . S
H1191 C1183 0.929 . S
H1192 C1200 0.929 . S
H1193 C1202 0.930 . S
H1194 C1204 0.930 . S
H1195 C1207 0.929 . S
H1196 C1210 0.930 . S
H1197 C1212 0.960 . S
H1198 C1212 0.960 . S
H1199 C1212 0.960 . S
C1200 H1192 0.929 . S
C1200 C1201 1.377 . S
C1200 C1202 1.384 . S
C1201 C1200 1.377 . S
C1201 C1207 1.390 . S
C1202 H1193 0.930 . S
C1202 C1200 1.384 . S
C1202 C1203 1.372 . S
C1203 C1202 1.372 . S
C1203 C1204 1.400 . S
C1203 C1208 1.490 . S
C1204 H1194 0.930 . S
C1204 C1203 1.400 . S
C1204 C1207 1.386 . S
H1205 C1221 0.930 . S
H1206 C1222 0.931 . S
C1207 H1195 0.929 . S
C1207 C1201 1.390 . S
C1207 C1204 1.386 . S
C1208 C1203 1.490 . S
C1208 C1210 1.395 . S
C1208 C1211 1.403 . S
H1209 C1215 0.930 . S
C1210 H1196 0.930 . S
C1210 C1208 1.395 . S
C1210 C1213 1.403 . S
C1211 C1208 1.403 . S
C1211 C1212 1.524 . S
C1211 C1215 1.400 . S
C1212 H1197 0.960 . S
C1212 H1198 0.960 . S
C1212 H1199 0.960 . S
C1212 C1211 1.524 . S
C1213 C1210 1.403 . S
C1213 C1214 1.392 . S
C1213 C1217 1.495 . S
C1214 C1213 1.392 . S
C1214 C1215 1.385 . S
C1214 C1216 1.478 . S
C1215 H1209 0.930 . S
C1215 C1211 1.400 . S
C1215 C1214 1.385 . S
C1216 C1214 1.478 . S
C1216 C1218 1.381 1_545 S
C1216 C1222 1.383 . S
C1217 C1213 1.495 . S
C1217 H1223 0.959 . S
C1217 H1224 0.961 . S
C1217 H1225 0.960 . S
C1218 C1216 1.381 1_565 S
C1218 C1219 1.394 . S
C1218 H1226 0.933 . S
C1219 C1218 1.394 . S
C1219 C1220 1.383 . S
C1219 H1227 0.929 . S
C1220 C1219 1.383 . S
C1220 C1221 1.377 . S
C1221 H1205 0.930 . S
C1221 C1220 1.377 . S
C1221 C1222 1.379 1_565 S
C1222 H1206 0.931 . S
C1222 C1216 1.383 . S
C1222 C1221 1.379 1_545 S
H1223 C1217 0.959 . S
H1224 C1217 0.961 . S
H1225 C1217 0.960 . S
H1226 C1218 0.933 . S
H1227 C1219 0.929 . S
H1228 C1236 0.929 . S
H1229 C1238 0.930 1_655 S
H1230 C1240 0.930 . S
H1231 C1243 0.929 . S
H1232 C1246 0.930 . S
H1233 C1248 0.960 . S
H1234 C1248 0.960 . S
H1235 C1248 0.960 . S
C1236 H1228 0.929 . S
C1236 C1237 1.377 . S
C1236 C1238 1.384 . S
C1237 C1236 1.377 . S
C1237 C1243 1.390 . S
C1238 H1229 0.930 1_455 S
C1238 C1236 1.384 . S
C1238 C1239 1.372 1_455 S
C1239 C1238 1.372 1_655 S
C1239 C1240 1.400 . S
C1239 C1244 1.490 . S
C1240 H1230 0.930 . S
C1240 C1239 1.400 . S
C1240 C1243 1.386 1_655 S
H1241 C1257 0.930 . S
H1242 C1258 0.931 . S
C1243 H1231 0.929 . S
C1243 C1237 1.390 . S
C1243 C1240 1.386 1_455 S
C1244 C1239 1.490 . S
C1244 C1246 1.395 . S
C1244 C1247 1.403 . S
H1245 C1251 0.930 . S
C1246 H1232 0.930 . S
C1246 C1244 1.395 . S
C1246 C1249 1.403 . S
C1247 C1244 1.403 . S
C1247 C1248 1.524 . S
C1247 C1251 1.400 . S
C1248 H1233 0.960 . S
C1248 H1234 0.960 . S
C1248 H1235 0.960 . S
C1248 C1247 1.524 . S
C1249 C1246 1.403 . S
C1249 C1250 1.392 . S
C1249 C1253 1.495 . S
C1250 C1249 1.392 . S
C1250 C1251 1.385 . S
C1250 C1252 1.478 . S
C1251 H1245 0.930 . S
C1251 C1247 1.400 . S
C1251 C1250 1.385 . S
C1252 C1250 1.478 . S
C1252 C1254 1.381 . S
C1252 C1258 1.383 . S
C1253 C1249 1.495 . S
C1253 H1259 0.959 . S
C1253 H1260 0.961 . S
C1253 H1261 0.960 . S
C1254 C1252 1.381 . S
C1254 C1255 1.394 . S
C1254 H1262 0.930 . S
C1255 C1254 1.394 . S
C1255 C1256 1.383 . S
C1255 H1263 0.929 . S
C1256 C1255 1.383 . S
C1256 C1257 1.377 . S
C1257 H1241 0.930 . S
C1257 C1256 1.377 . S
C1257 C1258 1.379 . S
C1258 H1242 0.931 . S
C1258 C1252 1.383 . S
C1258 C1257 1.379 . S
H1259 C1253 0.959 . S
H1260 C1253 0.961 . S
H1261 C1253 0.960 . S
H1262 C1254 0.930 . S
H1263 C1255 0.929 . S
H1264 C1272 0.929 . S
H1265 C1274 0.930 . S
H1266 C1276 0.930 . S
H1267 C1279 0.929 . S
H1268 C1282 0.930 . S
H1269 C1284 0.960 . S
H1270 C1284 0.960 . S
H1271 C1284 0.960 . S
C1272 H1264 0.929 . S
C1272 C1273 1.377 . S
C1272 C1274 1.384 . S
C1273 C1272 1.377 . S
C1273 C1279 1.390 . S
C1274 H1265 0.930 . S
C1274 C1272 1.384 . S
C1274 C1275 1.372 . S
C1275 C1274 1.372 . S
C1275 C1276 1.400 . S
C1275 C1280 1.490 . S
C1276 H1266 0.930 . S
C1276 C1275 1.400 . S
C1276 C1279 1.386 . S
H1277 C1293 0.930 . S
H1278 C1294 0.931 . S
C1279 H1267 0.929 . S
C1279 C1273 1.390 . S
C1279 C1276 1.386 . S
C1280 C1275 1.490 . S
C1280 C1282 1.395 . S
C1280 C1283 1.403 . S
H1281 C1287 0.930 . S
C1282 H1268 0.930 . S
C1282 C1280 1.395 . S
C1282 C1285 1.403 . S
C1283 C1280 1.403 . S
C1283 C1284 1.524 . S
C1283 C1287 1.400 . S
C1284 H1269 0.960 . S
C1284 H1270 0.960 . S
C1284 H1271 0.960 . S
C1284 C1283 1.524 . S
C1285 C1282 1.403 . S
C1285 C1286 1.392 . S
C1285 C1289 1.495 . S
C1286 C1285 1.392 . S
C1286 C1287 1.385 . S
C1286 C1288 1.478 . S
C1287 H1281 0.930 . S
C1287 C1283 1.400 . S
C1287 C1286 1.385 . S
C1288 C1286 1.478 . S
C1288 C1290 1.381 . S
C1288 C1294 1.383 . S
C1289 C1285 1.495 . S
C1289 H1295 0.959 . S
C1289 H1296 0.961 . S
C1289 H1297 0.960 . S
C1290 C1288 1.381 . S
C1290 C1291 1.394 1_545 S
C1290 H1298 0.930 . S
C1291 C1290 1.394 1_565 S
C1291 C1292 1.383 . S
C1291 H1299 0.929 . S
C1292 C1291 1.383 . S
C1292 C1293 1.377 . S
C1293 H1277 0.930 . S
C1293 C1292 1.377 . S
C1293 C1294 1.379 1_565 S
C1294 H1278 0.931 . S
C1294 C1288 1.383 . S
C1294 C1293 1.379 1_545 S
H1295 C1289 0.959 . S
H1296 C1289 0.961 . S
H1297 C1289 0.960 . S
H1298 C1290 0.930 . S
H1299 C1291 0.929 . S
H1300 C1308 0.929 . S
H1301 C1310 0.930 . S
H1302 C1312 0.930 . S
H1303 C1315 0.929 . S
H1304 C1318 0.930 . S
H1305 C1320 0.960 . S
H1306 C1320 0.960 . S
H1307 C1320 0.960 . S
C1308 H1300 0.929 . S
C1308 C1309 1.377 . S
C1308 C1310 1.384 1_455 S
C1309 C1308 1.377 . S
C1309 C1315 1.390 . S
C1310 H1301 0.930 . S
C1310 C1308 1.384 1_655 S
C1310 C1311 1.372 . S
C1311 C1310 1.372 . S
C1311 C1312 1.400 . S
C1311 C1316 1.490 . S
C1312 H1302 0.930 . S
C1312 C1311 1.400 . S
C1312 C1315 1.386 1_655 S
H1313 C1329 0.930 . S
H1314 C1330 0.931 . S
C1315 H1303 0.929 . S
C1315 C1309 1.390 . S
C1315 C1312 1.386 1_455 S
C1316 C1311 1.490 . S
C1316 C1318 1.395 . S
C1316 C1319 1.403 . S
H1317 C1323 0.930 . S
C1318 H1304 0.930 . S
C1318 C1316 1.395 . S
C1318 C1321 1.403 . S
C1319 C1316 1.403 . S
C1319 C1320 1.524 . S
C1319 C1323 1.400 . S
C1320 H1305 0.960 . S
C1320 H1306 0.960 . S
C1320 H1307 0.960 . S
C1320 C1319 1.524 . S
C1321 C1318 1.403 . S
C1321 C1322 1.392 . S
C1321 C1325 1.495 . S
C1322 C1321 1.392 . S
C1322 C1323 1.385 . S
C1322 C1324 1.478 . S
C1323 H1317 0.930 . S
C1323 C1319 1.400 . S
C1323 C1322 1.385 . S
C1324 C1322 1.478 . S
C1324 C1326 1.381 . S
C1324 C1330 1.383 . S
C1325 C1321 1.495 . S
C1325 H1331 0.959 . S
C1325 H1332 0.961 . S
C1325 H1333 0.960 . S
C1326 C1324 1.381 . S
C1326 C1327 1.394 . S
C1326 H1334 0.930 . S
C1327 C1326 1.394 . S
C1327 C1328 1.383 . S
C1327 H1335 0.929 . S
C1328 C1327 1.383 . S
C1328 C1329 1.377 . S
C1329 H1313 0.930 . S
C1329 C1328 1.377 . S
C1329 C1330 1.379 . S
C1330 H1314 0.931 . S
C1330 C1324 1.383 . S
C1330 C1329 1.379 . S
H1331 C1325 0.959 . S
H1332 C1325 0.961 . S
H1333 C1325 0.960 . S
H1334 C1326 0.930 . S
H1335 C1327 0.929 . S
H1336 C1344 0.929 . S
H1337 C1346 0.930 . S
H1338 C1348 0.927 1_565 S
H1339 C1351 0.929 . S
H1340 C1354 0.930 . S
H1341 C1356 0.960 . S
H1342 C1356 0.960 . S
H1343 C1356 0.960 . S
C1344 H1336 0.929 . S
C1344 C1345 1.377 . S
C1344 C1346 1.384 1_545 S
C1345 C1344 1.377 . S
C1345 C1351 1.390 . S
C1346 H1337 0.930 . S
C1346 C1344 1.384 1_565 S
C1346 C1347 1.372 . S
C1347 C1346 1.372 . S
C1347 C1348 1.394 1_565 S
C1347 C1352 1.490 . S
C1348 H1338 0.927 1_545 S
C1348 C1347 1.394 1_545 S
C1348 C1351 1.394 . S
H1349 C1365 0.930 . S
H1350 C1366 0.931 . S
C1351 H1339 0.929 . S
C1351 C1345 1.390 . S
C1351 C1348 1.394 . S
C1352 C1347 1.490 . S
C1352 C1354 1.395 . S
C1352 C1355 1.403 . S
H1353 C1359 0.930 . S
C1354 H1340 0.930 . S
C1354 C1352 1.395 . S
C1354 C1357 1.403 . S
C1355 C1352 1.403 . S
C1355 C1356 1.524 . S
C1355 C1359 1.400 . S
C1356 H1341 0.960 . S
C1356 H1342 0.960 . S
C1356 H1343 0.960 . S
C1356 C1355 1.524 . S
C1357 C1354 1.403 . S
C1357 C1358 1.392 . S
C1357 C1361 1.495 . S
C1358 C1357 1.392 . S
C1358 C1359 1.385 . S
C1358 C1360 1.478 . S
C1359 H1353 0.930 . S
C1359 C1355 1.400 . S
C1359 C1358 1.385 . S
C1360 C1358 1.478 . S
C1360 C1362 1.381 . S
C1360 C1366 1.383 . S
C1361 C1357 1.495 . S
C1361 H1367 0.959 . S
C1361 H1368 0.961 . S
C1361 H1369 0.960 . S
C1362 C1360 1.381 . S
C1362 C1363 1.394 . S
C1362 H1370 0.930 . S
C1363 C1362 1.394 . S
C1363 C1364 1.383 . S
C1363 H1371 0.929 . S
C1364 C1363 1.383 . S
C1364 C1365 1.377 . S
C1365 H1349 0.930 . S
C1365 C1364 1.377 . S
C1365 C1366 1.379 . S
C1366 H1350 0.931 . S
C1366 C1360 1.383 . S
C1366 C1365 1.379 . S
H1367 C1361 0.959 . S
H1368 C1361 0.961 . S
H1369 C1361 0.960 . S
H1370 C1362 0.930 . S
H1371 C1363 0.929 . S
H1372 C1380 0.929 . S
H1373 C1382 0.930 . S
H1374 C1384 0.930 1_455 S
H1375 C1387 0.929 . S
H1376 C1390 0.930 . S
H1377 C1392 0.960 . S
H1378 C1392 0.960 . S
H1379 C1392 0.960 . S
C1380 H1372 0.929 . S
C1380 C1381 1.377 . S
C1380 C1382 1.384 1_655 S
C1381 C1380 1.377 . S
C1381 C1387 1.390 . S
C1382 H1373 0.930 . S
C1382 C1380 1.384 1_455 S
C1382 C1383 1.372 . S
C1383 C1382 1.372 . S
C1383 C1384 1.400 1_455 S
C1383 C1388 1.490 . S
C1384 H1374 0.930 1_655 S
C1384 C1383 1.400 1_655 S
C1384 C1387 1.386 . S
H1385 C1401 0.930 . S
H1386 C1402 0.931 . S
C1387 H1375 0.929 . S
C1387 C1381 1.390 . S
C1387 C1384 1.386 . S
C1388 C1383 1.490 . S
C1388 C1390 1.395 . S
C1388 C1391 1.403 . S
H1389 C1395 0.930 . S
C1390 H1376 0.930 . S
C1390 C1388 1.395 . S
C1390 C1393 1.403 . S
C1391 C1388 1.403 . S
C1391 C1392 1.524 . S
C1391 C1395 1.400 . S
C1392 H1377 0.960 . S
C1392 H1378 0.960 . S
C1392 H1379 0.960 . S
C1392 C1391 1.524 . S
C1393 C1390 1.403 . S
C1393 C1394 1.392 . S
C1393 C1397 1.495 . S
C1394 C1393 1.392 . S
C1394 C1395 1.385 . S
C1394 C1396 1.478 . S
C1395 H1389 0.930 . S
C1395 C1391 1.400 . S
C1395 C1394 1.385 . S
C1396 C1394 1.478 . S
C1396 C1398 1.381 . S
C1396 C1402 1.383 . S
C1397 C1393 1.495 . S
C1397 H1403 0.959 . S
C1397 H1404 0.961 . S
C1397 H1405 0.960 . S
C1398 C1396 1.381 . S
C1398 C1399 1.394 . S
C1398 H1406 0.930 . S
C1399 C1398 1.394 . S
C1399 C1400 1.383 . S
C1399 H1407 0.929 . S
C1400 C1399 1.383 . S
C1400 C1401 1.377 . S
C1401 H1385 0.930 . S
C1401 C1400 1.377 . S
C1401 C1402 1.379 . S
C1402 H1386 0.931 . S
C1402 C1396 1.383 . S
C1402 C1401 1.379 . S
H1403 C1397 0.959 . S
H1404 C1397 0.961 . S
H1405 C1397 0.960 . S
H1406 C1398 0.930 . S
H1407 C1399 0.929 . S
H1408 C1416 0.929 . S
H1409 C1418 0.930 . S
H1410 C1420 0.930 . S
H1411 C1423 0.929 . S
H1412 C1426 0.930 . S
H1413 C1428 0.960 . S
H1414 C1428 0.960 . S
H1415 C1428 0.960 . S
C1416 H1408 0.929 . S
C1416 C1417 1.377 . S
C1416 C1418 1.384 . S
C1417 C1416 1.377 . S
C1417 C1423 1.390 . S
C1418 H1409 0.930 . S
C1418 C1416 1.384 . S
C1418 C1419 1.372 . S
C1419 C1418 1.372 . S
C1419 C1420 1.400 . S
C1419 C1424 1.490 . S
C1420 H1410 0.930 . S
C1420 C1419 1.400 . S
C1420 C1423 1.386 . S
H1421 C1437 0.930 . S
H1422 C1438 0.931 . S
C1423 H1411 0.929 . S
C1423 C1417 1.390 . S
C1423 C1420 1.386 . S
C1424 C1419 1.490 . S
C1424 C1426 1.395 . S
C1424 C1427 1.403 . S
H1425 C1431 0.930 . S
C1426 H1412 0.930 . S
C1426 C1424 1.395 . S
C1426 C1429 1.403 . S
C1427 C1424 1.403 . S
C1427 C1428 1.524 . S
C1427 C1431 1.400 . S
C1428 H1413 0.960 . S
C1428 H1414 0.960 . S
C1428 H1415 0.960 . S
C1428 C1427 1.524 . S
C1429 C1426 1.403 . S
C1429 C1430 1.392 . S
C1429 C1433 1.495 . S
C1430 C1429 1.392 . S
C1430 C1431 1.385 . S
C1430 C1432 1.478 . S
C1431 H1425 0.930 . S
C1431 C1427 1.400 . S
C1431 C1430 1.385 . S
C1432 C1430 1.478 . S
C1432 C1434 1.381 . S
C1432 C1438 1.383 . S
C1433 C1429 1.495 . S
C1433 H1439 0.959 . S
C1433 H1440 0.961 . S
C1433 H1441 0.960 . S
C1434 C1432 1.381 . S
C1434 C1435 1.394 . S
C1434 H1442 0.930 . S
C1435 C1434 1.394 . S
C1435 C1436 1.383 . S
C1435 H1443 0.929 . S
C1436 C1435 1.383 . S
C1436 C1437 1.377 . S
C1437 H1421 0.930 . S
C1437 C1436 1.377 . S
C1437 C1438 1.379 . S
C1438 H1422 0.931 . S
C1438 C1432 1.383 . S
C1438 C1437 1.379 . S
H1439 C1433 0.959 . S
H1440 C1433 0.961 . S
H1441 C1433 0.960 . S
H1442 C1434 0.930 . S
H1443 C1435 0.929 . S
H1444 C1452 0.929 . S
H1445 C1454 0.930 . S
H1446 C1456 0.930 . S
H1447 C1459 0.929 . S
H1448 C1462 0.930 . S
H1449 C1464 0.960 . S
H1450 C1464 0.960 . S
H1451 C1464 0.960 . S
C1452 H1444 0.929 . S
C1452 C1453 1.377 . S
C1452 C1454 1.384 . S
C1453 C1452 1.377 . S
C1453 C1459 1.390 . S
C1454 H1445 0.930 . S
C1454 C1452 1.384 . S
C1454 C1455 1.372 . S
C1455 C1454 1.372 . S
C1455 C1456 1.400 . S
C1455 C1460 1.490 . S
C1456 H1446 0.930 . S
C1456 C1455 1.400 . S
C1456 C1459 1.386 . S
H1457 C1473 0.930 . S
H1458 C1474 0.931 . S
C1459 H1447 0.929 . S
C1459 C1453 1.390 . S
C1459 C1456 1.386 . S
C1460 C1455 1.490 . S
C1460 C1462 1.395 . S
C1460 C1463 1.403 . S
H1461 C1467 0.930 . S
C1462 H1448 0.930 . S
C1462 C1460 1.395 . S
C1462 C1465 1.403 . S
C1463 C1460 1.403 . S
C1463 C1464 1.524 . S
C1463 C1467 1.400 . S
C1464 H1449 0.960 . S
C1464 H1450 0.960 . S
C1464 H1451 0.960 . S
C1464 C1463 1.524 . S
C1465 C1462 1.403 . S
C1465 C1466 1.392 . S
C1465 C1469 1.495 . S
C1466 C1465 1.392 . S
C1466 C1467 1.385 . S
C1466 C1468 1.478 . S
C1467 H1461 0.930 . S
C1467 C1463 1.400 . S
C1467 C1466 1.385 . S
C1468 C1466 1.478 . S
C1468 C1470 1.381 . S
C1468 C1474 1.383 . S
C1469 C1465 1.495 . S
C1469 H1475 0.959 . S
C1469 H1476 0.961 . S
C1469 H1477 0.960 . S
C1470 C1468 1.381 . S
C1470 C1471 1.394 . S
C1470 H1478 0.930 . S
C1471 C1470 1.394 . S
C1471 C1472 1.383 . S
C1471 H1479 0.929 . S
C1472 C1471 1.383 . S
C1472 C1473 1.377 . S
C1473 H1457 0.930 . S
C1473 C1472 1.377 . S
C1473 C1474 1.379 . S
C1474 H1458 0.931 . S
C1474 C1468 1.383 . S
C1474 C1473 1.379 . S
H1475 C1469 0.959 . S
H1476 C1469 0.961 . S
H1477 C1469 0.960 . S
H1478 C1470 0.930 . S
H1479 C1471 0.929 . S
H1480 C1488 0.929 . S
H1481 C1490 0.930 . S
H1482 C1492 0.930 . S
H1483 C1495 0.929 . S
H1484 C1498 0.930 . S
H1485 C1500 0.960 . S
H1486 C1500 0.960 . S
H1487 C1500 0.960 . S
C1488 H1480 0.929 . S
C1488 C1489 1.377 . S
C1488 C1490 1.384 . S
C1489 C1488 1.377 . S
C1489 C1495 1.390 . S
C1490 H1481 0.930 . S
C1490 C1488 1.384 . S
C1490 C1491 1.372 . S
C1491 C1490 1.372 . S
C1491 C1492 1.400 . S
C1491 C1496 1.490 . S
C1492 H1482 0.930 . S
C1492 C1491 1.400 . S
C1492 C1495 1.386 . S
H1493 C1509 0.930 . S
H1494 C1510 0.931 . S
C1495 H1483 0.929 . S
C1495 C1489 1.390 . S
C1495 C1492 1.386 . S
C1496 C1491 1.490 . S
C1496 C1498 1.395 . S
C1496 C1499 1.403 . S
H1497 C1503 0.930 . S
C1498 H1484 0.930 . S
C1498 C1496 1.395 . S
C1498 C1501 1.403 . S
C1499 C1496 1.403 . S
C1499 C1500 1.524 . S
C1499 C1503 1.400 . S
C1500 H1485 0.960 . S
C1500 H1486 0.960 . S
C1500 H1487 0.960 . S
C1500 C1499 1.524 . S
C1501 C1498 1.403 . S
C1501 C1502 1.392 . S
C1501 C1505 1.495 . S
C1502 C1501 1.392 . S
C1502 C1503 1.385 . S
C1502 C1504 1.478 . S
C1503 H1497 0.930 . S
C1503 C1499 1.400 . S
C1503 C1502 1.385 . S
C1504 C1502 1.478 . S
C1504 C1506 1.381 . S
C1504 C1510 1.383 . S
C1505 C1501 1.495 . S
C1505 H1511 0.959 . S
C1505 H1512 0.961 . S
C1505 H1513 0.960 . S
C1506 C1504 1.381 . S
C1506 C1507 1.394 . S
C1506 H1514 0.930 . S
C1507 C1506 1.394 . S
C1507 C1508 1.383 . S
C1507 H1515 0.929 . S
C1508 C1507 1.383 . S
C1508 C1509 1.377 . S
C1509 H1493 0.930 . S
C1509 C1508 1.377 . S
C1509 C1510 1.379 . S
C1510 H1494 0.931 . S
C1510 C1504 1.383 . S
C1510 C1509 1.379 . S
H1511 C1505 0.959 . S
H1512 C1505 0.961 . S
H1513 C1505 0.960 . S
H1514 C1506 0.930 . S
H1515 C1507 0.929 . S
H1516 C1524 0.929 . S
H1517 C1526 0.930 . S
H1518 C1528 0.930 . S
H1519 C1531 0.929 . S
H1520 C1534 0.930 . S
H1521 C1536 0.960 . S
H1522 C1536 0.960 . S
H1523 C1536 0.960 . S
C1524 H1516 0.929 . S
C1524 C1525 1.377 . S
C1524 C1526 1.384 . S
C1525 C1524 1.377 . S
C1525 C1531 1.390 . S
C1526 H1517 0.930 . S
C1526 C1524 1.384 . S
C1526 C1527 1.372 . S
C1527 C1526 1.372 . S
C1527 C1528 1.400 . S
C1527 C1532 1.490 . S
C1528 H1518 0.930 . S
C1528 C1527 1.400 . S
C1528 C1531 1.386 . S
H1529 C1545 0.930 . S
H1530 C1546 0.931 . S
C1531 H1519 0.929 . S
C1531 C1525 1.390 . S
C1531 C1528 1.386 . S
C1532 C1527 1.490 . S
C1532 C1534 1.395 . S
C1532 C1535 1.403 . S
H1533 C1539 0.930 . S
C1534 H1520 0.930 . S
C1534 C1532 1.395 . S
C1534 C1537 1.403 . S
C1535 C1532 1.403 . S
C1535 C1536 1.524 . S
C1535 C1539 1.400 . S
C1536 H1521 0.960 . S
C1536 H1522 0.960 . S
C1536 H1523 0.960 . S
C1536 C1535 1.524 . S
C1537 C1534 1.403 . S
C1537 C1538 1.392 . S
C1537 C1541 1.495 . S
C1538 C1537 1.392 . S
C1538 C1539 1.385 . S
C1538 C1540 1.478 . S
C1539 H1533 0.930 . S
C1539 C1535 1.400 . S
C1539 C1538 1.385 . S
C1540 C1538 1.478 . S
C1540 C1542 1.381 . S
C1540 C1546 1.383 . S
C1541 C1537 1.495 . S
C1541 H1547 0.959 . S
C1541 H1548 0.961 . S
C1541 H1549 0.960 . S
C1542 C1540 1.381 . S
C1542 C1543 1.394 . S
C1542 H1550 0.930 . S
C1543 C1542 1.394 . S
C1543 C1544 1.383 . S
C1543 H1551 0.929 . S
C1544 C1543 1.383 . S
C1544 C1545 1.377 . S
C1545 H1529 0.930 . S
C1545 C1544 1.377 . S
C1545 C1546 1.379 . S
C1546 H1530 0.931 . S
C1546 C1540 1.383 . S
C1546 C1545 1.379 . S
H1547 C1541 0.959 . S
H1548 C1541 0.961 . S
H1549 C1541 0.960 . S
H1550 C1542 0.930 . S
H1551 C1543 0.929 . S
H1552 C1560 0.929 . S
H1553 C1562 0.930 . S
H1554 C1564 0.930 . S
H1555 C1567 0.929 . S
H1556 C1570 0.930 . S
H1557 C1572 0.960 . S
H1558 C1572 0.960 . S
H1559 C1572 0.960 . S
C1560 H1552 0.929 . S
C1560 C1561 1.377 . S
C1560 C1562 1.384 . S
C1561 C1560 1.377 . S
C1561 C1567 1.390 . S
C1562 H1553 0.930 . S
C1562 C1560 1.384 . S
C1562 C1563 1.372 . S
C1563 C1562 1.372 . S
C1563 C1564 1.400 . S
C1563 C1568 1.490 . S
C1564 H1554 0.930 . S
C1564 C1563 1.400 . S
C1564 C1567 1.386 . S
H1565 C1581 0.930 . S
H1566 C1582 0.931 . S
C1567 H1555 0.929 . S
C1567 C1561 1.390 . S
C1567 C1564 1.386 . S
C1568 C1563 1.490 . S
C1568 C1570 1.395 . S
C1568 C1571 1.403 . S
H1569 C1575 0.930 . S
C1570 H1556 0.930 . S
C1570 C1568 1.395 . S
C1570 C1573 1.403 . S
C1571 C1568 1.403 . S
C1571 C1572 1.524 . S
C1571 C1575 1.400 . S
C1572 H1557 0.960 . S
C1572 H1558 0.960 . S
C1572 H1559 0.960 . S
C1572 C1571 1.524 . S
C1573 C1570 1.403 . S
C1573 C1574 1.392 . S
C1573 C1577 1.495 . S
C1574 C1573 1.392 . S
C1574 C1575 1.385 . S
C1574 C1576 1.478 . S
C1575 H1569 0.930 . S
C1575 C1571 1.400 . S
C1575 C1574 1.385 . S
C1576 C1574 1.478 . S
C1576 C1578 1.381 . S
C1576 C1582 1.383 . S
C1577 C1573 1.495 . S
C1577 H1583 0.959 . S
C1577 H1584 0.961 . S
C1577 H1585 0.960 . S
C1578 C1576 1.381 . S
C1578 C1579 1.394 . S
C1578 H1586 0.930 . S
C1579 C1578 1.394 . S
C1579 C1580 1.383 . S
C1579 H1587 0.929 . S
C1580 C1579 1.383 . S
C1580 C1581 1.377 . S
C1581 H1565 0.930 . S
C1581 C1580 1.377 . S
C1581 C1582 1.379 . S
C1582 H1566 0.931 . S
C1582 C1576 1.383 . S
C1582 C1581 1.379 . S
H1583 C1577 0.959 . S
H1584 C1577 0.961 . S
H1585 C1577 0.960 . S
H1586 C1578 0.930 . S
H1587 C1579 0.929 . S
H1588 C1596 0.929 . S
H1589 C1598 0.930 . S
H1590 C1600 0.930 . S
H1591 C1603 0.929 . S
H1592 C1606 0.930 . S
H1593 C1608 0.960 . S
H1594 C1608 0.960 . S
H1595 C1608 0.960 . S
C1596 H1588 0.929 . S
C1596 C1597 1.377 . S
C1596 C1598 1.384 . S
C1597 C1596 1.377 . S
C1597 C1603 1.390 . S
C1598 H1589 0.930 . S
C1598 C1596 1.384 . S
C1598 C1599 1.372 . S
C1599 C1598 1.372 . S
C1599 C1600 1.400 . S
C1599 C1604 1.490 . S
C1600 H1590 0.930 . S
C1600 C1599 1.400 . S
C1600 C1603 1.386 . S
H1601 C1617 0.930 . S
H1602 C1618 0.931 . S
C1603 H1591 0.929 . S
C1603 C1597 1.390 . S
C1603 C1600 1.386 . S
C1604 C1599 1.490 . S
C1604 C1606 1.395 . S
C1604 C1607 1.403 . S
H1605 C1611 0.930 . S
C1606 H1592 0.930 . S
C1606 C1604 1.395 . S
C1606 C1609 1.403 . S
C1607 C1604 1.403 . S
C1607 C1608 1.524 . S
C1607 C1611 1.400 . S
C1608 H1593 0.960 . S
C1608 H1594 0.960 . S
C1608 H1595 0.960 . S
C1608 C1607 1.524 . S
C1609 C1606 1.403 . S
C1609 C1610 1.392 . S
C1609 C1613 1.495 . S
C1610 C1609 1.392 . S
C1610 C1611 1.385 . S
C1610 C1612 1.478 . S
C1611 H1605 0.930 . S
C1611 C1607 1.400 . S
C1611 C1610 1.385 . S
C1612 C1610 1.478 . S
C1612 C1614 1.381 . S
C1612 C1618 1.383 . S
C1613 C1609 1.495 . S
C1613 H1619 0.959 . S
C1613 H1620 0.961 . S
C1613 H1621 0.960 . S
C1614 C1612 1.381 . S
C1614 C1615 1.394 . S
C1614 H1622 0.930 . S
C1615 C1614 1.394 . S
C1615 C1616 1.383 . S
C1615 H1623 0.929 . S
C1616 C1615 1.383 . S
C1616 C1617 1.377 . S
C1617 H1601 0.930 . S
C1617 C1616 1.377 . S
C1617 C1618 1.379 . S
C1618 H1602 0.931 . S
C1618 C1612 1.383 . S
C1618 C1617 1.379 . S
H1619 C1613 0.959 . S
H1620 C1613 0.961 . S
H1621 C1613 0.960 . S
H1622 C1614 0.930 . S
H1623 C1615 0.929 . S
H1624 C1632 0.929 . S
H1625 C1634 0.930 . S
H1626 C1636 0.930 . S
H1627 C1639 0.929 . S
H1628 C1642 0.930 . S
H1629 C1644 0.960 . S
H1630 C1644 0.960 . S
H1631 C1644 0.960 . S
C1632 H1624 0.929 . S
C1632 C1633 1.377 . S
C1632 C1634 1.384 . S
C1633 C1632 1.377 . S
C1633 C1639 1.390 . S
C1634 H1625 0.930 . S
C1634 C1632 1.384 . S
C1634 C1635 1.372 . S
C1635 C1634 1.372 . S
C1635 C1636 1.400 . S
C1635 C1640 1.490 . S
C1636 H1626 0.930 . S
C1636 C1635 1.400 . S
C1636 C1639 1.386 . S
H1637 C1653 0.930 . S
H1638 C1654 0.931 . S
C1639 H1627 0.929 . S
C1639 C1633 1.390 . S
C1639 C1636 1.386 . S
C1640 C1635 1.490 . S
C1640 C1642 1.395 . S
C1640 C1643 1.403 . S
H1641 C1647 0.930 . S
C1642 H1628 0.930 . S
C1642 C1640 1.395 . S
C1642 C1645 1.403 . S
C1643 C1640 1.403 . S
C1643 C1644 1.524 . S
C1643 C1647 1.400 . S
C1644 H1629 0.960 . S
C1644 H1630 0.960 . S
C1644 H1631 0.960 . S
C1644 C1643 1.524 . S
C1645 C1642 1.403 . S
C1645 C1646 1.392 . S
C1645 C1649 1.495 . S
C1646 C1645 1.392 . S
C1646 C1647 1.385 . S
C1646 C1648 1.478 . S
C1647 H1641 0.930 . S
C1647 C1643 1.400 . S
C1647 C1646 1.385 . S
C1648 C1646 1.478 . S
C1648 C1650 1.381 . S
C1648 C1654 1.383 . S
C1649 C1645 1.495 . S
C1649 H1655 0.959 . S
C1649 H1656 0.961 . S
C1649 H1657 0.960 . S
C1650 C1648 1.381 . S
C1650 C1651 1.394 . S
C1650 H1658 0.930 . S
C1651 C1650 1.394 . S
C1651 C1652 1.383 . S
C1651 H1659 0.929 . S
C1652 C1651 1.383 . S
C1652 C1653 1.377 . S
C1653 H1637 0.930 . S
C1653 C1652 1.377 . S
C1653 C1654 1.379 . S
C1654 H1638 0.931 . S
C1654 C1648 1.383 . S
C1654 C1653 1.379 . S
H1655 C1649 0.959 . S
H1656 C1649 0.961 . S
H1657 C1649 0.960 . S
H1658 C1650 0.930 . S
H1659 C1651 0.929 . S
H1660 C1668 0.929 . S
H1661 C1670 0.930 . S
H1662 C1672 0.930 . S
H1663 C1675 0.929 . S
H1664 C1678 0.930 . S
H1665 C1680 0.960 . S
H1666 C1680 0.960 . S
H1667 C1680 0.960 . S
C1668 H1660 0.929 . S
C1668 C1669 1.377 . S
C1668 C1670 1.384 . S
C1669 C1668 1.377 . S
C1669 C1675 1.390 . S
C1670 H1661 0.930 . S
C1670 C1668 1.384 . S
C1670 C1671 1.372 . S
C1671 C1670 1.372 . S
C1671 C1672 1.400 . S
C1671 C1676 1.490 . S
C1672 H1662 0.930 . S
C1672 C1671 1.400 . S
C1672 C1675 1.386 . S
H1673 C1689 0.930 . S
H1674 C1690 0.931 . S
C1675 H1663 0.929 . S
C1675 C1669 1.390 . S
C1675 C1672 1.386 . S
C1676 C1671 1.490 . S
C1676 C1678 1.395 . S
C1676 C1679 1.403 . S
H1677 C1683 0.930 . S
C1678 H1664 0.930 . S
C1678 C1676 1.395 . S
C1678 C1681 1.403 . S
C1679 C1676 1.403 . S
C1679 C1680 1.524 . S
C1679 C1683 1.400 . S
C1680 H1665 0.960 . S
C1680 H1666 0.960 . S
C1680 H1667 0.960 . S
C1680 C1679 1.524 . S
C1681 C1678 1.403 . S
C1681 C1682 1.392 . S
C1681 C1685 1.495 . S
C1682 C1681 1.392 . S
C1682 C1683 1.385 . S
C1682 C1684 1.478 . S
C1683 H1677 0.930 . S
C1683 C1679 1.400 . S
C1683 C1682 1.385 . S
C1684 C1682 1.478 . S
C1684 C1686 1.381 . S
C1684 C1690 1.383 . S
C1685 C1681 1.495 . S
C1685 H1691 0.959 . S
C1685 H1692 0.961 . S
C1685 H1693 0.960 . S
C1686 C1684 1.381 . S
C1686 C1687 1.394 . S
C1686 H1694 0.930 . S
C1687 C1686 1.394 . S
C1687 C1688 1.383 . S
C1687 H1695 0.929 . S
C1688 C1687 1.383 . S
C1688 C1689 1.377 . S
C1689 H1673 0.930 . S
C1689 C1688 1.377 . S
C1689 C1690 1.379 . S
C1690 H1674 0.931 . S
C1690 C1684 1.383 . S
C1690 C1689 1.379 . S
H1691 C1685 0.959 . S
H1692 C1685 0.961 . S
H1693 C1685 0.960 . S
H1694 C1686 0.930 . S
H1695 C1687 0.929 . S
H1696 C1704 0.929 . S
H1697 C1706 0.930 . S
H1698 C1708 0.930 . S
H1699 C1711 0.929 . S
H1700 C1714 0.930 . S
H1701 C1716 0.960 . S
H1702 C1716 0.960 . S
H1703 C1716 0.960 . S
C1704 H1696 0.929 . S
C1704 C1705 1.377 . S
C1704 C1706 1.384 . S
C1705 C1704 1.377 . S
C1705 C1711 1.390 . S
C1706 H1697 0.930 . S
C1706 C1704 1.384 . S
C1706 C1707 1.372 . S
C1707 C1706 1.372 . S
C1707 C1708 1.400 . S
C1707 C1712 1.490 . S
C1708 H1698 0.930 . S
C1708 C1707 1.400 . S
C1708 C1711 1.386 . S
H1709 C1725 0.930 . S
H1710 C1726 0.931 . S
C1711 H1699 0.929 . S
C1711 C1705 1.390 . S
C1711 C1708 1.386 . S
C1712 C1707 1.490 . S
C1712 C1714 1.395 . S
C1712 C1715 1.403 . S
H1713 C1719 0.930 . S
C1714 H1700 0.930 . S
C1714 C1712 1.395 . S
C1714 C1717 1.403 . S
C1715 C1712 1.403 . S
C1715 C1716 1.524 . S
C1715 C1719 1.400 . S
C1716 H1701 0.960 . S
C1716 H1702 0.960 . S
C1716 H1703 0.960 . S
C1716 C1715 1.524 . S
C1717 C1714 1.403 . S
C1717 C1718 1.392 . S
C1717 C1721 1.495 . S
C1718 C1717 1.392 . S
C1718 C1719 1.385 . S
C1718 C1720 1.478 . S
C1719 H1713 0.930 . S
C1719 C1715 1.400 . S
C1719 C1718 1.385 . S
C1720 C1718 1.478 . S
C1720 C1722 1.381 . S
C1720 C1726 1.383 . S
C1721 C1717 1.495 . S
C1721 H1727 0.959 . S
C1721 H1728 0.961 . S
C1721 H1729 0.960 . S
C1722 C1720 1.381 . S
C1722 C1723 1.394 . S
C1722 H1730 0.930 . S
C1723 C1722 1.394 . S
C1723 C1724 1.383 . S
C1723 H1731 0.929 . S
C1724 C1723 1.383 . S
C1724 C1725 1.377 . S
C1725 H1709 0.930 . S
C1725 C1724 1.377 . S
C1725 C1726 1.379 . S
C1726 H1710 0.931 . S
C1726 C1720 1.383 . S
C1726 C1725 1.379 . S
H1727 C1721 0.959 . S
H1728 C1721 0.961 . S
H1729 C1721 0.960 . S
H1730 C1722 0.930 . S
H1731 C1723 0.929 . S
H1732 C1740 0.929 . S
H1733 C1742 0.930 . S
H1734 C1744 0.930 . S
H1735 C1747 0.929 . S
H1736 C1750 0.930 . S
H1737 C1752 0.960 . S
H1738 C1752 0.960 . S
H1739 C1752 0.960 . S
C1740 H1732 0.929 . S
C1740 C1741 1.377 . S
C1740 C1742 1.384 . S
C1741 C1740 1.377 . S
C1741 C1747 1.390 . S
C1742 H1733 0.930 . S
C1742 C1740 1.384 . S
C1742 C1743 1.372 . S
C1743 C1742 1.372 . S
C1743 C1744 1.400 . S
C1743 C1748 1.490 . S
C1744 H1734 0.930 . S
C1744 C1743 1.400 . S
C1744 C1747 1.386 . S
H1745 C1761 0.930 . S
H1746 C1762 0.931 . S
C1747 H1735 0.929 . S
C1747 C1741 1.390 . S
C1747 C1744 1.386 . S
C1748 C1743 1.490 . S
C1748 C1750 1.395 . S
C1748 C1751 1.403 . S
H1749 C1755 0.930 . S
C1750 H1736 0.930 . S
C1750 C1748 1.395 . S
C1750 C1753 1.403 . S
C1751 C1748 1.403 . S
C1751 C1752 1.524 . S
C1751 C1755 1.400 . S
C1752 H1737 0.960 . S
C1752 H1738 0.960 . S
C1752 H1739 0.960 . S
C1752 C1751 1.524 . S
C1753 C1750 1.403 . S
C1753 C1754 1.392 . S
C1753 C1757 1.495 . S
C1754 C1753 1.392 . S
C1754 C1755 1.385 . S
C1754 C1756 1.478 . S
C1755 H1749 0.930 . S
C1755 C1751 1.400 . S
C1755 C1754 1.385 . S
C1756 C1754 1.478 . S
C1756 C1758 1.381 . S
C1756 C1762 1.383 . S
C1757 C1753 1.495 . S
C1757 H1763 0.959 . S
C1757 H1764 0.961 . S
C1757 H1765 0.960 . S
C1758 C1756 1.381 . S
C1758 C1759 1.394 . S
C1758 H1766 0.930 . S
C1759 C1758 1.394 . S
C1759 C1760 1.383 . S
C1759 H1767 0.929 . S
C1760 C1759 1.383 . S
C1760 C1761 1.377 . S
C1761 H1745 0.930 . S
C1761 C1760 1.377 . S
C1761 C1762 1.379 . S
C1762 H1746 0.931 . S
C1762 C1756 1.383 . S
C1762 C1761 1.379 . S
H1763 C1757 0.959 . S
H1764 C1757 0.961 . S
H1765 C1757 0.960 . S
H1766 C1758 0.930 . S
H1767 C1759 0.929 . S
H1768 C1776 0.929 . S
H1769 C1778 0.930 . S
H1770 C1780 0.930 . S
H1771 C1783 0.929 . S
H1772 C1786 0.930 . S
H1773 C1788 0.960 . S
H1774 C1788 0.960 . S
H1775 C1788 0.960 . S
C1776 H1768 0.929 . S
C1776 C1777 1.377 . S
C1776 C1778 1.384 . S
C1777 C1776 1.377 . S
C1777 C1783 1.390 . S
C1778 H1769 0.930 . S
C1778 C1776 1.384 . S
C1778 C1779 1.372 . S
C1779 C1778 1.372 . S
C1779 C1780 1.400 . S
C1779 C1784 1.490 . S
C1780 H1770 0.930 . S
C1780 C1779 1.400 . S
C1780 C1783 1.386 . S
H1781 C1797 0.930 . S
H1782 C1798 0.931 . S
C1783 H1771 0.929 . S
C1783 C1777 1.390 . S
C1783 C1780 1.386 . S
C1784 C1779 1.490 . S
C1784 C1786 1.395 . S
C1784 C1787 1.403 . S
H1785 C1791 0.930 . S
C1786 H1772 0.930 . S
C1786 C1784 1.395 . S
C1786 C1789 1.403 . S
C1787 C1784 1.403 . S
C1787 C1788 1.524 . S
C1787 C1791 1.400 . S
C1788 H1773 0.960 . S
C1788 H1774 0.960 . S
C1788 H1775 0.960 . S
C1788 C1787 1.524 . S
C1789 C1786 1.403 . S
C1789 C1790 1.392 . S
C1789 C1793 1.495 . S
C1790 C1789 1.392 . S
C1790 C1791 1.385 . S
C1790 C1792 1.478 . S
C1791 H1785 0.930 . S
C1791 C1787 1.400 . S
C1791 C1790 1.385 . S
C1792 C1790 1.478 . S
C1792 C1794 1.381 . S
C1792 C1798 1.383 . S
C1793 C1789 1.495 . S
C1793 H1799 0.959 . S
C1793 H1800 0.961 . S
C1793 H1801 0.960 . S
C1794 C1792 1.381 . S
C1794 C1795 1.394 . S
C1794 H1802 0.930 . S
C1795 C1794 1.394 . S
C1795 C1796 1.383 . S
C1795 H1803 0.929 . S
C1796 C1795 1.383 . S
C1796 C1797 1.377 . S
C1797 H1781 0.930 . S
C1797 C1796 1.377 . S
C1797 C1798 1.379 . S
C1798 H1782 0.931 . S
C1798 C1792 1.383 . S
C1798 C1797 1.379 . S
H1799 C1793 0.959 . S
H1800 C1793 0.961 . S
H1801 C1793 0.960 . S
H1802 C1794 0.930 . S
H1803 C1795 0.929 . S
H1804 C1812 0.929 . S
H1805 C1814 0.930 . S
H1806 C1816 0.930 . S
H1807 C1819 0.929 . S
H1808 C1822 0.930 . S
H1809 C1824 0.960 . S
H1810 C1824 0.960 . S
H1811 C1824 0.960 . S
C1812 H1804 0.929 . S
C1812 C1813 1.377 . S
C1812 C1814 1.384 . S
C1813 C1812 1.377 . S
C1813 C1819 1.390 . S
C1814 H1805 0.930 . S
C1814 C1812 1.384 . S
C1814 C1815 1.372 . S
C1815 C1814 1.372 . S
C1815 C1816 1.400 . S
C1815 C1820 1.490 . S
C1816 H1806 0.930 . S
C1816 C1815 1.400 . S
C1816 C1819 1.386 . S
H1817 C1833 0.930 . S
H1818 C1834 0.931 . S
C1819 H1807 0.929 . S
C1819 C1813 1.390 . S
C1819 C1816 1.386 . S
C1820 C1815 1.490 . S
C1820 C1822 1.395 . S
C1820 C1823 1.403 . S
H1821 C1827 0.930 . S
C1822 H1808 0.930 . S
C1822 C1820 1.395 . S
C1822 C1825 1.403 . S
C1823 C1820 1.403 . S
C1823 C1824 1.524 . S
C1823 C1827 1.400 . S
C1824 H1809 0.960 . S
C1824 H1810 0.960 . S
C1824 H1811 0.960 . S
C1824 C1823 1.524 . S
C1825 C1822 1.403 . S
C1825 C1826 1.392 . S
C1825 C1829 1.495 . S
C1826 C1825 1.392 . S
C1826 C1827 1.385 . S
C1826 C1828 1.478 . S
C1827 H1821 0.930 . S
C1827 C1823 1.400 . S
C1827 C1826 1.385 . S
C1828 C1826 1.478 . S
C1828 C1830 1.381 . S
C1828 C1834 1.383 . S
C1829 C1825 1.495 . S
C1829 H1835 0.959 . S
C1829 H1836 0.961 . S
C1829 H1837 0.960 . S
C1830 C1828 1.381 . S
C1830 C1831 1.394 . S
C1830 H1838 0.930 . S
C1831 C1830 1.394 . S
C1831 C1832 1.383 . S
C1831 H1839 0.929 . S
C1832 C1831 1.383 . S
C1832 C1833 1.377 . S
C1833 H1817 0.930 . S
C1833 C1832 1.377 . S
C1833 C1834 1.379 . S
C1834 H1818 0.931 . S
C1834 C1828 1.383 . S
C1834 C1833 1.379 . S
H1835 C1829 0.959 . S
H1836 C1829 0.961 . S
H1837 C1829 0.960 . S
H1838 C1830 0.930 . S
H1839 C1831 0.929 . S
H1840 C1848 0.929 . S
H1841 C1850 0.930 . S
H1842 C1852 0.930 . S
H1843 C1855 0.929 . S
H1844 C1858 0.930 . S
H1845 C1860 0.960 . S
H1846 C1860 0.960 . S
H1847 C1860 0.960 . S
C1848 H1840 0.929 . S
C1848 C1849 1.377 . S
C1848 C1850 1.384 . S
C1849 C1848 1.377 . S
C1849 C1855 1.390 . S
C1850 H1841 0.930 . S
C1850 C1848 1.384 . S
C1850 C1851 1.372 . S
C1851 C1850 1.372 . S
C1851 C1852 1.400 . S
C1851 C1856 1.490 . S
C1852 H1842 0.930 . S
C1852 C1851 1.400 . S
C1852 C1855 1.386 . S
H1853 C1869 0.930 . S
H1854 C1870 0.931 . S
C1855 H1843 0.929 . S
C1855 C1849 1.390 . S
C1855 C1852 1.386 . S
C1856 C1851 1.490 . S
C1856 C1858 1.395 . S
C1856 C1859 1.403 . S
H1857 C1863 0.930 . S
C1858 H1844 0.930 . S
C1858 C1856 1.395 . S
C1858 C1861 1.403 . S
C1859 C1856 1.403 . S
C1859 C1860 1.524 . S
C1859 C1863 1.400 . S
C1860 H1845 0.960 . S
C1860 H1846 0.960 . S
C1860 H1847 0.960 . S
C1860 C1859 1.524 . S
C1861 C1858 1.403 . S
C1861 C1862 1.392 . S
C1861 C1865 1.495 . S
C1862 C1861 1.392 . S
C1862 C1863 1.385 . S
C1862 C1864 1.478 . S
C1863 H1857 0.930 . S
C1863 C1859 1.400 . S
C1863 C1862 1.385 . S
C1864 C1862 1.478 . S
C1864 C1866 1.381 . S
C1864 C1870 1.383 . S
C1865 C1861 1.495 . S
C1865 H1871 0.959 . S
C1865 H1872 0.961 . S
C1865 H1873 0.960 . S
C1866 C1864 1.381 . S
C1866 C1867 1.394 . S
C1866 H1874 0.930 . S
C1867 C1866 1.394 . S
C1867 C1868 1.383 . S
C1867 H1875 0.929 . S
C1868 C1867 1.383 . S
C1868 C1869 1.377 . S
C1869 H1853 0.930 . S
C1869 C1868 1.377 . S
C1869 C1870 1.379 . S
C1870 H1854 0.931 . S
C1870 C1864 1.383 . S
C1870 C1869 1.379 . S
H1871 C1865 0.959 . S
H1872 C1865 0.961 . S
H1873 C1865 0.960 . S
H1874 C1866 0.930 . S
H1875 C1867 0.929 . S
H1876 C1884 0.929 . S
H1877 C1886 0.930 . S
H1878 C1888 0.930 . S
H1879 C1891 0.929 . S
H1880 C1894 0.930 . S
H1881 C1896 0.960 . S
H1882 C1896 0.960 . S
H1883 C1896 0.960 . S
C1884 H1876 0.929 . S
C1884 C1885 1.377 . S
C1884 C1886 1.384 . S
C1885 C1884 1.377 . S
C1885 C1891 1.390 . S
C1886 H1877 0.930 . S
C1886 C1884 1.384 . S
C1886 C1887 1.372 . S
C1887 C1886 1.372 . S
C1887 C1888 1.400 . S
C1887 C1892 1.490 . S
C1888 H1878 0.930 . S
C1888 C1887 1.400 . S
C1888 C1891 1.386 . S
H1889 C1905 0.930 . S
H1890 C1906 0.931 . S
C1891 H1879 0.929 . S
C1891 C1885 1.390 . S
C1891 C1888 1.386 . S
C1892 C1887 1.490 . S
C1892 C1894 1.395 . S
C1892 C1895 1.403 . S
H1893 C1899 0.930 . S
C1894 H1880 0.930 . S
C1894 C1892 1.395 . S
C1894 C1897 1.403 . S
C1895 C1892 1.403 . S
C1895 C1896 1.524 . S
C1895 C1899 1.400 . S
C1896 H1881 0.960 . S
C1896 H1882 0.960 . S
C1896 H1883 0.960 . S
C1896 C1895 1.524 . S
C1897 C1894 1.403 . S
C1897 C1898 1.392 . S
C1897 C1901 1.495 . S
C1898 C1897 1.392 . S
C1898 C1899 1.385 . S
C1898 C1900 1.478 . S
C1899 H1893 0.930 . S
C1899 C1895 1.400 . S
C1899 C1898 1.385 . S
C1900 C1898 1.478 . S
C1900 C1902 1.381 . S
C1900 C1906 1.383 . S
C1901 C1897 1.495 . S
C1901 H1907 0.959 . S
C1901 H1908 0.961 . S
C1901 H1909 0.960 . S
C1902 C1900 1.381 . S
C1902 C1903 1.394 . S
C1902 H1910 0.930 . S
C1903 C1902 1.394 . S
C1903 C1904 1.383 . S
C1903 H1911 0.929 . S
C1904 C1903 1.383 . S
C1904 C1905 1.377 . S
C1905 H1889 0.930 . S
C1905 C1904 1.377 . S
C1905 C1906 1.379 . S
C1906 H1890 0.931 . S
C1906 C1900 1.383 . S
C1906 C1905 1.379 . S
H1907 C1901 0.959 . S
H1908 C1901 0.961 . S
H1909 C1901 0.960 . S
H1910 C1902 0.930 . S
H1911 C1903 0.929 . S
H1912 C1920 0.929 . S
H1913 C1922 0.930 . S
H1914 C1924 0.930 . S
H1915 C1927 0.929 . S
H1916 C1930 0.930 . S
H1917 C1932 0.960 . S
H1918 C1932 0.960 . S
H1919 C1932 0.960 . S
C1920 H1912 0.929 . S
C1920 C1921 1.377 . S
C1920 C1922 1.384 . S
C1921 C1920 1.377 . S
C1921 C1927 1.390 . S
C1922 H1913 0.930 . S
C1922 C1920 1.384 . S
C1922 C1923 1.372 . S
C1923 C1922 1.372 . S
C1923 C1924 1.400 . S
C1923 C1928 1.490 . S
C1924 H1914 0.930 . S
C1924 C1923 1.400 . S
C1924 C1927 1.386 . S
H1925 C1941 0.930 . S
H1926 C1942 0.931 . S
C1927 H1915 0.929 . S
C1927 C1921 1.390 . S
C1927 C1924 1.386 . S
C1928 C1923 1.490 . S
C1928 C1930 1.395 . S
C1928 C1931 1.403 . S
H1929 C1935 0.930 . S
C1930 H1916 0.930 . S
C1930 C1928 1.395 . S
C1930 C1933 1.403 . S
C1931 C1928 1.403 . S
C1931 C1932 1.524 . S
C1931 C1935 1.400 . S
C1932 H1917 0.960 . S
C1932 H1918 0.960 . S
C1932 H1919 0.960 . S
C1932 C1931 1.524 . S
C1933 C1930 1.403 . S
C1933 C1934 1.392 . S
C1933 C1937 1.495 . S
C1934 C1933 1.392 . S
C1934 C1935 1.385 . S
C1934 C1936 1.478 . S
C1935 H1929 0.930 . S
C1935 C1931 1.400 . S
C1935 C1934 1.385 . S
C1936 C1934 1.478 . S
C1936 C1938 1.381 . S
C1936 C1942 1.383 . S
C1937 C1933 1.495 . S
C1937 H1943 0.959 . S
C1937 H1944 0.961 . S
C1937 H1945 0.960 . S
C1938 C1936 1.381 . S
C1938 C1939 1.394 . S
C1938 H1946 0.930 . S
C1939 C1938 1.394 . S
C1939 C1940 1.383 . S
C1939 H1947 0.929 . S
C1940 C1939 1.383 . S
C1940 C1941 1.377 . S
C1941 H1925 0.930 . S
C1941 C1940 1.377 . S
C1941 C1942 1.379 . S
C1942 H1926 0.931 . S
C1942 C1936 1.383 . S
C1942 C1941 1.379 . S
H1943 C1937 0.959 . S
H1944 C1937 0.961 . S
H1945 C1937 0.960 . S
H1946 C1938 0.930 . S
H1947 C1939 0.929 . S
H1948 C1956 0.929 . S
H1949 C1958 0.930 . S
H1950 C1960 0.930 . S
H1951 C1963 0.929 . S
H1952 C1966 0.930 . S
H1953 C1968 0.960 . S
H1954 C1968 0.960 . S
H1955 C1968 0.960 . S
C1956 H1948 0.929 . S
C1956 C1957 1.377 . S
C1956 C1958 1.384 . S
C1957 C1956 1.377 . S
C1957 C1963 1.390 . S
C1958 H1949 0.930 . S
C1958 C1956 1.384 . S
C1958 C1959 1.372 . S
C1959 C1958 1.372 . S
C1959 C1960 1.400 . S
C1959 C1964 1.490 . S
C1960 H1950 0.930 . S
C1960 C1959 1.400 . S
C1960 C1963 1.386 . S
H1961 C1977 0.930 . S
H1962 C1978 0.931 . S
C1963 H1951 0.929 . S
C1963 C1957 1.390 . S
C1963 C1960 1.386 . S
C1964 C1959 1.490 . S
C1964 C1966 1.395 . S
C1964 C1967 1.403 . S
H1965 C1971 0.930 . S
C1966 H1952 0.930 . S
C1966 C1964 1.395 . S
C1966 C1969 1.403 . S
C1967 C1964 1.403 . S
C1967 C1968 1.524 . S
C1967 C1971 1.400 . S
C1968 H1953 0.960 . S
C1968 H1954 0.960 . S
C1968 H1955 0.960 . S
C1968 C1967 1.524 . S
C1969 C1966 1.403 . S
C1969 C1970 1.392 . S
C1969 C1973 1.495 . S
C1970 C1969 1.392 . S
C1970 C1971 1.385 . S
C1970 C1972 1.478 . S
C1971 H1965 0.930 . S
C1971 C1967 1.400 . S
C1971 C1970 1.385 . S
C1972 C1970 1.478 . S
C1972 C1974 1.381 . S
C1972 C1978 1.383 . S
C1973 C1969 1.495 . S
C1973 H1979 0.959 . S
C1973 H1980 0.961 . S
C1973 H1981 0.960 . S
C1974 C1972 1.381 . S
C1974 C1975 1.394 . S
C1974 H1982 0.930 . S
C1975 C1974 1.394 . S
C1975 C1976 1.383 . S
C1975 H1983 0.929 . S
C1976 C1975 1.383 . S
C1976 C1977 1.377 . S
C1977 H1961 0.930 . S
C1977 C1976 1.377 . S
C1977 C1978 1.379 . S
C1978 H1962 0.931 . S
C1978 C1972 1.383 . S
C1978 C1977 1.379 . S
H1979 C1973 0.959 . S
H1980 C1973 0.961 . S
H1981 C1973 0.960 . S
H1982 C1974 0.930 . S
H1983 C1975 0.929 . S
H1984 C1992 0.929 . S
H1985 C1994 0.930 . S
H1986 C1996 0.930 . S
H1987 C1999 0.929 . S
H1988 C2002 0.930 . S
H1989 C2004 0.960 . S
H1990 C2004 0.960 . S
H1991 C2004 0.960 . S
C1992 H1984 0.929 . S
C1992 C1993 1.377 . S
C1992 C1994 1.384 . S
C1993 C1992 1.377 . S
C1993 C1999 1.390 . S
C1994 H1985 0.930 . S
C1994 C1992 1.384 . S
C1994 C1995 1.372 . S
C1995 C1994 1.372 . S
C1995 C1996 1.400 . S
C1995 C2000 1.490 . S
C1996 H1986 0.930 . S
C1996 C1995 1.400 . S
C1996 C1999 1.386 . S
H1997 C2013 0.930 . S
H1998 C2014 0.931 . S
C1999 H1987 0.929 . S
C1999 C1993 1.390 . S
C1999 C1996 1.386 . S
C2000 C1995 1.490 . S
C2000 C2002 1.395 . S
C2000 C2003 1.403 . S
H2001 C2007 0.930 . S
C2002 H1988 0.930 . S
C2002 C2000 1.395 . S
C2002 C2005 1.403 . S
C2003 C2000 1.403 . S
C2003 C2004 1.524 . S
C2003 C2007 1.400 . S
C2004 H1989 0.960 . S
C2004 H1990 0.960 . S
C2004 H1991 0.960 . S
C2004 C2003 1.524 . S
C2005 C2002 1.403 . S
C2005 C2006 1.392 . S
C2005 C2009 1.495 . S
C2006 C2005 1.392 . S
C2006 C2007 1.385 . S
C2006 C2008 1.478 . S
C2007 H2001 0.930 . S
C2007 C2003 1.400 . S
C2007 C2006 1.385 . S
C2008 C2006 1.478 . S
C2008 C2010 1.381 . S
C2008 C2014 1.383 . S
C2009 C2005 1.495 . S
C2009 H2015 0.959 . S
C2009 H2016 0.961 . S
C2009 H2017 0.960 . S
C2010 C2008 1.381 . S
C2010 C2011 1.394 . S
C2010 H2018 0.930 . S
C2011 C2010 1.394 . S
C2011 C2012 1.383 . S
C2011 H2019 0.929 . S
C2012 C2011 1.383 . S
C2012 C2013 1.377 . S
C2013 H1997 0.930 . S
C2013 C2012 1.377 . S
C2013 C2014 1.379 . S
C2014 H1998 0.931 . S
C2014 C2008 1.383 . S
C2014 C2013 1.379 . S
H2015 C2009 0.959 . S
H2016 C2009 0.961 . S
H2017 C2009 0.960 . S
H2018 C2010 0.930 . S
H2019 C2011 0.929 . S
H2020 C2028 0.929 . S
H2021 C2030 0.930 . S
H2022 C2032 0.930 . S
H2023 C2035 0.929 . S
H2024 C2038 0.930 . S
H2025 C2040 0.960 . S
H2026 C2040 0.960 . S
H2027 C2040 0.960 . S
C2028 H2020 0.929 . S
C2028 C2029 1.377 . S
C2028 C2030 1.384 . S
C2029 C2028 1.377 . S
C2029 C2035 1.390 . S
C2030 H2021 0.930 . S
C2030 C2028 1.384 . S
C2030 C2031 1.372 . S
C2031 C2030 1.372 . S
C2031 C2032 1.400 . S
C2031 C2036 1.490 . S
C2032 H2022 0.930 . S
C2032 C2031 1.400 . S
C2032 C2035 1.386 . S
H2033 C2049 0.930 . S
H2034 C2050 0.931 . S
C2035 H2023 0.929 . S
C2035 C2029 1.390 . S
C2035 C2032 1.386 . S
C2036 C2031 1.490 . S
C2036 C2038 1.395 . S
C2036 C2039 1.403 . S
H2037 C2043 0.930 . S
C2038 H2024 0.930 . S
C2038 C2036 1.395 . S
C2038 C2041 1.403 . S
C2039 C2036 1.403 . S
C2039 C2040 1.524 . S
C2039 C2043 1.400 . S
C2040 H2025 0.960 . S
C2040 H2026 0.960 . S
C2040 H2027 0.960 . S
C2040 C2039 1.524 . S
C2041 C2038 1.403 . S
C2041 C2042 1.392 . S
C2041 C2045 1.495 . S
C2042 C2041 1.392 . S
C2042 C2043 1.385 . S
C2042 C2044 1.478 . S
C2043 H2037 0.930 . S
C2043 C2039 1.400 . S
C2043 C2042 1.385 . S
C2044 C2042 1.478 . S
C2044 C2046 1.381 . S
C2044 C2050 1.383 . S
C2045 C2041 1.495 . S
C2045 H2051 0.959 . S
C2045 H2052 0.961 . S
C2045 H2053 0.960 . S
C2046 C2044 1.381 . S
C2046 C2047 1.394 . S
C2046 H2054 0.930 . S
C2047 C2046 1.394 . S
C2047 C2048 1.383 . S
C2047 H2055 0.929 . S
C2048 C2047 1.383 . S
C2048 C2049 1.377 . S
C2049 H2033 0.930 . S
C2049 C2048 1.377 . S
C2049 C2050 1.379 . S
C2050 H2034 0.931 . S
C2050 C2044 1.383 . S
C2050 C2049 1.379 . S
H2051 C2045 0.959 . S
H2052 C2045 0.961 . S
H2053 C2045 0.960 . S
H2054 C2046 0.930 . S
H2055 C2047 0.929 . S
H2056 C2064 0.929 . S
H2057 C2066 0.930 . S
H2058 C2068 0.930 . S
H2059 C2071 0.929 . S
H2060 C2074 0.930 . S
H2061 C2076 0.960 . S
H2062 C2076 0.960 . S
H2063 C2076 0.960 . S
C2064 H2056 0.929 . S
C2064 C2065 1.377 . S
C2064 C2066 1.384 . S
C2065 C2064 1.377 . S
C2065 C2071 1.390 . S
C2066 H2057 0.930 . S
C2066 C2064 1.384 . S
C2066 C2067 1.372 . S
C2067 C2066 1.372 . S
C2067 C2068 1.400 . S
C2067 C2072 1.490 . S
C2068 H2058 0.930 . S
C2068 C2067 1.400 . S
C2068 C2071 1.386 . S
H2069 C2085 0.930 . S
H2070 C2086 0.931 . S
C2071 H2059 0.929 . S
C2071 C2065 1.390 . S
C2071 C2068 1.386 . S
C2072 C2067 1.490 . S
C2072 C2074 1.395 . S
C2072 C2075 1.403 . S
H2073 C2079 0.930 . S
C2074 H2060 0.930 . S
C2074 C2072 1.395 . S
C2074 C2077 1.403 . S
C2075 C2072 1.403 . S
C2075 C2076 1.524 . S
C2075 C2079 1.400 . S
C2076 H2061 0.960 . S
C2076 H2062 0.960 . S
C2076 H2063 0.960 . S
C2076 C2075 1.524 . S
C2077 C2074 1.403 . S
C2077 C2078 1.392 . S
C2077 C2081 1.495 . S
C2078 C2077 1.392 . S
C2078 C2079 1.385 . S
C2078 C2080 1.478 . S
C2079 H2073 0.930 . S
C2079 C2075 1.400 . S
C2079 C2078 1.385 . S
C2080 C2078 1.478 . S
C2080 C2082 1.381 . S
C2080 C2086 1.383 . S
C2081 C2077 1.495 . S
C2081 H2087 0.959 . S
C2081 H2088 0.961 . S
C2081 H2089 0.960 . S
C2082 C2080 1.381 . S
C2082 C2083 1.394 . S
C2082 H2090 0.930 . S
C2083 C2082 1.394 . S
C2083 C2084 1.383 . S
C2083 H2091 0.929 . S
C2084 C2083 1.383 . S
C2084 C2085 1.377 . S
C2085 H2069 0.930 . S
C2085 C2084 1.377 . S
C2085 C2086 1.379 . S
C2086 H2070 0.931 . S
C2086 C2080 1.383 . S
C2086 C2085 1.379 . S
H2087 C2081 0.959 . S
H2088 C2081 0.961 . S
H2089 C2081 0.960 . S
H2090 C2082 0.930 . S
H2091 C2083 0.929 . S
H2092 C2100 0.929 . S
H2093 C2102 0.930 . S
H2094 C2104 0.930 . S
H2095 C2107 0.929 . S
H2096 C2110 0.930 . S
H2097 C2112 0.960 . S
H2098 C2112 0.960 . S
H2099 C2112 0.960 . S
C2100 H2092 0.929 . S
C2100 C2101 1.377 . S
C2100 C2102 1.384 . S
C2101 C2100 1.377 . S
C2101 C2107 1.390 . S
C2102 H2093 0.930 . S
C2102 C2100 1.384 . S
C2102 C2103 1.372 . S
C2103 C2102 1.372 . S
C2103 C2104 1.400 . S
C2103 C2108 1.490 . S
C2104 H2094 0.930 . S
C2104 C2103 1.400 . S
C2104 C2107 1.386 . S
H2105 C2121 0.930 . S
H2106 C2122 0.931 . S
C2107 H2095 0.929 . S
C2107 C2101 1.390 . S
C2107 C2104 1.386 . S
C2108 C2103 1.490 . S
C2108 C2110 1.395 . S
C2108 C2111 1.403 . S
H2109 C2115 0.930 . S
C2110 H2096 0.930 . S
C2110 C2108 1.395 . S
C2110 C2113 1.403 . S
C2111 C2108 1.403 . S
C2111 C2112 1.524 . S
C2111 C2115 1.400 . S
C2112 H2097 0.960 . S
C2112 H2098 0.960 . S
C2112 H2099 0.960 . S
C2112 C2111 1.524 . S
C2113 C2110 1.403 . S
C2113 C2114 1.392 . S
C2113 C2117 1.495 . S
C2114 C2113 1.392 . S
C2114 C2115 1.385 . S
C2114 C2116 1.478 . S
C2115 H2109 0.930 . S
C2115 C2111 1.400 . S
C2115 C2114 1.385 . S
C2116 C2114 1.478 . S
C2116 C2118 1.381 . S
C2116 C2122 1.383 . S
C2117 C2113 1.495 . S
C2117 H2123 0.959 . S
C2117 H2124 0.961 . S
C2117 H2125 0.960 . S
C2118 C2116 1.381 . S
C2118 C2119 1.394 . S
C2118 H2126 0.930 . S
C2119 C2118 1.394 . S
C2119 C2120 1.383 . S
C2119 H2127 0.929 . S
C2120 C2119 1.383 . S
C2120 C2121 1.377 . S
C2121 H2105 0.930 . S
C2121 C2120 1.377 . S
C2121 C2122 1.379 . S
C2122 H2106 0.931 . S
C2122 C2116 1.383 . S
C2122 C2121 1.379 . S
H2123 C2117 0.959 . S
H2124 C2117 0.961 . S
H2125 C2117 0.960 . S
H2126 C2118 0.930 . S
H2127 C2119 0.929 . S
H2128 C2136 0.929 . S
H2129 C2138 0.930 . S
H2130 C2140 0.930 . S
H2131 C2143 0.929 . S
H2132 C2146 0.930 . S
H2133 C2148 0.960 . S
H2134 C2148 0.960 . S
H2135 C2148 0.960 . S
C2136 H2128 0.929 . S
C2136 C2137 1.377 . S
C2136 C2138 1.384 . S
C2137 C2136 1.377 . S
C2137 C2143 1.390 . S
C2138 H2129 0.930 . S
C2138 C2136 1.384 . S
C2138 C2139 1.372 . S
C2139 C2138 1.372 . S
C2139 C2140 1.400 . S
C2139 C2144 1.490 . S
C2140 H2130 0.930 . S
C2140 C2139 1.400 . S
C2140 C2143 1.386 . S
H2141 C2157 0.930 . S
H2142 C2158 0.931 . S
C2143 H2131 0.929 . S
C2143 C2137 1.390 . S
C2143 C2140 1.386 . S
C2144 C2139 1.490 . S
C2144 C2146 1.395 . S
C2144 C2147 1.403 . S
H2145 C2151 0.930 . S
C2146 H2132 0.930 . S
C2146 C2144 1.395 . S
C2146 C2149 1.403 . S
C2147 C2144 1.403 . S
C2147 C2148 1.524 . S
C2147 C2151 1.400 . S
C2148 H2133 0.960 . S
C2148 H2134 0.960 . S
C2148 H2135 0.960 . S
C2148 C2147 1.524 . S
C2149 C2146 1.403 . S
C2149 C2150 1.392 . S
C2149 C2153 1.495 . S
C2150 C2149 1.392 . S
C2150 C2151 1.385 . S
C2150 C2152 1.478 . S
C2151 H2145 0.930 . S
C2151 C2147 1.400 . S
C2151 C2150 1.385 . S
C2152 C2150 1.478 . S
C2152 C2154 1.381 . S
C2152 C2158 1.383 . S
C2153 C2149 1.495 . S
C2153 H2159 0.959 . S
C2153 H2160 0.961 . S
C2153 H2161 0.960 . S
C2154 C2152 1.381 . S
C2154 C2155 1.394 . S
C2154 H2162 0.930 . S
C2155 C2154 1.394 . S
C2155 C2156 1.383 . S
C2155 H2163 0.929 . S
C2156 C2155 1.383 . S
C2156 C2157 1.377 . S
C2157 H2141 0.930 . S
C2157 C2156 1.377 . S
C2157 C2158 1.379 . S
C2158 H2142 0.931 . S
C2158 C2152 1.383 . S
C2158 C2157 1.379 . S
H2159 C2153 0.959 . S
H2160 C2153 0.961 . S
H2161 C2153 0.960 . S
H2162 C2154 0.930 . S
H2163 C2155 0.929 . S
H2164 C2172 0.929 . S
H2165 C2174 0.930 . S
H2166 C2176 0.930 . S
H2167 C2179 0.929 . S
H2168 C2182 0.930 . S
H2169 C2184 0.960 . S
H2170 C2184 0.960 . S
H2171 C2184 0.960 . S
C2172 H2164 0.929 . S
C2172 C2173 1.377 . S
C2172 C2174 1.384 . S
C2173 C2172 1.377 . S
C2173 C2179 1.390 . S
C2174 H2165 0.930 . S
C2174 C2172 1.384 . S
C2174 C2175 1.372 . S
C2175 C2174 1.372 . S
C2175 C2176 1.400 . S
C2175 C2180 1.490 . S
C2176 H2166 0.930 . S
C2176 C2175 1.400 . S
C2176 C2179 1.386 . S
H2177 C2193 0.930 . S
H2178 C2194 0.931 . S
C2179 H2167 0.929 . S
C2179 C2173 1.390 . S
C2179 C2176 1.386 . S
C2180 C2175 1.490 . S
C2180 C2182 1.395 . S
C2180 C2183 1.403 . S
H2181 C2187 0.930 . S
C2182 H2168 0.930 . S
C2182 C2180 1.395 . S
C2182 C2185 1.403 . S
C2183 C2180 1.403 . S
C2183 C2184 1.524 . S
C2183 C2187 1.400 . S
C2184 H2169 0.960 . S
C2184 H2170 0.960 . S
C2184 H2171 0.960 . S
C2184 C2183 1.524 . S
C2185 C2182 1.403 . S
C2185 C2186 1.392 . S
C2185 C2189 1.495 . S
C2186 C2185 1.392 . S
C2186 C2187 1.385 . S
C2186 C2188 1.478 . S
C2187 H2181 0.930 . S
C2187 C2183 1.400 . S
C2187 C2186 1.385 . S
C2188 C2186 1.478 . S
C2188 C2190 1.381 . S
C2188 C2194 1.383 . S
C2189 C2185 1.495 . S
C2189 H2195 0.959 . S
C2189 H2196 0.961 . S
C2189 H2197 0.960 . S
C2190 C2188 1.381 . S
C2190 C2191 1.394 . S
C2190 H2198 0.930 . S
C2191 C2190 1.394 . S
C2191 C2192 1.383 . S
C2191 H2199 0.929 . S
C2192 C2191 1.383 . S
C2192 C2193 1.377 . S
C2193 H2177 0.930 . S
C2193 C2192 1.377 . S
C2193 C2194 1.379 . S
C2194 H2178 0.931 . S
C2194 C2188 1.383 . S
C2194 C2193 1.379 . S
H2195 C2189 0.959 . S
H2196 C2189 0.961 . S
H2197 C2189 0.960 . S
H2198 C2190 0.930 . S
H2199 C2191 0.929 . S
H2200 C2208 0.929 . S
H2201 C2210 0.930 . S
H2202 C2212 0.930 . S
H2203 C2215 0.929 . S
H2204 C2218 0.930 . S
H2205 C2220 0.960 . S
H2206 C2220 0.960 . S
H2207 C2220 0.960 . S
C2208 H2200 0.929 . S
C2208 C2209 1.377 . S
C2208 C2210 1.384 . S
C2209 C2208 1.377 . S
C2209 C2215 1.390 . S
C2210 H2201 0.930 . S
C2210 C2208 1.384 . S
C2210 C2211 1.372 . S
C2211 C2210 1.372 . S
C2211 C2212 1.400 . S
C2211 C2216 1.490 . S
C2212 H2202 0.930 . S
C2212 C2211 1.400 . S
C2212 C2215 1.386 . S
H2213 C2229 0.930 . S
H2214 C2230 0.931 . S
C2215 H2203 0.929 . S
C2215 C2209 1.390 . S
C2215 C2212 1.386 . S
C2216 C2211 1.490 . S
C2216 C2218 1.395 . S
C2216 C2219 1.403 . S
H2217 C2223 0.930 . S
C2218 H2204 0.930 . S
C2218 C2216 1.395 . S
C2218 C2221 1.403 . S
C2219 C2216 1.403 . S
C2219 C2220 1.524 . S
C2219 C2223 1.400 . S
C2220 H2205 0.960 . S
C2220 H2206 0.960 . S
C2220 H2207 0.960 . S
C2220 C2219 1.524 . S
C2221 C2218 1.403 . S
C2221 C2222 1.392 . S
C2221 C2225 1.495 . S
C2222 C2221 1.392 . S
C2222 C2223 1.385 . S
C2222 C2224 1.478 . S
C2223 H2217 0.930 . S
C2223 C2219 1.400 . S
C2223 C2222 1.385 . S
C2224 C2222 1.478 . S
C2224 C2226 1.381 . S
C2224 C2230 1.383 . S
C2225 C2221 1.495 . S
C2225 H2231 0.959 . S
C2225 H2232 0.961 . S
C2225 H2233 0.960 . S
C2226 C2224 1.381 . S
C2226 C2227 1.394 . S
C2226 H2234 0.930 . S
C2227 C2226 1.394 . S
C2227 C2228 1.383 . S
C2227 H2235 0.929 . S
C2228 C2227 1.383 . S
C2228 C2229 1.377 . S
C2229 H2213 0.930 . S
C2229 C2228 1.377 . S
C2229 C2230 1.379 . S
C2230 H2214 0.931 . S
C2230 C2224 1.383 . S
C2230 C2229 1.379 . S
H2231 C2225 0.959 . S
H2232 C2225 0.961 . S
H2233 C2225 0.960 . S
H2234 C2226 0.930 . S
H2235 C2227 0.929 . S
H2236 C2244 0.929 . S
H2237 C2246 0.930 . S
H2238 C2248 0.930 . S
H2239 C2251 0.929 . S
H2240 C2254 0.930 . S
H2241 C2256 0.960 . S
H2242 C2256 0.960 . S
H2243 C2256 0.960 . S
C2244 H2236 0.929 . S
C2244 C2245 1.377 . S
C2244 C2246 1.384 . S
C2245 C2244 1.377 . S
C2245 C2251 1.390 . S
C2246 H2237 0.930 . S
C2246 C2244 1.384 . S
C2246 C2247 1.372 . S
C2247 C2246 1.372 . S
C2247 C2248 1.400 . S
C2247 C2252 1.490 . S
C2248 H2238 0.930 . S
C2248 C2247 1.400 . S
C2248 C2251 1.386 . S
H2249 C2265 0.930 . S
H2250 C2266 0.931 . S
C2251 H2239 0.929 . S
C2251 C2245 1.390 . S
C2251 C2248 1.386 . S
C2252 C2247 1.490 . S
C2252 C2254 1.395 . S
C2252 C2255 1.403 . S
H2253 C2259 0.930 . S
C2254 H2240 0.930 . S
C2254 C2252 1.395 . S
C2254 C2257 1.403 . S
C2255 C2252 1.403 . S
C2255 C2256 1.524 . S
C2255 C2259 1.400 . S
C2256 H2241 0.960 . S
C2256 H2242 0.960 . S
C2256 H2243 0.960 . S
C2256 C2255 1.524 . S
C2257 C2254 1.403 . S
C2257 C2258 1.392 . S
C2257 C2261 1.495 . S
C2258 C2257 1.392 . S
C2258 C2259 1.385 . S
C2258 C2260 1.478 . S
C2259 H2253 0.930 . S
C2259 C2255 1.400 . S
C2259 C2258 1.385 . S
C2260 C2258 1.478 . S
C2260 C2262 1.381 . S
C2260 C2266 1.383 . S
C2261 C2257 1.495 . S
C2261 H2267 0.959 . S
C2261 H2268 0.961 . S
C2261 H2269 0.960 . S
C2262 C2260 1.381 . S
C2262 C2263 1.394 . S
C2262 H2270 0.930 . S
C2263 C2262 1.394 . S
C2263 C2264 1.383 . S
C2263 H2271 0.929 . S
C2264 C2263 1.383 . S
C2264 C2265 1.377 . S
C2265 H2249 0.930 . S
C2265 C2264 1.377 . S
C2265 C2266 1.379 . S
C2266 H2250 0.931 . S
C2266 C2260 1.383 . S
C2266 C2265 1.379 . S
H2267 C2261 0.959 . S
H2268 C2261 0.961 . S
H2269 C2261 0.960 . S
H2270 C2262 0.930 . S
H2271 C2263 0.929 . S
H2272 C2280 0.929 . S
H2273 C2282 0.930 . S
H2274 C2284 0.930 . S
H2275 C2287 0.929 . S
H2276 C2290 0.930 . S
H2277 C2292 0.960 . S
H2278 C2292 0.960 . S
H2279 C2292 0.960 . S
C2280 H2272 0.929 . S
C2280 C2281 1.377 . S
C2280 C2282 1.384 . S
C2281 C2280 1.377 . S
C2281 C2287 1.390 . S
C2282 H2273 0.930 . S
C2282 C2280 1.384 . S
C2282 C2283 1.372 . S
C2283 C2282 1.372 . S
C2283 C2284 1.400 . S
C2283 C2288 1.490 . S
C2284 H2274 0.930 . S
C2284 C2283 1.400 . S
C2284 C2287 1.386 . S
H2285 C2301 0.930 . S
H2286 C2302 0.931 . S
C2287 H2275 0.929 . S
C2287 C2281 1.390 . S
C2287 C2284 1.386 . S
C2288 C2283 1.490 . S
C2288 C2290 1.395 1_455 S
C2288 C2291 1.403 . S
H2289 C2295 0.930 . S
C2290 H2276 0.930 . S
C2290 C2288 1.395 1_655 S
C2290 C2293 1.403 . S
C2291 C2288 1.403 . S
C2291 C2292 1.524 . S
C2291 C2295 1.400 . S
C2292 H2277 0.960 . S
C2292 H2278 0.960 . S
C2292 H2279 0.960 . S
C2292 C2291 1.524 . S
C2293 C2290 1.403 . S
C2293 C2294 1.392 . S
C2293 C2297 1.495 . S
C2294 C2293 1.392 . S
C2294 C2295 1.385 1_655 S
C2294 C2296 1.478 . S
C2295 H2289 0.930 . S
C2295 C2291 1.400 . S
C2295 C2294 1.385 1_455 S
C2296 C2294 1.478 . S
C2296 C2298 1.381 . S
C2296 C2302 1.383 . S
C2297 C2293 1.495 . S
C2297 H2303 0.959 . S
C2297 H2304 0.961 . S
C2297 H2305 0.960 . S
C2298 C2296 1.381 . S
C2298 C2299 1.394 . S
C2298 H2306 0.930 . S
C2299 C2298 1.394 . S
C2299 C2300 1.383 . S
C2299 H2307 0.929 . S
C2300 C2299 1.383 . S
C2300 C2301 1.377 . S
C2301 H2285 0.930 . S
C2301 C2300 1.377 . S
C2301 C2302 1.379 . S
C2302 H2286 0.931 . S
C2302 C2296 1.383 . S
C2302 C2301 1.379 . S
H2303 C2297 0.959 . S
H2304 C2297 0.961 . S
H2305 C2297 0.960 . S
H2306 C2298 0.930 . S
H2307 C2299 0.929 . S
H2308 C2316 0.929 . S
H2309 C2318 0.930 . S
H2310 C2320 0.930 . S
H2311 C2323 0.929 . S
H2312 C2326 0.930 . S
H2313 C2328 0.960 . S
H2314 C2328 0.960 . S
H2315 C2328 0.960 . S
C2316 H2308 0.929 . S
C2316 C2317 1.377 . S
C2316 C2318 1.384 . S
C2317 C2316 1.377 . S
C2317 C2323 1.390 . S
C2318 H2309 0.930 . S
C2318 C2316 1.384 . S
C2318 C2319 1.372 . S
C2319 C2318 1.372 . S
C2319 C2320 1.400 . S
C2319 C2324 1.490 . S
C2320 H2310 0.930 . S
C2320 C2319 1.400 . S
C2320 C2323 1.386 . S
H2321 C2337 0.930 . S
H2322 C2338 0.931 . S
C2323 H2311 0.929 . S
C2323 C2317 1.390 . S
C2323 C2320 1.386 . S
C2324 C2319 1.490 . S
C2324 C2326 1.395 1_565 S
C2324 C2327 1.403 . S
H2325 C2331 0.930 . S
C2326 H2312 0.930 . S
C2326 C2324 1.395 1_545 S
C2326 C2329 1.403 . S
C2327 C2324 1.403 . S
C2327 C2328 1.524 . S
C2327 C2331 1.400 . S
C2328 H2313 0.960 . S
C2328 H2314 0.960 . S
C2328 H2315 0.960 . S
C2328 C2327 1.524 . S
C2329 C2326 1.403 . S
C2329 C2330 1.392 . S
C2329 C2333 1.495 . S
C2330 C2329 1.392 . S
C2330 C2331 1.385 1_545 S
C2330 C2332 1.478 . S
C2331 H2325 0.930 . S
C2331 C2327 1.400 . S
C2331 C2330 1.385 1_565 S
C2332 C2330 1.478 . S
C2332 C2334 1.381 . S
C2332 C2338 1.383 . S
C2333 C2329 1.495 . S
C2333 H2339 0.959 . S
C2333 H2340 0.961 . S
C2333 H2341 0.960 . S
C2334 C2332 1.381 . S
C2334 C2335 1.394 . S
C2334 H2342 0.930 . S
C2335 C2334 1.394 . S
C2335 C2336 1.383 . S
C2335 H2343 0.929 . S
C2336 C2335 1.383 . S
C2336 C2337 1.377 . S
C2337 H2321 0.930 . S
C2337 C2336 1.377 . S
C2337 C2338 1.379 . S
C2338 H2322 0.931 . S
C2338 C2332 1.383 . S
C2338 C2337 1.379 . S
H2339 C2333 0.959 . S
H2340 C2333 0.961 . S
H2341 C2333 0.960 . S
H2342 C2334 0.930 . S
H2343 C2335 0.929 . S
H2344 C2352 0.929 . S
H2345 C2354 0.930 . S
H2346 C2356 0.930 . S
H2347 C2359 0.929 . S
H2348 C2362 0.930 . S
H2349 C2364 0.960 . S
H2350 C2364 0.960 . S
H2351 C2364 0.960 . S
C2352 H2344 0.929 . S
C2352 C2353 1.377 . S
C2352 C2354 1.384 . S
C2353 C2352 1.377 . S
C2353 C2359 1.390 . S
C2354 H2345 0.930 . S
C2354 C2352 1.384 . S
C2354 C2355 1.372 . S
C2355 C2354 1.372 . S
C2355 C2356 1.400 . S
C2355 C2360 1.490 . S
C2356 H2346 0.930 . S
C2356 C2355 1.400 . S
C2356 C2359 1.386 . S
H2357 C2373 0.930 . S
H2358 C2374 0.931 . S
C2359 H2347 0.929 . S
C2359 C2353 1.390 . S
C2359 C2356 1.386 . S
C2360 C2355 1.490 . S
C2360 C2362 1.395 1_455 S
C2360 C2363 1.403 . S
H2361 C2367 0.930 . S
C2362 H2348 0.930 . S
C2362 C2360 1.395 1_655 S
C2362 C2365 1.403 . S
C2363 C2360 1.403 . S
C2363 C2364 1.524 . S
C2363 C2367 1.400 . S
C2364 H2349 0.960 . S
C2364 H2350 0.960 . S
C2364 H2351 0.960 . S
C2364 C2363 1.524 . S
C2365 C2362 1.403 . S
C2365 C2366 1.392 . S
C2365 C2369 1.495 . S
C2366 C2365 1.392 . S
C2366 C2367 1.385 1_655 S
C2366 C2368 1.478 . S
C2367 H2361 0.930 . S
C2367 C2363 1.400 . S
C2367 C2366 1.385 1_455 S
C2368 C2366 1.478 . S
C2368 C2370 1.381 . S
C2368 C2374 1.383 . S
C2369 C2365 1.495 . S
C2369 H2375 0.959 . S
C2369 H2376 0.961 . S
C2369 H2377 0.960 . S
C2370 C2368 1.381 . S
C2370 C2371 1.394 . S
C2370 H2378 0.930 . S
C2371 C2370 1.394 . S
C2371 C2372 1.383 . S
C2371 H2379 0.929 . S
C2372 C2371 1.383 . S
C2372 C2373 1.377 . S
C2373 H2357 0.930 . S
C2373 C2372 1.377 . S
C2373 C2374 1.379 . S
C2374 H2358 0.931 . S
C2374 C2368 1.383 . S
C2374 C2373 1.379 . S
H2375 C2369 0.959 . S
H2376 C2369 0.961 . S
H2377 C2369 0.960 . S
H2378 C2370 0.930 . S
H2379 C2371 0.929 . S
H2380 C2388 0.929 . S
H2381 C2390 0.930 . S
H2382 C2392 0.930 . S
H2383 C2395 0.929 . S
H2384 C2398 0.930 . S
H2385 C2400 0.960 . S
H2386 C2400 0.960 . S
H2387 C2400 0.960 . S
C2388 H2380 0.929 . S
C2388 C2389 1.377 . S
C2388 C2390 1.384 . S
C2389 C2388 1.377 . S
C2389 C2395 1.390 . S
C2390 H2381 0.930 . S
C2390 C2388 1.384 . S
C2390 C2391 1.372 . S
C2391 C2390 1.372 . S
C2391 C2392 1.400 . S
C2391 C2396 1.490 . S
C2392 H2382 0.930 . S
C2392 C2391 1.400 . S
C2392 C2395 1.386 . S
H2393 C2409 0.930 . S
H2394 C2410 0.931 . S
C2395 H2383 0.929 . S
C2395 C2389 1.390 . S
C2395 C2392 1.386 . S
C2396 C2391 1.490 . S
C2396 C2398 1.395 . S
C2396 C2399 1.403 1_565 S
H2397 C2403 0.930 . S
C2398 H2384 0.930 . S
C2398 C2396 1.395 . S
C2398 C2401 1.403 . S
C2399 C2396 1.403 1_545 S
C2399 C2400 1.524 . S
C2399 C2403 1.400 . S
C2400 H2385 0.960 . S
C2400 H2386 0.960 . S
C2400 H2387 0.960 . S
C2400 C2399 1.524 . S
C2401 C2398 1.403 . S
C2401 C2402 1.392 1_565 S
C2401 C2405 1.495 . S
C2402 C2401 1.392 1_545 S
C2402 C2403 1.385 . S
C2402 C2404 1.478 . S
C2403 H2397 0.930 . S
C2403 C2399 1.400 . S
C2403 C2402 1.385 . S
C2404 C2402 1.478 . S
C2404 C2406 1.381 . S
C2404 C2410 1.383 . S
C2405 C2401 1.495 . S
C2405 H2411 0.959 . S
C2405 H2412 0.961 . S
C2405 H2413 0.960 . S
C2406 C2404 1.381 . S
C2406 C2407 1.394 . S
C2406 H2414 0.930 . S
C2407 C2406 1.394 . S
C2407 C2408 1.383 . S
C2407 H2415 0.929 . S
C2408 C2407 1.383 . S
C2408 C2409 1.377 . S
C2409 H2393 0.930 . S
C2409 C2408 1.377 . S
C2409 C2410 1.379 . S
C2410 H2394 0.931 . S
C2410 C2404 1.383 . S
C2410 C2409 1.379 . S
H2411 C2405 0.959 . S
H2412 C2405 0.961 . S
H2413 C2405 0.960 . S
H2414 C2406 0.930 . S
H2415 C2407 0.929 . S
H2416 C2424 0.929 . S
H2417 C2426 0.930 . S
H2418 C2428 0.930 . S
H2419 C2431 0.929 . S
H2420 C2434 0.931 . S
H2421 C2436 0.960 . S
H2422 C2436 0.960 . S
H2423 C2436 0.960 . S
C2424 H2416 0.929 . S
C2424 C2425 1.377 . S
C2424 C2426 1.384 . S
C2425 C2424 1.377 . S
C2425 C2431 1.390 . S
C2426 H2417 0.930 . S
C2426 C2424 1.384 . S
C2426 C2427 1.372 . S
C2427 C2426 1.372 . S
C2427 C2428 1.400 . S
C2427 C2432 1.490 . S
C2428 H2418 0.930 . S
C2428 C2427 1.400 . S
C2428 C2431 1.386 . S
H2429 C2445 0.930 . S
H2430 C2446 0.931 . S
C2431 H2419 0.929 . S
C2431 C2425 1.390 . S
C2431 C2428 1.386 . S
C2432 C2427 1.490 . S
C2432 C2434 1.401 . S
C2432 C2435 1.403 . S
H2433 C2439 0.930 . S
C2434 H2420 0.931 . S
C2434 C2432 1.401 . S
C2434 C2437 1.397 1_455 S
C2435 C2432 1.403 . S
C2435 C2436 1.524 . S
C2435 C2439 1.400 1_455 S
C2436 H2421 0.960 . S
C2436 H2422 0.960 . S
C2436 H2423 0.960 . S
C2436 C2435 1.524 . S
C2437 C2434 1.397 1_655 S
C2437 C2438 1.392 . S
C2437 C2441 1.495 . S
C2438 C2437 1.392 . S
C2438 C2439 1.385 . S
C2438 C2440 1.478 . S
C2439 H2433 0.930 . S
C2439 C2435 1.400 1_655 S
C2439 C2438 1.385 . S
C2440 C2438 1.478 . S
C2440 C2442 1.381 . S
C2440 C2446 1.383 . S
C2441 C2437 1.495 . S
C2441 H2447 0.959 . S
C2441 H2448 0.961 . S
C2441 H2449 0.960 . S
C2442 C2440 1.381 . S
C2442 C2443 1.394 . S
C2442 H2450 0.930 . S
C2443 C2442 1.394 . S
C2443 C2444 1.383 . S
C2443 H2451 0.929 . S
C2444 C2443 1.383 . S
C2444 C2445 1.377 . S
C2445 H2429 0.930 . S
C2445 C2444 1.377 . S
C2445 C2446 1.379 . S
C2446 H2430 0.931 . S
C2446 C2440 1.383 . S
C2446 C2445 1.379 . S
H2447 C2441 0.959 . S
H2448 C2441 0.961 . S
H2449 C2441 0.960 . S
H2450 C2442 0.930 . S
H2451 C2443 0.929 . S
H2452 C2460 0.929 . S
H2453 C2462 0.930 . S
H2454 C2464 0.930 . S
H2455 C2467 0.929 . S
H2456 C2470 0.930 . S
H2457 C2472 0.960 1_565 S
H2458 C2472 0.960 . S
H2459 C2472 0.960 . S
C2460 H2452 0.929 . S
C2460 C2461 1.377 . S
C2460 C2462 1.384 . S
C2461 C2460 1.377 . S
C2461 C2467 1.390 . S
C2462 H2453 0.930 . S
C2462 C2460 1.384 . S
C2462 C2463 1.372 . S
C2463 C2462 1.372 . S
C2463 C2464 1.400 . S
C2463 C2468 1.490 . S
C2464 H2454 0.930 . S
C2464 C2463 1.400 . S
C2464 C2467 1.386 . S
H2465 C2481 0.930 . S
H2466 C2482 0.931 . S
C2467 H2455 0.929 . S
C2467 C2461 1.390 . S
C2467 C2464 1.386 . S
C2468 C2463 1.490 . S
C2468 C2470 1.395 . S
C2468 C2471 1.403 . S
H2469 C2475 0.930 . S
C2470 H2456 0.930 . S
C2470 C2468 1.395 . S
C2470 C2473 1.428 . S
C2471 C2468 1.403 . S
C2471 C2472 1.524 . S
C2471 C2475 1.400 1_545 S
C2472 H2457 0.960 1_545 S
C2472 H2458 0.960 . S
C2472 H2459 0.960 . S
C2472 C2471 1.524 . S
C2473 C2470 1.428 . S
C2473 C2474 1.369 1_545 S
C2473 C2477 1.495 . S
C2474 C2473 1.369 1_565 S
C2474 C2475 1.385 . S
C2474 C2476 1.478 . S
C2475 H2469 0.930 . S
C2475 C2471 1.400 1_565 S
C2475 C2474 1.385 . S
C2476 C2474 1.478 . S
C2476 C2478 1.381 . S
C2476 C2482 1.383 . S
C2477 C2473 1.495 . S
C2477 H2483 0.987 . S
C2477 H2484 0.939 1_545 S
C2477 H2485 0.955 1_545 S
C2478 C2476 1.381 . S
C2478 C2479 1.394 . S
C2478 H2486 0.930 . S
C2479 C2478 1.394 . S
C2479 C2480 1.383 . S
C2479 H2487 0.929 . S
C2480 C2479 1.383 . S
C2480 C2481 1.377 . S
C2481 H2465 0.930 . S
C2481 C2480 1.377 . S
C2481 C2482 1.379 . S
C2482 H2466 0.931 . S
C2482 C2476 1.383 . S
C2482 C2481 1.379 . S
H2483 C2477 0.987 . S
H2484 C2477 0.939 1_565 S
H2485 C2477 0.955 1_565 S
H2486 C2478 0.930 . S
H2487 C2479 0.929 . S
H2488 C2496 0.929 . S
H2489 C2498 0.930 . S
H2490 C2500 0.930 . S
H2491 C2503 0.929 . S
H2492 C2506 0.930 . S
H2493 C2508 0.960 . S
H2494 C2508 0.960 1_455 S
H2495 C2508 0.960 1_455 S
C2496 H2488 0.929 . S
C2496 C2497 1.377 . S
C2496 C2498 1.384 . S
C2497 C2496 1.377 . S
C2497 C2503 1.390 . S
C2498 H2489 0.930 . S
C2498 C2496 1.384 . S
C2498 C2499 1.372 . S
C2499 C2498 1.372 . S
C2499 C2500 1.400 . S
C2499 C2504 1.490 . S
C2500 H2490 0.930 . S
C2500 C2499 1.400 . S
C2500 C2503 1.386 . S
H2501 C2517 0.930 . S
H2502 C2518 0.931 . S
C2503 H2491 0.929 . S
C2503 C2497 1.390 . S
C2503 C2500 1.386 . S
C2504 C2499 1.490 . S
C2504 C2506 1.395 . S
C2504 C2507 1.403 1_455 S
H2505 C2511 0.930 . S
C2506 H2492 0.930 . S
C2506 C2504 1.395 . S
C2506 C2509 1.403 . S
C2507 C2504 1.403 1_655 S
C2507 C2508 1.524 . S
C2507 C2511 1.400 . S
C2508 H2493 0.960 . S
C2508 H2494 0.960 1_655 S
C2508 H2495 0.960 1_655 S
C2508 C2507 1.524 . S
C2509 C2506 1.403 . S
C2509 C2510 1.392 1_455 S
C2509 C2513 1.495 . S
C2510 C2509 1.392 1_655 S
C2510 C2511 1.385 . S
C2510 C2512 1.478 . S
C2511 H2505 0.930 . S
C2511 C2507 1.400 . S
C2511 C2510 1.385 . S
C2512 C2510 1.478 . S
C2512 C2514 1.381 . S
C2512 C2518 1.383 . S
C2513 C2509 1.495 . S
C2513 H2519 0.959 . S
C2513 H2520 0.967 . S
C2513 H2521 0.960 . S
C2514 C2512 1.381 . S
C2514 C2515 1.394 . S
C2514 H2522 0.930 . S
C2515 C2514 1.394 . S
C2515 C2516 1.383 . S
C2515 H2523 0.929 . S
C2516 C2515 1.383 . S
C2516 C2517 1.377 . S
C2517 H2501 0.930 . S
C2517 C2516 1.377 . S
C2517 C2518 1.379 . S
C2518 H2502 0.931 . S
C2518 C2512 1.383 . S
C2518 C2517 1.379 . S
H2519 C2513 0.959 . S
H2520 C2513 0.967 . S
H2521 C2513 0.960 . S
H2522 C2514 0.930 . S
H2523 C2515 0.929 . S
H2524 C2532 0.929 . S
H2525 C2534 0.930 . S
H2526 C2536 0.930 . S
H2527 C2539 0.929 . S
H2528 C2542 0.930 . S
H2529 C2544 0.960 . S
H2530 C2544 0.960 . S
H2531 C2544 0.960 . S
C2532 H2524 0.929 . S
C2532 C2533 1.377 . S
C2532 C2534 1.384 . S
C2533 C2532 1.377 . S
C2533 C2539 1.390 . S
C2534 H2525 0.930 . S
C2534 C2532 1.384 . S
C2534 C2535 1.372 . S
C2535 C2534 1.372 . S
C2535 C2536 1.400 . S
C2535 C2540 1.490 . S
C2536 H2526 0.930 . S
C2536 C2535 1.400 . S
C2536 C2539 1.386 . S
H2537 C2553 0.930 . S
H2538 C2554 0.931 . S
C2539 H2527 0.929 . S
C2539 C2533 1.390 . S
C2539 C2536 1.386 . S
C2540 C2535 1.490 . S
C2540 C2542 1.395 1_565 S
C2540 C2543 1.403 . S
H2541 C2547 0.930 . S
C2542 H2528 0.930 . S
C2542 C2540 1.395 1_545 S
C2542 C2545 1.403 . S
C2543 C2540 1.403 . S
C2543 C2544 1.524 . S
C2543 C2547 1.400 1_565 S
C2544 H2529 0.960 . S
C2544 H2530 0.960 . S
C2544 H2531 0.960 . S
C2544 C2543 1.524 . S
C2545 C2542 1.403 . S
C2545 C2546 1.392 . S
C2545 C2549 1.495 . S
C2546 C2545 1.392 . S
C2546 C2547 1.385 . S
C2546 C2548 1.478 . S
C2547 H2541 0.930 . S
C2547 C2543 1.400 1_545 S
C2547 C2546 1.385 . S
C2548 C2546 1.478 . S
C2548 C2550 1.381 . S
C2548 C2554 1.383 . S
C2549 C2545 1.495 . S
C2549 H2555 0.959 . S
C2549 H2556 0.961 . S
C2549 H2557 0.960 . S
C2550 C2548 1.381 . S
C2550 C2551 1.394 . S
C2550 H2558 0.930 . S
C2551 C2550 1.394 . S
C2551 C2552 1.383 . S
C2551 H2559 0.929 . S
C2552 C2551 1.383 . S
C2552 C2553 1.377 . S
C2553 H2537 0.930 . S
C2553 C2552 1.377 . S
C2553 C2554 1.379 . S
C2554 H2538 0.931 . S
C2554 C2548 1.383 . S
C2554 C2553 1.379 . S
H2555 C2549 0.959 . S
H2556 C2549 0.961 . S
H2557 C2549 0.960 . S
H2558 C2550 0.930 . S
H2559 C2551 0.929 . S
C553 C22 1.759 . S
C572 C362 1.750 . S
C589 C56 1.769 . S
C608 C396 1.754 . S
C625 C287 1.769 . S
C644 C83 1.749 . S
C661 C328 1.766 . S
C680 C117 1.774 . S
C697 C158 1.757 . S
C716 C498 1.789 . S
C733 C525 1.756 . S
C752 C185 1.784 . S
C769 C423 1.757 . S
C788 C226 1.790 . S
C805 C260 1.756 . S
C824 C464 1.784 . S
C841 C103 0.735 . S
C860 C28 0.663 . S
C877 C3 0.705 . S
C896 C62 0.757 . S
C913 C74 0.713 . S
C932 C37 0.685 . S
C949 C108 0.712 . S
C968 C69 0.694 . S
C985 C171 0.730 . S
C1004 C164 0.675 . S
C1021 C176 0.702 . S
C1040 C207 0.793 . S
C1057 C241 0.714 . S
C1076 C232 0.722 . S
C1093 C139 0.711 . S
C1112 C266 0.748 . S
C1129 C289 1.895 . S
C1148 C380 1.892 . S
C1165 C300 1.897 . S
C1184 C323 1.892 . S
C1201 C357 1.895 . S
C1220 C312 1.892 . S
C1237 C346 1.897 . S
C1256 C391 1.890 . S
C1273 C425 1.894 . S
C1292 C448 1.894 . S
C1309 C482 1.897 . S
C1328 C459 1.885 . S
C1345 C538 1.897 . S
C1364 C493 1.885 . S
C1381 C436 1.897 . S
C1400 C527 1.886 . S
C1417 C470 0.704 . S
C1436 C409 0.786 . S
C1453 C504 0.717 . S
C1472 C445 0.661 . S
C1489 C479 0.712 . S
C1508 C516 0.728 . S
C1525 C511 0.733 . S
C1544 C414 0.668 . S
C1561 C402 0.703 . S
C1580 C273 0.787 . S
C1597 C309 0.705 . S
C1616 C278 0.759 . S
C1633 C343 0.714 . S
C1652 C334 0.741 . S
C1669 C377 0.705 . S
C1688 C368 0.756 . S
C1705 C187 1.894 . S
C1724 C142 1.892 . S
C1741 C198 1.897 . S
C1760 C221 1.895 . S
C1777 C255 1.894 . S
C1796 C210 1.892 . S
C1813 C244 1.897 . S
C1832 C153 1.895 . S
C1849 C119 1.893 . S
C1868 C6 1.893 . S
C1885 C40 1.897 . S
C1904 C17 1.895 . S
C1921 C96 1.897 . S
C1940 C51 1.891 . S
C1957 C130 1.897 . S
C1976 C85 1.886 . S
C1993 C192 1.571 . S
C2012 C15 1.569 . S
C2029 C219 1.578 . S
C2048 C49 1.542 . S
C2065 C253 1.569 . S
C2084 C90 1.588 . S
C2101 C151 1.568 . S
C2120 C124 1.583 . S
C2137 C457 1.577 . S
C2156 C294 1.544 . S
C2173 C321 1.578 . S
C2192 C491 1.544 . S
C2209 C355 1.568 . S
C2228 C532 1.594 . S
C2245 C389 1.575 . S
C2264 C430 1.564 . S
C2281 C1 1.869 . S
C2300 C71 1.857 . S
C2317 C105 1.871 . S
C2336 C35 1.869 . S
C2353 C137 1.870 . S
C2372 C205 1.866 . S
C2389 C239 1.862 . S
C2408 C173 1.841 . S
C2425 C341 1.864 . S
C2444 C275 1.864 . S
C2461 C375 1.869 . S
C2480 C307 1.858 . S
C2497 C477 1.871 . S
C2516 C411 1.873 . S
C2533 C443 1.863 . S
C2552 C513 1.856 . S
