# Generated by pormake.
# Topology vby, (6)-cn, num edge types: 1
# Building blocks:
#     Node 0, Type 0, BuildingBlock: JUFBIX_clean_sbu_0, # of connection points: 6
#     Node 1, Type 0, BuildingBlock: JUFBIX_clean_sbu_0, # of connection points: 6
#     Node 2, Type 0, BuildingBlock: JUFBIX_clean_sbu_0, # of connection points: 6
#     Node 3, Type 0, BuildingBlock: JUFBIX_clean_sbu_0, # of connection points: 6
#     Node 4, Type 0, BuildingBlock: JUFBIX_clean_sbu_0, # of connection points: 6
#     Node 5, Type 0, BuildingBlock: JUFBIX_clean_sbu_0, # of connection points: 6
#     Node 6, Type 0, BuildingBlock: JUFBIX_clean_sbu_0, # of connection points: 6
#     Node 7, Type 0, BuildingBlock: JUFBIX_clean_sbu_0, # of connection points: 6
#     Edge 8, Type (0, 0), BuildingBlock: AJUNOK_clean_linker_0, # of connection points: 2
#     Edge 9, Type (0, 0), BuildingBlock: AJUNOK_clean_linker_0, # of connection points: 2
#     Edge 10, Type (0, 0), BuildingBlock: AJUNOK_clean_linker_0, # of connection points: 2
#     Edge 11, Type (0, 0), BuildingBlock: AJUNOK_clean_linker_0, # of connection points: 2
#     Edge 12, Type (0, 0), BuildingBlock: AJUNOK_clean_linker_0, # of connection points: 2
#     Edge 13, Type (0, 0), BuildingBlock: AJUNOK_clean_linker_0, # of connection points: 2
#     Edge 14, Type (0, 0), BuildingBlock: AJUNOK_clean_linker_0, # of connection points: 2
#     Edge 15, Type (0, 0), BuildingBlock: AJUNOK_clean_linker_0, # of connection points: 2
#     Edge 16, Type (0, 0), BuildingBlock: AJUNOK_clean_linker_0, # of connection points: 2
#     Edge 17, Type (0, 0), BuildingBlock: AJUNOK_clean_linker_0, # of connection points: 2
#     Edge 18, Type (0, 0), BuildingBlock: AJUNOK_clean_linker_0, # of connection points: 2
#     Edge 19, Type (0, 0), BuildingBlock: AJUNOK_clean_linker_0, # of connection points: 2
#     Edge 20, Type (0, 0), BuildingBlock: AJUNOK_clean_linker_0, # of connection points: 2
#     Edge 21, Type (0, 0), BuildingBlock: AJUNOK_clean_linker_0, # of connection points: 2
#     Edge 22, Type (0, 0), BuildingBlock: AJUNOK_clean_linker_0, # of connection points: 2
#     Edge 23, Type (0, 0), BuildingBlock: AJUNOK_clean_linker_0, # of connection points: 2
#     Edge 24, Type (0, 0), BuildingBlock: AJUNOK_clean_linker_0, # of connection points: 2
#     Edge 25, Type (0, 0), BuildingBlock: AJUNOK_clean_linker_0, # of connection points: 2
#     Edge 26, Type (0, 0), BuildingBlock: AJUNOK_clean_linker_0, # of connection points: 2
#     Edge 27, Type (0, 0), BuildingBlock: AJUNOK_clean_linker_0, # of connection points: 2
#     Edge 28, Type (0, 0), BuildingBlock: AJUNOK_clean_linker_0, # of connection points: 2
#     Edge 29, Type (0, 0), BuildingBlock: AJUNOK_clean_linker_0, # of connection points: 2
#     Edge 30, Type (0, 0), BuildingBlock: AJUNOK_clean_linker_0, # of connection points: 2
#     Edge 31, Type (0, 0), BuildingBlock: AJUNOK_clean_linker_0, # of connection points: 2
# Relax obj value: 0.193
# Max RMSD: 0.177
# Mean RMSD: 0.177
data_MOF--net-vby--node1-JUFBIX_clean_sbu_0--edge1-AJUNOK_clean_linker_0
_symmetry_space_group_name_H-M    P1
_symmetry_Int_Tables_number       1
_symmetry_cell_setting            triclinic
loop_
_symmetry_equiv_pos_as_xyz
'x, y, z'
_cell_length_a     15.287136
_cell_length_b     39.777805
_cell_length_c     21.154101
_cell_angle_alpha  89.43683
_cell_angle_beta   93.837271
_cell_angle_gamma 89.92895
loop_
_atom_site_label
_atom_site_type_symbol
_atom_site_fract_x
_atom_site_fract_y
_atom_site_fract_z
_atom_type_partial_charge
Co0 Co 0.04026 0.37514 0.02861 0.0
C1 C 0.1099 0.38977 0.9174 0.0
Co2 Co 0.17294 0.39531 0.04607 0.0
C3 C 0.85567 0.3766 0.03722 0.0
C4 C 0.8922 0.33654 0.9775 0.0
N5 N 0.92578 0.36099 1.01556 0.0
N6 N 0.77945 0.36362 1.01299 0.0
C7 C 0.80193 0.33802 0.97604 0.0
H8 H 0.86066 0.39751 0.06958 0.0
H9 H 0.9307 0.31975 0.95051 0.0
C10 C 0.08464 0.3822 0.15629 0.0
N11 N 0.2877 0.40937 0.05915 0.0
C12 C 0.35748 0.39621 0.0324 0.0
C13 C 0.32144 0.43246 0.10016 0.0
N14 N 0.43352 0.4099 0.05527 0.0
C15 C 0.41134 0.43283 0.09788 0.0
C16 C 0.05936 0.44625 0.03763 0.0
O17 O 1.02911 0.37158 0.11456 0.0
O18 O 0.15788 0.39347 0.13862 0.0
O19 O 0.13879 0.43842 0.04511 0.0
O20 O 1.00176 0.42301 0.02952 0.0
O21 O 0.17931 0.39759 0.95172 0.0
H22 H 0.28344 0.44718 0.13123 0.0
H23 H 0.35281 0.37623 0.99796 0.0
O24 O 0.04463 0.37857 0.94355 0.0
O25 O 0.08683 0.3282 0.02659 0.0
O26 O 0.21356 0.35204 0.04814 0.0
C27 C 0.17017 0.32567 0.03789 0.0
H28 H 0.75647 0.32248 0.94794 0.0
H29 H 0.45695 0.44757 0.12747 0.0
Co30 Co 0.90304 0.63903 1.01967 0.0
C31 C 0.97944 0.65575 0.90497 0.0
Co32 Co 0.03456 0.66109 0.02899 0.0
C33 C 0.71846 0.63684 0.03801 0.0
C34 C 0.75388 0.60125 0.96895 0.0
N35 N 0.78817 0.62395 1.01058 0.0
N36 N 0.64221 0.62347 1.01467 0.0
C37 C 0.6641 0.60086 0.97143 0.0
H38 H 0.723 0.65682 0.07244 0.0
H39 H 0.79114 0.58731 0.93629 0.0
C40 C 0.98019 0.64178 0.14398 0.0
N41 N 0.14899 0.67615 0.03895 0.0
C42 C 0.2196 0.66017 1.01878 0.0
C43 C 0.18209 0.70119 0.07579 0.0
N44 N 0.29554 0.67339 0.04313 0.0
C45 C 0.27239 0.69963 0.07825 0.0
C46 C 0.90242 0.70878 0.03221 0.0
O47 O 0.90929 0.63186 0.11371 0.0
O48 O 0.03558 0.65752 0.11409 0.0
O49 O 0.98621 0.70746 0.03179 0.0
O50 O 0.85972 0.68186 0.0281 0.0
O51 O 0.04003 0.66485 0.94411 0.0
H52 H 0.14325 0.7182 0.10208 0.0
H53 H 0.21525 0.63857 0.98807 0.0
O54 O 0.90738 0.64513 0.92607 0.0
O55 O 0.93967 0.59676 1.01105 0.0
O56 O 0.07566 0.61338 0.02596 0.0
C57 C 1.01969 0.58976 1.01551 0.0
H58 H 0.61823 0.58679 0.94081 0.0
H59 H 0.31734 0.71534 0.10642 0.0
Co60 Co 0.1707 0.63289 0.53472 0.0
C61 C 0.09067 0.64807 0.64726 0.0
Co62 Co 0.03766 0.65353 0.52252 0.0
C63 C 0.35512 0.63006 0.51712 0.0
C64 C 0.31945 0.59533 0.58873 0.0
N65 N 0.28545 0.61786 0.54567 0.0
N66 N 0.43115 0.61658 0.54118 0.0
C67 C 0.40923 0.59449 0.58606 0.0
H68 H 0.35073 0.64945 0.48093 0.0
H69 H 0.28186 0.58164 0.62203 0.0
C70 C 0.09634 0.63526 0.40953 0.0
N71 N 0.92311 0.66812 0.51069 0.0
C72 C 0.85269 0.65189 0.53079 0.0
C73 C 0.88988 0.69328 0.47317 0.0
N74 N 0.77676 0.66518 0.50601 0.0
C75 C 0.79962 0.69162 0.47042 0.0
C76 C 0.16803 0.7024 0.51872 0.0
O77 O 0.16674 0.62555 0.44113 0.0
O78 O 0.03922 0.65077 0.43763 0.0
O79 O 0.08435 0.70026 0.51971 0.0
O80 O 0.21282 0.67589 0.52432 0.0
O81 O 1.0292 0.65618 0.60762 0.0
H82 H 0.92866 0.71058 0.44695 0.0
H83 H 0.85717 0.63018 0.56201 0.0
O84 O 0.16501 0.63943 0.62752 0.0
O85 O 0.13489 0.59036 0.54525 0.0
O86 O 0.99855 0.60578 0.52505 0.0
C87 C 0.05553 0.58264 0.53789 0.0
H88 H 0.45508 0.5804 0.6173 0.0
H89 H 0.75449 0.70754 0.44211 0.0
Co90 Co 1.03234 0.36763 0.5345 0.0
C91 C 0.98226 0.37972 0.65504 0.0
Co92 Co 0.90068 0.39004 0.53346 0.0
C93 C 0.21713 0.36863 0.52246 0.0
C94 C 0.17901 0.32434 0.57168 0.0
N95 N 0.14627 0.35158 0.53974 0.0
N96 N 0.29287 0.354 0.54447 0.0
C97 C 0.26931 0.32574 0.57453 0.0
H98 H 0.21314 0.39202 0.49598 0.0
H99 H 0.14 0.30588 0.59492 0.0
C100 C 0.97074 0.37976 0.41372 0.0
N101 N 0.78628 0.40618 0.52881 0.0
C102 C 0.71595 0.39182 0.55331 0.0
C103 C 0.75279 0.43145 0.49156 0.0
N104 N 0.64014 0.4066 0.53199 0.0
C105 C 0.66298 0.43177 0.49345 0.0
C106 C 1.01881 0.43909 0.53113 0.0
O107 O 0.03363 0.36814 0.44864 0.0
O108 O 0.90039 0.38894 0.43887 0.0
O109 O 0.93874 0.43248 0.53049 0.0
O110 O 0.07487 0.41508 0.53582 0.0
O111 O 0.91104 0.39197 0.62829 0.0
H112 H 0.79052 0.4472 0.46165 0.0
H113 H 0.7196 0.36984 0.5837 0.0
O114 O 0.03735 0.36707 0.6207 0.0
O115 O 0.98241 0.32137 0.53269 0.0
O116 O 0.85639 0.347 0.53632 0.0
C117 C 0.89895 0.31998 0.53568 0.0
H118 H 0.31394 0.30845 0.60005 0.0
H119 H 0.61775 0.4476 0.46503 0.0
Co120 Co 0.53472 0.8725 0.02668 0.0
C121 C 0.59731 0.88754 0.91246 0.0
Co122 Co 0.66795 0.8929 0.03745 0.0
C123 C 0.3487 0.8734 0.0348 0.0
C124 C 0.38878 0.83209 0.97941 0.0
N125 N 0.42026 0.85786 1.01511 0.0
N126 N 0.27383 0.85885 1.01183 0.0
C127 C 0.29851 0.83266 0.97726 0.0
H128 H 0.35118 0.89592 0.06319 0.0
H129 H 0.42874 0.81482 0.95457 0.0
C130 C 0.5833 0.88001 0.15105 0.0
N131 N 0.78252 0.90767 0.04886 0.0
C132 C 0.85292 0.89484 1.02242 0.0
C133 C 0.8154 0.93073 0.09026 0.0
N134 N 0.92864 0.90853 0.04613 0.0
C135 C 0.90533 0.93122 0.08885 0.0
C136 C 0.55402 0.94383 0.03088 0.0
O137 O 0.52604 0.86919 0.11109 0.0
O138 O 0.65584 0.891 0.1313 0.0
O139 O 0.63325 0.93573 0.03656 0.0
O140 O 0.49564 0.92061 0.0278 0.0
O141 O 0.66965 0.89557 0.94306 0.0
H142 H 0.77679 0.94522 0.1213 0.0
H143 H 0.84901 0.87432 0.98934 0.0
O144 O 0.53638 0.8756 0.94238 0.0
O145 O 0.58156 0.82568 0.02489 0.0
O146 O 0.70999 0.84963 0.03777 0.0
C147 C 0.66545 0.82333 0.02987 0.0
H148 H 0.25455 0.81551 0.95156 0.0
H149 H 0.95023 0.94628 0.1184 0.0
Co150 Co 0.39462 0.1392 1.0095 0.0
C151 C 0.47901 0.14869 0.89598 0.0
Co152 Co 0.52688 0.16004 1.01985 0.0
C153 C 0.20997 0.13865 0.02419 0.0
C154 C 0.24737 0.09934 0.96306 0.0
N155 N 0.28027 0.12436 1.00008 0.0
N156 N 0.13449 0.12385 1.00327 0.0
C157 C 0.15752 0.09896 0.96495 0.0
H158 H 0.21372 0.1603 0.05489 0.0
H159 H 0.2859 0.08334 0.93453 0.0
C160 C 0.46598 0.1478 0.13458 0.0
N161 N 0.6411 0.17478 0.02955 0.0
C162 C 0.71152 0.15818 1.01084 0.0
C163 C 0.6741 0.20118 0.06277 0.0
N164 N 0.78736 0.17248 0.03247 0.0
C165 C 0.76433 0.19989 0.06443 0.0
C166 C 0.39659 0.20911 1.00959 0.0
O167 O 0.39401 0.13861 0.10468 0.0
O168 O 0.52533 0.15989 0.10349 0.0
O169 O 0.48032 0.20671 1.01701 0.0
O170 O 0.35234 0.1826 1.00435 0.0
O171 O 0.53567 0.16058 0.93519 0.0
H172 H 0.63526 0.21925 0.08663 0.0
H173 H 0.70709 0.13562 0.98267 0.0
O174 O 0.40597 0.13855 0.91609 0.0
O175 O 0.42908 0.09654 1.01418 0.0
O176 O 0.56633 0.1117 0.02452 0.0
C177 C 0.50798 0.08849 0.023 0.0
H178 H 0.11245 0.08292 0.9376 0.0
H179 H 0.80944 0.21684 0.08957 0.0
Co180 Co 0.6672 0.1343 0.52178 0.0
C181 C 0.59297 0.14291 0.64002 0.0
Co182 Co 0.53451 0.15547 0.51952 0.0
C183 C 0.85237 0.13476 0.50667 0.0
C184 C 0.81498 0.09247 0.56192 0.0
N185 N 0.78179 0.11885 0.52745 0.0
N186 N 0.92793 0.12001 0.52823 0.0
C187 C 0.90508 0.09304 0.56219 0.0
H188 H 0.84888 0.15771 0.47872 0.0
H189 H 0.77654 0.0751 0.58825 0.0
C190 C 0.58601 0.14328 0.40098 0.0
N191 N 0.42092 0.17112 0.51387 0.0
C192 C 0.34945 0.15431 0.53047 0.0
C193 C 0.38974 0.19987 0.48641 0.0
N194 N 0.27493 0.17119 0.51409 0.0
C195 C 0.2997 0.19997 0.48645 0.0
C196 C 0.66594 0.20415 0.52176 0.0
O197 O 0.65985 0.13362 0.42771 0.0
O198 O 0.53003 0.15602 0.43425 0.0
O199 O 0.58235 0.20204 0.52211 0.0
O200 O 0.71001 0.17752 0.52212 0.0
O201 O 0.53164 0.15489 0.60435 0.0
H202 H 0.42948 0.21879 0.46511 0.0
H203 H 0.35157 0.12971 0.55275 0.0
O204 O 0.66444 0.13396 0.61619 0.0
O205 O 0.63108 0.0917 0.52066 0.0
O206 O 0.494 0.10763 0.51729 0.0
C207 C 0.55156 0.08412 0.51761 0.0
H208 H 0.95033 0.07635 0.58862 0.0
H209 H 0.25584 0.21883 0.46489 0.0
Co210 Co 0.52728 0.86885 0.5279 0.0
C211 C 0.47769 0.88124 0.64667 0.0
Co212 Co 0.39504 0.89038 0.52559 0.0
C213 C 0.7135 0.87 0.5189 0.0
C214 C 0.67184 0.82429 0.56171 0.0
N215 N 0.64127 0.85297 0.53359 0.0
N216 N 0.78783 0.85355 0.538 0.0
C217 C 0.76213 0.82459 0.56451 0.0
H218 H 0.71201 0.89485 0.49757 0.0
H219 H 0.63135 0.80517 0.58164 0.0
C220 C 0.46815 0.88187 0.4073 0.0
N221 N 0.28034 0.90628 0.52096 0.0
C222 C 0.20952 0.89132 0.54366 0.0
C223 C 0.24768 0.93273 0.48653 0.0
N224 N 0.13402 0.90693 0.52396 0.0
C225 C 0.15788 0.93315 0.48821 0.0
C226 C 0.51116 0.94017 0.53076 0.0
O227 O 0.53102 0.87097 0.44294 0.0
O228 O 0.39573 0.8896 0.43119 0.0
O229 O 0.43178 0.93266 0.52404 0.0
O230 O 0.56877 0.91663 0.53336 0.0
O231 O 0.40525 0.89242 0.61996 0.0
H232 H 0.28618 0.94962 0.45923 0.0
H233 H 0.21272 0.86801 0.57039 0.0
O234 O 0.53051 0.86673 0.61319 0.0
O235 O 0.47811 0.82241 0.52244 0.0
O236 O 0.35162 0.84731 0.52772 0.0
C237 C 0.39469 0.82051 0.52533 0.0
H238 H 0.80535 0.80539 0.58559 0.0
H239 H 0.11335 0.95055 0.46291 0.0
C240 C 0.53801 0.36452 0.0357 0.0
C241 C 0.52027 0.39896 0.04266 0.0
C242 C 0.62268 0.35316 0.02567 0.0
C243 C 0.6925 0.37586 1.02181 0.0
H244 H 0.48636 0.34617 0.03925 0.0
H245 H 0.63398 0.32639 1.02206 0.0
S246 S 0.67736 0.46898 0.02772 0.0
N247 N 0.57729 0.45582 0.03955 0.0
N248 N 0.73624 0.43468 1.01922 0.0
C249 C 0.67488 0.4105 0.02634 0.0
C250 C 0.5888 0.42199 0.03713 0.0
C251 C 0.45394 0.68238 0.03436 0.0
C252 C 0.38264 0.6603 0.03781 0.0
C253 C 0.53894 0.67017 0.02803 0.0
C254 C 0.55553 0.63543 0.02481 0.0
H255 H 0.44356 0.7093 0.03529 0.0
H256 H 0.59169 0.68804 0.02397 0.0
S257 S 0.39406 0.56699 0.03988 0.0
N258 N 0.33608 0.60187 0.04374 0.0
N259 N 0.49567 0.57914 0.03045 0.0
C260 C 0.48549 0.61308 0.02996 0.0
C261 C 0.39907 0.62544 0.03684 0.0
C262 C 0.61921 0.67473 0.51678 0.0
C263 C 0.68982 0.65239 0.51268 0.0
C264 C 0.53457 0.66281 0.52519 0.0
C265 C 0.51768 0.62815 0.52976 0.0
H266 H 0.62991 0.70162 0.51488 0.0
H267 H 0.48232 0.68085 0.5298 0.0
S268 S 0.67729 0.55913 0.5142 0.0
N269 N 0.73547 0.59382 0.50795 0.0
N270 N 0.57636 0.57162 0.52511 0.0
C271 C 0.587 0.60552 0.52414 0.0
C272 C 0.6731 0.61759 0.51518 0.0
C273 C 0.53716 0.35898 0.53509 0.0
C274 C 0.55319 0.39379 0.53827 0.0
C275 C 0.45204 0.34617 0.53737 0.0
C276 C 0.37998 0.36768 0.54293 0.0
H277 H 0.59049 0.3416 0.52913 0.0
H278 H 0.44225 0.31929 0.53353 0.0
S279 S 0.38935 0.46049 0.56089 0.0
N280 N 0.49177 0.44927 0.55188 0.0
N281 N 0.3319 0.42535 0.5576 0.0
C282 C 0.39575 0.40249 0.54823 0.0
C283 C 0.48233 0.41549 0.5455 0.0
C284 C 0.0801 0.8955 0.08663 0.0
C285 C 1.0159 0.89707 0.03582 0.0
C286 C 0.16398 0.88276 0.07845 0.0
C287 C 0.1865 0.8709 1.01934 0.0
H288 H 0.0649 0.90353 0.1334 0.0
H289 H 0.21138 0.88174 0.11883 0.0
S290 S 0.0456 0.87278 0.86973 0.0
N291 N 0.98284 0.88803 0.92325 0.0
N292 N 0.14037 0.86365 0.90818 0.0
C293 C 0.12362 0.87283 0.96787 0.0
C294 C 0.03836 0.88603 0.97605 0.0
C295 C 1.029 0.17022 1.01128 0.0
C296 C 0.04741 0.13555 1.0125 0.0
C297 C 0.94396 0.18213 1.01818 0.0
C298 C 0.87452 0.15977 0.02657 0.0
H299 H 0.08038 0.18823 1.00356 0.0
H300 H 0.93204 0.20896 1.01577 0.0
S301 S 0.89105 0.0668 0.04044 0.0
N302 N 0.99128 0.07918 0.02706 0.0
N303 N 0.83145 0.10143 0.0411 0.0
C304 C 0.89268 0.12505 0.02962 0.0
C305 C 0.97917 0.11297 1.02227 0.0
C306 C 0.16863 0.12469 0.50662 0.0
C307 C 0.18736 0.15881 0.51827 0.0
C308 C 0.08356 0.11214 0.50998 0.0
C309 C 1.01454 0.13334 0.5246 0.0
H310 H 0.21989 0.10771 0.49397 0.0
H311 H 0.07121 0.08582 0.50035 0.0
S312 S 1.03154 0.22351 0.56661 0.0
N313 N 0.13176 0.21284 0.54991 0.0
N314 N 0.97137 0.18931 0.55593 0.0
C315 C 1.03265 0.16732 0.53761 0.0
C316 C 0.11927 0.18005 0.53442 0.0
C317 C 0.8992 0.88399 0.48135 0.0
C318 C 0.87546 0.86634 0.53542 0.0
C319 C 0.98323 0.89762 0.47834 0.0
C320 C 0.04648 0.89434 0.52954 0.0
H321 H 0.85263 0.88688 0.44078 0.0
H322 H 0.99928 0.9102 0.43503 0.0
S323 S 1.01366 0.85347 0.68455 0.0
N324 N 0.91959 0.84812 0.64283 0.0
N325 N 0.07737 0.87415 0.6376 0.0
C326 C 1.02283 0.87739 0.58449 0.0
C327 C 0.93738 0.86328 0.58734 0.0
C328 C 0.09458 0.53908 0.06313 0.0
C329 C 0.04038 0.55363 1.01443 0.0
C330 C 0.09515 0.50415 0.0727 0.0
C331 C 0.04108 0.48258 0.03434 0.0
H332 H 0.13383 0.55478 0.09554 0.0
H333 H 0.13905 0.4938 0.11033 0.0
S334 S 0.89162 0.50835 0.89788 0.0
N335 N 0.93434 0.54389 0.92528 0.0
N336 N 0.93541 0.47828 0.94424 0.0
C337 C 0.98749 0.49679 0.98513 0.0
C338 C 0.98763 0.53227 0.97476 0.0
C339 C 0.09005 0.49059 0.5757 0.0
C340 C 0.03985 0.47501 0.5267 0.0
C341 C 0.08911 0.5257 0.5814 0.0
C342 C 0.03715 0.54635 0.53887 0.0
H343 H 0.1273 0.4756 0.61111 0.0
H344 H 0.13032 0.53692 0.61917 0.0
S345 S 0.8974 0.51747 0.40073 0.0
N346 N 0.93943 0.48263 0.43335 0.0
N347 N 0.93726 0.54854 0.44509 0.0
C348 C 0.9872 0.53102 0.4896 0.0
C349 C 0.98913 0.4954 0.48312 0.0
C350 C 0.60172 1.00155 1.00288 0.0
C351 C 0.53679 0.98038 0.02699 0.0
C352 C 0.59592 0.0367 1.00494 0.0
C353 C 0.52479 0.05203 0.03117 0.0
H354 H 0.65808 0.99078 0.982 0.0
H355 H 0.6456 0.05181 0.98406 0.0
S356 S 0.34057 1.00834 0.10479 0.0
N357 N 0.40176 0.9775 0.08019 0.0
N358 N 0.38986 0.04348 0.08515 0.0
C359 C 0.46024 0.03115 0.05673 0.0
C360 C 0.46609 0.99539 0.05405 0.0
C361 C 0.59376 0.02623 0.48929 0.0
C362 C 0.53331 0.04774 0.51705 0.0
C363 C 0.59165 0.99124 0.49758 0.0
C364 C 0.52911 0.97651 0.53421 0.0
H365 H 0.64409 0.03667 0.4612 0.0
H366 H 0.63688 0.97569 0.47343 0.0
S367 S 0.35826 0.0213 0.61886 0.0
N368 N 0.41062 0.05158 0.5832 0.0
N369 N 0.40641 0.98591 0.60014 0.0
C370 C 0.46893 0.99775 0.56289 0.0
C371 C 0.47059 0.03329 0.55366 0.0
C372 C 0.20243 0.26942 0.98968 0.0
C373 C 0.22315 0.29418 0.03496 0.0
C374 C 0.26189 0.2432 0.97934 0.0
C375 C 0.34507 0.24081 1.01311 0.0
H376 H 0.14114 0.27076 0.96092 0.0
H377 H 0.24208 0.22429 0.94477 0.0
S378 S 0.42824 0.29778 0.14052 0.0
N379 N 0.3314 0.31346 0.11664 0.0
N380 N 0.4421 0.26458 0.096 0.0
C381 C 0.36618 0.26521 0.05873 0.0
C382 C 0.30547 0.29162 0.07001 0.0
C383 C 0.71157 0.76539 0.068 0.0
C384 C 0.71711 0.79189 0.02428 0.0
C385 C 0.77562 0.73976 0.07267 0.0
C386 C 0.84884 0.73993 0.03492 0.0
H387 H 0.65925 0.76499 0.1001 0.0
H388 H 0.76755 0.71936 0.10609 0.0
S389 S 0.88959 0.80245 0.90974 0.0
N390 N 0.79877 0.81567 0.93973 0.0
N391 N 0.91918 0.76798 0.94985 0.0
C392 C 0.85439 0.76607 0.99066 0.0
C393 C 0.78856 0.79181 0.98504 0.0
C394 C 0.20485 0.76135 0.55361 0.0
C395 C 0.2188 0.7342 0.5138 0.0
C396 C 0.26509 0.78812 0.559 0.0
C397 C 0.34221 0.78889 0.52524 0.0
H398 H 0.14896 0.76136 0.5825 0.0
H399 H 0.25112 0.80852 0.59034 0.0
S400 S 0.40553 0.72497 0.4109 0.0
N401 N 0.31312 0.7106 0.43708 0.0
N402 N 0.42595 0.76068 0.44826 0.0
C403 C 0.35629 0.76211 0.48477 0.0
C404 C 0.29461 0.73499 0.47871 0.0
C405 C 0.85239 0.26391 0.49052 0.0
C406 C 0.84581 0.28862 0.53677 0.0
C407 C 0.79007 0.23788 0.48376 0.0
C408 C 0.71741 0.23587 0.52184 0.0
H409 H 0.90472 0.26509 0.45848 0.0
H410 H 0.79924 0.21884 0.44851 0.0
S411 S 0.67238 0.29361 0.65173 0.0
N412 N 0.76259 0.30862 0.62317 0.0
N413 N 0.64499 0.26033 0.60875 0.0
C414 C 0.71001 0.26043 0.56801 0.0
C415 C 0.77425 0.28655 0.57584 0.0
C416 C 0.97613 0.36769 0.23671 0.0
C417 C 0.05637 0.38323 0.22272 0.0
C418 C 0.94359 0.36889 0.29735 0.0
C419 C 0.98958 0.38585 0.34667 0.0
H420 H 0.93816 0.35383 0.20063 0.0
H421 H 0.88453 0.35511 0.30635 0.0
S422 S 0.19857 0.43267 0.33583 0.0
N423 N 0.17779 0.41763 0.26388 0.0
N424 N 0.11719 0.41987 0.37761 0.0
C425 C 0.06816 0.4024 0.33318 0.0
C426 C 0.10147 0.40108 0.27151 0.0
C427 C 0.0989 0.6369 0.23121 0.0
C428 C 1.0084 0.63367 0.21141 0.0
C429 C 0.12995 0.63422 0.29506 0.0
C430 C 0.07189 0.62801 0.34191 0.0
H431 H 0.14666 0.64293 0.19725 0.0
H432 H 0.19838 0.63933 0.30801 0.0
S433 S 0.83211 0.6117 0.31574 0.0
N434 N 0.8639 0.61972 0.24401 0.0
N435 N 0.92126 0.61426 0.36403 0.0
C436 C 0.98261 0.62179 0.32245 0.0
C437 C 0.95106 0.62466 0.25732 0.0
C438 C 0.08385 0.6683 0.82134 0.0
C439 C 1.00277 0.65421 0.83759 0.0
C440 C 0.11583 0.66441 0.76112 0.0
C441 C 0.06781 0.64652 0.71419 0.0
H442 H 0.12392 0.68255 0.85566 0.0
H443 H 0.1767 0.67652 0.75064 0.0
S444 S 0.85396 0.60382 0.73084 0.0
N445 N 0.87718 0.62079 0.80092 0.0
N446 N 0.93593 0.61395 0.68732 0.0
C447 C 0.9871 0.63211 0.72943 0.0
C448 C 0.95479 0.63589 0.79098 0.0
C449 C 0.99517 0.41102 0.75923 0.0
C450 C 1.01176 0.3823 0.72368 0.0
C451 C 0.03688 0.41556 0.82027 0.0
C452 C 0.09837 0.39208 0.84756 0.0
H453 H 0.95045 0.43017 0.73971 0.0
H454 H 1.01787 0.43692 0.84767 0.0
S455 S 0.1625 0.31213 0.77562 0.0
N456 N 0.09267 0.32946 0.72192 0.0
N457 N 0.17078 0.33875 0.83508 0.0
C458 C 0.11602 0.36363 0.81225 0.0
C459 C 0.07283 0.35858 0.75099 0.0
C460 C 0.47439 0.86761 0.23178 0.0
C461 C 0.55601 0.88204 0.2175 0.0
C462 C 0.44111 0.87018 0.29182 0.0
C463 C 0.48793 0.88724 0.34043 0.0
H464 H 0.4355 0.85364 0.19636 0.0
H465 H 0.3809 0.85723 0.30106 0.0
S466 S 0.70128 0.93108 0.32901 0.0
N467 N 0.67993 0.9154 0.25761 0.0
N468 N 0.61832 0.91996 0.37078 0.0
C469 C 0.56818 0.90259 0.32681 0.0
C470 C 0.60209 0.90001 0.26552 0.0
C471 C 0.58362 0.1434 0.22215 0.0
C472 C 0.4925 0.14196 0.20294 0.0
C473 C 0.61501 0.14174 0.28582 0.0
C474 C 0.5568 0.13845 0.33334 0.0
H475 H 0.63225 0.14677 0.18766 0.0
H476 H 0.68456 0.1447 0.29786 0.0
S477 S 0.31434 0.12736 0.30954 0.0
N478 N 0.34642 0.13288 0.23714 0.0
N479 N 0.40425 0.12902 0.35726 0.0
C480 C 0.46613 0.1343 0.31496 0.0
C481 C 0.43425 0.13616 0.24979 0.0
C482 C 0.59252 0.1555 0.8164 0.0
C483 C 0.50704 0.1447 0.83018 0.0
C484 C 0.62444 0.15216 0.75608 0.0
C485 C 0.57231 0.13789 0.70681 0.0
H486 H 0.63553 0.16737 0.85232 0.0
H487 H 0.68805 0.1625 0.7472 0.0
S488 S 0.34765 0.10313 0.71729 0.0
N489 N 0.37399 0.11716 0.78927 0.0
N490 N 0.43313 0.111 0.67573 0.0
C491 C 0.48838 0.1257 0.72021 0.0
C492 C 0.45588 0.1291 0.78171 0.0
C493 C 0.45346 0.89551 0.76017 0.0
C494 C 0.51046 0.88755 0.71362 0.0
C495 C 0.48488 0.89811 0.82382 0.0
C496 C 0.57454 0.89284 0.84376 0.0
H497 H 0.38389 0.8984 0.74793 0.0
H498 H 0.43724 0.90288 0.85839 0.0
S499 S 0.75384 0.87749 0.7392 0.0
N500 N 0.6645 0.87943 0.69092 0.0
N501 N 0.72076 0.88332 0.81096 0.0
C502 C 0.63327 0.88753 0.79738 0.0
C503 C 0.60183 0.88502 0.73233 0.0
loop_
_geom_bond_atom_site_label_1
_geom_bond_atom_site_label_2
_geom_bond_distance
_geom_bond_site_symmetry_2
_ccdc_geom_bond_type
Co0 N5 2.057 1_554 S
Co0 O17 2.021 . S
Co0 O20 2.062 . S
Co0 O24 2.117 1_654 S
Co0 O25 2.020 1_655 S
C1 O21 1.259 . S
C1 O24 1.258 . S
Co2 N11 2.057 . S
Co2 O18 2.117 . S
Co2 O19 2.020 . S
Co2 O21 2.021 1_554 S
Co2 O26 2.062 1_554 S
C3 N5 1.316 1_554 S
C3 N6 1.347 1_554 S
C3 H8 0.931 . S
C4 N5 1.375 . S
C4 C7 1.350 . S
C4 H9 0.930 . S
N5 Co0 2.057 1_556 S
N5 C3 1.316 1_556 S
N5 C4 1.375 . S
N6 C3 1.347 1_556 S
N6 C7 1.373 . S
C7 C4 1.350 . S
C7 N6 1.373 . S
C7 H28 0.931 . S
H8 C3 0.931 . S
H9 C4 0.930 . S
C10 O17 1.259 1_455 S
C10 O18 1.258 . S
N11 Co2 2.057 . S
N11 C12 1.316 1_554 S
N11 C13 1.375 . S
C12 N11 1.316 1_556 S
C12 N14 1.347 1_556 S
C12 H23 0.931 . S
C13 N11 1.375 . S
C13 C15 1.350 . S
C13 H22 0.930 . S
N14 C12 1.347 1_554 S
N14 C15 1.373 . S
C15 C13 1.350 . S
C15 N14 1.373 . S
C15 H29 0.931 . S
C16 O19 1.256 . S
C16 O20 1.255 1_455 S
O17 Co0 2.021 . S
O17 C10 1.259 1_655 S
O18 Co2 2.117 . S
O18 C10 1.258 . S
O19 Co2 2.020 . S
O19 C16 1.256 . S
O20 Co0 2.062 . S
O20 C16 1.255 1_655 S
O21 C1 1.259 . S
O21 Co2 2.021 1_556 S
H22 C13 0.930 . S
H23 C12 0.931 . S
O24 Co0 2.117 1_456 S
O24 C1 1.258 . S
O25 Co0 2.020 1_455 S
O25 C27 1.256 . S
O26 Co2 2.062 1_556 S
O26 C27 1.255 1_556 S
C27 O25 1.256 . S
C27 O26 1.255 1_554 S
H28 C7 0.931 . S
H29 C15 0.931 . S
Co30 N35 2.057 1_554 S
Co30 O47 2.021 . S
Co30 O50 2.062 . S
Co30 O54 2.117 1_554 S
Co30 O55 2.020 . S
C31 O51 1.259 1_655 S
C31 O54 1.258 . S
Co32 N41 2.059 . S
Co32 O48 2.128 1_455 S
Co32 O49 2.020 1_455 S
Co32 O51 2.009 1_554 S
Co32 O56 2.061 1_554 S
C33 N35 1.316 1_554 S
C33 N36 1.347 1_554 S
C33 H38 0.931 . S
C34 N35 1.375 . S
C34 C37 1.350 . S
C34 H39 0.930 . S
N35 Co30 2.057 1_556 S
N35 C33 1.316 1_556 S
N35 C34 1.375 . S
N36 C33 1.347 1_556 S
N36 C37 1.373 . S
C37 C34 1.350 . S
C37 N36 1.373 . S
C37 H58 0.931 . S
H38 C33 0.931 . S
H39 C34 0.930 . S
C40 O47 1.259 . S
C40 O48 1.258 . S
N41 Co32 2.059 . S
N41 C42 1.316 1_554 S
N41 C43 1.375 . S
C42 N41 1.316 1_556 S
C42 N44 1.347 1_556 S
C42 H53 0.931 . S
C43 N41 1.375 . S
C43 C45 1.350 . S
C43 H52 0.930 . S
N44 C42 1.347 1_554 S
N44 C45 1.373 . S
C45 C43 1.350 . S
C45 N44 1.373 . S
C45 H59 0.931 . S
C46 O49 1.256 . S
C46 O50 1.255 . S
O47 Co30 2.021 . S
O47 C40 1.259 . S
O48 Co32 2.128 1_655 S
O48 C40 1.258 . S
O49 Co32 2.020 1_655 S
O49 C46 1.256 . S
O50 Co30 2.062 . S
O50 C46 1.255 . S
O51 C31 1.259 1_455 S
O51 Co32 2.009 1_556 S
H52 C43 0.930 . S
H53 C42 0.931 . S
O54 Co30 2.117 1_556 S
O54 C31 1.258 . S
O55 Co30 2.020 . S
O55 C57 1.256 . S
O56 Co32 2.061 1_556 S
O56 C57 1.255 1_456 S
C57 O55 1.256 . S
C57 O56 1.255 1_654 S
H58 C37 0.931 . S
H59 C45 0.931 . S
Co60 N65 2.057 . S
Co60 O77 2.021 . S
Co60 O80 2.062 . S
Co60 O84 2.117 . S
Co60 O85 2.020 . S
C61 O81 1.259 1_455 S
C61 O84 1.258 . S
Co62 N71 2.057 . S
Co62 O78 2.117 1_655 S
Co62 O79 2.020 1_655 S
Co62 O81 2.021 . S
Co62 O86 2.062 . S
C63 N65 1.316 . S
C63 N66 1.347 . S
C63 H68 0.931 . S
C64 N65 1.375 . S
C64 C67 1.350 . S
C64 H69 0.930 . S
N65 Co60 2.057 . S
N65 C63 1.316 . S
N65 C64 1.375 . S
N66 C63 1.347 . S
N66 C67 1.373 . S
C67 C64 1.350 . S
C67 N66 1.373 . S
C67 H88 0.931 . S
H68 C63 0.931 . S
H69 C64 0.930 . S
C70 O77 1.259 . S
C70 O78 1.258 . S
N71 Co62 2.057 . S
N71 C72 1.316 . S
N71 C73 1.375 . S
C72 N71 1.316 . S
C72 N74 1.347 . S
C72 H83 0.931 . S
C73 N71 1.375 . S
C73 C75 1.350 . S
C73 H82 0.930 . S
N74 C72 1.347 . S
N74 C75 1.373 . S
C75 C73 1.350 . S
C75 N74 1.373 . S
C75 H89 0.931 . S
C76 O79 1.256 . S
C76 O80 1.255 . S
O77 Co60 2.021 . S
O77 C70 1.259 . S
O78 Co62 2.117 1_455 S
O78 C70 1.258 . S
O79 Co62 2.020 1_455 S
O79 C76 1.256 . S
O80 Co60 2.062 . S
O80 C76 1.255 . S
O81 C61 1.259 1_655 S
O81 Co62 2.021 . S
H82 C73 0.930 . S
H83 C72 0.931 . S
O84 Co60 2.117 . S
O84 C61 1.258 . S
O85 Co60 2.020 . S
O85 C87 1.256 . S
O86 Co62 2.062 . S
O86 C87 1.255 1_655 S
C87 O85 1.256 . S
C87 O86 1.255 1_455 S
H88 C67 0.931 . S
H89 C75 0.931 . S
Co90 N95 2.057 . S
Co90 O107 2.021 . S
Co90 O110 2.062 . S
Co90 O114 2.117 1_455 S
Co90 O115 2.020 1_455 S
C91 O111 1.259 . S
C91 O114 1.258 . S
Co92 N101 2.057 . S
Co92 O108 2.117 . S
Co92 O109 2.020 . S
Co92 O111 2.021 . S
Co92 O116 2.062 . S
C93 N95 1.316 . S
C93 N96 1.347 . S
C93 H98 0.931 . S
C94 N95 1.375 . S
C94 C97 1.350 . S
C94 H99 0.930 . S
N95 Co90 2.057 . S
N95 C93 1.316 . S
N95 C94 1.375 . S
N96 C93 1.347 . S
N96 C97 1.373 . S
C97 C94 1.350 . S
C97 N96 1.373 . S
C97 H118 0.931 . S
H98 C93 0.931 . S
H99 C94 0.930 . S
C100 O107 1.259 1_655 S
C100 O108 1.258 . S
N101 Co92 2.057 . S
N101 C102 1.316 . S
N101 C103 1.375 . S
C102 N101 1.316 . S
C102 N104 1.347 . S
C102 H113 0.931 . S
C103 N101 1.375 . S
C103 C105 1.350 . S
C103 H112 0.930 . S
N104 C102 1.347 . S
N104 C105 1.373 . S
C105 C103 1.350 . S
C105 N104 1.373 . S
C105 H119 0.931 . S
C106 O109 1.256 . S
C106 O110 1.255 1_655 S
O107 Co90 2.021 . S
O107 C100 1.259 1_455 S
O108 Co92 2.117 . S
O108 C100 1.258 . S
O109 Co92 2.020 . S
O109 C106 1.256 . S
O110 Co90 2.062 . S
O110 C106 1.255 1_455 S
O111 C91 1.259 . S
O111 Co92 2.021 . S
H112 C103 0.930 . S
H113 C102 0.931 . S
O114 Co90 2.117 1_655 S
O114 C91 1.258 . S
O115 Co90 2.020 1_655 S
O115 C117 1.256 . S
O116 Co92 2.062 . S
O116 C117 1.255 . S
C117 O115 1.256 . S
C117 O116 1.255 . S
H118 C97 0.931 . S
H119 C105 0.931 . S
Co120 N125 2.057 1_554 S
Co120 O137 2.021 . S
Co120 O140 2.062 . S
Co120 O144 2.117 1_554 S
Co120 O145 2.020 . S
C121 O141 1.259 . S
C121 O144 1.258 . S
Co122 N131 2.057 . S
Co122 O138 2.117 . S
Co122 O139 2.020 . S
Co122 O141 2.021 1_554 S
Co122 O146 2.062 1_554 S
C123 N125 1.316 1_554 S
C123 N126 1.347 1_554 S
C123 H128 0.931 . S
C124 N125 1.375 . S
C124 C127 1.350 . S
C124 H129 0.930 . S
N125 Co120 2.057 1_556 S
N125 C123 1.316 1_556 S
N125 C124 1.375 . S
N126 C123 1.347 1_556 S
N126 C127 1.373 . S
C127 C124 1.350 . S
C127 N126 1.373 . S
C127 H148 0.931 . S
H128 C123 0.931 . S
H129 C124 0.930 . S
C130 O137 1.259 . S
C130 O138 1.258 . S
N131 Co122 2.057 . S
N131 C132 1.316 1_554 S
N131 C133 1.375 . S
C132 N131 1.316 1_556 S
C132 N134 1.347 1_556 S
C132 H143 0.931 . S
C133 N131 1.375 . S
C133 C135 1.350 . S
C133 H142 0.930 . S
N134 C132 1.347 1_554 S
N134 C135 1.373 . S
C135 C133 1.350 . S
C135 N134 1.373 . S
C135 H149 0.931 . S
C136 O139 1.256 . S
C136 O140 1.255 . S
O137 Co120 2.021 . S
O137 C130 1.259 . S
O138 Co122 2.117 . S
O138 C130 1.258 . S
O139 Co122 2.020 . S
O139 C136 1.256 . S
O140 Co120 2.062 . S
O140 C136 1.255 . S
O141 C121 1.259 . S
O141 Co122 2.021 1_556 S
H142 C133 0.930 . S
H143 C132 0.931 . S
O144 Co120 2.117 1_556 S
O144 C121 1.258 . S
O145 Co120 2.020 . S
O145 C147 1.256 . S
O146 Co122 2.062 1_556 S
O146 C147 1.255 1_556 S
C147 O145 1.256 . S
C147 O146 1.255 1_554 S
H148 C127 0.931 . S
H149 C135 0.931 . S
Co150 N155 2.057 1_554 S
Co150 O167 2.021 . S
Co150 O170 2.062 . S
Co150 O174 2.117 1_554 S
Co150 O175 2.020 . S
C151 O171 1.259 . S
C151 O174 1.258 . S
Co152 N161 2.059 . S
Co152 O168 2.128 . S
Co152 O169 2.020 . S
Co152 O171 2.009 1_554 S
Co152 O176 2.061 1_554 S
C153 N155 1.316 1_554 S
C153 N156 1.347 1_554 S
C153 H158 0.931 . S
C154 N155 1.375 . S
C154 C157 1.350 . S
C154 H159 0.930 . S
N155 Co150 2.057 1_556 S
N155 C153 1.316 1_556 S
N155 C154 1.375 . S
N156 C153 1.347 1_556 S
N156 C157 1.373 . S
C157 C154 1.350 . S
C157 N156 1.373 . S
C157 H178 0.931 . S
H158 C153 0.931 . S
H159 C154 0.930 . S
C160 O167 1.259 . S
C160 O168 1.258 . S
N161 Co152 2.059 . S
N161 C162 1.316 1_554 S
N161 C163 1.375 . S
C162 N161 1.316 1_556 S
C162 N164 1.347 1_556 S
C162 H173 0.931 . S
C163 N161 1.375 . S
C163 C165 1.350 . S
C163 H172 0.930 . S
N164 C162 1.347 1_554 S
N164 C165 1.373 . S
C165 C163 1.350 . S
C165 N164 1.373 . S
C165 H179 0.931 . S
C166 O169 1.256 . S
C166 O170 1.255 . S
O167 Co150 2.021 . S
O167 C160 1.259 . S
O168 Co152 2.128 . S
O168 C160 1.258 . S
O169 Co152 2.020 . S
O169 C166 1.256 . S
O170 Co150 2.062 . S
O170 C166 1.255 . S
O171 C151 1.259 . S
O171 Co152 2.009 1_556 S
H172 C163 0.930 . S
H173 C162 0.931 . S
O174 Co150 2.117 1_556 S
O174 C151 1.258 . S
O175 Co150 2.020 . S
O175 C177 1.256 . S
O176 Co152 2.061 1_556 S
O176 C177 1.255 1_556 S
C177 O175 1.256 . S
C177 O176 1.255 1_554 S
H178 C157 0.931 . S
H179 C165 0.931 . S
Co180 N185 2.057 . S
Co180 O197 2.021 . S
Co180 O200 2.062 . S
Co180 O204 2.117 . S
Co180 O205 2.020 . S
C181 O201 1.259 . S
C181 O204 1.258 . S
Co182 N191 2.057 . S
Co182 O198 2.117 . S
Co182 O199 2.020 . S
Co182 O201 2.021 . S
Co182 O206 2.062 . S
C183 N185 1.316 . S
C183 N186 1.347 . S
C183 H188 0.931 . S
C184 N185 1.375 . S
C184 C187 1.350 . S
C184 H189 0.930 . S
N185 Co180 2.057 . S
N185 C183 1.316 . S
N185 C184 1.375 . S
N186 C183 1.347 . S
N186 C187 1.373 . S
C187 C184 1.350 . S
C187 N186 1.373 . S
C187 H208 0.931 . S
H188 C183 0.931 . S
H189 C184 0.930 . S
C190 O197 1.259 . S
C190 O198 1.258 . S
N191 Co182 2.057 . S
N191 C192 1.316 . S
N191 C193 1.375 . S
C192 N191 1.316 . S
C192 N194 1.347 . S
C192 H203 0.931 . S
C193 N191 1.375 . S
C193 C195 1.350 . S
C193 H202 0.930 . S
N194 C192 1.347 . S
N194 C195 1.373 . S
C195 C193 1.350 . S
C195 N194 1.373 . S
C195 H209 0.931 . S
C196 O199 1.256 . S
C196 O200 1.255 . S
O197 Co180 2.021 . S
O197 C190 1.259 . S
O198 Co182 2.117 . S
O198 C190 1.258 . S
O199 Co182 2.020 . S
O199 C196 1.256 . S
O200 Co180 2.062 . S
O200 C196 1.255 . S
O201 C181 1.259 . S
O201 Co182 2.021 . S
H202 C193 0.930 . S
H203 C192 0.931 . S
O204 Co180 2.117 . S
O204 C181 1.258 . S
O205 Co180 2.020 . S
O205 C207 1.256 . S
O206 Co182 2.062 . S
O206 C207 1.255 . S
C207 O205 1.256 . S
C207 O206 1.255 . S
H208 C187 0.931 . S
H209 C195 0.931 . S
Co210 N215 2.057 . S
Co210 O227 2.021 . S
Co210 O230 2.062 . S
Co210 O234 2.117 . S
Co210 O235 2.020 . S
C211 O231 1.259 . S
C211 O234 1.258 . S
Co212 N221 2.057 . S
Co212 O228 2.117 . S
Co212 O229 2.020 . S
Co212 O231 2.021 . S
Co212 O236 2.062 . S
C213 N215 1.316 . S
C213 N216 1.347 . S
C213 H218 0.931 . S
C214 N215 1.375 . S
C214 C217 1.350 . S
C214 H219 0.930 . S
N215 Co210 2.057 . S
N215 C213 1.316 . S
N215 C214 1.375 . S
N216 C213 1.347 . S
N216 C217 1.373 . S
C217 C214 1.350 . S
C217 N216 1.373 . S
C217 H238 0.931 . S
H218 C213 0.931 . S
H219 C214 0.930 . S
C220 O227 1.259 . S
C220 O228 1.258 . S
N221 Co212 2.057 . S
N221 C222 1.316 . S
N221 C223 1.375 . S
C222 N221 1.316 . S
C222 N224 1.347 . S
C222 H233 0.931 . S
C223 N221 1.375 . S
C223 C225 1.350 . S
C223 H232 0.930 . S
N224 C222 1.347 . S
N224 C225 1.373 . S
C225 C223 1.350 . S
C225 N224 1.373 . S
C225 H239 0.931 . S
C226 O229 1.256 . S
C226 O230 1.255 . S
O227 Co210 2.021 . S
O227 C220 1.259 . S
O228 Co212 2.117 . S
O228 C220 1.258 . S
O229 Co212 2.020 . S
O229 C226 1.256 . S
O230 Co210 2.062 . S
O230 C226 1.255 . S
O231 C211 1.259 . S
O231 Co212 2.021 . S
H232 C223 0.930 . S
H233 C222 0.931 . S
O234 Co210 2.117 . S
O234 C211 1.258 . S
O235 Co210 2.020 . S
O235 C237 1.256 . S
O236 Co212 2.062 . S
O236 C237 1.255 . S
C237 O235 1.256 . S
C237 O236 1.255 . S
H238 C217 0.931 . S
H239 C225 0.931 . S
C240 C241 1.369 . S
C240 C242 1.419 . S
C240 H244 0.930 . S
C241 C240 1.369 . S
C241 C250 1.429 . S
C242 C240 1.419 . S
C242 C243 1.363 . S
C242 H245 0.929 . S
C243 C242 1.363 . S
C243 C249 1.428 . S
H244 C240 0.930 . S
H245 C242 0.929 . S
S246 N247 1.613 . S
S246 N248 1.610 . S
N247 S246 1.613 . S
N247 C250 1.350 . S
N248 S246 1.610 . S
N248 C249 1.351 . S
C249 C243 1.428 . S
C249 N248 1.351 . S
C249 C250 1.434 . S
C250 C241 1.429 . S
C250 N247 1.350 . S
C250 C249 1.434 . S
C251 C252 1.369 1_556 S
C251 C253 1.419 . S
C251 H255 0.930 . S
C252 C251 1.369 1_554 S
C252 C261 1.429 . S
C253 C251 1.419 . S
C253 C254 1.363 1_556 S
C253 H256 0.929 . S
C254 C253 1.363 1_554 S
C254 C260 1.428 . S
H255 C251 0.930 . S
H256 C253 0.929 . S
S257 N258 1.613 . S
S257 N259 1.610 . S
N258 S257 1.613 . S
N258 C261 1.350 . S
N259 S257 1.610 . S
N259 C260 1.351 . S
C260 C254 1.428 . S
C260 N259 1.351 . S
C260 C261 1.434 . S
C261 C252 1.429 . S
C261 N258 1.350 . S
C261 C260 1.434 . S
C262 C263 1.369 . S
C262 C264 1.419 . S
C262 H266 0.930 . S
C263 C262 1.369 . S
C263 C272 1.429 . S
C264 C262 1.419 . S
C264 C265 1.363 . S
C264 H267 0.929 . S
C265 C264 1.363 . S
C265 C271 1.428 . S
H266 C262 0.930 . S
H267 C264 0.929 . S
S268 N269 1.613 . S
S268 N270 1.610 . S
N269 S268 1.613 . S
N269 C272 1.350 . S
N270 S268 1.610 . S
N270 C271 1.351 . S
C271 C265 1.428 . S
C271 N270 1.351 . S
C271 C272 1.434 . S
C272 C263 1.429 . S
C272 N269 1.350 . S
C272 C271 1.434 . S
C273 C274 1.369 . S
C273 C275 1.419 . S
C273 H277 0.930 . S
C274 C273 1.369 . S
C274 C283 1.429 . S
C275 C273 1.419 . S
C275 C276 1.363 . S
C275 H278 0.929 . S
C276 C275 1.363 . S
C276 C282 1.428 . S
H277 C273 0.930 . S
H278 C275 0.929 . S
S279 N280 1.613 . S
S279 N281 1.610 . S
N280 S279 1.613 . S
N280 C283 1.350 . S
N281 S279 1.610 . S
N281 C282 1.351 . S
C282 C276 1.428 . S
C282 N281 1.351 . S
C282 C283 1.434 . S
C283 C274 1.429 . S
C283 N280 1.350 . S
C283 C282 1.434 . S
C284 C285 1.369 1_455 S
C284 C286 1.419 . S
C284 H288 0.930 1_455 S
C285 C284 1.369 1_655 S
C285 C294 1.429 1_654 S
C286 C284 1.419 . S
C286 C287 1.363 . S
C286 H289 0.929 . S
C287 C286 1.363 . S
C287 C293 1.428 1_554 S
H288 C284 0.930 1_655 S
H289 C286 0.929 . S
S290 N291 1.613 . S
S290 N292 1.610 . S
N291 S290 1.613 . S
N291 C294 1.350 . S
N292 S290 1.610 . S
N292 C293 1.351 . S
C293 C287 1.428 1_556 S
C293 N292 1.351 . S
C293 C294 1.434 . S
C294 C285 1.429 1_456 S
C294 N291 1.350 . S
C294 C293 1.434 . S
C295 C296 1.369 . S
C295 C297 1.419 1_455 S
C295 H299 0.930 . S
C296 C295 1.369 . S
C296 C305 1.429 1_454 S
C297 C295 1.419 1_655 S
C297 C298 1.363 . S
C297 H300 0.929 . S
C298 C297 1.363 . S
C298 C304 1.428 1_554 S
H299 C295 0.930 . S
H300 C297 0.929 . S
S301 N302 1.613 . S
S301 N303 1.610 . S
N302 S301 1.613 . S
N302 C305 1.350 . S
N303 S301 1.610 . S
N303 C304 1.351 . S
C304 C298 1.428 1_556 S
C304 N303 1.351 . S
C304 C305 1.434 . S
C305 C296 1.429 1_656 S
C305 N302 1.350 . S
C305 C304 1.434 . S
C306 C307 1.369 . S
C306 C308 1.419 . S
C306 H310 0.930 . S
C307 C306 1.369 . S
C307 C316 1.429 . S
C308 C306 1.419 . S
C308 C309 1.363 1_455 S
C308 H311 0.929 . S
C309 C308 1.363 1_655 S
C309 C315 1.428 . S
H310 C306 0.930 . S
H311 C308 0.929 . S
S312 N313 1.613 . S
S312 N314 1.610 1_455 S
N313 S312 1.613 . S
N313 C316 1.350 . S
N314 S312 1.610 1_655 S
N314 C315 1.351 . S
C315 C309 1.428 . S
C315 N314 1.351 . S
C315 C316 1.434 1_655 S
C316 C307 1.429 . S
C316 N313 1.350 . S
C316 C315 1.434 1_455 S
C317 C318 1.369 . S
C317 C319 1.419 . S
C317 H321 0.930 . S
C318 C317 1.369 . S
C318 C327 1.429 . S
C319 C317 1.419 . S
C319 C320 1.363 1_655 S
C319 H322 0.929 . S
C320 C319 1.363 1_455 S
C320 C326 1.428 1_455 S
H321 C317 0.930 . S
H322 C319 0.929 . S
S323 N324 1.613 . S
S323 N325 1.610 1_655 S
N324 S323 1.613 . S
N324 C327 1.350 . S
N325 S323 1.610 1_455 S
N325 C326 1.351 1_455 S
C326 C320 1.428 1_655 S
C326 N325 1.351 1_655 S
C326 C327 1.434 . S
C327 C318 1.429 . S
C327 N324 1.350 . S
C327 C326 1.434 . S
C328 C329 1.369 1_455 S
C328 C330 1.419 . S
C328 H332 0.930 . S
C329 C328 1.369 1_655 S
C329 C338 1.429 1_554 S
C330 C328 1.419 . S
C330 C331 1.363 . S
C330 H333 0.929 . S
C331 C330 1.363 . S
C331 C337 1.428 1_454 S
H332 C328 0.930 . S
H333 C330 0.929 . S
S334 N335 1.613 . S
S334 N336 1.610 . S
N335 S334 1.613 . S
N335 C338 1.350 . S
N336 S334 1.610 . S
N336 C337 1.351 . S
C337 C331 1.428 1_656 S
C337 N336 1.351 . S
C337 C338 1.434 . S
C338 C329 1.429 1_556 S
C338 N335 1.350 . S
C338 C337 1.434 . S
C339 C340 1.369 1_455 S
C339 C341 1.419 . S
C339 H343 0.930 . S
C340 C339 1.369 1_655 S
C340 C349 1.429 . S
C341 C339 1.419 . S
C341 C342 1.363 . S
C341 H344 0.929 . S
C342 C341 1.363 . S
C342 C348 1.428 1_455 S
H343 C339 0.930 . S
H344 C341 0.929 . S
S345 N346 1.613 . S
S345 N347 1.610 . S
N346 S345 1.613 . S
N346 C349 1.350 . S
N347 S345 1.610 . S
N347 C348 1.351 . S
C348 C342 1.428 1_655 S
C348 N347 1.351 . S
C348 C349 1.434 . S
C349 C340 1.429 . S
C349 N346 1.350 . S
C349 C348 1.434 . S
C350 C351 1.369 . S
C350 C352 1.419 1_565 S
C350 H354 0.930 . S
C351 C350 1.369 . S
C351 C360 1.429 1_554 S
C352 C350 1.419 1_545 S
C352 C353 1.363 . S
C352 H355 0.929 . S
C353 C352 1.363 . S
C353 C359 1.428 1_554 S
H354 C350 0.930 . S
H355 C352 0.929 . S
S356 N357 1.613 . S
S356 N358 1.610 1_565 S
N357 S356 1.613 . S
N357 C360 1.350 . S
N358 S356 1.610 1_545 S
N358 C359 1.351 . S
C359 C353 1.428 1_556 S
C359 N358 1.351 . S
C359 C360 1.434 1_545 S
C360 C351 1.429 1_556 S
C360 N357 1.350 . S
C360 C359 1.434 1_565 S
C361 C362 1.369 . S
C361 C363 1.419 1_545 S
C361 H365 0.930 . S
C362 C361 1.369 . S
C362 C371 1.429 . S
C363 C361 1.419 1_565 S
C363 C364 1.363 . S
C363 H366 0.929 . S
C364 C363 1.363 . S
C364 C370 1.428 . S
H365 C361 0.930 . S
H366 C363 0.929 . S
S367 N368 1.613 1_565 S
S367 N369 1.610 . S
N368 S367 1.613 1_545 S
N368 C371 1.350 . S
N369 S367 1.610 . S
N369 C370 1.351 . S
C370 C364 1.428 . S
C370 N369 1.351 . S
C370 C371 1.434 1_565 S
C371 C362 1.429 . S
C371 N368 1.350 . S
C371 C370 1.434 1_545 S
C372 C373 1.369 1_556 S
C372 C374 1.419 . S
C372 H376 0.930 . S
C373 C372 1.369 1_554 S
C373 C382 1.429 . S
C374 C372 1.419 . S
C374 C375 1.363 1_556 S
C374 H377 0.929 . S
C375 C374 1.363 1_554 S
C375 C381 1.428 . S
H376 C372 0.930 . S
H377 C374 0.929 . S
S378 N379 1.613 . S
S378 N380 1.610 . S
N379 S378 1.613 . S
N379 C382 1.350 . S
N380 S378 1.610 . S
N380 C381 1.351 . S
C381 C375 1.428 . S
C381 N380 1.351 . S
C381 C382 1.434 . S
C382 C373 1.429 . S
C382 N379 1.350 . S
C382 C381 1.434 . S
C383 C384 1.369 . S
C383 C385 1.419 . S
C383 H387 0.930 . S
C384 C383 1.369 . S
C384 C393 1.429 1_554 S
C385 C383 1.419 . S
C385 C386 1.363 . S
C385 H388 0.929 . S
C386 C385 1.363 . S
C386 C392 1.428 1_554 S
H387 C383 0.930 . S
H388 C385 0.929 . S
S389 N390 1.613 . S
S389 N391 1.610 . S
N390 S389 1.613 . S
N390 C393 1.350 . S
N391 S389 1.610 . S
N391 C392 1.351 . S
C392 C386 1.428 1_556 S
C392 N391 1.351 . S
C392 C393 1.434 . S
C393 C384 1.429 1_556 S
C393 N390 1.350 . S
C393 C392 1.434 . S
C394 C395 1.369 . S
C394 C396 1.419 . S
C394 H398 0.930 . S
C395 C394 1.369 . S
C395 C404 1.429 . S
C396 C394 1.419 . S
C396 C397 1.363 . S
C396 H399 0.929 . S
C397 C396 1.363 . S
C397 C403 1.428 . S
H398 C394 0.930 . S
H399 C396 0.929 . S
S400 N401 1.613 . S
S400 N402 1.610 . S
N401 S400 1.613 . S
N401 C404 1.350 . S
N402 S400 1.610 . S
N402 C403 1.351 . S
C403 C397 1.428 . S
C403 N402 1.351 . S
C403 C404 1.434 . S
C404 C395 1.429 . S
C404 N401 1.350 . S
C404 C403 1.434 . S
C405 C406 1.369 . S
C405 C407 1.419 . S
C405 H409 0.930 . S
C406 C405 1.369 . S
C406 C415 1.429 . S
C407 C405 1.419 . S
C407 C408 1.363 . S
C407 H410 0.929 . S
C408 C407 1.363 . S
C408 C414 1.428 . S
H409 C405 0.930 . S
H410 C407 0.929 . S
S411 N412 1.613 . S
S411 N413 1.610 . S
N412 S411 1.613 . S
N412 C415 1.350 . S
N413 S411 1.610 . S
N413 C414 1.351 . S
C414 C408 1.428 . S
C414 N413 1.351 . S
C414 C415 1.434 . S
C415 C406 1.429 . S
C415 N412 1.350 . S
C415 C414 1.434 . S
C416 C417 1.369 . S
C416 C418 1.419 1_455 S
C416 H420 0.930 . S
C417 C416 1.369 . S
C417 C426 1.429 . S
C418 C416 1.419 1_655 S
C418 C419 1.363 . S
C418 H421 0.929 . S
C419 C418 1.363 . S
C419 C425 1.428 . S
H420 C416 0.930 . S
H421 C418 0.929 . S
S422 N423 1.613 . S
S422 N424 1.610 1_455 S
N423 S422 1.613 . S
N423 C426 1.350 . S
N424 S422 1.610 1_655 S
N424 C425 1.351 . S
C425 C419 1.428 . S
C425 N424 1.351 . S
C425 C426 1.434 1_655 S
C426 C417 1.429 . S
C426 N423 1.350 . S
C426 C425 1.434 1_455 S
C427 C428 1.369 . S
C427 C429 1.419 1_655 S
C427 H431 0.930 . S
C428 C427 1.369 . S
C428 C437 1.429 . S
C429 C427 1.419 1_455 S
C429 C430 1.363 . S
C429 H432 0.929 . S
C430 C429 1.363 . S
C430 C436 1.428 . S
H431 C427 0.930 . S
H432 C429 0.929 . S
S433 N434 1.613 . S
S433 N435 1.610 1_655 S
N434 S433 1.613 . S
N434 C437 1.350 . S
N435 S433 1.610 1_455 S
N435 C436 1.351 . S
C436 C430 1.428 . S
C436 N435 1.351 . S
C436 C437 1.434 1_455 S
C437 C428 1.429 . S
C437 N434 1.350 . S
C437 C436 1.434 1_655 S
C438 C439 1.369 . S
C438 C440 1.419 1_655 S
C438 H442 0.930 . S
C439 C438 1.369 . S
C439 C448 1.429 . S
C440 C438 1.419 1_455 S
C440 C441 1.363 . S
C440 H443 0.929 . S
C441 C440 1.363 . S
C441 C447 1.428 . S
H442 C438 0.930 . S
H443 C440 0.929 . S
S444 N445 1.613 . S
S444 N446 1.610 . S
N445 S444 1.613 . S
N445 C448 1.350 . S
N446 S444 1.610 . S
N446 C447 1.351 1_655 S
C447 C441 1.428 . S
C447 N446 1.351 1_455 S
C447 C448 1.434 1_455 S
C448 C439 1.429 . S
C448 N445 1.350 . S
C448 C447 1.434 1_655 S
C449 C450 1.369 . S
C449 C451 1.415 1_655 S
C449 H453 0.930 . S
C450 C449 1.369 . S
C450 C459 1.429 . S
C451 C449 1.415 1_455 S
C451 C452 1.367 . S
C451 H454 0.928 1_455 S
C452 C451 1.367 . S
C452 C458 1.428 . S
H453 C449 0.930 . S
H454 C451 0.928 1_655 S
S455 N456 1.611 1_455 S
S455 N457 1.610 . S
N456 S455 1.611 1_655 S
N456 C459 1.350 . S
N457 S455 1.610 . S
N457 C458 1.351 . S
C458 C452 1.428 . S
C458 N457 1.351 . S
C458 C459 1.434 1_455 S
C459 C450 1.429 . S
C459 N456 1.350 . S
C459 C458 1.434 1_655 S
C460 C461 1.369 . S
C460 C462 1.419 . S
C460 H464 0.930 . S
C461 C460 1.369 . S
C461 C470 1.429 . S
C462 C460 1.419 . S
C462 C463 1.363 . S
C462 H465 0.929 . S
C463 C462 1.363 . S
C463 C469 1.428 . S
H464 C460 0.930 . S
H465 C462 0.929 . S
S466 N467 1.613 . S
S466 N468 1.610 . S
N467 S466 1.613 . S
N467 C470 1.350 . S
N468 S466 1.610 . S
N468 C469 1.351 . S
C469 C463 1.428 . S
C469 N468 1.351 . S
C469 C470 1.434 . S
C470 C461 1.429 . S
C470 N467 1.350 . S
C470 C469 1.434 . S
C471 C472 1.369 . S
C471 C473 1.419 . S
C471 H475 0.930 . S
C472 C471 1.369 . S
C472 C481 1.429 . S
C473 C471 1.419 . S
C473 C474 1.363 . S
C473 H476 0.929 . S
C474 C473 1.363 . S
C474 C480 1.428 . S
H475 C471 0.930 . S
H476 C473 0.929 . S
S477 N478 1.613 . S
S477 N479 1.610 . S
N478 S477 1.613 . S
N478 C481 1.350 . S
N479 S477 1.610 . S
N479 C480 1.351 . S
C480 C474 1.428 . S
C480 N479 1.351 . S
C480 C481 1.434 . S
C481 C472 1.429 . S
C481 N478 1.350 . S
C481 C480 1.434 . S
C482 C483 1.369 . S
C482 C484 1.419 . S
C482 H486 0.930 . S
C483 C482 1.369 . S
C483 C492 1.429 . S
C484 C482 1.419 . S
C484 C485 1.363 . S
C484 H487 0.929 . S
C485 C484 1.363 . S
C485 C491 1.428 . S
H486 C482 0.930 . S
H487 C484 0.929 . S
S488 N489 1.613 . S
S488 N490 1.610 . S
N489 S488 1.613 . S
N489 C492 1.350 . S
N490 S488 1.610 . S
N490 C491 1.351 . S
C491 C485 1.428 . S
C491 N490 1.351 . S
C491 C492 1.434 . S
C492 C483 1.429 . S
C492 N489 1.350 . S
C492 C491 1.434 . S
C493 C494 1.369 . S
C493 C495 1.419 . S
C493 H497 0.930 . S
C494 C493 1.369 . S
C494 C503 1.429 . S
C495 C493 1.419 . S
C495 C496 1.363 . S
C495 H498 0.929 . S
C496 C495 1.363 . S
C496 C502 1.428 . S
H497 C493 0.930 . S
H498 C495 0.929 . S
S499 N500 1.613 . S
S499 N501 1.610 . S
N500 S499 1.613 . S
N500 C503 1.350 . S
N501 S499 1.610 . S
N501 C502 1.351 . S
C502 C496 1.428 . S
C502 N501 1.351 . S
C502 C503 1.434 . S
C503 C494 1.429 . S
C503 N500 1.350 . S
C503 C502 1.434 . S
C241 N14 1.275 . S
C243 N6 1.269 1_554 S
C252 N44 1.268 . S
C254 N36 1.275 1_554 S
C263 N74 1.268 . S
C265 N66 1.275 . S
C274 N104 1.274 . S
C276 N96 1.270 . S
C285 N134 1.276 . S
C287 N126 1.269 1_554 S
C296 N156 1.271 1_554 S
C298 N164 1.272 . S
C307 N194 1.276 . S
C309 N186 1.269 . S
C318 N216 1.268 . S
C320 N224 1.275 . S
C329 C57 1.585 . S
C331 C16 1.586 . S
C340 C106 1.585 . S
C342 C87 1.586 . S
C351 C136 1.586 . S
C353 C177 1.585 . S
C362 C207 1.585 . S
C364 C226 1.585 . S
C373 C27 1.843 . S
C375 C166 1.851 . S
C384 C147 1.844 . S
C386 C46 1.850 . S
C395 C76 1.843 . S
C397 C237 1.851 . S
C406 C117 1.844 . S
C408 C196 1.850 . S
C417 C10 1.653 . S
C419 C100 1.654 . S
C428 C40 1.632 . S
C430 C70 1.630 . S
C439 C31 1.656 . S
C441 C61 1.652 . S
C450 C91 1.632 . S
C452 C1 1.632 . S
C461 C130 1.657 . S
C463 C220 1.651 . S
C472 C160 1.633 . S
C474 C190 1.629 . S
C483 C151 1.656 . S
C485 C181 1.652 . S
C494 C211 1.632 . S
C496 C121 1.632 . S
