# Generated by pormake.
# Topology uoj, (4)-cn, num edge types: 1
# Building blocks:
#     Node 0, Type 0, BuildingBlock: CEKHIL_clean_sbu_0, # of connection points: 4
#     Node 1, Type 0, BuildingBlock: CEKHIL_clean_sbu_0, # of connection points: 4
#     Node 2, Type 0, BuildingBlock: CEKHIL_clean_sbu_0, # of connection points: 4
#     Node 3, Type 0, BuildingBlock: CEKHIL_clean_sbu_0, # of connection points: 4
#     Node 4, Type 0, BuildingBlock: CEKHIL_clean_sbu_0, # of connection points: 4
#     Node 5, Type 0, BuildingBlock: CEKHIL_clean_sbu_0, # of connection points: 4
#     Node 6, Type 0, BuildingBlock: CEKHIL_clean_sbu_0, # of connection points: 4
#     Node 7, Type 0, BuildingBlock: CEKHIL_clean_sbu_0, # of connection points: 4
#     Edge 8, Type (0, 0), BuildingBlock: MIFKUJ_clean_linker_0, # of connection points: 2
#     Edge 9, Type (0, 0), BuildingBlock: MIFKUJ_clean_linker_0, # of connection points: 2
#     Edge 10, Type (0, 0), BuildingBlock: MIFKUJ_clean_linker_0, # of connection points: 2
#     Edge 11, Type (0, 0), BuildingBlock: MIFKUJ_clean_linker_0, # of connection points: 2
#     Edge 12, Type (0, 0), BuildingBlock: MIFKUJ_clean_linker_0, # of connection points: 2
#     Edge 13, Type (0, 0), BuildingBlock: MIFKUJ_clean_linker_0, # of connection points: 2
#     Edge 14, Type (0, 0), BuildingBlock: MIFKUJ_clean_linker_0, # of connection points: 2
#     Edge 15, Type (0, 0), BuildingBlock: MIFKUJ_clean_linker_0, # of connection points: 2
#     Edge 16, Type (0, 0), BuildingBlock: MIFKUJ_clean_linker_0, # of connection points: 2
#     Edge 17, Type (0, 0), BuildingBlock: MIFKUJ_clean_linker_0, # of connection points: 2
#     Edge 18, Type (0, 0), BuildingBlock: MIFKUJ_clean_linker_0, # of connection points: 2
#     Edge 19, Type (0, 0), BuildingBlock: MIFKUJ_clean_linker_0, # of connection points: 2
#     Edge 20, Type (0, 0), BuildingBlock: MIFKUJ_clean_linker_0, # of connection points: 2
#     Edge 21, Type (0, 0), BuildingBlock: MIFKUJ_clean_linker_0, # of connection points: 2
#     Edge 22, Type (0, 0), BuildingBlock: MIFKUJ_clean_linker_0, # of connection points: 2
#     Edge 23, Type (0, 0), BuildingBlock: MIFKUJ_clean_linker_0, # of connection points: 2
# Relax obj value: 0.110
# Max RMSD: 0.137
# Mean RMSD: 0.135
data_MOF--net-uoj--node1-CEKHIL_clean_sbu_0--edge1-MIFKUJ_clean_linker_0
_symmetry_space_group_name_H-M    P1
_symmetry_Int_Tables_number       1
_symmetry_cell_setting            triclinic
loop_
_symmetry_equiv_pos_as_xyz
'x, y, z'
_cell_length_a     42.799651
_cell_length_b     42.526651
_cell_length_c     45.429087
_cell_angle_alpha  89.958699
_cell_angle_beta   90.040485
_cell_angle_gamma 89.021883
loop_
_atom_site_label
_atom_site_type_symbol
_atom_site_fract_x
_atom_site_fract_y
_atom_site_fract_z
_atom_type_partial_charge
Co0 Co 0.07765 0.29432 0.43733 0.0
O1 O 0.10989 0.31446 0.4153 0.0
O2 O 0.06098 0.30905 0.40023 0.0
C3 C 0.10607 0.2519 0.45051 0.0
O4 O 0.03852 0.27391 0.45327 0.0
Co5 Co 0.08477 0.28281 0.50443 0.0
O6 O 0.04952 0.25381 0.49793 0.0
C7 C 0.0675 0.34612 0.48296 0.0
C8 C 0.08903 0.31891 0.3949 0.0
C9 C 0.03171 0.25669 0.47556 0.0
O10 O 0.0659 0.33525 0.45661 0.0
O11 O 0.07642 0.32949 0.50503 0.0
O12 O 0.09298 0.2532 0.42471 0.0
O13 O 0.1041 0.27721 0.46618 0.0
Co14 Co 0.29275 0.91677 0.56503 0.0
O15 O 0.2509 0.9035 0.57218 0.0
O16 O 0.27612 0.89755 0.52984 0.0
C17 C 0.31286 0.89738 0.60723 0.0
O18 O 0.33613 0.92737 0.54986 0.0
Co19 Co 0.32424 0.9644 0.60746 0.0
O20 O 0.36267 0.95061 0.58648 0.0
C21 C 0.27598 0.98629 0.56519 0.0
C22 C 0.25075 0.89378 0.54513 0.0
C23 C 0.36143 0.93804 0.56107 0.0
O24 O 0.27618 0.95921 0.55258 0.0
O25 O 0.29169 0.99225 0.58848 0.0
O26 O 0.30958 0.87901 0.58461 0.0
O27 O 0.30186 0.92558 0.60419 0.0
Co28 Co 0.91861 0.70408 0.44155 0.0
O29 O 0.88715 0.68347 0.41877 0.0
O30 O 0.93625 0.6899 0.40476 0.0
C31 C 0.88951 0.74606 0.45466 0.0
O32 O 0.95713 0.72504 0.45832 0.0
Co33 Co 0.91023 0.71454 0.50871 0.0
O34 O 0.94534 0.74387 0.50326 0.0
C35 C 0.92844 0.65177 0.48684 0.0
C36 C 0.90859 0.67937 0.39886 0.0
C37 C 0.96346 0.74178 0.48107 0.0
O38 O 0.93059 0.6631 0.4607 0.0
O39 O 0.91899 0.66794 0.50898 0.0
O40 O 0.90273 0.74504 0.42893 0.0
O41 O 0.8916 0.72059 0.47015 0.0
Co42 Co 0.70818 0.08307 0.56803 0.0
O43 O 0.74747 0.10334 0.57144 0.0
O44 O 0.72114 0.0981 0.52964 0.0
C45 C 0.68541 0.10603 0.60708 0.0
O46 O 0.66669 0.06336 0.55696 0.0
Co47 Co 0.68914 0.03833 0.61947 0.0
O48 O 0.65102 0.03366 0.59525 0.0
C49 C 0.73734 0.01794 0.57733 0.0
C50 C 0.74597 0.10778 0.54326 0.0
C51 C 0.64712 0.04488 0.56942 0.0
O52 O 0.73072 0.04187 0.56098 0.0
O53 O 0.72556 0.01395 0.6029 0.0
O54 O 0.68595 0.12084 0.58208 0.0
O55 O 0.70133 0.08011 0.60835 0.0
Co56 Co 0.41276 0.79613 0.94547 0.0
O57 O 0.38 0.8164 0.92307 0.0
O58 O 0.42912 0.81001 0.90833 0.0
C59 C 0.38494 0.75421 0.9587 0.0
O60 O 0.45248 0.77497 0.9608 0.0
Co61 Co 0.40817 0.78444 0.01233 0.0
O62 O 0.44316 0.75426 0.00528 0.0
C63 C 0.42572 0.84717 0.99088 0.0
C64 C 0.40079 0.81954 0.90249 0.0
C65 C 0.46026 0.75716 0.98256 0.0
O66 O 0.42427 0.83708 0.96427 0.0
O67 O 0.41928 0.83026 0.01333 0.0
O68 O 0.39787 0.75562 0.93291 0.0
O69 O 0.38685 0.77919 0.97489 0.0
Co70 Co 0.7879 0.57789 0.06797 0.0
O71 O 0.80741 0.60749 0.0938 0.0
O72 O 0.79687 0.55791 0.10517 0.0
C73 C 0.74855 0.60886 0.05188 0.0
O74 O 0.76752 0.54097 0.0478 0.0
Co75 Co 0.7863 0.5899 0.00064 0.0
O76 O 0.76071 0.55136 -0.00037 0.0
C77 C 0.845 0.56935 0.02846 0.0
C78 C 0.80826 0.58479 0.11294 0.0
C79 C 0.75734 0.53375 0.02209 0.0
O80 O 0.83004 0.56455 0.05251 0.0
O81 O 0.83247 0.58221 0.00577 0.0
O82 O 0.74669 0.59476 0.07718 0.0
O83 O 0.77546 0.60705 0.03896 0.0
Co84 Co 0.58443 0.20117 0.94314 0.0
O85 O 0.61346 0.17959 0.91763 0.0
O86 O 0.56437 0.19206 0.90628 0.0
C87 C 0.61663 0.23918 0.95757 0.0
O88 O 0.54825 0.22457 0.96248 0.0
Co89 Co 0.59563 0.2047 0.01032 0.0
O90 O 0.55895 0.23391 0.01008 0.0
C91 C 0.5726 0.1461 0.98468 0.0
C92 C 0.5911 0.17992 0.89826 0.0
C93 C 0.54151 0.23706 0.98749 0.0
O94 O 0.5699 0.16017 0.95976 0.0
O95 O 0.58489 0.15887 0.00734 0.0
O96 O 0.60238 0.24095 0.93239 0.0
O97 O 0.61374 0.21303 0.97192 0.0
Co98 Co 0.20726 0.41524 0.06063 0.0
O99 O 0.18835 0.3847 0.08589 0.0
O100 O 0.19832 0.43394 0.09838 0.0
C101 C 0.24615 0.38467 0.04367 0.0
O102 O 0.22755 0.45287 0.04144 0.0
Co103 Co 0.20851 0.40602 0.99309 0.0
O104 O 0.23601 0.44312 0.99345 0.0
C105 C 0.15014 0.42685 0.02145 0.0
C106 C 0.18737 0.40669 0.10572 0.0
C107 C 0.23895 0.46028 0.01624 0.0
O108 O 0.16496 0.42897 0.04594 0.0
O109 O 0.16271 0.41601 0.99791 0.0
O110 O 0.24855 0.39827 0.06913 0.0
O111 O 0.21927 0.38696 0.03074 0.0
H112 H 0.18707 0.44611 0.15324 0.0
H113 H 0.16894 0.43452 0.20314 0.0
H114 H 0.14063 0.34247 0.17481 0.0
H115 H 0.1592 0.35361 0.12515 0.0
H116 H 0.11321 0.41937 0.22673 0.0
H117 H 0.15652 0.28991 0.22877 0.0
H118 H 0.19731 0.25635 0.20585 0.0
H119 H 0.25522 0.3368 0.19383 0.0
H120 H 0.21498 0.37076 0.21704 0.0
H121 H 0.05091 0.33172 0.34778 0.0
H122 H 0.06661 0.35108 0.29924 0.0
H123 H 0.16201 0.35684 0.32918 0.0
H124 H 0.14663 0.33753 0.37752 0.0
H125 H 0.15764 0.32546 0.27762 0.0
H126 H 0.12044 0.42254 0.31897 0.0
H127 H 0.08245 0.45795 0.34355 0.0
H128 H 0.01794 0.44625 0.27211 0.0
H129 H 0.05539 0.41037 0.2473 0.0
C130 C 0.17686 0.42346 0.15764 0.0
C131 C 0.17483 0.40064 0.13539 0.0
C132 C 0.16641 0.41693 0.1861 0.0
C133 C 0.15383 0.38751 0.19272 0.0
C134 C 0.15076 0.36514 0.17026 0.0
C135 C 0.16133 0.37157 0.14189 0.0
C136 C 0.14499 0.37969 0.22333 0.0
C137 C 0.12288 0.39883 0.23787 0.0
C138 C 0.158 0.35316 0.23799 0.0
C139 C 0.18259 0.3329 0.22438 0.0
C140 C 0.17802 0.30041 0.22134 0.0
C141 C 0.20103 0.28132 0.20829 0.0
C142 C 0.22879 0.29445 0.19831 0.0
C143 C 0.23366 0.32668 0.20147 0.0
C144 C 0.21074 0.34586 0.21455 0.0
C145 C 0.07515 0.33744 0.34407 0.0
C146 C 0.09756 0.333 0.36639 0.0
C147 C 0.08406 0.34856 0.3164 0.0
C148 C 0.11546 0.35539 0.31069 0.0
C149 C 0.13768 0.35161 0.33315 0.0
C150 C 0.12881 0.34066 0.36078 0.0
C151 C 0.12557 0.3649 0.28092 0.0
C152 C 0.14791 0.34599 0.26649 0.0
C153 C 0.11313 0.39188 0.26662 0.0
C154 C 0.0906 0.41353 0.28142 0.0
C155 C 0.09805 0.4273 0.30862 0.0
C156 C 0.07663 0.4475 0.32257 0.0
C157 C 0.04777 0.45428 0.30944 0.0
C158 C 0.04029 0.44094 0.28228 0.0
C159 C 0.06162 0.4207 0.26825 0.0
H160 H 0.03122 0.46993 0.32027 0.0
H161 H 0.24657 0.27964 0.18818 0.0
H162 H 0.32713 0.83718 0.62517 0.0
H163 H 0.34373 0.82065 0.67474 0.0
H164 H 0.34687 0.91782 0.70161 0.0
H165 H 0.32997 0.93434 0.65278 0.0
H166 H 0.39353 0.832 0.7116 0.0
H167 H 0.31177 0.92566 0.76708 0.0
H168 H 0.26147 0.95272 0.75683 0.0
H169 H 0.23415 0.87646 0.70107 0.0
H170 H 0.28403 0.84875 0.71134 0.0
H171 H 0.43811 0.84483 0.86028 0.0
H172 H 0.42408 0.85632 0.8091 0.0
H173 H 0.33004 0.82566 0.82584 0.0
H174 H 0.34351 0.81613 0.87728 0.0
H175 H 0.32581 0.87172 0.79257 0.0
H176 H 0.38888 0.77837 0.78958 0.0
H177 H 0.43511 0.74452 0.79932 0.0
H178 H 0.49244 0.80722 0.74968 0.0
H179 H 0.44662 0.84167 0.73996 0.0
C180 C 0.33182 0.85494 0.64159 0.0
C181 C 0.32687 0.88699 0.6353 0.0
C182 C 0.34132 0.84549 0.66981 0.0
C183 C 0.34592 0.86803 0.6919 0.0
C184 C 0.34286 0.90006 0.685 0.0
C185 C 0.33324 0.90944 0.65705 0.0
C186 C 0.35196 0.85854 0.72273 0.0
C187 C 0.37876 0.84053 0.72937 0.0
C188 C 0.33206 0.86889 0.74574 0.0
C189 C 0.30179 0.88529 0.73978 0.0
C190 C 0.29497 0.91461 0.75274 0.0
C191 C 0.26654 0.93007 0.74691 0.0
C192 C 0.24467 0.91637 0.72823 0.0
C193 C 0.25115 0.88712 0.71544 0.0
C194 C 0.27951 0.87154 0.72123 0.0
C195 C 0.41435 0.84103 0.85303 0.0
C196 C 0.39186 0.82967 0.87264 0.0
C197 C 0.40643 0.84722 0.82373 0.0
C198 C 0.37619 0.84108 0.81334 0.0
C199 C 0.35353 0.83054 0.83323 0.0
C200 C 0.36122 0.82517 0.86266 0.0
C201 C 0.36799 0.84573 0.78183 0.0
C202 C 0.34066 0.86292 0.77497 0.0
C203 C 0.38678 0.8335 0.75866 0.0
C204 C 0.41436 0.81272 0.76425 0.0
C205 C 0.41138 0.78503 0.78089 0.0
C206 C 0.43751 0.76573 0.78638 0.0
C207 C 0.46671 0.77375 0.77517 0.0
C208 C 0.46982 0.80105 0.75837 0.0
C209 C 0.44377 0.82045 0.75283 0.0
H210 H 0.48691 0.75879 0.77947 0.0
H211 H 0.22269 0.92839 0.72373 0.0
H212 H 0.85288 0.65561 0.38125 0.0
H213 H 0.83972 0.63432 0.33302 0.0
H214 H 0.93445 0.64796 0.30389 0.0
H215 H 0.94777 0.66968 0.35212 0.0
H216 H 0.8913 0.67225 0.26564 0.0
H217 H 0.90772 0.57428 0.3175 0.0
H218 H 0.89946 0.53677 0.35808 0.0
H219 H 0.80165 0.53393 0.33734 0.0
H220 H 0.80924 0.57174 0.29689 0.0
H221 H 0.86572 0.60625 0.12609 0.0
H222 H 0.88722 0.61632 0.17506 0.0
H223 H 0.80058 0.58674 0.21435 0.0
H224 H 0.78037 0.574 0.16539 0.0
H225 H 0.84328 0.56865 0.24783 0.0
H226 H 0.82279 0.66883 0.20147 0.0
H227 H 0.8268 0.70926 0.16273 0.0
H228 H 0.92621 0.71174 0.17509 0.0
H229 H 0.92281 0.67108 0.21368 0.0
C230 C 0.87102 0.6538 0.36469 0.0
C231 C 0.90136 0.6644 0.37042 0.0
C232 C 0.86349 0.64146 0.33719 0.0
C233 C 0.88619 0.6393 0.31499 0.0
C234 C 0.91664 0.64937 0.3208 0.0
C235 C 0.92421 0.66172 0.34834 0.0
C236 C 0.87756 0.62849 0.28516 0.0
C237 C 0.88131 0.64937 0.26159 0.0
C238 C 0.86351 0.5991 0.28019 0.0
C239 C 0.85904 0.576 0.30427 0.0
C240 C 0.88442 0.5658 0.3217 0.0
C241 C 0.87986 0.54445 0.34466 0.0
C242 C 0.85005 0.53301 0.35031 0.0
C243 C 0.82474 0.54281 0.33294 0.0
C244 C 0.82917 0.56416 0.30997 0.0
C245 C 0.85155 0.60165 0.14533 0.0
C246 C 0.82147 0.58959 0.1423 0.0
C247 C 0.86366 0.60766 0.17326 0.0
C248 C 0.84523 0.60325 0.19851 0.0
C249 C 0.81531 0.59046 0.19532 0.0
C250 C 0.80369 0.58329 0.16742 0.0
C251 C 0.8567 0.61257 0.22812 0.0
C252 C 0.85347 0.59146 0.2517 0.0
C253 C 0.87055 0.64212 0.23331 0.0
C254 C 0.87257 0.66671 0.21024 0.0
C255 C 0.84551 0.67789 0.1958 0.0
C256 C 0.84768 0.70085 0.17389 0.0
C257 C 0.87675 0.71299 0.1664 0.0
C258 C 0.90371 0.70228 0.18088 0.0
C259 C 0.90168 0.6793 0.20279 0.0
H260 H 0.87838 0.73075 0.14942 0.0
H261 H 0.84656 0.51651 0.36811 0.0
H262 H 0.54782 0.17069 0.85499 0.0
H263 H 0.55802 0.15809 0.8031 0.0
H264 H 0.657 0.15481 0.82062 0.0
H265 H 0.64713 0.16662 0.87249 0.0
H266 H 0.61279 0.19905 0.76653 0.0
H267 H 0.65976 0.09691 0.80729 0.0
H268 H 0.65338 0.05075 0.83961 0.0
H269 H 0.56485 0.03202 0.79925 0.0
H270 H 0.57062 0.07837 0.767 0.0
H271 H 0.70202 0.15402 0.6422 0.0
H272 H 0.67916 0.16792 0.68992 0.0
H273 H 0.60796 0.09839 0.67712 0.0
H274 H 0.63204 0.08348 0.6301 0.0
H275 H 0.6305 0.09098 0.72819 0.0
H276 H 0.59253 0.18144 0.67645 0.0
H277 H 0.59506 0.22798 0.64419 0.0
H278 H 0.65939 0.27107 0.70378 0.0
H279 H 0.65758 0.22462 0.73623 0.0
C280 C 0.57171 0.16684 0.84784 0.0
C281 C 0.59669 0.16952 0.86776 0.0
C282 C 0.57746 0.15976 0.81828 0.0
C283 C 0.6082 0.15549 0.80832 0.0
C284 C 0.63312 0.15777 0.82814 0.0
C285 C 0.62741 0.16444 0.85772 0.0
C286 C 0.61456 0.14972 0.77695 0.0
C287 C 0.61681 0.17552 0.75795 0.0
C288 C 0.61875 0.11902 0.76595 0.0
C289 C 0.61544 0.09117 0.78507 0.0
C290 C 0.63884 0.08306 0.80553 0.0
C291 C 0.63536 0.05687 0.82378 0.0
C292 C 0.60867 0.03852 0.82155 0.0
C293 C 0.58546 0.04629 0.80101 0.0
C294 C 0.58882 0.07251 0.78276 0.0
C295 C 0.68108 0.14231 0.64944 0.0
C296 C 0.66848 0.11796 0.63274 0.0
C297 C 0.66793 0.15029 0.67659 0.0
C298 C 0.64154 0.13448 0.68704 0.0
C299 C 0.62829 0.11091 0.66957 0.0
C300 C 0.64187 0.10251 0.64272 0.0
C301 C 0.62965 0.14049 0.71722 0.0
C302 C 0.62622 0.11467 0.73624 0.0
C303 C 0.62404 0.17133 0.72806 0.0
C304 C 0.62505 0.19943 0.70869 0.0
C305 C 0.60737 0.20075 0.68259 0.0
C306 C 0.60865 0.22714 0.66429 0.0
C307 C 0.62741 0.25244 0.67191 0.0
C308 C 0.64487 0.25145 0.6979 0.0
C309 C 0.64368 0.22512 0.71629 0.0
H310 H 0.62838 0.27284 0.6577 0.0
H311 H 0.60602 0.01824 0.83569 0.0
H312 H 0.27434 0.04819 0.58118 0.0
H313 H 0.24187 0.09029 0.56058 0.0
H314 H 0.20091 0.02489 0.49977 0.0
H315 H 0.23372 0.98244 0.51998 0.0
H316 H 0.2166 0.07967 0.47315 0.0
H317 H 0.15997 0.04922 0.55923 0.0
H318 H 0.15351 0.03658 0.61184 0.0
H319 H 0.18069 0.13002 0.63523 0.0
H320 H 0.18773 0.14311 0.58277 0.0
H321 H 0.10185 0.19266 0.42811 0.0
H322 H 0.12689 0.1446 0.447 0.0
H323 H 0.1694 0.19798 0.51674 0.0
H324 H 0.14349 0.2458 0.49859 0.0
H325 H 0.14847 0.14524 0.53771 0.0
H326 H 0.20999 0.17437 0.45306 0.0
H327 H 0.21852 0.18748 0.40081 0.0
H328 H 0.18401 0.09731 0.37516 0.0
H329 H 0.17492 0.08382 0.42727 0.0
C330 C 0.25843 0.04263 0.56346 0.0
C331 C 0.25656 0.01187 0.55232 0.0
C332 C 0.23979 0.06674 0.55179 0.0
C333 C 0.21867 0.06055 0.529 0.0
C334 C 0.21701 0.03005 0.51747 0.0
C335 C 0.23576 0.00586 0.52906 0.0
C336 C 0.1987 0.0862 0.51706 0.0
C337 C 0.20124 0.09369 0.48711 0.0
C338 C 0.17919 0.10475 0.53548 0.0
C339 C 0.17456 0.09707 0.56706 0.0
C340 C 0.16474 0.06702 0.5756 0.0
C341 C 0.16095 0.05978 0.60539 0.0
C342 C 0.16673 0.08247 0.62686 0.0
C343 C 0.17622 0.11247 0.61857 0.0
C344 C 0.18007 0.11983 0.58881 0.0
C345 C 0.11653 0.19408 0.44748 0.0
C346 C 0.12095 0.22291 0.46182 0.0
C347 C 0.13089 0.16666 0.45818 0.0
C348 C 0.1504 0.16781 0.48301 0.0
C349 C 0.15445 0.19657 0.49754 0.0
C350 C 0.13974 0.22387 0.48711 0.0
C351 C 0.16685 0.13919 0.49388 0.0
C352 C 0.16358 0.13106 0.52365 0.0
C353 C 0.18586 0.12019 0.47532 0.0
C354 C 0.19146 0.12823 0.44402 0.0
C355 C 0.20402 0.15743 0.43626 0.0
C356 C 0.20899 0.16491 0.40667 0.0
C357 C 0.20173 0.14328 0.38467 0.0
C358 C 0.18957 0.11407 0.39222 0.0
C359 C 0.18453 0.10649 0.42177 0.0
H360 H 0.20558 0.14912 0.36178 0.0
H361 H 0.16381 0.07681 0.64992 0.0
H362 H 0.191 0.90627 0.56073 0.0
H363 H 0.14412 0.8798 0.54419 0.0
H364 H 0.19988 0.82133 0.4862 0.0
H365 H 0.24705 0.84913 0.5018 0.0
H366 H 0.14522 0.83578 0.46098 0.0
H367 H 0.1764 0.79425 0.55455 0.0
H368 H 0.19267 0.79676 0.60658 0.0
H369 H 0.10566 0.84235 0.6291 0.0
H370 H 0.08903 0.8405 0.57715 0.0
H371 H 0.01755 0.72728 0.45146 0.0
H372 H 0.06853 0.75178 0.4575 0.0
H373 H 0.02802 0.81804 0.51912 0.0
H374 H 0.97748 0.79303 0.51398 0.0
H375 H 0.07911 0.7933 0.54086 0.0
H376 H 0.04981 0.83736 0.44567 0.0
H377 H 0.03421 0.83378 0.3935 0.0
H378 H 0.11814 0.78107 0.37411 0.0
H379 H 0.13407 0.78403 0.42623 0.0
C380 C 0.19324 0.88796 0.54425 0.0
C381 C 0.2226 0.87937 0.53281 0.0
C382 C 0.16646 0.87276 0.53489 0.0
C383 C 0.1686 0.84792 0.51464 0.0
C384 C 0.19775 0.84025 0.50207 0.0
C385 C 0.22462 0.85605 0.51099 0.0
C386 C 0.14045 0.82936 0.50781 0.0
C387 C 0.13096 0.82608 0.47839 0.0
C388 C 0.12181 0.81673 0.53053 0.0
C389 C 0.13155 0.81738 0.56191 0.0
C390 C 0.16079 0.80493 0.57058 0.0
C391 C 0.17008 0.80623 0.60006 0.0
C392 C 0.15023 0.81974 0.62112 0.0
C393 C 0.12101 0.83189 0.61277 0.0
C394 C 0.11162 0.83068 0.58331 0.0
C395 C 0.0195 0.74731 0.46603 0.0
C396 C 0.99359 0.75814 0.48239 0.0
C397 C 0.04862 0.76135 0.46939 0.0
C398 C 0.0521 0.78688 0.48866 0.0
C399 C 0.02596 0.79827 0.50425 0.0
C400 C 0.99707 0.78397 0.50128 0.0
C401 C 0.08311 0.80085 0.49412 0.0
C402 C 0.09336 0.80291 0.52338 0.0
C403 C 0.10242 0.81209 0.47124 0.0
C404 C 0.09298 0.81067 0.43988 0.0
C405 C 0.06484 0.82485 0.4303 0.0
C406 C 0.05596 0.82296 0.40074 0.0
C407 C 0.07513 0.80715 0.38052 0.0
C408 C 0.1033 0.79329 0.3898 0.0
C409 C 0.11228 0.79509 0.41933 0.0
H410 H 0.0682 0.80568 0.35765 0.0
H411 H 0.15748 0.82076 0.64393 0.0
H412 H 0.75689 0.96368 0.60449 0.0
H413 H 0.78597 0.91977 0.58274 0.0
H414 H 0.79253 0.97052 0.50079 0.0
H415 H 0.76379 0.01488 0.52242 0.0
H416 H 0.76663 0.88533 0.53632 0.0
H417 H 0.85953 0.94505 0.46499 0.0
H418 H 0.89014 0.99369 0.46432 0.0
H419 H 0.88516 -0.00103 0.55859 0.0
H420 H 0.8549 0.95015 0.55985 0.0
H421 H 0.88066 0.80198 0.4261 0.0
H422 H 0.85637 0.85013 0.44566 0.0
H423 H 0.84277 0.80418 0.52929 0.0
H424 H 0.8663 0.75588 0.50974 0.0
H425 H 0.87153 0.88821 0.49007 0.0
H426 H 0.77509 0.82862 0.55972 0.0
H427 H 0.74279 0.78115 0.55819 0.0
H428 H 0.75274 0.77699 0.46423 0.0
H429 H 0.78471 0.82466 0.46513 0.0
C430 C 0.76482 0.96577 0.58196 0.0
C431 C 0.75778 0.99277 0.56514 0.0
C432 C 0.78139 0.94059 0.56956 0.0
C433 C 0.79137 0.94193 0.54021 0.0
C434 C 0.7853 0.96917 0.5236 0.0
C435 C 0.76876 0.99445 0.536 0.0
C436 C 0.80634 0.91398 0.52658 0.0
C437 C 0.78977 0.88582 0.52659 0.0
C438 C 0.83595 0.91508 0.51284 0.0
C439 C 0.85467 0.94412 0.51246 0.0
C440 C 0.86509 0.95652 0.48558 0.0
C441 C 0.88235 0.98413 0.4851 0.0
C442 C 0.88949 -0.00053 0.51139 0.0
C443 C 0.8795 0.98714 0.53823 0.0
C444 C 0.86225 0.95952 0.53884 0.0
C445 C 0.87239 0.80216 0.44863 0.0
C446 C 0.87512 0.77515 0.46635 0.0
C447 C 0.85866 0.82968 0.45978 0.0
C448 C 0.84745 0.83057 0.48878 0.0
C449 C 0.85076 0.8038 0.50667 0.0
C450 C 0.86428 0.77625 0.4955 0.0
C451 C 0.83207 0.85938 0.50042 0.0
C452 C 0.84842 0.88771 0.49985 0.0
C453 C 0.80205 0.85859 0.51337 0.0
C454 C 0.78258 0.83004 0.51256 0.0
C455 C 0.77029 0.81764 0.53872 0.0
C456 C 0.75205 0.79069 0.53797 0.0
C457 C 0.74581 0.776 0.51114 0.0
C458 C 0.7577 0.78831 0.485 0.0
C459 C 0.77592 0.81527 0.48563 0.0
H460 H 0.73169 0.75513 0.51061 0.0
H461 H 0.90282 0.02087 0.51096 0.0
H462 H 0.74615 0.1535 0.50046 0.0
H463 H 0.79244 0.18104 0.48204 0.0
H464 H 0.85195 0.11862 0.53303 0.0
H465 H 0.80611 0.09241 0.55223 0.0
H466 H 0.86446 0.17698 0.54486 0.0
H467 H 0.84596 0.11733 0.45478 0.0
H468 H 0.81445 0.10156 0.41193 0.0
H469 H 0.80783 0.19776 0.38348 0.0
H470 H 0.83901 0.21414 0.42635 0.0
H471 H 0.01746 0.20285 0.50447 0.0
H472 H 0.96634 0.17883 0.50905 0.0
H473 H 0.92583 0.25128 0.45367 0.0
H474 H 0.97744 0.27475 0.44799 0.0
H475 H 0.89923 0.19638 0.44243 0.0
H476 H 0.9201 0.25592 0.52921 0.0
H477 H 0.95075 0.27342 0.57198 0.0
H478 H 0.95085 0.17972 0.60726 0.0
H479 H 0.92054 0.16155 0.56451 0.0
C480 C 0.76924 0.14548 0.50716 0.0
C481 C 0.7728 0.12119 0.52789 0.0
C482 C 0.79562 0.16111 0.49665 0.0
C483 C 0.8257 0.15198 0.50629 0.0
C484 C 0.82902 0.12633 0.52555 0.0
C485 C 0.80286 0.11133 0.53646 0.0
C486 C 0.85379 0.17038 0.49892 0.0
C487 C 0.87218 0.18088 0.52242 0.0
C488 C 0.8631 0.17694 0.46971 0.0
C489 C 0.84452 0.16699 0.44392 0.0
C490 C 0.83759 0.13514 0.4395 0.0
C491 C 0.81983 0.12609 0.41518 0.0
C492 C 0.80907 0.14866 0.39504 0.0
C493 C 0.81614 0.18031 0.39912 0.0
C494 C 0.83387 0.18948 0.4234 0.0
C495 C 0.99771 0.21352 0.49307 0.0
C496 C 0.00131 0.24086 0.47618 0.0
C497 C 0.9685 0.19984 0.49575 0.0
C498 C 0.9421 0.21375 0.48234 0.0
C499 C 0.94584 0.24028 0.46436 0.0
C500 C 0.9753 0.25367 0.46118 0.0
C501 C 0.9106 0.20128 0.48841 0.0
C502 C 0.8914 0.19246 0.46482 0.0
C503 C 0.90026 0.19639 0.51761 0.0
C504 C 0.91819 0.20735 0.54355 0.0
C505 C 0.92679 0.23902 0.54601 0.0
C506 C 0.94409 0.24906 0.57026 0.0
C507 C 0.95278 0.22769 0.5923 0.0
C508 C 0.9441 0.19625 0.59017 0.0
C509 C 0.92682 0.18608 0.56596 0.0
H510 H 0.96619 0.2355 0.61104 0.0
H511 H 0.79531 0.1416 0.37624 0.0
H512 H 0.2656 0.49497 0.06003 0.0
H513 H 0.29303 0.54471 0.05498 0.0
H514 H 0.27651 0.54339 0.96125 0.0
H515 H 0.25012 0.49329 0.966 0.0
H516 H 0.33417 0.55943 0.97204 0.0
H517 H 0.23222 0.59021 0.01158 0.0
H518 H 0.19023 0.58876 0.04873 0.0
H519 H 0.25418 0.61967 0.11515 0.0
H520 H 0.29662 0.62096 0.07845 0.0
H521 H 0.35662 0.71182 0.92409 0.0
H522 H 0.33304 0.66251 0.93875 0.0
H523 H 0.35552 0.68155 0.0296 0.0
H524 H 0.37775 0.73217 0.01498 0.0
H525 H 0.30047 0.65533 0.02637 0.0
H526 H 0.40107 0.62968 0.98668 0.0
H527 H 0.44367 0.63124 0.95019 0.0
H528 H 0.38398 0.58996 0.88533 0.0
H529 H 0.34089 0.58852 0.92131 0.0
C530 C 0.26782 0.50533 0.03836 0.0
C531 C 0.25565 0.49026 0.01341 0.0
C532 C 0.28339 0.5338 0.03553 0.0
C533 C 0.28647 0.54801 0.00778 0.0
C534 C 0.27447 0.53285 0.98288 0.0
C535 C 0.25935 0.50422 0.98562 0.0
C536 C 0.30229 0.57855 0.00431 0.0
C537 C 0.32663 0.58045 0.98376 0.0
C538 C 0.2933 0.60571 0.02045 0.0
C539 C 0.26763 0.6054 0.04234 0.0
C540 C 0.23734 0.59655 0.03414 0.0
C541 C 0.21346 0.59578 0.05511 0.0
C542 C 0.21955 0.60405 0.08429 0.0
C543 C 0.2495 0.61324 0.09255 0.0
C544 C 0.27346 0.61403 0.07167 0.0
C545 C 0.3564 0.70556 0.94722 0.0
C546 C 0.36928 0.72551 0.96841 0.0
C547 C 0.34309 0.6773 0.95557 0.0
C548 C 0.3434 0.66782 0.98517 0.0
C549 C 0.35531 0.68825 0.00659 0.0
C550 C 0.368 0.71707 0.99826 0.0
C551 C 0.33159 0.63639 0.99332 0.0
C552 C 0.30822 0.63426 0.01486 0.0
C553 C 0.3416 0.60888 0.97823 0.0
C554 C 0.36771 0.60909 0.95669 0.0
C555 C 0.397 0.62101 0.96461 0.0
C556 C 0.42124 0.62188 0.94402 0.0
C557 C 0.41654 0.6107 0.91547 0.0
C558 C 0.38761 0.59857 0.90747 0.0
C559 C 0.36329 0.59766 0.92797 0.0
H560 H 0.43532 0.61144 0.89955 0.0
H561 H 0.20105 0.6034 0.1005 0.0
H562 H 0.74635 0.64932 0.00496 0.0
H563 H 0.69952 0.67415 0.98307 0.0
H564 H 0.64158 0.62491 0.04492 0.0
H565 H 0.68798 0.60054 0.06704 0.0
H566 H 0.61855 0.6243 0.9864 0.0
H567 H 0.65833 0.69667 0.05959 0.0
H568 H 0.69834 0.73032 0.08179 0.0
H569 H 0.70364 0.7838 0.00178 0.0
H570 H 0.66394 0.75011 0.97896 0.0
H571 H 0.47864 0.70635 0.01524 0.0
H572 H 0.53003 0.68058 0.01612 0.0
H573 H 0.56264 0.74466 0.9497 0.0
H574 H 0.51105 0.77059 0.9485 0.0
H575 H 0.60214 0.73933 0.99892 0.0
H576 H 0.55353 0.67288 0.92973 0.0
H577 H 0.51154 0.64033 0.90951 0.0
H578 H 0.52165 0.57607 0.98194 0.0
H579 H 0.56332 0.60855 0.00296 0.0
C580 C 0.72358 0.64376 0.01375 0.0
C581 C 0.72075 0.62327 0.03784 0.0
C582 C 0.69694 0.65788 0.00123 0.0
C583 C 0.66718 0.65129 0.01242 0.0
C584 C 0.66435 0.63015 0.03591 0.0
C585 C 0.69089 0.61646 0.04866 0.0
C586 C 0.63887 0.66755 0.00104 0.0
C587 C 0.6149 0.64945 0.98904 0.0
C588 C 0.6346 0.70046 0.0038 0.0
C589 C 0.65855 0.72059 0.01743 0.0
C590 C 0.66829 0.71538 0.04662 0.0
C591 C 0.69084 0.7345 0.05934 0.0
C592 C 0.70362 0.7591 0.04316 0.0
C593 C 0.6938 0.76467 0.01425 0.0
C594 C 0.67127 0.74557 0.00141 0.0
C595 C 0.49665 0.71487 0.00068 0.0
C596 C 0.49084 0.74056 0.98188 0.0
C597 C 0.52593 0.70001 0.00108 0.0
C598 C 0.54998 0.71063 0.98282 0.0
C599 C 0.54427 0.7361 0.96384 0.0
C600 C 0.5148 0.75077 0.96315 0.0
C601 C 0.58145 0.69596 0.98503 0.0
C602 C 0.60602 0.71433 0.99541 0.0
C603 C 0.58622 0.66329 0.98078 0.0
C604 C 0.56148 0.64331 0.96803 0.0
C605 C 0.54667 0.65193 0.94148 0.0
C606 C 0.52293 0.63348 0.92986 0.0
C607 C 0.51391 0.60617 0.94445 0.0
C608 C 0.52867 0.59723 0.97066 0.0
C609 C 0.55239 0.61565 0.98243 0.0
H610 H 0.4955 0.59193 0.93542 0.0
H611 H 0.72106 0.7739 0.05306 0.0
H612 H 0.75258 0.49964 0.97163 0.0
H613 H 0.72863 0.4485 0.9653 0.0
H614 H 0.70296 0.44772 0.05716 0.0
H615 H 0.72817 0.4985 0.06393 0.0
H616 H 0.72357 0.39167 0.04159 0.0
H617 H 0.64856 0.46503 0.0014 0.0
H618 H 0.63055 0.50915 0.97007 0.0
H619 H 0.65823 0.45784 0.89273 0.0
H620 H 0.67677 0.41358 0.9236 0.0
H621 H 0.6221 0.26006 0.0144 0.0
H622 H 0.64556 0.30959 0.03032 0.0
H623 H 0.67535 0.32708 0.94106 0.0
H624 H 0.65052 0.2789 0.92508 0.0
H625 H 0.64755 0.37626 0.96069 0.0
H626 H 0.72641 0.30457 0.00129 0.0
H627 H 0.74491 0.26078 0.03279 0.0
H628 H 0.70968 0.30877 0.10933 0.0
H629 H 0.69067 0.35268 0.07823 0.0
C630 C 0.74169 0.48868 0.99046 0.0
C631 C 0.74199 0.5032 0.01821 0.0
C632 C 0.72793 0.45946 0.98681 0.0
C633 C 0.7134 0.44455 0.01063 0.0
C634 C 0.71392 0.45885 0.03846 0.0
C635 C 0.72823 0.48788 0.04226 0.0
C636 C 0.69781 0.41401 0.00631 0.0
C637 C 0.7066 0.38836 0.02416 0.0
C638 C 0.67583 0.40963 0.98347 0.0
C639 C 0.66419 0.43605 0.96484 0.0
C640 C 0.65091 0.46321 0.97772 0.0
C641 C 0.64061 0.48824 0.96004 0.0
C642 C 0.64328 0.48631 0.92943 0.0
C643 C 0.65617 0.4593 0.91644 0.0
C644 C 0.66653 0.43422 0.93401 0.0
C645 C 0.63411 0.27437 0.99841 0.0
C646 C 0.63445 0.26595 0.96855 0.0
C647 C 0.64756 0.30258 0.00749 0.0
C648 C 0.66228 0.32213 0.98688 0.0
C649 C 0.66388 0.31265 0.95732 0.0
C650 C 0.64981 0.28506 0.94821 0.0
C651 C 0.67427 0.35349 0.99512 0.0
C652 C 0.66446 0.37949 0.97819 0.0
C653 C 0.69527 0.35808 0.01876 0.0
C654 C 0.70684 0.33173 0.0374 0.0
C655 C 0.72242 0.30567 0.02481 0.0
C656 C 0.73303 0.28085 0.0426 0.0
C657 C 0.72839 0.28195 0.07303 0.0
C658 C 0.71322 0.30792 0.08575 0.0
C659 C 0.70255 0.33279 0.06806 0.0
H660 H 0.73661 0.26271 0.08676 0.0
H661 H 0.63533 0.50573 0.91579 0.0
H662 H 0.51033 0.25187 0.03814 0.0
H663 H 0.4593 0.27772 0.04286 0.0
H664 H 0.45429 0.28866 0.9485 0.0
H665 H 0.50491 0.26173 0.94352 0.0
H666 H 0.43781 0.33283 0.03123 0.0
H667 H 0.37885 0.28561 0.92569 0.0
H668 H 0.38195 0.23919 0.89318 0.0
H669 H 0.4176 0.18309 0.96472 0.0
H670 H 0.41432 0.22905 0.99773 0.0
H671 H 0.29584 0.41484 0.02163 0.0
H672 H 0.34527 0.39104 0.00502 0.0
H673 H 0.30819 0.29862 0.02036 0.0
H674 H 0.25809 0.32261 0.03525 0.0
H675 H 0.34566 0.29562 0.97567 0.0
H676 H 0.3522 0.33835 0.07333 0.0
H677 H 0.3475 0.3797 0.1112 0.0
H678 H 0.41457 0.43528 0.06512 0.0
H679 H 0.41936 0.3944 0.02677 0.0
C680 C 0.49844 0.25988 0.01838 0.0
C681 C 0.51157 0.25458 0.99044 0.0
C682 C 0.46926 0.27468 0.02111 0.0
C683 C 0.45274 0.28476 0.99602 0.0
C684 C 0.46627 0.28046 0.96813 0.0
C685 C 0.49527 0.2652 0.96534 0.0
C686 C 0.42132 0.29959 0.99924 0.0
C687 C 0.41771 0.32473 0.01898 0.0
C688 C 0.39494 0.28875 0.98363 0.0
C689 C 0.39666 0.26087 0.96406 0.0
C690 C 0.38725 0.26334 0.93449 0.0
C691 C 0.38906 0.23711 0.91598 0.0
C692 C 0.40007 0.20824 0.92685 0.0
C693 C 0.40919 0.2055 0.95629 0.0
C694 C 0.40739 0.23163 0.9749 0.0
C695 C 0.29814 0.38945 0.02063 0.0
C696 C 0.27354 0.37036 0.02957 0.0
C697 C 0.32636 0.37587 0.0114 0.0
C698 C 0.33072 0.34305 0.01217 0.0
C699 C 0.30541 0.32397 0.01964 0.0
C700 C 0.27689 0.33759 0.02818 0.0
C701 C 0.36222 0.32878 0.00769 0.0
C702 C 0.36585 0.30385 0.9877 0.0
C703 C 0.38847 0.33902 0.02387 0.0
C704 C 0.3859 0.36347 0.04706 0.0
C705 C 0.36581 0.35947 0.07121 0.0
C706 C 0.36315 0.38281 0.09275 0.0
C707 C 0.38067 0.41013 0.09053 0.0
C708 C 0.40098 0.41412 0.06679 0.0
C709 C 0.4037 0.39087 0.04516 0.0
H710 H 0.37856 0.42818 0.10722 0.0
H711 H 0.40148 0.18798 0.91248 0.0
H712 H 0.94189 0.62201 0.5391 0.0
H713 H 0.96347 0.56873 0.5457 0.0
H714 H 0.96026 0.55412 0.4518 0.0
H715 H 0.93862 0.60694 0.44497 0.0
H716 H 0.9404 0.50294 0.48241 0.0
H717 H 0.02686 0.57538 0.48434 0.0
H718 H 0.05587 0.62059 0.50356 0.0
H719 H 0.06194 0.57645 0.58847 0.0
H720 H 0.03255 0.53115 0.56981 0.0
H721 H 0.04924 0.38927 0.44165 0.0
H722 H 0.02453 0.44042 0.44996 0.0
H723 H 0.03511 0.42855 0.54373 0.0
H724 H 0.06008 0.37697 0.53574 0.0
H725 H 0.04775 0.49055 0.52278 0.0
H726 H 0.96743 0.41422 0.51781 0.0
H727 H 0.94006 0.36879 0.49699 0.0
H728 H 0.92294 0.42015 0.41701 0.0
H729 H 0.95067 0.46574 0.43717 0.0
C730 C 0.94543 0.6073 0.5199 0.0
C731 C 0.93878 0.6188 0.49148 0.0
C732 C 0.95786 0.57696 0.52372 0.0
C733 C 0.96371 0.5577 0.4992 0.0
C734 C 0.95594 0.56867 0.47099 0.0
C735 C 0.94371 0.59894 0.46713 0.0
C736 C 0.97915 0.52654 0.50238 0.0
C737 C 0.96385 0.50021 0.49123 0.0
C738 C 0.00943 0.52295 0.51463 0.0
C739 C 0.02717 0.5501 0.5258 0.0
C740 C 0.03414 0.57545 0.50717 0.0
C741 C 0.05069 0.60106 0.51795 0.0
C742 C 0.06065 0.60144 0.54725 0.0
C743 C 0.05415 0.57616 0.5658 0.0
C744 C 0.03755 0.55051 0.55514 0.0
C745 C 0.04667 0.39751 0.46409 0.0
C746 C 0.05628 0.37876 0.48806 0.0
C747 C 0.03249 0.42677 0.46876 0.0
C748 C 0.02752 0.43786 0.49745 0.0
C749 C 0.03861 0.42017 0.52144 0.0
C750 C 0.05282 0.39074 0.51679 0.0
C751 C 0.00931 0.46725 0.50198 0.0
C752 C 0.02403 0.49316 0.51458 0.0
C753 C 0.97849 0.47053 0.49102 0.0
C754 C 0.9613 0.44335 0.47896 0.0
C755 C 0.95799 0.41577 0.49571 0.0
C756 C 0.9424 0.38999 0.48403 0.0
C757 C 0.92981 0.39157 0.45568 0.0
C758 C 0.93271 0.41897 0.43898 0.0
C759 C 0.94833 0.4448 0.45053 0.0
H760 H 0.91776 0.37157 0.44667 0.0
H761 H 0.07347 0.62129 0.55555 0.0
H762 H 0.6146 0.07546 0.52507 0.0
H763 H 0.56618 0.05785 0.50124 0.0
H764 H 0.56984 0.97269 0.55291 0.0
H765 H 0.61739 0.98994 0.57656 0.0
H766 H 0.55124 0.96127 0.49605 0.0
H767 H 0.5287 0.03493 0.57693 0.0
H768 H 0.53109 0.08681 0.60103 0.0
H769 H 0.48809 0.13013 0.52542 0.0
H770 H 0.48583 0.07846 0.50074 0.0
H771 H 0.41944 0.91557 0.57343 0.0
H772 H 0.46807 0.93247 0.5505 0.0
H773 H 0.41527 0.98646 0.48662 0.0
H774 H 0.36639 0.9684 0.5089 0.0
H775 H 0.45609 0.02103 0.5263 0.0
H776 H 0.46145 0.93922 0.45689 0.0
H777 H 0.45788 0.88527 0.43757 0.0
H778 H 0.53213 0.85492 0.49508 0.0
H779 H 0.53585 0.90856 0.51512 0.0
C780 C 0.60516 0.05285 0.53097 0.0
C781 C 0.61944 0.03431 0.553 0.0
C782 C 0.57764 0.0428 0.51733 0.0
C783 C 0.56449 0.01394 0.52532 0.0
C784 C 0.57967 0.99491 0.54625 0.0
C785 C 0.60668 0.00502 0.56003 0.0
C786 C 0.53329 0.00437 0.51488 0.0
C787 C 0.53033 0.97445 0.5022 0.0
C788 C 0.50608 0.02202 0.52212 0.0
C789 C 0.50756 0.05301 0.53683 0.0
C790 C 0.52003 0.05558 0.56536 0.0
C791 C 0.52131 0.08491 0.57913 0.0
C792 C 0.50988 0.11177 0.56471 0.0
C793 C 0.49705 0.10932 0.53651 0.0
C794 C 0.49578 0.08004 0.52261 0.0
C795 C 0.4183 0.92982 0.55366 0.0
C796 C 0.38943 0.94052 0.54269 0.0
C797 C 0.44599 0.93948 0.54057 0.0
C798 C 0.44518 0.96064 0.51684 0.0
C799 C 0.4163 0.96986 0.5047 0.0
C800 C 0.3885 0.95944 0.51733 0.0
C801 C 0.47413 0.97717 0.50907 0.0
C802 C 0.47674 0.00841 0.51854 0.0
C803 C 0.50099 0.96048 0.49936 0.0
C804 C 0.49889 0.92801 0.48755 0.0
C805 C 0.47688 0.92101 0.4656 0.0
C806 C 0.47485 0.89047 0.45448 0.0
C807 C 0.49476 0.86668 0.46509 0.0
C808 C 0.51675 0.87339 0.48685 0.0
C809 C 0.51887 0.9039 0.49805 0.0
H810 H 0.49316 0.84306 0.45645 0.0
H811 H 0.51085 0.13446 0.57542 0.0
H812 H 0.58513 0.10094 0.02654 0.0
H813 H 0.56016 0.04968 0.03179 0.0
H814 H 0.50356 0.06933 0.9552 0.0
H815 H 0.52858 0.12006 0.94944 0.0
H816 H 0.4695 0.0478 0.00493 0.0
H817 H 0.55892 0.02104 0.94609 0.0
H818 H 0.61485 0.01827 0.93332 0.0
H819 H 0.63386 0.96466 0.01164 0.0
H820 H 0.57802 0.96754 0.02512 0.0
H821 H 0.41925 0.89761 0.95429 0.0
H822 H 0.4434 0.94911 0.95942 0.0
H823 H 0.48428 0.92014 0.04206 0.0
H824 H 0.45943 0.86875 0.03753 0.0
H825 H 0.52688 0.94596 0.99498 0.0
H826 H 0.43447 0.96955 0.05071 0.0
H827 H 0.37783 0.97175 0.06045 0.0
H828 H 0.36385 0.03096 0.98481 0.0
H829 H 0.42041 0.02869 0.97434 0.0
C830 C 0.56749 0.09424 0.01075 0.0
C831 C 0.5589 0.11453 0.98754 0.0
C832 C 0.55329 0.065 0.01377 0.0
C833 C 0.53 0.05588 0.99391 0.0
C834 C 0.52142 0.07605 0.97078 0.0
C835 C 0.53592 0.10494 0.96745 0.0
C836 C 0.51426 0.02539 0.9972 0.0
C837 C 0.48199 0.02552 0.00265 0.0
C838 C 0.53075 0.99643 0.99469 0.0
C839 C 0.56437 0.99493 0.98685 0.0
C840 C 0.57508 0.00901 0.96079 0.0
C841 C 0.60675 0.00733 0.95337 0.0
C842 C 0.62792 0.99141 0.97172 0.0
C843 C 0.61744 0.97707 0.99749 0.0
C844 C 0.58578 0.97871 0.00504 0.0
C845 C 0.43298 0.90239 0.97377 0.0
C846 C 0.43741 0.87925 0.99555 0.0
C847 C 0.44673 0.93175 0.97666 0.0
C848 C 0.46559 0.93825 0.00108 0.0
C849 C 0.46972 0.91545 0.0231 0.0
C850 C 0.45538 0.88626 0.02056 0.0
C851 C 0.48213 0.96841 0.0026 0.0
C852 C 0.51451 0.96824 0.99783 0.0
C853 C 0.4657 0.99733 0.00545 0.0
C854 C 0.43165 -0.00133 0.01156 0.0
C855 C 0.41929 0.98275 0.03596 0.0
C856 C 0.3872 0.98408 0.04166 0.0
C857 C 0.36724 0.00141 0.02321 0.0
C858 C 0.37934 0.0175 0.99906 0.0
C859 C 0.41142 0.01623 0.99324 0.0
H860 H 0.34241 0.00243 0.02768 0.0
H861 H 0.65243 0.9901 0.96592 0.0
H862 H 0.11103 0.43104 0.97356 0.0
H863 H 0.05937 0.45656 0.97135 0.0
H864 H 0.06422 0.47664 0.06424 0.0
H865 H 0.11567 0.45145 0.06679 0.0
H866 H 0.00365 0.44538 0.0009 0.0
H867 H 0.03442 0.55037 0.07522 0.0
H868 H 0.08085 0.58023 0.0898 0.0
H869 H 0.12486 0.55772 0.00739 0.0
H870 H 0.07851 0.52812 0.99213 0.0
H871 H 0.87342 0.52529 0.06336 0.0
H872 H 0.9259 0.50265 0.05811 0.0
H873 H 0.94315 0.56375 0.98435 0.0
H874 H 0.8902 0.58631 0.989 0.0
H875 H 0.99343 0.55724 0.03133 0.0
H876 H 0.92953 0.4982 0.96438 0.0
H877 H 0.88298 0.468 0.9509 0.0
H878 H 0.90575 0.39922 0.01711 0.0
H879 H 0.9522 0.4293 0.0313 0.0
C880 C 0.10101 0.44064 0.99358 0.0
C881 C 0.11769 0.43944 0.02028 0.0
C882 C 0.0715 0.45518 0.99225 0.0
C883 C 0.05832 0.46891 0.01752 0.0
C884 C 0.0743 0.46666 0.0444 0.0
C885 C 0.10369 0.45212 0.04578 0.0
C886 C 0.02814 0.48623 0.01584 0.0
C887 C 0.00145 0.46988 0.00735 0.0
C888 C 0.02541 0.51828 0.02409 0.0
C889 C 0.05305 0.53684 0.03263 0.0
C890 C 0.05391 0.55198 0.06012 0.0
C891 C 0.08023 0.56882 0.06852 0.0
C892 C 0.10581 0.57081 0.04956 0.0
C893 C 0.10506 0.55609 0.02209 0.0
C894 C 0.07878 0.53925 0.01356 0.0
C895 C 0.8884 0.53418 0.04615 0.0
C896 C 0.87761 0.55753 0.02649 0.0
C897 C 0.91832 0.52114 0.04317 0.0
C898 C 0.93813 0.53148 0.02078 0.0
C899 C 0.92801 0.55553 0.00174 0.0
C900 C 0.8978 0.56827 0.00437 0.0
C901 C 0.96903 0.5162 0.01687 0.0
C902 C 0.99578 0.53288 0.0245 0.0
C903 C 0.97186 0.4845 0.00778 0.0
C904 C 0.94419 0.46614 0.99905 0.0
C905 C 0.92447 0.47677 0.97622 0.0
C906 C 0.89813 0.45965 0.96843 0.0
C907 C 0.89137 0.43175 0.98318 0.0
C908 C 0.911 0.42085 0.00571 0.0
C909 C 0.93736 0.43791 0.01362 0.0
H910 H 0.87096 0.41853 0.97712 0.0
H911 H 0.1262 0.58379 0.05614 0.0
loop_
_geom_bond_atom_site_label_1
_geom_bond_atom_site_label_2
_geom_bond_distance
_geom_bond_site_symmetry_2
_ccdc_geom_bond_type
Co0 O1 2.216 . S
Co0 O2 2.091 . S
Co0 O4 2.004 . S
Co0 O10 2.021 . S
Co0 O12 2.137 . S
Co0 O13 2.244 . S
O1 Co0 2.216 . S
O1 C8 1.247 . S
O2 Co0 2.091 . S
O2 C8 1.261 . S
C3 O12 1.247 . S
C3 O13 1.272 . S
O4 Co0 2.004 . S
O4 C9 1.259 . S
Co5 O6 2.061 . S
Co5 O11 2.052 . S
Co5 O13 2.135 . S
O6 Co5 2.061 . S
O6 C9 1.235 . S
C7 O10 1.238 . S
C7 O11 1.241 . S
C8 O1 1.247 . S
C8 O2 1.261 . S
C9 O4 1.259 . S
C9 O6 1.235 . S
O10 Co0 2.021 . S
O10 C7 1.238 . S
O11 Co5 2.052 . S
O11 C7 1.241 . S
O12 Co0 2.137 . S
O12 C3 1.247 . S
O13 Co0 2.244 . S
O13 C3 1.272 . S
O13 Co5 2.135 . S
Co14 O15 2.216 . S
Co14 O16 2.091 . S
Co14 O18 2.004 . S
Co14 O24 2.021 . S
Co14 O26 2.137 . S
Co14 O27 2.244 . S
O15 Co14 2.216 . S
O15 C22 1.247 . S
O16 Co14 2.091 . S
O16 C22 1.261 . S
C17 O26 1.247 . S
C17 O27 1.272 . S
O18 Co14 2.004 . S
O18 C23 1.259 . S
Co19 O20 2.061 . S
Co19 O25 2.052 . S
Co19 O27 2.135 . S
O20 Co19 2.061 . S
O20 C23 1.235 . S
C21 O24 1.238 . S
C21 O25 1.241 . S
C22 O15 1.247 . S
C22 O16 1.261 . S
C23 O18 1.259 . S
C23 O20 1.235 . S
O24 Co14 2.021 . S
O24 C21 1.238 . S
O25 Co19 2.052 . S
O25 C21 1.241 . S
O26 Co14 2.137 . S
O26 C17 1.247 . S
O27 Co14 2.244 . S
O27 C17 1.272 . S
O27 Co19 2.135 . S
Co28 O29 2.216 . S
Co28 O30 2.091 . S
Co28 O32 2.004 . S
Co28 O38 2.021 . S
Co28 O40 2.137 . S
Co28 O41 2.244 . S
O29 Co28 2.216 . S
O29 C36 1.247 . S
O30 Co28 2.091 . S
O30 C36 1.261 . S
C31 O40 1.247 . S
C31 O41 1.272 . S
O32 Co28 2.004 . S
O32 C37 1.259 . S
Co33 O34 2.061 . S
Co33 O39 2.052 . S
Co33 O41 2.135 . S
O34 Co33 2.061 . S
O34 C37 1.235 . S
C35 O38 1.238 . S
C35 O39 1.241 . S
C36 O29 1.247 . S
C36 O30 1.261 . S
C37 O32 1.259 . S
C37 O34 1.235 . S
O38 Co28 2.021 . S
O38 C35 1.238 . S
O39 Co33 2.052 . S
O39 C35 1.241 . S
O40 Co28 2.137 . S
O40 C31 1.247 . S
O41 Co28 2.244 . S
O41 C31 1.272 . S
O41 Co33 2.135 . S
Co42 O43 2.216 . S
Co42 O44 2.091 . S
Co42 O46 2.004 . S
Co42 O52 2.021 . S
Co42 O54 2.137 . S
Co42 O55 2.244 . S
O43 Co42 2.216 . S
O43 C50 1.247 . S
O44 Co42 2.091 . S
O44 C50 1.261 . S
C45 O54 1.247 . S
C45 O55 1.272 . S
O46 Co42 2.004 . S
O46 C51 1.259 . S
Co47 O48 2.061 . S
Co47 O53 2.052 . S
Co47 O55 2.135 . S
O48 Co47 2.061 . S
O48 C51 1.235 . S
C49 O52 1.238 . S
C49 O53 1.241 . S
C50 O43 1.247 . S
C50 O44 1.261 . S
C51 O46 1.259 . S
C51 O48 1.235 . S
O52 Co42 2.021 . S
O52 C49 1.238 . S
O53 Co47 2.052 . S
O53 C49 1.241 . S
O54 Co42 2.137 . S
O54 C45 1.247 . S
O55 Co42 2.244 . S
O55 C45 1.272 . S
O55 Co47 2.135 . S
Co56 O57 2.216 . S
Co56 O58 2.091 . S
Co56 O60 2.004 . S
Co56 O66 2.021 . S
Co56 O68 2.137 . S
Co56 O69 2.244 . S
O57 Co56 2.216 . S
O57 C64 1.247 . S
O58 Co56 2.091 . S
O58 C64 1.261 . S
C59 O68 1.247 . S
C59 O69 1.272 . S
O60 Co56 2.004 . S
O60 C65 1.259 . S
Co61 O62 2.061 . S
Co61 O67 2.052 . S
Co61 O69 2.135 1_554 S
O62 Co61 2.061 . S
O62 C65 1.235 1_554 S
C63 O66 1.238 . S
C63 O67 1.241 1_556 S
C64 O57 1.247 . S
C64 O58 1.261 . S
C65 O60 1.259 . S
C65 O62 1.235 1_556 S
O66 Co56 2.021 . S
O66 C63 1.238 . S
O67 Co61 2.052 . S
O67 C63 1.241 1_554 S
O68 Co56 2.137 . S
O68 C59 1.247 . S
O69 Co56 2.244 . S
O69 C59 1.272 . S
O69 Co61 2.135 1_556 S
Co70 O71 2.216 . S
Co70 O72 2.091 . S
Co70 O74 2.004 . S
Co70 O80 2.021 . S
Co70 O82 2.137 . S
Co70 O83 2.244 . S
O71 Co70 2.216 . S
O71 C78 1.247 . S
O72 Co70 2.091 . S
O72 C78 1.261 . S
C73 O82 1.247 . S
C73 O83 1.272 . S
O74 Co70 2.004 . S
O74 C79 1.259 . S
Co75 O76 2.061 1_556 S
Co75 O81 2.052 1_556 S
Co75 O83 2.135 1_556 S
O76 Co75 2.061 1_554 S
O76 C79 1.235 . S
C77 O80 1.238 . S
C77 O81 1.241 . S
C78 O71 1.247 . S
C78 O72 1.261 . S
C79 O74 1.259 . S
C79 O76 1.235 . S
O80 Co70 2.021 . S
O80 C77 1.238 . S
O81 Co75 2.052 1_554 S
O81 C77 1.241 . S
O82 Co70 2.137 . S
O82 C73 1.247 . S
O83 Co70 2.244 . S
O83 C73 1.272 . S
O83 Co75 2.135 1_554 S
Co84 O85 2.216 . S
Co84 O86 2.091 . S
Co84 O88 2.004 . S
Co84 O94 2.021 . S
Co84 O96 2.137 . S
Co84 O97 2.244 . S
O85 Co84 2.216 . S
O85 C92 1.247 . S
O86 Co84 2.091 . S
O86 C92 1.261 . S
C87 O96 1.247 . S
C87 O97 1.272 . S
O88 Co84 2.004 . S
O88 C93 1.259 . S
Co89 O90 2.061 . S
Co89 O95 2.052 . S
Co89 O97 2.135 1_554 S
O90 Co89 2.061 . S
O90 C93 1.235 1_554 S
C91 O94 1.238 . S
C91 O95 1.241 1_556 S
C92 O85 1.247 . S
C92 O86 1.261 . S
C93 O88 1.259 . S
C93 O90 1.235 1_556 S
O94 Co84 2.021 . S
O94 C91 1.238 . S
O95 Co89 2.052 . S
O95 C91 1.241 1_554 S
O96 Co84 2.137 . S
O96 C87 1.247 . S
O97 Co84 2.244 . S
O97 C87 1.272 . S
O97 Co89 2.135 1_556 S
Co98 O99 2.216 . S
Co98 O100 2.091 . S
Co98 O102 2.004 . S
Co98 O108 2.021 . S
Co98 O110 2.137 . S
Co98 O111 2.244 . S
O99 Co98 2.216 . S
O99 C106 1.247 . S
O100 Co98 2.091 . S
O100 C106 1.261 . S
C101 O110 1.247 . S
C101 O111 1.272 . S
O102 Co98 2.004 . S
O102 C107 1.259 . S
Co103 O104 2.061 1_556 S
Co103 O109 2.052 1_556 S
Co103 O111 2.135 1_556 S
O104 Co103 2.061 1_554 S
O104 C107 1.235 . S
C105 O108 1.238 . S
C105 O109 1.241 . S
C106 O99 1.247 . S
C106 O100 1.261 . S
C107 O102 1.259 . S
C107 O104 1.235 . S
O108 Co98 2.021 . S
O108 C105 1.238 . S
O109 Co103 2.052 1_554 S
O109 C105 1.241 . S
O110 Co98 2.137 . S
O110 C101 1.247 . S
O111 Co98 2.244 . S
O111 C101 1.272 . S
O111 Co103 2.135 1_554 S
H112 C130 0.951 . S
H113 C132 0.951 . S
H114 C134 0.950 . S
H115 C135 0.950 . S
H116 C137 0.950 . S
H117 C140 0.950 . S
H118 C141 0.950 . S
H119 C143 0.950 . S
H120 C144 0.950 . S
H121 C145 0.951 . S
H122 C147 0.951 . S
H123 C149 0.950 . S
H124 C150 0.950 . S
H125 C152 0.950 . S
H126 C155 0.950 . S
H127 C156 0.950 . S
H128 C158 0.950 . S
H129 C159 0.950 . S
C130 H112 0.951 . S
C130 C131 1.366 . S
C130 C132 1.388 . S
C131 C130 1.366 . S
C131 C135 1.385 . S
C132 H113 0.951 . S
C132 C130 1.388 . S
C132 C133 1.366 . S
C133 C132 1.366 . S
C133 C134 1.414 . S
C133 C136 1.499 . S
C134 H114 0.950 . S
C134 C133 1.414 . S
C134 C135 1.374 . S
C135 H115 0.950 . S
C135 C131 1.385 . S
C135 C134 1.374 . S
C136 C133 1.499 . S
C136 C137 1.373 . S
C136 C138 1.389 . S
C137 H116 0.950 . S
C137 C136 1.373 . S
C137 C153 1.377 . S
C138 C136 1.389 . S
C138 C139 1.524 . S
C138 C152 1.377 . S
C139 C138 1.524 . S
C139 C140 1.397 . S
C139 C144 1.363 . S
C140 H117 0.950 . S
C140 C139 1.397 . S
C140 C141 1.334 . S
C141 H118 0.950 . S
C141 C140 1.334 . S
C141 C142 1.287 . S
C142 C141 1.287 . S
C142 C143 1.524 . S
C142 H161 0.913 . S
C143 H119 0.950 . S
C143 C142 1.524 . S
C143 C144 1.415 . S
C144 H120 0.950 . S
C144 C139 1.363 . S
C144 C143 1.415 . S
C145 H121 0.951 . S
C145 C146 1.366 . S
C145 C147 1.388 . S
C146 C145 1.366 . S
C146 C150 1.385 . S
C147 H122 0.951 . S
C147 C145 1.388 . S
C147 C148 1.366 . S
C148 C147 1.366 . S
C148 C149 1.414 . S
C148 C151 1.499 . S
C149 H123 0.950 . S
C149 C148 1.414 . S
C149 C150 1.374 . S
C150 H124 0.950 . S
C150 C146 1.385 . S
C150 C149 1.374 . S
C151 C148 1.499 . S
C151 C152 1.373 . S
C151 C153 1.389 . S
C152 H125 0.950 . S
C152 C138 1.377 . S
C152 C151 1.373 . S
C153 C137 1.377 . S
C153 C151 1.389 . S
C153 C154 1.524 . S
C154 C153 1.524 . S
C154 C155 1.397 . S
C154 C159 1.363 . S
C155 H126 0.950 . S
C155 C154 1.397 . S
C155 C156 1.334 . S
C156 H127 0.950 . S
C156 C155 1.334 . S
C156 C157 1.287 . S
C157 C156 1.287 . S
C157 C158 1.524 . S
C157 H160 0.999 . S
C158 H128 0.950 . S
C158 C157 1.524 . S
C158 C159 1.415 . S
C159 H129 0.950 . S
C159 C154 1.363 . S
C159 C158 1.415 . S
H160 C157 0.999 . S
H161 C142 0.913 . S
H162 C180 0.951 . S
H163 C182 0.951 . S
H164 C184 0.950 . S
H165 C185 0.950 . S
H166 C187 0.950 . S
H167 C190 0.950 . S
H168 C191 0.950 . S
H169 C193 0.950 . S
H170 C194 0.950 . S
H171 C195 0.951 . S
H172 C197 0.951 . S
H173 C199 0.950 . S
H174 C200 0.950 . S
H175 C202 0.950 . S
H176 C205 0.950 . S
H177 C206 0.950 . S
H178 C208 0.950 . S
H179 C209 0.950 . S
C180 H162 0.951 . S
C180 C181 1.366 . S
C180 C182 1.388 . S
C181 C180 1.366 . S
C181 C185 1.385 . S
C182 H163 0.951 . S
C182 C180 1.388 . S
C182 C183 1.366 . S
C183 C182 1.366 . S
C183 C184 1.414 . S
C183 C186 1.499 . S
C184 H164 0.950 . S
C184 C183 1.414 . S
C184 C185 1.374 . S
C185 H165 0.950 . S
C185 C181 1.385 . S
C185 C184 1.374 . S
C186 C183 1.499 . S
C186 C187 1.373 . S
C186 C188 1.389 . S
C187 H166 0.950 . S
C187 C186 1.373 . S
C187 C203 1.377 . S
C188 C186 1.389 . S
C188 C189 1.524 . S
C188 C202 1.377 . S
C189 C188 1.524 . S
C189 C190 1.397 . S
C189 C194 1.363 . S
C190 H167 0.950 . S
C190 C189 1.397 . S
C190 C191 1.334 . S
C191 H168 0.950 . S
C191 C190 1.334 . S
C191 C192 1.287 . S
C192 C191 1.287 . S
C192 C193 1.524 . S
C192 H211 0.913 . S
C193 H169 0.950 . S
C193 C192 1.524 . S
C193 C194 1.415 . S
C194 H170 0.950 . S
C194 C189 1.363 . S
C194 C193 1.415 . S
C195 H171 0.951 . S
C195 C196 1.366 . S
C195 C197 1.388 . S
C196 C195 1.366 . S
C196 C200 1.385 . S
C197 H172 0.951 . S
C197 C195 1.388 . S
C197 C198 1.366 . S
C198 C197 1.366 . S
C198 C199 1.414 . S
C198 C201 1.499 . S
C199 H173 0.950 . S
C199 C198 1.414 . S
C199 C200 1.374 . S
C200 H174 0.950 . S
C200 C196 1.385 . S
C200 C199 1.374 . S
C201 C198 1.499 . S
C201 C202 1.373 . S
C201 C203 1.389 . S
C202 H175 0.950 . S
C202 C188 1.377 . S
C202 C201 1.373 . S
C203 C187 1.377 . S
C203 C201 1.389 . S
C203 C204 1.524 . S
C204 C203 1.524 . S
C204 C205 1.397 . S
C204 C209 1.363 . S
C205 H176 0.950 . S
C205 C204 1.397 . S
C205 C206 1.334 . S
C206 H177 0.950 . S
C206 C205 1.334 . S
C206 C207 1.287 . S
C207 C206 1.287 . S
C207 C208 1.524 . S
C207 H210 0.999 . S
C208 H178 0.950 . S
C208 C207 1.524 . S
C208 C209 1.415 . S
C209 H179 0.950 . S
C209 C204 1.363 . S
C209 C208 1.415 . S
H210 C207 0.999 . S
H211 C192 0.913 . S
H212 C230 0.951 . S
H213 C232 0.951 . S
H214 C234 0.950 . S
H215 C235 0.950 . S
H216 C237 0.950 . S
H217 C240 0.950 . S
H218 C241 0.950 . S
H219 C243 0.950 . S
H220 C244 0.950 . S
H221 C245 0.951 . S
H222 C247 0.951 . S
H223 C249 0.950 . S
H224 C250 0.950 . S
H225 C252 0.950 . S
H226 C255 0.950 . S
H227 C256 0.950 . S
H228 C258 0.950 . S
H229 C259 0.950 . S
C230 H212 0.951 . S
C230 C231 1.366 . S
C230 C232 1.388 . S
C231 C230 1.366 . S
C231 C235 1.385 . S
C232 H213 0.951 . S
C232 C230 1.388 . S
C232 C233 1.366 . S
C233 C232 1.366 . S
C233 C234 1.414 . S
C233 C236 1.499 . S
C234 H214 0.950 . S
C234 C233 1.414 . S
C234 C235 1.374 . S
C235 H215 0.950 . S
C235 C231 1.385 . S
C235 C234 1.374 . S
C236 C233 1.499 . S
C236 C237 1.373 . S
C236 C238 1.389 . S
C237 H216 0.950 . S
C237 C236 1.373 . S
C237 C253 1.377 . S
C238 C236 1.389 . S
C238 C239 1.524 . S
C238 C252 1.377 . S
C239 C238 1.524 . S
C239 C240 1.397 . S
C239 C244 1.363 . S
C240 H217 0.950 . S
C240 C239 1.397 . S
C240 C241 1.334 . S
C241 H218 0.950 . S
C241 C240 1.334 . S
C241 C242 1.287 . S
C242 C241 1.287 . S
C242 C243 1.524 . S
C242 H261 0.913 . S
C243 H219 0.950 . S
C243 C242 1.524 . S
C243 C244 1.415 . S
C244 H220 0.950 . S
C244 C239 1.363 . S
C244 C243 1.415 . S
C245 H221 0.951 . S
C245 C246 1.366 . S
C245 C247 1.388 . S
C246 C245 1.366 . S
C246 C250 1.385 . S
C247 H222 0.951 . S
C247 C245 1.388 . S
C247 C248 1.366 . S
C248 C247 1.366 . S
C248 C249 1.414 . S
C248 C251 1.499 . S
C249 H223 0.950 . S
C249 C248 1.414 . S
C249 C250 1.374 . S
C250 H224 0.950 . S
C250 C246 1.385 . S
C250 C249 1.374 . S
C251 C248 1.499 . S
C251 C252 1.373 . S
C251 C253 1.389 . S
C252 H225 0.950 . S
C252 C238 1.377 . S
C252 C251 1.373 . S
C253 C237 1.377 . S
C253 C251 1.389 . S
C253 C254 1.524 . S
C254 C253 1.524 . S
C254 C255 1.397 . S
C254 C259 1.363 . S
C255 H226 0.950 . S
C255 C254 1.397 . S
C255 C256 1.334 . S
C256 H227 0.950 . S
C256 C255 1.334 . S
C256 C257 1.287 . S
C257 C256 1.287 . S
C257 C258 1.524 . S
C257 H260 0.999 . S
C258 H228 0.950 . S
C258 C257 1.524 . S
C258 C259 1.415 . S
C259 H229 0.950 . S
C259 C254 1.363 . S
C259 C258 1.415 . S
H260 C257 0.999 . S
H261 C242 0.913 . S
H262 C280 0.951 . S
H263 C282 0.951 . S
H264 C284 0.950 . S
H265 C285 0.950 . S
H266 C287 0.950 . S
H267 C290 0.950 . S
H268 C291 0.950 . S
H269 C293 0.950 . S
H270 C294 0.950 . S
H271 C295 0.951 . S
H272 C297 0.951 . S
H273 C299 0.950 . S
H274 C300 0.950 . S
H275 C302 0.950 . S
H276 C305 0.950 . S
H277 C306 0.950 . S
H278 C308 0.950 . S
H279 C309 0.950 . S
C280 H262 0.951 . S
C280 C281 1.366 . S
C280 C282 1.388 . S
C281 C280 1.366 . S
C281 C285 1.385 . S
C282 H263 0.951 . S
C282 C280 1.388 . S
C282 C283 1.366 . S
C283 C282 1.366 . S
C283 C284 1.414 . S
C283 C286 1.499 . S
C284 H264 0.950 . S
C284 C283 1.414 . S
C284 C285 1.374 . S
C285 H265 0.950 . S
C285 C281 1.385 . S
C285 C284 1.374 . S
C286 C283 1.499 . S
C286 C287 1.373 . S
C286 C288 1.389 . S
C287 H266 0.950 . S
C287 C286 1.373 . S
C287 C303 1.377 . S
C288 C286 1.389 . S
C288 C289 1.524 . S
C288 C302 1.377 . S
C289 C288 1.524 . S
C289 C290 1.397 . S
C289 C294 1.363 . S
C290 H267 0.950 . S
C290 C289 1.397 . S
C290 C291 1.334 . S
C291 H268 0.950 . S
C291 C290 1.334 . S
C291 C292 1.287 . S
C292 C291 1.287 . S
C292 C293 1.524 . S
C292 H311 0.913 . S
C293 H269 0.950 . S
C293 C292 1.524 . S
C293 C294 1.415 . S
C294 H270 0.950 . S
C294 C289 1.363 . S
C294 C293 1.415 . S
C295 H271 0.951 . S
C295 C296 1.366 . S
C295 C297 1.388 . S
C296 C295 1.366 . S
C296 C300 1.385 . S
C297 H272 0.951 . S
C297 C295 1.388 . S
C297 C298 1.366 . S
C298 C297 1.366 . S
C298 C299 1.414 . S
C298 C301 1.499 . S
C299 H273 0.950 . S
C299 C298 1.414 . S
C299 C300 1.374 . S
C300 H274 0.950 . S
C300 C296 1.385 . S
C300 C299 1.374 . S
C301 C298 1.499 . S
C301 C302 1.373 . S
C301 C303 1.389 . S
C302 H275 0.950 . S
C302 C288 1.377 . S
C302 C301 1.373 . S
C303 C287 1.377 . S
C303 C301 1.389 . S
C303 C304 1.524 . S
C304 C303 1.524 . S
C304 C305 1.397 . S
C304 C309 1.363 . S
C305 H276 0.950 . S
C305 C304 1.397 . S
C305 C306 1.334 . S
C306 H277 0.950 . S
C306 C305 1.334 . S
C306 C307 1.287 . S
C307 C306 1.287 . S
C307 C308 1.524 . S
C307 H310 0.999 . S
C308 H278 0.950 . S
C308 C307 1.524 . S
C308 C309 1.415 . S
C309 H279 0.950 . S
C309 C304 1.363 . S
C309 C308 1.415 . S
H310 C307 0.999 . S
H311 C292 0.913 . S
H312 C330 0.951 . S
H313 C332 0.951 . S
H314 C334 0.950 . S
H315 C335 0.950 1_565 S
H316 C337 0.950 . S
H317 C340 0.950 . S
H318 C341 0.950 . S
H319 C343 0.950 . S
H320 C344 0.950 . S
H321 C345 0.951 . S
H322 C347 0.951 . S
H323 C349 0.950 . S
H324 C350 0.950 . S
H325 C352 0.950 . S
H326 C355 0.950 . S
H327 C356 0.950 . S
H328 C358 0.950 . S
H329 C359 0.950 . S
C330 H312 0.951 . S
C330 C331 1.366 . S
C330 C332 1.388 . S
C331 C330 1.366 . S
C331 C335 1.385 . S
C332 H313 0.951 . S
C332 C330 1.388 . S
C332 C333 1.366 . S
C333 C332 1.366 . S
C333 C334 1.414 . S
C333 C336 1.499 . S
C334 H314 0.950 . S
C334 C333 1.414 . S
C334 C335 1.374 . S
C335 H315 0.950 1_545 S
C335 C331 1.385 . S
C335 C334 1.374 . S
C336 C333 1.499 . S
C336 C337 1.373 . S
C336 C338 1.389 . S
C337 H316 0.950 . S
C337 C336 1.373 . S
C337 C353 1.377 . S
C338 C336 1.389 . S
C338 C339 1.524 . S
C338 C352 1.377 . S
C339 C338 1.524 . S
C339 C340 1.397 . S
C339 C344 1.363 . S
C340 H317 0.950 . S
C340 C339 1.397 . S
C340 C341 1.334 . S
C341 H318 0.950 . S
C341 C340 1.334 . S
C341 C342 1.287 . S
C342 C341 1.287 . S
C342 C343 1.524 . S
C342 H361 0.913 . S
C343 H319 0.950 . S
C343 C342 1.524 . S
C343 C344 1.415 . S
C344 H320 0.950 . S
C344 C339 1.363 . S
C344 C343 1.415 . S
C345 H321 0.951 . S
C345 C346 1.366 . S
C345 C347 1.388 . S
C346 C345 1.366 . S
C346 C350 1.385 . S
C347 H322 0.951 . S
C347 C345 1.388 . S
C347 C348 1.366 . S
C348 C347 1.366 . S
C348 C349 1.414 . S
C348 C351 1.499 . S
C349 H323 0.950 . S
C349 C348 1.414 . S
C349 C350 1.374 . S
C350 H324 0.950 . S
C350 C346 1.385 . S
C350 C349 1.374 . S
C351 C348 1.499 . S
C351 C352 1.373 . S
C351 C353 1.389 . S
C352 H325 0.950 . S
C352 C338 1.377 . S
C352 C351 1.373 . S
C353 C337 1.377 . S
C353 C351 1.389 . S
C353 C354 1.524 . S
C354 C353 1.524 . S
C354 C355 1.397 . S
C354 C359 1.363 . S
C355 H326 0.950 . S
C355 C354 1.397 . S
C355 C356 1.334 . S
C356 H327 0.950 . S
C356 C355 1.334 . S
C356 C357 1.287 . S
C357 C356 1.287 . S
C357 C358 1.524 . S
C357 H360 0.999 . S
C358 H328 0.950 . S
C358 C357 1.524 . S
C358 C359 1.415 . S
C359 H329 0.950 . S
C359 C354 1.363 . S
C359 C358 1.415 . S
H360 C357 0.999 . S
H361 C342 0.913 . S
H362 C380 0.951 . S
H363 C382 0.951 . S
H364 C384 0.950 . S
H365 C385 0.950 . S
H366 C387 0.950 . S
H367 C390 0.950 . S
H368 C391 0.950 . S
H369 C393 0.950 . S
H370 C394 0.950 . S
H371 C395 0.951 . S
H372 C397 0.951 . S
H373 C399 0.950 . S
H374 C400 0.950 1_655 S
H375 C402 0.950 . S
H376 C405 0.950 . S
H377 C406 0.950 . S
H378 C408 0.950 . S
H379 C409 0.950 . S
C380 H362 0.951 . S
C380 C381 1.366 . S
C380 C382 1.388 . S
C381 C380 1.366 . S
C381 C385 1.385 . S
C382 H363 0.951 . S
C382 C380 1.388 . S
C382 C383 1.366 . S
C383 C382 1.366 . S
C383 C384 1.414 . S
C383 C386 1.499 . S
C384 H364 0.950 . S
C384 C383 1.414 . S
C384 C385 1.374 . S
C385 H365 0.950 . S
C385 C381 1.385 . S
C385 C384 1.374 . S
C386 C383 1.499 . S
C386 C387 1.373 . S
C386 C388 1.389 . S
C387 H366 0.950 . S
C387 C386 1.373 . S
C387 C403 1.377 . S
C388 C386 1.389 . S
C388 C389 1.524 . S
C388 C402 1.377 . S
C389 C388 1.524 . S
C389 C390 1.397 . S
C389 C394 1.363 . S
C390 H367 0.950 . S
C390 C389 1.397 . S
C390 C391 1.334 . S
C391 H368 0.950 . S
C391 C390 1.334 . S
C391 C392 1.287 . S
C392 C391 1.287 . S
C392 C393 1.524 . S
C392 H411 0.913 . S
C393 H369 0.950 . S
C393 C392 1.524 . S
C393 C394 1.415 . S
C394 H370 0.950 . S
C394 C389 1.363 . S
C394 C393 1.415 . S
C395 H371 0.951 . S
C395 C396 1.366 . S
C395 C397 1.388 . S
C396 C395 1.366 . S
C396 C400 1.385 . S
C397 H372 0.951 . S
C397 C395 1.388 . S
C397 C398 1.366 . S
C398 C397 1.366 . S
C398 C399 1.414 . S
C398 C401 1.499 . S
C399 H373 0.950 . S
C399 C398 1.414 . S
C399 C400 1.374 . S
C400 H374 0.950 1_455 S
C400 C396 1.385 . S
C400 C399 1.374 . S
C401 C398 1.499 . S
C401 C402 1.373 . S
C401 C403 1.389 . S
C402 H375 0.950 . S
C402 C388 1.377 . S
C402 C401 1.373 . S
C403 C387 1.377 . S
C403 C401 1.389 . S
C403 C404 1.524 . S
C404 C403 1.524 . S
C404 C405 1.397 . S
C404 C409 1.363 . S
C405 H376 0.950 . S
C405 C404 1.397 . S
C405 C406 1.334 . S
C406 H377 0.950 . S
C406 C405 1.334 . S
C406 C407 1.287 . S
C407 C406 1.287 . S
C407 C408 1.524 . S
C407 H410 0.999 . S
C408 H378 0.950 . S
C408 C407 1.524 . S
C408 C409 1.415 . S
C409 H379 0.950 . S
C409 C404 1.363 . S
C409 C408 1.415 . S
H410 C407 0.999 . S
H411 C392 0.913 . S
H412 C430 0.951 1_545 S
H413 C432 0.951 . S
H414 C434 0.950 . S
H415 C435 0.950 . S
H416 C437 0.950 . S
H417 C440 0.950 . S
H418 C441 0.950 . S
H419 C443 0.950 . S
H420 C444 0.950 . S
H421 C445 0.951 . S
H422 C447 0.951 . S
H423 C449 0.950 . S
H424 C450 0.950 . S
H425 C452 0.950 . S
H426 C455 0.950 . S
H427 C456 0.950 . S
H428 C458 0.950 . S
H429 C459 0.950 . S
C430 H412 0.951 1_565 S
C430 C431 1.366 . S
C430 C432 1.388 . S
C431 C430 1.366 . S
C431 C435 1.385 . S
C432 H413 0.951 . S
C432 C430 1.388 . S
C432 C433 1.366 . S
C433 C432 1.366 . S
C433 C434 1.414 . S
C433 C436 1.499 . S
C434 H414 0.950 . S
C434 C433 1.414 . S
C434 C435 1.374 . S
C435 H415 0.950 . S
C435 C431 1.385 . S
C435 C434 1.374 . S
C436 C433 1.499 . S
C436 C437 1.373 . S
C436 C438 1.389 . S
C437 H416 0.950 . S
C437 C436 1.373 . S
C437 C453 1.377 . S
C438 C436 1.389 . S
C438 C439 1.524 . S
C438 C452 1.377 . S
C439 C438 1.524 . S
C439 C440 1.397 . S
C439 C444 1.363 . S
C440 H417 0.950 . S
C440 C439 1.397 . S
C440 C441 1.334 . S
C441 H418 0.950 . S
C441 C440 1.334 . S
C441 C442 1.287 . S
C442 C441 1.287 . S
C442 C443 1.524 . S
C442 H461 0.913 . S
C443 H419 0.950 . S
C443 C442 1.524 . S
C443 C444 1.415 . S
C444 H420 0.950 . S
C444 C439 1.363 . S
C444 C443 1.415 . S
C445 H421 0.951 . S
C445 C446 1.366 . S
C445 C447 1.388 . S
C446 C445 1.366 . S
C446 C450 1.385 . S
C447 H422 0.951 . S
C447 C445 1.388 . S
C447 C448 1.366 . S
C448 C447 1.366 . S
C448 C449 1.414 . S
C448 C451 1.499 . S
C449 H423 0.950 . S
C449 C448 1.414 . S
C449 C450 1.374 . S
C450 H424 0.950 . S
C450 C446 1.385 . S
C450 C449 1.374 . S
C451 C448 1.499 . S
C451 C452 1.373 . S
C451 C453 1.389 . S
C452 H425 0.950 . S
C452 C438 1.377 . S
C452 C451 1.373 . S
C453 C437 1.377 . S
C453 C451 1.389 . S
C453 C454 1.524 . S
C454 C453 1.524 . S
C454 C455 1.397 . S
C454 C459 1.363 . S
C455 H426 0.950 . S
C455 C454 1.397 . S
C455 C456 1.334 . S
C456 H427 0.950 . S
C456 C455 1.334 . S
C456 C457 1.287 . S
C457 C456 1.287 . S
C457 C458 1.524 . S
C457 H460 0.999 . S
C458 H428 0.950 . S
C458 C457 1.524 . S
C458 C459 1.415 . S
C459 H429 0.950 . S
C459 C454 1.363 . S
C459 C458 1.415 . S
H460 C457 0.999 . S
H461 C442 0.913 . S
H462 C480 0.951 . S
H463 C482 0.951 . S
H464 C484 0.950 . S
H465 C485 0.950 . S
H466 C487 0.950 . S
H467 C490 0.950 . S
H468 C491 0.950 . S
H469 C493 0.950 . S
H470 C494 0.950 . S
H471 C495 0.951 1_455 S
H472 C497 0.951 . S
H473 C499 0.950 . S
H474 C500 0.950 . S
H475 C502 0.950 . S
H476 C505 0.950 . S
H477 C506 0.950 . S
H478 C508 0.950 . S
H479 C509 0.950 . S
C480 H462 0.951 . S
C480 C481 1.366 . S
C480 C482 1.388 . S
C481 C480 1.366 . S
C481 C485 1.385 . S
C482 H463 0.951 . S
C482 C480 1.388 . S
C482 C483 1.366 . S
C483 C482 1.366 . S
C483 C484 1.414 . S
C483 C486 1.499 . S
C484 H464 0.950 . S
C484 C483 1.414 . S
C484 C485 1.374 . S
C485 H465 0.950 . S
C485 C481 1.385 . S
C485 C484 1.374 . S
C486 C483 1.499 . S
C486 C487 1.373 . S
C486 C488 1.389 . S
C487 H466 0.950 . S
C487 C486 1.373 . S
C487 C503 1.377 . S
C488 C486 1.389 . S
C488 C489 1.524 . S
C488 C502 1.377 . S
C489 C488 1.524 . S
C489 C490 1.397 . S
C489 C494 1.363 . S
C490 H467 0.950 . S
C490 C489 1.397 . S
C490 C491 1.334 . S
C491 H468 0.950 . S
C491 C490 1.334 . S
C491 C492 1.287 . S
C492 C491 1.287 . S
C492 C493 1.524 . S
C492 H511 0.913 . S
C493 H469 0.950 . S
C493 C492 1.524 . S
C493 C494 1.415 . S
C494 H470 0.950 . S
C494 C489 1.363 . S
C494 C493 1.415 . S
C495 H471 0.951 1_655 S
C495 C496 1.366 . S
C495 C497 1.388 . S
C496 C495 1.366 . S
C496 C500 1.385 . S
C497 H472 0.951 . S
C497 C495 1.388 . S
C497 C498 1.366 . S
C498 C497 1.366 . S
C498 C499 1.414 . S
C498 C501 1.499 . S
C499 H473 0.950 . S
C499 C498 1.414 . S
C499 C500 1.374 . S
C500 H474 0.950 . S
C500 C496 1.385 . S
C500 C499 1.374 . S
C501 C498 1.499 . S
C501 C502 1.373 . S
C501 C503 1.389 . S
C502 H475 0.950 . S
C502 C488 1.377 . S
C502 C501 1.373 . S
C503 C487 1.377 . S
C503 C501 1.389 . S
C503 C504 1.524 . S
C504 C503 1.524 . S
C504 C505 1.397 . S
C504 C509 1.363 . S
C505 H476 0.950 . S
C505 C504 1.397 . S
C505 C506 1.334 . S
C506 H477 0.950 . S
C506 C505 1.334 . S
C506 C507 1.287 . S
C507 C506 1.287 . S
C507 C508 1.524 . S
C507 H510 0.999 . S
C508 H478 0.950 . S
C508 C507 1.524 . S
C508 C509 1.415 . S
C509 H479 0.950 . S
C509 C504 1.363 . S
C509 C508 1.415 . S
H510 C507 0.999 . S
H511 C492 0.913 . S
H512 C530 0.951 . S
H513 C532 0.951 . S
H514 C534 0.936 1_556 S
H515 C535 0.950 1_556 S
H516 C537 0.950 . S
H517 C540 0.950 . S
H518 C541 0.950 . S
H519 C543 0.950 . S
H520 C544 0.950 . S
H521 C545 0.951 . S
H522 C547 0.951 . S
H523 C549 0.950 . S
H524 C550 0.950 . S
H525 C552 0.950 . S
H526 C555 0.950 . S
H527 C556 0.950 . S
H528 C558 0.950 . S
H529 C559 0.950 . S
C530 H512 0.951 . S
C530 C531 1.366 . S
C530 C532 1.388 . S
C531 C530 1.366 . S
C531 C535 1.385 . S
C532 H513 0.951 . S
C532 C530 1.388 . S
C532 C533 1.366 . S
C533 C532 1.366 . S
C533 C534 1.425 . S
C533 C536 1.499 . S
C534 H514 0.936 1_554 S
C534 C533 1.425 . S
C534 C535 1.377 . S
C535 H515 0.950 1_554 S
C535 C531 1.385 . S
C535 C534 1.377 . S
C536 C533 1.499 . S
C536 C537 1.373 1_554 S
C536 C538 1.389 . S
C537 H516 0.950 . S
C537 C536 1.373 1_556 S
C537 C553 1.377 . S
C538 C536 1.389 . S
C538 C539 1.524 . S
C538 C552 1.377 . S
C539 C538 1.524 . S
C539 C540 1.397 . S
C539 C544 1.363 . S
C540 H517 0.950 . S
C540 C539 1.397 . S
C540 C541 1.334 . S
C541 H518 0.950 . S
C541 C540 1.334 . S
C541 C542 1.287 . S
C542 C541 1.287 . S
C542 C543 1.524 . S
C542 H561 0.913 . S
C543 H519 0.950 . S
C543 C542 1.524 . S
C543 C544 1.415 . S
C544 H520 0.950 . S
C544 C539 1.363 . S
C544 C543 1.415 . S
C545 H521 0.951 . S
C545 C546 1.366 . S
C545 C547 1.388 . S
C546 C545 1.366 . S
C546 C550 1.385 1_556 S
C547 H522 0.951 . S
C547 C545 1.388 . S
C547 C548 1.366 . S
C548 C547 1.366 . S
C548 C549 1.414 1_556 S
C548 C551 1.504 . S
C549 H523 0.950 . S
C549 C548 1.414 1_554 S
C549 C550 1.374 . S
C550 H524 0.950 . S
C550 C546 1.385 1_554 S
C550 C549 1.374 . S
C551 C548 1.504 . S
C551 C552 1.347 1_556 S
C551 C553 1.410 . S
C552 H525 0.950 . S
C552 C538 1.377 . S
C552 C551 1.347 1_554 S
C553 C537 1.377 . S
C553 C551 1.410 . S
C553 C554 1.524 . S
C554 C553 1.524 . S
C554 C555 1.397 . S
C554 C559 1.363 . S
C555 H526 0.950 . S
C555 C554 1.397 . S
C555 C556 1.334 . S
C556 H527 0.950 . S
C556 C555 1.334 . S
C556 C557 1.287 . S
C557 C556 1.287 . S
C557 C558 1.524 . S
C557 H560 0.999 . S
C558 H528 0.950 . S
C558 C557 1.524 . S
C558 C559 1.415 . S
C559 H529 0.950 . S
C559 C554 1.363 . S
C559 C558 1.415 . S
H560 C557 0.999 . S
H561 C542 0.913 . S
H562 C580 0.951 . S
H563 C582 0.951 . S
H564 C584 0.950 . S
H565 C585 0.950 . S
H566 C587 0.950 . S
H567 C590 0.950 . S
H568 C591 0.950 . S
H569 C593 0.950 . S
H570 C594 0.950 . S
H571 C595 0.951 . S
H572 C597 0.954 . S
H573 C599 0.950 . S
H574 C600 0.950 . S
H575 C602 0.950 . S
H576 C605 0.950 . S
H577 C606 0.950 . S
H578 C608 0.950 . S
H579 C609 0.950 . S
C580 H562 0.951 . S
C580 C581 1.366 . S
C580 C582 1.388 . S
C581 C580 1.366 . S
C581 C585 1.385 . S
C582 H563 0.951 . S
C582 C580 1.388 . S
C582 C583 1.366 . S
C583 C582 1.366 . S
C583 C584 1.414 . S
C583 C586 1.499 . S
C584 H564 0.950 . S
C584 C583 1.414 . S
C584 C585 1.374 . S
C585 H565 0.950 . S
C585 C581 1.385 . S
C585 C584 1.374 . S
C586 C583 1.499 . S
C586 C587 1.373 1_554 S
C586 C588 1.389 . S
C587 H566 0.950 . S
C587 C586 1.373 1_556 S
C587 C603 1.377 . S
C588 C586 1.389 . S
C588 C589 1.524 . S
C588 C602 1.377 . S
C589 C588 1.524 . S
C589 C590 1.397 . S
C589 C594 1.363 . S
C590 H567 0.950 . S
C590 C589 1.397 . S
C590 C591 1.334 . S
C591 H568 0.950 . S
C591 C590 1.334 . S
C591 C592 1.287 . S
C592 C591 1.287 . S
C592 C593 1.524 . S
C592 H611 0.913 . S
C593 H569 0.950 . S
C593 C592 1.524 . S
C593 C594 1.415 . S
C594 H570 0.950 . S
C594 C589 1.363 . S
C594 C593 1.415 . S
C595 H571 0.951 . S
C595 C596 1.366 . S
C595 C597 1.388 . S
C596 C595 1.366 . S
C596 C600 1.385 . S
C597 H572 0.954 . S
C597 C595 1.388 . S
C597 C598 1.366 . S
C598 C597 1.366 . S
C598 C599 1.414 . S
C598 C601 1.499 . S
C599 H573 0.950 . S
C599 C598 1.414 . S
C599 C600 1.374 . S
C600 H574 0.950 . S
C600 C596 1.385 . S
C600 C599 1.374 . S
C601 C598 1.499 . S
C601 C602 1.373 1_556 S
C601 C603 1.389 . S
C602 H575 0.950 . S
C602 C588 1.377 . S
C602 C601 1.373 1_554 S
C603 C587 1.377 . S
C603 C601 1.389 . S
C603 C604 1.524 . S
C604 C603 1.524 . S
C604 C605 1.397 . S
C604 C609 1.363 . S
C605 H576 0.950 . S
C605 C604 1.397 . S
C605 C606 1.334 . S
C606 H577 0.950 . S
C606 C605 1.334 . S
C606 C607 1.287 . S
C607 C606 1.287 . S
C607 C608 1.524 . S
C607 H610 0.999 . S
C608 H578 0.950 . S
C608 C607 1.524 . S
C608 C609 1.415 . S
C609 H579 0.950 . S
C609 C604 1.363 . S
C609 C608 1.415 . S
H610 C607 0.999 . S
H611 C592 0.913 . S
H612 C630 0.951 1_556 S
H613 C632 0.951 . S
H614 C634 0.950 . S
H615 C635 0.950 . S
H616 C637 0.950 . S
H617 C640 0.950 . S
H618 C641 0.950 . S
H619 C643 0.950 . S
H620 C644 0.950 . S
H621 C645 0.951 . S
H622 C647 0.951 . S
H623 C649 0.950 . S
H624 C650 0.950 . S
H625 C652 0.950 . S
H626 C655 0.950 . S
H627 C656 0.950 . S
H628 C658 0.950 . S
H629 C659 0.950 . S
C630 H612 0.951 1_554 S
C630 C631 1.366 . S
C630 C632 1.388 1_554 S
C631 C630 1.366 . S
C631 C635 1.385 . S
C632 H613 0.951 . S
C632 C630 1.388 1_556 S
C632 C633 1.366 1_556 S
C633 C632 1.366 1_554 S
C633 C634 1.414 . S
C633 C636 1.499 . S
C634 H614 0.950 . S
C634 C633 1.414 . S
C634 C635 1.374 . S
C635 H615 0.950 . S
C635 C631 1.385 . S
C635 C634 1.374 . S
C636 C633 1.499 . S
C636 C637 1.373 . S
C636 C638 1.389 1_554 S
C637 H616 0.950 . S
C637 C636 1.373 . S
C637 C653 1.377 . S
C638 C636 1.389 1_556 S
C638 C639 1.524 . S
C638 C652 1.377 . S
C639 C638 1.524 . S
C639 C640 1.397 . S
C639 C644 1.363 . S
C640 H617 0.950 . S
C640 C639 1.397 . S
C640 C641 1.334 . S
C641 H618 0.950 . S
C641 C640 1.334 . S
C641 C642 1.287 . S
C642 C641 1.287 . S
C642 C643 1.524 . S
C642 H661 0.913 . S
C643 H619 0.950 . S
C643 C642 1.524 . S
C643 C644 1.415 . S
C644 H620 0.950 . S
C644 C639 1.363 . S
C644 C643 1.415 . S
C645 H621 0.951 . S
C645 C646 1.366 1_554 S
C645 C647 1.388 . S
C646 C645 1.366 1_556 S
C646 C650 1.385 . S
C647 H622 0.951 . S
C647 C645 1.388 . S
C647 C648 1.366 1_554 S
C648 C647 1.366 1_556 S
C648 C649 1.414 . S
C648 C651 1.498 1_556 S
C649 H623 0.950 . S
C649 C648 1.414 . S
C649 C650 1.374 . S
C650 H624 0.950 . S
C650 C646 1.385 . S
C650 C649 1.374 . S
C651 C648 1.498 1_554 S
C651 C652 1.369 1_554 S
C651 C653 1.395 . S
C652 H625 0.950 . S
C652 C638 1.377 . S
C652 C651 1.369 1_556 S
C653 C637 1.377 . S
C653 C651 1.395 . S
C653 C654 1.524 . S
C654 C653 1.524 . S
C654 C655 1.397 . S
C654 C659 1.363 . S
C655 H626 0.950 . S
C655 C654 1.397 . S
C655 C656 1.334 . S
C656 H627 0.950 . S
C656 C655 1.334 . S
C656 C657 1.287 . S
C657 C656 1.287 . S
C657 C658 1.524 . S
C657 H660 0.999 . S
C658 H628 0.950 . S
C658 C657 1.524 . S
C658 C659 1.415 . S
C659 H629 0.950 . S
C659 C654 1.363 . S
C659 C658 1.415 . S
H660 C657 0.999 . S
H661 C642 0.913 . S
H662 C680 0.951 . S
H663 C682 0.946 1_554 S
H664 C684 0.950 . S
H665 C685 0.950 . S
H666 C687 0.950 . S
H667 C690 0.950 . S
H668 C691 0.950 . S
H669 C693 0.950 . S
H670 C694 0.950 . S
H671 C695 0.951 . S
H672 C697 0.951 . S
H673 C699 0.950 . S
H674 C700 0.950 . S
H675 C702 0.950 . S
H676 C705 0.950 . S
H677 C706 0.950 . S
H678 C708 0.950 . S
H679 C709 0.950 . S
C680 H662 0.951 . S
C680 C681 1.366 . S
C680 C682 1.388 . S
C681 C680 1.366 . S
C681 C685 1.385 . S
C682 H663 0.946 1_556 S
C682 C680 1.388 . S
C682 C683 1.366 . S
C683 C682 1.366 . S
C683 C684 1.414 . S
C683 C686 1.499 . S
C684 H664 0.950 . S
C684 C683 1.414 . S
C684 C685 1.374 . S
C685 H665 0.950 . S
C685 C681 1.385 . S
C685 C684 1.374 . S
C686 C683 1.499 . S
C686 C687 1.373 1_556 S
C686 C688 1.389 . S
C687 H666 0.950 . S
C687 C686 1.373 1_554 S
C687 C703 1.377 . S
C688 C686 1.389 . S
C688 C689 1.524 . S
C688 C702 1.377 . S
C689 C688 1.524 . S
C689 C690 1.397 . S
C689 C694 1.363 . S
C690 H667 0.950 . S
C690 C689 1.397 . S
C690 C691 1.334 . S
C691 H668 0.950 . S
C691 C690 1.334 . S
C691 C692 1.287 . S
C692 C691 1.287 . S
C692 C693 1.524 . S
C692 H711 0.913 . S
C693 H669 0.950 . S
C693 C692 1.524 . S
C693 C694 1.415 . S
C694 H670 0.950 . S
C694 C689 1.363 . S
C694 C693 1.415 . S
C695 H671 0.951 . S
C695 C696 1.366 . S
C695 C697 1.388 . S
C696 C695 1.366 . S
C696 C700 1.385 . S
C697 H672 0.951 . S
C697 C695 1.388 . S
C697 C698 1.366 . S
C698 C697 1.366 . S
C698 C699 1.414 . S
C698 C701 1.499 . S
C699 H673 0.950 . S
C699 C698 1.414 . S
C699 C700 1.374 . S
C700 H674 0.950 . S
C700 C696 1.385 . S
C700 C699 1.374 . S
C701 C698 1.499 . S
C701 C702 1.373 1_554 S
C701 C703 1.389 . S
C702 H675 0.950 . S
C702 C688 1.377 . S
C702 C701 1.373 1_556 S
C703 C687 1.377 . S
C703 C701 1.389 . S
C703 C704 1.524 . S
C704 C703 1.524 . S
C704 C705 1.397 . S
C704 C709 1.363 . S
C705 H676 0.950 . S
C705 C704 1.397 . S
C705 C706 1.334 . S
C706 H677 0.950 . S
C706 C705 1.334 . S
C706 C707 1.287 . S
C707 C706 1.287 . S
C707 C708 1.524 . S
C707 H710 0.999 . S
C708 H678 0.950 . S
C708 C707 1.524 . S
C708 C709 1.415 . S
C709 H679 0.950 . S
C709 C704 1.363 . S
C709 C708 1.415 . S
H710 C707 0.999 . S
H711 C692 0.913 . S
H712 C730 0.951 . S
H713 C732 0.951 . S
H714 C734 0.950 . S
H715 C735 0.950 . S
H716 C737 0.950 . S
H717 C740 0.950 . S
H718 C741 0.950 . S
H719 C743 0.950 . S
H720 C744 0.950 . S
H721 C745 0.951 . S
H722 C747 0.951 . S
H723 C749 0.950 . S
H724 C750 0.950 . S
H725 C752 0.950 . S
H726 C755 0.950 . S
H727 C756 0.950 . S
H728 C758 0.950 . S
H729 C759 0.950 . S
C730 H712 0.951 . S
C730 C731 1.366 . S
C730 C732 1.388 . S
C731 C730 1.366 . S
C731 C735 1.385 . S
C732 H713 0.951 . S
C732 C730 1.388 . S
C732 C733 1.366 . S
C733 C732 1.366 . S
C733 C734 1.414 . S
C733 C736 1.499 . S
C734 H714 0.950 . S
C734 C733 1.414 . S
C734 C735 1.374 . S
C735 H715 0.950 . S
C735 C731 1.385 . S
C735 C734 1.374 . S
C736 C733 1.499 . S
C736 C737 1.373 . S
C736 C738 1.389 1_655 S
C737 H716 0.950 . S
C737 C736 1.373 . S
C737 C753 1.377 . S
C738 C736 1.389 1_455 S
C738 C739 1.524 . S
C738 C752 1.377 . S
C739 C738 1.524 . S
C739 C740 1.397 . S
C739 C744 1.363 . S
C740 H717 0.950 . S
C740 C739 1.397 . S
C740 C741 1.334 . S
C741 H718 0.950 . S
C741 C740 1.334 . S
C741 C742 1.287 . S
C742 C741 1.287 . S
C742 C743 1.524 . S
C742 H761 0.913 . S
C743 H719 0.950 . S
C743 C742 1.524 . S
C743 C744 1.415 . S
C744 H720 0.950 . S
C744 C739 1.363 . S
C744 C743 1.415 . S
C745 H721 0.951 . S
C745 C746 1.366 . S
C745 C747 1.388 . S
C746 C745 1.366 . S
C746 C750 1.385 . S
C747 H722 0.951 . S
C747 C745 1.388 . S
C747 C748 1.366 . S
C748 C747 1.366 . S
C748 C749 1.414 . S
C748 C751 1.499 . S
C749 H723 0.950 . S
C749 C748 1.414 . S
C749 C750 1.374 . S
C750 H724 0.950 . S
C750 C746 1.385 . S
C750 C749 1.374 . S
C751 C748 1.499 . S
C751 C752 1.373 . S
C751 C753 1.389 1_455 S
C752 H725 0.950 . S
C752 C738 1.377 . S
C752 C751 1.373 . S
C753 C737 1.377 . S
C753 C751 1.389 1_655 S
C753 C754 1.524 . S
C754 C753 1.524 . S
C754 C755 1.397 . S
C754 C759 1.363 . S
C755 H726 0.950 . S
C755 C754 1.397 . S
C755 C756 1.334 . S
C756 H727 0.950 . S
C756 C755 1.334 . S
C756 C757 1.287 . S
C757 C756 1.287 . S
C757 C758 1.524 . S
C757 H760 0.999 . S
C758 H728 0.950 . S
C758 C757 1.524 . S
C758 C759 1.415 . S
C759 H729 0.950 . S
C759 C754 1.363 . S
C759 C758 1.415 . S
H760 C757 0.999 . S
H761 C742 0.913 . S
H762 C780 0.951 . S
H763 C782 0.951 . S
H764 C784 0.950 1_565 S
H765 C785 0.950 . S
H766 C787 0.950 . S
H767 C790 0.950 . S
H768 C791 0.950 . S
H769 C793 0.950 . S
H770 C794 0.950 . S
H771 C795 0.951 . S
H772 C797 0.951 . S
H773 C799 0.950 1_545 S
H774 C800 0.950 . S
H775 C802 0.950 . S
H776 C805 0.950 . S
H777 C806 0.950 . S
H778 C808 0.950 . S
H779 C809 0.950 . S
C780 H762 0.951 . S
C780 C781 1.366 . S
C780 C782 1.388 . S
C781 C780 1.366 . S
C781 C785 1.385 . S
C782 H763 0.951 . S
C782 C780 1.388 . S
C782 C783 1.366 . S
C783 C782 1.366 . S
C783 C784 1.414 . S
C783 C786 1.499 . S
C784 H764 0.950 1_545 S
C784 C783 1.414 . S
C784 C785 1.374 . S
C785 H765 0.950 . S
C785 C781 1.385 . S
C785 C784 1.374 . S
C786 C783 1.499 . S
C786 C787 1.373 1_545 S
C786 C788 1.389 . S
C787 H766 0.950 . S
C787 C786 1.373 1_565 S
C787 C803 1.377 . S
C788 C786 1.389 . S
C788 C789 1.524 . S
C788 C802 1.377 . S
C789 C788 1.524 . S
C789 C790 1.397 . S
C789 C794 1.363 . S
C790 H767 0.950 . S
C790 C789 1.397 . S
C790 C791 1.334 . S
C791 H768 0.950 . S
C791 C790 1.334 . S
C791 C792 1.287 . S
C792 C791 1.287 . S
C792 C793 1.524 . S
C792 H811 0.913 . S
C793 H769 0.950 . S
C793 C792 1.524 . S
C793 C794 1.415 . S
C794 H770 0.950 . S
C794 C789 1.363 . S
C794 C793 1.415 . S
C795 H771 0.951 . S
C795 C796 1.366 . S
C795 C797 1.388 . S
C796 C795 1.366 . S
C796 C800 1.385 . S
C797 H772 0.951 . S
C797 C795 1.388 . S
C797 C798 1.366 . S
C798 C797 1.366 . S
C798 C799 1.414 . S
C798 C801 1.499 . S
C799 H773 0.950 1_565 S
C799 C798 1.414 . S
C799 C800 1.374 . S
C800 H774 0.950 . S
C800 C796 1.385 . S
C800 C799 1.374 . S
C801 C798 1.499 . S
C801 C802 1.373 1_565 S
C801 C803 1.389 . S
C802 H775 0.950 . S
C802 C788 1.377 . S
C802 C801 1.373 1_545 S
C803 C787 1.377 . S
C803 C801 1.389 . S
C803 C804 1.524 . S
C804 C803 1.524 . S
C804 C805 1.397 . S
C804 C809 1.363 . S
C805 H776 0.950 . S
C805 C804 1.397 . S
C805 C806 1.334 . S
C806 H777 0.950 . S
C806 C805 1.334 . S
C806 C807 1.287 . S
C807 C806 1.287 . S
C807 C808 1.524 . S
C807 H810 0.999 . S
C808 H778 0.950 . S
C808 C807 1.524 . S
C808 C809 1.415 . S
C809 H779 0.950 . S
C809 C804 1.363 . S
C809 C808 1.415 . S
H810 C807 0.999 . S
H811 C792 0.913 . S
H812 C830 0.951 . S
H813 C832 0.951 . S
H814 C834 0.950 . S
H815 C835 0.950 . S
H816 C837 0.950 . S
H817 C840 0.950 . S
H818 C841 0.950 . S
H819 C843 0.950 . S
H820 C844 0.950 . S
H821 C845 0.951 . S
H822 C847 0.951 . S
H823 C849 0.950 . S
H824 C850 0.950 . S
H825 C852 0.950 . S
H826 C855 0.950 . S
H827 C856 0.950 . S
H828 C858 0.950 . S
H829 C859 0.956 . S
C830 H812 0.951 . S
C830 C831 1.366 . S
C830 C832 1.388 . S
C831 C830 1.366 . S
C831 C835 1.385 . S
C832 H813 0.951 . S
C832 C830 1.388 . S
C832 C833 1.366 . S
C833 C832 1.366 . S
C833 C834 1.414 . S
C833 C836 1.499 . S
C834 H814 0.950 . S
C834 C833 1.414 . S
C834 C835 1.374 . S
C835 H815 0.950 . S
C835 C831 1.385 . S
C835 C834 1.374 . S
C836 C833 1.499 . S
C836 C837 1.373 . S
C836 C838 1.389 . S
C837 H816 0.950 . S
C837 C836 1.373 . S
C837 C853 1.377 1_545 S
C838 C836 1.389 . S
C838 C839 1.524 . S
C838 C852 1.377 1_545 S
C839 C838 1.524 . S
C839 C840 1.397 . S
C839 C844 1.363 1_545 S
C840 H817 0.950 . S
C840 C839 1.397 . S
C840 C841 1.334 . S
C841 H818 0.950 . S
C841 C840 1.334 . S
C841 C842 1.287 . S
C842 C841 1.287 . S
C842 C843 1.524 1_545 S
C842 H861 0.913 . S
C843 H819 0.950 . S
C843 C842 1.524 1_565 S
C843 C844 1.415 . S
C844 H820 0.950 . S
C844 C839 1.363 1_565 S
C844 C843 1.415 . S
C845 H821 0.951 . S
C845 C846 1.366 . S
C845 C847 1.388 . S
C846 C845 1.366 . S
C846 C850 1.385 . S
C847 H822 0.951 . S
C847 C845 1.388 . S
C847 C848 1.366 . S
C848 C847 1.366 . S
C848 C849 1.414 . S
C848 C851 1.499 . S
C849 H823 0.950 . S
C849 C848 1.414 . S
C849 C850 1.374 . S
C850 H824 0.950 . S
C850 C846 1.385 . S
C850 C849 1.374 . S
C851 C848 1.499 . S
C851 C852 1.373 . S
C851 C853 1.389 . S
C852 H825 0.950 . S
C852 C838 1.377 1_565 S
C852 C851 1.373 . S
C853 C837 1.377 1_565 S
C853 C851 1.389 . S
C853 C854 1.524 1_556 S
C854 C853 1.524 1_554 S
C854 C855 1.397 . S
C854 C859 1.361 1_564 S
C855 H826 0.950 . S
C855 C854 1.397 . S
C855 C856 1.334 . S
C856 H827 0.950 . S
C856 C855 1.334 . S
C856 C857 1.287 . S
C857 C856 1.287 . S
C857 C858 1.524 1_565 S
C857 H860 0.999 . S
C858 H828 0.950 . S
C858 C857 1.524 1_545 S
C858 C859 1.411 1_554 S
C859 H829 0.956 . S
C859 C854 1.361 1_546 S
C859 C858 1.411 1_556 S
H860 C857 0.999 . S
H861 C842 0.913 . S
H862 C880 0.951 . S
H863 C882 0.951 . S
H864 C884 0.950 . S
H865 C885 0.950 . S
H866 C887 0.950 . S
H867 C890 0.950 . S
H868 C891 0.950 . S
H869 C893 0.950 . S
H870 C894 0.950 . S
H871 C895 0.951 . S
H872 C897 0.951 . S
H873 C899 0.950 . S
H874 C900 0.950 . S
H875 C902 0.950 . S
H876 C905 0.950 . S
H877 C906 0.950 . S
H878 C908 0.950 . S
H879 C909 0.950 . S
C880 H862 0.951 . S
C880 C881 1.366 . S
C880 C882 1.388 . S
C881 C880 1.366 . S
C881 C885 1.385 . S
C882 H863 0.951 . S
C882 C880 1.388 . S
C882 C883 1.366 . S
C883 C882 1.366 . S
C883 C884 1.414 . S
C883 C886 1.499 . S
C884 H864 0.950 . S
C884 C883 1.414 . S
C884 C885 1.374 . S
C885 H865 0.950 . S
C885 C881 1.385 . S
C885 C884 1.374 . S
C886 C883 1.499 . S
C886 C887 1.373 . S
C886 C888 1.389 . S
C887 H866 0.950 . S
C887 C886 1.373 . S
C887 C903 1.377 1_455 S
C888 C886 1.389 . S
C888 C889 1.524 . S
C888 C902 1.377 1_455 S
C889 C888 1.524 . S
C889 C890 1.397 . S
C889 C894 1.363 . S
C890 H867 0.950 . S
C890 C889 1.397 . S
C890 C891 1.334 . S
C891 H868 0.950 . S
C891 C890 1.334 . S
C891 C892 1.287 . S
C892 C891 1.287 . S
C892 C893 1.524 . S
C892 H911 0.913 . S
C893 H869 0.950 . S
C893 C892 1.524 . S
C893 C894 1.415 . S
C894 H870 0.950 . S
C894 C889 1.363 . S
C894 C893 1.415 . S
C895 H871 0.951 . S
C895 C896 1.366 . S
C895 C897 1.388 . S
C896 C895 1.366 . S
C896 C900 1.385 . S
C897 H872 0.951 . S
C897 C895 1.388 . S
C897 C898 1.366 . S
C898 C897 1.366 . S
C898 C899 1.414 . S
C898 C901 1.499 . S
C899 H873 0.950 . S
C899 C898 1.414 . S
C899 C900 1.374 . S
C900 H874 0.950 . S
C900 C896 1.385 . S
C900 C899 1.374 . S
C901 C898 1.499 . S
C901 C902 1.373 . S
C901 C903 1.389 . S
C902 H875 0.950 . S
C902 C888 1.377 1_655 S
C902 C901 1.373 . S
C903 C887 1.377 1_655 S
C903 C901 1.389 . S
C903 C904 1.514 1_554 S
C904 C903 1.514 1_556 S
C904 C905 1.412 . S
C904 C909 1.359 1_556 S
C905 H876 0.950 . S
C905 C904 1.412 . S
C905 C906 1.334 . S
C906 H877 0.950 . S
C906 C905 1.334 . S
C906 C907 1.287 . S
C907 C906 1.287 . S
C907 C908 1.524 . S
C907 H910 0.999 . S
C908 H878 0.950 . S
C908 C907 1.524 . S
C908 C909 1.415 1_556 S
C909 H879 0.950 . S
C909 C904 1.359 1_554 S
C909 C908 1.415 1_554 S
H910 C907 0.999 . S
H911 C892 0.913 . S
C131 C106 1.567 . S
C146 C8 1.566 . S
C181 C17 1.549 . S
C196 C64 1.546 . S
C231 C36 1.565 . S
C246 C78 1.567 . S
C281 C92 1.546 . S
C296 C45 1.549 . S
C331 C21 1.338 1_545 S
C346 C3 1.336 . S
C381 C22 1.396 . S
C396 C37 1.405 1_455 S
C431 C49 1.337 1_565 S
C446 C31 1.336 . S
C481 C50 1.395 . S
C496 C9 1.405 1_655 S
C531 C107 1.450 . S
C546 C59 1.413 . S
C581 C73 1.399 . S
C596 C65 1.431 . S
C631 C79 1.450 . S
C646 C87 1.412 . S
C681 C93 1.431 . S
C696 C101 1.399 . S
C731 C35 0.876 . S
C746 C7 0.876 . S
C781 C51 0.868 . S
C796 C23 0.866 . S
C831 C91 0.894 . S
C846 C63 0.895 . S
C881 C105 0.937 . S
C896 C77 0.937 . S
