# Generated by pormake.
# Topology umy, (4)-cn, num edge types: 1
# Building blocks:
#     Node 0, Type 0, BuildingBlock: GALJAG_clean_sbu_0, # of connection points: 4
#     Node 1, Type 0, BuildingBlock: GALJAG_clean_sbu_0, # of connection points: 4
#     Node 2, Type 0, BuildingBlock: GALJAG_clean_sbu_0, # of connection points: 4
#     Node 3, Type 0, BuildingBlock: GALJAG_clean_sbu_0, # of connection points: 4
#     Node 4, Type 0, BuildingBlock: GALJAG_clean_sbu_0, # of connection points: 4
#     Node 5, Type 0, BuildingBlock: GALJAG_clean_sbu_0, # of connection points: 4
#     Node 6, Type 0, BuildingBlock: GALJAG_clean_sbu_0, # of connection points: 4
#     Node 7, Type 0, BuildingBlock: GALJAG_clean_sbu_0, # of connection points: 4
#     Node 8, Type 0, BuildingBlock: GALJAG_clean_sbu_0, # of connection points: 4
#     Node 9, Type 0, BuildingBlock: GALJAG_clean_sbu_0, # of connection points: 4
#     Node 10, Type 0, BuildingBlock: GALJAG_clean_sbu_0, # of connection points: 4
#     Node 11, Type 0, BuildingBlock: GALJAG_clean_sbu_0, # of connection points: 4
#     Edge 12, Type (0, 0), BuildingBlock: OJICUG_clean_linker_0, # of connection points: 2
#     Edge 13, Type (0, 0), BuildingBlock: OJICUG_clean_linker_0, # of connection points: 2
#     Edge 14, Type (0, 0), BuildingBlock: OJICUG_clean_linker_0, # of connection points: 2
#     Edge 15, Type (0, 0), BuildingBlock: OJICUG_clean_linker_0, # of connection points: 2
#     Edge 16, Type (0, 0), BuildingBlock: OJICUG_clean_linker_0, # of connection points: 2
#     Edge 17, Type (0, 0), BuildingBlock: OJICUG_clean_linker_0, # of connection points: 2
#     Edge 18, Type (0, 0), BuildingBlock: OJICUG_clean_linker_0, # of connection points: 2
#     Edge 19, Type (0, 0), BuildingBlock: OJICUG_clean_linker_0, # of connection points: 2
#     Edge 20, Type (0, 0), BuildingBlock: OJICUG_clean_linker_0, # of connection points: 2
#     Edge 21, Type (0, 0), BuildingBlock: OJICUG_clean_linker_0, # of connection points: 2
#     Edge 22, Type (0, 0), BuildingBlock: OJICUG_clean_linker_0, # of connection points: 2
#     Edge 23, Type (0, 0), BuildingBlock: OJICUG_clean_linker_0, # of connection points: 2
#     Edge 24, Type (0, 0), BuildingBlock: OJICUG_clean_linker_0, # of connection points: 2
#     Edge 25, Type (0, 0), BuildingBlock: OJICUG_clean_linker_0, # of connection points: 2
#     Edge 26, Type (0, 0), BuildingBlock: OJICUG_clean_linker_0, # of connection points: 2
#     Edge 27, Type (0, 0), BuildingBlock: OJICUG_clean_linker_0, # of connection points: 2
#     Edge 28, Type (0, 0), BuildingBlock: OJICUG_clean_linker_0, # of connection points: 2
#     Edge 29, Type (0, 0), BuildingBlock: OJICUG_clean_linker_0, # of connection points: 2
#     Edge 30, Type (0, 0), BuildingBlock: OJICUG_clean_linker_0, # of connection points: 2
#     Edge 31, Type (0, 0), BuildingBlock: OJICUG_clean_linker_0, # of connection points: 2
#     Edge 32, Type (0, 0), BuildingBlock: OJICUG_clean_linker_0, # of connection points: 2
#     Edge 33, Type (0, 0), BuildingBlock: OJICUG_clean_linker_0, # of connection points: 2
#     Edge 34, Type (0, 0), BuildingBlock: OJICUG_clean_linker_0, # of connection points: 2
#     Edge 35, Type (0, 0), BuildingBlock: OJICUG_clean_linker_0, # of connection points: 2
# Relax obj value: 0.077
# Max RMSD: 0.076
# Mean RMSD: 0.076
data_MOF--net-umy--node1-GALJAG_clean_sbu_0--edge1-OJICUG_clean_linker_0
_symmetry_space_group_name_H-M    P1
_symmetry_Int_Tables_number       1
_symmetry_cell_setting            triclinic
loop_
_symmetry_equiv_pos_as_xyz
'x, y, z'
_cell_length_a     26.62388
_cell_length_b     26.262497
_cell_length_c     42.92429
_cell_angle_alpha  90.037487
_cell_angle_beta   89.980799
_cell_angle_gamma 120.7972
loop_
_atom_site_label
_atom_site_type_symbol
_atom_site_fract_x
_atom_site_fract_y
_atom_site_fract_z
_atom_type_partial_charge
In0 In 0.03596 0.32145 0.14947 0.0
O1 O 0.0404 0.26762 0.10852 0.0
O2 O 0.11603 0.35081 0.11914 0.0
C3 C 0.93056 0.24448 0.1743 0.0
C4 C 0.02014 0.40572 0.12393 0.0
C5 C 0.09918 0.33272 0.20108 0.0
O6 O 0.96002 0.22709 0.1595 0.0
O7 O 0.9525 0.29988 0.17456 0.0
O8 O 0.09983 0.37678 0.18885 0.0
O9 O 0.06946 0.2848 0.18643 0.0
C10 C 0.0925 0.30599 0.10154 0.0
O11 O 0.04424 0.41218 0.15018 0.0
O12 O 0.00306 0.35638 0.11086 0.0
In13 In 0.69557 0.06279 0.32071 0.0
O14 O 0.63359 0.096 0.31133 0.0
O15 O 0.61187 0.01248 0.29191 0.0
C16 C 0.7405 0.13215 0.37162 0.0
C17 C 0.76363 0.11157 0.27007 0.0
C18 C 0.67756 0.96194 0.34761 0.0
O19 O 0.68637 0.09722 0.36801 0.0
O20 O 0.77181 0.13288 0.34939 0.0
O21 O 0.72595 -0.00142 0.33522 0.0
O22 O 0.63826 0.97489 0.34478 0.0
C23 C 0.59902 0.05235 0.29468 0.0
O24 O 0.747 0.059 0.27833 0.0
O25 O 0.7471 0.13858 0.28766 0.0
In26 In 0.6337 0.70776 0.48249 0.0
O27 O 0.54453 0.62289 0.48345 0.0
O28 O 0.59789 0.6394 0.44333 0.0
C29 C 0.62425 0.7614 0.53386 0.0
C30 C 0.64914 0.78472 0.43667 0.0
C31 C 0.70995 0.68109 0.50813 0.0
O32 O 0.57977 0.71928 0.52082 0.0
O33 O 0.67197 0.77732 0.52027 0.0
O34 O 0.72654 0.72537 0.49046 0.0
O35 O 0.65525 0.64834 0.51058 0.0
C36 C 0.54978 0.60577 0.45678 0.0
O37 O 0.68504 0.76745 0.44116 0.0
O38 O 0.60665 0.76377 0.45541 0.0
In39 In 0.91752 0.65968 0.65063 0.0
O40 O 0.91103 0.56982 0.65156 0.0
O41 O 0.95073 0.62552 0.61201 0.0
C42 C 0.85705 0.64942 0.70303 0.0
C43 C 0.8551 0.66799 0.60349 0.0
C44 C 0.023 0.73979 0.67415 0.0
O45 O 0.85769 0.60552 0.69139 0.0
O46 O 0.88435 0.69664 0.68751 0.0
O47 O -0.00861 0.75546 0.6601 0.0
O48 O 0.00302 0.68471 0.67427 0.0
C49 C 0.93476 0.57653 0.62516 0.0
O50 O 0.90862 0.70607 0.60748 0.0
O51 O 0.8333 0.62755 0.62377 0.0
In52 In 0.2582 0.92246 0.82024 0.0
O53 O 0.2056 0.926 0.77831 0.0
O54 O 0.20872 0.84781 0.78612 0.0
C55 C 0.27288 0.02284 0.84621 0.0
C56 C 0.35592 0.93364 0.79515 0.0
C57 C 0.21565 0.85366 0.87157 0.0
O58 O 0.2235 0.98187 0.83689 0.0
O59 O 0.31455 0.01424 0.84083 0.0
O60 O 0.26913 0.89183 0.86836 0.0
O61 O 0.18399 0.84946 0.84874 0.0
C62 C 0.19071 0.87432 0.76921 0.0
O63 O 0.32132 0.89012 0.81186 0.0
O64 O 0.34248 0.97299 0.79186 0.0
In65 In 0.32247 0.27589 0.98281 0.0
O66 O 0.41251 0.35981 0.98346 0.0
O67 O 0.35749 0.34615 0.94456 0.0
C68 C 0.35375 0.24046 0.03472 0.0
C69 C 0.30403 0.2008 0.93542 0.0
C70 C 0.23192 0.28275 1.00646 0.0
O71 O 0.35554 0.28921 0.03293 0.0
O72 O 0.33822 0.21037 1.00999 0.0
O73 O 0.2291 0.23386 1.00201 0.0
O74 O 0.27821 0.32722 0.9966 0.0
C75 C 0.40634 0.37854 0.95753 0.0
O76 O 0.26423 0.20977 0.94502 0.0
O77 O 0.35192 0.22916 0.94987 0.0
In78 In 0.63324 0.92812 0.70381 0.0
O79 O 0.68251 0.92937 0.74832 0.0
O80 O 0.61055 0.84756 0.73281 0.0
C81 C 0.71093 0.03193 0.67716 0.0
C82 C 0.54529 0.93649 0.72886 0.0
C83 C 0.62258 0.86525 0.652 0.0
O84 O 0.72684 0.00364 0.69436 0.0
O85 O 0.65629 0.00959 0.67517 0.0
O86 O 0.58305 0.87534 0.66046 0.0
O87 O 0.66577 0.88495 0.67017 0.0
C88 C 0.64948 0.87443 0.75315 0.0
O89 O 0.53707 0.89317 0.71227 0.0
O90 O 0.59809 0.97706 0.73201 0.0
In91 In 0.70545 0.6609 0.8739 0.0
O92 O 0.76447 0.71439 0.91488 0.0
O93 O 0.75474 0.63057 0.90435 0.0
C94 C 0.67729 0.73685 0.84828 0.0
C95 C 0.60407 0.57679 0.899 0.0
C96 C 0.7591 0.65041 0.82294 0.0
O97 O 0.72277 0.75485 0.86464 0.0
O98 O 0.64496 0.6813 0.84687 0.0
O99 O 0.71514 0.6061 0.83495 0.0
O100 O 0.77697 0.69833 0.83749 0.0
C101 C 0.77707 0.67547 0.92189 0.0
O102 O 0.62233 0.57019 0.873 0.0
O103 O 0.63642 0.62622 0.91208 0.0
In104 In 0.03922 0.70467 0.03901 0.0
O105 O 0.04599 0.77014 0.07671 0.0
O106 O 0.11569 0.75311 0.07194 0.0
C107 C 0.94139 0.69739 0.01566 0.0
C108 C 0.02088 0.6026 0.06457 0.0
C109 C 0.10608 0.74079 0.98695 0.0
O110 O -0.01226 0.74636 0.02033 0.0
O111 O 0.94319 0.65286 0.02503 0.0
O112 O 0.05833 0.6923 0.98859 0.0
O113 O 0.12139 0.7702 0.0119 0.0
C114 C 0.09527 0.78045 0.08635 0.0
O115 O 0.04575 0.62134 0.03858 0.0
O116 O 0.00413 0.63459 0.07741 0.0
In117 In 0.32535 0.06115 0.20165 0.0
O118 O 0.42124 0.09395 0.20961 0.0
O119 O 0.35909 0.01213 0.23078 0.0
C120 C 0.35108 0.12913 0.15017 0.0
C121 C 0.3074 0.1109 0.25226 0.0
C122 C 0.24001 0.95967 0.17589 0.0
O123 O 0.36765 0.09231 0.15368 0.0
O124 O 0.32251 0.13231 0.17273 0.0
O125 O 0.23073 -0.00022 0.18526 0.0
O126 O 0.29087 0.96967 0.18117 0.0
C127 C 0.41219 0.05129 0.22695 0.0
O128 O 0.27031 0.05857 0.24393 0.0
O129 O 0.35141 0.13718 0.23479 0.0
In130 In 0.25002 0.32331 0.37281 0.0
O131 O 0.19176 0.2703 0.4141 0.0
O132 O 0.19996 0.35322 0.40306 0.0
C133 C 0.27685 0.24572 0.3479 0.0
C134 C 0.35137 0.40798 0.39791 0.0
C135 C 0.19756 0.33387 0.32127 0.0
O136 O 0.23014 0.2287 0.36295 0.0
O137 O 0.31102 0.30108 0.34745 0.0
O138 O 0.24209 0.37795 0.33305 0.0
O139 O 0.17859 0.28635 0.33632 0.0
C140 C 0.17841 0.30875 0.42088 0.0
O141 O 0.333 0.41436 0.37189 0.0
O142 O 0.31919 0.35851 0.41096 0.0
In143 In 0.91768 0.28017 0.53893 0.0
O144 O 0.91154 0.36358 0.5387 0.0
O145 O 0.95267 0.34959 0.57754 0.0
C146 C 0.85147 0.24392 0.48679 0.0
C147 C 0.85792 0.20618 0.58616 0.0
C148 C 0.01537 0.28709 0.51551 0.0
O149 O 0.89724 0.29411 0.48904 0.0
O150 O 0.83805 0.21274 0.51109 0.0
O151 O 0.96953 0.23807 0.52096 0.0
O152 O 0.01318 0.33171 0.52427 0.0
C153 C 0.93615 0.38182 0.5648 0.0
O154 O 0.90905 0.21822 0.57905 0.0
O155 O 0.83761 0.2307 0.56923 0.0
C156 C 0.01436 0.54536 0.11234 0.0
C157 C 0.01559 0.5497 0.0797 0.0
H158 H 0.01594 0.49656 0.15201 0.0
C159 C 0.01518 0.50479 0.06175 0.0
H160 H 0.01497 0.57962 0.12668 0.0
C161 C 0.01427 0.45664 0.07621 0.0
C162 C 0.01547 0.45355 0.10885 0.0
H163 H 0.01605 0.50716 0.03654 0.0
H164 H 0.01475 0.42295 0.06186 0.0
C165 C 0.01515 0.49808 0.1268 0.0
C166 C 0.50039 -0.00302 0.2695 0.0
C167 C 0.55041 0.05093 0.27767 0.0
H168 H 0.41617 0.95477 0.24733 0.0
C169 C 0.55491 0.10443 0.26862 0.0
H170 H 0.49616 0.95521 0.27622 0.0
C171 C 0.51044 0.10414 0.25137 0.0
C172 C 0.45993 0.05038 0.24364 0.0
H173 H 0.59333 0.14659 0.27441 0.0
H174 H 0.51509 0.1461 0.24464 0.0
C175 C 0.45489 -0.00327 0.25302 0.0
C176 C 0.45802 0.50675 0.45971 0.0
C177 C 0.50173 0.55266 0.44167 0.0
H178 H 0.37667 0.424 0.45981 0.0
C179 C 0.4973 0.54906 0.40904 0.0
H180 H 0.46052 0.50849 0.48491 0.0
C181 C 0.44869 0.50154 0.39472 0.0
C182 C 0.40457 0.45605 0.41278 0.0
H183 H 0.53031 0.58407 0.39462 0.0
H184 H 0.44536 0.50061 0.36955 0.0
C185 C 0.41023 0.45842 0.44536 0.0
C186 C 0.94066 0.48471 0.62762 0.0
C187 C 0.94009 0.5293 0.6099 0.0
H188 H 0.9415 0.40354 0.62702 0.0
C189 C 0.94173 0.5269 0.57725 0.0
H190 H 0.93957 0.48574 0.65283 0.0
C191 C 0.94143 0.47931 0.56252 0.0
C192 C 0.94116 0.43429 0.58022 0.0
H193 H 0.9411 0.56068 0.56307 0.0
H194 H 0.94084 0.47742 0.53729 0.0
C195 C 0.94202 0.43796 0.61288 0.0
C196 C 0.44726 0.8829 0.75363 0.0
C197 C 0.49702 0.93688 0.74534 0.0
H198 H 0.36436 0.8399 0.77668 0.0
C199 C 0.50071 0.99034 0.75387 0.0
H200 H 0.44362 0.84109 0.74755 0.0
C201 C 0.45462 0.98964 0.76999 0.0
C202 C 0.40529 0.93551 0.77866 0.0
H203 H 0.5388 0.03249 0.74775 0.0
H204 H 0.45781 0.03127 0.776 0.0
C205 C 0.40219 0.88223 0.77051 0.0
C206 C 0.49845 0.47705 0.96074 0.0
C207 C 0.45411 0.43194 0.9426 0.0
H208 H 0.5802 0.55938 0.96097 0.0
C209 C 0.45768 0.43654 0.90998 0.0
H210 H 0.49656 0.47449 0.98594 0.0
C211 C 0.50616 0.48422 0.89572 0.0
C212 C 0.55093 0.52887 0.91387 0.0
H213 H 0.42414 0.40212 0.8955 0.0
H214 H 0.50891 0.48589 0.87052 0.0
C215 C 0.54608 0.5256 0.94647 0.0
C216 C 0.17352 0.35017 0.06277 0.0
C217 C 0.12395 0.29982 0.0748 0.0
H218 H 0.24527 0.38435 0.03095 0.0
C219 C 0.10621 0.2441 0.06166 0.0
H220 H 0.18778 0.39379 0.07219 0.0
C221 C 0.13961 0.23853 0.03811 0.0
C222 C 0.19057 0.28878 0.02696 0.0
H223 H 0.06796 0.2046 0.07043 0.0
H224 H 0.12668 0.19477 0.02942 0.0
C225 C 0.20615 0.34479 0.03892 0.0
C226 C 0.81056 0.1968 0.23348 0.0
C227 C 0.80057 0.14096 0.24253 0.0
H228 H 0.8584 0.27253 0.20427 0.0
C229 C 0.82819 0.11584 0.226 0.0
H230 H 0.7893 0.21703 0.24544 0.0
C231 C 0.86793 0.14785 0.2021 0.0
C232 C 0.88039 0.20527 0.19442 0.0
H233 H 0.82095 0.07269 0.23237 0.0
H234 H 0.89103 0.12895 0.19078 0.0
C235 C 0.84993 0.22853 0.20971 0.0
C236 C 0.60942 0.8359 0.40526 0.0
C237 C 0.65578 0.82657 0.41174 0.0
H238 H 0.57965 0.88493 0.37948 0.0
C239 C 0.70824 0.85872 0.39493 0.0
H240 H 0.56825 0.81142 0.4176 0.0
C241 C 0.71493 0.90134 0.37299 0.0
C242 C 0.66904 0.91197 0.36736 0.0
H243 H 0.74463 0.85225 0.39939 0.0
H244 H 0.75647 0.92708 0.36115 0.0
C245 C 0.61588 0.87788 0.38326 0.0
C246 C 0.72759 0.6253 0.54936 0.0
C247 C 0.75013 0.67396 0.529 0.0
H248 H 0.74293 0.58562 0.58885 0.0
C249 C 0.80903 0.71916 0.53198 0.0
H250 H 0.68238 0.5898 0.54772 0.0
C251 C 0.84384 0.71692 0.55582 0.0
C252 C 0.82025 0.66953 0.57706 0.0
H253 H 0.82751 0.75743 0.51676 0.0
H254 H 0.88863 0.75304 0.55813 0.0
C255 C 0.7622 0.62314 0.57312 0.0
C256 C 0.08341 0.83627 0.70255 0.0
C257 C 0.07349 0.78021 0.69379 0.0
H258 H 0.12859 0.91053 0.73363 0.0
C259 C 0.10685 0.75892 0.70773 0.0
H260 H 0.05804 0.85361 0.6923 0.0
C261 C 0.14646 0.79097 0.73135 0.0
C262 C 0.15383 0.8452 0.7416 0.0
H263 H 0.10041 0.71602 0.70141 0.0
H264 H 0.1699 0.77212 0.74233 0.0
C265 C 0.12343 0.86863 0.72632 0.0
C266 C 0.33673 0.11444 0.87676 0.0
C267 C 0.2808 0.07307 0.86557 0.0
H268 H 0.38767 0.18697 0.9075 0.0
C269 C 0.23258 0.07687 0.87574 0.0
H270 H 0.3748 0.11281 0.86937 0.0
C271 C 0.24002 0.1197 0.89775 0.0
C272 C 0.29572 0.15912 0.91001 0.0
H273 H 0.18891 0.04545 0.86758 0.0
H274 H 0.202 0.12062 0.90593 0.0
C275 C 0.34408 0.15684 0.89875 0.0
C276 C 0.61609 0.75137 0.80977 0.0
C277 C 0.66706 0.77605 0.82794 0.0
H278 H 0.57096 0.76311 0.77198 0.0
C279 C 0.71067 0.83567 0.82318 0.0
H280 H 0.5816 0.70565 0.81289 0.0
C281 C 0.70454 0.8689 0.79949 0.0
C282 C 0.65491 0.84277 0.78018 0.0
H283 H 0.75058 0.85576 0.83677 0.0
H284 H 0.7395 0.91411 0.79553 0.0
C285 C 0.61017 0.78425 0.78614 0.0
C286 C 0.85383 0.73682 0.96164 0.0
C287 C 0.81492 0.68125 0.94846 0.0
H288 H 0.92479 0.7857 0.99355 0.0
C289 C 0.81368 0.63071 0.96016 0.0
H290 H 0.85547 0.77646 0.95313 0.0
C291 C 0.85222 0.63576 0.98364 0.0
C292 C 0.89358 0.69162 0.99559 0.0
H293 H 0.78362 0.5872 0.9507 0.0
H294 H 0.85142 0.59607 0.99133 0.0
C295 C 0.89326 0.74204 0.98484 0.0
C296 C 0.21369 0.86861 0.14541 0.0
C297 C 0.1981 0.90897 0.15649 0.0
H298 H 0.19346 0.79665 0.11464 0.0
C299 C 0.14559 0.90385 0.14612 0.0
H300 H 0.25379 0.87126 0.15296 0.0
C301 C 0.11074 0.86074 0.124 0.0
C302 C 0.1281 0.82239 0.11183 0.0
H303 H 0.13256 0.93448 0.15419 0.0
H304 H 0.0714 0.8588 0.11566 0.0
C305 C 0.1792 0.82596 0.1233 0.0
C306 C 0.34737 0.19666 0.2886 0.0
C307 C 0.30063 0.14084 0.27973 0.0
H308 H 0.37679 0.2728 0.31763 0.0
C309 C 0.24783 0.11626 0.29639 0.0
H310 H 0.38893 0.21651 0.27653 0.0
C311 C 0.24095 0.14872 0.32026 0.0
C312 C 0.28683 0.20608 0.32777 0.0
H313 H 0.21123 0.07314 0.29016 0.0
H314 H 0.1989 0.13019 0.3317 0.0
C315 C 0.34057 0.22885 0.31233 0.0
C316 C 0.14181 0.35351 0.45918 0.0
C317 C 0.14079 0.30301 0.44757 0.0
H318 H 0.10434 0.38819 0.49052 0.0
C319 C 0.10246 0.24756 0.46104 0.0
H320 H 0.17143 0.39693 0.44952 0.0
C321 C 0.06337 0.24237 0.48446 0.0
C322 C 0.06285 0.29274 0.49516 0.0
H323 H 0.10101 0.20795 0.4526 0.0
H324 H 0.03225 0.19878 0.4934 0.0
C325 C 0.10367 0.34852 0.48289 0.0
C326 C 0.845 0.13684 0.62998 0.0
C327 C 0.82314 0.16563 0.61174 0.0
H328 H 0.82669 0.07223 0.66559 0.0
C329 C 0.76631 0.15418 0.61747 0.0
H330 H 0.88878 0.14508 0.6262 0.0
C331 C 0.73106 0.11289 0.63992 0.0
C332 C 0.75184 0.0822 0.6573 0.0
H333 H 0.74831 0.176 0.60401 0.0
H334 H 0.68677 0.10367 0.64297 0.0
C335 C 0.80963 0.09549 0.65265 0.0
C336 C 0.13288 0.28172 0.27616 0.0
C337 C 0.17225 0.3354 0.29087 0.0
H338 H 0.08016 0.23909 0.23624 0.0
C339 C 0.18852 0.38905 0.27561 0.0
H340 H 0.1198 0.2396 0.28715 0.0
C341 C 0.16518 0.38876 0.24623 0.0
C342 C 0.12617 0.3348 0.23151 0.0
H343 H 0.21902 0.43106 0.28639 0.0
H344 H 0.17779 0.43056 0.23501 0.0
C345 C 0.11049 0.28142 0.2468 0.0
C346 C 0.76249 0.17206 0.45698 0.0
C347 C 0.81999 0.22063 0.45716 0.0
H348 H 0.69155 0.10675 0.4294 0.0
C349 C 0.84921 0.24317 0.42875 0.0
H350 H 0.73907 0.15393 0.47861 0.0
C351 C 0.8226 0.2154 0.40072 0.0
C352 C 0.76583 0.16561 0.40062 0.0
H353 H 0.89371 0.2804 0.42828 0.0
H354 H 0.84692 0.23203 0.3792 0.0
C355 C 0.73532 0.14522 0.42887 0.0
C356 C 0.56945 0.80529 0.60468 0.0
C357 C 0.62124 0.83686 0.6221 0.0
H358 H 0.52943 0.75568 0.5629 0.0
C359 C 0.67329 0.84334 0.6102 0.0
H360 H 0.52875 0.7998 0.61335 0.0
C361 C 0.67391 0.81947 0.58133 0.0
C362 C 0.62229 0.78762 0.5639 0.0
H363 H 0.71397 0.86776 0.62298 0.0
H364 H 0.71492 0.82545 0.57283 0.0
C365 C 0.56984 0.78022 0.57589 0.0
C366 C 0.8455 0.70162 0.74826 0.0
C367 C 0.83078 0.64795 0.73358 0.0
H368 H 0.83535 0.74421 0.78806 0.0
C369 C 0.79299 0.59429 0.74886 0.0
H370 H 0.8749 0.74374 0.73724 0.0
C371 C 0.7697 0.59455 0.77816 0.0
C372 C 0.78482 0.64849 0.79277 0.0
H373 H 0.78115 0.55228 0.73809 0.0
H374 H 0.74001 0.55273 0.78935 0.0
C375 C 0.82317 0.7019 0.77755 0.0
C376 C 0.22144 0.84111 0.92892 0.0
C377 C 0.19102 0.82014 0.90066 0.0
H378 H 0.21802 0.83245 0.97867 0.0
C379 C 0.13481 0.76949 0.90082 0.0
H380 H 0.26481 0.88018 0.92944 0.0
C381 C 0.10855 0.74158 0.92887 0.0
C382 C 0.13758 0.76457 0.9573 0.0
H383 H 0.11052 0.75231 0.87933 0.0
H384 H 0.06441 0.70371 0.92837 0.0
C385 C 0.19468 0.8139 0.95706 0.0
C386 C 0.36916 0.14126 0.09281 0.0
C387 C 0.35993 0.16233 0.12103 0.0
H388 H 0.37397 0.14944 0.04303 0.0
C389 C 0.3545 0.21274 0.12082 0.0
H390 H 0.37334 0.10234 0.09236 0.0
C391 C 0.35606 0.24034 0.09275 0.0
C392 C 0.36178 0.21717 0.06435 0.0
H393 H 0.34759 0.22998 0.14231 0.0
H394 H 0.34988 0.27802 0.0932 0.0
C395 C 0.36942 0.16808 0.06463 0.0
loop_
_geom_bond_atom_site_label_1
_geom_bond_atom_site_label_2
_geom_bond_distance
_geom_bond_site_symmetry_2
_ccdc_geom_bond_type
In0 O1 2.294 . S
In0 O2 2.326 . S
In0 O6 2.266 1_455 S
In0 O7 2.326 1_455 S
In0 O8 2.266 . S
In0 O9 2.326 . S
In0 O11 2.294 . S
In0 O12 2.326 . S
O1 In0 2.294 . S
O1 C10 1.240 . S
O2 In0 2.326 . S
O2 C10 1.252 . S
C3 O6 1.252 . S
C3 O7 1.260 . S
C4 O11 1.240 . S
C4 O12 1.252 . S
C5 O8 1.252 . S
C5 O9 1.260 . S
O6 In0 2.266 1_655 S
O6 C3 1.252 . S
O7 In0 2.326 1_655 S
O7 C3 1.260 . S
O8 In0 2.266 . S
O8 C5 1.252 . S
O9 In0 2.326 . S
O9 C5 1.260 . S
C10 O1 1.240 . S
C10 O2 1.252 . S
O11 In0 2.294 . S
O11 C4 1.240 . S
O12 In0 2.326 . S
O12 C4 1.252 . S
In13 O14 2.294 . S
In13 O15 2.326 . S
In13 O19 2.266 . S
In13 O20 2.326 . S
In13 O21 2.266 1_545 S
In13 O22 2.326 1_545 S
In13 O24 2.294 . S
In13 O25 2.326 . S
O14 In13 2.294 . S
O14 C23 1.240 . S
O15 In13 2.326 . S
O15 C23 1.252 . S
C16 O19 1.252 . S
C16 O20 1.260 . S
C17 O24 1.240 . S
C17 O25 1.252 . S
C18 O21 1.252 . S
C18 O22 1.260 . S
O19 In13 2.266 . S
O19 C16 1.252 . S
O20 In13 2.326 . S
O20 C16 1.260 . S
O21 In13 2.266 1_565 S
O21 C18 1.252 . S
O22 In13 2.326 1_565 S
O22 C18 1.260 . S
C23 O14 1.240 . S
C23 O15 1.252 . S
O24 In13 2.294 . S
O24 C17 1.240 . S
O25 In13 2.326 . S
O25 C17 1.252 . S
In26 O27 2.294 . S
In26 O28 2.326 . S
In26 O32 2.266 . S
In26 O33 2.326 . S
In26 O34 2.266 . S
In26 O35 2.326 . S
In26 O37 2.294 . S
In26 O38 2.326 . S
O27 In26 2.294 . S
O27 C36 1.240 . S
O28 In26 2.326 . S
O28 C36 1.252 . S
C29 O32 1.252 . S
C29 O33 1.260 . S
C30 O37 1.240 . S
C30 O38 1.252 . S
C31 O34 1.252 . S
C31 O35 1.260 . S
O32 In26 2.266 . S
O32 C29 1.252 . S
O33 In26 2.326 . S
O33 C29 1.260 . S
O34 In26 2.266 . S
O34 C31 1.252 . S
O35 In26 2.326 . S
O35 C31 1.260 . S
C36 O27 1.240 . S
C36 O28 1.252 . S
O37 In26 2.294 . S
O37 C30 1.240 . S
O38 In26 2.326 . S
O38 C30 1.252 . S
In39 O40 2.294 . S
In39 O41 2.326 . S
In39 O45 2.266 . S
In39 O46 2.326 . S
In39 O47 2.266 1_655 S
In39 O48 2.326 1_655 S
In39 O50 2.294 . S
In39 O51 2.326 . S
O40 In39 2.294 . S
O40 C49 1.240 . S
O41 In39 2.326 . S
O41 C49 1.252 . S
C42 O45 1.252 . S
C42 O46 1.260 . S
C43 O50 1.240 . S
C43 O51 1.252 . S
C44 O47 1.252 . S
C44 O48 1.260 . S
O45 In39 2.266 . S
O45 C42 1.252 . S
O46 In39 2.326 . S
O46 C42 1.260 . S
O47 In39 2.266 1_455 S
O47 C44 1.252 . S
O48 In39 2.326 1_455 S
O48 C44 1.260 . S
C49 O40 1.240 . S
C49 O41 1.252 . S
O50 In39 2.294 . S
O50 C43 1.240 . S
O51 In39 2.326 . S
O51 C43 1.252 . S
In52 O53 2.294 . S
In52 O54 2.326 . S
In52 O58 2.266 1_565 S
In52 O59 2.326 1_565 S
In52 O60 2.266 . S
In52 O61 2.326 . S
In52 O63 2.294 . S
In52 O64 2.326 . S
O53 In52 2.294 . S
O53 C62 1.240 . S
O54 In52 2.326 . S
O54 C62 1.252 . S
C55 O58 1.252 . S
C55 O59 1.260 . S
C56 O63 1.240 . S
C56 O64 1.252 . S
C57 O60 1.252 . S
C57 O61 1.260 . S
O58 In52 2.266 1_545 S
O58 C55 1.252 . S
O59 In52 2.326 1_545 S
O59 C55 1.260 . S
O60 In52 2.266 . S
O60 C57 1.252 . S
O61 In52 2.326 . S
O61 C57 1.260 . S
C62 O53 1.240 . S
C62 O54 1.252 . S
O63 In52 2.294 . S
O63 C56 1.240 . S
O64 In52 2.326 . S
O64 C56 1.252 . S
In65 O66 2.294 . S
In65 O67 2.326 . S
In65 O71 2.266 1_556 S
In65 O72 2.326 1_556 S
In65 O73 2.266 . S
In65 O74 2.326 1_556 S
In65 O76 2.294 . S
In65 O77 2.326 . S
O66 In65 2.294 . S
O66 C75 1.240 . S
O67 In65 2.326 . S
O67 C75 1.252 . S
C68 O71 1.252 . S
C68 O72 1.260 . S
C69 O76 1.240 . S
C69 O77 1.252 . S
C70 O73 1.252 1_554 S
C70 O74 1.260 . S
O71 In65 2.266 1_554 S
O71 C68 1.252 . S
O72 In65 2.326 1_554 S
O72 C68 1.260 . S
O73 In65 2.266 . S
O73 C70 1.252 1_556 S
O74 In65 2.326 1_554 S
O74 C70 1.260 . S
C75 O66 1.240 . S
C75 O67 1.252 . S
O76 In65 2.294 . S
O76 C69 1.240 . S
O77 In65 2.326 . S
O77 C69 1.252 . S
In78 O79 2.294 . S
In78 O80 2.326 . S
In78 O84 2.266 1_565 S
In78 O85 2.326 1_565 S
In78 O86 2.266 . S
In78 O87 2.326 . S
In78 O89 2.294 . S
In78 O90 2.326 . S
O79 In78 2.294 . S
O79 C88 1.240 . S
O80 In78 2.326 . S
O80 C88 1.252 . S
C81 O84 1.252 . S
C81 O85 1.260 . S
C82 O89 1.240 . S
C82 O90 1.252 . S
C83 O86 1.252 . S
C83 O87 1.260 . S
O84 In78 2.266 1_545 S
O84 C81 1.252 . S
O85 In78 2.326 1_545 S
O85 C81 1.260 . S
O86 In78 2.266 . S
O86 C83 1.252 . S
O87 In78 2.326 . S
O87 C83 1.260 . S
C88 O79 1.240 . S
C88 O80 1.252 . S
O89 In78 2.294 . S
O89 C82 1.240 . S
O90 In78 2.326 . S
O90 C82 1.252 . S
In91 O92 2.294 . S
In91 O93 2.326 . S
In91 O97 2.266 . S
In91 O98 2.326 . S
In91 O99 2.266 . S
In91 O100 2.326 . S
In91 O102 2.294 . S
In91 O103 2.326 . S
O92 In91 2.294 . S
O92 C101 1.240 . S
O93 In91 2.326 . S
O93 C101 1.252 . S
C94 O97 1.252 . S
C94 O98 1.260 . S
C95 O102 1.240 . S
C95 O103 1.252 . S
C96 O99 1.252 . S
C96 O100 1.260 . S
O97 In91 2.266 . S
O97 C94 1.252 . S
O98 In91 2.326 . S
O98 C94 1.260 . S
O99 In91 2.266 . S
O99 C96 1.252 . S
O100 In91 2.326 . S
O100 C96 1.260 . S
C101 O92 1.240 . S
C101 O93 1.252 . S
O102 In91 2.294 . S
O102 C95 1.240 . S
O103 In91 2.326 . S
O103 C95 1.252 . S
In104 O105 2.294 . S
In104 O106 2.326 . S
In104 O110 2.266 1_455 S
In104 O111 2.326 1_454 S
In104 O112 2.266 1_554 S
In104 O113 2.326 1_554 S
In104 O115 2.294 . S
In104 O116 2.326 . S
O105 In104 2.294 . S
O105 C114 1.240 . S
O106 In104 2.326 . S
O106 C114 1.252 . S
C107 O110 1.252 1_556 S
C107 O111 1.260 . S
C108 O115 1.240 . S
C108 O116 1.252 . S
C109 O112 1.252 . S
C109 O113 1.260 . S
O110 In104 2.266 1_655 S
O110 C107 1.252 1_554 S
O111 In104 2.326 1_656 S
O111 C107 1.260 . S
O112 In104 2.266 1_556 S
O112 C109 1.252 . S
O113 In104 2.326 1_556 S
O113 C109 1.260 . S
C114 O105 1.240 . S
C114 O106 1.252 . S
O115 In104 2.294 . S
O115 C108 1.240 . S
O116 In104 2.326 . S
O116 C108 1.252 . S
In117 O118 2.294 . S
In117 O119 2.326 . S
In117 O123 2.266 . S
In117 O124 2.326 . S
In117 O125 2.266 1_545 S
In117 O126 2.326 1_545 S
In117 O128 2.294 . S
In117 O129 2.326 . S
O118 In117 2.294 . S
O118 C127 1.240 . S
O119 In117 2.326 . S
O119 C127 1.252 . S
C120 O123 1.252 . S
C120 O124 1.260 . S
C121 O128 1.240 . S
C121 O129 1.252 . S
C122 O125 1.252 . S
C122 O126 1.260 . S
O123 In117 2.266 . S
O123 C120 1.252 . S
O124 In117 2.326 . S
O124 C120 1.260 . S
O125 In117 2.266 1_565 S
O125 C122 1.252 . S
O126 In117 2.326 1_565 S
O126 C122 1.260 . S
C127 O118 1.240 . S
C127 O119 1.252 . S
O128 In117 2.294 . S
O128 C121 1.240 . S
O129 In117 2.326 . S
O129 C121 1.252 . S
In130 O131 2.294 . S
In130 O132 2.326 . S
In130 O136 2.266 . S
In130 O137 2.326 . S
In130 O138 2.266 . S
In130 O139 2.326 . S
In130 O141 2.294 . S
In130 O142 2.326 . S
O131 In130 2.294 . S
O131 C140 1.240 . S
O132 In130 2.326 . S
O132 C140 1.252 . S
C133 O136 1.252 . S
C133 O137 1.260 . S
C134 O141 1.240 . S
C134 O142 1.252 . S
C135 O138 1.252 . S
C135 O139 1.260 . S
O136 In130 2.266 . S
O136 C133 1.252 . S
O137 In130 2.326 . S
O137 C133 1.260 . S
O138 In130 2.266 . S
O138 C135 1.252 . S
O139 In130 2.326 . S
O139 C135 1.260 . S
C140 O131 1.240 . S
C140 O132 1.252 . S
O141 In130 2.294 . S
O141 C134 1.240 . S
O142 In130 2.326 . S
O142 C134 1.252 . S
In143 O144 2.294 . S
In143 O145 2.326 . S
In143 O149 2.266 . S
In143 O150 2.326 . S
In143 O151 2.266 1_655 S
In143 O152 2.326 1_655 S
In143 O154 2.294 . S
In143 O155 2.326 . S
O144 In143 2.294 . S
O144 C153 1.240 . S
O145 In143 2.326 . S
O145 C153 1.252 . S
C146 O149 1.252 . S
C146 O150 1.260 . S
C147 O154 1.240 . S
C147 O155 1.252 . S
C148 O151 1.252 . S
C148 O152 1.260 . S
O149 In143 2.266 . S
O149 C146 1.252 . S
O150 In143 2.326 . S
O150 C146 1.260 . S
O151 In143 2.266 1_455 S
O151 C148 1.252 . S
O152 In143 2.326 1_455 S
O152 C148 1.260 . S
C153 O144 1.240 . S
C153 O145 1.252 . S
O154 In143 2.294 . S
O154 C147 1.240 . S
O155 In143 2.326 . S
O155 C147 1.252 . S
C156 C157 1.387 . S
C156 H160 0.950 . S
C156 C165 1.390 . S
C157 C156 1.387 . S
C157 C159 1.387 . S
H158 C165 0.950 . S
C159 C157 1.387 . S
C159 C161 1.390 . S
C159 H163 0.950 . S
H160 C156 0.950 . S
C161 C159 1.390 . S
C161 C162 1.387 . S
C161 H164 0.950 . S
C162 C161 1.387 . S
C162 C165 1.387 . S
H163 C159 0.950 . S
H164 C161 0.950 . S
C165 C156 1.390 . S
C165 H158 0.950 . S
C165 C162 1.387 . S
C166 C167 1.387 1_565 S
C166 H170 0.950 . S
C166 C175 1.390 . S
C167 C166 1.387 1_545 S
C167 C169 1.387 . S
H168 C175 0.950 . S
C169 C167 1.387 . S
C169 C171 1.390 . S
C169 H173 0.950 . S
H170 C166 0.950 . S
C171 C169 1.390 . S
C171 C172 1.387 . S
C171 H174 0.950 . S
C172 C171 1.387 . S
C172 C175 1.387 1_545 S
H173 C169 0.950 . S
H174 C171 0.950 . S
C175 C166 1.390 . S
C175 H168 0.950 . S
C175 C172 1.387 1_565 S
C176 C177 1.387 . S
C176 H180 0.950 . S
C176 C185 1.390 . S
C177 C176 1.387 . S
C177 C179 1.387 . S
H178 C185 0.950 . S
C179 C177 1.387 . S
C179 C181 1.390 . S
C179 H183 0.950 . S
H180 C176 0.950 . S
C181 C179 1.390 . S
C181 C182 1.387 . S
C181 H184 0.950 . S
C182 C181 1.387 . S
C182 C185 1.387 . S
H183 C179 0.950 . S
H184 C181 0.950 . S
C185 C176 1.390 . S
C185 H178 0.950 . S
C185 C182 1.387 . S
C186 C187 1.387 . S
C186 H190 0.950 . S
C186 C195 1.390 . S
C187 C186 1.387 . S
C187 C189 1.387 . S
H188 C195 0.950 . S
C189 C187 1.387 . S
C189 C191 1.390 . S
C189 H193 0.950 1_655 S
H190 C186 0.950 . S
C191 C189 1.390 . S
C191 C192 1.387 . S
C191 H194 0.950 1_655 S
C192 C191 1.387 . S
C192 C195 1.387 . S
H193 C189 0.950 1_455 S
H194 C191 0.950 1_455 S
C195 C186 1.390 . S
C195 H188 0.950 . S
C195 C192 1.387 . S
C196 C197 1.387 . S
C196 H200 0.950 . S
C196 C205 1.390 . S
C197 C196 1.387 . S
C197 C199 1.387 1_565 S
H198 C205 0.950 . S
C199 C197 1.387 1_545 S
C199 C201 1.390 . S
C199 H203 0.950 . S
H200 C196 0.950 . S
C201 C199 1.390 . S
C201 C202 1.387 1_545 S
C201 H204 0.950 . S
C202 C201 1.387 1_565 S
C202 C205 1.387 . S
H203 C199 0.950 . S
H204 C201 0.950 . S
C205 C196 1.390 . S
C205 H198 0.950 . S
C205 C202 1.387 . S
C206 C207 1.387 . S
C206 H210 0.950 . S
C206 C215 1.390 . S
C207 C206 1.387 . S
C207 C209 1.387 . S
H208 C215 0.950 . S
C209 C207 1.387 . S
C209 C211 1.390 . S
C209 H213 0.950 . S
H210 C206 0.950 . S
C211 C209 1.390 . S
C211 C212 1.387 . S
C211 H214 0.950 . S
C212 C211 1.387 . S
C212 C215 1.387 . S
H213 C209 0.950 . S
H214 C211 0.950 . S
C215 C206 1.390 . S
C215 H208 0.950 . S
C215 C212 1.387 . S
C216 C217 1.387 . S
C216 H220 0.950 . S
C216 C225 1.390 . S
C217 C216 1.387 . S
C217 C219 1.387 . S
H218 C225 0.950 . S
C219 C217 1.387 . S
C219 C221 1.390 . S
C219 H223 0.950 . S
H220 C216 0.950 . S
C221 C219 1.390 . S
C221 C222 1.387 . S
C221 H224 0.950 . S
C222 C221 1.387 . S
C222 C225 1.387 . S
H223 C219 0.950 . S
H224 C221 0.950 . S
C225 C216 1.390 . S
C225 H218 0.950 . S
C225 C222 1.387 . S
C226 C227 1.387 . S
C226 H230 0.950 . S
C226 C235 1.390 . S
C227 C226 1.387 . S
C227 C229 1.387 . S
H228 C235 0.950 . S
C229 C227 1.387 . S
C229 C231 1.390 . S
C229 H233 0.950 . S
H230 C226 0.950 . S
C231 C229 1.390 . S
C231 C232 1.387 . S
C231 H234 0.950 . S
C232 C231 1.387 . S
C232 C235 1.387 . S
H233 C229 0.950 . S
H234 C231 0.950 . S
C235 C226 1.390 . S
C235 H228 0.950 . S
C235 C232 1.387 . S
C236 C237 1.387 . S
C236 H240 0.950 . S
C236 C245 1.390 . S
C237 C236 1.387 . S
C237 C239 1.387 . S
H238 C245 0.950 . S
C239 C237 1.387 . S
C239 C241 1.390 . S
C239 H243 0.950 . S
H240 C236 0.950 . S
C241 C239 1.390 . S
C241 C242 1.387 . S
C241 H244 0.950 . S
C242 C241 1.387 . S
C242 C245 1.387 . S
H243 C239 0.950 . S
H244 C241 0.950 . S
C245 C236 1.390 . S
C245 H238 0.950 . S
C245 C242 1.387 . S
C246 C247 1.387 . S
C246 H250 0.950 . S
C246 C255 1.390 . S
C247 C246 1.387 . S
C247 C249 1.387 . S
H248 C255 0.950 . S
C249 C247 1.387 . S
C249 C251 1.390 . S
C249 H253 0.950 . S
H250 C246 0.950 . S
C251 C249 1.390 . S
C251 C252 1.387 . S
C251 H254 0.950 . S
C252 C251 1.387 . S
C252 C255 1.387 . S
H253 C249 0.950 . S
H254 C251 0.950 . S
C255 C246 1.390 . S
C255 H248 0.950 . S
C255 C252 1.387 . S
C256 C257 1.387 . S
C256 H260 0.950 . S
C256 C265 1.390 . S
C257 C256 1.387 . S
C257 C259 1.387 . S
H258 C265 0.950 . S
C259 C257 1.387 . S
C259 C261 1.390 . S
C259 H263 0.950 . S
H260 C256 0.950 . S
C261 C259 1.390 . S
C261 C262 1.387 . S
C261 H264 0.950 . S
C262 C261 1.387 . S
C262 C265 1.387 . S
H263 C259 0.950 . S
H264 C261 0.950 . S
C265 C256 1.390 . S
C265 H258 0.950 . S
C265 C262 1.387 . S
C266 C267 1.387 . S
C266 H270 0.950 . S
C266 C275 1.390 . S
C267 C266 1.387 . S
C267 C269 1.387 . S
H268 C275 0.950 . S
C269 C267 1.387 . S
C269 C271 1.390 . S
C269 H273 0.950 . S
H270 C266 0.950 . S
C271 C269 1.390 . S
C271 C272 1.387 . S
C271 H274 0.950 . S
C272 C271 1.387 . S
C272 C275 1.387 . S
H273 C269 0.950 . S
H274 C271 0.950 . S
C275 C266 1.390 . S
C275 H268 0.950 . S
C275 C272 1.387 . S
C276 C277 1.387 . S
C276 H280 0.950 . S
C276 C285 1.390 . S
C277 C276 1.387 . S
C277 C279 1.387 . S
H278 C285 0.950 . S
C279 C277 1.387 . S
C279 C281 1.390 . S
C279 H283 0.950 . S
H280 C276 0.950 . S
C281 C279 1.390 . S
C281 C282 1.387 . S
C281 H284 0.950 . S
C282 C281 1.387 . S
C282 C285 1.387 . S
H283 C279 0.950 . S
H284 C281 0.950 . S
C285 C276 1.390 . S
C285 H278 0.950 . S
C285 C282 1.387 . S
C286 C287 1.387 . S
C286 H290 0.950 . S
C286 C295 1.390 . S
C287 C286 1.387 . S
C287 C289 1.387 . S
H288 C295 0.950 . S
C289 C287 1.387 . S
C289 C291 1.390 . S
C289 H293 0.950 . S
H290 C286 0.950 . S
C291 C289 1.390 . S
C291 C292 1.387 . S
C291 H294 0.950 . S
C292 C291 1.387 . S
C292 C295 1.387 . S
H293 C289 0.950 . S
H294 C291 0.950 . S
C295 C286 1.390 . S
C295 H288 0.950 . S
C295 C292 1.387 . S
C296 C297 1.387 . S
C296 H300 0.950 . S
C296 C305 1.390 . S
C297 C296 1.387 . S
C297 C299 1.387 . S
H298 C305 0.950 . S
C299 C297 1.387 . S
C299 C301 1.390 . S
C299 H303 0.950 . S
H300 C296 0.950 . S
C301 C299 1.390 . S
C301 C302 1.387 . S
C301 H304 0.950 . S
C302 C301 1.387 . S
C302 C305 1.387 . S
H303 C299 0.950 . S
H304 C301 0.950 . S
C305 C296 1.390 . S
C305 H298 0.950 . S
C305 C302 1.387 . S
C306 C307 1.387 . S
C306 H310 0.950 . S
C306 C315 1.390 . S
C307 C306 1.387 . S
C307 C309 1.387 . S
H308 C315 0.950 . S
C309 C307 1.387 . S
C309 C311 1.390 . S
C309 H313 0.950 . S
H310 C306 0.950 . S
C311 C309 1.390 . S
C311 C312 1.387 . S
C311 H314 0.950 . S
C312 C311 1.387 . S
C312 C315 1.387 . S
H313 C309 0.950 . S
H314 C311 0.950 . S
C315 C306 1.390 . S
C315 H308 0.950 . S
C315 C312 1.387 . S
C316 C317 1.387 . S
C316 H320 0.950 . S
C316 C325 1.390 . S
C317 C316 1.387 . S
C317 C319 1.387 . S
H318 C325 0.950 . S
C319 C317 1.387 . S
C319 C321 1.390 . S
C319 H323 0.950 . S
H320 C316 0.950 . S
C321 C319 1.390 . S
C321 C322 1.387 . S
C321 H324 0.950 . S
C322 C321 1.387 . S
C322 C325 1.387 . S
H323 C319 0.950 . S
H324 C321 0.950 . S
C325 C316 1.390 . S
C325 H318 0.950 . S
C325 C322 1.387 . S
C326 C327 1.387 . S
C326 H330 0.950 . S
C326 C335 1.390 . S
C327 C326 1.387 . S
C327 C329 1.387 . S
H328 C335 0.950 . S
C329 C327 1.387 . S
C329 C331 1.390 . S
C329 H333 0.950 . S
H330 C326 0.950 . S
C331 C329 1.390 . S
C331 C332 1.387 . S
C331 H334 0.950 . S
C332 C331 1.387 . S
C332 C335 1.387 . S
H333 C329 0.950 . S
H334 C331 0.950 . S
C335 C326 1.390 . S
C335 H328 0.950 . S
C335 C332 1.387 . S
C336 C337 1.387 . S
C336 H340 0.950 . S
C336 C345 1.390 . S
C337 C336 1.387 . S
C337 C339 1.387 . S
H338 C345 0.950 . S
C339 C337 1.387 . S
C339 C341 1.390 . S
C339 H343 0.950 . S
H340 C336 0.950 . S
C341 C339 1.390 . S
C341 C342 1.387 . S
C341 H344 0.950 . S
C342 C341 1.387 . S
C342 C345 1.387 . S
H343 C339 0.950 . S
H344 C341 0.950 . S
C345 C336 1.390 . S
C345 H338 0.950 . S
C345 C342 1.387 . S
C346 C347 1.387 . S
C346 H350 0.950 . S
C346 C355 1.390 . S
C347 C346 1.387 . S
C347 C349 1.387 . S
H348 C355 0.950 . S
C349 C347 1.387 . S
C349 C351 1.390 . S
C349 H353 0.950 . S
H350 C346 0.950 . S
C351 C349 1.390 . S
C351 C352 1.387 . S
C351 H354 0.950 . S
C352 C351 1.387 . S
C352 C355 1.387 . S
H353 C349 0.950 . S
H354 C351 0.950 . S
C355 C346 1.390 . S
C355 H348 0.950 . S
C355 C352 1.387 . S
C356 C357 1.387 . S
C356 H360 0.950 . S
C356 C365 1.390 . S
C357 C356 1.387 . S
C357 C359 1.387 . S
H358 C365 0.950 . S
C359 C357 1.387 . S
C359 C361 1.390 . S
C359 H363 0.950 . S
H360 C356 0.950 . S
C361 C359 1.390 . S
C361 C362 1.387 . S
C361 H364 0.950 . S
C362 C361 1.387 . S
C362 C365 1.387 . S
H363 C359 0.950 . S
H364 C361 0.950 . S
C365 C356 1.390 . S
C365 H358 0.950 . S
C365 C362 1.387 . S
C366 C367 1.387 . S
C366 H370 0.950 . S
C366 C375 1.390 . S
C367 C366 1.387 . S
C367 C369 1.387 . S
H368 C375 0.950 . S
C369 C367 1.387 . S
C369 C371 1.390 . S
C369 H373 0.950 . S
H370 C366 0.950 . S
C371 C369 1.390 . S
C371 C372 1.387 . S
C371 H374 0.950 . S
C372 C371 1.387 . S
C372 C375 1.387 . S
H373 C369 0.950 . S
H374 C371 0.950 . S
C375 C366 1.390 . S
C375 H368 0.950 . S
C375 C372 1.387 . S
C376 C377 1.387 . S
C376 H380 0.950 . S
C376 C385 1.390 . S
C377 C376 1.387 . S
C377 C379 1.387 . S
H378 C385 0.950 . S
C379 C377 1.387 . S
C379 C381 1.390 . S
C379 H383 0.950 . S
H380 C376 0.950 . S
C381 C379 1.390 . S
C381 C382 1.387 . S
C381 H384 0.950 . S
C382 C381 1.387 . S
C382 C385 1.387 . S
H383 C379 0.950 . S
H384 C381 0.950 . S
C385 C376 1.390 . S
C385 H378 0.950 . S
C385 C382 1.387 . S
C386 C387 1.387 . S
C386 H390 0.950 . S
C386 C395 1.390 . S
C387 C386 1.387 . S
C387 C389 1.387 . S
H388 C395 0.950 . S
C389 C387 1.387 . S
C389 C391 1.390 . S
C389 H393 0.950 . S
H390 C386 0.950 . S
C391 C389 1.390 . S
C391 C392 1.387 . S
C391 H394 0.950 . S
C392 C391 1.387 . S
C392 C395 1.387 . S
H393 C389 0.950 . S
H394 C391 0.950 . S
C395 C386 1.390 . S
C395 H388 0.950 . S
C395 C392 1.387 . S
C157 C108 1.393 . S
C162 C4 1.394 . S
C167 C23 1.394 . S
C172 C127 1.394 . S
C177 C36 1.394 . S
C182 C134 1.394 . S
C187 C49 1.394 . S
C192 C153 1.393 . S
C197 C82 1.393 . S
C202 C56 1.393 . S
C207 C75 1.394 . S
C212 C95 1.393 . S
C217 C10 1.557 . S
C222 C70 1.536 . S
C227 C17 1.556 . S
C232 C3 1.536 . S
C237 C30 1.556 . S
C242 C18 1.536 . S
C247 C31 1.536 . S
C252 C43 1.557 . S
C257 C44 1.538 . S
C262 C62 1.557 . S
C267 C55 1.536 . S
C272 C69 1.556 . S
C277 C94 1.536 . S
C282 C88 1.557 . S
C287 C101 1.556 . S
C292 C107 1.538 . S
C297 C122 1.536 . S
C302 C114 1.557 . S
C307 C121 1.556 . S
C312 C133 1.536 . S
C317 C140 1.557 . S
C322 C148 1.536 . S
C327 C147 1.556 . S
C332 C81 1.537 . S
C337 C135 1.353 . S
C342 C5 1.353 . S
C347 C146 1.353 . S
C352 C16 1.354 . S
C357 C83 1.354 . S
C362 C29 1.354 . S
C367 C42 1.353 . S
C372 C96 1.353 . S
C377 C57 1.354 . S
C382 C109 1.353 . S
C387 C120 1.354 . S
C392 C68 1.353 . S
