# Generated by pormake.
# Topology yft, (5)-cn, num edge types: 1
# Building blocks:
#     Node 0, Type 0, BuildingBlock: XOMCOT_clean_sbu_1, # of connection points: 5
#     Node 1, Type 0, BuildingBlock: XOMCOT_clean_sbu_1, # of connection points: 5
#     Node 2, Type 0, BuildingBlock: XOMCOT_clean_sbu_1, # of connection points: 5
#     Node 3, Type 0, BuildingBlock: XOMCOT_clean_sbu_1, # of connection points: 5
#     Node 4, Type 0, BuildingBlock: XOMCOT_clean_sbu_1, # of connection points: 5
#     Node 5, Type 0, BuildingBlock: XOMCOT_clean_sbu_1, # of connection points: 5
#     Node 6, Type 0, BuildingBlock: XOMCOT_clean_sbu_1, # of connection points: 5
#     Node 7, Type 0, BuildingBlock: XOMCOT_clean_sbu_1, # of connection points: 5
#     Node 8, Type 0, BuildingBlock: XOMCOT_clean_sbu_1, # of connection points: 5
#     Node 9, Type 0, BuildingBlock: XOMCOT_clean_sbu_1, # of connection points: 5
#     Node 10, Type 0, BuildingBlock: XOMCOT_clean_sbu_1, # of connection points: 5
#     Node 11, Type 0, BuildingBlock: XOMCOT_clean_sbu_1, # of connection points: 5
#     Node 12, Type 0, BuildingBlock: XOMCOT_clean_sbu_1, # of connection points: 5
#     Node 13, Type 0, BuildingBlock: XOMCOT_clean_sbu_1, # of connection points: 5
#     Node 14, Type 0, BuildingBlock: XOMCOT_clean_sbu_1, # of connection points: 5
#     Node 15, Type 0, BuildingBlock: XOMCOT_clean_sbu_1, # of connection points: 5
#     Node 16, Type 0, BuildingBlock: XOMCOT_clean_sbu_1, # of connection points: 5
#     Node 17, Type 0, BuildingBlock: XOMCOT_clean_sbu_1, # of connection points: 5
#     Node 18, Type 0, BuildingBlock: XOMCOT_clean_sbu_1, # of connection points: 5
#     Node 19, Type 0, BuildingBlock: XOMCOT_clean_sbu_1, # of connection points: 5
#     Node 20, Type 0, BuildingBlock: XOMCOT_clean_sbu_1, # of connection points: 5
#     Node 21, Type 0, BuildingBlock: XOMCOT_clean_sbu_1, # of connection points: 5
#     Node 22, Type 0, BuildingBlock: XOMCOT_clean_sbu_1, # of connection points: 5
#     Node 23, Type 0, BuildingBlock: XOMCOT_clean_sbu_1, # of connection points: 5
#     Node 24, Type 0, BuildingBlock: XOMCOT_clean_sbu_1, # of connection points: 5
#     Node 25, Type 0, BuildingBlock: XOMCOT_clean_sbu_1, # of connection points: 5
#     Node 26, Type 0, BuildingBlock: XOMCOT_clean_sbu_1, # of connection points: 5
#     Node 27, Type 0, BuildingBlock: XOMCOT_clean_sbu_1, # of connection points: 5
#     Node 28, Type 0, BuildingBlock: XOMCOT_clean_sbu_1, # of connection points: 5
#     Node 29, Type 0, BuildingBlock: XOMCOT_clean_sbu_1, # of connection points: 5
#     Node 30, Type 0, BuildingBlock: XOMCOT_clean_sbu_1, # of connection points: 5
#     Node 31, Type 0, BuildingBlock: XOMCOT_clean_sbu_1, # of connection points: 5
#     Edge 32, Type (0, 0), BuildingBlock: OJICUG_clean_linker_0, # of connection points: 2
#     Edge 33, Type (0, 0), BuildingBlock: OJICUG_clean_linker_0, # of connection points: 2
#     Edge 34, Type (0, 0), BuildingBlock: OJICUG_clean_linker_0, # of connection points: 2
#     Edge 35, Type (0, 0), BuildingBlock: OJICUG_clean_linker_0, # of connection points: 2
#     Edge 36, Type (0, 0), BuildingBlock: OJICUG_clean_linker_0, # of connection points: 2
#     Edge 37, Type (0, 0), BuildingBlock: OJICUG_clean_linker_0, # of connection points: 2
#     Edge 38, Type (0, 0), BuildingBlock: OJICUG_clean_linker_0, # of connection points: 2
#     Edge 39, Type (0, 0), BuildingBlock: OJICUG_clean_linker_0, # of connection points: 2
#     Edge 40, Type (0, 0), BuildingBlock: OJICUG_clean_linker_0, # of connection points: 2
#     Edge 41, Type (0, 0), BuildingBlock: OJICUG_clean_linker_0, # of connection points: 2
#     Edge 42, Type (0, 0), BuildingBlock: OJICUG_clean_linker_0, # of connection points: 2
#     Edge 43, Type (0, 0), BuildingBlock: OJICUG_clean_linker_0, # of connection points: 2
#     Edge 44, Type (0, 0), BuildingBlock: OJICUG_clean_linker_0, # of connection points: 2
#     Edge 45, Type (0, 0), BuildingBlock: OJICUG_clean_linker_0, # of connection points: 2
#     Edge 46, Type (0, 0), BuildingBlock: OJICUG_clean_linker_0, # of connection points: 2
#     Edge 47, Type (0, 0), BuildingBlock: OJICUG_clean_linker_0, # of connection points: 2
#     Edge 48, Type (0, 0), BuildingBlock: OJICUG_clean_linker_0, # of connection points: 2
#     Edge 49, Type (0, 0), BuildingBlock: OJICUG_clean_linker_0, # of connection points: 2
#     Edge 50, Type (0, 0), BuildingBlock: OJICUG_clean_linker_0, # of connection points: 2
#     Edge 51, Type (0, 0), BuildingBlock: OJICUG_clean_linker_0, # of connection points: 2
#     Edge 52, Type (0, 0), BuildingBlock: OJICUG_clean_linker_0, # of connection points: 2
#     Edge 53, Type (0, 0), BuildingBlock: OJICUG_clean_linker_0, # of connection points: 2
#     Edge 54, Type (0, 0), BuildingBlock: OJICUG_clean_linker_0, # of connection points: 2
#     Edge 55, Type (0, 0), BuildingBlock: OJICUG_clean_linker_0, # of connection points: 2
#     Edge 56, Type (0, 0), BuildingBlock: OJICUG_clean_linker_0, # of connection points: 2
#     Edge 57, Type (0, 0), BuildingBlock: OJICUG_clean_linker_0, # of connection points: 2
#     Edge 58, Type (0, 0), BuildingBlock: OJICUG_clean_linker_0, # of connection points: 2
#     Edge 59, Type (0, 0), BuildingBlock: OJICUG_clean_linker_0, # of connection points: 2
#     Edge 60, Type (0, 0), BuildingBlock: OJICUG_clean_linker_0, # of connection points: 2
#     Edge 61, Type (0, 0), BuildingBlock: OJICUG_clean_linker_0, # of connection points: 2
#     Edge 62, Type (0, 0), BuildingBlock: OJICUG_clean_linker_0, # of connection points: 2
#     Edge 63, Type (0, 0), BuildingBlock: OJICUG_clean_linker_0, # of connection points: 2
#     Edge 64, Type (0, 0), BuildingBlock: OJICUG_clean_linker_0, # of connection points: 2
#     Edge 65, Type (0, 0), BuildingBlock: OJICUG_clean_linker_0, # of connection points: 2
#     Edge 66, Type (0, 0), BuildingBlock: OJICUG_clean_linker_0, # of connection points: 2
#     Edge 67, Type (0, 0), BuildingBlock: OJICUG_clean_linker_0, # of connection points: 2
#     Edge 68, Type (0, 0), BuildingBlock: OJICUG_clean_linker_0, # of connection points: 2
#     Edge 69, Type (0, 0), BuildingBlock: OJICUG_clean_linker_0, # of connection points: 2
#     Edge 70, Type (0, 0), BuildingBlock: OJICUG_clean_linker_0, # of connection points: 2
#     Edge 71, Type (0, 0), BuildingBlock: OJICUG_clean_linker_0, # of connection points: 2
#     Edge 72, Type (0, 0), BuildingBlock: OJICUG_clean_linker_0, # of connection points: 2
#     Edge 73, Type (0, 0), BuildingBlock: OJICUG_clean_linker_0, # of connection points: 2
#     Edge 74, Type (0, 0), BuildingBlock: OJICUG_clean_linker_0, # of connection points: 2
#     Edge 75, Type (0, 0), BuildingBlock: OJICUG_clean_linker_0, # of connection points: 2
#     Edge 76, Type (0, 0), BuildingBlock: OJICUG_clean_linker_0, # of connection points: 2
#     Edge 77, Type (0, 0), BuildingBlock: OJICUG_clean_linker_0, # of connection points: 2
#     Edge 78, Type (0, 0), BuildingBlock: OJICUG_clean_linker_0, # of connection points: 2
#     Edge 79, Type (0, 0), BuildingBlock: OJICUG_clean_linker_0, # of connection points: 2
#     Edge 80, Type (0, 0), BuildingBlock: OJICUG_clean_linker_0, # of connection points: 2
#     Edge 81, Type (0, 0), BuildingBlock: OJICUG_clean_linker_0, # of connection points: 2
#     Edge 82, Type (0, 0), BuildingBlock: OJICUG_clean_linker_0, # of connection points: 2
#     Edge 83, Type (0, 0), BuildingBlock: OJICUG_clean_linker_0, # of connection points: 2
#     Edge 84, Type (0, 0), BuildingBlock: OJICUG_clean_linker_0, # of connection points: 2
#     Edge 85, Type (0, 0), BuildingBlock: OJICUG_clean_linker_0, # of connection points: 2
#     Edge 86, Type (0, 0), BuildingBlock: OJICUG_clean_linker_0, # of connection points: 2
#     Edge 87, Type (0, 0), BuildingBlock: OJICUG_clean_linker_0, # of connection points: 2
#     Edge 88, Type (0, 0), BuildingBlock: OJICUG_clean_linker_0, # of connection points: 2
#     Edge 89, Type (0, 0), BuildingBlock: OJICUG_clean_linker_0, # of connection points: 2
#     Edge 90, Type (0, 0), BuildingBlock: OJICUG_clean_linker_0, # of connection points: 2
#     Edge 91, Type (0, 0), BuildingBlock: OJICUG_clean_linker_0, # of connection points: 2
#     Edge 92, Type (0, 0), BuildingBlock: OJICUG_clean_linker_0, # of connection points: 2
#     Edge 93, Type (0, 0), BuildingBlock: OJICUG_clean_linker_0, # of connection points: 2
#     Edge 94, Type (0, 0), BuildingBlock: OJICUG_clean_linker_0, # of connection points: 2
#     Edge 95, Type (0, 0), BuildingBlock: OJICUG_clean_linker_0, # of connection points: 2
#     Edge 96, Type (0, 0), BuildingBlock: OJICUG_clean_linker_0, # of connection points: 2
#     Edge 97, Type (0, 0), BuildingBlock: OJICUG_clean_linker_0, # of connection points: 2
#     Edge 98, Type (0, 0), BuildingBlock: OJICUG_clean_linker_0, # of connection points: 2
#     Edge 99, Type (0, 0), BuildingBlock: OJICUG_clean_linker_0, # of connection points: 2
#     Edge 100, Type (0, 0), BuildingBlock: OJICUG_clean_linker_0, # of connection points: 2
#     Edge 101, Type (0, 0), BuildingBlock: OJICUG_clean_linker_0, # of connection points: 2
#     Edge 102, Type (0, 0), BuildingBlock: OJICUG_clean_linker_0, # of connection points: 2
#     Edge 103, Type (0, 0), BuildingBlock: OJICUG_clean_linker_0, # of connection points: 2
#     Edge 104, Type (0, 0), BuildingBlock: OJICUG_clean_linker_0, # of connection points: 2
#     Edge 105, Type (0, 0), BuildingBlock: OJICUG_clean_linker_0, # of connection points: 2
#     Edge 106, Type (0, 0), BuildingBlock: OJICUG_clean_linker_0, # of connection points: 2
#     Edge 107, Type (0, 0), BuildingBlock: OJICUG_clean_linker_0, # of connection points: 2
#     Edge 108, Type (0, 0), BuildingBlock: OJICUG_clean_linker_0, # of connection points: 2
#     Edge 109, Type (0, 0), BuildingBlock: OJICUG_clean_linker_0, # of connection points: 2
#     Edge 110, Type (0, 0), BuildingBlock: OJICUG_clean_linker_0, # of connection points: 2
#     Edge 111, Type (0, 0), BuildingBlock: OJICUG_clean_linker_0, # of connection points: 2
# Relax obj value: 0.672
# Max RMSD: 0.307
# Mean RMSD: 0.307
data_MOF--net-yft--node1-XOMCOT_clean_sbu_1--edge1-OJICUG_clean_linker_0
_symmetry_space_group_name_H-M    P1
_symmetry_Int_Tables_number       1
_symmetry_cell_setting            triclinic
loop_
_symmetry_equiv_pos_as_xyz
'x, y, z'
_cell_length_a     32.254333
_cell_length_b     32.212549
_cell_length_c     66.457495
_cell_angle_alpha  90.102545
_cell_angle_beta   89.873542
_cell_angle_gamma 89.936642
loop_
_atom_site_label
_atom_site_type_symbol
_atom_site_fract_x
_atom_site_fract_y
_atom_site_fract_z
_atom_type_partial_charge
C0 C 0.22028 0.22285 0.16281 0.0
C1 C 0.18652 0.20655 0.15302 0.0
N2 N 0.19428 0.16637 0.14869 0.0
N3 N 0.2499 0.19349 0.16445 0.0
C4 C 0.23225 0.15873 0.15658 0.0
H5 H 0.22423 0.25501 0.16705 0.0
Co6 Co 0.30411 0.20691 0.17333 0.0
C7 C 0.33297 0.1276 0.15573 0.0
O8 O 0.3167 0.136 0.13812 0.0
N9 N 0.35792 0.21883 0.18462 0.0
C10 C 0.41334 0.20443 0.20362 0.0
C11 C 0.37473 0.19156 0.19785 0.0
C12 C 0.38643 0.24991 0.18397 0.0
N13 N 0.42106 0.24076 0.19459 0.0
O14 O 0.28466 0.20075 0.20046 0.0
H15 H 0.36033 0.16294 0.20265 0.0
H16 H 0.38299 0.27776 0.17504 0.0
O17 O 0.32336 0.1496 0.17104 0.0
C18 C 0.277 0.23792 0.2063 0.0
O19 O 0.28406 0.26835 0.1936 0.0
N20 N 0.32152 0.21962 0.14541 0.0
C21 C 0.32772 0.28318 0.11735 0.0
C22 C 0.29352 0.25705 0.11707 0.0
C23 C 0.29164 0.22456 0.13084 0.0
C24 C 0.35925 0.23711 0.14153 0.0
C25 C 0.36244 0.2711 0.12854 0.0
H26 H 0.26476 0.20523 0.12992 0.0
H27 H 0.38679 0.22632 0.14892 0.0
H28 H 0.24793 0.12928 0.15516 0.0
H29 H 0.15916 0.22369 0.14859 0.0
H30 H 0.43512 0.18719 0.21276 0.0
H31 H 0.26763 0.26286 0.10709 0.0
H32 H 0.3914 0.28796 0.12742 0.0
C33 C 0.03617 0.97662 0.40582 0.0
C34 C 0.05174 0.9419 0.39644 0.0
N35 N 0.09343 0.94453 0.39596 0.0
N36 N 0.06762 1.00161 0.4114 0.0
C37 C 0.10222 0.98037 0.40581 0.0
H38 H 1.00161 0.98502 0.40664 0.0
Co39 Co 0.05945 0.06067 0.41779 0.0
C40 C 0.15024 0.07447 0.40188 0.0
O41 O 0.15103 0.05011 0.38603 0.0
N42 N 0.05296 0.11848 0.42327 0.0
C43 C 0.06067 0.18524 0.41563 0.0
C44 C 0.07072 0.1458 0.41042 0.0
C45 C 0.03074 0.14286 0.43606 0.0
N46 N 0.03516 0.18368 0.43153 0.0
O47 O 0.0682 0.04988 0.44591 0.0
H48 H 0.08815 0.13759 0.39709 0.0
H49 H 0.00974 0.13101 0.4474 0.0
O50 O 0.11782 0.07569 0.41295 0.0
C51 C 0.03162 0.03848 0.45128 0.0
O52 O 1.00034 0.0368 0.43756 0.0
N53 N 0.04082 0.06972 0.39143 0.0
C54 C 0.9838 0.07412 0.35924 0.0
C55 C 0.02652 0.05931 0.35622 0.0
C56 C 0.0538 0.05697 0.3728 0.0
C57 C 0.99904 0.08347 0.39413 0.0
C58 C 0.97188 0.08714 0.37834 0.0
H59 H 0.08354 0.04233 0.37085 0.0
H60 H 0.98718 0.08985 0.409 0.0
H61 H 0.1333 0.9914 0.40825 0.0
H62 H 0.03335 0.91854 0.38889 0.0
H63 H 0.06891 0.21306 0.4074 0.0
H64 H 0.03627 0.04815 0.34158 0.0
H65 H 0.94069 0.0983 0.38128 0.0
C66 C 0.28793 0.77798 0.65529 0.0
C67 C 0.32126 0.79194 0.64421 0.0
N68 N 0.32178 0.83392 0.64448 0.0
N69 N 0.26684 0.81069 0.66266 0.0
C70 C 0.28918 0.84419 0.65649 0.0
H71 H 0.27775 0.7461 0.65649 0.0
Co72 Co 0.2118 0.8084 0.67298 0.0
C73 C 0.19452 0.88578 0.65037 0.0
O74 O 0.22299 0.89801 0.63753 0.0
N75 N 0.15517 0.80855 0.68365 0.0
C76 C 0.0953 0.83516 0.6952 0.0
C77 C 0.13517 0.84381 0.68932 0.0
C78 C 0.1263 0.77851 0.68738 0.0
N79 N 0.08985 0.7941 0.69397 0.0
O80 O 0.23143 0.82012 0.69947 0.0
H81 H 0.14823 0.87463 0.68916 0.0
H82 H 0.13096 0.7456 0.68555 0.0
O83 O 0.20507 0.86737 0.66652 0.0
C84 C 0.23448 0.78292 0.70615 0.0
O85 O 0.22786 0.75203 0.69369 0.0
N86 N 0.1939 0.78808 0.64783 0.0
C87 C 0.17381 0.73449 0.61639 0.0
C88 C 0.19399 0.77217 0.61237 0.0
C89 C 0.20417 0.79871 0.62849 0.0
C90 C 0.17893 0.74938 0.65149 0.0
C91 C 0.1663 0.72338 0.63624 0.0
H92 H 0.22245 0.82591 0.62543 0.0
H93 H 0.18077 0.73646 0.66625 0.0
H94 H 0.28062 0.87572 0.66002 0.0
H95 H 0.34182 0.77214 0.63564 0.0
H96 H 0.0716 0.85746 0.69931 0.0
H97 H 0.20307 0.78015 0.59716 0.0
H98 H 0.15436 0.6929 0.64004 0.0
C99 C 0.47162 0.04854 0.91701 0.0
C100 C 0.45642 0.0836 0.90763 0.0
N101 N 0.41806 0.07546 0.90074 0.0
N102 N 0.44306 0.018 0.91636 0.0
C103 C 0.41036 0.03597 0.90666 0.0
H104 H 0.50262 0.04497 0.9229 0.0
Co105 Co 0.45326 0.95879 0.92346 0.0
C106 C 0.36955 0.93856 0.90372 0.0
O107 O 0.37973 0.95201 0.88579 0.0
N108 N 0.46087 0.90035 0.92981 0.0
C109 C 0.45413 0.83294 0.92271 0.0
C110 C 0.44397 0.87218 0.91713 0.0
C111 C 0.48345 0.87639 0.94271 0.0
N112 N 0.47945 0.83514 0.9386 0.0
O113 O 0.44139 0.97093 0.95118 0.0
H114 H 0.42777 0.87957 0.90342 0.0
H115 H 0.50477 0.88887 0.95372 0.0
O116 O 0.39504 0.94255 0.91828 0.0
C117 C 0.47776 0.98016 0.9576 0.0
O118 O 0.50927 0.97712 0.94516 0.0
N119 N 0.47584 0.94956 0.89743 0.0
C120 C 0.53785 0.95155 0.86781 0.0
C121 C 0.4987 0.9691 0.86413 0.0
C122 C 0.46823 0.96856 0.87936 0.0
C123 C 0.5142 0.93284 0.90078 0.0
C124 C 0.5445 0.932 0.88619 0.0
H125 H 0.44082 0.98689 0.87702 0.0
H126 H 0.52375 0.92313 0.91553 0.0
H127 H 0.38156 0.02064 0.90344 0.0
H128 H 0.4733 0.11213 0.90505 0.0
H129 H 0.44696 0.80487 0.91441 0.0
H130 H 0.4925 0.98498 0.8501 0.0
H131 H 0.57379 0.9173 0.88977 0.0
C132 C 0.22262 0.79113 0.3275 0.0
C133 C 0.18816 0.80607 0.33731 0.0
N134 N 0.19433 0.84642 0.34206 0.0
N135 N 0.25123 0.82139 0.32618 0.0
C136 C 0.23216 0.85535 0.33414 0.0
H137 H 0.22782 0.75924 0.32306 0.0
Co138 Co 0.30629 0.80982 0.31773 0.0
C139 C 0.33134 0.88925 0.33589 0.0
O140 O 0.31365 0.8805 0.35316 0.0
N141 N 0.3612 0.79963 0.30676 0.0
C142 C 0.41568 0.81566 0.2873 0.0
C143 C 0.37669 0.82717 0.29327 0.0
C144 C 0.39106 0.76969 0.3074 0.0
N145 N 0.42508 0.77993 0.29649 0.0
O146 O 0.28803 0.81628 0.29072 0.0
H147 H 0.36101 0.85503 0.28835 0.0
H148 H 0.38869 0.74154 0.31619 0.0
O149 O 0.32331 0.8674 0.32036 0.0
C150 C 0.28401 0.77891 0.2845 0.0
O151 O 0.29213 0.74853 0.29709 0.0
N152 N 0.3228 0.79716 0.34567 0.0
C153 C 0.32699 0.73106 0.37221 0.0
C154 C 0.293 0.75749 0.3728 0.0
C155 C 0.29227 0.79145 0.35989 0.0
C156 C 0.36025 0.77918 0.34959 0.0
C157 C 0.36249 0.74393 0.36179 0.0
H158 H 0.26567 0.81121 0.36101 0.0
H159 H 0.38823 0.79065 0.34282 0.0
H160 H 0.24672 0.88532 0.33525 0.0
H161 H 0.16184 0.78735 0.3416 0.0
H162 H 0.43636 0.83321 0.27768 0.0
H163 H 0.2665 0.75094 0.38233 0.0
H164 H 0.39129 0.72673 0.36287 0.0
C165 C 0.47926 0.97114 0.58311 0.0
C166 C 0.46357 0.93547 0.5917 0.0
N167 N 0.42231 0.93995 0.59405 0.0
N168 N 0.44822 0.99856 0.58013 0.0
C169 C 0.41362 0.97762 0.5861 0.0
H170 H 0.51175 0.97798 0.58086 0.0
Co171 Co 0.45606 0.05832 0.5736 0.0
C172 C 0.37335 0.07101 0.59413 0.0
O173 O 0.38505 0.0506 0.61019 0.0
N174 N 0.46016 0.116 0.56647 0.0
C175 C 0.44634 0.18346 0.56989 0.0
C176 C 0.43749 0.14468 0.57653 0.0
C177 C 0.48433 0.13928 0.554 0.0
N178 N 0.47632 0.18052 0.55601 0.0
O179 O 0.44763 0.04496 0.54554 0.0
H180 H 0.42031 0.13874 0.59007 0.0
H181 H 0.50947 0.12673 0.54505 0.0
O182 O 0.39648 0.07038 0.57845 0.0
C183 C 0.48457 0.03589 0.53968 0.0
O184 O 0.51472 0.03888 0.55286 0.0
N185 N 0.47447 0.07039 0.60126 0.0
C186 C 0.53862 0.06566 0.62957 0.0
C187 C 0.50605 0.03727 0.63023 0.0
C188 C 0.47338 0.04109 0.61635 0.0
C189 C 0.50394 0.1011 0.60275 0.0
C190 C 0.53517 0.0998 0.61696 0.0
H191 H 0.45052 0.01689 0.6166 0.0
H192 H 0.5086 0.1245 0.59161 0.0
H193 H 0.38261 0.99004 0.58549 0.0
H194 H 0.48167 0.90961 0.59726 0.0
H195 H 0.43543 0.21213 0.57664 0.0
H196 H 0.50732 0.01074 0.6402 0.0
H197 H 0.55962 0.12288 0.61634 0.0
C198 C 0.29431 0.23993 0.83576 0.0
C199 C 0.32747 0.22532 0.84687 0.0
N200 N 0.32543 0.18347 0.84785 0.0
N201 N 0.27094 0.20767 0.82967 0.0
C202 C 0.2916 0.17374 0.83676 0.0
H203 H 0.28586 0.27217 0.83379 0.0
Co204 Co 0.21476 0.21002 0.82038 0.0
C205 C 0.19181 0.12086 0.83642 0.0
O206 O 0.2151 0.08783 0.83904 0.0
N207 N 0.15772 0.20912 0.8109 0.0
C208 C 0.10133 0.18121 0.79651 0.0
C209 C 0.14203 0.17486 0.80181 0.0
C210 C 0.12539 0.23647 0.81022 0.0
N211 N 0.09118 0.22009 0.8017 0.0
O212 O 0.23235 0.19564 0.79341 0.0
H213 H 0.15912 0.14648 0.7992 0.0
H214 H 0.12581 0.268 0.8156 0.0
O215 O 0.20889 0.15348 0.82945 0.0
C216 C 0.23579 0.23238 0.78606 0.0
O217 O 0.23014 0.2639 0.7983 0.0
N218 N 0.19965 0.23213 0.8453 0.0
C219 C 0.19901 0.29138 0.87586 0.0
C220 C 0.21206 0.25053 0.87996 0.0
C221 C 0.21174 0.22077 0.86427 0.0
C222 C 0.18721 0.27164 0.84166 0.0
C223 C 0.18349 0.3004 0.85681 0.0
H224 H 0.22477 0.19029 0.86683 0.0
H225 H 0.18488 0.28282 0.82651 0.0
H226 H 0.28041 0.14236 0.83527 0.0
H227 H 0.35 0.2445 0.85452 0.0
H228 H 0.08057 0.15885 0.78972 0.0
H229 H 0.22458 0.24252 0.89455 0.0
H230 H 0.17292 0.33134 0.85294 0.0
C231 C 0.0412 0.04607 0.07808 0.0
C232 C 0.05806 0.07798 0.08906 0.0
N233 N 0.09542 0.06593 0.09591 0.0
N234 N 0.06782 0.01375 0.07761 0.0
C235 C 0.10061 0.02678 0.08881 0.0
H236 H 0.01093 0.04648 0.07118 0.0
Co237 Co 0.05726 0.96048 0.06421 0.0
C238 C 0.12022 0.90468 0.07806 0.0
O239 O 0.08944 0.87941 0.08196 0.0
N240 N 0.04863 0.90829 0.0499 0.0
C241 C 0.06369 0.8577 0.02777 0.0
C242 C 0.07147 0.89796 0.03345 0.0
C243 C 0.02727 0.87279 0.05386 0.0
N244 N 0.03624 0.84177 0.04076 0.0
O245 O 0.07355 0.9848 0.03927 0.0
H246 H 0.09485 0.91741 0.02663 0.0
H247 H 0.00818 0.86813 0.06704 0.0
O248 O 0.11324 0.941 0.07112 0.0
C249 C 0.03768 0.99632 0.03314 0.0
O250 O 1.00336 0.99071 0.04489 0.0
N251 N 0.03338 0.94082 0.08785 0.0
C252 C 0.97645 0.9351 0.11998 0.0
C253 C 0.02142 0.93723 0.12354 0.0
C254 C 0.04858 0.94125 0.10708 0.0
C255 C 0.98975 0.93832 0.08451 0.0
C256 C 0.96202 0.93487 0.10022 0.0
H257 H 0.08117 0.94656 0.10978 0.0
H258 H 0.97774 0.94008 0.06941 0.0
H259 H 0.12733 1.00589 0.09173 0.0
H260 H 0.04333 0.10751 0.09219 0.0
H261 H 0.07946 0.84046 0.01602 0.0
H262 H 0.03341 0.93741 0.13875 0.0
H263 H 0.9292 0.93254 0.09691 0.0
C264 C 0.80074 0.80773 0.82046 0.0
C265 C 0.83188 0.82688 0.83112 0.0
N266 N 0.81437 0.85355 0.84418 0.0
N267 N 0.76356 0.82264 0.82649 0.0
C268 C 0.77304 0.85056 0.84112 0.0
H269 H 0.80526 0.78464 0.80885 0.0
Co270 Co 0.71188 0.80823 0.81503 0.0
C271 C 0.65256 0.86912 0.82859 0.0
O272 O 0.62931 0.83758 0.83385 0.0
N273 N 0.65893 0.79492 0.80272 0.0
C274 C 0.60505 0.80657 0.78243 0.0
C275 C 0.64502 0.81714 0.78681 0.0
C276 C 0.62573 0.77078 0.80773 0.0
N277 N 0.59259 0.77776 0.79567 0.0
O278 O 0.73143 0.82641 0.78936 0.0
H279 H 0.66168 0.84199 0.7795 0.0
H280 H 0.62459 0.75061 0.82069 0.0
O281 O 0.68926 0.86324 0.82185 0.0
C282 C 0.74074 0.79171 0.78116 0.0
O283 O 0.73805 0.75768 0.79186 0.0
N284 N 0.69661 0.78382 0.83926 0.0
C285 C 0.6866 0.72927 0.87105 0.0
C286 C 0.68438 0.7722 0.87446 0.0
C287 C 0.69069 0.79938 0.85823 0.0
C288 C 0.69974 0.7422 0.83618 0.0
C289 C 0.69457 0.71447 0.85173 0.0
H290 H 0.69098 0.83244 0.86094 0.0
H291 H 0.7058 0.73012 0.82136 0.0
H292 H 0.75032 0.86914 0.84906 0.0
H293 H 0.86487 0.82151 0.82952 0.0
H294 H 0.58567 0.82103 0.77115 0.0
H295 H 0.67862 0.78437 0.8894 0.0
H296 H 0.69628 0.68146 0.8486 0.0
C297 C 0.97281 0.05131 0.57867 0.0
C298 C 0.95668 0.08155 0.59099 0.0
N299 N 0.91933 0.06909 0.5978 0.0
N300 N 0.94585 0.01953 0.5772 0.0
C301 C 0.91334 0.03136 0.58905 0.0
H302 H 1.00334 0.05198 0.57199 0.0
Co303 Co 0.95802 0.96608 0.56417 0.0
C304 C 0.8981 0.90743 0.57944 0.0
O305 O 0.93007 0.88362 0.58328 0.0
N306 N 0.96955 0.91335 0.55087 0.0
C307 C 0.9553 0.8591 0.53097 0.0
C308 C 0.94614 0.89978 0.5353 0.0
C309 C 0.99307 0.87946 0.55559 0.0
N310 N 0.98449 0.84605 0.54388 0.0
O311 O 0.93944 0.98789 0.53866 0.0
H312 H 0.92144 0.91723 0.52833 0.0
H313 H 0.016 0.8779 0.56828 0.0
O314 O 0.90327 0.94371 0.57201 0.0
C315 C 0.97358 1.00276 0.53178 0.0
O316 O 0.00853 1.0017 0.54334 0.0
N317 N 0.98385 0.94942 0.58761 0.0
C318 C 0.04256 0.93673 0.61813 0.0
C319 C 0.99791 0.93783 0.62256 0.0
C320 C 0.96974 0.94572 0.60695 0.0
C321 C 0.02734 0.95083 0.58364 0.0
C322 C 0.05611 0.94425 0.59858 0.0
H323 H 0.9371 0.94879 0.61033 0.0
H324 H 0.03823 0.95598 0.56851 0.0
H325 H 0.88676 0.01187 0.59205 0.0
H326 H 0.97194 0.11036 0.59485 0.0
H327 H 0.93968 0.83984 0.51999 0.0
H328 H 0.98681 0.93244 0.63772 0.0
H329 H 0.0888 0.94353 0.59475 0.0
C330 C 0.71162 0.21168 0.32425 0.0
C331 C 0.67849 0.19581 0.3347 0.0
N332 N 0.68938 0.15877 0.34243 0.0
N333 N 0.74402 0.18525 0.32541 0.0
C334 C 0.72897 0.1525 0.33616 0.0
H335 H 0.71281 0.24203 0.31739 0.0
Co336 Co 0.79709 0.20119 0.31536 0.0
C337 C 0.83179 0.12453 0.333 0.0
O338 O 0.81823 0.13453 0.35101 0.0
N339 N 0.84984 0.21471 0.30285 0.0
C340 C 0.902 0.20078 0.28148 0.0
C341 C 0.86384 0.18863 0.28825 0.0
C342 C 0.87993 0.24422 0.30359 0.0
N343 N 0.91252 0.23544 0.29132 0.0
O344 O 0.77634 0.194 0.28854 0.0
H345 H 0.84816 0.16068 0.28343 0.0
H346 H 0.87959 0.2702 0.31393 0.0
O347 O 0.81942 0.14485 0.31765 0.0
C348 C 0.77041 0.23157 0.28278 0.0
O349 O 0.77687 0.26155 0.29586 0.0
N350 N 0.81542 0.21629 0.34265 0.0
C351 C 0.82979 0.28005 0.36993 0.0
C352 C 0.79215 0.2595 0.37017 0.0
C353 C 0.78574 0.22734 0.35661 0.0
C354 C 0.85518 0.22867 0.34636 0.0
C355 C 0.86277 0.26269 0.35902 0.0
H356 H 0.75534 0.21438 0.35706 0.0
H357 H 0.88085 0.2148 0.33847 0.0
H358 H 0.74664 0.12519 0.33992 0.0
H359 H 0.6493 0.21153 0.33734 0.0
H360 H 0.92222 0.18323 0.27159 0.0
H361 H 0.7668 0.27024 0.37958 0.0
H362 H 0.89355 0.27604 0.35976 0.0
C363 C 0.543 0.96788 0.0719 0.0
C364 C 0.5595 0.93284 0.08071 0.0
N365 N 0.59712 0.94237 0.08812 0.0
N366 N 0.57011 0.99958 0.07349 0.0
C367 C 0.60312 0.98253 0.0831 0.0
H368 H 0.51196 0.9706 0.06597 0.0
Co369 Co 0.55755 0.05833 0.0685 0.0
C370 C 0.64512 0.08191 0.08524 0.0
O371 O 0.64322 0.06468 0.10307 0.0
N372 N 0.54693 0.1163 0.06455 0.0
C373 C 0.54998 0.18207 0.07483 0.0
C374 C 0.56063 0.14239 0.0791 0.0
C375 C 0.52698 0.14182 0.05144 0.0
N376 N 0.52844 0.18202 0.05763 0.0
O377 O 0.56775 0.05035 0.04009 0.0
H378 H 0.57687 0.13311 0.09256 0.0
H379 H 0.5103 0.13115 0.03831 0.0
O380 O 0.61503 0.07748 0.07293 0.0
C381 C 0.53186 0.04007 0.03342 0.0
O382 O 0.50042 0.03991 0.04595 0.0
N383 N 0.53763 0.06331 0.0951 0.0
C384 C 0.48233 0.06961 0.12723 0.0
C385 C 0.52344 0.05689 0.13059 0.0
C386 C 0.55071 0.05289 0.11402 0.0
C387 C 0.4971 0.0737 0.09203 0.0
C388 C 0.46956 0.078 0.10772 0.0
H389 H 0.58083 0.03958 0.11643 0.0
H390 H 0.48545 0.07875 0.07706 0.0
H391 H 0.63094 0.99889 0.08682 0.0
H392 H 0.54378 0.90346 0.08272 0.0
H393 H 0.55625 0.20905 0.08409 0.0
H394 H 0.53383 0.04905 0.14559 0.0
H395 H 0.43798 0.08752 0.10452 0.0
C396 C 0.7873 0.22619 0.66077 0.0
C397 C 0.8227 0.2094 0.65231 0.0
N398 N 0.81762 0.16803 0.65055 0.0
N399 N 0.75952 0.19569 0.66422 0.0
C400 C 0.77994 0.16044 0.65867 0.0
H401 H 0.78092 0.25893 0.66263 0.0
Co402 Co 0.70205 0.2031 0.67091 0.0
C403 C 0.69047 0.11951 0.6507 0.0
O404 O 0.70819 0.13191 0.63399 0.0
N405 N 0.64437 0.2069 0.67828 0.0
C406 C 0.57732 0.19093 0.6762 0.0
C407 C 0.61593 0.18243 0.66921 0.0
C408 C 0.62094 0.23205 0.69031 0.0
N409 N 0.57991 0.22271 0.68914 0.0
O410 O 0.71527 0.19474 0.6987 0.0
H411 H 0.62163 0.16344 0.6562 0.0
H412 H 0.63313 0.25873 0.69824 0.0
O413 O 0.69071 0.14342 0.66611 0.0
C414 C 0.72374 0.23209 0.70411 0.0
O415 O 0.72118 0.2616 0.69053 0.0
N416 N 0.68994 0.22181 0.64349 0.0
C417 C 0.69505 0.28661 0.61539 0.0
C418 C 0.72224 0.25294 0.61412 0.0
C419 C 0.71879 0.22046 0.62817 0.0
C420 C 0.66008 0.25223 0.64258 0.0
C421 C 0.662 0.28425 0.62878 0.0
H422 H 0.74253 0.19704 0.62765 0.0
H423 H 0.63646 0.25633 0.65368 0.0
H424 H 0.76727 0.12961 0.65977 0.0
H425 H 0.84877 0.22675 0.64644 0.0
H426 H 0.54872 0.17854 0.67013 0.0
H427 H 0.74735 0.25289 0.60328 0.0
H428 H 0.63893 0.30874 0.62953 0.0
C429 C 0.52905 0.03766 0.40934 0.0
C430 C 0.54337 0.07078 0.39837 0.0
N431 N 0.58526 0.07057 0.39855 0.0
N432 N 0.56142 0.01595 0.41655 0.0
C433 C 0.59509 0.03837 0.41084 0.0
H434 H 0.4971 0.02766 0.41025 0.0
Co435 Co 0.55541 0.95768 0.42516 0.0
C436 C 0.64197 0.94541 0.40405 0.0
O437 O 0.64386 0.97614 0.39119 0.0
N438 N 0.55092 0.89967 0.43382 0.0
C439 C 0.56865 0.83269 0.43706 0.0
C440 C 0.58209 0.8714 0.43219 0.0
C441 C 0.51873 0.87615 0.44081 0.0
N442 N 0.52898 0.83547 0.44256 0.0
O443 O 0.56814 0.97371 0.45247 0.0
H444 H 0.61342 0.87705 0.42768 0.0
H445 H 0.48806 0.88806 0.44402 0.0
O446 O 0.61335 0.94435 0.41747 0.0
C447 C 0.53182 0.9845 0.45863 0.0
O448 O 0.5009 0.98185 0.44586 0.0
N449 N 0.5343 0.94406 0.39967 0.0
C450 C 0.48007 0.93874 0.36731 0.0
C451 C 0.52032 0.95363 0.36435 0.0
C452 C 0.54685 0.95704 0.38101 0.0
C453 C 0.49467 0.93072 0.40237 0.0
C454 C 0.46762 0.92662 0.38646 0.0
H455 H 0.57575 0.97285 0.379 0.0
H456 H 0.48213 0.92725 0.41721 0.0
H457 H 0.62639 0.02996 0.41474 0.0
H458 H 0.5239 0.09158 0.38984 0.0
H459 H 0.58634 0.80415 0.43598 0.0
H460 H 0.53029 0.96441 0.3497 0.0
H461 H 0.43621 0.91616 0.38932 0.0
C462 C 0.72061 0.78246 0.15409 0.0
C463 C 0.68629 0.79803 0.14442 0.0
N464 N 0.69147 0.83919 0.14168 0.0
N465 N 0.74798 0.81335 0.15722 0.0
C466 C 0.72825 0.848 0.15052 0.0
H467 H 0.72659 0.75011 0.15731 0.0
Co468 Co 0.80266 0.80338 0.16646 0.0
C469 C 0.82667 0.88535 0.15074 0.0
O470 O 0.80971 0.8789 0.13309 0.0
N471 N 0.85676 0.7953 0.17845 0.0
C472 C 0.90694 0.81343 0.20004 0.0
C473 C 0.86852 0.82295 0.19281 0.0
C474 C 0.88839 0.76724 0.1785 0.0
N475 N 0.91983 0.77881 0.1908 0.0
O476 O 0.78154 0.80557 0.19324 0.0
H477 H 0.85043 0.84938 0.19771 0.0
H478 H 0.88904 0.73935 0.1694 0.0
O479 O 0.81704 0.86218 0.16557 0.0
C480 C 0.77904 0.76747 0.19859 0.0
O481 O 0.78952 0.73862 0.18551 0.0
N482 N 0.82237 0.79434 0.13846 0.0
C483 C 0.82649 0.72971 0.11084 0.0
C484 C 0.79352 0.75744 0.11012 0.0
C485 C 0.79323 0.79102 0.12343 0.0
C486 C 0.85935 0.77486 0.13501 0.0
C487 C 0.86145 0.74056 0.1221 0.0
H488 H 0.76734 0.81178 0.12234 0.0
H489 H 0.887 0.78419 0.14267 0.0
H490 H 0.74182 0.87857 0.15058 0.0
H491 H 0.66048 0.77987 0.13891 0.0
H492 H 0.92492 0.83166 0.21058 0.0
H493 H 0.76714 0.75183 0.10043 0.0
H494 H 0.88923 0.72162 0.12168 0.0
C495 C 0.96037 0.96962 0.9195 0.0
C496 C 0.94288 0.93584 0.90989 0.0
N497 N 0.90996 0.94928 0.89947 0.0
N498 N 0.93847 1.00446 0.9153 0.0
C499 C 0.90775 0.99035 0.90306 0.0
H500 H 0.98761 0.96833 0.92888 0.0
Co501 Co 0.94797 0.06215 0.92547 0.0
C502 C 0.86757 0.08642 0.90444 0.0
O503 O 0.88454 0.08367 0.88659 0.0
N504 N 0.95373 0.11811 0.93576 0.0
C505 C 0.94342 0.18644 0.93635 0.0
C506 C 0.93302 0.15001 0.92734 0.0
C507 C 0.97904 0.13714 0.94931 0.0
N508 N 0.97334 0.17895 0.94983 0.0
O509 O 0.93496 0.04408 0.95191 0.0
H510 H 0.91568 0.1482 0.91359 0.0
H511 H 1.00413 0.12145 0.95697 0.0
O512 O 0.88896 0.07755 0.92005 0.0
C513 C 0.97193 0.03481 0.9574 0.0
O514 O 1.0025 0.03893 0.94447 0.0
N515 N 0.97197 0.07882 0.90047 0.0
C516 C 0.03186 0.10147 0.87098 0.0
C517 C 0.99489 0.07759 0.86586 0.0
C518 C 0.96665 0.0658 0.88098 0.0
C519 C 0.0105 0.0981 0.90537 0.0
C520 C 0.03826 0.11149 0.89104 0.0
H521 H 0.94269 0.04407 0.87701 0.0
H522 H 0.02056 0.10061 0.9207 0.0
H523 H 0.8843 0.01131 0.89659 0.0
H524 H 0.95405 0.90414 0.91013 0.0
H525 H 0.93474 0.21695 0.93093 0.0
H526 H 0.99071 0.06652 0.8506 0.0
H527 H 0.06664 0.12641 0.89595 0.0
C528 C 0.72552 0.72439 0.65905 0.0
C529 C 0.69114 0.70812 0.64971 0.0
N530 N 0.69648 0.66684 0.64772 0.0
N531 N 0.7532 0.69374 0.66236 0.0
C532 C 0.73366 0.65866 0.65615 0.0
H533 H 0.73141 0.75695 0.66179 0.0
Co534 Co 0.80771 0.70345 0.67168 0.0
C535 C 0.83246 0.62296 0.6544 0.0
O536 O 0.81534 0.63047 0.6369 0.0
N537 N 0.86182 0.71108 0.6838 0.0
C538 C 0.9138 0.69253 0.70431 0.0
C539 C 0.87531 0.68234 0.69725 0.0
C540 C 0.89209 0.74043 0.68447 0.0
N541 N 0.92453 0.72879 0.69607 0.0
O542 O 0.78682 0.69922 0.69814 0.0
H543 H 0.85854 0.65465 0.70147 0.0
H544 H 0.89128 0.76918 0.67608 0.0
O545 O 0.82261 0.64498 0.66965 0.0
C546 C 0.784 0.73771 0.70275 0.0
O547 O 0.79462 0.76582 0.68939 0.0
N548 N 0.82708 0.71495 0.644 0.0
C549 C 0.83021 0.78196 0.61773 0.0
C550 C 0.79796 0.75346 0.61625 0.0
C551 C 0.79791 0.71907 0.62904 0.0
C552 C 0.86352 0.73563 0.64118 0.0
C553 C 0.865 0.77105 0.62912 0.0
H554 H 0.77246 0.69782 0.62752 0.0
H555 H 0.89148 0.72581 0.64844 0.0
H556 H 0.74743 0.6281 0.65631 0.0
H557 H 0.66529 0.72562 0.64371 0.0
H558 H 0.93332 0.67379 0.71394 0.0
H559 H 0.77228 0.75856 0.60607 0.0
H560 H 0.89289 0.78976 0.62875 0.0
C561 C 0.53404 0.47381 0.90576 0.0
C562 C 0.55146 0.43958 0.89649 0.0
N563 N 0.59304 0.44311 0.89726 0.0
N564 N 0.56442 0.49903 0.91247 0.0
C565 C 0.59996 0.47882 0.9074 0.0
H566 H 0.50128 0.48074 0.90677 0.0
Co567 Co 0.55869 0.55321 0.92397 0.0
C568 C 0.64764 0.57674 0.9068 0.0
O569 O 0.67335 0.54697 0.90155 0.0
N570 N 0.55656 0.60827 0.93579 0.0
C571 C 0.57978 0.66003 0.95542 0.0
C572 C 0.58556 0.61959 0.94951 0.0
C573 C 0.53399 0.64373 0.93335 0.0
N574 N 0.54721 0.67506 0.94536 0.0
O575 O 0.57778 0.53269 0.94898 0.0
H576 H 0.61081 0.6001 0.95449 0.0
H577 H 0.50939 0.6476 0.92252 0.0
O578 O 0.61206 0.56736 0.91366 0.0
C579 C 0.54232 0.52083 0.95552 0.0
O580 O 0.51034 0.52128 0.94336 0.0
N581 N 0.53211 0.57034 0.9009 0.0
C582 C 0.47094 0.56706 0.87134 0.0
C583 C 0.51305 0.56087 0.86633 0.0
C584 C 0.54344 0.56265 0.88146 0.0
C585 C 0.49164 0.57644 0.90585 0.0
C586 C 0.46099 0.57617 0.8914 0.0
H587 H 0.57517 0.55457 0.87789 0.0
H588 H 0.48256 0.57943 0.92143 0.0
H589 H 0.63049 0.48967 0.91114 0.0
H590 H 0.5348 0.41504 0.88885 0.0
H591 H 0.5991 0.67765 0.96563 0.0
H592 H 0.5223 0.55346 0.85108 0.0
H593 H 0.42958 0.58277 0.8962 0.0
C594 C 0.78713 0.27516 0.15042 0.0
C595 C 0.82042 0.28929 0.13922 0.0
N596 N 0.81816 0.33107 0.13772 0.0
N597 N 0.76357 0.30765 0.15614 0.0
C598 C 0.78377 0.3412 0.14843 0.0
H599 H 0.77926 0.24302 0.15313 0.0
Co600 Co 0.70895 0.30559 0.16728 0.0
C601 C 0.68586 0.39814 0.15685 0.0
O602 O 0.70913 0.43158 0.15639 0.0
N603 N 0.65371 0.30676 0.17871 0.0
C604 C 0.60352 0.33141 0.19882 0.0
C605 C 0.64409 0.33552 0.19289 0.0
C606 C 0.61738 0.28576 0.17621 0.0
N607 N 0.58679 0.30014 0.1883 0.0
O608 O 0.73076 0.31514 0.19382 0.0
H609 H 0.66527 0.35883 0.19846 0.0
H610 H 0.61251 0.26071 0.16569 0.0
O611 O 0.7032 0.36393 0.16157 0.0
C612 C 0.73443 0.27785 0.20033 0.0
O613 O 0.72698 0.24739 0.1877 0.0
N614 N 0.68999 0.28776 0.14229 0.0
C615 C 0.69165 0.23141 0.11047 0.0
C616 C 0.70129 0.27344 0.10708 0.0
C617 C 0.70025 0.30159 0.12345 0.0
C618 C 0.67937 0.24741 0.14521 0.0
C619 C 0.6781 0.21949 0.12954 0.0
H620 H 0.71151 0.33292 0.12142 0.0
H621 H 0.6758 0.23537 0.16023 0.0
H622 H 0.77214 0.3725 0.14951 0.0
H623 H 0.84355 0.26976 0.13216 0.0
H624 H 0.58727 0.35046 0.20972 0.0
H625 H 0.71202 0.28366 0.09246 0.0
H626 H 0.67002 0.18753 0.1328 0.0
C627 C 0.97429 0.54965 0.41143 0.0
C628 C 0.95702 0.58213 0.40101 0.0
N629 N 0.92099 0.56934 0.39297 0.0
N630 N 0.94909 0.51634 0.41034 0.0
C631 C 0.91683 0.52931 0.39879 0.0
H632 H 1.00357 0.55057 0.41925 0.0
Co633 Co 0.95895 0.46483 0.4232 0.0
C634 C 0.90046 0.40899 0.40581 0.0
O635 O 0.93289 0.38599 0.40162 0.0
N636 N 0.96653 0.41204 0.43707 0.0
C637 C 0.94986 0.3616 0.45894 0.0
C638 C 0.94261 0.40178 0.45317 0.0
C639 C 0.98752 0.37621 0.43322 0.0
N640 N 0.97783 0.34552 0.44628 0.0
O641 O 0.93955 0.48767 0.44793 0.0
H642 H 0.91884 0.42118 0.45974 0.0
H643 H 0.00891 0.37104 0.42013 0.0
O644 O 0.90461 0.44418 0.4145 0.0
C645 C 0.97471 0.49853 0.45522 0.0
O646 O 0.01032 0.49376 0.44421 0.0
N647 N 0.98643 0.4471 0.39994 0.0
C648 C 0.0492 0.45063 0.3701 0.0
C649 C 1.00492 0.45408 0.36498 0.0
C650 C 0.97478 0.45267 0.38031 0.0
C651 C 0.02919 0.4422 0.40474 0.0
C652 C 0.05956 0.44246 0.39014 0.0
H653 H 0.94276 0.45889 0.37662 0.0
H654 H 0.03863 0.44034 0.42027 0.0
H655 H 0.89053 0.51012 0.39489 0.0
H656 H 0.97026 0.61279 0.39927 0.0
H657 H 0.93326 0.34445 0.4704 0.0
H658 H 0.99563 0.45995 0.3496 0.0
H659 H 0.0914 0.4379 0.39481 0.0
C660 C 0.71991 0.28495 0.83109 0.0
C661 C 0.68858 0.30074 0.84286 0.0
N662 N 0.69932 0.33901 0.84927 0.0
N663 N 0.7507 0.31297 0.82961 0.0
C664 C 0.73712 0.34584 0.84078 0.0
H665 H 0.72058 0.25419 0.82461 0.0
Co666 Co 0.80251 0.30173 0.8169 0.0
C667 C 0.85794 0.36426 0.83211 0.0
O668 O 0.87943 0.33308 0.83928 0.0
N669 N 0.85584 0.29254 0.80359 0.0
C670 C 0.90727 0.30569 0.78174 0.0
C671 C 0.86649 0.31301 0.78652 0.0
C672 C 0.89191 0.27341 0.80894 0.0
N673 N 0.92339 0.28095 0.79593 0.0
O674 O 0.77937 0.31742 0.79128 0.0
H675 H 0.84675 0.33426 0.77842 0.0
H676 H 0.8961 0.25601 0.82265 0.0
O677 O 0.8231 0.35784 0.82345 0.0
C678 C 0.76795 0.28145 0.78497 0.0
O679 O 0.7734 0.24951 0.7969 0.0
N680 N 0.81995 0.27696 0.8409 0.0
C681 C 0.81063 0.21783 0.87127 0.0
C682 C 0.8077 0.26048 0.87577 0.0
C683 C 0.81232 0.28983 0.86021 0.0
C684 C 0.82443 0.23584 0.83676 0.0
C685 C 0.82143 0.20623 0.85164 0.0
H686 H 0.80642 0.32224 0.86335 0.0
H687 H 0.82765 0.22529 0.82142 0.0
H688 H 0.75545 0.37341 0.84341 0.0
H689 H 0.66011 0.28468 0.84647 0.0
H690 H 0.9243 0.3193 0.76935 0.0
H691 H 0.79984 0.27089 0.8908 0.0
H692 H 0.82594 0.17406 0.84741 0.0
C693 C 0.97527 0.47041 0.07696 0.0
C694 C 0.95998 0.43457 0.08563 0.0
N695 N 0.91885 0.43899 0.08838 0.0
N696 N 0.94405 0.49765 0.07415 0.0
C697 C 0.90983 0.47682 0.08067 0.0
H698 H 0.00971 0.47723 0.0741 0.0
Co699 Co 0.95162 0.5548 0.0672 0.0
C700 C 0.86694 0.56883 0.08779 0.0
O701 O 0.87446 0.54622 0.10373 0.0
N702 N 0.95623 0.61362 0.06073 0.0
C703 C 0.94612 0.68043 0.06822 0.0
C704 C 0.9372 0.64072 0.0733 0.0
C705 C 0.97865 0.63891 0.04832 0.0
N706 N 0.97301 0.6798 0.05285 0.0
O707 O 0.94119 0.54141 0.03932 0.0
H708 H 0.92146 0.63242 0.08702 0.0
H709 H 1.00141 0.62772 0.03762 0.0
O710 O 0.89258 0.5685 0.07303 0.0
C711 C 0.97862 0.53666 0.03293 0.0
O712 O 0.01113 0.54406 0.04558 0.0
N713 N 0.97256 0.56576 0.09345 0.0
C714 C 0.03049 0.57451 0.12523 0.0
C715 C 0.99228 0.55092 0.12775 0.0
C716 C 0.96476 0.54649 0.11146 0.0
C717 C 0.01119 0.58683 0.09108 0.0
C718 C 0.0382 0.59312 0.10679 0.0
H719 H 0.94023 0.52417 0.11295 0.0
H720 H 0.02194 0.59635 0.07647 0.0
H721 H 0.87873 0.48896 0.08015 0.0
H722 H 0.97819 0.40841 0.09076 0.0
H723 H 0.93714 0.7078 0.07668 0.0
H724 H 0.98665 0.53441 0.14167 0.0
H725 H 0.06678 0.60996 0.10407 0.0
C726 C 0.7934 0.73139 0.33033 0.0
C727 C 0.82616 0.716 0.3413 0.0
N728 N 0.82148 0.67461 0.34318 0.0
N729 N 0.76782 0.69999 0.32529 0.0
C730 C 0.78629 0.66568 0.33308 0.0
H731 H 0.7874 0.76381 0.3273 0.0
Co732 Co 0.7138 0.70549 0.31452 0.0
C733 C 0.68622 0.61529 0.32823 0.0
O734 O 0.71021 0.58232 0.32878 0.0
N735 N 0.65878 0.70853 0.30389 0.0
C736 C 0.60431 0.68716 0.28599 0.0
C737 C 0.64531 0.68041 0.29025 0.0
C738 C 0.6245 0.7319 0.30788 0.0
N739 N 0.59117 0.7194 0.2971 0.0
O740 O 0.73349 0.68857 0.28836 0.0
H741 H 0.66383 0.65534 0.28418 0.0
H742 H 0.62335 0.75697 0.31869 0.0
O743 O 0.70203 0.64946 0.32244 0.0
C744 C 0.74384 0.72342 0.28063 0.0
O745 O 0.74583 0.75598 0.29241 0.0
N746 N 0.69726 0.72968 0.33854 0.0
C747 C 0.68618 0.79073 0.36763 0.0
C748 C 0.68656 0.74851 0.37319 0.0
C749 C 0.69346 0.71793 0.35821 0.0
C750 C 0.69799 0.77052 0.33347 0.0
C751 C 0.69356 0.80123 0.34764 0.0
H752 H 0.69564 0.68551 0.36229 0.0
H753 H 0.7015 0.77965 0.31802 0.0
H754 H 0.7731 0.63495 0.3326 0.0
H755 H 0.85069 0.73419 0.34804 0.0
H756 H 0.58518 0.66896 0.27593 0.0
H757 H 0.68105 0.73944 0.38864 0.0
H758 H 0.69369 0.83334 0.34274 0.0
C759 C 0.54694 0.54931 0.57519 0.0
C760 C 0.56538 0.58123 0.58558 0.0
N761 N 0.59722 0.56567 0.59621 0.0
N762 N 0.56723 0.51349 0.57895 0.0
C763 C 0.59779 0.52459 0.59195 0.0
H764 H 0.52071 0.55254 0.56526 0.0
Co765 Co 0.55627 0.46174 0.56646 0.0
C766 C 0.62135 0.40726 0.57966 0.0
O767 O 0.59126 0.38238 0.58512 0.0
N768 N 0.54748 0.40888 0.5529 0.0
C769 C 0.56143 0.35847 0.53053 0.0
C770 C 0.56888 0.39885 0.53594 0.0
C771 C 0.52751 0.37295 0.55751 0.0
N772 N 0.5358 0.34213 0.54422 0.0
O773 O 0.56975 0.48522 0.54083 0.0
H774 H 0.59109 0.41864 0.52847 0.0
H775 H 0.50978 0.36805 0.57111 0.0
O776 O 0.61325 0.443 0.57226 0.0
C777 C 0.53262 0.4916 0.53461 0.0
O778 O 0.5018 0.48686 0.54728 0.0
N779 N 0.53399 0.44265 0.59083 0.0
C780 C 0.47933 0.43753 0.62319 0.0
C781 C 0.52225 0.43984 0.62662 0.0
C782 C 0.54936 0.44333 0.61004 0.0
C783 C 0.49248 0.43921 0.58768 0.0
C784 C 0.46491 0.43616 0.60346 0.0
H785 H 0.58205 0.4481 0.61266 0.0
H786 H 0.4801 0.43965 0.57266 0.0
H787 H 0.62089 0.50338 0.59773 0.0
H788 H 0.55606 0.61353 0.58534 0.0
H789 H 0.57617 0.34152 0.51838 0.0
H790 H 0.53437 0.44054 0.6418 0.0
H791 H 0.43212 0.43329 0.60018 0.0
C792 C 0.28582 0.28406 0.33129 0.0
C793 C 0.32069 0.29988 0.34046 0.0
N794 N 0.31738 0.34163 0.34157 0.0
N795 N 0.25997 0.31539 0.32659 0.0
C796 C 0.28116 0.35017 0.33209 0.0
H797 H 0.27808 0.25153 0.32989 0.0
Co798 Co 0.20246 0.30754 0.32087 0.0
C799 C 0.19169 0.39528 0.3387 0.0
O800 O 0.21369 0.39033 0.35511 0.0
N801 N 0.14382 0.30307 0.31574 0.0
C802 C 0.07777 0.31318 0.32438 0.0
C803 C 0.11783 0.3206 0.32935 0.0
C804 C 0.11773 0.28371 0.30263 0.0
N805 N 0.07731 0.28959 0.30777 0.0
O806 O 0.21294 0.31772 0.29293 0.0
H807 H 0.12741 0.3362 0.34297 0.0
H808 H 0.12802 0.26364 0.29053 0.0
O809 O 0.18944 0.36587 0.32591 0.0
C810 C 0.21986 0.28067 0.28662 0.0
O811 O 0.21615 0.2501 0.29958 0.0
N812 N 0.19388 0.28748 0.34769 0.0
C813 C 0.19767 0.22794 0.3783 0.0
C814 C 0.21864 0.26586 0.38041 0.0
C815 C 0.21601 0.29569 0.36487 0.0
C816 C 0.17287 0.2507 0.34623 0.0
C817 C 0.17262 0.22199 0.36157 0.0
H818 H 0.2358 0.3225 0.3658 0.0
H819 H 0.15954 0.24048 0.33224 0.0
H820 H 0.26938 0.38121 0.3303 0.0
H821 H 0.34542 0.28147 0.34686 0.0
H822 H 0.0508 0.32196 0.33316 0.0
H823 H 0.23902 0.27111 0.39308 0.0
H824 H 0.15638 0.19289 0.35927 0.0
C825 C 0.47235 0.54568 0.07669 0.0
C826 C 0.45506 0.57758 0.08752 0.0
N827 N 0.41874 0.56456 0.09523 0.0
N828 N 0.44698 0.51241 0.07714 0.0
C829 C 0.41455 0.52485 0.0888 0.0
H830 H 0.50193 0.54701 0.06911 0.0
Co831 Co 0.45739 0.46195 0.06336 0.0
C832 C 0.39422 0.40465 0.07604 0.0
O833 O 0.42503 0.37883 0.07894 0.0
N834 N 0.46664 0.41078 0.04854 0.0
C835 C 0.45078 0.36016 0.02666 0.0
C836 C 0.44257 0.40017 0.03262 0.0
C837 C 0.48932 0.37587 0.05183 0.0
N838 N 0.47991 0.34485 0.0389 0.0
O839 O 0.4412 0.48696 0.03861 0.0
H840 H 0.41792 0.41911 0.02656 0.0
H841 H 0.50885 0.371 0.06478 0.0
O842 O 0.40123 0.44182 0.07016 0.0
C843 C 0.47696 0.49827 0.03224 0.0
O844 O 0.50923 0.49285 0.04388 0.0
N845 N 0.48071 0.44095 0.08684 0.0
C846 C 0.53241 0.42195 0.11874 0.0
C847 C 0.4898 0.42718 0.12209 0.0
C848 C 0.46421 0.43746 0.10576 0.0
C849 C 0.52235 0.43809 0.08394 0.0
C850 C 0.54856 0.42759 0.09949 0.0
H851 H 0.43176 0.44373 0.10838 0.0
H852 H 0.53548 0.44363 0.06925 0.0
H853 H 0.38815 0.50549 0.09235 0.0
H854 H 0.46863 0.60792 0.08988 0.0
H855 H 0.43371 0.34239 0.0156 0.0
H856 H 0.47684 0.4244 0.13707 0.0
H857 H 0.58156 0.42489 0.0966 0.0
C858 C 0.21257 0.72412 0.8291 0.0
C859 C 0.18023 0.70693 0.83976 0.0
N860 N 0.19386 0.67287 0.84957 0.0
N861 N 0.24701 0.70123 0.83185 0.0
C862 C 0.23448 0.6699 0.84422 0.0
H863 H 0.2109 0.75175 0.81994 0.0
Co864 Co 0.29995 0.71242 0.82022 0.0
C865 C 0.35266 0.6493 0.83589 0.0
O866 O 0.37424 0.6802 0.84332 0.0
N867 N 0.35477 0.7201 0.8078 0.0
C868 C 0.40552 0.70171 0.7865 0.0
C869 C 0.36498 0.69611 0.79173 0.0
C870 C 0.39138 0.73947 0.81225 0.0
N871 N 0.42241 0.72888 0.79938 0.0
O872 O 0.27849 0.69792 0.79417 0.0
H873 H 0.34503 0.67343 0.78473 0.0
H874 H 0.39615 0.75946 0.8251 0.0
O875 O 0.31862 0.65616 0.82669 0.0
C876 C 0.27298 0.73481 0.78733 0.0
O877 O 0.27842 0.76633 0.79956 0.0
N878 N 0.31633 0.73676 0.84463 0.0
C879 C 0.3111 0.79708 0.87473 0.0
C880 C 0.30576 0.75488 0.87951 0.0
C881 C 0.30817 0.72487 0.86403 0.0
C882 C 0.3234 0.7774 0.84034 0.0
C883 C 0.32215 0.8075 0.85505 0.0
H884 H 0.30106 0.69288 0.86743 0.0
H885 H 0.32767 0.78748 0.82504 0.0
H886 H 0.25506 0.64585 0.84958 0.0
H887 H 0.14891 0.71893 0.84007 0.0
H888 H 0.42192 0.68533 0.77467 0.0
H889 H 0.2979 0.74551 0.89468 0.0
H890 H 0.32828 0.83931 0.85068 0.0
C891 C 0.02905 0.47882 0.58471 0.0
C892 C 0.04362 0.44574 0.59578 0.0
N893 N 0.08535 0.44645 0.5954 0.0
N894 N 0.06139 0.50087 0.57751 0.0
C895 C 0.0953 0.47959 0.58395 0.0
H896 H 0.9948 0.48813 0.58348 0.0
Co897 Co 0.05854 0.55608 0.5674 0.0
C898 C 0.15106 0.57839 0.57873 0.0
O899 O 0.18399 0.55432 0.57872 0.0
N900 N 0.05778 0.61196 0.55729 0.0
C901 C 0.0805 0.66629 0.53955 0.0
C902 C 0.08697 0.62525 0.54415 0.0
C903 C 0.03382 0.64629 0.56046 0.0
N904 N 0.04717 0.6795 0.54984 0.0
O905 O 0.07004 0.53689 0.54087 0.0
H906 H 0.11202 0.60629 0.53838 0.0
H907 H 1.00497 0.64753 0.57025 0.0
O908 O 0.11653 0.56239 0.57362 0.0
C909 C 0.03406 0.52639 0.53468 0.0
O910 O 1.00061 0.52748 0.54727 0.0
N911 N 0.03987 0.57274 0.59229 0.0
C912 C 0.98384 0.5752 0.62476 0.0
C913 C 0.02883 0.57046 0.628 0.0
C914 C 0.05564 0.56826 0.61123 0.0
C915 C 0.99638 0.57782 0.58932 0.0
C916 C 0.96912 0.57971 0.60521 0.0
H917 H 0.08811 0.56105 0.61331 0.0
H918 H 0.98401 0.5784 0.57426 0.0
H919 H 0.12686 0.48991 0.58185 0.0
H920 H 0.02496 0.42427 0.60443 0.0
H921 H 0.0991 0.6852 0.52955 0.0
H922 H 0.04098 0.56698 0.64308 0.0
H923 H 0.93637 0.58392 0.60217 0.0
C924 C 0.2924 0.72292 0.16047 0.0
C925 C 0.32685 0.70688 0.15103 0.0
N926 N 0.32054 0.66607 0.14766 0.0
N927 N 0.2639 0.69268 0.16269 0.0
C928 C 0.28289 0.65788 0.1557 0.0
H929 H 0.28714 0.75525 0.16408 0.0
Co930 Co 0.20931 0.70344 0.17141 0.0
C931 C 0.18387 0.62383 0.15313 0.0
O932 O 0.20153 0.63207 0.13579 0.0
N933 N 0.1549 0.71248 0.18286 0.0
C934 C 0.10204 0.6945 0.20295 0.0
C935 C 0.14099 0.68434 0.19649 0.0
C936 C 0.12417 0.74147 0.1827 0.0
N937 N 0.09109 0.72999 0.19397 0.0
O938 O 0.22857 0.69718 0.19823 0.0
H939 H 0.15769 0.65686 0.2011 0.0
H940 H 0.12508 0.7697 0.1739 0.0
O941 O 0.19281 0.64548 0.16864 0.0
C942 C 0.23274 0.73468 0.20425 0.0
O943 O 0.22409 0.76484 0.19163 0.0
N944 N 0.19191 0.71617 0.14355 0.0
C945 C 0.18819 0.78174 0.11657 0.0
C946 C 0.22148 0.75437 0.11581 0.0
C947 C 0.22194 0.72072 0.12897 0.0
C948 C 0.15486 0.73524 0.13997 0.0
C949 C 0.15295 0.77011 0.12752 0.0
H950 H 0.24806 0.70024 0.12781 0.0
H951 H 0.12681 0.72455 0.14691 0.0
H952 H 0.26837 0.62776 0.15497 0.0
H953 H 0.35353 0.72444 0.14603 0.0
H954 H 0.08223 0.6759 0.21253 0.0
H955 H 0.24764 0.75991 0.10592 0.0
H956 H 0.12449 0.78791 0.12658 0.0
C957 C 0.03761 0.53899 0.91424 0.0
C958 C 0.05288 0.57398 0.90488 0.0
N959 N 0.09423 0.56972 0.90221 0.0
N960 N 0.06881 0.51211 0.91751 0.0
C961 C 0.10309 0.53241 0.91067 0.0
H962 H 1.00307 0.53191 0.91669 0.0
Co963 Co 0.0604 0.45453 0.92252 0.0
C964 C 0.1463 0.44002 0.90331 0.0
O965 O 0.14082 0.46093 0.88661 0.0
N966 N 0.05615 0.39495 0.92634 0.0
C967 C 0.06637 0.32997 0.9157 0.0
C968 C 0.06862 0.37075 0.91076 0.0
C969 C 0.04615 0.36686 0.94087 0.0
N970 N 0.05251 0.32688 0.93471 0.0
O971 O 0.07081 0.46347 0.95085 0.0
H972 H 0.07948 0.38204 0.89638 0.0
H973 H 0.03476 0.37545 0.95563 0.0
O974 O 0.11822 0.44038 0.91683 0.0
C975 C 0.03348 0.46737 0.95752 0.0
O976 O 1.00078 0.46065 0.94492 0.0
N977 N 0.03858 0.4488 0.89614 0.0
C978 C 0.9755 0.45168 0.86618 0.0
C979 C 0.01692 0.46945 0.86284 0.0
C980 C 0.04693 0.46848 0.87832 0.0
C981 C 0.99818 0.43167 0.89912 0.0
C982 C 0.96825 0.43172 0.88441 0.0
H983 H 0.07478 0.48642 0.87642 0.0
H984 H 0.98919 0.41942 0.91354 0.0
H985 H 0.13385 0.51948 0.91108 0.0
H986 H 0.03404 0.59904 0.89912 0.0
H987 H 0.07339 0.3045 0.90561 0.0
H988 H 0.02359 0.48542 0.84889 0.0
H989 H 0.93893 0.41669 0.88763 0.0
C990 C 0.21747 0.29183 0.65859 0.0
C991 C 0.18341 0.30875 0.64915 0.0
N992 N 0.19127 0.349 0.64551 0.0
N993 N 0.24712 0.32111 0.66062 0.0
C994 C 0.2295 0.35613 0.65303 0.0
H995 H 0.22135 0.25958 0.66265 0.0
Co996 Co 0.30104 0.30912 0.67053 0.0
C997 C 0.32926 0.38857 0.65349 0.0
O998 O 0.31358 0.38022 0.63573 0.0
N999 N 0.35448 0.29968 0.68313 0.0
C1000 C 0.40423 0.31801 0.70503 0.0
C1001 C 0.36588 0.32731 0.69759 0.0
C1002 C 0.38642 0.272 0.68325 0.0
N1003 N 0.41748 0.28356 0.69582 0.0
O1004 O 0.27915 0.31386 0.6974 0.0
H1005 H 0.34785 0.35403 0.70217 0.0
H1006 H 0.38801 0.24479 0.67371 0.0
O1007 O 0.3185 0.36705 0.66873 0.0
C1008 C 0.27462 0.27624 0.70333 0.0
O1009 O 0.28299 0.2463 0.69048 0.0
N1010 N 0.32104 0.29711 0.6428 0.0
C1011 C 0.32898 0.23162 0.61581 0.0
C1012 C 0.29462 0.25748 0.61473 0.0
C1013 C 0.29213 0.2913 0.62782 0.0
C1014 C 0.35911 0.27967 0.63959 0.0
C1015 C 0.36321 0.24492 0.62703 0.0
H1016 H 0.26503 0.31033 0.62644 0.0
H1017 H 0.38601 0.29073 0.64738 0.0
H1018 H 0.24454 0.38599 0.6523 0.0
H1019 H 0.15585 0.29231 0.6444 0.0
H1020 H 0.42228 0.33672 0.71534 0.0
H1021 H 0.26865 0.24996 0.60507 0.0
H1022 H 0.3919 0.22739 0.62695 0.0
C1023 C 0.47409 0.46916 0.40821 0.0
C1024 C 0.45695 0.43683 0.39758 0.0
N1025 N 0.41958 0.44863 0.39059 0.0
N1026 N 0.44779 0.50171 0.40832 0.0
C1027 C 0.41478 0.48825 0.39727 0.0
H1028 H 0.504 0.4686 0.41548 0.0
Co1029 Co 0.45738 0.55245 0.42257 0.0
C1030 C 0.3928 0.60729 0.40989 0.0
O1031 O 0.42282 0.6335 0.40609 0.0
N1032 N 0.46474 0.60431 0.43783 0.0
C1033 C 0.44862 0.6519 0.46136 0.0
C1034 C 0.44313 0.61171 0.45505 0.0
C1035 C 0.48312 0.64168 0.43415 0.0
N1036 N 0.47321 0.67091 0.44801 0.0
O1037 O 0.44293 0.5258 0.44726 0.0
H1038 H 0.42198 0.59021 0.46212 0.0
H1039 H 0.50058 0.64891 0.42073 0.0
O1040 O 0.40081 0.5708 0.41633 0.0
C1041 C 0.48008 0.51912 0.45339 0.0
O1042 O 0.51091 0.52541 0.44087 0.0
N1043 N 0.48025 0.57491 0.3992 0.0
C1044 C 0.53269 0.59439 0.3675 0.0
C1045 C 0.49088 0.5853 0.36377 0.0
C1046 C 0.46486 0.57522 0.38003 0.0
C1047 C 0.52124 0.58206 0.40257 0.0
C1048 C 0.54763 0.59298 0.38711 0.0
H1049 H 0.43313 0.56625 0.3772 0.0
H1050 H 0.53389 0.57916 0.41751 0.0
H1051 H 0.38738 0.50674 0.39446 0.0
H1052 H 0.47126 0.40686 0.39502 0.0
H1053 H 0.4333 0.66683 0.47396 0.0
H1054 H 0.47897 0.5848 0.34855 0.0
H1055 H 0.58008 0.59859 0.39035 0.0
C1056 C 0.52092 0.27882 0.17242 0.0
C1057 C 0.54468 0.28571 0.18979 0.0
H1058 H 0.46185 0.2603 0.16046 0.0
C1059 C 0.52648 0.27933 0.20876 0.0
H1060 H 0.53434 0.28373 0.15766 0.0
C1061 C 0.48549 0.26553 0.21034 0.0
C1062 C 0.4615 0.25921 0.193 0.0
H1063 H 0.54436 0.28422 0.22232 0.0
H1064 H 0.47246 0.25951 0.22508 0.0
C1065 C 0.47948 0.26611 0.17403 0.0
C1066 C 0.01871 0.23785 0.45642 0.0
C1067 C 0.01125 0.21889 0.43776 0.0
H1068 H 0.01416 0.29427 0.47376 0.0
C1069 C 0.98716 0.24083 0.42295 0.0
H1070 H 0.03629 0.22169 0.46786 0.0
C1071 C 0.97637 0.28222 0.42591 0.0
C1072 C 0.98642 0.30214 0.44396 0.0
H1073 H 0.9815 0.22677 0.40839 0.0
H1074 H 0.96128 0.29915 0.41391 0.0
C1075 C 1.00474 0.27929 0.45961 0.0
C1076 C 0.03319 0.75534 0.67798 0.0
C1077 C 0.05056 0.77336 0.69526 0.0
H1078 H 0.97673 0.72817 0.66466 0.0
C1079 C 0.02687 0.77566 0.71298 0.0
H1080 H 0.05094 0.75363 0.66415 0.0
C1081 C 0.98394 0.76075 0.71332 0.0
C1082 C 0.96592 0.7449 0.69573 0.0
H1083 H 0.03984 0.78956 0.72641 0.0
H1084 H 0.96608 0.76241 0.72711 0.0
C1085 C 0.98992 0.74155 0.67817 0.0
C1086 C 0.54689 0.74413 0.9298 0.0
C1087 C 0.53415 0.71773 0.94531 0.0
H1088 H 0.5409 0.80419 0.9163 0.0
C1089 C 0.50938 0.73375 0.96094 0.0
H1090 H 0.56652 0.73244 0.91784 0.0
C1091 C 0.49467 0.77484 0.9601 0.0
C1092 C 0.50553 0.80064 0.9439 0.0
H1093 H 0.49986 0.71383 0.97322 0.0
H1094 H 0.47261 0.78554 0.97127 0.0
C1095 C 0.53304 0.78524 0.9292 0.0
C1096 C 0.48749 0.75542 0.27881 0.0
C1097 C 0.46583 0.76175 0.29688 0.0
H1098 H 0.54451 0.7367 0.26483 0.0
C1099 C 0.48645 0.75515 0.31523 0.0
H1100 H 0.47243 0.76113 0.26453 0.0
C1101 C 0.52817 0.74252 0.31543 0.0
C1102 C 0.5495 0.73553 0.29727 0.0
H1103 H 0.47059 0.76093 0.32934 0.0
H1104 H 0.54356 0.73747 0.32968 0.0
C1105 C 0.52865 0.74186 0.279 0.0
C1106 C 0.53162 0.27901 0.56475 0.0
C1107 C 0.52619 0.29882 0.54622 0.0
H1108 H 0.52211 0.22372 0.5819 0.0
C1109 C 0.51152 0.2758 0.52969 0.0
H1110 H 0.54384 0.2959 0.57753 0.0
C1111 C 0.49879 0.23447 0.53223 0.0
C1112 C 0.50184 0.21553 0.55115 0.0
H1113 H 0.50766 0.29058 0.5152 0.0
H1114 H 0.48395 0.21833 0.51989 0.0
C1115 C 0.52009 0.23763 0.5671 0.0
C1116 C 0.03245 0.2449 0.7813 0.0
C1117 C 0.05078 0.23865 0.80017 0.0
H1118 H 0.97599 0.26387 0.76517 0.0
C1119 C 0.02815 0.24811 0.81762 0.0
H1120 H 0.04958 0.23779 0.76769 0.0
C1121 C 0.98498 0.26217 0.81628 0.0
C1122 C 0.9661 0.26769 0.7974 0.0
H1123 H 0.04188 0.2433 0.83229 0.0
H1124 H 0.96804 0.26873 0.83 0.0
C1125 C 0.98959 0.25982 0.77991 0.0
C1126 C 0.03 0.77917 0.06156 0.0
C1127 C 0.02612 0.79847 0.04281 0.0
H1128 H 0.01913 0.72463 0.07899 0.0
C1129 C 0.01233 0.77491 0.02624 0.0
H1130 H 0.04166 0.79629 0.07439 0.0
C1131 C 0.99669 0.73372 0.02892 0.0
C1132 C 0.99802 0.71547 0.04807 0.0
H1133 H 0.0098 0.78917 0.01156 0.0
H1134 H 0.98278 0.71721 0.01644 0.0
C1135 C 0.01776 0.73805 0.06407 0.0
C1136 C 0.5305 0.75843 0.81596 0.0
C1137 C 0.55064 0.76253 0.79724 0.0
H1138 H 0.4731 0.74515 0.83138 0.0
C1139 C 0.52782 0.75566 0.7796 0.0
H1140 H 0.54725 0.76419 0.82978 0.0
C1141 C 0.48594 0.74531 0.78049 0.0
C1142 C 0.46535 0.74164 0.79906 0.0
H1143 H 0.54245 0.75868 0.765 0.0
H1144 H 0.4694 0.74062 0.76652 0.0
C1145 C 0.48803 0.74829 0.81686 0.0
C1146 C 0.02002 0.73784 0.53001 0.0
C1147 C 0.02948 0.72054 0.5488 0.0
H1148 H 0.99675 0.79111 0.51376 0.0
C1149 C 0.02434 0.74495 0.56618 0.0
H1150 H 0.02386 0.71956 0.51644 0.0
C1151 C 0.01088 0.78641 0.56466 0.0
C1152 C 0.99945 0.80383 0.54575 0.0
H1153 H 0.03184 0.73227 0.58081 0.0
H1154 H 1.00518 0.80466 0.57825 0.0
C1155 C 1.00366 0.77874 0.52852 0.0
C1156 C 0.97858 0.26561 0.27913 0.0
C1157 C 0.95483 0.24734 0.29452 0.0
H1158 H 0.03935 0.29364 0.27131 0.0
C1159 C 0.97391 0.2369 0.3127 0.0
H1160 H 0.9645 0.2726 0.26476 0.0
C1161 C 0.01743 0.24685 0.31601 0.0
C1162 C 0.04056 0.26823 0.30139 0.0
H1163 H 0.95652 0.22134 0.32443 0.0
H1164 H 0.03088 0.24022 0.33058 0.0
C1165 C 0.02229 0.27664 0.28266 0.0
C1166 C 0.48518 0.24236 0.06445 0.0
C1167 C 0.50736 0.21828 0.05043 0.0
H1168 H 0.4603 0.30199 0.07188 0.0
C1169 C 0.51667 0.2352 0.0315 0.0
H1170 H 0.47781 0.2299 0.07916 0.0
C1171 C 0.50628 0.27669 0.02728 0.0
C1172 C 0.48743 0.3015 0.04214 0.0
H1173 H 0.53433 0.21738 0.02063 0.0
H1174 H 0.51486 0.29007 0.01294 0.0
C1175 C 0.47575 0.28361 0.06045 0.0
C1176 C 0.52275 0.24526 0.71113 0.0
C1177 C 0.54449 0.24856 0.69289 0.0
H1178 H 0.46427 0.25415 0.72633 0.0
C1179 C 0.52448 0.2663 0.67619 0.0
H1180 H 0.53728 0.23086 0.72403 0.0
C1181 C 0.48263 0.27703 0.67713 0.0
C1182 C 0.46021 0.27135 0.69496 0.0
H1183 H 0.54051 0.2684 0.66189 0.0
H1184 H 0.46747 0.28921 0.66386 0.0
C1185 C 0.48096 0.2574 0.71226 0.0
C1186 C 0.47797 0.73669 0.42909 0.0
C1187 C 0.4815 0.71481 0.44726 0.0
H1188 H 0.48856 0.79431 0.41371 0.0
C1189 C 0.49331 0.7364 0.46472 0.0
H1190 H 0.46809 0.72092 0.41552 0.0
C1191 C 0.50474 0.77829 0.46366 0.0
C1192 C 0.50341 0.79956 0.44527 0.0
H1193 H 0.49602 0.72017 0.47891 0.0
H1194 H 0.51744 0.79335 0.47686 0.0
C1195 C 0.48861 0.77877 0.42815 0.0
C1196 C 0.02629 0.75008 0.21086 0.0
C1197 C 0.04926 0.7451 0.19306 0.0
H1198 H 0.96507 0.76471 0.22398 0.0
C1199 C 0.02915 0.74921 0.17444 0.0
H1200 H 0.04113 0.74625 0.22534 0.0
C1201 C 0.98451 0.75813 0.17366 0.0
C1202 C 0.96171 0.76367 0.19149 0.0
H1203 H 0.04615 0.7444 0.16056 0.0
H1204 H 0.96964 0.76186 0.15918 0.0
C1205 C 0.98199 0.75993 0.21008 0.0
C1206 C 0.01107 0.28549 0.95904 0.0
C1207 C 0.04235 0.28784 0.94435 0.0
H1208 H 0.96333 0.2466 0.97314 0.0
C1209 C 0.05909 0.25032 0.93682 0.0
H1210 H 0.99567 0.31345 0.9654 0.0
C1211 C 0.0408 0.21222 0.94142 0.0
C1212 C 1.00351 0.21062 0.9538 0.0
H1213 H 0.08431 0.25043 0.92607 0.0
H1214 H 0.0508 0.18478 0.93329 0.0
C1215 C 0.99072 0.24711 0.9637 0.0
C1216 C 0.41548 0.04992 0.14255 0.0
C1217 C 0.45088 0.07542 0.14308 0.0
H1218 H 0.3493 0.04695 0.146 0.0
C1219 C 0.44806 0.1146 0.15215 0.0
H1220 H 0.41677 0.02001 0.13508 0.0
C1221 C 0.40957 0.12989 0.15838 0.0
C1222 C 0.37338 0.10624 0.1557 0.0
H1223 H 0.47445 0.13542 0.15202 0.0
H1224 H 0.40772 0.1619 0.16308 0.0
C1225 C 0.37683 0.06547 0.14854 0.0
C1226 C 0.18169 0.1856 0.40867 0.0
C1227 C 0.20486 0.19095 0.39101 0.0
H1228 H 0.14885 0.1426 0.42735 0.0
C1229 C 0.22148 0.15562 0.38144 0.0
H1230 H 0.16866 0.21225 0.4164 0.0
C1231 C 0.20798 0.11597 0.38682 0.0
C1232 C 0.17859 0.11103 0.40226 0.0
H1233 H 0.2397 0.15898 0.36781 0.0
H1234 H 0.21677 0.09001 0.37734 0.0
C1235 C 0.16965 0.14559 0.41463 0.0
C1236 C 0.12496 0.8687 0.6377 0.0
C1237 C 0.15133 0.89751 0.64681 0.0
H1238 H 0.06832 0.85889 0.62191 0.0
C1239 C 0.1376 0.93845 0.64992 0.0
H1240 H 0.13456 0.83717 0.63504 0.0
C1241 C 0.09871 0.9508 0.64271 0.0
C1242 C 0.07371 0.92221 0.63239 0.0
H1243 H 0.15777 0.96121 0.65684 0.0
H1244 H 0.08967 0.98314 0.64373 0.0
C1245 C 0.08654 0.88092 0.63051 0.0
C1246 C 0.29009 0.86948 0.88271 0.0
C1247 C 0.30698 0.83161 0.88944 0.0
H1248 H 0.29822 0.93528 0.88203 0.0
C1249 C 0.33023 0.83162 0.90725 0.0
H1250 H 0.27019 0.87026 0.8696 0.0
C1251 C 0.34373 0.86947 0.91539 0.0
C1252 C 0.3366 0.90663 0.90478 0.0
H1253 H 0.34238 0.8029 0.91332 0.0
H1254 H 0.36481 0.86879 0.92801 0.0
C1255 C 0.30581 0.90689 0.88994 0.0
C1256 C 0.414 0.96257 0.35284 0.0
C1257 C 0.44888 0.93648 0.35136 0.0
H1258 H 0.34812 0.96758 0.34896 0.0
C1259 C 0.44611 0.89953 0.34043 0.0
H1260 H 0.41548 0.99081 0.3617 0.0
C1261 C 0.40777 0.88627 0.33333 0.0
C1262 C 0.37183 0.90998 0.33681 0.0
H1263 H 0.47222 0.87833 0.33976 0.0
H1264 H 0.40577 0.85519 0.32751 0.0
C1265 C 0.37548 0.94914 0.34579 0.0
C1266 C 0.33102 0.11567 0.61672 0.0
C1267 C 0.34442 0.10655 0.59705 0.0
H1268 H 0.31676 0.16348 0.63803 0.0
C1269 C 0.34053 0.13761 0.58221 0.0
H1270 H 0.33174 0.09227 0.6284 0.0
C1271 C 0.33269 0.17888 0.58791 0.0
C1272 C 0.32695 0.18865 0.60829 0.0
H1273 H 0.34922 0.1313 0.56675 0.0
H1274 H 0.33462 0.20329 0.57677 0.0
C1275 C 0.32289 0.15654 0.62233 0.0
C1276 C 0.0855 0.14847 0.85678 0.0
C1277 C 0.06653 0.1092 0.85703 0.0
H1278 H 0.14001 0.18311 0.85028 0.0
C1279 C 0.08711 0.07533 0.84832 0.0
H1280 H 0.07038 0.17493 0.86373 0.0
C1281 C 0.1273 0.07997 0.8409 0.0
C1282 C 0.14744 0.11859 0.84183 0.0
H1283 H 0.07355 0.04459 0.84877 0.0
H1284 H 0.14327 0.05281 0.83514 0.0
C1285 C 0.12565 0.15309 0.84926 0.0
C1286 C 0.19023 0.82118 0.08439 0.0
C1287 C 0.1888 0.82116 0.10545 0.0
H1288 H 0.17138 0.85329 0.05782 0.0
C1289 C 0.18119 0.85844 0.11577 0.0
H1290 H 0.1968 0.79284 0.07617 0.0
C1291 C 0.16826 0.8935 0.1052 0.0
C1292 C 0.16097 0.89054 0.08446 0.0
H1293 H 0.18108 0.8592 0.13208 0.0
H1294 H 0.15667 0.91989 0.11366 0.0
C1295 C 0.17667 0.85615 0.07387 0.0
C1296 C 0.56405 0.93657 0.83328 0.0
C1297 C 0.57196 0.95079 0.85282 0.0
H1298 H 0.58726 0.90021 0.80883 0.0
C1299 C 0.61345 0.95278 0.8595 0.0
H1300 H 0.53266 0.93526 0.82756 0.0
C1301 C 0.64458 0.93187 0.84894 0.0
C1302 C 0.63444 0.91021 0.83139 0.0
H1303 H 0.6207 0.96511 0.87426 0.0
H1304 H 0.6744 0.92723 0.85609 0.0
C1305 C 0.5955 0.91669 0.82248 0.0
C1306 C 0.84311 0.857 0.57531 0.0
C1307 C 0.85807 0.89145 0.58606 0.0
H1308 H 0.82285 0.79373 0.57729 0.0
C1309 C 0.85046 0.89392 0.60681 0.0
H1310 H 0.84892 0.85439 0.55929 0.0
C1311 C 0.83696 0.85879 0.61719 0.0
C1312 C 0.82955 0.82164 0.60672 0.0
H1313 H 0.86179 0.92016 0.61541 0.0
H1314 H 0.83657 0.85934 0.63349 0.0
C1315 C 0.82904 0.82196 0.58564 0.0
C1316 C 0.87676 0.064 0.34122 0.0
C1317 C 0.87201 0.10273 0.33197 0.0
H1318 H 0.91862 0.02224 0.35583 0.0
C1319 C 0.90767 0.12523 0.32652 0.0
H1320 H 0.84979 0.04641 0.34587 0.0
C1321 C 0.94703 0.11173 0.33241 0.0
C1322 C 0.95125 0.07533 0.34373 0.0
H1323 H 0.90501 0.15571 0.31998 0.0
H1324 H 0.97318 0.13246 0.3305 0.0
C1325 C 0.91623 0.04998 0.3467 0.0
C1326 C 0.67038 0.1936 0.07933 0.0
C1327 C 0.69767 0.19756 0.0956 0.0
H1328 H 0.63519 0.15145 0.06122 0.0
C1329 C 0.71955 0.16214 0.10206 0.0
H1330 H 0.65377 0.22042 0.07372 0.0
C1331 C 0.70644 0.12268 0.0962 0.0
C1332 C 0.67287 0.11841 0.08299 0.0
H1333 H 0.74163 0.16454 0.11428 0.0
H1334 H 0.71887 0.09592 0.104 0.0
C1335 C 0.6591 0.1539 0.07254 0.0
C1336 C 0.65249 0.06651 0.6307 0.0
C1337 C 0.65867 0.08624 0.64932 0.0
H1338 H 0.60783 0.04255 0.61006 0.0
C1339 C 0.62731 0.08298 0.66407 0.0
H1340 H 0.67633 0.067 0.6192 0.0
C1341 C 0.58738 0.07012 0.65856 0.0
C1342 C 0.57957 0.05801 0.63868 0.0
H1343 H 0.63162 0.09638 0.67888 0.0
H1344 H 0.56196 0.07453 0.66903 0.0
C1345 C 0.61317 0.05229 0.62546 0.0
C1346 C 0.63772 0.8476 0.37388 0.0
C1347 C 0.67199 0.82497 0.38072 0.0
H1348 H 0.60463 0.90408 0.37449 0.0
C1349 C 0.69674 0.84168 0.39616 0.0
H1350 H 0.6186 0.8358 0.36175 0.0
C1351 C 0.68752 0.88123 0.40415 0.0
C1352 C 0.65453 0.90455 0.39616 0.0
H1353 H 0.72394 0.82513 0.40133 0.0
H1354 H 0.70653 0.89393 0.41607 0.0
C1355 C 0.62992 0.88712 0.38107 0.0
C1356 C 0.87272 0.94519 0.14328 0.0
C1357 C 0.86792 0.9048 0.15063 0.0
H1358 H 0.91353 0.98804 0.12868 0.0
C1359 C 0.90319 0.87949 0.15281 0.0
H1360 H 0.84595 0.96507 0.14122 0.0
C1361 C 0.9417 0.89241 0.14564 0.0
C1362 C 0.94528 0.93078 0.13601 0.0
H1363 H 0.90037 0.84783 0.15765 0.0
H1364 H 0.96705 0.8703 0.1452 0.0
C1365 C 0.91139 0.95836 0.13626 0.0
C1366 C 0.83275 0.15048 0.91587 0.0
C1367 C 0.82982 0.11221 0.90577 0.0
H1368 H 0.83209 0.21654 0.91171 0.0
C1369 C 0.80241 0.10937 0.8895 0.0
H1370 H 0.85017 0.15298 0.92969 0.0
C1371 C 0.78916 0.1455 0.87997 0.0
C1372 C 0.80433 0.18435 0.88641 0.0
H1373 H 0.79764 0.0799 0.88196 0.0
H1374 H 0.77257 0.14254 0.86589 0.0
C1375 C 0.82198 0.18701 0.90567 0.0
C1376 C 0.91886 0.55054 0.64036 0.0
C1377 C 0.95269 0.57816 0.64088 0.0
H1378 H 0.85304 0.54365 0.64409 0.0
C1379 C 0.94803 0.61654 0.65044 0.0
H1380 H 0.9217 0.52102 0.63263 0.0
C1381 C 0.90887 0.62942 0.65679 0.0
C1382 C 0.87397 0.60393 0.65405 0.0
H1383 H 0.97319 0.63883 0.65042 0.0
H1384 H 0.90549 0.66113 0.6615 0.0
C1385 C 0.87952 0.56362 0.64664 0.0
C1386 C 0.70015 0.63036 0.89852 0.0
C1387 C 0.65863 0.62017 0.90246 0.0
H1388 H 0.74196 0.67495 0.88606 0.0
C1389 C 0.62785 0.65074 0.9002 0.0
H1390 H 0.72456 0.60753 0.90027 0.0
C1391 C 0.63806 0.68967 0.89239 0.0
C1392 C 0.67902 0.69823 0.88672 0.0
H1393 H 0.59556 0.64356 0.9028 0.0
H1394 H 0.61343 0.71133 0.88884 0.0
C1395 C 0.71028 0.66913 0.89073 0.0
C1396 C 0.62279 0.44139 0.15154 0.0
C1397 C 0.64141 0.40186 0.15154 0.0
H1398 H 0.57167 0.47852 0.1416 0.0
C1399 C 0.6184 0.36789 0.14449 0.0
H1400 H 0.63953 0.46838 0.15688 0.0
C1401 C 0.579 0.37361 0.13631 0.0
C1402 C 0.56222 0.41359 0.13481 0.0
H1403 H 0.63167 0.33743 0.14375 0.0
H1404 H 0.5635 0.34747 0.12933 0.0
C1405 C 0.58357 0.44722 0.1432 0.0
C1406 C 0.83252 0.32264 0.40125 0.0
C1407 C 0.83391 0.32018 0.38021 0.0
H1408 H 0.85079 0.35803 0.42699 0.0
C1409 C 0.84178 0.35604 0.36892 0.0
H1410 H 0.82528 0.29545 0.41016 0.0
C1411 C 0.85434 0.39236 0.37857 0.0
C1412 C 0.86081 0.39223 0.39943 0.0
H1413 H 0.84146 0.35496 0.35262 0.0
H1414 H 0.86575 0.41782 0.36947 0.0
C1415 C 0.84582 0.35883 0.41087 0.0
C1416 C 0.86877 0.43168 0.84869 0.0
C1417 C 0.87817 0.40497 0.8327 0.0
H1418 H 0.89371 0.47108 0.87155 0.0
C1419 C 0.91734 0.40776 0.82345 0.0
H1420 H 0.83894 0.42985 0.85617 0.0
C1421 C 0.94926 0.43015 0.83264 0.0
C1422 C 0.94183 0.45019 0.85101 0.0
H1423 H 0.92516 0.38727 0.81105 0.0
H1424 H 0.98064 0.42631 0.82709 0.0
C1425 C 0.90041 0.45496 0.85758 0.0
C1426 C 0.83998 0.63814 0.07617 0.0
C1427 C 0.83976 0.6058 0.09046 0.0
H1428 H 0.83754 0.70431 0.07175 0.0
C1429 C 0.82318 0.61398 0.10967 0.0
H1430 H 0.85121 0.63267 0.06102 0.0
C1431 C 0.81517 0.65469 0.11565 0.0
C1432 C 0.82283 0.68762 0.10242 0.0
H1433 H 0.821 0.58973 0.12089 0.0
H1434 H 0.80656 0.66074 0.13115 0.0
C1435 C 0.83241 0.67916 0.08227 0.0
C1436 C 0.57956 0.64094 0.34869 0.0
C1437 C 0.56331 0.60104 0.35151 0.0
H1438 H 0.63136 0.67685 0.33917 0.0
C1439 C 0.58515 0.56656 0.34418 0.0
H1440 H 0.56365 0.66781 0.35481 0.0
C1441 C 0.62425 0.57168 0.33554 0.0
C1442 C 0.64211 0.61138 0.33406 0.0
H1443 H 0.57363 0.53543 0.34678 0.0
H1444 H 0.64139 0.54424 0.33104 0.0
C1445 C 0.61861 0.64606 0.33993 0.0
C1446 C 0.69599 0.36341 0.6129 0.0
C1447 C 0.69906 0.32466 0.60315 0.0
H1448 H 0.66945 0.42421 0.61175 0.0
C1449 C 0.69253 0.32259 0.58236 0.0
H1450 H 0.70139 0.3658 0.62895 0.0
C1451 C 0.67508 0.3566 0.5724 0.0
C1452 C 0.66337 0.39216 0.58334 0.0
H1453 H 0.69493 0.29318 0.5745 0.0
H1454 H 0.66381 0.35211 0.5572 0.0
C1455 C 0.67826 0.39719 0.60297 0.0
C1456 C 0.08318 0.43144 0.33736 0.0
C1457 C 0.08357 0.45429 0.35534 0.0
H1458 H 0.12003 0.39863 0.31576 0.0
C1459 C 0.12125 0.47198 0.36172 0.0
H1460 H 0.05452 0.41885 0.33149 0.0
C1461 C 0.15861 0.45745 0.35389 0.0
C1462 C 0.15832 0.42693 0.33887 0.0
H1463 H 0.12221 0.49205 0.37482 0.0
H1464 H 0.18719 0.46595 0.36137 0.0
C1465 C 0.12084 0.41922 0.32862 0.0
C1466 C 0.34797 0.39435 0.10415 0.0
C1467 C 0.35409 0.3904 0.08333 0.0
H1468 H 0.33679 0.36148 0.13165 0.0
C1469 C 0.33832 0.35521 0.07345 0.0
H1470 H 0.35945 0.4214 0.11208 0.0
C1471 C 0.32568 0.32075 0.08461 0.0
C1472 C 0.32813 0.32189 0.10565 0.0
H1473 H 0.3427 0.35154 0.05737 0.0
H1474 H 0.3187 0.29199 0.07685 0.0
C1475 C 0.33609 0.35975 0.11537 0.0
C1476 C 0.36357 0.58207 0.85201 0.0
C1477 C 0.37277 0.60873 0.83605 0.0
H1478 H 0.38862 0.54421 0.87531 0.0
C1479 C 0.41235 0.60712 0.82724 0.0
H1480 H 0.33307 0.5824 0.85888 0.0
C1481 C 0.44487 0.58782 0.83739 0.0
C1482 C 0.43737 0.56873 0.856 0.0
H1483 H 0.41983 0.62719 0.81467 0.0
H1484 H 0.47613 0.59326 0.83208 0.0
C1485 C 0.39581 0.56124 0.86171 0.0
C1486 C 0.20082 0.67995 0.59368 0.0
C1487 C 0.16677 0.7022 0.60116 0.0
H1488 H 0.22234 0.62312 0.58071 0.0
C1489 C 0.12684 0.68555 0.59918 0.0
H1490 H 0.23203 0.69164 0.59569 0.0
C1491 C 0.12134 0.64597 0.59114 0.0
C1492 C 0.15549 0.62243 0.58471 0.0
H1493 H 0.10028 0.70172 0.60545 0.0
H1494 H 0.09066 0.63319 0.59123 0.0
C1495 C 0.19522 0.64039 0.58551 0.0
C1496 C 0.10749 0.62849 0.15624 0.0
C1497 C 0.14276 0.60406 0.15243 0.0
H1498 H 0.04255 0.63683 0.15135 0.0
C1499 C 0.13774 0.56459 0.14389 0.0
H1500 H 0.11043 0.65983 0.1616 0.0
C1501 C 0.0983 0.55117 0.13797 0.0
C1502 C 0.06373 0.57746 0.14019 0.0
H1503 H 0.16454 0.54561 0.14037 0.0
H1504 H 0.09562 0.52251 0.12951 0.0
C1505 C 0.0683 0.61525 0.15032 0.0
C1506 C 0.20584 0.40248 0.88775 0.0
C1507 C 0.17608 0.40481 0.9031 0.0
H1508 H 0.24 0.3627 0.86812 0.0
C1509 C 0.16803 0.3688 0.91455 0.0
H1510 H 0.21393 0.42972 0.87905 0.0
C1511 C 0.18084 0.32977 0.90744 0.0
C1512 C 0.2041 0.32718 0.88967 0.0
H1513 H 0.14719 0.36993 0.92732 0.0
H1514 H 0.16835 0.30201 0.91434 0.0
C1515 C 0.22082 0.36394 0.88153 0.0
C1516 C 0.44442 0.39733 0.64996 0.0
C1517 C 0.44787 0.43454 0.63926 0.0
H1518 H 0.40313 0.35369 0.66309 0.0
C1519 C 0.41355 0.46158 0.63851 0.0
H1520 H 0.47015 0.37568 0.65043 0.0
C1521 C 0.3747 0.44846 0.64531 0.0
C1522 C 0.37014 0.4089 0.65368 0.0
H1523 H 0.41556 0.49042 0.63019 0.0
H1524 H 0.34773 0.46753 0.64231 0.0
C1525 C 0.40574 0.38465 0.65715 0.0
C1526 C 0.33429 0.65439 0.3722 0.0
C1527 C 0.32638 0.69118 0.38286 0.0
H1528 H 0.35759 0.59248 0.37397 0.0
C1529 C 0.32336 0.69009 0.40388 0.0
H1530 H 0.33546 0.65446 0.3559 0.0
C1531 C 0.33561 0.65439 0.41417 0.0
C1532 C 0.35186 0.62048 0.40342 0.0
H1533 H 0.31636 0.71803 0.41233 0.0
H1534 H 0.33978 0.65636 0.43033 0.0
C1535 C 0.34574 0.61857 0.38256 0.0
C1536 C 0.14802 0.07196 0.12325 0.0
C1537 C 0.12271 0.09041 0.10851 0.0
H1538 H 0.19021 0.08168 0.14788 0.0
C1539 C 0.12273 0.1339 0.10687 0.0
H1540 H 0.14855 0.03855 0.12498 0.0
C1541 C 0.14625 0.15841 0.11991 0.0
C1542 C 0.17058 0.1403 0.13511 0.0
H1543 H 0.10443 0.14915 0.09542 0.0
H1544 H 0.14555 0.19172 0.11791 0.0
C1545 C 0.17173 0.09666 0.13642 0.0
C1546 C 0.13219 0.85582 0.36404 0.0
C1547 C 0.16923 0.87161 0.35572 0.0
H1548 H 0.08057 0.86533 0.3837 0.0
C1549 C 0.18189 0.91161 0.36191 0.0
H1550 H 0.12078 0.82542 0.36008 0.0
C1551 C 0.15803 0.93497 0.37561 0.0
C1552 C 0.12076 0.91914 0.38359 0.0
H1553 H 0.21011 0.92529 0.3562 0.0
H1554 H 0.16839 0.96585 0.3795 0.0
C1555 C 0.10866 0.87899 0.37776 0.0
C1556 C 0.37788 0.84478 0.61896 0.0
C1557 C 0.34733 0.86126 0.63199 0.0
H1558 H 0.42465 0.85641 0.59665 0.0
C1559 C 0.34141 0.90479 0.63175 0.0
H1560 H 0.38404 0.81187 0.61835 0.0
C1561 C 0.365 0.93047 0.61894 0.0
C1562 C 0.39547 0.91357 0.60608 0.0
H1563 H 0.3186 0.91937 0.64138 0.0
H1564 H 0.36005 0.96369 0.61946 0.0
C1565 C 0.40148 0.87044 0.60633 0.0
C1566 C 0.35009 0.11244 0.8578 0.0
C1567 C 0.34914 0.15585 0.86095 0.0
H1568 H 0.37229 0.05289 0.86799 0.0
C1569 C 0.37058 0.17157 0.8778 0.0
H1570 H 0.3345 0.09884 0.845 0.0
C1571 C 0.39243 0.14518 0.89084 0.0
C1572 C 0.39333 0.10202 0.88774 0.0
H1573 H 0.37016 0.20439 0.8812 0.0
H1574 H 0.40851 0.15857 0.90357 0.0
C1575 C 0.37168 0.08591 0.87106 0.0
C1576 C 0.8569 0.89569 0.89266 0.0
C1577 C 0.88475 0.9259 0.88564 0.0
H1578 H 0.81139 0.84956 0.8847 0.0
C1579 C 0.88766 0.93321 0.86486 0.0
H1580 H 0.85415 0.88978 0.90864 0.0
C1581 C 0.86407 0.90979 0.85126 0.0
C1582 C 0.83615 0.87962 0.85825 0.0
H1583 H 0.90893 0.95644 0.8592 0.0
H1584 H 0.86762 0.91504 0.83526 0.0
C1585 C 0.83239 0.87305 0.87906 0.0
C1586 C 0.85028 0.08498 0.61331 0.0
C1587 C 0.89346 0.09124 0.61226 0.0
H1588 H 0.79224 0.10442 0.62632 0.0
C1589 C 0.91107 0.12105 0.62527 0.0
H1590 H 0.83546 0.06255 0.60355 0.0
C1591 C 0.88636 0.14512 0.63815 0.0
C1592 C 0.84322 0.13992 0.63876 0.0
H1593 H 0.94418 0.12621 0.62547 0.0
H1594 H 0.90104 0.16825 0.64758 0.0
C1595 C 0.82548 0.10897 0.62643 0.0
C1596 C 0.65607 0.09216 0.38656 0.0
C1597 C 0.61241 0.09298 0.38471 0.0
H1598 H 0.71495 0.1121 0.37452 0.0
C1599 C 0.59561 0.11434 0.36809 0.0
H1600 H 0.67059 0.07617 0.39899 0.0
C1601 C 0.62099 0.13457 0.35416 0.0
C1602 C 0.66428 0.13429 0.35611 0.0
H1603 H 0.56264 0.1153 0.36542 0.0
H1604 H 0.60654 0.15055 0.34169 0.0
C1605 C 0.68168 0.1125 0.37241 0.0
C1606 C 0.64542 0.84838 0.11212 0.0
C1607 C 0.66762 0.86566 0.12835 0.0
H1608 H 0.60641 0.85911 0.08657 0.0
C1609 C 0.66732 0.90912 0.13065 0.0
H1610 H 0.64574 0.81527 0.10941 0.0
C1611 C 0.64497 0.93441 0.11726 0.0
C1612 C 0.62233 0.91685 0.10124 0.0
H1613 H 0.68391 0.92355 0.14295 0.0
H1614 H 0.6446 0.96763 0.11974 0.0
C1615 C 0.62304 0.87356 0.09885 0.0
C1616 C 0.63734 0.57465 0.62783 0.0
C1617 C 0.62507 0.58924 0.60879 0.0
H1618 H 0.66968 0.58853 0.65542 0.0
C1619 C 0.63826 0.62875 0.60261 0.0
H1620 H 0.62729 0.54442 0.633 0.0
C1621 C 0.66195 0.65375 0.61534 0.0
C1622 C 0.67311 0.63993 0.63461 0.0
H1623 H 0.62987 0.64044 0.58791 0.0
H1624 H 0.67161 0.68408 0.61014 0.0
C1625 C 0.66129 0.59983 0.64065 0.0
C1626 C 0.68251 0.40846 0.86437 0.0
C1627 C 0.67531 0.36537 0.86285 0.0
H1628 H 0.66214 0.467 0.87667 0.0
C1629 C 0.64281 0.34845 0.8745 0.0
H1630 H 0.70708 0.42287 0.85577 0.0
C1631 C 0.61691 0.37378 0.8862 0.0
C1632 C 0.62297 0.41683 0.88704 0.0
H1633 H 0.63676 0.31547 0.8745 0.0
H1634 H 0.59162 0.35971 0.89447 0.0
C1635 C 0.65677 0.43383 0.87641 0.0
C1636 C 0.86488 0.42849 0.11475 0.0
C1637 C 0.89221 0.41207 0.10023 0.0
H1638 H 0.82145 0.41635 0.13842 0.0
C1639 C 0.8951 0.36871 0.09844 0.0
H1640 H 0.86261 0.46175 0.11685 0.0
C1641 C 0.87105 0.34238 0.11064 0.0
C1642 C 0.84372 0.35852 0.12534 0.0
H1643 H 0.91589 0.35512 0.08744 0.0
H1644 H 0.8739 0.30929 0.10831 0.0
C1645 C 0.84128 0.40218 0.12721 0.0
C1646 C 0.86369 0.66235 0.37361 0.0
C1647 C 0.84527 0.64709 0.35594 0.0
H1648 H 0.90131 0.64934 0.39934 0.0
C1649 C 0.85012 0.60466 0.35124 0.0
H1650 H 0.85966 0.69445 0.37803 0.0
C1651 C 0.87389 0.57853 0.36368 0.0
C1652 C 0.89328 0.59443 0.381 0.0
H1653 H 0.83634 0.59195 0.33773 0.0
H1654 H 0.87823 0.54633 0.35946 0.0
C1655 C 0.88736 0.63644 0.38591 0.0
C1656 C 0.36693 0.35354 0.36966 0.0
C1657 C 0.34243 0.36949 0.35393 0.0
H1658 H 0.40931 0.36575 0.39365 0.0
C1659 C 0.34193 0.41304 0.35128 0.0
H1660 H 0.36741 0.32068 0.3729 0.0
C1661 C 0.36611 0.43937 0.36361 0.0
C1662 C 0.39155 0.42284 0.37885 0.0
H1663 H 0.32342 0.4268 0.33948 0.0
H1664 H 0.36583 0.47248 0.36085 0.0
C1665 C 0.391 0.37962 0.3818 0.0
C1666 C 0.38828 0.63206 0.10468 0.0
C1667 C 0.39133 0.58902 0.10776 0.0
H1668 H 0.36334 0.68994 0.1147 0.0
C1669 C 0.36943 0.57126 0.12392 0.0
H1670 H 0.40402 0.64656 0.09213 0.0
C1671 C 0.34609 0.5964 0.13708 0.0
C1672 C 0.34432 0.63969 0.13431 0.0
H1673 H 0.37141 0.53822 0.12673 0.0
H1674 H 0.33017 0.58215 0.14965 0.0
C1675 C 0.36516 0.657 0.11773 0.0
C1676 C 0.13167 0.66081 0.87117 0.0
C1677 C 0.16995 0.64687 0.86338 0.0
H1678 H 0.07891 0.64877 0.88963 0.0
C1679 C 0.18385 0.60727 0.86948 0.0
H1680 H 0.11981 0.69121 0.86745 0.0
C1681 C 0.15978 0.58233 0.8825 0.0
C1682 C 0.12103 0.5962 0.88993 0.0
H1683 H 0.21295 0.59504 0.86393 0.0
H1684 H 0.17133 0.55183 0.88631 0.0
C1685 C 0.10787 0.63613 0.88414 0.0
C1686 C 0.12859 0.39141 0.64066 0.0
C1687 C 0.16637 0.37616 0.63329 0.0
H1688 H 0.07336 0.42618 0.6344 0.0
C1689 C 0.17767 0.38475 0.61327 0.0
H1690 H 0.11937 0.38498 0.65601 0.0
C1691 C 0.15127 0.40804 0.60079 0.0
C1692 C 0.11299 0.42276 0.6081 0.0
H1693 H 0.20643 0.37258 0.60722 0.0
H1694 H 0.16026 0.41382 0.58534 0.0
C1695 C 0.10223 0.41454 0.62823 0.0
C1696 C 0.25266 0.29008 0.2318 0.0
C1697 C 0.26139 0.24835 0.22673 0.0
H1698 H 0.23266 0.33329 0.25452 0.0
C1699 C 0.25551 0.21771 0.24136 0.0
H1700 H 0.25675 0.31462 0.22086 0.0
C1701 C 0.24159 0.22857 0.26062 0.0
C1702 C 0.23324 0.27035 0.26578 0.0
H1703 H 0.26192 0.18541 0.238 0.0
H1704 H 0.23772 0.20397 0.27155 0.0
C1705 C 0.23877 0.30097 0.25109 0.0
C1706 C 0.01133 0.05027 0.50704 0.0
C1707 C 0.98143 0.01732 0.51072 0.0
H1708 H 0.04959 0.08221 0.4855 0.0
C1709 C 0.97041 0.98866 0.49482 0.0
H1710 H 0.02056 0.07072 0.5192 0.0
C1711 C 0.98778 0.99479 0.4757 0.0
C1712 C 0.01897 0.0293 0.47217 0.0
H1713 H 0.95045 0.96215 0.49736 0.0
H1714 H 0.97909 0.97396 0.4636 0.0
C1715 C 0.02891 0.05622 0.48797 0.0
C1716 C 0.28217 0.7814 0.75796 0.0
C1717 C 0.26484 0.7448 0.76609 0.0
H1718 H 0.28568 0.82288 0.73271 0.0
C1719 C 0.23676 0.72193 0.7546 0.0
H1720 H 0.30409 0.79962 0.76659 0.0
C1721 C 0.22599 0.73565 0.73535 0.0
C1722 C 0.24323 0.77229 0.72726 0.0
H1723 H 0.22233 0.69429 0.76068 0.0
H1724 H 0.20399 0.71749 0.72674 0.0
C1725 C 0.27138 0.79513 0.73874 0.0
C1726 C 0.49248 0.96781 0.99386 0.0
C1727 C 0.4868 0.99577 0.97797 0.0
H1728 H 0.5125 0.95943 0.02283 0.0
C1729 C 0.50093 0.03916 0.98031 0.0
H1730 H 0.48392 0.93549 0.99212 0.0
C1731 C 0.51819 0.05263 -0.00302 0.0
C1732 C 0.52367 0.02469 0.01291 0.0
H1733 H 0.49819 0.06092 0.96797 0.0
H1734 H 0.52668 0.08497 -0.00126 0.0
C1735 C 0.50978 0.98124 0.0105 0.0
C1736 C 0.27813 0.72777 0.2565 0.0
C1737 C 0.27164 0.76839 0.26378 0.0
H1738 H 0.27082 0.68504 0.23198 0.0
C1739 C 0.25223 0.79758 0.25138 0.0
H1740 H 0.29336 0.7046 0.26569 0.0
C1741 C 0.23928 0.7862 0.2321 0.0
C1742 C 0.24564 0.74551 0.22486 0.0
H1743 H 0.24653 0.82891 0.25665 0.0
H1744 H 0.22402 0.80934 0.22291 0.0
C1745 C 0.26517 0.71639 0.23724 0.0
C1746 C 0.53195 0.99737 0.5156 0.0
C1747 C 0.49567 0.02263 0.51887 0.0
H1748 H 0.57284 0.9681 0.49418 0.0
C1749 C 0.47248 0.03499 0.50215 0.0
H1750 H 0.55059 0.98725 0.52822 0.0
C1751 C 0.48569 0.02442 0.48267 0.0
C1752 C 0.5218 0.99888 0.47939 0.0
H1753 H 0.4446 0.05337 0.50407 0.0
H1754 H 0.46694 0.03449 0.47008 0.0
C1755 C 0.5451 0.98668 0.49611 0.0
C1756 C 0.26591 0.22307 0.73069 0.0
C1757 C 0.2635 0.2649 0.72433 0.0
H1758 H 0.25916 0.17955 0.75506 0.0
C1759 C 0.25104 0.29503 0.73825 0.0
H1760 H 0.27555 0.19891 0.72034 0.0
C1761 C 0.24159 0.28377 0.75804 0.0
C1762 C 0.24458 0.24209 0.76457 0.0
H1763 H 0.24865 0.32733 0.73389 0.0
H1764 H 0.23207 0.30817 0.76829 0.0
C1765 C 0.25653 0.21176 0.75059 0.0
C1766 C 1.0043 0.04751 0.00945 0.0
C1767 C 0.02872 0.01054 0.01249 0.0
H1768 H 0.968 0.08355 0.99057 0.0
C1769 C 0.02854 0.978 -0.00263 0.0
H1770 H 1.00246 0.07066 0.02128 0.0
C1771 C 1.00569 0.98465 0.98086 0.0
C1772 C 0.98366 0.02367 0.9779 0.0
H1773 H 0.04374 0.94844 -0.00025 0.0
H1774 H 0.00935 0.96133 0.9691 0.0
C1775 C 0.98356 0.05414 0.99294 0.0
C1776 C 0.73306 0.74359 0.73053 0.0
C1777 C 0.77243 0.75208 0.72279 0.0
H1778 H 0.69116 0.75251 0.75518 0.0
C1779 C 0.79919 0.77899 0.73319 0.0
H1780 H 0.71169 0.72387 0.72237 0.0
C1781 C 0.78739 0.79576 0.75173 0.0
C1782 C 0.74838 0.78643 0.75972 0.0
H1783 H 0.82958 0.78621 0.72716 0.0
H1784 H 0.80941 0.81405 0.76025 0.0
C1785 C 0.72106 0.76081 0.7489 0.0
C1786 C 0.74348 0.22475 0.22737 0.0
C1787 C 0.74386 0.26693 0.22153 0.0
H1788 H 0.75137 0.18037 0.25111 0.0
C1789 C 0.75238 0.29715 0.2361 0.0
H1790 H 0.73669 0.20045 0.21659 0.0
C1791 C 0.76064 0.28537 0.25598 0.0
C1792 C 0.76051 0.24313 0.26174 0.0
H1793 H 0.75275 0.32977 0.23216 0.0
H1794 H 0.76742 0.30956 0.26681 0.0
C1795 C 0.75178 0.213 0.2472 0.0
C1796 C 0.72147 0.22157 0.74157 0.0
C1797 C 0.73492 0.24437 0.72491 0.0
H1798 H 0.71986 0.21684 0.77363 0.0
C1799 C 0.75695 0.28168 0.72819 0.0
H1800 H 0.70379 0.19329 0.73956 0.0
C1801 C 0.76603 0.2955 0.74772 0.0
C1802 C 0.75308 0.27231 0.76436 0.0
H1803 H 0.76773 0.30006 0.71559 0.0
H1804 H 0.78435 0.32336 0.74974 0.0
C1805 C 0.73029 0.2355 0.76105 0.0
C1806 C 0.77907 0.71526 0.22647 0.0
C1807 C 0.76748 0.75477 0.21917 0.0
H1808 H 0.78037 0.67368 0.25181 0.0
C1809 C 0.74489 0.78144 0.23165 0.0
H1810 H 0.79659 0.69397 0.2171 0.0
C1811 C 0.73528 0.7695 0.25126 0.0
C1812 C 0.74841 0.73086 0.25889 0.0
H1813 H 0.73495 0.81163 0.22634 0.0
H1814 H 0.71835 0.79117 0.2607 0.0
C1815 C 0.76959 0.70334 0.24622 0.0
C1816 C 0.50465 0.54431 0.00597 0.0
C1817 C 0.48651 0.50619 0.01114 0.0
H1818 H 0.53931 0.57849 0.98515 0.0
C1819 C 0.49158 0.47204 -0.00173 0.0
H1820 H 0.50255 0.5706 0.01613 0.0
C1821 C 0.5146 0.4759 0.98186 0.0
C1822 C 0.53266 0.51393 0.97665 0.0
H1823 H 0.47979 0.44181 0.00232 0.0
H1824 H 0.51678 0.4495 0.97177 0.0
C1825 C 0.52751 0.54827 0.98942 0.0
C1826 C 0.00829 0.47958 0.50828 0.0
C1827 C 0.02421 0.51852 0.5136 0.0
H1828 H 0.97669 0.44304 0.48557 0.0
C1829 C 0.01956 0.55206 0.50038 0.0
H1830 H 0.01051 0.45366 0.5186 0.0
C1831 C 0.99782 0.54637 0.48182 0.0
C1832 C 0.98188 0.50736 0.47648 0.0
H1833 H 0.03012 0.58278 0.50462 0.0
H1834 H 0.99613 0.57212 0.47138 0.0
C1835 C 0.98659 0.47392 0.48977 0.0
C1836 C 0.04758 0.51009 0.98865 0.0
C1837 C 0.02202 0.48288 0.97792 0.0
H1838 H 0.05322 0.54961 0.01299 0.0
C1839 C 0.97969 0.47472 0.98552 0.0
H1840 H 0.07812 0.5179 0.98301 0.0
C1841 C 0.96469 0.49341 0.00192 0.0
C1842 C 0.99028 0.52059 0.01266 0.0
H1843 H 0.95901 0.45398 0.97755 0.0
H1844 H 0.93408 0.48575 0.00752 0.0
C1845 C 0.03259 0.52876 0.00505 0.0
C1846 C 0.47102 0.48441 0.48672 0.0
C1847 C 0.49122 0.51336 0.4746 0.0
H1848 H 0.47006 0.45368 0.5152 0.0
C1849 C 0.52638 0.53438 0.48209 0.0
H1850 H 0.44447 0.46738 0.48114 0.0
C1851 C 0.5415 0.52625 0.50134 0.0
C1852 C 0.52143 0.49717 0.51342 0.0
H1853 H 0.54236 0.55717 0.47294 0.0
H1854 H 0.56797 0.54338 0.50695 0.0
C1855 C 0.48612 0.47631 0.506 0.0
loop_
_geom_bond_atom_site_label_1
_geom_bond_atom_site_label_2
_geom_bond_distance
_geom_bond_site_symmetry_2
_ccdc_geom_bond_type
C0 C1 1.351 . S
C0 N3 1.368 . S
C0 H5 0.931 . S
C1 C0 1.351 . S
C1 N2 1.373 . S
C1 H29 0.930 . S
N2 C1 1.373 . S
N2 C4 1.340 . S
N3 C0 1.368 . S
N3 C4 1.321 . S
N3 Co6 2.135 . S
C4 N2 1.340 . S
C4 N3 1.321 . S
C4 H28 0.930 . S
H5 C0 0.931 . S
Co6 N3 2.135 . S
Co6 N9 2.121 . S
Co6 O14 2.055 . S
Co6 O17 2.039 . S
Co6 N20 2.140 . S
C7 O8 1.227 . S
C7 O17 1.265 . S
O8 C7 1.227 . S
N9 Co6 2.121 . S
N9 C11 1.375 . S
N9 C12 1.313 . S
C10 C11 1.338 . S
C10 N13 1.377 . S
C10 H30 0.930 . S
C11 N9 1.375 . S
C11 C10 1.338 . S
C11 H15 0.931 . S
C12 N9 1.313 . S
C12 N13 1.344 . S
C12 H16 0.930 . S
N13 C10 1.377 . S
N13 C12 1.344 . S
O14 Co6 2.055 . S
O14 C18 1.253 . S
H15 C11 0.931 . S
H16 C12 0.930 . S
O17 Co6 2.039 . S
O17 C7 1.265 . S
C18 O14 1.253 . S
C18 O19 1.227 . S
O19 C18 1.227 . S
N20 Co6 2.140 . S
N20 C23 1.346 . S
N20 C24 1.345 . S
C21 C22 1.387 . S
C21 C25 1.391 . S
C22 C21 1.387 . S
C22 C23 1.369 . S
C22 H31 0.929 . S
C23 N20 1.346 . S
C23 C22 1.369 . S
C23 H26 0.928 . S
C24 N20 1.345 . S
C24 C25 1.371 . S
C24 H27 0.931 . S
C25 C21 1.391 . S
C25 C24 1.371 . S
C25 H32 0.930 . S
H26 C23 0.928 . S
H27 C24 0.931 . S
H28 C4 0.930 . S
H29 C1 0.930 . S
H30 C10 0.930 . S
H31 C22 0.929 . S
H32 C25 0.930 . S
C33 C34 1.351 . S
C33 N36 1.368 1_565 S
C33 H38 0.931 . S
C34 C33 1.351 . S
C34 N35 1.373 . S
C34 H62 0.930 . S
N35 C34 1.373 . S
N35 C37 1.340 . S
N36 C33 1.368 1_545 S
N36 C37 1.321 1_545 S
N36 Co39 2.135 . S
C37 N35 1.340 . S
C37 N36 1.321 1_565 S
C37 H61 0.930 1_565 S
H38 C33 0.931 . S
Co39 N36 2.135 . S
Co39 N42 2.121 . S
Co39 O47 2.055 . S
Co39 O50 2.039 . S
Co39 N53 2.140 . S
C40 O41 1.227 . S
C40 O50 1.265 . S
O41 C40 1.227 . S
N42 Co39 2.121 . S
N42 C44 1.375 . S
N42 C45 1.313 . S
C43 C44 1.338 . S
C43 N46 1.377 . S
C43 H63 0.930 . S
C44 N42 1.375 . S
C44 C43 1.338 . S
C44 H48 0.931 . S
C45 N42 1.313 . S
C45 N46 1.344 . S
C45 H49 0.930 . S
N46 C43 1.377 . S
N46 C45 1.344 . S
O47 Co39 2.055 . S
O47 C51 1.253 . S
H48 C44 0.931 . S
H49 C45 0.930 . S
O50 Co39 2.039 . S
O50 C40 1.265 . S
C51 O47 1.253 . S
C51 O52 1.227 . S
O52 C51 1.227 . S
N53 Co39 2.140 . S
N53 C56 1.346 . S
N53 C57 1.345 1_455 S
C54 C55 1.387 . S
C54 C58 1.391 . S
C55 C54 1.387 . S
C55 C56 1.369 1_655 S
C55 H64 0.929 . S
C56 N53 1.346 . S
C56 C55 1.369 1_455 S
C56 H59 0.928 . S
C57 N53 1.345 1_655 S
C57 C58 1.371 . S
C57 H60 0.931 . S
C58 C54 1.391 . S
C58 C57 1.371 . S
C58 H65 0.930 . S
H59 C56 0.928 . S
H60 C57 0.931 . S
H61 C37 0.930 1_545 S
H62 C34 0.930 . S
H63 C43 0.930 . S
H64 C55 0.929 . S
H65 C58 0.930 . S
C66 C67 1.351 . S
C66 N69 1.368 . S
C66 H71 0.931 . S
C67 C66 1.351 . S
C67 N68 1.373 . S
C67 H95 0.930 . S
N68 C67 1.373 . S
N68 C70 1.340 . S
N69 C66 1.368 . S
N69 C70 1.321 . S
N69 Co72 2.135 . S
C70 N68 1.340 . S
C70 N69 1.321 . S
C70 H94 0.930 . S
H71 C66 0.931 . S
Co72 N69 2.135 . S
Co72 N75 2.121 . S
Co72 O80 2.055 . S
Co72 O83 2.039 . S
Co72 N86 2.140 . S
C73 O74 1.227 . S
C73 O83 1.265 . S
O74 C73 1.227 . S
N75 Co72 2.121 . S
N75 C77 1.375 . S
N75 C78 1.313 . S
C76 C77 1.338 . S
C76 N79 1.377 . S
C76 H96 0.930 . S
C77 N75 1.375 . S
C77 C76 1.338 . S
C77 H81 0.931 . S
C78 N75 1.313 . S
C78 N79 1.344 . S
C78 H82 0.930 . S
N79 C76 1.377 . S
N79 C78 1.344 . S
O80 Co72 2.055 . S
O80 C84 1.253 . S
H81 C77 0.931 . S
H82 C78 0.930 . S
O83 Co72 2.039 . S
O83 C73 1.265 . S
C84 O80 1.253 . S
C84 O85 1.227 . S
O85 C84 1.227 . S
N86 Co72 2.140 . S
N86 C89 1.346 . S
N86 C90 1.345 . S
C87 C88 1.387 . S
C87 C91 1.391 . S
C88 C87 1.387 . S
C88 C89 1.369 . S
C88 H97 0.929 . S
C89 N86 1.346 . S
C89 C88 1.369 . S
C89 H92 0.928 . S
C90 N86 1.345 . S
C90 C91 1.371 . S
C90 H93 0.931 . S
C91 C87 1.391 . S
C91 C90 1.371 . S
C91 H98 0.930 . S
H92 C89 0.928 . S
H93 C90 0.931 . S
H94 C70 0.930 . S
H95 C67 0.930 . S
H96 C76 0.930 . S
H97 C88 0.929 . S
H98 C91 0.930 . S
C99 C100 1.351 . S
C99 N102 1.368 1_545 S
C99 H104 0.931 . S
C100 C99 1.351 . S
C100 N101 1.373 . S
C100 H128 0.930 . S
N101 C100 1.373 . S
N101 C103 1.340 . S
N102 C99 1.368 1_565 S
N102 C103 1.321 1_565 S
N102 Co105 2.135 . S
C103 N101 1.340 . S
C103 N102 1.321 1_545 S
C103 H127 0.930 1_545 S
H104 C99 0.931 . S
Co105 N102 2.135 . S
Co105 N108 2.121 . S
Co105 O113 2.055 . S
Co105 O116 2.039 . S
Co105 N119 2.140 . S
C106 O107 1.227 . S
C106 O116 1.265 . S
O107 C106 1.227 . S
N108 Co105 2.121 . S
N108 C110 1.375 . S
N108 C111 1.313 . S
C109 C110 1.338 . S
C109 N112 1.377 . S
C109 H129 0.930 . S
C110 N108 1.375 . S
C110 C109 1.338 . S
C110 H114 0.931 . S
C111 N108 1.313 . S
C111 N112 1.344 . S
C111 H115 0.930 . S
N112 C109 1.377 . S
N112 C111 1.344 . S
O113 Co105 2.055 . S
O113 C117 1.253 . S
H114 C110 0.931 . S
H115 C111 0.930 . S
O116 Co105 2.039 . S
O116 C106 1.265 . S
C117 O113 1.253 . S
C117 O118 1.227 . S
O118 C117 1.227 . S
N119 Co105 2.140 . S
N119 C122 1.346 . S
N119 C123 1.345 . S
C120 C121 1.387 . S
C120 C124 1.391 . S
C121 C120 1.387 . S
C121 C122 1.369 . S
C121 H130 0.929 . S
C122 N119 1.346 . S
C122 C121 1.369 . S
C122 H125 0.928 . S
C123 N119 1.345 . S
C123 C124 1.371 . S
C123 H126 0.931 . S
C124 C120 1.391 . S
C124 C123 1.371 . S
C124 H131 0.930 . S
H125 C122 0.928 . S
H126 C123 0.931 . S
H127 C103 0.930 1_565 S
H128 C100 0.930 . S
H129 C109 0.930 . S
H130 C121 0.929 . S
H131 C124 0.930 . S
C132 C133 1.351 . S
C132 N135 1.368 . S
C132 H137 0.931 . S
C133 C132 1.351 . S
C133 N134 1.373 . S
C133 H161 0.930 . S
N134 C133 1.373 . S
N134 C136 1.340 . S
N135 C132 1.368 . S
N135 C136 1.321 . S
N135 Co138 2.135 . S
C136 N134 1.340 . S
C136 N135 1.321 . S
C136 H160 0.930 . S
H137 C132 0.931 . S
Co138 N135 2.135 . S
Co138 N141 2.121 . S
Co138 O146 2.055 . S
Co138 O149 2.039 . S
Co138 N152 2.140 . S
C139 O140 1.227 . S
C139 O149 1.265 . S
O140 C139 1.227 . S
N141 Co138 2.121 . S
N141 C143 1.375 . S
N141 C144 1.313 . S
C142 C143 1.338 . S
C142 N145 1.377 . S
C142 H162 0.930 . S
C143 N141 1.375 . S
C143 C142 1.338 . S
C143 H147 0.931 . S
C144 N141 1.313 . S
C144 N145 1.344 . S
C144 H148 0.930 . S
N145 C142 1.377 . S
N145 C144 1.344 . S
O146 Co138 2.055 . S
O146 C150 1.253 . S
H147 C143 0.931 . S
H148 C144 0.930 . S
O149 Co138 2.039 . S
O149 C139 1.265 . S
C150 O146 1.253 . S
C150 O151 1.227 . S
O151 C150 1.227 . S
N152 Co138 2.140 . S
N152 C155 1.346 . S
N152 C156 1.345 . S
C153 C154 1.387 . S
C153 C157 1.391 . S
C154 C153 1.387 . S
C154 C155 1.369 . S
C154 H163 0.929 . S
C155 N152 1.346 . S
C155 C154 1.369 . S
C155 H158 0.928 . S
C156 N152 1.345 . S
C156 C157 1.371 . S
C156 H159 0.931 . S
C157 C153 1.391 . S
C157 C156 1.371 . S
C157 H164 0.930 . S
H158 C155 0.928 . S
H159 C156 0.931 . S
H160 C136 0.930 . S
H161 C133 0.930 . S
H162 C142 0.930 . S
H163 C154 0.929 . S
H164 C157 0.930 . S
C165 C166 1.351 . S
C165 N168 1.368 1_565 S
C165 H170 0.931 . S
C166 C165 1.351 . S
C166 N167 1.373 . S
C166 H194 0.930 . S
N167 C166 1.373 . S
N167 C169 1.340 . S
N168 C165 1.368 1_545 S
N168 C169 1.321 1_545 S
N168 Co171 2.135 . S
C169 N167 1.340 . S
C169 N168 1.321 1_565 S
C169 H193 0.930 1_565 S
H170 C165 0.931 . S
Co171 N168 2.135 . S
Co171 N174 2.121 . S
Co171 O179 2.055 . S
Co171 O182 2.039 . S
Co171 N185 2.140 . S
C172 O173 1.227 . S
C172 O182 1.265 . S
O173 C172 1.227 . S
N174 Co171 2.121 . S
N174 C176 1.375 . S
N174 C177 1.313 . S
C175 C176 1.338 . S
C175 N178 1.377 . S
C175 H195 0.930 . S
C176 N174 1.375 . S
C176 C175 1.338 . S
C176 H180 0.931 . S
C177 N174 1.313 . S
C177 N178 1.344 . S
C177 H181 0.930 . S
N178 C175 1.377 . S
N178 C177 1.344 . S
O179 Co171 2.055 . S
O179 C183 1.253 . S
H180 C176 0.931 . S
H181 C177 0.930 . S
O182 Co171 2.039 . S
O182 C172 1.265 . S
C183 O179 1.253 . S
C183 O184 1.227 . S
O184 C183 1.227 . S
N185 Co171 2.140 . S
N185 C188 1.346 . S
N185 C189 1.345 . S
C186 C187 1.387 . S
C186 C190 1.391 . S
C187 C186 1.387 . S
C187 C188 1.369 . S
C187 H196 0.929 . S
C188 N185 1.346 . S
C188 C187 1.369 . S
C188 H191 0.928 . S
C189 N185 1.345 . S
C189 C190 1.371 . S
C189 H192 0.931 . S
C190 C186 1.391 . S
C190 C189 1.371 . S
C190 H197 0.930 . S
H191 C188 0.928 . S
H192 C189 0.931 . S
H193 C169 0.930 1_545 S
H194 C166 0.930 . S
H195 C175 0.930 . S
H196 C187 0.929 . S
H197 C190 0.930 . S
C198 C199 1.351 . S
C198 N201 1.368 . S
C198 H203 0.931 . S
C199 C198 1.351 . S
C199 N200 1.373 . S
C199 H227 0.930 . S
N200 C199 1.373 . S
N200 C202 1.340 . S
N201 C198 1.368 . S
N201 C202 1.321 . S
N201 Co204 2.135 . S
C202 N200 1.340 . S
C202 N201 1.321 . S
C202 H226 0.930 . S
H203 C198 0.931 . S
Co204 N201 2.135 . S
Co204 N207 2.121 . S
Co204 O212 2.055 . S
Co204 O215 2.039 . S
Co204 N218 2.140 . S
C205 O206 1.227 . S
C205 O215 1.265 . S
O206 C205 1.227 . S
N207 Co204 2.121 . S
N207 C209 1.375 . S
N207 C210 1.313 . S
C208 C209 1.338 . S
C208 N211 1.377 . S
C208 H228 0.930 . S
C209 N207 1.375 . S
C209 C208 1.338 . S
C209 H213 0.931 . S
C210 N207 1.313 . S
C210 N211 1.344 . S
C210 H214 0.930 . S
N211 C208 1.377 . S
N211 C210 1.344 . S
O212 Co204 2.055 . S
O212 C216 1.253 . S
H213 C209 0.931 . S
H214 C210 0.930 . S
O215 Co204 2.039 . S
O215 C205 1.265 . S
C216 O212 1.253 . S
C216 O217 1.227 . S
O217 C216 1.227 . S
N218 Co204 2.140 . S
N218 C221 1.346 . S
N218 C222 1.345 . S
C219 C220 1.387 . S
C219 C223 1.391 . S
C220 C219 1.387 . S
C220 C221 1.369 . S
C220 H229 0.929 . S
C221 N218 1.346 . S
C221 C220 1.369 . S
C221 H224 0.928 . S
C222 N218 1.345 . S
C222 C223 1.371 . S
C222 H225 0.931 . S
C223 C219 1.391 . S
C223 C222 1.371 . S
C223 H230 0.930 . S
H224 C221 0.928 . S
H225 C222 0.931 . S
H226 C202 0.930 . S
H227 C199 0.930 . S
H228 C208 0.930 . S
H229 C220 0.929 . S
H230 C223 0.930 . S
C231 C232 1.351 . S
C231 N234 1.368 1_545 S
C231 H236 0.931 . S
C232 C231 1.351 . S
C232 N233 1.373 . S
C232 H260 0.930 . S
N233 C232 1.373 . S
N233 C235 1.340 . S
N234 C231 1.368 1_565 S
N234 C235 1.321 1_565 S
N234 Co237 2.135 . S
C235 N233 1.340 . S
C235 N234 1.321 1_545 S
C235 H259 0.930 1_545 S
H236 C231 0.931 . S
Co237 N234 2.135 . S
Co237 N240 2.121 . S
Co237 O245 2.055 . S
Co237 O248 2.039 . S
Co237 N251 2.140 . S
C238 O239 1.227 . S
C238 O248 1.265 . S
O239 C238 1.227 . S
N240 Co237 2.121 . S
N240 C242 1.375 . S
N240 C243 1.313 . S
C241 C242 1.338 . S
C241 N244 1.377 . S
C241 H261 0.930 . S
C242 N240 1.375 . S
C242 C241 1.338 . S
C242 H246 0.931 . S
C243 N240 1.313 . S
C243 N244 1.344 . S
C243 H247 0.930 . S
N244 C241 1.377 . S
N244 C243 1.344 . S
O245 Co237 2.055 . S
O245 C249 1.253 . S
H246 C242 0.931 . S
H247 C243 0.930 . S
O248 Co237 2.039 . S
O248 C238 1.265 . S
C249 O245 1.253 . S
C249 O250 1.227 . S
O250 C249 1.227 . S
N251 Co237 2.140 . S
N251 C254 1.346 . S
N251 C255 1.345 1_455 S
C252 C253 1.387 . S
C252 C256 1.391 . S
C253 C252 1.387 . S
C253 C254 1.369 1_655 S
C253 H262 0.929 . S
C254 N251 1.346 . S
C254 C253 1.369 1_455 S
C254 H257 0.928 . S
C255 N251 1.345 1_655 S
C255 C256 1.371 . S
C255 H258 0.931 . S
C256 C252 1.391 . S
C256 C255 1.371 . S
C256 H263 0.930 . S
H257 C254 0.928 . S
H258 C255 0.931 . S
H259 C235 0.930 1_565 S
H260 C232 0.930 . S
H261 C241 0.930 . S
H262 C253 0.929 . S
H263 C256 0.930 . S
C264 C265 1.351 . S
C264 N267 1.368 . S
C264 H269 0.931 . S
C265 C264 1.351 . S
C265 N266 1.373 . S
C265 H293 0.930 . S
N266 C265 1.373 . S
N266 C268 1.340 . S
N267 C264 1.368 . S
N267 C268 1.321 . S
N267 Co270 2.135 . S
C268 N266 1.340 . S
C268 N267 1.321 . S
C268 H292 0.930 . S
H269 C264 0.931 . S
Co270 N267 2.135 . S
Co270 N273 2.121 . S
Co270 O278 2.055 . S
Co270 O281 2.039 . S
Co270 N284 2.140 . S
C271 O272 1.227 . S
C271 O281 1.265 . S
O272 C271 1.227 . S
N273 Co270 2.121 . S
N273 C275 1.375 . S
N273 C276 1.313 . S
C274 C275 1.338 . S
C274 N277 1.377 . S
C274 H294 0.930 . S
C275 N273 1.375 . S
C275 C274 1.338 . S
C275 H279 0.931 . S
C276 N273 1.313 . S
C276 N277 1.344 . S
C276 H280 0.930 . S
N277 C274 1.377 . S
N277 C276 1.344 . S
O278 Co270 2.055 . S
O278 C282 1.253 . S
H279 C275 0.931 . S
H280 C276 0.930 . S
O281 Co270 2.039 . S
O281 C271 1.265 . S
C282 O278 1.253 . S
C282 O283 1.227 . S
O283 C282 1.227 . S
N284 Co270 2.140 . S
N284 C287 1.346 . S
N284 C288 1.345 . S
C285 C286 1.387 . S
C285 C289 1.391 . S
C286 C285 1.387 . S
C286 C287 1.369 . S
C286 H295 0.929 . S
C287 N284 1.346 . S
C287 C286 1.369 . S
C287 H290 0.928 . S
C288 N284 1.345 . S
C288 C289 1.371 . S
C288 H291 0.931 . S
C289 C285 1.391 . S
C289 C288 1.371 . S
C289 H296 0.930 . S
H290 C287 0.928 . S
H291 C288 0.931 . S
H292 C268 0.930 . S
H293 C265 0.930 . S
H294 C274 0.930 . S
H295 C286 0.929 . S
H296 C289 0.930 . S
C297 C298 1.351 . S
C297 N300 1.368 1_545 S
C297 H302 0.931 . S
C298 C297 1.351 . S
C298 N299 1.373 . S
C298 H326 0.930 . S
N299 C298 1.373 . S
N299 C301 1.340 . S
N300 C297 1.368 1_565 S
N300 C301 1.321 1_565 S
N300 Co303 2.135 . S
C301 N299 1.340 . S
C301 N300 1.321 1_545 S
C301 H325 0.930 1_545 S
H302 C297 0.931 . S
Co303 N300 2.135 . S
Co303 N306 2.121 . S
Co303 O311 2.055 . S
Co303 O314 2.039 . S
Co303 N317 2.140 . S
C304 O305 1.227 . S
C304 O314 1.265 . S
O305 C304 1.227 . S
N306 Co303 2.121 . S
N306 C308 1.375 . S
N306 C309 1.313 . S
C307 C308 1.338 . S
C307 N310 1.377 . S
C307 H327 0.930 . S
C308 N306 1.375 . S
C308 C307 1.338 . S
C308 H312 0.931 . S
C309 N306 1.313 . S
C309 N310 1.344 . S
C309 H313 0.930 . S
N310 C307 1.377 . S
N310 C309 1.344 . S
O311 Co303 2.055 . S
O311 C315 1.253 . S
H312 C308 0.931 . S
H313 C309 0.930 . S
O314 Co303 2.039 . S
O314 C304 1.265 . S
C315 O311 1.253 . S
C315 O316 1.227 . S
O316 C315 1.227 . S
N317 Co303 2.140 . S
N317 C320 1.346 . S
N317 C321 1.345 1_655 S
C318 C319 1.387 . S
C318 C322 1.391 . S
C319 C318 1.387 . S
C319 C320 1.369 1_455 S
C319 H328 0.929 . S
C320 N317 1.346 . S
C320 C319 1.369 1_655 S
C320 H323 0.928 . S
C321 N317 1.345 1_455 S
C321 C322 1.371 . S
C321 H324 0.931 . S
C322 C318 1.391 . S
C322 C321 1.371 . S
C322 H329 0.930 . S
H323 C320 0.928 . S
H324 C321 0.931 . S
H325 C301 0.930 1_565 S
H326 C298 0.930 . S
H327 C307 0.930 . S
H328 C319 0.929 . S
H329 C322 0.930 . S
C330 C331 1.351 . S
C330 N333 1.368 . S
C330 H335 0.931 . S
C331 C330 1.351 . S
C331 N332 1.373 . S
C331 H359 0.930 . S
N332 C331 1.373 . S
N332 C334 1.340 . S
N333 C330 1.368 . S
N333 C334 1.321 . S
N333 Co336 2.135 . S
C334 N332 1.340 . S
C334 N333 1.321 . S
C334 H358 0.930 . S
H335 C330 0.931 . S
Co336 N333 2.135 . S
Co336 N339 2.121 . S
Co336 O344 2.055 . S
Co336 O347 2.039 . S
Co336 N350 2.140 . S
C337 O338 1.227 . S
C337 O347 1.265 . S
O338 C337 1.227 . S
N339 Co336 2.121 . S
N339 C341 1.375 . S
N339 C342 1.313 . S
C340 C341 1.338 . S
C340 N343 1.377 . S
C340 H360 0.930 . S
C341 N339 1.375 . S
C341 C340 1.338 . S
C341 H345 0.931 . S
C342 N339 1.313 . S
C342 N343 1.344 . S
C342 H346 0.930 . S
N343 C340 1.377 . S
N343 C342 1.344 . S
O344 Co336 2.055 . S
O344 C348 1.253 . S
H345 C341 0.931 . S
H346 C342 0.930 . S
O347 Co336 2.039 . S
O347 C337 1.265 . S
C348 O344 1.253 . S
C348 O349 1.227 . S
O349 C348 1.227 . S
N350 Co336 2.140 . S
N350 C353 1.346 . S
N350 C354 1.345 . S
C351 C352 1.387 . S
C351 C355 1.391 . S
C352 C351 1.387 . S
C352 C353 1.369 . S
C352 H361 0.929 . S
C353 N350 1.346 . S
C353 C352 1.369 . S
C353 H356 0.928 . S
C354 N350 1.345 . S
C354 C355 1.371 . S
C354 H357 0.931 . S
C355 C351 1.391 . S
C355 C354 1.371 . S
C355 H362 0.930 . S
H356 C353 0.928 . S
H357 C354 0.931 . S
H358 C334 0.930 . S
H359 C331 0.930 . S
H360 C340 0.930 . S
H361 C352 0.929 . S
H362 C355 0.930 . S
C363 C364 1.351 . S
C363 N366 1.368 1_565 S
C363 H368 0.931 . S
C364 C363 1.351 . S
C364 N365 1.373 . S
C364 H392 0.930 . S
N365 C364 1.373 . S
N365 C367 1.340 . S
N366 C363 1.368 1_545 S
N366 C367 1.321 1_545 S
N366 Co369 2.135 . S
C367 N365 1.340 . S
C367 N366 1.321 1_565 S
C367 H391 0.930 1_565 S
H368 C363 0.931 . S
Co369 N366 2.135 . S
Co369 N372 2.121 . S
Co369 O377 2.055 . S
Co369 O380 2.039 . S
Co369 N383 2.140 . S
C370 O371 1.227 . S
C370 O380 1.265 . S
O371 C370 1.227 . S
N372 Co369 2.121 . S
N372 C374 1.375 . S
N372 C375 1.313 . S
C373 C374 1.338 . S
C373 N376 1.377 . S
C373 H393 0.930 . S
C374 N372 1.375 . S
C374 C373 1.338 . S
C374 H378 0.931 . S
C375 N372 1.313 . S
C375 N376 1.344 . S
C375 H379 0.930 . S
N376 C373 1.377 . S
N376 C375 1.344 . S
O377 Co369 2.055 . S
O377 C381 1.253 . S
H378 C374 0.931 . S
H379 C375 0.930 . S
O380 Co369 2.039 . S
O380 C370 1.265 . S
C381 O377 1.253 . S
C381 O382 1.227 . S
O382 C381 1.227 . S
N383 Co369 2.140 . S
N383 C386 1.346 . S
N383 C387 1.345 . S
C384 C385 1.387 . S
C384 C388 1.391 . S
C385 C384 1.387 . S
C385 C386 1.369 . S
C385 H394 0.929 . S
C386 N383 1.346 . S
C386 C385 1.369 . S
C386 H389 0.928 . S
C387 N383 1.345 . S
C387 C388 1.371 . S
C387 H390 0.931 . S
C388 C384 1.391 . S
C388 C387 1.371 . S
C388 H395 0.930 . S
H389 C386 0.928 . S
H390 C387 0.931 . S
H391 C367 0.930 1_545 S
H392 C364 0.930 . S
H393 C373 0.930 . S
H394 C385 0.929 . S
H395 C388 0.930 . S
C396 C397 1.351 . S
C396 N399 1.368 . S
C396 H401 0.931 . S
C397 C396 1.351 . S
C397 N398 1.373 . S
C397 H425 0.930 . S
N398 C397 1.373 . S
N398 C400 1.340 . S
N399 C396 1.368 . S
N399 C400 1.321 . S
N399 Co402 2.135 . S
C400 N398 1.340 . S
C400 N399 1.321 . S
C400 H424 0.930 . S
H401 C396 0.931 . S
Co402 N399 2.135 . S
Co402 N405 2.121 . S
Co402 O410 2.055 . S
Co402 O413 2.039 . S
Co402 N416 2.140 . S
C403 O404 1.227 . S
C403 O413 1.265 . S
O404 C403 1.227 . S
N405 Co402 2.121 . S
N405 C407 1.375 . S
N405 C408 1.313 . S
C406 C407 1.338 . S
C406 N409 1.377 . S
C406 H426 0.930 . S
C407 N405 1.375 . S
C407 C406 1.338 . S
C407 H411 0.931 . S
C408 N405 1.313 . S
C408 N409 1.344 . S
C408 H412 0.930 . S
N409 C406 1.377 . S
N409 C408 1.344 . S
O410 Co402 2.055 . S
O410 C414 1.253 . S
H411 C407 0.931 . S
H412 C408 0.930 . S
O413 Co402 2.039 . S
O413 C403 1.265 . S
C414 O410 1.253 . S
C414 O415 1.227 . S
O415 C414 1.227 . S
N416 Co402 2.140 . S
N416 C419 1.346 . S
N416 C420 1.345 . S
C417 C418 1.387 . S
C417 C421 1.391 . S
C418 C417 1.387 . S
C418 C419 1.369 . S
C418 H427 0.929 . S
C419 N416 1.346 . S
C419 C418 1.369 . S
C419 H422 0.928 . S
C420 N416 1.345 . S
C420 C421 1.371 . S
C420 H423 0.931 . S
C421 C417 1.391 . S
C421 C420 1.371 . S
C421 H428 0.930 . S
H422 C419 0.928 . S
H423 C420 0.931 . S
H424 C400 0.930 . S
H425 C397 0.930 . S
H426 C406 0.930 . S
H427 C418 0.929 . S
H428 C421 0.930 . S
C429 C430 1.351 . S
C429 N432 1.368 1_545 S
C429 H434 0.931 . S
C430 C429 1.351 . S
C430 N431 1.373 . S
C430 H458 0.930 . S
N431 C430 1.373 . S
N431 C433 1.340 . S
N432 C429 1.368 1_565 S
N432 C433 1.321 1_565 S
N432 Co435 2.135 . S
C433 N431 1.340 . S
C433 N432 1.321 1_545 S
C433 H457 0.930 1_545 S
H434 C429 0.931 . S
Co435 N432 2.135 . S
Co435 N438 2.121 . S
Co435 O443 2.055 . S
Co435 O446 2.039 . S
Co435 N449 2.140 . S
C436 O437 1.227 . S
C436 O446 1.265 . S
O437 C436 1.227 . S
N438 Co435 2.121 . S
N438 C440 1.375 . S
N438 C441 1.313 . S
C439 C440 1.338 . S
C439 N442 1.377 . S
C439 H459 0.930 . S
C440 N438 1.375 . S
C440 C439 1.338 . S
C440 H444 0.931 . S
C441 N438 1.313 . S
C441 N442 1.344 . S
C441 H445 0.930 . S
N442 C439 1.377 . S
N442 C441 1.344 . S
O443 Co435 2.055 . S
O443 C447 1.253 . S
H444 C440 0.931 . S
H445 C441 0.930 . S
O446 Co435 2.039 . S
O446 C436 1.265 . S
C447 O443 1.253 . S
C447 O448 1.227 . S
O448 C447 1.227 . S
N449 Co435 2.140 . S
N449 C452 1.346 . S
N449 C453 1.345 . S
C450 C451 1.387 . S
C450 C454 1.391 . S
C451 C450 1.387 . S
C451 C452 1.369 . S
C451 H460 0.929 . S
C452 N449 1.346 . S
C452 C451 1.369 . S
C452 H455 0.928 . S
C453 N449 1.345 . S
C453 C454 1.371 . S
C453 H456 0.931 . S
C454 C450 1.391 . S
C454 C453 1.371 . S
C454 H461 0.930 . S
H455 C452 0.928 . S
H456 C453 0.931 . S
H457 C433 0.930 1_565 S
H458 C430 0.930 . S
H459 C439 0.930 . S
H460 C451 0.929 . S
H461 C454 0.930 . S
C462 C463 1.351 . S
C462 N465 1.368 . S
C462 H467 0.931 . S
C463 C462 1.351 . S
C463 N464 1.373 . S
C463 H491 0.930 . S
N464 C463 1.373 . S
N464 C466 1.340 . S
N465 C462 1.368 . S
N465 C466 1.321 . S
N465 Co468 2.135 . S
C466 N464 1.340 . S
C466 N465 1.321 . S
C466 H490 0.930 . S
H467 C462 0.931 . S
Co468 N465 2.135 . S
Co468 N471 2.121 . S
Co468 O476 2.055 . S
Co468 O479 2.039 . S
Co468 N482 2.140 . S
C469 O470 1.227 . S
C469 O479 1.265 . S
O470 C469 1.227 . S
N471 Co468 2.121 . S
N471 C473 1.375 . S
N471 C474 1.313 . S
C472 C473 1.338 . S
C472 N475 1.377 . S
C472 H492 0.930 . S
C473 N471 1.375 . S
C473 C472 1.338 . S
C473 H477 0.931 . S
C474 N471 1.313 . S
C474 N475 1.344 . S
C474 H478 0.930 . S
N475 C472 1.377 . S
N475 C474 1.344 . S
O476 Co468 2.055 . S
O476 C480 1.253 . S
H477 C473 0.931 . S
H478 C474 0.930 . S
O479 Co468 2.039 . S
O479 C469 1.265 . S
C480 O476 1.253 . S
C480 O481 1.227 . S
O481 C480 1.227 . S
N482 Co468 2.140 . S
N482 C485 1.346 . S
N482 C486 1.345 . S
C483 C484 1.387 . S
C483 C487 1.391 . S
C484 C483 1.387 . S
C484 C485 1.369 . S
C484 H493 0.929 . S
C485 N482 1.346 . S
C485 C484 1.369 . S
C485 H488 0.928 . S
C486 N482 1.345 . S
C486 C487 1.371 . S
C486 H489 0.931 . S
C487 C483 1.391 . S
C487 C486 1.371 . S
C487 H494 0.930 . S
H488 C485 0.928 . S
H489 C486 0.931 . S
H490 C466 0.930 . S
H491 C463 0.930 . S
H492 C472 0.930 . S
H493 C484 0.929 . S
H494 C487 0.930 . S
C495 C496 1.351 . S
C495 N498 1.368 1_565 S
C495 H500 0.931 . S
C496 C495 1.351 . S
C496 N497 1.373 . S
C496 H524 0.930 . S
N497 C496 1.373 . S
N497 C499 1.340 . S
N498 C495 1.368 1_545 S
N498 C499 1.321 1_545 S
N498 Co501 2.135 . S
C499 N497 1.340 . S
C499 N498 1.321 1_565 S
C499 H523 0.930 1_565 S
H500 C495 0.931 . S
Co501 N498 2.135 . S
Co501 N504 2.121 . S
Co501 O509 2.055 . S
Co501 O512 2.039 . S
Co501 N515 2.140 . S
C502 O503 1.227 . S
C502 O512 1.265 . S
O503 C502 1.227 . S
N504 Co501 2.121 . S
N504 C506 1.375 . S
N504 C507 1.313 . S
C505 C506 1.338 . S
C505 N508 1.377 . S
C505 H525 0.930 . S
C506 N504 1.375 . S
C506 C505 1.338 . S
C506 H510 0.931 . S
C507 N504 1.313 . S
C507 N508 1.344 . S
C507 H511 0.930 . S
N508 C505 1.377 . S
N508 C507 1.344 . S
O509 Co501 2.055 . S
O509 C513 1.253 . S
H510 C506 0.931 . S
H511 C507 0.930 . S
O512 Co501 2.039 . S
O512 C502 1.265 . S
C513 O509 1.253 . S
C513 O514 1.227 . S
O514 C513 1.227 . S
N515 Co501 2.140 . S
N515 C518 1.346 . S
N515 C519 1.345 1_655 S
C516 C517 1.387 . S
C516 C520 1.391 . S
C517 C516 1.387 . S
C517 C518 1.369 1_455 S
C517 H526 0.929 . S
C518 N515 1.346 . S
C518 C517 1.369 1_655 S
C518 H521 0.928 . S
C519 N515 1.345 1_455 S
C519 C520 1.371 . S
C519 H522 0.931 . S
C520 C516 1.391 . S
C520 C519 1.371 . S
C520 H527 0.930 . S
H521 C518 0.928 . S
H522 C519 0.931 . S
H523 C499 0.930 1_545 S
H524 C496 0.930 . S
H525 C505 0.930 . S
H526 C517 0.929 . S
H527 C520 0.930 . S
C528 C529 1.351 . S
C528 N531 1.368 . S
C528 H533 0.931 . S
C529 C528 1.351 . S
C529 N530 1.373 . S
C529 H557 0.930 . S
N530 C529 1.373 . S
N530 C532 1.340 . S
N531 C528 1.368 . S
N531 C532 1.321 . S
N531 Co534 2.135 . S
C532 N530 1.340 . S
C532 N531 1.321 . S
C532 H556 0.930 . S
H533 C528 0.931 . S
Co534 N531 2.135 . S
Co534 N537 2.121 . S
Co534 O542 2.055 . S
Co534 O545 2.039 . S
Co534 N548 2.140 . S
C535 O536 1.227 . S
C535 O545 1.265 . S
O536 C535 1.227 . S
N537 Co534 2.121 . S
N537 C539 1.375 . S
N537 C540 1.313 . S
C538 C539 1.338 . S
C538 N541 1.377 . S
C538 H558 0.930 . S
C539 N537 1.375 . S
C539 C538 1.338 . S
C539 H543 0.931 . S
C540 N537 1.313 . S
C540 N541 1.344 . S
C540 H544 0.930 . S
N541 C538 1.377 . S
N541 C540 1.344 . S
O542 Co534 2.055 . S
O542 C546 1.253 . S
H543 C539 0.931 . S
H544 C540 0.930 . S
O545 Co534 2.039 . S
O545 C535 1.265 . S
C546 O542 1.253 . S
C546 O547 1.227 . S
O547 C546 1.227 . S
N548 Co534 2.140 . S
N548 C551 1.346 . S
N548 C552 1.345 . S
C549 C550 1.387 . S
C549 C553 1.391 . S
C550 C549 1.387 . S
C550 C551 1.369 . S
C550 H559 0.929 . S
C551 N548 1.346 . S
C551 C550 1.369 . S
C551 H554 0.928 . S
C552 N548 1.345 . S
C552 C553 1.371 . S
C552 H555 0.931 . S
C553 C549 1.391 . S
C553 C552 1.371 . S
C553 H560 0.930 . S
H554 C551 0.928 . S
H555 C552 0.931 . S
H556 C532 0.930 . S
H557 C529 0.930 . S
H558 C538 0.930 . S
H559 C550 0.929 . S
H560 C553 0.930 . S
C561 C562 1.351 . S
C561 N564 1.368 . S
C561 H566 0.931 . S
C562 C561 1.351 . S
C562 N563 1.373 . S
C562 H590 0.930 . S
N563 C562 1.373 . S
N563 C565 1.340 . S
N564 C561 1.368 . S
N564 C565 1.321 . S
N564 Co567 2.135 . S
C565 N563 1.340 . S
C565 N564 1.321 . S
C565 H589 0.930 . S
H566 C561 0.931 . S
Co567 N564 2.135 . S
Co567 N570 2.121 . S
Co567 O575 2.055 . S
Co567 O578 2.039 . S
Co567 N581 2.140 . S
C568 O569 1.227 . S
C568 O578 1.265 . S
O569 C568 1.227 . S
N570 Co567 2.121 . S
N570 C572 1.375 . S
N570 C573 1.313 . S
C571 C572 1.338 . S
C571 N574 1.377 . S
C571 H591 0.930 . S
C572 N570 1.375 . S
C572 C571 1.338 . S
C572 H576 0.931 . S
C573 N570 1.313 . S
C573 N574 1.344 . S
C573 H577 0.930 . S
N574 C571 1.377 . S
N574 C573 1.344 . S
O575 Co567 2.055 . S
O575 C579 1.253 . S
H576 C572 0.931 . S
H577 C573 0.930 . S
O578 Co567 2.039 . S
O578 C568 1.265 . S
C579 O575 1.253 . S
C579 O580 1.227 . S
O580 C579 1.227 . S
N581 Co567 2.140 . S
N581 C584 1.346 . S
N581 C585 1.345 . S
C582 C583 1.387 . S
C582 C586 1.391 . S
C583 C582 1.387 . S
C583 C584 1.369 . S
C583 H592 0.929 . S
C584 N581 1.346 . S
C584 C583 1.369 . S
C584 H587 0.928 . S
C585 N581 1.345 . S
C585 C586 1.371 . S
C585 H588 0.931 . S
C586 C582 1.391 . S
C586 C585 1.371 . S
C586 H593 0.930 . S
H587 C584 0.928 . S
H588 C585 0.931 . S
H589 C565 0.930 . S
H590 C562 0.930 . S
H591 C571 0.930 . S
H592 C583 0.929 . S
H593 C586 0.930 . S
C594 C595 1.351 . S
C594 N597 1.368 . S
C594 H599 0.931 . S
C595 C594 1.351 . S
C595 N596 1.373 . S
C595 H623 0.930 . S
N596 C595 1.373 . S
N596 C598 1.340 . S
N597 C594 1.368 . S
N597 C598 1.321 . S
N597 Co600 2.135 . S
C598 N596 1.340 . S
C598 N597 1.321 . S
C598 H622 0.930 . S
H599 C594 0.931 . S
Co600 N597 2.135 . S
Co600 N603 2.121 . S
Co600 O608 2.055 . S
Co600 O611 2.039 . S
Co600 N614 2.140 . S
C601 O602 1.227 . S
C601 O611 1.265 . S
O602 C601 1.227 . S
N603 Co600 2.121 . S
N603 C605 1.375 . S
N603 C606 1.313 . S
C604 C605 1.338 . S
C604 N607 1.377 . S
C604 H624 0.930 . S
C605 N603 1.375 . S
C605 C604 1.338 . S
C605 H609 0.931 . S
C606 N603 1.313 . S
C606 N607 1.344 . S
C606 H610 0.930 . S
N607 C604 1.377 . S
N607 C606 1.344 . S
O608 Co600 2.055 . S
O608 C612 1.253 . S
H609 C605 0.931 . S
H610 C606 0.930 . S
O611 Co600 2.039 . S
O611 C601 1.265 . S
C612 O608 1.253 . S
C612 O613 1.227 . S
O613 C612 1.227 . S
N614 Co600 2.140 . S
N614 C617 1.346 . S
N614 C618 1.345 . S
C615 C616 1.387 . S
C615 C619 1.391 . S
C616 C615 1.387 . S
C616 C617 1.369 . S
C616 H625 0.929 . S
C617 N614 1.346 . S
C617 C616 1.369 . S
C617 H620 0.928 . S
C618 N614 1.345 . S
C618 C619 1.371 . S
C618 H621 0.931 . S
C619 C615 1.391 . S
C619 C618 1.371 . S
C619 H626 0.930 . S
H620 C617 0.928 . S
H621 C618 0.931 . S
H622 C598 0.930 . S
H623 C595 0.930 . S
H624 C604 0.930 . S
H625 C616 0.929 . S
H626 C619 0.930 . S
C627 C628 1.351 . S
C627 N630 1.368 . S
C627 H632 0.931 . S
C628 C627 1.351 . S
C628 N629 1.373 . S
C628 H656 0.930 . S
N629 C628 1.373 . S
N629 C631 1.340 . S
N630 C627 1.368 . S
N630 C631 1.321 . S
N630 Co633 2.135 . S
C631 N629 1.340 . S
C631 N630 1.321 . S
C631 H655 0.930 . S
H632 C627 0.931 . S
Co633 N630 2.135 . S
Co633 N636 2.121 . S
Co633 O641 2.055 . S
Co633 O644 2.039 . S
Co633 N647 2.140 . S
C634 O635 1.227 . S
C634 O644 1.265 . S
O635 C634 1.227 . S
N636 Co633 2.121 . S
N636 C638 1.375 . S
N636 C639 1.313 . S
C637 C638 1.338 . S
C637 N640 1.377 . S
C637 H657 0.930 . S
C638 N636 1.375 . S
C638 C637 1.338 . S
C638 H642 0.931 . S
C639 N636 1.313 . S
C639 N640 1.344 . S
C639 H643 0.930 . S
N640 C637 1.377 . S
N640 C639 1.344 . S
O641 Co633 2.055 . S
O641 C645 1.253 . S
H642 C638 0.931 . S
H643 C639 0.930 . S
O644 Co633 2.039 . S
O644 C634 1.265 . S
C645 O641 1.253 . S
C645 O646 1.227 . S
O646 C645 1.227 . S
N647 Co633 2.140 . S
N647 C650 1.346 . S
N647 C651 1.345 1_655 S
C648 C649 1.387 . S
C648 C652 1.391 . S
C649 C648 1.387 . S
C649 C650 1.369 1_455 S
C649 H658 0.929 . S
C650 N647 1.346 . S
C650 C649 1.369 1_655 S
C650 H653 0.928 . S
C651 N647 1.345 1_455 S
C651 C652 1.371 . S
C651 H654 0.931 . S
C652 C648 1.391 . S
C652 C651 1.371 . S
C652 H659 0.930 . S
H653 C650 0.928 . S
H654 C651 0.931 . S
H655 C631 0.930 . S
H656 C628 0.930 . S
H657 C637 0.930 . S
H658 C649 0.929 . S
H659 C652 0.930 . S
C660 C661 1.351 . S
C660 N663 1.368 . S
C660 H665 0.931 . S
C661 C660 1.351 . S
C661 N662 1.373 . S
C661 H689 0.930 . S
N662 C661 1.373 . S
N662 C664 1.340 . S
N663 C660 1.368 . S
N663 C664 1.321 . S
N663 Co666 2.135 . S
C664 N662 1.340 . S
C664 N663 1.321 . S
C664 H688 0.930 . S
H665 C660 0.931 . S
Co666 N663 2.135 . S
Co666 N669 2.121 . S
Co666 O674 2.055 . S
Co666 O677 2.039 . S
Co666 N680 2.140 . S
C667 O668 1.227 . S
C667 O677 1.265 . S
O668 C667 1.227 . S
N669 Co666 2.121 . S
N669 C671 1.375 . S
N669 C672 1.313 . S
C670 C671 1.338 . S
C670 N673 1.377 . S
C670 H690 0.930 . S
C671 N669 1.375 . S
C671 C670 1.338 . S
C671 H675 0.931 . S
C672 N669 1.313 . S
C672 N673 1.344 . S
C672 H676 0.930 . S
N673 C670 1.377 . S
N673 C672 1.344 . S
O674 Co666 2.055 . S
O674 C678 1.253 . S
H675 C671 0.931 . S
H676 C672 0.930 . S
O677 Co666 2.039 . S
O677 C667 1.265 . S
C678 O674 1.253 . S
C678 O679 1.227 . S
O679 C678 1.227 . S
N680 Co666 2.140 . S
N680 C683 1.346 . S
N680 C684 1.345 . S
C681 C682 1.387 . S
C681 C685 1.391 . S
C682 C681 1.387 . S
C682 C683 1.369 . S
C682 H691 0.929 . S
C683 N680 1.346 . S
C683 C682 1.369 . S
C683 H686 0.928 . S
C684 N680 1.345 . S
C684 C685 1.371 . S
C684 H687 0.931 . S
C685 C681 1.391 . S
C685 C684 1.371 . S
C685 H692 0.930 . S
H686 C683 0.928 . S
H687 C684 0.931 . S
H688 C664 0.930 . S
H689 C661 0.930 . S
H690 C670 0.930 . S
H691 C682 0.929 . S
H692 C685 0.930 . S
C693 C694 1.351 . S
C693 N696 1.368 . S
C693 H698 0.931 . S
C694 C693 1.351 . S
C694 N695 1.373 . S
C694 H722 0.930 . S
N695 C694 1.373 . S
N695 C697 1.340 . S
N696 C693 1.368 . S
N696 C697 1.321 . S
N696 Co699 2.135 . S
C697 N695 1.340 . S
C697 N696 1.321 . S
C697 H721 0.930 . S
H698 C693 0.931 . S
Co699 N696 2.135 . S
Co699 N702 2.121 . S
Co699 O707 2.055 . S
Co699 O710 2.039 . S
Co699 N713 2.140 . S
C700 O701 1.227 . S
C700 O710 1.265 . S
O701 C700 1.227 . S
N702 Co699 2.121 . S
N702 C704 1.375 . S
N702 C705 1.313 . S
C703 C704 1.338 . S
C703 N706 1.377 . S
C703 H723 0.930 . S
C704 N702 1.375 . S
C704 C703 1.338 . S
C704 H708 0.931 . S
C705 N702 1.313 . S
C705 N706 1.344 . S
C705 H709 0.930 . S
N706 C703 1.377 . S
N706 C705 1.344 . S
O707 Co699 2.055 . S
O707 C711 1.253 . S
H708 C704 0.931 . S
H709 C705 0.930 . S
O710 Co699 2.039 . S
O710 C700 1.265 . S
C711 O707 1.253 . S
C711 O712 1.227 . S
O712 C711 1.227 . S
N713 Co699 2.140 . S
N713 C716 1.346 . S
N713 C717 1.345 1_655 S
C714 C715 1.387 . S
C714 C718 1.391 . S
C715 C714 1.387 . S
C715 C716 1.369 1_455 S
C715 H724 0.929 . S
C716 N713 1.346 . S
C716 C715 1.369 1_655 S
C716 H719 0.928 . S
C717 N713 1.345 1_455 S
C717 C718 1.371 . S
C717 H720 0.931 . S
C718 C714 1.391 . S
C718 C717 1.371 . S
C718 H725 0.930 . S
H719 C716 0.928 . S
H720 C717 0.931 . S
H721 C697 0.930 . S
H722 C694 0.930 . S
H723 C703 0.930 . S
H724 C715 0.929 . S
H725 C718 0.930 . S
C726 C727 1.351 . S
C726 N729 1.368 . S
C726 H731 0.931 . S
C727 C726 1.351 . S
C727 N728 1.373 . S
C727 H755 0.930 . S
N728 C727 1.373 . S
N728 C730 1.340 . S
N729 C726 1.368 . S
N729 C730 1.321 . S
N729 Co732 2.135 . S
C730 N728 1.340 . S
C730 N729 1.321 . S
C730 H754 0.930 . S
H731 C726 0.931 . S
Co732 N729 2.135 . S
Co732 N735 2.121 . S
Co732 O740 2.055 . S
Co732 O743 2.039 . S
Co732 N746 2.140 . S
C733 O734 1.227 . S
C733 O743 1.265 . S
O734 C733 1.227 . S
N735 Co732 2.121 . S
N735 C737 1.375 . S
N735 C738 1.313 . S
C736 C737 1.338 . S
C736 N739 1.377 . S
C736 H756 0.930 . S
C737 N735 1.375 . S
C737 C736 1.338 . S
C737 H741 0.931 . S
C738 N735 1.313 . S
C738 N739 1.344 . S
C738 H742 0.930 . S
N739 C736 1.377 . S
N739 C738 1.344 . S
O740 Co732 2.055 . S
O740 C744 1.253 . S
H741 C737 0.931 . S
H742 C738 0.930 . S
O743 Co732 2.039 . S
O743 C733 1.265 . S
C744 O740 1.253 . S
C744 O745 1.227 . S
O745 C744 1.227 . S
N746 Co732 2.140 . S
N746 C749 1.346 . S
N746 C750 1.345 . S
C747 C748 1.387 . S
C747 C751 1.391 . S
C748 C747 1.387 . S
C748 C749 1.369 . S
C748 H757 0.929 . S
C749 N746 1.346 . S
C749 C748 1.369 . S
C749 H752 0.928 . S
C750 N746 1.345 . S
C750 C751 1.371 . S
C750 H753 0.931 . S
C751 C747 1.391 . S
C751 C750 1.371 . S
C751 H758 0.930 . S
H752 C749 0.928 . S
H753 C750 0.931 . S
H754 C730 0.930 . S
H755 C727 0.930 . S
H756 C736 0.930 . S
H757 C748 0.929 . S
H758 C751 0.930 . S
C759 C760 1.351 . S
C759 N762 1.368 . S
C759 H764 0.931 . S
C760 C759 1.351 . S
C760 N761 1.373 . S
C760 H788 0.930 . S
N761 C760 1.373 . S
N761 C763 1.340 . S
N762 C759 1.368 . S
N762 C763 1.321 . S
N762 Co765 2.135 . S
C763 N761 1.340 . S
C763 N762 1.321 . S
C763 H787 0.930 . S
H764 C759 0.931 . S
Co765 N762 2.135 . S
Co765 N768 2.121 . S
Co765 O773 2.055 . S
Co765 O776 2.039 . S
Co765 N779 2.140 . S
C766 O767 1.227 . S
C766 O776 1.265 . S
O767 C766 1.227 . S
N768 Co765 2.121 . S
N768 C770 1.375 . S
N768 C771 1.313 . S
C769 C770 1.338 . S
C769 N772 1.377 . S
C769 H789 0.930 . S
C770 N768 1.375 . S
C770 C769 1.338 . S
C770 H774 0.931 . S
C771 N768 1.313 . S
C771 N772 1.344 . S
C771 H775 0.930 . S
N772 C769 1.377 . S
N772 C771 1.344 . S
O773 Co765 2.055 . S
O773 C777 1.253 . S
H774 C770 0.931 . S
H775 C771 0.930 . S
O776 Co765 2.039 . S
O776 C766 1.265 . S
C777 O773 1.253 . S
C777 O778 1.227 . S
O778 C777 1.227 . S
N779 Co765 2.140 . S
N779 C782 1.346 . S
N779 C783 1.345 . S
C780 C781 1.387 . S
C780 C784 1.391 . S
C781 C780 1.387 . S
C781 C782 1.369 . S
C781 H790 0.929 . S
C782 N779 1.346 . S
C782 C781 1.369 . S
C782 H785 0.928 . S
C783 N779 1.345 . S
C783 C784 1.371 . S
C783 H786 0.931 . S
C784 C780 1.391 . S
C784 C783 1.371 . S
C784 H791 0.930 . S
H785 C782 0.928 . S
H786 C783 0.931 . S
H787 C763 0.930 . S
H788 C760 0.930 . S
H789 C769 0.930 . S
H790 C781 0.929 . S
H791 C784 0.930 . S
C792 C793 1.351 . S
C792 N795 1.368 . S
C792 H797 0.931 . S
C793 C792 1.351 . S
C793 N794 1.373 . S
C793 H821 0.930 . S
N794 C793 1.373 . S
N794 C796 1.340 . S
N795 C792 1.368 . S
N795 C796 1.321 . S
N795 Co798 2.135 . S
C796 N794 1.340 . S
C796 N795 1.321 . S
C796 H820 0.930 . S
H797 C792 0.931 . S
Co798 N795 2.135 . S
Co798 N801 2.121 . S
Co798 O806 2.055 . S
Co798 O809 2.039 . S
Co798 N812 2.140 . S
C799 O800 1.227 . S
C799 O809 1.265 . S
O800 C799 1.227 . S
N801 Co798 2.121 . S
N801 C803 1.375 . S
N801 C804 1.313 . S
C802 C803 1.338 . S
C802 N805 1.377 . S
C802 H822 0.930 . S
C803 N801 1.375 . S
C803 C802 1.338 . S
C803 H807 0.931 . S
C804 N801 1.313 . S
C804 N805 1.344 . S
C804 H808 0.930 . S
N805 C802 1.377 . S
N805 C804 1.344 . S
O806 Co798 2.055 . S
O806 C810 1.253 . S
H807 C803 0.931 . S
H808 C804 0.930 . S
O809 Co798 2.039 . S
O809 C799 1.265 . S
C810 O806 1.253 . S
C810 O811 1.227 . S
O811 C810 1.227 . S
N812 Co798 2.140 . S
N812 C815 1.346 . S
N812 C816 1.345 . S
C813 C814 1.387 . S
C813 C817 1.391 . S
C814 C813 1.387 . S
C814 C815 1.369 . S
C814 H823 0.929 . S
C815 N812 1.346 . S
C815 C814 1.369 . S
C815 H818 0.928 . S
C816 N812 1.345 . S
C816 C817 1.371 . S
C816 H819 0.931 . S
C817 C813 1.391 . S
C817 C816 1.371 . S
C817 H824 0.930 . S
H818 C815 0.928 . S
H819 C816 0.931 . S
H820 C796 0.930 . S
H821 C793 0.930 . S
H822 C802 0.930 . S
H823 C814 0.929 . S
H824 C817 0.930 . S
C825 C826 1.351 . S
C825 N828 1.368 . S
C825 H830 0.931 . S
C826 C825 1.351 . S
C826 N827 1.373 . S
C826 H854 0.930 . S
N827 C826 1.373 . S
N827 C829 1.340 . S
N828 C825 1.368 . S
N828 C829 1.321 . S
N828 Co831 2.135 . S
C829 N827 1.340 . S
C829 N828 1.321 . S
C829 H853 0.930 . S
H830 C825 0.931 . S
Co831 N828 2.135 . S
Co831 N834 2.121 . S
Co831 O839 2.055 . S
Co831 O842 2.039 . S
Co831 N845 2.140 . S
C832 O833 1.227 . S
C832 O842 1.265 . S
O833 C832 1.227 . S
N834 Co831 2.121 . S
N834 C836 1.375 . S
N834 C837 1.313 . S
C835 C836 1.338 . S
C835 N838 1.377 . S
C835 H855 0.930 . S
C836 N834 1.375 . S
C836 C835 1.338 . S
C836 H840 0.931 . S
C837 N834 1.313 . S
C837 N838 1.344 . S
C837 H841 0.930 . S
N838 C835 1.377 . S
N838 C837 1.344 . S
O839 Co831 2.055 . S
O839 C843 1.253 . S
H840 C836 0.931 . S
H841 C837 0.930 . S
O842 Co831 2.039 . S
O842 C832 1.265 . S
C843 O839 1.253 . S
C843 O844 1.227 . S
O844 C843 1.227 . S
N845 Co831 2.140 . S
N845 C848 1.346 . S
N845 C849 1.345 . S
C846 C847 1.387 . S
C846 C850 1.391 . S
C847 C846 1.387 . S
C847 C848 1.369 . S
C847 H856 0.929 . S
C848 N845 1.346 . S
C848 C847 1.369 . S
C848 H851 0.928 . S
C849 N845 1.345 . S
C849 C850 1.371 . S
C849 H852 0.931 . S
C850 C846 1.391 . S
C850 C849 1.371 . S
C850 H857 0.930 . S
H851 C848 0.928 . S
H852 C849 0.931 . S
H853 C829 0.930 . S
H854 C826 0.930 . S
H855 C835 0.930 . S
H856 C847 0.929 . S
H857 C850 0.930 . S
C858 C859 1.351 . S
C858 N861 1.368 . S
C858 H863 0.931 . S
C859 C858 1.351 . S
C859 N860 1.373 . S
C859 H887 0.930 . S
N860 C859 1.373 . S
N860 C862 1.340 . S
N861 C858 1.368 . S
N861 C862 1.321 . S
N861 Co864 2.135 . S
C862 N860 1.340 . S
C862 N861 1.321 . S
C862 H886 0.930 . S
H863 C858 0.931 . S
Co864 N861 2.135 . S
Co864 N867 2.121 . S
Co864 O872 2.055 . S
Co864 O875 2.039 . S
Co864 N878 2.140 . S
C865 O866 1.227 . S
C865 O875 1.265 . S
O866 C865 1.227 . S
N867 Co864 2.121 . S
N867 C869 1.375 . S
N867 C870 1.313 . S
C868 C869 1.338 . S
C868 N871 1.377 . S
C868 H888 0.930 . S
C869 N867 1.375 . S
C869 C868 1.338 . S
C869 H873 0.931 . S
C870 N867 1.313 . S
C870 N871 1.344 . S
C870 H874 0.930 . S
N871 C868 1.377 . S
N871 C870 1.344 . S
O872 Co864 2.055 . S
O872 C876 1.253 . S
H873 C869 0.931 . S
H874 C870 0.930 . S
O875 Co864 2.039 . S
O875 C865 1.265 . S
C876 O872 1.253 . S
C876 O877 1.227 . S
O877 C876 1.227 . S
N878 Co864 2.140 . S
N878 C881 1.346 . S
N878 C882 1.345 . S
C879 C880 1.387 . S
C879 C883 1.391 . S
C880 C879 1.387 . S
C880 C881 1.369 . S
C880 H889 0.929 . S
C881 N878 1.346 . S
C881 C880 1.369 . S
C881 H884 0.928 . S
C882 N878 1.345 . S
C882 C883 1.371 . S
C882 H885 0.931 . S
C883 C879 1.391 . S
C883 C882 1.371 . S
C883 H890 0.930 . S
H884 C881 0.928 . S
H885 C882 0.931 . S
H886 C862 0.930 . S
H887 C859 0.930 . S
H888 C868 0.930 . S
H889 C880 0.929 . S
H890 C883 0.930 . S
C891 C892 1.351 . S
C891 N894 1.368 . S
C891 H896 0.931 . S
C892 C891 1.351 . S
C892 N893 1.373 . S
C892 H920 0.930 . S
N893 C892 1.373 . S
N893 C895 1.340 . S
N894 C891 1.368 . S
N894 C895 1.321 . S
N894 Co897 2.135 . S
C895 N893 1.340 . S
C895 N894 1.321 . S
C895 H919 0.930 . S
H896 C891 0.931 . S
Co897 N894 2.135 . S
Co897 N900 2.121 . S
Co897 O905 2.055 . S
Co897 O908 2.039 . S
Co897 N911 2.140 . S
C898 O899 1.227 . S
C898 O908 1.265 . S
O899 C898 1.227 . S
N900 Co897 2.121 . S
N900 C902 1.375 . S
N900 C903 1.313 . S
C901 C902 1.338 . S
C901 N904 1.377 . S
C901 H921 0.930 . S
C902 N900 1.375 . S
C902 C901 1.338 . S
C902 H906 0.931 . S
C903 N900 1.313 . S
C903 N904 1.344 . S
C903 H907 0.930 . S
N904 C901 1.377 . S
N904 C903 1.344 . S
O905 Co897 2.055 . S
O905 C909 1.253 . S
H906 C902 0.931 . S
H907 C903 0.930 . S
O908 Co897 2.039 . S
O908 C898 1.265 . S
C909 O905 1.253 . S
C909 O910 1.227 . S
O910 C909 1.227 . S
N911 Co897 2.140 . S
N911 C914 1.346 . S
N911 C915 1.345 1_455 S
C912 C913 1.387 . S
C912 C916 1.391 . S
C913 C912 1.387 . S
C913 C914 1.369 1_655 S
C913 H922 0.929 . S
C914 N911 1.346 . S
C914 C913 1.369 1_455 S
C914 H917 0.928 . S
C915 N911 1.345 1_655 S
C915 C916 1.371 . S
C915 H918 0.931 . S
C916 C912 1.391 . S
C916 C915 1.371 . S
C916 H923 0.930 . S
H917 C914 0.928 . S
H918 C915 0.931 . S
H919 C895 0.930 . S
H920 C892 0.930 . S
H921 C901 0.930 . S
H922 C913 0.929 . S
H923 C916 0.930 . S
C924 C925 1.351 . S
C924 N927 1.368 . S
C924 H929 0.931 . S
C925 C924 1.351 . S
C925 N926 1.373 . S
C925 H953 0.930 . S
N926 C925 1.373 . S
N926 C928 1.340 . S
N927 C924 1.368 . S
N927 C928 1.321 . S
N927 Co930 2.135 . S
C928 N926 1.340 . S
C928 N927 1.321 . S
C928 H952 0.930 . S
H929 C924 0.931 . S
Co930 N927 2.135 . S
Co930 N933 2.121 . S
Co930 O938 2.055 . S
Co930 O941 2.039 . S
Co930 N944 2.140 . S
C931 O932 1.227 . S
C931 O941 1.265 . S
O932 C931 1.227 . S
N933 Co930 2.121 . S
N933 C935 1.375 . S
N933 C936 1.313 . S
C934 C935 1.338 . S
C934 N937 1.377 . S
C934 H954 0.930 . S
C935 N933 1.375 . S
C935 C934 1.338 . S
C935 H939 0.931 . S
C936 N933 1.313 . S
C936 N937 1.344 . S
C936 H940 0.930 . S
N937 C934 1.377 . S
N937 C936 1.344 . S
O938 Co930 2.055 . S
O938 C942 1.253 . S
H939 C935 0.931 . S
H940 C936 0.930 . S
O941 Co930 2.039 . S
O941 C931 1.265 . S
C942 O938 1.253 . S
C942 O943 1.227 . S
O943 C942 1.227 . S
N944 Co930 2.140 . S
N944 C947 1.346 . S
N944 C948 1.345 . S
C945 C946 1.387 . S
C945 C949 1.391 . S
C946 C945 1.387 . S
C946 C947 1.369 . S
C946 H955 0.929 . S
C947 N944 1.346 . S
C947 C946 1.369 . S
C947 H950 0.928 . S
C948 N944 1.345 . S
C948 C949 1.371 . S
C948 H951 0.931 . S
C949 C945 1.391 . S
C949 C948 1.371 . S
C949 H956 0.930 . S
H950 C947 0.928 . S
H951 C948 0.931 . S
H952 C928 0.930 . S
H953 C925 0.930 . S
H954 C934 0.930 . S
H955 C946 0.929 . S
H956 C949 0.930 . S
C957 C958 1.351 . S
C957 N960 1.368 . S
C957 H962 0.931 . S
C958 C957 1.351 . S
C958 N959 1.373 . S
C958 H986 0.930 . S
N959 C958 1.373 . S
N959 C961 1.340 . S
N960 C957 1.368 . S
N960 C961 1.321 . S
N960 Co963 2.135 . S
C961 N959 1.340 . S
C961 N960 1.321 . S
C961 H985 0.930 . S
H962 C957 0.931 . S
Co963 N960 2.135 . S
Co963 N966 2.121 . S
Co963 O971 2.055 . S
Co963 O974 2.039 . S
Co963 N977 2.140 . S
C964 O965 1.227 . S
C964 O974 1.265 . S
O965 C964 1.227 . S
N966 Co963 2.121 . S
N966 C968 1.375 . S
N966 C969 1.313 . S
C967 C968 1.338 . S
C967 N970 1.377 . S
C967 H987 0.930 . S
C968 N966 1.375 . S
C968 C967 1.338 . S
C968 H972 0.931 . S
C969 N966 1.313 . S
C969 N970 1.344 . S
C969 H973 0.930 . S
N970 C967 1.377 . S
N970 C969 1.344 . S
O971 Co963 2.055 . S
O971 C975 1.253 . S
H972 C968 0.931 . S
H973 C969 0.930 . S
O974 Co963 2.039 . S
O974 C964 1.265 . S
C975 O971 1.253 . S
C975 O976 1.227 . S
O976 C975 1.227 . S
N977 Co963 2.140 . S
N977 C980 1.346 . S
N977 C981 1.345 1_455 S
C978 C979 1.387 . S
C978 C982 1.391 . S
C979 C978 1.387 . S
C979 C980 1.369 1_655 S
C979 H988 0.929 . S
C980 N977 1.346 . S
C980 C979 1.369 1_455 S
C980 H983 0.928 . S
C981 N977 1.345 1_655 S
C981 C982 1.371 . S
C981 H984 0.931 . S
C982 C978 1.391 . S
C982 C981 1.371 . S
C982 H989 0.930 . S
H983 C980 0.928 . S
H984 C981 0.931 . S
H985 C961 0.930 . S
H986 C958 0.930 . S
H987 C967 0.930 . S
H988 C979 0.929 . S
H989 C982 0.930 . S
C990 C991 1.351 . S
C990 N993 1.368 . S
C990 H995 0.931 . S
C991 C990 1.351 . S
C991 N992 1.373 . S
C991 H1019 0.930 . S
N992 C991 1.373 . S
N992 C994 1.340 . S
N993 C990 1.368 . S
N993 C994 1.321 . S
N993 Co996 2.135 . S
C994 N992 1.340 . S
C994 N993 1.321 . S
C994 H1018 0.930 . S
H995 C990 0.931 . S
Co996 N993 2.135 . S
Co996 N999 2.121 . S
Co996 O1004 2.055 . S
Co996 O1007 2.039 . S
Co996 N1010 2.140 . S
C997 O998 1.227 . S
C997 O1007 1.265 . S
O998 C997 1.227 . S
N999 Co996 2.121 . S
N999 C1001 1.375 . S
N999 C1002 1.313 . S
C1000 C1001 1.338 . S
C1000 N1003 1.377 . S
C1000 H1020 0.930 . S
C1001 N999 1.375 . S
C1001 C1000 1.338 . S
C1001 H1005 0.931 . S
C1002 N999 1.313 . S
C1002 N1003 1.344 . S
C1002 H1006 0.930 . S
N1003 C1000 1.377 . S
N1003 C1002 1.344 . S
O1004 Co996 2.055 . S
O1004 C1008 1.253 . S
H1005 C1001 0.931 . S
H1006 C1002 0.930 . S
O1007 Co996 2.039 . S
O1007 C997 1.265 . S
C1008 O1004 1.253 . S
C1008 O1009 1.227 . S
O1009 C1008 1.227 . S
N1010 Co996 2.140 . S
N1010 C1013 1.346 . S
N1010 C1014 1.345 . S
C1011 C1012 1.387 . S
C1011 C1015 1.391 . S
C1012 C1011 1.387 . S
C1012 C1013 1.369 . S
C1012 H1021 0.929 . S
C1013 N1010 1.346 . S
C1013 C1012 1.369 . S
C1013 H1016 0.928 . S
C1014 N1010 1.345 . S
C1014 C1015 1.371 . S
C1014 H1017 0.931 . S
C1015 C1011 1.391 . S
C1015 C1014 1.371 . S
C1015 H1022 0.930 . S
H1016 C1013 0.928 . S
H1017 C1014 0.931 . S
H1018 C994 0.930 . S
H1019 C991 0.930 . S
H1020 C1000 0.930 . S
H1021 C1012 0.929 . S
H1022 C1015 0.930 . S
C1023 C1024 1.351 . S
C1023 N1026 1.368 . S
C1023 H1028 0.931 . S
C1024 C1023 1.351 . S
C1024 N1025 1.373 . S
C1024 H1052 0.930 . S
N1025 C1024 1.373 . S
N1025 C1027 1.340 . S
N1026 C1023 1.368 . S
N1026 C1027 1.321 . S
N1026 Co1029 2.135 . S
C1027 N1025 1.340 . S
C1027 N1026 1.321 . S
C1027 H1051 0.930 . S
H1028 C1023 0.931 . S
Co1029 N1026 2.135 . S
Co1029 N1032 2.121 . S
Co1029 O1037 2.055 . S
Co1029 O1040 2.039 . S
Co1029 N1043 2.140 . S
C1030 O1031 1.227 . S
C1030 O1040 1.265 . S
O1031 C1030 1.227 . S
N1032 Co1029 2.121 . S
N1032 C1034 1.375 . S
N1032 C1035 1.313 . S
C1033 C1034 1.338 . S
C1033 N1036 1.377 . S
C1033 H1053 0.930 . S
C1034 N1032 1.375 . S
C1034 C1033 1.338 . S
C1034 H1038 0.931 . S
C1035 N1032 1.313 . S
C1035 N1036 1.344 . S
C1035 H1039 0.930 . S
N1036 C1033 1.377 . S
N1036 C1035 1.344 . S
O1037 Co1029 2.055 . S
O1037 C1041 1.253 . S
H1038 C1034 0.931 . S
H1039 C1035 0.930 . S
O1040 Co1029 2.039 . S
O1040 C1030 1.265 . S
C1041 O1037 1.253 . S
C1041 O1042 1.227 . S
O1042 C1041 1.227 . S
N1043 Co1029 2.140 . S
N1043 C1046 1.346 . S
N1043 C1047 1.345 . S
C1044 C1045 1.387 . S
C1044 C1048 1.391 . S
C1045 C1044 1.387 . S
C1045 C1046 1.369 . S
C1045 H1054 0.929 . S
C1046 N1043 1.346 . S
C1046 C1045 1.369 . S
C1046 H1049 0.928 . S
C1047 N1043 1.345 . S
C1047 C1048 1.371 . S
C1047 H1050 0.931 . S
C1048 C1044 1.391 . S
C1048 C1047 1.371 . S
C1048 H1055 0.930 . S
H1049 C1046 0.928 . S
H1050 C1047 0.931 . S
H1051 C1027 0.930 . S
H1052 C1024 0.930 . S
H1053 C1033 0.930 . S
H1054 C1045 0.929 . S
H1055 C1048 0.930 . S
C1056 C1057 1.387 . S
C1056 H1060 0.950 . S
C1056 C1065 1.390 . S
C1057 C1056 1.387 . S
C1057 C1059 1.387 . S
H1058 C1065 0.950 . S
C1059 C1057 1.387 . S
C1059 C1061 1.390 . S
C1059 H1063 0.950 . S
H1060 C1056 0.950 . S
C1061 C1059 1.390 . S
C1061 C1062 1.387 . S
C1061 H1064 0.950 . S
C1062 C1061 1.387 . S
C1062 C1065 1.387 . S
H1063 C1059 0.950 . S
H1064 C1061 0.950 . S
C1065 C1056 1.390 . S
C1065 H1058 0.950 . S
C1065 C1062 1.387 . S
C1066 C1067 1.388 . S
C1066 H1070 0.950 . S
C1066 C1075 1.389 1_455 S
C1067 C1066 1.388 . S
C1067 C1069 1.387 . S
H1068 C1075 0.950 . S
C1069 C1067 1.387 . S
C1069 C1071 1.389 1_455 S
C1069 H1073 0.950 . S
H1070 C1066 0.950 . S
C1071 C1069 1.389 1_655 S
C1071 C1072 1.388 . S
C1071 H1074 0.950 . S
C1072 C1071 1.388 . S
C1072 C1075 1.387 . S
H1073 C1069 0.950 . S
H1074 C1071 0.950 . S
C1075 C1066 1.389 1_655 S
C1075 H1068 0.950 . S
C1075 C1072 1.387 . S
C1076 C1077 1.387 . S
C1076 H1080 0.950 . S
C1076 C1085 1.390 1_455 S
C1077 C1076 1.387 . S
C1077 C1079 1.387 . S
H1078 C1085 0.950 . S
C1079 C1077 1.387 . S
C1079 C1081 1.390 1_455 S
C1079 H1083 0.950 . S
H1080 C1076 0.950 . S
C1081 C1079 1.390 1_655 S
C1081 C1082 1.387 . S
C1081 H1084 0.950 . S
C1082 C1081 1.387 . S
C1082 C1085 1.387 . S
H1083 C1079 0.950 . S
H1084 C1081 0.950 . S
C1085 C1076 1.390 1_655 S
C1085 H1078 0.950 . S
C1085 C1082 1.387 . S
C1086 C1087 1.387 . S
C1086 H1090 0.950 . S
C1086 C1095 1.390 . S
C1087 C1086 1.387 . S
C1087 C1089 1.387 . S
H1088 C1095 0.950 . S
C1089 C1087 1.387 . S
C1089 C1091 1.390 . S
C1089 H1093 0.950 . S
H1090 C1086 0.950 . S
C1091 C1089 1.390 . S
C1091 C1092 1.387 . S
C1091 H1094 0.950 . S
C1092 C1091 1.387 . S
C1092 C1095 1.387 . S
H1093 C1089 0.950 . S
H1094 C1091 0.950 . S
C1095 C1086 1.390 . S
C1095 H1088 0.950 . S
C1095 C1092 1.387 . S
C1096 C1097 1.387 . S
C1096 H1100 0.950 . S
C1096 C1105 1.390 . S
C1097 C1096 1.387 . S
C1097 C1099 1.387 . S
H1098 C1105 0.950 . S
C1099 C1097 1.387 . S
C1099 C1101 1.390 . S
C1099 H1103 0.950 . S
H1100 C1096 0.950 . S
C1101 C1099 1.390 . S
C1101 C1102 1.387 . S
C1101 H1104 0.950 . S
C1102 C1101 1.387 . S
C1102 C1105 1.387 . S
H1103 C1099 0.950 . S
H1104 C1101 0.950 . S
C1105 C1096 1.390 . S
C1105 H1098 0.950 . S
C1105 C1102 1.387 . S
C1106 C1107 1.387 . S
C1106 H1110 0.950 . S
C1106 C1115 1.390 . S
C1107 C1106 1.387 . S
C1107 C1109 1.387 . S
H1108 C1115 0.950 . S
C1109 C1107 1.387 . S
C1109 C1111 1.390 . S
C1109 H1113 0.950 . S
H1110 C1106 0.950 . S
C1111 C1109 1.390 . S
C1111 C1112 1.387 . S
C1111 H1114 0.950 . S
C1112 C1111 1.387 . S
C1112 C1115 1.387 . S
H1113 C1109 0.950 . S
H1114 C1111 0.950 . S
C1115 C1106 1.390 . S
C1115 H1108 0.950 . S
C1115 C1112 1.387 . S
C1116 C1117 1.387 . S
C1116 H1120 0.950 . S
C1116 C1125 1.390 1_455 S
C1117 C1116 1.387 . S
C1117 C1119 1.387 . S
H1118 C1125 0.950 . S
C1119 C1117 1.387 . S
C1119 C1121 1.390 1_455 S
C1119 H1123 0.950 . S
H1120 C1116 0.950 . S
C1121 C1119 1.390 1_655 S
C1121 C1122 1.387 . S
C1121 H1124 0.950 . S
C1122 C1121 1.387 . S
C1122 C1125 1.387 . S
H1123 C1119 0.950 . S
H1124 C1121 0.950 . S
C1125 C1116 1.390 1_655 S
C1125 H1118 0.950 . S
C1125 C1122 1.387 . S
C1126 C1127 1.387 . S
C1126 H1130 0.950 . S
C1126 C1135 1.390 1_455 S
C1127 C1126 1.387 . S
C1127 C1129 1.387 . S
H1128 C1135 0.950 . S
C1129 C1127 1.387 . S
C1129 C1131 1.390 1_455 S
C1129 H1133 0.950 . S
H1130 C1126 0.950 . S
C1131 C1129 1.390 1_655 S
C1131 C1132 1.387 . S
C1131 H1134 0.950 . S
C1132 C1131 1.387 . S
C1132 C1135 1.387 . S
H1133 C1129 0.950 . S
H1134 C1131 0.950 . S
C1135 C1126 1.390 1_655 S
C1135 H1128 0.950 . S
C1135 C1132 1.387 . S
C1136 C1137 1.387 . S
C1136 H1140 0.950 . S
C1136 C1145 1.390 . S
C1137 C1136 1.387 . S
C1137 C1139 1.387 . S
H1138 C1145 0.950 . S
C1139 C1137 1.387 . S
C1139 C1141 1.390 . S
C1139 H1143 0.950 . S
H1140 C1136 0.950 . S
C1141 C1139 1.390 . S
C1141 C1142 1.387 . S
C1141 H1144 0.950 . S
C1142 C1141 1.387 . S
C1142 C1145 1.387 . S
H1143 C1139 0.950 . S
H1144 C1141 0.950 . S
C1145 C1136 1.390 . S
C1145 H1138 0.950 . S
C1145 C1142 1.387 . S
C1146 C1147 1.387 . S
C1146 H1150 0.950 . S
C1146 C1155 1.390 1_455 S
C1147 C1146 1.387 . S
C1147 C1149 1.387 . S
H1148 C1155 0.950 . S
C1149 C1147 1.387 . S
C1149 C1151 1.390 1_455 S
C1149 H1153 0.950 . S
H1150 C1146 0.950 . S
C1151 C1149 1.390 1_655 S
C1151 C1152 1.387 . S
C1151 H1154 0.950 . S
C1152 C1151 1.387 . S
C1152 C1155 1.387 . S
H1153 C1149 0.950 . S
H1154 C1151 0.950 . S
C1155 C1146 1.390 1_655 S
C1155 H1148 0.950 . S
C1155 C1152 1.387 . S
C1156 C1157 1.387 . S
C1156 H1160 0.950 . S
C1156 C1165 1.390 1_655 S
C1157 C1156 1.387 . S
C1157 C1159 1.387 . S
H1158 C1165 0.950 . S
C1159 C1157 1.387 . S
C1159 C1161 1.390 1_655 S
C1159 H1163 0.950 . S
H1160 C1156 0.950 . S
C1161 C1159 1.390 1_455 S
C1161 C1162 1.387 . S
C1161 H1164 0.950 . S
C1162 C1161 1.387 . S
C1162 C1165 1.387 . S
H1163 C1159 0.950 . S
H1164 C1161 0.950 . S
C1165 C1156 1.390 1_455 S
C1165 H1158 0.950 . S
C1165 C1162 1.387 . S
C1166 C1167 1.387 . S
C1166 H1170 0.950 . S
C1166 C1175 1.390 . S
C1167 C1166 1.387 . S
C1167 C1169 1.387 . S
H1168 C1175 0.950 . S
C1169 C1167 1.387 . S
C1169 C1171 1.390 . S
C1169 H1173 0.950 . S
H1170 C1166 0.950 . S
C1171 C1169 1.390 . S
C1171 C1172 1.387 . S
C1171 H1174 0.950 . S
C1172 C1171 1.387 . S
C1172 C1175 1.387 . S
H1173 C1169 0.950 . S
H1174 C1171 0.950 . S
C1175 C1166 1.390 . S
C1175 H1168 0.950 . S
C1175 C1172 1.387 . S
C1176 C1177 1.387 . S
C1176 H1180 0.950 . S
C1176 C1185 1.390 . S
C1177 C1176 1.387 . S
C1177 C1179 1.387 . S
H1178 C1185 0.950 . S
C1179 C1177 1.387 . S
C1179 C1181 1.390 . S
C1179 H1183 0.950 . S
H1180 C1176 0.950 . S
C1181 C1179 1.390 . S
C1181 C1182 1.387 . S
C1181 H1184 0.950 . S
C1182 C1181 1.387 . S
C1182 C1185 1.387 . S
H1183 C1179 0.950 . S
H1184 C1181 0.950 . S
C1185 C1176 1.390 . S
C1185 H1178 0.950 . S
C1185 C1182 1.387 . S
C1186 C1187 1.387 . S
C1186 H1190 0.950 . S
C1186 C1195 1.390 . S
C1187 C1186 1.387 . S
C1187 C1189 1.387 . S
H1188 C1195 0.950 . S
C1189 C1187 1.387 . S
C1189 C1191 1.390 . S
C1189 H1193 0.950 . S
H1190 C1186 0.950 . S
C1191 C1189 1.390 . S
C1191 C1192 1.387 . S
C1191 H1194 0.950 . S
C1192 C1191 1.387 . S
C1192 C1195 1.387 . S
H1193 C1189 0.950 . S
H1194 C1191 0.950 . S
C1195 C1186 1.390 . S
C1195 H1188 0.950 . S
C1195 C1192 1.387 . S
C1196 C1197 1.387 . S
C1196 H1200 0.950 . S
C1196 C1205 1.390 1_455 S
C1197 C1196 1.387 . S
C1197 C1199 1.387 . S
H1198 C1205 0.950 . S
C1199 C1197 1.387 . S
C1199 C1201 1.390 1_455 S
C1199 H1203 0.950 . S
H1200 C1196 0.950 . S
C1201 C1199 1.390 1_655 S
C1201 C1202 1.387 . S
C1201 H1204 0.950 . S
C1202 C1201 1.387 . S
C1202 C1205 1.387 . S
H1203 C1199 0.950 . S
H1204 C1201 0.950 . S
C1205 C1196 1.390 1_655 S
C1205 H1198 0.950 . S
C1205 C1202 1.387 . S
C1206 C1207 1.387 . S
C1206 H1210 0.950 . S
C1206 C1215 1.390 1_455 S
C1207 C1206 1.387 . S
C1207 C1209 1.387 . S
H1208 C1215 0.950 . S
C1209 C1207 1.387 . S
C1209 C1211 1.390 1_455 S
C1209 H1213 0.950 . S
H1210 C1206 0.950 . S
C1211 C1209 1.390 1_655 S
C1211 C1212 1.387 . S
C1211 H1214 0.950 . S
C1212 C1211 1.387 . S
C1212 C1215 1.387 . S
H1213 C1209 0.950 . S
H1214 C1211 0.950 . S
C1215 C1206 1.390 1_655 S
C1215 H1208 0.950 . S
C1215 C1212 1.387 . S
C1216 C1217 1.387 . S
C1216 H1220 0.950 . S
C1216 C1225 1.390 . S
C1217 C1216 1.387 . S
C1217 C1219 1.387 . S
H1218 C1225 0.950 . S
C1219 C1217 1.387 . S
C1219 C1221 1.390 . S
C1219 H1223 0.950 . S
H1220 C1216 0.950 . S
C1221 C1219 1.390 . S
C1221 C1222 1.387 . S
C1221 H1224 0.950 . S
C1222 C1221 1.387 . S
C1222 C1225 1.387 . S
H1223 C1219 0.950 . S
H1224 C1221 0.950 . S
C1225 C1216 1.390 . S
C1225 H1218 0.950 . S
C1225 C1222 1.387 . S
C1226 C1227 1.387 . S
C1226 H1230 0.950 . S
C1226 C1235 1.390 . S
C1227 C1226 1.387 . S
C1227 C1229 1.387 . S
H1228 C1235 0.950 . S
C1229 C1227 1.387 . S
C1229 C1231 1.390 . S
C1229 H1233 0.950 . S
H1230 C1226 0.950 . S
C1231 C1229 1.390 . S
C1231 C1232 1.387 . S
C1231 H1234 0.950 . S
C1232 C1231 1.387 . S
C1232 C1235 1.387 . S
H1233 C1229 0.950 . S
H1234 C1231 0.950 . S
C1235 C1226 1.390 . S
C1235 H1228 0.950 . S
C1235 C1232 1.387 . S
C1236 C1237 1.387 . S
C1236 H1240 0.950 . S
C1236 C1245 1.390 . S
C1237 C1236 1.387 . S
C1237 C1239 1.387 . S
H1238 C1245 0.950 . S
C1239 C1237 1.387 . S
C1239 C1241 1.390 . S
C1239 H1243 0.950 . S
H1240 C1236 0.950 . S
C1241 C1239 1.390 . S
C1241 C1242 1.387 . S
C1241 H1244 0.950 . S
C1242 C1241 1.387 . S
C1242 C1245 1.387 . S
H1243 C1239 0.950 . S
H1244 C1241 0.950 . S
C1245 C1236 1.390 . S
C1245 H1238 0.950 . S
C1245 C1242 1.387 . S
C1246 C1247 1.387 . S
C1246 H1250 0.950 . S
C1246 C1255 1.390 . S
C1247 C1246 1.387 . S
C1247 C1249 1.387 . S
H1248 C1255 0.950 . S
C1249 C1247 1.387 . S
C1249 C1251 1.390 . S
C1249 H1253 0.950 . S
H1250 C1246 0.950 . S
C1251 C1249 1.390 . S
C1251 C1252 1.387 . S
C1251 H1254 0.950 . S
C1252 C1251 1.387 . S
C1252 C1255 1.387 . S
H1253 C1249 0.950 . S
H1254 C1251 0.950 . S
C1255 C1246 1.390 . S
C1255 H1248 0.950 . S
C1255 C1252 1.387 . S
C1256 C1257 1.387 . S
C1256 H1260 0.950 . S
C1256 C1265 1.390 . S
C1257 C1256 1.387 . S
C1257 C1259 1.387 . S
H1258 C1265 0.950 . S
C1259 C1257 1.387 . S
C1259 C1261 1.390 . S
C1259 H1263 0.950 . S
H1260 C1256 0.950 . S
C1261 C1259 1.390 . S
C1261 C1262 1.387 . S
C1261 H1264 0.950 . S
C1262 C1261 1.387 . S
C1262 C1265 1.387 . S
H1263 C1259 0.950 . S
H1264 C1261 0.950 . S
C1265 C1256 1.390 . S
C1265 H1258 0.950 . S
C1265 C1262 1.387 . S
C1266 C1267 1.387 . S
C1266 H1270 0.950 . S
C1266 C1275 1.390 . S
C1267 C1266 1.387 . S
C1267 C1269 1.387 . S
H1268 C1275 0.950 . S
C1269 C1267 1.387 . S
C1269 C1271 1.390 . S
C1269 H1273 0.950 . S
H1270 C1266 0.950 . S
C1271 C1269 1.390 . S
C1271 C1272 1.387 . S
C1271 H1274 0.950 . S
C1272 C1271 1.387 . S
C1272 C1275 1.387 . S
H1273 C1269 0.950 . S
H1274 C1271 0.950 . S
C1275 C1266 1.390 . S
C1275 H1268 0.950 . S
C1275 C1272 1.387 . S
C1276 C1277 1.387 . S
C1276 H1280 0.950 . S
C1276 C1285 1.390 . S
C1277 C1276 1.387 . S
C1277 C1279 1.387 . S
H1278 C1285 0.950 . S
C1279 C1277 1.387 . S
C1279 C1281 1.390 . S
C1279 H1283 0.950 . S
H1280 C1276 0.950 . S
C1281 C1279 1.390 . S
C1281 C1282 1.387 . S
C1281 H1284 0.950 . S
C1282 C1281 1.387 . S
C1282 C1285 1.387 . S
H1283 C1279 0.950 . S
H1284 C1281 0.950 . S
C1285 C1276 1.390 . S
C1285 H1278 0.950 . S
C1285 C1282 1.387 . S
C1286 C1287 1.387 . S
C1286 H1290 0.950 . S
C1286 C1295 1.390 . S
C1287 C1286 1.387 . S
C1287 C1289 1.387 . S
H1288 C1295 0.950 . S
C1289 C1287 1.387 . S
C1289 C1291 1.390 . S
C1289 H1293 0.950 . S
H1290 C1286 0.950 . S
C1291 C1289 1.390 . S
C1291 C1292 1.387 . S
C1291 H1294 0.950 . S
C1292 C1291 1.387 . S
C1292 C1295 1.387 . S
H1293 C1289 0.950 . S
H1294 C1291 0.950 . S
C1295 C1286 1.390 . S
C1295 H1288 0.950 . S
C1295 C1292 1.387 . S
C1296 C1297 1.387 . S
C1296 H1300 0.950 . S
C1296 C1305 1.390 . S
C1297 C1296 1.387 . S
C1297 C1299 1.387 . S
H1298 C1305 0.950 . S
C1299 C1297 1.387 . S
C1299 C1301 1.390 . S
C1299 H1303 0.950 . S
H1300 C1296 0.950 . S
C1301 C1299 1.390 . S
C1301 C1302 1.387 . S
C1301 H1304 0.950 . S
C1302 C1301 1.387 . S
C1302 C1305 1.387 . S
H1303 C1299 0.950 . S
H1304 C1301 0.950 . S
C1305 C1296 1.390 . S
C1305 H1298 0.950 . S
C1305 C1302 1.387 . S
C1306 C1307 1.387 . S
C1306 H1310 0.950 . S
C1306 C1315 1.390 . S
C1307 C1306 1.387 . S
C1307 C1309 1.387 . S
H1308 C1315 0.950 . S
C1309 C1307 1.387 . S
C1309 C1311 1.390 . S
C1309 H1313 0.950 . S
H1310 C1306 0.950 . S
C1311 C1309 1.390 . S
C1311 C1312 1.387 . S
C1311 H1314 0.950 . S
C1312 C1311 1.387 . S
C1312 C1315 1.387 . S
H1313 C1309 0.950 . S
H1314 C1311 0.950 . S
C1315 C1306 1.390 . S
C1315 H1308 0.950 . S
C1315 C1312 1.387 . S
C1316 C1317 1.387 . S
C1316 H1320 0.950 . S
C1316 C1325 1.390 . S
C1317 C1316 1.387 . S
C1317 C1319 1.387 . S
H1318 C1325 0.950 . S
C1319 C1317 1.387 . S
C1319 C1321 1.390 . S
C1319 H1323 0.950 . S
H1320 C1316 0.950 . S
C1321 C1319 1.390 . S
C1321 C1322 1.387 . S
C1321 H1324 0.950 . S
C1322 C1321 1.387 . S
C1322 C1325 1.387 . S
H1323 C1319 0.950 . S
H1324 C1321 0.950 . S
C1325 C1316 1.390 . S
C1325 H1318 0.950 . S
C1325 C1322 1.387 . S
C1326 C1327 1.387 . S
C1326 H1330 0.950 . S
C1326 C1335 1.390 . S
C1327 C1326 1.387 . S
C1327 C1329 1.387 . S
H1328 C1335 0.950 . S
C1329 C1327 1.387 . S
C1329 C1331 1.390 . S
C1329 H1333 0.950 . S
H1330 C1326 0.950 . S
C1331 C1329 1.390 . S
C1331 C1332 1.387 . S
C1331 H1334 0.950 . S
C1332 C1331 1.387 . S
C1332 C1335 1.387 . S
H1333 C1329 0.950 . S
H1334 C1331 0.950 . S
C1335 C1326 1.390 . S
C1335 H1328 0.950 . S
C1335 C1332 1.387 . S
C1336 C1337 1.387 . S
C1336 H1340 0.950 . S
C1336 C1345 1.390 . S
C1337 C1336 1.387 . S
C1337 C1339 1.387 . S
H1338 C1345 0.950 . S
C1339 C1337 1.387 . S
C1339 C1341 1.390 . S
C1339 H1343 0.950 . S
H1340 C1336 0.950 . S
C1341 C1339 1.390 . S
C1341 C1342 1.387 . S
C1341 H1344 0.950 . S
C1342 C1341 1.387 . S
C1342 C1345 1.387 . S
H1343 C1339 0.950 . S
H1344 C1341 0.950 . S
C1345 C1336 1.390 . S
C1345 H1338 0.950 . S
C1345 C1342 1.387 . S
C1346 C1347 1.387 . S
C1346 H1350 0.950 . S
C1346 C1355 1.390 . S
C1347 C1346 1.387 . S
C1347 C1349 1.387 . S
H1348 C1355 0.950 . S
C1349 C1347 1.387 . S
C1349 C1351 1.390 . S
C1349 H1353 0.950 . S
H1350 C1346 0.950 . S
C1351 C1349 1.390 . S
C1351 C1352 1.387 . S
C1351 H1354 0.950 . S
C1352 C1351 1.387 . S
C1352 C1355 1.387 . S
H1353 C1349 0.950 . S
H1354 C1351 0.950 . S
C1355 C1346 1.390 . S
C1355 H1348 0.950 . S
C1355 C1352 1.387 . S
C1356 C1357 1.387 . S
C1356 H1360 0.950 . S
C1356 C1365 1.390 . S
C1357 C1356 1.387 . S
C1357 C1359 1.387 . S
H1358 C1365 0.950 . S
C1359 C1357 1.387 . S
C1359 C1361 1.390 . S
C1359 H1363 0.950 . S
H1360 C1356 0.950 . S
C1361 C1359 1.390 . S
C1361 C1362 1.387 . S
C1361 H1364 0.950 . S
C1362 C1361 1.387 . S
C1362 C1365 1.387 . S
H1363 C1359 0.950 . S
H1364 C1361 0.950 . S
C1365 C1356 1.390 . S
C1365 H1358 0.950 . S
C1365 C1362 1.387 . S
C1366 C1367 1.387 . S
C1366 H1370 0.950 . S
C1366 C1375 1.390 . S
C1367 C1366 1.387 . S
C1367 C1369 1.387 . S
H1368 C1375 0.950 . S
C1369 C1367 1.387 . S
C1369 C1371 1.390 . S
C1369 H1373 0.950 . S
H1370 C1366 0.950 . S
C1371 C1369 1.390 . S
C1371 C1372 1.387 . S
C1371 H1374 0.950 . S
C1372 C1371 1.387 . S
C1372 C1375 1.387 . S
H1373 C1369 0.950 . S
H1374 C1371 0.950 . S
C1375 C1366 1.390 . S
C1375 H1368 0.950 . S
C1375 C1372 1.387 . S
C1376 C1377 1.387 . S
C1376 H1380 0.950 . S
C1376 C1385 1.390 . S
C1377 C1376 1.387 . S
C1377 C1379 1.387 . S
H1378 C1385 0.950 . S
C1379 C1377 1.387 . S
C1379 C1381 1.390 . S
C1379 H1383 0.950 . S
H1380 C1376 0.950 . S
C1381 C1379 1.390 . S
C1381 C1382 1.387 . S
C1381 H1384 0.950 . S
C1382 C1381 1.387 . S
C1382 C1385 1.387 . S
H1383 C1379 0.950 . S
H1384 C1381 0.950 . S
C1385 C1376 1.390 . S
C1385 H1378 0.950 . S
C1385 C1382 1.387 . S
C1386 C1387 1.387 . S
C1386 H1390 0.950 . S
C1386 C1395 1.390 . S
C1387 C1386 1.387 . S
C1387 C1389 1.387 . S
H1388 C1395 0.950 . S
C1389 C1387 1.387 . S
C1389 C1391 1.390 . S
C1389 H1393 0.950 . S
H1390 C1386 0.950 . S
C1391 C1389 1.390 . S
C1391 C1392 1.387 . S
C1391 H1394 0.950 . S
C1392 C1391 1.387 . S
C1392 C1395 1.387 . S
H1393 C1389 0.950 . S
H1394 C1391 0.950 . S
C1395 C1386 1.390 . S
C1395 H1388 0.950 . S
C1395 C1392 1.387 . S
C1396 C1397 1.387 . S
C1396 H1400 0.950 . S
C1396 C1405 1.390 . S
C1397 C1396 1.387 . S
C1397 C1399 1.387 . S
H1398 C1405 0.950 . S
C1399 C1397 1.387 . S
C1399 C1401 1.390 . S
C1399 H1403 0.950 . S
H1400 C1396 0.950 . S
C1401 C1399 1.390 . S
C1401 C1402 1.387 . S
C1401 H1404 0.950 . S
C1402 C1401 1.387 . S
C1402 C1405 1.387 . S
H1403 C1399 0.950 . S
H1404 C1401 0.950 . S
C1405 C1396 1.390 . S
C1405 H1398 0.950 . S
C1405 C1402 1.387 . S
C1406 C1407 1.387 . S
C1406 H1410 0.950 . S
C1406 C1415 1.390 . S
C1407 C1406 1.387 . S
C1407 C1409 1.387 . S
H1408 C1415 0.950 . S
C1409 C1407 1.387 . S
C1409 C1411 1.390 . S
C1409 H1413 0.950 . S
H1410 C1406 0.950 . S
C1411 C1409 1.390 . S
C1411 C1412 1.387 . S
C1411 H1414 0.950 . S
C1412 C1411 1.387 . S
C1412 C1415 1.387 . S
H1413 C1409 0.950 . S
H1414 C1411 0.950 . S
C1415 C1406 1.390 . S
C1415 H1408 0.950 . S
C1415 C1412 1.387 . S
C1416 C1417 1.387 . S
C1416 H1420 0.950 . S
C1416 C1425 1.390 . S
C1417 C1416 1.387 . S
C1417 C1419 1.387 . S
H1418 C1425 0.950 . S
C1419 C1417 1.387 . S
C1419 C1421 1.390 . S
C1419 H1423 0.950 . S
H1420 C1416 0.950 . S
C1421 C1419 1.390 . S
C1421 C1422 1.387 . S
C1421 H1424 0.950 . S
C1422 C1421 1.387 . S
C1422 C1425 1.387 . S
H1423 C1419 0.950 . S
H1424 C1421 0.950 . S
C1425 C1416 1.390 . S
C1425 H1418 0.950 . S
C1425 C1422 1.387 . S
C1426 C1427 1.387 . S
C1426 H1430 0.950 . S
C1426 C1435 1.390 . S
C1427 C1426 1.387 . S
C1427 C1429 1.387 . S
H1428 C1435 0.950 . S
C1429 C1427 1.387 . S
C1429 C1431 1.390 . S
C1429 H1433 0.950 . S
H1430 C1426 0.950 . S
C1431 C1429 1.390 . S
C1431 C1432 1.387 . S
C1431 H1434 0.950 . S
C1432 C1431 1.387 . S
C1432 C1435 1.387 . S
H1433 C1429 0.950 . S
H1434 C1431 0.950 . S
C1435 C1426 1.390 . S
C1435 H1428 0.950 . S
C1435 C1432 1.387 . S
C1436 C1437 1.387 . S
C1436 H1440 0.950 . S
C1436 C1445 1.390 . S
C1437 C1436 1.387 . S
C1437 C1439 1.387 . S
H1438 C1445 0.950 . S
C1439 C1437 1.387 . S
C1439 C1441 1.390 . S
C1439 H1443 0.950 . S
H1440 C1436 0.950 . S
C1441 C1439 1.390 . S
C1441 C1442 1.387 . S
C1441 H1444 0.950 . S
C1442 C1441 1.387 . S
C1442 C1445 1.387 . S
H1443 C1439 0.950 . S
H1444 C1441 0.950 . S
C1445 C1436 1.390 . S
C1445 H1438 0.950 . S
C1445 C1442 1.387 . S
C1446 C1447 1.387 . S
C1446 H1450 0.950 . S
C1446 C1455 1.390 . S
C1447 C1446 1.387 . S
C1447 C1449 1.387 . S
H1448 C1455 0.950 . S
C1449 C1447 1.387 . S
C1449 C1451 1.390 . S
C1449 H1453 0.950 . S
H1450 C1446 0.950 . S
C1451 C1449 1.390 . S
C1451 C1452 1.387 . S
C1451 H1454 0.950 . S
C1452 C1451 1.387 . S
C1452 C1455 1.387 . S
H1453 C1449 0.950 . S
H1454 C1451 0.950 . S
C1455 C1446 1.390 . S
C1455 H1448 0.950 . S
C1455 C1452 1.387 . S
C1456 C1457 1.387 . S
C1456 H1460 0.950 . S
C1456 C1465 1.390 . S
C1457 C1456 1.387 . S
C1457 C1459 1.387 . S
H1458 C1465 0.950 . S
C1459 C1457 1.387 . S
C1459 C1461 1.390 . S
C1459 H1463 0.950 . S
H1460 C1456 0.950 . S
C1461 C1459 1.390 . S
C1461 C1462 1.387 . S
C1461 H1464 0.950 . S
C1462 C1461 1.387 . S
C1462 C1465 1.387 . S
H1463 C1459 0.950 . S
H1464 C1461 0.950 . S
C1465 C1456 1.390 . S
C1465 H1458 0.950 . S
C1465 C1462 1.387 . S
C1466 C1467 1.387 . S
C1466 H1470 0.950 . S
C1466 C1475 1.390 . S
C1467 C1466 1.387 . S
C1467 C1469 1.387 . S
H1468 C1475 0.950 . S
C1469 C1467 1.387 . S
C1469 C1471 1.390 . S
C1469 H1473 0.950 . S
H1470 C1466 0.950 . S
C1471 C1469 1.390 . S
C1471 C1472 1.387 . S
C1471 H1474 0.950 . S
C1472 C1471 1.387 . S
C1472 C1475 1.387 . S
H1473 C1469 0.950 . S
H1474 C1471 0.950 . S
C1475 C1466 1.390 . S
C1475 H1468 0.950 . S
C1475 C1472 1.387 . S
C1476 C1477 1.387 . S
C1476 H1480 0.950 . S
C1476 C1485 1.390 . S
C1477 C1476 1.387 . S
C1477 C1479 1.387 . S
H1478 C1485 0.950 . S
C1479 C1477 1.387 . S
C1479 C1481 1.390 . S
C1479 H1483 0.950 . S
H1480 C1476 0.950 . S
C1481 C1479 1.390 . S
C1481 C1482 1.387 . S
C1481 H1484 0.950 . S
C1482 C1481 1.387 . S
C1482 C1485 1.387 . S
H1483 C1479 0.950 . S
H1484 C1481 0.950 . S
C1485 C1476 1.390 . S
C1485 H1478 0.950 . S
C1485 C1482 1.387 . S
C1486 C1487 1.387 . S
C1486 H1490 0.950 . S
C1486 C1495 1.390 . S
C1487 C1486 1.387 . S
C1487 C1489 1.387 . S
H1488 C1495 0.950 . S
C1489 C1487 1.387 . S
C1489 C1491 1.390 . S
C1489 H1493 0.950 . S
H1490 C1486 0.950 . S
C1491 C1489 1.390 . S
C1491 C1492 1.387 . S
C1491 H1494 0.950 . S
C1492 C1491 1.387 . S
C1492 C1495 1.387 . S
H1493 C1489 0.950 . S
H1494 C1491 0.950 . S
C1495 C1486 1.390 . S
C1495 H1488 0.950 . S
C1495 C1492 1.387 . S
C1496 C1497 1.387 . S
C1496 H1500 0.950 . S
C1496 C1505 1.390 . S
C1497 C1496 1.387 . S
C1497 C1499 1.387 . S
H1498 C1505 0.950 . S
C1499 C1497 1.387 . S
C1499 C1501 1.390 . S
C1499 H1503 0.950 . S
H1500 C1496 0.950 . S
C1501 C1499 1.390 . S
C1501 C1502 1.387 . S
C1501 H1504 0.950 . S
C1502 C1501 1.387 . S
C1502 C1505 1.387 . S
H1503 C1499 0.950 . S
H1504 C1501 0.950 . S
C1505 C1496 1.390 . S
C1505 H1498 0.950 . S
C1505 C1502 1.387 . S
C1506 C1507 1.387 . S
C1506 H1510 0.950 . S
C1506 C1515 1.390 . S
C1507 C1506 1.387 . S
C1507 C1509 1.387 . S
H1508 C1515 0.950 . S
C1509 C1507 1.387 . S
C1509 C1511 1.390 . S
C1509 H1513 0.950 . S
H1510 C1506 0.950 . S
C1511 C1509 1.390 . S
C1511 C1512 1.387 . S
C1511 H1514 0.950 . S
C1512 C1511 1.387 . S
C1512 C1515 1.387 . S
H1513 C1509 0.950 . S
H1514 C1511 0.950 . S
C1515 C1506 1.390 . S
C1515 H1508 0.950 . S
C1515 C1512 1.387 . S
C1516 C1517 1.387 . S
C1516 H1520 0.950 . S
C1516 C1525 1.390 . S
C1517 C1516 1.387 . S
C1517 C1519 1.387 . S
H1518 C1525 0.950 . S
C1519 C1517 1.387 . S
C1519 C1521 1.390 . S
C1519 H1523 0.950 . S
H1520 C1516 0.950 . S
C1521 C1519 1.390 . S
C1521 C1522 1.387 . S
C1521 H1524 0.950 . S
C1522 C1521 1.387 . S
C1522 C1525 1.387 . S
H1523 C1519 0.950 . S
H1524 C1521 0.950 . S
C1525 C1516 1.390 . S
C1525 H1518 0.950 . S
C1525 C1522 1.387 . S
C1526 C1527 1.387 . S
C1526 H1530 0.950 . S
C1526 C1535 1.390 . S
C1527 C1526 1.387 . S
C1527 C1529 1.387 . S
H1528 C1535 0.950 . S
C1529 C1527 1.387 . S
C1529 C1531 1.390 . S
C1529 H1533 0.950 . S
H1530 C1526 0.950 . S
C1531 C1529 1.390 . S
C1531 C1532 1.387 . S
C1531 H1534 0.950 . S
C1532 C1531 1.387 . S
C1532 C1535 1.387 . S
H1533 C1529 0.950 . S
H1534 C1531 0.950 . S
C1535 C1526 1.390 . S
C1535 H1528 0.950 . S
C1535 C1532 1.387 . S
C1536 C1537 1.387 . S
C1536 H1540 0.950 . S
C1536 C1545 1.390 . S
C1537 C1536 1.387 . S
C1537 C1539 1.387 . S
H1538 C1545 0.950 . S
C1539 C1537 1.387 . S
C1539 C1541 1.390 . S
C1539 H1543 0.950 . S
H1540 C1536 0.950 . S
C1541 C1539 1.390 . S
C1541 C1542 1.387 . S
C1541 H1544 0.950 . S
C1542 C1541 1.387 . S
C1542 C1545 1.387 . S
H1543 C1539 0.950 . S
H1544 C1541 0.950 . S
C1545 C1536 1.390 . S
C1545 H1538 0.950 . S
C1545 C1542 1.387 . S
C1546 C1547 1.387 . S
C1546 H1550 0.950 . S
C1546 C1555 1.390 . S
C1547 C1546 1.387 . S
C1547 C1549 1.387 . S
H1548 C1555 0.950 . S
C1549 C1547 1.387 . S
C1549 C1551 1.390 . S
C1549 H1553 0.950 . S
H1550 C1546 0.950 . S
C1551 C1549 1.390 . S
C1551 C1552 1.387 . S
C1551 H1554 0.950 . S
C1552 C1551 1.387 . S
C1552 C1555 1.387 . S
H1553 C1549 0.950 . S
H1554 C1551 0.950 . S
C1555 C1546 1.390 . S
C1555 H1548 0.950 . S
C1555 C1552 1.387 . S
C1556 C1557 1.387 . S
C1556 H1560 0.950 . S
C1556 C1565 1.390 . S
C1557 C1556 1.387 . S
C1557 C1559 1.387 . S
H1558 C1565 0.950 . S
C1559 C1557 1.387 . S
C1559 C1561 1.390 . S
C1559 H1563 0.950 . S
H1560 C1556 0.950 . S
C1561 C1559 1.390 . S
C1561 C1562 1.387 . S
C1561 H1564 0.950 . S
C1562 C1561 1.387 . S
C1562 C1565 1.387 . S
H1563 C1559 0.950 . S
H1564 C1561 0.950 . S
C1565 C1556 1.390 . S
C1565 H1558 0.950 . S
C1565 C1562 1.387 . S
C1566 C1567 1.387 . S
C1566 H1570 0.950 . S
C1566 C1575 1.390 . S
C1567 C1566 1.387 . S
C1567 C1569 1.387 . S
H1568 C1575 0.950 . S
C1569 C1567 1.387 . S
C1569 C1571 1.390 . S
C1569 H1573 0.950 . S
H1570 C1566 0.950 . S
C1571 C1569 1.390 . S
C1571 C1572 1.387 . S
C1571 H1574 0.950 . S
C1572 C1571 1.387 . S
C1572 C1575 1.387 . S
H1573 C1569 0.950 . S
H1574 C1571 0.950 . S
C1575 C1566 1.390 . S
C1575 H1568 0.950 . S
C1575 C1572 1.387 . S
C1576 C1577 1.387 . S
C1576 H1580 0.950 . S
C1576 C1585 1.390 . S
C1577 C1576 1.387 . S
C1577 C1579 1.387 . S
H1578 C1585 0.950 . S
C1579 C1577 1.387 . S
C1579 C1581 1.390 . S
C1579 H1583 0.950 . S
H1580 C1576 0.950 . S
C1581 C1579 1.390 . S
C1581 C1582 1.387 . S
C1581 H1584 0.950 . S
C1582 C1581 1.387 . S
C1582 C1585 1.387 . S
H1583 C1579 0.950 . S
H1584 C1581 0.950 . S
C1585 C1576 1.390 . S
C1585 H1578 0.950 . S
C1585 C1582 1.387 . S
C1586 C1587 1.387 . S
C1586 H1590 0.950 . S
C1586 C1595 1.390 . S
C1587 C1586 1.387 . S
C1587 C1589 1.387 . S
H1588 C1595 0.950 . S
C1589 C1587 1.387 . S
C1589 C1591 1.390 . S
C1589 H1593 0.950 . S
H1590 C1586 0.950 . S
C1591 C1589 1.390 . S
C1591 C1592 1.387 . S
C1591 H1594 0.950 . S
C1592 C1591 1.387 . S
C1592 C1595 1.387 . S
H1593 C1589 0.950 . S
H1594 C1591 0.950 . S
C1595 C1586 1.390 . S
C1595 H1588 0.950 . S
C1595 C1592 1.387 . S
C1596 C1597 1.387 . S
C1596 H1600 0.950 . S
C1596 C1605 1.390 . S
C1597 C1596 1.387 . S
C1597 C1599 1.387 . S
H1598 C1605 0.950 . S
C1599 C1597 1.387 . S
C1599 C1601 1.390 . S
C1599 H1603 0.950 . S
H1600 C1596 0.950 . S
C1601 C1599 1.390 . S
C1601 C1602 1.387 . S
C1601 H1604 0.950 . S
C1602 C1601 1.387 . S
C1602 C1605 1.387 . S
H1603 C1599 0.950 . S
H1604 C1601 0.950 . S
C1605 C1596 1.390 . S
C1605 H1598 0.950 . S
C1605 C1602 1.387 . S
C1606 C1607 1.387 . S
C1606 H1610 0.950 . S
C1606 C1615 1.390 . S
C1607 C1606 1.387 . S
C1607 C1609 1.387 . S
H1608 C1615 0.950 . S
C1609 C1607 1.387 . S
C1609 C1611 1.390 . S
C1609 H1613 0.950 . S
H1610 C1606 0.950 . S
C1611 C1609 1.390 . S
C1611 C1612 1.387 . S
C1611 H1614 0.950 . S
C1612 C1611 1.387 . S
C1612 C1615 1.387 . S
H1613 C1609 0.950 . S
H1614 C1611 0.950 . S
C1615 C1606 1.390 . S
C1615 H1608 0.950 . S
C1615 C1612 1.387 . S
C1616 C1617 1.387 . S
C1616 H1620 0.950 . S
C1616 C1625 1.390 . S
C1617 C1616 1.387 . S
C1617 C1619 1.387 . S
H1618 C1625 0.950 . S
C1619 C1617 1.387 . S
C1619 C1621 1.390 . S
C1619 H1623 0.950 . S
H1620 C1616 0.950 . S
C1621 C1619 1.390 . S
C1621 C1622 1.387 . S
C1621 H1624 0.950 . S
C1622 C1621 1.387 . S
C1622 C1625 1.387 . S
H1623 C1619 0.950 . S
H1624 C1621 0.950 . S
C1625 C1616 1.390 . S
C1625 H1618 0.950 . S
C1625 C1622 1.387 . S
C1626 C1627 1.387 . S
C1626 H1630 0.950 . S
C1626 C1635 1.390 . S
C1627 C1626 1.387 . S
C1627 C1629 1.387 . S
H1628 C1635 0.950 . S
C1629 C1627 1.387 . S
C1629 C1631 1.390 . S
C1629 H1633 0.950 . S
H1630 C1626 0.950 . S
C1631 C1629 1.390 . S
C1631 C1632 1.387 . S
C1631 H1634 0.950 . S
C1632 C1631 1.387 . S
C1632 C1635 1.387 . S
H1633 C1629 0.950 . S
H1634 C1631 0.950 . S
C1635 C1626 1.390 . S
C1635 H1628 0.950 . S
C1635 C1632 1.387 . S
C1636 C1637 1.387 . S
C1636 H1640 0.950 . S
C1636 C1645 1.390 . S
C1637 C1636 1.387 . S
C1637 C1639 1.387 . S
H1638 C1645 0.950 . S
C1639 C1637 1.387 . S
C1639 C1641 1.390 . S
C1639 H1643 0.950 . S
H1640 C1636 0.950 . S
C1641 C1639 1.390 . S
C1641 C1642 1.387 . S
C1641 H1644 0.950 . S
C1642 C1641 1.387 . S
C1642 C1645 1.387 . S
H1643 C1639 0.950 . S
H1644 C1641 0.950 . S
C1645 C1636 1.390 . S
C1645 H1638 0.950 . S
C1645 C1642 1.387 . S
C1646 C1647 1.387 . S
C1646 H1650 0.950 . S
C1646 C1655 1.390 . S
C1647 C1646 1.387 . S
C1647 C1649 1.387 . S
H1648 C1655 0.950 . S
C1649 C1647 1.387 . S
C1649 C1651 1.390 . S
C1649 H1653 0.950 . S
H1650 C1646 0.950 . S
C1651 C1649 1.390 . S
C1651 C1652 1.387 . S
C1651 H1654 0.950 . S
C1652 C1651 1.387 . S
C1652 C1655 1.387 . S
H1653 C1649 0.950 . S
H1654 C1651 0.950 . S
C1655 C1646 1.390 . S
C1655 H1648 0.950 . S
C1655 C1652 1.387 . S
C1656 C1657 1.387 . S
C1656 H1660 0.950 . S
C1656 C1665 1.390 . S
C1657 C1656 1.387 . S
C1657 C1659 1.387 . S
H1658 C1665 0.950 . S
C1659 C1657 1.387 . S
C1659 C1661 1.390 . S
C1659 H1663 0.950 . S
H1660 C1656 0.950 . S
C1661 C1659 1.390 . S
C1661 C1662 1.387 . S
C1661 H1664 0.950 . S
C1662 C1661 1.387 . S
C1662 C1665 1.387 . S
H1663 C1659 0.950 . S
H1664 C1661 0.950 . S
C1665 C1656 1.390 . S
C1665 H1658 0.950 . S
C1665 C1662 1.387 . S
C1666 C1667 1.387 . S
C1666 H1670 0.950 . S
C1666 C1675 1.390 . S
C1667 C1666 1.387 . S
C1667 C1669 1.387 . S
H1668 C1675 0.950 . S
C1669 C1667 1.387 . S
C1669 C1671 1.390 . S
C1669 H1673 0.950 . S
H1670 C1666 0.950 . S
C1671 C1669 1.390 . S
C1671 C1672 1.387 . S
C1671 H1674 0.950 . S
C1672 C1671 1.387 . S
C1672 C1675 1.387 . S
H1673 C1669 0.950 . S
H1674 C1671 0.950 . S
C1675 C1666 1.390 . S
C1675 H1668 0.950 . S
C1675 C1672 1.387 . S
C1676 C1677 1.387 . S
C1676 H1680 0.950 . S
C1676 C1685 1.390 . S
C1677 C1676 1.387 . S
C1677 C1679 1.387 . S
H1678 C1685 0.950 . S
C1679 C1677 1.387 . S
C1679 C1681 1.390 . S
C1679 H1683 0.950 . S
H1680 C1676 0.950 . S
C1681 C1679 1.390 . S
C1681 C1682 1.387 . S
C1681 H1684 0.950 . S
C1682 C1681 1.387 . S
C1682 C1685 1.387 . S
H1683 C1679 0.950 . S
H1684 C1681 0.950 . S
C1685 C1676 1.390 . S
C1685 H1678 0.950 . S
C1685 C1682 1.387 . S
C1686 C1687 1.387 . S
C1686 H1690 0.950 . S
C1686 C1695 1.390 . S
C1687 C1686 1.387 . S
C1687 C1689 1.387 . S
H1688 C1695 0.950 . S
C1689 C1687 1.387 . S
C1689 C1691 1.390 . S
C1689 H1693 0.950 . S
H1690 C1686 0.950 . S
C1691 C1689 1.390 . S
C1691 C1692 1.387 . S
C1691 H1694 0.950 . S
C1692 C1691 1.387 . S
C1692 C1695 1.387 . S
H1693 C1689 0.950 . S
H1694 C1691 0.950 . S
C1695 C1686 1.390 . S
C1695 H1688 0.950 . S
C1695 C1692 1.387 . S
C1696 C1697 1.387 . S
C1696 H1700 0.950 . S
C1696 C1705 1.390 . S
C1697 C1696 1.387 . S
C1697 C1699 1.387 . S
H1698 C1705 0.950 . S
C1699 C1697 1.387 . S
C1699 C1701 1.390 . S
C1699 H1703 0.950 . S
H1700 C1696 0.950 . S
C1701 C1699 1.390 . S
C1701 C1702 1.387 . S
C1701 H1704 0.950 . S
C1702 C1701 1.387 . S
C1702 C1705 1.387 . S
H1703 C1699 0.950 . S
H1704 C1701 0.950 . S
C1705 C1696 1.390 . S
C1705 H1698 0.950 . S
C1705 C1702 1.387 . S
C1706 C1707 1.387 1_545 S
C1706 H1710 0.950 . S
C1706 C1715 1.390 1_655 S
C1707 C1706 1.387 1_565 S
C1707 C1709 1.387 . S
H1708 C1715 0.950 . S
C1709 C1707 1.387 . S
C1709 C1711 1.390 1_655 S
C1709 H1713 0.950 . S
H1710 C1706 0.950 . S
C1711 C1709 1.390 1_455 S
C1711 C1712 1.387 1_565 S
C1711 H1714 0.950 . S
C1712 C1711 1.387 1_545 S
C1712 C1715 1.387 . S
H1713 C1709 0.950 . S
H1714 C1711 0.950 . S
C1715 C1706 1.390 1_455 S
C1715 H1708 0.950 . S
C1715 C1712 1.387 . S
C1716 C1717 1.387 . S
C1716 H1720 0.950 . S
C1716 C1725 1.390 . S
C1717 C1716 1.387 . S
C1717 C1719 1.387 . S
H1718 C1725 0.950 . S
C1719 C1717 1.387 . S
C1719 C1721 1.390 . S
C1719 H1723 0.950 . S
H1720 C1716 0.950 . S
C1721 C1719 1.390 . S
C1721 C1722 1.387 . S
C1721 H1724 0.950 . S
C1722 C1721 1.387 . S
C1722 C1725 1.387 . S
H1723 C1719 0.950 . S
H1724 C1721 0.950 . S
C1725 C1716 1.390 . S
C1725 H1718 0.950 . S
C1725 C1722 1.387 . S
C1726 C1727 1.387 1_554 S
C1726 H1730 0.950 . S
C1726 C1735 1.390 . S
C1727 C1726 1.387 1_556 S
C1727 C1729 1.387 1_565 S
H1728 C1735 0.950 . S
C1729 C1727 1.387 1_545 S
C1729 C1731 1.390 . S
C1729 H1733 0.950 . S
H1730 C1726 0.950 . S
C1731 C1729 1.390 . S
C1731 C1732 1.387 1_556 S
C1731 H1734 0.950 . S
C1732 C1731 1.387 1_554 S
C1732 C1735 1.387 1_545 S
H1733 C1729 0.950 . S
H1734 C1731 0.950 . S
C1735 C1726 1.390 . S
C1735 H1728 0.950 . S
C1735 C1732 1.387 1_565 S
C1736 C1737 1.387 . S
C1736 H1740 0.950 . S
C1736 C1745 1.390 . S
C1737 C1736 1.387 . S
C1737 C1739 1.387 . S
H1738 C1745 0.950 . S
C1739 C1737 1.387 . S
C1739 C1741 1.390 . S
C1739 H1743 0.950 . S
H1740 C1736 0.950 . S
C1741 C1739 1.390 . S
C1741 C1742 1.387 . S
C1741 H1744 0.950 . S
C1742 C1741 1.387 . S
C1742 C1745 1.387 . S
H1743 C1739 0.950 . S
H1744 C1741 0.950 . S
C1745 C1736 1.390 . S
C1745 H1738 0.950 . S
C1745 C1742 1.387 . S
C1746 C1747 1.387 1_565 S
C1746 H1750 0.950 . S
C1746 C1755 1.390 . S
C1747 C1746 1.387 1_545 S
C1747 C1749 1.387 . S
H1748 C1755 0.950 . S
C1749 C1747 1.387 . S
C1749 C1751 1.390 . S
C1749 H1753 0.950 . S
H1750 C1746 0.950 . S
C1751 C1749 1.390 . S
C1751 C1752 1.387 1_545 S
C1751 H1754 0.950 . S
C1752 C1751 1.387 1_565 S
C1752 C1755 1.387 . S
H1753 C1749 0.950 . S
H1754 C1751 0.950 . S
C1755 C1746 1.390 . S
C1755 H1748 0.950 . S
C1755 C1752 1.387 . S
C1756 C1757 1.387 . S
C1756 H1760 0.950 . S
C1756 C1765 1.390 . S
C1757 C1756 1.387 . S
C1757 C1759 1.387 . S
H1758 C1765 0.950 . S
C1759 C1757 1.387 . S
C1759 C1761 1.390 . S
C1759 H1763 0.950 . S
H1760 C1756 0.950 . S
C1761 C1759 1.390 . S
C1761 C1762 1.387 . S
C1761 H1764 0.950 . S
C1762 C1761 1.387 . S
C1762 C1765 1.387 . S
H1763 C1759 0.950 . S
H1764 C1761 0.950 . S
C1765 C1756 1.390 . S
C1765 H1758 0.950 . S
C1765 C1762 1.387 . S
C1766 C1767 1.387 1_545 S
C1766 H1770 0.950 . S
C1766 C1775 1.390 1_455 S
C1767 C1766 1.387 1_565 S
C1767 C1769 1.387 1_554 S
H1768 C1775 0.950 . S
C1769 C1767 1.387 1_556 S
C1769 C1771 1.390 1_455 S
C1769 H1773 0.950 . S
H1770 C1766 0.950 . S
C1771 C1769 1.390 1_655 S
C1771 C1772 1.387 1_565 S
C1771 H1774 0.950 . S
C1772 C1771 1.387 1_545 S
C1772 C1775 1.387 1_556 S
H1773 C1769 0.950 . S
H1774 C1771 0.950 . S
C1775 C1766 1.390 1_655 S
C1775 H1768 0.950 . S
C1775 C1772 1.387 1_554 S
C1776 C1777 1.387 . S
C1776 H1780 0.950 . S
C1776 C1785 1.390 . S
C1777 C1776 1.387 . S
C1777 C1779 1.387 . S
H1778 C1785 0.950 . S
C1779 C1777 1.387 . S
C1779 C1781 1.390 . S
C1779 H1783 0.950 . S
H1780 C1776 0.950 . S
C1781 C1779 1.390 . S
C1781 C1782 1.387 . S
C1781 H1784 0.950 . S
C1782 C1781 1.387 . S
C1782 C1785 1.387 . S
H1783 C1779 0.950 . S
H1784 C1781 0.950 . S
C1785 C1776 1.390 . S
C1785 H1778 0.950 . S
C1785 C1782 1.387 . S
C1786 C1787 1.387 . S
C1786 H1790 0.950 . S
C1786 C1795 1.390 . S
C1787 C1786 1.387 . S
C1787 C1789 1.387 . S
H1788 C1795 0.950 . S
C1789 C1787 1.387 . S
C1789 C1791 1.390 . S
C1789 H1793 0.950 . S
H1790 C1786 0.950 . S
C1791 C1789 1.390 . S
C1791 C1792 1.387 . S
C1791 H1794 0.950 . S
C1792 C1791 1.387 . S
C1792 C1795 1.387 . S
H1793 C1789 0.950 . S
H1794 C1791 0.950 . S
C1795 C1786 1.390 . S
C1795 H1788 0.950 . S
C1795 C1792 1.387 . S
C1796 C1797 1.387 . S
C1796 H1800 0.950 . S
C1796 C1805 1.390 . S
C1797 C1796 1.387 . S
C1797 C1799 1.387 . S
H1798 C1805 0.950 . S
C1799 C1797 1.387 . S
C1799 C1801 1.390 . S
C1799 H1803 0.950 . S
H1800 C1796 0.950 . S
C1801 C1799 1.390 . S
C1801 C1802 1.387 . S
C1801 H1804 0.950 . S
C1802 C1801 1.387 . S
C1802 C1805 1.387 . S
H1803 C1799 0.950 . S
H1804 C1801 0.950 . S
C1805 C1796 1.390 . S
C1805 H1798 0.950 . S
C1805 C1802 1.387 . S
C1806 C1807 1.387 . S
C1806 H1810 0.950 . S
C1806 C1815 1.390 . S
C1807 C1806 1.387 . S
C1807 C1809 1.387 . S
H1808 C1815 0.950 . S
C1809 C1807 1.387 . S
C1809 C1811 1.390 . S
C1809 H1813 0.950 . S
H1810 C1806 0.950 . S
C1811 C1809 1.390 . S
C1811 C1812 1.387 . S
C1811 H1814 0.950 . S
C1812 C1811 1.387 . S
C1812 C1815 1.387 . S
H1813 C1809 0.950 . S
H1814 C1811 0.950 . S
C1815 C1806 1.390 . S
C1815 H1808 0.950 . S
C1815 C1812 1.387 . S
C1816 C1817 1.387 . S
C1816 H1820 0.950 . S
C1816 C1825 1.390 . S
C1817 C1816 1.387 . S
C1817 C1819 1.387 1_554 S
H1818 C1825 0.950 . S
C1819 C1817 1.387 1_556 S
C1819 C1821 1.390 . S
C1819 H1823 0.950 . S
H1820 C1816 0.950 . S
C1821 C1819 1.390 . S
C1821 C1822 1.387 . S
C1821 H1824 0.950 . S
C1822 C1821 1.387 . S
C1822 C1825 1.387 1_556 S
H1823 C1819 0.950 . S
H1824 C1821 0.950 . S
C1825 C1816 1.390 . S
C1825 H1818 0.950 . S
C1825 C1822 1.387 1_554 S
C1826 C1827 1.387 . S
C1826 H1830 0.950 . S
C1826 C1835 1.390 1_455 S
C1827 C1826 1.387 . S
C1827 C1829 1.387 . S
H1828 C1835 0.950 . S
C1829 C1827 1.387 . S
C1829 C1831 1.390 1_455 S
C1829 H1833 0.950 . S
H1830 C1826 0.950 . S
C1831 C1829 1.390 1_655 S
C1831 C1832 1.387 . S
C1831 H1834 0.950 . S
C1832 C1831 1.387 . S
C1832 C1835 1.387 . S
H1833 C1829 0.950 . S
H1834 C1831 0.950 . S
C1835 C1826 1.390 1_655 S
C1835 H1828 0.950 . S
C1835 C1832 1.387 . S
C1836 C1837 1.387 . S
C1836 H1840 0.950 . S
C1836 C1845 1.390 1_556 S
C1837 C1836 1.387 . S
C1837 C1839 1.387 1_455 S
H1838 C1845 0.950 . S
C1839 C1837 1.387 1_655 S
C1839 C1841 1.390 1_556 S
C1839 H1843 0.950 . S
H1840 C1836 0.950 . S
C1841 C1839 1.390 1_554 S
C1841 C1842 1.387 . S
C1841 H1844 0.950 . S
C1842 C1841 1.387 . S
C1842 C1845 1.387 1_655 S
H1843 C1839 0.950 . S
H1844 C1841 0.950 . S
C1845 C1836 1.390 1_554 S
C1845 H1838 0.950 . S
C1845 C1842 1.387 1_455 S
C1846 C1847 1.387 . S
C1846 H1850 0.950 . S
C1846 C1855 1.390 . S
C1847 C1846 1.387 . S
C1847 C1849 1.387 . S
H1848 C1855 0.950 . S
C1849 C1847 1.387 . S
C1849 C1851 1.390 . S
C1849 H1853 0.950 . S
H1850 C1846 0.950 . S
C1851 C1849 1.390 . S
C1851 C1852 1.387 . S
C1851 H1854 0.950 . S
C1852 C1851 1.387 . S
C1852 C1855 1.387 . S
H1853 C1849 0.950 . S
H1854 C1851 0.950 . S
C1855 C1846 1.390 . S
C1855 H1848 0.950 . S
C1855 C1852 1.387 . S
C1057 N607 1.185 . S
C1062 N13 1.185 . S
C1067 N46 1.188 . S
C1072 N640 1.188 . S
C1077 N79 1.185 . S
C1082 N541 1.185 . S
C1087 N574 1.185 . S
C1092 N112 1.185 . S
C1097 N145 1.188 . S
C1102 N739 1.188 . S
C1107 N772 1.185 . S
C1112 N178 1.185 . S
C1117 N211 1.188 . S
C1122 N673 1.188 . S
C1127 N244 1.185 . S
C1132 N706 1.185 . S
C1137 N277 1.188 . S
C1142 N871 1.188 . S
C1147 N904 1.185 . S
C1152 N310 1.185 . S
C1157 N343 1.185 . S
C1162 N805 1.185 . S
C1167 N376 1.188 . S
C1172 N838 1.188 . S
C1177 N409 1.185 . S
C1182 N1003 1.185 . S
C1187 N1036 1.188 . S
C1192 N442 1.188 . S
C1197 N937 1.185 . S
C1202 N475 1.185 . S
C1207 N970 1.185 . S
C1212 N508 1.185 . S
C1217 C384 1.081 . S
C1222 C7 1.104 . S
C1227 C813 1.081 . S
C1232 C40 1.102 . S
C1237 C73 1.103 . S
C1242 C318 1.079 . S
C1247 C879 1.077 . S
C1252 C106 1.105 . S
C1257 C450 1.080 . S
C1262 C139 1.105 . S
C1267 C172 1.105 . S
C1272 C1011 1.077 . S
C1277 C516 1.077 . S
C1282 C205 1.104 . S
C1287 C945 1.082 . S
C1292 C238 1.103 . S
C1297 C120 1.077 . S
C1302 C271 1.104 . S
C1307 C304 1.105 . S
C1312 C549 1.077 . S
C1317 C337 1.103 . S
C1322 C54 1.078 . S
C1327 C615 1.078 . S
C1332 C370 1.106 . S
C1337 C403 1.103 . S
C1342 C186 1.082 . S
C1347 C747 1.080 . S
C1352 C436 1.105 . S
C1357 C469 1.103 . S
C1362 C252 1.079 . S
C1367 C502 1.106 . S
C1372 C681 1.077 . S
C1377 C912 1.080 . S
C1382 C535 1.105 . S
C1387 C568 1.104 . S
C1392 C285 1.081 . S
C1397 C601 1.105 . S
C1402 C846 1.080 . S
C1407 C351 1.082 . S
C1412 C634 1.103 . S
C1417 C667 1.105 . S
C1422 C978 1.077 . S
C1427 C700 1.103 . S
C1432 C483 1.082 . S
C1437 C1044 1.078 . S
C1442 C733 1.103 . S
C1447 C417 1.077 . S
C1452 C766 1.105 . S
C1457 C648 1.077 . S
C1462 C799 1.106 . S
C1467 C832 1.103 . S
C1472 C21 1.082 . S
C1477 C865 1.103 . S
C1482 C582 1.082 . S
C1487 C87 1.078 . S
C1492 C898 1.104 . S
C1497 C931 1.105 . S
C1502 C714 1.080 . S
C1507 C964 1.102 . S
C1512 C219 1.080 . S
C1517 C780 1.080 . S
C1522 C997 1.105 . S
C1527 C153 1.082 . S
C1532 C1030 1.103 . S
C1537 N233 1.636 . S
C1542 N2 1.636 . S
C1547 N134 1.635 . S
C1552 N35 1.635 . S
C1557 N68 1.636 . S
C1562 N167 1.636 . S
C1567 N200 1.636 . S
C1572 N101 1.636 . S
C1577 N497 1.636 . S
C1582 N266 1.636 . S
C1587 N299 1.636 . S
C1592 N398 1.636 . S
C1597 N431 1.636 . S
C1602 N332 1.636 . S
C1607 N464 1.636 . S
C1612 N365 1.636 . S
C1617 N761 1.636 . S
C1622 N530 1.636 . S
C1627 N662 1.636 . S
C1632 N563 1.636 . S
C1637 N695 1.636 . S
C1642 N596 1.636 . S
C1647 N728 1.636 . S
C1652 N629 1.636 . S
C1657 N794 1.636 . S
C1662 N1025 1.636 . S
C1667 N827 1.636 . S
C1672 N926 1.636 . S
C1677 N860 1.636 . S
C1682 N959 1.636 . S
C1687 N992 1.636 . S
C1692 N893 1.636 . S
C1697 C18 1.431 . S
C1702 C810 1.431 . S
C1707 C315 1.432 . S
C1712 C51 1.432 . S
C1717 C876 1.429 . S
C1722 C84 1.429 . S
C1727 C117 1.433 . S
C1732 C381 1.433 . S
C1737 C150 1.432 . S
C1742 C942 1.432 . S
C1747 C183 1.429 . S
C1752 C447 1.429 . S
C1757 C1008 1.430 . S
C1762 C216 1.430 . S
C1767 C249 1.428 . S
C1772 C513 1.428 . S
C1777 C546 1.429 . S
C1782 C282 1.429 . S
C1787 C612 1.431 . S
C1792 C348 1.431 . S
C1797 C414 1.429 . S
C1802 C678 1.429 . S
C1807 C480 1.429 . S
C1812 C744 1.429 . S
C1817 C843 1.433 . S
C1822 C579 1.433 . S
C1827 C909 1.433 . S
C1832 C645 1.433 . S
C1837 C975 1.432 . S
C1842 C711 1.432 . S
C1847 C1041 1.432 . S
C1852 C777 1.432 . S
